# Generated by pormake.
# Topology gar, (4,6)-cn, num edge types: 1
# Building blocks:
#     Node 0, Type 0, BuildingBlock: NAHDIM_clean_sbu_0, # of connection points: 4
#     Node 1, Type 0, BuildingBlock: NAHDIM_clean_sbu_0, # of connection points: 4
#     Node 2, Type 0, BuildingBlock: NAHDIM_clean_sbu_0, # of connection points: 4
#     Node 3, Type 0, BuildingBlock: NAHDIM_clean_sbu_0, # of connection points: 4
#     Node 4, Type 0, BuildingBlock: NAHDIM_clean_sbu_0, # of connection points: 4
#     Node 5, Type 0, BuildingBlock: NAHDIM_clean_sbu_0, # of connection points: 4
#     Node 6, Type 0, BuildingBlock: NAHDIM_clean_sbu_0, # of connection points: 4
#     Node 7, Type 0, BuildingBlock: NAHDIM_clean_sbu_0, # of connection points: 4
#     Node 8, Type 0, BuildingBlock: NAHDIM_clean_sbu_0, # of connection points: 4
#     Node 9, Type 0, BuildingBlock: NAHDIM_clean_sbu_0, # of connection points: 4
#     Node 10, Type 0, BuildingBlock: NAHDIM_clean_sbu_0, # of connection points: 4
#     Node 11, Type 0, BuildingBlock: NAHDIM_clean_sbu_0, # of connection points: 4
#     Node 12, Type 0, BuildingBlock: NAHDIM_clean_sbu_0, # of connection points: 4
#     Node 13, Type 0, BuildingBlock: NAHDIM_clean_sbu_0, # of connection points: 4
#     Node 14, Type 0, BuildingBlock: NAHDIM_clean_sbu_0, # of connection points: 4
#     Node 15, Type 0, BuildingBlock: NAHDIM_clean_sbu_0, # of connection points: 4
#     Node 16, Type 0, BuildingBlock: NAHDIM_clean_sbu_0, # of connection points: 4
#     Node 17, Type 0, BuildingBlock: NAHDIM_clean_sbu_0, # of connection points: 4
#     Node 18, Type 0, BuildingBlock: NAHDIM_clean_sbu_0, # of connection points: 4
#     Node 19, Type 0, BuildingBlock: NAHDIM_clean_sbu_0, # of connection points: 4
#     Node 20, Type 0, BuildingBlock: NAHDIM_clean_sbu_0, # of connection points: 4
#     Node 21, Type 0, BuildingBlock: NAHDIM_clean_sbu_0, # of connection points: 4
#     Node 22, Type 0, BuildingBlock: NAHDIM_clean_sbu_0, # of connection points: 4
#     Node 23, Type 0, BuildingBlock: NAHDIM_clean_sbu_0, # of connection points: 4
#     Node 24, Type 1, BuildingBlock: HISSIN_clean_sbu_0, # of connection points: 6
#     Node 25, Type 1, BuildingBlock: HISSIN_clean_sbu_0, # of connection points: 6
#     Node 26, Type 1, BuildingBlock: HISSIN_clean_sbu_0, # of connection points: 6
#     Node 27, Type 1, BuildingBlock: HISSIN_clean_sbu_0, # of connection points: 6
#     Node 28, Type 1, BuildingBlock: HISSIN_clean_sbu_0, # of connection points: 6
#     Node 29, Type 1, BuildingBlock: HISSIN_clean_sbu_0, # of connection points: 6
#     Node 30, Type 1, BuildingBlock: HISSIN_clean_sbu_0, # of connection points: 6
#     Node 31, Type 1, BuildingBlock: HISSIN_clean_sbu_0, # of connection points: 6
#     Node 32, Type 1, BuildingBlock: HISSIN_clean_sbu_0, # of connection points: 6
#     Node 33, Type 1, BuildingBlock: HISSIN_clean_sbu_0, # of connection points: 6
#     Node 34, Type 1, BuildingBlock: HISSIN_clean_sbu_0, # of connection points: 6
#     Node 35, Type 1, BuildingBlock: HISSIN_clean_sbu_0, # of connection points: 6
#     Node 36, Type 1, BuildingBlock: HISSIN_clean_sbu_0, # of connection points: 6
#     Node 37, Type 1, BuildingBlock: HISSIN_clean_sbu_0, # of connection points: 6
#     Node 38, Type 1, BuildingBlock: HISSIN_clean_sbu_0, # of connection points: 6
#     Node 39, Type 1, BuildingBlock: HISSIN_clean_sbu_0, # of connection points: 6
#     Edge 40, Type (0, 1), BuildingBlock: OJICUG_clean_linker_0, # of connection points: 2
#     Edge 41, Type (0, 1), BuildingBlock: OJICUG_clean_linker_0, # of connection points: 2
#     Edge 42, Type (0, 1), BuildingBlock: OJICUG_clean_linker_0, # of connection points: 2
#     Edge 43, Type (0, 1), BuildingBlock: OJICUG_clean_linker_0, # of connection points: 2
#     Edge 44, Type (0, 1), BuildingBlock: OJICUG_clean_linker_0, # of connection points: 2
#     Edge 45, Type (0, 1), BuildingBlock: OJICUG_clean_linker_0, # of connection points: 2
#     Edge 46, Type (0, 1), BuildingBlock: OJICUG_clean_linker_0, # of connection points: 2
#     Edge 47, Type (0, 1), BuildingBlock: OJICUG_clean_linker_0, # of connection points: 2
#     Edge 48, Type (0, 1), BuildingBlock: OJICUG_clean_linker_0, # of connection points: 2
#     Edge 49, Type (0, 1), BuildingBlock: OJICUG_clean_linker_0, # of connection points: 2
#     Edge 50, Type (0, 1), BuildingBlock: OJICUG_clean_linker_0, # of connection points: 2
#     Edge 51, Type (0, 1), BuildingBlock: OJICUG_clean_linker_0, # of connection points: 2
#     Edge 52, Type (0, 1), BuildingBlock: OJICUG_clean_linker_0, # of connection points: 2
#     Edge 53, Type (0, 1), BuildingBlock: OJICUG_clean_linker_0, # of connection points: 2
#     Edge 54, Type (0, 1), BuildingBlock: OJICUG_clean_linker_0, # of connection points: 2
#     Edge 55, Type (0, 1), BuildingBlock: OJICUG_clean_linker_0, # of connection points: 2
#     Edge 56, Type (0, 1), BuildingBlock: OJICUG_clean_linker_0, # of connection points: 2
#     Edge 57, Type (0, 1), BuildingBlock: OJICUG_clean_linker_0, # of connection points: 2
#     Edge 58, Type (0, 1), BuildingBlock: OJICUG_clean_linker_0, # of connection points: 2
#     Edge 59, Type (0, 1), BuildingBlock: OJICUG_clean_linker_0, # of connection points: 2
#     Edge 60, Type (0, 1), BuildingBlock: OJICUG_clean_linker_0, # of connection points: 2
#     Edge 61, Type (0, 1), BuildingBlock: OJICUG_clean_linker_0, # of connection points: 2
#     Edge 62, Type (0, 1), BuildingBlock: OJICUG_clean_linker_0, # of connection points: 2
#     Edge 63, Type (0, 1), BuildingBlock: OJICUG_clean_linker_0, # of connection points: 2
#     Edge 64, Type (0, 1), BuildingBlock: OJICUG_clean_linker_0, # of connection points: 2
#     Edge 65, Type (0, 1), BuildingBlock: OJICUG_clean_linker_0, # of connection points: 2
#     Edge 66, Type (0, 1), BuildingBlock: OJICUG_clean_linker_0, # of connection points: 2
#     Edge 67, Type (0, 1), BuildingBlock: OJICUG_clean_linker_0, # of connection points: 2
#     Edge 68, Type (0, 1), BuildingBlock: OJICUG_clean_linker_0, # of connection points: 2
#     Edge 69, Type (0, 1), BuildingBlock: OJICUG_clean_linker_0, # of connection points: 2
#     Edge 70, Type (0, 1), BuildingBlock: OJICUG_clean_linker_0, # of connection points: 2
#     Edge 71, Type (0, 1), BuildingBlock: OJICUG_clean_linker_0, # of connection points: 2
#     Edge 72, Type (0, 1), BuildingBlock: OJICUG_clean_linker_0, # of connection points: 2
#     Edge 73, Type (0, 1), BuildingBlock: OJICUG_clean_linker_0, # of connection points: 2
#     Edge 74, Type (0, 1), BuildingBlock: OJICUG_clean_linker_0, # of connection points: 2
#     Edge 75, Type (0, 1), BuildingBlock: OJICUG_clean_linker_0, # of connection points: 2
#     Edge 76, Type (0, 1), BuildingBlock: OJICUG_clean_linker_0, # of connection points: 2
#     Edge 77, Type (0, 1), BuildingBlock: OJICUG_clean_linker_0, # of connection points: 2
#     Edge 78, Type (0, 1), BuildingBlock: OJICUG_clean_linker_0, # of connection points: 2
#     Edge 79, Type (0, 1), BuildingBlock: OJICUG_clean_linker_0, # of connection points: 2
#     Edge 80, Type (0, 1), BuildingBlock: OJICUG_clean_linker_0, # of connection points: 2
#     Edge 81, Type (0, 1), BuildingBlock: OJICUG_clean_linker_0, # of connection points: 2
#     Edge 82, Type (0, 1), BuildingBlock: OJICUG_clean_linker_0, # of connection points: 2
#     Edge 83, Type (0, 1), BuildingBlock: OJICUG_clean_linker_0, # of connection points: 2
#     Edge 84, Type (0, 1), BuildingBlock: OJICUG_clean_linker_0, # of connection points: 2
#     Edge 85, Type (0, 1), BuildingBlock: OJICUG_clean_linker_0, # of connection points: 2
#     Edge 86, Type (0, 1), BuildingBlock: OJICUG_clean_linker_0, # of connection points: 2
#     Edge 87, Type (0, 1), BuildingBlock: OJICUG_clean_linker_0, # of connection points: 2
#     Edge 88, Type (0, 1), BuildingBlock: OJICUG_clean_linker_0, # of connection points: 2
#     Edge 89, Type (0, 1), BuildingBlock: OJICUG_clean_linker_0, # of connection points: 2
#     Edge 90, Type (0, 1), BuildingBlock: OJICUG_clean_linker_0, # of connection points: 2
#     Edge 91, Type (0, 1), BuildingBlock: OJICUG_clean_linker_0, # of connection points: 2
#     Edge 92, Type (0, 1), BuildingBlock: OJICUG_clean_linker_0, # of connection points: 2
#     Edge 93, Type (0, 1), BuildingBlock: OJICUG_clean_linker_0, # of connection points: 2
#     Edge 94, Type (0, 1), BuildingBlock: OJICUG_clean_linker_0, # of connection points: 2
#     Edge 95, Type (0, 1), BuildingBlock: OJICUG_clean_linker_0, # of connection points: 2
#     Edge 96, Type (0, 1), BuildingBlock: OJICUG_clean_linker_0, # of connection points: 2
#     Edge 97, Type (0, 1), BuildingBlock: OJICUG_clean_linker_0, # of connection points: 2
#     Edge 98, Type (0, 1), BuildingBlock: OJICUG_clean_linker_0, # of connection points: 2
#     Edge 99, Type (0, 1), BuildingBlock: OJICUG_clean_linker_0, # of connection points: 2
#     Edge 100, Type (0, 1), BuildingBlock: OJICUG_clean_linker_0, # of connection points: 2
#     Edge 101, Type (0, 1), BuildingBlock: OJICUG_clean_linker_0, # of connection points: 2
#     Edge 102, Type (0, 1), BuildingBlock: OJICUG_clean_linker_0, # of connection points: 2
#     Edge 103, Type (0, 1), BuildingBlock: OJICUG_clean_linker_0, # of connection points: 2
#     Edge 104, Type (0, 1), BuildingBlock: OJICUG_clean_linker_0, # of connection points: 2
#     Edge 105, Type (0, 1), BuildingBlock: OJICUG_clean_linker_0, # of connection points: 2
#     Edge 106, Type (0, 1), BuildingBlock: OJICUG_clean_linker_0, # of connection points: 2
#     Edge 107, Type (0, 1), BuildingBlock: OJICUG_clean_linker_0, # of connection points: 2
#     Edge 108, Type (0, 1), BuildingBlock: OJICUG_clean_linker_0, # of connection points: 2
#     Edge 109, Type (0, 1), BuildingBlock: OJICUG_clean_linker_0, # of connection points: 2
#     Edge 110, Type (0, 1), BuildingBlock: OJICUG_clean_linker_0, # of connection points: 2
#     Edge 111, Type (0, 1), BuildingBlock: OJICUG_clean_linker_0, # of connection points: 2
#     Edge 112, Type (0, 1), BuildingBlock: OJICUG_clean_linker_0, # of connection points: 2
#     Edge 113, Type (0, 1), BuildingBlock: OJICUG_clean_linker_0, # of connection points: 2
#     Edge 114, Type (0, 1), BuildingBlock: OJICUG_clean_linker_0, # of connection points: 2
#     Edge 115, Type (0, 1), BuildingBlock: OJICUG_clean_linker_0, # of connection points: 2
#     Edge 116, Type (0, 1), BuildingBlock: OJICUG_clean_linker_0, # of connection points: 2
#     Edge 117, Type (0, 1), BuildingBlock: OJICUG_clean_linker_0, # of connection points: 2
#     Edge 118, Type (0, 1), BuildingBlock: OJICUG_clean_linker_0, # of connection points: 2
#     Edge 119, Type (0, 1), BuildingBlock: OJICUG_clean_linker_0, # of connection points: 2
#     Edge 120, Type (0, 1), BuildingBlock: OJICUG_clean_linker_0, # of connection points: 2
#     Edge 121, Type (0, 1), BuildingBlock: OJICUG_clean_linker_0, # of connection points: 2
#     Edge 122, Type (0, 1), BuildingBlock: OJICUG_clean_linker_0, # of connection points: 2
#     Edge 123, Type (0, 1), BuildingBlock: OJICUG_clean_linker_0, # of connection points: 2
#     Edge 124, Type (0, 1), BuildingBlock: OJICUG_clean_linker_0, # of connection points: 2
#     Edge 125, Type (0, 1), BuildingBlock: OJICUG_clean_linker_0, # of connection points: 2
#     Edge 126, Type (0, 1), BuildingBlock: OJICUG_clean_linker_0, # of connection points: 2
#     Edge 127, Type (0, 1), BuildingBlock: OJICUG_clean_linker_0, # of connection points: 2
#     Edge 128, Type (0, 1), BuildingBlock: OJICUG_clean_linker_0, # of connection points: 2
#     Edge 129, Type (0, 1), BuildingBlock: OJICUG_clean_linker_0, # of connection points: 2
#     Edge 130, Type (0, 1), BuildingBlock: OJICUG_clean_linker_0, # of connection points: 2
#     Edge 131, Type (0, 1), BuildingBlock: OJICUG_clean_linker_0, # of connection points: 2
#     Edge 132, Type (0, 1), BuildingBlock: OJICUG_clean_linker_0, # of connection points: 2
#     Edge 133, Type (0, 1), BuildingBlock: OJICUG_clean_linker_0, # of connection points: 2
#     Edge 134, Type (0, 1), BuildingBlock: OJICUG_clean_linker_0, # of connection points: 2
#     Edge 135, Type (0, 1), BuildingBlock: OJICUG_clean_linker_0, # of connection points: 2
# Relax obj value: 0.256
# Max RMSD: 0.325
# Mean RMSD: 0.183
data_MOF--net-gar--node1-NAHDIM_clean_sbu_0--node2-HISSIN_clean_sbu_0--edge1-OJICUG_clean_linker_0
_symmetry_space_group_name_H-M    P1
_symmetry_Int_Tables_number       1
_symmetry_cell_setting            triclinic
loop_
_symmetry_equiv_pos_as_xyz
'x, y, z'
_cell_length_a     46.66881
_cell_length_b     45.401542
_cell_length_c     43.157476
_cell_angle_alpha  102.16009
_cell_angle_beta   92.952489
_cell_angle_gamma 101.64183
loop_
_atom_site_label
_atom_site_type_symbol
_atom_site_fract_x
_atom_site_fract_y
_atom_site_fract_z
_atom_type_partial_charge
C0 C 0.17556 0.34895 0.3603 0.0
O1 O 0.17002 0.3766 0.36892 0.0
O2 O 0.10962 0.29847 0.41457 0.0
Zn3 Zn 0.12231 0.3307 0.38887 0.0
O4 O 0.12462 0.37341 0.41542 0.0
C5 C 0.08792 0.31173 0.32558 0.0
O6 O 0.1048 0.29233 0.31613 0.0
O7 O 0.15903 0.32615 0.36777 0.0
C8 C 0.10082 0.37674 0.42735 0.0
O9 O 0.07895 0.35258 0.42357 0.0
C10 C 0.1149 0.30425 0.44475 0.0
O11 O 0.13025 0.33154 0.4598 0.0
O12 O 0.09134 0.3273 0.35415 0.0
C13 C 0.96328 0.75084 0.67858 0.0
O14 O 0.967 0.72255 0.669 0.0
O15 O 0.01972 0.72883 0.62796 0.0
Zn16 Zn 0.01952 0.7713 0.65338 0.0
O17 O 0.02965 0.80249 0.62569 0.0
C18 C 0.04937 0.75794 0.70514 0.0
O19 O 0.02892 0.73251 0.69585 0.0
O20 O 0.9815 0.77332 0.67248 0.0
C21 C 0.05551 0.819 0.62776 0.0
O22 O 0.07552 0.81674 0.64916 0.0
C23 C 0.04363 0.72609 0.61603 0.0
O24 O 0.06488 0.75072 0.61938 0.0
O25 O 0.05006 0.77953 0.69044 0.0
C26 C 0.67435 0.85173 0.85618 0.0
O27 O 0.66994 0.87979 0.86549 0.0
O28 O 0.60746 0.80092 0.90805 0.0
Zn29 Zn 0.62032 0.83401 0.88385 0.0
O30 O 0.62381 0.87589 0.91264 0.0
C31 C 0.5859 0.81613 0.82118 0.0
O32 O 0.60208 0.79584 0.81238 0.0
O33 O 0.65682 0.82914 0.86284 0.0
C34 C 0.60327 0.87836 0.93061 0.0
O35 O 0.58306 0.85369 0.93093 0.0
C36 C 0.62012 0.80303 0.93548 0.0
O37 O 0.64255 0.82614 0.94701 0.0
O38 O 0.58958 0.83226 0.84952 0.0
C39 C 0.46215 0.25073 0.18029 0.0
O40 O 0.46511 0.22244 0.16876 0.0
O41 O 0.51778 0.22885 0.12944 0.0
Zn42 Zn 0.51763 0.27174 0.15407 0.0
O43 O 0.52627 0.30269 0.12583 0.0
C44 C 0.5488 0.26035 0.20603 0.0
O45 O 0.52805 0.23505 0.19823 0.0
O46 O 0.4804 0.27352 0.17481 0.0
C47 C 0.55236 0.31808 0.12609 0.0
O48 O 0.57326 0.31461 0.1457 0.0
C49 C 0.53878 0.22607 0.11223 0.0
O50 O 0.55727 0.25101 0.10926 0.0
O51 O 0.5492 0.28108 0.19023 0.0
C52 C 0.08377 0.78515 0.1446 0.0
O53 O 0.09729 0.76212 0.14143 0.0
O54 O 0.13318 0.76586 0.09246 0.0
Zn55 Zn 0.1329 0.80923 0.11409 0.0
O56 O 0.13643 0.83641 0.0826 0.0
C57 C 0.19094 0.81722 0.13859 0.0
O58 O 0.19289 0.80911 0.10782 0.0
O59 O 0.09501 0.80893 0.13461 0.0
C60 C 0.14456 0.82897 0.05486 0.0
O61 O 0.15316 0.80294 0.04597 0.0
C62 C 0.11732 0.74952 0.06762 0.0
O63 O 0.09888 0.76141 0.05265 0.0
O64 O 0.16652 0.82151 0.14809 0.0
C65 C 0.57804 0.8097 0.42272 0.0
O66 O 0.58258 0.8229 0.45325 0.0
O67 O 0.51169 0.78203 0.46625 0.0
Zn68 Zn 0.51829 0.80923 0.43464 0.0
O69 O 0.53019 0.85304 0.45803 0.0
C70 C 0.46864 0.78087 0.38629 0.0
O71 O 0.47361 0.75425 0.38983 0.0
O72 O 0.55182 0.80055 0.40962 0.0
C73 C 0.51192 0.8698 0.46617 0.0
O74 O 0.48365 0.8583 0.45859 0.0
C75 C 0.51425 0.79381 0.49605 0.0
O76 O 0.51813 0.82384 0.50605 0.0
O77 O 0.48391 0.80575 0.4036 0.0
C78 C 0.58094 0.28354 0.64447 0.0
O79 O 0.57675 0.27901 0.61333 0.0
O80 O 0.63354 0.25102 0.59866 0.0
Zn81 Zn 0.6392 0.29125 0.62896 0.0
O82 O 0.6348 0.32259 0.60455 0.0
C83 C 0.68174 0.28452 0.67315 0.0
O84 O 0.65989 0.26244 0.67642 0.0
O85 O 0.60701 0.28919 0.65769 0.0
C86 C 0.63179 0.31697 0.57431 0.0
O87 O 0.63505 0.29035 0.55763 0.0
C88 C 0.6534 0.24027 0.58403 0.0
O89 O 0.68097 0.25526 0.59013 0.0
O90 O 0.67795 0.30111 0.65371 0.0
C91 C 0.08737 0.31294 0.92969 0.0
O92 O 0.092 0.3307 0.95854 0.0
O93 O 0.01907 0.28084 0.97326 0.0
Zn94 Zn 0.02644 0.30743 0.94132 0.0
O95 O 0.03622 0.35178 0.96386 0.0
C96 C 0.99478 0.29611 0.87917 0.0
O97 O 0.01932 0.28986 0.8688 0.0
O98 O 0.06126 0.29943 0.91833 0.0
C99 C 0.01709 0.36782 0.97058 0.0
O100 O 0.98911 0.35516 0.96232 0.0
C101 C 0.02234 0.29275 1.00304 0.0
O102 O 0.0283 0.32291 0.01297 0.0
O103 O 0.99231 0.30194 0.90896 0.0
C104 C 0.38765 0.08989 0.32198 0.0
O105 O 0.41415 0.094 0.31244 0.0
O106 O 0.42659 0.03617 0.29882 0.0
Zn107 Zn 0.40698 0.04066 0.33954 0.0
O108 O 0.43907 0.05542 0.3753 0.0
C109 C 0.36095 0.9883 0.32219 0.0
O110 O 0.35296 1.00523 0.30349 0.0
O111 O 0.37997 0.06938 0.33766 0.0
C112 C 0.45848 0.03925 0.37297 0.0
O113 O 0.4551 0.01509 0.34915 0.0
C114 C 0.42934 0.01096 0.28104 0.0
O115 O 0.41823 0.98467 0.28847 0.0
O116 O 0.38367 0.99947 0.34181 0.0
C117 C 0.3581 0.20009 0.5241 0.0
O118 O 0.36303 0.22987 0.53627 0.0
O119 O 0.29886 0.23499 0.55478 0.0
Zn120 Zn 0.29887 0.20902 0.50795 0.0
O121 O 0.30152 0.23127 0.46893 0.0
C122 C 0.23617 0.18188 0.50848 0.0
O123 O 0.23626 0.211 0.52056 0.0
O124 O 0.33286 0.18636 0.50972 0.0
C125 C 0.32509 0.24333 0.45802 0.0
O126 O 0.35051 0.24457 0.47334 0.0
C127 C 0.3153 0.26039 0.5705 0.0
O128 O 0.33437 0.27643 0.55568 0.0
O129 O 0.26029 0.17498 0.50019 0.0
C130 C 0.22449 0.96151 0.77272 0.0
O131 O 0.19674 0.9509 0.77601 0.0
O132 O 0.17671 0.03029 0.72677 0.0
Zn133 Zn 0.20394 0.03437 0.7759 0.0
O134 O 0.17403 0.03449 0.81984 0.0
C135 C 0.22709 0.11096 0.78459 0.0
O136 O 0.19943 0.11086 0.78888 0.0
O137 O 0.2314 0.99142 0.77211 0.0
C138 C 0.17408 0.05472 0.84675 0.0
O139 O 0.19397 0.0806 0.8512 0.0
C140 C 0.16024 0.04812 0.71823 0.0
O141 O 0.15617 0.0708 0.74084 0.0
O142 O 0.23442 0.084 0.78056 0.0
C143 C 0.24532 0.99139 0.00869 0.0
O144 O 0.243 0.96196 0.00819 0.0
O145 O 0.31165 0.96133 0.03273 0.0
Zn146 Zn 0.31118 0.98502 0.99767 0.0
O147 O 0.30638 0.95083 0.95425 0.0
C148 C 0.3786 1.00248 0.01836 0.0
O149 O 0.36996 0.98 0.03283 0.0
O150 O 0.27114 1.00668 0.00454 0.0
C151 C 0.32882 0.94044 0.94468 0.0
O152 O 0.35429 0.95231 0.96154 0.0
C153 C 0.30626 0.93203 0.02792 0.0
O154 O 0.29623 0.91536 0.99927 0.0
O155 O 0.35823 0.01107 1.00294 0.0
C156 C 0.30087 0.41507 0.04128 0.0
O157 O 0.2916 0.38513 0.03773 0.0
O158 O 0.35161 0.38102 0.09205 0.0
Zn159 Zn 0.35633 0.3977 0.04927 0.0
O160 O 0.34502 0.3665 0.00446 0.0
C161 C 0.40697 0.45231 0.06027 0.0
O162 O 0.38771 0.46739 0.07317 0.0
O163 O 0.32828 0.4267 0.04787 0.0
C164 C 0.36353 0.36329 0.98375 0.0
O165 O 0.39134 0.37646 0.99245 0.0
C166 C 0.33305 0.35783 0.09692 0.0
O167 O 0.31491 0.34035 0.07272 0.0
O168 O 0.39894 0.42311 0.04961 0.0
C169 C 0.90238 0.11107 0.03842 0.0
O170 O 0.90465 0.14053 0.03916 0.0
O171 O 0.83836 0.14961 0.09167 0.0
Zn172 Zn 0.83626 0.1171 0.0478 0.0
O173 O 0.83857 0.14224 0.01377 0.0
C174 C 0.76917 0.09858 0.05714 0.0
O175 O 0.77803 0.11947 0.08377 0.0
O176 O 0.87647 0.09556 0.04198 0.0
C177 C 0.81718 0.15447 0.00812 0.0
O178 O 0.79459 0.15108 0.02497 0.0
C179 C 0.8454 0.17904 0.09523 0.0
O180 O 0.85544 0.19022 0.07124 0.0
O181 O 0.78921 0.0913 0.03899 0.0
C182 C 0.26673 0.53047 0.26512 0.0
O183 O 0.25038 0.54198 0.28632 0.0
O184 O 0.21306 0.55116 0.19005 0.0
Zn185 Zn 0.24212 0.5663 0.22878 0.0
O186 O 0.22112 0.58024 0.26641 0.0
C187 C 0.27679 0.6111 0.19827 0.0
O188 O 0.26134 0.59538 0.17147 0.0
O189 O 0.26508 0.53578 0.23742 0.0
C190 C 0.20389 0.59867 0.26728 0.0
O191 O 0.19915 0.60991 0.24228 0.0
C192 C 0.18565 0.5418 0.19137 0.0
O193 O 0.17586 0.53844 0.21869 0.0
O194 O 0.27168 0.6027 0.22404 0.0
C195 C 0.80008 0.90616 0.5338 0.0
O196 O 0.79379 0.87589 0.52483 0.0
O197 O 0.85485 0.8791 0.59093 0.0
Zn198 Zn 0.85797 0.89579 0.54831 0.0
O199 O 0.85042 0.86416 0.50358 0.0
C200 C 0.923 0.92361 0.55478 0.0
O201 O 0.92617 0.89635 0.55829 0.0
O202 O 0.82603 0.91994 0.54587 0.0
C203 C 0.86737 0.86684 0.48141 0.0
O204 O 0.89224 0.88751 0.48815 0.0
C205 C 0.83403 0.85841 0.59672 0.0
O206 O 0.81319 0.84409 0.57374 0.0
O207 O 0.89706 0.92807 0.55081 0.0
C208 C 0.9252 0.14388 0.27261 0.0
O209 O 0.95191 0.15314 0.26504 0.0
O210 O 0.9761 0.07087 0.22899 0.0
Zn211 Zn 0.94671 0.0718 0.27338 0.0
O212 O 0.97526 0.07664 0.32223 0.0
C213 C 0.92355 0.9949 0.26333 0.0
O214 O 0.95006 0.99459 0.25462 0.0
O215 O 0.91909 0.11491 0.27669 0.0
C216 C 0.98584 0.05552 0.333 0.0
O217 O 0.98133 0.02822 0.31359 0.0
C218 C 0.97483 0.05105 0.2015 0.0
O219 O 0.95357 0.02623 0.19648 0.0
O220 O 0.91672 0.02213 0.27001 0.0
C221 C 0.40146 0.61684 0.53387 0.0
O222 O 0.40403 0.64676 0.53755 0.0
O223 O 0.33716 0.65281 0.5872 0.0
Zn224 Zn 0.33471 0.6215 0.54238 0.0
O225 O 0.33462 0.64753 0.50943 0.0
C226 C 0.26744 0.6051 0.54849 0.0
O227 O 0.27505 0.63063 0.57077 0.0
O228 O 0.37523 0.60071 0.53524 0.0
C229 C 0.32413 0.63526 0.48074 0.0
O230 O 0.31527 0.60509 0.4721 0.0
C231 C 0.33902 0.6819 0.59018 0.0
O232 O 0.34245 0.69332 0.56474 0.0
O233 O 0.28831 0.59472 0.53394 0.0
C234 C 0.42519 0.64411 0.77056 0.0
O235 O 0.45166 0.65317 0.76229 0.0
O236 O 0.47674 0.57277 0.72744 0.0
Zn237 Zn 0.44698 0.57254 0.77165 0.0
O238 O 0.47403 0.57699 0.82114 0.0
C239 C 0.42523 0.49618 0.76617 0.0
O240 O 0.45332 0.49707 0.76386 0.0
O241 O 0.41924 0.61533 0.77509 0.0
C242 C 0.49164 0.56024 0.8297 0.0
O243 O 0.49766 0.53895 0.80684 0.0
C244 C 0.47689 0.55271 0.70043 0.0
O245 O 0.45743 0.52652 0.69601 0.0
O246 O 0.41709 0.52255 0.76774 0.0
C247 C 0.76263 0.02411 0.75528 0.0
O248 O 0.73957 0.02632 0.77109 0.0
O249 O 0.71881 0.06266 0.68967 0.0
Zn250 Zn 0.74504 0.07151 0.73031 0.0
O251 O 0.72109 0.07782 0.76697 0.0
C252 C 0.78958 0.11913 0.71403 0.0
O253 O 0.78551 0.10172 0.68503 0.0
O254 O 0.76789 0.03943 0.734 0.0
C255 C 0.70384 0.09633 0.76994 0.0
O256 O 0.70126 0.11214 0.74811 0.0
C257 C 0.69153 0.05064 0.68812 0.0
O258 O 0.68077 0.04108 0.71269 0.0
O259 O 0.7744 0.11072 0.73542 0.0
C260 C 0.85544 0.69756 0.0239 0.0
O261 O 0.85943 0.72696 0.03771 0.0
O262 O 0.80421 0.73812 0.05118 0.0
Zn263 Zn 0.79765 0.70738 0.00617 0.0
O264 O 0.79932 0.72716 0.96537 0.0
C265 C 0.73288 0.67802 0.99594 0.0
O266 O 0.73029 0.70411 0.98868 0.0
O267 O 0.83103 0.68407 0.00747 0.0
C268 C 0.82273 0.74114 0.9557 0.0
O269 O 0.84784 0.74527 0.97294 0.0
C270 C 0.78569 0.7383 0.07205 0.0
O271 O 0.75916 0.72087 0.06394 0.0
O272 O 0.75859 0.67445 1.00345 0.0
C273 C 0.89669 0.59236 0.80684 0.0
O274 O 0.92156 0.59068 0.79443 0.0
O275 O 0.93718 0.53989 0.79981 0.0
Zn276 Zn 0.91354 0.54833 0.8371 0.0
O277 O 0.94214 0.56183 0.87615 0.0
C278 C 0.86709 0.49821 0.81344 0.0
O279 O 0.86549 0.51472 0.79205 0.0
O280 O 0.88988 0.5788 0.8292 0.0
C281 C 0.95875 0.54293 0.87699 0.0
O282 O 0.95411 0.51745 0.85464 0.0
C283 C 0.94001 0.51416 0.78326 0.0
O284 O 0.92684 0.48829 0.79026 0.0
O285 O 0.88586 0.50902 0.83757 0.0
C286 C 0.74337 0.49485 0.50659 0.0
O287 O 0.74017 0.46516 0.50519 0.0
O288 O 0.81043 0.46343 0.53111 0.0
Zn289 Zn 0.80961 0.48742 0.49619 0.0
O290 O 0.80493 0.45312 0.45278 0.0
C291 C 0.87722 0.50559 0.51703 0.0
O292 O 0.86869 0.48464 0.5334 0.0
O293 O 0.76964 0.5097 0.50322 0.0
C294 C 0.82719 0.44165 0.44464 0.0
O295 O 0.85198 0.45226 0.46303 0.0
C296 C 0.80341 0.43412 0.52621 0.0
O297 O 0.79122 0.41801 0.49802 0.0
O298 O 0.85676 0.51316 0.50069 0.0
C299 C 0.75086 0.47927 0.26814 0.0
O300 O 0.77259 0.50158 0.26515 0.0
O301 O 0.67436 0.52999 0.22559 0.0
Zn302 Zn 0.70266 0.53417 0.27415 0.0
O303 O 0.67239 0.53666 0.31762 0.0
C304 C 0.72763 0.61032 0.28561 0.0
O305 O 0.70106 0.61067 0.29414 0.0
O306 O 0.72497 0.48734 0.27144 0.0
C307 C 0.67484 0.55554 0.34585 0.0
O308 O 0.69826 0.57822 0.3524 0.0
C309 C 0.66698 0.55202 0.21352 0.0
O310 O 0.67566 0.58017 0.23104 0.0
O311 O 0.73416 0.583 0.27832 0.0
Eu312 Eu 0.08992 0.08664 0.03666 0.0
Eu313 Eu 0.05851 0.01697 0.01113 0.0
C314 C 0.10042 0.05167 0.96183 0.0
C315 C 0.09798 0.17057 0.07109 0.0
C316 C 0.06804 0.16381 0.0759 0.0
C317 C 0.09548 0.22345 0.07223 0.0
C318 C 0.05146 0.18625 0.07654 0.0
C319 C 0.11197 0.20087 0.07116 0.0
C320 C 0.06477 0.21571 0.0727 0.0
C321 C 0.11197 0.14532 0.05766 0.0
O322 O 0.1068 0.01366 0.02231 0.0
O323 O 0.13043 0.06437 0.03661 0.0
C324 C 0.13166 0.03492 0.02876 0.0
O325 O 0.0677 0.07665 0.08222 0.0
O326 O 0.03525 0.97834 0.97304 0.0
O327 O 0.04577 0.97114 0.02013 0.0
O328 O 0.04248 0.02713 0.06235 0.0
C329 C 0.04817 0.05226 0.08606 0.0
O330 O 0.04143 0.08982 0.02628 0.0
O331 O 0.01796 0.0391 0.01034 0.0
O332 O 0.08138 0.02698 0.96583 0.0
O333 O 0.11374 0.12498 0.07469 0.0
O334 O 0.10253 0.13253 0.0279 0.0
O335 O 0.10553 0.07694 0.98529 0.0
C336 C 0.05254 0.93377 0.97749 0.0
C337 C 0.08192 0.94216 0.97108 0.0
C338 C 0.05993 0.88325 0.98091 0.0
C339 C 0.10073 0.922 0.972 0.0
C340 C 0.0412 0.90361 0.98043 0.0
C341 C 0.09021 0.89317 0.97899 0.0
C342 C 0.03721 0.95815 0.99022 0.0
C343 C 0.01662 0.06849 0.01898 0.0
H344 H 0.0569 0.14044 0.0759 0.0
H345 H 0.10628 0.24592 0.069 0.0
H346 H 0.02786 0.17981 0.07708 0.0
H347 H 0.13499 0.20636 0.0672 0.0
H348 H 0.0911 0.96544 0.96887 0.0
H349 H 0.05137 0.8612 0.98657 0.0
H350 H 0.12398 0.93005 0.97041 0.0
H351 H 0.01868 0.89689 0.98572 0.0
Eu352 Eu 0.35361 0.80716 0.23219 0.0
Eu353 Eu 0.31059 0.78728 0.28644 0.0
C354 C 0.28352 0.80188 0.22352 0.0
C355 C 0.37447 0.84524 0.16611 0.0
C356 C 0.35723 0.86698 0.17581 0.0
C357 C 0.36966 0.85339 0.11239 0.0
C358 C 0.34627 0.88174 0.15399 0.0
C359 C 0.3808 0.83875 0.13431 0.0
C360 C 0.35202 0.87481 0.12193 0.0
C361 C 0.3828 0.82687 0.18811 0.0
O362 O 0.30539 0.74615 0.24554 0.0
O363 O 0.35062 0.75633 0.22649 0.0
C364 C 0.32616 0.73728 0.22895 0.0
O365 O 0.38324 0.81003 0.27631 0.0
O366 O 0.27382 0.7579 0.30239 0.0
O367 O 0.30332 0.79444 0.33675 0.0
O368 O 0.35283 0.77245 0.29426 0.0
C369 C 0.37892 0.78962 0.29408 0.0
O370 O 0.33478 0.84761 0.25319 0.0
O371 O 0.33134 0.83803 0.30271 0.0
O372 O 0.28147 0.80469 0.25429 0.0
O373 O 0.38798 0.84079 0.21824 0.0
O374 O 0.36651 0.79909 0.18373 0.0
O375 O 0.30686 0.79524 0.2103 0.0
C376 C 0.28658 0.74818 0.35262 0.0
C377 C 0.30151 0.72451 0.34216 0.0
C378 C 0.28432 0.73426 0.40396 0.0
C379 C 0.30773 0.7058 0.36246 0.0
C380 C 0.27793 0.75282 0.38357 0.0
C381 C 0.29946 0.71066 0.39373 0.0
C382 C 0.28235 0.76979 0.33252 0.0
C383 C 0.33318 0.85714 0.28365 0.0
H384 H 0.35151 0.87197 0.20009 0.0
H385 H 0.37471 0.84781 0.08791 0.0
H386 H 0.33249 0.89784 0.16201 0.0
H387 H 0.39373 0.82179 0.12627 0.0
H388 H 0.30887 0.72089 0.31852 0.0
H389 H 0.27737 0.73838 0.42776 0.0
H390 H 0.31969 0.68806 0.35396 0.0
H391 H 0.26666 0.77116 0.39218 0.0
Eu392 Eu 0.61019 0.04574 0.50426 0.0
Eu393 Eu 0.55732 0.06794 0.54728 0.0
C394 C 0.61564 0.05679 0.58075 0.0
C395 C 0.67293 1.00638 0.48334 0.0
C396 C 0.6651 0.9845 0.50183 0.0
C397 C 0.72208 0.99609 0.48328 0.0
C398 C 0.68553 0.96835 0.51072 0.0
C399 C 0.70154 0.01205 0.47416 0.0
C400 C 0.7143 0.97404 0.50166 0.0
C401 C 0.65199 0.02454 0.47503 0.0
O402 O 0.59409 0.10893 0.55023 0.0
O403 O 0.61455 0.09549 0.50323 0.0
C404 C 0.6099 0.11609 0.52752 0.0
O405 O 0.5708 0.04126 0.46962 0.0
O406 O 0.54064 0.10281 0.58031 0.0
O407 O 0.51218 0.05835 0.55983 0.0
O408 O 0.54959 0.07778 0.49928 0.0
C409 C 0.552 0.05949 0.47213 0.0
O410 O 0.58756 1.00704 0.52493 0.0
O411 O 0.5423 0.01804 0.5222 0.0
O412 O 0.58695 0.05312 0.5814 0.0
O413 O 0.6243 1.01043 0.46955 0.0
O414 O 0.6557 0.05243 0.49255 0.0
O415 O 0.62863 0.06154 0.55541 0.0
C416 C 0.49057 0.10208 0.56716 0.0
C417 C 0.4771 0.09537 0.53581 0.0
C418 C 0.46071 0.13998 0.58249 0.0
C419 C 0.45549 0.11073 0.52794 0.0
C420 C 0.48215 0.12448 0.59038 0.0
C421 C 0.44711 0.13334 0.55116 0.0
C422 C 0.51378 0.08649 0.57583 0.0
C423 C 0.55893 0.99794 0.5214 0.0
H424 H 0.64327 0.98008 0.50966 0.0
H425 H 0.74397 1.00078 0.47567 0.0
H426 H 0.67897 0.95178 0.52518 0.0
H427 H 0.70807 0.02901 0.46012 0.0
H428 H 0.48338 0.07838 0.51733 0.0
H429 H 0.45459 0.157 0.60106 0.0
H430 H 0.44575 0.10531 0.50353 0.0
H431 H 0.49226 0.13008 0.61466 0.0
Eu432 Eu 0.29664 0.31351 0.77846 0.0
Eu433 Eu 0.35832 0.2933 0.7764 0.0
C434 C 0.29735 0.24026 0.7813 0.0
C435 C 0.22302 0.32568 0.80337 0.0
C436 C 0.22947 0.31883 0.83285 0.0
C437 C 0.17285 0.32514 0.81559 0.0
C438 C 0.2078 0.31543 0.85372 0.0
C439 C 0.19462 0.32873 0.7948 0.0
C440 C 0.17926 0.31853 0.84529 0.0
C441 C 0.24575 0.32911 0.78143 0.0
O442 O 0.34808 0.29585 0.72535 0.0
O443 O 0.29886 0.29437 0.7255 0.0
C444 C 0.32218 0.29233 0.71 0.0
O445 O 0.32794 0.35881 0.77182 0.0
O446 O 0.38323 0.25901 0.75749 0.0
O447 O 0.40452 0.29962 0.7934 0.0
O448 O 0.37266 0.34561 0.77527 0.0
C449 C 0.3571 0.36677 0.7727 0.0
O450 O 0.3115 0.32232 0.8314 0.0
O451 O 0.35464 0.30562 0.82943 0.0
O452 O 0.32528 0.24638 0.7751 0.0
O453 O 0.27061 0.34782 0.79367 0.0
O454 O 0.24957 0.30352 0.7636 0.0
O455 O 0.28335 0.26335 0.7863 0.0
C456 C 0.43355 0.27779 0.75589 0.0
C457 C 0.43483 0.29321 0.7309 0.0
C458 C 0.48086 0.26573 0.74537 0.0
C459 C 0.459 0.29473 0.71307 0.0
C460 C 0.45667 0.2642 0.76314 0.0
C461 C 0.4822 0.28086 0.72004 0.0
C462 C 0.40782 0.2747 0.77383 0.0
C463 C 0.33502 0.31735 0.84578 0.0
H464 H 0.25127 0.31608 0.83969 0.0
H465 H 0.15112 0.32797 0.80863 0.0
H466 H 0.21327 0.31003 0.87628 0.0
H467 H 0.18931 0.33393 0.77209 0.0
H468 H 0.41704 0.30381 0.72508 0.0
H469 H 0.4982 0.25451 0.75105 0.0
H470 H 0.45961 0.30684 0.69393 0.0
H471 H 0.45584 0.25207 0.78229 0.0
Eu472 Eu 0.06416 0.08308 0.54152 0.0
Eu473 Eu 0.08811 0.02341 0.5082 0.0
C474 C 0.12852 0.09089 0.51125 0.0
C475 C 0.05769 0.16221 0.54654 0.0
C476 C 0.06985 0.15709 0.51733 0.0
C477 C 0.06115 0.21581 0.54391 0.0
C478 C 0.07751 0.18081 0.50151 0.0
C479 C 0.05338 0.19176 0.55986 0.0
C480 C 0.0732 0.21046 0.51444 0.0
C481 C 0.05099 0.13637 0.56263 0.0
O482 O 0.1089 0.03265 0.56062 0.0
O483 O 0.08417 0.06825 0.58559 0.0
C484 C 0.10275 0.04964 0.58743 0.0
O485 O 0.02546 0.04462 0.54342 0.0
O486 O 0.12102 0.99542 0.49861 0.0
O487 O 0.07573 0.97604 0.47975 0.0
O488 O 0.04978 1.00518 0.534 0.0
C489 C 0.02627 0.01561 0.54172 0.0
O490 O 0.04803 0.07788 0.48814 0.0
O491 O 0.06247 0.03387 0.46468 0.0
O492 O 0.1253 0.06101 0.50033 0.0
O493 O 0.03186 0.11224 0.54655 0.0
O494 O 0.07401 0.1286 0.57414 0.0
O495 O 0.10848 0.1024 0.5269 0.0
C496 C 0.09968 0.94509 0.50461 0.0
C497 C 0.11243 0.95158 0.53623 0.0
C498 C 0.0757 0.89389 0.51032 0.0
C499 C 0.10652 0.92974 0.5548 0.0
C500 C 0.08169 0.91581 0.49166 0.0
C501 C 0.08761 0.90083 0.54233 0.0
C502 C 0.10109 0.97016 0.48727 0.0
C503 C 0.04882 0.05656 0.46215 0.0
H504 H 0.07381 0.13469 0.50677 0.0
H505 H 0.05754 0.23845 0.55446 0.0
H506 H 0.08735 0.17598 0.47932 0.0
H507 H 0.04421 0.19625 0.58249 0.0
H508 H 0.126 0.97407 0.54721 0.0
H509 H 0.06134 0.8717 0.49985 0.0
H510 H 0.11576 0.9361 0.57944 0.0
H511 H 0.07132 0.91034 0.4675 0.0
Eu512 Eu 0.35393 0.82306 0.76276 0.0
Eu513 Eu 0.29572 0.78199 0.77683 0.0
C514 C 0.32821 0.84124 0.83237 0.0
C515 C 0.43195 0.84485 0.74182 0.0
C516 C 0.43566 0.81477 0.74078 0.0
C517 C 0.48446 0.86225 0.74198 0.0
C518 C 0.46386 0.809 0.74283 0.0
C519 C 0.45625 0.8681 0.74043 0.0
C520 C 0.4886 0.83328 0.74574 0.0
C521 C 0.40454 0.85332 0.75128 0.0
O522 O 0.28022 0.82698 0.76741 0.0
O523 O 0.32337 0.85889 0.76259 0.0
C524 C 0.29454 0.85518 0.76511 0.0
O525 O 0.33415 0.7955 0.71362 0.0
O526 O 0.26435 0.75954 0.80537 0.0
O527 O 0.25354 0.75439 0.75458 0.0
O528 O 0.30865 0.75519 0.73073 0.0
C529 C 0.32184 0.76607 0.70816 0.0
O530 O 0.36885 0.77681 0.7688 0.0
O531 O 0.32816 0.74955 0.78526 0.0
O532 O 0.30741 0.81596 0.82477 0.0
O533 O 0.38168 0.84388 0.7302 0.0
O534 O 0.39825 0.84913 0.77935 0.0
O535 O 0.34835 0.84731 0.81304 0.0
C536 C 0.21497 0.75679 0.78651 0.0
C537 C 0.20854 0.78335 0.77872 0.0
C538 C 0.16326 0.73802 0.79086 0.0
C539 C 0.17952 0.78622 0.77482 0.0
C540 C 0.19239 0.73484 0.79405 0.0
C541 C 0.1563 0.76278 0.77921 0.0
C542 C 0.2439 0.7497 0.78142 0.0
C543 C 0.35574 0.75097 0.77747 0.0
H544 H 0.41699 0.79649 0.74154 0.0
H545 H 0.50314 0.88121 0.74337 0.0
H546 H 0.46619 0.78641 0.74561 0.0
H547 H 0.45369 0.8914 0.74097 0.0
H548 H 0.22573 0.80065 0.77299 0.0
H549 H 0.14611 0.72005 0.79561 0.0
H550 H 0.17543 0.8056 0.76571 0.0
H551 H 0.19704 0.71433 0.80045 0.0
Eu552 Eu 0.57378 0.04084 0.06285 0.0
Eu553 Eu 0.57418 0.06446 0.99707 0.0
C554 C 0.56611 0.10798 0.06139 0.0
C555 C 0.55184 0.02291 0.14066 0.0
C556 C 0.52748 0.03637 0.13851 0.0
C557 C 0.53352 1.00367 0.18574 0.0
C558 C 0.50633 0.03367 0.16003 0.0
C559 C 0.55475 1.00652 0.16428 0.0
C560 C 0.50913 0.01727 0.18384 0.0
C561 C 0.57337 0.02463 0.1173 0.0
O562 O 0.62319 0.06373 0.00696 0.0
O563 O 0.62268 0.06192 0.05966 0.0
C564 C 0.63756 0.06542 0.03481 0.0
O565 O 0.58181 1.00028 0.02737 0.0
O566 O 0.58687 0.10277 0.97397 0.0
O567 O 0.55771 0.06037 0.94785 0.0
O568 O 0.58049 0.01618 0.98009 0.0
C569 C 0.58344 0.99557 0.99655 0.0
O570 O 0.52482 0.02715 0.0449 0.0
O571 O 0.52456 0.0535 0.00507 0.0
O572 O 0.5826 0.1057 0.03791 0.0
O573 O 0.56528 1.00515 0.08993 0.0
O574 O 0.58539 0.05231 0.1142 0.0
O575 O 0.55503 0.0835 0.07174 0.0
C576 C 0.59069 0.08829 0.91936 0.0
C577 C 0.60471 0.06426 0.90764 0.0
C578 C 0.61301 0.11668 0.88189 0.0
C579 C 0.62276 0.06642 0.88312 0.0
C580 C 0.59474 0.11437 0.90626 0.0
C581 C 0.62742 0.09283 0.87027 0.0
C582 C 0.57328 0.0873 0.94646 0.0
C583 C 0.5101 0.0371 0.02368 0.0
H584 H 0.52475 0.04875 0.12004 0.0
H585 H 0.53638 0.99121 0.20409 0.0
H586 H 0.48761 0.04409 0.15783 0.0
H587 H 0.57336 0.99583 0.16602 0.0
H588 H 0.602 0.04402 0.91767 0.0
H589 H 0.61642 0.13745 0.87274 0.0
H590 H 0.63312 0.04741 0.8743 0.0
H591 H 0.58424 0.13323 0.91534 0.0
Eu592 Eu 0.34573 0.33616 0.2978 0.0
Eu593 Eu 0.30257 0.27062 0.26119 0.0
C594 C 0.32325 0.32486 0.22199 0.0
C595 C 0.37731 0.41977 0.31805 0.0
C596 C 0.37232 0.42096 0.28602 0.0
C597 C 0.36197 0.46814 0.33425 0.0
C598 C 0.36041 0.44447 0.27817 0.0
C599 C 0.37375 0.44443 0.34211 0.0
C600 C 0.3534 0.46721 0.30226 0.0
C601 C 0.37801 0.39003 0.3259 0.0
O602 O 0.34837 0.26127 0.26285 0.0
O603 O 0.37345 0.31075 0.26677 0.0
C604 C 0.37194 0.28106 0.25919 0.0
O605 O 0.34886 0.30388 0.33124 0.0
O606 O 0.29295 0.22835 0.22382 0.0
O607 O 0.26198 0.23602 0.25855 0.0
O608 O 0.30451 0.27071 0.31412 0.0
C609 C 0.32673 0.28277 0.33617 0.0
O610 O 0.30008 0.33846 0.31066 0.0
O611 O 0.27276 0.304 0.26783 0.0
O612 O 0.31328 0.29533 0.2212 0.0
O613 O 0.35387 0.37748 0.33624 0.0
O614 O 0.38742 0.3701 0.30479 0.0
O615 O 0.33216 0.34523 0.24934 0.0
C616 C 0.27402 0.18701 0.2466 0.0
C617 C 0.27378 0.18528 0.27879 0.0
C618 C 0.29817 0.14387 0.23647 0.0
C619 C 0.28719 0.16424 0.29 0.0
C620 C 0.28457 0.16479 0.22519 0.0
C621 C 0.30109 0.14474 0.26924 0.0
C622 C 0.27077 0.21567 0.23726 0.0
C623 C 0.27495 0.32611 0.29338 0.0
H624 H 0.37483 0.40217 0.26696 0.0
H625 H 0.35749 0.48586 0.3533 0.0
H626 H 0.35408 0.44296 0.25329 0.0
H627 H 0.37743 0.44388 0.36696 0.0
H628 H 0.26574 0.202 0.29598 0.0
H629 H 0.30832 0.1286 0.21993 0.0
H630 H 0.28909 0.16533 0.31536 0.0
H631 H 0.28491 0.16557 0.20029 0.0
Eu632 Eu 0.56609 0.5865 0.03941 0.0
Eu633 Eu 0.58421 0.52369 0.00752 0.0
C634 C 0.62601 0.58891 0.00627 0.0
C635 C 0.56166 0.66719 0.04381 0.0
C636 C 0.55939 0.65994 0.01039 0.0
C637 C 0.5786 0.72135 0.04347 0.0
C638 C 0.56692 0.68303 0.99365 0.0
C639 C 0.57104 0.69808 0.06028 0.0
C640 C 0.57701 0.71398 0.00993 0.0
C641 C 0.5582 0.64202 0.06088 0.0
O642 O 0.5979 0.52662 0.0609 0.0
O643 O 0.59351 0.57597 0.08163 0.0
C644 C 0.60225 0.5506 0.08551 0.0
O645 O 0.52882 0.55231 0.05201 0.0
O646 O 0.6163 0.49469 0.99785 0.0
O647 O 0.57114 0.47657 0.97841 0.0
O648 O 0.53911 0.50778 0.02325 0.0
C649 C 0.52193 0.52225 0.04102 0.0
O650 O 0.5423 0.57595 0.98804 0.0
O651 O 0.56562 0.53912 0.96314 0.0
O652 O 0.62577 0.56082 0.0097 0.0
O653 O 0.53657 0.61833 0.04942 0.0
O654 O 0.58255 0.6336 0.06723 0.0
O655 O 0.60192 0.59938 0.00852 0.0
C656 C 0.59398 0.44411 1.00248 0.0
C657 C 0.57277 0.41661 0.991 0.0
C658 C 0.60421 0.42632 0.0505 0.0
C659 C 0.56687 0.39448 0.00941 0.0
C660 C 0.61005 0.4484 0.03218 0.0
C661 C 0.58214 0.39936 0.03968 0.0
C662 C 0.59608 0.46988 0.98594 0.0
C663 C 0.54761 0.55827 0.96121 0.0
H664 H 0.55284 0.63622 0.99713 0.0
H665 H 0.58608 0.74502 0.05671 0.0
H666 H 0.56595 0.67638 0.96793 0.0
H667 H 0.57336 0.70408 0.08608 0.0
H668 H 0.55993 0.41277 0.96831 0.0
H669 H 0.61617 0.43109 0.07382 0.0
H670 H 0.55001 0.37378 1.00016 0.0
H671 H 0.62631 0.46945 0.04204 0.0
Eu672 Eu 0.85667 0.32381 0.2643 0.0
Eu673 Eu 0.79698 0.28405 0.27673 0.0
C674 C 0.82909 0.34268 0.33285 0.0
C675 C 0.93561 0.34448 0.2459 0.0
C676 C 0.93857 0.31411 0.24455 0.0
C677 C 0.98833 0.36084 0.24702 0.0
C678 C 0.96648 0.30763 0.2469 0.0
C679 C 0.96042 0.36738 0.24518 0.0
C680 C 0.99166 0.3315 0.25042 0.0
C681 C 0.90826 0.35348 0.25484 0.0
O682 O 0.78271 0.33006 0.26786 0.0
O683 O 0.82678 0.35973 0.26195 0.0
C684 C 0.7981 0.35756 0.26475 0.0
O685 O 0.83895 0.29569 0.21477 0.0
O686 O 0.76463 0.26177 0.30444 0.0
O687 O 0.75465 0.25772 0.25367 0.0
O688 O 0.80987 0.25669 0.23092 0.0
C689 C 0.82506 0.26671 0.2091 0.0
O690 O 0.87046 0.27739 0.27105 0.0
O691 O 0.82839 0.25027 0.28512 0.0
O692 O 0.80852 0.31722 0.32509 0.0
O693 O 0.88587 0.34499 0.23314 0.0
O694 O 0.90101 0.34878 0.28248 0.0
O695 O 0.84954 0.34879 0.31385 0.0
C696 C 0.71571 0.26053 0.28514 0.0
C697 C 0.70929 0.28649 0.27592 0.0
C698 C 0.66419 0.24307 0.29144 0.0
C699 C 0.68031 0.2896 0.27232 0.0
C700 C 0.69325 0.23961 0.29433 0.0
C701 C 0.65715 0.26705 0.27845 0.0
C702 C 0.74444 0.25284 0.28021 0.0
C703 C 0.85637 0.2514 0.27862 0.0
H704 H 0.9195 0.2961 0.24476 0.0
H705 H 1.00738 0.37949 0.24891 0.0
H706 H 0.96821 0.28479 0.24939 0.0
H707 H 0.95843 0.3909 0.24596 0.0
H708 H 0.72638 0.30309 0.26896 0.0
H709 H 0.64712 0.22585 0.29752 0.0
H710 H 0.67614 0.30835 0.26214 0.0
H711 H 0.6979 0.21962 0.30189 0.0
Eu712 Eu 0.07306 0.54007 0.55675 0.0
Eu713 Eu 0.07258 0.56456 0.49136 0.0
C714 C 0.06575 0.60755 0.55724 0.0
C715 C 0.05462 0.52023 0.63493 0.0
C716 C 0.03024 0.53387 0.63468 0.0
C717 C 0.03949 0.50142 0.68136 0.0
C718 C 1.01075 0.53161 0.6579 0.0
C719 C 0.05909 0.50383 0.65816 0.0
C720 C 0.0153 0.51552 0.68156 0.0
C721 C 0.07478 0.52225 0.61031 0.0
O722 O 0.12183 0.56512 0.50069 0.0
O723 O 0.12183 0.56107 0.55279 0.0
C724 C 0.13641 0.56599 0.52813 0.0
O725 O 0.07604 0.4985 0.5196 0.0
O726 O 0.08307 0.60391 0.46933 0.0
O727 O 0.05748 0.56019 0.44161 0.0
O728 O 0.08165 0.5173 0.47421 0.0
C729 C 0.08078 0.49513 0.48955 0.0
O730 O 0.02354 0.53 0.54223 0.0
O731 O 0.02289 0.55182 0.49884 0.0
O732 O 0.08112 0.60556 0.53275 0.0
O733 O 0.06529 0.5035 0.5828 0.0
O734 O 0.08668 0.55009 0.60762 0.0
O735 O 0.05494 0.58293 0.56746 0.0
C736 C 0.09025 0.59094 0.41547 0.0
C737 C 0.10915 0.57073 0.40762 0.0
C738 C 0.10989 0.61915 0.37664 0.0
C739 C 0.12823 0.5746 0.3843 0.0
C740 C 0.09064 0.61512 0.39989 0.0
C741 C 0.129 0.59901 0.36872 0.0
C742 C 0.07139 0.58807 0.44118 0.0
C743 C 1.00868 0.53796 0.51953 0.0
H744 H 0.02632 0.54626 0.61654 0.0
H745 H 0.04359 0.48912 0.6995 0.0
H746 H 0.99207 0.54236 0.65731 0.0
H747 H 0.07774 0.49299 0.6584 0.0
H748 H 0.10929 0.55208 0.41967 0.0
H749 H 0.11016 0.63831 0.36529 0.0
H750 H 0.14225 0.55832 0.37834 0.0
H751 H 0.07636 0.63111 0.40604 0.0
Eu752 Eu 0.79553 0.81351 0.28014 0.0
Eu753 Eu 0.85717 0.79233 0.27332 0.0
C754 C 0.79667 0.73963 0.28101 0.0
C755 C 0.72132 0.82567 0.30608 0.0
C756 C 0.72505 0.81451 0.33363 0.0
C757 C 0.6711 0.82743 0.31649 0.0
C758 C 0.70194 0.81007 0.35269 0.0
C759 C 0.69425 0.832 0.29756 0.0
C760 C 0.67471 0.81649 0.3443 0.0
C761 C 0.74543 0.83061 0.28599 0.0
O762 O 0.84204 0.78845 0.2216 0.0
O763 O 0.79559 0.79713 0.2266 0.0
C764 C 0.81614 0.78931 0.20884 0.0
O765 O 0.82741 0.85951 0.27617 0.0
O766 O 0.88194 0.75785 0.25414 0.0
O767 O 0.90407 0.79971 0.28774 0.0
O768 O 0.87045 0.84342 0.26798 0.0
C769 C 0.85568 0.86596 0.27116 0.0
O770 O 0.81053 0.81665 0.33184 0.0
O771 O 0.85725 0.80903 0.3268 0.0
O772 O 0.82508 0.74624 0.27667 0.0
O773 O 0.77045 0.84723 0.30055 0.0
O774 O 0.74868 0.80632 0.26546 0.0
O775 O 0.78193 0.76214 0.28419 0.0
C776 C 0.93194 0.77655 0.24966 0.0
C777 C 0.93324 0.79263 0.22516 0.0
C778 C 0.97856 0.76346 0.23757 0.0
C779 C 0.95718 0.79407 0.20687 0.0
C780 C 0.95469 0.76206 0.25578 0.0
C781 C 0.98005 0.77937 0.21282 0.0
C782 C 0.90696 0.77426 0.26885 0.0
C783 C 0.83655 0.8162 0.34462 0.0
H784 H 0.74583 0.80929 0.3404 0.0
H785 H 0.65051 0.83298 0.30965 0.0
H786 H 0.70528 0.80135 0.3738 0.0
H787 H 0.69105 0.84061 0.27634 0.0
H788 H 0.9157 0.80387 0.22013 0.0
H789 H 0.99602 0.75236 0.24314 0.0
H790 H 0.95758 0.80627 0.18782 0.0
H791 H 0.95399 0.74963 0.27469 0.0
Eu792 Eu 0.8658 0.31252 0.73171 0.0
Eu793 Eu 0.83774 0.30241 0.79964 0.0
C794 C 0.79664 0.30028 0.73742 0.0
C795 C 0.87445 0.34104 0.65683 0.0
C796 C 0.85952 0.36435 0.66868 0.0
C797 C 0.86575 0.34915 0.60357 0.0
C798 C 0.84784 0.37999 0.64818 0.0
C799 C 0.87761 0.33365 0.62417 0.0
C800 C 0.85052 0.37234 0.6153 0.0
C801 C 0.88407 0.32255 0.67797 0.0
O802 O 0.85297 0.25937 0.77837 0.0
O803 O 0.8475 0.2618 0.72596 0.0
C804 C 0.84849 0.24588 0.74794 0.0
O805 O 0.90134 0.30326 0.76347 0.0
O806 O 0.80358 0.28382 0.82742 0.0
O807 O 0.84558 0.31049 0.8513 0.0
O808 O 0.88448 0.32854 0.80716 0.0
C809 C 0.90501 0.31603 0.79402 0.0
O810 O 0.86438 0.35954 0.7607 0.0
O811 O 0.83005 0.34867 0.79582 0.0
O812 O 0.80003 0.28714 0.76129 0.0
O813 O 0.89745 0.3378 0.7058 0.0
O814 O 0.8644 0.29834 0.68003 0.0
O815 O 0.81891 0.31685 0.72707 0.0
C816 C 0.81998 0.27231 0.87528 0.0
C817 C 0.83297 0.24673 0.86747 0.0
C818 C 0.80665 0.25765 0.92435 0.0
C819 C 0.83272 0.22661 0.88809 0.0
C820 C 0.80692 0.27765 0.9038 0.0
C821 C 0.81943 0.2318 0.91675 0.0
C822 C 0.82006 0.294 0.85439 0.0
C823 C 0.84594 0.36781 0.7812 0.0
H824 H 0.85632 0.36995 0.69374 0.0
H825 H 0.86847 0.34295 0.57842 0.0
H826 H 0.83596 0.39744 0.65794 0.0
H827 H 0.88875 0.3155 0.61452 0.0
H828 H 0.84322 0.24235 0.8455 0.0
H829 H 0.79672 0.26269 0.94645 0.0
H830 H 0.84256 0.20681 0.88142 0.0
H831 H 0.79698 0.29742 0.91026 0.0
Eu832 Eu 0.845 0.83531 0.79677 0.0
Eu833 Eu 0.80221 0.76974 0.75899 0.0
C834 C 0.82365 0.82504 0.72119 0.0
C835 C 0.87512 0.91887 0.8175 0.0
C836 C 0.87306 0.92089 0.78542 0.0
C837 C 0.85477 0.96441 0.83156 0.0
C838 C 0.86022 0.94329 0.77629 0.0
C839 C 0.86766 0.94196 0.84071 0.0
C840 C 0.84925 0.96396 0.7991 0.0
C841 C 0.87673 0.88923 0.82532 0.0
O842 O 0.84814 0.76068 0.75906 0.0
O843 O 0.87301 0.81066 0.76529 0.0
C844 C 0.87161 0.78105 0.75617 0.0
O845 O 0.84771 0.80239 0.82955 0.0
O846 O 0.78516 0.73434 0.7157 0.0
O847 O 0.76953 0.72838 0.76058 0.0
O848 O 0.80309 0.77 0.812 0.0
C849 C 0.82529 0.78146 0.83419 0.0
O850 O 0.79909 0.83845 0.80802 0.0
O851 O 0.77104 0.80152 0.76719 0.0
O852 O 0.81393 0.79545 0.72003 0.0
O853 O 0.85301 0.87604 0.83595 0.0
O854 O 0.88646 0.86965 0.80411 0.0
O855 O 0.8321 0.84521 0.74867 0.0
C856 C 0.78214 0.68578 0.72831 0.0
C857 C 0.80945 0.68384 0.71675 0.0
C858 C 0.78384 0.64204 0.75183 0.0
C859 C 0.82467 0.66264 0.72454 0.0
C860 C 0.76864 0.66351 0.74418 0.0
C861 C 0.81277 0.64274 0.74378 0.0
C862 C 0.772 0.71482 0.73139 0.0
C863 C 0.77374 0.82497 0.79155 0.0
H864 H 0.87863 0.90338 0.76693 0.0
H865 H 0.84706 0.98058 0.84967 0.0
H866 H 0.85631 0.94238 0.75111 0.0
H867 H 0.86906 0.94083 0.86556 0.0
H868 H 0.82048 0.70061 0.70434 0.0
H869 H 0.77374 0.62637 0.76588 0.0
H870 H 0.84687 0.66398 0.7179 0.0
H871 H 0.74753 0.6645 0.7532 0.0
Eu872 Eu 0.58956 0.59259 0.53466 0.0
Eu873 Eu 0.55685 0.5238 0.50779 0.0
C874 C 0.59869 0.55715 0.45899 0.0
C875 C 0.59719 0.67684 0.56635 0.0
C876 C 0.56758 0.66998 0.57241 0.0
C877 C 0.59323 0.72878 0.56463 0.0
C878 C 0.55036 0.69177 0.57224 0.0
C879 C 0.61034 0.70682 0.56433 0.0
C880 C 0.56273 0.72068 0.56641 0.0
C881 C 0.61134 0.6515 0.55364 0.0
O882 O 0.60544 0.52014 0.51789 0.0
O883 O 0.62976 0.57016 0.53676 0.0
C884 C 0.63058 0.54078 0.52669 0.0
O885 O 0.56774 0.583 0.58047 0.0
O886 O 0.54642 0.48045 0.47132 0.0
O887 O 0.52919 0.48228 0.51669 0.0
O888 O 0.5441 0.53301 0.56058 0.0
C889 C 0.54916 0.55801 0.5844 0.0
O890 O 0.54066 0.59565 0.52621 0.0
O891 O 0.51753 0.5464 0.5016 0.0
O892 O 0.57671 0.53429 0.46141 0.0
O893 O 0.61354 0.63194 0.57151 0.0
O894 O 0.60167 0.63779 0.52413 0.0
O895 O 0.60648 0.58104 0.48395 0.0
C896 C 0.55059 0.44128 0.49771 0.0
C897 C 0.57442 0.45107 0.52127 0.0
C898 C 0.55668 0.38864 0.49139 0.0
C899 C 0.58931 0.4302 0.52977 0.0
C900 C 0.54203 0.41003 0.48221 0.0
C901 C 0.57995 0.39869 0.51588 0.0
C902 C 0.53503 0.46452 0.49114 0.0
C903 C 0.51601 0.57511 0.51436 0.0
H904 H 0.55708 0.64687 0.57404 0.0
H905 H 0.60326 0.75086 0.55988 0.0
H906 H 0.52693 0.68512 0.57382 0.0
H907 H 0.63309 0.71237 0.55937 0.0
H908 H 0.58082 0.47481 0.53429 0.0
H909 H 0.54908 0.36432 0.48045 0.0
H910 H 0.60743 0.43862 0.54835 0.0
H911 H 0.52365 0.40215 0.46394 0.0
Eu912 Eu 0.10875 0.55099 0.01155 0.0
Eu913 Eu 0.05335 0.56647 0.05347 0.0
C914 C 0.1102 0.55271 0.08661 0.0
C915 C 0.17591 0.51926 0.99316 0.0
C916 C 0.17038 0.5019 0.01641 0.0
C917 C 0.22311 0.50463 0.98806 0.0
C918 C 0.19092 0.4858 0.0252 0.0
C919 C 0.20244 0.52062 0.97915 0.0
C920 C 0.21754 0.48688 0.0111 0.0
C921 C 0.15435 0.53657 0.98435 0.0
O922 O 0.09105 0.60774 0.06253 0.0
O923 O 0.10733 0.60047 0.0131 0.0
C924 C 0.1038 0.61877 0.03977 0.0
O925 O 0.06979 0.54456 0.97579 0.0
O926 O 0.03504 0.59966 0.08674 0.0
O927 O 1.0078 0.55502 0.06443 0.0
O928 O 0.04601 0.5781 0.00616 0.0
C929 C 0.04961 0.56118 0.97864 0.0
O930 O 0.08713 0.50814 0.02631 0.0
O931 O 0.04065 0.51678 0.02647 0.0
O932 O 0.08141 0.54861 0.08633 0.0
O933 O 0.12747 0.52065 0.97582 0.0
O934 O 0.15514 0.56306 1.00374 0.0
O935 O 0.12421 0.56191 0.06355 0.0
C936 C 0.98523 0.59812 0.07156 0.0
C937 C 0.97362 0.59262 0.03962 0.0
C938 C 0.95432 0.63514 0.08603 0.0
C939 C 0.95244 0.60816 0.031 0.0
C940 C 0.97533 0.61945 0.09465 0.0
C941 C 0.94265 0.6298 0.05408 0.0
C942 C 1.00841 0.58277 0.08092 0.0
C943 C 0.05861 0.49776 0.02334 0.0
H944 H 0.15018 0.50086 0.02784 0.0
H945 H 0.24325 0.50574 0.97653 0.0
H946 H 0.18607 0.47273 0.04331 0.0
H947 H 0.20718 0.53403 0.9613 0.0
H948 H 0.98112 0.57651 0.02124 0.0
H949 H 0.94706 0.65136 0.10449 0.0
H950 H 0.94423 0.60374 0.00615 0.0
H951 H 0.98403 0.62416 0.11938 0.0
C952 C 0.04369 0.2864 0.05479 0.0
C953 C 0.02625 0.27335 0.02567 0.0
H954 H 0.06966 0.27799 0.09313 0.0
C955 C 0.01654 0.24118 0.01636 0.0
H956 H 0.05137 0.31118 0.0627 0.0
C957 C 0.02657 0.22229 0.03412 0.0
C958 C 0.04683 0.23529 0.0612 0.0
H959 H 1.00282 0.23054 0.99422 0.0
H960 H 0.02068 0.19751 0.0249 0.0
C961 C 0.05416 0.26748 0.07227 0.0
C962 C 0.21116 0.8171 0.19363 0.0
C963 C 0.21527 0.81638 0.16141 0.0
H964 H 0.22945 0.81276 0.23869 0.0
C965 C 0.24219 0.81209 0.15038 0.0
H966 H 0.19056 0.82028 0.20281 0.0
C967 C 0.26421 0.80761 0.17073 0.0
C968 C 0.25988 0.80727 0.20269 0.0
H969 H 0.24612 0.81158 0.12577 0.0
H970 H 0.28458 0.80415 0.16114 0.0
C971 C 0.23331 0.81258 0.21413 0.0
C972 C 0.50425 0.92297 0.48769 0.0
C973 C 0.52288 0.90202 0.48359 0.0
H974 H 0.50109 0.97007 0.50324 0.0
C975 C 0.55269 0.91237 0.49517 0.0
H976 H 0.48113 0.91554 0.47919 0.0
C977 C 0.56405 0.94337 0.50904 0.0
C978 C 0.54584 0.9647 0.51152 0.0
H979 H 0.56753 0.89665 0.4928 0.0
H980 H 0.58734 0.95073 0.51677 0.0
C981 C 0.51567 0.95414 0.50153 0.0
C982 C 0.56017 0.28793 0.69714 0.0
C983 C 0.55572 0.28269 0.6638 0.0
H984 H 0.54043 0.29189 0.74106 0.0
C985 C 0.52696 0.27694 0.6491 0.0
H986 H 0.58208 0.29252 0.70918 0.0
C987 C 0.50311 0.27648 0.66736 0.0
C988 C 0.50755 0.28174 0.7007 0.0
H989 H 0.52279 0.27274 0.62345 0.0
H990 H 0.48115 0.27158 0.65534 0.0
C991 C 0.53631 0.28744 0.71539 0.0
C992 C 0.04243 0.84283 0.58278 0.0
C993 C 0.06354 0.83955 0.60552 0.0
H994 H 0.03338 0.86483 0.54517 0.0
C995 C 0.09274 0.85583 0.60662 0.0
H996 H 0.01975 0.83061 0.58126 0.0
C997 C 0.10061 0.87514 0.58573 0.0
C998 C 0.07948 0.87877 0.56322 0.0
H999 H 0.10964 0.85368 0.62364 0.0
H1000 H 0.12333 0.88719 0.58718 0.0
C1001 C 0.05031 0.86224 0.56188 0.0
C1002 C 0.55479 0.84951 0.80492 0.0
C1003 C 0.56387 0.8214 0.79848 0.0
H1004 H 0.52432 0.87535 0.7931 0.0
C1005 C 0.55074 0.79852 0.77148 0.0
H1006 H 0.56482 0.86779 0.8253 0.0
C1007 C 0.52732 0.80295 0.75259 0.0
C1008 C 0.51713 0.8305 0.76027 0.0
H1009 H 0.55754 0.77671 0.76589 0.0
H1010 H 0.51647 0.78443 0.73282 0.0
C1011 C 0.53181 0.85405 0.78604 0.0
C1012 C 0.531 0.16914 0.10885 0.0
C1013 C 0.54438 0.19542 0.09834 0.0
H1014 H 0.52774 0.12082 0.10578 0.0
C1015 C 0.5648 0.19265 0.0757 0.0
H1016 H 0.51532 0.17066 0.1265 0.0
C1017 C 0.5719 0.16428 0.06398 0.0
C1018 C 0.55892 0.13804 0.07475 0.0
H1019 H 0.57544 0.21245 0.06712 0.0
H1020 H 0.58773 0.16302 0.04648 0.0
C1021 C 0.53829 0.14068 0.09723 0.0
C1022 C 0.22509 0.36792 0.34335 0.0
C1023 C 0.20012 0.34411 0.34105 0.0
H1024 H 0.26866 0.3808 0.32988 0.0
C1025 C 0.19883 0.31541 0.3203 0.0
H1026 H 0.22655 0.3903 0.35906 0.0
C1027 C 0.22247 0.3103 0.30289 0.0
C1028 C 0.24809 0.33356 0.30652 0.0
H1029 H 0.17964 0.29679 0.31777 0.0
H1030 H 0.22127 0.28762 0.28792 0.0
C1031 C 0.24907 0.36255 0.32657 0.0
C1032 C 0.01764 0.07927 0.17079 0.0
C1033 C 0.99576 0.05329 0.17368 0.0
H1034 H 0.05053 0.09994 0.14283 0.0
C1035 C 0.9927 0.02743 0.14732 0.0
H1036 H 0.02148 0.10007 0.18949 0.0
C1037 C 1.00954 0.02727 0.1204 0.0
C1038 C 0.03115 0.05301 0.1171 0.0
H1039 H 0.97667 1.00651 0.14715 0.0
H1040 H 1.00519 1.00647 0.10164 0.0
C1041 C 0.03465 0.07913 0.14341 0.0
C1042 C 0.32402 0.68699 0.46855 0.0
C1043 C 0.3195 0.65475 0.45809 0.0
H1044 H 0.32132 0.72985 0.45649 0.0
C1045 C 0.30909 0.64115 0.42604 0.0
H1046 H 0.33199 0.69824 0.49306 0.0
C1047 C 0.30296 0.65928 0.40509 0.0
C1048 C 0.30686 0.69144 0.41573 0.0
H1049 H 0.30532 0.61639 0.41717 0.0
H1050 H 0.29449 0.64803 0.38071 0.0
C1051 C 0.31767 0.70509 0.44765 0.0
C1052 C 0.641 0.04393 0.6609 0.0
C1053 C 0.67173 0.05073 0.66034 0.0
H1054 H 0.59896 0.04082 0.6363 0.0
C1055 C 0.68361 0.05944 0.63359 0.0
H1056 H 0.63119 0.03732 0.68136 0.0
C1057 C 0.66525 0.06153 0.60806 0.0
C1058 C 0.63452 0.05507 0.6086 0.0
H1059 H 0.70713 0.06487 0.6324 0.0
H1060 H 0.67537 0.06838 0.5879 0.0
C1061 C 0.62252 0.04615 0.63527 0.0
C1062 C 0.37523 0.33798 0.92957 0.0
C1063 C 0.35431 0.34803 0.94922 0.0
H1064 H 0.38564 0.3203 0.88248 0.0
C1065 C 0.32605 0.34622 0.93467 0.0
H1066 H 0.39722 0.33898 0.93971 0.0
C1067 C 0.31942 0.33583 0.90129 0.0
C1068 C 0.34073 0.3265 0.88159 0.0
H1069 H 0.30942 0.35402 0.9489 0.0
H1070 H 0.29773 0.33559 0.89087 0.0
C1071 C 0.36852 0.32721 0.8965 0.0
C1072 C 1.00517 0.08291 0.3941 0.0
C1073 C 1.0031 0.05874 0.36651 0.0
H1074 H 0.02018 0.10154 0.44443 0.0
C1075 C 0.01707 0.03464 0.37156 0.0
H1076 H 0.99502 0.10206 0.39257 0.0
C1077 C 0.03166 0.0343 0.40147 0.0
C1078 C 0.03345 0.05798 0.42918 0.0
H1079 H 0.01667 0.01521 0.35196 0.0
H1080 H 0.0414 0.01484 0.40284 0.0
C1081 C 0.01979 0.08247 0.42443 0.0
C1082 C 0.32368 0.69165 0.64676 0.0
C1083 C 0.33534 0.703 0.62104 0.0
H1084 H 0.30982 0.70229 0.69385 0.0
C1085 C 0.34207 0.73532 0.62426 0.0
H1086 H 0.318 0.66702 0.64525 0.0
C1087 C 0.33741 0.75559 0.65212 0.0
C1088 C 0.32548 0.74433 0.67772 0.0
H1089 H 0.35104 0.74514 0.60511 0.0
H1090 H 0.34318 0.78021 0.65354 0.0
C1091 C 0.31871 0.71199 0.67459 0.0
C1092 C 0.65969 0.10944 0.7953 0.0
C1093 C 0.68531 0.09783 0.79652 0.0
H1094 H 0.6208 0.11631 0.81739 0.0
C1095 C 0.69245 0.08602 0.82277 0.0
H1096 H 0.65363 0.11856 0.77524 0.0
C1097 C 0.67395 0.08508 0.84697 0.0
C1098 C 0.64773 0.09559 0.84529 0.0
H1099 H 0.71226 0.07724 0.82451 0.0
H1100 H 0.68019 0.07598 0.86697 0.0
C1101 C 0.64096 0.1082 0.81944 0.0
C1102 C 0.31381 0.32188 0.13239 0.0
C1103 C 0.33104 0.3503 0.12943 0.0
H1104 H 0.29784 0.29185 0.16287 0.0
C1105 C 0.34522 0.371 0.15775 0.0
H1106 H 0.30242 0.30519 0.11145 0.0
C1107 C 0.3422 0.36338 0.18784 0.0
C1108 C 0.3252 0.33467 0.19056 0.0
H1109 H 0.35855 0.39318 0.15672 0.0
H1110 H 0.35362 0.37983 0.20891 0.0
C1111 C 0.3111 0.31417 0.16219 0.0
C1112 C 0.18987 0.98376 0.01468 0.0
C1113 C 0.21708 1.00442 0.01409 0.0
H1114 H 0.14339 0.97635 0.01968 0.0
C1115 C 0.21577 0.03602 0.01942 0.0
H1116 H 0.18894 0.95922 0.01083 0.0
C1117 C 0.18874 0.04607 0.02494 0.0
C1118 C 0.1616 0.02508 0.02529 0.0
H1119 H 0.23563 0.05312 0.01941 0.0
H1120 H 0.1891 0.07047 0.0285 0.0
C1121 C 0.16314 0.99368 0.01993 0.0
C1122 C 0.70738 0.62527 1.00378 0.0
C1123 C 0.70584 0.65396 0.99688 0.0
H1124 H 0.68365 0.58204 0.01177 0.0
C1125 C 0.6778 0.66002 0.99151 0.0
H1126 H 0.72853 0.61969 0.00801 0.0
C1127 C 0.65221 0.63857 0.99374 0.0
C1128 C 0.65363 0.61011 1.0012 0.0
H1129 H 0.6755 0.6817 0.9861 0.0
H1130 H 0.63119 0.64461 0.99002 0.0
C1131 C 0.68161 0.60357 0.0058 0.0
C1132 C 0.78975 0.44373 0.26269 0.0
C1133 C 0.75996 0.4463 0.2672 0.0
H1134 H 0.82399 0.41748 0.25833 0.0
C1135 C 0.74227 0.41751 0.27056 0.0
H1136 H 0.80539 0.46387 0.25986 0.0
C1137 C 0.75369 0.38936 0.26955 0.0
C1138 C 0.78375 0.38738 0.26503 0.0
H1139 H 0.71935 0.4165 0.27417 0.0
H1140 H 0.73859 0.36891 0.27257 0.0
C1141 C 0.80096 0.41607 0.26169 0.0
C1142 C 0.9295 0.51157 0.54137 0.0
C1143 C 0.91068 0.51731 0.51753 0.0
H1144 H 0.97319 0.51309 0.56073 0.0
C1145 C 0.92485 0.53103 0.49417 0.0
H1146 H 0.92023 0.50118 0.56004 0.0
C1147 C 0.95628 0.53797 0.49457 0.0
C1148 C 0.97485 0.53146 0.51828 0.0
H1149 H 0.91171 0.53569 0.4751 0.0
H1150 H 0.96601 0.54812 0.47597 0.0
C1151 C 0.96046 0.51841 0.54176 0.0
C1152 C 0.37237 0.1216 0.28626 0.0
C1153 C 0.36564 0.10496 0.30988 0.0
H1154 H 0.35702 0.14674 0.25469 0.0
C1155 C 0.33716 0.10097 0.31986 0.0
H1156 H 0.39405 0.125 0.27795 0.0
C1157 C 0.31582 0.11338 0.30633 0.0
C1158 C 0.32254 0.12956 0.28234 0.0
H1159 H 0.33131 0.08812 0.33794 0.0
H1160 H 0.29407 0.11021 0.31446 0.0
C1161 C 0.35103 0.13365 0.27256 0.0
C1162 C 0.37706 0.15091 0.51665 0.0
C1163 C 0.38121 0.18284 0.5293 0.0
H1164 H 0.39452 0.1102 0.51361 0.0
C1165 C 0.40756 0.19833 0.54828 0.0
H1166 H 0.35706 0.13823 0.50197 0.0
C1167 C 0.42888 0.18232 0.55502 0.0
C1168 C 0.42461 0.15034 0.54286 0.0
H1169 H 0.41165 0.22292 0.5584 0.0
H1170 H 0.44883 0.19508 0.56977 0.0
C1171 C 0.39858 0.13486 0.52324 0.0
C1172 C 0.73504 0.66937 0.29033 0.0
C1173 C 0.74735 0.64261 0.28414 0.0
H1174 H 0.73932 0.71833 0.29429 0.0
C1175 C 0.77711 0.64866 0.2769 0.0
H1176 H 0.71249 0.66714 0.296 0.0
C1177 C 0.79312 0.67937 0.2761 0.0
C1178 C 0.78037 0.70594 0.28226 0.0
H1179 H 0.78822 0.62969 0.27184 0.0
H1180 H 0.81568 0.68219 0.27039 0.0
C1181 C 0.75077 0.6996 0.28935 0.0
C1182 C 0.8502 0.44906 0.77314 0.0
C1183 C 0.85434 0.46492 0.80523 0.0
H1184 H 0.84459 0.40533 0.74044 0.0
C1185 C 0.85111 0.44813 0.82918 0.0
H1186 H 0.85268 0.46143 0.7542 0.0
C1187 C 0.84594 0.41595 0.82118 0.0
C1188 C 0.84472 0.40043 0.78926 0.0
H1189 H 0.85419 0.45993 0.85409 0.0
H1190 H 0.84512 0.40345 0.84003 0.0
C1191 C 0.84583 0.41703 0.76524 0.0
C1192 C 0.14226 0.87815 0.03955 0.0
C1193 C 0.13759 0.84591 0.03107 0.0
H1194 H 0.13158 0.91857 0.02849 0.0
C1195 C 0.12158 0.82976 1.0019 0.0
H1196 H 0.15447 0.89096 0.06201 0.0
C1197 C 0.10784 0.84543 0.98303 0.0
C1198 C 0.11077 0.87748 0.99273 0.0
H1199 H 0.1175 0.80479 0.99511 0.0
H1200 H 0.09346 0.83237 0.96203 0.0
C1201 C 0.1293 0.89388 0.02027 0.0
C1202 C 0.95004 0.31579 0.86889 0.0
C1203 C 0.9718 0.30053 0.85692 0.0
H1204 H 0.91264 0.33338 0.85851 0.0
C1205 C 0.97227 0.2913 0.82375 0.0
H1206 H 0.94927 0.32355 0.8943 0.0
C1207 C 0.951 0.29689 0.80295 0.0
C1208 C 0.92922 0.31212 0.81508 0.0
H1209 H 0.98894 0.27963 0.81387 0.0
H1210 H 0.95146 0.28906 0.77751 0.0
C1211 C 0.92916 0.32169 0.84825 0.0
C1212 C 0.66424 0.1903 0.55585 0.0
C1213 C 0.64479 0.21033 0.56135 0.0
H1214 H 0.66791 0.14327 0.53952 0.0
C1215 C 0.61537 0.20004 0.54829 0.0
H1216 H 0.68705 0.19786 0.5656 0.0
C1217 C 0.60466 0.16925 0.53341 0.0
C1218 C 0.6233 0.14853 0.53109 0.0
H1219 H 0.60009 0.21526 0.55164 0.0
H1220 H 0.5813 0.16111 0.52619 0.0
C1221 C 0.65342 0.15928 0.54077 0.0
C1222 C 0.63208 0.82099 0.41699 0.0
C1223 C 0.60304 0.80875 0.4031 0.0
H1224 H 0.67749 0.83322 0.40926 0.0
C1225 C 0.59799 0.79741 0.36992 0.0
H1226 H 0.63672 0.82994 0.44247 0.0
C1227 C 0.62133 0.79929 0.35095 0.0
C1228 C 0.65025 0.81244 0.36471 0.0
H1229 H 0.57591 0.78771 0.35846 0.0
H1230 H 0.61671 0.79069 0.32542 0.0
C1231 C 0.65545 0.82278 0.39799 0.0
C1232 C 0.1082 0.28736 0.49627 0.0
C1233 C 0.10326 0.28076 0.46282 0.0
H1234 H 0.10251 0.27042 0.53886 0.0
C1235 C 0.08693 0.2515 0.44681 0.0
H1236 H 0.12055 0.30974 0.50939 0.0
C1237 C 0.07642 0.22915 0.46372 0.0
C1238 C 0.08199 0.23542 0.49708 0.0
H1239 H 0.08245 0.24571 0.42112 0.0
H1240 H 0.06406 0.20677 0.45057 0.0
C1241 C 0.09763 0.26494 0.51323 0.0
C1242 C 0.59131 0.29134 0.24472 0.0
C1243 C 0.57358 0.26258 0.22954 0.0
H1244 H 0.63071 0.31555 0.27419 0.0
C1245 C 0.58112 0.23559 0.23493 0.0
H1246 H 0.58561 0.31253 0.2414 0.0
C1247 C 0.60736 0.23717 0.25279 0.0
C1248 C 0.62637 0.26587 0.26627 0.0
H1249 H 0.56778 0.21307 0.22355 0.0
H1250 H 0.61352 0.21567 0.25395 0.0
C1251 C 0.61722 0.29299 0.26335 0.0
C1252 C 0.61019 0.93548 0.9372 0.0
C1253 C 0.60013 0.90877 0.94852 0.0
H1254 H 0.61211 0.98398 0.94321 0.0
C1255 C 0.58502 0.91091 0.97591 0.0
H1256 H 0.62167 0.93435 0.91594 0.0
C1257 C 0.57996 0.93925 0.99172 0.0
C1258 C 0.58924 0.96582 0.97994 0.0
H1259 H 0.57702 0.89062 0.98507 0.0
H1260 H 0.5682 0.94022 0.01278 0.0
C1261 C 0.60446 0.96374 0.95258 0.0
C1262 C 0.94189 0.7876 0.71658 0.0
C1263 C 0.94 0.75733 0.69931 0.0
H1264 H 0.92264 0.81841 0.74868 0.0
C1265 C 0.9164 0.73388 0.70287 0.0
H1266 H 0.96003 0.80614 0.71494 0.0
C1267 C 0.89447 0.741 0.72244 0.0
C1268 C 0.89607 0.7716 0.73892 0.0
H1269 H 0.91457 0.71024 0.69007 0.0
H1270 H 0.876 0.72281 0.72399 0.0
C1271 C 0.9204 0.79458 0.73623 0.0
C1272 C 0.1323 0.0252 0.87772 0.0
C1273 C 0.15319 0.05183 0.87453 0.0
H1274 H 0.10006 1.00367 0.9058 0.0
C1275 C 0.15516 0.07784 0.90048 0.0
H1276 H 0.12932 1.00425 0.85933 0.0
C1277 C 0.13821 0.07757 0.92729 0.0
C1278 C 0.11755 0.05123 0.93087 0.0
H1279 H 0.17038 0.09924 0.90042 0.0
H1280 H 0.14171 0.09856 0.94572 0.0
C1281 C 0.11515 0.02492 0.90497 0.0
C1282 C 0.80993 0.38595 0.54276 0.0
C1283 C 0.81309 0.41819 0.55027 0.0
H1284 H 0.81917 0.34627 0.55732 0.0
C1285 C 0.82771 0.43514 0.57994 0.0
H1286 H 0.79882 0.37213 0.52015 0.0
C1287 C 0.83948 0.42026 0.60122 0.0
C1288 C 0.83708 0.38812 0.59326 0.0
H1289 H 0.83065 0.46001 0.58647 0.0
H1290 H 0.85118 0.43404 0.62356 0.0
C1291 C 0.82185 0.37111 0.56394 0.0
C1292 C 0.50538 0.02857 0.39349 0.0
C1293 C 0.484 0.04654 0.39698 0.0
H1294 H 0.54395 0.01881 0.41433 0.0
C1295 C 0.48685 0.07076 0.42396 0.0
H1296 H 0.50396 1.00991 0.37276 0.0
C1297 C 0.50991 0.07597 0.4477 0.0
C1298 C 0.53052 0.05703 0.44492 0.0
H1299 H 0.47087 0.08517 0.42718 0.0
H1300 H 0.51098 0.09426 0.46868 0.0
C1301 C 0.52844 0.03377 0.41722 0.0
C1302 C 0.77255 0.76048 0.12675 0.0
C1303 C 0.79435 0.75491 0.10625 0.0
H1304 H 0.76217 0.77595 0.17444 0.0
C1305 C 0.82384 0.76273 0.11958 0.0
H1306 H 0.74962 0.75481 0.11749 0.0
C1307 C 0.83109 0.77454 0.15265 0.0
C1308 C 0.80911 0.77933 0.17326 0.0
H1309 H 0.84124 0.75858 0.10467 0.0
H1310 H 0.85391 0.77937 0.16213 0.0
C1311 C 0.77981 0.7727 0.1596 0.0
C1312 C 0.12555 0.06541 0.67988 0.0
C1313 C 0.14528 0.04589 0.68389 0.0
H1314 H 0.09756 0.08202 0.64907 0.0
C1315 C 0.15038 0.02693 0.65487 0.0
H1316 H 0.12032 0.08069 0.70062 0.0
C1317 C 0.13685 0.0279 0.62424 0.0
C1318 C 0.11731 0.04779 0.62057 0.0
H1319 H 0.1652 0.01152 0.65564 0.0
H1320 H 0.14197 0.01294 0.60319 0.0
C1321 C 0.11211 0.06629 0.64959 0.0
C1322 C 0.85291 0.41314 0.40216 0.0
C1323 C 0.82642 0.41643 0.41547 0.0
H1324 H 0.87455 0.3879 0.36637 0.0
C1325 C 0.80067 0.39438 0.40184 0.0
H1326 H 0.87327 0.42951 0.41188 0.0
C1327 C 0.80161 0.36971 0.37589 0.0
C1328 C 0.8282 0.36676 0.3625 0.0
H1329 H 0.77994 0.39587 0.41154 0.0
H1330 H 0.78135 0.35333 0.36584 0.0
C1331 C 0.85373 0.38905 0.37602 0.0
C1332 C 0.45683 0.98522 0.23893 0.0
C1333 C 0.44773 0.01178 0.2543 0.0
H1334 H 0.48345 0.96614 0.20444 0.0
C1335 C 0.45779 0.03973 0.24515 0.0
H1336 H 0.44942 0.96334 0.24543 0.0
C1337 C 0.47721 0.0413 0.22176 0.0
C1338 C 0.48709 0.015 0.20715 0.0
H1339 H 0.4511 0.06059 0.25648 0.0
H1340 H 0.48519 0.06334 0.21582 0.0
C1341 C 0.47645 0.98685 0.21566 0.0
C1342 C 0.84812 0.77066 0.91729 0.0
C1343 C 0.82258 0.75193 0.92483 0.0
H1344 H 0.86909 0.79459 0.88368 0.0
C1345 C 0.79785 0.74308 0.90209 0.0
H1346 H 0.86771 0.77809 0.93395 0.0
C1347 C 0.79879 0.75239 0.8728 0.0
C1348 C 0.82441 0.77112 0.86532 0.0
H1349 H 0.77781 0.72862 0.90673 0.0
H1350 H 0.77929 0.74493 0.85601 0.0
C1351 C 0.84897 0.7802 0.88823 0.0
C1352 C 0.95816 0.11925 0.03444 0.0
C1353 C 0.9308 0.09827 0.03341 0.0
H1354 H 1.00488 0.12718 0.03089 0.0
C1355 C 0.93213 0.06663 0.02666 0.0
H1356 H 0.95908 0.14383 0.03947 0.0
C1357 C 0.9593 0.05685 0.02125 0.0
C1358 C 0.98658 0.07815 0.02243 0.0
H1359 H 0.91216 0.04929 0.02537 0.0
H1360 H 0.95892 0.03238 0.01649 0.0
C1361 C 0.98503 0.10959 0.02931 0.0
C1362 C 0.44549 0.50186 0.06897 0.0
C1363 C 0.43712 0.46967 0.05681 0.0
H1364 H 0.47839 0.54347 0.07382 0.0
C1365 C 0.45749 0.4548 0.04054 0.0
H1366 H 0.43055 0.51422 0.08167 0.0
C1367 C 0.48512 0.47169 0.03599 0.0
C1368 C 0.49325 0.50399 0.04762 0.0
H1369 H 0.45192 0.43007 0.03082 0.0
H1370 H 0.49996 0.4594 0.02293 0.0
C1371 C 0.47309 0.51872 0.06447 0.0
C1372 C 0.37556 0.66787 0.78199 0.0
C1373 C 0.40514 0.66987 0.77354 0.0
H1374 H 0.33759 0.68926 0.79005 0.0
C1375 C 0.41712 0.69954 0.76714 0.0
H1376 H 0.36413 0.64658 0.78734 0.0
C1377 C 0.40172 0.72445 0.76876 0.0
C1378 C 0.37239 0.72278 0.7771 0.0
H1379 H 0.43935 0.704 0.76046 0.0
H1380 H 0.41331 0.74555 0.76314 0.0
C1381 C 0.35994 0.69319 0.78366 0.0
C1382 C 0.21926 0.58067 0.51088 0.0
C1383 C 0.23449 0.59029 0.54177 0.0
H1384 H 0.17723 0.56618 0.48211 0.0
C1385 C 0.21685 0.59077 0.5675 0.0
H1386 H 0.23156 0.5806 0.49028 0.0
C1387 C 0.18574 0.58228 0.56288 0.0
C1388 C 0.17027 0.5736 0.53221 0.0
H1389 H 0.22725 0.59841 0.59169 0.0
H1390 H 0.17371 0.58344 0.58375 0.0
C1391 C 0.18781 0.57273 0.50621 0.0
C1392 C 0.81113 1.00865 0.7515 0.0
C1393 C 0.78456 1.008 0.7656 0.0
H1394 H 0.85292 0.9959 0.75162 0.0
C1395 C 0.77998 0.99367 0.79128 0.0
H1396 H 0.8154 0.01975 0.73181 0.0
C1397 C 0.80149 0.98034 0.80271 0.0
C1398 C 0.82808 0.981 0.78872 0.0
H1399 H 0.75979 0.99282 0.80271 0.0
H1400 H 0.79695 0.96878 0.82204 0.0
C1401 C 0.83268 0.99521 0.76293 0.0
C1402 C 0.7858 0.95605 0.53068 0.0
C1403 C 0.77784 0.9239 0.52744 0.0
H1404 H 0.772 0.99707 0.5251 0.0
C1405 C 0.74863 0.90856 0.51651 0.0
H1406 H 0.80811 0.96859 0.53899 0.0
C1407 C 0.72797 0.92489 0.5086 0.0
C1408 C 0.73607 0.95691 0.51117 0.0
H1409 H 0.74174 0.88381 0.51369 0.0
H1410 H 0.70578 0.91228 0.49973 0.0
C1411 C 0.76518 0.97235 0.52249 0.0
C1412 C 0.41945 0.4384 0.76788 0.0
C1413 C 0.40565 0.46373 0.76763 0.0
H1414 H 0.41664 0.39067 0.7696 0.0
C1415 C 0.37465 0.45619 0.769 0.0
H1416 H 0.443 0.44177 0.76698 0.0
C1417 C 0.35896 0.4255 0.77041 0.0
C1418 C 0.37321 0.40039 0.77076 0.0
H1419 H 0.36231 0.47397 0.76895 0.0
H1420 H 0.3354 0.42154 0.7714 0.0
C1421 C 0.404 0.4082 0.76945 0.0
C1422 C 0.31748 0.65403 0.2264 0.0
C1423 C 0.29615 0.6414 0.20023 0.0
H1424 H 0.34464 0.6953 0.25557 0.0
C1425 C 0.29017 0.65993 0.17953 0.0
H1426 H 0.32261 0.64009 0.24257 0.0
C1427 C 0.30274 0.69151 0.18713 0.0
C1428 C 0.32184 0.70446 0.21496 0.0
H1429 H 0.27375 0.65073 0.15928 0.0
H1430 H 0.29568 0.70616 0.17279 0.0
C1431 C 0.33028 0.68545 0.23371 0.0
C1432 C 0.51182 0.74277 0.50985 0.0
C1433 C 0.5201 0.77508 0.51871 0.0
H1434 H 0.51838 0.70004 0.51903 0.0
C1435 C 0.53794 0.78919 0.54739 0.0
H1436 H 0.49792 0.73134 0.488 0.0
C1437 C 0.54999 0.7713 0.56495 0.0
C1438 C 0.54378 0.73907 0.55448 0.0
H1439 H 0.54463 0.81409 0.55488 0.0
H1440 H 0.56568 0.78268 0.58545 0.0
C1441 C 0.52336 0.72489 0.52777 0.0
C1442 C 0.71517 0.27174 0.71302 0.0
C1443 C 0.7108 0.28912 0.69054 0.0
H1444 H 0.7459 0.26169 0.74566 0.0
C1445 C 0.73467 0.31055 0.68415 0.0
H1446 H 0.69714 0.25507 0.71842 0.0
C1447 C 0.76249 0.31423 0.69956 0.0
C1448 C 0.76699 0.29668 0.72182 0.0
H1449 H 0.73198 0.32429 0.66694 0.0
H1450 H 0.78047 0.33083 0.69392 0.0
C1451 C 0.74306 0.27556 0.72862 0.0
C1452 C 0.05645 0.41272 0.99816 0.0
C1453 C 0.02674 0.40063 0.98685 0.0
H1454 H 0.08966 0.45271 0.01899 0.0
C1455 C 1.00693 0.42039 0.99021 0.0
H1456 H 0.07223 0.39802 0.99629 0.0
C1457 C 0.01699 0.45197 1.00335 0.0
C1458 C 0.04698 0.46417 0.01332 0.0
H1459 H 0.98389 0.41167 0.98184 0.0
H1460 H 1.00147 0.46689 0.00466 0.0
C1461 C 0.06645 0.4441 0.01127 0.0
C1462 C 0.04251 0.75579 0.16799 0.0
C1463 C 0.05631 0.78351 0.16042 0.0
H1464 H 1.0073 0.73258 0.18972 0.0
C1465 C 0.04401 0.80957 0.1688 0.0
H1466 H 0.0512 0.73517 0.16153 0.0
C1467 C 0.01889 0.80814 0.18526 0.0
C1468 C 1.00556 0.78059 0.19357 0.0
H1469 H 0.05414 0.83127 0.16327 0.0
H1470 H 1.01043 0.82884 0.19228 0.0
C1471 C 0.0174 0.75432 0.18428 0.0
C1472 C 0.58921 0.35141 0.10086 0.0
C1473 C 0.55969 0.33835 0.10347 0.0
H1474 H 0.61945 0.38006 0.07822 0.0
C1475 C 0.53756 0.34461 0.08408 0.0
H1476 H 0.60686 0.34684 0.11516 0.0
C1477 C 0.54483 0.36391 0.06295 0.0
C1478 C 0.57438 0.3773 0.06065 0.0
H1479 H 0.51461 0.3349 0.08548 0.0
H1480 H 0.52722 0.36894 0.04898 0.0
C1481 C 0.59646 0.37055 0.07968 0.0
C1482 C 0.05709 0.34569 0.31017 0.0
C1483 C 0.06594 0.31747 0.30316 0.0
H1484 H 0.02715 0.37227 0.29881 0.0
C1485 C 0.05276 0.29507 0.27581 0.0
H1486 H 0.06715 0.36361 0.33084 0.0
C1487 C 0.0296 0.30015 0.25705 0.0
C1488 C 0.01976 0.32788 0.26517 0.0
H1489 H 0.05939 0.27319 0.26981 0.0
H1490 H 0.01871 0.28203 0.23694 0.0
C1491 C 0.0344 0.35087 0.2914 0.0
C1492 C 0.07165 0.69363 0.58109 0.0
C1493 C 0.04853 0.6956 0.60045 0.0
H1494 H 0.09516 0.66425 0.55222 0.0
C1495 C 0.03117 0.66837 0.60581 0.0
H1496 H 0.08541 0.71425 0.57656 0.0
C1497 C 0.03708 0.63968 0.59226 0.0
C1498 C 0.06014 0.63776 0.57274 0.0
H1499 H 0.01335 0.66925 0.62086 0.0
H1500 H 0.02338 0.61901 0.59675 0.0
C1501 C 0.07726 0.665 0.56717 0.0
C1502 C 0.69711 0.81714 0.81688 0.0
C1503 C 0.69893 0.8461 0.83731 0.0
H1504 H 0.71916 0.78809 0.78548 0.0
C1505 C 0.7245 0.86922 0.83989 0.0
H1506 H 0.67746 0.79903 0.81414 0.0
C1507 C 0.74854 0.86285 0.82373 0.0
C1508 C 0.74706 0.8335 0.80414 0.0
H1509 H 0.72637 0.8918 0.85535 0.0
H1510 H 0.76854 0.88059 0.82721 0.0
C1511 C 0.72084 0.811 0.80017 0.0
C1512 C 0.49584 0.5303 0.64639 0.0
C1513 C 0.4975 0.55615 0.67246 0.0
H1514 H 0.50922 0.51016 0.60086 0.0
C1515 C 0.51778 0.58316 0.66914 0.0
H1516 H 0.4811 0.50862 0.64652 0.0
C1517 C 0.53461 0.58395 0.64169 0.0
C1518 C 0.53251 0.55781 0.61566 0.0
H1519 H 0.5205 0.60404 0.68758 0.0
H1520 H 0.5492 0.60549 0.6408 0.0
C1521 C 0.51248 0.53107 0.61937 0.0
C1522 C 0.79289 0.18431 0.97634 0.0
C1523 C 0.81773 0.17305 0.98365 0.0
H1524 H 0.77373 0.21091 0.94912 0.0
C1525 C 0.8429 0.18015 0.96773 0.0
H1526 H 0.77301 0.17904 0.98787 0.0
C1527 C 0.84336 0.19872 0.94553 0.0
C1528 C 0.81868 0.21055 0.93881 0.0
H1529 H 0.8624 0.1718 0.97281 0.0
H1530 H 0.86331 0.20448 0.93427 0.0
C1531 C 0.79333 0.20274 0.95419 0.0
C1532 C 0.13513 0.54026 0.1671 0.0
C1533 C 0.16499 0.5403 0.16374 0.0
H1534 H 0.09412 0.5444 0.14529 0.0
C1535 C 0.17578 0.54216 0.13434 0.0
H1536 H 0.12619 0.5389 0.18955 0.0
C1537 C 0.15762 0.54547 0.10933 0.0
C1538 C 0.12815 0.54705 0.11303 0.0
H1539 H 0.19858 0.54196 0.13086 0.0
H1540 H 0.16699 0.54733 0.08718 0.0
C1541 C 0.1168 0.54358 0.14187 0.0
C1542 C 0.82895 0.84088 0.43432 0.0
C1543 C 0.85854 0.84978 0.44737 0.0
H1544 H 0.79868 0.82375 0.39187 0.0
C1545 C 0.88037 0.84552 0.42654 0.0
H1546 H 0.81155 0.84413 0.44949 0.0
C1547 C 0.87305 0.83354 0.39368 0.0
C1548 C 0.84362 0.82591 0.38025 0.0
H1549 H 0.90338 0.85213 0.43559 0.0
H1550 H 0.89072 0.83134 0.37864 0.0
C1551 C 0.8216 0.82937 0.40116 0.0
C1552 C 0.50056 0.58112 0.89326 0.0
C1553 C 0.50578 0.56206 0.86434 0.0
H1554 H 0.50876 0.59529 0.945 0.0
C1555 C 0.5252 0.54231 0.86867 0.0
H1556 H 0.48601 0.59676 0.89228 0.0
C1557 C 0.53827 0.54134 0.89909 0.0
C1558 C 0.5331 0.56005 0.928 0.0
H1559 H 0.53049 0.5269 0.84807 0.0
H1560 H 0.55263 0.52546 0.8998 0.0
C1561 C 0.51382 0.58014 0.92405 0.0
C1562 C 0.82456 0.1908 0.14893 0.0
C1563 C 0.84043 0.20104 0.12489 0.0
H1564 H 0.80689 0.20312 0.19374 0.0
C1565 C 0.85049 0.2332 0.12862 0.0
H1566 H 0.81623 0.16636 0.14698 0.0
C1567 C 0.84507 0.25435 0.15539 0.0
C1568 C 0.82914 0.24421 0.1794 0.0
H1569 H 0.86271 0.24222 0.11074 0.0
H1570 H 0.85355 0.27877 0.15731 0.0
C1571 C 0.81896 0.21203 0.1757 0.0
C1572 C 0.15881 0.61084 0.29115 0.0
C1573 C 0.18642 0.60346 0.29458 0.0
H1574 H 0.11861 0.61459 0.31178 0.0
C1575 C 0.19611 0.59763 0.32358 0.0
H1576 H 0.1508 0.61531 0.26896 0.0
C1577 C 0.17792 0.59758 0.34815 0.0
C1578 C 0.14951 0.60297 0.34409 0.0
H1579 H 0.21749 0.59229 0.327 0.0
H1580 H 0.18589 0.59261 0.37008 0.0
C1581 C 0.14042 0.61045 0.31568 0.0
C1582 C 0.81316 0.82323 0.63211 0.0
C1583 C 0.83219 0.85059 0.62902 0.0
H1584 H 0.79559 0.79398 0.66271 0.0
C1585 C 0.848 0.87026 0.65708 0.0
H1586 H 0.80048 0.8074 0.61133 0.0
C1587 C 0.84471 0.86272 0.68715 0.0
C1588 C 0.82589 0.83503 0.68998 0.0
H1589 H 0.8627 0.89165 0.65588 0.0
H1590 H 0.85735 0.87831 0.70808 0.0
C1591 C 0.81026 0.8155 0.66185 0.0
C1592 C 0.6876 0.48824 0.51044 0.0
C1593 C 0.71543 0.50859 0.51195 0.0
H1594 H 0.64086 0.48148 0.51362 0.0
C1595 C 0.71491 0.54047 0.51941 0.0
H1596 H 0.68602 0.46354 0.50488 0.0
C1597 C 0.68808 0.55102 0.525 0.0
C1598 C 0.66032 0.53032 0.52325 0.0
H1599 H 0.73524 0.55739 0.52111 0.0
H1600 H 0.68912 0.57562 0.53028 0.0
C1601 C 0.66108 0.49867 0.51569 0.0
C1602 C 0.2075 0.12589 0.4968 0.0
C1603 C 0.20849 0.15781 0.50648 0.0
H1604 H 0.18162 0.07957 0.49041 0.0
C1605 C 0.18258 0.16699 0.5157 0.0
H1606 H 0.227 0.1179 0.48949 0.0
C1607 C 0.15681 0.14521 0.51618 0.0
C1608 C 0.15582 0.11329 0.50747 0.0
H1609 H 0.1822 0.19121 0.52313 0.0
H1610 H 0.13765 0.15365 0.52397 0.0
C1611 C 0.18145 0.10387 0.49725 0.0
C1612 C 0.27569 0.93981 0.76704 0.0
C1613 C 0.24475 0.93601 0.77007 0.0
H1614 H 0.31482 0.91992 0.76314 0.0
C1615 C 0.23155 0.90469 0.7709 0.0
H1616 H 0.2881 0.96245 0.76622 0.0
C1617 C 0.24708 0.87985 0.76905 0.0
C1618 C 0.27776 0.88332 0.76608 0.0
H1619 H 0.20823 0.89881 0.77317 0.0
H1620 H 0.23449 0.85736 0.77015 0.0
C1621 C 0.29142 0.9146 0.76517 0.0
C1622 C 0.43064 1.00718 0.04256 0.0
C1623 C 0.41205 0.01472 0.01978 0.0
H1624 H 0.47419 1.00779 0.06163 0.0
C1625 C 0.42646 0.03084 0.9982 0.0
H1626 H 0.42118 0.99493 0.05988 0.0
C1627 C 0.45793 0.03835 0.99924 0.0
C1628 C 0.47626 0.03003 0.02182 0.0
H1629 H 0.4135 0.03699 0.98002 0.0
H1630 H 0.46787 0.0504 0.98201 0.0
C1631 C 0.46163 0.01456 0.04356 0.0
C1632 C 0.87566 0.6049 0.75848 0.0
C1633 C 0.87467 0.60457 0.79086 0.0
H1634 H 0.8558 0.61534 0.71762 0.0
C1635 C 0.85171 0.61427 0.80697 0.0
H1636 H 0.89271 0.59674 0.74523 0.0
C1637 C 0.83077 0.62545 0.79126 0.0
C1638 C 0.83211 0.62651 0.75897 0.0
H1639 H 0.85036 0.61394 0.83188 0.0
H1640 H 0.81426 0.63436 0.80482 0.0
C1641 C 0.85441 0.61541 0.7426 0.0
C1642 C 0.87486 0.64861 0.01586 0.0
C1643 C 0.87831 0.68021 0.02984 0.0
H1644 H 0.89233 0.60788 0.01253 0.0
C1645 C 0.90352 0.69513 0.05096 0.0
H1646 H 0.85572 0.63636 0.99953 0.0
C1647 C 0.92436 0.67884 0.05847 0.0
C1648 C 0.92073 0.64715 0.04499 0.0
H1649 H 0.90705 0.71944 0.06216 0.0
H1650 H 0.94342 0.69117 0.07488 0.0
C1651 C 0.8959 0.6323 0.02324 0.0
C1652 C 0.27716 0.14925 0.77721 0.0
C1653 C 0.24732 0.14335 0.78425 0.0
H1654 H 0.31592 0.18255 0.77069 0.0
C1655 C 0.23524 0.17027 0.79049 0.0
H1656 H 0.2881 0.13015 0.77202 0.0
C1657 C 0.2512 0.20047 0.78966 0.0
C1658 C 0.28081 0.20661 0.78252 0.0
H1659 H 0.21267 0.16819 0.79606 0.0
H1660 H 0.2399 0.21931 0.79463 0.0
C1661 C 0.29336 0.17989 0.7764 0.0
C1662 C 0.35539 0.93699 0.33639 0.0
C1663 C 0.34842 0.95489 0.31535 0.0
H1664 H 0.35548 0.89147 0.34292 0.0
C1665 C 0.33274 0.9401 0.28568 0.0
H1666 H 0.36733 0.94786 0.35951 0.0
C1667 C 0.32646 0.90804 0.27608 0.0
C1668 C 0.33523 0.89022 0.29622 0.0
H1669 H 0.327 0.95324 0.26898 0.0
H1670 H 0.31576 0.89723 0.25236 0.0
C1671 C 0.34859 0.90479 0.32697 0.0
C1672 C 0.61575 0.33296 0.52522 0.0
C1673 C 0.61983 0.33821 0.55862 0.0
H1674 H 0.59965 0.34825 0.48514 0.0
C1675 C 0.6102 0.36282 0.57737 0.0
H1676 H 0.62279 0.31394 0.51023 0.0
C1677 C 0.59663 0.38171 0.56316 0.0
C1678 C 0.59284 0.37688 0.52986 0.0
H1679 H 0.61255 0.36722 0.60314 0.0
H1680 H 0.58896 0.40017 0.57836 0.0
C1681 C 0.6023 0.35226 0.51088 0.0
C1682 C 0.42318 0.75701 0.34895 0.0
C1683 C 0.44638 0.78238 0.36148 0.0
H1684 H 0.38344 0.73952 0.31774 0.0
C1685 C 0.44819 0.80957 0.35025 0.0
H1686 H 0.42131 0.73577 0.35712 0.0
C1687 C 0.42691 0.81153 0.32726 0.0
C1688 C 0.40314 0.78655 0.31559 0.0
H1689 H 0.46603 0.82942 0.35929 0.0
H1690 H 0.42855 0.83293 0.31946 0.0
C1691 C 0.40156 0.75918 0.32644 0.0
C1692 C 0.10523 0.69866 0.02801 0.0
C1693 C 0.11749 0.71647 0.05823 0.0
H1694 H 0.09211 0.65307 0.99799 0.0
C1695 C 0.12845 0.70204 0.08062 0.0
H1696 H 0.0968 0.70929 0.01029 0.0
C1697 C 0.12537 0.67018 0.07377 0.0
C1698 C 0.11203 0.65229 0.04416 0.0
H1699 H 0.13806 0.71513 0.10411 0.0
H1700 H 0.13249 0.65937 0.09204 0.0
C1701 C 0.10281 0.66669 0.02087 0.0
C1702 C 0.10561 0.2965 0.8767 0.0
C1703 C 0.11156 0.31192 0.90897 0.0
H1704 H 0.12241 0.28642 0.83135 0.0
C1705 C 0.14036 0.32817 0.92052 0.0
H1706 H 0.08369 0.28369 0.86704 0.0
C1707 C 0.16253 0.32974 0.89998 0.0
C1708 C 0.15628 0.31523 0.8675 0.0
H1709 H 0.14564 0.34032 0.94524 0.0
H1710 H 0.18434 0.34315 0.90932 0.0
C1711 C 0.12772 0.29823 0.85618 0.0
C1712 C 0.62362 0.78197 0.98448 0.0
C1713 C 0.60883 0.78068 0.95485 0.0
H1714 H 0.62532 0.76188 0.02501 0.0
C1715 C 0.58285 0.75813 0.94412 0.0
H1716 H 0.64367 0.79911 0.99347 0.0
C1717 C 0.57212 0.73708 0.9624 0.0
C1718 C 0.58718 0.73796 0.99178 0.0
H1719 H 0.57073 0.75669 0.92157 0.0
H1720 H 0.55199 0.72005 0.95346 0.0
C1721 C 0.61294 0.76082 1.00273 0.0
C1722 C 0.08132 0.73207 0.73307 0.0
C1723 C 0.07365 0.7594 0.72896 0.0
H1724 H 0.11354 0.71156 0.75151 0.0
C1725 C 0.09084 0.78788 0.74573 0.0
H1726 H 0.06841 0.70976 0.72042 0.0
C1727 C 0.11636 0.78901 0.76475 0.0
C1728 C 0.1257 0.7617 0.76647 0.0
H1729 H 0.08502 0.80929 0.74339 0.0
H1730 H 0.12945 0.81139 0.77686 0.0
C1731 C 0.1072 0.73317 0.75132 0.0
C1732 C 0.11112 0.43429 0.43512 0.0
C1733 C 0.09675 0.40731 0.44375 0.0
H1734 H 0.11661 0.48347 0.44233 0.0
C1735 C 0.07691 0.40944 0.46704 0.0
H1736 H 0.12629 0.43316 0.41696 0.0
C1737 C 0.07175 0.43805 0.48178 0.0
C1738 C 0.08572 0.46501 0.4729 0.0
H1739 H 0.06551 0.38897 0.47405 0.0
H1740 H 0.05654 0.43903 0.49992 0.0
C1741 C 0.10535 0.46293 0.44932 0.0
C1742 C 0.44364 0.28581 0.2229 0.0
C1743 C 0.43967 0.25669 0.20224 0.0
H1744 H 0.42604 0.31572 0.25793 0.0
C1745 C 0.4145 0.23393 0.20318 0.0
H1746 H 0.46311 0.30362 0.22338 0.0
C1747 C 0.39284 0.24097 0.22317 0.0
C1748 C 0.39633 0.27074 0.24263 0.0
H1749 H 0.41109 0.21114 0.18773 0.0
H1750 H 0.37293 0.22364 0.22233 0.0
C1751 C 0.4224 0.29266 0.24295 0.0
C1752 C 0.65802 0.5792 0.40052 0.0
C1753 C 0.65305 0.55437 0.37294 0.0
H1754 H 0.64646 0.59985 0.44676 0.0
C1755 C 0.62852 0.53016 0.37395 0.0
H1756 H 0.67612 0.59874 0.40212 0.0
C1757 C 0.61082 0.53093 0.40079 0.0
C1758 C 0.61626 0.55598 0.42837 0.0
H1759 H 0.6231 0.51024 0.35418 0.0
H1760 H 0.59285 0.51144 0.39996 0.0
C1761 C 0.6405 0.58 0.42692 0.0
C1762 C 0.3277 0.93478 0.08331 0.0
C1763 C 0.3156 0.91706 0.05295 0.0
H1764 H 0.34893 0.9354 0.12875 0.0
C1765 C 0.3147 0.88519 0.0459 0.0
H1766 H 0.32886 0.95941 0.0895 0.0
C1767 C 0.32638 0.87151 0.06832 0.0
C1768 C 0.33906 0.88933 0.0984 0.0
H1769 H 0.30557 0.87083 0.02277 0.0
H1770 H 0.32547 0.84692 0.0621 0.0
C1771 C 0.33922 0.92104 0.10582 0.0
C1772 C 0.98605 0.57367 0.92889 0.0
C1773 C 0.98317 0.54923 0.90214 0.0
H1774 H 1.00966 0.5969 0.97402 0.0
C1775 C 1.00377 0.53032 0.89959 0.0
H1776 H 0.97059 0.58871 0.93139 0.0
C1777 C 0.02628 0.53513 0.92382 0.0
C1778 C 0.02849 0.55879 0.95117 0.0
H1779 H 1.00231 0.51147 0.87907 0.0
H1780 H 0.04129 0.51961 0.92155 0.0
C1781 C 1.00847 0.57836 0.95325 0.0
C1782 C 0.34176 0.28799 0.62446 0.0
C1783 C 0.31594 0.26976 0.60612 0.0
H1784 H 0.36409 0.30883 0.67107 0.0
C1785 C 0.29169 0.25977 0.62237 0.0
H1786 H 0.36099 0.29596 0.61297 0.0
C1787 C 0.29328 0.26787 0.65596 0.0
C1788 C 0.31943 0.28538 0.67424 0.0
H1789 H 0.27148 0.24568 0.60913 0.0
H1790 H 0.27427 0.25965 0.66765 0.0
C1791 C 0.3436 0.29531 0.65792 0.0
C1792 C 0.64239 0.52255 0.15462 0.0
C1793 C 0.64903 0.54888 0.18051 0.0
H1794 H 0.62336 0.50201 0.10573 0.0
C1795 C 0.6392 0.575 0.17406 0.0
H1796 H 0.64921 0.50174 0.15732 0.0
C1797 C 0.62425 0.57521 0.14435 0.0
C1798 C 0.61788 0.54931 0.1183 0.0
H1799 H 0.64323 0.59614 0.19234 0.0
H1800 H 0.61786 0.59627 0.14179 0.0
C1801 C 0.62737 0.52281 0.12446 0.0
C1802 C 0.30151 0.89284 0.90277 0.0
C1803 C 0.32745 0.91496 0.91559 0.0
H1804 H 0.28144 0.85176 0.86716 0.0
C1805 C 0.35351 0.91167 0.90137 0.0
H1806 H 0.28109 0.89435 0.91318 0.0
C1807 C 0.35373 0.88751 0.87509 0.0
C1808 C 0.328 0.86522 0.86229 0.0
H1809 H 0.374 0.92808 0.91042 0.0
H1810 H 0.37424 0.88637 0.86472 0.0
C1811 C 0.30184 0.86814 0.87663 0.0
C1812 C 0.96634 0.48656 0.74107 0.0
C1813 C 0.95864 0.51387 0.75668 0.0
H1814 H 0.99048 0.46566 0.70485 0.0
C1815 C 0.96931 0.54142 0.74704 0.0
H1816 H 0.95843 0.46499 0.74799 0.0
C1817 C 0.98745 0.54176 0.72247 0.0
C1818 C 0.99546 0.5146 0.70708 0.0
H1819 H 0.96377 0.56287 0.75854 0.0
H1820 H 0.99567 0.56344 0.71588 0.0
C1821 C 0.98476 0.48696 0.71655 0.0
C1822 C 0.35031 0.27248 0.41926 0.0
C1823 C 0.32467 0.25437 0.42734 0.0
H1824 H 0.37115 0.29566 0.38503 0.0
C1825 C 0.29964 0.24585 0.40503 0.0
H1826 H 0.37012 0.27958 0.4356 0.0
C1827 C 0.30042 0.25477 0.37556 0.0
C1828 C 0.32612 0.27287 0.36751 0.0
H1829 H 0.27954 0.23178 0.41007 0.0
H1830 H 0.28071 0.24748 0.35906 0.0
C1831 C 0.35096 0.28174 0.39005 0.0
C1832 C 0.45757 0.62544 0.53258 0.0
C1833 C 0.42992 0.60425 0.52846 0.0
H1834 H 0.5046 0.63369 0.53151 0.0
C1835 C 0.43108 0.5727 0.51849 0.0
H1836 H 0.45862 0.64997 0.54014 0.0
C1837 C 0.45836 0.5632 0.51303 0.0
C1838 C 0.48593 0.58469 0.51745 0.0
H1839 H 0.41088 0.55524 0.51471 0.0
H1840 H 0.45784 0.53876 0.50576 0.0
C1841 C 0.48454 0.61602 0.52746 0.0
C1842 C 0.97756 0.94129 0.55331 0.0
C1843 C 0.94944 0.94808 0.55341 0.0
H1844 H 0.02344 0.9569 0.54972 0.0
C1845 C 0.94701 0.97807 0.55131 0.0
H1846 H 0.98045 0.91856 0.55491 0.0
C1847 C 0.97196 1.0004 0.54859 0.0
C1848 C 0.99995 0.99323 0.54761 0.0
H1849 H 0.92577 0.98422 0.55139 0.0
H1850 H 0.96917 0.02301 0.54643 0.0
C1851 C 1.00235 0.96341 0.55032 0.0
C1852 C 0.87515 0.16752 0.28251 0.0
C1853 C 0.90516 0.16972 0.27542 0.0
H1854 H 0.83695 0.18882 0.28925 0.0
C1855 C 0.91765 0.19974 0.27016 0.0
H1856 H 0.86326 0.14596 0.28689 0.0
C1857 C 0.90238 0.22474 0.27158 0.0
C1858 C 0.87263 0.2229 0.27854 0.0
H1859 H 0.94023 0.20443 0.26457 0.0
H1860 H 0.91445 0.24609 0.26691 0.0
C1861 C 0.85963 0.19295 0.28396 0.0
C1862 C 0.7177 0.08597 0.07484 0.0
C1863 C 0.73576 0.08613 0.04946 0.0
H1864 H 0.67435 0.07944 0.09052 0.0
C1865 C 0.72082 0.07847 0.01846 0.0
H1866 H 0.72775 0.09187 0.09916 0.0
C1867 C 0.68935 0.07174 0.01342 0.0
C1868 C 0.67145 0.07203 0.03912 0.0
H1869 H 0.73341 0.07878 0.9981 0.0
H1870 H 0.67905 0.06655 0.98927 0.0
C1871 C 0.68659 0.07888 0.06984 0.0
C1872 C 0.28793 0.50435 0.30306 0.0
C1873 C 0.28914 0.51465 0.27463 0.0
H1874 H 0.30719 0.48118 0.33396 0.0
C1875 C 0.31274 0.51112 0.25628 0.0
H1876 H 0.27 0.50683 0.31771 0.0
C1877 C 0.33457 0.49716 0.26605 0.0
C1878 C 0.333 0.48615 0.29414 0.0
H1879 H 0.31449 0.51934 0.2345 0.0
H1880 H 0.35247 0.49462 0.25139 0.0
C1881 C 0.30953 0.4901 0.31263 0.0
C1882 C 0.28956 0.46485 0.03232 0.0
C1883 C 0.27974 0.43426 0.03529 0.0
H1884 H 0.27771 0.50545 0.02236 0.0
C1885 C 0.24934 0.42149 0.03096 0.0
H1886 H 0.31281 0.47539 0.03542 0.0
C1887 C 0.22928 0.43867 0.02352 0.0
C1888 C 0.23906 0.46906 0.01997 0.0
H1889 H 0.24096 0.39799 0.033 0.0
H1890 H 0.20609 0.42785 0.01982 0.0
C1891 C 0.26946 0.48199 0.02458 0.0
C1892 C 0.87455 0.95663 0.27338 0.0
C1893 C 0.90415 0.96268 0.26559 0.0
H1894 H 0.83641 0.92322 0.28108 0.0
C1895 C 0.9166 0.93599 0.25969 0.0
H1896 H 0.86334 0.97553 0.27829 0.0
C1897 C 0.90117 0.90586 0.26145 0.0
C1898 C 0.87174 0.89953 0.2691 0.0
H1899 H 0.93904 0.93822 0.25365 0.0
H1900 H 0.91271 0.8872 0.25666 0.0
C1901 C 0.85885 0.92602 0.27498 0.0
C1902 C 0.81744 0.16575 0.69799 0.0
C1903 C 0.80973 0.14965 0.72178 0.0
H1904 H 0.8362 0.20923 0.68767 0.0
C1905 C 0.81917 0.1641 0.7538 0.0
H1906 H 0.81061 0.15503 0.67311 0.0
C1907 C 0.83399 0.1949 0.76214 0.0
C1908 C 0.83937 0.21194 0.73863 0.0
H1909 H 0.81398 0.15198 0.7726 0.0
H1910 H 0.83959 0.20575 0.78718 0.0
C1911 C 0.83207 0.19677 0.70637 0.0
loop_
_geom_bond_atom_site_label_1
_geom_bond_atom_site_label_2
_geom_bond_distance
_geom_bond_site_symmetry_2
_ccdc_geom_bond_type
C0 O1 1.160 . S
C0 O7 1.185 . S
O1 C0 1.160 . S
O2 Zn3 1.899 . S
O2 C10 1.284 . S
Zn3 O2 1.899 . S
Zn3 O4 2.032 . S
Zn3 O7 2.086 . S
Zn3 O12 1.977 . S
O4 Zn3 2.032 . S
O4 C8 1.278 . S
C5 O6 1.203 . S
C5 O12 1.267 . S
O6 C5 1.203 . S
O7 C0 1.185 . S
O7 Zn3 2.086 . S
C8 O4 1.278 . S
C8 O9 1.211 . S
O9 C8 1.211 . S
C10 O2 1.284 . S
C10 O11 1.273 . S
O11 C10 1.273 . S
O12 Zn3 1.977 . S
O12 C5 1.267 . S
C13 O14 1.160 . S
C13 O20 1.185 . S
O14 C13 1.160 . S
O15 Zn16 1.899 . S
O15 C23 1.284 . S
Zn16 O15 1.899 . S
Zn16 O17 2.032 . S
Zn16 O20 2.086 . S
Zn16 O25 1.977 1_655 S
O17 Zn16 2.032 . S
O17 C21 1.278 1_655 S
C18 O19 1.203 . S
C18 O25 1.267 . S
O19 C18 1.203 . S
O20 C13 1.185 . S
O20 Zn16 2.086 . S
C21 O17 1.278 1_455 S
C21 O22 1.211 . S
O22 C21 1.211 . S
C23 O15 1.284 . S
C23 O24 1.273 1_655 S
O24 C23 1.273 1_455 S
O25 Zn16 1.977 1_455 S
O25 C18 1.267 . S
C26 O27 1.160 . S
C26 O33 1.185 . S
O27 C26 1.160 . S
O28 Zn29 1.899 . S
O28 C36 1.284 . S
Zn29 O28 1.899 . S
Zn29 O30 2.032 . S
Zn29 O33 2.086 . S
Zn29 O38 1.977 . S
O30 Zn29 2.032 . S
O30 C34 1.278 . S
C31 O32 1.203 . S
C31 O38 1.267 . S
O32 C31 1.203 . S
O33 C26 1.185 . S
O33 Zn29 2.086 . S
C34 O30 1.278 . S
C34 O35 1.211 . S
O35 C34 1.211 . S
C36 O28 1.284 . S
C36 O37 1.273 . S
O37 C36 1.273 . S
O38 Zn29 1.977 . S
O38 C31 1.267 . S
C39 O40 1.160 . S
C39 O46 1.185 . S
O40 C39 1.160 . S
O41 Zn42 1.899 . S
O41 C49 1.284 . S
Zn42 O41 1.899 . S
Zn42 O43 2.032 . S
Zn42 O46 2.086 . S
Zn42 O51 1.977 . S
O43 Zn42 2.032 . S
O43 C47 1.278 . S
C44 O45 1.203 . S
C44 O51 1.267 . S
O45 C44 1.203 . S
O46 C39 1.185 . S
O46 Zn42 2.086 . S
C47 O43 1.278 . S
C47 O48 1.211 . S
O48 C47 1.211 . S
C49 O41 1.284 . S
C49 O50 1.273 . S
O50 C49 1.273 . S
O51 Zn42 1.977 . S
O51 C44 1.267 . S
C52 O53 1.160 . S
C52 O59 1.185 . S
O53 C52 1.160 . S
O54 Zn55 1.899 . S
O54 C62 1.284 . S
Zn55 O54 1.899 . S
Zn55 O56 2.032 . S
Zn55 O59 2.086 . S
Zn55 O64 1.977 . S
O56 Zn55 2.032 . S
O56 C60 1.278 . S
C57 O58 1.203 . S
C57 O64 1.267 . S
O58 C57 1.203 . S
O59 C52 1.185 . S
O59 Zn55 2.086 . S
C60 O56 1.278 . S
C60 O61 1.211 . S
O61 C60 1.211 . S
C62 O54 1.284 . S
C62 O63 1.273 . S
O63 C62 1.273 . S
O64 Zn55 1.977 . S
O64 C57 1.267 . S
C65 O66 1.160 . S
C65 O72 1.185 . S
O66 C65 1.160 . S
O67 Zn68 1.899 . S
O67 C75 1.284 . S
Zn68 O67 1.899 . S
Zn68 O69 2.032 . S
Zn68 O72 2.086 . S
Zn68 O77 1.977 . S
O69 Zn68 2.032 . S
O69 C73 1.278 . S
C70 O71 1.203 . S
C70 O77 1.267 . S
O71 C70 1.203 . S
O72 C65 1.185 . S
O72 Zn68 2.086 . S
C73 O69 1.278 . S
C73 O74 1.211 . S
O74 C73 1.211 . S
C75 O67 1.284 . S
C75 O76 1.273 . S
O76 C75 1.273 . S
O77 Zn68 1.977 . S
O77 C70 1.267 . S
C78 O79 1.160 . S
C78 O85 1.185 . S
O79 C78 1.160 . S
O80 Zn81 1.899 . S
O80 C88 1.284 . S
Zn81 O80 1.899 . S
Zn81 O82 2.032 . S
Zn81 O85 2.086 . S
Zn81 O90 1.977 . S
O82 Zn81 2.032 . S
O82 C86 1.278 . S
C83 O84 1.203 . S
C83 O90 1.267 . S
O84 C83 1.203 . S
O85 C78 1.185 . S
O85 Zn81 2.086 . S
C86 O82 1.278 . S
C86 O87 1.211 . S
O87 C86 1.211 . S
C88 O80 1.284 . S
C88 O89 1.273 . S
O89 C88 1.273 . S
O90 Zn81 1.977 . S
O90 C83 1.267 . S
C91 O92 1.160 . S
C91 O98 1.185 . S
O92 C91 1.160 . S
O93 Zn94 1.899 . S
O93 C101 1.284 . S
Zn94 O93 1.899 . S
Zn94 O95 2.032 . S
Zn94 O98 2.086 . S
Zn94 O103 1.977 1_455 S
O95 Zn94 2.032 . S
O95 C99 1.278 . S
C96 O97 1.203 . S
C96 O103 1.267 . S
O97 C96 1.203 . S
O98 C91 1.185 . S
O98 Zn94 2.086 . S
C99 O95 1.278 . S
C99 O100 1.185 1_455 S
O100 C99 1.185 1_655 S
C101 O93 1.284 . S
C101 O102 1.273 . S
O102 C101 1.273 . S
O103 Zn94 1.977 1_655 S
O103 C96 1.267 . S
C104 O105 1.160 . S
C104 O111 1.185 . S
O105 C104 1.160 . S
O106 Zn107 1.901 1_565 S
O106 C114 1.289 . S
Zn107 O106 1.901 1_545 S
Zn107 O108 2.032 . S
Zn107 O111 2.086 . S
Zn107 O116 1.977 1_545 S
O108 Zn107 2.032 . S
O108 C112 1.278 . S
C109 O110 1.203 . S
C109 O116 1.267 . S
O110 C109 1.203 . S
O111 C104 1.185 . S
O111 Zn107 2.086 . S
C112 O108 1.278 . S
C112 O113 1.211 1_545 S
O113 C112 1.211 1_565 S
C114 O106 1.289 . S
C114 O115 1.273 . S
O115 C114 1.273 . S
O116 Zn107 1.977 1_565 S
O116 C109 1.267 . S
C117 O118 1.160 . S
C117 O124 1.185 . S
O118 C117 1.160 . S
O119 Zn120 1.899 . S
O119 C127 1.284 . S
Zn120 O119 1.899 . S
Zn120 O121 2.032 . S
Zn120 O124 2.086 . S
Zn120 O129 1.977 . S
O121 Zn120 2.032 . S
O121 C125 1.278 . S
C122 O123 1.203 . S
C122 O129 1.267 . S
O123 C122 1.203 . S
O124 C117 1.185 . S
O124 Zn120 2.086 . S
C125 O121 1.278 . S
C125 O126 1.211 . S
O126 C125 1.211 . S
C127 O119 1.284 . S
C127 O128 1.273 . S
O128 C127 1.273 . S
O129 Zn120 1.977 . S
O129 C122 1.267 . S
C130 O131 1.160 . S
C130 O137 1.185 . S
O131 C130 1.160 . S
O132 Zn133 1.899 . S
O132 C140 1.284 . S
Zn133 O132 1.899 . S
Zn133 O134 2.032 . S
Zn133 O137 2.086 1_545 S
Zn133 O142 1.977 . S
O134 Zn133 2.032 . S
O134 C138 1.278 . S
C135 O136 1.203 . S
C135 O142 1.267 . S
O136 C135 1.203 . S
O137 C130 1.185 . S
O137 Zn133 2.086 1_565 S
C138 O134 1.278 . S
C138 O139 1.211 . S
O139 C138 1.211 . S
C140 O132 1.284 . S
C140 O141 1.273 . S
O141 C140 1.273 . S
O142 Zn133 1.977 . S
O142 C135 1.267 . S
C143 O144 1.160 . S
C143 O150 1.185 . S
O144 C143 1.160 . S
O145 Zn146 1.899 . S
O145 C153 1.284 . S
Zn146 O145 1.899 . S
Zn146 O147 2.032 1_554 S
Zn146 O150 2.086 . S
Zn146 O155 1.977 . S
O147 Zn146 2.032 1_556 S
O147 C151 1.278 . S
C148 O149 1.203 . S
C148 O155 1.267 . S
O149 C148 1.203 . S
O150 C143 1.185 . S
O150 Zn146 2.086 . S
C151 O147 1.278 . S
C151 O152 1.211 . S
O152 C151 1.211 . S
C153 O145 1.284 . S
C153 O154 1.273 . S
O154 C153 1.273 . S
O155 Zn146 1.977 . S
O155 C148 1.267 . S
C156 O157 1.160 . S
C156 O163 1.185 . S
O157 C156 1.160 . S
O158 Zn159 1.899 . S
O158 C166 1.284 . S
Zn159 O158 1.899 . S
Zn159 O160 2.032 1_554 S
Zn159 O163 2.086 . S
Zn159 O168 1.977 . S
O160 Zn159 2.032 1_556 S
O160 C164 1.278 . S
C161 O162 1.203 . S
C161 O168 1.267 . S
O162 C161 1.203 . S
O163 C156 1.185 . S
O163 Zn159 2.086 . S
C164 O160 1.278 . S
C164 O165 1.211 . S
O165 C164 1.211 . S
C166 O158 1.284 . S
C166 O167 1.273 . S
O167 C166 1.273 . S
O168 Zn159 1.977 . S
O168 C161 1.267 . S
C169 O170 1.160 . S
C169 O176 1.185 . S
O170 C169 1.160 . S
O171 Zn172 1.899 . S
O171 C179 1.284 . S
Zn172 O171 1.899 . S
Zn172 O173 2.032 . S
Zn172 O176 2.086 . S
Zn172 O181 1.977 . S
O173 Zn172 2.032 . S
O173 C177 1.278 1_554 S
C174 O175 1.203 . S
C174 O181 1.267 . S
O175 C174 1.203 . S
O176 C169 1.185 . S
O176 Zn172 2.086 . S
C177 O173 1.278 1_556 S
C177 O178 1.211 . S
O178 C177 1.211 . S
C179 O171 1.284 . S
C179 O180 1.273 . S
O180 C179 1.273 . S
O181 Zn172 1.977 . S
O181 C174 1.267 . S
C182 O183 1.160 . S
C182 O189 1.185 . S
O183 C182 1.160 . S
O184 Zn185 1.899 . S
O184 C192 1.284 . S
Zn185 O184 1.899 . S
Zn185 O186 2.032 . S
Zn185 O189 2.086 . S
Zn185 O194 1.977 . S
O186 Zn185 2.032 . S
O186 C190 1.278 . S
C187 O188 1.203 . S
C187 O194 1.267 . S
O188 C187 1.203 . S
O189 C182 1.185 . S
O189 Zn185 2.086 . S
C190 O186 1.278 . S
C190 O191 1.211 . S
O191 C190 1.211 . S
C192 O184 1.284 . S
C192 O193 1.273 . S
O193 C192 1.273 . S
O194 Zn185 1.977 . S
O194 C187 1.267 . S
C195 O196 1.160 . S
C195 O202 1.185 . S
O196 C195 1.160 . S
O197 Zn198 1.899 . S
O197 C205 1.284 . S
Zn198 O197 1.899 . S
Zn198 O199 2.032 . S
Zn198 O202 2.086 . S
Zn198 O207 1.977 . S
O199 Zn198 2.032 . S
O199 C203 1.278 . S
C200 O201 1.203 . S
C200 O207 1.267 . S
O201 C200 1.203 . S
O202 C195 1.185 . S
O202 Zn198 2.086 . S
C203 O199 1.278 . S
C203 O204 1.211 . S
O204 C203 1.211 . S
C205 O197 1.284 . S
C205 O206 1.273 . S
O206 C205 1.273 . S
O207 Zn198 1.977 . S
O207 C200 1.267 . S
C208 O209 1.160 . S
C208 O215 1.185 . S
O209 C208 1.160 . S
O210 Zn211 1.899 . S
O210 C218 1.284 . S
Zn211 O210 1.899 . S
Zn211 O212 2.032 . S
Zn211 O215 2.086 . S
Zn211 O220 1.977 . S
O212 Zn211 2.032 . S
O212 C216 1.278 . S
C213 O214 1.194 1_545 S
C213 O220 1.267 . S
O214 C213 1.194 1_565 S
O215 C208 1.185 . S
O215 Zn211 2.086 . S
C216 O212 1.278 . S
C216 O217 1.211 . S
O217 C216 1.211 . S
C218 O210 1.284 . S
C218 O219 1.291 . S
O219 C218 1.291 . S
O220 Zn211 1.977 . S
O220 C213 1.267 . S
C221 O222 1.160 . S
C221 O228 1.185 . S
O222 C221 1.160 . S
O223 Zn224 1.899 . S
O223 C231 1.284 . S
Zn224 O223 1.899 . S
Zn224 O225 2.032 . S
Zn224 O228 2.086 . S
Zn224 O233 1.977 . S
O225 Zn224 2.032 . S
O225 C229 1.278 . S
C226 O227 1.203 . S
C226 O233 1.267 . S
O227 C226 1.203 . S
O228 C221 1.185 . S
O228 Zn224 2.086 . S
C229 O225 1.278 . S
C229 O230 1.211 . S
O230 C229 1.211 . S
C231 O223 1.284 . S
C231 O232 1.273 . S
O232 C231 1.273 . S
O233 Zn224 1.977 . S
O233 C226 1.267 . S
C234 O235 1.160 . S
C234 O241 1.185 . S
O235 C234 1.160 . S
O236 Zn237 1.899 . S
O236 C244 1.284 . S
Zn237 O236 1.899 . S
Zn237 O238 2.032 . S
Zn237 O241 2.086 . S
Zn237 O246 1.977 . S
O238 Zn237 2.032 . S
O238 C242 1.278 . S
C239 O240 1.203 . S
C239 O246 1.267 . S
O240 C239 1.203 . S
O241 C234 1.185 . S
O241 Zn237 2.086 . S
C242 O238 1.278 . S
C242 O243 1.211 . S
O243 C242 1.211 . S
C244 O236 1.284 . S
C244 O245 1.273 . S
O245 C244 1.273 . S
O246 Zn237 1.977 . S
O246 C239 1.267 . S
C247 O248 1.160 . S
C247 O254 1.185 . S
O248 C247 1.160 . S
O249 Zn250 1.899 . S
O249 C257 1.284 . S
Zn250 O249 1.899 . S
Zn250 O251 2.032 . S
Zn250 O254 2.086 . S
Zn250 O259 1.977 . S
O251 Zn250 2.032 . S
O251 C255 1.278 . S
C252 O253 1.203 . S
C252 O259 1.267 . S
O253 C252 1.203 . S
O254 C247 1.185 . S
O254 Zn250 2.086 . S
C255 O251 1.278 . S
C255 O256 1.211 . S
O256 C255 1.211 . S
C257 O249 1.284 . S
C257 O258 1.273 . S
O258 C257 1.273 . S
O259 Zn250 1.977 . S
O259 C252 1.267 . S
C260 O261 1.160 . S
C260 O267 1.185 . S
O261 C260 1.160 . S
O262 Zn263 1.899 . S
O262 C270 1.284 . S
Zn263 O262 1.899 . S
Zn263 O264 2.032 1_554 S
Zn263 O267 2.086 . S
Zn263 O272 1.978 . S
O264 Zn263 2.032 1_556 S
O264 C268 1.278 . S
C265 O266 1.203 . S
C265 O272 1.270 . S
O266 C265 1.203 . S
O267 C260 1.185 . S
O267 Zn263 2.086 . S
C268 O264 1.278 . S
C268 O269 1.211 . S
O269 C268 1.211 . S
C270 O262 1.284 . S
C270 O271 1.273 . S
O271 C270 1.273 . S
O272 Zn263 1.978 . S
O272 C265 1.270 . S
C273 O274 1.160 . S
C273 O280 1.185 . S
O274 C273 1.160 . S
O275 Zn276 1.899 . S
O275 C283 1.284 . S
Zn276 O275 1.899 . S
Zn276 O277 2.032 . S
Zn276 O280 2.086 . S
Zn276 O285 1.977 . S
O277 Zn276 2.032 . S
O277 C281 1.278 . S
C278 O279 1.203 . S
C278 O285 1.267 . S
O279 C278 1.203 . S
O280 C273 1.185 . S
O280 Zn276 2.086 . S
C281 O277 1.278 . S
C281 O282 1.211 . S
O282 C281 1.211 . S
C283 O275 1.284 . S
C283 O284 1.273 . S
O284 C283 1.273 . S
O285 Zn276 1.977 . S
O285 C278 1.267 . S
C286 O287 1.160 . S
C286 O293 1.185 . S
O287 C286 1.160 . S
O288 Zn289 1.899 . S
O288 C296 1.284 . S
Zn289 O288 1.899 . S
Zn289 O290 2.032 . S
Zn289 O293 2.086 . S
Zn289 O298 1.977 . S
O290 Zn289 2.032 . S
O290 C294 1.278 . S
C291 O292 1.203 . S
C291 O298 1.267 . S
O292 C291 1.203 . S
O293 C286 1.185 . S
O293 Zn289 2.086 . S
C294 O290 1.278 . S
C294 O295 1.211 . S
O295 C294 1.211 . S
C296 O288 1.284 . S
C296 O297 1.273 . S
O297 C296 1.273 . S
O298 Zn289 1.977 . S
O298 C291 1.267 . S
C299 O300 1.160 . S
C299 O306 1.185 . S
O300 C299 1.160 . S
O301 Zn302 1.899 . S
O301 C309 1.284 . S
Zn302 O301 1.899 . S
Zn302 O303 2.032 . S
Zn302 O306 2.086 . S
Zn302 O311 1.977 . S
O303 Zn302 2.032 . S
O303 C307 1.278 . S
C304 O305 1.203 . S
C304 O311 1.267 . S
O305 C304 1.203 . S
O306 C299 1.185 . S
O306 Zn302 2.086 . S
C307 O303 1.278 . S
C307 O308 1.211 . S
O308 C307 1.211 . S
C309 O301 1.284 . S
C309 O310 1.273 . S
O310 C309 1.273 . S
O311 Zn302 1.977 . S
O311 C304 1.267 . S
Eu312 C321 2.828 . S
Eu312 O323 2.392 . S
Eu312 O325 2.418 . S
Eu312 O330 2.373 . S
Eu312 O333 2.488 . S
Eu312 O334 2.471 1_554 S
Eu312 O335 2.349 1_554 S
Eu313 O322 2.373 1_565 S
Eu313 O326 2.488 1_554 S
Eu313 O327 2.471 . S
Eu313 O328 2.349 1_565 S
Eu313 O331 2.392 1_564 S
Eu313 O332 2.418 1_554 S
Eu313 C342 2.828 . S
C314 O332 1.244 1_545 S
C314 O335 1.265 . S
C315 C316 1.379 1_554 S
C315 C319 1.373 . S
C315 C321 1.505 . S
C316 C315 1.379 1_556 S
C316 C318 1.369 . S
C316 H344 0.930 . S
C317 C319 1.383 . S
C317 C320 1.382 1_554 S
C317 H345 0.930 . S
C318 C316 1.369 . S
C318 C320 1.392 . S
C318 H346 0.930 . S
C319 C315 1.373 . S
C319 C317 1.383 . S
C319 H347 0.931 . S
C320 C317 1.382 1_556 S
C320 C318 1.392 . S
C321 Eu312 2.828 . S
C321 C315 1.505 . S
C321 O333 1.249 . S
C321 O334 1.244 1_554 S
O322 Eu313 2.373 1_545 S
O322 C324 1.258 . S
O323 Eu312 2.392 . S
O323 C324 1.242 . S
C324 O322 1.258 . S
C324 O323 1.242 . S
O325 Eu312 2.418 . S
O325 C329 1.244 . S
O326 Eu313 2.488 1_556 S
O326 C342 1.249 1_556 S
O327 Eu313 2.471 . S
O327 C342 1.244 . S
O328 Eu313 2.349 1_545 S
O328 C329 1.265 . S
C329 O325 1.244 . S
C329 O328 1.265 . S
O330 Eu312 2.373 . S
O330 C343 1.258 . S
O331 Eu313 2.392 1_546 S
O331 C343 1.242 1_556 S
O332 Eu313 2.418 1_556 S
O332 C314 1.244 1_565 S
O333 Eu312 2.488 . S
O333 C321 1.249 . S
O334 Eu312 2.471 1_556 S
O334 C321 1.244 1_556 S
O335 Eu312 2.349 1_556 S
O335 C314 1.265 . S
C336 C337 1.379 . S
C336 C340 1.373 . S
C336 C342 1.505 . S
C337 C336 1.379 . S
C337 C339 1.369 . S
C337 H348 0.930 . S
C338 C340 1.383 . S
C338 C341 1.382 . S
C338 H349 0.930 1_554 S
C339 C337 1.369 . S
C339 C341 1.392 . S
C339 H350 0.930 . S
C340 C336 1.373 . S
C340 C338 1.383 . S
C340 H351 0.931 1_554 S
C341 C338 1.382 . S
C341 C339 1.392 . S
C342 Eu313 2.828 . S
C342 O326 1.249 1_554 S
C342 O327 1.244 . S
C342 C336 1.505 . S
C343 O330 1.258 . S
C343 O331 1.242 1_554 S
H344 C316 0.930 . S
H345 C317 0.930 . S
H346 C318 0.930 . S
H347 C319 0.931 . S
H348 C337 0.930 . S
H349 C338 0.930 1_556 S
H350 C339 0.930 . S
H351 C340 0.931 1_556 S
Eu352 C361 2.828 . S
Eu352 O363 2.392 . S
Eu352 O365 2.418 . S
Eu352 O370 2.373 . S
Eu352 O373 2.488 . S
Eu352 O374 2.471 . S
Eu352 O375 2.349 . S
Eu353 O362 2.373 . S
Eu353 O366 2.488 . S
Eu353 O367 2.471 . S
Eu353 O368 2.349 . S
Eu353 O371 2.392 . S
Eu353 O372 2.418 . S
Eu353 C382 2.828 . S
C354 O372 1.244 . S
C354 O375 1.265 . S
C355 C356 1.379 . S
C355 C359 1.373 . S
C355 C361 1.505 . S
C356 C355 1.379 . S
C356 C358 1.369 . S
C356 H384 0.930 . S
C357 C359 1.383 . S
C357 C360 1.382 . S
C357 H385 0.930 . S
C358 C356 1.369 . S
C358 C360 1.392 . S
C358 H386 0.930 . S
C359 C355 1.373 . S
C359 C357 1.383 . S
C359 H387 0.931 . S
C360 C357 1.382 . S
C360 C358 1.392 . S
C361 Eu352 2.828 . S
C361 C355 1.505 . S
C361 O373 1.249 . S
C361 O374 1.244 . S
O362 Eu353 2.373 . S
O362 C364 1.258 . S
O363 Eu352 2.392 . S
O363 C364 1.242 . S
C364 O362 1.258 . S
C364 O363 1.242 . S
O365 Eu352 2.418 . S
O365 C369 1.244 . S
O366 Eu353 2.488 . S
O366 C382 1.249 . S
O367 Eu353 2.471 . S
O367 C382 1.244 . S
O368 Eu353 2.349 . S
O368 C369 1.265 . S
C369 O365 1.244 . S
C369 O368 1.265 . S
O370 Eu352 2.373 . S
O370 C383 1.258 . S
O371 Eu353 2.392 . S
O371 C383 1.242 . S
O372 Eu353 2.418 . S
O372 C354 1.244 . S
O373 Eu352 2.488 . S
O373 C361 1.249 . S
O374 Eu352 2.471 . S
O374 C361 1.244 . S
O375 Eu352 2.349 . S
O375 C354 1.265 . S
C376 C377 1.379 . S
C376 C380 1.373 . S
C376 C382 1.505 . S
C377 C376 1.379 . S
C377 C379 1.369 . S
C377 H388 0.930 . S
C378 C380 1.383 . S
C378 C381 1.382 . S
C378 H389 0.930 . S
C379 C377 1.369 . S
C379 C381 1.392 . S
C379 H390 0.930 . S
C380 C376 1.373 . S
C380 C378 1.383 . S
C380 H391 0.931 . S
C381 C378 1.382 . S
C381 C379 1.392 . S
C382 Eu353 2.828 . S
C382 O366 1.249 . S
C382 O367 1.244 . S
C382 C376 1.505 . S
C383 O370 1.258 . S
C383 O371 1.242 . S
H384 C356 0.930 . S
H385 C357 0.930 . S
H386 C358 0.930 . S
H387 C359 0.931 . S
H388 C377 0.930 . S
H389 C378 0.930 . S
H390 C379 0.930 . S
H391 C380 0.931 . S
Eu392 C401 2.828 . S
Eu392 O403 2.392 . S
Eu392 O405 2.418 . S
Eu392 O410 2.350 1_545 S
Eu392 O413 2.488 . S
Eu392 O414 2.471 . S
Eu392 O415 2.349 . S
Eu393 O402 2.373 . S
Eu393 O406 2.488 . S
Eu393 O407 2.471 . S
Eu393 O408 2.349 . S
Eu393 O411 2.392 1_545 S
Eu393 O412 2.418 . S
Eu393 C422 2.828 . S
C394 O412 1.244 . S
C394 O415 1.265 . S
C395 C396 1.379 . S
C395 C399 1.373 . S
C395 C401 1.505 1_565 S
C396 C395 1.379 . S
C396 C398 1.369 . S
C396 H424 0.930 . S
C397 C399 1.383 . S
C397 C400 1.382 . S
C397 H425 0.930 . S
C398 C396 1.369 . S
C398 C400 1.392 . S
C398 H426 0.930 . S
C399 C395 1.373 . S
C399 C397 1.383 . S
C399 H427 0.918 1_565 S
C400 C397 1.382 . S
C400 C398 1.392 . S
C401 Eu392 2.828 . S
C401 C395 1.505 1_545 S
C401 O413 1.249 . S
C401 O414 1.244 . S
O402 Eu393 2.373 . S
O402 C404 1.258 . S
O403 Eu392 2.392 . S
O403 C404 1.242 . S
C404 O402 1.258 . S
C404 O403 1.242 . S
O405 Eu392 2.418 . S
O405 C409 1.244 . S
O406 Eu393 2.488 . S
O406 C422 1.249 . S
O407 Eu393 2.471 . S
O407 C422 1.244 . S
O408 Eu393 2.349 . S
O408 C409 1.265 . S
C409 O405 1.244 . S
C409 O408 1.265 . S
O410 Eu392 2.350 1_565 S
O410 C423 1.272 . S
O411 Eu393 2.392 1_565 S
O411 C423 1.242 . S
O412 Eu393 2.418 . S
O412 C394 1.244 . S
O413 Eu392 2.488 . S
O413 C401 1.249 . S
O414 Eu392 2.471 . S
O414 C401 1.244 . S
O415 Eu392 2.349 . S
O415 C394 1.265 . S
C416 C417 1.379 . S
C416 C420 1.373 . S
C416 C422 1.505 . S
C417 C416 1.379 . S
C417 C419 1.369 . S
C417 H428 0.930 . S
C418 C420 1.383 . S
C418 C421 1.382 . S
C418 H429 0.930 . S
C419 C417 1.369 . S
C419 C421 1.392 . S
C419 H430 0.930 . S
C420 C416 1.373 . S
C420 C418 1.383 . S
C420 H431 0.931 . S
C421 C418 1.382 . S
C421 C419 1.392 . S
C422 Eu393 2.828 . S
C422 O406 1.249 . S
C422 O407 1.244 . S
C422 C416 1.505 . S
C423 O410 1.272 . S
C423 O411 1.242 . S
H424 C396 0.930 . S
H425 C397 0.930 . S
H426 C398 0.930 . S
H427 C399 0.918 1_545 S
H428 C417 0.930 . S
H429 C418 0.930 . S
H430 C419 0.930 . S
H431 C420 0.931 . S
Eu432 C441 2.828 . S
Eu432 O443 2.392 . S
Eu432 O445 2.418 . S
Eu432 O450 2.373 . S
Eu432 O453 2.488 . S
Eu432 O454 2.471 . S
Eu432 O455 2.349 . S
Eu433 O442 2.373 . S
Eu433 O446 2.488 . S
Eu433 O447 2.471 . S
Eu433 O448 2.349 . S
Eu433 O451 2.392 . S
Eu433 O452 2.418 . S
Eu433 C462 2.828 . S
C434 O452 1.244 . S
C434 O455 1.265 . S
C435 C436 1.379 . S
C435 C439 1.373 . S
C435 C441 1.505 . S
C436 C435 1.379 . S
C436 C438 1.369 . S
C436 H464 0.930 . S
C437 C439 1.383 . S
C437 C440 1.382 . S
C437 H465 0.930 . S
C438 C436 1.369 . S
C438 C440 1.392 . S
C438 H466 0.930 . S
C439 C435 1.373 . S
C439 C437 1.383 . S
C439 H467 0.931 . S
C440 C437 1.382 . S
C440 C438 1.392 . S
C441 Eu432 2.828 . S
C441 C435 1.505 . S
C441 O453 1.249 . S
C441 O454 1.244 . S
O442 Eu433 2.373 . S
O442 C444 1.258 . S
O443 Eu432 2.392 . S
O443 C444 1.242 . S
C444 O442 1.258 . S
C444 O443 1.242 . S
O445 Eu432 2.418 . S
O445 C449 1.244 . S
O446 Eu433 2.488 . S
O446 C462 1.249 . S
O447 Eu433 2.471 . S
O447 C462 1.244 . S
O448 Eu433 2.349 . S
O448 C449 1.265 . S
C449 O445 1.244 . S
C449 O448 1.265 . S
O450 Eu432 2.373 . S
O450 C463 1.258 . S
O451 Eu433 2.392 . S
O451 C463 1.242 . S
O452 Eu433 2.418 . S
O452 C434 1.244 . S
O453 Eu432 2.488 . S
O453 C441 1.249 . S
O454 Eu432 2.471 . S
O454 C441 1.244 . S
O455 Eu432 2.349 . S
O455 C434 1.265 . S
C456 C457 1.379 . S
C456 C460 1.373 . S
C456 C462 1.505 . S
C457 C456 1.379 . S
C457 C459 1.369 . S
C457 H468 0.930 . S
C458 C460 1.383 . S
C458 C461 1.382 . S
C458 H469 0.930 . S
C459 C457 1.369 . S
C459 C461 1.392 . S
C459 H470 0.930 . S
C460 C456 1.373 . S
C460 C458 1.383 . S
C460 H471 0.931 . S
C461 C458 1.382 . S
C461 C459 1.392 . S
C462 Eu433 2.828 . S
C462 O446 1.249 . S
C462 O447 1.244 . S
C462 C456 1.505 . S
C463 O450 1.258 . S
C463 O451 1.242 . S
H464 C436 0.930 . S
H465 C437 0.930 . S
H466 C438 0.930 . S
H467 C439 0.931 . S
H468 C457 0.930 . S
H469 C458 0.930 . S
H470 C459 0.930 . S
H471 C460 0.931 . S
Eu472 C481 2.828 . S
Eu472 O483 2.392 . S
Eu472 O485 2.418 . S
Eu472 O490 2.373 . S
Eu472 O493 2.488 . S
Eu472 O494 2.471 . S
Eu472 O495 2.349 . S
Eu473 O482 2.373 . S
Eu473 O486 2.488 1_545 S
Eu473 O487 2.471 1_545 S
Eu473 O488 2.349 . S
Eu473 O491 2.392 . S
Eu473 O492 2.418 . S
Eu473 C502 2.828 1_545 S
C474 O492 1.244 . S
C474 O495 1.265 . S
C475 C476 1.379 . S
C475 C479 1.373 . S
C475 C481 1.505 . S
C476 C475 1.379 . S
C476 C478 1.369 . S
C476 H504 0.930 . S
C477 C479 1.383 . S
C477 C480 1.382 . S
C477 H505 0.930 . S
C478 C476 1.369 . S
C478 C480 1.392 . S
C478 H506 0.930 . S
C479 C475 1.373 . S
C479 C477 1.383 . S
C479 H507 0.931 . S
C480 C477 1.382 . S
C480 C478 1.392 . S
C481 Eu472 2.828 . S
C481 C475 1.505 . S
C481 O493 1.249 . S
C481 O494 1.244 . S
O482 Eu473 2.373 . S
O482 C484 1.258 . S
O483 Eu472 2.392 . S
O483 C484 1.242 . S
C484 O482 1.258 . S
C484 O483 1.242 . S
O485 Eu472 2.418 . S
O485 C489 1.244 . S
O486 Eu473 2.488 1_565 S
O486 C502 1.249 . S
O487 Eu473 2.471 1_565 S
O487 C502 1.244 . S
O488 Eu473 2.349 . S
O488 C489 1.265 . S
C489 O485 1.244 . S
C489 O488 1.265 . S
O490 Eu472 2.373 . S
O490 C503 1.258 . S
O491 Eu473 2.392 . S
O491 C503 1.242 . S
O492 Eu473 2.418 . S
O492 C474 1.244 . S
O493 Eu472 2.488 . S
O493 C481 1.249 . S
O494 Eu472 2.471 . S
O494 C481 1.244 . S
O495 Eu472 2.349 . S
O495 C474 1.265 . S
C496 C497 1.379 . S
C496 C500 1.373 . S
C496 C502 1.505 . S
C497 C496 1.379 . S
C497 C499 1.369 . S
C497 H508 0.930 . S
C498 C500 1.383 . S
C498 C501 1.382 . S
C498 H509 0.930 . S
C499 C497 1.369 . S
C499 C501 1.392 . S
C499 H510 0.930 . S
C500 C496 1.373 . S
C500 C498 1.383 . S
C500 H511 0.931 . S
C501 C498 1.382 . S
C501 C499 1.392 . S
C502 Eu473 2.828 1_565 S
C502 O486 1.249 . S
C502 O487 1.244 . S
C502 C496 1.505 . S
C503 O490 1.258 . S
C503 O491 1.242 . S
H504 C476 0.930 . S
H505 C477 0.930 . S
H506 C478 0.930 . S
H507 C479 0.931 . S
H508 C497 0.930 . S
H509 C498 0.930 . S
H510 C499 0.930 . S
H511 C500 0.931 . S
Eu512 C521 2.828 . S
Eu512 O523 2.392 . S
Eu512 O525 2.418 . S
Eu512 O530 2.373 . S
Eu512 O533 2.488 . S
Eu512 O534 2.471 . S
Eu512 O535 2.349 . S
Eu513 O522 2.373 . S
Eu513 O526 2.488 . S
Eu513 O527 2.471 . S
Eu513 O528 2.349 . S
Eu513 O531 2.392 . S
Eu513 O532 2.418 . S
Eu513 C542 2.828 . S
C514 O532 1.244 . S
C514 O535 1.265 . S
C515 C516 1.379 . S
C515 C519 1.373 . S
C515 C521 1.505 . S
C516 C515 1.379 . S
C516 C518 1.369 . S
C516 H544 0.930 . S
C517 C519 1.383 . S
C517 C520 1.382 . S
C517 H545 0.930 . S
C518 C516 1.369 . S
C518 C520 1.392 . S
C518 H546 0.930 . S
C519 C515 1.373 . S
C519 C517 1.383 . S
C519 H547 0.931 . S
C520 C517 1.382 . S
C520 C518 1.392 . S
C521 Eu512 2.828 . S
C521 C515 1.505 . S
C521 O533 1.249 . S
C521 O534 1.244 . S
O522 Eu513 2.373 . S
O522 C524 1.258 . S
O523 Eu512 2.392 . S
O523 C524 1.242 . S
C524 O522 1.258 . S
C524 O523 1.242 . S
O525 Eu512 2.418 . S
O525 C529 1.244 . S
O526 Eu513 2.488 . S
O526 C542 1.249 . S
O527 Eu513 2.471 . S
O527 C542 1.244 . S
O528 Eu513 2.349 . S
O528 C529 1.265 . S
C529 O525 1.244 . S
C529 O528 1.265 . S
O530 Eu512 2.373 . S
O530 C543 1.258 . S
O531 Eu513 2.392 . S
O531 C543 1.242 . S
O532 Eu513 2.418 . S
O532 C514 1.244 . S
O533 Eu512 2.488 . S
O533 C521 1.249 . S
O534 Eu512 2.471 . S
O534 C521 1.244 . S
O535 Eu512 2.349 . S
O535 C514 1.265 . S
C536 C537 1.379 . S
C536 C540 1.373 . S
C536 C542 1.505 . S
C537 C536 1.379 . S
C537 C539 1.369 . S
C537 H548 0.930 . S
C538 C540 1.383 . S
C538 C541 1.382 . S
C538 H549 0.930 . S
C539 C537 1.369 . S
C539 C541 1.392 . S
C539 H550 0.930 . S
C540 C536 1.373 . S
C540 C538 1.383 . S
C540 H551 0.931 . S
C541 C538 1.382 . S
C541 C539 1.392 . S
C542 Eu513 2.828 . S
C542 O526 1.249 . S
C542 O527 1.244 . S
C542 C536 1.505 . S
C543 O530 1.258 . S
C543 O531 1.242 . S
H544 C516 0.930 . S
H545 C517 0.930 . S
H546 C518 0.930 . S
H547 C519 0.931 . S
H548 C537 0.930 . S
H549 C538 0.930 . S
H550 C539 0.930 . S
H551 C540 0.931 . S
Eu552 C561 2.828 . S
Eu552 O563 2.392 . S
Eu552 O565 2.418 1_545 S
Eu552 O570 2.373 . S
Eu552 O573 2.488 1_545 S
Eu552 O574 2.471 . S
Eu552 O575 2.349 . S
Eu553 O562 2.373 1_556 S
Eu553 O566 2.488 . S
Eu553 O567 2.471 . S
Eu553 O568 2.349 . S
Eu553 O571 2.392 . S
Eu553 O572 2.418 1_556 S
Eu553 C582 2.828 . S
C554 O572 1.244 . S
C554 O575 1.265 . S
C555 C556 1.379 . S
C555 C559 1.373 1_545 S
C555 C561 1.505 . S
C556 C555 1.379 . S
C556 C558 1.369 . S
C556 H584 0.930 . S
C557 C559 1.383 . S
C557 C560 1.382 . S
C557 H585 0.930 . S
C558 C556 1.369 . S
C558 C560 1.392 1_545 S
C558 H586 0.930 . S
C559 C555 1.373 1_565 S
C559 C557 1.383 . S
C559 H587 0.931 . S
C560 C557 1.382 . S
C560 C558 1.392 1_565 S
C561 Eu552 2.828 . S
C561 C555 1.505 . S
C561 O573 1.249 1_545 S
C561 O574 1.244 . S
O562 Eu553 2.373 1_554 S
O562 C564 1.258 . S
O563 Eu552 2.392 . S
O563 C564 1.242 . S
C564 O562 1.258 . S
C564 O563 1.242 . S
O565 Eu552 2.418 1_565 S
O565 C569 1.244 . S
O566 Eu553 2.488 . S
O566 C582 1.249 . S
O567 Eu553 2.471 . S
O567 C582 1.244 . S
O568 Eu553 2.349 . S
O568 C569 1.265 1_546 S
C569 O565 1.244 . S
C569 O568 1.265 1_564 S
O570 Eu552 2.373 . S
O570 C583 1.258 . S
O571 Eu553 2.392 . S
O571 C583 1.242 1_556 S
O572 Eu553 2.418 1_554 S
O572 C554 1.244 . S
O573 Eu552 2.488 1_565 S
O573 C561 1.249 1_565 S
O574 Eu552 2.471 . S
O574 C561 1.244 . S
O575 Eu552 2.349 . S
O575 C554 1.265 . S
C576 C577 1.379 . S
C576 C580 1.373 . S
C576 C582 1.505 . S
C577 C576 1.379 . S
C577 C579 1.369 . S
C577 H588 0.930 . S
C578 C580 1.383 . S
C578 C581 1.382 . S
C578 H589 0.930 . S
C579 C577 1.369 . S
C579 C581 1.392 . S
C579 H590 0.930 . S
C580 C576 1.373 . S
C580 C578 1.383 . S
C580 H591 0.931 . S
C581 C578 1.382 . S
C581 C579 1.392 . S
C582 Eu553 2.828 . S
C582 O566 1.249 . S
C582 O567 1.244 . S
C582 C576 1.505 . S
C583 O570 1.258 . S
C583 O571 1.242 1_554 S
H584 C556 0.930 . S
H585 C557 0.930 . S
H586 C558 0.930 . S
H587 C559 0.931 . S
H588 C577 0.930 . S
H589 C578 0.930 . S
H590 C579 0.930 . S
H591 C580 0.931 . S
Eu592 C601 2.828 . S
Eu592 O603 2.392 . S
Eu592 O605 2.418 . S
Eu592 O610 2.373 . S
Eu592 O613 2.488 . S
Eu592 O614 2.471 . S
Eu592 O615 2.349 . S
Eu593 O602 2.373 . S
Eu593 O606 2.488 . S
Eu593 O607 2.471 . S
Eu593 O608 2.349 . S
Eu593 O611 2.392 . S
Eu593 O612 2.418 . S
Eu593 C622 2.828 . S
C594 O612 1.244 . S
C594 O615 1.265 . S
C595 C596 1.379 . S
C595 C599 1.373 . S
C595 C601 1.505 . S
C596 C595 1.379 . S
C596 C598 1.369 . S
C596 H624 0.930 . S
C597 C599 1.383 . S
C597 C600 1.382 . S
C597 H625 0.930 . S
C598 C596 1.369 . S
C598 C600 1.392 . S
C598 H626 0.930 . S
C599 C595 1.373 . S
C599 C597 1.383 . S
C599 H627 0.931 . S
C600 C597 1.382 . S
C600 C598 1.392 . S
C601 Eu592 2.828 . S
C601 C595 1.505 . S
C601 O613 1.249 . S
C601 O614 1.244 . S
O602 Eu593 2.373 . S
O602 C604 1.258 . S
O603 Eu592 2.392 . S
O603 C604 1.242 . S
C604 O602 1.258 . S
C604 O603 1.242 . S
O605 Eu592 2.418 . S
O605 C609 1.244 . S
O606 Eu593 2.488 . S
O606 C622 1.249 . S
O607 Eu593 2.471 . S
O607 C622 1.244 . S
O608 Eu593 2.349 . S
O608 C609 1.265 . S
C609 O605 1.244 . S
C609 O608 1.265 . S
O610 Eu592 2.373 . S
O610 C623 1.258 . S
O611 Eu593 2.392 . S
O611 C623 1.242 . S
O612 Eu593 2.418 . S
O612 C594 1.244 . S
O613 Eu592 2.488 . S
O613 C601 1.249 . S
O614 Eu592 2.471 . S
O614 C601 1.244 . S
O615 Eu592 2.349 . S
O615 C594 1.265 . S
C616 C617 1.379 . S
C616 C620 1.373 . S
C616 C622 1.505 . S
C617 C616 1.379 . S
C617 C619 1.369 . S
C617 H628 0.930 . S
C618 C620 1.383 . S
C618 C621 1.382 . S
C618 H629 0.930 . S
C619 C617 1.369 . S
C619 C621 1.392 . S
C619 H630 0.930 . S
C620 C616 1.373 . S
C620 C618 1.383 . S
C620 H631 0.931 . S
C621 C618 1.382 . S
C621 C619 1.392 . S
C622 Eu593 2.828 . S
C622 O606 1.249 . S
C622 O607 1.244 . S
C622 C616 1.505 . S
C623 O610 1.258 . S
C623 O611 1.242 . S
H624 C596 0.930 . S
H625 C597 0.930 . S
H626 C598 0.930 . S
H627 C599 0.931 . S
H628 C617 0.930 . S
H629 C618 0.930 . S
H630 C619 0.930 . S
H631 C620 0.931 . S
Eu632 C641 2.828 . S
Eu632 O643 2.392 . S
Eu632 O645 2.418 . S
Eu632 O650 2.373 1_554 S
Eu632 O653 2.488 . S
Eu632 O654 2.471 . S
Eu632 O655 2.349 . S
Eu633 O642 2.373 . S
Eu633 O646 2.488 . S
Eu633 O647 2.471 . S
Eu633 O648 2.349 . S
Eu633 O651 2.392 1_554 S
Eu633 O652 2.418 . S
Eu633 C662 2.828 . S
C634 O652 1.244 . S
C634 O655 1.265 . S
C635 C636 1.379 1_554 S
C635 C639 1.373 . S
C635 C641 1.505 . S
C636 C635 1.379 1_556 S
C636 C638 1.369 . S
C636 H664 0.930 . S
C637 C639 1.394 . S
C637 C640 1.369 1_554 S
C637 H665 0.933 . S
C638 C636 1.369 . S
C638 C640 1.392 . S
C638 H666 0.930 . S
C639 C635 1.373 . S
C639 C637 1.394 . S
C639 H667 0.931 . S
C640 C637 1.369 1_556 S
C640 C638 1.392 . S
C641 Eu632 2.828 . S
C641 C635 1.505 . S
C641 O653 1.249 . S
C641 O654 1.244 . S
O642 Eu633 2.373 . S
O642 C644 1.258 . S
O643 Eu632 2.392 . S
O643 C644 1.242 . S
C644 O642 1.258 . S
C644 O643 1.242 . S
O645 Eu632 2.418 . S
O645 C649 1.244 . S
O646 Eu633 2.488 . S
O646 C662 1.249 . S
O647 Eu633 2.471 . S
O647 C662 1.244 . S
O648 Eu633 2.349 . S
O648 C649 1.265 . S
C649 O645 1.244 . S
C649 O648 1.265 . S
O650 Eu632 2.373 1_556 S
O650 C663 1.258 . S
O651 Eu633 2.392 1_556 S
O651 C663 1.242 . S
O652 Eu633 2.418 . S
O652 C634 1.244 . S
O653 Eu632 2.488 . S
O653 C641 1.249 . S
O654 Eu632 2.471 . S
O654 C641 1.244 . S
O655 Eu632 2.349 . S
O655 C634 1.265 . S
C656 C657 1.379 . S
C656 C660 1.373 . S
C656 C662 1.505 . S
C657 C656 1.379 . S
C657 C659 1.369 . S
C657 H668 0.930 . S
C658 C660 1.383 . S
C658 C661 1.382 . S
C658 H669 0.930 . S
C659 C657 1.369 . S
C659 C661 1.392 . S
C659 H670 0.930 . S
C660 C656 1.373 . S
C660 C658 1.383 . S
C660 H671 0.931 . S
C661 C658 1.382 . S
C661 C659 1.392 . S
C662 Eu633 2.828 . S
C662 O646 1.249 . S
C662 O647 1.244 . S
C662 C656 1.505 . S
C663 O650 1.258 . S
C663 O651 1.242 . S
H664 C636 0.930 . S
H665 C637 0.933 . S
H666 C638 0.930 . S
H667 C639 0.931 . S
H668 C657 0.930 . S
H669 C658 0.930 . S
H670 C659 0.930 . S
H671 C660 0.931 . S
Eu672 C681 2.828 . S
Eu672 O683 2.392 . S
Eu672 O685 2.418 . S
Eu672 O690 2.373 . S
Eu672 O693 2.488 . S
Eu672 O694 2.471 . S
Eu672 O695 2.349 . S
Eu673 O682 2.373 . S
Eu673 O686 2.488 . S
Eu673 O687 2.471 . S
Eu673 O688 2.349 . S
Eu673 O691 2.392 . S
Eu673 O692 2.418 . S
Eu673 C702 2.828 . S
C674 O692 1.244 . S
C674 O695 1.265 . S
C675 C676 1.379 . S
C675 C679 1.373 . S
C675 C681 1.505 . S
C676 C675 1.379 . S
C676 C678 1.369 . S
C676 H704 0.930 . S
C677 C679 1.383 . S
C677 C680 1.382 . S
C677 H705 0.930 1_655 S
C678 C676 1.369 . S
C678 C680 1.392 . S
C678 H706 0.930 . S
C679 C675 1.373 . S
C679 C677 1.383 . S
C679 H707 0.931 . S
C680 C677 1.382 . S
C680 C678 1.392 . S
C681 Eu672 2.828 . S
C681 C675 1.505 . S
C681 O693 1.249 . S
C681 O694 1.244 . S
O682 Eu673 2.373 . S
O682 C684 1.258 . S
O683 Eu672 2.392 . S
O683 C684 1.242 . S
C684 O682 1.258 . S
C684 O683 1.242 . S
O685 Eu672 2.418 . S
O685 C689 1.244 . S
O686 Eu673 2.488 . S
O686 C702 1.249 . S
O687 Eu673 2.471 . S
O687 C702 1.244 . S
O688 Eu673 2.349 . S
O688 C689 1.265 . S
C689 O685 1.244 . S
C689 O688 1.265 . S
O690 Eu672 2.373 . S
O690 C703 1.258 . S
O691 Eu673 2.392 . S
O691 C703 1.242 . S
O692 Eu673 2.418 . S
O692 C674 1.244 . S
O693 Eu672 2.488 . S
O693 C681 1.249 . S
O694 Eu672 2.471 . S
O694 C681 1.244 . S
O695 Eu672 2.349 . S
O695 C674 1.265 . S
C696 C697 1.379 . S
C696 C700 1.373 . S
C696 C702 1.505 . S
C697 C696 1.379 . S
C697 C699 1.369 . S
C697 H708 0.930 . S
C698 C700 1.383 . S
C698 C701 1.382 . S
C698 H709 0.930 . S
C699 C697 1.369 . S
C699 C701 1.392 . S
C699 H710 0.930 . S
C700 C696 1.373 . S
C700 C698 1.383 . S
C700 H711 0.931 . S
C701 C698 1.382 . S
C701 C699 1.392 . S
C702 Eu673 2.828 . S
C702 O686 1.249 . S
C702 O687 1.244 . S
C702 C696 1.505 . S
C703 O690 1.258 . S
C703 O691 1.242 . S
H704 C676 0.930 . S
H705 C677 0.930 1_455 S
H706 C678 0.930 . S
H707 C679 0.931 . S
H708 C697 0.930 . S
H709 C698 0.930 . S
H710 C699 0.930 . S
H711 C700 0.931 . S
Eu712 C721 2.828 . S
Eu712 O723 2.392 . S
Eu712 O725 2.418 . S
Eu712 O730 2.373 . S
Eu712 O733 2.488 . S
Eu712 O734 2.471 . S
Eu712 O735 2.349 . S
Eu713 O722 2.373 . S
Eu713 O726 2.488 . S
Eu713 O727 2.471 . S
Eu713 O728 2.349 . S
Eu713 O731 2.392 . S
Eu713 O732 2.418 . S
Eu713 C742 2.828 . S
C714 O732 1.244 . S
C714 O735 1.265 . S
C715 C716 1.405 . S
C715 C719 1.373 . S
C715 C721 1.505 . S
C716 C715 1.405 . S
C716 C718 1.349 1_455 S
C716 H744 0.924 . S
C717 C719 1.383 . S
C717 C720 1.382 1_455 S
C717 H745 0.930 . S
C718 C716 1.349 1_655 S
C718 C720 1.392 . S
C718 H746 0.930 . S
C719 C715 1.373 . S
C719 C717 1.383 . S
C719 H747 0.931 . S
C720 C717 1.382 1_655 S
C720 C718 1.392 . S
C721 Eu712 2.828 . S
C721 C715 1.505 . S
C721 O733 1.249 . S
C721 O734 1.244 . S
O722 Eu713 2.373 . S
O722 C724 1.258 . S
O723 Eu712 2.392 . S
O723 C724 1.242 . S
C724 O722 1.258 . S
C724 O723 1.242 . S
O725 Eu712 2.418 . S
O725 C729 1.244 . S
O726 Eu713 2.488 . S
O726 C742 1.249 . S
O727 Eu713 2.471 . S
O727 C742 1.244 . S
O728 Eu713 2.349 . S
O728 C729 1.265 . S
C729 O725 1.244 . S
C729 O728 1.265 . S
O730 Eu712 2.373 . S
O730 C743 1.258 . S
O731 Eu713 2.392 . S
O731 C743 1.242 . S
O732 Eu713 2.418 . S
O732 C714 1.244 . S
O733 Eu712 2.488 . S
O733 C721 1.249 . S
O734 Eu712 2.471 . S
O734 C721 1.244 . S
O735 Eu712 2.349 . S
O735 C714 1.265 . S
C736 C737 1.379 . S
C736 C740 1.373 . S
C736 C742 1.505 . S
C737 C736 1.379 . S
C737 C739 1.369 . S
C737 H748 0.930 . S
C738 C740 1.383 . S
C738 C741 1.382 . S
C738 H749 0.930 . S
C739 C737 1.369 . S
C739 C741 1.392 . S
C739 H750 0.930 . S
C740 C736 1.373 . S
C740 C738 1.383 . S
C740 H751 0.931 . S
C741 C738 1.382 . S
C741 C739 1.392 . S
C742 Eu713 2.828 . S
C742 O726 1.249 . S
C742 O727 1.244 . S
C742 C736 1.505 . S
C743 O730 1.258 . S
C743 O731 1.242 . S
H744 C716 0.924 . S
H745 C717 0.930 . S
H746 C718 0.930 . S
H747 C719 0.931 . S
H748 C737 0.930 . S
H749 C738 0.930 . S
H750 C739 0.930 . S
H751 C740 0.931 . S
Eu752 C761 2.828 . S
Eu752 O763 2.392 . S
Eu752 O765 2.418 . S
Eu752 O770 2.373 . S
Eu752 O773 2.488 . S
Eu752 O774 2.471 . S
Eu752 O775 2.349 . S
Eu753 O762 2.373 . S
Eu753 O766 2.488 . S
Eu753 O767 2.471 . S
Eu753 O768 2.349 . S
Eu753 O771 2.392 . S
Eu753 O772 2.418 . S
Eu753 C782 2.828 . S
C754 O772 1.244 . S
C754 O775 1.265 . S
C755 C756 1.379 . S
C755 C759 1.373 . S
C755 C761 1.505 . S
C756 C755 1.379 . S
C756 C758 1.369 . S
C756 H784 0.930 . S
C757 C759 1.383 . S
C757 C760 1.382 . S
C757 H785 0.930 . S
C758 C756 1.369 . S
C758 C760 1.392 . S
C758 H786 0.930 . S
C759 C755 1.373 . S
C759 C757 1.383 . S
C759 H787 0.931 . S
C760 C757 1.382 . S
C760 C758 1.392 . S
C761 Eu752 2.828 . S
C761 C755 1.505 . S
C761 O773 1.249 . S
C761 O774 1.244 . S
O762 Eu753 2.373 . S
O762 C764 1.258 . S
O763 Eu752 2.392 . S
O763 C764 1.242 . S
C764 O762 1.258 . S
C764 O763 1.242 . S
O765 Eu752 2.418 . S
O765 C769 1.244 . S
O766 Eu753 2.488 . S
O766 C782 1.249 . S
O767 Eu753 2.471 . S
O767 C782 1.244 . S
O768 Eu753 2.349 . S
O768 C769 1.265 . S
C769 O765 1.244 . S
C769 O768 1.265 . S
O770 Eu752 2.373 . S
O770 C783 1.258 . S
O771 Eu753 2.392 . S
O771 C783 1.242 . S
O772 Eu753 2.418 . S
O772 C754 1.244 . S
O773 Eu752 2.488 . S
O773 C761 1.249 . S
O774 Eu752 2.471 . S
O774 C761 1.244 . S
O775 Eu752 2.349 . S
O775 C754 1.265 . S
C776 C777 1.379 . S
C776 C780 1.373 . S
C776 C782 1.505 . S
C777 C776 1.379 . S
C777 C779 1.369 . S
C777 H788 0.930 . S
C778 C780 1.383 . S
C778 C781 1.382 . S
C778 H789 0.930 . S
C779 C777 1.369 . S
C779 C781 1.392 . S
C779 H790 0.930 . S
C780 C776 1.373 . S
C780 C778 1.383 . S
C780 H791 0.931 . S
C781 C778 1.382 . S
C781 C779 1.392 . S
C782 Eu753 2.828 . S
C782 O766 1.249 . S
C782 O767 1.244 . S
C782 C776 1.505 . S
C783 O770 1.258 . S
C783 O771 1.242 . S
H784 C756 0.930 . S
H785 C757 0.930 . S
H786 C758 0.930 . S
H787 C759 0.931 . S
H788 C777 0.930 . S
H789 C778 0.930 . S
H790 C779 0.930 . S
H791 C780 0.931 . S
Eu792 C801 2.828 . S
Eu792 O803 2.392 . S
Eu792 O805 2.418 . S
Eu792 O810 2.373 . S
Eu792 O813 2.488 . S
Eu792 O814 2.471 . S
Eu792 O815 2.349 . S
Eu793 O802 2.373 . S
Eu793 O806 2.488 . S
Eu793 O807 2.471 . S
Eu793 O808 2.349 . S
Eu793 O811 2.392 . S
Eu793 O812 2.418 . S
Eu793 C822 2.828 . S
C794 O812 1.244 . S
C794 O815 1.265 . S
C795 C796 1.379 . S
C795 C799 1.373 . S
C795 C801 1.505 . S
C796 C795 1.379 . S
C796 C798 1.369 . S
C796 H824 0.930 . S
C797 C799 1.383 . S
C797 C800 1.382 . S
C797 H825 0.930 . S
C798 C796 1.369 . S
C798 C800 1.392 . S
C798 H826 0.930 . S
C799 C795 1.373 . S
C799 C797 1.383 . S
C799 H827 0.931 . S
C800 C797 1.382 . S
C800 C798 1.392 . S
C801 Eu792 2.828 . S
C801 C795 1.505 . S
C801 O813 1.249 . S
C801 O814 1.244 . S
O802 Eu793 2.373 . S
O802 C804 1.258 . S
O803 Eu792 2.392 . S
O803 C804 1.242 . S
C804 O802 1.258 . S
C804 O803 1.242 . S
O805 Eu792 2.418 . S
O805 C809 1.244 . S
O806 Eu793 2.488 . S
O806 C822 1.249 . S
O807 Eu793 2.471 . S
O807 C822 1.244 . S
O808 Eu793 2.349 . S
O808 C809 1.265 . S
C809 O805 1.244 . S
C809 O808 1.265 . S
O810 Eu792 2.373 . S
O810 C823 1.258 . S
O811 Eu793 2.392 . S
O811 C823 1.242 . S
O812 Eu793 2.418 . S
O812 C794 1.244 . S
O813 Eu792 2.488 . S
O813 C801 1.249 . S
O814 Eu792 2.471 . S
O814 C801 1.244 . S
O815 Eu792 2.349 . S
O815 C794 1.265 . S
C816 C817 1.379 . S
C816 C820 1.373 . S
C816 C822 1.505 . S
C817 C816 1.379 . S
C817 C819 1.369 . S
C817 H828 0.930 . S
C818 C820 1.383 . S
C818 C821 1.382 . S
C818 H829 0.930 . S
C819 C817 1.369 . S
C819 C821 1.392 . S
C819 H830 0.930 . S
C820 C816 1.373 . S
C820 C818 1.383 . S
C820 H831 0.931 . S
C821 C818 1.382 . S
C821 C819 1.392 . S
C822 Eu793 2.828 . S
C822 O806 1.249 . S
C822 O807 1.244 . S
C822 C816 1.505 . S
C823 O810 1.258 . S
C823 O811 1.242 . S
H824 C796 0.930 . S
H825 C797 0.930 . S
H826 C798 0.930 . S
H827 C799 0.931 . S
H828 C817 0.930 . S
H829 C818 0.930 . S
H830 C819 0.930 . S
H831 C820 0.931 . S
Eu832 C841 2.828 . S
Eu832 O843 2.392 . S
Eu832 O845 2.418 . S
Eu832 O850 2.373 . S
Eu832 O853 2.488 . S
Eu832 O854 2.471 . S
Eu832 O855 2.349 . S
Eu833 O842 2.373 . S
Eu833 O846 2.488 . S
Eu833 O847 2.471 . S
Eu833 O848 2.349 . S
Eu833 O851 2.392 . S
Eu833 O852 2.418 . S
Eu833 C862 2.828 . S
C834 O852 1.244 . S
C834 O855 1.265 . S
C835 C836 1.379 . S
C835 C839 1.373 . S
C835 C841 1.505 . S
C836 C835 1.379 . S
C836 C838 1.369 . S
C836 H864 0.930 . S
C837 C839 1.383 . S
C837 C840 1.382 . S
C837 H865 0.930 . S
C838 C836 1.369 . S
C838 C840 1.392 . S
C838 H866 0.930 . S
C839 C835 1.373 . S
C839 C837 1.383 . S
C839 H867 0.931 . S
C840 C837 1.382 . S
C840 C838 1.392 . S
C841 Eu832 2.828 . S
C841 C835 1.505 . S
C841 O853 1.249 . S
C841 O854 1.244 . S
O842 Eu833 2.373 . S
O842 C844 1.258 . S
O843 Eu832 2.392 . S
O843 C844 1.242 . S
C844 O842 1.258 . S
C844 O843 1.242 . S
O845 Eu832 2.418 . S
O845 C849 1.244 . S
O846 Eu833 2.488 . S
O846 C862 1.249 . S
O847 Eu833 2.471 . S
O847 C862 1.244 . S
O848 Eu833 2.349 . S
O848 C849 1.265 . S
C849 O845 1.244 . S
C849 O848 1.265 . S
O850 Eu832 2.373 . S
O850 C863 1.258 . S
O851 Eu833 2.392 . S
O851 C863 1.242 . S
O852 Eu833 2.418 . S
O852 C834 1.244 . S
O853 Eu832 2.488 . S
O853 C841 1.249 . S
O854 Eu832 2.471 . S
O854 C841 1.244 . S
O855 Eu832 2.349 . S
O855 C834 1.265 . S
C856 C857 1.379 . S
C856 C860 1.373 . S
C856 C862 1.505 . S
C857 C856 1.379 . S
C857 C859 1.369 . S
C857 H868 0.930 . S
C858 C860 1.383 . S
C858 C861 1.382 . S
C858 H869 0.930 . S
C859 C857 1.369 . S
C859 C861 1.392 . S
C859 H870 0.930 . S
C860 C856 1.373 . S
C860 C858 1.383 . S
C860 H871 0.931 . S
C861 C858 1.382 . S
C861 C859 1.392 . S
C862 Eu833 2.828 . S
C862 O846 1.249 . S
C862 O847 1.244 . S
C862 C856 1.505 . S
C863 O850 1.258 . S
C863 O851 1.242 . S
H864 C836 0.930 . S
H865 C837 0.930 . S
H866 C838 0.930 . S
H867 C839 0.931 . S
H868 C857 0.930 . S
H869 C858 0.930 . S
H870 C859 0.930 . S
H871 C860 0.931 . S
Eu872 C881 2.828 . S
Eu872 O883 2.392 . S
Eu872 O885 2.418 . S
Eu872 O890 2.373 . S
Eu872 O893 2.488 . S
Eu872 O894 2.471 . S
Eu872 O895 2.349 . S
Eu873 O882 2.373 . S
Eu873 O886 2.488 . S
Eu873 O887 2.471 . S
Eu873 O888 2.349 . S
Eu873 O891 2.392 . S
Eu873 O892 2.418 . S
Eu873 C902 2.828 . S
C874 O892 1.244 . S
C874 O895 1.265 . S
C875 C876 1.379 . S
C875 C879 1.373 . S
C875 C881 1.505 . S
C876 C875 1.379 . S
C876 C878 1.369 . S
C876 H904 0.930 . S
C877 C879 1.383 . S
C877 C880 1.382 . S
C877 H905 0.930 . S
C878 C876 1.369 . S
C878 C880 1.392 . S
C878 H906 0.930 . S
C879 C875 1.373 . S
C879 C877 1.383 . S
C879 H907 0.931 . S
C880 C877 1.382 . S
C880 C878 1.392 . S
C881 Eu872 2.828 . S
C881 C875 1.505 . S
C881 O893 1.249 . S
C881 O894 1.244 . S
O882 Eu873 2.373 . S
O882 C884 1.258 . S
O883 Eu872 2.392 . S
O883 C884 1.242 . S
C884 O882 1.258 . S
C884 O883 1.242 . S
O885 Eu872 2.418 . S
O885 C889 1.244 . S
O886 Eu873 2.488 . S
O886 C902 1.249 . S
O887 Eu873 2.471 . S
O887 C902 1.244 . S
O888 Eu873 2.349 . S
O888 C889 1.265 . S
C889 O885 1.244 . S
C889 O888 1.265 . S
O890 Eu872 2.373 . S
O890 C903 1.258 . S
O891 Eu873 2.392 . S
O891 C903 1.242 . S
O892 Eu873 2.418 . S
O892 C874 1.244 . S
O893 Eu872 2.488 . S
O893 C881 1.249 . S
O894 Eu872 2.471 . S
O894 C881 1.244 . S
O895 Eu872 2.349 . S
O895 C874 1.265 . S
C896 C897 1.379 . S
C896 C900 1.373 . S
C896 C902 1.505 . S
C897 C896 1.379 . S
C897 C899 1.369 . S
C897 H908 0.930 . S
C898 C900 1.383 . S
C898 C901 1.382 . S
C898 H909 0.930 . S
C899 C897 1.369 . S
C899 C901 1.392 . S
C899 H910 0.930 . S
C900 C896 1.373 . S
C900 C898 1.383 . S
C900 H911 0.931 . S
C901 C898 1.382 . S
C901 C899 1.392 . S
C902 Eu873 2.828 . S
C902 O886 1.249 . S
C902 O887 1.244 . S
C902 C896 1.505 . S
C903 O890 1.258 . S
C903 O891 1.242 . S
H904 C876 0.930 . S
H905 C877 0.930 . S
H906 C878 0.930 . S
H907 C879 0.931 . S
H908 C897 0.930 . S
H909 C898 0.930 . S
H910 C899 0.930 . S
H911 C900 0.931 . S
Eu912 C921 2.828 . S
Eu912 O923 2.392 1_556 S
Eu912 O925 2.418 . S
Eu912 O930 2.373 . S
Eu912 O933 2.488 . S
Eu912 O934 2.471 1_556 S
Eu912 O935 2.349 1_556 S
Eu913 O922 2.373 . S
Eu913 O926 2.465 1_455 S
Eu913 O927 2.471 1_455 S
Eu913 O928 2.349 1_554 S
Eu913 O931 2.392 . S
Eu913 O932 2.418 . S
Eu913 C942 2.828 1_455 S
C914 O932 1.244 . S
C914 O935 1.265 . S
C915 C916 1.379 1_556 S
C915 C919 1.373 . S
C915 C921 1.505 . S
C916 C915 1.379 1_554 S
C916 C918 1.369 1_554 S
C916 H944 0.930 . S
C917 C919 1.383 . S
C917 C920 1.382 . S
C917 H945 0.930 . S
C918 C916 1.369 1_556 S
C918 C920 1.392 . S
C918 H946 0.930 1_556 S
C919 C915 1.373 . S
C919 C917 1.383 . S
C919 H947 0.931 . S
C920 C917 1.382 . S
C920 C918 1.392 . S
C921 Eu912 2.828 . S
C921 C915 1.505 . S
C921 O933 1.249 . S
C921 O934 1.244 1_556 S
O922 Eu913 2.373 . S
O922 C924 1.258 . S
O923 Eu912 2.392 1_554 S
O923 C924 1.242 . S
C924 O922 1.258 . S
C924 O923 1.242 . S
O925 Eu912 2.418 . S
O925 C929 1.244 . S
O926 Eu913 2.465 1_655 S
O926 C942 1.263 . S
O927 Eu913 2.471 1_655 S
O927 C942 1.244 . S
O928 Eu913 2.349 1_556 S
O928 C929 1.265 . S
C929 O925 1.244 . S
C929 O928 1.265 . S
O930 Eu912 2.373 . S
O930 C943 1.258 . S
O931 Eu913 2.392 . S
O931 C943 1.242 1_554 S
O932 Eu913 2.418 . S
O932 C914 1.244 . S
O933 Eu912 2.488 . S
O933 C921 1.249 . S
O934 Eu912 2.471 1_554 S
O934 C921 1.244 1_554 S
O935 Eu912 2.349 1_554 S
O935 C914 1.265 . S
C936 C937 1.379 . S
C936 C940 1.373 . S
C936 C942 1.505 . S
C937 C936 1.379 . S
C937 C939 1.369 . S
C937 H948 0.930 . S
C938 C940 1.383 . S
C938 C941 1.382 . S
C938 H949 0.930 . S
C939 C937 1.369 . S
C939 C941 1.392 . S
C939 H950 0.930 . S
C940 C936 1.373 . S
C940 C938 1.383 . S
C940 H951 0.931 . S
C941 C938 1.382 . S
C941 C939 1.392 . S
C942 Eu913 2.828 1_655 S
C942 O926 1.263 . S
C942 O927 1.244 . S
C942 C936 1.505 . S
C943 O930 1.258 . S
C943 O931 1.242 1_556 S
H944 C916 0.930 . S
H945 C917 0.930 . S
H946 C918 0.930 1_554 S
H947 C919 0.931 . S
H948 C937 0.930 . S
H949 C938 0.930 . S
H950 C939 0.930 . S
H951 C940 0.931 . S
C952 C953 1.387 . S
C952 H956 0.950 1_455 S
C952 C961 1.390 . S
C953 C952 1.387 . S
C953 C955 1.387 . S
H954 C961 0.950 1_554 S
C955 C953 1.387 . S
C955 C957 1.390 . S
C955 H959 0.950 . S
H956 C952 0.950 1_655 S
C957 C955 1.390 . S
C957 C958 1.387 . S
C957 H960 0.950 . S
C958 C957 1.387 . S
C958 C961 1.387 . S
H959 C955 0.950 . S
H960 C957 0.950 . S
C961 C952 1.390 . S
C961 H954 0.950 1_556 S
C961 C958 1.387 . S
C962 C963 1.387 . S
C962 H966 0.950 . S
C962 C971 1.390 . S
C963 C962 1.387 . S
C963 C965 1.387 . S
H964 C971 0.950 . S
C965 C963 1.387 . S
C965 C967 1.390 . S
C965 H969 0.950 . S
H966 C962 0.950 . S
C967 C965 1.390 . S
C967 C968 1.387 . S
C967 H970 0.950 . S
C968 C967 1.387 . S
C968 C971 1.387 . S
H969 C965 0.950 . S
H970 C967 0.950 . S
C971 C962 1.390 . S
C971 H964 0.950 . S
C971 C968 1.387 . S
C972 C973 1.387 . S
C972 H976 0.950 . S
C972 C981 1.390 . S
C973 C972 1.387 . S
C973 C975 1.387 . S
H974 C981 0.950 . S
C975 C973 1.387 . S
C975 C977 1.390 . S
C975 H979 0.950 . S
H976 C972 0.950 . S
C977 C975 1.390 . S
C977 C978 1.387 . S
C977 H980 0.950 . S
C978 C977 1.387 . S
C978 C981 1.387 . S
H979 C975 0.950 . S
H980 C977 0.950 . S
C981 C972 1.390 . S
C981 H974 0.950 . S
C981 C978 1.387 . S
C982 C983 1.387 . S
C982 H986 0.950 . S
C982 C991 1.390 . S
C983 C982 1.387 . S
C983 C985 1.387 . S
H984 C991 0.950 . S
C985 C983 1.387 . S
C985 C987 1.390 . S
C985 H989 0.950 . S
H986 C982 0.950 . S
C987 C985 1.390 . S
C987 C988 1.387 . S
C987 H990 0.950 . S
C988 C987 1.387 . S
C988 C991 1.387 . S
H989 C985 0.950 . S
H990 C987 0.950 . S
C991 C982 1.390 . S
C991 H984 0.950 . S
C991 C988 1.387 . S
C992 C993 1.387 . S
C992 H996 0.950 . S
C992 C1001 1.390 . S
C993 C992 1.387 . S
C993 C995 1.387 . S
H994 C1001 0.950 . S
C995 C993 1.387 . S
C995 C997 1.390 . S
C995 H999 0.950 . S
H996 C992 0.950 . S
C997 C995 1.390 . S
C997 C998 1.387 . S
C997 H1000 0.950 . S
C998 C997 1.387 . S
C998 C1001 1.387 . S
H999 C995 0.950 . S
H1000 C997 0.950 . S
C1001 C992 1.390 . S
C1001 H994 0.950 . S
C1001 C998 1.387 . S
C1002 C1003 1.387 . S
C1002 H1006 0.950 . S
C1002 C1011 1.390 . S
C1003 C1002 1.387 . S
C1003 C1005 1.387 . S
H1004 C1011 0.950 . S
C1005 C1003 1.387 . S
C1005 C1007 1.390 . S
C1005 H1009 0.950 . S
H1006 C1002 0.950 . S
C1007 C1005 1.390 . S
C1007 C1008 1.387 . S
C1007 H1010 0.950 . S
C1008 C1007 1.387 . S
C1008 C1011 1.387 . S
H1009 C1005 0.950 . S
H1010 C1007 0.950 . S
C1011 C1002 1.390 . S
C1011 H1004 0.950 . S
C1011 C1008 1.387 . S
C1012 C1013 1.387 . S
C1012 H1016 0.950 . S
C1012 C1021 1.390 . S
C1013 C1012 1.387 . S
C1013 C1015 1.387 . S
H1014 C1021 0.950 . S
C1015 C1013 1.387 . S
C1015 C1017 1.390 . S
C1015 H1019 0.950 . S
H1016 C1012 0.950 . S
C1017 C1015 1.390 . S
C1017 C1018 1.387 . S
C1017 H1020 0.950 . S
C1018 C1017 1.387 . S
C1018 C1021 1.387 . S
H1019 C1015 0.950 . S
H1020 C1017 0.950 . S
C1021 C1012 1.390 . S
C1021 H1014 0.950 . S
C1021 C1018 1.387 . S
C1022 C1023 1.387 . S
C1022 H1026 0.950 . S
C1022 C1031 1.390 . S
C1023 C1022 1.387 . S
C1023 C1025 1.387 . S
H1024 C1031 0.950 . S
C1025 C1023 1.387 . S
C1025 C1027 1.390 . S
C1025 H1029 0.950 . S
H1026 C1022 0.950 . S
C1027 C1025 1.390 . S
C1027 C1028 1.387 . S
C1027 H1030 0.950 . S
C1028 C1027 1.387 . S
C1028 C1031 1.387 . S
H1029 C1025 0.950 . S
H1030 C1027 0.950 . S
C1031 C1022 1.390 . S
C1031 H1024 0.950 . S
C1031 C1028 1.387 . S
C1032 C1033 1.387 . S
C1032 H1036 0.950 . S
C1032 C1041 1.390 . S
C1033 C1032 1.387 . S
C1033 C1035 1.387 . S
H1034 C1041 0.950 . S
C1035 C1033 1.387 . S
C1035 C1037 1.390 . S
C1035 H1039 0.956 . S
H1036 C1032 0.950 . S
C1037 C1035 1.390 . S
C1037 C1038 1.387 . S
C1037 H1040 0.950 . S
C1038 C1037 1.387 . S
C1038 C1041 1.387 . S
H1039 C1035 0.956 . S
H1040 C1037 0.950 . S
C1041 C1032 1.390 . S
C1041 H1034 0.950 . S
C1041 C1038 1.387 . S
C1042 C1043 1.387 . S
C1042 H1046 0.950 . S
C1042 C1051 1.390 . S
C1043 C1042 1.387 . S
C1043 C1045 1.387 . S
H1044 C1051 0.950 . S
C1045 C1043 1.387 . S
C1045 C1047 1.390 . S
C1045 H1049 0.950 . S
H1046 C1042 0.950 . S
C1047 C1045 1.390 . S
C1047 C1048 1.387 . S
C1047 H1050 0.950 . S
C1048 C1047 1.387 . S
C1048 C1051 1.387 . S
H1049 C1045 0.950 . S
H1050 C1047 0.950 . S
C1051 C1042 1.390 . S
C1051 H1044 0.950 . S
C1051 C1048 1.387 . S
C1052 C1053 1.387 . S
C1052 H1056 0.950 . S
C1052 C1061 1.390 . S
C1053 C1052 1.387 . S
C1053 C1055 1.387 . S
H1054 C1061 0.950 . S
C1055 C1053 1.387 . S
C1055 C1057 1.390 . S
C1055 H1059 0.950 . S
H1056 C1052 0.950 . S
C1057 C1055 1.390 . S
C1057 C1058 1.387 . S
C1057 H1060 0.950 . S
C1058 C1057 1.387 . S
C1058 C1061 1.387 . S
H1059 C1055 0.950 . S
H1060 C1057 0.950 . S
C1061 C1052 1.390 . S
C1061 H1054 0.950 . S
C1061 C1058 1.387 . S
C1062 C1063 1.387 . S
C1062 H1066 0.950 . S
C1062 C1071 1.390 . S
C1063 C1062 1.387 . S
C1063 C1065 1.387 . S
H1064 C1071 0.950 . S
C1065 C1063 1.387 . S
C1065 C1067 1.390 . S
C1065 H1069 0.950 . S
H1066 C1062 0.950 . S
C1067 C1065 1.390 . S
C1067 C1068 1.387 . S
C1067 H1070 0.950 . S
C1068 C1067 1.387 . S
C1068 C1071 1.387 . S
H1069 C1065 0.950 . S
H1070 C1067 0.950 . S
C1071 C1062 1.390 . S
C1071 H1064 0.950 . S
C1071 C1068 1.387 . S
C1072 C1073 1.390 . S
C1072 H1076 0.945 1_455 S
C1072 C1081 1.392 . S
C1073 C1072 1.390 . S
C1073 C1075 1.387 . S
H1074 C1081 0.950 . S
C1075 C1073 1.387 . S
C1075 C1077 1.390 . S
C1075 H1079 0.950 . S
H1076 C1072 0.945 1_655 S
C1077 C1075 1.390 . S
C1077 C1078 1.387 . S
C1077 H1080 0.950 . S
C1078 C1077 1.387 . S
C1078 C1081 1.387 . S
H1079 C1075 0.950 . S
H1080 C1077 0.950 . S
C1081 C1072 1.392 . S
C1081 H1074 0.950 . S
C1081 C1078 1.387 . S
C1082 C1083 1.387 . S
C1082 H1086 0.950 . S
C1082 C1091 1.390 . S
C1083 C1082 1.387 . S
C1083 C1085 1.387 . S
H1084 C1091 0.950 . S
C1085 C1083 1.387 . S
C1085 C1087 1.390 . S
C1085 H1089 0.950 . S
H1086 C1082 0.950 . S
C1087 C1085 1.390 . S
C1087 C1088 1.387 . S
C1087 H1090 0.950 . S
C1088 C1087 1.387 . S
C1088 C1091 1.387 . S
H1089 C1085 0.950 . S
H1090 C1087 0.950 . S
C1091 C1082 1.390 . S
C1091 H1084 0.950 . S
C1091 C1088 1.387 . S
C1092 C1093 1.387 . S
C1092 H1096 0.950 . S
C1092 C1101 1.390 . S
C1093 C1092 1.387 . S
C1093 C1095 1.387 . S
H1094 C1101 0.950 . S
C1095 C1093 1.387 . S
C1095 C1097 1.390 . S
C1095 H1099 0.950 . S
H1096 C1092 0.950 . S
C1097 C1095 1.390 . S
C1097 C1098 1.387 . S
C1097 H1100 0.950 . S
C1098 C1097 1.387 . S
C1098 C1101 1.387 . S
H1099 C1095 0.950 . S
H1100 C1097 0.950 . S
C1101 C1092 1.390 . S
C1101 H1094 0.950 . S
C1101 C1098 1.387 . S
C1102 C1103 1.387 . S
C1102 H1106 0.950 . S
C1102 C1111 1.390 . S
C1103 C1102 1.387 . S
C1103 C1105 1.387 . S
H1104 C1111 0.950 . S
C1105 C1103 1.387 . S
C1105 C1107 1.390 . S
C1105 H1109 0.950 . S
H1106 C1102 0.950 . S
C1107 C1105 1.390 . S
C1107 C1108 1.387 . S
C1107 H1110 0.950 . S
C1108 C1107 1.387 . S
C1108 C1111 1.387 . S
H1109 C1105 0.950 . S
H1110 C1107 0.950 . S
C1111 C1102 1.390 . S
C1111 H1104 0.950 . S
C1111 C1108 1.387 . S
C1112 C1113 1.387 1_565 S
C1112 H1116 0.950 . S
C1112 C1121 1.390 . S
C1113 C1112 1.387 1_545 S
C1113 C1115 1.387 . S
H1114 C1121 0.950 . S
C1115 C1113 1.387 . S
C1115 C1117 1.390 . S
C1115 H1119 0.950 1_554 S
H1116 C1112 0.950 . S
C1117 C1115 1.390 . S
C1117 C1118 1.387 . S
C1117 H1120 0.950 . S
C1118 C1117 1.387 . S
C1118 C1121 1.387 1_545 S
H1119 C1115 0.950 1_556 S
H1120 C1117 0.950 . S
C1121 C1112 1.390 . S
C1121 H1114 0.950 . S
C1121 C1118 1.387 1_565 S
C1122 C1123 1.387 1_556 S
C1122 H1126 0.950 . S
C1122 C1131 1.390 . S
C1123 C1122 1.387 1_554 S
C1123 C1125 1.387 . S
H1124 C1131 0.950 . S
C1125 C1123 1.387 . S
C1125 C1127 1.390 . S
C1125 H1129 0.950 . S
H1126 C1122 0.950 . S
C1127 C1125 1.390 . S
C1127 C1128 1.387 . S
C1127 H1130 0.950 . S
C1128 C1127 1.387 . S
C1128 C1131 1.387 1_554 S
H1129 C1125 0.950 . S
H1130 C1127 0.950 . S
C1131 C1122 1.390 . S
C1131 H1124 0.950 . S
C1131 C1128 1.387 1_556 S
C1132 C1133 1.387 . S
C1132 H1136 0.950 . S
C1132 C1141 1.390 . S
C1133 C1132 1.387 . S
C1133 C1135 1.387 . S
H1134 C1141 0.950 . S
C1135 C1133 1.387 . S
C1135 C1137 1.390 . S
C1135 H1139 0.950 . S
H1136 C1132 0.950 . S
C1137 C1135 1.390 . S
C1137 C1138 1.387 . S
C1137 H1140 0.950 . S
C1138 C1137 1.387 . S
C1138 C1141 1.387 . S
H1139 C1135 0.950 . S
H1140 C1137 0.950 . S
C1141 C1132 1.390 . S
C1141 H1134 0.950 . S
C1141 C1138 1.387 . S
C1142 C1143 1.387 . S
C1142 H1146 0.950 . S
C1142 C1151 1.390 . S
C1143 C1142 1.387 . S
C1143 C1145 1.387 . S
H1144 C1151 0.950 . S
C1145 C1143 1.387 . S
C1145 C1147 1.390 . S
C1145 H1149 0.950 . S
H1146 C1142 0.950 . S
C1147 C1145 1.390 . S
C1147 C1148 1.387 . S
C1147 H1150 0.950 . S
C1148 C1147 1.387 . S
C1148 C1151 1.387 . S
H1149 C1145 0.950 . S
H1150 C1147 0.950 . S
C1151 C1142 1.390 . S
C1151 H1144 0.950 . S
C1151 C1148 1.387 . S
C1152 C1153 1.387 . S
C1152 H1156 0.950 . S
C1152 C1161 1.390 . S
C1153 C1152 1.387 . S
C1153 C1155 1.387 . S
H1154 C1161 0.950 . S
C1155 C1153 1.387 . S
C1155 C1157 1.390 . S
C1155 H1159 0.950 . S
H1156 C1152 0.950 . S
C1157 C1155 1.390 . S
C1157 C1158 1.387 . S
C1157 H1160 0.950 . S
C1158 C1157 1.387 . S
C1158 C1161 1.387 . S
H1159 C1155 0.950 . S
H1160 C1157 0.950 . S
C1161 C1152 1.390 . S
C1161 H1154 0.950 . S
C1161 C1158 1.387 . S
C1162 C1163 1.387 . S
C1162 H1166 0.950 . S
C1162 C1171 1.390 . S
C1163 C1162 1.387 . S
C1163 C1165 1.387 . S
H1164 C1171 0.950 . S
C1165 C1163 1.387 . S
C1165 C1167 1.390 . S
C1165 H1169 0.950 . S
H1166 C1162 0.950 . S
C1167 C1165 1.390 . S
C1167 C1168 1.387 . S
C1167 H1170 0.950 . S
C1168 C1167 1.387 . S
C1168 C1171 1.387 . S
H1169 C1165 0.950 . S
H1170 C1167 0.950 . S
C1171 C1162 1.390 . S
C1171 H1164 0.950 . S
C1171 C1168 1.387 . S
C1172 C1173 1.387 . S
C1172 H1176 0.950 . S
C1172 C1181 1.390 . S
C1173 C1172 1.387 . S
C1173 C1175 1.387 . S
H1174 C1181 0.950 . S
C1175 C1173 1.387 . S
C1175 C1177 1.390 . S
C1175 H1179 0.950 . S
H1176 C1172 0.950 . S
C1177 C1175 1.390 . S
C1177 C1178 1.387 . S
C1177 H1180 0.950 . S
C1178 C1177 1.387 . S
C1178 C1181 1.387 . S
H1179 C1175 0.950 . S
H1180 C1177 0.950 . S
C1181 C1172 1.390 . S
C1181 H1174 0.950 . S
C1181 C1178 1.387 . S
C1182 C1183 1.387 . S
C1182 H1186 0.950 . S
C1182 C1191 1.390 . S
C1183 C1182 1.387 . S
C1183 C1185 1.387 . S
H1184 C1191 0.950 . S
C1185 C1183 1.387 . S
C1185 C1187 1.390 . S
C1185 H1189 0.950 . S
H1186 C1182 0.950 . S
C1187 C1185 1.390 . S
C1187 C1188 1.387 . S
C1187 H1190 0.950 . S
C1188 C1187 1.387 . S
C1188 C1191 1.387 . S
H1189 C1185 0.950 . S
H1190 C1187 0.950 . S
C1191 C1182 1.390 . S
C1191 H1184 0.950 . S
C1191 C1188 1.387 . S
C1192 C1193 1.387 . S
C1192 H1196 0.950 . S
C1192 C1201 1.390 . S
C1193 C1192 1.387 . S
C1193 C1195 1.387 . S
H1194 C1201 0.950 . S
C1195 C1193 1.387 . S
C1195 C1197 1.390 . S
C1195 H1199 0.950 . S
H1196 C1192 0.950 . S
C1197 C1195 1.390 . S
C1197 C1198 1.387 . S
C1197 H1200 0.950 . S
C1198 C1197 1.387 . S
C1198 C1201 1.387 . S
H1199 C1195 0.950 . S
H1200 C1197 0.950 . S
C1201 C1192 1.390 . S
C1201 H1194 0.950 . S
C1201 C1198 1.387 . S
C1202 C1203 1.387 . S
C1202 H1206 0.950 . S
C1202 C1211 1.390 . S
C1203 C1202 1.387 . S
C1203 C1205 1.387 . S
H1204 C1211 0.950 . S
C1205 C1203 1.387 . S
C1205 C1207 1.390 . S
C1205 H1209 0.950 . S
H1206 C1202 0.950 . S
C1207 C1205 1.390 . S
C1207 C1208 1.387 . S
C1207 H1210 0.950 . S
C1208 C1207 1.387 . S
C1208 C1211 1.387 . S
H1209 C1205 0.950 . S
H1210 C1207 0.950 . S
C1211 C1202 1.390 . S
C1211 H1204 0.950 . S
C1211 C1208 1.387 . S
C1212 C1213 1.387 . S
C1212 H1216 0.950 . S
C1212 C1221 1.390 . S
C1213 C1212 1.387 . S
C1213 C1215 1.387 . S
H1214 C1221 0.950 . S
C1215 C1213 1.387 . S
C1215 C1217 1.390 . S
C1215 H1219 0.950 . S
H1216 C1212 0.950 . S
C1217 C1215 1.390 . S
C1217 C1218 1.387 . S
C1217 H1220 0.950 . S
C1218 C1217 1.387 . S
C1218 C1221 1.387 . S
H1219 C1215 0.950 . S
H1220 C1217 0.950 . S
C1221 C1212 1.390 . S
C1221 H1214 0.950 . S
C1221 C1218 1.387 . S
C1222 C1223 1.387 . S
C1222 H1226 0.950 . S
C1222 C1231 1.390 . S
C1223 C1222 1.387 . S
C1223 C1225 1.387 . S
H1224 C1231 0.950 . S
C1225 C1223 1.387 . S
C1225 C1227 1.390 . S
C1225 H1229 0.950 . S
H1226 C1222 0.950 . S
C1227 C1225 1.390 . S
C1227 C1228 1.387 . S
C1227 H1230 0.950 . S
C1228 C1227 1.387 . S
C1228 C1231 1.387 . S
H1229 C1225 0.950 . S
H1230 C1227 0.950 . S
C1231 C1222 1.390 . S
C1231 H1224 0.950 . S
C1231 C1228 1.387 . S
C1232 C1233 1.387 . S
C1232 H1236 0.950 . S
C1232 C1241 1.390 . S
C1233 C1232 1.387 . S
C1233 C1235 1.387 . S
H1234 C1241 0.950 . S
C1235 C1233 1.387 . S
C1235 C1237 1.390 . S
C1235 H1239 0.950 . S
H1236 C1232 0.950 . S
C1237 C1235 1.390 . S
C1237 C1238 1.387 . S
C1237 H1240 0.950 . S
C1238 C1237 1.387 . S
C1238 C1241 1.387 . S
H1239 C1235 0.950 . S
H1240 C1237 0.950 . S
C1241 C1232 1.390 . S
C1241 H1234 0.950 . S
C1241 C1238 1.387 . S
C1242 C1243 1.387 . S
C1242 H1246 0.950 . S
C1242 C1251 1.390 . S
C1243 C1242 1.387 . S
C1243 C1245 1.387 . S
H1244 C1251 0.950 . S
C1245 C1243 1.387 . S
C1245 C1247 1.390 . S
C1245 H1249 0.950 . S
H1246 C1242 0.950 . S
C1247 C1245 1.390 . S
C1247 C1248 1.387 . S
C1247 H1250 0.950 . S
C1248 C1247 1.387 . S
C1248 C1251 1.387 . S
H1249 C1245 0.950 . S
H1250 C1247 0.950 . S
C1251 C1242 1.390 . S
C1251 H1244 0.950 . S
C1251 C1248 1.387 . S
C1252 C1253 1.387 . S
C1252 H1256 0.950 . S
C1252 C1261 1.390 . S
C1253 C1252 1.387 . S
C1253 C1255 1.387 . S
H1254 C1261 0.950 . S
C1255 C1253 1.387 . S
C1255 C1257 1.390 . S
C1255 H1259 0.962 . S
H1256 C1252 0.950 . S
C1257 C1255 1.390 . S
C1257 C1258 1.387 . S
C1257 H1260 0.950 1_556 S
C1258 C1257 1.387 . S
C1258 C1261 1.387 . S
H1259 C1255 0.962 . S
H1260 C1257 0.950 1_554 S
C1261 C1252 1.390 . S
C1261 H1254 0.950 . S
C1261 C1258 1.387 . S
C1262 C1263 1.387 . S
C1262 H1266 0.950 . S
C1262 C1271 1.390 . S
C1263 C1262 1.387 . S
C1263 C1265 1.387 . S
H1264 C1271 0.950 . S
C1265 C1263 1.387 . S
C1265 C1267 1.390 . S
C1265 H1269 0.950 . S
H1266 C1262 0.950 . S
C1267 C1265 1.390 . S
C1267 C1268 1.387 . S
C1267 H1270 0.950 . S
C1268 C1267 1.387 . S
C1268 C1271 1.387 . S
H1269 C1265 0.950 . S
H1270 C1267 0.950 . S
C1271 C1262 1.390 . S
C1271 H1264 0.950 . S
C1271 C1268 1.387 . S
C1272 C1273 1.387 1_565 S
C1272 H1276 0.950 . S
C1272 C1281 1.390 . S
C1273 C1272 1.387 1_545 S
C1273 C1275 1.387 . S
H1274 C1281 0.950 . S
C1275 C1273 1.387 . S
C1275 C1277 1.390 . S
C1275 H1279 0.950 . S
H1276 C1272 0.950 . S
C1277 C1275 1.390 . S
C1277 C1278 1.387 . S
C1277 H1280 0.950 . S
C1278 C1277 1.387 . S
C1278 C1281 1.387 1_545 S
H1279 C1275 0.950 . S
H1280 C1277 0.950 . S
C1281 C1272 1.390 . S
C1281 H1274 0.950 . S
C1281 C1278 1.387 1_565 S
C1282 C1283 1.387 . S
C1282 H1286 0.950 . S
C1282 C1291 1.390 . S
C1283 C1282 1.387 . S
C1283 C1285 1.387 . S
H1284 C1291 0.950 . S
C1285 C1283 1.387 . S
C1285 C1287 1.390 . S
C1285 H1289 0.950 . S
H1286 C1282 0.950 . S
C1287 C1285 1.390 . S
C1287 C1288 1.387 . S
C1287 H1290 0.950 . S
C1288 C1287 1.387 . S
C1288 C1291 1.387 . S
H1289 C1285 0.950 . S
H1290 C1287 0.950 . S
C1291 C1282 1.390 . S
C1291 H1284 0.950 . S
C1291 C1288 1.387 . S
C1292 C1293 1.387 1_565 S
C1292 H1296 0.950 . S
C1292 C1301 1.390 1_565 S
C1293 C1292 1.387 1_545 S
C1293 C1295 1.387 . S
H1294 C1301 0.950 1_565 S
C1295 C1293 1.387 . S
C1295 C1297 1.390 . S
C1295 H1299 0.950 . S
H1296 C1292 0.950 . S
C1297 C1295 1.390 . S
C1297 C1298 1.387 . S
C1297 H1300 0.950 . S
C1298 C1297 1.387 . S
C1298 C1301 1.387 . S
H1299 C1295 0.950 . S
H1300 C1297 0.950 . S
C1301 C1292 1.390 1_545 S
C1301 H1294 0.950 1_545 S
C1301 C1298 1.387 . S
C1302 C1303 1.387 . S
C1302 H1306 0.950 . S
C1302 C1311 1.390 . S
C1303 C1302 1.387 . S
C1303 C1305 1.387 . S
H1304 C1311 0.950 . S
C1305 C1303 1.387 . S
C1305 C1307 1.390 . S
C1305 H1309 0.950 . S
H1306 C1302 0.950 . S
C1307 C1305 1.390 . S
C1307 C1308 1.387 . S
C1307 H1310 0.950 . S
C1308 C1307 1.387 . S
C1308 C1311 1.387 . S
H1309 C1305 0.950 . S
H1310 C1307 0.950 . S
C1311 C1302 1.390 . S
C1311 H1304 0.950 . S
C1311 C1308 1.387 . S
C1312 C1313 1.387 . S
C1312 H1316 0.950 . S
C1312 C1321 1.390 . S
C1313 C1312 1.387 . S
C1313 C1315 1.387 1_545 S
H1314 C1321 0.950 . S
C1315 C1313 1.387 1_565 S
C1315 C1317 1.378 1_565 S
C1315 H1319 0.950 . S
H1316 C1312 0.950 . S
C1317 C1315 1.378 1_545 S
C1317 C1318 1.410 . S
C1317 H1320 0.940 1_545 S
C1318 C1317 1.410 . S
C1318 C1321 1.387 . S
H1319 C1315 0.950 . S
H1320 C1317 0.940 1_565 S
C1321 C1312 1.390 . S
C1321 H1314 0.950 . S
C1321 C1318 1.387 . S
C1322 C1323 1.387 . S
C1322 H1326 0.950 . S
C1322 C1331 1.390 . S
C1323 C1322 1.387 . S
C1323 C1325 1.387 . S
H1324 C1331 0.950 . S
C1325 C1323 1.387 . S
C1325 C1327 1.390 . S
C1325 H1329 0.950 . S
H1326 C1322 0.950 . S
C1327 C1325 1.390 . S
C1327 C1328 1.387 . S
C1327 H1330 0.950 . S
C1328 C1327 1.387 . S
C1328 C1331 1.387 . S
H1329 C1325 0.950 . S
H1330 C1327 0.950 . S
C1331 C1322 1.390 . S
C1331 H1324 0.950 . S
C1331 C1328 1.387 . S
C1332 C1333 1.387 . S
C1332 H1336 0.950 . S
C1332 C1341 1.390 . S
C1333 C1332 1.387 . S
C1333 C1335 1.387 1_565 S
H1334 C1341 0.950 . S
C1335 C1333 1.387 1_545 S
C1335 C1337 1.390 . S
C1335 H1339 0.950 . S
H1336 C1332 0.950 . S
C1337 C1335 1.390 . S
C1337 C1338 1.387 1_545 S
C1337 H1340 0.950 . S
C1338 C1337 1.387 1_565 S
C1338 C1341 1.387 . S
H1339 C1335 0.950 . S
H1340 C1337 0.950 . S
C1341 C1332 1.390 . S
C1341 H1334 0.950 . S
C1341 C1338 1.387 . S
C1342 C1343 1.387 . S
C1342 H1346 0.950 . S
C1342 C1351 1.390 . S
C1343 C1342 1.387 . S
C1343 C1345 1.387 . S
H1344 C1351 0.950 . S
C1345 C1343 1.387 . S
C1345 C1347 1.390 . S
C1345 H1349 0.950 . S
H1346 C1342 0.950 . S
C1347 C1345 1.390 . S
C1347 C1348 1.387 . S
C1347 H1350 0.950 . S
C1348 C1347 1.387 . S
C1348 C1351 1.387 . S
H1349 C1345 0.950 . S
H1350 C1347 0.950 . S
C1351 C1342 1.390 . S
C1351 H1344 0.950 . S
C1351 C1348 1.387 . S
C1352 C1353 1.387 1_556 S
C1352 H1356 0.950 . S
C1352 C1361 1.390 . S
C1353 C1352 1.387 1_554 S
C1353 C1355 1.387 . S
H1354 C1361 0.950 . S
C1355 C1353 1.387 . S
C1355 C1357 1.390 . S
C1355 H1359 0.950 . S
H1356 C1352 0.950 . S
C1357 C1355 1.390 . S
C1357 C1358 1.387 . S
C1357 H1360 0.950 . S
C1358 C1357 1.387 . S
C1358 C1361 1.387 1_554 S
H1359 C1355 0.950 . S
H1360 C1357 0.950 . S
C1361 C1352 1.390 . S
C1361 H1354 0.950 . S
C1361 C1358 1.387 1_556 S
C1362 C1363 1.387 . S
C1362 H1366 0.950 . S
C1362 C1371 1.390 . S
C1363 C1362 1.387 . S
C1363 C1365 1.387 . S
H1364 C1371 0.950 . S
C1365 C1363 1.387 . S
C1365 C1367 1.390 . S
C1365 H1369 0.950 1_554 S
H1366 C1362 0.950 . S
C1367 C1365 1.390 . S
C1367 C1368 1.387 . S
C1367 H1370 0.950 1_554 S
C1368 C1367 1.387 . S
C1368 C1371 1.387 . S
H1369 C1365 0.950 1_556 S
H1370 C1367 0.950 1_556 S
C1371 C1362 1.390 . S
C1371 H1364 0.950 . S
C1371 C1368 1.387 . S
C1372 C1373 1.387 . S
C1372 H1376 0.950 . S
C1372 C1381 1.390 . S
C1373 C1372 1.387 . S
C1373 C1375 1.387 . S
H1374 C1381 0.950 . S
C1375 C1373 1.387 . S
C1375 C1377 1.390 . S
C1375 H1379 0.950 . S
H1376 C1372 0.950 . S
C1377 C1375 1.390 . S
C1377 C1378 1.387 . S
C1377 H1380 0.950 . S
C1378 C1377 1.387 . S
C1378 C1381 1.387 . S
H1379 C1375 0.950 . S
H1380 C1377 0.950 . S
C1381 C1372 1.390 . S
C1381 H1374 0.950 . S
C1381 C1378 1.387 . S
C1382 C1383 1.387 . S
C1382 H1386 0.950 . S
C1382 C1391 1.390 . S
C1383 C1382 1.387 . S
C1383 C1385 1.387 . S
H1384 C1391 0.950 . S
C1385 C1383 1.387 . S
C1385 C1387 1.390 . S
C1385 H1389 0.950 . S
H1386 C1382 0.950 . S
C1387 C1385 1.390 . S
C1387 C1388 1.387 . S
C1387 H1390 0.950 . S
C1388 C1387 1.387 . S
C1388 C1391 1.387 . S
H1389 C1385 0.950 . S
H1390 C1387 0.950 . S
C1391 C1382 1.390 . S
C1391 H1384 0.950 . S
C1391 C1388 1.387 . S
C1392 C1393 1.387 . S
C1392 H1396 0.950 . S
C1392 C1401 1.390 . S
C1393 C1392 1.387 . S
C1393 C1395 1.387 1_545 S
H1394 C1401 0.950 . S
C1395 C1393 1.387 1_565 S
C1395 C1397 1.390 . S
C1395 H1399 0.950 . S
H1396 C1392 0.950 . S
C1397 C1395 1.390 . S
C1397 C1398 1.387 . S
C1397 H1400 0.950 . S
C1398 C1397 1.387 . S
C1398 C1401 1.387 1_565 S
H1399 C1395 0.950 . S
H1400 C1397 0.950 . S
C1401 C1392 1.390 . S
C1401 H1394 0.950 . S
C1401 C1398 1.387 1_545 S
C1402 C1403 1.387 . S
C1402 H1406 0.950 . S
C1402 C1411 1.390 . S
C1403 C1402 1.387 . S
C1403 C1405 1.387 . S
H1404 C1411 0.950 . S
C1405 C1403 1.387 . S
C1405 C1407 1.390 . S
C1405 H1409 0.950 . S
H1406 C1402 0.950 . S
C1407 C1405 1.390 . S
C1407 C1408 1.387 . S
C1407 H1410 0.950 . S
C1408 C1407 1.387 . S
C1408 C1411 1.387 . S
H1409 C1405 0.950 . S
H1410 C1407 0.950 . S
C1411 C1402 1.390 . S
C1411 H1404 0.950 . S
C1411 C1408 1.387 . S
C1412 C1413 1.387 . S
C1412 H1416 0.950 . S
C1412 C1421 1.390 . S
C1413 C1412 1.387 . S
C1413 C1415 1.387 . S
H1414 C1421 0.950 . S
C1415 C1413 1.387 . S
C1415 C1417 1.390 . S
C1415 H1419 0.950 . S
H1416 C1412 0.950 . S
C1417 C1415 1.390 . S
C1417 C1418 1.387 . S
C1417 H1420 0.950 . S
C1418 C1417 1.387 . S
C1418 C1421 1.387 . S
H1419 C1415 0.950 . S
H1420 C1417 0.950 . S
C1421 C1412 1.390 . S
C1421 H1414 0.950 . S
C1421 C1418 1.387 . S
C1422 C1423 1.387 . S
C1422 H1426 0.950 . S
C1422 C1431 1.390 . S
C1423 C1422 1.387 . S
C1423 C1425 1.387 . S
H1424 C1431 0.950 . S
C1425 C1423 1.387 . S
C1425 C1427 1.390 . S
C1425 H1429 0.950 . S
H1426 C1422 0.950 . S
C1427 C1425 1.390 . S
C1427 C1428 1.387 . S
C1427 H1430 0.950 . S
C1428 C1427 1.387 . S
C1428 C1431 1.387 . S
H1429 C1425 0.950 . S
H1430 C1427 0.950 . S
C1431 C1422 1.390 . S
C1431 H1424 0.950 . S
C1431 C1428 1.387 . S
C1432 C1433 1.387 . S
C1432 H1436 0.950 . S
C1432 C1441 1.390 . S
C1433 C1432 1.387 . S
C1433 C1435 1.387 . S
H1434 C1441 0.950 . S
C1435 C1433 1.387 . S
C1435 C1437 1.390 . S
C1435 H1439 0.950 . S
H1436 C1432 0.950 . S
C1437 C1435 1.390 . S
C1437 C1438 1.387 . S
C1437 H1440 0.950 . S
C1438 C1437 1.387 . S
C1438 C1441 1.387 . S
H1439 C1435 0.950 . S
H1440 C1437 0.950 . S
C1441 C1432 1.390 . S
C1441 H1434 0.950 . S
C1441 C1438 1.387 . S
C1442 C1443 1.387 . S
C1442 H1446 0.950 . S
C1442 C1451 1.390 . S
C1443 C1442 1.387 . S
C1443 C1445 1.387 . S
H1444 C1451 0.950 . S
C1445 C1443 1.387 . S
C1445 C1447 1.390 . S
C1445 H1449 0.950 . S
H1446 C1442 0.950 . S
C1447 C1445 1.390 . S
C1447 C1448 1.387 . S
C1447 H1450 0.950 . S
C1448 C1447 1.387 . S
C1448 C1451 1.387 . S
H1449 C1445 0.950 . S
H1450 C1447 0.950 . S
C1451 C1442 1.390 . S
C1451 H1444 0.950 . S
C1451 C1448 1.387 . S
C1452 C1453 1.387 . S
C1452 H1456 0.950 1_556 S
C1452 C1461 1.390 1_556 S
C1453 C1452 1.387 . S
C1453 C1455 1.387 . S
H1454 C1461 0.950 . S
C1455 C1453 1.387 . S
C1455 C1457 1.390 . S
C1455 H1459 0.950 . S
H1456 C1452 0.950 1_554 S
C1457 C1455 1.390 . S
C1457 C1458 1.387 . S
C1457 H1460 0.950 . S
C1458 C1457 1.387 . S
C1458 C1461 1.387 1_556 S
H1459 C1455 0.950 . S
H1460 C1457 0.950 . S
C1461 C1452 1.390 1_554 S
C1461 H1454 0.950 . S
C1461 C1458 1.387 1_554 S
C1462 C1463 1.387 . S
C1462 H1466 0.950 . S
C1462 C1471 1.390 1_455 S
C1463 C1462 1.387 . S
C1463 C1465 1.387 . S
H1464 C1471 0.950 . S
C1465 C1463 1.387 . S
C1465 C1467 1.390 1_455 S
C1465 H1469 0.950 . S
H1466 C1462 0.950 . S
C1467 C1465 1.390 1_655 S
C1467 C1468 1.387 . S
C1467 H1470 0.950 . S
C1468 C1467 1.387 . S
C1468 C1471 1.387 . S
H1469 C1465 0.950 . S
H1470 C1467 0.950 . S
C1471 C1462 1.390 1_655 S
C1471 H1464 0.950 . S
C1471 C1468 1.387 . S
C1472 C1473 1.387 . S
C1472 H1476 0.950 . S
C1472 C1481 1.390 . S
C1473 C1472 1.387 . S
C1473 C1475 1.387 . S
H1474 C1481 0.950 . S
C1475 C1473 1.387 . S
C1475 C1477 1.390 . S
C1475 H1479 0.950 . S
H1476 C1472 0.950 . S
C1477 C1475 1.390 . S
C1477 C1478 1.387 . S
C1477 H1480 0.950 . S
C1478 C1477 1.387 . S
C1478 C1481 1.387 . S
H1479 C1475 0.950 . S
H1480 C1477 0.950 . S
C1481 C1472 1.390 . S
C1481 H1474 0.950 . S
C1481 C1478 1.387 . S
C1482 C1483 1.387 . S
C1482 H1486 0.950 . S
C1482 C1491 1.390 . S
C1483 C1482 1.387 . S
C1483 C1485 1.387 . S
H1484 C1491 0.950 . S
C1485 C1483 1.387 . S
C1485 C1487 1.390 . S
C1485 H1489 0.950 . S
H1486 C1482 0.950 . S
C1487 C1485 1.390 . S
C1487 C1488 1.387 . S
C1487 H1490 0.950 . S
C1488 C1487 1.387 . S
C1488 C1491 1.387 . S
H1489 C1485 0.950 . S
H1490 C1487 0.950 . S
C1491 C1482 1.390 . S
C1491 H1484 0.950 . S
C1491 C1488 1.387 . S
C1492 C1493 1.387 . S
C1492 H1496 0.950 . S
C1492 C1501 1.390 . S
C1493 C1492 1.387 . S
C1493 C1495 1.387 . S
H1494 C1501 0.950 . S
C1495 C1493 1.387 . S
C1495 C1497 1.390 . S
C1495 H1499 0.950 . S
H1496 C1492 0.950 . S
C1497 C1495 1.390 . S
C1497 C1498 1.387 . S
C1497 H1500 0.950 . S
C1498 C1497 1.387 . S
C1498 C1501 1.387 . S
H1499 C1495 0.950 . S
H1500 C1497 0.950 . S
C1501 C1492 1.390 . S
C1501 H1494 0.950 . S
C1501 C1498 1.387 . S
C1502 C1503 1.387 . S
C1502 H1506 0.950 . S
C1502 C1511 1.390 . S
C1503 C1502 1.387 . S
C1503 C1505 1.387 . S
H1504 C1511 0.950 . S
C1505 C1503 1.387 . S
C1505 C1507 1.390 . S
C1505 H1509 0.950 . S
H1506 C1502 0.950 . S
C1507 C1505 1.390 . S
C1507 C1508 1.387 . S
C1507 H1510 0.950 . S
C1508 C1507 1.387 . S
C1508 C1511 1.387 . S
H1509 C1505 0.950 . S
H1510 C1507 0.950 . S
C1511 C1502 1.390 . S
C1511 H1504 0.950 . S
C1511 C1508 1.387 . S
C1512 C1513 1.387 . S
C1512 H1516 0.950 . S
C1512 C1521 1.390 . S
C1513 C1512 1.387 . S
C1513 C1515 1.387 . S
H1514 C1521 0.950 . S
C1515 C1513 1.387 . S
C1515 C1517 1.390 . S
C1515 H1519 0.950 . S
H1516 C1512 0.950 . S
C1517 C1515 1.390 . S
C1517 C1518 1.387 . S
C1517 H1520 0.950 . S
C1518 C1517 1.387 . S
C1518 C1521 1.387 . S
H1519 C1515 0.950 . S
H1520 C1517 0.950 . S
C1521 C1512 1.390 . S
C1521 H1514 0.950 . S
C1521 C1518 1.387 . S
C1522 C1523 1.387 . S
C1522 H1526 0.950 . S
C1522 C1531 1.390 . S
C1523 C1522 1.387 . S
C1523 C1525 1.387 . S
H1524 C1531 0.950 . S
C1525 C1523 1.387 . S
C1525 C1527 1.390 . S
C1525 H1529 0.950 . S
H1526 C1522 0.950 . S
C1527 C1525 1.390 . S
C1527 C1528 1.387 . S
C1527 H1530 0.950 . S
C1528 C1527 1.387 . S
C1528 C1531 1.387 . S
H1529 C1525 0.950 . S
H1530 C1527 0.950 . S
C1531 C1522 1.390 . S
C1531 H1524 0.950 . S
C1531 C1528 1.387 . S
C1532 C1533 1.387 . S
C1532 H1536 0.950 . S
C1532 C1541 1.390 . S
C1533 C1532 1.387 . S
C1533 C1535 1.387 . S
H1534 C1541 0.950 . S
C1535 C1533 1.387 . S
C1535 C1537 1.390 . S
C1535 H1539 0.950 . S
H1536 C1532 0.950 . S
C1537 C1535 1.390 . S
C1537 C1538 1.387 . S
C1537 H1540 0.950 . S
C1538 C1537 1.387 . S
C1538 C1541 1.387 . S
H1539 C1535 0.950 . S
H1540 C1537 0.950 . S
C1541 C1532 1.390 . S
C1541 H1534 0.950 . S
C1541 C1538 1.387 . S
C1542 C1543 1.387 . S
C1542 H1546 0.950 . S
C1542 C1551 1.390 . S
C1543 C1542 1.387 . S
C1543 C1545 1.387 . S
H1544 C1551 0.950 . S
C1545 C1543 1.387 . S
C1545 C1547 1.390 . S
C1545 H1549 0.950 . S
H1546 C1542 0.950 . S
C1547 C1545 1.390 . S
C1547 C1548 1.387 . S
C1547 H1550 0.950 . S
C1548 C1547 1.387 . S
C1548 C1551 1.387 . S
H1549 C1545 0.950 . S
H1550 C1547 0.950 . S
C1551 C1542 1.390 . S
C1551 H1544 0.950 . S
C1551 C1548 1.387 . S
C1552 C1553 1.387 . S
C1552 H1556 0.950 . S
C1552 C1561 1.390 . S
C1553 C1552 1.387 . S
C1553 C1555 1.387 . S
H1554 C1561 0.950 . S
C1555 C1553 1.387 . S
C1555 C1557 1.390 . S
C1555 H1559 0.950 . S
H1556 C1552 0.950 . S
C1557 C1555 1.390 . S
C1557 C1558 1.387 . S
C1557 H1560 0.950 . S
C1558 C1557 1.387 . S
C1558 C1561 1.387 . S
H1559 C1555 0.950 . S
H1560 C1557 0.950 . S
C1561 C1552 1.390 . S
C1561 H1554 0.950 . S
C1561 C1558 1.387 . S
C1562 C1563 1.387 . S
C1562 H1566 0.950 . S
C1562 C1571 1.390 . S
C1563 C1562 1.387 . S
C1563 C1565 1.387 . S
H1564 C1571 0.950 . S
C1565 C1563 1.387 . S
C1565 C1567 1.390 . S
C1565 H1569 0.950 . S
H1566 C1562 0.950 . S
C1567 C1565 1.390 . S
C1567 C1568 1.387 . S
C1567 H1570 0.950 . S
C1568 C1567 1.387 . S
C1568 C1571 1.387 . S
H1569 C1565 0.950 . S
H1570 C1567 0.950 . S
C1571 C1562 1.390 . S
C1571 H1564 0.950 . S
C1571 C1568 1.387 . S
C1572 C1573 1.387 . S
C1572 H1576 0.950 . S
C1572 C1581 1.390 . S
C1573 C1572 1.387 . S
C1573 C1575 1.387 . S
H1574 C1581 0.950 . S
C1575 C1573 1.387 . S
C1575 C1577 1.390 . S
C1575 H1579 0.950 . S
H1576 C1572 0.950 . S
C1577 C1575 1.390 . S
C1577 C1578 1.387 . S
C1577 H1580 0.950 . S
C1578 C1577 1.387 . S
C1578 C1581 1.387 . S
H1579 C1575 0.950 . S
H1580 C1577 0.950 . S
C1581 C1572 1.390 . S
C1581 H1574 0.950 . S
C1581 C1578 1.387 . S
C1582 C1583 1.387 . S
C1582 H1586 0.950 . S
C1582 C1591 1.390 . S
C1583 C1582 1.387 . S
C1583 C1585 1.387 . S
H1584 C1591 0.950 . S
C1585 C1583 1.387 . S
C1585 C1587 1.390 . S
C1585 H1589 0.950 . S
H1586 C1582 0.950 . S
C1587 C1585 1.390 . S
C1587 C1588 1.387 . S
C1587 H1590 0.950 . S
C1588 C1587 1.387 . S
C1588 C1591 1.387 . S
H1589 C1585 0.950 . S
H1590 C1587 0.950 . S
C1591 C1582 1.390 . S
C1591 H1584 0.950 . S
C1591 C1588 1.387 . S
C1592 C1593 1.387 . S
C1592 H1596 0.950 . S
C1592 C1601 1.390 . S
C1593 C1592 1.387 . S
C1593 C1595 1.387 . S
H1594 C1601 0.950 . S
C1595 C1593 1.387 . S
C1595 C1597 1.390 . S
C1595 H1599 0.950 . S
H1596 C1592 0.950 . S
C1597 C1595 1.390 . S
C1597 C1598 1.387 . S
C1597 H1600 0.950 . S
C1598 C1597 1.387 . S
C1598 C1601 1.387 . S
H1599 C1595 0.950 . S
H1600 C1597 0.950 . S
C1601 C1592 1.390 . S
C1601 H1594 0.950 . S
C1601 C1598 1.387 . S
C1602 C1603 1.387 . S
C1602 H1606 0.950 . S
C1602 C1611 1.390 . S
C1603 C1602 1.387 . S
C1603 C1605 1.387 . S
H1604 C1611 0.950 . S
C1605 C1603 1.387 . S
C1605 C1607 1.390 . S
C1605 H1609 0.950 . S
H1606 C1602 0.950 . S
C1607 C1605 1.390 . S
C1607 C1608 1.387 . S
C1607 H1610 0.950 . S
C1608 C1607 1.387 . S
C1608 C1611 1.387 . S
H1609 C1605 0.950 . S
H1610 C1607 0.950 . S
C1611 C1602 1.390 . S
C1611 H1604 0.950 . S
C1611 C1608 1.387 . S
C1612 C1613 1.387 . S
C1612 H1616 0.950 . S
C1612 C1621 1.390 . S
C1613 C1612 1.387 . S
C1613 C1615 1.387 . S
H1614 C1621 0.950 . S
C1615 C1613 1.387 . S
C1615 C1617 1.390 . S
C1615 H1619 0.950 . S
H1616 C1612 0.950 . S
C1617 C1615 1.390 . S
C1617 C1618 1.387 . S
C1617 H1620 0.950 . S
C1618 C1617 1.387 . S
C1618 C1621 1.387 . S
H1619 C1615 0.950 . S
H1620 C1617 0.950 . S
C1621 C1612 1.390 . S
C1621 H1614 0.950 . S
C1621 C1618 1.387 . S
C1622 C1623 1.392 . S
C1622 H1626 0.948 1_545 S
C1622 C1631 1.385 1_545 S
C1623 C1622 1.392 . S
C1623 C1625 1.387 1_554 S
H1624 C1631 0.957 . S
C1625 C1623 1.387 1_556 S
C1625 C1627 1.390 . S
C1625 H1629 0.950 . S
H1626 C1622 0.948 1_565 S
C1627 C1625 1.390 . S
C1627 C1628 1.387 1_556 S
C1627 H1630 0.950 . S
C1628 C1627 1.387 1_554 S
C1628 C1631 1.384 1_545 S
H1629 C1625 0.950 . S
H1630 C1627 0.950 . S
C1631 C1622 1.385 1_565 S
C1631 H1624 0.957 . S
C1631 C1628 1.384 1_565 S
C1632 C1633 1.387 . S
C1632 H1636 0.950 . S
C1632 C1641 1.390 . S
C1633 C1632 1.387 . S
C1633 C1635 1.387 . S
H1634 C1641 0.950 . S
C1635 C1633 1.387 . S
C1635 C1637 1.390 . S
C1635 H1639 0.950 . S
H1636 C1632 0.950 . S
C1637 C1635 1.390 . S
C1637 C1638 1.387 . S
C1637 H1640 0.950 . S
C1638 C1637 1.387 . S
C1638 C1641 1.387 . S
H1639 C1635 0.950 . S
H1640 C1637 0.950 . S
C1641 C1632 1.390 . S
C1641 H1634 0.950 . S
C1641 C1638 1.387 . S
C1642 C1643 1.387 . S
C1642 H1646 0.950 1_554 S
C1642 C1651 1.390 . S
C1643 C1642 1.387 . S
C1643 C1645 1.387 . S
H1644 C1651 0.950 . S
C1645 C1643 1.387 . S
C1645 C1647 1.390 . S
C1645 H1649 0.950 . S
H1646 C1642 0.950 1_556 S
C1647 C1645 1.390 . S
C1647 C1648 1.387 . S
C1647 H1650 0.950 . S
C1648 C1647 1.387 . S
C1648 C1651 1.387 . S
H1649 C1645 0.950 . S
H1650 C1647 0.950 . S
C1651 C1642 1.390 . S
C1651 H1644 0.950 . S
C1651 C1648 1.387 . S
C1652 C1653 1.387 . S
C1652 H1656 0.950 . S
C1652 C1661 1.390 . S
C1653 C1652 1.387 . S
C1653 C1655 1.387 . S
H1654 C1661 0.950 . S
C1655 C1653 1.387 . S
C1655 C1657 1.390 . S
C1655 H1659 0.950 . S
H1656 C1652 0.950 . S
C1657 C1655 1.390 . S
C1657 C1658 1.387 . S
C1657 H1660 0.950 . S
C1658 C1657 1.387 . S
C1658 C1661 1.387 . S
H1659 C1655 0.950 . S
H1660 C1657 0.950 . S
C1661 C1652 1.390 . S
C1661 H1654 0.950 . S
C1661 C1658 1.387 . S
C1662 C1663 1.387 . S
C1662 H1666 0.950 . S
C1662 C1671 1.390 . S
C1663 C1662 1.387 . S
C1663 C1665 1.387 . S
H1664 C1671 0.950 . S
C1665 C1663 1.387 . S
C1665 C1667 1.390 . S
C1665 H1669 0.950 . S
H1666 C1662 0.950 . S
C1667 C1665 1.390 . S
C1667 C1668 1.387 . S
C1667 H1670 0.950 . S
C1668 C1667 1.387 . S
C1668 C1671 1.387 . S
H1669 C1665 0.950 . S
H1670 C1667 0.950 . S
C1671 C1662 1.390 . S
C1671 H1664 0.950 . S
C1671 C1668 1.387 . S
C1672 C1673 1.387 . S
C1672 H1676 0.950 . S
C1672 C1681 1.390 . S
C1673 C1672 1.387 . S
C1673 C1675 1.387 . S
H1674 C1681 0.950 . S
C1675 C1673 1.387 . S
C1675 C1677 1.390 . S
C1675 H1679 0.950 . S
H1676 C1672 0.950 . S
C1677 C1675 1.390 . S
C1677 C1678 1.387 . S
C1677 H1680 0.950 . S
C1678 C1677 1.387 . S
C1678 C1681 1.387 . S
H1679 C1675 0.950 . S
H1680 C1677 0.950 . S
C1681 C1672 1.390 . S
C1681 H1674 0.950 . S
C1681 C1678 1.387 . S
C1682 C1683 1.387 . S
C1682 H1686 0.950 . S
C1682 C1691 1.390 . S
C1683 C1682 1.387 . S
C1683 C1685 1.387 . S
H1684 C1691 0.950 . S
C1685 C1683 1.387 . S
C1685 C1687 1.390 . S
C1685 H1689 0.950 . S
H1686 C1682 0.950 . S
C1687 C1685 1.390 . S
C1687 C1688 1.387 . S
C1687 H1690 0.950 . S
C1688 C1687 1.387 . S
C1688 C1691 1.387 . S
H1689 C1685 0.950 . S
H1690 C1687 0.950 . S
C1691 C1682 1.390 . S
C1691 H1684 0.950 . S
C1691 C1688 1.387 . S
C1692 C1693 1.387 . S
C1692 H1696 0.950 . S
C1692 C1701 1.390 . S
C1693 C1692 1.387 . S
C1693 C1695 1.387 . S
H1694 C1701 0.950 . S
C1695 C1693 1.387 . S
C1695 C1697 1.390 . S
C1695 H1699 0.950 . S
H1696 C1692 0.950 . S
C1697 C1695 1.390 . S
C1697 C1698 1.387 . S
C1697 H1700 0.950 . S
C1698 C1697 1.387 . S
C1698 C1701 1.387 . S
H1699 C1695 0.950 . S
H1700 C1697 0.950 . S
C1701 C1692 1.390 . S
C1701 H1694 0.950 . S
C1701 C1698 1.387 . S
C1702 C1703 1.387 . S
C1702 H1706 0.950 . S
C1702 C1711 1.390 . S
C1703 C1702 1.387 . S
C1703 C1705 1.387 . S
H1704 C1711 0.950 . S
C1705 C1703 1.387 . S
C1705 C1707 1.390 . S
C1705 H1709 0.950 . S
H1706 C1702 0.950 . S
C1707 C1705 1.390 . S
C1707 C1708 1.387 . S
C1707 H1710 0.950 . S
C1708 C1707 1.387 . S
C1708 C1711 1.387 . S
H1709 C1705 0.950 . S
H1710 C1707 0.950 . S
C1711 C1702 1.390 . S
C1711 H1704 0.950 . S
C1711 C1708 1.387 . S
C1712 C1713 1.387 . S
C1712 H1716 0.950 1_556 S
C1712 C1721 1.390 . S
C1713 C1712 1.387 . S
C1713 C1715 1.387 . S
H1714 C1721 0.950 1_554 S
C1715 C1713 1.387 . S
C1715 C1717 1.390 . S
C1715 H1719 0.950 . S
H1716 C1712 0.950 1_554 S
C1717 C1715 1.390 . S
C1717 C1718 1.387 . S
C1717 H1720 0.950 . S
C1718 C1717 1.387 . S
C1718 C1721 1.387 . S
H1719 C1715 0.950 . S
H1720 C1717 0.950 . S
C1721 C1712 1.390 . S
C1721 H1714 0.950 1_556 S
C1721 C1718 1.387 . S
C1722 C1723 1.387 . S
C1722 H1726 0.950 . S
C1722 C1731 1.390 . S
C1723 C1722 1.387 . S
C1723 C1725 1.387 . S
H1724 C1731 0.950 . S
C1725 C1723 1.387 . S
C1725 C1727 1.390 . S
C1725 H1729 0.950 . S
H1726 C1722 0.950 . S
C1727 C1725 1.390 . S
C1727 C1728 1.387 . S
C1727 H1730 0.950 . S
C1728 C1727 1.387 . S
C1728 C1731 1.387 . S
H1729 C1725 0.950 . S
H1730 C1727 0.950 . S
C1731 C1722 1.390 . S
C1731 H1724 0.950 . S
C1731 C1728 1.387 . S
C1732 C1733 1.387 . S
C1732 H1736 0.950 . S
C1732 C1741 1.390 . S
C1733 C1732 1.387 . S
C1733 C1735 1.387 . S
H1734 C1741 0.950 . S
C1735 C1733 1.387 . S
C1735 C1737 1.390 . S
C1735 H1739 0.950 . S
H1736 C1732 0.950 . S
C1737 C1735 1.390 . S
C1737 C1738 1.387 . S
C1737 H1740 0.950 . S
C1738 C1737 1.387 . S
C1738 C1741 1.387 . S
H1739 C1735 0.950 . S
H1740 C1737 0.950 . S
C1741 C1732 1.390 . S
C1741 H1734 0.950 . S
C1741 C1738 1.387 . S
C1742 C1743 1.387 . S
C1742 H1746 0.950 . S
C1742 C1751 1.390 . S
C1743 C1742 1.387 . S
C1743 C1745 1.387 . S
H1744 C1751 0.950 . S
C1745 C1743 1.387 . S
C1745 C1747 1.390 . S
C1745 H1749 0.950 . S
H1746 C1742 0.950 . S
C1747 C1745 1.390 . S
C1747 C1748 1.387 . S
C1747 H1750 0.950 . S
C1748 C1747 1.387 . S
C1748 C1751 1.387 . S
H1749 C1745 0.950 . S
H1750 C1747 0.950 . S
C1751 C1742 1.390 . S
C1751 H1744 0.950 . S
C1751 C1748 1.387 . S
C1752 C1753 1.387 . S
C1752 H1756 0.950 . S
C1752 C1761 1.390 . S
C1753 C1752 1.387 . S
C1753 C1755 1.387 . S
H1754 C1761 0.950 . S
C1755 C1753 1.387 . S
C1755 C1757 1.390 . S
C1755 H1759 0.950 . S
H1756 C1752 0.950 . S
C1757 C1755 1.390 . S
C1757 C1758 1.387 . S
C1757 H1760 0.950 . S
C1758 C1757 1.387 . S
C1758 C1761 1.387 . S
H1759 C1755 0.950 . S
H1760 C1757 0.950 . S
C1761 C1752 1.390 . S
C1761 H1754 0.950 . S
C1761 C1758 1.387 . S
C1762 C1763 1.387 . S
C1762 H1766 0.950 . S
C1762 C1771 1.390 . S
C1763 C1762 1.387 . S
C1763 C1765 1.387 . S
H1764 C1771 0.950 . S
C1765 C1763 1.387 . S
C1765 C1767 1.390 . S
C1765 H1769 0.950 . S
H1766 C1762 0.950 . S
C1767 C1765 1.390 . S
C1767 C1768 1.387 . S
C1767 H1770 0.950 . S
C1768 C1767 1.387 . S
C1768 C1771 1.387 . S
H1769 C1765 0.950 . S
H1770 C1767 0.950 . S
C1771 C1762 1.390 . S
C1771 H1764 0.950 . S
C1771 C1768 1.387 . S
C1772 C1773 1.387 1_455 S
C1772 H1776 0.950 1_455 S
C1772 C1781 1.390 . S
C1773 C1772 1.387 1_655 S
C1773 C1775 1.387 . S
H1774 C1781 0.950 . S
C1775 C1773 1.387 . S
C1775 C1777 1.390 1_655 S
C1775 H1779 0.950 . S
H1776 C1772 0.950 1_655 S
C1777 C1775 1.390 1_455 S
C1777 C1778 1.387 . S
C1777 H1780 0.950 . S
C1778 C1777 1.387 . S
C1778 C1781 1.387 . S
H1779 C1775 0.950 . S
H1780 C1777 0.950 . S
C1781 C1772 1.390 . S
C1781 H1774 0.950 . S
C1781 C1778 1.387 . S
C1782 C1783 1.387 . S
C1782 H1786 0.950 . S
C1782 C1791 1.390 . S
C1783 C1782 1.387 . S
C1783 C1785 1.387 . S
H1784 C1791 0.950 . S
C1785 C1783 1.387 . S
C1785 C1787 1.390 . S
C1785 H1789 0.950 . S
H1786 C1782 0.950 . S
C1787 C1785 1.390 . S
C1787 C1788 1.387 . S
C1787 H1790 0.950 . S
C1788 C1787 1.387 . S
C1788 C1791 1.387 . S
H1789 C1785 0.950 . S
H1790 C1787 0.950 . S
C1791 C1782 1.390 . S
C1791 H1784 0.950 . S
C1791 C1788 1.387 . S
C1792 C1793 1.387 . S
C1792 H1796 0.950 . S
C1792 C1801 1.390 . S
C1793 C1792 1.387 . S
C1793 C1795 1.387 . S
H1794 C1801 0.950 . S
C1795 C1793 1.387 . S
C1795 C1797 1.390 . S
C1795 H1799 0.950 . S
H1796 C1792 0.950 . S
C1797 C1795 1.390 . S
C1797 C1798 1.387 . S
C1797 H1800 0.950 . S
C1798 C1797 1.387 . S
C1798 C1801 1.387 . S
H1799 C1795 0.950 . S
H1800 C1797 0.950 . S
C1801 C1792 1.390 . S
C1801 H1794 0.950 . S
C1801 C1798 1.387 . S
C1802 C1803 1.387 . S
C1802 H1806 0.950 . S
C1802 C1811 1.390 . S
C1803 C1802 1.387 . S
C1803 C1805 1.387 . S
H1804 C1811 0.950 . S
C1805 C1803 1.387 . S
C1805 C1807 1.390 . S
C1805 H1809 0.950 . S
H1806 C1802 0.950 . S
C1807 C1805 1.390 . S
C1807 C1808 1.387 . S
C1807 H1810 0.950 . S
C1808 C1807 1.387 . S
C1808 C1811 1.387 . S
H1809 C1805 0.950 . S
H1810 C1807 0.950 . S
C1811 C1802 1.390 . S
C1811 H1804 0.950 . S
C1811 C1808 1.387 . S
C1812 C1813 1.387 . S
C1812 H1816 0.950 . S
C1812 C1821 1.390 . S
C1813 C1812 1.387 . S
C1813 C1815 1.387 . S
H1814 C1821 0.950 . S
C1815 C1813 1.387 . S
C1815 C1817 1.390 . S
C1815 H1819 0.950 . S
H1816 C1812 0.950 . S
C1817 C1815 1.390 . S
C1817 C1818 1.387 . S
C1817 H1820 0.950 . S
C1818 C1817 1.387 . S
C1818 C1821 1.387 . S
H1819 C1815 0.950 . S
H1820 C1817 0.950 . S
C1821 C1812 1.390 . S
C1821 H1814 0.950 . S
C1821 C1818 1.387 . S
C1822 C1823 1.387 . S
C1822 H1826 0.950 . S
C1822 C1831 1.390 . S
C1823 C1822 1.387 . S
C1823 C1825 1.387 . S
H1824 C1831 0.950 . S
C1825 C1823 1.387 . S
C1825 C1827 1.390 . S
C1825 H1829 0.950 . S
H1826 C1822 0.950 . S
C1827 C1825 1.390 . S
C1827 C1828 1.387 . S
C1827 H1830 0.950 . S
C1828 C1827 1.387 . S
C1828 C1831 1.387 . S
H1829 C1825 0.950 . S
H1830 C1827 0.950 . S
C1831 C1822 1.390 . S
C1831 H1824 0.950 . S
C1831 C1828 1.387 . S
C1832 C1833 1.387 . S
C1832 H1836 0.950 . S
C1832 C1841 1.390 . S
C1833 C1832 1.387 . S
C1833 C1835 1.387 . S
H1834 C1841 0.950 . S
C1835 C1833 1.387 . S
C1835 C1837 1.390 . S
C1835 H1839 0.950 . S
H1836 C1832 0.950 . S
C1837 C1835 1.390 . S
C1837 C1838 1.387 . S
C1837 H1840 0.950 . S
C1838 C1837 1.387 . S
C1838 C1841 1.387 . S
H1839 C1835 0.950 . S
H1840 C1837 0.950 . S
C1841 C1832 1.390 . S
C1841 H1834 0.950 . S
C1841 C1838 1.387 . S
C1842 C1843 1.387 . S
C1842 H1846 0.950 . S
C1842 C1851 1.390 . S
C1843 C1842 1.387 . S
C1843 C1845 1.387 . S
H1844 C1851 0.950 . S
C1845 C1843 1.387 . S
C1845 C1847 1.390 . S
C1845 H1849 0.950 . S
H1846 C1842 0.950 . S
C1847 C1845 1.390 . S
C1847 C1848 1.387 . S
C1847 H1850 0.950 1_565 S
C1848 C1847 1.387 . S
C1848 C1851 1.387 . S
H1849 C1845 0.950 . S
H1850 C1847 0.950 1_545 S
C1851 C1842 1.390 . S
C1851 H1844 0.950 . S
C1851 C1848 1.387 . S
C1852 C1853 1.387 . S
C1852 H1856 0.950 . S
C1852 C1861 1.390 . S
C1853 C1852 1.387 . S
C1853 C1855 1.387 . S
H1854 C1861 0.950 . S
C1855 C1853 1.387 . S
C1855 C1857 1.390 . S
C1855 H1859 0.950 . S
H1856 C1852 0.950 . S
C1857 C1855 1.390 . S
C1857 C1858 1.387 . S
C1857 H1860 0.950 . S
C1858 C1857 1.387 . S
C1858 C1861 1.387 . S
H1859 C1855 0.950 . S
H1860 C1857 0.950 . S
C1861 C1852 1.390 . S
C1861 H1854 0.950 . S
C1861 C1858 1.387 . S
C1862 C1863 1.387 . S
C1862 H1866 0.950 . S
C1862 C1871 1.390 . S
C1863 C1862 1.387 . S
C1863 C1865 1.387 . S
H1864 C1871 0.950 . S
C1865 C1863 1.387 . S
C1865 C1867 1.390 . S
C1865 H1869 0.950 . S
H1866 C1862 0.950 . S
C1867 C1865 1.390 . S
C1867 C1868 1.387 . S
C1867 H1870 0.950 . S
C1868 C1867 1.387 . S
C1868 C1871 1.387 . S
H1869 C1865 0.950 . S
H1870 C1867 0.950 . S
C1871 C1862 1.390 . S
C1871 H1864 0.950 . S
C1871 C1868 1.387 . S
C1872 C1873 1.387 . S
C1872 H1876 0.950 . S
C1872 C1881 1.390 . S
C1873 C1872 1.387 . S
C1873 C1875 1.387 . S
H1874 C1881 0.950 . S
C1875 C1873 1.387 . S
C1875 C1877 1.390 . S
C1875 H1879 0.950 . S
H1876 C1872 0.950 . S
C1877 C1875 1.390 . S
C1877 C1878 1.387 . S
C1877 H1880 0.950 . S
C1878 C1877 1.387 . S
C1878 C1881 1.387 . S
H1879 C1875 0.950 . S
H1880 C1877 0.950 . S
C1881 C1872 1.390 . S
C1881 H1874 0.950 . S
C1881 C1878 1.387 . S
C1882 C1883 1.387 . S
C1882 H1886 0.950 . S
C1882 C1891 1.390 . S
C1883 C1882 1.387 . S
C1883 C1885 1.387 1_554 S
H1884 C1891 0.950 . S
C1885 C1883 1.387 1_556 S
C1885 C1887 1.390 . S
C1885 H1889 0.950 . S
H1886 C1882 0.950 . S
C1887 C1885 1.390 . S
C1887 C1888 1.387 . S
C1887 H1890 0.950 . S
C1888 C1887 1.387 . S
C1888 C1891 1.387 1_556 S
H1889 C1885 0.950 . S
H1890 C1887 0.950 . S
C1891 C1882 1.390 . S
C1891 H1884 0.950 . S
C1891 C1888 1.387 1_554 S
C1892 C1893 1.387 . S
C1892 H1896 0.950 . S
C1892 C1901 1.390 . S
C1893 C1892 1.387 . S
C1893 C1895 1.387 . S
H1894 C1901 0.950 . S
C1895 C1893 1.387 . S
C1895 C1897 1.390 . S
C1895 H1899 0.950 . S
H1896 C1892 0.950 . S
C1897 C1895 1.390 . S
C1897 C1898 1.387 . S
C1897 H1900 0.950 . S
C1898 C1897 1.387 . S
C1898 C1901 1.387 . S
H1899 C1895 0.950 . S
H1900 C1897 0.950 . S
C1901 C1892 1.390 . S
C1901 H1894 0.950 . S
C1901 C1898 1.387 . S
C1902 C1903 1.387 . S
C1902 H1906 0.950 . S
C1902 C1911 1.390 . S
C1903 C1902 1.387 . S
C1903 C1905 1.387 . S
H1904 C1911 0.950 . S
C1905 C1903 1.387 . S
C1905 C1907 1.390 . S
C1905 H1909 0.950 . S
H1906 C1902 0.950 . S
C1907 C1905 1.390 . S
C1907 C1908 1.387 . S
C1907 H1910 0.950 . S
C1908 C1907 1.387 . S
C1908 C1911 1.387 . S
H1909 C1905 0.950 . S
H1910 C1907 0.950 . S
C1911 C1902 1.390 . S
C1911 H1904 0.950 . S
C1911 C1908 1.387 . S
C953 C101 1.136 . S
C958 C320 1.160 . S
C963 C57 1.486 . S
C968 C354 1.481 . S
C973 C73 0.810 . S
C978 C423 0.812 . S
C988 C461 0.989 . S
C983 C78 0.980 . S
C993 C21 1.583 . S
C998 C501 1.688 . S
C1008 C520 0.527 . S
C1003 C31 0.549 . S
C1018 C554 1.552 . S
C1013 C49 1.515 . S
C1023 C0 1.715 . S
C1028 C623 1.775 . S
C1038 C329 2.494 . S
C1033 C218 2.530 1_455 S
C1043 C229 1.191 . S
C1048 C381 1.265 . S
C1058 C394 1.360 . S
C1053 C257 1.358 . S
C1068 C463 1.664 . S
C1063 C164 1.568 . S
C1073 C216 1.952 1_455 S
C1078 C503 2.120 . S
C1088 C529 1.859 . S
C1083 C231 1.874 . S
C1098 C581 0.623 . S
C1093 C255 0.627 . S
C1108 C594 2.335 . S
C1103 C166 2.355 . S
C1118 C324 2.509 . S
C1113 C143 2.425 1_545 S
C1123 C265 1.970 . S
C1128 C634 2.004 . S
C1138 C684 2.653 . S
C1133 C299 2.643 . S
C1148 C743 1.872 1_655 S
C1143 C291 1.717 . S
C1153 C104 1.574 . S
C1158 C621 1.701 . S
C1163 C117 1.424 . S
C1168 C421 1.512 . S
C1173 C304 2.374 . S
C1178 C754 2.413 . S
C1188 C823 0.872 . S
C1183 C278 0.888 . S
C1198 C341 1.157 . S
C1193 C60 1.162 . S
C1208 C809 1.458 . S
C1203 C96 1.459 . S
C1213 C88 0.741 . S
C1218 C404 0.740 . S
C1223 C65 0.905 . S
C1228 C760 0.928 . S
C1238 C480 1.677 . S
C1233 C10 1.744 . S
C1243 C44 0.516 . S
C1248 C701 0.508 . S
C1258 C569 1.464 1_556 S
C1253 C34 1.257 . S
C1268 C844 1.795 . S
C1263 C13 1.892 . S
C1278 C314 2.490 . S
C1273 C138 2.487 . S
C1288 C800 1.302 . S
C1283 C296 1.317 . S
C1293 C112 1.303 . S
C1298 C409 1.306 . S
C1303 C270 1.589 . S
C1308 C764 1.592 . S
C1313 C140 2.024 . S
C1318 C484 2.056 . S
C1328 C674 1.847 . S
C1323 C294 1.824 . S
C1333 C114 0.518 . S
C1338 C560 0.578 . S
C1343 C268 2.326 . S
C1348 C849 2.312 . S
C1353 C169 2.445 . S
C1358 C343 2.436 1_655 S
C1363 C161 1.963 . S
C1368 C649 1.957 . S
C1373 C234 2.598 . S
C1378 C543 2.599 . S
C1383 C226 1.616 . S
C1388 C724 1.765 . S
C1398 C840 1.742 . S
C1393 C247 1.905 . S
C1403 C195 1.639 . S
C1408 C400 1.534 . S
C1418 C449 2.323 . S
C1413 C239 2.316 . S
C1428 C364 0.862 . S
C1423 C187 0.886 . S
C1433 C75 1.138 . S
C1438 C880 1.161 . S
C1448 C794 1.480 . S
C1443 C83 1.486 . S
C1453 C99 0.811 . S
C1458 C943 0.812 . S
C1463 C52 0.982 . S
C1468 C781 0.989 . S
C1473 C47 1.582 . S
C1478 C661 1.690 . S
C1488 C680 0.527 1_455 S
C1483 C5 0.549 . S
C1498 C714 1.555 . S
C1493 C23 1.516 1_455 S
C1508 C863 1.778 . S
C1503 C26 1.715 . S
C1518 C889 2.493 . S
C1513 C244 2.530 . S
C1523 C177 1.195 . S
C1528 C821 1.268 . S
C1538 C914 1.360 . S
C1533 C192 1.358 . S
C1548 C783 1.663 . S
C1543 C203 1.570 . S
C1558 C663 2.119 . S
C1553 C242 1.951 . S
C1563 C179 1.874 . S
C1568 C689 1.859 . S
C1578 C741 0.623 . S
C1573 C190 0.628 . S
C1583 C205 2.355 . S
C1588 C834 2.336 . S
C1598 C884 2.509 . S
C1593 C286 2.425 . S
C1603 C122 1.969 . S
C1608 C474 2.004 . S
C1618 C524 2.653 . S
C1613 C130 2.644 . S
C1628 C583 1.872 . S
C1623 C148 1.717 1_545 S
C1638 C861 1.702 . S
C1633 C273 1.572 . S
C1643 C260 1.424 . S
C1648 C941 1.512 . S
C1658 C434 2.411 . S
C1653 C135 2.373 . S
C1668 C383 0.877 . S
C1663 C109 0.888 . S
C1673 C86 1.162 . S
C1678 C901 1.158 . S
C1688 C369 1.458 . S
C1683 C70 1.459 . S
C1693 C62 0.743 . S
C1698 C924 0.744 . S
C1703 C91 0.904 . S
C1708 C440 0.931 . S
C1713 C36 1.745 . S
C1718 C640 1.679 . S
C1728 C541 0.504 . S
C1723 C18 0.517 . S
C1733 C8 1.257 . S
C1738 C729 1.464 . S
C1743 C39 1.888 . S
C1748 C604 1.794 . S
C1758 C874 2.490 . S
C1753 C307 2.486 . S
C1763 C153 1.314 . S
C1768 C360 1.297 . S
C1778 C929 1.306 . S
C1773 C281 1.302 . S
C1783 C127 1.588 . S
C1788 C444 1.592 . S
C1793 C309 2.024 . S
C1798 C644 2.056 . S
C1808 C514 1.846 . S
C1803 C151 1.823 . S
C1813 C283 0.518 . S
C1818 C720 0.578 . S
C1828 C609 2.312 . S
C1823 C125 2.326 . S
C1838 C903 2.436 . S
C1833 C221 2.445 . S
C1848 C489 1.958 1_665 S
C1843 C200 1.963 . S
C1853 C208 2.598 . S
C1858 C703 2.599 . S
C1868 C564 1.766 . S
C1863 C174 1.620 . S
C1873 C182 1.903 . S
C1878 C600 1.740 . S
C1883 C156 1.639 . S
C1888 C920 1.534 . S
C1898 C769 2.323 . S
C1893 C213 2.317 1_565 S
C1908 C804 0.856 . S
C1903 C252 0.885 . S
