# Generated by pormake.
# Topology gar, (4,6)-cn, num edge types: 1
# Building blocks:
#     Node 0, Type 0, BuildingBlock: UXUYUI_clean_sbu_0, # of connection points: 4
#     Node 1, Type 0, BuildingBlock: UXUYUI_clean_sbu_0, # of connection points: 4
#     Node 2, Type 0, BuildingBlock: UXUYUI_clean_sbu_0, # of connection points: 4
#     Node 3, Type 0, BuildingBlock: UXUYUI_clean_sbu_0, # of connection points: 4
#     Node 4, Type 0, BuildingBlock: UXUYUI_clean_sbu_0, # of connection points: 4
#     Node 5, Type 0, BuildingBlock: UXUYUI_clean_sbu_0, # of connection points: 4
#     Node 6, Type 0, BuildingBlock: UXUYUI_clean_sbu_0, # of connection points: 4
#     Node 7, Type 0, BuildingBlock: UXUYUI_clean_sbu_0, # of connection points: 4
#     Node 8, Type 0, BuildingBlock: UXUYUI_clean_sbu_0, # of connection points: 4
#     Node 9, Type 0, BuildingBlock: UXUYUI_clean_sbu_0, # of connection points: 4
#     Node 10, Type 0, BuildingBlock: UXUYUI_clean_sbu_0, # of connection points: 4
#     Node 11, Type 0, BuildingBlock: UXUYUI_clean_sbu_0, # of connection points: 4
#     Node 12, Type 0, BuildingBlock: UXUYUI_clean_sbu_0, # of connection points: 4
#     Node 13, Type 0, BuildingBlock: UXUYUI_clean_sbu_0, # of connection points: 4
#     Node 14, Type 0, BuildingBlock: UXUYUI_clean_sbu_0, # of connection points: 4
#     Node 15, Type 0, BuildingBlock: UXUYUI_clean_sbu_0, # of connection points: 4
#     Node 16, Type 0, BuildingBlock: UXUYUI_clean_sbu_0, # of connection points: 4
#     Node 17, Type 0, BuildingBlock: UXUYUI_clean_sbu_0, # of connection points: 4
#     Node 18, Type 0, BuildingBlock: UXUYUI_clean_sbu_0, # of connection points: 4
#     Node 19, Type 0, BuildingBlock: UXUYUI_clean_sbu_0, # of connection points: 4
#     Node 20, Type 0, BuildingBlock: UXUYUI_clean_sbu_0, # of connection points: 4
#     Node 21, Type 0, BuildingBlock: UXUYUI_clean_sbu_0, # of connection points: 4
#     Node 22, Type 0, BuildingBlock: UXUYUI_clean_sbu_0, # of connection points: 4
#     Node 23, Type 0, BuildingBlock: UXUYUI_clean_sbu_0, # of connection points: 4
#     Node 24, Type 1, BuildingBlock: NUHQIS_clean_sbu_0, # of connection points: 6
#     Node 25, Type 1, BuildingBlock: NUHQIS_clean_sbu_0, # of connection points: 6
#     Node 26, Type 1, BuildingBlock: NUHQIS_clean_sbu_0, # of connection points: 6
#     Node 27, Type 1, BuildingBlock: NUHQIS_clean_sbu_0, # of connection points: 6
#     Node 28, Type 1, BuildingBlock: NUHQIS_clean_sbu_0, # of connection points: 6
#     Node 29, Type 1, BuildingBlock: NUHQIS_clean_sbu_0, # of connection points: 6
#     Node 30, Type 1, BuildingBlock: NUHQIS_clean_sbu_0, # of connection points: 6
#     Node 31, Type 1, BuildingBlock: NUHQIS_clean_sbu_0, # of connection points: 6
#     Node 32, Type 1, BuildingBlock: NUHQIS_clean_sbu_0, # of connection points: 6
#     Node 33, Type 1, BuildingBlock: NUHQIS_clean_sbu_0, # of connection points: 6
#     Node 34, Type 1, BuildingBlock: NUHQIS_clean_sbu_0, # of connection points: 6
#     Node 35, Type 1, BuildingBlock: NUHQIS_clean_sbu_0, # of connection points: 6
#     Node 36, Type 1, BuildingBlock: NUHQIS_clean_sbu_0, # of connection points: 6
#     Node 37, Type 1, BuildingBlock: NUHQIS_clean_sbu_0, # of connection points: 6
#     Node 38, Type 1, BuildingBlock: NUHQIS_clean_sbu_0, # of connection points: 6
#     Node 39, Type 1, BuildingBlock: NUHQIS_clean_sbu_0, # of connection points: 6
#     Edge 40, Type (0, 1), BuildingBlock: UVAHIK_clean_linker_0, # of connection points: 2
#     Edge 41, Type (0, 1), BuildingBlock: UVAHIK_clean_linker_0, # of connection points: 2
#     Edge 42, Type (0, 1), BuildingBlock: UVAHIK_clean_linker_0, # of connection points: 2
#     Edge 43, Type (0, 1), BuildingBlock: UVAHIK_clean_linker_0, # of connection points: 2
#     Edge 44, Type (0, 1), BuildingBlock: UVAHIK_clean_linker_0, # of connection points: 2
#     Edge 45, Type (0, 1), BuildingBlock: UVAHIK_clean_linker_0, # of connection points: 2
#     Edge 46, Type (0, 1), BuildingBlock: UVAHIK_clean_linker_0, # of connection points: 2
#     Edge 47, Type (0, 1), BuildingBlock: UVAHIK_clean_linker_0, # of connection points: 2
#     Edge 48, Type (0, 1), BuildingBlock: UVAHIK_clean_linker_0, # of connection points: 2
#     Edge 49, Type (0, 1), BuildingBlock: UVAHIK_clean_linker_0, # of connection points: 2
#     Edge 50, Type (0, 1), BuildingBlock: UVAHIK_clean_linker_0, # of connection points: 2
#     Edge 51, Type (0, 1), BuildingBlock: UVAHIK_clean_linker_0, # of connection points: 2
#     Edge 52, Type (0, 1), BuildingBlock: UVAHIK_clean_linker_0, # of connection points: 2
#     Edge 53, Type (0, 1), BuildingBlock: UVAHIK_clean_linker_0, # of connection points: 2
#     Edge 54, Type (0, 1), BuildingBlock: UVAHIK_clean_linker_0, # of connection points: 2
#     Edge 55, Type (0, 1), BuildingBlock: UVAHIK_clean_linker_0, # of connection points: 2
#     Edge 56, Type (0, 1), BuildingBlock: UVAHIK_clean_linker_0, # of connection points: 2
#     Edge 57, Type (0, 1), BuildingBlock: UVAHIK_clean_linker_0, # of connection points: 2
#     Edge 58, Type (0, 1), BuildingBlock: UVAHIK_clean_linker_0, # of connection points: 2
#     Edge 59, Type (0, 1), BuildingBlock: UVAHIK_clean_linker_0, # of connection points: 2
#     Edge 60, Type (0, 1), BuildingBlock: UVAHIK_clean_linker_0, # of connection points: 2
#     Edge 61, Type (0, 1), BuildingBlock: UVAHIK_clean_linker_0, # of connection points: 2
#     Edge 62, Type (0, 1), BuildingBlock: UVAHIK_clean_linker_0, # of connection points: 2
#     Edge 63, Type (0, 1), BuildingBlock: UVAHIK_clean_linker_0, # of connection points: 2
#     Edge 64, Type (0, 1), BuildingBlock: UVAHIK_clean_linker_0, # of connection points: 2
#     Edge 65, Type (0, 1), BuildingBlock: UVAHIK_clean_linker_0, # of connection points: 2
#     Edge 66, Type (0, 1), BuildingBlock: UVAHIK_clean_linker_0, # of connection points: 2
#     Edge 67, Type (0, 1), BuildingBlock: UVAHIK_clean_linker_0, # of connection points: 2
#     Edge 68, Type (0, 1), BuildingBlock: UVAHIK_clean_linker_0, # of connection points: 2
#     Edge 69, Type (0, 1), BuildingBlock: UVAHIK_clean_linker_0, # of connection points: 2
#     Edge 70, Type (0, 1), BuildingBlock: UVAHIK_clean_linker_0, # of connection points: 2
#     Edge 71, Type (0, 1), BuildingBlock: UVAHIK_clean_linker_0, # of connection points: 2
#     Edge 72, Type (0, 1), BuildingBlock: UVAHIK_clean_linker_0, # of connection points: 2
#     Edge 73, Type (0, 1), BuildingBlock: UVAHIK_clean_linker_0, # of connection points: 2
#     Edge 74, Type (0, 1), BuildingBlock: UVAHIK_clean_linker_0, # of connection points: 2
#     Edge 75, Type (0, 1), BuildingBlock: UVAHIK_clean_linker_0, # of connection points: 2
#     Edge 76, Type (0, 1), BuildingBlock: UVAHIK_clean_linker_0, # of connection points: 2
#     Edge 77, Type (0, 1), BuildingBlock: UVAHIK_clean_linker_0, # of connection points: 2
#     Edge 78, Type (0, 1), BuildingBlock: UVAHIK_clean_linker_0, # of connection points: 2
#     Edge 79, Type (0, 1), BuildingBlock: UVAHIK_clean_linker_0, # of connection points: 2
#     Edge 80, Type (0, 1), BuildingBlock: UVAHIK_clean_linker_0, # of connection points: 2
#     Edge 81, Type (0, 1), BuildingBlock: UVAHIK_clean_linker_0, # of connection points: 2
#     Edge 82, Type (0, 1), BuildingBlock: UVAHIK_clean_linker_0, # of connection points: 2
#     Edge 83, Type (0, 1), BuildingBlock: UVAHIK_clean_linker_0, # of connection points: 2
#     Edge 84, Type (0, 1), BuildingBlock: UVAHIK_clean_linker_0, # of connection points: 2
#     Edge 85, Type (0, 1), BuildingBlock: UVAHIK_clean_linker_0, # of connection points: 2
#     Edge 86, Type (0, 1), BuildingBlock: UVAHIK_clean_linker_0, # of connection points: 2
#     Edge 87, Type (0, 1), BuildingBlock: UVAHIK_clean_linker_0, # of connection points: 2
#     Edge 88, Type (0, 1), BuildingBlock: UVAHIK_clean_linker_0, # of connection points: 2
#     Edge 89, Type (0, 1), BuildingBlock: UVAHIK_clean_linker_0, # of connection points: 2
#     Edge 90, Type (0, 1), BuildingBlock: UVAHIK_clean_linker_0, # of connection points: 2
#     Edge 91, Type (0, 1), BuildingBlock: UVAHIK_clean_linker_0, # of connection points: 2
#     Edge 92, Type (0, 1), BuildingBlock: UVAHIK_clean_linker_0, # of connection points: 2
#     Edge 93, Type (0, 1), BuildingBlock: UVAHIK_clean_linker_0, # of connection points: 2
#     Edge 94, Type (0, 1), BuildingBlock: UVAHIK_clean_linker_0, # of connection points: 2
#     Edge 95, Type (0, 1), BuildingBlock: UVAHIK_clean_linker_0, # of connection points: 2
#     Edge 96, Type (0, 1), BuildingBlock: UVAHIK_clean_linker_0, # of connection points: 2
#     Edge 97, Type (0, 1), BuildingBlock: UVAHIK_clean_linker_0, # of connection points: 2
#     Edge 98, Type (0, 1), BuildingBlock: UVAHIK_clean_linker_0, # of connection points: 2
#     Edge 99, Type (0, 1), BuildingBlock: UVAHIK_clean_linker_0, # of connection points: 2
#     Edge 100, Type (0, 1), BuildingBlock: UVAHIK_clean_linker_0, # of connection points: 2
#     Edge 101, Type (0, 1), BuildingBlock: UVAHIK_clean_linker_0, # of connection points: 2
#     Edge 102, Type (0, 1), BuildingBlock: UVAHIK_clean_linker_0, # of connection points: 2
#     Edge 103, Type (0, 1), BuildingBlock: UVAHIK_clean_linker_0, # of connection points: 2
#     Edge 104, Type (0, 1), BuildingBlock: UVAHIK_clean_linker_0, # of connection points: 2
#     Edge 105, Type (0, 1), BuildingBlock: UVAHIK_clean_linker_0, # of connection points: 2
#     Edge 106, Type (0, 1), BuildingBlock: UVAHIK_clean_linker_0, # of connection points: 2
#     Edge 107, Type (0, 1), BuildingBlock: UVAHIK_clean_linker_0, # of connection points: 2
#     Edge 108, Type (0, 1), BuildingBlock: UVAHIK_clean_linker_0, # of connection points: 2
#     Edge 109, Type (0, 1), BuildingBlock: UVAHIK_clean_linker_0, # of connection points: 2
#     Edge 110, Type (0, 1), BuildingBlock: UVAHIK_clean_linker_0, # of connection points: 2
#     Edge 111, Type (0, 1), BuildingBlock: UVAHIK_clean_linker_0, # of connection points: 2
#     Edge 112, Type (0, 1), BuildingBlock: UVAHIK_clean_linker_0, # of connection points: 2
#     Edge 113, Type (0, 1), BuildingBlock: UVAHIK_clean_linker_0, # of connection points: 2
#     Edge 114, Type (0, 1), BuildingBlock: UVAHIK_clean_linker_0, # of connection points: 2
#     Edge 115, Type (0, 1), BuildingBlock: UVAHIK_clean_linker_0, # of connection points: 2
#     Edge 116, Type (0, 1), BuildingBlock: UVAHIK_clean_linker_0, # of connection points: 2
#     Edge 117, Type (0, 1), BuildingBlock: UVAHIK_clean_linker_0, # of connection points: 2
#     Edge 118, Type (0, 1), BuildingBlock: UVAHIK_clean_linker_0, # of connection points: 2
#     Edge 119, Type (0, 1), BuildingBlock: UVAHIK_clean_linker_0, # of connection points: 2
#     Edge 120, Type (0, 1), BuildingBlock: UVAHIK_clean_linker_0, # of connection points: 2
#     Edge 121, Type (0, 1), BuildingBlock: UVAHIK_clean_linker_0, # of connection points: 2
#     Edge 122, Type (0, 1), BuildingBlock: UVAHIK_clean_linker_0, # of connection points: 2
#     Edge 123, Type (0, 1), BuildingBlock: UVAHIK_clean_linker_0, # of connection points: 2
#     Edge 124, Type (0, 1), BuildingBlock: UVAHIK_clean_linker_0, # of connection points: 2
#     Edge 125, Type (0, 1), BuildingBlock: UVAHIK_clean_linker_0, # of connection points: 2
#     Edge 126, Type (0, 1), BuildingBlock: UVAHIK_clean_linker_0, # of connection points: 2
#     Edge 127, Type (0, 1), BuildingBlock: UVAHIK_clean_linker_0, # of connection points: 2
#     Edge 128, Type (0, 1), BuildingBlock: UVAHIK_clean_linker_0, # of connection points: 2
#     Edge 129, Type (0, 1), BuildingBlock: UVAHIK_clean_linker_0, # of connection points: 2
#     Edge 130, Type (0, 1), BuildingBlock: UVAHIK_clean_linker_0, # of connection points: 2
#     Edge 131, Type (0, 1), BuildingBlock: UVAHIK_clean_linker_0, # of connection points: 2
#     Edge 132, Type (0, 1), BuildingBlock: UVAHIK_clean_linker_0, # of connection points: 2
#     Edge 133, Type (0, 1), BuildingBlock: UVAHIK_clean_linker_0, # of connection points: 2
#     Edge 134, Type (0, 1), BuildingBlock: UVAHIK_clean_linker_0, # of connection points: 2
#     Edge 135, Type (0, 1), BuildingBlock: UVAHIK_clean_linker_0, # of connection points: 2
# Relax obj value: 0.185
# Max RMSD: 0.266
# Mean RMSD: 0.180
data_MOF--net-gar--node1-UXUYUI_clean_sbu_0--node2-NUHQIS_clean_sbu_0--edge1-UVAHIK_clean_linker_0
_symmetry_space_group_name_H-M    P1
_symmetry_Int_Tables_number       1
_symmetry_cell_setting            triclinic
loop_
_symmetry_equiv_pos_as_xyz
'x, y, z'
_cell_length_a     86.058213
_cell_length_b     87.949506
_cell_length_c     85.422115
_cell_angle_alpha  93.27279
_cell_angle_beta   95.75091
_cell_angle_gamma 99.537289
loop_
_atom_site_label
_atom_site_type_symbol
_atom_site_fract_x
_atom_site_fract_y
_atom_site_fract_z
_atom_type_partial_charge
Li0 Li 0.03756 0.27092 0.39336 0.0
Li1 Li 0.0542 0.28819 0.41541 0.0
Li2 Li 0.06819 0.27278 0.39336 0.0
Li3 Li 0.05188 0.25691 0.41435 0.0
C4 C 0.05095 0.29802 0.3796 0.0
N5 N 0.04376 0.31516 0.3546 0.0
C6 C 0.04191 0.30967 0.38149 0.0
C7 C 0.05649 0.29519 0.36506 0.0
C8 C 0.03834 0.31817 0.36868 0.0
C9 C 0.05269 0.30397 0.35256 0.0
C10 C 0.02298 0.27571 0.4226 0.0
C11 C 1.00301 0.27324 0.44062 0.0
N12 N 0.99741 0.28554 0.43464 0.0
C13 C 0.01705 0.28834 0.41666 0.0
C14 C 0.01595 0.2681 0.4347 0.0
C15 C 1.00411 0.29313 0.42289 0.0
C16 C 1.00271 0.26272 0.38616 0.0
N17 N 0.01601 0.26941 0.37999 0.0
C18 C 0.99925 0.27543 0.35742 0.0
C19 C 1.01438 0.27542 0.36563 0.0
C20 C 0.98525 0.26911 0.36378 0.0
C21 C 0.98737 0.26253 0.37838 0.0
H22 H 1.0039 0.25768 0.39736 0.0
H23 H 0.0248 0.28034 0.36042 0.0
C24 C 0.0622 0.32245 0.42136 0.0
N25 N 0.05506 0.30947 0.42761 0.0
C26 C 0.0618 0.33749 0.42809 0.0
C27 C 0.04686 0.32603 0.44792 0.0
C28 C 0.04756 0.31118 0.44082 0.0
C29 C 0.05391 0.33972 0.44158 0.0
H30 H 0.06807 0.32122 0.41085 0.0
H31 H 0.04171 0.301 0.44577 0.0
C32 C 0.04115 0.2454 0.37826 0.0
N33 N 0.02049 0.22973 0.35356 0.0
C34 C 0.02828 0.23446 0.38128 0.0
C35 C 0.04354 0.2484 0.36272 0.0
C36 C 0.01796 0.22665 0.36861 0.0
C37 C 0.03295 0.24034 0.35038 0.0
C38 C 0.08153 0.27205 0.43039 0.0
C39 C 0.09574 0.26691 0.42824 0.0
C40 C 0.07733 0.27441 0.4456 0.0
C41 C 0.10555 0.26415 0.44144 0.0
C42 C 0.08747 0.27151 0.4585 0.0
N43 N 0.10124 0.26649 0.45617 0.0
C44 C 0.09863 0.28722 0.38154 0.0
C45 C 0.09129 0.26071 0.37368 0.0
C46 C 0.11257 0.28801 0.37381 0.0
N47 N 0.08816 0.2737 0.38147 0.0
C48 C 0.10508 0.26101 0.36579 0.0
C49 C 0.11622 0.27479 0.36567 0.0
H50 H 0.09623 0.29755 0.38766 0.0
H51 H 0.08311 0.24995 0.37365 0.0
C52 C 0.03699 0.22877 0.42983 0.0
N53 N 0.05111 0.23663 0.42618 0.0
C54 C 0.03597 0.21442 0.43688 0.0
C55 C 0.06396 0.21597 0.43646 0.0
C56 C 0.06447 0.23031 0.42945 0.0
C57 C 0.04954 0.20751 0.44034 0.0
H58 H 0.02628 0.23346 0.427 0.0
H59 H 0.07567 0.23626 0.42643 0.0
O60 O 0.05464 0.28958 0.39196 0.0
O61 O 0.03565 0.27087 0.41667 0.0
O62 O 0.05095 0.25365 0.3905 0.0
O63 O 0.07166 0.27459 0.41763 0.0
H64 H 0.03771 0.31217 0.39271 0.0
H65 H 0.06359 0.28628 0.36345 0.0
H66 H 0.0313 0.32719 0.36995 0.0
H67 H 0.05684 0.30186 0.34122 0.0
H68 H 0.99744 0.26746 0.44998 0.0
H69 H 0.02236 0.29432 0.40729 0.0
H70 H 0.02046 0.25835 0.43948 0.0
H71 H 0.99939 0.30288 0.41838 0.0
H72 H 0.99863 0.28031 0.34608 0.0
H73 H 0.97726 0.25755 0.38409 0.0
H74 H 0.06775 0.3473 0.42264 0.0
H75 H 0.0404 0.32668 0.4581 0.0
H76 H 0.0262 0.23216 0.39328 0.0
H77 H 0.05339 0.25694 0.36023 0.0
H78 H 1.0079 0.21819 0.37075 0.0
H79 H 0.03461 0.24256 0.33828 0.0
H80 H 0.0991 0.26501 0.4165 0.0
H81 H 0.06633 0.27835 0.44741 0.0
H82 H 0.11657 0.26014 0.43998 0.0
H83 H 0.08437 0.27325 0.47036 0.0
H84 H 0.12033 0.29906 0.3741 0.0
H85 H 0.10707 0.25032 0.36005 0.0
H86 H 0.02442 0.20862 0.4392 0.0
H87 H 0.07494 0.21164 0.43888 0.0
Li88 Li 0.03467 0.79625 0.63763 0.0
Li89 Li 0.04953 0.78235 0.65854 0.0
Li90 Li 0.03316 0.76377 0.63715 0.0
Li91 Li 0.01945 0.77957 0.65832 0.0
C92 C 0.06692 0.78548 0.63378 0.0
N93 N 0.09919 0.79255 0.63214 0.0
C94 C 0.0754 0.79992 0.63981 0.0
C95 C 0.07481 0.77473 0.62669 0.0
C96 C 0.09172 0.80325 0.63894 0.0
C97 C 0.09115 0.7785 0.62603 0.0
C98 C 0.04198 0.81063 0.6724 0.0
C99 C 0.04514 0.82139 0.69937 0.0
N100 N 0.05435 0.83429 0.69516 0.0
C101 C 0.05133 0.82407 0.66831 0.0
C102 C 0.03872 0.80932 0.68802 0.0
C103 C 0.05753 0.83587 0.68 0.0
C104 C 0.02412 0.8256 0.62758 0.0
N105 N 0.03536 0.81651 0.62579 0.0
C106 C 0.0485 0.83594 0.61 0.0
C107 C 0.04743 0.82159 0.61708 0.0
C108 C 0.03703 0.84565 0.61156 0.0
C109 C 0.02464 0.83992 0.62055 0.0
H110 H 0.01467 0.82189 0.63468 0.0
H111 H 0.05654 0.81464 0.61574 0.0
C112 C 0.07951 0.77196 0.66813 0.0
N113 N 0.07119 0.78345 0.67155 0.0
C114 C 0.09483 0.77188 0.67577 0.0
C115 C 0.09327 0.79549 0.69057 0.0
C116 C 0.07792 0.79511 0.68265 0.0
C117 C 0.10216 0.78376 0.68725 0.0
H118 H 0.07434 0.76283 0.65919 0.0
H119 H 0.07151 0.8043 0.68539 0.0
C120 C 0.99948 0.77445 0.63164 0.0
N121 N 0.96675 0.76806 0.62874 0.0
C122 C 0.99163 0.75951 0.63335 0.0
C123 C 0.9907 0.78615 0.62849 0.0
C124 C 0.97507 0.7565 0.63183 0.0
C125 C 0.97415 0.78269 0.62705 0.0
C126 C 0.03876 0.7572 0.6741 0.0
C127 C 0.04772 0.74536 0.67334 0.0
C128 C 0.03553 0.76303 0.68875 0.0
C129 C 0.05357 0.73975 0.68732 0.0
C130 C 0.04157 0.75711 0.70246 0.0
N131 N 0.05041 0.7457 0.70147 0.0
C132 C 0.04642 0.73599 0.62738 0.0
C133 C 0.02031 0.73439 0.61546 0.0
C134 C 0.04729 0.72121 0.62031 0.0
N135 N 0.03309 0.74251 0.62497 0.0
C136 C 0.02063 0.71945 0.60827 0.0
C137 C 0.03427 0.71243 0.61055 0.0
H138 H 0.05651 0.74217 0.63506 0.0
H139 H 1.00968 0.73937 0.61344 0.0
C140 C 0.99468 0.7921 0.67533 0.0
N141 N 0.9995 0.77873 0.67041 0.0
C142 C 0.98094 0.79192 0.6833 0.0
C143 C 0.97686 0.76423 0.68114 0.0
C144 C 0.99076 0.76493 0.67332 0.0
C145 C 0.97155 0.77785 0.68639 0.0
H146 H 1.00147 0.80308 0.67299 0.0
H147 H 0.99448 0.75429 0.6695 0.0
O148 O 0.05101 0.7819 0.63492 0.0
O149 O 0.03579 0.79897 0.66111 0.0
O150 O 0.01567 0.7777 0.63366 0.0
O151 O 0.03317 0.76309 0.6606 0.0
H152 H 0.06947 0.80837 0.64531 0.0
H153 H 0.0684 0.76361 0.62171 0.0
H154 H 0.09845 0.81432 0.64371 0.0
H155 H 0.09742 0.77026 0.62064 0.0
H156 H 0.04277 0.8205 0.71151 0.0
H157 H 0.05372 0.8254 0.65623 0.0
H158 H 0.03128 0.79914 0.69133 0.0
H159 H 0.06483 0.84631 0.67702 0.0
H160 H 0.05857 0.83942 0.60362 0.0
H161 H 0.01519 0.84635 0.62223 0.0
H162 H 0.10099 0.76265 0.67236 0.0
H163 H 0.09803 0.80489 0.69937 0.0
H164 H 0.99828 0.75039 0.63611 0.0
H165 H 0.99659 0.79779 0.62721 0.0
H166 H 0.96885 0.745 0.63321 0.0
H167 H 0.9672 0.79163 0.62463 0.0
H168 H 0.05023 0.74062 0.6621 0.0
H169 H 0.02839 0.77202 0.68951 0.0
H170 H 0.06063 0.73066 0.68691 0.0
H171 H 0.0392 0.76156 0.71389 0.0
H172 H 0.05808 0.71657 0.62285 0.0
H173 H 1.01023 0.71354 0.60081 0.0
H174 H 0.97758 0.80285 0.68675 0.0
H175 H 0.97046 0.753 0.68321 0.0
Li176 Li 0.53903 0.77089 0.89409 0.0
Li177 Li 0.55586 0.78852 0.91632 0.0
Li178 Li 0.5692 0.77263 0.89513 0.0
Li179 Li 0.55259 0.75588 0.915 0.0
C180 C 0.55487 0.80067 0.88301 0.0
N181 N 0.55259 0.82363 0.86258 0.0
C182 C 0.54786 0.81332 0.88727 0.0
C183 C 0.56085 0.79976 0.86843 0.0
C184 C 0.54678 0.82479 0.87675 0.0
C185 C 0.55954 0.81146 0.85825 0.0
C186 C 0.5212 0.77153 0.91804 0.0
C187 C 0.49489 0.75927 0.92224 0.0
N188 N 0.4892 0.77214 0.91796 0.0
C189 C 0.51511 0.78467 0.91379 0.0
C190 C 0.51105 0.75874 0.92238 0.0
C191 C 0.49889 0.78474 0.91378 0.0
C192 C 0.50573 0.75754 0.88077 0.0
N193 N 0.51764 0.76984 0.88031 0.0
C194 C 0.49943 0.78211 0.86384 0.0
C195 C 0.51461 0.78192 0.8718 0.0
C196 C 0.48676 0.76973 0.86433 0.0
C197 C 0.49036 0.75724 0.87293 0.0
H198 H 0.50797 0.74799 0.88759 0.0
H199 H 0.52383 0.79174 0.87139 0.0
C200 C 0.56814 0.82206 0.92661 0.0
N201 N 0.55674 0.80975 0.92871 0.0
C202 C 0.56792 0.83712 0.93346 0.0
C203 C 0.54422 0.82705 0.94463 0.0
C204 C 0.54499 0.81214 0.93775 0.0
C205 C 0.55571 0.84004 0.94254 0.0
H206 H 0.57729 0.82036 0.91921 0.0
H207 H 0.53589 0.80252 0.93946 0.0
C208 C 0.54418 0.74581 0.8777 0.0
N209 N 0.52755 0.73082 0.85027 0.0
C210 C 0.53368 0.73197 0.87826 0.0
C211 C 0.54629 0.752 0.86321 0.0
C212 C 0.52537 0.72457 0.86426 0.0
C213 C 0.53775 0.74426 0.84947 0.0
C214 C 0.5884 0.77495 0.92231 0.0
C215 C 0.59559 0.76216 0.91911 0.0
C216 C 0.59777 0.78921 0.92754 0.0
C217 C 0.61211 0.76386 0.92119 0.0
C218 C 0.61426 0.79043 0.9295 0.0
N219 N 0.62102 0.77784 0.9263 0.0
C220 C 0.60096 0.78648 0.88525 0.0
C221 C 0.59175 0.76108 0.87427 0.0
C222 C 0.61511 0.78712 0.87785 0.0
N223 N 0.58946 0.77357 0.88349 0.0
C224 C 0.60567 0.76126 0.86659 0.0
C225 C 0.6179 0.77439 0.86823 0.0
H226 H 0.59931 0.7964 0.89259 0.0
H227 H 0.58273 0.7508 0.87282 0.0
C228 C 0.53766 0.72467 0.92477 0.0
N229 N 0.55125 0.73548 0.9269 0.0
C230 C 0.53654 0.71037 0.93191 0.0
C231 C 0.5634 0.71801 0.94352 0.0
C232 C 0.56399 0.73223 0.93624 0.0
C233 C 0.54953 0.70656 0.94151 0.0
H234 H 0.52755 0.72695 0.91727 0.0
H235 H 0.57482 0.74063 0.93806 0.0
O236 O 0.55619 0.7894 0.89319 0.0
O237 O 0.53697 0.7711 0.91766 0.0
O238 O 0.55211 0.75348 0.89129 0.0
O239 O 0.57229 0.77365 0.91977 0.0
H240 H 0.54315 0.8142 0.8985 0.0
H241 H 0.56649 0.79014 0.86505 0.0
H242 H 0.54132 0.83461 0.87985 0.0
H243 H 0.56409 0.8109 0.84691 0.0
H244 H 0.48688 0.74943 0.92551 0.0
H245 H 0.52279 0.79461 0.91026 0.0
H246 H 0.51558 0.74852 0.92577 0.0
H247 H 0.49399 0.79478 0.91037 0.0
H248 H 0.49763 0.79222 0.85772 0.0
H249 H 0.48138 0.74721 0.87368 0.0
H250 H 0.57705 0.84652 0.93118 0.0
H251 H 0.53462 0.82832 0.9516 0.0
H252 H 0.53191 0.72705 0.88939 0.0
H253 H 0.55435 0.76272 0.8626 0.0
H254 H 0.51715 0.71387 0.86452 0.0
H255 H 0.53922 0.74894 0.83817 0.0
H256 H 0.58848 0.7511 0.91481 0.0
H257 H 0.59237 0.79924 0.92996 0.0
H258 H 0.61785 0.75408 0.91868 0.0
H259 H 0.62168 0.8014 0.93351 0.0
H260 H 0.62391 0.79753 0.87997 0.0
H261 H 0.60666 0.7511 0.85926 0.0
H262 H 0.52556 0.7022 0.92956 0.0
H263 H 0.57381 0.71613 0.95084 0.0
Li264 Li 0.53412 0.29606 0.13803 0.0
Li265 Li 0.54848 0.28224 0.15944 0.0
Li266 Li 0.53181 0.26341 0.13734 0.0
Li267 Li 0.51867 0.27893 0.15785 0.0
C268 C 0.5663 0.28263 0.13558 0.0
N269 N 0.59878 0.28503 0.13627 0.0
C270 C 0.57588 0.29714 0.13589 0.0
C271 C 0.57322 0.26934 0.13562 0.0
C272 C 0.59228 0.29811 0.13621 0.0
C273 C 0.58967 0.27079 0.13599 0.0
C274 C 0.54297 0.30885 0.17332 0.0
C275 C 0.55199 0.31549 0.20087 0.0
N276 N 0.56037 0.32905 0.19711 0.0
C277 C 0.55162 0.32286 0.16971 0.0
C278 C 0.54309 0.30513 0.18901 0.0
C279 C 0.56035 0.33292 0.18191 0.0
C280 C 0.52493 0.32638 0.1296 0.0
N281 N 0.53504 0.31644 0.12629 0.0
C282 C 0.54738 0.33527 0.10939 0.0
C283 C 0.54609 0.32076 0.11619 0.0
C284 C 0.53712 0.3458 0.11262 0.0
C285 C 0.52567 0.34086 0.12288 0.0
H286 H 0.51631 0.32323 0.13777 0.0
H287 H 0.55414 0.31304 0.1134 0.0
C288 C 0.57379 0.27066 0.17874 0.0
N289 N 0.56984 0.28376 0.17279 0.0
C290 C 0.58904 0.27054 0.18658 0.0
C291 C 0.59624 0.29741 0.18231 0.0
C292 C 0.58083 0.29704 0.17463 0.0
C293 C 0.6008 0.28399 0.18841 0.0
H294 H 0.56517 0.26009 0.17715 0.0
H295 H 0.57791 0.30735 0.16963 0.0
C296 C 0.49889 0.27482 0.13058 0.0
N297 N 0.46619 0.26909 0.12551 0.0
C298 C 0.4908 0.25983 0.1261 0.0
C299 C 0.49038 0.2869 0.13244 0.0
C300 C 0.47425 0.25717 0.12358 0.0
C301 C 0.47384 0.28376 0.12984 0.0
C302 C 0.52553 0.25321 0.17067 0.0
C303 C 0.51438 0.24033 0.1645 0.0
C304 C 0.5288 0.25632 0.187 0.0
C305 C 0.50657 0.23078 0.17483 0.0
C306 C 0.52074 0.24649 0.19693 0.0
N307 N 0.50988 0.23404 0.19069 0.0
C308 C 0.53943 0.23195 0.13367 0.0
C309 C 0.52505 0.23753 0.11044 0.0
C310 C 0.54027 0.21702 0.12698 0.0
N311 N 0.53191 0.24208 0.12549 0.0
C312 C 0.52562 0.22263 0.10328 0.0
C313 C 0.5333 0.21187 0.11147 0.0
H314 H 0.54492 0.23546 0.14556 0.0
H315 H 0.51902 0.24541 0.10387 0.0
C316 C 0.49705 0.2893 0.18053 0.0
N317 N 0.49854 0.27754 0.1699 0.0
C318 C 0.48334 0.28892 0.1886 0.0
C319 C 0.47247 0.26439 0.17486 0.0
C320 C 0.48642 0.26517 0.16713 0.0
C321 C 0.4705 0.27637 0.18592 0.0
H322 H 0.50653 0.29916 0.18282 0.0
H323 H 0.48738 0.25581 0.15874 0.0
O324 O 0.55027 0.28145 0.1357 0.0
O325 O 0.53452 0.29878 0.16154 0.0
O326 O 0.51505 0.27757 0.13341 0.0
O327 O 0.53305 0.26286 0.16076 0.0
H328 H 0.57075 0.30756 0.13623 0.0
H329 H 0.56598 0.25803 0.13551 0.0
H330 H 0.59985 0.30928 0.13656 0.0
H331 H 0.5952 0.26061 0.1361 0.0
H332 H 0.55224 0.31275 0.21307 0.0
H333 H 0.55169 0.32586 0.1576 0.0
H334 H 0.53641 0.29434 0.19197 0.0
H335 H 0.56716 0.34378 0.1793 0.0
H336 H 0.55634 0.33811 0.1015 0.0
H337 H 0.5175 0.34833 0.12608 0.0
H338 H 0.59151 0.25987 0.19115 0.0
H339 H 0.60464 0.30809 0.18297 0.0
H340 H 0.49724 0.25035 0.12473 0.0
H341 H 0.4965 0.29853 0.136 0.0
H342 H 0.46782 0.24563 0.12016 0.0
H343 H 0.46708 0.29298 0.13131 0.0
H344 H 0.51165 0.23785 0.15188 0.0
H345 H 0.53745 0.26623 0.19193 0.0
H346 H 0.49785 0.22081 0.17023 0.0
H347 H 0.5231 0.24876 0.2096 0.0
H348 H 0.54662 0.20968 0.13399 0.0
H349 H 0.5198 0.21956 0.09144 0.0
H350 H 0.48302 0.29847 0.19704 0.0
H351 H 0.46319 0.25446 0.17185 0.0
Li352 Li 0.0765 0.82774 0.15518 0.0
Li353 Li 0.08907 0.81232 0.17362 0.0
Li354 Li 0.07452 0.80075 0.14867 0.0
Li355 Li 0.06088 0.80962 0.17018 0.0
C356 C 0.1033 0.81043 0.14218 0.0
N357 N 0.12091 0.79644 0.12213 0.0
C358 C 0.11493 0.80233 0.14827 0.0
C359 C 0.10064 0.81141 0.12587 0.0
C360 C 0.12372 0.79536 0.13794 0.0
C361 C 0.10965 0.80424 0.11593 0.0
C362 C 0.08574 0.83722 0.19009 0.0
C363 C 0.09723 0.84146 0.21727 0.0
N364 N 0.10665 0.85453 0.21373 0.0
C365 C 0.09556 0.85069 0.18673 0.0
C366 C 0.08657 0.83257 0.2055 0.0
C367 C 0.10603 0.85929 0.19884 0.0
C368 C 0.0677 0.85664 0.15204 0.0
N369 N 0.07732 0.84715 0.14678 0.0
C370 C 0.08444 0.86368 0.12658 0.0
C371 C 0.08603 0.85062 0.13466 0.0
C372 C 0.07392 0.87325 0.1312 0.0
C373 C 0.06582 0.86988 0.14437 0.0
H374 H 0.06092 0.8535 0.16173 0.0
H375 H 0.09372 0.84294 0.13089 0.0
C376 C 0.10599 0.80244 0.20003 0.0
N377 N 0.10696 0.81244 0.18849 0.0
C378 C 0.1186 0.8031 0.21175 0.0
C379 C 0.13322 0.82403 0.1992 0.0
C380 C 0.12021 0.82308 0.18782 0.0
C381 C 0.13249 0.81398 0.21144 0.0
H382 H 0.09534 0.79409 0.20025 0.0
H383 H 0.12062 0.83088 0.17847 0.0
C384 C 0.04819 0.82148 0.13917 0.0
N385 N 0.03116 0.84084 0.123 0.0
C386 C 0.03593 0.82715 0.14588 0.0
C387 C 0.05174 0.82562 0.1242 0.0
C388 C 0.02745 0.83691 0.13751 0.0
C389 C 0.04303 0.83545 0.11624 0.0
C390 C 0.06374 0.78116 0.17535 0.0
C391 C 0.05475 0.76949 0.16479 0.0
C392 C 0.06176 0.78116 0.19141 0.0
C393 C 0.04396 0.75802 0.17047 0.0
C394 C 0.0508 0.76951 0.19661 0.0
N395 N 0.04221 0.75828 0.18613 0.0
C396 C 0.0827 0.77409 0.1345 0.0
C397 C 0.06486 0.78575 0.11812 0.0
C398 C 0.08301 0.76279 0.12248 0.0
N399 N 0.0738 0.7853 0.13208 0.0
C400 C 0.0649 0.77473 0.10572 0.0
C401 C 0.07409 0.76305 0.1078 0.0
H402 H 0.08956 0.77396 0.1458 0.0
H403 H 0.05775 0.79467 0.11659 0.0
C404 C 0.04228 0.81206 0.19514 0.0
N405 N 0.04231 0.80553 0.18036 0.0
C406 C 0.02945 0.80779 0.20362 0.0
C407 C 0.01654 0.79078 0.18114 0.0
C408 C 0.02969 0.79532 0.17313 0.0
C409 C 0.01645 0.79683 0.19672 0.0
H410 H 0.05241 0.82025 0.20051 0.0
H411 H 0.03005 0.79041 0.1613 0.0
O412 O 0.09434 0.81707 0.15208 0.0
O413 O 0.07568 0.82844 0.17831 0.0
O414 O 0.05686 0.81217 0.14734 0.0
O415 O 0.07415 0.79268 0.16996 0.0
H416 H 0.11704 0.80125 0.16081 0.0
H417 H 0.09144 0.8173 0.12088 0.0
H418 H 0.13272 0.78901 0.1425 0.0
H419 H 0.10761 0.80479 0.10329 0.0
H420 H 0.0981 0.83791 0.2292 0.0
H421 H 0.09527 0.8544 0.17488 0.0
H422 H 0.07938 0.82199 0.20828 0.0
H423 H 0.11372 0.8697 0.19639 0.0
H424 H 0.09108 0.86609 0.11662 0.0
H425 H 0.05755 0.87697 0.14822 0.0
H426 H 0.11737 0.79527 0.22105 0.0
H427 H 0.14377 0.8324 0.19828 0.0
H428 H 0.03309 0.82422 0.1575 0.0
H429 H 0.06142 0.82164 0.11894 0.0
H430 H 0.01798 0.84143 0.1426 0.0
H431 H 0.04579 0.83888 0.10473 0.0
H432 H 0.05592 0.76937 0.15231 0.0
H433 H 0.06824 0.7903 0.19972 0.0
H434 H 0.0369 0.74897 0.16242 0.0
H435 H 0.04903 0.76948 0.20897 0.0
H436 H 0.08998 0.75381 0.12476 0.0
H437 H 0.0579 0.77543 0.09461 0.0
H438 H 0.02997 0.81266 0.21563 0.0
H439 H 1.00665 0.78252 0.17526 0.0
Li440 Li 0.50927 0.74325 0.39028 0.0
Li441 Li 0.50047 0.7242 0.36795 0.0
Li442 Li 0.51346 0.71737 0.39234 0.0
Li443 Li 0.52815 0.7334 0.3748 0.0
C444 C 0.48097 0.73037 0.3951 0.0
N445 N 0.45752 0.74404 0.40706 0.0
C446 C 0.46822 0.73341 0.38499 0.0
C447 C 0.48176 0.73424 0.41131 0.0
C448 C 0.45648 0.74032 0.39127 0.0
C449 C 0.4698 0.74118 0.41711 0.0
C450 C 0.51995 0.75647 0.3597 0.0
C451 C 0.53307 0.76378 0.3369 0.0
N452 N 0.53822 0.77822 0.34402 0.0
C453 C 0.52536 0.77139 0.36678 0.0
C454 C 0.52379 0.75264 0.34461 0.0
C455 C 0.53457 0.78222 0.35865 0.0
C456 C 0.5141 0.76657 0.41491 0.0
N457 N 0.50524 0.76137 0.401 0.0
C458 C 0.49226 0.78334 0.40161 0.0
C459 C 0.49441 0.76936 0.39429 0.0
C460 C 0.50136 0.78905 0.41595 0.0
C461 C 0.51227 0.7804 0.42268 0.0
H462 H 0.52289 0.76019 0.41977 0.0
H463 H 0.4877 0.76502 0.38308 0.0
C464 C 0.47376 0.70433 0.35136 0.0
N465 N 0.4844 0.71756 0.35101 0.0
C466 C 0.46158 0.69995 0.33906 0.0
C467 C 0.47169 0.72283 0.32632 0.0
C468 C 0.4836 0.72675 0.33883 0.0
C469 C 0.46035 0.70937 0.3264 0.0
H470 H 0.47457 0.69736 0.36134 0.0
H471 H 0.49192 0.73739 0.33905 0.0
C472 C 0.53874 0.73227 0.40987 0.0
N473 N 0.55751 0.72191 0.43376 0.0
C474 C 0.55309 0.72782 0.40689 0.0
C475 C 0.53398 0.73151 0.42503 0.0
C476 C 0.56241 0.72263 0.41912 0.0
C477 C 0.54362 0.72621 0.43693 0.0
C478 C 0.51182 0.69942 0.36008 0.0
C479 C 0.50464 0.68549 0.36535 0.0
C480 C 0.51238 0.7008 0.3439 0.0
C481 C 0.49811 0.67316 0.35434 0.0
C482 C 0.50568 0.68821 0.33327 0.0
N483 N 0.49874 0.67477 0.33867 0.0
C484 C 0.50542 0.69962 0.41786 0.0
C485 C 0.52723 0.6938 0.40514 0.0
C486 C 0.50814 0.68943 0.42933 0.0
N487 N 0.51513 0.70179 0.4063 0.0
C488 C 0.53036 0.68349 0.41631 0.0
C489 C 0.52092 0.6814 0.42876 0.0
H490 H 0.49589 0.70615 0.41844 0.0
H491 H 0.53471 0.69581 0.39575 0.0
C492 C 0.55677 0.7529 0.37282 0.0
N493 N 0.54775 0.73923 0.36689 0.0
C494 C 0.5701 0.75902 0.36577 0.0
C495 C 0.56508 0.73642 0.34726 0.0
C496 C 0.55183 0.73075 0.35467 0.0
C497 C 0.57415 0.75091 0.35258 0.0
H498 H 0.55316 0.75935 0.38259 0.0
H499 H 0.54452 0.71984 0.35035 0.0
O500 O 0.49272 0.72385 0.38916 0.0
O501 O 0.51122 0.74557 0.36762 0.0
O502 O 0.52925 0.73702 0.39795 0.0
O503 O 0.51811 0.7117 0.37066 0.0
H504 H 0.46744 0.73058 0.37242 0.0
H505 H 0.49167 0.73223 0.41928 0.0
H506 H 0.44658 0.74278 0.38358 0.0
H507 H 0.47034 0.74435 0.4296 0.0
H508 H 0.53627 0.76092 0.3253 0.0
H509 H 0.52269 0.77455 0.3785 0.0
H510 H 0.51997 0.74108 0.33905 0.0
H511 H 0.5389 0.79378 0.36403 0.0
H512 H 0.48369 0.78968 0.39608 0.0
H513 H 0.51974 0.78456 0.43356 0.0
H514 H 0.45303 0.68952 0.3396 0.0
H515 H 0.47094 0.73069 0.31708 0.0
H516 H 0.55691 0.72818 0.39522 0.0
H517 H 0.52278 0.73463 0.42751 0.0
H518 H 0.5735 0.71908 0.41696 0.0
H519 H 0.54 0.72541 0.44867 0.0
H520 H 0.50396 0.68424 0.37779 0.0
H521 H 0.51765 0.71156 0.33958 0.0
H522 H 0.49247 0.66233 0.35826 0.0
H523 H 0.50592 0.68916 0.32072 0.0
H524 H 0.50063 0.6882 0.43879 0.0
H525 H 0.54014 0.6773 0.41528 0.0
H526 H 0.57673 0.77027 0.37017 0.0
H527 H 0.56802 0.72968 0.33731 0.0
Li528 Li 0.58299 0.32646 0.6516 0.0
Li529 Li 0.59589 0.31146 0.67015 0.0
Li530 Li 0.58152 0.29964 0.64513 0.0
Li531 Li 0.56757 0.30797 0.66659 0.0
C532 C 0.61045 0.30944 0.63921 0.0
N533 N 0.62878 0.29516 0.6202 0.0
C534 C 0.62209 0.30168 0.64592 0.0
C535 C 0.60818 0.30998 0.62282 0.0
C536 C 0.63124 0.29454 0.63611 0.0
C537 C 0.61754 0.30266 0.61342 0.0
C538 C 0.59051 0.3356 0.68743 0.0
C539 C 0.59998 0.33852 0.71518 0.0
N540 N 0.60831 0.3527 0.71321 0.0
C541 C 0.59916 0.35021 0.68569 0.0
C542 C 0.59088 0.32971 0.7023 0.0
C543 C 0.60808 0.35867 0.69887 0.0
C544 C 0.57479 0.35566 0.64921 0.0
N545 N 0.58384 0.34589 0.64336 0.0
C546 C 0.5913 0.36286 0.6236 0.0
C547 C 0.59232 0.34933 0.63106 0.0
C548 C 0.58167 0.37293 0.62909 0.0
C549 C 0.57358 0.3694 0.64224 0.0
H550 H 0.56813 0.3525 0.65897 0.0
H551 H 0.59946 0.34135 0.62675 0.0
C552 C 0.61451 0.30027 0.69455 0.0
N553 N 0.61375 0.31211 0.68514 0.0
C554 C 0.62706 0.3012 0.70642 0.0
C555 C 0.63789 0.3264 0.6985 0.0
C556 C 0.62525 0.32487 0.68664 0.0
C557 C 0.63887 0.31449 0.70866 0.0
H558 H 0.60536 0.29013 0.69286 0.0
H559 H 0.62439 0.33401 0.67882 0.0
C560 C 0.55464 0.32013 0.63608 0.0
N561 N 0.53724 0.33985 0.62097 0.0
C562 C 0.54252 0.32557 0.64329 0.0
C563 C 0.55785 0.32469 0.62114 0.0
C564 C 0.53386 0.33551 0.63545 0.0
C565 C 0.54895 0.33469 0.61372 0.0
C566 C 0.57204 0.28 0.67275 0.0
C567 C 0.56319 0.26761 0.66301 0.0
C568 C 0.57101 0.2806 0.689 0.0
C569 C 0.55338 0.25605 0.6697 0.0
C570 C 0.56102 0.26883 0.69522 0.0
N571 N 0.55249 0.2569 0.68552 0.0
C572 C 0.58948 0.27282 0.63089 0.0
C573 C 0.57204 0.28498 0.61459 0.0
C574 C 0.58946 0.26145 0.61882 0.0
N575 N 0.58087 0.28427 0.62854 0.0
C576 C 0.57177 0.27394 0.60215 0.0
C577 C 0.58053 0.26193 0.60419 0.0
H578 H 0.59631 0.27252 0.64218 0.0
H579 H 0.5652 0.29412 0.61311 0.0
C580 C 0.54804 0.31145 0.69064 0.0
N581 N 0.54901 0.30347 0.67679 0.0
C582 C 0.53497 0.3076 0.6989 0.0
C583 C 0.52384 0.28775 0.67817 0.0
C584 C 0.53713 0.29204 0.67029 0.0
C585 C 0.52275 0.29546 0.69279 0.0
H586 H 0.55746 0.32075 0.69532 0.0
H587 H 0.53815 0.28607 0.65911 0.0
O588 O 0.60112 0.31621 0.6486 0.0
O589 O 0.58186 0.32704 0.67462 0.0
O590 O 0.56352 0.31068 0.64374 0.0
O591 O 0.5815 0.29159 0.66639 0.0
H592 H 0.62397 0.30103 0.65855 0.0
H593 H 0.59902 0.31566 0.61738 0.0
H594 H 0.64024 0.28844 0.64115 0.0
H595 H 0.6158 0.30286 0.60072 0.0
H596 H 0.60047 0.33405 0.72672 0.0
H597 H 0.59917 0.35491 0.67427 0.0
H598 H 0.58444 0.31835 0.70385 0.0
H599 H 0.61488 0.36997 0.69767 0.0
H600 H 0.59779 0.36533 0.61355 0.0
H601 H 0.56593 0.37687 0.64667 0.0
H602 H 0.62755 0.29153 0.71364 0.0
H603 H 0.64663 0.33689 0.69981 0.0
H604 H 0.53992 0.32229 0.65487 0.0
H605 H 0.56741 0.32091 0.61552 0.0
H606 H 0.52449 0.33984 0.64092 0.0
H607 H 0.55145 0.33845 0.60226 0.0
H608 H 0.56372 0.26701 0.6504 0.0
H609 H 0.57763 0.29018 0.69669 0.0
H610 H 0.54641 0.24643 0.66229 0.0
H611 H 0.56001 0.26922 0.70775 0.0
H612 H 0.59613 0.25224 0.62107 0.0
H613 H 0.56483 0.27484 0.59106 0.0
H614 H 0.53441 0.31409 0.70994 0.0
H615 H 0.51472 0.27829 0.67307 0.0
Li616 Li 1.00824 0.24303 0.89309 0.0
Li617 Li 0.99878 0.22252 0.87229 0.0
Li618 Li 1.01192 0.2173 0.89733 0.0
Li619 Li 0.02659 0.23142 0.87834 0.0
C620 C 0.97993 0.23134 0.89917 0.0
N621 N 0.95711 0.24649 0.9103 0.0
C622 C 0.96711 0.23394 0.88888 0.0
C623 C 0.98111 0.2364 0.91513 0.0
C624 C 0.95569 0.24161 0.89474 0.0
C625 C 0.96947 0.24407 0.92052 0.0
C626 C 0.01879 0.25351 0.86149 0.0
C627 C 0.03208 0.2587 0.83829 0.0
N628 N 0.03735 0.27353 0.84428 0.0
C629 C 0.02433 0.26881 0.86739 0.0
C630 C 0.02266 0.24842 0.84678 0.0
C631 C 0.03368 0.27875 0.85851 0.0
C632 C 1.01417 0.26795 0.91594 0.0
N633 N 1.00481 0.262 0.90253 0.0
C634 C 0.99202 0.28412 0.90216 0.0
C635 C 0.99386 0.26972 0.89555 0.0
C636 C 1.00154 0.2905 0.91606 0.0
C637 C 1.01266 0.28219 0.92301 0.0
H638 H 0.02306 0.26178 0.92098 0.0
H639 H 0.98677 0.26479 0.88472 0.0
C640 C 0.97137 0.20235 0.85726 0.0
N641 N 0.98247 0.21497 0.85577 0.0
C642 C 0.95919 0.19726 0.84508 0.0
C643 C 0.97027 0.21818 0.83016 0.0
C644 C 0.98214 0.22286 0.84258 0.0
C645 C 0.95849 0.20532 0.83136 0.0
H646 H 0.97185 0.19641 0.86799 0.0
H647 H 0.99085 0.23305 0.84187 0.0
C648 C 0.03777 0.23288 0.91352 0.0
N649 N 0.05686 0.22406 0.93815 0.0
C650 C 0.05181 0.22767 0.91072 0.0
C651 C 0.03349 0.23365 0.92888 0.0
C652 C 0.0613 0.22328 0.92332 0.0
C653 C 0.04328 0.22911 0.94116 0.0
C654 C 1.00941 0.19695 0.86634 0.0
C655 C 1.00175 0.18381 0.87268 0.0
C656 C 1.01 0.19698 0.85004 0.0
C657 C 0.99477 0.1709 0.86258 0.0
C658 C 1.00285 0.18386 0.84034 0.0
N659 N 0.99545 0.1712 0.84676 0.0
C660 C 1.00515 0.20224 0.9251 0.0
C661 C 0.02562 0.1946 0.91143 0.0
C662 C 1.00875 0.19325 0.93747 0.0
N663 N 1.01382 0.20296 0.91263 0.0
C664 C 0.02961 0.18549 0.92347 0.0
C665 C 0.02136 0.18501 0.93686 0.0
H666 H 0.99587 0.20907 0.92571 0.0
H667 H 0.0323 0.19548 0.90135 0.0
C668 C 0.05545 0.2498 0.87501 0.0
N669 N 0.0462 0.23597 0.87009 0.0
C670 C 0.06912 0.25477 0.86796 0.0
C671 C 0.06387 0.23076 0.85149 0.0
C672 C 0.05028 0.22628 0.85886 0.0
C673 C 0.0733 0.24531 0.85582 0.0
H674 H 0.05186 0.25721 0.88402 0.0
H675 H 0.04278 0.21526 0.85535 0.0
O676 O 0.99137 0.22406 0.89361 0.0
O677 O 1.0099 0.24349 0.87017 0.0
O678 O 0.02809 0.23685 0.90125 0.0
O679 O 0.0161 0.20979 0.87601 0.0
H680 H 0.96604 0.23019 0.87648 0.0
H681 H 0.99109 0.23472 0.92321 0.0
H682 H 0.94574 0.24375 0.8869 0.0
H683 H 0.97031 0.24816 0.93281 0.0
H684 H 0.03529 0.25486 0.82699 0.0
H685 H 0.02163 0.27296 0.87879 0.0
H686 H 0.01876 0.23655 0.84214 0.0
H687 H 0.0381 0.2906 0.86297 0.0
H688 H 0.98332 0.2902 0.89648 0.0
H689 H 0.02044 0.28688 0.93354 0.0
H690 H 0.95028 0.18734 0.8465 0.0
H691 H 0.96994 0.22502 0.82002 0.0
H692 H 0.05525 0.22681 0.89892 0.0
H693 H 0.02252 0.23734 0.93125 0.0
H694 H 0.07214 0.21915 0.9213 0.0
H695 H 0.04002 0.22949 0.95306 0.0
H696 H 1.00103 0.18362 0.88523 0.0
H697 H 0.01565 0.20713 0.8449 0.0
H698 H 0.98876 0.16067 0.86731 0.0
H699 H 1.00311 0.18376 0.8277 0.0
H700 H 1.00212 0.19316 0.94759 0.0
H701 H 0.03916 0.17903 0.92238 0.0
H702 H 0.07597 0.26612 0.87155 0.0
H703 H 0.06687 0.22302 0.84239 0.0
Li704 Li 0.47492 0.07784 0.30711 0.0
Li705 Li 0.4591 0.0603 0.28594 0.0
Li706 Li 0.48393 0.07682 0.28181 0.0
Li707 Li 0.46035 0.08774 0.28532 0.0
C708 C 0.48654 0.05174 0.30737 0.0
N709 N 0.49767 0.03613 0.33215 0.0
C710 C 0.477 0.03876 0.31217 0.0
C711 C 0.50176 0.05675 0.31519 0.0
C712 C 0.48284 0.03103 0.32471 0.0
C713 C 0.50716 0.04873 0.32771 0.0
C714 C 0.43947 0.08047 0.30601 0.0
C715 C 0.41282 0.08568 0.30104 0.0
N716 N 0.41491 0.09443 0.31498 0.0
C717 C 0.44133 0.0895 0.3203 0.0
C718 C 0.42508 0.07849 0.29632 0.0
C719 C 0.42877 0.09646 0.32462 0.0
C720 C 0.49515 0.08822 0.33523 0.0
N721 N 0.4813 0.07924 0.32892 0.0
C722 C 0.47909 0.06612 0.35241 0.0
C723 C 0.4729 0.06881 0.33735 0.0
C724 C 0.49401 0.07428 0.35875 0.0
C725 C 0.50178 0.08594 0.35032 0.0
H726 H 0.50157 0.09635 0.32816 0.0
H727 H 0.46196 0.0618 0.3319 0.0
C728 C 0.45217 0.02948 0.27277 0.0
N729 N 0.44631 0.04051 0.28101 0.0
C730 C 0.44304 0.01484 0.26896 0.0
C731 C 0.42216 0.02311 0.28248 0.0
C732 C 0.43167 0.0376 0.28597 0.0
C733 C 0.42782 0.01149 0.27387 0.0
H734 H 0.46397 0.03207 0.26919 0.0
H735 H 0.42746 0.04644 0.29284 0.0
C736 C 0.49412 0.10587 0.29023 0.0
N737 N 0.51823 0.12567 0.2791 0.0
C738 C 0.49055 0.11651 0.27948 0.0
C739 C 0.50994 0.10533 0.29539 0.0
C740 C 0.50291 0.12643 0.27398 0.0
C741 C 0.52197 0.11542 0.2896 0.0
C742 C 0.45689 0.06307 0.25557 0.0
C743 C 0.46652 0.05569 0.24652 0.0
C744 C 0.4404 0.05949 0.25214 0.0
C745 C 0.45949 0.04485 0.23419 0.0
C746 C 0.43383 0.04855 0.23973 0.0
N747 N 0.44343 0.04152 0.23109 0.0
C748 C 0.5126 0.06845 0.27464 0.0
C749 C 0.50221 0.08522 0.25715 0.0
C750 C 0.52433 0.0665 0.26498 0.0
N751 N 0.50167 0.0774 0.2704 0.0
C752 C 0.51365 0.08348 0.24704 0.0
C753 C 0.52456 0.07362 0.25072 0.0
H754 H 0.51167 0.06209 0.28502 0.0
H755 H 0.49318 0.09206 0.25399 0.0
C756 C 0.44592 0.1137 0.29073 0.0
N757 N 0.44787 0.1027 0.27962 0.0
C758 C 0.43346 0.12192 0.28827 0.0
C759 C 0.42656 0.10856 0.26232 0.0
C760 C 0.43908 0.10056 0.26532 0.0
C761 C 0.42319 0.11884 0.27419 0.0
H762 H 0.45324 0.11521 0.30195 0.0
H763 H 0.44112 0.09193 0.25663 0.0
O764 O 0.48094 0.0596 0.29523 0.0
O765 O 0.4517 0.0737 0.3015 0.0
O766 O 0.48219 0.09591 0.29556 0.0
O767 O 0.46353 0.07357 0.26786 0.0
H768 H 0.46514 0.03476 0.30641 0.0
H769 H 0.50921 0.06696 0.31189 0.0
H770 H 0.47556 0.02101 0.32857 0.0
H771 H 0.51884 0.05258 0.33396 0.0
H772 H 0.40169 0.08437 0.29358 0.0
H773 H 0.45241 0.09126 0.32791 0.0
H774 H 0.42348 0.07171 0.28513 0.0
H775 H 0.43008 0.10353 0.33562 0.0
H776 H 0.47267 0.05718 0.35868 0.0
H777 H 0.51334 0.09242 0.35484 0.0
H778 H 0.44785 1.00626 0.26224 0.0
H779 H 0.41065 0.02093 0.28681 0.0
H780 H 0.47837 0.11705 0.27532 0.0
H781 H 0.51292 0.09702 0.30355 0.0
H782 H 0.50033 0.13469 0.26561 0.0
H783 H 0.53427 0.11506 0.29339 0.0
H784 H 0.47928 0.05814 0.24908 0.0
H785 H 0.43273 0.06487 0.25916 0.0
H786 H 0.4668 0.03902 0.22713 0.0
H787 H 0.42109 0.04559 0.23703 0.0
H788 H 0.53235 0.0586 0.26806 0.0
H789 H 0.51349 0.08913 0.2361 0.0
H790 H 0.43137 0.12996 0.2976 0.0
H791 H 0.41892 0.10586 0.2513 0.0
Li792 Li 0.31528 0.16159 0.53786 0.0
Li793 Li 0.32809 0.14153 0.52375 0.0
Li794 Li 0.31385 0.16188 0.50706 0.0
Li795 Li 0.29729 0.13979 0.52154 0.0
C796 C 0.3432 0.178 0.53043 0.0
N797 N 0.3633 0.2042 0.54403 0.0
C798 C 0.35417 0.17697 0.54337 0.0
C799 C 0.34247 0.19231 0.52435 0.0
C800 C 0.36422 0.19036 0.5501 0.0
C801 C 0.35274 0.20543 0.53141 0.0
C802 C 0.31944 0.13041 0.55113 0.0
C803 C 0.3216 0.1058 0.56142 0.0
N804 N 0.33347 0.11295 0.57243 0.0
C805 C 0.33164 0.13752 0.56253 0.0
C806 C 0.31434 0.11443 0.55054 0.0
C807 C 0.33859 0.12849 0.57321 0.0
C808 C 0.30654 0.16635 0.56964 0.0
N809 N 0.31527 0.17391 0.55903 0.0
C810 C 0.32199 0.19629 0.57794 0.0
C811 C 0.32284 0.18876 0.56299 0.0
C812 C 0.31302 0.18875 0.58912 0.0
C813 C 0.30521 0.1735 0.58457 0.0
H814 H 0.30044 0.15463 0.56649 0.0
H815 H 0.32947 0.19496 0.55457 0.0
C816 C 0.36232 0.13842 0.5252 0.0
N817 N 0.3474 0.13004 0.52494 0.0
C818 C 0.37597 0.13126 0.52626 0.0
C819 C 0.35911 0.10674 0.52665 0.0
C820 C 0.34576 0.11436 0.52563 0.0
C821 C 0.37472 0.11508 0.52703 0.0
H822 H 0.36376 0.1508 0.52452 0.0
H823 H 0.33403 0.10761 0.52545 0.0
C824 C 0.28993 0.17337 0.52891 0.0
N825 N 0.27748 0.19542 0.54561 0.0
C826 C 0.27824 0.16885 0.53876 0.0
C827 C 0.29528 0.18907 0.52751 0.0
C828 C 0.2721 0.18019 0.54712 0.0
C829 C 0.28883 0.20005 0.53606 0.0
C830 C 0.3033 0.12642 0.49411 0.0
C831 C 0.29546 0.12954 0.47984 0.0
C832 C 0.30188 0.11122 0.49847 0.0
C833 C 0.28629 0.11733 0.47011 0.0
C834 C 0.29259 0.09934 0.48843 0.0
N835 N 0.28505 0.10262 0.47457 0.0
C836 C 0.32519 0.17297 0.47693 0.0
C837 C 0.30146 0.18112 0.48235 0.0
C838 C 0.32482 0.18017 0.46247 0.0
N839 N 0.31361 0.17346 0.48669 0.0
C840 C 0.30064 0.18848 0.468 0.0
C841 C 0.31238 0.18813 0.45755 0.0
H842 H 0.33474 0.16678 0.48022 0.0
H843 H 0.2922 0.18148 0.48997 0.0
C844 C 0.27094 0.1199 0.53388 0.0
N845 N 0.27542 0.12678 0.52073 0.0
C846 C 0.25526 0.11216 0.5344 0.0
C847 C 0.24875 0.11843 0.5078 0.0
C848 C 0.26455 0.12611 0.50781 0.0
C849 C 0.24368 0.11136 0.52129 0.0
H850 H 0.27947 0.1207 0.54423 0.0
H851 H 0.26798 0.1319 0.49754 0.0
O852 O 0.33326 0.16505 0.52366 0.0
O853 O 0.31275 0.13899 0.54035 0.0
O854 O 0.29657 0.16248 0.52119 0.0
O855 O 0.312 0.13823 0.50397 0.0
H856 H 0.35489 0.16595 0.54818 0.0
H857 H 0.33405 0.19326 0.51431 0.0
H858 H 0.37275 0.18976 0.56015 0.0
H859 H 0.3523 0.2166 0.52686 0.0
H860 H 0.31782 0.09341 0.56108 0.0
H861 H 0.33572 0.14988 0.56311 0.0
H862 H 0.30499 0.10876 0.54167 0.0
H863 H 0.34806 0.13382 0.5821 0.0
H864 H 0.32809 0.20809 0.58056 0.0
H865 H 0.29824 0.16697 0.59258 0.0
H866 H 0.38745 0.13847 0.52621 0.0
H867 H 0.35713 0.09434 0.52739 0.0
H868 H 0.2741 0.15673 0.54007 0.0
H869 H 0.30443 0.19272 0.52004 0.0
H870 H 0.2631 0.17688 0.55485 0.0
H871 H 0.2929 0.21225 0.53516 0.0
H872 H 0.29638 0.14128 0.47637 0.0
H873 H 0.30777 0.10867 0.50957 0.0
H874 H 0.28013 0.11956 0.45903 0.0
H875 H 0.29133 0.08752 0.49166 0.0
H876 H 0.33414 0.17914 0.45506 0.0
H877 H 0.29085 0.19451 0.46525 0.0
H878 H 0.25229 0.10685 0.54507 0.0
H879 H 0.24047 0.11851 0.49741 0.0
Li880 Li 0.17601 0.04956 0.81928 0.0
Li881 Li 0.16151 0.02739 0.82962 0.0
Li882 Li 0.18282 0.0241 0.81415 0.0
Li883 Li 0.15677 0.02996 0.80168 0.0
C884 C 0.1915 0.04352 0.8485 0.0
N885 N 0.20623 0.05889 0.87657 0.0
C886 C 0.18247 0.04863 0.8598 0.0
C887 C 0.20803 0.0461 0.85155 0.0
C888 C 0.19014 0.05641 0.8739 0.0
C889 C 0.21525 0.05394 0.86579 0.0
C890 C 0.14251 0.05124 0.8262 0.0
C891 C 0.11579 0.05534 0.82854 0.0
N892 N 0.12134 0.06616 0.8407 0.0
C893 C 0.14798 0.06256 0.83856 0.0
C894 C 0.12632 0.04774 0.82099 0.0
C895 C 0.13708 0.06991 0.8458 0.0
C896 C 0.18059 0.07764 0.80687 0.0
N897 N 0.18388 0.07119 0.82063 0.0
C898 C 0.19884 0.09527 0.83217 0.0
C899 C 0.19259 0.0797 0.8333 0.0
C900 C 0.19623 0.10194 0.81781 0.0
C901 C 0.1868 0.09302 0.80513 0.0
H902 H 0.17349 0.07064 0.79705 0.0
H903 H 0.19501 0.07445 0.84416 0.0
C904 C 0.15993 0.01328 0.85822 0.0
N905 N 0.15117 0.01915 0.84667 0.0
C906 C 0.15271 1.00641 0.87057 0.0
C907 C 0.12752 0.01134 0.85862 0.0
C908 C 0.13523 0.0181 0.84652 0.0
C909 C 0.1363 1.00547 0.87091 0.0
H910 H 0.17252 0.01381 0.85774 0.0
H911 H 0.12844 0.02223 0.83686 0.0
C912 C 0.19288 0.04594 0.7931 0.0
N913 N 0.22083 0.05941 0.78247 0.0
C914 C 0.1933 0.04862 0.77717 0.0
C915 C 0.20665 0.05012 0.80363 0.0
C916 C 0.20756 0.05544 0.77203 0.0
C917 C 0.22067 0.05691 0.79803 0.0
C918 C 0.1535 0.99848 0.81766 0.0
C919 C 0.16203 0.98902 0.82639 0.0
C920 C 0.13695 0.99494 0.81532 0.0
C921 C 0.15383 0.9762 0.83279 0.0
C922 C 0.12919 0.98203 0.82192 0.0
N923 N 0.13771 0.97301 0.83045 0.0
C924 C 0.20711 0.00882 0.82496 0.0
C925 C 0.20334 0.00922 0.7971 0.0
C926 C 0.2191 1.00006 0.82392 0.0
N927 N 0.19947 0.01307 0.81166 0.0
C928 C 0.21532 1.0005 0.7955 0.0
C929 C 0.22322 0.99565 0.80904 0.0
H930 H 0.20368 0.01203 0.83636 0.0
H931 H 0.19695 0.01272 0.78673 0.0
C932 C 0.13612 0.0407 0.77998 0.0
N933 N 0.14134 0.02761 0.78418 0.0
C934 C 0.12386 0.03997 0.76787 0.0
C935 C 0.12268 0.01228 0.76453 0.0
C936 C 0.13502 0.01355 0.77674 0.0
C937 C 0.11693 0.02562 0.76001 0.0
H938 H 0.14133 0.05167 0.78628 0.0
H939 H 0.13943 1.00334 0.78041 0.0
O940 O 0.18428 0.03573 0.83466 0.0
O941 O 0.15298 0.04404 0.81879 0.0
O942 O 0.17897 0.03943 0.79834 0.0
O943 O 0.16129 0.01131 0.81167 0.0
H944 H 0.16968 0.04661 0.85775 0.0
H945 H 0.21521 0.0421 0.84302 0.0
H946 H 0.18329 0.06045 0.88272 0.0
H947 H 0.22803 0.05606 0.86828 0.0
H948 H 0.10321 0.05264 0.82472 0.0
H949 H 0.1605 0.06575 0.84244 0.0
H950 H 0.12192 0.03912 0.81131 0.0
H951 H 0.14114 0.07864 0.85543 0.0
H952 H 0.20611 0.10186 0.84217 0.0
H953 H 0.18444 0.09785 0.79393 0.0
H954 H 0.15987 1.00181 0.8797 0.0
H955 H 0.11486 0.01094 0.85847 0.0
H956 H 0.18271 0.04549 0.76889 0.0
H957 H 0.2065 0.0482 0.81599 0.0
H958 H 0.20807 0.05759 0.75973 0.0
H959 H 0.23141 0.06022 0.80605 0.0
H960 H 0.17484 0.99164 0.82834 0.0
H961 H 0.13017 1.00225 0.80872 0.0
H962 H 0.16027 0.96883 0.83966 0.0
H963 H 0.11638 0.97921 0.82032 0.0
H964 H 0.225 0.99667 0.83464 0.0
H965 H 0.21802 0.99717 0.78381 0.0
H966 H 0.11965 0.0505 0.7649 0.0
H967 H 0.11777 1.00102 0.75865 0.0
Li968 Li 0.29072 0.88603 0.03243 0.0
Li969 Li 0.30171 0.86645 0.04564 0.0
Li970 Li 0.31907 0.88387 0.03205 0.0
Li971 Li 0.29773 0.86432 0.01775 0.0
C972 C 0.31302 0.90402 0.05549 0.0
N973 N 0.3237 0.93463 0.06596 0.0
C974 C 0.3178 0.90811 0.0715 0.0
C975 C 0.3137 0.9155 0.04478 0.0
C976 C 0.32315 0.92365 0.07657 0.0
C977 C 0.31913 0.93091 0.05032 0.0
C978 C 0.26866 0.8626 0.0411 0.0
C979 C 0.24166 0.85214 0.04479 0.0
N980 N 0.24351 0.86029 0.05907 0.0
C981 C 0.27029 0.87088 0.05581 0.0
C982 C 0.25423 0.85317 0.03553 0.0
C983 C 0.25745 0.86955 0.06472 0.0
C984 C 0.26612 0.9007 0.0196 0.0
N985 N 0.27586 0.89987 0.03296 0.0
C986 C 0.26407 0.91854 0.04687 0.0
C987 C 0.27483 0.90834 0.04653 0.0
C988 C 0.25406 0.91987 0.03318 0.0
C989 C 0.25507 0.91069 0.01944 0.0
H990 H 0.26691 0.89353 0.0091 0.0
H991 H 0.28227 0.90711 0.05717 0.0
C992 C 0.31469 0.86178 0.07557 0.0
N993 N 0.30224 0.85608 0.06461 0.0
C994 C 0.31596 0.85568 0.09026 0.0
C995 C 0.29159 0.83782 0.08208 0.0
C996 C 0.29091 0.84414 0.06743 0.0
C997 C 0.30416 0.84371 0.09382 0.0
H998 H 0.32362 0.87115 0.07289 0.0
H999 H 0.28122 0.8397 0.05844 0.0
C1000 C 0.3063 0.88686 0.99891 0.0
N1001 N 0.31165 0.88537 0.96755 0.0
C1002 C 0.31902 0.88035 0.99421 0.0
C1003 C 0.29637 0.8927 0.98768 0.0
C1004 C 0.3215 0.87968 0.9783 0.0
C1005 C 0.29927 0.89183 0.97187 0.0
C1006 C 0.32044 0.84809 0.03732 0.0
C1007 C 0.33497 0.84835 0.04634 0.0
C1008 C 0.30918 0.83452 0.03537 0.0
C1009 C 0.33794 0.83503 0.0534 0.0
C1010 C 0.3126 0.82143 0.04262 0.0
N1011 N 0.32678 0.82196 0.05142 0.0
C1012 C 0.35016 0.89456 0.04577 0.0
C1013 C 0.34309 0.9064 0.02247 0.0
C1014 C 0.36487 0.90433 0.04813 0.0
N1015 N 0.33967 0.89577 0.0331 0.0
C1016 C 0.35765 0.91638 0.02435 0.0
C1017 C 0.3687 0.91554 0.03741 0.0
H1018 H 0.34686 0.88638 0.05434 0.0
H1019 H 0.33435 0.90749 0.0128 0.0
C1020 C 0.27978 0.85437 0.98856 0.0
N1021 N 0.29229 0.85178 0.99846 0.0
C1022 C 0.27713 0.84761 0.97312 0.0
C1023 C 0.29968 0.83489 0.97871 0.0
C1024 C 0.30204 0.84207 0.99396 0.0
C1025 C 0.28737 0.83797 0.96787 0.0
H1026 H 0.2724 0.86238 0.99241 0.0
H1027 H 0.31206 0.84043 1.00198 0.0
O1028 O 0.30804 0.88879 0.05039 0.0
O1029 O 0.28099 0.86373 0.03202 0.0
O1030 O 0.30331 0.88702 0.01435 0.0
O1031 O 0.31711 0.86112 0.03067 0.0
H1032 H 0.3174 0.89935 0.07993 0.0
H1033 H 0.31009 0.91259 0.03234 0.0
H1034 H 0.32688 0.92698 0.08893 0.0
H1035 H 0.31972 0.93991 0.04217 0.0
H1036 H 0.23042 0.84488 0.04062 0.0
H1037 H 0.28135 0.8782 0.06038 0.0
H1038 H 0.25277 0.84671 0.02415 0.0
H1039 H 0.25856 0.87588 0.07612 0.0
H1040 H 0.26341 0.92516 0.05781 0.0
H1041 H 0.24753 0.91135 0.00865 0.0
H1042 H 0.32608 0.86035 0.09873 0.0
H1043 H 0.28213 0.82871 0.08428 0.0
H1044 H 0.32674 0.87566 1.00275 0.0
H1045 H 0.2865 0.89779 0.99109 0.0
H1046 H 0.33121 0.87456 0.97448 0.0
H1047 H 0.29164 0.89625 0.96304 0.0
H1048 H 0.34383 0.85875 0.04793 0.0
H1049 H 0.29782 0.83417 0.02852 0.0
H1050 H 0.3491 0.83508 0.06048 0.0
H1051 H 0.30396 0.81088 0.0413 0.0
H1052 H 0.37291 0.90347 0.05851 0.0
H1053 H 0.36015 0.92476 0.01574 0.0
H1054 H 0.26764 0.85055 0.96519 0.0
H1055 H 0.30772 0.82734 0.97534 0.0
Li1056 Li 0.26324 0.40977 0.03226 0.0
Li1057 Li 0.27789 0.3907 0.04735 0.0
Li1058 Li 0.29359 0.41147 0.03231 0.0
Li1059 Li 0.27648 0.3893 0.01521 0.0
C1060 C 0.2774 0.42321 0.06239 0.0
N1061 N 0.27004 0.44242 0.08623 0.0
C1062 C 0.26585 0.41763 0.07201 0.0
C1063 C 0.28526 0.43852 0.06491 0.0
C1064 C 0.26229 0.42754 0.084 0.0
C1065 C 0.28135 0.44806 0.07702 0.0
C1066 C 0.24715 0.37536 0.03441 0.0
C1067 C 0.23324 0.34906 0.03254 0.0
N1068 N 0.22393 0.35308 0.04351 0.0
C1069 C 0.23743 0.37926 0.04562 0.0
C1070 C 0.24505 0.36017 0.02777 0.0
C1071 C 0.22577 0.36782 0.05008 0.0
C1072 C 0.22935 0.41328 0.0252 0.0
N1073 N 0.24367 0.4207 0.03252 0.0
C1074 C 0.23095 0.44219 0.04043 0.0
C1075 C 0.24452 0.43501 0.04004 0.0
C1076 C 0.21593 0.43482 0.03301 0.0
C1077 C 0.21549 0.42005 0.0253 0.0
H1078 H 0.22857 0.40196 0.01921 0.0
H1079 H 0.25576 0.441 0.04589 0.0
C1080 C 0.28701 0.38702 0.08106 0.0
N1081 N 0.27827 0.37937 0.06785 0.0
C1082 C 0.28764 0.3803 0.09574 0.0
C1083 C 0.27034 0.35769 0.0834 0.0
C1084 C 0.27006 0.36483 0.06892 0.0
C1085 C 0.27921 0.36534 0.09732 0.0
H1086 H 0.29359 0.3985 0.08028 0.0
H1087 H 0.26313 0.35866 0.05854 0.0
C1088 C 0.28066 0.42617 0.00762 0.0
N1089 N 0.28853 0.45431 0.99507 0.0
C1090 C 0.28476 0.42672 0.99222 0.0
C1091 C 0.28056 0.4399 0.01664 0.0
C1092 C 0.28871 0.44107 0.98609 0.0
C1093 C 0.28457 0.45402 0.01009 0.0
C1094 C 0.3103 0.38865 0.03319 0.0
C1095 C 0.3179 0.38825 0.0195 0.0
C1096 C 0.3192 0.38993 0.04796 0.0
C1097 C 0.33435 0.38924 0.02082 0.0
C1098 C 0.33563 0.39089 0.04879 0.0
N1099 N 0.3428 0.39054 0.03532 0.0
C1100 C 0.32472 0.43006 0.04582 0.0
C1101 C 0.32118 0.42693 0.01805 0.0
C1102 C 0.34045 0.43785 0.0456 0.0
N1103 N 0.31531 0.42467 0.03215 0.0
C1104 C 0.33675 0.43476 0.01729 0.0
C1105 C 0.34691 0.44033 0.03117 0.0
H1106 H 0.32019 0.42795 0.05701 0.0
H1107 H 0.31393 0.42227 0.00724 0.0
C1108 C 0.2696 0.38237 0.98059 0.0
N1109 N 0.27583 0.37691 0.99405 0.0
C1110 C 0.27043 0.37516 0.96551 0.0
C1111 C 0.28373 0.35642 0.97805 0.0
C1112 C 0.28274 0.36405 0.9929 0.0
C1113 C 0.27769 0.36195 0.96383 0.0
H1114 H 0.26423 0.39262 0.98145 0.0
H1115 H 0.2878 0.35976 1.00353 0.0
O1116 O 0.28095 0.41377 0.0505 0.0
O1117 O 0.25873 0.38633 0.03 0.0
O1118 O 0.27694 0.41228 0.01396 0.0
O1119 O 0.2943 0.38829 0.03215 0.0
H1120 H 0.25972 0.40579 0.07023 0.0
H1121 H 0.29422 0.44299 0.05753 0.0
H1122 H 0.25336 0.42339 0.09153 0.0
H1123 H 0.2873 0.45995 0.07909 0.0
H1124 H 0.23149 0.33724 0.02754 0.0
H1125 H 0.23888 0.39099 0.0508 0.0
H1126 H 0.25251 0.357 0.01907 0.0
H1127 H 0.21817 0.37065 0.05877 0.0
H1128 H 0.2323 0.45341 0.04679 0.0
H1129 H 0.20453 0.41372 0.01913 0.0
H1130 H 0.29494 0.38684 0.10574 0.0
H1131 H 0.26339 0.34629 0.08364 0.0
H1132 H 0.28506 0.4162 0.98513 0.0
H1133 H 0.27754 0.43965 0.02862 0.0
H1134 H 0.29196 0.44169 0.9742 0.0
H1135 H 0.28458 0.46475 0.01695 0.0
H1136 H 0.31118 0.38742 0.00798 0.0
H1137 H 0.31348 0.39037 0.05866 0.0
H1138 H 0.34042 0.38906 0.01033 0.0
H1139 H 0.34269 0.39198 0.06014 0.0
H1140 H 0.34759 0.44149 0.05675 0.0
H1141 H 0.34069 0.43639 0.00578 0.0
H1142 H 0.26573 0.38029 0.95525 0.0
H1143 H 0.28922 0.34622 0.97783 0.0
Li1144 Li 0.79262 0.18177 0.03462 0.0
Li1145 Li 0.8015 0.16246 0.01824 0.0
Li1146 Li 0.79123 0.18288 0.00605 0.0
Li1147 Li 0.77296 0.16217 0.01587 0.0
C1148 C 0.82372 0.18904 0.01406 0.0
N1149 N 0.85028 0.19721 0.99866 0.0
C1150 C 0.82543 0.18088 0.99999 0.0
C1151 C 0.83554 0.20136 0.0203 0.0
C1152 C 0.83893 0.18518 0.99238 0.0
C1153 C 0.84888 0.20532 0.01234 0.0
C1154 C 0.79345 0.14783 0.04259 0.0
C1155 C 0.79522 0.12109 0.04572 0.0
N1156 N 0.8075 0.12557 0.05724 0.0
C1157 C 0.80602 0.15219 0.05452 0.0
C1158 C 0.78793 0.13217 0.03818 0.0
C1159 C 0.81298 0.14075 0.06177 0.0
C1160 C 0.78219 0.19037 0.06309 0.0
N1161 N 0.79505 0.19225 0.05494 0.0
C1162 C 0.81092 0.20704 0.07696 0.0
C1163 C 0.80925 0.20041 0.06148 0.0
C1164 C 0.79786 0.20519 0.08578 0.0
C1165 C 0.78332 0.19677 0.07858 0.0
H1166 H 0.77111 0.18363 0.05762 0.0
H1167 H 0.81932 0.20156 0.05475 0.0
C1168 C 0.81414 0.13495 0.01092 0.0
N1169 N 0.81741 0.14942 0.01828 0.0
C1170 C 0.82588 0.12578 0.01071 0.0
C1171 C 0.84411 0.14633 0.02611 0.0
C1172 C 0.83197 0.15507 0.02608 0.0
C1173 C 0.84117 0.13152 0.01821 0.0
H1174 H 0.80241 0.13043 0.00527 0.0
H1175 H 0.83419 0.1664 0.0323 0.0
C1176 C 0.76996 0.19834 0.01477 0.0
N1177 N 0.76233 0.22528 1.0035 0.0
C1178 C 0.75669 0.19777 1.00376 0.0
C1179 C 0.77932 0.21257 0.02011 0.0
C1180 C 0.75304 0.21154 0.99819 0.0
C1181 C 0.77527 0.22608 0.01426 0.0
C1182 C 0.78486 0.14934 0.9874 0.0
C1183 C 0.79159 0.15209 0.97337 0.0
C1184 C 0.77601 0.13481 0.98913 0.0
C1185 C 0.78958 0.14018 0.96142 0.0
C1186 C 0.77428 0.1232 0.97691 0.0
N1187 N 0.78104 0.1261 0.96342 0.0
C1188 C 0.8029 0.20783 0.98715 0.0
C1189 C 0.78067 0.18938 0.97612 0.0
C1190 C 0.80357 0.21476 0.97283 0.0
N1191 N 0.79181 0.19512 0.98835 0.0
C1192 C 0.78084 0.19596 0.96168 0.0
C1193 C 0.79266 0.20856 0.95974 0.0
H1194 H 0.81154 0.21228 0.99711 0.0
H1195 H 0.77188 0.17936 0.97748 0.0
C1196 C 0.74631 0.14203 0.02382 0.0
N1197 N 0.75227 0.15057 0.01236 0.0
C1198 C 0.73097 0.13351 0.02127 0.0
C1199 C 0.72828 0.14272 0.99515 0.0
C1200 C 0.74368 0.15105 0.99821 0.0
C1201 C 0.7217 0.13386 0.0068 0.0
H1202 H 0.75348 0.14187 0.03494 0.0
H1203 H 0.74881 0.15797 0.98933 0.0
O1204 O 0.81054 0.18516 0.02168 0.0
O1205 O 0.78683 0.15887 0.03502 0.0
O1206 O 0.77404 0.18499 0.02 0.0
O1207 O 0.78633 0.16101 0.99905 0.0
H1208 H 0.81648 0.17128 0.99504 0.0
H1209 H 0.83438 0.20784 0.03115 0.0
H1210 H 0.84039 0.17894 0.98149 0.0
H1211 H 0.8581 0.21484 0.01702 0.0
H1212 H 0.79115 0.10892 0.04236 0.0
H1213 H 0.81047 0.16428 0.05799 0.0
H1214 H 0.77826 0.12863 0.02891 0.0
H1215 H 0.82279 0.14394 0.07095 0.0
H1216 H 0.8223 0.21356 0.08196 0.0
H1217 H 0.77301 0.1948 0.08497 0.0
H1218 H 0.82309 0.11442 1.00448 0.0
H1219 H 0.85564 0.15107 0.03233 0.0
H1220 H 0.74937 0.18682 0.99946 0.0
H1221 H 0.78969 0.21316 0.02856 0.0
H1222 H 0.74284 0.21129 0.98961 0.0
H1223 H 0.78244 0.23718 0.01823 0.0
H1224 H 0.79824 0.16333 0.97167 0.0
H1225 H 0.77074 0.13243 0.99989 0.0
H1226 H 0.79476 0.14215 0.95053 0.0
H1227 H 0.76756 0.11189 0.97815 0.0
H1228 H 0.8129 0.22445 0.97186 0.0
H1229 H 0.77196 0.19102 0.95204 0.0
H1230 H 0.72645 0.12667 0.03049 0.0
H1231 H 0.72151 0.14346 0.98391 0.0
Li1232 Li 0.12397 0.49101 0.26652 0.0
Li1233 Li 0.10862 0.48568 0.28873 0.0
Li1234 Li 0.11805 0.46504 0.27423 0.0
Li1235 Li 0.09675 0.47697 0.26249 0.0
C1236 C 0.14186 0.47758 0.29581 0.0
N1237 N 0.16368 0.46422 0.31384 0.0
C1238 C 0.13978 0.47479 0.31148 0.0
C1239 C 0.15512 0.47369 0.28936 0.0
C1240 C 0.15095 0.46802 0.3204 0.0
C1241 C 0.16598 0.46689 0.29865 0.0
C1242 C 0.10089 0.51153 0.27811 0.0
C1243 C 0.08347 0.52465 0.29236 0.0
N1244 N 0.09452 0.53778 0.2939 0.0
C1245 C 0.11208 0.52518 0.2799 0.0
C1246 C 0.08647 0.51128 0.28442 0.0
C1247 C 0.10862 0.53832 0.28788 0.0
C1248 C 0.13366 0.51517 0.24751 0.0
N1249 N 0.13872 0.50669 0.2592 0.0
C1250 C 0.16326 0.5242 0.26447 0.0
C1251 C 0.15331 0.51073 0.26742 0.0
C1252 C 0.15803 0.53366 0.25306 0.0
C1253 C 0.14322 0.52875 0.24417 0.0
H1254 H 0.1218 0.51191 0.24148 0.0
H1255 H 0.15685 0.50401 0.27693 0.0
C1256 C 0.09243 0.49156 0.3154 0.0
N1257 N 0.10592 0.49514 0.30841 0.0
C1258 C 0.08905 0.50171 0.32725 0.0
C1259 C 0.11403 0.51832 0.32514 0.0
C1260 C 0.117 0.50778 0.31351 0.0
C1261 C 0.09959 0.51568 0.3317 0.0
H1262 H 0.08384 0.48143 0.31103 0.0
H1263 H 0.12754 0.51034 0.30755 0.0
C1264 C 0.12274 0.47588 0.23966 0.0
N1265 N 0.13774 0.48517 0.21379 0.0
C1266 C 0.11422 0.48097 0.22676 0.0
C1267 C 0.1389 0.47557 0.2394 0.0
C1268 C 0.12201 0.48559 0.21379 0.0
C1269 C 0.14627 0.48031 0.22623 0.0
C1270 C 0.08275 0.45516 0.27727 0.0
C1271 C 0.08258 0.44066 0.26959 0.0
C1272 C 0.06846 0.45997 0.27977 0.0
C1273 C 0.06804 0.43119 0.26449 0.0
C1274 C 0.05417 0.45017 0.27448 0.0
N1275 N 0.05426 0.43611 0.26701 0.0
C1276 C 0.12653 0.44053 0.29091 0.0
C1277 C 0.13454 0.44142 0.26517 0.0
C1278 C 0.136 0.4295 0.29453 0.0
N1279 N 0.12659 0.44671 0.27669 0.0
C1280 C 0.14409 0.43035 0.26823 0.0
C1281 C 0.1454 0.42474 0.28329 0.0
H1282 H 0.11996 0.44493 0.29979 0.0
H1283 H 0.13419 0.4464 0.25391 0.0
C1284 C 0.06891 0.48523 0.24803 0.0
N1285 N 0.07815 0.47413 0.24788 0.0
C1286 C 0.05777 0.48599 0.23525 0.0
C1287 C 0.06507 0.46323 0.22279 0.0
C1288 C 0.07594 0.46277 0.23599 0.0
C1289 C 0.05644 0.47546 0.22201 0.0
H1290 H 0.07095 0.49418 0.25748 0.0
H1291 H 0.08361 0.45419 0.23611 0.0
O1292 O 0.13087 0.48387 0.28678 0.0
O1293 O 0.10416 0.49844 0.27053 0.0
O1294 O 0.11538 0.4715 0.25259 0.0
O1295 O 0.09685 0.46474 0.28196 0.0
H1296 H 0.12956 0.47763 0.31665 0.0
H1297 H 0.15687 0.47568 0.27723 0.0
H1298 H 0.14944 0.46571 0.33251 0.0
H1299 H 0.17619 0.46367 0.29375 0.0
H1300 H 0.07244 0.52453 0.29744 0.0
H1301 H 0.12341 0.52564 0.27541 0.0
H1302 H 0.07785 0.50075 0.28368 0.0
H1303 H 0.11721 0.54891 0.28937 0.0
H1304 H 0.17447 0.52768 0.27177 0.0
H1305 H 0.13879 0.53567 0.23521 0.0
H1306 H 0.07796 0.49901 0.33229 0.0
H1307 H 0.12245 0.52893 0.32806 0.0
H1308 H 0.1018 0.48161 0.22682 0.0
H1309 H 0.14578 0.47196 0.24938 0.0
H1310 H 0.11557 0.4896 0.20376 0.0
H1311 H 0.15878 0.4802 0.22592 0.0
H1312 H 0.09355 0.43682 0.26746 0.0
H1313 H 0.06839 0.47123 0.28554 0.0
H1314 H 0.06772 0.41996 0.25848 0.0
H1315 H 0.04301 0.45377 0.27625 0.0
H1316 H 0.13652 0.42529 0.3062 0.0
H1317 H 0.15118 0.42703 0.25925 0.0
H1318 H 0.05114 0.49544 0.23523 0.0
H1319 H 0.0645 0.45493 0.2128 0.0
Li1320 Li 0.76113 0.90768 0.53351 0.0
Li1321 Li 0.77524 0.88826 0.54844 0.0
Li1322 Li 0.79224 0.91021 0.53405 0.0
Li1323 Li 0.77475 0.88726 0.51732 0.0
C1324 C 0.77478 0.92294 0.56194 0.0
N1325 N 0.76668 0.94582 0.58145 0.0
C1326 C 0.76237 0.91943 0.57121 0.0
C1327 C 0.78307 0.93807 0.56256 0.0
C1328 C 0.75845 0.93117 0.581 0.0
C1329 C 0.77881 0.94948 0.57252 0.0
C1330 C 0.74613 0.87172 0.53507 0.0
C1331 C 0.7366 0.84426 0.53358 0.0
N1332 N 0.72547 0.84668 0.54324 0.0
C1333 C 0.73455 0.87397 0.5449 0.0
C1334 C 0.74714 0.85678 0.52928 0.0
C1335 C 0.72424 0.86115 0.54893 0.0
C1336 C 0.72683 0.91053 0.52789 0.0
N1337 N 0.74149 0.91871 0.53337 0.0
C1338 C 0.72901 0.94097 0.53922 0.0
C1339 C 0.74262 0.93382 0.53885 0.0
C1340 C 0.71364 0.93279 0.53379 0.0
C1341 C 0.71293 0.91725 0.528 0.0
H1342 H 0.7258 0.89862 0.52338 0.0
H1343 H 0.75412 0.94048 0.54311 0.0
C1344 C 0.78863 0.87021 0.57372 0.0
N1345 N 0.77563 0.87643 0.56867 0.0
C1346 C 0.78957 0.86284 0.58805 0.0
C1347 C 0.76382 0.86823 0.59215 0.0
C1348 C 0.76335 0.87547 0.57775 0.0
C1349 C 0.7771 0.86174 0.59776 0.0
H1350 H 0.79854 0.87116 0.56678 0.0
H1351 H 0.7531 0.8805 0.574 0.0
C1352 C 0.77955 0.92277 0.50741 0.0
N1353 N 0.78864 0.94831 0.491 0.0
C1354 C 0.78378 0.92088 0.49215 0.0
C1355 C 0.77988 0.93762 0.51433 0.0
C1356 C 0.78836 0.93395 0.48404 0.0
C1357 C 0.78453 0.9504 0.50584 0.0
C1358 C 0.80116 0.8759 0.53136 0.0
C1359 C 0.81642 0.87932 0.52679 0.0
C1360 C 0.79434 0.86054 0.53272 0.0
C1361 C 0.82457 0.86725 0.5235 0.0
C1362 C 0.80289 0.8488 0.52934 0.0
N1363 N 0.81769 0.85236 0.52483 0.0
C1364 C 0.82291 0.93008 0.54736 0.0
C1365 C 0.8204 0.92409 0.51989 0.0
C1366 C 0.83859 0.93799 0.54707 0.0
N1367 N 0.81402 0.92326 0.53387 0.0
C1368 C 0.83599 0.9319 0.51907 0.0
C1369 C 0.84558 0.93899 0.53278 0.0
H1370 H 0.81799 0.92911 0.5585 0.0
H1371 H 0.81352 0.91838 0.50927 0.0
C1372 C 0.76168 0.86718 0.48746 0.0
N1373 N 0.77506 0.87506 0.49621 0.0
C1374 C 0.76236 0.85967 0.47245 0.0
C1375 C 0.79054 0.86817 0.4755 0.0
C1376 C 0.78931 0.87566 0.4903 0.0
C1377 C 0.77696 0.85999 0.46611 0.0
H1378 H 0.75034 0.86683 0.492 0.0
H1379 H 0.79985 0.88225 0.49696 0.0
O1380 O 0.77866 0.91167 0.55214 0.0
O1381 O 0.75639 0.8841 0.53106 0.0
O1382 O 0.77529 0.91016 0.51564 0.0
O1383 O 0.7929 0.88753 0.53443 0.0
H1384 H 0.75571 0.90782 0.5707 0.0
H1385 H 0.79261 0.941 0.55534 0.0
H1386 H 0.74882 0.92864 0.5882 0.0
H1387 H 0.7851 0.96125 0.57311 0.0
H1388 H 0.73725 0.83262 0.52921 0.0
H1389 H 0.73365 0.88548 0.54949 0.0
H1390 H 0.75595 0.85488 0.52152 0.0
H1391 H 0.71527 0.8627 0.55661 0.0
H1392 H 0.73064 0.95284 0.54404 0.0
H1393 H 0.70172 0.91023 0.52332 0.0
H1394 H 0.80026 0.85837 0.59163 0.0
H1395 H 0.75369 0.86769 0.59877 0.0
H1396 H 0.78361 0.90944 0.48666 0.0
H1397 H 0.7767 0.93924 0.52617 0.0
H1398 H 0.79172 0.93268 0.47223 0.0
H1399 H 0.7849 0.96197 0.51106 0.0
H1400 H 0.82186 0.89117 0.52572 0.0
H1401 H 0.7826 0.85774 0.53639 0.0
H1402 H 0.83637 0.86971 0.51989 0.0
H1403 H 0.79775 0.83685 0.53032 0.0
H1404 H 0.8453 0.94292 0.55811 0.0
H1405 H 0.84042 0.93233 0.50766 0.0
H1406 H 0.75148 0.85353 0.46594 0.0
H1407 H 0.80209 0.86916 0.47128 0.0
Li1408 Li 0.93034 0.02544 0.26074 0.0
Li1409 Li 0.91048 1.0046 0.24955 0.0
Li1410 Li 0.9239 0.02172 0.23154 0.0
Li1411 Li 0.90449 0.02944 0.24868 0.0
C1412 C 0.9366 0.99364 0.24671 0.0
N1413 N 0.94168 0.96348 0.24777 0.0
C1414 C 0.94402 0.98883 0.26042 0.0
C1415 C 0.93174 0.9831 0.23355 0.0
C1416 C 0.94651 0.97354 0.26071 0.0
C1417 C 0.9344 0.96791 0.23433 0.0
C1418 C 0.90465 0.01007 0.2796 0.0
C1419 C 0.88427 0.99339 0.29097 0.0
N1420 N 0.89507 0.99154 0.30315 0.0
C1421 C 0.91554 0.00805 0.29228 0.0
C1422 C 0.88886 1.00274 0.27898 0.0
C1423 C 0.91046 0.99863 0.30405 0.0
C1424 C 0.94589 0.04293 0.28849 0.0
N1425 N 0.94765 0.03323 0.27609 0.0
C1426 C 0.97486 0.03392 0.28536 0.0
C1427 C 0.96184 0.029 0.27412 0.0
C1428 C 0.97336 0.04357 0.29863 0.0
C1429 C 0.95868 0.04835 0.29991 0.0
H1430 H 0.93449 0.04631 0.28956 0.0
H1431 H 0.96297 0.02156 0.26393 0.0
C1432 C 0.89173 0.97596 0.23851 0.0
N1433 N 0.90171 0.9833 0.25102 0.0
C1434 C 0.88524 0.96036 0.23863 0.0
C1435 C 0.8995 0.96008 0.26444 0.0
C1436 C 0.9059 0.97561 0.26372 0.0
C1437 C 0.88901 0.95231 0.2518 0.0
H1438 H 0.88892 0.98219 0.22836 0.0
H1439 H 0.91432 0.98145 0.27325 0.0
C1440 C 0.93666 0.05339 0.24972 0.0
N1441 N 0.95995 0.07852 0.25987 0.0
C1442 C 0.93336 0.06527 0.25975 0.0
C1443 C 0.95176 0.0543 0.24477 0.0
C1444 C 0.94531 0.07788 0.26477 0.0
C1445 C 0.96339 0.0671 0.25007 0.0
C1446 C 0.88658 0.0154 0.22412 0.0
C1447 C 0.88548 0.02391 0.21086 0.0
C1448 C 0.87286 0.00965 0.23086 0.0
C1449 C 0.87066 0.02675 0.2047 0.0
C1450 C 0.85826 0.01273 0.22436 0.0
N1451 N 0.85747 0.02117 0.21153 0.0
C1452 C 0.94333 0.01564 0.20839 0.0
C1453 C 0.93009 0.03691 0.20425 0.0
C1454 C 0.95111 0.01835 0.19504 0.0
N1455 N 0.93298 0.0248 0.21262 0.0
C1456 C 0.93764 0.04007 0.19079 0.0
C1457 C 0.94833 0.03072 0.18607 0.0
H1458 H 0.94589 1.00649 0.21561 0.0
H1459 H 0.92215 0.04428 0.20822 0.0
C1460 C 0.87766 0.0395 0.25944 0.0
N1461 N 0.88894 0.04217 0.24942 0.0
C1462 C 0.86606 0.04881 0.25987 0.0
C1463 C 0.87802 0.06349 0.23973 0.0
C1464 C 0.88934 0.05385 0.23965 0.0
C1465 C 0.8662 0.06105 0.24999 0.0
H1466 H 0.87766 0.03016 0.26708 0.0
H1467 H 0.89852 0.05567 0.23184 0.0
O1468 O 0.9338 0.00849 0.24628 0.0
O1469 O 0.90938 0.0194 0.26806 0.0
O1470 O 0.92526 0.04077 0.24504 0.0
O1471 O 0.90104 0.01288 0.23063 0.0
H1472 H 0.94759 0.99671 0.27082 0.0
H1473 H 0.92567 0.98653 0.22296 0.0
H1474 H 0.95219 0.96964 0.27125 0.0
H1475 H 0.93059 0.95961 0.22428 0.0
H1476 H 0.87212 0.98756 0.29056 0.0
H1477 H 0.92781 0.01355 0.29297 0.0
H1478 H 0.88029 1.00406 0.26923 0.0
H1479 H 0.91878 0.99691 0.31389 0.0
H1480 H 0.9858 0.02973 0.28389 0.0
H1481 H 0.95701 0.05604 0.30972 0.0
H1482 H 0.87718 0.9547 0.22866 0.0
H1483 H 0.90289 0.95414 0.27468 0.0
H1484 H 0.92172 0.06467 0.26372 0.0
H1485 H 0.9545 0.04513 0.23708 0.0
H1486 H 0.94296 0.08714 0.2726 0.0
H1487 H 0.97516 0.06793 0.24641 0.0
H1488 H 0.89595 0.02837 0.20544 0.0
H1489 H 0.8735 1.003 0.2411 0.0
H1490 H 0.86964 0.03341 0.1945 0.0
H1491 H 0.84756 0.00846 0.22953 0.0
H1492 H 0.95958 0.01111 0.19206 0.0
H1493 H 0.9352 0.04973 0.1842 0.0
H1494 H 0.85707 0.04642 0.26783 0.0
H1495 H 0.87873 0.07294 0.2321 0.0
Li1496 Li 0.28807 0.68234 0.53532 0.0
Li1497 Li 0.29997 0.66404 0.51961 0.0
Li1498 Li 0.28812 0.68453 0.50728 0.0
Li1499 Li 0.27164 0.66239 0.51702 0.0
C1500 C 0.31773 0.69773 0.51864 0.0
N1501 N 0.33956 0.72005 0.50752 0.0
C1502 C 0.3309 0.69363 0.51221 0.0
C1503 C 0.31574 0.7132 0.51955 0.0
C1504 C 0.34179 0.70508 0.50663 0.0
C1505 C 0.32688 0.7243 0.51382 0.0
C1506 C 0.29284 0.64999 0.54503 0.0
C1507 C 0.30121 0.62539 0.54834 0.0
N1508 N 0.30896 0.63095 0.56271 0.0
C1509 C 0.3009 0.65546 0.55983 0.0
C1510 C 0.29297 0.63481 0.53924 0.0
C1511 C 0.30896 0.64565 0.56859 0.0
C1512 C 0.27831 0.68756 0.56524 0.0
N1513 N 0.28934 0.69287 0.55562 0.0
C1514 C 0.30321 0.71116 0.57617 0.0
C1515 C 0.30161 0.70448 0.56072 0.0
C1516 C 0.29205 0.70581 0.58642 0.0
C1517 C 0.27938 0.69395 0.58072 0.0
H1518 H 0.26892 0.67802 0.561 0.0
H1519 H 0.31036 0.70831 0.55291 0.0
C1520 C 0.3171 0.64281 0.50649 0.0
N1521 N 0.31689 0.6527 0.51924 0.0
C1522 C 0.32883 0.63362 0.50621 0.0
C1523 C 0.34013 0.64527 0.53206 0.0
C1524 C 0.32827 0.65435 0.53175 0.0
C1525 C 0.34041 0.63465 0.51921 0.0
H1526 H 0.30808 0.64194 0.49658 0.0
H1527 H 0.32796 0.66253 0.54161 0.0
C1528 C 0.26208 0.69376 0.52796 0.0
N1529 N 0.24668 0.71223 0.54607 0.0
C1530 C 0.24904 0.68716 0.53528 0.0
C1531 C 0.2672 0.70975 0.52972 0.0
C1532 C 0.24143 0.6967 0.54442 0.0
C1533 C 0.25929 0.71889 0.53897 0.0
C1534 C 0.27567 0.65308 0.48864 0.0
C1535 C 0.26685 0.65959 0.47698 0.0
C1536 C 0.27353 0.63701 0.4891 0.0
C1537 C 0.25599 0.6499 0.46598 0.0
C1538 C 0.26252 0.62771 0.47791 0.0
N1539 N 0.25405 0.6343 0.46668 0.0
C1540 C 0.30143 0.69665 0.48105 0.0
C1541 C 0.27767 0.70545 0.48605 0.0
C1542 C 0.30195 0.7043 0.46722 0.0
N1543 N 0.28946 0.6974 0.49016 0.0
C1544 C 0.2775 0.71297 0.47206 0.0
C1545 C 0.28972 0.71233 0.46245 0.0
H1546 H 0.31026 0.68961 0.48422 0.0
H1547 H 0.26805 0.70548 0.49328 0.0
C1548 C 0.25026 0.63476 0.51913 0.0
N1549 N 0.25176 0.64889 0.51326 0.0
C1550 C 0.23593 0.62449 0.51628 0.0
C1551 C 0.2248 0.64361 0.50164 0.0
C1552 C 0.23944 0.65346 0.50463 0.0
C1553 C 0.22288 0.62888 0.50754 0.0
H1554 H 0.2602 0.63142 0.52596 0.0
H1555 H 0.241 0.66481 0.50014 0.0
O1556 O 0.30688 0.68667 0.52406 0.0
O1557 O 0.285 0.65947 0.5362 0.0
O1558 O 0.26985 0.68459 0.51919 0.0
O1559 O 0.28601 0.66239 0.49981 0.0
H1560 H 0.33263 0.68172 0.51142 0.0
H1561 H 0.30564 0.71656 0.52454 0.0
H1562 H 0.35199 0.70207 0.50155 0.0
H1563 H 0.32544 0.7363 0.51437 0.0
H1564 H 0.30152 0.61368 0.54394 0.0
H1565 H 0.30108 0.66718 0.56449 0.0
H1566 H 0.28713 0.63046 0.52768 0.0
H1567 H 0.31527 0.64975 0.58004 0.0
H1568 H 0.31309 0.72035 0.58006 0.0
H1569 H 0.27067 0.68931 0.58828 0.0
H1570 H 0.3286 0.62554 0.4961 0.0
H1571 H 0.34901 0.64655 0.54219 0.0
H1572 H 0.24497 0.67479 0.53408 0.0
H1573 H 0.27722 0.71503 0.52405 0.0
H1574 H 0.23139 0.69175 0.55024 0.0
H1575 H 0.26317 0.73128 0.5405 0.0
H1576 H 0.26825 0.67199 0.4765 0.0
H1577 H 0.28008 0.63177 0.49817 0.0
H1578 H 0.24904 0.65479 0.45693 0.0
H1579 H 0.26066 0.61527 0.4782 0.0
H1580 H 0.31138 0.70332 0.45992 0.0
H1581 H 0.26782 0.71898 0.46863 0.0
H1582 H 0.23515 0.61318 0.52083 0.0
H1583 H 0.21505 0.6476 0.49503 0.0
Li1584 Li 0.39338 0.49411 0.71835 0.0
Li1585 Li 0.40772 0.51029 0.73982 0.0
Li1586 Li 0.3852 0.51843 0.72454 0.0
Li1587 Li 0.41135 0.51672 0.71311 0.0
C1588 C 0.37218 0.49252 0.74302 0.0
N1589 N 0.34577 0.47556 0.75359 0.0
C1590 C 0.37389 0.48334 0.75571 0.0
C1591 C 0.35699 0.49328 0.73591 0.0
C1592 C 0.36041 0.47479 0.76081 0.0
C1593 C 0.34381 0.48456 0.74136 0.0
C1594 C 0.42313 0.4869 0.72997 0.0
C1595 C 0.44407 0.47179 0.73293 0.0
N1596 N 0.43578 0.4629 0.74285 0.0
C1597 C 0.41484 0.47763 0.74021 0.0
C1598 C 0.43787 0.48398 0.7263 0.0
C1599 C 0.42142 0.46554 0.74658 0.0
C1600 C 0.39661 0.46442 0.70542 0.0
N1601 N 0.38599 0.47279 0.71074 0.0
C1602 C 0.3664 0.44998 0.70965 0.0
C1603 C 0.37083 0.46599 0.71192 0.0
C1604 C 0.37767 0.44089 0.70591 0.0
C1605 C 0.39275 0.44834 0.7031 0.0
H1606 H 0.40836 0.47012 0.70367 0.0
H1607 H 0.36226 0.47284 0.71515 0.0
C1608 C 0.41105 0.51308 0.77313 0.0
N1609 N 0.41885 0.51196 0.76017 0.0
C1610 C 0.41947 0.5152 0.78815 0.0
C1611 C 0.44368 0.5148 0.77608 0.0
C1612 C 0.43482 0.51282 0.76134 0.0
C1613 C 0.43603 0.51611 0.78975 0.0
H1614 H 0.39835 0.51262 0.77176 0.0
H1615 H 0.4407 0.51216 0.75077 0.0
C1616 C 0.38147 0.50013 0.69091 0.0
N1617 N 0.36636 0.47935 0.66648 0.0
C1618 C 0.39033 0.49355 0.68037 0.0
C1619 C 0.36494 0.49628 0.68898 0.0
C1620 C 0.38246 0.48302 0.6681 0.0
C1621 C 0.35752 0.48572 0.67656 0.0
C1622 C 0.41485 0.54059 0.74268 0.0
C1623 C 0.40672 0.5457 0.75477 0.0
C1624 C 0.43121 0.54548 0.74325 0.0
C1625 C 0.41513 0.55551 0.76732 0.0
C1626 C 0.43921 0.55529 0.75601 0.0
N1627 N 0.43107 0.56005 0.76769 0.0
C1628 C 0.36276 0.53201 0.73948 0.0
C1629 C 0.36655 0.53974 0.71377 0.0
C1630 C 0.35302 0.54294 0.74165 0.0
N1631 N 0.36944 0.53079 0.7258 0.0
C1632 C 0.35702 0.55098 0.71551 0.0
C1633 C 0.35043 0.55287 0.72973 0.0
H1634 H 0.36566 0.52502 0.74901 0.0
H1635 H 0.37225 0.53863 0.70314 0.0
C1636 C 0.44176 0.52571 0.70516 0.0
N1637 N 0.42631 0.52637 0.70074 0.0
C1638 C 0.45358 0.53334 0.69701 0.0
C1639 C 0.4333 0.54217 0.67988 0.0
C1640 C 0.42185 0.53438 0.68842 0.0
C1641 C 0.44941 0.54169 0.68416 0.0
H1642 H 0.44489 0.51945 0.71521 0.0
H1643 H 0.40943 0.53475 0.68529 0.0
O1644 O 0.38525 0.50131 0.73817 0.0
O1645 O 0.41695 0.49884 0.72358 0.0
O1646 O 0.38897 0.51011 0.70322 0.0
O1647 O 0.4069 0.53056 0.73056 0.0
H1648 H 0.38549 0.48291 0.76167 0.0
H1649 H 0.35541 0.50031 0.72609 0.0
H1650 H 0.36158 0.46759 0.77058 0.0
H1651 H 0.33201 0.48494 0.73586 0.0
H1652 H 0.45546 0.46939 0.73018 0.0
H1653 H 0.40341 0.47966 0.74308 0.0
H1654 H 0.44445 0.49103 0.71838 0.0
H1655 H 0.41509 0.45825 0.75448 0.0
H1656 H 0.35458 0.44476 0.7118 0.0
H1657 H 0.40166 0.44178 0.69977 0.0
H1658 H 0.41312 0.51639 0.79834 0.0
H1659 H 0.45638 0.5152 0.77674 0.0
H1660 H 0.40315 0.49641 0.68177 0.0
H1661 H 0.35795 0.50132 0.69705 0.0
H1662 H 0.38916 0.47775 0.6599 0.0
H1663 H 0.34474 0.48255 0.67495 0.0
H1664 H 0.39409 0.54194 0.75458 0.0
H1665 H 0.43771 0.5416 0.73405 0.0
H1666 H 0.409 0.55946 0.77681 0.0
H1667 H 0.45189 0.55908 0.75666 0.0
H1668 H 0.34839 0.54426 0.75289 0.0
H1669 H 0.35528 0.55847 0.70608 0.0
H1670 H 0.46586 0.53283 0.70083 0.0
H1671 H 0.42957 0.5483 0.66992 0.0
Li1672 Li 0.60834 0.98707 0.78566 0.0
Li1673 Li 0.62296 0.99226 0.76297 0.0
Li1674 Li 0.5964 0.97646 0.76 0.0
Li1675 Li 0.61914 0.96674 0.77211 0.0
C1676 C 0.59783 0.01106 0.77352 0.0
N1677 N 0.58862 0.03653 0.78799 0.0
C1678 C 0.60812 0.02528 0.77559 0.0
C1679 C 0.58282 0.00983 0.77875 0.0
C1680 C 0.60324 0.03801 0.78292 0.0
C1681 C 0.5784 0.02283 0.78607 0.0
C1682 C 0.6428 0.98173 0.79273 0.0
C1683 C 0.66793 0.97284 0.79545 0.0
N1684 N 0.66671 0.97144 0.81107 0.0
C1685 C 0.64181 0.98024 0.80882 0.0
C1686 C 0.656 0.97807 0.78599 0.0
C1687 C 0.65402 0.97502 0.81789 0.0
C1688 C 0.59163 0.99321 0.81178 0.0
N1689 N 0.60505 0.99718 0.80479 0.0
C1690 C 0.61198 0.02093 0.82079 0.0
C1691 C 0.6155 0.01038 0.80947 0.0
C1692 C 0.59765 0.01773 0.82749 0.0
C1693 C 0.58772 1.00336 0.82334 0.0
H1694 H 0.58351 0.98267 0.80772 0.0
H1695 H 0.62598 0.01325 0.80349 0.0
C1696 C 0.63089 0.01636 0.74306 0.0
N1697 N 0.63661 0.00827 0.75478 0.0
C1698 C 0.64001 0.02998 0.73914 0.0
C1699 C 0.66089 0.02624 0.75894 0.0
C1700 C 0.65138 0.01277 0.76251 0.0
C1701 C 0.65507 0.03527 0.74742 0.0
H1702 H 0.61895 0.01267 0.73738 0.0
H1703 H 0.65544 1.0064 0.77207 0.0
C1704 C 0.58456 0.95456 0.77704 0.0
N1705 N 0.55733 0.9327 0.77032 0.0
C1706 C 0.58556 0.93933 0.77222 0.0
C1707 C 0.56974 0.95866 0.77855 0.0
C1708 C 0.57165 0.92845 0.76886 0.0
C1709 C 0.5561 0.94744 0.77505 0.0
C1710 C 0.62136 0.97624 0.73648 0.0
C1711 C 0.61139 0.97983 0.72379 0.0
C1712 C 0.63758 0.97726 0.73526 0.0
C1713 C 0.61783 0.98442 0.71007 0.0
C1714 C 0.64356 0.98192 0.72136 0.0
N1715 N 0.63365 0.98537 0.70916 0.0
C1716 C 0.57 0.98368 0.74222 0.0
C1717 C 0.57366 0.95777 0.73741 0.0
C1718 C 0.55839 0.98205 0.72939 0.0
N1719 N 0.57763 0.97177 0.74572 0.0
C1720 C 0.56202 0.95559 0.72447 0.0
C1721 C 0.55466 0.96805 0.71995 0.0
H1722 H 0.57374 0.99483 0.74861 0.0
H1723 H 0.58022 0.94862 0.74019 0.0
C1724 C 0.63204 0.94417 0.78918 0.0
N1725 N 0.62943 0.94946 0.77467 0.0
C1726 C 0.64305 0.93432 0.79185 0.0
C1727 C 0.64701 0.93429 0.76421 0.0
C1728 C 0.63607 0.94422 0.76213 0.0
C1729 C 0.6512 0.92982 0.77938 0.0
H1730 H 0.62647 0.94849 0.79891 0.0
H1731 H 0.63353 0.94841 0.75067 0.0
O1732 O 0.60254 0.99834 0.76671 0.0
O1733 O 0.63086 0.98663 0.78361 0.0
O1734 O 0.59802 0.9654 0.78024 0.0
O1735 O 0.61535 0.97197 0.75012 0.0
H1736 H 0.61985 0.02645 0.77182 0.0
H1737 H 0.57476 0.99889 0.77743 0.0
H1738 H 0.61112 0.04905 0.78468 0.0
H1739 H 0.56688 0.02199 0.79032 0.0
H1740 H 0.67812 0.96982 0.79035 0.0
H1741 H 0.63166 0.98294 0.81422 0.0
H1742 H 0.65689 0.97899 0.77352 0.0
H1743 H 0.65338 0.97376 0.83034 0.0
H1744 H 0.61992 0.03187 0.82346 0.0
H1745 H 0.57674 1.00023 0.82848 0.0
H1746 H 0.63511 0.03659 0.73014 0.0
H1747 H 0.67227 0.03002 0.76585 0.0
H1748 H 0.59694 0.93597 0.77099 0.0
H1749 H 0.56877 0.97041 0.78221 0.0
H1750 H 0.57223 0.91663 0.76506 0.0
H1751 H 0.54455 0.95046 0.77607 0.0
H1752 H 0.59884 0.97921 0.72451 0.0
H1753 H 0.6455 0.97469 0.74502 0.0
H1754 H 0.61026 0.98727 0.70018 0.0
H1755 H 0.6561 0.98285 0.72029 0.0
H1756 H 0.55338 0.99211 0.7262 0.0
H1757 H 0.55947 0.94458 0.71757 0.0
H1758 H 0.64592 0.93117 0.80373 0.0
H1759 H 0.65267 0.93072 0.75418 0.0
Li1760 Li 0.81598 0.66138 0.03958 0.0
Li1761 Li 0.8299 0.64168 0.02574 0.0
Li1762 Li 0.81477 0.66115 0.00944 0.0
Li1763 Li 0.79727 0.63974 0.02412 0.0
C1764 C 0.84632 0.67634 0.03176 0.0
N1765 N 0.87107 0.69941 0.04406 0.0
C1766 C 0.85897 0.67277 0.04163 0.0
C1767 C 0.84643 0.69157 0.02785 0.0
C1768 C 0.87133 0.68462 0.04781 0.0
C1769 C 0.859 0.70308 0.03428 0.0
C1770 C 0.81661 0.63801 0.05824 0.0
C1771 C 0.80657 0.63322 0.08319 0.0
N1772 N 0.82137 0.63828 0.09074 0.0
C1773 C 0.83174 0.64298 0.06623 0.0
C1774 C 0.80394 0.63294 0.06676 0.0
C1775 C 0.8339 0.6431 0.08267 0.0
C1776 C 0.80215 0.67141 0.06755 0.0
N1777 N 0.81596 0.67387 0.06073 0.0
C1778 C 0.82805 0.69084 0.08367 0.0
C1779 C 0.82881 0.68349 0.06861 0.0
C1780 C 0.81393 0.68844 0.09106 0.0
C1781 C 0.80089 0.6785 0.08252 0.0
H1782 H 0.79203 0.6636 0.06148 0.0
H1783 H 0.83982 0.68542 0.06339 0.0
C1784 C 0.86012 0.63349 0.01606 0.0
N1785 N 0.8491 0.63031 0.02642 0.0
C1786 C 0.87379 0.62637 0.01656 0.0
C1787 C 0.86492 0.61265 0.03837 0.0
C1788 C 0.85141 0.62001 0.03746 0.0
C1789 C 0.8766 0.61569 0.02787 0.0
H1790 H 0.8584 0.64167 0.00733 0.0
H1791 H 0.84281 0.61753 0.04578 0.0
C1792 C 0.79058 0.67447 0.0284 0.0
N1793 N 0.77723 0.69894 0.03938 0.0
C1794 C 0.77465 0.67214 0.03113 0.0
C1795 C 0.79967 0.68927 0.03109 0.0
C1796 C 0.76813 0.68466 0.03671 0.0
C1797 C 0.79273 0.70148 0.0367 0.0
C1798 C 0.80858 0.63253 0.99138 0.0
C1799 C 0.7943 0.63485 0.98336 0.0
C1800 C 0.81928 0.62569 0.98328 0.0
C1801 C 0.79095 0.63028 0.96728 0.0
C1802 C 0.81548 0.62126 0.9672 0.0
N1803 N 0.80152 0.62363 0.9596 0.0
C1804 C 0.82264 0.66766 0.97679 0.0
C1805 C 0.8058 0.68371 0.98633 0.0
C1806 C 0.82197 0.67438 0.96209 0.0
N1807 N 0.81452 0.67221 0.98869 0.0
C1808 C 0.80499 0.69088 0.97188 0.0
C1809 C 0.81303 0.68626 0.95925 0.0
H1810 H 0.82964 0.65865 0.97858 0.0
H1811 H 0.79926 0.6873 0.99564 0.0
C1812 C 0.76698 0.62992 0.03585 0.0
N1813 N 0.77552 0.62666 0.02384 0.0
C1814 C 0.75134 0.62221 0.03637 0.0
C1815 C 0.75314 0.6076 0.01219 0.0
C1816 C 0.76884 0.61559 0.01215 0.0
C1817 C 0.74393 0.61088 0.02437 0.0
H1818 H 0.77223 0.63879 0.04502 0.0
H1819 H 0.77557 0.61305 1.00258 0.0
O1820 O 0.83415 0.6649 0.02557 0.0
O1821 O 0.81421 0.63833 0.04219 0.0
O1822 O 0.79729 0.66232 0.02324 0.0
O1823 O 0.81221 0.63725 0.00702 0.0
H1824 H 0.85929 0.66099 0.04443 0.0
H1825 H 0.83698 0.69444 0.01983 0.0
H1826 H 0.88115 0.68204 0.05554 0.0
H1827 H 0.85919 0.71494 0.03143 0.0
H1828 H 0.79685 0.62943 0.08994 0.0
H1829 H 0.84168 0.64686 0.05981 0.0
H1830 H 0.7922 0.62887 0.06078 0.0
H1831 H 0.84553 0.64706 0.089 0.0
H1832 H 0.83851 0.69844 0.08938 0.0
H1833 H 0.78976 0.67583 0.08749 0.0
H1834 H 0.882 0.62917 0.00793 0.0
H1835 H 0.86628 0.60482 0.04754 0.0
H1836 H 0.76736 0.66083 0.02888 0.0
H1837 H 0.812 0.69125 0.02907 0.0
H1838 H 0.75582 0.68301 0.03891 0.0
H1839 H 0.79968 0.71297 0.03894 0.0
H1840 H 0.78597 0.64025 0.98948 0.0
H1841 H 0.83042 0.6239 0.98935 0.0
H1842 H 0.77996 0.63204 0.96089 0.0
H1843 H 0.82364 0.61597 0.96075 0.0
H1844 H 0.82863 0.67037 0.95307 0.0
H1845 H 0.79777 0.6998 0.97053 0.0
H1846 H 0.74517 0.62515 0.04625 0.0
H1847 H 0.74819 0.59917 1.0025 0.0
Li1848 Li 0.94738 0.56424 0.79106 0.0
Li1849 Li 0.96396 0.58083 0.81253 0.0
Li1850 Li 0.94409 0.59074 0.79561 0.0
Li1851 Li 0.96834 0.58517 0.78608 0.0
C1852 C 0.92858 0.57693 0.81796 0.0
N1853 N 0.90397 0.58437 0.83367 0.0
C1854 C 0.93155 0.58347 0.8335 0.0
C1855 C 0.91307 0.57415 0.81043 0.0
C1856 C 0.91895 0.58713 0.84124 0.0
C1857 C 0.9008 0.57802 0.81856 0.0
C1858 C 0.97914 0.55784 0.80599 0.0
C1859 C 1.00293 0.55558 0.82262 0.0
N1860 N 0.99614 0.54117 0.82581 0.0
C1861 C 0.97241 0.543 0.80947 0.0
C1862 C 0.99455 0.56417 0.81262 0.0
C1863 C 0.98119 0.53476 0.81949 0.0
C1864 C 0.94287 0.53505 0.77374 0.0
N1865 N 0.93681 0.54377 0.78447 0.0
C1866 C 0.91507 0.52338 0.78595 0.0
C1867 C 0.9233 0.5382 0.79072 0.0
C1868 C 0.92094 0.51414 0.77478 0.0
C1869 C 0.93507 0.5201 0.76868 0.0
H1870 H 0.95378 0.53972 0.76913 0.0
H1871 H 0.91897 0.54517 0.79954 0.0
C1872 C 0.98688 0.59069 0.83899 0.0
N1873 N 0.97383 0.58026 0.83313 0.0
C1874 C 0.99607 0.58791 0.85259 0.0
C1875 C 0.97758 0.56427 0.85427 0.0
C1876 C 0.96875 0.56753 0.84073 0.0
C1877 C 0.99171 0.57426 0.86003 0.0
H1878 H 0.99064 0.60067 0.83261 0.0
H1879 H 0.95834 0.55944 0.83568 0.0
C1880 C 0.93936 0.57068 0.76238 0.0
N1881 N 0.92534 0.55074 0.73678 0.0
C1882 C 0.94852 0.56613 0.75092 0.0
C1883 C 0.92305 0.56504 0.76081 0.0
C1884 C 0.94121 0.55607 0.73805 0.0
C1885 C 0.9162 0.55497 0.7478 0.0
C1886 C 0.97532 0.61336 0.79794 0.0
C1887 C 0.96823 0.62394 0.78935 0.0
C1888 C 0.99184 0.61522 0.80056 0.0
C1889 C 0.97783 0.63622 0.78346 0.0
C1890 C 1.00103 0.62764 0.79445 0.0
N1891 N 0.99389 0.63779 0.7861 0.0
C1892 C 0.92669 0.61191 0.80864 0.0
C1893 C 0.91753 0.60201 0.78234 0.0
C1894 C 0.91277 0.61787 0.80996 0.0
N1895 N 0.92838 0.60351 0.79525 0.0
C1896 C 0.9035 0.60781 0.7831 0.0
C1897 C 0.90068 0.61523 0.79728 0.0
H1898 H 0.9356 0.61297 0.81869 0.0
H1899 H 0.91938 0.5956 0.77174 0.0
C1900 C 0.99718 0.58437 0.77391 0.0
N1901 N 0.98377 0.59063 0.77212 0.0
C1902 C 1.00753 0.58552 0.76236 0.0
C1903 C 0.99044 0.60017 0.74762 0.0
C1904 C 0.9805 0.59891 0.75961 0.0
C1905 C 1.00385 0.59293 0.74871 0.0
H1906 H 0.99934 0.57763 0.78377 0.0
H1907 H 0.96964 0.60363 0.75845 0.0
O1908 O 0.94081 0.57342 0.81012 0.0
O1909 O 0.9706 0.56623 0.79642 0.0
O1910 O 0.94633 0.58032 0.77522 0.0
O1911 O 0.96612 0.60107 0.80349 0.0
H1912 H 0.94347 0.58584 0.83949 0.0
H1913 H 0.91056 0.56938 0.79831 0.0
H1914 H 0.92109 0.59225 0.85325 0.0
H1915 H 0.88878 0.57608 0.81281 0.0
H1916 H 0.01478 0.56042 0.82795 0.0
H1917 H 0.96047 0.53793 0.80467 0.0
H1918 H 0.99985 0.57579 0.81047 0.0
H1919 H 0.97609 0.52329 0.82231 0.0
H1920 H 0.90442 0.51908 0.79122 0.0
H1921 H 0.93998 0.51332 0.76006 0.0
H1922 H 1.00691 0.59587 0.85672 0.0
H1923 H 0.97371 0.55376 0.85987 0.0
H1924 H 0.96118 0.57011 0.75202 0.0
H1925 H 0.9158 0.56815 0.76971 0.0
H1926 H 0.94818 0.55243 0.72913 0.0
H1927 H 0.90363 0.55044 0.74652 0.0
H1928 H 0.95546 0.62262 0.78715 0.0
H1929 H 0.99752 0.60699 0.80696 0.0
H1930 H 0.97252 0.64448 0.77675 0.0
H1931 H 1.01383 0.62916 0.79628 0.0
H1932 H 0.91111 0.62355 0.8211 0.0
H1933 H 0.89469 0.60597 0.77289 0.0
H1934 H 0.01758 0.57954 0.76351 0.0
H1935 H 0.98722 0.60594 0.73722 0.0
Li1936 Li 0.79968 0.36786 0.5447 0.0
Li1937 Li 0.78541 0.3869 0.5325 0.0
Li1938 Li 0.79618 0.36592 0.51606 0.0
Li1939 Li 0.81364 0.38742 0.5319 0.0
C1940 C 0.77095 0.35195 0.53753 0.0
N1941 N 0.75513 0.32814 0.55264 0.0
C1942 C 0.76333 0.35522 0.5507 0.0
C1943 C 0.77044 0.3366 0.53195 0.0
C1944 C 0.75543 0.34301 0.55821 0.0
C1945 C 0.76238 0.32472 0.53977 0.0
C1946 C 0.81142 0.40233 0.55902 0.0
C1947 C 0.81725 0.42939 0.56795 0.0
N1948 N 0.8309 0.42706 0.57623 0.0
C1949 C 0.82545 0.40019 0.56771 0.0
C1950 C 0.80724 0.41703 0.55919 0.0
C1951 C 0.83516 0.41285 0.57629 0.0
C1952 C 0.79987 0.34102 0.56328 0.0
N1953 N 0.80024 0.35657 0.5634 0.0
C1954 C 0.80257 0.35874 0.59159 0.0
C1955 C 0.80117 0.36534 0.5772 0.0
C1956 C 0.80282 0.34286 0.59187 0.0
C1957 C 0.80116 0.33388 0.57747 0.0
H1958 H 0.79872 0.33414 0.55222 0.0
H1959 H 0.80084 0.37753 0.57711 0.0
C1960 C 0.76112 0.40274 0.5206 0.0
N1961 N 0.76877 0.39833 0.53383 0.0
C1962 C 0.74947 0.41196 0.52183 0.0
C1963 C 0.75362 0.41157 0.55022 0.0
C1964 C 0.7651 0.40231 0.54844 0.0
C1965 C 0.74575 0.41665 0.53681 0.0
H1966 H 0.76427 0.39933 0.50914 0.0
H1967 H 0.77133 0.39851 0.55873 0.0
C1968 C 0.8223 0.3534 0.53538 0.0
N1969 N 0.83551 0.329 0.54655 0.0
C1970 C 0.83372 0.35584 0.54853 0.0
C1971 C 0.81767 0.33858 0.52785 0.0
C1972 C 0.84022 0.34334 0.55402 0.0
C1973 C 0.82449 0.32639 0.53368 0.0
C1974 C 0.8049 0.39985 0.50537 0.0
C1975 C 0.81658 0.39644 0.49615 0.0
C1976 C 0.80116 0.41472 0.50607 0.0
C1977 C 0.82444 0.40803 0.48784 0.0
C1978 C 0.80927 0.426 0.49757 0.0
N1979 N 0.82065 0.42245 0.48872 0.0
C1980 C 0.77786 0.34897 0.48921 0.0
C1981 C 0.80574 0.35222 0.48904 0.0
C1982 C 0.7755 0.34202 0.47382 0.0
N1983 N 0.7928 0.35407 0.49636 0.0
C1984 C 0.80394 0.34544 0.47365 0.0
C1985 C 0.78867 0.34051 0.46572 0.0
H1986 H 0.76779 0.35077 0.49528 0.0
H1987 H 0.81749 0.35642 0.49502 0.0
C1988 C 0.84685 0.3949 0.53241 0.0
N1989 N 0.83345 0.4012 0.53225 0.0
C1990 C 0.8617 0.40439 0.53395 0.0
C1991 C 0.84869 0.42671 0.53462 0.0
C1992 C 0.83411 0.41679 0.53305 0.0
C1993 C 0.86277 0.42053 0.53528 0.0
H1994 H 0.84604 0.38249 0.53152 0.0
H1995 H 0.82332 0.42156 0.53285 0.0
O1996 O 0.77903 0.36371 0.53022 0.0
O1997 O 0.80182 0.39008 0.55045 0.0
O1998 O 0.81585 0.36551 0.52978 0.0
O1999 O 0.79723 0.38871 0.51375 0.0
H2000 H 0.76369 0.36705 0.55516 0.0
H2001 H 0.77634 0.33391 0.52179 0.0
H2002 H 0.74957 0.34534 0.56849 0.0
H2003 H 0.76194 0.31278 0.53565 0.0
H2004 H 0.81422 0.44085 0.56811 0.0
H2005 H 0.82884 0.38889 0.56774 0.0
H2006 H 0.79652 0.41895 0.55243 0.0
H2007 H 0.8461 0.41137 0.58298 0.0
H2008 H 0.80337 0.36601 0.60241 0.0
H2009 H 0.8012 0.32156 0.57718 0.0
H2010 H 0.74375 0.4157 0.51121 0.0
H2011 H 0.75094 0.41474 0.56197 0.0
H2012 H 0.83747 0.36724 0.55447 0.0
H2013 H 0.80879 0.33645 0.51772 0.0
H2014 H 0.849 0.34505 0.56423 0.0
H2015 H 0.82097 0.31484 0.52801 0.0
H2016 H 0.81969 0.38502 0.49558 0.0
H2017 H 0.79225 0.41759 0.51326 0.0
H2018 H 0.83357 0.40559 0.48073 0.0
H2019 H 0.80657 0.43758 0.49806 0.0
H2020 H 0.76353 0.33849 0.46808 0.0
H2021 H 0.81441 0.34431 0.46791 0.0
H2022 H 0.87223 0.39913 0.53408 0.0
H2023 H 0.84894 0.43907 0.53573 0.0
Li2024 Li 0.66419 0.52952 0.34215 0.0
Li2025 Li 0.67964 0.5512 0.33278 0.0
Li2026 Li 0.66067 0.53372 0.31474 0.0
Li2027 Li 0.68638 0.52623 0.32587 0.0
C2028 C 0.64523 0.54921 0.34218 0.0
N2029 N 0.62286 0.55248 0.36261 0.0
C2030 C 0.64859 0.56063 0.35469 0.0
C2031 C 0.63043 0.53955 0.33997 0.0
C2032 C 0.63713 0.56209 0.3649 0.0
C2033 C 0.6193 0.54135 0.35046 0.0
C2034 C 0.69886 0.54515 0.35789 0.0
C2035 C 0.72622 0.55198 0.369 0.0
N2036 N 0.72213 0.56259 0.37933 0.0
C2037 C 0.69493 0.5561 0.36865 0.0
C2038 C 0.71463 0.54305 0.35808 0.0
C2039 C 0.70686 0.56482 0.37937 0.0
C2040 C 0.64419 0.50676 0.35597 0.0
N2041 N 0.65369 0.52082 0.35891 0.0
C2042 C 0.64746 0.52239 0.38548 0.0
C2043 C 0.65561 0.52858 0.37337 0.0
C2044 C 0.63727 0.50806 0.38265 0.0
C2045 C 0.63574 0.50016 0.3677 0.0
H2046 H 0.6431 0.50067 0.34449 0.0
H2047 H 0.66323 0.53969 0.37545 0.0
C2048 C 0.67895 0.58302 0.33303 0.0
N2049 N 0.68874 0.57265 0.33609 0.0
C2050 C 0.68514 0.59871 0.33285 0.0
C2051 C 0.71133 0.59283 0.33959 0.0
C2052 C 0.70466 0.57726 0.33935 0.0
C2053 C 0.7016 0.60377 0.3359 0.0
H2054 H 0.66638 0.579 0.32994 0.0
H2055 H 0.71232 0.56881 0.34106 0.0
C2056 C 0.65612 0.50274 0.31356 0.0
N2057 N 0.63971 0.47995 0.29156 0.0
C2058 C 0.66434 0.4938 0.3044 0.0
C2059 C 0.63954 0.49998 0.3116 0.0
C2060 C 0.65583 0.48236 0.29333 0.0
C2061 C 0.63146 0.48845 0.30039 0.0
C2062 C 0.69001 0.55474 0.30475 0.0
C2063 C 0.68088 0.56457 0.29736 0.0
C2064 C 0.70654 0.55818 0.30576 0.0
C2065 C 0.68849 0.57787 0.29126 0.0
C2066 C 0.71369 0.57158 0.29949 0.0
N2067 N 0.7046 0.58108 0.29245 0.0
C2068 C 0.63384 0.54044 0.29694 0.0
C2069 C 0.64718 0.523 0.28354 0.0
C2070 C 0.62225 0.53928 0.28409 0.0
N2071 N 0.64583 0.53218 0.29652 0.0
C2072 C 0.63564 0.52121 0.27057 0.0
C2073 C 0.62298 0.52938 0.27084 0.0
H2074 H 0.63326 0.54793 0.30726 0.0
H2075 H 0.65709 0.5169 0.28336 0.0
C2076 C 0.70559 0.50513 0.33424 0.0
N2077 N 0.70221 0.51441 0.32267 0.0
C2078 C 0.71656 0.49535 0.33248 0.0
C2079 C 0.72039 0.50491 0.30688 0.0
C2080 C 0.70937 0.5146 0.3092 0.0
C2081 C 0.72396 0.49498 0.31856 0.0
H2082 H 0.69961 0.50526 0.34479 0.0
H2083 H 0.70623 0.52199 0.30013 0.0
O2084 O 0.65643 0.54736 0.33226 0.0
O2085 O 0.68736 0.53641 0.34734 0.0
O2086 O 0.66427 0.51407 0.32441 0.0
O2087 O 0.68279 0.54196 0.31126 0.0
H2088 H 0.65997 0.56822 0.35658 0.0
H2089 H 0.62763 0.53066 0.33036 0.0
H2090 H 0.6396 0.57082 0.37468 0.0
H2091 H 0.60785 0.53388 0.34896 0.0
H2092 H 0.73847 0.5505 0.36925 0.0
H2093 H 0.68289 0.55811 0.36849 0.0
H2094 H 0.71794 0.53471 0.34981 0.0
H2095 H 0.704 0.5734 0.38767 0.0
H2096 H 0.64879 0.52894 0.39681 0.0
H2097 H 0.62812 0.48902 0.36512 0.0
H2098 H 0.67719 0.60662 0.32962 0.0
H2099 H 0.72406 0.59616 0.34219 0.0
H2100 H 0.67715 0.49569 0.30577 0.0
H2101 H 0.63296 0.50682 0.3185 0.0
H2102 H 0.66205 0.4754 0.28614 0.0
H2103 H 0.61864 0.48629 0.29867 0.0
H2104 H 0.66806 0.56208 0.29656 0.0
H2105 H 0.71376 0.55073 0.31155 0.0
H2106 H 0.68159 0.58567 0.28562 0.0
H2107 H 0.72648 0.57448 0.3003 0.0
H2108 H 0.61268 0.54583 0.2846 0.0
H2109 H 0.63667 0.51368 0.26037 0.0
H2110 H 0.71913 0.48807 0.34187 0.0
H2111 H 0.72565 0.50483 0.29589 0.0
Tb2112 Tb 0.03312 0.02372 0.02247 0.0
Eu2113 Eu 0.06981 0.03602 0.03901 0.0
C2114 C 0.06169 0.01763 0.00485 0.0
C2115 C 0.05246 1.00166 0.04081 0.0
C2116 C 0.99158 0.02524 0.00946 0.0
C2117 C 0.96393 0.02667 1.00204 0.0
C2118 C 0.97645 0.01832 1.0025 0.0
C2119 C 0.99414 0.04061 0.01584 0.0
C2120 C 0.98166 0.04894 0.01542 0.0
C2121 C 0.96638 0.04206 0.00857 0.0
C2122 C 1.00461 0.01637 0.01056 0.0
O2123 O 0.03155 0.03972 0.0423 0.0
O2124 O 0.05368 0.03642 0.05806 0.0
O2125 O 0.05965 0.0572 0.0337 0.0
O2126 O 0.04212 0.04545 0.01287 0.0
C2127 C 0.03952 0.04021 0.05629 0.0
O2128 O 0.08851 0.03553 0.05812 0.0
O2129 O 0.09328 0.04983 0.03872 0.0
O2130 O 0.07056 0.02946 0.0133 0.0
O2131 O 0.04757 0.01167 0.0084 0.0
O2132 O 0.03874 1.00631 0.03826 0.0
O2133 O 0.06567 0.01023 0.03799 0.0
C2134 C 0.05032 0.05795 0.02079 0.0
O2135 O 0.0163 0.02111 1.00246 0.0
O2136 O 1.00969 0.01365 0.02484 0.0
C2137 C 0.11304 0.03613 0.04839 0.0
C2138 C 0.13772 0.01923 0.04467 0.0
C2139 C 0.13827 0.02935 0.05819 0.0
C2140 C 0.126 0.03773 0.06002 0.0
C2141 C 0.11256 0.02625 0.03481 0.0
C2142 C 0.12482 0.01798 0.0329 0.0
C2143 C 0.09936 0.04362 0.05091 0.0
H2144 H 0.95235 0.0211 0.99652 0.0
H2145 H 0.9743 1.00645 0.99752 0.0
H2146 H 1.00577 0.04611 0.02132 0.0
H2147 H 0.98393 0.06067 0.02077 0.0
H2148 H 0.14792 0.03044 0.06757 0.0
H2149 H 0.12644 0.04515 0.07069 0.0
H2150 H 0.10253 0.02469 0.0258 0.0
H2151 H 0.12411 0.01051 0.02223 0.0
Tb2152 Tb 0.31267 0.78938 0.28516 0.0
Eu2153 Eu 0.29078 0.75711 0.26809 0.0
C2154 C 0.27575 0.78548 0.27988 0.0
C2155 C 0.29938 0.76216 0.30583 0.0
C2156 C 0.33486 0.82965 0.29315 0.0
C2157 C 0.33345 0.84951 0.2747 0.0
C2158 C 0.3278 0.8348 0.27936 0.0
C2159 C 0.34739 0.83935 0.30233 0.0
C2160 C 0.35309 0.85398 0.29765 0.0
C2161 C 0.34631 0.85913 0.2837 0.0
C2162 C 0.33002 0.8139 0.29764 0.0
O2163 O 0.32673 0.77106 0.28617 0.0
O2164 O 0.31587 0.75836 0.26279 0.0
O2165 O 0.29147 0.77429 0.24972 0.0
O2166 O 0.31376 0.79159 0.25997 0.0
C2167 C 0.32769 0.76177 0.2739 0.0
O2168 O 0.28999 0.73334 0.25904 0.0
O2169 O 0.26886 0.74386 0.25568 0.0
O2170 O 0.27481 0.77046 0.28018 0.0
O2171 O 0.28918 0.79445 0.27813 0.0
O2172 O 0.30389 0.77707 0.3047 0.0
O2173 O 0.29584 0.7521 0.29346 0.0
C2174 C 0.30294 0.78578 0.24822 0.0
O2175 O 0.31516 0.80986 0.29979 0.0
O2176 O 0.33517 0.80318 0.28948 0.0
C2177 C 0.2655 0.71643 0.25608 0.0
C2178 C 0.24781 0.68719 0.25966 0.0
C2179 C 0.25955 0.6888 0.24928 0.0
C2180 C 0.26828 0.70328 0.24751 0.0
C2181 C 0.25384 0.71495 0.26654 0.0
C2182 C 0.24499 0.7004 0.26826 0.0
C2183 C 0.27503 0.73137 0.25366 0.0
H2184 H 0.32808 0.85317 0.26385 0.0
H2185 H 0.31816 0.82734 0.27209 0.0
H2186 H 0.35297 0.83551 0.31299 0.0
H2187 H 0.36286 0.86124 0.30493 0.0
H2188 H 0.2618 0.67889 0.2423 0.0
H2189 H 0.2772 0.70423 0.23935 0.0
H2190 H 0.25159 0.72499 0.27333 0.0
H2191 H 0.23605 0.69945 0.27639 0.0
Tb2192 Tb 0.53224 1.00694 0.5318 0.0
Eu2193 Eu 0.55552 0.03881 0.54525 0.0
C2194 C 0.53961 0.01545 0.56767 0.0
C2195 C 0.51716 0.03809 0.53709 0.0
C2196 C 0.51407 0.96723 0.51373 0.0
C2197 C 0.50299 0.94005 0.50849 0.0
C2198 C 0.50325 0.95427 0.51666 0.0
C2199 C 0.52477 0.96585 0.50258 0.0
C2200 C 0.52446 0.9516 0.4943 0.0
C2201 C 0.51355 0.93857 0.49721 0.0
C2202 C 0.51385 0.98198 0.52247 0.0
O2203 O 0.54438 0.01533 0.51211 0.0
O2204 O 0.5475 0.04093 0.51988 0.0
O2205 O 0.57247 0.02248 0.53918 0.0
O2206 O 0.55554 0.99914 0.53651 0.0
C2207 C 0.54649 0.02983 0.50879 0.0
O2208 O 0.5762 0.05606 0.54262 0.0
O2209 O 0.56317 0.05816 0.56293 0.0
O2210 O 0.55324 0.02354 0.56535 0.0
O2211 O 0.52826 0.01194 0.55605 0.0
O2212 O 0.51619 0.02426 0.52966 0.0
O2213 O 0.53061 0.04503 0.54524 0.0
C2214 C 0.57012 1.00723 0.53762 0.0
O2215 O 0.52227 0.98439 0.53622 0.0
O2216 O 0.51529 0.99427 0.51451 0.0
C2217 C 0.57439 0.08119 0.55215 0.0
C2218 C 0.57528 0.11256 0.54648 0.0
C2219 C 0.58879 0.10564 0.54545 0.0
C2220 C 0.58835 0.09012 0.54832 0.0
C2221 C 0.56075 0.08791 0.55284 0.0
C2222 C 0.56122 0.10348 0.55013 0.0
C2223 C 0.57417 0.06481 0.55484 0.0
H2224 H 0.49432 0.93026 0.51082 0.0
H2225 H 0.49491 0.95518 0.52524 0.0
H2226 H 0.5333 0.97577 0.50027 0.0
H2227 H 0.53282 0.95073 0.48575 0.0
H2228 H 0.59973 0.11222 0.54244 0.0
H2229 H 0.59893 0.08506 0.54753 0.0
H2230 H 0.54976 0.0812 0.55558 0.0
H2231 H 0.55066 0.10846 0.55127 0.0
Tb2232 Tb 0.28093 0.28012 0.7698 0.0
Eu2233 Eu 0.31392 0.27028 0.78392 0.0
C2234 C 0.31356 0.30017 0.76453 0.0
C2235 C 0.3003 0.26157 0.74721 0.0
C2236 C 0.24067 0.28937 0.76646 0.0
C2237 C 0.21367 0.2942 0.76392 0.0
C2238 C 0.22786 0.29372 0.75744 0.0
C2239 C 0.23939 0.28594 0.78214 0.0
C2240 C 0.22522 0.28637 0.78861 0.0
C2241 C 0.21212 0.29029 0.7795 0.0
C2242 C 0.25509 0.28772 0.75934 0.0
O2243 O 0.27405 0.2622 0.78547 0.0
O2244 O 0.29482 0.24946 0.78322 0.0
O2245 O 0.30326 0.27855 0.80559 0.0
O2246 O 0.28632 0.2929 0.79342 0.0
C2247 C 0.28033 0.24967 0.78651 0.0
O2248 O 0.32919 0.25288 0.78604 0.0
O2249 O 0.33647 0.27526 0.79891 0.0
O2250 O 0.32067 0.29434 0.77647 0.0
O2251 O 0.29902 0.29434 0.75861 0.0
O2252 O 0.2863 0.26356 0.75131 0.0
O2253 O 0.31318 0.266 0.75722 0.0
C2254 C 0.29395 0.28901 0.80642 0.0
O2255 O 0.2677 0.29763 0.76488 0.0
O2256 O 0.258 0.27364 0.75808 0.0
C2257 C 0.35596 0.26387 0.78786 0.0
C2258 C 0.38448 0.26579 0.77413 0.0
C2259 C 0.38224 0.25742 0.78752 0.0
C2260 C 0.36802 0.25645 0.79433 0.0
C2261 C 0.35822 0.27238 0.77465 0.0
C2262 C 0.37238 0.27337 0.76786 0.0
C2263 C 0.34074 0.26231 0.79435 0.0
H2264 H 0.20384 0.29743 0.75668 0.0
H2265 H 0.22874 0.29644 0.74531 0.0
H2266 H 0.24923 0.28253 0.78924 0.0
H2267 H 0.22436 0.28306 0.80055 0.0
H2268 H 0.39132 0.25138 0.79252 0.0
H2269 H 0.36637 0.24977 0.80448 0.0
H2270 H 0.34897 0.27817 0.76951 0.0
H2271 H 0.37385 0.28011 0.75772 0.0
Tb2272 Tb 0.04371 0.01866 0.50951 0.0
Eu2273 Eu 0.0442 0.03606 0.54429 0.0
C2274 C 0.07661 0.03878 0.52678 0.0
C2275 C 0.04548 0.99863 0.54052 0.0
C2276 C 0.04903 0.01218 0.46744 0.0
C2277 C 0.05618 1.00738 0.44108 0.0
C2278 C 0.05315 1.00217 0.45582 0.0
C2279 C 0.04883 0.02767 0.46449 0.0
C2280 C 0.05163 0.03283 0.44974 0.0
C2281 C 0.05492 0.02265 0.43767 0.0
C2282 C 0.04406 1.00626 0.48222 0.0
O2283 O 0.01949 0.01033 0.51535 0.0
O2284 O 0.01815 0.02582 0.53755 0.0
O2285 O 0.04493 0.05584 0.52795 0.0
O2286 O 0.03993 0.0423 0.50367 0.0
C2287 C 1.01141 0.01509 0.52645 0.0
O2288 O 0.03331 0.05005 0.56059 0.0
O2289 O 0.05561 0.04287 0.56808 0.0
O2290 O 0.07019 0.04023 0.54001 0.0
O2291 O 0.06813 0.0318 0.51386 0.0
O2292 O 0.04679 0.99978 0.52528 0.0
O2293 O 0.04401 0.01082 0.54967 0.0
C2294 C 0.04234 0.0556 0.51244 0.0
O2295 O 0.0553 1.00644 0.49369 0.0
O2296 O 0.03183 0.01131 0.4871 0.0
C2297 C 0.03808 0.04428 0.58706 0.0
C2298 C 0.03181 0.03409 0.61674 0.0
C2299 C 0.03625 0.04996 0.61482 0.0
C2300 C 0.03941 0.055 0.60008 0.0
C2301 C 0.03262 0.02857 0.58865 0.0
C2302 C 0.02953 0.0235 0.60341 0.0
C2303 C 0.04396 0.04932 0.57237 0.0
H2304 H 0.05901 0.9993 0.4322 0.0
H2305 H 0.05355 0.99021 0.45798 0.0
H2306 H 0.04583 0.03562 0.47339 0.0
H2307 H 0.05034 0.0446 0.4476 0.0
H2308 H 0.03831 0.05838 0.62489 0.0
H2309 H 0.04364 0.06716 0.59901 0.0
H2310 H 0.03148 0.02015 0.57865 0.0
H2311 H 0.02602 0.01123 0.60453 0.0
Tb2312 Tb 0.28864 0.76183 0.78012 0.0
Eu2313 Eu 0.30153 0.79692 0.77127 0.0
C2314 C 0.28711 0.79005 0.80388 0.0
C2315 C 0.26422 0.78186 0.76372 0.0
C2316 C 0.28519 0.7198 0.7839 0.0
C2317 C 0.28548 0.69322 0.78989 0.0
C2318 C 0.28025 0.70726 0.79265 0.0
C2319 C 0.2956 0.7183 0.77252 0.0
C2320 C 0.30071 0.70428 0.76963 0.0
C2321 C 0.29568 0.69154 0.77824 0.0
C2322 C 0.27922 0.7343 0.78637 0.0
O2323 O 0.30118 0.75883 0.75948 0.0
O2324 O 0.29929 0.78187 0.74891 0.0
O2325 O 0.32374 0.7863 0.77709 0.0
O2326 O 0.31313 0.7674 0.79214 0.0
C2327 C 0.30142 0.76749 0.74744 0.0
O2328 O 0.30005 0.81635 0.75664 0.0
O2329 O 0.31933 0.81785 0.77528 0.0
O2330 O 0.29751 0.79897 0.79676 0.0
O2331 O 0.28005 0.77637 0.7976 0.0
O2332 O 0.2684 0.76822 0.76549 0.0
O2333 O 0.27451 0.79468 0.76794 0.0
C2334 C 0.32563 0.77625 0.7877 0.0
O2335 O 0.28795 0.74472 0.79642 0.0
O2336 O 0.27437 0.74028 0.77357 0.0
C2337 C 0.30942 0.84075 0.77014 0.0
C2338 C 0.30309 0.87013 0.7796 0.0
C2339 C 0.30456 0.86618 0.76368 0.0
C2340 C 0.30774 0.85163 0.75902 0.0
C2341 C 0.30812 0.84466 0.78607 0.0
C2342 C 0.30509 0.85925 0.79076 0.0
C2343 C 0.31203 0.82526 0.76489 0.0
H2344 H 0.28158 0.68372 0.79689 0.0
H2345 H 0.27227 0.70829 0.80155 0.0
H2346 H 0.29958 0.7279 0.76568 0.0
H2347 H 0.30833 0.70335 0.76041 0.0
H2348 H 0.30283 0.87415 0.75473 0.0
H2349 H 0.30862 0.84877 0.74667 0.0
H2350 H 0.3093 0.83641 0.79488 0.0
H2351 H 0.30426 0.86196 0.80314 0.0
Tb2352 Tb 0.55485 0.0228 0.03942 0.0
Eu2353 Eu 0.53431 0.03097 0.00829 0.0
C2354 C 0.54639 0.99822 0.00989 0.0
C2355 C 0.57178 0.04128 0.01323 0.0
C2356 C 0.57089 0.0154 0.08 0.0
C2357 C 0.58354 0.01228 0.10599 0.0
C2358 C 0.58367 0.01169 0.08964 0.0
C2359 C 0.55782 0.0194 0.08674 0.0
C2360 C 0.55766 0.01998 0.10307 0.0
C2361 C 0.5706 0.01658 0.11288 0.0
C2362 C 0.57166 0.01572 0.06303 0.0
O2363 O 0.54508 0.04346 0.04766 0.0
O2364 O 0.5421 0.05363 0.02373 0.0
O2365 O 0.51626 0.02382 0.0247 0.0
O2366 O 0.53091 0.01146 0.04223 0.0
C2367 C 0.5432 0.05541 0.03928 0.0
O2368 O 0.51775 0.04461 0.99734 0.0
O2369 O 0.52606 0.02705 0.98321 0.0
O2370 O 0.53401 1.00478 0.00585 0.0
O2371 O 0.55793 1.00591 0.02015 0.0
O2372 O 0.57127 0.03882 0.02815 0.0
O2373 O 0.55952 0.03658 1.00272 0.0
C2374 C 0.5173 0.01472 0.03622 0.0
O2375 O 0.56102 1.00588 0.0541 0.0
O2376 O 0.57334 0.02938 0.05769 0.0
C2377 C 0.52276 0.04991 0.97156 0.0
C2378 C 0.53172 0.06846 0.9471 0.0
C2379 C 0.51559 0.06282 0.94826 0.0
C2380 C 0.51116 0.05352 0.96037 0.0
C2381 C 0.53869 0.05643 0.97117 0.0
C2382 C 0.54315 0.06555 0.95902 0.0
C2383 C 0.51849 0.03873 0.98315 0.0
H2384 H 0.5936 0.0095 0.11325 0.0
H2385 H 0.59384 0.00858 0.08453 0.0
H2386 H 0.54791 0.02238 0.0794 0.0
H2387 H 0.54764 0.02358 0.10805 0.0
H2388 H 0.50645 0.06505 0.93945 0.0
H2389 H 0.49877 0.04872 0.96068 0.0
H2390 H 0.54778 0.05387 0.97984 0.0
H2391 H 0.55569 0.06941 0.95849 0.0
Tb2392 Tb 0.30117 0.29158 0.2858 0.0
Eu2393 Eu 0.2856 0.25877 0.26721 0.0
C2394 C 0.30133 0.26057 0.30416 0.0
C2395 C 0.32336 0.27286 0.26609 0.0
C2396 C 0.30312 0.3313 0.30212 0.0
C2397 C 0.28861 0.346 0.31867 0.0
C2398 C 0.29892 0.33545 0.31705 0.0
C2399 C 0.29773 0.33875 0.28902 0.0
C2400 C 0.28753 0.34937 0.29066 0.0
C2401 C 0.28243 0.3527 0.3054 0.0
C2402 C 0.31121 0.31788 0.30005 0.0
O2403 O 0.29 0.29858 0.26328 0.0
O2404 O 0.28518 0.27563 0.2481 0.0
O2405 O 0.26412 0.26843 0.27466 0.0
O2406 O 0.2769 0.2874 0.29312 0.0
C2407 C 0.2866 0.29077 0.24928 0.0
O2408 O 0.284 0.24139 0.24753 0.0
O2409 O 0.26767 0.23788 0.26508 0.0
O2410 O 0.29173 0.25267 0.29243 0.0
O2411 O 0.30825 0.27494 0.30262 0.0
O2412 O 0.32106 0.28585 0.27334 0.0
O2413 O 0.31216 0.26042 0.26462 0.0
C2414 C 0.26374 0.27832 0.28675 0.0
O2415 O 0.30548 0.30574 0.30699 0.0
O2416 O 0.31407 0.31409 0.28581 0.0
C2417 C 0.27656 0.21611 0.25444 0.0
C2418 C 0.28725 0.18767 0.25589 0.0
C2419 C 0.27863 0.19113 0.24206 0.0
C2420 C 0.27331 0.20528 0.24135 0.0
C2421 C 0.28449 0.21241 0.26848 0.0
C2422 C 0.28973 0.19829 0.26923 0.0
C2423 C 0.27307 0.23173 0.25298 0.0
H2424 H 0.28502 0.34852 0.3302 0.0
H2425 H 0.30297 0.32992 0.32734 0.0
H2426 H 0.30071 0.33583 0.27733 0.0
H2427 H 0.28287 0.35424 0.28018 0.0
H2428 H 0.27651 0.18314 0.23164 0.0
H2429 H 0.26723 0.20802 0.23042 0.0
H2430 H 0.28725 0.2207 0.27866 0.0
H2431 H 0.29659 0.19612 0.27995 0.0
Tb2432 Tb 0.54574 0.51884 0.01282 0.0
Eu2433 Eu 0.54523 0.53621 0.04679 0.0
C2434 C 0.57752 0.53774 0.03056 0.0
C2435 C 0.54777 0.49908 0.04367 0.0
C2436 C 0.53891 0.50851 0.97 0.0
C2437 C 0.53903 0.50763 0.94161 0.0
C2438 C 0.54601 0.50508 0.95649 0.0
C2439 C 0.5248 0.51457 0.96855 0.0
C2440 C 0.51775 0.517 0.9537 0.0
C2441 C 0.5248 0.51359 0.94005 0.0
C2442 C 0.54661 0.50638 0.9856 0.0
O2443 O 0.52008 0.51771 0.01463 0.0
O2444 O 0.5209 0.52137 0.04142 0.0
O2445 O 0.54 0.5547 0.03008 0.0
O2446 O 0.54478 0.54301 0.00674 0.0
C2447 C 0.51292 0.51664 0.0276 0.0
O2448 O 0.53323 0.54761 0.06426 0.0
O2449 O 0.55795 0.54547 0.06946 0.0
O2450 O 0.56887 0.54571 0.03843 0.0
O2451 O 0.57083 0.52437 0.0231 0.0
O2452 O 0.54507 0.49931 0.02819 0.0
O2453 O 0.55026 0.51213 0.05278 0.0
C2454 C 0.54202 0.55533 0.01498 0.0
O2455 O 0.55685 0.51816 0.99204 0.0
O2456 O 0.53728 0.50054 0.99563 0.0
C2457 C 0.5424 0.54357 0.09038 0.0
C2458 C 0.54167 0.53328 0.12086 0.0
C2459 C 0.54158 0.54894 0.1184 0.0
C2460 C 0.54203 0.55406 0.10324 0.0
C2461 C 0.54142 0.52778 0.09264 0.0
C2462 C 0.54112 0.52267 0.10779 0.0
C2463 C 0.54542 0.54927 0.075 0.0
H2464 H 0.54488 0.50509 0.93136 0.0
H2465 H 0.55702 0.50058 0.95747 0.0
H2466 H 0.51924 0.51742 0.97891 0.0
H2467 H 0.50668 0.52139 0.95292 0.0
H2468 H 0.54217 0.55737 0.12829 0.0
H2469 H 0.5428 0.56629 0.10165 0.0
H2470 H 0.54162 0.51952 0.08279 0.0
H2471 H 0.54109 0.51053 0.10938 0.0
Tb2472 Tb 0.78747 0.26125 0.27876 0.0
Eu2473 Eu 0.80061 0.29623 0.26994 0.0
C2474 C 0.78712 0.28947 0.30286 0.0
C2475 C 0.76348 0.28135 0.26238 0.0
C2476 C 0.78183 0.21896 0.282 0.0
C2477 C 0.77846 0.19146 0.28531 0.0
C2478 C 0.77455 0.20596 0.28891 0.0
C2479 C 0.7932 0.21741 0.27162 0.0
C2480 C 0.79702 0.20293 0.26793 0.0
C2481 C 0.78961 0.18979 0.27465 0.0
C2482 C 0.77702 0.23394 0.28504 0.0
O2483 O 0.80001 0.25781 0.25825 0.0
O2484 O 0.79917 0.28109 0.24768 0.0
O2485 O 0.82286 0.28589 0.27605 0.0
O2486 O 0.8122 0.26617 0.29024 0.0
C2487 C 0.80101 0.26659 0.24632 0.0
O2488 O 0.79851 0.31574 0.25559 0.0
O2489 O 0.81836 0.31721 0.27357 0.0
O2490 O 0.79782 0.29796 0.29573 0.0
O2491 O 0.77928 0.27619 0.29627 0.0
O2492 O 0.76794 0.26776 0.26327 0.0
O2493 O 0.77359 0.29406 0.26745 0.0
C2494 C 0.82468 0.2754 0.2862 0.0
O2495 O 0.78669 0.24392 0.29481 0.0
O2496 O 0.77208 0.24027 0.27252 0.0
C2497 C 0.80775 0.33981 0.26959 0.0
C2498 C 0.80057 0.3684 0.28046 0.0
C2499 C 0.80487 0.36624 0.26512 0.0
C2500 C 0.80844 0.35204 0.25974 0.0
C2501 C 0.80369 0.34196 0.28497 0.0
C2502 C 0.80024 0.35615 0.29038 0.0
C2503 C 0.81062 0.32469 0.2636 0.0
H2504 H 0.77253 0.18151 0.2906 0.0
H2505 H 0.76571 0.20701 0.2969 0.0
H2506 H 0.79897 0.22737 0.26624 0.0
H2507 H 0.80584 0.20201 0.25988 0.0
H2508 H 0.80503 0.37536 0.25711 0.0
H2509 H 0.81145 0.35052 0.24781 0.0
H2510 H 0.80302 0.33261 0.29274 0.0
H2511 H 0.79721 0.35748 0.30233 0.0
Tb2512 Tb 0.05199 0.52235 0.54025 0.0
Eu2513 Eu 0.03359 0.5313 0.50796 0.0
C2514 C 0.04468 0.49749 0.51053 0.0
C2515 C 0.07163 0.53787 0.51354 0.0
C2516 C 0.06264 0.51939 0.58252 0.0
C2517 C 0.07142 0.52197 0.61055 0.0
C2518 C 0.07402 0.51806 0.59505 0.0
C2519 C 0.04853 0.52438 0.58556 0.0
C2520 C 0.04592 0.52827 0.60099 0.0
C2521 C 0.05739 0.52725 0.61365 0.0
C2522 C 0.06591 0.51677 0.56622 0.0
O2523 O 0.04253 0.54366 0.54685 0.0
O2524 O 0.04256 0.55399 0.52303 0.0
O2525 O 0.01461 0.52454 0.52355 0.0
O2526 O 0.02772 0.51069 0.54071 0.0
C2527 C 0.04239 0.55583 0.53842 0.0
O2528 O 0.01749 0.54528 0.49681 0.0
O2529 O 0.02628 0.52805 0.48268 0.0
O2530 O 0.03366 0.50513 0.50471 0.0
O2531 O 0.05492 0.50383 0.52267 0.0
O2532 O 0.07097 0.53406 0.52812 0.0
O2533 O 0.05899 0.53661 0.50334 0.0
C2534 C 0.01459 0.51465 0.53441 0.0
O2535 O 0.05548 0.50663 0.55736 0.0
O2536 O 0.06977 0.52931 0.55912 0.0
C2537 C 0.02352 0.55126 0.47149 0.0
C2538 C 0.03349 0.57043 0.44783 0.0
C2539 C 0.01724 0.56494 0.44848 0.0
C2540 C 1.0123 0.55533 0.46018 0.0
C2541 C 0.03955 0.55768 0.47167 0.0
C2542 C 0.04452 0.56709 0.45992 0.0
C2543 C 0.01875 0.53976 0.4826 0.0
H2544 H 0.08041 0.52098 0.62009 0.0
H2545 H 0.08502 0.51431 0.59282 0.0
H2546 H 0.03971 0.52564 0.57595 0.0
H2547 H 0.03513 0.53258 0.60294 0.0
H2548 H 1.00839 0.56751 0.43955 0.0
H2549 H 0.99983 0.55063 0.46006 0.0
H2550 H 0.04834 0.55479 0.48047 0.0
H2551 H 0.05714 0.57083 0.4598 0.0
Tb2552 Tb 0.78063 0.77802 0.27209 0.0
Eu2553 Eu 0.81243 0.76648 0.28723 0.0
C2554 C 0.814 0.79787 0.27018 0.0
C2555 C 0.80014 0.759 0.25004 0.0
C2556 C 0.74157 0.79007 0.26703 0.0
C2557 C 0.71605 0.79837 0.2637 0.0
C2558 C 0.73018 0.79631 0.25779 0.0
C2559 C 0.73898 0.78628 0.28238 0.0
C2560 C 0.72488 0.78828 0.28827 0.0
C2561 C 0.71317 0.79418 0.27894 0.0
C2562 C 0.756 0.78723 0.26059 0.0
O2563 O 0.77207 0.76021 0.28732 0.0
O2564 O 0.79229 0.74661 0.28596 0.0
O2565 O 0.80151 0.77514 0.30856 0.0
O2566 O 0.78532 0.79009 0.29609 0.0
C2567 C 0.77789 0.74749 0.28906 0.0
O2568 O 0.82565 0.7477 0.29114 0.0
O2569 O 0.83529 0.77067 0.30181 0.0
O2570 O 0.8201 0.79109 0.28196 0.0
O2571 O 0.80005 0.7922 0.26265 0.0
O2572 O 0.78613 0.76161 0.25358 0.0
O2573 O 0.81271 0.76259 0.2606 0.0
C2574 C 0.79251 0.78589 0.3092 0.0
O2575 O 0.76896 0.79646 0.26653 0.0
O2576 O 0.75792 0.77281 0.25963 0.0
C2577 C 0.85336 0.75569 0.2931 0.0
C2578 C 0.88311 0.75633 0.28201 0.0
C2579 C 0.86913 0.75145 0.27176 0.0
C2580 C 0.85437 0.75122 0.27723 0.0
C2581 C 0.86729 0.76014 0.30345 0.0
C2582 C 0.88207 0.76053 0.29794 0.0
C2583 C 0.83798 0.75672 0.29871 0.0
H2584 H 0.70733 0.80309 0.25631 0.0
H2585 H 0.73211 0.79937 0.24595 0.0
H2586 H 0.74774 0.78147 0.28965 0.0
H2587 H 0.72294 0.78469 0.29994 0.0
H2588 H 0.86961 0.74839 0.25938 0.0
H2589 H 0.84378 0.74793 0.26896 0.0
H2590 H 0.86671 0.76368 0.31571 0.0
H2591 H 0.8927 0.76429 0.30606 0.0
Tb2592 Tb 0.81725 0.28807 0.78242 0.0
Eu2593 Eu 0.79406 0.25626 0.76645 0.0
C2594 C 0.78067 0.28544 0.77834 0.0
C2595 C 0.804 0.26158 0.80387 0.0
C2596 C 0.84008 0.32808 0.78911 0.0
C2597 C 0.83734 0.34783 0.77079 0.0
C2598 C 0.83218 0.33313 0.77572 0.0
C2599 C 0.85312 0.33781 0.7975 0.0
C2600 C 0.85834 0.35244 0.79255 0.0
C2601 C 0.85056 0.35758 0.7791 0.0
C2602 C 0.83536 0.31249 0.79408 0.0
O2603 O 0.83066 0.26927 0.78355 0.0
O2604 O 0.81884 0.25609 0.76067 0.0
O2605 O 0.79485 0.27314 0.74775 0.0
O2606 O 0.81807 0.28942 0.75709 0.0
C2607 C 0.83094 0.25944 0.77152 0.0
O2608 O 0.79185 0.23234 0.75723 0.0
O2609 O 0.77125 0.24374 0.75525 0.0
O2610 O 0.77937 0.27048 0.77941 0.0
O2611 O 0.79404 0.29374 0.77537 0.0
O2612 O 0.80826 0.27646 0.80235 0.0
O2613 O 0.80042 0.25136 0.79163 0.0
C2614 C 0.80675 0.28398 0.74567 0.0
O2615 O 0.82064 0.30874 0.79688 0.0
O2616 O 0.84 0.30149 0.78584 0.0
C2617 C 0.76686 0.21619 0.75521 0.0
C2618 C 0.74783 0.18741 0.75806 0.0
C2619 C 0.76053 0.1885 0.74882 0.0
C2620 C 0.76992 0.20274 0.74742 0.0
C2621 C 0.75428 0.21522 0.7646 0.0
C2622 C 0.74478 0.2009 0.76597 0.0
C2623 C 0.77673 0.23094 0.75269 0.0
H2624 H 0.8312 0.35147 0.76033 0.0
H2625 H 0.82215 0.32565 0.76903 0.0
H2626 H 0.85936 0.33403 0.80784 0.0
H2627 H 0.86841 0.35978 0.79931 0.0
H2628 H 0.763 0.17838 0.74235 0.0
H2629 H 0.77949 0.20328 0.74002 0.0
H2630 H 0.75172 0.22548 0.77074 0.0
H2631 H 0.73512 0.20037 0.77323 0.0
Tb2632 Tb 0.80193 0.78972 0.787 0.0
Eu2633 Eu 0.78739 0.75657 0.76891 0.0
C2634 C 0.80212 0.7586 0.80599 0.0
C2635 C 0.8242 0.77281 0.76627 0.0
C2636 C 0.80436 0.83016 0.80154 0.0
C2637 C 0.79232 0.8484 0.81666 0.0
C2638 C 0.80175 0.83693 0.8161 0.0
C2639 C 0.79816 0.83564 0.78752 0.0
C2640 C 0.78888 0.8472 0.78808 0.0
C2641 C 0.78548 0.85336 0.80263 0.0
C2642 C 0.81161 0.81612 0.80115 0.0
O2643 O 0.79545 0.79613 0.76278 0.0
O2644 O 0.78194 0.7732 0.75036 0.0
O2645 O 0.7692 0.76158 0.78539 0.0
O2646 O 0.77595 0.78781 0.78827 0.0
C2647 C 0.78748 0.78809 0.75008 0.0
O2648 O 0.7905 0.7345 0.75803 0.0
O2649 O 0.76682 0.73977 0.75842 0.0
O2650 O 0.79769 0.74988 0.79271 0.0
O2651 O 0.804 0.77383 0.80607 0.0
O2652 O 0.82335 0.78191 0.77896 0.0
O2653 O 0.81141 0.76338 0.75964 0.0
C2654 C 0.7659 0.77508 0.79009 0.0
O2655 O 0.80396 0.80452 0.80756 0.0
O2656 O 0.81613 0.81172 0.78778 0.0
C2657 C 0.77096 0.71445 0.76303 0.0
C2658 C 0.77294 0.68767 0.77897 0.0
C2659 C 0.77256 0.6872 0.76243 0.0
C2660 C 0.77164 0.70055 0.75453 0.0
C2661 C 0.76961 0.71457 0.77928 0.0
C2662 C 0.77052 0.70124 0.78719 0.0
C2663 C 0.77534 0.72908 0.75589 0.0
H2664 H 0.78995 0.85305 0.82803 0.0
H2665 H 0.80636 0.83281 0.82704 0.0
H2666 H 0.79983 0.83052 0.77611 0.0
H2667 H 0.78361 0.85065 0.77708 0.0
H2668 H 0.77456 0.677 0.75575 0.0
H2669 H 0.77286 0.70032 0.74201 0.0
H2670 H 0.76919 0.72526 0.78606 0.0
H2671 H 0.77062 0.70189 0.7999 0.0
Tb2672 Tb 0.52945 0.52543 0.53106 0.0
Eu2673 Eu 0.56647 0.53911 0.54612 0.0
C2674 C 0.55815 0.51726 0.51447 0.0
C2675 C 0.54785 0.50668 0.5536 0.0
C2676 C 0.48695 0.5238 0.51897 0.0
C2677 C 0.45931 0.52367 0.52273 0.0
C2678 C 0.47247 0.51619 0.52312 0.0
C2679 C 0.48809 0.53899 0.51436 0.0
C2680 C 0.47495 0.54641 0.51384 0.0
C2681 C 0.46044 0.53886 0.51807 0.0
C2682 C 0.50094 0.51613 0.52009 0.0
O2683 O 0.52843 0.53596 0.55455 0.0
O2684 O 0.55202 0.55315 0.55951 0.0
O2685 O 0.55981 0.55463 0.52749 0.0
O2686 O 0.53283 0.54994 0.52789 0.0
C2687 C 0.5374 0.54819 0.56235 0.0
O2688 O 0.58585 0.54058 0.56509 0.0
O2689 O 0.59002 0.55169 0.54359 0.0
O2690 O 0.56725 0.51994 0.52791 0.0
O2691 O 0.54435 0.5218 0.51261 0.0
O2692 O 0.53913 0.50596 0.54001 0.0
O2693 O 0.55611 0.5198 0.55999 0.0
C2694 C 0.54581 0.55851 0.52437 0.0
O2695 O 0.51212 0.52132 0.51155 0.0
O2696 O 0.50668 0.51385 0.53432 0.0
C2697 C 0.60991 0.53867 0.5548 0.0
C2698 C 0.63342 0.52003 0.55213 0.0
C2699 C 0.63115 0.52668 0.56694 0.0
C2700 C 0.6195 0.53592 0.56824 0.0
C2701 C 0.61243 0.53237 0.53996 0.0
C2702 C 0.62409 0.52322 0.53864 0.0
C2703 C 0.59646 0.5469 0.55646 0.0
H2704 H 0.44824 0.51757 0.52599 0.0
H2705 H 0.47138 0.5045 0.52679 0.0
H2706 H 0.49917 0.54522 0.51128 0.0
H2707 H 0.47624 0.5582 0.51044 0.0
H2708 H 0.63801 0.52434 0.57759 0.0
H2709 H 0.61768 0.54055 0.57982 0.0
H2710 H 0.60518 0.53421 0.52936 0.0
H2711 H 0.62569 0.51853 0.52702 0.0
Tb2712 Tb 0.03516 0.50939 0.0301 0.0
Eu2713 Eu 0.05827 0.54143 0.04356 0.0
C2714 C 0.04272 0.5179 0.06613 0.0
C2715 C 0.01993 0.54035 0.03586 0.0
C2716 C 0.01684 0.46982 0.01158 0.0
C2717 C 1.00575 0.44264 0.00642 0.0
C2718 C 1.00616 0.45684 0.0147 0.0
C2719 C 0.02723 0.46851 1.00011 0.0
C2720 C 0.02676 0.45428 0.99172 0.0
C2721 C 0.01601 0.44121 0.99483 0.0
C2722 C 0.01675 0.48453 0.02046 0.0
O2723 O 0.04761 0.51778 0.01059 0.0
O2724 O 0.05002 0.54332 0.01819 0.0
O2725 O 0.07536 0.52507 0.03798 0.0
O2726 O 0.05845 0.50168 0.03474 0.0
C2727 C 0.04945 0.53224 0.00717 0.0
O2728 O 0.07833 0.55924 0.04036 0.0
O2729 O 0.06619 0.5606 0.06138 0.0
O2730 O 0.05614 0.52639 0.06381 0.0
O2731 O 0.03141 0.5138 0.05454 0.0
O2732 O 0.01912 0.52671 0.02808 0.0
O2733 O 0.0333 0.54723 0.04415 0.0
C2734 C 0.07302 0.50982 0.0362 0.0
O2735 O 0.02515 0.48676 0.03422 0.0
O2736 O 0.01826 0.49691 0.01265 0.0
C2737 C 0.07614 0.58404 0.05066 0.0
C2738 C 0.07573 0.61548 0.04623 0.0
C2739 C 0.08964 0.60926 0.04498 0.0
C2740 C 0.08984 0.59369 0.04724 0.0
C2741 C 0.06211 0.59006 0.0515 0.0
C2742 C 0.06193 0.60566 0.0494 0.0
C2743 C 0.07661 0.56768 0.05292 0.0
H2744 H 0.99719 0.43283 0.00891 0.0
H2745 H 0.99806 0.4577 0.02352 0.0
H2746 H 0.03564 0.47845 0.99764 0.0
H2747 H 0.03488 0.45344 0.98292 0.0
H2748 H 0.1004 0.61643 0.04231 0.0
H2749 H 0.10073 0.58918 0.04634 0.0
H2750 H 0.05131 0.58278 0.05394 0.0
H2751 H 0.05107 0.61007 0.05069 0.0
C2752 C 0.01447 0.16641 0.95726 0.0
C2753 C 0.02601 0.17589 0.95002 0.0
C2754 C 0.01898 0.15643 0.96834 0.0
C2755 C 0.03283 0.13947 0.99537 0.0
H2756 H 0.06037 0.1137 0.97796 0.0
C2757 C 0.05327 0.08672 0.02475 0.0
C2758 C 0.04926 0.0731 0.01471 0.0
C2759 C 0.05193 0.10102 0.0189 0.0
C2760 C 0.05282 0.12093 0.98303 0.0
H2761 H 0.05129 0.18345 0.9497 0.0
H2762 H 0.05913 0.16578 0.96882 0.0
H2763 H 0.05533 0.13665 0.96494 0.0
H2764 H 0.04088 0.0637 0.99074 0.0
H2765 H 0.03893 0.0887 0.9805 0.0
H2766 H 0.03001 0.12332 0.01321 0.0
C2767 C 0.04663 0.16594 0.96578 0.0
C2768 C 0.05002 0.13409 0.97568 0.0
C2769 C 0.04213 0.17595 0.95479 0.0
C2770 C 0.04403 0.074 0.99875 0.0
C2771 C 0.04299 0.08828 0.99287 0.0
C2772 C 0.03582 0.12637 1.00287 0.0
C2773 C 0.03509 0.15578 0.97229 0.0
C2774 C 0.03971 0.14326 0.98155 0.0
C2775 C 0.04689 0.10187 1.0029 0.0
C2776 C 0.04549 0.11681 0.99647 0.0
H2777 H 1.00196 0.1661 0.95378 0.0
H2778 H 1.00985 0.1486 0.97309 0.0
H2779 H 0.02487 0.14642 1.00012 0.0
H2780 H 0.05722 0.08631 0.03714 0.0
H2781 H 0.05498 0.11141 0.0268 0.0
C2782 C 0.15607 0.82862 0.22907 0.0
C2783 C 0.14629 0.8145 0.22352 0.0
C2784 C 0.16957 0.82889 0.23972 0.0
C2785 C 0.18886 0.80584 0.26802 0.0
H2786 H 0.22801 0.82442 0.25276 0.0
C2787 C 0.24634 0.78233 0.27945 0.0
C2788 C 0.26104 0.79209 0.27966 0.0
C2789 C 0.23227 0.78818 0.27709 0.0
C2790 C 0.21725 0.81953 0.25752 0.0
H2791 H 0.14299 0.78962 0.22509 0.0
H2792 H 0.16621 0.79019 0.24388 0.0
H2793 H 0.20283 0.82923 0.24022 0.0
H2794 H 0.27255 0.81589 0.27878 0.0
H2795 H 0.2479 0.82616 0.27486 0.0
H2796 H 0.20321 0.79572 0.285 0.0
C2797 C 0.16336 0.80104 0.24008 0.0
C2798 C 0.2028 0.82226 0.25028 0.0
C2799 C 0.15003 0.80074 0.2293 0.0
C2800 C 0.2614 0.80802 0.27848 0.0
C2801 C 0.24728 0.8139 0.27619 0.0
C2802 C 0.2033 0.80323 0.27538 0.0
C2803 C 0.17338 0.81508 0.24521 0.0
C2804 C 0.18848 0.81492 0.25505 0.0
C2805 C 0.23256 0.80397 0.27499 0.0
C2806 C 0.21763 0.80949 0.26974 0.0
H2807 H 0.15338 0.83947 0.22511 0.0
H2808 H 0.17711 0.83986 0.24355 0.0
H2809 H 0.17794 0.80023 0.27205 0.0
H2810 H 0.24563 0.77001 0.28039 0.0
H2811 H 0.22118 0.78013 0.27602 0.0
C2812 C 0.50019 0.81718 0.41449 0.0
C2813 C 0.50021 0.80432 0.42351 0.0
C2814 C 0.50065 0.83188 0.42182 0.0
C2815 C 0.49361 0.85226 0.45865 0.0
H2816 H 0.52445 0.88565 0.44654 0.0
C2817 C 0.51129 0.90982 0.4963 0.0
C2818 C 0.51289 0.92346 0.48838 0.0
C2819 C 0.50957 0.89546 0.48792 0.0
C2820 C 0.51564 0.8765 0.44992 0.0
H2821 H 0.50006 0.79659 0.44715 0.0
H2822 H 0.50093 0.82227 0.45998 0.0
H2823 H 0.52077 0.86016 0.43246 0.0
H2824 H 0.5142 0.93281 0.46553 0.0
H2825 H 0.51112 0.90766 0.45081 0.0
H2826 H 0.4885 0.86854 0.47613 0.0
C2827 C 0.50053 0.821 0.44725 0.0
C2828 C 0.51352 0.86192 0.44185 0.0
C2829 C 0.50016 0.80634 0.43993 0.0
C2830 C 0.51314 0.92248 0.47194 0.0
C2831 C 0.51136 0.90809 0.46353 0.0
C2832 C 0.49569 0.86684 0.46668 0.0
C2833 C 0.50103 0.83395 0.4383 0.0
C2834 C 0.50259 0.84962 0.44623 0.0
C2835 C 0.50936 0.89442 0.47142 0.0
C2836 C 0.50684 0.87908 0.46251 0.0
H2837 H 0.50037 0.81598 0.40182 0.0
H2838 H 0.50086 0.84164 0.41462 0.0
H2839 H 0.48494 0.84305 0.46214 0.0
H2840 H 0.51133 0.91025 0.509 0.0
H2841 H 0.50841 0.88516 0.49437 0.0
C2842 C 0.51127 0.29024 0.71816 0.0
C2843 C 0.50903 0.29083 0.70169 0.0
C2844 C 0.49835 0.28611 0.7266 0.0
C2845 C 0.45684 0.26625 0.72218 0.0
H2846 H 0.45387 0.29146 0.76017 0.0
C2847 C 0.39867 0.2652 0.75001 0.0
C2848 C 0.3993 0.26656 0.76654 0.0
C2849 C 0.41258 0.26671 0.74273 0.0
C2850 C 0.45465 0.28414 0.74974 0.0
H2851 H 0.49147 0.28756 0.68117 0.0
H2852 H 0.46889 0.28027 0.69594 0.0
H2853 H 0.47726 0.29692 0.74617 0.0
H2854 H 0.41498 0.27024 0.78842 0.0
H2855 H 0.43936 0.27262 0.77568 0.0
H2856 H 0.43415 0.25357 0.72565 0.0
C2857 C 0.48068 0.28284 0.70227 0.0
C2858 C 0.46802 0.28729 0.74171 0.0
C2859 C 0.4936 0.28702 0.69382 0.0
C2860 C 0.41413 0.26906 0.77566 0.0
C2861 C 0.42808 0.27058 0.76837 0.0
C2862 C 0.44348 0.26307 0.73023 0.0
C2863 C 0.48293 0.28241 0.71875 0.0
C2864 C 0.46915 0.2785 0.72774 0.0
C2865 C 0.42743 0.26957 0.75182 0.0
C2866 C 0.44215 0.27212 0.74398 0.0
H2867 H 0.52305 0.29283 0.72452 0.0
H2868 H 0.50044 0.28568 0.73928 0.0
H2869 H 0.45752 0.25913 0.71158 0.0
H2870 H 0.3874 0.26305 0.74267 0.0
H2871 H 0.41167 0.26603 0.72997 0.0
C2872 C 0.02997 0.8732 0.60955 0.0
C2873 C 0.03803 0.86145 0.60411 0.0
C2874 C 0.03082 0.88764 0.60271 0.0
C2875 C 0.04526 0.90937 0.56729 0.0
H2876 H 0.03532 0.94451 0.59117 0.0
C2877 C 0.04364 0.96895 0.53823 0.0
C2878 C 0.04527 0.98297 0.54768 0.0
C2879 C 0.04282 0.95441 0.5449 0.0
C2880 C 0.03839 0.93504 0.58417 0.0
H2881 H 0.05342 0.85679 0.58638 0.0
H2882 H 0.05546 0.88164 0.57524 0.0
H2883 H 0.03443 0.92003 0.60286 0.0
H2884 H 0.04747 0.99204 0.57206 0.0
H2885 H 0.0467 0.9673 0.58359 0.0
H2886 H 0.04991 0.92458 0.54887 0.0
C2887 C 0.04805 0.87967 0.58468 0.0
C2888 C 0.03758 0.92057 0.59094 0.0
C2889 C 0.04707 0.86516 0.59141 0.0
C2890 C 0.04619 0.98171 0.56417 0.0
C2891 C 0.04557 0.96722 0.57087 0.0
C2892 C 0.04624 0.9239 0.56058 0.0
C2893 C 0.03993 0.89139 0.59008 0.0
C2894 C 0.04094 0.90723 0.58271 0.0
C2895 C 0.04375 0.95306 0.56146 0.0
C2896 C 0.04279 0.93722 0.56879 0.0
H2897 H 0.023 0.87146 0.61934 0.0
H2898 H 0.02404 0.8958 0.6074 0.0
H2899 H 0.04779 0.89976 0.56009 0.0
H2900 H 0.04272 0.96913 0.52551 0.0
H2901 H 0.04115 0.94418 0.53687 0.0
C2902 C 0.46767 0.7782 0.84261 0.0
C2903 C 0.47009 0.76999 0.85617 0.0
C2904 C 0.45229 0.77869 0.83524 0.0
C2905 C 0.40847 0.77036 0.84159 0.0
H2906 H 0.40213 0.77524 0.79675 0.0
C2907 C 0.34454 0.76558 0.80765 0.0
C2908 C 0.34219 0.77513 0.79518 0.0
C2909 C 0.35991 0.76485 0.81492 0.0
C2910 C 0.40358 0.77404 0.80933 0.0
H2911 H 0.45727 0.75588 0.87233 0.0
H2912 H 0.43089 0.75629 0.85936 0.0
H2913 H 0.42853 0.77403 0.80932 0.0
H2914 H 0.3548 0.79138 0.78075 0.0
H2915 H 0.38134 0.7901 0.79326 0.0
H2916 H 0.38344 0.77021 0.84151 0.0
C2917 C 0.44091 0.76266 0.85448 0.0
C2918 C 0.41893 0.77337 0.81666 0.0
C2919 C 0.4563 0.76221 0.86189 0.0
C2920 C 0.35591 0.78383 0.79022 0.0
C2921 C 0.37129 0.78302 0.79742 0.0
C2922 C 0.3931 0.77094 0.83423 0.0
C2923 C 0.43848 0.77094 0.84098 0.0
C2924 C 0.42181 0.77154 0.833 0.0
C2925 C 0.37367 0.77356 0.81 0.0
C2926 C 0.39027 0.77283 0.81793 0.0
H2927 H 0.47769 0.78423 0.83747 0.0
H2928 H 0.45131 0.78542 0.82508 0.0
H2929 H 0.40987 0.76926 0.85418 0.0
H2930 H 0.33445 0.75866 0.81192 0.0
H2931 H 0.36096 0.75724 0.82434 0.0
C2932 C 0.53531 0.18295 0.11341 0.0
C2933 C 0.53411 0.19561 0.10408 0.0
C2934 C 0.53626 0.16802 0.1067 0.0
C2935 C 0.54394 0.14653 0.06867 0.0
H2936 H 0.528 0.11003 0.08938 0.0
C2937 C 0.5406 0.08398 0.03807 0.0
C2938 C 0.54226 0.07129 0.04718 0.0
C2939 C 0.53969 0.09878 0.04507 0.0
C2940 C 0.53274 0.12 0.0834 0.0
H2941 H 0.53308 0.20155 0.07974 0.0
H2942 H 0.53434 0.17588 0.06818 0.0
H2943 H 0.52613 0.13558 0.10091 0.0
H2944 H 0.54425 0.06491 0.07132 0.0
H2945 H 0.54279 0.09051 0.08348 0.0
H2946 H 0.55053 0.13097 0.05116 0.0
C2947 C 0.53479 0.17748 0.08087 0.0
C2948 C 0.53166 0.13491 0.09012 0.0
C2949 C 0.53383 0.19241 0.0876 0.0
C2950 C 0.54295 0.07417 0.06372 0.0
C2951 C 0.542 0.08902 0.07075 0.0
C2952 C 0.545 0.13164 0.06195 0.0
C2953 C 0.53607 0.16484 0.09023 0.0
C2954 C 0.53722 0.14862 0.08294 0.0
C2955 C 0.54038 0.10176 0.06161 0.0
C2956 C 0.5394 0.11793 0.06909 0.0
H2957 H 0.53536 0.18443 0.12608 0.0
H2958 H 0.53739 0.15899 0.11461 0.0
H2959 H 0.54874 0.15647 0.06268 0.0
H2960 H 0.53994 0.08251 0.02533 0.0
H2961 H 0.53818 0.10786 0.03732 0.0
C2962 C 0.14543 0.28597 0.36248 0.0
C2963 C 0.13136 0.27534 0.35729 0.0
C2964 C 0.15938 0.28646 0.35479 0.0
C2965 C 0.17893 0.26354 0.32519 0.0
H2966 H 0.2081 0.30214 0.3254 0.0
C2967 C 0.23411 0.26835 0.28849 0.0
C2968 C 0.24822 0.27874 0.29401 0.0
C2969 C 0.22 0.26811 0.29587 0.0
C2970 C 0.20031 0.29113 0.32529 0.0
H2971 H 0.12166 0.25701 0.33914 0.0
H2972 H 0.14556 0.25785 0.32596 0.0
H2973 H 0.18415 0.30136 0.3385 0.0
H2974 H 0.2579 0.29716 0.31201 0.0
H2975 H 0.2337 0.29674 0.32476 0.0
H2976 H 0.1951 0.25331 0.312 0.0
C2977 C 0.146 0.26573 0.33626 0.0
C2978 C 0.18633 0.29067 0.33293 0.0
C2979 C 0.13205 0.26524 0.34395 0.0
C2980 C 0.24745 0.289 0.30717 0.0
C2981 C 0.23334 0.28878 0.31453 0.0
C2982 C 0.1929 0.264 0.31755 0.0
C2983 C 0.16008 0.27635 0.34146 0.0
C2984 C 0.17524 0.27686 0.33312 0.0
C2985 C 0.21923 0.27826 0.30916 0.0
C2986 C 0.204 0.2778 0.31738 0.0
H2987 H 0.14588 0.29385 0.37278 0.0
H2988 H 0.16978 0.29469 0.3596 0.0
H2989 H 0.17115 0.25252 0.3251 0.0
H2990 H 0.23397 0.26019 0.27847 0.0
H2991 H 0.2096 0.25994 0.29096 0.0
C2992 C 0.96372 0.04932 0.16971 0.0
C2993 C 0.95707 0.03406 0.17224 0.0
C2994 C 0.97312 0.05225 0.15743 0.0
C2995 C 0.9983 0.03329 0.13345 0.0
H2996 H 0.99424 0.0656 0.10502 0.0
C2997 C 0.0163 0.04712 0.06873 0.0
C2998 C 0.03193 0.04419 0.07035 0.0
C2999 C 1.00833 0.04879 0.08199 0.0
C3000 C 0.99552 0.05658 0.11292 0.0
H3001 H 0.95429 0.01005 0.1634 0.0
H3002 H 0.97073 0.01517 0.14205 0.0
H3003 H 0.9771 0.06214 0.12623 0.0
H3004 H 0.05184 0.04182 0.08722 0.0
H3005 H 0.03792 0.04484 0.11037 0.0
H3006 H 0.01631 0.02736 0.11999 0.0
C3007 C 0.96893 0.02481 0.14973 0.0
C3008 C 0.9858 0.05466 0.12508 0.0
C3009 C 0.95952 0.02188 0.16194 0.0
C3010 C 0.03974 0.0439 0.08555 0.0
C3011 C 0.03177 0.04558 0.09881 0.0
C3012 C 1.00804 0.03524 0.12139 0.0
C3013 C 0.97606 0.03998 0.14754 0.0
C3014 C 0.98692 0.0428 0.13526 0.0
C3015 C 0.01584 0.04757 0.09713 0.0
C3016 C 1.0066 0.04675 0.11086 0.0
H3017 H 0.96215 0.05892 0.17756 0.0
H3018 H 0.97854 0.06405 0.15602 0.0
H3019 H 0.99957 0.0242 0.14128 0.0
H3020 H 1.00995 0.04748 0.05718 0.0
H3021 H 0.99602 0.05021 0.08032 0.0
C3022 C 0.30237 0.72913 0.44295 0.0
C3023 C 0.28923 0.71895 0.44693 0.0
C3024 C 0.30242 0.73435 0.4278 0.0
C3025 C 0.28771 0.72261 0.38723 0.0
H3026 H 0.29691 0.76611 0.37992 0.0
C3027 C 0.2873 0.74336 0.32407 0.0
C3028 C 0.298 0.75672 0.32176 0.0
C3029 C 0.28549 0.73881 0.33932 0.0
C3030 C 0.29459 0.75389 0.38171 0.0
H3031 H 0.26589 0.70622 0.43836 0.0
H3032 H 0.26615 0.71508 0.41164 0.0
H3033 H 0.29522 0.75839 0.40673 0.0
H3034 H 0.31561 0.77546 0.33348 0.0
H3035 H 0.3131 0.76718 0.35987 0.0
H3036 H 0.28781 0.71794 0.36242 0.0
C3037 C 0.27627 0.71916 0.42033 0.0
C3038 C 0.2935 0.74952 0.39708 0.0
C3039 C 0.27608 0.7142 0.43558 0.0
C3040 C 0.30712 0.76521 0.33492 0.0
C3041 C 0.30556 0.76051 0.35009 0.0
C3042 C 0.28913 0.72695 0.37187 0.0
C3043 C 0.28949 0.72919 0.41629 0.0
C3044 C 0.29008 0.73385 0.39997 0.0
C3045 C 0.29457 0.74736 0.35257 0.0
C3046 C 0.29266 0.74267 0.36889 0.0
H3047 H 0.31265 0.73289 0.45152 0.0
H3048 H 0.31277 0.74203 0.42492 0.0
H3049 H 0.28522 0.71043 0.38922 0.0
H3050 H 0.28002 0.73666 0.31414 0.0
H3051 H 0.27674 0.72876 0.34069 0.0
C3052 C 0.53297 0.97607 0.70201 0.0
C3053 C 0.54539 0.96755 0.70423 0.0
C3054 C 0.52719 0.97908 0.68684 0.0
C3055 C 0.53201 0.99563 0.65695 0.0
H3056 H 0.52666 0.9682 0.61889 0.0
C3057 C 0.54752 0.0159 0.59674 0.0
C3058 C 0.53688 0.01006 0.58338 0.0
C3059 C 0.54514 0.01031 0.61145 0.0
C3060 C 0.52792 0.97597 0.62942 0.0
H3061 H 0.56034 0.95427 0.69211 0.0
H3062 H 0.55 0.95921 0.66578 0.0
H3063 H 0.52688 0.95736 0.64466 0.0
H3064 H 0.51535 0.99389 0.57496 0.0
H3065 H 0.51137 0.98401 0.60065 0.0
H3066 H 0.53376 0.01426 0.64178 0.0
C3067 C 0.54479 0.96363 0.67575 0.0
C3068 C 0.52809 0.96977 0.64413 0.0
C3069 C 0.55069 0.96075 0.69091 0.0
C3070 C 0.52374 0.99865 0.58505 0.0
C3071 C 0.52148 0.99294 0.59971 0.0
C3072 C 0.53202 1.00182 0.64227 0.0
C3073 C 0.53356 0.97345 0.67362 0.0
C3074 C 0.53048 0.97957 0.65804 0.0
C3075 C 0.53219 0.99866 0.61302 0.0
C3076 C 0.53034 0.99206 0.62841 0.0
H3077 H 0.52838 0.98118 0.71202 0.0
H3078 H 0.51834 0.98649 0.68547 0.0
H3079 H 0.53408 1.00348 0.66748 0.0
H3080 H 0.55773 0.0247 0.59582 0.0
H3081 H 0.55367 0.0148 0.62152 0.0
C3082 C 0.26823 0.35513 0.93422 0.0
C3083 C 0.27914 0.35424 0.94755 0.0
C3084 C 0.26972 0.34823 0.91916 0.0
C3085 C 0.2987 0.33038 0.89571 0.0
H3086 H 0.26145 0.31682 0.86572 0.0
C3087 C 0.30166 0.29419 0.83623 0.0
C3088 C 0.29208 0.29658 0.82247 0.0
C3089 C 0.30005 0.30121 0.85117 0.0
C3090 C 0.27208 0.32065 0.8738 0.0
H3091 H 0.30046 0.345 0.95459 0.0
H3092 H 0.30265 0.33269 0.92893 0.0
H3093 H 0.25873 0.3285 0.89165 0.0
H3094 H 0.27303 0.30845 0.81423 0.0
H3095 H 0.27018 0.32056 0.84009 0.0
H3096 H 0.312 0.32231 0.87788 0.0
C3097 C 0.29299 0.33901 0.92995 0.0
C3098 C 0.27052 0.32748 0.88888 0.0
C3099 C 0.29156 0.34598 0.94499 0.0
C3100 C 0.28071 0.30624 0.82437 0.0
C3101 C 0.279 0.31317 0.83937 0.0
C3102 C 0.30023 0.32345 0.88068 0.0
C3103 C 0.28214 0.33999 0.9166 0.0
C3104 C 0.28379 0.33255 0.90025 0.0
C3105 C 0.28867 0.31087 0.85313 0.0
C3106 C 0.28697 0.31842 0.86935 0.0
H3107 H 0.25831 0.36107 0.93534 0.0
H3108 H 0.2611 0.34962 0.90945 0.0
H3109 H 0.3094 0.33428 0.90366 0.0
H3110 H 0.31055 0.28686 0.83548 0.0
H3111 H 0.30765 0.29883 0.86129 0.0
C3112 C 1.00255 0.04953 0.30827 0.0
C3113 C 0.98664 0.0476 0.31154 0.0
C3114 C 0.01489 0.05108 0.32053 0.0
C3115 C 0.02494 0.05915 0.36354 0.0
H3116 H 0.04959 0.02615 0.36062 0.0
C3117 C 0.06058 0.04293 0.41833 0.0
C3118 C 0.05506 0.02748 0.42125 0.0
C3119 C 0.05757 0.04812 0.40333 0.0
C3120 C 0.04302 0.03561 0.3615 0.0
H3121 H 0.97143 0.04654 0.33042 0.0
H3122 H 0.99291 0.04974 0.35163 0.0
H3123 H 0.03331 0.03179 0.33725 0.0
H3124 H 0.04314 1.00514 0.41024 0.0
H3125 H 0.03836 0.01409 0.3842 0.0
H3126 H 0.03387 0.06236 0.388 0.0
C3127 C 0.99581 0.05005 0.33959 0.0
C3128 C 0.03379 0.03889 0.34814 0.0
C3129 C 0.98348 0.04825 0.32738 0.0
C3130 C 0.04776 0.01706 0.40849 0.0
C3131 C 0.04497 0.0222 0.3935 0.0
C3132 C 0.03431 0.05598 0.37686 0.0
C3133 C 1.01159 0.05105 0.33628 0.0
C3134 C 0.02412 0.05023 0.34923 0.0
C3135 C 0.04926 0.0379 0.39092 0.0
C3136 C 0.04288 0.04372 0.37612 0.0
H3137 H 1.00547 0.04945 0.29624 0.0
H3138 H 0.02698 0.05194 0.31769 0.0
H3139 H 0.01767 0.06802 0.36464 0.0
H3140 H 0.0666 0.0512 0.42777 0.0
H3141 H 0.06115 0.06025 0.4016 0.0
C3142 C 0.30873 0.71493 0.61214 0.0
C3143 C 0.29382 0.7122 0.60311 0.0
C3144 C 0.31031 0.72054 0.62798 0.0
C3145 C 0.2907 0.74185 0.65625 0.0
H3146 H 0.31706 0.72498 0.68803 0.0
C3147 C 0.30495 0.77054 0.71906 0.0
C3148 C 0.30328 0.76085 0.73153 0.0
C3149 C 0.30492 0.76436 0.70366 0.0
C3150 C 0.30961 0.72975 0.67929 0.0
H3151 H 0.26891 0.71341 0.60358 0.0
H3152 H 0.27163 0.72312 0.63122 0.0
H3153 H 0.31435 0.71452 0.66052 0.0
H3154 H 0.30096 0.73704 0.73765 0.0
H3155 H 0.30088 0.7262 0.7106 0.0
H3156 H 0.28577 0.75693 0.67494 0.0
C3157 C 0.28213 0.72097 0.62604 0.0
C3158 C 0.30817 0.72387 0.66353 0.0
C3159 C 0.28054 0.71529 0.61025 0.0
C3160 C 0.30228 0.74483 0.72832 0.0
C3161 C 0.30226 0.73862 0.71283 0.0
C3162 C 0.2922 0.74777 0.67194 0.0
C3163 C 0.29702 0.72364 0.6351 0.0
C3164 C 0.29868 0.72985 0.65185 0.0
C3165 C 0.30321 0.74832 0.70029 0.0
C3166 C 0.3017 0.74183 0.68365 0.0
H3167 H 0.31916 0.7125 0.60703 0.0
H3168 H 0.32196 0.72261 0.6346 0.0
H3169 H 0.28342 0.74681 0.64752 0.0
H3170 H 0.30593 0.78295 0.72109 0.0
H3171 H 0.30603 0.77217 0.69432 0.0
C3172 C 0.57657 0.03146 0.83675 0.0
C3173 C 0.59257 0.02974 0.83781 0.0
C3174 C 0.57167 0.04266 0.8464 0.0
C3175 C 0.58391 0.06508 0.88455 0.0
H3176 H 0.54506 0.08069 0.87308 0.0
C3177 C 0.55117 0.08566 0.93292 0.0
C3178 C 0.53696 0.07499 0.93243 0.0
C3179 C 0.5588 0.08783 0.91933 0.0
C3180 C 0.5561 0.07671 0.87637 0.0
H3181 H 0.61609 0.03893 0.84955 0.0
H3182 H 0.60764 0.05887 0.86594 0.0
H3183 H 0.55822 0.06911 0.85257 0.0
H3184 H 0.51851 0.06004 0.91673 0.0
H3185 H 0.53154 0.06417 0.89318 0.0
H3186 H 0.58148 0.07212 0.90837 0.0
C3187 C 0.59879 0.05129 0.8579 0.0
C3188 C 0.56356 0.06991 0.86469 0.0
C3189 C 0.60366 0.03991 0.84839 0.0
C3190 C 0.52942 0.06834 0.91766 0.0
C3191 C 0.53692 0.07071 0.90406 0.0
C3192 C 0.5766 0.07208 0.89617 0.0
C3193 C 0.58268 0.05264 0.85722 0.0
C3194 C 0.57705 0.06322 0.86877 0.0
C3195 C 0.55216 0.07962 0.90499 0.0
C3196 C 0.56218 0.0772 0.8923 0.0
H3197 H 0.56774 0.02414 0.82844 0.0
H3198 H 0.55912 0.04312 0.84569 0.0
H3199 H 0.5942 0.06001 0.88824 0.0
H3200 H 0.55704 0.09138 0.94402 0.0
H3201 H 0.57045 0.09495 0.92028 0.0
C3202 C 0.28208 0.36686 0.12781 0.0
C3203 C 0.27969 0.35788 0.11319 0.0
C3204 C 0.28264 0.36 0.14244 0.0
C3205 C 0.28704 0.32213 0.16083 0.0
H3206 H 0.27338 0.34196 0.19745 0.0
C3207 C 0.28145 0.29055 0.21927 0.0
C3208 C 0.28477 0.29906 0.23413 0.0
C3209 C 0.2807 0.2979 0.20498 0.0
C3210 C 0.27744 0.33624 0.18747 0.0
H3211 H 0.27614 0.33411 0.10333 0.0
H3212 H 0.27668 0.32233 0.12841 0.0
H3213 H 0.27227 0.35395 0.17239 0.0
H3214 H 0.28979 0.32244 0.24502 0.0
H3215 H 0.28848 0.33524 0.22024 0.0
H3216 H 0.29218 0.30442 0.17586 0.0
C3217 C 0.27838 0.33481 0.12866 0.0
C3218 C 0.27682 0.34321 0.17288 0.0
C3219 C 0.27783 0.34167 0.11403 0.0
C3220 C 0.2871 0.31534 0.23399 0.0
C3221 C 0.2863 0.32273 0.21962 0.0
C3222 C 0.28762 0.31516 0.17537 0.0
C3223 C 0.28083 0.34378 0.14328 0.0
C3224 C 0.28156 0.33632 0.15914 0.0
C3225 C 0.28324 0.31418 0.20473 0.0
C3226 C 0.28279 0.32198 0.18908 0.0
H3227 H 0.28337 0.37932 0.12806 0.0
H3228 H 0.28473 0.36757 0.15315 0.0
H3229 H 0.29119 0.3164 0.15092 0.0
H3230 H 0.27954 0.27804 0.21859 0.0
H3231 H 0.27799 0.29067 0.19405 0.0
C3232 C 0.24721 0.9457 0.04072 0.0
C3233 C 0.24258 0.9307 0.03338 0.0
C3234 C 0.23631 0.95579 0.04135 0.0
C3235 C 0.19708 0.96212 0.02325 0.0
H3236 H 0.19809 0.98786 0.06189 0.0
C3237 C 0.14611 0.9942 0.03654 0.0
C3238 C 0.15021 0.00959 0.04303 0.0
C3239 C 0.15774 0.98506 0.03495 0.0
C3240 C 0.19778 0.98087 0.05096 0.0
H3241 H 0.2229 0.91449 0.02095 0.0
H3242 H 0.20377 0.93199 0.02224 0.0
H3243 H 0.21763 0.9709 0.05981 0.0
H3244 H 0.16985 0.02742 0.05286 0.0
H3245 H 0.19016 0.01133 0.05029 0.0
H3246 H 0.17701 0.97191 0.01456 0.0
C3247 C 0.21591 0.9361 0.02725 0.0
C3248 C 0.20899 0.97117 0.04974 0.0
C3249 C 0.22685 0.92604 0.02653 0.0
C3250 C 0.16625 0.01557 0.04799 0.0
C3251 C 0.17789 1.00637 0.04649 0.0
C3252 C 0.18582 0.97175 0.02451 0.0
C3253 C 0.22049 0.95107 0.03474 0.0
C3254 C 0.20875 0.96163 0.03589 0.0
C3255 C 0.17375 0.99104 0.03992 0.0
C3256 C 0.18601 0.98118 0.0384 0.0
H3257 H 0.25932 0.94968 0.0459 0.0
H3258 H 0.24033 0.96732 0.04694 0.0
H3259 H 0.19672 0.95515 0.01231 0.0
H3260 H 0.13385 0.98909 0.03291 0.0
H3261 H 0.15416 0.97321 0.03009 0.0
C3262 C 0.71555 0.61048 0.03124 0.0
C3263 C 0.7268 0.60285 0.02455 0.0
C3264 C 0.69973 0.60312 0.0316 0.0
C3265 C 0.67297 0.56382 0.02676 0.0
H3266 H 0.63968 0.5886 0.02479 0.0
C3267 C 0.60499 0.5363 0.02192 0.0
C3268 C 0.59487 0.54432 0.02992 0.0
C3269 C 0.62103 0.54293 0.02107 0.0
C3270 C 0.64877 0.58142 0.02555 0.0
H3271 H 0.72949 0.58098 0.01296 0.0
H3272 H 0.70204 0.5684 0.01317 0.0
H3273 H 0.66696 0.60082 0.02352 0.0
H3274 H 0.5942 0.56583 0.04338 0.0
H3275 H 0.62173 0.5772 0.04196 0.0
H3276 H 0.65459 0.54438 0.02861 0.0
C3277 C 0.70552 0.58011 0.01843 0.0
C3278 C 0.66462 0.58852 0.02484 0.0
C3279 C 0.7214 0.58749 0.01812 0.0
C3280 C 0.60143 0.55917 0.03707 0.0
C3281 C 0.61735 0.56581 0.03614 0.0
C3282 C 0.65706 0.5567 0.02738 0.0
C3283 C 0.6943 0.58777 0.02518 0.0
C3284 C 0.67714 0.57993 0.02555 0.0
C3285 C 0.62751 0.55791 0.02806 0.0
C3286 C 0.64462 0.56537 0.02692 0.0
H3287 H 0.71886 0.62233 0.03614 0.0
H3288 H 0.6918 0.60953 0.03714 0.0
H3289 H 0.68205 0.55665 0.02757 0.0
H3290 H 0.60051 0.52489 0.01619 0.0
H3291 H 0.62826 0.53641 0.01461 0.0
C3292 C 0.74858 0.48785 0.30867 0.0
C3293 C 0.73471 0.48375 0.31598 0.0
C3294 C 0.75843 0.47702 0.30604 0.0
C3295 C 0.76755 0.43973 0.31887 0.0
H3296 H 0.78095 0.43438 0.27719 0.0
C3297 C 0.78283 0.38275 0.29478 0.0
C3298 C 0.79574 0.38307 0.28587 0.0
C3299 C 0.7779 0.39642 0.29959 0.0
C3300 C 0.77756 0.43591 0.28897 0.0
H3301 H 0.72015 0.46497 0.32596 0.0
H3302 H 0.73729 0.44622 0.32148 0.0
H3303 H 0.76774 0.4561 0.28362 0.0
H3304 H 0.81373 0.39807 0.27522 0.0
H3305 H 0.80489 0.42204 0.28347 0.0
H3306 H 0.7769 0.41929 0.32408 0.0
C3307 C 0.74076 0.45787 0.31806 0.0
C3308 C 0.77 0.44834 0.29266 0.0
C3309 C 0.73093 0.46863 0.32063 0.0
C3310 C 0.80364 0.39743 0.28192 0.0
C3311 C 0.79862 0.41113 0.28667 0.0
C3312 C 0.77507 0.42733 0.31519 0.0
C3313 C 0.7546 0.46192 0.31073 0.0
C3314 C 0.76453 0.45011 0.3075 0.0
C3315 C 0.78569 0.41074 0.29554 0.0
C3316 C 0.77975 0.42505 0.30007 0.0
H3317 H 0.75189 0.49945 0.30509 0.0
H3318 H 0.76907 0.48048 0.30043 0.0
H3319 H 0.76376 0.44099 0.33052 0.0
H3320 H 0.77625 0.3719 0.29774 0.0
H3321 H 0.76768 0.39572 0.30613 0.0
C3322 C 0.89102 0.42709 0.54758 0.0
C3323 C 0.87845 0.43085 0.53756 0.0
C3324 C 0.90579 0.43678 0.54971 0.0
C3325 C 0.92546 0.4767 0.54526 0.0
H3326 H 0.96308 0.45813 0.54283 0.0
C3327 C 0.98496 0.51068 0.53165 0.0
C3328 C 0.99915 0.50682 0.53863 0.0
C3329 C 0.97034 0.5022 0.53414 0.0
C3330 C 0.95274 0.46351 0.54385 0.0
H3331 H 0.87159 0.44771 0.52186 0.0
H3332 H 0.89735 0.46462 0.5256 0.0
H3333 H 0.93727 0.44162 0.54195 0.0
H3334 H 1.00904 0.4915 0.5544 0.0
H3335 H 0.98344 0.47678 0.55886 0.0
H3336 H 0.9409 0.49861 0.54688 0.0
C3337 C 0.8957 0.45429 0.53198 0.0
C3338 C 0.93794 0.45404 0.5433 0.0
C3339 C 0.88095 0.44458 0.52982 0.0
C3340 C 0.99835 0.49472 0.54875 0.0
C3341 C 0.98368 0.48622 0.55124 0.0
C3342 C 0.94027 0.48618 0.54584 0.0
C3343 C 0.9083 0.45047 0.54191 0.0
C3344 C 0.92411 0.46053 0.54372 0.0
C3345 C 0.96953 0.48968 0.54371 0.0
C3346 C 0.95404 0.47969 0.54486 0.0
H3347 H 0.8894 0.41674 0.55394 0.0
H3348 H 0.91521 0.43362 0.55758 0.0
H3349 H 0.91505 0.48204 0.5459 0.0
H3350 H 0.98511 0.51995 0.52382 0.0
H3351 H 0.95969 0.50508 0.52802 0.0
C3352 C 0.4023 0.12991 0.25822 0.0
C3353 C 0.40804 0.12473 0.27258 0.0
C3354 C 0.38725 0.13396 0.25631 0.0
C3355 C 0.3564 0.14573 0.27878 0.0
H3356 H 0.32974 0.1347 0.23904 0.0
C3357 C 0.297 0.16595 0.26939 0.0
C3358 C 0.29564 0.17429 0.25592 0.0
C3359 C 0.30805 0.15602 0.27095 0.0
C3360 C 0.33704 0.13779 0.25022 0.0
H3361 H 0.4025 0.11961 0.29614 0.0
H3362 H 0.37628 0.12673 0.29284 0.0
H3363 H 0.35526 0.12593 0.24304 0.0
H3364 H 0.30377 0.17776 0.23294 0.0
H3365 H 0.32298 0.16047 0.23564 0.0
H3366 H 0.33848 0.15792 0.28584 0.0
C3367 C 0.38348 0.12788 0.28313 0.0
C3368 C 0.35167 0.13287 0.25247 0.0
C3369 C 0.39853 0.12388 0.28505 0.0
C3370 C 0.30444 0.1714 0.24342 0.0
C3371 C 0.31548 0.16149 0.24497 0.0
C3372 C 0.3418 0.15061 0.27654 0.0
C3373 C 0.37763 0.13284 0.26871 0.0
C3374 C 0.36163 0.13706 0.26667 0.0
C3375 C 0.31791 0.15428 0.25905 0.0
C3376 C 0.3321 0.14696 0.26213 0.0
H3377 H 0.40943 0.13074 0.24844 0.0
H3378 H 0.38319 0.13804 0.24516 0.0
H3379 H 0.36388 0.14929 0.28978 0.0
H3380 H 0.29014 0.16776 0.27909 0.0
H3381 H 0.30947 0.15036 0.2818 0.0
C3382 C 0.38883 0.09177 0.5218 0.0
C3383 C 0.38942 0.1071 0.52817 0.0
C3384 C 0.40241 0.08447 0.52277 0.0
C3385 C 0.44771 0.09268 0.53201 0.0
H3386 H 0.44271 0.04819 0.53289 0.0
C3387 C 0.50317 0.06117 0.54312 0.0
C3388 C 0.50261 0.0461 0.5361 0.0
C3389 C 0.48964 0.06855 0.54218 0.0
C3390 C 0.44451 0.06062 0.53247 0.0
H3391 H 0.40562 0.12634 0.54099 0.0
H3392 H 0.42886 0.11383 0.54273 0.0
H3393 H 0.41944 0.06068 0.5313 0.0
H3394 H 0.48668 0.02725 0.52245 0.0
H3395 H 0.46344 0.03992 0.52073 0.0
H3396 H 0.47281 0.0926 0.53326 0.0
C3397 C 0.41793 0.1074 0.5366 0.0
C3398 C 0.43093 0.06791 0.53153 0.0
C3399 C 0.40436 0.1147 0.5356 0.0
C3400 C 0.48785 0.03878 0.5281 0.0
C3401 C 0.47431 0.04612 0.52721 0.0
C3402 C 0.46129 0.08539 0.53299 0.0
C3403 C 0.41736 0.09208 0.5302 0.0
C3404 C 0.43213 0.08416 0.53125 0.0
C3405 C 0.47481 0.06121 0.53422 0.0
C3406 C 0.46008 0.06915 0.53323 0.0
H3407 H 0.37787 0.08535 0.51571 0.0
H3408 H 0.40114 0.07285 0.51735 0.0
H3409 H 0.44954 0.10511 0.53156 0.0
H3410 H 0.51414 0.06737 0.54943 0.0
H3411 H 0.49082 0.08001 0.54798 0.0
C3412 C 0.72311 0.62336 0.32743 0.0
C3413 C 0.70871 0.62007 0.33403 0.0
C3414 C 0.72969 0.63852 0.32516 0.0
C3415 C 0.71987 0.67588 0.31735 0.0
H3416 H 0.76492 0.68993 0.32893 0.0
C3417 C 0.75386 0.73486 0.30097 0.0
C3418 C 0.7685 0.734 0.29529 0.0
C3419 C 0.74562 0.72217 0.30763 0.0
C3420 C 0.75233 0.68617 0.32558 0.0
H3421 H 0.68997 0.63032 0.34345 0.0
H3422 H 0.70136 0.65692 0.33895 0.0
H3423 H 0.75224 0.66541 0.33748 0.0
H3424 H 0.78571 0.71899 0.29171 0.0
H3425 H 0.77133 0.69701 0.30298 0.0
H3426 H 0.72014 0.69635 0.30483 0.0
C3427 C 0.70752 0.64762 0.33571 0.0
C3428 C 0.74508 0.67218 0.33053 0.0
C3429 C 0.701 0.6324 0.33821 0.0
C3430 C 0.77455 0.72014 0.2961 0.0
C3431 C 0.76635 0.70754 0.3027 0.0
C3432 C 0.72717 0.68989 0.31228 0.0
C3433 C 0.72195 0.65078 0.32921 0.0
C3434 C 0.7289 0.66669 0.32608 0.0
C3435 C 0.75192 0.70845 0.30873 0.0
C3436 C 0.74359 0.6949 0.31593 0.0
H3437 H 0.72917 0.61419 0.32361 0.0
H3438 H 0.74069 0.64063 0.31983 0.0
H3439 H 0.70737 0.67184 0.31373 0.0
H3440 H 0.74891 0.74539 0.30052 0.0
H3441 H 0.73451 0.72319 0.31218 0.0
C3442 C 0.92113 0.48587 0.76952 0.0
C3443 C 0.91261 0.49815 0.77011 0.0
C3444 C 0.91315 0.47063 0.76673 0.0
C3445 C 0.87469 0.44716 0.77144 0.0
H3446 H 0.89166 0.41498 0.7493 0.0
C3447 C 0.84567 0.38307 0.76973 0.0
C3448 C 0.85632 0.37309 0.77389 0.0
C3449 C 0.8513 0.39815 0.76608 0.0
C3450 C 0.88679 0.42385 0.75551 0.0
H3451 H 0.88913 0.50423 0.76728 0.0
H3452 H 0.87519 0.47761 0.76225 0.0
H3453 H 0.90385 0.442 0.74842 0.0
H3454 H 0.88111 0.37074 0.77667 0.0
H3455 H 0.89094 0.39706 0.77049 0.0
H3456 H 0.85788 0.42902 0.77885 0.0
C3457 C 0.88801 0.47972 0.76429 0.0
C3458 C 0.89377 0.43932 0.75504 0.0
C3459 C 0.89599 0.49495 0.76716 0.0
C3460 C 0.87264 0.37826 0.77371 0.0
C3461 C 0.87826 0.39327 0.76998 0.0
C3462 C 0.86768 0.43172 0.77187 0.0
C3463 C 0.89648 0.46736 0.76439 0.0
C3464 C 0.88801 0.45112 0.76328 0.0
C3465 C 0.86768 0.40347 0.7664 0.0
C3466 C 0.87387 0.41988 0.76421 0.0
H3467 H 0.93393 0.48798 0.77191 0.0
H3468 H 0.92004 0.46138 0.7671 0.0
H3469 H 0.87008 0.45592 0.77812 0.0
H3470 H 0.83303 0.37941 0.76982 0.0
H3471 H 0.84287 0.40573 0.76324 0.0
C3472 C 0.06788 0.88388 0.10526 0.0
C3473 C 0.07077 0.88617 0.12178 0.0
C3474 C 0.06468 0.89597 0.09628 0.0
C3475 C 0.07167 0.93797 0.09724 0.0
H3476 H 0.03821 0.9318 0.0623 0.0
C3477 C 0.03975 0.97798 0.05274 0.0
C3478 C 0.05335 0.98699 0.04811 0.0
C3479 C 0.04104 0.96497 0.06111 0.0
C3480 C 0.04753 0.93367 0.07207 0.0
H3481 H 0.07247 0.90276 0.14189 0.0
H3482 H 0.06692 0.924 0.12614 0.0
H3483 H 0.04172 0.9105 0.07883 0.0
H3484 H 0.07885 0.98896 0.0479 0.0
H3485 H 0.081 0.96632 0.06243 0.0
H3486 H 0.07753 0.96108 0.09052 0.0
C3487 C 0.06719 0.91285 0.12018 0.0
C3488 C 0.0496 0.9215 0.08144 0.0
C3489 C 0.07027 0.90072 0.12918 0.0
C3490 C 0.06814 0.98237 0.05142 0.0
C3491 C 0.06942 0.96945 0.05981 0.0
C3492 C 0.06968 0.95007 0.08783 0.0
C3493 C 0.0644 0.91058 0.10365 0.0
C3494 C 0.06174 0.92354 0.09406 0.0
C3495 C 0.05595 0.96083 0.06501 0.0
C3496 C 0.05767 0.948 0.0751 0.0
H3497 H 0.06796 0.87269 0.0993 0.0
H3498 H 0.0627 0.89395 0.08355 0.0
H3499 H 0.08119 0.93981 0.10682 0.0
H3500 H 0.02819 0.98122 0.05033 0.0
H3501 H 0.03048 0.95849 0.06503 0.0
C3502 C 0.9467 0.20321 0.80313 0.0
C3503 C 0.94467 0.20175 0.81913 0.0
C3504 C 0.93374 0.20399 0.79216 0.0
C3505 C 0.90945 0.2228 0.77995 0.0
H3506 H 0.86559 0.20427 0.78176 0.0
C3507 C 0.85894 0.25701 0.77973 0.0
C3508 C 0.8443 0.25099 0.77102 0.0
C3509 C 0.87123 0.24847 0.78039 0.0
C3510 C 0.87778 0.20937 0.78082 0.0
H3511 H 0.92728 0.19824 0.83587 0.0
H3512 H 0.90474 0.19956 0.81681 0.0
H3513 H 0.88682 0.19098 0.79212 0.0
H3514 H 0.83109 0.23151 0.75586 0.0
H3515 H 0.85259 0.21636 0.75741 0.0
H3516 H 0.90045 0.24166 0.76964 0.0
C3517 C 0.91629 0.20006 0.81266 0.0
C3518 C 0.88991 0.20182 0.78681 0.0
C3519 C 0.92924 0.19932 0.82362 0.0
C3520 C 0.8423 0.23645 0.76262 0.0
C3521 C 0.85453 0.22777 0.76352 0.0
C3522 C 0.89736 0.23039 0.7741 0.0
C3523 C 0.91854 0.20326 0.79703 0.0
C3524 C 0.90585 0.20879 0.78704 0.0
C3525 C 0.86904 0.23367 0.77254 0.0
C3526 C 0.88146 0.22406 0.77512 0.0
H3527 H 0.95844 0.20476 0.79927 0.0
H3528 H 0.93576 0.20621 0.78012 0.0
H3529 H 0.92161 0.22857 0.78007 0.0
H3530 H 0.86081 0.2682 0.78626 0.0
H3531 H 0.88225 0.25319 0.7876 0.0
C3532 C 0.59336 0.24301 0.58912 0.0
C3533 C 0.57988 0.24958 0.59142 0.0
C3534 C 0.59231 0.2302 0.57841 0.0
C3535 C 0.56264 0.19728 0.56101 0.0
H3536 H 0.59844 0.18665 0.54122 0.0
C3537 C 0.56294 0.13508 0.53764 0.0
C3538 C 0.57605 0.12936 0.54475 0.0
C3539 C 0.56298 0.15098 0.53792 0.0
C3540 C 0.58829 0.18953 0.54654 0.0
H3541 H 0.55489 0.24838 0.5835 0.0
H3542 H 0.55322 0.22642 0.56441 0.0
H3543 H 0.59905 0.21328 0.55147 0.0
H3544 H 0.59979 0.13597 0.55701 0.0
H3545 H 0.5999 0.1636 0.55728 0.0
H3546 H 0.55212 0.17347 0.55656 0.0
C3547 C 0.56453 0.23094 0.57118 0.0
C3548 C 0.58865 0.20473 0.55248 0.0
C3549 C 0.56554 0.24366 0.58202 0.0
C3550 C 0.58956 0.13993 0.55125 0.0
C3551 C 0.58964 0.1558 0.5514 0.0
C3552 C 0.56222 0.18215 0.55494 0.0
C3553 C 0.57778 0.22375 0.56961 0.0
C3554 C 0.57611 0.20863 0.56037 0.0
C3555 C 0.57618 0.16146 0.54517 0.0
C3556 C 0.57529 0.178 0.54822 0.0
H3557 H 0.60467 0.2475 0.59591 0.0
H3558 H 0.60274 0.22492 0.57765 0.0
H3559 H 0.55284 0.19976 0.56716 0.0
H3560 H 0.55248 0.12726 0.53222 0.0
H3561 H 0.5525 0.15507 0.53292 0.0
C3562 C 0.58558 0.75687 0.32741 0.0
C3563 C 0.58735 0.75782 0.34398 0.0
C3564 C 0.59797 0.76335 0.31923 0.0
C3565 C 0.63542 0.79131 0.32348 0.0
H3566 H 0.64601 0.76523 0.2894 0.0
C3567 C 0.69667 0.79902 0.30067 0.0
C3568 C 0.69761 0.79479 0.28472 0.0
C3569 C 0.68204 0.79727 0.30665 0.0
C3570 C 0.64303 0.77283 0.29864 0.0
H3571 H 0.60339 0.76641 0.365 0.0
H3572 H 0.62511 0.77768 0.35067 0.0
H3573 H 0.62262 0.75659 0.30239 0.0
H3574 H 0.68382 0.78635 0.26232 0.0
H3575 H 0.65826 0.78375 0.27267 0.0
H3576 H 0.65608 0.80741 0.31992 0.0
C3577 C 0.61406 0.7721 0.34403 0.0
C3578 C 0.62965 0.76784 0.30612 0.0
C3579 C 0.60166 0.76561 0.35222 0.0
C3580 C 0.68352 0.78978 0.27465 0.0
C3581 C 0.66888 0.78811 0.28062 0.0
C3582 C 0.64881 0.79634 0.31595 0.0
C3583 C 0.61236 0.77093 0.32745 0.0
C3584 C 0.62585 0.7769 0.31878 0.0
C3585 C 0.66803 0.79133 0.29678 0.0
C3586 C 0.6529 0.78702 0.30362 0.0
H3587 H 0.57455 0.75125 0.32075 0.0
H3588 H 0.59627 0.76245 0.30645 0.0
H3589 H 0.63262 0.79861 0.33308 0.0
H3590 H 0.70731 0.80318 0.30866 0.0
H3591 H 0.68181 0.7998 0.31918 0.0
C3592 C 0.037 0.18649 0.45767 0.0
C3593 C 0.04866 0.19174 0.44769 0.0
C3594 C 0.03617 0.17199 0.4644 0.0
C3595 C 0.05092 0.13317 0.46126 0.0
H3596 H 0.03478 0.12803 0.50167 0.0
C3597 C 0.04069 0.07183 0.48813 0.0
C3598 C 0.04244 0.07098 0.5047 0.0
C3599 C 0.04131 0.08622 0.48114 0.0
C3600 C 0.03946 0.12909 0.49042 0.0
H3601 H 0.06853 0.18471 0.43717 0.0
H3602 H 0.06727 0.15999 0.44891 0.0
H3603 H 0.03643 0.15289 0.4902 0.0
H3604 H 0.04628 0.08542 0.52662 0.0
H3605 H 0.04738 0.11005 0.51469 0.0
H3606 H 0.05419 0.10942 0.46162 0.0
C3607 C 0.05855 0.16705 0.45151 0.0
C3608 C 0.04023 0.14355 0.48362 0.0
C3609 C 0.05941 0.18158 0.44483 0.0
C3610 C 0.04476 0.08526 0.51388 0.0
C3611 C 0.04531 0.0996 0.50691 0.0
C3612 C 0.05008 0.11868 0.46803 0.0
C3613 C 0.04691 0.16182 0.46152 0.0
C3614 C 0.04601 0.14605 0.46885 0.0
C3615 C 0.04364 0.10054 0.49034 0.0
C3616 C 0.04437 0.11621 0.48284 0.0
H3617 H 0.02847 0.19369 0.46053 0.0
H3618 H 0.02684 0.16871 0.47178 0.0
H3619 H 0.05529 0.13415 0.44986 0.0
H3620 H 0.03887 0.06133 0.48045 0.0
H3621 H 0.03974 0.08601 0.4684 0.0
C3622 C 0.62459 0.27052 0.19576 0.0
C3623 C 0.6176 0.28397 0.19627 0.0
C3624 C 0.64014 0.27049 0.20291 0.0
C3625 C 0.67327 0.29382 0.23194 0.0
H3626 H 0.69843 0.26592 0.21421 0.0
C3627 C 0.74087 0.29615 0.2546 0.0
C3628 C 0.7468 0.28213 0.25506 0.0
C3629 C 0.72532 0.29665 0.24763 0.0
C3630 C 0.69161 0.27371 0.21952 0.0
H3631 H 0.62229 0.30806 0.20531 0.0
H3632 H 0.64921 0.30814 0.21716 0.0
H3633 H 0.67174 0.26628 0.20196 0.0
H3634 H 0.74045 0.25756 0.24831 0.0
H3635 H 0.71372 0.25841 0.23632 0.0
H3636 H 0.69333 0.30136 0.24939 0.0
C3637 C 0.64258 0.2974 0.21141 0.0
C3638 C 0.67607 0.2739 0.21243 0.0
C3639 C 0.62699 0.29741 0.20431 0.0
C3640 C 0.73654 0.26865 0.24826 0.0
C3641 C 0.72108 0.26915 0.24121 0.0
C3642 C 0.68886 0.29369 0.23897 0.0
C3643 C 0.64957 0.28394 0.21088 0.0
C3644 C 0.66646 0.2839 0.21849 0.0
C3645 C 0.71509 0.28315 0.2407 0.0
C3646 C 0.69837 0.28357 0.23298 0.0
H3647 H 0.61815 0.25989 0.18961 0.0
H3648 H 0.64467 0.25973 0.20227 0.0
H3649 H 0.66646 0.30157 0.23732 0.0
H3650 H 0.74827 0.30683 0.25963 0.0
H3651 H 0.72143 0.30773 0.24745 0.0
C3652 C 0.54017 0.86144 0.95057 0.0
C3653 C 0.55483 0.85637 0.94952 0.0
C3654 C 0.53933 0.87656 0.95683 0.0
C3655 C 0.56283 0.9112 0.98234 0.0
H3656 H 0.5308 0.93301 0.96397 0.0
C3657 C 0.56158 0.97588 0.0048 0.0
C3658 C 0.54745 0.9821 1.00276 0.0
C3659 C 0.56254 0.96088 0.99829 0.0
C3660 C 0.53973 0.9272 0.9696 0.0
H3661 H 0.58019 0.86399 0.95481 0.0
H3662 H 0.57874 0.88999 0.96574 0.0
H3663 H 0.53219 0.90709 0.9533 0.0
H3664 H 0.5231 0.97663 0.9921 0.0
H3665 H 0.52449 0.95069 0.98135 0.0
H3666 H 0.57019 0.93101 0.99889 0.0
C3667 C 0.56776 0.88224 0.96166 0.0
C3668 C 0.54056 0.91209 0.96331 0.0
C3669 C 0.56861 0.86719 0.95518 0.0
C3670 C 0.53429 0.97254 0.99395 0.0
C3671 C 0.53517 0.95746 0.9876 0.0
C3672 C 0.56188 0.92623 0.98878 0.0
C3673 C 0.5531 0.88735 0.96259 0.0
C3674 C 0.55216 0.9037 0.96948 0.0
C3675 C 0.54934 0.95115 0.98954 0.0
C3676 C 0.55033 0.93474 0.98258 0.0
H3677 H 0.5292 0.85377 0.94631 0.0
H3678 H 0.52774 0.8797 0.95734 0.0
H3679 H 0.57184 0.90531 0.98775 0.0
H3680 H 0.57208 0.9827 0.01139 0.0
H3681 H 0.57386 0.95707 1.00004 0.0
C3682 C 0.95499 0.78904 0.7065 0.0
C3683 C 0.95649 0.77737 0.6949 0.0
C3684 C 0.94114 0.78858 0.71436 0.0
C3685 C 0.90263 0.76187 0.7213 0.0
H3686 H 0.89144 0.7998 0.73842 0.0
C3687 C 0.84106 0.76257 0.74621 0.0
C3688 C 0.8398 0.7732 0.7589 0.0
C3689 C 0.8552 0.76308 0.73887 0.0
C3690 C 0.89433 0.78899 0.73392 0.0
H3691 H 0.94354 0.75608 0.68262 0.0
H3692 H 0.91972 0.75537 0.69589 0.0
H3693 H 0.91523 0.80071 0.72502 0.0
H3694 H 0.85321 0.79288 0.77351 0.0
H3695 H 0.87768 0.79379 0.76086 0.0
H3696 H 0.8816 0.75019 0.73006 0.0
C3697 C 0.92942 0.76483 0.69935 0.0
C3698 C 0.90824 0.7895 0.72612 0.0
C3699 C 0.94332 0.76525 0.69156 0.0
C3700 C 0.85346 0.7844 0.76389 0.0
C3701 C 0.86761 0.78499 0.75645 0.0
C3702 C 0.88869 0.76138 0.729 0.0
C3703 C 0.92792 0.77646 0.71102 0.0
C3704 C 0.91281 0.77595 0.71955 0.0
C3705 C 0.86887 0.77433 0.74372 0.0
C3706 C 0.88413 0.77491 0.73553 0.0
H3707 H 0.96472 0.79854 0.70981 0.0
H3708 H 0.94103 0.79773 0.72334 0.0
H3709 H 0.90549 0.751 0.71692 0.0
H3710 H 0.83098 0.75377 0.74178 0.0
H3711 H 0.85524 0.75472 0.72908 0.0
C3712 C 0.11327 0.99011 0.88207 0.0
C3713 C 0.12847 0.99924 0.88442 0.0
C3714 C 0.10511 0.98595 0.89495 0.0
C3715 C 0.10968 0.98613 0.9388 0.0
H3716 H 0.06785 0.99744 0.93492 0.0
C3717 C 0.08424 0.01468 0.98941 0.0
C3718 C 0.06811 0.0106 0.99134 0.0
C3719 C 0.09043 0.00825 0.97665 0.0
C3720 C 0.07934 0.99387 0.93613 0.0
H3721 H 0.14731 0.01056 0.90209 0.0
H3722 H 0.13314 1.00343 0.92446 0.0
H3723 H 0.08127 0.99458 0.91144 0.0
H3724 H 0.04581 0.9964 0.98149 0.0
H3725 H 0.05666 0.98542 0.95882 0.0
H3726 H 0.10811 0.98646 0.96366 0.0
C3727 C 0.12756 0.99924 0.91273 0.0
C3728 C 0.08704 0.99219 0.92267 0.0
C3729 C 0.1357 1.00338 0.89989 0.0
C3730 C 0.0583 0.99979 0.9803 0.0
C3731 C 0.06448 0.9935 0.96736 0.0
C3732 C 0.10202 0.98789 0.95225 0.0
C3733 C 0.11202 0.99084 0.9104 0.0
C3734 C 0.10257 0.98897 0.92396 0.0
C3735 C 0.0806 0.99773 0.96542 0.0
C3736 C 0.08707 0.99242 0.95109 0.0
H3737 H 0.10752 0.9865 0.87027 0.0
H3738 H 0.09323 0.97931 0.8928 0.0
H3739 H 0.12151 0.98331 0.94011 0.0
H3740 H 0.09214 0.02296 0.99769 0.0
H3741 H 0.10284 0.01195 0.97529 0.0
C3742 C 0.81602 0.3435 0.61943 0.0
C3743 C 0.80481 0.33589 0.60719 0.0
C3744 C 0.81735 0.33753 0.6342 0.0
C3745 C 0.80678 0.30208 0.65505 0.0
H3746 H 0.81188 0.33113 0.69188 0.0
C3747 C 0.79663 0.28285 0.71707 0.0
C3748 C 0.80742 0.29 0.72987 0.0
C3749 C 0.79721 0.28832 0.70209 0.0
C3750 C 0.81066 0.32289 0.68172 0.0
H3751 H 0.78638 0.31593 0.60075 0.0
H3752 H 0.78855 0.30554 0.62665 0.0
H3753 H 0.81122 0.34067 0.66563 0.0
H3754 H 0.82726 0.30858 0.73696 0.0
H3755 H 0.82825 0.31816 0.7107 0.0
H3756 H 0.80595 0.28428 0.67119 0.0
C3757 C 0.79649 0.31602 0.62476 0.0
C3758 C 0.8103 0.32835 0.66667 0.0
C3759 C 0.79521 0.32196 0.60992 0.0
C3760 C 0.81879 0.3028 0.72735 0.0
C3761 C 0.81931 0.30833 0.71233 0.0
C3762 C 0.80708 0.29662 0.6701 0.0
C3763 C 0.80745 0.32384 0.63713 0.0
C3764 C 0.80827 0.318 0.65314 0.0
C3765 C 0.80855 0.30111 0.69954 0.0
C3766 C 0.80893 0.30696 0.6836 0.0
H3767 H 0.82378 0.35411 0.61758 0.0
H3768 H 0.82615 0.34367 0.64335 0.0
H3769 H 0.80547 0.29381 0.64491 0.0
H3770 H 0.7877 0.27297 0.71856 0.0
H3771 H 0.78861 0.28265 0.69253 0.0
C3772 C 0.50227 0.05371 0.37487 0.0
C3773 C 0.50208 0.06947 0.37324 0.0
C3774 C 0.50987 0.04891 0.38839 0.0
C3775 C 0.53868 0.06248 0.42348 0.0
H3776 H 0.51539 0.02732 0.44147 0.0
C3777 C 0.54829 0.04923 0.48856 0.0
C3778 C 0.54624 0.03369 0.49221 0.0
C3779 C 0.54595 0.05296 0.47296 0.0
C3780 C 0.52222 0.03695 0.43645 0.0
H3781 H 0.50997 0.09264 0.38424 0.0
H3782 H 0.52299 0.08422 0.40823 0.0
H3783 H 0.50502 0.03533 0.41637 0.0
H3784 H 0.54126 0.00988 0.4823 0.0
H3785 H 0.53721 0.01645 0.45501 0.0
H3786 H 0.55563 0.06434 0.44397 0.0
C3787 C 0.51746 0.0756 0.3989 0.0
C3788 C 0.51626 0.04157 0.42207 0.0
C3789 C 0.50994 0.08041 0.38526 0.0
C3790 C 0.54277 0.02197 0.47988 0.0
C3791 C 0.5404 0.02571 0.46427 0.0
C3792 C 0.54464 0.05787 0.43794 0.0
C3793 C 0.51735 0.05977 0.40066 0.0
C3794 C 0.52431 0.05448 0.41551 0.0
C3795 C 0.5415 0.04123 0.46071 0.0
C3796 C 0.53635 0.04517 0.44464 0.0
H3797 H 0.49664 0.04506 0.36559 0.0
H3798 H 0.50986 0.03667 0.38925 0.0
H3799 H 0.54526 0.07234 0.41859 0.0
H3800 H 0.55109 0.05854 0.49779 0.0
H3801 H 0.54676 0.06502 0.47059 0.0
C3802 C 0.82598 0.69943 0.1191 0.0
C3803 C 0.81278 0.69603 0.10742 0.0
C3804 C 0.82479 0.70621 0.1343 0.0
C3805 C 0.79823 0.72751 0.15744 0.0
H3806 H 0.82434 0.71765 0.19379 0.0
C3807 C 0.7886 0.74814 0.22204 0.0
C3808 C 0.80171 0.75176 0.23376 0.0
C3809 C 0.79005 0.7415 0.20687 0.0
C3810 C 0.81703 0.72078 0.18383 0.0
H3811 H 0.78786 0.69776 0.10326 0.0
H3812 H 0.78573 0.70907 0.12944 0.0
H3813 H 0.82664 0.70617 0.16766 0.0
H3814 H 0.8268 0.75097 0.23815 0.0
H3815 H 0.82935 0.73961 0.21194 0.0
H3816 H 0.7886 0.74209 0.17361 0.0
C3817 C 0.79717 0.70665 0.12687 0.0
C3818 C 0.81837 0.71411 0.16864 0.0
C3819 C 0.79836 0.69986 0.1117 0.0
C3820 C 0.81634 0.7484 0.22963 0.0
C3821 C 0.81778 0.74172 0.21447 0.0
C3822 C 0.79687 0.73416 0.17263 0.0
C3823 C 0.81034 0.70999 0.13859 0.0
C3824 C 0.80899 0.71728 0.15504 0.0
C3825 C 0.80468 0.73812 0.20268 0.0
C3826 C 0.80622 0.73096 0.18623 0.0
H3827 H 0.83731 0.69664 0.11664 0.0
H3828 H 0.83536 0.70865 0.14264 0.0
H3829 H 0.79093 0.73068 0.14751 0.0
H3830 H 0.77709 0.75043 0.22456 0.0
H3831 H 0.77952 0.73881 0.19847 0.0
C3832 C 0.10453 0.03587 0.73601 0.0
C3833 C 0.10383 0.0247 0.74714 0.0
C3834 C 0.09219 0.03527 0.72401 0.0
C3835 C 0.05964 0.00867 0.70096 0.0
H3836 H 0.04929 0.04714 0.68646 0.0
C3837 C 0.02591 0.03658 0.64488 0.0
C3838 C 0.03202 0.02862 0.63283 0.0
C3839 C 0.02933 0.03359 0.66064 0.0
C3840 C 0.05165 0.03621 0.6905 0.0
H3841 H 0.08958 1.00417 0.75448 0.0
H3842 H 0.06794 1.00308 0.73332 0.0
H3843 H 0.06592 0.04743 0.71116 0.0
H3844 H 0.04548 0.0105 0.62773 0.0
H3845 H 0.05165 1.0055 0.65502 0.0
H3846 H 0.04552 0.99748 0.68012 0.0
C3847 C 0.07812 0.01225 0.7339 0.0
C3848 C 0.06142 0.03642 0.70457 0.0
C3849 C 0.09052 0.01285 0.74595 0.0
C3850 C 0.04047 0.01674 0.63672 0.0
C3851 C 0.04399 0.01385 0.65244 0.0
C3852 C 0.04975 0.00843 0.68689 0.0
C3853 C 0.07881 0.0235 0.72283 0.0
C3854 C 0.06609 0.02276 0.70959 0.0
C3855 C 0.03906 0.02271 0.66464 0.0
C3856 C 0.0462 0.02229 0.68116 0.0
H3857 H 0.11475 0.04497 0.73643 0.0
H3858 H 0.0933 0.04388 0.71542 0.0
H3859 H 0.06298 0.99793 0.70454 0.0
H3860 H 0.01914 0.04563 0.64218 0.0
H3861 H 0.02504 0.04038 0.66973 0.0
C3862 C 0.79589 0.34249 0.43816 0.0
C3863 C 0.78657 0.33474 0.44882 0.0
C3864 C 0.79386 0.3374 0.42219 0.0
C3865 C 0.77953 0.3033 0.39468 0.0
H3866 H 0.78006 0.33358 0.36338 0.0
C3867 C 0.77379 0.28567 0.32761 0.0
C3868 C 0.78426 0.29487 0.31892 0.0
C3869 C 0.77203 0.29044 0.34317 0.0
C3870 C 0.78 0.32498 0.37196 0.0
H3871 H 0.76783 0.3155 0.4511 0.0
H3872 H 0.7643 0.30651 0.42306 0.0
H3873 H 0.78102 0.34193 0.39121 0.0
H3874 H 0.80083 0.31648 0.31972 0.0
H3875 H 0.79793 0.32462 0.34672 0.0
H3876 H 0.77896 0.2864 0.37548 0.0
C3877 C 0.7732 0.31654 0.42714 0.0
C3878 C 0.78053 0.32976 0.38791 0.0
C3879 C 0.77515 0.32174 0.44314 0.0
C3880 C 0.79264 0.30908 0.32602 0.0
C3881 C 0.79089 0.31383 0.34152 0.0
C3882 C 0.77909 0.29851 0.37871 0.0
C3883 C 0.78249 0.32438 0.41648 0.0
C3884 C 0.78058 0.31903 0.39947 0.0
C3885 C 0.78067 0.30452 0.35036 0.0
C3886 C 0.77961 0.30934 0.36717 0.0
H3887 H 0.80466 0.35265 0.44212 0.0
H3888 H 0.80132 0.34358 0.41432 0.0
H3889 H 0.77966 0.29478 0.40333 0.0
H3890 H 0.76713 0.27467 0.32251 0.0
H3891 H 0.76392 0.28308 0.34958 0.0
C3892 C 0.52709 0.06369 0.22347 0.0
C3893 C 0.53434 0.06875 0.23875 0.0
C3894 C 0.53538 0.05686 0.21266 0.0
C3895 C 0.56988 0.05538 0.19662 0.0
H3896 H 0.55394 0.01181 0.18531 0.0
C3897 C 0.58453 0.02625 0.13963 0.0
C3898 C 0.57087 0.01846 0.13023 0.0
C3899 C 0.58406 0.03005 0.15566 0.0
C3900 C 0.55863 0.02393 0.1884 0.0
H3901 H 0.55609 0.07119 0.25458 0.0
H3902 H 0.57085 0.05946 0.23524 0.0
H3903 H 0.54561 0.02451 0.20847 0.0
H3904 H 0.54644 1.00745 0.13043 0.0
H3905 H 0.54542 0.01442 0.15817 0.0
H3906 H 0.58178 0.05528 0.17585 0.0
C3907 C 0.55868 0.06071 0.23188 0.0
C3908 C 0.55396 0.03112 0.20168 0.0
C3909 C 0.55028 0.06739 0.24284 0.0
C3910 C 0.55706 0.01367 0.13735 0.0
C3911 C 0.55657 0.01748 0.15332 0.0
C3912 C 0.57444 0.04823 0.18322 0.0
C3913 C 0.5511 0.05512 0.21688 0.0
C3914 C 0.55911 0.04698 0.20551 0.0
C3915 C 0.56992 0.02613 0.16255 0.0
C3916 C 0.56829 0.03259 0.17859 0.0
H3917 H 0.51475 0.06433 0.2201 0.0
H3918 H 0.52942 0.05262 0.20107 0.0
H3919 H 0.57383 0.06768 0.19938 0.0
H3920 H 0.59535 0.03013 0.13445 0.0
H3921 H 0.59457 0.03656 0.1625 0.0
C3922 C 0.81114 0.70947 0.94241 0.0
C3923 C 0.81209 0.69364 0.94338 0.0
C3924 C 0.81038 0.7163 0.92776 0.0
C3925 C 0.80119 0.70684 0.88347 0.0
H3926 H 0.82234 0.74889 0.88098 0.0
C3927 C 0.80286 0.73484 0.82216 0.0
C3928 C 0.80427 0.75104 0.82157 0.0
C3929 C 0.80409 0.72785 0.83671 0.0
C3930 C 0.81607 0.73721 0.88128 0.0
H3931 H 0.81267 0.67276 0.92883 0.0
H3932 H 0.81133 0.68451 0.90359 0.0
H3933 H 0.82359 0.73716 0.90608 0.0
H3934 H 0.80794 0.77234 0.83653 0.0
H3935 H 0.80969 0.76039 0.8615 0.0
H3936 H 0.79341 0.70691 0.85878 0.0
C3937 C 0.81117 0.69175 0.91423 0.0
C3938 C 0.81685 0.73037 0.89592 0.0
C3939 C 0.81212 0.68497 0.9289 0.0
C3940 C 0.80695 0.75989 0.83622 0.0
C3941 C 0.80805 0.75291 0.85076 0.0
C3942 C 0.80027 0.71372 0.86884 0.0
C3943 C 0.81033 0.70761 0.91328 0.0
C3944 C 0.80945 0.715 0.8974 0.0
C3945 C 0.80664 0.73668 0.85145 0.0
C3946 C 0.80769 0.72912 0.86731 0.0
H3947 H 0.8112 0.71676 0.95307 0.0
H3948 H 0.8096 0.72846 0.92781 0.0
H3949 H 0.79508 0.6951 0.88386 0.0
H3950 H 0.80074 0.72745 0.81131 0.0
H3951 H 0.80314 0.71541 0.83627 0.0
C3952 C 0.85101 0.10624 0.01947 0.0
C3953 C 0.854 0.12219 0.01757 0.0
C3954 C 0.863 0.0974 0.01839 0.0
C3955 C 0.90086 0.09714 1.00184 0.0
H3956 H 0.90664 0.06641 0.03169 0.0
C3957 C 0.95538 0.06661 0.00573 0.0
C3958 C 0.95304 0.05085 0.00858 0.0
C3959 C 0.94305 0.07506 0.00642 0.0
C3960 C 0.90505 0.07479 0.02312 0.0
H3961 H 0.8719 0.14137 0.01302 0.0
H3962 H 0.89287 0.12598 0.01132 0.0
H3963 H 0.88567 0.0817 0.03394 0.0
H3964 H 0.93583 0.0316 0.01429 0.0
H3965 H 0.9142 0.04626 0.01511 0.0
H3966 H 0.92018 0.09022 0.99097 0.0
C3967 C 0.88123 0.12029 0.01353 0.0
C3968 C 0.89305 0.08357 0.02444 0.0
C3969 C 0.86927 0.12914 0.01468 0.0
C3970 C 0.938 0.04368 0.01189 0.0
C3971 C 0.92565 0.05213 0.01256 0.0
C3972 C 0.91282 0.08833 1.00049 0.0
C3973 C 0.87821 0.10431 0.01531 0.0
C3974 C 0.89086 0.09488 0.01385 0.0
C3975 C 0.92806 0.06795 0.00995 0.0
C3976 C 0.9151 0.07708 0.01115 0.0
H3977 H 0.83941 0.10059 0.02186 0.0
H3978 H 0.86027 0.0851 0.01971 0.0
H3979 H 0.8993 0.10559 0.99334 0.0
H3980 H 0.96676 0.07245 1.00296 0.0
H3981 H 0.94537 0.08726 1.0045 0.0
C3982 C 0.37263 0.44512 0.01787 0.0
C3983 C 0.36401 0.44837 0.03056 0.0
C3984 C 0.38839 0.4526 0.01721 0.0
C3985 C 0.42431 0.47463 0.04242 0.0
H3986 H 0.43835 0.48696 1.00262 0.0
C3987 C 0.48737 0.51098 0.04043 0.0
C3988 C 0.49552 0.50962 0.02701 0.0
C3989 C 0.47145 0.50383 0.0405 0.0
C3990 C 0.43486 0.48345 0.01387 0.0
H3991 H 0.36602 0.46263 0.05252 0.0
H3992 H 0.39331 0.47523 0.05153 0.0
H3993 H 0.41113 0.47402 1.00351 0.0
H3994 H 0.49275 0.49941 1.00302 0.0
H3995 H 0.46525 0.48665 1.00319 0.0
H3996 H 0.44799 0.48363 0.0528 0.0
C3997 C 0.38784 0.46676 0.04204 0.0
C3998 C 0.41905 0.47599 0.01438 0.0
C3999 C 0.37202 0.4594 0.04263 0.0
C4000 C 0.48699 0.5009 0.01357 0.0
C4001 C 0.47104 0.49357 0.01368 0.0
C4002 C 0.44014 0.48192 0.0419 0.0
C4003 C 0.39636 0.46356 0.0293 0.0
C4004 C 0.41341 0.47149 0.02869 0.0
C4005 C 0.46291 0.49477 0.02721 0.0
C4006 C 0.44581 0.48662 0.02763 0.0
H4007 H 0.36736 0.43653 0.00843 0.0
H4008 H 0.39445 0.44952 0.0073 0.0
H4009 H 0.42071 0.47117 0.05366 0.0
H4010 H 0.49333 0.51762 0.05104 0.0
H4011 H 0.46584 0.50557 0.05108 0.0
C4012 C 0.32853 0.56454 0.74024 0.0
C4013 C 0.34261 0.56627 0.733 0.0
C4014 C 0.32233 0.57754 0.74508 0.0
C4015 C 0.33548 0.61758 0.75912 0.0
H4016 H 0.29213 0.62337 0.74822 0.0
C4017 C 0.31626 0.67615 0.77089 0.0
C4018 C 0.30083 0.67653 0.77477 0.0
C4019 C 0.32083 0.66216 0.76658 0.0
C4020 C 0.3042 0.62182 0.75163 0.0
H4021 H 0.3611 0.58282 0.72488 0.0
H4022 H 0.35033 0.60551 0.73345 0.0
H4023 H 0.30063 0.59972 0.73854 0.0
H4024 H 0.27822 0.66238 0.77748 0.0
H4025 H 0.28644 0.63788 0.77064 0.0
H4026 H 0.33911 0.63938 0.77246 0.0
C4027 C 0.34407 0.59412 0.7353 0.0
C4028 C 0.30905 0.60832 0.74599 0.0
C4029 C 0.35013 0.58116 0.73026 0.0
C4030 C 0.29024 0.66251 0.7747 0.0
C4031 C 0.29488 0.64847 0.77054 0.0
C4032 C 0.3306 0.63094 0.76494 0.0
C4033 C 0.33029 0.59242 0.74298 0.0
C4034 C 0.3248 0.60625 0.74948 0.0
C4035 C 0.31018 0.64814 0.76625 0.0
C4036 C 0.31498 0.63336 0.76104 0.0
H4037 H 0.32253 0.55316 0.74246 0.0
H4038 H 0.31169 0.57599 0.75101 0.0
H4039 H 0.34763 0.61608 0.76219 0.0
H4040 H 0.32481 0.68669 0.77106 0.0
H4041 H 0.33264 0.66241 0.76315 0.0
C4042 C 0.20228 0.60888 0.51691 0.0
C4043 C 0.20734 0.61826 0.50496 0.0
C4044 C 0.18783 0.59875 0.51458 0.0
C4045 C 0.14851 0.59269 0.49309 0.0
H4046 H 0.14632 0.55121 0.50691 0.0
C4047 C 0.08863 0.5517 0.49464 0.0
C4048 C 0.08728 0.54458 0.50889 0.0
C4049 C 0.10341 0.55915 0.49109 0.0
C4050 C 0.14671 0.56276 0.50301 0.0
H4051 H 0.20101 0.62428 0.48113 0.0
H4052 H 0.17542 0.60681 0.47729 0.0
H4053 H 0.17207 0.56758 0.50661 0.0
H4054 H 0.10052 0.53922 0.53028 0.0
H4055 H 0.12601 0.55224 0.52421 0.0
H4056 H 0.12311 0.58813 0.49019 0.0
C4057 C 0.18282 0.60732 0.48841 0.0
C4058 C 0.16145 0.5721 0.50281 0.0
C4059 C 0.19742 0.61737 0.49066 0.0
C4060 C 0.10107 0.54461 0.51922 0.0
C4061 C 0.11576 0.55198 0.51566 0.0
C4062 C 0.13371 0.58335 0.49339 0.0
C4063 C 0.17796 0.59785 0.50033 0.0
C4064 C 0.16248 0.5873 0.4983 0.0
C4065 C 0.11711 0.55951 0.50167 0.0
C4066 C 0.13266 0.56845 0.49882 0.0
H4067 H 0.20937 0.60951 0.52821 0.0
H4068 H 0.18422 0.59182 0.5241 0.0
H4069 H 0.14897 0.60439 0.48961 0.0
H4070 H 0.07825 0.55187 0.48641 0.0
H4071 H 0.10409 0.56476 0.48015 0.0
C4072 C 0.67875 0.92651 0.77501 0.0
C4073 C 0.66501 0.92189 0.78237 0.0
C4074 C 0.69207 0.91961 0.77809 0.0
C4075 C 0.71198 0.89823 0.80727 0.0
H4076 H 0.73385 0.88659 0.77209 0.0
C4077 C 0.7611 0.86058 0.81246 0.0
C4078 C 0.77353 0.86366 0.803 0.0
C4079 C 0.74849 0.86875 0.81112 0.0
C4080 C 0.72805 0.89001 0.78208 0.0
H4081 H 0.65454 0.90644 0.79884 0.0
H4082 H 0.67799 0.89436 0.80429 0.0
H4083 H 0.71017 0.8981 0.76718 0.0
H4084 H 0.78307 0.87831 0.78547 0.0
H4085 H 0.76119 0.8928 0.78332 0.0
H4086 H 0.72993 0.89013 0.82217 0.0
C4087 C 0.67837 0.9034 0.79617 0.0
C4088 C 0.71444 0.89653 0.77925 0.0
C4089 C 0.66497 0.91028 0.79303 0.0
C4090 C 0.77353 0.87559 0.79276 0.0
C4091 C 0.76098 0.88382 0.79148 0.0
C4092 C 0.72567 0.89174 0.81011 0.0
C4093 C 0.69203 0.90799 0.78869 0.0
C4094 C 0.70627 0.90073 0.7918 0.0
C4095 C 0.7481 0.88019 0.80033 0.0
C4096 C 0.73387 0.88758 0.79754 0.0
H4097 H 0.67937 0.93573 0.76709 0.0
H4098 H 0.70253 0.92359 0.77238 0.0
H4099 H 0.70602 0.90153 0.81718 0.0
H4100 H 0.76068 0.8513 0.8203 0.0
H4101 H 0.73869 0.86556 0.81799 0.0
C4102 C 0.68347 0.93145 0.5351 0.0
C4103 C 0.69866 0.94029 0.53416 0.0
C4104 C 0.66969 0.93835 0.53543 0.0
C4105 C 0.65609 0.97708 0.54251 0.0
H4106 H 0.61532 0.95489 0.52348 0.0
C4107 C 0.59999 0.00771 0.53738 0.0
C4108 C 0.58453 0.99912 0.53715 0.0
C4109 C 0.6135 1.00047 0.53701 0.0
C4110 C 0.62648 0.96133 0.5291 0.0
H4111 H 0.71034 0.96391 0.53256 0.0
H4112 H 0.68675 0.97573 0.5333 0.0
H4113 H 0.63884 0.94284 0.52291 0.0
H4114 H 0.57175 0.97566 0.53633 0.0
H4115 H 0.59508 0.9631 0.53597 0.0
H4116 H 0.64382 0.99548 0.54888 0.0
C4117 C 0.68547 0.96334 0.53401 0.0
C4118 C 0.64019 0.95431 0.52875 0.0
C4119 C 0.69923 0.95644 0.5336 0.0
C4120 C 0.58327 0.98285 0.5365 0.0
C4121 C 0.59684 0.97558 0.53618 0.0
C4122 C 0.64239 0.98406 0.54294 0.0
C4123 C 0.67031 0.95449 0.53493 0.0
C4124 C 0.65539 0.96201 0.53539 0.0
C4125 C 0.61236 0.98419 0.53646 0.0
C4126 C 0.62718 0.97643 0.53618 0.0
H4127 H 0.68214 0.91908 0.53589 0.0
H4128 H 0.65853 0.93092 0.5364 0.0
H4129 H 0.66728 0.98351 0.5481 0.0
H4130 H 0.60173 0.02021 0.53778 0.0
H4131 H 0.62489 0.0078 0.53691 0.0
C4132 C 0.35916 0.41542 0.70159 0.0
C4133 C 0.37425 0.42392 0.70695 0.0
C4134 C 0.355 0.40013 0.70534 0.0
C4135 C 0.36447 0.37598 0.73697 0.0
H4136 H 0.33588 0.34367 0.71067 0.0
C4137 C 0.33862 0.31828 0.76122 0.0
C4138 C 0.32232 0.31311 0.75691 0.0
C4139 C 0.34681 0.33037 0.75374 0.0
C4140 C 0.34383 0.35261 0.71817 0.0
H4141 H 0.39713 0.42274 0.71961 0.0
H4142 H 0.38994 0.396 0.7259 0.0
H4143 H 0.34727 0.36717 0.6991 0.0
H4144 H 0.30187 0.31656 0.74134 0.0
H4145 H 0.31603 0.33776 0.7286 0.0
H4146 H 0.36061 0.36175 0.75616 0.0
C4147 C 0.38127 0.40122 0.71897 0.0
C4148 C 0.35037 0.36602 0.71153 0.0
C4149 C 0.38544 0.41648 0.7152 0.0
C4150 C 0.31443 0.32022 0.74493 0.0
C4151 C 0.32258 0.3323 0.73751 0.0
C4152 C 0.35789 0.3626 0.74362 0.0
C4153 C 0.36584 0.39307 0.71455 0.0
C4154 C 0.36052 0.37798 0.72094 0.0
C4155 C 0.33886 0.33754 0.74182 0.0
C4156 C 0.34722 0.35091 0.73437 0.0
H4157 H 0.35035 0.42079 0.69506 0.0
H4158 H 0.34299 0.39418 0.70182 0.0
H4159 H 0.37205 0.38508 0.7446 0.0
H4160 H 0.34509 0.31294 0.77031 0.0
H4161 H 0.35938 0.33406 0.75724 0.0
C4162 C 0.18382 0.55175 0.25276 0.0
C4163 C 0.16718 0.54928 0.25177 0.0
C4164 C 0.19245 0.56673 0.2534 0.0
C4165 C 0.18895 0.60706 0.24583 0.0
H4166 H 0.22597 0.61709 0.27681 0.0
C4167 C 0.22181 0.66968 0.26049 0.0
C4168 C 0.2384 0.67173 0.26105 0.0
C4169 C 0.21288 0.65484 0.26013 0.0
C4170 C 0.21572 0.61444 0.26803 0.0
H4171 H 0.14656 0.5606 0.25046 0.0
H4172 H 0.16161 0.58668 0.25148 0.0
H4173 H 0.21106 0.5908 0.27349 0.0
H4174 H 0.25871 0.66 0.2625 0.0
H4175 H 0.24314 0.63413 0.26172 0.0
H4176 H 0.19364 0.63071 0.24036 0.0
C4177 C 0.16798 0.57704 0.25156 0.0
C4178 C 0.20723 0.59937 0.26608 0.0
C4179 C 0.15935 0.56208 0.25092 0.0
C4180 C 0.24592 0.65874 0.26189 0.0
C4181 C 0.23701 0.64394 0.26158 0.0
C4182 C 0.19745 0.62214 0.24779 0.0
C4183 C 0.18463 0.57955 0.25308 0.0
C4184 C 0.19378 0.59551 0.25492 0.0
C4185 C 0.22038 0.6418 0.26042 0.0
C4186 C 0.21096 0.62597 0.25887 0.0
H4187 H 0.19016 0.5421 0.25327 0.0
H4188 H 0.20527 0.56829 0.25428 0.0
H4189 H 0.17873 0.6044 0.23702 0.0
H4190 H 0.21571 0.67948 0.25975 0.0
H4191 H 0.20009 0.65355 0.25944 0.0
C4192 C 0.51226 0.66109 0.44695 0.0
C4193 C 0.52453 0.67103 0.44115 0.0
C4194 C 0.51575 0.65087 0.45817 0.0
C4195 C 0.54698 0.62983 0.47156 0.0
H4196 H 0.52207 0.62123 0.50643 0.0
C4197 C 0.55821 0.58289 0.5135 0.0
C4198 C 0.54456 0.57305 0.51693 0.0
C4199 C 0.55691 0.59647 0.50616 0.0
C4200 C 0.52908 0.62347 0.4967 0.0
H4201 H 0.55001 0.67862 0.44309 0.0
H4202 H 0.5561 0.66057 0.46253 0.0
H4203 H 0.51756 0.6423 0.49007 0.0
H4204 H 0.51889 0.56992 0.51564 0.0
H4205 H 0.51662 0.59333 0.50254 0.0
H4206 H 0.55813 0.61072 0.47778 0.0
C4207 C 0.54381 0.66058 0.45825 0.0
C4208 C 0.52651 0.63552 0.48738 0.0
C4209 C 0.54032 0.67084 0.44709 0.0
C4210 C 0.52964 0.5772 0.51312 0.0
C4211 C 0.52834 0.59072 0.50574 0.0
C4212 C 0.5495 0.61773 0.48082 0.0
C4213 C 0.53157 0.65039 0.46375 0.0
C4214 C 0.53526 0.63864 0.47457 0.0
C4215 C 0.54194 0.60045 0.50208 0.0
C4216 C 0.54037 0.61425 0.49331 0.0
H4217 H 0.49999 0.66087 0.44249 0.0
H4218 H 0.5061 0.64298 0.46206 0.0
H4219 H 0.55377 0.63187 0.46164 0.0
H4220 H 0.5699 0.58009 0.51639 0.0
H4221 H 0.56762 0.60385 0.50365 0.0
C4222 C 0.66772 0.32251 0.71848 0.0
C4223 C 0.65237 0.31565 0.7212 0.0
C4224 C 0.68062 0.32247 0.72974 0.0
C4225 C 0.69383 0.29811 0.7585 0.0
H4226 H 0.7292 0.33184 0.76909 0.0
C4227 C 0.75319 0.28534 0.78531 0.0
C4228 C 0.76631 0.2925 0.77833 0.0
C4229 C 0.73883 0.2908 0.78339 0.0
C4230 C 0.71945 0.32229 0.76623 0.0
H4231 H 0.63845 0.30428 0.73841 0.0
H4232 H 0.66116 0.30367 0.75779 0.0
H4233 H 0.7043 0.3369 0.75577 0.0
H4234 H 0.77506 0.31147 0.76467 0.0
H4235 H 0.74994 0.32054 0.76064 0.0
H4236 H 0.70909 0.28323 0.76765 0.0
C4237 C 0.6631 0.30909 0.74692 0.0
C4238 C 0.70519 0.32522 0.7587 0.0
C4239 C 0.65015 0.30932 0.73575 0.0
C4240 C 0.76512 0.30573 0.77018 0.0
C4241 C 0.75069 0.311 0.76799 0.0
C4242 C 0.70813 0.29512 0.76576 0.0
C4243 C 0.67847 0.31543 0.74388 0.0
C4244 C 0.69243 0.31307 0.75438 0.0
C4245 C 0.73722 0.30331 0.77415 0.0
C4246 C 0.7213 0.30709 0.76926 0.0
H4247 H 0.66994 0.32731 0.70736 0.0
H4248 H 0.6924 0.32721 0.72701 0.0
H4249 H 0.68422 0.28851 0.75512 0.0
H4250 H 0.75388 0.27526 0.79189 0.0
H4251 H 0.72884 0.28484 0.78867 0.0
C4252 C 1.00022 0.3185 0.91355 0.0
C4253 C 1.00046 0.30601 0.92306 0.0
C4254 C 1.00076 0.33341 0.92039 0.0
C4255 C 0.99437 0.35494 0.95683 0.0
H4256 H 0.02514 0.38775 0.94362 0.0
C4257 C 1.01382 0.41249 0.9939 0.0
C4258 C 0.01519 0.42611 0.98595 0.0
C4259 C 1.01175 0.39811 0.98551 0.0
C4260 C 0.01635 0.37877 0.94729 0.0
H4261 H 1.00076 0.29915 0.94705 0.0
H4262 H 1.00177 0.32518 0.959 0.0
H4263 H 0.02093 0.36202 0.92993 0.0
H4264 H 0.01584 0.43541 0.96302 0.0
H4265 H 1.01218 0.41018 0.94828 0.0
H4266 H 0.98986 0.37159 0.97425 0.0
C4267 C 1.00114 0.32348 0.94628 0.0
C4268 C 1.01393 0.36405 0.93945 0.0
C4269 C 1.00069 0.30861 0.93946 0.0
C4270 C 0.01494 0.42509 0.96945 0.0
C4271 C 1.01283 0.41067 0.96103 0.0
C4272 C 0.99677 0.36964 0.96464 0.0
C4273 C 1.00141 0.33606 0.93684 0.0
C4274 C 1.00306 0.35195 0.94429 0.0
C4275 C 1.01097 0.39702 0.96897 0.0
C4276 C 1.00795 0.38165 0.96011 0.0
H4277 H 1.00017 0.31682 0.90088 0.0
H4278 H 1.00082 0.3429 0.91283 0.0
H4279 H 0.98575 0.34589 0.96065 0.0
H4280 H 1.01426 0.41296 0.00664 0.0
H4281 H 1.01074 0.38783 0.99199 0.0
C4282 C 0.99779 0.80178 0.21642 0.0
C4283 C 1.00316 0.79141 0.20593 0.0
C4284 C 0.98575 0.79654 0.22559 0.0
C4285 C 0.95177 0.76617 0.22687 0.0
H4286 H 0.95637 0.77916 0.2715 0.0
C4287 C 0.90223 0.74659 0.26536 0.0
C4288 C 0.89863 0.75816 0.27572 0.0
C4289 C 0.91616 0.74908 0.25809 0.0
C4290 C 0.95485 0.77552 0.25904 0.0
H4291 H 1.00009 0.76739 0.19691 0.0
H4292 H 0.9787 0.75837 0.21264 0.0
H4293 H 0.97821 0.78691 0.2559 0.0
H4294 H 0.90683 0.78123 0.28689 0.0
H4295 H 0.93096 0.78574 0.274 0.0
H4296 H 0.92825 0.75529 0.22976 0.0
C4297 C 0.98388 0.77053 0.21372 0.0
C4298 C 0.96736 0.77993 0.25014 0.0
C4299 C 0.99605 0.77573 0.20466 0.0
C4300 C 0.90944 0.77204 0.2791 0.0
C4301 C 0.92328 0.7746 0.27173 0.0
C4302 C 0.9392 0.76188 0.23573 0.0
C4303 C 0.97872 0.78088 0.22434 0.0
C4304 C 0.96585 0.77545 0.23394 0.0
C4305 C 0.92666 0.76326 0.26091 0.0
C4306 C 0.94053 0.76666 0.25188 0.0
H4307 H 1.00282 0.81397 0.21749 0.0
H4308 H 0.98178 0.8048 0.23351 0.0
H4309 H 0.95028 0.76268 0.21437 0.0
H4310 H 0.89414 0.73572 0.2627 0.0
H4311 H 0.91856 0.74 0.25005 0.0
C4312 C 0.55315 0.37046 0.10303 0.0
C4313 C 0.53838 0.36166 0.10553 0.0
C4314 C 0.55431 0.38518 0.09672 0.0
C4315 C 0.53049 0.41085 0.07339 0.0
H4316 H 0.56565 0.44364 0.08827 0.0
C4317 C 0.5418 0.46932 0.04184 0.0
C4318 C 0.54739 0.48346 0.05098 0.0
C4319 C 0.54077 0.45481 0.04854 0.0
C4320 C 0.55566 0.43472 0.08392 0.0
H4321 H 0.51316 0.36218 0.10271 0.0
H4322 H 0.51515 0.3874 0.09167 0.0
H4323 H 0.56373 0.41846 0.09948 0.0
H4324 H 0.55636 0.49274 0.07481 0.0
H4325 H 0.5549 0.46766 0.08633 0.0
H4326 H 0.52246 0.42704 0.05776 0.0
C4327 C 0.52597 0.38295 0.09467 0.0
C4328 C 0.55462 0.42004 0.09033 0.0
C4329 C 0.52483 0.36835 0.10123 0.0
C4330 C 0.55206 0.48232 0.06718 0.0
C4331 C 0.55125 0.46776 0.07384 0.0
C4332 C 0.53167 0.42543 0.0668 0.0
C4333 C 0.54075 0.39181 0.0923 0.0
C4334 C 0.54198 0.40771 0.08528 0.0
C4335 C 0.54547 0.45361 0.06472 0.0
C4336 C 0.54425 0.43779 0.07191 0.0
H4337 H 0.56398 0.36608 0.1062 0.0
H4338 H 0.56596 0.39129 0.09509 0.0
H4339 H 0.52059 0.40189 0.0689 0.0
H4340 H 0.53799 0.46941 0.02938 0.0
H4341 H 0.53641 0.44444 0.04086 0.0
C4342 C 0.95551 0.25803 0.35717 0.0
C4343 C 0.96872 0.26949 0.35542 0.0
C4344 C 0.9402 0.25852 0.34965 0.0
C4345 C 0.91573 0.28523 0.32867 0.0
H4346 H 0.88617 0.24721 0.31641 0.0
C4347 C 0.85464 0.28495 0.29083 0.0
C4348 C 0.84123 0.27427 0.29365 0.0
C4349 C 0.86998 0.28427 0.29816 0.0
C4350 C 0.89412 0.25802 0.31986 0.0
H4351 H 0.97535 0.29065 0.34399 0.0
H4352 H 0.94915 0.29124 0.33068 0.0
H4353 H 0.91259 0.24623 0.3291 0.0
H4354 H 0.83399 0.25433 0.30665 0.0
H4355 H 0.86048 0.25312 0.31931 0.0
H4356 H 0.89726 0.297 0.31931 0.0
C4357 C 0.95051 0.28189 0.33813 0.0
C4358 C 0.90947 0.25746 0.32726 0.0
C4359 C 0.96581 0.28142 0.34568 0.0
C4360 C 0.84386 0.26278 0.30403 0.0
C4361 C 0.85922 0.26204 0.31129 0.0
C4362 C 0.90041 0.28578 0.32121 0.0
C4363 C 0.93728 0.27047 0.33995 0.0
C4364 C 0.92068 0.27106 0.33188 0.0
C4365 C 0.87265 0.27282 0.3086 0.0
C4366 C 0.88922 0.27219 0.31663 0.0
H4367 H 0.95695 0.24846 0.36429 0.0
H4368 H 0.93057 0.24953 0.35171 0.0
H4369 H 0.9236 0.29607 0.33218 0.0
H4370 H 0.85332 0.29401 0.28298 0.0
H4371 H 0.87982 0.2927 0.29546 0.0
C4372 C 0.02152 0.68434 0.60062 0.0
C4373 C 0.03498 0.69624 0.60303 0.0
C4374 C 0.0223 0.66933 0.59396 0.0
C4375 C 0.04744 0.64702 0.57005 0.0
H4376 H 0.02188 0.61082 0.58389 0.0
C4377 C 0.04312 0.58508 0.53746 0.0
C4378 C 0.04168 0.57181 0.54618 0.0
C4379 C 0.0424 0.59994 0.54444 0.0
C4380 C 0.02923 0.6207 0.57985 0.0
H4381 H 0.05991 0.70095 0.59964 0.0
H4382 H 0.06125 0.67519 0.58821 0.0
H4383 H 0.02051 0.63652 0.59561 0.0
H4384 H 0.03824 0.56443 0.56953 0.0
H4385 H 0.03687 0.59009 0.5816 0.0
H4386 H 0.05621 0.63124 0.55434 0.0
C4387 C 0.04995 0.67741 0.59147 0.0
C4388 C 0.0283 0.63566 0.58653 0.0
C4389 C 0.04921 0.69235 0.59828 0.0
C4390 C 0.03942 0.57415 0.56225 0.0
C4391 C 0.03852 0.58903 0.56922 0.0
C4392 C 0.04823 0.63209 0.56325 0.0
C4393 C 0.03654 0.66546 0.58917 0.0
C4394 C 0.03741 0.64923 0.58185 0.0
C4395 C 0.04004 0.60234 0.5605 0.0
C4396 C 0.03918 0.61851 0.56797 0.0
H4397 H 1.01029 0.6865 0.60412 0.0
H4398 H 1.01157 0.66077 0.59238 0.0
H4399 H 0.05461 0.65691 0.56582 0.0
H4400 H 0.04484 0.58402 0.52508 0.0
H4401 H 0.04343 0.60957 0.53705 0.0
C4402 C 0.6423 0.78876 0.85626 0.0
C4403 C 0.63324 0.77477 0.86011 0.0
C4404 C 0.65641 0.78908 0.84884 0.0
C4405 C 0.6871 0.76403 0.83845 0.0
H4406 H 0.70077 0.79723 0.8124 0.0
C4407 C 0.74051 0.76189 0.80055 0.0
C4408 C 0.75061 0.77565 0.79776 0.0
C4409 C 0.72655 0.76208 0.80803 0.0
C4410 C 0.69736 0.78788 0.81974 0.0
H4411 H 0.63302 0.75 0.8588 0.0
H4412 H 0.65682 0.75051 0.84567 0.0
H4413 H 0.67658 0.79691 0.82509 0.0
H4414 H 0.75322 0.80058 0.80101 0.0
H4415 H 0.72903 0.80095 0.81391 0.0
H4416 H 0.70782 0.75495 0.833 0.0
C4417 C 0.65322 0.76144 0.8486 0.0
C4418 C 0.68326 0.78769 0.82717 0.0
C4419 C 0.63915 0.76112 0.85606 0.0
C4420 C 0.74593 0.78967 0.80276 0.0
C4421 C 0.73186 0.78986 0.81018 0.0
C4422 C 0.70113 0.76418 0.83097 0.0
C4423 C 0.66231 0.77543 0.84478 0.0
C4424 C 0.67768 0.77574 0.83673 0.0
C4425 C 0.72182 0.77605 0.81311 0.0
C4426 C 0.70666 0.77608 0.82136 0.0
H4427 H 0.63845 0.79965 0.8588 0.0
H4428 H 0.66279 0.80023 0.84648 0.0
H4429 H 0.68384 0.7547 0.84585 0.0
H4430 H 0.74343 0.75078 0.797 0.0
H4431 H 0.71932 0.7511 0.80963 0.0
C4432 C 0.47414 0.54167 0.67114 0.0
C4433 C 0.46176 0.54931 0.67491 0.0
C4434 C 0.48515 0.54819 0.66147 0.0
C4435 C 0.4876 0.57341 0.62925 0.0
H4436 H 0.53009 0.56376 0.63156 0.0
C4437 C 0.54069 0.56519 0.58751 0.0
C4438 C 0.53079 0.55596 0.57526 0.0
C4439 C 0.53427 0.57084 0.60063 0.0
C4440 C 0.51844 0.56697 0.63084 0.0
H4441 H 0.45172 0.57018 0.67221 0.0
H4442 H 0.47099 0.58158 0.65514 0.0
H4443 H 0.51574 0.56187 0.6547 0.0
H4444 H 0.50636 0.54647 0.56648 0.0
H4445 H 0.49527 0.55607 0.58924 0.0
H4446 H 0.4901 0.57798 0.60522 0.0
C4447 C 0.47205 0.57046 0.65958 0.0
C4448 C 0.51013 0.5657 0.64405 0.0
C4449 C 0.46099 0.56391 0.66928 0.0
C4450 C 0.51433 0.55336 0.57584 0.0
C4451 C 0.50794 0.55907 0.58883 0.0
C4452 C 0.49594 0.57478 0.61607 0.0
C4453 C 0.48408 0.56253 0.65533 0.0
C4454 C 0.4943 0.56802 0.6431 0.0
C4455 C 0.51785 0.56749 0.60158 0.0
C4456 C 0.51108 0.57069 0.61646 0.0
H4457 H 0.47495 0.53032 0.67509 0.0
H4458 H 0.49402 0.54158 0.65815 0.0
H4459 H 0.47544 0.57534 0.6281 0.0
H4460 H 0.55343 0.56745 0.58731 0.0
H4461 H 0.54218 0.57737 0.61025 0.0
C4462 C 0.79165 0.20419 0.93038 0.0
C4463 C 0.79402 0.21455 0.94391 0.0
C4464 C 0.79298 0.2096 0.91546 0.0
C4465 C 0.79205 0.24432 0.8933 0.0
H4466 H 0.81224 0.22179 0.86312 0.0
C4467 C 0.806 0.26707 0.8332 0.0
C4468 C 0.80298 0.25629 0.81997 0.0
C4469 C 0.80503 0.26217 0.8484 0.0
C4470 C 0.80643 0.22811 0.87135 0.0
H4471 H 0.79967 0.23877 0.95231 0.0
H4472 H 0.80228 0.24824 0.92618 0.0
H4473 H 0.81062 0.21313 0.88959 0.0
H4474 H 0.79652 0.23188 0.81241 0.0
H4475 H 0.79477 0.22336 0.83895 0.0
H4476 H 0.78789 0.25931 0.87502 0.0
C4477 C 0.79919 0.23591 0.92715 0.0
C4478 C 0.8055 0.22316 0.88653 0.0
C4479 C 0.79785 0.23048 0.94214 0.0
C4480 C 0.79896 0.2405 0.82232 0.0
C4481 C 0.79804 0.2356 0.83754 0.0
C4482 C 0.79301 0.24929 0.87811 0.0
C4483 C 0.79679 0.22551 0.91364 0.0
C4484 C 0.79822 0.23114 0.89767 0.0
C4485 C 0.80106 0.24639 0.85075 0.0
C4486 C 0.80014 0.2412 0.86694 0.0
H4487 H 0.78893 0.19183 0.93132 0.0
H4488 H 0.79087 0.20128 0.9053 0.0
H4489 H 0.78618 0.2506 0.90151 0.0
H4490 H 0.80915 0.27933 0.83186 0.0
H4491 H 0.80761 0.27076 0.85833 0.0
C4492 C 0.03981 0.46711 0.19598 0.0
C4493 C 0.04852 0.4789 0.20671 0.0
C4494 C 0.03438 0.47044 0.18075 0.0
C4495 C 0.03041 0.50347 0.15561 0.0
H4496 H 0.03851 0.4751 0.12216 0.0
C4497 C 0.0487 0.52141 0.09547 0.0
C4498 C 0.04006 0.51303 0.082 0.0
C4499 C 0.04617 0.51666 0.11047 0.0
C4500 C 0.03598 0.48301 0.13139 0.0
H4501 H 0.05823 0.50343 0.20992 0.0
H4502 H 0.0491 0.50913 0.18366 0.0
H4503 H 0.03963 0.4675 0.14922 0.0
H4504 H 0.02213 0.4931 0.07357 0.0
H4505 H 0.01814 0.48454 0.09988 0.0
H4506 H 0.02792 0.51937 0.13779 0.0
C4507 C 0.04592 0.4974 0.18696 0.0
C4508 C 0.0365 0.47865 0.14687 0.0
C4509 C 0.05121 0.49412 0.20211 0.0
C4510 C 0.02889 0.49981 0.08378 0.0
C4511 C 0.02662 0.49489 0.09877 0.0
C4512 C 0.03019 0.50793 0.14018 0.0
C4513 C 0.03771 0.48559 0.17596 0.0
C4514 C 0.0342 0.48902 0.15925 0.0
C4515 C 0.03522 0.5033 0.11221 0.0
C4516 C 0.03337 0.49788 0.12805 0.0
H4517 H 0.0375 0.4553 0.19923 0.0
H4518 H 0.02791 0.46109 0.17263 0.0
H4519 H 0.02817 0.5116 0.16477 0.0
H4520 H 0.05733 0.53166 0.09443 0.0
H4521 H 0.05304 0.52324 0.12071 0.0
C4522 C 0.76632 0.85181 0.43707 0.0
C4523 C 0.77811 0.8521 0.44992 0.0
C4524 C 0.76763 0.84481 0.422 0.0
C4525 C 0.78852 0.8162 0.40127 0.0
H4526 H 0.77514 0.83493 0.36342 0.0
C4527 C 0.8003 0.79146 0.33893 0.0
C4528 C 0.79054 0.79351 0.32519 0.0
C4529 C 0.79865 0.79855 0.35383 0.0
C4530 C 0.77875 0.82925 0.37374 0.0
H4531 H 0.8005 0.84463 0.45643 0.0
H4532 H 0.8027 0.83249 0.4305 0.0
H4533 H 0.77237 0.84684 0.38923 0.0
H4534 H 0.77107 0.80481 0.31691 0.0
H4535 H 0.76782 0.81667 0.34266 0.0
H4536 H 0.79458 0.79843 0.38596 0.0
C4537 C 0.79237 0.83773 0.43202 0.0
C4538 C 0.77718 0.83623 0.38875 0.0
C4539 C 0.79117 0.8449 0.44701 0.0
C4540 C 0.77895 0.80293 0.32704 0.0
C4541 C 0.77717 0.80989 0.342 0.0
C4542 C 0.78993 0.80912 0.38629 0.0
C4543 C 0.78068 0.83756 0.41912 0.0
C4544 C 0.78211 0.82991 0.40288 0.0
C4545 C 0.787 0.80792 0.35582 0.0
C4546 C 0.78518 0.81549 0.37208 0.0
H4547 H 0.75612 0.85725 0.43855 0.0
H4548 H 0.75823 0.84492 0.4126 0.0
H4549 H 0.79224 0.81067 0.41167 0.0
H4550 H 0.80947 0.78445 0.33818 0.0
H4551 H 0.80682 0.79678 0.36376 0.0
C4552 C 0.46043 0.5276 0.80789 0.0
C4553 C 0.44532 0.51827 0.80555 0.0
C4554 C 0.46954 0.52895 0.82252 0.0
C4555 C 0.46726 0.5244 0.86463 0.0
H4556 H 0.51045 0.5168 0.86519 0.0
C4557 C 0.50967 0.52894 0.92204 0.0
C4558 C 0.51715 0.51605 0.92426 0.0
C4559 C 0.5017 0.53078 0.90741 0.0
C4560 C 0.49843 0.51898 0.86518 0.0
H4561 H 0.42786 0.50325 0.81685 0.0
H4562 H 0.44368 0.5059 0.84248 0.0
H4563 H 0.49447 0.51728 0.83995 0.0
H4564 H 0.5223 0.49509 0.91274 0.0
H4565 H 0.50864 0.49849 0.88712 0.0
H4566 H 0.47112 0.52583 0.88986 0.0
C4567 C 0.44841 0.51217 0.83297 0.0
C4568 C 0.48934 0.51938 0.85078 0.0
C4569 C 0.43935 0.51069 0.8183 0.0
C4570 C 0.51687 0.50527 0.91139 0.0
C4571 C 0.50902 0.50718 0.89672 0.0
C4572 C 0.4764 0.52417 0.87903 0.0
C4573 C 0.46365 0.52116 0.83514 0.0
C4574 C 0.4736 0.52187 0.85039 0.0
C4575 C 0.5012 0.51985 0.89466 0.0
C4576 C 0.49198 0.52124 0.87943 0.0
H4577 H 0.46525 0.53386 0.79841 0.0
H4578 H 0.48119 0.5361 0.82397 0.0
H4579 H 0.45518 0.52645 0.86462 0.0
H4580 H 0.50995 0.53763 0.93163 0.0
H4581 H 0.49592 0.54074 0.90605 0.0
C4582 C 0.78697 0.2182 0.1082 0.0
C4583 C 0.79936 0.21173 0.10245 0.0
C4584 C 0.78815 0.22398 0.12393 0.0
C4585 C 0.80971 0.22214 0.1634 0.0
H4586 H 0.79308 0.25954 0.17297 0.0
C4587 C 0.80104 0.2439 0.22701 0.0
C4588 C 0.80356 0.25997 0.23063 0.0
C4589 C 0.8018 0.23785 0.21162 0.0
C4590 C 0.79795 0.24917 0.17054 0.0
H4591 H 0.82272 0.20622 0.10885 0.0
H4592 H 0.82495 0.2167 0.13621 0.0
H4593 H 0.7921 0.24969 0.14569 0.0
H4594 H 0.80978 0.28227 0.22114 0.0
H4595 H 0.81145 0.27178 0.19457 0.0
H4596 H 0.81583 0.22185 0.18832 0.0
C4597 C 0.81421 0.2171 0.12858 0.0
C4598 C 0.79718 0.2434 0.15486 0.0
C4599 C 0.81302 0.21129 0.11283 0.0
C4600 C 0.80755 0.26983 0.21873 0.0
C4601 C 0.80842 0.26381 0.20343 0.0
C4602 C 0.81051 0.22795 0.17912 0.0
C4603 C 0.80178 0.22352 0.13433 0.0
C4604 C 0.80298 0.22977 0.15107 0.0
C4605 C 0.80518 0.24776 0.19957 0.0
C4606 C 0.80463 0.24155 0.18289 0.0
H4607 H 0.77635 0.21889 0.10052 0.0
H4608 H 0.77825 0.22866 0.12798 0.0
H4609 H 0.81414 0.21153 0.16092 0.0
H4610 H 0.7979 0.23599 0.23591 0.0
H4611 H 0.79915 0.22544 0.20905 0.0
C4612 C 0.10623 0.53779 0.35266 0.0
C4613 C 0.09494 0.52802 0.34193 0.0
C4614 C 0.10181 0.54969 0.36184 0.0
C4615 C 0.06785 0.57065 0.36706 0.0
H4616 H 0.08417 0.57267 0.41121 0.0
C4617 C 0.032 0.57083 0.41847 0.0
C4618 C 0.03928 0.57713 0.43344 0.0
C4619 C 0.04002 0.57306 0.40517 0.0
C4620 C 0.07979 0.5727 0.39887 0.0
H4621 H 0.07024 0.52357 0.33201 0.0
H4622 H 0.06234 0.54345 0.34868 0.0
H4623 H 0.09682 0.55944 0.39181 0.0
H4624 H 0.05947 0.59295 0.44567 0.0
H4625 H 0.07377 0.59623 0.42247 0.0
H4626 H 0.04981 0.58265 0.37457 0.0
C4627 C 0.07473 0.5423 0.34975 0.0
C4628 C 0.08705 0.56504 0.38768 0.0
C4629 C 0.07919 0.53058 0.34044 0.0
C4630 C 0.05378 0.58746 0.43441 0.0
C4631 C 0.06192 0.58948 0.42112 0.0
C4632 C 0.06044 0.57812 0.37832 0.0
C4633 C 0.08594 0.55196 0.36066 0.0
C4634 C 0.08067 0.56322 0.37175 0.0
C4635 C 0.05551 0.58147 0.40662 0.0
C4636 C 0.0659 0.57853 0.3944 0.0
H4637 H 0.11848 0.53616 0.35413 0.0
H4638 H 0.1108 0.55698 0.36999 0.0
H4639 H 0.06294 0.56991 0.35481 0.0
H4640 H 0.02088 0.56281 0.41715 0.0
H4641 H 0.03478 0.5667 0.39415 0.0
C4642 C 0.77035 0.85905 0.62635 0.0
C4643 C 0.77798 0.85414 0.61352 0.0
C4644 C 0.7712 0.8521 0.64091 0.0
C4645 C 0.78175 0.81647 0.66006 0.0
H4646 H 0.78059 0.84086 0.69899 0.0
C4647 C 0.77798 0.78756 0.72054 0.0
C4648 C 0.7854 0.79593 0.73469 0.0
C4649 C 0.77688 0.79461 0.70604 0.0
C4650 C 0.78106 0.83376 0.68833 0.0
H4651 H 0.79247 0.83744 0.60667 0.0
H4652 H 0.79415 0.82567 0.63179 0.0
H4653 H 0.77953 0.8529 0.674 0.0
H4654 H 0.79744 0.81871 0.7441 0.0
H4655 H 0.79562 0.83087 0.71913 0.0
H4656 H 0.7836 0.79741 0.67441 0.0
C4657 C 0.7873 0.83489 0.6306 0.0
C4658 C 0.78023 0.84072 0.67376 0.0
C4659 C 0.7865 0.84188 0.61604 0.0
C4660 C 0.79153 0.81174 0.73367 0.0
C4661 C 0.7904 0.8188 0.71917 0.0
C4662 C 0.78253 0.8095 0.67462 0.0
C4663 C 0.77968 0.83982 0.64344 0.0
C4664 C 0.78057 0.83227 0.65923 0.0
C4665 C 0.78314 0.8104 0.70494 0.0
C4666 C 0.78222 0.81796 0.68916 0.0
H4667 H 0.76381 0.86851 0.6253 0.0
H4668 H 0.76494 0.85632 0.65017 0.0
H4669 H 0.78188 0.80929 0.64937 0.0
H4670 H 0.77308 0.7754 0.72059 0.0
H4671 H 0.77094 0.78758 0.69567 0.0
C4672 C 0.7197 0.42479 0.52857 0.0
C4673 C 0.73404 0.42711 0.53851 0.0
C4674 C 0.70875 0.43473 0.53016 0.0
C4675 C 0.69775 0.46382 0.55829 0.0
H4676 H 0.67508 0.47597 0.52079 0.0
C4677 C 0.65989 0.51237 0.55995 0.0
C4678 C 0.64507 0.50941 0.55074 0.0
C4679 C 0.67075 0.50231 0.55858 0.0
C4680 C 0.68122 0.47258 0.53138 0.0
H4681 H 0.7483 0.44183 0.55771 0.0
H4682 H 0.72933 0.45926 0.56039 0.0
H4683 H 0.69397 0.45842 0.51813 0.0
H4684 H 0.62994 0.49327 0.53317 0.0
H4685 H 0.64897 0.47589 0.53067 0.0
H4686 H 0.68508 0.47814 0.5715 0.0
C4687 C 0.72634 0.44957 0.55159 0.0
C4688 C 0.69202 0.46249 0.52986 0.0
C4689 C 0.73723 0.43959 0.55004 0.0
C4690 C 0.64137 0.49611 0.5402 0.0
C4691 C 0.65225 0.48611 0.53878 0.0
C4692 C 0.68701 0.47398 0.5598 0.0
C4693 C 0.71195 0.44727 0.54168 0.0
C4694 C 0.70041 0.45796 0.5433 0.0
C4695 C 0.66707 0.4891 0.54794 0.0
C4696 C 0.67861 0.47844 0.54636 0.0
H4697 H 0.71683 0.41516 0.51969 0.0
H4698 H 0.69769 0.43246 0.5225 0.0
H4699 H 0.7038 0.46039 0.5689 0.0
H4700 H 0.6632 0.5226 0.56804 0.0
H4701 H 0.68215 0.505 0.56567 0.0
C4702 C 0.21707 0.09597 0.50821 0.0
C4703 C 0.2265 0.10358 0.52181 0.0
C4704 C 0.20114 0.08888 0.50871 0.0
C4705 C 0.16684 0.08774 0.53352 0.0
H4706 H 0.14909 0.05058 0.50687 0.0
C4707 C 0.1034 0.05338 0.53977 0.0
C4708 C 0.09393 0.04569 0.52626 0.0
C4709 C 0.1194 0.06021 0.53922 0.0
C4710 C 0.15367 0.06106 0.5143 0.0
H4711 H 0.22575 0.10959 0.54668 0.0
H4712 H 0.19843 0.09714 0.5476 0.0
H4713 H 0.17657 0.06264 0.50591 0.0
H4714 H 0.09443 0.03938 0.50144 0.0
H4715 H 0.122 0.05128 0.50041 0.0
H4716 H 0.14395 0.0862 0.54189 0.0
C4717 C 0.20328 0.09673 0.5364 0.0
C4718 C 0.16962 0.06806 0.51374 0.0
C4719 C 0.21922 0.10377 0.53592 0.0
C4720 C 0.10118 0.04506 0.51218 0.0
C4721 C 0.11718 0.05189 0.51161 0.0
C4722 C 0.15089 0.08075 0.53407 0.0
C4723 C 0.19384 0.08912 0.52281 0.0
C4724 C 0.1766 0.08156 0.52336 0.0
C4725 C 0.12667 0.05968 0.52511 0.0
C4726 C 0.14391 0.06723 0.52448 0.0
H4727 H 0.22203 0.0953 0.49709 0.0
H4728 H 0.19447 0.08338 0.49787 0.0
H4729 H 0.17141 0.09823 0.54095 0.0
H4730 H 0.09845 0.05419 0.5509 0.0
H4731 H 0.12611 0.06579 0.55 0.0
C4732 C 0.24638 0.98786 0.79686 0.0
C4733 C 0.23506 0.98533 0.80762 0.0
C4734 C 0.25694 0.97758 0.79502 0.0
C4735 C 0.27278 0.94525 0.81369 0.0
H4736 H 0.27816 0.93216 0.77074 0.0
C4737 C 0.28804 0.88613 0.79568 0.0
C4738 C 0.29876 0.88524 0.78441 0.0
C4739 C 0.2832 0.9001 0.79958 0.0
C4740 C 0.27702 0.93589 0.78281 0.0
H4741 H 0.22592 0.97007 0.82488 0.0
H4742 H 0.24413 0.95208 0.82156 0.0
H4743 H 0.26428 0.95367 0.7756 0.0
H4744 H 0.31323 0.89853 0.76884 0.0
H4745 H 0.30441 0.92289 0.77543 0.0
H4746 H 0.28492 0.92697 0.82079 0.0
C4747 C 0.24517 0.96218 0.8148 0.0
C4748 C 0.26909 0.94823 0.78562 0.0
C4749 C 0.23469 0.97247 0.81668 0.0
C4750 C 0.30476 0.89875 0.77737 0.0
C4751 C 0.29978 0.91271 0.78118 0.0
C4752 C 0.28061 0.93285 0.81087 0.0
C4753 C 0.25633 0.96452 0.80385 0.0
C4754 C 0.26654 0.95281 0.80106 0.0
C4755 C 0.28885 0.91347 0.79222 0.0
C4756 C 0.28247 0.92783 0.79538 0.0
H4757 H 0.24705 0.99779 0.78985 0.0
H4758 H 0.26552 0.9798 0.78662 0.0
H4759 H 0.27131 0.94871 0.82575 0.0
H4760 H 0.28294 0.87593 0.80113 0.0
H4761 H 0.27455 0.90029 0.80794 0.0
C4762 C 0.39812 0.92171 0.04534 0.0
C4763 C 0.38389 0.92662 0.04006 0.0
C4764 C 0.41245 0.93214 0.04733 0.0
C4765 C 0.43101 0.96846 0.03294 0.0
H4766 H 0.46332 0.96901 0.06816 0.0
C4767 C 0.48826 0.01248 0.03788 0.0
C4768 C 0.50239 1.00673 0.04134 0.0
C4769 C 0.47372 1.00378 0.04028 0.0
C4770 C 0.45444 0.96893 0.05821 0.0
H4771 H 0.37344 0.94649 0.03348 0.0
H4772 H 0.39842 0.96459 0.0368 0.0
H4773 H 0.43798 0.95141 0.06721 0.0
H4774 H 0.51249 0.98776 0.05091 0.0
H4775 H 0.48703 0.97235 0.05476 0.0
H4776 H 0.44742 0.98558 0.02367 0.0
C4777 C 0.39854 0.95264 0.03915 0.0
C4778 C 0.43995 0.95885 0.05767 0.0
C4779 C 0.38424 0.94225 0.03719 0.0
C4780 C 0.50179 0.9925 0.04815 0.0
C4781 C 0.48719 0.98369 0.05039 0.0
C4782 C 0.44546 0.97844 0.03344 0.0
C4783 C 0.41283 0.94767 0.04406 0.0
C4784 C 0.4281 0.95852 0.04501 0.0
C4785 C 0.47295 0.98903 0.04599 0.0
C4786 C 0.45737 0.97881 0.04606 0.0
H4787 H 0.39826 0.90973 0.04755 0.0
H4788 H 0.4233 0.92794 0.05097 0.0
H4789 H 0.42224 0.96826 0.02287 0.0
H4790 H 0.48836 0.02352 0.03284 0.0
H4791 H 0.46302 0.00842 0.03718 0.0
C4792 C 0.87107 0.60885 0.79284 0.0
C4793 C 0.88484 0.6192 0.79911 0.0
C4794 C 0.8561 0.61257 0.79417 0.0
C4795 C 0.83441 0.63871 0.81531 0.0
H4796 H 0.80778 0.6354 0.77547 0.0
C4797 C 0.79175 0.67981 0.79982 0.0
C4798 C 0.77931 0.67546 0.78759 0.0
C4799 C 0.80114 0.66919 0.80493 0.0
C4800 C 0.81474 0.63601 0.78684 0.0
H4801 H 0.89366 0.64133 0.81215 0.0
H4802 H 0.86744 0.64786 0.81445 0.0
H4803 H 0.83168 0.62412 0.77709 0.0
H4804 H 0.76566 0.65613 0.77263 0.0
H4805 H 0.78191 0.63742 0.78182 0.0
H4806 H 0.81768 0.65105 0.82494 0.0
C4807 C 0.86827 0.63681 0.80862 0.0
C4808 C 0.82855 0.6296 0.78773 0.0
C4809 C 0.88328 0.63311 0.80723 0.0
C4810 C 0.77535 0.65986 0.78187 0.0
C4811 C 0.7847 0.64918 0.78709 0.0
C4812 C 0.8205 0.64502 0.81447 0.0
C4813 C 0.85455 0.62666 0.8019 0.0
C4814 C 0.83879 0.63135 0.80181 0.0
C4815 C 0.79826 0.65396 0.798 0.0
C4816 C 0.81081 0.64425 0.80006 0.0
H4817 H 0.87185 0.59783 0.78689 0.0
H4818 H 0.84572 0.60445 0.78905 0.0
H4819 H 0.84199 0.63998 0.82639 0.0
H4820 H 0.79524 0.69176 0.80441 0.0
H4821 H 0.8115 0.67338 0.81327 0.0
C4822 C 0.89142 0.59314 0.03444 0.0
C4823 C 0.89144 0.60794 0.02872 0.0
C4824 C 0.90509 0.58601 0.03524 0.0
C4825 C 0.94997 0.59424 0.03348 0.0
H4826 H 0.94523 0.5496 0.02953 0.0
C4827 C 1.00547 0.56271 0.04319 0.0
C4828 C 1.0053 0.54821 0.03506 0.0
C4829 C 0.99185 0.56993 0.04246 0.0
C4830 C 0.94698 0.5621 0.03053 0.0
H4831 H 0.90689 0.62662 0.01955 0.0
H4832 H 0.9302 0.61424 0.02055 0.0
H4833 H 0.92183 0.56186 0.02782 0.0
H4834 H 0.99003 0.53023 0.01961 0.0
H4835 H 0.96669 0.5427 0.01816 0.0
H4836 H 0.97513 0.59448 0.03581 0.0
C4837 C 0.91961 0.60808 0.02466 0.0
C4838 C 0.93332 0.56925 0.02977 0.0
C4839 C 0.90593 0.61521 0.02386 0.0
C4840 C 0.99087 0.54131 0.02615 0.0
C4841 C 0.97726 0.54852 0.02541 0.0
C4842 C 0.96363 0.58709 0.03425 0.0
C4843 C 0.91958 0.59328 0.03037 0.0
C4844 C 0.93442 0.58552 0.03122 0.0
C4845 C 0.97735 0.56303 0.03356 0.0
C4846 C 0.96253 0.57081 0.03278 0.0
H4847 H 0.88071 0.58682 0.03819 0.0
H4848 H 0.90425 0.57477 0.03992 0.0
H4849 H 0.95171 0.60673 0.03489 0.0
H4850 H 0.01618 0.56854 0.05024 0.0
H4851 H 0.99271 0.5809 0.04917 0.0
C4852 C 0.20256 0.13032 0.826 0.0
C4853 C 0.20403 0.11782 0.81563 0.0
C4854 C 0.20962 0.14536 0.82343 0.0
C4855 C 0.22715 0.16815 0.79201 0.0
H4856 H 0.24618 0.19758 0.827 0.0
C4857 C 0.27473 0.22096 0.78649 0.0
C4858 C 0.2708 0.23535 0.79093 0.0
C4859 C 0.26547 0.20731 0.79003 0.0
C4860 C 0.24075 0.18948 0.81717 0.0
H4861 H 0.21448 0.11095 0.79491 0.0
H4862 H 0.22733 0.13692 0.79074 0.0
H4863 H 0.23223 0.17211 0.83228 0.0
H4864 H 0.25434 0.24679 0.80288 0.0
H4865 H 0.23834 0.22269 0.80954 0.0
H4866 H 0.23645 0.18528 0.77697 0.0
C4867 C 0.22022 0.13539 0.80048 0.0
C4868 C 0.23271 0.17493 0.82014 0.0
C4869 C 0.21296 0.12048 0.8029 0.0
C4870 C 0.2576 0.23584 0.79928 0.0
C4871 C 0.2485 0.22213 0.80313 0.0
C4872 C 0.23541 0.18253 0.78907 0.0
C4873 C 0.21849 0.14808 0.81056 0.0
C4874 C 0.22603 0.16398 0.80758 0.0
C4875 C 0.25229 0.20779 0.79834 0.0
C4876 C 0.24243 0.1932 0.80161 0.0
H4877 H 0.19566 0.1285 0.83588 0.0
H4878 H 0.20791 0.15484 0.83135 0.0
H4879 H 0.22177 0.16024 0.78202 0.0
H4880 H 0.28479 0.22023 0.77998 0.0
H4881 H 0.2686 0.19633 0.78629 0.0
C4882 C 0.42531 0.98264 0.27218 0.0
C4883 C 0.41816 0.9958 0.27065 0.0
C4884 C 0.41615 0.96787 0.2701 0.0
C4885 C 0.37593 0.94768 0.27299 0.0
H4886 H 0.39149 0.91295 0.25379 0.0
C4887 C 0.34318 0.88473 0.27328 0.0
C4888 C 0.35305 0.87436 0.27845 0.0
C4889 C 0.34976 0.89945 0.2693 0.0
C4890 C 0.38699 0.92254 0.25918 0.0
H4891 H 0.39582 1.00374 0.26512 0.0
H4892 H 0.37978 0.97788 0.26158 0.0
H4893 H 0.40563 0.93917 0.25222 0.0
H4894 H 0.37744 0.87094 0.28278 0.0
H4895 H 0.3889 0.89658 0.27602 0.0
H4896 H 0.35756 0.93101 0.28037 0.0
C4897 C 0.39248 0.97904 0.26457 0.0
C4898 C 0.39509 0.93753 0.2583 0.0
C4899 C 0.40166 0.99383 0.26662 0.0
C4900 C 0.36955 0.87877 0.27904 0.0
C4901 C 0.37611 0.89339 0.27497 0.0
C4902 C 0.36782 0.93267 0.27387 0.0
C4903 C 0.39962 0.9659 0.26645 0.0
C4904 C 0.38988 0.95023 0.26555 0.0
C4905 C 0.36631 0.90396 0.27025 0.0
C4906 C 0.37351 0.91992 0.26734 0.0
H4907 H 0.43795 0.98374 0.27553 0.0
H4908 H 0.42199 0.958 0.27191 0.0
H4909 H 0.3717 0.95721 0.27883 0.0
H4910 H 0.33041 0.88162 0.27276 0.0
H4911 H 0.34192 0.90733 0.26561 0.0
C4912 C 0.57526 0.38528 0.60426 0.0
C4913 C 0.57936 0.38668 0.62067 0.0
C4914 C 0.57203 0.39806 0.59638 0.0
C4915 C 0.57914 0.44022 0.59938 0.0
H4916 H 0.53965 0.43605 0.57197 0.0
C4917 C 0.55622 0.49329 0.57706 0.0
C4918 C 0.54966 0.49242 0.56126 0.0
C4919 C 0.55941 0.48003 0.58399 0.0
C4920 C 0.55081 0.43735 0.57941 0.0
H4921 H 0.58373 0.4024 0.6417 0.0
H4922 H 0.57825 0.42486 0.62788 0.0
H4923 H 0.54696 0.41349 0.5843 0.0
H4924 H 0.54089 0.477 0.54038 0.0
H4925 H 0.54679 0.45381 0.55241 0.0
H4926 H 0.58318 0.46397 0.59441 0.0
C4927 C 0.5775 0.41389 0.62115 0.0
C4928 C 0.55497 0.42445 0.58646 0.0
C4929 C 0.58054 0.40108 0.62904 0.0
C4930 C 0.54589 0.47798 0.55263 0.0
C4931 C 0.54924 0.46471 0.55952 0.0
C4932 C 0.57507 0.45306 0.59222 0.0
C4933 C 0.57305 0.41244 0.60479 0.0
C4934 C 0.56908 0.42584 0.59663 0.0
C4935 C 0.55628 0.46565 0.57521 0.0
C4936 C 0.56076 0.45182 0.58233 0.0
H4937 H 0.57413 0.37423 0.59759 0.0
H4938 H 0.5687 0.39671 0.58374 0.0
H4939 H 0.59018 0.4415 0.60702 0.0
H4940 H 0.55909 0.50426 0.58406 0.0
H4941 H 0.56447 0.48109 0.59622 0.0
C4942 C 0.44799 0.7099 0.29864 0.0
C4943 C 0.44636 0.70649 0.31434 0.0
C4944 C 0.4347 0.71122 0.28834 0.0
C4945 C 0.40908 0.72981 0.27941 0.0
H4946 H 0.36601 0.7082 0.27966 0.0
C4947 C 0.35586 0.7602 0.28262 0.0
C4948 C 0.34163 0.75414 0.27321 0.0
C4949 C 0.36876 0.75248 0.28272 0.0
C4950 C 0.37799 0.71422 0.27919 0.0
H4951 H 0.42941 0.70011 0.33101 0.0
H4952 H 0.40631 0.7023 0.31307 0.0
H4953 H 0.38829 0.69536 0.288 0.0
H4954 H 0.32976 0.73541 0.25633 0.0
H4955 H 0.35232 0.72169 0.25686 0.0
H4956 H 0.3988 0.749 0.27158 0.0
C4957 C 0.4178 0.70395 0.30867 0.0
C4958 C 0.3907 0.70691 0.28401 0.0
C4959 C 0.43108 0.7027 0.31899 0.0
C4960 C 0.34062 0.74037 0.26366 0.0
C4961 C 0.35347 0.7325 0.26397 0.0
C4962 C 0.3964 0.73715 0.27474 0.0
C4963 C 0.41958 0.70904 0.29355 0.0
C4964 C 0.40635 0.71487 0.28474 0.0
C4965 C 0.3676 0.73845 0.27359 0.0
C4966 C 0.38077 0.72963 0.27519 0.0
H4967 H 0.45961 0.71253 0.29463 0.0
H4968 H 0.43636 0.71492 0.27665 0.0
H4969 H 0.42099 0.73633 0.27999 0.0
H4970 H 0.35697 0.77082 0.29005 0.0
H4971 H 0.37948 0.7572 0.2904 0.0
C4972 C 0.05989 0.74447 0.0855 0.0
C4973 C 0.07401 0.75088 0.095 0.0
C4974 C 0.0595 0.73194 0.07457 0.0
C4975 C 0.08517 0.70749 0.05566 0.0
H4976 H 0.04977 0.67464 0.05878 0.0
C4977 C 0.08891 0.64312 0.0522 0.0
C4978 C 0.0758 0.6323 0.04523 0.0
C4979 C 0.0883 0.65888 0.05303 0.0
C4980 C 0.05956 0.68377 0.05744 0.0
H4981 H 0.09906 0.74988 0.09963 0.0
H4982 H 0.09825 0.72764 0.08122 0.0
H4983 H 0.04925 0.70048 0.07001 0.0
H4984 H 0.05222 0.62971 0.0326 0.0
H4985 H 0.05103 0.65731 0.0345 0.0
H4986 H 0.0959 0.69033 0.04402 0.0
C4987 C 0.08749 0.73238 0.08196 0.0
C4988 C 0.05927 0.69864 0.06387 0.0
C4989 C 0.0879 0.74499 0.09275 0.0
C4990 C 0.06239 0.63771 0.03837 0.0
C4991 C 0.06173 0.65349 0.03935 0.0
C4992 C 0.08552 0.69255 0.04937 0.0
C4993 C 0.0732 0.72545 0.07302 0.0
C4994 C 0.0723 0.71056 0.06355 0.0
C4995 C 0.07454 0.66418 0.04704 0.0
C4996 C 0.07294 0.68046 0.05067 0.0
H4997 H 0.04895 0.74868 0.08693 0.0
H4998 H 0.04835 0.72703 0.0677 0.0
H4999 H 0.09525 0.71649 0.0549 0.0
H5000 H 0.09935 0.63939 0.05779 0.0
H5001 H 0.09826 0.66684 0.05924 0.0
C5002 C 0.0859 0.24843 0.83078 0.0
C5003 C 0.08703 0.2509 0.84729 0.0
C5004 C 0.09865 0.25405 0.82265 0.0
C5005 C 0.1352 0.28294 0.82601 0.0
H5006 H 0.14752 0.25565 0.794 0.0
C5007 C 0.1959 0.2938 0.80181 0.0
C5008 C 0.19665 0.28915 0.78593 0.0
C5009 C 0.1816 0.29084 0.80839 0.0
C5010 C 0.14407 0.26354 0.80269 0.0
H5011 H 0.10244 0.26107 0.86822 0.0
H5012 H 0.12475 0.27091 0.85397 0.0
H5013 H 0.1244 0.24681 0.80739 0.0
H5014 H 0.18282 0.2784 0.7643 0.0
H5015 H 0.15779 0.27367 0.77566 0.0
H5016 H 0.155 0.29963 0.8214 0.0
C5017 C 0.11391 0.2648 0.84733 0.0
C5018 C 0.13085 0.25844 0.81039 0.0
C5019 C 0.10117 0.25914 0.85548 0.0
C5020 C 0.18263 0.28222 0.77655 0.0
C5021 C 0.16833 0.27933 0.78311 0.0
C5022 C 0.14841 0.28808 0.81826 0.0
C5023 C 0.11277 0.2623 0.83084 0.0
C5024 C 0.12639 0.26802 0.82223 0.0
C5025 C 0.16775 0.28323 0.79919 0.0
C5026 C 0.15307 0.27836 0.80662 0.0
H5027 H 0.07505 0.24239 0.82411 0.0
H5028 H 0.09739 0.25212 0.80991 0.0
H5029 H 0.13187 0.29065 0.83495 0.0
H5030 H 0.20646 0.29936 0.80928 0.0
H5031 H 0.18157 0.29392 0.82084 0.0
C5032 C 0.56209 0.68372 0.95202 0.0
C5033 C 0.54864 0.69094 0.94914 0.0
C5034 C 0.56122 0.66927 0.95889 0.0
C5035 C 0.53518 0.64107 0.98203 0.0
H5036 H 0.5628 0.61268 0.97062 0.0
C5037 C 0.53864 0.58401 0.0153 0.0
C5038 C 0.54192 0.57064 0.00713 0.0
C5039 C 0.53921 0.59834 0.00826 0.0
C5040 C 0.55484 0.62029 0.97399 0.0
H5041 H 0.52356 0.68779 0.95194 0.0
H5042 H 0.52205 0.66298 0.96362 0.0
H5043 H 0.56414 0.63732 0.95862 0.0
H5044 H 0.54843 0.56259 0.98465 0.0
H5045 H 0.54939 0.58721 0.97252 0.0
H5046 H 0.52578 0.62398 0.99729 0.0
C5047 C 0.53344 0.66851 0.96062 0.0
C5048 C 0.55576 0.63475 0.96713 0.0
C5049 C 0.53429 0.6829 0.95363 0.0
C5050 C 0.54576 0.57238 0.99153 0.0
C5051 C 0.54645 0.58674 0.98452 0.0
C5052 C 0.53436 0.62667 0.98898 0.0
C5053 C 0.54688 0.66125 0.96342 0.0
C5054 C 0.54593 0.64556 0.97092 0.0
C5055 C 0.54323 0.60017 0.9927 0.0
C5056 C 0.54414 0.61583 0.98515 0.0
H5057 H 0.57342 0.68911 0.94875 0.0
H5058 H 0.572 0.6645 0.96083 0.0
H5059 H 0.52742 0.64881 0.98562 0.0
H5060 H 0.53571 0.58347 0.02731 0.0
H5061 H 0.5368 0.60815 0.01528 0.0
C5062 C 0.12453 0.77005 0.69849 0.0
C5063 C 0.11883 0.78391 0.69552 0.0
C5064 C 0.13998 0.77012 0.70598 0.0
C5065 C 0.18019 0.79575 0.71695 0.0
H5066 H 0.18773 0.76301 0.74366 0.0
C5067 C 0.24232 0.7967 0.75371 0.0
C5068 C 0.24751 0.78256 0.75635 0.0
C5069 C 0.22681 0.79714 0.74657 0.0
C5070 C 0.18605 0.77219 0.7361 0.0
H5071 H 0.12577 0.80886 0.69837 0.0
H5072 H 0.15229 0.80898 0.71155 0.0
H5073 H 0.16116 0.76323 0.73104 0.0
H5074 H 0.23988 0.75771 0.75322 0.0
H5075 H 0.21331 0.75844 0.74082 0.0
H5076 H 0.20513 0.8047 0.72203 0.0
C5077 C 0.14484 0.79793 0.70792 0.0
C5078 C 0.17059 0.77232 0.72876 0.0
C5079 C 0.12936 0.79786 0.70046 0.0
C5080 C 0.23652 0.7689 0.75157 0.0
C5081 C 0.22105 0.76933 0.74446 0.0
C5082 C 0.19568 0.79562 0.7243 0.0
C5083 C 0.15054 0.78405 0.71088 0.0
C5084 C 0.16727 0.78407 0.71895 0.0
C5085 C 0.21578 0.78345 0.74177 0.0
C5086 C 0.19901 0.7838 0.73401 0.0
H5087 H 0.11699 0.75898 0.69518 0.0
H5088 H 0.14367 0.7591 0.70772 0.0
H5089 H 0.17847 0.80493 0.70939 0.0
H5090 H 0.25026 0.80753 0.75715 0.0
H5091 H 0.22343 0.80832 0.74502 0.0
C5092 C 0.05145 0.35899 0.46497 0.0
C5093 C 0.05292 0.356 0.44876 0.0
C5094 C 0.05052 0.37399 0.47152 0.0
C5095 C 0.04356 0.41414 0.46031 0.0
H5096 H 0.05891 0.42608 0.50416 0.0
C5097 C 0.0346 0.47385 0.49071 0.0
C5098 C 0.0456 0.48134 0.50332 0.0
C5099 C 0.03542 0.45882 0.48416 0.0
C5100 C 0.05464 0.42318 0.49183 0.0
H5101 H 0.05426 0.36747 0.42697 0.0
H5102 H 0.0531 0.39321 0.43827 0.0
H5103 H 0.06077 0.4005 0.49289 0.0
H5104 H 0.06629 0.47822 0.51864 0.0
H5105 H 0.06789 0.45252 0.50726 0.0
H5106 H 0.03779 0.43696 0.45914 0.0
C5107 C 0.05246 0.38389 0.44604 0.0
C5108 C 0.05551 0.40816 0.48531 0.0
C5109 C 0.05338 0.3689 0.43949 0.0
C5110 C 0.05749 0.47307 0.50903 0.0
C5111 C 0.05833 0.45806 0.50247 0.0
C5112 C 0.04268 0.42916 0.46683 0.0
C5113 C 0.051 0.38689 0.46225 0.0
C5114 C 0.05001 0.4032 0.46936 0.0
C5115 C 0.04731 0.45048 0.48986 0.0
C5116 C 0.04821 0.43413 0.48278 0.0
H5117 H 0.05118 0.34974 0.47281 0.0
H5118 H 0.04922 0.37535 0.48396 0.0
H5119 H 0.03892 0.41111 0.44809 0.0
H5120 H 0.02518 0.47957 0.48588 0.0
H5121 H 0.02646 0.45367 0.47471 0.0
C5122 C 0.45045 0.28936 0.20046 0.0
C5123 C 0.45536 0.2758 0.1944 0.0
C5124 C 0.43655 0.28885 0.20824 0.0
C5125 C 0.40489 0.26112 0.2264 0.0
H5126 H 0.38334 0.2964 0.22679 0.0
C5127 C 0.34247 0.25907 0.25119 0.0
C5128 C 0.33888 0.27262 0.2587 0.0
C5129 C 0.35652 0.25922 0.24368 0.0
C5130 C 0.38918 0.28642 0.22705 0.0
H5131 H 0.44849 0.2508 0.19251 0.0
H5132 H 0.42443 0.24996 0.20527 0.0
H5133 H 0.40706 0.29711 0.21342 0.0
H5134 H 0.34801 0.29708 0.26386 0.0
H5135 H 0.37211 0.29735 0.251 0.0
H5136 H 0.38673 0.25037 0.23985 0.0
C5137 C 0.43149 0.26117 0.20429 0.0
C5138 C 0.40307 0.28683 0.21927 0.0
C5139 C 0.44545 0.26168 0.19659 0.0
C5140 C 0.35008 0.2863 0.25836 0.0
C5141 C 0.36403 0.28649 0.25075 0.0
C5142 C 0.39091 0.26067 0.23407 0.0
C5143 C 0.4266 0.27474 0.21037 0.0
C5144 C 0.4114 0.27422 0.21875 0.0
C5145 C 0.36763 0.27298 0.24313 0.0
C5146 C 0.3827 0.27333 0.23467 0.0
H5147 H 0.45725 0.30061 0.19908 0.0
H5148 H 0.43377 0.29971 0.21274 0.0
H5149 H 0.41071 0.25113 0.22677 0.0
H5150 H 0.3343 0.24826 0.25097 0.0
H5151 H 0.35847 0.24851 0.23796 0.0
C5152 C 0.61147 0.49612 0.39145 0.0
C5153 C 0.62776 0.50182 0.39505 0.0
C5154 C 0.60207 0.49205 0.40347 0.0
C5155 C 0.60309 0.48485 0.44587 0.0
H5156 H 0.56788 0.5073 0.44466 0.0
C5157 C 0.57981 0.50772 0.50144 0.0
C5158 C 0.56389 0.50964 0.50088 0.0
C5159 C 0.58563 0.50199 0.48806 0.0
C5160 C 0.57737 0.50059 0.44509 0.0
H5161 H 0.64721 0.50669 0.41378 0.0
H5162 H 0.63079 0.49977 0.43482 0.0
H5163 H 0.58182 0.50526 0.42155 0.0
H5164 H 0.54129 0.50596 0.48624 0.0
H5165 H 0.55138 0.49566 0.46297 0.0
H5166 H 0.59893 0.48064 0.46966 0.0
C5167 C 0.62527 0.49837 0.42273 0.0
C5168 C 0.58539 0.49944 0.43181 0.0
C5169 C 0.63464 0.50251 0.41073 0.0
C5170 C 0.55368 0.50486 0.48696 0.0
C5171 C 0.55947 0.49898 0.47362 0.0
C5172 C 0.59498 0.4859 0.45916 0.0
C5173 C 0.60883 0.49353 0.41927 0.0
C5174 C 0.59865 0.49202 0.43224 0.0
C5175 C 0.57561 0.49791 0.47387 0.0
C5176 C 0.58238 0.49425 0.45908 0.0
H5177 H 0.60584 0.49552 0.37945 0.0
H5178 H 0.58944 0.48826 0.40048 0.0
H5179 H 0.61316 0.47889 0.44643 0.0
H5180 H 0.58795 0.51121 0.51202 0.0
H5181 H 0.59817 0.50151 0.48864 0.0
C5182 C 0.29947 0.82203 0.11175 0.0
C5183 C 0.30478 0.83775 0.1098 0.0
C5184 C 0.29965 0.8166 0.12682 0.0
C5185 C 0.31866 0.82476 0.16736 0.0
H5186 H 0.28037 0.79989 0.17849 0.0
C5187 C 0.31237 0.80681 0.23096 0.0
C5188 C 0.30373 0.79208 0.23259 0.0
C5189 C 0.31273 0.81271 0.21609 0.0
C5190 C 0.29126 0.80661 0.17554 0.0
H5191 H 0.31435 0.86006 0.12234 0.0
H5192 H 0.31509 0.85042 0.14852 0.0
H5193 H 0.28087 0.80911 0.15218 0.0
H5194 H 0.28911 0.77179 0.21987 0.0
H5195 H 0.29018 0.78177 0.19406 0.0
H5196 H 0.32922 0.82198 0.19054 0.0
C5197 C 0.31084 0.84235 0.13834 0.0
C5198 C 0.2915 0.81193 0.16046 0.0
C5199 C 0.31047 0.84783 0.12331 0.0
C5200 C 0.2957 0.78327 0.21906 0.0
C5201 C 0.29624 0.78906 0.20423 0.0
C5202 C 0.3185 0.81926 0.18239 0.0
C5203 C 0.30533 0.82672 0.14024 0.0
C5204 C 0.30519 0.82103 0.15622 0.0
C5205 C 0.30462 0.8039 0.20254 0.0
C5206 C 0.3048 0.81008 0.18667 0.0
H5207 H 0.29528 0.81387 0.10164 0.0
H5208 H 0.29549 0.80444 0.12797 0.0
H5209 H 0.32941 0.83168 0.16432 0.0
H5210 H 0.31861 0.8139 0.24119 0.0
H5211 H 0.31915 0.82427 0.21529 0.0
C5212 C 1.00891 0.58066 0.88578 0.0
C5213 C 1.00221 0.56991 0.87315 0.0
C5214 C 0.01803 0.57611 0.89857 0.0
C5215 C 0.02202 0.54139 0.91899 0.0
H5216 H 0.05808 0.56785 0.94298 0.0
C5217 C 0.04782 0.52431 0.97836 0.0
C5218 C 0.04954 0.53605 0.99058 0.0
C5219 C 0.04596 0.52784 0.96263 0.0
C5220 C 0.04804 0.56033 0.93637 0.0
H5221 H 1.00068 0.54634 0.86336 0.0
H5222 H 0.01661 0.5384 0.88566 0.0
H5223 H 0.04725 0.57545 0.91761 0.0
H5224 H 0.05173 0.5608 0.99591 0.0
H5225 H 0.04815 0.56688 0.96857 0.0
H5226 H 0.0223 0.5266 0.93791 0.0
C5227 C 0.01453 0.55023 0.88588 0.0
C5228 C 0.04185 0.56469 0.92189 0.0
C5229 C 1.00539 0.55475 0.87316 0.0
C5230 C 0.05031 0.55147 0.98677 0.0
C5231 C 0.04841 0.55498 0.97106 0.0
C5232 C 0.02818 0.53707 0.93344 0.0
C5233 C 0.02066 0.56076 0.89887 0.0
C5234 C 0.02855 0.55542 0.91323 0.0
C5235 C 0.04576 0.54316 0.95884 0.0
C5236 C 0.04101 0.54666 0.94247 0.0
H5237 H 1.00662 0.59241 0.88604 0.0
H5238 H 0.02245 0.58444 0.9085 0.0
H5239 H 1.01162 0.53411 0.91272 0.0
H5240 H 0.04735 0.51233 0.98092 0.0
H5241 H 0.04419 0.51852 0.95344 0.0
C5242 C 0.29747 0.19412 0.61238 0.0
C5243 C 0.31174 0.19659 0.60527 0.0
C5244 C 0.29627 0.20124 0.62739 0.0
C5245 C 0.32065 0.22034 0.66469 0.0
H5246 H 0.28212 0.23519 0.6729 0.0
C5247 C 0.31643 0.25428 0.72519 0.0
C5248 C 0.3016 0.25416 0.73095 0.0
C5249 C 0.31768 0.2475 0.71002 0.0
C5250 C 0.29295 0.23094 0.67111 0.0
H5251 H 0.33601 0.20875 0.60909 0.0
H5252 H 0.33396 0.22098 0.6351 0.0
H5253 H 0.2842 0.22313 0.64701 0.0
H5254 H 0.2764 0.24638 0.72478 0.0
H5255 H 0.2785 0.23423 0.69888 0.0
H5256 H 0.32933 0.22775 0.6888 0.0
C5257 C 0.32361 0.21348 0.62903 0.0
C5258 C 0.29416 0.22398 0.65601 0.0
C5259 C 0.32475 0.20652 0.6139 0.0
C5260 C 0.28807 0.24688 0.72091 0.0
C5261 C 0.28931 0.23994 0.70581 0.0
C5262 C 0.31938 0.22713 0.67985 0.0
C5263 C 0.30933 0.21103 0.63612 0.0
C5264 C 0.30804 0.21854 0.65243 0.0
C5265 C 0.30415 0.24009 0.69991 0.0
C5266 C 0.30551 0.23265 0.68348 0.0
H5267 H 0.28706 0.18674 0.60625 0.0
H5268 H 0.28506 0.19884 0.63228 0.0
H5269 H 0.3315 0.21618 0.6627 0.0
H5270 H 0.3272 0.2598 0.73236 0.0
H5271 H 0.32938 0.24835 0.7062 0.0
C5272 C 0.60756 0.54093 0.24979 0.0
C5273 C 0.61073 0.52781 0.25722 0.0
C5274 C 0.59647 0.53943 0.23646 0.0
C5275 C 0.57613 0.51037 0.20463 0.0
H5276 H 0.55468 0.54435 0.19371 0.0
C5277 C 0.53623 0.53339 0.1492 0.0
C5278 C 0.54453 0.52848 0.13706 0.0
C5279 C 0.54061 0.53057 0.16484 0.0
C5280 C 0.56024 0.53455 0.19663 0.0
H5281 H 0.60449 0.50294 0.25717 0.0
H5282 H 0.58455 0.50028 0.23428 0.0
H5283 H 0.56865 0.54478 0.21984 0.0
H5284 H 0.56362 0.51651 0.13164 0.0
H5285 H 0.57162 0.51208 0.15873 0.0
H5286 H 0.5673 0.4999 0.1816 0.0
C5287 C 0.59097 0.5117 0.23831 0.0
C5288 C 0.56855 0.53495 0.21159 0.0
C5289 C 0.60232 0.51319 0.25145 0.0
C5290 C 0.55685 0.52021 0.14074 0.0
C5291 C 0.56139 0.51761 0.15634 0.0
C5292 C 0.56754 0.50981 0.1898 0.0
C5293 C 0.58807 0.52478 0.23047 0.0
C5294 C 0.57715 0.52317 0.21557 0.0
C5295 C 0.55357 0.52305 0.16866 0.0
C5296 C 0.56002 0.52219 0.18536 0.0
H5297 H 0.61401 0.5523 0.25401 0.0
H5298 H 0.59491 0.54975 0.2306 0.0
H5299 H 0.58259 0.50107 0.20716 0.0
H5300 H 0.5266 0.5397 0.14662 0.0
H5301 H 0.5341 0.53466 0.17396 0.0
C5302 C 0.29961 0.83123 0.94346 0.0
C5303 C 0.28593 0.8321 0.95097 0.0
C5304 C 0.29844 0.82653 0.92744 0.0
C5305 C 0.27028 0.80703 0.89357 0.0
H5306 H 0.30266 0.82715 0.86957 0.0
C5307 C 0.27796 0.78458 0.83025 0.0
C5308 C 0.28393 0.79531 0.81982 0.0
C5309 C 0.27669 0.78937 0.8459 0.0
C5310 C 0.29335 0.82154 0.87598 0.0
H5311 H 0.26021 0.82832 0.94741 0.0
H5312 H 0.25821 0.82073 0.9193 0.0
H5313 H 0.30334 0.83492 0.89732 0.0
H5314 H 0.29232 0.8196 0.81734 0.0
H5315 H 0.28953 0.82804 0.84439 0.0
H5316 H 0.25999 0.79402 0.87201 0.0
C5317 C 0.26986 0.82342 0.9259 0.0
C5318 C 0.29391 0.82582 0.89204 0.0
C5319 C 0.27102 0.82797 0.94201 0.0
C5320 C 0.28787 0.81102 0.82515 0.0
C5321 C 0.28638 0.81583 0.84071 0.0
C5322 C 0.26962 0.80285 0.87742 0.0
C5323 C 0.28358 0.82278 0.91838 0.0
C5324 C 0.28252 0.8185 0.90111 0.0
C5325 C 0.28116 0.80503 0.85142 0.0
C5326 C 0.28123 0.80996 0.86843 0.0
H5327 H 0.31132 0.83454 0.94985 0.0
H5328 H 0.30927 0.8259 0.92217 0.0
H5329 H 0.26135 0.80105 0.90018 0.0
H5330 H 0.2749 0.77237 0.82652 0.0
H5331 H 0.27279 0.78067 0.8538 0.0
C5332 C 0.02881 0.59152 0.73624 0.0
C5333 C 1.01223 0.59043 0.73476 0.0
C5334 C 0.03624 0.58571 0.72394 0.0
C5335 C 0.02856 0.55406 0.69498 0.0
H5336 H 0.05972 0.57555 0.67052 0.0
C5337 C 0.03981 0.529 0.635 0.0
C5338 C 0.05489 0.53244 0.62985 0.0
C5339 C 0.03682 0.53547 0.64941 0.0
C5340 C 0.05131 0.5693 0.67748 0.0
H5341 H 0.99052 0.58313 0.71904 0.0
H5342 H 1.0035 0.57292 0.69767 0.0
H5343 H 0.05049 0.58965 0.69234 0.0
H5344 H 0.07891 0.54479 0.63612 0.0
H5345 H 0.0738 0.55577 0.66162 0.0
H5346 H 0.0293 0.53371 0.68041 0.0
C5347 C 1.0107 0.57834 0.70829 0.0
C5348 C 0.04598 0.57741 0.68986 0.0
C5349 C 1.00333 0.58432 0.72044 0.0
C5350 C 0.06717 0.54187 0.63981 0.0
C5351 C 0.0642 0.54831 0.65432 0.0
C5352 C 0.03404 0.54591 0.68283 0.0
C5353 C 0.02711 0.57854 0.71016 0.0
C5354 C 0.03422 0.56991 0.69833 0.0
C5355 C 0.0489 0.54544 0.65912 0.0
C5356 C 0.04508 0.55353 0.67359 0.0
H5357 H 0.03591 0.59618 0.74718 0.0
H5358 H 0.04893 0.58596 0.72554 0.0
H5359 H 0.01966 0.54803 0.70161 0.0
H5360 H 0.03017 0.5216 0.62768 0.0
H5361 H 0.02484 0.53314 0.65261 0.0
C5362 C 0.32538 0.20156 0.43475 0.0
C5363 C 0.31158 0.19579 0.44177 0.0
C5364 C 0.32461 0.20855 0.42017 0.0
C5365 C 0.29601 0.21325 0.38419 0.0
H5366 H 0.33033 0.24483 0.37529 0.0
C5367 C 0.2968 0.23761 0.32135 0.0
C5368 C 0.30382 0.25308 0.31975 0.0
C5369 C 0.29808 0.23079 0.33596 0.0
C5370 C 0.32049 0.23613 0.37746 0.0
H5371 H 0.28592 0.19309 0.43793 0.0
H5372 H 0.28462 0.20539 0.41316 0.0
H5373 H 0.33163 0.2333 0.40056 0.0
H5374 H 0.31788 0.27328 0.33301 0.0
H5375 H 0.32004 0.2616 0.35829 0.0
H5376 H 0.28469 0.21631 0.36129 0.0
C5377 C 0.2962 0.20438 0.41881 0.0
C5378 C 0.32134 0.22925 0.3921 0.0
C5379 C 0.29696 0.19741 0.43338 0.0
C5380 C 0.31237 0.26135 0.33348 0.0
C5381 C 0.31364 0.25453 0.34814 0.0
C5382 C 0.29517 0.2201 0.36957 0.0
C5383 C 0.30999 0.21014 0.41177 0.0
C5384 C 0.30912 0.21762 0.39589 0.0
C5385 C 0.30642 0.23908 0.34982 0.0
C5386 C 0.30739 0.23172 0.36576 0.0
H5387 H 0.33697 0.20089 0.44059 0.0
H5388 H 0.33563 0.21253 0.41541 0.0
H5389 H 0.28633 0.20429 0.38619 0.0
H5390 H 0.29011 0.23066 0.31125 0.0
H5391 H 0.29254 0.21886 0.33628 0.0
C5392 C 0.36027 0.62215 0.50599 0.0
C5393 C 0.35254 0.6245 0.51941 0.0
C5394 C 0.37138 0.61224 0.50602 0.0
C5395 C 0.39733 0.59312 0.53278 0.0
H5396 H 0.39872 0.56709 0.4949 0.0
C5397 C 0.43772 0.54685 0.53076 0.0
C5398 C 0.44671 0.54703 0.51789 0.0
C5399 C 0.42545 0.55544 0.53102 0.0
C5400 C 0.39851 0.57435 0.50553 0.0
H5401 H 0.35023 0.61822 0.54334 0.0
H5402 H 0.36948 0.60074 0.54337 0.0
H5403 H 0.37892 0.58394 0.49536 0.0
H5404 H 0.44957 0.55587 0.49499 0.0
H5405 H 0.42814 0.57087 0.49544 0.0
H5406 H 0.41692 0.58343 0.54293 0.0
C5407 C 0.36721 0.60679 0.53291 0.0
C5408 C 0.38722 0.58404 0.50579 0.0
C5409 C 0.35618 0.61679 0.5329 0.0
C5410 C 0.44291 0.55563 0.50512 0.0
C5411 C 0.43058 0.5641 0.50531 0.0
C5412 C 0.40856 0.58333 0.53254 0.0
C5413 C 0.37491 0.60436 0.51944 0.0
C5414 C 0.38659 0.59366 0.51937 0.0
C5415 C 0.42184 0.56424 0.51834 0.0
C5416 C 0.40936 0.57396 0.51887 0.0
H5417 H 0.35784 0.62811 0.4955 0.0
H5418 H 0.37731 0.61089 0.49556 0.0
H5419 H 0.39733 0.60052 0.54335 0.0
H5420 H 0.44047 0.54041 0.54081 0.0
H5421 H 0.41882 0.55525 0.54115 0.0
C5422 C 0.86986 0.95972 0.54283 0.0
C5423 C 0.86267 0.94703 0.53218 0.0
C5424 C 0.88567 0.96711 0.54222 0.0
C5425 C 0.91868 0.97155 0.51568 0.0
H5426 H 0.94512 0.98816 0.55421 0.0
C5427 C 0.98668 0.99551 0.51572 0.0
C5428 C 0.99418 0.00772 0.52677 0.0
C5429 C 0.9708 0.98833 0.51632 0.0
C5430 C 0.93796 0.98383 0.54323 0.0
H5431 H 0.86742 0.93223 0.51263 0.0
H5432 H 0.89456 0.94502 0.51152 0.0
H5433 H 0.91785 0.97562 0.55537 0.0
H5434 H 0.99025 0.0218 0.54717 0.0
H5435 H 0.96277 0.00963 0.54807 0.0
H5436 H 0.93872 0.97981 0.50351 0.0
C5437 C 0.88788 0.94951 0.52026 0.0
C5438 C 0.92213 0.97653 0.54391 0.0
C5439 C 0.8721 0.94209 0.5209 0.0
C5440 C 0.98509 0.01248 0.5384 0.0
C5441 C 0.9692 1.00533 0.539 0.0
C5442 C 0.93449 0.97888 0.51499 0.0
C5443 C 0.89505 0.9622 0.53089 0.0
C5444 C 0.91211 0.97019 0.53016 0.0
C5445 C 0.96167 0.99303 0.528 0.0
C5446 C 0.94454 0.98518 0.52874 0.0
H5447 H 0.86318 0.9642 0.55158 0.0
H5448 H 0.89043 0.97693 0.55052 0.0
H5449 H 0.91151 0.96717 0.50471 0.0
H5450 H 0.99314 0.99132 0.5066 0.0
H5451 H 0.9658 0.97883 0.50772 0.0
C5452 C 0.84805 0.07741 0.2371 0.0
C5453 C 0.85452 0.07163 0.25083 0.0
C5454 C 0.83799 0.08828 0.23808 0.0
C5455 C 0.81321 0.10576 0.26453 0.0
H5456 H 0.82483 0.14243 0.24226 0.0
C5457 C 0.79676 0.16462 0.28242 0.0
C5458 C 0.79362 0.17445 0.27057 0.0
C5459 C 0.80159 0.1506 0.27865 0.0
C5460 C 0.82118 0.13217 0.24832 0.0
H5461 H 0.85523 0.07251 0.27635 0.0
H5462 H 0.83762 0.09136 0.27803 0.0
H5463 H 0.83771 0.1202 0.23789 0.0
H5464 H 0.7922 0.17703 0.2454 0.0
H5465 H 0.80047 0.15245 0.23876 0.0
H5466 H 0.79689 0.11788 0.2752 0.0
C5467 C 0.84017 0.08736 0.26649 0.0
C5468 C 0.82858 0.11943 0.24581 0.0
C5469 C 0.85028 0.07655 0.26552 0.0
C5470 C 0.79483 0.16977 0.2548 0.0
C5471 C 0.79956 0.15571 0.25101 0.0
C5472 C 0.80574 0.1185 0.26699 0.0
C5473 C 0.83415 0.09353 0.25282 0.0
C5474 C 0.8249 0.10622 0.25412 0.0
C5475 C 0.80328 0.1461 0.26293 0.0
C5476 C 0.80988 0.13196 0.25914 0.0
H5477 H 0.85086 0.07363 0.22559 0.0
H5478 H 0.83335 0.09272 0.22734 0.0
H5479 H 0.81001 0.09564 0.27094 0.0
H5480 H 0.79604 0.16801 0.29468 0.0
H5481 H 0.80459 0.14357 0.28814 0.0
C5482 C 0.69526 0.12515 0.01618 0.0
C5483 C 0.70516 0.12532 1.00406 0.0
C5484 C 0.67975 0.11706 0.0138 0.0
C5485 C 0.65404 0.08492 0.98962 0.0
H5486 H 0.62144 0.10119 0.0102 0.0
C5487 C 0.58898 0.05229 0.99289 0.0
C5488 C 0.58619 0.05094 0.00875 0.0
C5489 C 0.60254 0.06198 0.98912 0.0
C5490 C 0.63038 0.09659 1.00423 0.0
H5491 H 0.70649 0.1171 0.97988 0.0
H5492 H 0.6792 0.10308 0.97564 0.0
H5493 H 0.64711 0.11754 0.00937 0.0
H5494 H 0.5954 0.0588 0.03302 0.0
H5495 H 0.61862 0.07571 0.02639 0.0
H5496 H 0.63722 0.06379 0.98487 0.0
C5497 C 0.68354 0.10916 0.98703 0.0
C5498 C 0.6451 0.10588 1.00385 0.0
C5499 C 0.69911 0.11729 0.98942 0.0
C5500 C 0.59716 0.05945 0.02068 0.0
C5501 C 0.61044 0.06926 0.01691 0.0
C5502 C 0.6392 0.07564 0.98988 0.0
C5503 C 0.67369 0.10897 0.99921 0.0
C5504 C 0.65732 0.09996 0.99712 0.0
C5505 C 0.61323 0.07068 1.00114 0.0
C5506 C 0.62748 0.08125 0.99771 0.0
H5507 H 0.69946 0.13137 0.02753 0.0
H5508 H 0.67259 0.11694 0.02354 0.0
H5509 H 0.66321 0.08 0.98438 0.0
H5510 H 0.58072 0.04588 0.98345 0.0
H5511 H 0.60454 0.06291 0.97686 0.0
C5512 C 0.1677 0.41923 0.30197 0.0
C5513 C 0.15779 0.41542 0.2877 0.0
C5514 C 0.18078 0.41198 0.30528 0.0
C5515 C 0.20822 0.39247 0.28466 0.0
H5516 H 0.22238 0.3817 0.32649 0.0
C5517 C 0.26918 0.37502 0.29806 0.0
C5518 C 0.26948 0.36178 0.30645 0.0
C5519 C 0.25586 0.38223 0.29722 0.0
C5520 C 0.21854 0.3846 0.31473 0.0
H5521 H 0.15328 0.40047 0.2661 0.0
H5522 H 0.17606 0.38765 0.27194 0.0
H5523 H 0.19747 0.39148 0.322 0.0
H5524 H 0.25629 0.34599 0.32094 0.0
H5525 H 0.23306 0.35854 0.31945 0.0
H5526 H 0.22906 0.38532 0.27728 0.0
C5527 C 0.17389 0.39647 0.28043 0.0
C5528 C 0.20434 0.3903 0.31219 0.0
C5529 C 0.16082 0.40375 0.27711 0.0
C5530 C 0.2565 0.35631 0.31457 0.0
C5531 C 0.24317 0.36349 0.31369 0.0
C5532 C 0.22239 0.38679 0.2872 0.0
C5533 C 0.18422 0.40076 0.29438 0.0
C5534 C 0.19902 0.39427 0.29711 0.0
C5535 C 0.24255 0.3763 0.30469 0.0
C5536 C 0.22773 0.38281 0.30226 0.0
H5537 H 0.16583 0.42837 0.31025 0.0
H5538 H 0.1886 0.41567 0.31604 0.0
H5539 H 0.20459 0.39564 0.27296 0.0
H5540 H 0.2791 0.37959 0.29185 0.0
H5541 H 0.25587 0.39228 0.29045 0.0
C5542 C 0.20193 0.45864 0.03444 0.0
C5543 C 0.20103 0.44239 0.03332 0.0
C5544 C 0.18822 0.46562 0.03477 0.0
C5545 C 0.14304 0.45728 0.02644 0.0
H5546 H 0.14598 0.4968 0.04992 0.0
C5547 C 0.08601 0.48544 0.03427 0.0
C5548 C 0.08742 0.50172 0.03586 0.0
C5549 C 0.09953 0.47812 0.03399 0.0
C5550 C 0.14479 0.48586 0.04306 0.0
H5551 H 0.18405 0.42102 0.03193 0.0
H5552 H 0.16052 0.433 0.03242 0.0
H5553 H 0.16938 0.48469 0.04931 0.0
H5554 H 0.10483 0.5228 0.03825 0.0
H5555 H 0.12797 0.5103 0.03754 0.0
H5556 H 0.11845 0.45848 0.02016 0.0
C5557 C 0.1719 0.44048 0.03281 0.0
C5558 C 0.15844 0.4788 0.04271 0.0
C5559 C 0.18561 0.4335 0.03251 0.0
C5560 C 0.10298 0.51029 0.0371 0.0
C5561 C 0.11646 0.50299 0.0368 0.0
C5562 C 0.12938 0.46436 0.02675 0.0
C5563 C 0.17282 0.45674 0.03397 0.0
C5564 C 0.15796 0.46433 0.03437 0.0
C5565 C 0.11515 0.48671 0.03528 0.0
C5566 C 0.12988 0.47888 0.03504 0.0
H5567 H 0.21329 0.46615 0.0348 0.0
H5568 H 0.18977 0.47811 0.03538 0.0
H5569 H 0.14189 0.44632 0.01963 0.0
H5570 H 0.0744 0.47827 0.0333 0.0
H5571 H 0.09766 0.46561 0.033 0.0
C5572 C 0.87472 0.93111 0.26582 0.0
C5573 C 0.88186 0.93594 0.25247 0.0
C5574 C 0.86764 0.91573 0.26641 0.0
C5575 C 0.84456 0.88537 0.25855 0.0
H5576 H 0.86763 0.85194 0.2503 0.0
C5577 C 0.81487 0.82173 0.25557 0.0
C5578 C 0.82268 0.81256 0.26558 0.0
C5579 C 0.8225 0.83629 0.25238 0.0
C5580 C 0.86108 0.86119 0.25258 0.0
H5581 H 0.88755 0.92857 0.2294 0.0
H5582 H 0.87531 0.90146 0.23054 0.0
H5583 H 0.88021 0.87876 0.24804 0.0
H5584 H 0.84487 0.81114 0.27945 0.0
H5585 H 0.85826 0.83663 0.27369 0.0
H5586 H 0.82547 0.86791 0.26316 0.0
C5587 C 0.87513 0.90964 0.24047 0.0
C5588 C 0.86821 0.87646 0.25121 0.0
C5589 C 0.88201 0.9251 0.23978 0.0
C5590 C 0.83852 0.81797 0.27177 0.0
C5591 C 0.84621 0.8325 0.26841 0.0
C5592 C 0.83736 0.87013 0.25969 0.0
C5593 C 0.86778 0.90488 0.25374 0.0
C5594 C 0.86006 0.88867 0.25438 0.0
C5595 C 0.83814 0.8419 0.25897 0.0
C5596 C 0.8456 0.85792 0.25686 0.0
H5597 H 0.87438 0.93929 0.27571 0.0
H5598 H 0.86213 0.91229 0.27681 0.0
H5599 H 0.83802 0.89461 0.26094 0.0
H5600 H 0.80267 0.81789 0.25059 0.0
H5601 H 0.81608 0.84329 0.24494 0.0
C5602 C 0.65616 0.06362 0.74471 0.0
C5603 C 0.66402 0.05083 0.74547 0.0
C5604 C 0.6648 0.07861 0.74543 0.0
C5605 C 0.70362 0.10036 0.76139 0.0
H5606 H 0.69208 0.13268 0.73586 0.0
C5607 C 0.74448 0.15886 0.76029 0.0
C5608 C 0.73763 0.17221 0.75888 0.0
C5609 C 0.73497 0.1443 0.75933 0.0
C5610 C 0.6953 0.12384 0.74325 0.0
H5611 H 0.687 0.04367 0.74649 0.0
H5612 H 0.70208 0.06986 0.74778 0.0
H5613 H 0.6766 0.10659 0.73147 0.0
H5614 H 0.71543 0.18085 0.75591 0.0
H5615 H 0.69872 0.15536 0.75461 0.0
H5616 H 0.72221 0.11752 0.77326 0.0
C5617 C 0.68926 0.06828 0.74691 0.0
C5618 C 0.68649 0.1089 0.74067 0.0
C5619 C 0.68063 0.0533 0.74613 0.0
C5620 C 0.72103 0.17076 0.75712 0.0
C5621 C 0.71149 0.15616 0.75617 0.0
C5622 C 0.71236 0.11528 0.76402 0.0
C5623 C 0.68144 0.0811 0.74699 0.0
C5624 C 0.69067 0.09698 0.74962 0.0
C5625 C 0.71837 0.14276 0.75701 0.0
C5626 C 0.70841 0.12716 0.75489 0.0
H5627 H 0.64339 0.06213 0.74441 0.0
H5628 H 0.65847 0.08828 0.74555 0.0
H5629 H 0.7069 0.09148 0.76871 0.0
H5630 H 0.75724 0.15963 0.76184 0.0
H5631 H 0.74067 0.13423 0.75989 0.0
loop_
_geom_bond_atom_site_label_1
_geom_bond_atom_site_label_2
_geom_bond_distance
_geom_bond_site_symmetry_2
_ccdc_geom_bond_type
Li0 N17 1.990 1_455 S
Li0 O60 1.956 . S
Li0 O61 1.970 . S
Li0 O62 1.961 . S
Li1 N25 1.990 . S
Li1 O60 1.970 . S
Li1 O61 1.956 . S
Li1 O63 1.961 . S
Li2 N47 1.990 . S
Li2 O60 1.961 . S
Li2 O62 1.956 . S
Li2 O63 1.970 . S
Li3 N53 1.990 . S
Li3 O61 1.961 . S
Li3 O62 1.970 . S
Li3 O63 1.956 . S
C4 C6 1.348 . S
C4 C7 1.356 . S
C4 O60 1.325 . S
N5 C8 1.314 . S
N5 C9 1.279 . S
C6 C4 1.348 . S
C6 C8 1.353 . S
C6 H64 0.929 . S
C7 C4 1.356 . S
C7 C9 1.358 . S
C7 H65 0.930 . S
C8 N5 1.314 . S
C8 C6 1.353 . S
C8 H66 0.930 . S
C9 N5 1.279 . S
C9 C7 1.358 . S
C9 H67 0.930 . S
C10 C13 1.348 1_455 S
C10 C14 1.356 . S
C10 O61 1.325 . S
C11 N12 1.279 . S
C11 C14 1.358 1_655 S
C11 H68 0.930 . S
N12 C11 1.279 . S
N12 C15 1.314 . S
C13 C10 1.348 1_655 S
C13 C15 1.353 . S
C13 H69 0.929 . S
C14 C10 1.356 . S
C14 C11 1.358 1_455 S
C14 H70 0.930 . S
C15 N12 1.314 . S
C15 C13 1.353 . S
C15 H71 0.930 . S
C16 N17 1.314 . S
C16 C21 1.353 . S
C16 H22 0.930 . S
N17 Li0 1.990 1_655 S
N17 C16 1.314 . S
N17 C19 1.279 . S
C18 C19 1.358 . S
C18 C20 1.356 . S
C18 H72 0.930 . S
C19 N17 1.279 . S
C19 C18 1.358 . S
C19 H23 0.930 . S
C20 C18 1.356 . S
C20 C21 1.348 . S
C21 C16 1.353 . S
C21 C20 1.348 . S
C21 H73 0.929 . S
H22 C16 0.930 . S
H23 C19 0.930 . S
C24 N25 1.314 . S
C24 C26 1.353 . S
C24 H30 0.930 . S
N25 Li1 1.990 . S
N25 C24 1.314 . S
N25 C28 1.279 . S
C26 C24 1.353 . S
C26 C29 1.348 . S
C26 H74 0.929 . S
C27 C28 1.358 . S
C27 C29 1.356 . S
C27 H75 0.930 . S
C28 N25 1.279 . S
C28 C27 1.358 . S
C28 H31 0.930 . S
C29 C26 1.348 . S
C29 C27 1.356 . S
H30 C24 0.930 . S
H31 C28 0.930 . S
C32 C34 1.348 . S
C32 C35 1.356 . S
C32 O62 1.325 . S
N33 C36 1.314 . S
N33 C37 1.279 . S
C34 C32 1.348 . S
C34 C36 1.353 . S
C34 H76 0.929 . S
C35 C32 1.356 . S
C35 C37 1.358 . S
C35 H77 0.930 . S
C36 N33 1.314 . S
C36 C34 1.353 . S
C36 H78 0.930 . S
C37 N33 1.279 . S
C37 C35 1.358 . S
C37 H79 0.930 . S
C38 C39 1.348 . S
C38 C40 1.356 . S
C38 O63 1.325 . S
C39 C38 1.348 . S
C39 C41 1.353 . S
C39 H80 0.929 . S
C40 C38 1.356 . S
C40 C42 1.358 . S
C40 H81 0.930 . S
C41 C39 1.353 . S
C41 N43 1.314 . S
C41 H82 0.930 . S
C42 C40 1.358 . S
C42 N43 1.279 . S
C42 H83 0.930 . S
N43 C41 1.314 . S
N43 C42 1.279 . S
C44 C46 1.353 . S
C44 N47 1.314 . S
C44 H50 0.930 . S
C45 N47 1.279 . S
C45 C48 1.358 . S
C45 H51 0.930 . S
C46 C44 1.353 . S
C46 C49 1.348 . S
C46 H84 0.929 . S
N47 Li2 1.990 . S
N47 C44 1.314 . S
N47 C45 1.279 . S
C48 C45 1.358 . S
C48 C49 1.356 . S
C48 H85 0.930 . S
C49 C46 1.348 . S
C49 C48 1.356 . S
H50 C44 0.930 . S
H51 C45 0.930 . S
C52 N53 1.314 . S
C52 C54 1.353 . S
C52 H58 0.930 . S
N53 Li3 1.990 . S
N53 C52 1.314 . S
N53 C56 1.279 . S
C54 C52 1.353 . S
C54 C57 1.348 . S
C54 H86 0.929 . S
C55 C56 1.358 . S
C55 C57 1.356 . S
C55 H87 0.930 . S
C56 N53 1.279 . S
C56 C55 1.358 . S
C56 H59 0.930 . S
C57 C54 1.348 . S
C57 C55 1.356 . S
H58 C52 0.930 . S
H59 C56 0.930 . S
O60 Li0 1.956 . S
O60 Li1 1.970 . S
O60 Li2 1.961 . S
O60 C4 1.325 . S
O61 Li0 1.970 . S
O61 Li1 1.956 . S
O61 Li3 1.961 . S
O61 C10 1.325 . S
O62 Li0 1.961 . S
O62 Li2 1.956 . S
O62 Li3 1.970 . S
O62 C32 1.325 . S
O63 Li1 1.961 . S
O63 Li2 1.970 . S
O63 Li3 1.956 . S
O63 C38 1.325 . S
H64 C6 0.929 . S
H65 C7 0.930 . S
H66 C8 0.930 . S
H67 C9 0.930 . S
H68 C11 0.930 . S
H69 C13 0.929 . S
H70 C14 0.930 . S
H71 C15 0.930 . S
H72 C18 0.930 . S
H73 C21 0.929 . S
H74 C26 0.929 . S
H75 C27 0.930 . S
H76 C34 0.929 . S
H77 C35 0.930 . S
H78 C36 0.930 . S
H79 C37 0.930 . S
H80 C39 0.929 . S
H81 C40 0.930 . S
H82 C41 0.930 . S
H83 C42 0.930 . S
H84 C46 0.929 . S
H85 C48 0.930 . S
H86 C54 0.929 . S
H87 C55 0.930 . S
Li88 N105 1.990 . S
Li88 O148 1.956 . S
Li88 O149 1.970 . S
Li88 O150 1.961 . S
Li89 N113 1.990 . S
Li89 O148 1.970 . S
Li89 O149 1.956 . S
Li89 O151 1.961 . S
Li90 N135 1.990 . S
Li90 O148 1.961 . S
Li90 O150 1.956 . S
Li90 O151 1.970 . S
Li91 N141 1.990 1_455 S
Li91 O149 1.961 . S
Li91 O150 1.970 . S
Li91 O151 1.956 . S
C92 C94 1.348 . S
C92 C95 1.356 . S
C92 O148 1.325 . S
N93 C96 1.314 . S
N93 C97 1.279 . S
C94 C92 1.348 . S
C94 C96 1.353 . S
C94 H152 0.929 . S
C95 C92 1.356 . S
C95 C97 1.358 . S
C95 H153 0.930 . S
C96 N93 1.314 . S
C96 C94 1.353 . S
C96 H154 0.930 . S
C97 N93 1.279 . S
C97 C95 1.358 . S
C97 H155 0.930 . S
C98 C101 1.348 . S
C98 C102 1.356 . S
C98 O149 1.325 . S
C99 N100 1.279 . S
C99 C102 1.358 . S
C99 H156 0.930 . S
N100 C99 1.279 . S
N100 C103 1.314 . S
C101 C98 1.348 . S
C101 C103 1.353 . S
C101 H157 0.929 . S
C102 C98 1.356 . S
C102 C99 1.358 . S
C102 H158 0.930 . S
C103 N100 1.314 . S
C103 C101 1.353 . S
C103 H159 0.930 . S
C104 N105 1.314 . S
C104 C109 1.353 . S
C104 H110 0.930 . S
N105 Li88 1.990 . S
N105 C104 1.314 . S
N105 C107 1.279 . S
C106 C107 1.358 . S
C106 C108 1.356 . S
C106 H160 0.930 . S
C107 N105 1.279 . S
C107 C106 1.358 . S
C107 H111 0.930 . S
C108 C106 1.356 . S
C108 C109 1.348 . S
C109 C104 1.353 . S
C109 C108 1.348 . S
C109 H161 0.929 . S
H110 C104 0.930 . S
H111 C107 0.930 . S
C112 N113 1.314 . S
C112 C114 1.353 . S
C112 H118 0.930 . S
N113 Li89 1.990 . S
N113 C112 1.314 . S
N113 C116 1.279 . S
C114 C112 1.353 . S
C114 C117 1.348 . S
C114 H162 0.929 . S
C115 C116 1.358 . S
C115 C117 1.356 . S
C115 H163 0.930 . S
C116 N113 1.279 . S
C116 C115 1.358 . S
C116 H119 0.930 . S
C117 C114 1.348 . S
C117 C115 1.356 . S
H118 C112 0.930 . S
H119 C116 0.930 . S
C120 C122 1.375 . S
C120 C123 1.357 . S
C120 O150 1.301 1_655 S
N121 C124 1.314 . S
N121 C125 1.279 . S
C122 C120 1.375 . S
C122 C124 1.353 . S
C122 H164 0.929 . S
C123 C120 1.357 . S
C123 C125 1.393 . S
C123 H165 0.892 1_655 S
C124 N121 1.314 . S
C124 C122 1.353 . S
C124 H166 0.930 . S
C125 N121 1.279 . S
C125 C123 1.393 . S
C125 H167 0.930 . S
C126 C127 1.348 . S
C126 C128 1.356 . S
C126 O151 1.325 . S
C127 C126 1.348 . S
C127 C129 1.353 . S
C127 H168 0.929 . S
C128 C126 1.356 . S
C128 C130 1.358 . S
C128 H169 0.930 . S
C129 C127 1.353 . S
C129 N131 1.314 . S
C129 H170 0.930 . S
C130 C128 1.358 . S
C130 N131 1.279 . S
C130 H171 0.930 . S
N131 C129 1.314 . S
N131 C130 1.279 . S
C132 C134 1.353 . S
C132 N135 1.314 . S
C132 H138 0.930 . S
C133 N135 1.279 . S
C133 C136 1.358 . S
C133 H139 0.930 . S
C134 C132 1.353 . S
C134 C137 1.348 . S
C134 H172 0.929 . S
N135 Li90 1.990 . S
N135 C132 1.314 . S
N135 C133 1.279 . S
C136 C133 1.358 . S
C136 C137 1.356 . S
C136 H173 0.914 1_455 S
C137 C134 1.348 . S
C137 C136 1.356 . S
H138 C132 0.930 . S
H139 C133 0.930 . S
C140 N141 1.314 . S
C140 C142 1.353 . S
C140 H146 0.930 . S
N141 Li91 1.990 1_655 S
N141 C140 1.314 . S
N141 C144 1.279 . S
C142 C140 1.353 . S
C142 C145 1.348 . S
C142 H174 0.929 . S
C143 C144 1.358 . S
C143 C145 1.356 . S
C143 H175 0.930 . S
C144 N141 1.279 . S
C144 C143 1.358 . S
C144 H147 0.930 . S
C145 C142 1.348 . S
C145 C143 1.356 . S
H146 C140 0.930 . S
H147 C144 0.930 . S
O148 Li88 1.956 . S
O148 Li89 1.970 . S
O148 Li90 1.961 . S
O148 C92 1.325 . S
O149 Li88 1.970 . S
O149 Li89 1.956 . S
O149 Li91 1.961 . S
O149 C98 1.325 . S
O150 Li88 1.961 . S
O150 Li90 1.956 . S
O150 Li91 1.970 . S
O150 C120 1.301 1_455 S
O151 Li89 1.961 . S
O151 Li90 1.970 . S
O151 Li91 1.956 . S
O151 C126 1.325 . S
H152 C94 0.929 . S
H153 C95 0.930 . S
H154 C96 0.930 . S
H155 C97 0.930 . S
H156 C99 0.930 . S
H157 C101 0.929 . S
H158 C102 0.930 . S
H159 C103 0.930 . S
H160 C106 0.930 . S
H161 C109 0.929 . S
H162 C114 0.929 . S
H163 C115 0.930 . S
H164 C122 0.929 . S
H165 C123 0.892 1_455 S
H166 C124 0.930 . S
H167 C125 0.930 . S
H168 C127 0.929 . S
H169 C128 0.930 . S
H170 C129 0.930 . S
H171 C130 0.930 . S
H172 C134 0.929 . S
H173 C136 0.914 1_655 S
H174 C142 0.929 . S
H175 C143 0.930 . S
Li176 N193 1.990 . S
Li176 O236 1.956 . S
Li176 O237 1.970 . S
Li176 O238 1.961 . S
Li177 N201 1.990 . S
Li177 O236 1.970 . S
Li177 O237 1.956 . S
Li177 O239 1.961 . S
Li178 N223 1.990 . S
Li178 O236 1.961 . S
Li178 O238 1.956 . S
Li178 O239 1.970 . S
Li179 N229 1.990 . S
Li179 O237 1.961 . S
Li179 O238 1.970 . S
Li179 O239 1.956 . S
C180 C182 1.348 . S
C180 C183 1.356 . S
C180 O236 1.325 . S
N181 C184 1.314 . S
N181 C185 1.279 . S
C182 C180 1.348 . S
C182 C184 1.353 . S
C182 H240 0.929 . S
C183 C180 1.356 . S
C183 C185 1.358 . S
C183 H241 0.930 . S
C184 N181 1.314 . S
C184 C182 1.353 . S
C184 H242 0.930 . S
C185 N181 1.279 . S
C185 C183 1.358 . S
C185 H243 0.930 . S
C186 C189 1.348 . S
C186 C190 1.356 . S
C186 O237 1.325 . S
C187 N188 1.279 . S
C187 C190 1.358 . S
C187 H244 0.930 . S
N188 C187 1.279 . S
N188 C191 1.314 . S
C189 C186 1.348 . S
C189 C191 1.353 . S
C189 H245 0.929 . S
C190 C186 1.356 . S
C190 C187 1.358 . S
C190 H246 0.930 . S
C191 N188 1.314 . S
C191 C189 1.353 . S
C191 H247 0.930 . S
C192 N193 1.314 . S
C192 C197 1.353 . S
C192 H198 0.930 . S
N193 Li176 1.990 . S
N193 C192 1.314 . S
N193 C195 1.279 . S
C194 C195 1.358 . S
C194 C196 1.356 . S
C194 H248 0.930 . S
C195 N193 1.279 . S
C195 C194 1.358 . S
C195 H199 0.930 . S
C196 C194 1.356 . S
C196 C197 1.348 . S
C197 C192 1.353 . S
C197 C196 1.348 . S
C197 H249 0.929 . S
H198 C192 0.930 . S
H199 C195 0.930 . S
C200 N201 1.314 . S
C200 C202 1.353 . S
C200 H206 0.930 . S
N201 Li177 1.990 . S
N201 C200 1.314 . S
N201 C204 1.279 . S
C202 C200 1.353 . S
C202 C205 1.348 . S
C202 H250 0.929 . S
C203 C204 1.358 . S
C203 C205 1.356 . S
C203 H251 0.930 . S
C204 N201 1.279 . S
C204 C203 1.358 . S
C204 H207 0.930 . S
C205 C202 1.348 . S
C205 C203 1.356 . S
H206 C200 0.930 . S
H207 C204 0.930 . S
C208 C210 1.348 . S
C208 C211 1.356 . S
C208 O238 1.325 . S
N209 C212 1.314 . S
N209 C213 1.279 . S
C210 C208 1.348 . S
C210 C212 1.353 . S
C210 H252 0.929 . S
C211 C208 1.356 . S
C211 C213 1.358 . S
C211 H253 0.930 . S
C212 N209 1.314 . S
C212 C210 1.353 . S
C212 H254 0.930 . S
C213 N209 1.279 . S
C213 C211 1.358 . S
C213 H255 0.930 . S
C214 C215 1.348 . S
C214 C216 1.356 . S
C214 O239 1.325 . S
C215 C214 1.348 . S
C215 C217 1.353 . S
C215 H256 0.929 . S
C216 C214 1.356 . S
C216 C218 1.358 . S
C216 H257 0.930 . S
C217 C215 1.353 . S
C217 N219 1.314 . S
C217 H258 0.930 . S
C218 C216 1.358 . S
C218 N219 1.279 . S
C218 H259 0.930 . S
N219 C217 1.314 . S
N219 C218 1.279 . S
C220 C222 1.353 . S
C220 N223 1.314 . S
C220 H226 0.930 . S
C221 N223 1.279 . S
C221 C224 1.358 . S
C221 H227 0.930 . S
C222 C220 1.353 . S
C222 C225 1.348 . S
C222 H260 0.929 . S
N223 Li178 1.990 . S
N223 C220 1.314 . S
N223 C221 1.279 . S
C224 C221 1.358 . S
C224 C225 1.356 . S
C224 H261 0.930 . S
C225 C222 1.348 . S
C225 C224 1.356 . S
H226 C220 0.930 . S
H227 C221 0.930 . S
C228 N229 1.314 . S
C228 C230 1.353 . S
C228 H234 0.930 . S
N229 Li179 1.990 . S
N229 C228 1.314 . S
N229 C232 1.279 . S
C230 C228 1.353 . S
C230 C233 1.348 . S
C230 H262 0.929 . S
C231 C232 1.358 . S
C231 C233 1.356 . S
C231 H263 0.930 . S
C232 N229 1.279 . S
C232 C231 1.358 . S
C232 H235 0.930 . S
C233 C230 1.348 . S
C233 C231 1.356 . S
H234 C228 0.930 . S
H235 C232 0.930 . S
O236 Li176 1.956 . S
O236 Li177 1.970 . S
O236 Li178 1.961 . S
O236 C180 1.325 . S
O237 Li176 1.970 . S
O237 Li177 1.956 . S
O237 Li179 1.961 . S
O237 C186 1.325 . S
O238 Li176 1.961 . S
O238 Li178 1.956 . S
O238 Li179 1.970 . S
O238 C208 1.325 . S
O239 Li177 1.961 . S
O239 Li178 1.970 . S
O239 Li179 1.956 . S
O239 C214 1.325 . S
H240 C182 0.929 . S
H241 C183 0.930 . S
H242 C184 0.930 . S
H243 C185 0.930 . S
H244 C187 0.930 . S
H245 C189 0.929 . S
H246 C190 0.930 . S
H247 C191 0.930 . S
H248 C194 0.930 . S
H249 C197 0.929 . S
H250 C202 0.929 . S
H251 C203 0.930 . S
H252 C210 0.929 . S
H253 C211 0.930 . S
H254 C212 0.930 . S
H255 C213 0.930 . S
H256 C215 0.929 . S
H257 C216 0.930 . S
H258 C217 0.930 . S
H259 C218 0.930 . S
H260 C222 0.929 . S
H261 C224 0.930 . S
H262 C230 0.929 . S
H263 C231 0.930 . S
Li264 N281 1.990 . S
Li264 O324 1.956 . S
Li264 O325 1.970 . S
Li264 O326 1.961 . S
Li265 N289 1.990 . S
Li265 O324 1.970 . S
Li265 O325 1.956 . S
Li265 O327 1.961 . S
Li266 N311 1.990 . S
Li266 O324 1.961 . S
Li266 O326 1.956 . S
Li266 O327 1.970 . S
Li267 N317 1.990 . S
Li267 O325 1.961 . S
Li267 O326 1.970 . S
Li267 O327 1.956 . S
C268 C270 1.348 . S
C268 C271 1.356 . S
C268 O324 1.325 . S
N269 C272 1.314 . S
N269 C273 1.279 . S
C270 C268 1.348 . S
C270 C272 1.353 . S
C270 H328 0.929 . S
C271 C268 1.356 . S
C271 C273 1.358 . S
C271 H329 0.930 . S
C272 N269 1.314 . S
C272 C270 1.353 . S
C272 H330 0.930 . S
C273 N269 1.279 . S
C273 C271 1.358 . S
C273 H331 0.930 . S
C274 C277 1.348 . S
C274 C278 1.356 . S
C274 O325 1.325 . S
C275 N276 1.279 . S
C275 C278 1.358 . S
C275 H332 0.930 . S
N276 C275 1.279 . S
N276 C279 1.314 . S
C277 C274 1.348 . S
C277 C279 1.353 . S
C277 H333 0.929 . S
C278 C274 1.356 . S
C278 C275 1.358 . S
C278 H334 0.930 . S
C279 N276 1.314 . S
C279 C277 1.353 . S
C279 H335 0.930 . S
C280 N281 1.314 . S
C280 C285 1.353 . S
C280 H286 0.930 . S
N281 Li264 1.990 . S
N281 C280 1.314 . S
N281 C283 1.279 . S
C282 C283 1.358 . S
C282 C284 1.356 . S
C282 H336 0.930 . S
C283 N281 1.279 . S
C283 C282 1.358 . S
C283 H287 0.930 . S
C284 C282 1.356 . S
C284 C285 1.348 . S
C285 C280 1.353 . S
C285 C284 1.348 . S
C285 H337 0.929 . S
H286 C280 0.930 . S
H287 C283 0.930 . S
C288 N289 1.314 . S
C288 C290 1.353 . S
C288 H294 0.930 . S
N289 Li265 1.990 . S
N289 C288 1.314 . S
N289 C292 1.279 . S
C290 C288 1.353 . S
C290 C293 1.348 . S
C290 H338 0.929 . S
C291 C292 1.358 . S
C291 C293 1.356 . S
C291 H339 0.930 . S
C292 N289 1.279 . S
C292 C291 1.358 . S
C292 H295 0.930 . S
C293 C290 1.348 . S
C293 C291 1.356 . S
H294 C288 0.930 . S
H295 C292 0.930 . S
C296 C298 1.348 . S
C296 C299 1.356 . S
C296 O326 1.325 . S
N297 C300 1.314 . S
N297 C301 1.279 . S
C298 C296 1.348 . S
C298 C300 1.353 . S
C298 H340 0.929 . S
C299 C296 1.356 . S
C299 C301 1.358 . S
C299 H341 0.930 . S
C300 N297 1.314 . S
C300 C298 1.353 . S
C300 H342 0.930 . S
C301 N297 1.279 . S
C301 C299 1.358 . S
C301 H343 0.930 . S
C302 C303 1.348 . S
C302 C304 1.356 . S
C302 O327 1.325 . S
C303 C302 1.348 . S
C303 C305 1.353 . S
C303 H344 0.929 . S
C304 C302 1.356 . S
C304 C306 1.358 . S
C304 H345 0.930 . S
C305 C303 1.353 . S
C305 N307 1.314 . S
C305 H346 0.930 . S
C306 C304 1.358 . S
C306 N307 1.279 . S
C306 H347 0.930 . S
N307 C305 1.314 . S
N307 C306 1.279 . S
C308 C310 1.353 . S
C308 N311 1.314 . S
C308 H314 0.930 . S
C309 N311 1.279 . S
C309 C312 1.358 . S
C309 H315 0.930 . S
C310 C308 1.353 . S
C310 C313 1.348 . S
C310 H348 0.929 . S
N311 Li266 1.990 . S
N311 C308 1.314 . S
N311 C309 1.279 . S
C312 C309 1.358 . S
C312 C313 1.356 . S
C312 H349 0.930 . S
C313 C310 1.348 . S
C313 C312 1.356 . S
H314 C308 0.930 . S
H315 C309 0.930 . S
C316 N317 1.314 . S
C316 C318 1.353 . S
C316 H322 0.930 . S
N317 Li267 1.990 . S
N317 C316 1.314 . S
N317 C320 1.279 . S
C318 C316 1.353 . S
C318 C321 1.348 . S
C318 H350 0.929 . S
C319 C320 1.358 . S
C319 C321 1.356 . S
C319 H351 0.930 . S
C320 N317 1.279 . S
C320 C319 1.358 . S
C320 H323 0.930 . S
C321 C318 1.348 . S
C321 C319 1.356 . S
H322 C316 0.930 . S
H323 C320 0.930 . S
O324 Li264 1.956 . S
O324 Li265 1.970 . S
O324 Li266 1.961 . S
O324 C268 1.325 . S
O325 Li264 1.970 . S
O325 Li265 1.956 . S
O325 Li267 1.961 . S
O325 C274 1.325 . S
O326 Li264 1.961 . S
O326 Li266 1.956 . S
O326 Li267 1.970 . S
O326 C296 1.325 . S
O327 Li265 1.961 . S
O327 Li266 1.970 . S
O327 Li267 1.956 . S
O327 C302 1.325 . S
H328 C270 0.929 . S
H329 C271 0.930 . S
H330 C272 0.930 . S
H331 C273 0.930 . S
H332 C275 0.930 . S
H333 C277 0.929 . S
H334 C278 0.930 . S
H335 C279 0.930 . S
H336 C282 0.930 . S
H337 C285 0.929 . S
H338 C290 0.929 . S
H339 C291 0.930 . S
H340 C298 0.929 . S
H341 C299 0.930 . S
H342 C300 0.930 . S
H343 C301 0.930 . S
H344 C303 0.929 . S
H345 C304 0.930 . S
H346 C305 0.930 . S
H347 C306 0.930 . S
H348 C310 0.929 . S
H349 C312 0.930 . S
H350 C318 0.929 . S
H351 C319 0.930 . S
Li352 N369 1.990 . S
Li352 O412 1.956 . S
Li352 O413 1.970 . S
Li352 O414 1.961 . S
Li353 N377 1.990 . S
Li353 O412 1.970 . S
Li353 O413 1.956 . S
Li353 O415 1.961 . S
Li354 N399 1.990 . S
Li354 O412 1.961 . S
Li354 O414 1.956 . S
Li354 O415 1.970 . S
Li355 N405 1.990 . S
Li355 O413 1.961 . S
Li355 O414 1.970 . S
Li355 O415 1.956 . S
C356 C358 1.348 . S
C356 C359 1.356 . S
C356 O412 1.325 . S
N357 C360 1.314 . S
N357 C361 1.279 . S
C358 C356 1.348 . S
C358 C360 1.353 . S
C358 H416 0.929 . S
C359 C356 1.356 . S
C359 C361 1.358 . S
C359 H417 0.930 . S
C360 N357 1.314 . S
C360 C358 1.353 . S
C360 H418 0.930 . S
C361 N357 1.279 . S
C361 C359 1.358 . S
C361 H419 0.930 . S
C362 C365 1.348 . S
C362 C366 1.356 . S
C362 O413 1.325 . S
C363 N364 1.279 . S
C363 C366 1.358 . S
C363 H420 0.930 . S
N364 C363 1.279 . S
N364 C367 1.314 . S
C365 C362 1.348 . S
C365 C367 1.353 . S
C365 H421 0.929 . S
C366 C362 1.356 . S
C366 C363 1.358 . S
C366 H422 0.930 . S
C367 N364 1.314 . S
C367 C365 1.353 . S
C367 H423 0.930 . S
C368 N369 1.314 . S
C368 C373 1.353 . S
C368 H374 0.930 . S
N369 Li352 1.990 . S
N369 C368 1.314 . S
N369 C371 1.279 . S
C370 C371 1.358 . S
C370 C372 1.356 . S
C370 H424 0.930 . S
C371 N369 1.279 . S
C371 C370 1.358 . S
C371 H375 0.930 . S
C372 C370 1.356 . S
C372 C373 1.348 . S
C373 C368 1.353 . S
C373 C372 1.348 . S
C373 H425 0.929 . S
H374 C368 0.930 . S
H375 C371 0.930 . S
C376 N377 1.314 . S
C376 C378 1.353 . S
C376 H382 0.930 . S
N377 Li353 1.990 . S
N377 C376 1.314 . S
N377 C380 1.279 . S
C378 C376 1.353 . S
C378 C381 1.348 . S
C378 H426 0.929 . S
C379 C380 1.358 . S
C379 C381 1.356 . S
C379 H427 0.930 . S
C380 N377 1.279 . S
C380 C379 1.358 . S
C380 H383 0.930 . S
C381 C378 1.348 . S
C381 C379 1.356 . S
H382 C376 0.930 . S
H383 C380 0.930 . S
C384 C386 1.348 . S
C384 C387 1.356 . S
C384 O414 1.325 . S
N385 C388 1.314 . S
N385 C389 1.279 . S
C386 C384 1.348 . S
C386 C388 1.353 . S
C386 H428 0.929 . S
C387 C384 1.356 . S
C387 C389 1.358 . S
C387 H429 0.930 . S
C388 N385 1.314 . S
C388 C386 1.353 . S
C388 H430 0.930 1_455 S
C389 N385 1.279 . S
C389 C387 1.358 . S
C389 H431 0.930 . S
C390 C391 1.348 . S
C390 C392 1.356 . S
C390 O415 1.325 . S
C391 C390 1.348 . S
C391 C393 1.353 . S
C391 H432 0.929 . S
C392 C390 1.356 . S
C392 C394 1.358 . S
C392 H433 0.930 . S
C393 C391 1.353 . S
C393 N395 1.314 . S
C393 H434 0.930 . S
C394 C392 1.358 . S
C394 N395 1.279 . S
C394 H435 0.930 . S
N395 C393 1.314 . S
N395 C394 1.279 . S
C396 C398 1.353 . S
C396 N399 1.314 . S
C396 H402 0.930 . S
C397 N399 1.279 . S
C397 C400 1.358 . S
C397 H403 0.930 . S
C398 C396 1.353 . S
C398 C401 1.348 . S
C398 H436 0.929 . S
N399 Li354 1.990 . S
N399 C396 1.314 . S
N399 C397 1.279 . S
C400 C397 1.358 . S
C400 C401 1.356 . S
C400 H437 0.930 . S
C401 C398 1.348 . S
C401 C400 1.356 . S
H402 C396 0.930 . S
H403 C397 0.930 . S
C404 N405 1.314 . S
C404 C406 1.353 . S
C404 H410 0.930 . S
N405 Li355 1.990 . S
N405 C404 1.314 . S
N405 C408 1.279 . S
C406 C404 1.353 . S
C406 C409 1.348 . S
C406 H438 0.929 . S
C407 C408 1.358 . S
C407 C409 1.356 . S
C407 H439 0.930 . S
C408 N405 1.279 . S
C408 C407 1.358 . S
C408 H411 0.930 . S
C409 C406 1.348 . S
C409 C407 1.356 . S
H410 C404 0.930 . S
H411 C408 0.930 . S
O412 Li352 1.956 . S
O412 Li353 1.970 . S
O412 Li354 1.961 . S
O412 C356 1.325 . S
O413 Li352 1.970 . S
O413 Li353 1.956 . S
O413 Li355 1.961 . S
O413 C362 1.325 . S
O414 Li352 1.961 . S
O414 Li354 1.956 . S
O414 Li355 1.970 . S
O414 C384 1.325 . S
O415 Li353 1.961 . S
O415 Li354 1.970 . S
O415 Li355 1.956 . S
O415 C390 1.325 . S
H416 C358 0.929 . S
H417 C359 0.930 . S
H418 C360 0.930 . S
H419 C361 0.930 . S
H420 C363 0.930 . S
H421 C365 0.929 . S
H422 C366 0.930 . S
H423 C367 0.930 . S
H424 C370 0.930 . S
H425 C373 0.929 . S
H426 C378 0.929 . S
H427 C379 0.930 . S
H428 C386 0.929 . S
H429 C387 0.930 . S
H430 C388 0.930 1_655 S
H431 C389 0.930 . S
H432 C391 0.929 . S
H433 C392 0.930 . S
H434 C393 0.930 . S
H435 C394 0.930 . S
H436 C398 0.929 . S
H437 C400 0.930 . S
H438 C406 0.929 . S
H439 C407 0.930 . S
Li440 N457 1.990 . S
Li440 O500 1.956 . S
Li440 O501 1.970 . S
Li440 O502 1.961 . S
Li441 N465 1.990 . S
Li441 O500 1.970 . S
Li441 O501 1.956 . S
Li441 O503 1.961 . S
Li442 N487 1.990 . S
Li442 O500 1.961 . S
Li442 O502 1.956 . S
Li442 O503 1.970 . S
Li443 N493 1.990 . S
Li443 O501 1.961 . S
Li443 O502 1.970 . S
Li443 O503 1.956 . S
C444 C446 1.348 . S
C444 C447 1.356 . S
C444 O500 1.325 . S
N445 C448 1.314 . S
N445 C449 1.279 . S
C446 C444 1.348 . S
C446 C448 1.353 . S
C446 H504 0.929 . S
C447 C444 1.356 . S
C447 C449 1.358 . S
C447 H505 0.930 . S
C448 N445 1.314 . S
C448 C446 1.353 . S
C448 H506 0.930 . S
C449 N445 1.279 . S
C449 C447 1.358 . S
C449 H507 0.930 . S
C450 C453 1.348 . S
C450 C454 1.356 . S
C450 O501 1.325 . S
C451 N452 1.279 . S
C451 C454 1.358 . S
C451 H508 0.930 . S
N452 C451 1.279 . S
N452 C455 1.314 . S
C453 C450 1.348 . S
C453 C455 1.353 . S
C453 H509 0.929 . S
C454 C450 1.356 . S
C454 C451 1.358 . S
C454 H510 0.930 . S
C455 N452 1.314 . S
C455 C453 1.353 . S
C455 H511 0.930 . S
C456 N457 1.314 . S
C456 C461 1.353 . S
C456 H462 0.930 . S
N457 Li440 1.990 . S
N457 C456 1.314 . S
N457 C459 1.279 . S
C458 C459 1.358 . S
C458 C460 1.356 . S
C458 H512 0.930 . S
C459 N457 1.279 . S
C459 C458 1.358 . S
C459 H463 0.930 . S
C460 C458 1.356 . S
C460 C461 1.348 . S
C461 C456 1.353 . S
C461 C460 1.348 . S
C461 H513 0.929 . S
H462 C456 0.930 . S
H463 C459 0.930 . S
C464 N465 1.314 . S
C464 C466 1.353 . S
C464 H470 0.930 . S
N465 Li441 1.990 . S
N465 C464 1.314 . S
N465 C468 1.279 . S
C466 C464 1.353 . S
C466 C469 1.348 . S
C466 H514 0.929 . S
C467 C468 1.358 . S
C467 C469 1.356 . S
C467 H515 0.930 . S
C468 N465 1.279 . S
C468 C467 1.358 . S
C468 H471 0.930 . S
C469 C466 1.348 . S
C469 C467 1.356 . S
H470 C464 0.930 . S
H471 C468 0.930 . S
C472 C474 1.348 . S
C472 C475 1.356 . S
C472 O502 1.325 . S
N473 C476 1.314 . S
N473 C477 1.279 . S
C474 C472 1.348 . S
C474 C476 1.353 . S
C474 H516 0.929 . S
C475 C472 1.356 . S
C475 C477 1.358 . S
C475 H517 0.930 . S
C476 N473 1.314 . S
C476 C474 1.353 . S
C476 H518 0.930 . S
C477 N473 1.279 . S
C477 C475 1.358 . S
C477 H519 0.930 . S
C478 C479 1.348 . S
C478 C480 1.356 . S
C478 O503 1.325 . S
C479 C478 1.348 . S
C479 C481 1.353 . S
C479 H520 0.929 . S
C480 C478 1.356 . S
C480 C482 1.358 . S
C480 H521 0.930 . S
C481 C479 1.353 . S
C481 N483 1.314 . S
C481 H522 0.930 . S
C482 C480 1.358 . S
C482 N483 1.279 . S
C482 H523 0.930 . S
N483 C481 1.314 . S
N483 C482 1.279 . S
C484 C486 1.353 . S
C484 N487 1.314 . S
C484 H490 0.930 . S
C485 N487 1.279 . S
C485 C488 1.358 . S
C485 H491 0.930 . S
C486 C484 1.353 . S
C486 C489 1.348 . S
C486 H524 0.929 . S
N487 Li442 1.990 . S
N487 C484 1.314 . S
N487 C485 1.279 . S
C488 C485 1.358 . S
C488 C489 1.356 . S
C488 H525 0.930 . S
C489 C486 1.348 . S
C489 C488 1.356 . S
H490 C484 0.930 . S
H491 C485 0.930 . S
C492 N493 1.314 . S
C492 C494 1.353 . S
C492 H498 0.930 . S
N493 Li443 1.990 . S
N493 C492 1.314 . S
N493 C496 1.279 . S
C494 C492 1.353 . S
C494 C497 1.348 . S
C494 H526 0.929 . S
C495 C496 1.358 . S
C495 C497 1.356 . S
C495 H527 0.930 . S
C496 N493 1.279 . S
C496 C495 1.358 . S
C496 H499 0.930 . S
C497 C494 1.348 . S
C497 C495 1.356 . S
H498 C492 0.930 . S
H499 C496 0.930 . S
O500 Li440 1.956 . S
O500 Li441 1.970 . S
O500 Li442 1.961 . S
O500 C444 1.325 . S
O501 Li440 1.970 . S
O501 Li441 1.956 . S
O501 Li443 1.961 . S
O501 C450 1.325 . S
O502 Li440 1.961 . S
O502 Li442 1.956 . S
O502 Li443 1.970 . S
O502 C472 1.325 . S
O503 Li441 1.961 . S
O503 Li442 1.970 . S
O503 Li443 1.956 . S
O503 C478 1.325 . S
H504 C446 0.929 . S
H505 C447 0.930 . S
H506 C448 0.930 . S
H507 C449 0.930 . S
H508 C451 0.930 . S
H509 C453 0.929 . S
H510 C454 0.930 . S
H511 C455 0.930 . S
H512 C458 0.930 . S
H513 C461 0.929 . S
H514 C466 0.929 . S
H515 C467 0.930 . S
H516 C474 0.929 . S
H517 C475 0.930 . S
H518 C476 0.930 . S
H519 C477 0.930 . S
H520 C479 0.929 . S
H521 C480 0.930 . S
H522 C481 0.930 . S
H523 C482 0.930 . S
H524 C486 0.929 . S
H525 C488 0.930 . S
H526 C494 0.929 . S
H527 C495 0.930 . S
Li528 N545 1.990 . S
Li528 O588 1.956 . S
Li528 O589 1.970 . S
Li528 O590 1.961 . S
Li529 N553 1.990 . S
Li529 O588 1.970 . S
Li529 O589 1.956 . S
Li529 O591 1.961 . S
Li530 N575 1.990 . S
Li530 O588 1.961 . S
Li530 O590 1.956 . S
Li530 O591 1.970 . S
Li531 N581 1.990 . S
Li531 O589 1.961 . S
Li531 O590 1.970 . S
Li531 O591 1.956 . S
C532 C534 1.348 . S
C532 C535 1.356 . S
C532 O588 1.325 . S
N533 C536 1.314 . S
N533 C537 1.279 . S
C534 C532 1.348 . S
C534 C536 1.353 . S
C534 H592 0.929 . S
C535 C532 1.356 . S
C535 C537 1.358 . S
C535 H593 0.930 . S
C536 N533 1.314 . S
C536 C534 1.353 . S
C536 H594 0.930 . S
C537 N533 1.279 . S
C537 C535 1.358 . S
C537 H595 0.930 . S
C538 C541 1.348 . S
C538 C542 1.356 . S
C538 O589 1.325 . S
C539 N540 1.279 . S
C539 C542 1.358 . S
C539 H596 0.930 . S
N540 C539 1.279 . S
N540 C543 1.314 . S
C541 C538 1.348 . S
C541 C543 1.353 . S
C541 H597 0.929 . S
C542 C538 1.356 . S
C542 C539 1.358 . S
C542 H598 0.930 . S
C543 N540 1.314 . S
C543 C541 1.353 . S
C543 H599 0.930 . S
C544 N545 1.314 . S
C544 C549 1.353 . S
C544 H550 0.930 . S
N545 Li528 1.990 . S
N545 C544 1.314 . S
N545 C547 1.279 . S
C546 C547 1.358 . S
C546 C548 1.356 . S
C546 H600 0.930 . S
C547 N545 1.279 . S
C547 C546 1.358 . S
C547 H551 0.930 . S
C548 C546 1.356 . S
C548 C549 1.348 . S
C549 C544 1.353 . S
C549 C548 1.348 . S
C549 H601 0.929 . S
H550 C544 0.930 . S
H551 C547 0.930 . S
C552 N553 1.314 . S
C552 C554 1.353 . S
C552 H558 0.930 . S
N553 Li529 1.990 . S
N553 C552 1.314 . S
N553 C556 1.279 . S
C554 C552 1.353 . S
C554 C557 1.348 . S
C554 H602 0.929 . S
C555 C556 1.358 . S
C555 C557 1.356 . S
C555 H603 0.930 . S
C556 N553 1.279 . S
C556 C555 1.358 . S
C556 H559 0.930 . S
C557 C554 1.348 . S
C557 C555 1.356 . S
H558 C552 0.930 . S
H559 C556 0.930 . S
C560 C562 1.348 . S
C560 C563 1.356 . S
C560 O590 1.325 . S
N561 C564 1.314 . S
N561 C565 1.279 . S
C562 C560 1.348 . S
C562 C564 1.353 . S
C562 H604 0.929 . S
C563 C560 1.356 . S
C563 C565 1.358 . S
C563 H605 0.930 . S
C564 N561 1.314 . S
C564 C562 1.353 . S
C564 H606 0.930 . S
C565 N561 1.279 . S
C565 C563 1.358 . S
C565 H607 0.930 . S
C566 C567 1.348 . S
C566 C568 1.356 . S
C566 O591 1.325 . S
C567 C566 1.348 . S
C567 C569 1.353 . S
C567 H608 0.929 . S
C568 C566 1.356 . S
C568 C570 1.358 . S
C568 H609 0.930 . S
C569 C567 1.353 . S
C569 N571 1.314 . S
C569 H610 0.930 . S
C570 C568 1.358 . S
C570 N571 1.279 . S
C570 H611 0.930 . S
N571 C569 1.314 . S
N571 C570 1.279 . S
C572 C574 1.353 . S
C572 N575 1.314 . S
C572 H578 0.930 . S
C573 N575 1.279 . S
C573 C576 1.358 . S
C573 H579 0.930 . S
C574 C572 1.353 . S
C574 C577 1.348 . S
C574 H612 0.929 . S
N575 Li530 1.990 . S
N575 C572 1.314 . S
N575 C573 1.279 . S
C576 C573 1.358 . S
C576 C577 1.356 . S
C576 H613 0.930 . S
C577 C574 1.348 . S
C577 C576 1.356 . S
H578 C572 0.930 . S
H579 C573 0.930 . S
C580 N581 1.314 . S
C580 C582 1.353 . S
C580 H586 0.930 . S
N581 Li531 1.990 . S
N581 C580 1.314 . S
N581 C584 1.279 . S
C582 C580 1.353 . S
C582 C585 1.348 . S
C582 H614 0.929 . S
C583 C584 1.358 . S
C583 C585 1.356 . S
C583 H615 0.930 . S
C584 N581 1.279 . S
C584 C583 1.358 . S
C584 H587 0.930 . S
C585 C582 1.348 . S
C585 C583 1.356 . S
H586 C580 0.930 . S
H587 C584 0.930 . S
O588 Li528 1.956 . S
O588 Li529 1.970 . S
O588 Li530 1.961 . S
O588 C532 1.325 . S
O589 Li528 1.970 . S
O589 Li529 1.956 . S
O589 Li531 1.961 . S
O589 C538 1.325 . S
O590 Li528 1.961 . S
O590 Li530 1.956 . S
O590 Li531 1.970 . S
O590 C560 1.325 . S
O591 Li529 1.961 . S
O591 Li530 1.970 . S
O591 Li531 1.956 . S
O591 C566 1.325 . S
H592 C534 0.929 . S
H593 C535 0.930 . S
H594 C536 0.930 . S
H595 C537 0.930 . S
H596 C539 0.930 . S
H597 C541 0.929 . S
H598 C542 0.930 . S
H599 C543 0.930 . S
H600 C546 0.930 . S
H601 C549 0.929 . S
H602 C554 0.929 . S
H603 C555 0.930 . S
H604 C562 0.929 . S
H605 C563 0.930 . S
H606 C564 0.930 . S
H607 C565 0.930 . S
H608 C567 0.929 . S
H609 C568 0.930 . S
H610 C569 0.930 . S
H611 C570 0.930 . S
H612 C574 0.929 . S
H613 C576 0.930 . S
H614 C582 0.929 . S
H615 C583 0.930 . S
Li616 N633 1.990 . S
Li616 O676 1.956 1_455 S
Li616 O677 1.970 . S
Li616 O678 1.961 . S
Li617 N641 1.990 . S
Li617 O676 1.970 . S
Li617 O677 1.956 1_655 S
Li617 O679 1.961 . S
Li618 N663 1.992 . S
Li618 O676 1.955 . S
Li618 O678 1.961 1_655 S
Li618 O679 1.970 . S
Li619 N669 1.990 . S
Li619 O677 1.961 . S
Li619 O678 1.970 . S
Li619 O679 1.956 1_455 S
C620 C622 1.348 . S
C620 C623 1.356 . S
C620 O676 1.325 . S
N621 C624 1.314 . S
N621 C625 1.279 . S
C622 C620 1.348 . S
C622 C624 1.353 . S
C622 H680 0.929 . S
C623 C620 1.356 . S
C623 C625 1.358 . S
C623 H681 0.930 . S
C624 N621 1.314 . S
C624 C622 1.353 . S
C624 H682 0.930 . S
C625 N621 1.279 . S
C625 C623 1.358 . S
C625 H683 0.930 . S
C626 C629 1.348 1_455 S
C626 C630 1.356 . S
C626 O677 1.325 . S
C627 N628 1.307 . S
C627 C630 1.358 . S
C627 H684 0.930 . S
N628 C627 1.307 . S
N628 C631 1.296 1_455 S
C629 C626 1.348 1_655 S
C629 C631 1.353 . S
C629 H685 0.929 . S
C630 C626 1.356 . S
C630 C627 1.358 . S
C630 H686 0.930 . S
C631 N628 1.296 1_655 S
C631 C629 1.353 . S
C631 H687 0.930 . S
C632 N633 1.314 . S
C632 C637 1.353 . S
C632 H638 0.930 . S
N633 Li616 1.990 . S
N633 C632 1.314 . S
N633 C635 1.279 1_455 S
C634 C635 1.358 . S
C634 C636 1.356 1_655 S
C634 H688 0.930 . S
C635 N633 1.279 1_655 S
C635 C634 1.358 . S
C635 H639 0.930 . S
C636 C634 1.356 1_455 S
C636 C637 1.348 . S
C637 C632 1.353 . S
C637 C636 1.348 . S
C637 H689 0.929 . S
H638 C632 0.930 . S
H639 C635 0.930 . S
C640 N641 1.314 . S
C640 C642 1.353 . S
C640 H646 0.930 . S
N641 Li617 1.990 . S
N641 C640 1.314 . S
N641 C644 1.279 . S
C642 C640 1.353 . S
C642 C645 1.348 . S
C642 H690 0.929 . S
C643 C644 1.358 . S
C643 C645 1.356 . S
C643 H691 0.930 . S
C644 N641 1.279 . S
C644 C643 1.358 . S
C644 H647 0.930 . S
C645 C642 1.348 . S
C645 C643 1.356 . S
H646 C640 0.930 . S
H647 C644 0.930 . S
C648 C650 1.348 . S
C648 C651 1.356 . S
C648 O678 1.325 . S
N649 C652 1.314 . S
N649 C653 1.279 . S
C650 C648 1.348 . S
C650 C652 1.353 . S
C650 H692 0.929 . S
C651 C648 1.356 . S
C651 C653 1.358 . S
C651 H693 0.930 . S
C652 N649 1.314 . S
C652 C650 1.353 . S
C652 H694 0.930 . S
C653 N649 1.279 . S
C653 C651 1.358 . S
C653 H695 0.930 . S
C654 C655 1.370 . S
C654 C656 1.356 . S
C654 O679 1.325 . S
C655 C654 1.370 . S
C655 C657 1.349 . S
C655 H696 0.916 1_655 S
C656 C654 1.356 . S
C656 C658 1.358 . S
C656 H697 0.930 . S
C657 C655 1.349 . S
C657 N659 1.314 . S
C657 H698 0.946 . S
C658 C656 1.358 . S
C658 N659 1.279 . S
C658 H699 0.930 . S
N659 C657 1.314 . S
N659 C658 1.279 . S
C660 C662 1.353 . S
C660 N663 1.332 . S
C660 H666 0.930 . S
C661 N663 1.261 1_455 S
C661 C664 1.358 . S
C661 H667 0.930 . S
C662 C660 1.353 . S
C662 C665 1.348 . S
C662 H700 0.929 . S
N663 Li618 1.992 . S
N663 C660 1.332 . S
N663 C661 1.261 1_655 S
C664 C661 1.358 . S
C664 C665 1.356 1_455 S
C664 H701 0.930 . S
C665 C662 1.348 . S
C665 C664 1.356 1_655 S
H666 C660 0.930 . S
H667 C661 0.930 . S
C668 N669 1.314 . S
C668 C670 1.353 . S
C668 H674 0.930 . S
N669 Li619 1.990 . S
N669 C668 1.314 . S
N669 C672 1.279 . S
C670 C668 1.353 . S
C670 C673 1.348 . S
C670 H702 0.929 . S
C671 C672 1.358 . S
C671 C673 1.356 . S
C671 H703 0.930 . S
C672 N669 1.279 . S
C672 C671 1.358 . S
C672 H675 0.930 . S
C673 C670 1.348 . S
C673 C671 1.356 . S
H674 C668 0.930 . S
H675 C672 0.930 . S
O676 Li616 1.956 1_655 S
O676 Li617 1.970 . S
O676 Li618 1.955 . S
O676 C620 1.325 . S
O677 Li616 1.970 . S
O677 Li617 1.956 1_455 S
O677 Li619 1.961 . S
O677 C626 1.325 . S
O678 Li616 1.961 . S
O678 Li618 1.961 1_455 S
O678 Li619 1.970 . S
O678 C648 1.325 . S
O679 Li617 1.961 . S
O679 Li618 1.970 . S
O679 Li619 1.956 1_655 S
O679 C654 1.325 . S
H680 C622 0.929 . S
H681 C623 0.930 . S
H682 C624 0.930 . S
H683 C625 0.930 . S
H684 C627 0.930 . S
H685 C629 0.929 . S
H686 C630 0.930 . S
H687 C631 0.930 . S
H688 C634 0.930 . S
H689 C637 0.929 . S
H690 C642 0.929 . S
H691 C643 0.930 . S
H692 C650 0.929 . S
H693 C651 0.930 . S
H694 C652 0.930 . S
H695 C653 0.930 . S
H696 C655 0.916 1_455 S
H697 C656 0.930 . S
H698 C657 0.946 . S
H699 C658 0.930 . S
H700 C662 0.929 . S
H701 C664 0.930 . S
H702 C670 0.929 . S
H703 C671 0.930 . S
Li704 N721 1.990 . S
Li704 O764 1.956 . S
Li704 O765 1.970 . S
Li704 O766 1.961 . S
Li705 N729 1.990 . S
Li705 O764 1.970 . S
Li705 O765 1.956 . S
Li705 O767 1.961 . S
Li706 N751 1.990 . S
Li706 O764 1.961 . S
Li706 O766 1.956 . S
Li706 O767 1.970 . S
Li707 N757 1.990 . S
Li707 O765 1.961 . S
Li707 O766 1.970 . S
Li707 O767 1.956 . S
C708 C710 1.348 1_545 S
C708 C711 1.356 . S
C708 O764 1.325 . S
N709 C712 1.314 . S
N709 C713 1.279 1_565 S
C710 C708 1.348 1_565 S
C710 C712 1.353 . S
C710 H768 0.929 . S
C711 C708 1.356 . S
C711 C713 1.358 . S
C711 H769 0.930 . S
C712 N709 1.314 . S
C712 C710 1.353 . S
C712 H770 0.930 . S
C713 N709 1.279 1_545 S
C713 C711 1.358 . S
C713 H771 0.930 . S
C714 C717 1.348 . S
C714 C718 1.356 . S
C714 O765 1.325 . S
C715 N716 1.279 . S
C715 C718 1.358 . S
C715 H772 0.930 . S
N716 C715 1.279 . S
N716 C719 1.314 . S
C717 C714 1.348 . S
C717 C719 1.353 . S
C717 H773 0.929 . S
C718 C714 1.356 . S
C718 C715 1.358 . S
C718 H774 0.930 . S
C719 N716 1.314 . S
C719 C717 1.353 . S
C719 H775 0.930 . S
C720 N721 1.314 . S
C720 C725 1.353 . S
C720 H726 0.930 . S
N721 Li704 1.990 . S
N721 C720 1.314 . S
N721 C723 1.279 . S
C722 C723 1.358 . S
C722 C724 1.356 . S
C722 H776 0.930 . S
C723 N721 1.279 . S
C723 C722 1.358 . S
C723 H727 0.930 . S
C724 C722 1.356 . S
C724 C725 1.348 . S
C725 C720 1.353 . S
C725 C724 1.348 . S
C725 H777 0.929 . S
H726 C720 0.930 . S
H727 C723 0.930 . S
C728 N729 1.314 1_565 S
C728 C730 1.353 . S
C728 H734 0.930 . S
N729 Li705 1.990 . S
N729 C728 1.314 1_545 S
N729 C732 1.279 1_545 S
C730 C728 1.353 . S
C730 C733 1.348 . S
C730 H778 0.929 . S
C731 C732 1.358 . S
C731 C733 1.356 . S
C731 H779 0.930 . S
C732 N729 1.279 1_565 S
C732 C731 1.358 . S
C732 H735 0.930 1_565 S
C733 C730 1.348 . S
C733 C731 1.356 . S
H734 C728 0.930 . S
H735 C732 0.930 1_545 S
C736 C738 1.348 . S
C736 C739 1.356 . S
C736 O766 1.325 . S
N737 C740 1.314 . S
N737 C741 1.279 . S
C738 C736 1.348 . S
C738 C740 1.353 . S
C738 H780 0.929 . S
C739 C736 1.356 . S
C739 C741 1.358 . S
C739 H781 0.930 . S
C740 N737 1.314 . S
C740 C738 1.353 . S
C740 H782 0.930 . S
C741 N737 1.279 . S
C741 C739 1.358 . S
C741 H783 0.930 . S
C742 C743 1.348 . S
C742 C744 1.356 . S
C742 O767 1.325 . S
C743 C742 1.348 . S
C743 C745 1.353 . S
C743 H784 0.929 . S
C744 C742 1.356 . S
C744 C746 1.358 . S
C744 H785 0.930 . S
C745 C743 1.353 . S
C745 N747 1.314 . S
C745 H786 0.930 . S
C746 C744 1.358 . S
C746 N747 1.279 . S
C746 H787 0.930 . S
N747 C745 1.314 . S
N747 C746 1.279 . S
C748 C750 1.353 . S
C748 N751 1.314 . S
C748 H754 0.930 . S
C749 N751 1.279 . S
C749 C752 1.358 . S
C749 H755 0.930 . S
C750 C748 1.353 . S
C750 C753 1.348 . S
C750 H788 0.929 . S
N751 Li706 1.990 . S
N751 C748 1.314 . S
N751 C749 1.279 . S
C752 C749 1.358 . S
C752 C753 1.356 . S
C752 H789 0.930 . S
C753 C750 1.348 . S
C753 C752 1.356 . S
H754 C748 0.930 . S
H755 C749 0.930 . S
C756 N757 1.314 . S
C756 C758 1.353 . S
C756 H762 0.930 . S
N757 Li707 1.990 . S
N757 C756 1.314 . S
N757 C760 1.279 . S
C758 C756 1.353 . S
C758 C761 1.348 . S
C758 H790 0.929 . S
C759 C760 1.358 . S
C759 C761 1.356 . S
C759 H791 0.930 . S
C760 N757 1.279 . S
C760 C759 1.358 . S
C760 H763 0.930 . S
C761 C758 1.348 . S
C761 C759 1.356 . S
H762 C756 0.930 . S
H763 C760 0.930 . S
O764 Li704 1.956 . S
O764 Li705 1.970 . S
O764 Li706 1.961 . S
O764 C708 1.325 . S
O765 Li704 1.970 . S
O765 Li705 1.956 . S
O765 Li707 1.961 . S
O765 C714 1.325 . S
O766 Li704 1.961 . S
O766 Li706 1.956 . S
O766 Li707 1.970 . S
O766 C736 1.325 . S
O767 Li705 1.961 . S
O767 Li706 1.970 . S
O767 Li707 1.956 . S
O767 C742 1.325 . S
H768 C710 0.929 . S
H769 C711 0.930 . S
H770 C712 0.930 . S
H771 C713 0.930 . S
H772 C715 0.930 . S
H773 C717 0.929 . S
H774 C718 0.930 . S
H775 C719 0.930 . S
H776 C722 0.930 . S
H777 C725 0.929 . S
H778 C730 0.929 . S
H779 C731 0.930 . S
H780 C738 0.929 . S
H781 C739 0.930 . S
H782 C740 0.930 . S
H783 C741 0.930 . S
H784 C743 0.929 . S
H785 C744 0.930 . S
H786 C745 0.930 . S
H787 C746 0.930 . S
H788 C750 0.929 . S
H789 C752 0.930 . S
H790 C758 0.929 . S
H791 C759 0.930 . S
Li792 N809 1.990 . S
Li792 O852 1.956 . S
Li792 O853 1.970 . S
Li792 O854 1.961 . S
Li793 N817 1.990 . S
Li793 O852 1.970 . S
Li793 O853 1.956 . S
Li793 O855 1.961 . S
Li794 N839 1.990 . S
Li794 O852 1.961 . S
Li794 O854 1.956 . S
Li794 O855 1.970 . S
Li795 N845 1.990 . S
Li795 O853 1.961 . S
Li795 O854 1.970 . S
Li795 O855 1.956 . S
C796 C798 1.348 . S
C796 C799 1.356 . S
C796 O852 1.325 . S
N797 C800 1.314 . S
N797 C801 1.279 . S
C798 C796 1.348 . S
C798 C800 1.353 . S
C798 H856 0.929 . S
C799 C796 1.356 . S
C799 C801 1.358 . S
C799 H857 0.930 . S
C800 N797 1.314 . S
C800 C798 1.353 . S
C800 H858 0.930 . S
C801 N797 1.279 . S
C801 C799 1.358 . S
C801 H859 0.930 . S
C802 C805 1.348 . S
C802 C806 1.356 . S
C802 O853 1.325 . S
C803 N804 1.279 . S
C803 C806 1.358 . S
C803 H860 0.930 . S
N804 C803 1.279 . S
N804 C807 1.314 . S
C805 C802 1.348 . S
C805 C807 1.353 . S
C805 H861 0.929 . S
C806 C802 1.356 . S
C806 C803 1.358 . S
C806 H862 0.930 . S
C807 N804 1.314 . S
C807 C805 1.353 . S
C807 H863 0.930 . S
C808 N809 1.314 . S
C808 C813 1.353 . S
C808 H814 0.930 . S
N809 Li792 1.990 . S
N809 C808 1.314 . S
N809 C811 1.279 . S
C810 C811 1.358 . S
C810 C812 1.356 . S
C810 H864 0.930 . S
C811 N809 1.279 . S
C811 C810 1.358 . S
C811 H815 0.930 . S
C812 C810 1.356 . S
C812 C813 1.348 . S
C813 C808 1.353 . S
C813 C812 1.348 . S
C813 H865 0.929 . S
H814 C808 0.930 . S
H815 C811 0.930 . S
C816 N817 1.314 . S
C816 C818 1.353 . S
C816 H822 0.930 . S
N817 Li793 1.990 . S
N817 C816 1.314 . S
N817 C820 1.279 . S
C818 C816 1.353 . S
C818 C821 1.348 . S
C818 H866 0.929 . S
C819 C820 1.358 . S
C819 C821 1.356 . S
C819 H867 0.930 . S
C820 N817 1.279 . S
C820 C819 1.358 . S
C820 H823 0.930 . S
C821 C818 1.348 . S
C821 C819 1.356 . S
H822 C816 0.930 . S
H823 C820 0.930 . S
C824 C826 1.348 . S
C824 C827 1.356 . S
C824 O854 1.325 . S
N825 C828 1.314 . S
N825 C829 1.279 . S
C826 C824 1.348 . S
C826 C828 1.353 . S
C826 H868 0.929 . S
C827 C824 1.356 . S
C827 C829 1.358 . S
C827 H869 0.930 . S
C828 N825 1.314 . S
C828 C826 1.353 . S
C828 H870 0.930 . S
C829 N825 1.279 . S
C829 C827 1.358 . S
C829 H871 0.930 . S
C830 C831 1.348 . S
C830 C832 1.356 . S
C830 O855 1.325 . S
C831 C830 1.348 . S
C831 C833 1.353 . S
C831 H872 0.929 . S
C832 C830 1.356 . S
C832 C834 1.358 . S
C832 H873 0.930 . S
C833 C831 1.353 . S
C833 N835 1.314 . S
C833 H874 0.930 . S
C834 C832 1.358 . S
C834 N835 1.279 . S
C834 H875 0.930 . S
N835 C833 1.314 . S
N835 C834 1.279 . S
C836 C838 1.353 . S
C836 N839 1.314 . S
C836 H842 0.930 . S
C837 N839 1.279 . S
C837 C840 1.358 . S
C837 H843 0.930 . S
C838 C836 1.353 . S
C838 C841 1.348 . S
C838 H876 0.929 . S
N839 Li794 1.990 . S
N839 C836 1.314 . S
N839 C837 1.279 . S
C840 C837 1.358 . S
C840 C841 1.356 . S
C840 H877 0.930 . S
C841 C838 1.348 . S
C841 C840 1.356 . S
H842 C836 0.930 . S
H843 C837 0.930 . S
C844 N845 1.314 . S
C844 C846 1.353 . S
C844 H850 0.930 . S
N845 Li795 1.990 . S
N845 C844 1.314 . S
N845 C848 1.279 . S
C846 C844 1.353 . S
C846 C849 1.348 . S
C846 H878 0.929 . S
C847 C848 1.358 . S
C847 C849 1.356 . S
C847 H879 0.930 . S
C848 N845 1.279 . S
C848 C847 1.358 . S
C848 H851 0.930 . S
C849 C846 1.348 . S
C849 C847 1.356 . S
H850 C844 0.930 . S
H851 C848 0.930 . S
O852 Li792 1.956 . S
O852 Li793 1.970 . S
O852 Li794 1.961 . S
O852 C796 1.325 . S
O853 Li792 1.970 . S
O853 Li793 1.956 . S
O853 Li795 1.961 . S
O853 C802 1.325 . S
O854 Li792 1.961 . S
O854 Li794 1.956 . S
O854 Li795 1.970 . S
O854 C824 1.325 . S
O855 Li793 1.961 . S
O855 Li794 1.970 . S
O855 Li795 1.956 . S
O855 C830 1.325 . S
H856 C798 0.929 . S
H857 C799 0.930 . S
H858 C800 0.930 . S
H859 C801 0.930 . S
H860 C803 0.930 . S
H861 C805 0.929 . S
H862 C806 0.930 . S
H863 C807 0.930 . S
H864 C810 0.930 . S
H865 C813 0.929 . S
H866 C818 0.929 . S
H867 C819 0.930 . S
H868 C826 0.929 . S
H869 C827 0.930 . S
H870 C828 0.930 . S
H871 C829 0.930 . S
H872 C831 0.929 . S
H873 C832 0.930 . S
H874 C833 0.930 . S
H875 C834 0.930 . S
H876 C838 0.929 . S
H877 C840 0.930 . S
H878 C846 0.929 . S
H879 C847 0.930 . S
Li880 N897 1.990 . S
Li880 O940 1.956 . S
Li880 O941 1.970 . S
Li880 O942 1.961 . S
Li881 N905 1.990 . S
Li881 O940 1.970 . S
Li881 O941 1.956 . S
Li881 O943 1.961 . S
Li882 N927 1.990 . S
Li882 O940 1.961 . S
Li882 O942 1.956 . S
Li882 O943 1.970 . S
Li883 N933 1.990 . S
Li883 O941 1.961 . S
Li883 O942 1.970 . S
Li883 O943 1.956 . S
C884 C886 1.348 . S
C884 C887 1.356 . S
C884 O940 1.325 . S
N885 C888 1.314 . S
N885 C889 1.279 . S
C886 C884 1.348 . S
C886 C888 1.353 . S
C886 H944 0.929 . S
C887 C884 1.356 . S
C887 C889 1.358 . S
C887 H945 0.930 . S
C888 N885 1.314 . S
C888 C886 1.353 . S
C888 H946 0.930 . S
C889 N885 1.279 . S
C889 C887 1.358 . S
C889 H947 0.930 . S
C890 C893 1.348 . S
C890 C894 1.356 . S
C890 O941 1.325 . S
C891 N892 1.279 . S
C891 C894 1.358 . S
C891 H948 0.930 . S
N892 C891 1.279 . S
N892 C895 1.314 . S
C893 C890 1.348 . S
C893 C895 1.353 . S
C893 H949 0.929 . S
C894 C890 1.356 . S
C894 C891 1.358 . S
C894 H950 0.930 . S
C895 N892 1.314 . S
C895 C893 1.353 . S
C895 H951 0.930 . S
C896 N897 1.314 . S
C896 C901 1.353 . S
C896 H902 0.930 . S
N897 Li880 1.990 . S
N897 C896 1.314 . S
N897 C899 1.279 . S
C898 C899 1.358 . S
C898 C900 1.356 . S
C898 H952 0.930 . S
C899 N897 1.279 . S
C899 C898 1.358 . S
C899 H903 0.930 . S
C900 C898 1.356 . S
C900 C901 1.348 . S
C901 C896 1.353 . S
C901 C900 1.348 . S
C901 H953 0.929 . S
H902 C896 0.930 . S
H903 C899 0.930 . S
C904 N905 1.314 . S
C904 C906 1.353 . S
C904 H910 0.930 . S
N905 Li881 1.990 . S
N905 C904 1.314 . S
N905 C908 1.279 . S
C906 C904 1.353 . S
C906 C909 1.348 . S
C906 H954 0.929 . S
C907 C908 1.358 . S
C907 C909 1.356 . S
C907 H955 0.930 . S
C908 N905 1.279 . S
C908 C907 1.358 . S
C908 H911 0.930 . S
C909 C906 1.348 . S
C909 C907 1.356 . S
H910 C904 0.930 . S
H911 C908 0.930 . S
C912 C914 1.348 . S
C912 C915 1.356 . S
C912 O942 1.325 . S
N913 C916 1.314 . S
N913 C917 1.279 . S
C914 C912 1.348 . S
C914 C916 1.353 . S
C914 H956 0.929 . S
C915 C912 1.356 . S
C915 C917 1.358 . S
C915 H957 0.930 . S
C916 N913 1.314 . S
C916 C914 1.353 . S
C916 H958 0.930 . S
C917 N913 1.279 . S
C917 C915 1.358 . S
C917 H959 0.930 . S
C918 C919 1.334 1_545 S
C918 C920 1.365 1_545 S
C918 O943 1.336 . S
C919 C918 1.334 1_565 S
C919 C921 1.353 . S
C919 H960 0.929 . S
C920 C918 1.365 1_565 S
C920 C922 1.400 . S
C920 H961 0.883 1_565 S
C921 C919 1.353 . S
C921 N923 1.314 . S
C921 H962 0.930 . S
C922 C920 1.400 . S
C922 N923 1.279 . S
C922 H963 0.930 . S
N923 C921 1.314 . S
N923 C922 1.279 . S
C924 C926 1.353 . S
C924 N927 1.314 1_565 S
C924 H930 0.930 . S
C925 N927 1.279 1_565 S
C925 C928 1.358 . S
C925 H931 0.930 1_565 S
C926 C924 1.353 . S
C926 C929 1.348 . S
C926 H964 0.929 . S
N927 Li882 1.990 . S
N927 C924 1.314 1_545 S
N927 C925 1.279 1_545 S
C928 C925 1.358 . S
C928 C929 1.356 . S
C928 H965 0.930 . S
C929 C926 1.348 . S
C929 C928 1.356 . S
H930 C924 0.930 . S
H931 C925 0.930 1_545 S
C932 N933 1.314 . S
C932 C934 1.353 . S
C932 H938 0.930 . S
N933 Li883 1.990 . S
N933 C932 1.314 . S
N933 C936 1.279 . S
C934 C932 1.353 . S
C934 C937 1.348 . S
C934 H966 0.929 . S
C935 C936 1.358 . S
C935 C937 1.356 . S
C935 H967 0.930 . S
C936 N933 1.279 . S
C936 C935 1.358 . S
C936 H939 0.930 . S
C937 C934 1.348 . S
C937 C935 1.356 . S
H938 C932 0.930 . S
H939 C936 0.930 . S
O940 Li880 1.956 . S
O940 Li881 1.970 . S
O940 Li882 1.961 . S
O940 C884 1.325 . S
O941 Li880 1.970 . S
O941 Li881 1.956 . S
O941 Li883 1.961 . S
O941 C890 1.325 . S
O942 Li880 1.961 . S
O942 Li882 1.956 . S
O942 Li883 1.970 . S
O942 C912 1.325 . S
O943 Li881 1.961 . S
O943 Li882 1.970 . S
O943 Li883 1.956 . S
O943 C918 1.336 . S
H944 C886 0.929 . S
H945 C887 0.930 . S
H946 C888 0.930 . S
H947 C889 0.930 . S
H948 C891 0.930 . S
H949 C893 0.929 . S
H950 C894 0.930 . S
H951 C895 0.930 . S
H952 C898 0.930 . S
H953 C901 0.929 . S
H954 C906 0.929 . S
H955 C907 0.930 . S
H956 C914 0.929 . S
H957 C915 0.930 . S
H958 C916 0.930 . S
H959 C917 0.930 . S
H960 C919 0.929 . S
H961 C920 0.883 1_545 S
H962 C921 0.930 . S
H963 C922 0.930 . S
H964 C926 0.929 . S
H965 C928 0.930 . S
H966 C934 0.929 . S
H967 C935 0.930 . S
Li968 N985 1.990 . S
Li968 O1028 1.956 . S
Li968 O1029 1.970 . S
Li968 O1030 1.961 . S
Li969 N993 1.990 . S
Li969 O1028 1.970 . S
Li969 O1029 1.956 . S
Li969 O1031 1.961 . S
Li970 N1015 1.990 . S
Li970 O1028 1.961 . S
Li970 O1030 1.956 . S
Li970 O1031 1.970 . S
Li971 N1021 1.990 . S
Li971 O1029 1.961 . S
Li971 O1030 1.970 . S
Li971 O1031 1.956 . S
C972 C974 1.348 . S
C972 C975 1.356 . S
C972 O1028 1.325 . S
N973 C976 1.314 . S
N973 C977 1.279 . S
C974 C972 1.348 . S
C974 C976 1.353 . S
C974 H1032 0.929 . S
C975 C972 1.356 . S
C975 C977 1.358 . S
C975 H1033 0.930 . S
C976 N973 1.314 . S
C976 C974 1.353 . S
C976 H1034 0.930 . S
C977 N973 1.279 . S
C977 C975 1.358 . S
C977 H1035 0.930 . S
C978 C981 1.348 . S
C978 C982 1.356 . S
C978 O1029 1.325 . S
C979 N980 1.279 . S
C979 C982 1.358 . S
C979 H1036 0.930 . S
N980 C979 1.279 . S
N980 C983 1.314 . S
C981 C978 1.348 . S
C981 C983 1.353 . S
C981 H1037 0.929 . S
C982 C978 1.356 . S
C982 C979 1.358 . S
C982 H1038 0.930 . S
C983 N980 1.314 . S
C983 C981 1.353 . S
C983 H1039 0.930 . S
C984 N985 1.314 . S
C984 C989 1.353 . S
C984 H990 0.930 . S
N985 Li968 1.990 . S
N985 C984 1.314 . S
N985 C987 1.279 . S
C986 C987 1.358 . S
C986 C988 1.356 . S
C986 H1040 0.930 . S
C987 N985 1.279 . S
C987 C986 1.358 . S
C987 H991 0.930 . S
C988 C986 1.356 . S
C988 C989 1.348 . S
C989 C984 1.353 . S
C989 C988 1.348 . S
C989 H1041 0.929 . S
H990 C984 0.930 . S
H991 C987 0.930 . S
C992 N993 1.314 . S
C992 C994 1.353 . S
C992 H998 0.930 . S
N993 Li969 1.990 . S
N993 C992 1.314 . S
N993 C996 1.279 . S
C994 C992 1.353 . S
C994 C997 1.348 . S
C994 H1042 0.929 . S
C995 C996 1.358 . S
C995 C997 1.356 . S
C995 H1043 0.930 . S
C996 N993 1.279 . S
C996 C995 1.358 . S
C996 H999 0.930 . S
C997 C994 1.348 . S
C997 C995 1.356 . S
H998 C992 0.930 . S
H999 C996 0.930 . S
C1000 C1002 1.348 . S
C1000 C1003 1.356 . S
C1000 O1030 1.325 . S
N1001 C1004 1.314 . S
N1001 C1005 1.279 1_556 S
C1002 C1000 1.348 . S
C1002 C1004 1.353 1_554 S
C1002 H1044 0.929 . S
C1003 C1000 1.356 . S
C1003 C1005 1.358 . S
C1003 H1045 0.930 . S
C1004 N1001 1.314 . S
C1004 C1002 1.353 1_556 S
C1004 H1046 0.930 . S
C1005 N1001 1.279 1_554 S
C1005 C1003 1.358 . S
C1005 H1047 0.930 . S
C1006 C1007 1.348 . S
C1006 C1008 1.356 . S
C1006 O1031 1.325 . S
C1007 C1006 1.348 . S
C1007 C1009 1.353 . S
C1007 H1048 0.929 . S
C1008 C1006 1.356 . S
C1008 C1010 1.358 . S
C1008 H1049 0.930 . S
C1009 C1007 1.353 . S
C1009 N1011 1.314 . S
C1009 H1050 0.930 . S
C1010 C1008 1.358 . S
C1010 N1011 1.279 . S
C1010 H1051 0.930 . S
N1011 C1009 1.314 . S
N1011 C1010 1.279 . S
C1012 C1014 1.353 . S
C1012 N1015 1.314 . S
C1012 H1018 0.930 . S
C1013 N1015 1.279 . S
C1013 C1016 1.358 . S
C1013 H1019 0.930 . S
C1014 C1012 1.353 . S
C1014 C1017 1.348 . S
C1014 H1052 0.929 . S
N1015 Li970 1.990 . S
N1015 C1012 1.314 . S
N1015 C1013 1.279 . S
C1016 C1013 1.358 . S
C1016 C1017 1.356 . S
C1016 H1053 0.930 . S
C1017 C1014 1.348 . S
C1017 C1016 1.356 . S
H1018 C1012 0.930 . S
H1019 C1013 0.930 . S
C1020 N1021 1.314 . S
C1020 C1022 1.353 1_554 S
C1020 H1026 0.930 . S
N1021 Li971 1.990 . S
N1021 C1020 1.314 . S
N1021 C1024 1.279 . S
C1022 C1020 1.353 1_556 S
C1022 C1025 1.348 . S
C1022 H1054 0.929 . S
C1023 C1024 1.358 1_556 S
C1023 C1025 1.356 . S
C1023 H1055 0.930 . S
C1024 N1021 1.279 . S
C1024 C1023 1.358 1_554 S
C1024 H1027 0.930 . S
C1025 C1022 1.348 . S
C1025 C1023 1.356 . S
H1026 C1020 0.930 . S
H1027 C1024 0.930 . S
O1028 Li968 1.956 . S
O1028 Li969 1.970 . S
O1028 Li970 1.961 . S
O1028 C972 1.325 . S
O1029 Li968 1.970 . S
O1029 Li969 1.956 . S
O1029 Li971 1.961 . S
O1029 C978 1.325 . S
O1030 Li968 1.961 . S
O1030 Li970 1.956 . S
O1030 Li971 1.970 . S
O1030 C1000 1.325 . S
O1031 Li969 1.961 . S
O1031 Li970 1.970 . S
O1031 Li971 1.956 . S
O1031 C1006 1.325 . S
H1032 C974 0.929 . S
H1033 C975 0.930 . S
H1034 C976 0.930 . S
H1035 C977 0.930 . S
H1036 C979 0.930 . S
H1037 C981 0.929 . S
H1038 C982 0.930 . S
H1039 C983 0.930 . S
H1040 C986 0.930 . S
H1041 C989 0.929 . S
H1042 C994 0.929 . S
H1043 C995 0.930 . S
H1044 C1002 0.929 . S
H1045 C1003 0.930 . S
H1046 C1004 0.930 . S
H1047 C1005 0.930 . S
H1048 C1007 0.929 . S
H1049 C1008 0.930 . S
H1050 C1009 0.930 . S
H1051 C1010 0.930 . S
H1052 C1014 0.929 . S
H1053 C1016 0.930 . S
H1054 C1022 0.929 . S
H1055 C1023 0.930 . S
Li1056 N1073 1.990 . S
Li1056 O1116 1.956 . S
Li1056 O1117 1.970 . S
Li1056 O1118 1.961 . S
Li1057 N1081 1.990 . S
Li1057 O1116 1.970 . S
Li1057 O1117 1.956 . S
Li1057 O1119 1.961 . S
Li1058 N1103 1.990 . S
Li1058 O1116 1.961 . S
Li1058 O1118 1.956 . S
Li1058 O1119 1.970 . S
Li1059 N1109 1.990 1_554 S
Li1059 O1117 1.961 . S
Li1059 O1118 1.970 . S
Li1059 O1119 1.956 . S
C1060 C1062 1.348 . S
C1060 C1063 1.356 . S
C1060 O1116 1.325 . S
N1061 C1064 1.314 . S
N1061 C1065 1.279 . S
C1062 C1060 1.348 . S
C1062 C1064 1.353 . S
C1062 H1120 0.929 . S
C1063 C1060 1.356 . S
C1063 C1065 1.358 . S
C1063 H1121 0.930 . S
C1064 N1061 1.314 . S
C1064 C1062 1.353 . S
C1064 H1122 0.930 . S
C1065 N1061 1.279 . S
C1065 C1063 1.358 . S
C1065 H1123 0.930 . S
C1066 C1069 1.348 . S
C1066 C1070 1.356 . S
C1066 O1117 1.325 . S
C1067 N1068 1.279 . S
C1067 C1070 1.358 . S
C1067 H1124 0.930 . S
N1068 C1067 1.279 . S
N1068 C1071 1.314 . S
C1069 C1066 1.348 . S
C1069 C1071 1.353 . S
C1069 H1125 0.929 . S
C1070 C1066 1.356 . S
C1070 C1067 1.358 . S
C1070 H1126 0.930 . S
C1071 N1068 1.314 . S
C1071 C1069 1.353 . S
C1071 H1127 0.930 . S
C1072 N1073 1.314 . S
C1072 C1077 1.353 . S
C1072 H1078 0.930 . S
N1073 Li1056 1.990 . S
N1073 C1072 1.314 . S
N1073 C1075 1.279 . S
C1074 C1075 1.358 . S
C1074 C1076 1.356 . S
C1074 H1128 0.930 . S
C1075 N1073 1.279 . S
C1075 C1074 1.358 . S
C1075 H1079 0.930 . S
C1076 C1074 1.356 . S
C1076 C1077 1.348 . S
C1077 C1072 1.353 . S
C1077 C1076 1.348 . S
C1077 H1129 0.882 1_554 S
H1078 C1072 0.930 . S
H1079 C1075 0.930 . S
C1080 N1081 1.314 . S
C1080 C1082 1.353 . S
C1080 H1086 0.930 . S
N1081 Li1057 1.990 . S
N1081 C1080 1.314 . S
N1081 C1084 1.279 . S
C1082 C1080 1.353 . S
C1082 C1085 1.348 . S
C1082 H1130 0.929 . S
C1083 C1084 1.358 . S
C1083 C1085 1.356 . S
C1083 H1131 0.930 . S
C1084 N1081 1.279 . S
C1084 C1083 1.358 . S
C1084 H1087 0.930 . S
C1085 C1082 1.348 . S
C1085 C1083 1.356 . S
H1086 C1080 0.930 . S
H1087 C1084 0.930 . S
C1088 C1090 1.348 . S
C1088 C1091 1.356 . S
C1088 O1118 1.325 1_556 S
N1089 C1092 1.314 . S
N1089 C1093 1.279 . S
C1090 C1088 1.348 . S
C1090 C1092 1.353 . S
C1090 H1132 0.929 . S
C1091 C1088 1.356 . S
C1091 C1093 1.358 . S
C1091 H1133 0.930 1_556 S
C1092 N1089 1.314 . S
C1092 C1090 1.353 . S
C1092 H1134 0.930 . S
C1093 N1089 1.279 . S
C1093 C1091 1.358 . S
C1093 H1135 0.930 . S
C1094 C1095 1.348 . S
C1094 C1096 1.356 . S
C1094 O1119 1.325 . S
C1095 C1094 1.348 . S
C1095 C1097 1.353 . S
C1095 H1136 0.929 . S
C1096 C1094 1.356 . S
C1096 C1098 1.358 . S
C1096 H1137 0.930 . S
C1097 C1095 1.353 . S
C1097 N1099 1.314 . S
C1097 H1138 0.930 . S
C1098 C1096 1.358 . S
C1098 N1099 1.279 . S
C1098 H1139 0.930 . S
N1099 C1097 1.314 . S
N1099 C1098 1.279 . S
C1100 C1102 1.353 . S
C1100 N1103 1.314 . S
C1100 H1106 0.930 . S
C1101 N1103 1.279 . S
C1101 C1104 1.358 . S
C1101 H1107 0.930 . S
C1102 C1100 1.353 . S
C1102 C1105 1.348 . S
C1102 H1140 0.929 . S
N1103 Li1058 1.990 . S
N1103 C1100 1.314 . S
N1103 C1101 1.279 . S
C1104 C1101 1.358 . S
C1104 C1105 1.356 . S
C1104 H1141 0.930 . S
C1105 C1102 1.348 . S
C1105 C1104 1.356 . S
H1106 C1100 0.930 . S
H1107 C1101 0.930 . S
C1108 N1109 1.314 . S
C1108 C1110 1.353 . S
C1108 H1114 0.930 . S
N1109 Li1059 1.990 1_556 S
N1109 C1108 1.314 . S
N1109 C1112 1.279 . S
C1110 C1108 1.353 . S
C1110 C1113 1.348 . S
C1110 H1142 0.929 . S
C1111 C1112 1.358 . S
C1111 C1113 1.356 . S
C1111 H1143 0.930 . S
C1112 N1109 1.279 . S
C1112 C1111 1.358 . S
C1112 H1115 0.930 . S
C1113 C1110 1.348 . S
C1113 C1111 1.356 . S
H1114 C1108 0.930 . S
H1115 C1112 0.930 . S
O1116 Li1056 1.956 . S
O1116 Li1057 1.970 . S
O1116 Li1058 1.961 . S
O1116 C1060 1.325 . S
O1117 Li1056 1.970 . S
O1117 Li1057 1.956 . S
O1117 Li1059 1.961 . S
O1117 C1066 1.325 . S
O1118 Li1056 1.961 . S
O1118 Li1058 1.956 . S
O1118 Li1059 1.970 . S
O1118 C1088 1.325 1_554 S
O1119 Li1057 1.961 . S
O1119 Li1058 1.970 . S
O1119 Li1059 1.956 . S
O1119 C1094 1.325 . S
H1120 C1062 0.929 . S
H1121 C1063 0.930 . S
H1122 C1064 0.930 . S
H1123 C1065 0.930 . S
H1124 C1067 0.930 . S
H1125 C1069 0.929 . S
H1126 C1070 0.930 . S
H1127 C1071 0.930 . S
H1128 C1074 0.930 . S
H1129 C1077 0.882 1_556 S
H1130 C1082 0.929 . S
H1131 C1083 0.930 . S
H1132 C1090 0.929 . S
H1133 C1091 0.930 1_554 S
H1134 C1092 0.930 . S
H1135 C1093 0.930 . S
H1136 C1095 0.929 . S
H1137 C1096 0.930 . S
H1138 C1097 0.930 . S
H1139 C1098 0.930 . S
H1140 C1102 0.929 . S
H1141 C1104 0.930 . S
H1142 C1110 0.929 . S
H1143 C1111 0.930 . S
Li1144 N1161 1.990 . S
Li1144 O1204 1.956 . S
Li1144 O1205 1.970 . S
Li1144 O1206 1.956 . S
Li1145 N1169 1.990 . S
Li1145 O1204 1.967 . S
Li1145 O1205 2.013 . S
Li1145 O1207 1.908 1_554 S
Li1146 N1191 1.990 . S
Li1146 O1204 1.961 1_556 S
Li1146 O1206 1.962 1_556 S
Li1146 O1207 1.970 . S
Li1147 N1197 1.990 . S
Li1147 O1205 1.961 1_556 S
Li1147 O1206 1.971 1_556 S
Li1147 O1207 1.956 . S
C1148 C1150 1.348 . S
C1148 C1151 1.365 . S
C1148 O1204 1.325 . S
N1149 C1152 1.314 . S
N1149 C1153 1.279 . S
C1150 C1148 1.348 . S
C1150 C1152 1.353 . S
C1150 H1208 0.929 . S
C1151 C1148 1.365 . S
C1151 C1153 1.358 . S
C1151 H1209 0.924 1_554 S
C1152 N1149 1.314 . S
C1152 C1150 1.353 . S
C1152 H1210 0.930 . S
C1153 N1149 1.279 . S
C1153 C1151 1.358 . S
C1153 H1211 0.928 . S
C1154 C1157 1.348 . S
C1154 C1158 1.356 . S
C1154 O1205 1.325 . S
C1155 N1156 1.279 . S
C1155 C1158 1.358 . S
C1155 H1212 0.930 . S
N1156 C1155 1.279 . S
N1156 C1159 1.314 . S
C1157 C1154 1.348 . S
C1157 C1159 1.353 . S
C1157 H1213 0.929 . S
C1158 C1154 1.356 . S
C1158 C1155 1.358 . S
C1158 H1214 0.930 . S
C1159 N1156 1.314 . S
C1159 C1157 1.353 . S
C1159 H1215 0.930 . S
C1160 N1161 1.314 . S
C1160 C1165 1.353 . S
C1160 H1166 0.930 . S
N1161 Li1144 1.990 . S
N1161 C1160 1.314 . S
N1161 C1163 1.279 . S
C1162 C1163 1.358 . S
C1162 C1164 1.356 . S
C1162 H1216 0.930 . S
C1163 N1161 1.279 . S
C1163 C1162 1.358 . S
C1163 H1167 0.930 . S
C1164 C1162 1.356 . S
C1164 C1165 1.348 . S
C1165 C1160 1.353 . S
C1165 C1164 1.348 . S
C1165 H1217 0.929 . S
H1166 C1160 0.930 . S
H1167 C1163 0.930 . S
C1168 N1169 1.314 1_556 S
C1168 C1170 1.353 . S
C1168 H1174 0.930 . S
N1169 Li1145 1.990 . S
N1169 C1168 1.314 1_554 S
N1169 C1172 1.279 . S
C1170 C1168 1.353 . S
C1170 C1173 1.348 1_556 S
C1170 H1218 0.929 . S
C1171 C1172 1.358 . S
C1171 C1173 1.356 . S
C1171 H1219 0.930 . S
C1172 N1169 1.279 . S
C1172 C1171 1.358 . S
C1172 H1175 0.930 . S
C1173 C1170 1.348 1_554 S
C1173 C1171 1.356 . S
H1174 C1168 0.930 . S
H1175 C1172 0.930 . S
C1176 C1178 1.361 . S
C1176 C1179 1.349 1_556 S
C1176 O1206 1.326 1_556 S
N1177 C1180 1.314 . S
N1177 C1181 1.279 1_556 S
C1178 C1176 1.361 . S
C1178 C1180 1.353 . S
C1178 H1220 0.929 . S
C1179 C1176 1.349 1_554 S
C1179 C1181 1.358 . S
C1179 H1221 0.930 . S
C1180 N1177 1.314 . S
C1180 C1178 1.353 . S
C1180 H1222 0.930 . S
C1181 N1177 1.279 1_554 S
C1181 C1179 1.358 . S
C1181 H1223 0.930 . S
C1182 C1183 1.348 . S
C1182 C1184 1.356 . S
C1182 O1207 1.325 . S
C1183 C1182 1.348 . S
C1183 C1185 1.353 . S
C1183 H1224 0.929 . S
C1184 C1182 1.356 . S
C1184 C1186 1.358 . S
C1184 H1225 0.930 . S
C1185 C1183 1.353 . S
C1185 N1187 1.314 . S
C1185 H1226 0.930 . S
C1186 C1184 1.358 . S
C1186 N1187 1.279 . S
C1186 H1227 0.930 . S
N1187 C1185 1.314 . S
N1187 C1186 1.279 . S
C1188 C1190 1.353 . S
C1188 N1191 1.314 . S
C1188 H1194 0.930 . S
C1189 N1191 1.279 . S
C1189 C1192 1.358 . S
C1189 H1195 0.930 . S
C1190 C1188 1.353 . S
C1190 C1193 1.348 . S
C1190 H1228 0.929 . S
N1191 Li1146 1.990 . S
N1191 C1188 1.314 . S
N1191 C1189 1.279 . S
C1192 C1189 1.358 . S
C1192 C1193 1.356 . S
C1192 H1229 0.930 . S
C1193 C1190 1.348 . S
C1193 C1192 1.356 . S
H1194 C1188 0.930 . S
H1195 C1189 0.930 . S
C1196 N1197 1.314 1_554 S
C1196 C1198 1.353 . S
C1196 H1202 0.930 . S
N1197 Li1147 1.990 . S
N1197 C1196 1.314 1_556 S
N1197 C1200 1.279 . S
C1198 C1196 1.353 . S
C1198 C1201 1.348 1_554 S
C1198 H1230 0.929 . S
C1199 C1200 1.358 . S
C1199 C1201 1.356 . S
C1199 H1231 0.930 . S
C1200 N1197 1.279 . S
C1200 C1199 1.358 . S
C1200 H1203 0.930 . S
C1201 C1198 1.348 1_556 S
C1201 C1199 1.356 . S
H1202 C1196 0.930 . S
H1203 C1200 0.930 . S
O1204 Li1144 1.956 . S
O1204 Li1145 1.967 . S
O1204 Li1146 1.961 1_554 S
O1204 C1148 1.325 . S
O1205 Li1144 1.970 . S
O1205 Li1145 2.013 . S
O1205 Li1147 1.961 1_554 S
O1205 C1154 1.325 . S
O1206 Li1144 1.956 . S
O1206 Li1146 1.962 1_554 S
O1206 Li1147 1.971 1_554 S
O1206 C1176 1.326 1_554 S
O1207 Li1145 1.908 1_556 S
O1207 Li1146 1.970 . S
O1207 Li1147 1.956 . S
O1207 C1182 1.325 . S
H1208 C1150 0.929 . S
H1209 C1151 0.924 1_556 S
H1210 C1152 0.930 . S
H1211 C1153 0.928 . S
H1212 C1155 0.930 . S
H1213 C1157 0.929 . S
H1214 C1158 0.930 . S
H1215 C1159 0.930 . S
H1216 C1162 0.930 . S
H1217 C1165 0.929 . S
H1218 C1170 0.929 . S
H1219 C1171 0.930 . S
H1220 C1178 0.929 . S
H1221 C1179 0.930 . S
H1222 C1180 0.930 . S
H1223 C1181 0.930 . S
H1224 C1183 0.929 . S
H1225 C1184 0.930 . S
H1226 C1185 0.930 . S
H1227 C1186 0.930 . S
H1228 C1190 0.929 . S
H1229 C1192 0.930 . S
H1230 C1198 0.929 . S
H1231 C1199 0.930 . S
Li1232 N1249 1.990 . S
Li1232 O1292 1.956 . S
Li1232 O1293 1.970 . S
Li1232 O1294 1.961 . S
Li1233 N1257 1.990 . S
Li1233 O1292 1.970 . S
Li1233 O1293 1.956 . S
Li1233 O1295 1.961 . S
Li1234 N1279 1.990 . S
Li1234 O1292 1.961 . S
Li1234 O1294 1.956 . S
Li1234 O1295 1.970 . S
Li1235 N1285 1.990 . S
Li1235 O1293 1.961 . S
Li1235 O1294 1.970 . S
Li1235 O1295 1.956 . S
C1236 C1238 1.348 . S
C1236 C1239 1.356 . S
C1236 O1292 1.325 . S
N1237 C1240 1.314 . S
N1237 C1241 1.279 . S
C1238 C1236 1.348 . S
C1238 C1240 1.353 . S
C1238 H1296 0.929 . S
C1239 C1236 1.356 . S
C1239 C1241 1.358 . S
C1239 H1297 0.930 . S
C1240 N1237 1.314 . S
C1240 C1238 1.353 . S
C1240 H1298 0.930 . S
C1241 N1237 1.279 . S
C1241 C1239 1.358 . S
C1241 H1299 0.930 . S
C1242 C1245 1.348 . S
C1242 C1246 1.356 . S
C1242 O1293 1.325 . S
C1243 N1244 1.279 . S
C1243 C1246 1.358 . S
C1243 H1300 0.930 . S
N1244 C1243 1.279 . S
N1244 C1247 1.314 . S
C1245 C1242 1.348 . S
C1245 C1247 1.353 . S
C1245 H1301 0.929 . S
C1246 C1242 1.356 . S
C1246 C1243 1.358 . S
C1246 H1302 0.930 . S
C1247 N1244 1.314 . S
C1247 C1245 1.353 . S
C1247 H1303 0.930 . S
C1248 N1249 1.314 . S
C1248 C1253 1.353 . S
C1248 H1254 0.930 . S
N1249 Li1232 1.990 . S
N1249 C1248 1.314 . S
N1249 C1251 1.279 . S
C1250 C1251 1.358 . S
C1250 C1252 1.356 . S
C1250 H1304 0.930 . S
C1251 N1249 1.279 . S
C1251 C1250 1.358 . S
C1251 H1255 0.930 . S
C1252 C1250 1.356 . S
C1252 C1253 1.348 . S
C1253 C1248 1.353 . S
C1253 C1252 1.348 . S
C1253 H1305 0.929 . S
H1254 C1248 0.930 . S
H1255 C1251 0.930 . S
C1256 N1257 1.314 . S
C1256 C1258 1.353 . S
C1256 H1262 0.930 . S
N1257 Li1233 1.990 . S
N1257 C1256 1.314 . S
N1257 C1260 1.279 . S
C1258 C1256 1.353 . S
C1258 C1261 1.348 . S
C1258 H1306 0.929 . S
C1259 C1260 1.358 . S
C1259 C1261 1.356 . S
C1259 H1307 0.930 . S
C1260 N1257 1.279 . S
C1260 C1259 1.358 . S
C1260 H1263 0.930 . S
C1261 C1258 1.348 . S
C1261 C1259 1.356 . S
H1262 C1256 0.930 . S
H1263 C1260 0.930 . S
C1264 C1266 1.348 . S
C1264 C1267 1.356 . S
C1264 O1294 1.325 . S
N1265 C1268 1.314 . S
N1265 C1269 1.279 . S
C1266 C1264 1.348 . S
C1266 C1268 1.353 . S
C1266 H1308 0.929 . S
C1267 C1264 1.356 . S
C1267 C1269 1.358 . S
C1267 H1309 0.930 . S
C1268 N1265 1.314 . S
C1268 C1266 1.353 . S
C1268 H1310 0.930 . S
C1269 N1265 1.279 . S
C1269 C1267 1.358 . S
C1269 H1311 0.930 . S
C1270 C1271 1.348 . S
C1270 C1272 1.356 . S
C1270 O1295 1.325 . S
C1271 C1270 1.348 . S
C1271 C1273 1.353 . S
C1271 H1312 0.929 . S
C1272 C1270 1.356 . S
C1272 C1274 1.358 . S
C1272 H1313 0.930 . S
C1273 C1271 1.353 . S
C1273 N1275 1.314 . S
C1273 H1314 0.930 . S
C1274 C1272 1.358 . S
C1274 N1275 1.279 . S
C1274 H1315 0.930 . S
N1275 C1273 1.314 . S
N1275 C1274 1.279 . S
C1276 C1278 1.353 . S
C1276 N1279 1.314 . S
C1276 H1282 0.930 . S
C1277 N1279 1.279 . S
C1277 C1280 1.358 . S
C1277 H1283 0.930 . S
C1278 C1276 1.353 . S
C1278 C1281 1.348 . S
C1278 H1316 0.929 . S
N1279 Li1234 1.990 . S
N1279 C1276 1.314 . S
N1279 C1277 1.279 . S
C1280 C1277 1.358 . S
C1280 C1281 1.356 . S
C1280 H1317 0.930 . S
C1281 C1278 1.348 . S
C1281 C1280 1.356 . S
H1282 C1276 0.930 . S
H1283 C1277 0.930 . S
C1284 N1285 1.314 . S
C1284 C1286 1.353 . S
C1284 H1290 0.930 . S
N1285 Li1235 1.990 . S
N1285 C1284 1.314 . S
N1285 C1288 1.279 . S
C1286 C1284 1.353 . S
C1286 C1289 1.348 . S
C1286 H1318 0.929 . S
C1287 C1288 1.358 . S
C1287 C1289 1.356 . S
C1287 H1319 0.930 . S
C1288 N1285 1.279 . S
C1288 C1287 1.358 . S
C1288 H1291 0.930 . S
C1289 C1286 1.348 . S
C1289 C1287 1.356 . S
H1290 C1284 0.930 . S
H1291 C1288 0.930 . S
O1292 Li1232 1.956 . S
O1292 Li1233 1.970 . S
O1292 Li1234 1.961 . S
O1292 C1236 1.325 . S
O1293 Li1232 1.970 . S
O1293 Li1233 1.956 . S
O1293 Li1235 1.961 . S
O1293 C1242 1.325 . S
O1294 Li1232 1.961 . S
O1294 Li1234 1.956 . S
O1294 Li1235 1.970 . S
O1294 C1264 1.325 . S
O1295 Li1233 1.961 . S
O1295 Li1234 1.970 . S
O1295 Li1235 1.956 . S
O1295 C1270 1.325 . S
H1296 C1238 0.929 . S
H1297 C1239 0.930 . S
H1298 C1240 0.930 . S
H1299 C1241 0.930 . S
H1300 C1243 0.930 . S
H1301 C1245 0.929 . S
H1302 C1246 0.930 . S
H1303 C1247 0.930 . S
H1304 C1250 0.930 . S
H1305 C1253 0.929 . S
H1306 C1258 0.929 . S
H1307 C1259 0.930 . S
H1308 C1266 0.929 . S
H1309 C1267 0.930 . S
H1310 C1268 0.930 . S
H1311 C1269 0.930 . S
H1312 C1271 0.929 . S
H1313 C1272 0.930 . S
H1314 C1273 0.930 . S
H1315 C1274 0.930 . S
H1316 C1278 0.929 . S
H1317 C1280 0.930 . S
H1318 C1286 0.929 . S
H1319 C1287 0.930 . S
Li1320 N1337 1.990 . S
Li1320 O1380 1.956 . S
Li1320 O1381 1.970 . S
Li1320 O1382 1.961 . S
Li1321 N1345 1.990 . S
Li1321 O1380 1.970 . S
Li1321 O1381 1.956 . S
Li1321 O1383 1.961 . S
Li1322 N1367 1.990 . S
Li1322 O1380 1.961 . S
Li1322 O1382 1.956 . S
Li1322 O1383 1.970 . S
Li1323 N1373 1.990 . S
Li1323 O1381 1.961 . S
Li1323 O1382 1.970 . S
Li1323 O1383 1.956 . S
C1324 C1326 1.348 . S
C1324 C1327 1.356 . S
C1324 O1380 1.325 . S
N1325 C1328 1.314 . S
N1325 C1329 1.279 . S
C1326 C1324 1.348 . S
C1326 C1328 1.353 . S
C1326 H1384 0.929 . S
C1327 C1324 1.356 . S
C1327 C1329 1.358 . S
C1327 H1385 0.930 . S
C1328 N1325 1.314 . S
C1328 C1326 1.353 . S
C1328 H1386 0.930 . S
C1329 N1325 1.279 . S
C1329 C1327 1.358 . S
C1329 H1387 0.930 . S
C1330 C1333 1.348 . S
C1330 C1334 1.356 . S
C1330 O1381 1.325 . S
C1331 N1332 1.279 . S
C1331 C1334 1.358 . S
C1331 H1388 0.930 . S
N1332 C1331 1.279 . S
N1332 C1335 1.314 . S
C1333 C1330 1.348 . S
C1333 C1335 1.353 . S
C1333 H1389 0.929 . S
C1334 C1330 1.356 . S
C1334 C1331 1.358 . S
C1334 H1390 0.930 . S
C1335 N1332 1.314 . S
C1335 C1333 1.353 . S
C1335 H1391 0.930 . S
C1336 N1337 1.314 . S
C1336 C1341 1.353 . S
C1336 H1342 0.930 . S
N1337 Li1320 1.990 . S
N1337 C1336 1.314 . S
N1337 C1339 1.279 . S
C1338 C1339 1.358 . S
C1338 C1340 1.356 . S
C1338 H1392 0.930 . S
C1339 N1337 1.279 . S
C1339 C1338 1.358 . S
C1339 H1343 0.930 . S
C1340 C1338 1.356 . S
C1340 C1341 1.348 . S
C1341 C1336 1.353 . S
C1341 C1340 1.348 . S
C1341 H1393 0.929 . S
H1342 C1336 0.930 . S
H1343 C1339 0.930 . S
C1344 N1345 1.314 . S
C1344 C1346 1.353 . S
C1344 H1350 0.930 . S
N1345 Li1321 1.990 . S
N1345 C1344 1.314 . S
N1345 C1348 1.279 . S
C1346 C1344 1.353 . S
C1346 C1349 1.348 . S
C1346 H1394 0.929 . S
C1347 C1348 1.358 . S
C1347 C1349 1.356 . S
C1347 H1395 0.930 . S
C1348 N1345 1.279 . S
C1348 C1347 1.358 . S
C1348 H1351 0.930 . S
C1349 C1346 1.348 . S
C1349 C1347 1.356 . S
H1350 C1344 0.930 . S
H1351 C1348 0.930 . S
C1352 C1354 1.348 . S
C1352 C1355 1.356 . S
C1352 O1382 1.325 . S
N1353 C1356 1.314 . S
N1353 C1357 1.279 . S
C1354 C1352 1.348 . S
C1354 C1356 1.353 . S
C1354 H1396 0.929 . S
C1355 C1352 1.356 . S
C1355 C1357 1.358 . S
C1355 H1397 0.930 . S
C1356 N1353 1.314 . S
C1356 C1354 1.353 . S
C1356 H1398 0.930 . S
C1357 N1353 1.279 . S
C1357 C1355 1.358 . S
C1357 H1399 0.930 . S
C1358 C1359 1.348 . S
C1358 C1360 1.356 . S
C1358 O1383 1.325 . S
C1359 C1358 1.348 . S
C1359 C1361 1.353 . S
C1359 H1400 0.929 . S
C1360 C1358 1.356 . S
C1360 C1362 1.358 . S
C1360 H1401 0.930 . S
C1361 C1359 1.353 . S
C1361 N1363 1.314 . S
C1361 H1402 0.930 . S
C1362 C1360 1.358 . S
C1362 N1363 1.279 . S
C1362 H1403 0.930 . S
N1363 C1361 1.314 . S
N1363 C1362 1.279 . S
C1364 C1366 1.353 . S
C1364 N1367 1.314 . S
C1364 H1370 0.930 . S
C1365 N1367 1.279 . S
C1365 C1368 1.358 . S
C1365 H1371 0.930 . S
C1366 C1364 1.353 . S
C1366 C1369 1.348 . S
C1366 H1404 0.929 . S
N1367 Li1322 1.990 . S
N1367 C1364 1.314 . S
N1367 C1365 1.279 . S
C1368 C1365 1.358 . S
C1368 C1369 1.356 . S
C1368 H1405 0.930 . S
C1369 C1366 1.348 . S
C1369 C1368 1.356 . S
H1370 C1364 0.930 . S
H1371 C1365 0.930 . S
C1372 N1373 1.314 . S
C1372 C1374 1.353 . S
C1372 H1378 0.930 . S
N1373 Li1323 1.990 . S
N1373 C1372 1.314 . S
N1373 C1376 1.279 . S
C1374 C1372 1.353 . S
C1374 C1377 1.348 . S
C1374 H1406 0.929 . S
C1375 C1376 1.358 . S
C1375 C1377 1.356 . S
C1375 H1407 0.930 . S
C1376 N1373 1.279 . S
C1376 C1375 1.358 . S
C1376 H1379 0.930 . S
C1377 C1374 1.348 . S
C1377 C1375 1.356 . S
H1378 C1372 0.930 . S
H1379 C1376 0.930 . S
O1380 Li1320 1.956 . S
O1380 Li1321 1.970 . S
O1380 Li1322 1.961 . S
O1380 C1324 1.325 . S
O1381 Li1320 1.970 . S
O1381 Li1321 1.956 . S
O1381 Li1323 1.961 . S
O1381 C1330 1.325 . S
O1382 Li1320 1.961 . S
O1382 Li1322 1.956 . S
O1382 Li1323 1.970 . S
O1382 C1352 1.325 . S
O1383 Li1321 1.961 . S
O1383 Li1322 1.970 . S
O1383 Li1323 1.956 . S
O1383 C1358 1.325 . S
H1384 C1326 0.929 . S
H1385 C1327 0.930 . S
H1386 C1328 0.930 . S
H1387 C1329 0.930 . S
H1388 C1331 0.930 . S
H1389 C1333 0.929 . S
H1390 C1334 0.930 . S
H1391 C1335 0.930 . S
H1392 C1338 0.930 . S
H1393 C1341 0.929 . S
H1394 C1346 0.929 . S
H1395 C1347 0.930 . S
H1396 C1354 0.929 . S
H1397 C1355 0.930 . S
H1398 C1356 0.930 . S
H1399 C1357 0.930 . S
H1400 C1359 0.929 . S
H1401 C1360 0.930 . S
H1402 C1361 0.930 . S
H1403 C1362 0.930 . S
H1404 C1366 0.929 . S
H1405 C1368 0.930 . S
H1406 C1374 0.929 . S
H1407 C1375 0.930 . S
Li1408 N1425 1.990 . S
Li1408 O1468 1.956 1_545 S
Li1408 O1469 1.970 . S
Li1408 O1470 1.961 . S
Li1409 N1433 1.990 . S
Li1409 O1468 1.970 . S
Li1409 O1469 1.956 1_565 S
Li1409 O1471 1.961 1_565 S
Li1410 N1455 1.990 . S
Li1410 O1468 1.961 1_545 S
Li1410 O1470 1.956 . S
Li1410 O1471 1.970 . S
Li1411 N1461 1.990 . S
Li1411 O1469 1.961 . S
Li1411 O1470 1.970 . S
Li1411 O1471 1.956 . S
C1412 C1414 1.348 . S
C1412 C1415 1.356 . S
C1412 O1468 1.325 . S
N1413 C1416 1.314 . S
N1413 C1417 1.279 . S
C1414 C1412 1.348 . S
C1414 C1416 1.353 . S
C1414 H1472 0.929 . S
C1415 C1412 1.356 . S
C1415 C1417 1.358 . S
C1415 H1473 0.930 . S
C1416 N1413 1.314 . S
C1416 C1414 1.353 . S
C1416 H1474 0.930 . S
C1417 N1413 1.279 . S
C1417 C1415 1.358 . S
C1417 H1475 0.930 . S
C1418 C1421 1.348 . S
C1418 C1422 1.356 . S
C1418 O1469 1.325 . S
C1419 N1420 1.279 . S
C1419 C1422 1.358 . S
C1419 H1476 0.930 . S
N1420 C1419 1.279 . S
N1420 C1423 1.331 . S
C1421 C1418 1.348 . S
C1421 C1423 1.353 . S
C1421 H1477 0.925 1_545 S
C1422 C1418 1.356 . S
C1422 C1419 1.358 . S
C1422 H1478 0.930 . S
C1423 N1420 1.331 . S
C1423 C1421 1.353 . S
C1423 H1479 0.915 1_545 S
C1424 N1425 1.314 . S
C1424 C1429 1.353 . S
C1424 H1430 0.930 . S
N1425 Li1408 1.990 . S
N1425 C1424 1.314 . S
N1425 C1427 1.238 1_545 S
C1426 C1427 1.368 1_545 S
C1426 C1428 1.385 . S
C1426 H1480 0.897 1_545 S
C1427 N1425 1.238 1_565 S
C1427 C1426 1.368 1_565 S
C1427 H1431 0.972 . S
C1428 C1426 1.385 . S
C1428 C1429 1.348 . S
C1429 C1424 1.353 . S
C1429 C1428 1.348 . S
C1429 H1481 0.929 . S
H1430 C1424 0.930 . S
H1431 C1427 0.972 . S
C1432 N1433 1.314 . S
C1432 C1434 1.353 . S
C1432 H1438 0.930 . S
N1433 Li1409 1.990 . S
N1433 C1432 1.314 . S
N1433 C1436 1.279 . S
C1434 C1432 1.353 . S
C1434 C1437 1.348 . S
C1434 H1482 0.929 . S
C1435 C1436 1.358 . S
C1435 C1437 1.356 . S
C1435 H1483 0.930 . S
C1436 N1433 1.279 . S
C1436 C1435 1.358 . S
C1436 H1439 0.930 . S
C1437 C1434 1.348 . S
C1437 C1435 1.356 . S
H1438 C1432 0.930 . S
H1439 C1436 0.930 . S
C1440 C1442 1.348 . S
C1440 C1443 1.356 . S
C1440 O1470 1.325 . S
N1441 C1444 1.314 . S
N1441 C1445 1.279 . S
C1442 C1440 1.348 . S
C1442 C1444 1.353 . S
C1442 H1484 0.929 . S
C1443 C1440 1.356 . S
C1443 C1445 1.358 . S
C1443 H1485 0.930 . S
C1444 N1441 1.314 . S
C1444 C1442 1.353 . S
C1444 H1486 0.930 . S
C1445 N1441 1.279 . S
C1445 C1443 1.358 . S
C1445 H1487 0.930 . S
C1446 C1447 1.348 . S
C1446 C1448 1.356 1_545 S
C1446 O1471 1.325 . S
C1447 C1446 1.348 . S
C1447 C1449 1.353 . S
C1447 H1488 0.929 . S
C1448 C1446 1.356 1_565 S
C1448 C1450 1.358 . S
C1448 H1489 0.930 . S
C1449 C1447 1.353 . S
C1449 N1451 1.324 . S
C1449 H1490 0.930 . S
C1450 C1448 1.358 . S
C1450 N1451 1.266 1_565 S
C1450 H1491 0.930 . S
N1451 C1449 1.324 . S
N1451 C1450 1.266 1_545 S
C1452 C1454 1.353 . S
C1452 N1455 1.314 1_565 S
C1452 H1458 0.930 . S
C1453 N1455 1.279 . S
C1453 C1456 1.358 . S
C1453 H1459 0.930 . S
C1454 C1452 1.353 . S
C1454 C1457 1.348 1_565 S
C1454 H1492 0.929 . S
N1455 Li1410 1.990 . S
N1455 C1452 1.314 1_545 S
N1455 C1453 1.279 . S
C1456 C1453 1.358 . S
C1456 C1457 1.356 . S
C1456 H1493 0.930 . S
C1457 C1454 1.348 1_545 S
C1457 C1456 1.356 . S
H1458 C1452 0.930 . S
H1459 C1453 0.930 . S
C1460 N1461 1.314 . S
C1460 C1462 1.353 . S
C1460 H1466 0.930 . S
N1461 Li1411 1.990 . S
N1461 C1460 1.314 . S
N1461 C1464 1.279 . S
C1462 C1460 1.353 . S
C1462 C1465 1.348 . S
C1462 H1494 0.929 . S
C1463 C1464 1.358 . S
C1463 C1465 1.356 . S
C1463 H1495 0.930 . S
C1464 N1461 1.279 . S
C1464 C1463 1.358 . S
C1464 H1467 0.930 . S
C1465 C1462 1.348 . S
C1465 C1463 1.356 . S
H1466 C1460 0.930 . S
H1467 C1464 0.930 . S
O1468 Li1408 1.956 1_565 S
O1468 Li1409 1.970 . S
O1468 Li1410 1.961 1_565 S
O1468 C1412 1.325 . S
O1469 Li1408 1.970 . S
O1469 Li1409 1.956 1_545 S
O1469 Li1411 1.961 . S
O1469 C1418 1.325 . S
O1470 Li1408 1.961 . S
O1470 Li1410 1.956 . S
O1470 Li1411 1.970 . S
O1470 C1440 1.325 . S
O1471 Li1409 1.961 1_545 S
O1471 Li1410 1.970 . S
O1471 Li1411 1.956 . S
O1471 C1446 1.325 . S
H1472 C1414 0.929 . S
H1473 C1415 0.930 . S
H1474 C1416 0.930 . S
H1475 C1417 0.930 . S
H1476 C1419 0.930 . S
H1477 C1421 0.925 1_565 S
H1478 C1422 0.930 . S
H1479 C1423 0.915 1_565 S
H1480 C1426 0.897 1_565 S
H1481 C1429 0.929 . S
H1482 C1434 0.929 . S
H1483 C1435 0.930 . S
H1484 C1442 0.929 . S
H1485 C1443 0.930 . S
H1486 C1444 0.930 . S
H1487 C1445 0.930 . S
H1488 C1447 0.929 . S
H1489 C1448 0.930 . S
H1490 C1449 0.930 . S
H1491 C1450 0.930 . S
H1492 C1454 0.929 . S
H1493 C1456 0.930 . S
H1494 C1462 0.929 . S
H1495 C1463 0.930 . S
Li1496 N1513 1.990 . S
Li1496 O1556 1.956 . S
Li1496 O1557 1.970 . S
Li1496 O1558 1.961 . S
Li1497 N1521 1.990 . S
Li1497 O1556 1.970 . S
Li1497 O1557 1.956 . S
Li1497 O1559 1.961 . S
Li1498 N1543 1.990 . S
Li1498 O1556 1.961 . S
Li1498 O1558 1.956 . S
Li1498 O1559 1.970 . S
Li1499 N1549 1.990 . S
Li1499 O1557 1.961 . S
Li1499 O1558 1.970 . S
Li1499 O1559 1.956 . S
C1500 C1502 1.348 . S
C1500 C1503 1.356 . S
C1500 O1556 1.325 . S
N1501 C1504 1.314 . S
N1501 C1505 1.279 . S
C1502 C1500 1.348 . S
C1502 C1504 1.353 . S
C1502 H1560 0.929 . S
C1503 C1500 1.356 . S
C1503 C1505 1.358 . S
C1503 H1561 0.930 . S
C1504 N1501 1.314 . S
C1504 C1502 1.353 . S
C1504 H1562 0.930 . S
C1505 N1501 1.279 . S
C1505 C1503 1.358 . S
C1505 H1563 0.930 . S
C1506 C1509 1.348 . S
C1506 C1510 1.356 . S
C1506 O1557 1.325 . S
C1507 N1508 1.279 . S
C1507 C1510 1.358 . S
C1507 H1564 0.930 . S
N1508 C1507 1.279 . S
N1508 C1511 1.314 . S
C1509 C1506 1.348 . S
C1509 C1511 1.353 . S
C1509 H1565 0.929 . S
C1510 C1506 1.356 . S
C1510 C1507 1.358 . S
C1510 H1566 0.930 . S
C1511 N1508 1.314 . S
C1511 C1509 1.353 . S
C1511 H1567 0.930 . S
C1512 N1513 1.314 . S
C1512 C1517 1.353 . S
C1512 H1518 0.930 . S
N1513 Li1496 1.990 . S
N1513 C1512 1.314 . S
N1513 C1515 1.279 . S
C1514 C1515 1.358 . S
C1514 C1516 1.356 . S
C1514 H1568 0.930 . S
C1515 N1513 1.279 . S
C1515 C1514 1.358 . S
C1515 H1519 0.930 . S
C1516 C1514 1.356 . S
C1516 C1517 1.348 . S
C1517 C1512 1.353 . S
C1517 C1516 1.348 . S
C1517 H1569 0.929 . S
H1518 C1512 0.930 . S
H1519 C1515 0.930 . S
C1520 N1521 1.314 . S
C1520 C1522 1.353 . S
C1520 H1526 0.930 . S
N1521 Li1497 1.990 . S
N1521 C1520 1.314 . S
N1521 C1524 1.279 . S
C1522 C1520 1.353 . S
C1522 C1525 1.348 . S
C1522 H1570 0.929 . S
C1523 C1524 1.358 . S
C1523 C1525 1.356 . S
C1523 H1571 0.930 . S
C1524 N1521 1.279 . S
C1524 C1523 1.358 . S
C1524 H1527 0.930 . S
C1525 C1522 1.348 . S
C1525 C1523 1.356 . S
H1526 C1520 0.930 . S
H1527 C1524 0.930 . S
C1528 C1530 1.348 . S
C1528 C1531 1.356 . S
C1528 O1558 1.325 . S
N1529 C1532 1.314 . S
N1529 C1533 1.279 . S
C1530 C1528 1.348 . S
C1530 C1532 1.353 . S
C1530 H1572 0.929 . S
C1531 C1528 1.356 . S
C1531 C1533 1.358 . S
C1531 H1573 0.930 . S
C1532 N1529 1.314 . S
C1532 C1530 1.353 . S
C1532 H1574 0.930 . S
C1533 N1529 1.279 . S
C1533 C1531 1.358 . S
C1533 H1575 0.930 . S
C1534 C1535 1.348 . S
C1534 C1536 1.356 . S
C1534 O1559 1.325 . S
C1535 C1534 1.348 . S
C1535 C1537 1.353 . S
C1535 H1576 0.929 . S
C1536 C1534 1.356 . S
C1536 C1538 1.358 . S
C1536 H1577 0.930 . S
C1537 C1535 1.353 . S
C1537 N1539 1.314 . S
C1537 H1578 0.930 . S
C1538 C1536 1.358 . S
C1538 N1539 1.279 . S
C1538 H1579 0.930 . S
N1539 C1537 1.314 . S
N1539 C1538 1.279 . S
C1540 C1542 1.353 . S
C1540 N1543 1.314 . S
C1540 H1546 0.930 . S
C1541 N1543 1.279 . S
C1541 C1544 1.358 . S
C1541 H1547 0.930 . S
C1542 C1540 1.353 . S
C1542 C1545 1.348 . S
C1542 H1580 0.929 . S
N1543 Li1498 1.990 . S
N1543 C1540 1.314 . S
N1543 C1541 1.279 . S
C1544 C1541 1.358 . S
C1544 C1545 1.356 . S
C1544 H1581 0.930 . S
C1545 C1542 1.348 . S
C1545 C1544 1.356 . S
H1546 C1540 0.930 . S
H1547 C1541 0.930 . S
C1548 N1549 1.314 . S
C1548 C1550 1.353 . S
C1548 H1554 0.930 . S
N1549 Li1499 1.990 . S
N1549 C1548 1.314 . S
N1549 C1552 1.279 . S
C1550 C1548 1.353 . S
C1550 C1553 1.348 . S
C1550 H1582 0.929 . S
C1551 C1552 1.358 . S
C1551 C1553 1.356 . S
C1551 H1583 0.930 . S
C1552 N1549 1.279 . S
C1552 C1551 1.358 . S
C1552 H1555 0.930 . S
C1553 C1550 1.348 . S
C1553 C1551 1.356 . S
H1554 C1548 0.930 . S
H1555 C1552 0.930 . S
O1556 Li1496 1.956 . S
O1556 Li1497 1.970 . S
O1556 Li1498 1.961 . S
O1556 C1500 1.325 . S
O1557 Li1496 1.970 . S
O1557 Li1497 1.956 . S
O1557 Li1499 1.961 . S
O1557 C1506 1.325 . S
O1558 Li1496 1.961 . S
O1558 Li1498 1.956 . S
O1558 Li1499 1.970 . S
O1558 C1528 1.325 . S
O1559 Li1497 1.961 . S
O1559 Li1498 1.970 . S
O1559 Li1499 1.956 . S
O1559 C1534 1.325 . S
H1560 C1502 0.929 . S
H1561 C1503 0.930 . S
H1562 C1504 0.930 . S
H1563 C1505 0.930 . S
H1564 C1507 0.930 . S
H1565 C1509 0.929 . S
H1566 C1510 0.930 . S
H1567 C1511 0.930 . S
H1568 C1514 0.930 . S
H1569 C1517 0.929 . S
H1570 C1522 0.929 . S
H1571 C1523 0.930 . S
H1572 C1530 0.929 . S
H1573 C1531 0.930 . S
H1574 C1532 0.930 . S
H1575 C1533 0.930 . S
H1576 C1535 0.929 . S
H1577 C1536 0.930 . S
H1578 C1537 0.930 . S
H1579 C1538 0.930 . S
H1580 C1542 0.929 . S
H1581 C1544 0.930 . S
H1582 C1550 0.929 . S
H1583 C1551 0.930 . S
Li1584 N1601 1.990 . S
Li1584 O1644 1.956 . S
Li1584 O1645 1.970 . S
Li1584 O1646 1.961 . S
Li1585 N1609 1.990 . S
Li1585 O1644 1.970 . S
Li1585 O1645 1.956 . S
Li1585 O1647 1.961 . S
Li1586 N1631 1.990 . S
Li1586 O1644 1.961 . S
Li1586 O1646 1.956 . S
Li1586 O1647 1.970 . S
Li1587 N1637 1.990 . S
Li1587 O1645 1.961 . S
Li1587 O1646 1.970 . S
Li1587 O1647 1.956 . S
C1588 C1590 1.348 . S
C1588 C1591 1.356 . S
C1588 O1644 1.325 . S
N1589 C1592 1.314 . S
N1589 C1593 1.279 . S
C1590 C1588 1.348 . S
C1590 C1592 1.353 . S
C1590 H1648 0.929 . S
C1591 C1588 1.356 . S
C1591 C1593 1.358 . S
C1591 H1649 0.930 . S
C1592 N1589 1.314 . S
C1592 C1590 1.353 . S
C1592 H1650 0.930 . S
C1593 N1589 1.279 . S
C1593 C1591 1.358 . S
C1593 H1651 0.930 . S
C1594 C1597 1.348 . S
C1594 C1598 1.356 . S
C1594 O1645 1.325 . S
C1595 N1596 1.279 . S
C1595 C1598 1.358 . S
C1595 H1652 0.930 . S
N1596 C1595 1.279 . S
N1596 C1599 1.314 . S
C1597 C1594 1.348 . S
C1597 C1599 1.353 . S
C1597 H1653 0.929 . S
C1598 C1594 1.356 . S
C1598 C1595 1.358 . S
C1598 H1654 0.930 . S
C1599 N1596 1.314 . S
C1599 C1597 1.353 . S
C1599 H1655 0.930 . S
C1600 N1601 1.314 . S
C1600 C1605 1.353 . S
C1600 H1606 0.930 . S
N1601 Li1584 1.990 . S
N1601 C1600 1.314 . S
N1601 C1603 1.279 . S
C1602 C1603 1.358 . S
C1602 C1604 1.356 . S
C1602 H1656 0.930 . S
C1603 N1601 1.279 . S
C1603 C1602 1.358 . S
C1603 H1607 0.930 . S
C1604 C1602 1.356 . S
C1604 C1605 1.348 . S
C1605 C1600 1.353 . S
C1605 C1604 1.348 . S
C1605 H1657 0.929 . S
H1606 C1600 0.930 . S
H1607 C1603 0.930 . S
C1608 N1609 1.314 . S
C1608 C1610 1.353 . S
C1608 H1614 0.930 . S
N1609 Li1585 1.990 . S
N1609 C1608 1.314 . S
N1609 C1612 1.279 . S
C1610 C1608 1.353 . S
C1610 C1613 1.348 . S
C1610 H1658 0.929 . S
C1611 C1612 1.358 . S
C1611 C1613 1.356 . S
C1611 H1659 0.930 . S
C1612 N1609 1.279 . S
C1612 C1611 1.358 . S
C1612 H1615 0.930 . S
C1613 C1610 1.348 . S
C1613 C1611 1.356 . S
H1614 C1608 0.930 . S
H1615 C1612 0.930 . S
C1616 C1618 1.348 . S
C1616 C1619 1.356 . S
C1616 O1646 1.325 . S
N1617 C1620 1.314 . S
N1617 C1621 1.279 . S
C1618 C1616 1.348 . S
C1618 C1620 1.353 . S
C1618 H1660 0.929 . S
C1619 C1616 1.356 . S
C1619 C1621 1.358 . S
C1619 H1661 0.930 . S
C1620 N1617 1.314 . S
C1620 C1618 1.353 . S
C1620 H1662 0.930 . S
C1621 N1617 1.279 . S
C1621 C1619 1.358 . S
C1621 H1663 0.930 . S
C1622 C1623 1.348 . S
C1622 C1624 1.356 . S
C1622 O1647 1.325 . S
C1623 C1622 1.348 . S
C1623 C1625 1.353 . S
C1623 H1664 0.929 . S
C1624 C1622 1.356 . S
C1624 C1626 1.358 . S
C1624 H1665 0.930 . S
C1625 C1623 1.353 . S
C1625 N1627 1.314 . S
C1625 H1666 0.930 . S
C1626 C1624 1.358 . S
C1626 N1627 1.279 . S
C1626 H1667 0.930 . S
N1627 C1625 1.314 . S
N1627 C1626 1.279 . S
C1628 C1630 1.353 . S
C1628 N1631 1.314 . S
C1628 H1634 0.930 . S
C1629 N1631 1.279 . S
C1629 C1632 1.358 . S
C1629 H1635 0.930 . S
C1630 C1628 1.353 . S
C1630 C1633 1.348 . S
C1630 H1668 0.929 . S
N1631 Li1586 1.990 . S
N1631 C1628 1.314 . S
N1631 C1629 1.279 . S
C1632 C1629 1.358 . S
C1632 C1633 1.356 . S
C1632 H1669 0.930 . S
C1633 C1630 1.348 . S
C1633 C1632 1.356 . S
H1634 C1628 0.930 . S
H1635 C1629 0.930 . S
C1636 N1637 1.314 . S
C1636 C1638 1.353 . S
C1636 H1642 0.930 . S
N1637 Li1587 1.990 . S
N1637 C1636 1.314 . S
N1637 C1640 1.279 . S
C1638 C1636 1.353 . S
C1638 C1641 1.348 . S
C1638 H1670 0.929 . S
C1639 C1640 1.358 . S
C1639 C1641 1.356 . S
C1639 H1671 0.930 . S
C1640 N1637 1.279 . S
C1640 C1639 1.358 . S
C1640 H1643 0.930 . S
C1641 C1638 1.348 . S
C1641 C1639 1.356 . S
H1642 C1636 0.930 . S
H1643 C1640 0.930 . S
O1644 Li1584 1.956 . S
O1644 Li1585 1.970 . S
O1644 Li1586 1.961 . S
O1644 C1588 1.325 . S
O1645 Li1584 1.970 . S
O1645 Li1585 1.956 . S
O1645 Li1587 1.961 . S
O1645 C1594 1.325 . S
O1646 Li1584 1.961 . S
O1646 Li1586 1.956 . S
O1646 Li1587 1.970 . S
O1646 C1616 1.325 . S
O1647 Li1585 1.961 . S
O1647 Li1586 1.970 . S
O1647 Li1587 1.956 . S
O1647 C1622 1.325 . S
H1648 C1590 0.929 . S
H1649 C1591 0.930 . S
H1650 C1592 0.930 . S
H1651 C1593 0.930 . S
H1652 C1595 0.930 . S
H1653 C1597 0.929 . S
H1654 C1598 0.930 . S
H1655 C1599 0.930 . S
H1656 C1602 0.930 . S
H1657 C1605 0.929 . S
H1658 C1610 0.929 . S
H1659 C1611 0.930 . S
H1660 C1618 0.929 . S
H1661 C1619 0.930 . S
H1662 C1620 0.930 . S
H1663 C1621 0.930 . S
H1664 C1623 0.929 . S
H1665 C1624 0.930 . S
H1666 C1625 0.930 . S
H1667 C1626 0.930 . S
H1668 C1630 0.929 . S
H1669 C1632 0.930 . S
H1670 C1638 0.929 . S
H1671 C1639 0.930 . S
Li1672 N1689 1.990 . S
Li1672 O1732 1.941 1_565 S
Li1672 O1733 1.973 1_565 S
Li1672 O1734 1.976 . S
Li1673 N1697 1.990 . S
Li1673 O1732 1.970 . S
Li1673 O1733 1.956 . S
Li1673 O1735 1.961 . S
Li1674 N1719 1.990 . S
Li1674 O1732 1.961 1_565 S
Li1674 O1734 1.956 . S
Li1674 O1735 1.970 1_565 S
Li1675 N1725 1.990 . S
Li1675 O1733 1.961 1_565 S
Li1675 O1734 1.970 . S
Li1675 O1735 1.956 1_565 S
C1676 C1678 1.348 . S
C1676 C1679 1.356 . S
C1676 O1732 1.325 . S
N1677 C1680 1.314 . S
N1677 C1681 1.279 . S
C1678 C1676 1.348 . S
C1678 C1680 1.353 . S
C1678 H1736 0.929 . S
C1679 C1676 1.356 . S
C1679 C1681 1.358 . S
C1679 H1737 0.930 . S
C1680 N1677 1.314 . S
C1680 C1678 1.353 . S
C1680 H1738 0.930 . S
C1681 N1677 1.279 . S
C1681 C1679 1.358 . S
C1681 H1739 0.930 . S
C1682 C1685 1.348 . S
C1682 C1686 1.356 . S
C1682 O1733 1.325 . S
C1683 N1684 1.279 . S
C1683 C1686 1.358 . S
C1683 H1740 0.930 . S
N1684 C1683 1.279 . S
N1684 C1687 1.314 . S
C1685 C1682 1.348 . S
C1685 C1687 1.353 . S
C1685 H1741 0.929 . S
C1686 C1682 1.356 . S
C1686 C1683 1.358 . S
C1686 H1742 0.941 . S
C1687 N1684 1.314 . S
C1687 C1685 1.353 . S
C1687 H1743 0.930 . S
C1688 N1689 1.314 . S
C1688 C1693 1.353 . S
C1688 H1694 0.930 . S
N1689 Li1672 1.990 . S
N1689 C1688 1.314 . S
N1689 C1691 1.279 1_565 S
C1690 C1691 1.358 . S
C1690 C1692 1.356 1_545 S
C1690 H1744 0.930 . S
C1691 N1689 1.279 1_545 S
C1691 C1690 1.358 . S
C1691 H1695 0.930 . S
C1692 C1690 1.356 1_565 S
C1692 C1693 1.348 . S
C1693 C1688 1.353 . S
C1693 C1692 1.348 . S
C1693 H1745 0.929 . S
H1694 C1688 0.930 . S
H1695 C1691 0.930 . S
C1696 N1697 1.314 . S
C1696 C1698 1.353 . S
C1696 H1702 0.930 . S
N1697 Li1673 1.990 . S
N1697 C1696 1.314 . S
N1697 C1700 1.279 . S
C1698 C1696 1.353 . S
C1698 C1701 1.348 . S
C1698 H1746 0.929 . S
C1699 C1700 1.358 . S
C1699 C1701 1.356 . S
C1699 H1747 0.930 . S
C1700 N1697 1.279 . S
C1700 C1699 1.358 . S
C1700 H1703 0.930 . S
C1701 C1698 1.348 . S
C1701 C1699 1.356 . S
H1702 C1696 0.930 . S
H1703 C1700 0.930 . S
C1704 C1706 1.348 . S
C1704 C1707 1.356 . S
C1704 O1734 1.325 . S
N1705 C1708 1.314 . S
N1705 C1709 1.279 . S
C1706 C1704 1.348 . S
C1706 C1708 1.353 . S
C1706 H1748 0.929 . S
C1707 C1704 1.356 . S
C1707 C1709 1.358 . S
C1707 H1749 0.930 . S
C1708 N1705 1.314 . S
C1708 C1706 1.353 . S
C1708 H1750 0.930 . S
C1709 N1705 1.279 . S
C1709 C1707 1.358 . S
C1709 H1751 0.930 . S
C1710 C1711 1.348 1_545 S
C1710 C1712 1.356 . S
C1710 O1735 1.325 . S
C1711 C1710 1.348 1_565 S
C1711 C1713 1.353 . S
C1711 H1752 0.929 . S
C1712 C1710 1.356 . S
C1712 C1714 1.358 . S
C1712 H1753 0.930 . S
C1713 C1711 1.353 . S
C1713 N1715 1.314 1_565 S
C1713 H1754 0.930 . S
C1714 C1712 1.358 . S
C1714 N1715 1.279 . S
C1714 H1755 0.930 . S
N1715 C1713 1.314 1_545 S
N1715 C1714 1.279 . S
C1716 C1718 1.353 . S
C1716 N1719 1.314 1_545 S
C1716 H1722 0.930 . S
C1717 N1719 1.279 . S
C1717 C1720 1.358 . S
C1717 H1723 0.930 . S
C1718 C1716 1.353 . S
C1718 C1721 1.348 1_545 S
C1718 H1756 0.929 . S
N1719 Li1674 1.990 . S
N1719 C1716 1.314 1_565 S
N1719 C1717 1.279 . S
C1720 C1717 1.358 . S
C1720 C1721 1.356 . S
C1720 H1757 0.930 . S
C1721 C1718 1.348 1_565 S
C1721 C1720 1.356 . S
H1722 C1716 0.930 . S
H1723 C1717 0.930 . S
C1724 N1725 1.314 . S
C1724 C1726 1.353 . S
C1724 H1730 0.930 . S
N1725 Li1675 1.990 . S
N1725 C1724 1.314 . S
N1725 C1728 1.279 . S
C1726 C1724 1.353 . S
C1726 C1729 1.348 . S
C1726 H1758 0.929 . S
C1727 C1728 1.358 . S
C1727 C1729 1.356 . S
C1727 H1759 0.930 . S
C1728 N1725 1.279 . S
C1728 C1727 1.358 . S
C1728 H1731 0.930 . S
C1729 C1726 1.348 . S
C1729 C1727 1.356 . S
H1730 C1724 0.930 . S
H1731 C1728 0.930 . S
O1732 Li1672 1.941 1_545 S
O1732 Li1673 1.970 . S
O1732 Li1674 1.961 1_545 S
O1732 C1676 1.325 . S
O1733 Li1672 1.973 1_545 S
O1733 Li1673 1.956 . S
O1733 Li1675 1.961 1_545 S
O1733 C1682 1.325 . S
O1734 Li1672 1.976 . S
O1734 Li1674 1.956 . S
O1734 Li1675 1.970 . S
O1734 C1704 1.325 . S
O1735 Li1673 1.961 . S
O1735 Li1674 1.970 1_545 S
O1735 Li1675 1.956 1_545 S
O1735 C1710 1.325 . S
H1736 C1678 0.929 . S
H1737 C1679 0.930 . S
H1738 C1680 0.930 . S
H1739 C1681 0.930 . S
H1740 C1683 0.930 . S
H1741 C1685 0.929 . S
H1742 C1686 0.941 . S
H1743 C1687 0.930 . S
H1744 C1690 0.930 . S
H1745 C1693 0.929 . S
H1746 C1698 0.929 . S
H1747 C1699 0.930 . S
H1748 C1706 0.929 . S
H1749 C1707 0.930 . S
H1750 C1708 0.930 . S
H1751 C1709 0.930 . S
H1752 C1711 0.929 . S
H1753 C1712 0.930 . S
H1754 C1713 0.930 . S
H1755 C1714 0.930 . S
H1756 C1718 0.929 . S
H1757 C1720 0.930 . S
H1758 C1726 0.929 . S
H1759 C1727 0.930 . S
Li1760 N1777 1.990 . S
Li1760 O1820 1.956 . S
Li1760 O1821 1.970 . S
Li1760 O1822 1.961 . S
Li1761 N1785 1.990 . S
Li1761 O1820 1.970 . S
Li1761 O1821 1.956 . S
Li1761 O1823 1.961 . S
Li1762 N1807 1.990 1_554 S
Li1762 O1820 1.961 . S
Li1762 O1822 1.956 . S
Li1762 O1823 1.970 . S
Li1763 N1813 1.990 . S
Li1763 O1821 1.961 . S
Li1763 O1822 1.970 . S
Li1763 O1823 1.956 . S
C1764 C1766 1.348 . S
C1764 C1767 1.356 . S
C1764 O1820 1.325 . S
N1765 C1768 1.314 . S
N1765 C1769 1.279 . S
C1766 C1764 1.348 . S
C1766 C1768 1.353 . S
C1766 H1824 0.929 . S
C1767 C1764 1.356 . S
C1767 C1769 1.358 . S
C1767 H1825 0.930 . S
C1768 N1765 1.314 . S
C1768 C1766 1.353 . S
C1768 H1826 0.930 . S
C1769 N1765 1.279 . S
C1769 C1767 1.358 . S
C1769 H1827 0.930 . S
C1770 C1773 1.348 . S
C1770 C1774 1.356 . S
C1770 O1821 1.325 . S
C1771 N1772 1.279 . S
C1771 C1774 1.358 . S
C1771 H1828 0.930 . S
N1772 C1771 1.279 . S
N1772 C1775 1.314 . S
C1773 C1770 1.348 . S
C1773 C1775 1.353 . S
C1773 H1829 0.929 . S
C1774 C1770 1.356 . S
C1774 C1771 1.358 . S
C1774 H1830 0.930 . S
C1775 N1772 1.314 . S
C1775 C1773 1.353 . S
C1775 H1831 0.930 . S
C1776 N1777 1.314 . S
C1776 C1781 1.353 . S
C1776 H1782 0.930 . S
N1777 Li1760 1.990 . S
N1777 C1776 1.314 . S
N1777 C1779 1.279 . S
C1778 C1779 1.358 . S
C1778 C1780 1.356 . S
C1778 H1832 0.930 . S
C1779 N1777 1.279 . S
C1779 C1778 1.358 . S
C1779 H1783 0.930 . S
C1780 C1778 1.356 . S
C1780 C1781 1.348 . S
C1781 C1776 1.353 . S
C1781 C1780 1.348 . S
C1781 H1833 0.929 . S
H1782 C1776 0.930 . S
H1783 C1779 0.930 . S
C1784 N1785 1.314 . S
C1784 C1786 1.353 . S
C1784 H1790 0.930 . S
N1785 Li1761 1.990 . S
N1785 C1784 1.314 . S
N1785 C1788 1.279 . S
C1786 C1784 1.353 . S
C1786 C1789 1.348 . S
C1786 H1834 0.929 . S
C1787 C1788 1.358 . S
C1787 C1789 1.356 . S
C1787 H1835 0.930 . S
C1788 N1785 1.279 . S
C1788 C1787 1.358 . S
C1788 H1791 0.930 . S
C1789 C1786 1.348 . S
C1789 C1787 1.356 . S
H1790 C1784 0.930 . S
H1791 C1788 0.930 . S
C1792 C1794 1.348 . S
C1792 C1795 1.356 . S
C1792 O1822 1.325 . S
N1793 C1796 1.314 . S
N1793 C1797 1.279 . S
C1794 C1792 1.348 . S
C1794 C1796 1.353 . S
C1794 H1836 0.929 . S
C1795 C1792 1.356 . S
C1795 C1797 1.358 . S
C1795 H1837 0.930 . S
C1796 N1793 1.314 . S
C1796 C1794 1.353 . S
C1796 H1838 0.930 . S
C1797 N1793 1.279 . S
C1797 C1795 1.358 . S
C1797 H1839 0.930 . S
C1798 C1799 1.348 . S
C1798 C1800 1.356 . S
C1798 O1823 1.325 1_556 S
C1799 C1798 1.348 . S
C1799 C1801 1.353 . S
C1799 H1840 0.929 . S
C1800 C1798 1.356 . S
C1800 C1802 1.358 . S
C1800 H1841 0.930 1_556 S
C1801 C1799 1.353 . S
C1801 N1803 1.314 . S
C1801 H1842 0.930 . S
C1802 C1800 1.358 . S
C1802 N1803 1.279 . S
C1802 H1843 0.930 . S
N1803 C1801 1.314 . S
N1803 C1802 1.279 . S
C1804 C1806 1.353 . S
C1804 N1807 1.314 . S
C1804 H1810 0.930 . S
C1805 N1807 1.279 . S
C1805 C1808 1.358 . S
C1805 H1811 0.930 . S
C1806 C1804 1.353 . S
C1806 C1809 1.348 . S
C1806 H1844 0.929 . S
N1807 Li1762 1.990 1_556 S
N1807 C1804 1.314 . S
N1807 C1805 1.279 . S
C1808 C1805 1.358 . S
C1808 C1809 1.356 . S
C1808 H1845 0.930 . S
C1809 C1806 1.348 . S
C1809 C1808 1.356 . S
H1810 C1804 0.930 . S
H1811 C1805 0.930 . S
C1812 N1813 1.314 . S
C1812 C1814 1.353 . S
C1812 H1818 0.930 . S
N1813 Li1763 1.990 . S
N1813 C1812 1.314 . S
N1813 C1816 1.279 . S
C1814 C1812 1.353 . S
C1814 C1817 1.348 . S
C1814 H1846 0.929 . S
C1815 C1816 1.358 . S
C1815 C1817 1.356 . S
C1815 H1847 0.930 1_554 S
C1816 N1813 1.279 . S
C1816 C1815 1.358 . S
C1816 H1819 0.930 1_554 S
C1817 C1814 1.348 . S
C1817 C1815 1.356 . S
H1818 C1812 0.930 . S
H1819 C1816 0.930 1_556 S
O1820 Li1760 1.956 . S
O1820 Li1761 1.970 . S
O1820 Li1762 1.961 . S
O1820 C1764 1.325 . S
O1821 Li1760 1.970 . S
O1821 Li1761 1.956 . S
O1821 Li1763 1.961 . S
O1821 C1770 1.325 . S
O1822 Li1760 1.961 . S
O1822 Li1762 1.956 . S
O1822 Li1763 1.970 . S
O1822 C1792 1.325 . S
O1823 Li1761 1.961 . S
O1823 Li1762 1.970 . S
O1823 Li1763 1.956 . S
O1823 C1798 1.325 1_554 S
H1824 C1766 0.929 . S
H1825 C1767 0.930 . S
H1826 C1768 0.930 . S
H1827 C1769 0.930 . S
H1828 C1771 0.930 . S
H1829 C1773 0.929 . S
H1830 C1774 0.930 . S
H1831 C1775 0.930 . S
H1832 C1778 0.930 . S
H1833 C1781 0.929 . S
H1834 C1786 0.929 . S
H1835 C1787 0.930 . S
H1836 C1794 0.929 . S
H1837 C1795 0.930 . S
H1838 C1796 0.930 . S
H1839 C1797 0.930 . S
H1840 C1799 0.929 . S
H1841 C1800 0.930 1_554 S
H1842 C1801 0.930 . S
H1843 C1802 0.930 . S
H1844 C1806 0.929 . S
H1845 C1808 0.930 . S
H1846 C1814 0.929 . S
H1847 C1815 0.930 1_556 S
Li1848 N1865 1.990 . S
Li1848 O1908 1.956 . S
Li1848 O1909 1.970 . S
Li1848 O1910 1.961 . S
Li1849 N1873 1.990 . S
Li1849 O1908 1.970 . S
Li1849 O1909 1.956 . S
Li1849 O1911 1.961 . S
Li1850 N1895 1.990 . S
Li1850 O1908 1.961 . S
Li1850 O1910 1.956 . S
Li1850 O1911 1.970 . S
Li1851 N1901 1.990 . S
Li1851 O1909 1.961 . S
Li1851 O1910 1.970 . S
Li1851 O1911 1.956 . S
C1852 C1854 1.348 . S
C1852 C1855 1.356 . S
C1852 O1908 1.325 . S
N1853 C1856 1.314 . S
N1853 C1857 1.279 . S
C1854 C1852 1.348 . S
C1854 C1856 1.353 . S
C1854 H1912 0.929 . S
C1855 C1852 1.356 . S
C1855 C1857 1.358 . S
C1855 H1913 0.930 . S
C1856 N1853 1.314 . S
C1856 C1854 1.353 . S
C1856 H1914 0.930 . S
C1857 N1853 1.279 . S
C1857 C1855 1.358 . S
C1857 H1915 0.930 . S
C1858 C1861 1.348 . S
C1858 C1862 1.356 . S
C1858 O1909 1.325 . S
C1859 N1860 1.279 . S
C1859 C1862 1.358 . S
C1859 H1916 0.930 1_655 S
N1860 C1859 1.279 . S
N1860 C1863 1.314 . S
C1861 C1858 1.348 . S
C1861 C1863 1.353 . S
C1861 H1917 0.929 . S
C1862 C1858 1.356 . S
C1862 C1859 1.358 . S
C1862 H1918 0.930 . S
C1863 N1860 1.314 . S
C1863 C1861 1.353 . S
C1863 H1919 0.930 . S
C1864 N1865 1.314 . S
C1864 C1869 1.353 . S
C1864 H1870 0.930 . S
N1865 Li1848 1.990 . S
N1865 C1864 1.314 . S
N1865 C1867 1.279 . S
C1866 C1867 1.358 . S
C1866 C1868 1.356 . S
C1866 H1920 0.930 . S
C1867 N1865 1.279 . S
C1867 C1866 1.358 . S
C1867 H1871 0.930 . S
C1868 C1866 1.356 . S
C1868 C1869 1.348 . S
C1869 C1864 1.353 . S
C1869 C1868 1.348 . S
C1869 H1921 0.929 . S
H1870 C1864 0.930 . S
H1871 C1867 0.930 . S
C1872 N1873 1.314 . S
C1872 C1874 1.353 . S
C1872 H1878 0.930 . S
N1873 Li1849 1.990 . S
N1873 C1872 1.314 . S
N1873 C1876 1.279 . S
C1874 C1872 1.353 . S
C1874 C1877 1.348 . S
C1874 H1922 0.929 . S
C1875 C1876 1.358 . S
C1875 C1877 1.356 . S
C1875 H1923 0.930 . S
C1876 N1873 1.279 . S
C1876 C1875 1.358 . S
C1876 H1879 0.930 . S
C1877 C1874 1.348 . S
C1877 C1875 1.356 . S
H1878 C1872 0.930 . S
H1879 C1876 0.930 . S
C1880 C1882 1.348 . S
C1880 C1883 1.356 . S
C1880 O1910 1.325 . S
N1881 C1884 1.314 . S
N1881 C1885 1.279 . S
C1882 C1880 1.348 . S
C1882 C1884 1.353 . S
C1882 H1924 0.929 . S
C1883 C1880 1.356 . S
C1883 C1885 1.358 . S
C1883 H1925 0.930 . S
C1884 N1881 1.314 . S
C1884 C1882 1.353 . S
C1884 H1926 0.930 . S
C1885 N1881 1.279 . S
C1885 C1883 1.358 . S
C1885 H1927 0.930 . S
C1886 C1887 1.348 . S
C1886 C1888 1.356 . S
C1886 O1911 1.325 . S
C1887 C1886 1.348 . S
C1887 C1889 1.353 . S
C1887 H1928 0.929 . S
C1888 C1886 1.356 . S
C1888 C1890 1.358 . S
C1888 H1929 0.930 . S
C1889 C1887 1.353 . S
C1889 N1891 1.314 . S
C1889 H1930 0.930 . S
C1890 C1888 1.358 . S
C1890 N1891 1.279 . S
C1890 H1931 0.930 1_655 S
N1891 C1889 1.314 . S
N1891 C1890 1.279 . S
C1892 C1894 1.353 . S
C1892 N1895 1.314 . S
C1892 H1898 0.930 . S
C1893 N1895 1.279 . S
C1893 C1896 1.358 . S
C1893 H1899 0.930 . S
C1894 C1892 1.353 . S
C1894 C1897 1.348 . S
C1894 H1932 0.929 . S
N1895 Li1850 1.990 . S
N1895 C1892 1.314 . S
N1895 C1893 1.279 . S
C1896 C1893 1.358 . S
C1896 C1897 1.356 . S
C1896 H1933 0.930 . S
C1897 C1894 1.348 . S
C1897 C1896 1.356 . S
H1898 C1892 0.930 . S
H1899 C1893 0.930 . S
C1900 N1901 1.314 . S
C1900 C1902 1.353 . S
C1900 H1906 0.930 . S
N1901 Li1851 1.990 . S
N1901 C1900 1.314 . S
N1901 C1904 1.279 . S
C1902 C1900 1.353 . S
C1902 C1905 1.348 . S
C1902 H1934 0.929 . S
C1903 C1904 1.358 . S
C1903 C1905 1.356 . S
C1903 H1935 0.930 . S
C1904 N1901 1.279 . S
C1904 C1903 1.358 . S
C1904 H1907 0.930 . S
C1905 C1902 1.348 . S
C1905 C1903 1.356 . S
H1906 C1900 0.930 . S
H1907 C1904 0.930 . S
O1908 Li1848 1.956 . S
O1908 Li1849 1.970 . S
O1908 Li1850 1.961 . S
O1908 C1852 1.325 . S
O1909 Li1848 1.970 . S
O1909 Li1849 1.956 . S
O1909 Li1851 1.961 . S
O1909 C1858 1.325 . S
O1910 Li1848 1.961 . S
O1910 Li1850 1.956 . S
O1910 Li1851 1.970 . S
O1910 C1880 1.325 . S
O1911 Li1849 1.961 . S
O1911 Li1850 1.970 . S
O1911 Li1851 1.956 . S
O1911 C1886 1.325 . S
H1912 C1854 0.929 . S
H1913 C1855 0.930 . S
H1914 C1856 0.930 . S
H1915 C1857 0.930 . S
H1916 C1859 0.930 1_455 S
H1917 C1861 0.929 . S
H1918 C1862 0.930 . S
H1919 C1863 0.930 . S
H1920 C1866 0.930 . S
H1921 C1869 0.929 . S
H1922 C1874 0.929 . S
H1923 C1875 0.930 . S
H1924 C1882 0.929 . S
H1925 C1883 0.930 . S
H1926 C1884 0.930 . S
H1927 C1885 0.930 . S
H1928 C1887 0.929 . S
H1929 C1888 0.930 . S
H1930 C1889 0.930 . S
H1931 C1890 0.930 1_455 S
H1932 C1894 0.929 . S
H1933 C1896 0.930 . S
H1934 C1902 0.929 . S
H1935 C1903 0.930 . S
Li1936 N1953 1.990 . S
Li1936 O1996 1.956 . S
Li1936 O1997 1.970 . S
Li1936 O1998 1.961 . S
Li1937 N1961 1.990 . S
Li1937 O1996 1.970 . S
Li1937 O1997 1.956 . S
Li1937 O1999 1.961 . S
Li1938 N1983 1.990 . S
Li1938 O1996 1.961 . S
Li1938 O1998 1.956 . S
Li1938 O1999 1.970 . S
Li1939 N1989 1.990 . S
Li1939 O1997 1.961 . S
Li1939 O1998 1.970 . S
Li1939 O1999 1.956 . S
C1940 C1942 1.348 . S
C1940 C1943 1.356 . S
C1940 O1996 1.325 . S
N1941 C1944 1.314 . S
N1941 C1945 1.279 . S
C1942 C1940 1.348 . S
C1942 C1944 1.353 . S
C1942 H2000 0.929 . S
C1943 C1940 1.356 . S
C1943 C1945 1.358 . S
C1943 H2001 0.930 . S
C1944 N1941 1.314 . S
C1944 C1942 1.353 . S
C1944 H2002 0.930 . S
C1945 N1941 1.279 . S
C1945 C1943 1.358 . S
C1945 H2003 0.930 . S
C1946 C1949 1.348 . S
C1946 C1950 1.356 . S
C1946 O1997 1.325 . S
C1947 N1948 1.279 . S
C1947 C1950 1.358 . S
C1947 H2004 0.930 . S
N1948 C1947 1.279 . S
N1948 C1951 1.314 . S
C1949 C1946 1.348 . S
C1949 C1951 1.353 . S
C1949 H2005 0.929 . S
C1950 C1946 1.356 . S
C1950 C1947 1.358 . S
C1950 H2006 0.930 . S
C1951 N1948 1.314 . S
C1951 C1949 1.353 . S
C1951 H2007 0.930 . S
C1952 N1953 1.314 . S
C1952 C1957 1.353 . S
C1952 H1958 0.930 . S
N1953 Li1936 1.990 . S
N1953 C1952 1.314 . S
N1953 C1955 1.279 . S
C1954 C1955 1.358 . S
C1954 C1956 1.356 . S
C1954 H2008 0.930 . S
C1955 N1953 1.279 . S
C1955 C1954 1.358 . S
C1955 H1959 0.930 . S
C1956 C1954 1.356 . S
C1956 C1957 1.348 . S
C1957 C1952 1.353 . S
C1957 C1956 1.348 . S
C1957 H2009 0.929 . S
H1958 C1952 0.930 . S
H1959 C1955 0.930 . S
C1960 N1961 1.314 . S
C1960 C1962 1.353 . S
C1960 H1966 0.930 . S
N1961 Li1937 1.990 . S
N1961 C1960 1.314 . S
N1961 C1964 1.279 . S
C1962 C1960 1.353 . S
C1962 C1965 1.348 . S
C1962 H2010 0.929 . S
C1963 C1964 1.358 . S
C1963 C1965 1.356 . S
C1963 H2011 0.930 . S
C1964 N1961 1.279 . S
C1964 C1963 1.358 . S
C1964 H1967 0.930 . S
C1965 C1962 1.348 . S
C1965 C1963 1.356 . S
H1966 C1960 0.930 . S
H1967 C1964 0.930 . S
C1968 C1970 1.348 . S
C1968 C1971 1.356 . S
C1968 O1998 1.325 . S
N1969 C1972 1.314 . S
N1969 C1973 1.279 . S
C1970 C1968 1.348 . S
C1970 C1972 1.353 . S
C1970 H2012 0.929 . S
C1971 C1968 1.356 . S
C1971 C1973 1.358 . S
C1971 H2013 0.930 . S
C1972 N1969 1.314 . S
C1972 C1970 1.353 . S
C1972 H2014 0.930 . S
C1973 N1969 1.279 . S
C1973 C1971 1.358 . S
C1973 H2015 0.930 . S
C1974 C1975 1.348 . S
C1974 C1976 1.356 . S
C1974 O1999 1.325 . S
C1975 C1974 1.348 . S
C1975 C1977 1.353 . S
C1975 H2016 0.929 . S
C1976 C1974 1.356 . S
C1976 C1978 1.358 . S
C1976 H2017 0.930 . S
C1977 C1975 1.353 . S
C1977 N1979 1.314 . S
C1977 H2018 0.930 . S
C1978 C1976 1.358 . S
C1978 N1979 1.279 . S
C1978 H2019 0.930 . S
N1979 C1977 1.314 . S
N1979 C1978 1.279 . S
C1980 C1982 1.353 . S
C1980 N1983 1.314 . S
C1980 H1986 0.930 . S
C1981 N1983 1.279 . S
C1981 C1984 1.358 . S
C1981 H1987 0.930 . S
C1982 C1980 1.353 . S
C1982 C1985 1.348 . S
C1982 H2020 0.929 . S
N1983 Li1938 1.990 . S
N1983 C1980 1.314 . S
N1983 C1981 1.279 . S
C1984 C1981 1.358 . S
C1984 C1985 1.356 . S
C1984 H2021 0.930 . S
C1985 C1982 1.348 . S
C1985 C1984 1.356 . S
H1986 C1980 0.930 . S
H1987 C1981 0.930 . S
C1988 N1989 1.314 . S
C1988 C1990 1.353 . S
C1988 H1994 0.930 . S
N1989 Li1939 1.990 . S
N1989 C1988 1.314 . S
N1989 C1992 1.279 . S
C1990 C1988 1.353 . S
C1990 C1993 1.348 . S
C1990 H2022 0.929 . S
C1991 C1992 1.358 . S
C1991 C1993 1.356 . S
C1991 H2023 0.930 . S
C1992 N1989 1.279 . S
C1992 C1991 1.358 . S
C1992 H1995 0.930 . S
C1993 C1990 1.348 . S
C1993 C1991 1.356 . S
H1994 C1988 0.930 . S
H1995 C1992 0.930 . S
O1996 Li1936 1.956 . S
O1996 Li1937 1.970 . S
O1996 Li1938 1.961 . S
O1996 C1940 1.325 . S
O1997 Li1936 1.970 . S
O1997 Li1937 1.956 . S
O1997 Li1939 1.961 . S
O1997 C1946 1.325 . S
O1998 Li1936 1.961 . S
O1998 Li1938 1.956 . S
O1998 Li1939 1.970 . S
O1998 C1968 1.325 . S
O1999 Li1937 1.961 . S
O1999 Li1938 1.970 . S
O1999 Li1939 1.956 . S
O1999 C1974 1.325 . S
H2000 C1942 0.929 . S
H2001 C1943 0.930 . S
H2002 C1944 0.930 . S
H2003 C1945 0.930 . S
H2004 C1947 0.930 . S
H2005 C1949 0.929 . S
H2006 C1950 0.930 . S
H2007 C1951 0.930 . S
H2008 C1954 0.930 . S
H2009 C1957 0.929 . S
H2010 C1962 0.929 . S
H2011 C1963 0.930 . S
H2012 C1970 0.929 . S
H2013 C1971 0.930 . S
H2014 C1972 0.930 . S
H2015 C1973 0.930 . S
H2016 C1975 0.929 . S
H2017 C1976 0.930 . S
H2018 C1977 0.930 . S
H2019 C1978 0.930 . S
H2020 C1982 0.929 . S
H2021 C1984 0.930 . S
H2022 C1990 0.929 . S
H2023 C1991 0.930 . S
Li2024 N2041 1.990 . S
Li2024 O2084 1.956 . S
Li2024 O2085 1.970 . S
Li2024 O2086 1.961 . S
Li2025 N2049 1.990 . S
Li2025 O2084 1.970 . S
Li2025 O2085 1.956 . S
Li2025 O2087 1.961 . S
Li2026 N2071 1.990 . S
Li2026 O2084 1.961 . S
Li2026 O2086 1.956 . S
Li2026 O2087 1.970 . S
Li2027 N2077 1.990 . S
Li2027 O2085 1.961 . S
Li2027 O2086 1.970 . S
Li2027 O2087 1.956 . S
C2028 C2030 1.348 . S
C2028 C2031 1.356 . S
C2028 O2084 1.325 . S
N2029 C2032 1.314 . S
N2029 C2033 1.279 . S
C2030 C2028 1.348 . S
C2030 C2032 1.353 . S
C2030 H2088 0.929 . S
C2031 C2028 1.356 . S
C2031 C2033 1.358 . S
C2031 H2089 0.930 . S
C2032 N2029 1.314 . S
C2032 C2030 1.353 . S
C2032 H2090 0.930 . S
C2033 N2029 1.279 . S
C2033 C2031 1.358 . S
C2033 H2091 0.930 . S
C2034 C2037 1.348 . S
C2034 C2038 1.356 . S
C2034 O2085 1.325 . S
C2035 N2036 1.279 . S
C2035 C2038 1.358 . S
C2035 H2092 0.930 . S
N2036 C2035 1.279 . S
N2036 C2039 1.314 . S
C2037 C2034 1.348 . S
C2037 C2039 1.353 . S
C2037 H2093 0.929 . S
C2038 C2034 1.356 . S
C2038 C2035 1.358 . S
C2038 H2094 0.930 . S
C2039 N2036 1.314 . S
C2039 C2037 1.353 . S
C2039 H2095 0.930 . S
C2040 N2041 1.314 . S
C2040 C2045 1.353 . S
C2040 H2046 0.930 . S
N2041 Li2024 1.990 . S
N2041 C2040 1.314 . S
N2041 C2043 1.279 . S
C2042 C2043 1.358 . S
C2042 C2044 1.356 . S
C2042 H2096 0.930 . S
C2043 N2041 1.279 . S
C2043 C2042 1.358 . S
C2043 H2047 0.930 . S
C2044 C2042 1.356 . S
C2044 C2045 1.348 . S
C2045 C2040 1.353 . S
C2045 C2044 1.348 . S
C2045 H2097 0.929 . S
H2046 C2040 0.930 . S
H2047 C2043 0.930 . S
C2048 N2049 1.314 . S
C2048 C2050 1.353 . S
C2048 H2054 0.930 . S
N2049 Li2025 1.990 . S
N2049 C2048 1.314 . S
N2049 C2052 1.279 . S
C2050 C2048 1.353 . S
C2050 C2053 1.348 . S
C2050 H2098 0.929 . S
C2051 C2052 1.358 . S
C2051 C2053 1.356 . S
C2051 H2099 0.930 . S
C2052 N2049 1.279 . S
C2052 C2051 1.358 . S
C2052 H2055 0.930 . S
C2053 C2050 1.348 . S
C2053 C2051 1.356 . S
H2054 C2048 0.930 . S
H2055 C2052 0.930 . S
C2056 C2058 1.348 . S
C2056 C2059 1.356 . S
C2056 O2086 1.325 . S
N2057 C2060 1.314 . S
N2057 C2061 1.279 . S
C2058 C2056 1.348 . S
C2058 C2060 1.353 . S
C2058 H2100 0.929 . S
C2059 C2056 1.356 . S
C2059 C2061 1.358 . S
C2059 H2101 0.930 . S
C2060 N2057 1.314 . S
C2060 C2058 1.353 . S
C2060 H2102 0.930 . S
C2061 N2057 1.279 . S
C2061 C2059 1.358 . S
C2061 H2103 0.930 . S
C2062 C2063 1.348 . S
C2062 C2064 1.356 . S
C2062 O2087 1.325 . S
C2063 C2062 1.348 . S
C2063 C2065 1.353 . S
C2063 H2104 0.929 . S
C2064 C2062 1.356 . S
C2064 C2066 1.358 . S
C2064 H2105 0.930 . S
C2065 C2063 1.353 . S
C2065 N2067 1.314 . S
C2065 H2106 0.930 . S
C2066 C2064 1.358 . S
C2066 N2067 1.279 . S
C2066 H2107 0.930 . S
N2067 C2065 1.314 . S
N2067 C2066 1.279 . S
C2068 C2070 1.353 . S
C2068 N2071 1.314 . S
C2068 H2074 0.930 . S
C2069 N2071 1.279 . S
C2069 C2072 1.358 . S
C2069 H2075 0.930 . S
C2070 C2068 1.353 . S
C2070 C2073 1.348 . S
C2070 H2108 0.929 . S
N2071 Li2026 1.990 . S
N2071 C2068 1.314 . S
N2071 C2069 1.279 . S
C2072 C2069 1.358 . S
C2072 C2073 1.356 . S
C2072 H2109 0.930 . S
C2073 C2070 1.348 . S
C2073 C2072 1.356 . S
H2074 C2068 0.930 . S
H2075 C2069 0.930 . S
C2076 N2077 1.314 . S
C2076 C2078 1.353 . S
C2076 H2082 0.930 . S
N2077 Li2027 1.990 . S
N2077 C2076 1.314 . S
N2077 C2080 1.279 . S
C2078 C2076 1.353 . S
C2078 C2081 1.348 . S
C2078 H2110 0.929 . S
C2079 C2080 1.358 . S
C2079 C2081 1.356 . S
C2079 H2111 0.930 . S
C2080 N2077 1.279 . S
C2080 C2079 1.358 . S
C2080 H2083 0.930 . S
C2081 C2078 1.348 . S
C2081 C2079 1.356 . S
H2082 C2076 0.930 . S
H2083 C2080 0.930 . S
O2084 Li2024 1.956 . S
O2084 Li2025 1.970 . S
O2084 Li2026 1.961 . S
O2084 C2028 1.325 . S
O2085 Li2024 1.970 . S
O2085 Li2025 1.956 . S
O2085 Li2027 1.961 . S
O2085 C2034 1.325 . S
O2086 Li2024 1.961 . S
O2086 Li2026 1.956 . S
O2086 Li2027 1.970 . S
O2086 C2056 1.325 . S
O2087 Li2025 1.961 . S
O2087 Li2026 1.970 . S
O2087 Li2027 1.956 . S
O2087 C2062 1.325 . S
H2088 C2030 0.929 . S
H2089 C2031 0.930 . S
H2090 C2032 0.930 . S
H2091 C2033 0.930 . S
H2092 C2035 0.930 . S
H2093 C2037 0.929 . S
H2094 C2038 0.930 . S
H2095 C2039 0.930 . S
H2096 C2042 0.930 . S
H2097 C2045 0.929 . S
H2098 C2050 0.929 . S
H2099 C2051 0.930 . S
H2100 C2058 0.929 . S
H2101 C2059 0.930 . S
H2102 C2060 0.930 . S
H2103 C2061 0.930 . S
H2104 C2063 0.929 . S
H2105 C2064 0.930 . S
H2106 C2065 0.930 . S
H2107 C2066 0.930 . S
H2108 C2070 0.929 . S
H2109 C2072 0.930 . S
H2110 C2078 0.929 . S
H2111 C2079 0.930 . S
Tb2112 C2122 2.825 1_455 S
Tb2112 O2123 2.347 . S
Tb2112 O2126 2.366 . S
Tb2112 O2131 2.418 1_554 S
Tb2112 O2132 2.384 1_545 S
Tb2112 O2135 2.479 1_454 S
Tb2112 O2136 2.471 1_455 S
Eu2113 O2124 2.418 . S
Eu2113 O2125 2.384 . S
Eu2113 O2128 2.479 . S
Eu2113 O2129 2.471 . S
Eu2113 O2130 2.347 . S
Eu2113 O2133 2.369 1_545 S
Eu2113 C2143 2.825 . S
C2114 O2130 1.259 1_556 S
C2114 O2131 1.265 . S
C2115 O2132 1.255 . S
C2115 O2133 1.263 . S
C2116 C2118 1.380 . S
C2116 C2119 1.374 1_556 S
C2116 C2122 1.507 1_556 S
C2117 C2118 1.384 . S
C2117 C2121 1.387 . S
C2117 H2144 0.930 . S
C2118 C2116 1.380 . S
C2118 C2117 1.384 . S
C2118 H2145 0.931 . S
C2119 C2116 1.374 1_554 S
C2119 C2120 1.390 . S
C2119 H2146 0.930 . S
C2120 C2119 1.390 . S
C2120 C2121 1.391 1_554 S
C2120 H2147 0.930 . S
C2121 C2117 1.387 . S
C2121 C2120 1.391 1_556 S
C2122 Tb2112 2.825 1_655 S
C2122 C2116 1.507 1_554 S
C2122 O2135 1.238 1_554 S
C2122 O2136 1.247 . S
O2123 Tb2112 2.347 . S
O2123 C2127 1.259 . S
O2124 Eu2113 2.418 . S
O2124 C2127 1.265 . S
O2125 Eu2113 2.384 . S
O2125 C2134 1.255 . S
O2126 Tb2112 2.366 . S
O2126 C2134 1.265 . S
C2127 O2123 1.259 . S
C2127 O2124 1.265 . S
O2128 Eu2113 2.479 . S
O2128 C2143 1.238 . S
O2129 Eu2113 2.471 . S
O2129 C2143 1.247 . S
O2130 Eu2113 2.347 . S
O2130 C2114 1.259 1_554 S
O2131 Tb2112 2.418 1_556 S
O2131 C2114 1.265 . S
O2132 Tb2112 2.384 1_565 S
O2132 C2115 1.255 . S
O2133 Eu2113 2.369 1_565 S
O2133 C2115 1.263 . S
C2134 O2125 1.255 . S
C2134 O2126 1.265 . S
O2135 Tb2112 2.479 1_656 S
O2135 C2122 1.238 1_556 S
O2136 Tb2112 2.471 1_655 S
O2136 C2122 1.247 . S
C2137 C2140 1.380 . S
C2137 C2141 1.374 1_545 S
C2137 C2143 1.507 . S
C2138 C2139 1.384 . S
C2138 C2142 1.391 . S
C2139 C2138 1.384 . S
C2139 C2140 1.387 1_565 S
C2139 H2148 0.930 1_565 S
C2140 C2137 1.380 . S
C2140 C2139 1.387 1_545 S
C2140 H2149 0.931 . S
C2141 C2137 1.374 1_565 S
C2141 C2142 1.390 . S
C2141 H2150 0.930 . S
C2142 C2138 1.391 . S
C2142 C2141 1.390 . S
C2142 H2151 0.930 . S
C2143 Eu2113 2.825 . S
C2143 O2128 1.238 . S
C2143 O2129 1.247 . S
C2143 C2137 1.507 . S
H2144 C2117 0.930 . S
H2145 C2118 0.931 . S
H2146 C2119 0.930 . S
H2147 C2120 0.930 . S
H2148 C2139 0.930 1_545 S
H2149 C2140 0.931 . S
H2150 C2141 0.930 . S
H2151 C2142 0.930 . S
Tb2152 C2162 2.825 . S
Tb2152 O2163 2.347 . S
Tb2152 O2166 2.366 . S
Tb2152 O2171 2.418 . S
Tb2152 O2172 2.384 . S
Tb2152 O2175 2.479 . S
Tb2152 O2176 2.471 . S
Eu2153 O2164 2.418 . S
Eu2153 O2165 2.384 . S
Eu2153 O2168 2.479 . S
Eu2153 O2169 2.471 . S
Eu2153 O2170 2.347 . S
Eu2153 O2173 2.366 . S
Eu2153 C2183 2.825 . S
C2154 O2170 1.259 . S
C2154 O2171 1.265 . S
C2155 O2172 1.255 . S
C2155 O2173 1.265 . S
C2156 C2158 1.380 . S
C2156 C2159 1.374 . S
C2156 C2162 1.507 . S
C2157 C2158 1.384 . S
C2157 C2161 1.387 . S
C2157 H2184 0.930 . S
C2158 C2156 1.380 . S
C2158 C2157 1.384 . S
C2158 H2185 0.931 . S
C2159 C2156 1.374 . S
C2159 C2160 1.390 . S
C2159 H2186 0.930 . S
C2160 C2159 1.390 . S
C2160 C2161 1.391 . S
C2160 H2187 0.930 . S
C2161 C2157 1.387 . S
C2161 C2160 1.391 . S
C2162 Tb2152 2.825 . S
C2162 C2156 1.507 . S
C2162 O2175 1.238 . S
C2162 O2176 1.247 . S
O2163 Tb2152 2.347 . S
O2163 C2167 1.259 . S
O2164 Eu2153 2.418 . S
O2164 C2167 1.265 . S
O2165 Eu2153 2.384 . S
O2165 C2174 1.255 . S
O2166 Tb2152 2.366 . S
O2166 C2174 1.265 . S
C2167 O2163 1.259 . S
C2167 O2164 1.265 . S
O2168 Eu2153 2.479 . S
O2168 C2183 1.238 . S
O2169 Eu2153 2.471 . S
O2169 C2183 1.247 . S
O2170 Eu2153 2.347 . S
O2170 C2154 1.259 . S
O2171 Tb2152 2.418 . S
O2171 C2154 1.265 . S
O2172 Tb2152 2.384 . S
O2172 C2155 1.255 . S
O2173 Eu2153 2.366 . S
O2173 C2155 1.265 . S
C2174 O2165 1.255 . S
C2174 O2166 1.265 . S
O2175 Tb2152 2.479 . S
O2175 C2162 1.238 . S
O2176 Tb2152 2.471 . S
O2176 C2162 1.247 . S
C2177 C2180 1.380 . S
C2177 C2181 1.374 . S
C2177 C2183 1.507 . S
C2178 C2179 1.387 . S
C2178 C2182 1.391 . S
C2179 C2178 1.387 . S
C2179 C2180 1.384 . S
C2179 H2188 0.930 . S
C2180 C2177 1.380 . S
C2180 C2179 1.384 . S
C2180 H2189 0.931 . S
C2181 C2177 1.374 . S
C2181 C2182 1.390 . S
C2181 H2190 0.930 . S
C2182 C2178 1.391 . S
C2182 C2181 1.390 . S
C2182 H2191 0.930 . S
C2183 Eu2153 2.825 . S
C2183 O2168 1.238 . S
C2183 O2169 1.247 . S
C2183 C2177 1.507 . S
H2184 C2157 0.930 . S
H2185 C2158 0.931 . S
H2186 C2159 0.930 . S
H2187 C2160 0.930 . S
H2188 C2179 0.930 . S
H2189 C2180 0.931 . S
H2190 C2181 0.930 . S
H2191 C2182 0.930 . S
Tb2192 C2202 2.825 . S
Tb2192 O2203 2.347 1_565 S
Tb2192 O2206 2.366 . S
Tb2192 O2211 2.414 . S
Tb2192 O2212 2.384 1_565 S
Tb2192 O2215 2.479 . S
Tb2192 O2216 2.471 . S
Eu2193 O2204 2.418 . S
Eu2193 O2205 2.384 . S
Eu2193 O2208 2.479 . S
Eu2193 O2209 2.471 . S
Eu2193 O2210 2.347 . S
Eu2193 O2213 2.366 . S
Eu2193 C2223 2.825 . S
C2194 O2210 1.259 . S
C2194 O2211 1.221 1_545 S
C2195 O2212 1.255 . S
C2195 O2213 1.265 . S
C2196 C2198 1.380 . S
C2196 C2199 1.374 . S
C2196 C2202 1.507 . S
C2197 C2198 1.384 . S
C2197 C2201 1.387 . S
C2197 H2224 0.930 . S
C2198 C2196 1.380 . S
C2198 C2197 1.384 . S
C2198 H2225 0.931 . S
C2199 C2196 1.374 . S
C2199 C2200 1.390 . S
C2199 H2226 0.930 . S
C2200 C2199 1.390 . S
C2200 C2201 1.391 . S
C2200 H2227 0.930 . S
C2201 C2197 1.387 . S
C2201 C2200 1.391 . S
C2202 Tb2192 2.825 . S
C2202 C2196 1.507 . S
C2202 O2215 1.238 . S
C2202 O2216 1.247 . S
O2203 Tb2192 2.347 1_545 S
O2203 C2207 1.259 . S
O2204 Eu2193 2.418 . S
O2204 C2207 1.265 . S
O2205 Eu2193 2.384 . S
O2205 C2214 1.255 . S
O2206 Tb2192 2.366 . S
O2206 C2214 1.265 1_565 S
C2207 O2203 1.259 . S
C2207 O2204 1.265 . S
O2208 Eu2193 2.479 . S
O2208 C2223 1.238 . S
O2209 Eu2193 2.471 . S
O2209 C2223 1.247 . S
O2210 Eu2193 2.347 . S
O2210 C2194 1.259 . S
O2211 Tb2192 2.414 . S
O2211 C2194 1.221 1_565 S
O2212 Tb2192 2.384 1_545 S
O2212 C2195 1.255 . S
O2213 Eu2193 2.366 . S
O2213 C2195 1.265 . S
C2214 O2205 1.255 . S
C2214 O2206 1.265 1_545 S
O2215 Tb2192 2.479 . S
O2215 C2202 1.238 . S
O2216 Tb2192 2.471 . S
O2216 C2202 1.247 . S
C2217 C2220 1.380 . S
C2217 C2221 1.374 . S
C2217 C2223 1.507 . S
C2218 C2219 1.387 . S
C2218 C2222 1.391 . S
C2219 C2218 1.387 . S
C2219 C2220 1.384 . S
C2219 H2228 0.930 . S
C2220 C2217 1.380 . S
C2220 C2219 1.384 . S
C2220 H2229 0.931 . S
C2221 C2217 1.374 . S
C2221 C2222 1.390 . S
C2221 H2230 0.930 . S
C2222 C2218 1.391 . S
C2222 C2221 1.390 . S
C2222 H2231 0.930 . S
C2223 Eu2193 2.825 . S
C2223 O2208 1.238 . S
C2223 O2209 1.247 . S
C2223 C2217 1.507 . S
H2224 C2197 0.930 . S
H2225 C2198 0.931 . S
H2226 C2199 0.930 . S
H2227 C2200 0.930 . S
H2228 C2219 0.930 . S
H2229 C2220 0.931 . S
H2230 C2221 0.930 . S
H2231 C2222 0.930 . S
Tb2232 C2242 2.825 . S
Tb2232 O2243 2.347 . S
Tb2232 O2246 2.366 . S
Tb2232 O2251 2.418 . S
Tb2232 O2252 2.384 . S
Tb2232 O2255 2.479 . S
Tb2232 O2256 2.471 . S
Eu2233 O2244 2.418 . S
Eu2233 O2245 2.384 . S
Eu2233 O2248 2.479 . S
Eu2233 O2249 2.471 . S
Eu2233 O2250 2.347 . S
Eu2233 O2253 2.366 . S
Eu2233 C2263 2.825 . S
C2234 O2250 1.259 . S
C2234 O2251 1.265 . S
C2235 O2252 1.255 . S
C2235 O2253 1.265 . S
C2236 C2238 1.380 . S
C2236 C2239 1.374 . S
C2236 C2242 1.507 . S
C2237 C2238 1.384 . S
C2237 C2241 1.387 . S
C2237 H2264 0.930 . S
C2238 C2236 1.380 . S
C2238 C2237 1.384 . S
C2238 H2265 0.931 . S
C2239 C2236 1.374 . S
C2239 C2240 1.390 . S
C2239 H2266 0.930 . S
C2240 C2239 1.390 . S
C2240 C2241 1.391 . S
C2240 H2267 0.930 . S
C2241 C2237 1.387 . S
C2241 C2240 1.391 . S
C2242 Tb2232 2.825 . S
C2242 C2236 1.507 . S
C2242 O2255 1.238 . S
C2242 O2256 1.247 . S
O2243 Tb2232 2.347 . S
O2243 C2247 1.259 . S
O2244 Eu2233 2.418 . S
O2244 C2247 1.265 . S
O2245 Eu2233 2.384 . S
O2245 C2254 1.255 . S
O2246 Tb2232 2.366 . S
O2246 C2254 1.265 . S
C2247 O2243 1.259 . S
C2247 O2244 1.265 . S
O2248 Eu2233 2.479 . S
O2248 C2263 1.238 . S
O2249 Eu2233 2.471 . S
O2249 C2263 1.247 . S
O2250 Eu2233 2.347 . S
O2250 C2234 1.259 . S
O2251 Tb2232 2.418 . S
O2251 C2234 1.265 . S
O2252 Tb2232 2.384 . S
O2252 C2235 1.255 . S
O2253 Eu2233 2.366 . S
O2253 C2235 1.265 . S
C2254 O2245 1.255 . S
C2254 O2246 1.265 . S
O2255 Tb2232 2.479 . S
O2255 C2242 1.238 . S
O2256 Tb2232 2.471 . S
O2256 C2242 1.247 . S
C2257 C2260 1.380 . S
C2257 C2261 1.374 . S
C2257 C2263 1.507 . S
C2258 C2259 1.387 . S
C2258 C2262 1.391 . S
C2259 C2258 1.387 . S
C2259 C2260 1.384 . S
C2259 H2268 0.930 . S
C2260 C2257 1.380 . S
C2260 C2259 1.384 . S
C2260 H2269 0.931 . S
C2261 C2257 1.374 . S
C2261 C2262 1.390 . S
C2261 H2270 0.930 . S
C2262 C2258 1.391 . S
C2262 C2261 1.390 . S
C2262 H2271 0.930 . S
C2263 Eu2233 2.825 . S
C2263 O2248 1.238 . S
C2263 O2249 1.247 . S
C2263 C2257 1.507 . S
H2264 C2237 0.930 . S
H2265 C2238 0.931 . S
H2266 C2239 0.930 . S
H2267 C2240 0.930 . S
H2268 C2259 0.930 . S
H2269 C2260 0.931 . S
H2270 C2261 0.930 . S
H2271 C2262 0.930 . S
Tb2272 C2282 2.825 . S
Tb2272 O2283 2.347 . S
Tb2272 O2286 2.366 . S
Tb2272 O2291 2.418 . S
Tb2272 O2292 2.384 1_545 S
Tb2272 O2295 2.479 . S
Tb2272 O2296 2.471 . S
Eu2273 O2284 2.418 . S
Eu2273 O2285 2.384 . S
Eu2273 O2288 2.479 . S
Eu2273 O2289 2.471 . S
Eu2273 O2290 2.347 . S
Eu2273 O2293 2.366 . S
Eu2273 C2303 2.825 . S
C2274 O2290 1.259 . S
C2274 O2291 1.265 . S
C2275 O2292 1.255 . S
C2275 O2293 1.265 1_565 S
C2276 C2278 1.380 . S
C2276 C2279 1.374 1_455 S
C2276 C2282 1.507 . S
C2277 C2278 1.384 . S
C2277 C2281 1.387 1_455 S
C2277 H2304 0.930 . S
C2278 C2276 1.380 . S
C2278 C2277 1.384 . S
C2278 H2305 0.931 . S
C2279 C2276 1.374 1_655 S
C2279 C2280 1.390 . S
C2279 H2306 0.930 . S
C2280 C2279 1.390 . S
C2280 C2281 1.391 . S
C2280 H2307 0.930 . S
C2281 C2277 1.387 1_655 S
C2281 C2280 1.391 . S
C2282 Tb2272 2.825 . S
C2282 C2276 1.507 . S
C2282 O2295 1.238 . S
C2282 O2296 1.247 . S
O2283 Tb2272 2.347 . S
O2283 C2287 1.271 . S
O2284 Eu2273 2.418 . S
O2284 C2287 1.265 . S
O2285 Eu2273 2.384 . S
O2285 C2294 1.255 . S
O2286 Tb2272 2.366 . S
O2286 C2294 1.265 . S
C2287 O2283 1.271 . S
C2287 O2284 1.265 . S
O2288 Eu2273 2.479 . S
O2288 C2303 1.238 . S
O2289 Eu2273 2.471 . S
O2289 C2303 1.247 . S
O2290 Eu2273 2.347 . S
O2290 C2274 1.259 . S
O2291 Tb2272 2.418 . S
O2291 C2274 1.265 . S
O2292 Tb2272 2.384 1_565 S
O2292 C2275 1.255 . S
O2293 Eu2273 2.366 . S
O2293 C2275 1.265 1_545 S
C2294 O2285 1.255 . S
C2294 O2286 1.265 . S
O2295 Tb2272 2.479 . S
O2295 C2282 1.238 . S
O2296 Tb2272 2.471 . S
O2296 C2282 1.247 . S
C2297 C2300 1.380 . S
C2297 C2301 1.374 . S
C2297 C2303 1.507 . S
C2298 C2299 1.387 . S
C2298 C2302 1.391 . S
C2299 C2298 1.387 . S
C2299 C2300 1.384 . S
C2299 H2308 0.930 . S
C2300 C2297 1.380 . S
C2300 C2299 1.384 . S
C2300 H2309 0.931 . S
C2301 C2297 1.374 . S
C2301 C2302 1.390 . S
C2301 H2310 0.930 . S
C2302 C2298 1.391 . S
C2302 C2301 1.390 . S
C2302 H2311 0.930 . S
C2303 Eu2273 2.825 . S
C2303 O2288 1.238 . S
C2303 O2289 1.247 . S
C2303 C2297 1.507 . S
H2304 C2277 0.930 . S
H2305 C2278 0.931 . S
H2306 C2279 0.930 . S
H2307 C2280 0.930 . S
H2308 C2299 0.930 . S
H2309 C2300 0.931 . S
H2310 C2301 0.930 . S
H2311 C2302 0.930 . S
Tb2312 C2322 2.825 . S
Tb2312 O2323 2.347 . S
Tb2312 O2326 2.366 . S
Tb2312 O2331 2.418 . S
Tb2312 O2332 2.384 . S
Tb2312 O2335 2.479 . S
Tb2312 O2336 2.471 . S
Eu2313 O2324 2.418 . S
Eu2313 O2325 2.384 . S
Eu2313 O2328 2.479 . S
Eu2313 O2329 2.471 . S
Eu2313 O2330 2.347 . S
Eu2313 O2333 2.366 . S
Eu2313 C2343 2.825 . S
C2314 O2330 1.259 . S
C2314 O2331 1.265 . S
C2315 O2332 1.255 . S
C2315 O2333 1.265 . S
C2316 C2318 1.380 . S
C2316 C2319 1.374 . S
C2316 C2322 1.507 . S
C2317 C2318 1.384 . S
C2317 C2321 1.387 . S
C2317 H2344 0.930 . S
C2318 C2316 1.380 . S
C2318 C2317 1.384 . S
C2318 H2345 0.931 . S
C2319 C2316 1.374 . S
C2319 C2320 1.390 . S
C2319 H2346 0.930 . S
C2320 C2319 1.390 . S
C2320 C2321 1.391 . S
C2320 H2347 0.930 . S
C2321 C2317 1.387 . S
C2321 C2320 1.391 . S
C2322 Tb2312 2.825 . S
C2322 C2316 1.507 . S
C2322 O2335 1.238 . S
C2322 O2336 1.247 . S
O2323 Tb2312 2.347 . S
O2323 C2327 1.259 . S
O2324 Eu2313 2.418 . S
O2324 C2327 1.265 . S
O2325 Eu2313 2.384 . S
O2325 C2334 1.255 . S
O2326 Tb2312 2.366 . S
O2326 C2334 1.265 . S
C2327 O2323 1.259 . S
C2327 O2324 1.265 . S
O2328 Eu2313 2.479 . S
O2328 C2343 1.238 . S
O2329 Eu2313 2.471 . S
O2329 C2343 1.247 . S
O2330 Eu2313 2.347 . S
O2330 C2314 1.259 . S
O2331 Tb2312 2.418 . S
O2331 C2314 1.265 . S
O2332 Tb2312 2.384 . S
O2332 C2315 1.255 . S
O2333 Eu2313 2.366 . S
O2333 C2315 1.265 . S
C2334 O2325 1.255 . S
C2334 O2326 1.265 . S
O2335 Tb2312 2.479 . S
O2335 C2322 1.238 . S
O2336 Tb2312 2.471 . S
O2336 C2322 1.247 . S
C2337 C2340 1.380 . S
C2337 C2341 1.374 . S
C2337 C2343 1.507 . S
C2338 C2339 1.387 . S
C2338 C2342 1.391 . S
C2339 C2338 1.387 . S
C2339 C2340 1.384 . S
C2339 H2348 0.930 . S
C2340 C2337 1.380 . S
C2340 C2339 1.384 . S
C2340 H2349 0.931 . S
C2341 C2337 1.374 . S
C2341 C2342 1.390 . S
C2341 H2350 0.930 . S
C2342 C2338 1.391 . S
C2342 C2341 1.390 . S
C2342 H2351 0.930 . S
C2343 Eu2313 2.825 . S
C2343 O2328 1.238 . S
C2343 O2329 1.247 . S
C2343 C2337 1.507 . S
H2344 C2317 0.930 . S
H2345 C2318 0.931 . S
H2346 C2319 0.930 . S
H2347 C2320 0.930 . S
H2348 C2339 0.930 . S
H2349 C2340 0.931 . S
H2350 C2341 0.930 . S
H2351 C2342 0.930 . S
Tb2352 C2362 2.825 . S
Tb2352 O2363 2.347 . S
Tb2352 O2366 2.366 . S
Tb2352 O2371 2.418 1_545 S
Tb2352 O2372 2.384 . S
Tb2352 O2375 2.479 1_545 S
Tb2352 O2376 2.471 . S
Eu2353 O2364 2.418 . S
Eu2353 O2365 2.384 . S
Eu2353 O2368 2.479 1_554 S
Eu2353 O2369 2.471 1_554 S
Eu2353 O2370 2.347 . S
Eu2353 O2373 2.366 . S
Eu2353 C2383 2.825 1_554 S
C2354 O2370 1.259 1_565 S
C2354 O2371 1.265 . S
C2355 O2372 1.255 . S
C2355 O2373 1.265 . S
C2356 C2358 1.380 1_545 S
C2356 C2359 1.374 . S
C2356 C2362 1.507 . S
C2357 C2358 1.384 . S
C2357 C2361 1.398 . S
C2357 H2384 0.930 . S
C2358 C2356 1.380 1_565 S
C2358 C2357 1.384 . S
C2358 H2385 0.931 . S
C2359 C2356 1.374 . S
C2359 C2360 1.390 . S
C2359 H2386 0.930 . S
C2360 C2359 1.390 . S
C2360 C2361 1.378 1_545 S
C2360 H2387 0.930 . S
C2361 C2357 1.398 . S
C2361 C2360 1.378 1_565 S
C2362 Tb2352 2.825 . S
C2362 C2356 1.507 . S
C2362 O2375 1.238 1_545 S
C2362 O2376 1.247 . S
O2363 Tb2352 2.347 . S
O2363 C2367 1.259 . S
O2364 Eu2353 2.418 . S
O2364 C2367 1.265 . S
O2365 Eu2353 2.384 . S
O2365 C2374 1.255 . S
O2366 Tb2352 2.366 . S
O2366 C2374 1.265 . S
C2367 O2363 1.259 . S
C2367 O2364 1.265 . S
O2368 Eu2353 2.479 1_556 S
O2368 C2383 1.238 . S
O2369 Eu2353 2.471 1_556 S
O2369 C2383 1.247 . S
O2370 Eu2353 2.347 . S
O2370 C2354 1.259 1_545 S
O2371 Tb2352 2.418 1_565 S
O2371 C2354 1.265 . S
O2372 Tb2352 2.384 . S
O2372 C2355 1.255 . S
O2373 Eu2353 2.366 . S
O2373 C2355 1.265 . S
C2374 O2365 1.255 . S
C2374 O2366 1.265 . S
O2375 Tb2352 2.479 1_565 S
O2375 C2362 1.238 1_565 S
O2376 Tb2352 2.471 . S
O2376 C2362 1.247 . S
C2377 C2380 1.380 . S
C2377 C2381 1.374 . S
C2377 C2383 1.507 . S
C2378 C2379 1.387 . S
C2378 C2382 1.391 . S
C2379 C2378 1.387 . S
C2379 C2380 1.384 . S
C2379 H2388 0.930 . S
C2380 C2377 1.380 . S
C2380 C2379 1.384 . S
C2380 H2389 0.931 . S
C2381 C2377 1.374 . S
C2381 C2382 1.390 . S
C2381 H2390 0.930 . S
C2382 C2378 1.391 . S
C2382 C2381 1.390 . S
C2382 H2391 0.930 . S
C2383 Eu2353 2.825 1_556 S
C2383 O2368 1.238 . S
C2383 O2369 1.247 . S
C2383 C2377 1.507 . S
H2384 C2357 0.930 . S
H2385 C2358 0.931 . S
H2386 C2359 0.930 . S
H2387 C2360 0.930 . S
H2388 C2379 0.930 . S
H2389 C2380 0.931 . S
H2390 C2381 0.930 . S
H2391 C2382 0.930 . S
Tb2392 C2402 2.825 . S
Tb2392 O2403 2.347 . S
Tb2392 O2406 2.366 . S
Tb2392 O2411 2.418 . S
Tb2392 O2412 2.384 . S
Tb2392 O2415 2.479 . S
Tb2392 O2416 2.471 . S
Eu2393 O2404 2.418 . S
Eu2393 O2405 2.384 . S
Eu2393 O2408 2.479 . S
Eu2393 O2409 2.471 . S
Eu2393 O2410 2.347 . S
Eu2393 O2413 2.366 . S
Eu2393 C2423 2.825 . S
C2394 O2410 1.259 . S
C2394 O2411 1.265 . S
C2395 O2412 1.255 . S
C2395 O2413 1.265 . S
C2396 C2398 1.380 . S
C2396 C2399 1.374 . S
C2396 C2402 1.507 . S
C2397 C2398 1.384 . S
C2397 C2401 1.387 . S
C2397 H2424 0.930 . S
C2398 C2396 1.380 . S
C2398 C2397 1.384 . S
C2398 H2425 0.931 . S
C2399 C2396 1.374 . S
C2399 C2400 1.390 . S
C2399 H2426 0.930 . S
C2400 C2399 1.390 . S
C2400 C2401 1.391 . S
C2400 H2427 0.930 . S
C2401 C2397 1.387 . S
C2401 C2400 1.391 . S
C2402 Tb2392 2.825 . S
C2402 C2396 1.507 . S
C2402 O2415 1.238 . S
C2402 O2416 1.247 . S
O2403 Tb2392 2.347 . S
O2403 C2407 1.259 . S
O2404 Eu2393 2.418 . S
O2404 C2407 1.265 . S
O2405 Eu2393 2.384 . S
O2405 C2414 1.255 . S
O2406 Tb2392 2.366 . S
O2406 C2414 1.265 . S
C2407 O2403 1.259 . S
C2407 O2404 1.265 . S
O2408 Eu2393 2.479 . S
O2408 C2423 1.238 . S
O2409 Eu2393 2.471 . S
O2409 C2423 1.247 . S
O2410 Eu2393 2.347 . S
O2410 C2394 1.259 . S
O2411 Tb2392 2.418 . S
O2411 C2394 1.265 . S
O2412 Tb2392 2.384 . S
O2412 C2395 1.255 . S
O2413 Eu2393 2.366 . S
O2413 C2395 1.265 . S
C2414 O2405 1.255 . S
C2414 O2406 1.265 . S
O2415 Tb2392 2.479 . S
O2415 C2402 1.238 . S
O2416 Tb2392 2.471 . S
O2416 C2402 1.247 . S
C2417 C2420 1.380 . S
C2417 C2421 1.374 . S
C2417 C2423 1.507 . S
C2418 C2419 1.387 . S
C2418 C2422 1.391 . S
C2419 C2418 1.387 . S
C2419 C2420 1.384 . S
C2419 H2428 0.930 . S
C2420 C2417 1.380 . S
C2420 C2419 1.384 . S
C2420 H2429 0.931 . S
C2421 C2417 1.374 . S
C2421 C2422 1.390 . S
C2421 H2430 0.930 . S
C2422 C2418 1.391 . S
C2422 C2421 1.390 . S
C2422 H2431 0.930 . S
C2423 Eu2393 2.825 . S
C2423 O2408 1.238 . S
C2423 O2409 1.247 . S
C2423 C2417 1.507 . S
H2424 C2397 0.930 . S
H2425 C2398 0.931 . S
H2426 C2399 0.930 . S
H2427 C2400 0.930 . S
H2428 C2419 0.930 . S
H2429 C2420 0.931 . S
H2430 C2421 0.930 . S
H2431 C2422 0.930 . S
Tb2432 C2442 2.825 1_554 S
Tb2432 O2443 2.347 . S
Tb2432 O2446 2.369 . S
Tb2432 O2451 2.418 . S
Tb2432 O2452 2.384 . S
Tb2432 O2455 2.479 1_554 S
Tb2432 O2456 2.471 1_554 S
Eu2433 O2444 2.418 . S
Eu2433 O2445 2.384 . S
Eu2433 O2448 2.479 . S
Eu2433 O2449 2.471 . S
Eu2433 O2450 2.347 . S
Eu2433 O2453 2.366 . S
Eu2433 C2463 2.825 . S
C2434 O2450 1.259 . S
C2434 O2451 1.265 . S
C2435 O2452 1.255 . S
C2435 O2453 1.265 . S
C2436 C2438 1.380 . S
C2436 C2439 1.374 . S
C2436 C2442 1.507 . S
C2437 C2438 1.384 . S
C2437 C2441 1.387 . S
C2437 H2464 0.930 . S
C2438 C2436 1.380 . S
C2438 C2437 1.384 . S
C2438 H2465 0.931 . S
C2439 C2436 1.374 . S
C2439 C2440 1.390 . S
C2439 H2466 0.930 . S
C2440 C2439 1.390 . S
C2440 C2441 1.391 . S
C2440 H2467 0.930 . S
C2441 C2437 1.387 . S
C2441 C2440 1.391 . S
C2442 Tb2432 2.825 1_556 S
C2442 C2436 1.507 . S
C2442 O2455 1.238 . S
C2442 O2456 1.247 . S
O2443 Tb2432 2.347 . S
O2443 C2447 1.259 . S
O2444 Eu2433 2.418 . S
O2444 C2447 1.265 . S
O2445 Eu2433 2.384 . S
O2445 C2454 1.255 . S
O2446 Tb2432 2.369 . S
O2446 C2454 1.278 . S
C2447 O2443 1.259 . S
C2447 O2444 1.265 . S
O2448 Eu2433 2.479 . S
O2448 C2463 1.238 . S
O2449 Eu2433 2.471 . S
O2449 C2463 1.247 . S
O2450 Eu2433 2.347 . S
O2450 C2434 1.259 . S
O2451 Tb2432 2.418 . S
O2451 C2434 1.265 . S
O2452 Tb2432 2.384 . S
O2452 C2435 1.255 . S
O2453 Eu2433 2.366 . S
O2453 C2435 1.265 . S
C2454 O2445 1.255 . S
C2454 O2446 1.278 . S
O2455 Tb2432 2.479 1_556 S
O2455 C2442 1.238 . S
O2456 Tb2432 2.471 1_556 S
O2456 C2442 1.247 . S
C2457 C2460 1.380 . S
C2457 C2461 1.374 . S
C2457 C2463 1.507 . S
C2458 C2459 1.387 . S
C2458 C2462 1.391 . S
C2459 C2458 1.387 . S
C2459 C2460 1.384 . S
C2459 H2468 0.930 . S
C2460 C2457 1.380 . S
C2460 C2459 1.384 . S
C2460 H2469 0.931 . S
C2461 C2457 1.374 . S
C2461 C2462 1.390 . S
C2461 H2470 0.930 . S
C2462 C2458 1.391 . S
C2462 C2461 1.390 . S
C2462 H2471 0.930 . S
C2463 Eu2433 2.825 . S
C2463 O2448 1.238 . S
C2463 O2449 1.247 . S
C2463 C2457 1.507 . S
H2464 C2437 0.930 . S
H2465 C2438 0.931 . S
H2466 C2439 0.930 . S
H2467 C2440 0.930 . S
H2468 C2459 0.930 . S
H2469 C2460 0.931 . S
H2470 C2461 0.930 . S
H2471 C2462 0.930 . S
Tb2472 C2482 2.825 . S
Tb2472 O2483 2.347 . S
Tb2472 O2486 2.366 . S
Tb2472 O2491 2.418 . S
Tb2472 O2492 2.384 . S
Tb2472 O2495 2.479 . S
Tb2472 O2496 2.471 . S
Eu2473 O2484 2.418 . S
Eu2473 O2485 2.384 . S
Eu2473 O2488 2.479 . S
Eu2473 O2489 2.471 . S
Eu2473 O2490 2.347 . S
Eu2473 O2493 2.366 . S
Eu2473 C2503 2.825 . S
C2474 O2490 1.259 . S
C2474 O2491 1.265 . S
C2475 O2492 1.255 . S
C2475 O2493 1.265 . S
C2476 C2478 1.380 . S
C2476 C2479 1.374 . S
C2476 C2482 1.507 . S
C2477 C2478 1.384 . S
C2477 C2481 1.387 . S
C2477 H2504 0.930 . S
C2478 C2476 1.380 . S
C2478 C2477 1.384 . S
C2478 H2505 0.931 . S
C2479 C2476 1.374 . S
C2479 C2480 1.390 . S
C2479 H2506 0.930 . S
C2480 C2479 1.390 . S
C2480 C2481 1.391 . S
C2480 H2507 0.930 . S
C2481 C2477 1.387 . S
C2481 C2480 1.391 . S
C2482 Tb2472 2.825 . S
C2482 C2476 1.507 . S
C2482 O2495 1.238 . S
C2482 O2496 1.247 . S
O2483 Tb2472 2.347 . S
O2483 C2487 1.259 . S
O2484 Eu2473 2.418 . S
O2484 C2487 1.265 . S
O2485 Eu2473 2.384 . S
O2485 C2494 1.255 . S
O2486 Tb2472 2.366 . S
O2486 C2494 1.265 . S
C2487 O2483 1.259 . S
C2487 O2484 1.265 . S
O2488 Eu2473 2.479 . S
O2488 C2503 1.238 . S
O2489 Eu2473 2.471 . S
O2489 C2503 1.247 . S
O2490 Eu2473 2.347 . S
O2490 C2474 1.259 . S
O2491 Tb2472 2.418 . S
O2491 C2474 1.265 . S
O2492 Tb2472 2.384 . S
O2492 C2475 1.255 . S
O2493 Eu2473 2.366 . S
O2493 C2475 1.265 . S
C2494 O2485 1.255 . S
C2494 O2486 1.265 . S
O2495 Tb2472 2.479 . S
O2495 C2482 1.238 . S
O2496 Tb2472 2.471 . S
O2496 C2482 1.247 . S
C2497 C2500 1.380 . S
C2497 C2501 1.374 . S
C2497 C2503 1.507 . S
C2498 C2499 1.387 . S
C2498 C2502 1.391 . S
C2499 C2498 1.387 . S
C2499 C2500 1.384 . S
C2499 H2508 0.930 . S
C2500 C2497 1.380 . S
C2500 C2499 1.384 . S
C2500 H2509 0.931 . S
C2501 C2497 1.374 . S
C2501 C2502 1.390 . S
C2501 H2510 0.930 . S
C2502 C2498 1.391 . S
C2502 C2501 1.390 . S
C2502 H2511 0.930 . S
C2503 Eu2473 2.825 . S
C2503 O2488 1.238 . S
C2503 O2489 1.247 . S
C2503 C2497 1.507 . S
H2504 C2477 0.930 . S
H2505 C2478 0.931 . S
H2506 C2479 0.930 . S
H2507 C2480 0.930 . S
H2508 C2499 0.930 . S
H2509 C2500 0.931 . S
H2510 C2501 0.930 . S
H2511 C2502 0.930 . S
Tb2512 C2522 2.825 . S
Tb2512 O2523 2.347 . S
Tb2512 O2526 2.366 . S
Tb2512 O2531 2.418 . S
Tb2512 O2532 2.384 . S
Tb2512 O2535 2.479 . S
Tb2512 O2536 2.471 . S
Eu2513 O2524 2.418 . S
Eu2513 O2525 2.443 . S
Eu2513 O2528 2.479 . S
Eu2513 O2529 2.471 . S
Eu2513 O2530 2.347 . S
Eu2513 O2533 2.366 . S
Eu2513 C2543 2.825 . S
C2514 O2530 1.259 . S
C2514 O2531 1.265 . S
C2515 O2532 1.255 . S
C2515 O2533 1.265 . S
C2516 C2518 1.380 . S
C2516 C2519 1.374 . S
C2516 C2522 1.507 . S
C2517 C2518 1.384 . S
C2517 C2521 1.387 . S
C2517 H2544 0.930 . S
C2518 C2516 1.380 . S
C2518 C2517 1.384 . S
C2518 H2545 0.931 . S
C2519 C2516 1.374 . S
C2519 C2520 1.388 1_455 S
C2519 H2546 0.930 . S
C2520 C2519 1.388 1_655 S
C2520 C2521 1.389 1_655 S
C2520 H2547 0.934 . S
C2521 C2517 1.387 . S
C2521 C2520 1.389 1_455 S
C2522 Tb2512 2.825 . S
C2522 C2516 1.507 . S
C2522 O2535 1.238 . S
C2522 O2536 1.247 . S
O2523 Tb2512 2.347 . S
O2523 C2527 1.259 . S
O2524 Eu2513 2.418 . S
O2524 C2527 1.265 . S
O2525 Eu2513 2.443 . S
O2525 C2534 1.251 1_455 S
O2526 Tb2512 2.366 . S
O2526 C2534 1.257 1_455 S
C2527 O2523 1.259 . S
C2527 O2524 1.265 . S
O2528 Eu2513 2.479 . S
O2528 C2543 1.238 . S
O2529 Eu2513 2.471 . S
O2529 C2543 1.247 . S
O2530 Eu2513 2.347 . S
O2530 C2514 1.259 . S
O2531 Tb2512 2.418 . S
O2531 C2514 1.265 . S
O2532 Tb2512 2.384 . S
O2532 C2515 1.255 . S
O2533 Eu2513 2.366 . S
O2533 C2515 1.265 . S
C2534 O2525 1.251 1_655 S
C2534 O2526 1.257 1_655 S
O2535 Tb2512 2.479 . S
O2535 C2522 1.238 . S
O2536 Tb2512 2.471 . S
O2536 C2522 1.247 . S
C2537 C2540 1.380 . S
C2537 C2541 1.374 . S
C2537 C2543 1.507 . S
C2538 C2539 1.387 . S
C2538 C2542 1.391 . S
C2539 C2538 1.387 . S
C2539 C2540 1.384 . S
C2539 H2548 0.930 . S
C2540 C2537 1.380 . S
C2540 C2539 1.384 . S
C2540 H2549 0.931 . S
C2541 C2537 1.374 . S
C2541 C2542 1.390 . S
C2541 H2550 0.930 . S
C2542 C2538 1.391 . S
C2542 C2541 1.390 . S
C2542 H2551 0.930 . S
C2543 Eu2513 2.825 . S
C2543 O2528 1.238 . S
C2543 O2529 1.247 . S
C2543 C2537 1.507 . S
H2544 C2517 0.930 . S
H2545 C2518 0.931 . S
H2546 C2519 0.930 . S
H2547 C2520 0.934 . S
H2548 C2539 0.930 . S
H2549 C2540 0.931 . S
H2550 C2541 0.930 . S
H2551 C2542 0.930 . S
Tb2552 C2562 2.825 . S
Tb2552 O2563 2.347 . S
Tb2552 O2566 2.366 . S
Tb2552 O2571 2.418 . S
Tb2552 O2572 2.384 . S
Tb2552 O2575 2.479 . S
Tb2552 O2576 2.471 . S
Eu2553 O2564 2.418 . S
Eu2553 O2565 2.384 . S
Eu2553 O2568 2.479 . S
Eu2553 O2569 2.471 . S
Eu2553 O2570 2.347 . S
Eu2553 O2573 2.366 . S
Eu2553 C2583 2.825 . S
C2554 O2570 1.259 . S
C2554 O2571 1.265 . S
C2555 O2572 1.255 . S
C2555 O2573 1.265 . S
C2556 C2558 1.380 . S
C2556 C2559 1.374 . S
C2556 C2562 1.507 . S
C2557 C2558 1.384 . S
C2557 C2561 1.387 . S
C2557 H2584 0.930 . S
C2558 C2556 1.380 . S
C2558 C2557 1.384 . S
C2558 H2585 0.931 . S
C2559 C2556 1.374 . S
C2559 C2560 1.390 . S
C2559 H2586 0.930 . S
C2560 C2559 1.390 . S
C2560 C2561 1.391 . S
C2560 H2587 0.930 . S
C2561 C2557 1.387 . S
C2561 C2560 1.391 . S
C2562 Tb2552 2.825 . S
C2562 C2556 1.507 . S
C2562 O2575 1.238 . S
C2562 O2576 1.247 . S
O2563 Tb2552 2.347 . S
O2563 C2567 1.259 . S
O2564 Eu2553 2.418 . S
O2564 C2567 1.265 . S
O2565 Eu2553 2.384 . S
O2565 C2574 1.255 . S
O2566 Tb2552 2.366 . S
O2566 C2574 1.265 . S
C2567 O2563 1.259 . S
C2567 O2564 1.265 . S
O2568 Eu2553 2.479 . S
O2568 C2583 1.238 . S
O2569 Eu2553 2.471 . S
O2569 C2583 1.247 . S
O2570 Eu2553 2.347 . S
O2570 C2554 1.259 . S
O2571 Tb2552 2.418 . S
O2571 C2554 1.265 . S
O2572 Tb2552 2.384 . S
O2572 C2555 1.255 . S
O2573 Eu2553 2.366 . S
O2573 C2555 1.265 . S
C2574 O2565 1.255 . S
C2574 O2566 1.265 . S
O2575 Tb2552 2.479 . S
O2575 C2562 1.238 . S
O2576 Tb2552 2.471 . S
O2576 C2562 1.247 . S
C2577 C2580 1.380 . S
C2577 C2581 1.374 . S
C2577 C2583 1.507 . S
C2578 C2579 1.387 . S
C2578 C2582 1.391 . S
C2579 C2578 1.387 . S
C2579 C2580 1.384 . S
C2579 H2588 0.930 . S
C2580 C2577 1.380 . S
C2580 C2579 1.384 . S
C2580 H2589 0.931 . S
C2581 C2577 1.374 . S
C2581 C2582 1.390 . S
C2581 H2590 0.930 . S
C2582 C2578 1.391 . S
C2582 C2581 1.390 . S
C2582 H2591 0.930 . S
C2583 Eu2553 2.825 . S
C2583 O2568 1.238 . S
C2583 O2569 1.247 . S
C2583 C2577 1.507 . S
H2584 C2557 0.930 . S
H2585 C2558 0.931 . S
H2586 C2559 0.930 . S
H2587 C2560 0.930 . S
H2588 C2579 0.930 . S
H2589 C2580 0.931 . S
H2590 C2581 0.930 . S
H2591 C2582 0.930 . S
Tb2592 C2602 2.825 . S
Tb2592 O2603 2.347 . S
Tb2592 O2606 2.366 . S
Tb2592 O2611 2.418 . S
Tb2592 O2612 2.384 . S
Tb2592 O2615 2.479 . S
Tb2592 O2616 2.471 . S
Eu2593 O2604 2.418 . S
Eu2593 O2605 2.384 . S
Eu2593 O2608 2.479 . S
Eu2593 O2609 2.471 . S
Eu2593 O2610 2.347 . S
Eu2593 O2613 2.366 . S
Eu2593 C2623 2.825 . S
C2594 O2610 1.259 . S
C2594 O2611 1.265 . S
C2595 O2612 1.255 . S
C2595 O2613 1.265 . S
C2596 C2598 1.380 . S
C2596 C2599 1.374 . S
C2596 C2602 1.507 . S
C2597 C2598 1.384 . S
C2597 C2601 1.387 . S
C2597 H2624 0.930 . S
C2598 C2596 1.380 . S
C2598 C2597 1.384 . S
C2598 H2625 0.931 . S
C2599 C2596 1.374 . S
C2599 C2600 1.390 . S
C2599 H2626 0.930 . S
C2600 C2599 1.390 . S
C2600 C2601 1.391 . S
C2600 H2627 0.930 . S
C2601 C2597 1.387 . S
C2601 C2600 1.391 . S
C2602 Tb2592 2.825 . S
C2602 C2596 1.507 . S
C2602 O2615 1.238 . S
C2602 O2616 1.247 . S
O2603 Tb2592 2.347 . S
O2603 C2607 1.259 . S
O2604 Eu2593 2.418 . S
O2604 C2607 1.265 . S
O2605 Eu2593 2.384 . S
O2605 C2614 1.255 . S
O2606 Tb2592 2.366 . S
O2606 C2614 1.265 . S
C2607 O2603 1.259 . S
C2607 O2604 1.265 . S
O2608 Eu2593 2.479 . S
O2608 C2623 1.238 . S
O2609 Eu2593 2.471 . S
O2609 C2623 1.247 . S
O2610 Eu2593 2.347 . S
O2610 C2594 1.259 . S
O2611 Tb2592 2.418 . S
O2611 C2594 1.265 . S
O2612 Tb2592 2.384 . S
O2612 C2595 1.255 . S
O2613 Eu2593 2.366 . S
O2613 C2595 1.265 . S
C2614 O2605 1.255 . S
C2614 O2606 1.265 . S
O2615 Tb2592 2.479 . S
O2615 C2602 1.238 . S
O2616 Tb2592 2.471 . S
O2616 C2602 1.247 . S
C2617 C2620 1.380 . S
C2617 C2621 1.374 . S
C2617 C2623 1.507 . S
C2618 C2619 1.387 . S
C2618 C2622 1.391 . S
C2619 C2618 1.387 . S
C2619 C2620 1.384 . S
C2619 H2628 0.930 . S
C2620 C2617 1.380 . S
C2620 C2619 1.384 . S
C2620 H2629 0.931 . S
C2621 C2617 1.374 . S
C2621 C2622 1.390 . S
C2621 H2630 0.930 . S
C2622 C2618 1.391 . S
C2622 C2621 1.390 . S
C2622 H2631 0.930 . S
C2623 Eu2593 2.825 . S
C2623 O2608 1.238 . S
C2623 O2609 1.247 . S
C2623 C2617 1.507 . S
H2624 C2597 0.930 . S
H2625 C2598 0.931 . S
H2626 C2599 0.930 . S
H2627 C2600 0.930 . S
H2628 C2619 0.930 . S
H2629 C2620 0.931 . S
H2630 C2621 0.930 . S
H2631 C2622 0.930 . S
Tb2632 C2642 2.825 . S
Tb2632 O2643 2.347 . S
Tb2632 O2646 2.366 . S
Tb2632 O2651 2.418 . S
Tb2632 O2652 2.384 . S
Tb2632 O2655 2.479 . S
Tb2632 O2656 2.471 . S
Eu2633 O2644 2.418 . S
Eu2633 O2645 2.384 . S
Eu2633 O2648 2.479 . S
Eu2633 O2649 2.471 . S
Eu2633 O2650 2.347 . S
Eu2633 O2653 2.366 . S
Eu2633 C2663 2.825 . S
C2634 O2650 1.259 . S
C2634 O2651 1.265 . S
C2635 O2652 1.255 . S
C2635 O2653 1.265 . S
C2636 C2638 1.380 . S
C2636 C2639 1.374 . S
C2636 C2642 1.507 . S
C2637 C2638 1.384 . S
C2637 C2641 1.387 . S
C2637 H2664 0.930 . S
C2638 C2636 1.380 . S
C2638 C2637 1.384 . S
C2638 H2665 0.931 . S
C2639 C2636 1.374 . S
C2639 C2640 1.390 . S
C2639 H2666 0.930 . S
C2640 C2639 1.390 . S
C2640 C2641 1.391 . S
C2640 H2667 0.930 . S
C2641 C2637 1.387 . S
C2641 C2640 1.391 . S
C2642 Tb2632 2.825 . S
C2642 C2636 1.507 . S
C2642 O2655 1.238 . S
C2642 O2656 1.247 . S
O2643 Tb2632 2.347 . S
O2643 C2647 1.259 . S
O2644 Eu2633 2.418 . S
O2644 C2647 1.265 . S
O2645 Eu2633 2.384 . S
O2645 C2654 1.255 . S
O2646 Tb2632 2.366 . S
O2646 C2654 1.265 . S
C2647 O2643 1.259 . S
C2647 O2644 1.265 . S
O2648 Eu2633 2.479 . S
O2648 C2663 1.238 . S
O2649 Eu2633 2.471 . S
O2649 C2663 1.247 . S
O2650 Eu2633 2.347 . S
O2650 C2634 1.259 . S
O2651 Tb2632 2.418 . S
O2651 C2634 1.265 . S
O2652 Tb2632 2.384 . S
O2652 C2635 1.255 . S
O2653 Eu2633 2.366 . S
O2653 C2635 1.265 . S
C2654 O2645 1.255 . S
C2654 O2646 1.265 . S
O2655 Tb2632 2.479 . S
O2655 C2642 1.238 . S
O2656 Tb2632 2.471 . S
O2656 C2642 1.247 . S
C2657 C2660 1.380 . S
C2657 C2661 1.374 . S
C2657 C2663 1.507 . S
C2658 C2659 1.387 . S
C2658 C2662 1.391 . S
C2659 C2658 1.387 . S
C2659 C2660 1.384 . S
C2659 H2668 0.930 . S
C2660 C2657 1.380 . S
C2660 C2659 1.384 . S
C2660 H2669 0.931 . S
C2661 C2657 1.374 . S
C2661 C2662 1.390 . S
C2661 H2670 0.930 . S
C2662 C2658 1.391 . S
C2662 C2661 1.390 . S
C2662 H2671 0.930 . S
C2663 Eu2633 2.825 . S
C2663 O2648 1.238 . S
C2663 O2649 1.247 . S
C2663 C2657 1.507 . S
H2664 C2637 0.930 . S
H2665 C2638 0.931 . S
H2666 C2639 0.930 . S
H2667 C2640 0.930 . S
H2668 C2659 0.930 . S
H2669 C2660 0.931 . S
H2670 C2661 0.930 . S
H2671 C2662 0.930 . S
Tb2672 C2682 2.825 . S
Tb2672 O2683 2.347 . S
Tb2672 O2686 2.366 . S
Tb2672 O2691 2.418 . S
Tb2672 O2692 2.384 . S
Tb2672 O2695 2.479 . S
Tb2672 O2696 2.471 . S
Eu2673 O2684 2.418 . S
Eu2673 O2685 2.384 . S
Eu2673 O2688 2.479 . S
Eu2673 O2689 2.471 . S
Eu2673 O2690 2.347 . S
Eu2673 O2693 2.366 . S
Eu2673 C2703 2.825 . S
C2674 O2690 1.259 . S
C2674 O2691 1.265 . S
C2675 O2692 1.255 . S
C2675 O2693 1.265 . S
C2676 C2678 1.380 . S
C2676 C2679 1.374 . S
C2676 C2682 1.507 . S
C2677 C2678 1.384 . S
C2677 C2681 1.387 . S
C2677 H2704 0.930 . S
C2678 C2676 1.380 . S
C2678 C2677 1.384 . S
C2678 H2705 0.931 . S
C2679 C2676 1.374 . S
C2679 C2680 1.390 . S
C2679 H2706 0.930 . S
C2680 C2679 1.390 . S
C2680 C2681 1.391 . S
C2680 H2707 0.930 . S
C2681 C2677 1.387 . S
C2681 C2680 1.391 . S
C2682 Tb2672 2.825 . S
C2682 C2676 1.507 . S
C2682 O2695 1.238 . S
C2682 O2696 1.247 . S
O2683 Tb2672 2.347 . S
O2683 C2687 1.259 . S
O2684 Eu2673 2.418 . S
O2684 C2687 1.265 . S
O2685 Eu2673 2.384 . S
O2685 C2694 1.255 . S
O2686 Tb2672 2.366 . S
O2686 C2694 1.265 . S
C2687 O2683 1.259 . S
C2687 O2684 1.265 . S
O2688 Eu2673 2.479 . S
O2688 C2703 1.238 . S
O2689 Eu2673 2.471 . S
O2689 C2703 1.247 . S
O2690 Eu2673 2.347 . S
O2690 C2674 1.259 . S
O2691 Tb2672 2.418 . S
O2691 C2674 1.265 . S
O2692 Tb2672 2.384 . S
O2692 C2675 1.255 . S
O2693 Eu2673 2.366 . S
O2693 C2675 1.265 . S
C2694 O2685 1.255 . S
C2694 O2686 1.265 . S
O2695 Tb2672 2.479 . S
O2695 C2682 1.238 . S
O2696 Tb2672 2.471 . S
O2696 C2682 1.247 . S
C2697 C2700 1.380 . S
C2697 C2701 1.374 . S
C2697 C2703 1.507 . S
C2698 C2699 1.387 . S
C2698 C2702 1.391 . S
C2699 C2698 1.387 . S
C2699 C2700 1.384 . S
C2699 H2708 0.930 . S
C2700 C2697 1.380 . S
C2700 C2699 1.384 . S
C2700 H2709 0.931 . S
C2701 C2697 1.374 . S
C2701 C2702 1.390 . S
C2701 H2710 0.930 . S
C2702 C2698 1.391 . S
C2702 C2701 1.390 . S
C2702 H2711 0.930 . S
C2703 Eu2673 2.825 . S
C2703 O2688 1.238 . S
C2703 O2689 1.247 . S
C2703 C2697 1.507 . S
H2704 C2677 0.930 . S
H2705 C2678 0.931 . S
H2706 C2679 0.930 . S
H2707 C2680 0.930 . S
H2708 C2699 0.930 . S
H2709 C2700 0.931 . S
H2710 C2701 0.930 . S
H2711 C2702 0.930 . S
Tb2712 C2722 2.825 . S
Tb2712 O2723 2.347 . S
Tb2712 O2726 2.366 . S
Tb2712 O2731 2.418 . S
Tb2712 O2732 2.384 . S
Tb2712 O2735 2.479 . S
Tb2712 O2736 2.512 . S
Eu2713 O2724 2.418 1_554 S
Eu2713 O2725 2.384 . S
Eu2713 O2728 2.479 . S
Eu2713 O2729 2.471 . S
Eu2713 O2730 2.347 . S
Eu2713 O2733 2.366 . S
Eu2713 C2743 2.825 . S
C2714 O2730 1.259 . S
C2714 O2731 1.265 . S
C2715 O2732 1.255 . S
C2715 O2733 1.265 . S
C2716 C2718 1.380 . S
C2716 C2719 1.374 1_554 S
C2716 C2722 1.507 . S
C2717 C2718 1.384 . S
C2717 C2721 1.387 1_554 S
C2717 H2744 0.930 . S
C2718 C2716 1.380 . S
C2718 C2717 1.384 . S
C2718 H2745 0.931 . S
C2719 C2716 1.374 1_556 S
C2719 C2720 1.390 . S
C2719 H2746 0.930 . S
C2720 C2719 1.390 . S
C2720 C2721 1.391 . S
C2720 H2747 0.930 . S
C2721 C2717 1.387 1_556 S
C2721 C2720 1.391 . S
C2722 Tb2712 2.825 . S
C2722 C2716 1.507 . S
C2722 O2735 1.238 . S
C2722 O2736 1.286 . S
O2723 Tb2712 2.347 . S
O2723 C2727 1.259 1_554 S
O2724 Eu2713 2.418 1_556 S
O2724 C2727 1.265 . S
O2725 Eu2713 2.384 . S
O2725 C2734 1.255 . S
O2726 Tb2712 2.366 . S
O2726 C2734 1.265 . S
C2727 O2723 1.259 1_556 S
C2727 O2724 1.265 . S
O2728 Eu2713 2.479 . S
O2728 C2743 1.238 . S
O2729 Eu2713 2.471 . S
O2729 C2743 1.247 . S
O2730 Eu2713 2.347 . S
O2730 C2714 1.259 . S
O2731 Tb2712 2.418 . S
O2731 C2714 1.265 . S
O2732 Tb2712 2.384 . S
O2732 C2715 1.255 . S
O2733 Eu2713 2.366 . S
O2733 C2715 1.265 . S
C2734 O2725 1.255 . S
C2734 O2726 1.265 . S
O2735 Tb2712 2.479 . S
O2735 C2722 1.238 . S
O2736 Tb2712 2.512 . S
O2736 C2722 1.286 . S
C2737 C2740 1.380 . S
C2737 C2741 1.374 . S
C2737 C2743 1.507 . S
C2738 C2739 1.387 . S
C2738 C2742 1.391 . S
C2739 C2738 1.387 . S
C2739 C2740 1.384 . S
C2739 H2748 0.930 . S
C2740 C2737 1.380 . S
C2740 C2739 1.384 . S
C2740 H2749 0.931 . S
C2741 C2737 1.374 . S
C2741 C2742 1.390 . S
C2741 H2750 0.930 . S
C2742 C2738 1.391 . S
C2742 C2741 1.390 . S
C2742 H2751 0.930 . S
C2743 Eu2713 2.825 . S
C2743 O2728 1.238 . S
C2743 O2729 1.247 . S
C2743 C2737 1.507 . S
H2744 C2717 0.930 . S
H2745 C2718 0.931 . S
H2746 C2719 0.930 . S
H2747 C2720 0.930 . S
H2748 C2739 0.930 . S
H2749 C2740 0.931 . S
H2750 C2741 0.930 . S
H2751 C2742 0.930 . S
C2752 C2753 1.347 . S
C2752 C2754 1.336 . S
C2752 H2777 0.950 . S
C2753 C2752 1.347 . S
C2753 C2769 1.335 1_655 S
C2754 C2752 1.336 . S
C2754 C2773 1.422 1_655 S
C2754 H2778 0.949 . S
C2755 C2772 1.574 . S
C2755 C2774 1.368 . S
C2755 H2779 0.949 . S
H2756 C2760 0.949 . S
C2757 C2758 1.349 . S
C2757 C2759 1.327 . S
C2757 H2780 0.950 . S
C2758 C2757 1.349 . S
C2758 C2770 1.349 1_554 S
C2759 C2757 1.327 . S
C2759 C2775 1.429 1_554 S
C2759 H2781 0.950 . S
C2760 H2756 0.949 . S
C2760 C2768 1.574 . S
C2760 C2776 1.368 . S
H2761 C2769 0.950 . S
H2762 C2767 0.950 . S
H2763 C2768 0.949 . S
H2764 C2770 0.950 . S
H2765 C2771 0.950 . S
H2766 C2772 0.949 1_554 S
C2767 H2762 0.950 . S
C2767 C2769 1.327 . S
C2767 C2773 1.429 . S
C2768 C2760 1.574 . S
C2768 H2763 0.949 . S
C2768 C2774 1.368 . S
C2769 C2753 1.335 1_455 S
C2769 H2761 0.950 . S
C2769 C2767 1.327 . S
C2770 C2758 1.349 1_556 S
C2770 H2764 0.950 . S
C2770 C2771 1.327 . S
C2771 H2765 0.950 . S
C2771 C2770 1.327 . S
C2771 C2775 1.429 . S
C2772 C2755 1.574 . S
C2772 H2766 0.949 1_556 S
C2772 C2776 1.368 . S
C2773 C2754 1.422 1_455 S
C2773 C2767 1.429 . S
C2773 C2774 1.523 . S
C2774 C2755 1.368 . S
C2774 C2768 1.368 . S
C2774 C2773 1.523 . S
C2775 C2759 1.429 1_556 S
C2775 C2771 1.429 . S
C2775 C2776 1.523 . S
C2776 C2760 1.368 . S
C2776 C2772 1.368 . S
C2776 C2775 1.523 . S
H2777 C2752 0.950 . S
H2778 C2754 0.949 . S
H2779 C2755 0.949 . S
H2780 C2757 0.950 . S
H2781 C2759 0.950 . S
C2782 C2783 1.349 . S
C2782 C2784 1.327 . S
C2782 H2807 0.950 . S
C2783 C2782 1.349 . S
C2783 C2799 1.349 . S
C2784 C2782 1.327 . S
C2784 C2803 1.429 . S
C2784 H2808 0.950 . S
C2785 C2802 1.574 . S
C2785 C2804 1.368 . S
C2785 H2809 0.949 . S
H2786 C2790 0.949 . S
C2787 C2788 1.349 . S
C2787 C2789 1.327 . S
C2787 H2810 0.950 . S
C2788 C2787 1.349 . S
C2788 C2800 1.349 . S
C2789 C2787 1.327 . S
C2789 C2805 1.429 . S
C2789 H2811 0.950 . S
C2790 H2786 0.949 . S
C2790 C2798 1.574 . S
C2790 C2806 1.368 . S
H2791 C2799 0.950 . S
H2792 C2797 0.950 . S
H2793 C2798 0.949 . S
H2794 C2800 0.950 . S
H2795 C2801 0.950 . S
H2796 C2802 0.949 . S
C2797 H2792 0.950 . S
C2797 C2799 1.327 . S
C2797 C2803 1.429 . S
C2798 C2790 1.574 . S
C2798 H2793 0.949 . S
C2798 C2804 1.368 . S
C2799 C2783 1.349 . S
C2799 H2791 0.950 . S
C2799 C2797 1.327 . S
C2800 C2788 1.349 . S
C2800 H2794 0.950 . S
C2800 C2801 1.327 . S
C2801 H2795 0.950 . S
C2801 C2800 1.327 . S
C2801 C2805 1.429 . S
C2802 C2785 1.574 . S
C2802 H2796 0.949 . S
C2802 C2806 1.368 . S
C2803 C2784 1.429 . S
C2803 C2797 1.429 . S
C2803 C2804 1.523 . S
C2804 C2785 1.368 . S
C2804 C2798 1.368 . S
C2804 C2803 1.523 . S
C2805 C2789 1.429 . S
C2805 C2801 1.429 . S
C2805 C2806 1.523 . S
C2806 C2790 1.368 . S
C2806 C2802 1.368 . S
C2806 C2805 1.523 . S
H2807 C2782 0.950 . S
H2808 C2784 0.950 . S
H2809 C2785 0.949 . S
H2810 C2787 0.950 . S
H2811 C2789 0.950 . S
C2812 C2813 1.349 . S
C2812 C2814 1.327 . S
C2812 H2837 0.950 . S
C2813 C2812 1.349 . S
C2813 C2829 1.349 . S
C2814 C2812 1.327 . S
C2814 C2833 1.429 . S
C2814 H2838 0.950 . S
C2815 C2832 1.574 . S
C2815 C2834 1.368 . S
C2815 H2839 0.949 . S
H2816 C2820 0.949 . S
C2817 C2818 1.349 . S
C2817 C2819 1.327 . S
C2817 H2840 0.950 . S
C2818 C2817 1.349 . S
C2818 C2830 1.349 . S
C2819 C2817 1.327 . S
C2819 C2835 1.429 . S
C2819 H2841 0.950 . S
C2820 H2816 0.949 . S
C2820 C2828 1.574 . S
C2820 C2836 1.368 . S
H2821 C2829 0.950 . S
H2822 C2827 0.950 . S
H2823 C2828 0.949 . S
H2824 C2830 0.950 . S
H2825 C2831 0.950 . S
H2826 C2832 0.949 . S
C2827 H2822 0.950 . S
C2827 C2829 1.327 . S
C2827 C2833 1.429 . S
C2828 C2820 1.574 . S
C2828 H2823 0.949 . S
C2828 C2834 1.368 . S
C2829 C2813 1.349 . S
C2829 H2821 0.950 . S
C2829 C2827 1.327 . S
C2830 C2818 1.349 . S
C2830 H2824 0.950 . S
C2830 C2831 1.327 . S
C2831 H2825 0.950 . S
C2831 C2830 1.327 . S
C2831 C2835 1.429 . S
C2832 C2815 1.574 . S
C2832 H2826 0.949 . S
C2832 C2836 1.368 . S
C2833 C2814 1.429 . S
C2833 C2827 1.429 . S
C2833 C2834 1.523 . S
C2834 C2815 1.368 . S
C2834 C2828 1.368 . S
C2834 C2833 1.523 . S
C2835 C2819 1.429 . S
C2835 C2831 1.429 . S
C2835 C2836 1.523 . S
C2836 C2820 1.368 . S
C2836 C2832 1.368 . S
C2836 C2835 1.523 . S
H2837 C2812 0.950 . S
H2838 C2814 0.950 . S
H2839 C2815 0.949 . S
H2840 C2817 0.950 . S
H2841 C2819 0.950 . S
C2842 C2843 1.349 . S
C2842 C2844 1.327 . S
C2842 H2867 0.950 . S
C2843 C2842 1.349 . S
C2843 C2859 1.349 . S
C2844 C2842 1.327 . S
C2844 C2863 1.429 . S
C2844 H2868 0.950 . S
C2845 C2862 1.574 . S
C2845 C2864 1.368 . S
C2845 H2869 0.949 . S
H2846 C2850 0.949 . S
C2847 C2848 1.349 . S
C2847 C2849 1.327 . S
C2847 H2870 0.950 . S
C2848 C2847 1.349 . S
C2848 C2860 1.349 . S
C2849 C2847 1.327 . S
C2849 C2865 1.429 . S
C2849 H2871 0.950 . S
C2850 H2846 0.949 . S
C2850 C2858 1.574 . S
C2850 C2866 1.368 . S
H2851 C2859 0.950 . S
H2852 C2857 0.950 . S
H2853 C2858 0.949 . S
H2854 C2860 0.950 . S
H2855 C2861 0.950 . S
H2856 C2862 0.949 . S
C2857 H2852 0.950 . S
C2857 C2859 1.327 . S
C2857 C2863 1.429 . S
C2858 C2850 1.574 . S
C2858 H2853 0.949 . S
C2858 C2864 1.368 . S
C2859 C2843 1.349 . S
C2859 H2851 0.950 . S
C2859 C2857 1.327 . S
C2860 C2848 1.349 . S
C2860 H2854 0.950 . S
C2860 C2861 1.327 . S
C2861 H2855 0.950 . S
C2861 C2860 1.327 . S
C2861 C2865 1.429 . S
C2862 C2845 1.574 . S
C2862 H2856 0.949 . S
C2862 C2866 1.368 . S
C2863 C2844 1.429 . S
C2863 C2857 1.429 . S
C2863 C2864 1.523 . S
C2864 C2845 1.368 . S
C2864 C2858 1.368 . S
C2864 C2863 1.523 . S
C2865 C2849 1.429 . S
C2865 C2861 1.429 . S
C2865 C2866 1.523 . S
C2866 C2850 1.368 . S
C2866 C2862 1.368 . S
C2866 C2865 1.523 . S
H2867 C2842 0.950 . S
H2868 C2844 0.950 . S
H2869 C2845 0.949 . S
H2870 C2847 0.950 . S
H2871 C2849 0.950 . S
C2872 C2873 1.349 . S
C2872 C2874 1.327 . S
C2872 H2897 0.950 . S
C2873 C2872 1.349 . S
C2873 C2889 1.349 . S
C2874 C2872 1.327 . S
C2874 C2893 1.429 . S
C2874 H2898 0.950 . S
C2875 C2892 1.574 . S
C2875 C2894 1.368 . S
C2875 H2899 0.949 . S
H2876 C2880 0.949 . S
C2877 C2878 1.349 . S
C2877 C2879 1.327 . S
C2877 H2900 0.950 . S
C2878 C2877 1.349 . S
C2878 C2890 1.349 . S
C2879 C2877 1.327 . S
C2879 C2895 1.429 . S
C2879 H2901 0.950 . S
C2880 H2876 0.949 . S
C2880 C2888 1.574 . S
C2880 C2896 1.368 . S
H2881 C2889 0.950 . S
H2882 C2887 0.950 . S
H2883 C2888 0.949 . S
H2884 C2890 0.950 . S
H2885 C2891 0.950 . S
H2886 C2892 0.949 . S
C2887 H2882 0.950 . S
C2887 C2889 1.327 . S
C2887 C2893 1.429 . S
C2888 C2880 1.574 . S
C2888 H2883 0.949 . S
C2888 C2894 1.368 . S
C2889 C2873 1.349 . S
C2889 H2881 0.950 . S
C2889 C2887 1.327 . S
C2890 C2878 1.349 . S
C2890 H2884 0.950 . S
C2890 C2891 1.327 . S
C2891 H2885 0.950 . S
C2891 C2890 1.327 . S
C2891 C2895 1.429 . S
C2892 C2875 1.574 . S
C2892 H2886 0.949 . S
C2892 C2896 1.368 . S
C2893 C2874 1.429 . S
C2893 C2887 1.429 . S
C2893 C2894 1.523 . S
C2894 C2875 1.368 . S
C2894 C2888 1.368 . S
C2894 C2893 1.523 . S
C2895 C2879 1.429 . S
C2895 C2891 1.429 . S
C2895 C2896 1.523 . S
C2896 C2880 1.368 . S
C2896 C2892 1.368 . S
C2896 C2895 1.523 . S
H2897 C2872 0.950 . S
H2898 C2874 0.950 . S
H2899 C2875 0.949 . S
H2900 C2877 0.950 . S
H2901 C2879 0.950 . S
C2902 C2903 1.349 . S
C2902 C2904 1.327 . S
C2902 H2927 0.950 . S
C2903 C2902 1.349 . S
C2903 C2919 1.349 . S
C2904 C2902 1.327 . S
C2904 C2923 1.429 . S
C2904 H2928 0.950 . S
C2905 C2922 1.574 . S
C2905 C2924 1.368 . S
C2905 H2929 0.949 . S
H2906 C2910 0.949 . S
C2907 C2908 1.349 . S
C2907 C2909 1.327 . S
C2907 H2930 0.950 . S
C2908 C2907 1.349 . S
C2908 C2920 1.349 . S
C2909 C2907 1.327 . S
C2909 C2925 1.429 . S
C2909 H2931 0.950 . S
C2910 H2906 0.949 . S
C2910 C2918 1.574 . S
C2910 C2926 1.368 . S
H2911 C2919 0.950 . S
H2912 C2917 0.950 . S
H2913 C2918 0.949 . S
H2914 C2920 0.950 . S
H2915 C2921 0.950 . S
H2916 C2922 0.949 . S
C2917 H2912 0.950 . S
C2917 C2919 1.327 . S
C2917 C2923 1.429 . S
C2918 C2910 1.574 . S
C2918 H2913 0.949 . S
C2918 C2924 1.368 . S
C2919 C2903 1.349 . S
C2919 H2911 0.950 . S
C2919 C2917 1.327 . S
C2920 C2908 1.349 . S
C2920 H2914 0.950 . S
C2920 C2921 1.327 . S
C2921 H2915 0.950 . S
C2921 C2920 1.327 . S
C2921 C2925 1.429 . S
C2922 C2905 1.574 . S
C2922 H2916 0.949 . S
C2922 C2926 1.368 . S
C2923 C2904 1.429 . S
C2923 C2917 1.429 . S
C2923 C2924 1.523 . S
C2924 C2905 1.368 . S
C2924 C2918 1.368 . S
C2924 C2923 1.523 . S
C2925 C2909 1.429 . S
C2925 C2921 1.429 . S
C2925 C2926 1.523 . S
C2926 C2910 1.368 . S
C2926 C2922 1.368 . S
C2926 C2925 1.523 . S
H2927 C2902 0.950 . S
H2928 C2904 0.950 . S
H2929 C2905 0.949 . S
H2930 C2907 0.950 . S
H2931 C2909 0.950 . S
C2932 C2933 1.349 . S
C2932 C2934 1.327 . S
C2932 H2957 0.950 . S
C2933 C2932 1.349 . S
C2933 C2949 1.349 . S
C2934 C2932 1.327 . S
C2934 C2953 1.429 . S
C2934 H2958 0.950 . S
C2935 C2952 1.574 . S
C2935 C2954 1.368 . S
C2935 H2959 0.949 . S
H2936 C2940 0.949 . S
C2937 C2938 1.349 . S
C2937 C2939 1.327 . S
C2937 H2960 0.950 . S
C2938 C2937 1.349 . S
C2938 C2950 1.349 . S
C2939 C2937 1.327 . S
C2939 C2955 1.429 . S
C2939 H2961 0.950 . S
C2940 H2936 0.949 . S
C2940 C2948 1.574 . S
C2940 C2956 1.368 . S
H2941 C2949 0.950 . S
H2942 C2947 0.950 . S
H2943 C2948 0.949 . S
H2944 C2950 0.950 . S
H2945 C2951 0.950 . S
H2946 C2952 0.949 . S
C2947 H2942 0.950 . S
C2947 C2949 1.327 . S
C2947 C2953 1.429 . S
C2948 C2940 1.574 . S
C2948 H2943 0.949 . S
C2948 C2954 1.368 . S
C2949 C2933 1.349 . S
C2949 H2941 0.950 . S
C2949 C2947 1.327 . S
C2950 C2938 1.349 . S
C2950 H2944 0.950 . S
C2950 C2951 1.327 . S
C2951 H2945 0.950 . S
C2951 C2950 1.327 . S
C2951 C2955 1.429 . S
C2952 C2935 1.574 . S
C2952 H2946 0.949 . S
C2952 C2956 1.368 . S
C2953 C2934 1.429 . S
C2953 C2947 1.429 . S
C2953 C2954 1.523 . S
C2954 C2935 1.368 . S
C2954 C2948 1.368 . S
C2954 C2953 1.523 . S
C2955 C2939 1.429 . S
C2955 C2951 1.429 . S
C2955 C2956 1.523 . S
C2956 C2940 1.368 . S
C2956 C2952 1.368 . S
C2956 C2955 1.523 . S
H2957 C2932 0.950 . S
H2958 C2934 0.950 . S
H2959 C2935 0.949 . S
H2960 C2937 0.950 . S
H2961 C2939 0.950 . S
C2962 C2963 1.349 . S
C2962 C2964 1.327 . S
C2962 H2987 0.950 . S
C2963 C2962 1.349 . S
C2963 C2979 1.349 . S
C2964 C2962 1.327 . S
C2964 C2983 1.429 . S
C2964 H2988 0.950 . S
C2965 C2982 1.574 . S
C2965 C2984 1.368 . S
C2965 H2989 0.949 . S
H2966 C2970 0.949 . S
C2967 C2968 1.349 . S
C2967 C2969 1.327 . S
C2967 H2990 0.950 . S
C2968 C2967 1.349 . S
C2968 C2980 1.349 . S
C2969 C2967 1.327 . S
C2969 C2985 1.429 . S
C2969 H2991 0.950 . S
C2970 H2966 0.949 . S
C2970 C2978 1.574 . S
C2970 C2986 1.368 . S
H2971 C2979 0.950 . S
H2972 C2977 0.950 . S
H2973 C2978 0.949 . S
H2974 C2980 0.950 . S
H2975 C2981 0.950 . S
H2976 C2982 0.949 . S
C2977 H2972 0.950 . S
C2977 C2979 1.327 . S
C2977 C2983 1.429 . S
C2978 C2970 1.574 . S
C2978 H2973 0.949 . S
C2978 C2984 1.368 . S
C2979 C2963 1.349 . S
C2979 H2971 0.950 . S
C2979 C2977 1.327 . S
C2980 C2968 1.349 . S
C2980 H2974 0.950 . S
C2980 C2981 1.327 . S
C2981 H2975 0.950 . S
C2981 C2980 1.327 . S
C2981 C2985 1.429 . S
C2982 C2965 1.574 . S
C2982 H2976 0.949 . S
C2982 C2986 1.368 . S
C2983 C2964 1.429 . S
C2983 C2977 1.429 . S
C2983 C2984 1.523 . S
C2984 C2965 1.368 . S
C2984 C2978 1.368 . S
C2984 C2983 1.523 . S
C2985 C2969 1.429 . S
C2985 C2981 1.429 . S
C2985 C2986 1.523 . S
C2986 C2970 1.368 . S
C2986 C2982 1.368 . S
C2986 C2985 1.523 . S
H2987 C2962 0.950 . S
H2988 C2964 0.950 . S
H2989 C2965 0.949 . S
H2990 C2967 0.950 . S
H2991 C2969 0.950 . S
C2992 C2993 1.349 . S
C2992 C2994 1.327 . S
C2992 H3017 0.950 . S
C2993 C2992 1.349 . S
C2993 C3009 1.349 1_545 S
C2994 C2992 1.327 . S
C2994 C3013 1.429 . S
C2994 H3018 0.950 . S
C2995 C3012 1.574 . S
C2995 C3014 1.368 . S
C2995 H3019 0.949 1_545 S
H2996 C3000 0.949 . S
C2997 C2998 1.349 . S
C2997 C2999 1.327 1_455 S
C2997 H3020 0.950 . S
C2998 C2997 1.349 . S
C2998 C3010 1.349 . S
C2999 C2997 1.327 1_655 S
C2999 C3015 1.429 . S
C2999 H3021 0.950 1_545 S
C3000 H2996 0.949 . S
C3000 C3008 1.574 . S
C3000 C3016 1.368 . S
H3001 C3009 0.950 . S
H3002 C3007 1.000 . S
H3003 C3008 0.949 . S
H3004 C3010 0.950 . S
H3005 C3011 0.950 . S
H3006 C3012 0.949 1_565 S
C3007 H3002 1.000 . S
C3007 C3009 1.331 . S
C3007 C3013 1.378 1_565 S
C3008 C3000 1.574 . S
C3008 H3003 0.949 . S
C3008 C3014 1.368 . S
C3009 C2993 1.349 1_565 S
C3009 H3001 0.950 . S
C3009 C3007 1.331 . S
C3010 C2998 1.349 . S
C3010 H3004 0.950 . S
C3010 C3011 1.327 . S
C3011 H3005 0.950 . S
C3011 C3010 1.327 . S
C3011 C3015 1.429 1_455 S
C3012 C2995 1.574 . S
C3012 H3006 0.949 1_545 S
C3012 C3016 1.368 . S
C3013 C2994 1.429 . S
C3013 C3007 1.378 1_545 S
C3013 C3014 1.523 . S
C3014 C2995 1.368 . S
C3014 C3008 1.368 . S
C3014 C3013 1.523 . S
C3015 C2999 1.429 . S
C3015 C3011 1.429 1_655 S
C3015 C3016 1.523 . S
C3016 C3000 1.368 . S
C3016 C3012 1.368 . S
C3016 C3015 1.523 . S
H3017 C2992 0.950 . S
H3018 C2994 0.950 . S
H3019 C2995 0.949 1_565 S
H3020 C2997 0.950 . S
H3021 C2999 0.950 1_565 S
C3022 C3023 1.349 . S
C3022 C3024 1.327 . S
C3022 H3047 0.950 . S
C3023 C3022 1.349 . S
C3023 C3039 1.349 . S
C3024 C3022 1.327 . S
C3024 C3043 1.429 . S
C3024 H3048 0.950 . S
C3025 C3042 1.574 . S
C3025 C3044 1.368 . S
C3025 H3049 0.949 . S
H3026 C3030 0.949 . S
C3027 C3028 1.349 . S
C3027 C3029 1.327 . S
C3027 H3050 0.950 . S
C3028 C3027 1.349 . S
C3028 C3040 1.349 . S
C3029 C3027 1.327 . S
C3029 C3045 1.429 . S
C3029 H3051 0.950 . S
C3030 H3026 0.949 . S
C3030 C3038 1.574 . S
C3030 C3046 1.368 . S
H3031 C3039 0.950 . S
H3032 C3037 0.950 . S
H3033 C3038 0.949 . S
H3034 C3040 0.950 . S
H3035 C3041 0.950 . S
H3036 C3042 0.949 . S
C3037 H3032 0.950 . S
C3037 C3039 1.327 . S
C3037 C3043 1.429 . S
C3038 C3030 1.574 . S
C3038 H3033 0.949 . S
C3038 C3044 1.368 . S
C3039 C3023 1.349 . S
C3039 H3031 0.950 . S
C3039 C3037 1.327 . S
C3040 C3028 1.349 . S
C3040 H3034 0.950 . S
C3040 C3041 1.327 . S
C3041 H3035 0.950 . S
C3041 C3040 1.327 . S
C3041 C3045 1.429 . S
C3042 C3025 1.574 . S
C3042 H3036 0.949 . S
C3042 C3046 1.368 . S
C3043 C3024 1.429 . S
C3043 C3037 1.429 . S
C3043 C3044 1.523 . S
C3044 C3025 1.368 . S
C3044 C3038 1.368 . S
C3044 C3043 1.523 . S
C3045 C3029 1.429 . S
C3045 C3041 1.429 . S
C3045 C3046 1.523 . S
C3046 C3030 1.368 . S
C3046 C3042 1.368 . S
C3046 C3045 1.523 . S
H3047 C3022 0.950 . S
H3048 C3024 0.950 . S
H3049 C3025 0.949 . S
H3050 C3027 0.950 . S
H3051 C3029 0.950 . S
C3052 C3053 1.349 . S
C3052 C3054 1.327 . S
C3052 H3077 0.950 . S
C3053 C3052 1.349 . S
C3053 C3069 1.349 1_565 S
C3054 C3052 1.327 . S
C3054 C3073 1.429 . S
C3054 H3078 0.950 . S
C3055 C3072 1.574 . S
C3055 C3074 1.432 . S
C3055 H3079 0.949 . S
H3056 C3060 0.949 . S
C3057 C3058 1.349 . S
C3057 C3059 1.327 . S
C3057 H3080 0.950 . S
C3058 C3057 1.349 . S
C3058 C3070 1.349 . S
C3059 C3057 1.327 . S
C3059 C3075 1.429 . S
C3059 H3081 0.950 . S
C3060 H3056 0.949 . S
C3060 C3068 1.574 . S
C3060 C3076 1.368 1_565 S
H3061 C3069 0.950 . S
H3062 C3067 0.950 . S
H3063 C3068 0.949 . S
H3064 C3070 0.950 1_565 S
H3065 C3071 0.950 . S
H3066 C3072 0.949 . S
C3067 H3062 0.950 . S
C3067 C3069 1.327 . S
C3067 C3073 1.429 1_545 S
C3068 C3060 1.574 . S
C3068 H3063 0.949 . S
C3068 C3074 1.323 1_565 S
C3069 C3053 1.349 1_545 S
C3069 H3061 0.950 . S
C3069 C3067 1.327 . S
C3070 C3058 1.349 . S
C3070 H3064 0.950 1_545 S
C3070 C3071 1.327 1_545 S
C3071 H3065 0.950 . S
C3071 C3070 1.327 1_565 S
C3071 C3075 1.429 1_565 S
C3072 C3055 1.574 . S
C3072 H3066 0.949 . S
C3072 C3076 1.368 . S
C3073 C3054 1.429 . S
C3073 C3067 1.429 1_565 S
C3073 C3074 1.504 1_565 S
C3074 C3055 1.432 . S
C3074 C3068 1.323 1_545 S
C3074 C3073 1.504 1_545 S
C3075 C3059 1.429 . S
C3075 C3071 1.429 1_545 S
C3075 C3076 1.523 . S
C3076 C3060 1.368 1_545 S
C3076 C3072 1.368 . S
C3076 C3075 1.523 . S
H3077 C3052 0.950 . S
H3078 C3054 0.950 . S
H3079 C3055 0.949 . S
H3080 C3057 0.950 . S
H3081 C3059 0.950 . S
C3082 C3083 1.349 . S
C3082 C3084 1.327 . S
C3082 H3107 0.950 . S
C3083 C3082 1.349 . S
C3083 C3099 1.349 . S
C3084 C3082 1.327 . S
C3084 C3103 1.429 . S
C3084 H3108 0.950 . S
C3085 C3102 1.574 . S
C3085 C3104 1.368 . S
C3085 H3109 0.949 . S
H3086 C3090 0.949 . S
C3087 C3088 1.349 . S
C3087 C3089 1.327 . S
C3087 H3110 0.950 . S
C3088 C3087 1.349 . S
C3088 C3100 1.349 . S
C3089 C3087 1.327 . S
C3089 C3105 1.429 . S
C3089 H3111 0.950 . S
C3090 H3086 0.949 . S
C3090 C3098 1.574 . S
C3090 C3106 1.368 . S
H3091 C3099 0.950 . S
H3092 C3097 0.950 . S
H3093 C3098 0.949 . S
H3094 C3100 0.950 . S
H3095 C3101 0.950 . S
H3096 C3102 0.949 . S
C3097 H3092 0.950 . S
C3097 C3099 1.327 . S
C3097 C3103 1.429 . S
C3098 C3090 1.574 . S
C3098 H3093 0.949 . S
C3098 C3104 1.368 . S
C3099 C3083 1.349 . S
C3099 H3091 0.950 . S
C3099 C3097 1.327 . S
C3100 C3088 1.349 . S
C3100 H3094 0.950 . S
C3100 C3101 1.327 . S
C3101 H3095 0.950 . S
C3101 C3100 1.327 . S
C3101 C3105 1.429 . S
C3102 C3085 1.574 . S
C3102 H3096 0.949 . S
C3102 C3106 1.368 . S
C3103 C3084 1.429 . S
C3103 C3097 1.429 . S
C3103 C3104 1.523 . S
C3104 C3085 1.368 . S
C3104 C3098 1.368 . S
C3104 C3103 1.523 . S
C3105 C3089 1.429 . S
C3105 C3101 1.429 . S
C3105 C3106 1.523 . S
C3106 C3090 1.368 . S
C3106 C3102 1.368 . S
C3106 C3105 1.523 . S
H3107 C3082 0.950 . S
H3108 C3084 0.950 . S
H3109 C3085 0.949 . S
H3110 C3087 0.950 . S
H3111 C3089 0.950 . S
C3112 C3113 1.349 . S
C3112 C3114 1.327 . S
C3112 H3137 0.929 1_545 S
C3113 C3112 1.349 . S
C3113 C3129 1.349 . S
C3114 C3112 1.327 . S
C3114 C3133 1.429 . S
C3114 H3138 0.950 . S
C3115 C3132 1.574 . S
C3115 C3134 1.368 . S
C3115 H3139 0.949 . S
H3116 C3120 0.949 . S
C3117 C3118 1.349 . S
C3117 C3119 1.327 . S
C3117 H3140 0.950 . S
C3118 C3117 1.349 . S
C3118 C3130 1.349 1_655 S
C3119 C3117 1.327 . S
C3119 C3135 1.429 . S
C3119 H3141 0.950 . S
C3120 H3116 0.949 . S
C3120 C3128 1.574 . S
C3120 C3136 1.368 . S
H3121 C3129 0.950 . S
H3122 C3127 0.950 . S
H3123 C3128 0.989 . S
H3124 C3130 0.950 . S
H3125 C3131 0.950 1_455 S
H3126 C3132 0.949 . S
C3127 H3122 0.950 . S
C3127 C3129 1.327 . S
C3127 C3133 1.429 . S
C3128 C3120 1.574 . S
C3128 H3123 0.989 . S
C3128 C3134 1.368 . S
C3129 C3113 1.349 . S
C3129 H3121 0.950 . S
C3129 C3127 1.327 . S
C3130 C3118 1.349 1_455 S
C3130 H3124 0.950 . S
C3130 C3131 1.327 1_455 S
C3131 H3125 0.950 1_655 S
C3131 C3130 1.327 1_655 S
C3131 C3135 1.429 . S
C3132 C3115 1.574 . S
C3132 H3126 0.949 . S
C3132 C3136 1.368 . S
C3133 C3114 1.429 . S
C3133 C3127 1.429 . S
C3133 C3134 1.523 . S
C3134 C3115 1.368 . S
C3134 C3128 1.368 . S
C3134 C3133 1.523 . S
C3135 C3119 1.429 . S
C3135 C3131 1.429 . S
C3135 C3136 1.523 . S
C3136 C3120 1.368 . S
C3136 C3132 1.368 . S
C3136 C3135 1.523 . S
H3137 C3112 0.929 1_565 S
H3138 C3114 0.950 . S
H3139 C3115 0.949 . S
H3140 C3117 0.950 . S
H3141 C3119 0.950 . S
C3142 C3143 1.349 . S
C3142 C3144 1.327 . S
C3142 H3167 0.950 . S
C3143 C3142 1.349 . S
C3143 C3159 1.349 . S
C3144 C3142 1.327 . S
C3144 C3163 1.429 . S
C3144 H3168 0.950 . S
C3145 C3162 1.574 . S
C3145 C3164 1.368 . S
C3145 H3169 0.949 . S
H3146 C3150 0.949 . S
C3147 C3148 1.349 . S
C3147 C3149 1.327 . S
C3147 H3170 0.950 . S
C3148 C3147 1.349 . S
C3148 C3160 1.349 . S
C3149 C3147 1.327 . S
C3149 C3165 1.429 . S
C3149 H3171 0.950 . S
C3150 H3146 0.949 . S
C3150 C3158 1.574 . S
C3150 C3166 1.368 . S
H3151 C3159 0.950 . S
H3152 C3157 0.950 . S
H3153 C3158 0.949 . S
H3154 C3160 0.950 . S
H3155 C3161 0.950 . S
H3156 C3162 0.949 . S
C3157 H3152 0.950 . S
C3157 C3159 1.327 . S
C3157 C3163 1.429 . S
C3158 C3150 1.574 . S
C3158 H3153 0.949 . S
C3158 C3164 1.368 . S
C3159 C3143 1.349 . S
C3159 H3151 0.950 . S
C3159 C3157 1.327 . S
C3160 C3148 1.349 . S
C3160 H3154 0.950 . S
C3160 C3161 1.327 . S
C3161 H3155 0.950 . S
C3161 C3160 1.327 . S
C3161 C3165 1.429 . S
C3162 C3145 1.574 . S
C3162 H3156 0.949 . S
C3162 C3166 1.368 . S
C3163 C3144 1.429 . S
C3163 C3157 1.429 . S
C3163 C3164 1.523 . S
C3164 C3145 1.368 . S
C3164 C3158 1.368 . S
C3164 C3163 1.523 . S
C3165 C3149 1.429 . S
C3165 C3161 1.429 . S
C3165 C3166 1.523 . S
C3166 C3150 1.368 . S
C3166 C3162 1.368 . S
C3166 C3165 1.523 . S
H3167 C3142 0.950 . S
H3168 C3144 0.950 . S
H3169 C3145 0.949 . S
H3170 C3147 0.950 . S
H3171 C3149 0.950 . S
C3172 C3173 1.349 1_545 S
C3172 C3174 1.327 . S
C3172 H3197 0.950 . S
C3173 C3172 1.349 1_565 S
C3173 C3189 1.349 . S
C3174 C3172 1.327 . S
C3174 C3193 1.429 . S
C3174 H3198 0.950 . S
C3175 C3192 1.574 . S
C3175 C3194 1.368 . S
C3175 H3199 0.949 1_545 S
H3176 C3180 0.949 . S
C3177 C3178 1.349 . S
C3177 C3179 1.327 . S
C3177 H3200 0.950 . S
C3178 C3177 1.349 . S
C3178 C3190 1.349 . S
C3179 C3177 1.327 . S
C3179 C3195 1.429 . S
C3179 H3201 0.950 . S
C3180 H3176 0.949 . S
C3180 C3188 1.574 . S
C3180 C3196 1.368 . S
H3181 C3189 0.950 . S
H3182 C3187 0.950 . S
H3183 C3188 0.949 . S
H3184 C3190 0.950 . S
H3185 C3191 0.950 . S
H3186 C3192 0.949 . S
C3187 H3182 0.950 . S
C3187 C3189 1.327 . S
C3187 C3193 1.429 1_565 S
C3188 C3180 1.574 . S
C3188 H3183 0.949 . S
C3188 C3194 1.368 . S
C3189 C3173 1.349 . S
C3189 H3181 0.950 . S
C3189 C3187 1.327 . S
C3190 C3178 1.349 . S
C3190 H3184 0.950 . S
C3190 C3191 1.327 . S
C3191 H3185 0.950 . S
C3191 C3190 1.327 . S
C3191 C3195 1.429 . S
C3192 C3175 1.574 . S
C3192 H3186 0.949 . S
C3192 C3196 1.368 . S
C3193 C3174 1.429 . S
C3193 C3187 1.429 1_545 S
C3193 C3194 1.523 . S
C3194 C3175 1.368 . S
C3194 C3188 1.368 . S
C3194 C3193 1.523 . S
C3195 C3179 1.429 . S
C3195 C3191 1.429 . S
C3195 C3196 1.523 . S
C3196 C3180 1.368 . S
C3196 C3192 1.368 . S
C3196 C3195 1.523 . S
H3197 C3172 0.950 . S
H3198 C3174 0.950 . S
H3199 C3175 0.949 1_565 S
H3200 C3177 0.950 . S
H3201 C3179 0.950 . S
C3202 C3203 1.349 . S
C3202 C3204 1.327 . S
C3202 H3227 0.950 . S
C3203 C3202 1.349 . S
C3203 C3219 1.349 . S
C3204 C3202 1.327 . S
C3204 C3223 1.429 . S
C3204 H3228 0.950 . S
C3205 C3222 1.574 . S
C3205 C3224 1.368 . S
C3205 H3229 0.949 . S
H3206 C3210 0.949 . S
C3207 C3208 1.349 . S
C3207 C3209 1.327 . S
C3207 H3230 0.950 . S
C3208 C3207 1.349 . S
C3208 C3220 1.349 . S
C3209 C3207 1.327 . S
C3209 C3225 1.429 . S
C3209 H3231 0.950 . S
C3210 H3206 0.949 . S
C3210 C3218 1.574 . S
C3210 C3226 1.368 . S
H3211 C3219 0.950 . S
H3212 C3217 0.950 . S
H3213 C3218 0.949 . S
H3214 C3220 0.950 . S
H3215 C3221 0.950 . S
H3216 C3222 0.949 . S
C3217 H3212 0.950 . S
C3217 C3219 1.327 . S
C3217 C3223 1.429 . S
C3218 C3210 1.574 . S
C3218 H3213 0.949 . S
C3218 C3224 1.368 . S
C3219 C3203 1.349 . S
C3219 H3211 0.950 . S
C3219 C3217 1.327 . S
C3220 C3208 1.349 . S
C3220 H3214 0.950 . S
C3220 C3221 1.327 . S
C3221 H3215 0.950 . S
C3221 C3220 1.327 . S
C3221 C3225 1.429 . S
C3222 C3205 1.574 . S
C3222 H3216 0.949 . S
C3222 C3226 1.368 . S
C3223 C3204 1.429 . S
C3223 C3217 1.429 . S
C3223 C3224 1.523 . S
C3224 C3205 1.368 . S
C3224 C3218 1.368 . S
C3224 C3223 1.523 . S
C3225 C3209 1.429 . S
C3225 C3221 1.429 . S
C3225 C3226 1.523 . S
C3226 C3210 1.368 . S
C3226 C3222 1.368 . S
C3226 C3225 1.523 . S
H3227 C3202 0.950 . S
H3228 C3204 0.950 . S
H3229 C3205 0.949 . S
H3230 C3207 0.950 . S
H3231 C3209 0.950 . S
C3232 C3233 1.349 . S
C3232 C3234 1.327 . S
C3232 H3257 0.950 . S
C3233 C3232 1.349 . S
C3233 C3249 1.349 . S
C3234 C3232 1.327 . S
C3234 C3253 1.429 . S
C3234 H3258 0.950 . S
C3235 C3252 1.574 . S
C3235 C3254 1.368 . S
C3235 H3259 0.949 . S
H3236 C3240 0.949 . S
C3237 C3238 1.349 . S
C3237 C3239 1.327 . S
C3237 H3260 0.950 . S
C3238 C3237 1.349 . S
C3238 C3250 1.349 . S
C3239 C3237 1.327 . S
C3239 C3255 1.429 . S
C3239 H3261 0.950 . S
C3240 H3236 0.949 . S
C3240 C3248 1.574 . S
C3240 C3256 1.368 . S
H3241 C3249 0.950 . S
H3242 C3247 0.950 . S
H3243 C3248 0.949 . S
H3244 C3250 0.950 . S
H3245 C3251 0.950 . S
H3246 C3252 0.949 . S
C3247 H3242 0.950 . S
C3247 C3249 1.327 . S
C3247 C3253 1.429 . S
C3248 C3240 1.574 . S
C3248 H3243 0.949 . S
C3248 C3254 1.368 . S
C3249 C3233 1.349 . S
C3249 H3241 0.950 . S
C3249 C3247 1.327 . S
C3250 C3238 1.349 . S
C3250 H3244 0.950 . S
C3250 C3251 1.327 . S
C3251 H3245 0.950 . S
C3251 C3250 1.327 . S
C3251 C3255 1.429 . S
C3252 C3235 1.574 . S
C3252 H3246 0.949 . S
C3252 C3256 1.368 . S
C3253 C3234 1.429 . S
C3253 C3247 1.429 . S
C3253 C3254 1.523 . S
C3254 C3235 1.368 . S
C3254 C3248 1.368 . S
C3254 C3253 1.523 . S
C3255 C3239 1.429 . S
C3255 C3251 1.429 . S
C3255 C3256 1.523 . S
C3256 C3240 1.368 . S
C3256 C3252 1.368 . S
C3256 C3255 1.523 . S
H3257 C3232 0.950 . S
H3258 C3234 0.950 . S
H3259 C3235 0.949 . S
H3260 C3237 0.950 . S
H3261 C3239 0.950 . S
C3262 C3263 1.349 . S
C3262 C3264 1.327 . S
C3262 H3287 0.950 . S
C3263 C3262 1.349 . S
C3263 C3279 1.349 . S
C3264 C3262 1.327 . S
C3264 C3283 1.429 . S
C3264 H3288 0.950 . S
C3265 C3282 1.574 . S
C3265 C3284 1.368 . S
C3265 H3289 0.949 . S
H3266 C3270 0.949 . S
C3267 C3268 1.349 . S
C3267 C3269 1.327 . S
C3267 H3290 0.950 . S
C3268 C3267 1.349 . S
C3268 C3280 1.349 . S
C3269 C3267 1.327 . S
C3269 C3285 1.429 . S
C3269 H3291 0.950 . S
C3270 H3266 0.949 . S
C3270 C3278 1.574 . S
C3270 C3286 1.368 . S
H3271 C3279 0.950 . S
H3272 C3277 0.950 . S
H3273 C3278 0.949 . S
H3274 C3280 0.950 . S
H3275 C3281 0.950 . S
H3276 C3282 0.949 . S
C3277 H3272 0.950 . S
C3277 C3279 1.327 . S
C3277 C3283 1.429 . S
C3278 C3270 1.574 . S
C3278 H3273 0.949 . S
C3278 C3284 1.368 . S
C3279 C3263 1.349 . S
C3279 H3271 0.950 . S
C3279 C3277 1.327 . S
C3280 C3268 1.349 . S
C3280 H3274 0.950 . S
C3280 C3281 1.327 . S
C3281 H3275 0.950 . S
C3281 C3280 1.327 . S
C3281 C3285 1.429 . S
C3282 C3265 1.574 . S
C3282 H3276 0.949 . S
C3282 C3286 1.368 . S
C3283 C3264 1.429 . S
C3283 C3277 1.429 . S
C3283 C3284 1.523 . S
C3284 C3265 1.368 . S
C3284 C3278 1.368 . S
C3284 C3283 1.523 . S
C3285 C3269 1.429 . S
C3285 C3281 1.429 . S
C3285 C3286 1.523 . S
C3286 C3270 1.368 . S
C3286 C3282 1.368 . S
C3286 C3285 1.523 . S
H3287 C3262 0.950 . S
H3288 C3264 0.950 . S
H3289 C3265 0.949 . S
H3290 C3267 0.950 . S
H3291 C3269 0.950 . S
C3292 C3293 1.349 . S
C3292 C3294 1.327 . S
C3292 H3317 0.950 . S
C3293 C3292 1.349 . S
C3293 C3309 1.349 . S
C3294 C3292 1.327 . S
C3294 C3313 1.429 . S
C3294 H3318 0.950 . S
C3295 C3312 1.574 . S
C3295 C3314 1.368 . S
C3295 H3319 0.949 . S
H3296 C3300 0.949 . S
C3297 C3298 1.349 . S
C3297 C3299 1.327 . S
C3297 H3320 0.950 . S
C3298 C3297 1.349 . S
C3298 C3310 1.349 . S
C3299 C3297 1.327 . S
C3299 C3315 1.429 . S
C3299 H3321 0.950 . S
C3300 H3296 0.949 . S
C3300 C3308 1.574 . S
C3300 C3316 1.368 . S
H3301 C3309 0.950 . S
H3302 C3307 0.950 . S
H3303 C3308 0.949 . S
H3304 C3310 0.950 . S
H3305 C3311 0.950 . S
H3306 C3312 0.949 . S
C3307 H3302 0.950 . S
C3307 C3309 1.327 . S
C3307 C3313 1.429 . S
C3308 C3300 1.574 . S
C3308 H3303 0.949 . S
C3308 C3314 1.368 . S
C3309 C3293 1.349 . S
C3309 H3301 0.950 . S
C3309 C3307 1.327 . S
C3310 C3298 1.349 . S
C3310 H3304 0.950 . S
C3310 C3311 1.327 . S
C3311 H3305 0.950 . S
C3311 C3310 1.327 . S
C3311 C3315 1.429 . S
C3312 C3295 1.574 . S
C3312 H3306 0.949 . S
C3312 C3316 1.368 . S
C3313 C3294 1.429 . S
C3313 C3307 1.429 . S
C3313 C3314 1.523 . S
C3314 C3295 1.368 . S
C3314 C3308 1.368 . S
C3314 C3313 1.523 . S
C3315 C3299 1.429 . S
C3315 C3311 1.429 . S
C3315 C3316 1.523 . S
C3316 C3300 1.368 . S
C3316 C3312 1.368 . S
C3316 C3315 1.523 . S
H3317 C3292 0.950 . S
H3318 C3294 0.950 . S
H3319 C3295 0.949 . S
H3320 C3297 0.950 . S
H3321 C3299 0.950 . S
C3322 C3323 1.349 . S
C3322 C3324 1.327 . S
C3322 H3347 0.950 . S
C3323 C3322 1.349 . S
C3323 C3339 1.349 . S
C3324 C3322 1.327 . S
C3324 C3343 1.429 . S
C3324 H3348 0.950 . S
C3325 C3342 1.574 . S
C3325 C3344 1.368 . S
C3325 H3349 0.949 . S
H3326 C3330 0.949 . S
C3327 C3328 1.349 . S
C3327 C3329 1.327 . S
C3327 H3350 0.950 . S
C3328 C3327 1.349 . S
C3328 C3340 1.349 . S
C3329 C3327 1.327 . S
C3329 C3345 1.429 . S
C3329 H3351 0.950 . S
C3330 H3326 0.949 . S
C3330 C3338 1.574 . S
C3330 C3346 1.368 . S
H3331 C3339 0.950 . S
H3332 C3337 0.950 . S
H3333 C3338 0.949 . S
H3334 C3340 0.950 . S
H3335 C3341 0.950 . S
H3336 C3342 0.949 . S
C3337 H3332 0.950 . S
C3337 C3339 1.327 . S
C3337 C3343 1.429 . S
C3338 C3330 1.574 . S
C3338 H3333 0.949 . S
C3338 C3344 1.368 . S
C3339 C3323 1.349 . S
C3339 H3331 0.950 . S
C3339 C3337 1.327 . S
C3340 C3328 1.349 . S
C3340 H3334 0.950 . S
C3340 C3341 1.327 . S
C3341 H3335 0.950 . S
C3341 C3340 1.327 . S
C3341 C3345 1.429 . S
C3342 C3325 1.574 . S
C3342 H3336 0.949 . S
C3342 C3346 1.368 . S
C3343 C3324 1.429 . S
C3343 C3337 1.429 . S
C3343 C3344 1.523 . S
C3344 C3325 1.368 . S
C3344 C3338 1.368 . S
C3344 C3343 1.523 . S
C3345 C3329 1.429 . S
C3345 C3341 1.429 . S
C3345 C3346 1.523 . S
C3346 C3330 1.368 . S
C3346 C3342 1.368 . S
C3346 C3345 1.523 . S
H3347 C3322 0.950 . S
H3348 C3324 0.950 . S
H3349 C3325 0.949 . S
H3350 C3327 0.950 . S
H3351 C3329 0.950 . S
C3352 C3353 1.349 . S
C3352 C3354 1.327 . S
C3352 H3377 0.950 . S
C3353 C3352 1.349 . S
C3353 C3369 1.349 . S
C3354 C3352 1.327 . S
C3354 C3373 1.429 . S
C3354 H3378 0.950 . S
C3355 C3372 1.574 . S
C3355 C3374 1.368 . S
C3355 H3379 0.949 . S
H3356 C3360 0.949 . S
C3357 C3358 1.349 . S
C3357 C3359 1.327 . S
C3357 H3380 0.950 . S
C3358 C3357 1.349 . S
C3358 C3370 1.349 . S
C3359 C3357 1.327 . S
C3359 C3375 1.429 . S
C3359 H3381 0.950 . S
C3360 H3356 0.949 . S
C3360 C3368 1.574 . S
C3360 C3376 1.368 . S
H3361 C3369 0.950 . S
H3362 C3367 0.950 . S
H3363 C3368 0.949 . S
H3364 C3370 0.950 . S
H3365 C3371 0.950 . S
H3366 C3372 0.949 . S
C3367 H3362 0.950 . S
C3367 C3369 1.327 . S
C3367 C3373 1.429 . S
C3368 C3360 1.574 . S
C3368 H3363 0.949 . S
C3368 C3374 1.368 . S
C3369 C3353 1.349 . S
C3369 H3361 0.950 . S
C3369 C3367 1.327 . S
C3370 C3358 1.349 . S
C3370 H3364 0.950 . S
C3370 C3371 1.327 . S
C3371 H3365 0.950 . S
C3371 C3370 1.327 . S
C3371 C3375 1.429 . S
C3372 C3355 1.574 . S
C3372 H3366 0.949 . S
C3372 C3376 1.368 . S
C3373 C3354 1.429 . S
C3373 C3367 1.429 . S
C3373 C3374 1.523 . S
C3374 C3355 1.368 . S
C3374 C3368 1.368 . S
C3374 C3373 1.523 . S
C3375 C3359 1.429 . S
C3375 C3371 1.429 . S
C3375 C3376 1.523 . S
C3376 C3360 1.368 . S
C3376 C3372 1.368 . S
C3376 C3375 1.523 . S
H3377 C3352 0.950 . S
H3378 C3354 0.950 . S
H3379 C3355 0.949 . S
H3380 C3357 0.950 . S
H3381 C3359 0.950 . S
C3382 C3383 1.349 . S
C3382 C3384 1.327 . S
C3382 H3407 0.950 . S
C3383 C3382 1.349 . S
C3383 C3399 1.349 . S
C3384 C3382 1.327 . S
C3384 C3403 1.429 . S
C3384 H3408 0.950 . S
C3385 C3402 1.574 . S
C3385 C3404 1.368 . S
C3385 H3409 0.949 . S
H3386 C3390 0.949 . S
C3387 C3388 1.349 . S
C3387 C3389 1.327 . S
C3387 H3410 0.950 . S
C3388 C3387 1.349 . S
C3388 C3400 1.349 . S
C3389 C3387 1.327 . S
C3389 C3405 1.429 . S
C3389 H3411 0.950 . S
C3390 H3386 0.949 . S
C3390 C3398 1.574 . S
C3390 C3406 1.368 . S
H3391 C3399 0.950 . S
H3392 C3397 0.950 . S
H3393 C3398 0.949 . S
H3394 C3400 0.950 . S
H3395 C3401 0.950 . S
H3396 C3402 0.949 . S
C3397 H3392 0.950 . S
C3397 C3399 1.327 . S
C3397 C3403 1.429 . S
C3398 C3390 1.574 . S
C3398 H3393 0.949 . S
C3398 C3404 1.368 . S
C3399 C3383 1.349 . S
C3399 H3391 0.950 . S
C3399 C3397 1.327 . S
C3400 C3388 1.349 . S
C3400 H3394 0.950 . S
C3400 C3401 1.327 . S
C3401 H3395 0.950 . S
C3401 C3400 1.327 . S
C3401 C3405 1.429 . S
C3402 C3385 1.574 . S
C3402 H3396 0.949 . S
C3402 C3406 1.368 . S
C3403 C3384 1.429 . S
C3403 C3397 1.429 . S
C3403 C3404 1.523 . S
C3404 C3385 1.368 . S
C3404 C3398 1.368 . S
C3404 C3403 1.523 . S
C3405 C3389 1.429 . S
C3405 C3401 1.429 . S
C3405 C3406 1.523 . S
C3406 C3390 1.368 . S
C3406 C3402 1.368 . S
C3406 C3405 1.523 . S
H3407 C3382 0.950 . S
H3408 C3384 0.950 . S
H3409 C3385 0.949 . S
H3410 C3387 0.950 . S
H3411 C3389 0.950 . S
C3412 C3413 1.349 . S
C3412 C3414 1.327 . S
C3412 H3437 0.950 . S
C3413 C3412 1.349 . S
C3413 C3429 1.349 . S
C3414 C3412 1.327 . S
C3414 C3433 1.429 . S
C3414 H3438 0.950 . S
C3415 C3432 1.574 . S
C3415 C3434 1.368 . S
C3415 H3439 0.949 . S
H3416 C3420 0.949 . S
C3417 C3418 1.349 . S
C3417 C3419 1.327 . S
C3417 H3440 0.950 . S
C3418 C3417 1.349 . S
C3418 C3430 1.349 . S
C3419 C3417 1.327 . S
C3419 C3435 1.429 . S
C3419 H3441 0.950 . S
C3420 H3416 0.949 . S
C3420 C3428 1.574 . S
C3420 C3436 1.368 . S
H3421 C3429 0.950 . S
H3422 C3427 0.950 . S
H3423 C3428 0.949 . S
H3424 C3430 0.950 . S
H3425 C3431 0.950 . S
H3426 C3432 0.949 . S
C3427 H3422 0.950 . S
C3427 C3429 1.327 . S
C3427 C3433 1.429 . S
C3428 C3420 1.574 . S
C3428 H3423 0.949 . S
C3428 C3434 1.368 . S
C3429 C3413 1.349 . S
C3429 H3421 0.950 . S
C3429 C3427 1.327 . S
C3430 C3418 1.349 . S
C3430 H3424 0.950 . S
C3430 C3431 1.327 . S
C3431 H3425 0.950 . S
C3431 C3430 1.327 . S
C3431 C3435 1.429 . S
C3432 C3415 1.574 . S
C3432 H3426 0.949 . S
C3432 C3436 1.368 . S
C3433 C3414 1.429 . S
C3433 C3427 1.429 . S
C3433 C3434 1.523 . S
C3434 C3415 1.368 . S
C3434 C3428 1.368 . S
C3434 C3433 1.523 . S
C3435 C3419 1.429 . S
C3435 C3431 1.429 . S
C3435 C3436 1.523 . S
C3436 C3420 1.368 . S
C3436 C3432 1.368 . S
C3436 C3435 1.523 . S
H3437 C3412 0.950 . S
H3438 C3414 0.950 . S
H3439 C3415 0.949 . S
H3440 C3417 0.950 . S
H3441 C3419 0.950 . S
C3442 C3443 1.349 . S
C3442 C3444 1.327 . S
C3442 H3467 0.950 . S
C3443 C3442 1.349 . S
C3443 C3459 1.349 . S
C3444 C3442 1.327 . S
C3444 C3463 1.429 . S
C3444 H3468 0.950 . S
C3445 C3462 1.574 . S
C3445 C3464 1.368 . S
C3445 H3469 0.949 . S
H3446 C3450 0.949 . S
C3447 C3448 1.349 . S
C3447 C3449 1.327 . S
C3447 H3470 0.950 . S
C3448 C3447 1.349 . S
C3448 C3460 1.349 . S
C3449 C3447 1.327 . S
C3449 C3465 1.429 . S
C3449 H3471 0.950 . S
C3450 H3446 0.949 . S
C3450 C3458 1.574 . S
C3450 C3466 1.368 . S
H3451 C3459 0.950 . S
H3452 C3457 0.950 . S
H3453 C3458 0.949 . S
H3454 C3460 0.950 . S
H3455 C3461 0.950 . S
H3456 C3462 0.949 . S
C3457 H3452 0.950 . S
C3457 C3459 1.327 . S
C3457 C3463 1.429 . S
C3458 C3450 1.574 . S
C3458 H3453 0.949 . S
C3458 C3464 1.368 . S
C3459 C3443 1.349 . S
C3459 H3451 0.950 . S
C3459 C3457 1.327 . S
C3460 C3448 1.349 . S
C3460 H3454 0.950 . S
C3460 C3461 1.327 . S
C3461 H3455 0.950 . S
C3461 C3460 1.327 . S
C3461 C3465 1.429 . S
C3462 C3445 1.574 . S
C3462 H3456 0.949 . S
C3462 C3466 1.368 . S
C3463 C3444 1.429 . S
C3463 C3457 1.429 . S
C3463 C3464 1.523 . S
C3464 C3445 1.368 . S
C3464 C3458 1.368 . S
C3464 C3463 1.523 . S
C3465 C3449 1.429 . S
C3465 C3461 1.429 . S
C3465 C3466 1.523 . S
C3466 C3450 1.368 . S
C3466 C3462 1.368 . S
C3466 C3465 1.523 . S
H3467 C3442 0.950 . S
H3468 C3444 0.950 . S
H3469 C3445 0.949 . S
H3470 C3447 0.950 . S
H3471 C3449 0.950 . S
C3472 C3473 1.349 . S
C3472 C3474 1.327 . S
C3472 H3497 0.950 . S
C3473 C3472 1.349 . S
C3473 C3489 1.349 . S
C3474 C3472 1.327 . S
C3474 C3493 1.429 . S
C3474 H3498 0.950 . S
C3475 C3492 1.574 . S
C3475 C3494 1.368 . S
C3475 H3499 0.949 . S
H3476 C3480 0.949 . S
C3477 C3478 1.349 . S
C3477 C3479 1.327 . S
C3477 H3500 0.950 . S
C3478 C3477 1.349 . S
C3478 C3490 1.349 . S
C3479 C3477 1.327 . S
C3479 C3495 1.429 . S
C3479 H3501 0.950 . S
C3480 H3476 0.949 . S
C3480 C3488 1.574 . S
C3480 C3496 1.368 . S
H3481 C3489 0.950 . S
H3482 C3487 0.950 . S
H3483 C3488 0.949 . S
H3484 C3490 0.950 . S
H3485 C3491 0.950 . S
H3486 C3492 0.949 . S
C3487 H3482 0.950 . S
C3487 C3489 1.327 . S
C3487 C3493 1.429 . S
C3488 C3480 1.574 . S
C3488 H3483 0.949 . S
C3488 C3494 1.368 . S
C3489 C3473 1.349 . S
C3489 H3481 0.950 . S
C3489 C3487 1.327 . S
C3490 C3478 1.349 . S
C3490 H3484 0.950 . S
C3490 C3491 1.327 . S
C3491 H3485 0.950 . S
C3491 C3490 1.327 . S
C3491 C3495 1.429 . S
C3492 C3475 1.574 . S
C3492 H3486 0.949 . S
C3492 C3496 1.368 . S
C3493 C3474 1.429 . S
C3493 C3487 1.429 . S
C3493 C3494 1.523 . S
C3494 C3475 1.368 . S
C3494 C3488 1.368 . S
C3494 C3493 1.523 . S
C3495 C3479 1.429 . S
C3495 C3491 1.429 . S
C3495 C3496 1.523 . S
C3496 C3480 1.368 . S
C3496 C3492 1.368 . S
C3496 C3495 1.523 . S
H3497 C3472 0.950 . S
H3498 C3474 0.950 . S
H3499 C3475 0.949 . S
H3500 C3477 0.950 . S
H3501 C3479 0.950 . S
C3502 C3503 1.349 . S
C3502 C3504 1.327 . S
C3502 H3527 0.950 . S
C3503 C3502 1.349 . S
C3503 C3519 1.349 . S
C3504 C3502 1.327 . S
C3504 C3523 1.429 . S
C3504 H3528 0.950 . S
C3505 C3522 1.574 . S
C3505 C3524 1.368 . S
C3505 H3529 0.949 . S
H3506 C3510 0.949 . S
C3507 C3508 1.349 . S
C3507 C3509 1.327 . S
C3507 H3530 0.950 . S
C3508 C3507 1.349 . S
C3508 C3520 1.349 . S
C3509 C3507 1.327 . S
C3509 C3525 1.429 . S
C3509 H3531 0.950 . S
C3510 H3506 0.949 . S
C3510 C3518 1.574 . S
C3510 C3526 1.368 . S
H3511 C3519 0.950 . S
H3512 C3517 0.950 . S
H3513 C3518 0.949 . S
H3514 C3520 0.950 . S
H3515 C3521 0.950 . S
H3516 C3522 0.949 . S
C3517 H3512 0.950 . S
C3517 C3519 1.327 . S
C3517 C3523 1.429 . S
C3518 C3510 1.574 . S
C3518 H3513 0.949 . S
C3518 C3524 1.368 . S
C3519 C3503 1.349 . S
C3519 H3511 0.950 . S
C3519 C3517 1.327 . S
C3520 C3508 1.349 . S
C3520 H3514 0.950 . S
C3520 C3521 1.327 . S
C3521 H3515 0.950 . S
C3521 C3520 1.327 . S
C3521 C3525 1.429 . S
C3522 C3505 1.574 . S
C3522 H3516 0.949 . S
C3522 C3526 1.368 . S
C3523 C3504 1.429 . S
C3523 C3517 1.429 . S
C3523 C3524 1.523 . S
C3524 C3505 1.368 . S
C3524 C3518 1.368 . S
C3524 C3523 1.523 . S
C3525 C3509 1.429 . S
C3525 C3521 1.429 . S
C3525 C3526 1.523 . S
C3526 C3510 1.368 . S
C3526 C3522 1.368 . S
C3526 C3525 1.523 . S
H3527 C3502 0.950 . S
H3528 C3504 0.950 . S
H3529 C3505 0.949 . S
H3530 C3507 0.950 . S
H3531 C3509 0.950 . S
C3532 C3533 1.349 . S
C3532 C3534 1.327 . S
C3532 H3557 0.950 . S
C3533 C3532 1.349 . S
C3533 C3549 1.349 . S
C3534 C3532 1.327 . S
C3534 C3553 1.429 . S
C3534 H3558 0.950 . S
C3535 C3552 1.574 . S
C3535 C3554 1.368 . S
C3535 H3559 0.949 . S
H3536 C3540 0.949 . S
C3537 C3538 1.349 . S
C3537 C3539 1.327 . S
C3537 H3560 0.950 . S
C3538 C3537 1.349 . S
C3538 C3550 1.349 . S
C3539 C3537 1.327 . S
C3539 C3555 1.429 . S
C3539 H3561 0.950 . S
C3540 H3536 0.949 . S
C3540 C3548 1.574 . S
C3540 C3556 1.368 . S
H3541 C3549 0.950 . S
H3542 C3547 0.950 . S
H3543 C3548 0.949 . S
H3544 C3550 0.950 . S
H3545 C3551 0.950 . S
H3546 C3552 0.949 . S
C3547 H3542 0.950 . S
C3547 C3549 1.327 . S
C3547 C3553 1.429 . S
C3548 C3540 1.574 . S
C3548 H3543 0.949 . S
C3548 C3554 1.368 . S
C3549 C3533 1.349 . S
C3549 H3541 0.950 . S
C3549 C3547 1.327 . S
C3550 C3538 1.349 . S
C3550 H3544 0.950 . S
C3550 C3551 1.327 . S
C3551 H3545 0.950 . S
C3551 C3550 1.327 . S
C3551 C3555 1.429 . S
C3552 C3535 1.574 . S
C3552 H3546 0.949 . S
C3552 C3556 1.368 . S
C3553 C3534 1.429 . S
C3553 C3547 1.429 . S
C3553 C3554 1.523 . S
C3554 C3535 1.368 . S
C3554 C3548 1.368 . S
C3554 C3553 1.523 . S
C3555 C3539 1.429 . S
C3555 C3551 1.429 . S
C3555 C3556 1.523 . S
C3556 C3540 1.368 . S
C3556 C3552 1.368 . S
C3556 C3555 1.523 . S
H3557 C3532 0.950 . S
H3558 C3534 0.950 . S
H3559 C3535 0.949 . S
H3560 C3537 0.950 . S
H3561 C3539 0.950 . S
C3562 C3563 1.349 . S
C3562 C3564 1.327 . S
C3562 H3587 0.950 . S
C3563 C3562 1.349 . S
C3563 C3579 1.349 . S
C3564 C3562 1.327 . S
C3564 C3583 1.429 . S
C3564 H3588 0.950 . S
C3565 C3582 1.574 . S
C3565 C3584 1.368 . S
C3565 H3589 0.949 . S
H3566 C3570 0.949 . S
C3567 C3568 1.349 . S
C3567 C3569 1.327 . S
C3567 H3590 0.950 . S
C3568 C3567 1.349 . S
C3568 C3580 1.349 . S
C3569 C3567 1.327 . S
C3569 C3585 1.429 . S
C3569 H3591 0.950 . S
C3570 H3566 0.949 . S
C3570 C3578 1.574 . S
C3570 C3586 1.368 . S
H3571 C3579 0.950 . S
H3572 C3577 0.950 . S
H3573 C3578 0.949 . S
H3574 C3580 0.950 . S
H3575 C3581 0.950 . S
H3576 C3582 0.949 . S
C3577 H3572 0.950 . S
C3577 C3579 1.327 . S
C3577 C3583 1.429 . S
C3578 C3570 1.574 . S
C3578 H3573 0.949 . S
C3578 C3584 1.368 . S
C3579 C3563 1.349 . S
C3579 H3571 0.950 . S
C3579 C3577 1.327 . S
C3580 C3568 1.349 . S
C3580 H3574 0.950 . S
C3580 C3581 1.327 . S
C3581 H3575 0.950 . S
C3581 C3580 1.327 . S
C3581 C3585 1.429 . S
C3582 C3565 1.574 . S
C3582 H3576 0.949 . S
C3582 C3586 1.368 . S
C3583 C3564 1.429 . S
C3583 C3577 1.429 . S
C3583 C3584 1.523 . S
C3584 C3565 1.368 . S
C3584 C3578 1.368 . S
C3584 C3583 1.523 . S
C3585 C3569 1.429 . S
C3585 C3581 1.429 . S
C3585 C3586 1.523 . S
C3586 C3570 1.368 . S
C3586 C3582 1.368 . S
C3586 C3585 1.523 . S
H3587 C3562 0.950 . S
H3588 C3564 0.950 . S
H3589 C3565 0.949 . S
H3590 C3567 0.950 . S
H3591 C3569 0.950 . S
C3592 C3593 1.349 . S
C3592 C3594 1.327 . S
C3592 H3617 0.950 . S
C3593 C3592 1.349 . S
C3593 C3609 1.349 . S
C3594 C3592 1.327 . S
C3594 C3613 1.429 . S
C3594 H3618 0.950 . S
C3595 C3612 1.574 . S
C3595 C3614 1.368 . S
C3595 H3619 0.949 . S
H3596 C3600 0.949 . S
C3597 C3598 1.349 . S
C3597 C3599 1.327 . S
C3597 H3620 0.950 . S
C3598 C3597 1.349 . S
C3598 C3610 1.349 . S
C3599 C3597 1.327 . S
C3599 C3615 1.429 . S
C3599 H3621 0.950 . S
C3600 H3596 0.949 . S
C3600 C3608 1.574 . S
C3600 C3616 1.368 . S
H3601 C3609 0.950 . S
H3602 C3607 0.950 . S
H3603 C3608 0.949 . S
H3604 C3610 0.950 . S
H3605 C3611 0.950 . S
H3606 C3612 0.949 . S
C3607 H3602 0.950 . S
C3607 C3609 1.327 . S
C3607 C3613 1.429 . S
C3608 C3600 1.574 . S
C3608 H3603 0.949 . S
C3608 C3614 1.368 . S
C3609 C3593 1.349 . S
C3609 H3601 0.950 . S
C3609 C3607 1.327 . S
C3610 C3598 1.349 . S
C3610 H3604 0.950 . S
C3610 C3611 1.327 . S
C3611 H3605 0.950 . S
C3611 C3610 1.327 . S
C3611 C3615 1.429 . S
C3612 C3595 1.574 . S
C3612 H3606 0.949 . S
C3612 C3616 1.368 . S
C3613 C3594 1.429 . S
C3613 C3607 1.429 . S
C3613 C3614 1.523 . S
C3614 C3595 1.368 . S
C3614 C3608 1.368 . S
C3614 C3613 1.523 . S
C3615 C3599 1.429 . S
C3615 C3611 1.429 . S
C3615 C3616 1.523 . S
C3616 C3600 1.368 . S
C3616 C3612 1.368 . S
C3616 C3615 1.523 . S
H3617 C3592 0.950 . S
H3618 C3594 0.950 . S
H3619 C3595 0.949 . S
H3620 C3597 0.950 . S
H3621 C3599 0.950 . S
C3622 C3623 1.349 . S
C3622 C3624 1.327 . S
C3622 H3647 0.950 . S
C3623 C3622 1.349 . S
C3623 C3639 1.349 . S
C3624 C3622 1.327 . S
C3624 C3643 1.429 . S
C3624 H3648 0.950 . S
C3625 C3642 1.574 . S
C3625 C3644 1.368 . S
C3625 H3649 0.949 . S
H3626 C3630 0.949 . S
C3627 C3628 1.349 . S
C3627 C3629 1.327 . S
C3627 H3650 0.950 . S
C3628 C3627 1.349 . S
C3628 C3640 1.349 . S
C3629 C3627 1.327 . S
C3629 C3645 1.429 . S
C3629 H3651 0.950 . S
C3630 H3626 0.949 . S
C3630 C3638 1.574 . S
C3630 C3646 1.368 . S
H3631 C3639 0.950 . S
H3632 C3637 0.950 . S
H3633 C3638 0.949 . S
H3634 C3640 0.950 . S
H3635 C3641 0.950 . S
H3636 C3642 0.949 . S
C3637 H3632 0.950 . S
C3637 C3639 1.327 . S
C3637 C3643 1.429 . S
C3638 C3630 1.574 . S
C3638 H3633 0.949 . S
C3638 C3644 1.368 . S
C3639 C3623 1.349 . S
C3639 H3631 0.950 . S
C3639 C3637 1.327 . S
C3640 C3628 1.349 . S
C3640 H3634 0.950 . S
C3640 C3641 1.327 . S
C3641 H3635 0.950 . S
C3641 C3640 1.327 . S
C3641 C3645 1.429 . S
C3642 C3625 1.574 . S
C3642 H3636 0.949 . S
C3642 C3646 1.368 . S
C3643 C3624 1.429 . S
C3643 C3637 1.429 . S
C3643 C3644 1.523 . S
C3644 C3625 1.368 . S
C3644 C3638 1.368 . S
C3644 C3643 1.523 . S
C3645 C3629 1.429 . S
C3645 C3641 1.429 . S
C3645 C3646 1.523 . S
C3646 C3630 1.368 . S
C3646 C3642 1.368 . S
C3646 C3645 1.523 . S
H3647 C3622 0.950 . S
H3648 C3624 0.950 . S
H3649 C3625 0.949 . S
H3650 C3627 0.950 . S
H3651 C3629 0.950 . S
C3652 C3653 1.349 . S
C3652 C3654 1.327 . S
C3652 H3677 0.950 . S
C3653 C3652 1.349 . S
C3653 C3669 1.349 . S
C3654 C3652 1.327 . S
C3654 C3673 1.429 . S
C3654 H3678 0.950 . S
C3655 C3672 1.574 . S
C3655 C3674 1.368 . S
C3655 H3679 0.949 . S
H3656 C3660 0.949 . S
C3657 C3658 1.349 . S
C3657 C3659 1.327 . S
C3657 H3680 0.950 . S
C3658 C3657 1.349 . S
C3658 C3670 1.349 1_554 S
C3659 C3657 1.327 . S
C3659 C3675 1.429 1_554 S
C3659 H3681 0.950 . S
C3660 H3656 0.949 . S
C3660 C3668 1.574 . S
C3660 C3676 1.368 . S
H3661 C3669 0.950 . S
H3662 C3667 0.950 . S
H3663 C3668 0.949 . S
H3664 C3670 0.950 . S
H3665 C3671 0.950 . S
H3666 C3672 0.949 . S
C3667 H3662 0.950 . S
C3667 C3669 1.327 . S
C3667 C3673 1.429 . S
C3668 C3660 1.574 . S
C3668 H3663 0.949 . S
C3668 C3674 1.368 . S
C3669 C3653 1.349 . S
C3669 H3661 0.950 . S
C3669 C3667 1.327 . S
C3670 C3658 1.349 1_556 S
C3670 H3664 0.950 . S
C3670 C3671 1.327 . S
C3671 H3665 0.950 . S
C3671 C3670 1.327 . S
C3671 C3675 1.429 . S
C3672 C3655 1.574 . S
C3672 H3666 0.949 . S
C3672 C3676 1.368 . S
C3673 C3654 1.429 . S
C3673 C3667 1.429 . S
C3673 C3674 1.523 . S
C3674 C3655 1.368 . S
C3674 C3668 1.368 . S
C3674 C3673 1.523 . S
C3675 C3659 1.429 1_556 S
C3675 C3671 1.429 . S
C3675 C3676 1.523 . S
C3676 C3660 1.368 . S
C3676 C3672 1.368 . S
C3676 C3675 1.523 . S
H3677 C3652 0.950 . S
H3678 C3654 0.950 . S
H3679 C3655 0.949 . S
H3680 C3657 0.950 . S
H3681 C3659 0.950 . S
C3682 C3683 1.349 . S
C3682 C3684 1.327 . S
C3682 H3707 0.950 . S
C3683 C3682 1.349 . S
C3683 C3699 1.349 . S
C3684 C3682 1.327 . S
C3684 C3703 1.429 . S
C3684 H3708 0.950 . S
C3685 C3702 1.574 . S
C3685 C3704 1.368 . S
C3685 H3709 0.949 . S
H3686 C3690 0.949 . S
C3687 C3688 1.349 . S
C3687 C3689 1.327 . S
C3687 H3710 0.950 . S
C3688 C3687 1.349 . S
C3688 C3700 1.349 . S
C3689 C3687 1.327 . S
C3689 C3705 1.429 . S
C3689 H3711 0.950 . S
C3690 H3686 0.949 . S
C3690 C3698 1.574 . S
C3690 C3706 1.368 . S
H3691 C3699 0.950 . S
H3692 C3697 0.950 . S
H3693 C3698 0.949 . S
H3694 C3700 0.950 . S
H3695 C3701 0.950 . S
H3696 C3702 0.949 . S
C3697 H3692 0.950 . S
C3697 C3699 1.327 . S
C3697 C3703 1.429 . S
C3698 C3690 1.574 . S
C3698 H3693 0.949 . S
C3698 C3704 1.368 . S
C3699 C3683 1.349 . S
C3699 H3691 0.950 . S
C3699 C3697 1.327 . S
C3700 C3688 1.349 . S
C3700 H3694 0.950 . S
C3700 C3701 1.327 . S
C3701 H3695 0.950 . S
C3701 C3700 1.327 . S
C3701 C3705 1.429 . S
C3702 C3685 1.574 . S
C3702 H3696 0.949 . S
C3702 C3706 1.368 . S
C3703 C3684 1.429 . S
C3703 C3697 1.429 . S
C3703 C3704 1.523 . S
C3704 C3685 1.368 . S
C3704 C3698 1.368 . S
C3704 C3703 1.523 . S
C3705 C3689 1.429 . S
C3705 C3701 1.429 . S
C3705 C3706 1.523 . S
C3706 C3690 1.368 . S
C3706 C3702 1.368 . S
C3706 C3705 1.523 . S
H3707 C3682 0.950 . S
H3708 C3684 0.950 . S
H3709 C3685 0.949 . S
H3710 C3687 0.950 . S
H3711 C3689 0.950 . S
C3712 C3713 1.349 . S
C3712 C3714 1.327 . S
C3712 H3737 0.950 . S
C3713 C3712 1.349 . S
C3713 C3729 1.349 . S
C3714 C3712 1.327 . S
C3714 C3733 1.429 . S
C3714 H3738 0.950 . S
C3715 C3732 1.574 . S
C3715 C3734 1.368 . S
C3715 H3739 0.949 . S
H3716 C3720 0.949 . S
C3717 C3718 1.349 . S
C3717 C3719 1.327 . S
C3717 H3740 0.950 1_545 S
C3718 C3717 1.349 . S
C3718 C3730 1.349 . S
C3719 C3717 1.327 . S
C3719 C3735 1.429 . S
C3719 H3741 0.950 1_545 S
C3720 H3716 0.949 . S
C3720 C3728 1.574 . S
C3720 C3736 1.368 . S
H3721 C3729 0.950 . S
H3722 C3727 0.950 . S
H3723 C3728 0.949 . S
H3724 C3730 0.950 . S
H3725 C3731 0.950 . S
H3726 C3732 0.950 . S
C3727 H3722 0.950 . S
C3727 C3729 1.327 . S
C3727 C3733 1.429 . S
C3728 C3720 1.574 . S
C3728 H3723 0.949 . S
C3728 C3734 1.368 . S
C3729 C3713 1.349 . S
C3729 H3721 0.950 . S
C3729 C3727 1.327 . S
C3730 C3718 1.349 . S
C3730 H3724 0.950 . S
C3730 C3731 1.327 . S
C3731 H3725 0.950 . S
C3731 C3730 1.327 . S
C3731 C3735 1.429 . S
C3732 C3715 1.574 . S
C3732 H3726 0.950 . S
C3732 C3736 1.368 . S
C3733 C3714 1.429 . S
C3733 C3727 1.429 . S
C3733 C3734 1.523 . S
C3734 C3715 1.368 . S
C3734 C3728 1.368 . S
C3734 C3733 1.523 . S
C3735 C3719 1.429 . S
C3735 C3731 1.429 . S
C3735 C3736 1.523 . S
C3736 C3720 1.368 . S
C3736 C3732 1.368 . S
C3736 C3735 1.523 . S
H3737 C3712 0.950 . S
H3738 C3714 0.950 . S
H3739 C3715 0.949 . S
H3740 C3717 0.950 1_565 S
H3741 C3719 0.950 1_565 S
C3742 C3743 1.349 . S
C3742 C3744 1.327 . S
C3742 H3767 0.950 . S
C3743 C3742 1.349 . S
C3743 C3759 1.349 . S
C3744 C3742 1.327 . S
C3744 C3763 1.429 . S
C3744 H3768 0.950 . S
C3745 C3762 1.574 . S
C3745 C3764 1.368 . S
C3745 H3769 0.949 . S
H3746 C3750 0.949 . S
C3747 C3748 1.349 . S
C3747 C3749 1.327 . S
C3747 H3770 0.950 . S
C3748 C3747 1.349 . S
C3748 C3760 1.349 . S
C3749 C3747 1.327 . S
C3749 C3765 1.429 . S
C3749 H3771 0.950 . S
C3750 H3746 0.949 . S
C3750 C3758 1.574 . S
C3750 C3766 1.368 . S
H3751 C3759 0.950 . S
H3752 C3757 0.950 . S
H3753 C3758 0.949 . S
H3754 C3760 0.950 . S
H3755 C3761 0.950 . S
H3756 C3762 0.949 . S
C3757 H3752 0.950 . S
C3757 C3759 1.327 . S
C3757 C3763 1.429 . S
C3758 C3750 1.574 . S
C3758 H3753 0.949 . S
C3758 C3764 1.368 . S
C3759 C3743 1.349 . S
C3759 H3751 0.950 . S
C3759 C3757 1.327 . S
C3760 C3748 1.349 . S
C3760 H3754 0.950 . S
C3760 C3761 1.327 . S
C3761 H3755 0.950 . S
C3761 C3760 1.327 . S
C3761 C3765 1.429 . S
C3762 C3745 1.574 . S
C3762 H3756 0.949 . S
C3762 C3766 1.368 . S
C3763 C3744 1.429 . S
C3763 C3757 1.429 . S
C3763 C3764 1.523 . S
C3764 C3745 1.368 . S
C3764 C3758 1.368 . S
C3764 C3763 1.523 . S
C3765 C3749 1.429 . S
C3765 C3761 1.429 . S
C3765 C3766 1.523 . S
C3766 C3750 1.368 . S
C3766 C3762 1.368 . S
C3766 C3765 1.523 . S
H3767 C3742 0.950 . S
H3768 C3744 0.950 . S
H3769 C3745 0.949 . S
H3770 C3747 0.950 . S
H3771 C3749 0.950 . S
C3772 C3773 1.349 . S
C3772 C3774 1.327 . S
C3772 H3797 0.950 . S
C3773 C3772 1.349 . S
C3773 C3789 1.349 . S
C3774 C3772 1.327 . S
C3774 C3793 1.429 . S
C3774 H3798 0.950 . S
C3775 C3792 1.574 . S
C3775 C3794 1.368 . S
C3775 H3799 0.949 . S
H3776 C3780 0.949 . S
C3777 C3778 1.349 . S
C3777 C3779 1.327 . S
C3777 H3800 0.950 . S
C3778 C3777 1.349 . S
C3778 C3790 1.349 . S
C3779 C3777 1.327 . S
C3779 C3795 1.429 . S
C3779 H3801 0.950 . S
C3780 H3776 0.949 . S
C3780 C3788 1.574 . S
C3780 C3796 1.368 . S
H3781 C3789 0.950 . S
H3782 C3787 0.950 . S
H3783 C3788 0.949 . S
H3784 C3790 0.950 . S
H3785 C3791 0.950 . S
H3786 C3792 0.949 . S
C3787 H3782 0.950 . S
C3787 C3789 1.327 . S
C3787 C3793 1.429 . S
C3788 C3780 1.574 . S
C3788 H3783 0.949 . S
C3788 C3794 1.368 . S
C3789 C3773 1.349 . S
C3789 H3781 0.950 . S
C3789 C3787 1.327 . S
C3790 C3778 1.349 . S
C3790 H3784 0.950 . S
C3790 C3791 1.327 . S
C3791 H3785 0.950 . S
C3791 C3790 1.327 . S
C3791 C3795 1.429 . S
C3792 C3775 1.574 . S
C3792 H3786 0.949 . S
C3792 C3796 1.368 . S
C3793 C3774 1.429 . S
C3793 C3787 1.429 . S
C3793 C3794 1.523 . S
C3794 C3775 1.368 . S
C3794 C3788 1.368 . S
C3794 C3793 1.523 . S
C3795 C3779 1.429 . S
C3795 C3791 1.429 . S
C3795 C3796 1.523 . S
C3796 C3780 1.368 . S
C3796 C3792 1.368 . S
C3796 C3795 1.523 . S
H3797 C3772 0.950 . S
H3798 C3774 0.950 . S
H3799 C3775 0.949 . S
H3800 C3777 0.950 . S
H3801 C3779 0.950 . S
C3802 C3803 1.349 . S
C3802 C3804 1.327 . S
C3802 H3827 0.950 . S
C3803 C3802 1.349 . S
C3803 C3819 1.349 . S
C3804 C3802 1.327 . S
C3804 C3823 1.429 . S
C3804 H3828 0.950 . S
C3805 C3822 1.574 . S
C3805 C3824 1.368 . S
C3805 H3829 0.949 . S
H3806 C3810 0.949 . S
C3807 C3808 1.349 . S
C3807 C3809 1.327 . S
C3807 H3830 0.950 . S
C3808 C3807 1.349 . S
C3808 C3820 1.349 . S
C3809 C3807 1.327 . S
C3809 C3825 1.429 . S
C3809 H3831 0.950 . S
C3810 H3806 0.949 . S
C3810 C3818 1.574 . S
C3810 C3826 1.368 . S
H3811 C3819 0.950 . S
H3812 C3817 0.950 . S
H3813 C3818 0.949 . S
H3814 C3820 0.950 . S
H3815 C3821 0.950 . S
H3816 C3822 0.949 . S
C3817 H3812 0.950 . S
C3817 C3819 1.327 . S
C3817 C3823 1.429 . S
C3818 C3810 1.574 . S
C3818 H3813 0.949 . S
C3818 C3824 1.368 . S
C3819 C3803 1.349 . S
C3819 H3811 0.950 . S
C3819 C3817 1.327 . S
C3820 C3808 1.349 . S
C3820 H3814 0.950 . S
C3820 C3821 1.327 . S
C3821 H3815 0.950 . S
C3821 C3820 1.327 . S
C3821 C3825 1.429 . S
C3822 C3805 1.574 . S
C3822 H3816 0.949 . S
C3822 C3826 1.368 . S
C3823 C3804 1.429 . S
C3823 C3817 1.429 . S
C3823 C3824 1.523 . S
C3824 C3805 1.368 . S
C3824 C3818 1.368 . S
C3824 C3823 1.523 . S
C3825 C3809 1.429 . S
C3825 C3821 1.429 . S
C3825 C3826 1.523 . S
C3826 C3810 1.368 . S
C3826 C3822 1.368 . S
C3826 C3825 1.523 . S
H3827 C3802 0.950 . S
H3828 C3804 0.950 . S
H3829 C3805 0.949 . S
H3830 C3807 0.950 . S
H3831 C3809 0.950 . S
C3832 C3833 1.349 . S
C3832 C3834 1.327 . S
C3832 H3857 0.950 . S
C3833 C3832 1.349 . S
C3833 C3849 1.349 . S
C3834 C3832 1.327 . S
C3834 C3853 1.429 . S
C3834 H3858 0.950 . S
C3835 C3852 1.574 . S
C3835 C3854 1.368 . S
C3835 H3859 0.949 . S
H3836 C3840 0.949 . S
C3837 C3838 1.349 . S
C3837 C3839 1.327 . S
C3837 H3860 0.950 1_545 S
C3838 C3837 1.349 . S
C3838 C3850 1.349 . S
C3839 C3837 1.327 . S
C3839 C3855 1.429 . S
C3839 H3861 0.921 1_545 S
C3840 H3836 0.949 . S
C3840 C3848 1.574 . S
C3840 C3856 1.368 . S
H3841 C3849 0.950 . S
H3842 C3847 0.950 . S
H3843 C3848 0.949 . S
H3844 C3850 0.950 . S
H3845 C3851 0.950 . S
H3846 C3852 0.952 . S
C3847 H3842 0.950 . S
C3847 C3849 1.327 . S
C3847 C3853 1.429 . S
C3848 C3840 1.574 . S
C3848 H3843 0.949 . S
C3848 C3854 1.368 . S
C3849 C3833 1.349 . S
C3849 H3841 0.950 . S
C3849 C3847 1.327 . S
C3850 C3838 1.349 . S
C3850 H3844 0.950 . S
C3850 C3851 1.327 . S
C3851 H3845 0.950 . S
C3851 C3850 1.327 . S
C3851 C3855 1.429 . S
C3852 C3835 1.574 . S
C3852 H3846 0.952 . S
C3852 C3856 1.368 . S
C3853 C3834 1.429 . S
C3853 C3847 1.429 . S
C3853 C3854 1.523 . S
C3854 C3835 1.368 . S
C3854 C3848 1.368 . S
C3854 C3853 1.523 . S
C3855 C3839 1.429 . S
C3855 C3851 1.429 . S
C3855 C3856 1.523 . S
C3856 C3840 1.368 . S
C3856 C3852 1.368 . S
C3856 C3855 1.523 . S
H3857 C3832 0.950 . S
H3858 C3834 0.950 . S
H3859 C3835 0.949 . S
H3860 C3837 0.950 1_565 S
H3861 C3839 0.921 1_565 S
C3862 C3863 1.349 . S
C3862 C3864 1.327 . S
C3862 H3887 0.950 . S
C3863 C3862 1.349 . S
C3863 C3879 1.349 . S
C3864 C3862 1.327 . S
C3864 C3883 1.429 . S
C3864 H3888 0.950 . S
C3865 C3882 1.574 . S
C3865 C3884 1.368 . S
C3865 H3889 0.949 . S
H3866 C3870 0.949 . S
C3867 C3868 1.349 . S
C3867 C3869 1.327 . S
C3867 H3890 0.950 . S
C3868 C3867 1.349 . S
C3868 C3880 1.349 . S
C3869 C3867 1.327 . S
C3869 C3885 1.429 . S
C3869 H3891 0.950 . S
C3870 H3866 0.949 . S
C3870 C3878 1.574 . S
C3870 C3886 1.368 . S
H3871 C3879 0.950 . S
H3872 C3877 0.950 . S
H3873 C3878 0.949 . S
H3874 C3880 0.950 . S
H3875 C3881 0.950 . S
H3876 C3882 0.949 . S
C3877 H3872 0.950 . S
C3877 C3879 1.327 . S
C3877 C3883 1.429 . S
C3878 C3870 1.574 . S
C3878 H3873 0.949 . S
C3878 C3884 1.368 . S
C3879 C3863 1.349 . S
C3879 H3871 0.950 . S
C3879 C3877 1.327 . S
C3880 C3868 1.349 . S
C3880 H3874 0.950 . S
C3880 C3881 1.327 . S
C3881 H3875 0.950 . S
C3881 C3880 1.327 . S
C3881 C3885 1.429 . S
C3882 C3865 1.574 . S
C3882 H3876 0.949 . S
C3882 C3886 1.368 . S
C3883 C3864 1.429 . S
C3883 C3877 1.429 . S
C3883 C3884 1.523 . S
C3884 C3865 1.368 . S
C3884 C3878 1.368 . S
C3884 C3883 1.523 . S
C3885 C3869 1.429 . S
C3885 C3881 1.429 . S
C3885 C3886 1.523 . S
C3886 C3870 1.368 . S
C3886 C3882 1.368 . S
C3886 C3885 1.523 . S
H3887 C3862 0.950 . S
H3888 C3864 0.950 . S
H3889 C3865 0.949 . S
H3890 C3867 0.950 . S
H3891 C3869 0.950 . S
C3892 C3893 1.349 . S
C3892 C3894 1.327 . S
C3892 H3917 0.950 . S
C3893 C3892 1.349 . S
C3893 C3909 1.349 . S
C3894 C3892 1.327 . S
C3894 C3913 1.429 . S
C3894 H3918 0.950 . S
C3895 C3912 1.574 . S
C3895 C3914 1.368 . S
C3895 H3919 0.949 . S
H3896 C3900 0.949 1_565 S
C3897 C3898 1.349 1_545 S
C3897 C3899 1.327 . S
C3897 H3920 0.950 . S
C3898 C3897 1.349 1_565 S
C3898 C3910 1.349 . S
C3899 C3897 1.327 . S
C3899 C3915 1.429 . S
C3899 H3921 0.950 . S
C3900 H3896 0.949 1_545 S
C3900 C3908 1.574 . S
C3900 C3916 1.368 . S
H3901 C3909 0.950 . S
H3902 C3907 0.950 . S
H3903 C3908 0.949 . S
H3904 C3910 0.950 . S
H3905 C3911 0.950 . S
H3906 C3912 0.949 . S
C3907 H3902 0.950 . S
C3907 C3909 1.327 . S
C3907 C3913 1.429 . S
C3908 C3900 1.574 . S
C3908 H3903 0.949 . S
C3908 C3914 1.368 . S
C3909 C3893 1.349 . S
C3909 H3901 0.950 . S
C3909 C3907 1.327 . S
C3910 C3898 1.349 . S
C3910 H3904 0.950 . S
C3910 C3911 1.327 . S
C3911 H3905 0.950 . S
C3911 C3910 1.327 . S
C3911 C3915 1.429 1_565 S
C3912 C3895 1.574 . S
C3912 H3906 0.949 . S
C3912 C3916 1.368 . S
C3913 C3894 1.429 . S
C3913 C3907 1.429 . S
C3913 C3914 1.523 . S
C3914 C3895 1.368 . S
C3914 C3908 1.368 . S
C3914 C3913 1.523 . S
C3915 C3899 1.429 . S
C3915 C3911 1.429 1_545 S
C3915 C3916 1.523 . S
C3916 C3900 1.368 . S
C3916 C3912 1.368 . S
C3916 C3915 1.523 . S
H3917 C3892 0.950 . S
H3918 C3894 0.950 . S
H3919 C3895 0.949 . S
H3920 C3897 0.950 . S
H3921 C3899 0.950 . S
C3922 C3923 1.349 . S
C3922 C3924 1.327 . S
C3922 H3947 0.950 . S
C3923 C3922 1.349 . S
C3923 C3939 1.349 . S
C3924 C3922 1.327 . S
C3924 C3943 1.429 . S
C3924 H3948 0.950 . S
C3925 C3942 1.574 . S
C3925 C3944 1.368 . S
C3925 H3949 0.949 . S
H3926 C3930 0.949 . S
C3927 C3928 1.349 . S
C3927 C3929 1.327 . S
C3927 H3950 0.950 . S
C3928 C3927 1.349 . S
C3928 C3940 1.349 . S
C3929 C3927 1.327 . S
C3929 C3945 1.429 . S
C3929 H3951 0.950 . S
C3930 H3926 0.949 . S
C3930 C3938 1.574 . S
C3930 C3946 1.368 . S
H3931 C3939 0.950 . S
H3932 C3937 0.950 . S
H3933 C3938 0.949 . S
H3934 C3940 0.950 . S
H3935 C3941 0.950 . S
H3936 C3942 0.949 . S
C3937 H3932 0.950 . S
C3937 C3939 1.327 . S
C3937 C3943 1.429 . S
C3938 C3930 1.574 . S
C3938 H3933 0.949 . S
C3938 C3944 1.368 . S
C3939 C3923 1.349 . S
C3939 H3931 0.950 . S
C3939 C3937 1.327 . S
C3940 C3928 1.349 . S
C3940 H3934 0.950 . S
C3940 C3941 1.327 . S
C3941 H3935 0.950 . S
C3941 C3940 1.327 . S
C3941 C3945 1.429 . S
C3942 C3925 1.574 . S
C3942 H3936 0.949 . S
C3942 C3946 1.368 . S
C3943 C3924 1.429 . S
C3943 C3937 1.429 . S
C3943 C3944 1.523 . S
C3944 C3925 1.368 . S
C3944 C3938 1.368 . S
C3944 C3943 1.523 . S
C3945 C3929 1.429 . S
C3945 C3941 1.429 . S
C3945 C3946 1.523 . S
C3946 C3930 1.368 . S
C3946 C3942 1.368 . S
C3946 C3945 1.523 . S
H3947 C3922 0.950 . S
H3948 C3924 0.950 . S
H3949 C3925 0.949 . S
H3950 C3927 0.950 . S
H3951 C3929 0.950 . S
C3952 C3953 1.349 1_556 S
C3952 C3954 1.327 . S
C3952 H3977 0.950 . S
C3953 C3952 1.349 1_554 S
C3953 C3969 1.349 . S
C3954 C3952 1.327 . S
C3954 C3973 1.429 . S
C3954 H3978 0.950 . S
C3955 C3972 1.576 . S
C3955 C3974 1.368 1_554 S
C3955 H3979 0.949 . S
H3956 C3960 0.949 . S
C3957 C3958 1.349 . S
C3957 C3959 1.327 . S
C3957 H3980 0.950 . S
C3958 C3957 1.349 . S
C3958 C3970 1.349 . S
C3959 C3957 1.327 . S
C3959 C3975 1.429 . S
C3959 H3981 0.950 1_556 S
C3960 H3956 0.949 . S
C3960 C3968 1.574 . S
C3960 C3976 1.368 . S
H3961 C3969 0.950 . S
H3962 C3967 0.950 . S
H3963 C3968 0.949 . S
H3964 C3970 0.950 . S
H3965 C3971 0.950 . S
H3966 C3972 0.951 . S
C3967 H3962 0.950 . S
C3967 C3969 1.327 . S
C3967 C3973 1.429 1_554 S
C3968 C3960 1.574 . S
C3968 H3963 0.949 . S
C3968 C3974 1.368 . S
C3969 C3953 1.349 . S
C3969 H3961 0.950 . S
C3969 C3967 1.327 . S
C3970 C3958 1.349 . S
C3970 H3964 0.950 . S
C3970 C3971 1.327 . S
C3971 H3965 0.950 . S
C3971 C3970 1.327 . S
C3971 C3975 1.429 . S
C3972 C3955 1.576 . S
C3972 H3966 0.951 . S
C3972 C3976 1.364 1_554 S
C3973 C3954 1.429 . S
C3973 C3967 1.429 1_556 S
C3973 C3974 1.523 . S
C3974 C3955 1.368 1_556 S
C3974 C3968 1.368 . S
C3974 C3973 1.523 . S
C3975 C3959 1.429 . S
C3975 C3971 1.429 . S
C3975 C3976 1.523 . S
C3976 C3960 1.368 . S
C3976 C3972 1.364 1_556 S
C3976 C3975 1.523 . S
H3977 C3952 0.950 . S
H3978 C3954 0.950 . S
H3979 C3955 0.949 . S
H3980 C3957 0.950 . S
H3981 C3959 0.950 1_554 S
C3982 C3983 1.349 . S
C3982 C3984 1.327 . S
C3982 H4007 0.950 . S
C3983 C3982 1.349 . S
C3983 C3999 1.349 . S
C3984 C3982 1.327 . S
C3984 C4003 1.429 . S
C3984 H4008 0.950 . S
C3985 C4002 1.574 . S
C3985 C4004 1.368 . S
C3985 H4009 0.949 . S
H3986 C3990 0.949 . S
C3987 C3988 1.349 . S
C3987 C3989 1.327 . S
C3987 H4010 0.950 . S
C3988 C3987 1.349 . S
C3988 C4000 1.349 . S
C3989 C3987 1.327 . S
C3989 C4005 1.429 . S
C3989 H4011 0.950 . S
C3990 H3986 0.949 . S
C3990 C3998 1.574 . S
C3990 C4006 1.368 . S
H3991 C3999 0.950 . S
H3992 C3997 0.950 . S
H3993 C3998 0.949 . S
H3994 C4000 0.950 . S
H3995 C4001 0.950 . S
H3996 C4002 0.949 . S
C3997 H3992 0.950 . S
C3997 C3999 1.327 . S
C3997 C4003 1.429 . S
C3998 C3990 1.574 . S
C3998 H3993 0.949 . S
C3998 C4004 1.368 . S
C3999 C3983 1.349 . S
C3999 H3991 0.950 . S
C3999 C3997 1.327 . S
C4000 C3988 1.349 . S
C4000 H3994 0.950 . S
C4000 C4001 1.327 . S
C4001 H3995 0.950 . S
C4001 C4000 1.327 . S
C4001 C4005 1.429 . S
C4002 C3985 1.574 . S
C4002 H3996 0.949 . S
C4002 C4006 1.368 . S
C4003 C3984 1.429 . S
C4003 C3997 1.429 . S
C4003 C4004 1.523 . S
C4004 C3985 1.368 . S
C4004 C3998 1.368 . S
C4004 C4003 1.523 . S
C4005 C3989 1.429 . S
C4005 C4001 1.429 . S
C4005 C4006 1.523 . S
C4006 C3990 1.368 . S
C4006 C4002 1.368 . S
C4006 C4005 1.523 . S
H4007 C3982 0.950 . S
H4008 C3984 0.950 . S
H4009 C3985 0.949 . S
H4010 C3987 0.950 . S
H4011 C3989 0.950 . S
C4012 C4013 1.349 . S
C4012 C4014 1.327 . S
C4012 H4037 0.950 . S
C4013 C4012 1.349 . S
C4013 C4029 1.349 . S
C4014 C4012 1.327 . S
C4014 C4033 1.429 . S
C4014 H4038 0.950 . S
C4015 C4032 1.574 . S
C4015 C4034 1.368 . S
C4015 H4039 0.949 . S
H4016 C4020 0.949 . S
C4017 C4018 1.349 . S
C4017 C4019 1.327 . S
C4017 H4040 0.950 . S
C4018 C4017 1.349 . S
C4018 C4030 1.349 . S
C4019 C4017 1.327 . S
C4019 C4035 1.429 . S
C4019 H4041 0.950 . S
C4020 H4016 0.949 . S
C4020 C4028 1.574 . S
C4020 C4036 1.368 . S
H4021 C4029 0.950 . S
H4022 C4027 0.950 . S
H4023 C4028 0.949 . S
H4024 C4030 0.950 . S
H4025 C4031 0.950 . S
H4026 C4032 0.949 . S
C4027 H4022 0.950 . S
C4027 C4029 1.327 . S
C4027 C4033 1.429 . S
C4028 C4020 1.574 . S
C4028 H4023 0.949 . S
C4028 C4034 1.368 . S
C4029 C4013 1.349 . S
C4029 H4021 0.950 . S
C4029 C4027 1.327 . S
C4030 C4018 1.349 . S
C4030 H4024 0.950 . S
C4030 C4031 1.327 . S
C4031 H4025 0.950 . S
C4031 C4030 1.327 . S
C4031 C4035 1.429 . S
C4032 C4015 1.574 . S
C4032 H4026 0.949 . S
C4032 C4036 1.368 . S
C4033 C4014 1.429 . S
C4033 C4027 1.429 . S
C4033 C4034 1.523 . S
C4034 C4015 1.368 . S
C4034 C4028 1.368 . S
C4034 C4033 1.523 . S
C4035 C4019 1.429 . S
C4035 C4031 1.429 . S
C4035 C4036 1.523 . S
C4036 C4020 1.368 . S
C4036 C4032 1.368 . S
C4036 C4035 1.523 . S
H4037 C4012 0.950 . S
H4038 C4014 0.950 . S
H4039 C4015 0.949 . S
H4040 C4017 0.950 . S
H4041 C4019 0.950 . S
C4042 C4043 1.349 . S
C4042 C4044 1.327 . S
C4042 H4067 0.950 . S
C4043 C4042 1.349 . S
C4043 C4059 1.349 . S
C4044 C4042 1.327 . S
C4044 C4063 1.429 . S
C4044 H4068 0.950 . S
C4045 C4062 1.574 . S
C4045 C4064 1.368 . S
C4045 H4069 0.949 . S
H4046 C4050 0.949 . S
C4047 C4048 1.349 . S
C4047 C4049 1.327 . S
C4047 H4070 0.950 . S
C4048 C4047 1.349 . S
C4048 C4060 1.349 . S
C4049 C4047 1.327 . S
C4049 C4065 1.429 . S
C4049 H4071 0.950 . S
C4050 H4046 0.949 . S
C4050 C4058 1.574 . S
C4050 C4066 1.368 . S
H4051 C4059 0.950 . S
H4052 C4057 0.950 . S
H4053 C4058 0.949 . S
H4054 C4060 0.950 . S
H4055 C4061 0.950 . S
H4056 C4062 0.949 . S
C4057 H4052 0.950 . S
C4057 C4059 1.327 . S
C4057 C4063 1.429 . S
C4058 C4050 1.574 . S
C4058 H4053 0.949 . S
C4058 C4064 1.368 . S
C4059 C4043 1.349 . S
C4059 H4051 0.950 . S
C4059 C4057 1.327 . S
C4060 C4048 1.349 . S
C4060 H4054 0.950 . S
C4060 C4061 1.327 . S
C4061 H4055 0.950 . S
C4061 C4060 1.327 . S
C4061 C4065 1.429 . S
C4062 C4045 1.574 . S
C4062 H4056 0.949 . S
C4062 C4066 1.368 . S
C4063 C4044 1.429 . S
C4063 C4057 1.429 . S
C4063 C4064 1.523 . S
C4064 C4045 1.368 . S
C4064 C4058 1.368 . S
C4064 C4063 1.523 . S
C4065 C4049 1.429 . S
C4065 C4061 1.429 . S
C4065 C4066 1.523 . S
C4066 C4050 1.368 . S
C4066 C4062 1.368 . S
C4066 C4065 1.523 . S
H4067 C4042 0.950 . S
H4068 C4044 0.950 . S
H4069 C4045 0.949 . S
H4070 C4047 0.950 . S
H4071 C4049 0.950 . S
C4072 C4073 1.349 . S
C4072 C4074 1.327 . S
C4072 H4097 0.950 . S
C4073 C4072 1.349 . S
C4073 C4089 1.349 . S
C4074 C4072 1.327 . S
C4074 C4093 1.429 . S
C4074 H4098 0.950 . S
C4075 C4092 1.574 . S
C4075 C4094 1.368 . S
C4075 H4099 0.949 . S
H4076 C4080 0.949 . S
C4077 C4078 1.349 . S
C4077 C4079 1.327 . S
C4077 H4100 0.950 . S
C4078 C4077 1.349 . S
C4078 C4090 1.349 . S
C4079 C4077 1.327 . S
C4079 C4095 1.429 . S
C4079 H4101 0.950 . S
C4080 H4076 0.949 . S
C4080 C4088 1.574 . S
C4080 C4096 1.368 . S
H4081 C4089 0.950 . S
H4082 C4087 0.950 . S
H4083 C4088 0.949 . S
H4084 C4090 0.950 . S
H4085 C4091 0.950 . S
H4086 C4092 0.949 . S
C4087 H4082 0.950 . S
C4087 C4089 1.327 . S
C4087 C4093 1.429 . S
C4088 C4080 1.574 . S
C4088 H4083 0.949 . S
C4088 C4094 1.368 . S
C4089 C4073 1.349 . S
C4089 H4081 0.950 . S
C4089 C4087 1.327 . S
C4090 C4078 1.349 . S
C4090 H4084 0.950 . S
C4090 C4091 1.327 . S
C4091 H4085 0.950 . S
C4091 C4090 1.327 . S
C4091 C4095 1.429 . S
C4092 C4075 1.574 . S
C4092 H4086 0.949 . S
C4092 C4096 1.368 . S
C4093 C4074 1.429 . S
C4093 C4087 1.429 . S
C4093 C4094 1.523 . S
C4094 C4075 1.368 . S
C4094 C4088 1.368 . S
C4094 C4093 1.523 . S
C4095 C4079 1.429 . S
C4095 C4091 1.429 . S
C4095 C4096 1.523 . S
C4096 C4080 1.368 . S
C4096 C4092 1.368 . S
C4096 C4095 1.523 . S
H4097 C4072 0.950 . S
H4098 C4074 0.950 . S
H4099 C4075 0.949 . S
H4100 C4077 0.950 . S
H4101 C4079 0.950 . S
C4102 C4103 1.349 . S
C4102 C4104 1.327 . S
C4102 H4127 0.950 . S
C4103 C4102 1.349 . S
C4103 C4119 1.349 . S
C4104 C4102 1.327 . S
C4104 C4123 1.429 . S
C4104 H4128 0.950 . S
C4105 C4122 1.574 . S
C4105 C4124 1.368 . S
C4105 H4129 0.949 . S
H4106 C4110 0.949 . S
C4107 C4108 1.349 . S
C4107 C4109 1.327 . S
C4107 H4130 0.950 1_565 S
C4108 C4107 1.349 . S
C4108 C4120 1.349 . S
C4109 C4107 1.327 . S
C4109 C4125 1.429 . S
C4109 H4131 0.950 . S
C4110 H4106 0.949 . S
C4110 C4118 1.574 . S
C4110 C4126 1.368 . S
H4111 C4119 0.950 . S
H4112 C4117 0.950 . S
H4113 C4118 0.949 . S
H4114 C4120 0.950 . S
H4115 C4121 0.950 . S
H4116 C4122 0.949 . S
C4117 H4112 0.950 . S
C4117 C4119 1.327 . S
C4117 C4123 1.429 . S
C4118 C4110 1.574 . S
C4118 H4113 0.949 . S
C4118 C4124 1.368 . S
C4119 C4103 1.349 . S
C4119 H4111 0.950 . S
C4119 C4117 1.327 . S
C4120 C4108 1.349 . S
C4120 H4114 0.950 . S
C4120 C4121 1.327 . S
C4121 H4115 0.950 . S
C4121 C4120 1.327 . S
C4121 C4125 1.429 . S
C4122 C4105 1.574 . S
C4122 H4116 0.949 . S
C4122 C4126 1.368 . S
C4123 C4104 1.429 . S
C4123 C4117 1.429 . S
C4123 C4124 1.523 . S
C4124 C4105 1.368 . S
C4124 C4118 1.368 . S
C4124 C4123 1.523 . S
C4125 C4109 1.429 . S
C4125 C4121 1.429 . S
C4125 C4126 1.523 . S
C4126 C4110 1.368 . S
C4126 C4122 1.368 . S
C4126 C4125 1.523 . S
H4127 C4102 0.950 . S
H4128 C4104 0.950 . S
H4129 C4105 0.949 . S
H4130 C4107 0.950 1_545 S
H4131 C4109 0.950 . S
C4132 C4133 1.349 . S
C4132 C4134 1.327 . S
C4132 H4157 0.950 . S
C4133 C4132 1.349 . S
C4133 C4149 1.349 . S
C4134 C4132 1.327 . S
C4134 C4153 1.429 . S
C4134 H4158 0.950 . S
C4135 C4152 1.574 . S
C4135 C4154 1.368 . S
C4135 H4159 0.949 . S
H4136 C4140 0.949 . S
C4137 C4138 1.349 . S
C4137 C4139 1.327 . S
C4137 H4160 0.950 . S
C4138 C4137 1.349 . S
C4138 C4150 1.349 . S
C4139 C4137 1.327 . S
C4139 C4155 1.429 . S
C4139 H4161 0.950 . S
C4140 H4136 0.949 . S
C4140 C4148 1.574 . S
C4140 C4156 1.368 . S
H4141 C4149 0.950 . S
H4142 C4147 0.950 . S
H4143 C4148 0.949 . S
H4144 C4150 0.950 . S
H4145 C4151 0.950 . S
H4146 C4152 0.949 . S
C4147 H4142 0.950 . S
C4147 C4149 1.327 . S
C4147 C4153 1.429 . S
C4148 C4140 1.574 . S
C4148 H4143 0.949 . S
C4148 C4154 1.368 . S
C4149 C4133 1.349 . S
C4149 H4141 0.950 . S
C4149 C4147 1.327 . S
C4150 C4138 1.349 . S
C4150 H4144 0.950 . S
C4150 C4151 1.327 . S
C4151 H4145 0.950 . S
C4151 C4150 1.327 . S
C4151 C4155 1.429 . S
C4152 C4135 1.574 . S
C4152 H4146 0.949 . S
C4152 C4156 1.368 . S
C4153 C4134 1.429 . S
C4153 C4147 1.429 . S
C4153 C4154 1.523 . S
C4154 C4135 1.368 . S
C4154 C4148 1.368 . S
C4154 C4153 1.523 . S
C4155 C4139 1.429 . S
C4155 C4151 1.429 . S
C4155 C4156 1.523 . S
C4156 C4140 1.368 . S
C4156 C4152 1.368 . S
C4156 C4155 1.523 . S
H4157 C4132 0.950 . S
H4158 C4134 0.950 . S
H4159 C4135 0.949 . S
H4160 C4137 0.950 . S
H4161 C4139 0.950 . S
C4162 C4163 1.349 . S
C4162 C4164 1.327 . S
C4162 H4187 0.950 . S
C4163 C4162 1.349 . S
C4163 C4179 1.349 . S
C4164 C4162 1.327 . S
C4164 C4183 1.429 . S
C4164 H4188 0.950 . S
C4165 C4182 1.574 . S
C4165 C4184 1.368 . S
C4165 H4189 0.949 . S
H4166 C4170 0.949 . S
C4167 C4168 1.349 . S
C4167 C4169 1.327 . S
C4167 H4190 0.950 . S
C4168 C4167 1.349 . S
C4168 C4180 1.349 . S
C4169 C4167 1.327 . S
C4169 C4185 1.429 . S
C4169 H4191 0.950 . S
C4170 H4166 0.949 . S
C4170 C4178 1.574 . S
C4170 C4186 1.368 . S
H4171 C4179 0.950 . S
H4172 C4177 0.950 . S
H4173 C4178 0.949 . S
H4174 C4180 0.950 . S
H4175 C4181 0.950 . S
H4176 C4182 0.949 . S
C4177 H4172 0.950 . S
C4177 C4179 1.327 . S
C4177 C4183 1.429 . S
C4178 C4170 1.574 . S
C4178 H4173 0.949 . S
C4178 C4184 1.368 . S
C4179 C4163 1.349 . S
C4179 H4171 0.950 . S
C4179 C4177 1.327 . S
C4180 C4168 1.349 . S
C4180 H4174 0.950 . S
C4180 C4181 1.327 . S
C4181 H4175 0.950 . S
C4181 C4180 1.327 . S
C4181 C4185 1.429 . S
C4182 C4165 1.574 . S
C4182 H4176 0.949 . S
C4182 C4186 1.368 . S
C4183 C4164 1.429 . S
C4183 C4177 1.429 . S
C4183 C4184 1.523 . S
C4184 C4165 1.368 . S
C4184 C4178 1.368 . S
C4184 C4183 1.523 . S
C4185 C4169 1.429 . S
C4185 C4181 1.429 . S
C4185 C4186 1.523 . S
C4186 C4170 1.368 . S
C4186 C4182 1.368 . S
C4186 C4185 1.523 . S
H4187 C4162 0.950 . S
H4188 C4164 0.950 . S
H4189 C4165 0.949 . S
H4190 C4167 0.950 . S
H4191 C4169 0.950 . S
C4192 C4193 1.349 . S
C4192 C4194 1.327 . S
C4192 H4217 0.950 . S
C4193 C4192 1.349 . S
C4193 C4209 1.349 . S
C4194 C4192 1.327 . S
C4194 C4213 1.429 . S
C4194 H4218 0.950 . S
C4195 C4212 1.574 . S
C4195 C4214 1.368 . S
C4195 H4219 0.949 . S
H4196 C4200 0.949 . S
C4197 C4198 1.349 . S
C4197 C4199 1.327 . S
C4197 H4220 0.950 . S
C4198 C4197 1.349 . S
C4198 C4210 1.349 . S
C4199 C4197 1.327 . S
C4199 C4215 1.429 . S
C4199 H4221 0.950 . S
C4200 H4196 0.949 . S
C4200 C4208 1.574 . S
C4200 C4216 1.368 . S
H4201 C4209 0.950 . S
H4202 C4207 0.950 . S
H4203 C4208 0.949 . S
H4204 C4210 0.950 . S
H4205 C4211 0.950 . S
H4206 C4212 0.949 . S
C4207 H4202 0.950 . S
C4207 C4209 1.327 . S
C4207 C4213 1.429 . S
C4208 C4200 1.574 . S
C4208 H4203 0.949 . S
C4208 C4214 1.368 . S
C4209 C4193 1.349 . S
C4209 H4201 0.950 . S
C4209 C4207 1.327 . S
C4210 C4198 1.349 . S
C4210 H4204 0.950 . S
C4210 C4211 1.327 . S
C4211 H4205 0.950 . S
C4211 C4210 1.327 . S
C4211 C4215 1.429 . S
C4212 C4195 1.574 . S
C4212 H4206 0.949 . S
C4212 C4216 1.368 . S
C4213 C4194 1.429 . S
C4213 C4207 1.429 . S
C4213 C4214 1.523 . S
C4214 C4195 1.368 . S
C4214 C4208 1.368 . S
C4214 C4213 1.523 . S
C4215 C4199 1.429 . S
C4215 C4211 1.429 . S
C4215 C4216 1.523 . S
C4216 C4200 1.368 . S
C4216 C4212 1.368 . S
C4216 C4215 1.523 . S
H4217 C4192 0.950 . S
H4218 C4194 0.950 . S
H4219 C4195 0.949 . S
H4220 C4197 0.950 . S
H4221 C4199 0.950 . S
C4222 C4223 1.349 . S
C4222 C4224 1.327 . S
C4222 H4247 0.950 . S
C4223 C4222 1.349 . S
C4223 C4239 1.349 . S
C4224 C4222 1.327 . S
C4224 C4243 1.429 . S
C4224 H4248 0.950 . S
C4225 C4242 1.574 . S
C4225 C4244 1.368 . S
C4225 H4249 0.949 . S
H4226 C4230 0.949 . S
C4227 C4228 1.349 . S
C4227 C4229 1.327 . S
C4227 H4250 0.950 . S
C4228 C4227 1.349 . S
C4228 C4240 1.349 . S
C4229 C4227 1.327 . S
C4229 C4245 1.429 . S
C4229 H4251 0.950 . S
C4230 H4226 0.949 . S
C4230 C4238 1.574 . S
C4230 C4246 1.368 . S
H4231 C4239 0.950 . S
H4232 C4237 0.950 . S
H4233 C4238 0.949 . S
H4234 C4240 0.950 . S
H4235 C4241 0.950 . S
H4236 C4242 0.949 . S
C4237 H4232 0.950 . S
C4237 C4239 1.327 . S
C4237 C4243 1.429 . S
C4238 C4230 1.574 . S
C4238 H4233 0.949 . S
C4238 C4244 1.368 . S
C4239 C4223 1.349 . S
C4239 H4231 0.950 . S
C4239 C4237 1.327 . S
C4240 C4228 1.349 . S
C4240 H4234 0.950 . S
C4240 C4241 1.327 . S
C4241 H4235 0.950 . S
C4241 C4240 1.327 . S
C4241 C4245 1.429 . S
C4242 C4225 1.574 . S
C4242 H4236 0.949 . S
C4242 C4246 1.368 . S
C4243 C4224 1.429 . S
C4243 C4237 1.429 . S
C4243 C4244 1.523 . S
C4244 C4225 1.368 . S
C4244 C4238 1.368 . S
C4244 C4243 1.523 . S
C4245 C4229 1.429 . S
C4245 C4241 1.429 . S
C4245 C4246 1.523 . S
C4246 C4230 1.368 . S
C4246 C4242 1.368 . S
C4246 C4245 1.523 . S
H4247 C4222 0.950 . S
H4248 C4224 0.950 . S
H4249 C4225 0.949 . S
H4250 C4227 0.950 . S
H4251 C4229 0.950 . S
C4252 C4253 1.349 . S
C4252 C4254 1.327 . S
C4252 H4277 0.950 1_455 S
C4253 C4252 1.349 . S
C4253 C4269 1.349 . S
C4254 C4252 1.327 . S
C4254 C4273 1.429 . S
C4254 H4278 0.950 1_455 S
C4255 C4272 1.574 . S
C4255 C4274 1.368 . S
C4255 H4279 0.949 . S
H4256 C4260 0.949 . S
C4257 C4258 1.349 . S
C4257 C4259 1.327 . S
C4257 H4280 0.950 1_556 S
C4258 C4257 1.349 . S
C4258 C4270 1.349 . S
C4259 C4257 1.327 . S
C4259 C4275 1.429 . S
C4259 H4281 0.950 . S
C4260 H4256 0.949 . S
C4260 C4268 1.574 . S
C4260 C4276 1.368 . S
H4261 C4269 0.950 . S
H4262 C4267 0.950 . S
H4263 C4268 0.937 1_655 S
H4264 C4270 0.950 . S
H4265 C4271 0.950 . S
H4266 C4272 0.949 . S
C4267 H4262 0.950 . S
C4267 C4269 1.327 . S
C4267 C4273 1.429 . S
C4268 C4260 1.574 . S
C4268 H4263 0.937 1_455 S
C4268 C4274 1.368 . S
C4269 C4253 1.349 . S
C4269 H4261 0.950 . S
C4269 C4267 1.327 . S
C4270 C4258 1.349 . S
C4270 H4264 0.950 . S
C4270 C4271 1.327 . S
C4271 H4265 0.950 . S
C4271 C4270 1.327 . S
C4271 C4275 1.429 . S
C4272 C4255 1.574 . S
C4272 H4266 0.949 . S
C4272 C4276 1.368 . S
C4273 C4254 1.429 . S
C4273 C4267 1.429 . S
C4273 C4274 1.523 . S
C4274 C4255 1.368 . S
C4274 C4268 1.368 . S
C4274 C4273 1.523 . S
C4275 C4259 1.429 . S
C4275 C4271 1.429 . S
C4275 C4276 1.523 . S
C4276 C4260 1.368 . S
C4276 C4272 1.368 . S
C4276 C4275 1.523 . S
H4277 C4252 0.950 1_655 S
H4278 C4254 0.950 1_655 S
H4279 C4255 0.949 . S
H4280 C4257 0.950 1_554 S
H4281 C4259 0.950 . S
C4282 C4283 1.349 . S
C4282 C4284 1.327 . S
C4282 H4307 0.950 . S
C4283 C4282 1.349 . S
C4283 C4299 1.349 . S
C4284 C4282 1.327 . S
C4284 C4303 1.429 . S
C4284 H4308 0.950 . S
C4285 C4302 1.574 . S
C4285 C4304 1.368 . S
C4285 H4309 0.949 . S
H4286 C4290 0.949 . S
C4287 C4288 1.349 . S
C4287 C4289 1.327 . S
C4287 H4310 0.950 . S
C4288 C4287 1.349 . S
C4288 C4300 1.349 . S
C4289 C4287 1.327 . S
C4289 C4305 1.429 . S
C4289 H4311 0.950 . S
C4290 H4286 0.949 . S
C4290 C4298 1.574 . S
C4290 C4306 1.368 . S
H4291 C4299 0.950 . S
H4292 C4297 0.950 . S
H4293 C4298 0.949 . S
H4294 C4300 0.950 . S
H4295 C4301 0.950 . S
H4296 C4302 0.949 . S
C4297 H4292 0.950 . S
C4297 C4299 1.327 . S
C4297 C4303 1.429 . S
C4298 C4290 1.574 . S
C4298 H4293 0.949 . S
C4298 C4304 1.368 . S
C4299 C4283 1.349 . S
C4299 H4291 0.950 . S
C4299 C4297 1.327 . S
C4300 C4288 1.349 . S
C4300 H4294 0.950 . S
C4300 C4301 1.327 . S
C4301 H4295 0.950 . S
C4301 C4300 1.327 . S
C4301 C4305 1.429 . S
C4302 C4285 1.574 . S
C4302 H4296 0.949 . S
C4302 C4306 1.368 . S
C4303 C4284 1.429 . S
C4303 C4297 1.429 . S
C4303 C4304 1.523 . S
C4304 C4285 1.368 . S
C4304 C4298 1.368 . S
C4304 C4303 1.523 . S
C4305 C4289 1.429 . S
C4305 C4301 1.429 . S
C4305 C4306 1.523 . S
C4306 C4290 1.368 . S
C4306 C4302 1.368 . S
C4306 C4305 1.523 . S
H4307 C4282 0.950 . S
H4308 C4284 0.950 . S
H4309 C4285 0.949 . S
H4310 C4287 0.950 . S
H4311 C4289 0.950 . S
C4312 C4313 1.349 . S
C4312 C4314 1.327 . S
C4312 H4337 0.950 . S
C4313 C4312 1.349 . S
C4313 C4329 1.349 . S
C4314 C4312 1.327 . S
C4314 C4333 1.429 . S
C4314 H4338 0.950 . S
C4315 C4332 1.574 . S
C4315 C4334 1.368 . S
C4315 H4339 0.949 . S
H4316 C4320 0.949 . S
C4317 C4318 1.349 . S
C4317 C4319 1.327 . S
C4317 H4340 0.950 . S
C4318 C4317 1.349 . S
C4318 C4330 1.349 . S
C4319 C4317 1.327 . S
C4319 C4335 1.429 . S
C4319 H4341 0.950 . S
C4320 H4316 0.949 . S
C4320 C4328 1.574 . S
C4320 C4336 1.368 . S
H4321 C4329 0.950 . S
H4322 C4327 0.950 . S
H4323 C4328 0.949 . S
H4324 C4330 0.950 . S
H4325 C4331 0.950 . S
H4326 C4332 0.949 . S
C4327 H4322 0.950 . S
C4327 C4329 1.327 . S
C4327 C4333 1.429 . S
C4328 C4320 1.574 . S
C4328 H4323 0.949 . S
C4328 C4334 1.368 . S
C4329 C4313 1.349 . S
C4329 H4321 0.950 . S
C4329 C4327 1.327 . S
C4330 C4318 1.349 . S
C4330 H4324 0.950 . S
C4330 C4331 1.327 . S
C4331 H4325 0.950 . S
C4331 C4330 1.327 . S
C4331 C4335 1.429 . S
C4332 C4315 1.574 . S
C4332 H4326 0.949 . S
C4332 C4336 1.368 . S
C4333 C4314 1.429 . S
C4333 C4327 1.429 . S
C4333 C4334 1.523 . S
C4334 C4315 1.368 . S
C4334 C4328 1.368 . S
C4334 C4333 1.523 . S
C4335 C4319 1.429 . S
C4335 C4331 1.429 . S
C4335 C4336 1.523 . S
C4336 C4320 1.368 . S
C4336 C4332 1.368 . S
C4336 C4335 1.523 . S
H4337 C4312 0.950 . S
H4338 C4314 0.950 . S
H4339 C4315 0.949 . S
H4340 C4317 0.950 . S
H4341 C4319 0.950 . S
C4342 C4343 1.349 . S
C4342 C4344 1.327 . S
C4342 H4367 0.950 . S
C4343 C4342 1.349 . S
C4343 C4359 1.349 . S
C4344 C4342 1.327 . S
C4344 C4363 1.429 . S
C4344 H4368 0.950 . S
C4345 C4362 1.574 . S
C4345 C4364 1.368 . S
C4345 H4369 0.949 . S
H4346 C4350 0.949 . S
C4347 C4348 1.349 . S
C4347 C4349 1.327 . S
C4347 H4370 0.950 . S
C4348 C4347 1.349 . S
C4348 C4360 1.349 . S
C4349 C4347 1.327 . S
C4349 C4365 1.429 . S
C4349 H4371 0.950 . S
C4350 H4346 0.949 . S
C4350 C4358 1.574 . S
C4350 C4366 1.368 . S
H4351 C4359 0.950 . S
H4352 C4357 0.950 . S
H4353 C4358 0.949 . S
H4354 C4360 0.950 . S
H4355 C4361 0.950 . S
H4356 C4362 0.949 . S
C4357 H4352 0.950 . S
C4357 C4359 1.327 . S
C4357 C4363 1.429 . S
C4358 C4350 1.574 . S
C4358 H4353 0.949 . S
C4358 C4364 1.368 . S
C4359 C4343 1.349 . S
C4359 H4351 0.950 . S
C4359 C4357 1.327 . S
C4360 C4348 1.349 . S
C4360 H4354 0.950 . S
C4360 C4361 1.327 . S
C4361 H4355 0.950 . S
C4361 C4360 1.327 . S
C4361 C4365 1.429 . S
C4362 C4345 1.574 . S
C4362 H4356 0.949 . S
C4362 C4366 1.368 . S
C4363 C4344 1.429 . S
C4363 C4357 1.429 . S
C4363 C4364 1.523 . S
C4364 C4345 1.368 . S
C4364 C4358 1.368 . S
C4364 C4363 1.523 . S
C4365 C4349 1.429 . S
C4365 C4361 1.429 . S
C4365 C4366 1.523 . S
C4366 C4350 1.368 . S
C4366 C4362 1.368 . S
C4366 C4365 1.523 . S
H4367 C4342 0.950 . S
H4368 C4344 0.950 . S
H4369 C4345 0.949 . S
H4370 C4347 0.950 . S
H4371 C4349 0.950 . S
C4372 C4373 1.349 . S
C4372 C4374 1.327 . S
C4372 H4397 0.950 . S
C4373 C4372 1.349 . S
C4373 C4389 1.349 . S
C4374 C4372 1.327 . S
C4374 C4393 1.429 . S
C4374 H4398 0.950 . S
C4375 C4392 1.574 . S
C4375 C4394 1.368 . S
C4375 H4399 0.949 . S
H4376 C4380 0.949 . S
C4377 C4378 1.349 . S
C4377 C4379 1.327 . S
C4377 H4400 0.950 . S
C4378 C4377 1.349 . S
C4378 C4390 1.349 . S
C4379 C4377 1.327 . S
C4379 C4395 1.429 . S
C4379 H4401 0.950 . S
C4380 H4376 0.949 . S
C4380 C4388 1.574 . S
C4380 C4396 1.368 . S
H4381 C4389 0.950 . S
H4382 C4387 0.950 . S
H4383 C4388 0.949 . S
H4384 C4390 0.950 . S
H4385 C4391 0.950 . S
H4386 C4392 0.949 . S
C4387 H4382 0.950 . S
C4387 C4389 1.327 . S
C4387 C4393 1.429 . S
C4388 C4380 1.574 . S
C4388 H4383 0.949 . S
C4388 C4394 1.368 . S
C4389 C4373 1.349 . S
C4389 H4381 0.950 . S
C4389 C4387 1.327 . S
C4390 C4378 1.349 . S
C4390 H4384 0.950 . S
C4390 C4391 1.327 . S
C4391 H4385 0.950 . S
C4391 C4390 1.327 . S
C4391 C4395 1.429 . S
C4392 C4375 1.574 . S
C4392 H4386 0.949 . S
C4392 C4396 1.368 . S
C4393 C4374 1.429 . S
C4393 C4387 1.429 . S
C4393 C4394 1.523 . S
C4394 C4375 1.368 . S
C4394 C4388 1.368 . S
C4394 C4393 1.523 . S
C4395 C4379 1.429 . S
C4395 C4391 1.429 . S
C4395 C4396 1.523 . S
C4396 C4380 1.368 . S
C4396 C4392 1.368 . S
C4396 C4395 1.523 . S
H4397 C4372 0.950 . S
H4398 C4374 0.950 . S
H4399 C4375 0.949 . S
H4400 C4377 0.950 . S
H4401 C4379 0.950 . S
C4402 C4403 1.349 . S
C4402 C4404 1.327 . S
C4402 H4427 0.950 . S
C4403 C4402 1.349 . S
C4403 C4419 1.349 . S
C4404 C4402 1.327 . S
C4404 C4423 1.429 . S
C4404 H4428 0.950 . S
C4405 C4422 1.574 . S
C4405 C4424 1.368 . S
C4405 H4429 0.949 . S
H4406 C4410 0.949 . S
C4407 C4408 1.349 . S
C4407 C4409 1.327 . S
C4407 H4430 0.950 . S
C4408 C4407 1.349 . S
C4408 C4420 1.349 . S
C4409 C4407 1.327 . S
C4409 C4425 1.429 . S
C4409 H4431 0.950 . S
C4410 H4406 0.949 . S
C4410 C4418 1.574 . S
C4410 C4426 1.368 . S
H4411 C4419 0.950 . S
H4412 C4417 0.950 . S
H4413 C4418 0.949 . S
H4414 C4420 0.950 . S
H4415 C4421 0.950 . S
H4416 C4422 0.949 . S
C4417 H4412 0.950 . S
C4417 C4419 1.327 . S
C4417 C4423 1.429 . S
C4418 C4410 1.574 . S
C4418 H4413 0.949 . S
C4418 C4424 1.368 . S
C4419 C4403 1.349 . S
C4419 H4411 0.950 . S
C4419 C4417 1.327 . S
C4420 C4408 1.349 . S
C4420 H4414 0.950 . S
C4420 C4421 1.327 . S
C4421 H4415 0.950 . S
C4421 C4420 1.327 . S
C4421 C4425 1.429 . S
C4422 C4405 1.574 . S
C4422 H4416 0.949 . S
C4422 C4426 1.368 . S
C4423 C4404 1.429 . S
C4423 C4417 1.429 . S
C4423 C4424 1.523 . S
C4424 C4405 1.368 . S
C4424 C4418 1.368 . S
C4424 C4423 1.523 . S
C4425 C4409 1.429 . S
C4425 C4421 1.429 . S
C4425 C4426 1.523 . S
C4426 C4410 1.368 . S
C4426 C4422 1.368 . S
C4426 C4425 1.523 . S
H4427 C4402 0.950 . S
H4428 C4404 0.950 . S
H4429 C4405 0.949 . S
H4430 C4407 0.950 . S
H4431 C4409 0.950 . S
C4432 C4433 1.349 . S
C4432 C4434 1.327 . S
C4432 H4457 0.950 . S
C4433 C4432 1.349 . S
C4433 C4449 1.349 . S
C4434 C4432 1.327 . S
C4434 C4453 1.429 . S
C4434 H4458 0.950 . S
C4435 C4452 1.574 . S
C4435 C4454 1.368 . S
C4435 H4459 0.949 . S
H4436 C4440 0.949 . S
C4437 C4438 1.349 . S
C4437 C4439 1.327 . S
C4437 H4460 0.950 . S
C4438 C4437 1.349 . S
C4438 C4450 1.349 . S
C4439 C4437 1.327 . S
C4439 C4455 1.429 . S
C4439 H4461 0.950 . S
C4440 H4436 0.949 . S
C4440 C4448 1.574 . S
C4440 C4456 1.368 . S
H4441 C4449 0.950 . S
H4442 C4447 0.950 . S
H4443 C4448 0.949 . S
H4444 C4450 0.950 . S
H4445 C4451 0.950 . S
H4446 C4452 0.949 . S
C4447 H4442 0.950 . S
C4447 C4449 1.327 . S
C4447 C4453 1.429 . S
C4448 C4440 1.574 . S
C4448 H4443 0.949 . S
C4448 C4454 1.368 . S
C4449 C4433 1.349 . S
C4449 H4441 0.950 . S
C4449 C4447 1.327 . S
C4450 C4438 1.349 . S
C4450 H4444 0.950 . S
C4450 C4451 1.327 . S
C4451 H4445 0.950 . S
C4451 C4450 1.327 . S
C4451 C4455 1.429 . S
C4452 C4435 1.574 . S
C4452 H4446 0.949 . S
C4452 C4456 1.368 . S
C4453 C4434 1.429 . S
C4453 C4447 1.429 . S
C4453 C4454 1.523 . S
C4454 C4435 1.368 . S
C4454 C4448 1.368 . S
C4454 C4453 1.523 . S
C4455 C4439 1.429 . S
C4455 C4451 1.429 . S
C4455 C4456 1.523 . S
C4456 C4440 1.368 . S
C4456 C4452 1.368 . S
C4456 C4455 1.523 . S
H4457 C4432 0.950 . S
H4458 C4434 0.950 . S
H4459 C4435 0.949 . S
H4460 C4437 0.950 . S
H4461 C4439 0.950 . S
C4462 C4463 1.349 . S
C4462 C4464 1.327 . S
C4462 H4487 0.950 . S
C4463 C4462 1.349 . S
C4463 C4479 1.349 . S
C4464 C4462 1.327 . S
C4464 C4483 1.429 . S
C4464 H4488 0.950 . S
C4465 C4482 1.574 . S
C4465 C4484 1.368 . S
C4465 H4489 0.949 . S
H4466 C4470 0.949 . S
C4467 C4468 1.349 . S
C4467 C4469 1.327 . S
C4467 H4490 0.950 . S
C4468 C4467 1.349 . S
C4468 C4480 1.349 . S
C4469 C4467 1.327 . S
C4469 C4485 1.429 . S
C4469 H4491 0.950 . S
C4470 H4466 0.949 . S
C4470 C4478 1.574 . S
C4470 C4486 1.368 . S
H4471 C4479 0.950 . S
H4472 C4477 0.950 . S
H4473 C4478 0.949 . S
H4474 C4480 0.950 . S
H4475 C4481 0.950 . S
H4476 C4482 0.949 . S
C4477 H4472 0.950 . S
C4477 C4479 1.327 . S
C4477 C4483 1.429 . S
C4478 C4470 1.574 . S
C4478 H4473 0.949 . S
C4478 C4484 1.368 . S
C4479 C4463 1.349 . S
C4479 H4471 0.950 . S
C4479 C4477 1.327 . S
C4480 C4468 1.349 . S
C4480 H4474 0.950 . S
C4480 C4481 1.327 . S
C4481 H4475 0.950 . S
C4481 C4480 1.327 . S
C4481 C4485 1.429 . S
C4482 C4465 1.574 . S
C4482 H4476 0.949 . S
C4482 C4486 1.368 . S
C4483 C4464 1.429 . S
C4483 C4477 1.429 . S
C4483 C4484 1.523 . S
C4484 C4465 1.368 . S
C4484 C4478 1.368 . S
C4484 C4483 1.523 . S
C4485 C4469 1.429 . S
C4485 C4481 1.429 . S
C4485 C4486 1.523 . S
C4486 C4470 1.368 . S
C4486 C4482 1.368 . S
C4486 C4485 1.523 . S
H4487 C4462 0.950 . S
H4488 C4464 0.950 . S
H4489 C4465 0.949 . S
H4490 C4467 0.950 . S
H4491 C4469 0.950 . S
C4492 C4493 1.349 . S
C4492 C4494 1.327 . S
C4492 H4517 0.950 . S
C4493 C4492 1.349 . S
C4493 C4509 1.349 . S
C4494 C4492 1.327 . S
C4494 C4513 1.429 . S
C4494 H4518 0.950 . S
C4495 C4512 1.574 . S
C4495 C4514 1.368 . S
C4495 H4519 0.949 . S
H4496 C4500 0.949 . S
C4497 C4498 1.349 . S
C4497 C4499 1.327 . S
C4497 H4520 0.950 . S
C4498 C4497 1.349 . S
C4498 C4510 1.349 . S
C4499 C4497 1.327 . S
C4499 C4515 1.429 . S
C4499 H4521 0.950 . S
C4500 H4496 0.949 . S
C4500 C4508 1.574 . S
C4500 C4516 1.368 . S
H4501 C4509 0.950 . S
H4502 C4507 0.950 . S
H4503 C4508 0.949 . S
H4504 C4510 0.950 . S
H4505 C4511 0.950 . S
H4506 C4512 0.949 . S
C4507 H4502 0.950 . S
C4507 C4509 1.327 . S
C4507 C4513 1.429 . S
C4508 C4500 1.574 . S
C4508 H4503 0.949 . S
C4508 C4514 1.368 . S
C4509 C4493 1.349 . S
C4509 H4501 0.950 . S
C4509 C4507 1.327 . S
C4510 C4498 1.349 . S
C4510 H4504 0.950 . S
C4510 C4511 1.327 . S
C4511 H4505 0.950 . S
C4511 C4510 1.327 . S
C4511 C4515 1.429 . S
C4512 C4495 1.574 . S
C4512 H4506 0.949 . S
C4512 C4516 1.368 . S
C4513 C4494 1.429 . S
C4513 C4507 1.429 . S
C4513 C4514 1.523 . S
C4514 C4495 1.368 . S
C4514 C4508 1.368 . S
C4514 C4513 1.523 . S
C4515 C4499 1.429 . S
C4515 C4511 1.429 . S
C4515 C4516 1.523 . S
C4516 C4500 1.368 . S
C4516 C4512 1.368 . S
C4516 C4515 1.523 . S
H4517 C4492 0.950 . S
H4518 C4494 0.950 . S
H4519 C4495 0.949 . S
H4520 C4497 0.950 . S
H4521 C4499 0.950 . S
C4522 C4523 1.349 . S
C4522 C4524 1.327 . S
C4522 H4547 0.950 . S
C4523 C4522 1.349 . S
C4523 C4539 1.349 . S
C4524 C4522 1.327 . S
C4524 C4543 1.429 . S
C4524 H4548 0.950 . S
C4525 C4542 1.574 . S
C4525 C4544 1.368 . S
C4525 H4549 0.949 . S
H4526 C4530 0.949 . S
C4527 C4528 1.349 . S
C4527 C4529 1.327 . S
C4527 H4550 0.950 . S
C4528 C4527 1.349 . S
C4528 C4540 1.349 . S
C4529 C4527 1.327 . S
C4529 C4545 1.429 . S
C4529 H4551 0.950 . S
C4530 H4526 0.949 . S
C4530 C4538 1.574 . S
C4530 C4546 1.368 . S
H4531 C4539 0.950 . S
H4532 C4537 0.950 . S
H4533 C4538 0.949 . S
H4534 C4540 0.950 . S
H4535 C4541 0.950 . S
H4536 C4542 0.949 . S
C4537 H4532 0.950 . S
C4537 C4539 1.327 . S
C4537 C4543 1.429 . S
C4538 C4530 1.574 . S
C4538 H4533 0.949 . S
C4538 C4544 1.368 . S
C4539 C4523 1.349 . S
C4539 H4531 0.950 . S
C4539 C4537 1.327 . S
C4540 C4528 1.349 . S
C4540 H4534 0.950 . S
C4540 C4541 1.327 . S
C4541 H4535 0.950 . S
C4541 C4540 1.327 . S
C4541 C4545 1.429 . S
C4542 C4525 1.574 . S
C4542 H4536 0.949 . S
C4542 C4546 1.368 . S
C4543 C4524 1.429 . S
C4543 C4537 1.429 . S
C4543 C4544 1.523 . S
C4544 C4525 1.368 . S
C4544 C4538 1.368 . S
C4544 C4543 1.523 . S
C4545 C4529 1.429 . S
C4545 C4541 1.429 . S
C4545 C4546 1.523 . S
C4546 C4530 1.368 . S
C4546 C4542 1.368 . S
C4546 C4545 1.523 . S
H4547 C4522 0.950 . S
H4548 C4524 0.950 . S
H4549 C4525 0.949 . S
H4550 C4527 0.950 . S
H4551 C4529 0.950 . S
C4552 C4553 1.349 . S
C4552 C4554 1.327 . S
C4552 H4577 0.950 . S
C4553 C4552 1.349 . S
C4553 C4569 1.349 . S
C4554 C4552 1.327 . S
C4554 C4573 1.429 . S
C4554 H4578 0.950 . S
C4555 C4572 1.574 . S
C4555 C4574 1.368 . S
C4555 H4579 0.949 . S
H4556 C4560 0.949 . S
C4557 C4558 1.349 . S
C4557 C4559 1.327 . S
C4557 H4580 0.950 . S
C4558 C4557 1.349 . S
C4558 C4570 1.349 . S
C4559 C4557 1.327 . S
C4559 C4575 1.429 . S
C4559 H4581 0.950 . S
C4560 H4556 0.949 . S
C4560 C4568 1.574 . S
C4560 C4576 1.368 . S
H4561 C4569 0.950 . S
H4562 C4567 0.950 . S
H4563 C4568 0.949 . S
H4564 C4570 0.950 . S
H4565 C4571 0.950 . S
H4566 C4572 0.949 . S
C4567 H4562 0.950 . S
C4567 C4569 1.327 . S
C4567 C4573 1.429 . S
C4568 C4560 1.574 . S
C4568 H4563 0.949 . S
C4568 C4574 1.368 . S
C4569 C4553 1.349 . S
C4569 H4561 0.950 . S
C4569 C4567 1.327 . S
C4570 C4558 1.349 . S
C4570 H4564 0.950 . S
C4570 C4571 1.327 . S
C4571 H4565 0.950 . S
C4571 C4570 1.327 . S
C4571 C4575 1.429 . S
C4572 C4555 1.574 . S
C4572 H4566 0.949 . S
C4572 C4576 1.368 . S
C4573 C4554 1.429 . S
C4573 C4567 1.429 . S
C4573 C4574 1.523 . S
C4574 C4555 1.368 . S
C4574 C4568 1.368 . S
C4574 C4573 1.523 . S
C4575 C4559 1.429 . S
C4575 C4571 1.429 . S
C4575 C4576 1.523 . S
C4576 C4560 1.368 . S
C4576 C4572 1.368 . S
C4576 C4575 1.523 . S
H4577 C4552 0.950 . S
H4578 C4554 0.950 . S
H4579 C4555 0.949 . S
H4580 C4557 0.950 . S
H4581 C4559 0.950 . S
C4582 C4583 1.349 . S
C4582 C4584 1.327 . S
C4582 H4607 0.950 . S
C4583 C4582 1.349 . S
C4583 C4599 1.349 . S
C4584 C4582 1.327 . S
C4584 C4603 1.429 . S
C4584 H4608 0.950 . S
C4585 C4602 1.574 . S
C4585 C4604 1.368 . S
C4585 H4609 0.949 . S
H4586 C4590 0.949 . S
C4587 C4588 1.349 . S
C4587 C4589 1.327 . S
C4587 H4610 0.950 . S
C4588 C4587 1.349 . S
C4588 C4600 1.349 . S
C4589 C4587 1.327 . S
C4589 C4605 1.429 . S
C4589 H4611 0.950 . S
C4590 H4586 0.949 . S
C4590 C4598 1.574 . S
C4590 C4606 1.368 . S
H4591 C4599 0.950 . S
H4592 C4597 0.950 . S
H4593 C4598 0.949 . S
H4594 C4600 0.950 . S
H4595 C4601 0.950 . S
H4596 C4602 0.949 . S
C4597 H4592 0.950 . S
C4597 C4599 1.327 . S
C4597 C4603 1.429 . S
C4598 C4590 1.574 . S
C4598 H4593 0.949 . S
C4598 C4604 1.368 . S
C4599 C4583 1.349 . S
C4599 H4591 0.950 . S
C4599 C4597 1.327 . S
C4600 C4588 1.349 . S
C4600 H4594 0.950 . S
C4600 C4601 1.327 . S
C4601 H4595 0.950 . S
C4601 C4600 1.327 . S
C4601 C4605 1.429 . S
C4602 C4585 1.574 . S
C4602 H4596 0.949 . S
C4602 C4606 1.368 . S
C4603 C4584 1.429 . S
C4603 C4597 1.429 . S
C4603 C4604 1.523 . S
C4604 C4585 1.368 . S
C4604 C4598 1.368 . S
C4604 C4603 1.523 . S
C4605 C4589 1.429 . S
C4605 C4601 1.429 . S
C4605 C4606 1.523 . S
C4606 C4590 1.368 . S
C4606 C4602 1.368 . S
C4606 C4605 1.523 . S
H4607 C4582 0.950 . S
H4608 C4584 0.950 . S
H4609 C4585 0.949 . S
H4610 C4587 0.950 . S
H4611 C4589 0.950 . S
C4612 C4613 1.349 . S
C4612 C4614 1.327 . S
C4612 H4637 0.950 . S
C4613 C4612 1.349 . S
C4613 C4629 1.349 . S
C4614 C4612 1.327 . S
C4614 C4633 1.429 . S
C4614 H4638 0.950 . S
C4615 C4632 1.574 . S
C4615 C4634 1.368 . S
C4615 H4639 0.949 . S
H4616 C4620 0.949 . S
C4617 C4618 1.349 . S
C4617 C4619 1.327 . S
C4617 H4640 0.950 . S
C4618 C4617 1.349 . S
C4618 C4630 1.349 . S
C4619 C4617 1.327 . S
C4619 C4635 1.429 . S
C4619 H4641 0.950 . S
C4620 H4616 0.949 . S
C4620 C4628 1.574 . S
C4620 C4636 1.368 . S
H4621 C4629 0.950 . S
H4622 C4627 0.950 . S
H4623 C4628 0.949 . S
H4624 C4630 0.950 . S
H4625 C4631 0.950 . S
H4626 C4632 0.949 . S
C4627 H4622 0.950 . S
C4627 C4629 1.327 . S
C4627 C4633 1.429 . S
C4628 C4620 1.574 . S
C4628 H4623 0.949 . S
C4628 C4634 1.368 . S
C4629 C4613 1.349 . S
C4629 H4621 0.950 . S
C4629 C4627 1.327 . S
C4630 C4618 1.349 . S
C4630 H4624 0.950 . S
C4630 C4631 1.327 . S
C4631 H4625 0.950 . S
C4631 C4630 1.327 . S
C4631 C4635 1.429 . S
C4632 C4615 1.574 . S
C4632 H4626 0.949 . S
C4632 C4636 1.368 . S
C4633 C4614 1.429 . S
C4633 C4627 1.429 . S
C4633 C4634 1.523 . S
C4634 C4615 1.368 . S
C4634 C4628 1.368 . S
C4634 C4633 1.523 . S
C4635 C4619 1.429 . S
C4635 C4631 1.429 . S
C4635 C4636 1.523 . S
C4636 C4620 1.368 . S
C4636 C4632 1.368 . S
C4636 C4635 1.523 . S
H4637 C4612 0.950 . S
H4638 C4614 0.950 . S
H4639 C4615 0.949 . S
H4640 C4617 0.950 . S
H4641 C4619 0.950 . S
C4642 C4643 1.349 . S
C4642 C4644 1.327 . S
C4642 H4667 0.950 . S
C4643 C4642 1.349 . S
C4643 C4659 1.349 . S
C4644 C4642 1.327 . S
C4644 C4663 1.429 . S
C4644 H4668 0.950 . S
C4645 C4662 1.574 . S
C4645 C4664 1.368 . S
C4645 H4669 0.949 . S
H4646 C4650 0.949 . S
C4647 C4648 1.349 . S
C4647 C4649 1.327 . S
C4647 H4670 0.950 . S
C4648 C4647 1.349 . S
C4648 C4660 1.349 . S
C4649 C4647 1.327 . S
C4649 C4665 1.429 . S
C4649 H4671 0.950 . S
C4650 H4646 0.949 . S
C4650 C4658 1.574 . S
C4650 C4666 1.368 . S
H4651 C4659 0.950 . S
H4652 C4657 0.950 . S
H4653 C4658 0.949 . S
H4654 C4660 0.950 . S
H4655 C4661 0.950 . S
H4656 C4662 0.949 . S
C4657 H4652 0.950 . S
C4657 C4659 1.327 . S
C4657 C4663 1.429 . S
C4658 C4650 1.574 . S
C4658 H4653 0.949 . S
C4658 C4664 1.368 . S
C4659 C4643 1.349 . S
C4659 H4651 0.950 . S
C4659 C4657 1.327 . S
C4660 C4648 1.349 . S
C4660 H4654 0.950 . S
C4660 C4661 1.327 . S
C4661 H4655 0.950 . S
C4661 C4660 1.327 . S
C4661 C4665 1.429 . S
C4662 C4645 1.574 . S
C4662 H4656 0.949 . S
C4662 C4666 1.368 . S
C4663 C4644 1.429 . S
C4663 C4657 1.429 . S
C4663 C4664 1.523 . S
C4664 C4645 1.368 . S
C4664 C4658 1.368 . S
C4664 C4663 1.523 . S
C4665 C4649 1.429 . S
C4665 C4661 1.429 . S
C4665 C4666 1.523 . S
C4666 C4650 1.368 . S
C4666 C4662 1.368 . S
C4666 C4665 1.523 . S
H4667 C4642 0.950 . S
H4668 C4644 0.950 . S
H4669 C4645 0.949 . S
H4670 C4647 0.950 . S
H4671 C4649 0.950 . S
C4672 C4673 1.349 . S
C4672 C4674 1.327 . S
C4672 H4697 0.950 . S
C4673 C4672 1.349 . S
C4673 C4689 1.349 . S
C4674 C4672 1.327 . S
C4674 C4693 1.429 . S
C4674 H4698 0.950 . S
C4675 C4692 1.574 . S
C4675 C4694 1.368 . S
C4675 H4699 0.949 . S
H4676 C4680 0.949 . S
C4677 C4678 1.349 . S
C4677 C4679 1.327 . S
C4677 H4700 0.950 . S
C4678 C4677 1.349 . S
C4678 C4690 1.349 . S
C4679 C4677 1.327 . S
C4679 C4695 1.429 . S
C4679 H4701 0.950 . S
C4680 H4676 0.949 . S
C4680 C4688 1.574 . S
C4680 C4696 1.368 . S
H4681 C4689 0.950 . S
H4682 C4687 0.950 . S
H4683 C4688 0.949 . S
H4684 C4690 0.950 . S
H4685 C4691 0.950 . S
H4686 C4692 0.949 . S
C4687 H4682 0.950 . S
C4687 C4689 1.327 . S
C4687 C4693 1.429 . S
C4688 C4680 1.574 . S
C4688 H4683 0.949 . S
C4688 C4694 1.368 . S
C4689 C4673 1.349 . S
C4689 H4681 0.950 . S
C4689 C4687 1.327 . S
C4690 C4678 1.349 . S
C4690 H4684 0.950 . S
C4690 C4691 1.327 . S
C4691 H4685 0.950 . S
C4691 C4690 1.327 . S
C4691 C4695 1.429 . S
C4692 C4675 1.574 . S
C4692 H4686 0.949 . S
C4692 C4696 1.368 . S
C4693 C4674 1.429 . S
C4693 C4687 1.429 . S
C4693 C4694 1.523 . S
C4694 C4675 1.368 . S
C4694 C4688 1.368 . S
C4694 C4693 1.523 . S
C4695 C4679 1.429 . S
C4695 C4691 1.429 . S
C4695 C4696 1.523 . S
C4696 C4680 1.368 . S
C4696 C4692 1.368 . S
C4696 C4695 1.523 . S
H4697 C4672 0.950 . S
H4698 C4674 0.950 . S
H4699 C4675 0.949 . S
H4700 C4677 0.950 . S
H4701 C4679 0.950 . S
C4702 C4703 1.349 . S
C4702 C4704 1.327 . S
C4702 H4727 0.950 . S
C4703 C4702 1.349 . S
C4703 C4719 1.349 . S
C4704 C4702 1.327 . S
C4704 C4723 1.429 . S
C4704 H4728 0.950 . S
C4705 C4722 1.574 . S
C4705 C4724 1.368 . S
C4705 H4729 0.949 . S
H4706 C4710 0.949 . S
C4707 C4708 1.349 . S
C4707 C4709 1.327 . S
C4707 H4730 0.950 . S
C4708 C4707 1.349 . S
C4708 C4720 1.349 . S
C4709 C4707 1.327 . S
C4709 C4725 1.429 . S
C4709 H4731 0.950 . S
C4710 H4706 0.949 . S
C4710 C4718 1.574 . S
C4710 C4726 1.368 . S
H4711 C4719 0.950 . S
H4712 C4717 0.950 . S
H4713 C4718 0.949 . S
H4714 C4720 0.950 . S
H4715 C4721 0.950 . S
H4716 C4722 0.949 . S
C4717 H4712 0.950 . S
C4717 C4719 1.327 . S
C4717 C4723 1.429 . S
C4718 C4710 1.574 . S
C4718 H4713 0.949 . S
C4718 C4724 1.368 . S
C4719 C4703 1.349 . S
C4719 H4711 0.950 . S
C4719 C4717 1.327 . S
C4720 C4708 1.349 . S
C4720 H4714 0.950 . S
C4720 C4721 1.327 . S
C4721 H4715 0.950 . S
C4721 C4720 1.327 . S
C4721 C4725 1.429 . S
C4722 C4705 1.574 . S
C4722 H4716 0.949 . S
C4722 C4726 1.368 . S
C4723 C4704 1.429 . S
C4723 C4717 1.429 . S
C4723 C4724 1.523 . S
C4724 C4705 1.368 . S
C4724 C4718 1.368 . S
C4724 C4723 1.523 . S
C4725 C4709 1.429 . S
C4725 C4721 1.429 . S
C4725 C4726 1.523 . S
C4726 C4710 1.368 . S
C4726 C4722 1.368 . S
C4726 C4725 1.523 . S
H4727 C4702 0.950 . S
H4728 C4704 0.950 . S
H4729 C4705 0.949 . S
H4730 C4707 0.950 . S
H4731 C4709 0.950 . S
C4732 C4733 1.349 . S
C4732 C4734 1.327 . S
C4732 H4757 0.950 . S
C4733 C4732 1.349 . S
C4733 C4749 1.349 . S
C4734 C4732 1.327 . S
C4734 C4753 1.429 . S
C4734 H4758 0.950 . S
C4735 C4752 1.574 . S
C4735 C4754 1.368 . S
C4735 H4759 0.949 . S
H4736 C4740 0.949 . S
C4737 C4738 1.349 . S
C4737 C4739 1.327 . S
C4737 H4760 0.950 . S
C4738 C4737 1.349 . S
C4738 C4750 1.349 . S
C4739 C4737 1.327 . S
C4739 C4755 1.429 . S
C4739 H4761 0.950 . S
C4740 H4736 0.949 . S
C4740 C4748 1.574 . S
C4740 C4756 1.368 . S
H4741 C4749 0.950 . S
H4742 C4747 0.950 . S
H4743 C4748 0.949 . S
H4744 C4750 0.950 . S
H4745 C4751 0.950 . S
H4746 C4752 0.949 . S
C4747 H4742 0.950 . S
C4747 C4749 1.327 . S
C4747 C4753 1.429 . S
C4748 C4740 1.574 . S
C4748 H4743 0.949 . S
C4748 C4754 1.368 . S
C4749 C4733 1.349 . S
C4749 H4741 0.950 . S
C4749 C4747 1.327 . S
C4750 C4738 1.349 . S
C4750 H4744 0.950 . S
C4750 C4751 1.327 . S
C4751 H4745 0.950 . S
C4751 C4750 1.327 . S
C4751 C4755 1.429 . S
C4752 C4735 1.574 . S
C4752 H4746 0.949 . S
C4752 C4756 1.368 . S
C4753 C4734 1.429 . S
C4753 C4747 1.429 . S
C4753 C4754 1.523 . S
C4754 C4735 1.368 . S
C4754 C4748 1.368 . S
C4754 C4753 1.523 . S
C4755 C4739 1.429 . S
C4755 C4751 1.429 . S
C4755 C4756 1.523 . S
C4756 C4740 1.368 . S
C4756 C4752 1.368 . S
C4756 C4755 1.523 . S
H4757 C4732 0.950 . S
H4758 C4734 0.950 . S
H4759 C4735 0.949 . S
H4760 C4737 0.950 . S
H4761 C4739 0.950 . S
C4762 C4763 1.349 . S
C4762 C4764 1.327 . S
C4762 H4787 0.950 . S
C4763 C4762 1.349 . S
C4763 C4779 1.349 . S
C4764 C4762 1.327 . S
C4764 C4783 1.429 . S
C4764 H4788 0.950 . S
C4765 C4782 1.574 . S
C4765 C4784 1.368 . S
C4765 H4789 0.949 . S
H4766 C4770 0.949 . S
C4767 C4768 1.349 1_565 S
C4767 C4769 1.327 . S
C4767 H4790 0.950 1_565 S
C4768 C4767 1.349 1_545 S
C4768 C4780 1.349 1_545 S
C4769 C4767 1.327 . S
C4769 C4785 1.429 . S
C4769 H4791 0.950 . S
C4770 H4766 0.949 . S
C4770 C4778 1.574 . S
C4770 C4786 1.368 . S
H4771 C4779 0.950 . S
H4772 C4777 0.950 . S
H4773 C4778 0.949 . S
H4774 C4780 0.950 . S
H4775 C4781 0.950 . S
H4776 C4782 0.949 . S
C4777 H4772 0.950 . S
C4777 C4779 1.327 . S
C4777 C4783 1.429 . S
C4778 C4770 1.574 . S
C4778 H4773 0.949 . S
C4778 C4784 1.368 . S
C4779 C4763 1.349 . S
C4779 H4771 0.950 . S
C4779 C4777 1.327 . S
C4780 C4768 1.349 1_565 S
C4780 H4774 0.950 . S
C4780 C4781 1.327 . S
C4781 H4775 0.950 . S
C4781 C4780 1.327 . S
C4781 C4785 1.429 . S
C4782 C4765 1.574 . S
C4782 H4776 0.949 . S
C4782 C4786 1.368 . S
C4783 C4764 1.429 . S
C4783 C4777 1.429 . S
C4783 C4784 1.523 . S
C4784 C4765 1.368 . S
C4784 C4778 1.368 . S
C4784 C4783 1.523 . S
C4785 C4769 1.429 . S
C4785 C4781 1.429 . S
C4785 C4786 1.523 . S
C4786 C4770 1.368 . S
C4786 C4782 1.368 . S
C4786 C4785 1.523 . S
H4787 C4762 0.950 . S
H4788 C4764 0.950 . S
H4789 C4765 0.949 . S
H4790 C4767 0.950 1_545 S
H4791 C4769 0.950 . S
C4792 C4793 1.349 . S
C4792 C4794 1.327 . S
C4792 H4817 0.950 . S
C4793 C4792 1.349 . S
C4793 C4809 1.349 . S
C4794 C4792 1.327 . S
C4794 C4813 1.429 . S
C4794 H4818 0.950 . S
C4795 C4812 1.574 . S
C4795 C4814 1.368 . S
C4795 H4819 0.949 . S
H4796 C4800 0.949 . S
C4797 C4798 1.349 . S
C4797 C4799 1.327 . S
C4797 H4820 0.950 . S
C4798 C4797 1.349 . S
C4798 C4810 1.349 . S
C4799 C4797 1.327 . S
C4799 C4815 1.429 . S
C4799 H4821 0.950 . S
C4800 H4796 0.949 . S
C4800 C4808 1.574 . S
C4800 C4816 1.368 . S
H4801 C4809 0.950 . S
H4802 C4807 0.950 . S
H4803 C4808 0.949 . S
H4804 C4810 0.950 . S
H4805 C4811 0.950 . S
H4806 C4812 0.949 . S
C4807 H4802 0.950 . S
C4807 C4809 1.327 . S
C4807 C4813 1.429 . S
C4808 C4800 1.574 . S
C4808 H4803 0.949 . S
C4808 C4814 1.368 . S
C4809 C4793 1.349 . S
C4809 H4801 0.950 . S
C4809 C4807 1.327 . S
C4810 C4798 1.349 . S
C4810 H4804 0.950 . S
C4810 C4811 1.327 . S
C4811 H4805 0.950 . S
C4811 C4810 1.327 . S
C4811 C4815 1.429 . S
C4812 C4795 1.574 . S
C4812 H4806 0.949 . S
C4812 C4816 1.368 . S
C4813 C4794 1.429 . S
C4813 C4807 1.429 . S
C4813 C4814 1.523 . S
C4814 C4795 1.368 . S
C4814 C4808 1.368 . S
C4814 C4813 1.523 . S
C4815 C4799 1.429 . S
C4815 C4811 1.429 . S
C4815 C4816 1.523 . S
C4816 C4800 1.368 . S
C4816 C4812 1.368 . S
C4816 C4815 1.523 . S
H4817 C4792 0.950 . S
H4818 C4794 0.950 . S
H4819 C4795 0.949 . S
H4820 C4797 0.950 . S
H4821 C4799 0.950 . S
C4822 C4823 1.349 . S
C4822 C4824 1.327 . S
C4822 H4847 0.950 . S
C4823 C4822 1.349 . S
C4823 C4839 1.349 . S
C4824 C4822 1.327 . S
C4824 C4843 1.429 . S
C4824 H4848 0.950 . S
C4825 C4842 1.574 . S
C4825 C4844 1.368 . S
C4825 H4849 0.949 . S
H4826 C4830 0.949 . S
C4827 C4828 1.349 . S
C4827 C4829 1.327 . S
C4827 H4850 0.950 . S
C4828 C4827 1.349 . S
C4828 C4840 1.349 . S
C4829 C4827 1.327 . S
C4829 C4845 1.429 . S
C4829 H4851 0.950 . S
C4830 H4826 0.949 . S
C4830 C4838 1.574 . S
C4830 C4846 1.368 . S
H4831 C4839 0.950 . S
H4832 C4837 0.950 . S
H4833 C4838 0.949 . S
H4834 C4840 0.950 . S
H4835 C4841 0.950 . S
H4836 C4842 0.949 . S
C4837 H4832 0.950 . S
C4837 C4839 1.327 . S
C4837 C4843 1.429 . S
C4838 C4830 1.574 . S
C4838 H4833 0.949 . S
C4838 C4844 1.368 . S
C4839 C4823 1.349 . S
C4839 H4831 0.950 . S
C4839 C4837 1.327 . S
C4840 C4828 1.349 . S
C4840 H4834 0.950 . S
C4840 C4841 1.327 . S
C4841 H4835 0.950 . S
C4841 C4840 1.327 . S
C4841 C4845 1.429 . S
C4842 C4825 1.574 . S
C4842 H4836 0.949 . S
C4842 C4846 1.368 . S
C4843 C4824 1.429 . S
C4843 C4837 1.429 . S
C4843 C4844 1.523 . S
C4844 C4825 1.368 . S
C4844 C4838 1.368 . S
C4844 C4843 1.523 . S
C4845 C4829 1.429 . S
C4845 C4841 1.429 . S
C4845 C4846 1.523 . S
C4846 C4830 1.368 . S
C4846 C4842 1.368 . S
C4846 C4845 1.523 . S
H4847 C4822 0.950 . S
H4848 C4824 0.950 . S
H4849 C4825 0.949 . S
H4850 C4827 0.950 . S
H4851 C4829 0.950 . S
C4852 C4853 1.349 . S
C4852 C4854 1.327 . S
C4852 H4877 0.950 . S
C4853 C4852 1.349 . S
C4853 C4869 1.349 . S
C4854 C4852 1.327 . S
C4854 C4873 1.429 . S
C4854 H4878 0.950 . S
C4855 C4872 1.574 . S
C4855 C4874 1.368 . S
C4855 H4879 0.949 . S
H4856 C4860 0.949 . S
C4857 C4858 1.349 . S
C4857 C4859 1.327 . S
C4857 H4880 0.950 . S
C4858 C4857 1.349 . S
C4858 C4870 1.349 . S
C4859 C4857 1.327 . S
C4859 C4875 1.429 . S
C4859 H4881 0.950 . S
C4860 H4856 0.949 . S
C4860 C4868 1.574 . S
C4860 C4876 1.368 . S
H4861 C4869 0.950 . S
H4862 C4867 0.950 . S
H4863 C4868 0.949 . S
H4864 C4870 0.950 . S
H4865 C4871 0.950 . S
H4866 C4872 0.949 . S
C4867 H4862 0.950 . S
C4867 C4869 1.327 . S
C4867 C4873 1.429 . S
C4868 C4860 1.574 . S
C4868 H4863 0.949 . S
C4868 C4874 1.368 . S
C4869 C4853 1.349 . S
C4869 H4861 0.950 . S
C4869 C4867 1.327 . S
C4870 C4858 1.349 . S
C4870 H4864 0.950 . S
C4870 C4871 1.327 . S
C4871 H4865 0.950 . S
C4871 C4870 1.327 . S
C4871 C4875 1.429 . S
C4872 C4855 1.574 . S
C4872 H4866 0.949 . S
C4872 C4876 1.368 . S
C4873 C4854 1.429 . S
C4873 C4867 1.429 . S
C4873 C4874 1.523 . S
C4874 C4855 1.368 . S
C4874 C4868 1.368 . S
C4874 C4873 1.523 . S
C4875 C4859 1.429 . S
C4875 C4871 1.429 . S
C4875 C4876 1.523 . S
C4876 C4860 1.368 . S
C4876 C4872 1.368 . S
C4876 C4875 1.523 . S
H4877 C4852 0.950 . S
H4878 C4854 0.950 . S
H4879 C4855 0.949 . S
H4880 C4857 0.950 . S
H4881 C4859 0.950 . S
C4882 C4883 1.349 . S
C4882 C4884 1.327 . S
C4882 H4907 0.950 . S
C4883 C4882 1.349 . S
C4883 C4899 1.349 . S
C4884 C4882 1.327 . S
C4884 C4903 1.429 . S
C4884 H4908 0.950 . S
C4885 C4902 1.574 . S
C4885 C4904 1.368 . S
C4885 H4909 0.949 . S
H4886 C4890 0.949 . S
C4887 C4888 1.349 . S
C4887 C4889 1.327 . S
C4887 H4910 0.950 . S
C4888 C4887 1.349 . S
C4888 C4900 1.349 . S
C4889 C4887 1.327 . S
C4889 C4905 1.429 . S
C4889 H4911 0.950 . S
C4890 H4886 0.949 . S
C4890 C4898 1.574 . S
C4890 C4906 1.368 . S
H4891 C4899 0.950 . S
H4892 C4897 0.950 . S
H4893 C4898 0.949 . S
H4894 C4900 0.950 . S
H4895 C4901 0.950 . S
H4896 C4902 0.949 . S
C4897 H4892 0.950 . S
C4897 C4899 1.327 . S
C4897 C4903 1.429 . S
C4898 C4890 1.574 . S
C4898 H4893 0.949 . S
C4898 C4904 1.368 . S
C4899 C4883 1.349 . S
C4899 H4891 0.950 . S
C4899 C4897 1.327 . S
C4900 C4888 1.349 . S
C4900 H4894 0.950 . S
C4900 C4901 1.327 . S
C4901 H4895 0.950 . S
C4901 C4900 1.327 . S
C4901 C4905 1.429 . S
C4902 C4885 1.574 . S
C4902 H4896 0.949 . S
C4902 C4906 1.368 . S
C4903 C4884 1.429 . S
C4903 C4897 1.429 . S
C4903 C4904 1.523 . S
C4904 C4885 1.368 . S
C4904 C4898 1.368 . S
C4904 C4903 1.523 . S
C4905 C4889 1.429 . S
C4905 C4901 1.429 . S
C4905 C4906 1.523 . S
C4906 C4890 1.368 . S
C4906 C4902 1.368 . S
C4906 C4905 1.523 . S
H4907 C4882 0.950 . S
H4908 C4884 0.950 . S
H4909 C4885 0.949 . S
H4910 C4887 0.950 . S
H4911 C4889 0.950 . S
C4912 C4913 1.349 . S
C4912 C4914 1.327 . S
C4912 H4937 0.950 . S
C4913 C4912 1.349 . S
C4913 C4929 1.349 . S
C4914 C4912 1.327 . S
C4914 C4933 1.429 . S
C4914 H4938 0.950 . S
C4915 C4932 1.574 . S
C4915 C4934 1.368 . S
C4915 H4939 0.949 . S
H4916 C4920 0.949 . S
C4917 C4918 1.349 . S
C4917 C4919 1.327 . S
C4917 H4940 0.950 . S
C4918 C4917 1.349 . S
C4918 C4930 1.349 . S
C4919 C4917 1.327 . S
C4919 C4935 1.429 . S
C4919 H4941 0.950 . S
C4920 H4916 0.949 . S
C4920 C4928 1.574 . S
C4920 C4936 1.368 . S
H4921 C4929 0.950 . S
H4922 C4927 0.950 . S
H4923 C4928 0.949 . S
H4924 C4930 0.950 . S
H4925 C4931 0.950 . S
H4926 C4932 0.949 . S
C4927 H4922 0.950 . S
C4927 C4929 1.327 . S
C4927 C4933 1.429 . S
C4928 C4920 1.574 . S
C4928 H4923 0.949 . S
C4928 C4934 1.368 . S
C4929 C4913 1.349 . S
C4929 H4921 0.950 . S
C4929 C4927 1.327 . S
C4930 C4918 1.349 . S
C4930 H4924 0.950 . S
C4930 C4931 1.327 . S
C4931 H4925 0.950 . S
C4931 C4930 1.327 . S
C4931 C4935 1.429 . S
C4932 C4915 1.574 . S
C4932 H4926 0.949 . S
C4932 C4936 1.368 . S
C4933 C4914 1.429 . S
C4933 C4927 1.429 . S
C4933 C4934 1.523 . S
C4934 C4915 1.368 . S
C4934 C4928 1.368 . S
C4934 C4933 1.523 . S
C4935 C4919 1.429 . S
C4935 C4931 1.429 . S
C4935 C4936 1.523 . S
C4936 C4920 1.368 . S
C4936 C4932 1.368 . S
C4936 C4935 1.523 . S
H4937 C4912 0.950 . S
H4938 C4914 0.950 . S
H4939 C4915 0.949 . S
H4940 C4917 0.950 . S
H4941 C4919 0.950 . S
C4942 C4943 1.349 . S
C4942 C4944 1.327 . S
C4942 H4967 0.950 . S
C4943 C4942 1.349 . S
C4943 C4959 1.349 . S
C4944 C4942 1.327 . S
C4944 C4963 1.429 . S
C4944 H4968 0.950 . S
C4945 C4962 1.574 . S
C4945 C4964 1.368 . S
C4945 H4969 0.949 . S
H4946 C4950 0.949 . S
C4947 C4948 1.349 . S
C4947 C4949 1.327 . S
C4947 H4970 0.950 . S
C4948 C4947 1.349 . S
C4948 C4960 1.349 . S
C4949 C4947 1.327 . S
C4949 C4965 1.429 . S
C4949 H4971 0.950 . S
C4950 H4946 0.949 . S
C4950 C4958 1.574 . S
C4950 C4966 1.368 . S
H4951 C4959 0.950 . S
H4952 C4957 0.950 . S
H4953 C4958 0.949 . S
H4954 C4960 0.950 . S
H4955 C4961 0.950 . S
H4956 C4962 0.949 . S
C4957 H4952 0.950 . S
C4957 C4959 1.327 . S
C4957 C4963 1.429 . S
C4958 C4950 1.574 . S
C4958 H4953 0.949 . S
C4958 C4964 1.368 . S
C4959 C4943 1.349 . S
C4959 H4951 0.950 . S
C4959 C4957 1.327 . S
C4960 C4948 1.349 . S
C4960 H4954 0.950 . S
C4960 C4961 1.327 . S
C4961 H4955 0.950 . S
C4961 C4960 1.327 . S
C4961 C4965 1.429 . S
C4962 C4945 1.574 . S
C4962 H4956 0.949 . S
C4962 C4966 1.368 . S
C4963 C4944 1.429 . S
C4963 C4957 1.429 . S
C4963 C4964 1.523 . S
C4964 C4945 1.368 . S
C4964 C4958 1.368 . S
C4964 C4963 1.523 . S
C4965 C4949 1.429 . S
C4965 C4961 1.429 . S
C4965 C4966 1.523 . S
C4966 C4950 1.368 . S
C4966 C4962 1.368 . S
C4966 C4965 1.523 . S
H4967 C4942 0.950 . S
H4968 C4944 0.950 . S
H4969 C4945 0.949 . S
H4970 C4947 0.950 . S
H4971 C4949 0.950 . S
C4972 C4973 1.349 . S
C4972 C4974 1.327 . S
C4972 H4997 0.950 . S
C4973 C4972 1.349 . S
C4973 C4989 1.349 . S
C4974 C4972 1.327 . S
C4974 C4993 1.429 . S
C4974 H4998 0.950 . S
C4975 C4992 1.574 . S
C4975 C4994 1.368 . S
C4975 H4999 0.949 . S
H4976 C4980 0.949 . S
C4977 C4978 1.349 . S
C4977 C4979 1.327 . S
C4977 H5000 0.950 . S
C4978 C4977 1.349 . S
C4978 C4990 1.349 . S
C4979 C4977 1.327 . S
C4979 C4995 1.429 . S
C4979 H5001 0.950 . S
C4980 H4976 0.949 . S
C4980 C4988 1.574 . S
C4980 C4996 1.368 . S
H4981 C4989 0.950 . S
H4982 C4987 0.950 . S
H4983 C4988 0.949 . S
H4984 C4990 0.950 . S
H4985 C4991 0.950 . S
H4986 C4992 0.949 . S
C4987 H4982 0.950 . S
C4987 C4989 1.327 . S
C4987 C4993 1.429 . S
C4988 C4980 1.574 . S
C4988 H4983 0.949 . S
C4988 C4994 1.368 . S
C4989 C4973 1.349 . S
C4989 H4981 0.950 . S
C4989 C4987 1.327 . S
C4990 C4978 1.349 . S
C4990 H4984 0.950 . S
C4990 C4991 1.327 . S
C4991 H4985 0.950 . S
C4991 C4990 1.327 . S
C4991 C4995 1.429 . S
C4992 C4975 1.574 . S
C4992 H4986 0.949 . S
C4992 C4996 1.368 . S
C4993 C4974 1.429 . S
C4993 C4987 1.429 . S
C4993 C4994 1.523 . S
C4994 C4975 1.368 . S
C4994 C4988 1.368 . S
C4994 C4993 1.523 . S
C4995 C4979 1.429 . S
C4995 C4991 1.429 . S
C4995 C4996 1.523 . S
C4996 C4980 1.368 . S
C4996 C4992 1.368 . S
C4996 C4995 1.523 . S
H4997 C4972 0.950 . S
H4998 C4974 0.950 . S
H4999 C4975 0.949 . S
H5000 C4977 0.950 . S
H5001 C4979 0.950 . S
C5002 C5003 1.349 . S
C5002 C5004 1.327 . S
C5002 H5027 0.950 . S
C5003 C5002 1.349 . S
C5003 C5019 1.349 . S
C5004 C5002 1.327 . S
C5004 C5023 1.429 . S
C5004 H5028 0.950 . S
C5005 C5022 1.574 . S
C5005 C5024 1.368 . S
C5005 H5029 0.949 . S
H5006 C5010 0.949 . S
C5007 C5008 1.349 . S
C5007 C5009 1.327 . S
C5007 H5030 0.950 . S
C5008 C5007 1.349 . S
C5008 C5020 1.349 . S
C5009 C5007 1.327 . S
C5009 C5025 1.429 . S
C5009 H5031 0.950 . S
C5010 H5006 0.949 . S
C5010 C5018 1.574 . S
C5010 C5026 1.368 . S
H5011 C5019 0.950 . S
H5012 C5017 0.950 . S
H5013 C5018 0.949 . S
H5014 C5020 0.950 . S
H5015 C5021 0.950 . S
H5016 C5022 0.949 . S
C5017 H5012 0.950 . S
C5017 C5019 1.327 . S
C5017 C5023 1.429 . S
C5018 C5010 1.574 . S
C5018 H5013 0.949 . S
C5018 C5024 1.368 . S
C5019 C5003 1.349 . S
C5019 H5011 0.950 . S
C5019 C5017 1.327 . S
C5020 C5008 1.349 . S
C5020 H5014 0.950 . S
C5020 C5021 1.327 . S
C5021 H5015 0.950 . S
C5021 C5020 1.327 . S
C5021 C5025 1.429 . S
C5022 C5005 1.574 . S
C5022 H5016 0.949 . S
C5022 C5026 1.368 . S
C5023 C5004 1.429 . S
C5023 C5017 1.429 . S
C5023 C5024 1.523 . S
C5024 C5005 1.368 . S
C5024 C5018 1.368 . S
C5024 C5023 1.523 . S
C5025 C5009 1.429 . S
C5025 C5021 1.429 . S
C5025 C5026 1.523 . S
C5026 C5010 1.368 . S
C5026 C5022 1.368 . S
C5026 C5025 1.523 . S
H5027 C5002 0.950 . S
H5028 C5004 0.950 . S
H5029 C5005 0.949 . S
H5030 C5007 0.950 . S
H5031 C5009 0.950 . S
C5032 C5033 1.349 . S
C5032 C5034 1.327 . S
C5032 H5057 0.950 . S
C5033 C5032 1.349 . S
C5033 C5049 1.349 . S
C5034 C5032 1.327 . S
C5034 C5053 1.429 . S
C5034 H5058 0.950 . S
C5035 C5052 1.574 . S
C5035 C5054 1.368 . S
C5035 H5059 0.949 . S
H5036 C5040 0.949 . S
C5037 C5038 1.336 1_554 S
C5037 C5039 1.311 1_554 S
C5037 H5060 0.981 . S
C5038 C5037 1.336 1_556 S
C5038 C5050 1.349 . S
C5039 C5037 1.311 1_556 S
C5039 C5055 1.429 . S
C5039 H5061 0.950 . S
C5040 H5036 0.949 . S
C5040 C5048 1.574 . S
C5040 C5056 1.368 . S
H5041 C5049 0.950 . S
H5042 C5047 0.950 . S
H5043 C5048 0.949 . S
H5044 C5050 0.950 . S
H5045 C5051 0.950 . S
H5046 C5052 0.949 . S
C5047 H5042 0.950 . S
C5047 C5049 1.327 . S
C5047 C5053 1.429 . S
C5048 C5040 1.574 . S
C5048 H5043 0.949 . S
C5048 C5054 1.368 . S
C5049 C5033 1.349 . S
C5049 H5041 0.950 . S
C5049 C5047 1.327 . S
C5050 C5038 1.349 . S
C5050 H5044 0.950 . S
C5050 C5051 1.327 . S
C5051 H5045 0.950 . S
C5051 C5050 1.327 . S
C5051 C5055 1.429 . S
C5052 C5035 1.574 . S
C5052 H5046 0.949 . S
C5052 C5056 1.368 . S
C5053 C5034 1.429 . S
C5053 C5047 1.429 . S
C5053 C5054 1.523 . S
C5054 C5035 1.368 . S
C5054 C5048 1.368 . S
C5054 C5053 1.523 . S
C5055 C5039 1.429 . S
C5055 C5051 1.429 . S
C5055 C5056 1.523 . S
C5056 C5040 1.368 . S
C5056 C5052 1.368 . S
C5056 C5055 1.523 . S
H5057 C5032 0.950 . S
H5058 C5034 0.950 . S
H5059 C5035 0.949 . S
H5060 C5037 0.981 . S
H5061 C5039 0.950 . S
C5062 C5063 1.349 . S
C5062 C5064 1.327 . S
C5062 H5087 0.950 . S
C5063 C5062 1.349 . S
C5063 C5079 1.349 . S
C5064 C5062 1.327 . S
C5064 C5083 1.429 . S
C5064 H5088 0.950 . S
C5065 C5082 1.574 . S
C5065 C5084 1.368 . S
C5065 H5089 0.949 . S
H5066 C5070 0.949 . S
C5067 C5068 1.349 . S
C5067 C5069 1.327 . S
C5067 H5090 0.950 . S
C5068 C5067 1.349 . S
C5068 C5080 1.349 . S
C5069 C5067 1.327 . S
C5069 C5085 1.429 . S
C5069 H5091 0.950 . S
C5070 H5066 0.949 . S
C5070 C5078 1.574 . S
C5070 C5086 1.368 . S
H5071 C5079 0.950 . S
H5072 C5077 0.950 . S
H5073 C5078 0.949 . S
H5074 C5080 0.950 . S
H5075 C5081 0.950 . S
H5076 C5082 0.949 . S
C5077 H5072 0.950 . S
C5077 C5079 1.327 . S
C5077 C5083 1.429 . S
C5078 C5070 1.574 . S
C5078 H5073 0.949 . S
C5078 C5084 1.368 . S
C5079 C5063 1.349 . S
C5079 H5071 0.950 . S
C5079 C5077 1.327 . S
C5080 C5068 1.349 . S
C5080 H5074 0.950 . S
C5080 C5081 1.327 . S
C5081 H5075 0.950 . S
C5081 C5080 1.327 . S
C5081 C5085 1.429 . S
C5082 C5065 1.574 . S
C5082 H5076 0.949 . S
C5082 C5086 1.368 . S
C5083 C5064 1.429 . S
C5083 C5077 1.429 . S
C5083 C5084 1.523 . S
C5084 C5065 1.368 . S
C5084 C5078 1.368 . S
C5084 C5083 1.523 . S
C5085 C5069 1.429 . S
C5085 C5081 1.429 . S
C5085 C5086 1.523 . S
C5086 C5070 1.368 . S
C5086 C5082 1.368 . S
C5086 C5085 1.523 . S
H5087 C5062 0.950 . S
H5088 C5064 0.950 . S
H5089 C5065 0.949 . S
H5090 C5067 0.950 . S
H5091 C5069 0.950 . S
C5092 C5093 1.349 . S
C5092 C5094 1.327 . S
C5092 H5117 0.950 . S
C5093 C5092 1.349 . S
C5093 C5109 1.349 . S
C5094 C5092 1.327 . S
C5094 C5113 1.429 . S
C5094 H5118 0.950 . S
C5095 C5112 1.574 . S
C5095 C5114 1.368 . S
C5095 H5119 0.949 . S
H5096 C5100 0.949 . S
C5097 C5098 1.349 . S
C5097 C5099 1.327 . S
C5097 H5120 0.950 . S
C5098 C5097 1.349 . S
C5098 C5110 1.349 . S
C5099 C5097 1.327 . S
C5099 C5115 1.429 . S
C5099 H5121 0.950 . S
C5100 H5096 0.949 . S
C5100 C5108 1.574 . S
C5100 C5116 1.368 . S
H5101 C5109 0.950 . S
H5102 C5107 0.950 . S
H5103 C5108 0.949 . S
H5104 C5110 0.950 . S
H5105 C5111 0.950 . S
H5106 C5112 0.949 . S
C5107 H5102 0.950 . S
C5107 C5109 1.327 . S
C5107 C5113 1.429 . S
C5108 C5100 1.574 . S
C5108 H5103 0.949 . S
C5108 C5114 1.368 . S
C5109 C5093 1.349 . S
C5109 H5101 0.950 . S
C5109 C5107 1.327 . S
C5110 C5098 1.349 . S
C5110 H5104 0.950 . S
C5110 C5111 1.327 . S
C5111 H5105 0.950 . S
C5111 C5110 1.327 . S
C5111 C5115 1.429 . S
C5112 C5095 1.574 . S
C5112 H5106 0.949 . S
C5112 C5116 1.368 . S
C5113 C5094 1.429 . S
C5113 C5107 1.429 . S
C5113 C5114 1.523 . S
C5114 C5095 1.368 . S
C5114 C5108 1.368 . S
C5114 C5113 1.523 . S
C5115 C5099 1.429 . S
C5115 C5111 1.429 . S
C5115 C5116 1.523 . S
C5116 C5100 1.368 . S
C5116 C5112 1.368 . S
C5116 C5115 1.523 . S
H5117 C5092 0.950 . S
H5118 C5094 0.950 . S
H5119 C5095 0.949 . S
H5120 C5097 0.950 . S
H5121 C5099 0.950 . S
C5122 C5123 1.349 . S
C5122 C5124 1.327 . S
C5122 H5147 0.950 . S
C5123 C5122 1.349 . S
C5123 C5139 1.349 . S
C5124 C5122 1.327 . S
C5124 C5143 1.429 . S
C5124 H5148 0.950 . S
C5125 C5142 1.574 . S
C5125 C5144 1.368 . S
C5125 H5149 0.949 . S
H5126 C5130 0.949 . S
C5127 C5128 1.349 . S
C5127 C5129 1.327 . S
C5127 H5150 0.950 . S
C5128 C5127 1.349 . S
C5128 C5140 1.349 . S
C5129 C5127 1.327 . S
C5129 C5145 1.429 . S
C5129 H5151 0.950 . S
C5130 H5126 0.949 . S
C5130 C5138 1.574 . S
C5130 C5146 1.368 . S
H5131 C5139 0.950 . S
H5132 C5137 0.950 . S
H5133 C5138 0.949 . S
H5134 C5140 0.950 . S
H5135 C5141 0.950 . S
H5136 C5142 0.949 . S
C5137 H5132 0.950 . S
C5137 C5139 1.327 . S
C5137 C5143 1.429 . S
C5138 C5130 1.574 . S
C5138 H5133 0.949 . S
C5138 C5144 1.368 . S
C5139 C5123 1.349 . S
C5139 H5131 0.950 . S
C5139 C5137 1.327 . S
C5140 C5128 1.349 . S
C5140 H5134 0.950 . S
C5140 C5141 1.327 . S
C5141 H5135 0.950 . S
C5141 C5140 1.327 . S
C5141 C5145 1.429 . S
C5142 C5125 1.574 . S
C5142 H5136 0.949 . S
C5142 C5146 1.368 . S
C5143 C5124 1.429 . S
C5143 C5137 1.429 . S
C5143 C5144 1.523 . S
C5144 C5125 1.368 . S
C5144 C5138 1.368 . S
C5144 C5143 1.523 . S
C5145 C5129 1.429 . S
C5145 C5141 1.429 . S
C5145 C5146 1.523 . S
C5146 C5130 1.368 . S
C5146 C5142 1.368 . S
C5146 C5145 1.523 . S
H5147 C5122 0.950 . S
H5148 C5124 0.950 . S
H5149 C5125 0.949 . S
H5150 C5127 0.950 . S
H5151 C5129 0.950 . S
C5152 C5153 1.349 . S
C5152 C5154 1.327 . S
C5152 H5177 0.950 . S
C5153 C5152 1.349 . S
C5153 C5169 1.349 . S
C5154 C5152 1.327 . S
C5154 C5173 1.429 . S
C5154 H5178 0.950 . S
C5155 C5172 1.574 . S
C5155 C5174 1.368 . S
C5155 H5179 0.949 . S
H5156 C5160 0.949 . S
C5157 C5158 1.349 . S
C5157 C5159 1.327 . S
C5157 H5180 0.950 . S
C5158 C5157 1.349 . S
C5158 C5170 1.349 . S
C5159 C5157 1.327 . S
C5159 C5175 1.429 . S
C5159 H5181 0.950 . S
C5160 H5156 0.949 . S
C5160 C5168 1.574 . S
C5160 C5176 1.368 . S
H5161 C5169 0.950 . S
H5162 C5167 0.950 . S
H5163 C5168 0.949 . S
H5164 C5170 0.950 . S
H5165 C5171 0.950 . S
H5166 C5172 0.949 . S
C5167 H5162 0.950 . S
C5167 C5169 1.327 . S
C5167 C5173 1.429 . S
C5168 C5160 1.574 . S
C5168 H5163 0.949 . S
C5168 C5174 1.368 . S
C5169 C5153 1.349 . S
C5169 H5161 0.950 . S
C5169 C5167 1.327 . S
C5170 C5158 1.349 . S
C5170 H5164 0.950 . S
C5170 C5171 1.327 . S
C5171 H5165 0.950 . S
C5171 C5170 1.327 . S
C5171 C5175 1.429 . S
C5172 C5155 1.574 . S
C5172 H5166 0.949 . S
C5172 C5176 1.368 . S
C5173 C5154 1.429 . S
C5173 C5167 1.429 . S
C5173 C5174 1.523 . S
C5174 C5155 1.368 . S
C5174 C5168 1.368 . S
C5174 C5173 1.523 . S
C5175 C5159 1.429 . S
C5175 C5171 1.429 . S
C5175 C5176 1.523 . S
C5176 C5160 1.368 . S
C5176 C5172 1.368 . S
C5176 C5175 1.523 . S
H5177 C5152 0.950 . S
H5178 C5154 0.950 . S
H5179 C5155 0.949 . S
H5180 C5157 0.950 . S
H5181 C5159 0.950 . S
C5182 C5183 1.349 . S
C5182 C5184 1.327 . S
C5182 H5207 0.950 . S
C5183 C5182 1.349 . S
C5183 C5199 1.349 . S
C5184 C5182 1.327 . S
C5184 C5203 1.429 . S
C5184 H5208 0.950 . S
C5185 C5202 1.574 . S
C5185 C5204 1.368 . S
C5185 H5209 0.949 . S
H5186 C5190 0.949 . S
C5187 C5188 1.349 . S
C5187 C5189 1.327 . S
C5187 H5210 0.950 . S
C5188 C5187 1.349 . S
C5188 C5200 1.349 . S
C5189 C5187 1.327 . S
C5189 C5205 1.429 . S
C5189 H5211 0.950 . S
C5190 H5186 0.949 . S
C5190 C5198 1.574 . S
C5190 C5206 1.368 . S
H5191 C5199 0.950 . S
H5192 C5197 0.950 . S
H5193 C5198 0.949 . S
H5194 C5200 0.950 . S
H5195 C5201 0.950 . S
H5196 C5202 0.949 . S
C5197 H5192 0.950 . S
C5197 C5199 1.327 . S
C5197 C5203 1.429 . S
C5198 C5190 1.574 . S
C5198 H5193 0.949 . S
C5198 C5204 1.368 . S
C5199 C5183 1.349 . S
C5199 H5191 0.950 . S
C5199 C5197 1.327 . S
C5200 C5188 1.349 . S
C5200 H5194 0.950 . S
C5200 C5201 1.327 . S
C5201 H5195 0.950 . S
C5201 C5200 1.327 . S
C5201 C5205 1.429 . S
C5202 C5185 1.574 . S
C5202 H5196 0.949 . S
C5202 C5206 1.368 . S
C5203 C5184 1.429 . S
C5203 C5197 1.429 . S
C5203 C5204 1.523 . S
C5204 C5185 1.368 . S
C5204 C5198 1.368 . S
C5204 C5203 1.523 . S
C5205 C5189 1.429 . S
C5205 C5201 1.429 . S
C5205 C5206 1.523 . S
C5206 C5190 1.368 . S
C5206 C5202 1.368 . S
C5206 C5205 1.523 . S
H5207 C5182 0.950 . S
H5208 C5184 0.950 . S
H5209 C5185 0.949 . S
H5210 C5187 0.950 . S
H5211 C5189 0.950 . S
C5212 C5213 1.351 . S
C5212 C5214 1.327 . S
C5212 H5237 0.950 . S
C5213 C5212 1.351 . S
C5213 C5229 1.346 1_655 S
C5214 C5212 1.327 . S
C5214 C5233 1.429 1_655 S
C5214 H5238 0.950 . S
C5215 C5232 1.574 . S
C5215 C5234 1.368 . S
C5215 H5239 0.949 . S
H5216 C5220 0.949 . S
C5217 C5218 1.349 . S
C5217 C5219 1.327 . S
C5217 H5240 0.950 . S
C5218 C5217 1.349 . S
C5218 C5230 1.349 . S
C5219 C5217 1.327 . S
C5219 C5235 1.429 . S
C5219 H5241 0.950 . S
C5220 H5216 0.949 . S
C5220 C5228 1.574 . S
C5220 C5236 1.368 . S
H5221 C5229 0.950 . S
H5222 C5227 0.950 . S
H5223 C5228 0.949 1_655 S
H5224 C5230 0.950 . S
H5225 C5231 0.950 . S
H5226 C5232 0.949 . S
C5227 H5222 0.950 . S
C5227 C5229 1.327 . S
C5227 C5233 1.429 . S
C5228 C5220 1.574 . S
C5228 H5223 0.949 1_455 S
C5228 C5234 1.368 . S
C5229 C5213 1.346 1_455 S
C5229 H5221 0.950 . S
C5229 C5227 1.327 . S
C5230 C5218 1.349 . S
C5230 H5224 0.950 . S
C5230 C5231 1.327 . S
C5231 H5225 0.950 . S
C5231 C5230 1.327 . S
C5231 C5235 1.429 . S
C5232 C5215 1.574 . S
C5232 H5226 0.949 . S
C5232 C5236 1.368 . S
C5233 C5214 1.429 1_455 S
C5233 C5227 1.429 . S
C5233 C5234 1.523 . S
C5234 C5215 1.368 . S
C5234 C5228 1.368 . S
C5234 C5233 1.523 . S
C5235 C5219 1.429 . S
C5235 C5231 1.429 . S
C5235 C5236 1.523 . S
C5236 C5220 1.368 . S
C5236 C5232 1.368 . S
C5236 C5235 1.523 . S
H5237 C5212 0.950 . S
H5238 C5214 0.950 . S
H5239 C5215 0.949 . S
H5240 C5217 0.950 . S
H5241 C5219 0.950 . S
C5242 C5243 1.349 . S
C5242 C5244 1.327 . S
C5242 H5267 0.950 . S
C5243 C5242 1.349 . S
C5243 C5259 1.349 . S
C5244 C5242 1.327 . S
C5244 C5263 1.429 . S
C5244 H5268 0.950 . S
C5245 C5262 1.574 . S
C5245 C5264 1.368 . S
C5245 H5269 0.949 . S
H5246 C5250 0.949 . S
C5247 C5248 1.349 . S
C5247 C5249 1.327 . S
C5247 H5270 0.950 . S
C5248 C5247 1.349 . S
C5248 C5260 1.349 . S
C5249 C5247 1.327 . S
C5249 C5265 1.429 . S
C5249 H5271 0.950 . S
C5250 H5246 0.949 . S
C5250 C5258 1.574 . S
C5250 C5266 1.368 . S
H5251 C5259 0.950 . S
H5252 C5257 0.950 . S
H5253 C5258 0.949 . S
H5254 C5260 0.950 . S
H5255 C5261 0.950 . S
H5256 C5262 0.949 . S
C5257 H5252 0.950 . S
C5257 C5259 1.327 . S
C5257 C5263 1.429 . S
C5258 C5250 1.574 . S
C5258 H5253 0.949 . S
C5258 C5264 1.368 . S
C5259 C5243 1.349 . S
C5259 H5251 0.950 . S
C5259 C5257 1.327 . S
C5260 C5248 1.349 . S
C5260 H5254 0.950 . S
C5260 C5261 1.327 . S
C5261 H5255 0.950 . S
C5261 C5260 1.327 . S
C5261 C5265 1.429 . S
C5262 C5245 1.574 . S
C5262 H5256 0.949 . S
C5262 C5266 1.368 . S
C5263 C5244 1.429 . S
C5263 C5257 1.429 . S
C5263 C5264 1.523 . S
C5264 C5245 1.368 . S
C5264 C5258 1.368 . S
C5264 C5263 1.523 . S
C5265 C5249 1.429 . S
C5265 C5261 1.429 . S
C5265 C5266 1.523 . S
C5266 C5250 1.368 . S
C5266 C5262 1.368 . S
C5266 C5265 1.523 . S
H5267 C5242 0.950 . S
H5268 C5244 0.950 . S
H5269 C5245 0.949 . S
H5270 C5247 0.950 . S
H5271 C5249 0.950 . S
C5272 C5273 1.349 . S
C5272 C5274 1.327 . S
C5272 H5297 0.950 . S
C5273 C5272 1.349 . S
C5273 C5289 1.349 . S
C5274 C5272 1.327 . S
C5274 C5293 1.429 . S
C5274 H5298 0.950 . S
C5275 C5292 1.574 . S
C5275 C5294 1.368 . S
C5275 H5299 0.949 . S
H5276 C5280 0.949 . S
C5277 C5278 1.349 . S
C5277 C5279 1.327 . S
C5277 H5300 0.950 . S
C5278 C5277 1.349 . S
C5278 C5290 1.349 . S
C5279 C5277 1.327 . S
C5279 C5295 1.429 . S
C5279 H5301 0.950 . S
C5280 H5276 0.949 . S
C5280 C5288 1.574 . S
C5280 C5296 1.368 . S
H5281 C5289 0.950 . S
H5282 C5287 0.950 . S
H5283 C5288 0.949 . S
H5284 C5290 0.950 . S
H5285 C5291 0.950 . S
H5286 C5292 0.949 . S
C5287 H5282 0.950 . S
C5287 C5289 1.327 . S
C5287 C5293 1.429 . S
C5288 C5280 1.574 . S
C5288 H5283 0.949 . S
C5288 C5294 1.368 . S
C5289 C5273 1.349 . S
C5289 H5281 0.950 . S
C5289 C5287 1.327 . S
C5290 C5278 1.349 . S
C5290 H5284 0.950 . S
C5290 C5291 1.327 . S
C5291 H5285 0.950 . S
C5291 C5290 1.327 . S
C5291 C5295 1.429 . S
C5292 C5275 1.574 . S
C5292 H5286 0.949 . S
C5292 C5296 1.368 . S
C5293 C5274 1.429 . S
C5293 C5287 1.429 . S
C5293 C5294 1.523 . S
C5294 C5275 1.368 . S
C5294 C5288 1.368 . S
C5294 C5293 1.523 . S
C5295 C5279 1.429 . S
C5295 C5291 1.429 . S
C5295 C5296 1.523 . S
C5296 C5280 1.368 . S
C5296 C5292 1.368 . S
C5296 C5295 1.523 . S
H5297 C5272 0.950 . S
H5298 C5274 0.950 . S
H5299 C5275 0.949 . S
H5300 C5277 0.950 . S
H5301 C5279 0.950 . S
C5302 C5303 1.349 . S
C5302 C5304 1.327 . S
C5302 H5327 0.950 . S
C5303 C5302 1.349 . S
C5303 C5319 1.349 . S
C5304 C5302 1.327 . S
C5304 C5323 1.429 . S
C5304 H5328 0.950 . S
C5305 C5322 1.574 . S
C5305 C5324 1.368 . S
C5305 H5329 0.949 . S
H5306 C5310 0.949 . S
C5307 C5308 1.349 . S
C5307 C5309 1.327 . S
C5307 H5330 0.950 . S
C5308 C5307 1.349 . S
C5308 C5320 1.349 . S
C5309 C5307 1.327 . S
C5309 C5325 1.429 . S
C5309 H5331 0.950 . S
C5310 H5306 0.949 . S
C5310 C5318 1.574 . S
C5310 C5326 1.368 . S
H5311 C5319 0.950 . S
H5312 C5317 0.950 . S
H5313 C5318 0.949 . S
H5314 C5320 0.950 . S
H5315 C5321 0.950 . S
H5316 C5322 0.949 . S
C5317 H5312 0.950 . S
C5317 C5319 1.327 . S
C5317 C5323 1.429 . S
C5318 C5310 1.574 . S
C5318 H5313 0.949 . S
C5318 C5324 1.368 . S
C5319 C5303 1.349 . S
C5319 H5311 0.950 . S
C5319 C5317 1.327 . S
C5320 C5308 1.349 . S
C5320 H5314 0.950 . S
C5320 C5321 1.327 . S
C5321 H5315 0.950 . S
C5321 C5320 1.327 . S
C5321 C5325 1.429 . S
C5322 C5305 1.574 . S
C5322 H5316 0.949 . S
C5322 C5326 1.368 . S
C5323 C5304 1.429 . S
C5323 C5317 1.429 . S
C5323 C5324 1.523 . S
C5324 C5305 1.368 . S
C5324 C5318 1.368 . S
C5324 C5323 1.523 . S
C5325 C5309 1.429 . S
C5325 C5321 1.429 . S
C5325 C5326 1.523 . S
C5326 C5310 1.368 . S
C5326 C5322 1.368 . S
C5326 C5325 1.523 . S
H5327 C5302 0.950 . S
H5328 C5304 0.950 . S
H5329 C5305 0.949 . S
H5330 C5307 0.950 . S
H5331 C5309 0.950 . S
C5332 C5333 1.349 1_455 S
C5332 C5334 1.327 . S
C5332 H5357 0.950 . S
C5333 C5332 1.349 1_655 S
C5333 C5349 1.349 . S
C5334 C5332 1.327 . S
C5334 C5353 1.429 1_455 S
C5334 H5358 0.950 . S
C5335 C5352 1.574 . S
C5335 C5354 1.368 . S
C5335 H5359 0.949 . S
H5336 C5340 0.949 . S
C5337 C5338 1.349 . S
C5337 C5339 1.327 . S
C5337 H5360 0.950 . S
C5338 C5337 1.349 . S
C5338 C5350 1.349 1_655 S
C5339 C5337 1.327 . S
C5339 C5355 1.429 . S
C5339 H5361 0.950 . S
C5340 H5336 0.949 . S
C5340 C5348 1.574 . S
C5340 C5356 1.368 1_455 S
H5341 C5349 0.950 . S
H5342 C5347 0.950 . S
H5343 C5348 0.949 . S
H5344 C5350 0.950 . S
H5345 C5351 0.950 . S
H5346 C5352 0.949 . S
C5347 H5342 0.950 . S
C5347 C5349 1.327 . S
C5347 C5353 1.429 . S
C5348 C5340 1.574 . S
C5348 H5343 0.949 . S
C5348 C5354 1.368 1_455 S
C5349 C5333 1.349 . S
C5349 H5341 0.950 . S
C5349 C5347 1.327 . S
C5350 C5338 1.349 1_455 S
C5350 H5344 0.950 . S
C5350 C5351 1.327 . S
C5351 H5345 0.950 . S
C5351 C5350 1.327 . S
C5351 C5355 1.429 1_455 S
C5352 C5335 1.574 . S
C5352 H5346 0.949 . S
C5352 C5356 1.368 . S
C5353 C5334 1.429 1_655 S
C5353 C5347 1.429 . S
C5353 C5354 1.523 . S
C5354 C5335 1.368 . S
C5354 C5348 1.368 1_655 S
C5354 C5353 1.523 . S
C5355 C5339 1.429 . S
C5355 C5351 1.429 1_655 S
C5355 C5356 1.523 . S
C5356 C5340 1.368 1_655 S
C5356 C5352 1.368 . S
C5356 C5355 1.523 . S
H5357 C5332 0.950 . S
H5358 C5334 0.950 . S
H5359 C5335 0.949 . S
H5360 C5337 0.950 . S
H5361 C5339 0.950 . S
C5362 C5363 1.349 . S
C5362 C5364 1.327 . S
C5362 H5387 0.950 . S
C5363 C5362 1.349 . S
C5363 C5379 1.349 . S
C5364 C5362 1.327 . S
C5364 C5383 1.429 . S
C5364 H5388 0.950 . S
C5365 C5382 1.574 . S
C5365 C5384 1.368 . S
C5365 H5389 0.949 . S
H5366 C5370 0.949 . S
C5367 C5368 1.349 . S
C5367 C5369 1.327 . S
C5367 H5390 0.950 . S
C5368 C5367 1.349 . S
C5368 C5380 1.349 . S
C5369 C5367 1.327 . S
C5369 C5385 1.429 . S
C5369 H5391 0.950 . S
C5370 H5366 0.949 . S
C5370 C5378 1.574 . S
C5370 C5386 1.368 . S
H5371 C5379 0.950 . S
H5372 C5377 0.950 . S
H5373 C5378 0.949 . S
H5374 C5380 0.950 . S
H5375 C5381 0.950 . S
H5376 C5382 0.949 . S
C5377 H5372 0.950 . S
C5377 C5379 1.327 . S
C5377 C5383 1.429 . S
C5378 C5370 1.574 . S
C5378 H5373 0.949 . S
C5378 C5384 1.368 . S
C5379 C5363 1.349 . S
C5379 H5371 0.950 . S
C5379 C5377 1.327 . S
C5380 C5368 1.349 . S
C5380 H5374 0.950 . S
C5380 C5381 1.327 . S
C5381 H5375 0.950 . S
C5381 C5380 1.327 . S
C5381 C5385 1.429 . S
C5382 C5365 1.574 . S
C5382 H5376 0.949 . S
C5382 C5386 1.368 . S
C5383 C5364 1.429 . S
C5383 C5377 1.429 . S
C5383 C5384 1.523 . S
C5384 C5365 1.368 . S
C5384 C5378 1.368 . S
C5384 C5383 1.523 . S
C5385 C5369 1.429 . S
C5385 C5381 1.429 . S
C5385 C5386 1.523 . S
C5386 C5370 1.368 . S
C5386 C5382 1.368 . S
C5386 C5385 1.523 . S
H5387 C5362 0.950 . S
H5388 C5364 0.950 . S
H5389 C5365 0.949 . S
H5390 C5367 0.950 . S
H5391 C5369 0.950 . S
C5392 C5393 1.349 . S
C5392 C5394 1.327 . S
C5392 H5417 0.950 . S
C5393 C5392 1.349 . S
C5393 C5409 1.349 . S
C5394 C5392 1.327 . S
C5394 C5413 1.429 . S
C5394 H5418 0.950 . S
C5395 C5412 1.574 . S
C5395 C5414 1.368 . S
C5395 H5419 0.949 . S
H5396 C5400 0.949 . S
C5397 C5398 1.349 . S
C5397 C5399 1.327 . S
C5397 H5420 0.950 . S
C5398 C5397 1.349 . S
C5398 C5410 1.349 . S
C5399 C5397 1.327 . S
C5399 C5415 1.429 . S
C5399 H5421 0.950 . S
C5400 H5396 0.949 . S
C5400 C5408 1.574 . S
C5400 C5416 1.368 . S
H5401 C5409 0.950 . S
H5402 C5407 0.950 . S
H5403 C5408 0.949 . S
H5404 C5410 0.950 . S
H5405 C5411 0.950 . S
H5406 C5412 0.949 . S
C5407 H5402 0.950 . S
C5407 C5409 1.327 . S
C5407 C5413 1.429 . S
C5408 C5400 1.574 . S
C5408 H5403 0.949 . S
C5408 C5414 1.368 . S
C5409 C5393 1.349 . S
C5409 H5401 0.950 . S
C5409 C5407 1.327 . S
C5410 C5398 1.349 . S
C5410 H5404 0.950 . S
C5410 C5411 1.327 . S
C5411 H5405 0.950 . S
C5411 C5410 1.327 . S
C5411 C5415 1.429 . S
C5412 C5395 1.574 . S
C5412 H5406 0.949 . S
C5412 C5416 1.368 . S
C5413 C5394 1.429 . S
C5413 C5407 1.429 . S
C5413 C5414 1.523 . S
C5414 C5395 1.368 . S
C5414 C5408 1.368 . S
C5414 C5413 1.523 . S
C5415 C5399 1.429 . S
C5415 C5411 1.429 . S
C5415 C5416 1.523 . S
C5416 C5400 1.368 . S
C5416 C5412 1.368 . S
C5416 C5415 1.523 . S
H5417 C5392 0.950 . S
H5418 C5394 0.950 . S
H5419 C5395 0.949 . S
H5420 C5397 0.950 . S
H5421 C5399 0.950 . S
C5422 C5423 1.349 . S
C5422 C5424 1.327 . S
C5422 H5447 0.950 . S
C5423 C5422 1.349 . S
C5423 C5439 1.349 . S
C5424 C5422 1.327 . S
C5424 C5443 1.429 . S
C5424 H5448 0.950 . S
C5425 C5442 1.574 . S
C5425 C5444 1.368 . S
C5425 H5449 0.949 . S
H5426 C5430 0.949 . S
C5427 C5428 1.346 . S
C5427 C5429 1.327 . S
C5427 H5450 0.931 1_565 S
C5428 C5427 1.346 . S
C5428 C5440 1.375 . S
C5429 C5427 1.327 . S
C5429 C5445 1.429 . S
C5429 H5451 0.950 . S
C5430 H5426 0.949 . S
C5430 C5438 1.574 . S
C5430 C5446 1.368 . S
H5431 C5439 0.950 . S
H5432 C5437 0.950 . S
H5433 C5438 0.949 . S
H5434 C5440 0.950 . S
H5435 C5441 0.950 . S
H5436 C5442 0.949 . S
C5437 H5432 0.950 . S
C5437 C5439 1.327 . S
C5437 C5443 1.429 . S
C5438 C5430 1.574 . S
C5438 H5433 0.949 . S
C5438 C5444 1.368 . S
C5439 C5423 1.349 . S
C5439 H5431 0.950 . S
C5439 C5437 1.327 . S
C5440 C5428 1.375 . S
C5440 H5434 0.950 . S
C5440 C5441 1.327 . S
C5441 H5435 0.950 . S
C5441 C5440 1.327 . S
C5441 C5445 1.429 . S
C5442 C5425 1.574 . S
C5442 H5436 0.949 . S
C5442 C5446 1.368 . S
C5443 C5424 1.429 . S
C5443 C5437 1.429 . S
C5443 C5444 1.523 . S
C5444 C5425 1.368 . S
C5444 C5438 1.368 . S
C5444 C5443 1.523 . S
C5445 C5429 1.429 . S
C5445 C5441 1.429 . S
C5445 C5446 1.523 . S
C5446 C5430 1.368 . S
C5446 C5442 1.368 . S
C5446 C5445 1.523 . S
H5447 C5422 0.950 . S
H5448 C5424 0.950 . S
H5449 C5425 0.949 . S
H5450 C5427 0.931 1_545 S
H5451 C5429 0.950 . S
C5452 C5453 1.349 . S
C5452 C5454 1.327 . S
C5452 H5477 0.950 . S
C5453 C5452 1.349 . S
C5453 C5469 1.349 . S
C5454 C5452 1.327 . S
C5454 C5473 1.429 . S
C5454 H5478 0.950 . S
C5455 C5472 1.574 . S
C5455 C5474 1.368 . S
C5455 H5479 0.949 . S
H5456 C5460 0.949 . S
C5457 C5458 1.349 . S
C5457 C5459 1.327 . S
C5457 H5480 0.950 . S
C5458 C5457 1.349 . S
C5458 C5470 1.349 . S
C5459 C5457 1.327 . S
C5459 C5475 1.429 . S
C5459 H5481 0.950 . S
C5460 H5456 0.949 . S
C5460 C5468 1.574 . S
C5460 C5476 1.368 . S
H5461 C5469 0.950 . S
H5462 C5467 0.950 . S
H5463 C5468 0.949 . S
H5464 C5470 0.950 . S
H5465 C5471 0.950 . S
H5466 C5472 0.949 . S
C5467 H5462 0.950 . S
C5467 C5469 1.327 . S
C5467 C5473 1.429 . S
C5468 C5460 1.574 . S
C5468 H5463 0.949 . S
C5468 C5474 1.368 . S
C5469 C5453 1.349 . S
C5469 H5461 0.950 . S
C5469 C5467 1.327 . S
C5470 C5458 1.349 . S
C5470 H5464 0.950 . S
C5470 C5471 1.327 . S
C5471 H5465 0.950 . S
C5471 C5470 1.327 . S
C5471 C5475 1.429 . S
C5472 C5455 1.574 . S
C5472 H5466 0.949 . S
C5472 C5476 1.368 . S
C5473 C5454 1.429 . S
C5473 C5467 1.429 . S
C5473 C5474 1.523 . S
C5474 C5455 1.368 . S
C5474 C5468 1.368 . S
C5474 C5473 1.523 . S
C5475 C5459 1.429 . S
C5475 C5471 1.429 . S
C5475 C5476 1.523 . S
C5476 C5460 1.368 . S
C5476 C5472 1.368 . S
C5476 C5475 1.523 . S
H5477 C5452 0.950 . S
H5478 C5454 0.950 . S
H5479 C5455 0.949 . S
H5480 C5457 0.950 . S
H5481 C5459 0.950 . S
C5482 C5483 1.349 . S
C5482 C5484 1.327 . S
C5482 H5507 0.950 . S
C5483 C5482 1.349 . S
C5483 C5499 1.349 . S
C5484 C5482 1.327 . S
C5484 C5503 1.431 . S
C5484 H5508 0.950 . S
C5485 C5502 1.574 . S
C5485 C5504 1.368 . S
C5485 H5509 0.949 . S
H5486 C5490 0.949 . S
C5487 C5488 1.349 . S
C5487 C5489 1.327 . S
C5487 H5510 0.950 . S
C5488 C5487 1.349 . S
C5488 C5500 1.349 . S
C5489 C5487 1.327 . S
C5489 C5505 1.429 . S
C5489 H5511 0.950 . S
C5490 H5486 0.949 . S
C5490 C5498 1.574 . S
C5490 C5506 1.368 . S
H5491 C5499 0.950 . S
H5492 C5497 0.950 . S
H5493 C5498 0.943 1_556 S
H5494 C5500 0.950 . S
H5495 C5501 0.950 . S
H5496 C5502 0.949 . S
C5497 H5492 0.950 . S
C5497 C5499 1.326 1_554 S
C5497 C5503 1.429 1_554 S
C5498 C5490 1.574 . S
C5498 H5493 0.943 1_554 S
C5498 C5504 1.368 . S
C5499 C5483 1.349 . S
C5499 H5491 0.950 . S
C5499 C5497 1.326 1_556 S
C5500 C5488 1.349 . S
C5500 H5494 0.950 . S
C5500 C5501 1.327 . S
C5501 H5495 0.950 . S
C5501 C5500 1.327 . S
C5501 C5505 1.429 . S
C5502 C5485 1.574 . S
C5502 H5496 0.949 . S
C5502 C5506 1.368 . S
C5503 C5484 1.431 . S
C5503 C5497 1.429 1_556 S
C5503 C5504 1.520 1_556 S
C5504 C5485 1.368 . S
C5504 C5498 1.368 . S
C5504 C5503 1.520 1_554 S
C5505 C5489 1.429 . S
C5505 C5501 1.429 . S
C5505 C5506 1.523 . S
C5506 C5490 1.368 . S
C5506 C5502 1.368 . S
C5506 C5505 1.523 . S
H5507 C5482 0.950 . S
H5508 C5484 0.950 . S
H5509 C5485 0.949 . S
H5510 C5487 0.950 . S
H5511 C5489 0.950 . S
C5512 C5513 1.349 . S
C5512 C5514 1.327 . S
C5512 H5537 0.950 . S
C5513 C5512 1.349 . S
C5513 C5529 1.349 . S
C5514 C5512 1.327 . S
C5514 C5533 1.429 . S
C5514 H5538 0.950 . S
C5515 C5532 1.574 . S
C5515 C5534 1.368 . S
C5515 H5539 0.949 . S
H5516 C5520 0.949 . S
C5517 C5518 1.349 . S
C5517 C5519 1.327 . S
C5517 H5540 0.950 . S
C5518 C5517 1.349 . S
C5518 C5530 1.349 . S
C5519 C5517 1.327 . S
C5519 C5535 1.429 . S
C5519 H5541 0.950 . S
C5520 H5516 0.949 . S
C5520 C5528 1.574 . S
C5520 C5536 1.368 . S
H5521 C5529 0.950 . S
H5522 C5527 0.950 . S
H5523 C5528 0.949 . S
H5524 C5530 0.950 . S
H5525 C5531 0.950 . S
H5526 C5532 0.949 . S
C5527 H5522 0.950 . S
C5527 C5529 1.327 . S
C5527 C5533 1.429 . S
C5528 C5520 1.574 . S
C5528 H5523 0.949 . S
C5528 C5534 1.368 . S
C5529 C5513 1.349 . S
C5529 H5521 0.950 . S
C5529 C5527 1.327 . S
C5530 C5518 1.349 . S
C5530 H5524 0.950 . S
C5530 C5531 1.327 . S
C5531 H5525 0.950 . S
C5531 C5530 1.327 . S
C5531 C5535 1.429 . S
C5532 C5515 1.574 . S
C5532 H5526 0.949 . S
C5532 C5536 1.368 . S
C5533 C5514 1.429 . S
C5533 C5527 1.429 . S
C5533 C5534 1.523 . S
C5534 C5515 1.368 . S
C5534 C5528 1.368 . S
C5534 C5533 1.523 . S
C5535 C5519 1.429 . S
C5535 C5531 1.429 . S
C5535 C5536 1.523 . S
C5536 C5520 1.368 . S
C5536 C5532 1.368 . S
C5536 C5535 1.523 . S
H5537 C5512 0.950 . S
H5538 C5514 0.950 . S
H5539 C5515 0.949 . S
H5540 C5517 0.950 . S
H5541 C5519 0.950 . S
C5542 C5543 1.349 . S
C5542 C5544 1.327 . S
C5542 H5567 0.950 . S
C5543 C5542 1.349 . S
C5543 C5559 1.349 . S
C5544 C5542 1.327 . S
C5544 C5563 1.429 . S
C5544 H5568 0.950 . S
C5545 C5562 1.574 . S
C5545 C5564 1.368 . S
C5545 H5569 0.901 1_554 S
H5546 C5550 0.949 . S
C5547 C5548 1.349 . S
C5547 C5549 1.327 . S
C5547 H5570 0.950 1_554 S
C5548 C5547 1.349 . S
C5548 C5560 1.349 . S
C5549 C5547 1.327 . S
C5549 C5565 1.429 . S
C5549 H5571 0.950 1_554 S
C5550 H5546 0.949 . S
C5550 C5558 1.574 . S
C5550 C5566 1.368 . S
H5551 C5559 0.950 . S
H5552 C5557 0.945 1_556 S
H5553 C5558 0.949 . S
H5554 C5560 0.950 . S
H5555 C5561 0.950 . S
H5556 C5562 0.949 1_556 S
C5557 H5552 0.945 1_554 S
C5557 C5559 1.327 . S
C5557 C5563 1.429 . S
C5558 C5550 1.574 . S
C5558 H5553 0.949 . S
C5558 C5564 1.368 . S
C5559 C5543 1.349 . S
C5559 H5551 0.950 . S
C5559 C5557 1.327 . S
C5560 C5548 1.349 . S
C5560 H5554 0.950 . S
C5560 C5561 1.327 . S
C5561 H5555 0.950 . S
C5561 C5560 1.327 . S
C5561 C5565 1.429 . S
C5562 C5545 1.574 . S
C5562 H5556 0.949 1_554 S
C5562 C5566 1.368 . S
C5563 C5544 1.429 . S
C5563 C5557 1.429 . S
C5563 C5564 1.523 . S
C5564 C5545 1.368 . S
C5564 C5558 1.368 . S
C5564 C5563 1.523 . S
C5565 C5549 1.429 . S
C5565 C5561 1.429 . S
C5565 C5566 1.523 . S
C5566 C5550 1.368 . S
C5566 C5562 1.368 . S
C5566 C5565 1.523 . S
H5567 C5542 0.950 . S
H5568 C5544 0.950 . S
H5569 C5545 0.901 1_556 S
H5570 C5547 0.950 1_556 S
H5571 C5549 0.950 1_556 S
C5572 C5573 1.349 . S
C5572 C5574 1.327 . S
C5572 H5597 0.950 . S
C5573 C5572 1.349 . S
C5573 C5589 1.349 . S
C5574 C5572 1.327 . S
C5574 C5593 1.429 . S
C5574 H5598 0.950 . S
C5575 C5592 1.574 . S
C5575 C5594 1.368 . S
C5575 H5599 0.949 . S
H5576 C5580 0.949 . S
C5577 C5578 1.349 . S
C5577 C5579 1.327 . S
C5577 H5600 0.950 . S
C5578 C5577 1.349 . S
C5578 C5590 1.349 . S
C5579 C5577 1.327 . S
C5579 C5595 1.429 . S
C5579 H5601 0.950 . S
C5580 H5576 0.949 . S
C5580 C5588 1.574 . S
C5580 C5596 1.368 . S
H5581 C5589 0.950 . S
H5582 C5587 0.950 . S
H5583 C5588 0.949 . S
H5584 C5590 0.950 . S
H5585 C5591 0.950 . S
H5586 C5592 0.949 . S
C5587 H5582 0.950 . S
C5587 C5589 1.327 . S
C5587 C5593 1.429 . S
C5588 C5580 1.574 . S
C5588 H5583 0.949 . S
C5588 C5594 1.368 . S
C5589 C5573 1.349 . S
C5589 H5581 0.950 . S
C5589 C5587 1.327 . S
C5590 C5578 1.349 . S
C5590 H5584 0.950 . S
C5590 C5591 1.327 . S
C5591 H5585 0.950 . S
C5591 C5590 1.327 . S
C5591 C5595 1.429 . S
C5592 C5575 1.574 . S
C5592 H5586 0.949 . S
C5592 C5596 1.368 . S
C5593 C5574 1.429 . S
C5593 C5587 1.429 . S
C5593 C5594 1.523 . S
C5594 C5575 1.368 . S
C5594 C5588 1.368 . S
C5594 C5593 1.523 . S
C5595 C5579 1.429 . S
C5595 C5591 1.429 . S
C5595 C5596 1.523 . S
C5596 C5580 1.368 . S
C5596 C5592 1.368 . S
C5596 C5595 1.523 . S
H5597 C5572 0.950 . S
H5598 C5574 0.950 . S
H5599 C5575 0.949 . S
H5600 C5577 0.950 . S
H5601 C5579 0.950 . S
C5602 C5603 1.349 . S
C5602 C5604 1.327 . S
C5602 H5627 0.950 . S
C5603 C5602 1.349 . S
C5603 C5619 1.349 . S
C5604 C5602 1.327 . S
C5604 C5623 1.429 . S
C5604 H5628 0.950 . S
C5605 C5622 1.574 . S
C5605 C5624 1.368 . S
C5605 H5629 0.949 . S
H5606 C5610 0.949 . S
C5607 C5608 1.349 . S
C5607 C5609 1.327 . S
C5607 H5630 0.950 . S
C5608 C5607 1.349 . S
C5608 C5620 1.349 . S
C5609 C5607 1.327 . S
C5609 C5625 1.429 . S
C5609 H5631 0.950 . S
C5610 H5606 0.949 . S
C5610 C5618 1.574 . S
C5610 C5626 1.368 . S
H5611 C5619 0.950 . S
H5612 C5617 0.950 . S
H5613 C5618 0.949 . S
H5614 C5620 0.950 . S
H5615 C5621 0.950 . S
H5616 C5622 0.949 . S
C5617 H5612 0.950 . S
C5617 C5619 1.327 . S
C5617 C5623 1.429 . S
C5618 C5610 1.574 . S
C5618 H5613 0.949 . S
C5618 C5624 1.368 . S
C5619 C5603 1.349 . S
C5619 H5611 0.950 . S
C5619 C5617 1.327 . S
C5620 C5608 1.349 . S
C5620 H5614 0.950 . S
C5620 C5621 1.327 . S
C5621 H5615 0.950 . S
C5621 C5620 1.327 . S
C5621 C5625 1.429 . S
C5622 C5605 1.574 . S
C5622 H5616 0.949 . S
C5622 C5626 1.368 . S
C5623 C5604 1.429 . S
C5623 C5617 1.429 . S
C5623 C5624 1.523 . S
C5624 C5605 1.368 . S
C5624 C5618 1.368 . S
C5624 C5623 1.523 . S
C5625 C5609 1.429 . S
C5625 C5621 1.429 . S
C5625 C5626 1.523 . S
C5626 C5610 1.368 . S
C5626 C5622 1.368 . S
C5626 C5625 1.523 . S
H5627 C5602 0.950 . S
H5628 C5604 0.950 . S
H5629 C5605 0.949 . S
H5630 C5607 0.950 . S
H5631 C5609 0.950 . S
C2753 C665 1.570 . S
C2758 C2134 1.551 . S
C2783 C381 1.026 . S
C2788 C2154 1.014 . S
C2813 C460 0.328 . S
C2818 C2201 0.312 . S
C2848 C2258 0.943 . S
C2843 C585 0.949 . S
C2873 C108 2.567 . S
C2878 C2275 2.556 . S
C2908 C2334 1.542 . S
C2903 C196 1.524 . S
C2938 C2367 2.608 . S
C2933 C313 2.613 . S
C2963 C49 2.431 . S
C2968 C2414 2.429 . S
C2998 C2127 1.164 . S
C2993 C1457 1.172 . S
C3023 C1545 1.107 . S
C3028 C2155 1.101 . S
C3058 C2194 0.772 . S
C3053 C1721 0.772 . S
C3088 C2254 1.933 . S
C3083 C1113 1.907 . S
C3113 C1428 0.178 . S
C3118 C2281 0.145 . S
C3148 C2327 2.408 . S
C3143 C1516 2.414 . S
C3178 C2378 0.577 . S
C3173 C1692 0.539 . S
C3208 C2407 2.231 . S
C3203 C1085 2.243 . S
C3238 C2138 1.518 . S
C3233 C988 1.537 . S
C3263 C1817 2.294 . S
C3268 C2434 2.271 . S
C3298 C2498 1.079 . S
C3293 C2081 1.082 . S
C3328 C2534 1.109 . S
C3323 C1993 1.097 . S
C3353 C761 0.953 . S
C3358 C2418 0.947 . S
C3383 C821 2.469 . S
C3388 C2195 2.459 . S
C3413 C2053 1.397 . S
C3418 C2567 1.403 . S
C3448 C2601 0.297 . S
C3443 C1868 0.212 . S
C3478 C2115 1.549 . S
C3473 C372 1.557 . S
C3508 C2607 1.010 . S
C3503 C645 1.026 . S
C3533 C577 0.321 . S
C3538 C2218 0.306 . S
C3563 C497 0.946 . S
C3568 C2561 0.939 . S
C3598 C2294 2.550 . S
C3593 C57 2.562 . S
C3623 C293 1.521 . S
C3628 C2475 1.537 . S
C3658 C2354 2.603 . S
C3653 C205 2.607 . S
C3688 C2635 2.426 . S
C3683 C145 2.429 . S
C3718 C2114 1.161 . S
C3713 C909 1.169 . S
C3748 C2614 1.092 . S
C3743 C1956 1.098 . S
C3773 C724 0.767 . S
C3778 C2207 0.767 . S
C3803 C1780 1.904 . S
C3808 C2555 1.927 . S
C3833 C937 0.173 . S
C3838 C2298 0.144 . S
C3868 C2474 2.402 . S
C3863 C1985 2.408 . S
C3893 C753 0.522 . S
C3898 C2361 0.592 . S
C3923 C1809 2.237 . S
C3928 C2634 2.227 . S
C3953 C1173 1.537 . S
C3958 C2121 1.516 . S
C3983 C1105 2.289 . S
C3988 C2447 2.268 . S
C4013 C1633 1.082 . S
C4018 C2321 1.076 . S
C4043 C1553 1.094 . S
C4048 C2515 1.095 . S
C4078 C2641 0.947 . S
C4073 C1729 0.962 . S
C4103 C1340 2.465 . S
C4108 C2214 2.455 1_565 S
C4138 C2234 1.398 . S
C4133 C1604 1.389 . S
C4168 C2178 0.300 . S
C4163 C1252 0.218 . S
C4193 C489 1.558 . S
C4198 C2694 1.553 . S
C4228 C2594 1.014 . S
C4223 C557 1.026 . S
C4253 C636 0.327 . S
C4258 C2721 0.315 . S
C4283 C409 0.949 1_655 S
C4288 C2578 0.943 . S
C4313 C284 2.567 . S
C4318 C2435 2.556 . S
C4348 C2494 1.542 . S
C4343 C20 1.524 . S
C4378 C2527 2.608 . S
C4373 C137 2.614 . S
C4408 C2654 2.429 . S
C4403 C225 2.431 . S
C4438 C2687 1.164 . S
C4433 C1641 1.172 . S
C4463 C1193 1.107 . S
C4468 C2595 1.106 . S
C4498 C2714 0.772 . S
C4493 C1289 0.772 . S
C4528 C2574 1.933 . S
C4523 C1377 1.907 . S
C4558 C2441 0.145 . S
C4553 C1613 0.178 . S
C4583 C1164 2.413 . S
C4588 C2487 2.402 . S
C4618 C2538 0.576 . S
C4613 C1261 0.533 . S
C4643 C1349 2.243 . S
C4648 C2647 2.230 . S
C4678 C2698 1.517 . S
C4673 C1965 1.536 . S
C4703 C849 2.293 . S
C4708 C2274 2.271 . S
C4738 C2338 1.078 . S
C4733 C929 1.082 . S
C4768 C2374 1.100 . S
C4763 C1017 1.097 . S
C4798 C2658 0.947 . S
C4793 C1897 0.953 . S
C4823 C1789 2.469 . S
C4828 C2715 2.459 1_655 S
C4858 C2247 1.403 . S
C4853 C900 1.397 . S
C4888 C2161 0.297 . S
C4883 C733 0.212 . S
C4913 C548 1.556 . S
C4918 C2675 1.549 . S
C4948 C2167 1.010 . S
C4943 C469 1.019 . S
C4973 C401 0.321 . S
C4978 C2738 0.306 . S
C5003 C673 0.946 . S
C5008 C2241 0.933 . S
C5033 C233 2.562 . S
C5038 C2454 2.551 1_556 S
C5068 C2315 1.536 . S
C5063 C117 1.521 . S
C5093 C29 2.606 . S
C5098 C2514 2.603 . S
C5123 C321 2.429 . S
C5128 C2395 2.425 . S
C5158 C2674 1.160 . S
C5153 C2044 1.169 . S
C5183 C997 1.098 . S
C5188 C2174 1.093 . S
C5218 C2727 0.768 . S
C5213 C1877 0.770 . S
C5243 C812 1.904 . S
C5248 C2235 1.927 . S
C5273 C2073 0.173 . S
C5278 C2458 0.144 . S
C5308 C2314 2.402 . S
C5303 C1025 2.408 . S
C5333 C1905 0.522 . S
C5338 C2521 0.580 1_655 S
C5368 C2394 2.226 . S
C5363 C841 2.237 . S
C5398 C2681 1.516 . S
C5393 C1525 1.537 . S
C5428 C2287 2.235 1_665 S
C5423 C1369 2.289 . S
C5453 C1465 1.081 . S
C5458 C2481 1.075 . S
C5488 C2355 1.095 . S
C5483 C1201 1.093 . S
C5513 C1281 0.954 . S
C5518 C2401 0.947 . S
C5543 C1076 2.465 . S
C5548 C2734 2.455 . S
C5578 C2554 1.398 . S
C5573 C1437 1.389 . S
C5608 C2618 0.301 . S
C5603 C1701 0.226 . S
