# Generated by pormake.
# Topology rtl, (3,6)-cn, num edge types: 1
# Building blocks:
#     Node 0, Type 0, BuildingBlock: OLANEW_clean_sbu_2, # of connection points: 3
#     Node 1, Type 0, BuildingBlock: OLANEW_clean_sbu_2, # of connection points: 3
#     Node 2, Type 0, BuildingBlock: OLANEW_clean_sbu_2, # of connection points: 3
#     Node 3, Type 0, BuildingBlock: OLANEW_clean_sbu_2, # of connection points: 3
#     Node 4, Type 1, BuildingBlock: KUMBOL_clean_sbu_1, # of connection points: 6
#     Node 5, Type 1, BuildingBlock: KUMBOL_clean_sbu_1, # of connection points: 6
#     Edge 6, Type (0, 1), BuildingBlock: EZIPEK_clean_linker_0, # of connection points: 2
#     Edge 7, Type (0, 1), BuildingBlock: EZIPEK_clean_linker_0, # of connection points: 2
#     Edge 8, Type (0, 1), BuildingBlock: EZIPEK_clean_linker_0, # of connection points: 2
#     Edge 9, Type (0, 1), BuildingBlock: EZIPEK_clean_linker_0, # of connection points: 2
#     Edge 10, Type (0, 1), BuildingBlock: EZIPEK_clean_linker_0, # of connection points: 2
#     Edge 11, Type (0, 1), BuildingBlock: EZIPEK_clean_linker_0, # of connection points: 2
#     Edge 12, Type (0, 1), BuildingBlock: EZIPEK_clean_linker_0, # of connection points: 2
#     Edge 13, Type (0, 1), BuildingBlock: EZIPEK_clean_linker_0, # of connection points: 2
#     Edge 14, Type (0, 1), BuildingBlock: EZIPEK_clean_linker_0, # of connection points: 2
#     Edge 15, Type (0, 1), BuildingBlock: EZIPEK_clean_linker_0, # of connection points: 2
#     Edge 16, Type (0, 1), BuildingBlock: EZIPEK_clean_linker_0, # of connection points: 2
#     Edge 17, Type (0, 1), BuildingBlock: EZIPEK_clean_linker_0, # of connection points: 2
# Relax obj value: 0.047
# Max RMSD: 0.180
# Mean RMSD: 0.140
data_MOF--net-rtl--node1-OLANEW_clean_sbu_2--node2-KUMBOL_clean_sbu_1--edge1-EZIPEK_clean_linker_0
_symmetry_space_group_name_H-M    P1
_symmetry_Int_Tables_number       1
_symmetry_cell_setting            triclinic
loop_
_symmetry_equiv_pos_as_xyz
'x, y, z'
_cell_length_a     28.326593
_cell_length_b     28.445715
_cell_length_c     22.569824
_cell_angle_alpha  71.185096
_cell_angle_beta   102.30234
_cell_angle_gamma 91.199551
loop_
_atom_site_label
_atom_site_type_symbol
_atom_site_fract_x
_atom_site_fract_y
_atom_site_fract_z
_atom_type_partial_charge
O0 O 0.20714 0.86303 0.94305 0.0
Cd1 Cd 0.27601 0.83903 0.03344 0.0
O2 O 0.20567 0.94069 0.94259 0.0
Cd3 Cd 0.24509 0.92232 0.04161 0.0
O4 O 0.21219 0.91547 0.12262 0.0
C5 C 0.19236 0.95449 0.12448 0.0
O6 O 0.19761 0.99775 0.08281 0.0
C7 C 0.19087 0.9079 0.91682 0.0
C8 C 0.33702 0.76673 0.02551 0.0
O9 O 0.30295 0.75486 0.05611 0.0
O10 O 0.34239 0.81292 0.99792 0.0
O11 O 0.63555 0.76952 0.76936 0.0
Cd12 Cd 0.66011 0.83496 0.68007 0.0
O13 O 0.6581 0.71142 0.73613 0.0
Cd14 Cd 0.66815 0.63991 0.72201 0.0
O15 O 0.68041 0.60338 0.65425 0.0
C16 C 0.65467 0.61985 0.59758 0.0
O17 O 0.62101 0.65512 0.58396 0.0
C18 C 0.63842 0.72359 0.77514 0.0
C19 C 0.75675 0.85244 0.67164 0.0
O20 O 0.73495 0.87589 0.6988 0.0
O21 O 0.7342 0.81864 0.65242 0.0
O22 O 0.73903 0.12945 0.23242 0.0
Cd23 Cd 0.68284 0.16091 0.12733 0.0
O24 O 0.79245 0.12578 0.17683 0.0
Cd25 Cd 0.86332 0.10801 0.16395 0.0
O26 O 0.914 0.10042 0.10686 0.0
C27 C 0.89857 0.07933 0.06518 0.0
O28 O 0.85554 0.06092 0.06191 0.0
C29 C 0.78204 0.11899 0.23089 0.0
C30 C 0.65027 0.25818 0.10305 0.0
O31 O 0.62511 0.2216 0.12637 0.0
O32 O 0.69006 0.24894 0.0896 0.0
O33 O 0.31131 0.31428 0.58767 0.0
Cd34 Cd 0.28697 0.273 0.50539 0.0
O35 O 0.33077 0.38054 0.51553 0.0
Cd36 Cd 0.31098 0.35558 0.43241 0.0
O37 O 0.33386 0.37433 0.33769 0.0
C38 C 0.37964 0.37626 0.34476 0.0
O39 O 0.33245 0.37497 0.33391 0.0
C40 C 0.32781 0.35755 0.57291 0.0
C41 C 0.21291 0.20634 0.5204 0.0
O42 O 0.20342 0.25232 0.48706 0.0
O43 O 0.25706 0.19187 0.54772 0.0
C44 C 0.87492 0.12869 0.48775 0.0
C45 C 0.79722 0.09155 0.49117 0.0
C46 C 0.84758 0.08987 0.51555 0.0
C47 C 0.7754 0.13118 0.43674 0.0
C48 C 0.853 0.16899 0.4339 0.0
C49 C 0.80323 0.16968 0.40806 0.0
N50 N 0.92328 0.12647 0.51258 0.0
C51 C 0.95134 0.16457 0.48881 0.0
C52 C 0.88186 0.20731 0.40748 0.0
C53 C 0.93114 0.20529 0.43542 0.0
Gd54 Gd 0.0202 0.96258 0.53194 0.0
Gd55 Gd 0.95404 0.05515 0.59897 0.0
N56 N 0.8699 0.05108 0.567 0.0
C57 C 0.7702 0.05358 0.52263 0.0
C58 C 0.84317 0.01615 0.60061 0.0
C59 C 0.79318 0.01619 0.57822 0.0
H60 H 0.85993 0.98872 0.64548 0.0
H61 H 0.77234 0.98769 0.60428 0.0
H62 H 0.11378 0.02452 0.47806 0.0
H63 H 0.9895 0.16275 0.51024 0.0
H64 H 0.20212 0.01171 0.49831 0.0
H65 H 0.73147 0.0535 0.50539 0.0
H66 H 0.7369 0.13265 0.41681 0.0
H67 H 0.9803 0.85456 0.61696 0.0
H68 H 0.86638 0.23878 0.36588 0.0
H69 H 0.95359 0.23497 0.41569 0.0
H70 H 0.23643 0.84833 0.65278 0.0
H71 H 0.78581 0.20007 0.36626 0.0
H72 H 0.10352 0.75584 0.72138 0.0
H73 H 0.01499 0.77364 0.69356 0.0
N74 N 0.04852 0.88353 0.60376 0.0
C75 C 0.09719 0.87394 0.61664 0.0
C76 C 0.01896 0.84785 0.62965 0.0
C77 C 0.08851 0.79171 0.68808 0.0
C78 C 0.03852 0.80166 0.67264 0.0
C79 C 0.1185 0.82783 0.65963 0.0
H80 H 0.18586 0.78398 0.70582 0.0
N81 N 0.10451 0.95522 0.5469 0.0
C82 C 0.12584 0.91064 0.58715 0.0
C83 C 0.204 0.93868 0.56761 0.0
C84 C 0.17634 0.90151 0.59929 0.0
C85 C 0.13104 0.99065 0.5136 0.0
C86 C 0.18117 0.98322 0.52415 0.0
O87 O 0.95096 0.06646 0.4938 0.0
O88 O 0.94349 0.98999 0.4841 0.0
O89 O 0.03047 0.98178 0.43351 0.0
O90 O 0.0123 0.90618 0.48593 0.0
O91 O 0.94177 0.97249 0.63777 0.0
O92 O 0.94766 0.94184 0.55666 0.0
O93 O 0.04678 0.9475 0.63817 0.0
O94 O 0.02038 0.01237 0.66739 0.0
O95 O 0.92514 0.05753 0.68004 0.0
O96 O 0.96619 0.11785 0.63435 0.0
O97 O 0.0445 0.04269 0.51418 0.0
O98 O 0.03009 0.07397 0.59225 0.0
C99 C 0.9289 0.03664 0.46445 0.0
C100 C 0.93205 0.93887 0.60854 0.0
C101 C 0.02111 0.92019 0.3777 0.0
C102 C 0.05574 0.91841 0.28862 0.0
C103 C 0.9871 0.86913 0.3128 0.0
C104 C 0.98717 0.88631 0.36417 0.0
C105 C 0.0213 0.88496 0.27522 0.0
C106 C 0.05512 0.93665 0.33936 0.0
C107 C 0.02201 0.93647 0.43336 0.0
C108 C 0.19766 0.85578 0.64252 0.0
C109 C 0.16885 0.81912 0.67272 0.0
H110 H 0.24287 0.93308 0.57568 0.0
C111 C 0.04719 0.97193 0.67876 0.0
C112 C 0.05641 0.06999 0.55257 0.0
C113 C 0.98063 0.09084 0.7473 0.0
C114 C 0.99159 0.08009 0.86094 0.0
C115 C 0.06112 0.07367 0.81689 0.0
C116 C 0.03095 0.08331 0.75621 0.0
C117 C 0.04156 0.07188 0.86927 0.0
C118 C 0.96115 0.0894 0.79998 0.0
C119 C 0.94832 0.09664 0.68446 0.0
H120 H 0.96077 0.84313 0.30248 0.0
H121 H 0.96069 0.8732 0.39329 0.0
H122 H 0.02126 0.87079 0.23603 0.0
H123 H 0.08183 0.96234 0.34993 0.0
H124 H 0.09971 0.06737 0.82333 0.0
H125 H 0.04695 0.08437 0.71645 0.0
H126 H 0.06528 0.06439 0.91615 0.0
H127 H 0.92242 0.09497 0.79384 0.0
C128 C 0.66823 0.60664 0.09735 0.0
C129 C 0.65762 0.68886 0.10435 0.0
C130 C 0.64061 0.64114 0.10853 0.0
C131 C 0.70234 0.70147 0.08768 0.0
C132 C 0.71355 0.61887 0.08159 0.0
C133 C 0.73018 0.6666 0.07617 0.0
N134 N 0.65136 0.56069 0.10341 0.0
C135 C 0.67934 0.52436 0.0981 0.0
C136 C 0.74127 0.58244 0.07298 0.0
C137 C 0.72424 0.53482 0.08187 0.0
Gd138 Gd 0.47257 0.50171 0.00331 0.0
Gd139 Gd 0.57583 0.54606 0.13163 0.0
N140 N 0.59749 0.62787 0.12446 0.0
C141 C 0.62938 0.72238 0.11759 0.0
C142 C 0.57074 0.6599 0.13987 0.0
C143 C 0.58591 0.70768 0.13587 0.0
H144 H 0.53797 0.64849 0.15649 0.0
H145 H 0.5643 0.73294 0.14761 0.0
H146 H 0.51233 0.3825 0.05454 0.0
H147 H 0.66734 0.48721 0.10644 0.0
H148 H 0.48755 0.3005 0.11644 0.0
H149 H 0.64118 0.75936 0.11485 0.0
H150 H 0.71585 0.73801 0.08395 0.0
H151 H 0.37222 0.58023 0.95715 0.0
H152 H 0.77624 0.59038 0.06083 0.0
H153 H 0.74589 0.50601 0.07683 0.0
H154 H 0.33347 0.33669 0.15308 0.0
H155 H 0.76481 0.6767 0.06387 0.0
H156 H 0.26472 0.5031 0.05314 0.0
H157 H 0.29193 0.57972 0.98223 0.0
N158 N 0.39292 0.50572 0.01842 0.0
C159 C 0.37718 0.4622 0.05363 0.0
C160 C 0.36192 0.54695 0.99036 0.0
C161 C 0.30053 0.50325 0.04327 0.0
C162 C 0.31582 0.54662 0.00344 0.0
C163 C 0.33085 0.46005 0.06784 0.0
H164 H 0.28068 0.41264 0.11708 0.0
N165 N 0.45103 0.42204 0.05877 0.0
C166 C 0.40673 0.41909 0.07363 0.0
C167 C 0.42105 0.33034 0.12541 0.0
C168 C 0.39105 0.37322 0.10874 0.0
C169 C 0.47882 0.37996 0.07061 0.0
C170 C 0.46474 0.33362 0.10529 0.0
O171 O 0.58515 0.56575 0.02893 0.0
O172 O 0.50874 0.57284 0.96133 0.0
O173 O 0.48711 0.47043 0.93215 0.0
O174 O 0.41664 0.50396 0.92011 0.0
O175 O 0.50855 0.59621 0.09154 0.0
O176 O 0.45476 0.57815 0.00816 0.0
O177 O 0.49071 0.46093 0.10899 0.0
O178 O 0.50331 0.52225 0.15347 0.0
O179 O 0.58291 0.55768 0.22349 0.0
O180 O 0.62179 0.49566 0.21759 0.0
O181 O 0.55081 0.47531 0.02139 0.0
O182 O 0.58014 0.46823 0.1269 0.0
C183 C 0.5545 0.58424 0.973 0.0
C184 C 0.46856 0.60505 0.04662 0.0
C185 C 0.43693 0.49683 0.82736 0.0
C186 C 0.40782 0.47815 0.7282 0.0
C187 C 0.43643 0.55993 0.72496 0.0
C188 C 0.44597 0.54527 0.79196 0.0
C189 C 0.41722 0.52665 0.69309 0.0
C190 C 0.41823 0.4633 0.79539 0.0
C191 C 0.44342 0.48082 0.89725 0.0
C192 C 0.34588 0.37149 0.12539 0.0
C193 C 0.31586 0.41477 0.10497 0.0
H194 H 0.41032 0.29441 0.1525 0.0
C195 C 0.48369 0.48079 0.15107 0.0
C196 C 0.58128 0.45466 0.07678 0.0
C197 C 0.65757 0.53284 0.29589 0.0
C198 C 0.69028 0.55811 0.38932 0.0
C199 C 0.74315 0.54702 0.32262 0.0
C200 C 0.7039 0.53419 0.28253 0.0
C201 C 0.73646 0.55903 0.37578 0.0
C202 C 0.65105 0.54472 0.34948 0.0
C203 C 0.61499 0.52133 0.2537 0.0
H204 H 0.44348 0.59731 0.69765 0.0
H205 H 0.45975 0.57171 0.81601 0.0
H206 H 0.40964 0.53865 0.64118 0.0
H207 H 0.4108 0.42593 0.82264 0.0
H208 H 0.77877 0.54812 0.3121 0.0
H209 H 0.70971 0.52573 0.24108 0.0
H210 H 0.76707 0.56954 0.40593 0.0
H211 H 0.61526 0.54447 0.35958 0.0
C212 C 0.14344 0.16278 0.47456 0.0
C213 C 0.17355 0.17104 0.52869 0.0
C214 C 0.13003 0.1102 0.59911 0.0
C215 C 0.09694 0.10492 0.54441 0.0
N216 N 0.0643 0.1404 0.43065 0.0
N217 N 0.18873 0.16095 0.64139 0.0
C218 C 0.10162 0.1349 0.48214 0.0
C219 C 0.16504 0.147 0.59069 0.0
N220 N 0.155 0.18091 0.41585 0.0
N221 N 0.12914 0.07958 0.65944 0.0
H222 H 0.21428 0.1881 0.63732 0.0
H223 H 0.17971 0.14924 0.68612 0.0
H224 H 0.10355 0.05336 0.6693 0.0
H225 H 0.15635 0.07732 0.69956 0.0
H226 H 0.1369 0.17157 0.37619 0.0
H227 H 0.18547 0.20131 0.40835 0.0
H228 H 0.06414 0.16501 0.38496 0.0
H229 H 0.03085 0.12598 0.43577 0.0
C230 C 0.3785 0.71818 0.97326 0.0
C231 C 0.37272 0.72811 0.029 0.0
C232 C 0.4274 0.65684 0.09627 0.0
C233 C 0.43641 0.6484 0.04036 0.0
N234 N 0.4304 0.6815 0.92576 0.0
N235 N 0.40298 0.71643 0.14118 0.0
C236 C 0.41467 0.682 0.97872 0.0
C237 C 0.40067 0.70039 0.08967 0.0
N238 N 0.34882 0.74239 0.91534 0.0
N239 N 0.44189 0.62261 0.15594 0.0
H240 H 0.38446 0.74867 0.13836 0.0
H241 H 0.42738 0.70081 0.18485 0.0
H242 H 0.46133 0.58966 0.16559 0.0
H243 H 0.43029 0.62466 0.19592 0.0
H244 H 0.34789 0.73271 0.87436 0.0
H245 H 0.32235 0.76944 0.90954 0.0
H246 H 0.41878 0.70805 0.88071 0.0
H247 H 0.45925 0.65838 0.92811 0.0
C248 C 0.81195 0.87988 0.5944 0.0
C249 C 0.80535 0.86664 0.65828 0.0
C250 C 0.88979 0.88574 0.6936 0.0
C251 C 0.8947 0.90195 0.62879 0.0
N252 N 0.86968 0.88477 0.52853 0.0
N253 N 0.84079 0.84612 0.77105 0.0
C254 C 0.85885 0.88979 0.58237 0.0
C255 C 0.84523 0.86633 0.70883 0.0
N256 N 0.7732 0.88565 0.54432 0.0
N257 N 0.92857 0.88759 0.74033 0.0
H258 H 0.80921 0.83035 0.78337 0.0
H259 H 0.86887 0.842 0.81072 0.0
H260 H 0.96311 0.89359 0.73094 0.0
H261 H 0.92714 0.88232 0.78769 0.0
H262 H 0.776 0.89997 0.49654 0.0
H263 H 0.73762 0.88126 0.54988 0.0
H264 H 0.84487 0.87308 0.49551 0.0
H265 H 0.9049 0.88381 0.52215 0.0
C266 C 0.63423 0.32184 0.15213 0.0
C267 C 0.63586 0.3097 0.09636 0.0
C268 C 0.61756 0.39742 0.03059 0.0
C269 C 0.61034 0.40826 0.08525 0.0
N270 N 0.64065 0.38674 0.19967 0.0
N271 N 0.62604 0.3346 0.98149 0.0
C272 C 0.62642 0.37221 0.14685 0.0
C273 C 0.62733 0.34727 0.03531 0.0
N274 N 0.6409 0.28548 0.21067 0.0
N275 N 0.61932 0.43567 0.97591 0.0
H276 H 0.63242 0.29822 0.983 0.0
H277 H 0.61465 0.35921 0.93509 0.0
H278 H 0.61837 0.47278 0.9741 0.0
H279 H 0.62821 0.43098 0.93568 0.0
H280 H 0.63274 0.29127 0.25076 0.0
H281 H 0.65173 0.24876 0.21876 0.0
H282 H 0.655 0.36244 0.24549 0.0
H283 H 0.6475 0.42344 0.19578 0.0
C284 C 0.11004 0.96872 0.1427 0.0
C285 C 0.15894 0.95017 0.16814 0.0
C286 C 0.14089 0.91227 0.27443 0.0
C287 C 0.09287 0.93327 0.24952 0.0
N288 N 0.0356 0.99197 0.16496 0.0
N289 N 0.22354 0.9145 0.2606 0.0
C290 C 0.07876 0.96501 0.18524 0.0
C291 C 0.1752 0.92503 0.23485 0.0
N292 N 0.09228 0.98664 0.07784 0.0
N293 N 0.15323 0.87861 0.33489 0.0
H294 H 0.24976 0.92419 0.23315 0.0
H295 H 0.23797 0.90066 0.30976 0.0
H296 H 0.12931 0.86858 0.36565 0.0
H297 H 0.18603 0.85784 0.35281 0.0
H298 H 0.05568 0.99563 0.0572 0.0
H299 H 0.11289 0.9878 0.04432 0.0
H300 H 0.02609 0.02 0.12073 0.0
H301 H 0.01161 0.98989 0.19488 0.0
C302 C 0.59046 0.64652 0.81226 0.0
C303 C 0.61743 0.68626 0.82541 0.0
C304 C 0.5916 0.66503 0.92745 0.0
C305 C 0.57326 0.62023 0.91997 0.0
N306 N 0.56235 0.56442 0.85772 0.0
N307 N 0.65267 0.72436 0.90543 0.0
C308 C 0.57483 0.60967 0.86311 0.0
C309 C 0.62067 0.69293 0.88595 0.0
N310 N 0.57654 0.64549 0.75095 0.0
N311 N 0.57909 0.68258 0.97178 0.0
H312 H 0.678 0.74222 0.87951 0.0
H313 H 0.65786 0.72769 0.95101 0.0
H314 H 0.55487 0.66472 0.99966 0.0
H315 H 0.58812 0.71756 0.97493 0.0
H316 H 0.55335 0.6195 0.73882 0.0
H317 H 0.58318 0.67387 0.71137 0.0
H318 H 0.56724 0.55342 0.81953 0.0
H319 H 0.55104 0.53651 0.89401 0.0
C320 C 0.86373 0.12111 0.3001 0.0
C321 C 0.81918 0.0979 0.29106 0.0
C322 C 0.84533 0.03569 0.39762 0.0
C323 C 0.89147 0.0564 0.40394 0.0
N324 N 0.94855 0.10833 0.35145 0.0
N325 N 0.77174 0.02663 0.32557 0.0
C326 C 0.90181 0.09634 0.35251 0.0
C327 C 0.81105 0.05335 0.33828 0.0
N328 N 0.86944 0.16732 0.25974 0.0
N329 N 0.83345 1.00037 0.44883 0.0
H330 H 0.7463 0.03752 0.28219 0.0
H331 H 0.76687 0.99121 0.35547 0.0
H332 H 0.85714 0.9871 0.49332 0.0
H333 H 0.79859 0.98809 0.44915 0.0
H334 H 0.89966 0.18768 0.26833 0.0
H335 H 0.84203 0.18726 0.22145 0.0
H336 H 0.95862 0.13483 0.31272 0.0
H337 H 0.97745 0.08667 0.38531 0.0
C338 C 0.31638 0.40743 0.64314 0.0
C339 C 0.34767 0.38081 0.62246 0.0
C340 C 0.41845 0.41584 0.6739 0.0
C341 C 0.38722 0.44268 0.69451 0.0
N342 N 0.30778 0.45818 0.70902 0.0
N343 N 0.42793 0.35079 0.62853 0.0
C344 C 0.33653 0.43642 0.68255 0.0
C345 C 0.39862 0.3823 0.6412 0.0
N346 N 0.26742 0.40667 0.62265 0.0
N347 N 0.46694 0.42345 0.6842 0.0
H348 H 0.41438 0.32563 0.60498 0.0
H349 H 0.46522 0.34632 0.64593 0.0
H350 H 0.4831 0.44592 0.71055 0.0
H351 H 0.49096 0.40989 0.6638 0.0
H352 H 0.2424 0.42972 0.6293 0.0
H353 H 0.25166 0.38436 0.59585 0.0
H354 H 0.27152 0.45095 0.70812 0.0
H355 H 0.32094 0.48131 0.73581 0.0
C356 C 0.66293 0.55241 0.54983 0.0
C357 C 0.6654 0.60327 0.54562 0.0
C358 C 0.6806 0.62466 0.4372 0.0
C359 C 0.68235 0.57344 0.44364 0.0
N360 N 0.68269 0.48768 0.50925 0.0
N361 N 0.68698 0.68619 0.49123 0.0
C362 C 0.67575 0.537 0.50098 0.0
C363 C 0.67707 0.639 0.49088 0.0
N364 N 0.64626 0.51924 0.59888 0.0
N365 N 0.68085 0.65975 0.37921 0.0
H366 H 0.68646 0.69788 0.53038 0.0
H367 H 0.70057 0.71224 0.45541 0.0
H368 H 0.68366 0.65081 0.33871 0.0
H369 H 0.67404 0.6976 0.36976 0.0
H370 H 0.63862 0.48289 0.60075 0.0
H371 H 0.63602 0.52918 0.63513 0.0
H372 H 0.68354 0.45951 0.55257 0.0
H373 H 0.6916 0.47508 0.47422 0.0
C374 C 0.93982 0.03354 0.01086 0.0
C375 C 0.92639 0.0794 0.01661 0.0
C376 C 0.96289 0.12484 0.92663 0.0
C377 C 0.97098 0.07944 0.91621 0.0
N378 N 0.96366 0.9908 0.94378 0.0
N379 N 0.91839 0.16919 0.9742 0.0
C380 C 0.95862 0.03375 0.95719 0.0
C381 C 0.9365 0.12526 0.97335 0.0
N382 N 0.93604 0.98992 0.05785 0.0
N383 N 0.98087 0.16752 0.89222 0.0
H384 H 0.89796 0.17142 0.00661 0.0
H385 H 0.91985 0.20324 0.93914 0.0
H386 H 0.99944 0.16887 0.8565 0.0
H387 H 0.98096 0.20061 0.90267 0.0
H388 H 0.95 0.95568 0.06006 0.0
H389 H 0.92309 0.98852 0.09831 0.0
H390 H 0.95038 0.95719 0.96756 0.0
H391 H 0.97817 0.98947 0.90555 0.0
C392 C 0.44107 0.37693 0.28035 0.0
C393 C 0.40337 0.40248 0.29179 0.0
C394 C 0.41446 0.47725 0.20544 0.0
C395 C 0.45612 0.45383 0.19958 0.0
N396 N 0.51376 0.38338 0.23869 0.0
N397 N 0.36173 0.48073 0.27503 0.0
C398 C 0.47066 0.40406 0.23881 0.0
C399 C 0.39189 0.45366 0.25693 0.0
N400 N 0.44797 0.3265 0.30817 0.0
N401 N 0.39508 0.52108 0.16042 0.0
H402 H 0.34603 0.46588 0.31443 0.0
H403 H 0.35645 0.51926 0.25508 0.0
H404 H 0.40968 0.53877 0.12081 0.0
H405 H 0.36182 0.53699 0.15877 0.0
H406 H 0.47121 0.30508 0.29588 0.0
H407 H 0.42716 0.30546 0.33928 0.0
H408 H 0.52839 0.34905 0.2709 0.0
H409 H 0.53734 0.4024 0.21063 0.0
C410 C 0.10561 0.93546 0.85751 0.0
C411 C 0.15348 0.92209 0.8569 0.0
C412 C 0.13286 0.94748 0.74027 0.0
C413 C 0.08348 0.95498 0.74059 0.0
N414 N 0.02172 0.95131 0.80114 0.0
N415 N 0.21101 0.90762 0.79885 0.0
C416 C 0.06949 0.94787 0.79968 0.0
C417 C 0.16639 0.92511 0.79873 0.0
N418 N 0.09471 0.93663 0.91323 0.0
N419 N 0.14893 0.96627 0.68483 0.0
H420 H 0.23785 0.89326 0.84043 0.0
H421 H 0.21989 0.90388 0.75801 0.0
H422 H 0.12644 0.98719 0.64188 0.0
H423 H 0.18544 0.96696 0.68323 0.0
H424 H 0.06244 0.9524 0.91508 0.0
H425 H 0.11915 0.92465 0.95746 0.0
H426 H 0.00902 0.9405 0.84333 0.0
H427 H 0.99399 0.96138 0.76023 0.0
loop_
_geom_bond_atom_site_label_1
_geom_bond_atom_site_label_2
_geom_bond_distance
_geom_bond_site_symmetry_2
_ccdc_geom_bond_type
O0 Cd1 2.300 1_556 S
O0 C7 1.275 . S
Cd1 O0 2.300 1_554 S
Cd1 O9 2.381 . S
Cd1 O10 2.378 . S
O2 Cd3 2.385 1_556 S
O2 C7 1.255 . S
Cd3 O2 2.385 1_554 S
Cd3 O4 2.317 . S
O4 Cd3 2.317 . S
O4 C5 1.232 . S
C5 O4 1.232 . S
C5 O6 1.218 . S
O6 C5 1.218 . S
C7 O0 1.275 . S
C7 O2 1.255 . S
C8 O9 1.258 . S
C8 O10 1.256 . S
O9 Cd1 2.381 . S
O9 C8 1.258 . S
O10 Cd1 2.378 . S
O10 C8 1.256 . S
O11 Cd12 2.300 . S
O11 C18 1.275 . S
Cd12 O11 2.300 . S
Cd12 O20 2.381 . S
Cd12 O21 2.378 . S
O13 Cd14 2.385 . S
O13 C18 1.255 . S
Cd14 O13 2.385 . S
Cd14 O15 2.317 . S
O15 Cd14 2.317 . S
O15 C16 1.232 . S
C16 O15 1.232 . S
C16 O17 1.218 . S
O17 C16 1.218 . S
C18 O11 1.275 . S
C18 O13 1.255 . S
C19 O20 1.258 . S
C19 O21 1.256 . S
O20 Cd12 2.381 . S
O20 C19 1.258 . S
O21 Cd12 2.378 . S
O21 C19 1.256 . S
O22 Cd23 2.300 . S
O22 C29 1.275 . S
Cd23 O22 2.300 . S
Cd23 O31 2.381 . S
Cd23 O32 2.378 . S
O24 Cd25 2.385 . S
O24 C29 1.255 . S
Cd25 O24 2.385 . S
Cd25 O26 2.317 . S
O26 Cd25 2.317 . S
O26 C27 1.232 . S
C27 O26 1.232 . S
C27 O28 1.218 . S
O28 C27 1.218 . S
C29 O22 1.275 . S
C29 O24 1.255 . S
C30 O31 1.258 . S
C30 O32 1.256 . S
O31 Cd23 2.381 . S
O31 C30 1.258 . S
O32 Cd23 2.378 . S
O32 C30 1.256 . S
O33 Cd34 2.300 . S
O33 C40 1.275 . S
Cd34 O33 2.300 . S
Cd34 O42 2.381 . S
Cd34 O43 2.378 . S
O35 Cd36 2.385 . S
O35 C40 1.255 . S
Cd36 O35 2.385 . S
Cd36 O37 2.317 . S
O37 Cd36 2.317 . S
O37 C38 1.232 . S
C38 O37 1.232 . S
C38 O39 1.218 . S
O39 C38 1.218 . S
C40 O33 1.275 . S
C40 O35 1.255 . S
C41 O42 1.258 . S
C41 O43 1.256 . S
O42 Cd34 2.381 . S
O42 C41 1.258 . S
O43 Cd34 2.378 . S
O43 C41 1.256 . S
C44 C46 1.422 . S
C44 C48 1.415 . S
C44 N50 1.369 . S
C45 C46 1.421 . S
C45 C47 1.417 . S
C45 C57 1.422 . S
C46 C44 1.422 . S
C46 C45 1.421 . S
C46 N56 1.359 . S
C47 C45 1.417 . S
C47 C49 1.329 . S
C47 H66 0.930 . S
C48 C44 1.415 . S
C48 C49 1.437 . S
C48 C52 1.413 . S
C49 C47 1.329 . S
C49 C48 1.437 . S
C49 H71 0.929 . S
N50 C44 1.369 . S
N50 C51 1.338 1_655 S
N50 Gd55 2.622 . S
C51 N50 1.338 1_455 S
C51 C53 1.378 . S
C51 H63 0.929 . S
C52 C48 1.413 . S
C52 C53 1.348 1_655 S
C52 H68 0.931 . S
C53 C51 1.378 . S
C53 C52 1.348 1_455 S
C53 H69 0.930 . S
Gd54 N74 2.622 . S
Gd54 N81 2.570 . S
Gd54 O88 2.353 1_465 S
Gd54 O89 2.468 . S
Gd54 O90 2.427 . S
Gd54 O92 2.388 1_455 S
Gd54 O93 2.386 . S
Gd54 O97 2.307 1_565 S
Gd54 C107 2.805 . S
Gd55 N50 2.622 . S
Gd55 N56 2.570 . S
Gd55 O87 2.386 . S
Gd55 O91 2.307 1_545 S
Gd55 O94 2.353 1_655 S
Gd55 O95 2.468 . S
Gd55 O96 2.427 . S
Gd55 O98 2.388 1_655 S
Gd55 C119 2.805 . S
N56 C46 1.359 . S
N56 Gd55 2.570 . S
N56 C58 1.343 . S
C57 C45 1.422 . S
C57 C59 1.321 . S
C57 H65 0.931 . S
C58 N56 1.343 . S
C58 C59 1.390 . S
C58 H60 0.931 . S
C59 C57 1.321 . S
C59 C58 1.390 . S
C59 H61 0.930 . S
H60 C58 0.931 . S
H61 C59 0.930 . S
H62 C85 0.931 . S
H63 C51 0.929 . S
H64 C86 0.930 . S
H65 C57 0.931 . S
H66 C47 0.930 . S
H67 C76 0.929 1_655 S
H68 C52 0.931 . S
H69 C53 0.930 . S
H70 C108 0.930 . S
H71 C49 0.929 . S
H72 C77 0.931 . S
H73 C78 0.930 1_655 S
N74 Gd54 2.622 . S
N74 C75 1.369 . S
N74 C76 1.338 . S
C75 N74 1.369 . S
C75 C79 1.415 . S
C75 C82 1.422 . S
C76 H67 0.929 1_455 S
C76 N74 1.338 . S
C76 C78 1.378 . S
C77 H72 0.931 . S
C77 C78 1.348 . S
C77 C79 1.413 . S
C78 H73 0.930 1_455 S
C78 C76 1.378 . S
C78 C77 1.348 . S
C79 C75 1.415 . S
C79 C77 1.413 . S
C79 C109 1.437 . S
H80 C109 0.929 . S
N81 Gd54 2.570 . S
N81 C82 1.359 . S
N81 C85 1.343 . S
C82 C75 1.422 . S
C82 N81 1.359 . S
C82 C84 1.421 . S
C83 C84 1.422 . S
C83 C86 1.321 . S
C83 H110 0.931 . S
C84 C82 1.421 . S
C84 C83 1.422 . S
C84 C108 1.417 . S
C85 H62 0.931 . S
C85 N81 1.343 . S
C85 C86 1.390 . S
C86 H64 0.930 . S
C86 C83 1.321 . S
C86 C85 1.390 . S
O87 Gd55 2.386 . S
O87 C99 1.265 . S
O88 Gd54 2.353 1_645 S
O88 C99 1.242 . S
O89 Gd54 2.468 . S
O89 C107 1.263 . S
O90 Gd54 2.427 . S
O90 C107 1.252 . S
O91 Gd55 2.307 1_565 S
O91 C100 1.261 . S
O92 Gd54 2.388 1_655 S
O92 C100 1.252 . S
O93 Gd54 2.386 . S
O93 C111 1.265 . S
O94 Gd55 2.353 1_455 S
O94 C111 1.242 1_545 S
O95 Gd55 2.468 . S
O95 C119 1.263 . S
O96 Gd55 2.427 . S
O96 C119 1.252 . S
O97 Gd54 2.307 1_545 S
O97 C112 1.261 . S
O98 Gd55 2.388 1_455 S
O98 C112 1.252 . S
C99 O87 1.265 . S
C99 O88 1.242 . S
C100 O91 1.261 . S
C100 O92 1.252 . S
C101 C104 1.394 . S
C101 C106 1.370 . S
C101 C107 1.500 . S
C102 C105 1.383 . S
C102 C106 1.395 . S
C103 C104 1.396 . S
C103 C105 1.365 . S
C103 H120 0.929 . S
C104 C101 1.394 . S
C104 C103 1.396 . S
C104 H121 0.930 . S
C105 C102 1.383 . S
C105 C103 1.365 . S
C105 H122 0.931 . S
C106 C101 1.370 . S
C106 C102 1.395 . S
C106 H123 0.930 . S
C107 Gd54 2.805 . S
C107 O89 1.263 . S
C107 O90 1.252 . S
C107 C101 1.500 . S
C108 H70 0.930 . S
C108 C84 1.417 . S
C108 C109 1.329 . S
C109 C79 1.437 . S
C109 H80 0.929 . S
C109 C108 1.329 . S
H110 C83 0.931 . S
C111 O93 1.265 . S
C111 O94 1.242 1_565 S
C112 O97 1.261 . S
C112 O98 1.252 . S
C113 C116 1.394 . S
C113 C118 1.370 . S
C113 C119 1.500 . S
C114 C117 1.383 . S
C114 C118 1.395 . S
C115 C116 1.396 . S
C115 C117 1.365 . S
C115 H124 0.929 . S
C116 C113 1.394 . S
C116 C115 1.396 . S
C116 H125 0.930 . S
C117 C114 1.383 . S
C117 C115 1.365 . S
C117 H126 0.931 . S
C118 C113 1.370 . S
C118 C114 1.395 . S
C118 H127 0.930 . S
C119 Gd55 2.805 . S
C119 O95 1.263 . S
C119 O96 1.252 . S
C119 C113 1.500 . S
H120 C103 0.929 . S
H121 C104 0.930 . S
H122 C105 0.931 . S
H123 C106 0.930 . S
H124 C115 0.929 . S
H125 C116 0.930 . S
H126 C117 0.931 . S
H127 C118 0.930 . S
C128 C130 1.422 . S
C128 C132 1.415 . S
C128 N134 1.369 . S
C129 C130 1.421 . S
C129 C131 1.417 . S
C129 C141 1.422 . S
C130 C128 1.422 . S
C130 C129 1.421 . S
C130 N140 1.359 . S
C131 C129 1.417 . S
C131 C133 1.329 . S
C131 H150 0.930 . S
C132 C128 1.415 . S
C132 C133 1.437 . S
C132 C136 1.413 . S
C133 C131 1.329 . S
C133 C132 1.437 . S
C133 H155 0.929 . S
N134 C128 1.369 . S
N134 C135 1.338 . S
N134 Gd139 2.622 . S
C135 N134 1.338 . S
C135 C137 1.378 . S
C135 H147 0.929 . S
C136 C132 1.413 . S
C136 C137 1.348 . S
C136 H152 0.931 . S
C137 C135 1.378 . S
C137 C136 1.348 . S
C137 H153 0.930 . S
Gd138 N158 2.622 . S
Gd138 N165 2.570 1_556 S
Gd138 O172 2.353 . S
Gd138 O173 2.468 . S
Gd138 O174 2.427 . S
Gd138 O176 2.388 . S
Gd138 O177 2.386 1_556 S
Gd138 O181 2.307 1_556 S
Gd138 C191 2.805 . S
Gd139 N134 2.622 . S
Gd139 N140 2.570 . S
Gd139 O171 2.386 . S
Gd139 O175 2.307 . S
Gd139 O178 2.353 . S
Gd139 O179 2.468 . S
Gd139 O180 2.427 . S
Gd139 O182 2.388 . S
Gd139 C203 2.805 . S
N140 C130 1.359 . S
N140 Gd139 2.570 . S
N140 C142 1.343 . S
C141 C129 1.422 . S
C141 C143 1.321 . S
C141 H149 0.931 . S
C142 N140 1.343 . S
C142 C143 1.390 . S
C142 H144 0.931 . S
C143 C141 1.321 . S
C143 C142 1.390 . S
C143 H145 0.930 . S
H144 C142 0.931 . S
H145 C143 0.930 . S
H146 C169 0.931 . S
H147 C135 0.929 . S
H148 C170 0.930 . S
H149 C141 0.931 . S
H150 C131 0.930 . S
H151 C160 0.929 . S
H152 C136 0.931 . S
H153 C137 0.930 . S
H154 C192 0.930 . S
H155 C133 0.929 . S
H156 C161 0.931 . S
H157 C162 0.930 . S
N158 Gd138 2.622 . S
N158 C159 1.369 1_556 S
N158 C160 1.338 . S
C159 N158 1.369 1_554 S
C159 C163 1.415 . S
C159 C166 1.422 . S
C160 H151 0.929 . S
C160 N158 1.338 . S
C160 C162 1.378 . S
C161 H156 0.931 . S
C161 C162 1.348 1_554 S
C161 C163 1.413 . S
C162 H157 0.930 . S
C162 C160 1.378 . S
C162 C161 1.348 1_556 S
C163 C159 1.415 . S
C163 C161 1.413 . S
C163 C193 1.437 . S
H164 C193 0.929 . S
N165 Gd138 2.570 1_554 S
N165 C166 1.359 . S
N165 C169 1.343 . S
C166 C159 1.422 . S
C166 N165 1.359 . S
C166 C168 1.421 . S
C167 C168 1.422 . S
C167 C170 1.321 . S
C167 H194 0.931 . S
C168 C166 1.421 . S
C168 C167 1.422 . S
C168 C192 1.417 . S
C169 H146 0.931 . S
C169 N165 1.343 . S
C169 C170 1.390 . S
C170 H148 0.930 . S
C170 C167 1.321 . S
C170 C169 1.390 . S
O171 Gd139 2.386 . S
O171 C183 1.265 1_554 S
O172 Gd138 2.353 . S
O172 C183 1.242 . S
O173 Gd138 2.468 . S
O173 C191 1.263 . S
O174 Gd138 2.427 . S
O174 C191 1.252 . S
O175 Gd139 2.307 . S
O175 C184 1.261 . S
O176 Gd138 2.388 . S
O176 C184 1.252 1_556 S
O177 Gd138 2.386 1_554 S
O177 C195 1.265 . S
O178 Gd139 2.353 . S
O178 C195 1.242 . S
O179 Gd139 2.468 . S
O179 C203 1.263 . S
O180 Gd139 2.427 . S
O180 C203 1.252 . S
O181 Gd138 2.307 1_554 S
O181 C196 1.261 . S
O182 Gd139 2.388 . S
O182 C196 1.252 . S
C183 O171 1.265 1_556 S
C183 O172 1.242 . S
C184 O175 1.261 . S
C184 O176 1.252 1_554 S
C185 C188 1.394 . S
C185 C190 1.370 . S
C185 C191 1.500 . S
C186 C189 1.383 . S
C186 C190 1.395 . S
C187 C188 1.396 . S
C187 C189 1.365 . S
C187 H204 0.929 . S
C188 C185 1.394 . S
C188 C187 1.396 . S
C188 H205 0.930 . S
C189 C186 1.383 . S
C189 C187 1.365 . S
C189 H206 0.931 . S
C190 C185 1.370 . S
C190 C186 1.395 . S
C190 H207 0.930 . S
C191 Gd138 2.805 . S
C191 O173 1.263 . S
C191 O174 1.252 . S
C191 C185 1.500 . S
C192 H154 0.930 . S
C192 C168 1.417 . S
C192 C193 1.329 . S
C193 C163 1.437 . S
C193 H164 0.929 . S
C193 C192 1.329 . S
H194 C167 0.931 . S
C195 O177 1.265 . S
C195 O178 1.242 . S
C196 O181 1.261 . S
C196 O182 1.252 . S
C197 C200 1.394 . S
C197 C202 1.370 . S
C197 C203 1.500 . S
C198 C201 1.383 . S
C198 C202 1.395 . S
C199 C200 1.396 . S
C199 C201 1.365 . S
C199 H208 0.929 . S
C200 C197 1.394 . S
C200 C199 1.396 . S
C200 H209 0.930 . S
C201 C198 1.383 . S
C201 C199 1.365 . S
C201 H210 0.931 . S
C202 C197 1.370 . S
C202 C198 1.395 . S
C202 H211 0.930 . S
C203 Gd139 2.805 . S
C203 O179 1.263 . S
C203 O180 1.252 . S
C203 C197 1.500 . S
H204 C187 0.929 . S
H205 C188 0.930 . S
H206 C189 0.931 . S
H207 C190 0.930 . S
H208 C199 0.929 . S
H209 C200 0.930 . S
H210 C201 0.931 . S
H211 C202 0.930 . S
C212 C213 1.363 . S
C212 C218 1.379 . S
C212 N220 1.356 . S
C213 C212 1.363 . S
C213 C219 1.363 . S
C214 C215 1.363 . S
C214 C219 1.379 . S
C214 N221 1.356 . S
C215 C214 1.363 . S
C215 C218 1.363 . S
N216 C218 1.356 . S
N216 H228 0.984 . S
N216 H229 0.985 . S
N217 C219 1.356 . S
N217 H222 0.984 . S
N217 H223 0.985 . S
C218 C212 1.379 . S
C218 C215 1.363 . S
C218 N216 1.356 . S
C219 C213 1.363 . S
C219 C214 1.379 . S
C219 N217 1.356 . S
N220 C212 1.356 . S
N220 H226 0.984 . S
N220 H227 0.984 . S
N221 C214 1.356 . S
N221 H224 0.984 . S
N221 H225 0.985 . S
H222 N217 0.984 . S
H223 N217 0.985 . S
H224 N221 0.984 . S
H225 N221 0.985 . S
H226 N220 0.984 . S
H227 N220 0.984 . S
H228 N216 0.984 . S
H229 N216 0.985 . S
C230 C231 1.363 1_556 S
C230 C236 1.379 . S
C230 N238 1.356 . S
C231 C230 1.363 1_554 S
C231 C237 1.363 . S
C232 C233 1.363 . S
C232 C237 1.379 . S
C232 N239 1.356 . S
C233 C232 1.363 . S
C233 C236 1.363 1_554 S
N234 C236 1.356 . S
N234 H246 0.984 . S
N234 H247 0.985 . S
N235 C237 1.356 . S
N235 H240 0.984 . S
N235 H241 0.985 . S
C236 C230 1.379 . S
C236 C233 1.363 1_556 S
C236 N234 1.356 . S
C237 C231 1.363 . S
C237 C232 1.379 . S
C237 N235 1.356 . S
N238 C230 1.356 . S
N238 H244 0.984 . S
N238 H245 0.984 . S
N239 C232 1.356 . S
N239 H242 0.984 . S
N239 H243 0.985 . S
H240 N235 0.984 . S
H241 N235 0.985 . S
H242 N239 0.984 . S
H243 N239 0.985 . S
H244 N238 0.984 . S
H245 N238 0.984 . S
H246 N234 0.984 . S
H247 N234 0.985 . S
C248 C249 1.363 . S
C248 C254 1.379 . S
C248 N256 1.356 . S
C249 C248 1.363 . S
C249 C255 1.363 . S
C250 C251 1.363 . S
C250 C255 1.379 . S
C250 N257 1.356 . S
C251 C250 1.363 . S
C251 C254 1.363 . S
N252 C254 1.356 . S
N252 H264 0.984 . S
N252 H265 0.985 . S
N253 C255 1.356 . S
N253 H258 0.984 . S
N253 H259 0.985 . S
C254 C248 1.379 . S
C254 C251 1.363 . S
C254 N252 1.356 . S
C255 C249 1.363 . S
C255 C250 1.379 . S
C255 N253 1.356 . S
N256 C248 1.356 . S
N256 H262 0.984 . S
N256 H263 0.984 . S
N257 C250 1.356 . S
N257 H260 0.984 . S
N257 H261 0.985 . S
H258 N253 0.984 . S
H259 N253 0.985 . S
H260 N257 0.984 . S
H261 N257 0.985 . S
H262 N256 0.984 . S
H263 N256 0.984 . S
H264 N252 0.984 . S
H265 N252 0.985 . S
C266 C267 1.363 . S
C266 C272 1.379 . S
C266 N274 1.356 . S
C267 C266 1.363 . S
C267 C273 1.363 . S
C268 C269 1.363 . S
C268 C273 1.379 . S
C268 N275 1.356 1_554 S
C269 C268 1.363 . S
C269 C272 1.363 . S
N270 C272 1.356 . S
N270 H282 0.984 . S
N270 H283 0.985 . S
N271 C273 1.356 . S
N271 H276 0.984 . S
N271 H277 0.985 1_554 S
C272 C266 1.379 . S
C272 C269 1.363 . S
C272 N270 1.356 . S
C273 C267 1.363 . S
C273 C268 1.379 . S
C273 N271 1.356 . S
N274 C266 1.356 . S
N274 H280 0.984 . S
N274 H281 0.984 . S
N275 C268 1.356 1_556 S
N275 H278 0.984 . S
N275 H279 0.985 . S
H276 N271 0.984 . S
H277 N271 0.985 1_556 S
H278 N275 0.984 . S
H279 N275 0.985 . S
H280 N274 0.984 . S
H281 N274 0.984 . S
H282 N270 0.984 . S
H283 N270 0.985 . S
C284 C285 1.363 . S
C284 C290 1.379 . S
C284 N292 1.356 . S
C285 C284 1.363 . S
C285 C291 1.363 . S
C286 C287 1.363 . S
C286 C291 1.379 . S
C286 N293 1.356 . S
C287 C286 1.363 . S
C287 C290 1.363 . S
N288 C290 1.356 . S
N288 H300 0.984 . S
N288 H301 0.985 . S
N289 C291 1.356 . S
N289 H294 0.984 . S
N289 H295 0.985 . S
C290 C284 1.379 . S
C290 C287 1.363 . S
C290 N288 1.356 . S
C291 C285 1.363 . S
C291 C286 1.379 . S
C291 N289 1.356 . S
N292 C284 1.356 . S
N292 H298 0.984 . S
N292 H299 0.984 . S
N293 C286 1.356 . S
N293 H296 0.984 . S
N293 H297 0.985 . S
H294 N289 0.984 . S
H295 N289 0.985 . S
H296 N293 0.984 . S
H297 N293 0.985 . S
H298 N292 0.984 . S
H299 N292 0.984 . S
H300 N288 0.984 . S
H301 N288 0.985 . S
C302 C303 1.363 . S
C302 C308 1.379 . S
C302 N310 1.356 . S
C303 C302 1.363 . S
C303 C309 1.363 . S
C304 C305 1.363 . S
C304 C309 1.379 . S
C304 N311 1.356 . S
C305 C304 1.363 . S
C305 C308 1.363 . S
N306 C308 1.356 . S
N306 H318 0.984 . S
N306 H319 0.985 . S
N307 C309 1.356 . S
N307 H312 0.984 . S
N307 H313 0.985 . S
C308 C302 1.379 . S
C308 C305 1.363 . S
C308 N306 1.356 . S
C309 C303 1.363 . S
C309 C304 1.379 . S
C309 N307 1.356 . S
N310 C302 1.356 . S
N310 H316 0.984 . S
N310 H317 0.984 . S
N311 C304 1.356 . S
N311 H314 0.984 . S
N311 H315 0.985 . S
H312 N307 0.984 . S
H313 N307 0.985 . S
H314 N311 0.984 . S
H315 N311 0.985 . S
H316 N310 0.984 . S
H317 N310 0.984 . S
H318 N306 0.984 . S
H319 N306 0.985 . S
C320 C321 1.363 . S
C320 C326 1.379 . S
C320 N328 1.356 . S
C321 C320 1.363 . S
C321 C327 1.363 . S
C322 C323 1.363 . S
C322 C327 1.379 . S
C322 N329 1.356 1_545 S
C323 C322 1.363 . S
C323 C326 1.363 . S
N324 C326 1.356 . S
N324 H336 0.984 . S
N324 H337 0.985 . S
N325 C327 1.356 . S
N325 H330 0.984 . S
N325 H331 0.967 1_545 S
C326 C320 1.379 . S
C326 C323 1.363 . S
C326 N324 1.356 . S
C327 C321 1.363 . S
C327 C322 1.379 . S
C327 N325 1.356 . S
N328 C320 1.356 . S
N328 H334 0.984 . S
N328 H335 0.984 . S
N329 C322 1.356 1_565 S
N329 H332 0.984 . S
N329 H333 0.985 . S
H330 N325 0.984 . S
H331 N325 0.967 1_565 S
H332 N329 0.984 . S
H333 N329 0.985 . S
H334 N328 0.984 . S
H335 N328 0.984 . S
H336 N324 0.984 . S
H337 N324 0.985 . S
C338 C339 1.363 . S
C338 C344 1.379 . S
C338 N346 1.356 . S
C339 C338 1.363 . S
C339 C345 1.363 . S
C340 C341 1.363 . S
C340 C345 1.379 . S
C340 N347 1.356 . S
C341 C340 1.363 . S
C341 C344 1.363 . S
N342 C344 1.356 . S
N342 H354 0.984 . S
N342 H355 0.985 . S
N343 C345 1.356 . S
N343 H348 0.984 . S
N343 H349 0.985 . S
C344 C338 1.379 . S
C344 C341 1.363 . S
C344 N342 1.356 . S
C345 C339 1.363 . S
C345 C340 1.379 . S
C345 N343 1.356 . S
N346 C338 1.356 . S
N346 H352 0.984 . S
N346 H353 0.984 . S
N347 C340 1.356 . S
N347 H350 0.984 . S
N347 H351 0.985 . S
H348 N343 0.984 . S
H349 N343 0.985 . S
H350 N347 0.984 . S
H351 N347 0.985 . S
H352 N346 0.984 . S
H353 N346 0.984 . S
H354 N342 0.984 . S
H355 N342 0.985 . S
C356 C357 1.363 . S
C356 C362 1.379 . S
C356 N364 1.356 . S
C357 C356 1.363 . S
C357 C363 1.363 . S
C358 C359 1.363 . S
C358 C363 1.379 . S
C358 N365 1.356 . S
C359 C358 1.363 . S
C359 C362 1.363 . S
N360 C362 1.356 . S
N360 H372 0.984 . S
N360 H373 0.985 . S
N361 C363 1.356 . S
N361 H366 0.984 . S
N361 H367 0.985 . S
C362 C356 1.379 . S
C362 C359 1.363 . S
C362 N360 1.356 . S
C363 C357 1.363 . S
C363 C358 1.379 . S
C363 N361 1.356 . S
N364 C356 1.356 . S
N364 H370 0.984 . S
N364 H371 0.984 . S
N365 C358 1.356 . S
N365 H368 0.984 . S
N365 H369 0.985 . S
H366 N361 0.984 . S
H367 N361 0.985 . S
H368 N365 0.984 . S
H369 N365 0.985 . S
H370 N364 0.984 . S
H371 N364 0.984 . S
H372 N360 0.984 . S
H373 N360 0.985 . S
C374 C375 1.363 1_554 S
C374 C380 1.379 1_554 S
C374 N382 1.356 . S
C375 C374 1.363 1_556 S
C375 C381 1.363 . S
C376 C377 1.363 . S
C376 C381 1.379 . S
C376 N383 1.356 . S
C377 C376 1.363 . S
C377 C380 1.363 . S
N378 C380 1.356 . S
N378 H390 0.984 1_546 S
N378 H391 0.985 . S
N379 C381 1.356 . S
N379 H384 0.984 . S
N379 H385 0.985 . S
C380 C374 1.379 1_556 S
C380 C377 1.363 . S
C380 N378 1.356 . S
C381 C375 1.363 . S
C381 C376 1.379 . S
C381 N379 1.356 . S
N382 C374 1.356 . S
N382 H388 0.984 . S
N382 H389 0.984 . S
N383 C376 1.356 . S
N383 H386 0.984 . S
N383 H387 0.985 . S
H384 N379 0.984 . S
H385 N379 0.985 . S
H386 N383 0.984 . S
H387 N383 0.985 . S
H388 N382 0.984 . S
H389 N382 0.984 . S
H390 N378 0.984 1_564 S
H391 N378 0.985 . S
C392 C393 1.363 . S
C392 C398 1.379 . S
C392 N400 1.356 . S
C393 C392 1.363 . S
C393 C399 1.363 . S
C394 C395 1.363 . S
C394 C399 1.379 . S
C394 N401 1.356 . S
C395 C394 1.363 . S
C395 C398 1.363 . S
N396 C398 1.356 . S
N396 H408 0.984 . S
N396 H409 0.985 . S
N397 C399 1.356 . S
N397 H402 0.984 . S
N397 H403 0.985 . S
C398 C392 1.379 . S
C398 C395 1.363 . S
C398 N396 1.356 . S
C399 C393 1.363 . S
C399 C394 1.379 . S
C399 N397 1.356 . S
N400 C392 1.356 . S
N400 H406 0.984 . S
N400 H407 0.984 . S
N401 C394 1.356 . S
N401 H404 0.984 . S
N401 H405 0.985 . S
H402 N397 0.984 . S
H403 N397 0.985 . S
H404 N401 0.984 . S
H405 N401 0.985 . S
H406 N400 0.984 . S
H407 N400 0.984 . S
H408 N396 0.984 . S
H409 N396 0.985 . S
C410 C411 1.363 . S
C410 C416 1.379 . S
C410 N418 1.356 . S
C411 C410 1.363 . S
C411 C417 1.363 . S
C412 C413 1.363 . S
C412 C417 1.379 . S
C412 N419 1.356 . S
C413 C412 1.363 . S
C413 C416 1.363 . S
N414 C416 1.356 . S
N414 H426 0.984 . S
N414 H427 0.985 . S
N415 C417 1.356 . S
N415 H420 0.984 . S
N415 H421 0.985 . S
C416 C410 1.379 . S
C416 C413 1.363 . S
C416 N414 1.356 . S
C417 C411 1.363 . S
C417 C412 1.379 . S
C417 N415 1.356 . S
N418 C410 1.356 . S
N418 H424 0.984 . S
N418 H425 0.984 . S
N419 C412 1.356 . S
N419 H422 0.984 . S
N419 H423 0.985 . S
H420 N415 0.984 . S
H421 N415 0.985 . S
H422 N419 0.984 . S
H423 N419 0.985 . S
H424 N418 0.984 . S
H425 N418 0.984 . S
H426 N414 0.984 . S
H427 N414 0.985 . S
C215 C112 1.610 . S
C213 C41 1.604 . S
C231 C8 1.626 . S
C233 C184 1.629 . S
C249 C19 1.730 . S
C251 C100 1.782 . S
C267 C30 1.585 . S
C269 C196 1.599 . S
C287 C102 1.432 . S
C285 C5 1.445 . S
C305 C183 1.794 . S
C303 C18 1.749 . S
C321 C29 1.596 . S
C323 C99 1.711 . S
C339 C40 1.592 . S
C341 C186 1.508 . S
C359 C198 1.395 . S
C357 C16 1.320 . S
C377 C114 1.346 . S
C375 C27 1.291 1_556 S
C395 C195 1.544 . S
C393 C38 1.281 . S
C411 C7 1.494 . S
C413 C111 1.525 . S
