# Generated by pormake.
# Topology gar, (4,6)-cn, num edge types: 1
# Building blocks:
#     Node 0, Type 0, BuildingBlock: UXUYUI_clean_sbu_0, # of connection points: 4
#     Node 1, Type 0, BuildingBlock: UXUYUI_clean_sbu_0, # of connection points: 4
#     Node 2, Type 0, BuildingBlock: UXUYUI_clean_sbu_0, # of connection points: 4
#     Node 3, Type 0, BuildingBlock: UXUYUI_clean_sbu_0, # of connection points: 4
#     Node 4, Type 0, BuildingBlock: UXUYUI_clean_sbu_0, # of connection points: 4
#     Node 5, Type 0, BuildingBlock: UXUYUI_clean_sbu_0, # of connection points: 4
#     Node 6, Type 0, BuildingBlock: UXUYUI_clean_sbu_0, # of connection points: 4
#     Node 7, Type 0, BuildingBlock: UXUYUI_clean_sbu_0, # of connection points: 4
#     Node 8, Type 0, BuildingBlock: UXUYUI_clean_sbu_0, # of connection points: 4
#     Node 9, Type 0, BuildingBlock: UXUYUI_clean_sbu_0, # of connection points: 4
#     Node 10, Type 0, BuildingBlock: UXUYUI_clean_sbu_0, # of connection points: 4
#     Node 11, Type 0, BuildingBlock: UXUYUI_clean_sbu_0, # of connection points: 4
#     Node 12, Type 0, BuildingBlock: UXUYUI_clean_sbu_0, # of connection points: 4
#     Node 13, Type 0, BuildingBlock: UXUYUI_clean_sbu_0, # of connection points: 4
#     Node 14, Type 0, BuildingBlock: UXUYUI_clean_sbu_0, # of connection points: 4
#     Node 15, Type 0, BuildingBlock: UXUYUI_clean_sbu_0, # of connection points: 4
#     Node 16, Type 0, BuildingBlock: UXUYUI_clean_sbu_0, # of connection points: 4
#     Node 17, Type 0, BuildingBlock: UXUYUI_clean_sbu_0, # of connection points: 4
#     Node 18, Type 0, BuildingBlock: UXUYUI_clean_sbu_0, # of connection points: 4
#     Node 19, Type 0, BuildingBlock: UXUYUI_clean_sbu_0, # of connection points: 4
#     Node 20, Type 0, BuildingBlock: UXUYUI_clean_sbu_0, # of connection points: 4
#     Node 21, Type 0, BuildingBlock: UXUYUI_clean_sbu_0, # of connection points: 4
#     Node 22, Type 0, BuildingBlock: UXUYUI_clean_sbu_0, # of connection points: 4
#     Node 23, Type 0, BuildingBlock: UXUYUI_clean_sbu_0, # of connection points: 4
#     Node 24, Type 1, BuildingBlock: KUMBOL_clean_sbu_0, # of connection points: 6
#     Node 25, Type 1, BuildingBlock: KUMBOL_clean_sbu_0, # of connection points: 6
#     Node 26, Type 1, BuildingBlock: KUMBOL_clean_sbu_0, # of connection points: 6
#     Node 27, Type 1, BuildingBlock: KUMBOL_clean_sbu_0, # of connection points: 6
#     Node 28, Type 1, BuildingBlock: KUMBOL_clean_sbu_0, # of connection points: 6
#     Node 29, Type 1, BuildingBlock: KUMBOL_clean_sbu_0, # of connection points: 6
#     Node 30, Type 1, BuildingBlock: KUMBOL_clean_sbu_0, # of connection points: 6
#     Node 31, Type 1, BuildingBlock: KUMBOL_clean_sbu_0, # of connection points: 6
#     Node 32, Type 1, BuildingBlock: KUMBOL_clean_sbu_0, # of connection points: 6
#     Node 33, Type 1, BuildingBlock: KUMBOL_clean_sbu_0, # of connection points: 6
#     Node 34, Type 1, BuildingBlock: KUMBOL_clean_sbu_0, # of connection points: 6
#     Node 35, Type 1, BuildingBlock: KUMBOL_clean_sbu_0, # of connection points: 6
#     Node 36, Type 1, BuildingBlock: KUMBOL_clean_sbu_0, # of connection points: 6
#     Node 37, Type 1, BuildingBlock: KUMBOL_clean_sbu_0, # of connection points: 6
#     Node 38, Type 1, BuildingBlock: KUMBOL_clean_sbu_0, # of connection points: 6
#     Node 39, Type 1, BuildingBlock: KUMBOL_clean_sbu_0, # of connection points: 6
#     Edge 40, Type (0, 1), BuildingBlock: XIVTED_clean_linker_0, # of connection points: 2
#     Edge 41, Type (0, 1), BuildingBlock: XIVTED_clean_linker_0, # of connection points: 2
#     Edge 42, Type (0, 1), BuildingBlock: XIVTED_clean_linker_0, # of connection points: 2
#     Edge 43, Type (0, 1), BuildingBlock: XIVTED_clean_linker_0, # of connection points: 2
#     Edge 44, Type (0, 1), BuildingBlock: XIVTED_clean_linker_0, # of connection points: 2
#     Edge 45, Type (0, 1), BuildingBlock: XIVTED_clean_linker_0, # of connection points: 2
#     Edge 46, Type (0, 1), BuildingBlock: XIVTED_clean_linker_0, # of connection points: 2
#     Edge 47, Type (0, 1), BuildingBlock: XIVTED_clean_linker_0, # of connection points: 2
#     Edge 48, Type (0, 1), BuildingBlock: XIVTED_clean_linker_0, # of connection points: 2
#     Edge 49, Type (0, 1), BuildingBlock: XIVTED_clean_linker_0, # of connection points: 2
#     Edge 50, Type (0, 1), BuildingBlock: XIVTED_clean_linker_0, # of connection points: 2
#     Edge 51, Type (0, 1), BuildingBlock: XIVTED_clean_linker_0, # of connection points: 2
#     Edge 52, Type (0, 1), BuildingBlock: XIVTED_clean_linker_0, # of connection points: 2
#     Edge 53, Type (0, 1), BuildingBlock: XIVTED_clean_linker_0, # of connection points: 2
#     Edge 54, Type (0, 1), BuildingBlock: XIVTED_clean_linker_0, # of connection points: 2
#     Edge 55, Type (0, 1), BuildingBlock: XIVTED_clean_linker_0, # of connection points: 2
#     Edge 56, Type (0, 1), BuildingBlock: XIVTED_clean_linker_0, # of connection points: 2
#     Edge 57, Type (0, 1), BuildingBlock: XIVTED_clean_linker_0, # of connection points: 2
#     Edge 58, Type (0, 1), BuildingBlock: XIVTED_clean_linker_0, # of connection points: 2
#     Edge 59, Type (0, 1), BuildingBlock: XIVTED_clean_linker_0, # of connection points: 2
#     Edge 60, Type (0, 1), BuildingBlock: XIVTED_clean_linker_0, # of connection points: 2
#     Edge 61, Type (0, 1), BuildingBlock: XIVTED_clean_linker_0, # of connection points: 2
#     Edge 62, Type (0, 1), BuildingBlock: XIVTED_clean_linker_0, # of connection points: 2
#     Edge 63, Type (0, 1), BuildingBlock: XIVTED_clean_linker_0, # of connection points: 2
#     Edge 64, Type (0, 1), BuildingBlock: XIVTED_clean_linker_0, # of connection points: 2
#     Edge 65, Type (0, 1), BuildingBlock: XIVTED_clean_linker_0, # of connection points: 2
#     Edge 66, Type (0, 1), BuildingBlock: XIVTED_clean_linker_0, # of connection points: 2
#     Edge 67, Type (0, 1), BuildingBlock: XIVTED_clean_linker_0, # of connection points: 2
#     Edge 68, Type (0, 1), BuildingBlock: XIVTED_clean_linker_0, # of connection points: 2
#     Edge 69, Type (0, 1), BuildingBlock: XIVTED_clean_linker_0, # of connection points: 2
#     Edge 70, Type (0, 1), BuildingBlock: XIVTED_clean_linker_0, # of connection points: 2
#     Edge 71, Type (0, 1), BuildingBlock: XIVTED_clean_linker_0, # of connection points: 2
#     Edge 72, Type (0, 1), BuildingBlock: XIVTED_clean_linker_0, # of connection points: 2
#     Edge 73, Type (0, 1), BuildingBlock: XIVTED_clean_linker_0, # of connection points: 2
#     Edge 74, Type (0, 1), BuildingBlock: XIVTED_clean_linker_0, # of connection points: 2
#     Edge 75, Type (0, 1), BuildingBlock: XIVTED_clean_linker_0, # of connection points: 2
#     Edge 76, Type (0, 1), BuildingBlock: XIVTED_clean_linker_0, # of connection points: 2
#     Edge 77, Type (0, 1), BuildingBlock: XIVTED_clean_linker_0, # of connection points: 2
#     Edge 78, Type (0, 1), BuildingBlock: XIVTED_clean_linker_0, # of connection points: 2
#     Edge 79, Type (0, 1), BuildingBlock: XIVTED_clean_linker_0, # of connection points: 2
#     Edge 80, Type (0, 1), BuildingBlock: XIVTED_clean_linker_0, # of connection points: 2
#     Edge 81, Type (0, 1), BuildingBlock: XIVTED_clean_linker_0, # of connection points: 2
#     Edge 82, Type (0, 1), BuildingBlock: XIVTED_clean_linker_0, # of connection points: 2
#     Edge 83, Type (0, 1), BuildingBlock: XIVTED_clean_linker_0, # of connection points: 2
#     Edge 84, Type (0, 1), BuildingBlock: XIVTED_clean_linker_0, # of connection points: 2
#     Edge 85, Type (0, 1), BuildingBlock: XIVTED_clean_linker_0, # of connection points: 2
#     Edge 86, Type (0, 1), BuildingBlock: XIVTED_clean_linker_0, # of connection points: 2
#     Edge 87, Type (0, 1), BuildingBlock: XIVTED_clean_linker_0, # of connection points: 2
#     Edge 88, Type (0, 1), BuildingBlock: XIVTED_clean_linker_0, # of connection points: 2
#     Edge 89, Type (0, 1), BuildingBlock: XIVTED_clean_linker_0, # of connection points: 2
#     Edge 90, Type (0, 1), BuildingBlock: XIVTED_clean_linker_0, # of connection points: 2
#     Edge 91, Type (0, 1), BuildingBlock: XIVTED_clean_linker_0, # of connection points: 2
#     Edge 92, Type (0, 1), BuildingBlock: XIVTED_clean_linker_0, # of connection points: 2
#     Edge 93, Type (0, 1), BuildingBlock: XIVTED_clean_linker_0, # of connection points: 2
#     Edge 94, Type (0, 1), BuildingBlock: XIVTED_clean_linker_0, # of connection points: 2
#     Edge 95, Type (0, 1), BuildingBlock: XIVTED_clean_linker_0, # of connection points: 2
#     Edge 96, Type (0, 1), BuildingBlock: XIVTED_clean_linker_0, # of connection points: 2
#     Edge 97, Type (0, 1), BuildingBlock: XIVTED_clean_linker_0, # of connection points: 2
#     Edge 98, Type (0, 1), BuildingBlock: XIVTED_clean_linker_0, # of connection points: 2
#     Edge 99, Type (0, 1), BuildingBlock: XIVTED_clean_linker_0, # of connection points: 2
#     Edge 100, Type (0, 1), BuildingBlock: XIVTED_clean_linker_0, # of connection points: 2
#     Edge 101, Type (0, 1), BuildingBlock: XIVTED_clean_linker_0, # of connection points: 2
#     Edge 102, Type (0, 1), BuildingBlock: XIVTED_clean_linker_0, # of connection points: 2
#     Edge 103, Type (0, 1), BuildingBlock: XIVTED_clean_linker_0, # of connection points: 2
#     Edge 104, Type (0, 1), BuildingBlock: XIVTED_clean_linker_0, # of connection points: 2
#     Edge 105, Type (0, 1), BuildingBlock: XIVTED_clean_linker_0, # of connection points: 2
#     Edge 106, Type (0, 1), BuildingBlock: XIVTED_clean_linker_0, # of connection points: 2
#     Edge 107, Type (0, 1), BuildingBlock: XIVTED_clean_linker_0, # of connection points: 2
#     Edge 108, Type (0, 1), BuildingBlock: XIVTED_clean_linker_0, # of connection points: 2
#     Edge 109, Type (0, 1), BuildingBlock: XIVTED_clean_linker_0, # of connection points: 2
#     Edge 110, Type (0, 1), BuildingBlock: XIVTED_clean_linker_0, # of connection points: 2
#     Edge 111, Type (0, 1), BuildingBlock: XIVTED_clean_linker_0, # of connection points: 2
#     Edge 112, Type (0, 1), BuildingBlock: XIVTED_clean_linker_0, # of connection points: 2
#     Edge 113, Type (0, 1), BuildingBlock: XIVTED_clean_linker_0, # of connection points: 2
#     Edge 114, Type (0, 1), BuildingBlock: XIVTED_clean_linker_0, # of connection points: 2
#     Edge 115, Type (0, 1), BuildingBlock: XIVTED_clean_linker_0, # of connection points: 2
#     Edge 116, Type (0, 1), BuildingBlock: XIVTED_clean_linker_0, # of connection points: 2
#     Edge 117, Type (0, 1), BuildingBlock: XIVTED_clean_linker_0, # of connection points: 2
#     Edge 118, Type (0, 1), BuildingBlock: XIVTED_clean_linker_0, # of connection points: 2
#     Edge 119, Type (0, 1), BuildingBlock: XIVTED_clean_linker_0, # of connection points: 2
#     Edge 120, Type (0, 1), BuildingBlock: XIVTED_clean_linker_0, # of connection points: 2
#     Edge 121, Type (0, 1), BuildingBlock: XIVTED_clean_linker_0, # of connection points: 2
#     Edge 122, Type (0, 1), BuildingBlock: XIVTED_clean_linker_0, # of connection points: 2
#     Edge 123, Type (0, 1), BuildingBlock: XIVTED_clean_linker_0, # of connection points: 2
#     Edge 124, Type (0, 1), BuildingBlock: XIVTED_clean_linker_0, # of connection points: 2
#     Edge 125, Type (0, 1), BuildingBlock: XIVTED_clean_linker_0, # of connection points: 2
#     Edge 126, Type (0, 1), BuildingBlock: XIVTED_clean_linker_0, # of connection points: 2
#     Edge 127, Type (0, 1), BuildingBlock: XIVTED_clean_linker_0, # of connection points: 2
#     Edge 128, Type (0, 1), BuildingBlock: XIVTED_clean_linker_0, # of connection points: 2
#     Edge 129, Type (0, 1), BuildingBlock: XIVTED_clean_linker_0, # of connection points: 2
#     Edge 130, Type (0, 1), BuildingBlock: XIVTED_clean_linker_0, # of connection points: 2
#     Edge 131, Type (0, 1), BuildingBlock: XIVTED_clean_linker_0, # of connection points: 2
#     Edge 132, Type (0, 1), BuildingBlock: XIVTED_clean_linker_0, # of connection points: 2
#     Edge 133, Type (0, 1), BuildingBlock: XIVTED_clean_linker_0, # of connection points: 2
#     Edge 134, Type (0, 1), BuildingBlock: XIVTED_clean_linker_0, # of connection points: 2
#     Edge 135, Type (0, 1), BuildingBlock: XIVTED_clean_linker_0, # of connection points: 2
# Relax obj value: 0.141
# Max RMSD: 0.309
# Mean RMSD: 0.195
data_MOF--net-gar--node1-UXUYUI_clean_sbu_0--node2-KUMBOL_clean_sbu_0--edge1-XIVTED_clean_linker_0
_symmetry_space_group_name_H-M    P1
_symmetry_Int_Tables_number       1
_symmetry_cell_setting            triclinic
loop_
_symmetry_equiv_pos_as_xyz
'x, y, z'
_cell_length_a     73.344558
_cell_length_b     68.619622
_cell_length_c     68.855262
_cell_angle_alpha  99.895279
_cell_angle_beta   93.029217
_cell_angle_gamma 101.97728
loop_
_atom_site_label
_atom_site_type_symbol
_atom_site_fract_x
_atom_site_fract_y
_atom_site_fract_z
_atom_type_partial_charge
Li0 Li 0.07735 0.31414 0.36578 0.0
Li1 Li 0.10112 0.33159 0.39082 0.0
Li2 Li 0.10903 0.31139 0.36235 0.0
Li3 Li 0.09202 0.29566 0.38815 0.0
C4 C 0.09124 0.34486 0.34996 0.0
N5 N 0.07455 0.36247 0.32266 0.0
C6 C 0.08082 0.3593 0.35623 0.0
C7 C 0.09324 0.33946 0.32979 0.0
C8 C 0.07244 0.36797 0.3422 0.0
C9 C 0.08472 0.34856 0.31623 0.0
C10 C 0.07179 0.32624 0.41185 0.0
C11 C 0.06834 0.32999 0.4469 0.0
N12 N 0.06304 0.3478 0.44658 0.0
C13 C 0.06626 0.34458 0.41191 0.0
C14 C 0.07282 0.31888 0.42952 0.0
C15 C 0.06193 0.35526 0.4296 0.0
C16 C 0.05232 0.31026 0.33194 0.0
N17 N 0.05456 0.31467 0.35205 0.0
C18 C 0.02584 0.32563 0.3533 0.0
C19 C 0.04137 0.32143 0.36279 0.0
C20 C 0.02382 0.32257 0.33256 0.0
C21 C 0.03694 0.31418 0.32179 0.0
H22 H 0.06292 0.30468 0.32378 0.0
H23 H 0.04316 0.32412 0.37872 0.0
C24 C 0.11329 0.37335 0.40056 0.0
N25 N 0.10985 0.35648 0.40877 0.0
C26 C 0.11495 0.39234 0.4123 0.0
C27 C 0.11192 0.37643 0.44107 0.0
C28 C 0.11037 0.35772 0.42873 0.0
C29 C 0.11311 0.39381 0.43263 0.0
H30 H 0.11353 0.37198 0.38473 0.0
H31 H 0.10804 0.34411 0.43494 0.0
C32 C 0.0902 0.27381 0.34473 0.0
N33 N 0.09833 0.24368 0.3166 0.0
C34 C 0.09363 0.25609 0.35014 0.0
C35 C 0.09082 0.27617 0.32499 0.0
C36 C 0.09773 0.24104 0.33571 0.0
C37 C 0.09498 0.26078 0.311 0.0
C38 C 0.13185 0.32248 0.40405 0.0
C39 C 0.14576 0.33753 0.39899 0.0
C40 C 0.1324 0.31869 0.42336 0.0
C41 C 0.15994 0.34868 0.4134 0.0
C42 C 0.14682 0.33016 0.43735 0.0
N43 N 0.16017 0.34481 0.43212 0.0
C44 C 0.13662 0.32949 0.34214 0.0
C45 C 0.13571 0.29439 0.33989 0.0
C46 C 0.15274 0.33203 0.33233 0.0
N47 N 0.1285 0.31095 0.34575 0.0
C48 C 0.15177 0.29619 0.32975 0.0
C49 C 0.16061 0.31532 0.32633 0.0
H50 H 0.13109 0.34256 0.34774 0.0
H51 H 0.12956 0.28005 0.34382 0.0
C52 C 0.06901 0.26775 0.40482 0.0
N53 N 0.08717 0.27421 0.40158 0.0
C54 C 0.06429 0.25361 0.41695 0.0
C55 C 0.09695 0.25205 0.42101 0.0
C56 C 0.10108 0.26647 0.40896 0.0
C57 C 0.07842 0.24593 0.42547 0.0
H58 H 0.05834 0.27428 0.39863 0.0
H59 H 0.11538 0.27195 0.40596 0.0
O60 O 0.09919 0.33585 0.36348 0.0
O61 O 0.0761 0.31552 0.39464 0.0
O62 O 0.08598 0.28861 0.35862 0.0
O63 O 0.1177 0.31163 0.39022 0.0
H64 H 0.07908 0.36367 0.37175 0.0
H65 H 0.10098 0.3281 0.32456 0.0
H66 H 0.06422 0.37905 0.34685 0.0
H67 H 0.08607 0.34442 0.30057 0.0
H68 H 0.06918 0.32451 0.46067 0.0
H69 H 0.06561 0.35071 0.39852 0.0
H70 H 0.07734 0.30494 0.42995 0.0
H71 H 0.05779 0.36953 0.42985 0.0
H72 H 0.0157 0.33157 0.36207 0.0
H73 H 0.03578 0.31157 0.30576 0.0
H74 H 0.11633 0.40554 0.40538 0.0
H75 H 0.11045 0.37699 0.45672 0.0
H76 H 0.09312 0.25394 0.36531 0.0
H77 H 0.08845 0.28986 0.32056 0.0
H78 H 0.10045 0.22727 0.3397 0.0
H79 H 0.09563 0.26246 0.2957 0.0
H80 H 0.1455 0.34072 0.38415 0.0
H81 H 0.12163 0.30726 0.4276 0.0
H82 H 0.17074 0.36045 0.40972 0.0
H83 H 0.14735 0.3275 0.45238 0.0
H84 H 0.15942 0.34704 0.33016 0.0
H85 H 0.15785 0.28312 0.32575 0.0
H86 H 0.04983 0.24901 0.41997 0.0
H87 H 0.10816 0.24642 0.42743 0.0
Li88 Li 0.01205 0.79736 0.65608 0.0
Li89 Li 0.02518 0.78278 0.68217 0.0
Li90 Li 0.0083 0.76029 0.65113 0.0
Li91 Li 0.992 0.77701 0.67584 0.0
C92 C 0.0476 0.78407 0.64553 0.0
N93 N 0.08053 0.78913 0.6273 0.0
C94 C 0.06393 0.79701 0.65548 0.0
C95 C 0.04811 0.77356 0.62633 0.0
C96 C 0.0804 0.79942 0.646 0.0
C97 C 0.06487 0.77636 0.61737 0.0
C98 C 0.01913 0.81803 0.70044 0.0
C99 C 0.02908 0.82887 0.73527 0.0
N100 N 0.03868 0.84689 0.73164 0.0
C101 C 0.02901 0.83668 0.69706 0.0
C102 C 0.01908 0.81409 0.7197 0.0
C103 C 0.03884 0.85107 0.71304 0.0
C104 C 1.00106 0.82337 0.6324 0.0
N105 N 0.01588 0.81908 0.6422 0.0
C106 C 0.03739 0.84206 0.62754 0.0
C107 C 0.03374 0.82859 0.64054 0.0
C108 C 0.02244 0.84585 0.61627 0.0
C109 C 1.00405 0.83673 0.61916 0.0
H110 H 0.98697 0.81577 0.63423 0.0
H111 H 0.0452 0.8253 0.64889 0.0
C112 C 0.04876 0.76507 0.70131 0.0
N113 N 0.04623 0.78383 0.69986 0.0
C114 C 0.06472 0.76279 0.71168 0.0
C115 C 0.07519 0.79927 0.71935 0.0
C116 C 0.05903 0.80085 0.70861 0.0
C117 C 0.07831 0.78 0.72078 0.0
H118 H 0.0387 0.75177 0.69371 0.0
H119 H 0.05714 0.81558 0.70662 0.0
C120 C 0.98321 0.77299 0.62689 0.0
N121 N 0.97192 0.76749 0.58702 0.0
C122 C 0.96419 0.76709 0.62024 0.0
C123 C 0.99648 0.77612 0.61326 0.0
C124 C 0.95877 0.76438 0.60003 0.0
C125 C 0.9905 0.77328 0.59317 0.0
C126 C 0.99602 0.74383 0.68845 0.0
C127 C 0.9838 0.72642 0.67781 0.0
C128 C 0.99666 0.74814 0.70908 0.0
C129 C 0.97216 0.71372 0.68805 0.0
C130 C 0.98478 0.73506 0.71876 0.0
N131 N 0.97286 0.71828 0.70813 0.0
C132 C 0.02421 0.72908 0.63983 0.0
C133 C 0.9976 0.72732 0.61788 0.0
C134 C 0.02779 0.7117 0.62864 0.0
N135 N 0.00952 0.7366 0.63415 0.0
C136 C 1.00077 0.70993 0.60607 0.0
C137 C 0.01616 0.70207 0.61136 0.0
H138 H 0.03322 0.73678 0.65305 0.0
H139 H 0.98575 0.73339 0.61397 0.0
C140 C 0.96689 0.7815 0.70552 0.0
N141 N 0.96905 0.77214 0.68702 0.0
C142 C 0.95001 0.77624 0.71378 0.0
C143 C 0.93801 0.75192 0.6837 0.0
C144 C 0.95509 0.75766 0.67606 0.0
C145 C 0.93532 0.76125 0.70281 0.0
H146 H 0.9783 0.79291 0.71389 0.0
H147 H 0.95741 0.75026 0.66151 0.0
O148 O 0.03135 0.78138 0.65469 0.0
O149 O 0.00931 0.80383 0.68503 0.0
O150 O 0.98869 0.77535 0.64663 0.0
O151 O 0.00715 0.75674 0.67868 0.0
H152 H 0.0638 0.80543 0.67022 0.0
H153 H 0.03574 0.76329 0.61838 0.0
H154 H 0.09308 0.80952 0.65351 0.0
H155 H 0.06543 0.76834 0.60252 0.0
H156 H 0.02928 0.82598 0.75023 0.0
H157 H 0.02907 0.84003 0.68228 0.0
H158 H 0.0116 0.79968 0.72255 0.0
H159 H 0.04659 0.86555 0.71064 0.0
H160 H 0.05178 0.84874 0.62575 0.0
H161 H 0.99213 0.83957 0.61101 0.0
H162 H 0.0667 0.74761 0.71183 0.0
H163 H 0.08528 0.81297 0.72613 0.0
H164 H 0.95373 0.7646 0.63059 0.0
H165 H 0.01121 0.7808 0.61813 0.0
H166 H 0.9441 0.75978 0.59468 0.0
H167 H 1.00062 0.77567 0.58247 0.0
H168 H 0.98315 0.72291 0.66182 0.0
H169 H 1.00612 0.76153 0.71749 0.0
H170 H 0.96251 0.70027 0.68002 0.0
H171 H 0.98501 0.73827 0.73473 0.0
H172 H 0.0395 0.70583 0.63354 0.0
H173 H 0.99149 0.70292 0.59284 0.0
H174 H 0.94838 0.78402 0.72844 0.0
H175 H 0.92712 0.74016 0.67485 0.0
Li176 Li 0.58378 0.82221 0.87491 0.0
Li177 Li 0.6076 0.84329 0.89773 0.0
Li178 Li 0.6145 0.81834 0.87129 0.0
Li179 Li 0.59814 0.80678 0.8991 0.0
C180 C 0.59685 0.85042 0.85498 0.0
N181 N 0.57899 0.86552 0.82644 0.0
C182 C 0.59254 0.86951 0.85959 0.0
C183 C 0.59217 0.8391 0.83579 0.0
C184 C 0.58349 0.87686 0.84497 0.0
C185 C 0.58311 0.84697 0.8216 0.0
C186 C 0.56601 0.82936 0.90825 0.0
C187 C 0.5332 0.81356 0.90659 0.0
N188 N 0.52965 0.83157 0.91528 0.0
C189 C 0.56201 0.84772 0.91717 0.0
C190 C 0.55147 0.81214 0.90293 0.0
C191 C 0.54355 0.84852 0.9206 0.0
C192 C 0.5518 0.80683 0.84677 0.0
N193 N 0.56065 0.82246 0.8613 0.0
C194 C 0.53763 0.84139 0.85603 0.0
C195 C 0.55383 0.83944 0.86614 0.0
C196 C 0.5284 0.8258 0.84057 0.0
C197 C 0.53552 0.8082 0.8361 0.0
H198 H 0.55759 0.79353 0.84323 0.0
H199 H 0.56124 0.85171 0.87763 0.0
C200 C 0.6251 0.88412 0.90359 0.0
N201 N 0.61613 0.86933 0.91271 0.0
C202 C 0.62808 0.90436 0.91284 0.0
C203 C 0.61437 0.89339 0.94146 0.0
C204 C 0.61143 0.87339 0.93154 0.0
C205 C 0.62205 0.90912 0.9317 0.0
H206 H 0.62886 0.88026 0.88866 0.0
H207 H 0.60441 0.86117 0.93836 0.0
C208 C 0.5967 0.78038 0.85859 0.0
N209 N 0.60786 0.74897 0.83494 0.0
C210 C 0.60421 0.76638 0.86716 0.0
C211 C 0.59472 0.7783 0.83799 0.0
C212 C 0.6098 0.75063 0.85495 0.0
C213 C 0.6005 0.76236 0.82629 0.0
C214 C 0.63925 0.83656 0.91013 0.0
C215 C 0.65371 0.84595 0.90017 0.0
C216 C 0.64016 0.84153 0.93078 0.0
C217 C 0.66889 0.86004 0.91105 0.0
C218 C 0.65557 0.85572 0.94112 0.0
N219 N 0.6695 0.86459 0.93112 0.0
C220 C 0.63762 0.82598 0.84112 0.0
C221 C 0.64403 0.80071 0.85836 0.0
C222 C 0.65357 0.82562 0.83109 0.0
N223 N 0.6333 0.81378 0.85455 0.0
C224 C 0.66014 0.79985 0.84866 0.0
C225 C 0.66529 0.81279 0.83517 0.0
H226 H 0.62937 0.83688 0.83903 0.0
H227 H 0.64063 0.79175 0.86967 0.0
C228 C 0.57827 0.77357 0.91326 0.0
N229 N 0.59459 0.78772 0.91587 0.0
C230 C 0.57462 0.76007 0.92625 0.0
C231 C 0.60508 0.77533 0.94378 0.0
C232 C 0.60807 0.78862 0.93049 0.0
C233 C 0.58806 0.76099 0.94189 0.0
H234 H 0.56807 0.77279 0.90111 0.0
H235 H 0.62114 0.79963 0.93184 0.0
O236 O 0.6054 0.84274 0.86919 0.0
O237 O 0.584 0.82834 0.90458 0.0
O238 O 0.59135 0.79606 0.87028 0.0
O239 O 0.624 0.82315 0.89969 0.0
H240 H 0.59574 0.87839 0.8744 0.0
H241 H 0.59531 0.82428 0.83197 0.0
H242 H 0.57993 0.89153 0.84839 0.0
H243 H 0.57931 0.83829 0.80674 0.0
H244 H 0.52182 0.80038 0.90238 0.0
H245 H 0.57297 0.8613 0.92116 0.0
H246 H 0.55417 0.79799 0.89549 0.0
H247 H 0.54027 0.86265 0.92741 0.0
H248 H 0.53244 0.85504 0.86027 0.0
H249 H 0.52886 0.79587 0.82421 0.0
H250 H 0.63416 0.91617 0.90498 0.0
H251 H 0.60939 0.89653 0.95596 0.0
H252 H 0.60596 0.76778 0.88306 0.0
H253 H 0.58883 0.7889 0.8311 0.0
H254 H 0.61574 0.73976 0.86138 0.0
H255 H 0.59911 0.76062 0.81033 0.0
H256 H 0.65317 0.84259 0.88421 0.0
H257 H 0.62888 0.8349 0.93875 0.0
H258 H 0.68016 0.86743 0.90352 0.0
H259 H 0.65638 0.85978 0.95708 0.0
H260 H 0.65726 0.83618 0.82117 0.0
H261 H 0.6688 0.78971 0.85219 0.0
H262 H 0.56128 0.74931 0.92427 0.0
H263 H 0.61601 0.77622 0.95531 0.0
Li264 Li 0.51893 0.2945 0.14906 0.0
Li265 Li 0.53474 0.28167 0.1742 0.0
Li266 Li 0.51173 0.25924 0.14956 0.0
Li267 Li 0.50268 0.28254 0.17552 0.0
C268 C 0.54783 0.28354 0.13264 0.0
N269 N 0.5715 0.30107 0.10739 0.0
C270 C 0.566 0.29428 0.13972 0.0
C271 C 0.54171 0.28181 0.11269 0.0
C272 C 0.57775 0.30298 0.12672 0.0
C273 C 0.55388 0.29078 0.10018 0.0
C274 C 0.51709 0.32006 0.18949 0.0
C275 C 0.50978 0.33489 0.22168 0.0
N276 N 0.50065 0.34704 0.21312 0.0
C277 C 0.50767 0.33271 0.181 0.0
C278 C 0.5182 0.32116 0.20999 0.0
C279 C 0.49944 0.34625 0.19321 0.0
C280 C 0.50854 0.31306 0.11818 0.0
N281 N 0.52193 0.31408 0.13292 0.0
C282 C 0.54217 0.34135 0.12235 0.0
C283 C 0.53824 0.32824 0.13566 0.0
C284 C 0.52897 0.34005 0.10637 0.0
C285 C 0.51179 0.32598 0.10462 0.0
H286 H 0.49549 0.30199 0.11677 0.0
H287 H 0.54848 0.32878 0.14774 0.0
C288 C 0.56671 0.26825 0.18018 0.0
N289 N 0.55747 0.28234 0.18847 0.0
C290 C 0.58197 0.26466 0.19067 0.0
C291 C 0.57846 0.2908 0.21779 0.0
C292 C 0.56321 0.29394 0.20668 0.0
C293 C 0.58769 0.27561 0.20993 0.0
H294 H 0.56168 0.2592 0.1657 0.0
H295 H 0.55546 0.30491 0.21291 0.0
C296 C 0.48006 0.26254 0.13548 0.0
N297 N 0.45295 0.23195 0.11257 0.0
C298 C 0.46605 0.251 0.1444 0.0
C299 C 0.48033 0.25841 0.11489 0.0
C300 C 0.45245 0.23565 0.13256 0.0
C301 C 0.46649 0.2429 0.10358 0.0
C302 C 0.52301 0.24998 0.1902 0.0
C303 C 0.52967 0.23298 0.18197 0.0
C304 C 0.52673 0.25767 0.21052 0.0
C305 C 0.53971 0.22387 0.19422 0.0
C306 C 0.53685 0.24815 0.22226 0.0
N307 N 0.54307 0.23158 0.21394 0.0
C308 C 0.51205 0.22916 0.11672 0.0
C309 C 0.49498 0.21782 0.14253 0.0
C310 C 0.50936 0.20939 0.10639 0.0
N311 N 0.50519 0.23289 0.13456 0.0
C312 C 0.49235 0.19772 0.13293 0.0
C313 C 0.49991 0.19346 0.11484 0.0
H314 H 0.52023 0.24139 0.11088 0.0
H315 H 0.48976 0.22137 0.15682 0.0
C316 C 0.46905 0.29296 0.18225 0.0
N317 N 0.48295 0.28632 0.19108 0.0
C318 C 0.45279 0.29403 0.19144 0.0
C319 C 0.46607 0.2829 0.21939 0.0
C320 C 0.48191 0.28152 0.20936 0.0
C321 C 0.45101 0.28874 0.21021 0.0
H322 H 0.47031 0.29664 0.16765 0.0
H323 H 0.49315 0.2763 0.21604 0.0
O324 O 0.53604 0.27501 0.1452 0.0
O325 O 0.52474 0.30627 0.17773 0.0
O326 O 0.49384 0.27724 0.14689 0.0
O327 O 0.51346 0.25941 0.17838 0.0
H328 H 0.57095 0.29618 0.15512 0.0
H329 H 0.52754 0.27418 0.10701 0.0
H330 H 0.59182 0.31136 0.13203 0.0
H331 H 0.54924 0.2897 0.08478 0.0
H332 H 0.5104 0.3358 0.23755 0.0
H333 H 0.50652 0.33193 0.16515 0.0
H334 H 0.52515 0.31124 0.21677 0.0
H335 H 0.49203 0.35607 0.18684 0.0
H336 H 0.55564 0.35186 0.12419 0.0
H337 H 0.50105 0.32487 0.09282 0.0
H338 H 0.58896 0.25313 0.18392 0.0
H339 H 0.58247 0.29951 0.23263 0.0
H340 H 0.46585 0.25357 0.16031 0.0
H341 H 0.49133 0.26674 0.10773 0.0
H342 H 0.44158 0.22657 0.13928 0.0
H343 H 0.4666 0.23948 0.08766 0.0
H344 H 0.52756 0.22713 0.16624 0.0
H345 H 0.5224 0.27124 0.21709 0.0
H346 H 0.54501 0.21078 0.18801 0.0
H347 H 0.53993 0.25407 0.23796 0.0
H348 H 0.51561 0.2065 0.09257 0.0
H349 H 0.48512 0.18564 0.13983 0.0
H350 H 0.44151 0.2982 0.18348 0.0
H351 H 0.46557 0.27909 0.23399 0.0
Li352 Li 0.08762 0.83632 0.11012 0.0
Li353 Li 0.10583 0.82334 0.13497 0.0
Li354 Li 0.08446 0.79841 0.10707 0.0
Li355 Li 0.07101 0.81764 0.135 0.0
C356 C 0.11999 0.82958 0.09464 0.0
N357 N 0.14528 0.84964 0.07247 0.0
C358 C 0.13406 0.84608 0.10389 0.0
C359 C 0.11887 0.82313 0.07415 0.0
C360 C 0.14668 0.85608 0.09242 0.0
C361 C 0.13177 0.8335 0.06319 0.0
C362 C 0.09815 0.8565 0.1571 0.0
C363 C 0.10665 0.86179 0.19223 0.0
N364 N 0.11535 0.88127 0.19198 0.0
C365 C 0.1071 0.8766 0.15719 0.0
C366 C 0.09786 0.84904 0.17475 0.0
C367 C 0.11573 0.88888 0.17498 0.0
C368 C 0.07076 0.8597 0.08563 0.0
N369 N 0.08669 0.85945 0.09667 0.0
C370 C 0.09993 0.89357 0.09276 0.0
C371 C 0.10119 0.87601 0.10019 0.0
C372 C 0.08362 0.89425 0.08139 0.0
C373 C 0.06904 0.87681 0.07763 0.0
H374 H 0.05901 0.84691 0.08353 0.0
H375 H 0.11358 0.87592 0.10933 0.0
C376 C 0.13268 0.80714 0.15336 0.0
N377 N 0.12912 0.82533 0.15107 0.0
C378 C 0.14882 0.80609 0.16455 0.0
C379 C 0.15781 0.84261 0.17074 0.0
C380 C 0.14138 0.84295 0.15945 0.0
C381 C 0.1618 0.82396 0.17345 0.0
H382 H 0.12289 0.79329 0.14647 0.0
H383 H 0.13856 0.8573 0.15728 0.0
C384 C 0.05328 0.80648 0.08851 0.0
N385 N 0.03128 0.79082 0.05324 0.0
C386 C 0.0343 0.79774 0.08861 0.0
C387 C 0.06108 0.80725 0.0705 0.0
C388 C 0.02341 0.7899 0.07061 0.0
C389 C 0.04972 0.79927 0.05282 0.0
C390 C 0.08009 0.78434 0.14714 0.0
C391 C 0.06659 0.76696 0.13867 0.0
C392 C 0.08633 0.78747 0.1672 0.0
C393 C 0.05932 0.75312 0.1505 0.0
C394 C 0.07874 0.77326 0.17853 0.0
N395 N 0.06549 0.75653 0.17002 0.0
C396 C 0.09766 0.76321 0.09547 0.0
C397 C 0.06713 0.75964 0.08039 0.0
C398 C 0.09734 0.7428 0.08805 0.0
N399 N 0.08264 0.77123 0.09179 0.0
C400 C 0.06628 0.73915 0.0725 0.0
C401 C 0.08138 0.73029 0.07662 0.0
H402 H 0.10971 0.77254 0.10485 0.0
H403 H 0.05505 0.76591 0.07806 0.0
C404 C 0.04852 0.8319 0.16478 0.0
N405 N 0.04986 0.81581 0.15075 0.0
C406 C 0.03317 0.83087 0.1761 0.0
C407 C 0.02049 0.79691 0.15806 0.0
C408 C 0.03608 0.79862 0.14707 0.0
C409 C 0.01887 0.81316 0.17293 0.0
H410 H 0.05924 0.84569 0.16706 0.0
H411 H 0.03712 0.78622 0.13547 0.0
O412 O 0.10743 0.81971 0.10561 0.0
O413 O 0.08994 0.8441 0.13978 0.0
O414 O 0.06421 0.81396 0.10597 0.0
O415 O 0.08735 0.79808 0.1358 0.0
H416 H 0.13506 0.85129 0.11973 0.0
H417 H 0.10818 0.81021 0.0668 0.0
H418 H 0.15755 0.86899 0.09937 0.0
H419 H 0.13106 0.82871 0.0473 0.0
H420 H 0.10657 0.85618 0.20599 0.0
H421 H 0.1074 0.88266 0.1437 0.0
H422 H 0.0909 0.83357 0.17493 0.0
H423 H 0.12276 0.90444 0.17527 0.0
H424 H 0.11157 0.90659 0.09608 0.0
H425 H 0.05605 0.87669 0.0693 0.0
H426 H 0.15094 0.79134 0.16635 0.0
H427 H 0.16742 0.85682 0.17699 0.0
H428 H 0.02808 0.797 0.10244 0.0
H429 H 0.07575 0.81398 0.07022 0.0
H430 H 0.00871 0.78306 0.07044 0.0
H431 H 0.05556 0.79978 0.03876 0.0
H432 H 0.06158 0.76431 0.12318 0.0
H433 H 0.09698 0.80067 0.17394 0.0
H434 H 0.04876 0.73969 0.14416 0.0
H435 H 0.0834 0.7755 0.19408 0.0
H436 H 0.1094 0.7368 0.09152 0.0
H437 H 0.05356 0.73011 0.06403 0.0
H438 H 0.0324 0.84399 0.18703 0.0
H439 H 0.00993 0.7829 0.15507 0.0
Li440 Li 0.52535 0.79472 0.43942 0.0
Li441 Li 0.50375 0.7717 0.41232 0.0
Li442 Li 0.52338 0.75702 0.43659 0.0
Li443 Li 0.53861 0.77431 0.41089 0.0
C444 C 0.49559 0.78002 0.45845 0.0
N445 N 0.48098 0.79553 0.4924 0.0
C446 C 0.47978 0.78826 0.4571 0.0
C447 C 0.50383 0.77941 0.47703 0.0
C448 C 0.47265 0.79612 0.47445 0.0
C449 C 0.49627 0.78738 0.49404 0.0
C450 C 0.52161 0.80478 0.39485 0.0
C451 C 0.52277 0.8055 0.36001 0.0
N452 N 0.51724 0.82344 0.36288 0.0
C453 C 0.51624 0.82339 0.39749 0.0
C454 C 0.52514 0.79591 0.37599 0.0
C455 C 0.51398 0.8325 0.38114 0.0
C456 C 0.54397 0.83305 0.46541 0.0
N457 N 0.52779 0.82195 0.45489 0.0
C458 C 0.5142 0.85118 0.45965 0.0
C459 C 0.51296 0.83059 0.45226 0.0
C460 C 0.53089 0.86327 0.46996 0.0
C461 C 0.54577 0.85378 0.47325 0.0
H462 H 0.55578 0.82608 0.46698 0.0
H463 H 0.5004 0.82172 0.44346 0.0
C464 C 0.46887 0.75382 0.38628 0.0
N465 N 0.47983 0.7708 0.39775 0.0
C466 C 0.45214 0.75479 0.37587 0.0
C467 C 0.45805 0.79053 0.38952 0.0
C468 C 0.47451 0.78883 0.39971 0.0
C469 C 0.44649 0.77339 0.37728 0.0
H470 H 0.47307 0.73949 0.38515 0.0
H471 H 0.48313 0.80206 0.40923 0.0
C472 C 0.55915 0.7767 0.45312 0.0
N473 N 0.58541 0.76976 0.47984 0.0
C474 C 0.57336 0.76724 0.44637 0.0
C475 C 0.55844 0.78292 0.47343 0.0
C476 C 0.58645 0.76376 0.46013 0.0
C477 C 0.57182 0.77921 0.48671 0.0
C478 C 0.517 0.73596 0.38947 0.0
C479 C 0.52241 0.71756 0.38932 0.0
C480 C 0.51028 0.7404 0.37175 0.0
C481 C 0.52147 0.70418 0.37136 0.0
C482 C 0.50952 0.72662 0.35409 0.0
N483 N 0.51512 0.70896 0.35426 0.0
C484 C 0.51413 0.72661 0.46277 0.0
C485 C 0.53955 0.72436 0.44348 0.0
C486 C 0.51635 0.70932 0.47039 0.0
N487 N 0.52564 0.73378 0.44944 0.0
C488 C 0.54223 0.70714 0.45065 0.0
C489 C 0.53045 0.69908 0.46418 0.0
H490 H 0.503 0.73405 0.46728 0.0
H491 H 0.54847 0.73002 0.43276 0.0
C492 C 0.56985 0.79398 0.39352 0.0
N493 N 0.55957 0.77539 0.39483 0.0
C494 C 0.58557 0.79577 0.38268 0.0
C495 C 0.57997 0.75925 0.3748 0.0
C496 C 0.56444 0.75818 0.38589 0.0
C497 C 0.59082 0.77824 0.37306 0.0
H498 H 0.56586 0.80747 0.40095 0.0
H499 H 0.55649 0.74357 0.38758 0.0
O500 O 0.50292 0.77249 0.44166 0.0
O501 O 0.52394 0.79564 0.41073 0.0
O502 O 0.54615 0.7801 0.43989 0.0
O503 O 0.51782 0.74926 0.40695 0.0
H504 H 0.47315 0.78871 0.44282 0.0
H505 H 0.51591 0.77283 0.4783 0.0
H506 H 0.4605 0.80268 0.47364 0.0
H507 H 0.50254 0.78708 0.50852 0.0
H508 H 0.5254 0.79874 0.34534 0.0
H509 H 0.51373 0.83071 0.41198 0.0
H510 H 0.52989 0.78188 0.37369 0.0
H511 H 0.50968 0.84681 0.38297 0.0
H512 H 0.50229 0.85769 0.45685 0.0
H513 H 0.55898 0.86249 0.48093 0.0
H514 H 0.44365 0.74101 0.367 0.0
H515 H 0.45465 0.80529 0.39106 0.0
H516 H 0.57418 0.76248 0.43068 0.0
H517 H 0.54774 0.7906 0.47887 0.0
H518 H 0.59744 0.7563 0.45513 0.0
H519 H 0.57141 0.78389 0.50248 0.0
H520 H 0.52735 0.71365 0.40288 0.0
H521 H 0.50545 0.75422 0.37161 0.0
H522 H 0.52575 0.68997 0.37102 0.0
H523 H 0.50438 0.72993 0.34027 0.0
H524 H 0.50675 0.70372 0.48061 0.0
H525 H 0.55351 0.70019 0.44554 0.0
H526 H 0.59338 0.81073 0.38166 0.0
H527 H 0.58363 0.74532 0.36798 0.0
Li528 Li 0.5899 0.33637 0.60942 0.0
Li529 Li 0.6079 0.32398 0.63353 0.0
Li530 Li 0.58684 0.29947 0.60745 0.0
Li531 Li 0.57328 0.31899 0.63583 0.0
C532 C 0.6192 0.33118 0.59223 0.0
N533 N 0.63776 0.35502 0.56779 0.0
C534 C 0.63415 0.34734 0.6001 0.0
C535 C 0.61373 0.32706 0.57194 0.0
C536 C 0.64335 0.35923 0.5875 0.0
C537 C 0.62328 0.33931 0.55982 0.0
C538 C 0.6012 0.35752 0.65619 0.0
C539 C 0.60197 0.36992 0.69127 0.0
N540 N 0.61873 0.38271 0.69073 0.0
C541 C 0.61842 0.3708 0.65599 0.0
C542 C 0.59289 0.35706 0.67396 0.0
C543 C 0.62706 0.38341 0.6736 0.0
C544 C 0.57536 0.35771 0.58057 0.0
N545 N 0.58871 0.35929 0.59567 0.0
C546 C 0.59866 0.39504 0.59593 0.0
C547 C 0.60042 0.37753 0.60313 0.0
C548 C 0.58468 0.39408 0.58075 0.0
C549 C 0.57319 0.37489 0.57279 0.0
H550 H 0.56592 0.34325 0.57496 0.0
H551 H 0.61089 0.37867 0.61511 0.0
C552 C 0.64542 0.319 0.63936 0.0
N553 N 0.63185 0.32629 0.64913 0.0
C554 C 0.66199 0.31762 0.64969 0.0
C555 C 0.65068 0.33167 0.68002 0.0
C556 C 0.63425 0.33253 0.66915 0.0
C557 C 0.66484 0.32384 0.67042 0.0
H558 H 0.64311 0.31354 0.62354 0.0
H559 H 0.62317 0.33753 0.67692 0.0
C560 C 0.55358 0.30062 0.59339 0.0
N561 N 0.52876 0.27068 0.56712 0.0
C562 C 0.53848 0.28844 0.60024 0.0
C563 C 0.55603 0.29762 0.57319 0.0
C564 C 0.52609 0.27337 0.58672 0.0
C565 C 0.54333 0.28239 0.56014 0.0
C566 C 0.59846 0.29051 0.6486 0.0
C567 C 0.6095 0.27722 0.64095 0.0
C568 C 0.59783 0.29552 0.66907 0.0
C569 C 0.61981 0.26916 0.65396 0.0
C570 C 0.60833 0.28713 0.68158 0.0
N571 N 0.61902 0.27425 0.67384 0.0
C572 C 0.59238 0.26542 0.57751 0.0
C573 C 0.57102 0.25789 0.60116 0.0
C574 C 0.59053 0.24459 0.57003 0.0
N575 N 0.58281 0.27163 0.59298 0.0
C576 C 0.56882 0.23707 0.59424 0.0
C577 C 0.57893 0.23003 0.57873 0.0
H578 H 0.60195 0.27654 0.57142 0.0
H579 H 0.56375 0.26312 0.61362 0.0
C580 C 0.54101 0.33058 0.65152 0.0
N581 N 0.55226 0.31713 0.65163 0.0
C582 C 0.52497 0.32871 0.66187 0.0
C583 C 0.53248 0.29933 0.67245 0.0
C584 C 0.54824 0.30164 0.66174 0.0
C585 C 0.5204 0.31285 0.67254 0.0
H586 H 0.54433 0.34258 0.64309 0.0
H587 H 0.55712 0.29086 0.66129 0.0
O588 O 0.6097 0.31973 0.60441 0.0
O589 O 0.59242 0.34512 0.63909 0.0
O590 O 0.56618 0.31503 0.60645 0.0
O591 O 0.58878 0.29909 0.63614 0.0
H592 H 0.63852 0.35075 0.61579 0.0
H593 H 0.60217 0.3146 0.56564 0.0
H594 H 0.6549 0.37185 0.59339 0.0
H595 H 0.61917 0.33635 0.54409 0.0
H596 H 0.59572 0.36969 0.70513 0.0
H597 H 0.62525 0.37113 0.64249 0.0
H598 H 0.57961 0.34686 0.67443 0.0
H599 H 0.64043 0.39368 0.67368 0.0
H600 H 0.60809 0.40931 0.60241 0.0
H601 H 0.5621 0.37328 0.56123 0.0
H602 H 0.67213 0.31107 0.64149 0.0
H603 H 0.6521 0.33694 0.69588 0.0
H604 H 0.53645 0.29047 0.61585 0.0
H605 H 0.56774 0.3068 0.56769 0.0
H606 H 0.51439 0.26376 0.59182 0.0
H607 H 0.5451 0.27985 0.54448 0.0
H608 H 0.61031 0.27338 0.62515 0.0
H609 H 0.58964 0.3061 0.67524 0.0
H610 H 0.6285 0.25894 0.64826 0.0
H611 H 0.60808 0.29097 0.69746 0.0
H612 H 0.59872 0.23996 0.55816 0.0
H613 H 0.55946 0.22657 0.60125 0.0
H614 H 0.51605 0.33934 0.66111 0.0
H615 H 0.52987 0.28703 0.68061 0.0
Li616 Li 0.02524 0.29478 0.94104 0.0
Li617 Li 1.00393 0.27106 0.91411 0.0
Li618 Li 0.02421 0.25742 0.93852 0.0
Li619 Li 0.03885 0.27475 0.91267 0.0
C620 C 0.99582 0.27956 0.96027 0.0
N621 N 0.98097 0.29479 0.99417 0.0
C622 C 0.9796 0.2871 0.95887 0.0
C623 C 1.00434 0.2795 0.97888 0.0
C624 C 0.97235 0.29482 0.97619 0.0
C625 C 0.99665 0.28732 0.99585 0.0
C626 C 0.02032 0.30436 0.89649 0.0
C627 C 0.02054 0.30507 0.86158 0.0
N628 N 0.01417 0.3225 0.86458 0.0
C629 C 0.01406 0.32246 0.89926 0.0
C630 C 0.02382 0.29574 0.87753 0.0
C631 C 0.01091 0.33132 0.88294 0.0
C632 C 0.04386 0.33323 0.96628 0.0
N633 N 0.02745 0.32192 0.95644 0.0
C634 C 0.01354 0.35088 0.96187 0.0
C635 C 0.01236 0.33031 0.95445 0.0
C636 C 0.03046 0.36319 0.97148 0.0
C637 C 0.04563 0.35394 0.97409 0.0
H638 H 0.05586 0.32645 0.96728 0.0
H639 H 0.99962 0.32127 0.94613 0.0
C640 C 0.96949 0.25185 0.88789 0.0
N641 N 0.97979 0.26912 0.89953 0.0
C642 C 0.95252 0.252 0.87746 0.0
C643 C 0.95682 0.28752 0.89145 0.0
C644 C 0.97357 0.28665 0.90164 0.0
C645 C 0.94592 0.27007 0.87904 0.0
H646 H 0.97441 0.23793 0.88665 0.0
H647 H 0.98168 0.3001 0.9113 0.0
C648 C 0.05977 0.27813 0.95494 0.0
N649 N 0.08659 0.27252 0.98186 0.0
C650 C 0.07432 0.26917 0.94833 0.0
C651 C 0.05902 0.28455 0.97521 0.0
C652 C 0.08769 0.26635 0.96218 0.0
C653 C 0.07268 0.28152 0.9886 0.0
C654 C 0.01893 0.2362 0.89146 0.0
C655 C 0.02575 0.21863 0.89148 0.0
C656 C 0.01194 0.24012 0.8736 0.0
C657 C 0.02592 0.20557 0.87356 0.0
C658 C 0.01231 0.22669 0.85599 0.0
N659 N 0.01927 0.20985 0.85633 0.0
C660 C 0.01533 0.22756 0.96503 0.0
C661 C 0.04128 0.22573 0.94643 0.0
C662 C 0.01785 0.21067 0.97315 0.0
N663 N 0.02697 0.23474 0.95182 0.0
C664 C 0.04427 0.2089 0.95411 0.0
C665 C 0.03238 0.20086 0.96755 0.0
H666 H 1.00388 0.23467 0.96905 0.0
H667 H 0.05029 0.23142 0.93579 0.0
C668 C 0.06859 0.29562 0.89459 0.0
N669 N 0.05981 0.27669 0.89665 0.0
C670 C 0.0843 0.29847 0.88385 0.0
C671 C 0.08195 0.26231 0.87773 0.0
C672 C 0.06629 0.26016 0.88865 0.0
C673 C 0.09121 0.28169 0.87514 0.0
H674 H 0.06347 0.30859 0.90146 0.0
H675 H 0.05949 0.24531 0.89091 0.0
O676 O 1.00327 0.27218 0.9435 0.0
O677 O 0.0235 0.29546 0.91233 0.0
O678 O 0.0465 0.28091 0.94161 0.0
O679 O 0.01866 0.24918 0.9089 0.0
H680 H 0.97275 0.2871 0.94457 0.0
H681 H 0.01674 0.27344 0.9802 0.0
H682 H 0.95988 0.30085 0.97534 0.0
H683 H 1.00314 0.28743 0.01036 0.0
H684 H 0.02315 0.2985 0.84683 0.0
H685 H 0.01154 0.32957 0.91382 0.0
H686 H 0.02924 0.28213 0.87513 0.0
H687 H 1.00592 0.34523 0.88487 0.0
H688 H 1.00142 0.35721 0.95961 0.0
H689 H 0.05901 0.36282 0.98119 0.0
H690 H 0.94457 0.23801 0.86845 0.0
H691 H 0.95266 0.30191 0.89312 0.0
H692 H 0.07518 0.26427 0.93267 0.0
H693 H 0.04807 0.29189 0.98055 0.0
H694 H 0.09894 0.25927 0.95729 0.0
H695 H 0.07225 0.28635 1.00434 0.0
H696 H 0.03093 0.21512 0.90514 0.0
H697 H 1.00607 0.25328 0.87333 0.0
H698 H 0.0313 0.19201 0.87336 0.0
H699 H 0.00699 0.2296 0.84207 0.0
H700 H 0.00815 0.20502 0.98326 0.0
H701 H 0.05585 0.20225 0.94946 0.0
H702 H 0.09111 0.31376 0.8827 0.0
H703 H 0.08662 0.24887 0.87126 0.0
Li704 Li 0.43122 0.0722 0.32268 0.0
Li705 Li 0.41017 0.04306 0.30675 0.0
Li706 Li 0.43223 0.06252 0.28804 0.0
Li707 Li 0.40458 0.07543 0.30281 0.0
C708 C 0.45205 0.04452 0.32006 0.0
N709 N 0.48154 0.03972 0.34419 0.0
C710 C 0.44879 0.03757 0.33777 0.0
C711 C 0.47033 0.04888 0.31457 0.0
C712 C 0.46387 0.03531 0.3498 0.0
C713 C 0.48504 0.04636 0.32697 0.0
C714 C 0.39078 0.05345 0.33605 0.0
C715 C 0.35802 0.0403 0.33875 0.0
N716 N 0.36274 0.03078 0.35341 0.0
C717 C 0.39528 0.04362 0.35123 0.0
C718 C 0.37198 0.05185 0.32981 0.0
C719 C 0.38092 0.0322 0.35978 0.0
C720 C 0.43843 0.08526 0.36344 0.0
N721 N 0.44677 0.08424 0.34629 0.0
C722 C 0.47704 0.09192 0.36379 0.0
C723 C 0.4657 0.08876 0.34619 0.0
C724 C 0.46868 0.09065 0.38152 0.0
C725 C 0.44922 0.08857 0.3814 0.0
H726 H 0.42336 0.08214 0.36309 0.0
H727 H 0.47198 0.08813 0.33234 0.0
C728 C 0.40854 1.00244 0.30907 0.0
N729 N 0.39778 0.01586 0.30658 0.0
C730 C 0.40051 0.98185 0.30648 0.0
C731 C 0.37043 0.98918 0.29859 0.0
C732 C 0.379 1.0097 0.30183 0.0
C733 C 0.38129 0.97489 0.30058 0.0
H734 H 0.42347 1.00757 0.31233 0.0
H735 H 0.37077 0.02056 0.29951 0.0
C736 C 0.44403 0.10689 0.31116 0.0
N737 N 0.47017 0.14098 0.32962 0.0
C738 C 0.43907 0.12071 0.32622 0.0
C739 C 0.46219 0.11051 0.30528 0.0
C740 C 0.45252 0.13782 0.33544 0.0
C741 C 0.47523 0.12782 0.31485 0.0
C742 C 0.39421 0.03567 0.26884 0.0
C743 C 0.40247 0.01986 0.26078 0.0
C744 C 0.37512 0.03423 0.26421 0.0
C745 C 0.39144 1.00275 0.24835 0.0
C746 C 0.36458 0.01688 0.2517 0.0
N747 N 0.37289 1.00162 0.24412 0.0
C748 C 0.45403 0.04369 0.26356 0.0
C749 C 0.44907 0.07417 0.25455 0.0
C750 C 0.46513 0.04069 0.24811 0.0
N751 N 0.44647 0.06027 0.26656 0.0
C752 C 0.45995 0.07166 0.23866 0.0
C753 C 0.46816 0.05472 0.23534 0.0
H754 H 0.45152 0.03283 0.27332 0.0
H755 H 0.44269 0.08713 0.25732 0.0
C756 C 0.38053 0.09941 0.31659 0.0
N757 N 0.38639 0.09011 0.29981 0.0
C758 C 0.3651 0.10813 0.31551 0.0
C759 C 0.36279 0.09849 0.27979 0.0
C760 C 0.37821 0.08979 0.28159 0.0
C761 C 0.35586 0.10748 0.29694 0.0
H762 H 0.38738 0.09923 0.33085 0.0
H763 H 0.38336 0.08233 0.26855 0.0
O764 O 0.43743 0.04699 0.30815 0.0
O765 O 0.40469 0.06462 0.32741 0.0
O766 O 0.43117 0.0899 0.30216 0.0
O767 O 0.40468 0.05234 0.28142 0.0
H768 H 0.43478 0.03406 0.34224 0.0
H769 H 0.47326 0.0546 0.30112 0.0
H770 H 0.46154 0.03009 0.3636 0.0
H771 H 0.49926 0.04984 0.32296 0.0
H772 H 0.34344 0.03879 0.33392 0.0
H773 H 0.4097 0.04481 0.35642 0.0
H774 H 0.36815 0.05896 0.31784 0.0
H775 H 0.38423 0.02448 0.3715 0.0
H776 H 0.49199 0.09344 0.36319 0.0
H777 H 0.4423 0.08806 0.39488 0.0
H778 H 0.40942 0.9715 0.30863 0.0
H779 H 0.35564 0.98459 0.29372 0.0
H780 H 0.42504 0.11809 0.33089 0.0
H781 H 0.46624 0.09993 0.29366 0.0
H782 H 0.44895 0.14857 0.34724 0.0
H783 H 0.48938 0.13074 0.31059 0.0
H784 H 0.41714 0.0206 0.26439 0.0
H785 H 0.36843 0.04619 0.2705 0.0
H786 H 0.39762 0.99033 0.24215 0.0
H787 H 0.34977 0.01549 0.24813 0.0
H788 H 0.47145 0.02765 0.24638 0.0
H789 H 0.46176 0.0827 0.22903 0.0
H790 H 0.36013 0.11473 0.3291 0.0
H791 H 0.35633 0.09807 0.26517 0.0
Li792 Li 0.30269 0.21388 0.53193 0.0
Li793 Li 0.31759 0.1863 0.51263 0.0
Li794 Li 0.30448 0.20971 0.49595 0.0
Li795 Li 0.28345 0.18402 0.50814 0.0
C796 C 0.33678 0.23221 0.51058 0.0
N797 N 0.35764 0.26308 0.49482 0.0
C798 C 0.3508 0.22837 0.49844 0.0
C799 C 0.33342 0.25174 0.51481 0.0
C800 C 0.36118 0.24419 0.49059 0.0
C801 C 0.34412 0.26715 0.50668 0.0
C802 C 0.29196 0.16766 0.54039 0.0
C803 C 0.28301 0.13133 0.53719 0.0
N804 N 0.27693 0.13374 0.5556 0.0
C805 C 0.28567 0.1698 0.55928 0.0
C806 C 0.29067 0.14831 0.52925 0.0
C807 C 0.27811 0.15245 0.56671 0.0
C808 C 0.2853 0.22664 0.56489 0.0
N809 N 0.30213 0.22976 0.55725 0.0
C810 C 0.31687 0.2503 0.58794 0.0
C811 C 0.31776 0.24159 0.56815 0.0
C812 C 0.2998 0.24648 0.59652 0.0
C813 C 0.28381 0.23485 0.58457 0.0
H814 H 0.27317 0.21699 0.55588 0.0
H815 H 0.33102 0.24357 0.56174 0.0
C816 C 0.34708 0.16754 0.49964 0.0
N817 N 0.33659 0.17163 0.51489 0.0
C818 C 0.36119 0.15689 0.50169 0.0
C819 C 0.35312 0.15464 0.53494 0.0
C820 C 0.33942 0.16555 0.53234 0.0
C821 C 0.36438 0.15025 0.51957 0.0
H822 H 0.34456 0.17267 0.48594 0.0
H823 H 0.331 0.16917 0.5443 0.0
C824 C 0.2693 0.22038 0.50273 0.0
N825 N 0.24196 0.23555 0.48509 0.0
C826 C 0.25849 0.20906 0.48563 0.0
C827 C 0.26611 0.2393 0.51101 0.0
C828 C 0.24476 0.21702 0.47689 0.0
C829 C 0.25225 0.24675 0.50182 0.0
C830 C 0.29456 0.16594 0.47134 0.0
C831 C 0.28463 0.17087 0.45567 0.0
C832 C 0.29779 0.14639 0.46983 0.0
C833 C 0.27775 0.15601 0.43888 0.0
C834 C 0.29066 0.13194 0.45279 0.0
N835 N 0.28086 0.13701 0.43781 0.0
C836 C 0.31758 0.21537 0.45929 0.0
C837 C 0.30098 0.24001 0.47251 0.0
C838 C 0.31951 0.22339 0.44199 0.0
N839 N 0.30811 0.22348 0.47394 0.0
C840 C 0.30243 0.2484 0.45539 0.0
C841 C 0.31155 0.23988 0.43972 0.0
H842 H 0.32326 0.20233 0.46086 0.0
H843 H 0.29397 0.24658 0.48452 0.0
C844 C 0.24968 0.17022 0.52241 0.0
N845 N 0.25894 0.16662 0.50606 0.0
C846 C 0.2316 0.15915 0.52328 0.0
C847 C 0.23249 0.14109 0.49013 0.0
C848 C 0.25076 0.15231 0.49006 0.0
C849 C 0.22257 0.14444 0.50691 0.0
H850 H 0.25641 0.18179 0.53488 0.0
H851 H 0.25819 0.1497 0.47711 0.0
O852 O 0.32603 0.21681 0.51785 0.0
O853 O 0.29922 0.18445 0.53276 0.0
O854 O 0.28286 0.21298 0.51152 0.0
O855 O 0.30153 0.18027 0.48787 0.0
H856 H 0.35348 0.21329 0.49496 0.0
H857 H 0.32252 0.25489 0.52408 0.0
H858 H 0.37201 0.24143 0.48107 0.0
H859 H 0.34161 0.28232 0.50972 0.0
H860 H 0.28187 0.11625 0.52871 0.0
H861 H 0.28662 0.18469 0.5681 0.0
H862 H 0.29546 0.14644 0.51461 0.0
H863 H 0.27316 0.15386 0.5813 0.0
H864 H 0.32956 0.259 0.59669 0.0
H865 H 0.27037 0.23167 0.59054 0.0
H866 H 0.36963 0.15417 0.48951 0.0
H867 H 0.35468 0.14954 0.54884 0.0
H868 H 0.26061 0.19428 0.47922 0.0
H869 H 0.27434 0.24819 0.52431 0.0
H870 H 0.2363 0.20845 0.46361 0.0
H871 H 0.24969 0.26142 0.50799 0.0
H872 H 0.28223 0.186 0.45643 0.0
H873 H 0.30575 0.14241 0.48166 0.0
H874 H 0.26996 0.15959 0.42669 0.0
H875 H 0.29297 0.11672 0.45146 0.0
H876 H 0.32657 0.21629 0.43025 0.0
H877 H 0.29639 0.26136 0.45439 0.0
H878 H 0.22487 0.16209 0.53675 0.0
H879 H 0.22614 0.13019 0.47701 0.0
Li880 Li 0.19046 0.03959 0.7761 0.0
Li881 Li 0.16363 0.01869 0.79281 0.0
Li882 Li 0.18719 0.99836 0.77124 0.0
Li883 Li 0.16305 0.01594 0.75348 0.0
C884 C 0.20535 0.03116 0.81136 0.0
N885 N 0.23266 0.05201 0.8411 0.0
C886 C 0.20246 0.04813 0.82421 0.0
C887 C 0.22212 0.02481 0.81354 0.0
C888 C 0.21643 0.05845 0.83919 0.0
C889 C 0.23576 0.03556 0.8287 0.0
C890 C 0.15137 0.05164 0.78092 0.0
C891 C 0.12054 0.05869 0.77921 0.0
N892 N 0.12689 0.07596 0.7929 0.0
C893 C 0.15762 0.06943 0.79497 0.0
C894 C 0.13272 0.04618 0.77294 0.0
C895 C 0.14501 0.08154 0.80083 0.0
C896 C 0.19972 0.07924 0.76575 0.0
N897 N 0.20648 0.06796 0.77772 0.0
C898 C 0.23197 0.09679 0.79052 0.0
C899 C 0.22251 0.07642 0.78987 0.0
C900 C 0.22522 0.10897 0.77841 0.0
C901 C 0.20883 0.09949 0.76574 0.0
H902 H 0.18705 0.07251 0.75607 0.0
H903 H 0.22803 0.06753 0.79928 0.0
C904 C 0.15964 0.02097 0.83674 0.0
N905 N 0.14976 0.0204 0.81911 0.0
C906 C 0.15144 0.02302 0.85505 0.0
C907 C 0.12248 0.02317 0.83747 0.0
C908 C 0.13132 0.02149 0.81947 0.0
C909 C 0.13246 0.02416 0.85595 0.0
H910 H 0.17411 0.01982 0.83678 0.0
H911 H 0.12328 0.02118 0.80576 0.0
C912 C 0.19396 0.01542 0.73228 0.0
N913 N 0.19837 1.00995 0.69227 0.0
C914 C 0.18834 0.99613 0.72047 0.0
C915 C 0.20193 0.03192 0.7238 0.0
C916 C 0.19067 0.99368 0.70026 0.0
C917 C 0.20401 0.02884 0.70353 0.0
C918 C 0.14281 0.97939 0.76081 0.0
C919 C 0.14487 0.96255 0.7472 0.0
C920 C 0.12493 0.98236 0.76441 0.0
C921 C 0.1289 0.9489 0.73734 0.0
C922 C 0.1093 0.96835 0.75427 0.0
N923 N 0.1116 0.95206 0.74105 0.0
C924 C 0.19838 0.96173 0.78433 0.0
C925 C 0.2134 0.96979 0.7566 0.0
C926 C 0.20752 0.94532 0.78464 0.0
N927 N 0.20128 0.97391 0.77047 0.0
C928 C 0.22284 0.9535 0.7564 0.0
C929 C 0.22024 0.94065 0.77061 0.0
H930 H 0.18884 0.96465 0.79538 0.0
H931 H 0.21597 0.97924 0.74553 0.0
C932 C 0.15527 0.03404 0.71848 0.0
N933 N 0.14844 0.01741 0.72656 0.0
C934 C 0.14723 0.03701 0.70027 0.0
C935 C 0.1244 1.00617 0.69856 0.0
C936 C 0.13309 1.00358 0.71674 0.0
C937 C 0.13144 0.02305 0.68967 0.0
H938 H 0.16716 0.04529 0.72618 0.0
H939 H 0.12743 0.99035 0.72285 0.0
O940 O 0.1919 0.02095 0.79654 0.0
O941 O 0.1634 0.03947 0.77517 0.0
O942 O 0.1914 0.01817 0.75198 0.0
O943 O 0.15825 0.99303 0.77045 0.0
H944 H 0.18959 0.05331 0.82257 0.0
H945 H 0.22456 0.01172 0.80363 0.0
H946 H 0.21441 0.07162 0.84925 0.0
H947 H 0.24882 0.03083 0.83059 0.0
H948 H 0.10605 0.05467 0.7732 0.0
H949 H 0.17204 0.07381 0.80128 0.0
H950 H 0.1277 0.03239 0.76209 0.0
H951 H 0.14963 0.09537 0.8117 0.0
H952 H 0.24432 0.10294 0.80079 0.0
H953 H 0.20297 0.1075 0.75563 0.0
H954 H 0.16 0.02336 0.86846 0.0
H955 H 0.10792 0.0241 0.83687 0.0
H956 H 0.18212 0.98323 0.72685 0.0
H957 H 0.20633 0.04695 0.73277 0.0
H958 H 0.18632 0.97884 0.69091 0.0
H959 H 0.21007 0.04148 0.69673 0.0
H960 H 0.15865 0.96008 0.74428 0.0
H961 H 0.12315 0.9954 0.77484 0.0
H962 H 0.13025 0.9358 0.72674 0.0
H963 H 0.09536 0.97046 0.75686 0.0
H964 H 0.20427 0.93623 0.79587 0.0
H965 H 0.2324 0.95132 0.74521 0.0
H966 H 0.15333 0.05051 0.69473 0.0
H967 H 0.11242 0.9947 0.69135 0.0
Li968 Li 0.29748 0.95427 0.02898 0.0
Li969 Li 0.31001 0.92471 0.03409 0.0
Li970 Li 0.3304 0.95284 0.02417 0.0
Li971 Li 0.30568 0.93083 1.0017 0.0
C972 C 0.33158 0.96401 0.06233 0.0
N973 N 0.3617 0.98668 0.08795 0.0
C974 C 0.34243 0.95441 0.07321 0.0
C975 C 0.33602 0.98514 0.06448 0.0
C976 C 0.3576 0.96615 0.0861 0.0
C977 C 0.35131 0.99633 0.0775 0.0
C978 C 0.27377 0.91198 0.02836 0.0
C979 C 0.26133 0.87819 0.034 0.0
N980 N 0.25031 0.88578 0.04727 0.0
C981 C 0.26229 0.91943 0.04204 0.0
C982 C 0.27326 0.89117 0.02426 0.0
C983 C 0.25053 0.90594 0.05144 0.0
C984 C 0.26638 0.97022 0.02357 0.0
N985 N 0.2811 0.97107 0.03673 0.0
C986 C 0.27253 0.99742 0.05927 0.0
C987 C 0.28416 0.98393 0.05451 0.0
C988 C 0.25786 0.99761 0.04545 0.0
C989 C 0.25462 0.98363 0.02754 0.0
H990 H 0.26396 0.95925 0.00989 0.0
H991 H 0.29575 0.98389 0.06485 0.0
C992 C 0.32021 0.89109 0.04497 0.0
N993 N 0.31027 0.90547 0.05027 0.0
C994 C 0.32149 0.87687 0.05679 0.0
C995 C 0.30274 0.89296 0.07972 0.0
C996 C 0.30168 0.9068 0.0673 0.0
C997 C 0.31276 0.8778 0.07442 0.0
H998 H 0.32756 0.89096 0.03183 0.0
H999 H 0.29422 0.91873 0.07128 0.0
C1000 C 0.3136 0.96987 0.99051 0.0
N1001 N 0.31581 0.98809 0.95759 0.0
C1002 C 0.33066 0.97467 0.98235 0.0
C1003 C 0.29768 0.97441 0.98189 0.0
C1004 C 0.33149 0.98383 0.96571 0.0
C1005 C 0.29907 0.9836 0.96527 0.0
C1006 C 0.33431 0.91326 0.99828 0.0
C1007 C 0.34845 0.92311 0.98823 0.0
C1008 C 0.32658 0.89257 0.9917 0.0
C1009 C 0.3547 0.9121 0.9719 0.0
C1010 C 0.3332 0.88211 0.97528 0.0
N1011 N 0.34701 0.892 0.96582 0.0
C1012 C 0.36783 0.95534 0.03194 0.0
C1013 C 0.36173 0.98577 0.02389 0.0
C1014 C 0.38691 0.96224 0.03116 0.0
N1015 N 0.35569 0.96674 0.02748 0.0
C1016 C 0.38077 0.99325 0.02276 0.0
C1017 C 0.39352 0.98105 0.02569 0.0
H1018 H 0.36254 0.94041 0.03513 0.0
H1019 H 0.3517 0.99463 0.0208 0.0
C1020 C 0.28715 0.89887 0.97152 0.0
N1021 N 0.29936 0.9172 0.97501 0.0
C1022 C 0.28661 0.88537 0.95375 0.0
C1023 C 0.30943 0.91095 0.94267 0.0
C1024 C 0.30993 0.92362 0.96078 0.0
C1025 C 0.29851 0.89111 0.93941 0.0
H1026 H 0.27899 0.89407 0.9831 0.0
H1027 H 0.32003 0.93775 0.96397 0.0
O1028 O 0.317 0.95276 0.04923 0.0
O1029 O 0.28555 0.925 0.01917 0.0
O1030 O 0.31262 0.9614 0.00717 0.0
O1031 O 0.32787 0.92383 0.01425 0.0
H1032 H 0.33928 0.93806 0.07159 0.0
H1033 H 0.32797 0.99277 0.05589 0.0
H1034 H 0.36617 0.95893 0.09457 0.0
H1035 H 0.35499 0.01267 0.07922 0.0
H1036 H 0.26093 0.8621 0.0311 0.0
H1037 H 0.2625 0.93545 0.04548 0.0
H1038 H 0.2823 0.88514 0.01404 0.0
H1039 H 0.24161 0.91151 0.06209 0.0
H1040 H 0.27529 1.00796 0.07328 0.0
H1041 H 0.24315 0.98314 0.01675 0.0
H1042 H 0.32972 0.86568 0.05252 0.0
H1043 H 0.2959 0.89412 0.0933 0.0
H1044 H 0.34302 0.97074 0.98832 0.0
H1045 H 0.28437 0.97087 0.9879 0.0
H1046 H 0.34458 0.98743 0.95917 0.0
H1047 H 0.28684 0.98718 0.95849 0.0
H1048 H 0.35436 0.93915 0.99274 0.0
H1049 H 0.3153 0.88474 0.9989 0.0
H1050 H 0.36559 0.91957 0.96398 0.0
H1051 H 0.32724 0.86616 0.96997 0.0
H1052 H 0.39633 0.95266 0.03418 0.0
H1053 H 0.38531 1.00791 0.01864 0.0
H1054 H 0.27797 0.87022 0.95191 0.0
H1055 H 0.31845 0.91626 0.93183 0.0
Li1056 Li 0.29895 0.41126 0.03607 0.0
Li1057 Li 0.31106 0.38765 0.0533 0.0
Li1058 Li 0.33272 0.41429 0.04112 0.0
Li1059 Li 0.31352 0.38505 0.01803 0.0
C1060 C 0.3261 0.43281 0.07461 0.0
N1061 N 0.35091 0.46342 0.10021 0.0
C1062 C 0.33885 0.42808 0.0879 0.0
C1063 C 0.32596 0.4531 0.07434 0.0
C1064 C 0.35128 0.44378 0.10072 0.0
C1065 C 0.33862 0.46836 0.08741 0.0
C1066 C 0.27723 0.36879 0.03979 0.0
C1067 C 0.26232 0.33542 0.04464 0.0
N1068 N 0.25204 0.34388 0.05823 0.0
C1069 C 0.26647 0.37717 0.05373 0.0
C1070 C 0.27512 0.34775 0.03514 0.0
C1071 C 0.25383 0.36431 0.06292 0.0
C1072 C 0.26919 0.42214 0.01609 0.0
N1073 N 0.27913 0.42514 0.03399 0.0
C1074 C 0.26139 0.44876 0.04801 0.0
C1075 C 0.27526 0.43779 0.04997 0.0
C1076 C 0.25173 0.44679 0.0294 0.0
C1077 C 0.2556 0.43317 0.01335 0.0
H1078 H 0.27215 0.41152 1.00379 0.0
H1079 H 0.28306 0.43951 0.06415 0.0
C1080 C 0.30853 0.35507 0.07573 0.0
N1081 N 0.307 0.3745 0.07572 0.0
C1082 C 0.30659 0.34703 0.09307 0.0
C1083 C 0.30138 0.37903 0.10993 0.0
C1084 C 0.30304 0.38628 0.09225 0.0
C1085 C 0.30339 0.35927 0.11054 0.0
H1086 H 0.31154 0.34589 0.06245 0.0
H1087 H 0.3015 0.40153 0.09184 0.0
C1088 C 0.31246 0.4264 1.0048 0.0
N1089 N 0.30018 0.45081 0.98128 0.0
C1090 C 0.30614 0.41863 0.9849 0.0
C1091 C 0.31249 0.44659 0.01272 0.0
C1092 C 0.30002 0.43122 0.97325 0.0
C1093 C 0.30622 0.45867 1.0006 0.0
C1094 C 0.34137 0.37045 0.02944 0.0
C1095 C 0.35903 0.37558 0.02259 0.0
C1096 C 0.33151 0.35024 0.02542 0.0
C1097 C 0.36654 0.36038 0.01189 0.0
C1098 C 0.3395 0.33547 0.01467 0.0
N1099 N 0.3567 0.34081 0.00819 0.0
C1100 C 0.37123 0.42584 0.0545 0.0
C1101 C 0.36023 0.45016 0.03924 0.0
C1102 C 0.3896 0.43721 0.05619 0.0
N1103 N 0.35706 0.43221 0.04571 0.0
C1104 C 0.37833 0.46218 0.04094 0.0
C1105 C 0.39335 0.4555 0.04907 0.0
H1106 H 0.36832 0.4116 0.05969 0.0
H1107 H 0.34884 0.45492 0.03227 0.0
C1108 C 0.29976 0.35435 0.98276 0.0
N1109 N 0.31414 0.36936 0.99234 0.0
C1110 C 0.30045 0.34573 0.96287 0.0
C1111 C 0.3309 0.36775 0.96351 0.0
C1112 C 0.32958 0.37595 0.9832 0.0
C1113 C 0.31601 0.35281 0.95285 0.0
H1114 H 0.28746 0.34966 0.99025 0.0
H1115 H 0.3406 0.38824 0.99102 0.0
O1116 O 0.31426 0.41766 0.06149 0.0
O1117 O 0.29011 0.38116 0.03113 0.0
O1118 O 0.31832 0.41423 0.0165 0.0
O1119 O 0.33357 0.38516 0.03957 0.0
H1120 H 0.33934 0.41246 0.08808 0.0
H1121 H 0.3163 0.45705 0.06406 0.0
H1122 H 0.36129 0.44034 0.11101 0.0
H1123 H 0.33871 0.48413 0.08733 0.0
H1124 H 0.26059 0.31911 0.04126 0.0
H1125 H 0.26805 0.39343 0.05759 0.0
H1126 H 0.28337 0.34103 0.02441 0.0
H1127 H 0.24549 0.37059 0.07383 0.0
H1128 H 0.25866 0.45911 0.0607 0.0
H1129 H 0.24823 0.43117 0.99884 0.0
H1130 H 0.30823 0.33169 0.093 0.0
H1131 H 0.29866 0.38883 0.12305 0.0
H1132 H 0.30579 0.40301 0.97852 0.0
H1133 H 0.31687 0.45273 0.02818 0.0
H1134 H 0.29507 0.42539 0.95785 0.0
H1135 H 0.30605 0.47427 0.00659 0.0
H1136 H 0.36674 0.39116 0.02518 0.0
H1137 H 0.31765 0.34606 0.03011 0.0
H1138 H 0.38014 0.36416 0.00642 0.0
H1139 H 0.33196 0.3198 0.01137 0.0
H1140 H 0.40079 0.43163 0.06271 0.0
H1141 H 0.38067 0.47612 0.03514 0.0
H1142 H 0.28856 0.33442 0.95518 0.0
H1143 H 0.34326 0.37351 0.95652 0.0
Li1144 Li 0.80559 0.1701 0.03815 0.0
Li1145 Li 0.81253 0.14154 0.01634 0.0
Li1146 Li 0.80077 0.16683 1.00273 0.0
Li1147 Li 0.78094 0.14312 0.01927 0.0
C1148 C 0.83691 0.18431 0.01116 0.0
N1149 N 0.8608 0.21167 0.99386 0.0
C1150 C 0.85169 0.17849 1.00136 0.0
C1151 C 0.83427 0.20404 0.01212 0.0
C1152 C 0.86363 0.19255 0.99273 0.0
C1153 C 0.84649 0.21764 1.00328 0.0
C1154 C 0.80759 0.12861 0.04895 0.0
C1155 C 0.81087 0.09506 0.0523 0.0
N1156 N 0.82661 0.10335 0.06479 0.0
C1157 C 0.8238 0.13679 0.06182 0.0
C1158 C 0.80104 0.10758 0.04415 0.0
C1159 C 0.8332 0.12376 0.06969 0.0
C1160 C 0.8035 0.17911 0.07814 0.0
N1161 N 0.80998 0.18783 0.06286 0.0
C1162 C 0.81464 0.22087 0.08272 0.0
C1163 C 0.81597 0.20825 0.0649 0.0
C1164 C 0.80723 0.21225 0.09849 0.0
C1165 C 0.80226 0.19105 0.09623 0.0
H1166 H 0.79833 0.1629 0.07599 0.0
H1167 H 0.82066 0.21484 0.05241 0.0
C1168 C 0.82334 0.10546 1.00137 0.0
N1169 N 0.82919 0.12421 0.01275 0.0
C1170 C 0.83556 0.0924 0.99864 0.0
C1171 C 0.85961 0.11837 0.01927 0.0
C1172 C 0.84686 0.13085 0.02172 0.0
C1173 C 0.85397 0.09891 0.00755 0.0
H1174 H 0.80922 0.1007 0.99436 0.0
H1175 H 0.851 0.14586 0.03078 0.0
C1176 C 0.77582 0.18594 0.03432 0.0
N1177 N 0.7617 0.2133 0.06026 0.0
C1178 C 0.76476 0.17933 0.04886 0.0
C1179 C 0.77966 0.20646 0.03295 0.0
C1180 C 0.75778 0.19341 0.06185 0.0
C1181 C 0.77238 0.22005 0.04619 0.0
C1182 C 0.7782 0.12442 0.98275 0.0
C1183 C 0.76978 0.13078 0.96698 0.0
C1184 C 0.77101 0.10516 0.9868 0.0
C1185 C 0.75416 0.11786 0.95569 0.0
C1186 C 0.75535 0.0927 0.97518 0.0
N1187 N 0.74731 0.09926 0.96 0.0
C1188 C 0.81268 0.18062 0.96779 0.0
C1189 C 0.7849 0.18883 0.97971 0.0
C1190 C 0.81065 0.19002 0.95163 0.0
N1191 N 0.8 0.1805 0.98151 0.0
C1192 C 0.78216 0.19804 0.96369 0.0
C1193 C 0.7951 0.19862 0.94943 0.0
H1194 H 0.82413 0.17312 0.9692 0.0
H1195 H 0.77469 0.18782 0.99045 0.0
C1196 C 0.7503 0.11789 0.0328 0.0
N1197 N 0.75573 0.13066 0.02011 0.0
C1198 C 0.73131 0.11125 0.03488 0.0
C1199 C 0.72408 0.13096 0.0107 0.0
C1200 C 0.74314 0.13716 0.00907 0.0
C1201 C 0.71799 0.11809 0.02396 0.0
H1202 H 0.76069 0.11349 0.0418 0.0
H1203 H 0.74799 0.14766 0.99943 0.0
O1204 O 0.82512 0.17076 0.01978 0.0
O1205 O 0.79848 0.1411 0.04068 0.0
O1206 O 0.78328 0.17251 0.02186 0.0
O1207 O 0.79336 0.13698 0.99418 0.0
H1208 H 0.85387 0.16325 1.0003 0.0
H1209 H 0.82262 0.20863 0.01913 0.0
H1210 H 0.8751 0.18824 0.98507 0.0
H1211 H 0.84453 0.23291 1.0038 0.0
H1212 H 0.80603 0.07876 0.04862 0.0
H1213 H 0.82925 0.15302 0.06544 0.0
H1214 H 0.78867 0.10097 0.03403 0.0
H1215 H 0.84581 0.12988 0.07959 0.0
H1216 H 0.81848 0.23715 0.08376 0.0
H1217 H 0.79689 0.18372 0.10812 0.0
H1218 H 0.83081 0.07755 0.98935 0.0
H1219 H 0.87366 0.12381 0.02653 0.0
H1220 H 0.76189 0.16359 0.05036 0.0
H1221 H 0.78838 0.21189 0.02195 0.0
H1222 H 0.74932 0.18853 0.07326 0.0
H1223 H 0.77532 0.23598 0.04536 0.0
H1224 H 0.77521 0.14554 0.96349 0.0
H1225 H 0.77721 0.10004 0.99905 0.0
H1226 H 0.74746 0.12263 0.9435 0.0
H1227 H 0.74954 0.07785 0.97829 0.0
H1228 H 0.82075 0.19004 0.94071 0.0
H1229 H 0.77001 0.20458 0.96242 0.0
H1230 H 0.72715 0.10149 0.04541 0.0
H1231 H 0.71423 0.13635 1.00184 0.0
Li1232 Li 0.20537 0.56196 0.25496 0.0
Li1233 Li 0.18259 0.53412 0.2638 0.0
Li1234 Li 0.21186 0.52804 0.25312 0.0
Li1235 Li 0.18737 0.53326 0.23046 0.0
C1236 C 0.22325 0.55631 0.28987 0.0
N1237 N 0.25401 0.57626 0.31594 0.0
C1238 C 0.22138 0.56088 0.31014 0.0
C1239 C 0.24075 0.56189 0.28286 0.0
C1240 C 0.2371 0.57098 0.32308 0.0
C1241 C 0.25614 0.57195 0.29627 0.0
C1242 C 0.1662 0.56048 0.23552 0.0
C1243 C 0.13799 0.55358 0.21342 0.0
N1244 N 0.14299 0.57245 0.20907 0.0
C1245 C 0.17093 0.57988 0.23096 0.0
C1246 C 0.14947 0.54729 0.22681 0.0
C1247 C 0.15906 0.58562 0.21752 0.0
C1248 C 0.22216 0.59853 0.24478 0.0
N1249 N 0.21606 0.58971 0.26014 0.0
C1250 C 0.22446 0.62138 0.28254 0.0
C1251 C 0.21696 0.60059 0.27875 0.0
C1252 C 0.23056 0.63093 0.26689 0.0
C1253 C 0.22943 0.61934 0.24782 0.0
H1254 H 0.22093 0.58945 0.23009 0.0
H1255 H 0.21159 0.59318 0.29056 0.0
C1256 C 0.16913 0.52376 0.29932 0.0
N1257 N 0.16469 0.52921 0.28192 0.0
C1258 C 0.15601 0.52198 0.31325 0.0
C1259 C 0.13403 0.53091 0.2907 0.0
C1260 C 0.14756 0.53264 0.27738 0.0
C1261 C 0.13831 0.52595 0.30907 0.0
H1262 H 0.18298 0.52128 0.30253 0.0
H1263 H 0.14448 0.53712 0.26357 0.0
C1264 C 0.22777 0.54559 0.22005 0.0
N1265 N 0.25504 0.54519 0.19382 0.0
C1266 C 0.22429 0.53182 0.20205 0.0
C1267 C 0.24506 0.55934 0.22454 0.0
C1268 C 0.23827 0.53181 0.18904 0.0
C1269 C 0.25868 0.55885 0.21113 0.0
C1270 C 0.17605 0.49573 0.25271 0.0
C1271 C 0.18454 0.48601 0.26571 0.0
C1272 C 0.15658 0.49083 0.24873 0.0
C1273 C 0.17337 0.47159 0.27462 0.0
C1274 C 0.14591 0.47636 0.25797 0.0
N1275 N 0.15445 0.46712 0.27062 0.0
C1276 C 0.23863 0.51307 0.27386 0.0
C1277 C 0.23824 0.50636 0.23891 0.0
C1278 C 0.25398 0.50428 0.27571 0.0
N1279 N 0.23142 0.51438 0.25567 0.0
C1280 C 0.25371 0.4977 0.24004 0.0
C1281 C 0.26187 0.4967 0.25864 0.0
H1282 H 0.23247 0.51885 0.28695 0.0
H1283 H 0.23169 0.50666 0.22464 0.0
C1284 C 0.18054 0.54156 0.19342 0.0
N1285 N 0.17648 0.52687 0.20442 0.0
C1286 C 0.17071 0.53938 0.17511 0.0
C1287 C 0.15334 0.50654 0.17946 0.0
C1288 C 0.1636 0.50934 0.19771 0.0
C1289 C 0.15664 0.52189 0.16816 0.0
H1290 H 0.19077 0.55539 0.19938 0.0
H1291 H 0.1608 0.49795 0.20685 0.0
O1292 O 0.20788 0.54684 0.277 0.0
O1293 O 0.17783 0.55451 0.24849 0.0
O1294 O 0.21417 0.54596 0.23294 0.0
O1295 O 0.18674 0.51027 0.24426 0.0
H1296 H 0.20789 0.55676 0.31578 0.0
H1297 H 0.24241 0.55836 0.26726 0.0
H1298 H 0.23586 0.57465 0.33881 0.0
H1299 H 0.26977 0.57632 0.29104 0.0
H1300 H 0.12516 0.5434 0.20637 0.0
H1301 H 0.18359 0.59044 0.23774 0.0
H1302 H 0.14561 0.53211 0.22988 0.0
H1303 H 0.16263 0.60055 0.21381 0.0
H1304 H 0.22494 0.63001 0.29737 0.0
H1305 H 0.23404 0.62632 0.23544 0.0
H1306 H 0.15989 0.51827 0.32733 0.0
H1307 H 0.12045 0.53373 0.28674 0.0
H1308 H 0.21109 0.52095 0.19832 0.0
H1309 H 0.24795 0.5704 0.23817 0.0
H1310 H 0.2358 0.52111 0.17516 0.0
H1311 H 0.27213 0.56936 0.21448 0.0
H1312 H 0.19957 0.48966 0.269 0.0
H1313 H 0.14975 0.49841 0.23894 0.0
H1314 H 0.17975 0.464 0.28478 0.0
H1315 H 0.13082 0.47255 0.25517 0.0
H1316 H 0.25942 0.50322 0.29033 0.0
H1317 H 0.25926 0.49203 0.22647 0.0
H1318 H 0.17345 0.5517 0.16697 0.0
H1319 H 0.14269 0.49279 0.17445 0.0
Li1320 Li 0.79788 0.91134 0.53648 0.0
Li1321 Li 0.81056 0.88735 0.55226 0.0
Li1322 Li 0.83138 0.91405 0.53945 0.0
Li1323 Li 0.81134 0.88529 0.51696 0.0
C1324 C 0.82729 0.93109 0.57437 0.0
N1325 N 0.85457 0.95886 0.6 0.0
C1326 C 0.83827 0.92456 0.58807 0.0
C1327 C 0.83024 0.95174 0.57366 0.0
C1328 C 0.85197 0.93884 0.60093 0.0
C1329 C 0.84409 0.96554 0.58675 0.0
C1330 C 0.77617 0.86901 0.54031 0.0
C1331 C 0.76243 0.83585 0.5466 0.0
N1332 N 0.75166 0.84433 0.55961 0.0
C1333 C 0.76491 0.87739 0.55366 0.0
C1334 C 0.77489 0.84808 0.53667 0.0
C1335 C 0.75263 0.86465 0.5633 0.0
C1336 C 0.7644 0.91922 0.52091 0.0
N1337 N 0.7782 0.92561 0.53603 0.0
C1338 C 0.76474 0.9534 0.54907 0.0
C1339 C 0.7784 0.94208 0.55023 0.0
C1340 C 0.75068 0.94765 0.53319 0.0
C1341 C 0.75049 0.93012 0.51913 0.0
H1342 H 0.7645 0.90592 0.50994 0.0
H1343 H 0.78927 0.94655 0.56234 0.0
C1344 C 0.81357 0.85643 0.57512 0.0
N1345 N 0.80761 0.87378 0.57433 0.0
C1346 C 0.81248 0.84818 0.59236 0.0
C1347 C 0.79911 0.87578 0.60754 0.0
C1348 C 0.80022 0.88332 0.58998 0.0
C1349 C 0.80548 0.85811 0.60896 0.0
H1350 H 0.8196 0.84925 0.56262 0.0
H1351 H 0.79562 0.89712 0.58896 0.0
C1352 C 0.8073 0.92546 0.50462 0.0
N1353 N 0.7891 0.94719 0.48282 0.0
C1354 C 0.79699 0.91589 0.48661 0.0
C1355 C 0.80833 0.94608 0.51153 0.0
C1356 C 0.78793 0.92715 0.4758 0.0
C1357 C 0.79902 0.95679 0.50031 0.0
C1358 C 0.83999 0.87081 0.52612 0.0
C1359 C 0.8569 0.87679 0.51805 0.0
C1360 C 0.8308 0.85036 0.5223 0.0
C1361 C 0.86433 0.86218 0.50629 0.0
C1362 C 0.83868 0.83622 0.51046 0.0
N1363 N 0.85514 0.84237 0.50276 0.0
C1364 C 0.86991 0.92558 0.55228 0.0
C1365 C 0.85892 0.94885 0.53543 0.0
C1366 C 0.88827 0.93687 0.55362 0.0
N1367 N 0.85575 0.93154 0.543 0.0
C1368 C 0.87702 0.9608 0.53675 0.0
C1369 C 0.892 0.95462 0.54561 0.0
H1370 H 0.86699 0.91174 0.55817 0.0
H1371 H 0.84751 0.95317 0.52797 0.0
C1372 C 0.79763 0.85345 0.48226 0.0
N1373 N 0.81118 0.86978 0.49107 0.0
C1374 C 0.79806 0.84477 0.46233 0.0
C1375 C 0.82659 0.86948 0.46137 0.0
C1376 C 0.82555 0.87769 0.4811 0.0
C1377 C 0.8125 0.85312 0.45151 0.0
H1378 H 0.7862 0.84762 0.49046 0.0
H1379 H 0.83597 0.89085 0.48841 0.0
O1380 O 0.81425 0.91728 0.5612 0.0
O1381 O 0.78869 0.8813 0.5312 0.0
O1382 O 0.81596 0.9146 0.51566 0.0
O1383 O 0.83224 0.88494 0.53726 0.0
H1384 H 0.83649 0.90862 0.58857 0.0
H1385 H 0.8222 0.95705 0.56286 0.0
H1386 H 0.86061 0.93399 0.61155 0.0
H1387 H 0.84659 0.98155 0.58628 0.0
H1388 H 0.76134 0.81964 0.544 0.0
H1389 H 0.76583 0.89359 0.55675 0.0
H1390 H 0.7835 0.84136 0.52637 0.0
H1391 H 0.74391 0.87094 0.57377 0.0
H1392 H 0.76521 0.96654 0.56049 0.0
H1393 H 0.74005 0.92518 0.50656 0.0
H1394 H 0.81767 0.8346 0.59293 0.0
H1395 H 0.79343 0.88376 0.61993 0.0
H1396 H 0.79579 0.89991 0.4811 0.0
H1397 H 0.81583 0.95365 0.52565 0.0
H1398 H 0.77986 0.91993 0.46187 0.0
H1399 H 0.79957 0.97271 0.50557 0.0
H1400 H 0.86407 0.89256 0.52055 0.0
H1401 H 0.81753 0.84551 0.52805 0.0
H1402 H 0.87735 0.86662 0.49987 0.0
H1403 H 0.83166 0.82037 0.50729 0.0
H1404 H 0.89946 0.93169 0.56066 0.0
H1405 H 0.87937 0.9743 0.53024 0.0
H1406 H 0.78681 0.83228 0.45526 0.0
H1407 H 0.83814 0.87624 0.45378 0.0
Li1408 Li 0.94991 0.07737 0.29881 0.0
Li1409 Li 0.92266 0.0541 0.27533 0.0
Li1410 Li 0.94894 0.07611 0.25977 0.0
Li1411 Li 0.9251 0.09517 0.27836 0.0
C1412 C 0.96289 0.04419 0.28104 0.0
N1413 N 0.98946 0.02393 0.29196 0.0
C1414 C 0.95894 0.03079 0.29419 0.0
C1415 C 0.98036 0.04736 0.27349 0.0
C1416 C 0.97256 0.02068 0.29952 0.0
C1417 C 0.9936 0.03693 0.27917 0.0
C1418 C 0.90789 0.06783 0.30983 0.0
C1419 C 0.87683 0.06526 0.32043 0.0
N1420 N 0.87943 0.05027 0.3302 0.0
C1421 C 0.91029 0.05243 0.31996 0.0
C1422 C 0.89106 0.07432 0.31002 0.0
C1423 C 0.89572 0.04374 0.33018 0.0
C1424 C 0.95593 0.07905 0.34338 0.0
N1425 N 0.96463 0.07684 0.32627 0.0
C1426 C 0.99099 0.07023 0.34551 0.0
C1427 C 0.98214 0.07275 0.32741 0.0
C1428 C 0.98222 0.072 0.36343 0.0
C1429 C 0.96433 0.07677 0.36177 0.0
H1430 H 0.94215 0.08238 0.34289 0.0
H1431 H 0.98932 0.07097 0.31413 0.0
C1432 C 0.91472 1.00969 0.26703 0.0
N1433 N 0.90631 0.02549 0.27272 0.0
C1434 C 0.90526 0.98938 0.26625 0.0
C1435 C 0.87806 1.00127 0.27639 0.0
C1436 C 0.88811 0.02145 0.27713 0.0
C1437 C 0.8866 0.98466 0.27111 0.0
H1438 H 0.92898 0.01278 0.26316 0.0
H1439 H 0.88134 0.03387 0.28155 0.0
C1440 C 0.96933 0.11395 0.27807 0.0
N1441 N 1.00016 0.1396 0.26805 0.0
C1442 C 0.96721 0.13113 0.27064 0.0
C1443 C 0.98709 0.10981 0.28049 0.0
C1444 C 0.98299 0.14393 0.26566 0.0
C1445 C 1.00251 0.12296 0.2753 0.0
C1446 C 0.91873 0.06767 0.23428 0.0
C1447 C 0.92239 0.08352 0.22374 0.0
C1448 C 0.9144 0.0476 0.22411 0.0
C1449 C 0.92161 0.07901 0.2031 0.0
C1450 C 0.91374 0.04371 0.20346 0.0
N1451 N 0.91735 0.05936 0.19347 0.0
C1452 C 0.96435 0.05613 0.22343 0.0
C1453 C 0.97072 0.09148 0.22603 0.0
C1454 C 0.97269 0.05388 0.2052 0.0
N1455 N 0.96337 0.07475 0.23378 0.0
C1456 C 0.97925 0.0899 0.20785 0.0
C1457 C 0.98043 0.07085 0.19674 0.0
H1458 H 0.95841 0.04272 0.22919 0.0
H1459 H 0.96969 0.10628 0.23366 0.0
C1460 C 0.91033 0.13358 0.29535 0.0
N1461 N 0.9105 0.11942 0.27868 0.0
C1462 C 0.9008 0.1498 0.29519 0.0
C1463 C 0.89143 0.13725 0.26082 0.0
C1464 C 0.90101 0.12124 0.26163 0.0
C1465 C 0.89105 0.15225 0.27771 0.0
H1466 H 0.9177 0.13251 0.30902 0.0
H1467 H 0.9007 0.11017 0.24833 0.0
O1468 O 0.94985 0.05444 0.27583 0.0
O1469 O 0.92186 0.0763 0.29949 0.0
O1470 O 0.95407 0.10112 0.28281 0.0
O1471 O 0.92018 0.07173 0.25451 0.0
H1472 H 0.94553 0.02834 0.30031 0.0
H1473 H 0.98369 0.05785 0.26346 0.0
H1474 H 0.96972 1.01029 0.30972 0.0
H1475 H 0.00718 0.03924 0.27346 0.0
H1476 H 0.8637 0.0701 0.32071 0.0
H1477 H 0.9232 0.04714 0.31979 0.0
H1478 H 0.889 0.08619 0.30217 0.0
H1479 H 0.89734 0.03175 0.33804 0.0
H1480 H 1.00458 0.06645 0.34515 0.0
H1481 H 0.95663 0.0789 0.37465 0.0
H1482 H 0.91257 0.97743 0.26166 0.0
H1483 H 0.86381 0.99879 0.28041 0.0
H1484 H 0.95351 0.13446 0.26865 0.0
H1485 H 0.9889 0.09652 0.28622 0.0
H1486 H 0.98159 0.15727 0.25983 0.0
H1487 H 0.01635 0.11993 0.27702 0.0
H1488 H 0.9262 0.09913 0.23145 0.0
H1489 H 0.91174 0.03516 0.23209 0.0
H1490 H 0.92454 0.09111 0.19475 0.0
H1491 H 0.91046 0.02825 0.19537 0.0
H1492 H 0.97313 0.03873 0.19792 0.0
H1493 H 0.98448 0.10367 0.20239 0.0
H1494 H 0.90143 0.16057 0.3088 0.0
H1495 H 0.88411 0.13753 0.24686 0.0
Li1496 Li 0.30739 0.66236 0.54131 0.0
Li1497 Li 0.31308 0.63115 0.52378 0.0
Li1498 Li 0.30548 0.65574 0.50496 0.0
Li1499 Li 0.28234 0.63565 0.52207 0.0
C1500 C 0.34012 0.67738 0.52443 0.0
N1501 N 0.36438 0.71402 0.52432 0.0
C1502 C 0.35925 0.6783 0.52331 0.0
C1503 C 0.33335 0.69508 0.52552 0.0
C1504 C 0.37128 0.69697 0.52325 0.0
C1505 C 0.34583 0.71346 0.52546 0.0
C1506 C 0.30434 0.62426 0.55893 0.0
C1507 C 0.30616 0.59263 0.56888 0.0
N1508 N 0.31887 0.60293 0.58421 0.0
C1509 C 0.31733 0.63454 0.57487 0.0
C1510 C 0.29859 0.60315 0.55598 0.0
C1511 C 0.32454 0.62348 0.58746 0.0
C1512 C 0.296 0.68556 0.57249 0.0
N1513 N 0.31181 0.68258 0.56424 0.0
C1514 C 0.33078 0.70722 0.5901 0.0
C1515 C 0.32908 0.69288 0.57268 0.0
C1516 C 0.31454 0.71092 0.59852 0.0
C1517 C 0.297 0.69997 0.58955 0.0
H1518 H 0.28261 0.67632 0.56609 0.0
H1519 H 0.34148 0.6897 0.56617 0.0
C1520 C 0.32393 0.59621 0.50745 0.0
N1521 N 0.32779 0.61178 0.52321 0.0
C1522 C 0.33472 0.58174 0.50523 0.0
C1523 C 0.35338 0.59954 0.53558 0.0
C1524 C 0.34225 0.61384 0.53713 0.0
C1525 C 0.34972 0.58342 0.5193 0.0
H1526 H 0.31277 0.59524 0.49628 0.0
H1527 H 0.34533 0.62675 0.54917 0.0
C1528 C 0.27621 0.67847 0.52396 0.0
N1529 N 0.25297 0.70568 0.52737 0.0
C1530 C 0.26003 0.67484 0.53387 0.0
C1531 C 0.28046 0.69594 0.51568 0.0
C1532 C 0.2485 0.68877 0.53547 0.0
C1533 C 0.26858 0.70951 0.51759 0.0
C1534 C 0.28186 0.61141 0.48854 0.0
C1535 C 0.27448 0.61408 0.47029 0.0
C1536 C 0.27464 0.59371 0.4956 0.0
C1537 C 0.2597 0.59921 0.45964 0.0
C1538 C 0.25986 0.57921 0.48453 0.0
N1539 N 0.25274 0.58225 0.46694 0.0
C1540 C 0.32535 0.67271 0.47537 0.0
C1541 C 0.29233 0.66883 0.47291 0.0
C1542 C 0.32648 0.68082 0.45814 0.0
N1543 N 0.30845 0.6671 0.48237 0.0
C1544 C 0.29276 0.6765 0.45552 0.0
C1545 C 0.30999 0.68259 0.448 0.0
H1546 H 0.3379 0.67077 0.48304 0.0
H1547 H 0.27912 0.66405 0.47886 0.0
C1548 C 0.25052 0.61349 0.53533 0.0
N1549 N 0.25679 0.62411 0.52119 0.0
C1550 C 0.23141 0.60605 0.53574 0.0
C1551 C 0.22574 0.62053 0.50689 0.0
C1552 C 0.24495 0.62762 0.50701 0.0
C1553 C 0.21879 0.6098 0.52153 0.0
H1554 H 0.26034 0.61121 0.54653 0.0
H1555 H 0.25046 0.63631 0.4961 0.0
O1556 O 0.3282 0.65912 0.52426 0.0
O1557 O 0.29723 0.63482 0.54635 0.0
O1558 O 0.28746 0.66472 0.52179 0.0
O1559 O 0.29615 0.62595 0.49938 0.0
H1560 H 0.36471 0.66471 0.52241 0.0
H1561 H 0.31869 0.69468 0.52665 0.0
H1562 H 0.38611 0.69791 0.52234 0.0
H1563 H 0.34076 0.72729 0.52636 0.0
H1564 H 0.30192 0.57628 0.5667 0.0
H1565 H 0.32194 0.65084 0.57742 0.0
H1566 H 0.28848 0.59494 0.54382 0.0
H1567 H 0.33468 0.63123 0.59979 0.0
H1568 H 0.34454 0.71521 0.59698 0.0
H1569 H 0.28424 0.70199 0.59608 0.0
H1570 H 0.33152 0.56949 0.49248 0.0
H1571 H 0.36509 0.60146 0.54652 0.0
H1572 H 0.25646 0.66149 0.54046 0.0
H1573 H 0.29275 0.69899 0.50773 0.0
H1574 H 0.23599 0.68614 0.54316 0.0
H1575 H 0.27173 0.72306 0.51125 0.0
H1576 H 0.28009 0.62742 0.46435 0.0
H1577 H 0.28026 0.59132 0.50961 0.0
H1578 H 0.25379 0.60115 0.44555 0.0
H1579 H 0.25404 0.56555 0.48994 0.0
H1580 H 0.33998 0.68539 0.45264 0.0
H1581 H 0.27979 0.67794 0.44819 0.0
H1582 H 0.22654 0.59803 0.54737 0.0
H1583 H 0.21642 0.6235 0.49556 0.0
Li1584 Li 0.42226 0.5531 0.77271 0.0
Li1585 Li 0.44949 0.57653 0.79583 0.0
Li1586 Li 0.42444 0.59394 0.77563 0.0
Li1587 Li 0.44819 0.57508 0.75691 0.0
C1588 C 0.40776 0.56684 0.80742 0.0
N1589 N 0.37975 0.54939 0.82839 0.0
C1590 C 0.41043 0.55159 0.81765 0.0
C1591 C 0.39087 0.57323 0.80784 0.0
C1592 C 0.39609 0.54295 0.82817 0.0
C1593 C 0.37688 0.56422 0.81855 0.0
C1594 C 0.46254 0.54334 0.77811 0.0
C1595 C 0.49323 0.5361 0.77597 0.0
N1596 N 0.48921 0.5231 0.78879 0.0
C1597 C 0.4587 0.52994 0.79128 0.0
C1598 C 0.47993 0.54651 0.77042 0.0
C1599 C 0.47238 0.51984 0.7965 0.0
C1600 C 0.41469 0.50892 0.76456 0.0
N1601 N 0.40617 0.52458 0.77039 0.0
C1602 C 0.37835 0.5002 0.77486 0.0
C1603 C 0.38811 0.5204 0.77523 0.0
C1604 C 0.38708 0.48377 0.76954 0.0
C1605 C 0.40554 0.48861 0.76416 0.0
H1606 H 0.42883 0.51214 0.76033 0.0
H1607 H 0.38126 0.53274 0.77974 0.0
C1608 C 0.45564 0.57901 0.84022 0.0
N1609 N 0.46426 0.57625 0.82312 0.0
C1610 C 0.46391 0.5768 0.85866 0.0
C1611 C 0.49031 0.56921 0.84246 0.0
C1612 C 0.48159 0.57173 0.8243 0.0
C1613 C 0.48155 0.57147 0.86035 0.0
H1614 H 0.44203 0.58273 0.83967 0.0
H1615 H 0.48872 0.56956 0.81102 0.0
C1616 C 0.41789 0.56667 0.73163 0.0
N1617 N 0.41636 0.55886 0.6908 0.0
C1618 C 0.42109 0.5827 0.72128 0.0
C1619 C 0.41393 0.54668 0.72126 0.0
C1620 C 0.42025 0.57843 0.70062 0.0
C1621 C 0.4132 0.54304 0.7006 0.0
C1622 C 0.46855 0.61298 0.77485 0.0
C1623 C 0.46629 0.63011 0.76739 0.0
C1624 C 0.48634 0.60889 0.7771 0.0
C1625 C 0.48197 0.64289 0.7622 0.0
C1626 C 0.50166 0.62202 0.7717 0.0
N1627 N 0.49918 0.6386 0.76442 0.0
C1628 C 0.41051 0.63273 0.79243 0.0
C1629 C 0.39895 0.61874 0.75948 0.0
C1630 C 0.40079 0.64878 0.79238 0.0
N1631 N 0.40966 0.61785 0.7761 0.0
C1632 C 0.38914 0.63455 0.75878 0.0
C1633 C 0.38979 0.65027 0.77532 0.0
H1634 H 0.41887 0.63236 0.80574 0.0
H1635 H 0.39786 0.60707 0.74649 0.0
C1636 C 0.4635 0.55499 0.72072 0.0
N1637 N 0.46238 0.57364 0.73088 0.0
C1638 C 0.47172 0.55264 0.70244 0.0
C1639 C 0.47786 0.58861 0.70468 0.0
C1640 C 0.46945 0.59029 0.72291 0.0
C1641 C 0.47918 0.56953 0.69375 0.0
H1642 H 0.45777 0.54165 0.72667 0.0
H1643 H 0.46829 0.60509 0.7304 0.0
O1644 O 0.4215 0.57527 0.79681 0.0
O1645 O 0.44943 0.55354 0.77298 0.0
O1646 O 0.41942 0.57051 0.75185 0.0
O1647 O 0.45338 0.60019 0.77981 0.0
H1648 H 0.42338 0.54638 0.81732 0.0
H1649 H 0.3886 0.58499 0.79992 0.0
H1650 H 0.39793 0.53109 0.83611 0.0
H1651 H 0.36372 0.56899 0.819 0.0
H1652 H 0.50677 0.53841 0.77015 0.0
H1653 H 0.44536 0.52749 0.79752 0.0
H1654 H 0.48318 0.557 0.76037 0.0
H1655 H 0.46963 0.50946 0.80671 0.0
H1656 H 0.36422 0.49757 0.77923 0.0
H1657 H 0.41294 0.47674 0.75951 0.0
H1658 H 0.45631 0.57938 0.87154 0.0
H1659 H 0.50373 0.56503 0.84218 0.0
H1660 H 0.42456 0.59826 0.72913 0.0
H1661 H 0.41163 0.53412 0.7291 0.0
H1662 H 0.42282 0.59068 0.69241 0.0
H1663 H 0.41021 0.52765 0.69237 0.0
H1664 H 0.45256 0.63341 0.76554 0.0
H1665 H 0.48826 0.59565 0.78285 0.0
H1666 H 0.48046 0.65618 0.75634 0.0
H1667 H 0.51552 0.61903 0.77328 0.0
H1668 H 0.40226 0.66017 0.80568 0.0
H1669 H 0.38084 0.63413 0.7452 0.0
H1670 H 0.4723 0.53749 0.69529 0.0
H1671 H 0.48288 0.60231 0.69901 0.0
Li1672 Li 0.69151 0.03552 0.76224 0.0
Li1673 Li 0.71429 0.05704 0.74482 0.0
Li1674 Li 0.68809 0.0291 0.72751 0.0
Li1675 Li 0.71365 0.0216 0.74331 0.0
C1676 C 0.67636 0.06614 0.75622 0.0
N1677 N 0.65592 0.08884 0.77972 0.0
C1678 C 0.68401 0.08653 0.76428 0.0
C1679 C 0.65821 0.05737 0.75998 0.0
C1680 C 0.67348 0.09773 0.77615 0.0
C1681 C 0.64814 0.06907 0.77194 0.0
C1682 C 0.73141 0.03878 0.77926 0.0
C1683 C 0.7633 0.04018 0.79107 0.0
N1684 N 0.75697 0.02724 0.80336 0.0
C1685 C 0.72522 0.02558 0.79209 0.0
C1686 C 0.7506 0.04623 0.77879 0.0
C1687 C 0.73837 0.0199 0.80413 0.0
C1688 C 0.66695 0.02087 0.78927 0.0
N1689 N 0.68013 0.03668 0.78589 0.0
C1690 C 0.67618 0.05713 0.81628 0.0
C1691 C 0.68531 0.05432 0.79919 0.0
C1692 C 0.66192 0.04138 0.81992 0.0
C1693 C 0.65763 0.02288 0.80637 0.0
H1694 H 0.66351 1.00685 0.77858 0.0
H1695 H 0.69607 0.06648 0.7961 0.0
C1696 C 0.72742 0.09367 0.73176 0.0
N1697 N 0.72855 0.08327 0.74671 0.0
C1698 C 0.73632 0.11411 0.73449 0.0
C1699 C 0.74776 0.11231 0.76764 0.0
C1700 C 0.73851 0.09204 0.76434 0.0
C1701 C 0.74639 0.12367 0.75275 0.0
H1702 H 0.7191 0.08625 0.71803 0.0
H1703 H 0.73858 0.08354 0.77616 0.0
C1704 C 0.67406 0.99374 0.73355 0.0
N1705 N 0.64726 0.96385 0.70945 0.0
C1706 C 0.67942 0.9786 0.72025 0.0
C1707 C 0.65505 0.99358 0.73471 0.0
C1708 C 0.66566 0.96364 0.70817 0.0
C1709 C 0.64172 0.97838 0.72236 0.0
C1710 C 0.72877 0.03123 0.71069 0.0
C1711 C 0.7271 0.01141 0.70041 0.0
C1712 C 0.74514 0.04581 0.71033 0.0
C1713 C 0.74192 1.00647 0.69011 0.0
C1714 C 0.75964 0.04026 0.69985 0.0
N1715 N 0.75775 0.02086 0.69005 0.0
C1716 C 0.65481 0.02971 0.70634 0.0
C1717 C 0.67413 1.01073 0.6884 0.0
C1718 C 0.64208 0.02616 0.68977 0.0
N1719 N 0.67053 0.0222 0.70527 0.0
C1720 C 0.66182 1.00687 0.67142 0.0
C1721 C 0.64577 0.01499 0.67195 0.0
H1722 H 0.65244 0.03896 0.71985 0.0
H1723 H 0.68674 1.00499 0.688 0.0
C1724 C 0.72259 0.98757 0.75334 0.0
N1725 N 0.72979 1.00387 0.74523 0.0
C1726 C 0.73431 0.97623 0.76017 0.0
C1727 C 0.76055 0.99802 0.74922 0.0
C1728 C 0.74834 1.00915 0.74288 0.0
C1729 C 0.75362 0.98171 0.75856 0.0
H1730 H 0.70794 0.98429 0.75585 0.0
H1731 H 0.75392 0.02281 0.73746 0.0
O1732 O 0.68658 0.05485 0.74475 0.0
O1733 O 0.71876 0.04409 0.76697 0.0
O1734 O 0.68736 1.00879 0.74517 0.0
O1735 O 0.71439 0.03648 0.72075 0.0
H1736 H 0.69795 0.09367 0.7615 0.0
H1737 H 0.6521 0.04157 0.75413 0.0
H1738 H 0.67928 0.11349 0.78254 0.0
H1739 H 0.63418 0.0624 0.77513 0.0
H1740 H 0.77819 0.04567 0.79072 0.0
H1741 H 0.71043 0.01953 0.79253 0.0
H1742 H 0.75565 0.05622 0.76875 0.0
H1743 H 0.73378 1.00957 0.81402 0.0
H1744 H 0.6798 0.07175 0.82609 0.0
H1745 H 0.64704 1.01019 0.8088 0.0
H1746 H 0.73496 0.12247 0.72271 0.0
H1747 H 0.75504 0.11929 0.78205 0.0
H1748 H 0.69404 0.97847 0.71913 0.0
H1749 H 0.65064 1.00525 0.7448 0.0
H1750 H 0.66961 0.95189 0.69774 0.0
H1751 H 0.62698 0.97817 0.72298 0.0
H1752 H 0.71468 0.99986 0.70071 0.0
H1753 H 0.74669 0.06122 0.71816 0.0
H1754 H 0.74086 0.99115 0.68224 0.0
H1755 H 0.77241 0.05136 0.69954 0.0
H1756 H 0.63002 0.033 0.69063 0.0
H1757 H 0.66506 0.99813 0.6579 0.0
H1758 H 0.72841 0.96408 0.7677 0.0
H1759 H 0.77533 1.00267 0.74757 0.0
Li1760 Li 0.80286 0.70989 0.03084 0.0
Li1761 Li 0.81696 0.68153 0.01213 0.0
Li1762 Li 0.80422 0.70574 0.99424 0.0
Li1763 Li 0.78393 0.68142 0.00818 0.0
C1764 C 0.84279 0.72337 0.01537 0.0
N1765 N 0.87829 0.74671 0.01495 0.0
C1766 C 0.85567 0.71574 1.0037 0.0
C1767 C 0.84806 0.74277 0.02704 0.0
C1768 C 0.87352 0.7278 1.00361 0.0
C1769 C 0.86605 0.75436 0.02657 0.0
C1770 C 0.79 0.66644 0.04184 0.0
C1771 C 0.78361 0.63217 0.04777 0.0
N1772 N 0.7718 0.63723 0.06139 0.0
C1773 C 0.77785 0.67134 0.05591 0.0
C1774 C 0.793 0.64675 0.03777 0.0
C1775 C 0.76876 0.65634 0.06564 0.0
C1776 C 0.79083 0.7356 0.0628 0.0
N1777 N 0.80477 0.72641 0.05648 0.0
C1778 C 0.82021 0.73437 0.08921 0.0
C1779 C 0.81946 0.72595 0.06914 0.0
C1780 C 0.8057 0.74335 0.09633 0.0
C1781 C 0.79113 0.74441 0.08275 0.0
H1782 H 0.77898 0.73519 0.05263 0.0
H1783 H 0.83015 0.71819 0.06378 0.0
C1784 C 0.84432 0.65951 0.99881 0.0
N1785 N 0.8361 0.66716 0.01474 0.0
C1786 C 0.85868 0.64933 1.00131 0.0
C1787 C 0.85539 0.65464 0.03646 0.0
C1788 C 0.84138 0.66504 0.03332 0.0
C1789 C 0.86441 0.64671 0.02036 0.0
H1790 H 0.83986 0.66154 0.9842 0.0
H1791 H 0.83458 0.67131 0.0457 0.0
C1792 C 0.78178 0.73049 0.01148 0.0
N1793 N 0.77967 0.77068 0.01453 0.0
C1794 C 0.76456 0.73606 0.01327 0.0
C1795 C 0.7979 0.74542 0.01122 0.0
C1796 C 0.76379 0.75644 0.01483 0.0
C1797 C 0.79655 0.76562 0.01275 0.0
C1798 C 0.78953 0.65994 0.97463 0.0
C1799 C 0.77511 0.66316 0.96232 0.0
C1800 C 0.79207 0.64027 0.97434 0.0
C1801 C 0.76324 0.64652 0.95007 0.0
C1802 C 0.77992 0.62404 0.96185 0.0
N1803 N 0.76586 0.62747 0.9501 0.0
C1804 C 0.82378 0.72123 0.96329 0.0
C1805 C 0.79166 0.72218 0.9626 0.0
C1806 C 0.82521 0.72833 0.94546 0.0
N1807 N 0.80719 0.7183 0.97147 0.0
C1808 C 0.79245 0.72927 0.94476 0.0
C1809 C 0.80934 0.73222 0.93581 0.0
H1810 H 0.83576 0.71742 0.9702 0.0
H1811 H 0.77851 0.71927 0.96912 0.0
C1812 C 0.75601 0.64356 1.00435 0.0
N1813 N 0.75923 0.66395 1.00502 0.0
C1814 C 0.7377 0.63213 1.00352 0.0
C1815 C 0.72635 0.66272 1.00345 0.0
C1816 C 0.74481 0.67349 1.00421 0.0
C1817 C 0.72259 0.6418 1.00345 0.0
H1818 H 0.76761 0.63616 1.0048 0.0
H1819 H 0.74764 0.68959 1.00446 0.0
O1820 O 0.8253 0.71171 0.01587 0.0
O1821 O 0.79939 0.68102 0.03255 0.0
O1822 O 0.78268 0.71054 0.01014 0.0
O1823 O 0.80108 0.67597 0.98696 0.0
H1824 H 0.85184 0.70076 0.9946 0.0
H1825 H 0.83834 0.74882 0.03637 0.0
H1826 H 0.88356 0.72214 0.99452 0.0
H1827 H 0.87029 0.76943 0.03547 0.0
H1828 H 0.78572 0.61683 0.0447 0.0
H1829 H 0.77553 0.68659 0.05933 0.0
H1830 H 0.80232 0.64271 0.02685 0.0
H1831 H 0.75932 0.65989 0.07659 0.0
H1832 H 0.83174 0.7333 0.09918 0.0
H1833 H 0.77953 0.75091 0.08767 0.0
H1834 H 0.86534 0.64383 0.98846 0.0
H1835 H 0.8589 0.65269 0.05136 0.0
H1836 H 0.75191 0.72482 0.01365 0.0
H1837 H 0.8113 0.74153 0.00964 0.0
H1838 H 0.75056 0.76093 0.0163 0.0
H1839 H 0.80894 0.77729 0.01251 0.0
H1840 H 0.77298 0.67831 0.96242 0.0
H1841 H 0.80317 0.63756 0.98383 0.0
H1842 H 0.75192 0.64875 0.94057 0.0
H1843 H 0.78162 0.60871 0.96155 0.0
H1844 H 0.83844 0.73001 0.93895 0.0
H1845 H 0.77989 0.73223 0.93797 0.0
H1846 H 0.73545 0.61604 1.00361 0.0
H1847 H 0.71513 0.67075 1.00303 0.0
Li1848 Li 0.8958 0.53853 0.79627 0.0
Li1849 Li 0.92138 0.56046 0.8188 0.0
Li1850 Li 0.89895 0.57371 0.80276 0.0
Li1851 Li 0.92118 0.55957 0.78316 0.0
C1852 C 0.87965 0.56255 0.83045 0.0
N1853 N 0.85047 0.57787 0.8463 0.0
C1854 C 0.88327 0.58101 0.84385 0.0
C1855 C 0.86112 0.55195 0.82512 0.0
C1856 C 0.86836 0.58849 0.85168 0.0
C1857 C 0.84659 0.55991 0.8333 0.0
C1858 C 0.92426 0.51978 0.80334 0.0
C1859 C 0.93278 0.48729 0.79722 0.0
N1860 N 0.9263 0.48347 0.81463 0.0
C1861 C 0.91774 0.51554 0.82122 0.0
C1862 C 0.93189 0.50556 0.79126 0.0
C1863 C 0.91889 0.4971 0.82666 0.0
C1864 C 0.88113 0.5009 0.7721 0.0
N1865 N 0.88099 0.51191 0.79048 0.0
C1866 C 0.86394 0.48286 0.80141 0.0
C1867 C 0.87275 0.50334 0.80512 0.0
C1868 C 0.86361 0.47134 0.78245 0.0
C1869 C 0.87208 0.48055 0.7676 0.0
H1870 H 0.88883 0.50775 0.76114 0.0
H1871 H 0.87379 0.51217 0.8199 0.0
C1872 C 0.93469 0.57443 0.8587 0.0
N1873 N 0.93785 0.56322 0.84148 0.0
C1874 C 0.94679 0.57698 0.87564 0.0
C1875 C 0.96537 0.5567 0.85663 0.0
C1876 C 0.95289 0.55452 0.8401 0.0
C1877 C 0.96226 0.56791 0.87469 0.0
H1878 H 0.92281 0.58137 0.85933 0.0
H1879 H 0.95519 0.5458 0.82618 0.0
C1880 C 0.8813 0.54553 0.76147 0.0
N1881 N 0.8551 0.52358 0.73103 0.0
C1882 C 0.88643 0.54164 0.74215 0.0
C1883 C 0.86279 0.53838 0.76525 0.0
C1884 C 0.87299 0.53049 0.72697 0.0
C1885 C 0.84978 0.52727 0.74968 0.0
C1886 C 0.94552 0.59215 0.80751 0.0
C1887 C 0.95213 0.61308 0.81356 0.0
C1888 C 0.95835 0.57974 0.80385 0.0
C1889 C 0.97139 0.62122 0.81586 0.0
C1890 C 0.9775 0.58845 0.80633 0.0
N1891 N 0.98358 0.60884 0.81224 0.0
C1892 C 0.89556 0.61405 0.81179 0.0
C1893 C 0.86798 0.59039 0.79687 0.0
C1894 C 0.88702 0.63017 0.81047 0.0
N1895 N 0.8861 0.59474 0.80449 0.0
C1896 C 0.85886 0.60596 0.79536 0.0
C1897 C 0.86863 0.62617 0.80161 0.0
H1898 H 0.9099 0.61692 0.81797 0.0
H1899 H 0.86083 0.5749 0.79128 0.0
C1900 C 0.93774 0.54211 0.75176 0.0
N1901 N 0.93601 0.56033 0.76185 0.0
C1902 C 0.95066 0.54116 0.73775 0.0
C1903 C 0.959 0.57786 0.74406 0.0
C1904 C 0.9458 0.57808 0.75787 0.0
C1905 C 0.96187 0.55919 0.73418 0.0
H1906 H 0.92935 0.52832 0.75497 0.0
H1907 H 0.94395 0.59236 0.76606 0.0
O1908 O 0.89409 0.55506 0.82243 0.0
O1909 O 0.92258 0.53741 0.79734 0.0
O1910 O 0.89434 0.55641 0.77648 0.0
O1911 O 0.92663 0.584 0.80536 0.0
H1912 H 0.89738 0.58986 0.84768 0.0
H1913 H 0.85789 0.53783 0.8146 0.0
H1914 H 0.871 0.60283 0.8619 0.0
H1915 H 0.83221 0.55186 0.82924 0.0
H1916 H 0.9386 0.47613 0.78797 0.0
H1917 H 0.91164 0.52624 0.8307 0.0
H1918 H 0.93704 0.50852 0.7774 0.0
H1919 H 0.9138 0.4936 0.84039 0.0
H1920 H 0.85786 0.47595 0.81326 0.0
H1921 H 0.87254 0.47184 0.753 0.0
H1922 H 0.94406 0.58588 0.88932 0.0
H1923 H 0.97704 0.54926 0.85542 0.0
H1924 H 0.90062 0.54721 0.73888 0.0
H1925 H 0.8586 0.54092 0.78011 0.0
H1926 H 0.87678 0.52734 0.71197 0.0
H1927 H 0.83546 0.52149 0.75246 0.0
H1928 H 0.9425 0.623 0.81646 0.0
H1929 H 0.95364 0.56356 0.79899 0.0
H1930 H 0.97666 0.6374 0.82054 0.0
H1931 H 0.98753 0.57899 0.80353 0.0
H1932 H 0.89492 0.64557 0.81559 0.0
H1933 H 0.84475 0.60223 0.78819 0.0
H1934 H 0.95211 0.52648 0.73006 0.0
H1935 H 0.96741 0.5921 0.74178 0.0
Li1936 Li 0.80862 0.42663 0.54527 0.0
Li1937 Li 0.79917 0.45061 0.52666 0.0
Li1938 Li 0.81008 0.42226 0.51078 0.0
Li1939 Li 0.83171 0.44833 0.53112 0.0
C1940 C 0.77034 0.41906 0.53249 0.0
N1941 N 0.73658 0.41411 0.54906 0.0
C1942 C 0.76815 0.43239 0.54956 0.0
C1943 C 0.75537 0.40322 0.52387 0.0
C1944 C 0.75095 0.42964 0.55768 0.0
C1945 C 0.73842 0.40096 0.53248 0.0
C1946 C 0.82771 0.47348 0.56193 0.0
C1947 C 0.84546 0.50749 0.56289 0.0
N1948 N 0.85331 0.50768 0.58128 0.0
C1949 C 0.83583 0.47408 0.5809 0.0
C1950 C 0.83246 0.49038 0.55289 0.0
C1951 C 0.84879 0.49148 0.59041 0.0
C1952 C 0.82229 0.4179 0.57878 0.0
N1953 N 0.80592 0.41402 0.56725 0.0
C1954 C 0.79079 0.3922 0.58781 0.0
C1955 C 0.7903 0.40131 0.57122 0.0
C1956 C 0.80755 0.39613 0.60009 0.0
C1957 C 0.82344 0.40915 0.59538 0.0
H1958 H 0.8346 0.42746 0.5747 0.0
H1959 H 0.77762 0.39787 0.56142 0.0
C1960 C 0.76911 0.4644 0.51056 0.0
N1961 N 0.78271 0.468 0.52572 0.0
C1962 C 0.75664 0.47722 0.51046 0.0
C1963 C 0.77245 0.49694 0.54159 0.0
C1964 C 0.78439 0.48366 0.5412 0.0
C1965 C 0.75839 0.49377 0.52609 0.0
H1966 H 0.76776 0.4514 0.49879 0.0
H1967 H 0.79469 0.48561 0.55352 0.0
C1968 C 0.8293 0.39958 0.53058 0.0
N1969 N 0.82988 0.3595 0.53093 0.0
C1970 C 0.84628 0.39394 0.53388 0.0
C1971 C 0.81259 0.38481 0.52746 0.0
C1972 C 0.84629 0.37361 0.53399 0.0
C1973 C 0.81319 0.36464 0.52769 0.0
C1974 C 0.82048 0.44824 0.48746 0.0
C1975 C 0.83782 0.44562 0.48133 0.0
C1976 C 0.80586 0.44756 0.47333 0.0
C1977 C 0.84019 0.44216 0.46112 0.0
C1978 C 0.80878 0.44408 0.45326 0.0
N1979 N 0.82574 0.44146 0.44762 0.0
C1980 C 0.79233 0.39539 0.47557 0.0
C1981 C 0.825 0.39854 0.4824 0.0
C1982 C 0.7925 0.38286 0.45735 0.0
N1983 N 0.80852 0.40314 0.48741 0.0
C1984 C 0.82584 0.38628 0.46439 0.0
C1985 C 0.80954 0.37864 0.45149 0.0
H1986 H 0.77948 0.39949 0.48 0.0
H1987 H 0.83766 0.40513 0.49208 0.0
C1988 C 0.86811 0.45475 0.54694 0.0
N1989 N 0.85692 0.46178 0.53476 0.0
C1990 C 0.88739 0.46191 0.54851 0.0
C1991 C 0.88313 0.4841 0.52563 0.0
C1992 C 0.86388 0.47648 0.52451 0.0
C1993 C 0.89512 0.47637 0.53736 0.0
H1994 H 0.86203 0.4431 0.55493 0.0
H1995 H 0.85452 0.48172 0.51494 0.0
O1996 O 0.78704 0.42113 0.52423 0.0
O1997 O 0.81523 0.45644 0.55216 0.0
O1998 O 0.82922 0.41952 0.53057 0.0
O1999 O 0.81779 0.45129 0.50718 0.0
H2000 H 0.77962 0.44457 0.55661 0.0
H2001 H 0.75689 0.39272 0.5107 0.0
H2002 H 0.74906 0.43981 0.5709 0.0
H2003 H 0.72674 0.38873 0.52599 0.0
H2004 H 0.84936 0.5206 0.55599 0.0
H2005 H 0.83212 0.46133 0.58829 0.0
H2006 H 0.82635 0.49015 0.53817 0.0
H2007 H 0.85523 0.49213 0.60508 0.0
H2008 H 0.7783 0.38209 0.59088 0.0
H2009 H 0.8368 0.41204 0.60406 0.0
H2010 H 0.74574 0.47422 0.4984 0.0
H2011 H 0.7738 0.50917 0.5542 0.0
H2012 H 0.85934 0.40519 0.53632 0.0
H2013 H 0.7993 0.38881 0.52488 0.0
H2014 H 0.85934 0.36904 0.53652 0.0
H2015 H 0.80037 0.35307 0.5253 0.0
H2016 H 0.84921 0.44573 0.492 0.0
H2017 H 0.79236 0.44956 0.47779 0.0
H2018 H 0.85348 0.4399 0.45617 0.0
H2019 H 0.79756 0.44342 0.44216 0.0
H2020 H 0.77971 0.37729 0.44761 0.0
H2021 H 0.83918 0.3832 0.46036 0.0
H2022 H 0.89619 0.45588 0.55799 0.0
H2023 H 0.88859 0.49518 0.51674 0.0
Li2024 Li 0.6636 0.51959 0.29087 0.0
Li2025 Li 0.68916 0.5393 0.27382 0.0
Li2026 Li 0.66275 0.51747 0.25094 0.0
Li2027 Li 0.68789 0.50027 0.26973 0.0
C2028 C 0.64425 0.54383 0.2729 0.0
N2029 N 0.60815 0.54996 0.27159 0.0
C2030 C 0.64064 0.56181 0.26826 0.0
C2031 C 0.62944 0.52889 0.27662 0.0
C2032 C 0.6223 0.56463 0.26771 0.0
C2033 C 0.61132 0.53231 0.276 0.0
C2034 C 0.70899 0.53312 0.30391 0.0
C2035 C 0.74258 0.53812 0.30835 0.0
N2036 N 0.74348 0.55607 0.32075 0.0
C2037 C 0.71024 0.55163 0.31668 0.0
C2038 C 0.72527 0.52631 0.29966 0.0
C2039 C 0.72781 0.56301 0.32506 0.0
C2040 C 0.65653 0.5363 0.33269 0.0
N2041 N 0.64962 0.5207 0.31713 0.0
C2042 C 0.62509 0.50802 0.33739 0.0
C2043 C 0.63406 0.50663 0.31949 0.0
C2044 C 0.63196 0.52393 0.35386 0.0
C2045 C 0.64815 0.53811 0.35089 0.0
H2046 H 0.66875 0.54758 0.33115 0.0
H2047 H 0.62835 0.49418 0.3074 0.0
C2048 C 0.72459 0.57218 0.27482 0.0
N2049 N 0.70574 0.56785 0.27646 0.0
C2050 C 0.73462 0.59236 0.27554 0.0
C2051 C 0.70604 0.60368 0.28013 0.0
C2052 C 0.69662 0.58339 0.27941 0.0
C2053 C 0.72538 0.60867 0.27798 0.0
H2054 H 0.73197 0.55999 0.27275 0.0
H2055 H 0.68184 0.5801 0.28118 0.0
C2056 C 0.64836 0.47686 0.25654 0.0
N2057 N 0.62785 0.44149 0.2332 0.0
C2058 C 0.65602 0.4672 0.24043 0.0
C2059 C 0.63027 0.46861 0.26076 0.0
C2060 C 0.64543 0.44931 0.22882 0.0
C2061 C 0.62013 0.45068 0.24879 0.0
C2062 C 0.70452 0.52887 0.24019 0.0
C2063 C 0.70122 0.54383 0.22986 0.0
C2064 C 0.72238 0.52481 0.24168 0.0
C2065 C 0.71592 0.55448 0.22112 0.0
C2066 C 0.7367 0.53576 0.23269 0.0
N2067 N 0.7332 0.55026 0.2227 0.0
C2068 C 0.63107 0.52332 0.22236 0.0
C2069 C 0.65618 0.51375 0.2064 0.0
C2070 C 0.62259 0.5259 0.20413 0.0
N2071 N 0.64787 0.51759 0.22358 0.0
C2072 C 0.64812 0.51604 0.18786 0.0
C2073 C 0.63105 0.52256 0.18616 0.0
H2074 H 0.62416 0.52641 0.2356 0.0
H2075 H 0.66944 0.50923 0.20698 0.0
C2076 C 0.70102 0.46552 0.2847 0.0
N2077 N 0.70169 0.47547 0.26904 0.0
C2078 C 0.71015 0.44915 0.28537 0.0
C2079 C 0.72095 0.4528 0.25383 0.0
C2080 C 0.71149 0.46904 0.25367 0.0
C2081 C 0.72066 0.44221 0.26988 0.0
H2082 H 0.69331 0.47024 0.29697 0.0
H2083 H 0.71215 0.47654 0.24105 0.0
O2084 O 0.66212 0.54079 0.2736 0.0
O2085 O 0.692 0.52205 0.29501 0.0
O2086 O 0.65856 0.49439 0.26801 0.0
O2087 O 0.69036 0.51845 0.24902 0.0
H2088 H 0.65181 0.57341 0.26493 0.0
H2089 H 0.63186 0.51469 0.2797 0.0
H2090 H 0.61931 0.57846 0.26414 0.0
H2091 H 0.59976 0.52086 0.27889 0.0
H2092 H 0.75531 0.53305 0.30516 0.0
H2093 H 0.69784 0.55738 0.31974 0.0
H2094 H 0.72458 0.51214 0.28963 0.0
H2095 H 0.72899 0.57742 0.33486 0.0
H2096 H 0.61264 0.49661 0.33804 0.0
H2097 H 0.65469 0.5506 0.36262 0.0
H2098 H 0.74945 0.59504 0.27374 0.0
H2099 H 0.69811 0.6154 0.28256 0.0
H2100 H 0.67 0.47348 0.23694 0.0
H2101 H 0.62411 0.47594 0.27312 0.0
H2102 H 0.65117 0.44165 0.21631 0.0
H2103 H 0.60611 0.44409 0.25188 0.0
H2104 H 0.68751 0.54729 0.22877 0.0
H2105 H 0.7252 0.51348 0.24986 0.0
H2106 H 0.71361 0.56615 0.21314 0.0
H2107 H 0.75061 0.53282 0.23375 0.0
H2108 H 0.60963 0.53105 0.20441 0.0
H2109 H 0.65546 0.51263 0.17493 0.0
H2110 H 0.70864 0.44195 0.29814 0.0
H2111 H 0.72866 0.44886 0.24133 0.0
Gd2112 Gd 0.07834 0.06585 0.03813 0.0
Gd2113 Gd 0.0356 0.03027 0.01526 0.0
C2114 C 0.02653 0.96132 0.00927 0.0
C2115 C 0.02348 0.95009 0.97359 0.0
C2116 C 0.02844 0.98597 0.98782 0.0
C2117 C 0.02931 0.98163 0.00659 0.0
C2118 C 0.02487 0.97021 0.97107 0.0
C2119 C 0.02431 0.94565 0.99269 0.0
C2120 C 0.02507 0.9573 0.02843 0.0
C2121 C 0.02541 0.97322 0.04414 0.0
N2122 N 0.03104 0.99713 0.0222 0.0
C2123 C 0.02805 0.99307 0.04069 0.0
H2124 H 0.0283 1.00513 0.05305 0.0
C2125 C 0.02516 1.01007 0.96795 0.0
N2126 N 0.02933 1.00547 0.98601 0.0
C2127 C 0.02166 0.99501 0.95088 0.0
C2128 C 0.02188 0.97503 0.95239 0.0
H2129 H 0.025 0.02547 0.9666 0.0
H2130 H 0.02243 0.92999 0.99446 0.0
H2131 H 0.08787 0.08982 0.99979 0.0
H2132 H 0.02296 0.94193 0.03112 0.0
H2133 H 0.02371 0.97025 0.05895 0.0
H2134 H 0.02098 0.93779 0.96091 0.0
H2135 H 0.08634 0.07203 0.08731 0.0
H2136 H 0.09208 0.15319 0.01953 0.0
H2137 H 0.09281 0.12431 0.99282 0.0
H2138 H 0.09021 0.15927 0.08967 0.0
H2139 H 0.01882 0.99883 0.93658 0.0
H2140 H 0.01906 0.96336 0.93917 0.0
H2141 H 0.09063 0.16606 0.05572 0.0
H2142 H 0.09076 0.09938 0.11669 0.0
N2143 N 0.0835 0.09858 0.03013 0.0
C2144 C 0.08982 0.13798 0.0227 0.0
C2145 C 0.09031 0.12174 0.00762 0.0
C2146 C 0.08734 0.13452 0.04191 0.0
C2147 C 0.08442 0.11441 0.04523 0.0
C2148 C 0.08745 0.10211 0.01169 0.0
N2149 N 0.0833 0.09135 0.0668 0.0
C2150 C 0.08431 0.11065 0.06424 0.0
C2151 C 0.08884 0.10276 0.10203 0.0
C2152 C 0.08877 0.12255 0.09966 0.0
C2153 C 0.08638 0.08732 0.08534 0.0
C2154 C 0.08691 0.12679 0.08058 0.0
H2155 H 0.09081 0.13452 0.11259 0.0
O2156 O 0.1032 0.06089 0.05336 0.0
O2157 O 0.06397 0.03304 0.0299 0.0
O2158 O 0.03391 0.03983 0.04911 0.0
O2159 O 0.05582 0.07015 0.05974 0.0
O2160 O 0.07798 0.04297 0.0579 0.0
O2161 O 0.10458 0.06988 0.02472 0.0
O2162 O 0.01066 0.03747 1.00254 0.0
O2163 O 0.05017 0.06298 0.02333 0.0
O2164 O 0.08051 0.05555 1.00444 0.0
O2165 O 0.05731 0.02636 0.99261 0.0
O2166 O 0.03571 0.0533 0.99557 0.0
O2167 O 0.00957 0.0242 0.02891 0.0
C2168 C 0.06852 0.02737 0.04574 0.0
C2169 C 0.08844 0.14669 0.07732 0.0
C2170 C 0.08867 0.15056 0.058 0.0
C2171 C 0.11386 0.06621 0.03982 0.0
C2172 C 0.13188 0.08009 0.04683 0.0
C2173 C 0.13397 0.10122 0.05 0.0
C2174 C 0.14741 0.07181 0.04991 0.0
C2175 C 0.16517 0.08443 0.05568 0.0
C2176 C 0.15164 0.11389 0.05588 0.0
C2177 C 0.16726 0.10556 0.05854 0.0
C2178 C 0.04094 0.05646 0.06274 0.0
C2179 C 0.04563 0.06876 0.00755 0.0
C2180 C 1.00016 0.03003 0.01529 0.0
C2181 C 0.98209 0.01688 0.00719 0.0
C2182 C 0.97971 0.99583 1.00135 0.0
C2183 C 0.96691 0.02591 1.00512 0.0
C2184 C 0.94924 0.01419 0.99719 0.0
C2185 C 0.96209 0.98398 0.99361 0.0
C2186 C 0.94686 0.99308 0.99158 0.0
C2187 C 0.07284 0.03957 0.99024 0.0
H2188 H 0.12207 0.10786 0.04773 0.0
H2189 H 0.14575 0.05546 0.04724 0.0
H2190 H 0.15326 0.13018 0.05819 0.0
H2191 H 0.18089 0.11555 0.06287 0.0
H2192 H 0.99136 0.9886 1.00283 0.0
H2193 H 0.96888 0.04218 0.00994 0.0
H2194 H 0.96025 0.96773 0.98914 0.0
H2195 H 0.93335 0.98369 0.98543 0.0
Gd2196 Gd 0.29698 0.81787 0.29957 0.0
Gd2197 Gd 0.31155 0.78684 0.25572 0.0
C2198 C 0.29811 0.71754 0.24095 0.0
C2199 C 0.32892 0.71009 0.24483 0.0
C2200 C 0.32539 0.74502 0.25025 0.0
C2201 C 0.30626 0.73845 0.24633 0.0
C2202 C 0.33702 0.73095 0.24903 0.0
C2203 C 0.30948 0.70339 0.2408 0.0
C2204 C 0.27891 0.71153 0.2351 0.0
C2205 C 0.26854 0.72626 0.23395 0.0
N2206 N 0.29576 0.75256 0.24636 0.0
C2207 C 0.27728 0.7468 0.2394 0.0
H2208 H 0.26904 0.75796 0.23845 0.0
C2209 C 0.35166 0.77248 0.25523 0.0
N2210 N 0.33272 0.76525 0.25397 0.0
C2211 C 0.36379 0.75914 0.25417 0.0
C2212 C 0.35645 0.73828 0.25136 0.0
H2213 H 0.35747 0.78857 0.25749 0.0
H2214 H 0.30345 0.68726 0.23695 0.0
H2215 H 0.34231 0.84024 0.31856 0.0
H2216 H 0.2721 0.69563 0.23089 0.0
H2217 H 0.25377 0.7218 0.22897 0.0
H2218 H 0.3376 0.69903 0.24404 0.0
H2219 H 0.25352 0.8243 0.29306 0.0
H2220 H 0.34639 0.90354 0.33607 0.0
H2221 H 0.36073 0.87377 0.33294 0.0
H2222 H 0.28433 0.91182 0.32134 0.0
H2223 H 0.37879 0.76496 0.25558 0.0
H2224 H 0.36587 0.72797 0.25049 0.0
H2225 H 0.31792 0.91756 0.33164 0.0
H2226 H 0.23657 0.8521 0.29659 0.0
N2227 N 0.31692 0.84995 0.31304 0.0
C2228 C 0.33798 0.88863 0.32974 0.0
C2229 C 0.3461 0.87187 0.32803 0.0
C2230 C 0.31907 0.88592 0.32342 0.0
C2231 C 0.30875 0.86618 0.31509 0.0
C2232 C 0.33534 0.8526 0.31982 0.0
N2233 N 0.28031 0.84389 0.30181 0.0
C2234 C 0.28992 0.86305 0.30917 0.0
C2235 C 0.2516 0.85545 0.30003 0.0
C2236 C 0.26144 0.8754 0.30666 0.0
C2237 C 0.26125 0.83978 0.29798 0.0
C2238 C 0.28078 0.87939 0.31162 0.0
H2239 H 0.25394 0.88754 0.30836 0.0
O2240 O 0.27751 0.81691 0.32212 0.0
O2241 O 0.29558 0.7875 0.28208 0.0
O2242 O 0.28313 0.79388 0.24881 0.0
O2243 O 0.28215 0.82303 0.27151 0.0
O2244 O 0.27065 0.79313 0.29181 0.0
O2245 O 0.30377 0.80812 0.327 0.0
O2246 O 0.32829 0.79806 0.23335 0.0
O2247 O 0.31211 0.8173 0.27288 0.0
O2248 O 0.32463 0.8086 0.30661 0.0
O2249 O 0.32639 0.78038 0.28271 0.0
O2250 O 0.33679 0.81303 0.2614 0.0
O2251 O 0.29903 0.78279 0.22572 0.0
C2252 C 0.27869 0.77956 0.283 0.0
C2253 C 0.29108 0.89907 0.31946 0.0
C2254 C 0.31018 0.90232 0.32537 0.0
C2255 C 0.28692 0.80751 0.33244 0.0
C2256 C 0.27661 0.78791 0.33639 0.0
C2257 C 0.25732 0.78087 0.33055 0.0
C2258 C 0.28629 0.77551 0.34501 0.0
C2259 C 0.27696 0.75631 0.34785 0.0
C2260 C 0.24809 0.76162 0.33288 0.0
C2261 C 0.25781 0.74937 0.34149 0.0
C2262 C 0.27609 0.81003 0.25464 0.0
C2263 C 0.32867 0.82589 0.27133 0.0
C2264 C 0.31463 0.79123 0.2194 0.0
C2265 C 0.3194 0.78134 0.20049 0.0
C2266 C 0.32228 0.76152 0.19726 0.0
C2267 C 0.32113 0.79243 0.18531 0.0
C2268 C 0.32584 0.78409 0.16675 0.0
C2269 C 0.32679 0.75294 0.17867 0.0
C2270 C 0.3285 0.76413 0.16339 0.0
C2271 C 0.33195 0.79268 0.30005 0.0
H2272 H 0.24938 0.79004 0.32384 0.0
H2273 H 0.30116 0.7808 0.3494 0.0
H2274 H 0.23332 0.75625 0.32817 0.0
H2275 H 0.25017 0.73474 0.34371 0.0
H2276 H 0.32099 0.75276 0.20897 0.0
H2277 H 0.3185 0.80762 0.18796 0.0
H2278 H 0.32896 0.73762 0.1761 0.0
H2279 H 0.33207 0.75732 0.14912 0.0
Gd2280 Gd 0.53355 0.04074 0.53345 0.0
Gd2281 Gd 0.57997 0.05308 0.51472 0.0
C2282 C 0.61232 0.11789 0.5164 0.0
C2283 C 0.61173 0.1198 0.48145 0.0
C2284 C 0.59704 0.08858 0.49183 0.0
C2285 C 0.60204 0.09766 0.51141 0.0
C2286 C 0.60214 0.09939 0.47658 0.0
C2287 C 0.61679 0.12904 0.50134 0.0
C2288 C 0.61824 0.12612 0.53632 0.0
C2289 C 0.61446 0.11398 0.55058 0.0
N2290 N 0.59767 0.08636 0.52554 0.0
C2291 C 0.60434 0.09393 0.54486 0.0
H2292 H 0.60151 0.08478 0.55607 0.0
C2293 C 0.58451 0.05853 0.46853 0.0
N2294 N 0.58798 0.06881 0.48767 0.0
C2295 C 0.58919 0.06862 0.45288 0.0
C2296 C 0.59787 0.0892 0.45691 0.0
H2297 H 0.57771 0.04264 0.46533 0.0
H2298 H 0.62455 0.14466 0.50488 0.0
H2299 H 0.51261 1.00783 0.49262 0.0
H2300 H 0.62611 0.14162 0.54078 0.0
H2301 H 0.61928 0.12005 0.56598 0.0
H2302 H 0.61565 0.12843 0.46996 0.0
H2303 H 0.53463 0.05279 0.58281 0.0
H2304 H 0.48795 0.95175 0.50937 0.0
H2305 H 0.49507 0.9724 0.48348 0.0
H2306 H 0.49712 0.96728 0.58026 0.0
H2307 H 0.58609 0.06052 0.43774 0.0
H2308 H 0.60155 0.09697 0.44476 0.0
H2309 H 0.48895 0.94992 0.54556 0.0
H2310 H 0.52563 0.03598 0.61085 0.0
N2311 N 0.51605 1.00725 0.52341 0.0
C2312 C 0.49572 0.96733 0.51349 0.0
C2313 C 0.49966 0.97895 0.49885 0.0
C2314 C 0.50133 0.97617 0.53334 0.0
C2315 C 0.51149 0.99647 0.53788 0.0
C2316 C 0.50964 0.99908 0.50412 0.0
N2317 N 0.52501 0.026 0.56101 0.0
C2318 C 0.51609 1.00618 0.55733 0.0
C2319 C 0.52294 0.02739 0.59587 0.0
C2320 C 0.51444 1.00677 0.59237 0.0
C2321 C 0.528 0.03687 0.57992 0.0
C2322 C 0.51067 0.99594 0.5729 0.0
H2323 H 0.51048 0.99946 0.60475 0.0
O2324 O 0.51704 0.06172 0.54612 0.0
O2325 O 0.55731 0.06532 0.52923 0.0
O2326 O 0.58113 0.0513 0.54732 0.0
O2327 O 0.55354 0.02956 0.55226 0.0
O2328 O 0.54545 0.06969 0.55558 0.0
O2329 O 0.50744 0.04199 0.51777 0.0
O2330 O 0.59742 0.03402 0.50036 0.0
O2331 O 0.55632 0.02859 0.51902 0.0
O2332 O 0.53262 0.04173 0.50074 0.0
O2333 O 0.55965 0.06454 0.49651 0.0
O2334 O 0.56826 0.02384 0.49279 0.0
O2335 O 0.60538 0.05027 0.5305 0.0
C2336 C 0.55797 0.0778 0.5452 0.0
C2337 C 0.50125 0.97546 0.56851 0.0
C2338 C 0.49661 0.96558 0.54875 0.0
C2339 C 0.50373 0.05562 0.53173 0.0
C2340 C 0.48459 0.05211 0.53764 0.0
C2341 C 0.47801 0.03647 0.54789 0.0
C2342 C 0.47302 0.06514 0.53366 0.0
C2343 C 0.45503 0.06286 0.54027 0.0
C2344 C 0.4601 0.03404 0.55435 0.0
C2345 C 0.44869 0.04722 0.5507 0.0
C2346 C 0.57143 0.03822 0.55707 0.0
C2347 C 0.55579 0.01584 0.50329 0.0
C2348 C 0.61001 0.03855 0.51546 0.0
C2349 C 0.62959 0.04358 0.51108 0.0
C2350 C 0.63638 0.06064 0.50279 0.0
C2351 C 0.64168 0.03121 0.51545 0.0
C2352 C 0.6606 0.03581 0.51158 0.0
C2353 C 0.6551 0.0653 0.49887 0.0
C2354 C 0.66715 0.053 0.50321 0.0
C2355 C 0.54196 0.05534 0.49134 0.0
H2356 H 0.48675 0.0263 0.55105 0.0
H2357 H 0.47819 0.07735 0.52588 0.0
H2358 H 0.45508 0.02199 0.56232 0.0
H2359 H 0.43484 0.0451 0.55587 0.0
H2360 H 0.62725 0.07032 0.49935 0.0
H2361 H 0.63639 0.01818 0.52211 0.0
H2362 H 0.66027 0.07846 0.4924 0.0
H2363 H 0.68155 0.05682 0.49977 0.0
Gd2364 Gd 0.32957 0.29144 0.77938 0.0
Gd2365 Gd 0.28269 0.30184 0.76989 0.0
C2366 C 0.25776 0.29784 0.70661 0.0
C2367 C 0.25672 0.33291 0.70609 0.0
C2368 C 0.26823 0.32342 0.73609 0.0
C2369 C 0.26558 0.30359 0.72646 0.0
C2370 C 0.26323 0.33822 0.72626 0.0
C2371 C 0.254 0.31273 0.69626 0.0
C2372 C 0.25307 0.27722 0.6981 0.0
C2373 C 0.25525 0.26292 0.70968 0.0
N2374 N 0.26893 0.28961 0.7371 0.0
C2375 C 0.26294 0.2694 0.72935 0.0
H2376 H 0.26458 0.25809 0.73798 0.0
C2377 C 0.27379 0.34632 0.76668 0.0
N2378 N 0.2741 0.32782 0.75563 0.0
C2379 C 0.26903 0.36155 0.75761 0.0
C2380 C 0.26407 0.3576 0.73723 0.0
H2381 H 0.2778 0.34951 0.78242 0.0
H2382 H 0.24825 0.30866 0.68092 0.0
H2383 H 0.34764 0.33469 0.8119 0.0
H2384 H 0.24706 0.27217 0.68289 0.0
H2385 H 0.25112 0.24689 0.70346 0.0
H2386 H 0.25304 0.34411 0.69819 0.0
H2387 H 0.33434 0.2438 0.76588 0.0
H2388 H 0.36546 0.31952 0.86637 0.0
H2389 H 0.3612 0.34528 0.84646 0.0
H2390 H 0.3594 0.24762 0.84973 0.0
H2391 H 0.26927 0.37632 0.76634 0.0
H2392 H 0.26031 0.36939 0.73024 0.0
H2393 H 0.3643 0.28287 0.86759 0.0
H2394 H 0.34287 0.21658 0.78132 0.0
N2395 N 0.3434 0.30307 0.81218 0.0
C2396 C 0.3594 0.31474 0.85116 0.0
C2397 C 0.3571 0.32932 0.83995 0.0
C2398 C 0.3547 0.29421 0.84229 0.0
C2399 C 0.3468 0.28883 0.82246 0.0
C2400 C 0.34936 0.3232 0.82028 0.0
N2401 N 0.33805 0.26502 0.79299 0.0
C2402 C 0.34403 0.26909 0.81251 0.0
C2403 C 0.34313 0.23124 0.79031 0.0
C2404 C 0.34816 0.23481 0.81066 0.0
C2405 C 0.33834 0.24669 0.78161 0.0
C2406 C 0.34907 0.25406 0.82197 0.0
H2407 H 0.35196 0.22286 0.81736 0.0
O2408 O 0.3484 0.28243 0.75782 0.0
O2409 O 0.30776 0.29387 0.75671 0.0
O2410 O 0.28081 0.26794 0.77033 0.0
O2411 O 0.30849 0.26445 0.78647 0.0
O2412 O 0.32041 0.26938 0.75079 0.0
O2413 O 0.35647 0.31135 0.77755 0.0
O2414 O 0.26312 0.31169 0.79017 0.0
O2415 O 0.30456 0.29963 0.79256 0.0
O2416 O 0.33152 0.32539 0.77925 0.0
O2417 O 0.3039 0.32886 0.76299 0.0
O2418 O 0.29164 0.32389 0.79851 0.0
O2419 O 0.25657 0.28132 0.77305 0.0
C2420 C 0.30843 0.27841 0.74403 0.0
C2421 C 0.3557 0.25901 0.8421 0.0
C2422 C 0.35849 0.27908 0.85227 0.0
C2423 C 0.36164 0.29852 0.76389 0.0
C2424 C 0.38063 0.29495 0.76721 0.0
C2425 C 0.38568 0.2882 0.78439 0.0
C2426 C 0.39363 0.29765 0.75296 0.0
C2427 C 0.41141 0.29314 0.75575 0.0
C2428 C 0.40326 0.28386 0.78727 0.0
C2429 C 0.416 0.28619 0.77304 0.0
C2430 C 0.29072 0.25711 0.77911 0.0
C2431 C 0.30375 0.31503 0.80527 0.0
C2432 C 0.25058 0.29482 0.78525 0.0
C2433 C 0.23123 0.29676 0.78061 0.0
C2434 C 0.22584 0.30031 0.76194 0.0
C2435 C 0.21807 0.29519 0.79483 0.0
C2436 C 0.19963 0.29735 0.79037 0.0
C2437 C 0.20766 0.3023 0.7574 0.0
C2438 C 0.19466 0.30083 0.77143 0.0
C2439 C 0.32163 0.33622 0.77044 0.0
H2440 H 0.37603 0.28621 0.79557 0.0
H2441 H 0.38979 0.30281 0.73961 0.0
H2442 H 0.40701 0.2786 0.80056 0.0
H2443 H 0.42958 0.28274 0.77566 0.0
H2444 H 0.23565 0.30148 0.75082 0.0
H2445 H 0.22226 0.2926 0.80933 0.0
H2446 H 0.20361 0.30495 0.74289 0.0
H2447 H 0.18057 0.30217 0.76733 0.0
Gd2448 Gd 0.06226 0.02597 0.51341 0.0
Gd2449 Gd 0.05364 0.0718 0.5401 0.0
C2450 C 0.05481 0.08356 0.60726 0.0
C2451 C 0.02255 0.08495 0.6123 0.0
C2452 C 0.03234 0.07964 0.57892 0.0
C2453 C 0.05032 0.07986 0.58658 0.0
C2454 C 0.01844 0.0828 0.59179 0.0
C2455 C 0.0407 0.08535 0.62002 0.0
C2456 C 0.07355 0.08648 0.61455 0.0
C2457 C 0.08738 0.08684 0.60138 0.0
N2458 N 0.06381 0.07846 0.57394 0.0
C2459 C 0.08226 0.0832 0.58101 0.0
H2460 H 0.09311 0.08371 0.57102 0.0
C2461 C 0.01226 0.08091 0.55128 0.0
N2462 N 0.02881 0.07784 0.55901 0.0
C2463 C 0.99811 0.08403 0.56349 0.0
C2464 C 1.00106 0.08457 0.58377 0.0
H2465 H 0.00975 0.08087 0.53572 0.0
H2466 H 0.04385 0.08789 0.63592 0.0
H2467 H 0.02074 0.01231 0.48571 0.0
H2468 H 0.07757 0.08938 0.63033 0.0
H2469 H 0.10198 0.08986 0.60688 0.0
H2470 H 0.01197 0.08712 0.62238 0.0
H2471 H 0.10734 0.02308 0.51455 0.0
H2472 H 0.03086 1.0011 0.42475 0.0
H2473 H 0.00885 1.00306 0.45064 0.0
H2474 H 0.09714 1.00638 0.42715 0.0
H2475 H 0.98493 0.08606 0.55724 0.0
H2476 H 0.99007 0.08707 0.59319 0.0
H2477 H 0.06391 1.00262 0.41611 0.0
H2478 H 0.13089 0.01767 0.49118 0.0
N2479 N 0.04948 0.01642 0.4801 0.0
C2480 C 0.03622 1.00526 0.44021 0.0
C2481 C 0.02376 1.00629 0.45477 0.0
C2482 C 0.05541 1.0089 0.44581 0.0
C2483 C 0.06166 0.01433 0.46614 0.0
C2484 C 0.03064 0.0116 0.47474 0.0
N2485 N 0.08544 0.02038 0.49201 0.0
C2486 C 0.08026 0.01633 0.47231 0.0
C2487 C 0.11671 0.01732 0.48565 0.0
C2488 C 0.11175 0.01396 0.46531 0.0
C2489 C 0.10328 0.02034 0.49887 0.0
C2490 C 0.09327 0.01315 0.45839 0.0
H2491 H 0.12217 0.01159 0.4551 0.0
O2492 O 0.07206 1.00055 0.52173 0.0
O2493 O 0.06262 0.04332 0.54461 0.0
O2494 O 0.08432 0.07395 0.53569 0.0
O2495 O 0.08401 0.05164 0.50642 0.0
O2496 O 0.08505 0.03053 0.5385 0.0
O2497 O 0.04274 0.9973 0.51185 0.0
O2498 O 0.05841 0.09557 0.52251 0.0
O2499 O 0.05277 0.05415 0.50903 0.0
O2500 O 0.03181 0.02184 0.5199 0.0
O2501 O 0.02921 0.04803 0.54515 0.0
O2502 O 0.03053 0.06734 0.51535 0.0
O2503 O 0.0633 0.10335 0.5543 0.0
C2504 C 0.07781 0.04036 0.55256 0.0
C2505 C 0.08732 1.00871 0.43808 0.0
C2506 C 0.06842 1.00659 0.4318 0.0
C2507 C 0.0555 0.98861 0.51809 0.0
C2508 C 0.05436 0.96752 0.50915 0.0
C2509 C 0.0547 0.96103 0.48877 0.0
C2510 C 0.05228 0.95348 0.52173 0.0
C2511 C 0.05044 0.9328 0.51428 0.0
C2512 C 0.05278 0.94036 0.48114 0.0
C2513 C 0.05055 0.92624 0.4938 0.0
C2514 C 0.09208 0.06805 0.51945 0.0
C2515 C 0.0373 0.05676 0.50131 0.0
C2516 C 0.06208 0.11007 0.53791 0.0
C2517 C 0.05201 0.12638 0.5377 0.0
C2518 C 0.03827 0.12936 0.55066 0.0
C2519 C 0.05606 0.13894 0.52383 0.0
C2520 C 0.04622 0.1542 0.5224 0.0
C2521 C 0.02837 0.14446 0.54931 0.0
C2522 C 0.03223 0.15678 0.53521 0.0
C2523 C 0.0226 0.03004 0.53395 0.0
H2524 H 0.05627 0.97183 0.47886 0.0
H2525 H 0.05167 0.95871 0.53744 0.0
H2526 H 0.05295 0.93526 0.46539 0.0
H2527 H 0.0491 0.91031 0.48766 0.0
H2528 H 0.03516 0.12009 0.56179 0.0
H2529 H 0.06707 0.13688 0.51428 0.0
H2530 H 0.01766 0.14659 0.55919 0.0
H2531 H 0.02418 0.16821 0.53427 0.0
Gd2532 Gd 0.2828 0.77699 0.77501 0.0
Gd2533 Gd 0.32429 0.81129 0.76704 0.0
C2534 C 0.32246 0.87108 0.74724 0.0
C2535 C 0.33233 0.86529 0.71398 0.0
C2536 C 0.33041 0.83915 0.73405 0.0
C2537 C 0.32415 0.85138 0.74919 0.0
C2538 C 0.33492 0.84611 0.71642 0.0
C2539 C 0.32612 0.87776 0.72937 0.0
C2540 C 0.31784 0.88374 0.76354 0.0
C2541 C 0.31571 0.87693 0.78143 0.0
N2542 N 0.32106 0.84459 0.76636 0.0
C2543 C 0.31763 0.85731 0.78266 0.0
H2544 H 0.31591 0.85225 0.79658 0.0
C2545 C 0.3413 0.8093 0.72346 0.0
N2546 N 0.33305 0.82086 0.73702 0.0
C2547 C 0.34584 0.81547 0.70566 0.0
C2548 C 0.34243 0.83384 0.70201 0.0
H2549 H 0.34394 0.79504 0.72607 0.0
H2550 H 0.32471 0.89275 0.72752 0.0
H2551 H 0.2936 0.73537 0.74941 0.0
H2552 H 0.31639 0.89896 0.76264 0.0
H2553 H 0.31252 0.88674 0.79426 0.0
H2554 H 0.33557 0.87084 0.70047 0.0
H2555 H 0.25562 0.79162 0.81028 0.0
H2556 H 0.29251 0.69175 0.78704 0.0
H2557 H 0.29806 0.70203 0.75476 0.0
H2558 H 0.2658 0.72071 0.84399 0.0
H2559 H 0.35195 0.80603 0.69477 0.0
H2560 H 0.34606 0.83863 0.68825 0.0
H2561 H 0.28081 0.69908 0.82059 0.0
H2562 H 0.24397 0.78137 0.84058 0.0
N2563 N 0.28667 0.74451 0.77868 0.0
C2564 C 0.29072 0.70652 0.78483 0.0
C2565 C 0.29378 0.71222 0.76657 0.0
C2566 C 0.28437 0.7195 0.79961 0.0
C2567 C 0.28228 0.73857 0.79596 0.0
C2568 C 0.29133 0.73121 0.76363 0.0
N2569 N 0.27054 0.768 0.80407 0.0
C2570 C 0.27381 0.75066 0.80906 0.0
C2571 C 0.25254 0.77271 0.83198 0.0
C2572 C 0.25684 0.75565 0.83799 0.0
C2573 C 0.25933 0.77856 0.81477 0.0
C2574 C 0.26726 0.74413 0.82627 0.0
H2575 H 0.25148 0.75111 0.85127 0.0
O2576 O 0.25482 0.7807 0.76708 0.0
O2577 O 0.29309 0.80778 0.76658 0.0
O2578 O 0.31719 0.81738 0.79873 0.0
O2579 O 0.29776 0.78831 0.80525 0.0
O2580 O 0.27363 0.80613 0.78679 0.0
O2581 O 0.26307 0.75308 0.75487 0.0
O2582 O 0.35339 0.80919 0.76855 0.0
O2583 O 0.31431 0.78074 0.77595 0.0
O2584 O 0.29212 0.7698 0.74432 0.0
O2585 O 0.30653 0.80102 0.7382 0.0
O2586 O 0.33391 0.78233 0.75574 0.0
O2587 O 0.34466 0.83276 0.78868 0.0
C2588 C 0.28318 0.81832 0.77693 0.0
C2589 C 0.27052 0.72585 0.83071 0.0
C2590 C 0.27908 0.71355 0.81739 0.0
C2591 C 0.24929 0.76224 0.75734 0.0
C2592 C 0.23188 0.75073 0.76317 0.0
C2593 C 0.2321 0.73562 0.77451 0.0
C2594 C 0.21495 0.75607 0.75858 0.0
C2595 C 0.19827 0.74679 0.76563 0.0
C2596 C 0.21567 0.72633 0.78157 0.0
C2597 C 0.19888 0.73194 0.7773 0.0
C2598 C 0.30921 0.80618 0.8111 0.0
C2599 C 0.32465 0.77035 0.76601 0.0
C2600 C 0.35866 0.82536 0.78222 0.0
C2601 C 0.37542 0.83976 0.77884 0.0
C2602 C 0.37431 0.85587 0.7691 0.0
C2603 C 0.39294 0.8366 0.78476 0.0
C2604 C 0.40947 0.84925 0.78083 0.0
C2605 C 0.39064 0.86858 0.76518 0.0
C2606 C 0.40814 0.86531 0.77095 0.0
C2607 C 0.29814 0.78191 0.73197 0.0
H2608 H 0.24496 0.73114 0.77812 0.0
H2609 H 0.21487 0.76751 0.74952 0.0
H2610 H 0.21599 0.71489 0.79054 0.0
H2611 H 0.18645 0.72478 0.78336 0.0
H2612 H 0.36092 0.85859 0.76447 0.0
H2613 H 0.39363 0.8243 0.79257 0.0
H2614 H 0.38972 0.88093 0.75756 0.0
H2615 H 0.4206 0.87519 0.76749 0.0
Gd2616 Gd 0.54733 0.05768 0.99699 0.0
Gd2617 Gd 0.56345 0.04024 0.04198 0.0
C2618 C 0.62416 0.05674 0.06894 0.0
C2619 C 0.63277 0.02401 0.06352 0.0
C2620 C 0.60138 0.02668 0.05289 0.0
C2621 C 0.60607 0.04735 0.05979 0.0
C2622 C 0.61451 0.01467 0.05512 0.0
C2623 C 0.6376 0.04503 0.07037 0.0
C2624 C 0.62806 0.07752 0.07679 0.0
C2625 C 0.61389 0.08823 0.07603 0.0
N2626 N 0.59271 0.05818 0.05826 0.0
C2627 C 0.59612 0.0782 0.06694 0.0
H2628 H 0.58538 0.08675 0.06642 0.0
C2629 C 0.57766 0.99753 0.04005 0.0
N2630 N 0.58365 0.01816 0.04483 0.0
C2631 C 0.59018 0.98498 0.04193 0.0
C2632 C 0.60876 0.99359 0.04926 0.0
H2633 H 0.56332 0.99082 0.03434 0.0
H2634 H 0.65162 0.052 0.07717 0.0
H2635 H 0.53972 1.00758 0.97485 0.0
H2636 H 0.6418 0.08532 0.08385 0.0
H2637 H 0.61664 0.10423 0.08239 0.0
H2638 H 0.64312 0.01507 0.06516 0.0
H2639 H 0.53038 0.09983 1.00284 0.0
H2640 H 0.48271 0.988 0.95154 0.0
H2641 H 0.51406 0.98099 0.95718 0.0
H2642 H 0.45808 0.04758 0.96647 0.0
H2643 H 0.5855 0.96868 0.03772 0.0
H2644 H 0.61842 0.98383 0.05074 0.0
H2645 H 0.46191 0.01276 0.95544 0.0
H2646 H 0.50046 0.1098 0.99665 0.0
N2647 N 0.52373 0.0305 0.97913 0.0
C2648 C 0.4941 1.00004 0.95917 0.0
C2649 C 0.51177 0.99605 0.96228 0.0
C2650 C 0.49134 0.01952 0.96588 0.0
C2651 C 0.50662 0.03467 0.97582 0.0
C2652 C 0.52648 0.01146 0.97227 0.0
N2653 N 0.51922 0.06838 0.99192 0.0
C2654 C 0.50432 0.05416 0.98242 0.0
C2655 C 0.50129 0.09406 0.99273 0.0
C2656 C 0.48547 0.07935 0.98426 0.0
C2657 C 0.5182 0.08834 0.99618 0.0
C2658 C 0.4869 0.05917 0.97872 0.0
H2659 H 0.47236 0.08381 0.98162 0.0
O2660 O 0.55498 0.08435 0.9841 0.0
O2661 O 0.57065 0.05857 0.0189 0.0
O2662 O 0.55486 0.07035 0.04973 0.0
O2663 O 0.53454 0.07189 0.02305 0.0
O2664 O 0.5699 0.08559 0.01029 0.0
O2665 O 0.55525 0.05422 0.96663 0.0
O2666 O 0.54767 0.02041 0.05939 0.0
O2667 O 0.54013 0.04005 0.02042 0.0
O2668 O 0.56451 0.03395 0.98829 0.0
O2669 O 0.57741 0.02583 0.0171 0.0
O2670 O 0.54002 0.01302 0.02931 0.0
O2671 O 0.5586 0.05232 0.07198 0.0
C2672 C 0.57939 0.07667 0.02079 0.0
C2673 C 0.4716 0.04405 0.96923 0.0
C2674 C 0.4738 0.02425 0.96289 0.0
C2675 C 0.55787 0.07381 0.96738 0.0
C2676 C 0.56354 0.08374 0.95078 0.0
C2677 C 0.55965 0.10275 0.94968 0.0
C2678 C 0.57404 0.07501 0.93675 0.0
C2679 C 0.58123 0.08553 0.92211 0.0
C2680 C 0.56646 0.11303 0.93483 0.0
C2681 C 0.57738 0.10457 0.9212 0.0
C2682 C 0.5411 0.07716 0.04189 0.0
C2683 C 0.53091 0.02219 0.01869 0.0
C2684 C 0.55015 0.03461 0.07512 0.0
C2685 C 0.55608 0.02922 0.0937 0.0
C2686 C 0.57088 0.01933 0.09525 0.0
C2687 C 0.54642 0.03391 0.11015 0.0
C2688 C 0.55118 0.02847 0.12813 0.0
C2689 C 0.57575 0.01395 0.11317 0.0
C2690 C 0.56586 0.01836 0.12957 0.0
C2691 C 0.57518 0.02434 0.99766 0.0
H2692 H 0.55152 0.10974 0.9604 0.0
H2693 H 0.57739 0.06052 0.93776 0.0
H2694 H 0.56349 0.1277 0.93408 0.0
H2695 H 0.58282 0.11286 0.90993 0.0
H2696 H 0.57852 0.01559 0.08268 0.0
H2697 H 0.53486 0.04137 0.10882 0.0
H2698 H 0.58711 1.00625 0.11432 0.0
H2699 H 0.56971 0.01401 0.14335 0.0
Gd2700 Gd 0.28742 0.27438 0.26413 0.0
Gd2701 Gd 0.32582 0.32009 0.28433 0.0
C2702 C 0.38936 0.32692 0.28811 0.0
C2703 C 0.39703 0.32863 0.32321 0.0
C2704 C 0.36476 0.3249 0.31021 0.0
C2705 C 0.37022 0.32433 0.29131 0.0
C2706 C 0.37814 0.32756 0.32648 0.0
C2707 C 0.40265 0.32839 0.30405 0.0
C2708 C 0.39465 0.32906 0.26925 0.0
C2709 C 0.38107 0.32925 0.25436 0.0
N2710 N 0.35702 0.32307 0.27632 0.0
C2711 C 0.36226 0.32624 0.25817 0.0
H2712 H 0.35199 0.32638 0.24646 0.0
C2713 C 0.34095 0.32822 0.33154 0.0
N2714 N 0.34654 0.32453 0.31287 0.0
C2715 C 0.35362 0.33058 0.34813 0.0
C2716 C 0.37226 0.32995 0.34558 0.0
H2717 H 0.32655 0.3287 0.33361 0.0
H2718 H 0.41737 0.33009 0.30183 0.0
H2719 H 0.26191 0.27466 0.3032 0.0
H2720 H 0.40921 0.33124 0.26621 0.0
H2721 H 0.38506 0.3315 0.23985 0.0
H2722 H 0.4075 0.33047 0.33548 0.0
H2723 H 0.2864 0.262 0.21509 0.0
H2724 H 0.20437 0.2667 0.2829 0.0
H2725 H 0.22903 0.2712 0.31022 0.0
H2726 H 0.20505 0.25799 0.21244 0.0
H2727 H 0.349 0.33293 0.36285 0.0
H2728 H 0.3821 0.332 0.35846 0.0
H2729 H 0.19561 0.26246 0.24643 0.0
H2730 H 0.26357 0.25403 0.18567 0.0
N2731 N 0.25634 0.27283 0.27223 0.0
C2732 C 0.21886 0.26834 0.27973 0.0
C2733 C 0.23273 0.27081 0.29517 0.0
C2734 C 0.22383 0.26748 0.26033 0.0
C2735 C 0.2429 0.26957 0.25701 0.0
C2736 C 0.25144 0.27282 0.2911 0.0
N2737 N 0.26643 0.26753 0.23549 0.0
C2738 C 0.24816 0.26698 0.23799 0.0
C2739 C 0.25904 0.25775 0.20029 0.0
C2740 C 0.2403 0.25808 0.20259 0.0
C2741 C 0.27194 0.26227 0.21701 0.0
C2742 C 0.23457 0.26236 0.22162 0.0
H2743 H 0.2303 0.25443 0.18963 0.0
O2744 O 0.28941 0.24392 0.25117 0.0
O2745 O 0.31761 0.28809 0.2693 0.0
O2746 O 0.31886 0.31569 0.25099 0.0
O2747 O 0.28772 0.29744 0.24414 0.0
O2748 O 0.30926 0.26583 0.24427 0.0
O2749 O 0.28192 0.25058 0.2814 0.0
O2750 O 0.32478 0.35018 0.29948 0.0
O2751 O 0.29552 0.30681 0.27835 0.0
O2752 O 0.29458 0.27951 0.29745 0.0
O2753 O 0.32616 0.2957 0.3026 0.0
O2754 O 0.30388 0.32796 0.30425 0.0
O2755 O 0.33026 0.34503 0.26844 0.0
C2756 C 0.32338 0.27796 0.25489 0.0
C2757 C 0.21567 0.26135 0.22482 0.0
C2758 C 0.2103 0.26389 0.24416 0.0
C2759 C 0.28415 0.23671 0.26679 0.0
C2760 C 0.27024 0.21759 0.2634 0.0
C2761 C 0.25324 0.21451 0.25178 0.0
C2762 C 0.27462 0.20183 0.27169 0.0
C2763 C 0.26247 0.18271 0.26811 0.0
C2764 C 0.24093 0.19545 0.24825 0.0
C2765 C 0.24562 0.17945 0.25618 0.0
C2766 C 0.30266 0.30998 0.23969 0.0
C2767 C 0.28975 0.31658 0.29301 0.0
C2768 C 0.32895 0.35826 0.28403 0.0
C2769 C 0.34284 0.37738 0.2874 0.0
C2770 C 0.36067 0.37979 0.29714 0.0
C2771 C 0.33774 0.39373 0.28079 0.0
C2772 C 0.35012 0.41272 0.28398 0.0
C2773 C 0.37314 0.39873 0.30041 0.0
C2774 C 0.36786 0.41525 0.29402 0.0
C2775 C 0.31106 0.28438 0.30808 0.0
H2776 H 0.24964 0.22664 0.24527 0.0
H2777 H 0.28795 0.20425 0.28041 0.0
H2778 H 0.22789 0.19299 0.23913 0.0
H2779 H 0.23621 0.16464 0.25299 0.0
H2780 H 0.36482 0.36719 0.30232 0.0
H2781 H 0.32379 0.39175 0.27354 0.0
H2782 H 0.38686 0.40066 0.30803 0.0
H2783 H 0.37756 0.42988 0.29682 0.0
Gd2784 Gd 0.56109 0.52497 0.01026 0.0
Gd2785 Gd 0.55331 0.57157 0.03625 0.0
C2786 C 0.55964 0.58983 0.10375 0.0
C2787 C 0.52801 0.5922 0.11093 0.0
C2788 C 0.53523 0.58332 0.0769 0.0
C2789 C 0.55357 0.58429 0.08337 0.0
C2790 C 0.52231 0.5877 0.09057 0.0
C2791 C 0.54666 0.59326 0.11752 0.0
C2792 C 0.57868 0.59249 0.10962 0.0
C2793 C 0.59122 0.59046 0.09526 0.0
N2794 N 0.56577 0.5812 0.06965 0.0
C2795 C 0.58453 0.58511 0.07524 0.0
H2796 H 0.59446 0.58364 0.06439 0.0
C2797 C 0.51289 0.58042 0.04997 0.0
N2798 N 0.53029 0.57919 0.05713 0.0
C2799 C 0.49957 0.58465 0.06293 0.0
C2800 C 0.50421 0.58803 0.08333 0.0
H2801 H 0.50905 0.5778 0.03426 0.0
H2802 H 0.55101 0.59733 0.13324 0.0
H2803 H 0.51962 0.51215 0.98272 0.0
H2804 H 0.5839 0.59671 0.12512 0.0
H2805 H 0.60605 0.59297 0.09958 0.0
H2806 H 0.51825 0.59543 0.12167 0.0
H2807 H 0.60567 0.51993 0.01163 0.0
H2808 H 0.52954 0.49956 0.92173 0.0
H2809 H 0.50763 0.50265 0.94761 0.0
H2810 H 0.59546 0.50247 0.92422 0.0
H2811 H 0.48571 0.58524 0.05716 0.0
H2812 H 0.49388 0.59135 0.09334 0.0
H2813 H 0.56243 0.49979 0.91313 0.0
H2814 H 0.62894 0.5132 0.98832 0.0
N2815 N 0.54826 0.51532 0.97701 0.0
C2816 C 0.53493 0.50385 0.93718 0.0
C2817 C 0.52252 0.50552 0.95174 0.0
C2818 C 0.55408 0.50698 0.94278 0.0
C2819 C 0.56037 0.51259 0.9631 0.0
C2820 C 0.52943 0.51097 0.97169 0.0
N2821 N 0.58407 0.51813 0.98903 0.0
C2822 C 0.57887 0.51398 0.96931 0.0
C2823 C 0.61493 0.51347 0.98276 0.0
C2824 C 0.61001 0.51007 0.9624 0.0
C2825 C 0.60166 0.51727 0.99594 0.0
C2826 C 0.59172 0.50998 0.95543 0.0
H2827 H 0.6203 0.50706 0.95222 0.0
O2828 O 0.56958 0.50011 0.02116 0.0
O2829 O 0.56178 0.54303 0.04119 0.0
O2830 O 0.58361 0.57354 0.02981 0.0
O2831 O 0.58333 0.54925 1.00194 0.0
O2832 O 0.58416 0.53015 0.03511 0.0
O2833 O 0.54165 0.49589 0.00664 0.0
O2834 O 0.54546 0.59645 0.02475 0.0
O2835 O 0.55246 0.55336 1.00539 0.0
O2836 O 0.53088 0.52254 0.01743 0.0
O2837 O 0.53097 0.54755 0.04474 0.0
O2838 O 0.53006 0.5661 0.01148 0.0
O2839 O 0.5732 0.60033 0.03951 0.0
C2840 C 0.57711 0.54036 0.04908 0.0
C2841 C 0.58576 0.50541 0.93512 0.0
C2842 C 0.56696 0.50391 0.92881 0.0
C2843 C 0.55371 0.48754 0.01478 0.0
C2844 C 0.55472 0.46715 1.00533 0.0
C2845 C 0.55697 0.46201 0.98514 0.0
C2846 C 0.55347 0.45253 0.01723 0.0
C2847 C 0.55456 0.43265 0.00931 0.0
C2848 C 0.55785 0.44211 0.97702 0.0
C2849 C 0.5566 0.42742 0.98901 0.0
C2850 C 0.59143 0.56626 0.01409 0.0
C2851 C 0.53704 0.5558 0.99753 0.0
C2852 C 0.56148 0.6088 0.03099 0.0
C2853 C 0.56083 0.62944 0.04002 0.0
C2854 C 0.55775 0.63482 0.05995 0.0
C2855 C 0.56325 0.64403 0.02802 0.0
C2856 C 0.56247 0.66411 0.03559 0.0
C2857 C 0.55716 0.65487 0.06772 0.0
C2858 C 0.55953 0.66951 0.05564 0.0
C2859 C 0.5231 0.53013 0.03306 0.0
H2860 H 0.55799 0.47324 0.97575 0.0
H2861 H 0.55142 0.45668 0.03277 0.0
H2862 H 0.55955 0.43808 0.96143 0.0
H2863 H 0.55744 0.41214 0.98252 0.0
H2864 H 0.55583 0.62361 0.0694 0.0
H2865 H 0.56593 0.63969 0.0127 0.0
H2866 H 0.55479 0.65907 0.08311 0.0
H2867 H 0.5588 0.6849 0.06187 0.0
Gd2868 Gd 0.7853 0.27956 0.27703 0.0
Gd2869 Gd 0.82614 0.31459 0.26932 0.0
C2870 C 0.82445 0.37394 0.24843 0.0
C2871 C 0.8368 0.3687 0.21634 0.0
C2872 C 0.8338 0.34252 0.23645 0.0
C2873 C 0.82625 0.35437 0.25076 0.0
C2874 C 0.83953 0.34972 0.21926 0.0
C2875 C 0.82927 0.3808 0.23091 0.0
C2876 C 0.81867 0.38637 0.26412 0.0
C2877 C 0.81563 0.37953 0.28187 0.0
N2878 N 0.82209 0.34745 0.26766 0.0
C2879 C 0.81772 0.36006 0.28349 0.0
H2880 H 0.81539 0.35504 0.29734 0.0
C2881 C 0.8459 0.31324 0.22725 0.0
N2882 N 0.83647 0.32438 0.23987 0.0
C2883 C 0.85182 0.31973 0.20999 0.0
C2884 C 0.8484 0.33792 0.20583 0.0
H2885 H 0.84862 0.29913 0.2302 0.0
H2886 H 0.8278 0.3957 0.22877 0.0
H2887 H 0.79601 0.23916 0.24881 0.0
H2888 H 0.81711 0.40149 0.26292 0.0
H2889 H 0.81164 0.38921 0.2943 0.0
H2890 H 0.84096 0.37441 0.20315 0.0
H2891 H 0.76242 0.29456 0.31598 0.0
H2892 H 0.79472 0.19272 0.2832 0.0
H2893 H 0.79997 0.20504 0.2518 0.0
H2894 H 0.77093 0.21956 0.34308 0.0
H2895 H 0.85896 0.31066 0.19988 0.0
H2896 H 0.85304 0.34293 0.19247 0.0
H2897 H 0.78416 0.19843 0.31741 0.0
H2898 H 0.75224 0.28295 0.34633 0.0
N2899 N 0.78934 0.24665 0.27852 0.0
C2900 C 0.79306 0.20781 0.28202 0.0
C2901 C 0.79597 0.21467 0.26426 0.0
C2902 C 0.78728 0.22019 0.29775 0.0
C2903 C 0.78535 0.23972 0.29545 0.0
C2904 C 0.79374 0.23411 0.26266 0.0
N2905 N 0.77496 0.2696 0.30641 0.0
C2906 C 0.7778 0.25152 0.30982 0.0
C2907 C 0.75952 0.27401 0.33625 0.0
C2908 C 0.76316 0.25593 0.34043 0.0
C2909 C 0.76535 0.28056 0.31898 0.0
C2910 C 0.77214 0.24426 0.327 0.0
H2911 H 0.75857 0.25086 0.35378 0.0
O2912 O 0.75606 0.2809 0.27347 0.0
O2913 O 0.79477 0.31037 0.26836 0.0
O2914 O 0.81792 0.32074 0.30059 0.0
O2915 O 0.80164 0.29004 0.30666 0.0
O2916 O 0.77517 0.30827 0.28841 0.0
O2917 O 0.76614 0.25729 0.25489 0.0
O2918 O 0.85581 0.31488 0.27205 0.0
O2919 O 0.81668 0.28381 0.27795 0.0
O2920 O 0.79354 0.27349 0.24577 0.0
O2921 O 0.80949 0.30435 0.23984 0.0
O2922 O 0.83656 0.28595 0.25831 0.0
O2923 O 0.8446 0.33606 0.2926 0.0
C2924 C 0.78439 0.32054 0.2784 0.0
C2925 C 0.77502 0.22532 0.32989 0.0
C2926 C 0.78258 0.2133 0.31529 0.0
C2927 C 0.7516 0.26413 0.26048 0.0
C2928 C 0.73524 0.24935 0.26421 0.0
C2929 C 0.73695 0.23178 0.27136 0.0
C2930 C 0.71754 0.25344 0.26117 0.0
C2931 C 0.70146 0.24025 0.26528 0.0
C2932 C 0.72103 0.21856 0.27549 0.0
C2933 C 0.70334 0.22272 0.27245 0.0
C2934 C 0.81155 0.30863 0.31285 0.0
C2935 C 0.82717 0.27361 0.26813 0.0
C2936 C 0.85958 0.3308 0.28615 0.0
C2937 C 0.87515 0.34712 0.28351 0.0
C2938 C 0.87228 0.36549 0.27891 0.0
C2939 C 0.89334 0.34403 0.28547 0.0
C2940 C 0.90872 0.3591 0.28299 0.0
C2941 C 0.88752 0.38051 0.27627 0.0
C2942 C 0.9057 0.37741 0.27839 0.0
C2943 C 0.79963 0.28576 0.23355 0.0
H2944 H 0.75048 0.22826 0.27375 0.0
H2945 H 0.71632 0.26687 0.25533 0.0
H2946 H 0.7224 0.20507 0.28105 0.0
H2947 H 0.69117 0.21232 0.27581 0.0
H2948 H 0.85839 0.36834 0.27747 0.0
H2949 H 0.89551 0.32997 0.28938 0.0
H2950 H 0.88524 0.39463 0.27272 0.0
H2951 H 0.91736 0.38926 0.27641 0.0
Gd2952 Gd 0.0453 0.54255 0.50318 0.0
Gd2953 Gd 0.0689 0.539 0.55156 0.0
C2954 C 0.13183 0.55547 0.56957 0.0
C2955 C 0.13871 0.52247 0.57049 0.0
C2956 C 0.10688 0.52532 0.56209 0.0
C2957 C 0.11285 0.54604 0.56395 0.0
C2958 C 0.11966 0.5133 0.56569 0.0
C2959 C 0.14479 0.54353 0.57242 0.0
C2960 C 0.13712 0.57664 0.57263 0.0
C2961 C 0.12351 0.58785 0.57064 0.0
N2962 N 0.09993 0.55709 0.56115 0.0
C2963 C 0.10486 0.57779 0.56507 0.0
H2964 H 0.09453 0.58666 0.56348 0.0
C2965 C 0.08149 0.49692 0.55759 0.0
N2966 N 0.08838 0.51702 0.55759 0.0
C2967 C 0.09362 0.48433 0.56095 0.0
C2968 C 0.11282 0.49252 0.56482 0.0
H2969 H 0.06669 0.49045 0.55448 0.0
H2970 H 0.15947 0.55047 0.57653 0.0
H2971 H 0.02094 0.49434 0.49192 0.0
H2972 H 0.15156 0.58446 0.5769 0.0
H2973 H 0.12738 0.60425 0.57328 0.0
H2974 H 0.14879 0.51347 0.57315 0.0
H2975 H 0.04577 0.5905 0.49941 0.0
H2976 H 0.96307 0.49444 0.48061 0.0
H2977 H 0.98822 0.4757 0.48327 0.0
H2978 H 0.96339 0.56495 0.48443 0.0
H2979 H 0.08815 0.46834 0.56053 0.0
H2980 H 0.12219 0.48275 0.56748 0.0
H2981 H 0.95388 0.52789 0.48141 0.0
H2982 H 0.02317 0.61173 0.4942 0.0
N2983 N 0.01448 0.52348 0.49458 0.0
C2984 C 0.97745 0.50273 0.48438 0.0
C2985 C 0.9916 0.4921 0.48584 0.0
C2986 C 0.98208 0.52392 0.48732 0.0
C2987 C 1.001 0.53396 0.49229 0.0
C2988 C 0.01017 0.50276 0.49076 0.0
N2989 N 0.02476 0.56358 0.49763 0.0
C2990 C 1.00631 0.55473 0.49396 0.0
C2991 C 0.01823 0.59573 0.49417 0.0
C2992 C 0.99908 0.58699 0.49126 0.0
C2993 C 0.03098 0.58367 0.49705 0.0
C2994 C 0.99291 0.56618 0.49079 0.0
H2995 H 0.98923 0.59633 0.48893 0.0
O2996 O 0.05715 0.55403 0.47816 0.0
O2997 O 0.07144 0.54818 0.52243 0.0
O2998 O 0.0623 0.56978 0.55088 0.0
O2999 O 0.03666 0.56402 0.52736 0.0
O3000 O 0.06985 0.56929 0.50474 0.0
O3001 O 0.04581 0.52171 0.4759 0.0
O3002 O 0.05572 0.52796 0.57612 0.0
O3003 O 0.04278 0.53365 0.53232 0.0
O3004 O 0.05307 0.51223 0.50375 0.0
O3005 O 0.07858 0.51837 0.52744 0.0
O3006 O 0.04428 0.51222 0.54948 0.0
O3007 O 0.06852 0.56003 0.57879 0.0
C3008 C 0.08036 0.56404 0.51759 0.0
C3009 C 0.97393 0.5564 0.48673 0.0
C3010 C 0.96852 0.5353 0.485 0.0
C3011 C 0.053 0.5362 0.46672 0.0
C3012 C 0.04426 0.5353 0.44698 0.0
C3013 C 0.02582 0.53753 0.4439 0.0
C3014 C 0.0549 0.53255 0.43095 0.0
C3015 C 0.04732 0.53204 0.41171 0.0
C3016 C 0.01815 0.53707 0.42477 0.0
C3017 C 0.02886 0.53441 0.4087 0.0
C3018 C 0.04732 0.5748 0.54325 0.0
C3019 C 0.03376 0.51769 0.53683 0.0
C3020 C 0.06015 0.54575 0.58761 0.0
C3021 C 0.06754 0.54618 0.60777 0.0
C3022 C 0.08537 0.54278 0.61212 0.0
C3023 C 0.05601 0.54945 0.62289 0.0
C3024 C 0.06204 0.54934 0.64251 0.0
C3025 C 0.0915 0.54259 0.63165 0.0
C3026 C 0.07987 0.54576 0.64682 0.0
C3027 C 0.06857 0.50791 0.51102 0.0
H3028 H 0.01744 0.5397 0.4562 0.0
H3029 H 0.06928 0.53123 0.43356 0.0
H3030 H 1.00393 0.53883 0.4224 0.0
H3031 H 0.0227 0.53406 0.39396 0.0
H3032 H 0.09441 0.54014 0.60048 0.0
H3033 H 0.04208 0.55163 0.61925 0.0
H3034 H 0.10524 0.5399 0.63502 0.0
H3035 H 0.08484 0.54558 0.66187 0.0
Gd3036 Gd 0.82878 0.79153 0.27947 0.0
Gd3037 Gd 0.78206 0.80149 0.268 0.0
C3038 C 0.75821 0.79573 0.20391 0.0
C3039 C 0.7566 0.83046 0.20247 0.0
C3040 C 0.76781 0.82189 0.23309 0.0
C3041 C 0.76557 0.80198 0.2239 0.0
C3042 C 0.76274 0.83627 0.22271 0.0
C3043 C 0.75437 0.8102 0.19306 0.0
C3044 C 0.75411 0.77503 0.19573 0.0
C3045 C 0.75645 0.76113 0.20772 0.0
N3046 N 0.76902 0.78842 0.23501 0.0
C3047 C 0.76361 0.76809 0.22751 0.0
H3048 H 0.76534 0.75704 0.23641 0.0
C3049 C 0.77265 0.84537 0.26326 0.0
N3050 N 0.77335 0.82678 0.2527 0.0
C3051 C 0.7678 0.8602 0.25365 0.0
C3052 C 0.76317 0.85575 0.2332 0.0
H3053 H 0.7764 0.84895 0.27906 0.0
H3054 H 0.74896 0.80574 0.17763 0.0
H3055 H 0.8464 0.83559 0.31123 0.0
H3056 H 0.7485 0.7696 0.18043 0.0
H3057 H 0.7528 0.74503 0.20172 0.0
H3058 H 0.75288 0.84134 0.19415 0.0
H3059 H 0.83393 0.74386 0.26782 0.0
H3060 H 0.86291 0.82218 0.36695 0.0
H3061 H 0.85921 0.84715 0.34591 0.0
H3062 H 0.85717 0.75024 0.35259 0.0
H3063 H 0.76772 0.87506 0.26201 0.0
H3064 H 0.75934 0.86723 0.22579 0.0
H3065 H 0.86168 0.78581 0.36944 0.0
H3066 H 0.84216 0.71733 0.28453 0.0
N3067 N 0.842 0.80413 0.31245 0.0
C3068 C 0.85718 0.81695 0.35167 0.0
C3069 C 0.85518 0.83109 0.33982 0.0
C3070 C 0.85263 0.79628 0.34335 0.0
C3071 C 0.84515 0.79031 0.32339 0.0
C3072 C 0.84786 0.82439 0.32005 0.0
N3073 N 0.83708 0.76579 0.29438 0.0
C3074 C 0.84261 0.77041 0.314 0.0
C3075 C 0.84222 0.73216 0.29304 0.0
C3076 C 0.8468 0.73633 0.31349 0.0
C3077 C 0.83762 0.74723 0.28362 0.0
C3078 C 0.84744 0.75578 0.32418 0.0
H3079 H 0.85045 0.72467 0.32075 0.0
O3080 O 0.84858 0.78165 0.25954 0.0
O3081 O 0.80759 0.79351 0.25581 0.0
O3082 O 0.78021 0.76774 0.26897 0.0
O3083 O 0.80741 0.7645 0.28619 0.0
O3084 O 0.82039 0.76903 0.25117 0.0
O3085 O 0.85516 0.81191 0.27684 0.0
O3086 O 0.76178 0.81153 0.28722 0.0
O3087 O 0.80334 0.79973 0.2915 0.0
O3088 O 0.83082 0.82535 0.27873 0.0
O3089 O 0.80347 0.829 0.26206 0.0
O3090 O 0.79021 0.82392 0.29648 0.0
O3091 O 0.75624 0.78066 0.27148 0.0
C3092 C 0.80868 0.77785 0.24359 0.0
C3093 C 0.85362 0.76132 0.34443 0.0
C3094 C 0.85619 0.78156 0.35402 0.0
C3095 C 0.86116 0.79846 0.2646 0.0
C3096 C 0.88045 0.79644 0.26925 0.0
C3097 C 0.88538 0.79108 0.28723 0.0
C3098 C 0.8941 0.80001 0.25582 0.0
C3099 C 0.91268 0.79846 0.26052 0.0
C3100 C 0.90361 0.78926 0.29184 0.0
C3101 C 0.91716 0.79293 0.27865 0.0
C3102 C 0.78985 0.757 0.27823 0.0
C3103 C 0.80215 0.81524 0.30385 0.0
C3104 C 0.74974 0.79426 0.28297 0.0
C3105 C 0.73014 0.79509 0.27795 0.0
C3106 C 0.72472 0.79867 0.25929 0.0
C3107 C 0.71665 0.79191 0.29164 0.0
C3108 C 0.69774 0.7919 0.28646 0.0
C3109 C 0.70614 0.79893 0.2542 0.0
C3110 C 0.69274 0.79551 0.2676 0.0
C3111 C 0.82114 0.8363 0.26984 0.0
H3112 H 0.87516 0.78836 0.29774 0.0
H3113 H 0.89036 0.80434 0.24198 0.0
H3114 H 0.90726 0.78503 0.30573 0.0
H3115 H 0.93116 0.79124 0.2826 0.0
H3116 H 0.73483 0.80112 0.24861 0.0
H3117 H 0.72076 0.78901 0.30604 0.0
H3118 H 0.70209 0.80172 0.23976 0.0
H3119 H 0.67841 0.79587 0.26326 0.0
Gd3120 Gd 0.80088 0.31476 0.79523 0.0
Gd3121 Gd 0.81249 0.28048 0.75235 0.0
C3122 C 0.77474 0.21735 0.72734 0.0
C3123 C 0.79609 0.19519 0.73038 0.0
C3124 C 0.80621 0.23163 0.74263 0.0
C3125 C 0.78892 0.23437 0.73634 0.0
C3126 C 0.81 0.21197 0.73964 0.0
C3127 C 0.7785 0.19788 0.72419 0.0
C3128 C 0.75693 0.22021 0.7224 0.0
C3129 C 0.75329 0.2394 0.72739 0.0
N3130 N 0.78563 0.25341 0.73996 0.0
C3131 C 0.76763 0.25568 0.73655 0.0
H3132 H 0.76345 0.2695 0.74173 0.0
C3133 C 0.83711 0.24594 0.75646 0.0
N3134 N 0.81933 0.24809 0.75175 0.0
C3135 C 0.84145 0.22685 0.75405 0.0
C3136 C 0.82777 0.20973 0.74578 0.0
H3137 H 0.84831 0.25899 0.76187 0.0
H3138 H 0.76777 0.18474 0.71735 0.0
H3139 H 0.84955 0.3225 0.80449 0.0
H3140 H 0.7457 0.20755 0.71559 0.0
H3141 H 0.73926 0.24163 0.72469 0.0
H3142 H 0.79876 0.18005 0.72802 0.0
H3143 H 0.7674 0.33864 0.78084 0.0
H3144 H 0.87044 0.38458 0.82931 0.0
H3145 H 0.87502 0.34961 0.82098 0.0
H3146 H 0.82018 0.41541 0.81442 0.0
H3147 H 0.85548 0.22543 0.75823 0.0
H3148 H 0.83119 0.19493 0.74376 0.0
H3149 H 0.84996 0.40893 0.82667 0.0
H3150 H 0.76303 0.3729 0.78191 0.0
N3151 N 0.82882 0.34042 0.80578 0.0
C3152 C 0.85873 0.37238 0.8227 0.0
C3153 C 0.86134 0.35269 0.81811 0.0
C3154 C 0.84138 0.3763 0.81749 0.0
C3155 C 0.82656 0.35986 0.80876 0.0
C3156 C 0.84637 0.33698 0.80926 0.0
N3157 N 0.7962 0.34753 0.79249 0.0
C3158 C 0.80987 0.36353 0.80163 0.0
C3159 C 0.77641 0.37055 0.78722 0.0
C3160 C 0.79059 0.38703 0.79587 0.0
C3161 C 0.77927 0.35091 0.7861 0.0
C3162 C 0.80745 0.38368 0.80347 0.0
H3163 H 0.78825 0.40225 0.79695 0.0
O3164 O 0.77324 0.31546 0.80436 0.0
O3165 O 0.79346 0.28463 0.77548 0.0
O3166 O 0.79006 0.29371 0.73883 0.0
O3167 O 0.78157 0.31285 0.76729 0.0
O3168 O 0.79143 0.28485 0.80544 0.0
O3169 O 0.79734 0.32386 0.82634 0.0
O3170 O 0.8416 0.28613 0.74666 0.0
O3171 O 0.82 0.31103 0.7719 0.0
O3172 O 0.82195 0.3003 0.8089 0.0
O3173 O 0.8289 0.27843 0.78139 0.0
O3174 O 0.81781 0.3099 0.74125 0.0
O3175 O 0.81996 0.27298 0.7223 0.0
C3176 C 0.78907 0.27369 0.7881 0.0
C3177 C 0.82187 0.39991 0.81284 0.0
C3178 C 0.83877 0.39621 0.81991 0.0
C3179 C 0.77911 0.32061 0.82311 0.0
C3180 C 0.76768 0.30943 0.83619 0.0
C3181 C 0.74953 0.31241 0.83855 0.0
C3182 C 0.77421 0.29529 0.84562 0.0
C3183 C 0.76256 0.28398 0.85716 0.0
C3184 C 0.73795 0.30133 0.85011 0.0
C3185 C 0.74438 0.28716 0.85935 0.0
C3186 C 0.77959 0.30557 0.7479 0.0
C3187 C 0.82199 0.32145 0.7584 0.0
C3188 C 0.83786 0.28023 0.72756 0.0
C3189 C 0.84846 0.29371 0.7157 0.0
C3190 C 0.86799 0.29627 0.71664 0.0
C3191 C 0.83966 0.30512 0.70471 0.0
C3192 C 0.85035 0.31949 0.69523 0.0
C3193 C 0.87865 0.31034 0.70698 0.0
C3194 C 0.86992 0.32203 0.69644 0.0
C3195 C 0.83113 0.28668 0.80067 0.0
H3196 H 0.74427 0.32323 0.83131 0.0
H3197 H 0.78818 0.29282 0.84371 0.0
H3198 H 0.72396 0.30372 0.85189 0.0
H3199 H 0.7352 0.2789 0.86843 0.0
H3200 H 0.87502 0.28761 0.72513 0.0
H3201 H 0.82459 0.30331 0.70398 0.0
H3202 H 0.89372 0.31231 0.70783 0.0
H3203 H 0.87841 0.33288 0.68905 0.0
Gd3204 Gd 0.78414 0.77718 0.76284 0.0
Gd3205 Gd 0.82734 0.81545 0.78121 0.0
C3206 C 0.88469 0.80011 0.78673 0.0
C3207 C 0.89192 0.80618 0.82236 0.0
C3208 C 0.86247 0.8114 0.80848 0.0
C3209 C 0.8671 0.80497 0.7895 0.0
C3210 C 0.87514 0.81267 0.82506 0.0
C3211 C 0.89671 0.79997 0.80323 0.0
C3212 C 0.89022 0.79683 0.76753 0.0
C3213 C 0.87863 0.79914 0.75175 0.0
N3214 N 0.85536 0.80557 0.77377 0.0
C3215 C 0.86121 0.80362 0.75515 0.0
H3216 H 0.85257 0.80558 0.7428 0.0
C3217 C 0.84307 0.82805 0.82869 0.0
N3218 N 0.84636 0.81811 0.81064 0.0
C3219 C 0.85516 0.8295 0.84552 0.0
C3220 C 0.87107 0.82142 0.84376 0.0
H3221 H 0.83103 0.8347 0.83034 0.0
H3222 H 0.91012 0.79595 0.80135 0.0
H3223 H 0.77873 0.78537 0.81463 0.0
H3224 H 0.90372 0.79336 0.76483 0.0
H3225 H 0.88309 0.79738 0.73693 0.0
H3226 H 0.90169 0.8068 0.83494 0.0
H3227 H 0.76293 0.78691 0.72231 0.0
H3228 H 0.72107 0.76788 0.82161 0.0
H3229 H 0.75401 0.77743 0.8356 0.0
H3230 H 0.69187 0.76827 0.75828 0.0
H3231 H 0.85223 0.83695 0.85982 0.0
H3232 H 0.88049 0.82272 0.85682 0.0
H3233 H 0.69805 0.76477 0.79276 0.0
H3234 H 0.73143 0.78527 0.70787 0.0
N3235 N 0.76128 0.77624 0.78715 0.0
C3236 C 0.73215 0.77017 0.81187 0.0
C3237 C 0.75068 0.77545 0.81978 0.0
C3238 C 0.72813 0.7697 0.79177 0.0
C3239 C 0.74312 0.77296 0.77971 0.0
C3240 C 0.76497 0.77908 0.80737 0.0
N3241 N 0.75445 0.78039 0.75008 0.0
C3242 C 0.73963 0.77532 0.76054 0.0
C3243 C 0.7335 0.78259 0.72278 0.0
C3244 C 0.71819 0.77754 0.73347 0.0
C3245 C 0.75152 0.78381 0.73127 0.0
C3246 C 0.72112 0.77395 0.75262 0.0
H3247 H 0.70422 0.77661 0.72687 0.0
O3248 O 0.78451 0.76548 0.73164 0.0
O3249 O 0.81508 0.78604 0.76147 0.0
O3250 O 0.8219 0.81049 0.74796 0.0
O3251 O 0.78963 0.80297 0.74546 0.0
O3252 O 0.80429 0.75692 0.76596 0.0
O3253 O 0.7695 0.74627 0.75004 0.0
O3254 O 0.82292 0.84503 0.77779 0.0
O3255 O 0.79646 0.80888 0.77628 0.0
O3256 O 0.79485 0.76934 0.79145 0.0
O3257 O 0.82246 0.7942 0.80342 0.0
O3258 O 0.80826 0.8274 0.80293 0.0
O3259 O 0.85088 0.84003 0.77924 0.0
C3260 C 0.81925 0.76944 0.76322 0.0
C3261 C 0.70615 0.76949 0.76416 0.0
C3262 C 0.70965 0.76738 0.78373 0.0
C3263 C 0.77567 0.74727 0.73269 0.0
C3264 C 0.78472 0.73115 0.72366 0.0
C3265 C 0.78808 0.72935 0.70362 0.0
C3266 C 0.79228 0.71943 0.73535 0.0
C3267 C 0.80429 0.70724 0.72762 0.0
C3268 C 0.79939 0.71653 0.6956 0.0
C3269 C 0.80775 0.70576 0.70761 0.0
C3270 C 0.80567 0.81007 0.73847 0.0
C3271 C 0.79285 0.81887 0.7921 0.0
C3272 C 0.84063 0.85333 0.77953 0.0
C3273 C 0.84658 0.87243 0.79396 0.0
C3274 C 0.86242 0.87644 0.80767 0.0
C3275 C 0.83575 0.88693 0.79408 0.0
C3276 C 0.84024 0.90516 0.80782 0.0
C3277 C 0.86724 0.89488 0.82115 0.0
C3278 C 0.85623 0.90929 0.82121 0.0
C3279 C 0.80949 0.77785 0.80478 0.0
H3280 H 0.78243 0.73835 0.69435 0.0
H3281 H 0.78977 0.72069 0.75083 0.0
H3282 H 0.80212 0.71539 0.6802 0.0
H3283 H 0.81691 0.69633 0.7013 0.0
H3284 H 0.87103 0.86543 0.808 0.0
H3285 H 0.82368 0.88399 0.78332 0.0
H3286 H 0.87948 0.89796 0.83162 0.0
H3287 H 0.86002 0.92342 0.8318 0.0
Gd3288 Gd 0.57596 0.5646 0.53486 0.0
Gd3289 Gd 0.53395 0.5277 0.51216 0.0
C3290 C 0.52686 0.45924 0.50873 0.0
C3291 C 0.52583 0.44697 0.47335 0.0
C3292 C 0.52922 0.48295 0.48626 0.0
C3293 C 0.52934 0.47929 0.50532 0.0
C3294 C 0.52694 0.46678 0.46999 0.0
C3295 C 0.52576 0.44319 0.4927 0.0
C3296 C 0.52465 0.45581 0.52799 0.0
C3297 C 0.52412 0.47202 0.54307 0.0
N3298 N 0.53011 0.49513 0.52039 0.0
C3299 C 0.52654 0.4916 0.53893 0.0
H3300 H 0.52603 0.50382 0.55083 0.0
C3301 C 0.5267 0.50601 0.46497 0.0
N3302 N 0.52976 0.50214 0.48359 0.0
C3303 C 0.52461 0.49054 0.44836 0.0
C3304 C 0.52502 0.47088 0.45086 0.0
H3305 H 0.52646 0.52122 0.46292 0.0
H3306 H 0.52413 0.42774 0.49506 0.0
H3307 H 0.58345 0.59107 0.49806 0.0
H3308 H 0.52272 0.44065 0.53123 0.0
H3309 H 0.52188 0.46948 0.55793 0.0
H3310 H 0.52429 0.43437 0.46105 0.0
H3311 H 0.58492 0.56801 0.58381 0.0
H3312 H 0.58774 0.65377 0.52161 0.0
H3313 H 0.58773 0.62629 0.4932 0.0
H3314 H 0.58798 0.65569 0.59145 0.0
H3315 H 0.52268 0.49381 0.43366 0.0
H3316 H 0.52325 0.45888 0.43798 0.0
H3317 H 0.58735 0.66455 0.55831 0.0
H3318 H 0.58963 0.5938 0.61432 0.0
N3319 N 0.58025 0.59807 0.5289 0.0
C3320 C 0.58579 0.63826 0.52385 0.0
C3321 C 0.58586 0.62281 0.5078 0.0
C3322 C 0.58406 0.63359 0.54275 0.0
C3323 C 0.58154 0.61312 0.54484 0.0
C3324 C 0.58337 0.60277 0.51067 0.0
N3325 N 0.5813 0.58858 0.56473 0.0
C3326 C 0.58206 0.60819 0.5634 0.0
C3327 C 0.58739 0.59805 0.60011 0.0
C3328 C 0.58714 0.61811 0.59902 0.0
C3329 C 0.58472 0.58346 0.58272 0.0
C3330 C 0.58485 0.6235 0.58049 0.0
H3331 H 0.58933 0.62942 0.6125 0.0
O3332 O 0.6011 0.55756 0.54713 0.0
O3333 O 0.56241 0.53147 0.52662 0.0
O3334 O 0.53222 0.53775 0.54603 0.0
O3335 O 0.55357 0.56859 0.5565 0.0
O3336 O 0.57663 0.54154 0.55442 0.0
O3337 O 0.60195 0.5718 0.52129 0.0
O3338 O 0.50751 0.52784 0.4964 0.0
O3339 O 0.54763 0.56057 0.51982 0.0
O3340 O 0.57741 0.55592 0.50095 0.0
O3341 O 0.55675 0.52472 0.49057 0.0
O3342 O 0.53243 0.5507 0.49257 0.0
O3343 O 0.50888 0.52589 0.52752 0.0
C3344 C 0.56727 0.5258 0.54235 0.0
C3345 C 0.58606 0.64374 0.57851 0.0
C3346 C 0.58568 0.64879 0.55964 0.0
C3347 C 0.61137 0.56515 0.53427 0.0
C3348 C 0.62993 0.57721 0.5419 0.0
C3349 C 0.63307 0.59747 0.5516 0.0
C3350 C 0.6448 0.56752 0.5399 0.0
C3351 C 0.66293 0.57758 0.54793 0.0
C3352 C 0.65122 0.60786 0.55922 0.0
C3353 C 0.66614 0.59798 0.55745 0.0
C3354 C 0.53897 0.55459 0.55956 0.0
C3355 C 0.54228 0.56635 0.50436 0.0
C3356 C 0.49818 0.52539 0.51168 0.0
C3357 C 0.4807 0.50996 0.50829 0.0
C3358 C 0.48039 0.48931 0.50741 0.0
C3359 C 0.4639 0.51635 0.50713 0.0
C3360 C 0.44677 0.50238 0.5056 0.0
C3361 C 0.46332 0.47529 0.50579 0.0
C3362 C 0.44649 0.48181 0.5051 0.0
C3363 C 0.57105 0.53904 0.48746 0.0
H3364 H 0.62158 0.60512 0.55332 0.0
H3365 H 0.64214 0.55193 0.53207 0.0
H3366 H 0.6537 0.62351 0.56672 0.0
H3367 H 0.68002 0.60613 0.5638 0.0
H3368 H 0.49323 0.48406 0.50827 0.0
H3369 H 0.46417 0.53236 0.50805 0.0
H3370 H 0.46313 0.4594 0.50529 0.0
H3371 H 0.43334 0.47087 0.50407 0.0
Gd3372 Gd 0.03615 0.54148 0.03439 0.0
Gd3373 Gd 0.08097 0.55255 0.01213 0.0
C3374 C 0.11252 0.61634 0.00832 0.0
C3375 C 0.11064 0.61539 0.97281 0.0
C3376 C 0.09665 0.58558 0.98592 0.0
C3377 C 0.10226 0.59608 1.00498 0.0
C3378 C 0.10114 0.59495 0.96958 0.0
C3379 C 0.11629 0.62608 0.99216 0.0
C3380 C 0.11921 0.62596 0.02775 0.0
C3381 C 0.11628 0.6151 0.04311 0.0
N3382 N 0.09865 0.58609 0.02019 0.0
C3383 C 0.1062 0.59496 0.03898 0.0
H3384 H 0.10406 0.58675 0.051 0.0
C3385 C 0.08376 0.55417 0.9648 0.0
N3386 N 0.08766 0.56583 0.98335 0.0
C3387 C 0.08792 0.56277 0.94812 0.0
C3388 C 0.09644 0.58332 0.9505 0.0
H3389 H 0.07713 0.53829 0.96277 0.0
H3390 H 0.12401 0.6417 0.99444 0.0
H3391 H 0.01251 0.5086 0.99475 0.0
H3392 H 0.12709 0.64153 0.03096 0.0
H3393 H 0.12177 0.62223 0.05813 0.0
H3394 H 0.11408 0.62292 0.96045 0.0
H3395 H 0.04067 0.55388 0.08382 0.0
H3396 H 0.98901 0.45297 0.013 0.0
H3397 H 0.99438 0.47336 0.98666 0.0
H3398 H 1.00297 0.46885 0.08348 0.0
H3399 H 0.08452 0.55355 0.93344 0.0
H3400 H 0.09969 0.58994 0.93756 0.0
H3401 H 0.99244 0.45137 0.04918 0.0
H3402 H 0.03361 0.53738 0.11252 0.0
N3403 N 0.018 0.50818 0.02535 0.0
C3404 C 0.99704 0.46847 0.01665 0.0
C3405 C 1.0 0.47994 1.00176 0.0
C3406 C 1.00396 0.47737 0.03619 0.0
C3407 C 0.01441 0.49757 0.04013 0.0
C3408 C 0.01032 0.49997 0.00645 0.0
N3409 N 0.02954 0.52705 0.06252 0.0
C3410 C 0.02035 0.50733 0.05935 0.0
C3411 C 0.02988 0.52872 0.09764 0.0
C3412 C 0.02113 0.50819 0.09461 0.0
C3413 C 0.03383 0.53803 0.08134 0.0
C3414 C 0.01602 0.49728 0.07529 0.0
H3415 H 0.01803 0.50103 0.10727 0.0
O3416 O 0.02065 0.56273 0.04868 0.0
O3417 O 0.0593 0.56554 0.02806 0.0
O3418 O 0.08407 0.5524 0.04496 0.0
O3419 O 0.05744 0.53061 0.05192 0.0
O3420 O 0.04936 0.57066 0.05551 0.0
O3421 O 0.00926 0.54311 0.02071 0.0
O3422 O 0.09646 0.53059 0.99932 0.0
O3423 O 0.05775 0.5287 0.01845 0.0
O3424 O 0.03294 0.54214 1.00163 0.0
O3425 O 0.05992 0.56308 0.99407 0.0
O3426 O 0.06793 0.52297 0.9913 0.0
O3427 O 0.1083 0.55235 0.02588 0.0
C3428 C 0.06093 0.57836 0.04399 0.0
C3429 C 1.0063 0.4769 0.07144 0.0
C3430 C 1.0003 0.46695 0.05192 0.0
C3431 C 1.00654 0.55686 0.03515 0.0
C3432 C 0.9879 0.55378 0.04235 0.0
C3433 C 0.9825 0.53966 0.05461 0.0
C3434 C 0.97563 0.5658 0.03754 0.0
C3435 C 0.95819 0.56413 0.04536 0.0
C3436 C 0.9651 0.53781 0.06226 0.0
C3437 C 0.95304 0.55007 0.05782 0.0
C3438 C 0.07541 0.53944 0.05546 0.0
C3439 C 0.05612 0.5156 1.00278 0.0
C3440 C 0.11087 0.53764 0.01236 0.0
C3441 C 0.12925 0.54015 1.00454 0.0
C3442 C 0.13373 0.55235 0.99037 0.0
C3443 C 0.14212 0.52938 0.01067 0.0
C3444 C 0.15935 0.53025 1.00231 0.0
C3445 C 0.15076 0.55346 0.98209 0.0
C3446 C 0.1634 0.54238 0.98782 0.0
C3447 C 0.04188 0.55453 0.99073 0.0
H3448 H 0.99178 0.53027 0.05842 0.0
H3449 H 0.97987 0.57683 0.02818 0.0
H3450 H 0.96101 0.52696 0.07179 0.0
H3451 H 0.93964 0.54848 0.06397 0.0
H3452 H 0.12398 0.56076 0.98551 0.0
H3453 H 0.13859 0.52033 0.02193 0.0
H3454 H 0.15407 0.5627 0.97096 0.0
H3455 H 0.17619 0.54309 0.98057 0.0
H3456 H 0.02764 0.19095 1.0048 0.0
H3457 H 0.04983 0.08066 0.97266 0.0
H3458 H 0.04273 0.16734 0.94713 0.0
H3459 H 0.04144 0.1037 0.03298 0.0
H3460 H 0.0472 0.11287 0.9638 0.0
H3461 H 0.03208 0.15987 0.01595 0.0
C3462 C 0.03183 0.1793 0.99444 0.0
C3463 C 0.03489 0.18203 0.97493 0.0
C3464 C 0.04608 0.11113 0.97905 0.0
C3465 C 0.04009 0.14631 0.98774 0.0
C3466 C 0.04764 0.09268 0.98413 0.0
C3467 C 0.04626 0.08958 1.00367 0.0
C3468 C 0.04264 0.12678 0.99346 0.0
C3469 C 0.04303 0.10561 0.01784 0.0
C3470 C 0.03449 0.16159 1.00089 0.0
C3471 C 0.0405 0.16632 0.96236 0.0
N3472 N 0.04127 0.12351 0.01245 0.0
N3473 N 0.04284 0.14931 0.96894 0.0
H3474 H 0.18047 0.85029 0.207 0.0
H3475 H 0.25617 0.78372 0.22231 0.0
H3476 H 0.1834 0.79538 0.16705 0.0
H3477 H 0.25902 0.84271 0.25789 0.0
H3478 H 0.22905 0.78761 0.20257 0.0
H3479 H 0.20862 0.84772 0.22629 0.0
C3480 C 0.18702 0.83776 0.20214 0.0
C3481 C 0.1793 0.82298 0.18529 0.0
C3482 C 0.23555 0.79972 0.21472 0.0
C3483 C 0.21158 0.81982 0.20766 0.0
C3484 C 0.25113 0.79752 0.22607 0.0
C3485 C 0.25987 0.81278 0.24212 0.0
C3486 C 0.22846 0.81731 0.21934 0.0
C3487 C 0.25257 0.83033 0.24602 0.0
C3488 C 0.20309 0.83625 0.21328 0.0
C3489 C 0.18845 0.80696 0.18007 0.0
N3490 N 0.23728 0.83207 0.23481 0.0
N3491 N 0.20396 0.8058 0.19119 0.0
H3492 H 0.51947 0.88928 0.44834 0.0
H3493 H 0.5529 0.99057 0.53084 0.0
H3494 H 0.54736 0.88881 0.50494 0.0
H3495 H 0.54427 0.9902 0.46839 0.0
H3496 H 0.54565 0.95314 0.52372 0.0
H3497 H 0.5233 0.92598 0.45756 0.0
C3498 C 0.52624 0.89684 0.46282 0.0
C3499 C 0.53304 0.88578 0.47588 0.0
C3500 C 0.54518 0.96129 0.51163 0.0
C3501 C 0.53755 0.92818 0.48657 0.0
C3502 C 0.54913 0.98262 0.5157 0.0
C3503 C 0.54895 0.99348 0.50017 0.0
C3504 C 0.54092 0.9508 0.49192 0.0
C3505 C 0.54442 0.98241 0.48079 0.0
C3506 C 0.52853 0.91788 0.46803 0.0
C3507 C 0.542 0.89666 0.49433 0.0
N3508 N 0.54053 0.96178 0.47724 0.0
N3509 N 0.54394 0.91721 0.49915 0.0
H3510 H 0.50345 0.34228 0.69178 0.0
H3511 H 0.43011 0.26499 0.73909 0.0
H3512 H 0.4975 0.2773 0.67819 0.0
H3513 H 0.42479 0.32635 0.73896 0.0
H3514 H 0.45552 0.26967 0.71759 0.0
H3515 H 0.47549 0.33735 0.70981 0.0
C3516 C 0.49627 0.32697 0.69239 0.0
C3517 C 0.50312 0.31021 0.68342 0.0
C3518 C 0.44873 0.28209 0.72209 0.0
C3519 C 0.47111 0.30454 0.70449 0.0
C3520 C 0.43423 0.27943 0.73438 0.0
C3521 C 0.42536 0.29532 0.74087 0.0
C3522 C 0.45472 0.30093 0.7164 0.0
C3523 C 0.4312 0.31368 0.73422 0.0
C3524 C 0.4803 0.3242 0.7028 0.0
C3525 C 0.49319 0.29078 0.68516 0.0
N3526 N 0.44566 0.31607 0.72254 0.0
N3527 N 0.47785 0.28853 0.69554 0.0
H3528 H 1.00498 0.83902 0.57884 0.0
H3529 H 0.06992 0.93674 0.55006 0.0
H3530 H 0.04857 0.88123 0.61872 0.0
H3531 H 0.02495 0.89663 0.51035 0.0
H3532 H 0.06306 0.91548 0.57482 0.0
H3533 H 0.01237 0.85929 0.55322 0.0
C3534 C 0.01598 0.85267 0.58226 0.0
C3535 C 0.02615 0.8585 0.60095 0.0
C3536 C 0.05475 0.9112 0.56066 0.0
C3537 C 0.0349 0.88147 0.57162 0.0
C3538 C 0.05867 0.92333 0.54652 0.0
C3539 C 0.04791 0.91846 0.52818 0.0
C3540 C 0.03996 0.89403 0.55647 0.0
C3541 C 0.03366 0.9008 0.52425 0.0
C3542 C 0.02029 0.86411 0.56758 0.0
C3543 C 0.0405 0.87607 0.60446 0.0
N3544 N 0.03 0.88926 0.53836 0.0
N3545 N 0.04445 0.88693 0.58992 0.0
H3546 H 0.49614 0.79716 0.82687 0.0
H3547 H 0.4413 0.87759 0.79644 0.0
H3548 H 0.52231 0.85995 0.82836 0.0
H3549 H 0.41974 0.81288 0.78015 0.0
H3550 H 0.47096 0.87141 0.80877 0.0
H3551 H 0.46778 0.80241 0.81014 0.0
C3552 C 0.496 0.81198 0.8235 0.0
C3553 C 0.51154 0.8282 0.82923 0.0
C3554 C 0.45977 0.85856 0.80238 0.0
C3555 C 0.47911 0.83437 0.81042 0.0
C3556 C 0.44286 0.86209 0.79523 0.0
C3557 C 0.42794 0.84575 0.78733 0.0
C3558 C 0.46177 0.83856 0.80178 0.0
C3559 C 0.43071 0.82596 0.78648 0.0
C3560 C 0.47979 0.81499 0.81404 0.0
C3561 C 0.5105 0.84713 0.82465 0.0
N3562 N 0.44725 0.82292 0.79375 0.0
N3563 N 0.49452 0.84973 0.81567 0.0
H3564 H 0.48743 0.1736 0.07735 0.0
H3565 H 0.55408 0.09845 0.07919 0.0
H3566 H 0.5147 0.16695 0.13209 0.0
H3567 H 0.50791 0.08751 0.03421 0.0
H3568 H 0.54014 0.12367 0.09908 0.0
H3569 H 0.49467 0.14187 0.061 0.0
C3570 C 0.49452 0.1651 0.08596 0.0
C3571 C 0.50044 0.17262 0.10599 0.0
C3572 C 0.53304 0.11559 0.08489 0.0
C3573 C 0.50922 0.13697 0.0875 0.0
C3574 C 0.54102 0.10131 0.07351 0.0
C3575 C 0.53247 0.0914 0.05472 0.0
C3576 C 0.51654 0.12001 0.07728 0.0
C3577 C 0.51542 0.09543 0.0482 0.0
C3578 C 0.49868 0.14709 0.0767 0.0
C3579 C 0.50977 0.16137 0.11663 0.0
N3580 N 0.50814 0.10966 0.05935 0.0
N3581 N 0.51422 0.14421 0.10714 0.0
H3582 H 0.19171 0.34211 0.34422 0.0
H3583 H 0.26127 0.31464 0.26498 0.0
H3584 H 0.17179 0.29543 0.29261 0.0
H3585 H 0.27541 0.32348 0.32794 0.0
H3586 H 0.22894 0.31713 0.27126 0.0
H3587 H 0.22353 0.3453 0.33423 0.0
C3588 C 0.19405 0.33282 0.33058 0.0
C3589 C 0.17928 0.31847 0.31917 0.0
C3590 C 0.23924 0.31858 0.28359 0.0
C3591 C 0.21533 0.32215 0.30773 0.0
C3592 C 0.25747 0.31699 0.28006 0.0
C3593 C 0.27053 0.31796 0.296 0.0
C3594 C 0.23452 0.32188 0.30317 0.0
C3595 C 0.26544 0.32204 0.31531 0.0
C3596 C 0.21212 0.33461 0.32497 0.0
C3597 C 0.18295 0.30658 0.30176 0.0
N3598 N 0.24773 0.32374 0.31839 0.0
N3599 N 0.20074 0.30868 0.2965 0.0
H3600 H 0.97358 0.03814 0.16441 0.0
H3601 H 0.04801 0.08965 0.09438 0.0
H3602 H 0.00804 0.09845 0.18208 0.0
H3603 H 0.01296 0.02974 0.07706 0.0
H3604 H 0.03398 0.09315 0.12617 0.0
H3605 H 0.98795 0.03491 0.13304 0.0
C3606 C 0.98422 0.05077 0.16201 0.0
C3607 C 0.98933 0.06866 0.17669 0.0
C3608 C 0.02932 0.07919 0.11547 0.0
C3609 C 1.00614 0.06493 0.13946 0.0
C3610 C 0.03748 0.07711 0.09714 0.0
C3611 C 0.03204 0.05924 0.08256 0.0
C3612 C 0.01534 0.06334 0.11973 0.0
C3613 C 0.01789 0.04384 0.08747 0.0
C3614 C 0.99242 0.04889 0.14373 0.0
C3615 C 1.00315 0.08436 0.17165 0.0
N3616 N 0.01022 0.04623 0.10534 0.0
N3617 N 0.01092 0.08212 0.1538 0.0
H3618 H 0.33189 0.71811 0.44255 0.0
H3619 H 0.27374 0.71505 0.34047 0.0
H3620 H 0.2891 0.66705 0.41284 0.0
H3621 H 0.30273 0.76996 0.38002 0.0
H3622 H 0.28663 0.69525 0.36187 0.0
H3623 H 0.32876 0.735 0.41435 0.0
C3624 C 0.32216 0.71031 0.42987 0.0
C3625 C 0.31054 0.69136 0.42998 0.0
C3626 C 0.29038 0.71165 0.36562 0.0
C3627 C 0.30683 0.71044 0.39799 0.0
C3628 C 0.28294 0.72294 0.35352 0.0
C3629 C 0.28686 0.74417 0.35868 0.0
C3630 C 0.30183 0.7217 0.3829 0.0
C3631 C 0.29933 0.75363 0.37543 0.0
C3632 C 0.32031 0.71994 0.41388 0.0
C3633 C 0.29807 0.68184 0.41333 0.0
N3634 N 0.30619 0.74231 0.38708 0.0
N3635 N 0.29639 0.69159 0.39803 0.0
H3636 H 0.65789 0.02186 0.63668 0.0
H3637 H 0.5573 0.0132 0.58248 0.0
H3638 H 0.6075 1.00681 0.66576 0.0
H3639 H 0.6084 0.05133 0.56988 0.0
H3640 H 0.57488 1.0046 0.60986 0.0
H3641 H 0.63904 0.02518 0.60777 0.0
C3642 C 0.64281 0.01882 0.6368 0.0
C3643 C 0.63419 0.01408 0.65358 0.0
C3644 C 0.58211 0.01483 0.601 0.0
C3645 C 0.61265 0.01828 0.6208 0.0
C3646 C 0.57212 0.01984 0.58549 0.0
C3647 C 0.58135 0.03313 0.57395 0.0
C3648 C 0.60144 0.02285 0.60459 0.0
C3649 C 0.60064 0.04103 0.57831 0.0
C3650 C 0.63209 0.02095 0.62041 0.0
C3651 C 0.61462 1.01067 0.65311 0.0
N3652 N 0.61004 0.03568 0.59323 0.0
N3653 N 0.60443 0.01294 0.63694 0.0
H3654 H 0.32806 0.37634 0.92592 0.0
H3655 H 0.3046 0.28751 0.83013 0.0
H3656 H 0.30413 0.31433 0.93006 0.0
H3657 H 0.31386 0.3514 0.82904 0.0
H3658 H 0.30925 0.29571 0.86668 0.0
H3659 H 0.32795 0.36605 0.89038 0.0
C3660 C 0.32297 0.36046 0.9194 0.0
C3661 C 0.3162 0.34617 0.93111 0.0
C3662 C 0.31044 0.30789 0.85837 0.0
C3663 C 0.31569 0.33427 0.89 0.0
C3664 C 0.30798 0.30323 0.8376 0.0
C3665 C 0.30917 0.31888 0.8267 0.0
C3666 C 0.3141 0.32828 0.86808 0.0
C3667 C 0.31303 0.33895 0.83696 0.0
C3668 C 0.32278 0.35461 0.899 0.0
C3669 C 0.30937 0.32588 0.9216 0.0
N3670 N 0.31541 0.34306 0.85701 0.0
N3671 N 0.30927 0.32051 0.90156 0.0
H3672 H 0.02023 0.07407 0.37598 0.0
H3673 H 1.00143 0.05306 0.48647 0.0
H3674 H 0.96564 0.06225 0.39766 0.0
H3675 H 0.05657 0.06005 0.46644 0.0
H3676 H 0.98884 0.05601 0.45376 0.0
H3677 H 0.03393 0.06884 0.40752 0.0
C3678 C 0.0109 0.07032 0.38708 0.0
C3679 C 0.99135 0.06882 0.38333 0.0
C3680 C 1.00369 0.05677 0.45625 0.0
C3681 C 0.00763 0.0629 0.42071 0.0
C3682 C 0.01098 0.05499 0.47513 0.0
C3683 C 0.03022 0.056 0.47966 0.0
C3684 C 0.01552 0.05999 0.44109 0.0
C3685 C 0.04165 0.05882 0.46394 0.0
C3686 C 0.01894 0.0674 0.40539 0.0
C3687 C 0.98067 0.0641 0.3992 0.0
N3688 N 0.0342 0.06077 0.44562 0.0
N3689 N 0.98883 0.06143 0.41676 0.0
H3690 H 0.33324 0.70965 0.63316 0.0
H3691 H 0.29787 0.79902 0.69892 0.0
H3692 H 0.29749 0.74263 0.60701 0.0
H3693 H 0.30405 0.74439 0.71914 0.0
H3694 H 0.3043 0.78391 0.66558 0.0
H3695 H 0.33024 0.72873 0.66593 0.0
C3696 C 0.32515 0.72128 0.63434 0.0
C3697 C 0.31558 0.72469 0.61757 0.0
C3698 C 0.30409 0.7753 0.67738 0.0
C3699 C 0.31201 0.74626 0.65462 0.0
C3700 C 0.30035 0.7838 0.69625 0.0
C3701 C 0.3001 0.77273 0.71158 0.0
C3702 C 0.30805 0.75592 0.67418 0.0
C3703 C 0.3037 0.75323 0.70761 0.0
C3704 C 0.3233 0.73197 0.65295 0.0
C3705 C 0.30502 0.73966 0.61975 0.0
N3706 N 0.30768 0.74549 0.68929 0.0
N3707 N 0.30345 0.74994 0.63804 0.0
H3708 H 0.67425 0.06358 0.85711 0.0
H3709 H 0.57383 0.04827 0.89819 0.0
H3710 H 0.62438 0.02717 0.82188 0.0
H3711 H 0.61637 0.10335 0.91542 0.0
H3712 H 0.59438 0.03476 0.87483 0.0
H3713 H 0.655 0.07268 0.8836 0.0
C3714 C 0.6593 0.0574 0.85495 0.0
C3715 C 0.6509 0.04481 0.83709 0.0
C3716 C 0.59918 0.04976 0.88381 0.0
C3717 C 0.62901 0.05478 0.86751 0.0
C3718 C 0.58754 0.05742 0.89706 0.0
C3719 C 0.59344 0.07699 0.90838 0.0
C3720 C 0.61688 0.06167 0.8823 0.0
C3721 C 0.61129 0.08831 0.90662 0.0
C3722 C 0.64839 0.06253 0.87011 0.0
C3723 C 0.63152 0.03678 0.83541 0.0
N3724 N 0.62245 0.08046 0.89378 0.0
N3725 N 0.62119 0.04199 0.85042 0.0
H3726 H 0.32306 0.37827 0.14568 0.0
H3727 H 0.27338 0.30105 0.21037 0.0
H3728 H 0.28292 0.32373 0.11862 0.0
H3729 H 0.32976 0.33663 0.2258 0.0
H3730 H 0.27342 0.31215 0.17841 0.0
H3731 H 0.32238 0.36635 0.17721 0.0
C3732 C 0.31404 0.36381 0.14644 0.0
C3733 C 0.30301 0.35195 0.12958 0.0
C3734 C 0.28579 0.31735 0.18881 0.0
C3735 C 0.30206 0.33832 0.16558 0.0
C3736 C 0.28585 0.31093 0.20702 0.0
C3737 C 0.30181 0.31734 0.22067 0.0
C3738 C 0.30157 0.33082 0.1845 0.0
C3739 C 0.31724 0.33092 0.21574 0.0
C3740 C 0.31373 0.35699 0.16437 0.0
C3741 C 0.29169 0.33324 0.13129 0.0
N3742 N 0.31669 0.33726 0.19814 0.0
N3743 N 0.29138 0.32704 0.14905 0.0
H3744 H 0.23886 1.00568 0.07783 0.0
H3745 H 0.1975 0.09176 0.03778 0.0
H3746 H 0.25053 0.0235 0.0219 0.0
H3747 H 0.16935 0.05567 0.07733 0.0
H3748 H 0.2223 0.07262 0.0373 0.0
H3749 H 0.21814 0.02966 0.08303 0.0
C3750 C 0.23716 0.01481 0.06678 0.0
C3751 C 0.24617 0.01261 0.04936 0.0
C3752 C 0.2108 0.0691 0.04627 0.0
C3753 C 0.22292 0.03999 0.05524 0.0
C3754 C 0.19679 0.08009 0.04667 0.0
C3755 C 0.18145 0.07518 0.05757 0.0
C3756 C 0.20949 0.05332 0.05704 0.0
C3757 C 0.18097 0.05978 0.06867 0.0
C3758 C 0.22536 0.02838 0.0697 0.0
C3759 C 0.24358 0.02467 0.03541 0.0
N3760 N 0.19479 0.04931 0.06809 0.0
N3761 N 0.23217 0.03789 0.03864 0.0
H3762 H 0.69614 0.65409 0.02606 0.0
H3763 H 0.614 0.55664 0.98457 0.0
H3764 H 0.70463 0.6038 0.98311 0.0
H3765 H 0.61259 0.60085 0.037 0.0
H3766 H 0.64607 0.57452 0.98147 0.0
H3767 H 0.66421 0.6358 0.02768 0.0
C3768 C 0.69124 0.63923 0.01684 0.0
C3769 C 0.70309 0.63053 1.00435 0.0
C3770 C 0.63869 0.58021 0.99365 0.0
C3771 C 0.66641 0.60929 0.0063 0.0
C3772 C 0.6204 0.56998 0.99548 0.0
C3773 C 0.61058 0.57702 0.01123 0.0
C3774 C 0.64708 0.59778 0.0075 0.0
C3775 C 0.61952 0.59469 0.02466 0.0
C3776 C 0.67301 0.62871 0.01788 0.0
C3777 C 0.69602 0.61103 0.99303 0.0
N3778 N 0.63717 0.60441 0.02246 0.0
N3779 N 0.6781 0.60107 0.99421 0.0
H3780 H 0.73054 0.42479 0.30223 0.0
H3781 H 0.78182 0.33973 0.24475 0.0
H3782 H 0.73549 0.41793 0.23936 0.0
H3783 H 0.76967 0.34521 0.30564 0.0
H3784 H 0.76718 0.3689 0.24208 0.0
H3785 H 0.74612 0.39689 0.30318 0.0
C3786 C 0.73462 0.41759 0.28843 0.0
C3787 C 0.73103 0.42448 0.27061 0.0
C3788 C 0.76779 0.3638 0.25607 0.0
C3789 C 0.75011 0.3914 0.27189 0.0
C3790 C 0.77635 0.34708 0.25765 0.0
C3791 C 0.7774 0.33974 0.2756 0.0
C3792 C 0.76 0.37353 0.2725 0.0
C3793 C 0.76951 0.35008 0.2915 0.0
C3794 C 0.74386 0.40141 0.2891 0.0
C3795 C 0.73767 0.41392 0.25367 0.0
N3796 N 0.76139 0.3661 0.2896 0.0
N3797 N 0.7467 0.39824 0.25475 0.0
H3798 H 0.92007 0.45184 0.53499 0.0
H3799 H 0.00899 0.54239 0.53876 0.0
H3800 H 0.91665 0.5144 0.53858 0.0
H3801 H 0.01245 0.47987 0.53432 0.0
H3802 H 0.97511 0.5324 0.53818 0.0
H3803 H 0.95388 0.46176 0.53436 0.0
C3804 C 0.92648 0.46771 0.53583 0.0
C3805 C 0.91561 0.48238 0.53706 0.0
C3806 C 0.98321 0.52081 0.5372 0.0
C3807 C 0.95423 0.49378 0.53607 0.0
C3808 C 1.00255 0.52649 0.53732 0.0
C3809 C 0.01335 0.51178 0.53584 0.0
C3810 C 0.97469 0.50029 0.53596 0.0
C3811 C 1.00444 0.49153 0.53505 0.0
C3812 C 0.94576 0.47333 0.53532 0.0
C3813 C 0.92455 0.50262 0.53757 0.0
N3814 N 0.98555 0.48633 0.535 0.0
N3815 N 0.94339 0.50775 0.53713 0.0
H3816 H 0.34962 0.14225 0.31883 0.0
H3817 H 0.27252 0.18118 0.30624 0.0
H3818 H 0.32392 0.09238 0.2717 0.0
H3819 H 0.26803 0.14765 0.24657 0.0
H3820 H 0.29234 0.15971 0.31687 0.0
H3821 H 0.32256 0.15699 0.3154 0.0
C3822 C 0.33808 0.13416 0.30803 0.0
C3823 C 0.33906 0.11608 0.29551 0.0
C3824 C 0.28695 0.15692 0.30148 0.0
C3825 C 0.30776 0.13274 0.29164 0.0
C3826 C 0.27536 0.1689 0.29551 0.0
C3827 C 0.26888 0.16619 0.27552 0.0
C3828 C 0.29233 0.14249 0.28721 0.0
C3829 C 0.27282 0.15013 0.26213 0.0
C3830 C 0.3225 0.14252 0.30617 0.0
C3831 C 0.32388 0.10654 0.28144 0.0
N3832 N 0.28462 0.13905 0.26816 0.0
N3833 N 0.30893 0.11513 0.27972 0.0
H3834 H 0.3865 0.15171 0.55356 0.0
H3835 H 0.44609 0.07412 0.50529 0.0
H3836 H 0.37655 0.12274 0.49189 0.0
H3837 H 0.43673 0.08373 0.56718 0.0
H3838 H 0.42506 0.09665 0.49971 0.0
H3839 H 0.40932 0.13137 0.55834 0.0
C3840 C 0.38898 0.14104 0.541 0.0
C3841 C 0.37926 0.13882 0.52232 0.0
C3842 C 0.42766 0.09381 0.51449 0.0
C3843 C 0.40594 0.11585 0.5277 0.0
C3844 C 0.43969 0.08108 0.51769 0.0
C3845 C 0.44298 0.07698 0.53669 0.0
C3846 C 0.41919 0.10275 0.53048 0.0
C3847 C 0.43435 0.08632 0.55227 0.0
C3848 C 0.40215 0.12952 0.54376 0.0
C3849 C 0.38372 0.12516 0.50653 0.0
N3850 N 0.4229 0.09882 0.54884 0.0
N3851 N 0.39672 0.11419 0.50959 0.0
H3852 H 0.76213 0.62858 0.29222 0.0
H3853 H 0.75473 0.73543 0.26168 0.0
H3854 H 0.71218 0.63943 0.2641 0.0
H3855 H 0.8028 0.72816 0.29618 0.0
H3856 H 0.7397 0.70015 0.26164 0.0
H3857 H 0.77781 0.66399 0.29259 0.0
C3858 C 0.75439 0.63823 0.28602 0.0
C3859 C 0.73556 0.63055 0.27819 0.0
C3860 C 0.75357 0.70617 0.26919 0.0
C3861 C 0.75375 0.6718 0.27869 0.0
C3862 C 0.76228 0.72651 0.26923 0.0
C3863 C 0.78039 0.73517 0.27874 0.0
C3864 C 0.76285 0.69387 0.27868 0.0
C3865 C 0.78908 0.72238 0.28832 0.0
C3866 C 0.76341 0.65864 0.28637 0.0
C3867 C 0.7265 0.64434 0.27063 0.0
N3868 N 0.78034 0.70255 0.28798 0.0
N3869 N 0.7356 0.664 0.27104 0.0
H3870 H 0.83609 0.44907 0.75441 0.0
H3871 H 0.85638 0.34378 0.77207 0.0
H3872 H 0.87514 0.44401 0.80135 0.0
H3873 H 0.8024 0.34804 0.74767 0.0
H3874 H 0.86665 0.38078 0.77707 0.0
H3875 H 0.8259 0.41187 0.74682 0.0
C3876 C 0.84238 0.44005 0.76314 0.0
C3877 C 0.85627 0.44935 0.7786 0.0
C3878 C 0.8525 0.37363 0.77078 0.0
C3879 C 0.84529 0.40735 0.7697 0.0
C3880 C 0.84662 0.35268 0.76818 0.0
C3881 C 0.82818 0.34336 0.76091 0.0
C3882 C 0.83993 0.38509 0.76545 0.0
C3883 C 0.81646 0.35504 0.75431 0.0
C3884 C 0.83663 0.41897 0.75881 0.0
C3885 C 0.86421 0.43725 0.78947 0.0
N3886 N 0.82245 0.3755 0.757 0.0
N3887 N 0.85872 0.41679 0.78468 0.0
H3888 H 0.06884 0.89893 0.04502 0.0
H3889 H 0.06868 0.01568 0.08095 0.0
H3890 H 0.09299 0.93327 0.10233 0.0
H3891 H 0.07061 0.99229 0.01905 0.0
H3892 H 0.07242 0.98332 0.08875 0.0
H3893 H 0.0646 0.93065 0.03496 0.0
C3894 C 0.07328 0.91309 0.05548 0.0
C3895 C 0.0814 0.91335 0.07457 0.0
C3896 C 0.07192 0.98513 0.07343 0.0
C3897 C 0.07636 0.94964 0.06317 0.0
C3898 C 0.06971 1.0036 0.06893 0.0
C3899 C 0.06897 1.00664 0.04928 0.0
C3900 C 0.07344 0.96926 0.05821 0.0
C3901 C 0.07067 0.99047 0.03436 0.0
C3902 C 0.07094 0.93118 0.04967 0.0
C3903 C 0.08691 0.93224 0.08742 0.0
N3904 N 0.07269 0.97238 0.03911 0.0
N3905 N 0.08415 0.94947 0.08156 0.0
H3906 H 0.93025 0.2489 0.84193 0.0
H3907 H 0.84667 0.3074 0.83762 0.0
H3908 H 0.92021 0.29316 0.89049 0.0
H3909 H 0.85001 0.25527 0.79418 0.0
H3910 H 0.87366 0.30255 0.85693 0.0
H3911 H 0.90142 0.25131 0.82386 0.0
C3912 C 0.92199 0.259 0.84894 0.0
C3913 C 0.92795 0.27088 0.86789 0.0
C3914 C 0.86853 0.29217 0.84312 0.0
C3915 C 0.89481 0.27396 0.84692 0.0
C3916 C 0.85299 0.29488 0.83202 0.0
C3917 C 0.84622 0.28213 0.81365 0.0
C3918 C 0.87753 0.27654 0.83596 0.0
C3919 C 0.85508 0.26608 0.80757 0.0
C3920 C 0.90552 0.26045 0.8385 0.0
C3921 C 0.9166 0.28395 0.87585 0.0
N3922 N 0.87031 0.26386 0.81854 0.0
N3923 N 0.90073 0.28518 0.86534 0.0
H3924 H 0.578 0.2073 0.54102 0.0
H3925 H 0.56842 0.10236 0.58067 0.0
H3926 H 0.57789 0.20161 0.60244 0.0
H3927 H 0.56241 0.10419 0.51849 0.0
H3928 H 0.57541 0.13933 0.58825 0.0
H3929 H 0.57546 0.17046 0.53189 0.0
C3930 C 0.57754 0.1984 0.5526 0.0
C3931 C 0.57794 0.2077 0.57256 0.0
C3932 C 0.57278 0.13178 0.5729 0.0
C3933 C 0.57507 0.16544 0.56217 0.0
C3934 C 0.56887 0.11062 0.56857 0.0
C3935 C 0.56507 0.10016 0.54893 0.0
C3936 C 0.57263 0.14283 0.55751 0.0
C3937 C 0.56559 0.11166 0.53383 0.0
C3938 C 0.57602 0.17733 0.54735 0.0
C3939 C 0.57723 0.19523 0.58685 0.0
N3940 N 0.56921 0.13238 0.53843 0.0
N3941 N 0.57581 0.17492 0.58138 0.0
H3942 H 0.62522 0.80486 0.38169 0.0
H3943 H 0.66326 0.76634 0.27834 0.0
H3944 H 0.59436 0.755 0.33735 0.0
H3945 H 0.69844 0.80871 0.32598 0.0
H3946 H 0.63791 0.76233 0.2999 0.0
H3947 H 0.65197 0.80719 0.36164 0.0
C3948 C 0.62402 0.79443 0.36773 0.0
C3949 C 0.60742 0.77972 0.36123 0.0
C3950 C 0.65118 0.77243 0.30575 0.0
C3951 C 0.63812 0.78225 0.33821 0.0
C3952 C 0.66567 0.77477 0.2934 0.0
C3953 C 0.68298 0.788 0.3003 0.0
C3954 C 0.65383 0.78356 0.3252 0.0
C3955 C 0.68535 0.79831 0.32007 0.0
C3956 C 0.63937 0.79568 0.35636 0.0
C3957 C 0.60686 0.76644 0.34312 0.0
N3958 N 0.67088 0.79603 0.33176 0.0
N3959 N 0.6219 0.7681 0.33225 0.0
H3960 H 0.05873 0.25204 0.45736 0.0
H3961 H 0.05541 0.14371 0.48445 0.0
H3962 H 0.08803 0.20966 0.42621 0.0
H3963 H 0.04766 0.19494 0.52685 0.0
H3964 H 0.06417 0.1662 0.46101 0.0
H3965 H 0.05096 0.22961 0.48112 0.0
C3966 C 0.06344 0.23793 0.45553 0.0
C3967 C 0.07391 0.23252 0.43984 0.0
C3968 C 0.06058 0.17246 0.47547 0.0
C3969 C 0.06515 0.20695 0.46682 0.0
C3970 C 0.05563 0.15968 0.48889 0.0
C3971 C 0.05082 0.16746 0.5077 0.0
C3972 C 0.06042 0.19307 0.48077 0.0
C3973 C 0.05095 0.18821 0.51243 0.0
C3974 C 0.05913 0.22524 0.46912 0.0
C3975 C 0.07995 0.21428 0.43819 0.0
N3976 N 0.05562 0.20029 0.49901 0.0
N3977 N 0.07535 0.202 0.45149 0.0
H3978 H 0.61679 0.30174 0.23388 0.0
H3979 H 0.66931 0.21372 0.24783 0.0
H3980 H 0.5929 0.23804 0.21302 0.0
H3981 H 0.69135 0.27682 0.27343 0.0
H3982 H 0.63991 0.22205 0.2377 0.0
H3983 H 0.64302 0.2928 0.25112 0.0
C3984 C 0.61698 0.28588 0.23312 0.0
C3985 C 0.60287 0.27061 0.22176 0.0
C3986 C 0.6511 0.23405 0.24572 0.0
C3987 C 0.63278 0.26028 0.24122 0.0
C3988 C 0.66785 0.22927 0.25162 0.0
C3989 C 0.68285 0.24463 0.26128 0.0
C3990 C 0.64941 0.25436 0.24944 0.0
C3991 C 0.68025 0.26457 0.26563 0.0
C3992 C 0.63196 0.28078 0.24289 0.0
C3993 C 0.60378 0.2503 0.22121 0.0
N3994 N 0.66391 0.2689 0.2595 0.0
N3995 N 0.61857 0.24573 0.23065 0.0
H3996 H 0.63295 0.93005 0.96937 0.0
H3997 H 0.56977 1.00832 0.95786 0.0
H3998 H 0.60796 0.9352 0.91286 0.0
H3999 H 0.60564 0.0117 0.01069 0.0
H4000 H 0.58569 0.98365 0.94011 0.0
H4001 H 0.62531 0.96203 0.98414 0.0
C4002 C 0.62619 0.93818 0.96004 0.0
C4003 C 0.62102 0.93007 0.93996 0.0
C4004 C 0.59017 0.98998 0.95555 0.0
C4005 C 0.61193 0.9663 0.95666 0.0
C4006 C 0.58106 1.00401 0.96568 0.0
C4007 C 0.58595 0.01152 0.98594 0.0
C4008 C 0.60418 0.98349 0.96583 0.0
C4009 C 0.6009 1.00571 0.99528 0.0
C4010 C 0.62184 0.9564 0.96842 0.0
C4011 C 0.6123 0.9411 0.92841 0.0
N4012 N 0.60931 0.99182 0.98522 0.0
N4013 N 0.60773 0.95853 0.93701 0.0
H4014 H 0.92843 0.75581 0.74052 0.0
H4015 H 0.82397 0.7657 0.72442 0.0
H4016 H 0.90054 0.75489 0.68346 0.0
H4017 H 0.84742 0.75515 0.77933 0.0
H4018 H 0.85034 0.75616 0.70799 0.0
H4019 H 0.89806 0.75081 0.75421 0.0
C4020 C 0.91589 0.75437 0.73084 0.0
C4021 C 0.91702 0.75604 0.71089 0.0
C4022 C 0.8497 0.75564 0.72357 0.0
C4023 C 0.8823 0.7502 0.72638 0.0
C4024 C 0.83474 0.76122 0.73292 0.0
C4025 C 0.83415 0.76191 0.75327 0.0
C4026 C 0.8643 0.7511 0.73481 0.0
C4027 C 0.84788 0.75532 0.76366 0.0
C4028 C 0.89856 0.7513 0.73861 0.0
C4029 C 0.90034 0.75367 0.69892 0.0
N4030 N 0.86274 0.75062 0.75439 0.0
N4031 N 0.88371 0.75117 0.70692 0.0
H4032 H 0.09578 1.00828 0.86409 0.0
H4033 H 0.10626 0.0616 0.98002 0.0
H4034 H 0.14786 0.04499 0.89394 0.0
H4035 H 0.06082 0.01156 0.95467 0.0
H4036 H 0.12043 0.05789 0.94837 0.0
H4037 H 0.08172 0.01162 0.89585 0.0
C4038 C 0.10436 0.01717 0.87717 0.0
C4039 C 0.12331 0.02627 0.87577 0.0
C4040 C 0.10731 0.04771 0.94963 0.0
C4041 C 0.10681 0.03032 0.91307 0.0
C4042 C 0.09909 0.04982 0.96789 0.0
C4043 C 0.08196 0.037 0.97052 0.0
C4044 C 0.09843 0.03281 0.93323 0.0
C4045 C 0.07376 0.02206 0.95375 0.0
C4046 C 0.09624 0.01896 0.89552 0.0
C4047 C 0.13336 0.03739 0.89382 0.0
N4048 N 0.08188 0.02053 0.93609 0.0
N4049 N 0.12507 0.03916 0.91137 0.0
H4050 H 0.79304 0.3564 0.60162 0.0
H4051 H 0.85997 0.36037 0.69695 0.0
H4052 H 0.8259 0.41208 0.63675 0.0
H4053 H 0.81959 0.30655 0.66844 0.0
H4054 H 0.84582 0.38012 0.67657 0.0
H4055 H 0.80011 0.33837 0.62767 0.0
C4056 C 0.80141 0.36491 0.615 0.0
C4057 C 0.80912 0.3857 0.61694 0.0
C4058 C 0.83991 0.36403 0.6749 0.0
C4059 C 0.8176 0.36514 0.64654 0.0
C4060 C 0.84808 0.35276 0.6864 0.0
C4061 C 0.84109 0.33181 0.68408 0.0
C4062 C 0.8248 0.35419 0.66084 0.0
C4063 C 0.82541 0.32269 0.67059 0.0
C4064 C 0.80554 0.35459 0.62982 0.0
C4065 C 0.82003 0.39594 0.63449 0.0
N4066 N 0.81792 0.33391 0.65926 0.0
N4067 N 0.82417 0.38549 0.64851 0.0
H4068 H 0.50459 0.11037 0.39663 0.0
H4069 H 0.5067 0.03734 0.47488 0.0
H4070 H 0.45795 0.06381 0.40564 0.0
H4071 H 0.55398 0.08517 0.46998 0.0
H4072 H 0.48906 0.04718 0.449 0.0
H4073 H 0.52328 0.10199 0.42334 0.0
C4074 C 0.49823 0.09859 0.40438 0.0
C4075 C 0.47963 0.08794 0.39907 0.0
C4076 C 0.50331 0.05554 0.45349 0.0
C4077 C 0.50083 0.07823 0.42931 0.0
C4078 C 0.51344 0.04988 0.46829 0.0
C4079 C 0.53185 0.06047 0.47463 0.0
C4080 C 0.51159 0.07191 0.44487 0.0
C4081 C 0.53983 0.07655 0.46546 0.0
C4082 C 0.50888 0.09382 0.41956 0.0
C4083 C 0.47206 0.07279 0.40951 0.0
N4084 N 0.5296 0.08184 0.45099 0.0
N4085 N 0.48271 0.06837 0.42406 0.0
H4086 H 0.79725 0.77831 0.11653 0.0
H4087 H 0.80117 0.74123 0.22027 0.0
H4088 H 0.8118 0.72249 0.12536 0.0
H4089 H 0.80703 0.80456 0.21785 0.0
H4090 H 0.79879 0.73323 0.18426 0.0
H4091 H 0.79546 0.78749 0.15251 0.0
C4092 C 0.80007 0.76802 0.12602 0.0
C4093 C 0.80489 0.7497 0.11797 0.0
C4094 C 0.80042 0.74888 0.19151 0.0
C4095 C 0.80258 0.75993 0.15884 0.0
C4096 C 0.80167 0.75343 0.21205 0.0
C4097 C 0.80411 0.77352 0.22197 0.0
C4098 C 0.80184 0.76456 0.18063 0.0
C4099 C 0.80486 0.78882 0.21067 0.0
C4100 C 0.79909 0.77329 0.14649 0.0
C4101 C 0.80838 0.73691 0.13091 0.0
N4102 N 0.80379 0.78403 0.19049 0.0
N4103 N 0.80709 0.74223 0.15061 0.0
H4104 H 0.14899 0.04041 0.65975 0.0
H4105 H 0.05681 0.03305 0.58523 0.0
H4106 H 0.09386 0.01283 0.67296 0.0
H4107 H 0.1134 0.04564 0.56925 0.0
H4108 H 0.06893 0.02898 0.61838 0.0
H4109 H 0.13543 0.0456 0.6283 0.0
C4110 C 0.13399 0.03552 0.65629 0.0
C4111 C 0.1228 0.02612 0.66967 0.0
C4112 C 0.07872 0.03276 0.60766 0.0
C4113 C 0.10674 0.03223 0.63252 0.0
C4114 C 0.07176 0.03526 0.58867 0.0
C4115 C 0.08401 0.03998 0.57413 0.0
C4116 C 0.09819 0.03508 0.61249 0.0
C4117 C 0.10327 0.04219 0.57974 0.0
C4118 C 0.12619 0.03844 0.63802 0.0
C4119 C 0.10335 0.01998 0.66346 0.0
N4120 N 0.10962 0.03987 0.59815 0.0
N4121 N 0.09605 0.0232 0.64565 0.0
H4122 H 0.83423 0.39001 0.42545 0.0
H4123 H 0.79985 0.28985 0.34363 0.0
H4124 H 0.78769 0.34239 0.43229 0.0
H4125 H 0.82811 0.34737 0.33072 0.0
H4126 H 0.79967 0.30627 0.3781 0.0
H4127 H 0.83651 0.37173 0.3923 0.0
C4128 C 0.82457 0.3756 0.41996 0.0
C4129 C 0.81078 0.36758 0.43151 0.0
C4130 C 0.80589 0.31519 0.36763 0.0
C4131 C 0.81329 0.34669 0.39375 0.0
C4132 C 0.80594 0.30589 0.34798 0.0
C4133 C 0.81346 0.31737 0.33413 0.0
C4134 C 0.81386 0.33596 0.37347 0.0
C4135 C 0.82188 0.33794 0.34077 0.0
C4136 C 0.82582 0.36525 0.40106 0.0
C4137 C 0.79843 0.34904 0.4237 0.0
N4138 N 0.82179 0.34658 0.35997 0.0
N4139 N 0.80001 0.33911 0.40523 0.0
H4140 H 0.4933 0.08342 0.22135 0.0
H4141 H 0.53491 1.00218 0.15087 0.0
H4142 H 0.4701 0.0189 0.21181 0.0
H4143 H 0.54212 0.0643 0.14308 0.0
H4144 H 0.51438 1.00887 0.17695 0.0
H4145 H 0.514 0.07744 0.19532 0.0
C4146 C 0.49242 0.06804 0.21369 0.0
C4147 C 0.48003 0.05162 0.21888 0.0
C4148 C 0.52051 0.02104 0.16956 0.0
C4149 C 0.50395 0.04472 0.18958 0.0
C4150 C 0.53234 0.01728 0.15488 0.0
C4151 C 0.54018 0.03275 0.14498 0.0
C4152 C 0.51673 0.04044 0.17445 0.0
C4153 C 0.53624 0.05199 0.15042 0.0
C4154 C 0.50431 0.06465 0.19896 0.0
C4155 C 0.47971 0.03198 0.20864 0.0
N4156 N 0.52478 0.05533 0.16487 0.0
N4157 N 0.49161 0.02907 0.19458 0.0
H4158 H 0.83763 0.75867 0.92293 0.0
H4159 H 0.78398 0.74733 0.81588 0.0
H4160 H 0.78309 0.71991 0.90377 0.0
H4161 H 0.83791 0.78736 0.83492 0.0
H4162 H 0.7844 0.73571 0.84731 0.0
H4163 H 0.83876 0.76832 0.89035 0.0
C4164 C 0.82592 0.75212 0.91187 0.0
C4165 C 0.81021 0.73851 0.91618 0.0
C4166 C 0.79616 0.74707 0.84464 0.0
C4167 C 0.81137 0.74958 0.87884 0.0
C4168 C 0.79597 0.75373 0.82662 0.0
C4169 C 0.81071 0.76891 0.82287 0.0
C4170 C 0.81129 0.75547 0.85907 0.0
C4171 C 0.82597 0.77621 0.83733 0.0
C4172 C 0.82655 0.7577 0.89329 0.0
C4173 C 0.79536 0.73071 0.90129 0.0
N4174 N 0.82581 0.76955 0.85483 0.0
N4175 N 0.79632 0.73636 0.88334 0.0
H4176 H 0.88984 0.10909 0.99815 0.0
H4177 H 0.91334 1.00257 0.00699 0.0
H4178 H 0.84842 0.05867 0.00947 0.0
H4179 H 0.94954 0.0491 0.9833 0.0
H4180 H 0.88902 0.0223 0.00772 0.0
H4181 H 0.91207 0.08715 0.99321 0.0
C4182 C 0.88548 0.09338 0.99964 0.0
C4183 C 0.86737 0.08565 1.00431 0.0
C4184 C 0.90223 0.02806 1.00218 0.0
C4185 C 0.8926 0.06041 0.99853 0.0
C4186 C 0.91604 0.01676 1.00165 0.0
C4187 C 0.93352 0.02435 0.9953 0.0
C4188 C 0.90604 0.04705 0.9964 0.0
C4189 C 0.93637 0.04289 0.98868 0.0
C4190 C 0.89809 0.08081 0.99667 0.0
C4191 C 0.86227 0.06513 1.00578 0.0
N4192 N 0.92285 0.0537 0.98959 0.0
N4193 N 0.8749 0.0532 1.00302 0.0
H4194 H 0.40795 0.49638 0.06077 0.0
H4195 H 0.50395 0.4926 0.01397 0.0
H4196 H 0.42308 0.44031 0.03638 0.0
H4197 H 0.49948 0.54177 0.0606 0.0
H4198 H 0.47291 0.47451 0.01927 0.0
H4199 H 0.44004 0.51472 0.0582 0.0
C4200 C 0.41805 0.48795 0.05497 0.0
C4201 C 0.4129 0.4668 0.04884 0.0
C4202 C 0.47873 0.48926 0.02835 0.0
C4203 C 0.44939 0.48763 0.04561 0.0
C4204 C 0.49647 0.49969 0.02531 0.0
C4205 C 0.50436 0.51895 0.03669 0.0
C4206 C 0.46855 0.49821 0.04267 0.0
C4207 C 0.49389 0.52716 0.05124 0.0
C4208 C 0.43633 0.49839 0.05358 0.0
C4209 C 0.42652 0.45659 0.04146 0.0
N4210 N 0.47644 0.51684 0.05369 0.0
N4211 N 0.44407 0.46711 0.03987 0.0
H4212 H 0.37943 0.66685 0.7429 0.0
H4213 H 0.32868 0.75254 0.80032 0.0
H4214 H 0.37585 0.67496 0.80596 0.0
H4215 H 0.33805 0.74468 0.73859 0.0
H4216 H 0.34383 0.72376 0.80326 0.0
H4217 H 0.36287 0.69409 0.74164 0.0
C4218 C 0.37513 0.67405 0.7566 0.0
C4219 C 0.37936 0.66783 0.77458 0.0
C4220 C 0.34247 0.72824 0.78902 0.0
C4221 C 0.35984 0.7004 0.77315 0.0
C4222 C 0.33362 0.74471 0.7873 0.0
C4223 C 0.33165 0.75126 0.76904 0.0
C4224 C 0.34963 0.71799 0.77241 0.0
C4225 C 0.3389 0.74039 0.75297 0.0
C4226 C 0.36561 0.68999 0.75583 0.0
C4227 C 0.37334 0.67883 0.79163 0.0
N4228 N 0.34733 0.72464 0.75501 0.0
N4229 N 0.36402 0.69425 0.79047 0.0
H4230 H 0.19947 0.57324 0.52804 0.0
H4231 H 0.09975 0.60281 0.52123 0.0
H4232 H 0.19196 0.6313 0.51712 0.0
H4233 H 0.10684 0.54158 0.51798 0.0
H4234 H 0.13388 0.61464 0.52359 0.0
H4235 H 0.16562 0.56247 0.52888 0.0
C4236 C 0.19068 0.58372 0.52588 0.0
C4237 C 0.19844 0.6031 0.52231 0.0
C4238 C 0.12794 0.59863 0.52252 0.0
C4239 C 0.15987 0.59088 0.52307 0.0
C4240 C 0.10856 0.59194 0.52123 0.0
C4241 C 0.10067 0.57135 0.52009 0.0
C4242 C 0.13935 0.58451 0.52237 0.0
C4243 C 0.11247 0.55767 0.5196 0.0
C4244 C 0.1714 0.57755 0.52625 0.0
C4245 C 0.18647 0.61609 0.51953 0.0
N4246 N 0.13127 0.56451 0.52085 0.0
N4247 N 0.16774 0.60973 0.51995 0.0
H4248 H 0.74828 0.94139 0.76001 0.0
H4249 H 0.85009 0.94517 0.80487 0.0
H4250 H 0.78819 0.9985 0.77854 0.0
H4251 H 0.8026 0.89742 0.80875 0.0
H4252 H 0.82854 0.96567 0.79535 0.0
H4253 H 0.76901 0.92485 0.77677 0.0
C4254 C 0.76137 0.95048 0.76768 0.0
C4255 C 0.76652 0.97135 0.76783 0.0
C4256 C 0.82289 0.95088 0.79872 0.0
C4257 C 0.79042 0.95246 0.78684 0.0
C4258 C 0.83514 0.93931 0.8043 0.0
C4259 C 0.82801 0.91959 0.80732 0.0
C4260 C 0.80356 0.94243 0.79603 0.0
C4261 C 0.80857 0.9125 0.80624 0.0
C4262 C 0.77319 0.94103 0.77726 0.0
C4263 C 0.78383 0.98229 0.7777 0.0
N4264 N 0.797 0.92378 0.80033 0.0
N4265 N 0.79526 0.97267 0.78673 0.0
H4266 H 0.71313 0.9349 0.52071 0.0
H4267 H 0.69695 0.04776 0.52787 0.0
H4268 H 0.75634 0.98909 0.54051 0.0
H4269 H 0.65366 0.99416 0.50592 0.0
H4270 H 0.71844 0.02626 0.53395 0.0
H4271 H 0.69075 0.95608 0.51633 0.0
C4272 C 0.71793 0.95124 0.52411 0.0
C4273 C 0.73668 0.9602 0.53101 0.0
C4274 C 0.70424 0.01916 0.52784 0.0
C4275 C 0.71107 0.98454 0.5262 0.0
C4276 C 0.69197 0.03145 0.52426 0.0
C4277 C 0.6735 0.02278 0.51619 0.0
C4278 C 0.69806 0.99797 0.52331 0.0
C4279 C 0.66774 1.00152 0.51225 0.0
C4280 C 0.70511 0.96332 0.52171 0.0
C4281 C 0.742 0.98146 0.53544 0.0
N4282 N 0.68 0.98985 0.51575 0.0
N4283 N 0.72929 0.99287 0.53292 0.0
H4284 H 0.40207 0.45276 0.78026 0.0
H4285 H 0.30791 0.36474 0.75301 0.0
H4286 H 0.34955 0.46427 0.75942 0.0
H4287 H 0.35718 0.3579 0.78574 0.0
H4288 H 0.32311 0.40022 0.75318 0.0
H4289 H 0.38639 0.41756 0.78015 0.0
C4290 C 0.38726 0.44797 0.77552 0.0
C4291 C 0.37731 0.4619 0.76977 0.0
C4292 C 0.33059 0.39099 0.7604 0.0
C4293 C 0.35897 0.42087 0.76967 0.0
C4294 C 0.32182 0.37061 0.7604 0.0
C4295 C 0.33095 0.35801 0.76967 0.0
C4296 C 0.34892 0.39908 0.76945 0.0
C4297 C 0.34933 0.36676 0.77848 0.0
C4298 C 0.37824 0.42774 0.77559 0.0
C4299 C 0.35796 0.45442 0.76415 0.0
N4300 N 0.3576 0.38651 0.77809 0.0
N4301 N 0.34954 0.43458 0.76414 0.0
H4302 H 0.21847 0.65729 0.24682 0.0
H4303 H 0.29785 0.75221 0.29285 0.0
H4304 H 0.25777 0.65451 0.2946 0.0
H4305 H 0.24295 0.75852 0.27312 0.0
H4306 H 0.28548 0.71582 0.29082 0.0
H4307 H 0.22962 0.6942 0.2527 0.0
C4308 C 0.22948 0.66452 0.25851 0.0
C4309 C 0.2373 0.65304 0.27025 0.0
C4310 C 0.27615 0.72522 0.28707 0.0
C4311 C 0.24997 0.69488 0.27703 0.0
C4312 C 0.2832 0.74584 0.28802 0.0
C4313 C 0.27142 0.758 0.28246 0.0
C4314 C 0.25732 0.71687 0.28031 0.0
C4315 C 0.25245 0.74938 0.27705 0.0
C4316 C 0.23568 0.68549 0.26196 0.0
C4317 C 0.25141 0.66299 0.28533 0.0
N4318 N 0.24599 0.72914 0.27572 0.0
N4319 N 0.25747 0.68343 0.2882 0.0
H4320 H 0.53984 0.66546 0.44272 0.0
H4321 H 0.53839 0.60096 0.53033 0.0
H4322 H 0.52589 0.68826 0.50115 0.0
H4323 H 0.54558 0.57873 0.46945 0.0
H4324 H 0.53571 0.63379 0.52144 0.0
H4325 H 0.54395 0.63464 0.4536 0.0
C4326 C 0.53777 0.66415 0.45793 0.0
C4327 C 0.53262 0.67982 0.47099 0.0
C4328 C 0.53798 0.62175 0.51007 0.0
C4329 C 0.53711 0.6438 0.48366 0.0
C4330 C 0.53968 0.60309 0.51519 0.0
C4331 C 0.54261 0.58721 0.50066 0.0
C4332 C 0.53916 0.62449 0.49029 0.0
C4333 C 0.5436 0.59061 0.48117 0.0
C4334 C 0.54001 0.64633 0.46414 0.0
C4335 C 0.52974 0.67666 0.49043 0.0
N4336 N 0.54199 0.60875 0.47663 0.0
N4337 N 0.53206 0.65911 0.49617 0.0
H4338 H 0.66833 0.31575 0.70827 0.0
H4339 H 0.77581 0.30733 0.70821 0.0
H4340 H 0.70096 0.32632 0.65917 0.0
H4341 H 0.74593 0.31105 0.76051 0.0
H4342 H 0.74823 0.3121 0.68918 0.0
H4343 H 0.69625 0.31217 0.72684 0.0
C4344 C 0.68133 0.31755 0.70136 0.0
C4345 C 0.68205 0.32155 0.68199 0.0
C4346 C 0.74779 0.31204 0.70486 0.0
C4347 C 0.71435 0.31684 0.70331 0.0
C4348 C 0.76352 0.30929 0.71572 0.0
C4349 C 0.76337 0.30918 0.7361 0.0
C4350 C 0.73162 0.31434 0.71435 0.0
C4351 C 0.74696 0.31162 0.74499 0.0
C4352 C 0.69733 0.31532 0.71201 0.0
C4353 C 0.69945 0.32302 0.67388 0.0
N4354 N 0.73181 0.314 0.7341 0.0
N4355 N 0.71481 0.32063 0.68452 0.0
H4356 H 0.0175 0.38876 0.95044 0.0
H4357 H 0.05506 0.49101 0.03083 0.0
H4358 H 0.04829 0.3891 1.00567 0.0
H4359 H 0.04223 0.48953 0.96874 0.0
H4360 H 0.04746 0.45358 0.02437 0.0
H4361 H 0.02138 0.42546 0.95941 0.0
C4362 C 0.02491 0.39649 0.96459 0.0
C4363 C 0.03251 0.38567 0.97733 0.0
C4364 C 0.04614 0.46149 0.01222 0.0
C4365 C 0.03712 0.42807 0.9877 0.0
C4366 C 0.05028 0.48281 0.01594 0.0
C4367 C 0.04902 0.49335 1.00031 0.0
C4368 C 0.04063 0.45069 0.99277 0.0
C4369 C 0.04322 0.48199 0.98122 0.0
C4370 C 0.02723 0.41754 0.96965 0.0
C4371 C 0.04229 0.39677 0.99532 0.0
N4372 N 0.0392 0.46137 0.97801 0.0
N4373 N 0.04428 0.41732 0.99999 0.0
H4374 H 0.98179 0.7946 0.16126 0.0
H4375 H 0.94869 0.82016 0.27012 0.0
H4376 H 0.01845 0.82823 0.21252 0.0
H4377 H 0.91084 0.78631 0.21991 0.0
H4378 H 0.97395 0.8244 0.24856 0.0
H4379 H 0.95544 0.79208 0.18181 0.0
C4380 C 0.98437 0.80141 0.17682 0.0
C4381 C 1.00249 0.81165 0.1851 0.0
C4382 C 0.96014 0.81609 0.24217 0.0
C4383 C 0.97221 0.80901 0.20871 0.0
C4384 C 0.94568 0.81361 0.25452 0.0
C4385 C 0.92761 0.80264 0.2469 0.0
C4386 C 0.95667 0.80752 0.22192 0.0
C4387 C 0.92452 0.7949 0.22644 0.0
C4388 C 0.96925 0.80007 0.18852 0.0
C4389 C 1.00478 0.82043 0.20533 0.0
N4390 N 0.93893 0.79734 0.21469 0.0
N4391 N 0.98989 0.81886 0.21637 0.0
H4392 H 0.5204 0.32963 0.06621 0.0
H4393 H 0.57174 0.43793 0.0465 0.0
H4394 H 0.5475 0.37987 0.11238 0.0
H4395 H 0.53401 0.3935 1.0023 0.0
H4396 H 0.56611 0.41492 0.06988 0.0
H4397 H 0.52782 0.35127 0.04173 0.0
C4398 C 0.52779 0.34524 0.07122 0.0
C4399 C 0.53327 0.35299 0.09139 0.0
C4400 C 0.55913 0.41013 0.05504 0.0
C4401 C 0.54214 0.3776 0.06344 0.0
C4402 C 0.56234 0.42324 0.04169 0.0
C4403 C 0.55316 0.41766 0.02251 0.0
C4404 C 0.54675 0.39121 0.04915 0.0
C4405 C 0.54143 0.39832 0.01692 0.0
C4406 C 0.53213 0.35751 0.05722 0.0
C4407 C 0.54319 0.37318 0.09698 0.0
N4408 N 0.53845 0.38579 0.03026 0.0
N4409 N 0.54731 0.38479 0.08307 0.0
H4410 H 1.00046 0.30159 0.30004 0.0
H4411 H 0.9388 0.38537 0.30485 0.0
H4412 H 0.01272 0.3582 0.34186 0.0
H4413 H 0.92185 0.32535 0.26914 0.0
H4414 H 0.96885 0.37788 0.31422 0.0
H4415 H 0.97422 0.31215 0.28451 0.0
C4416 C 0.99768 0.31629 0.30582 0.0
C4417 C 0.00851 0.32894 0.32239 0.0
C4418 C 0.95863 0.36642 0.30415 0.0
C4419 C 0.97872 0.34109 0.30482 0.0
C4420 C 0.94157 0.37076 0.29868 0.0
C4421 C 0.92782 0.35588 0.28637 0.0
C4422 C 0.96191 0.34708 0.29723 0.0
C4423 C 0.93201 0.33712 0.27893 0.0
C4424 C 0.98272 0.32229 0.29702 0.0
C4425 C 1.0044 0.34783 0.32936 0.0
N4426 N 0.94865 0.33318 0.28462 0.0
N4427 N 0.98976 0.3533 0.3206 0.0
H4428 H 0.99117 0.66762 0.59258 0.0
H4429 H 0.07017 0.60653 0.56826 0.0
H4430 H 0.05028 0.69516 0.60232 0.0
H4431 H 0.01412 0.58636 0.53903 0.0
H4432 H 0.06238 0.63815 0.58337 0.0
H4433 H 0.99861 0.63677 0.57445 0.0
C4434 C 1.00568 0.66727 0.59072 0.0
C4435 C 0.02016 0.68387 0.59915 0.0
C4436 C 0.05183 0.62685 0.57354 0.0
C4437 C 0.02868 0.64869 0.57889 0.0
C4438 C 0.05623 0.60876 0.56503 0.0
C4439 C 0.04277 0.59387 0.55238 0.0
C4440 C 0.0338 0.62993 0.56956 0.0
C4441 C 0.02493 0.59756 0.54862 0.0
C4442 C 0.00989 0.64966 0.58047 0.0
C4443 C 0.03871 0.68253 0.59648 0.0
N4444 N 0.0209 0.61526 0.55729 0.0
N4445 N 0.04245 0.66515 0.58673 0.0
H4446 H 0.67354 0.8167 0.79744 0.0
H4447 H 0.76334 0.81978 0.76672 0.0
H4448 H 0.69893 0.81346 0.85445 0.0
H4449 H 0.78125 0.82764 0.82864 0.0
H4450 H 0.73151 0.82002 0.77497 0.0
H4451 H 0.70432 0.82231 0.78519 0.0
C4452 C 0.68563 0.81703 0.80732 0.0
C4453 C 0.68365 0.81446 0.82694 0.0
C4454 C 0.74226 0.82197 0.78691 0.0
C4455 C 0.71912 0.82073 0.81304 0.0
C4456 C 0.76043 0.82153 0.78209 0.0
C4457 C 0.77446 0.82242 0.79696 0.0
C4458 C 0.73834 0.82349 0.80683 0.0
C4459 C 0.77052 0.82618 0.81672 0.0
C4460 C 0.7033 0.82016 0.8003 0.0
C4461 C 0.69974 0.81497 0.8391 0.0
N4462 N 0.75269 0.82608 0.82107 0.0
N4463 N 0.71676 0.81808 0.83196 0.0
H4464 H 0.47221 0.53665 0.66165 0.0
H4465 H 0.54615 0.58779 0.59107 0.0
H4466 H 0.50659 0.59705 0.67883 0.0
H4467 H 0.51101 0.52789 0.57398 0.0
H4468 H 0.53224 0.59141 0.6229 0.0
H4469 H 0.48638 0.53324 0.63016 0.0
C4470 C 0.48279 0.54926 0.65911 0.0
C4471 C 0.48795 0.56723 0.67367 0.0
C4472 C 0.52754 0.57743 0.61224 0.0
C4473 C 0.50451 0.5633 0.63636 0.0
C4474 C 0.53561 0.57528 0.59389 0.0
C4475 C 0.5301 0.55737 0.57937 0.0
C4476 C 0.51359 0.56162 0.6166 0.0
C4477 C 0.51599 0.54201 0.58435 0.0
C4478 C 0.49087 0.54728 0.64078 0.0
C4479 C 0.50168 0.58291 0.66849 0.0
N4480 N 0.5084 0.54447 0.60226 0.0
N4481 N 0.50934 0.58056 0.65059 0.0
H4482 H 0.7633 0.19115 0.92485 0.0
H4483 H 0.79709 0.28792 0.87663 0.0
H4484 H 0.81973 0.22723 0.93519 0.0
H4485 H 0.74362 0.24606 0.86026 0.0
H4486 H 0.80692 0.26433 0.89562 0.0
H4487 H 0.75689 0.20947 0.89883 0.0
C4488 C 0.77438 0.20286 0.92145 0.0
C4489 C 0.79197 0.20794 0.93221 0.0
C4490 C 0.79311 0.26021 0.8877 0.0
C4491 C 0.78479 0.22903 0.90264 0.0
C4492 C 0.78751 0.27364 0.87681 0.0
C4493 C 0.76938 0.26908 0.86715 0.0
C4494 C 0.78045 0.24219 0.889 0.0
C4495 C 0.75754 0.25042 0.86794 0.0
C4496 C 0.77077 0.21326 0.90658 0.0
C4497 C 0.80598 0.22297 0.92716 0.0
N4498 N 0.76321 0.23775 0.87886 0.0
N4499 N 0.802 0.23324 0.91287 0.0
H4500 H 0.16751 0.53191 0.13329 0.0
H4501 H 0.06393 0.51439 0.08176 0.0
H4502 H 0.11857 0.5092 0.1618 0.0
H4503 H 0.11257 0.55418 0.0662 0.0
H4504 H 0.08359 0.50722 0.10841 0.0
H4505 H 0.14725 0.53415 0.10493 0.0
C4506 C 0.15248 0.52725 0.13348 0.0
C4507 C 0.14466 0.52055 0.14992 0.0
C4508 C 0.08984 0.51749 0.09907 0.0
C4509 C 0.12144 0.52306 0.11764 0.0
C4510 C 0.07865 0.52167 0.08397 0.0
C4511 C 0.08658 0.53503 0.07184 0.0
C4512 C 0.10903 0.5265 0.10172 0.0
C4513 C 0.10579 0.54382 0.07516 0.0
C4514 C 0.14093 0.52852 0.11733 0.0
C4515 C 0.12512 0.51433 0.14932 0.0
N4516 N 0.11634 0.53934 0.08975 0.0
N4517 N 0.11411 0.51589 0.13344 0.0
H4518 H 0.80343 0.81395 0.42982 0.0
H4519 H 0.81195 0.85208 0.32666 0.0
H4520 H 0.82087 0.87643 0.42352 0.0
H4521 H 0.80268 0.78864 0.32975 0.0
H4522 H 0.81593 0.86061 0.36261 0.0
H4523 H 0.80311 0.80358 0.39372 0.0
C4524 C 0.80722 0.82546 0.4209 0.0
C4525 C 0.81232 0.8461 0.42978 0.0
C4526 C 0.81325 0.8448 0.35558 0.0
C4527 C 0.81205 0.83437 0.38864 0.0
C4528 C 0.81103 0.83995 0.33504 0.0
C4529 C 0.80733 0.8197 0.32534 0.0
C4530 C 0.81125 0.82924 0.36669 0.0
C4531 C 0.80592 0.80448 0.33679 0.0
C4532 C 0.80716 0.81952 0.40035 0.0
C4533 C 0.81719 0.86034 0.41749 0.0
N4534 N 0.80777 0.80956 0.35697 0.0
N4535 N 0.81688 0.85421 0.39766 0.0
H4536 H 0.46438 0.562 0.89418 0.0
H4537 H 0.55688 0.55809 0.96305 0.0
H4538 H 0.51934 0.57279 0.87324 0.0
H4539 H 0.50158 0.55374 0.98236 0.0
H4540 H 0.54421 0.56123 0.92977 0.0
H4541 H 0.47823 0.55742 0.92553 0.0
C4542 C 0.47938 0.56365 0.89592 0.0
C4543 C 0.49037 0.56815 0.88028 0.0
C4544 C 0.53482 0.55947 0.94126 0.0
C4545 C 0.5068 0.56217 0.91743 0.0
C4546 C 0.54208 0.55751 0.96035 0.0
C4547 C 0.53037 0.55542 0.97589 0.0
C4548 C 0.51561 0.55943 0.9374 0.0
C4549 C 0.51131 0.55519 0.97113 0.0
C4550 C 0.48737 0.56078 0.91413 0.0
C4551 C 0.50986 0.56927 0.88426 0.0
N4552 N 0.5047 0.55712 0.9527 0.0
N4553 N 0.51729 0.56638 0.90215 0.0
H4554 H 0.77751 0.20522 0.1206 0.0
H4555 H 0.81166 0.30469 0.20296 0.0
H4556 H 0.82881 0.24876 0.11815 0.0
H4557 H 0.7821 0.24744 0.21531 0.0
H4558 H 0.81215 0.28831 0.16852 0.0
H4559 H 0.77325 0.22488 0.15234 0.0
C4560 C 0.78793 0.21888 0.12674 0.0
C4561 C 0.80382 0.22508 0.11692 0.0
C4562 C 0.8055 0.27948 0.17884 0.0
C4563 C 0.79857 0.24794 0.15286 0.0
C4564 C 0.80532 0.28873 0.19849 0.0
C4565 C 0.79749 0.27724 0.21221 0.0
C4566 C 0.79724 0.25882 0.17287 0.0
C4567 C 0.78865 0.25682 0.20537 0.0
C4568 C 0.78536 0.23015 0.14475 0.0
C4569 C 0.8164 0.24338 0.12522 0.0
N4570 N 0.78884 0.24823 0.18617 0.0
N4571 N 0.81356 0.25416 0.14284 0.0
H4572 H 0.12957 0.49921 0.33436 0.0
H4573 H 0.05146 0.55358 0.38176 0.0
H4574 H 0.11593 0.55281 0.31789 0.0
H4575 H 0.0702 0.50542 0.40426 0.0
H4576 H 0.07315 0.55141 0.35614 0.0
H4577 H 0.10649 0.49968 0.35874 0.0
C4578 C 0.12176 0.51109 0.33591 0.0
C4579 C 0.12457 0.52591 0.32401 0.0
C4580 C 0.07246 0.54125 0.36664 0.0
C4581 C 0.09808 0.52639 0.35158 0.0
C4582 C 0.05997 0.54238 0.38112 0.0
C4583 C 0.0591 0.52969 0.39511 0.0
C4584 C 0.08408 0.5273 0.36614 0.0
C4585 C 0.07062 0.51563 0.39384 0.0
C4586 C 0.10854 0.51129 0.34973 0.0
C4587 C 0.11396 0.54085 0.32648 0.0
N4588 N 0.08269 0.51484 0.37963 0.0
N4589 N 0.10117 0.54069 0.33997 0.0
H4590 H 0.79408 0.81904 0.61477 0.0
H4591 H 0.82499 0.84584 0.73109 0.0
H4592 H 0.81696 0.88003 0.64622 0.0
H4593 H 0.7872 0.79013 0.70284 0.0
H4594 H 0.82516 0.85764 0.69939 0.0
H4595 H 0.79425 0.80709 0.64635 0.0
C4596 C 0.79918 0.82988 0.62832 0.0
C4597 C 0.80543 0.85056 0.6279 0.0
C4598 C 0.81668 0.84292 0.70017 0.0
C4599 C 0.80573 0.83704 0.66399 0.0
C4600 C 0.81662 0.8362 0.7182 0.0
C4601 C 0.80562 0.81729 0.71959 0.0
C4602 C 0.80597 0.83039 0.68337 0.0
C4603 C 0.79523 0.80516 0.70251 0.0
C4604 C 0.79918 0.82309 0.64632 0.0
C4605 C 0.8118 0.864 0.6459 0.0
N4606 N 0.7957 0.81189 0.68505 0.0
N4607 N 0.81186 0.857 0.6632 0.0
H4608 H 0.76589 0.53513 0.5342 0.0
H4609 H 0.66109 0.53867 0.55285 0.0
H4610 H 0.72043 0.4823 0.52115 0.0
H4611 H 0.69918 0.59062 0.53934 0.0
H4612 H 0.68448 0.5186 0.54599 0.0
H4613 H 0.74309 0.55661 0.53996 0.0
C4614 C 0.75109 0.52813 0.53236 0.0
C4615 C 0.74492 0.50699 0.52721 0.0
C4616 C 0.68772 0.53439 0.54451 0.0
C4617 C 0.71905 0.53124 0.53402 0.0
C4618 C 0.6744 0.54587 0.54842 0.0
C4619 C 0.67807 0.56627 0.54628 0.0
C4620 C 0.70501 0.5434 0.53877 0.0
C4621 C 0.69579 0.57496 0.54116 0.0
C4622 C 0.73816 0.54034 0.53561 0.0
C4623 C 0.72568 0.49856 0.52493 0.0
N4624 N 0.70867 0.56342 0.53752 0.0
N4625 N 0.71339 0.51073 0.52858 0.0
H4626 H 0.20608 0.10487 0.48922 0.0
H4627 H 0.1126 0.10262 0.54304 0.0
H4628 H 0.19392 0.1577 0.52564 0.0
H4629 H 0.11471 0.06008 0.48958 0.0
H4630 H 0.14392 0.12111 0.53914 0.0
H4631 H 0.17405 0.08644 0.49108 0.0
C4632 C 0.19674 0.11271 0.49749 0.0
C4633 C 0.20296 0.13295 0.50741 0.0
C4634 C 0.13754 0.10771 0.52827 0.0
C4635 C 0.16633 0.11165 0.50994 0.0
C4636 C 0.11964 0.09706 0.5305 0.0
C4637 C 0.11101 0.07951 0.51677 0.0
C4638 C 0.1471 0.10072 0.51231 0.0
C4639 C 0.12089 0.07326 0.50075 0.0
C4640 C 0.17846 0.10209 0.49861 0.0
C4641 C 0.19011 0.14203 0.51815 0.0
N4642 N 0.13848 0.08375 0.49904 0.0
N4643 N 0.17254 0.13129 0.51923 0.0
H4644 H 0.2281 0.92128 0.80203 0.0
H4645 H 0.28082 0.83804 0.74361 0.0
H4646 H 0.23682 0.91844 0.74024 0.0
H4647 H 0.26922 0.84312 0.80465 0.0
H4648 H 0.26646 0.86753 0.74148 0.0
H4649 H 0.24375 0.89329 0.80251 0.0
C4650 C 0.23306 0.9149 0.78838 0.0
C4651 C 0.23056 0.92291 0.771 0.0
C4652 C 0.26715 0.86228 0.75539 0.0
C4653 C 0.24957 0.88977 0.77168 0.0
C4654 C 0.27557 0.8454 0.75666 0.0
C4655 C 0.27668 0.83786 0.77449 0.0
C4656 C 0.25949 0.87189 0.77199 0.0
C4657 C 0.26902 0.84817 0.79059 0.0
C4658 C 0.24231 0.89871 0.78876 0.0
C4659 C 0.2382 0.91347 0.7542 0.0
N4660 N 0.26095 0.86426 0.78896 0.0
N4661 N 0.24715 0.89768 0.75497 0.0
H4662 H 0.41566 0.95736 0.0074 0.0
H4663 H 0.50653 0.04712 0.0259 0.0
H4664 H 0.41658 0.01895 0.0354 0.0
H4665 H 0.50853 0.98448 0.0068 0.0
H4666 H 0.47279 0.0376 0.02427 0.0
H4667 H 0.44878 0.96749 1.00265 0.0
C4668 C 0.42285 0.97301 0.01266 0.0
C4669 C 0.41342 0.98729 0.02213 0.0
C4670 C 0.48051 0.0259 0.0202 0.0
C4671 C 0.4512 0.99899 0.01636 0.0
C4672 C 0.49987 0.03139 0.02088 0.0
C4673 C 0.51035 0.01663 0.01591 0.0
C4674 C 0.47152 1.00539 0.01502 0.0
C4675 C 0.50087 0.99631 0.01046 0.0
C4676 C 0.44171 0.97878 0.00978 0.0
C4677 C 0.42328 1.00745 0.02804 0.0
N4678 N 0.48192 0.99123 0.01018 0.0
N4679 N 0.44168 0.01268 0.02515 0.0
H4680 H 0.88589 0.65816 0.78582 0.0
H4681 H 0.78937 0.68571 0.75505 0.0
H4682 H 0.83274 0.63117 0.80452 0.0
H4683 H 0.8414 0.70669 0.73087 0.0
H4684 H 0.80594 0.67 0.77758 0.0
H4685 H 0.87082 0.68109 0.77076 0.0
C4686 C 0.87113 0.65742 0.78721 0.0
C4687 C 0.86048 0.64264 0.79626 0.0
C4688 C 0.81374 0.67808 0.76738 0.0
C4689 C 0.84309 0.6684 0.77859 0.0
C4690 C 0.8043 0.687 0.75452 0.0
C4691 C 0.81402 0.6972 0.74091 0.0
C4692 C 0.83303 0.6794 0.76661 0.0
C4693 C 0.83335 0.69853 0.74084 0.0
C4694 C 0.8625 0.67036 0.7784 0.0
C4695 C 0.84137 0.64216 0.79739 0.0
N4696 N 0.84223 0.68964 0.75347 0.0
N4697 N 0.83321 0.6547 0.78841 0.0
H4698 H 0.89046 0.65373 0.05253 0.0
H4699 H 0.94565 0.56994 0.00909 0.0
H4700 H 0.87328 0.61459 0.99544 0.0
H4701 H 0.94209 0.58829 0.07163 0.0
H4702 H 0.92364 0.59107 1.00228 0.0
H4703 H 0.91391 0.63437 0.05826 0.0
C4704 C 0.89147 0.64104 0.0412 0.0
C4705 C 0.87956 0.63572 0.02353 0.0
C4706 C 0.92773 0.59045 0.01747 0.0
C4707 C 0.90697 0.6139 0.02987 0.0
C4708 C 0.9403 0.57852 0.02135 0.0
C4709 C 0.9455 0.5773 0.04094 0.0
C4710 C 0.92068 0.60152 0.03331 0.0
C4711 C 0.93821 0.58867 0.05633 0.0
C4712 C 0.905 0.6301 0.04447 0.0
C4713 C 0.88217 0.61949 0.0092 0.0
N4714 N 0.92622 0.60037 0.0522 0.0
N4715 N 0.89559 0.60918 0.01267 0.0
H4716 H 0.21018 0.14082 0.76897 0.0
H4717 H 0.30446 0.2285 0.79643 0.0
H4718 H 0.26281 0.12891 0.78927 0.0
H4719 H 0.25513 0.23551 0.76392 0.0
H4720 H 0.2892 0.193 0.7962 0.0
H4721 H 0.22595 0.1758 0.76912 0.0
C4722 C 0.22506 0.14525 0.77332 0.0
C4723 C 0.23494 0.13115 0.77893 0.0
C4724 C 0.28172 0.20228 0.78905 0.0
C4725 C 0.2533 0.17242 0.77967 0.0
C4726 C 0.29052 0.22267 0.78909 0.0
C4727 C 0.28139 0.23533 0.77989 0.0
C4728 C 0.26337 0.19424 0.78003 0.0
C4729 C 0.26299 0.22662 0.77113 0.0
C4730 C 0.23408 0.16555 0.77354 0.0
C4731 C 0.25424 0.13879 0.78499 0.0
N4732 N 0.2547 0.20687 0.77146 0.0
N4733 N 0.26265 0.15867 0.78521 0.0
H4734 H 0.34568 0.95489 0.30564 0.0
H4735 H 0.36502 0.84515 0.27868 0.0
H4736 H 0.39758 0.94448 0.28339 0.0
H4737 H 0.30952 0.85581 0.26996 0.0
H4738 H 0.37776 0.8818 0.28443 0.0
H4739 H 0.33225 0.91857 0.29622 0.0
C4740 C 0.35427 0.94508 0.29879 0.0
C4741 C 0.3729 0.95285 0.29549 0.0
C4742 C 0.3628 0.87609 0.28122 0.0
C4743 C 0.35776 0.9113 0.28545 0.0
C4744 C 0.35556 0.85529 0.27803 0.0
C4745 C 0.33622 0.84773 0.2746 0.0
C4746 C 0.35054 0.88926 0.2809 0.0
C4747 C 0.32449 0.86125 0.27331 0.0
C4748 C 0.3466 0.92435 0.29355 0.0
C4749 C 0.38337 0.93923 0.28681 0.0
N4750 N 0.33182 0.88151 0.27677 0.0
N4751 N 0.37571 0.9191 0.28228 0.0
H4752 H 0.58641 0.43145 0.60371 0.0
H4753 H 0.57062 0.49124 0.51573 0.0
H4754 H 0.57564 0.4004 0.54285 0.0
H4755 H 0.56678 0.51364 0.57743 0.0
H4756 H 0.57426 0.4585 0.52417 0.0
H4757 H 0.58163 0.46236 0.59338 0.0
C4758 C 0.58318 0.4311 0.58811 0.0
C4759 C 0.5816 0.41312 0.57418 0.0
C4760 C 0.57248 0.47056 0.53581 0.0
C4761 C 0.57585 0.44895 0.5621 0.0
C4762 C 0.57027 0.48918 0.53096 0.0
C4763 C 0.56793 0.50506 0.54585 0.0
C4764 C 0.57278 0.46801 0.55572 0.0
C4765 C 0.56826 0.50177 0.56543 0.0
C4766 C 0.58028 0.44883 0.5822 0.0
C4767 C 0.57695 0.41378 0.55419 0.0
N4768 N 0.57062 0.48378 0.56975 0.0
N4769 N 0.57435 0.43138 0.54874 0.0
H4770 H 0.43 0.75223 0.34044 0.0
H4771 H 0.34961 0.81514 0.33575 0.0
H4772 H 0.42228 0.7985 0.38841 0.0
H4773 H 0.35041 0.76127 0.2933 0.0
H4774 H 0.37682 0.81 0.35457 0.0
H4775 H 0.40168 0.75596 0.32239 0.0
C4776 C 0.42236 0.76306 0.34733 0.0
C4777 C 0.42882 0.77508 0.36612 0.0
C4778 C 0.3711 0.79933 0.34108 0.0
C4779 C 0.39628 0.77969 0.34513 0.0
C4780 C 0.35551 0.8023 0.33022 0.0
C4781 C 0.34785 0.78898 0.31245 0.0
C4782 C 0.37924 0.7829 0.33422 0.0
C4783 C 0.35606 0.77234 0.30649 0.0
C4784 C 0.40618 0.76527 0.33689 0.0
C4785 C 0.41827 0.78912 0.37389 0.0
N4786 N 0.37132 0.76988 0.31722 0.0
N4787 N 0.40268 0.79106 0.36339 0.0
H4788 H 0.0662 0.70537 0.04094 0.0
H4789 H 0.07508 0.60354 0.07831 0.0
H4790 H 0.09349 0.7041 0.09762 0.0
H4791 H 0.06125 0.60392 0.01682 0.0
H4792 H 0.08179 0.64054 0.08525 0.0
H4793 H 0.06358 0.66859 0.03151 0.0
C4794 C 0.07168 0.69742 0.0514 0.0
C4795 C 0.08014 0.708 0.07013 0.0
C4796 C 0.07753 0.63266 0.07016 0.0
C4797 C 0.07717 0.66581 0.05937 0.0
C4798 C 0.07375 0.6115 0.0662 0.0
C4799 C 0.06784 0.60066 0.04695 0.0
C4800 C 0.07489 0.64326 0.05487 0.0
C4801 C 0.06606 0.61173 0.03182 0.0
C4802 C 0.07029 0.67643 0.04593 0.0
C4803 C 0.0871 0.6968 0.08294 0.0
N4804 N 0.06938 0.63244 0.03614 0.0
N4805 N 0.08534 0.67643 0.07739 0.0
H4806 H 0.10079 0.30885 0.85036 0.0
H4807 H 0.1923 0.27047 0.81614 0.0
H4808 H 0.1198 0.26086 0.87293 0.0
H4809 H 0.17425 0.32119 0.79817 0.0
H4810 H 0.16665 0.26696 0.83775 0.0
H4811 H 0.12807 0.31357 0.83161 0.0
C4812 C 0.11075 0.29938 0.85154 0.0
C4813 C 0.10788 0.28447 0.86341 0.0
C4814 C 0.16838 0.2789 0.82912 0.0
C4815 C 0.13931 0.28964 0.8415 0.0
C4816 C 0.1831 0.281 0.81688 0.0
C4817 C 0.18535 0.296 0.80509 0.0
C4818 C 0.15583 0.29192 0.82962 0.0
C4819 C 0.17288 0.30912 0.80662 0.0
C4820 C 0.12635 0.30202 0.84069 0.0
C4821 C 0.12121 0.27239 0.86385 0.0
N4822 N 0.15868 0.3067 0.8185 0.0
N4823 N 0.1363 0.27522 0.85307 0.0
H4824 H 0.59728 0.76952 0.98202 0.0
H4825 H 0.54755 0.65888 0.99737 0.0
H4826 H 0.57016 0.72088 0.93434 0.0
H4827 H 0.58289 0.70336 0.04351 0.0
H4828 H 0.55376 0.68254 0.97468 0.0
H4829 H 0.5906 0.74641 1.00531 0.0
C4830 C 0.59004 0.75396 0.97642 0.0
C4831 C 0.58428 0.74713 0.95618 0.0
C4832 C 0.56013 0.68717 0.98977 0.0
C4833 C 0.5763 0.72077 0.98281 0.0
C4834 C 0.55662 0.67366 1.00274 0.0
C4835 C 0.56485 0.67912 0.02233 0.0
C4836 C 0.57185 0.70638 0.99645 0.0
C4837 C 0.57616 0.69861 0.02858 0.0
C4838 C 0.58612 0.74083 0.98975 0.0
C4839 C 0.57462 0.72691 0.94983 0.0
N4840 N 0.5794 0.71155 0.01563 0.0
N4841 N 0.57092 0.71446 0.96311 0.0
H4842 H 0.11391 0.80275 0.72063 0.0
H4843 H 0.16305 0.72224 0.758 0.0
H4844 H 0.08331 0.75148 0.7428 0.0
H4845 H 0.19245 0.78451 0.76207 0.0
H4846 H 0.13386 0.73184 0.7497 0.0
H4847 H 0.14316 0.79591 0.73354 0.0
C4848 C 0.11327 0.79027 0.72847 0.0
C4849 C 0.09606 0.77756 0.73045 0.0
C4850 C 0.14671 0.7434 0.75254 0.0
C4851 C 0.12951 0.76937 0.7447 0.0
C4852 C 0.1634 0.73797 0.75737 0.0
C4853 C 0.18034 0.75256 0.76079 0.0
C4854 C 0.1469 0.76351 0.75079 0.0
C4855 C 0.17985 0.77262 0.75922 0.0
C4856 C 0.13 0.78631 0.73571 0.0
C4857 C 0.09622 0.7614 0.74048 0.0
N4858 N 0.16342 0.77748 0.75419 0.0
N4859 N 0.11268 0.75763 0.74701 0.0
H4860 H 0.12686 0.41318 0.47049 0.0
H4861 H 0.05219 0.48255 0.47681 0.0
H4862 H 0.08921 0.41571 0.42107 0.0
H4863 H 0.10031 0.49473 0.51969 0.0
H4864 H 0.0643 0.4557 0.45761 0.0
H4865 H 0.11633 0.44145 0.4902 0.0
C4866 C 0.1166 0.41988 0.46375 0.0
C4867 C 0.10903 0.41232 0.44412 0.0
C4868 C 0.07219 0.46424 0.47124 0.0
C4869 C 0.09678 0.4441 0.46645 0.0
C4870 C 0.06524 0.47953 0.48228 0.0
C4871 C 0.07521 0.49086 0.49994 0.0
C4872 C 0.08913 0.46014 0.47799 0.0
C4873 C 0.09207 0.48623 0.50626 0.0
C4874 C 0.11061 0.43593 0.47495 0.0
C4875 C 0.09569 0.42137 0.43604 0.0
N4876 N 0.09851 0.47114 0.49528 0.0
N4877 N 0.08989 0.43669 0.44729 0.0
H4878 H 0.43486 0.26272 0.23401 0.0
H4879 H 0.33502 0.28361 0.21953 0.0
H4880 H 0.42599 0.31316 0.20744 0.0
H4881 H 0.35416 0.27547 0.27726 0.0
H4882 H 0.36696 0.28597 0.20963 0.0
H4883 H 0.40395 0.26009 0.2463 0.0
C4884 C 0.42665 0.27343 0.23093 0.0
C4885 C 0.4331 0.28809 0.21942 0.0
C4886 C 0.3641 0.28365 0.22444 0.0
C4887 C 0.39754 0.28433 0.23266 0.0
C4888 C 0.34604 0.28236 0.23006 0.0
C4889 C 0.34242 0.2801 0.24936 0.0
C4890 C 0.37829 0.28189 0.23804 0.0
C4891 C 0.35681 0.27789 0.26244 0.0
C4892 C 0.40897 0.27172 0.23782 0.0
C4893 C 0.4215 0.3012 0.21567 0.0
N4894 N 0.37429 0.27882 0.25652 0.0
N4895 N 0.40414 0.29878 0.22199 0.0
H4896 H 0.60712 0.49441 0.36954 0.0
H4897 H 0.59763 0.567 0.47311 0.0
H4898 H 0.63466 0.55775 0.38474 0.0
H4899 H 0.56573 0.50555 0.45616 0.0
H4900 H 0.61184 0.56337 0.44156 0.0
H4901 H 0.5925 0.49784 0.40072 0.0
C4902 C 0.6102 0.50914 0.37911 0.0
C4903 C 0.62255 0.52575 0.37365 0.0
C4904 C 0.60169 0.55064 0.44462 0.0
C4905 C 0.60552 0.52965 0.41074 0.0
C4906 C 0.59348 0.55268 0.46285 0.0
C4907 C 0.58009 0.53666 0.46775 0.0
C4908 C 0.59681 0.53231 0.43067 0.0
C4909 C 0.57567 0.51854 0.45335 0.0
C4910 C 0.60177 0.51101 0.39727 0.0
C4911 C 0.62573 0.54417 0.38771 0.0
N4912 N 0.5839 0.51691 0.43575 0.0
N4913 N 0.61744 0.54552 0.40524 0.0
H4914 H 0.32288 0.88688 0.11404 0.0
H4915 H 0.3111 0.77266 0.12804 0.0
H4916 H 0.30827 0.83674 0.06464 0.0
H4917 H 0.34336 0.82374 0.17015 0.0
H4918 H 0.30886 0.79529 0.10448 0.0
H4919 H 0.32824 0.86339 0.13553 0.0
C4920 C 0.32065 0.87087 0.1078 0.0
C4921 C 0.31507 0.86363 0.08765 0.0
C4922 C 0.31662 0.80144 0.1188 0.0
C4923 C 0.32137 0.83679 0.11193 0.0
C4924 C 0.31803 0.78853 0.13214 0.0
C4925 C 0.32722 0.79643 0.1511 0.0
C4926 C 0.32432 0.8223 0.12463 0.0
C4927 C 0.33582 0.81714 0.15579 0.0
C4928 C 0.32391 0.85752 0.11998 0.0
C4929 C 0.31265 0.84284 0.08015 0.0
N4930 N 0.33394 0.82942 0.14275 0.0
N4931 N 0.31573 0.83006 0.09234 0.0
H4932 H 0.95152 0.56284 0.91097 0.0
H4933 H 0.05432 0.57653 0.96231 0.0
H4934 H 1.00053 0.57527 0.87916 0.0
H4935 H 1.00438 0.54161 0.98087 0.0
H4936 H 0.03533 0.58206 0.93425 0.0
H4937 H 0.97153 0.56196 0.94004 0.0
C4938 C 0.96654 0.56566 0.91022 0.0
C4939 C 0.97444 0.56905 0.8927 0.0
C4940 C 0.02866 0.57321 0.94455 0.0
C4941 C 0.9973 0.56775 0.92568 0.0
C4942 C 0.03946 0.56995 0.96047 0.0
C4943 C 0.03099 0.55834 0.97381 0.0
C4944 C 0.0093 0.56516 0.94235 0.0
C4945 C 0.01159 0.55055 0.97095 0.0
C4946 C 0.97791 0.56498 0.92672 0.0
C4947 C 0.99394 0.57236 0.89239 0.0
N4948 N 1.00142 0.55416 0.95557 0.0
N4949 N 1.00479 0.57157 0.9087 0.0
H4950 H 0.31551 0.28346 0.62036 0.0
H4951 H 0.29794 0.2423 0.71973 0.0
H4952 H 0.28237 0.22404 0.62198 0.0
H4953 H 0.30875 0.30645 0.71963 0.0
H4954 H 0.29376 0.23549 0.68363 0.0
H4955 H 0.31503 0.29261 0.65647 0.0
C4956 C 0.30806 0.27241 0.62828 0.0
C4957 C 0.29893 0.25297 0.61814 0.0
C4958 C 0.29678 0.25107 0.69143 0.0
C4959 C 0.29844 0.26326 0.65927 0.0
C4960 C 0.29916 0.25494 0.71201 0.0
C4961 C 0.30333 0.27491 0.72256 0.0
C4962 C 0.29924 0.26732 0.68121 0.0
C4963 C 0.30514 0.29082 0.71194 0.0
C4964 C 0.30768 0.27768 0.64882 0.0
C4965 C 0.28941 0.23926 0.62911 0.0
N4966 N 0.30328 0.28669 0.69174 0.0
N4967 N 0.28958 0.2446 0.64905 0.0
H4968 H 0.64839 0.53028 0.15192 0.0
H4969 H 0.55715 0.53859 0.08356 0.0
H4970 H 0.59372 0.52339 0.17358 0.0
H4971 H 0.61231 0.54128 0.06425 0.0
H4972 H 0.56948 0.53492 0.11679 0.0
H4973 H 0.63493 0.53541 0.12059 0.0
C4974 C 0.63353 0.52962 0.15034 0.0
C4975 C 0.62249 0.52607 0.16619 0.0
C4976 C 0.57892 0.53642 0.1053 0.0
C4977 C 0.60655 0.53265 0.12906 0.0
C4978 C 0.57185 0.53869 0.08624 0.0
C4979 C 0.58362 0.54047 0.07071 0.0
C4980 C 0.59798 0.5358 0.10914 0.0
C4981 C 0.60254 0.54009 0.07546 0.0
C4982 C 0.62577 0.53279 0.13214 0.0
C4983 C 0.60322 0.52615 0.16239 0.0
N4984 N 0.60896 0.53783 0.09385 0.0
N4985 N 0.59602 0.5293 0.14452 0.0
H4986 H 0.27197 0.85966 0.91714 0.0
H4987 H 0.33204 0.84219 0.829 0.0
H4988 H 0.3309 0.88801 0.92244 0.0
H4989 H 0.29092 0.79205 0.84146 0.0
H4990 H 0.33066 0.86082 0.8621 0.0
H4991 H 0.27677 0.83595 0.88794 0.0
C4992 C 0.28589 0.86086 0.9123 0.0
C4993 C 0.30095 0.87617 0.92203 0.0
C4994 C 0.32205 0.84565 0.8576 0.0
C4995 C 0.30638 0.84938 0.8887 0.0
C4996 C 0.32278 0.83499 0.8387 0.0
C4997 C 0.31102 0.81576 0.83216 0.0
C4998 C 0.30927 0.83717 0.8699 0.0
C4999 C 0.29962 0.80712 0.84558 0.0
C5000 C 0.2886 0.84732 0.89569 0.0
C5001 C 0.3187 0.87699 0.91501 0.0
N5002 N 0.29867 0.81809 0.86374 0.0
N5003 N 0.32087 0.86398 0.89859 0.0
H5004 H 0.97244 0.58324 0.70701 0.0
H5005 H 0.05403 0.52762 0.67199 0.0
H5006 H 0.98607 0.5337 0.73163 0.0
H5007 H 0.04064 0.5776 0.64799 0.0
H5008 H 0.03016 0.53062 0.69517 0.0
H5009 H 0.99814 0.58215 0.68601 0.0
C5010 C 0.98087 0.57218 0.70802 0.0
C5011 C 0.97706 0.55848 0.721 0.0
C5012 C 0.03254 0.54102 0.68491 0.0
C5013 C 1.00641 0.55707 0.697 0.0
C5014 C 0.04626 0.53941 0.67182 0.0
C5015 C 0.04923 0.55233 0.65805 0.0
C5016 C 0.02178 0.55565 0.68418 0.0
C5017 C 0.03861 0.56717 0.65823 0.0
C5018 C 0.9955 0.57151 0.696 0.0
C5019 C 0.98831 0.54431 0.72158 0.0
N5020 N 0.02529 0.56836 0.67102 0.0
N5021 N 1.00248 0.54396 0.70974 0.0
H5022 H 0.28303 0.25019 0.41948 0.0
H5023 H 0.34231 0.28336 0.3316 0.0
H5024 H 0.34092 0.24668 0.41665 0.0
H5025 H 0.28201 0.27125 0.3292 0.0
H5026 H 0.34308 0.27337 0.36417 0.0
H5027 H 0.28344 0.26164 0.38784 0.0
C5028 C 0.29589 0.25202 0.41229 0.0
C5029 C 0.31198 0.24752 0.42077 0.0
C5030 C 0.3297 0.27288 0.35643 0.0
C5031 C 0.31251 0.26047 0.38434 0.0
C5032 C 0.32925 0.27864 0.33789 0.0
C5033 C 0.31206 0.27814 0.3276 0.0
C5034 C 0.31285 0.26674 0.36475 0.0
C5035 C 0.29558 0.27178 0.33643 0.0
C5036 C 0.29608 0.25841 0.39413 0.0
C5037 C 0.32816 0.24984 0.41057 0.0
N5038 N 0.2964 0.26641 0.35446 0.0
N5039 N 0.32804 0.25621 0.3929 0.0
H5040 H 0.36479 0.57118 0.48536 0.0
H5041 H 0.41992 0.4985 0.53141 0.0
H5042 H 0.3628 0.56325 0.54611 0.0
H5043 H 0.43498 0.52395 0.4799 0.0
H5044 H 0.39395 0.51613 0.53397 0.0
H5045 H 0.38588 0.54793 0.48031 0.0
C5046 C 0.36868 0.56436 0.49758 0.0
C5047 C 0.36213 0.56908 0.51619 0.0
C5048 C 0.40281 0.51759 0.52197 0.0
C5049 C 0.38623 0.54263 0.51054 0.0
C5050 C 0.41743 0.50743 0.52041 0.0
C5051 C 0.42943 0.50988 0.50542 0.0
C5052 C 0.40021 0.53001 0.50831 0.0
C5053 C 0.42595 0.52179 0.49166 0.0
C5054 C 0.38075 0.55119 0.49471 0.0
C5055 C 0.36774 0.56008 0.53161 0.0
N5056 N 0.41166 0.5315 0.49347 0.0
N5057 N 0.37954 0.54722 0.52845 0.0
H5058 H 0.9061 0.99557 0.55651 0.0
H5059 H 1.00433 0.99219 0.51437 0.0
H5060 H 0.92209 0.93951 0.53395 0.0
H5061 H 0.9974 0.04156 0.55947 0.0
H5062 H 0.97292 0.97385 0.51821 0.0
H5063 H 0.93824 0.01407 0.55456 0.0
C5064 C 0.9164 0.98719 0.5512 0.0
C5065 C 0.9115 0.96601 0.54545 0.0
C5066 C 0.97829 0.98872 0.52725 0.0
C5067 C 0.94806 0.98699 0.54293 0.0
C5068 C 0.99625 0.99928 0.52505 0.0
C5069 C 1.00356 0.01868 0.53645 0.0
C5070 C 0.96737 0.99767 0.54072 0.0
C5071 C 0.9923 0.02689 0.55009 0.0
C5072 C 0.93471 0.99771 0.55017 0.0
C5073 C 0.92536 0.95583 0.53872 0.0
N5074 N 0.97471 0.01643 0.55173 0.0
N5075 N 0.94296 0.96643 0.53747 0.0
H5076 H 0.8828 0.17044 0.24559 0.0
H5077 H 0.82952 0.25447 0.30189 0.0
H5078 H 0.87549 0.17591 0.30785 0.0
H5079 H 0.84215 0.24893 0.24115 0.0
H5080 H 0.84428 0.22543 0.30483 0.0
H5081 H 0.86662 0.19797 0.2442 0.0
C5082 C 0.87775 0.17711 0.25908 0.0
C5083 C 0.88084 0.17003 0.27688 0.0
C5084 C 0.84375 0.23048 0.2908 0.0
C5085 C 0.86174 0.203 0.2753 0.0
C5086 C 0.83511 0.24712 0.28907 0.0
C5087 C 0.83415 0.25442 0.27108 0.0
C5088 C 0.85173 0.22078 0.2745 0.0
C5089 C 0.84222 0.24409 0.25531 0.0
C5090 C 0.86846 0.19322 0.25825 0.0
C5091 C 0.8739 0.18041 0.29368 0.0
N5092 N 0.85042 0.22817 0.25736 0.0
N5093 N 0.86482 0.19603 0.29245 0.0
H5094 H 0.69762 0.08067 0.02685 0.0
H5095 H 0.59996 0.11536 0.03176 0.0
H5096 H 0.69264 0.14233 0.02731 0.0
H5097 H 0.60543 0.05333 0.01731 0.0
H5098 H 0.63428 0.12627 0.0356 0.0
H5099 H 0.66395 0.07106 0.02942 0.0
C5100 C 0.68945 0.0922 0.02766 0.0
C5101 C 0.69785 0.11225 0.0266 0.0
C5102 C 0.62788 0.11025 0.03181 0.0
C5103 C 0.65939 0.10138 0.02934 0.0
C5104 C 0.60837 0.10406 0.02964 0.0
C5105 C 0.59986 0.08339 0.02463 0.0
C5106 C 0.63881 0.0956 0.02874 0.0
C5107 C 0.6113 0.06932 0.02166 0.0
C5108 C 0.67025 0.08671 0.02901 0.0
C5109 C 0.68662 0.1266 0.02764 0.0
N5110 N 0.63016 0.07567 0.0238 0.0
N5111 N 0.66792 0.12087 0.02885 0.0
H5112 H 0.26857 0.4635 0.23423 0.0
H5113 H 0.35057 0.44991 0.30618 0.0
H5114 H 0.29216 0.50803 0.28654 0.0
H5115 H 0.33385 0.41364 0.24787 0.0
H5116 H 0.33205 0.47381 0.29804 0.0
H5117 H 0.29446 0.447 0.23777 0.0
C5118 C 0.27934 0.47002 0.24632 0.0
C5119 C 0.2781 0.48715 0.26017 0.0
C5120 C 0.33278 0.46086 0.28688 0.0
C5121 C 0.30769 0.46797 0.26457 0.0
C5122 C 0.34347 0.44736 0.29146 0.0
C5123 C 0.34349 0.42975 0.27773 0.0
C5124 C 0.32202 0.45651 0.26852 0.0
C5125 C 0.33394 0.42695 0.25894 0.0
C5126 C 0.29413 0.46051 0.24838 0.0
C5127 C 0.29234 0.49461 0.27575 0.0
N5128 N 0.32333 0.44001 0.255 0.0
N5129 N 0.30646 0.48484 0.27766 0.0
H5130 H 0.25377 0.47412 1.00504 0.0
H5131 H 0.15192 0.49293 0.014 0.0
H5132 H 0.21925 0.44813 0.04692 0.0
H5133 H 0.19789 0.54 1.00429 0.0
H5134 H 0.17446 0.47324 0.02227 0.0
H5135 H 0.2313 0.49511 0.99982 0.0
C5136 C 0.24141 0.47287 0.01309 0.0
C5137 C 0.23826 0.45951 0.02642 0.0
C5138 C 0.17951 0.48794 0.01839 0.0
C5139 C 0.21251 0.48311 0.02037 0.0
C5140 C 0.16668 0.49931 0.01377 0.0
C5141 C 0.17287 0.51826 0.00823 0.0
C5142 C 0.19862 0.4953 0.01705 0.0
C5143 C 0.19226 0.52532 0.00787 0.0
C5144 C 0.22869 0.48486 0.0102 0.0
C5145 C 0.22211 0.45838 0.03658 0.0
N5146 N 0.20438 0.51375 0.01197 0.0
N5147 N 0.20967 0.46991 0.03319 0.0
H5148 H 0.84886 0.96611 0.26067 0.0
H5149 H 0.85709 0.85689 0.28459 0.0
H5150 H 0.90067 0.95252 0.2808 0.0
H5151 H 0.80768 0.86622 0.25409 0.0
H5152 H 0.87245 0.89215 0.28482 0.0
H5153 H 0.83299 0.9307 0.26003 0.0
C5154 C 0.85698 0.95584 0.26507 0.0
C5155 C 0.87637 0.96276 0.27075 0.0
C5156 C 0.85822 0.88658 0.2781 0.0
C5157 C 0.85793 0.92152 0.26999 0.0
C5158 C 0.84931 0.86625 0.27796 0.0
C5159 C 0.83074 0.85816 0.26948 0.0
C5160 C 0.84866 0.89944 0.26983 0.0
C5161 C 0.82178 0.87151 0.26109 0.0
C5162 C 0.84784 0.93544 0.26456 0.0
C5163 C 0.88587 0.94821 0.27602 0.0
N5164 N 0.83071 0.89132 0.26156 0.0
N5165 N 0.87664 0.92858 0.27558 0.0
H5166 H 0.78068 0.14445 0.77092 0.0
H5167 H 0.75422 0.25237 0.77563 0.0
H5168 H 0.72866 0.153 0.74514 0.0
H5169 H 0.80924 0.2456 0.79399 0.0
H5170 H 0.74368 0.21545 0.76753 0.0
H5171 H 0.79111 0.18127 0.78135 0.0
C5172 C 0.77153 0.15412 0.76738 0.0
C5173 C 0.75382 0.14577 0.75715 0.0
C5174 C 0.75809 0.22199 0.77326 0.0
C5175 C 0.76543 0.18762 0.76931 0.0
C5176 C 0.76407 0.24297 0.77779 0.0
C5177 C 0.78277 0.25172 0.78437 0.0
C5178 C 0.77095 0.20982 0.77567 0.0
C5179 C 0.79488 0.23923 0.78805 0.0
C5180 C 0.77744 0.17506 0.77338 0.0
C5181 C 0.74251 0.15887 0.75279 0.0
N5182 N 0.78882 0.21876 0.78337 0.0
N5183 N 0.74847 0.17916 0.75901 0.0
loop_
_geom_bond_atom_site_label_1
_geom_bond_atom_site_label_2
_geom_bond_distance
_geom_bond_site_symmetry_2
_ccdc_geom_bond_type
Li0 N17 1.990 . S
Li0 O60 1.956 . S
Li0 O61 1.970 . S
Li0 O62 1.961 . S
Li1 N25 1.990 . S
Li1 O60 1.970 . S
Li1 O61 1.956 . S
Li1 O63 1.961 . S
Li2 N47 1.990 . S
Li2 O60 1.961 . S
Li2 O62 1.956 . S
Li2 O63 1.970 . S
Li3 N53 1.990 . S
Li3 O61 1.961 . S
Li3 O62 1.970 . S
Li3 O63 1.956 . S
C4 C6 1.348 . S
C4 C7 1.356 . S
C4 O60 1.325 . S
N5 C8 1.314 . S
N5 C9 1.279 . S
C6 C4 1.348 . S
C6 C8 1.353 . S
C6 H64 0.929 . S
C7 C4 1.356 . S
C7 C9 1.358 . S
C7 H65 0.930 . S
C8 N5 1.314 . S
C8 C6 1.353 . S
C8 H66 0.930 . S
C9 N5 1.279 . S
C9 C7 1.358 . S
C9 H67 0.930 . S
C10 C13 1.348 . S
C10 C14 1.356 . S
C10 O61 1.325 . S
C11 N12 1.279 . S
C11 C14 1.358 . S
C11 H68 0.930 . S
N12 C11 1.279 . S
N12 C15 1.314 . S
C13 C10 1.348 . S
C13 C15 1.353 . S
C13 H69 0.929 . S
C14 C10 1.356 . S
C14 C11 1.358 . S
C14 H70 0.930 . S
C15 N12 1.314 . S
C15 C13 1.353 . S
C15 H71 0.930 . S
C16 N17 1.314 . S
C16 C21 1.353 . S
C16 H22 0.930 . S
N17 Li0 1.990 . S
N17 C16 1.314 . S
N17 C19 1.279 . S
C18 C19 1.358 . S
C18 C20 1.356 . S
C18 H72 0.930 . S
C19 N17 1.279 . S
C19 C18 1.358 . S
C19 H23 0.930 . S
C20 C18 1.356 . S
C20 C21 1.348 . S
C21 C16 1.353 . S
C21 C20 1.348 . S
C21 H73 0.929 . S
H22 C16 0.930 . S
H23 C19 0.930 . S
C24 N25 1.314 . S
C24 C26 1.353 . S
C24 H30 0.930 . S
N25 Li1 1.990 . S
N25 C24 1.314 . S
N25 C28 1.279 . S
C26 C24 1.353 . S
C26 C29 1.348 . S
C26 H74 0.929 . S
C27 C28 1.358 . S
C27 C29 1.356 . S
C27 H75 0.930 . S
C28 N25 1.279 . S
C28 C27 1.358 . S
C28 H31 0.930 . S
C29 C26 1.348 . S
C29 C27 1.356 . S
H30 C24 0.930 . S
H31 C28 0.930 . S
C32 C34 1.348 . S
C32 C35 1.356 . S
C32 O62 1.325 . S
N33 C36 1.314 . S
N33 C37 1.279 . S
C34 C32 1.348 . S
C34 C36 1.353 . S
C34 H76 0.929 . S
C35 C32 1.356 . S
C35 C37 1.358 . S
C35 H77 0.930 . S
C36 N33 1.314 . S
C36 C34 1.353 . S
C36 H78 0.930 . S
C37 N33 1.279 . S
C37 C35 1.358 . S
C37 H79 0.930 . S
C38 C39 1.348 . S
C38 C40 1.356 . S
C38 O63 1.325 . S
C39 C38 1.348 . S
C39 C41 1.353 . S
C39 H80 0.929 . S
C40 C38 1.356 . S
C40 C42 1.358 . S
C40 H81 0.930 . S
C41 C39 1.353 . S
C41 N43 1.314 . S
C41 H82 0.930 . S
C42 C40 1.358 . S
C42 N43 1.279 . S
C42 H83 0.930 . S
N43 C41 1.314 . S
N43 C42 1.279 . S
C44 C46 1.353 . S
C44 N47 1.314 . S
C44 H50 0.930 . S
C45 N47 1.279 . S
C45 C48 1.358 . S
C45 H51 0.930 . S
C46 C44 1.353 . S
C46 C49 1.348 . S
C46 H84 0.929 . S
N47 Li2 1.990 . S
N47 C44 1.314 . S
N47 C45 1.279 . S
C48 C45 1.358 . S
C48 C49 1.356 . S
C48 H85 0.930 . S
C49 C46 1.348 . S
C49 C48 1.356 . S
H50 C44 0.930 . S
H51 C45 0.930 . S
C52 N53 1.314 . S
C52 C54 1.353 . S
C52 H58 0.930 . S
N53 Li3 1.990 . S
N53 C52 1.314 . S
N53 C56 1.279 . S
C54 C52 1.353 . S
C54 C57 1.348 . S
C54 H86 0.929 . S
C55 C56 1.358 . S
C55 C57 1.356 . S
C55 H87 0.930 . S
C56 N53 1.279 . S
C56 C55 1.358 . S
C56 H59 0.930 . S
C57 C54 1.348 . S
C57 C55 1.356 . S
H58 C52 0.930 . S
H59 C56 0.930 . S
O60 Li0 1.956 . S
O60 Li1 1.970 . S
O60 Li2 1.961 . S
O60 C4 1.325 . S
O61 Li0 1.970 . S
O61 Li1 1.956 . S
O61 Li3 1.961 . S
O61 C10 1.325 . S
O62 Li0 1.961 . S
O62 Li2 1.956 . S
O62 Li3 1.970 . S
O62 C32 1.325 . S
O63 Li1 1.961 . S
O63 Li2 1.970 . S
O63 Li3 1.956 . S
O63 C38 1.325 . S
H64 C6 0.929 . S
H65 C7 0.930 . S
H66 C8 0.930 . S
H67 C9 0.930 . S
H68 C11 0.930 . S
H69 C13 0.929 . S
H70 C14 0.930 . S
H71 C15 0.930 . S
H72 C18 0.930 . S
H73 C21 0.929 . S
H74 C26 0.929 . S
H75 C27 0.930 . S
H76 C34 0.929 . S
H77 C35 0.930 . S
H78 C36 0.930 . S
H79 C37 0.930 . S
H80 C39 0.929 . S
H81 C40 0.930 . S
H82 C41 0.930 . S
H83 C42 0.930 . S
H84 C46 0.929 . S
H85 C48 0.930 . S
H86 C54 0.929 . S
H87 C55 0.930 . S
Li88 N105 1.990 . S
Li88 O148 1.956 . S
Li88 O149 1.970 . S
Li88 O150 1.961 1_455 S
Li89 N113 1.990 . S
Li89 O148 1.970 . S
Li89 O149 1.956 . S
Li89 O151 1.936 1_455 S
Li90 N135 1.990 . S
Li90 O148 1.961 1_655 S
Li90 O150 1.956 . S
Li90 O151 1.972 . S
Li91 N141 1.990 . S
Li91 O149 1.961 1_655 S
Li91 O150 1.970 . S
Li91 O151 1.990 . S
C92 C94 1.348 . S
C92 C95 1.356 . S
C92 O148 1.325 . S
N93 C96 1.314 . S
N93 C97 1.279 . S
C94 C92 1.348 . S
C94 C96 1.353 . S
C94 H152 0.929 . S
C95 C92 1.356 . S
C95 C97 1.358 . S
C95 H153 0.930 . S
C96 N93 1.314 . S
C96 C94 1.353 . S
C96 H154 0.930 . S
C97 N93 1.279 . S
C97 C95 1.358 . S
C97 H155 0.930 . S
C98 C101 1.348 . S
C98 C102 1.356 . S
C98 O149 1.325 . S
C99 N100 1.279 . S
C99 C102 1.358 . S
C99 H156 0.930 . S
N100 C99 1.279 . S
N100 C103 1.314 . S
C101 C98 1.348 . S
C101 C103 1.353 . S
C101 H157 0.929 . S
C102 C98 1.356 . S
C102 C99 1.358 . S
C102 H158 0.927 1_455 S
C103 N100 1.314 . S
C103 C101 1.353 . S
C103 H159 0.930 . S
C104 N105 1.314 1_655 S
C104 C109 1.353 . S
C104 H110 0.930 . S
N105 Li88 1.990 . S
N105 C104 1.314 1_455 S
N105 C107 1.279 . S
C106 C107 1.358 . S
C106 C108 1.356 . S
C106 H160 0.930 . S
C107 N105 1.279 . S
C107 C106 1.358 . S
C107 H111 0.930 . S
C108 C106 1.356 . S
C108 C109 1.348 1_455 S
C109 C104 1.353 . S
C109 C108 1.348 1_655 S
C109 H161 0.929 . S
H110 C104 0.930 . S
H111 C107 0.930 . S
C112 N113 1.314 . S
C112 C114 1.353 . S
C112 H118 0.930 . S
N113 Li89 1.990 . S
N113 C112 1.314 . S
N113 C116 1.279 . S
C114 C112 1.353 . S
C114 C117 1.348 . S
C114 H162 0.929 . S
C115 C116 1.358 . S
C115 C117 1.356 . S
C115 H163 0.930 . S
C116 N113 1.279 . S
C116 C115 1.358 . S
C116 H119 0.930 . S
C117 C114 1.348 . S
C117 C115 1.356 . S
H118 C112 0.930 . S
H119 C116 0.930 . S
C120 C122 1.348 . S
C120 C123 1.356 . S
C120 O150 1.325 . S
N121 C124 1.314 . S
N121 C125 1.279 . S
C122 C120 1.348 . S
C122 C124 1.353 . S
C122 H164 0.929 . S
C123 C120 1.356 . S
C123 C125 1.358 . S
C123 H165 0.930 . S
C124 N121 1.314 . S
C124 C122 1.353 . S
C124 H166 0.930 . S
C125 N121 1.279 . S
C125 C123 1.358 . S
C125 H167 0.930 . S
C126 C127 1.348 . S
C126 C128 1.356 1_655 S
C126 O151 1.323 . S
C127 C126 1.348 . S
C127 C129 1.353 . S
C127 H168 0.929 . S
C128 C126 1.356 1_455 S
C128 C130 1.358 . S
C128 H169 0.930 . S
C129 C127 1.353 . S
C129 N131 1.314 . S
C129 H170 0.930 . S
C130 C128 1.358 . S
C130 N131 1.277 1_455 S
C130 H171 0.933 . S
N131 C129 1.314 . S
N131 C130 1.277 1_655 S
C132 C134 1.353 . S
C132 N135 1.314 1_455 S
C132 H138 0.930 . S
C133 N135 1.279 . S
C133 C136 1.358 . S
C133 H139 0.930 . S
C134 C132 1.353 . S
C134 C137 1.348 1_455 S
C134 H172 0.929 . S
N135 Li90 1.990 . S
N135 C132 1.314 1_655 S
N135 C133 1.279 . S
C136 C133 1.358 . S
C136 C137 1.356 . S
C136 H173 0.930 . S
C137 C134 1.348 1_655 S
C137 C136 1.356 . S
H138 C132 0.930 . S
H139 C133 0.930 . S
C140 N141 1.314 . S
C140 C142 1.353 . S
C140 H146 0.930 . S
N141 Li91 1.990 . S
N141 C140 1.314 . S
N141 C144 1.279 . S
C142 C140 1.353 . S
C142 C145 1.348 . S
C142 H174 0.929 . S
C143 C144 1.358 . S
C143 C145 1.356 . S
C143 H175 0.930 . S
C144 N141 1.279 . S
C144 C143 1.358 . S
C144 H147 0.930 . S
C145 C142 1.348 . S
C145 C143 1.356 . S
H146 C140 0.930 . S
H147 C144 0.930 . S
O148 Li88 1.956 . S
O148 Li89 1.970 . S
O148 Li90 1.961 1_455 S
O148 C92 1.325 . S
O149 Li88 1.970 . S
O149 Li89 1.956 . S
O149 Li91 1.961 1_455 S
O149 C98 1.325 . S
O150 Li88 1.961 1_655 S
O150 Li90 1.956 . S
O150 Li91 1.970 . S
O150 C120 1.325 . S
O151 Li89 1.936 1_655 S
O151 Li90 1.972 . S
O151 Li91 1.990 . S
O151 C126 1.323 . S
H152 C94 0.929 . S
H153 C95 0.930 . S
H154 C96 0.930 . S
H155 C97 0.930 . S
H156 C99 0.930 . S
H157 C101 0.929 . S
H158 C102 0.927 1_655 S
H159 C103 0.930 . S
H160 C106 0.930 . S
H161 C109 0.929 . S
H162 C114 0.929 . S
H163 C115 0.930 . S
H164 C122 0.929 . S
H165 C123 0.930 . S
H166 C124 0.930 . S
H167 C125 0.930 . S
H168 C127 0.929 . S
H169 C128 0.930 . S
H170 C129 0.930 . S
H171 C130 0.933 . S
H172 C134 0.929 . S
H173 C136 0.930 . S
H174 C142 0.929 . S
H175 C143 0.930 . S
Li176 N193 1.990 . S
Li176 O236 1.956 . S
Li176 O237 1.970 . S
Li176 O238 1.961 . S
Li177 N201 1.990 . S
Li177 O236 1.970 . S
Li177 O237 1.956 . S
Li177 O239 1.961 . S
Li178 N223 1.990 . S
Li178 O236 1.961 . S
Li178 O238 1.956 . S
Li178 O239 1.970 . S
Li179 N229 1.990 . S
Li179 O237 1.961 . S
Li179 O238 1.970 . S
Li179 O239 1.956 . S
C180 C182 1.348 . S
C180 C183 1.356 . S
C180 O236 1.325 . S
N181 C184 1.314 . S
N181 C185 1.279 . S
C182 C180 1.348 . S
C182 C184 1.353 . S
C182 H240 0.929 . S
C183 C180 1.356 . S
C183 C185 1.358 . S
C183 H241 0.930 . S
C184 N181 1.314 . S
C184 C182 1.353 . S
C184 H242 0.930 . S
C185 N181 1.279 . S
C185 C183 1.358 . S
C185 H243 0.930 . S
C186 C189 1.348 . S
C186 C190 1.356 . S
C186 O237 1.325 . S
C187 N188 1.279 . S
C187 C190 1.358 . S
C187 H244 0.930 . S
N188 C187 1.279 . S
N188 C191 1.314 . S
C189 C186 1.348 . S
C189 C191 1.353 . S
C189 H245 0.929 . S
C190 C186 1.356 . S
C190 C187 1.358 . S
C190 H246 0.930 . S
C191 N188 1.314 . S
C191 C189 1.353 . S
C191 H247 0.930 . S
C192 N193 1.314 . S
C192 C197 1.353 . S
C192 H198 0.930 . S
N193 Li176 1.990 . S
N193 C192 1.314 . S
N193 C195 1.279 . S
C194 C195 1.358 . S
C194 C196 1.356 . S
C194 H248 0.930 . S
C195 N193 1.279 . S
C195 C194 1.358 . S
C195 H199 0.930 . S
C196 C194 1.356 . S
C196 C197 1.348 . S
C197 C192 1.353 . S
C197 C196 1.348 . S
C197 H249 0.929 . S
H198 C192 0.930 . S
H199 C195 0.930 . S
C200 N201 1.314 . S
C200 C202 1.353 . S
C200 H206 0.930 . S
N201 Li177 1.990 . S
N201 C200 1.314 . S
N201 C204 1.279 . S
C202 C200 1.353 . S
C202 C205 1.348 . S
C202 H250 0.929 . S
C203 C204 1.358 . S
C203 C205 1.356 . S
C203 H251 0.930 . S
C204 N201 1.279 . S
C204 C203 1.358 . S
C204 H207 0.930 . S
C205 C202 1.348 . S
C205 C203 1.356 . S
H206 C200 0.930 . S
H207 C204 0.930 . S
C208 C210 1.348 . S
C208 C211 1.356 . S
C208 O238 1.325 . S
N209 C212 1.314 . S
N209 C213 1.279 . S
C210 C208 1.348 . S
C210 C212 1.353 . S
C210 H252 0.929 . S
C211 C208 1.356 . S
C211 C213 1.358 . S
C211 H253 0.930 . S
C212 N209 1.314 . S
C212 C210 1.353 . S
C212 H254 0.930 . S
C213 N209 1.279 . S
C213 C211 1.358 . S
C213 H255 0.930 . S
C214 C215 1.348 . S
C214 C216 1.356 . S
C214 O239 1.325 . S
C215 C214 1.348 . S
C215 C217 1.353 . S
C215 H256 0.929 . S
C216 C214 1.356 . S
C216 C218 1.358 . S
C216 H257 0.930 . S
C217 C215 1.353 . S
C217 N219 1.314 . S
C217 H258 0.930 . S
C218 C216 1.358 . S
C218 N219 1.279 . S
C218 H259 0.930 . S
N219 C217 1.314 . S
N219 C218 1.279 . S
C220 C222 1.353 . S
C220 N223 1.314 . S
C220 H226 0.930 . S
C221 N223 1.279 . S
C221 C224 1.358 . S
C221 H227 0.930 . S
C222 C220 1.353 . S
C222 C225 1.348 . S
C222 H260 0.929 . S
N223 Li178 1.990 . S
N223 C220 1.314 . S
N223 C221 1.279 . S
C224 C221 1.358 . S
C224 C225 1.356 . S
C224 H261 0.930 . S
C225 C222 1.348 . S
C225 C224 1.356 . S
H226 C220 0.930 . S
H227 C221 0.930 . S
C228 N229 1.314 . S
C228 C230 1.353 . S
C228 H234 0.930 . S
N229 Li179 1.990 . S
N229 C228 1.314 . S
N229 C232 1.279 . S
C230 C228 1.353 . S
C230 C233 1.348 . S
C230 H262 0.929 . S
C231 C232 1.358 . S
C231 C233 1.356 . S
C231 H263 0.930 . S
C232 N229 1.279 . S
C232 C231 1.358 . S
C232 H235 0.930 . S
C233 C230 1.348 . S
C233 C231 1.356 . S
H234 C228 0.930 . S
H235 C232 0.930 . S
O236 Li176 1.956 . S
O236 Li177 1.970 . S
O236 Li178 1.961 . S
O236 C180 1.325 . S
O237 Li176 1.970 . S
O237 Li177 1.956 . S
O237 Li179 1.961 . S
O237 C186 1.325 . S
O238 Li176 1.961 . S
O238 Li178 1.956 . S
O238 Li179 1.970 . S
O238 C208 1.325 . S
O239 Li177 1.961 . S
O239 Li178 1.970 . S
O239 Li179 1.956 . S
O239 C214 1.325 . S
H240 C182 0.929 . S
H241 C183 0.930 . S
H242 C184 0.930 . S
H243 C185 0.930 . S
H244 C187 0.930 . S
H245 C189 0.929 . S
H246 C190 0.930 . S
H247 C191 0.930 . S
H248 C194 0.930 . S
H249 C197 0.929 . S
H250 C202 0.929 . S
H251 C203 0.930 . S
H252 C210 0.929 . S
H253 C211 0.930 . S
H254 C212 0.930 . S
H255 C213 0.930 . S
H256 C215 0.929 . S
H257 C216 0.930 . S
H258 C217 0.930 . S
H259 C218 0.930 . S
H260 C222 0.929 . S
H261 C224 0.930 . S
H262 C230 0.929 . S
H263 C231 0.930 . S
Li264 N281 1.990 . S
Li264 O324 1.956 . S
Li264 O325 1.970 . S
Li264 O326 1.961 . S
Li265 N289 1.990 . S
Li265 O324 1.970 . S
Li265 O325 1.956 . S
Li265 O327 1.961 . S
Li266 N311 1.990 . S
Li266 O324 1.961 . S
Li266 O326 1.956 . S
Li266 O327 1.970 . S
Li267 N317 1.990 . S
Li267 O325 1.961 . S
Li267 O326 1.970 . S
Li267 O327 1.956 . S
C268 C270 1.348 . S
C268 C271 1.356 . S
C268 O324 1.325 . S
N269 C272 1.314 . S
N269 C273 1.279 . S
C270 C268 1.348 . S
C270 C272 1.353 . S
C270 H328 0.929 . S
C271 C268 1.356 . S
C271 C273 1.358 . S
C271 H329 0.930 . S
C272 N269 1.314 . S
C272 C270 1.353 . S
C272 H330 0.930 . S
C273 N269 1.279 . S
C273 C271 1.358 . S
C273 H331 0.930 . S
C274 C277 1.348 . S
C274 C278 1.356 . S
C274 O325 1.325 . S
C275 N276 1.279 . S
C275 C278 1.358 . S
C275 H332 0.930 . S
N276 C275 1.279 . S
N276 C279 1.314 . S
C277 C274 1.348 . S
C277 C279 1.353 . S
C277 H333 0.929 . S
C278 C274 1.356 . S
C278 C275 1.358 . S
C278 H334 0.930 . S
C279 N276 1.314 . S
C279 C277 1.353 . S
C279 H335 0.930 . S
C280 N281 1.314 . S
C280 C285 1.353 . S
C280 H286 0.930 . S
N281 Li264 1.990 . S
N281 C280 1.314 . S
N281 C283 1.279 . S
C282 C283 1.358 . S
C282 C284 1.356 . S
C282 H336 0.930 . S
C283 N281 1.279 . S
C283 C282 1.358 . S
C283 H287 0.930 . S
C284 C282 1.356 . S
C284 C285 1.348 . S
C285 C280 1.353 . S
C285 C284 1.348 . S
C285 H337 0.929 . S
H286 C280 0.930 . S
H287 C283 0.930 . S
C288 N289 1.314 . S
C288 C290 1.353 . S
C288 H294 0.930 . S
N289 Li265 1.990 . S
N289 C288 1.314 . S
N289 C292 1.279 . S
C290 C288 1.353 . S
C290 C293 1.348 . S
C290 H338 0.929 . S
C291 C292 1.358 . S
C291 C293 1.356 . S
C291 H339 0.930 . S
C292 N289 1.279 . S
C292 C291 1.358 . S
C292 H295 0.930 . S
C293 C290 1.348 . S
C293 C291 1.356 . S
H294 C288 0.930 . S
H295 C292 0.930 . S
C296 C298 1.348 . S
C296 C299 1.356 . S
C296 O326 1.325 . S
N297 C300 1.314 . S
N297 C301 1.279 . S
C298 C296 1.348 . S
C298 C300 1.353 . S
C298 H340 0.929 . S
C299 C296 1.356 . S
C299 C301 1.358 . S
C299 H341 0.930 . S
C300 N297 1.314 . S
C300 C298 1.353 . S
C300 H342 0.930 . S
C301 N297 1.279 . S
C301 C299 1.358 . S
C301 H343 0.930 . S
C302 C303 1.348 . S
C302 C304 1.356 . S
C302 O327 1.325 . S
C303 C302 1.348 . S
C303 C305 1.353 . S
C303 H344 0.929 . S
C304 C302 1.356 . S
C304 C306 1.358 . S
C304 H345 0.930 . S
C305 C303 1.353 . S
C305 N307 1.314 . S
C305 H346 0.930 . S
C306 C304 1.358 . S
C306 N307 1.279 . S
C306 H347 0.930 . S
N307 C305 1.314 . S
N307 C306 1.279 . S
C308 C310 1.353 . S
C308 N311 1.314 . S
C308 H314 0.930 . S
C309 N311 1.279 . S
C309 C312 1.358 . S
C309 H315 0.930 . S
C310 C308 1.353 . S
C310 C313 1.348 . S
C310 H348 0.929 . S
N311 Li266 1.990 . S
N311 C308 1.314 . S
N311 C309 1.279 . S
C312 C309 1.358 . S
C312 C313 1.356 . S
C312 H349 0.930 . S
C313 C310 1.348 . S
C313 C312 1.356 . S
H314 C308 0.930 . S
H315 C309 0.930 . S
C316 N317 1.314 . S
C316 C318 1.353 . S
C316 H322 0.930 . S
N317 Li267 1.990 . S
N317 C316 1.314 . S
N317 C320 1.279 . S
C318 C316 1.353 . S
C318 C321 1.348 . S
C318 H350 0.929 . S
C319 C320 1.358 . S
C319 C321 1.356 . S
C319 H351 0.930 . S
C320 N317 1.279 . S
C320 C319 1.358 . S
C320 H323 0.930 . S
C321 C318 1.348 . S
C321 C319 1.356 . S
H322 C316 0.930 . S
H323 C320 0.930 . S
O324 Li264 1.956 . S
O324 Li265 1.970 . S
O324 Li266 1.961 . S
O324 C268 1.325 . S
O325 Li264 1.970 . S
O325 Li265 1.956 . S
O325 Li267 1.961 . S
O325 C274 1.325 . S
O326 Li264 1.961 . S
O326 Li266 1.956 . S
O326 Li267 1.970 . S
O326 C296 1.325 . S
O327 Li265 1.961 . S
O327 Li266 1.970 . S
O327 Li267 1.956 . S
O327 C302 1.325 . S
H328 C270 0.929 . S
H329 C271 0.930 . S
H330 C272 0.930 . S
H331 C273 0.930 . S
H332 C275 0.930 . S
H333 C277 0.929 . S
H334 C278 0.930 . S
H335 C279 0.930 . S
H336 C282 0.930 . S
H337 C285 0.929 . S
H338 C290 0.929 . S
H339 C291 0.930 . S
H340 C298 0.929 . S
H341 C299 0.930 . S
H342 C300 0.930 . S
H343 C301 0.930 . S
H344 C303 0.929 . S
H345 C304 0.930 . S
H346 C305 0.930 . S
H347 C306 0.930 . S
H348 C310 0.929 . S
H349 C312 0.930 . S
H350 C318 0.929 . S
H351 C319 0.930 . S
Li352 N369 1.990 . S
Li352 O412 1.956 . S
Li352 O413 1.970 . S
Li352 O414 1.961 . S
Li353 N377 1.990 . S
Li353 O412 1.970 . S
Li353 O413 1.956 . S
Li353 O415 1.961 . S
Li354 N399 1.990 . S
Li354 O412 1.961 . S
Li354 O414 1.956 . S
Li354 O415 1.970 . S
Li355 N405 1.990 . S
Li355 O413 1.961 . S
Li355 O414 1.970 . S
Li355 O415 1.956 . S
C356 C358 1.348 . S
C356 C359 1.356 . S
C356 O412 1.325 . S
N357 C360 1.314 . S
N357 C361 1.279 . S
C358 C356 1.348 . S
C358 C360 1.353 . S
C358 H416 0.929 . S
C359 C356 1.356 . S
C359 C361 1.358 . S
C359 H417 0.930 . S
C360 N357 1.314 . S
C360 C358 1.353 . S
C360 H418 0.930 . S
C361 N357 1.279 . S
C361 C359 1.358 . S
C361 H419 0.930 . S
C362 C365 1.348 . S
C362 C366 1.356 . S
C362 O413 1.325 . S
C363 N364 1.279 . S
C363 C366 1.358 . S
C363 H420 0.930 . S
N364 C363 1.279 . S
N364 C367 1.314 . S
C365 C362 1.348 . S
C365 C367 1.353 . S
C365 H421 0.929 . S
C366 C362 1.356 . S
C366 C363 1.358 . S
C366 H422 0.930 . S
C367 N364 1.314 . S
C367 C365 1.353 . S
C367 H423 0.930 . S
C368 N369 1.314 . S
C368 C373 1.353 . S
C368 H374 0.930 . S
N369 Li352 1.990 . S
N369 C368 1.314 . S
N369 C371 1.279 . S
C370 C371 1.358 . S
C370 C372 1.356 . S
C370 H424 0.930 . S
C371 N369 1.279 . S
C371 C370 1.358 . S
C371 H375 0.930 . S
C372 C370 1.356 . S
C372 C373 1.348 . S
C373 C368 1.353 . S
C373 C372 1.348 . S
C373 H425 0.929 . S
H374 C368 0.930 . S
H375 C371 0.930 . S
C376 N377 1.314 . S
C376 C378 1.353 . S
C376 H382 0.930 . S
N377 Li353 1.990 . S
N377 C376 1.314 . S
N377 C380 1.279 . S
C378 C376 1.353 . S
C378 C381 1.348 . S
C378 H426 0.929 . S
C379 C380 1.358 . S
C379 C381 1.356 . S
C379 H427 0.930 . S
C380 N377 1.279 . S
C380 C379 1.358 . S
C380 H383 0.930 . S
C381 C378 1.348 . S
C381 C379 1.356 . S
H382 C376 0.930 . S
H383 C380 0.930 . S
C384 C386 1.348 . S
C384 C387 1.356 . S
C384 O414 1.325 . S
N385 C388 1.314 . S
N385 C389 1.279 . S
C386 C384 1.348 . S
C386 C388 1.353 . S
C386 H428 0.929 . S
C387 C384 1.356 . S
C387 C389 1.358 . S
C387 H429 0.930 . S
C388 N385 1.314 . S
C388 C386 1.353 . S
C388 H430 0.930 . S
C389 N385 1.279 . S
C389 C387 1.358 . S
C389 H431 0.930 . S
C390 C391 1.348 . S
C390 C392 1.356 . S
C390 O415 1.325 . S
C391 C390 1.348 . S
C391 C393 1.353 . S
C391 H432 0.929 . S
C392 C390 1.356 . S
C392 C394 1.358 . S
C392 H433 0.930 . S
C393 C391 1.353 . S
C393 N395 1.314 . S
C393 H434 0.930 . S
C394 C392 1.358 . S
C394 N395 1.279 . S
C394 H435 0.930 . S
N395 C393 1.314 . S
N395 C394 1.279 . S
C396 C398 1.353 . S
C396 N399 1.314 . S
C396 H402 0.930 . S
C397 N399 1.279 . S
C397 C400 1.358 . S
C397 H403 0.930 . S
C398 C396 1.353 . S
C398 C401 1.348 . S
C398 H436 0.929 . S
N399 Li354 1.990 . S
N399 C396 1.314 . S
N399 C397 1.279 . S
C400 C397 1.358 . S
C400 C401 1.356 . S
C400 H437 0.930 . S
C401 C398 1.348 . S
C401 C400 1.356 . S
H402 C396 0.930 . S
H403 C397 0.930 . S
C404 N405 1.314 . S
C404 C406 1.353 . S
C404 H410 0.930 . S
N405 Li355 1.990 . S
N405 C404 1.314 . S
N405 C408 1.279 . S
C406 C404 1.353 . S
C406 C409 1.348 . S
C406 H438 0.929 . S
C407 C408 1.358 . S
C407 C409 1.356 . S
C407 H439 0.930 . S
C408 N405 1.279 . S
C408 C407 1.358 . S
C408 H411 0.930 . S
C409 C406 1.348 . S
C409 C407 1.356 . S
H410 C404 0.930 . S
H411 C408 0.930 . S
O412 Li352 1.956 . S
O412 Li353 1.970 . S
O412 Li354 1.961 . S
O412 C356 1.325 . S
O413 Li352 1.970 . S
O413 Li353 1.956 . S
O413 Li355 1.961 . S
O413 C362 1.325 . S
O414 Li352 1.961 . S
O414 Li354 1.956 . S
O414 Li355 1.970 . S
O414 C384 1.325 . S
O415 Li353 1.961 . S
O415 Li354 1.970 . S
O415 Li355 1.956 . S
O415 C390 1.325 . S
H416 C358 0.929 . S
H417 C359 0.930 . S
H418 C360 0.930 . S
H419 C361 0.930 . S
H420 C363 0.930 . S
H421 C365 0.929 . S
H422 C366 0.930 . S
H423 C367 0.930 . S
H424 C370 0.930 . S
H425 C373 0.929 . S
H426 C378 0.929 . S
H427 C379 0.930 . S
H428 C386 0.929 . S
H429 C387 0.930 . S
H430 C388 0.930 . S
H431 C389 0.930 . S
H432 C391 0.929 . S
H433 C392 0.930 . S
H434 C393 0.930 . S
H435 C394 0.930 . S
H436 C398 0.929 . S
H437 C400 0.930 . S
H438 C406 0.929 . S
H439 C407 0.930 . S
Li440 N457 1.990 . S
Li440 O500 1.956 . S
Li440 O501 1.970 . S
Li440 O502 1.961 . S
Li441 N465 1.990 . S
Li441 O500 1.970 . S
Li441 O501 1.956 . S
Li441 O503 1.961 . S
Li442 N487 1.990 . S
Li442 O500 1.961 . S
Li442 O502 1.956 . S
Li442 O503 1.970 . S
Li443 N493 1.990 . S
Li443 O501 1.961 . S
Li443 O502 1.970 . S
Li443 O503 1.956 . S
C444 C446 1.348 . S
C444 C447 1.356 . S
C444 O500 1.325 . S
N445 C448 1.314 . S
N445 C449 1.279 . S
C446 C444 1.348 . S
C446 C448 1.353 . S
C446 H504 0.929 . S
C447 C444 1.356 . S
C447 C449 1.358 . S
C447 H505 0.930 . S
C448 N445 1.314 . S
C448 C446 1.353 . S
C448 H506 0.930 . S
C449 N445 1.279 . S
C449 C447 1.358 . S
C449 H507 0.930 . S
C450 C453 1.348 . S
C450 C454 1.356 . S
C450 O501 1.325 . S
C451 N452 1.279 . S
C451 C454 1.358 . S
C451 H508 0.930 . S
N452 C451 1.279 . S
N452 C455 1.314 . S
C453 C450 1.348 . S
C453 C455 1.353 . S
C453 H509 0.929 . S
C454 C450 1.356 . S
C454 C451 1.358 . S
C454 H510 0.930 . S
C455 N452 1.314 . S
C455 C453 1.353 . S
C455 H511 0.930 . S
C456 N457 1.314 . S
C456 C461 1.353 . S
C456 H462 0.930 . S
N457 Li440 1.990 . S
N457 C456 1.314 . S
N457 C459 1.279 . S
C458 C459 1.358 . S
C458 C460 1.356 . S
C458 H512 0.930 . S
C459 N457 1.279 . S
C459 C458 1.358 . S
C459 H463 0.930 . S
C460 C458 1.356 . S
C460 C461 1.348 . S
C461 C456 1.353 . S
C461 C460 1.348 . S
C461 H513 0.929 . S
H462 C456 0.930 . S
H463 C459 0.930 . S
C464 N465 1.314 . S
C464 C466 1.353 . S
C464 H470 0.930 . S
N465 Li441 1.990 . S
N465 C464 1.314 . S
N465 C468 1.279 . S
C466 C464 1.353 . S
C466 C469 1.348 . S
C466 H514 0.929 . S
C467 C468 1.358 . S
C467 C469 1.356 . S
C467 H515 0.930 . S
C468 N465 1.279 . S
C468 C467 1.358 . S
C468 H471 0.930 . S
C469 C466 1.348 . S
C469 C467 1.356 . S
H470 C464 0.930 . S
H471 C468 0.930 . S
C472 C474 1.348 . S
C472 C475 1.356 . S
C472 O502 1.325 . S
N473 C476 1.314 . S
N473 C477 1.279 . S
C474 C472 1.348 . S
C474 C476 1.353 . S
C474 H516 0.929 . S
C475 C472 1.356 . S
C475 C477 1.358 . S
C475 H517 0.930 . S
C476 N473 1.314 . S
C476 C474 1.353 . S
C476 H518 0.930 . S
C477 N473 1.279 . S
C477 C475 1.358 . S
C477 H519 0.930 . S
C478 C479 1.348 . S
C478 C480 1.356 . S
C478 O503 1.325 . S
C479 C478 1.348 . S
C479 C481 1.353 . S
C479 H520 0.929 . S
C480 C478 1.356 . S
C480 C482 1.358 . S
C480 H521 0.930 . S
C481 C479 1.353 . S
C481 N483 1.314 . S
C481 H522 0.930 . S
C482 C480 1.358 . S
C482 N483 1.279 . S
C482 H523 0.930 . S
N483 C481 1.314 . S
N483 C482 1.279 . S
C484 C486 1.353 . S
C484 N487 1.314 . S
C484 H490 0.930 . S
C485 N487 1.279 . S
C485 C488 1.358 . S
C485 H491 0.930 . S
C486 C484 1.353 . S
C486 C489 1.348 . S
C486 H524 0.929 . S
N487 Li442 1.990 . S
N487 C484 1.314 . S
N487 C485 1.279 . S
C488 C485 1.358 . S
C488 C489 1.356 . S
C488 H525 0.930 . S
C489 C486 1.348 . S
C489 C488 1.356 . S
H490 C484 0.930 . S
H491 C485 0.930 . S
C492 N493 1.314 . S
C492 C494 1.353 . S
C492 H498 0.930 . S
N493 Li443 1.990 . S
N493 C492 1.314 . S
N493 C496 1.279 . S
C494 C492 1.353 . S
C494 C497 1.348 . S
C494 H526 0.929 . S
C495 C496 1.358 . S
C495 C497 1.356 . S
C495 H527 0.930 . S
C496 N493 1.279 . S
C496 C495 1.358 . S
C496 H499 0.930 . S
C497 C494 1.348 . S
C497 C495 1.356 . S
H498 C492 0.930 . S
H499 C496 0.930 . S
O500 Li440 1.956 . S
O500 Li441 1.970 . S
O500 Li442 1.961 . S
O500 C444 1.325 . S
O501 Li440 1.970 . S
O501 Li441 1.956 . S
O501 Li443 1.961 . S
O501 C450 1.325 . S
O502 Li440 1.961 . S
O502 Li442 1.956 . S
O502 Li443 1.970 . S
O502 C472 1.325 . S
O503 Li441 1.961 . S
O503 Li442 1.970 . S
O503 Li443 1.956 . S
O503 C478 1.325 . S
H504 C446 0.929 . S
H505 C447 0.930 . S
H506 C448 0.930 . S
H507 C449 0.930 . S
H508 C451 0.930 . S
H509 C453 0.929 . S
H510 C454 0.930 . S
H511 C455 0.930 . S
H512 C458 0.930 . S
H513 C461 0.929 . S
H514 C466 0.929 . S
H515 C467 0.930 . S
H516 C474 0.929 . S
H517 C475 0.930 . S
H518 C476 0.930 . S
H519 C477 0.930 . S
H520 C479 0.929 . S
H521 C480 0.930 . S
H522 C481 0.930 . S
H523 C482 0.930 . S
H524 C486 0.929 . S
H525 C488 0.930 . S
H526 C494 0.929 . S
H527 C495 0.930 . S
Li528 N545 1.990 . S
Li528 O588 1.956 . S
Li528 O589 1.970 . S
Li528 O590 1.961 . S
Li529 N553 1.990 . S
Li529 O588 1.970 . S
Li529 O589 1.956 . S
Li529 O591 1.961 . S
Li530 N575 1.990 . S
Li530 O588 1.961 . S
Li530 O590 1.956 . S
Li530 O591 1.970 . S
Li531 N581 1.990 . S
Li531 O589 1.961 . S
Li531 O590 1.970 . S
Li531 O591 1.956 . S
C532 C534 1.348 . S
C532 C535 1.356 . S
C532 O588 1.325 . S
N533 C536 1.314 . S
N533 C537 1.279 . S
C534 C532 1.348 . S
C534 C536 1.353 . S
C534 H592 0.929 . S
C535 C532 1.356 . S
C535 C537 1.358 . S
C535 H593 0.930 . S
C536 N533 1.314 . S
C536 C534 1.353 . S
C536 H594 0.930 . S
C537 N533 1.279 . S
C537 C535 1.358 . S
C537 H595 0.930 . S
C538 C541 1.348 . S
C538 C542 1.356 . S
C538 O589 1.325 . S
C539 N540 1.279 . S
C539 C542 1.358 . S
C539 H596 0.930 . S
N540 C539 1.279 . S
N540 C543 1.314 . S
C541 C538 1.348 . S
C541 C543 1.353 . S
C541 H597 0.929 . S
C542 C538 1.356 . S
C542 C539 1.358 . S
C542 H598 0.930 . S
C543 N540 1.314 . S
C543 C541 1.353 . S
C543 H599 0.930 . S
C544 N545 1.314 . S
C544 C549 1.353 . S
C544 H550 0.930 . S
N545 Li528 1.990 . S
N545 C544 1.314 . S
N545 C547 1.279 . S
C546 C547 1.358 . S
C546 C548 1.356 . S
C546 H600 0.930 . S
C547 N545 1.279 . S
C547 C546 1.358 . S
C547 H551 0.930 . S
C548 C546 1.356 . S
C548 C549 1.348 . S
C549 C544 1.353 . S
C549 C548 1.348 . S
C549 H601 0.929 . S
H550 C544 0.930 . S
H551 C547 0.930 . S
C552 N553 1.314 . S
C552 C554 1.353 . S
C552 H558 0.930 . S
N553 Li529 1.990 . S
N553 C552 1.314 . S
N553 C556 1.279 . S
C554 C552 1.353 . S
C554 C557 1.348 . S
C554 H602 0.929 . S
C555 C556 1.358 . S
C555 C557 1.356 . S
C555 H603 0.930 . S
C556 N553 1.279 . S
C556 C555 1.358 . S
C556 H559 0.930 . S
C557 C554 1.348 . S
C557 C555 1.356 . S
H558 C552 0.930 . S
H559 C556 0.930 . S
C560 C562 1.348 . S
C560 C563 1.356 . S
C560 O590 1.325 . S
N561 C564 1.314 . S
N561 C565 1.279 . S
C562 C560 1.348 . S
C562 C564 1.353 . S
C562 H604 0.929 . S
C563 C560 1.356 . S
C563 C565 1.358 . S
C563 H605 0.930 . S
C564 N561 1.314 . S
C564 C562 1.353 . S
C564 H606 0.930 . S
C565 N561 1.279 . S
C565 C563 1.358 . S
C565 H607 0.930 . S
C566 C567 1.348 . S
C566 C568 1.356 . S
C566 O591 1.325 . S
C567 C566 1.348 . S
C567 C569 1.353 . S
C567 H608 0.929 . S
C568 C566 1.356 . S
C568 C570 1.358 . S
C568 H609 0.930 . S
C569 C567 1.353 . S
C569 N571 1.314 . S
C569 H610 0.930 . S
C570 C568 1.358 . S
C570 N571 1.279 . S
C570 H611 0.930 . S
N571 C569 1.314 . S
N571 C570 1.279 . S
C572 C574 1.353 . S
C572 N575 1.314 . S
C572 H578 0.930 . S
C573 N575 1.279 . S
C573 C576 1.358 . S
C573 H579 0.930 . S
C574 C572 1.353 . S
C574 C577 1.348 . S
C574 H612 0.929 . S
N575 Li530 1.990 . S
N575 C572 1.314 . S
N575 C573 1.279 . S
C576 C573 1.358 . S
C576 C577 1.356 . S
C576 H613 0.930 . S
C577 C574 1.348 . S
C577 C576 1.356 . S
H578 C572 0.930 . S
H579 C573 0.930 . S
C580 N581 1.314 . S
C580 C582 1.353 . S
C580 H586 0.930 . S
N581 Li531 1.990 . S
N581 C580 1.314 . S
N581 C584 1.279 . S
C582 C580 1.353 . S
C582 C585 1.348 . S
C582 H614 0.929 . S
C583 C584 1.358 . S
C583 C585 1.356 . S
C583 H615 0.930 . S
C584 N581 1.279 . S
C584 C583 1.358 . S
C584 H587 0.930 . S
C585 C582 1.348 . S
C585 C583 1.356 . S
H586 C580 0.930 . S
H587 C584 0.930 . S
O588 Li528 1.956 . S
O588 Li529 1.970 . S
O588 Li530 1.961 . S
O588 C532 1.325 . S
O589 Li528 1.970 . S
O589 Li529 1.956 . S
O589 Li531 1.961 . S
O589 C538 1.325 . S
O590 Li528 1.961 . S
O590 Li530 1.956 . S
O590 Li531 1.970 . S
O590 C560 1.325 . S
O591 Li529 1.961 . S
O591 Li530 1.970 . S
O591 Li531 1.956 . S
O591 C566 1.325 . S
H592 C534 0.929 . S
H593 C535 0.930 . S
H594 C536 0.930 . S
H595 C537 0.930 . S
H596 C539 0.930 . S
H597 C541 0.929 . S
H598 C542 0.930 . S
H599 C543 0.930 . S
H600 C546 0.930 . S
H601 C549 0.929 . S
H602 C554 0.929 . S
H603 C555 0.930 . S
H604 C562 0.929 . S
H605 C563 0.930 . S
H606 C564 0.930 . S
H607 C565 0.930 . S
H608 C567 0.929 . S
H609 C568 0.930 . S
H610 C569 0.930 . S
H611 C570 0.930 . S
H612 C574 0.929 . S
H613 C576 0.930 . S
H614 C582 0.929 . S
H615 C583 0.930 . S
Li616 N633 1.990 . S
Li616 O676 1.956 1_455 S
Li616 O677 1.970 . S
Li616 O678 1.961 . S
Li617 N641 1.955 1_455 S
Li617 O676 1.966 1_455 S
Li617 O677 1.984 . S
Li617 O679 1.995 . S
Li618 N663 1.990 . S
Li618 O676 1.961 1_455 S
Li618 O678 1.956 . S
Li618 O679 1.970 . S
Li619 N669 1.990 . S
Li619 O677 1.961 . S
Li619 O678 1.970 . S
Li619 O679 1.956 . S
C620 C622 1.348 . S
C620 C623 1.356 . S
C620 O676 1.325 . S
N621 C624 1.314 . S
N621 C625 1.279 . S
C622 C620 1.348 . S
C622 C624 1.353 . S
C622 H680 0.929 . S
C623 C620 1.356 . S
C623 C625 1.358 . S
C623 H681 0.930 . S
C624 N621 1.314 . S
C624 C622 1.353 . S
C624 H682 0.930 . S
C625 N621 1.279 . S
C625 C623 1.358 . S
C625 H683 0.930 1_556 S
C626 C629 1.348 . S
C626 C630 1.356 . S
C626 O677 1.325 . S
C627 N628 1.279 . S
C627 C630 1.358 . S
C627 H684 0.930 . S
N628 C627 1.279 . S
N628 C631 1.314 . S
C629 C626 1.348 . S
C629 C631 1.353 . S
C629 H685 0.929 . S
C630 C626 1.356 . S
C630 C627 1.358 . S
C630 H686 0.930 . S
C631 N628 1.314 . S
C631 C629 1.353 . S
C631 H687 0.930 . S
C632 N633 1.314 . S
C632 C637 1.353 . S
C632 H638 0.930 . S
N633 Li616 1.990 . S
N633 C632 1.314 . S
N633 C635 1.279 . S
C634 C635 1.358 . S
C634 C636 1.356 . S
C634 H688 0.911 1_556 S
C635 N633 1.279 . S
C635 C634 1.358 . S
C635 H639 0.937 . S
C636 C634 1.356 . S
C636 C637 1.348 . S
C637 C632 1.353 . S
C637 C636 1.348 . S
C637 H689 0.929 . S
H638 C632 0.930 . S
H639 C635 0.937 . S
C640 N641 1.314 . S
C640 C642 1.353 . S
C640 H646 0.930 . S
N641 Li617 1.955 1_655 S
N641 C640 1.314 . S
N641 C644 1.279 . S
C642 C640 1.353 . S
C642 C645 1.348 . S
C642 H690 0.929 . S
C643 C644 1.358 . S
C643 C645 1.356 . S
C643 H691 0.930 . S
C644 N641 1.279 . S
C644 C643 1.358 . S
C644 H647 0.930 . S
C645 C642 1.348 . S
C645 C643 1.356 . S
H646 C640 0.930 . S
H647 C644 0.930 . S
C648 C650 1.348 . S
C648 C651 1.356 . S
C648 O678 1.325 . S
N649 C652 1.314 . S
N649 C653 1.279 . S
C650 C648 1.348 . S
C650 C652 1.353 . S
C650 H692 0.929 . S
C651 C648 1.356 . S
C651 C653 1.358 . S
C651 H693 0.930 . S
C652 N649 1.314 . S
C652 C650 1.353 . S
C652 H694 0.930 . S
C653 N649 1.279 . S
C653 C651 1.358 . S
C653 H695 0.930 1_556 S
C654 C655 1.348 . S
C654 C656 1.356 . S
C654 O679 1.325 . S
C655 C654 1.348 . S
C655 C657 1.353 . S
C655 H696 0.929 . S
C656 C654 1.356 . S
C656 C658 1.358 . S
C656 H697 0.930 . S
C657 C655 1.353 . S
C657 N659 1.314 . S
C657 H698 0.930 . S
C658 C656 1.358 . S
C658 N659 1.279 . S
C658 H699 0.930 . S
N659 C657 1.314 . S
N659 C658 1.279 . S
C660 C662 1.353 1_455 S
C660 N663 1.314 . S
C660 H666 0.930 1_455 S
C661 N663 1.279 . S
C661 C664 1.358 . S
C661 H667 0.930 . S
C662 C660 1.353 1_655 S
C662 C665 1.348 1_655 S
C662 H700 0.929 . S
N663 Li618 1.990 . S
N663 C660 1.314 . S
N663 C661 1.279 . S
C664 C661 1.358 . S
C664 C665 1.356 . S
C664 H701 0.930 . S
C665 C662 1.348 1_455 S
C665 C664 1.356 . S
H666 C660 0.930 1_655 S
H667 C661 0.930 . S
C668 N669 1.314 . S
C668 C670 1.353 . S
C668 H674 0.930 . S
N669 Li619 1.990 . S
N669 C668 1.314 . S
N669 C672 1.279 . S
C670 C668 1.353 . S
C670 C673 1.348 . S
C670 H702 0.929 . S
C671 C672 1.358 . S
C671 C673 1.356 . S
C671 H703 0.930 . S
C672 N669 1.279 . S
C672 C671 1.358 . S
C672 H675 0.930 . S
C673 C670 1.348 . S
C673 C671 1.356 . S
H674 C668 0.930 . S
H675 C672 0.930 . S
O676 Li616 1.956 1_655 S
O676 Li617 1.966 1_655 S
O676 Li618 1.961 1_655 S
O676 C620 1.325 . S
O677 Li616 1.970 . S
O677 Li617 1.984 . S
O677 Li619 1.961 . S
O677 C626 1.325 . S
O678 Li616 1.961 . S
O678 Li618 1.956 . S
O678 Li619 1.970 . S
O678 C648 1.325 . S
O679 Li617 1.995 . S
O679 Li618 1.970 . S
O679 Li619 1.956 . S
O679 C654 1.325 . S
H680 C622 0.929 . S
H681 C623 0.930 . S
H682 C624 0.930 . S
H683 C625 0.930 1_554 S
H684 C627 0.930 . S
H685 C629 0.929 . S
H686 C630 0.930 . S
H687 C631 0.930 . S
H688 C634 0.911 1_554 S
H689 C637 0.929 . S
H690 C642 0.929 . S
H691 C643 0.930 . S
H692 C650 0.929 . S
H693 C651 0.930 . S
H694 C652 0.930 . S
H695 C653 0.930 1_554 S
H696 C655 0.929 . S
H697 C656 0.930 . S
H698 C657 0.930 . S
H699 C658 0.930 . S
H700 C662 0.929 . S
H701 C664 0.930 . S
H702 C670 0.929 . S
H703 C671 0.930 . S
Li704 N721 1.990 . S
Li704 O764 1.956 . S
Li704 O765 1.970 . S
Li704 O766 1.961 . S
Li705 N729 1.990 1_545 S
Li705 O764 1.970 . S
Li705 O765 1.956 . S
Li705 O767 1.961 . S
Li706 N751 1.990 . S
Li706 O764 1.961 . S
Li706 O766 1.956 . S
Li706 O767 1.970 . S
Li707 N757 1.990 . S
Li707 O765 1.961 . S
Li707 O766 1.970 . S
Li707 O767 1.956 . S
C708 C710 1.348 . S
C708 C711 1.356 . S
C708 O764 1.325 1_565 S
N709 C712 1.314 . S
N709 C713 1.279 . S
C710 C708 1.348 . S
C710 C712 1.353 . S
C710 H768 0.929 . S
C711 C708 1.356 . S
C711 C713 1.358 . S
C711 H769 0.930 1_565 S
C712 N709 1.314 . S
C712 C710 1.353 . S
C712 H770 0.930 . S
C713 N709 1.279 . S
C713 C711 1.358 . S
C713 H771 0.930 . S
C714 C717 1.348 . S
C714 C718 1.356 . S
C714 O765 1.325 . S
C715 N716 1.279 . S
C715 C718 1.358 . S
C715 H772 0.930 . S
N716 C715 1.279 . S
N716 C719 1.314 . S
C717 C714 1.348 . S
C717 C719 1.353 . S
C717 H773 0.929 . S
C718 C714 1.356 . S
C718 C715 1.358 . S
C718 H774 0.930 . S
C719 N716 1.314 . S
C719 C717 1.353 . S
C719 H775 0.930 . S
C720 N721 1.314 . S
C720 C725 1.353 . S
C720 H726 0.930 . S
N721 Li704 1.990 . S
N721 C720 1.314 . S
N721 C723 1.279 . S
C722 C723 1.358 . S
C722 C724 1.356 . S
C722 H776 0.930 . S
C723 N721 1.279 . S
C723 C722 1.358 . S
C723 H727 0.930 . S
C724 C722 1.356 . S
C724 C725 1.348 . S
C725 C720 1.353 . S
C725 C724 1.348 . S
C725 H777 0.929 . S
H726 C720 0.930 . S
H727 C723 0.930 . S
C728 N729 1.314 . S
C728 C730 1.353 . S
C728 H734 0.930 . S
N729 Li705 1.990 1_565 S
N729 C728 1.314 . S
N729 C732 1.279 . S
C730 C728 1.353 . S
C730 C733 1.348 . S
C730 H778 0.929 . S
C731 C732 1.358 . S
C731 C733 1.356 . S
C731 H779 0.930 . S
C732 N729 1.279 . S
C732 C731 1.358 . S
C732 H735 0.930 . S
C733 C730 1.348 . S
C733 C731 1.356 . S
H734 C728 0.930 . S
H735 C732 0.930 . S
C736 C738 1.348 . S
C736 C739 1.356 . S
C736 O766 1.325 . S
N737 C740 1.314 . S
N737 C741 1.279 . S
C738 C736 1.348 . S
C738 C740 1.353 . S
C738 H780 0.929 . S
C739 C736 1.356 . S
C739 C741 1.358 . S
C739 H781 0.930 . S
C740 N737 1.314 . S
C740 C738 1.353 . S
C740 H782 0.930 . S
C741 N737 1.279 . S
C741 C739 1.358 . S
C741 H783 0.930 . S
C742 C743 1.348 . S
C742 C744 1.356 . S
C742 O767 1.325 . S
C743 C742 1.348 . S
C743 C745 1.353 . S
C743 H784 0.929 . S
C744 C742 1.356 . S
C744 C746 1.358 . S
C744 H785 0.930 . S
C745 C743 1.353 . S
C745 N747 1.314 . S
C745 H786 0.930 . S
C746 C744 1.358 . S
C746 N747 1.279 . S
C746 H787 0.930 . S
N747 C745 1.314 . S
N747 C746 1.279 . S
C748 C750 1.353 . S
C748 N751 1.314 . S
C748 H754 0.934 . S
C749 N751 1.279 . S
C749 C752 1.358 . S
C749 H755 0.930 . S
C750 C748 1.353 . S
C750 C753 1.348 . S
C750 H788 0.929 1_545 S
N751 Li706 1.990 . S
N751 C748 1.314 . S
N751 C749 1.279 . S
C752 C749 1.358 . S
C752 C753 1.356 . S
C752 H789 0.930 . S
C753 C750 1.348 . S
C753 C752 1.356 . S
H754 C748 0.934 . S
H755 C749 0.930 . S
C756 N757 1.314 . S
C756 C758 1.353 . S
C756 H762 0.930 . S
N757 Li707 1.990 . S
N757 C756 1.314 . S
N757 C760 1.279 . S
C758 C756 1.353 . S
C758 C761 1.348 . S
C758 H790 0.929 . S
C759 C760 1.358 . S
C759 C761 1.356 . S
C759 H791 0.930 . S
C760 N757 1.279 . S
C760 C759 1.358 . S
C760 H763 0.930 . S
C761 C758 1.348 . S
C761 C759 1.356 . S
H762 C756 0.930 . S
H763 C760 0.930 . S
O764 Li704 1.956 . S
O764 Li705 1.970 . S
O764 Li706 1.961 . S
O764 C708 1.325 1_545 S
O765 Li704 1.970 . S
O765 Li705 1.956 . S
O765 Li707 1.961 . S
O765 C714 1.325 . S
O766 Li704 1.961 . S
O766 Li706 1.956 . S
O766 Li707 1.970 . S
O766 C736 1.325 . S
O767 Li705 1.961 . S
O767 Li706 1.970 . S
O767 Li707 1.956 . S
O767 C742 1.325 . S
H768 C710 0.929 . S
H769 C711 0.930 1_545 S
H770 C712 0.930 . S
H771 C713 0.930 . S
H772 C715 0.930 . S
H773 C717 0.929 . S
H774 C718 0.930 . S
H775 C719 0.930 . S
H776 C722 0.930 . S
H777 C725 0.929 . S
H778 C730 0.929 . S
H779 C731 0.930 . S
H780 C738 0.929 . S
H781 C739 0.930 . S
H782 C740 0.930 . S
H783 C741 0.930 . S
H784 C743 0.929 . S
H785 C744 0.930 . S
H786 C745 0.930 . S
H787 C746 0.930 . S
H788 C750 0.929 1_565 S
H789 C752 0.930 . S
H790 C758 0.929 . S
H791 C759 0.930 . S
Li792 N809 1.990 . S
Li792 O852 1.956 . S
Li792 O853 1.970 . S
Li792 O854 1.961 . S
Li793 N817 1.990 . S
Li793 O852 1.970 . S
Li793 O853 1.956 . S
Li793 O855 1.961 . S
Li794 N839 1.990 . S
Li794 O852 1.961 . S
Li794 O854 1.956 . S
Li794 O855 1.970 . S
Li795 N845 1.990 . S
Li795 O853 1.961 . S
Li795 O854 1.970 . S
Li795 O855 1.956 . S
C796 C798 1.348 . S
C796 C799 1.356 . S
C796 O852 1.325 . S
N797 C800 1.314 . S
N797 C801 1.279 . S
C798 C796 1.348 . S
C798 C800 1.353 . S
C798 H856 0.929 . S
C799 C796 1.356 . S
C799 C801 1.358 . S
C799 H857 0.930 . S
C800 N797 1.314 . S
C800 C798 1.353 . S
C800 H858 0.930 . S
C801 N797 1.279 . S
C801 C799 1.358 . S
C801 H859 0.930 . S
C802 C805 1.348 . S
C802 C806 1.356 . S
C802 O853 1.325 . S
C803 N804 1.279 . S
C803 C806 1.358 . S
C803 H860 0.930 . S
N804 C803 1.279 . S
N804 C807 1.314 . S
C805 C802 1.348 . S
C805 C807 1.353 . S
C805 H861 0.929 . S
C806 C802 1.356 . S
C806 C803 1.358 . S
C806 H862 0.930 . S
C807 N804 1.314 . S
C807 C805 1.353 . S
C807 H863 0.930 . S
C808 N809 1.314 . S
C808 C813 1.353 . S
C808 H814 0.930 . S
N809 Li792 1.990 . S
N809 C808 1.314 . S
N809 C811 1.279 . S
C810 C811 1.358 . S
C810 C812 1.356 . S
C810 H864 0.930 . S
C811 N809 1.279 . S
C811 C810 1.358 . S
C811 H815 0.930 . S
C812 C810 1.356 . S
C812 C813 1.348 . S
C813 C808 1.353 . S
C813 C812 1.348 . S
C813 H865 0.929 . S
H814 C808 0.930 . S
H815 C811 0.930 . S
C816 N817 1.314 . S
C816 C818 1.353 . S
C816 H822 0.930 . S
N817 Li793 1.990 . S
N817 C816 1.314 . S
N817 C820 1.279 . S
C818 C816 1.353 . S
C818 C821 1.348 . S
C818 H866 0.929 . S
C819 C820 1.358 . S
C819 C821 1.356 . S
C819 H867 0.930 . S
C820 N817 1.279 . S
C820 C819 1.358 . S
C820 H823 0.930 . S
C821 C818 1.348 . S
C821 C819 1.356 . S
H822 C816 0.930 . S
H823 C820 0.930 . S
C824 C826 1.348 . S
C824 C827 1.356 . S
C824 O854 1.325 . S
N825 C828 1.314 . S
N825 C829 1.279 . S
C826 C824 1.348 . S
C826 C828 1.353 . S
C826 H868 0.929 . S
C827 C824 1.356 . S
C827 C829 1.358 . S
C827 H869 0.930 . S
C828 N825 1.314 . S
C828 C826 1.353 . S
C828 H870 0.930 . S
C829 N825 1.279 . S
C829 C827 1.358 . S
C829 H871 0.930 . S
C830 C831 1.348 . S
C830 C832 1.356 . S
C830 O855 1.325 . S
C831 C830 1.348 . S
C831 C833 1.353 . S
C831 H872 0.929 . S
C832 C830 1.356 . S
C832 C834 1.358 . S
C832 H873 0.930 . S
C833 C831 1.353 . S
C833 N835 1.314 . S
C833 H874 0.930 . S
C834 C832 1.358 . S
C834 N835 1.279 . S
C834 H875 0.930 . S
N835 C833 1.314 . S
N835 C834 1.279 . S
C836 C838 1.353 . S
C836 N839 1.314 . S
C836 H842 0.930 . S
C837 N839 1.279 . S
C837 C840 1.358 . S
C837 H843 0.930 . S
C838 C836 1.353 . S
C838 C841 1.348 . S
C838 H876 0.929 . S
N839 Li794 1.990 . S
N839 C836 1.314 . S
N839 C837 1.279 . S
C840 C837 1.358 . S
C840 C841 1.356 . S
C840 H877 0.930 . S
C841 C838 1.348 . S
C841 C840 1.356 . S
H842 C836 0.930 . S
H843 C837 0.930 . S
C844 N845 1.314 . S
C844 C846 1.353 . S
C844 H850 0.930 . S
N845 Li795 1.990 . S
N845 C844 1.314 . S
N845 C848 1.279 . S
C846 C844 1.353 . S
C846 C849 1.348 . S
C846 H878 0.929 . S
C847 C848 1.358 . S
C847 C849 1.356 . S
C847 H879 0.930 . S
C848 N845 1.279 . S
C848 C847 1.358 . S
C848 H851 0.930 . S
C849 C846 1.348 . S
C849 C847 1.356 . S
H850 C844 0.930 . S
H851 C848 0.930 . S
O852 Li792 1.956 . S
O852 Li793 1.970 . S
O852 Li794 1.961 . S
O852 C796 1.325 . S
O853 Li792 1.970 . S
O853 Li793 1.956 . S
O853 Li795 1.961 . S
O853 C802 1.325 . S
O854 Li792 1.961 . S
O854 Li794 1.956 . S
O854 Li795 1.970 . S
O854 C824 1.325 . S
O855 Li793 1.961 . S
O855 Li794 1.970 . S
O855 Li795 1.956 . S
O855 C830 1.325 . S
H856 C798 0.929 . S
H857 C799 0.930 . S
H858 C800 0.930 . S
H859 C801 0.930 . S
H860 C803 0.930 . S
H861 C805 0.929 . S
H862 C806 0.930 . S
H863 C807 0.930 . S
H864 C810 0.930 . S
H865 C813 0.929 . S
H866 C818 0.929 . S
H867 C819 0.930 . S
H868 C826 0.929 . S
H869 C827 0.930 . S
H870 C828 0.930 . S
H871 C829 0.930 . S
H872 C831 0.929 . S
H873 C832 0.930 . S
H874 C833 0.930 . S
H875 C834 0.930 . S
H876 C838 0.929 . S
H877 C840 0.930 . S
H878 C846 0.929 . S
H879 C847 0.930 . S
Li880 N897 1.990 . S
Li880 O940 1.956 . S
Li880 O941 1.970 . S
Li880 O942 1.981 . S
Li881 N905 1.990 . S
Li881 O940 1.967 . S
Li881 O941 1.978 . S
Li881 O943 1.942 1_545 S
Li882 N927 1.990 . S
Li882 O940 1.961 1_565 S
Li882 O942 1.930 1_565 S
Li882 O943 1.970 . S
Li883 N933 1.990 . S
Li883 O941 1.961 1_565 S
Li883 O942 1.972 1_565 S
Li883 O943 1.956 . S
C884 C886 1.348 . S
C884 C887 1.356 . S
C884 O940 1.325 . S
N885 C888 1.314 . S
N885 C889 1.279 . S
C886 C884 1.348 . S
C886 C888 1.353 . S
C886 H944 0.929 . S
C887 C884 1.356 . S
C887 C889 1.358 . S
C887 H945 0.930 . S
C888 N885 1.314 . S
C888 C886 1.353 . S
C888 H946 0.930 . S
C889 N885 1.279 . S
C889 C887 1.358 . S
C889 H947 0.930 . S
C890 C893 1.348 . S
C890 C894 1.356 . S
C890 O941 1.325 . S
C891 N892 1.279 . S
C891 C894 1.358 . S
C891 H948 0.930 . S
N892 C891 1.279 . S
N892 C895 1.314 . S
C893 C890 1.348 . S
C893 C895 1.353 . S
C893 H949 0.929 . S
C894 C890 1.356 . S
C894 C891 1.358 . S
C894 H950 0.930 . S
C895 N892 1.314 . S
C895 C893 1.353 . S
C895 H951 0.930 . S
C896 N897 1.314 . S
C896 C901 1.353 . S
C896 H902 0.930 . S
N897 Li880 1.990 . S
N897 C896 1.314 . S
N897 C899 1.279 . S
C898 C899 1.358 . S
C898 C900 1.356 . S
C898 H952 0.930 . S
C899 N897 1.279 . S
C899 C898 1.358 . S
C899 H903 0.930 . S
C900 C898 1.356 . S
C900 C901 1.348 . S
C901 C896 1.353 . S
C901 C900 1.348 . S
C901 H953 0.929 . S
H902 C896 0.930 . S
H903 C899 0.930 . S
C904 N905 1.290 1_565 S
C904 C906 1.353 . S
C904 H910 0.930 . S
N905 Li881 1.990 . S
N905 C904 1.290 1_545 S
N905 C908 1.303 . S
C906 C904 1.353 . S
C906 C909 1.351 1_565 S
C906 H954 0.929 . S
C907 C908 1.358 . S
C907 C909 1.352 . S
C907 H955 0.930 . S
C908 N905 1.303 . S
C908 C907 1.358 . S
C908 H911 0.930 . S
C909 C906 1.351 1_545 S
C909 C907 1.352 . S
H910 C904 0.930 . S
H911 C908 0.930 . S
C912 C914 1.346 1_545 S
C912 C915 1.357 . S
C912 O942 1.325 . S
N913 C916 1.323 . S
N913 C917 1.273 1_565 S
C914 C912 1.346 1_565 S
C914 C916 1.353 . S
C914 H956 0.929 . S
C915 C912 1.357 . S
C915 C917 1.358 . S
C915 H957 0.930 . S
C916 N913 1.323 . S
C916 C914 1.353 . S
C916 H958 0.930 . S
C917 N913 1.273 1_545 S
C917 C915 1.358 . S
C917 H959 0.930 . S
C918 C919 1.348 . S
C918 C920 1.356 . S
C918 O943 1.325 . S
C919 C918 1.348 . S
C919 C921 1.353 . S
C919 H960 0.929 . S
C920 C918 1.356 . S
C920 C922 1.358 . S
C920 H961 0.930 . S
C921 C919 1.353 . S
C921 N923 1.314 . S
C921 H962 0.930 . S
C922 C920 1.358 . S
C922 N923 1.279 . S
C922 H963 0.930 . S
N923 C921 1.314 . S
N923 C922 1.279 . S
C924 C926 1.353 . S
C924 N927 1.314 . S
C924 H930 0.930 . S
C925 N927 1.279 . S
C925 C928 1.358 . S
C925 H931 0.930 . S
C926 C924 1.353 . S
C926 C929 1.348 . S
C926 H964 0.929 . S
N927 Li882 1.990 . S
N927 C924 1.314 . S
N927 C925 1.279 . S
C928 C925 1.358 . S
C928 C929 1.356 . S
C928 H965 0.930 . S
C929 C926 1.348 . S
C929 C928 1.356 . S
H930 C924 0.930 . S
H931 C925 0.930 . S
C932 N933 1.314 1_545 S
C932 C934 1.353 . S
C932 H938 0.930 . S
N933 Li883 1.990 . S
N933 C932 1.314 1_565 S
N933 C936 1.279 . S
C934 C932 1.353 . S
C934 C937 1.348 1_545 S
C934 H966 0.929 . S
C935 C936 1.358 . S
C935 C937 1.356 . S
C935 H967 0.930 . S
C936 N933 1.279 . S
C936 C935 1.358 . S
C936 H939 0.930 . S
C937 C934 1.348 1_565 S
C937 C935 1.356 . S
H938 C932 0.930 . S
H939 C936 0.930 . S
O940 Li880 1.956 . S
O940 Li881 1.967 . S
O940 Li882 1.961 1_545 S
O940 C884 1.325 . S
O941 Li880 1.970 . S
O941 Li881 1.978 . S
O941 Li883 1.961 1_545 S
O941 C890 1.325 . S
O942 Li880 1.981 . S
O942 Li882 1.930 1_545 S
O942 Li883 1.972 1_545 S
O942 C912 1.325 . S
O943 Li881 1.942 1_565 S
O943 Li882 1.970 . S
O943 Li883 1.956 . S
O943 C918 1.325 . S
H944 C886 0.929 . S
H945 C887 0.930 . S
H946 C888 0.930 . S
H947 C889 0.930 . S
H948 C891 0.930 . S
H949 C893 0.929 . S
H950 C894 0.930 . S
H951 C895 0.930 . S
H952 C898 0.930 . S
H953 C901 0.929 . S
H954 C906 0.929 . S
H955 C907 0.930 . S
H956 C914 0.929 . S
H957 C915 0.930 . S
H958 C916 0.930 . S
H959 C917 0.930 . S
H960 C919 0.929 . S
H961 C920 0.930 . S
H962 C921 0.930 . S
H963 C922 0.930 . S
H964 C926 0.929 . S
H965 C928 0.930 . S
H966 C934 0.929 . S
H967 C935 0.930 . S
Li968 N985 1.990 . S
Li968 O1028 1.956 . S
Li968 O1029 1.970 . S
Li968 O1030 1.961 1_554 S
Li969 N993 1.990 . S
Li969 O1028 1.970 . S
Li969 O1029 1.956 . S
Li969 O1031 1.961 . S
Li970 N1015 1.990 . S
Li970 O1028 1.961 . S
Li970 O1030 1.956 1_554 S
Li970 O1031 1.970 . S
Li971 N1021 1.990 . S
Li971 O1029 1.961 1_556 S
Li971 O1030 1.970 . S
Li971 O1031 1.956 1_556 S
C972 C974 1.348 . S
C972 C975 1.356 . S
C972 O1028 1.325 . S
N973 C976 1.314 . S
N973 C977 1.279 . S
C974 C972 1.348 . S
C974 C976 1.353 . S
C974 H1032 0.929 . S
C975 C972 1.356 . S
C975 C977 1.358 . S
C975 H1033 0.930 . S
C976 N973 1.314 . S
C976 C974 1.353 . S
C976 H1034 0.930 . S
C977 N973 1.279 . S
C977 C975 1.358 . S
C977 H1035 0.930 1_565 S
C978 C981 1.348 . S
C978 C982 1.356 . S
C978 O1029 1.325 . S
C979 N980 1.279 . S
C979 C982 1.358 . S
C979 H1036 0.930 1_554 S
N980 C979 1.279 . S
N980 C983 1.314 . S
C981 C978 1.348 . S
C981 C983 1.353 . S
C981 H1037 0.929 . S
C982 C978 1.356 . S
C982 C979 1.358 . S
C982 H1038 0.929 1_554 S
C983 N980 1.314 . S
C983 C981 1.353 . S
C983 H1039 0.930 . S
C984 N985 1.314 . S
C984 C989 1.359 . S
C984 H990 0.930 1_554 S
N985 Li968 1.990 . S
N985 C984 1.314 . S
N985 C987 1.279 . S
C986 C987 1.358 . S
C986 C988 1.356 . S
C986 H1040 0.930 . S
C987 N985 1.279 . S
C987 C986 1.358 . S
C987 H991 0.930 . S
C988 C986 1.356 . S
C988 C989 1.393 . S
C989 C984 1.359 . S
C989 C988 1.393 . S
C989 H1041 0.880 1_554 S
H990 C984 0.930 1_556 S
H991 C987 0.930 . S
C992 N993 1.314 . S
C992 C994 1.353 . S
C992 H998 0.930 . S
N993 Li969 1.990 . S
N993 C992 1.314 . S
N993 C996 1.279 . S
C994 C992 1.353 . S
C994 C997 1.348 . S
C994 H1042 0.929 . S
C995 C996 1.358 . S
C995 C997 1.356 . S
C995 H1043 0.930 . S
C996 N993 1.279 . S
C996 C995 1.358 . S
C996 H999 0.930 . S
C997 C994 1.348 . S
C997 C995 1.356 . S
H998 C992 0.930 . S
H999 C996 0.930 . S
C1000 C1002 1.348 . S
C1000 C1003 1.356 . S
C1000 O1030 1.325 . S
N1001 C1004 1.314 . S
N1001 C1005 1.279 . S
C1002 C1000 1.348 . S
C1002 C1004 1.353 . S
C1002 H1044 0.929 . S
C1003 C1000 1.356 . S
C1003 C1005 1.358 . S
C1003 H1045 0.930 . S
C1004 N1001 1.314 . S
C1004 C1002 1.353 . S
C1004 H1046 0.930 . S
C1005 N1001 1.279 . S
C1005 C1003 1.358 . S
C1005 H1047 0.930 . S
C1006 C1007 1.348 . S
C1006 C1008 1.356 . S
C1006 O1031 1.325 . S
C1007 C1006 1.348 . S
C1007 C1009 1.353 . S
C1007 H1048 0.929 . S
C1008 C1006 1.356 . S
C1008 C1010 1.358 . S
C1008 H1049 0.930 . S
C1009 C1007 1.353 . S
C1009 N1011 1.314 . S
C1009 H1050 0.930 . S
C1010 C1008 1.358 . S
C1010 N1011 1.279 . S
C1010 H1051 0.930 . S
N1011 C1009 1.314 . S
N1011 C1010 1.279 . S
C1012 C1014 1.353 . S
C1012 N1015 1.314 . S
C1012 H1018 0.930 . S
C1013 N1015 1.279 . S
C1013 C1016 1.358 . S
C1013 H1019 0.930 1_554 S
C1014 C1012 1.353 . S
C1014 C1017 1.348 . S
C1014 H1052 0.929 . S
N1015 Li970 1.990 . S
N1015 C1012 1.314 . S
N1015 C1013 1.279 . S
C1016 C1013 1.358 . S
C1016 C1017 1.356 . S
C1016 H1053 0.930 1_554 S
C1017 C1014 1.348 . S
C1017 C1016 1.356 . S
H1018 C1012 0.930 . S
H1019 C1013 0.930 1_556 S
C1020 N1021 1.314 . S
C1020 C1022 1.353 . S
C1020 H1026 0.930 . S
N1021 Li971 1.990 . S
N1021 C1020 1.314 . S
N1021 C1024 1.279 . S
C1022 C1020 1.353 . S
C1022 C1025 1.348 . S
C1022 H1054 0.929 . S
C1023 C1024 1.358 . S
C1023 C1025 1.356 . S
C1023 H1055 0.930 . S
C1024 N1021 1.279 . S
C1024 C1023 1.358 . S
C1024 H1027 0.930 . S
C1025 C1022 1.348 . S
C1025 C1023 1.356 . S
H1026 C1020 0.930 . S
H1027 C1024 0.930 . S
O1028 Li968 1.956 . S
O1028 Li969 1.970 . S
O1028 Li970 1.961 . S
O1028 C972 1.325 . S
O1029 Li968 1.970 . S
O1029 Li969 1.956 . S
O1029 Li971 1.961 1_554 S
O1029 C978 1.325 . S
O1030 Li968 1.961 1_556 S
O1030 Li970 1.956 1_556 S
O1030 Li971 1.970 . S
O1030 C1000 1.325 . S
O1031 Li969 1.961 . S
O1031 Li970 1.970 . S
O1031 Li971 1.956 1_554 S
O1031 C1006 1.325 . S
H1032 C974 0.929 . S
H1033 C975 0.930 . S
H1034 C976 0.930 . S
H1035 C977 0.930 1_545 S
H1036 C979 0.930 1_556 S
H1037 C981 0.929 . S
H1038 C982 0.929 1_556 S
H1039 C983 0.930 . S
H1040 C986 0.930 . S
H1041 C989 0.880 1_556 S
H1042 C994 0.929 . S
H1043 C995 0.930 . S
H1044 C1002 0.929 . S
H1045 C1003 0.930 . S
H1046 C1004 0.930 . S
H1047 C1005 0.930 . S
H1048 C1007 0.929 . S
H1049 C1008 0.930 . S
H1050 C1009 0.930 . S
H1051 C1010 0.930 . S
H1052 C1014 0.929 . S
H1053 C1016 0.930 1_556 S
H1054 C1022 0.929 . S
H1055 C1023 0.930 . S
Li1056 N1073 1.990 . S
Li1056 O1116 1.956 . S
Li1056 O1117 1.970 . S
Li1056 O1118 1.961 . S
Li1057 N1081 1.990 . S
Li1057 O1116 1.970 . S
Li1057 O1117 1.956 . S
Li1057 O1119 1.961 . S
Li1058 N1103 1.990 . S
Li1058 O1116 1.961 . S
Li1058 O1118 1.956 . S
Li1058 O1119 1.970 . S
Li1059 N1109 1.990 1_554 S
Li1059 O1117 1.961 . S
Li1059 O1118 1.970 . S
Li1059 O1119 1.956 . S
C1060 C1062 1.348 . S
C1060 C1063 1.356 . S
C1060 O1116 1.325 . S
N1061 C1064 1.314 . S
N1061 C1065 1.279 . S
C1062 C1060 1.348 . S
C1062 C1064 1.353 . S
C1062 H1120 0.929 . S
C1063 C1060 1.356 . S
C1063 C1065 1.358 . S
C1063 H1121 0.930 . S
C1064 N1061 1.314 . S
C1064 C1062 1.353 . S
C1064 H1122 0.930 . S
C1065 N1061 1.279 . S
C1065 C1063 1.358 . S
C1065 H1123 0.930 . S
C1066 C1069 1.348 . S
C1066 C1070 1.356 . S
C1066 O1117 1.325 . S
C1067 N1068 1.279 . S
C1067 C1070 1.358 . S
C1067 H1124 0.930 . S
N1068 C1067 1.279 . S
N1068 C1071 1.314 . S
C1069 C1066 1.348 . S
C1069 C1071 1.353 . S
C1069 H1125 0.929 . S
C1070 C1066 1.356 . S
C1070 C1067 1.358 . S
C1070 H1126 0.930 . S
C1071 N1068 1.314 . S
C1071 C1069 1.353 . S
C1071 H1127 0.930 . S
C1072 N1073 1.314 . S
C1072 C1077 1.353 . S
C1072 H1078 0.930 . S
N1073 Li1056 1.990 . S
N1073 C1072 1.314 . S
N1073 C1075 1.279 . S
C1074 C1075 1.358 . S
C1074 C1076 1.356 . S
C1074 H1128 0.930 . S
C1075 N1073 1.279 . S
C1075 C1074 1.358 . S
C1075 H1079 0.930 . S
C1076 C1074 1.356 . S
C1076 C1077 1.348 . S
C1077 C1072 1.353 . S
C1077 C1076 1.348 . S
C1077 H1129 0.929 . S
H1078 C1072 0.930 . S
H1079 C1075 0.930 . S
C1080 N1081 1.314 . S
C1080 C1082 1.353 . S
C1080 H1086 0.930 . S
N1081 Li1057 1.990 . S
N1081 C1080 1.314 . S
N1081 C1084 1.279 . S
C1082 C1080 1.353 . S
C1082 C1085 1.348 . S
C1082 H1130 0.929 . S
C1083 C1084 1.358 . S
C1083 C1085 1.356 . S
C1083 H1131 0.930 . S
C1084 N1081 1.279 . S
C1084 C1083 1.358 . S
C1084 H1087 0.930 . S
C1085 C1082 1.348 . S
C1085 C1083 1.356 . S
H1086 C1080 0.930 . S
H1087 C1084 0.930 . S
C1088 C1090 1.348 1_554 S
C1088 C1091 1.356 . S
C1088 O1118 1.325 . S
N1089 C1092 1.314 . S
N1089 C1093 1.279 . S
C1090 C1088 1.348 1_556 S
C1090 C1092 1.353 . S
C1090 H1132 0.929 . S
C1091 C1088 1.356 . S
C1091 C1093 1.358 1_554 S
C1091 H1133 0.930 . S
C1092 N1089 1.314 . S
C1092 C1090 1.353 . S
C1092 H1134 0.930 . S
C1093 N1089 1.279 . S
C1093 C1091 1.358 1_556 S
C1093 H1135 0.930 . S
C1094 C1095 1.348 . S
C1094 C1096 1.356 . S
C1094 O1119 1.325 . S
C1095 C1094 1.348 . S
C1095 C1097 1.353 . S
C1095 H1136 0.929 . S
C1096 C1094 1.356 . S
C1096 C1098 1.358 . S
C1096 H1137 0.930 . S
C1097 C1095 1.353 . S
C1097 N1099 1.314 . S
C1097 H1138 0.930 . S
C1098 C1096 1.358 . S
C1098 N1099 1.279 . S
C1098 H1139 0.930 . S
N1099 C1097 1.314 . S
N1099 C1098 1.279 . S
C1100 C1102 1.353 . S
C1100 N1103 1.314 . S
C1100 H1106 0.930 . S
C1101 N1103 1.279 . S
C1101 C1104 1.358 . S
C1101 H1107 0.930 . S
C1102 C1100 1.353 . S
C1102 C1105 1.348 . S
C1102 H1140 0.929 . S
N1103 Li1058 1.990 . S
N1103 C1100 1.314 . S
N1103 C1101 1.279 . S
C1104 C1101 1.358 . S
C1104 C1105 1.356 . S
C1104 H1141 0.930 . S
C1105 C1102 1.348 . S
C1105 C1104 1.356 . S
H1106 C1100 0.930 . S
H1107 C1101 0.930 . S
C1108 N1109 1.314 . S
C1108 C1110 1.353 . S
C1108 H1114 0.930 . S
N1109 Li1059 1.990 1_556 S
N1109 C1108 1.314 . S
N1109 C1112 1.279 . S
C1110 C1108 1.353 . S
C1110 C1113 1.348 . S
C1110 H1142 0.929 . S
C1111 C1112 1.358 . S
C1111 C1113 1.356 . S
C1111 H1143 0.930 . S
C1112 N1109 1.279 . S
C1112 C1111 1.358 . S
C1112 H1115 0.930 . S
C1113 C1110 1.348 . S
C1113 C1111 1.356 . S
H1114 C1108 0.930 . S
H1115 C1112 0.930 . S
O1116 Li1056 1.956 . S
O1116 Li1057 1.970 . S
O1116 Li1058 1.961 . S
O1116 C1060 1.325 . S
O1117 Li1056 1.970 . S
O1117 Li1057 1.956 . S
O1117 Li1059 1.961 . S
O1117 C1066 1.325 . S
O1118 Li1056 1.961 . S
O1118 Li1058 1.956 . S
O1118 Li1059 1.970 . S
O1118 C1088 1.325 . S
O1119 Li1057 1.961 . S
O1119 Li1058 1.970 . S
O1119 Li1059 1.956 . S
O1119 C1094 1.325 . S
H1120 C1062 0.929 . S
H1121 C1063 0.930 . S
H1122 C1064 0.930 . S
H1123 C1065 0.930 . S
H1124 C1067 0.930 . S
H1125 C1069 0.929 . S
H1126 C1070 0.930 . S
H1127 C1071 0.930 . S
H1128 C1074 0.930 . S
H1129 C1077 0.929 . S
H1130 C1082 0.929 . S
H1131 C1083 0.930 . S
H1132 C1090 0.929 . S
H1133 C1091 0.930 . S
H1134 C1092 0.930 . S
H1135 C1093 0.930 . S
H1136 C1095 0.929 . S
H1137 C1096 0.930 . S
H1138 C1097 0.930 . S
H1139 C1098 0.930 . S
H1140 C1102 0.929 . S
H1141 C1104 0.930 . S
H1142 C1110 0.929 . S
H1143 C1111 0.930 . S
Li1144 N1161 1.990 . S
Li1144 O1204 1.956 . S
Li1144 O1205 1.970 . S
Li1144 O1206 1.961 . S
Li1145 N1169 1.990 . S
Li1145 O1204 1.970 . S
Li1145 O1205 1.956 . S
Li1145 O1207 1.917 1_554 S
Li1146 N1191 1.990 1_554 S
Li1146 O1204 1.961 . S
Li1146 O1206 1.956 . S
Li1146 O1207 1.971 1_554 S
Li1147 N1197 1.990 . S
Li1147 O1205 1.961 . S
Li1147 O1206 1.970 . S
Li1147 O1207 1.912 1_554 S
C1148 C1150 1.348 . S
C1148 C1151 1.356 . S
C1148 O1204 1.325 . S
N1149 C1152 1.314 . S
N1149 C1153 1.279 . S
C1150 C1148 1.348 . S
C1150 C1152 1.353 . S
C1150 H1208 0.929 . S
C1151 C1148 1.356 . S
C1151 C1153 1.358 . S
C1151 H1209 0.930 . S
C1152 N1149 1.314 . S
C1152 C1150 1.353 . S
C1152 H1210 0.930 . S
C1153 N1149 1.279 . S
C1153 C1151 1.358 . S
C1153 H1211 0.930 . S
C1154 C1157 1.348 . S
C1154 C1158 1.356 . S
C1154 O1205 1.325 . S
C1155 N1156 1.279 . S
C1155 C1158 1.358 . S
C1155 H1212 0.930 . S
N1156 C1155 1.279 . S
N1156 C1159 1.314 . S
C1157 C1154 1.348 . S
C1157 C1159 1.353 . S
C1157 H1213 0.929 . S
C1158 C1154 1.356 . S
C1158 C1155 1.358 . S
C1158 H1214 0.930 . S
C1159 N1156 1.314 . S
C1159 C1157 1.353 . S
C1159 H1215 0.930 . S
C1160 N1161 1.314 . S
C1160 C1165 1.353 . S
C1160 H1166 0.930 . S
N1161 Li1144 1.990 . S
N1161 C1160 1.314 . S
N1161 C1163 1.279 . S
C1162 C1163 1.358 . S
C1162 C1164 1.356 . S
C1162 H1216 0.930 . S
C1163 N1161 1.279 . S
C1163 C1162 1.358 . S
C1163 H1167 0.930 . S
C1164 C1162 1.356 . S
C1164 C1165 1.348 . S
C1165 C1160 1.353 . S
C1165 C1164 1.348 . S
C1165 H1217 0.929 . S
H1166 C1160 0.930 . S
H1167 C1163 0.930 . S
C1168 N1169 1.314 . S
C1168 C1170 1.353 . S
C1168 H1174 0.930 1_554 S
N1169 Li1145 1.990 . S
N1169 C1168 1.314 . S
N1169 C1172 1.279 . S
C1170 C1168 1.353 . S
C1170 C1173 1.348 . S
C1170 H1218 0.929 1_554 S
C1171 C1172 1.358 . S
C1171 C1173 1.356 . S
C1171 H1219 0.930 . S
C1172 N1169 1.279 . S
C1172 C1171 1.358 . S
C1172 H1175 0.930 . S
C1173 C1170 1.348 . S
C1173 C1171 1.356 . S
H1174 C1168 0.930 1_556 S
H1175 C1172 0.930 . S
C1176 C1178 1.348 . S
C1176 C1179 1.356 . S
C1176 O1206 1.325 . S
N1177 C1180 1.314 . S
N1177 C1181 1.279 . S
C1178 C1176 1.348 . S
C1178 C1180 1.353 . S
C1178 H1220 0.929 . S
C1179 C1176 1.356 . S
C1179 C1181 1.358 . S
C1179 H1221 0.930 . S
C1180 N1177 1.314 . S
C1180 C1178 1.353 . S
C1180 H1222 0.930 . S
C1181 N1177 1.279 . S
C1181 C1179 1.358 . S
C1181 H1223 0.930 . S
C1182 C1183 1.348 . S
C1182 C1184 1.356 . S
C1182 O1207 1.371 . S
C1183 C1182 1.348 . S
C1183 C1185 1.353 . S
C1183 H1224 0.929 . S
C1184 C1182 1.356 . S
C1184 C1186 1.358 . S
C1184 H1225 0.930 . S
C1185 C1183 1.353 . S
C1185 N1187 1.314 . S
C1185 H1226 0.930 . S
C1186 C1184 1.358 . S
C1186 N1187 1.279 . S
C1186 H1227 0.930 . S
N1187 C1185 1.314 . S
N1187 C1186 1.279 . S
C1188 C1190 1.353 . S
C1188 N1191 1.314 . S
C1188 H1194 0.930 . S
C1189 N1191 1.279 . S
C1189 C1192 1.358 . S
C1189 H1195 0.930 . S
C1190 C1188 1.353 . S
C1190 C1193 1.348 . S
C1190 H1228 0.929 . S
N1191 Li1146 1.990 1_556 S
N1191 C1188 1.314 . S
N1191 C1189 1.279 . S
C1192 C1189 1.358 . S
C1192 C1193 1.356 . S
C1192 H1229 0.930 . S
C1193 C1190 1.348 . S
C1193 C1192 1.356 . S
H1194 C1188 0.930 . S
H1195 C1189 0.930 . S
C1196 N1197 1.314 . S
C1196 C1198 1.353 . S
C1196 H1202 0.930 . S
N1197 Li1147 1.990 . S
N1197 C1196 1.314 . S
N1197 C1200 1.247 1_554 S
C1198 C1196 1.353 . S
C1198 C1201 1.348 . S
C1198 H1230 0.929 . S
C1199 C1200 1.357 . S
C1199 C1201 1.356 1_556 S
C1199 H1231 0.930 . S
C1200 N1197 1.247 1_556 S
C1200 C1199 1.357 . S
C1200 H1203 0.969 . S
C1201 C1198 1.348 . S
C1201 C1199 1.356 1_554 S
H1202 C1196 0.930 . S
H1203 C1200 0.969 . S
O1204 Li1144 1.956 . S
O1204 Li1145 1.970 . S
O1204 Li1146 1.961 . S
O1204 C1148 1.325 . S
O1205 Li1144 1.970 . S
O1205 Li1145 1.956 . S
O1205 Li1147 1.961 . S
O1205 C1154 1.325 . S
O1206 Li1144 1.961 . S
O1206 Li1146 1.956 . S
O1206 Li1147 1.970 . S
O1206 C1176 1.325 . S
O1207 Li1145 1.917 1_556 S
O1207 Li1146 1.971 1_556 S
O1207 Li1147 1.912 1_556 S
O1207 C1182 1.371 . S
H1208 C1150 0.929 . S
H1209 C1151 0.930 . S
H1210 C1152 0.930 . S
H1211 C1153 0.930 . S
H1212 C1155 0.930 . S
H1213 C1157 0.929 . S
H1214 C1158 0.930 . S
H1215 C1159 0.930 . S
H1216 C1162 0.930 . S
H1217 C1165 0.929 . S
H1218 C1170 0.929 1_556 S
H1219 C1171 0.930 . S
H1220 C1178 0.929 . S
H1221 C1179 0.930 . S
H1222 C1180 0.930 . S
H1223 C1181 0.930 . S
H1224 C1183 0.929 . S
H1225 C1184 0.930 . S
H1226 C1185 0.930 . S
H1227 C1186 0.930 . S
H1228 C1190 0.929 . S
H1229 C1192 0.930 . S
H1230 C1198 0.929 . S
H1231 C1199 0.930 . S
Li1232 N1249 1.990 . S
Li1232 O1292 1.956 . S
Li1232 O1293 1.970 . S
Li1232 O1294 1.961 . S
Li1233 N1257 1.990 . S
Li1233 O1292 1.970 . S
Li1233 O1293 1.956 . S
Li1233 O1295 1.961 . S
Li1234 N1279 1.990 . S
Li1234 O1292 1.961 . S
Li1234 O1294 1.956 . S
Li1234 O1295 1.970 . S
Li1235 N1285 1.990 . S
Li1235 O1293 1.961 . S
Li1235 O1294 1.970 . S
Li1235 O1295 1.956 . S
C1236 C1238 1.348 . S
C1236 C1239 1.356 . S
C1236 O1292 1.325 . S
N1237 C1240 1.314 . S
N1237 C1241 1.279 . S
C1238 C1236 1.348 . S
C1238 C1240 1.353 . S
C1238 H1296 0.929 . S
C1239 C1236 1.356 . S
C1239 C1241 1.358 . S
C1239 H1297 0.930 . S
C1240 N1237 1.314 . S
C1240 C1238 1.353 . S
C1240 H1298 0.930 . S
C1241 N1237 1.279 . S
C1241 C1239 1.358 . S
C1241 H1299 0.930 . S
C1242 C1245 1.348 . S
C1242 C1246 1.356 . S
C1242 O1293 1.325 . S
C1243 N1244 1.279 . S
C1243 C1246 1.358 . S
C1243 H1300 0.930 . S
N1244 C1243 1.279 . S
N1244 C1247 1.314 . S
C1245 C1242 1.348 . S
C1245 C1247 1.353 . S
C1245 H1301 0.929 . S
C1246 C1242 1.356 . S
C1246 C1243 1.358 . S
C1246 H1302 0.930 . S
C1247 N1244 1.314 . S
C1247 C1245 1.353 . S
C1247 H1303 0.930 . S
C1248 N1249 1.314 . S
C1248 C1253 1.353 . S
C1248 H1254 0.930 . S
N1249 Li1232 1.990 . S
N1249 C1248 1.314 . S
N1249 C1251 1.279 . S
C1250 C1251 1.358 . S
C1250 C1252 1.356 . S
C1250 H1304 0.930 . S
C1251 N1249 1.279 . S
C1251 C1250 1.358 . S
C1251 H1255 0.930 . S
C1252 C1250 1.356 . S
C1252 C1253 1.348 . S
C1253 C1248 1.353 . S
C1253 C1252 1.348 . S
C1253 H1305 0.929 . S
H1254 C1248 0.930 . S
H1255 C1251 0.930 . S
C1256 N1257 1.314 . S
C1256 C1258 1.353 . S
C1256 H1262 0.930 . S
N1257 Li1233 1.990 . S
N1257 C1256 1.314 . S
N1257 C1260 1.279 . S
C1258 C1256 1.353 . S
C1258 C1261 1.348 . S
C1258 H1306 0.929 . S
C1259 C1260 1.358 . S
C1259 C1261 1.356 . S
C1259 H1307 0.930 . S
C1260 N1257 1.279 . S
C1260 C1259 1.358 . S
C1260 H1263 0.930 . S
C1261 C1258 1.348 . S
C1261 C1259 1.356 . S
H1262 C1256 0.930 . S
H1263 C1260 0.930 . S
C1264 C1266 1.348 . S
C1264 C1267 1.356 . S
C1264 O1294 1.325 . S
N1265 C1268 1.314 . S
N1265 C1269 1.279 . S
C1266 C1264 1.348 . S
C1266 C1268 1.353 . S
C1266 H1308 0.929 . S
C1267 C1264 1.356 . S
C1267 C1269 1.358 . S
C1267 H1309 0.930 . S
C1268 N1265 1.314 . S
C1268 C1266 1.353 . S
C1268 H1310 0.930 . S
C1269 N1265 1.279 . S
C1269 C1267 1.358 . S
C1269 H1311 0.930 . S
C1270 C1271 1.348 . S
C1270 C1272 1.356 . S
C1270 O1295 1.325 . S
C1271 C1270 1.348 . S
C1271 C1273 1.353 . S
C1271 H1312 0.929 . S
C1272 C1270 1.356 . S
C1272 C1274 1.358 . S
C1272 H1313 0.930 . S
C1273 C1271 1.353 . S
C1273 N1275 1.314 . S
C1273 H1314 0.930 . S
C1274 C1272 1.358 . S
C1274 N1275 1.279 . S
C1274 H1315 0.930 . S
N1275 C1273 1.314 . S
N1275 C1274 1.279 . S
C1276 C1278 1.353 . S
C1276 N1279 1.314 . S
C1276 H1282 0.930 . S
C1277 N1279 1.279 . S
C1277 C1280 1.358 . S
C1277 H1283 0.930 . S
C1278 C1276 1.353 . S
C1278 C1281 1.348 . S
C1278 H1316 0.929 . S
N1279 Li1234 1.990 . S
N1279 C1276 1.314 . S
N1279 C1277 1.279 . S
C1280 C1277 1.358 . S
C1280 C1281 1.356 . S
C1280 H1317 0.930 . S
C1281 C1278 1.348 . S
C1281 C1280 1.356 . S
H1282 C1276 0.930 . S
H1283 C1277 0.930 . S
C1284 N1285 1.314 . S
C1284 C1286 1.353 . S
C1284 H1290 0.930 . S
N1285 Li1235 1.990 . S
N1285 C1284 1.314 . S
N1285 C1288 1.279 . S
C1286 C1284 1.353 . S
C1286 C1289 1.348 . S
C1286 H1318 0.929 . S
C1287 C1288 1.358 . S
C1287 C1289 1.356 . S
C1287 H1319 0.930 . S
C1288 N1285 1.279 . S
C1288 C1287 1.358 . S
C1288 H1291 0.930 . S
C1289 C1286 1.348 . S
C1289 C1287 1.356 . S
H1290 C1284 0.930 . S
H1291 C1288 0.930 . S
O1292 Li1232 1.956 . S
O1292 Li1233 1.970 . S
O1292 Li1234 1.961 . S
O1292 C1236 1.325 . S
O1293 Li1232 1.970 . S
O1293 Li1233 1.956 . S
O1293 Li1235 1.961 . S
O1293 C1242 1.325 . S
O1294 Li1232 1.961 . S
O1294 Li1234 1.956 . S
O1294 Li1235 1.970 . S
O1294 C1264 1.325 . S
O1295 Li1233 1.961 . S
O1295 Li1234 1.970 . S
O1295 Li1235 1.956 . S
O1295 C1270 1.325 . S
H1296 C1238 0.929 . S
H1297 C1239 0.930 . S
H1298 C1240 0.930 . S
H1299 C1241 0.930 . S
H1300 C1243 0.930 . S
H1301 C1245 0.929 . S
H1302 C1246 0.930 . S
H1303 C1247 0.930 . S
H1304 C1250 0.930 . S
H1305 C1253 0.929 . S
H1306 C1258 0.929 . S
H1307 C1259 0.930 . S
H1308 C1266 0.929 . S
H1309 C1267 0.930 . S
H1310 C1268 0.930 . S
H1311 C1269 0.930 . S
H1312 C1271 0.929 . S
H1313 C1272 0.930 . S
H1314 C1273 0.930 . S
H1315 C1274 0.930 . S
H1316 C1278 0.929 . S
H1317 C1280 0.930 . S
H1318 C1286 0.929 . S
H1319 C1287 0.930 . S
Li1320 N1337 1.990 . S
Li1320 O1380 1.956 . S
Li1320 O1381 1.970 . S
Li1320 O1382 1.961 . S
Li1321 N1345 1.990 . S
Li1321 O1380 1.970 . S
Li1321 O1381 1.956 . S
Li1321 O1383 1.961 . S
Li1322 N1367 1.990 . S
Li1322 O1380 1.961 . S
Li1322 O1382 1.956 . S
Li1322 O1383 1.970 . S
Li1323 N1373 1.990 . S
Li1323 O1381 1.961 . S
Li1323 O1382 1.970 . S
Li1323 O1383 1.956 . S
C1324 C1326 1.348 . S
C1324 C1327 1.356 . S
C1324 O1380 1.325 . S
N1325 C1328 1.314 . S
N1325 C1329 1.279 . S
C1326 C1324 1.348 . S
C1326 C1328 1.353 . S
C1326 H1384 0.929 . S
C1327 C1324 1.356 . S
C1327 C1329 1.358 . S
C1327 H1385 0.930 . S
C1328 N1325 1.314 . S
C1328 C1326 1.353 . S
C1328 H1386 0.930 . S
C1329 N1325 1.279 . S
C1329 C1327 1.358 . S
C1329 H1387 0.930 . S
C1330 C1333 1.348 . S
C1330 C1334 1.356 . S
C1330 O1381 1.325 . S
C1331 N1332 1.279 . S
C1331 C1334 1.358 . S
C1331 H1388 0.930 . S
N1332 C1331 1.279 . S
N1332 C1335 1.314 . S
C1333 C1330 1.348 . S
C1333 C1335 1.353 . S
C1333 H1389 0.929 . S
C1334 C1330 1.356 . S
C1334 C1331 1.358 . S
C1334 H1390 0.930 . S
C1335 N1332 1.314 . S
C1335 C1333 1.353 . S
C1335 H1391 0.930 . S
C1336 N1337 1.314 . S
C1336 C1341 1.353 . S
C1336 H1342 0.930 . S
N1337 Li1320 1.990 . S
N1337 C1336 1.314 . S
N1337 C1339 1.279 . S
C1338 C1339 1.358 . S
C1338 C1340 1.356 . S
C1338 H1392 0.930 . S
C1339 N1337 1.279 . S
C1339 C1338 1.358 . S
C1339 H1343 0.930 . S
C1340 C1338 1.356 . S
C1340 C1341 1.348 . S
C1341 C1336 1.353 . S
C1341 C1340 1.348 . S
C1341 H1393 0.929 . S
H1342 C1336 0.930 . S
H1343 C1339 0.930 . S
C1344 N1345 1.314 . S
C1344 C1346 1.353 . S
C1344 H1350 0.930 . S
N1345 Li1321 1.990 . S
N1345 C1344 1.314 . S
N1345 C1348 1.279 . S
C1346 C1344 1.353 . S
C1346 C1349 1.348 . S
C1346 H1394 0.929 . S
C1347 C1348 1.358 . S
C1347 C1349 1.356 . S
C1347 H1395 0.930 . S
C1348 N1345 1.279 . S
C1348 C1347 1.358 . S
C1348 H1351 0.930 . S
C1349 C1346 1.348 . S
C1349 C1347 1.356 . S
H1350 C1344 0.930 . S
H1351 C1348 0.930 . S
C1352 C1354 1.348 . S
C1352 C1355 1.356 . S
C1352 O1382 1.325 . S
N1353 C1356 1.314 . S
N1353 C1357 1.279 . S
C1354 C1352 1.348 . S
C1354 C1356 1.353 . S
C1354 H1396 0.929 . S
C1355 C1352 1.356 . S
C1355 C1357 1.358 . S
C1355 H1397 0.930 . S
C1356 N1353 1.314 . S
C1356 C1354 1.353 . S
C1356 H1398 0.930 . S
C1357 N1353 1.279 . S
C1357 C1355 1.358 . S
C1357 H1399 0.930 . S
C1358 C1359 1.348 . S
C1358 C1360 1.356 . S
C1358 O1383 1.325 . S
C1359 C1358 1.348 . S
C1359 C1361 1.353 . S
C1359 H1400 0.929 . S
C1360 C1358 1.356 . S
C1360 C1362 1.358 . S
C1360 H1401 0.930 . S
C1361 C1359 1.353 . S
C1361 N1363 1.314 . S
C1361 H1402 0.930 . S
C1362 C1360 1.358 . S
C1362 N1363 1.279 . S
C1362 H1403 0.930 . S
N1363 C1361 1.314 . S
N1363 C1362 1.279 . S
C1364 C1366 1.353 . S
C1364 N1367 1.314 . S
C1364 H1370 0.930 . S
C1365 N1367 1.279 . S
C1365 C1368 1.358 . S
C1365 H1371 0.930 . S
C1366 C1364 1.353 . S
C1366 C1369 1.348 . S
C1366 H1404 0.929 . S
N1367 Li1322 1.990 . S
N1367 C1364 1.314 . S
N1367 C1365 1.279 . S
C1368 C1365 1.358 . S
C1368 C1369 1.356 . S
C1368 H1405 0.930 . S
C1369 C1366 1.348 . S
C1369 C1368 1.356 . S
H1370 C1364 0.930 . S
H1371 C1365 0.930 . S
C1372 N1373 1.314 . S
C1372 C1374 1.353 . S
C1372 H1378 0.930 . S
N1373 Li1323 1.990 . S
N1373 C1372 1.314 . S
N1373 C1376 1.279 . S
C1374 C1372 1.353 . S
C1374 C1377 1.348 . S
C1374 H1406 0.929 . S
C1375 C1376 1.358 . S
C1375 C1377 1.356 . S
C1375 H1407 0.930 . S
C1376 N1373 1.279 . S
C1376 C1375 1.358 . S
C1376 H1379 0.930 . S
C1377 C1374 1.348 . S
C1377 C1375 1.356 . S
H1378 C1372 0.930 . S
H1379 C1376 0.930 . S
O1380 Li1320 1.956 . S
O1380 Li1321 1.970 . S
O1380 Li1322 1.961 . S
O1380 C1324 1.325 . S
O1381 Li1320 1.970 . S
O1381 Li1321 1.956 . S
O1381 Li1323 1.961 . S
O1381 C1330 1.325 . S
O1382 Li1320 1.961 . S
O1382 Li1322 1.956 . S
O1382 Li1323 1.970 . S
O1382 C1352 1.325 . S
O1383 Li1321 1.961 . S
O1383 Li1322 1.970 . S
O1383 Li1323 1.956 . S
O1383 C1358 1.325 . S
H1384 C1326 0.929 . S
H1385 C1327 0.930 . S
H1386 C1328 0.930 . S
H1387 C1329 0.930 . S
H1388 C1331 0.930 . S
H1389 C1333 0.929 . S
H1390 C1334 0.930 . S
H1391 C1335 0.930 . S
H1392 C1338 0.930 . S
H1393 C1341 0.929 . S
H1394 C1346 0.929 . S
H1395 C1347 0.930 . S
H1396 C1354 0.929 . S
H1397 C1355 0.930 . S
H1398 C1356 0.930 . S
H1399 C1357 0.930 . S
H1400 C1359 0.929 . S
H1401 C1360 0.930 . S
H1402 C1361 0.930 . S
H1403 C1362 0.930 . S
H1404 C1366 0.929 . S
H1405 C1368 0.930 . S
H1406 C1374 0.929 . S
H1407 C1375 0.930 . S
Li1408 N1425 1.990 . S
Li1408 O1468 1.956 . S
Li1408 O1469 1.970 . S
Li1408 O1470 1.961 . S
Li1409 N1433 1.990 . S
Li1409 O1468 1.970 . S
Li1409 O1469 1.956 . S
Li1409 O1471 1.961 . S
Li1410 N1455 1.990 . S
Li1410 O1468 1.961 . S
Li1410 O1470 1.956 . S
Li1410 O1471 1.970 . S
Li1411 N1461 1.990 . S
Li1411 O1469 1.961 . S
Li1411 O1470 1.970 . S
Li1411 O1471 1.956 . S
C1412 C1414 1.348 . S
C1412 C1415 1.356 . S
C1412 O1468 1.325 . S
N1413 C1416 1.314 . S
N1413 C1417 1.279 . S
C1414 C1412 1.348 . S
C1414 C1416 1.353 . S
C1414 H1472 0.929 . S
C1415 C1412 1.356 . S
C1415 C1417 1.358 . S
C1415 H1473 0.930 . S
C1416 N1413 1.314 . S
C1416 C1414 1.353 . S
C1416 H1474 0.930 1_545 S
C1417 N1413 1.279 . S
C1417 C1415 1.358 . S
C1417 H1475 0.930 1_655 S
C1418 C1421 1.348 . S
C1418 C1422 1.356 . S
C1418 O1469 1.325 . S
C1419 N1420 1.279 . S
C1419 C1422 1.358 . S
C1419 H1476 0.930 . S
N1420 C1419 1.279 . S
N1420 C1423 1.314 . S
C1421 C1418 1.348 . S
C1421 C1423 1.353 . S
C1421 H1477 0.929 . S
C1422 C1418 1.356 . S
C1422 C1419 1.358 . S
C1422 H1478 0.930 . S
C1423 N1420 1.314 . S
C1423 C1421 1.353 . S
C1423 H1479 0.930 . S
C1424 N1425 1.314 . S
C1424 C1429 1.353 . S
C1424 H1430 0.930 . S
N1425 Li1408 1.990 . S
N1425 C1424 1.314 . S
N1425 C1427 1.279 . S
C1426 C1427 1.358 . S
C1426 C1428 1.356 . S
C1426 H1480 0.930 . S
C1427 N1425 1.279 . S
C1427 C1426 1.358 . S
C1427 H1431 0.930 . S
C1428 C1426 1.356 . S
C1428 C1429 1.348 . S
C1429 C1424 1.353 . S
C1429 C1428 1.348 . S
C1429 H1481 0.929 . S
H1430 C1424 0.930 . S
H1431 C1427 0.930 . S
C1432 N1433 1.314 . S
C1432 C1434 1.353 1_545 S
C1432 H1438 0.930 . S
N1433 Li1409 1.990 . S
N1433 C1432 1.314 . S
N1433 C1436 1.279 . S
C1434 C1432 1.353 1_565 S
C1434 C1437 1.348 . S
C1434 H1482 0.929 . S
C1435 C1436 1.358 . S
C1435 C1437 1.356 1_545 S
C1435 H1483 0.930 1_545 S
C1436 N1433 1.279 . S
C1436 C1435 1.358 . S
C1436 H1439 0.930 . S
C1437 C1434 1.348 . S
C1437 C1435 1.356 1_565 S
H1438 C1432 0.930 . S
H1439 C1436 0.930 . S
C1440 C1442 1.348 . S
C1440 C1443 1.356 . S
C1440 O1470 1.325 . S
N1441 C1444 1.314 . S
N1441 C1445 1.286 . S
C1442 C1440 1.348 . S
C1442 C1444 1.353 . S
C1442 H1484 0.929 . S
C1443 C1440 1.356 . S
C1443 C1445 1.366 . S
C1443 H1485 0.930 . S
C1444 N1441 1.314 . S
C1444 C1442 1.353 . S
C1444 H1486 0.930 . S
C1445 N1441 1.286 . S
C1445 C1443 1.366 . S
C1445 H1487 0.914 1_655 S
C1446 C1447 1.348 . S
C1446 C1448 1.356 . S
C1446 O1471 1.325 . S
C1447 C1446 1.348 . S
C1447 C1449 1.353 . S
C1447 H1488 0.929 . S
C1448 C1446 1.356 . S
C1448 C1450 1.358 . S
C1448 H1489 0.930 . S
C1449 C1447 1.353 . S
C1449 N1451 1.314 . S
C1449 H1490 0.930 . S
C1450 C1448 1.358 . S
C1450 N1451 1.279 . S
C1450 H1491 0.930 . S
N1451 C1449 1.314 . S
N1451 C1450 1.279 . S
C1452 C1454 1.353 . S
C1452 N1455 1.314 . S
C1452 H1458 0.930 . S
C1453 N1455 1.279 . S
C1453 C1456 1.358 . S
C1453 H1459 0.930 . S
C1454 C1452 1.353 . S
C1454 C1457 1.348 . S
C1454 H1492 0.929 . S
N1455 Li1410 1.990 . S
N1455 C1452 1.314 . S
N1455 C1453 1.279 . S
C1456 C1453 1.358 . S
C1456 C1457 1.356 . S
C1456 H1493 0.930 . S
C1457 C1454 1.348 . S
C1457 C1456 1.356 . S
H1458 C1452 0.930 . S
H1459 C1453 0.930 . S
C1460 N1461 1.314 . S
C1460 C1462 1.353 . S
C1460 H1466 0.930 . S
N1461 Li1411 1.990 . S
N1461 C1460 1.314 . S
N1461 C1464 1.279 . S
C1462 C1460 1.353 . S
C1462 C1465 1.348 . S
C1462 H1494 0.929 . S
C1463 C1464 1.358 . S
C1463 C1465 1.356 . S
C1463 H1495 0.930 . S
C1464 N1461 1.279 . S
C1464 C1463 1.358 . S
C1464 H1467 0.930 . S
C1465 C1462 1.348 . S
C1465 C1463 1.356 . S
H1466 C1460 0.930 . S
H1467 C1464 0.930 . S
O1468 Li1408 1.956 . S
O1468 Li1409 1.970 . S
O1468 Li1410 1.961 . S
O1468 C1412 1.325 . S
O1469 Li1408 1.970 . S
O1469 Li1409 1.956 . S
O1469 Li1411 1.961 . S
O1469 C1418 1.325 . S
O1470 Li1408 1.961 . S
O1470 Li1410 1.956 . S
O1470 Li1411 1.970 . S
O1470 C1440 1.325 . S
O1471 Li1409 1.961 . S
O1471 Li1410 1.970 . S
O1471 Li1411 1.956 . S
O1471 C1446 1.325 . S
H1472 C1414 0.929 . S
H1473 C1415 0.930 . S
H1474 C1416 0.930 1_565 S
H1475 C1417 0.930 1_455 S
H1476 C1419 0.930 . S
H1477 C1421 0.929 . S
H1478 C1422 0.930 . S
H1479 C1423 0.930 . S
H1480 C1426 0.930 . S
H1481 C1429 0.929 . S
H1482 C1434 0.929 . S
H1483 C1435 0.930 1_565 S
H1484 C1442 0.929 . S
H1485 C1443 0.930 . S
H1486 C1444 0.930 . S
H1487 C1445 0.914 1_455 S
H1488 C1447 0.929 . S
H1489 C1448 0.930 . S
H1490 C1449 0.930 . S
H1491 C1450 0.930 . S
H1492 C1454 0.929 . S
H1493 C1456 0.930 . S
H1494 C1462 0.929 . S
H1495 C1463 0.930 . S
Li1496 N1513 1.990 . S
Li1496 O1556 1.956 . S
Li1496 O1557 1.970 . S
Li1496 O1558 1.961 . S
Li1497 N1521 1.990 . S
Li1497 O1556 1.970 . S
Li1497 O1557 1.956 . S
Li1497 O1559 1.961 . S
Li1498 N1543 1.990 . S
Li1498 O1556 1.961 . S
Li1498 O1558 1.956 . S
Li1498 O1559 1.970 . S
Li1499 N1549 1.990 . S
Li1499 O1557 1.961 . S
Li1499 O1558 1.970 . S
Li1499 O1559 1.956 . S
C1500 C1502 1.348 . S
C1500 C1503 1.356 . S
C1500 O1556 1.325 . S
N1501 C1504 1.314 . S
N1501 C1505 1.279 . S
C1502 C1500 1.348 . S
C1502 C1504 1.353 . S
C1502 H1560 0.929 . S
C1503 C1500 1.356 . S
C1503 C1505 1.358 . S
C1503 H1561 0.930 . S
C1504 N1501 1.314 . S
C1504 C1502 1.353 . S
C1504 H1562 0.930 . S
C1505 N1501 1.279 . S
C1505 C1503 1.358 . S
C1505 H1563 0.930 . S
C1506 C1509 1.348 . S
C1506 C1510 1.356 . S
C1506 O1557 1.325 . S
C1507 N1508 1.279 . S
C1507 C1510 1.358 . S
C1507 H1564 0.930 . S
N1508 C1507 1.279 . S
N1508 C1511 1.314 . S
C1509 C1506 1.348 . S
C1509 C1511 1.353 . S
C1509 H1565 0.929 . S
C1510 C1506 1.356 . S
C1510 C1507 1.358 . S
C1510 H1566 0.930 . S
C1511 N1508 1.314 . S
C1511 C1509 1.353 . S
C1511 H1567 0.930 . S
C1512 N1513 1.314 . S
C1512 C1517 1.353 . S
C1512 H1518 0.930 . S
N1513 Li1496 1.990 . S
N1513 C1512 1.314 . S
N1513 C1515 1.279 . S
C1514 C1515 1.358 . S
C1514 C1516 1.356 . S
C1514 H1568 0.930 . S
C1515 N1513 1.279 . S
C1515 C1514 1.358 . S
C1515 H1519 0.930 . S
C1516 C1514 1.356 . S
C1516 C1517 1.348 . S
C1517 C1512 1.353 . S
C1517 C1516 1.348 . S
C1517 H1569 0.929 . S
H1518 C1512 0.930 . S
H1519 C1515 0.930 . S
C1520 N1521 1.314 . S
C1520 C1522 1.353 . S
C1520 H1526 0.930 . S
N1521 Li1497 1.990 . S
N1521 C1520 1.314 . S
N1521 C1524 1.279 . S
C1522 C1520 1.353 . S
C1522 C1525 1.348 . S
C1522 H1570 0.929 . S
C1523 C1524 1.358 . S
C1523 C1525 1.356 . S
C1523 H1571 0.930 . S
C1524 N1521 1.279 . S
C1524 C1523 1.358 . S
C1524 H1527 0.930 . S
C1525 C1522 1.348 . S
C1525 C1523 1.356 . S
H1526 C1520 0.930 . S
H1527 C1524 0.930 . S
C1528 C1530 1.348 . S
C1528 C1531 1.356 . S
C1528 O1558 1.325 . S
N1529 C1532 1.314 . S
N1529 C1533 1.279 . S
C1530 C1528 1.348 . S
C1530 C1532 1.353 . S
C1530 H1572 0.929 . S
C1531 C1528 1.356 . S
C1531 C1533 1.358 . S
C1531 H1573 0.930 . S
C1532 N1529 1.314 . S
C1532 C1530 1.353 . S
C1532 H1574 0.930 . S
C1533 N1529 1.279 . S
C1533 C1531 1.358 . S
C1533 H1575 0.930 . S
C1534 C1535 1.348 . S
C1534 C1536 1.356 . S
C1534 O1559 1.325 . S
C1535 C1534 1.348 . S
C1535 C1537 1.353 . S
C1535 H1576 0.929 . S
C1536 C1534 1.356 . S
C1536 C1538 1.358 . S
C1536 H1577 0.930 . S
C1537 C1535 1.353 . S
C1537 N1539 1.314 . S
C1537 H1578 0.930 . S
C1538 C1536 1.358 . S
C1538 N1539 1.279 . S
C1538 H1579 0.930 . S
N1539 C1537 1.314 . S
N1539 C1538 1.279 . S
C1540 C1542 1.353 . S
C1540 N1543 1.314 . S
C1540 H1546 0.930 . S
C1541 N1543 1.279 . S
C1541 C1544 1.358 . S
C1541 H1547 0.930 . S
C1542 C1540 1.353 . S
C1542 C1545 1.348 . S
C1542 H1580 0.929 . S
N1543 Li1498 1.990 . S
N1543 C1540 1.314 . S
N1543 C1541 1.279 . S
C1544 C1541 1.358 . S
C1544 C1545 1.356 . S
C1544 H1581 0.930 . S
C1545 C1542 1.348 . S
C1545 C1544 1.356 . S
H1546 C1540 0.930 . S
H1547 C1541 0.930 . S
C1548 N1549 1.314 . S
C1548 C1550 1.353 . S
C1548 H1554 0.930 . S
N1549 Li1499 1.990 . S
N1549 C1548 1.314 . S
N1549 C1552 1.279 . S
C1550 C1548 1.353 . S
C1550 C1553 1.348 . S
C1550 H1582 0.929 . S
C1551 C1552 1.358 . S
C1551 C1553 1.356 . S
C1551 H1583 0.930 . S
C1552 N1549 1.279 . S
C1552 C1551 1.358 . S
C1552 H1555 0.930 . S
C1553 C1550 1.348 . S
C1553 C1551 1.356 . S
H1554 C1548 0.930 . S
H1555 C1552 0.930 . S
O1556 Li1496 1.956 . S
O1556 Li1497 1.970 . S
O1556 Li1498 1.961 . S
O1556 C1500 1.325 . S
O1557 Li1496 1.970 . S
O1557 Li1497 1.956 . S
O1557 Li1499 1.961 . S
O1557 C1506 1.325 . S
O1558 Li1496 1.961 . S
O1558 Li1498 1.956 . S
O1558 Li1499 1.970 . S
O1558 C1528 1.325 . S
O1559 Li1497 1.961 . S
O1559 Li1498 1.970 . S
O1559 Li1499 1.956 . S
O1559 C1534 1.325 . S
H1560 C1502 0.929 . S
H1561 C1503 0.930 . S
H1562 C1504 0.930 . S
H1563 C1505 0.930 . S
H1564 C1507 0.930 . S
H1565 C1509 0.929 . S
H1566 C1510 0.930 . S
H1567 C1511 0.930 . S
H1568 C1514 0.930 . S
H1569 C1517 0.929 . S
H1570 C1522 0.929 . S
H1571 C1523 0.930 . S
H1572 C1530 0.929 . S
H1573 C1531 0.930 . S
H1574 C1532 0.930 . S
H1575 C1533 0.930 . S
H1576 C1535 0.929 . S
H1577 C1536 0.930 . S
H1578 C1537 0.930 . S
H1579 C1538 0.930 . S
H1580 C1542 0.929 . S
H1581 C1544 0.930 . S
H1582 C1550 0.929 . S
H1583 C1551 0.930 . S
Li1584 N1601 1.990 . S
Li1584 O1644 1.956 . S
Li1584 O1645 1.970 . S
Li1584 O1646 1.961 . S
Li1585 N1609 1.990 . S
Li1585 O1644 1.970 . S
Li1585 O1645 1.956 . S
Li1585 O1647 1.961 . S
Li1586 N1631 1.990 . S
Li1586 O1644 1.961 . S
Li1586 O1646 1.956 . S
Li1586 O1647 1.970 . S
Li1587 N1637 1.990 . S
Li1587 O1645 1.961 . S
Li1587 O1646 1.970 . S
Li1587 O1647 1.956 . S
C1588 C1590 1.348 . S
C1588 C1591 1.356 . S
C1588 O1644 1.325 . S
N1589 C1592 1.314 . S
N1589 C1593 1.279 . S
C1590 C1588 1.348 . S
C1590 C1592 1.353 . S
C1590 H1648 0.929 . S
C1591 C1588 1.356 . S
C1591 C1593 1.358 . S
C1591 H1649 0.930 . S
C1592 N1589 1.314 . S
C1592 C1590 1.353 . S
C1592 H1650 0.930 . S
C1593 N1589 1.279 . S
C1593 C1591 1.358 . S
C1593 H1651 0.930 . S
C1594 C1597 1.348 . S
C1594 C1598 1.356 . S
C1594 O1645 1.325 . S
C1595 N1596 1.279 . S
C1595 C1598 1.358 . S
C1595 H1652 0.930 . S
N1596 C1595 1.279 . S
N1596 C1599 1.314 . S
C1597 C1594 1.348 . S
C1597 C1599 1.353 . S
C1597 H1653 0.929 . S
C1598 C1594 1.356 . S
C1598 C1595 1.358 . S
C1598 H1654 0.930 . S
C1599 N1596 1.314 . S
C1599 C1597 1.353 . S
C1599 H1655 0.930 . S
C1600 N1601 1.314 . S
C1600 C1605 1.353 . S
C1600 H1606 0.930 . S
N1601 Li1584 1.990 . S
N1601 C1600 1.314 . S
N1601 C1603 1.279 . S
C1602 C1603 1.358 . S
C1602 C1604 1.356 . S
C1602 H1656 0.930 . S
C1603 N1601 1.279 . S
C1603 C1602 1.358 . S
C1603 H1607 0.930 . S
C1604 C1602 1.356 . S
C1604 C1605 1.348 . S
C1605 C1600 1.353 . S
C1605 C1604 1.348 . S
C1605 H1657 0.929 . S
H1606 C1600 0.930 . S
H1607 C1603 0.930 . S
C1608 N1609 1.314 . S
C1608 C1610 1.353 . S
C1608 H1614 0.930 . S
N1609 Li1585 1.990 . S
N1609 C1608 1.314 . S
N1609 C1612 1.279 . S
C1610 C1608 1.353 . S
C1610 C1613 1.348 . S
C1610 H1658 0.929 . S
C1611 C1612 1.358 . S
C1611 C1613 1.356 . S
C1611 H1659 0.930 . S
C1612 N1609 1.279 . S
C1612 C1611 1.358 . S
C1612 H1615 0.930 . S
C1613 C1610 1.348 . S
C1613 C1611 1.356 . S
H1614 C1608 0.930 . S
H1615 C1612 0.930 . S
C1616 C1618 1.348 . S
C1616 C1619 1.356 . S
C1616 O1646 1.325 . S
N1617 C1620 1.314 . S
N1617 C1621 1.279 . S
C1618 C1616 1.348 . S
C1618 C1620 1.353 . S
C1618 H1660 0.929 . S
C1619 C1616 1.356 . S
C1619 C1621 1.358 . S
C1619 H1661 0.930 . S
C1620 N1617 1.314 . S
C1620 C1618 1.353 . S
C1620 H1662 0.930 . S
C1621 N1617 1.279 . S
C1621 C1619 1.358 . S
C1621 H1663 0.930 . S
C1622 C1623 1.348 . S
C1622 C1624 1.356 . S
C1622 O1647 1.325 . S
C1623 C1622 1.348 . S
C1623 C1625 1.353 . S
C1623 H1664 0.929 . S
C1624 C1622 1.356 . S
C1624 C1626 1.358 . S
C1624 H1665 0.930 . S
C1625 C1623 1.353 . S
C1625 N1627 1.314 . S
C1625 H1666 0.930 . S
C1626 C1624 1.358 . S
C1626 N1627 1.279 . S
C1626 H1667 0.930 . S
N1627 C1625 1.314 . S
N1627 C1626 1.279 . S
C1628 C1630 1.353 . S
C1628 N1631 1.314 . S
C1628 H1634 0.930 . S
C1629 N1631 1.279 . S
C1629 C1632 1.358 . S
C1629 H1635 0.930 . S
C1630 C1628 1.353 . S
C1630 C1633 1.348 . S
C1630 H1668 0.929 . S
N1631 Li1586 1.990 . S
N1631 C1628 1.314 . S
N1631 C1629 1.279 . S
C1632 C1629 1.358 . S
C1632 C1633 1.356 . S
C1632 H1669 0.930 . S
C1633 C1630 1.348 . S
C1633 C1632 1.356 . S
H1634 C1628 0.930 . S
H1635 C1629 0.930 . S
C1636 N1637 1.314 . S
C1636 C1638 1.353 . S
C1636 H1642 0.930 . S
N1637 Li1587 1.990 . S
N1637 C1636 1.314 . S
N1637 C1640 1.279 . S
C1638 C1636 1.353 . S
C1638 C1641 1.348 . S
C1638 H1670 0.929 . S
C1639 C1640 1.358 . S
C1639 C1641 1.356 . S
C1639 H1671 0.930 . S
C1640 N1637 1.279 . S
C1640 C1639 1.358 . S
C1640 H1643 0.930 . S
C1641 C1638 1.348 . S
C1641 C1639 1.356 . S
H1642 C1636 0.930 . S
H1643 C1640 0.930 . S
O1644 Li1584 1.956 . S
O1644 Li1585 1.970 . S
O1644 Li1586 1.961 . S
O1644 C1588 1.325 . S
O1645 Li1584 1.970 . S
O1645 Li1585 1.956 . S
O1645 Li1587 1.961 . S
O1645 C1594 1.325 . S
O1646 Li1584 1.961 . S
O1646 Li1586 1.956 . S
O1646 Li1587 1.970 . S
O1646 C1616 1.325 . S
O1647 Li1585 1.961 . S
O1647 Li1586 1.970 . S
O1647 Li1587 1.956 . S
O1647 C1622 1.325 . S
H1648 C1590 0.929 . S
H1649 C1591 0.930 . S
H1650 C1592 0.930 . S
H1651 C1593 0.930 . S
H1652 C1595 0.930 . S
H1653 C1597 0.929 . S
H1654 C1598 0.930 . S
H1655 C1599 0.930 . S
H1656 C1602 0.930 . S
H1657 C1605 0.929 . S
H1658 C1610 0.929 . S
H1659 C1611 0.930 . S
H1660 C1618 0.929 . S
H1661 C1619 0.930 . S
H1662 C1620 0.930 . S
H1663 C1621 0.930 . S
H1664 C1623 0.929 . S
H1665 C1624 0.930 . S
H1666 C1625 0.930 . S
H1667 C1626 0.930 . S
H1668 C1630 0.929 . S
H1669 C1632 0.930 . S
H1670 C1638 0.929 . S
H1671 C1639 0.930 . S
Li1672 N1689 1.990 . S
Li1672 O1732 1.956 . S
Li1672 O1733 1.970 . S
Li1672 O1734 1.961 . S
Li1673 N1697 1.990 . S
Li1673 O1732 1.970 . S
Li1673 O1733 1.956 . S
Li1673 O1735 1.961 . S
Li1674 N1719 1.990 . S
Li1674 O1732 1.961 . S
Li1674 O1734 1.956 . S
Li1674 O1735 1.970 . S
Li1675 N1725 1.990 . S
Li1675 O1733 1.961 . S
Li1675 O1734 1.970 . S
Li1675 O1735 1.956 . S
C1676 C1678 1.348 . S
C1676 C1679 1.356 . S
C1676 O1732 1.325 . S
N1677 C1680 1.314 . S
N1677 C1681 1.279 . S
C1678 C1676 1.348 . S
C1678 C1680 1.353 . S
C1678 H1736 0.929 . S
C1679 C1676 1.356 . S
C1679 C1681 1.358 . S
C1679 H1737 0.930 . S
C1680 N1677 1.314 . S
C1680 C1678 1.353 . S
C1680 H1738 0.930 . S
C1681 N1677 1.279 . S
C1681 C1679 1.358 . S
C1681 H1739 0.930 . S
C1682 C1685 1.348 . S
C1682 C1686 1.356 . S
C1682 O1733 1.325 . S
C1683 N1684 1.279 . S
C1683 C1686 1.358 . S
C1683 H1740 0.930 . S
N1684 C1683 1.279 . S
N1684 C1687 1.314 . S
C1685 C1682 1.348 . S
C1685 C1687 1.353 . S
C1685 H1741 0.929 . S
C1686 C1682 1.356 . S
C1686 C1683 1.358 . S
C1686 H1742 0.930 . S
C1687 N1684 1.314 . S
C1687 C1685 1.353 . S
C1687 H1743 0.930 . S
C1688 N1689 1.314 . S
C1688 C1693 1.353 . S
C1688 H1694 0.930 . S
N1689 Li1672 1.990 . S
N1689 C1688 1.314 . S
N1689 C1691 1.279 . S
C1690 C1691 1.358 . S
C1690 C1692 1.356 . S
C1690 H1744 0.930 . S
C1691 N1689 1.279 . S
C1691 C1690 1.358 . S
C1691 H1695 0.930 . S
C1692 C1690 1.356 . S
C1692 C1693 1.348 . S
C1693 C1688 1.353 . S
C1693 C1692 1.348 . S
C1693 H1745 0.929 . S
H1694 C1688 0.930 . S
H1695 C1691 0.930 . S
C1696 N1697 1.314 . S
C1696 C1698 1.353 . S
C1696 H1702 0.930 . S
N1697 Li1673 1.990 . S
N1697 C1696 1.314 . S
N1697 C1700 1.279 . S
C1698 C1696 1.353 . S
C1698 C1701 1.348 . S
C1698 H1746 0.929 . S
C1699 C1700 1.358 . S
C1699 C1701 1.356 . S
C1699 H1747 0.930 . S
C1700 N1697 1.279 . S
C1700 C1699 1.358 . S
C1700 H1703 0.930 . S
C1701 C1698 1.348 . S
C1701 C1699 1.356 . S
H1702 C1696 0.930 . S
H1703 C1700 0.930 . S
C1704 C1706 1.348 1_545 S
C1704 C1707 1.356 . S
C1704 O1734 1.325 . S
N1705 C1708 1.314 . S
N1705 C1709 1.279 . S
C1706 C1704 1.348 1_565 S
C1706 C1708 1.353 . S
C1706 H1748 0.929 . S
C1707 C1704 1.356 . S
C1707 C1709 1.358 1_545 S
C1707 H1749 0.930 . S
C1708 N1705 1.314 . S
C1708 C1706 1.353 . S
C1708 H1750 0.930 . S
C1709 N1705 1.279 . S
C1709 C1707 1.358 1_565 S
C1709 H1751 0.930 . S
C1710 C1711 1.348 . S
C1710 C1712 1.356 . S
C1710 O1735 1.325 . S
C1711 C1710 1.348 . S
C1711 C1713 1.353 . S
C1711 H1752 0.929 . S
C1712 C1710 1.356 . S
C1712 C1714 1.358 . S
C1712 H1753 0.930 . S
C1713 C1711 1.353 . S
C1713 N1715 1.314 . S
C1713 H1754 0.930 . S
C1714 C1712 1.358 . S
C1714 N1715 1.279 . S
C1714 H1755 0.930 . S
N1715 C1713 1.314 . S
N1715 C1714 1.279 . S
C1716 C1718 1.353 . S
C1716 N1719 1.314 . S
C1716 H1722 0.930 . S
C1717 N1719 1.279 . S
C1717 C1720 1.358 . S
C1717 H1723 0.930 . S
C1718 C1716 1.353 . S
C1718 C1721 1.348 . S
C1718 H1756 0.929 . S
N1719 Li1674 1.990 . S
N1719 C1716 1.314 . S
N1719 C1717 1.279 . S
C1720 C1717 1.358 . S
C1720 C1721 1.356 . S
C1720 H1757 0.930 . S
C1721 C1718 1.348 . S
C1721 C1720 1.356 . S
H1722 C1716 0.930 . S
H1723 C1717 0.930 . S
C1724 N1725 1.314 1_565 S
C1724 C1726 1.353 . S
C1724 H1730 0.930 1_565 S
N1725 Li1675 1.990 . S
N1725 C1724 1.314 1_545 S
N1725 C1728 1.279 1_545 S
C1726 C1724 1.353 . S
C1726 C1729 1.348 . S
C1726 H1758 0.929 . S
C1727 C1728 1.359 . S
C1727 C1729 1.356 . S
C1727 H1759 0.930 . S
C1728 N1725 1.279 1_565 S
C1728 C1727 1.359 . S
C1728 H1731 0.930 1_565 S
C1729 C1726 1.348 . S
C1729 C1727 1.356 . S
H1730 C1724 0.930 1_545 S
H1731 C1728 0.930 1_545 S
O1732 Li1672 1.956 . S
O1732 Li1673 1.970 . S
O1732 Li1674 1.961 . S
O1732 C1676 1.325 . S
O1733 Li1672 1.970 . S
O1733 Li1673 1.956 . S
O1733 Li1675 1.961 . S
O1733 C1682 1.325 . S
O1734 Li1672 1.961 . S
O1734 Li1674 1.956 . S
O1734 Li1675 1.970 . S
O1734 C1704 1.325 . S
O1735 Li1673 1.961 . S
O1735 Li1674 1.970 . S
O1735 Li1675 1.956 . S
O1735 C1710 1.325 . S
H1736 C1678 0.929 . S
H1737 C1679 0.930 . S
H1738 C1680 0.930 . S
H1739 C1681 0.930 . S
H1740 C1683 0.930 . S
H1741 C1685 0.929 . S
H1742 C1686 0.930 . S
H1743 C1687 0.930 . S
H1744 C1690 0.930 . S
H1745 C1693 0.929 . S
H1746 C1698 0.929 . S
H1747 C1699 0.930 . S
H1748 C1706 0.929 . S
H1749 C1707 0.930 . S
H1750 C1708 0.930 . S
H1751 C1709 0.930 . S
H1752 C1711 0.929 . S
H1753 C1712 0.930 . S
H1754 C1713 0.930 . S
H1755 C1714 0.930 . S
H1756 C1718 0.929 . S
H1757 C1720 0.930 . S
H1758 C1726 0.929 . S
H1759 C1727 0.930 . S
Li1760 N1777 1.990 . S
Li1760 O1820 1.956 . S
Li1760 O1821 1.970 . S
Li1760 O1822 1.961 . S
Li1761 N1785 1.990 . S
Li1761 O1820 1.973 1_556 S
Li1761 O1821 1.937 1_556 S
Li1761 O1823 1.980 . S
Li1762 N1807 1.990 . S
Li1762 O1820 1.961 1_556 S
Li1762 O1822 1.956 1_556 S
Li1762 O1823 1.970 . S
Li1763 N1813 1.990 . S
Li1763 O1821 1.961 1_556 S
Li1763 O1822 1.970 1_556 S
Li1763 O1823 1.956 . S
C1764 C1766 1.348 . S
C1764 C1767 1.356 . S
C1764 O1820 1.325 . S
N1765 C1768 1.314 . S
N1765 C1769 1.279 . S
C1766 C1764 1.348 . S
C1766 C1768 1.353 . S
C1766 H1824 0.929 . S
C1767 C1764 1.356 . S
C1767 C1769 1.358 . S
C1767 H1825 0.930 . S
C1768 N1765 1.314 . S
C1768 C1766 1.353 . S
C1768 H1826 0.930 . S
C1769 N1765 1.279 . S
C1769 C1767 1.358 . S
C1769 H1827 0.930 . S
C1770 C1773 1.348 . S
C1770 C1774 1.356 . S
C1770 O1821 1.325 . S
C1771 N1772 1.279 . S
C1771 C1774 1.358 . S
C1771 H1828 0.930 . S
N1772 C1771 1.279 . S
N1772 C1775 1.314 . S
C1773 C1770 1.348 . S
C1773 C1775 1.353 . S
C1773 H1829 0.929 . S
C1774 C1770 1.356 . S
C1774 C1771 1.358 . S
C1774 H1830 0.930 . S
C1775 N1772 1.314 . S
C1775 C1773 1.353 . S
C1775 H1831 0.930 . S
C1776 N1777 1.314 . S
C1776 C1781 1.353 . S
C1776 H1782 0.930 . S
N1777 Li1760 1.990 . S
N1777 C1776 1.314 . S
N1777 C1779 1.279 . S
C1778 C1779 1.358 . S
C1778 C1780 1.356 . S
C1778 H1832 0.930 . S
C1779 N1777 1.279 . S
C1779 C1778 1.358 . S
C1779 H1783 0.930 . S
C1780 C1778 1.356 . S
C1780 C1781 1.348 . S
C1781 C1776 1.353 . S
C1781 C1780 1.348 . S
C1781 H1833 0.929 . S
H1782 C1776 0.930 . S
H1783 C1779 0.930 . S
C1784 N1785 1.314 . S
C1784 C1786 1.353 . S
C1784 H1790 0.930 . S
N1785 Li1761 1.990 . S
N1785 C1784 1.314 . S
N1785 C1788 1.279 1_556 S
C1786 C1784 1.353 . S
C1786 C1789 1.348 . S
C1786 H1834 0.929 . S
C1787 C1788 1.358 . S
C1787 C1789 1.356 1_554 S
C1787 H1835 0.930 . S
C1788 N1785 1.279 1_554 S
C1788 C1787 1.358 . S
C1788 H1791 0.930 . S
C1789 C1786 1.348 . S
C1789 C1787 1.356 1_556 S
H1790 C1784 0.930 . S
H1791 C1788 0.930 . S
C1792 C1794 1.348 1_554 S
C1792 C1795 1.356 . S
C1792 O1822 1.325 . S
N1793 C1796 1.314 1_554 S
N1793 C1797 1.279 . S
C1794 C1792 1.348 1_556 S
C1794 C1796 1.353 . S
C1794 H1836 0.929 . S
C1795 C1792 1.356 . S
C1795 C1797 1.358 . S
C1795 H1837 0.930 . S
C1796 N1793 1.314 1_556 S
C1796 C1794 1.353 . S
C1796 H1838 0.930 . S
C1797 N1793 1.279 . S
C1797 C1795 1.358 . S
C1797 H1839 0.930 . S
C1798 C1799 1.348 . S
C1798 C1800 1.356 . S
C1798 O1823 1.325 . S
C1799 C1798 1.348 . S
C1799 C1801 1.353 . S
C1799 H1840 0.929 . S
C1800 C1798 1.356 . S
C1800 C1802 1.358 . S
C1800 H1841 0.930 . S
C1801 C1799 1.353 . S
C1801 N1803 1.314 . S
C1801 H1842 0.930 . S
C1802 C1800 1.358 . S
C1802 N1803 1.279 . S
C1802 H1843 0.930 . S
N1803 C1801 1.314 . S
N1803 C1802 1.279 . S
C1804 C1806 1.353 . S
C1804 N1807 1.314 . S
C1804 H1810 0.930 . S
C1805 N1807 1.279 . S
C1805 C1808 1.358 . S
C1805 H1811 0.930 . S
C1806 C1804 1.353 . S
C1806 C1809 1.348 . S
C1806 H1844 0.929 . S
N1807 Li1762 1.990 . S
N1807 C1804 1.314 . S
N1807 C1805 1.279 . S
C1808 C1805 1.358 . S
C1808 C1809 1.356 . S
C1808 H1845 0.930 . S
C1809 C1806 1.348 . S
C1809 C1808 1.356 . S
H1810 C1804 0.930 . S
H1811 C1805 0.930 . S
C1812 N1813 1.314 1_554 S
C1812 C1814 1.353 . S
C1812 H1818 0.930 . S
N1813 Li1763 1.990 . S
N1813 C1812 1.314 1_556 S
N1813 C1816 1.279 . S
C1814 C1812 1.353 . S
C1814 C1817 1.348 1_554 S
C1814 H1846 0.929 . S
C1815 C1816 1.358 . S
C1815 C1817 1.356 . S
C1815 H1847 0.930 . S
C1816 N1813 1.279 . S
C1816 C1815 1.358 . S
C1816 H1819 0.930 . S
C1817 C1814 1.348 1_556 S
C1817 C1815 1.356 . S
H1818 C1812 0.930 . S
H1819 C1816 0.930 . S
O1820 Li1760 1.956 . S
O1820 Li1761 1.973 1_554 S
O1820 Li1762 1.961 1_554 S
O1820 C1764 1.325 . S
O1821 Li1760 1.970 . S
O1821 Li1761 1.937 1_554 S
O1821 Li1763 1.961 1_554 S
O1821 C1770 1.325 . S
O1822 Li1760 1.961 . S
O1822 Li1762 1.956 1_554 S
O1822 Li1763 1.970 1_554 S
O1822 C1792 1.325 . S
O1823 Li1761 1.980 . S
O1823 Li1762 1.970 . S
O1823 Li1763 1.956 . S
O1823 C1798 1.325 . S
H1824 C1766 0.929 . S
H1825 C1767 0.930 . S
H1826 C1768 0.930 . S
H1827 C1769 0.930 . S
H1828 C1771 0.930 . S
H1829 C1773 0.929 . S
H1830 C1774 0.930 . S
H1831 C1775 0.930 . S
H1832 C1778 0.930 . S
H1833 C1781 0.929 . S
H1834 C1786 0.929 . S
H1835 C1787 0.930 . S
H1836 C1794 0.929 . S
H1837 C1795 0.930 . S
H1838 C1796 0.930 . S
H1839 C1797 0.930 . S
H1840 C1799 0.929 . S
H1841 C1800 0.930 . S
H1842 C1801 0.930 . S
H1843 C1802 0.930 . S
H1844 C1806 0.929 . S
H1845 C1808 0.930 . S
H1846 C1814 0.929 . S
H1847 C1815 0.930 . S
Li1848 N1865 1.990 . S
Li1848 O1908 1.956 . S
Li1848 O1909 1.970 . S
Li1848 O1910 1.961 . S
Li1849 N1873 1.990 . S
Li1849 O1908 1.970 . S
Li1849 O1909 1.956 . S
Li1849 O1911 1.961 . S
Li1850 N1895 1.990 . S
Li1850 O1908 1.961 . S
Li1850 O1910 1.956 . S
Li1850 O1911 1.970 . S
Li1851 N1901 1.990 . S
Li1851 O1909 1.961 . S
Li1851 O1910 1.970 . S
Li1851 O1911 1.956 . S
C1852 C1854 1.348 . S
C1852 C1855 1.356 . S
C1852 O1908 1.325 . S
N1853 C1856 1.314 . S
N1853 C1857 1.279 . S
C1854 C1852 1.348 . S
C1854 C1856 1.353 . S
C1854 H1912 0.929 . S
C1855 C1852 1.356 . S
C1855 C1857 1.358 . S
C1855 H1913 0.930 . S
C1856 N1853 1.314 . S
C1856 C1854 1.353 . S
C1856 H1914 0.930 . S
C1857 N1853 1.279 . S
C1857 C1855 1.358 . S
C1857 H1915 0.930 . S
C1858 C1861 1.348 . S
C1858 C1862 1.356 . S
C1858 O1909 1.325 . S
C1859 N1860 1.279 . S
C1859 C1862 1.358 . S
C1859 H1916 0.930 . S
N1860 C1859 1.279 . S
N1860 C1863 1.314 . S
C1861 C1858 1.348 . S
C1861 C1863 1.353 . S
C1861 H1917 0.929 . S
C1862 C1858 1.356 . S
C1862 C1859 1.358 . S
C1862 H1918 0.930 . S
C1863 N1860 1.314 . S
C1863 C1861 1.353 . S
C1863 H1919 0.930 . S
C1864 N1865 1.314 . S
C1864 C1869 1.353 . S
C1864 H1870 0.930 . S
N1865 Li1848 1.990 . S
N1865 C1864 1.314 . S
N1865 C1867 1.279 . S
C1866 C1867 1.358 . S
C1866 C1868 1.356 . S
C1866 H1920 0.930 . S
C1867 N1865 1.279 . S
C1867 C1866 1.358 . S
C1867 H1871 0.930 . S
C1868 C1866 1.356 . S
C1868 C1869 1.348 . S
C1869 C1864 1.353 . S
C1869 C1868 1.348 . S
C1869 H1921 0.929 . S
H1870 C1864 0.930 . S
H1871 C1867 0.930 . S
C1872 N1873 1.314 . S
C1872 C1874 1.353 . S
C1872 H1878 0.930 . S
N1873 Li1849 1.990 . S
N1873 C1872 1.314 . S
N1873 C1876 1.279 . S
C1874 C1872 1.353 . S
C1874 C1877 1.348 . S
C1874 H1922 0.929 . S
C1875 C1876 1.358 . S
C1875 C1877 1.356 . S
C1875 H1923 0.930 . S
C1876 N1873 1.279 . S
C1876 C1875 1.358 . S
C1876 H1879 0.930 . S
C1877 C1874 1.348 . S
C1877 C1875 1.356 . S
H1878 C1872 0.930 . S
H1879 C1876 0.930 . S
C1880 C1882 1.348 . S
C1880 C1883 1.356 . S
C1880 O1910 1.325 . S
N1881 C1884 1.314 . S
N1881 C1885 1.279 . S
C1882 C1880 1.348 . S
C1882 C1884 1.353 . S
C1882 H1924 0.929 . S
C1883 C1880 1.356 . S
C1883 C1885 1.358 . S
C1883 H1925 0.930 . S
C1884 N1881 1.314 . S
C1884 C1882 1.353 . S
C1884 H1926 0.930 . S
C1885 N1881 1.279 . S
C1885 C1883 1.358 . S
C1885 H1927 0.930 . S
C1886 C1887 1.348 . S
C1886 C1888 1.356 . S
C1886 O1911 1.325 . S
C1887 C1886 1.348 . S
C1887 C1889 1.353 . S
C1887 H1928 0.929 . S
C1888 C1886 1.356 . S
C1888 C1890 1.358 . S
C1888 H1929 0.930 . S
C1889 C1887 1.353 . S
C1889 N1891 1.314 . S
C1889 H1930 0.930 . S
C1890 C1888 1.358 . S
C1890 N1891 1.279 . S
C1890 H1931 0.930 . S
N1891 C1889 1.314 . S
N1891 C1890 1.279 . S
C1892 C1894 1.353 . S
C1892 N1895 1.314 . S
C1892 H1898 0.930 . S
C1893 N1895 1.279 . S
C1893 C1896 1.358 . S
C1893 H1899 0.930 . S
C1894 C1892 1.353 . S
C1894 C1897 1.348 . S
C1894 H1932 0.929 . S
N1895 Li1850 1.990 . S
N1895 C1892 1.314 . S
N1895 C1893 1.279 . S
C1896 C1893 1.358 . S
C1896 C1897 1.356 . S
C1896 H1933 0.930 . S
C1897 C1894 1.348 . S
C1897 C1896 1.356 . S
H1898 C1892 0.930 . S
H1899 C1893 0.930 . S
C1900 N1901 1.314 . S
C1900 C1902 1.353 . S
C1900 H1906 0.930 . S
N1901 Li1851 1.990 . S
N1901 C1900 1.314 . S
N1901 C1904 1.279 . S
C1902 C1900 1.353 . S
C1902 C1905 1.348 . S
C1902 H1934 0.929 . S
C1903 C1904 1.358 . S
C1903 C1905 1.356 . S
C1903 H1935 0.930 . S
C1904 N1901 1.279 . S
C1904 C1903 1.358 . S
C1904 H1907 0.930 . S
C1905 C1902 1.348 . S
C1905 C1903 1.356 . S
H1906 C1900 0.930 . S
H1907 C1904 0.930 . S
O1908 Li1848 1.956 . S
O1908 Li1849 1.970 . S
O1908 Li1850 1.961 . S
O1908 C1852 1.325 . S
O1909 Li1848 1.970 . S
O1909 Li1849 1.956 . S
O1909 Li1851 1.961 . S
O1909 C1858 1.325 . S
O1910 Li1848 1.961 . S
O1910 Li1850 1.956 . S
O1910 Li1851 1.970 . S
O1910 C1880 1.325 . S
O1911 Li1849 1.961 . S
O1911 Li1850 1.970 . S
O1911 Li1851 1.956 . S
O1911 C1886 1.325 . S
H1912 C1854 0.929 . S
H1913 C1855 0.930 . S
H1914 C1856 0.930 . S
H1915 C1857 0.930 . S
H1916 C1859 0.930 . S
H1917 C1861 0.929 . S
H1918 C1862 0.930 . S
H1919 C1863 0.930 . S
H1920 C1866 0.930 . S
H1921 C1869 0.929 . S
H1922 C1874 0.929 . S
H1923 C1875 0.930 . S
H1924 C1882 0.929 . S
H1925 C1883 0.930 . S
H1926 C1884 0.930 . S
H1927 C1885 0.930 . S
H1928 C1887 0.929 . S
H1929 C1888 0.930 . S
H1930 C1889 0.930 . S
H1931 C1890 0.930 . S
H1932 C1894 0.929 . S
H1933 C1896 0.930 . S
H1934 C1902 0.929 . S
H1935 C1903 0.930 . S
Li1936 N1953 1.990 . S
Li1936 O1996 1.956 . S
Li1936 O1997 1.970 . S
Li1936 O1998 1.961 . S
Li1937 N1961 1.990 . S
Li1937 O1996 1.970 . S
Li1937 O1997 1.956 . S
Li1937 O1999 1.961 . S
Li1938 N1983 1.990 . S
Li1938 O1996 1.961 . S
Li1938 O1998 1.956 . S
Li1938 O1999 1.970 . S
Li1939 N1989 1.990 . S
Li1939 O1997 1.961 . S
Li1939 O1998 1.970 . S
Li1939 O1999 1.956 . S
C1940 C1942 1.348 . S
C1940 C1943 1.356 . S
C1940 O1996 1.325 . S
N1941 C1944 1.314 . S
N1941 C1945 1.279 . S
C1942 C1940 1.348 . S
C1942 C1944 1.353 . S
C1942 H2000 0.929 . S
C1943 C1940 1.356 . S
C1943 C1945 1.358 . S
C1943 H2001 0.930 . S
C1944 N1941 1.314 . S
C1944 C1942 1.353 . S
C1944 H2002 0.930 . S
C1945 N1941 1.279 . S
C1945 C1943 1.358 . S
C1945 H2003 0.930 . S
C1946 C1949 1.348 . S
C1946 C1950 1.356 . S
C1946 O1997 1.325 . S
C1947 N1948 1.279 . S
C1947 C1950 1.358 . S
C1947 H2004 0.930 . S
N1948 C1947 1.279 . S
N1948 C1951 1.314 . S
C1949 C1946 1.348 . S
C1949 C1951 1.353 . S
C1949 H2005 0.929 . S
C1950 C1946 1.356 . S
C1950 C1947 1.358 . S
C1950 H2006 0.930 . S
C1951 N1948 1.314 . S
C1951 C1949 1.353 . S
C1951 H2007 0.930 . S
C1952 N1953 1.314 . S
C1952 C1957 1.353 . S
C1952 H1958 0.930 . S
N1953 Li1936 1.990 . S
N1953 C1952 1.314 . S
N1953 C1955 1.279 . S
C1954 C1955 1.358 . S
C1954 C1956 1.356 . S
C1954 H2008 0.930 . S
C1955 N1953 1.279 . S
C1955 C1954 1.358 . S
C1955 H1959 0.930 . S
C1956 C1954 1.356 . S
C1956 C1957 1.348 . S
C1957 C1952 1.353 . S
C1957 C1956 1.348 . S
C1957 H2009 0.929 . S
H1958 C1952 0.930 . S
H1959 C1955 0.930 . S
C1960 N1961 1.314 . S
C1960 C1962 1.353 . S
C1960 H1966 0.930 . S
N1961 Li1937 1.990 . S
N1961 C1960 1.314 . S
N1961 C1964 1.279 . S
C1962 C1960 1.353 . S
C1962 C1965 1.348 . S
C1962 H2010 0.929 . S
C1963 C1964 1.358 . S
C1963 C1965 1.356 . S
C1963 H2011 0.930 . S
C1964 N1961 1.279 . S
C1964 C1963 1.358 . S
C1964 H1967 0.930 . S
C1965 C1962 1.348 . S
C1965 C1963 1.356 . S
H1966 C1960 0.930 . S
H1967 C1964 0.930 . S
C1968 C1970 1.348 . S
C1968 C1971 1.356 . S
C1968 O1998 1.325 . S
N1969 C1972 1.314 . S
N1969 C1973 1.279 . S
C1970 C1968 1.348 . S
C1970 C1972 1.353 . S
C1970 H2012 0.929 . S
C1971 C1968 1.356 . S
C1971 C1973 1.358 . S
C1971 H2013 0.930 . S
C1972 N1969 1.314 . S
C1972 C1970 1.353 . S
C1972 H2014 0.930 . S
C1973 N1969 1.279 . S
C1973 C1971 1.358 . S
C1973 H2015 0.930 . S
C1974 C1975 1.348 . S
C1974 C1976 1.356 . S
C1974 O1999 1.325 . S
C1975 C1974 1.348 . S
C1975 C1977 1.353 . S
C1975 H2016 0.929 . S
C1976 C1974 1.356 . S
C1976 C1978 1.358 . S
C1976 H2017 0.930 . S
C1977 C1975 1.353 . S
C1977 N1979 1.314 . S
C1977 H2018 0.930 . S
C1978 C1976 1.358 . S
C1978 N1979 1.279 . S
C1978 H2019 0.930 . S
N1979 C1977 1.314 . S
N1979 C1978 1.279 . S
C1980 C1982 1.353 . S
C1980 N1983 1.314 . S
C1980 H1986 0.930 . S
C1981 N1983 1.279 . S
C1981 C1984 1.358 . S
C1981 H1987 0.930 . S
C1982 C1980 1.353 . S
C1982 C1985 1.348 . S
C1982 H2020 0.929 . S
N1983 Li1938 1.990 . S
N1983 C1980 1.314 . S
N1983 C1981 1.279 . S
C1984 C1981 1.358 . S
C1984 C1985 1.356 . S
C1984 H2021 0.930 . S
C1985 C1982 1.348 . S
C1985 C1984 1.356 . S
H1986 C1980 0.930 . S
H1987 C1981 0.930 . S
C1988 N1989 1.314 . S
C1988 C1990 1.353 . S
C1988 H1994 0.930 . S
N1989 Li1939 1.990 . S
N1989 C1988 1.314 . S
N1989 C1992 1.279 . S
C1990 C1988 1.353 . S
C1990 C1993 1.348 . S
C1990 H2022 0.929 . S
C1991 C1992 1.358 . S
C1991 C1993 1.356 . S
C1991 H2023 0.930 . S
C1992 N1989 1.279 . S
C1992 C1991 1.358 . S
C1992 H1995 0.930 . S
C1993 C1990 1.348 . S
C1993 C1991 1.356 . S
H1994 C1988 0.930 . S
H1995 C1992 0.930 . S
O1996 Li1936 1.956 . S
O1996 Li1937 1.970 . S
O1996 Li1938 1.961 . S
O1996 C1940 1.325 . S
O1997 Li1936 1.970 . S
O1997 Li1937 1.956 . S
O1997 Li1939 1.961 . S
O1997 C1946 1.325 . S
O1998 Li1936 1.961 . S
O1998 Li1938 1.956 . S
O1998 Li1939 1.970 . S
O1998 C1968 1.325 . S
O1999 Li1937 1.961 . S
O1999 Li1938 1.970 . S
O1999 Li1939 1.956 . S
O1999 C1974 1.325 . S
H2000 C1942 0.929 . S
H2001 C1943 0.930 . S
H2002 C1944 0.930 . S
H2003 C1945 0.930 . S
H2004 C1947 0.930 . S
H2005 C1949 0.929 . S
H2006 C1950 0.930 . S
H2007 C1951 0.930 . S
H2008 C1954 0.930 . S
H2009 C1957 0.929 . S
H2010 C1962 0.929 . S
H2011 C1963 0.930 . S
H2012 C1970 0.929 . S
H2013 C1971 0.930 . S
H2014 C1972 0.930 . S
H2015 C1973 0.930 . S
H2016 C1975 0.929 . S
H2017 C1976 0.930 . S
H2018 C1977 0.930 . S
H2019 C1978 0.930 . S
H2020 C1982 0.929 . S
H2021 C1984 0.930 . S
H2022 C1990 0.929 . S
H2023 C1991 0.930 . S
Li2024 N2041 1.990 . S
Li2024 O2084 1.956 . S
Li2024 O2085 1.970 . S
Li2024 O2086 1.961 . S
Li2025 N2049 1.990 . S
Li2025 O2084 1.970 . S
Li2025 O2085 1.956 . S
Li2025 O2087 1.961 . S
Li2026 N2071 1.990 . S
Li2026 O2084 1.961 . S
Li2026 O2086 1.956 . S
Li2026 O2087 1.970 . S
Li2027 N2077 1.990 . S
Li2027 O2085 1.961 . S
Li2027 O2086 1.970 . S
Li2027 O2087 1.956 . S
C2028 C2030 1.348 . S
C2028 C2031 1.356 . S
C2028 O2084 1.325 . S
N2029 C2032 1.314 . S
N2029 C2033 1.279 . S
C2030 C2028 1.348 . S
C2030 C2032 1.353 . S
C2030 H2088 0.929 . S
C2031 C2028 1.356 . S
C2031 C2033 1.358 . S
C2031 H2089 0.930 . S
C2032 N2029 1.314 . S
C2032 C2030 1.353 . S
C2032 H2090 0.930 . S
C2033 N2029 1.279 . S
C2033 C2031 1.358 . S
C2033 H2091 0.930 . S
C2034 C2037 1.348 . S
C2034 C2038 1.356 . S
C2034 O2085 1.325 . S
C2035 N2036 1.279 . S
C2035 C2038 1.358 . S
C2035 H2092 0.930 . S
N2036 C2035 1.279 . S
N2036 C2039 1.314 . S
C2037 C2034 1.348 . S
C2037 C2039 1.353 . S
C2037 H2093 0.929 . S
C2038 C2034 1.356 . S
C2038 C2035 1.358 . S
C2038 H2094 0.930 . S
C2039 N2036 1.314 . S
C2039 C2037 1.353 . S
C2039 H2095 0.930 . S
C2040 N2041 1.314 . S
C2040 C2045 1.353 . S
C2040 H2046 0.930 . S
N2041 Li2024 1.990 . S
N2041 C2040 1.314 . S
N2041 C2043 1.279 . S
C2042 C2043 1.358 . S
C2042 C2044 1.356 . S
C2042 H2096 0.930 . S
C2043 N2041 1.279 . S
C2043 C2042 1.358 . S
C2043 H2047 0.930 . S
C2044 C2042 1.356 . S
C2044 C2045 1.348 . S
C2045 C2040 1.353 . S
C2045 C2044 1.348 . S
C2045 H2097 0.929 . S
H2046 C2040 0.930 . S
H2047 C2043 0.930 . S
C2048 N2049 1.314 . S
C2048 C2050 1.353 . S
C2048 H2054 0.930 . S
N2049 Li2025 1.990 . S
N2049 C2048 1.314 . S
N2049 C2052 1.279 . S
C2050 C2048 1.353 . S
C2050 C2053 1.348 . S
C2050 H2098 0.929 . S
C2051 C2052 1.358 . S
C2051 C2053 1.356 . S
C2051 H2099 0.930 . S
C2052 N2049 1.279 . S
C2052 C2051 1.358 . S
C2052 H2055 0.930 . S
C2053 C2050 1.348 . S
C2053 C2051 1.356 . S
H2054 C2048 0.930 . S
H2055 C2052 0.930 . S
C2056 C2058 1.348 . S
C2056 C2059 1.356 . S
C2056 O2086 1.325 . S
N2057 C2060 1.314 . S
N2057 C2061 1.279 . S
C2058 C2056 1.348 . S
C2058 C2060 1.353 . S
C2058 H2100 0.929 . S
C2059 C2056 1.356 . S
C2059 C2061 1.358 . S
C2059 H2101 0.930 . S
C2060 N2057 1.314 . S
C2060 C2058 1.353 . S
C2060 H2102 0.930 . S
C2061 N2057 1.279 . S
C2061 C2059 1.358 . S
C2061 H2103 0.930 . S
C2062 C2063 1.348 . S
C2062 C2064 1.356 . S
C2062 O2087 1.325 . S
C2063 C2062 1.348 . S
C2063 C2065 1.353 . S
C2063 H2104 0.929 . S
C2064 C2062 1.356 . S
C2064 C2066 1.358 . S
C2064 H2105 0.930 . S
C2065 C2063 1.353 . S
C2065 N2067 1.314 . S
C2065 H2106 0.930 . S
C2066 C2064 1.358 . S
C2066 N2067 1.279 . S
C2066 H2107 0.930 . S
N2067 C2065 1.314 . S
N2067 C2066 1.279 . S
C2068 C2070 1.353 . S
C2068 N2071 1.314 . S
C2068 H2074 0.930 . S
C2069 N2071 1.279 . S
C2069 C2072 1.358 . S
C2069 H2075 0.930 . S
C2070 C2068 1.353 . S
C2070 C2073 1.348 . S
C2070 H2108 0.929 . S
N2071 Li2026 1.990 . S
N2071 C2068 1.314 . S
N2071 C2069 1.279 . S
C2072 C2069 1.358 . S
C2072 C2073 1.356 . S
C2072 H2109 0.930 . S
C2073 C2070 1.348 . S
C2073 C2072 1.356 . S
H2074 C2068 0.930 . S
H2075 C2069 0.930 . S
C2076 N2077 1.314 . S
C2076 C2078 1.353 . S
C2076 H2082 0.930 . S
N2077 Li2027 1.990 . S
N2077 C2076 1.314 . S
N2077 C2080 1.279 . S
C2078 C2076 1.353 . S
C2078 C2081 1.348 . S
C2078 H2110 0.929 . S
C2079 C2080 1.358 . S
C2079 C2081 1.356 . S
C2079 H2111 0.930 . S
C2080 N2077 1.279 . S
C2080 C2079 1.358 . S
C2080 H2083 0.930 . S
C2081 C2078 1.348 . S
C2081 C2079 1.356 . S
H2082 C2076 0.930 . S
H2083 C2080 0.930 . S
O2084 Li2024 1.956 . S
O2084 Li2025 1.970 . S
O2084 Li2026 1.961 . S
O2084 C2028 1.325 . S
O2085 Li2024 1.970 . S
O2085 Li2025 1.956 . S
O2085 Li2027 1.961 . S
O2085 C2034 1.325 . S
O2086 Li2024 1.961 . S
O2086 Li2026 1.956 . S
O2086 Li2027 1.970 . S
O2086 C2056 1.325 . S
O2087 Li2025 1.961 . S
O2087 Li2026 1.970 . S
O2087 Li2027 1.956 . S
O2087 C2062 1.325 . S
H2088 C2030 0.929 . S
H2089 C2031 0.930 . S
H2090 C2032 0.930 . S
H2091 C2033 0.930 . S
H2092 C2035 0.930 . S
H2093 C2037 0.929 . S
H2094 C2038 0.930 . S
H2095 C2039 0.930 . S
H2096 C2042 0.930 . S
H2097 C2045 0.929 . S
H2098 C2050 0.929 . S
H2099 C2051 0.930 . S
H2100 C2058 0.929 . S
H2101 C2059 0.930 . S
H2102 C2060 0.930 . S
H2103 C2061 0.930 . S
H2104 C2063 0.929 . S
H2105 C2064 0.930 . S
H2106 C2065 0.930 . S
H2107 C2066 0.930 . S
H2108 C2070 0.929 . S
H2109 C2072 0.930 . S
H2110 C2078 0.929 . S
H2111 C2079 0.930 . S
Gd2112 N2143 2.661 . S
Gd2112 N2149 2.601 . S
Gd2112 O2156 2.545 . S
Gd2112 O2157 2.606 . S
Gd2112 O2159 2.429 . S
Gd2112 O2160 2.545 . S
Gd2112 O2161 2.412 . S
Gd2112 O2163 2.362 . S
Gd2112 O2164 2.324 1_554 S
Gd2112 C2171 2.828 . S
Gd2113 N2122 2.661 1_545 S
Gd2113 N2126 2.601 1_544 S
Gd2113 O2157 2.362 . S
Gd2113 O2158 2.324 . S
Gd2113 O2162 2.545 1_454 S
Gd2113 O2163 2.606 . S
Gd2113 O2165 2.429 1_554 S
Gd2113 O2166 2.545 . S
Gd2113 O2167 2.412 1_455 S
Gd2113 C2180 2.828 1_454 S
C2114 C2117 1.417 1_655 S
C2114 C2119 1.453 . S
C2114 C2120 1.412 . S
C2115 C2118 1.437 . S
C2115 C2119 1.274 1_556 S
C2115 H2134 0.929 . S
C2116 C2117 1.425 1_556 S
C2116 C2118 1.400 1_455 S
C2116 N2126 1.380 . S
C2117 C2114 1.417 1_455 S
C2117 C2116 1.425 1_554 S
C2117 N2122 1.350 . S
C2118 C2115 1.437 . S
C2118 C2116 1.400 1_655 S
C2118 C2128 1.391 . S
C2119 C2114 1.453 . S
C2119 C2115 1.274 1_554 S
C2119 H2130 0.953 . S
C2120 C2114 1.412 . S
C2120 C2121 1.355 1_655 S
C2120 H2132 0.930 . S
C2121 C2120 1.355 1_455 S
C2121 C2123 1.402 . S
C2121 H2133 0.930 . S
N2122 Gd2113 2.661 1_565 S
N2122 C2117 1.350 . S
N2122 C2123 1.307 . S
C2123 C2121 1.402 . S
C2123 N2122 1.307 . S
C2123 H2124 0.930 1_565 S
H2124 C2123 0.930 1_545 S
C2125 N2126 1.334 . S
C2125 C2127 1.395 . S
C2125 H2129 0.930 1_565 S
N2126 Gd2113 2.601 1_566 S
N2126 C2116 1.380 . S
N2126 C2125 1.334 . S
C2127 C2125 1.395 . S
C2127 C2128 1.358 1_455 S
C2127 H2139 0.930 1_455 S
C2128 C2118 1.391 . S
C2128 C2127 1.358 1_655 S
C2128 H2140 0.929 . S
H2129 C2125 0.930 1_545 S
H2130 C2119 0.953 . S
H2131 C2148 0.930 . S
H2132 C2120 0.930 . S
H2133 C2121 0.930 . S
H2134 C2115 0.929 . S
H2135 C2153 0.930 . S
H2136 C2144 0.920 1_556 S
H2137 C2145 0.930 . S
H2138 C2169 0.929 . S
H2139 C2127 0.930 1_655 S
H2140 C2128 0.929 . S
H2141 C2170 0.930 . S
H2142 C2151 0.930 . S
N2143 Gd2112 2.661 . S
N2143 C2147 1.350 . S
N2143 C2148 1.307 1_554 S
C2144 H2136 0.920 1_554 S
C2144 C2145 1.348 1_554 S
C2144 C2146 1.428 . S
C2145 H2137 0.930 . S
C2145 C2144 1.348 1_556 S
C2145 C2148 1.402 . S
C2146 C2144 1.428 . S
C2146 C2147 1.417 . S
C2146 C2170 1.431 . S
C2147 N2143 1.350 . S
C2147 C2146 1.417 . S
C2147 C2150 1.426 . S
C2148 H2131 0.930 . S
C2148 N2143 1.307 1_556 S
C2148 C2145 1.402 . S
N2149 Gd2112 2.601 . S
N2149 C2150 1.359 . S
N2149 C2153 1.334 . S
C2150 C2147 1.426 . S
C2150 N2149 1.359 . S
C2150 C2154 1.413 . S
C2151 H2142 0.930 . S
C2151 C2152 1.359 . S
C2151 C2153 1.394 . S
C2152 C2151 1.359 . S
C2152 C2154 1.391 . S
C2152 H2155 0.929 . S
C2153 H2135 0.930 . S
C2153 N2149 1.334 . S
C2153 C2151 1.394 . S
C2154 C2150 1.413 . S
C2154 C2152 1.391 . S
C2154 C2169 1.437 . S
H2155 C2152 0.929 . S
O2156 Gd2112 2.545 . S
O2156 C2171 1.258 . S
O2157 Gd2112 2.606 . S
O2157 Gd2113 2.362 . S
O2157 C2168 1.284 . S
O2158 Gd2113 2.324 . S
O2158 C2178 1.254 . S
O2159 Gd2112 2.429 . S
O2159 C2178 1.268 . S
O2160 Gd2112 2.545 . S
O2160 C2168 1.250 . S
O2161 Gd2112 2.412 . S
O2161 C2171 1.252 . S
O2162 Gd2113 2.545 1_656 S
O2162 C2180 1.258 . S
O2163 Gd2112 2.362 . S
O2163 Gd2113 2.606 . S
O2163 C2179 1.284 . S
O2164 Gd2112 2.324 1_556 S
O2164 C2187 1.254 . S
O2165 Gd2113 2.429 1_556 S
O2165 C2187 1.268 . S
O2166 Gd2113 2.545 . S
O2166 C2179 1.250 . S
O2167 Gd2113 2.412 1_655 S
O2167 C2180 1.252 1_554 S
C2168 O2157 1.284 . S
C2168 O2160 1.250 . S
C2169 H2138 0.929 . S
C2169 C2154 1.437 . S
C2169 C2170 1.317 . S
C2170 H2141 0.930 . S
C2170 C2146 1.431 . S
C2170 C2169 1.317 . S
C2171 Gd2112 2.828 . S
C2171 O2156 1.258 . S
C2171 O2161 1.252 . S
C2171 C2172 1.497 . S
C2172 C2171 1.497 . S
C2172 C2173 1.395 . S
C2172 C2174 1.380 . S
C2173 C2172 1.395 . S
C2173 C2176 1.398 . S
C2173 H2188 0.930 . S
C2174 C2172 1.380 . S
C2174 C2175 1.391 . S
C2174 H2189 0.930 . S
C2175 C2174 1.391 . S
C2175 C2177 1.387 . S
C2176 C2173 1.398 . S
C2176 C2177 1.380 . S
C2176 H2190 0.930 . S
C2177 C2175 1.387 . S
C2177 C2176 1.380 . S
C2177 H2191 0.930 . S
C2178 O2158 1.254 . S
C2178 O2159 1.268 . S
C2179 O2163 1.284 . S
C2179 O2166 1.250 . S
C2180 Gd2113 2.828 1_656 S
C2180 O2162 1.258 . S
C2180 O2167 1.252 1_556 S
C2180 C2181 1.497 . S
C2181 C2180 1.497 . S
C2181 C2182 1.395 . S
C2181 C2183 1.380 1_556 S
C2182 C2181 1.395 . S
C2182 C2185 1.398 . S
C2182 H2192 0.930 . S
C2183 C2181 1.380 1_554 S
C2183 C2184 1.391 . S
C2183 H2193 0.930 . S
C2184 C2183 1.391 . S
C2184 C2186 1.387 1_554 S
C2185 C2182 1.398 . S
C2185 C2186 1.380 . S
C2185 H2194 0.930 . S
C2186 C2184 1.387 1_556 S
C2186 C2185 1.380 . S
C2186 H2195 0.930 . S
C2187 O2164 1.254 . S
C2187 O2165 1.268 . S
H2188 C2173 0.930 . S
H2189 C2174 0.930 . S
H2190 C2176 0.930 . S
H2191 C2177 0.930 . S
H2192 C2182 0.930 . S
H2193 C2183 0.930 . S
H2194 C2185 0.930 . S
H2195 C2186 0.930 . S
Gd2196 N2227 2.661 . S
Gd2196 N2233 2.601 . S
Gd2196 O2240 2.545 . S
Gd2196 O2241 2.606 . S
Gd2196 O2243 2.429 . S
Gd2196 O2244 2.545 . S
Gd2196 O2245 2.412 . S
Gd2196 O2247 2.362 . S
Gd2196 O2248 2.324 . S
Gd2196 C2255 2.828 . S
Gd2197 N2206 2.661 . S
Gd2197 N2210 2.601 . S
Gd2197 O2241 2.362 . S
Gd2197 O2242 2.324 . S
Gd2197 O2246 2.545 . S
Gd2197 O2247 2.606 . S
Gd2197 O2249 2.429 . S
Gd2197 O2250 2.545 . S
Gd2197 O2251 2.412 . S
Gd2197 C2264 2.828 . S
C2198 C2201 1.417 . S
C2198 C2203 1.431 . S
C2198 C2204 1.412 . S
C2199 C2202 1.437 . S
C2199 C2203 1.317 . S
C2199 H2218 0.929 . S
C2200 C2201 1.426 . S
C2200 C2202 1.413 . S
C2200 N2210 1.359 . S
C2201 C2198 1.417 . S
C2201 C2200 1.426 . S
C2201 N2206 1.350 . S
C2202 C2199 1.437 . S
C2202 C2200 1.413 . S
C2202 C2212 1.391 . S
C2203 C2198 1.431 . S
C2203 C2199 1.317 . S
C2203 H2214 0.930 . S
C2204 C2198 1.412 . S
C2204 C2205 1.355 . S
C2204 H2216 0.930 . S
C2205 C2204 1.355 . S
C2205 C2207 1.402 . S
C2205 H2217 0.930 . S
N2206 Gd2197 2.661 . S
N2206 C2201 1.350 . S
N2206 C2207 1.307 . S
C2207 C2205 1.402 . S
C2207 N2206 1.307 . S
C2207 H2208 0.930 . S
H2208 C2207 0.930 . S
C2209 N2210 1.334 . S
C2209 C2211 1.394 . S
C2209 H2213 0.930 . S
N2210 Gd2197 2.601 . S
N2210 C2200 1.359 . S
N2210 C2209 1.334 . S
C2211 C2209 1.394 . S
C2211 C2212 1.359 . S
C2211 H2223 0.930 . S
C2212 C2202 1.391 . S
C2212 C2211 1.359 . S
C2212 H2224 0.929 . S
H2213 C2209 0.930 . S
H2214 C2203 0.930 . S
H2215 C2232 0.930 . S
H2216 C2204 0.930 . S
H2217 C2205 0.930 . S
H2218 C2199 0.929 . S
H2219 C2237 0.930 . S
H2220 C2228 0.930 . S
H2221 C2229 0.930 . S
H2222 C2253 0.929 . S
H2223 C2211 0.930 . S
H2224 C2212 0.929 . S
H2225 C2254 0.930 . S
H2226 C2235 0.930 . S
N2227 Gd2196 2.661 . S
N2227 C2231 1.350 . S
N2227 C2232 1.307 . S
C2228 H2220 0.930 . S
C2228 C2229 1.355 . S
C2228 C2230 1.412 . S
C2229 H2221 0.930 . S
C2229 C2228 1.355 . S
C2229 C2232 1.402 . S
C2230 C2228 1.412 . S
C2230 C2231 1.417 . S
C2230 C2254 1.431 . S
C2231 N2227 1.350 . S
C2231 C2230 1.417 . S
C2231 C2234 1.426 . S
C2232 H2215 0.930 . S
C2232 N2227 1.307 . S
C2232 C2229 1.402 . S
N2233 Gd2196 2.601 . S
N2233 C2234 1.359 . S
N2233 C2237 1.334 . S
C2234 C2231 1.426 . S
C2234 N2233 1.359 . S
C2234 C2238 1.413 . S
C2235 H2226 0.930 . S
C2235 C2236 1.359 . S
C2235 C2237 1.394 . S
C2236 C2235 1.359 . S
C2236 C2238 1.391 . S
C2236 H2239 0.929 . S
C2237 H2219 0.930 . S
C2237 N2233 1.334 . S
C2237 C2235 1.394 . S
C2238 C2234 1.413 . S
C2238 C2236 1.391 . S
C2238 C2253 1.437 . S
H2239 C2236 0.929 . S
O2240 Gd2196 2.545 . S
O2240 C2255 1.258 . S
O2241 Gd2196 2.606 . S
O2241 Gd2197 2.362 . S
O2241 C2252 1.284 . S
O2242 Gd2197 2.324 . S
O2242 C2262 1.254 . S
O2243 Gd2196 2.429 . S
O2243 C2262 1.268 . S
O2244 Gd2196 2.545 . S
O2244 C2252 1.250 . S
O2245 Gd2196 2.412 . S
O2245 C2255 1.252 . S
O2246 Gd2197 2.545 . S
O2246 C2264 1.258 . S
O2247 Gd2196 2.362 . S
O2247 Gd2197 2.606 . S
O2247 C2263 1.284 . S
O2248 Gd2196 2.324 . S
O2248 C2271 1.254 . S
O2249 Gd2197 2.429 . S
O2249 C2271 1.268 . S
O2250 Gd2197 2.545 . S
O2250 C2263 1.250 . S
O2251 Gd2197 2.412 . S
O2251 C2264 1.252 . S
C2252 O2241 1.284 . S
C2252 O2244 1.250 . S
C2253 H2222 0.929 . S
C2253 C2238 1.437 . S
C2253 C2254 1.317 . S
C2254 H2225 0.930 . S
C2254 C2230 1.431 . S
C2254 C2253 1.317 . S
C2255 Gd2196 2.828 . S
C2255 O2240 1.258 . S
C2255 O2245 1.252 . S
C2255 C2256 1.497 . S
C2256 C2255 1.497 . S
C2256 C2257 1.395 . S
C2256 C2258 1.380 . S
C2257 C2256 1.395 . S
C2257 C2260 1.398 . S
C2257 H2272 0.930 . S
C2258 C2256 1.380 . S
C2258 C2259 1.391 . S
C2258 H2273 0.930 . S
C2259 C2258 1.391 . S
C2259 C2261 1.387 . S
C2260 C2257 1.398 . S
C2260 C2261 1.380 . S
C2260 H2274 0.930 . S
C2261 C2259 1.387 . S
C2261 C2260 1.380 . S
C2261 H2275 0.930 . S
C2262 O2242 1.254 . S
C2262 O2243 1.268 . S
C2263 O2247 1.284 . S
C2263 O2250 1.250 . S
C2264 Gd2197 2.828 . S
C2264 O2246 1.258 . S
C2264 O2251 1.252 . S
C2264 C2265 1.497 . S
C2265 C2264 1.497 . S
C2265 C2266 1.395 . S
C2265 C2267 1.380 . S
C2266 C2265 1.395 . S
C2266 C2269 1.398 . S
C2266 H2276 0.930 . S
C2267 C2265 1.380 . S
C2267 C2268 1.391 . S
C2267 H2277 0.930 . S
C2268 C2267 1.391 . S
C2268 C2270 1.387 . S
C2269 C2266 1.398 . S
C2269 C2270 1.380 . S
C2269 H2278 0.930 . S
C2270 C2268 1.387 . S
C2270 C2269 1.380 . S
C2270 H2279 0.930 . S
C2271 O2248 1.254 . S
C2271 O2249 1.268 . S
H2272 C2257 0.930 . S
H2273 C2258 0.930 . S
H2274 C2260 0.930 . S
H2275 C2261 0.930 . S
H2276 C2266 0.930 . S
H2277 C2267 0.930 . S
H2278 C2269 0.930 . S
H2279 C2270 0.930 . S
Gd2280 N2311 2.668 . S
Gd2280 N2317 2.601 . S
Gd2280 O2324 2.545 . S
Gd2280 O2325 2.606 . S
Gd2280 O2327 2.429 . S
Gd2280 O2328 2.545 . S
Gd2280 O2329 2.412 . S
Gd2280 O2331 2.362 . S
Gd2280 O2332 2.324 . S
Gd2280 C2339 2.828 . S
Gd2281 N2290 2.661 . S
Gd2281 N2294 2.601 . S
Gd2281 O2325 2.362 . S
Gd2281 O2326 2.324 . S
Gd2281 O2330 2.545 . S
Gd2281 O2331 2.606 . S
Gd2281 O2333 2.429 . S
Gd2281 O2334 2.545 1_545 S
Gd2281 O2335 2.412 . S
Gd2281 C2348 2.828 . S
C2282 C2285 1.417 . S
C2282 C2287 1.431 . S
C2282 C2288 1.412 . S
C2283 C2286 1.437 . S
C2283 C2287 1.317 . S
C2283 H2302 0.929 . S
C2284 C2285 1.426 . S
C2284 C2286 1.413 . S
C2284 N2294 1.359 . S
C2285 C2282 1.417 . S
C2285 C2284 1.426 . S
C2285 N2290 1.350 . S
C2286 C2283 1.437 . S
C2286 C2284 1.413 . S
C2286 C2296 1.391 . S
C2287 C2282 1.431 . S
C2287 C2283 1.317 . S
C2287 H2298 0.930 . S
C2288 C2282 1.412 . S
C2288 C2289 1.355 . S
C2288 H2300 0.930 . S
C2289 C2288 1.355 . S
C2289 C2291 1.402 . S
C2289 H2301 0.930 . S
N2290 Gd2281 2.661 . S
N2290 C2285 1.350 . S
N2290 C2291 1.307 . S
C2291 C2289 1.402 . S
C2291 N2290 1.307 . S
C2291 H2292 0.930 . S
H2292 C2291 0.930 . S
C2293 N2294 1.334 . S
C2293 C2295 1.394 . S
C2293 H2297 0.930 . S
N2294 Gd2281 2.601 . S
N2294 C2284 1.359 . S
N2294 C2293 1.334 . S
C2295 C2293 1.394 . S
C2295 C2296 1.359 . S
C2295 H2307 0.930 . S
C2296 C2286 1.391 . S
C2296 C2295 1.359 . S
C2296 H2308 0.929 . S
H2297 C2293 0.930 . S
H2298 C2287 0.930 . S
H2299 C2316 0.930 1_545 S
H2300 C2288 0.930 . S
H2301 C2289 0.930 . S
H2302 C2283 0.929 . S
H2303 C2321 0.930 . S
H2304 C2312 0.930 . S
H2305 C2313 0.930 . S
H2306 C2337 0.929 . S
H2307 C2295 0.930 . S
H2308 C2296 0.929 . S
H2309 C2338 0.930 . S
H2310 C2319 0.930 . S
N2311 Gd2280 2.668 . S
N2311 C2315 1.343 1_545 S
N2311 C2316 1.306 1_545 S
C2312 H2304 0.930 . S
C2312 C2313 1.355 . S
C2312 C2314 1.412 . S
C2313 H2305 0.930 . S
C2313 C2312 1.355 . S
C2313 C2316 1.402 . S
C2314 C2312 1.412 . S
C2314 C2315 1.417 . S
C2314 C2338 1.431 . S
C2315 N2311 1.343 1_565 S
C2315 C2314 1.417 . S
C2315 C2318 1.426 . S
C2316 H2299 0.930 1_565 S
C2316 N2311 1.306 1_565 S
C2316 C2313 1.402 . S
N2317 Gd2280 2.601 . S
N2317 C2318 1.359 1_545 S
N2317 C2321 1.334 . S
C2318 C2315 1.426 . S
C2318 N2317 1.359 1_565 S
C2318 C2322 1.413 . S
C2319 H2310 0.930 . S
C2319 C2320 1.359 1_545 S
C2319 C2321 1.394 . S
C2320 C2319 1.359 1_565 S
C2320 C2322 1.391 . S
C2320 H2323 0.929 . S
C2321 H2303 0.930 . S
C2321 N2317 1.334 . S
C2321 C2319 1.394 . S
C2322 C2318 1.413 . S
C2322 C2320 1.391 . S
C2322 C2337 1.437 . S
H2323 C2320 0.929 . S
O2324 Gd2280 2.545 . S
O2324 C2339 1.258 . S
O2325 Gd2280 2.606 . S
O2325 Gd2281 2.362 . S
O2325 C2336 1.284 . S
O2326 Gd2281 2.324 . S
O2326 C2346 1.254 . S
O2327 Gd2280 2.429 . S
O2327 C2346 1.268 . S
O2328 Gd2280 2.545 . S
O2328 C2336 1.250 . S
O2329 Gd2280 2.412 . S
O2329 C2339 1.252 . S
O2330 Gd2281 2.545 . S
O2330 C2348 1.258 . S
O2331 Gd2280 2.362 . S
O2331 Gd2281 2.606 . S
O2331 C2347 1.284 1_545 S
O2332 Gd2280 2.324 . S
O2332 C2355 1.254 . S
O2333 Gd2281 2.429 . S
O2333 C2355 1.268 . S
O2334 Gd2281 2.545 1_565 S
O2334 C2347 1.250 . S
O2335 Gd2281 2.412 . S
O2335 C2348 1.252 . S
C2336 O2325 1.284 . S
C2336 O2328 1.250 . S
C2337 H2306 0.929 . S
C2337 C2322 1.437 . S
C2337 C2338 1.317 . S
C2338 H2309 0.930 . S
C2338 C2314 1.431 . S
C2338 C2337 1.317 . S
C2339 Gd2280 2.828 . S
C2339 O2324 1.258 . S
C2339 O2329 1.252 . S
C2339 C2340 1.497 . S
C2340 C2339 1.497 . S
C2340 C2341 1.395 . S
C2340 C2342 1.380 . S
C2341 C2340 1.395 . S
C2341 C2344 1.398 . S
C2341 H2356 0.930 . S
C2342 C2340 1.380 . S
C2342 C2343 1.391 . S
C2342 H2357 0.930 . S
C2343 C2342 1.391 . S
C2343 C2345 1.387 . S
C2344 C2341 1.398 . S
C2344 C2345 1.380 . S
C2344 H2358 0.930 . S
C2345 C2343 1.387 . S
C2345 C2344 1.380 . S
C2345 H2359 0.930 . S
C2346 O2326 1.254 . S
C2346 O2327 1.268 . S
C2347 O2331 1.284 1_565 S
C2347 O2334 1.250 . S
C2348 Gd2281 2.828 . S
C2348 O2330 1.258 . S
C2348 O2335 1.252 . S
C2348 C2349 1.497 . S
C2349 C2348 1.497 . S
C2349 C2350 1.395 . S
C2349 C2351 1.380 . S
C2350 C2349 1.395 . S
C2350 C2353 1.398 . S
C2350 H2360 0.930 . S
C2351 C2349 1.380 . S
C2351 C2352 1.391 1_545 S
C2351 H2361 0.930 . S
C2352 C2351 1.391 1_565 S
C2352 C2354 1.387 . S
C2353 C2350 1.398 . S
C2353 C2354 1.380 1_545 S
C2353 H2362 0.930 . S
C2354 C2352 1.387 . S
C2354 C2353 1.380 1_565 S
C2354 H2363 0.930 . S
C2355 O2332 1.254 . S
C2355 O2333 1.268 . S
H2356 C2341 0.930 . S
H2357 C2342 0.930 . S
H2358 C2344 0.930 . S
H2359 C2345 0.930 . S
H2360 C2350 0.930 . S
H2361 C2351 0.930 . S
H2362 C2353 0.930 . S
H2363 C2354 0.930 . S
Gd2364 N2395 2.661 . S
Gd2364 N2401 2.601 . S
Gd2364 O2408 2.545 . S
Gd2364 O2409 2.606 . S
Gd2364 O2411 2.429 . S
Gd2364 O2412 2.545 . S
Gd2364 O2413 2.412 . S
Gd2364 O2415 2.362 . S
Gd2364 O2416 2.324 . S
Gd2364 C2423 2.828 . S
Gd2365 N2374 2.661 . S
Gd2365 N2378 2.601 . S
Gd2365 O2409 2.362 . S
Gd2365 O2410 2.324 . S
Gd2365 O2414 2.545 . S
Gd2365 O2415 2.606 . S
Gd2365 O2417 2.429 . S
Gd2365 O2418 2.545 . S
Gd2365 O2419 2.412 . S
Gd2365 C2432 2.828 . S
C2366 C2369 1.417 . S
C2366 C2371 1.431 . S
C2366 C2372 1.412 . S
C2367 C2370 1.437 . S
C2367 C2371 1.317 . S
C2367 H2386 0.929 . S
C2368 C2369 1.426 . S
C2368 C2370 1.413 . S
C2368 N2378 1.359 . S
C2369 C2366 1.417 . S
C2369 C2368 1.426 . S
C2369 N2374 1.350 . S
C2370 C2367 1.437 . S
C2370 C2368 1.413 . S
C2370 C2380 1.391 . S
C2371 C2366 1.431 . S
C2371 C2367 1.317 . S
C2371 H2382 0.930 . S
C2372 C2366 1.412 . S
C2372 C2373 1.355 . S
C2372 H2384 0.930 . S
C2373 C2372 1.355 . S
C2373 C2375 1.402 . S
C2373 H2385 0.930 . S
N2374 Gd2365 2.661 . S
N2374 C2369 1.350 . S
N2374 C2375 1.307 . S
C2375 C2373 1.402 . S
C2375 N2374 1.307 . S
C2375 H2376 0.930 . S
H2376 C2375 0.930 . S
C2377 N2378 1.334 . S
C2377 C2379 1.394 . S
C2377 H2381 0.930 . S
N2378 Gd2365 2.601 . S
N2378 C2368 1.359 . S
N2378 C2377 1.334 . S
C2379 C2377 1.394 . S
C2379 C2380 1.359 . S
C2379 H2391 0.930 . S
C2380 C2370 1.391 . S
C2380 C2379 1.359 . S
C2380 H2392 0.929 . S
H2381 C2377 0.930 . S
H2382 C2371 0.930 . S
H2383 C2400 0.930 . S
H2384 C2372 0.930 . S
H2385 C2373 0.930 . S
H2386 C2367 0.929 . S
H2387 C2405 0.930 . S
H2388 C2396 0.930 . S
H2389 C2397 0.930 . S
H2390 C2421 0.929 . S
H2391 C2379 0.930 . S
H2392 C2380 0.929 . S
H2393 C2422 0.930 . S
H2394 C2403 0.930 . S
N2395 Gd2364 2.661 . S
N2395 C2399 1.350 . S
N2395 C2400 1.307 . S
C2396 H2388 0.930 . S
C2396 C2397 1.355 . S
C2396 C2398 1.412 . S
C2397 H2389 0.930 . S
C2397 C2396 1.355 . S
C2397 C2400 1.402 . S
C2398 C2396 1.412 . S
C2398 C2399 1.417 . S
C2398 C2422 1.431 . S
C2399 N2395 1.350 . S
C2399 C2398 1.417 . S
C2399 C2402 1.426 . S
C2400 H2383 0.930 . S
C2400 N2395 1.307 . S
C2400 C2397 1.402 . S
N2401 Gd2364 2.601 . S
N2401 C2402 1.359 . S
N2401 C2405 1.334 . S
C2402 C2399 1.426 . S
C2402 N2401 1.359 . S
C2402 C2406 1.413 . S
C2403 H2394 0.930 . S
C2403 C2404 1.359 . S
C2403 C2405 1.394 . S
C2404 C2403 1.359 . S
C2404 C2406 1.391 . S
C2404 H2407 0.929 . S
C2405 H2387 0.930 . S
C2405 N2401 1.334 . S
C2405 C2403 1.394 . S
C2406 C2402 1.413 . S
C2406 C2404 1.391 . S
C2406 C2421 1.437 . S
H2407 C2404 0.929 . S
O2408 Gd2364 2.545 . S
O2408 C2423 1.258 . S
O2409 Gd2364 2.606 . S
O2409 Gd2365 2.362 . S
O2409 C2420 1.284 . S
O2410 Gd2365 2.324 . S
O2410 C2430 1.254 . S
O2411 Gd2364 2.429 . S
O2411 C2430 1.268 . S
O2412 Gd2364 2.545 . S
O2412 C2420 1.250 . S
O2413 Gd2364 2.412 . S
O2413 C2423 1.252 . S
O2414 Gd2365 2.545 . S
O2414 C2432 1.258 . S
O2415 Gd2364 2.362 . S
O2415 Gd2365 2.606 . S
O2415 C2431 1.284 . S
O2416 Gd2364 2.324 . S
O2416 C2439 1.254 . S
O2417 Gd2365 2.429 . S
O2417 C2439 1.268 . S
O2418 Gd2365 2.545 . S
O2418 C2431 1.250 . S
O2419 Gd2365 2.412 . S
O2419 C2432 1.252 . S
C2420 O2409 1.284 . S
C2420 O2412 1.250 . S
C2421 H2390 0.929 . S
C2421 C2406 1.437 . S
C2421 C2422 1.317 . S
C2422 H2393 0.930 . S
C2422 C2398 1.431 . S
C2422 C2421 1.317 . S
C2423 Gd2364 2.828 . S
C2423 O2408 1.258 . S
C2423 O2413 1.252 . S
C2423 C2424 1.497 . S
C2424 C2423 1.497 . S
C2424 C2425 1.395 . S
C2424 C2426 1.380 . S
C2425 C2424 1.395 . S
C2425 C2428 1.398 . S
C2425 H2440 0.930 . S
C2426 C2424 1.380 . S
C2426 C2427 1.391 . S
C2426 H2441 0.930 . S
C2427 C2426 1.391 . S
C2427 C2429 1.387 . S
C2428 C2425 1.398 . S
C2428 C2429 1.380 . S
C2428 H2442 0.930 . S
C2429 C2427 1.387 . S
C2429 C2428 1.380 . S
C2429 H2443 0.930 . S
C2430 O2410 1.254 . S
C2430 O2411 1.268 . S
C2431 O2415 1.284 . S
C2431 O2418 1.250 . S
C2432 Gd2365 2.828 . S
C2432 O2414 1.258 . S
C2432 O2419 1.252 . S
C2432 C2433 1.497 . S
C2433 C2432 1.497 . S
C2433 C2434 1.395 . S
C2433 C2435 1.380 . S
C2434 C2433 1.395 . S
C2434 C2437 1.398 . S
C2434 H2444 0.930 . S
C2435 C2433 1.380 . S
C2435 C2436 1.391 . S
C2435 H2445 0.930 . S
C2436 C2435 1.391 . S
C2436 C2438 1.387 . S
C2437 C2434 1.398 . S
C2437 C2438 1.380 . S
C2437 H2446 0.930 . S
C2438 C2436 1.387 . S
C2438 C2437 1.380 . S
C2438 H2447 0.930 . S
C2439 O2416 1.254 . S
C2439 O2417 1.268 . S
H2440 C2425 0.930 . S
H2441 C2426 0.930 . S
H2442 C2428 0.930 . S
H2443 C2429 0.930 . S
H2444 C2434 0.930 . S
H2445 C2435 0.930 . S
H2446 C2437 0.930 . S
H2447 C2438 0.930 . S
Gd2448 N2479 2.661 1_545 S
Gd2448 N2485 2.601 1_545 S
Gd2448 O2492 2.545 1_545 S
Gd2448 O2493 2.606 . S
Gd2448 O2495 2.429 . S
Gd2448 O2496 2.545 . S
Gd2448 O2497 2.412 1_545 S
Gd2448 O2499 2.362 . S
Gd2448 O2500 2.324 . S
Gd2448 C2507 2.828 1_545 S
Gd2449 N2458 2.661 . S
Gd2449 N2462 2.601 . S
Gd2449 O2493 2.362 . S
Gd2449 O2494 2.324 . S
Gd2449 O2498 2.545 . S
Gd2449 O2499 2.606 . S
Gd2449 O2501 2.429 . S
Gd2449 O2502 2.545 . S
Gd2449 O2503 2.412 . S
Gd2449 C2516 2.828 . S
C2450 C2453 1.417 . S
C2450 C2455 1.431 . S
C2450 C2456 1.412 . S
C2451 C2454 1.437 . S
C2451 C2455 1.317 . S
C2451 H2470 0.929 . S
C2452 C2453 1.426 . S
C2452 C2454 1.413 . S
C2452 N2462 1.359 . S
C2453 C2450 1.417 . S
C2453 C2452 1.426 . S
C2453 N2458 1.350 . S
C2454 C2451 1.437 . S
C2454 C2452 1.413 . S
C2454 C2464 1.391 . S
C2455 C2450 1.431 . S
C2455 C2451 1.317 . S
C2455 H2466 0.930 . S
C2456 C2450 1.412 . S
C2456 C2457 1.355 . S
C2456 H2468 0.930 . S
C2457 C2456 1.355 . S
C2457 C2459 1.402 . S
C2457 H2469 0.930 . S
N2458 Gd2449 2.661 . S
N2458 C2453 1.350 . S
N2458 C2459 1.307 . S
C2459 C2457 1.402 . S
C2459 N2458 1.307 . S
C2459 H2460 0.930 . S
H2460 C2459 0.930 . S
C2461 N2462 1.334 . S
C2461 C2463 1.394 . S
C2461 H2465 0.930 . S
N2462 Gd2449 2.601 . S
N2462 C2452 1.359 . S
N2462 C2461 1.334 . S
C2463 C2461 1.394 . S
C2463 C2464 1.359 . S
C2463 H2475 0.930 1_455 S
C2464 C2454 1.391 . S
C2464 C2463 1.359 . S
C2464 H2476 0.929 . S
H2465 C2461 0.930 . S
H2466 C2455 0.930 . S
H2467 C2484 0.930 . S
H2468 C2456 0.930 . S
H2469 C2457 0.930 . S
H2470 C2451 0.929 . S
H2471 C2489 0.914 1_545 S
H2472 C2480 0.930 . S
H2473 C2481 0.930 1_655 S
H2474 C2505 0.929 . S
H2475 C2463 0.930 1_655 S
H2476 C2464 0.929 . S
H2477 C2506 0.930 . S
H2478 C2487 0.930 . S
N2479 Gd2448 2.661 1_565 S
N2479 C2483 1.350 . S
N2479 C2484 1.307 . S
C2480 H2472 0.930 . S
C2480 C2481 1.355 . S
C2480 C2482 1.412 . S
C2481 H2473 0.930 1_455 S
C2481 C2480 1.355 . S
C2481 C2484 1.402 . S
C2482 C2480 1.412 . S
C2482 C2483 1.417 . S
C2482 C2506 1.431 . S
C2483 N2479 1.350 . S
C2483 C2482 1.417 . S
C2483 C2486 1.426 . S
C2484 H2467 0.930 . S
C2484 N2479 1.307 . S
C2484 C2481 1.402 . S
N2485 Gd2448 2.601 1_565 S
N2485 C2486 1.359 . S
N2485 C2489 1.328 . S
C2486 C2483 1.426 . S
C2486 N2485 1.359 . S
C2486 C2490 1.413 . S
C2487 H2478 0.930 . S
C2487 C2488 1.359 . S
C2487 C2489 1.421 . S
C2488 C2487 1.359 . S
C2488 C2490 1.391 . S
C2488 H2491 0.929 . S
C2489 H2471 0.914 1_565 S
C2489 N2485 1.328 . S
C2489 C2487 1.421 . S
C2490 C2486 1.413 . S
C2490 C2488 1.391 . S
C2490 C2505 1.437 . S
H2491 C2488 0.929 . S
O2492 Gd2448 2.545 1_565 S
O2492 C2507 1.258 . S
O2493 Gd2448 2.606 . S
O2493 Gd2449 2.362 . S
O2493 C2504 1.284 . S
O2494 Gd2449 2.324 . S
O2494 C2514 1.254 . S
O2495 Gd2448 2.429 . S
O2495 C2514 1.268 . S
O2496 Gd2448 2.545 . S
O2496 C2504 1.250 . S
O2497 Gd2448 2.412 1_565 S
O2497 C2507 1.252 . S
O2498 Gd2449 2.545 . S
O2498 C2516 1.258 . S
O2499 Gd2448 2.362 . S
O2499 Gd2449 2.606 . S
O2499 C2515 1.284 . S
O2500 Gd2448 2.324 . S
O2500 C2523 1.254 . S
O2501 Gd2449 2.429 . S
O2501 C2523 1.268 . S
O2502 Gd2449 2.545 . S
O2502 C2515 1.250 . S
O2503 Gd2449 2.412 . S
O2503 C2516 1.252 . S
C2504 O2493 1.284 . S
C2504 O2496 1.250 . S
C2505 H2474 0.929 . S
C2505 C2490 1.437 . S
C2505 C2506 1.317 . S
C2506 H2477 0.930 . S
C2506 C2482 1.431 . S
C2506 C2505 1.317 . S
C2507 Gd2448 2.828 1_565 S
C2507 O2492 1.258 . S
C2507 O2497 1.252 . S
C2507 C2508 1.497 . S
C2508 C2507 1.497 . S
C2508 C2509 1.395 . S
C2508 C2510 1.380 . S
C2509 C2508 1.395 . S
C2509 C2512 1.398 . S
C2509 H2524 0.930 . S
C2510 C2508 1.380 . S
C2510 C2511 1.391 . S
C2510 H2525 0.930 . S
C2511 C2510 1.391 . S
C2511 C2513 1.387 . S
C2512 C2509 1.398 . S
C2512 C2513 1.380 . S
C2512 H2526 0.930 . S
C2513 C2511 1.387 . S
C2513 C2512 1.380 . S
C2513 H2527 0.930 . S
C2514 O2494 1.254 . S
C2514 O2495 1.268 . S
C2515 O2499 1.284 . S
C2515 O2502 1.250 . S
C2516 Gd2449 2.828 . S
C2516 O2498 1.258 . S
C2516 O2503 1.252 . S
C2516 C2517 1.497 . S
C2517 C2516 1.497 . S
C2517 C2518 1.395 . S
C2517 C2519 1.380 . S
C2518 C2517 1.395 . S
C2518 C2521 1.398 . S
C2518 H2528 0.930 . S
C2519 C2517 1.380 . S
C2519 C2520 1.391 . S
C2519 H2529 0.930 . S
C2520 C2519 1.391 . S
C2520 C2522 1.387 . S
C2521 C2518 1.398 . S
C2521 C2522 1.380 . S
C2521 H2530 0.930 . S
C2522 C2520 1.387 . S
C2522 C2521 1.380 . S
C2522 H2531 0.930 . S
C2523 O2500 1.254 . S
C2523 O2501 1.268 . S
H2524 C2509 0.930 . S
H2525 C2510 0.930 . S
H2526 C2512 0.930 . S
H2527 C2513 0.930 . S
H2528 C2518 0.930 . S
H2529 C2519 0.930 . S
H2530 C2521 0.930 . S
H2531 C2522 0.930 . S
Gd2532 N2563 2.661 . S
Gd2532 N2569 2.601 . S
Gd2532 O2576 2.545 . S
Gd2532 O2577 2.606 . S
Gd2532 O2579 2.429 . S
Gd2532 O2580 2.545 . S
Gd2532 O2581 2.412 . S
Gd2532 O2583 2.362 . S
Gd2532 O2584 2.324 . S
Gd2532 C2591 2.828 . S
Gd2533 N2542 2.661 . S
Gd2533 N2546 2.601 . S
Gd2533 O2577 2.362 . S
Gd2533 O2578 2.324 . S
Gd2533 O2582 2.545 . S
Gd2533 O2583 2.606 . S
Gd2533 O2585 2.429 . S
Gd2533 O2586 2.545 . S
Gd2533 O2587 2.412 . S
Gd2533 C2600 2.828 . S
C2534 C2537 1.417 . S
C2534 C2539 1.431 . S
C2534 C2540 1.412 . S
C2535 C2538 1.437 . S
C2535 C2539 1.317 . S
C2535 H2554 0.929 . S
C2536 C2537 1.426 . S
C2536 C2538 1.413 . S
C2536 N2546 1.359 . S
C2537 C2534 1.417 . S
C2537 C2536 1.426 . S
C2537 N2542 1.350 . S
C2538 C2535 1.437 . S
C2538 C2536 1.413 . S
C2538 C2548 1.391 . S
C2539 C2534 1.431 . S
C2539 C2535 1.317 . S
C2539 H2550 0.930 . S
C2540 C2534 1.412 . S
C2540 C2541 1.355 . S
C2540 H2552 0.930 . S
C2541 C2540 1.355 . S
C2541 C2543 1.402 . S
C2541 H2553 0.930 . S
N2542 Gd2533 2.661 . S
N2542 C2537 1.350 . S
N2542 C2543 1.307 . S
C2543 C2541 1.402 . S
C2543 N2542 1.307 . S
C2543 H2544 0.930 . S
H2544 C2543 0.930 . S
C2545 N2546 1.334 . S
C2545 C2547 1.394 . S
C2545 H2549 0.930 . S
N2546 Gd2533 2.601 . S
N2546 C2536 1.359 . S
N2546 C2545 1.334 . S
C2547 C2545 1.394 . S
C2547 C2548 1.359 . S
C2547 H2559 0.930 . S
C2548 C2538 1.391 . S
C2548 C2547 1.359 . S
C2548 H2560 0.929 . S
H2549 C2545 0.930 . S
H2550 C2539 0.930 . S
H2551 C2568 0.930 . S
H2552 C2540 0.930 . S
H2553 C2541 0.930 . S
H2554 C2535 0.929 . S
H2555 C2573 0.930 . S
H2556 C2564 0.930 . S
H2557 C2565 0.930 . S
H2558 C2589 0.929 . S
H2559 C2547 0.930 . S
H2560 C2548 0.929 . S
H2561 C2590 0.930 . S
H2562 C2571 0.930 . S
N2563 Gd2532 2.661 . S
N2563 C2567 1.350 . S
N2563 C2568 1.307 . S
C2564 H2556 0.930 . S
C2564 C2565 1.355 . S
C2564 C2566 1.412 . S
C2565 H2557 0.930 . S
C2565 C2564 1.355 . S
C2565 C2568 1.402 . S
C2566 C2564 1.412 . S
C2566 C2567 1.417 . S
C2566 C2590 1.431 . S
C2567 N2563 1.350 . S
C2567 C2566 1.417 . S
C2567 C2570 1.426 . S
C2568 H2551 0.930 . S
C2568 N2563 1.307 . S
C2568 C2565 1.402 . S
N2569 Gd2532 2.601 . S
N2569 C2570 1.359 . S
N2569 C2573 1.334 . S
C2570 C2567 1.426 . S
C2570 N2569 1.359 . S
C2570 C2574 1.413 . S
C2571 H2562 0.930 . S
C2571 C2572 1.359 . S
C2571 C2573 1.394 . S
C2572 C2571 1.359 . S
C2572 C2574 1.391 . S
C2572 H2575 0.929 . S
C2573 H2555 0.930 . S
C2573 N2569 1.334 . S
C2573 C2571 1.394 . S
C2574 C2570 1.413 . S
C2574 C2572 1.391 . S
C2574 C2589 1.437 . S
H2575 C2572 0.929 . S
O2576 Gd2532 2.545 . S
O2576 C2591 1.258 . S
O2577 Gd2532 2.606 . S
O2577 Gd2533 2.362 . S
O2577 C2588 1.284 . S
O2578 Gd2533 2.324 . S
O2578 C2598 1.254 . S
O2579 Gd2532 2.429 . S
O2579 C2598 1.268 . S
O2580 Gd2532 2.545 . S
O2580 C2588 1.250 . S
O2581 Gd2532 2.412 . S
O2581 C2591 1.252 . S
O2582 Gd2533 2.545 . S
O2582 C2600 1.258 . S
O2583 Gd2532 2.362 . S
O2583 Gd2533 2.606 . S
O2583 C2599 1.284 . S
O2584 Gd2532 2.324 . S
O2584 C2607 1.254 . S
O2585 Gd2533 2.429 . S
O2585 C2607 1.268 . S
O2586 Gd2533 2.545 . S
O2586 C2599 1.250 . S
O2587 Gd2533 2.412 . S
O2587 C2600 1.252 . S
C2588 O2577 1.284 . S
C2588 O2580 1.250 . S
C2589 H2558 0.929 . S
C2589 C2574 1.437 . S
C2589 C2590 1.317 . S
C2590 H2561 0.930 . S
C2590 C2566 1.431 . S
C2590 C2589 1.317 . S
C2591 Gd2532 2.828 . S
C2591 O2576 1.258 . S
C2591 O2581 1.252 . S
C2591 C2592 1.497 . S
C2592 C2591 1.497 . S
C2592 C2593 1.395 . S
C2592 C2594 1.380 . S
C2593 C2592 1.395 . S
C2593 C2596 1.398 . S
C2593 H2608 0.930 . S
C2594 C2592 1.380 . S
C2594 C2595 1.391 . S
C2594 H2609 0.930 . S
C2595 C2594 1.391 . S
C2595 C2597 1.387 . S
C2596 C2593 1.398 . S
C2596 C2597 1.380 . S
C2596 H2610 0.930 . S
C2597 C2595 1.387 . S
C2597 C2596 1.380 . S
C2597 H2611 0.930 . S
C2598 O2578 1.254 . S
C2598 O2579 1.268 . S
C2599 O2583 1.284 . S
C2599 O2586 1.250 . S
C2600 Gd2533 2.828 . S
C2600 O2582 1.258 . S
C2600 O2587 1.252 . S
C2600 C2601 1.497 . S
C2601 C2600 1.497 . S
C2601 C2602 1.395 . S
C2601 C2603 1.380 . S
C2602 C2601 1.395 . S
C2602 C2605 1.398 . S
C2602 H2612 0.930 . S
C2603 C2601 1.380 . S
C2603 C2604 1.391 . S
C2603 H2613 0.930 . S
C2604 C2603 1.391 . S
C2604 C2606 1.387 . S
C2605 C2602 1.398 . S
C2605 C2606 1.380 . S
C2605 H2614 0.930 . S
C2606 C2604 1.387 . S
C2606 C2605 1.380 . S
C2606 H2615 0.930 . S
C2607 O2584 1.254 . S
C2607 O2585 1.268 . S
H2608 C2593 0.930 . S
H2609 C2594 0.930 . S
H2610 C2596 0.930 . S
H2611 C2597 0.930 . S
H2612 C2602 0.930 . S
H2613 C2603 0.930 . S
H2614 C2605 0.930 . S
H2615 C2606 0.930 . S
Gd2616 N2647 2.661 . S
Gd2616 N2653 2.601 . S
Gd2616 O2660 2.545 . S
Gd2616 O2661 2.606 1_556 S
Gd2616 O2663 2.429 1_556 S
Gd2616 O2664 2.545 . S
Gd2616 O2665 2.412 . S
Gd2616 O2667 2.362 1_556 S
Gd2616 O2668 2.324 . S
Gd2616 C2675 2.828 . S
Gd2617 N2626 2.661 . S
Gd2617 N2630 2.601 . S
Gd2617 O2661 2.362 . S
Gd2617 O2662 2.324 . S
Gd2617 O2666 2.545 . S
Gd2617 O2667 2.606 . S
Gd2617 O2669 2.436 . S
Gd2617 O2670 2.545 . S
Gd2617 O2671 2.412 . S
Gd2617 C2684 2.828 . S
C2618 C2621 1.417 . S
C2618 C2623 1.431 . S
C2618 C2624 1.412 . S
C2619 C2622 1.437 . S
C2619 C2623 1.317 . S
C2619 H2638 0.929 . S
C2620 C2621 1.426 . S
C2620 C2622 1.413 . S
C2620 N2630 1.359 . S
C2621 C2618 1.417 . S
C2621 C2620 1.426 . S
C2621 N2626 1.350 . S
C2622 C2619 1.437 . S
C2622 C2620 1.413 . S
C2622 C2632 1.391 1_545 S
C2623 C2618 1.431 . S
C2623 C2619 1.317 . S
C2623 H2634 0.930 . S
C2624 C2618 1.412 . S
C2624 C2625 1.355 . S
C2624 H2636 0.930 . S
C2625 C2624 1.355 . S
C2625 C2627 1.402 . S
C2625 H2637 0.930 . S
N2626 Gd2617 2.661 . S
N2626 C2621 1.350 . S
N2626 C2627 1.307 . S
C2627 C2625 1.402 . S
C2627 N2626 1.307 . S
C2627 H2628 0.930 . S
H2628 C2627 0.930 . S
C2629 N2630 1.334 1_565 S
C2629 C2631 1.394 . S
C2629 H2633 0.930 . S
N2630 Gd2617 2.601 . S
N2630 C2620 1.359 . S
N2630 C2629 1.334 1_545 S
C2631 C2629 1.394 . S
C2631 C2632 1.359 . S
C2631 H2643 0.930 . S
C2632 C2622 1.391 1_565 S
C2632 C2631 1.359 . S
C2632 H2644 0.929 . S
H2633 C2629 0.930 . S
H2634 C2623 0.930 . S
H2635 C2652 0.944 . S
H2636 C2624 0.930 . S
H2637 C2625 0.930 . S
H2638 C2619 0.929 . S
H2639 C2657 0.930 . S
H2640 C2648 0.930 . S
H2641 C2649 0.930 . S
H2642 C2673 0.929 . S
H2643 C2631 0.930 . S
H2644 C2632 0.929 . S
H2645 C2674 0.930 . S
H2646 C2655 0.930 . S
N2647 Gd2616 2.661 . S
N2647 C2651 1.350 . S
N2647 C2652 1.285 1_545 S
C2648 H2640 0.930 . S
C2648 C2649 1.355 . S
C2648 C2650 1.412 1_565 S
C2649 H2641 0.930 . S
C2649 C2648 1.355 . S
C2649 C2652 1.411 . S
C2650 C2648 1.412 1_545 S
C2650 C2651 1.417 . S
C2650 C2674 1.431 . S
C2651 N2647 1.350 . S
C2651 C2650 1.417 . S
C2651 C2654 1.426 . S
C2652 H2635 0.944 . S
C2652 N2647 1.285 1_565 S
C2652 C2649 1.411 . S
N2653 Gd2616 2.601 . S
N2653 C2654 1.359 . S
N2653 C2657 1.334 . S
C2654 C2651 1.426 . S
C2654 N2653 1.359 . S
C2654 C2658 1.413 . S
C2655 H2646 0.930 . S
C2655 C2656 1.359 . S
C2655 C2657 1.394 . S
C2656 C2655 1.359 . S
C2656 C2658 1.391 . S
C2656 H2659 0.929 . S
C2657 H2639 0.930 . S
C2657 N2653 1.334 . S
C2657 C2655 1.394 . S
C2658 C2654 1.413 . S
C2658 C2656 1.391 . S
C2658 C2673 1.437 . S
H2659 C2656 0.929 . S
O2660 Gd2616 2.545 . S
O2660 C2675 1.258 . S
O2661 Gd2616 2.606 1_554 S
O2661 Gd2617 2.362 . S
O2661 C2672 1.284 . S
O2662 Gd2617 2.324 . S
O2662 C2682 1.254 . S
O2663 Gd2616 2.429 1_554 S
O2663 C2682 1.268 . S
O2664 Gd2616 2.545 . S
O2664 C2672 1.250 1_556 S
O2665 Gd2616 2.412 . S
O2665 C2675 1.252 . S
O2666 Gd2617 2.545 . S
O2666 C2684 1.258 . S
O2667 Gd2616 2.362 1_554 S
O2667 Gd2617 2.606 . S
O2667 C2683 1.284 . S
O2668 Gd2616 2.324 . S
O2668 C2691 1.252 . S
O2669 Gd2617 2.436 . S
O2669 C2691 1.273 1_554 S
O2670 Gd2617 2.545 . S
O2670 C2683 1.250 . S
O2671 Gd2617 2.412 . S
O2671 C2684 1.252 . S
C2672 O2661 1.284 . S
C2672 O2664 1.250 1_554 S
C2673 H2642 0.929 . S
C2673 C2658 1.437 . S
C2673 C2674 1.317 . S
C2674 H2645 0.930 . S
C2674 C2650 1.431 . S
C2674 C2673 1.317 . S
C2675 Gd2616 2.828 . S
C2675 O2660 1.258 . S
C2675 O2665 1.252 . S
C2675 C2676 1.497 . S
C2676 C2675 1.497 . S
C2676 C2677 1.395 . S
C2676 C2678 1.380 . S
C2677 C2676 1.395 . S
C2677 C2680 1.398 . S
C2677 H2692 0.930 . S
C2678 C2676 1.380 . S
C2678 C2679 1.391 . S
C2678 H2693 0.930 . S
C2679 C2678 1.391 . S
C2679 C2681 1.387 . S
C2680 C2677 1.398 . S
C2680 C2681 1.380 . S
C2680 H2694 0.930 . S
C2681 C2679 1.387 . S
C2681 C2680 1.380 . S
C2681 H2695 0.930 . S
C2682 O2662 1.254 . S
C2682 O2663 1.268 . S
C2683 O2667 1.284 . S
C2683 O2670 1.250 . S
C2684 Gd2617 2.828 . S
C2684 O2666 1.258 . S
C2684 O2671 1.252 . S
C2684 C2685 1.497 . S
C2685 C2684 1.497 . S
C2685 C2686 1.395 1_545 S
C2685 C2687 1.380 . S
C2686 C2685 1.395 1_565 S
C2686 C2689 1.398 . S
C2686 H2696 0.930 . S
C2687 C2685 1.380 . S
C2687 C2688 1.391 . S
C2687 H2697 0.930 . S
C2688 C2687 1.391 . S
C2688 C2690 1.387 . S
C2689 C2686 1.398 . S
C2689 C2690 1.380 1_565 S
C2689 H2698 0.930 . S
C2690 C2688 1.387 . S
C2690 C2689 1.380 1_545 S
C2690 H2699 0.930 1_545 S
C2691 O2668 1.252 . S
C2691 O2669 1.273 1_556 S
H2692 C2677 0.930 . S
H2693 C2678 0.930 . S
H2694 C2680 0.930 . S
H2695 C2681 0.930 . S
H2696 C2686 0.930 . S
H2697 C2687 0.930 . S
H2698 C2689 0.930 . S
H2699 C2690 0.930 1_565 S
Gd2700 N2731 2.661 . S
Gd2700 N2737 2.601 . S
Gd2700 O2744 2.545 . S
Gd2700 O2745 2.606 . S
Gd2700 O2747 2.429 . S
Gd2700 O2748 2.545 . S
Gd2700 O2749 2.412 . S
Gd2700 O2751 2.362 . S
Gd2700 O2752 2.324 . S
Gd2700 C2759 2.828 . S
Gd2701 N2710 2.661 . S
Gd2701 N2714 2.601 . S
Gd2701 O2745 2.362 . S
Gd2701 O2746 2.324 . S
Gd2701 O2750 2.545 . S
Gd2701 O2751 2.606 . S
Gd2701 O2753 2.429 . S
Gd2701 O2754 2.545 . S
Gd2701 O2755 2.412 . S
Gd2701 C2768 2.828 . S
C2702 C2705 1.417 . S
C2702 C2707 1.431 . S
C2702 C2708 1.412 . S
C2703 C2706 1.437 . S
C2703 C2707 1.317 . S
C2703 H2722 0.929 . S
C2704 C2705 1.426 . S
C2704 C2706 1.413 . S
C2704 N2714 1.359 . S
C2705 C2702 1.417 . S
C2705 C2704 1.426 . S
C2705 N2710 1.350 . S
C2706 C2703 1.437 . S
C2706 C2704 1.413 . S
C2706 C2716 1.391 . S
C2707 C2702 1.431 . S
C2707 C2703 1.317 . S
C2707 H2718 0.930 . S
C2708 C2702 1.412 . S
C2708 C2709 1.355 . S
C2708 H2720 0.930 . S
C2709 C2708 1.355 . S
C2709 C2711 1.402 . S
C2709 H2721 0.930 . S
N2710 Gd2701 2.661 . S
N2710 C2705 1.350 . S
N2710 C2711 1.307 . S
C2711 C2709 1.402 . S
C2711 N2710 1.307 . S
C2711 H2712 0.930 . S
H2712 C2711 0.930 . S
C2713 N2714 1.334 . S
C2713 C2715 1.394 . S
C2713 H2717 0.930 . S
N2714 Gd2701 2.601 . S
N2714 C2704 1.359 . S
N2714 C2713 1.334 . S
C2715 C2713 1.394 . S
C2715 C2716 1.359 . S
C2715 H2727 0.930 . S
C2716 C2706 1.391 . S
C2716 C2715 1.359 . S
C2716 H2728 0.929 . S
H2717 C2713 0.930 . S
H2718 C2707 0.930 . S
H2719 C2736 0.930 . S
H2720 C2708 0.930 . S
H2721 C2709 0.930 . S
H2722 C2703 0.929 . S
H2723 C2741 0.930 . S
H2724 C2732 0.930 . S
H2725 C2733 0.930 . S
H2726 C2757 0.929 . S
H2727 C2715 0.930 . S
H2728 C2716 0.929 . S
H2729 C2758 0.930 . S
H2730 C2739 0.930 . S
N2731 Gd2700 2.661 . S
N2731 C2735 1.350 . S
N2731 C2736 1.307 . S
C2732 H2724 0.930 . S
C2732 C2733 1.355 . S
C2732 C2734 1.412 . S
C2733 H2725 0.930 . S
C2733 C2732 1.355 . S
C2733 C2736 1.402 . S
C2734 C2732 1.412 . S
C2734 C2735 1.417 . S
C2734 C2758 1.431 . S
C2735 N2731 1.350 . S
C2735 C2734 1.417 . S
C2735 C2738 1.426 . S
C2736 H2719 0.930 . S
C2736 N2731 1.307 . S
C2736 C2733 1.402 . S
N2737 Gd2700 2.601 . S
N2737 C2738 1.359 . S
N2737 C2741 1.334 . S
C2738 C2735 1.426 . S
C2738 N2737 1.359 . S
C2738 C2742 1.413 . S
C2739 H2730 0.930 . S
C2739 C2740 1.359 . S
C2739 C2741 1.394 . S
C2740 C2739 1.359 . S
C2740 C2742 1.391 . S
C2740 H2743 0.929 . S
C2741 H2723 0.930 . S
C2741 N2737 1.334 . S
C2741 C2739 1.394 . S
C2742 C2738 1.413 . S
C2742 C2740 1.391 . S
C2742 C2757 1.437 . S
H2743 C2740 0.929 . S
O2744 Gd2700 2.545 . S
O2744 C2759 1.258 . S
O2745 Gd2700 2.606 . S
O2745 Gd2701 2.362 . S
O2745 C2756 1.284 . S
O2746 Gd2701 2.324 . S
O2746 C2766 1.254 . S
O2747 Gd2700 2.429 . S
O2747 C2766 1.268 . S
O2748 Gd2700 2.545 . S
O2748 C2756 1.250 . S
O2749 Gd2700 2.412 . S
O2749 C2759 1.252 . S
O2750 Gd2701 2.545 . S
O2750 C2768 1.258 . S
O2751 Gd2700 2.362 . S
O2751 Gd2701 2.606 . S
O2751 C2767 1.284 . S
O2752 Gd2700 2.324 . S
O2752 C2775 1.254 . S
O2753 Gd2701 2.429 . S
O2753 C2775 1.268 . S
O2754 Gd2701 2.545 . S
O2754 C2767 1.250 . S
O2755 Gd2701 2.412 . S
O2755 C2768 1.252 . S
C2756 O2745 1.284 . S
C2756 O2748 1.250 . S
C2757 H2726 0.929 . S
C2757 C2742 1.437 . S
C2757 C2758 1.317 . S
C2758 H2729 0.930 . S
C2758 C2734 1.431 . S
C2758 C2757 1.317 . S
C2759 Gd2700 2.828 . S
C2759 O2744 1.258 . S
C2759 O2749 1.252 . S
C2759 C2760 1.497 . S
C2760 C2759 1.497 . S
C2760 C2761 1.395 . S
C2760 C2762 1.380 . S
C2761 C2760 1.395 . S
C2761 C2764 1.398 . S
C2761 H2776 0.930 . S
C2762 C2760 1.380 . S
C2762 C2763 1.391 . S
C2762 H2777 0.930 . S
C2763 C2762 1.391 . S
C2763 C2765 1.387 . S
C2764 C2761 1.398 . S
C2764 C2765 1.380 . S
C2764 H2778 0.930 . S
C2765 C2763 1.387 . S
C2765 C2764 1.380 . S
C2765 H2779 0.930 . S
C2766 O2746 1.254 . S
C2766 O2747 1.268 . S
C2767 O2751 1.284 . S
C2767 O2754 1.250 . S
C2768 Gd2701 2.828 . S
C2768 O2750 1.258 . S
C2768 O2755 1.252 . S
C2768 C2769 1.497 . S
C2769 C2768 1.497 . S
C2769 C2770 1.395 . S
C2769 C2771 1.380 . S
C2770 C2769 1.395 . S
C2770 C2773 1.398 . S
C2770 H2780 0.930 . S
C2771 C2769 1.380 . S
C2771 C2772 1.391 . S
C2771 H2781 0.930 . S
C2772 C2771 1.391 . S
C2772 C2774 1.387 . S
C2773 C2770 1.398 . S
C2773 C2774 1.380 . S
C2773 H2782 0.930 . S
C2774 C2772 1.387 . S
C2774 C2773 1.380 . S
C2774 H2783 0.930 . S
C2775 O2752 1.254 . S
C2775 O2753 1.268 . S
H2776 C2761 0.930 . S
H2777 C2762 0.930 . S
H2778 C2764 0.930 . S
H2779 C2765 0.930 . S
H2780 C2770 0.930 . S
H2781 C2771 0.930 . S
H2782 C2773 0.930 . S
H2783 C2774 0.930 . S
Gd2784 N2815 2.661 1_554 S
Gd2784 N2821 2.601 1_554 S
Gd2784 O2828 2.545 . S
Gd2784 O2829 2.606 . S
Gd2784 O2831 2.429 . S
Gd2784 O2832 2.545 . S
Gd2784 O2833 2.412 . S
Gd2784 O2835 2.362 1_554 S
Gd2784 O2836 2.324 . S
Gd2784 C2843 2.828 . S
Gd2785 N2794 2.661 . S
Gd2785 N2798 2.601 . S
Gd2785 O2829 2.362 . S
Gd2785 O2830 2.324 . S
Gd2785 O2834 2.545 . S
Gd2785 O2835 2.606 1_554 S
Gd2785 O2837 2.429 . S
Gd2785 O2838 2.545 1_554 S
Gd2785 O2839 2.412 . S
Gd2785 C2852 2.828 . S
C2786 C2789 1.417 . S
C2786 C2791 1.431 . S
C2786 C2792 1.412 . S
C2787 C2790 1.437 . S
C2787 C2791 1.317 . S
C2787 H2806 0.929 . S
C2788 C2789 1.426 . S
C2788 C2790 1.413 . S
C2788 N2798 1.359 . S
C2789 C2786 1.417 . S
C2789 C2788 1.426 . S
C2789 N2794 1.350 . S
C2790 C2787 1.437 . S
C2790 C2788 1.413 . S
C2790 C2800 1.391 . S
C2791 C2786 1.431 . S
C2791 C2787 1.317 . S
C2791 H2802 0.930 . S
C2792 C2786 1.412 . S
C2792 C2793 1.355 . S
C2792 H2804 0.930 . S
C2793 C2792 1.355 . S
C2793 C2795 1.402 . S
C2793 H2805 0.930 . S
N2794 Gd2785 2.661 . S
N2794 C2789 1.350 . S
N2794 C2795 1.307 . S
C2795 C2793 1.402 . S
C2795 N2794 1.307 . S
C2795 H2796 0.930 . S
H2796 C2795 0.930 . S
C2797 N2798 1.334 . S
C2797 C2799 1.394 . S
C2797 H2801 0.930 . S
N2798 Gd2785 2.601 . S
N2798 C2788 1.359 . S
N2798 C2797 1.334 . S
C2799 C2797 1.394 . S
C2799 C2800 1.359 . S
C2799 H2811 0.930 . S
C2800 C2790 1.391 . S
C2800 C2799 1.359 . S
C2800 H2812 0.929 . S
H2801 C2797 0.930 . S
H2802 C2791 0.930 . S
H2803 C2820 0.930 . S
H2804 C2792 0.930 . S
H2805 C2793 0.930 . S
H2806 C2787 0.929 . S
H2807 C2825 0.930 . S
H2808 C2816 0.930 . S
H2809 C2817 0.930 . S
H2810 C2841 0.929 . S
H2811 C2799 0.930 . S
H2812 C2800 0.929 . S
H2813 C2842 0.930 . S
H2814 C2823 0.930 . S
N2815 Gd2784 2.661 1_556 S
N2815 C2819 1.350 . S
N2815 C2820 1.307 . S
C2816 H2808 0.930 . S
C2816 C2817 1.355 . S
C2816 C2818 1.412 . S
C2817 H2809 0.930 . S
C2817 C2816 1.355 . S
C2817 C2820 1.402 . S
C2818 C2816 1.412 . S
C2818 C2819 1.417 . S
C2818 C2842 1.431 . S
C2819 N2815 1.350 . S
C2819 C2818 1.417 . S
C2819 C2822 1.426 . S
C2820 H2803 0.930 . S
C2820 N2815 1.307 . S
C2820 C2817 1.402 . S
N2821 Gd2784 2.601 1_556 S
N2821 C2822 1.359 . S
N2821 C2825 1.334 . S
C2822 C2819 1.426 . S
C2822 N2821 1.359 . S
C2822 C2826 1.413 . S
C2823 H2814 0.930 . S
C2823 C2824 1.359 . S
C2823 C2825 1.394 . S
C2824 C2823 1.359 . S
C2824 C2826 1.391 . S
C2824 H2827 0.929 . S
C2825 H2807 0.930 . S
C2825 N2821 1.334 . S
C2825 C2823 1.394 . S
C2826 C2822 1.413 . S
C2826 C2824 1.391 . S
C2826 C2841 1.437 . S
H2827 C2824 0.929 . S
O2828 Gd2784 2.545 . S
O2828 C2843 1.258 . S
O2829 Gd2784 2.606 . S
O2829 Gd2785 2.362 . S
O2829 C2840 1.284 . S
O2830 Gd2785 2.324 . S
O2830 C2850 1.254 . S
O2831 Gd2784 2.429 . S
O2831 C2850 1.268 . S
O2832 Gd2784 2.545 . S
O2832 C2840 1.250 . S
O2833 Gd2784 2.412 . S
O2833 C2843 1.252 . S
O2834 Gd2785 2.545 . S
O2834 C2852 1.258 . S
O2835 Gd2784 2.362 1_556 S
O2835 Gd2785 2.606 1_556 S
O2835 C2851 1.284 . S
O2836 Gd2784 2.324 . S
O2836 C2859 1.254 . S
O2837 Gd2785 2.429 . S
O2837 C2859 1.268 . S
O2838 Gd2785 2.545 1_556 S
O2838 C2851 1.250 . S
O2839 Gd2785 2.412 . S
O2839 C2852 1.252 . S
C2840 O2829 1.284 . S
C2840 O2832 1.250 . S
C2841 H2810 0.929 . S
C2841 C2826 1.437 . S
C2841 C2842 1.317 . S
C2842 H2813 0.930 . S
C2842 C2818 1.431 . S
C2842 C2841 1.317 . S
C2843 Gd2784 2.828 . S
C2843 O2828 1.258 . S
C2843 O2833 1.252 . S
C2843 C2844 1.497 . S
C2844 C2843 1.497 . S
C2844 C2845 1.395 . S
C2844 C2846 1.380 . S
C2845 C2844 1.395 . S
C2845 C2848 1.398 . S
C2845 H2860 0.930 . S
C2846 C2844 1.380 . S
C2846 C2847 1.391 . S
C2846 H2861 0.930 . S
C2847 C2846 1.391 . S
C2847 C2849 1.387 . S
C2848 C2845 1.398 . S
C2848 C2849 1.380 . S
C2848 H2862 0.930 . S
C2849 C2847 1.387 . S
C2849 C2848 1.380 . S
C2849 H2863 0.930 . S
C2850 O2830 1.254 . S
C2850 O2831 1.268 . S
C2851 O2835 1.284 . S
C2851 O2838 1.250 . S
C2852 Gd2785 2.828 . S
C2852 O2834 1.258 . S
C2852 O2839 1.252 . S
C2852 C2853 1.497 . S
C2853 C2852 1.497 . S
C2853 C2854 1.395 . S
C2853 C2855 1.380 . S
C2854 C2853 1.395 . S
C2854 C2857 1.398 . S
C2854 H2864 0.930 . S
C2855 C2853 1.380 . S
C2855 C2856 1.391 1_554 S
C2855 H2865 0.933 . S
C2856 C2855 1.391 1_556 S
C2856 C2858 1.387 1_556 S
C2857 C2854 1.398 . S
C2857 C2858 1.380 . S
C2857 H2866 0.930 . S
C2858 C2856 1.387 1_554 S
C2858 C2857 1.380 . S
C2858 H2867 0.930 . S
C2859 O2836 1.254 . S
C2859 O2837 1.268 . S
H2860 C2845 0.930 . S
H2861 C2846 0.930 . S
H2862 C2848 0.930 . S
H2863 C2849 0.930 . S
H2864 C2854 0.930 . S
H2865 C2855 0.933 . S
H2866 C2857 0.930 . S
H2867 C2858 0.930 . S
Gd2868 N2899 2.661 . S
Gd2868 N2905 2.601 . S
Gd2868 O2912 2.545 . S
Gd2868 O2913 2.606 . S
Gd2868 O2915 2.429 . S
Gd2868 O2916 2.545 . S
Gd2868 O2917 2.412 . S
Gd2868 O2919 2.362 . S
Gd2868 O2920 2.324 . S
Gd2868 C2927 2.828 . S
Gd2869 N2878 2.661 . S
Gd2869 N2882 2.601 . S
Gd2869 O2913 2.362 . S
Gd2869 O2914 2.324 . S
Gd2869 O2918 2.545 . S
Gd2869 O2919 2.606 . S
Gd2869 O2921 2.429 . S
Gd2869 O2922 2.545 . S
Gd2869 O2923 2.412 . S
Gd2869 C2936 2.828 . S
C2870 C2873 1.417 . S
C2870 C2875 1.431 . S
C2870 C2876 1.412 . S
C2871 C2874 1.437 . S
C2871 C2875 1.317 . S
C2871 H2890 0.929 . S
C2872 C2873 1.426 . S
C2872 C2874 1.413 . S
C2872 N2882 1.359 . S
C2873 C2870 1.417 . S
C2873 C2872 1.426 . S
C2873 N2878 1.350 . S
C2874 C2871 1.437 . S
C2874 C2872 1.413 . S
C2874 C2884 1.391 . S
C2875 C2870 1.431 . S
C2875 C2871 1.317 . S
C2875 H2886 0.930 . S
C2876 C2870 1.412 . S
C2876 C2877 1.355 . S
C2876 H2888 0.930 . S
C2877 C2876 1.355 . S
C2877 C2879 1.402 . S
C2877 H2889 0.930 . S
N2878 Gd2869 2.661 . S
N2878 C2873 1.350 . S
N2878 C2879 1.307 . S
C2879 C2877 1.402 . S
C2879 N2878 1.307 . S
C2879 H2880 0.930 . S
H2880 C2879 0.930 . S
C2881 N2882 1.334 . S
C2881 C2883 1.394 . S
C2881 H2885 0.930 . S
N2882 Gd2869 2.601 . S
N2882 C2872 1.359 . S
N2882 C2881 1.334 . S
C2883 C2881 1.394 . S
C2883 C2884 1.359 . S
C2883 H2895 0.930 . S
C2884 C2874 1.391 . S
C2884 C2883 1.359 . S
C2884 H2896 0.929 . S
H2885 C2881 0.930 . S
H2886 C2875 0.930 . S
H2887 C2904 0.930 . S
H2888 C2876 0.930 . S
H2889 C2877 0.930 . S
H2890 C2871 0.929 . S
H2891 C2909 0.930 . S
H2892 C2900 0.930 . S
H2893 C2901 0.930 . S
H2894 C2925 0.929 . S
H2895 C2883 0.930 . S
H2896 C2884 0.929 . S
H2897 C2926 0.930 . S
H2898 C2907 0.930 . S
N2899 Gd2868 2.661 . S
N2899 C2903 1.350 . S
N2899 C2904 1.307 . S
C2900 H2892 0.930 . S
C2900 C2901 1.355 . S
C2900 C2902 1.412 . S
C2901 H2893 0.930 . S
C2901 C2900 1.355 . S
C2901 C2904 1.402 . S
C2902 C2900 1.412 . S
C2902 C2903 1.417 . S
C2902 C2926 1.431 . S
C2903 N2899 1.350 . S
C2903 C2902 1.417 . S
C2903 C2906 1.426 . S
C2904 H2887 0.930 . S
C2904 N2899 1.307 . S
C2904 C2901 1.402 . S
N2905 Gd2868 2.601 . S
N2905 C2906 1.359 . S
N2905 C2909 1.334 . S
C2906 C2903 1.426 . S
C2906 N2905 1.359 . S
C2906 C2910 1.413 . S
C2907 H2898 0.930 . S
C2907 C2908 1.359 . S
C2907 C2909 1.394 . S
C2908 C2907 1.359 . S
C2908 C2910 1.391 . S
C2908 H2911 0.929 . S
C2909 H2891 0.930 . S
C2909 N2905 1.334 . S
C2909 C2907 1.394 . S
C2910 C2906 1.413 . S
C2910 C2908 1.391 . S
C2910 C2925 1.437 . S
H2911 C2908 0.929 . S
O2912 Gd2868 2.545 . S
O2912 C2927 1.258 . S
O2913 Gd2868 2.606 . S
O2913 Gd2869 2.362 . S
O2913 C2924 1.284 . S
O2914 Gd2869 2.324 . S
O2914 C2934 1.254 . S
O2915 Gd2868 2.429 . S
O2915 C2934 1.268 . S
O2916 Gd2868 2.545 . S
O2916 C2924 1.250 . S
O2917 Gd2868 2.412 . S
O2917 C2927 1.252 . S
O2918 Gd2869 2.545 . S
O2918 C2936 1.258 . S
O2919 Gd2868 2.362 . S
O2919 Gd2869 2.606 . S
O2919 C2935 1.284 . S
O2920 Gd2868 2.324 . S
O2920 C2943 1.254 . S
O2921 Gd2869 2.429 . S
O2921 C2943 1.268 . S
O2922 Gd2869 2.545 . S
O2922 C2935 1.250 . S
O2923 Gd2869 2.412 . S
O2923 C2936 1.252 . S
C2924 O2913 1.284 . S
C2924 O2916 1.250 . S
C2925 H2894 0.929 . S
C2925 C2910 1.437 . S
C2925 C2926 1.317 . S
C2926 H2897 0.930 . S
C2926 C2902 1.431 . S
C2926 C2925 1.317 . S
C2927 Gd2868 2.828 . S
C2927 O2912 1.258 . S
C2927 O2917 1.252 . S
C2927 C2928 1.497 . S
C2928 C2927 1.497 . S
C2928 C2929 1.395 . S
C2928 C2930 1.380 . S
C2929 C2928 1.395 . S
C2929 C2932 1.398 . S
C2929 H2944 0.930 . S
C2930 C2928 1.380 . S
C2930 C2931 1.391 . S
C2930 H2945 0.930 . S
C2931 C2930 1.391 . S
C2931 C2933 1.387 . S
C2932 C2929 1.398 . S
C2932 C2933 1.380 . S
C2932 H2946 0.930 . S
C2933 C2931 1.387 . S
C2933 C2932 1.380 . S
C2933 H2947 0.930 . S
C2934 O2914 1.254 . S
C2934 O2915 1.268 . S
C2935 O2919 1.284 . S
C2935 O2922 1.250 . S
C2936 Gd2869 2.828 . S
C2936 O2918 1.258 . S
C2936 O2923 1.252 . S
C2936 C2937 1.497 . S
C2937 C2936 1.497 . S
C2937 C2938 1.395 . S
C2937 C2939 1.380 . S
C2938 C2937 1.395 . S
C2938 C2941 1.398 . S
C2938 H2948 0.930 . S
C2939 C2937 1.380 . S
C2939 C2940 1.391 . S
C2939 H2949 0.930 . S
C2940 C2939 1.391 . S
C2940 C2942 1.387 . S
C2941 C2938 1.398 . S
C2941 C2942 1.380 . S
C2941 H2950 0.930 . S
C2942 C2940 1.387 . S
C2942 C2941 1.380 . S
C2942 H2951 0.930 . S
C2943 O2920 1.254 . S
C2943 O2921 1.268 . S
H2944 C2929 0.930 . S
H2945 C2930 0.930 . S
H2946 C2932 0.930 . S
H2947 C2933 0.930 . S
H2948 C2938 0.930 . S
H2949 C2939 0.930 . S
H2950 C2941 0.930 . S
H2951 C2942 0.930 . S
Gd2952 N2983 2.661 . S
Gd2952 N2989 2.601 . S
Gd2952 O2996 2.545 . S
Gd2952 O2997 2.606 . S
Gd2952 O2999 2.429 . S
Gd2952 O3000 2.545 . S
Gd2952 O3001 2.412 . S
Gd2952 O3003 2.362 . S
Gd2952 O3004 2.324 . S
Gd2952 C3011 2.828 . S
Gd2953 N2962 2.661 . S
Gd2953 N2966 2.601 . S
Gd2953 O2997 2.362 . S
Gd2953 O2998 2.324 . S
Gd2953 O3002 2.545 . S
Gd2953 O3003 2.606 . S
Gd2953 O3005 2.429 . S
Gd2953 O3006 2.545 . S
Gd2953 O3007 2.412 . S
Gd2953 C3020 2.828 . S
C2954 C2957 1.417 . S
C2954 C2959 1.431 . S
C2954 C2960 1.412 . S
C2955 C2958 1.437 . S
C2955 C2959 1.317 . S
C2955 H2974 0.929 . S
C2956 C2957 1.426 . S
C2956 C2958 1.413 . S
C2956 N2966 1.359 . S
C2957 C2954 1.417 . S
C2957 C2956 1.426 . S
C2957 N2962 1.350 . S
C2958 C2955 1.437 . S
C2958 C2956 1.413 . S
C2958 C2968 1.391 . S
C2959 C2954 1.431 . S
C2959 C2955 1.317 . S
C2959 H2970 0.930 . S
C2960 C2954 1.412 . S
C2960 C2961 1.355 . S
C2960 H2972 0.930 . S
C2961 C2960 1.355 . S
C2961 C2963 1.402 . S
C2961 H2973 0.930 . S
N2962 Gd2953 2.661 . S
N2962 C2957 1.350 . S
N2962 C2963 1.307 . S
C2963 C2961 1.402 . S
C2963 N2962 1.307 . S
C2963 H2964 0.930 . S
H2964 C2963 0.930 . S
C2965 N2966 1.334 . S
C2965 C2967 1.394 . S
C2965 H2969 0.930 . S
N2966 Gd2953 2.601 . S
N2966 C2956 1.359 . S
N2966 C2965 1.334 . S
C2967 C2965 1.394 . S
C2967 C2968 1.359 . S
C2967 H2979 0.930 . S
C2968 C2958 1.391 . S
C2968 C2967 1.359 . S
C2968 H2980 0.929 . S
H2969 C2965 0.930 . S
H2970 C2959 0.930 . S
H2971 C2988 0.930 . S
H2972 C2960 0.930 . S
H2973 C2961 0.930 . S
H2974 C2955 0.929 . S
H2975 C2993 0.930 . S
H2976 C2984 0.930 . S
H2977 C2985 0.941 . S
H2978 C3009 0.929 . S
H2979 C2967 0.930 . S
H2980 C2968 0.929 . S
H2981 C3010 0.930 . S
H2982 C2991 0.930 . S
N2983 Gd2952 2.661 . S
N2983 C2987 1.350 . S
N2983 C2988 1.307 . S
C2984 H2976 0.930 . S
C2984 C2985 1.357 . S
C2984 C2986 1.412 . S
C2985 H2977 0.941 . S
C2985 C2984 1.357 . S
C2985 C2988 1.400 1_655 S
C2986 C2984 1.412 . S
C2986 C2987 1.417 1_655 S
C2986 C3010 1.431 . S
C2987 N2983 1.350 . S
C2987 C2986 1.417 1_455 S
C2987 C2990 1.426 . S
C2988 H2971 0.930 . S
C2988 N2983 1.307 . S
C2988 C2985 1.400 1_455 S
N2989 Gd2952 2.601 . S
N2989 C2990 1.359 . S
N2989 C2993 1.334 . S
C2990 C2987 1.426 . S
C2990 N2989 1.359 . S
C2990 C2994 1.413 1_455 S
C2991 H2982 0.930 . S
C2991 C2992 1.359 1_455 S
C2991 C2993 1.394 . S
C2992 C2991 1.359 1_655 S
C2992 C2994 1.391 . S
C2992 H2995 0.929 . S
C2993 H2975 0.930 . S
C2993 N2989 1.334 . S
C2993 C2991 1.394 . S
C2994 C2990 1.413 1_655 S
C2994 C2992 1.391 . S
C2994 C3009 1.437 . S
H2995 C2992 0.929 . S
O2996 Gd2952 2.545 . S
O2996 C3011 1.258 . S
O2997 Gd2952 2.606 . S
O2997 Gd2953 2.362 . S
O2997 C3008 1.284 . S
O2998 Gd2953 2.324 . S
O2998 C3018 1.254 . S
O2999 Gd2952 2.429 . S
O2999 C3018 1.268 . S
O3000 Gd2952 2.545 . S
O3000 C3008 1.250 . S
O3001 Gd2952 2.412 . S
O3001 C3011 1.252 . S
O3002 Gd2953 2.545 . S
O3002 C3020 1.258 . S
O3003 Gd2952 2.362 . S
O3003 Gd2953 2.606 . S
O3003 C3019 1.284 . S
O3004 Gd2952 2.324 . S
O3004 C3027 1.254 . S
O3005 Gd2953 2.429 . S
O3005 C3027 1.268 . S
O3006 Gd2953 2.545 . S
O3006 C3019 1.250 . S
O3007 Gd2953 2.412 . S
O3007 C3020 1.252 . S
C3008 O2997 1.284 . S
C3008 O3000 1.250 . S
C3009 H2978 0.929 . S
C3009 C2994 1.437 . S
C3009 C3010 1.317 . S
C3010 H2981 0.930 . S
C3010 C2986 1.431 . S
C3010 C3009 1.317 . S
C3011 Gd2952 2.828 . S
C3011 O2996 1.258 . S
C3011 O3001 1.252 . S
C3011 C3012 1.497 . S
C3012 C3011 1.497 . S
C3012 C3013 1.395 . S
C3012 C3014 1.380 . S
C3013 C3012 1.395 . S
C3013 C3016 1.398 . S
C3013 H3028 0.930 . S
C3014 C3012 1.380 . S
C3014 C3015 1.391 . S
C3014 H3029 0.930 . S
C3015 C3014 1.391 . S
C3015 C3017 1.387 . S
C3016 C3013 1.398 . S
C3016 C3017 1.380 . S
C3016 H3030 0.930 . S
C3017 C3015 1.387 . S
C3017 C3016 1.380 . S
C3017 H3031 0.930 . S
C3018 O2998 1.254 . S
C3018 O2999 1.268 . S
C3019 O3003 1.284 . S
C3019 O3006 1.250 . S
C3020 Gd2953 2.828 . S
C3020 O3002 1.258 . S
C3020 O3007 1.252 . S
C3020 C3021 1.497 . S
C3021 C3020 1.497 . S
C3021 C3022 1.395 . S
C3021 C3023 1.380 . S
C3022 C3021 1.395 . S
C3022 C3025 1.398 . S
C3022 H3032 0.930 . S
C3023 C3021 1.380 . S
C3023 C3024 1.391 . S
C3023 H3033 0.930 . S
C3024 C3023 1.391 . S
C3024 C3026 1.387 . S
C3025 C3022 1.398 . S
C3025 C3026 1.380 . S
C3025 H3034 0.930 . S
C3026 C3024 1.387 . S
C3026 C3025 1.380 . S
C3026 H3035 0.930 . S
C3027 O3004 1.254 . S
C3027 O3005 1.268 . S
H3028 C3013 0.930 . S
H3029 C3014 0.930 . S
H3030 C3016 0.930 . S
H3031 C3017 0.930 . S
H3032 C3022 0.930 . S
H3033 C3023 0.930 . S
H3034 C3025 0.930 . S
H3035 C3026 0.930 . S
Gd3036 N3067 2.661 . S
Gd3036 N3073 2.601 . S
Gd3036 O3080 2.545 . S
Gd3036 O3081 2.606 . S
Gd3036 O3083 2.429 . S
Gd3036 O3084 2.545 . S
Gd3036 O3085 2.412 . S
Gd3036 O3087 2.362 . S
Gd3036 O3088 2.324 . S
Gd3036 C3095 2.828 . S
Gd3037 N3046 2.661 . S
Gd3037 N3050 2.601 . S
Gd3037 O3081 2.362 . S
Gd3037 O3082 2.324 . S
Gd3037 O3086 2.545 . S
Gd3037 O3087 2.606 . S
Gd3037 O3089 2.429 . S
Gd3037 O3090 2.545 . S
Gd3037 O3091 2.412 . S
Gd3037 C3104 2.828 . S
C3038 C3041 1.417 . S
C3038 C3043 1.431 . S
C3038 C3044 1.412 . S
C3039 C3042 1.437 . S
C3039 C3043 1.317 . S
C3039 H3058 0.929 . S
C3040 C3041 1.426 . S
C3040 C3042 1.413 . S
C3040 N3050 1.359 . S
C3041 C3038 1.417 . S
C3041 C3040 1.426 . S
C3041 N3046 1.350 . S
C3042 C3039 1.437 . S
C3042 C3040 1.413 . S
C3042 C3052 1.391 . S
C3043 C3038 1.431 . S
C3043 C3039 1.317 . S
C3043 H3054 0.930 . S
C3044 C3038 1.412 . S
C3044 C3045 1.355 . S
C3044 H3056 0.930 . S
C3045 C3044 1.355 . S
C3045 C3047 1.402 . S
C3045 H3057 0.930 . S
N3046 Gd3037 2.661 . S
N3046 C3041 1.350 . S
N3046 C3047 1.307 . S
C3047 C3045 1.402 . S
C3047 N3046 1.307 . S
C3047 H3048 0.930 . S
H3048 C3047 0.930 . S
C3049 N3050 1.334 . S
C3049 C3051 1.394 . S
C3049 H3053 0.930 . S
N3050 Gd3037 2.601 . S
N3050 C3040 1.359 . S
N3050 C3049 1.334 . S
C3051 C3049 1.394 . S
C3051 C3052 1.359 . S
C3051 H3063 0.930 . S
C3052 C3042 1.391 . S
C3052 C3051 1.359 . S
C3052 H3064 0.929 . S
H3053 C3049 0.930 . S
H3054 C3043 0.930 . S
H3055 C3072 0.930 . S
H3056 C3044 0.930 . S
H3057 C3045 0.930 . S
H3058 C3039 0.929 . S
H3059 C3077 0.930 . S
H3060 C3068 0.930 . S
H3061 C3069 0.930 . S
H3062 C3093 0.929 . S
H3063 C3051 0.930 . S
H3064 C3052 0.929 . S
H3065 C3094 0.930 . S
H3066 C3075 0.930 . S
N3067 Gd3036 2.661 . S
N3067 C3071 1.350 . S
N3067 C3072 1.307 . S
C3068 H3060 0.930 . S
C3068 C3069 1.355 . S
C3068 C3070 1.412 . S
C3069 H3061 0.930 . S
C3069 C3068 1.355 . S
C3069 C3072 1.402 . S
C3070 C3068 1.412 . S
C3070 C3071 1.417 . S
C3070 C3094 1.431 . S
C3071 N3067 1.350 . S
C3071 C3070 1.417 . S
C3071 C3074 1.426 . S
C3072 H3055 0.930 . S
C3072 N3067 1.307 . S
C3072 C3069 1.402 . S
N3073 Gd3036 2.601 . S
N3073 C3074 1.359 . S
N3073 C3077 1.334 . S
C3074 C3071 1.426 . S
C3074 N3073 1.359 . S
C3074 C3078 1.413 . S
C3075 H3066 0.930 . S
C3075 C3076 1.359 . S
C3075 C3077 1.394 . S
C3076 C3075 1.359 . S
C3076 C3078 1.391 . S
C3076 H3079 0.929 . S
C3077 H3059 0.930 . S
C3077 N3073 1.334 . S
C3077 C3075 1.394 . S
C3078 C3074 1.413 . S
C3078 C3076 1.391 . S
C3078 C3093 1.437 . S
H3079 C3076 0.929 . S
O3080 Gd3036 2.545 . S
O3080 C3095 1.258 . S
O3081 Gd3036 2.606 . S
O3081 Gd3037 2.362 . S
O3081 C3092 1.284 . S
O3082 Gd3037 2.324 . S
O3082 C3102 1.254 . S
O3083 Gd3036 2.429 . S
O3083 C3102 1.268 . S
O3084 Gd3036 2.545 . S
O3084 C3092 1.250 . S
O3085 Gd3036 2.412 . S
O3085 C3095 1.252 . S
O3086 Gd3037 2.545 . S
O3086 C3104 1.258 . S
O3087 Gd3036 2.362 . S
O3087 Gd3037 2.606 . S
O3087 C3103 1.284 . S
O3088 Gd3036 2.324 . S
O3088 C3111 1.254 . S
O3089 Gd3037 2.429 . S
O3089 C3111 1.268 . S
O3090 Gd3037 2.545 . S
O3090 C3103 1.250 . S
O3091 Gd3037 2.412 . S
O3091 C3104 1.252 . S
C3092 O3081 1.284 . S
C3092 O3084 1.250 . S
C3093 H3062 0.929 . S
C3093 C3078 1.437 . S
C3093 C3094 1.317 . S
C3094 H3065 0.930 . S
C3094 C3070 1.431 . S
C3094 C3093 1.317 . S
C3095 Gd3036 2.828 . S
C3095 O3080 1.258 . S
C3095 O3085 1.252 . S
C3095 C3096 1.497 . S
C3096 C3095 1.497 . S
C3096 C3097 1.395 . S
C3096 C3098 1.380 . S
C3097 C3096 1.395 . S
C3097 C3100 1.398 . S
C3097 H3112 0.930 . S
C3098 C3096 1.380 . S
C3098 C3099 1.391 . S
C3098 H3113 0.930 . S
C3099 C3098 1.391 . S
C3099 C3101 1.387 . S
C3100 C3097 1.398 . S
C3100 C3101 1.380 . S
C3100 H3114 0.930 . S
C3101 C3099 1.387 . S
C3101 C3100 1.380 . S
C3101 H3115 0.930 . S
C3102 O3082 1.254 . S
C3102 O3083 1.268 . S
C3103 O3087 1.284 . S
C3103 O3090 1.250 . S
C3104 Gd3037 2.828 . S
C3104 O3086 1.258 . S
C3104 O3091 1.252 . S
C3104 C3105 1.497 . S
C3105 C3104 1.497 . S
C3105 C3106 1.395 . S
C3105 C3107 1.380 . S
C3106 C3105 1.395 . S
C3106 C3109 1.398 . S
C3106 H3116 0.930 . S
C3107 C3105 1.380 . S
C3107 C3108 1.391 . S
C3107 H3117 0.930 . S
C3108 C3107 1.391 . S
C3108 C3110 1.387 . S
C3109 C3106 1.398 . S
C3109 C3110 1.380 . S
C3109 H3118 0.930 . S
C3110 C3108 1.387 . S
C3110 C3109 1.380 . S
C3110 H3119 0.930 . S
C3111 O3088 1.254 . S
C3111 O3089 1.268 . S
H3112 C3097 0.930 . S
H3113 C3098 0.930 . S
H3114 C3100 0.930 . S
H3115 C3101 0.930 . S
H3116 C3106 0.930 . S
H3117 C3107 0.930 . S
H3118 C3109 0.930 . S
H3119 C3110 0.930 . S
Gd3120 N3151 2.661 . S
Gd3120 N3157 2.601 . S
Gd3120 O3164 2.545 . S
Gd3120 O3165 2.606 . S
Gd3120 O3167 2.429 . S
Gd3120 O3168 2.545 . S
Gd3120 O3169 2.412 . S
Gd3120 O3171 2.362 . S
Gd3120 O3172 2.324 . S
Gd3120 C3179 2.828 . S
Gd3121 N3130 2.661 . S
Gd3121 N3134 2.601 . S
Gd3121 O3165 2.362 . S
Gd3121 O3166 2.324 . S
Gd3121 O3170 2.545 . S
Gd3121 O3171 2.606 . S
Gd3121 O3173 2.429 . S
Gd3121 O3174 2.545 . S
Gd3121 O3175 2.412 . S
Gd3121 C3188 2.828 . S
C3122 C3125 1.417 . S
C3122 C3127 1.431 . S
C3122 C3128 1.412 . S
C3123 C3126 1.437 . S
C3123 C3127 1.317 . S
C3123 H3142 0.929 . S
C3124 C3125 1.426 . S
C3124 C3126 1.413 . S
C3124 N3134 1.359 . S
C3125 C3122 1.417 . S
C3125 C3124 1.426 . S
C3125 N3130 1.350 . S
C3126 C3123 1.437 . S
C3126 C3124 1.413 . S
C3126 C3136 1.391 . S
C3127 C3122 1.431 . S
C3127 C3123 1.317 . S
C3127 H3138 0.930 . S
C3128 C3122 1.412 . S
C3128 C3129 1.355 . S
C3128 H3140 0.930 . S
C3129 C3128 1.355 . S
C3129 C3131 1.402 . S
C3129 H3141 0.930 . S
N3130 Gd3121 2.661 . S
N3130 C3125 1.350 . S
N3130 C3131 1.307 . S
C3131 C3129 1.402 . S
C3131 N3130 1.307 . S
C3131 H3132 0.930 . S
H3132 C3131 0.930 . S
C3133 N3134 1.334 . S
C3133 C3135 1.394 . S
C3133 H3137 0.930 . S
N3134 Gd3121 2.601 . S
N3134 C3124 1.359 . S
N3134 C3133 1.334 . S
C3135 C3133 1.394 . S
C3135 C3136 1.359 . S
C3135 H3147 0.930 . S
C3136 C3126 1.391 . S
C3136 C3135 1.359 . S
C3136 H3148 0.929 . S
H3137 C3133 0.930 . S
H3138 C3127 0.930 . S
H3139 C3156 0.930 . S
H3140 C3128 0.930 . S
H3141 C3129 0.930 . S
H3142 C3123 0.929 . S
H3143 C3161 0.930 . S
H3144 C3152 0.930 . S
H3145 C3153 0.930 . S
H3146 C3177 0.929 . S
H3147 C3135 0.930 . S
H3148 C3136 0.929 . S
H3149 C3178 0.930 . S
H3150 C3159 0.930 . S
N3151 Gd3120 2.661 . S
N3151 C3155 1.350 . S
N3151 C3156 1.307 . S
C3152 H3144 0.930 . S
C3152 C3153 1.355 . S
C3152 C3154 1.412 . S
C3153 H3145 0.930 . S
C3153 C3152 1.355 . S
C3153 C3156 1.402 . S
C3154 C3152 1.412 . S
C3154 C3155 1.417 . S
C3154 C3178 1.431 . S
C3155 N3151 1.350 . S
C3155 C3154 1.417 . S
C3155 C3158 1.426 . S
C3156 H3139 0.930 . S
C3156 N3151 1.307 . S
C3156 C3153 1.402 . S
N3157 Gd3120 2.601 . S
N3157 C3158 1.359 . S
N3157 C3161 1.334 . S
C3158 C3155 1.426 . S
C3158 N3157 1.359 . S
C3158 C3162 1.413 . S
C3159 H3150 0.930 . S
C3159 C3160 1.359 . S
C3159 C3161 1.394 . S
C3160 C3159 1.359 . S
C3160 C3162 1.391 . S
C3160 H3163 0.929 . S
C3161 H3143 0.930 . S
C3161 N3157 1.334 . S
C3161 C3159 1.394 . S
C3162 C3158 1.413 . S
C3162 C3160 1.391 . S
C3162 C3177 1.437 . S
H3163 C3160 0.929 . S
O3164 Gd3120 2.545 . S
O3164 C3179 1.258 . S
O3165 Gd3120 2.606 . S
O3165 Gd3121 2.362 . S
O3165 C3176 1.284 . S
O3166 Gd3121 2.324 . S
O3166 C3186 1.254 . S
O3167 Gd3120 2.429 . S
O3167 C3186 1.268 . S
O3168 Gd3120 2.545 . S
O3168 C3176 1.250 . S
O3169 Gd3120 2.412 . S
O3169 C3179 1.252 . S
O3170 Gd3121 2.545 . S
O3170 C3188 1.258 . S
O3171 Gd3120 2.362 . S
O3171 Gd3121 2.606 . S
O3171 C3187 1.284 . S
O3172 Gd3120 2.324 . S
O3172 C3195 1.254 . S
O3173 Gd3121 2.429 . S
O3173 C3195 1.268 . S
O3174 Gd3121 2.545 . S
O3174 C3187 1.250 . S
O3175 Gd3121 2.412 . S
O3175 C3188 1.252 . S
C3176 O3165 1.284 . S
C3176 O3168 1.250 . S
C3177 H3146 0.929 . S
C3177 C3162 1.437 . S
C3177 C3178 1.317 . S
C3178 H3149 0.930 . S
C3178 C3154 1.431 . S
C3178 C3177 1.317 . S
C3179 Gd3120 2.828 . S
C3179 O3164 1.258 . S
C3179 O3169 1.252 . S
C3179 C3180 1.497 . S
C3180 C3179 1.497 . S
C3180 C3181 1.395 . S
C3180 C3182 1.380 . S
C3181 C3180 1.395 . S
C3181 C3184 1.398 . S
C3181 H3196 0.930 . S
C3182 C3180 1.380 . S
C3182 C3183 1.391 . S
C3182 H3197 0.930 . S
C3183 C3182 1.391 . S
C3183 C3185 1.387 . S
C3184 C3181 1.398 . S
C3184 C3185 1.380 . S
C3184 H3198 0.930 . S
C3185 C3183 1.387 . S
C3185 C3184 1.380 . S
C3185 H3199 0.930 . S
C3186 O3166 1.254 . S
C3186 O3167 1.268 . S
C3187 O3171 1.284 . S
C3187 O3174 1.250 . S
C3188 Gd3121 2.828 . S
C3188 O3170 1.258 . S
C3188 O3175 1.252 . S
C3188 C3189 1.497 . S
C3189 C3188 1.497 . S
C3189 C3190 1.395 . S
C3189 C3191 1.380 . S
C3190 C3189 1.395 . S
C3190 C3193 1.398 . S
C3190 H3200 0.930 . S
C3191 C3189 1.380 . S
C3191 C3192 1.391 . S
C3191 H3201 0.930 . S
C3192 C3191 1.391 . S
C3192 C3194 1.387 . S
C3193 C3190 1.398 . S
C3193 C3194 1.380 . S
C3193 H3202 0.930 . S
C3194 C3192 1.387 . S
C3194 C3193 1.380 . S
C3194 H3203 0.930 . S
C3195 O3172 1.254 . S
C3195 O3173 1.268 . S
H3196 C3181 0.930 . S
H3197 C3182 0.930 . S
H3198 C3184 0.930 . S
H3199 C3185 0.930 . S
H3200 C3190 0.930 . S
H3201 C3191 0.930 . S
H3202 C3193 0.930 . S
H3203 C3194 0.930 . S
Gd3204 N3235 2.661 . S
Gd3204 N3241 2.601 . S
Gd3204 O3248 2.545 . S
Gd3204 O3249 2.606 . S
Gd3204 O3251 2.429 . S
Gd3204 O3252 2.545 . S
Gd3204 O3253 2.412 . S
Gd3204 O3255 2.362 . S
Gd3204 O3256 2.324 . S
Gd3204 C3263 2.828 . S
Gd3205 N3214 2.661 . S
Gd3205 N3218 2.601 . S
Gd3205 O3249 2.362 . S
Gd3205 O3250 2.324 . S
Gd3205 O3254 2.545 . S
Gd3205 O3255 2.606 . S
Gd3205 O3257 2.429 . S
Gd3205 O3258 2.545 . S
Gd3205 O3259 2.412 . S
Gd3205 C3272 2.828 . S
C3206 C3209 1.417 . S
C3206 C3211 1.431 . S
C3206 C3212 1.412 . S
C3207 C3210 1.437 . S
C3207 C3211 1.317 . S
C3207 H3226 0.929 . S
C3208 C3209 1.426 . S
C3208 C3210 1.413 . S
C3208 N3218 1.359 . S
C3209 C3206 1.417 . S
C3209 C3208 1.426 . S
C3209 N3214 1.350 . S
C3210 C3207 1.437 . S
C3210 C3208 1.413 . S
C3210 C3220 1.391 . S
C3211 C3206 1.431 . S
C3211 C3207 1.317 . S
C3211 H3222 0.930 . S
C3212 C3206 1.412 . S
C3212 C3213 1.355 . S
C3212 H3224 0.930 . S
C3213 C3212 1.355 . S
C3213 C3215 1.402 . S
C3213 H3225 0.930 . S
N3214 Gd3205 2.661 . S
N3214 C3209 1.350 . S
N3214 C3215 1.307 . S
C3215 C3213 1.402 . S
C3215 N3214 1.307 . S
C3215 H3216 0.930 . S
H3216 C3215 0.930 . S
C3217 N3218 1.334 . S
C3217 C3219 1.394 . S
C3217 H3221 0.930 . S
N3218 Gd3205 2.601 . S
N3218 C3208 1.359 . S
N3218 C3217 1.334 . S
C3219 C3217 1.394 . S
C3219 C3220 1.359 . S
C3219 H3231 0.930 . S
C3220 C3210 1.391 . S
C3220 C3219 1.359 . S
C3220 H3232 0.929 . S
H3221 C3217 0.930 . S
H3222 C3211 0.930 . S
H3223 C3240 0.930 . S
H3224 C3212 0.930 . S
H3225 C3213 0.930 . S
H3226 C3207 0.929 . S
H3227 C3245 0.930 . S
H3228 C3236 0.930 . S
H3229 C3237 0.930 . S
H3230 C3261 0.929 . S
H3231 C3219 0.930 . S
H3232 C3220 0.929 . S
H3233 C3262 0.930 . S
H3234 C3243 0.930 . S
N3235 Gd3204 2.661 . S
N3235 C3239 1.350 . S
N3235 C3240 1.307 . S
C3236 H3228 0.930 . S
C3236 C3237 1.355 . S
C3236 C3238 1.412 . S
C3237 H3229 0.930 . S
C3237 C3236 1.355 . S
C3237 C3240 1.402 . S
C3238 C3236 1.412 . S
C3238 C3239 1.417 . S
C3238 C3262 1.431 . S
C3239 N3235 1.350 . S
C3239 C3238 1.417 . S
C3239 C3242 1.426 . S
C3240 H3223 0.930 . S
C3240 N3235 1.307 . S
C3240 C3237 1.402 . S
N3241 Gd3204 2.601 . S
N3241 C3242 1.359 . S
N3241 C3245 1.334 . S
C3242 C3239 1.426 . S
C3242 N3241 1.359 . S
C3242 C3246 1.413 . S
C3243 H3234 0.930 . S
C3243 C3244 1.359 . S
C3243 C3245 1.394 . S
C3244 C3243 1.359 . S
C3244 C3246 1.391 . S
C3244 H3247 0.929 . S
C3245 H3227 0.930 . S
C3245 N3241 1.334 . S
C3245 C3243 1.394 . S
C3246 C3242 1.413 . S
C3246 C3244 1.391 . S
C3246 C3261 1.437 . S
H3247 C3244 0.929 . S
O3248 Gd3204 2.545 . S
O3248 C3263 1.258 . S
O3249 Gd3204 2.606 . S
O3249 Gd3205 2.362 . S
O3249 C3260 1.284 . S
O3250 Gd3205 2.324 . S
O3250 C3270 1.254 . S
O3251 Gd3204 2.429 . S
O3251 C3270 1.268 . S
O3252 Gd3204 2.545 . S
O3252 C3260 1.250 . S
O3253 Gd3204 2.412 . S
O3253 C3263 1.252 . S
O3254 Gd3205 2.545 . S
O3254 C3272 1.258 . S
O3255 Gd3204 2.362 . S
O3255 Gd3205 2.606 . S
O3255 C3271 1.284 . S
O3256 Gd3204 2.324 . S
O3256 C3279 1.254 . S
O3257 Gd3205 2.429 . S
O3257 C3279 1.268 . S
O3258 Gd3205 2.545 . S
O3258 C3271 1.250 . S
O3259 Gd3205 2.412 . S
O3259 C3272 1.252 . S
C3260 O3249 1.284 . S
C3260 O3252 1.250 . S
C3261 H3230 0.929 . S
C3261 C3246 1.437 . S
C3261 C3262 1.317 . S
C3262 H3233 0.930 . S
C3262 C3238 1.431 . S
C3262 C3261 1.317 . S
C3263 Gd3204 2.828 . S
C3263 O3248 1.258 . S
C3263 O3253 1.252 . S
C3263 C3264 1.497 . S
C3264 C3263 1.497 . S
C3264 C3265 1.395 . S
C3264 C3266 1.380 . S
C3265 C3264 1.395 . S
C3265 C3268 1.398 . S
C3265 H3280 0.930 . S
C3266 C3264 1.380 . S
C3266 C3267 1.391 . S
C3266 H3281 0.930 . S
C3267 C3266 1.391 . S
C3267 C3269 1.387 . S
C3268 C3265 1.398 . S
C3268 C3269 1.380 . S
C3268 H3282 0.930 . S
C3269 C3267 1.387 . S
C3269 C3268 1.380 . S
C3269 H3283 0.930 . S
C3270 O3250 1.254 . S
C3270 O3251 1.268 . S
C3271 O3255 1.284 . S
C3271 O3258 1.250 . S
C3272 Gd3205 2.828 . S
C3272 O3254 1.258 . S
C3272 O3259 1.252 . S
C3272 C3273 1.497 . S
C3273 C3272 1.497 . S
C3273 C3274 1.395 . S
C3273 C3275 1.380 . S
C3274 C3273 1.395 . S
C3274 C3277 1.398 . S
C3274 H3284 0.930 . S
C3275 C3273 1.380 . S
C3275 C3276 1.391 . S
C3275 H3285 0.930 . S
C3276 C3275 1.391 . S
C3276 C3278 1.387 . S
C3277 C3274 1.398 . S
C3277 C3278 1.380 . S
C3277 H3286 0.930 . S
C3278 C3276 1.387 . S
C3278 C3277 1.380 . S
C3278 H3287 0.930 . S
C3279 O3256 1.254 . S
C3279 O3257 1.268 . S
H3280 C3265 0.930 . S
H3281 C3266 0.930 . S
H3282 C3268 0.930 . S
H3283 C3269 0.930 . S
H3284 C3274 0.930 . S
H3285 C3275 0.930 . S
H3286 C3277 0.930 . S
H3287 C3278 0.930 . S
Gd3288 N3319 2.661 . S
Gd3288 N3325 2.601 . S
Gd3288 O3332 2.545 . S
Gd3288 O3333 2.606 . S
Gd3288 O3335 2.429 . S
Gd3288 O3336 2.545 . S
Gd3288 O3337 2.412 . S
Gd3288 O3339 2.362 . S
Gd3288 O3340 2.324 . S
Gd3288 C3347 2.828 . S
Gd3289 N3298 2.661 . S
Gd3289 N3302 2.601 . S
Gd3289 O3333 2.362 . S
Gd3289 O3334 2.324 . S
Gd3289 O3338 2.545 . S
Gd3289 O3339 2.606 . S
Gd3289 O3341 2.429 . S
Gd3289 O3342 2.545 . S
Gd3289 O3343 2.412 . S
Gd3289 C3356 2.828 . S
C3290 C3293 1.417 . S
C3290 C3295 1.431 . S
C3290 C3296 1.412 . S
C3291 C3294 1.437 . S
C3291 C3295 1.317 . S
C3291 H3310 0.929 . S
C3292 C3293 1.426 . S
C3292 C3294 1.413 . S
C3292 N3302 1.359 . S
C3293 C3290 1.417 . S
C3293 C3292 1.426 . S
C3293 N3298 1.350 . S
C3294 C3291 1.437 . S
C3294 C3292 1.413 . S
C3294 C3304 1.391 . S
C3295 C3290 1.431 . S
C3295 C3291 1.317 . S
C3295 H3306 0.930 . S
C3296 C3290 1.412 . S
C3296 C3297 1.355 . S
C3296 H3308 0.930 . S
C3297 C3296 1.355 . S
C3297 C3299 1.402 . S
C3297 H3309 0.930 . S
N3298 Gd3289 2.661 . S
N3298 C3293 1.350 . S
N3298 C3299 1.307 . S
C3299 C3297 1.402 . S
C3299 N3298 1.307 . S
C3299 H3300 0.930 . S
H3300 C3299 0.930 . S
C3301 N3302 1.334 . S
C3301 C3303 1.394 . S
C3301 H3305 0.930 . S
N3302 Gd3289 2.601 . S
N3302 C3292 1.359 . S
N3302 C3301 1.334 . S
C3303 C3301 1.394 . S
C3303 C3304 1.359 . S
C3303 H3315 0.930 . S
C3304 C3294 1.391 . S
C3304 C3303 1.359 . S
C3304 H3316 0.929 . S
H3305 C3301 0.930 . S
H3306 C3295 0.930 . S
H3307 C3324 0.930 . S
H3308 C3296 0.930 . S
H3309 C3297 0.930 . S
H3310 C3291 0.929 . S
H3311 C3329 0.930 . S
H3312 C3320 0.930 . S
H3313 C3321 0.930 . S
H3314 C3345 0.929 . S
H3315 C3303 0.930 . S
H3316 C3304 0.929 . S
H3317 C3346 0.930 . S
H3318 C3327 0.930 . S
N3319 Gd3288 2.661 . S
N3319 C3323 1.350 . S
N3319 C3324 1.307 . S
C3320 H3312 0.930 . S
C3320 C3321 1.355 . S
C3320 C3322 1.412 . S
C3321 H3313 0.930 . S
C3321 C3320 1.355 . S
C3321 C3324 1.402 . S
C3322 C3320 1.412 . S
C3322 C3323 1.417 . S
C3322 C3346 1.431 . S
C3323 N3319 1.350 . S
C3323 C3322 1.417 . S
C3323 C3326 1.426 . S
C3324 H3307 0.930 . S
C3324 N3319 1.307 . S
C3324 C3321 1.402 . S
N3325 Gd3288 2.601 . S
N3325 C3326 1.359 . S
N3325 C3329 1.334 . S
C3326 C3323 1.426 . S
C3326 N3325 1.359 . S
C3326 C3330 1.413 . S
C3327 H3318 0.930 . S
C3327 C3328 1.359 . S
C3327 C3329 1.394 . S
C3328 C3327 1.359 . S
C3328 C3330 1.391 . S
C3328 H3331 0.929 . S
C3329 H3311 0.930 . S
C3329 N3325 1.334 . S
C3329 C3327 1.394 . S
C3330 C3326 1.413 . S
C3330 C3328 1.391 . S
C3330 C3345 1.437 . S
H3331 C3328 0.929 . S
O3332 Gd3288 2.545 . S
O3332 C3347 1.258 . S
O3333 Gd3288 2.606 . S
O3333 Gd3289 2.362 . S
O3333 C3344 1.284 . S
O3334 Gd3289 2.324 . S
O3334 C3354 1.254 . S
O3335 Gd3288 2.429 . S
O3335 C3354 1.268 . S
O3336 Gd3288 2.545 . S
O3336 C3344 1.250 . S
O3337 Gd3288 2.412 . S
O3337 C3347 1.252 . S
O3338 Gd3289 2.545 . S
O3338 C3356 1.258 . S
O3339 Gd3288 2.362 . S
O3339 Gd3289 2.606 . S
O3339 C3355 1.284 . S
O3340 Gd3288 2.324 . S
O3340 C3363 1.254 . S
O3341 Gd3289 2.429 . S
O3341 C3363 1.268 . S
O3342 Gd3289 2.545 . S
O3342 C3355 1.250 . S
O3343 Gd3289 2.412 . S
O3343 C3356 1.252 . S
C3344 O3333 1.284 . S
C3344 O3336 1.250 . S
C3345 H3314 0.929 . S
C3345 C3330 1.437 . S
C3345 C3346 1.317 . S
C3346 H3317 0.930 . S
C3346 C3322 1.431 . S
C3346 C3345 1.317 . S
C3347 Gd3288 2.828 . S
C3347 O3332 1.258 . S
C3347 O3337 1.252 . S
C3347 C3348 1.497 . S
C3348 C3347 1.497 . S
C3348 C3349 1.395 . S
C3348 C3350 1.380 . S
C3349 C3348 1.395 . S
C3349 C3352 1.398 . S
C3349 H3364 0.930 . S
C3350 C3348 1.380 . S
C3350 C3351 1.391 . S
C3350 H3365 0.930 . S
C3351 C3350 1.391 . S
C3351 C3353 1.387 . S
C3352 C3349 1.398 . S
C3352 C3353 1.380 . S
C3352 H3366 0.930 . S
C3353 C3351 1.387 . S
C3353 C3352 1.380 . S
C3353 H3367 0.930 . S
C3354 O3334 1.254 . S
C3354 O3335 1.268 . S
C3355 O3339 1.284 . S
C3355 O3342 1.250 . S
C3356 Gd3289 2.828 . S
C3356 O3338 1.258 . S
C3356 O3343 1.252 . S
C3356 C3357 1.497 . S
C3357 C3356 1.497 . S
C3357 C3358 1.395 . S
C3357 C3359 1.380 . S
C3358 C3357 1.395 . S
C3358 C3361 1.398 . S
C3358 H3368 0.930 . S
C3359 C3357 1.380 . S
C3359 C3360 1.391 . S
C3359 H3369 0.930 . S
C3360 C3359 1.391 . S
C3360 C3362 1.387 . S
C3361 C3358 1.398 . S
C3361 C3362 1.380 . S
C3361 H3370 0.930 . S
C3362 C3360 1.387 . S
C3362 C3361 1.380 . S
C3362 H3371 0.930 . S
C3363 O3340 1.254 . S
C3363 O3341 1.268 . S
H3364 C3349 0.930 . S
H3365 C3350 0.930 . S
H3366 C3352 0.930 . S
H3367 C3353 0.930 . S
H3368 C3358 0.930 . S
H3369 C3359 0.930 . S
H3370 C3361 0.930 . S
H3371 C3362 0.930 . S
Gd3372 N3403 2.661 . S
Gd3372 N3409 2.601 . S
Gd3372 O3416 2.545 . S
Gd3372 O3417 2.606 . S
Gd3372 O3419 2.429 . S
Gd3372 O3420 2.545 . S
Gd3372 O3421 2.412 1_455 S
Gd3372 O3423 2.362 . S
Gd3372 O3424 2.324 1_554 S
Gd3372 C3431 2.828 1_455 S
Gd3373 N3382 2.661 . S
Gd3373 N3386 2.601 1_554 S
Gd3373 O3417 2.362 . S
Gd3373 O3418 2.324 . S
Gd3373 O3422 2.545 1_554 S
Gd3373 O3423 2.606 . S
Gd3373 O3425 2.429 1_554 S
Gd3373 O3426 2.545 . S
Gd3373 O3427 2.412 . S
Gd3373 C3440 2.828 1_554 S
C3374 C3377 1.417 . S
C3374 C3379 1.431 . S
C3374 C3380 1.412 . S
C3375 C3378 1.437 . S
C3375 C3379 1.317 1_556 S
C3375 H3394 0.929 . S
C3376 C3377 1.426 1_556 S
C3376 C3378 1.413 . S
C3376 N3386 1.359 . S
C3377 C3374 1.417 . S
C3377 C3376 1.426 1_554 S
C3377 N3382 1.350 . S
C3378 C3375 1.437 . S
C3378 C3376 1.413 . S
C3378 C3388 1.391 . S
C3379 C3374 1.431 . S
C3379 C3375 1.317 1_554 S
C3379 H3390 0.930 . S
C3380 C3374 1.412 . S
C3380 C3381 1.355 . S
C3380 H3392 0.930 . S
C3381 C3380 1.355 . S
C3381 C3383 1.402 . S
C3381 H3393 0.930 . S
N3382 Gd3373 2.661 . S
N3382 C3377 1.350 . S
N3382 C3383 1.307 . S
C3383 C3381 1.402 . S
C3383 N3382 1.307 . S
C3383 H3384 0.930 . S
H3384 C3383 0.930 . S
C3385 N3386 1.334 . S
C3385 C3387 1.394 . S
C3385 H3389 0.930 . S
N3386 Gd3373 2.601 1_556 S
N3386 C3376 1.359 . S
N3386 C3385 1.334 . S
C3387 C3385 1.394 . S
C3387 C3388 1.359 . S
C3387 H3399 0.930 . S
C3388 C3378 1.391 . S
C3388 C3387 1.359 . S
C3388 H3400 0.929 . S
H3389 C3385 0.930 . S
H3390 C3379 0.930 . S
H3391 C3408 0.936 . S
H3392 C3380 0.930 . S
H3393 C3381 0.930 . S
H3394 C3375 0.929 . S
H3395 C3413 0.930 . S
H3396 C3404 0.930 . S
H3397 C3405 0.930 . S
H3398 C3429 0.929 . S
H3399 C3387 0.930 . S
H3400 C3388 0.929 . S
H3401 C3430 0.930 . S
H3402 C3411 0.930 . S
N3403 Gd3372 2.661 . S
N3403 C3407 1.350 1_455 S
N3403 C3408 1.308 1_554 S
C3404 H3396 0.930 . S
C3404 C3405 1.355 . S
C3404 C3406 1.412 1_556 S
C3405 H3397 0.930 . S
C3405 C3404 1.355 . S
C3405 C3408 1.396 1_655 S
C3406 C3404 1.412 1_554 S
C3406 C3407 1.417 . S
C3406 C3430 1.431 . S
C3407 N3403 1.350 1_655 S
C3407 C3406 1.417 . S
C3407 C3410 1.426 . S
C3408 H3391 0.936 . S
C3408 N3403 1.308 1_556 S
C3408 C3405 1.396 1_455 S
N3409 Gd3372 2.601 . S
N3409 C3410 1.359 1_455 S
N3409 C3413 1.334 . S
C3410 C3407 1.426 . S
C3410 N3409 1.359 1_655 S
C3410 C3414 1.413 . S
C3411 H3402 0.930 . S
C3411 C3412 1.359 1_455 S
C3411 C3413 1.394 . S
C3412 C3411 1.359 1_655 S
C3412 C3414 1.391 . S
C3412 H3415 0.929 . S
C3413 H3395 0.930 . S
C3413 N3409 1.334 . S
C3413 C3411 1.394 . S
C3414 C3410 1.413 . S
C3414 C3412 1.391 . S
C3414 C3429 1.437 . S
H3415 C3412 0.929 . S
O3416 Gd3372 2.545 . S
O3416 C3431 1.258 1_455 S
O3417 Gd3372 2.606 . S
O3417 Gd3373 2.362 . S
O3417 C3428 1.284 . S
O3418 Gd3373 2.324 . S
O3418 C3438 1.254 . S
O3419 Gd3372 2.429 . S
O3419 C3438 1.268 . S
O3420 Gd3372 2.545 . S
O3420 C3428 1.250 . S
O3421 Gd3372 2.412 1_655 S
O3421 C3431 1.252 . S
O3422 Gd3373 2.545 1_556 S
O3422 C3440 1.258 . S
O3423 Gd3372 2.362 . S
O3423 Gd3373 2.606 . S
O3423 C3439 1.284 . S
O3424 Gd3372 2.324 1_556 S
O3424 C3447 1.254 . S
O3425 Gd3373 2.429 1_556 S
O3425 C3447 1.268 . S
O3426 Gd3373 2.545 . S
O3426 C3439 1.250 . S
O3427 Gd3373 2.412 . S
O3427 C3440 1.252 1_554 S
C3428 O3417 1.284 . S
C3428 O3420 1.250 . S
C3429 H3398 0.929 . S
C3429 C3414 1.437 . S
C3429 C3430 1.317 . S
C3430 H3401 0.930 . S
C3430 C3406 1.431 . S
C3430 C3429 1.317 . S
C3431 Gd3372 2.828 1_655 S
C3431 O3416 1.258 1_655 S
C3431 O3421 1.252 . S
C3431 C3432 1.497 . S
C3432 C3431 1.497 . S
C3432 C3433 1.395 . S
C3432 C3434 1.380 . S
C3433 C3432 1.395 . S
C3433 C3436 1.398 . S
C3433 H3448 0.930 . S
C3434 C3432 1.380 . S
C3434 C3435 1.391 . S
C3434 H3449 0.930 . S
C3435 C3434 1.391 . S
C3435 C3437 1.387 . S
C3436 C3433 1.398 . S
C3436 C3437 1.380 . S
C3436 H3450 0.930 . S
C3437 C3435 1.387 . S
C3437 C3436 1.380 . S
C3437 H3451 0.930 . S
C3438 O3418 1.254 . S
C3438 O3419 1.268 . S
C3439 O3423 1.284 . S
C3439 O3426 1.250 . S
C3440 Gd3373 2.828 1_556 S
C3440 O3422 1.258 . S
C3440 O3427 1.252 1_556 S
C3440 C3441 1.497 . S
C3441 C3440 1.497 . S
C3441 C3442 1.395 . S
C3441 C3443 1.380 1_556 S
C3442 C3441 1.395 . S
C3442 C3445 1.398 . S
C3442 H3452 0.930 . S
C3443 C3441 1.380 1_554 S
C3443 C3444 1.398 . S
C3443 H3453 0.930 . S
C3444 C3443 1.398 . S
C3444 C3446 1.351 1_554 S
C3445 C3442 1.398 . S
C3445 C3446 1.380 . S
C3445 H3454 0.930 . S
C3446 C3444 1.351 1_556 S
C3446 C3445 1.380 . S
C3446 H3455 0.930 . S
C3447 O3424 1.254 . S
C3447 O3425 1.268 . S
H3448 C3433 0.930 . S
H3449 C3434 0.930 . S
H3450 C3436 0.930 . S
H3451 C3437 0.930 . S
H3452 C3442 0.930 . S
H3453 C3443 0.930 . S
H3454 C3445 0.930 . S
H3455 C3446 0.930 . S
H3456 C3462 0.930 1_655 S
H3457 C3466 0.923 1_556 S
H3458 C3471 0.929 . S
H3459 C3469 0.929 . S
H3460 C3464 0.943 . S
H3461 C3470 0.929 . S
C3462 H3456 0.930 1_455 S
C3462 C3463 1.367 1_554 S
C3462 C3470 1.378 . S
C3463 C3462 1.367 1_556 S
C3463 C3471 1.433 . S
C3464 H3460 0.943 . S
C3464 C3466 1.370 1_556 S
C3464 C3468 1.343 1_556 S
C3465 C3468 1.463 . S
C3465 C3470 1.350 . S
C3465 N3473 1.427 1_554 S
C3466 H3457 0.923 1_554 S
C3466 C3464 1.370 1_554 S
C3466 C3467 1.367 . S
C3467 C3466 1.367 . S
C3467 C3469 1.433 . S
C3468 C3464 1.343 1_554 S
C3468 C3465 1.463 . S
C3468 N3472 1.427 . S
C3469 H3459 0.929 . S
C3469 C3467 1.433 . S
C3469 N3472 1.384 . S
C3470 H3461 0.929 . S
C3470 C3462 1.378 . S
C3470 C3465 1.350 . S
C3471 H3458 0.929 . S
C3471 C3463 1.433 . S
C3471 N3473 1.384 . S
N3472 C3468 1.427 . S
N3472 C3469 1.384 . S
N3473 C3465 1.427 1_556 S
N3473 C3471 1.384 . S
H3474 C3480 0.930 . S
H3475 C3484 0.930 . S
H3476 C3489 0.929 . S
H3477 C3487 0.929 . S
H3478 C3482 0.929 . S
H3479 C3488 0.929 . S
C3480 H3474 0.930 . S
C3480 C3481 1.367 . S
C3480 C3488 1.378 . S
C3481 C3480 1.367 . S
C3481 C3489 1.433 . S
C3482 H3478 0.929 . S
C3482 C3484 1.378 . S
C3482 C3486 1.350 . S
C3483 C3486 1.463 . S
C3483 C3488 1.350 . S
C3483 N3491 1.427 . S
C3484 H3475 0.930 . S
C3484 C3482 1.378 . S
C3484 C3485 1.367 . S
C3485 C3484 1.367 . S
C3485 C3487 1.433 . S
C3486 C3482 1.350 . S
C3486 C3483 1.463 . S
C3486 N3490 1.427 . S
C3487 H3477 0.929 . S
C3487 C3485 1.433 . S
C3487 N3490 1.384 . S
C3488 H3479 0.929 . S
C3488 C3480 1.378 . S
C3488 C3483 1.350 . S
C3489 H3476 0.929 . S
C3489 C3481 1.433 . S
C3489 N3491 1.384 . S
N3490 C3486 1.427 . S
N3490 C3487 1.384 . S
N3491 C3483 1.427 . S
N3491 C3489 1.384 . S
H3492 C3498 0.930 . S
H3493 C3502 0.930 . S
H3494 C3507 0.929 . S
H3495 C3505 0.929 . S
H3496 C3500 0.929 . S
H3497 C3506 0.929 . S
C3498 H3492 0.930 . S
C3498 C3499 1.367 . S
C3498 C3506 1.378 . S
C3499 C3498 1.367 . S
C3499 C3507 1.433 . S
C3500 H3496 0.929 . S
C3500 C3502 1.378 . S
C3500 C3504 1.350 . S
C3501 C3504 1.463 . S
C3501 C3506 1.350 . S
C3501 N3509 1.427 . S
C3502 H3493 0.930 . S
C3502 C3500 1.378 . S
C3502 C3503 1.367 . S
C3503 C3502 1.367 . S
C3503 C3505 1.433 . S
C3504 C3500 1.350 . S
C3504 C3501 1.463 . S
C3504 N3508 1.427 . S
C3505 H3495 0.929 . S
C3505 C3503 1.433 . S
C3505 N3508 1.384 . S
C3506 H3497 0.929 . S
C3506 C3498 1.378 . S
C3506 C3501 1.350 . S
C3507 H3494 0.929 . S
C3507 C3499 1.433 . S
C3507 N3509 1.384 . S
N3508 C3504 1.427 . S
N3508 C3505 1.384 . S
N3509 C3501 1.427 . S
N3509 C3507 1.384 . S
H3510 C3516 0.930 . S
H3511 C3520 0.930 . S
H3512 C3525 0.929 . S
H3513 C3523 0.929 . S
H3514 C3518 0.929 . S
H3515 C3524 0.929 . S
C3516 H3510 0.930 . S
C3516 C3517 1.367 . S
C3516 C3524 1.378 . S
C3517 C3516 1.367 . S
C3517 C3525 1.433 . S
C3518 H3514 0.929 . S
C3518 C3520 1.378 . S
C3518 C3522 1.350 . S
C3519 C3522 1.463 . S
C3519 C3524 1.350 . S
C3519 N3527 1.427 . S
C3520 H3511 0.930 . S
C3520 C3518 1.378 . S
C3520 C3521 1.367 . S
C3521 C3520 1.367 . S
C3521 C3523 1.433 . S
C3522 C3518 1.350 . S
C3522 C3519 1.463 . S
C3522 N3526 1.427 . S
C3523 H3513 0.929 . S
C3523 C3521 1.433 . S
C3523 N3526 1.384 . S
C3524 H3515 0.929 . S
C3524 C3516 1.378 . S
C3524 C3519 1.350 . S
C3525 H3512 0.929 . S
C3525 C3517 1.433 . S
C3525 N3527 1.384 . S
N3526 C3522 1.427 . S
N3526 C3523 1.384 . S
N3527 C3519 1.427 . S
N3527 C3525 1.384 . S
H3528 C3534 0.930 . S
H3529 C3538 0.930 . S
H3530 C3543 0.929 . S
H3531 C3541 0.929 . S
H3532 C3536 0.929 . S
H3533 C3542 0.929 . S
C3534 H3528 0.930 . S
C3534 C3535 1.367 . S
C3534 C3542 1.378 . S
C3535 C3534 1.367 . S
C3535 C3543 1.433 . S
C3536 H3532 0.929 . S
C3536 C3538 1.378 . S
C3536 C3540 1.350 . S
C3537 C3540 1.463 . S
C3537 C3542 1.350 . S
C3537 N3545 1.427 . S
C3538 H3529 0.930 . S
C3538 C3536 1.378 . S
C3538 C3539 1.367 . S
C3539 C3538 1.367 . S
C3539 C3541 1.433 . S
C3540 C3536 1.350 . S
C3540 C3537 1.463 . S
C3540 N3544 1.427 . S
C3541 H3531 0.929 . S
C3541 C3539 1.433 . S
C3541 N3544 1.384 . S
C3542 H3533 0.929 . S
C3542 C3534 1.378 . S
C3542 C3537 1.350 . S
C3543 H3530 0.929 . S
C3543 C3535 1.433 . S
C3543 N3545 1.384 . S
N3544 C3540 1.427 . S
N3544 C3541 1.384 . S
N3545 C3537 1.427 . S
N3545 C3543 1.384 . S
H3546 C3552 0.930 . S
H3547 C3556 0.930 . S
H3548 C3561 0.929 . S
H3549 C3559 0.929 . S
H3550 C3554 0.929 . S
H3551 C3560 0.929 . S
C3552 H3546 0.930 . S
C3552 C3553 1.367 . S
C3552 C3560 1.378 . S
C3553 C3552 1.367 . S
C3553 C3561 1.433 . S
C3554 H3550 0.929 . S
C3554 C3556 1.378 . S
C3554 C3558 1.350 . S
C3555 C3558 1.463 . S
C3555 C3560 1.350 . S
C3555 N3563 1.427 . S
C3556 H3547 0.930 . S
C3556 C3554 1.378 . S
C3556 C3557 1.367 . S
C3557 C3556 1.367 . S
C3557 C3559 1.433 . S
C3558 C3554 1.350 . S
C3558 C3555 1.463 . S
C3558 N3562 1.427 . S
C3559 H3549 0.929 . S
C3559 C3557 1.433 . S
C3559 N3562 1.384 . S
C3560 H3551 0.929 . S
C3560 C3552 1.378 . S
C3560 C3555 1.350 . S
C3561 H3548 0.929 . S
C3561 C3553 1.433 . S
C3561 N3563 1.384 . S
N3562 C3558 1.427 . S
N3562 C3559 1.384 . S
N3563 C3555 1.427 . S
N3563 C3561 1.384 . S
H3564 C3570 0.930 . S
H3565 C3574 0.930 . S
H3566 C3579 0.929 . S
H3567 C3577 0.929 . S
H3568 C3572 0.929 . S
H3569 C3578 0.929 . S
C3570 H3564 0.930 . S
C3570 C3571 1.367 . S
C3570 C3578 1.378 . S
C3571 C3570 1.367 . S
C3571 C3579 1.433 . S
C3572 H3568 0.929 . S
C3572 C3574 1.378 . S
C3572 C3576 1.350 . S
C3573 C3576 1.463 . S
C3573 C3578 1.350 . S
C3573 N3581 1.427 . S
C3574 H3565 0.930 . S
C3574 C3572 1.378 . S
C3574 C3575 1.367 . S
C3575 C3574 1.367 . S
C3575 C3577 1.433 . S
C3576 C3572 1.350 . S
C3576 C3573 1.463 . S
C3576 N3580 1.427 . S
C3577 H3567 0.929 . S
C3577 C3575 1.433 . S
C3577 N3580 1.384 . S
C3578 H3569 0.929 . S
C3578 C3570 1.378 . S
C3578 C3573 1.350 . S
C3579 H3566 0.929 . S
C3579 C3571 1.433 . S
C3579 N3581 1.384 . S
N3580 C3576 1.427 . S
N3580 C3577 1.384 . S
N3581 C3573 1.427 . S
N3581 C3579 1.384 . S
H3582 C3588 0.930 . S
H3583 C3592 0.930 . S
H3584 C3597 0.929 . S
H3585 C3595 0.929 . S
H3586 C3590 0.929 . S
H3587 C3596 0.929 . S
C3588 H3582 0.930 . S
C3588 C3589 1.367 . S
C3588 C3596 1.378 . S
C3589 C3588 1.367 . S
C3589 C3597 1.433 . S
C3590 H3586 0.929 . S
C3590 C3592 1.378 . S
C3590 C3594 1.350 . S
C3591 C3594 1.463 . S
C3591 C3596 1.350 . S
C3591 N3599 1.427 . S
C3592 H3583 0.930 . S
C3592 C3590 1.378 . S
C3592 C3593 1.367 . S
C3593 C3592 1.367 . S
C3593 C3595 1.433 . S
C3594 C3590 1.350 . S
C3594 C3591 1.463 . S
C3594 N3598 1.427 . S
C3595 H3585 0.929 . S
C3595 C3593 1.433 . S
C3595 N3598 1.384 . S
C3596 H3587 0.929 . S
C3596 C3588 1.378 . S
C3596 C3591 1.350 . S
C3597 H3584 0.929 . S
C3597 C3589 1.433 . S
C3597 N3599 1.384 . S
N3598 C3594 1.427 . S
N3598 C3595 1.384 . S
N3599 C3591 1.427 . S
N3599 C3597 1.384 . S
H3600 C3606 0.930 . S
H3601 C3610 0.930 . S
H3602 C3615 0.929 . S
H3603 C3613 0.929 . S
H3604 C3608 0.929 . S
H3605 C3614 0.929 . S
C3606 H3600 0.930 . S
C3606 C3607 1.364 1_655 S
C3606 C3614 1.378 . S
C3607 C3606 1.364 1_455 S
C3607 C3615 1.438 . S
C3608 H3604 0.929 . S
C3608 C3610 1.378 . S
C3608 C3612 1.350 . S
C3609 C3612 1.463 . S
C3609 C3614 1.350 1_455 S
C3609 N3617 1.427 . S
C3610 H3601 0.930 . S
C3610 C3608 1.378 . S
C3610 C3611 1.367 . S
C3611 C3610 1.367 . S
C3611 C3613 1.433 . S
C3612 C3608 1.350 . S
C3612 C3609 1.463 . S
C3612 N3616 1.427 . S
C3613 H3603 0.929 . S
C3613 C3611 1.433 . S
C3613 N3616 1.384 . S
C3614 H3605 0.929 . S
C3614 C3606 1.378 . S
C3614 C3609 1.350 1_655 S
C3615 H3602 0.929 . S
C3615 C3607 1.438 . S
C3615 N3617 1.384 . S
N3616 C3612 1.427 . S
N3616 C3613 1.384 . S
N3617 C3609 1.427 . S
N3617 C3615 1.384 . S
H3618 C3624 0.930 . S
H3619 C3628 0.930 . S
H3620 C3633 0.929 . S
H3621 C3631 0.929 . S
H3622 C3626 0.929 . S
H3623 C3632 0.929 . S
C3624 H3618 0.930 . S
C3624 C3625 1.367 . S
C3624 C3632 1.378 . S
C3625 C3624 1.367 . S
C3625 C3633 1.433 . S
C3626 H3622 0.929 . S
C3626 C3628 1.378 . S
C3626 C3630 1.350 . S
C3627 C3630 1.463 . S
C3627 C3632 1.350 . S
C3627 N3635 1.427 . S
C3628 H3619 0.930 . S
C3628 C3626 1.378 . S
C3628 C3629 1.367 . S
C3629 C3628 1.367 . S
C3629 C3631 1.433 . S
C3630 C3626 1.350 . S
C3630 C3627 1.463 . S
C3630 N3634 1.427 . S
C3631 H3621 0.929 . S
C3631 C3629 1.433 . S
C3631 N3634 1.384 . S
C3632 H3623 0.929 . S
C3632 C3624 1.378 . S
C3632 C3627 1.350 . S
C3633 H3620 0.929 . S
C3633 C3625 1.433 . S
C3633 N3635 1.384 . S
N3634 C3630 1.427 . S
N3634 C3631 1.384 . S
N3635 C3627 1.427 . S
N3635 C3633 1.384 . S
H3636 C3642 0.930 . S
H3637 C3646 0.930 . S
H3638 C3651 0.929 . S
H3639 C3649 0.929 . S
H3640 C3644 0.929 . S
H3641 C3650 0.929 . S
C3642 H3636 0.930 . S
C3642 C3643 1.367 . S
C3642 C3650 1.378 . S
C3643 C3642 1.367 . S
C3643 C3651 1.433 . S
C3644 H3640 0.929 . S
C3644 C3646 1.378 . S
C3644 C3648 1.350 . S
C3645 C3648 1.463 . S
C3645 C3650 1.350 . S
C3645 N3653 1.427 . S
C3646 H3637 0.930 . S
C3646 C3644 1.378 . S
C3646 C3647 1.367 . S
C3647 C3646 1.367 . S
C3647 C3649 1.433 . S
C3648 C3644 1.350 . S
C3648 C3645 1.463 . S
C3648 N3652 1.427 . S
C3649 H3639 0.929 . S
C3649 C3647 1.433 . S
C3649 N3652 1.384 . S
C3650 H3641 0.929 . S
C3650 C3642 1.378 . S
C3650 C3645 1.350 . S
C3651 H3638 0.929 . S
C3651 C3643 1.433 . S
C3651 N3653 1.384 . S
N3652 C3648 1.427 . S
N3652 C3649 1.384 . S
N3653 C3645 1.427 . S
N3653 C3651 1.384 . S
H3654 C3660 0.930 . S
H3655 C3664 0.930 . S
H3656 C3669 0.929 . S
H3657 C3667 0.929 . S
H3658 C3662 0.929 . S
H3659 C3668 0.929 . S
C3660 H3654 0.930 . S
C3660 C3661 1.367 . S
C3660 C3668 1.378 . S
C3661 C3660 1.367 . S
C3661 C3669 1.433 . S
C3662 H3658 0.929 . S
C3662 C3664 1.378 . S
C3662 C3666 1.350 . S
C3663 C3666 1.463 . S
C3663 C3668 1.350 . S
C3663 N3671 1.427 . S
C3664 H3655 0.930 . S
C3664 C3662 1.378 . S
C3664 C3665 1.367 . S
C3665 C3664 1.367 . S
C3665 C3667 1.433 . S
C3666 C3662 1.350 . S
C3666 C3663 1.463 . S
C3666 N3670 1.427 . S
C3667 H3657 0.929 . S
C3667 C3665 1.433 . S
C3667 N3670 1.384 . S
C3668 H3659 0.929 . S
C3668 C3660 1.378 . S
C3668 C3663 1.350 . S
C3669 H3656 0.929 . S
C3669 C3661 1.433 . S
C3669 N3671 1.384 . S
N3670 C3666 1.427 . S
N3670 C3667 1.384 . S
N3671 C3663 1.427 . S
N3671 C3669 1.384 . S
H3672 C3678 0.930 . S
H3673 C3682 0.930 . S
H3674 C3687 0.929 . S
H3675 C3685 0.929 . S
H3676 C3680 0.929 . S
H3677 C3686 0.929 . S
C3678 H3672 0.930 . S
C3678 C3679 1.367 . S
C3678 C3686 1.378 . S
C3679 C3678 1.367 . S
C3679 C3687 1.433 . S
C3680 H3676 0.929 . S
C3680 C3682 1.378 . S
C3680 C3684 1.350 . S
C3681 C3684 1.463 . S
C3681 C3686 1.350 . S
C3681 N3689 1.427 . S
C3682 H3673 0.930 . S
C3682 C3680 1.378 . S
C3682 C3683 1.367 . S
C3683 C3682 1.367 . S
C3683 C3685 1.433 . S
C3684 C3680 1.350 . S
C3684 C3681 1.463 . S
C3684 N3688 1.427 . S
C3685 H3675 0.929 . S
C3685 C3683 1.433 . S
C3685 N3688 1.384 . S
C3686 H3677 0.929 . S
C3686 C3678 1.378 . S
C3686 C3681 1.350 . S
C3687 H3674 0.929 . S
C3687 C3679 1.433 . S
C3687 N3689 1.384 . S
N3688 C3684 1.427 . S
N3688 C3685 1.384 . S
N3689 C3681 1.427 . S
N3689 C3687 1.384 . S
H3690 C3696 0.930 . S
H3691 C3700 0.930 . S
H3692 C3705 0.929 . S
H3693 C3703 0.929 . S
H3694 C3698 0.929 . S
H3695 C3704 0.929 . S
C3696 H3690 0.930 . S
C3696 C3697 1.367 . S
C3696 C3704 1.378 . S
C3697 C3696 1.367 . S
C3697 C3705 1.433 . S
C3698 H3694 0.929 . S
C3698 C3700 1.378 . S
C3698 C3702 1.350 . S
C3699 C3702 1.463 . S
C3699 C3704 1.350 . S
C3699 N3707 1.427 . S
C3700 H3691 0.930 . S
C3700 C3698 1.378 . S
C3700 C3701 1.367 . S
C3701 C3700 1.367 . S
C3701 C3703 1.433 . S
C3702 C3698 1.350 . S
C3702 C3699 1.463 . S
C3702 N3706 1.427 . S
C3703 H3693 0.929 . S
C3703 C3701 1.433 . S
C3703 N3706 1.384 . S
C3704 H3695 0.929 . S
C3704 C3696 1.378 . S
C3704 C3699 1.350 . S
C3705 H3692 0.929 . S
C3705 C3697 1.433 . S
C3705 N3707 1.384 . S
N3706 C3702 1.427 . S
N3706 C3703 1.384 . S
N3707 C3699 1.427 . S
N3707 C3705 1.384 . S
H3708 C3714 0.930 . S
H3709 C3718 0.930 . S
H3710 C3723 0.929 . S
H3711 C3721 0.929 . S
H3712 C3716 0.929 . S
H3713 C3722 0.929 . S
C3714 H3708 0.930 . S
C3714 C3715 1.367 . S
C3714 C3722 1.378 . S
C3715 C3714 1.367 . S
C3715 C3723 1.433 . S
C3716 H3712 0.929 . S
C3716 C3718 1.378 . S
C3716 C3720 1.350 . S
C3717 C3720 1.463 . S
C3717 C3722 1.350 . S
C3717 N3725 1.427 . S
C3718 H3709 0.930 . S
C3718 C3716 1.378 . S
C3718 C3719 1.367 . S
C3719 C3718 1.367 . S
C3719 C3721 1.433 . S
C3720 C3716 1.350 . S
C3720 C3717 1.463 . S
C3720 N3724 1.427 . S
C3721 H3711 0.929 . S
C3721 C3719 1.433 . S
C3721 N3724 1.384 . S
C3722 H3713 0.929 . S
C3722 C3714 1.378 . S
C3722 C3717 1.350 . S
C3723 H3710 0.929 . S
C3723 C3715 1.433 . S
C3723 N3725 1.384 . S
N3724 C3720 1.427 . S
N3724 C3721 1.384 . S
N3725 C3717 1.427 . S
N3725 C3723 1.384 . S
H3726 C3732 0.930 . S
H3727 C3736 0.930 . S
H3728 C3741 0.929 . S
H3729 C3739 0.929 . S
H3730 C3734 0.929 . S
H3731 C3740 0.929 . S
C3732 H3726 0.930 . S
C3732 C3733 1.367 . S
C3732 C3740 1.378 . S
C3733 C3732 1.367 . S
C3733 C3741 1.433 . S
C3734 H3730 0.929 . S
C3734 C3736 1.378 . S
C3734 C3738 1.350 . S
C3735 C3738 1.463 . S
C3735 C3740 1.350 . S
C3735 N3743 1.427 . S
C3736 H3727 0.930 . S
C3736 C3734 1.378 . S
C3736 C3737 1.367 . S
C3737 C3736 1.367 . S
C3737 C3739 1.433 . S
C3738 C3734 1.350 . S
C3738 C3735 1.463 . S
C3738 N3742 1.427 . S
C3739 H3729 0.929 . S
C3739 C3737 1.433 . S
C3739 N3742 1.384 . S
C3740 H3731 0.929 . S
C3740 C3732 1.378 . S
C3740 C3735 1.350 . S
C3741 H3728 0.929 . S
C3741 C3733 1.433 . S
C3741 N3743 1.384 . S
N3742 C3738 1.427 . S
N3742 C3739 1.384 . S
N3743 C3735 1.427 . S
N3743 C3741 1.384 . S
H3744 C3750 0.930 . S
H3745 C3754 0.930 . S
H3746 C3759 0.929 1_546 S
H3747 C3757 0.950 . S
H3748 C3752 0.929 . S
H3749 C3758 0.929 . S
C3750 H3744 0.930 . S
C3750 C3751 1.367 . S
C3750 C3758 1.378 . S
C3751 C3750 1.367 . S
C3751 C3759 1.433 . S
C3752 H3748 0.929 . S
C3752 C3754 1.378 . S
C3752 C3756 1.350 . S
C3753 C3756 1.463 1_565 S
C3753 C3758 1.350 . S
C3753 N3761 1.427 1_565 S
C3754 H3745 0.930 . S
C3754 C3752 1.378 . S
C3754 C3755 1.367 . S
C3755 C3754 1.367 . S
C3755 C3757 1.386 1_545 S
C3756 C3752 1.350 . S
C3756 C3753 1.463 1_545 S
C3756 N3760 1.427 1_545 S
C3757 H3747 0.950 . S
C3757 C3755 1.386 1_565 S
C3757 N3760 1.412 . S
C3758 H3749 0.929 . S
C3758 C3750 1.378 . S
C3758 C3753 1.350 . S
C3759 H3746 0.929 1_564 S
C3759 C3751 1.433 . S
C3759 N3761 1.384 1_565 S
N3760 C3756 1.427 1_565 S
N3760 C3757 1.412 . S
N3761 C3753 1.427 1_545 S
N3761 C3759 1.384 1_545 S
H3762 C3768 0.930 . S
H3763 C3772 0.930 . S
H3764 C3777 0.929 . S
H3765 C3775 0.929 . S
H3766 C3770 0.929 . S
H3767 C3776 0.929 . S
C3768 H3762 0.930 . S
C3768 C3769 1.367 . S
C3768 C3776 1.378 . S
C3769 C3768 1.367 . S
C3769 C3777 1.433 1_556 S
C3770 H3766 0.929 . S
C3770 C3772 1.378 . S
C3770 C3774 1.350 1_554 S
C3771 C3774 1.463 . S
C3771 C3776 1.350 . S
C3771 N3779 1.427 1_556 S
C3772 H3763 0.930 . S
C3772 C3770 1.378 . S
C3772 C3773 1.367 . S
C3773 C3772 1.367 . S
C3773 C3775 1.433 1_554 S
C3774 C3770 1.350 1_556 S
C3774 C3771 1.463 . S
C3774 N3778 1.427 . S
C3775 H3765 0.929 . S
C3775 C3773 1.433 1_556 S
C3775 N3778 1.384 . S
C3776 H3767 0.929 . S
C3776 C3768 1.378 . S
C3776 C3771 1.350 . S
C3777 H3764 0.929 . S
C3777 C3769 1.433 1_554 S
C3777 N3779 1.384 . S
N3778 C3774 1.427 . S
N3778 C3775 1.384 . S
N3779 C3771 1.427 1_554 S
N3779 C3777 1.384 . S
H3780 C3786 0.930 . S
H3781 C3790 0.930 . S
H3782 C3795 0.929 . S
H3783 C3793 0.929 . S
H3784 C3788 0.929 . S
H3785 C3794 0.929 . S
C3786 H3780 0.930 . S
C3786 C3787 1.367 . S
C3786 C3794 1.378 . S
C3787 C3786 1.367 . S
C3787 C3795 1.433 . S
C3788 H3784 0.929 . S
C3788 C3790 1.378 . S
C3788 C3792 1.350 . S
C3789 C3792 1.463 . S
C3789 C3794 1.350 . S
C3789 N3797 1.427 . S
C3790 H3781 0.930 . S
C3790 C3788 1.378 . S
C3790 C3791 1.367 . S
C3791 C3790 1.367 . S
C3791 C3793 1.433 . S
C3792 C3788 1.350 . S
C3792 C3789 1.463 . S
C3792 N3796 1.427 . S
C3793 H3783 0.929 . S
C3793 C3791 1.433 . S
C3793 N3796 1.384 . S
C3794 H3785 0.929 . S
C3794 C3786 1.378 . S
C3794 C3789 1.350 . S
C3795 H3782 0.929 . S
C3795 C3787 1.433 . S
C3795 N3797 1.384 . S
N3796 C3792 1.427 . S
N3796 C3793 1.384 . S
N3797 C3789 1.427 . S
N3797 C3795 1.384 . S
H3798 C3804 0.930 . S
H3799 C3808 0.930 . S
H3800 C3813 0.929 . S
H3801 C3811 0.941 . S
H3802 C3806 0.929 . S
H3803 C3812 0.929 . S
C3804 H3798 0.930 . S
C3804 C3805 1.367 . S
C3804 C3812 1.378 . S
C3805 C3804 1.367 . S
C3805 C3813 1.433 . S
C3806 H3802 0.929 . S
C3806 C3808 1.378 1_655 S
C3806 C3810 1.350 . S
C3807 C3810 1.463 . S
C3807 C3812 1.350 . S
C3807 N3815 1.427 . S
C3808 H3799 0.930 . S
C3808 C3806 1.378 1_455 S
C3808 C3809 1.367 . S
C3809 C3808 1.367 . S
C3809 C3811 1.444 . S
C3810 C3806 1.350 . S
C3810 C3807 1.463 . S
C3810 N3814 1.427 . S
C3811 H3801 0.941 . S
C3811 C3809 1.444 . S
C3811 N3814 1.361 1_455 S
C3812 H3803 0.929 . S
C3812 C3804 1.378 . S
C3812 C3807 1.350 . S
C3813 H3800 0.929 . S
C3813 C3805 1.433 . S
C3813 N3815 1.384 . S
N3814 C3810 1.427 . S
N3814 C3811 1.361 1_655 S
N3815 C3807 1.427 . S
N3815 C3813 1.384 . S
H3816 C3822 0.930 . S
H3817 C3826 0.930 . S
H3818 C3831 0.929 . S
H3819 C3829 0.929 . S
H3820 C3824 0.929 . S
H3821 C3830 0.929 . S
C3822 H3816 0.930 . S
C3822 C3823 1.367 . S
C3822 C3830 1.378 . S
C3823 C3822 1.367 . S
C3823 C3831 1.433 . S
C3824 H3820 0.929 . S
C3824 C3826 1.378 . S
C3824 C3828 1.350 . S
C3825 C3828 1.463 . S
C3825 C3830 1.350 . S
C3825 N3833 1.427 . S
C3826 H3817 0.930 . S
C3826 C3824 1.378 . S
C3826 C3827 1.367 . S
C3827 C3826 1.367 . S
C3827 C3829 1.433 . S
C3828 C3824 1.350 . S
C3828 C3825 1.463 . S
C3828 N3832 1.427 . S
C3829 H3819 0.929 . S
C3829 C3827 1.433 . S
C3829 N3832 1.384 . S
C3830 H3821 0.929 . S
C3830 C3822 1.378 . S
C3830 C3825 1.350 . S
C3831 H3818 0.929 . S
C3831 C3823 1.433 . S
C3831 N3833 1.384 . S
N3832 C3828 1.427 . S
N3832 C3829 1.384 . S
N3833 C3825 1.427 . S
N3833 C3831 1.384 . S
H3834 C3840 0.930 . S
H3835 C3844 0.930 . S
H3836 C3849 0.929 . S
H3837 C3847 0.929 . S
H3838 C3842 0.929 . S
H3839 C3848 0.929 . S
C3840 H3834 0.930 . S
C3840 C3841 1.367 . S
C3840 C3848 1.378 . S
C3841 C3840 1.367 . S
C3841 C3849 1.433 . S
C3842 H3838 0.929 . S
C3842 C3844 1.378 . S
C3842 C3846 1.350 . S
C3843 C3846 1.463 . S
C3843 C3848 1.350 . S
C3843 N3851 1.427 . S
C3844 H3835 0.930 . S
C3844 C3842 1.378 . S
C3844 C3845 1.367 . S
C3845 C3844 1.367 . S
C3845 C3847 1.433 . S
C3846 C3842 1.350 . S
C3846 C3843 1.463 . S
C3846 N3850 1.427 . S
C3847 H3837 0.929 . S
C3847 C3845 1.433 . S
C3847 N3850 1.384 . S
C3848 H3839 0.929 . S
C3848 C3840 1.378 . S
C3848 C3843 1.350 . S
C3849 H3836 0.929 . S
C3849 C3841 1.433 . S
C3849 N3851 1.384 . S
N3850 C3846 1.427 . S
N3850 C3847 1.384 . S
N3851 C3843 1.427 . S
N3851 C3849 1.384 . S
H3852 C3858 0.930 . S
H3853 C3862 0.930 . S
H3854 C3867 0.929 . S
H3855 C3865 0.929 . S
H3856 C3860 0.929 . S
H3857 C3866 0.929 . S
C3858 H3852 0.930 . S
C3858 C3859 1.367 . S
C3858 C3866 1.378 . S
C3859 C3858 1.367 . S
C3859 C3867 1.433 . S
C3860 H3856 0.929 . S
C3860 C3862 1.378 . S
C3860 C3864 1.350 . S
C3861 C3864 1.463 . S
C3861 C3866 1.350 . S
C3861 N3869 1.427 . S
C3862 H3853 0.930 . S
C3862 C3860 1.378 . S
C3862 C3863 1.367 . S
C3863 C3862 1.367 . S
C3863 C3865 1.433 . S
C3864 C3860 1.350 . S
C3864 C3861 1.463 . S
C3864 N3868 1.427 . S
C3865 H3855 0.929 . S
C3865 C3863 1.433 . S
C3865 N3868 1.384 . S
C3866 H3857 0.929 . S
C3866 C3858 1.378 . S
C3866 C3861 1.350 . S
C3867 H3854 0.929 . S
C3867 C3859 1.433 . S
C3867 N3869 1.384 . S
N3868 C3864 1.427 . S
N3868 C3865 1.384 . S
N3869 C3861 1.427 . S
N3869 C3867 1.384 . S
H3870 C3876 0.930 . S
H3871 C3880 0.930 . S
H3872 C3885 0.929 . S
H3873 C3883 0.929 . S
H3874 C3878 0.929 . S
H3875 C3884 0.929 . S
C3876 H3870 0.930 . S
C3876 C3877 1.367 . S
C3876 C3884 1.378 . S
C3877 C3876 1.367 . S
C3877 C3885 1.433 . S
C3878 H3874 0.929 . S
C3878 C3880 1.378 . S
C3878 C3882 1.350 . S
C3879 C3882 1.463 . S
C3879 C3884 1.350 . S
C3879 N3887 1.427 . S
C3880 H3871 0.930 . S
C3880 C3878 1.378 . S
C3880 C3881 1.367 . S
C3881 C3880 1.367 . S
C3881 C3883 1.433 . S
C3882 C3878 1.350 . S
C3882 C3879 1.463 . S
C3882 N3886 1.427 . S
C3883 H3873 0.929 . S
C3883 C3881 1.433 . S
C3883 N3886 1.384 . S
C3884 H3875 0.929 . S
C3884 C3876 1.378 . S
C3884 C3879 1.350 . S
C3885 H3872 0.929 . S
C3885 C3877 1.433 . S
C3885 N3887 1.384 . S
N3886 C3882 1.427 . S
N3886 C3883 1.384 . S
N3887 C3879 1.427 . S
N3887 C3885 1.384 . S
H3888 C3894 0.930 . S
H3889 C3898 0.930 . S
H3890 C3903 0.929 . S
H3891 C3901 0.929 . S
H3892 C3896 0.929 . S
H3893 C3902 0.929 . S
C3894 H3888 0.930 . S
C3894 C3895 1.367 . S
C3894 C3902 1.378 . S
C3895 C3894 1.367 . S
C3895 C3903 1.433 . S
C3896 H3892 0.929 . S
C3896 C3898 1.378 . S
C3896 C3900 1.350 . S
C3897 C3900 1.463 . S
C3897 C3902 1.350 . S
C3897 N3905 1.427 . S
C3898 H3889 0.930 . S
C3898 C3896 1.378 . S
C3898 C3899 1.367 . S
C3899 C3898 1.367 . S
C3899 C3901 1.433 . S
C3900 C3896 1.350 . S
C3900 C3897 1.463 . S
C3900 N3904 1.427 . S
C3901 H3891 0.929 . S
C3901 C3899 1.433 . S
C3901 N3904 1.384 . S
C3902 H3893 0.929 . S
C3902 C3894 1.378 . S
C3902 C3897 1.350 . S
C3903 H3890 0.929 . S
C3903 C3895 1.433 . S
C3903 N3905 1.384 . S
N3904 C3900 1.427 . S
N3904 C3901 1.384 . S
N3905 C3897 1.427 . S
N3905 C3903 1.384 . S
H3906 C3912 0.930 . S
H3907 C3916 0.930 . S
H3908 C3921 0.929 . S
H3909 C3919 0.929 . S
H3910 C3914 0.929 . S
H3911 C3920 0.929 . S
C3912 H3906 0.930 . S
C3912 C3913 1.367 . S
C3912 C3920 1.378 . S
C3913 C3912 1.367 . S
C3913 C3921 1.433 . S
C3914 H3910 0.929 . S
C3914 C3916 1.378 . S
C3914 C3918 1.350 . S
C3915 C3918 1.463 . S
C3915 C3920 1.350 . S
C3915 N3923 1.427 . S
C3916 H3907 0.930 . S
C3916 C3914 1.378 . S
C3916 C3917 1.367 . S
C3917 C3916 1.367 . S
C3917 C3919 1.433 . S
C3918 C3914 1.350 . S
C3918 C3915 1.463 . S
C3918 N3922 1.427 . S
C3919 H3909 0.929 . S
C3919 C3917 1.433 . S
C3919 N3922 1.384 . S
C3920 H3911 0.929 . S
C3920 C3912 1.378 . S
C3920 C3915 1.350 . S
C3921 H3908 0.929 . S
C3921 C3913 1.433 . S
C3921 N3923 1.384 . S
N3922 C3918 1.427 . S
N3922 C3919 1.384 . S
N3923 C3915 1.427 . S
N3923 C3921 1.384 . S
H3924 C3930 0.930 . S
H3925 C3934 0.930 . S
H3926 C3939 0.929 . S
H3927 C3937 0.929 . S
H3928 C3932 0.929 . S
H3929 C3938 0.929 . S
C3930 H3924 0.930 . S
C3930 C3931 1.367 . S
C3930 C3938 1.378 . S
C3931 C3930 1.367 . S
C3931 C3939 1.433 . S
C3932 H3928 0.929 . S
C3932 C3934 1.378 . S
C3932 C3936 1.350 . S
C3933 C3936 1.463 . S
C3933 C3938 1.350 . S
C3933 N3941 1.427 . S
C3934 H3925 0.930 . S
C3934 C3932 1.378 . S
C3934 C3935 1.367 . S
C3935 C3934 1.367 . S
C3935 C3937 1.433 . S
C3936 C3932 1.350 . S
C3936 C3933 1.463 . S
C3936 N3940 1.427 . S
C3937 H3927 0.929 . S
C3937 C3935 1.433 . S
C3937 N3940 1.384 . S
C3938 H3929 0.929 . S
C3938 C3930 1.378 . S
C3938 C3933 1.350 . S
C3939 H3926 0.929 . S
C3939 C3931 1.433 . S
C3939 N3941 1.384 . S
N3940 C3936 1.427 . S
N3940 C3937 1.384 . S
N3941 C3933 1.427 . S
N3941 C3939 1.384 . S
H3942 C3948 0.930 . S
H3943 C3952 0.930 . S
H3944 C3957 0.929 . S
H3945 C3955 0.929 . S
H3946 C3950 0.929 . S
H3947 C3956 0.929 . S
C3948 H3942 0.930 . S
C3948 C3949 1.367 . S
C3948 C3956 1.378 . S
C3949 C3948 1.367 . S
C3949 C3957 1.433 . S
C3950 H3946 0.929 . S
C3950 C3952 1.378 . S
C3950 C3954 1.350 . S
C3951 C3954 1.463 . S
C3951 C3956 1.350 . S
C3951 N3959 1.427 . S
C3952 H3943 0.930 . S
C3952 C3950 1.378 . S
C3952 C3953 1.367 . S
C3953 C3952 1.367 . S
C3953 C3955 1.433 . S
C3954 C3950 1.350 . S
C3954 C3951 1.463 . S
C3954 N3958 1.427 . S
C3955 H3945 0.929 . S
C3955 C3953 1.433 . S
C3955 N3958 1.384 . S
C3956 H3947 0.929 . S
C3956 C3948 1.378 . S
C3956 C3951 1.350 . S
C3957 H3944 0.929 . S
C3957 C3949 1.433 . S
C3957 N3959 1.384 . S
N3958 C3954 1.427 . S
N3958 C3955 1.384 . S
N3959 C3951 1.427 . S
N3959 C3957 1.384 . S
H3960 C3966 0.930 . S
H3961 C3970 0.930 . S
H3962 C3975 0.929 . S
H3963 C3973 0.929 . S
H3964 C3968 0.929 . S
H3965 C3974 0.929 . S
C3966 H3960 0.930 . S
C3966 C3967 1.367 . S
C3966 C3974 1.378 . S
C3967 C3966 1.367 . S
C3967 C3975 1.433 . S
C3968 H3964 0.929 . S
C3968 C3970 1.378 . S
C3968 C3972 1.350 . S
C3969 C3972 1.463 . S
C3969 C3974 1.350 . S
C3969 N3977 1.427 . S
C3970 H3961 0.930 . S
C3970 C3968 1.378 . S
C3970 C3971 1.367 . S
C3971 C3970 1.367 . S
C3971 C3973 1.433 . S
C3972 C3968 1.350 . S
C3972 C3969 1.463 . S
C3972 N3976 1.427 . S
C3973 H3963 0.929 . S
C3973 C3971 1.433 . S
C3973 N3976 1.384 . S
C3974 H3965 0.929 . S
C3974 C3966 1.378 . S
C3974 C3969 1.350 . S
C3975 H3962 0.929 . S
C3975 C3967 1.433 . S
C3975 N3977 1.384 . S
N3976 C3972 1.427 . S
N3976 C3973 1.384 . S
N3977 C3969 1.427 . S
N3977 C3975 1.384 . S
H3978 C3984 0.930 . S
H3979 C3988 0.930 . S
H3980 C3993 0.929 . S
H3981 C3991 0.929 . S
H3982 C3986 0.929 . S
H3983 C3992 0.929 . S
C3984 H3978 0.930 . S
C3984 C3985 1.367 . S
C3984 C3992 1.378 . S
C3985 C3984 1.367 . S
C3985 C3993 1.433 . S
C3986 H3982 0.929 . S
C3986 C3988 1.378 . S
C3986 C3990 1.350 . S
C3987 C3990 1.463 . S
C3987 C3992 1.350 . S
C3987 N3995 1.427 . S
C3988 H3979 0.930 . S
C3988 C3986 1.378 . S
C3988 C3989 1.367 . S
C3989 C3988 1.367 . S
C3989 C3991 1.433 . S
C3990 C3986 1.350 . S
C3990 C3987 1.463 . S
C3990 N3994 1.427 . S
C3991 H3981 0.929 . S
C3991 C3989 1.433 . S
C3991 N3994 1.384 . S
C3992 H3983 0.929 . S
C3992 C3984 1.378 . S
C3992 C3987 1.350 . S
C3993 H3980 0.929 . S
C3993 C3985 1.433 . S
C3993 N3995 1.384 . S
N3994 C3990 1.427 . S
N3994 C3991 1.384 . S
N3995 C3987 1.427 . S
N3995 C3993 1.384 . S
H3996 C4002 0.930 . S
H3997 C4006 0.930 . S
H3998 C4011 0.929 . S
H3999 C4009 0.929 . S
H4000 C4004 0.929 . S
H4001 C4010 0.929 . S
C4002 H3996 0.930 . S
C4002 C4003 1.367 . S
C4002 C4010 1.378 . S
C4003 C4002 1.367 . S
C4003 C4011 1.433 . S
C4004 H4000 0.929 . S
C4004 C4006 1.378 . S
C4004 C4008 1.350 . S
C4005 C4008 1.463 . S
C4005 C4010 1.350 . S
C4005 N4013 1.427 . S
C4006 H3997 0.930 . S
C4006 C4004 1.378 . S
C4006 C4007 1.367 . S
C4007 C4006 1.367 . S
C4007 C4009 1.433 1_556 S
C4008 C4004 1.350 . S
C4008 C4005 1.463 . S
C4008 N4012 1.427 . S
C4009 H3999 0.929 . S
C4009 C4007 1.433 1_554 S
C4009 N4012 1.384 1_554 S
C4010 H4001 0.929 . S
C4010 C4002 1.378 . S
C4010 C4005 1.350 . S
C4011 H3998 0.929 . S
C4011 C4003 1.433 . S
C4011 N4013 1.384 . S
N4012 C4008 1.427 . S
N4012 C4009 1.384 1_556 S
N4013 C4005 1.427 . S
N4013 C4011 1.384 . S
H4014 C4020 0.930 . S
H4015 C4024 0.930 . S
H4016 C4029 0.929 . S
H4017 C4027 0.929 . S
H4018 C4022 0.929 . S
H4019 C4028 0.929 . S
C4020 H4014 0.930 . S
C4020 C4021 1.367 . S
C4020 C4028 1.378 . S
C4021 C4020 1.367 . S
C4021 C4029 1.433 . S
C4022 H4018 0.929 . S
C4022 C4024 1.378 . S
C4022 C4026 1.350 . S
C4023 C4026 1.463 . S
C4023 C4028 1.350 . S
C4023 N4031 1.427 . S
C4024 H4015 0.930 . S
C4024 C4022 1.378 . S
C4024 C4025 1.367 . S
C4025 C4024 1.367 . S
C4025 C4027 1.433 . S
C4026 C4022 1.350 . S
C4026 C4023 1.463 . S
C4026 N4030 1.427 . S
C4027 H4017 0.929 . S
C4027 C4025 1.433 . S
C4027 N4030 1.384 . S
C4028 H4019 0.929 . S
C4028 C4020 1.378 . S
C4028 C4023 1.350 . S
C4029 H4016 0.929 . S
C4029 C4021 1.433 . S
C4029 N4031 1.384 . S
N4030 C4026 1.427 . S
N4030 C4027 1.384 . S
N4031 C4023 1.427 . S
N4031 C4029 1.384 . S
H4032 C4038 0.930 . S
H4033 C4042 0.935 . S
H4034 C4047 0.929 . S
H4035 C4045 0.929 . S
H4036 C4040 0.929 . S
H4037 C4046 0.929 . S
C4038 H4032 0.930 . S
C4038 C4039 1.367 . S
C4038 C4046 1.378 . S
C4039 C4038 1.367 . S
C4039 C4047 1.433 1_545 S
C4040 H4036 0.929 . S
C4040 C4042 1.378 . S
C4040 C4044 1.350 1_565 S
C4041 C4044 1.463 . S
C4041 C4046 1.350 . S
C4041 N4049 1.427 1_545 S
C4042 H4033 0.935 . S
C4042 C4040 1.378 . S
C4042 C4043 1.362 1_565 S
C4043 C4042 1.362 1_545 S
C4043 C4045 1.433 . S
C4044 C4040 1.350 1_545 S
C4044 C4041 1.463 . S
C4044 N4048 1.427 . S
C4045 H4035 0.929 . S
C4045 C4043 1.433 . S
C4045 N4048 1.384 . S
C4046 H4037 0.929 . S
C4046 C4038 1.378 . S
C4046 C4041 1.350 . S
C4047 H4034 0.929 . S
C4047 C4039 1.433 1_565 S
C4047 N4049 1.384 . S
N4048 C4044 1.427 . S
N4048 C4045 1.384 . S
N4049 C4041 1.427 1_565 S
N4049 C4047 1.384 . S
H4050 C4056 0.930 . S
H4051 C4060 0.930 . S
H4052 C4065 0.929 . S
H4053 C4063 0.929 . S
H4054 C4058 0.929 . S
H4055 C4064 0.929 . S
C4056 H4050 0.930 . S
C4056 C4057 1.367 . S
C4056 C4064 1.378 . S
C4057 C4056 1.367 . S
C4057 C4065 1.433 . S
C4058 H4054 0.929 . S
C4058 C4060 1.378 . S
C4058 C4062 1.350 . S
C4059 C4062 1.463 . S
C4059 C4064 1.350 . S
C4059 N4067 1.427 . S
C4060 H4051 0.930 . S
C4060 C4058 1.378 . S
C4060 C4061 1.367 . S
C4061 C4060 1.367 . S
C4061 C4063 1.433 . S
C4062 C4058 1.350 . S
C4062 C4059 1.463 . S
C4062 N4066 1.427 . S
C4063 H4053 0.929 . S
C4063 C4061 1.433 . S
C4063 N4066 1.384 . S
C4064 H4055 0.929 . S
C4064 C4056 1.378 . S
C4064 C4059 1.350 . S
C4065 H4052 0.929 . S
C4065 C4057 1.433 . S
C4065 N4067 1.384 . S
N4066 C4062 1.427 . S
N4066 C4063 1.384 . S
N4067 C4059 1.427 . S
N4067 C4065 1.384 . S
H4068 C4074 0.930 . S
H4069 C4078 0.930 . S
H4070 C4083 0.929 . S
H4071 C4081 0.929 . S
H4072 C4076 0.929 . S
H4073 C4082 0.929 . S
C4074 H4068 0.930 . S
C4074 C4075 1.367 . S
C4074 C4082 1.378 . S
C4075 C4074 1.367 . S
C4075 C4083 1.433 . S
C4076 H4072 0.929 . S
C4076 C4078 1.378 . S
C4076 C4080 1.350 . S
C4077 C4080 1.463 . S
C4077 C4082 1.350 . S
C4077 N4085 1.427 . S
C4078 H4069 0.930 . S
C4078 C4076 1.378 . S
C4078 C4079 1.367 . S
C4079 C4078 1.367 . S
C4079 C4081 1.433 . S
C4080 C4076 1.350 . S
C4080 C4077 1.463 . S
C4080 N4084 1.427 . S
C4081 H4071 0.929 . S
C4081 C4079 1.433 . S
C4081 N4084 1.384 . S
C4082 H4073 0.929 . S
C4082 C4074 1.378 . S
C4082 C4077 1.350 . S
C4083 H4070 0.929 . S
C4083 C4075 1.433 . S
C4083 N4085 1.384 . S
N4084 C4080 1.427 . S
N4084 C4081 1.384 . S
N4085 C4077 1.427 . S
N4085 C4083 1.384 . S
H4086 C4092 0.930 . S
H4087 C4096 0.930 . S
H4088 C4101 0.929 . S
H4089 C4099 0.929 . S
H4090 C4094 0.929 . S
H4091 C4100 0.929 . S
C4092 H4086 0.930 . S
C4092 C4093 1.367 . S
C4092 C4100 1.378 . S
C4093 C4092 1.367 . S
C4093 C4101 1.433 . S
C4094 H4090 0.929 . S
C4094 C4096 1.378 . S
C4094 C4098 1.350 . S
C4095 C4098 1.463 . S
C4095 C4100 1.350 . S
C4095 N4103 1.427 . S
C4096 H4087 0.930 . S
C4096 C4094 1.378 . S
C4096 C4097 1.367 . S
C4097 C4096 1.367 . S
C4097 C4099 1.433 . S
C4098 C4094 1.350 . S
C4098 C4095 1.463 . S
C4098 N4102 1.427 . S
C4099 H4089 0.929 . S
C4099 C4097 1.433 . S
C4099 N4102 1.384 . S
C4100 H4091 0.929 . S
C4100 C4092 1.378 . S
C4100 C4095 1.350 . S
C4101 H4088 0.929 . S
C4101 C4093 1.433 . S
C4101 N4103 1.384 . S
N4102 C4098 1.427 . S
N4102 C4099 1.384 . S
N4103 C4095 1.427 . S
N4103 C4101 1.384 . S
H4104 C4110 0.930 . S
H4105 C4114 0.930 . S
H4106 C4119 0.929 . S
H4107 C4117 0.929 . S
H4108 C4112 0.929 1_565 S
H4109 C4118 0.929 . S
C4110 H4104 0.930 . S
C4110 C4111 1.367 1_545 S
C4110 C4118 1.378 . S
C4111 C4110 1.367 1_565 S
C4111 C4119 1.433 . S
C4112 H4108 0.929 1_545 S
C4112 C4114 1.378 . S
C4112 C4116 1.350 . S
C4113 C4116 1.463 . S
C4113 C4118 1.350 . S
C4113 N4121 1.427 1_545 S
C4114 H4105 0.930 . S
C4114 C4112 1.378 . S
C4114 C4115 1.367 . S
C4115 C4114 1.367 . S
C4115 C4117 1.433 . S
C4116 C4112 1.350 . S
C4116 C4113 1.463 . S
C4116 N4120 1.427 . S
C4117 H4107 0.929 . S
C4117 C4115 1.433 . S
C4117 N4120 1.384 . S
C4118 H4109 0.929 . S
C4118 C4110 1.378 . S
C4118 C4113 1.350 . S
C4119 H4106 0.929 . S
C4119 C4111 1.433 . S
C4119 N4121 1.384 . S
N4120 C4116 1.427 . S
N4120 C4117 1.384 . S
N4121 C4113 1.427 1_565 S
N4121 C4119 1.384 . S
H4122 C4128 0.930 . S
H4123 C4132 0.930 . S
H4124 C4137 0.929 . S
H4125 C4135 0.929 . S
H4126 C4130 0.929 . S
H4127 C4136 0.929 . S
C4128 H4122 0.930 . S
C4128 C4129 1.367 . S
C4128 C4136 1.378 . S
C4129 C4128 1.367 . S
C4129 C4137 1.433 . S
C4130 H4126 0.929 . S
C4130 C4132 1.378 . S
C4130 C4134 1.350 . S
C4131 C4134 1.463 . S
C4131 C4136 1.350 . S
C4131 N4139 1.427 . S
C4132 H4123 0.930 . S
C4132 C4130 1.378 . S
C4132 C4133 1.367 . S
C4133 C4132 1.367 . S
C4133 C4135 1.433 . S
C4134 C4130 1.350 . S
C4134 C4131 1.463 . S
C4134 N4138 1.427 . S
C4135 H4125 0.929 . S
C4135 C4133 1.433 . S
C4135 N4138 1.384 . S
C4136 H4127 0.929 . S
C4136 C4128 1.378 . S
C4136 C4131 1.350 . S
C4137 H4124 0.929 . S
C4137 C4129 1.433 . S
C4137 N4139 1.384 . S
N4138 C4134 1.427 . S
N4138 C4135 1.384 . S
N4139 C4131 1.427 . S
N4139 C4137 1.384 . S
H4140 C4146 0.930 . S
H4141 C4150 0.930 1_565 S
H4142 C4155 0.929 1_565 S
H4143 C4153 0.929 . S
H4144 C4148 0.929 1_565 S
H4145 C4154 0.929 . S
C4146 H4140 0.930 . S
C4146 C4147 1.367 . S
C4146 C4154 1.378 . S
C4147 C4146 1.367 . S
C4147 C4155 1.433 . S
C4148 H4144 0.929 1_545 S
C4148 C4150 1.378 . S
C4148 C4152 1.350 . S
C4149 C4152 1.463 . S
C4149 C4154 1.350 . S
C4149 N4157 1.427 . S
C4150 H4141 0.930 1_545 S
C4150 C4148 1.378 . S
C4150 C4151 1.367 . S
C4151 C4150 1.367 . S
C4151 C4153 1.433 . S
C4152 C4148 1.350 . S
C4152 C4149 1.463 . S
C4152 N4156 1.427 . S
C4153 H4143 0.929 . S
C4153 C4151 1.433 . S
C4153 N4156 1.384 . S
C4154 H4145 0.929 . S
C4154 C4146 1.378 . S
C4154 C4149 1.350 . S
C4155 H4142 0.929 1_545 S
C4155 C4147 1.433 . S
C4155 N4157 1.384 . S
N4156 C4152 1.427 . S
N4156 C4153 1.384 . S
N4157 C4149 1.427 . S
N4157 C4155 1.384 . S
H4158 C4164 0.930 . S
H4159 C4168 0.930 . S
H4160 C4173 0.929 . S
H4161 C4171 0.929 . S
H4162 C4166 0.929 . S
H4163 C4172 0.929 . S
C4164 H4158 0.930 . S
C4164 C4165 1.367 . S
C4164 C4172 1.378 . S
C4165 C4164 1.367 . S
C4165 C4173 1.433 . S
C4166 H4162 0.929 . S
C4166 C4168 1.378 . S
C4166 C4170 1.350 . S
C4167 C4170 1.463 . S
C4167 C4172 1.350 . S
C4167 N4175 1.427 . S
C4168 H4159 0.930 . S
C4168 C4166 1.378 . S
C4168 C4169 1.367 . S
C4169 C4168 1.367 . S
C4169 C4171 1.433 . S
C4170 C4166 1.350 . S
C4170 C4167 1.463 . S
C4170 N4174 1.427 . S
C4171 H4161 0.929 . S
C4171 C4169 1.433 . S
C4171 N4174 1.384 . S
C4172 H4163 0.929 . S
C4172 C4164 1.378 . S
C4172 C4167 1.350 . S
C4173 H4160 0.929 . S
C4173 C4165 1.433 . S
C4173 N4175 1.384 . S
N4174 C4170 1.427 . S
N4174 C4171 1.384 . S
N4175 C4167 1.427 . S
N4175 C4173 1.384 . S
H4176 C4182 0.930 . S
H4177 C4186 0.930 . S
H4178 C4191 0.960 . S
H4179 C4189 0.929 . S
H4180 C4184 0.929 . S
H4181 C4190 0.929 . S
C4182 H4176 0.930 . S
C4182 C4183 1.367 . S
C4182 C4190 1.378 . S
C4183 C4182 1.367 . S
C4183 C4191 1.400 1_554 S
C4184 H4180 0.929 . S
C4184 C4186 1.378 . S
C4184 C4188 1.350 1_556 S
C4185 C4188 1.463 . S
C4185 C4190 1.350 . S
C4185 N4193 1.427 1_554 S
C4186 H4177 0.930 . S
C4186 C4184 1.378 . S
C4186 C4187 1.367 1_556 S
C4187 C4186 1.367 1_554 S
C4187 C4189 1.433 . S
C4188 C4184 1.350 1_554 S
C4188 C4185 1.463 . S
C4188 N4192 1.427 . S
C4189 H4179 0.929 . S
C4189 C4187 1.433 . S
C4189 N4192 1.384 . S
C4190 H4181 0.929 . S
C4190 C4182 1.378 . S
C4190 C4185 1.350 . S
C4191 H4178 0.960 . S
C4191 C4183 1.400 1_556 S
C4191 N4193 1.387 . S
N4192 C4188 1.427 . S
N4192 C4189 1.384 . S
N4193 C4185 1.427 1_556 S
N4193 C4191 1.387 . S
H4194 C4200 0.930 . S
H4195 C4204 0.930 . S
H4196 C4209 0.929 . S
H4197 C4207 0.929 . S
H4198 C4202 0.929 . S
H4199 C4208 0.929 . S
C4200 H4194 0.930 . S
C4200 C4201 1.367 . S
C4200 C4208 1.378 . S
C4201 C4200 1.367 . S
C4201 C4209 1.433 . S
C4202 H4198 0.929 . S
C4202 C4204 1.378 . S
C4202 C4206 1.350 . S
C4203 C4206 1.463 . S
C4203 C4208 1.350 . S
C4203 N4211 1.427 . S
C4204 H4195 0.930 . S
C4204 C4202 1.378 . S
C4204 C4205 1.367 . S
C4205 C4204 1.367 . S
C4205 C4207 1.433 . S
C4206 C4202 1.350 . S
C4206 C4203 1.463 . S
C4206 N4210 1.427 . S
C4207 H4197 0.929 . S
C4207 C4205 1.433 . S
C4207 N4210 1.384 . S
C4208 H4199 0.929 . S
C4208 C4200 1.378 . S
C4208 C4203 1.350 . S
C4209 H4196 0.929 . S
C4209 C4201 1.433 . S
C4209 N4211 1.384 . S
N4210 C4206 1.427 . S
N4210 C4207 1.384 . S
N4211 C4203 1.427 . S
N4211 C4209 1.384 . S
H4212 C4218 0.930 . S
H4213 C4222 0.930 . S
H4214 C4227 0.929 . S
H4215 C4225 0.929 . S
H4216 C4220 0.929 . S
H4217 C4226 0.929 . S
C4218 H4212 0.930 . S
C4218 C4219 1.367 . S
C4218 C4226 1.378 . S
C4219 C4218 1.367 . S
C4219 C4227 1.433 . S
C4220 H4216 0.929 . S
C4220 C4222 1.378 . S
C4220 C4224 1.350 . S
C4221 C4224 1.463 . S
C4221 C4226 1.350 . S
C4221 N4229 1.427 . S
C4222 H4213 0.930 . S
C4222 C4220 1.378 . S
C4222 C4223 1.367 . S
C4223 C4222 1.367 . S
C4223 C4225 1.433 . S
C4224 C4220 1.350 . S
C4224 C4221 1.463 . S
C4224 N4228 1.427 . S
C4225 H4215 0.929 . S
C4225 C4223 1.433 . S
C4225 N4228 1.384 . S
C4226 H4217 0.929 . S
C4226 C4218 1.378 . S
C4226 C4221 1.350 . S
C4227 H4214 0.929 . S
C4227 C4219 1.433 . S
C4227 N4229 1.384 . S
N4228 C4224 1.427 . S
N4228 C4225 1.384 . S
N4229 C4221 1.427 . S
N4229 C4227 1.384 . S
H4230 C4236 0.930 . S
H4231 C4240 0.930 . S
H4232 C4245 0.929 . S
H4233 C4243 0.929 . S
H4234 C4238 0.929 . S
H4235 C4244 0.929 . S
C4236 H4230 0.930 . S
C4236 C4237 1.367 . S
C4236 C4244 1.378 . S
C4237 C4236 1.367 . S
C4237 C4245 1.433 . S
C4238 H4234 0.929 . S
C4238 C4240 1.378 . S
C4238 C4242 1.350 . S
C4239 C4242 1.463 . S
C4239 C4244 1.350 . S
C4239 N4247 1.427 . S
C4240 H4231 0.930 . S
C4240 C4238 1.378 . S
C4240 C4241 1.367 . S
C4241 C4240 1.367 . S
C4241 C4243 1.433 . S
C4242 C4238 1.350 . S
C4242 C4239 1.463 . S
C4242 N4246 1.427 . S
C4243 H4233 0.929 . S
C4243 C4241 1.433 . S
C4243 N4246 1.384 . S
C4244 H4235 0.929 . S
C4244 C4236 1.378 . S
C4244 C4239 1.350 . S
C4245 H4232 0.929 . S
C4245 C4237 1.433 . S
C4245 N4247 1.384 . S
N4246 C4242 1.427 . S
N4246 C4243 1.384 . S
N4247 C4239 1.427 . S
N4247 C4245 1.384 . S
H4248 C4254 0.930 . S
H4249 C4258 0.930 . S
H4250 C4263 0.929 . S
H4251 C4261 0.929 . S
H4252 C4256 0.929 . S
H4253 C4262 0.929 . S
C4254 H4248 0.930 . S
C4254 C4255 1.367 . S
C4254 C4262 1.378 . S
C4255 C4254 1.367 . S
C4255 C4263 1.433 . S
C4256 H4252 0.929 . S
C4256 C4258 1.378 . S
C4256 C4260 1.350 . S
C4257 C4260 1.463 . S
C4257 C4262 1.350 . S
C4257 N4265 1.427 . S
C4258 H4249 0.930 . S
C4258 C4256 1.378 . S
C4258 C4259 1.367 . S
C4259 C4258 1.367 . S
C4259 C4261 1.433 . S
C4260 C4256 1.350 . S
C4260 C4257 1.463 . S
C4260 N4264 1.427 . S
C4261 H4251 0.929 . S
C4261 C4259 1.433 . S
C4261 N4264 1.384 . S
C4262 H4253 0.929 . S
C4262 C4254 1.378 . S
C4262 C4257 1.350 . S
C4263 H4250 0.929 . S
C4263 C4255 1.433 . S
C4263 N4265 1.384 . S
N4264 C4260 1.427 . S
N4264 C4261 1.384 . S
N4265 C4257 1.427 . S
N4265 C4263 1.384 . S
H4266 C4272 0.930 . S
H4267 C4276 0.930 1_545 S
H4268 C4281 0.929 . S
H4269 C4279 0.929 . S
H4270 C4274 0.929 . S
H4271 C4280 0.929 . S
C4272 H4266 0.930 . S
C4272 C4273 1.367 . S
C4272 C4280 1.378 . S
C4273 C4272 1.367 . S
C4273 C4281 1.433 . S
C4274 H4270 0.929 . S
C4274 C4276 1.378 . S
C4274 C4278 1.350 . S
C4275 C4278 1.463 . S
C4275 C4280 1.350 . S
C4275 N4283 1.427 . S
C4276 H4267 0.930 1_565 S
C4276 C4274 1.378 . S
C4276 C4277 1.367 . S
C4277 C4276 1.367 . S
C4277 C4279 1.433 . S
C4278 C4274 1.350 . S
C4278 C4275 1.463 . S
C4278 N4282 1.427 . S
C4279 H4269 0.929 . S
C4279 C4277 1.433 . S
C4279 N4282 1.384 . S
C4280 H4271 0.929 . S
C4280 C4272 1.378 . S
C4280 C4275 1.350 . S
C4281 H4268 0.929 . S
C4281 C4273 1.433 . S
C4281 N4283 1.384 . S
N4282 C4278 1.427 . S
N4282 C4279 1.384 . S
N4283 C4275 1.427 . S
N4283 C4281 1.384 . S
H4284 C4290 0.930 . S
H4285 C4294 0.930 . S
H4286 C4299 0.929 . S
H4287 C4297 0.929 . S
H4288 C4292 0.929 . S
H4289 C4298 0.929 . S
C4290 H4284 0.930 . S
C4290 C4291 1.367 . S
C4290 C4298 1.378 . S
C4291 C4290 1.367 . S
C4291 C4299 1.433 . S
C4292 H4288 0.929 . S
C4292 C4294 1.378 . S
C4292 C4296 1.350 . S
C4293 C4296 1.463 . S
C4293 C4298 1.350 . S
C4293 N4301 1.427 . S
C4294 H4285 0.930 . S
C4294 C4292 1.378 . S
C4294 C4295 1.367 . S
C4295 C4294 1.367 . S
C4295 C4297 1.433 . S
C4296 C4292 1.350 . S
C4296 C4293 1.463 . S
C4296 N4300 1.427 . S
C4297 H4287 0.929 . S
C4297 C4295 1.433 . S
C4297 N4300 1.384 . S
C4298 H4289 0.929 . S
C4298 C4290 1.378 . S
C4298 C4293 1.350 . S
C4299 H4286 0.929 . S
C4299 C4291 1.433 . S
C4299 N4301 1.384 . S
N4300 C4296 1.427 . S
N4300 C4297 1.384 . S
N4301 C4293 1.427 . S
N4301 C4299 1.384 . S
H4302 C4308 0.930 . S
H4303 C4312 0.930 . S
H4304 C4317 0.929 . S
H4305 C4315 0.929 . S
H4306 C4310 0.929 . S
H4307 C4316 0.929 . S
C4308 H4302 0.930 . S
C4308 C4309 1.367 . S
C4308 C4316 1.378 . S
C4309 C4308 1.367 . S
C4309 C4317 1.433 . S
C4310 H4306 0.929 . S
C4310 C4312 1.378 . S
C4310 C4314 1.350 . S
C4311 C4314 1.463 . S
C4311 C4316 1.350 . S
C4311 N4319 1.427 . S
C4312 H4303 0.930 . S
C4312 C4310 1.378 . S
C4312 C4313 1.367 . S
C4313 C4312 1.367 . S
C4313 C4315 1.433 . S
C4314 C4310 1.350 . S
C4314 C4311 1.463 . S
C4314 N4318 1.427 . S
C4315 H4305 0.929 . S
C4315 C4313 1.433 . S
C4315 N4318 1.384 . S
C4316 H4307 0.929 . S
C4316 C4308 1.378 . S
C4316 C4311 1.350 . S
C4317 H4304 0.929 . S
C4317 C4309 1.433 . S
C4317 N4319 1.384 . S
N4318 C4314 1.427 . S
N4318 C4315 1.384 . S
N4319 C4311 1.427 . S
N4319 C4317 1.384 . S
H4320 C4326 0.930 . S
H4321 C4330 0.930 . S
H4322 C4335 0.929 . S
H4323 C4333 0.929 . S
H4324 C4328 0.929 . S
H4325 C4334 0.929 . S
C4326 H4320 0.930 . S
C4326 C4327 1.367 . S
C4326 C4334 1.378 . S
C4327 C4326 1.367 . S
C4327 C4335 1.433 . S
C4328 H4324 0.929 . S
C4328 C4330 1.378 . S
C4328 C4332 1.350 . S
C4329 C4332 1.463 . S
C4329 C4334 1.350 . S
C4329 N4337 1.427 . S
C4330 H4321 0.930 . S
C4330 C4328 1.378 . S
C4330 C4331 1.367 . S
C4331 C4330 1.367 . S
C4331 C4333 1.433 . S
C4332 C4328 1.350 . S
C4332 C4329 1.463 . S
C4332 N4336 1.427 . S
C4333 H4323 0.929 . S
C4333 C4331 1.433 . S
C4333 N4336 1.384 . S
C4334 H4325 0.929 . S
C4334 C4326 1.378 . S
C4334 C4329 1.350 . S
C4335 H4322 0.929 . S
C4335 C4327 1.433 . S
C4335 N4337 1.384 . S
N4336 C4332 1.427 . S
N4336 C4333 1.384 . S
N4337 C4329 1.427 . S
N4337 C4335 1.384 . S
H4338 C4344 0.930 . S
H4339 C4348 0.930 . S
H4340 C4353 0.929 . S
H4341 C4351 0.929 . S
H4342 C4346 0.929 . S
H4343 C4352 0.929 . S
C4344 H4338 0.930 . S
C4344 C4345 1.367 . S
C4344 C4352 1.378 . S
C4345 C4344 1.367 . S
C4345 C4353 1.433 . S
C4346 H4342 0.929 . S
C4346 C4348 1.378 . S
C4346 C4350 1.350 . S
C4347 C4350 1.463 . S
C4347 C4352 1.350 . S
C4347 N4355 1.427 . S
C4348 H4339 0.930 . S
C4348 C4346 1.378 . S
C4348 C4349 1.367 . S
C4349 C4348 1.367 . S
C4349 C4351 1.433 . S
C4350 C4346 1.350 . S
C4350 C4347 1.463 . S
C4350 N4354 1.427 . S
C4351 H4341 0.929 . S
C4351 C4349 1.433 . S
C4351 N4354 1.384 . S
C4352 H4343 0.929 . S
C4352 C4344 1.378 . S
C4352 C4347 1.350 . S
C4353 H4340 0.929 . S
C4353 C4345 1.433 . S
C4353 N4355 1.384 . S
N4354 C4350 1.427 . S
N4354 C4351 1.384 . S
N4355 C4347 1.427 . S
N4355 C4353 1.384 . S
H4356 C4362 0.930 . S
H4357 C4366 0.930 . S
H4358 C4371 0.929 . S
H4359 C4369 0.929 . S
H4360 C4364 0.929 . S
H4361 C4370 0.929 . S
C4362 H4356 0.930 . S
C4362 C4363 1.367 1_556 S
C4362 C4370 1.378 . S
C4363 C4362 1.367 1_554 S
C4363 C4371 1.433 . S
C4364 H4360 0.929 . S
C4364 C4366 1.378 . S
C4364 C4368 1.350 . S
C4365 C4368 1.463 . S
C4365 C4370 1.350 1_554 S
C4365 N4373 1.427 . S
C4366 H4357 0.930 . S
C4366 C4364 1.378 . S
C4366 C4367 1.367 . S
C4367 C4366 1.367 . S
C4367 C4369 1.433 1_554 S
C4368 C4364 1.350 . S
C4368 C4365 1.463 . S
C4368 N4372 1.427 1_554 S
C4369 H4359 0.929 . S
C4369 C4367 1.433 1_556 S
C4369 N4372 1.384 . S
C4370 H4361 0.929 . S
C4370 C4362 1.378 . S
C4370 C4365 1.350 1_556 S
C4371 H4358 0.929 . S
C4371 C4363 1.433 . S
C4371 N4373 1.384 . S
N4372 C4368 1.427 1_556 S
N4372 C4369 1.384 . S
N4373 C4365 1.427 . S
N4373 C4371 1.384 . S
H4374 C4380 0.930 . S
H4375 C4384 0.930 . S
H4376 C4389 0.929 1_455 S
H4377 C4387 0.929 . S
H4378 C4382 0.929 . S
H4379 C4388 0.929 . S
C4380 H4374 0.930 . S
C4380 C4381 1.367 . S
C4380 C4388 1.378 . S
C4381 C4380 1.367 . S
C4381 C4389 1.433 . S
C4382 H4378 0.929 . S
C4382 C4384 1.378 . S
C4382 C4386 1.350 . S
C4383 C4386 1.463 . S
C4383 C4388 1.350 . S
C4383 N4391 1.427 . S
C4384 H4375 0.930 . S
C4384 C4382 1.378 . S
C4384 C4385 1.367 . S
C4385 C4384 1.367 . S
C4385 C4387 1.433 . S
C4386 C4382 1.350 . S
C4386 C4383 1.463 . S
C4386 N4390 1.427 . S
C4387 H4377 0.929 . S
C4387 C4385 1.433 . S
C4387 N4390 1.384 . S
C4388 H4379 0.929 . S
C4388 C4380 1.378 . S
C4388 C4383 1.350 . S
C4389 H4376 0.929 1_655 S
C4389 C4381 1.433 . S
C4389 N4391 1.384 . S
N4390 C4386 1.427 . S
N4390 C4387 1.384 . S
N4391 C4383 1.427 . S
N4391 C4389 1.384 . S
H4392 C4398 0.930 . S
H4393 C4402 0.930 . S
H4394 C4407 0.929 . S
H4395 C4405 0.929 . S
H4396 C4400 0.929 . S
H4397 C4406 0.929 . S
C4398 H4392 0.930 . S
C4398 C4399 1.367 . S
C4398 C4406 1.378 . S
C4399 C4398 1.367 . S
C4399 C4407 1.433 . S
C4400 H4396 0.929 . S
C4400 C4402 1.378 . S
C4400 C4404 1.350 . S
C4401 C4404 1.463 . S
C4401 C4406 1.350 . S
C4401 N4409 1.427 . S
C4402 H4393 0.930 . S
C4402 C4400 1.378 . S
C4402 C4403 1.367 . S
C4403 C4402 1.367 . S
C4403 C4405 1.433 . S
C4404 C4400 1.350 . S
C4404 C4401 1.463 . S
C4404 N4408 1.427 . S
C4405 H4395 0.929 . S
C4405 C4403 1.433 . S
C4405 N4408 1.384 . S
C4406 H4397 0.929 . S
C4406 C4398 1.378 . S
C4406 C4401 1.350 . S
C4407 H4394 0.929 . S
C4407 C4399 1.433 . S
C4407 N4409 1.384 . S
N4408 C4404 1.427 . S
N4408 C4405 1.384 . S
N4409 C4401 1.427 . S
N4409 C4407 1.384 . S
H4410 C4416 0.924 1_455 S
H4411 C4420 0.930 . S
H4412 C4425 0.929 . S
H4413 C4423 0.929 . S
H4414 C4418 0.929 . S
H4415 C4424 0.929 . S
C4416 H4410 0.924 1_655 S
C4416 C4417 1.367 1_655 S
C4416 C4424 1.378 . S
C4417 C4416 1.367 1_455 S
C4417 C4425 1.433 . S
C4418 H4414 0.929 . S
C4418 C4420 1.378 . S
C4418 C4422 1.350 . S
C4419 C4422 1.463 . S
C4419 C4424 1.350 . S
C4419 N4427 1.427 . S
C4420 H4411 0.930 . S
C4420 C4418 1.378 . S
C4420 C4421 1.367 . S
C4421 C4420 1.367 . S
C4421 C4423 1.433 . S
C4422 C4418 1.350 . S
C4422 C4419 1.463 . S
C4422 N4426 1.427 . S
C4423 H4413 0.929 . S
C4423 C4421 1.433 . S
C4423 N4426 1.384 . S
C4424 H4415 0.929 . S
C4424 C4416 1.378 . S
C4424 C4419 1.350 . S
C4425 H4412 0.929 . S
C4425 C4417 1.433 . S
C4425 N4427 1.384 1_455 S
N4426 C4422 1.427 . S
N4426 C4423 1.384 . S
N4427 C4419 1.427 . S
N4427 C4425 1.384 1_655 S
H4428 C4434 0.930 . S
H4429 C4438 0.930 . S
H4430 C4443 0.929 . S
H4431 C4441 0.929 . S
H4432 C4436 0.929 . S
H4433 C4442 0.929 . S
C4434 H4428 0.930 . S
C4434 C4435 1.367 . S
C4434 C4442 1.378 . S
C4435 C4434 1.367 . S
C4435 C4443 1.433 1_655 S
C4436 H4432 0.929 . S
C4436 C4438 1.378 . S
C4436 C4440 1.350 . S
C4437 C4440 1.463 . S
C4437 C4442 1.350 1_455 S
C4437 N4445 1.427 . S
C4438 H4429 0.930 . S
C4438 C4436 1.378 . S
C4438 C4439 1.367 . S
C4439 C4438 1.367 . S
C4439 C4441 1.433 . S
C4440 C4436 1.350 . S
C4440 C4437 1.463 . S
C4440 N4444 1.427 . S
C4441 H4431 0.929 . S
C4441 C4439 1.433 . S
C4441 N4444 1.384 . S
C4442 H4433 0.929 . S
C4442 C4434 1.378 . S
C4442 C4437 1.350 1_655 S
C4443 H4430 0.929 . S
C4443 C4435 1.433 1_455 S
C4443 N4445 1.384 . S
N4444 C4440 1.427 . S
N4444 C4441 1.384 . S
N4445 C4437 1.427 . S
N4445 C4443 1.384 . S
H4446 C4452 0.930 . S
H4447 C4456 0.930 . S
H4448 C4461 0.929 . S
H4449 C4459 0.929 . S
H4450 C4454 0.929 . S
H4451 C4460 0.929 . S
C4452 H4446 0.930 . S
C4452 C4453 1.367 . S
C4452 C4460 1.378 . S
C4453 C4452 1.367 . S
C4453 C4461 1.433 . S
C4454 H4450 0.929 . S
C4454 C4456 1.378 . S
C4454 C4458 1.350 . S
C4455 C4458 1.463 . S
C4455 C4460 1.350 . S
C4455 N4463 1.427 . S
C4456 H4447 0.930 . S
C4456 C4454 1.378 . S
C4456 C4457 1.367 . S
C4457 C4456 1.367 . S
C4457 C4459 1.433 . S
C4458 C4454 1.350 . S
C4458 C4455 1.463 . S
C4458 N4462 1.427 . S
C4459 H4449 0.929 . S
C4459 C4457 1.433 . S
C4459 N4462 1.384 . S
C4460 H4451 0.929 . S
C4460 C4452 1.378 . S
C4460 C4455 1.350 . S
C4461 H4448 0.929 . S
C4461 C4453 1.433 . S
C4461 N4463 1.384 . S
N4462 C4458 1.427 . S
N4462 C4459 1.384 . S
N4463 C4455 1.427 . S
N4463 C4461 1.384 . S
H4464 C4470 0.930 . S
H4465 C4474 0.930 . S
H4466 C4479 0.929 . S
H4467 C4477 0.929 . S
H4468 C4472 0.929 . S
H4469 C4478 0.929 . S
C4470 H4464 0.930 . S
C4470 C4471 1.367 . S
C4470 C4478 1.378 . S
C4471 C4470 1.367 . S
C4471 C4479 1.433 . S
C4472 H4468 0.929 . S
C4472 C4474 1.378 . S
C4472 C4476 1.350 . S
C4473 C4476 1.463 . S
C4473 C4478 1.350 . S
C4473 N4481 1.427 . S
C4474 H4465 0.930 . S
C4474 C4472 1.378 . S
C4474 C4475 1.367 . S
C4475 C4474 1.367 . S
C4475 C4477 1.433 . S
C4476 C4472 1.350 . S
C4476 C4473 1.463 . S
C4476 N4480 1.427 . S
C4477 H4467 0.929 . S
C4477 C4475 1.433 . S
C4477 N4480 1.384 . S
C4478 H4469 0.929 . S
C4478 C4470 1.378 . S
C4478 C4473 1.350 . S
C4479 H4466 0.929 . S
C4479 C4471 1.433 . S
C4479 N4481 1.384 . S
N4480 C4476 1.427 . S
N4480 C4477 1.384 . S
N4481 C4473 1.427 . S
N4481 C4479 1.384 . S
H4482 C4488 0.930 . S
H4483 C4492 0.930 . S
H4484 C4497 0.929 . S
H4485 C4495 0.929 . S
H4486 C4490 0.929 . S
H4487 C4496 0.929 . S
C4488 H4482 0.930 . S
C4488 C4489 1.367 . S
C4488 C4496 1.378 . S
C4489 C4488 1.367 . S
C4489 C4497 1.433 . S
C4490 H4486 0.929 . S
C4490 C4492 1.378 . S
C4490 C4494 1.350 . S
C4491 C4494 1.463 . S
C4491 C4496 1.350 . S
C4491 N4499 1.427 . S
C4492 H4483 0.930 . S
C4492 C4490 1.378 . S
C4492 C4493 1.367 . S
C4493 C4492 1.367 . S
C4493 C4495 1.433 . S
C4494 C4490 1.350 . S
C4494 C4491 1.463 . S
C4494 N4498 1.427 . S
C4495 H4485 0.929 . S
C4495 C4493 1.433 . S
C4495 N4498 1.384 . S
C4496 H4487 0.929 . S
C4496 C4488 1.378 . S
C4496 C4491 1.350 . S
C4497 H4484 0.929 . S
C4497 C4489 1.433 . S
C4497 N4499 1.384 . S
N4498 C4494 1.427 . S
N4498 C4495 1.384 . S
N4499 C4491 1.427 . S
N4499 C4497 1.384 . S
H4500 C4506 0.930 . S
H4501 C4510 0.930 . S
H4502 C4515 0.929 . S
H4503 C4513 0.929 . S
H4504 C4508 0.929 . S
H4505 C4514 0.929 . S
C4506 H4500 0.930 . S
C4506 C4507 1.367 . S
C4506 C4514 1.378 . S
C4507 C4506 1.367 . S
C4507 C4515 1.433 . S
C4508 H4504 0.929 . S
C4508 C4510 1.378 . S
C4508 C4512 1.350 . S
C4509 C4512 1.463 . S
C4509 C4514 1.350 . S
C4509 N4517 1.427 . S
C4510 H4501 0.930 . S
C4510 C4508 1.378 . S
C4510 C4511 1.367 . S
C4511 C4510 1.367 . S
C4511 C4513 1.433 . S
C4512 C4508 1.350 . S
C4512 C4509 1.463 . S
C4512 N4516 1.427 . S
C4513 H4503 0.929 . S
C4513 C4511 1.433 . S
C4513 N4516 1.384 . S
C4514 H4505 0.929 . S
C4514 C4506 1.378 . S
C4514 C4509 1.350 . S
C4515 H4502 0.929 . S
C4515 C4507 1.433 . S
C4515 N4517 1.384 . S
N4516 C4512 1.427 . S
N4516 C4513 1.384 . S
N4517 C4509 1.427 . S
N4517 C4515 1.384 . S
H4518 C4524 0.930 . S
H4519 C4528 0.930 . S
H4520 C4533 0.929 . S
H4521 C4531 0.929 . S
H4522 C4526 0.929 . S
H4523 C4532 0.929 . S
C4524 H4518 0.930 . S
C4524 C4525 1.367 . S
C4524 C4532 1.378 . S
C4525 C4524 1.367 . S
C4525 C4533 1.433 . S
C4526 H4522 0.929 . S
C4526 C4528 1.378 . S
C4526 C4530 1.350 . S
C4527 C4530 1.463 . S
C4527 C4532 1.350 . S
C4527 N4535 1.427 . S
C4528 H4519 0.930 . S
C4528 C4526 1.378 . S
C4528 C4529 1.367 . S
C4529 C4528 1.367 . S
C4529 C4531 1.433 . S
C4530 C4526 1.350 . S
C4530 C4527 1.463 . S
C4530 N4534 1.427 . S
C4531 H4521 0.929 . S
C4531 C4529 1.433 . S
C4531 N4534 1.384 . S
C4532 H4523 0.929 . S
C4532 C4524 1.378 . S
C4532 C4527 1.350 . S
C4533 H4520 0.929 . S
C4533 C4525 1.433 . S
C4533 N4535 1.384 . S
N4534 C4530 1.427 . S
N4534 C4531 1.384 . S
N4535 C4527 1.427 . S
N4535 C4533 1.384 . S
H4536 C4542 0.930 . S
H4537 C4546 0.930 . S
H4538 C4551 0.929 . S
H4539 C4549 0.929 . S
H4540 C4544 0.929 . S
H4541 C4550 0.929 . S
C4542 H4536 0.930 . S
C4542 C4543 1.367 . S
C4542 C4550 1.378 . S
C4543 C4542 1.367 . S
C4543 C4551 1.433 . S
C4544 H4540 0.929 . S
C4544 C4546 1.378 . S
C4544 C4548 1.350 . S
C4545 C4548 1.463 . S
C4545 C4550 1.350 . S
C4545 N4553 1.427 . S
C4546 H4537 0.930 . S
C4546 C4544 1.378 . S
C4546 C4547 1.367 . S
C4547 C4546 1.367 . S
C4547 C4549 1.433 . S
C4548 C4544 1.350 . S
C4548 C4545 1.463 . S
C4548 N4552 1.427 . S
C4549 H4539 0.929 . S
C4549 C4547 1.433 . S
C4549 N4552 1.384 . S
C4550 H4541 0.929 . S
C4550 C4542 1.378 . S
C4550 C4545 1.350 . S
C4551 H4538 0.929 . S
C4551 C4543 1.433 . S
C4551 N4553 1.384 . S
N4552 C4548 1.427 . S
N4552 C4549 1.384 . S
N4553 C4545 1.427 . S
N4553 C4551 1.384 . S
H4554 C4560 0.930 . S
H4555 C4564 0.930 . S
H4556 C4569 0.929 . S
H4557 C4567 0.929 . S
H4558 C4562 0.929 . S
H4559 C4568 0.929 . S
C4560 H4554 0.930 . S
C4560 C4561 1.367 . S
C4560 C4568 1.378 . S
C4561 C4560 1.367 . S
C4561 C4569 1.433 . S
C4562 H4558 0.929 . S
C4562 C4564 1.378 . S
C4562 C4566 1.350 . S
C4563 C4566 1.463 . S
C4563 C4568 1.350 . S
C4563 N4571 1.427 . S
C4564 H4555 0.930 . S
C4564 C4562 1.378 . S
C4564 C4565 1.367 . S
C4565 C4564 1.367 . S
C4565 C4567 1.433 . S
C4566 C4562 1.350 . S
C4566 C4563 1.463 . S
C4566 N4570 1.427 . S
C4567 H4557 0.929 . S
C4567 C4565 1.433 . S
C4567 N4570 1.384 . S
C4568 H4559 0.929 . S
C4568 C4560 1.378 . S
C4568 C4563 1.350 . S
C4569 H4556 0.929 . S
C4569 C4561 1.433 . S
C4569 N4571 1.384 . S
N4570 C4566 1.427 . S
N4570 C4567 1.384 . S
N4571 C4563 1.427 . S
N4571 C4569 1.384 . S
H4572 C4578 0.930 . S
H4573 C4582 0.930 . S
H4574 C4587 0.929 . S
H4575 C4585 0.929 . S
H4576 C4580 0.929 . S
H4577 C4586 0.929 . S
C4578 H4572 0.930 . S
C4578 C4579 1.367 . S
C4578 C4586 1.378 . S
C4579 C4578 1.367 . S
C4579 C4587 1.433 . S
C4580 H4576 0.929 . S
C4580 C4582 1.378 . S
C4580 C4584 1.350 . S
C4581 C4584 1.463 . S
C4581 C4586 1.350 . S
C4581 N4589 1.427 . S
C4582 H4573 0.930 . S
C4582 C4580 1.378 . S
C4582 C4583 1.367 . S
C4583 C4582 1.367 . S
C4583 C4585 1.433 . S
C4584 C4580 1.350 . S
C4584 C4581 1.463 . S
C4584 N4588 1.427 . S
C4585 H4575 0.929 . S
C4585 C4583 1.433 . S
C4585 N4588 1.384 . S
C4586 H4577 0.929 . S
C4586 C4578 1.378 . S
C4586 C4581 1.350 . S
C4587 H4574 0.929 . S
C4587 C4579 1.433 . S
C4587 N4589 1.384 . S
N4588 C4584 1.427 . S
N4588 C4585 1.384 . S
N4589 C4581 1.427 . S
N4589 C4587 1.384 . S
H4590 C4596 0.930 . S
H4591 C4600 0.930 . S
H4592 C4605 0.929 . S
H4593 C4603 0.929 . S
H4594 C4598 0.929 . S
H4595 C4604 0.929 . S
C4596 H4590 0.930 . S
C4596 C4597 1.367 . S
C4596 C4604 1.378 . S
C4597 C4596 1.367 . S
C4597 C4605 1.433 . S
C4598 H4594 0.929 . S
C4598 C4600 1.378 . S
C4598 C4602 1.350 . S
C4599 C4602 1.463 . S
C4599 C4604 1.350 . S
C4599 N4607 1.427 . S
C4600 H4591 0.930 . S
C4600 C4598 1.378 . S
C4600 C4601 1.367 . S
C4601 C4600 1.367 . S
C4601 C4603 1.433 . S
C4602 C4598 1.350 . S
C4602 C4599 1.463 . S
C4602 N4606 1.427 . S
C4603 H4593 0.929 . S
C4603 C4601 1.433 . S
C4603 N4606 1.384 . S
C4604 H4595 0.929 . S
C4604 C4596 1.378 . S
C4604 C4599 1.350 . S
C4605 H4592 0.929 . S
C4605 C4597 1.433 . S
C4605 N4607 1.384 . S
N4606 C4602 1.427 . S
N4606 C4603 1.384 . S
N4607 C4599 1.427 . S
N4607 C4605 1.384 . S
H4608 C4614 0.930 . S
H4609 C4618 0.930 . S
H4610 C4623 0.929 . S
H4611 C4621 0.929 . S
H4612 C4616 0.929 . S
H4613 C4622 0.929 . S
C4614 H4608 0.930 . S
C4614 C4615 1.367 . S
C4614 C4622 1.378 . S
C4615 C4614 1.367 . S
C4615 C4623 1.433 . S
C4616 H4612 0.929 . S
C4616 C4618 1.378 . S
C4616 C4620 1.350 . S
C4617 C4620 1.463 . S
C4617 C4622 1.350 . S
C4617 N4625 1.427 . S
C4618 H4609 0.930 . S
C4618 C4616 1.378 . S
C4618 C4619 1.367 . S
C4619 C4618 1.367 . S
C4619 C4621 1.433 . S
C4620 C4616 1.350 . S
C4620 C4617 1.463 . S
C4620 N4624 1.427 . S
C4621 H4611 0.929 . S
C4621 C4619 1.433 . S
C4621 N4624 1.384 . S
C4622 H4613 0.929 . S
C4622 C4614 1.378 . S
C4622 C4617 1.350 . S
C4623 H4610 0.929 . S
C4623 C4615 1.433 . S
C4623 N4625 1.384 . S
N4624 C4620 1.427 . S
N4624 C4621 1.384 . S
N4625 C4617 1.427 . S
N4625 C4623 1.384 . S
H4626 C4632 0.930 . S
H4627 C4636 0.930 . S
H4628 C4641 0.929 . S
H4629 C4639 0.929 . S
H4630 C4634 0.929 . S
H4631 C4640 0.929 . S
C4632 H4626 0.930 . S
C4632 C4633 1.367 . S
C4632 C4640 1.378 . S
C4633 C4632 1.367 . S
C4633 C4641 1.433 . S
C4634 H4630 0.929 . S
C4634 C4636 1.378 . S
C4634 C4638 1.350 . S
C4635 C4638 1.463 . S
C4635 C4640 1.350 . S
C4635 N4643 1.427 . S
C4636 H4627 0.930 . S
C4636 C4634 1.378 . S
C4636 C4637 1.367 . S
C4637 C4636 1.367 . S
C4637 C4639 1.433 . S
C4638 C4634 1.350 . S
C4638 C4635 1.463 . S
C4638 N4642 1.427 . S
C4639 H4629 0.929 . S
C4639 C4637 1.433 . S
C4639 N4642 1.384 . S
C4640 H4631 0.929 . S
C4640 C4632 1.378 . S
C4640 C4635 1.350 . S
C4641 H4628 0.929 . S
C4641 C4633 1.433 . S
C4641 N4643 1.384 . S
N4642 C4638 1.427 . S
N4642 C4639 1.384 . S
N4643 C4635 1.427 . S
N4643 C4641 1.384 . S
H4644 C4650 0.930 . S
H4645 C4654 0.930 . S
H4646 C4659 0.929 . S
H4647 C4657 0.929 . S
H4648 C4652 0.929 . S
H4649 C4658 0.929 . S
C4650 H4644 0.930 . S
C4650 C4651 1.367 . S
C4650 C4658 1.378 . S
C4651 C4650 1.367 . S
C4651 C4659 1.433 . S
C4652 H4648 0.929 . S
C4652 C4654 1.378 . S
C4652 C4656 1.350 . S
C4653 C4656 1.463 . S
C4653 C4658 1.350 . S
C4653 N4661 1.427 . S
C4654 H4645 0.930 . S
C4654 C4652 1.378 . S
C4654 C4655 1.367 . S
C4655 C4654 1.367 . S
C4655 C4657 1.433 . S
C4656 C4652 1.350 . S
C4656 C4653 1.463 . S
C4656 N4660 1.427 . S
C4657 H4647 0.929 . S
C4657 C4655 1.433 . S
C4657 N4660 1.384 . S
C4658 H4649 0.929 . S
C4658 C4650 1.378 . S
C4658 C4653 1.350 . S
C4659 H4646 0.929 . S
C4659 C4651 1.433 . S
C4659 N4661 1.384 . S
N4660 C4656 1.427 . S
N4660 C4657 1.384 . S
N4661 C4653 1.427 . S
N4661 C4659 1.384 . S
H4662 C4668 0.930 . S
H4663 C4672 0.930 . S
H4664 C4677 0.929 . S
H4665 C4675 0.929 1_565 S
H4666 C4670 0.929 . S
H4667 C4676 0.929 . S
C4668 H4662 0.930 . S
C4668 C4669 1.367 . S
C4668 C4676 1.378 . S
C4669 C4668 1.367 . S
C4669 C4677 1.433 1_565 S
C4670 H4666 0.929 . S
C4670 C4672 1.378 . S
C4670 C4674 1.350 . S
C4671 C4674 1.463 . S
C4671 C4676 1.350 1_545 S
C4671 N4679 1.427 . S
C4672 H4663 0.930 . S
C4672 C4670 1.378 . S
C4672 C4673 1.367 . S
C4673 C4672 1.367 . S
C4673 C4675 1.433 . S
C4674 C4670 1.350 . S
C4674 C4671 1.463 . S
C4674 N4678 1.427 1_545 S
C4675 H4665 0.929 1_545 S
C4675 C4673 1.433 . S
C4675 N4678 1.384 1_545 S
C4676 H4667 0.929 . S
C4676 C4668 1.378 . S
C4676 C4671 1.350 1_565 S
C4677 H4664 0.929 . S
C4677 C4669 1.433 1_545 S
C4677 N4679 1.384 . S
N4678 C4674 1.427 1_565 S
N4678 C4675 1.384 1_565 S
N4679 C4671 1.427 . S
N4679 C4677 1.384 . S
H4680 C4686 0.930 . S
H4681 C4690 0.930 . S
H4682 C4695 0.929 . S
H4683 C4693 0.929 . S
H4684 C4688 0.929 . S
H4685 C4694 0.929 . S
C4686 H4680 0.930 . S
C4686 C4687 1.367 . S
C4686 C4694 1.378 . S
C4687 C4686 1.367 . S
C4687 C4695 1.433 . S
C4688 H4684 0.929 . S
C4688 C4690 1.378 . S
C4688 C4692 1.350 . S
C4689 C4692 1.463 . S
C4689 C4694 1.350 . S
C4689 N4697 1.427 . S
C4690 H4681 0.930 . S
C4690 C4688 1.378 . S
C4690 C4691 1.367 . S
C4691 C4690 1.367 . S
C4691 C4693 1.433 . S
C4692 C4688 1.350 . S
C4692 C4689 1.463 . S
C4692 N4696 1.427 . S
C4693 H4683 0.929 . S
C4693 C4691 1.433 . S
C4693 N4696 1.384 . S
C4694 H4685 0.929 . S
C4694 C4686 1.378 . S
C4694 C4689 1.350 . S
C4695 H4682 0.929 . S
C4695 C4687 1.433 . S
C4695 N4697 1.384 . S
N4696 C4692 1.427 . S
N4696 C4693 1.384 . S
N4697 C4689 1.427 . S
N4697 C4695 1.384 . S
H4698 C4704 0.930 . S
H4699 C4708 0.930 1_556 S
H4700 C4713 0.929 . S
H4701 C4711 0.929 . S
H4702 C4706 0.929 1_556 S
H4703 C4712 0.929 . S
C4704 H4698 0.930 . S
C4704 C4705 1.367 1_554 S
C4704 C4712 1.378 . S
C4705 C4704 1.367 1_556 S
C4705 C4713 1.433 . S
C4706 H4702 0.929 1_554 S
C4706 C4708 1.378 . S
C4706 C4710 1.350 . S
C4707 C4710 1.463 . S
C4707 C4712 1.350 . S
C4707 N4715 1.427 1_554 S
C4708 H4699 0.930 1_554 S
C4708 C4706 1.378 . S
C4708 C4709 1.367 . S
C4709 C4708 1.367 . S
C4709 C4711 1.433 . S
C4710 C4706 1.350 . S
C4710 C4707 1.463 . S
C4710 N4714 1.427 . S
C4711 H4701 0.929 . S
C4711 C4709 1.433 . S
C4711 N4714 1.384 . S
C4712 H4703 0.929 . S
C4712 C4704 1.378 . S
C4712 C4707 1.350 . S
C4713 H4700 0.929 . S
C4713 C4705 1.433 . S
C4713 N4715 1.384 . S
N4714 C4710 1.427 . S
N4714 C4711 1.384 . S
N4715 C4707 1.427 1_556 S
N4715 C4713 1.384 . S
H4716 C4722 0.930 . S
H4717 C4726 0.930 . S
H4718 C4731 0.929 . S
H4719 C4729 0.929 . S
H4720 C4724 0.929 . S
H4721 C4730 0.929 . S
C4722 H4716 0.930 . S
C4722 C4723 1.367 . S
C4722 C4730 1.378 . S
C4723 C4722 1.367 . S
C4723 C4731 1.433 . S
C4724 H4720 0.929 . S
C4724 C4726 1.378 . S
C4724 C4728 1.350 . S
C4725 C4728 1.463 . S
C4725 C4730 1.350 . S
C4725 N4733 1.427 . S
C4726 H4717 0.930 . S
C4726 C4724 1.378 . S
C4726 C4727 1.367 . S
C4727 C4726 1.367 . S
C4727 C4729 1.433 . S
C4728 C4724 1.350 . S
C4728 C4725 1.463 . S
C4728 N4732 1.427 . S
C4729 H4719 0.929 . S
C4729 C4727 1.433 . S
C4729 N4732 1.384 . S
C4730 H4721 0.929 . S
C4730 C4722 1.378 . S
C4730 C4725 1.350 . S
C4731 H4718 0.929 . S
C4731 C4723 1.433 . S
C4731 N4733 1.384 . S
N4732 C4728 1.427 . S
N4732 C4729 1.384 . S
N4733 C4725 1.427 . S
N4733 C4731 1.384 . S
H4734 C4740 0.930 . S
H4735 C4744 0.930 . S
H4736 C4749 0.929 . S
H4737 C4747 0.929 . S
H4738 C4742 0.929 . S
H4739 C4748 0.929 . S
C4740 H4734 0.930 . S
C4740 C4741 1.367 . S
C4740 C4748 1.378 . S
C4741 C4740 1.367 . S
C4741 C4749 1.433 . S
C4742 H4738 0.929 . S
C4742 C4744 1.378 . S
C4742 C4746 1.350 . S
C4743 C4746 1.463 . S
C4743 C4748 1.350 . S
C4743 N4751 1.427 . S
C4744 H4735 0.930 . S
C4744 C4742 1.378 . S
C4744 C4745 1.367 . S
C4745 C4744 1.367 . S
C4745 C4747 1.433 . S
C4746 C4742 1.350 . S
C4746 C4743 1.463 . S
C4746 N4750 1.427 . S
C4747 H4737 0.929 . S
C4747 C4745 1.433 . S
C4747 N4750 1.384 . S
C4748 H4739 0.929 . S
C4748 C4740 1.378 . S
C4748 C4743 1.350 . S
C4749 H4736 0.929 . S
C4749 C4741 1.433 . S
C4749 N4751 1.384 . S
N4750 C4746 1.427 . S
N4750 C4747 1.384 . S
N4751 C4743 1.427 . S
N4751 C4749 1.384 . S
H4752 C4758 0.930 . S
H4753 C4762 0.930 . S
H4754 C4767 0.929 . S
H4755 C4765 0.929 . S
H4756 C4760 0.929 . S
H4757 C4766 0.929 . S
C4758 H4752 0.930 . S
C4758 C4759 1.367 . S
C4758 C4766 1.378 . S
C4759 C4758 1.367 . S
C4759 C4767 1.433 . S
C4760 H4756 0.929 . S
C4760 C4762 1.378 . S
C4760 C4764 1.350 . S
C4761 C4764 1.463 . S
C4761 C4766 1.350 . S
C4761 N4769 1.427 . S
C4762 H4753 0.930 . S
C4762 C4760 1.378 . S
C4762 C4763 1.367 . S
C4763 C4762 1.367 . S
C4763 C4765 1.433 . S
C4764 C4760 1.350 . S
C4764 C4761 1.463 . S
C4764 N4768 1.427 . S
C4765 H4755 0.929 . S
C4765 C4763 1.433 . S
C4765 N4768 1.384 . S
C4766 H4757 0.929 . S
C4766 C4758 1.378 . S
C4766 C4761 1.350 . S
C4767 H4754 0.929 . S
C4767 C4759 1.433 . S
C4767 N4769 1.384 . S
N4768 C4764 1.427 . S
N4768 C4765 1.384 . S
N4769 C4761 1.427 . S
N4769 C4767 1.384 . S
H4770 C4776 0.930 . S
H4771 C4780 0.930 . S
H4772 C4785 0.929 . S
H4773 C4783 0.929 . S
H4774 C4778 0.929 . S
H4775 C4784 0.929 . S
C4776 H4770 0.930 . S
C4776 C4777 1.367 . S
C4776 C4784 1.378 . S
C4777 C4776 1.367 . S
C4777 C4785 1.433 . S
C4778 H4774 0.929 . S
C4778 C4780 1.378 . S
C4778 C4782 1.350 . S
C4779 C4782 1.463 . S
C4779 C4784 1.350 . S
C4779 N4787 1.427 . S
C4780 H4771 0.930 . S
C4780 C4778 1.378 . S
C4780 C4781 1.367 . S
C4781 C4780 1.367 . S
C4781 C4783 1.433 . S
C4782 C4778 1.350 . S
C4782 C4779 1.463 . S
C4782 N4786 1.427 . S
C4783 H4773 0.929 . S
C4783 C4781 1.433 . S
C4783 N4786 1.384 . S
C4784 H4775 0.929 . S
C4784 C4776 1.378 . S
C4784 C4779 1.350 . S
C4785 H4772 0.929 . S
C4785 C4777 1.433 . S
C4785 N4787 1.384 . S
N4786 C4782 1.427 . S
N4786 C4783 1.384 . S
N4787 C4779 1.427 . S
N4787 C4785 1.384 . S
H4788 C4794 0.930 . S
H4789 C4798 0.930 . S
H4790 C4803 0.929 . S
H4791 C4801 0.929 . S
H4792 C4796 0.929 . S
H4793 C4802 0.929 . S
C4794 H4788 0.930 . S
C4794 C4795 1.367 . S
C4794 C4802 1.378 . S
C4795 C4794 1.367 . S
C4795 C4803 1.433 . S
C4796 H4792 0.929 . S
C4796 C4798 1.378 . S
C4796 C4800 1.350 . S
C4797 C4800 1.463 . S
C4797 C4802 1.350 . S
C4797 N4805 1.427 . S
C4798 H4789 0.930 . S
C4798 C4796 1.378 . S
C4798 C4799 1.367 . S
C4799 C4798 1.367 . S
C4799 C4801 1.433 . S
C4800 C4796 1.350 . S
C4800 C4797 1.463 . S
C4800 N4804 1.427 . S
C4801 H4791 0.929 . S
C4801 C4799 1.433 . S
C4801 N4804 1.384 . S
C4802 H4793 0.929 . S
C4802 C4794 1.378 . S
C4802 C4797 1.350 . S
C4803 H4790 0.929 . S
C4803 C4795 1.433 . S
C4803 N4805 1.384 . S
N4804 C4800 1.427 . S
N4804 C4801 1.384 . S
N4805 C4797 1.427 . S
N4805 C4803 1.384 . S
H4806 C4812 0.930 . S
H4807 C4816 0.930 . S
H4808 C4821 0.929 . S
H4809 C4819 0.929 . S
H4810 C4814 0.929 . S
H4811 C4820 0.929 . S
C4812 H4806 0.930 . S
C4812 C4813 1.367 . S
C4812 C4820 1.378 . S
C4813 C4812 1.367 . S
C4813 C4821 1.433 . S
C4814 H4810 0.929 . S
C4814 C4816 1.378 . S
C4814 C4818 1.350 . S
C4815 C4818 1.463 . S
C4815 C4820 1.350 . S
C4815 N4823 1.427 . S
C4816 H4807 0.930 . S
C4816 C4814 1.378 . S
C4816 C4817 1.367 . S
C4817 C4816 1.367 . S
C4817 C4819 1.433 . S
C4818 C4814 1.350 . S
C4818 C4815 1.463 . S
C4818 N4822 1.427 . S
C4819 H4809 0.929 . S
C4819 C4817 1.433 . S
C4819 N4822 1.384 . S
C4820 H4811 0.929 . S
C4820 C4812 1.378 . S
C4820 C4815 1.350 . S
C4821 H4808 0.929 . S
C4821 C4813 1.433 . S
C4821 N4823 1.384 . S
N4822 C4818 1.427 . S
N4822 C4819 1.384 . S
N4823 C4815 1.427 . S
N4823 C4821 1.384 . S
H4824 C4830 0.930 . S
H4825 C4834 0.930 . S
H4826 C4839 0.929 . S
H4827 C4837 0.929 1_554 S
H4828 C4832 0.929 . S
H4829 C4838 0.929 . S
C4830 H4824 0.930 . S
C4830 C4831 1.367 . S
C4830 C4838 1.378 . S
C4831 C4830 1.367 . S
C4831 C4839 1.433 . S
C4832 H4828 0.929 . S
C4832 C4834 1.378 . S
C4832 C4836 1.350 . S
C4833 C4836 1.463 . S
C4833 C4838 1.350 . S
C4833 N4841 1.427 . S
C4834 H4825 0.930 . S
C4834 C4832 1.378 . S
C4834 C4835 1.367 . S
C4835 C4834 1.367 . S
C4835 C4837 1.433 . S
C4836 C4832 1.350 . S
C4836 C4833 1.463 . S
C4836 N4840 1.427 . S
C4837 H4827 0.929 1_556 S
C4837 C4835 1.433 . S
C4837 N4840 1.384 . S
C4838 H4829 0.929 . S
C4838 C4830 1.378 . S
C4838 C4833 1.350 . S
C4839 H4826 0.929 . S
C4839 C4831 1.433 . S
C4839 N4841 1.384 . S
N4840 C4836 1.427 . S
N4840 C4837 1.384 . S
N4841 C4833 1.427 . S
N4841 C4839 1.384 . S
H4842 C4848 0.930 . S
H4843 C4852 0.930 . S
H4844 C4857 0.929 . S
H4845 C4855 0.929 . S
H4846 C4850 0.929 . S
H4847 C4856 0.929 . S
C4848 H4842 0.930 . S
C4848 C4849 1.367 . S
C4848 C4856 1.378 . S
C4849 C4848 1.367 . S
C4849 C4857 1.433 . S
C4850 H4846 0.929 . S
C4850 C4852 1.378 . S
C4850 C4854 1.350 . S
C4851 C4854 1.463 . S
C4851 C4856 1.350 . S
C4851 N4859 1.427 . S
C4852 H4843 0.930 . S
C4852 C4850 1.378 . S
C4852 C4853 1.367 . S
C4853 C4852 1.367 . S
C4853 C4855 1.433 . S
C4854 C4850 1.350 . S
C4854 C4851 1.463 . S
C4854 N4858 1.427 . S
C4855 H4845 0.929 . S
C4855 C4853 1.433 . S
C4855 N4858 1.384 . S
C4856 H4847 0.929 . S
C4856 C4848 1.378 . S
C4856 C4851 1.350 . S
C4857 H4844 0.929 . S
C4857 C4849 1.433 . S
C4857 N4859 1.384 . S
N4858 C4854 1.427 . S
N4858 C4855 1.384 . S
N4859 C4851 1.427 . S
N4859 C4857 1.384 . S
H4860 C4866 0.930 . S
H4861 C4870 0.930 . S
H4862 C4875 0.929 . S
H4863 C4873 0.929 . S
H4864 C4868 0.929 . S
H4865 C4874 0.929 . S
C4866 H4860 0.930 . S
C4866 C4867 1.367 . S
C4866 C4874 1.378 . S
C4867 C4866 1.367 . S
C4867 C4875 1.433 . S
C4868 H4864 0.929 . S
C4868 C4870 1.378 . S
C4868 C4872 1.350 . S
C4869 C4872 1.463 . S
C4869 C4874 1.350 . S
C4869 N4877 1.427 . S
C4870 H4861 0.930 . S
C4870 C4868 1.378 . S
C4870 C4871 1.367 . S
C4871 C4870 1.367 . S
C4871 C4873 1.433 . S
C4872 C4868 1.350 . S
C4872 C4869 1.463 . S
C4872 N4876 1.427 . S
C4873 H4863 0.929 . S
C4873 C4871 1.433 . S
C4873 N4876 1.384 . S
C4874 H4865 0.929 . S
C4874 C4866 1.378 . S
C4874 C4869 1.350 . S
C4875 H4862 0.929 . S
C4875 C4867 1.433 . S
C4875 N4877 1.384 . S
N4876 C4872 1.427 . S
N4876 C4873 1.384 . S
N4877 C4869 1.427 . S
N4877 C4875 1.384 . S
H4878 C4884 0.930 . S
H4879 C4888 0.930 . S
H4880 C4893 0.929 . S
H4881 C4891 0.929 . S
H4882 C4886 0.929 . S
H4883 C4892 0.929 . S
C4884 H4878 0.930 . S
C4884 C4885 1.367 . S
C4884 C4892 1.378 . S
C4885 C4884 1.367 . S
C4885 C4893 1.433 . S
C4886 H4882 0.929 . S
C4886 C4888 1.378 . S
C4886 C4890 1.350 . S
C4887 C4890 1.463 . S
C4887 C4892 1.350 . S
C4887 N4895 1.427 . S
C4888 H4879 0.930 . S
C4888 C4886 1.378 . S
C4888 C4889 1.367 . S
C4889 C4888 1.367 . S
C4889 C4891 1.433 . S
C4890 C4886 1.350 . S
C4890 C4887 1.463 . S
C4890 N4894 1.427 . S
C4891 H4881 0.929 . S
C4891 C4889 1.433 . S
C4891 N4894 1.384 . S
C4892 H4883 0.929 . S
C4892 C4884 1.378 . S
C4892 C4887 1.350 . S
C4893 H4880 0.929 . S
C4893 C4885 1.433 . S
C4893 N4895 1.384 . S
N4894 C4890 1.427 . S
N4894 C4891 1.384 . S
N4895 C4887 1.427 . S
N4895 C4893 1.384 . S
H4896 C4902 0.930 . S
H4897 C4906 0.930 . S
H4898 C4911 0.929 . S
H4899 C4909 0.929 . S
H4900 C4904 0.929 . S
H4901 C4910 0.929 . S
C4902 H4896 0.930 . S
C4902 C4903 1.367 . S
C4902 C4910 1.378 . S
C4903 C4902 1.367 . S
C4903 C4911 1.433 . S
C4904 H4900 0.929 . S
C4904 C4906 1.378 . S
C4904 C4908 1.350 . S
C4905 C4908 1.463 . S
C4905 C4910 1.350 . S
C4905 N4913 1.427 . S
C4906 H4897 0.930 . S
C4906 C4904 1.378 . S
C4906 C4907 1.367 . S
C4907 C4906 1.367 . S
C4907 C4909 1.433 . S
C4908 C4904 1.350 . S
C4908 C4905 1.463 . S
C4908 N4912 1.427 . S
C4909 H4899 0.929 . S
C4909 C4907 1.433 . S
C4909 N4912 1.384 . S
C4910 H4901 0.929 . S
C4910 C4902 1.378 . S
C4910 C4905 1.350 . S
C4911 H4898 0.929 . S
C4911 C4903 1.433 . S
C4911 N4913 1.384 . S
N4912 C4908 1.427 . S
N4912 C4909 1.384 . S
N4913 C4905 1.427 . S
N4913 C4911 1.384 . S
H4914 C4920 0.930 . S
H4915 C4924 0.930 . S
H4916 C4929 0.929 . S
H4917 C4927 0.929 . S
H4918 C4922 0.929 . S
H4919 C4928 0.929 . S
C4920 H4914 0.930 . S
C4920 C4921 1.367 . S
C4920 C4928 1.378 . S
C4921 C4920 1.367 . S
C4921 C4929 1.433 . S
C4922 H4918 0.929 . S
C4922 C4924 1.378 . S
C4922 C4926 1.350 . S
C4923 C4926 1.463 . S
C4923 C4928 1.350 . S
C4923 N4931 1.427 . S
C4924 H4915 0.930 . S
C4924 C4922 1.378 . S
C4924 C4925 1.367 . S
C4925 C4924 1.367 . S
C4925 C4927 1.433 . S
C4926 C4922 1.350 . S
C4926 C4923 1.463 . S
C4926 N4930 1.427 . S
C4927 H4917 0.929 . S
C4927 C4925 1.433 . S
C4927 N4930 1.384 . S
C4928 H4919 0.929 . S
C4928 C4920 1.378 . S
C4928 C4923 1.350 . S
C4929 H4916 0.929 . S
C4929 C4921 1.433 . S
C4929 N4931 1.384 . S
N4930 C4926 1.427 . S
N4930 C4927 1.384 . S
N4931 C4923 1.427 . S
N4931 C4929 1.384 . S
H4932 C4938 0.930 . S
H4933 C4942 0.930 . S
H4934 C4947 0.929 . S
H4935 C4945 0.929 . S
H4936 C4940 0.929 . S
H4937 C4946 0.929 . S
C4938 H4932 0.930 . S
C4938 C4939 1.367 . S
C4938 C4946 1.378 . S
C4939 C4938 1.367 . S
C4939 C4947 1.433 . S
C4940 H4936 0.929 . S
C4940 C4942 1.378 . S
C4940 C4944 1.350 . S
C4941 C4944 1.463 1_655 S
C4941 C4946 1.350 . S
C4941 N4949 1.419 1_655 S
C4942 H4933 0.930 . S
C4942 C4940 1.378 . S
C4942 C4943 1.367 . S
C4943 C4942 1.367 . S
C4943 C4945 1.433 . S
C4944 C4940 1.350 . S
C4944 C4941 1.463 1_455 S
C4944 N4948 1.427 . S
C4945 H4935 0.929 . S
C4945 C4943 1.433 . S
C4945 N4948 1.384 . S
C4946 H4937 0.929 . S
C4946 C4938 1.378 . S
C4946 C4941 1.350 . S
C4947 H4934 0.929 . S
C4947 C4939 1.433 . S
C4947 N4949 1.373 1_655 S
N4948 C4944 1.427 . S
N4948 C4945 1.384 . S
N4949 C4941 1.419 1_455 S
N4949 C4947 1.373 1_455 S
H4950 C4956 0.930 . S
H4951 C4960 0.930 . S
H4952 C4965 0.929 . S
H4953 C4963 0.929 . S
H4954 C4958 0.929 . S
H4955 C4964 0.929 . S
C4956 H4950 0.930 . S
C4956 C4957 1.367 . S
C4956 C4964 1.378 . S
C4957 C4956 1.367 . S
C4957 C4965 1.433 . S
C4958 H4954 0.929 . S
C4958 C4960 1.378 . S
C4958 C4962 1.350 . S
C4959 C4962 1.463 . S
C4959 C4964 1.350 . S
C4959 N4967 1.427 . S
C4960 H4951 0.930 . S
C4960 C4958 1.378 . S
C4960 C4961 1.367 . S
C4961 C4960 1.367 . S
C4961 C4963 1.433 . S
C4962 C4958 1.350 . S
C4962 C4959 1.463 . S
C4962 N4966 1.427 . S
C4963 H4953 0.929 . S
C4963 C4961 1.433 . S
C4963 N4966 1.384 . S
C4964 H4955 0.929 . S
C4964 C4956 1.378 . S
C4964 C4959 1.350 . S
C4965 H4952 0.929 . S
C4965 C4957 1.433 . S
C4965 N4967 1.384 . S
N4966 C4962 1.427 . S
N4966 C4963 1.384 . S
N4967 C4959 1.427 . S
N4967 C4965 1.384 . S
H4968 C4974 0.930 . S
H4969 C4978 0.930 . S
H4970 C4983 0.929 . S
H4971 C4981 0.929 . S
H4972 C4976 0.929 . S
H4973 C4982 0.929 . S
C4974 H4968 0.930 . S
C4974 C4975 1.367 . S
C4974 C4982 1.378 . S
C4975 C4974 1.367 . S
C4975 C4983 1.433 . S
C4976 H4972 0.929 . S
C4976 C4978 1.378 . S
C4976 C4980 1.350 . S
C4977 C4980 1.463 . S
C4977 C4982 1.350 . S
C4977 N4985 1.427 . S
C4978 H4969 0.930 . S
C4978 C4976 1.378 . S
C4978 C4979 1.367 . S
C4979 C4978 1.367 . S
C4979 C4981 1.433 . S
C4980 C4976 1.350 . S
C4980 C4977 1.463 . S
C4980 N4984 1.427 . S
C4981 H4971 0.929 . S
C4981 C4979 1.433 . S
C4981 N4984 1.384 . S
C4982 H4973 0.929 . S
C4982 C4974 1.378 . S
C4982 C4977 1.350 . S
C4983 H4970 0.929 . S
C4983 C4975 1.433 . S
C4983 N4985 1.384 . S
N4984 C4980 1.427 . S
N4984 C4981 1.384 . S
N4985 C4977 1.427 . S
N4985 C4983 1.384 . S
H4986 C4992 0.930 . S
H4987 C4996 0.930 . S
H4988 C5001 0.929 . S
H4989 C4999 0.929 . S
H4990 C4994 0.929 . S
H4991 C5000 0.929 . S
C4992 H4986 0.930 . S
C4992 C4993 1.367 . S
C4992 C5000 1.378 . S
C4993 C4992 1.367 . S
C4993 C5001 1.433 . S
C4994 H4990 0.929 . S
C4994 C4996 1.378 . S
C4994 C4998 1.350 . S
C4995 C4998 1.463 . S
C4995 C5000 1.350 . S
C4995 N5003 1.427 . S
C4996 H4987 0.930 . S
C4996 C4994 1.378 . S
C4996 C4997 1.367 . S
C4997 C4996 1.367 . S
C4997 C4999 1.433 . S
C4998 C4994 1.350 . S
C4998 C4995 1.463 . S
C4998 N5002 1.427 . S
C4999 H4989 0.929 . S
C4999 C4997 1.433 . S
C4999 N5002 1.384 . S
C5000 H4991 0.929 . S
C5000 C4992 1.378 . S
C5000 C4995 1.350 . S
C5001 H4988 0.929 . S
C5001 C4993 1.433 . S
C5001 N5003 1.384 . S
N5002 C4998 1.427 . S
N5002 C4999 1.384 . S
N5003 C4995 1.427 . S
N5003 C5001 1.384 . S
H5004 C5010 0.930 . S
H5005 C5014 0.916 1_455 S
H5006 C5019 0.929 . S
H5007 C5017 0.929 . S
H5008 C5012 0.929 . S
H5009 C5018 0.929 . S
C5010 H5004 0.930 . S
C5010 C5011 1.367 . S
C5010 C5018 1.378 . S
C5011 C5010 1.367 . S
C5011 C5019 1.433 . S
C5012 H5008 0.929 . S
C5012 C5014 1.397 . S
C5012 C5016 1.350 . S
C5013 C5016 1.463 . S
C5013 C5018 1.350 . S
C5013 N5021 1.427 . S
C5014 H5005 0.916 1_655 S
C5014 C5012 1.397 . S
C5014 C5015 1.364 1_655 S
C5015 C5014 1.364 1_455 S
C5015 C5017 1.433 . S
C5016 C5012 1.350 . S
C5016 C5013 1.463 . S
C5016 N5020 1.427 . S
C5017 H5007 0.929 . S
C5017 C5015 1.433 . S
C5017 N5020 1.384 1_455 S
C5018 H5009 0.929 . S
C5018 C5010 1.378 . S
C5018 C5013 1.350 . S
C5019 H5006 0.929 . S
C5019 C5011 1.433 . S
C5019 N5021 1.384 . S
N5020 C5016 1.427 . S
N5020 C5017 1.384 1_655 S
N5021 C5013 1.427 . S
N5021 C5019 1.384 . S
H5022 C5028 0.930 . S
H5023 C5032 0.930 . S
H5024 C5037 0.929 . S
H5025 C5035 0.929 . S
H5026 C5030 0.929 . S
H5027 C5036 0.929 . S
C5028 H5022 0.930 . S
C5028 C5029 1.367 . S
C5028 C5036 1.378 . S
C5029 C5028 1.367 . S
C5029 C5037 1.433 . S
C5030 H5026 0.929 . S
C5030 C5032 1.378 . S
C5030 C5034 1.350 . S
C5031 C5034 1.463 . S
C5031 C5036 1.350 . S
C5031 N5039 1.427 . S
C5032 H5023 0.930 . S
C5032 C5030 1.378 . S
C5032 C5033 1.367 . S
C5033 C5032 1.367 . S
C5033 C5035 1.433 . S
C5034 C5030 1.350 . S
C5034 C5031 1.463 . S
C5034 N5038 1.427 . S
C5035 H5025 0.929 . S
C5035 C5033 1.433 . S
C5035 N5038 1.384 . S
C5036 H5027 0.929 . S
C5036 C5028 1.378 . S
C5036 C5031 1.350 . S
C5037 H5024 0.929 . S
C5037 C5029 1.433 . S
C5037 N5039 1.384 . S
N5038 C5034 1.427 . S
N5038 C5035 1.384 . S
N5039 C5031 1.427 . S
N5039 C5037 1.384 . S
H5040 C5046 0.930 . S
H5041 C5050 0.930 . S
H5042 C5055 0.929 . S
H5043 C5053 0.929 . S
H5044 C5048 0.929 . S
H5045 C5054 0.929 . S
C5046 H5040 0.930 . S
C5046 C5047 1.367 . S
C5046 C5054 1.378 . S
C5047 C5046 1.367 . S
C5047 C5055 1.433 . S
C5048 H5044 0.929 . S
C5048 C5050 1.378 . S
C5048 C5052 1.350 . S
C5049 C5052 1.463 . S
C5049 C5054 1.350 . S
C5049 N5057 1.427 . S
C5050 H5041 0.930 . S
C5050 C5048 1.378 . S
C5050 C5051 1.367 . S
C5051 C5050 1.367 . S
C5051 C5053 1.433 . S
C5052 C5048 1.350 . S
C5052 C5049 1.463 . S
C5052 N5056 1.427 . S
C5053 H5043 0.929 . S
C5053 C5051 1.433 . S
C5053 N5056 1.384 . S
C5054 H5045 0.929 . S
C5054 C5046 1.378 . S
C5054 C5049 1.350 . S
C5055 H5042 0.929 . S
C5055 C5047 1.433 . S
C5055 N5057 1.384 . S
N5056 C5052 1.427 . S
N5056 C5053 1.384 . S
N5057 C5049 1.427 . S
N5057 C5055 1.384 . S
H5058 C5064 0.930 . S
H5059 C5068 0.913 1_455 S
H5060 C5073 0.929 . S
H5061 C5071 0.929 . S
H5062 C5066 0.929 . S
H5063 C5072 0.929 . S
C5064 H5058 0.930 . S
C5064 C5065 1.367 . S
C5064 C5072 1.378 . S
C5065 C5064 1.367 . S
C5065 C5073 1.433 . S
C5066 H5062 0.929 . S
C5066 C5068 1.378 . S
C5066 C5070 1.350 . S
C5067 C5070 1.463 . S
C5067 C5072 1.350 . S
C5067 N5075 1.427 . S
C5068 H5059 0.913 1_655 S
C5068 C5066 1.378 . S
C5068 C5069 1.367 1_565 S
C5069 C5068 1.367 1_545 S
C5069 C5071 1.433 . S
C5070 C5066 1.350 . S
C5070 C5067 1.463 . S
C5070 N5074 1.427 1_565 S
C5071 H5061 0.929 . S
C5071 C5069 1.433 . S
C5071 N5074 1.384 . S
C5072 H5063 0.929 . S
C5072 C5064 1.378 . S
C5072 C5067 1.350 . S
C5073 H5060 0.929 . S
C5073 C5065 1.433 . S
C5073 N5075 1.384 . S
N5074 C5070 1.427 1_545 S
N5074 C5071 1.384 . S
N5075 C5067 1.427 . S
N5075 C5073 1.384 . S
H5076 C5082 0.930 . S
H5077 C5086 0.930 . S
H5078 C5091 0.929 . S
H5079 C5089 0.929 . S
H5080 C5084 0.929 . S
H5081 C5090 0.929 . S
C5082 H5076 0.930 . S
C5082 C5083 1.367 . S
C5082 C5090 1.378 . S
C5083 C5082 1.367 . S
C5083 C5091 1.433 . S
C5084 H5080 0.929 . S
C5084 C5086 1.378 . S
C5084 C5088 1.350 . S
C5085 C5088 1.463 . S
C5085 C5090 1.350 . S
C5085 N5093 1.427 . S
C5086 H5077 0.930 . S
C5086 C5084 1.378 . S
C5086 C5087 1.367 . S
C5087 C5086 1.367 . S
C5087 C5089 1.433 . S
C5088 C5084 1.350 . S
C5088 C5085 1.463 . S
C5088 N5092 1.427 . S
C5089 H5079 0.929 . S
C5089 C5087 1.433 . S
C5089 N5092 1.384 . S
C5090 H5081 0.929 . S
C5090 C5082 1.378 . S
C5090 C5085 1.350 . S
C5091 H5078 0.929 . S
C5091 C5083 1.433 . S
C5091 N5093 1.384 . S
N5092 C5088 1.427 . S
N5092 C5089 1.384 . S
N5093 C5085 1.427 . S
N5093 C5091 1.384 . S
H5094 C5100 0.930 . S
H5095 C5104 0.930 . S
H5096 C5109 0.929 . S
H5097 C5107 0.929 . S
H5098 C5102 0.929 . S
H5099 C5108 0.929 . S
C5100 H5094 0.930 . S
C5100 C5101 1.367 . S
C5100 C5108 1.378 . S
C5101 C5100 1.367 . S
C5101 C5109 1.433 . S
C5102 H5098 0.929 . S
C5102 C5104 1.378 . S
C5102 C5106 1.350 . S
C5103 C5106 1.463 . S
C5103 C5108 1.350 . S
C5103 N5111 1.427 . S
C5104 H5095 0.930 . S
C5104 C5102 1.378 . S
C5104 C5105 1.367 . S
C5105 C5104 1.367 . S
C5105 C5107 1.433 . S
C5106 C5102 1.350 . S
C5106 C5103 1.463 . S
C5106 N5110 1.427 . S
C5107 H5097 0.929 . S
C5107 C5105 1.433 . S
C5107 N5110 1.384 . S
C5108 H5099 0.929 . S
C5108 C5100 1.378 . S
C5108 C5103 1.350 . S
C5109 H5096 0.929 . S
C5109 C5101 1.433 . S
C5109 N5111 1.384 . S
N5110 C5106 1.427 . S
N5110 C5107 1.384 . S
N5111 C5103 1.427 . S
N5111 C5109 1.384 . S
H5112 C5118 0.930 . S
H5113 C5122 0.930 . S
H5114 C5127 0.929 . S
H5115 C5125 0.929 . S
H5116 C5120 0.929 . S
H5117 C5126 0.929 . S
C5118 H5112 0.930 . S
C5118 C5119 1.367 . S
C5118 C5126 1.378 . S
C5119 C5118 1.367 . S
C5119 C5127 1.433 . S
C5120 H5116 0.929 . S
C5120 C5122 1.378 . S
C5120 C5124 1.350 . S
C5121 C5124 1.463 . S
C5121 C5126 1.350 . S
C5121 N5129 1.427 . S
C5122 H5113 0.930 . S
C5122 C5120 1.378 . S
C5122 C5123 1.367 . S
C5123 C5122 1.367 . S
C5123 C5125 1.433 . S
C5124 C5120 1.350 . S
C5124 C5121 1.463 . S
C5124 N5128 1.427 . S
C5125 H5115 0.929 . S
C5125 C5123 1.433 . S
C5125 N5128 1.384 . S
C5126 H5117 0.929 . S
C5126 C5118 1.378 . S
C5126 C5121 1.350 . S
C5127 H5114 0.929 . S
C5127 C5119 1.433 . S
C5127 N5129 1.384 . S
N5128 C5124 1.427 . S
N5128 C5125 1.384 . S
N5129 C5121 1.427 . S
N5129 C5127 1.384 . S
H5130 C5136 0.930 . S
H5131 C5140 0.930 . S
H5132 C5145 0.929 . S
H5133 C5143 0.929 . S
H5134 C5138 0.929 . S
H5135 C5144 0.929 . S
C5136 H5130 0.930 . S
C5136 C5137 1.367 . S
C5136 C5144 1.378 . S
C5137 C5136 1.367 . S
C5137 C5145 1.433 . S
C5138 H5134 0.929 . S
C5138 C5140 1.378 . S
C5138 C5142 1.350 . S
C5139 C5142 1.463 . S
C5139 C5144 1.350 . S
C5139 N5147 1.427 . S
C5140 H5131 0.930 . S
C5140 C5138 1.378 . S
C5140 C5141 1.367 . S
C5141 C5140 1.367 . S
C5141 C5143 1.433 1_554 S
C5142 C5138 1.350 . S
C5142 C5139 1.463 . S
C5142 N5146 1.427 . S
C5143 H5133 0.929 . S
C5143 C5141 1.433 1_556 S
C5143 N5146 1.384 1_556 S
C5144 H5135 0.929 . S
C5144 C5136 1.378 . S
C5144 C5139 1.350 . S
C5145 H5132 0.929 . S
C5145 C5137 1.433 . S
C5145 N5147 1.384 . S
N5146 C5142 1.427 . S
N5146 C5143 1.384 1_554 S
N5147 C5139 1.427 . S
N5147 C5145 1.384 . S
H5148 C5154 0.930 . S
H5149 C5158 0.930 . S
H5150 C5163 0.929 . S
H5151 C5161 0.929 . S
H5152 C5156 0.929 . S
H5153 C5162 0.929 . S
C5154 H5148 0.930 . S
C5154 C5155 1.367 . S
C5154 C5162 1.378 . S
C5155 C5154 1.367 . S
C5155 C5163 1.433 . S
C5156 H5152 0.929 . S
C5156 C5158 1.378 . S
C5156 C5160 1.350 . S
C5157 C5160 1.463 . S
C5157 C5162 1.350 . S
C5157 N5165 1.427 . S
C5158 H5149 0.930 . S
C5158 C5156 1.378 . S
C5158 C5159 1.367 . S
C5159 C5158 1.367 . S
C5159 C5161 1.433 . S
C5160 C5156 1.350 . S
C5160 C5157 1.463 . S
C5160 N5164 1.427 . S
C5161 H5151 0.929 . S
C5161 C5159 1.433 . S
C5161 N5164 1.384 . S
C5162 H5153 0.929 . S
C5162 C5154 1.378 . S
C5162 C5157 1.350 . S
C5163 H5150 0.929 . S
C5163 C5155 1.433 . S
C5163 N5165 1.384 . S
N5164 C5160 1.427 . S
N5164 C5161 1.384 . S
N5165 C5157 1.427 . S
N5165 C5163 1.384 . S
H5166 C5172 0.930 . S
H5167 C5176 0.930 . S
H5168 C5181 0.929 . S
H5169 C5179 0.929 . S
H5170 C5174 0.929 . S
H5171 C5180 0.929 . S
C5172 H5166 0.930 . S
C5172 C5173 1.367 . S
C5172 C5180 1.378 . S
C5173 C5172 1.367 . S
C5173 C5181 1.433 . S
C5174 H5170 0.929 . S
C5174 C5176 1.378 . S
C5174 C5178 1.350 . S
C5175 C5178 1.463 . S
C5175 C5180 1.350 . S
C5175 N5183 1.427 . S
C5176 H5167 0.930 . S
C5176 C5174 1.378 . S
C5176 C5177 1.367 . S
C5177 C5176 1.367 . S
C5177 C5179 1.433 . S
C5178 C5174 1.350 . S
C5178 C5175 1.463 . S
C5178 N5182 1.427 . S
C5179 H5169 0.929 . S
C5179 C5177 1.433 . S
C5179 N5182 1.384 . S
C5180 H5171 0.929 . S
C5180 C5172 1.378 . S
C5180 C5175 1.350 . S
C5181 H5168 0.929 . S
C5181 C5173 1.433 . S
C5181 N5183 1.384 . S
N5182 C5178 1.427 . S
N5182 C5179 1.384 . S
N5183 C5175 1.427 . S
N5183 C5181 1.384 . S
C3463 C665 1.685 . S
C3467 C2179 1.600 . S
C3481 C381 2.183 . S
C3485 C2262 2.158 . S
C3499 C460 1.610 . S
C3503 C2347 1.619 . S
C3521 C2427 1.508 . S
C3517 C585 1.660 . S
C3535 C108 1.574 . S
C3539 C2511 1.517 . S
C3557 C2604 0.930 . S
C3553 C196 1.031 . S
C3575 C2682 0.849 . S
C3571 C313 0.833 . S
C3589 C49 1.283 . S
C3593 C2767 1.173 . S
C3611 C2178 1.949 . S
C3607 C1457 2.034 1_455 S
C3625 C1545 0.514 . S
C3629 C2259 0.608 . S
C3647 C2346 1.139 . S
C3643 C1721 1.179 . S
C3665 C2431 1.687 . S
C3661 C1113 1.718 . S
C3679 C1428 2.140 1_455 S
C3683 C2515 2.004 . S
C3701 C2607 1.055 . S
C3697 C1516 1.098 . S
C3719 C2679 0.713 . S
C3715 C1692 0.675 . S
C3737 C2766 1.369 . S
C3733 C1085 1.476 . S
C3755 C2175 1.387 . S
C3751 C988 1.497 . S
C3769 C1817 1.981 . S
C3773 C2850 1.909 . S
C3791 C2924 2.087 . S
C3787 C2081 2.264 . S
C3809 C3019 0.454 . S
C3805 C1993 0.380 . S
C3823 C761 0.750 . S
C3827 C2763 0.728 . S
C3841 C821 1.429 . S
C3845 C2343 1.394 . S
C3859 C2053 2.349 . S
C3863 C3102 2.278 . S
C3881 C3187 0.685 . S
C3877 C1868 0.683 . S
C3899 C2168 1.582 1_565 S
C3895 C372 1.674 . S
C3917 C3195 2.157 . S
C3913 C645 2.176 . S
C3931 C577 1.617 . S
C3935 C2336 1.606 . S
C3949 C497 1.657 . S
C3953 C3108 1.514 . S
C3971 C2520 1.518 . S
C3967 C57 1.572 . S
C3985 C293 1.025 . S
C3989 C2931 0.922 . S
C4007 C2691 0.840 1_565 S
C4003 C205 0.835 . S
C4025 C3260 1.142 . S
C4021 C145 1.278 . S
C4043 C2187 1.952 . S
C4039 C909 2.034 . S
C4061 C3192 0.612 . S
C4057 C1956 0.511 . S
C4075 C724 1.174 . S
C4079 C2355 1.143 . S
C4093 C1780 1.726 . S
C4097 C3092 1.672 . S
C4111 C937 2.141 . S
C4115 C2504 2.004 . S
C4133 C2934 1.043 . S
C4129 C1985 1.095 . S
C4147 C753 0.674 . S
C4151 C2688 0.690 . S
C4165 C1809 1.478 . S
C4169 C3279 1.372 . S
C4183 C1173 1.496 . S
C4187 C2184 1.370 . S
C4201 C1105 1.973 . S
C4205 C2859 1.919 . S
C4219 C1633 2.261 . S
C4223 C2599 2.084 . S
C4237 C1553 0.405 . S
C4241 C3008 0.472 . S
C4259 C3276 0.745 . S
C4255 C1729 0.727 . S
C4273 C1340 1.435 . S
C4277 C2352 1.381 . S
C4295 C2439 2.264 . S
C4291 C1604 2.343 . S
C4313 C2252 0.690 . S
C4309 C1252 0.661 . S
C4327 C489 1.673 . S
C4331 C3355 1.591 . S
C4349 C3186 2.156 . S
C4345 C557 2.185 . S
C4363 C636 1.611 1_554 S
C4367 C3439 1.618 . S
C4381 C409 1.658 1_655 S
C4385 C3099 1.517 . S
C4399 C284 1.576 . S
C4403 C2847 1.508 . S
C4421 C2940 0.927 . S
C4417 C20 1.030 . S
C4439 C3018 0.840 . S
C4435 C137 0.846 . S
C4457 C3271 1.171 . S
C4453 C225 1.285 . S
C4475 C3354 1.954 . S
C4471 C1641 2.037 . S
C4489 C1193 0.511 . S
C4493 C3183 0.597 . S
C4511 C3438 1.154 . S
C4507 C1289 1.174 . S
C4529 C3103 1.692 . S
C4525 C1377 1.728 . S
C4547 C2851 2.020 . S
C4543 C1613 2.146 . S
C4561 C1164 1.101 . S
C4565 C2943 1.030 . S
C4583 C3015 0.687 . S
C4579 C1261 0.677 . S
C4597 C1349 1.484 . S
C4601 C3270 1.386 . S
C4619 C3351 1.394 . S
C4615 C1965 1.500 . S
C4633 C849 1.981 . S
C4637 C2514 1.915 . S
C4655 C2588 2.093 . S
C4651 C929 2.270 . S
C4673 C2683 0.482 . S
C4669 C1017 0.373 . S
C4691 C3267 0.729 . S
C4687 C1897 0.743 . S
C4705 C1789 1.429 . S
C4709 C3435 1.390 . S
C4727 C2430 2.276 . S
C4723 C900 2.341 . S
C4745 C2263 0.673 . S
C4741 C733 0.676 . S
C4759 C548 1.681 . S
C4763 C3344 1.599 . S
C4781 C2271 2.156 . S
C4777 C469 2.178 . S
C4795 C401 1.616 . S
C4799 C3428 1.615 . S
C4813 C673 1.656 . S
C4817 C2436 1.524 . S
C4831 C233 1.575 . S
C4835 C2856 1.512 . S
C4853 C2595 0.917 . S
C4849 C117 1.021 . S
C4867 C29 0.827 . S
C4871 C3027 0.845 . S
C4885 C321 1.284 . S
C4889 C2756 1.164 . S
C4907 C3363 1.952 . S
C4903 C2044 2.035 . S
C4921 C997 0.508 . S
C4925 C2268 0.578 . S
C4943 C3447 1.140 . S
C4939 C1877 1.175 . S
C4957 C812 1.726 . S
C4961 C2420 1.682 . S
C4975 C2073 2.151 . S
C4979 C2840 2.012 . S
C4997 C2598 1.050 . S
C4993 C1025 1.097 . S
C5011 C1905 0.672 . S
C5015 C3024 0.683 . S
C5033 C2775 1.374 . S
C5029 C841 1.472 . S
C5051 C3360 1.386 . S
C5047 C1525 1.496 . S
C5069 C2523 1.918 1_655 S
C5065 C1369 1.974 . S
C5083 C1465 2.262 . S
C5087 C2935 2.094 . S
C5105 C2672 0.450 . S
C5101 C1201 0.401 . S
C5119 C1281 0.752 . S
C5123 C2772 0.731 . S
C5137 C1076 1.428 . S
C5141 C3444 1.420 . S
C5159 C3111 2.274 . S
C5155 C1437 2.345 . S
C5177 C3176 0.678 . S
C5173 C1701 0.677 . S
