# Generated by pormake.
# Topology pyr, (3,6)-cn, num edge types: 1
# Building blocks:
#     Node 0, Type 0, BuildingBlock: OLANEW_clean_sbu_2, # of connection points: 3
#     Node 1, Type 0, BuildingBlock: OLANEW_clean_sbu_2, # of connection points: 3
#     Node 2, Type 0, BuildingBlock: OLANEW_clean_sbu_2, # of connection points: 3
#     Node 3, Type 0, BuildingBlock: OLANEW_clean_sbu_2, # of connection points: 3
#     Node 4, Type 0, BuildingBlock: OLANEW_clean_sbu_2, # of connection points: 3
#     Node 5, Type 0, BuildingBlock: OLANEW_clean_sbu_2, # of connection points: 3
#     Node 6, Type 0, BuildingBlock: OLANEW_clean_sbu_2, # of connection points: 3
#     Node 7, Type 0, BuildingBlock: OLANEW_clean_sbu_2, # of connection points: 3
#     Node 8, Type 1, BuildingBlock: PAMTUU_clean_sbu_0, # of connection points: 6
#     Node 9, Type 1, BuildingBlock: PAMTUU_clean_sbu_0, # of connection points: 6
#     Node 10, Type 1, BuildingBlock: PAMTUU_clean_sbu_0, # of connection points: 6
#     Node 11, Type 1, BuildingBlock: PAMTUU_clean_sbu_0, # of connection points: 6
#     Edge 12, Type (0, 1), BuildingBlock: MIFKUJ_clean_linker_0, # of connection points: 2
#     Edge 13, Type (0, 1), BuildingBlock: MIFKUJ_clean_linker_0, # of connection points: 2
#     Edge 14, Type (0, 1), BuildingBlock: MIFKUJ_clean_linker_0, # of connection points: 2
#     Edge 15, Type (0, 1), BuildingBlock: MIFKUJ_clean_linker_0, # of connection points: 2
#     Edge 16, Type (0, 1), BuildingBlock: MIFKUJ_clean_linker_0, # of connection points: 2
#     Edge 17, Type (0, 1), BuildingBlock: MIFKUJ_clean_linker_0, # of connection points: 2
#     Edge 18, Type (0, 1), BuildingBlock: MIFKUJ_clean_linker_0, # of connection points: 2
#     Edge 19, Type (0, 1), BuildingBlock: MIFKUJ_clean_linker_0, # of connection points: 2
#     Edge 20, Type (0, 1), BuildingBlock: MIFKUJ_clean_linker_0, # of connection points: 2
#     Edge 21, Type (0, 1), BuildingBlock: MIFKUJ_clean_linker_0, # of connection points: 2
#     Edge 22, Type (0, 1), BuildingBlock: MIFKUJ_clean_linker_0, # of connection points: 2
#     Edge 23, Type (0, 1), BuildingBlock: MIFKUJ_clean_linker_0, # of connection points: 2
#     Edge 24, Type (0, 1), BuildingBlock: MIFKUJ_clean_linker_0, # of connection points: 2
#     Edge 25, Type (0, 1), BuildingBlock: MIFKUJ_clean_linker_0, # of connection points: 2
#     Edge 26, Type (0, 1), BuildingBlock: MIFKUJ_clean_linker_0, # of connection points: 2
#     Edge 27, Type (0, 1), BuildingBlock: MIFKUJ_clean_linker_0, # of connection points: 2
#     Edge 28, Type (0, 1), BuildingBlock: MIFKUJ_clean_linker_0, # of connection points: 2
#     Edge 29, Type (0, 1), BuildingBlock: MIFKUJ_clean_linker_0, # of connection points: 2
#     Edge 30, Type (0, 1), BuildingBlock: MIFKUJ_clean_linker_0, # of connection points: 2
#     Edge 31, Type (0, 1), BuildingBlock: MIFKUJ_clean_linker_0, # of connection points: 2
#     Edge 32, Type (0, 1), BuildingBlock: MIFKUJ_clean_linker_0, # of connection points: 2
#     Edge 33, Type (0, 1), BuildingBlock: MIFKUJ_clean_linker_0, # of connection points: 2
#     Edge 34, Type (0, 1), BuildingBlock: MIFKUJ_clean_linker_0, # of connection points: 2
#     Edge 35, Type (0, 1), BuildingBlock: MIFKUJ_clean_linker_0, # of connection points: 2
# Relax obj value: 0.093
# Max RMSD: 0.177
# Mean RMSD: 0.121
data_MOF--net-pyr--node1-OLANEW_clean_sbu_2--node2-PAMTUU_clean_sbu_0--edge1-MIFKUJ_clean_linker_0
_symmetry_space_group_name_H-M    P1
_symmetry_Int_Tables_number       1
_symmetry_cell_setting            triclinic
loop_
_symmetry_equiv_pos_as_xyz
'x, y, z'
_cell_length_a     52.162547
_cell_length_b     54.487012
_cell_length_c     51.903141
_cell_angle_alpha  94.334841
_cell_angle_beta   88.092893
_cell_angle_gamma 102.67192
loop_
_atom_site_label
_atom_site_type_symbol
_atom_site_fract_x
_atom_site_fract_y
_atom_site_fract_z
_atom_type_partial_charge
O0 O 0.32867 0.25033 0.18678 0.0
Cd1 Cd 0.30594 0.28129 0.20784 0.0
O2 O 0.29074 0.22434 0.19004 0.0
Cd3 Cd 0.26151 0.18931 0.18949 0.0
O4 O 0.23608 0.17686 0.22176 0.0
C5 C 0.24787 0.17636 0.24265 0.0
O6 O 0.27367 0.18107 0.24256 0.0
C7 C 0.31499 0.22802 0.18397 0.0
C8 C 0.26902 0.295 0.17755 0.0
O9 O 0.29336 0.3061 0.1768 0.0
O10 O 0.26201 0.27681 0.19235 0.0
O11 O 0.20579 0.76154 0.77977 0.0
Cd12 Cd 0.18339 0.73074 0.74698 0.0
O13 O 0.18036 0.78906 0.78553 0.0
Cd14 Cd 0.15148 0.7732 0.75627 0.0
O15 O 0.12882 0.79122 0.73217 0.0
C16 C 0.1402 0.81381 0.72835 0.0
O17 O 0.16354 0.82296 0.73818 0.0
C18 C 0.20069 0.78145 0.79111 0.0
C19 C 0.22218 0.70968 0.72139 0.0
O20 O 0.21222 0.72574 0.71063 0.0
O21 O 0.21335 0.70304 0.7437 0.0
O22 O 0.70395 0.41342 0.86531 0.0
Cd23 Cd 0.66268 0.39987 0.83894 0.0
O24 O 0.69569 0.3823 0.89158 0.0
Cd25 Cd 0.66953 0.34661 0.90404 0.0
O26 O 0.64833 0.30853 0.91565 0.0
C27 C 0.63274 0.30586 0.93521 0.0
O28 O 0.62874 0.32617 0.94859 0.0
C29 C 0.71058 0.40267 0.88442 0.0
C30 C 0.6487 0.42553 0.79716 0.0
O31 O 0.64168 0.4306 0.82053 0.0
O32 O 0.6635 0.40959 0.79358 0.0
O33 O 0.91401 0.7136 0.36721 0.0
Cd34 Cd 0.89384 0.67394 0.34161 0.0
O35 O 0.90132 0.69709 0.40421 0.0
Cd36 Cd 0.88101 0.66002 0.38882 0.0
O37 O 0.84257 0.63844 0.39995 0.0
C38 C 0.82521 0.65153 0.40346 0.0
O39 O 0.8314 0.67542 0.39846 0.0
C40 C 0.9124 0.71591 0.39183 0.0
C41 C 0.91862 0.65321 0.29872 0.0
O42 O 0.90911 0.67281 0.29704 0.0
O43 O 0.91776 0.64413 0.3209 0.0
O44 O 0.73247 0.77337 0.84083 0.0
Cd45 Cd 0.70814 0.75197 0.8763 0.0
O46 O 0.73518 0.80411 0.87074 0.0
Cd47 Cd 0.74675 0.8427 0.88709 0.0
O48 O 0.72351 0.8668 0.90704 0.0
C49 C 0.69908 0.85694 0.9062 0.0
O50 O 0.69135 0.83483 0.8936 0.0
C51 C 0.74116 0.79634 0.84816 0.0
C52 C 0.74545 0.73397 0.90106 0.0
O53 O 0.72849 0.71909 0.8866 0.0
O54 O 0.74407 0.75713 0.90482 0.0
O55 O 0.83705 0.22046 0.3157 0.0
Cd56 Cd 0.86833 0.23811 0.35014 0.0
O57 O 0.82147 0.25514 0.31897 0.0
Cd58 Cd 0.84556 0.27988 0.34794 0.0
O59 O 0.82713 0.30907 0.36681 0.0
C60 C 0.80241 0.30127 0.36933 0.0
O61 O 0.79201 0.27765 0.36201 0.0
C62 C 0.82078 0.23301 0.30896 0.0
C63 C 0.88742 0.20302 0.37656 0.0
O64 O 0.86439 0.20704 0.3814 0.0
O65 O 0.9013 0.21509 0.35882 0.0
O66 O 0.41655 0.72229 0.20438 0.0
Cd67 Cd 0.41416 0.67885 0.22205 0.0
O68 O 0.38204 0.71684 0.17847 0.0
Cd69 Cd 0.35814 0.67802 0.17869 0.0
O70 O 0.3239 0.65054 0.16186 0.0
C71 C 0.30882 0.65981 0.14844 0.0
O72 O 0.31461 0.68424 0.14592 0.0
C73 C 0.40274 0.73075 0.18847 0.0
C74 C 0.42562 0.65956 0.26987 0.0
O75 O 0.44294 0.67584 0.25843 0.0
O76 O 0.40268 0.65363 0.26004 0.0
O77 O 0.16113 0.40267 0.72726 0.0
Cd78 Cd 0.17658 0.38474 0.68614 0.0
O79 O 0.15529 0.3681 0.74828 0.0
Cd80 Cd 0.1623 0.34274 0.71566 0.0
O81 O 0.14852 0.30481 0.69774 0.0
C82 C 0.13072 0.30051 0.68083 0.0
O83 O 0.12206 0.31949 0.67286 0.0
C84 C 0.15473 0.39126 0.74781 0.0
C85 C 0.22801 0.40565 0.66941 0.0
O86 O 0.20937 0.41726 0.66747 0.0
O87 O 0.22265 0.38452 0.67989 0.0
Tb88 Tb 0.02708 0.0062 0.53711 0.0
Tb89 Tb 0.9774 1.00067 0.57874 0.0
C90 C 0.98 0.95829 0.53389 0.0
C91 C 0.0773 0.02988 0.48787 0.0
C92 C 0.10099 0.06438 0.4522 0.0
C93 C 0.09899 0.0384 0.44665 0.0
C94 C 0.08727 0.0213 0.46439 0.0
C95 C 0.07817 0.05575 0.49308 0.0
C96 C 0.09001 0.07296 0.47528 0.0
C97 C 0.06567 0.01136 0.50626 0.0
O98 O 0.9981 0.0215 0.51848 0.0
O99 O 0.96981 0.02733 0.55257 0.0
O100 O 0.01054 0.03006 0.59273 0.0
O101 O 0.0277 0.04363 0.55423 0.0
O102 O 0.93765 0.99141 0.59044 0.0
O103 O 0.96795 0.00954 0.6173 0.0
O104 O 0.99816 0.97221 0.587 0.0
O105 O 0.03864 0.99194 0.57198 0.0
O106 O 0.00485 0.96813 0.52934 0.0
O107 O 0.96515 0.9689 0.55029 0.0
C108 C 0.97874 0.03095 0.52891 0.0
O109 O 0.06753 0.01892 0.53073 0.0
O110 O 0.04238 0.99808 0.50042 0.0
C111 C 0.02348 0.04802 0.57888 0.0
C112 C 0.93151 0.9826 0.63464 0.0
C113 C 0.90836 0.95257 0.67446 0.0
C114 C 0.91487 0.97895 0.6786 0.0
C115 C 0.92628 0.9938 0.65883 0.0
C116 C 0.92607 0.95621 0.63061 0.0
C117 C 0.91449 0.94126 0.65044 0.0
C118 C 0.9432 0.99915 0.61443 0.0
C119 C 0.02372 0.97504 0.58587 0.0
H120 H 0.10688 0.03136 0.4287 0.0
H121 H 0.08624 1.00136 0.45989 0.0
H122 H 0.07008 0.06265 0.51099 0.0
H123 H 0.09133 0.09292 0.47986 0.0
H124 H 0.91084 0.98813 0.69706 0.0
H125 H 0.93083 0.01414 0.66238 0.0
H126 H 0.93043 0.94723 0.61214 0.0
H127 H 0.90957 0.92095 0.64673 0.0
Tb128 Tb 0.5135 0.02985 0.08368 0.0
Tb129 Tb 0.47145 0.01451 0.03713 0.0
C130 C 0.52355 0.99672 0.0342 0.0
C131 C 0.5676 0.06504 0.12783 0.0
C132 C 0.60908 0.10315 0.14853 0.0
C133 C 0.613 0.07883 0.14116 0.0
C134 C 0.59251 0.06004 0.13095 0.0
C135 C 0.56379 0.08957 0.13429 0.0
C136 C 0.58435 0.10843 0.14451 0.0
C137 C 0.54555 0.04392 0.12018 0.0
O138 O 0.51841 0.06375 0.06253 0.0
O139 O 0.502 0.04551 0.02335 0.0
O140 O 0.46378 0.04691 0.05991 0.0
O141 O 0.47481 0.03443 0.09774 0.0
O142 O 0.46213 0.00582 0.99804 0.0
O143 O 0.43204 0.00975 0.02699 0.0
O144 O 0.45846 0.98598 0.06561 0.0
O145 O 0.497 0.98994 0.08755 0.0
O146 O 0.53367 0.01655 0.0496 0.0
O147 O 0.49817 0.98962 0.03098 0.0
C148 C 0.5155 0.0648 0.03758 0.0
O149 O 0.52217 0.04867 0.12012 0.0
O150 O 0.54946 0.02887 0.10044 0.0
C151 C 0.46178 0.0474 0.08499 0.0
C152 C 0.41872 0.98185 0.99059 0.0
C153 C 0.38293 0.94339 0.96316 0.0
C154 C 0.37426 0.96331 0.97698 0.0
C155 C 0.39201 0.98238 0.99044 0.0
C156 C 0.42737 0.96138 0.97781 0.0
C157 C 0.40956 0.94226 0.96418 0.0
C158 C 0.43702 0.0037 1.00283 0.0
C159 C 0.47343 0.97712 0.08103 0.0
H160 H 0.6316 0.0739 0.14433 0.0
H161 H 0.5959 0.04127 0.12632 0.0
H162 H 0.5448 0.09406 0.13209 0.0
H163 H 0.58075 0.12703 0.14964 0.0
H164 H 0.35378 0.96443 0.97696 0.0
H165 H 0.38493 0.99795 1.00025 0.0
H166 H 0.44791 0.96048 0.97773 0.0
H167 H 0.41681 0.92718 0.95361 0.0
Tb168 Tb 0.52954 0.50334 0.51513 0.0
Tb169 Tb 0.52084 0.55544 0.54817 0.0
C170 C 0.50772 0.54469 0.48936 0.0
C171 C 0.56205 0.45535 0.48036 0.0
C172 C 0.60627 0.43584 0.46348 0.0
C173 C 0.58213 0.42803 0.45074 0.0
C174 C 0.56031 0.43768 0.4591 0.0
C175 C 0.5862 0.46369 0.49292 0.0
C176 C 0.60814 0.45402 0.48453 0.0
C177 C 0.53857 0.46511 0.48862 0.0
O178 O 0.56438 0.53205 0.50785 0.0
O179 O 0.56274 0.56374 0.53988 0.0
O180 O 0.52924 0.53007 0.57597 0.0
O181 O 0.55281 0.50686 0.54998 0.0
O182 O 0.5117 0.59113 0.5485 0.0
O183 O 0.51776 0.57558 0.58405 0.0
O184 O 0.48247 0.53068 0.54373 0.0
O185 O 0.49383 0.4922 0.53843 0.0
O186 O 0.50411 0.52035 0.49225 0.0
O187 O 0.51998 0.56118 0.50709 0.0
C188 C 0.57509 0.55297 0.5213 0.0
O189 O 0.53246 0.46534 0.5132 0.0
O190 O 0.53643 0.48587 0.47884 0.0
C191 C 0.54596 0.51511 0.57309 0.0
C192 C 0.4856 0.60047 0.58489 0.0
C193 C 0.44094 0.61623 0.60717 0.0
C194 C 0.46095 0.61214 0.62282 0.0
C195 C 0.48304 0.6045 0.61179 0.0
C196 C 0.46544 0.60409 0.5692 0.0
C197 C 0.44344 0.61193 0.5802 0.0
C198 C 0.5097 0.59344 0.57357 0.0
C199 C 0.47684 0.50618 0.54547 0.0
H200 H 0.58011 0.41454 0.43411 0.0
H201 H 0.54199 0.43129 0.44891 0.0
H202 H 0.58804 0.47755 0.50924 0.0
H203 H 0.6264 0.46043 0.49481 0.0
H204 H 0.45957 0.61477 0.64366 0.0
H205 H 0.49825 0.60186 0.62435 0.0
H206 H 0.46676 0.60123 0.54836 0.0
H207 H 0.42871 0.61518 0.56744 0.0
Tb208 Tb 0.01555 0.54046 1.00162 0.0
Tb209 Tb 0.01571 0.48865 0.0298 0.0
C210 C 0.03786 0.49642 0.9738 0.0
C211 C 0.99104 0.59048 0.97236 0.0
C212 C 0.9492 0.61108 0.95762 0.0
C213 C 0.96887 0.60713 0.93958 0.0
C214 C 0.98966 0.59704 0.94695 0.0
C215 C 0.97113 0.59382 0.99031 0.0
C216 C 0.9505 0.60418 0.98304 0.0
C217 C 0.0129 0.57946 0.97947 0.0
O218 O 0.97467 0.52019 1.00177 0.0
O219 O 0.98014 0.47993 0.00659 0.0
O220 O 0.99103 0.50871 0.05413 0.0
O221 O 0.00977 0.54846 0.04284 0.0
O222 O 0.0151 0.44986 0.0273 0.0
O223 O 0.01693 0.47123 0.06429 0.0
O224 O 0.05114 0.51559 0.04239 0.0
O225 O 0.05662 0.54391 0.0108 0.0
O226 O 0.02288 0.51255 0.97179 0.0
O227 O 0.04198 0.48874 0.99633 0.0
C228 C 0.96588 0.49561 1.0001 0.0
O229 O 0.01721 0.5794 0.00401 0.0
O230 O 0.01415 0.55806 0.9672 0.0
C231 C 0.99606 0.53325 0.05914 0.0
C232 C 0.04042 0.43897 0.06012 0.0
C233 C 0.08095 0.41751 0.07693 0.0
C234 C 0.05941 0.41976 0.09328 0.0
C235 C 0.03934 0.43026 0.0849 0.0
C236 C 0.0623 0.43762 0.04393 0.0
C237 C 0.08237 0.42688 0.05225 0.0
C238 C 0.01877 0.4499 0.05206 0.0
C239 C 0.06556 0.53424 0.0302 0.0
H240 H 0.9682 0.61178 0.91973 0.0
H241 H 0.00465 0.59425 0.93274 0.0
H242 H 0.97155 0.58859 0.00999 0.0
H243 H 0.93589 0.60725 0.99752 0.0
H244 H 0.05801 0.41334 0.11262 0.0
H245 H 0.02288 0.43156 0.09783 0.0
H246 H 0.06379 0.44461 0.02483 0.0
H247 H 0.09864 0.42537 0.03915 0.0
H248 H 0.26309 0.15719 0.28501 0.0
H249 H 0.23679 0.14586 0.32401 0.0
H250 H 0.17324 0.17382 0.29434 0.0
H251 H 0.19917 0.18466 0.25491 0.0
H252 H 0.18607 0.18324 0.35383 0.0
H253 H 0.16381 0.12038 0.28158 0.0
H254 H 0.17624 0.09369 0.24488 0.0
H255 H 0.21629 0.05716 0.29628 0.0
H256 H 0.20464 0.08413 0.33321 0.0
H257 H 0.08623 0.10399 0.43158 0.0
H258 H 0.11029 0.13023 0.3982 0.0
H259 H 0.17357 0.09096 0.40032 0.0
H260 H 0.14967 0.06478 0.43305 0.0
H261 H 0.15653 0.09014 0.35277 0.0
H262 H 0.17859 0.15098 0.42534 0.0
H263 H 0.16935 0.17875 0.46257 0.0
H264 H 0.13211 0.21936 0.41277 0.0
H265 H 0.1406 0.19145 0.37528 0.0
C266 C 0.24366 0.16123 0.28696 0.0
C267 C 0.2329 0.17133 0.26686 0.0
C268 C 0.22882 0.15499 0.30928 0.0
C269 C 0.20325 0.15917 0.3119 0.0
C270 C 0.19305 0.1707 0.29259 0.0
C271 C 0.2077 0.1765 0.27002 0.0
C272 C 0.1859 0.14769 0.33262 0.0
C273 C 0.1792 0.16293 0.35362 0.0
C274 C 0.17732 0.12126 0.33212 0.0
C275 C 0.18362 0.10447 0.31008 0.0
C276 C 0.17547 0.10683 0.28501 0.0
C277 C 0.18237 0.09164 0.26417 0.0
C278 C 0.19712 0.07379 0.26823 0.0
C279 C 0.20492 0.07103 0.29316 0.0
C280 C 0.19818 0.08627 0.31404 0.0
C281 C 0.10545 0.10134 0.42507 0.0
C282 C 0.11603 0.0822 0.43442 0.0
C283 C 0.11914 0.11629 0.40614 0.0
C284 C 0.14359 0.11235 0.39677 0.0
C285 C 0.15461 0.09409 0.40715 0.0
C286 C 0.14095 0.07913 0.42575 0.0
C287 C 0.15714 0.12552 0.37472 0.0
C288 C 0.16303 0.11051 0.35314 0.0
C289 C 0.16503 0.15211 0.37496 0.0
C290 C 0.15989 0.16886 0.39753 0.0
C291 C 0.16814 0.16562 0.42235 0.0
C292 C 0.16308 0.18143 0.44351 0.0
C293 C 0.15006 0.20075 0.44006 0.0
C294 C 0.14212 0.20434 0.41543 0.0
C295 C 0.14703 0.18851 0.39422 0.0
H296 H 0.1462 0.21299 0.45646 0.0
H297 H 0.20244 0.06205 0.25207 0.0
H298 H 0.20464 0.83068 0.80833 0.0
H299 H 0.23704 0.85619 0.83802 0.0
H300 H 0.27081 0.79184 0.84664 0.0
H301 H 0.23867 0.76619 0.8167 0.0
H302 H 0.26197 0.82003 0.89398 0.0
H303 H 0.30175 0.83227 0.80979 0.0
H304 H 0.30396 0.84292 0.76434 0.0
H305 H 0.29403 0.91751 0.78819 0.0
H306 H 0.29125 0.90715 0.83378 0.0
H307 H 0.37786 0.89204 0.95673 0.0
H308 H 0.34759 0.8622 0.92804 0.0
H309 H 0.31603 0.92342 0.90365 0.0
H310 H 0.34665 0.95324 0.93136 0.0
H311 H 0.32575 0.89418 0.86348 0.0
H312 H 0.2833 0.88266 0.94644 0.0
H313 H 0.27826 0.87274 0.99213 0.0
H314 H 0.29047 0.7983 0.97139 0.0
H315 H 0.29608 0.80795 0.9256 0.0
C316 C 0.21884 0.8219 0.81667 0.0
C317 C 0.21919 0.79646 0.81016 0.0
C318 C 0.23736 0.83651 0.8335 0.0
C319 C 0.25633 0.82585 0.84424 0.0
C320 C 0.25631 0.80032 0.8384 0.0
C321 C 0.23801 0.78577 0.82129 0.0
C322 C 0.27638 0.84151 0.86138 0.0
C323 C 0.27625 0.83603 0.88732 0.0
C324 C 0.29447 0.86262 0.85261 0.0
C325 C 0.29599 0.86883 0.82518 0.0
C326 C 0.29974 0.85085 0.80533 0.0
C327 C 0.30115 0.85685 0.77954 0.0
C328 C 0.29906 0.88085 0.77337 0.0
C329 C 0.29559 0.89891 0.79299 0.0
C330 C 0.2941 0.89298 0.81881 0.0
C331 C 0.36452 0.89908 0.94514 0.0
C332 C 0.36446 0.92493 0.94644 0.0
C333 C 0.34712 0.88202 0.92896 0.0
C334 C 0.32943 0.89061 0.91393 0.0
C335 C 0.32947 0.9164 0.91515 0.0
C336 C 0.34681 0.93339 0.93119 0.0
C337 C 0.31116 0.87302 0.89635 0.0
C338 C 0.31165 0.87809 0.87022 0.0
C339 C 0.2932 0.85173 0.90506 0.0
C340 C 0.29052 0.84616 0.93265 0.0
C341 C 0.28528 0.8643 0.95166 0.0
C342 C 0.28224 0.8587 0.97757 0.0
C343 C 0.28415 0.83494 0.98468 0.0
C344 C 0.28909 0.81673 0.96588 0.0
C345 C 0.29223 0.82226 0.93995 0.0
H346 H 0.28172 0.83061 0.00474 0.0
H347 H 0.3002 0.88548 0.75339 0.0
H348 H 0.61423 0.45739 0.79799 0.0
H349 H 0.5966 0.47365 0.76122 0.0
H350 H 0.64239 0.43439 0.70888 0.0
H351 H 0.6604 0.41848 0.74552 0.0
H352 H 0.64539 0.47952 0.69374 0.0
H353 H 0.57316 0.41373 0.71995 0.0
H354 H 0.53954 0.39189 0.74986 0.0
H355 H 0.50672 0.45772 0.76079 0.0
H356 H 0.54037 0.48006 0.7312 0.0
H357 H 0.58297 0.48628 0.57553 0.0
H358 H 0.60038 0.47277 0.61397 0.0
H359 H 0.55163 0.51224 0.66252 0.0
H360 H 0.53385 0.52548 0.62417 0.0
H361 H 0.54974 0.46875 0.68075 0.0
H362 H 0.61992 0.53472 0.6556 0.0
H363 H 0.65392 0.55882 0.62758 0.0
H364 H 0.69082 0.49558 0.61658 0.0
H365 H 0.65682 0.47098 0.64427 0.0
C366 C 0.62069 0.45231 0.77867 0.0
C367 C 0.63885 0.4366 0.77486 0.0
C368 C 0.61036 0.46147 0.75756 0.0
C369 C 0.61775 0.45502 0.73202 0.0
C370 C 0.63621 0.43967 0.72825 0.0
C371 C 0.64655 0.43054 0.74932 0.0
C372 C 0.60683 0.46453 0.70921 0.0
C373 C 0.62444 0.47679 0.69076 0.0
C374 C 0.57949 0.46198 0.70558 0.0
C375 C 0.55948 0.44865 0.72361 0.0
C376 C 0.55893 0.42362 0.72893 0.0
C377 C 0.53983 0.41114 0.74578 0.0
C378 C 0.52106 0.42344 0.75728 0.0
C379 C 0.52131 0.44824 0.75192 0.0
C380 C 0.54038 0.46081 0.7351 0.0
C381 C 0.57595 0.49216 0.59436 0.0
C382 C 0.55697 0.50708 0.59658 0.0
C383 C 0.58608 0.48452 0.61644 0.0
C384 C 0.57767 0.49168 0.6414 0.0
C385 C 0.55859 0.50642 0.64363 0.0
C386 C 0.54846 0.51409 0.62157 0.0
C387 C 0.58833 0.4834 0.66507 0.0
C388 C 0.57069 0.47145 0.68371 0.0
C389 C 0.61566 0.48648 0.66906 0.0
C390 C 0.63565 0.50091 0.65175 0.0
C391 C 0.6351 0.52585 0.64695 0.0
C392 C 0.65442 0.53962 0.63119 0.0
C393 C 0.67447 0.52871 0.62024 0.0
C394 C 0.67524 0.50399 0.62503 0.0
C395 C 0.65596 0.49012 0.64075 0.0
H396 H 0.68946 0.53944 0.60811 0.0
H397 H 0.50628 0.41373 0.7703 0.0
H398 H 0.93999 0.67427 0.25456 0.0
H399 H 0.95366 0.65282 0.21511 0.0
H400 H 0.93133 0.58151 0.24986 0.0
H401 H 0.91941 0.60327 0.28997 0.0
H402 H 0.97156 0.57959 0.22259 0.0
H403 H 0.89171 0.60349 0.20295 0.0
H404 H 0.86168 0.63237 0.2 0.0
H405 H 0.91666 0.67707 0.14943 0.0
H406 H 0.94711 0.64858 0.1523 0.0
H407 H 0.9701 0.50842 0.09998 0.0
H408 H 0.9565 0.52707 0.14124 0.0
H409 H 0.98842 0.6015 0.11621 0.0
H410 H 1.00167 0.58314 0.07496 0.0
H411 H 0.9411 0.59925 0.13858 0.0
H412 H 0.02093 0.57354 0.15963 0.0
H413 H 0.04862 0.54246 0.16205 0.0
H414 H 0.98988 0.49806 0.20947 0.0
H415 H 0.96173 0.52876 0.20708 0.0
C416 C 0.93826 0.65405 0.25385 0.0
C417 C 0.92858 0.64048 0.27537 0.0
C418 C 0.94581 0.64169 0.23114 0.0
C419 C 0.94285 0.61529 0.22898 0.0
C420 C 0.93377 0.60182 0.25077 0.0
C421 C 0.92694 0.61429 0.27376 0.0
C422 C 0.94898 0.60178 0.20403 0.0
C423 C 0.96453 0.58371 0.20431 0.0
C424 C 0.94009 0.607 0.1799 0.0
C425 C 0.92174 0.62402 0.17799 0.0
C426 C 0.89742 0.61955 0.1913 0.0
C427 C 0.88033 0.63584 0.18963 0.0
C428 C 0.88728 0.65657 0.17458 0.0
C429 C 0.9113 0.66101 0.1611 0.0
C430 C 0.92846 0.64478 0.1627 0.0
C431 C 0.97414 0.52876 0.10321 0.0
C432 C 0.98701 0.54424 0.08405 0.0
C433 C 0.96649 0.53941 0.12691 0.0
C434 C 0.97165 0.56575 0.13203 0.0
C435 C 0.98419 0.58116 0.1128 0.0
C436 C 0.99182 0.57058 0.08917 0.0
C437 C 0.96392 0.57749 0.15721 0.0
C438 C 0.948 0.59514 0.15693 0.0
C439 C 0.97209 0.57155 0.18129 0.0
C440 C 0.98917 0.55333 0.18302 0.0
C441 C 0.01388 0.55708 0.17046 0.0
C442 C 0.02966 0.53954 0.17184 0.0
C443 C 0.02099 0.51827 0.18586 0.0
C444 C 0.99656 0.51453 0.1986 0.0
C445 C 0.98071 0.53201 0.19727 0.0
H446 H 0.03322 0.50471 0.18689 0.0
H447 H 0.87403 0.66917 0.17332 0.0
H448 H 0.35706 0.23051 0.15149 0.0
H449 H 0.37948 0.19676 0.13726 0.0
H450 H 0.32473 0.14486 0.18217 0.0
H451 H 0.30243 0.17872 0.19685 0.0
H452 H 0.37997 0.14336 0.18697 0.0
H453 H 0.31534 0.13777 0.12107 0.0
H454 H 0.29154 0.15606 0.08983 0.0
H455 H 0.36406 0.18448 0.04966 0.0
H456 H 0.3883 0.16652 0.08082 0.0
H457 H 0.42903 0.03916 0.12724 0.0
H458 H 0.40082 0.06682 0.14599 0.0
H459 H 0.43375 0.12219 0.09174 0.0
H460 H 0.46052 0.09405 0.07221 0.0
H461 H 0.38442 0.11809 0.09332 0.0
H462 H 0.45003 0.12788 0.15894 0.0
H463 H 0.47614 0.11173 0.18983 0.0
H464 H 0.40549 0.07849 0.2305 0.0
H465 H 0.37896 0.09424 0.19964 0.0
C466 C 0.3497 0.21188 0.15824 0.0
C467 C 0.32758 0.20712 0.17476 0.0
C468 C 0.36252 0.19265 0.15012 0.0
C469 C 0.35358 0.16831 0.15851 0.0
C470 C 0.33179 0.16352 0.17539 0.0
C471 C 0.3188 0.18277 0.18339 0.0
C472 C 0.36693 0.14797 0.14907 0.0
C473 C 0.38062 0.13744 0.16657 0.0
C474 C 0.36818 0.14072 0.12244 0.0
C475 C 0.3536 0.15089 0.10329 0.0
C476 C 0.32619 0.14798 0.1056 0.0
C477 C 0.31263 0.15827 0.08791 0.0
C478 C 0.32628 0.17144 0.06778 0.0
C479 C 0.35351 0.17425 0.06524 0.0
C480 C 0.36716 0.16396 0.08286 0.0
C481 C 0.43029 0.05736 0.11961 0.0
C482 C 0.4468 0.06457 0.09837 0.0
C483 C 0.41426 0.07317 0.1303 0.0
C484 C 0.41525 0.09674 0.12041 0.0
C485 C 0.43239 0.10407 0.0996 0.0
C486 C 0.44779 0.08806 0.08854 0.0
C487 C 0.3982 0.11376 0.1311 0.0
C488 C 0.38368 0.12368 0.1138 0.0
C489 C 0.39661 0.12073 0.15786 0.0
C490 C 0.41254 0.11205 0.17692 0.0
C491 C 0.44009 0.11709 0.17445 0.0
C492 C 0.45495 0.10799 0.19193 0.0
C493 C 0.44248 0.09404 0.21208 0.0
C494 C 0.41512 0.08928 0.21488 0.0
C495 C 0.40016 0.09832 0.19743 0.0
H496 H 0.45401 0.08695 0.22556 0.0
H497 H 0.31575 0.17946 0.05414 0.0
H498 H 0.1627 0.85933 0.71042 0.0
H499 H 0.14186 0.88642 0.68679 0.0
H500 H 0.06789 0.83243 0.69034 0.0
H501 H 0.0889 0.80472 0.7134 0.0
H502 H 0.07606 0.84885 0.6438 0.0
H503 H 0.07865 0.8885 0.72931 0.0
H504 H 0.09882 0.90668 0.77074 0.0
H505 H 0.15354 0.96264 0.73098 0.0
H506 H 0.13379 0.94465 0.68928 0.0
H507 H 0.99884 0.93282 0.60884 0.0
H508 H 0.0186 0.90527 0.63302 0.0
H509 H 0.09544 0.95216 0.62034 0.0
H510 H 0.07583 0.98 0.59599 0.0
H511 H 0.08457 0.93935 0.67199 0.0
H512 H 0.08026 0.89846 0.58599 0.0
H513 H 0.05822 0.87991 0.54554 0.0
H514 H 0.00398 0.82582 0.58794 0.0
H515 H 0.02553 0.84426 0.6287 0.0
C516 C 0.14199 0.85318 0.7062 0.0
C517 C 0.12742 0.82991 0.71378 0.0
C518 C 0.13007 0.86878 0.69284 0.0
C519 C 0.10323 0.86165 0.68724 0.0
C520 C 0.08863 0.83831 0.69458 0.0
C521 C 0.10064 0.82252 0.70772 0.0
C522 C 0.09071 0.87833 0.6731 0.0
C523 C 0.07756 0.86853 0.6502 0.0
C524 C 0.09308 0.90412 0.6812 0.0
C525 C 0.10491 0.9151 0.7062 0.0
C526 C 0.09509 0.90459 0.72941 0.0
C527 C 0.10641 0.91488 0.75293 0.0
C528 C 0.1275 0.93576 0.75348 0.0
C529 C 0.13722 0.94646 0.73052 0.0
C530 C 0.12594 0.93626 0.70694 0.0
C531 C 0.01995 0.93736 0.61121 0.0
C532 C 0.03581 0.95859 0.60055 0.0
C533 C 0.03118 0.92152 0.62492 0.0
C534 C 0.05842 0.92666 0.62821 0.0
C535 C 0.07434 0.94795 0.61787 0.0
C536 C 0.06314 0.96374 0.60394 0.0
C537 C 0.07016 0.90984 0.64274 0.0
C538 C 0.08309 0.91964 0.66569 0.0
C539 C 0.06729 0.884 0.63486 0.0
C540 C 0.05436 0.87286 0.61039 0.0
C541 C 0.06351 0.88273 0.5867 0.0
C542 C 0.05113 0.87221 0.56372 0.0
C543 C 0.02967 0.85174 0.56417 0.0
C544 C 0.02059 0.8417 0.58761 0.0
C545 C 0.03289 0.85215 0.61066 0.0
H546 H 0.02012 0.84362 0.54635 0.0
H547 H 0.13627 0.94368 0.77171 0.0
H548 H 0.75598 0.4303 0.86382 0.0
H549 H 0.79856 0.44591 0.88471 0.0
H550 H 0.76569 0.41558 0.95584 0.0
H551 H 0.72323 0.39915 0.93479 0.0
H552 H 0.79898 0.467 0.96155 0.0
H553 H 0.80061 0.38407 0.92555 0.0
H554 H 0.7961 0.34909 0.89186 0.0
H555 H 0.8563 0.39361 0.846 0.0
H556 H 0.86082 0.42907 0.87926 0.0
H557 H 0.92156 0.46999 0.02412 0.0
H558 H 0.87751 0.45482 0.00559 0.0
H559 H 0.90732 0.48248 0.93233 0.0
H560 H 0.95099 0.4984 0.9511 0.0
H561 H 0.8751 0.43208 0.9289 0.0
H562 H 0.87361 0.51509 0.96547 0.0
H563 H 0.87914 0.54922 1.00014 0.0
H564 H 0.81938 0.50398 0.04584 0.0
H565 H 0.81381 0.46936 0.01158 0.0
C566 C 0.75774 0.42705 0.88395 0.0
C567 C 0.73615 0.41332 0.89756 0.0
C568 C 0.78214 0.43597 0.89588 0.0
C569 C 0.78543 0.43194 0.9219 0.0
C570 C 0.76369 0.41898 0.93579 0.0
C571 C 0.73945 0.40948 0.92368 0.0
C572 C 0.81183 0.44032 0.93413 0.0
C573 C 0.81552 0.45912 0.95462 0.0
C574 C 0.83365 0.43043 0.92494 0.0
C575 C 0.83077 0.40934 0.90472 0.0
C576 C 0.81264 0.38653 0.90813 0.0
C577 C 0.81013 0.36659 0.88915 0.0
C578 C 0.82583 0.36916 0.86675 0.0
C579 C 0.8441 0.39167 0.86332 0.0
C580 C 0.84663 0.4117 0.88223 0.0
C581 C 0.91861 0.47274 0.00407 0.0
C582 C 0.93956 0.48536 0.989 0.0
C583 C 0.89348 0.46415 0.99351 0.0
C584 C 0.88902 0.46755 0.96754 0.0
C585 C 0.9102 0.47963 0.95237 0.0
C586 C 0.93511 0.48876 0.9631 0.0
C587 C 0.86229 0.4588 0.9562 0.0
C588 C 0.85855 0.43995 0.93585 0.0
C589 C 0.84048 0.46863 0.96558 0.0
C590 C 0.84351 0.4895 0.98608 0.0
C591 C 0.86181 0.51231 0.98301 0.0
C592 C 0.86493 0.53177 1.00257 0.0
C593 C 0.84968 0.52873 0.02522 0.0
C594 C 0.83121 0.50627 0.0283 0.0
C595 C 0.82806 0.48673 0.00881 0.0
H596 H 0.85212 0.54382 0.04035 0.0
H597 H 0.8239 0.35368 0.8521 0.0
H598 H 0.78237 0.67269 0.40769 0.0
H599 H 0.74033 0.65651 0.42909 0.0
H600 H 0.7676 0.59083 0.44781 0.0
H601 H 0.8095 0.60659 0.42577 0.0
H602 H 0.71888 0.57797 0.43132 0.0
H603 H 0.76512 0.64114 0.49373 0.0
H604 H 0.78919 0.6837 0.50892 0.0
H605 H 0.72328 0.7144 0.49109 0.0
H606 H 0.69893 0.67206 0.47556 0.0
H607 H 0.61722 0.53158 0.51864 0.0
H608 H 0.66092 0.54916 0.50097 0.0
H609 H 0.6362 0.61773 0.48757 0.0
H610 H 0.59307 0.60069 0.50704 0.0
H611 H 0.68389 0.62948 0.50111 0.0
H612 H 0.63622 0.56528 0.44126 0.0
H613 H 0.61257 0.5227 0.42573 0.0
H614 H 0.68169 0.49401 0.43586 0.0
H615 H 0.70521 0.53595 0.45282 0.0
C616 C 0.77939 0.65474 0.41626 0.0
C617 C 0.79928 0.64094 0.4151 0.0
C618 C 0.75541 0.64561 0.42866 0.0
C619 C 0.75101 0.62271 0.44051 0.0
C620 C 0.77062 0.60862 0.4389 0.0
C621 C 0.79454 0.61762 0.42627 0.0
C622 C 0.72582 0.61324 0.45427 0.0
C623 C 0.71136 0.58904 0.44686 0.0
C624 C 0.71568 0.62805 0.47396 0.0
C625 C 0.73031 0.65349 0.48329 0.0
C626 C 0.75584 0.657 0.49289 0.0
C627 C 0.76951 0.68108 0.50159 0.0
C628 C 0.7578 0.70175 0.50091 0.0
C629 C 0.73235 0.69838 0.49159 0.0
C630 C 0.71859 0.67435 0.48287 0.0
C631 C 0.62145 0.55062 0.51241 0.0
C632 C 0.60208 0.56493 0.51416 0.0
C633 C 0.64625 0.56054 0.50205 0.0
C634 C 0.65163 0.58448 0.49216 0.0
C635 C 0.6325 0.59917 0.49492 0.0
C636 C 0.60794 0.58952 0.50607 0.0
C637 C 0.67687 0.59397 0.47836 0.0
C638 C 0.69133 0.61827 0.48564 0.0
C639 C 0.68694 0.57921 0.45843 0.0
C640 C 0.6724 0.55378 0.44869 0.0
C641 C 0.64623 0.5498 0.44062 0.0
C642 C 0.63279 0.52571 0.43164 0.0
C643 C 0.64548 0.50555 0.4301 0.0
C644 C 0.67167 0.50947 0.43746 0.0
C645 C 0.68503 0.53338 0.44687 0.0
H646 H 0.63509 0.48695 0.42304 0.0
H647 H 0.76841 0.72037 0.50765 0.0
H648 H 0.21521 0.28001 0.17951 0.0
H649 H 0.18346 0.29889 0.15873 0.0
H650 H 0.24709 0.34916 0.1216 0.0
H651 H 0.27882 0.33079 0.14255 0.0
H652 H 0.21467 0.37442 0.14575 0.0
H653 H 0.2058 0.29995 0.08823 0.0
H654 H 0.1972 0.25434 0.07592 0.0
H655 H 0.11901 0.24538 0.10796 0.0
H656 H 0.1273 0.29087 0.12094 0.0
H657 H 0.13458 0.43005 0.06901 0.0
H658 H 0.16729 0.40802 0.08312 0.0
H659 H 0.10572 0.35424 0.11879 0.0
H660 H 0.07301 0.37529 0.10377 0.0
H661 H 0.13798 0.33059 0.09369 0.0
H662 H 0.14711 0.40381 0.15335 0.0
H663 H 0.15589 0.44884 0.16836 0.0
H664 H 0.23338 0.45966 0.13435 0.0
H665 H 0.22489 0.41479 0.11871 0.0
C666 C 0.2224 0.29484 0.16663 0.0
C667 C 0.24955 0.30405 0.16282 0.0
C668 C 0.20423 0.30554 0.15468 0.0
C669 C 0.21293 0.3254 0.13857 0.0
C670 C 0.23997 0.33391 0.13402 0.0
C671 C 0.25808 0.32335 0.146 0.0
C672 C 0.19419 0.33881 0.12807 0.0
C673 C 0.19814 0.36491 0.13396 0.0
C674 C 0.1722 0.32623 0.11341 0.0
C675 C 0.16729 0.29881 0.10582 0.0
C676 C 0.18687 0.28823 0.09292 0.0
C677 C 0.18203 0.26239 0.08578 0.0
C678 C 0.1576 0.24696 0.09122 0.0
C679 C 0.13794 0.25734 0.1038 0.0
C680 C 0.14271 0.28315 0.11106 0.0
C681 C 0.12802 0.4134 0.07966 0.0
C682 C 0.10117 0.40456 0.08543 0.0
C683 C 0.14675 0.40099 0.08794 0.0
C684 C 0.13897 0.37965 0.1023 0.0
C685 C 0.11221 0.37071 0.10782 0.0
C686 C 0.09353 0.38295 0.09945 0.0
C687 C 0.15848 0.36624 0.11137 0.0
C688 C 0.15464 0.34014 0.10529 0.0
C689 C 0.18053 0.37879 0.12602 0.0
C690 C 0.1852 0.406 0.13451 0.0
C691 C 0.16587 0.41586 0.14873 0.0
C692 C 0.17084 0.44135 0.15742 0.0
C693 C 0.19514 0.45712 0.15223 0.0
C694 C 0.21453 0.44745 0.13828 0.0
C695 C 0.20963 0.422 0.12947 0.0
H696 H 0.19899 0.47682 0.15908 0.0
H697 H 0.15388 0.22697 0.08563 0.0
H698 H 0.63746 0.25905 0.91367 0.0
H699 H 0.61753 0.21762 0.92921 0.0
H700 H 0.57864 0.25343 0.99112 0.0
H701 H 0.59882 0.29468 0.97609 0.0
H702 H 0.59941 0.21933 0.00959 0.0
H703 H 0.54529 0.2199 0.9361 0.0
H704 H 0.53797 0.22417 0.8901 0.0
H705 H 0.57505 0.16246 0.86848 0.0
H706 H 0.58281 0.15801 0.91437 0.0
H707 H 0.51552 0.11232 0.05776 0.0
H708 H 0.53364 0.15221 0.03877 0.0
H709 H 0.56075 0.11189 0.9722 0.0
H710 H 0.54027 0.07178 0.99033 0.0
H711 H 0.54779 0.14811 0.95511 0.0
H712 H 0.60191 0.14724 0.02885 0.0
H713 H 0.61147 0.14467 0.07472 0.0
H714 H 0.57667 0.20799 0.09585 0.0
H715 H 0.56665 0.21074 0.05019 0.0
C716 C 0.62458 0.2581 0.93053 0.0
C717 C 0.61986 0.28034 0.94361 0.0
C718 C 0.61303 0.23432 0.93935 0.0
C719 C 0.5963 0.23219 0.96131 0.0
C720 C 0.59145 0.25439 0.97419 0.0
C721 C 0.603 0.27808 0.96547 0.0
C722 C 0.58444 0.2071 0.97159 0.0
C723 C 0.58787 0.20384 0.99771 0.0
C724 C 0.57 0.1865 0.95609 0.0
C725 C 0.56481 0.18877 0.9286 0.0
C726 C 0.55196 0.20732 0.92151 0.0
C727 C 0.54773 0.20976 0.89547 0.0
C728 C 0.5561 0.19364 0.87637 0.0
C729 C 0.5686 0.17495 0.88329 0.0
C730 C 0.57288 0.17243 0.90931 0.0
C731 C 0.52534 0.112 0.03904 0.0
C732 C 0.52672 0.08892 0.02566 0.0
C733 C 0.53604 0.13493 0.02825 0.0
C734 C 0.54968 0.13553 0.00431 0.0
C735 C 0.55063 0.1123 0.99074 0.0
C736 C 0.53899 0.08928 1.00114 0.0
C737 C 0.56259 0.1602 0.99338 0.0
C738 C 0.55941 0.16344 0.96708 0.0
C739 C 0.57746 0.18084 0.00873 0.0
C740 C 0.58334 0.17903 0.03617 0.0
C741 C 0.59617 0.1605 0.04332 0.0
C742 C 0.60168 0.15903 0.06927 0.0
C743 C 0.59463 0.17611 0.08819 0.0
C744 C 0.5821 0.19474 0.0812 0.0
C745 C 0.57651 0.19627 0.0553 0.0
H746 H 0.59893 0.17494 0.10826 0.0
H747 H 0.55285 0.19559 0.85621 0.0
H748 H 0.9287 0.76267 0.37266 0.0
H749 H 0.93785 0.80372 0.39727 0.0
H750 H 0.92323 0.76673 0.46855 0.0
H751 H 0.91373 0.72579 0.44423 0.0
H752 H 0.90003 0.80678 0.46989 0.0
H753 H 0.98593 0.7908 0.44861 0.0
H754 H 0.0192 0.77919 0.41797 0.0
H755 H 0.01837 0.84369 0.37555 0.0
H756 H 0.98486 0.85552 0.4058 0.0
H757 H 0.95482 0.91436 0.55411 0.0
H758 H 0.94287 0.87262 0.53091 0.0
H759 H 0.96851 0.90607 0.45899 0.0
H760 H 0.98219 0.94721 0.48251 0.0
H761 H 0.98549 0.86672 0.45873 0.0
H762 H 0.89975 0.88346 0.48015 0.0
H763 H 0.86587 0.89468 0.51026 0.0
H764 H 0.86516 0.82919 0.55162 0.0
H765 H 0.89929 0.81775 0.52195 0.0
C766 C 0.92775 0.76325 0.39357 0.0
C767 C 0.92072 0.74085 0.4064 0.0
C768 C 0.93286 0.78675 0.40764 0.0
C769 C 0.93132 0.78834 0.43482 0.0
C770 C 0.92442 0.76603 0.44763 0.0
C771 C 0.91924 0.74259 0.43363 0.0
C772 C 0.93756 0.81319 0.44997 0.0
C773 C 0.91878 0.81985 0.46763 0.0
C774 C 0.96185 0.83038 0.44685 0.0
C775 C 0.98284 0.82397 0.42937 0.0
C776 C 0.99286 0.8025 0.43273 0.0
C777 C 0.01172 0.79586 0.41543 0.0
C778 C 0.02086 0.81067 0.3948 0.0
C779 C 0.01127 0.83224 0.39154 0.0
C780 C 0.99239 0.83895 0.40879 0.0
C781 C 0.95742 0.9127 0.5333 0.0
C782 C 0.96903 0.93389 0.51995 0.0
C783 C 0.95057 0.88887 0.51999 0.0
C784 C 0.95433 0.88605 0.49298 0.0
C785 C 0.9654 0.90754 0.47974 0.0
C786 C 0.97299 0.93111 0.49313 0.0
C787 C 0.94775 0.86079 0.47844 0.0
C788 C 0.96659 0.85388 0.46097 0.0
C789 C 0.92341 0.84349 0.48167 0.0
C790 C 0.90219 0.84984 0.49892 0.0
C791 C 0.89239 0.87147 0.49568 0.0
C792 C 0.87317 0.87789 0.51269 0.0
C793 C 0.8634 0.86268 0.53287 0.0
C794 C 0.87275 0.84095 0.53599 0.0
C795 C 0.892 0.83447 0.51906 0.0
H796 H 0.84858 0.86772 0.54605 0.0
H797 H 0.0354 0.80546 0.38137 0.0
H798 H 0.26776 0.70705 0.74336 0.0
H799 H 0.3049 0.69169 0.72278 0.0
H800 H 0.26251 0.67407 0.65144 0.0
H801 H 0.22576 0.69054 0.67169 0.0
H802 H 0.28757 0.63381 0.67319 0.0
H803 H 0.30499 0.71986 0.64857 0.0
H804 H 0.31078 0.76576 0.65789 0.0
H805 H 0.37544 0.76616 0.70711 0.0
H806 H 0.3697 0.72012 0.69846 0.0
H807 H 0.38947 0.60379 0.59155 0.0
H808 H 0.3523 0.61991 0.60998 0.0
H809 H 0.40236 0.66452 0.66862 0.0
H810 H 0.44 0.64985 0.64925 0.0
H811 H 0.37244 0.69146 0.65335 0.0
H812 H 0.3573 0.60722 0.6788 0.0
H813 H 0.35069 0.56091 0.67437 0.0
H814 H 0.28169 0.55592 0.6297 0.0
H815 H 0.28839 0.60223 0.63306 0.0
C816 C 0.26644 0.69988 0.72329 0.0
C817 C 0.24404 0.69988 0.70903 0.0
C818 C 0.2876 0.69119 0.71158 0.0
C819 C 0.28636 0.68177 0.68564 0.0
C820 C 0.26378 0.68133 0.67148 0.0
C821 C 0.24292 0.69075 0.68298 0.0
C822 C 0.30871 0.67236 0.67339 0.0
C823 C 0.30605 0.64633 0.66839 0.0
C824 C 0.33298 0.68879 0.66817 0.0
C825 C 0.33672 0.7165 0.6731 0.0
C826 C 0.32027 0.72969 0.66159 0.0
C827 C 0.32358 0.75574 0.66671 0.0
C828 C 0.34342 0.76886 0.68315 0.0
C829 C 0.36005 0.75596 0.69442 0.0
C830 C 0.35679 0.72989 0.6894 0.0
C831 C 0.39272 0.61727 0.60818 0.0
C832 C 0.41788 0.6254 0.61889 0.0
C833 C 0.37128 0.62623 0.61895 0.0
C834 C 0.37431 0.64316 0.64101 0.0
C835 C 0.3994 0.6514 0.65168 0.0
C836 C 0.42091 0.6427 0.64073 0.0
C837 C 0.3515 0.65258 0.65279 0.0
C838 C 0.35403 0.67872 0.6579 0.0
C839 C 0.3272 0.63613 0.65855 0.0
C840 C 0.32358 0.60827 0.65588 0.0
C841 C 0.34096 0.59629 0.66767 0.0
C842 C 0.33719 0.57001 0.66535 0.0
C843 C 0.3159 0.55547 0.65159 0.0
C844 C 0.29833 0.56719 0.64013 0.0
C845 C 0.30213 0.59345 0.6422 0.0
H846 H 0.31293 0.53512 0.64993 0.0
H847 H 0.34595 0.78903 0.68709 0.0
H848 H 0.78199 0.78613 0.81905 0.0
H849 H 0.81254 0.81494 0.79225 0.0
H850 H 0.76974 0.87323 0.81215 0.0
H851 H 0.73947 0.84465 0.83953 0.0
H852 H 0.78189 0.85904 0.75475 0.0
H853 H 0.81958 0.88811 0.83744 0.0
H854 H 0.83614 0.88303 0.88022 0.0
H855 H 0.89521 0.84748 0.8441 0.0
H856 H 0.87875 0.8521 0.80107 0.0
H857 H 0.86669 0.96223 0.70296 0.0
H858 H 0.84061 0.93645 0.73491 0.0
H859 H 0.88966 0.8822 0.72323 0.0
H860 H 0.91633 0.90824 0.69121 0.0
H861 H 0.87499 0.89493 0.77762 0.0
H862 H 0.83643 0.8662 0.69451 0.0
H863 H 0.81951 0.87222 0.65216 0.0
H864 H 0.76148 0.90813 0.68987 0.0
H865 H 0.77829 0.90255 0.73245 0.0
C866 C 0.77914 0.80509 0.81763 0.0
C867 C 0.75859 0.81334 0.8313 0.0
C868 C 0.79662 0.82149 0.80254 0.0
C869 C 0.79337 0.84612 0.80054 0.0
C870 C 0.77255 0.85428 0.81375 0.0
C871 C 0.75541 0.83805 0.82934 0.0
C872 C 0.8113 0.86293 0.78377 0.0
C873 C 0.80214 0.86718 0.75986 0.0
C874 C 0.83776 0.873 0.79038 0.0
C875 C 0.84774 0.87014 0.8161 0.0
C876 C 0.83592 0.87896 0.83864 0.0
C877 C 0.84533 0.87624 0.86292 0.0
C878 C 0.86665 0.86486 0.86488 0.0
C879 C 0.87866 0.85625 0.84255 0.0
C880 C 0.86932 0.85894 0.81821 0.0
C881 C 0.87226 0.94505 0.70748 0.0
C882 C 0.89355 0.93722 0.69462 0.0
C883 C 0.85728 0.93032 0.72564 0.0
C884 C 0.86324 0.90749 0.73125 0.0
C885 C 0.8849 0.89986 0.71909 0.0
C886 C 0.8999 0.91458 0.70071 0.0
C887 C 0.84556 0.89098 0.74855 0.0
C888 C 0.85476 0.88675 0.77252 0.0
C889 C 0.81903 0.88098 0.74207 0.0
C890 C 0.80872 0.88413 0.71659 0.0
C891 C 0.82017 0.87552 0.69373 0.0
C892 C 0.81058 0.87882 0.66971 0.0
C893 C 0.78946 0.89059 0.66832 0.0
C894 C 0.77784 0.89903 0.69097 0.0
C895 C 0.78736 0.89577 0.71505 0.0
H896 H 0.78207 0.89314 0.6497 0.0
H897 H 0.87392 0.86276 0.8837 0.0
H898 H 0.821 0.19842 0.26745 0.0
H899 H 0.78442 0.18093 0.23787 0.0
H900 H 0.73565 0.2242 0.28148 0.0
H901 H 0.77198 0.24218 0.31036 0.0
H902 H 0.7129 0.17131 0.27173 0.0
H903 H 0.75373 0.24452 0.23005 0.0
H904 H 0.78966 0.27489 0.21033 0.0
H905 H 0.8006 0.21799 0.15168 0.0
H906 H 0.76505 0.18707 0.17141 0.0
H907 H 0.6041 0.13701 0.18937 0.0
H908 H 0.63923 0.16436 0.21458 0.0
H909 H 0.69705 0.13837 0.16463 0.0
H910 H 0.6621 0.11232 0.13831 0.0
H911 H 0.71423 0.18606 0.17849 0.0
H912 H 0.673 0.11204 0.22443 0.0
H913 H 0.636 0.08401 0.24563 0.0
H914 H 0.62445 0.14585 0.29777 0.0
H915 H 0.66113 0.17431 0.27662 0.0
C916 C 0.80247 0.20417 0.27059 0.0
C917 C 0.79931 0.22169 0.29107 0.0
C918 C 0.78171 0.19432 0.2537 0.0
C919 C 0.75747 0.20144 0.25753 0.0
C920 C 0.75425 0.2186 0.27818 0.0
C921 C 0.77505 0.22886 0.29459 0.0
C922 C 0.73502 0.1904 0.24062 0.0
C923 C 0.71303 0.17468 0.25138 0.0
C924 C 0.73531 0.19498 0.21418 0.0
C925 C 0.757 0.21335 0.20247 0.0
C926 C 0.76405 0.23835 0.21318 0.0
C927 C 0.7843 0.2557 0.20195 0.0
C928 C 0.79749 0.24835 0.17983 0.0
C929 C 0.79042 0.22363 0.16888 0.0
C930 C 0.77023 0.20618 0.18009 0.0
C931 C 0.62428 0.13761 0.18329 0.0
C932 C 0.63024 0.12213 0.16198 0.0
C933 C 0.64437 0.15303 0.19796 0.0
C934 C 0.6708 0.15287 0.19197 0.0
C935 C 0.67681 0.13861 0.16985 0.0
C936 C 0.65677 0.12349 0.15496 0.0
C937 C 0.69223 0.16626 0.20939 0.0
C938 C 0.71405 0.18259 0.19881 0.0
C939 C 0.69166 0.16249 0.23615 0.0
C940 C 0.6696 0.14533 0.24876 0.0
C941 C 0.66243 0.11968 0.24029 0.0
C942 C 0.64153 0.10372 0.25231 0.0
C943 C 0.62783 0.11316 0.27299 0.0
C944 C 0.63503 0.13857 0.28172 0.0
C945 C 0.65586 0.15462 0.26972 0.0
H946 H 0.61168 0.10076 0.28228 0.0
H947 H 0.81312 0.26182 0.17112 0.0
H948 H 0.46286 0.67802 0.30693 0.0
H949 H 0.4745 0.65664 0.34317 0.0
H950 H 0.41653 0.58987 0.31965 0.0
H951 H 0.40356 0.61201 0.28455 0.0
H952 H 0.41599 0.59058 0.36729 0.0
H953 H 0.48866 0.59727 0.30927 0.0
H954 H 0.52401 0.61758 0.28013 0.0
H955 H 0.55983 0.66709 0.3435 0.0
H956 H 0.52457 0.64716 0.37299 0.0
H957 H 0.47644 0.5178 0.45004 0.0
H958 H 0.46086 0.53422 0.41201 0.0
H959 H 0.50143 0.60941 0.43748 0.0
H960 H 0.51701 0.59328 0.47518 0.0
H961 H 0.51022 0.59968 0.38645 0.0
H962 H 0.43279 0.5878 0.44393 0.0
H963 H 0.39776 0.56183 0.46949 0.0
H964 H 0.37186 0.51397 0.40154 0.0
H965 H 0.40692 0.53951 0.37565 0.0
C966 C 0.45247 0.65884 0.30957 0.0
C967 C 0.43226 0.64683 0.29269 0.0
C968 C 0.45936 0.64639 0.33024 0.0
C969 C 0.44708 0.6211 0.33412 0.0
C970 C 0.42655 0.60924 0.31742 0.0
C971 C 0.41913 0.62197 0.2972 0.0
C972 C 0.45565 0.60722 0.35542 0.0
C973 C 0.43665 0.5924 0.37111 0.0
C974 C 0.48255 0.60895 0.36078 0.0
C975 C 0.50388 0.6209 0.34325 0.0
C976 C 0.50401 0.61258 0.31694 0.0
C977 C 0.52404 0.62399 0.30038 0.0
C978 C 0.54411 0.64366 0.30995 0.0
C979 C 0.54426 0.65187 0.33612 0.0
C980 C 0.52429 0.64049 0.35278 0.0
C981 C 0.48204 0.53784 0.44755 0.0
C982 C 0.49803 0.55414 0.46588 0.0
C983 C 0.47297 0.54726 0.42579 0.0
C984 C 0.47971 0.57321 0.42177 0.0
C985 C 0.49584 0.58937 0.43996 0.0
C986 C 0.50473 0.58004 0.46168 0.0
C987 C 0.47063 0.58385 0.3986 0.0
C988 C 0.48958 0.59791 0.38248 0.0
C989 C 0.44376 0.58059 0.39234 0.0
C990 C 0.42259 0.56544 0.40791 0.0
C991 C 0.41971 0.57165 0.43448 0.0
C992 C 0.39984 0.55702 0.44902 0.0
C993 C 0.38263 0.53624 0.43716 0.0
C994 C 0.38521 0.53007 0.41071 0.0
C995 C 0.40505 0.54463 0.3961 0.0
H996 H 0.36726 0.52493 0.44844 0.0
H997 H 0.55958 0.65251 0.29708 0.0
H998 H 0.15681 0.38133 0.79828 0.0
H999 H 0.13655 0.40001 0.8357 0.0
H1000 H 0.10685 0.44715 0.78606 0.0
H1001 H 0.12848 0.42951 0.74881 0.0
H1002 H 0.12166 0.47347 0.82672 0.0
H1003 H 0.06707 0.39125 0.81278 0.0
H1004 H 0.05588 0.34483 0.80644 0.0
H1005 H 0.08699 0.33921 0.88081 0.0
H1006 H 0.09863 0.3856 0.88747 0.0
H1007 H 0.03196 0.50668 0.92373 0.0
H1008 H 0.05151 0.4901 0.88464 0.0
H1009 H 0.09152 0.44804 0.9308 0.0
H1010 H 0.07165 0.46417 0.97001 0.0
H1011 H 0.06886 0.41925 0.89052 0.0
H1012 H 0.12399 0.50373 0.90216 0.0
H1013 H 0.13346 0.55025 0.90632 0.0
H1014 H 0.09706 0.55106 0.83347 0.0
H1015 H 0.08716 0.50456 0.82902 0.0
C1016 C 0.14618 0.39587 0.79543 0.0
C1017 C 0.14431 0.40405 0.77066 0.0
C1018 C 0.13429 0.40633 0.8168 0.0
C1019 C 0.11951 0.42458 0.81375 0.0
C1020 C 0.11805 0.43307 0.78902 0.0
C1021 C 0.1305 0.42305 0.76772 0.0
C1022 C 0.10613 0.43522 0.8364 0.0
C1023 C 0.10976 0.46152 0.84041 0.0
C1024 C 0.09075 0.4198 0.85455 0.0
C1025 C 0.08393 0.3919 0.85051 0.0
C1026 C 0.07171 0.38011 0.82769 0.0
C1027 C 0.06524 0.35381 0.82406 0.0
C1028 C 0.07077 0.33909 0.84318 0.0
C1029 C 0.08274 0.35064 0.866 0.0
C1030 C 0.08924 0.37693 0.86973 0.0
C1031 C 0.04498 0.49395 0.92563 0.0
C1032 C 0.05019 0.48673 0.95008 0.0
C1033 C 0.05628 0.4846 0.90321 0.0
C1034 C 0.07324 0.46802 0.90474 0.0
C1035 C 0.07851 0.46083 0.92912 0.0
C1036 C 0.06715 0.4701 0.95155 0.0
C1037 C 0.08483 0.45742 0.88098 0.0
C1038 C 0.0807 0.43111 0.87673 0.0
C1039 C 0.09927 0.47281 0.86233 0.0
C1040 C 0.1046 0.5007 0.86541 0.0
C1041 C 0.11777 0.51384 0.88718 0.0
C1042 C 0.12328 0.5402 0.88954 0.0
C1043 C 0.11581 0.5536 0.87021 0.0
C1044 C 0.1028 0.54067 0.84846 0.0
C1045 C 0.09726 0.51433 0.846 0.0
H1046 H 0.12015 0.574 0.87205 0.0
H1047 H 0.06575 0.31873 0.84034 0.0
H1048 H 0.7084 0.90158 0.93574 0.0
H1049 H 0.67594 0.92222 0.95795 0.0
H1050 H 0.61342 0.8617 0.9291 0.0
H1051 H 0.64572 0.84095 0.9067 0.0
H1052 H 0.60288 0.90762 0.92346 0.0
H1053 H 0.62697 0.86407 0.99061 0.0
H1054 H 0.65632 0.8487 0.01875 0.0
H1055 H 0.68963 0.92477 0.04702 0.0
H1056 H 0.66067 0.94063 0.01878 0.0
H1057 H 0.50828 0.95183 0.00617 0.0
H1058 H 0.5361 0.92593 0.98442 0.0
H1059 H 0.60518 0.98108 0.00899 0.0
H1060 H 0.57738 0.00705 0.03142 0.0
H1061 H 0.60891 0.93345 0.01722 0.0
H1062 H 0.58299 0.97538 0.94559 0.0
H1063 H 0.55061 0.98709 0.91797 0.0
H1064 H 0.51653 0.90881 0.8994 0.0
H1065 H 0.54858 0.89667 0.9271 0.0
C1066 C 0.68776 0.89265 0.93413 0.0
C1067 C 0.67961 0.86964 0.91949 0.0
C1068 C 0.66926 0.90438 0.94692 0.0
C1069 C 0.64235 0.89331 0.94533 0.0
C1070 C 0.63412 0.87048 0.93057 0.0
C1071 C 0.65261 0.85867 0.91783 0.0
C1072 C 0.6229 0.90602 0.95872 0.0
C1073 C 0.60393 0.91298 0.94403 0.0
C1074 C 0.62426 0.91289 0.98551 0.0
C1075 C 0.64185 0.90354 1.00241 0.0
C1076 C 0.64073 0.87754 1.00266 0.0
C1077 C 0.65725 0.86873 0.01866 0.0
C1078 C 0.67488 0.88575 0.03462 0.0
C1079 C 0.67598 0.91161 0.03463 0.0
C1080 C 0.6595 0.92052 0.01866 0.0
C1081 C 0.52939 0.9586 0.00689 0.0
C1082 C 0.54066 0.98157 0.02048 0.0
C1083 C 0.54525 0.94376 0.99433 0.0
C1084 C 0.57266 0.95175 0.99482 0.0
C1085 C 0.58401 0.97465 0.00837 0.0
C1086 C 0.56814 0.98947 0.02111 0.0
C1087 C 0.58955 0.93592 0.98179 0.0
C1088 C 0.60788 0.92813 0.99664 0.0
C1089 C 0.58716 0.92782 0.95525 0.0
C1090 C 0.56801 0.93515 0.93856 0.0
C1091 C 0.56848 0.96069 0.93573 0.0
C1092 C 0.55021 0.9674 0.92004 0.0
C1093 C 0.53148 0.94871 0.90699 0.0
C1094 C 0.53103 0.92327 0.90954 0.0
C1095 C 0.54926 0.91647 0.92519 0.0
H1096 H 0.51736 0.95394 0.89485 0.0
H1097 H 0.68765 0.8789 0.04701 0.0
H1098 H 0.93866 0.20516 0.38762 0.0
H1099 H 0.95573 0.17826 0.41526 0.0
H1100 H 0.87711 0.13413 0.42629 0.0
H1101 H 0.85987 0.16215 0.40019 0.0
H1102 H 0.89954 0.14151 0.46954 0.0
H1103 H 0.93068 0.11652 0.38277 0.0
H1104 H 0.95619 0.12428 0.34214 0.0
H1105 H 0.02679 0.1522 0.3852 0.0
H1106 H 1.00166 0.14486 0.42602 0.0
H1107 H 0.92809 0.03364 0.52071 0.0
H1108 H 0.91337 0.06443 0.49597 0.0
H1109 H 0.99431 0.10212 0.48318 0.0
H1110 H 0.00879 0.07011 0.50587 0.0
H1111 H 0.97273 0.10036 0.44215 0.0
H1112 H 0.94673 0.12577 0.52738 0.0
H1113 H 0.92486 0.12139 0.57018 0.0
H1114 H 0.8497 0.09784 0.53412 0.0
H1115 H 0.87114 0.1018 0.4911 0.0
C1116 C 0.92508 0.1896 0.39583 0.0
C1117 C 0.89796 0.18565 0.39169 0.0
C1118 C 0.93488 0.1741 0.41151 0.0
C1119 C 0.91783 0.15373 0.42251 0.0
C1120 C 0.89073 0.14967 0.41807 0.0
C1121 C 0.88087 0.16561 0.40305 0.0
C1122 C 0.92781 0.13702 0.43929 0.0
C1123 C 0.91535 0.13226 0.4634 0.0
C1124 C 0.94934 0.12589 0.43202 0.0
C1125 C 0.96423 0.1304 0.4074 0.0
C1126 C 0.9516 0.12448 0.38354 0.0
C1127 C 0.966 0.12878 0.36049 0.0
C1128 C 0.99307 0.1388 0.36109 0.0
C1129 C 0.00582 0.14449 0.38474 0.0
C1130 C 0.99151 0.14026 0.40782 0.0
C1131 C 0.94257 0.0485 0.51242 0.0
C1132 C 0.96946 0.04944 0.51469 0.0
C1133 C 0.93422 0.0663 0.49861 0.0
C1134 C 0.95268 0.08596 0.48793 0.0
C1135 C 0.97961 0.08712 0.49096 0.0
C1136 C 0.98791 0.06884 0.5039 0.0
C1137 C 0.94422 0.10449 0.4723 0.0
C1138 C 0.95698 0.10964 0.44844 0.0
C1139 C 0.92349 0.1165 0.48016 0.0
C1140 C 0.91057 0.11387 0.50601 0.0
C1141 C 0.92556 0.11947 0.52858 0.0
C1142 C 0.91323 0.1171 0.55288 0.0
C1143 C 0.88592 0.10929 0.55486 0.0
C1144 C 0.87086 0.10386 0.53255 0.0
C1145 C 0.88308 0.10619 0.50821 0.0
H1146 H 0.87641 0.10748 0.57369 0.0
H1147 H 0.00418 0.1421 0.34323 0.0
H1148 H 0.27096 0.67581 0.12367 0.0
H1149 H 0.2314 0.65062 0.10349 0.0
H1150 H 0.25253 0.58254 0.12401 0.0
H1151 H 0.29254 0.60785 0.14464 0.0
H1152 H 0.23363 0.58017 0.07178 0.0
H1153 H 0.20578 0.59747 0.15777 0.0
H1154 H 0.20203 0.62316 0.19834 0.0
H1155 H 0.16349 0.67069 0.15831 0.0
H1156 H 0.16725 0.6454 0.11741 0.0
H1157 H 0.0993 0.50954 0.05078 0.0
H1158 H 0.14269 0.52784 0.06901 0.0
H1159 H 0.13565 0.60159 0.04958 0.0
H1160 H 0.09255 0.58329 0.03063 0.0
H1161 H 0.14774 0.59684 0.10331 0.0
H1162 H 0.17744 0.57791 0.01634 0.0
H1163 H 0.1813 0.55039 0.9771 0.0
H1164 H 0.21564 0.50264 0.02123 0.0
H1165 H 0.21171 0.52976 0.06082 0.0
C1166 C 0.26736 0.65549 0.12396 0.0
C1167 C 0.28495 0.6439 0.13595 0.0
C1168 C 0.24464 0.64109 0.11238 0.0
C1169 C 0.2389 0.61471 0.11236 0.0
C1170 C 0.2566 0.60289 0.1238 0.0
C1171 C 0.27937 0.61738 0.13568 0.0
C1172 C 0.21394 0.59999 0.10088 0.0
C1173 C 0.21479 0.58342 0.07894 0.0
C1174 C 0.18937 0.60437 0.11005 0.0
C1175 C 0.187 0.61969 0.13451 0.0
C1176 C 0.19669 0.61353 0.15759 0.0
C1177 C 0.19451 0.62797 0.18064 0.0
C1178 C 0.18258 0.64858 0.18089 0.0
C1179 C 0.17274 0.65473 0.15808 0.0
C1180 C 0.17484 0.64032 0.13496 0.0
C1181 C 0.10716 0.52962 0.05015 0.0
C1182 C 0.09255 0.54503 0.03935 0.0
C1183 C 0.13196 0.54001 0.06047 0.0
C1184 C 0.14237 0.56605 0.06064 0.0
C1185 C 0.12798 0.58143 0.04956 0.0
C1186 C 0.10344 0.57096 0.03868 0.0
C1187 C 0.16744 0.57749 0.07386 0.0
C1188 C 0.16654 0.59341 0.09623 0.0
C1189 C 0.19181 0.57212 0.06529 0.0
C1190 C 0.19399 0.55569 0.04158 0.0
C1191 C 0.18556 0.56139 0.01773 0.0
C1192 C 0.18784 0.54591 0.99541 0.0
C1193 C 0.19864 0.52474 0.99669 0.0
C1194 C 0.20724 0.51903 0.02028 0.0
C1195 C 0.20502 0.53446 0.04266 0.0
H1196 H 0.2004 0.51278 0.97938 0.0
H1197 H 0.18093 0.65976 0.19877 0.0
H1198 H 0.25267 0.455 0.66586 0.0
H1199 H 0.29571 0.47153 0.64626 0.0
H1200 H 0.30527 0.39548 0.62724 0.0
H1201 H 0.26316 0.37907 0.64861 0.0
H1202 H 0.34964 0.42144 0.63986 0.0
H1203 H 0.28395 0.43707 0.58311 0.0
H1204 H 0.2467 0.45475 0.57106 0.0
H1205 H 0.29091 0.52964 0.59102 0.0
H1206 H 0.32809 0.5124 0.60395 0.0
H1207 H 0.45328 0.4558 0.54674 0.0
H1208 H 0.41132 0.4375 0.5677 0.0
H1209 H 0.40113 0.51221 0.59257 0.0
H1210 H 0.4422 0.53049 0.57107 0.0
H1211 H 0.3572 0.48584 0.57585 0.0
H1212 H 0.42177 0.47151 0.63385 0.0
H1213 H 0.46008 0.45528 0.64559 0.0
H1214 H 0.41929 0.37974 0.62294 0.0
H1215 H 0.38086 0.39558 0.61074 0.0
C1216 C 0.26411 0.44187 0.65767 0.0
C1217 C 0.25455 0.41576 0.65866 0.0
C1218 C 0.28864 0.4513 0.64623 0.0
C1219 C 0.3036 0.4348 0.63448 0.0
C1220 C 0.29422 0.40869 0.63601 0.0
C1221 C 0.27009 0.39929 0.6482 0.0
C1222 C 0.32883 0.44458 0.62041 0.0
C1223 C 0.35111 0.43528 0.62561 0.0
C1224 C 0.33123 0.46312 0.60217 0.0
C1225 C 0.30868 0.47341 0.59474 0.0
C1226 C 0.2856 0.45729 0.5852 0.0
C1227 C 0.26449 0.46724 0.57826 0.0
C1228 C 0.26637 0.4933 0.58046 0.0
C1229 C 0.28938 0.50946 0.58957 0.0
C1230 C 0.31046 0.49961 0.59673 0.0
C1231 C 0.44198 0.46829 0.55654 0.0
C1232 C 0.45107 0.4946 0.55708 0.0
C1233 C 0.41809 0.45781 0.5687 0.0
C1234 C 0.40313 0.47346 0.58204 0.0
C1235 C 0.41218 0.4997 0.58238 0.0
C1236 C 0.43576 0.51014 0.57001 0.0
C1237 C 0.37788 0.46284 0.59545 0.0
C1238 C 0.35563 0.47195 0.59007 0.0
C1239 C 0.37559 0.44431 0.6136 0.0
C1240 C 0.39855 0.43475 0.62118 0.0
C1241 C 0.42104 0.45146 0.63124 0.0
C1242 C 0.44276 0.44233 0.63799 0.0
C1243 C 0.44214 0.4165 0.63496 0.0
C1244 C 0.41975 0.39974 0.62525 0.0
C1245 C 0.39799 0.40878 0.61843 0.0
H1246 H 0.45897 0.40947 0.6402 0.0
H1247 H 0.25004 0.50097 0.57498 0.0
H1248 H 0.7434 0.69471 0.93077 0.0
H1249 H 0.78059 0.67693 0.94225 0.0
H1250 H 0.83388 0.73448 0.9024 0.0
H1251 H 0.79688 0.75296 0.89194 0.0
H1252 H 0.83398 0.68039 0.88691 0.0
H1253 H 0.84315 0.74121 0.95861 0.0
H1254 H 0.82846 0.76495 0.99646 0.0
H1255 H 0.80458 0.69659 0.03537 0.0
H1256 H 0.81877 0.67234 0.99752 0.0
H1257 H 0.95297 0.64963 0.92585 0.0
H1258 H 0.91861 0.67123 0.91578 0.0
H1259 H 0.86339 0.62266 0.96345 0.0
H1260 H 0.89732 0.60017 0.97287 0.0
H1261 H 0.86599 0.67466 0.97476 0.0
H1262 H 0.85677 0.61393 0.90158 0.0
H1263 H 0.87096 0.59099 0.86286 0.0
H1264 H 0.89557 0.66048 0.82603 0.0
H1265 H 0.88188 0.68391 0.86471 0.0
C1266 C 0.76315 0.70379 0.92504 0.0
C1267 C 0.76757 0.72516 0.91074 0.0
C1268 C 0.78426 0.6937 0.93153 0.0
C1269 C 0.80979 0.70448 0.92309 0.0
C1270 C 0.81425 0.72608 0.90913 0.0
C1271 C 0.79325 0.73662 0.90332 0.0
C1272 C 0.83142 0.69199 0.92732 0.0
C1273 C 0.84139 0.67945 0.90602 0.0
C1274 C 0.84046 0.69051 0.95234 0.0
C1275 C 0.83173 0.70491 0.9751 0.0
C1276 C 0.83448 0.73118 0.97511 0.0
C1277 C 0.82631 0.74475 0.9966 0.0
C1278 C 0.81551 0.73227 0.01828 0.0
C1279 C 0.81291 0.70621 0.01853 0.0
C1280 C 0.82103 0.69255 0.99707 0.0
C1281 C 0.93339 0.64311 0.93375 0.0
C1282 C 0.92794 0.6232 0.95026 0.0
C1283 C 0.91385 0.6556 0.92808 0.0
C1284 C 0.8886 0.6485 0.93894 0.0
C1285 C 0.88289 0.62843 0.95505 0.0
C1286 C 0.90233 0.61573 0.96051 0.0
C1287 C 0.86844 0.66277 0.93435 0.0
C1288 C 0.85873 0.67567 0.9556 0.0
C1289 C 0.85976 0.6647 0.90922 0.0
C1290 C 0.86859 0.65071 0.88618 0.0
C1291 C 0.86552 0.62437 0.88536 0.0
C1292 C 0.8734 0.61126 0.86338 0.0
C1293 C 0.88424 0.62428 0.84202 0.0
C1294 C 0.88722 0.65043 0.84261 0.0
C1295 C 0.8794 0.66363 0.86455 0.0
H1296 H 0.89025 0.61408 0.825 0.0
H1297 H 0.80923 0.74281 0.03491 0.0
H1298 H 0.44809 0.75053 0.16238 0.0
H1299 H 0.45877 0.79005 0.14083 0.0
H1300 H 0.3871 0.80902 0.17145 0.0
H1301 H 0.37548 0.76838 0.1911 0.0
H1302 H 0.39322 0.82351 0.12566 0.0
H1303 H 0.45717 0.83568 0.19609 0.0
H1304 H 0.49225 0.8219 0.21818 0.0
H1305 H 0.53843 0.82538 0.14793 0.0
H1306 H 0.50354 0.83899 0.12544 0.0
H1307 H 0.42515 0.95438 0.10113 0.0
H1308 H 0.41271 0.91276 0.11863 0.0
H1309 H 0.48914 0.89886 0.09653 0.0
H1310 H 0.50212 0.94121 0.08146 0.0
H1311 H 0.48063 0.88083 0.13694 0.0
H1312 H 0.42314 0.86954 0.06552 0.0
H1313 H 0.38947 0.8787 0.03769 0.0
H1314 H 0.33336 0.8691 0.10056 0.0
H1315 H 0.36682 0.86023 0.12888 0.0
C1316 C 0.43493 0.76341 0.16498 0.0
C1317 C 0.41138 0.75667 0.17925 0.0
C1318 C 0.44102 0.78616 0.1526 0.0
C1319 C 0.42428 0.80341 0.15501 0.0
C1320 C 0.40065 0.79649 0.16928 0.0
C1321 C 0.39415 0.77335 0.1809 0.0
C1322 C 0.43118 0.82851 0.14285 0.0
C1323 C 0.41225 0.83617 0.12843 0.0
C1324 C 0.45633 0.84492 0.14516 0.0
C1325 C 0.47779 0.83825 0.15914 0.0
C1326 C 0.47488 0.8336 0.18544 0.0
C1327 C 0.49468 0.82576 0.19799 0.0
C1328 C 0.51754 0.82274 0.18446 0.0
C1329 C 0.52074 0.82775 0.15839 0.0
C1330 C 0.501 0.83558 0.14576 0.0
C1331 C 0.43919 0.94233 0.10002 0.0
C1332 C 0.46465 0.95115 0.09001 0.0
C1333 C 0.432 0.91827 0.1098 0.0
C1334 C 0.44968 0.90188 0.10874 0.0
C1335 C 0.47494 0.91074 0.09805 0.0
C1336 C 0.4824 0.93506 0.08923 0.0
C1337 C 0.44265 0.87614 0.11965 0.0
C1338 C 0.46154 0.86833 0.13396 0.0
C1339 C 0.41777 0.85928 0.11638 0.0
C1340 C 0.39756 0.86447 0.09938 0.0
C1341 C 0.40367 0.86954 0.07345 0.0
C1342 C 0.38462 0.87466 0.05758 0.0
C1343 C 0.35931 0.87455 0.06737 0.0
C1344 C 0.35298 0.86923 0.09302 0.0
C1345 C 0.37197 0.86413 0.10898 0.0
H1346 H 0.34459 0.87852 0.05506 0.0
H1347 H 0.53278 0.81654 0.19417 0.0
H1348 H 0.10043 0.28462 0.63827 0.0
H1349 H 0.08033 0.24127 0.6233 0.0
H1350 H 0.11248 0.21402 0.68834 0.0
H1351 H 0.13353 0.25722 0.70273 0.0
H1352 H 0.11962 0.18658 0.64802 0.0
H1353 H 0.04465 0.21531 0.68351 0.0
H1354 H 0.01322 0.24318 0.68983 0.0
H1355 H 0.99294 0.22972 0.60971 0.0
H1356 H 0.02448 0.20202 0.60284 0.0
H1357 H 0.03839 0.06125 0.62891 0.0
H1358 H 0.05559 0.10402 0.64839 0.0
H1359 H 0.047 0.13482 0.57583 0.0
H1360 H 0.03058 0.09223 0.55609 0.0
H1361 H 0.02636 0.15913 0.6224 0.0
H1362 H 0.10336 0.13181 0.58759 0.0
H1363 H 0.13481 0.10394 0.58215 0.0
H1364 H 0.15062 0.11471 0.66337 0.0
H1365 H 0.11884 0.14227 0.66937 0.0
C1366 C 0.10321 0.26937 0.64935 0.0
C1367 C 0.11866 0.27432 0.67159 0.0
C1368 C 0.0915 0.2446 0.64092 0.0
C1369 C 0.09449 0.22434 0.65492 0.0
C1370 C 0.10986 0.2293 0.6772 0.0
C1371 C 0.12192 0.25401 0.68538 0.0
C1372 C 0.0827 0.1979 0.64571 0.0
C1373 C 0.09908 0.18054 0.64292 0.0
C1374 C 0.056 0.19 0.63855 0.0
C1375 C 0.03711 0.20677 0.64262 0.0
C1376 C 0.03364 0.21845 0.66719 0.0
C1377 C 0.01577 0.23419 0.67088 0.0
C1378 C 1.00114 0.23827 0.65017 0.0
C1379 C 0.0043 0.22657 0.62574 0.0
C1380 C 0.02215 0.21083 0.62194 0.0
C1381 C 0.04019 0.07718 0.61718 0.0
C1382 C 0.03338 0.07353 0.591 0.0
C1383 C 0.04999 0.10151 0.62829 0.0
C1384 C 0.05253 0.12244 0.61347 0.0
C1385 C 0.04515 0.11884 0.58751 0.0
C1386 C 0.03596 0.09455 0.57626 0.0
C1387 C 0.06334 0.14817 0.6248 0.0
C1388 C 0.04679 0.16529 0.62789 0.0
C1389 C 0.08977 0.15581 0.6325 0.0
C1390 C 0.10841 0.13878 0.629 0.0
C1391 C 0.11323 0.12793 0.60436 0.0
C1392 C 0.13119 0.11226 0.60116 0.0
C1393 C 0.14463 0.10747 0.62242 0.0
C1394 C 0.14013 0.11836 0.64693 0.0
C1395 C 0.12214 0.13399 0.65025 0.0
H1396 H 0.1586 0.0954 0.61989 0.0
H1397 H 0.98731 0.25045 0.65307 0.0
H1398 H 0.75107 0.28782 0.3838 0.0
H1399 H 0.72154 0.31515 0.39821 0.0
H1400 H 0.78439 0.3806 0.39077 0.0
H1401 H 0.81454 0.35307 0.37683 0.0
H1402 H 0.75577 0.38495 0.43468 0.0
H1403 H 0.73596 0.36524 0.34524 0.0
H1404 H 0.72634 0.33652 0.30604 0.0
H1405 H 0.65598 0.29626 0.3422 0.0
H1406 H 0.6653 0.3246 0.38172 0.0
H1407 H 0.65825 0.45973 0.45876 0.0
H1408 H 0.69481 0.44178 0.44103 0.0
H1409 H 0.6426 0.36839 0.43247 0.0
H1410 H 0.60605 0.38654 0.44883 0.0
H1411 H 0.67013 0.37399 0.39166 0.0
H1412 H 0.69247 0.39012 0.4825 0.0
H1413 H 0.70436 0.41566 0.52339 0.0
H1414 H 0.77104 0.46068 0.48583 0.0
H1415 H 0.75934 0.4356 0.44466 0.0
C1416 C 0.75872 0.30802 0.38525 0.0
C1417 C 0.78515 0.31827 0.3791 0.0
C1418 C 0.74173 0.32366 0.39335 0.0
C1419 C 0.75056 0.34997 0.39505 0.0
C1420 C 0.7771 0.36035 0.38944 0.0
C1421 C 0.79429 0.34461 0.38151 0.0
C1422 C 0.73186 0.36629 0.40301 0.0
C1423 C 0.73723 0.38299 0.42501 0.0
C1424 C 0.70757 0.36349 0.39055 0.0
C1425 C 0.70135 0.34704 0.36645 0.0
C1426 C 0.71844 0.35026 0.34483 0.0
C1427 C 0.71305 0.33404 0.32256 0.0
C1428 C 0.69057 0.31458 0.32163 0.0
C1429 C 0.67336 0.31138 0.34293 0.0
C1430 C 0.67864 0.32756 0.36524 0.0
C1431 C 0.65465 0.43981 0.45301 0.0
C1432 C 0.62912 0.42473 0.45473 0.0
C1433 C 0.67562 0.42946 0.44307 0.0
C1434 C 0.67166 0.40358 0.43541 0.0
C1435 C 0.64628 0.38843 0.43789 0.0
C1436 C 0.62531 0.39885 0.44728 0.0
C1437 C 0.69344 0.39204 0.42419 0.0
C1438 C 0.68874 0.37632 0.40129 0.0
C1439 C 0.71832 0.39571 0.43593 0.0
C1440 C 0.72479 0.41124 0.46046 0.0
C1441 C 0.70947 0.40566 0.48291 0.0
C1442 C 0.71623 0.42001 0.50615 0.0
C1443 C 0.73838 0.43984 0.50719 0.0
C1444 C 0.75384 0.44537 0.48499 0.0
C1445 C 0.74715 0.43112 0.46171 0.0
H1446 H 0.74362 0.45087 0.52521 0.0
H1447 H 0.68648 0.30198 0.30441 0.0
loop_
_geom_bond_atom_site_label_1
_geom_bond_atom_site_label_2
_geom_bond_distance
_geom_bond_site_symmetry_2
_ccdc_geom_bond_type
O0 Cd1 2.300 . S
O0 C7 1.275 . S
Cd1 O0 2.300 . S
Cd1 O9 2.381 . S
Cd1 O10 2.378 . S
O2 Cd3 2.385 . S
O2 C7 1.255 . S
Cd3 O2 2.385 . S
Cd3 O4 2.317 . S
O4 Cd3 2.317 . S
O4 C5 1.232 . S
C5 O4 1.232 . S
C5 O6 1.218 . S
O6 C5 1.218 . S
C7 O0 1.275 . S
C7 O2 1.255 . S
C8 O9 1.258 . S
C8 O10 1.256 . S
O9 Cd1 2.381 . S
O9 C8 1.258 . S
O10 Cd1 2.378 . S
O10 C8 1.256 . S
O11 Cd12 2.300 . S
O11 C18 1.275 . S
Cd12 O11 2.300 . S
Cd12 O20 2.381 . S
Cd12 O21 2.378 . S
O13 Cd14 2.385 . S
O13 C18 1.255 . S
Cd14 O13 2.385 . S
Cd14 O15 2.317 . S
O15 Cd14 2.317 . S
O15 C16 1.232 . S
C16 O15 1.232 . S
C16 O17 1.218 . S
O17 C16 1.218 . S
C18 O11 1.275 . S
C18 O13 1.255 . S
C19 O20 1.258 . S
C19 O21 1.256 . S
O20 Cd12 2.381 . S
O20 C19 1.258 . S
O21 Cd12 2.378 . S
O21 C19 1.256 . S
O22 Cd23 2.300 . S
O22 C29 1.275 . S
Cd23 O22 2.300 . S
Cd23 O31 2.381 . S
Cd23 O32 2.378 . S
O24 Cd25 2.385 . S
O24 C29 1.255 . S
Cd25 O24 2.385 . S
Cd25 O26 2.317 . S
O26 Cd25 2.317 . S
O26 C27 1.232 . S
C27 O26 1.232 . S
C27 O28 1.218 . S
O28 C27 1.218 . S
C29 O22 1.275 . S
C29 O24 1.255 . S
C30 O31 1.258 . S
C30 O32 1.256 . S
O31 Cd23 2.381 . S
O31 C30 1.258 . S
O32 Cd23 2.378 . S
O32 C30 1.256 . S
O33 Cd34 2.300 . S
O33 C40 1.275 . S
Cd34 O33 2.300 . S
Cd34 O42 2.381 . S
Cd34 O43 2.378 . S
O35 Cd36 2.385 . S
O35 C40 1.255 . S
Cd36 O35 2.385 . S
Cd36 O37 2.317 . S
O37 Cd36 2.317 . S
O37 C38 1.232 . S
C38 O37 1.232 . S
C38 O39 1.218 . S
O39 C38 1.218 . S
C40 O33 1.275 . S
C40 O35 1.255 . S
C41 O42 1.258 . S
C41 O43 1.256 . S
O42 Cd34 2.381 . S
O42 C41 1.258 . S
O43 Cd34 2.378 . S
O43 C41 1.256 . S
O44 Cd45 2.300 . S
O44 C51 1.275 . S
Cd45 O44 2.300 . S
Cd45 O53 2.381 . S
Cd45 O54 2.378 . S
O46 Cd47 2.385 . S
O46 C51 1.255 . S
Cd47 O46 2.385 . S
Cd47 O48 2.317 . S
O48 Cd47 2.317 . S
O48 C49 1.232 . S
C49 O48 1.232 . S
C49 O50 1.218 . S
O50 C49 1.218 . S
C51 O44 1.275 . S
C51 O46 1.255 . S
C52 O53 1.258 . S
C52 O54 1.256 . S
O53 Cd45 2.381 . S
O53 C52 1.258 . S
O54 Cd45 2.378 . S
O54 C52 1.256 . S
O55 Cd56 2.300 . S
O55 C62 1.275 . S
Cd56 O55 2.300 . S
Cd56 O64 2.381 . S
Cd56 O65 2.378 . S
O57 Cd58 2.385 . S
O57 C62 1.255 . S
Cd58 O57 2.385 . S
Cd58 O59 2.317 . S
O59 Cd58 2.317 . S
O59 C60 1.232 . S
C60 O59 1.232 . S
C60 O61 1.218 . S
O61 C60 1.218 . S
C62 O55 1.275 . S
C62 O57 1.255 . S
C63 O64 1.258 . S
C63 O65 1.256 . S
O64 Cd56 2.381 . S
O64 C63 1.258 . S
O65 Cd56 2.378 . S
O65 C63 1.256 . S
O66 Cd67 2.300 . S
O66 C73 1.275 . S
Cd67 O66 2.300 . S
Cd67 O75 2.381 . S
Cd67 O76 2.378 . S
O68 Cd69 2.385 . S
O68 C73 1.255 . S
Cd69 O68 2.385 . S
Cd69 O70 2.317 . S
O70 Cd69 2.317 . S
O70 C71 1.232 . S
C71 O70 1.232 . S
C71 O72 1.218 . S
O72 C71 1.218 . S
C73 O66 1.275 . S
C73 O68 1.255 . S
C74 O75 1.258 . S
C74 O76 1.256 . S
O75 Cd67 2.381 . S
O75 C74 1.258 . S
O76 Cd67 2.378 . S
O76 C74 1.256 . S
O77 Cd78 2.300 . S
O77 C84 1.275 . S
Cd78 O77 2.300 . S
Cd78 O86 2.381 . S
Cd78 O87 2.378 . S
O79 Cd80 2.385 . S
O79 C84 1.255 . S
Cd80 O79 2.385 . S
Cd80 O81 2.317 . S
O81 Cd80 2.317 . S
O81 C82 1.232 . S
C82 O81 1.232 . S
C82 O83 1.218 . S
O83 C82 1.218 . S
C84 O77 1.275 . S
C84 O79 1.255 . S
C85 O86 1.258 . S
C85 O87 1.256 . S
O86 Cd78 2.381 . S
O86 C85 1.258 . S
O87 Cd78 2.378 . S
O87 C85 1.256 . S
Tb88 C97 2.764 . S
Tb88 O98 2.325 1_455 S
Tb88 O101 2.303 . S
Tb88 O105 2.322 1_545 S
Tb88 O106 2.349 1_545 S
Tb88 O109 2.415 . S
Tb88 O110 2.399 . S
Tb89 O99 2.322 . S
Tb89 O100 2.349 . S
Tb89 O102 2.415 1_545 S
Tb89 O103 2.399 1_545 S
Tb89 O104 2.325 1_645 S
Tb89 O107 2.303 1_545 S
Tb89 C118 2.764 1_545 S
C90 O106 1.261 1_655 S
C90 O107 1.257 . S
C91 C94 1.358 . S
C91 C95 1.332 . S
C91 C97 1.504 . S
C92 C93 1.373 . S
C92 C96 1.308 . S
C93 C92 1.373 . S
C93 C94 1.429 . S
C93 H120 0.932 . S
C94 C91 1.358 . S
C94 C93 1.429 . S
C94 H121 0.930 . S
C95 C91 1.332 . S
C95 C96 1.394 . S
C95 H122 0.932 . S
C96 C92 1.308 . S
C96 C95 1.394 . S
C96 H123 0.929 . S
C97 Tb88 2.764 . S
C97 C91 1.504 . S
C97 O109 1.239 . S
C97 O110 1.263 . S
O98 Tb88 2.325 1_655 S
O98 C108 1.236 . S
O99 Tb89 2.322 . S
O99 C108 1.257 . S
O100 Tb89 2.349 . S
O100 C111 1.261 1_655 S
O101 Tb88 2.303 . S
O101 C111 1.257 . S
O102 Tb89 2.415 1_565 S
O102 C118 1.239 . S
O103 Tb89 2.399 1_565 S
O103 C118 1.263 . S
O104 Tb89 2.325 1_465 S
O104 C119 1.236 . S
O105 Tb88 2.322 1_565 S
O105 C119 1.257 . S
O106 Tb88 2.349 1_565 S
O106 C90 1.261 1_455 S
O107 Tb89 2.303 1_565 S
O107 C90 1.257 . S
C108 O98 1.236 . S
C108 O99 1.257 . S
O109 Tb88 2.415 . S
O109 C97 1.239 . S
O110 Tb88 2.399 . S
O110 C97 1.263 . S
C111 O100 1.261 1_455 S
C111 O101 1.257 . S
C112 C115 1.358 . S
C112 C116 1.332 . S
C112 C118 1.504 . S
C113 C114 1.373 . S
C113 C117 1.308 . S
C114 C113 1.373 . S
C114 C115 1.429 . S
C114 H124 0.932 . S
C115 C112 1.358 . S
C115 C114 1.429 . S
C115 H125 0.930 . S
C116 C112 1.332 . S
C116 C117 1.394 . S
C116 H126 0.932 . S
C117 C113 1.308 . S
C117 C116 1.394 . S
C117 H127 0.929 . S
C118 Tb89 2.764 1_565 S
C118 O102 1.239 . S
C118 O103 1.263 . S
C118 C112 1.504 . S
C119 O104 1.236 . S
C119 O105 1.257 . S
H120 C93 0.932 . S
H121 C94 0.930 . S
H122 C95 0.932 . S
H123 C96 0.929 . S
H124 C114 0.932 . S
H125 C115 0.930 . S
H126 C116 0.932 . S
H127 C117 0.929 . S
Tb128 C137 2.764 . S
Tb128 O138 2.325 . S
Tb128 O141 2.303 . S
Tb128 O145 2.322 1_545 S
Tb128 O146 2.349 . S
Tb128 O149 2.415 . S
Tb128 O150 2.399 . S
Tb129 O139 2.322 . S
Tb129 O140 2.349 . S
Tb129 O142 2.415 1_544 S
Tb129 O143 2.399 1_545 S
Tb129 O144 2.325 1_545 S
Tb129 O147 2.303 . S
Tb129 C158 2.764 1_544 S
C130 O146 1.259 1_565 S
C130 O147 1.247 1_565 S
C131 C134 1.358 . S
C131 C135 1.332 . S
C131 C137 1.504 . S
C132 C133 1.373 . S
C132 C136 1.308 . S
C133 C132 1.373 . S
C133 C134 1.429 . S
C133 H160 0.932 . S
C134 C131 1.358 . S
C134 C133 1.429 . S
C134 H161 0.930 . S
C135 C131 1.332 . S
C135 C136 1.394 . S
C135 H162 0.932 . S
C136 C132 1.308 . S
C136 C135 1.394 . S
C136 H163 0.929 . S
C137 Tb128 2.764 . S
C137 C131 1.504 . S
C137 O149 1.239 . S
C137 O150 1.263 . S
O138 Tb128 2.325 . S
O138 C148 1.236 . S
O139 Tb129 2.322 . S
O139 C148 1.257 . S
O140 Tb129 2.349 . S
O140 C151 1.261 . S
O141 Tb128 2.303 . S
O141 C151 1.257 . S
O142 Tb129 2.415 1_566 S
O142 C158 1.239 . S
O143 Tb129 2.399 1_565 S
O143 C158 1.263 1_554 S
O144 Tb129 2.325 1_565 S
O144 C159 1.236 . S
O145 Tb128 2.322 1_565 S
O145 C159 1.257 . S
O146 Tb128 2.349 . S
O146 C130 1.259 1_545 S
O147 Tb129 2.303 . S
O147 C130 1.247 1_545 S
C148 O138 1.236 . S
C148 O139 1.257 . S
O149 Tb128 2.415 . S
O149 C137 1.239 . S
O150 Tb128 2.399 . S
O150 C137 1.263 . S
C151 O140 1.261 . S
C151 O141 1.257 . S
C152 C155 1.358 . S
C152 C156 1.332 . S
C152 C158 1.504 . S
C153 C154 1.373 . S
C153 C157 1.308 . S
C154 C153 1.373 . S
C154 C155 1.429 . S
C154 H164 0.932 . S
C155 C152 1.358 . S
C155 C154 1.429 . S
C155 H165 0.930 . S
C156 C152 1.332 . S
C156 C157 1.394 . S
C156 H166 0.932 . S
C157 C153 1.308 . S
C157 C156 1.394 . S
C157 H167 0.929 . S
C158 Tb129 2.764 1_566 S
C158 O142 1.239 . S
C158 O143 1.263 1_556 S
C158 C152 1.504 . S
C159 O144 1.236 . S
C159 O145 1.257 . S
H160 C133 0.932 . S
H161 C134 0.930 . S
H162 C135 0.932 . S
H163 C136 0.929 . S
H164 C154 0.932 . S
H165 C155 0.930 . S
H166 C156 0.932 . S
H167 C157 0.929 . S
Tb168 C177 2.764 . S
Tb168 O178 2.325 . S
Tb168 O181 2.303 . S
Tb168 O185 2.322 . S
Tb168 O186 2.349 . S
Tb168 O189 2.415 . S
Tb168 O190 2.399 . S
Tb169 O179 2.322 . S
Tb169 O180 2.349 . S
Tb169 O182 2.415 . S
Tb169 O183 2.399 . S
Tb169 O184 2.325 . S
Tb169 O187 2.303 . S
Tb169 C198 2.764 . S
C170 O186 1.261 . S
C170 O187 1.257 . S
C171 C174 1.358 . S
C171 C175 1.332 . S
C171 C177 1.504 . S
C172 C173 1.373 . S
C172 C176 1.308 . S
C173 C172 1.373 . S
C173 C174 1.429 . S
C173 H200 0.932 . S
C174 C171 1.358 . S
C174 C173 1.429 . S
C174 H201 0.930 . S
C175 C171 1.332 . S
C175 C176 1.394 . S
C175 H202 0.932 . S
C176 C172 1.308 . S
C176 C175 1.394 . S
C176 H203 0.929 . S
C177 Tb168 2.764 . S
C177 C171 1.504 . S
C177 O189 1.239 . S
C177 O190 1.263 . S
O178 Tb168 2.325 . S
O178 C188 1.236 . S
O179 Tb169 2.322 . S
O179 C188 1.257 . S
O180 Tb169 2.349 . S
O180 C191 1.261 . S
O181 Tb168 2.303 . S
O181 C191 1.257 . S
O182 Tb169 2.415 . S
O182 C198 1.239 . S
O183 Tb169 2.399 . S
O183 C198 1.263 . S
O184 Tb169 2.325 . S
O184 C199 1.236 . S
O185 Tb168 2.322 . S
O185 C199 1.257 . S
O186 Tb168 2.349 . S
O186 C170 1.261 . S
O187 Tb169 2.303 . S
O187 C170 1.257 . S
C188 O178 1.236 . S
C188 O179 1.257 . S
O189 Tb168 2.415 . S
O189 C177 1.239 . S
O190 Tb168 2.399 . S
O190 C177 1.263 . S
C191 O180 1.261 . S
C191 O181 1.257 . S
C192 C195 1.358 . S
C192 C196 1.332 . S
C192 C198 1.504 . S
C193 C194 1.373 . S
C193 C197 1.308 . S
C194 C193 1.373 . S
C194 C195 1.429 . S
C194 H204 0.932 . S
C195 C192 1.358 . S
C195 C194 1.429 . S
C195 H205 0.930 . S
C196 C192 1.332 . S
C196 C197 1.394 . S
C196 H206 0.932 . S
C197 C193 1.308 . S
C197 C196 1.394 . S
C197 H207 0.929 . S
C198 Tb169 2.764 . S
C198 O182 1.239 . S
C198 O183 1.263 . S
C198 C192 1.504 . S
C199 O184 1.236 . S
C199 O185 1.257 . S
H200 C173 0.932 . S
H201 C174 0.930 . S
H202 C175 0.932 . S
H203 C176 0.929 . S
H204 C194 0.932 . S
H205 C195 0.930 . S
H206 C196 0.932 . S
H207 C197 0.929 . S
Tb208 C217 2.764 1_455 S
Tb208 O218 2.325 1_455 S
Tb208 O221 2.303 1_556 S
Tb208 O225 2.322 1_556 S
Tb208 O226 2.349 . S
Tb208 O229 2.415 1_455 S
Tb208 O230 2.399 . S
Tb209 O219 2.322 1_455 S
Tb209 O220 2.355 . S
Tb209 O222 2.415 . S
Tb209 O223 2.399 . S
Tb209 O224 2.325 . S
Tb209 O227 2.303 1_554 S
Tb209 C238 2.764 . S
C210 O226 1.261 . S
C210 O227 1.257 . S
C211 C214 1.358 . S
C211 C215 1.332 . S
C211 C217 1.504 . S
C212 C213 1.373 . S
C212 C216 1.308 . S
C213 C212 1.373 . S
C213 C214 1.429 . S
C213 H240 0.932 . S
C214 C211 1.358 . S
C214 C213 1.429 . S
C214 H241 0.930 . S
C215 C211 1.332 . S
C215 C216 1.394 . S
C215 H242 0.932 . S
C216 C212 1.308 . S
C216 C215 1.394 . S
C216 H243 0.929 . S
C217 Tb208 2.764 1_655 S
C217 C211 1.504 . S
C217 O229 1.239 . S
C217 O230 1.263 1_655 S
O218 Tb208 2.325 1_655 S
O218 C228 1.236 . S
O219 Tb209 2.322 1_655 S
O219 C228 1.257 1_554 S
O220 Tb209 2.355 . S
O220 C231 1.257 1_455 S
O221 Tb208 2.303 1_554 S
O221 C231 1.257 1_455 S
O222 Tb209 2.415 . S
O222 C238 1.239 . S
O223 Tb209 2.399 . S
O223 C238 1.263 . S
O224 Tb209 2.325 . S
O224 C239 1.236 . S
O225 Tb208 2.322 1_554 S
O225 C239 1.257 . S
O226 Tb208 2.349 . S
O226 C210 1.261 . S
O227 Tb209 2.303 1_556 S
O227 C210 1.257 . S
C228 O218 1.236 . S
C228 O219 1.257 1_556 S
O229 Tb208 2.415 1_655 S
O229 C217 1.239 . S
O230 Tb208 2.399 . S
O230 C217 1.263 1_455 S
C231 O220 1.257 1_655 S
C231 O221 1.257 1_655 S
C232 C235 1.358 . S
C232 C236 1.332 . S
C232 C238 1.504 . S
C233 C234 1.373 . S
C233 C237 1.308 . S
C234 C233 1.373 . S
C234 C235 1.429 . S
C234 H244 0.932 . S
C235 C232 1.358 . S
C235 C234 1.429 . S
C235 H245 0.930 . S
C236 C232 1.332 . S
C236 C237 1.394 . S
C236 H246 0.932 . S
C237 C233 1.308 . S
C237 C236 1.394 . S
C237 H247 0.929 . S
C238 Tb209 2.764 . S
C238 O222 1.239 . S
C238 O223 1.263 . S
C238 C232 1.504 . S
C239 O224 1.236 . S
C239 O225 1.257 . S
H240 C213 0.932 . S
H241 C214 0.930 . S
H242 C215 0.932 . S
H243 C216 0.929 . S
H244 C234 0.932 . S
H245 C235 0.930 . S
H246 C236 0.932 . S
H247 C237 0.929 . S
H248 C266 0.951 . S
H249 C268 0.951 . S
H250 C270 0.950 . S
H251 C271 0.950 . S
H252 C273 0.950 . S
H253 C276 0.950 . S
H254 C277 0.950 . S
H255 C279 0.950 . S
H256 C280 0.950 . S
H257 C281 0.951 . S
H258 C283 0.951 . S
H259 C285 0.950 . S
H260 C286 0.950 . S
H261 C288 0.950 . S
H262 C291 0.950 . S
H263 C292 0.950 . S
H264 C294 0.950 . S
H265 C295 0.950 . S
C266 H248 0.951 . S
C266 C267 1.366 . S
C266 C268 1.388 . S
C267 C266 1.366 . S
C267 C271 1.385 . S
C268 H249 0.951 . S
C268 C266 1.388 . S
C268 C269 1.366 . S
C269 C268 1.366 . S
C269 C270 1.414 . S
C269 C272 1.499 . S
C270 H250 0.950 . S
C270 C269 1.414 . S
C270 C271 1.374 . S
C271 H251 0.950 . S
C271 C267 1.385 . S
C271 C270 1.374 . S
C272 C269 1.499 . S
C272 C273 1.373 . S
C272 C274 1.389 . S
C273 H252 0.950 . S
C273 C272 1.373 . S
C273 C289 1.377 . S
C274 C272 1.389 . S
C274 C275 1.524 . S
C274 C288 1.377 . S
C275 C274 1.524 . S
C275 C276 1.397 . S
C275 C280 1.363 . S
C276 H253 0.950 . S
C276 C275 1.397 . S
C276 C277 1.334 . S
C277 H254 0.950 . S
C277 C276 1.334 . S
C277 C278 1.287 . S
C278 C277 1.287 . S
C278 C279 1.524 . S
C278 H297 0.913 . S
C279 H255 0.950 . S
C279 C278 1.524 . S
C279 C280 1.415 . S
C280 H256 0.950 . S
C280 C275 1.363 . S
C280 C279 1.415 . S
C281 H257 0.951 . S
C281 C282 1.366 . S
C281 C283 1.388 . S
C282 C281 1.366 . S
C282 C286 1.385 . S
C283 H258 0.951 . S
C283 C281 1.388 . S
C283 C284 1.366 . S
C284 C283 1.366 . S
C284 C285 1.414 . S
C284 C287 1.499 . S
C285 H259 0.950 . S
C285 C284 1.414 . S
C285 C286 1.374 . S
C286 H260 0.950 . S
C286 C282 1.385 . S
C286 C285 1.374 . S
C287 C284 1.499 . S
C287 C288 1.373 . S
C287 C289 1.389 . S
C288 H261 0.950 . S
C288 C274 1.377 . S
C288 C287 1.373 . S
C289 C273 1.377 . S
C289 C287 1.389 . S
C289 C290 1.524 . S
C290 C289 1.524 . S
C290 C291 1.397 . S
C290 C295 1.363 . S
C291 H262 0.950 . S
C291 C290 1.397 . S
C291 C292 1.334 . S
C292 H263 0.950 . S
C292 C291 1.334 . S
C292 C293 1.287 . S
C293 C292 1.287 . S
C293 C294 1.524 . S
C293 H296 0.999 . S
C294 H264 0.950 . S
C294 C293 1.524 . S
C294 C295 1.415 . S
C295 H265 0.950 . S
C295 C290 1.363 . S
C295 C294 1.415 . S
H296 C293 0.999 . S
H297 C278 0.913 . S
H298 C316 0.951 . S
H299 C318 0.951 . S
H300 C320 0.950 . S
H301 C321 0.950 . S
H302 C323 0.950 . S
H303 C326 0.950 . S
H304 C327 0.950 . S
H305 C329 0.950 . S
H306 C330 0.950 . S
H307 C331 0.951 . S
H308 C333 0.951 . S
H309 C335 0.950 . S
H310 C336 0.950 . S
H311 C338 0.950 . S
H312 C341 0.950 . S
H313 C342 0.950 . S
H314 C344 0.950 . S
H315 C345 0.950 . S
C316 H298 0.951 . S
C316 C317 1.366 . S
C316 C318 1.388 . S
C317 C316 1.366 . S
C317 C321 1.385 . S
C318 H299 0.951 . S
C318 C316 1.388 . S
C318 C319 1.366 . S
C319 C318 1.366 . S
C319 C320 1.414 . S
C319 C322 1.499 . S
C320 H300 0.950 . S
C320 C319 1.414 . S
C320 C321 1.374 . S
C321 H301 0.950 . S
C321 C317 1.385 . S
C321 C320 1.374 . S
C322 C319 1.499 . S
C322 C323 1.373 . S
C322 C324 1.389 . S
C323 H302 0.950 . S
C323 C322 1.373 . S
C323 C339 1.377 . S
C324 C322 1.389 . S
C324 C325 1.524 . S
C324 C338 1.377 . S
C325 C324 1.524 . S
C325 C326 1.397 . S
C325 C330 1.363 . S
C326 H303 0.950 . S
C326 C325 1.397 . S
C326 C327 1.334 . S
C327 H304 0.950 . S
C327 C326 1.334 . S
C327 C328 1.287 . S
C328 C327 1.287 . S
C328 C329 1.524 . S
C328 H347 0.913 . S
C329 H305 0.950 . S
C329 C328 1.524 . S
C329 C330 1.415 . S
C330 H306 0.950 . S
C330 C325 1.363 . S
C330 C329 1.415 . S
C331 H307 0.951 . S
C331 C332 1.366 . S
C331 C333 1.388 . S
C332 C331 1.366 . S
C332 C336 1.385 . S
C333 H308 0.951 . S
C333 C331 1.388 . S
C333 C334 1.366 . S
C334 C333 1.366 . S
C334 C335 1.414 . S
C334 C337 1.499 . S
C335 H309 0.950 . S
C335 C334 1.414 . S
C335 C336 1.374 . S
C336 H310 0.950 . S
C336 C332 1.385 . S
C336 C335 1.374 . S
C337 C334 1.499 . S
C337 C338 1.373 . S
C337 C339 1.389 . S
C338 H311 0.950 . S
C338 C324 1.377 . S
C338 C337 1.373 . S
C339 C323 1.377 . S
C339 C337 1.389 . S
C339 C340 1.524 . S
C340 C339 1.524 . S
C340 C341 1.397 . S
C340 C345 1.363 . S
C341 H312 0.950 . S
C341 C340 1.397 . S
C341 C342 1.334 . S
C342 H313 0.950 . S
C342 C341 1.334 . S
C342 C343 1.287 . S
C343 C342 1.287 . S
C343 C344 1.524 . S
C343 H346 0.999 . S
C344 H314 0.950 . S
C344 C343 1.524 . S
C344 C345 1.415 . S
C345 H315 0.950 . S
C345 C340 1.363 . S
C345 C344 1.415 . S
H346 C343 0.999 . S
H347 C328 0.913 . S
H348 C366 0.951 . S
H349 C368 0.951 . S
H350 C370 0.950 . S
H351 C371 0.950 . S
H352 C373 0.950 . S
H353 C376 0.950 . S
H354 C377 0.950 . S
H355 C379 0.950 . S
H356 C380 0.950 . S
H357 C381 0.951 . S
H358 C383 0.951 . S
H359 C385 0.950 . S
H360 C386 0.950 . S
H361 C388 0.950 . S
H362 C391 0.950 . S
H363 C392 0.950 . S
H364 C394 0.950 . S
H365 C395 0.950 . S
C366 H348 0.951 . S
C366 C367 1.366 . S
C366 C368 1.388 . S
C367 C366 1.366 . S
C367 C371 1.385 . S
C368 H349 0.951 . S
C368 C366 1.388 . S
C368 C369 1.366 . S
C369 C368 1.366 . S
C369 C370 1.414 . S
C369 C372 1.499 . S
C370 H350 0.950 . S
C370 C369 1.414 . S
C370 C371 1.374 . S
C371 H351 0.950 . S
C371 C367 1.385 . S
C371 C370 1.374 . S
C372 C369 1.499 . S
C372 C373 1.373 . S
C372 C374 1.389 . S
C373 H352 0.950 . S
C373 C372 1.373 . S
C373 C389 1.377 . S
C374 C372 1.389 . S
C374 C375 1.524 . S
C374 C388 1.377 . S
C375 C374 1.524 . S
C375 C376 1.397 . S
C375 C380 1.363 . S
C376 H353 0.950 . S
C376 C375 1.397 . S
C376 C377 1.334 . S
C377 H354 0.950 . S
C377 C376 1.334 . S
C377 C378 1.287 . S
C378 C377 1.287 . S
C378 C379 1.524 . S
C378 H397 0.913 . S
C379 H355 0.950 . S
C379 C378 1.524 . S
C379 C380 1.415 . S
C380 H356 0.950 . S
C380 C375 1.363 . S
C380 C379 1.415 . S
C381 H357 0.951 . S
C381 C382 1.366 . S
C381 C383 1.388 . S
C382 C381 1.366 . S
C382 C386 1.385 . S
C383 H358 0.951 . S
C383 C381 1.388 . S
C383 C384 1.366 . S
C384 C383 1.366 . S
C384 C385 1.414 . S
C384 C387 1.499 . S
C385 H359 0.950 . S
C385 C384 1.414 . S
C385 C386 1.374 . S
C386 H360 0.950 . S
C386 C382 1.385 . S
C386 C385 1.374 . S
C387 C384 1.499 . S
C387 C388 1.373 . S
C387 C389 1.389 . S
C388 H361 0.950 . S
C388 C374 1.377 . S
C388 C387 1.373 . S
C389 C373 1.377 . S
C389 C387 1.389 . S
C389 C390 1.524 . S
C390 C389 1.524 . S
C390 C391 1.397 . S
C390 C395 1.363 . S
C391 H362 0.950 . S
C391 C390 1.397 . S
C391 C392 1.334 . S
C392 H363 0.950 . S
C392 C391 1.334 . S
C392 C393 1.287 . S
C393 C392 1.287 . S
C393 C394 1.524 . S
C393 H396 0.999 . S
C394 H364 0.950 . S
C394 C393 1.524 . S
C394 C395 1.415 . S
C395 H365 0.950 . S
C395 C390 1.363 . S
C395 C394 1.415 . S
H396 C393 0.999 . S
H397 C378 0.913 . S
H398 C416 0.951 . S
H399 C418 0.951 . S
H400 C420 0.950 . S
H401 C421 0.950 . S
H402 C423 0.950 . S
H403 C426 0.950 . S
H404 C427 0.950 . S
H405 C429 0.950 . S
H406 C430 0.950 . S
H407 C431 0.951 . S
H408 C433 0.951 . S
H409 C435 0.950 . S
H410 C436 0.950 . S
H411 C438 0.950 . S
H412 C441 0.950 . S
H413 C442 0.950 . S
H414 C444 0.950 . S
H415 C445 0.950 . S
C416 H398 0.951 . S
C416 C417 1.366 . S
C416 C418 1.388 . S
C417 C416 1.366 . S
C417 C421 1.385 . S
C418 H399 0.951 . S
C418 C416 1.388 . S
C418 C419 1.366 . S
C419 C418 1.366 . S
C419 C420 1.414 . S
C419 C422 1.499 . S
C420 H400 0.950 . S
C420 C419 1.414 . S
C420 C421 1.374 . S
C421 H401 0.950 . S
C421 C417 1.385 . S
C421 C420 1.374 . S
C422 C419 1.499 . S
C422 C423 1.373 . S
C422 C424 1.389 . S
C423 H402 0.950 . S
C423 C422 1.373 . S
C423 C439 1.377 . S
C424 C422 1.389 . S
C424 C425 1.524 . S
C424 C438 1.377 . S
C425 C424 1.524 . S
C425 C426 1.397 . S
C425 C430 1.363 . S
C426 H403 0.950 . S
C426 C425 1.397 . S
C426 C427 1.334 . S
C427 H404 0.950 . S
C427 C426 1.334 . S
C427 C428 1.287 . S
C428 C427 1.287 . S
C428 C429 1.524 . S
C428 H447 0.913 . S
C429 H405 0.950 . S
C429 C428 1.524 . S
C429 C430 1.415 . S
C430 H406 0.950 . S
C430 C425 1.363 . S
C430 C429 1.415 . S
C431 H407 0.951 . S
C431 C432 1.366 . S
C431 C433 1.388 . S
C432 C431 1.366 . S
C432 C436 1.385 . S
C433 H408 0.951 . S
C433 C431 1.388 . S
C433 C434 1.366 . S
C434 C433 1.366 . S
C434 C435 1.414 . S
C434 C437 1.499 . S
C435 H409 0.950 . S
C435 C434 1.414 . S
C435 C436 1.374 . S
C436 H410 0.950 . S
C436 C432 1.385 . S
C436 C435 1.374 . S
C437 C434 1.499 . S
C437 C438 1.373 . S
C437 C439 1.389 . S
C438 H411 0.950 . S
C438 C424 1.377 . S
C438 C437 1.373 . S
C439 C423 1.377 . S
C439 C437 1.389 . S
C439 C440 1.524 . S
C440 C439 1.524 . S
C440 C441 1.397 1_655 S
C440 C445 1.363 . S
C441 H412 0.950 . S
C441 C440 1.397 1_455 S
C441 C442 1.334 . S
C442 H413 0.950 . S
C442 C441 1.334 . S
C442 C443 1.287 . S
C443 C442 1.287 . S
C443 C444 1.524 1_455 S
C443 H446 0.999 . S
C444 H414 0.950 . S
C444 C443 1.524 1_655 S
C444 C445 1.415 . S
C445 H415 0.950 . S
C445 C440 1.363 . S
C445 C444 1.415 . S
H446 C443 0.999 . S
H447 C428 0.913 . S
H448 C466 0.951 . S
H449 C468 0.951 . S
H450 C470 0.950 . S
H451 C471 0.950 . S
H452 C473 0.950 . S
H453 C476 0.950 . S
H454 C477 0.950 . S
H455 C479 0.950 . S
H456 C480 0.950 . S
H457 C481 0.951 . S
H458 C483 0.951 . S
H459 C485 0.950 . S
H460 C486 0.950 . S
H461 C488 0.950 . S
H462 C491 0.950 . S
H463 C492 0.950 . S
H464 C494 0.950 . S
H465 C495 0.950 . S
C466 H448 0.951 . S
C466 C467 1.366 . S
C466 C468 1.388 . S
C467 C466 1.366 . S
C467 C471 1.385 . S
C468 H449 0.951 . S
C468 C466 1.388 . S
C468 C469 1.366 . S
C469 C468 1.366 . S
C469 C470 1.414 . S
C469 C472 1.499 . S
C470 H450 0.950 . S
C470 C469 1.414 . S
C470 C471 1.374 . S
C471 H451 0.950 . S
C471 C467 1.385 . S
C471 C470 1.374 . S
C472 C469 1.499 . S
C472 C473 1.373 . S
C472 C474 1.389 . S
C473 H452 0.950 . S
C473 C472 1.373 . S
C473 C489 1.377 . S
C474 C472 1.389 . S
C474 C475 1.524 . S
C474 C488 1.377 . S
C475 C474 1.524 . S
C475 C476 1.397 . S
C475 C480 1.363 . S
C476 H453 0.950 . S
C476 C475 1.397 . S
C476 C477 1.334 . S
C477 H454 0.950 . S
C477 C476 1.334 . S
C477 C478 1.287 . S
C478 C477 1.287 . S
C478 C479 1.524 . S
C478 H497 0.913 . S
C479 H455 0.950 . S
C479 C478 1.524 . S
C479 C480 1.415 . S
C480 H456 0.950 . S
C480 C475 1.363 . S
C480 C479 1.415 . S
C481 H457 0.951 . S
C481 C482 1.366 . S
C481 C483 1.388 . S
C482 C481 1.366 . S
C482 C486 1.385 . S
C483 H458 0.951 . S
C483 C481 1.388 . S
C483 C484 1.366 . S
C484 C483 1.366 . S
C484 C485 1.414 . S
C484 C487 1.499 . S
C485 H459 0.950 . S
C485 C484 1.414 . S
C485 C486 1.374 . S
C486 H460 0.950 . S
C486 C482 1.385 . S
C486 C485 1.374 . S
C487 C484 1.499 . S
C487 C488 1.373 . S
C487 C489 1.389 . S
C488 H461 0.950 . S
C488 C474 1.377 . S
C488 C487 1.373 . S
C489 C473 1.377 . S
C489 C487 1.389 . S
C489 C490 1.524 . S
C490 C489 1.524 . S
C490 C491 1.397 . S
C490 C495 1.363 . S
C491 H462 0.950 . S
C491 C490 1.397 . S
C491 C492 1.334 . S
C492 H463 0.950 . S
C492 C491 1.334 . S
C492 C493 1.287 . S
C493 C492 1.287 . S
C493 C494 1.524 . S
C493 H496 0.999 . S
C494 H464 0.950 . S
C494 C493 1.524 . S
C494 C495 1.415 . S
C495 H465 0.950 . S
C495 C490 1.363 . S
C495 C494 1.415 . S
H496 C493 0.999 . S
H497 C478 0.913 . S
H498 C516 0.951 . S
H499 C518 0.951 . S
H500 C520 0.950 . S
H501 C521 0.950 . S
H502 C523 0.950 . S
H503 C526 0.950 . S
H504 C527 0.950 . S
H505 C529 0.950 . S
H506 C530 0.950 . S
H507 C531 0.951 . S
H508 C533 0.951 . S
H509 C535 0.950 . S
H510 C536 0.950 . S
H511 C538 0.950 . S
H512 C541 0.950 . S
H513 C542 0.950 . S
H514 C544 0.950 . S
H515 C545 0.950 . S
C516 H498 0.951 . S
C516 C517 1.366 . S
C516 C518 1.388 . S
C517 C516 1.366 . S
C517 C521 1.385 . S
C518 H499 0.951 . S
C518 C516 1.388 . S
C518 C519 1.366 . S
C519 C518 1.366 . S
C519 C520 1.414 . S
C519 C522 1.499 . S
C520 H500 0.950 . S
C520 C519 1.414 . S
C520 C521 1.374 . S
C521 H501 0.950 . S
C521 C517 1.385 . S
C521 C520 1.374 . S
C522 C519 1.499 . S
C522 C523 1.373 . S
C522 C524 1.389 . S
C523 H502 0.950 . S
C523 C522 1.373 . S
C523 C539 1.377 . S
C524 C522 1.389 . S
C524 C525 1.524 . S
C524 C538 1.377 . S
C525 C524 1.524 . S
C525 C526 1.397 . S
C525 C530 1.363 . S
C526 H503 0.950 . S
C526 C525 1.397 . S
C526 C527 1.334 . S
C527 H504 0.950 . S
C527 C526 1.334 . S
C527 C528 1.287 . S
C528 C527 1.287 . S
C528 C529 1.524 . S
C528 H547 0.913 . S
C529 H505 0.950 . S
C529 C528 1.524 . S
C529 C530 1.415 . S
C530 H506 0.950 . S
C530 C525 1.363 . S
C530 C529 1.415 . S
C531 H507 0.951 . S
C531 C532 1.366 . S
C531 C533 1.388 . S
C532 C531 1.366 . S
C532 C536 1.385 . S
C533 H508 0.951 . S
C533 C531 1.388 . S
C533 C534 1.366 . S
C534 C533 1.366 . S
C534 C535 1.414 . S
C534 C537 1.499 . S
C535 H509 0.950 . S
C535 C534 1.414 . S
C535 C536 1.374 . S
C536 H510 0.950 . S
C536 C532 1.385 . S
C536 C535 1.374 . S
C537 C534 1.499 . S
C537 C538 1.373 . S
C537 C539 1.389 . S
C538 H511 0.950 . S
C538 C524 1.377 . S
C538 C537 1.373 . S
C539 C523 1.377 . S
C539 C537 1.389 . S
C539 C540 1.524 . S
C540 C539 1.524 . S
C540 C541 1.397 . S
C540 C545 1.363 . S
C541 H512 0.950 . S
C541 C540 1.397 . S
C541 C542 1.334 . S
C542 H513 0.950 . S
C542 C541 1.334 . S
C542 C543 1.287 . S
C543 C542 1.287 . S
C543 C544 1.524 . S
C543 H546 0.999 . S
C544 H514 0.950 . S
C544 C543 1.524 . S
C544 C545 1.415 . S
C545 H515 0.950 . S
C545 C540 1.363 . S
C545 C544 1.415 . S
H546 C543 0.999 . S
H547 C528 0.913 . S
H548 C566 0.951 . S
H549 C568 0.951 . S
H550 C570 0.950 . S
H551 C571 0.950 . S
H552 C573 0.950 . S
H553 C576 0.950 . S
H554 C577 0.950 . S
H555 C579 0.950 . S
H556 C580 0.950 . S
H557 C581 0.974 . S
H558 C583 0.951 1_554 S
H559 C585 0.950 . S
H560 C586 0.950 . S
H561 C588 0.950 . S
H562 C591 0.950 . S
H563 C592 0.950 . S
H564 C594 0.950 . S
H565 C595 0.950 . S
C566 H548 0.951 . S
C566 C567 1.366 . S
C566 C568 1.388 . S
C567 C566 1.366 . S
C567 C571 1.385 . S
C568 H549 0.951 . S
C568 C566 1.388 . S
C568 C569 1.366 . S
C569 C568 1.366 . S
C569 C570 1.414 . S
C569 C572 1.499 . S
C570 H550 0.950 . S
C570 C569 1.414 . S
C570 C571 1.374 . S
C571 H551 0.950 . S
C571 C567 1.385 . S
C571 C570 1.374 . S
C572 C569 1.499 . S
C572 C573 1.373 . S
C572 C574 1.389 . S
C573 H552 0.950 . S
C573 C572 1.373 . S
C573 C589 1.377 . S
C574 C572 1.389 . S
C574 C575 1.524 . S
C574 C588 1.377 . S
C575 C574 1.524 . S
C575 C576 1.397 . S
C575 C580 1.363 . S
C576 H553 0.950 . S
C576 C575 1.397 . S
C576 C577 1.334 . S
C577 H554 0.950 . S
C577 C576 1.334 . S
C577 C578 1.287 . S
C578 C577 1.287 . S
C578 C579 1.524 . S
C578 H597 0.913 . S
C579 H555 0.950 . S
C579 C578 1.524 . S
C579 C580 1.415 . S
C580 H556 0.950 . S
C580 C575 1.363 . S
C580 C579 1.415 . S
C581 H557 0.974 . S
C581 C582 1.351 1_554 S
C581 C583 1.379 1_554 S
C582 C581 1.351 1_556 S
C582 C586 1.385 . S
C583 H558 0.951 1_556 S
C583 C581 1.379 1_556 S
C583 C584 1.366 . S
C584 C583 1.366 . S
C584 C585 1.414 . S
C584 C587 1.499 . S
C585 H559 0.950 . S
C585 C584 1.414 . S
C585 C586 1.374 . S
C586 H560 0.950 . S
C586 C582 1.385 . S
C586 C585 1.374 . S
C587 C584 1.499 . S
C587 C588 1.373 . S
C587 C589 1.389 . S
C588 H561 0.950 . S
C588 C574 1.377 . S
C588 C587 1.373 . S
C589 C573 1.377 . S
C589 C587 1.389 . S
C589 C590 1.524 . S
C590 C589 1.524 . S
C590 C591 1.397 . S
C590 C595 1.363 1_556 S
C591 H562 0.950 . S
C591 C590 1.397 . S
C591 C592 1.334 . S
C592 H563 0.950 . S
C592 C591 1.334 . S
C592 C593 1.287 1_556 S
C593 C592 1.287 1_554 S
C593 C594 1.524 . S
C593 H596 0.999 . S
C594 H564 0.950 . S
C594 C593 1.524 . S
C594 C595 1.415 . S
C595 H565 0.950 . S
C595 C590 1.363 1_554 S
C595 C594 1.415 . S
H596 C593 0.999 . S
H597 C578 0.913 . S
H598 C616 0.951 . S
H599 C618 0.951 . S
H600 C620 0.950 . S
H601 C621 0.950 . S
H602 C623 0.950 . S
H603 C626 0.950 . S
H604 C627 0.950 . S
H605 C629 0.950 . S
H606 C630 0.950 . S
H607 C631 0.951 . S
H608 C633 0.951 . S
H609 C635 0.950 . S
H610 C636 0.950 . S
H611 C638 0.950 . S
H612 C641 0.950 . S
H613 C642 0.950 . S
H614 C644 0.950 . S
H615 C645 0.950 . S
C616 H598 0.951 . S
C616 C617 1.366 . S
C616 C618 1.388 . S
C617 C616 1.366 . S
C617 C621 1.385 . S
C618 H599 0.951 . S
C618 C616 1.388 . S
C618 C619 1.366 . S
C619 C618 1.366 . S
C619 C620 1.414 . S
C619 C622 1.499 . S
C620 H600 0.950 . S
C620 C619 1.414 . S
C620 C621 1.374 . S
C621 H601 0.950 . S
C621 C617 1.385 . S
C621 C620 1.374 . S
C622 C619 1.499 . S
C622 C623 1.373 . S
C622 C624 1.389 . S
C623 H602 0.950 . S
C623 C622 1.373 . S
C623 C639 1.377 . S
C624 C622 1.389 . S
C624 C625 1.524 . S
C624 C638 1.377 . S
C625 C624 1.524 . S
C625 C626 1.397 . S
C625 C630 1.363 . S
C626 H603 0.950 . S
C626 C625 1.397 . S
C626 C627 1.334 . S
C627 H604 0.950 . S
C627 C626 1.334 . S
C627 C628 1.287 . S
C628 C627 1.287 . S
C628 C629 1.524 . S
C628 H647 0.913 . S
C629 H605 0.950 . S
C629 C628 1.524 . S
C629 C630 1.415 . S
C630 H606 0.950 . S
C630 C625 1.363 . S
C630 C629 1.415 . S
C631 H607 0.951 . S
C631 C632 1.366 . S
C631 C633 1.388 . S
C632 C631 1.366 . S
C632 C636 1.385 . S
C633 H608 0.951 . S
C633 C631 1.388 . S
C633 C634 1.366 . S
C634 C633 1.366 . S
C634 C635 1.414 . S
C634 C637 1.499 . S
C635 H609 0.950 . S
C635 C634 1.414 . S
C635 C636 1.374 . S
C636 H610 0.950 . S
C636 C632 1.385 . S
C636 C635 1.374 . S
C637 C634 1.499 . S
C637 C638 1.373 . S
C637 C639 1.389 . S
C638 H611 0.950 . S
C638 C624 1.377 . S
C638 C637 1.373 . S
C639 C623 1.377 . S
C639 C637 1.389 . S
C639 C640 1.524 . S
C640 C639 1.524 . S
C640 C641 1.397 . S
C640 C645 1.363 . S
C641 H612 0.950 . S
C641 C640 1.397 . S
C641 C642 1.334 . S
C642 H613 0.950 . S
C642 C641 1.334 . S
C642 C643 1.287 . S
C643 C642 1.287 . S
C643 C644 1.524 . S
C643 H646 0.999 . S
C644 H614 0.950 . S
C644 C643 1.524 . S
C644 C645 1.415 . S
C645 H615 0.950 . S
C645 C640 1.363 . S
C645 C644 1.415 . S
H646 C643 0.999 . S
H647 C628 0.913 . S
H648 C666 0.951 . S
H649 C668 0.951 . S
H650 C670 0.950 . S
H651 C671 0.950 . S
H652 C673 0.950 . S
H653 C676 0.950 . S
H654 C677 0.950 . S
H655 C679 0.950 . S
H656 C680 0.950 . S
H657 C681 0.951 . S
H658 C683 0.951 . S
H659 C685 0.950 . S
H660 C686 0.950 . S
H661 C688 0.950 . S
H662 C691 0.950 . S
H663 C692 0.950 . S
H664 C694 0.950 . S
H665 C695 0.950 . S
C666 H648 0.951 . S
C666 C667 1.366 . S
C666 C668 1.388 . S
C667 C666 1.366 . S
C667 C671 1.385 . S
C668 H649 0.951 . S
C668 C666 1.388 . S
C668 C669 1.366 . S
C669 C668 1.366 . S
C669 C670 1.414 . S
C669 C672 1.499 . S
C670 H650 0.950 . S
C670 C669 1.414 . S
C670 C671 1.374 . S
C671 H651 0.950 . S
C671 C667 1.385 . S
C671 C670 1.374 . S
C672 C669 1.499 . S
C672 C673 1.373 . S
C672 C674 1.389 . S
C673 H652 0.950 . S
C673 C672 1.373 . S
C673 C689 1.377 . S
C674 C672 1.389 . S
C674 C675 1.524 . S
C674 C688 1.377 . S
C675 C674 1.524 . S
C675 C676 1.397 . S
C675 C680 1.363 . S
C676 H653 0.950 . S
C676 C675 1.397 . S
C676 C677 1.334 . S
C677 H654 0.950 . S
C677 C676 1.334 . S
C677 C678 1.287 . S
C678 C677 1.287 . S
C678 C679 1.524 . S
C678 H697 0.913 . S
C679 H655 0.950 . S
C679 C678 1.524 . S
C679 C680 1.415 . S
C680 H656 0.950 . S
C680 C675 1.363 . S
C680 C679 1.415 . S
C681 H657 0.951 . S
C681 C682 1.366 . S
C681 C683 1.388 . S
C682 C681 1.366 . S
C682 C686 1.385 . S
C683 H658 0.951 . S
C683 C681 1.388 . S
C683 C684 1.366 . S
C684 C683 1.366 . S
C684 C685 1.414 . S
C684 C687 1.499 . S
C685 H659 0.950 . S
C685 C684 1.414 . S
C685 C686 1.374 . S
C686 H660 0.950 . S
C686 C682 1.385 . S
C686 C685 1.374 . S
C687 C684 1.499 . S
C687 C688 1.373 . S
C687 C689 1.389 . S
C688 H661 0.950 . S
C688 C674 1.377 . S
C688 C687 1.373 . S
C689 C673 1.377 . S
C689 C687 1.389 . S
C689 C690 1.524 . S
C690 C689 1.524 . S
C690 C691 1.397 . S
C690 C695 1.363 . S
C691 H662 0.950 . S
C691 C690 1.397 . S
C691 C692 1.334 . S
C692 H663 0.950 . S
C692 C691 1.334 . S
C692 C693 1.287 . S
C693 C692 1.287 . S
C693 C694 1.524 . S
C693 H696 0.999 . S
C694 H664 0.950 . S
C694 C693 1.524 . S
C694 C695 1.415 . S
C695 H665 0.950 . S
C695 C690 1.363 . S
C695 C694 1.415 . S
H696 C693 0.999 . S
H697 C678 0.913 . S
H698 C716 0.951 . S
H699 C718 0.951 . S
H700 C720 0.950 . S
H701 C721 0.950 . S
H702 C723 0.941 1_554 S
H703 C726 0.950 . S
H704 C727 0.950 . S
H705 C729 0.950 . S
H706 C730 0.950 . S
H707 C731 0.951 . S
H708 C733 0.951 . S
H709 C735 0.950 . S
H710 C736 0.950 . S
H711 C738 0.950 . S
H712 C741 0.950 . S
H713 C742 0.950 . S
H714 C744 0.950 . S
H715 C745 0.950 . S
C716 H698 0.951 . S
C716 C717 1.366 . S
C716 C718 1.388 . S
C717 C716 1.366 . S
C717 C721 1.385 . S
C718 H699 0.951 . S
C718 C716 1.388 . S
C718 C719 1.366 . S
C719 C718 1.366 . S
C719 C720 1.414 . S
C719 C722 1.499 . S
C720 H700 0.950 . S
C720 C719 1.414 . S
C720 C721 1.374 . S
C721 H701 0.950 . S
C721 C717 1.385 . S
C721 C720 1.374 . S
C722 C719 1.499 . S
C722 C723 1.373 . S
C722 C724 1.389 . S
C723 H702 0.941 1_556 S
C723 C722 1.373 . S
C723 C739 1.374 1_556 S
C724 C722 1.389 . S
C724 C725 1.524 . S
C724 C738 1.377 . S
C725 C724 1.524 . S
C725 C726 1.397 . S
C725 C730 1.363 . S
C726 H703 0.950 . S
C726 C725 1.397 . S
C726 C727 1.334 . S
C727 H704 0.950 . S
C727 C726 1.334 . S
C727 C728 1.287 . S
C728 C727 1.287 . S
C728 C729 1.524 . S
C728 H747 0.913 . S
C729 H705 0.950 . S
C729 C728 1.524 . S
C729 C730 1.415 . S
C730 H706 0.950 . S
C730 C725 1.363 . S
C730 C729 1.415 . S
C731 H707 0.951 . S
C731 C732 1.366 . S
C731 C733 1.388 . S
C732 C731 1.366 . S
C732 C736 1.385 1_554 S
C733 H708 0.951 . S
C733 C731 1.388 . S
C733 C734 1.366 1_554 S
C734 C733 1.366 1_556 S
C734 C735 1.414 . S
C734 C737 1.499 . S
C735 H709 0.950 . S
C735 C734 1.414 . S
C735 C736 1.374 . S
C736 H710 0.950 . S
C736 C732 1.385 1_556 S
C736 C735 1.374 . S
C737 C734 1.499 . S
C737 C738 1.373 . S
C737 C739 1.386 1_556 S
C738 H711 0.950 . S
C738 C724 1.377 . S
C738 C737 1.373 . S
C739 C723 1.374 1_554 S
C739 C737 1.386 1_554 S
C739 C740 1.530 . S
C740 C739 1.530 . S
C740 C741 1.397 . S
C740 C745 1.363 . S
C741 H712 0.950 . S
C741 C740 1.397 . S
C741 C742 1.334 . S
C742 H713 0.950 . S
C742 C741 1.334 . S
C742 C743 1.287 . S
C743 C742 1.287 . S
C743 C744 1.524 . S
C743 H746 0.999 . S
C744 H714 0.950 . S
C744 C743 1.524 . S
C744 C745 1.415 . S
C745 H715 0.950 . S
C745 C740 1.363 . S
C745 C744 1.415 . S
H746 C743 0.999 . S
H747 C728 0.913 . S
H748 C766 0.951 . S
H749 C768 0.951 . S
H750 C770 0.950 . S
H751 C771 0.950 . S
H752 C773 0.950 . S
H753 C776 0.950 . S
H754 C777 0.950 1_455 S
H755 C779 0.948 . S
H756 C780 0.950 . S
H757 C781 0.951 . S
H758 C783 0.951 . S
H759 C785 0.950 . S
H760 C786 0.950 . S
H761 C788 0.950 . S
H762 C791 0.950 . S
H763 C792 0.950 . S
H764 C794 0.950 . S
H765 C795 0.950 . S
C766 H748 0.951 . S
C766 C767 1.366 . S
C766 C768 1.388 . S
C767 C766 1.366 . S
C767 C771 1.385 . S
C768 H749 0.951 . S
C768 C766 1.388 . S
C768 C769 1.366 . S
C769 C768 1.366 . S
C769 C770 1.414 . S
C769 C772 1.499 . S
C770 H750 0.950 . S
C770 C769 1.414 . S
C770 C771 1.374 . S
C771 H751 0.950 . S
C771 C767 1.385 . S
C771 C770 1.374 . S
C772 C769 1.499 . S
C772 C773 1.373 . S
C772 C774 1.389 . S
C773 H752 0.950 . S
C773 C772 1.373 . S
C773 C789 1.377 . S
C774 C772 1.389 . S
C774 C775 1.524 . S
C774 C788 1.377 . S
C775 C774 1.524 . S
C775 C776 1.397 . S
C775 C780 1.363 . S
C776 H753 0.950 . S
C776 C775 1.397 . S
C776 C777 1.334 . S
C777 H754 0.950 1_655 S
C777 C776 1.334 . S
C777 C778 1.287 1_655 S
C778 C777 1.287 1_455 S
C778 C779 1.522 . S
C778 H797 0.913 . S
C779 H755 0.948 . S
C779 C778 1.522 . S
C779 C780 1.418 1_455 S
C780 H756 0.950 . S
C780 C775 1.363 . S
C780 C779 1.418 1_655 S
C781 H757 0.951 . S
C781 C782 1.366 . S
C781 C783 1.388 . S
C782 C781 1.366 . S
C782 C786 1.385 . S
C783 H758 0.951 . S
C783 C781 1.388 . S
C783 C784 1.366 . S
C784 C783 1.366 . S
C784 C785 1.414 . S
C784 C787 1.499 . S
C785 H759 0.950 . S
C785 C784 1.414 . S
C785 C786 1.374 . S
C786 H760 0.950 . S
C786 C782 1.385 . S
C786 C785 1.374 . S
C787 C784 1.499 . S
C787 C788 1.373 . S
C787 C789 1.389 . S
C788 H761 0.950 . S
C788 C774 1.377 . S
C788 C787 1.373 . S
C789 C773 1.377 . S
C789 C787 1.389 . S
C789 C790 1.524 . S
C790 C789 1.524 . S
C790 C791 1.397 . S
C790 C795 1.363 . S
C791 H762 0.950 . S
C791 C790 1.397 . S
C791 C792 1.334 . S
C792 H763 0.950 . S
C792 C791 1.334 . S
C792 C793 1.287 . S
C793 C792 1.287 . S
C793 C794 1.524 . S
C793 H796 0.999 . S
C794 H764 0.950 . S
C794 C793 1.524 . S
C794 C795 1.415 . S
C795 H765 0.950 . S
C795 C790 1.363 . S
C795 C794 1.415 . S
H796 C793 0.999 . S
H797 C778 0.913 . S
H798 C816 0.951 . S
H799 C818 0.951 . S
H800 C820 0.950 . S
H801 C821 0.950 . S
H802 C823 0.950 . S
H803 C826 0.950 . S
H804 C827 0.950 . S
H805 C829 0.950 . S
H806 C830 0.950 . S
H807 C831 0.951 . S
H808 C833 0.951 . S
H809 C835 0.950 . S
H810 C836 0.950 . S
H811 C838 0.950 . S
H812 C841 0.950 . S
H813 C842 0.950 . S
H814 C844 0.950 . S
H815 C845 0.950 . S
C816 H798 0.951 . S
C816 C817 1.366 . S
C816 C818 1.388 . S
C817 C816 1.366 . S
C817 C821 1.385 . S
C818 H799 0.951 . S
C818 C816 1.388 . S
C818 C819 1.366 . S
C819 C818 1.366 . S
C819 C820 1.414 . S
C819 C822 1.499 . S
C820 H800 0.950 . S
C820 C819 1.414 . S
C820 C821 1.374 . S
C821 H801 0.950 . S
C821 C817 1.385 . S
C821 C820 1.374 . S
C822 C819 1.499 . S
C822 C823 1.373 . S
C822 C824 1.389 . S
C823 H802 0.950 . S
C823 C822 1.373 . S
C823 C839 1.377 . S
C824 C822 1.389 . S
C824 C825 1.524 . S
C824 C838 1.377 . S
C825 C824 1.524 . S
C825 C826 1.397 . S
C825 C830 1.363 . S
C826 H803 0.950 . S
C826 C825 1.397 . S
C826 C827 1.334 . S
C827 H804 0.950 . S
C827 C826 1.334 . S
C827 C828 1.287 . S
C828 C827 1.287 . S
C828 C829 1.524 . S
C828 H847 0.913 . S
C829 H805 0.950 . S
C829 C828 1.524 . S
C829 C830 1.415 . S
C830 H806 0.950 . S
C830 C825 1.363 . S
C830 C829 1.415 . S
C831 H807 0.951 . S
C831 C832 1.366 . S
C831 C833 1.388 . S
C832 C831 1.366 . S
C832 C836 1.385 . S
C833 H808 0.951 . S
C833 C831 1.388 . S
C833 C834 1.366 . S
C834 C833 1.366 . S
C834 C835 1.414 . S
C834 C837 1.499 . S
C835 H809 0.950 . S
C835 C834 1.414 . S
C835 C836 1.374 . S
C836 H810 0.950 . S
C836 C832 1.385 . S
C836 C835 1.374 . S
C837 C834 1.499 . S
C837 C838 1.373 . S
C837 C839 1.389 . S
C838 H811 0.950 . S
C838 C824 1.377 . S
C838 C837 1.373 . S
C839 C823 1.377 . S
C839 C837 1.389 . S
C839 C840 1.524 . S
C840 C839 1.524 . S
C840 C841 1.397 . S
C840 C845 1.363 . S
C841 H812 0.950 . S
C841 C840 1.397 . S
C841 C842 1.334 . S
C842 H813 0.950 . S
C842 C841 1.334 . S
C842 C843 1.287 . S
C843 C842 1.287 . S
C843 C844 1.524 . S
C843 H846 0.999 . S
C844 H814 0.950 . S
C844 C843 1.524 . S
C844 C845 1.415 . S
C845 H815 0.950 . S
C845 C840 1.363 . S
C845 C844 1.415 . S
H846 C843 0.999 . S
H847 C828 0.913 . S
H848 C866 0.951 . S
H849 C868 0.951 . S
H850 C870 0.950 . S
H851 C871 0.950 . S
H852 C873 0.950 . S
H853 C876 0.950 . S
H854 C877 0.950 . S
H855 C879 0.950 . S
H856 C880 0.950 . S
H857 C881 0.951 . S
H858 C883 0.951 . S
H859 C885 0.950 . S
H860 C886 0.950 . S
H861 C888 0.950 . S
H862 C891 0.950 . S
H863 C892 0.950 . S
H864 C894 0.950 . S
H865 C895 0.950 . S
C866 H848 0.951 . S
C866 C867 1.366 . S
C866 C868 1.388 . S
C867 C866 1.366 . S
C867 C871 1.385 . S
C868 H849 0.951 . S
C868 C866 1.388 . S
C868 C869 1.366 . S
C869 C868 1.366 . S
C869 C870 1.414 . S
C869 C872 1.499 . S
C870 H850 0.950 . S
C870 C869 1.414 . S
C870 C871 1.374 . S
C871 H851 0.950 . S
C871 C867 1.385 . S
C871 C870 1.374 . S
C872 C869 1.499 . S
C872 C873 1.373 . S
C872 C874 1.389 . S
C873 H852 0.950 . S
C873 C872 1.373 . S
C873 C889 1.377 . S
C874 C872 1.389 . S
C874 C875 1.524 . S
C874 C888 1.377 . S
C875 C874 1.524 . S
C875 C876 1.397 . S
C875 C880 1.363 . S
C876 H853 0.950 . S
C876 C875 1.397 . S
C876 C877 1.334 . S
C877 H854 0.950 . S
C877 C876 1.334 . S
C877 C878 1.287 . S
C878 C877 1.287 . S
C878 C879 1.524 . S
C878 H897 0.913 . S
C879 H855 0.950 . S
C879 C878 1.524 . S
C879 C880 1.415 . S
C880 H856 0.950 . S
C880 C875 1.363 . S
C880 C879 1.415 . S
C881 H857 0.951 . S
C881 C882 1.366 . S
C881 C883 1.388 . S
C882 C881 1.366 . S
C882 C886 1.385 . S
C883 H858 0.951 . S
C883 C881 1.388 . S
C883 C884 1.366 . S
C884 C883 1.366 . S
C884 C885 1.414 . S
C884 C887 1.499 . S
C885 H859 0.950 . S
C885 C884 1.414 . S
C885 C886 1.374 . S
C886 H860 0.950 . S
C886 C882 1.385 . S
C886 C885 1.374 . S
C887 C884 1.499 . S
C887 C888 1.373 . S
C887 C889 1.389 . S
C888 H861 0.950 . S
C888 C874 1.377 . S
C888 C887 1.373 . S
C889 C873 1.377 . S
C889 C887 1.389 . S
C889 C890 1.524 . S
C890 C889 1.524 . S
C890 C891 1.397 . S
C890 C895 1.363 . S
C891 H862 0.950 . S
C891 C890 1.397 . S
C891 C892 1.334 . S
C892 H863 0.950 . S
C892 C891 1.334 . S
C892 C893 1.287 . S
C893 C892 1.287 . S
C893 C894 1.524 . S
C893 H896 0.999 . S
C894 H864 0.950 . S
C894 C893 1.524 . S
C894 C895 1.415 . S
C895 H865 0.950 . S
C895 C890 1.363 . S
C895 C894 1.415 . S
H896 C893 0.999 . S
H897 C878 0.913 . S
H898 C916 0.951 . S
H899 C918 0.951 . S
H900 C920 0.950 . S
H901 C921 0.950 . S
H902 C923 0.950 . S
H903 C926 0.950 . S
H904 C927 0.950 . S
H905 C929 0.950 . S
H906 C930 0.950 . S
H907 C931 0.951 . S
H908 C933 0.951 . S
H909 C935 0.950 . S
H910 C936 0.950 . S
H911 C938 0.950 . S
H912 C941 0.950 . S
H913 C942 0.950 . S
H914 C944 0.950 . S
H915 C945 0.950 . S
C916 H898 0.951 . S
C916 C917 1.366 . S
C916 C918 1.388 . S
C917 C916 1.366 . S
C917 C921 1.385 . S
C918 H899 0.951 . S
C918 C916 1.388 . S
C918 C919 1.366 . S
C919 C918 1.366 . S
C919 C920 1.414 . S
C919 C922 1.499 . S
C920 H900 0.950 . S
C920 C919 1.414 . S
C920 C921 1.374 . S
C921 H901 0.950 . S
C921 C917 1.385 . S
C921 C920 1.374 . S
C922 C919 1.499 . S
C922 C923 1.373 . S
C922 C924 1.389 . S
C923 H902 0.950 . S
C923 C922 1.373 . S
C923 C939 1.377 . S
C924 C922 1.389 . S
C924 C925 1.524 . S
C924 C938 1.377 . S
C925 C924 1.524 . S
C925 C926 1.397 . S
C925 C930 1.363 . S
C926 H903 0.950 . S
C926 C925 1.397 . S
C926 C927 1.334 . S
C927 H904 0.950 . S
C927 C926 1.334 . S
C927 C928 1.287 . S
C928 C927 1.287 . S
C928 C929 1.524 . S
C928 H947 0.913 . S
C929 H905 0.950 . S
C929 C928 1.524 . S
C929 C930 1.415 . S
C930 H906 0.950 . S
C930 C925 1.363 . S
C930 C929 1.415 . S
C931 H907 0.951 . S
C931 C932 1.366 . S
C931 C933 1.388 . S
C932 C931 1.366 . S
C932 C936 1.385 . S
C933 H908 0.951 . S
C933 C931 1.388 . S
C933 C934 1.366 . S
C934 C933 1.366 . S
C934 C935 1.414 . S
C934 C937 1.499 . S
C935 H909 0.950 . S
C935 C934 1.414 . S
C935 C936 1.374 . S
C936 H910 0.950 . S
C936 C932 1.385 . S
C936 C935 1.374 . S
C937 C934 1.499 . S
C937 C938 1.373 . S
C937 C939 1.389 . S
C938 H911 0.950 . S
C938 C924 1.377 . S
C938 C937 1.373 . S
C939 C923 1.377 . S
C939 C937 1.389 . S
C939 C940 1.524 . S
C940 C939 1.524 . S
C940 C941 1.397 . S
C940 C945 1.363 . S
C941 H912 0.950 . S
C941 C940 1.397 . S
C941 C942 1.334 . S
C942 H913 0.950 . S
C942 C941 1.334 . S
C942 C943 1.287 . S
C943 C942 1.287 . S
C943 C944 1.524 . S
C943 H946 0.999 . S
C944 H914 0.950 . S
C944 C943 1.524 . S
C944 C945 1.415 . S
C945 H915 0.950 . S
C945 C940 1.363 . S
C945 C944 1.415 . S
H946 C943 0.999 . S
H947 C928 0.913 . S
H948 C966 0.951 . S
H949 C968 0.951 . S
H950 C970 0.950 . S
H951 C971 0.950 . S
H952 C973 0.950 . S
H953 C976 0.950 . S
H954 C977 0.950 . S
H955 C979 0.950 . S
H956 C980 0.950 . S
H957 C981 0.951 . S
H958 C983 0.951 . S
H959 C985 0.950 . S
H960 C986 0.950 . S
H961 C988 0.950 . S
H962 C991 0.950 . S
H963 C992 0.950 . S
H964 C994 0.950 . S
H965 C995 0.950 . S
C966 H948 0.951 . S
C966 C967 1.366 . S
C966 C968 1.388 . S
C967 C966 1.366 . S
C967 C971 1.385 . S
C968 H949 0.951 . S
C968 C966 1.388 . S
C968 C969 1.366 . S
C969 C968 1.366 . S
C969 C970 1.414 . S
C969 C972 1.499 . S
C970 H950 0.950 . S
C970 C969 1.414 . S
C970 C971 1.374 . S
C971 H951 0.950 . S
C971 C967 1.385 . S
C971 C970 1.374 . S
C972 C969 1.499 . S
C972 C973 1.373 . S
C972 C974 1.389 . S
C973 H952 0.950 . S
C973 C972 1.373 . S
C973 C989 1.377 . S
C974 C972 1.389 . S
C974 C975 1.524 . S
C974 C988 1.377 . S
C975 C974 1.524 . S
C975 C976 1.397 . S
C975 C980 1.363 . S
C976 H953 0.950 . S
C976 C975 1.397 . S
C976 C977 1.334 . S
C977 H954 0.950 . S
C977 C976 1.334 . S
C977 C978 1.287 . S
C978 C977 1.287 . S
C978 C979 1.524 . S
C978 H997 0.913 . S
C979 H955 0.950 . S
C979 C978 1.524 . S
C979 C980 1.415 . S
C980 H956 0.950 . S
C980 C975 1.363 . S
C980 C979 1.415 . S
C981 H957 0.951 . S
C981 C982 1.366 . S
C981 C983 1.388 . S
C982 C981 1.366 . S
C982 C986 1.385 . S
C983 H958 0.951 . S
C983 C981 1.388 . S
C983 C984 1.366 . S
C984 C983 1.366 . S
C984 C985 1.414 . S
C984 C987 1.499 . S
C985 H959 0.950 . S
C985 C984 1.414 . S
C985 C986 1.374 . S
C986 H960 0.950 . S
C986 C982 1.385 . S
C986 C985 1.374 . S
C987 C984 1.499 . S
C987 C988 1.373 . S
C987 C989 1.389 . S
C988 H961 0.950 . S
C988 C974 1.377 . S
C988 C987 1.373 . S
C989 C973 1.377 . S
C989 C987 1.389 . S
C989 C990 1.524 . S
C990 C989 1.524 . S
C990 C991 1.397 . S
C990 C995 1.363 . S
C991 H962 0.950 . S
C991 C990 1.397 . S
C991 C992 1.334 . S
C992 H963 0.950 . S
C992 C991 1.334 . S
C992 C993 1.287 . S
C993 C992 1.287 . S
C993 C994 1.524 . S
C993 H996 0.999 . S
C994 H964 0.950 . S
C994 C993 1.524 . S
C994 C995 1.415 . S
C995 H965 0.950 . S
C995 C990 1.363 . S
C995 C994 1.415 . S
H996 C993 0.999 . S
H997 C978 0.913 . S
H998 C1016 0.951 . S
H999 C1018 0.951 . S
H1000 C1020 0.950 . S
H1001 C1021 0.950 . S
H1002 C1023 0.950 . S
H1003 C1026 0.950 . S
H1004 C1027 0.950 . S
H1005 C1029 0.950 . S
H1006 C1030 0.950 . S
H1007 C1031 0.951 . S
H1008 C1033 0.951 . S
H1009 C1035 0.950 . S
H1010 C1036 0.950 . S
H1011 C1038 0.950 . S
H1012 C1041 0.950 . S
H1013 C1042 0.950 . S
H1014 C1044 0.950 . S
H1015 C1045 0.950 . S
C1016 H998 0.951 . S
C1016 C1017 1.366 . S
C1016 C1018 1.388 . S
C1017 C1016 1.366 . S
C1017 C1021 1.385 . S
C1018 H999 0.951 . S
C1018 C1016 1.388 . S
C1018 C1019 1.366 . S
C1019 C1018 1.366 . S
C1019 C1020 1.414 . S
C1019 C1022 1.499 . S
C1020 H1000 0.950 . S
C1020 C1019 1.414 . S
C1020 C1021 1.374 . S
C1021 H1001 0.950 . S
C1021 C1017 1.385 . S
C1021 C1020 1.374 . S
C1022 C1019 1.499 . S
C1022 C1023 1.373 . S
C1022 C1024 1.389 . S
C1023 H1002 0.950 . S
C1023 C1022 1.373 . S
C1023 C1039 1.377 . S
C1024 C1022 1.389 . S
C1024 C1025 1.524 . S
C1024 C1038 1.377 . S
C1025 C1024 1.524 . S
C1025 C1026 1.397 . S
C1025 C1030 1.363 . S
C1026 H1003 0.950 . S
C1026 C1025 1.397 . S
C1026 C1027 1.334 . S
C1027 H1004 0.950 . S
C1027 C1026 1.334 . S
C1027 C1028 1.287 . S
C1028 C1027 1.287 . S
C1028 C1029 1.524 . S
C1028 H1047 0.913 . S
C1029 H1005 0.950 . S
C1029 C1028 1.524 . S
C1029 C1030 1.415 . S
C1030 H1006 0.950 . S
C1030 C1025 1.363 . S
C1030 C1029 1.415 . S
C1031 H1007 0.951 . S
C1031 C1032 1.366 . S
C1031 C1033 1.388 . S
C1032 C1031 1.366 . S
C1032 C1036 1.385 . S
C1033 H1008 0.951 . S
C1033 C1031 1.388 . S
C1033 C1034 1.366 . S
C1034 C1033 1.366 . S
C1034 C1035 1.414 . S
C1034 C1037 1.499 . S
C1035 H1009 0.950 . S
C1035 C1034 1.414 . S
C1035 C1036 1.374 . S
C1036 H1010 0.950 . S
C1036 C1032 1.385 . S
C1036 C1035 1.374 . S
C1037 C1034 1.499 . S
C1037 C1038 1.373 . S
C1037 C1039 1.389 . S
C1038 H1011 0.950 . S
C1038 C1024 1.377 . S
C1038 C1037 1.373 . S
C1039 C1023 1.377 . S
C1039 C1037 1.389 . S
C1039 C1040 1.524 . S
C1040 C1039 1.524 . S
C1040 C1041 1.397 . S
C1040 C1045 1.363 . S
C1041 H1012 0.950 . S
C1041 C1040 1.397 . S
C1041 C1042 1.334 . S
C1042 H1013 0.950 . S
C1042 C1041 1.334 . S
C1042 C1043 1.287 . S
C1043 C1042 1.287 . S
C1043 C1044 1.524 . S
C1043 H1046 0.999 . S
C1044 H1014 0.950 . S
C1044 C1043 1.524 . S
C1044 C1045 1.415 . S
C1045 H1015 0.950 . S
C1045 C1040 1.363 . S
C1045 C1044 1.415 . S
H1046 C1043 0.999 . S
H1047 C1028 0.913 . S
H1048 C1066 0.951 . S
H1049 C1068 0.951 . S
H1050 C1070 0.950 . S
H1051 C1071 0.950 . S
H1052 C1073 0.950 . S
H1053 C1076 0.950 . S
H1054 C1077 0.950 . S
H1055 C1079 0.950 . S
H1056 C1080 0.950 . S
H1057 C1081 0.951 . S
H1058 C1083 0.951 . S
H1059 C1085 0.950 . S
H1060 C1086 0.917 1_545 S
H1061 C1088 0.950 1_554 S
H1062 C1091 0.950 . S
H1063 C1092 0.950 . S
H1064 C1094 0.950 . S
H1065 C1095 0.950 . S
C1066 H1048 0.951 . S
C1066 C1067 1.366 . S
C1066 C1068 1.388 . S
C1067 C1066 1.366 . S
C1067 C1071 1.385 . S
C1068 H1049 0.951 . S
C1068 C1066 1.388 . S
C1068 C1069 1.366 . S
C1069 C1068 1.366 . S
C1069 C1070 1.414 . S
C1069 C1072 1.499 . S
C1070 H1050 0.950 . S
C1070 C1069 1.414 . S
C1070 C1071 1.374 . S
C1071 H1051 0.950 . S
C1071 C1067 1.385 . S
C1071 C1070 1.374 . S
C1072 C1069 1.499 . S
C1072 C1073 1.373 . S
C1072 C1074 1.389 . S
C1073 H1052 0.950 . S
C1073 C1072 1.373 . S
C1073 C1089 1.377 . S
C1074 C1072 1.389 . S
C1074 C1075 1.524 . S
C1074 C1088 1.377 . S
C1075 C1074 1.524 . S
C1075 C1076 1.397 . S
C1075 C1080 1.363 1_556 S
C1076 H1053 0.950 . S
C1076 C1075 1.397 . S
C1076 C1077 1.334 1_556 S
C1077 H1054 0.950 . S
C1077 C1076 1.334 1_554 S
C1077 C1078 1.287 . S
C1078 C1077 1.287 . S
C1078 C1079 1.524 . S
C1078 H1097 0.913 . S
C1079 H1055 0.950 . S
C1079 C1078 1.524 . S
C1079 C1080 1.415 . S
C1080 H1056 0.950 . S
C1080 C1075 1.363 1_554 S
C1080 C1079 1.415 . S
C1081 H1057 0.951 . S
C1081 C1082 1.379 . S
C1081 C1083 1.376 1_554 S
C1082 C1081 1.379 . S
C1082 C1086 1.385 . S
C1083 H1058 0.951 . S
C1083 C1081 1.376 1_556 S
C1083 C1084 1.366 . S
C1084 C1083 1.366 . S
C1084 C1085 1.403 1_556 S
C1084 C1087 1.499 . S
C1085 H1059 0.950 . S
C1085 C1084 1.403 1_554 S
C1085 C1086 1.384 . S
C1086 H1060 0.917 1_565 S
C1086 C1082 1.385 . S
C1086 C1085 1.384 . S
C1087 C1084 1.499 . S
C1087 C1088 1.373 . S
C1087 C1089 1.389 . S
C1088 H1061 0.950 1_556 S
C1088 C1074 1.377 . S
C1088 C1087 1.373 . S
C1089 C1073 1.377 . S
C1089 C1087 1.389 . S
C1089 C1090 1.524 . S
C1090 C1089 1.524 . S
C1090 C1091 1.397 . S
C1090 C1095 1.363 . S
C1091 H1062 0.950 . S
C1091 C1090 1.397 . S
C1091 C1092 1.334 . S
C1092 H1063 0.950 . S
C1092 C1091 1.334 . S
C1092 C1093 1.287 . S
C1093 C1092 1.287 . S
C1093 C1094 1.524 . S
C1093 H1096 0.999 . S
C1094 H1064 0.950 . S
C1094 C1093 1.524 . S
C1094 C1095 1.415 . S
C1095 H1065 0.950 . S
C1095 C1090 1.363 . S
C1095 C1094 1.415 . S
H1096 C1093 0.999 . S
H1097 C1078 0.913 . S
H1098 C1116 0.951 . S
H1099 C1118 0.951 . S
H1100 C1120 0.950 . S
H1101 C1121 0.950 . S
H1102 C1123 0.950 . S
H1103 C1126 0.950 . S
H1104 C1127 0.950 . S
H1105 C1129 0.950 . S
H1106 C1130 0.950 1_455 S
H1107 C1131 0.951 . S
H1108 C1133 0.951 . S
H1109 C1135 0.950 . S
H1110 C1136 0.950 1_455 S
H1111 C1138 0.950 . S
H1112 C1141 0.950 . S
H1113 C1142 0.950 . S
H1114 C1144 0.950 . S
H1115 C1145 0.950 . S
C1116 H1098 0.951 . S
C1116 C1117 1.366 . S
C1116 C1118 1.388 . S
C1117 C1116 1.366 . S
C1117 C1121 1.385 . S
C1118 H1099 0.951 . S
C1118 C1116 1.388 . S
C1118 C1119 1.366 . S
C1119 C1118 1.366 . S
C1119 C1120 1.414 . S
C1119 C1122 1.499 . S
C1120 H1100 0.950 . S
C1120 C1119 1.414 . S
C1120 C1121 1.374 . S
C1121 H1101 0.950 . S
C1121 C1117 1.385 . S
C1121 C1120 1.374 . S
C1122 C1119 1.499 . S
C1122 C1123 1.373 . S
C1122 C1124 1.389 . S
C1123 H1102 0.950 . S
C1123 C1122 1.373 . S
C1123 C1139 1.377 . S
C1124 C1122 1.389 . S
C1124 C1125 1.524 . S
C1124 C1138 1.377 . S
C1125 C1124 1.524 . S
C1125 C1126 1.397 . S
C1125 C1130 1.363 . S
C1126 H1103 0.950 . S
C1126 C1125 1.397 . S
C1126 C1127 1.334 . S
C1127 H1104 0.950 . S
C1127 C1126 1.334 . S
C1127 C1128 1.287 . S
C1128 C1127 1.287 . S
C1128 C1129 1.524 1_655 S
C1128 H1147 0.913 1_655 S
C1129 H1105 0.950 . S
C1129 C1128 1.524 1_455 S
C1129 C1130 1.415 1_455 S
C1130 H1106 0.950 1_655 S
C1130 C1125 1.363 . S
C1130 C1129 1.415 1_655 S
C1131 H1107 0.951 . S
C1131 C1132 1.366 . S
C1131 C1133 1.388 . S
C1132 C1131 1.366 . S
C1132 C1136 1.385 . S
C1133 H1108 0.951 . S
C1133 C1131 1.388 . S
C1133 C1134 1.366 . S
C1134 C1133 1.366 . S
C1134 C1135 1.414 . S
C1134 C1137 1.499 . S
C1135 H1109 0.950 . S
C1135 C1134 1.414 . S
C1135 C1136 1.374 . S
C1136 H1110 0.950 1_655 S
C1136 C1132 1.385 . S
C1136 C1135 1.374 . S
C1137 C1134 1.499 . S
C1137 C1138 1.373 . S
C1137 C1139 1.389 . S
C1138 H1111 0.950 . S
C1138 C1124 1.377 . S
C1138 C1137 1.373 . S
C1139 C1123 1.377 . S
C1139 C1137 1.389 . S
C1139 C1140 1.524 . S
C1140 C1139 1.524 . S
C1140 C1141 1.397 . S
C1140 C1145 1.363 . S
C1141 H1112 0.950 . S
C1141 C1140 1.397 . S
C1141 C1142 1.334 . S
C1142 H1113 0.950 . S
C1142 C1141 1.334 . S
C1142 C1143 1.287 . S
C1143 C1142 1.287 . S
C1143 C1144 1.524 . S
C1143 H1146 0.999 . S
C1144 H1114 0.950 . S
C1144 C1143 1.524 . S
C1144 C1145 1.415 . S
C1145 H1115 0.950 . S
C1145 C1140 1.363 . S
C1145 C1144 1.415 . S
H1146 C1143 0.999 . S
H1147 C1128 0.913 1_455 S
H1148 C1166 0.951 . S
H1149 C1168 0.951 . S
H1150 C1170 0.950 . S
H1151 C1171 0.950 . S
H1152 C1173 0.950 . S
H1153 C1176 0.950 . S
H1154 C1177 0.950 . S
H1155 C1179 0.950 . S
H1156 C1180 0.950 . S
H1157 C1181 0.951 . S
H1158 C1183 0.951 . S
H1159 C1185 0.950 . S
H1160 C1186 0.950 . S
H1161 C1188 0.950 . S
H1162 C1191 0.950 . S
H1163 C1192 0.950 . S
H1164 C1194 0.950 . S
H1165 C1195 0.950 . S
C1166 H1148 0.951 . S
C1166 C1167 1.366 . S
C1166 C1168 1.388 . S
C1167 C1166 1.366 . S
C1167 C1171 1.385 . S
C1168 H1149 0.951 . S
C1168 C1166 1.388 . S
C1168 C1169 1.366 . S
C1169 C1168 1.366 . S
C1169 C1170 1.414 . S
C1169 C1172 1.499 . S
C1170 H1150 0.950 . S
C1170 C1169 1.414 . S
C1170 C1171 1.374 . S
C1171 H1151 0.950 . S
C1171 C1167 1.385 . S
C1171 C1170 1.374 . S
C1172 C1169 1.499 . S
C1172 C1173 1.373 . S
C1172 C1174 1.389 . S
C1173 H1152 0.950 . S
C1173 C1172 1.373 . S
C1173 C1189 1.377 . S
C1174 C1172 1.389 . S
C1174 C1175 1.524 . S
C1174 C1188 1.377 . S
C1175 C1174 1.524 . S
C1175 C1176 1.397 . S
C1175 C1180 1.363 . S
C1176 H1153 0.950 . S
C1176 C1175 1.397 . S
C1176 C1177 1.334 . S
C1177 H1154 0.950 . S
C1177 C1176 1.334 . S
C1177 C1178 1.287 . S
C1178 C1177 1.287 . S
C1178 C1179 1.524 . S
C1178 H1197 0.913 . S
C1179 H1155 0.950 . S
C1179 C1178 1.524 . S
C1179 C1180 1.415 . S
C1180 H1156 0.950 . S
C1180 C1175 1.363 . S
C1180 C1179 1.415 . S
C1181 H1157 0.951 . S
C1181 C1182 1.366 . S
C1181 C1183 1.388 . S
C1182 C1181 1.366 . S
C1182 C1186 1.385 . S
C1183 H1158 0.951 . S
C1183 C1181 1.388 . S
C1183 C1184 1.366 . S
C1184 C1183 1.366 . S
C1184 C1185 1.414 . S
C1184 C1187 1.499 . S
C1185 H1159 0.950 . S
C1185 C1184 1.414 . S
C1185 C1186 1.374 . S
C1186 H1160 0.950 . S
C1186 C1182 1.385 . S
C1186 C1185 1.374 . S
C1187 C1184 1.499 . S
C1187 C1188 1.373 . S
C1187 C1189 1.389 . S
C1188 H1161 0.950 . S
C1188 C1174 1.377 . S
C1188 C1187 1.373 . S
C1189 C1173 1.377 . S
C1189 C1187 1.389 . S
C1189 C1190 1.524 . S
C1190 C1189 1.524 . S
C1190 C1191 1.397 . S
C1190 C1195 1.363 . S
C1191 H1162 0.950 . S
C1191 C1190 1.397 . S
C1191 C1192 1.334 1_554 S
C1192 H1163 0.950 . S
C1192 C1191 1.334 1_556 S
C1192 C1193 1.287 . S
C1193 C1192 1.287 . S
C1193 C1194 1.524 1_556 S
C1193 H1196 0.999 . S
C1194 H1164 0.950 . S
C1194 C1193 1.524 1_554 S
C1194 C1195 1.415 . S
C1195 H1165 0.950 . S
C1195 C1190 1.363 . S
C1195 C1194 1.415 . S
H1196 C1193 0.999 . S
H1197 C1178 0.913 . S
H1198 C1216 0.951 . S
H1199 C1218 0.951 . S
H1200 C1220 0.950 . S
H1201 C1221 0.950 . S
H1202 C1223 0.950 . S
H1203 C1226 0.950 . S
H1204 C1227 0.950 . S
H1205 C1229 0.950 . S
H1206 C1230 0.950 . S
H1207 C1231 0.951 . S
H1208 C1233 0.951 . S
H1209 C1235 0.950 . S
H1210 C1236 0.950 . S
H1211 C1238 0.950 . S
H1212 C1241 0.950 . S
H1213 C1242 0.950 . S
H1214 C1244 0.950 . S
H1215 C1245 0.950 . S
C1216 H1198 0.951 . S
C1216 C1217 1.366 . S
C1216 C1218 1.388 . S
C1217 C1216 1.366 . S
C1217 C1221 1.385 . S
C1218 H1199 0.951 . S
C1218 C1216 1.388 . S
C1218 C1219 1.366 . S
C1219 C1218 1.366 . S
C1219 C1220 1.414 . S
C1219 C1222 1.499 . S
C1220 H1200 0.950 . S
C1220 C1219 1.414 . S
C1220 C1221 1.374 . S
C1221 H1201 0.950 . S
C1221 C1217 1.385 . S
C1221 C1220 1.374 . S
C1222 C1219 1.499 . S
C1222 C1223 1.373 . S
C1222 C1224 1.389 . S
C1223 H1202 0.950 . S
C1223 C1222 1.373 . S
C1223 C1239 1.377 . S
C1224 C1222 1.389 . S
C1224 C1225 1.524 . S
C1224 C1238 1.377 . S
C1225 C1224 1.524 . S
C1225 C1226 1.397 . S
C1225 C1230 1.363 . S
C1226 H1203 0.950 . S
C1226 C1225 1.397 . S
C1226 C1227 1.334 . S
C1227 H1204 0.950 . S
C1227 C1226 1.334 . S
C1227 C1228 1.287 . S
C1228 C1227 1.287 . S
C1228 C1229 1.524 . S
C1228 H1247 0.913 . S
C1229 H1205 0.950 . S
C1229 C1228 1.524 . S
C1229 C1230 1.415 . S
C1230 H1206 0.950 . S
C1230 C1225 1.363 . S
C1230 C1229 1.415 . S
C1231 H1207 0.951 . S
C1231 C1232 1.366 . S
C1231 C1233 1.388 . S
C1232 C1231 1.366 . S
C1232 C1236 1.385 . S
C1233 H1208 0.951 . S
C1233 C1231 1.388 . S
C1233 C1234 1.366 . S
C1234 C1233 1.366 . S
C1234 C1235 1.414 . S
C1234 C1237 1.499 . S
C1235 H1209 0.950 . S
C1235 C1234 1.414 . S
C1235 C1236 1.374 . S
C1236 H1210 0.950 . S
C1236 C1232 1.385 . S
C1236 C1235 1.374 . S
C1237 C1234 1.499 . S
C1237 C1238 1.373 . S
C1237 C1239 1.389 . S
C1238 H1211 0.950 . S
C1238 C1224 1.377 . S
C1238 C1237 1.373 . S
C1239 C1223 1.377 . S
C1239 C1237 1.389 . S
C1239 C1240 1.524 . S
C1240 C1239 1.524 . S
C1240 C1241 1.397 . S
C1240 C1245 1.363 . S
C1241 H1212 0.950 . S
C1241 C1240 1.397 . S
C1241 C1242 1.334 . S
C1242 H1213 0.950 . S
C1242 C1241 1.334 . S
C1242 C1243 1.287 . S
C1243 C1242 1.287 . S
C1243 C1244 1.524 . S
C1243 H1246 0.999 . S
C1244 H1214 0.950 . S
C1244 C1243 1.524 . S
C1244 C1245 1.415 . S
C1245 H1215 0.950 . S
C1245 C1240 1.363 . S
C1245 C1244 1.415 . S
H1246 C1243 0.999 . S
H1247 C1228 0.913 . S
H1248 C1266 0.951 . S
H1249 C1268 0.951 . S
H1250 C1270 0.950 . S
H1251 C1271 0.950 . S
H1252 C1273 0.950 . S
H1253 C1276 0.950 . S
H1254 C1277 0.950 . S
H1255 C1279 0.950 . S
H1256 C1280 0.950 . S
H1257 C1281 0.951 . S
H1258 C1283 0.951 . S
H1259 C1285 0.950 . S
H1260 C1286 0.950 . S
H1261 C1288 0.950 . S
H1262 C1291 0.950 . S
H1263 C1292 0.950 . S
H1264 C1294 0.950 . S
H1265 C1295 0.950 . S
C1266 H1248 0.951 . S
C1266 C1267 1.366 . S
C1266 C1268 1.388 . S
C1267 C1266 1.366 . S
C1267 C1271 1.385 . S
C1268 H1249 0.951 . S
C1268 C1266 1.388 . S
C1268 C1269 1.366 . S
C1269 C1268 1.366 . S
C1269 C1270 1.414 . S
C1269 C1272 1.499 . S
C1270 H1250 0.950 . S
C1270 C1269 1.414 . S
C1270 C1271 1.374 . S
C1271 H1251 0.950 . S
C1271 C1267 1.385 . S
C1271 C1270 1.374 . S
C1272 C1269 1.499 . S
C1272 C1273 1.373 . S
C1272 C1274 1.389 . S
C1273 H1252 0.950 . S
C1273 C1272 1.373 . S
C1273 C1289 1.377 . S
C1274 C1272 1.389 . S
C1274 C1275 1.524 . S
C1274 C1288 1.377 . S
C1275 C1274 1.524 . S
C1275 C1276 1.397 . S
C1275 C1280 1.363 . S
C1276 H1253 0.950 . S
C1276 C1275 1.397 . S
C1276 C1277 1.334 . S
C1277 H1254 0.950 . S
C1277 C1276 1.334 . S
C1277 C1278 1.287 1_556 S
C1278 C1277 1.287 1_554 S
C1278 C1279 1.524 . S
C1278 H1297 0.913 . S
C1279 H1255 0.950 . S
C1279 C1278 1.524 . S
C1279 C1280 1.415 1_554 S
C1280 H1256 0.950 . S
C1280 C1275 1.363 . S
C1280 C1279 1.415 1_556 S
C1281 H1257 0.951 . S
C1281 C1282 1.366 . S
C1281 C1283 1.388 . S
C1282 C1281 1.366 . S
C1282 C1286 1.385 . S
C1283 H1258 0.951 . S
C1283 C1281 1.388 . S
C1283 C1284 1.366 . S
C1284 C1283 1.366 . S
C1284 C1285 1.414 . S
C1284 C1287 1.499 . S
C1285 H1259 0.950 . S
C1285 C1284 1.414 . S
C1285 C1286 1.374 . S
C1286 H1260 0.950 . S
C1286 C1282 1.385 . S
C1286 C1285 1.374 . S
C1287 C1284 1.499 . S
C1287 C1288 1.373 . S
C1287 C1289 1.389 . S
C1288 H1261 0.950 . S
C1288 C1274 1.377 . S
C1288 C1287 1.373 . S
C1289 C1273 1.377 . S
C1289 C1287 1.389 . S
C1289 C1290 1.524 . S
C1290 C1289 1.524 . S
C1290 C1291 1.397 . S
C1290 C1295 1.363 . S
C1291 H1262 0.950 . S
C1291 C1290 1.397 . S
C1291 C1292 1.334 . S
C1292 H1263 0.950 . S
C1292 C1291 1.334 . S
C1292 C1293 1.287 . S
C1293 C1292 1.287 . S
C1293 C1294 1.524 . S
C1293 H1296 0.999 . S
C1294 H1264 0.950 . S
C1294 C1293 1.524 . S
C1294 C1295 1.415 . S
C1295 H1265 0.950 . S
C1295 C1290 1.363 . S
C1295 C1294 1.415 . S
H1296 C1293 0.999 . S
H1297 C1278 0.913 . S
H1298 C1316 0.951 . S
H1299 C1318 0.951 . S
H1300 C1320 0.950 . S
H1301 C1321 0.950 . S
H1302 C1323 0.950 . S
H1303 C1326 0.950 . S
H1304 C1327 0.950 . S
H1305 C1329 0.950 . S
H1306 C1330 0.950 . S
H1307 C1331 0.951 . S
H1308 C1333 0.951 . S
H1309 C1335 0.950 . S
H1310 C1336 0.950 . S
H1311 C1338 0.950 . S
H1312 C1341 0.950 . S
H1313 C1342 0.950 . S
H1314 C1344 0.950 . S
H1315 C1345 0.950 . S
C1316 H1298 0.951 . S
C1316 C1317 1.366 . S
C1316 C1318 1.388 . S
C1317 C1316 1.366 . S
C1317 C1321 1.385 . S
C1318 H1299 0.951 . S
C1318 C1316 1.388 . S
C1318 C1319 1.366 . S
C1319 C1318 1.366 . S
C1319 C1320 1.414 . S
C1319 C1322 1.499 . S
C1320 H1300 0.950 . S
C1320 C1319 1.414 . S
C1320 C1321 1.374 . S
C1321 H1301 0.950 . S
C1321 C1317 1.385 . S
C1321 C1320 1.374 . S
C1322 C1319 1.499 . S
C1322 C1323 1.373 . S
C1322 C1324 1.389 . S
C1323 H1302 0.950 . S
C1323 C1322 1.373 . S
C1323 C1339 1.377 . S
C1324 C1322 1.389 . S
C1324 C1325 1.524 . S
C1324 C1338 1.377 . S
C1325 C1324 1.524 . S
C1325 C1326 1.397 . S
C1325 C1330 1.363 . S
C1326 H1303 0.950 . S
C1326 C1325 1.397 . S
C1326 C1327 1.334 . S
C1327 H1304 0.950 . S
C1327 C1326 1.334 . S
C1327 C1328 1.287 . S
C1328 C1327 1.287 . S
C1328 C1329 1.524 . S
C1328 H1347 0.913 . S
C1329 H1305 0.950 . S
C1329 C1328 1.524 . S
C1329 C1330 1.415 . S
C1330 H1306 0.950 . S
C1330 C1325 1.363 . S
C1330 C1329 1.415 . S
C1331 H1307 0.951 . S
C1331 C1332 1.366 . S
C1331 C1333 1.388 . S
C1332 C1331 1.366 . S
C1332 C1336 1.385 . S
C1333 H1308 0.951 . S
C1333 C1331 1.388 . S
C1333 C1334 1.366 . S
C1334 C1333 1.366 . S
C1334 C1335 1.414 . S
C1334 C1337 1.499 . S
C1335 H1309 0.950 . S
C1335 C1334 1.414 . S
C1335 C1336 1.374 . S
C1336 H1310 0.950 . S
C1336 C1332 1.385 . S
C1336 C1335 1.374 . S
C1337 C1334 1.499 . S
C1337 C1338 1.373 . S
C1337 C1339 1.389 . S
C1338 H1311 0.950 . S
C1338 C1324 1.377 . S
C1338 C1337 1.373 . S
C1339 C1323 1.377 . S
C1339 C1337 1.389 . S
C1339 C1340 1.524 . S
C1340 C1339 1.524 . S
C1340 C1341 1.397 . S
C1340 C1345 1.363 . S
C1341 H1312 0.950 . S
C1341 C1340 1.397 . S
C1341 C1342 1.334 . S
C1342 H1313 0.950 . S
C1342 C1341 1.334 . S
C1342 C1343 1.287 . S
C1343 C1342 1.287 . S
C1343 C1344 1.524 . S
C1343 H1346 0.999 . S
C1344 H1314 0.950 . S
C1344 C1343 1.524 . S
C1344 C1345 1.415 . S
C1345 H1315 0.950 . S
C1345 C1340 1.363 . S
C1345 C1344 1.415 . S
H1346 C1343 0.999 . S
H1347 C1328 0.913 . S
H1348 C1366 0.951 . S
H1349 C1368 0.951 . S
H1350 C1370 0.950 . S
H1351 C1371 0.950 . S
H1352 C1373 0.950 . S
H1353 C1376 0.950 . S
H1354 C1377 0.950 . S
H1355 C1379 0.922 1_655 S
H1356 C1380 0.950 . S
H1357 C1381 0.951 . S
H1358 C1383 0.951 . S
H1359 C1385 0.950 . S
H1360 C1386 0.950 . S
H1361 C1388 0.950 . S
H1362 C1391 0.950 . S
H1363 C1392 0.950 . S
H1364 C1394 0.950 . S
H1365 C1395 0.950 . S
C1366 H1348 0.951 . S
C1366 C1367 1.366 . S
C1366 C1368 1.388 . S
C1367 C1366 1.366 . S
C1367 C1371 1.385 . S
C1368 H1349 0.951 . S
C1368 C1366 1.388 . S
C1368 C1369 1.366 . S
C1369 C1368 1.366 . S
C1369 C1370 1.414 . S
C1369 C1372 1.499 . S
C1370 H1350 0.950 . S
C1370 C1369 1.414 . S
C1370 C1371 1.374 . S
C1371 H1351 0.950 . S
C1371 C1367 1.385 . S
C1371 C1370 1.374 . S
C1372 C1369 1.499 . S
C1372 C1373 1.373 . S
C1372 C1374 1.389 . S
C1373 H1352 0.950 . S
C1373 C1372 1.373 . S
C1373 C1389 1.377 . S
C1374 C1372 1.389 . S
C1374 C1375 1.524 . S
C1374 C1388 1.377 . S
C1375 C1374 1.524 . S
C1375 C1376 1.397 . S
C1375 C1380 1.363 . S
C1376 H1353 0.950 . S
C1376 C1375 1.397 . S
C1376 C1377 1.334 . S
C1377 H1354 0.950 . S
C1377 C1376 1.334 . S
C1377 C1378 1.287 1_455 S
C1378 C1377 1.287 1_655 S
C1378 C1379 1.519 1_655 S
C1378 H1397 0.913 . S
C1379 H1355 0.922 1_455 S
C1379 C1378 1.519 1_455 S
C1379 C1380 1.453 . S
C1380 H1356 0.950 . S
C1380 C1375 1.363 . S
C1380 C1379 1.453 . S
C1381 H1357 0.951 . S
C1381 C1382 1.366 . S
C1381 C1383 1.388 . S
C1382 C1381 1.366 . S
C1382 C1386 1.385 . S
C1383 H1358 0.951 . S
C1383 C1381 1.388 . S
C1383 C1384 1.366 . S
C1384 C1383 1.366 . S
C1384 C1385 1.414 . S
C1384 C1387 1.499 . S
C1385 H1359 0.950 . S
C1385 C1384 1.414 . S
C1385 C1386 1.374 . S
C1386 H1360 0.950 . S
C1386 C1382 1.385 . S
C1386 C1385 1.374 . S
C1387 C1384 1.499 . S
C1387 C1388 1.373 . S
C1387 C1389 1.389 . S
C1388 H1361 0.950 . S
C1388 C1374 1.377 . S
C1388 C1387 1.373 . S
C1389 C1373 1.377 . S
C1389 C1387 1.389 . S
C1389 C1390 1.524 . S
C1390 C1389 1.524 . S
C1390 C1391 1.397 . S
C1390 C1395 1.363 . S
C1391 H1362 0.950 . S
C1391 C1390 1.397 . S
C1391 C1392 1.334 . S
C1392 H1363 0.950 . S
C1392 C1391 1.334 . S
C1392 C1393 1.287 . S
C1393 C1392 1.287 . S
C1393 C1394 1.524 . S
C1393 H1396 0.999 . S
C1394 H1364 0.950 . S
C1394 C1393 1.524 . S
C1394 C1395 1.415 . S
C1395 H1365 0.950 . S
C1395 C1390 1.363 . S
C1395 C1394 1.415 . S
H1396 C1393 0.999 . S
H1397 C1378 0.913 . S
H1398 C1416 0.951 . S
H1399 C1418 0.951 . S
H1400 C1420 0.950 . S
H1401 C1421 0.950 . S
H1402 C1423 0.950 . S
H1403 C1426 0.950 . S
H1404 C1427 0.950 . S
H1405 C1429 0.950 . S
H1406 C1430 0.950 . S
H1407 C1431 0.951 . S
H1408 C1433 0.951 . S
H1409 C1435 0.950 . S
H1410 C1436 0.950 . S
H1411 C1438 0.950 . S
H1412 C1441 0.950 . S
H1413 C1442 0.950 . S
H1414 C1444 0.950 . S
H1415 C1445 0.950 . S
C1416 H1398 0.951 . S
C1416 C1417 1.366 . S
C1416 C1418 1.388 . S
C1417 C1416 1.366 . S
C1417 C1421 1.385 . S
C1418 H1399 0.951 . S
C1418 C1416 1.388 . S
C1418 C1419 1.366 . S
C1419 C1418 1.366 . S
C1419 C1420 1.414 . S
C1419 C1422 1.499 . S
C1420 H1400 0.950 . S
C1420 C1419 1.414 . S
C1420 C1421 1.374 . S
C1421 H1401 0.950 . S
C1421 C1417 1.385 . S
C1421 C1420 1.374 . S
C1422 C1419 1.499 . S
C1422 C1423 1.373 . S
C1422 C1424 1.389 . S
C1423 H1402 0.950 . S
C1423 C1422 1.373 . S
C1423 C1439 1.377 . S
C1424 C1422 1.389 . S
C1424 C1425 1.524 . S
C1424 C1438 1.377 . S
C1425 C1424 1.524 . S
C1425 C1426 1.397 . S
C1425 C1430 1.363 . S
C1426 H1403 0.950 . S
C1426 C1425 1.397 . S
C1426 C1427 1.334 . S
C1427 H1404 0.950 . S
C1427 C1426 1.334 . S
C1427 C1428 1.287 . S
C1428 C1427 1.287 . S
C1428 C1429 1.524 . S
C1428 H1447 0.913 . S
C1429 H1405 0.950 . S
C1429 C1428 1.524 . S
C1429 C1430 1.415 . S
C1430 H1406 0.950 . S
C1430 C1425 1.363 . S
C1430 C1429 1.415 . S
C1431 H1407 0.951 . S
C1431 C1432 1.366 . S
C1431 C1433 1.388 . S
C1432 C1431 1.366 . S
C1432 C1436 1.385 . S
C1433 H1408 0.951 . S
C1433 C1431 1.388 . S
C1433 C1434 1.366 . S
C1434 C1433 1.366 . S
C1434 C1435 1.414 . S
C1434 C1437 1.499 . S
C1435 H1409 0.950 . S
C1435 C1434 1.414 . S
C1435 C1436 1.374 . S
C1436 H1410 0.950 . S
C1436 C1432 1.385 . S
C1436 C1435 1.374 . S
C1437 C1434 1.499 . S
C1437 C1438 1.373 . S
C1437 C1439 1.389 . S
C1438 H1411 0.950 . S
C1438 C1424 1.377 . S
C1438 C1437 1.373 . S
C1439 C1423 1.377 . S
C1439 C1437 1.389 . S
C1439 C1440 1.524 . S
C1440 C1439 1.524 . S
C1440 C1441 1.397 . S
C1440 C1445 1.363 . S
C1441 H1412 0.950 . S
C1441 C1440 1.397 . S
C1441 C1442 1.334 . S
C1442 H1413 0.950 . S
C1442 C1441 1.334 . S
C1442 C1443 1.287 . S
C1443 C1442 1.287 . S
C1443 C1444 1.524 . S
C1443 H1446 0.999 . S
C1444 H1414 0.950 . S
C1444 C1443 1.524 . S
C1444 C1445 1.415 . S
C1445 H1415 0.950 . S
C1445 C1440 1.363 . S
C1445 C1444 1.415 . S
H1446 C1443 0.999 . S
H1447 C1428 0.913 . S
C267 C5 0.857 . S
C282 C92 0.966 . S
C317 C18 1.151 . S
C332 C153 1.203 . S
C382 C191 2.312 . S
C367 C30 2.338 . S
C417 C41 1.964 . S
C432 C231 1.921 . S
C482 C151 1.433 . S
C467 C7 1.387 . S
C532 C119 2.186 . S
C517 C16 2.105 . S
C582 C228 1.734 . S
C567 C29 1.671 . S
C632 C188 1.349 . S
C617 C38 1.213 . S
C667 C8 0.987 . S
C682 C233 1.007 . S
C732 C148 2.614 . S
C717 C27 2.317 . S
C767 C40 2.198 . S
C782 C90 2.180 . S
C817 C19 1.201 . S
C832 C193 1.203 . S
C882 C113 0.921 . S
C867 C51 0.870 . S
C917 C62 1.455 . S
C932 C132 1.451 . S
C967 C74 2.431 . S
C982 C170 2.410 . S
C1017 C84 1.933 . S
C1032 C210 1.997 . S
C1067 C49 1.403 . S
C1082 C130 1.728 . S
C1132 C108 2.096 . S
C1117 C63 2.078 . S
C1182 C239 1.557 . S
C1167 C71 1.345 . S
C1232 C199 1.473 . S
C1217 C85 1.473 . S
C1267 C52 1.020 . S
C1282 C212 1.040 . S
C1332 C159 2.730 . S
C1317 C73 2.648 . S
C1382 C111 1.708 . S
C1367 C82 1.495 . S
C1417 C60 1.305 . S
C1432 C172 1.388 . S
