# Generated by pormake.
# Topology rtl, (3,6)-cn, num edge types: 1
# Building blocks:
#     Node 0, Type 0, BuildingBlock: OLANEW_clean_sbu_2, # of connection points: 3
#     Node 1, Type 0, BuildingBlock: OLANEW_clean_sbu_2, # of connection points: 3
#     Node 2, Type 0, BuildingBlock: OLANEW_clean_sbu_2, # of connection points: 3
#     Node 3, Type 0, BuildingBlock: OLANEW_clean_sbu_2, # of connection points: 3
#     Node 4, Type 1, BuildingBlock: KUMBOL_clean_sbu_1, # of connection points: 6
#     Node 5, Type 1, BuildingBlock: KUMBOL_clean_sbu_1, # of connection points: 6
#     Edge 6, Type (0, 1), BuildingBlock: CIFDUS_clean_linker_0, # of connection points: 2
#     Edge 7, Type (0, 1), BuildingBlock: CIFDUS_clean_linker_0, # of connection points: 2
#     Edge 8, Type (0, 1), BuildingBlock: CIFDUS_clean_linker_0, # of connection points: 2
#     Edge 9, Type (0, 1), BuildingBlock: CIFDUS_clean_linker_0, # of connection points: 2
#     Edge 10, Type (0, 1), BuildingBlock: CIFDUS_clean_linker_0, # of connection points: 2
#     Edge 11, Type (0, 1), BuildingBlock: CIFDUS_clean_linker_0, # of connection points: 2
#     Edge 12, Type (0, 1), BuildingBlock: CIFDUS_clean_linker_0, # of connection points: 2
#     Edge 13, Type (0, 1), BuildingBlock: CIFDUS_clean_linker_0, # of connection points: 2
#     Edge 14, Type (0, 1), BuildingBlock: CIFDUS_clean_linker_0, # of connection points: 2
#     Edge 15, Type (0, 1), BuildingBlock: CIFDUS_clean_linker_0, # of connection points: 2
#     Edge 16, Type (0, 1), BuildingBlock: CIFDUS_clean_linker_0, # of connection points: 2
#     Edge 17, Type (0, 1), BuildingBlock: CIFDUS_clean_linker_0, # of connection points: 2
# Relax obj value: 0.044
# Max RMSD: 0.172
# Mean RMSD: 0.135
data_MOF--net-rtl--node1-OLANEW_clean_sbu_2--node2-KUMBOL_clean_sbu_1--edge1-CIFDUS_clean_linker_0
_symmetry_space_group_name_H-M    P1
_symmetry_Int_Tables_number       1
_symmetry_cell_setting            triclinic
loop_
_symmetry_equiv_pos_as_xyz
'x, y, z'
_cell_length_a     33.373047
_cell_length_b     33.372162
_cell_length_c     26.166016
_cell_angle_alpha  74.330493
_cell_angle_beta   102.93553
_cell_angle_gamma 91.480051
loop_
_atom_site_label
_atom_site_type_symbol
_atom_site_fract_x
_atom_site_fract_y
_atom_site_fract_z
_atom_type_partial_charge
O0 O 0.23161 0.86473 0.96572 0.0
Cd1 Cd 0.28557 0.83114 0.04509 0.0
O2 O 0.23415 0.92652 0.98172 0.0
Cd3 Cd 0.2608 0.90561 0.06935 0.0
O4 O 0.23541 0.91002 0.13828 0.0
C5 C 0.2054 0.93644 0.12372 0.0
O6 O 0.19532 0.95826 0.07241 0.0
C7 C 0.22145 0.90336 0.95039 0.0
C8 C 0.3273 0.76665 0.0257 0.0
O9 O 0.30038 0.75856 0.05481 0.0
O10 O 0.3345 0.80491 0.00581 0.0
O11 O 0.64991 0.74958 0.72363 0.0
Cd12 Cd 0.67095 0.79144 0.63999 0.0
O13 O 0.65141 0.68958 0.70399 0.0
Cd14 Cd 0.66332 0.71553 0.62314 0.0
O15 O 0.64193 0.70138 0.545 0.0
C16 C 0.60979 0.68 0.54276 0.0
O17 O 0.59233 0.67131 0.5846 0.0
C18 C 0.64516 0.71039 0.73573 0.0
C19 C 0.75123 0.81865 0.63495 0.0
O20 O 0.72798 0.8364 0.65594 0.0
O21 O 0.7377 0.78658 0.61932 0.0
O22 O 0.77155 0.1389 0.19877 0.0
Cd23 Cd 0.73415 0.16971 0.10456 0.0
O24 O 0.82834 0.13942 0.1694 0.0
Cd25 Cd 0.79787 0.15153 0.08454 0.0
O26 O 0.79778 0.13223 0.01222 0.0
C27 C 0.8256 0.10499 0.01826 0.0
O28 O 0.85023 0.09057 0.06648 0.0
C29 C 0.81037 0.13304 0.20863 0.0
C30 C 0.69371 0.24452 0.09269 0.0
O31 O 0.67363 0.21127 0.09286 0.0
O32 O 0.73274 0.2426 0.0979 0.0
O33 O 0.35966 0.25362 0.60368 0.0
Cd34 Cd 0.34532 0.21947 0.53007 0.0
O35 O 0.37018 0.30485 0.5368 0.0
Cd36 Cd 0.37781 0.36681 0.48554 0.0
O37 O 0.38274 0.40098 0.40303 0.0
C38 C 0.39989 0.38041 0.37882 0.0
O39 O 0.41333 0.34202 0.4048 0.0
C40 C 0.36827 0.29143 0.58648 0.0
C41 C 0.26822 0.18515 0.52285 0.0
O42 O 0.30097 0.16192 0.54351 0.0
O43 O 0.27177 0.22446 0.50495 0.0
C44 C 0.95523 0.12876 0.52989 0.0
C45 C 0.8815 0.12299 0.50295 0.0
C46 C 0.92078 0.10521 0.53133 0.0
C47 C 0.87787 0.16434 0.47039 0.0
C48 C 0.95141 0.17127 0.50073 0.0
C49 C 0.91282 0.1885 0.46931 0.0
N50 N 0.99157 0.11145 0.56253 0.0
C51 C 0.02364 0.1363 0.57343 0.0
C52 C 0.98589 0.19575 0.50699 0.0
C53 C 0.0219 0.17839 0.54468 0.0
Gd54 Gd 0.03327 0.95081 0.54684 0.0
Gd55 Gd 0.99312 0.03969 0.60766 0.0
N56 N 0.92547 0.06561 0.5639 0.0
C57 C 0.847 0.09915 0.5099 0.0
C58 C 0.89182 0.04318 0.57342 0.0
C59 C 0.85217 0.05927 0.54597 0.0
H60 H 0.89569 0.01268 0.6017 0.0
H61 H 0.82566 0.04097 0.55277 0.0
H62 H 0.13091 0.98542 0.58265 0.0
H63 H 0.05011 0.1238 0.6057 0.0
H64 H 0.19714 0.95738 0.64107 0.0
H65 H 0.81627 0.11166 0.48887 0.0
H66 H 0.84802 0.17841 0.44766 0.0
H67 H 0.97108 0.87093 0.55852 0.0
H68 H 0.98425 0.22856 0.48556 0.0
H69 H 0.04793 0.19761 0.55263 0.0
H70 H 0.17423 0.81377 0.71804 0.0
H71 H 0.90937 0.22093 0.44608 0.0
H72 H 0.03919 0.7636 0.66968 0.0
H73 H 0.97389 0.79656 0.60874 0.0
N74 N 0.0332 0.88042 0.59299 0.0
C75 C 0.06987 0.86265 0.62429 0.0
C76 C 0.99928 0.85714 0.58619 0.0
C77 C 0.03796 0.79635 0.64808 0.0
C78 C 1.00099 0.81488 0.61396 0.0
C79 C 0.07304 0.82016 0.65343 0.0
H80 H 0.11385 0.77027 0.7098 0.0
N81 N 0.10008 0.92832 0.60009 0.0
C82 C 0.1042 0.88721 0.6281 0.0
C83 C 0.17583 0.89541 0.66693 0.0
C84 C 0.14218 0.86978 0.66233 0.0
C85 C 0.13317 0.9532 0.60428 0.0
C86 C 0.17127 0.93726 0.63775 0.0
O87 O 0.95649 0.03014 0.52867 0.0
O88 O 0.00758 0.01335 0.49211 0.0
O89 O 0.06874 0.93429 0.49456 0.0
O90 O 1.00212 0.92517 0.4808 0.0
O91 O 0.97088 0.97371 0.63053 0.0
O92 O 0.96701 0.94651 0.557 0.0
O93 O 0.04072 0.93889 0.63744 0.0
O94 O 0.05417 0.0047 0.6432 0.0
O95 O 0.96784 0.02455 0.68036 0.0
O96 O 0.01155 0.07283 0.66924 0.0
O97 O 0.06573 0.01158 0.52787 0.0
O98 O 0.05244 0.05638 0.57803 0.0
C99 C 0.97098 0.02937 0.48646 0.0
C100 C 0.95298 0.95037 0.59901 0.0
C101 C 0.0381 0.9057 0.4189 0.0
C102 C 0.07094 0.90111 0.34592 0.0
C103 C 0.00569 0.86867 0.35322 0.0
C104 C 0.00557 0.88253 0.39891 0.0
C105 C 0.03795 0.87814 0.3266 0.0
C106 C 0.07124 0.91442 0.39268 0.0
C107 C 0.03627 0.92207 0.46544 0.0
C108 C 0.14531 0.82756 0.69157 0.0
C109 C 0.1109 0.8028 0.68698 0.0
H110 H 0.2054 0.88325 0.69303 0.0
C111 C 0.05724 0.9645 0.66566 0.0
C112 C 0.07273 0.04534 0.54544 0.0
C113 C 0.95855 0.08369 0.70987 0.0
C114 C 0.92058 0.09932 0.77171 0.0
C115 C 0.91977 0.14938 0.68466 0.0
C116 C 0.94513 0.12243 0.67258 0.0
C117 C 0.90747 0.13796 0.73392 0.0
C118 C 0.94637 0.07231 0.75957 0.0
C119 C 0.98537 0.05525 0.69735 0.0
H120 H 0.98047 0.85084 0.33806 0.0
H121 H 0.97989 0.87527 0.41847 0.0
H122 H 0.03724 0.86742 0.29084 0.0
H123 H 0.09639 0.93262 0.40731 0.0
H124 H 0.90979 0.17927 0.65589 0.0
H125 H 0.95448 0.13212 0.63433 0.0
H126 H 0.88817 0.15959 0.74286 0.0
H127 H 0.95663 0.04245 0.78844 0.0
C128 C 0.6397 0.56755 0.05539 0.0
C129 C 0.62446 0.64115 0.01221 0.0
C130 C 0.61243 0.60172 0.0393 0.0
C131 C 0.66368 0.64541 1.00049 0.0
C132 C 0.67936 0.57182 0.04457 0.0
C133 C 0.69109 0.61087 0.01677 0.0
N134 N 0.62709 0.52988 0.08067 0.0
C135 C 0.6529 0.49554 0.09784 0.0
C136 C 0.70596 0.53661 0.06174 0.0
C137 C 0.69273 0.49834 0.08881 0.0
Gd138 Gd 0.46563 0.50328 0.97689 0.0
Gd139 Gd 0.55932 0.52715 0.09184 0.0
N140 N 0.57427 0.59641 0.05023 0.0
C141 C 0.5969 0.67525 0.99822 0.0
C142 C 0.54887 0.6303 0.04083 0.0
C143 C 0.55926 0.66991 0.01353 0.0
H144 H 0.5212 0.62764 0.05566 0.0
H145 H 0.53849 0.69645 0.00513 0.0
H146 H 0.49142 0.40011 0.02444 0.0
H147 H 0.64292 0.46615 0.11927 0.0
H148 H 0.46073 0.33523 0.06528 0.0
H149 H 0.6049 0.70601 0.97719 0.0
H150 H 0.67326 0.6754 0.97933 0.0
H151 H 0.39196 0.578 0.94454 0.0
H152 H 0.73675 0.53865 0.05446 0.0
H153 H 0.71314 0.47098 0.10267 0.0
H154 H 0.32423 0.37736 0.06427 0.0
H155 H 0.72134 0.61472 0.0078 0.0
H156 H 0.28446 0.52215 0.99244 0.0
H157 H 0.32033 0.58471 0.95283 0.0
N158 N 0.39723 0.51279 0.98157 0.0
C159 C 0.37778 0.47784 0.00221 0.0
C160 C 0.37695 0.55072 0.96326 0.0
C161 C 0.31604 0.51911 0.98943 0.0
C162 C 0.33621 0.55452 0.96722 0.0
C163 C 0.33671 0.48014 0.00708 0.0
H164 H 0.28613 0.44484 0.03358 0.0
N165 N 0.43929 0.43865 0.01553 0.0
C166 C 0.3993 0.43967 0.01941 0.0
C167 C 0.40284 0.36516 0.05926 0.0
C168 C 0.38022 0.403 0.04204 0.0
C169 C 0.46085 0.40157 0.03038 0.0
C170 C 0.44322 0.36444 0.05301 0.0
O171 O 0.5693 0.5331 0.00774 0.0
O172 O 0.50648 0.55756 0.95245 0.0
O173 O 0.46732 0.47373 0.91151 0.0
O174 O 0.42433 0.52595 0.89809 0.0
O175 O 0.4959 0.55599 0.07939 0.0
O176 O 0.46883 0.56803 0.98759 0.0
O177 O 0.45745 0.48705 0.06435 0.0
O178 O 0.52334 0.46987 0.11484 0.0
O179 O 0.5577 0.55377 0.15942 0.0
O180 O 0.60169 0.50307 0.16976 0.0
O181 O 0.52578 0.46618 0.99401 0.0
O182 O 0.5615 0.4617 0.08302 0.0
C183 C 0.54684 0.5551 0.96142 0.0
C184 C 0.46874 0.57459 0.03481 0.0
C185 C 0.42104 0.49846 0.82067 0.0
C186 C 0.40884 0.46405 0.74744 0.0
C187 C 0.38123 0.53414 0.73041 0.0
C188 C 0.39833 0.53364 0.7843 0.0
C189 C 0.38632 0.49954 0.71207 0.0
C190 C 0.42649 0.46352 0.80188 0.0
C191 C 0.43781 0.49882 0.8779 0.0
C192 C 0.33934 0.40521 0.04695 0.0
C193 C 0.31765 0.44365 0.02949 0.0
H194 H 0.3893 0.33632 0.07689 0.0
C195 C 0.4835 0.46863 0.10998 0.0
C196 C 0.55389 0.44851 0.03851 0.0
C197 C 0.60378 0.5275 0.24941 0.0
C198 C 0.60846 0.55724 0.32598 0.0
C199 C 0.64095 0.48967 0.34005 0.0
C200 C 0.62724 0.49247 0.2848 0.0
C201 C 0.63144 0.52171 0.36065 0.0
C202 C 0.59474 0.56022 0.27014 0.0
C203 C 0.58724 0.52826 0.19195 0.0
H204 H 0.36379 0.56138 0.70282 0.0
H205 H 0.39372 0.56095 0.79748 0.0
H206 H 0.37253 0.50035 0.67014 0.0
H207 H 0.44364 0.436 0.8294 0.0
H208 H 0.65885 0.4625 0.36705 0.0
H209 H 0.63449 0.46682 0.26997 0.0
H210 H 0.64255 0.51903 0.4037 0.0
H211 H 0.57674 0.58748 0.24335 0.0
H212 H 0.23887 0.1185 0.48791 0.0
H213 H 0.20704 0.21236 0.55877 0.0
H214 H 0.14262 0.17821 0.57055 0.0
H215 H 0.09967 0.11838 0.56814 0.0
H216 H 0.12618 0.02919 0.48679 0.0
H217 H 0.18886 0.06469 0.47181 0.0
C218 C 0.21748 0.13157 0.50534 0.0
C219 C 0.22758 0.16734 0.52326 0.0
C220 C 0.18005 0.11247 0.51053 0.0
C221 C 0.19966 0.18469 0.54491 0.0
C222 C 0.16303 0.16512 0.55182 0.0
C223 C 0.1181 0.10706 0.54602 0.0
C224 C 0.10788 0.07055 0.52982 0.0
C225 C 0.15337 0.1285 0.53577 0.0
C226 C 0.1332 0.05677 0.50092 0.0
C227 C 0.16921 0.07708 0.49219 0.0
H228 H 0.35157 0.69094 0.09583 0.0
H229 H 0.35513 0.76723 0.93529 0.0
H230 H 0.39655 0.71303 0.92177 0.0
H231 H 0.43543 0.64553 0.95803 0.0
H232 H 0.43598 0.57204 0.1214 0.0
H233 H 0.38975 0.62343 0.13166 0.0
C234 C 0.36115 0.69545 0.05774 0.0
C235 C 0.35038 0.73292 0.01661 0.0
C236 C 0.38609 0.66478 0.05103 0.0
C237 C 0.36334 0.7387 0.96768 0.0
C238 C 0.38699 0.70773 0.95993 0.0
C239 C 0.42502 0.64069 0.99557 0.0
C240 C 0.43899 0.60508 0.03884 0.0
C241 C 0.39912 0.6709 0.00166 0.0
C242 C 0.42576 0.59934 0.08759 0.0
C243 C 0.39925 0.62865 0.09346 0.0
H244 H 0.79996 0.86817 0.68855 0.0
H245 H 0.79132 0.81033 0.55793 0.0
H246 H 0.85224 0.8462 0.53421 0.0
H247 H 0.90572 0.89739 0.54735 0.0
H248 H 0.91817 0.94907 0.68449 0.0
H249 H 0.85779 0.91316 0.70776 0.0
C250 C 0.81164 0.86312 0.65521 0.0
C251 C 0.79089 0.83679 0.6249 0.0
C252 C 0.84718 0.88326 0.64237 0.0
C253 C 0.80671 0.83031 0.58211 0.0
C254 C 0.84145 0.85104 0.56828 0.0
C255 C 0.89592 0.90016 0.58303 0.0
C256 C 0.91694 0.92619 0.61385 0.0
C257 C 0.86171 0.87804 0.59771 0.0
C258 C 0.90285 0.92963 0.65949 0.0
C259 C 0.86817 0.90896 0.67309 0.0
H260 H 0.63065 0.28541 0.01256 0.0
H261 H 0.71041 0.2907 0.1646 0.0
H262 H 0.67301 0.35355 0.16251 0.0
H263 H 0.61586 0.40446 0.11945 0.0
H264 H 0.54264 0.40602 0.96031 0.0
H265 H 0.57842 0.34218 0.96375 0.0
C266 C 0.63976 0.3006 0.04495 0.0
C267 C 0.67266 0.28358 0.08901 0.0
C268 C 0.61911 0.3375 0.0424 0.0
C269 C 0.68496 0.3035 0.13048 0.0
C270 C 0.66356 0.33923 0.12933 0.0
C271 C 0.60841 0.39183 0.08466 0.0
C272 C 0.57679 0.41061 0.03948 0.0
C273 C 0.63041 0.35631 0.08567 0.0
C274 C 0.56686 0.39247 0.9957 0.0
C275 C 0.58733 0.3559 0.99755 0.0
H276 H 0.22088 0.90519 0.23503 0.0
H277 H 0.12978 0.97447 0.09628 0.0
H278 H 0.08168 0.97304 0.15403 0.0
H279 H 0.06264 0.94624 0.24183 0.0
H280 H 0.15282 0.87877 0.38202 0.0
H281 H 0.2043 0.88593 0.32635 0.0
C282 C 0.19065 0.92029 0.21764 0.0
C283 C 0.1788 0.93926 0.16117 0.0
C284 C 0.16289 0.91961 0.25133 0.0
C285 C 0.13973 0.95933 0.13943 0.0
C286 C 0.11204 0.95849 0.17242 0.0
C287 C 0.0938 0.93371 0.26023 0.0
C288 C 0.10399 0.91163 0.31553 0.0
C289 C 0.1229 0.93786 0.22805 0.0
C290 C 0.14444 0.89585 0.33937 0.0
C291 C 0.1737 0.89971 0.30747 0.0
H292 H 0.66377 0.63279 0.80388 0.0
H293 H 0.58331 0.74032 0.76924 0.0
H294 H 0.54378 0.70129 0.83374 0.0
H295 H 0.53018 0.63501 0.89733 0.0
H296 H 0.61477 0.5299 0.9373 0.0
H297 H 0.65453 0.56928 0.87382 0.0
C298 C 0.63801 0.64784 0.81123 0.0
C299 C 0.62654 0.68937 0.78198 0.0
C300 C 0.61574 0.62535 0.84878 0.0
C301 C 0.59312 0.70855 0.79187 0.0
C302 C 0.57021 0.68609 0.82829 0.0
C303 C 0.55702 0.62074 0.89143 0.0
C304 C 0.56889 0.57926 0.92062 0.0
C305 C 0.58075 0.64418 0.85626 0.0
C306 C 0.60461 0.56153 0.91437 0.0
C307 C 0.6275 0.5841 0.87834 0.0
H308 H 0.89195 0.11343 0.23952 0.0
H309 H 0.78387 0.11498 0.30412 0.0
H310 H 0.82435 0.08297 0.39609 0.0
H311 H 0.88959 0.05147 0.45686 0.0
H312 H 0.99742 0.05128 0.39166 0.0
H313 H 0.9573 0.08479 0.30042 0.0
C314 C 0.87714 0.10707 0.27364 0.0
C315 C 0.83485 0.11646 0.26489 0.0
C316 C 0.9004 0.08843 0.32605 0.0
C317 C 0.81633 0.10798 0.30971 0.0
C318 C 0.83942 0.08959 0.36225 0.0
C319 C 0.90451 0.05958 0.42296 0.0
C320 C 0.94654 0.04947 0.43127 0.0
C321 C 0.88136 0.07929 0.37073 0.0
C322 C 0.96511 0.05876 0.38647 0.0
C323 C 0.94224 0.07807 0.3343 0.0
H324 H 0.43004 0.34379 0.60653 0.0
H325 H 0.31552 0.30032 0.64743 0.0
H326 H 0.31972 0.34738 0.7056 0.0
H327 H 0.35404 0.40405 0.74045 0.0
H328 H 0.47007 0.44557 0.70358 0.0
H329 H 0.46823 0.39535 0.64974 0.0
C330 C 0.4062 0.34471 0.62841 0.0
C331 C 0.37223 0.31928 0.62233 0.0
C332 C 0.40948 0.371 0.66307 0.0
C333 C 0.3418 0.31991 0.65148 0.0
C334 C 0.34424 0.34671 0.68476 0.0
C335 C 0.37934 0.40118 0.72171 0.0
C336 C 0.41232 0.42792 0.72612 0.0
C337 C 0.37774 0.37264 0.69051 0.0
C338 C 0.4447 0.42474 0.7011 0.0
C339 C 0.44338 0.39641 0.6699 0.0
H340 H 0.62939 0.69886 0.44321 0.0
H341 H 0.55985 0.6143 0.54367 0.0
H342 H 0.54761 0.57175 0.47979 0.0
H343 H 0.56587 0.55269 0.40336 0.0
H344 H 0.63449 0.6367 0.3018 0.0
H345 H 0.63704 0.6859 0.35712 0.0
C346 C 0.611 0.67149 0.45058 0.0
C347 C 0.59643 0.65924 0.49877 0.0
C348 C 0.60404 0.64699 0.41356 0.0
C349 C 0.57189 0.62422 0.50725 0.0
C350 C 0.56493 0.59972 0.47079 0.0
C351 C 0.5804 0.58232 0.39266 0.0
C352 C 0.60044 0.59107 0.34932 0.0
C353 C 0.58219 0.60994 0.42501 0.0
C354 C 0.61894 0.62951 0.33519 0.0
C355 C 0.62072 0.65736 0.3671 0.0
H356 H 0.89749 0.07484 0.00911 0.0
H357 H 0.77317 0.11329 0.91982 0.0
H358 H 0.79083 0.10883 0.83582 0.0
H359 H 0.84363 0.10372 0.78622 0.0
H360 H 0.969 0.07011 0.87394 0.0
H361 H 0.9489 0.06236 0.96046 0.0
C362 C 0.87408 0.08146 0.97145 0.0
C363 C 0.83428 0.09506 0.97027 0.0
C364 C 0.8848 0.08017 0.92309 0.0
C365 C 0.80419 0.10341 0.92137 0.0
C366 C 0.81426 0.10093 0.87341 0.0
C367 C 0.86638 0.09429 0.82442 0.0
C368 C 0.90771 0.08813 0.824 0.0
C369 C 0.85481 0.091 0.8735 0.0
C370 C 0.93695 0.07505 0.87351 0.0
C371 C 0.92553 0.07089 0.92284 0.0
H372 H 0.45587 0.35555 0.33249 0.0
H373 H 0.35918 0.44815 0.30116 0.0
H374 H 0.37306 0.48091 0.21128 0.0
H375 H 0.41651 0.48608 0.14445 0.0
H376 H 0.5168 0.39644 0.18121 0.0
H377 H 0.49741 0.35932 0.26566 0.0
C378 C 0.43759 0.38273 0.30587 0.0
C379 C 0.40673 0.39956 0.32357 0.0
C380 C 0.44648 0.40194 0.25517 0.0
C381 C 0.38344 0.43489 0.28867 0.0
C382 C 0.39129 0.45354 0.23725 0.0
C383 C 0.43361 0.45807 0.17073 0.0
C384 C 0.46807 0.444 0.157 0.0
C385 C 0.42325 0.43776 0.22043 0.0
C386 C 0.49033 0.40794 0.19134 0.0
C387 C 0.47932 0.38676 0.2396 0.0
H388 H 0.17067 0.86197 0.88718 0.0
H389 H 0.20883 0.98541 0.89359 0.0
H390 H 0.16118 0.01539 0.80628 0.0
H391 H 0.10861 0.00652 0.72807 0.0
H392 H 0.06776 0.88317 0.72509 0.0
H393 H 0.11662 0.8533 0.81078 0.0
C394 C 0.16878 0.89541 0.86932 0.0
C395 C 0.19348 0.92135 0.8967 0.0
C396 C 0.14079 0.91251 0.81967 0.0
C397 C 0.19019 0.9647 0.87334 0.0
C398 C 0.16293 0.9819 0.82343 0.0
C399 C 0.11026 0.97313 0.74628 0.0
C400 C 0.08506 0.94711 0.71958 0.0
C401 C 0.13797 0.95611 0.7963 0.0
C402 C 0.08735 0.90393 0.7441 0.0
C403 C 0.11521 0.88676 0.79331 0.0
loop_
_geom_bond_atom_site_label_1
_geom_bond_atom_site_label_2
_geom_bond_distance
_geom_bond_site_symmetry_2
_ccdc_geom_bond_type
O0 Cd1 2.300 1_556 S
O0 C7 1.275 . S
Cd1 O0 2.300 1_554 S
Cd1 O9 2.381 . S
Cd1 O10 2.378 . S
O2 Cd3 2.385 1_556 S
O2 C7 1.255 . S
Cd3 O2 2.385 1_554 S
Cd3 O4 2.317 . S
O4 Cd3 2.317 . S
O4 C5 1.232 . S
C5 O4 1.232 . S
C5 O6 1.218 . S
O6 C5 1.218 . S
C7 O0 1.275 . S
C7 O2 1.255 . S
C8 O9 1.258 . S
C8 O10 1.256 . S
O9 Cd1 2.381 . S
O9 C8 1.258 . S
O10 Cd1 2.378 . S
O10 C8 1.256 . S
O11 Cd12 2.300 . S
O11 C18 1.275 . S
Cd12 O11 2.300 . S
Cd12 O20 2.381 . S
Cd12 O21 2.378 . S
O13 Cd14 2.385 . S
O13 C18 1.255 . S
Cd14 O13 2.385 . S
Cd14 O15 2.317 . S
O15 Cd14 2.317 . S
O15 C16 1.232 . S
C16 O15 1.232 . S
C16 O17 1.218 . S
O17 C16 1.218 . S
C18 O11 1.275 . S
C18 O13 1.255 . S
C19 O20 1.258 . S
C19 O21 1.256 . S
O20 Cd12 2.381 . S
O20 C19 1.258 . S
O21 Cd12 2.378 . S
O21 C19 1.256 . S
O22 Cd23 2.300 . S
O22 C29 1.275 . S
Cd23 O22 2.300 . S
Cd23 O31 2.381 . S
Cd23 O32 2.378 . S
O24 Cd25 2.385 . S
O24 C29 1.255 . S
Cd25 O24 2.385 . S
Cd25 O26 2.317 . S
O26 Cd25 2.317 . S
O26 C27 1.232 . S
C27 O26 1.232 . S
C27 O28 1.218 . S
O28 C27 1.218 . S
C29 O22 1.275 . S
C29 O24 1.255 . S
C30 O31 1.258 . S
C30 O32 1.256 . S
O31 Cd23 2.381 . S
O31 C30 1.258 . S
O32 Cd23 2.378 . S
O32 C30 1.256 . S
O33 Cd34 2.300 . S
O33 C40 1.275 . S
Cd34 O33 2.300 . S
Cd34 O42 2.381 . S
Cd34 O43 2.378 . S
O35 Cd36 2.385 . S
O35 C40 1.255 . S
Cd36 O35 2.385 . S
Cd36 O37 2.317 . S
O37 Cd36 2.317 . S
O37 C38 1.232 . S
C38 O37 1.232 . S
C38 O39 1.218 . S
O39 C38 1.218 . S
C40 O33 1.275 . S
C40 O35 1.255 . S
C41 O42 1.258 . S
C41 O43 1.256 . S
O42 Cd34 2.381 . S
O42 C41 1.258 . S
O43 Cd34 2.378 . S
O43 C41 1.256 . S
C44 C46 1.422 . S
C44 C48 1.415 . S
C44 N50 1.369 . S
C45 C46 1.421 . S
C45 C47 1.417 . S
C45 C57 1.422 . S
C46 C44 1.422 . S
C46 C45 1.421 . S
C46 N56 1.359 . S
C47 C45 1.417 . S
C47 C49 1.329 . S
C47 H66 0.930 . S
C48 C44 1.415 . S
C48 C49 1.437 . S
C48 C52 1.413 . S
C49 C47 1.329 . S
C49 C48 1.437 . S
C49 H71 0.929 . S
N50 C44 1.369 . S
N50 C51 1.338 1_655 S
N50 Gd55 2.622 . S
C51 N50 1.338 1_455 S
C51 C53 1.378 . S
C51 H63 0.929 . S
C52 C48 1.413 . S
C52 C53 1.348 1_655 S
C52 H68 0.931 . S
C53 C51 1.378 . S
C53 C52 1.348 1_455 S
C53 H69 0.930 . S
Gd54 N74 2.622 . S
Gd54 N81 2.570 . S
Gd54 O88 2.353 1_465 S
Gd54 O89 2.468 . S
Gd54 O90 2.427 . S
Gd54 O92 2.388 1_455 S
Gd54 O93 2.386 . S
Gd54 O97 2.307 1_565 S
Gd54 C107 2.805 . S
Gd55 N50 2.622 . S
Gd55 N56 2.570 . S
Gd55 O87 2.386 . S
Gd55 O91 2.307 1_545 S
Gd55 O94 2.353 1_655 S
Gd55 O95 2.468 . S
Gd55 O96 2.427 . S
Gd55 O98 2.388 1_655 S
Gd55 C119 2.805 . S
N56 C46 1.359 . S
N56 Gd55 2.570 . S
N56 C58 1.343 . S
C57 C45 1.422 . S
C57 C59 1.321 . S
C57 H65 0.931 . S
C58 N56 1.343 . S
C58 C59 1.390 . S
C58 H60 0.931 . S
C59 C57 1.321 . S
C59 C58 1.390 . S
C59 H61 0.930 . S
H60 C58 0.931 . S
H61 C59 0.930 . S
H62 C85 0.931 . S
H63 C51 0.929 . S
H64 C86 0.930 . S
H65 C57 0.931 . S
H66 C47 0.930 . S
H67 C76 0.929 1_655 S
H68 C52 0.931 . S
H69 C53 0.930 . S
H70 C108 0.930 . S
H71 C49 0.929 . S
H72 C77 0.931 . S
H73 C78 0.930 1_655 S
N74 Gd54 2.622 . S
N74 C75 1.369 . S
N74 C76 1.338 . S
C75 N74 1.369 . S
C75 C79 1.415 . S
C75 C82 1.422 . S
C76 H67 0.929 1_455 S
C76 N74 1.338 . S
C76 C78 1.378 . S
C77 H72 0.931 . S
C77 C78 1.348 . S
C77 C79 1.413 . S
C78 H73 0.930 1_455 S
C78 C76 1.378 . S
C78 C77 1.348 . S
C79 C75 1.415 . S
C79 C77 1.413 . S
C79 C109 1.437 . S
H80 C109 0.929 . S
N81 Gd54 2.570 . S
N81 C82 1.359 . S
N81 C85 1.343 . S
C82 C75 1.422 . S
C82 N81 1.359 . S
C82 C84 1.421 . S
C83 C84 1.422 . S
C83 C86 1.321 . S
C83 H110 0.931 . S
C84 C82 1.421 . S
C84 C83 1.422 . S
C84 C108 1.417 . S
C85 H62 0.931 . S
C85 N81 1.343 . S
C85 C86 1.390 . S
C86 H64 0.930 . S
C86 C83 1.321 . S
C86 C85 1.390 . S
O87 Gd55 2.386 . S
O87 C99 1.265 . S
O88 Gd54 2.353 1_645 S
O88 C99 1.242 . S
O89 Gd54 2.468 . S
O89 C107 1.263 . S
O90 Gd54 2.427 . S
O90 C107 1.252 . S
O91 Gd55 2.307 1_565 S
O91 C100 1.261 . S
O92 Gd54 2.388 1_655 S
O92 C100 1.252 . S
O93 Gd54 2.386 . S
O93 C111 1.265 . S
O94 Gd55 2.353 1_455 S
O94 C111 1.242 1_545 S
O95 Gd55 2.468 . S
O95 C119 1.263 . S
O96 Gd55 2.427 . S
O96 C119 1.252 . S
O97 Gd54 2.307 1_545 S
O97 C112 1.261 . S
O98 Gd55 2.388 1_455 S
O98 C112 1.252 . S
C99 O87 1.265 . S
C99 O88 1.242 . S
C100 O91 1.261 . S
C100 O92 1.252 . S
C101 C104 1.394 . S
C101 C106 1.370 . S
C101 C107 1.500 . S
C102 C105 1.383 . S
C102 C106 1.395 . S
C103 C104 1.396 . S
C103 C105 1.365 . S
C103 H120 0.929 . S
C104 C101 1.394 . S
C104 C103 1.396 . S
C104 H121 0.930 . S
C105 C102 1.383 . S
C105 C103 1.365 . S
C105 H122 0.931 . S
C106 C101 1.370 . S
C106 C102 1.395 . S
C106 H123 0.930 . S
C107 Gd54 2.805 . S
C107 O89 1.263 . S
C107 O90 1.252 . S
C107 C101 1.500 . S
C108 H70 0.930 . S
C108 C84 1.417 . S
C108 C109 1.329 . S
C109 C79 1.437 . S
C109 H80 0.929 . S
C109 C108 1.329 . S
H110 C83 0.931 . S
C111 O93 1.265 . S
C111 O94 1.242 1_565 S
C112 O97 1.261 . S
C112 O98 1.252 . S
C113 C116 1.394 . S
C113 C118 1.370 . S
C113 C119 1.500 . S
C114 C117 1.383 . S
C114 C118 1.395 . S
C115 C116 1.396 . S
C115 C117 1.365 . S
C115 H124 0.929 . S
C116 C113 1.394 . S
C116 C115 1.396 . S
C116 H125 0.930 . S
C117 C114 1.383 . S
C117 C115 1.365 . S
C117 H126 0.931 . S
C118 C113 1.370 . S
C118 C114 1.395 . S
C118 H127 0.930 . S
C119 Gd55 2.805 . S
C119 O95 1.263 . S
C119 O96 1.252 . S
C119 C113 1.500 . S
H120 C103 0.929 . S
H121 C104 0.930 . S
H122 C105 0.931 . S
H123 C106 0.930 . S
H124 C115 0.929 . S
H125 C116 0.930 . S
H126 C117 0.931 . S
H127 C118 0.930 . S
C128 C130 1.422 . S
C128 C132 1.415 . S
C128 N134 1.369 . S
C129 C130 1.421 . S
C129 C131 1.417 . S
C129 C141 1.422 . S
C130 C128 1.422 . S
C130 C129 1.421 . S
C130 N140 1.359 . S
C131 C129 1.417 . S
C131 C133 1.329 . S
C131 H150 0.930 . S
C132 C128 1.415 . S
C132 C133 1.437 . S
C132 C136 1.413 . S
C133 C131 1.329 . S
C133 C132 1.437 . S
C133 H155 0.929 . S
N134 C128 1.369 . S
N134 C135 1.338 . S
N134 Gd139 2.622 . S
C135 N134 1.338 . S
C135 C137 1.378 . S
C135 H147 0.929 . S
C136 C132 1.413 . S
C136 C137 1.348 . S
C136 H152 0.931 . S
C137 C135 1.378 . S
C137 C136 1.348 . S
C137 H153 0.930 . S
Gd138 N158 2.622 . S
Gd138 N165 2.570 1_556 S
Gd138 O172 2.353 . S
Gd138 O173 2.468 . S
Gd138 O174 2.427 . S
Gd138 O176 2.388 . S
Gd138 O177 2.386 1_556 S
Gd138 O181 2.307 1_556 S
Gd138 C191 2.805 . S
Gd139 N134 2.622 . S
Gd139 N140 2.570 . S
Gd139 O171 2.386 1_554 S
Gd139 O175 2.307 . S
Gd139 O178 2.353 . S
Gd139 O179 2.468 . S
Gd139 O180 2.427 . S
Gd139 O182 2.388 . S
Gd139 C203 2.805 . S
N140 C130 1.359 . S
N140 Gd139 2.570 . S
N140 C142 1.343 . S
C141 C129 1.422 . S
C141 C143 1.321 . S
C141 H149 0.931 . S
C142 N140 1.343 . S
C142 C143 1.390 . S
C142 H144 0.931 . S
C143 C141 1.321 . S
C143 C142 1.390 . S
C143 H145 0.930 . S
H144 C142 0.931 . S
H145 C143 0.930 . S
H146 C169 0.931 . S
H147 C135 0.929 . S
H148 C170 0.930 . S
H149 C141 0.931 . S
H150 C131 0.930 . S
H151 C160 0.929 . S
H152 C136 0.931 . S
H153 C137 0.930 . S
H154 C192 0.930 . S
H155 C133 0.929 . S
H156 C161 0.931 . S
H157 C162 0.930 . S
N158 Gd138 2.622 . S
N158 C159 1.369 1_556 S
N158 C160 1.338 . S
C159 N158 1.369 1_554 S
C159 C163 1.415 . S
C159 C166 1.422 . S
C160 H151 0.929 . S
C160 N158 1.338 . S
C160 C162 1.378 . S
C161 H156 0.931 . S
C161 C162 1.348 1_554 S
C161 C163 1.413 . S
C162 H157 0.930 . S
C162 C160 1.378 . S
C162 C161 1.348 1_556 S
C163 C159 1.415 . S
C163 C161 1.413 . S
C163 C193 1.437 . S
H164 C193 0.929 . S
N165 Gd138 2.570 1_554 S
N165 C166 1.359 . S
N165 C169 1.343 . S
C166 C159 1.422 . S
C166 N165 1.359 . S
C166 C168 1.421 . S
C167 C168 1.422 . S
C167 C170 1.321 . S
C167 H194 0.931 . S
C168 C166 1.421 . S
C168 C167 1.422 . S
C168 C192 1.417 . S
C169 H146 0.931 . S
C169 N165 1.343 . S
C169 C170 1.390 . S
C170 H148 0.930 . S
C170 C167 1.321 . S
C170 C169 1.390 . S
O171 Gd139 2.386 1_556 S
O171 C183 1.265 . S
O172 Gd138 2.353 . S
O172 C183 1.242 . S
O173 Gd138 2.468 . S
O173 C191 1.263 . S
O174 Gd138 2.427 . S
O174 C191 1.252 . S
O175 Gd139 2.307 . S
O175 C184 1.261 . S
O176 Gd138 2.388 . S
O176 C184 1.252 1_556 S
O177 Gd138 2.386 1_554 S
O177 C195 1.265 . S
O178 Gd139 2.353 . S
O178 C195 1.242 . S
O179 Gd139 2.468 . S
O179 C203 1.263 . S
O180 Gd139 2.427 . S
O180 C203 1.252 . S
O181 Gd138 2.307 1_554 S
O181 C196 1.261 . S
O182 Gd139 2.388 . S
O182 C196 1.252 . S
C183 O171 1.265 . S
C183 O172 1.242 . S
C184 O175 1.261 . S
C184 O176 1.252 1_554 S
C185 C188 1.394 . S
C185 C190 1.370 . S
C185 C191 1.500 . S
C186 C189 1.383 . S
C186 C190 1.395 . S
C187 C188 1.396 . S
C187 C189 1.365 . S
C187 H204 0.929 . S
C188 C185 1.394 . S
C188 C187 1.396 . S
C188 H205 0.930 . S
C189 C186 1.383 . S
C189 C187 1.365 . S
C189 H206 0.931 . S
C190 C185 1.370 . S
C190 C186 1.395 . S
C190 H207 0.930 . S
C191 Gd138 2.805 . S
C191 O173 1.263 . S
C191 O174 1.252 . S
C191 C185 1.500 . S
C192 H154 0.930 . S
C192 C168 1.417 . S
C192 C193 1.329 . S
C193 C163 1.437 . S
C193 H164 0.929 . S
C193 C192 1.329 . S
H194 C167 0.931 . S
C195 O177 1.265 . S
C195 O178 1.242 . S
C196 O181 1.261 . S
C196 O182 1.252 . S
C197 C200 1.394 . S
C197 C202 1.370 . S
C197 C203 1.500 . S
C198 C201 1.383 . S
C198 C202 1.395 . S
C199 C200 1.396 . S
C199 C201 1.365 . S
C199 H208 0.929 . S
C200 C197 1.394 . S
C200 C199 1.396 . S
C200 H209 0.930 . S
C201 C198 1.383 . S
C201 C199 1.365 . S
C201 H210 0.931 . S
C202 C197 1.370 . S
C202 C198 1.395 . S
C202 H211 0.930 . S
C203 Gd139 2.805 . S
C203 O179 1.263 . S
C203 O180 1.252 . S
C203 C197 1.500 . S
H204 C187 0.929 . S
H205 C188 0.930 . S
H206 C189 0.931 . S
H207 C190 0.930 . S
H208 C199 0.929 . S
H209 C200 0.930 . S
H210 C201 0.931 . S
H211 C202 0.930 . S
H212 C218 0.930 . S
H213 C221 0.930 . S
H214 C222 0.930 . S
H215 C223 0.930 . S
H216 C226 0.930 . S
H217 C227 0.930 . S
C218 H212 0.930 . S
C218 C219 1.355 . S
C218 C220 1.415 . S
C219 C218 1.355 . S
C219 C221 1.419 . S
C220 C218 1.415 . S
C220 C225 1.425 . S
C220 C227 1.409 . S
C221 H213 0.930 . S
C221 C219 1.419 . S
C221 C222 1.362 . S
C222 H214 0.930 . S
C222 C221 1.362 . S
C222 C225 1.409 . S
C223 H215 0.930 . S
C223 C224 1.355 . S
C223 C225 1.415 . S
C224 C223 1.355 . S
C224 C226 1.419 . S
C225 C220 1.425 . S
C225 C222 1.409 . S
C225 C223 1.415 . S
C226 H216 0.930 . S
C226 C224 1.419 . S
C226 C227 1.362 . S
C227 H217 0.930 . S
C227 C220 1.409 . S
C227 C226 1.362 . S
H228 C234 0.930 . S
H229 C237 0.930 . S
H230 C238 0.930 . S
H231 C239 0.913 1_556 S
H232 C242 0.930 . S
H233 C243 0.930 . S
C234 H228 0.930 . S
C234 C235 1.355 . S
C234 C236 1.415 . S
C235 C234 1.355 . S
C235 C237 1.419 1_554 S
C236 C234 1.415 . S
C236 C241 1.425 . S
C236 C243 1.409 . S
C237 H229 0.930 . S
C237 C235 1.419 1_556 S
C237 C238 1.362 . S
C238 H230 0.930 . S
C238 C237 1.362 . S
C238 C241 1.409 1_556 S
C239 H231 0.913 1_554 S
C239 C240 1.362 . S
C239 C241 1.424 . S
C240 C239 1.362 . S
C240 C242 1.419 . S
C241 C236 1.425 . S
C241 C238 1.409 1_554 S
C241 C239 1.424 . S
C242 H232 0.930 . S
C242 C240 1.419 . S
C242 C243 1.362 . S
C243 H233 0.930 . S
C243 C236 1.409 . S
C243 C242 1.362 . S
H244 C250 0.930 . S
H245 C253 0.930 . S
H246 C254 0.930 . S
H247 C255 0.930 . S
H248 C258 0.930 . S
H249 C259 0.930 . S
C250 H244 0.930 . S
C250 C251 1.355 . S
C250 C252 1.415 . S
C251 C250 1.355 . S
C251 C253 1.419 . S
C252 C250 1.415 . S
C252 C257 1.425 . S
C252 C259 1.409 . S
C253 H245 0.930 . S
C253 C251 1.419 . S
C253 C254 1.362 . S
C254 H246 0.930 . S
C254 C253 1.362 . S
C254 C257 1.409 . S
C255 H247 0.930 . S
C255 C256 1.355 . S
C255 C257 1.415 . S
C256 C255 1.355 . S
C256 C258 1.419 . S
C257 C252 1.425 . S
C257 C254 1.409 . S
C257 C255 1.415 . S
C258 H248 0.930 . S
C258 C256 1.419 . S
C258 C259 1.362 . S
C259 H249 0.930 . S
C259 C252 1.409 . S
C259 C258 1.362 . S
H260 C266 0.930 . S
H261 C269 0.930 . S
H262 C270 0.930 . S
H263 C271 0.930 . S
H264 C274 0.930 1_556 S
H265 C275 0.930 1_556 S
C266 H260 0.930 . S
C266 C267 1.355 . S
C266 C268 1.415 . S
C267 C266 1.355 . S
C267 C269 1.419 . S
C268 C266 1.415 . S
C268 C273 1.425 . S
C268 C275 1.409 . S
C269 H261 0.930 . S
C269 C267 1.419 . S
C269 C270 1.362 . S
C270 H262 0.930 . S
C270 C269 1.362 . S
C270 C273 1.409 . S
C271 H263 0.930 . S
C271 C272 1.355 . S
C271 C273 1.415 . S
C272 C271 1.355 . S
C272 C274 1.419 . S
C273 C268 1.425 . S
C273 C270 1.409 . S
C273 C271 1.415 . S
C274 H264 0.930 1_554 S
C274 C272 1.419 . S
C274 C275 1.362 . S
C275 H265 0.930 1_554 S
C275 C268 1.409 . S
C275 C274 1.362 . S
H276 C282 0.930 . S
H277 C285 0.930 . S
H278 C286 0.930 . S
H279 C287 0.930 . S
H280 C290 0.930 . S
H281 C291 0.930 . S
C282 H276 0.930 . S
C282 C283 1.355 . S
C282 C284 1.415 . S
C283 C282 1.355 . S
C283 C285 1.419 . S
C284 C282 1.415 . S
C284 C289 1.425 . S
C284 C291 1.409 . S
C285 H277 0.930 . S
C285 C283 1.419 . S
C285 C286 1.362 . S
C286 H278 0.930 . S
C286 C285 1.362 . S
C286 C289 1.409 . S
C287 H279 0.930 . S
C287 C288 1.355 . S
C287 C289 1.415 . S
C288 C287 1.355 . S
C288 C290 1.419 . S
C289 C284 1.425 . S
C289 C286 1.409 . S
C289 C287 1.415 . S
C290 H280 0.930 . S
C290 C288 1.419 . S
C290 C291 1.362 . S
C291 H281 0.930 . S
C291 C284 1.409 . S
C291 C290 1.362 . S
H292 C298 0.930 . S
H293 C301 0.930 . S
H294 C302 0.930 . S
H295 C303 0.930 . S
H296 C306 0.930 . S
H297 C307 0.930 . S
C298 H292 0.930 . S
C298 C299 1.355 . S
C298 C300 1.415 . S
C299 C298 1.355 . S
C299 C301 1.419 . S
C300 C298 1.415 . S
C300 C305 1.425 . S
C300 C307 1.409 . S
C301 H293 0.930 . S
C301 C299 1.419 . S
C301 C302 1.362 . S
C302 H294 0.930 . S
C302 C301 1.362 . S
C302 C305 1.409 . S
C303 H295 0.930 . S
C303 C304 1.355 . S
C303 C305 1.415 . S
C304 C303 1.355 . S
C304 C306 1.419 . S
C305 C300 1.425 . S
C305 C302 1.409 . S
C305 C303 1.415 . S
C306 H296 0.930 . S
C306 C304 1.419 . S
C306 C307 1.362 . S
C307 H297 0.930 . S
C307 C300 1.409 . S
C307 C306 1.362 . S
H308 C314 0.930 . S
H309 C317 0.930 . S
H310 C318 0.930 . S
H311 C319 0.930 . S
H312 C322 0.930 . S
H313 C323 0.930 . S
C314 H308 0.930 . S
C314 C315 1.355 . S
C314 C316 1.415 . S
C315 C314 1.355 . S
C315 C317 1.419 . S
C316 C314 1.415 . S
C316 C321 1.425 . S
C316 C323 1.409 . S
C317 H309 0.930 . S
C317 C315 1.419 . S
C317 C318 1.362 . S
C318 H310 0.930 . S
C318 C317 1.362 . S
C318 C321 1.409 . S
C319 H311 0.930 . S
C319 C320 1.355 . S
C319 C321 1.415 . S
C320 C319 1.355 . S
C320 C322 1.419 . S
C321 C316 1.425 . S
C321 C318 1.409 . S
C321 C319 1.415 . S
C322 H312 0.930 . S
C322 C320 1.419 . S
C322 C323 1.362 . S
C323 H313 0.930 . S
C323 C316 1.409 . S
C323 C322 1.362 . S
H324 C330 0.930 . S
H325 C333 0.930 . S
H326 C334 0.930 . S
H327 C335 0.930 . S
H328 C338 0.930 . S
H329 C339 0.930 . S
C330 H324 0.930 . S
C330 C331 1.355 . S
C330 C332 1.415 . S
C331 C330 1.355 . S
C331 C333 1.419 . S
C332 C330 1.415 . S
C332 C337 1.425 . S
C332 C339 1.409 . S
C333 H325 0.930 . S
C333 C331 1.419 . S
C333 C334 1.362 . S
C334 H326 0.930 . S
C334 C333 1.362 . S
C334 C337 1.409 . S
C335 H327 0.930 . S
C335 C336 1.355 . S
C335 C337 1.415 . S
C336 C335 1.355 . S
C336 C338 1.419 . S
C337 C332 1.425 . S
C337 C334 1.409 . S
C337 C335 1.415 . S
C338 H328 0.930 . S
C338 C336 1.419 . S
C338 C339 1.362 . S
C339 H329 0.930 . S
C339 C332 1.409 . S
C339 C338 1.362 . S
H340 C346 0.930 . S
H341 C349 0.930 . S
H342 C350 0.930 . S
H343 C351 0.930 . S
H344 C354 0.930 . S
H345 C355 0.930 . S
C346 H340 0.930 . S
C346 C347 1.355 . S
C346 C348 1.415 . S
C347 C346 1.355 . S
C347 C349 1.419 . S
C348 C346 1.415 . S
C348 C353 1.425 . S
C348 C355 1.409 . S
C349 H341 0.930 . S
C349 C347 1.419 . S
C349 C350 1.362 . S
C350 H342 0.930 . S
C350 C349 1.362 . S
C350 C353 1.409 . S
C351 H343 0.930 . S
C351 C352 1.355 . S
C351 C353 1.415 . S
C352 C351 1.355 . S
C352 C354 1.419 . S
C353 C348 1.425 . S
C353 C350 1.409 . S
C353 C351 1.415 . S
C354 H344 0.930 . S
C354 C352 1.419 . S
C354 C355 1.362 . S
C355 H345 0.930 . S
C355 C348 1.409 . S
C355 C354 1.362 . S
H356 C362 0.930 . S
H357 C365 0.930 . S
H358 C366 0.930 . S
H359 C367 0.930 . S
H360 C370 0.930 . S
H361 C371 0.930 . S
C362 H356 0.930 . S
C362 C363 1.355 . S
C362 C364 1.415 . S
C363 C362 1.355 . S
C363 C365 1.419 . S
C364 C362 1.415 . S
C364 C369 1.425 . S
C364 C371 1.409 . S
C365 H357 0.930 . S
C365 C363 1.419 . S
C365 C366 1.362 . S
C366 H358 0.930 . S
C366 C365 1.362 . S
C366 C369 1.409 . S
C367 H359 0.930 . S
C367 C368 1.355 . S
C367 C369 1.415 . S
C368 C367 1.355 . S
C368 C370 1.419 . S
C369 C364 1.425 . S
C369 C366 1.409 . S
C369 C367 1.415 . S
C370 H360 0.930 . S
C370 C368 1.419 . S
C370 C371 1.362 . S
C371 H361 0.930 . S
C371 C364 1.409 . S
C371 C370 1.362 . S
H372 C378 0.930 . S
H373 C381 0.930 . S
H374 C382 0.930 . S
H375 C383 0.930 . S
H376 C386 0.930 . S
H377 C387 0.930 . S
C378 H372 0.930 . S
C378 C379 1.355 . S
C378 C380 1.415 . S
C379 C378 1.355 . S
C379 C381 1.419 . S
C380 C378 1.415 . S
C380 C385 1.425 . S
C380 C387 1.409 . S
C381 H373 0.930 . S
C381 C379 1.419 . S
C381 C382 1.362 . S
C382 H374 0.930 . S
C382 C381 1.362 . S
C382 C385 1.409 . S
C383 H375 0.930 . S
C383 C384 1.355 . S
C383 C385 1.415 . S
C384 C383 1.355 . S
C384 C386 1.419 . S
C385 C380 1.425 . S
C385 C382 1.409 . S
C385 C383 1.415 . S
C386 H376 0.930 . S
C386 C384 1.419 . S
C386 C387 1.362 . S
C387 H377 0.930 . S
C387 C380 1.409 . S
C387 C386 1.362 . S
H388 C394 0.930 . S
H389 C397 0.930 . S
H390 C398 0.930 1_545 S
H391 C399 0.930 1_545 S
H392 C402 0.930 . S
H393 C403 0.930 . S
C394 H388 0.930 . S
C394 C395 1.355 . S
C394 C396 1.415 . S
C395 C394 1.355 . S
C395 C397 1.419 . S
C396 C394 1.415 . S
C396 C401 1.425 . S
C396 C403 1.409 . S
C397 H389 0.930 . S
C397 C395 1.419 . S
C397 C398 1.362 . S
C398 H390 0.930 1_565 S
C398 C397 1.362 . S
C398 C401 1.409 . S
C399 H391 0.930 1_565 S
C399 C400 1.355 . S
C399 C401 1.415 . S
C400 C399 1.355 . S
C400 C402 1.419 . S
C401 C396 1.425 . S
C401 C398 1.409 . S
C401 C399 1.415 . S
C402 H392 0.930 . S
C402 C400 1.419 . S
C402 C403 1.362 . S
C403 H393 0.930 . S
C403 C396 1.409 . S
C403 C402 1.362 . S
C224 C112 1.621 . S
C219 C41 1.585 . S
C235 C8 1.615 . S
C240 C184 1.637 . S
C251 C19 1.705 . S
C256 C100 1.771 . S
C267 C30 1.565 . S
C272 C196 1.607 . S
C288 C102 1.466 . S
C283 C5 1.470 . S
C304 C183 1.777 . S
C299 C18 1.764 . S
C315 C29 1.607 . S
C320 C99 1.702 . S
C331 C40 1.555 . S
C336 C186 1.535 . S
C352 C198 1.381 . S
C347 C16 1.293 . S
C368 C114 1.297 . S
C363 C27 1.356 1_556 S
C384 C195 1.545 . S
C379 C38 1.212 . S
C395 C7 1.476 . S
C400 C111 1.508 . S
