# Generated by pormake.
# Topology pyr, (3,6)-cn, num edge types: 1
# Building blocks:
#     Node 0, Type 0, BuildingBlock: WUSLED_clean_sbu_0, # of connection points: 3
#     Node 1, Type 0, BuildingBlock: WUSLED_clean_sbu_0, # of connection points: 3
#     Node 2, Type 0, BuildingBlock: WUSLED_clean_sbu_0, # of connection points: 3
#     Node 3, Type 0, BuildingBlock: WUSLED_clean_sbu_0, # of connection points: 3
#     Node 4, Type 0, BuildingBlock: WUSLED_clean_sbu_0, # of connection points: 3
#     Node 5, Type 0, BuildingBlock: WUSLED_clean_sbu_0, # of connection points: 3
#     Node 6, Type 0, BuildingBlock: WUSLED_clean_sbu_0, # of connection points: 3
#     Node 7, Type 0, BuildingBlock: WUSLED_clean_sbu_0, # of connection points: 3
#     Node 8, Type 1, BuildingBlock: JUFBIX_clean_sbu_0, # of connection points: 6
#     Node 9, Type 1, BuildingBlock: JUFBIX_clean_sbu_0, # of connection points: 6
#     Node 10, Type 1, BuildingBlock: JUFBIX_clean_sbu_0, # of connection points: 6
#     Node 11, Type 1, BuildingBlock: JUFBIX_clean_sbu_0, # of connection points: 6
#     Edge 12, Type (0, 1), BuildingBlock: EZIPEK_clean_linker_0, # of connection points: 2
#     Edge 13, Type (0, 1), BuildingBlock: EZIPEK_clean_linker_0, # of connection points: 2
#     Edge 14, Type (0, 1), BuildingBlock: EZIPEK_clean_linker_0, # of connection points: 2
#     Edge 15, Type (0, 1), BuildingBlock: EZIPEK_clean_linker_0, # of connection points: 2
#     Edge 16, Type (0, 1), BuildingBlock: EZIPEK_clean_linker_0, # of connection points: 2
#     Edge 17, Type (0, 1), BuildingBlock: EZIPEK_clean_linker_0, # of connection points: 2
#     Edge 18, Type (0, 1), BuildingBlock: EZIPEK_clean_linker_0, # of connection points: 2
#     Edge 19, Type (0, 1), BuildingBlock: EZIPEK_clean_linker_0, # of connection points: 2
#     Edge 20, Type (0, 1), BuildingBlock: EZIPEK_clean_linker_0, # of connection points: 2
#     Edge 21, Type (0, 1), BuildingBlock: EZIPEK_clean_linker_0, # of connection points: 2
#     Edge 22, Type (0, 1), BuildingBlock: EZIPEK_clean_linker_0, # of connection points: 2
#     Edge 23, Type (0, 1), BuildingBlock: EZIPEK_clean_linker_0, # of connection points: 2
#     Edge 24, Type (0, 1), BuildingBlock: EZIPEK_clean_linker_0, # of connection points: 2
#     Edge 25, Type (0, 1), BuildingBlock: EZIPEK_clean_linker_0, # of connection points: 2
#     Edge 26, Type (0, 1), BuildingBlock: EZIPEK_clean_linker_0, # of connection points: 2
#     Edge 27, Type (0, 1), BuildingBlock: EZIPEK_clean_linker_0, # of connection points: 2
#     Edge 28, Type (0, 1), BuildingBlock: EZIPEK_clean_linker_0, # of connection points: 2
#     Edge 29, Type (0, 1), BuildingBlock: EZIPEK_clean_linker_0, # of connection points: 2
#     Edge 30, Type (0, 1), BuildingBlock: EZIPEK_clean_linker_0, # of connection points: 2
#     Edge 31, Type (0, 1), BuildingBlock: EZIPEK_clean_linker_0, # of connection points: 2
#     Edge 32, Type (0, 1), BuildingBlock: EZIPEK_clean_linker_0, # of connection points: 2
#     Edge 33, Type (0, 1), BuildingBlock: EZIPEK_clean_linker_0, # of connection points: 2
#     Edge 34, Type (0, 1), BuildingBlock: EZIPEK_clean_linker_0, # of connection points: 2
#     Edge 35, Type (0, 1), BuildingBlock: EZIPEK_clean_linker_0, # of connection points: 2
# Relax obj value: 0.055
# Max RMSD: 0.096
# Mean RMSD: 0.033
data_MOF--net-pyr--node1-WUSLED_clean_sbu_0--node2-JUFBIX_clean_sbu_0--edge1-EZIPEK_clean_linker_0
_symmetry_space_group_name_H-M    P1
_symmetry_Int_Tables_number       1
_symmetry_cell_setting            triclinic
loop_
_symmetry_equiv_pos_as_xyz
'x, y, z'
_cell_length_a     38.713575
_cell_length_b     36.950207
_cell_length_c     38.727166
_cell_angle_alpha  84.747889
_cell_angle_beta   90.401892
_cell_angle_gamma 92.70034
loop_
_atom_site_label
_atom_site_type_symbol
_atom_site_fract_x
_atom_site_fract_y
_atom_site_fract_z
_atom_type_partial_charge
C0 C 0.13057 0.24272 0.11861 0.0
C1 C 0.09994 0.25256 0.13416 0.0
C2 C 0.09769 0.30894 0.09473 0.0
C3 C 0.08375 0.28517 0.12237 0.0
C4 C 0.12786 0.29856 0.07885 0.0
C5 C 0.14392 0.26608 0.09054 0.0
U6 U 0.17673 0.14968 0.16193 0.0
O7 O 0.20136 0.11462 0.12554 0.0
O8 O 0.23398 0.14751 0.15868 0.0
C9 C 0.23296 0.12418 0.13499 0.0
C10 C 0.1499 0.20938 0.13139 0.0
C11 C 0.26568 0.10964 0.12059 0.0
C12 C 0.29876 0.08809 0.07257 0.0
C13 C 0.26783 0.10067 0.08597 0.0
C14 C 0.32628 0.09179 0.12813 0.0
C15 C 0.32868 0.08347 0.09338 0.0
C16 C 0.29557 0.10483 0.14136 0.0
C17 C 0.13055 0.10416 0.25288 0.0
C18 C 0.12006 0.05912 0.30311 0.0
C19 C 0.09127 0.11579 0.29997 0.0
C20 C 0.10762 0.12685 0.26777 0.0
C21 C 0.09762 0.0819 0.31846 0.0
C22 C 0.13608 0.07 0.27093 0.0
C23 C 0.15105 0.11563 0.2203 0.0
O24 O 0.17389 0.21008 0.15554 0.0
O25 O 0.13939 0.17634 0.12474 0.0
O26 O 0.14048 0.10777 0.18937 0.0
O27 O 0.17402 0.14303 0.21939 0.0
H28 H 0.08879 0.23535 0.15576 0.0
H29 H 0.06062 0.29221 0.13531 0.0
H30 H 0.13941 0.31598 0.05759 0.0
H31 H 0.16733 0.25943 0.07781 0.0
H32 H 0.29933 0.08204 0.04575 0.0
H33 H 0.24566 0.10392 0.06895 0.0
H34 H 0.34845 0.08848 0.14514 0.0
H35 H 0.29519 0.11101 0.16815 0.0
H36 H 0.12574 0.03298 0.3164 0.0
H37 H 0.07416 0.13409 0.31087 0.0
H38 H 0.10273 0.15335 0.2548 0.0
H39 H 0.15366 0.05187 0.26045 0.0
C40 C 0.33228 0.87315 0.59113 0.0
C41 C 0.32261 0.89732 0.61467 0.0
C42 C 0.27493 0.91673 0.57665 0.0
C43 C 0.29357 0.9178 0.60816 0.0
C44 C 0.28239 0.88827 0.55605 0.0
C45 C 0.31143 0.86777 0.56248 0.0
U46 U 0.41563 0.8609 0.63917 0.0
O47 O 0.43895 0.81144 0.66267 0.0
O48 O 0.46704 0.84705 0.62254 0.0
C49 C 0.46587 0.81591 0.64195 0.0
C50 C 0.36357 0.85287 0.5969 0.0
C51 C 0.47395 0.7842 0.62403 0.0
C52 C 0.4617 0.74213 0.58051 0.0
C53 C 0.45253 0.77183 0.5979 0.0
C54 C 0.51226 0.73582 0.61682 0.0
C55 C 0.49351 0.7253 0.5875 0.0
C56 C 0.50323 0.76545 0.634 0.0
C57 C 0.43487 0.92927 0.70717 0.0
C58 C 0.47538 0.92207 0.75513 0.0
C59 C 0.43786 0.97313 0.74993 0.0
C60 C 0.4241 0.96139 0.71937 0.0
C61 C 0.46265 0.95291 0.76853 0.0
C62 C 0.46138 0.91016 0.72448 0.0
C63 C 0.41494 0.91438 0.67909 0.0
O64 O 0.39238 0.87127 0.58748 0.0
O65 O 0.36549 0.83457 0.62751 0.0
O66 O 0.3994 0.88235 0.68708 0.0
O67 O 0.42925 0.91783 0.64822 0.0
H68 H 0.33742 0.90025 0.63819 0.0
H69 H 0.28604 0.93402 0.62839 0.0
H70 H 0.26596 0.8807 0.53509 0.0
H71 H 0.31743 0.84752 0.54516 0.0
H72 H 0.44301 0.73239 0.56236 0.0
H73 H 0.42861 0.78492 0.59115 0.0
H74 H 0.53378 0.72109 0.62763 0.0
H75 H 0.51905 0.77351 0.65544 0.0
H76 H 0.49427 0.90601 0.76956 0.0
H77 H 0.42763 0.99672 0.76023 0.0
H78 H 0.40357 0.97628 0.70633 0.0
H79 H 0.46983 0.88516 0.71536 0.0
C80 C 0.62478 0.42785 0.79914 0.0
C81 C 0.64308 0.45778 0.78153 0.0
C82 C 0.60152 0.45844 0.73312 0.0
C83 C 0.63146 0.473 0.74885 0.0
C84 C 0.58304 0.42913 0.75123 0.0
C85 C 0.59448 0.41417 0.78371 0.0
U86 U 0.6747 0.39023 0.88783 0.0
O87 O 0.64498 0.36048 0.9312 0.0
O88 O 0.67933 0.33097 0.9 0.0
C89 C 0.65765 0.329 0.92611 0.0
C90 C 0.63694 0.40815 0.83217 0.0
C91 C 0.63617 0.29457 0.9343 0.0
C92 C 0.58506 0.25328 0.9298 0.0
C93 C 0.60367 0.28658 0.91967 0.0
C94 C 0.6319 0.23507 0.96731 0.0
C95 C 0.59738 0.22773 0.95645 0.0
C96 C 0.65016 0.26795 0.95749 0.0
C97 C 0.76263 0.43448 0.92684 0.0
C98 C 0.79174 0.45287 0.97981 0.0
C99 C 0.8258 0.44561 0.92925 0.0
C100 C 0.79553 0.43575 0.91123 0.0
C101 C 0.82452 0.4546 0.96373 0.0
C102 C 0.76124 0.4431 0.96162 0.0
C103 C 0.73082 0.42958 0.90439 0.0
O104 O 0.66397 0.38798 0.83185 0.0
O105 O 0.63147 0.4204 0.86242 0.0
O106 O 0.69979 0.43386 0.91669 0.0
O107 O 0.73069 0.40456 0.88234 0.0
H108 H 0.66655 0.46892 0.79265 0.0
H109 H 0.64623 0.4956 0.73547 0.0
H110 H 0.56002 0.41728 0.73984 0.0
H111 H 0.57992 0.39106 0.79654 0.0
H112 H 0.56178 0.24789 0.91544 0.0
H113 H 0.59288 0.30568 0.90008 0.0
H114 H 0.64591 0.21527 0.98331 0.0
H115 H 0.67589 0.27238 0.96798 0.0
H116 H 0.78967 0.4599 1.00623 0.0
H117 H 0.85037 0.44699 0.91587 0.0
H118 H 0.79781 0.43024 0.88437 0.0
H119 H 0.73654 0.44321 0.97456 0.0
C120 C 0.85756 0.59012 0.45059 0.0
C121 C 0.85547 0.59172 0.48666 0.0
C122 C 0.79398 0.57647 0.48419 0.0
C123 C 0.8237 0.58449 0.50351 0.0
C124 C 0.79624 0.57502 0.44828 0.0
C125 C 0.82782 0.58161 0.43166 0.0
U126 U 0.94007 0.64789 0.4256 0.0
O127 O 0.98915 0.63018 0.40581 0.0
O128 O 0.95704 0.66687 0.37292 0.0
C129 C 0.9834 0.64568 0.37446 0.0
C130 C 0.88977 0.59799 0.43125 0.0
C131 C 0.98434 0.62198 0.34607 0.0
C132 C 0.95693 0.57548 0.31306 0.0
C133 C 0.95829 0.59465 0.34263 0.0
C134 C 1.0081 0.61003 0.29075 0.0
C135 C 0.98148 0.58364 0.28669 0.0
C136 C 1.00951 0.62907 0.32029 0.0
C137 C 0.95916 0.7363 0.47135 0.0
C138 C 1.00994 0.77413 0.48445 0.0
C139 C 0.95363 0.8002 0.47928 0.0
C140 C 0.93877 0.76658 0.47231 0.0
C141 C 0.9892 0.8042 0.48561 0.0
C142 C 0.99501 0.74029 0.47722 0.0
C143 C 0.94139 0.70096 0.46627 0.0
O144 O 0.88942 0.627 0.40904 0.0
O145 O 0.91907 0.59466 0.44843 0.0
O146 O 0.95843 0.67113 0.47329 0.0
O147 O 0.922 0.70041 0.43833 0.0
H148 H 0.87815 0.59859 0.50169 0.0
H149 H 0.82214 0.58556 0.53131 0.0
H150 H 0.77346 0.56874 0.43312 0.0
H151 H 0.82901 0.58037 0.40383 0.0
H152 H 0.93614 0.55532 0.31012 0.0
H153 H 0.93841 0.58906 0.3622 0.0
H154 H 0.02713 0.6167 0.2705 0.0
H155 H 0.02954 0.65023 0.32246 0.0
H156 H 0.03746 0.77683 0.48947 0.0
H157 H 0.93724 0.82306 0.4803 0.0
H158 H 0.91108 0.76408 0.46821 0.0
H159 H 1.01133 0.71733 0.47675 0.0
C160 C 0.91579 0.79469 0.93543 0.0
C161 C 0.93831 0.77933 0.91295 0.0
C162 C 0.95124 0.72993 0.958 0.0
C163 C 0.95599 0.74756 0.9242 0.0
C164 C 0.92923 0.74592 0.98042 0.0
C165 C 0.91207 0.77776 0.96939 0.0
U166 U 0.87039 0.88324 0.88594 0.0
O167 O 0.81322 0.88783 0.88654 0.0
O168 O 0.84623 0.92476 0.91518 0.0
C169 C 0.81463 0.9156 0.90551 0.0
C170 C 0.89353 0.82618 0.92457 0.0
C171 C 0.78317 0.92619 0.92469 0.0
C172 C 0.73952 0.91812 0.97118 0.0
C173 C 0.7694 0.90663 0.95472 0.0
C174 C 0.73529 0.96742 0.92709 0.0
C175 C 0.72303 0.95095 0.95965 0.0
C176 C 0.76502 0.9562 0.91086 0.0
C177 C 0.91861 0.92303 0.79374 0.0
C178 C 0.92407 0.96774 0.74286 0.0
C179 C 0.96145 0.91773 0.74821 0.0
C180 C 0.94505 0.90431 0.77965 0.0
C181 C 0.95378 0.95184 0.73023 0.0
C182 C 0.90772 0.95443 0.77436 0.0
C183 C 0.90112 0.90861 0.82717 0.0
O184 O 0.90448 0.85989 0.92811 0.0
O185 O 0.87112 0.82362 0.89916 0.0
O186 O 0.87643 0.88286 0.82877 0.0
O187 O 0.90954 0.92048 0.85724 0.0
H188 H 0.9418 0.79145 0.8866 0.0
H189 H 0.97275 0.73613 0.90617 0.0
H190 H 0.92477 0.73331 1.00646 0.0
H191 H 0.89488 0.78871 0.98735 0.0
H192 H 0.72917 0.89992 0.99231 0.0
H193 H 0.78128 0.88202 0.96521 0.0
H194 H 0.72167 0.98883 0.91287 0.0
H195 H 0.77351 0.97088 0.88667 0.0
H196 H 0.91229 0.99025 0.72831 0.0
H197 H 0.97942 0.90005 0.73803 0.0
H198 H 0.95279 0.87878 0.79273 0.0
H199 H 0.88596 0.96845 0.78321 0.0
C200 C 0.57311 0.14397 0.34068 0.0
C201 C 0.60078 0.13951 0.3183 0.0
C202 C 0.56279 0.10427 0.28268 0.0
C203 C 0.59554 0.12001 0.28934 0.0
C204 C 0.53568 0.1069 0.30604 0.0
C205 C 0.54079 0.12685 0.33478 0.0
U206 U 0.62793 0.17433 0.41417 0.0
O207 O 0.64341 0.22813 0.42993 0.0
O208 O 0.61544 0.18838 0.46663 0.0
C209 C 0.6287 0.22176 0.46048 0.0
C210 C 0.57754 0.16669 0.36988 0.0
C211 C 0.6079 0.25106 0.47062 0.0
C212 C 0.56538 0.29645 0.45705 0.0
C213 C 0.58131 0.26501 0.44923 0.0
C214 C 0.6017 0.29923 0.50818 0.0
C215 C 0.57619 0.31419 0.48611 0.0
C216 C 0.61742 0.26779 0.50048 0.0
C217 C 0.71501 0.13017 0.42604 0.0
C218 C 0.75097 0.11774 0.47688 0.0
C219 C 0.7753 0.11851 0.41916 0.0
C220 C 0.74351 0.12713 0.40467 0.0
C221 C 0.77879 0.11255 0.4552 0.0
C222 C 0.71907 0.12677 0.46231 0.0
C223 C 0.68123 0.13445 0.40947 0.0
O224 O 0.57751 0.14893 0.40091 0.0
O225 O 0.60174 0.19293 0.36585 0.0
O226 O 0.67773 0.16534 0.39042 0.0
O227 O 0.65395 0.12363 0.42841 0.0
H228 H 0.62621 0.15179 0.32268 0.0
H229 H 0.61677 0.11798 0.27163 0.0
H230 H 0.51031 0.09471 0.30125 0.0
H231 H 0.51933 0.12956 0.352 0.0
H232 H 0.54573 0.30779 0.43978 0.0
H233 H 0.57387 0.25243 0.42592 0.0
H234 H 0.61029 0.31266 0.53066 0.0
H235 H 0.63802 0.25738 0.51709 0.0
H236 H 0.75347 0.11284 0.50478 0.0
H237 H 0.79662 0.11416 0.40226 0.0
H238 H 0.74079 0.12983 0.3767 0.0
H239 H 0.69738 0.12947 0.47926 0.0
C240 C 0.28911 0.59475 0.13236 0.0
C241 C 0.27724 0.61996 0.10585 0.0
C242 C 0.22766 0.57842 0.09316 0.0
C243 C 0.24708 0.61177 0.08637 0.0
C244 C 0.24012 0.55326 0.11926 0.0
C245 C 0.27026 0.56123 0.1383 0.0
U246 U 0.37435 0.64326 0.17257 0.0
O247 O 0.38418 0.64623 0.22858 0.0
O248 O 0.41815 0.61461 0.19889 0.0
C249 C 0.41163 0.62655 0.22905 0.0
C250 C 0.31941 0.60222 0.15588 0.0
C251 C 0.42302 0.60659 0.26249 0.0
C252 C 0.4122 0.57939 0.32194 0.0
C253 C 0.39985 0.59306 0.28904 0.0
C254 C 0.471 0.59191 0.30241 0.0
C255 C 0.44797 0.57929 0.32924 0.0
C256 C 0.45871 0.60524 0.26959 0.0
C257 C 0.41467 0.73661 0.1241 0.0
C258 C 0.46015 0.78183 0.13711 0.0
C259 C 0.42624 0.79145 0.08471 0.0
C260 C 0.4078 0.7583 0.09332 0.0
C261 C 0.45244 0.8039 0.10655 0.0
C262 C 0.44134 0.74851 0.14593 0.0
C263 C 0.392 0.70308 0.13234 0.0
O264 O 0.35098 0.59756 0.14533 0.0
O265 O 0.3181 0.62918 0.17568 0.0
O266 O 0.37042 0.70227 0.15846 0.0
O267 O 0.4042 0.67112 0.12834 0.0
H268 H 0.29092 0.64609 0.1005 0.0
H269 H 0.23841 0.63187 0.06648 0.0
H270 H 0.2261 0.52743 0.12539 0.0
H271 H 0.27852 0.5412 0.15848 0.0
H272 H 0.3938 0.56983 0.34205 0.0
H273 H 0.37223 0.5939 0.2847 0.0
H274 H 0.49862 0.5923 0.30713 0.0
H275 H 0.47728 0.61586 0.24999 0.0
H276 H 0.48026 0.79075 0.15442 0.0
H277 H 0.41971 0.8077 0.06107 0.0
H278 H 0.38748 0.74983 0.07601 0.0
H279 H 0.44728 0.73244 0.16984 0.0
C280 C 0.05983 0.30007 0.59901 0.0
C281 C 0.08321 0.29043 0.57411 0.0
C282 C 0.04907 0.23437 0.56842 0.0
C283 C 0.07779 0.25767 0.5588 0.0
C284 C 0.02493 0.24505 0.59184 0.0
C285 C 0.03026 0.27771 0.60698 0.0
U286 U 0.11463 0.38419 0.61852 0.0
O287 O 0.10211 0.43352 0.64294 0.0
O288 O 0.14016 0.39657 0.66707 0.0
C289 C 0.12264 0.4258 0.66958 0.0
C290 C 0.06782 0.33056 0.62005 0.0
C291 C 0.10993 0.43067 0.70451 0.0
C292 C 0.0649 0.44305 0.74468 0.0
C293 C 0.07489 0.43535 0.71152 0.0
C294 C 0.12452 0.44045 0.76408 0.0
C295 C 0.08984 0.44598 0.77093 0.0
C296 C 0.13447 0.43294 0.73114 0.0
C297 C 0.19041 0.41552 0.56036 0.0
C298 C 0.23637 0.45506 0.58083 0.0
C299 C 0.24453 0.42371 0.52924 0.0
C300 C 0.21098 0.40852 0.53241 0.0
C301 C 0.25763 0.44606 0.55402 0.0
C302 C 0.20278 0.43966 0.5841 0.0
C303 C 0.15877 0.39308 0.56733 0.0
O304 O 0.09727 0.3286 0.63699 0.0
O305 O 0.06219 0.36341 0.60562 0.0
O306 O 0.12977 0.41026 0.56707 0.0
O307 O 0.16143 0.36835 0.59367 0.0
H308 H 0.10635 0.30732 0.56779 0.0
H309 H 0.09682 0.2496 0.54098 0.0
H310 H 1.00281 0.22721 0.59969 0.0
H311 H 1.01213 0.28464 0.62625 0.0
H312 H 0.03797 0.44731 0.74974 0.0
H313 H 0.05545 0.43374 0.6914 0.0
H314 H 0.14397 0.44271 0.78412 0.0
H315 H 0.16161 0.42963 0.72622 0.0
H316 H 0.24649 0.47205 0.60028 0.0
H317 H 0.26093 0.4164 0.50866 0.0
H318 H 0.20183 0.38961 0.51421 0.0
H319 H 0.18724 0.4449 0.60612 0.0
Co320 Co 0.99974 0.02126 0.51744 0.0
C321 C 1.02356 0.95169 0.51332 0.0
Co322 Co 0.05363 0.01519 0.53242 0.0
C323 C 0.93401 0.04855 0.49366 0.0
C324 C 0.93057 0.99698 0.52401 0.0
N325 N 0.95339 0.02233 0.50903 0.0
N326 N 0.90009 0.04062 0.49941 0.0
C327 C 0.89784 1.00838 0.51851 0.0
H328 H 0.94445 0.07342 0.47981 0.0
H329 H 0.9374 0.97239 0.53933 0.0
C330 C 0.03001 0.08488 0.53642 0.0
N331 N 0.09963 0.01376 0.54236 0.0
C332 C 0.11798 0.98644 0.55736 0.0
C333 C 0.1232 0.0405 0.5319 0.0
N334 N 0.1521 0.99516 0.5559 0.0
C335 C 0.15551 0.02909 0.5402 0.0
C336 C 0.04317 0.03662 0.45985 0.0
O337 O 1.00138 0.07128 0.52634 0.0
O338 O 0.05559 0.06485 0.54063 0.0
O339 O 0.0653 0.02864 0.48356 0.0
O340 O 1.01125 0.03534 0.46844 0.0
O341 O 0.05184 0.96517 0.52424 0.0
H342 H 0.11738 0.06601 0.51758 0.0
H343 H 0.10686 0.96009 0.56715 0.0
O344 O 0.99789 0.97158 0.50845 0.0
O345 O 0.98833 1.0074 0.56617 0.0
O346 O 0.04212 1.00186 0.58133 0.0
C347 C 1.01031 1.00009 0.58999 0.0
H348 H 0.87406 0.99421 0.52768 0.0
H349 H 0.17984 0.04371 0.5337 0.0
Co350 Co 0.51625 1.00719 1.00433 0.0
C351 C 0.51008 0.94999 0.06041 0.0
Co352 Co 0.53602 0.02052 0.05498 0.0
C353 C 0.49039 1.00128 0.93204 0.0
C354 C 0.5106 0.95353 0.95868 0.0
N355 N 0.50256 0.98805 0.96331 0.0
N356 N 0.49092 0.97595 0.90889 0.0
C357 C 0.50346 0.94611 0.92566 0.0
H358 H 0.48268 0.02893 0.92599 0.0
H359 H 0.52301 0.93513 0.97751 0.0
C360 C 0.5421 0.07844 1.00012 0.0
N361 N 0.55328 0.03671 0.09553 0.0
C362 C 0.53893 0.03597 0.12726 0.0
C363 C 0.58417 0.05481 0.09816 0.0
N364 N 0.55966 0.05348 0.14909 0.0
C365 C 0.58807 0.06528 0.131 0.0
C366 C 0.58822 0.99382 1.01428 0.0
O367 O 0.52902 0.05507 0.98075 0.0
O368 O 0.54592 0.06845 0.03222 0.0
O369 O 0.58294 1.00594 0.04347 0.0
O370 O 0.5625 0.99157 0.99402 0.0
O371 O 0.52615 0.97277 0.07809 0.0
H372 H 0.60255 0.0606 0.07737 0.0
H373 H 0.51354 0.02395 0.13394 0.0
O374 O 0.5035 0.95985 0.02884 0.0
O375 O 0.46944 0.02353 1.0145 0.0
O376 O 0.48888 0.035 0.066 0.0
C377 C 0.46368 0.03459 0.04435 0.0
H378 H 0.50777 0.92094 0.91437 0.0
H379 H 0.6098 0.08082 0.14084 0.0
Co380 Co 0.55248 0.52874 0.52229 0.0
C381 C 0.50091 0.53556 0.46944 0.0
Co382 Co 0.50021 0.5116 0.54002 0.0
C383 C 0.6268 0.53725 0.51882 0.0
C384 C 0.60125 0.57047 0.47913 0.0
N385 N 0.59529 0.54474 0.50577 0.0
N386 N 0.65191 0.55702 0.50093 0.0
C387 C 0.6361 0.5779 0.476 0.0
H388 H 0.63136 0.51831 0.54122 0.0
H389 H 0.58152 0.58407 0.46369 0.0
C390 C 0.55171 0.50455 0.59274 0.0
N391 N 0.45723 0.4981 0.5576 0.0
C392 C 0.42845 0.48548 0.542 0.0
C393 C 0.44728 0.50342 0.59006 0.0
N394 N 0.40123 0.48307 0.56366 0.0
C395 C 0.41285 0.494 0.59388 0.0
C396 C 0.53641 0.45629 0.51645 0.0
O397 O 0.57152 0.51854 0.56855 0.0
O398 O 0.51998 0.4986 0.58564 0.0
O399 O 0.507 0.46377 0.52772 0.0
O400 O 0.56041 0.48098 0.51259 0.0
O401 O 0.48059 0.52438 0.49428 0.0
H402 H 0.46366 0.51482 0.60942 0.0
H403 H 0.42714 0.47932 0.5152 0.0
O404 O 0.53312 0.53866 0.47595 0.0
O405 O 0.54493 0.5764 0.53195 0.0
O406 O 0.4935 0.55947 0.55209 0.0
C407 C 0.51698 0.58412 0.54562 0.0
H408 H 0.64893 0.59778 0.45752 0.0
H409 H 0.39725 0.49581 0.61669 0.0
Co410 Co 0.03318 0.51439 1.00004 0.0
C411 C 0.96079 0.49872 1.02004 0.0
Co412 Co 1.01843 0.52466 0.05286 0.0
C413 C 0.0603 0.49027 0.93434 0.0
C414 C 1.01051 0.51309 0.93128 0.0
N415 N 0.03674 0.5053 0.95364 0.0
N416 N 0.04922 0.48892 0.90121 0.0
C417 C 1.01813 0.5033 0.8993 0.0
H418 H 0.08466 0.48037 0.94422 0.0
H419 H 0.98653 0.52447 0.93778 0.0
C420 C 0.09098 0.53982 0.03326 0.0
N421 N 1.01382 0.53791 0.09793 0.0
C422 C 0.99436 0.52596 0.12599 0.0
C423 C 0.03246 0.56704 0.10804 0.0
N424 N 1.00117 0.54639 0.15278 0.0
C425 C 0.02509 0.57199 0.14147 0.0
C426 C 0.04233 0.45309 0.04818 0.0
O427 O 0.08248 0.52946 1.00362 0.0
O428 O 0.06724 0.53996 0.05569 0.0
O429 O 0.03114 0.47469 0.06931 0.0
O430 O 0.04436 0.46449 1.016 0.0
O431 O 0.96952 0.50879 0.04969 0.0
H432 H 0.05009 0.58452 0.09198 0.0
H433 H 0.97537 0.50346 0.12663 0.0
O434 O 0.98422 0.49905 0.99719 0.0
O435 O 1.02238 0.56489 0.98439 0.0
O436 O 1.00561 0.57426 0.03583 0.0
C437 C 1.00955 0.58646 1.00417 0.0
H438 H 1.00202 0.50609 0.87633 0.0
H439 H 0.03554 0.59358 0.15617 0.0
C440 C 0.05734 0.04127 0.35996 0.0
C441 C 0.08232 0.07089 0.35446 0.0
C442 C 0.07796 0.08046 0.41693 0.0
C443 C 0.05529 0.04901 0.42307 0.0
N444 N 0.02704 0.9966 0.40065 0.0
N445 N 0.1206 0.11466 0.37962 0.0
C446 C 0.04587 0.02874 0.39454 0.0
C447 C 0.09362 0.08941 0.38351 0.0
N448 N 0.04371 0.02569 0.33191 0.0
N449 N 0.08372 0.10274 0.44288 0.0
H450 H 0.13296 0.12188 0.35598 0.0
H451 H 0.13285 0.12609 0.40032 0.0
H452 H 0.07302 0.09734 0.46754 0.0
H453 H 0.09643 0.12825 0.43914 0.0
H454 H 1.02292 1.0067 0.33341 0.0
H455 H 0.05132 0.03401 0.30653 0.0
H456 H 1.02275 0.97819 0.3821 0.0
H457 H 1.01782 0.98691 0.42516 0.0
C458 C 0.44852 0.94329 0.83133 0.0
C459 C 0.47009 0.96056 0.80465 0.0
C460 C 0.50304 0.99335 0.84717 0.0
C461 C 0.4803 0.97745 0.87336 0.0
N462 N 0.42838 0.94296 0.89049 0.0
N463 N 0.51493 1.00525 0.78559 0.0
C464 C 0.45192 0.95436 0.86523 0.0
C465 C 0.49641 0.98678 0.81206 0.0
N466 N 0.42553 0.91556 0.82447 0.0
N467 N 0.53195 0.01291 0.85629 0.0
H468 H 0.51162 0.99987 0.75975 0.0
H469 H 0.53204 0.02725 0.78892 0.0
H470 H 0.53699 0.01854 0.88179 0.0
H471 H 0.55176 0.02184 0.8391 0.0
H472 H 0.41227 0.89899 0.84367 0.0
H473 H 0.42144 0.90714 0.79974 0.0
H474 H 0.40535 0.92842 0.88599 0.0
H475 H 0.43055 0.95109 0.91557 0.0
C476 C 0.6024 0.45565 0.66787 0.0
C477 C 0.59015 0.4721 0.69697 0.0
C478 C 0.55397 0.51143 0.65764 0.0
C479 C 0.56553 0.4941 0.62865 0.0
N480 N 0.59652 0.44604 0.60676 0.0
N481 N 0.55649 0.51725 0.72006 0.0
C482 C 0.58887 0.46546 0.63394 0.0
C483 C 0.5664 0.50041 0.69194 0.0
N484 N 0.62774 0.4311 0.67265 0.0
N485 N 0.53075 0.5382 0.65224 0.0
H486 H 0.56494 0.5096 0.7452 0.0
H487 H 0.54099 0.53952 0.71896 0.0
H488 H 0.52256 0.54806 0.6276 0.0
H489 H 0.51882 0.55052 0.67174 0.0
H490 H 0.64101 0.42122 0.65249 0.0
H491 H 0.63752 0.4224 0.69702 0.0
H492 H 0.60974 0.42207 0.60932 0.0
H493 H 0.5873 0.45218 0.58165 0.0
C494 C 0.99626 0.53541 0.24824 0.0
C495 C 0.97811 0.56698 0.25335 0.0
C496 C 0.96402 0.57529 0.19154 0.0
C497 C 0.98493 0.54601 0.18598 0.0
N498 N 1.01508 0.49367 0.2076 0.0
N499 N 0.93865 0.61258 0.23225 0.0
C500 C 0.99863 0.52419 0.21415 0.0
C501 C 0.95969 0.58529 0.22572 0.0
N502 N 1.0124 0.51741 0.27577 0.0
N503 N 0.95062 0.59495 0.1634 0.0
H504 H 0.93552 0.62102 0.25696 0.0
H505 H 0.92255 0.62544 0.21386 0.0
H506 H 0.95244 0.58678 0.13839 0.0
H507 H 0.93866 0.61945 0.16436 0.0
H508 H 0.02838 0.49586 0.27386 0.0
H509 H 1.0102 0.5246 0.30107 0.0
H510 H 0.02478 0.47512 0.2266 0.0
H511 H 1.01712 0.48572 0.18256 0.0
C512 C 0.38526 0.09461 0.05814 0.0
C513 C 0.36247 0.0703 0.07901 0.0
C514 C 0.40521 0.02217 0.07584 0.0
C515 C 0.42777 0.0463 0.05456 0.0
N516 N 0.43626 0.10393 1.02093 0.0
N517 N 0.34866 1.00908 0.10303 0.0
C518 C 0.41675 0.08203 0.04437 0.0
C519 C 0.37204 0.03358 0.0866 0.0
N520 N 0.3774 0.13034 0.05248 0.0
N521 N 0.41563 0.988 0.08585 0.0
H522 H 0.32455 0.01636 0.11124 0.0
H523 H 0.35183 0.98118 0.10638 0.0
H524 H 0.4376 0.97771 0.07566 0.0
H525 H 0.40343 0.97032 0.10491 0.0
H526 H 0.3942 0.15067 0.041 0.0
H527 H 0.35469 0.14033 0.06146 0.0
H528 H 0.42831 0.12857 1.00906 0.0
H529 H 0.45962 0.09616 1.01132 0.0
C530 C 0.23843 0.97059 0.58834 0.0
C531 C 0.246 0.94233 0.56741 0.0
C532 C 0.19006 0.94907 0.5386 0.0
C533 C 0.18047 0.97239 0.56347 0.0
N534 N 0.19412 1.00386 0.61362 0.0
N535 N 0.239 0.93266 0.50704 0.0
C536 C 0.20423 0.98236 0.58907 0.0
C537 C 0.22459 0.9385 0.53796 0.0
N538 N 0.2647 0.99078 0.60193 0.0
N539 N 0.16682 0.93831 0.5145 0.0
H540 H 0.26579 0.93367 0.50374 0.0
H541 H 0.22497 0.93276 0.48395 0.0
H542 H 0.1415 0.94666 0.51306 0.0
H543 H 0.17223 0.91865 0.49787 0.0
H544 H 0.2608 0.01377 0.61486 0.0
H545 H 0.29048 0.98762 0.59556 0.0
H546 H 0.20963 1.00966 0.63472 0.0
H547 H 0.16903 0.01298 0.61435 0.0
C548 C 0.87296 0.5025 0.97155 0.0
C549 C 0.85742 0.46752 0.98179 0.0
C550 C 0.90609 0.4565 0.02321 0.0
C551 C 0.92351 0.48959 1.00993 0.0
N552 N 0.92358 0.54405 0.97064 0.0
N553 N 0.86002 0.41025 1.01643 0.0
C554 C 0.90683 0.51252 0.98389 0.0
C555 C 0.87407 0.44446 1.00772 0.0
N556 N 0.85464 0.52684 0.95092 0.0
N557 N 0.92026 0.43644 0.05066 0.0
H558 H 0.83669 0.40079 1.00613 0.0
H559 H 0.87229 0.39037 0.03213 0.0
H560 H 0.944 0.44368 0.06159 0.0
H561 H 0.90755 0.41418 0.06427 0.0
H562 H 0.86247 0.55407 0.94535 0.0
H563 H 0.82986 0.52068 0.94174 0.0
H564 H 0.9157 0.55946 0.94838 0.0
H565 H 0.94646 0.55413 0.98126 0.0
C566 C 0.74018 0.59796 0.50954 0.0
C567 C 0.75989 0.56884 0.5006 0.0
C568 C 0.70809 0.52872 0.50005 0.0
C569 C 0.68829 0.55816 0.50761 0.0
N570 N 0.68509 0.61635 0.52987 0.0
N571 N 0.76508 0.50453 0.49795 0.0
C572 C 0.70443 0.59128 0.51613 0.0
C573 C 0.74457 0.53337 0.49984 0.0
N574 N 0.75497 0.63231 0.50927 0.0
N575 N 0.69203 0.49751 0.49038 0.0
H576 H 0.79203 0.50757 0.49771 0.0
H577 H 0.75562 0.47757 0.5 0.0
H578 H 0.66523 0.49336 0.48988 0.0
H579 H 0.70515 0.47671 0.48061 0.0
H580 H 0.74089 0.6553 0.51151 0.0
H581 H 0.78125 0.63823 0.50488 0.0
H582 H 0.69562 0.64005 0.53916 0.0
H583 H 0.65875 0.61147 0.53498 0.0
C584 C 0.09568 0.37782 0.0974 0.0
C585 C 0.08222 0.3456 0.0836 0.0
C586 C 0.04013 0.38319 0.04917 0.0
C587 C 0.05536 0.41576 0.06108 0.0
N588 N 0.10195 0.4439 0.09217 0.0
N589 N 0.04398 0.31827 0.04313 0.0
C590 C 0.08418 0.41291 0.08417 0.0
C591 C 0.05506 0.34856 0.05857 0.0
N592 N 0.11919 0.3749 0.12388 0.0
N593 N 1.01049 0.38517 0.02985 0.0
H594 H 0.0535 0.29265 0.05004 0.0
H595 H 0.0272 0.31882 1.022 0.0
H596 H 0.99886 0.40966 0.02275 0.0
H597 H 0.99582 0.36249 0.02323 0.0
H598 H 0.12701 0.39647 0.13806 0.0
H599 H 0.12886 0.35013 0.13368 0.0
H600 H 0.12564 0.44393 0.10507 0.0
H601 H 0.09468 0.46993 0.08329 0.0
C602 C 0.59122 0.17022 0.9994 0.0
C603 C 0.57744 0.19207 0.97101 0.0
C604 C 0.53486 0.14043 0.96392 0.0
C605 C 0.55465 0.11683 0.98683 0.0
N606 N 0.60813 0.11028 1.01909 0.0
N607 N 0.52095 0.20291 0.94711 0.0
C608 C 0.58465 0.13209 1.00238 0.0
C609 C 0.54505 0.17864 0.95805 0.0
N610 N 0.60622 0.18613 0.02654 0.0
N611 N 0.50587 0.127 0.94833 0.0
H612 H 0.52354 0.22997 0.95276 0.0
H613 H 0.49606 0.19555 0.93919 0.0
H614 H 0.49541 0.10073 0.95412 0.0
H615 H 0.49329 0.14146 0.928 0.0
H616 H 0.61414 0.17105 0.04908 0.0
H617 H 0.60615 0.21419 0.02814 0.0
H618 H 0.6311 0.12081 0.02934 0.0
H619 H 0.60681 0.0821 1.01846 0.0
C620 C 0.99502 0.85178 0.52734 0.0
C621 C 1.00374 0.83996 0.49484 0.0
C622 C 0.03263 0.89943 0.47801 0.0
C623 C 1.01938 0.91261 0.50829 0.0
N624 N 0.98548 0.90267 0.56069 0.0
N625 N 0.02875 0.85261 0.43791 0.0
C626 C 1.0 0.88912 0.53276 0.0
C627 C 1.02241 0.86366 0.46992 0.0
N628 N 0.98248 0.82706 0.55318 0.0
N629 N 0.05471 0.9212 0.45693 0.0
H630 H 1.02208 0.82649 0.43122 0.0
H631 H 0.03857 0.86992 0.41722 0.0
H632 H 0.06191 0.94788 0.4616 0.0
H633 H 0.06799 0.91205 0.43638 0.0
H634 H 0.97886 0.83326 0.57856 0.0
H635 H 0.97887 0.79938 0.55008 0.0
H636 H 0.96772 0.88789 0.57713 0.0
H637 H 0.98934 0.92963 0.56621 0.0
C638 C 0.48499 0.68001 0.5409 0.0
C639 C 0.50514 0.69431 0.56767 0.0
C640 C 0.5374 0.63905 0.57395 0.0
C641 C 0.5123 0.62182 0.55336 0.0
N642 N 0.46303 0.6266 0.51461 0.0
N643 N 0.56566 0.69685 0.58239 0.0
C644 C 0.48622 0.64243 0.53605 0.0
C645 C 0.53608 0.67675 0.57666 0.0
N646 N 0.47029 0.70325 0.51628 0.0
N647 N 0.56193 0.61953 0.59185 0.0
H648 H 0.56651 0.72524 0.57872 0.0
H649 H 0.58969 0.68543 0.58602 0.0
H650 H 0.5635 0.59148 0.59147 0.0
H651 H 0.57863 0.63101 0.60954 0.0
H652 H 0.45803 0.6948 0.49416 0.0
H653 H 0.47523 0.73134 0.51553 0.0
H654 H 0.44139 0.63966 0.50453 0.0
H655 H 0.46428 0.59985 0.50836 0.0
C656 C 0.96659 1.00329 0.6798 0.0
C657 C 0.97385 0.9686 0.6971 0.0
C658 C 1.01099 0.95877 0.64703 0.0
C659 C 0.9986 0.98996 0.6273 0.0
N660 N 0.96389 0.04284 0.62641 0.0
N661 N 0.02527 0.93435 0.70477 0.0
C662 C 0.97593 0.01225 0.64404 0.0
C663 C 1.00223 0.95155 0.68296 0.0
N664 N 0.95741 0.03041 0.69909 0.0
N665 N 0.03075 0.93516 0.6317 0.0
H666 H 0.02495 0.93675 0.7314 0.0
H667 H 0.04789 0.9239 0.69614 0.0
H668 H 0.0379 0.93872 0.60568 0.0
H669 H 0.03732 0.91027 0.64435 0.0
H670 H 0.95444 0.05715 0.68886 0.0
H671 H 0.95877 0.02759 0.72611 0.0
H672 H 0.94361 0.0569 0.63556 0.0
H673 H 0.97307 0.05344 0.60217 0.0
C674 C 0.53799 0.10625 0.22257 0.0
C675 C 0.55655 0.08733 0.24983 0.0
C676 C 0.5717 0.04171 0.21119 0.0
C677 C 0.55332 0.0607 0.18415 0.0
N678 N 0.51325 0.10595 0.16484 0.0
N679 N 0.58524 0.03372 0.27262 0.0
C680 C 0.53424 0.09111 0.19031 0.0
C681 C 0.57153 0.05386 0.24493 0.0
N682 N 0.52611 0.13988 0.22669 0.0
N683 N 0.59032 0.01285 0.20393 0.0
H684 H 0.58532 0.04195 0.29769 0.0
H685 H 0.59407 1.00769 0.27144 0.0
H686 H 0.58921 1.00242 0.17977 0.0
H687 H 0.6078 1.00025 0.22109 0.0
H688 H 0.51595 0.15682 0.20657 0.0
H689 H 0.52871 0.15237 0.24968 0.0
H690 H 0.49577 0.12574 0.16873 0.0
H691 H 0.51124 0.09631 0.14041 0.0
C692 C 0.47362 0.59454 0.38724 0.0
C693 C 0.46145 0.56776 0.36529 0.0
C694 C 0.47349 0.51974 0.41225 0.0
C695 C 0.48732 0.54648 0.43347 0.0
N696 N 0.50505 0.60909 0.43916 0.0
N697 N 0.45495 0.50465 0.35478 0.0
C698 C 0.48882 0.58377 0.42025 0.0
C699 C 0.46273 0.53027 0.37731 0.0
N700 N 0.46942 0.63049 0.37706 0.0
N701 N 0.47057 0.48416 0.42552 0.0
H702 H 0.44682 0.51132 0.32935 0.0
H703 H 0.45897 0.47706 0.36023 0.0
H704 H 0.47978 0.47518 0.45005 0.0
H705 H 0.45727 0.46383 0.41322 0.0
H706 H 0.47387 0.65126 0.39319 0.0
H707 H 0.45873 0.63952 0.3532 0.0
H708 H 0.51106 0.63581 0.42941 0.0
H709 H 0.51465 0.60295 0.46411 0.0
C710 C 0.06559 0.42968 0.83048 0.0
C711 C 0.08037 0.45633 0.80549 0.0
C712 C 0.0829 0.5013 0.84821 0.0
C713 C 0.06555 0.47571 0.87213 0.0
N714 N 0.0373 0.41718 0.88639 0.0
N715 N 0.09914 0.51856 0.78841 0.0
C716 C 0.05633 0.44017 0.86344 0.0
C717 C 0.0882 0.49245 0.81382 0.0
N718 N 0.0609 0.3944 0.82278 0.0
N719 N 0.09371 0.5343 0.85865 0.0
H720 H 0.10293 0.51312 0.76279 0.0
H721 H 0.10195 0.54614 0.79188 0.0
H722 H 0.08945 0.5413 0.88373 0.0
H723 H 0.1091 0.55349 0.8437 0.0
H724 H 0.0533 0.37299 0.84087 0.0
H725 H 0.06666 0.38597 0.79858 0.0
H726 H 0.02595 0.39241 0.88046 0.0
H727 H 0.03149 0.42392 0.91122 0.0
C728 C 0.67648 0.99949 0.96656 0.0
C729 C 0.6916 0.96601 0.97865 0.0
C730 C 0.64218 0.95546 1.02006 0.0
C731 C 0.62419 0.98462 1.00275 0.0
N732 N 0.62504 0.03414 0.95748 0.0
N733 N 0.69837 0.93264 0.03455 0.0
C734 C 0.64148 1.00625 0.97521 0.0
C735 C 0.67707 0.94896 1.01032 0.0
N736 N 0.69738 0.02793 0.95295 0.0
N737 N 0.62598 0.93337 0.04576 0.0
H738 H 0.7252 0.93618 0.03253 0.0
H739 H 0.69007 0.92206 0.05912 0.0
H740 H 0.6012 0.93773 0.05442 0.0
H741 H 0.63626 0.90927 0.05647 0.0
H742 H 0.68867 0.05396 0.94647 0.0
H743 H 0.72427 0.02702 0.95393 0.0
H744 H 0.63506 0.04796 0.93478 0.0
H745 H 0.60062 0.04194 0.96412 0.0
C746 C 0.83637 0.11428 0.48528 0.0
C747 C 0.80955 0.0945 0.46915 0.0
C748 C 0.84561 0.04267 0.46768 0.0
C749 C 0.87116 0.06065 0.4869 0.0
N750 N 0.88874 0.11076 0.51983 0.0
N751 N 0.78507 0.03694 0.45331 0.0
C752 C 0.86613 0.09585 0.49727 0.0
C753 C 0.81304 0.05771 0.46297 0.0
N754 N 0.83361 0.15052 0.48861 0.0
N755 N 0.85302 1.0117 0.45302 0.0
H756 H 0.76037 0.04692 0.45014 0.0
H757 H 0.7857 1.00894 0.45194 0.0
H758 H 0.87755 1.0011 0.45444 0.0
H759 H 0.83613 0.99901 0.43634 0.0
H760 H 0.85392 0.16714 0.49688 0.0
H761 H 0.81165 0.16448 0.48085 0.0
H762 H 0.88458 0.13488 0.53082 0.0
H763 H 0.9102 0.09742 0.52996 0.0
C764 C 0.1895 0.53952 0.05452 0.0
C765 C 0.19361 0.57013 0.07447 0.0
C766 C 0.13342 0.58498 0.05885 0.0
C767 C 0.12771 0.55174 0.04324 0.0
N768 N 0.15028 0.49473 0.03058 0.0
N769 N 0.16601 0.61811 0.10054 0.0
C770 C 0.15585 0.52839 0.04205 0.0
C771 C 0.16461 0.59186 0.07784 0.0
N772 N 0.21798 0.52153 0.04657 0.0
N773 N 0.10938 0.61085 0.05441 0.0
H774 H 0.18767 0.62347 0.11572 0.0
H775 H 0.14452 0.63207 0.10688 0.0
H776 H 0.08756 0.60758 0.03888 0.0
H777 H 0.11311 0.6369 0.06245 0.0
H778 H 0.21741 0.50149 0.0293 0.0
H779 H 0.24285 0.52916 0.05455 0.0
H780 H 0.16852 0.4748 0.03296 0.0
H781 H 0.12644 0.48553 1.02125 0.0
C782 C 0.31704 0.43082 0.57332 0.0
C783 C 0.29499 0.45537 0.55471 0.0
C784 C 0.34416 0.49751 0.53944 0.0
C785 C 0.36617 0.47223 0.55675 0.0
N786 N 0.37585 0.41304 0.58474 0.0
N787 N 0.28699 0.50938 0.5162 0.0
C788 C 0.3532 0.43823 0.57197 0.0
C789 C 0.3084 0.48792 0.53643 0.0
N790 N 0.30332 0.40109 0.5931 0.0
N791 N 0.35733 0.53124 0.52747 0.0
H792 H 0.26042 0.50362 0.51444 0.0
H793 H 0.29572 0.53153 0.49949 0.0
H794 H 0.38356 0.53875 0.52909 0.0
H795 H 0.3422 0.55248 0.51791 0.0
H796 H 0.31778 0.38469 0.61045 0.0
H797 H 0.27692 0.39406 0.59411 0.0
H798 H 0.3685 0.38631 0.59341 0.0
H799 H 0.4026 0.41813 0.58385 0.0
C800 C 0.99084 0.69044 0.99804 0.0
C801 C 0.96759 0.69388 0.96939 0.0
C802 C 0.97864 0.63046 0.95875 0.0
C803 C 0.99774 0.62462 0.99056 0.0
N804 N 1.02065 0.65157 0.0412 0.0
N805 N 0.93302 0.66301 0.92823 0.0
C806 C 1.00311 0.65533 1.01051 0.0
C807 C 0.95971 0.66268 0.95153 0.0
N808 N 1.0027 0.72109 1.01246 0.0
N809 N 0.97924 0.60638 0.93414 0.0
H810 H 0.91787 0.68542 0.92267 0.0
H811 H 0.92346 0.63969 0.91747 0.0
H812 H 0.99469 0.58432 0.93562 0.0
H813 H 0.96821 0.61131 0.90964 0.0
H814 H 1.02251 0.72135 0.03077 0.0
H815 H 0.99509 0.74704 1.00368 0.0
H816 H 1.02081 0.67078 0.05929 0.0
H817 H 0.03425 0.62876 0.04922 0.0
C818 C 0.46159 0.87112 0.11506 0.0
C819 C 0.47061 0.84068 0.09755 0.0
C820 C 0.50943 0.88132 0.05918 0.0
C821 C 0.49905 0.91205 0.07557 0.0
N822 N 0.47169 0.93479 0.12459 0.0
N823 N 0.50186 0.8166 0.05195 0.0
C824 C 0.47718 0.90648 0.10522 0.0
C825 C 0.49434 0.84579 0.06941 0.0
N826 N 0.43617 0.86671 0.13965 0.0
N827 N 0.53566 0.88585 0.03549 0.0
H828 H 0.49347 0.78999 0.0602 0.0
H829 H 0.51503 0.81862 0.02849 0.0
H830 H 0.5487 0.91088 0.02915 0.0
H831 H 0.54697 0.86466 0.02451 0.0
H832 H 0.42474 0.88818 0.15007 0.0
H833 H 0.42436 0.84151 0.14795 0.0
H834 H 0.46005 0.93167 0.14888 0.0
H835 H 0.48084 0.96139 0.11787 0.0
C836 C 0.05922 0.16833 0.58099 0.0
C837 C 0.04633 0.19666 0.55806 0.0
C838 C 0.0251 0.15196 0.51889 0.0
C839 C 0.03411 0.12345 0.54405 0.0
N840 N 0.05335 0.10485 0.60226 0.0
N841 N 1.01399 0.21602 0.50687 0.0
C842 C 0.04961 0.13171 0.57593 0.0
C843 C 0.02837 0.18865 0.52745 0.0
N844 N 0.08091 0.17639 0.60753 0.0
N845 N 1.01501 0.14425 0.48636 0.0
H846 H 1.01709 0.2433 0.51171 0.0
H847 H 0.99721 0.21145 0.48642 0.0
H848 H 1.01293 0.11792 0.4787 0.0
H849 H 1.01168 0.16415 0.46593 0.0
H850 H 0.09424 0.15674 0.62255 0.0
H851 H 0.08816 0.20297 0.6125 0.0
H852 H 0.06134 0.10996 0.62716 0.0
H853 H 0.0448 0.07789 0.60053 0.0
C854 C 0.54252 0.35331 0.52193 0.0
C855 C 0.56295 0.34998 0.49227 0.0
C856 C 0.5591 0.41497 0.47526 0.0
C857 C 0.54314 0.41924 0.50744 0.0
N858 N 0.52547 0.39293 0.56448 0.0
N859 N 0.59664 0.37893 0.44422 0.0
C860 C 0.53612 0.38852 0.53161 0.0
C861 C 0.57287 0.38115 0.4698 0.0
N862 N 0.52899 0.32286 0.54065 0.0
N863 N 0.56016 0.44284 0.44945 0.0
H864 H 0.60797 0.35479 0.4396 0.0
H865 H 0.60755 0.40175 0.42976 0.0
H866 H 0.54894 0.46761 0.4518 0.0
H867 H 0.5687 0.4399 0.42444 0.0
H868 H 0.51109 0.32376 0.56049 0.0
H869 H 0.53313 0.29661 0.53417 0.0
H870 H 0.52355 0.37165 0.58407 0.0
H871 H 0.52188 0.41826 0.57336 0.0
loop_
_geom_bond_atom_site_label_1
_geom_bond_atom_site_label_2
_geom_bond_distance
_geom_bond_site_symmetry_2
_ccdc_geom_bond_type
C0 C1 1.264 . S
C0 C5 1.479 . S
C0 C10 1.465 . S
C1 C0 1.264 . S
C1 C3 1.339 . S
C1 H28 0.931 . S
C2 C3 1.395 . S
C2 C4 1.320 . S
C3 C1 1.339 . S
C3 C2 1.395 . S
C3 H29 0.929 . S
C4 C2 1.320 . S
C4 C5 1.405 . S
C4 H30 0.930 . S
C5 C0 1.479 . S
C5 C4 1.405 . S
C5 H31 0.931 . S
U6 O7 2.454 . S
U6 O8 2.458 . S
U6 C9 2.984 . S
U6 C10 2.847 . S
U6 C23 2.882 . S
U6 O24 2.441 . S
U6 O25 2.420 . S
U6 O26 2.455 . S
U6 O27 2.449 . S
O7 U6 2.454 . S
O7 C9 1.353 . S
O8 U6 2.458 . S
O8 C9 1.286 . S
C9 U6 2.984 . S
C9 O7 1.353 . S
C9 O8 1.286 . S
C9 C11 1.363 . S
C10 C0 1.465 . S
C10 U6 2.847 . S
C10 O24 1.249 . S
C10 O25 1.202 . S
C11 C9 1.363 . S
C11 C13 1.408 . S
C11 C16 1.342 . S
C12 C13 1.310 . S
C12 C15 1.461 . S
C12 H32 0.932 . S
C13 C11 1.408 . S
C13 C12 1.310 . S
C13 H33 0.930 . S
C14 C15 1.474 . S
C14 C16 1.285 . S
C14 H34 0.929 . S
C15 C12 1.461 . S
C15 C14 1.474 . S
C16 C11 1.342 . S
C16 C14 1.285 . S
C16 H35 0.930 . S
C17 C20 1.424 . S
C17 C22 1.245 . S
C17 C23 1.428 . S
C18 C21 1.260 . S
C18 C22 1.477 . S
C18 H36 0.932 . S
C19 C20 1.384 . S
C19 C21 1.479 . S
C19 H37 0.929 . S
C20 C17 1.424 . S
C20 C19 1.384 . S
C20 H38 0.928 . S
C21 C18 1.260 . S
C21 C19 1.479 . S
C22 C17 1.245 . S
C22 C18 1.477 . S
C22 H39 0.932 . S
C23 U6 2.882 . S
C23 C17 1.428 . S
C23 O26 1.301 . S
C23 O27 1.282 . S
O24 U6 2.441 . S
O24 C10 1.249 . S
O25 U6 2.420 . S
O25 C10 1.202 . S
O26 U6 2.455 . S
O26 C23 1.301 . S
O27 U6 2.449 . S
O27 C23 1.282 . S
H28 C1 0.931 . S
H29 C3 0.929 . S
H30 C4 0.930 . S
H31 C5 0.931 . S
H32 C12 0.932 . S
H33 C13 0.930 . S
H34 C14 0.929 . S
H35 C16 0.930 . S
H36 C18 0.932 . S
H37 C19 0.929 . S
H38 C20 0.928 . S
H39 C22 0.932 . S
C40 C41 1.264 . S
C40 C45 1.479 . S
C40 C50 1.465 . S
C41 C40 1.264 . S
C41 C43 1.339 . S
C41 H68 0.931 . S
C42 C43 1.395 . S
C42 C44 1.320 . S
C43 C41 1.339 . S
C43 C42 1.395 . S
C43 H69 0.929 . S
C44 C42 1.320 . S
C44 C45 1.405 . S
C44 H70 0.930 . S
C45 C40 1.479 . S
C45 C44 1.405 . S
C45 H71 0.931 . S
U46 O47 2.454 . S
U46 O48 2.458 . S
U46 C49 2.984 . S
U46 C50 2.847 . S
U46 C63 2.882 . S
U46 O64 2.441 . S
U46 O65 2.420 . S
U46 O66 2.455 . S
U46 O67 2.449 . S
O47 U46 2.454 . S
O47 C49 1.353 . S
O48 U46 2.458 . S
O48 C49 1.286 . S
C49 U46 2.984 . S
C49 O47 1.353 . S
C49 O48 1.286 . S
C49 C51 1.363 . S
C50 C40 1.465 . S
C50 U46 2.847 . S
C50 O64 1.249 . S
C50 O65 1.202 . S
C51 C49 1.363 . S
C51 C53 1.408 . S
C51 C56 1.342 . S
C52 C53 1.310 . S
C52 C55 1.461 . S
C52 H72 0.932 . S
C53 C51 1.408 . S
C53 C52 1.310 . S
C53 H73 0.930 . S
C54 C55 1.474 . S
C54 C56 1.285 . S
C54 H74 0.929 . S
C55 C52 1.461 . S
C55 C54 1.474 . S
C56 C51 1.342 . S
C56 C54 1.285 . S
C56 H75 0.930 . S
C57 C60 1.424 . S
C57 C62 1.245 . S
C57 C63 1.428 . S
C58 C61 1.260 . S
C58 C62 1.477 . S
C58 H76 0.932 . S
C59 C60 1.384 . S
C59 C61 1.479 . S
C59 H77 0.929 . S
C60 C57 1.424 . S
C60 C59 1.384 . S
C60 H78 0.928 . S
C61 C58 1.260 . S
C61 C59 1.479 . S
C62 C57 1.245 . S
C62 C58 1.477 . S
C62 H79 0.932 . S
C63 U46 2.882 . S
C63 C57 1.428 . S
C63 O66 1.301 . S
C63 O67 1.282 . S
O64 U46 2.441 . S
O64 C50 1.249 . S
O65 U46 2.420 . S
O65 C50 1.202 . S
O66 U46 2.455 . S
O66 C63 1.301 . S
O67 U46 2.449 . S
O67 C63 1.282 . S
H68 C41 0.931 . S
H69 C43 0.929 . S
H70 C44 0.930 . S
H71 C45 0.931 . S
H72 C52 0.932 . S
H73 C53 0.930 . S
H74 C54 0.929 . S
H75 C56 0.930 . S
H76 C58 0.932 . S
H77 C59 0.929 . S
H78 C60 0.928 . S
H79 C62 0.932 . S
C80 C81 1.264 . S
C80 C85 1.479 . S
C80 C90 1.465 . S
C81 C80 1.264 . S
C81 C83 1.339 . S
C81 H108 0.931 . S
C82 C83 1.395 . S
C82 C84 1.320 . S
C83 C81 1.339 . S
C83 C82 1.395 . S
C83 H109 0.929 . S
C84 C82 1.320 . S
C84 C85 1.405 . S
C84 H110 0.930 . S
C85 C80 1.479 . S
C85 C84 1.405 . S
C85 H111 0.931 . S
U86 O87 2.454 . S
U86 O88 2.458 . S
U86 C89 2.984 . S
U86 C90 2.847 . S
U86 C103 2.882 . S
U86 O104 2.441 . S
U86 O105 2.420 . S
U86 O106 2.455 . S
U86 O107 2.449 . S
O87 U86 2.454 . S
O87 C89 1.353 . S
O88 U86 2.458 . S
O88 C89 1.286 . S
C89 U86 2.984 . S
C89 O87 1.353 . S
C89 O88 1.286 . S
C89 C91 1.363 . S
C90 C80 1.465 . S
C90 U86 2.847 . S
C90 O104 1.249 . S
C90 O105 1.202 . S
C91 C89 1.363 . S
C91 C93 1.408 . S
C91 C96 1.342 . S
C92 C93 1.310 . S
C92 C95 1.461 . S
C92 H112 0.932 . S
C93 C91 1.408 . S
C93 C92 1.310 . S
C93 H113 0.930 . S
C94 C95 1.474 . S
C94 C96 1.285 . S
C94 H114 0.929 . S
C95 C92 1.461 . S
C95 C94 1.474 . S
C96 C91 1.342 . S
C96 C94 1.285 . S
C96 H115 0.930 . S
C97 C100 1.424 . S
C97 C102 1.245 . S
C97 C103 1.428 . S
C98 C101 1.260 . S
C98 C102 1.477 . S
C98 H116 0.932 . S
C99 C100 1.384 . S
C99 C101 1.479 . S
C99 H117 0.929 . S
C100 C97 1.424 . S
C100 C99 1.384 . S
C100 H118 0.928 . S
C101 C98 1.260 . S
C101 C99 1.479 . S
C102 C97 1.245 . S
C102 C98 1.477 . S
C102 H119 0.932 . S
C103 U86 2.882 . S
C103 C97 1.428 . S
C103 O106 1.301 . S
C103 O107 1.282 . S
O104 U86 2.441 . S
O104 C90 1.249 . S
O105 U86 2.420 . S
O105 C90 1.202 . S
O106 U86 2.455 . S
O106 C103 1.301 . S
O107 U86 2.449 . S
O107 C103 1.282 . S
H108 C81 0.931 . S
H109 C83 0.929 . S
H110 C84 0.930 . S
H111 C85 0.931 . S
H112 C92 0.932 . S
H113 C93 0.930 . S
H114 C94 0.929 . S
H115 C96 0.930 . S
H116 C98 0.932 . S
H117 C99 0.929 . S
H118 C100 0.928 . S
H119 C102 0.932 . S
C120 C121 1.264 . S
C120 C125 1.479 . S
C120 C130 1.465 . S
C121 C120 1.264 . S
C121 C123 1.339 . S
C121 H148 0.931 . S
C122 C123 1.395 . S
C122 C124 1.320 . S
C123 C121 1.339 . S
C123 C122 1.395 . S
C123 H149 0.929 . S
C124 C122 1.320 . S
C124 C125 1.405 . S
C124 H150 0.930 . S
C125 C120 1.479 . S
C125 C124 1.405 . S
C125 H151 0.931 . S
U126 O127 2.454 . S
U126 O128 2.458 . S
U126 C129 2.984 . S
U126 C130 2.847 . S
U126 C143 2.882 . S
U126 O144 2.441 . S
U126 O145 2.420 . S
U126 O146 2.455 . S
U126 O147 2.449 . S
O127 U126 2.454 . S
O127 C129 1.353 . S
O128 U126 2.458 . S
O128 C129 1.286 . S
C129 U126 2.984 . S
C129 O127 1.353 . S
C129 O128 1.286 . S
C129 C131 1.363 . S
C130 C120 1.465 . S
C130 U126 2.847 . S
C130 O144 1.249 . S
C130 O145 1.202 . S
C131 C129 1.363 . S
C131 C133 1.408 . S
C131 C136 1.342 . S
C132 C133 1.310 . S
C132 C135 1.461 . S
C132 H152 0.932 . S
C133 C131 1.408 . S
C133 C132 1.310 . S
C133 H153 0.930 . S
C134 C135 1.474 . S
C134 C136 1.285 . S
C134 H154 0.929 1_655 S
C135 C132 1.461 . S
C135 C134 1.474 . S
C136 C131 1.342 . S
C136 C134 1.285 . S
C136 H155 0.930 . S
C137 C140 1.424 . S
C137 C142 1.245 . S
C137 C143 1.428 . S
C138 C141 1.260 . S
C138 C142 1.477 . S
C138 H156 0.932 1_655 S
C139 C140 1.384 . S
C139 C141 1.479 . S
C139 H157 0.929 . S
C140 C137 1.424 . S
C140 C139 1.384 . S
C140 H158 0.928 . S
C141 C138 1.260 . S
C141 C139 1.479 . S
C142 C137 1.245 . S
C142 C138 1.477 . S
C142 H159 0.932 . S
C143 U126 2.882 . S
C143 C137 1.428 . S
C143 O146 1.301 . S
C143 O147 1.282 . S
O144 U126 2.441 . S
O144 C130 1.249 . S
O145 U126 2.420 . S
O145 C130 1.202 . S
O146 U126 2.455 . S
O146 C143 1.301 . S
O147 U126 2.449 . S
O147 C143 1.282 . S
H148 C121 0.931 . S
H149 C123 0.929 . S
H150 C124 0.930 . S
H151 C125 0.931 . S
H152 C132 0.932 . S
H153 C133 0.930 . S
H154 C134 0.929 1_455 S
H155 C136 0.930 . S
H156 C138 0.932 1_455 S
H157 C139 0.929 . S
H158 C140 0.928 . S
H159 C142 0.932 . S
C160 C161 1.264 . S
C160 C165 1.479 . S
C160 C170 1.465 . S
C161 C160 1.264 . S
C161 C163 1.339 . S
C161 H188 0.931 . S
C162 C163 1.395 . S
C162 C164 1.320 . S
C163 C161 1.339 . S
C163 C162 1.395 . S
C163 H189 0.929 . S
C164 C162 1.320 . S
C164 C165 1.405 . S
C164 H190 0.930 . S
C165 C160 1.479 . S
C165 C164 1.405 . S
C165 H191 0.931 . S
U166 O167 2.454 . S
U166 O168 2.458 . S
U166 C169 2.984 . S
U166 C170 2.847 . S
U166 C183 2.882 . S
U166 O184 2.441 . S
U166 O185 2.420 . S
U166 O186 2.455 . S
U166 O187 2.449 . S
O167 U166 2.454 . S
O167 C169 1.353 . S
O168 U166 2.458 . S
O168 C169 1.286 . S
C169 U166 2.984 . S
C169 O167 1.353 . S
C169 O168 1.286 . S
C169 C171 1.363 . S
C170 C160 1.465 . S
C170 U166 2.847 . S
C170 O184 1.249 . S
C170 O185 1.202 . S
C171 C169 1.363 . S
C171 C173 1.408 . S
C171 C176 1.342 . S
C172 C173 1.310 . S
C172 C175 1.461 . S
C172 H192 0.932 . S
C173 C171 1.408 . S
C173 C172 1.310 . S
C173 H193 0.930 . S
C174 C175 1.474 . S
C174 C176 1.285 . S
C174 H194 0.929 . S
C175 C172 1.461 . S
C175 C174 1.474 . S
C176 C171 1.342 . S
C176 C174 1.285 . S
C176 H195 0.930 . S
C177 C180 1.424 . S
C177 C182 1.245 . S
C177 C183 1.428 . S
C178 C181 1.260 . S
C178 C182 1.477 . S
C178 H196 0.932 . S
C179 C180 1.384 . S
C179 C181 1.479 . S
C179 H197 0.929 . S
C180 C177 1.424 . S
C180 C179 1.384 . S
C180 H198 0.928 . S
C181 C178 1.260 . S
C181 C179 1.479 . S
C182 C177 1.245 . S
C182 C178 1.477 . S
C182 H199 0.932 . S
C183 U166 2.882 . S
C183 C177 1.428 . S
C183 O186 1.301 . S
C183 O187 1.282 . S
O184 U166 2.441 . S
O184 C170 1.249 . S
O185 U166 2.420 . S
O185 C170 1.202 . S
O186 U166 2.455 . S
O186 C183 1.301 . S
O187 U166 2.449 . S
O187 C183 1.282 . S
H188 C161 0.931 . S
H189 C163 0.929 . S
H190 C164 0.930 . S
H191 C165 0.931 . S
H192 C172 0.932 . S
H193 C173 0.930 . S
H194 C174 0.929 . S
H195 C176 0.930 . S
H196 C178 0.932 . S
H197 C179 0.929 . S
H198 C180 0.928 . S
H199 C182 0.932 . S
C200 C201 1.264 . S
C200 C205 1.479 . S
C200 C210 1.465 . S
C201 C200 1.264 . S
C201 C203 1.339 . S
C201 H228 0.931 . S
C202 C203 1.395 . S
C202 C204 1.320 . S
C203 C201 1.339 . S
C203 C202 1.395 . S
C203 H229 0.929 . S
C204 C202 1.320 . S
C204 C205 1.405 . S
C204 H230 0.930 . S
C205 C200 1.479 . S
C205 C204 1.405 . S
C205 H231 0.931 . S
U206 O207 2.454 . S
U206 O208 2.458 . S
U206 C209 2.984 . S
U206 C210 2.847 . S
U206 C223 2.882 . S
U206 O224 2.441 . S
U206 O225 2.420 . S
U206 O226 2.455 . S
U206 O227 2.449 . S
O207 U206 2.454 . S
O207 C209 1.353 . S
O208 U206 2.458 . S
O208 C209 1.286 . S
C209 U206 2.984 . S
C209 O207 1.353 . S
C209 O208 1.286 . S
C209 C211 1.363 . S
C210 C200 1.465 . S
C210 U206 2.847 . S
C210 O224 1.249 . S
C210 O225 1.202 . S
C211 C209 1.363 . S
C211 C213 1.408 . S
C211 C216 1.342 . S
C212 C213 1.310 . S
C212 C215 1.461 . S
C212 H232 0.932 . S
C213 C211 1.408 . S
C213 C212 1.310 . S
C213 H233 0.930 . S
C214 C215 1.474 . S
C214 C216 1.285 . S
C214 H234 0.929 . S
C215 C212 1.461 . S
C215 C214 1.474 . S
C216 C211 1.342 . S
C216 C214 1.285 . S
C216 H235 0.930 . S
C217 C220 1.424 . S
C217 C222 1.245 . S
C217 C223 1.428 . S
C218 C221 1.260 . S
C218 C222 1.477 . S
C218 H236 0.932 . S
C219 C220 1.384 . S
C219 C221 1.479 . S
C219 H237 0.929 . S
C220 C217 1.424 . S
C220 C219 1.384 . S
C220 H238 0.928 . S
C221 C218 1.260 . S
C221 C219 1.479 . S
C222 C217 1.245 . S
C222 C218 1.477 . S
C222 H239 0.932 . S
C223 U206 2.882 . S
C223 C217 1.428 . S
C223 O226 1.301 . S
C223 O227 1.282 . S
O224 U206 2.441 . S
O224 C210 1.249 . S
O225 U206 2.420 . S
O225 C210 1.202 . S
O226 U206 2.455 . S
O226 C223 1.301 . S
O227 U206 2.449 . S
O227 C223 1.282 . S
H228 C201 0.931 . S
H229 C203 0.929 . S
H230 C204 0.930 . S
H231 C205 0.931 . S
H232 C212 0.932 . S
H233 C213 0.930 . S
H234 C214 0.929 . S
H235 C216 0.930 . S
H236 C218 0.932 . S
H237 C219 0.929 . S
H238 C220 0.928 . S
H239 C222 0.932 . S
C240 C241 1.264 . S
C240 C245 1.479 . S
C240 C250 1.465 . S
C241 C240 1.264 . S
C241 C243 1.339 . S
C241 H268 0.931 . S
C242 C243 1.395 . S
C242 C244 1.320 . S
C243 C241 1.339 . S
C243 C242 1.395 . S
C243 H269 0.929 . S
C244 C242 1.320 . S
C244 C245 1.405 . S
C244 H270 0.930 . S
C245 C240 1.479 . S
C245 C244 1.405 . S
C245 H271 0.931 . S
U246 O247 2.454 . S
U246 O248 2.458 . S
U246 C249 2.984 . S
U246 C250 2.847 . S
U246 C263 2.882 . S
U246 O264 2.441 . S
U246 O265 2.420 . S
U246 O266 2.455 . S
U246 O267 2.449 . S
O247 U246 2.454 . S
O247 C249 1.353 . S
O248 U246 2.458 . S
O248 C249 1.286 . S
C249 U246 2.984 . S
C249 O247 1.353 . S
C249 O248 1.286 . S
C249 C251 1.363 . S
C250 C240 1.465 . S
C250 U246 2.847 . S
C250 O264 1.249 . S
C250 O265 1.202 . S
C251 C249 1.363 . S
C251 C253 1.408 . S
C251 C256 1.342 . S
C252 C253 1.310 . S
C252 C255 1.461 . S
C252 H272 0.932 . S
C253 C251 1.408 . S
C253 C252 1.310 . S
C253 H273 0.930 . S
C254 C255 1.474 . S
C254 C256 1.285 . S
C254 H274 0.929 . S
C255 C252 1.461 . S
C255 C254 1.474 . S
C256 C251 1.342 . S
C256 C254 1.285 . S
C256 H275 0.930 . S
C257 C260 1.424 . S
C257 C262 1.245 . S
C257 C263 1.428 . S
C258 C261 1.260 . S
C258 C262 1.477 . S
C258 H276 0.932 . S
C259 C260 1.384 . S
C259 C261 1.479 . S
C259 H277 0.929 . S
C260 C257 1.424 . S
C260 C259 1.384 . S
C260 H278 0.928 . S
C261 C258 1.260 . S
C261 C259 1.479 . S
C262 C257 1.245 . S
C262 C258 1.477 . S
C262 H279 0.932 . S
C263 U246 2.882 . S
C263 C257 1.428 . S
C263 O266 1.301 . S
C263 O267 1.282 . S
O264 U246 2.441 . S
O264 C250 1.249 . S
O265 U246 2.420 . S
O265 C250 1.202 . S
O266 U246 2.455 . S
O266 C263 1.301 . S
O267 U246 2.449 . S
O267 C263 1.282 . S
H268 C241 0.931 . S
H269 C243 0.929 . S
H270 C244 0.930 . S
H271 C245 0.931 . S
H272 C252 0.932 . S
H273 C253 0.930 . S
H274 C254 0.929 . S
H275 C256 0.930 . S
H276 C258 0.932 . S
H277 C259 0.929 . S
H278 C260 0.928 . S
H279 C262 0.932 . S
C280 C281 1.264 . S
C280 C285 1.479 . S
C280 C290 1.465 . S
C281 C280 1.264 . S
C281 C283 1.339 . S
C281 H308 0.931 . S
C282 C283 1.395 . S
C282 C284 1.320 . S
C283 C281 1.339 . S
C283 C282 1.395 . S
C283 H309 0.929 . S
C284 C282 1.320 . S
C284 C285 1.405 . S
C284 H310 0.930 1_455 S
C285 C280 1.479 . S
C285 C284 1.405 . S
C285 H311 0.931 . S
U286 O287 2.454 . S
U286 O288 2.458 . S
U286 C289 2.984 . S
U286 C290 2.847 . S
U286 C303 2.882 . S
U286 O304 2.441 . S
U286 O305 2.420 . S
U286 O306 2.455 . S
U286 O307 2.449 . S
O287 U286 2.454 . S
O287 C289 1.353 . S
O288 U286 2.458 . S
O288 C289 1.286 . S
C289 U286 2.984 . S
C289 O287 1.353 . S
C289 O288 1.286 . S
C289 C291 1.363 . S
C290 C280 1.465 . S
C290 U286 2.847 . S
C290 O304 1.249 . S
C290 O305 1.202 . S
C291 C289 1.363 . S
C291 C293 1.408 . S
C291 C296 1.342 . S
C292 C293 1.310 . S
C292 C295 1.461 . S
C292 H312 0.907 1_455 S
C293 C291 1.408 . S
C293 C292 1.310 . S
C293 H313 0.930 . S
C294 C295 1.474 . S
C294 C296 1.285 . S
C294 H314 0.929 . S
C295 C292 1.461 . S
C295 C294 1.474 . S
C296 C291 1.342 . S
C296 C294 1.285 . S
C296 H315 0.930 . S
C297 C300 1.424 . S
C297 C302 1.245 . S
C297 C303 1.428 . S
C298 C301 1.260 . S
C298 C302 1.477 . S
C298 H316 0.932 . S
C299 C300 1.384 . S
C299 C301 1.479 . S
C299 H317 0.929 . S
C300 C297 1.424 . S
C300 C299 1.384 . S
C300 H318 0.928 . S
C301 C298 1.260 . S
C301 C299 1.479 . S
C302 C297 1.245 . S
C302 C298 1.477 . S
C302 H319 0.932 . S
C303 U286 2.882 . S
C303 C297 1.428 . S
C303 O306 1.301 . S
C303 O307 1.282 . S
O304 U286 2.441 . S
O304 C290 1.249 . S
O305 U286 2.420 . S
O305 C290 1.202 . S
O306 U286 2.455 . S
O306 C303 1.301 . S
O307 U286 2.449 . S
O307 C303 1.282 . S
H308 C281 0.931 . S
H309 C283 0.929 . S
H310 C284 0.930 1_655 S
H311 C285 0.931 . S
H312 C292 0.907 1_655 S
H313 C293 0.930 . S
H314 C294 0.929 . S
H315 C296 0.930 . S
H316 C298 0.932 . S
H317 C299 0.929 . S
H318 C300 0.928 . S
H319 C302 0.932 . S
Co320 N325 2.057 . S
Co320 O337 2.021 . S
Co320 O340 2.062 . S
Co320 O344 2.117 1_545 S
Co320 O345 2.029 . S
C321 O341 1.259 1_655 S
C321 O344 1.258 . S
Co322 N331 2.057 . S
Co322 O338 2.117 1_565 S
Co322 O339 2.020 1_565 S
Co322 O341 2.021 . S
Co322 O346 2.062 . S
C323 N325 1.316 . S
C323 N326 1.347 . S
C323 H328 0.931 . S
C324 N325 1.372 . S
C324 C327 1.349 . S
C324 H329 0.933 1_545 S
N325 Co320 2.057 . S
N325 C323 1.316 . S
N325 C324 1.372 . S
N326 C323 1.347 . S
N326 C327 1.373 . S
C327 C324 1.349 . S
C327 N326 1.373 . S
C327 H348 0.931 . S
H328 C323 0.931 . S
H329 C324 0.933 1_565 S
C330 O337 1.259 1_455 S
C330 O338 1.258 . S
N331 Co322 2.057 . S
N331 C332 1.316 . S
N331 C333 1.375 1_565 S
C332 N331 1.316 . S
C332 N334 1.347 . S
C332 H343 0.931 . S
C333 N331 1.375 1_545 S
C333 C335 1.350 1_545 S
C333 H342 0.930 . S
N334 C332 1.347 . S
N334 C335 1.373 . S
C335 C333 1.350 1_565 S
C335 N334 1.373 . S
C335 H349 0.931 1_565 S
C336 O339 1.256 . S
C336 O340 1.255 1_455 S
O337 Co320 2.021 . S
O337 C330 1.259 1_655 S
O338 Co322 2.117 1_545 S
O338 C330 1.258 . S
O339 Co322 2.020 1_545 S
O339 C336 1.256 . S
O340 Co320 2.062 . S
O340 C336 1.255 1_655 S
O341 C321 1.259 1_455 S
O341 Co322 2.021 . S
H342 C333 0.930 . S
H343 C332 0.931 . S
O344 Co320 2.117 1_565 S
O344 C321 1.258 . S
O345 Co320 2.029 . S
O345 C347 1.241 1_545 S
O346 Co322 2.062 . S
O346 C347 1.255 1_455 S
C347 O345 1.241 1_565 S
C347 O346 1.255 1_655 S
H348 C327 0.931 . S
H349 C335 0.931 1_545 S
Co350 N355 2.073 . S
Co350 O367 1.992 1_565 S
Co350 O370 2.072 . S
Co350 O374 2.143 1_556 S
Co350 O375 2.007 1_565 S
C351 O371 1.259 . S
C351 O374 1.258 . S
Co352 N361 2.057 . S
Co352 O368 2.117 . S
Co352 O369 2.020 1_545 S
Co352 O371 2.021 1_545 S
Co352 O376 2.062 . S
C353 N355 1.316 . S
C353 N356 1.347 . S
C353 H358 0.931 1_565 S
C354 N355 1.375 . S
C354 C357 1.350 . S
C354 H359 0.930 . S
N355 Co350 2.073 . S
N355 C353 1.316 . S
N355 C354 1.375 . S
N356 C353 1.347 . S
N356 C357 1.373 . S
C357 C354 1.350 . S
C357 N356 1.373 . S
C357 H378 0.931 . S
H358 C353 0.931 1_545 S
H359 C354 0.930 . S
C360 O367 1.259 . S
C360 O368 1.258 1_556 S
N361 Co352 2.057 . S
N361 C362 1.316 . S
N361 C363 1.375 . S
C362 N361 1.316 . S
C362 N364 1.347 . S
C362 H373 0.931 1_545 S
C363 N361 1.375 . S
C363 C365 1.350 . S
C363 H372 0.930 . S
N364 C362 1.347 . S
N364 C365 1.373 . S
C365 C363 1.350 . S
C365 N364 1.373 . S
C365 H379 0.931 . S
C366 O369 1.256 1_556 S
C366 O370 1.255 . S
O367 Co350 1.992 1_545 S
O367 C360 1.259 . S
O368 Co352 2.117 . S
O368 C360 1.258 1_554 S
O369 Co352 2.020 1_565 S
O369 C366 1.256 1_554 S
O370 Co350 2.072 . S
O370 C366 1.255 . S
O371 C351 1.259 . S
O371 Co352 2.021 1_565 S
H372 C363 0.930 . S
H373 C362 0.931 1_565 S
O374 Co350 2.143 1_554 S
O374 C351 1.258 . S
O375 Co350 2.007 1_545 S
O375 C377 1.256 1_556 S
O376 Co352 2.062 . S
O376 C377 1.255 . S
C377 O375 1.256 1_554 S
C377 O376 1.255 . S
H378 C357 0.931 . S
H379 C365 0.931 . S
Co380 N385 2.057 . S
Co380 O397 2.021 . S
Co380 O400 2.062 . S
Co380 O404 2.117 . S
Co380 O405 2.020 . S
C381 O401 1.259 . S
C381 O404 1.258 . S
Co382 N391 2.057 . S
Co382 O398 2.117 . S
Co382 O399 2.020 . S
Co382 O401 2.021 . S
Co382 O406 2.062 . S
C383 N385 1.316 . S
C383 N386 1.347 . S
C383 H388 0.931 . S
C384 N385 1.375 . S
C384 C387 1.350 . S
C384 H389 0.930 . S
N385 Co380 2.057 . S
N385 C383 1.316 . S
N385 C384 1.375 . S
N386 C383 1.347 . S
N386 C387 1.373 . S
C387 C384 1.350 . S
C387 N386 1.373 . S
C387 H408 0.931 . S
H388 C383 0.931 . S
H389 C384 0.930 . S
C390 O397 1.259 . S
C390 O398 1.258 . S
N391 Co382 2.057 . S
N391 C392 1.316 . S
N391 C393 1.375 . S
C392 N391 1.316 . S
C392 N394 1.347 . S
C392 H403 0.931 . S
C393 N391 1.375 . S
C393 C395 1.350 . S
C393 H402 0.930 . S
N394 C392 1.347 . S
N394 C395 1.373 . S
C395 C393 1.350 . S
C395 N394 1.373 . S
C395 H409 0.931 . S
C396 O399 1.256 . S
C396 O400 1.255 . S
O397 Co380 2.021 . S
O397 C390 1.259 . S
O398 Co382 2.117 . S
O398 C390 1.258 . S
O399 Co382 2.020 . S
O399 C396 1.256 . S
O400 Co380 2.062 . S
O400 C396 1.255 . S
O401 C381 1.259 . S
O401 Co382 2.021 . S
H402 C393 0.930 . S
H403 C392 0.931 . S
O404 Co380 2.117 . S
O404 C381 1.258 . S
O405 Co380 2.020 . S
O405 C407 1.256 . S
O406 Co382 2.062 . S
O406 C407 1.255 . S
C407 O405 1.256 . S
C407 O406 1.255 . S
H408 C387 0.931 . S
H409 C395 0.931 . S
Co410 N415 2.057 . S
Co410 O427 2.021 . S
Co410 O430 2.062 . S
Co410 O434 2.117 1_455 S
Co410 O435 2.019 . S
C411 O431 1.259 1_556 S
C411 O434 1.258 . S
Co412 N421 2.057 . S
Co412 O428 2.117 1_655 S
Co412 O429 2.020 1_655 S
Co412 O431 2.021 . S
Co412 O436 2.062 . S
C413 N415 1.316 . S
C413 N416 1.347 . S
C413 H418 0.931 . S
C414 N415 1.375 1_655 S
C414 C417 1.350 1_655 S
C414 H419 0.930 . S
N415 Co410 2.057 . S
N415 C413 1.316 . S
N415 C414 1.375 1_455 S
N416 C413 1.347 . S
N416 C417 1.373 . S
C417 C414 1.350 1_455 S
C417 N416 1.373 . S
C417 H438 0.931 1_455 S
H418 C413 0.931 . S
H419 C414 0.930 . S
C420 O427 1.259 1_554 S
C420 O428 1.258 . S
N421 Co412 2.057 . S
N421 C422 1.316 . S
N421 C423 1.375 1_655 S
C422 N421 1.316 . S
C422 N424 1.347 . S
C422 H433 0.931 . S
C423 N421 1.375 1_455 S
C423 C425 1.350 1_455 S
C423 H432 0.930 . S
N424 C422 1.347 . S
N424 C425 1.373 . S
C425 C423 1.350 1_655 S
C425 N424 1.373 . S
C425 H439 0.931 1_655 S
C426 O429 1.256 . S
C426 O430 1.255 1_554 S
O427 Co410 2.021 . S
O427 C420 1.259 1_556 S
O428 Co412 2.117 1_455 S
O428 C420 1.258 . S
O429 Co412 2.020 1_455 S
O429 C426 1.256 . S
O430 Co410 2.062 . S
O430 C426 1.255 1_556 S
O431 C411 1.259 1_554 S
O431 Co412 2.021 . S
H432 C423 0.930 . S
H433 C422 0.931 . S
O434 Co410 2.117 1_655 S
O434 C411 1.258 . S
O435 Co410 2.019 . S
O435 C437 1.256 1_455 S
O436 Co412 2.062 . S
O436 C437 1.255 1_554 S
C437 O435 1.256 1_655 S
C437 O436 1.255 1_556 S
H438 C417 0.931 1_655 S
H439 C425 0.931 1_455 S
C440 C441 1.363 . S
C440 C446 1.379 . S
C440 N448 1.356 1_545 S
C441 C440 1.363 . S
C441 C447 1.363 . S
C442 C443 1.363 . S
C442 C447 1.379 . S
C442 N449 1.356 . S
C443 C442 1.363 . S
C443 C446 1.363 . S
N444 C446 1.356 1_665 S
N444 H456 0.984 . S
N444 H457 0.985 . S
N445 C447 1.356 . S
N445 H450 0.984 . S
N445 H451 0.985 . S
C446 C440 1.379 . S
C446 C443 1.363 . S
C446 N444 1.356 1_445 S
C447 C441 1.363 . S
C447 C442 1.379 . S
C447 N445 1.356 . S
N448 C440 1.356 1_565 S
N448 H454 1.005 . S
N448 H455 0.984 1_565 S
N449 C442 1.356 . S
N449 H452 0.984 . S
N449 H453 0.985 . S
H450 N445 0.984 . S
H451 N445 0.985 . S
H452 N449 0.984 . S
H453 N449 0.985 . S
H454 N448 1.005 . S
H455 N448 0.984 1_545 S
H456 N444 0.984 . S
H457 N444 0.985 . S
C458 C459 1.363 . S
C458 C464 1.379 . S
C458 N466 1.356 . S
C459 C458 1.363 . S
C459 C465 1.363 . S
C460 C461 1.363 . S
C460 C465 1.379 . S
C460 N467 1.356 1_565 S
C461 C460 1.363 . S
C461 C464 1.363 . S
N462 C464 1.356 . S
N462 H474 0.984 . S
N462 H475 0.985 . S
N463 C465 1.356 . S
N463 H468 0.984 . S
N463 H469 0.985 1_565 S
C464 C458 1.379 . S
C464 C461 1.363 . S
C464 N462 1.356 . S
C465 C459 1.363 . S
C465 C460 1.379 . S
C465 N463 1.356 . S
N466 C458 1.356 . S
N466 H472 0.984 . S
N466 H473 0.984 . S
N467 C460 1.356 1_545 S
N467 H470 0.984 . S
N467 H471 0.985 . S
H468 N463 0.984 . S
H469 N463 0.985 1_545 S
H470 N467 0.984 . S
H471 N467 0.985 . S
H472 N466 0.984 . S
H473 N466 0.984 . S
H474 N462 0.984 . S
H475 N462 0.985 . S
C476 C477 1.363 . S
C476 C482 1.379 . S
C476 N484 1.356 . S
C477 C476 1.363 . S
C477 C483 1.363 . S
C478 C479 1.363 . S
C478 C483 1.379 . S
C478 N485 1.356 . S
C479 C478 1.363 . S
C479 C482 1.363 . S
N480 C482 1.356 . S
N480 H492 0.984 . S
N480 H493 0.985 . S
N481 C483 1.356 . S
N481 H486 0.984 . S
N481 H487 0.985 . S
C482 C476 1.379 . S
C482 C479 1.363 . S
C482 N480 1.356 . S
C483 C477 1.363 . S
C483 C478 1.379 . S
C483 N481 1.356 . S
N484 C476 1.356 . S
N484 H490 0.984 . S
N484 H491 0.984 . S
N485 C478 1.356 . S
N485 H488 0.984 . S
N485 H489 0.985 . S
H486 N481 0.984 . S
H487 N481 0.985 . S
H488 N485 0.984 . S
H489 N485 0.985 . S
H490 N484 0.984 . S
H491 N484 0.984 . S
H492 N480 0.984 . S
H493 N480 0.985 . S
C494 C495 1.363 . S
C494 C500 1.379 . S
C494 N502 1.356 1_655 S
C495 C494 1.363 . S
C495 C501 1.363 . S
C496 C497 1.363 . S
C496 C501 1.379 . S
C496 N503 1.356 . S
C497 C496 1.363 . S
C497 C500 1.363 . S
N498 C500 1.356 . S
N498 H510 0.984 . S
N498 H511 0.985 . S
N499 C501 1.356 . S
N499 H504 0.984 . S
N499 H505 0.985 . S
C500 C494 1.379 . S
C500 C497 1.363 . S
C500 N498 1.356 . S
C501 C495 1.363 . S
C501 C496 1.379 . S
C501 N499 1.356 . S
N502 C494 1.356 1_455 S
N502 H508 0.984 . S
N502 H509 0.984 . S
N503 C496 1.356 . S
N503 H506 0.984 . S
N503 H507 0.985 . S
H504 N499 0.984 . S
H505 N499 0.985 . S
H506 N503 0.984 . S
H507 N503 0.985 . S
H508 N502 0.984 . S
H509 N502 0.984 . S
H510 N498 0.984 . S
H511 N498 0.985 . S
C512 C513 1.363 . S
C512 C518 1.379 . S
C512 N520 1.356 . S
C513 C512 1.363 . S
C513 C519 1.363 . S
C514 C515 1.363 . S
C514 C519 1.379 . S
C514 N521 1.356 1_545 S
C515 C514 1.363 . S
C515 C518 1.363 . S
N516 C518 1.356 . S
N516 H528 0.984 1_554 S
N516 H529 0.985 . S
N517 C519 1.356 1_565 S
N517 H522 0.984 1_565 S
N517 H523 0.985 . S
C518 C512 1.379 . S
C518 C515 1.363 . S
C518 N516 1.356 . S
C519 C513 1.363 . S
C519 C514 1.379 . S
C519 N517 1.356 1_545 S
N520 C512 1.356 . S
N520 H526 0.984 . S
N520 H527 0.984 . S
N521 C514 1.356 1_565 S
N521 H524 0.984 . S
N521 H525 0.985 . S
H522 N517 0.984 1_545 S
H523 N517 0.985 . S
H524 N521 0.984 . S
H525 N521 0.985 . S
H526 N520 0.984 . S
H527 N520 0.984 . S
H528 N516 0.984 1_556 S
H529 N516 0.985 . S
C530 C531 1.363 . S
C530 C536 1.379 . S
C530 N538 1.356 . S
C531 C530 1.363 . S
C531 C537 1.363 . S
C532 C533 1.363 . S
C532 C537 1.379 . S
C532 N539 1.356 . S
C533 C532 1.363 . S
C533 C536 1.363 . S
N534 C536 1.356 . S
N534 H546 0.984 1_565 S
N534 H547 0.985 . S
N535 C537 1.356 . S
N535 H540 0.984 . S
N535 H541 0.985 . S
C536 C530 1.379 . S
C536 C533 1.363 . S
C536 N534 1.356 . S
C537 C531 1.363 . S
C537 C532 1.379 . S
C537 N535 1.356 . S
N538 C530 1.356 . S
N538 H544 0.984 . S
N538 H545 0.984 . S
N539 C532 1.356 . S
N539 H542 0.984 . S
N539 H543 0.985 . S
H540 N535 0.984 . S
H541 N535 0.985 . S
H542 N539 0.984 . S
H543 N539 0.985 . S
H544 N538 0.984 . S
H545 N538 0.984 . S
H546 N534 0.984 1_545 S
H547 N534 0.985 . S
C548 C549 1.363 . S
C548 C554 1.379 . S
C548 N556 1.356 . S
C549 C548 1.363 . S
C549 C555 1.363 . S
C550 C551 1.363 . S
C550 C555 1.379 . S
C550 N557 1.356 1_556 S
C551 C550 1.363 . S
C551 C554 1.363 . S
N552 C554 1.356 . S
N552 H564 0.984 . S
N552 H565 0.985 . S
N553 C555 1.356 . S
N553 H558 0.984 . S
N553 H559 0.985 1_556 S
C554 C548 1.379 . S
C554 C551 1.363 . S
C554 N552 1.356 . S
C555 C549 1.363 . S
C555 C550 1.379 . S
C555 N553 1.356 . S
N556 C548 1.356 . S
N556 H562 0.984 . S
N556 H563 0.984 . S
N557 C550 1.356 1_554 S
N557 H560 0.984 . S
N557 H561 0.985 . S
H558 N553 0.984 . S
H559 N553 0.985 1_554 S
H560 N557 0.984 . S
H561 N557 0.985 . S
H562 N556 0.984 . S
H563 N556 0.984 . S
H564 N552 0.984 . S
H565 N552 0.985 . S
C566 C567 1.363 . S
C566 C572 1.379 . S
C566 N574 1.356 . S
C567 C566 1.363 . S
C567 C573 1.363 . S
C568 C569 1.363 . S
C568 C573 1.379 . S
C568 N575 1.356 . S
C569 C568 1.363 . S
C569 C572 1.363 . S
N570 C572 1.356 . S
N570 H582 0.984 . S
N570 H583 0.985 . S
N571 C573 1.356 . S
N571 H576 0.984 . S
N571 H577 0.985 . S
C572 C566 1.379 . S
C572 C569 1.363 . S
C572 N570 1.356 . S
C573 C567 1.363 . S
C573 C568 1.379 . S
C573 N571 1.356 . S
N574 C566 1.356 . S
N574 H580 0.984 . S
N574 H581 0.984 . S
N575 C568 1.356 . S
N575 H578 0.984 . S
N575 H579 0.985 . S
H576 N571 0.984 . S
H577 N571 0.985 . S
H578 N575 0.984 . S
H579 N575 0.985 . S
H580 N574 0.984 . S
H581 N574 0.984 . S
H582 N570 0.984 . S
H583 N570 0.985 . S
C584 C585 1.363 . S
C584 C590 1.379 . S
C584 N592 1.356 . S
C585 C584 1.363 . S
C585 C591 1.363 . S
C586 C587 1.363 . S
C586 C591 1.379 . S
C586 N593 1.356 1_454 S
C587 C586 1.363 . S
C587 C590 1.363 . S
N588 C590 1.356 . S
N588 H600 0.984 . S
N588 H601 0.985 . S
N589 C591 1.356 . S
N589 H594 0.984 . S
N589 H595 0.985 1_454 S
C590 C584 1.379 . S
C590 C587 1.363 . S
C590 N588 1.356 . S
C591 C585 1.363 . S
C591 C586 1.379 . S
C591 N589 1.356 . S
N592 C584 1.356 . S
N592 H598 0.984 . S
N592 H599 0.984 . S
N593 C586 1.356 1_656 S
N593 H596 0.985 . S
N593 H597 0.985 . S
H594 N589 0.984 . S
H595 N589 0.985 1_656 S
H596 N593 0.985 . S
H597 N593 0.985 . S
H598 N592 0.984 . S
H599 N592 0.984 . S
H600 N588 0.984 . S
H601 N588 0.985 . S
C602 C603 1.363 . S
C602 C608 1.379 . S
C602 N610 1.356 1_556 S
C603 C602 1.363 . S
C603 C609 1.363 . S
C604 C605 1.363 . S
C604 C609 1.379 . S
C604 N611 1.356 . S
C605 C604 1.363 . S
C605 C608 1.363 . S
N606 C608 1.356 1_554 S
N606 H618 0.984 . S
N606 H619 0.985 . S
N607 C609 1.356 . S
N607 H612 0.984 . S
N607 H613 0.985 . S
C608 C602 1.379 . S
C608 C605 1.363 . S
C608 N606 1.356 1_556 S
C609 C603 1.363 . S
C609 C604 1.379 . S
C609 N607 1.356 . S
N610 C602 1.356 1_554 S
N610 H616 0.984 . S
N610 H617 0.991 . S
N611 C604 1.356 . S
N611 H614 0.984 . S
N611 H615 0.985 . S
H612 N607 0.984 . S
H613 N607 0.985 . S
H614 N611 0.984 . S
H615 N611 0.985 . S
H616 N610 0.984 . S
H617 N610 0.991 . S
H618 N606 0.984 . S
H619 N606 0.985 . S
C620 C621 1.363 . S
C620 C626 1.379 . S
C620 N628 1.356 . S
C621 C620 1.363 . S
C621 C627 1.363 1_655 S
C622 C623 1.344 1_455 S
C622 C627 1.383 . S
C622 N629 1.368 . S
C623 C622 1.344 1_655 S
C623 C626 1.363 . S
N624 C626 1.356 . S
N624 H636 0.984 . S
N624 H637 0.985 . S
N625 C627 1.356 . S
N625 H630 0.984 . S
N625 H631 0.985 . S
C626 C620 1.379 . S
C626 C623 1.363 . S
C626 N624 1.356 . S
C627 C621 1.363 1_455 S
C627 C622 1.383 . S
C627 N625 1.356 . S
N628 C620 1.356 . S
N628 H634 0.984 . S
N628 H635 0.984 . S
N629 C622 1.368 . S
N629 H632 0.984 . S
N629 H633 0.985 . S
H630 N625 0.984 . S
H631 N625 0.985 . S
H632 N629 0.984 . S
H633 N629 0.985 . S
H634 N628 0.984 . S
H635 N628 0.984 . S
H636 N624 0.984 . S
H637 N624 0.985 . S
C638 C639 1.363 . S
C638 C644 1.379 . S
C638 N646 1.356 . S
C639 C638 1.363 . S
C639 C645 1.363 . S
C640 C641 1.363 . S
C640 C645 1.379 . S
C640 N647 1.356 . S
C641 C640 1.363 . S
C641 C644 1.363 . S
N642 C644 1.356 . S
N642 H654 0.984 . S
N642 H655 0.985 . S
N643 C645 1.356 . S
N643 H648 0.984 . S
N643 H649 0.985 . S
C644 C638 1.379 . S
C644 C641 1.363 . S
C644 N642 1.356 . S
C645 C639 1.363 . S
C645 C640 1.379 . S
C645 N643 1.356 . S
N646 C638 1.356 . S
N646 H652 0.984 . S
N646 H653 0.984 . S
N647 C640 1.356 . S
N647 H650 0.984 . S
N647 H651 0.985 . S
H648 N643 0.984 . S
H649 N643 0.985 . S
H650 N647 0.984 . S
H651 N647 0.985 . S
H652 N646 0.984 . S
H653 N646 0.984 . S
H654 N642 0.984 . S
H655 N642 0.985 . S
C656 C657 1.363 . S
C656 C662 1.379 1_565 S
C656 N664 1.356 1_565 S
C657 C656 1.363 . S
C657 C663 1.363 . S
C658 C659 1.363 . S
C658 C663 1.379 . S
C658 N665 1.356 1_655 S
C659 C658 1.363 . S
C659 C662 1.358 1_565 S
N660 C662 1.360 . S
N660 H672 0.984 . S
N660 H673 0.985 . S
N661 C663 1.356 . S
N661 H666 0.984 . S
N661 H667 0.990 . S
C662 C656 1.379 1_545 S
C662 C659 1.358 1_545 S
C662 N660 1.360 . S
C663 C657 1.363 . S
C663 C658 1.379 . S
C663 N661 1.356 . S
N664 C656 1.356 1_545 S
N664 H670 0.984 . S
N664 H671 0.984 . S
N665 C658 1.356 1_455 S
N665 H668 0.984 . S
N665 H669 0.985 . S
H666 N661 0.984 . S
H667 N661 0.990 . S
H668 N665 0.984 . S
H669 N665 0.985 . S
H670 N664 0.984 . S
H671 N664 0.984 . S
H672 N660 0.984 . S
H673 N660 0.985 . S
C674 C675 1.363 . S
C674 C680 1.379 . S
C674 N682 1.356 . S
C675 C674 1.363 . S
C675 C681 1.363 . S
C676 C677 1.363 . S
C676 C681 1.379 . S
C676 N683 1.356 . S
C677 C676 1.363 . S
C677 C680 1.363 . S
N678 C680 1.356 . S
N678 H690 0.984 . S
N678 H691 0.985 . S
N679 C681 1.356 . S
N679 H684 0.984 . S
N679 H685 0.985 . S
C680 C674 1.379 . S
C680 C677 1.363 . S
C680 N678 1.356 . S
C681 C675 1.363 . S
C681 C676 1.379 . S
C681 N679 1.356 . S
N682 C674 1.356 . S
N682 H688 0.984 . S
N682 H689 0.984 . S
N683 C676 1.356 . S
N683 H686 0.984 . S
N683 H687 0.985 1_545 S
H684 N679 0.984 . S
H685 N679 0.985 . S
H686 N683 0.984 . S
H687 N683 0.985 1_565 S
H688 N682 0.984 . S
H689 N682 0.984 . S
H690 N678 0.984 . S
H691 N678 0.985 . S
C692 C693 1.363 . S
C692 C698 1.379 . S
C692 N700 1.356 . S
C693 C692 1.363 . S
C693 C699 1.363 . S
C694 C695 1.363 . S
C694 C699 1.379 . S
C694 N701 1.356 . S
C695 C694 1.363 . S
C695 C698 1.363 . S
N696 C698 1.356 . S
N696 H708 0.984 . S
N696 H709 0.985 . S
N697 C699 1.356 . S
N697 H702 0.984 . S
N697 H703 0.985 . S
C698 C692 1.379 . S
C698 C695 1.363 . S
C698 N696 1.356 . S
C699 C693 1.363 . S
C699 C694 1.379 . S
C699 N697 1.356 . S
N700 C692 1.356 . S
N700 H706 0.984 . S
N700 H707 0.984 . S
N701 C694 1.356 . S
N701 H704 0.984 . S
N701 H705 0.985 . S
H702 N697 0.984 . S
H703 N697 0.985 . S
H704 N701 0.984 . S
H705 N701 0.985 . S
H706 N700 0.984 . S
H707 N700 0.984 . S
H708 N696 0.984 . S
H709 N696 0.985 . S
C710 C711 1.363 . S
C710 C716 1.379 . S
C710 N718 1.356 . S
C711 C710 1.363 . S
C711 C717 1.363 . S
C712 C713 1.363 . S
C712 C717 1.379 . S
C712 N719 1.356 . S
C713 C712 1.363 . S
C713 C716 1.363 . S
N714 C716 1.356 . S
N714 H726 0.984 . S
N714 H727 0.985 . S
N715 C717 1.356 . S
N715 H720 0.984 . S
N715 H721 0.985 . S
C716 C710 1.379 . S
C716 C713 1.363 . S
C716 N714 1.356 . S
C717 C711 1.363 . S
C717 C712 1.379 . S
C717 N715 1.356 . S
N718 C710 1.356 . S
N718 H724 0.984 1_455 S
N718 H725 0.984 . S
N719 C712 1.356 . S
N719 H722 0.984 . S
N719 H723 0.985 . S
H720 N715 0.984 . S
H721 N715 0.985 . S
H722 N719 0.984 . S
H723 N719 0.985 . S
H724 N718 0.984 1_655 S
H725 N718 0.984 . S
H726 N714 0.984 . S
H727 N714 0.985 . S
C728 C729 1.363 . S
C728 C734 1.379 . S
C728 N736 1.356 1_565 S
C729 C728 1.363 . S
C729 C735 1.363 . S
C730 C731 1.363 . S
C730 C735 1.379 . S
C730 N737 1.356 1_556 S
C731 C730 1.363 . S
C731 C734 1.363 . S
N732 C734 1.356 1_545 S
N732 H744 0.984 . S
N732 H745 0.985 . S
N733 C735 1.356 . S
N733 H738 0.984 . S
N733 H739 0.985 1_556 S
C734 C728 1.379 . S
C734 C731 1.363 . S
C734 N732 1.356 1_565 S
C735 C729 1.363 . S
C735 C730 1.379 . S
C735 N733 1.356 . S
N736 C728 1.356 1_545 S
N736 H742 0.984 . S
N736 H743 0.984 . S
N737 C730 1.356 1_554 S
N737 H740 0.984 . S
N737 H741 0.985 . S
H738 N733 0.984 . S
H739 N733 0.985 1_554 S
H740 N737 0.984 . S
H741 N737 0.985 . S
H742 N736 0.984 . S
H743 N736 0.984 . S
H744 N732 0.984 . S
H745 N732 0.985 . S
C746 C747 1.363 . S
C746 C752 1.379 . S
C746 N754 1.356 . S
C747 C746 1.363 . S
C747 C753 1.363 . S
C748 C749 1.363 . S
C748 C753 1.379 . S
C748 N755 1.356 . S
C749 C748 1.363 . S
C749 C752 1.363 . S
N750 C752 1.356 . S
N750 H762 0.984 . S
N750 H763 0.985 . S
N751 C753 1.356 . S
N751 H756 0.984 . S
N751 H757 0.985 1_545 S
C752 C746 1.379 . S
C752 C749 1.363 . S
C752 N750 1.356 . S
C753 C747 1.363 . S
C753 C748 1.379 . S
C753 N751 1.356 . S
N754 C746 1.356 . S
N754 H760 0.984 . S
N754 H761 0.984 . S
N755 C748 1.356 . S
N755 H758 0.984 . S
N755 H759 0.985 1_545 S
H756 N751 0.984 . S
H757 N751 0.985 1_565 S
H758 N755 0.984 . S
H759 N755 0.985 1_565 S
H760 N754 0.984 . S
H761 N754 0.984 . S
H762 N750 0.984 . S
H763 N750 0.985 . S
C764 C765 1.363 . S
C764 C770 1.379 . S
C764 N772 1.356 . S
C765 C764 1.363 . S
C765 C771 1.363 . S
C766 C767 1.363 . S
C766 C771 1.379 . S
C766 N773 1.356 . S
C767 C766 1.363 . S
C767 C770 1.363 . S
N768 C770 1.356 . S
N768 H780 0.984 1_554 S
N768 H781 0.984 . S
N769 C771 1.356 . S
N769 H774 0.984 . S
N769 H775 0.985 . S
C770 C764 1.379 . S
C770 C767 1.363 . S
C770 N768 1.356 . S
C771 C765 1.363 . S
C771 C766 1.379 . S
C771 N769 1.356 . S
N772 C764 1.356 . S
N772 H778 0.984 . S
N772 H779 0.984 . S
N773 C766 1.356 . S
N773 H776 0.984 . S
N773 H777 0.985 . S
H774 N769 0.984 . S
H775 N769 0.985 . S
H776 N773 0.984 . S
H777 N773 0.985 . S
H778 N772 0.984 . S
H779 N772 0.984 . S
H780 N768 0.984 1_556 S
H781 N768 0.984 . S
C782 C783 1.363 . S
C782 C788 1.379 . S
C782 N790 1.356 . S
C783 C782 1.363 . S
C783 C789 1.363 . S
C784 C785 1.363 . S
C784 C789 1.379 . S
C784 N791 1.356 . S
C785 C784 1.363 . S
C785 C788 1.363 . S
N786 C788 1.356 . S
N786 H798 0.984 . S
N786 H799 0.985 . S
N787 C789 1.356 . S
N787 H792 0.984 . S
N787 H793 0.985 . S
C788 C782 1.379 . S
C788 C785 1.363 . S
C788 N786 1.356 . S
C789 C783 1.363 . S
C789 C784 1.379 . S
C789 N787 1.356 . S
N790 C782 1.356 . S
N790 H796 0.984 . S
N790 H797 0.984 . S
N791 C784 1.356 . S
N791 H794 0.984 . S
N791 H795 0.985 . S
H792 N787 0.984 . S
H793 N787 0.985 . S
H794 N791 0.984 . S
H795 N791 0.985 . S
H796 N790 0.984 . S
H797 N790 0.984 . S
H798 N786 0.984 . S
H799 N786 0.985 . S
C800 C801 1.363 . S
C800 C806 1.379 . S
C800 N808 1.356 1_556 S
C801 C800 1.363 . S
C801 C807 1.363 . S
C802 C803 1.363 . S
C802 C807 1.379 . S
C802 N809 1.356 . S
C803 C802 1.363 . S
C803 C806 1.363 . S
N804 C806 1.356 1_454 S
N804 H816 0.984 . S
N804 H817 0.985 . S
N805 C807 1.356 . S
N805 H810 0.984 . S
N805 H811 0.985 . S
C806 C800 1.379 . S
C806 C803 1.363 . S
C806 N804 1.356 1_656 S
C807 C801 1.363 . S
C807 C802 1.379 . S
C807 N805 1.356 . S
N808 C800 1.356 1_554 S
N808 H814 0.984 1_655 S
N808 H815 0.984 1_554 S
N809 C802 1.356 . S
N809 H812 0.984 . S
N809 H813 0.985 . S
H810 N805 0.984 . S
H811 N805 0.985 . S
H812 N809 0.984 . S
H813 N809 0.985 . S
H814 N808 0.984 1_455 S
H815 N808 0.984 1_556 S
H816 N804 0.984 . S
H817 N804 0.985 . S
C818 C819 1.363 . S
C818 C824 1.379 . S
C818 N826 1.356 . S
C819 C818 1.363 . S
C819 C825 1.363 . S
C820 C821 1.363 . S
C820 C825 1.379 . S
C820 N827 1.356 . S
C821 C820 1.363 . S
C821 C824 1.363 . S
N822 C824 1.356 . S
N822 H834 0.984 . S
N822 H835 0.985 . S
N823 C825 1.356 . S
N823 H828 0.984 . S
N823 H829 0.985 1_554 S
C824 C818 1.379 . S
C824 C821 1.363 . S
C824 N822 1.356 . S
C825 C819 1.363 . S
C825 C820 1.379 . S
C825 N823 1.356 . S
N826 C818 1.356 . S
N826 H832 0.984 . S
N826 H833 0.984 . S
N827 C820 1.356 . S
N827 H830 0.984 . S
N827 H831 0.985 1_554 S
H828 N823 0.984 . S
H829 N823 0.985 1_556 S
H830 N827 0.984 . S
H831 N827 0.985 1_556 S
H832 N826 0.984 . S
H833 N826 0.984 . S
H834 N822 0.984 . S
H835 N822 0.985 . S
C836 C837 1.363 . S
C836 C842 1.379 . S
C836 N844 1.356 . S
C837 C836 1.363 . S
C837 C843 1.363 . S
C838 C839 1.363 . S
C838 C843 1.379 . S
C838 N845 1.356 1_455 S
C839 C838 1.363 . S
C839 C842 1.363 . S
N840 C842 1.356 . S
N840 H852 0.984 . S
N840 H853 0.985 . S
N841 C843 1.356 1_655 S
N841 H846 0.984 . S
N841 H847 0.985 . S
C842 C836 1.379 . S
C842 C839 1.363 . S
C842 N840 1.356 . S
C843 C837 1.363 . S
C843 C838 1.379 . S
C843 N841 1.356 1_455 S
N844 C836 1.356 . S
N844 H850 0.984 . S
N844 H851 0.984 . S
N845 C838 1.356 1_655 S
N845 H848 0.984 . S
N845 H849 0.985 . S
H846 N841 0.984 . S
H847 N841 0.985 . S
H848 N845 0.984 . S
H849 N845 0.985 . S
H850 N844 0.984 . S
H851 N844 0.984 . S
H852 N840 0.984 . S
H853 N840 0.985 . S
C854 C855 1.363 . S
C854 C860 1.379 . S
C854 N862 1.356 . S
C855 C854 1.363 . S
C855 C861 1.363 . S
C856 C857 1.363 . S
C856 C861 1.379 . S
C856 N863 1.356 . S
C857 C856 1.363 . S
C857 C860 1.363 . S
N858 C860 1.356 . S
N858 H870 0.984 . S
N858 H871 0.985 . S
N859 C861 1.356 . S
N859 H864 0.984 . S
N859 H865 0.985 . S
C860 C854 1.379 . S
C860 C857 1.363 . S
C860 N858 1.356 . S
C861 C855 1.363 . S
C861 C856 1.379 . S
C861 N859 1.356 . S
N862 C854 1.356 . S
N862 H868 0.984 . S
N862 H869 0.984 . S
N863 C856 1.356 . S
N863 H866 0.984 . S
N863 H867 0.985 . S
H864 N859 0.984 . S
H865 N859 0.985 . S
H866 N863 0.984 . S
H867 N863 0.985 . S
H868 N862 0.984 . S
H869 N862 0.984 . S
H870 N858 0.984 . S
H871 N858 0.985 . S
C441 C21 2.248 . S
C443 C336 2.247 . S
C459 C61 1.176 . S
C461 N356 1.247 . S
C479 C390 2.020 . S
C477 C82 2.019 . S
C495 C135 1.504 . S
C497 N424 1.388 . S
C515 C377 2.368 . S
C513 C15 2.348 . S
C533 N334 1.262 . S
C531 C42 1.275 . S
C551 C411 2.076 . S
C549 C101 2.083 . S
C569 N386 1.196 . S
C567 C122 1.164 . S
C585 C2 1.925 . S
C587 C426 1.928 . S
C605 C360 1.766 . S
C603 C95 1.736 . S
C621 C141 1.647 . S
C623 C321 1.631 . S
C639 C55 1.516 . S
C641 C407 1.554 . S
C659 C347 2.258 . S
C657 C181 2.161 . S
C675 C202 1.177 . S
C677 N364 1.228 . S
C693 C255 2.008 . S
C695 C381 2.034 . S
C711 C295 1.465 . S
C713 N416 1.354 . S
C729 C175 2.334 . S
C731 C366 2.361 . S
C749 N326 1.289 . S
C747 C221 1.284 . S
C767 C420 2.023 . S
C765 C242 1.949 . S
C785 N394 1.252 . S
C783 C301 1.228 . S
C801 C162 1.799 . S
C803 C437 1.891 . S
C821 C351 1.792 . S
C819 C261 1.698 . S
C839 C330 1.608 . S
C837 C282 1.619 . S
C855 C215 1.550 . S
C857 C396 1.588 . S
