# Generated by pormake.
# Topology iac, (4,6)-cn, num edge types: 1
# Building blocks:
#     Node 0, Type 0, BuildingBlock: AZAVOO_clean_sbu_0, # of connection points: 4
#     Node 1, Type 0, BuildingBlock: AZAVOO_clean_sbu_0, # of connection points: 4
#     Node 2, Type 0, BuildingBlock: AZAVOO_clean_sbu_0, # of connection points: 4
#     Node 3, Type 0, BuildingBlock: AZAVOO_clean_sbu_0, # of connection points: 4
#     Node 4, Type 0, BuildingBlock: AZAVOO_clean_sbu_0, # of connection points: 4
#     Node 5, Type 0, BuildingBlock: AZAVOO_clean_sbu_0, # of connection points: 4
#     Node 6, Type 0, BuildingBlock: AZAVOO_clean_sbu_0, # of connection points: 4
#     Node 7, Type 0, BuildingBlock: AZAVOO_clean_sbu_0, # of connection points: 4
#     Node 8, Type 0, BuildingBlock: AZAVOO_clean_sbu_0, # of connection points: 4
#     Node 9, Type 0, BuildingBlock: AZAVOO_clean_sbu_0, # of connection points: 4
#     Node 10, Type 0, BuildingBlock: AZAVOO_clean_sbu_0, # of connection points: 4
#     Node 11, Type 0, BuildingBlock: AZAVOO_clean_sbu_0, # of connection points: 4
#     Node 12, Type 0, BuildingBlock: AZAVOO_clean_sbu_0, # of connection points: 4
#     Node 13, Type 0, BuildingBlock: AZAVOO_clean_sbu_0, # of connection points: 4
#     Node 14, Type 0, BuildingBlock: AZAVOO_clean_sbu_0, # of connection points: 4
#     Node 15, Type 0, BuildingBlock: AZAVOO_clean_sbu_0, # of connection points: 4
#     Node 16, Type 0, BuildingBlock: AZAVOO_clean_sbu_0, # of connection points: 4
#     Node 17, Type 0, BuildingBlock: AZAVOO_clean_sbu_0, # of connection points: 4
#     Node 18, Type 0, BuildingBlock: AZAVOO_clean_sbu_0, # of connection points: 4
#     Node 19, Type 0, BuildingBlock: AZAVOO_clean_sbu_0, # of connection points: 4
#     Node 20, Type 0, BuildingBlock: AZAVOO_clean_sbu_0, # of connection points: 4
#     Node 21, Type 0, BuildingBlock: AZAVOO_clean_sbu_0, # of connection points: 4
#     Node 22, Type 0, BuildingBlock: AZAVOO_clean_sbu_0, # of connection points: 4
#     Node 23, Type 0, BuildingBlock: AZAVOO_clean_sbu_0, # of connection points: 4
#     Node 24, Type 1, BuildingBlock: FUNLAD_clean_sbu_0, # of connection points: 6
#     Node 25, Type 1, BuildingBlock: FUNLAD_clean_sbu_0, # of connection points: 6
#     Node 26, Type 1, BuildingBlock: FUNLAD_clean_sbu_0, # of connection points: 6
#     Node 27, Type 1, BuildingBlock: FUNLAD_clean_sbu_0, # of connection points: 6
#     Node 28, Type 1, BuildingBlock: FUNLAD_clean_sbu_0, # of connection points: 6
#     Node 29, Type 1, BuildingBlock: FUNLAD_clean_sbu_0, # of connection points: 6
#     Node 30, Type 1, BuildingBlock: FUNLAD_clean_sbu_0, # of connection points: 6
#     Node 31, Type 1, BuildingBlock: FUNLAD_clean_sbu_0, # of connection points: 6
#     Node 32, Type 1, BuildingBlock: FUNLAD_clean_sbu_0, # of connection points: 6
#     Node 33, Type 1, BuildingBlock: FUNLAD_clean_sbu_0, # of connection points: 6
#     Node 34, Type 1, BuildingBlock: FUNLAD_clean_sbu_0, # of connection points: 6
#     Node 35, Type 1, BuildingBlock: FUNLAD_clean_sbu_0, # of connection points: 6
#     Node 36, Type 1, BuildingBlock: FUNLAD_clean_sbu_0, # of connection points: 6
#     Node 37, Type 1, BuildingBlock: FUNLAD_clean_sbu_0, # of connection points: 6
#     Node 38, Type 1, BuildingBlock: FUNLAD_clean_sbu_0, # of connection points: 6
#     Node 39, Type 1, BuildingBlock: FUNLAD_clean_sbu_0, # of connection points: 6
#     Edge 40, Type (0, 1), BuildingBlock: CIFDUS_clean_linker_0, # of connection points: 2
#     Edge 41, Type (0, 1), BuildingBlock: CIFDUS_clean_linker_0, # of connection points: 2
#     Edge 42, Type (0, 1), BuildingBlock: CIFDUS_clean_linker_0, # of connection points: 2
#     Edge 43, Type (0, 1), BuildingBlock: CIFDUS_clean_linker_0, # of connection points: 2
#     Edge 44, Type (0, 1), BuildingBlock: CIFDUS_clean_linker_0, # of connection points: 2
#     Edge 45, Type (0, 1), BuildingBlock: CIFDUS_clean_linker_0, # of connection points: 2
#     Edge 46, Type (0, 1), BuildingBlock: CIFDUS_clean_linker_0, # of connection points: 2
#     Edge 47, Type (0, 1), BuildingBlock: CIFDUS_clean_linker_0, # of connection points: 2
#     Edge 48, Type (0, 1), BuildingBlock: CIFDUS_clean_linker_0, # of connection points: 2
#     Edge 49, Type (0, 1), BuildingBlock: CIFDUS_clean_linker_0, # of connection points: 2
#     Edge 50, Type (0, 1), BuildingBlock: CIFDUS_clean_linker_0, # of connection points: 2
#     Edge 51, Type (0, 1), BuildingBlock: CIFDUS_clean_linker_0, # of connection points: 2
#     Edge 52, Type (0, 1), BuildingBlock: CIFDUS_clean_linker_0, # of connection points: 2
#     Edge 53, Type (0, 1), BuildingBlock: CIFDUS_clean_linker_0, # of connection points: 2
#     Edge 54, Type (0, 1), BuildingBlock: CIFDUS_clean_linker_0, # of connection points: 2
#     Edge 55, Type (0, 1), BuildingBlock: CIFDUS_clean_linker_0, # of connection points: 2
#     Edge 56, Type (0, 1), BuildingBlock: CIFDUS_clean_linker_0, # of connection points: 2
#     Edge 57, Type (0, 1), BuildingBlock: CIFDUS_clean_linker_0, # of connection points: 2
#     Edge 58, Type (0, 1), BuildingBlock: CIFDUS_clean_linker_0, # of connection points: 2
#     Edge 59, Type (0, 1), BuildingBlock: CIFDUS_clean_linker_0, # of connection points: 2
#     Edge 60, Type (0, 1), BuildingBlock: CIFDUS_clean_linker_0, # of connection points: 2
#     Edge 61, Type (0, 1), BuildingBlock: CIFDUS_clean_linker_0, # of connection points: 2
#     Edge 62, Type (0, 1), BuildingBlock: CIFDUS_clean_linker_0, # of connection points: 2
#     Edge 63, Type (0, 1), BuildingBlock: CIFDUS_clean_linker_0, # of connection points: 2
#     Edge 64, Type (0, 1), BuildingBlock: CIFDUS_clean_linker_0, # of connection points: 2
#     Edge 65, Type (0, 1), BuildingBlock: CIFDUS_clean_linker_0, # of connection points: 2
#     Edge 66, Type (0, 1), BuildingBlock: CIFDUS_clean_linker_0, # of connection points: 2
#     Edge 67, Type (0, 1), BuildingBlock: CIFDUS_clean_linker_0, # of connection points: 2
#     Edge 68, Type (0, 1), BuildingBlock: CIFDUS_clean_linker_0, # of connection points: 2
#     Edge 69, Type (0, 1), BuildingBlock: CIFDUS_clean_linker_0, # of connection points: 2
#     Edge 70, Type (0, 1), BuildingBlock: CIFDUS_clean_linker_0, # of connection points: 2
#     Edge 71, Type (0, 1), BuildingBlock: CIFDUS_clean_linker_0, # of connection points: 2
#     Edge 72, Type (0, 1), BuildingBlock: CIFDUS_clean_linker_0, # of connection points: 2
#     Edge 73, Type (0, 1), BuildingBlock: CIFDUS_clean_linker_0, # of connection points: 2
#     Edge 74, Type (0, 1), BuildingBlock: CIFDUS_clean_linker_0, # of connection points: 2
#     Edge 75, Type (0, 1), BuildingBlock: CIFDUS_clean_linker_0, # of connection points: 2
#     Edge 76, Type (0, 1), BuildingBlock: CIFDUS_clean_linker_0, # of connection points: 2
#     Edge 77, Type (0, 1), BuildingBlock: CIFDUS_clean_linker_0, # of connection points: 2
#     Edge 78, Type (0, 1), BuildingBlock: CIFDUS_clean_linker_0, # of connection points: 2
#     Edge 79, Type (0, 1), BuildingBlock: CIFDUS_clean_linker_0, # of connection points: 2
#     Edge 80, Type (0, 1), BuildingBlock: CIFDUS_clean_linker_0, # of connection points: 2
#     Edge 81, Type (0, 1), BuildingBlock: CIFDUS_clean_linker_0, # of connection points: 2
#     Edge 82, Type (0, 1), BuildingBlock: CIFDUS_clean_linker_0, # of connection points: 2
#     Edge 83, Type (0, 1), BuildingBlock: CIFDUS_clean_linker_0, # of connection points: 2
#     Edge 84, Type (0, 1), BuildingBlock: CIFDUS_clean_linker_0, # of connection points: 2
#     Edge 85, Type (0, 1), BuildingBlock: CIFDUS_clean_linker_0, # of connection points: 2
#     Edge 86, Type (0, 1), BuildingBlock: CIFDUS_clean_linker_0, # of connection points: 2
#     Edge 87, Type (0, 1), BuildingBlock: CIFDUS_clean_linker_0, # of connection points: 2
#     Edge 88, Type (0, 1), BuildingBlock: CIFDUS_clean_linker_0, # of connection points: 2
#     Edge 89, Type (0, 1), BuildingBlock: CIFDUS_clean_linker_0, # of connection points: 2
#     Edge 90, Type (0, 1), BuildingBlock: CIFDUS_clean_linker_0, # of connection points: 2
#     Edge 91, Type (0, 1), BuildingBlock: CIFDUS_clean_linker_0, # of connection points: 2
#     Edge 92, Type (0, 1), BuildingBlock: CIFDUS_clean_linker_0, # of connection points: 2
#     Edge 93, Type (0, 1), BuildingBlock: CIFDUS_clean_linker_0, # of connection points: 2
#     Edge 94, Type (0, 1), BuildingBlock: CIFDUS_clean_linker_0, # of connection points: 2
#     Edge 95, Type (0, 1), BuildingBlock: CIFDUS_clean_linker_0, # of connection points: 2
#     Edge 96, Type (0, 1), BuildingBlock: CIFDUS_clean_linker_0, # of connection points: 2
#     Edge 97, Type (0, 1), BuildingBlock: CIFDUS_clean_linker_0, # of connection points: 2
#     Edge 98, Type (0, 1), BuildingBlock: CIFDUS_clean_linker_0, # of connection points: 2
#     Edge 99, Type (0, 1), BuildingBlock: CIFDUS_clean_linker_0, # of connection points: 2
#     Edge 100, Type (0, 1), BuildingBlock: CIFDUS_clean_linker_0, # of connection points: 2
#     Edge 101, Type (0, 1), BuildingBlock: CIFDUS_clean_linker_0, # of connection points: 2
#     Edge 102, Type (0, 1), BuildingBlock: CIFDUS_clean_linker_0, # of connection points: 2
#     Edge 103, Type (0, 1), BuildingBlock: CIFDUS_clean_linker_0, # of connection points: 2
#     Edge 104, Type (0, 1), BuildingBlock: CIFDUS_clean_linker_0, # of connection points: 2
#     Edge 105, Type (0, 1), BuildingBlock: CIFDUS_clean_linker_0, # of connection points: 2
#     Edge 106, Type (0, 1), BuildingBlock: CIFDUS_clean_linker_0, # of connection points: 2
#     Edge 107, Type (0, 1), BuildingBlock: CIFDUS_clean_linker_0, # of connection points: 2
#     Edge 108, Type (0, 1), BuildingBlock: CIFDUS_clean_linker_0, # of connection points: 2
#     Edge 109, Type (0, 1), BuildingBlock: CIFDUS_clean_linker_0, # of connection points: 2
#     Edge 110, Type (0, 1), BuildingBlock: CIFDUS_clean_linker_0, # of connection points: 2
#     Edge 111, Type (0, 1), BuildingBlock: CIFDUS_clean_linker_0, # of connection points: 2
#     Edge 112, Type (0, 1), BuildingBlock: CIFDUS_clean_linker_0, # of connection points: 2
#     Edge 113, Type (0, 1), BuildingBlock: CIFDUS_clean_linker_0, # of connection points: 2
#     Edge 114, Type (0, 1), BuildingBlock: CIFDUS_clean_linker_0, # of connection points: 2
#     Edge 115, Type (0, 1), BuildingBlock: CIFDUS_clean_linker_0, # of connection points: 2
#     Edge 116, Type (0, 1), BuildingBlock: CIFDUS_clean_linker_0, # of connection points: 2
#     Edge 117, Type (0, 1), BuildingBlock: CIFDUS_clean_linker_0, # of connection points: 2
#     Edge 118, Type (0, 1), BuildingBlock: CIFDUS_clean_linker_0, # of connection points: 2
#     Edge 119, Type (0, 1), BuildingBlock: CIFDUS_clean_linker_0, # of connection points: 2
#     Edge 120, Type (0, 1), BuildingBlock: CIFDUS_clean_linker_0, # of connection points: 2
#     Edge 121, Type (0, 1), BuildingBlock: CIFDUS_clean_linker_0, # of connection points: 2
#     Edge 122, Type (0, 1), BuildingBlock: CIFDUS_clean_linker_0, # of connection points: 2
#     Edge 123, Type (0, 1), BuildingBlock: CIFDUS_clean_linker_0, # of connection points: 2
#     Edge 124, Type (0, 1), BuildingBlock: CIFDUS_clean_linker_0, # of connection points: 2
#     Edge 125, Type (0, 1), BuildingBlock: CIFDUS_clean_linker_0, # of connection points: 2
#     Edge 126, Type (0, 1), BuildingBlock: CIFDUS_clean_linker_0, # of connection points: 2
#     Edge 127, Type (0, 1), BuildingBlock: CIFDUS_clean_linker_0, # of connection points: 2
#     Edge 128, Type (0, 1), BuildingBlock: CIFDUS_clean_linker_0, # of connection points: 2
#     Edge 129, Type (0, 1), BuildingBlock: CIFDUS_clean_linker_0, # of connection points: 2
#     Edge 130, Type (0, 1), BuildingBlock: CIFDUS_clean_linker_0, # of connection points: 2
#     Edge 131, Type (0, 1), BuildingBlock: CIFDUS_clean_linker_0, # of connection points: 2
#     Edge 132, Type (0, 1), BuildingBlock: CIFDUS_clean_linker_0, # of connection points: 2
#     Edge 133, Type (0, 1), BuildingBlock: CIFDUS_clean_linker_0, # of connection points: 2
#     Edge 134, Type (0, 1), BuildingBlock: CIFDUS_clean_linker_0, # of connection points: 2
#     Edge 135, Type (0, 1), BuildingBlock: CIFDUS_clean_linker_0, # of connection points: 2
# Relax obj value: 0.378
# Max RMSD: 0.286
# Mean RMSD: 0.188
data_MOF--net-iac--node1-AZAVOO_clean_sbu_0--node2-FUNLAD_clean_sbu_0--edge1-CIFDUS_clean_linker_0
_symmetry_space_group_name_H-M    P1
_symmetry_Int_Tables_number       1
_symmetry_cell_setting            triclinic
loop_
_symmetry_equiv_pos_as_xyz
'x, y, z'
_cell_length_a     49.553597
_cell_length_b     45.594492
_cell_length_c     52.052956
_cell_angle_alpha  92.330294
_cell_angle_beta   92.410048
_cell_angle_gamma 90.791927
loop_
_atom_site_label
_atom_site_type_symbol
_atom_site_fract_x
_atom_site_fract_y
_atom_site_fract_z
_atom_type_partial_charge
Mg0 Mg 0.04244 0.23508 0.20098 0.0
O1 O 0.04183 0.20664 0.16385 0.0
O2 O 0.00169 0.21097 0.14304 0.0
Mg3 Mg 0.97657 0.24183 0.16733 0.0
C4 C 0.02563 0.20093 0.14453 0.0
C5 C 0.10271 0.23364 0.18513 0.0
O6 O 0.09157 0.2292 0.16196 0.0
O7 O 0.04687 0.27443 0.17678 0.0
O8 O 0.00699 0.27617 0.15515 0.0
O9 O 0.02609 0.19751 0.22243 0.0
O10 O 0.00152 0.22949 0.20105 0.0
C11 C 0.03112 0.28545 0.15999 0.0
C12 C 0.00272 0.20566 0.21345 0.0
O13 O 0.08808 0.23443 0.20466 0.0
Mg14 Mg 0.0331 0.75032 0.37279 0.0
O15 O 0.03482 0.79154 0.40166 0.0
O16 O -0.00083 0.78653 0.42616 0.0
Mg17 Mg 0.97484 0.74495 0.41354 0.0
C18 C 0.02013 0.8008 0.41997 0.0
C19 C 0.07959 0.7519 0.33535 0.0
O20 O 0.05817 0.74281 0.32136 0.0
O21 O 0.04692 0.71827 0.40418 0.0
O22 O 0.00985 0.71517 0.42709 0.0
O23 O 0.00711 0.77465 0.34471 0.0
O24 O 0.99041 0.74787 0.37459 0.0
C25 C 0.03399 0.70758 0.42252 0.0
C26 C 0.98605 0.76495 0.35575 0.0
O27 O 0.0768 0.75787 0.35927 0.0
Mg28 Mg 0.5083 0.75282 0.6472 0.0
O29 O 0.50979 0.70543 0.63231 0.0
O30 O 0.47114 0.69605 0.60942 0.0
Mg31 Mg 0.44563 0.73706 0.60948 0.0
C32 C 0.49413 0.68821 0.61854 0.0
C33 C 0.56001 0.7353 0.67585 0.0
O34 O 0.54218 0.71768 0.68544 0.0
O35 O 0.51672 0.76622 0.60769 0.0
O36 O 0.47762 0.75913 0.58519 0.0
O37 O 0.48899 0.73956 0.68209 0.0
O38 O 0.46671 0.7509 0.64609 0.0
C39 C 0.50245 0.76732 0.58686 0.0
C40 C 0.46631 0.74107 0.66897 0.0
O41 O 0.55254 0.75214 0.65819 0.0
Mg42 Mg 0.54077 0.26486 0.87352 0.0
O43 O 0.53799 0.30077 0.90698 0.0
O44 O 0.50124 0.28861 0.92801 0.0
Mg45 Mg 0.47996 0.24839 0.90807 0.0
C46 C 0.52161 0.30546 0.92513 0.0
C47 C 0.59324 0.2638 0.84474 0.0
O48 O 0.57553 0.24827 0.83021 0.0
O49 O 0.55348 0.22839 0.90064 0.0
O50 O 0.51511 0.21771 0.91958 0.0
O51 O 0.51611 0.29265 0.84715 0.0
O52 O 0.49837 0.26001 0.87178 0.0
C53 C 0.54003 0.21296 0.91574 0.0
C54 C 0.49467 0.28006 0.85526 0.0
O55 O 0.58546 0.27556 0.86577 0.0
Mg56 Mg 0.1647 0.03604 0.27388 0.0
O57 O 0.19352 0.07551 0.26788 0.0
O58 O 0.21803 0.08072 0.30497 0.0
Mg59 Mg 0.20594 0.047 0.3336 0.0
C60 C 0.21197 0.08867 0.28222 0.0
C61 C 0.12416 0.0219 0.23344 0.0
O62 O 0.11602 0.01366 0.25579 0.0
O63 O 0.19904 0.00348 0.26857 0.0
O64 O 0.221 0.00985 0.30686 0.0
O65 O 0.13392 0.06528 0.29047 0.0
O66 O 0.16661 0.04494 0.31335 0.0
C67 C 0.21781 0.99663 0.28477 0.0
C68 C 0.14606 0.06186 0.31256 0.0
O69 O 0.14812 0.03221 0.23239 0.0
Mg70 Mg 0.29839 0.91733 0.57131 0.0
O71 O 0.30058 0.88666 0.53476 0.0
O72 O 0.33701 0.85883 0.54112 0.0
Mg73 Mg 0.3588 0.87241 0.57923 0.0
C74 C 0.31647 0.86634 0.52742 0.0
C75 C 0.23826 0.93102 0.58068 0.0
O76 O 0.24805 0.92596 0.6039 0.0
O77 O 0.28495 0.87901 0.5958 0.0
O78 O 0.32333 0.85462 0.60129 0.0
O79 O 0.32381 0.95107 0.55244 0.0
O80 O 0.34065 0.91605 0.5759 0.0
C81 C 0.29837 0.85815 0.60556 0.0
C82 C 0.34488 0.93761 0.56123 0.0
O83 O 0.25394 0.929 0.56192 0.0
Mg84 Mg 0.40687 0.02911 0.75284 0.0
O85 O 0.37716 0.98923 0.75531 0.0
O86 O 0.36119 0.99391 0.79492 0.0
Mg87 Mg 0.37993 0.03323 0.81739 0.0
C88 C 0.36208 0.98042 0.773 0.0
C89 C 0.42297 -0.00018 0.70152 0.0
O90 O 0.42432 0.97747 0.71665 0.0
O91 O 0.37182 0.06134 0.74887 0.0
O92 O 0.35849 0.06349 0.78941 0.0
O93 O 0.44081 0.0026 0.7678 0.0
O94 O 0.41416 0.02877 0.79244 0.0
C95 C 0.3566 0.07159 0.76622 0.0
C96 C 0.43366 0.01049 0.79061 0.0
O97 O 0.41224 0.02342 0.70968 0.0
Mg98 Mg 0.31479 0.06984 0.99344 0.0
O99 O 0.32375 0.10112 0.02894 0.0
O100 O 0.3568 0.13184 0.0184 0.0
Mg101 Mg 0.36816 0.12118 0.97735 0.0
C102 C 0.33991 0.12287 0.0343 0.0
C103 C 0.27079 0.04397 0.0308 0.0
O104 O 0.28893 0.04663 0.04993 0.0
O105 O 0.29196 0.10647 0.97484 0.0
O106 O 0.32576 0.13732 0.96638 0.0
O107 O 0.34662 0.03947 0.00662 0.0
O108 O 0.35288 0.07648 0.98105 0.0
C109 C 0.30067 0.13061 0.96663 0.0
C110 C 0.3628 0.05531 0.99378 0.0
O111 O 0.2763 0.05237 0.00867 0.0
Mg112 Mg 0.78602 0.42618 0.06138 0.0
O113 O 0.78903 0.39823 0.02318 0.0
O114 O 0.8287 0.37537 0.02625 0.0
Mg115 Mg 0.84911 0.38508 0.06562 0.0
C116 C 0.80699 0.38152 0.01366 0.0
C117 C 0.73554 0.45334 0.03391 0.0
O118 O 0.7548 0.46113 0.01887 0.0
O119 O 0.77446 0.38545 0.08332 0.0
O120 O 0.81403 0.36259 0.08528 0.0
O121 O 0.80904 0.46257 0.04428 0.0
O122 O 0.82848 0.42732 0.0657 0.0
C123 C 0.78908 0.36413 0.09043 0.0
C124 C 0.83101 0.44998 0.05194 0.0
O125 O 0.74146 0.43718 0.05263 0.0
Mg126 Mg 0.90979 0.51348 0.2561 0.0
O127 O 0.8777 0.47519 0.25335 0.0
O128 O 0.85605 0.48038 0.29032 0.0
Mg129 Mg 0.87397 0.51719 0.31649 0.0
C130 C 0.85943 0.46734 0.26857 0.0
C131 C 0.93715 0.49229 0.20641 0.0
O132 O 0.94377 0.47152 0.22216 0.0
O133 O 0.87725 0.54783 0.24927 0.0
O134 O 0.85868 0.5502 0.28766 0.0
O135 O 0.93993 0.48414 0.27455 0.0
O136 O 0.9111 0.51102 0.29593 0.0
C137 C 0.86052 0.55894 0.2648 0.0
C138 C 0.92977 0.49169 0.29626 0.0
O139 O 0.9202 0.51135 0.21351 0.0
Mg140 Mg 0.8124 0.57161 0.51914 0.0
O141 O 0.81749 0.60515 0.55295 0.0
O142 O 0.85663 0.62999 0.55157 0.0
Mg143 Mg 0.87927 0.61266 0.5168 0.0
C144 C 0.8342 0.62496 0.56192 0.0
C145 C 0.79222 0.52371 0.55785 0.0
O146 O 0.79487 0.50539 0.5766 0.0
O147 O 0.80594 0.60985 0.49231 0.0
O148 O 0.84626 0.63245 0.49173 0.0
O149 O 0.84008 0.53645 0.538 0.0
O150 O 0.85601 0.57165 0.51673 0.0
C151 C 0.82132 0.63018 0.48468 0.0
C152 C 0.86083 0.54925 0.52955 0.0
O153 O 0.81341 0.53452 0.54847 0.0
Mg154 Mg 0.6703 0.5102 0.75852 0.0
O155 O 0.69609 0.55287 0.75628 0.0
O156 O 0.71737 0.55797 0.79516 0.0
Mg157 Mg 0.7076 0.52043 0.82054 0.0
C158 C 0.71187 0.56709 0.77269 0.0
C159 C 0.64077 0.48692 0.7112 0.0
O160 O 0.63037 0.47412 0.73076 0.0
O161 O 0.70741 0.48227 0.75419 0.0
O162 O 0.72808 0.48817 0.79301 0.0
O163 O 0.63656 0.53646 0.77378 0.0
O164 O 0.66947 0.51781 0.79779 0.0
C165 C 0.72663 0.47668 0.77021 0.0
C166 C 0.64863 0.53433 0.79615 0.0
O167 O 0.66002 0.50545 0.71566 0.0
Mg168 Mg 0.95217 0.83458 0.89613 0.0
O169 O 0.95614 0.8543 0.93649 0.0
O170 O 0.91909 0.84457 0.95795 0.0
Mg171 Mg 0.88996 0.81981 0.92905 0.0
C172 C 0.94301 0.85512 0.95703 0.0
C173 C 0.00258 0.85432 0.87047 0.0
O174 O 0.98307 0.8624 0.85453 0.0
O175 O 0.95921 0.79094 0.91366 0.0
O176 O 0.91974 0.78183 0.93149 0.0
O177 O 0.93274 0.87376 0.87973 0.0
O178 O 0.91125 0.83692 0.89665 0.0
C179 C 0.94371 0.7745 0.92597 0.0
C180 C 0.91016 0.86139 0.88529 0.0
O181 O 0.99653 0.84187 0.89087 0.0
Mg182 Mg 0.03379 0.27347 0.66668 0.0
O183 O 0.03319 0.22983 0.6412 0.0
O184 O 0.99438 0.23042 0.61772 0.0
Mg185 Mg 0.96891 0.26971 0.63044 0.0
C186 C 0.01685 0.21853 0.62368 0.0
C187 C 0.08484 0.27185 0.70098 0.0
O188 O 0.06462 0.27452 0.71639 0.0
O189 O 0.04045 0.30204 0.63162 0.0
O190 O -0.00078 0.30081 0.61225 0.0
O191 O 0.01331 0.25172 0.69909 0.0
O192 O 0.9913 0.2736 0.66799 0.0
C193 C 0.02372 0.31015 0.61396 0.0
C194 C 0.99043 0.25984 0.68907 0.0
O195 O 0.07956 0.27023 0.6768 0.0
Mg196 Mg 0.50726 0.24324 0.38579 0.0
O197 O 0.53172 0.2869 0.39333 0.0
O198 O 0.4895 0.29319 0.38694 0.0
Mg199 Mg 0.44478 0.29529 0.38847 0.0
C200 C 0.51178 0.30355 0.39623 0.0
C201 C 0.5667 0.21711 0.39373 0.0
O202 O 0.58462 0.20039 0.40496 0.0
O203 O 0.49229 0.24903 0.42647 0.0
O204 O 0.4533 0.27401 0.42754 0.0
O205 O 0.50448 0.24465 0.34204 0.0
O206 O 0.47553 0.2661 0.3676 0.0
C207 C 0.47237 0.25971 0.43844 0.0
C208 C 0.4824 0.2592 0.34453 0.0
O209 O 0.54246 0.2163 0.40056 0.0
Mg210 Mg 0.52552 0.7835 0.1677 0.0
O211 O 0.5252 0.73934 0.14352 0.0
O212 O 0.49259 0.74263 0.1128 0.0
Mg213 Mg 0.46861 0.7848 0.12047 0.0
C214 C 0.51208 0.72887 0.12341 0.0
C215 C 0.57253 0.77198 0.20814 0.0
O216 O 0.5513 0.77262 0.22244 0.0
O217 O 0.54124 0.80989 0.13424 0.0
O218 O 0.50443 0.81335 0.10822 0.0
O219 O 0.49692 0.76607 0.19645 0.0
O220 O 0.48331 0.78756 0.16131 0.0
C221 C 0.52911 0.81997 0.11432 0.0
C222 C 0.47706 0.77529 0.18216 0.0
O223 O 0.56901 0.7753 0.18404 0.0
Mg224 Mg 0.91557 0.01052 0.81791 0.0
O225 O 0.88488 0.97368 0.81011 0.0
O226 O 0.85285 0.97776 0.83882 0.0
Mg227 Mg 0.86753 0.01341 0.86897 0.0
C228 C 0.8624 0.96565 0.81868 0.0
C229 C 0.94335 0.98136 0.77091 0.0
O230 O 0.95264 0.96417 0.78879 0.0
O231 O 0.88421 0.04317 0.80479 0.0
O232 O 0.85796 0.04753 0.83864 0.0
O233 O 0.942 0.98281 0.84233 0.0
O234 O 0.90989 0.01111 0.85718 0.0
C235 C 0.86469 0.05506 0.81635 0.0
C236 C 0.92898 0.99292 0.86178 0.0
O237 O 0.92839 0.00268 0.77709 0.0
Mg238 Mg 0.79106 0.10357 0.47555 0.0
O239 O 0.79349 0.13512 0.51049 0.0
O240 O 0.82928 0.16515 0.50857 0.0
Mg241 Mg 0.85206 0.15 0.47312 0.0
C242 C 0.80818 0.15655 0.5195 0.0
C243 C 0.7402 0.08368 0.50616 0.0
O244 O 0.75936 0.07609 0.52269 0.0
O245 O 0.77873 0.14086 0.44887 0.0
O246 O 0.81733 0.16689 0.44748 0.0
O247 O 0.81729 0.07127 0.4968 0.0
O248 O 0.83307 0.10568 0.47278 0.0
C249 C 0.7925 0.16232 0.44079 0.0
C250 C 0.83793 0.08445 0.48772 0.0
O251 O 0.74676 0.09438 0.485 0.0
Mg252 Mg 0.63701 0.01044 0.30913 0.0
O253 O 0.66115 0.05272 0.31036 0.0
O254 O 0.68538 0.05915 0.34713 0.0
Mg255 Mg 0.67598 0.01782 0.36965 0.0
C256 C 0.67766 0.06774 0.32501 0.0
C257 C 0.61911 0.04064 0.2601 0.0
O258 O 0.60744 0.05763 0.27718 0.0
O259 O 0.67471 0.98428 0.30183 0.0
O260 O 0.69688 0.98694 0.34013 0.0
O261 O 0.6032 0.03346 0.32779 0.0
O262 O 0.63606 0.01093 0.34891 0.0
C263 C 0.69453 0.97732 0.31667 0.0
C264 C 0.6145 0.02644 0.34952 0.0
O265 O 0.6312 0.01774 0.26707 0.0
Mg266 Mg 0.76035 0.90238 0.06264 0.0
O267 O 0.74849 0.89592 0.02004 0.0
O268 O 0.78583 0.90308 -0.00179 0.0
Mg269 Mg 0.8203 0.9196 0.02648 0.0
C270 C 0.76078 0.89621 -0.00098 0.0
C271 C 0.70121 0.87161 0.06237 0.0
O272 O 0.68423 0.85126 0.06919 0.0
O273 O 0.78447 0.86122 0.05965 0.0
O274 O 0.82444 0.87435 0.04486 0.0
O275 O 0.75102 0.95128 0.0647 0.0
O276 O 0.78965 0.93231 0.05388 0.0
C277 C 0.80883 0.85559 0.05457 0.0
C278 C 0.7753 0.9551 0.0573 0.0
O279 O 0.72443 0.87387 0.07364 0.0
Mg280 Mg 0.28323 0.62048 0.98202 0.0
O281 O 0.29091 0.64801 0.01934 0.0
O282 O 0.33226 0.66801 0.01979 0.0
Mg283 Mg 0.35142 0.65375 0.98208 0.0
C284 C 0.30972 0.664 0.03024 0.0
C285 C 0.2325 0.58812 -0.00308 0.0
O286 O 0.25053 0.56789 0.99252 0.0
O287 O 0.2763 0.66296 0.95955 0.0
O288 O 0.31918 0.67903 0.95997 0.0
O289 O 0.30434 0.58184 -0.00035 0.0
O290 O 0.32494 0.61495 0.97766 0.0
C291 C 0.29428 0.68151 0.95313 0.0
C292 C 0.32646 0.5917 0.99067 0.0
O293 O 0.23871 0.61468 0.99286 0.0
Mg294 Mg 0.13792 0.51761 0.80835 0.0
O295 O 0.1581 0.56204 0.81591 0.0
O296 O 0.18061 0.56374 0.85382 0.0
Mg297 Mg 0.17066 0.51986 0.87231 0.0
C298 C 0.17331 0.57553 0.83286 0.0
C299 C 0.12211 0.55307 0.76116 0.0
O300 O 0.1108 0.56861 0.77948 0.0
O301 O 0.17854 0.49594 0.80242 0.0
O302 O 0.19553 0.49405 0.84281 0.0
O303 O 0.10046 0.53379 0.82638 0.0
O304 O 0.13373 0.51181 0.84731 0.0
C305 C 0.19663 0.48773 0.8187 0.0
C306 C 0.11058 0.52422 0.84775 0.0
O307 O 0.13419 0.52959 0.76666 0.0
Mg308 Mg 0.24382 0.3284 0.53762 0.0
O309 O 0.25822 0.34962 0.50159 0.0
O310 O 0.30321 0.3559 0.50334 0.0
Mg311 Mg 0.31928 0.33002 0.53706 0.0
C312 C 0.27993 0.35955 0.4925 0.0
C313 C 0.18494 0.33812 0.50787 0.0
O314 O 0.16365 0.32619 0.49544 0.0
O315 O 0.25525 0.28294 0.52108 0.0
O316 O 0.29752 0.29032 0.51665 0.0
O317 O 0.24816 0.37357 0.55745 0.0
O318 O 0.28085 0.34131 0.55642 0.0
C319 C 0.27924 0.27865 0.52942 0.0
C320 C 0.27316 0.36722 0.56252 0.0
O321 O 0.20214 0.32132 0.51816 0.0
Mg322 Mg 0.42602 0.54466 0.31071 0.0
O323 O 0.40561 0.50134 0.29847 0.0
O324 O 0.37586 0.48999 0.32755 0.0
Mg325 Mg 0.38467 0.52188 0.3627 0.0
C326 C 0.38673 0.48516 0.30602 0.0
C327 C 0.45181 0.5273 0.26062 0.0
O328 O 0.46348 0.51002 0.27717 0.0
O329 O 0.38652 0.56938 0.30505 0.0
O330 O 0.36528 0.5596 0.34094 0.0
O331 O 0.46078 0.52188 0.32897 0.0
O332 O 0.42482 0.53571 0.34968 0.0
C333 C 0.36726 0.57362 0.32032 0.0
C334 C 0.44796 0.52317 0.35012 0.0
O335 O 0.43569 0.54675 0.26865 0.0
C336 C 0.98298 0.01366 0.00691 0.0
N337 N 0.95479 0.04072 0.07844 0.0
C338 C 0.94056 0.06037 0.06449 0.0
C339 C 0.91319 0.06448 0.06837 0.0
C340 C 0.90032 0.04795 0.08655 0.0
C341 C 0.91615 0.03025 0.10257 0.0
C342 C 0.94355 0.02689 0.09812 0.0
Zn343 Zn 0.99056 0.02686 0.0645 0.0
C344 C 0.99527 0.96342 0.06217 0.0
N345 N 0.06331 0.00114 0.03081 0.0
C346 C 0.07318 0.01421 0.01008 0.0
C347 C 0.07867 0.98281 0.04511 0.0
C348 C 0.10585 0.97916 0.04019 0.0
C349 C 0.11716 0.99444 0.02033 0.0
C350 C 0.10025 0.01106 0.0044 0.0
Zn351 Zn 0.02781 0.01452 0.04482 0.0
O352 O 0.97106 0.02196 0.02705 0.0
C353 C 0.02187 0.07783 0.04608 0.0
O354 O 0.00818 0.00895 0.00838 0.0
H355 H 0.07036 0.97267 0.06152 0.0
H356 H 0.94978 0.07106 0.04883 0.0
H357 H 0.06058 0.02875 -0.00092 0.0
O358 O 0.0011 0.06997 0.05759 0.0
O359 O 0.03814 0.05867 0.03803 0.0
H360 H 0.95523 0.01135 0.10893 0.0
O361 O 0.04731 0.02029 0.08091 0.0
O362 O 0.01104 0.03129 0.10187 0.0
O363 O 0.01705 0.97081 0.05188 0.0
O364 O 0.97998 0.98328 0.07073 0.0
C365 C 0.03647 0.02751 0.10177 0.0
H366 H 0.90175 0.07851 0.05577 0.0
H367 H 0.907 0.01687 0.11668 0.0
H368 H 0.11822 0.9659 0.05269 0.0
H369 H 0.10828 0.02337 0.98901 0.0
C370 C 0.33615 0.78407 0.25332 0.0
N371 N 0.26362 0.75877 0.21362 0.0
C372 C 0.27327 0.77503 0.19458 0.0
C373 C 0.27266 0.76376 0.16926 0.0
C374 C 0.26213 0.73542 0.16345 0.0
C375 C 0.25032 0.72007 0.1831 0.0
C376 C 0.25133 0.73222 0.20824 0.0
Zn377 Zn 0.27509 0.77144 0.25067 0.0
C378 C 0.29573 0.71999 0.27921 0.0
N379 N 0.30348 0.79665 0.32721 0.0
C380 C 0.31588 0.82316 0.33252 0.0
C381 C 0.29435 0.78024 0.34642 0.0
C382 C 0.2964 0.7909 0.37197 0.0
C383 C 0.30775 0.81887 0.37787 0.0
C384 C 0.31815 0.83478 0.35783 0.0
Zn385 Zn 0.29211 0.78379 0.28996 0.0
O386 O 0.31585 0.77807 0.23809 0.0
C387 C 0.27158 0.83542 0.26101 0.0
O388 O 0.3323 0.78844 0.27722 0.0
H389 H 0.28409 0.75948 0.34183 0.0
H390 H 0.28315 0.79598 0.19927 0.0
H391 H 0.3229 0.83595 0.317 0.0
O392 O 0.26519 0.81568 0.24382 0.0
O393 O 0.28364 0.82813 0.28179 0.0
H394 H 0.24398 0.71955 0.22369 0.0
O395 O 0.25219 0.77855 0.30224 0.0
O396 O 0.23459 0.76452 0.26434 0.0
O397 O 0.30022 0.73929 0.29726 0.0
O398 O 0.28529 0.72752 0.25784 0.0
C399 C 0.23166 0.77018 0.28828 0.0
H400 H 0.28155 0.77654 0.1546 0.0
H401 H 0.24207 0.6981 0.17946 0.0
H402 H 0.2879 0.77801 0.38675 0.0
H403 H 0.32738 0.85628 0.3616 0.0
C404 C 0.52391 0.02666 0.58924 0.0
N405 N 0.55668 0.96281 0.54002 0.0
C406 C 0.56927 0.9501 0.56031 0.0
C407 C 0.57421 0.92002 0.55912 0.0
C408 C 0.56636 0.90315 0.53671 0.0
C409 C 0.55547 0.91743 0.51543 0.0
C410 C 0.55028 0.94723 0.51768 0.0
Zn411 Zn 0.54554 0.00536 0.54165 0.0
C412 C 0.48628 0.00921 0.52703 0.0
N413 N 0.52112 0.093 0.5365 0.0
C414 C 0.53143 0.11267 0.55485 0.0
C415 C 0.50274 0.101 0.51812 0.0
C416 C 0.49447 0.12994 0.51731 0.0
C417 C 0.50543 0.151 0.53542 0.0
C418 C 0.52396 0.14209 0.55455 0.0
Zn419 Zn 0.53246 0.05059 0.53626 0.0
O420 O 0.53356 0.00312 0.57977 0.0
C421 C 0.59201 0.0455 0.55054 0.0
O422 O 0.52362 0.04955 0.57604 0.0
H423 H 0.49493 0.08501 0.50368 0.0
H424 H 0.57432 0.963 0.57778 0.0
H425 H 0.54585 0.10563 0.56944 0.0
O426 O 0.58537 0.01884 0.55336 0.0
O427 O 0.57383 0.06368 0.54432 0.0
H428 H 0.54005 0.95759 0.50179 0.0
O429 O 0.5411 0.05152 0.49627 0.0
O430 O 0.55733 0.00824 0.50383 0.0
O431 O 0.49153 0.03659 0.52775 0.0
O432 O 0.50556 0.99149 0.53021 0.0
C433 C 0.55395 0.02908 0.48875 0.0
H434 H 0.58231 0.90985 0.57617 0.0
H435 H 0.54938 0.90533 0.49774 0.0
H436 H 0.48072 0.13604 0.50176 0.0
H437 H 0.53304 0.1578 0.56863 0.0
C438 C 0.30067 0.23123 0.75822 0.0
N439 N 0.26305 0.26238 0.82327 0.0
C440 C 0.24225 0.24269 0.81932 0.0
C441 C 0.23271 0.22726 0.83972 0.0
C442 C 0.2455 0.2311 0.86426 0.0
C443 C 0.26556 0.25328 0.86804 0.0
C444 C 0.27379 0.26894 0.84726 0.0
Zn445 Zn 0.28079 0.27907 0.79242 0.0
C446 C 0.3407 0.28887 0.80217 0.0
N447 N 0.31686 0.31199 0.72705 0.0
C448 C 0.3377 0.2972 0.71664 0.0
C449 C 0.30238 0.33162 0.71339 0.0
C450 C 0.30615 0.33388 0.68722 0.0
C451 C 0.32468 0.31545 0.67518 0.0
C452 C 0.34199 0.29858 0.6904 0.0
Zn453 Zn 0.30029 0.29686 0.75897 0.0
O454 O 0.287 0.23584 0.77802 0.0
C455 C 0.24047 0.28584 0.74924 0.0
O456 O 0.30926 0.25304 0.74636 0.0
H457 H 0.28586 0.34307 0.72204 0.0
H458 H 0.23392 0.23764 0.80011 0.0
H459 H 0.34903 0.28184 0.72797 0.0
O460 O 0.24273 0.27963 0.77273 0.0
O461 O 0.26158 0.29335 0.73792 0.0
H462 H 0.28999 0.28502 0.85008 0.0
O463 O 0.29084 0.34031 0.77206 0.0
O464 O 0.27472 0.32222 0.80687 0.0
O465 O 0.33872 0.29971 0.78 0.0
O466 O 0.31959 0.27845 0.81174 0.0
C467 C 0.28014 0.34425 0.79369 0.0
H468 H 0.21664 0.21117 0.83586 0.0
H469 H 0.27648 0.25716 0.88632 0.0
H470 H 0.29274 0.34751 0.67605 0.0
H471 H 0.35654 0.28411 0.68176 0.0
C472 C 0.09011 0.98918 0.54387 0.0
N473 N 0.05027 0.03497 0.48478 0.0
C474 C 0.07593 0.04508 0.48227 0.0
C475 C 0.08382 0.05594 0.45909 0.0
C476 C 0.06487 0.05812 0.43829 0.0
C477 C 0.03788 0.05001 0.44244 0.0
C478 C 0.03122 0.03767 0.46547 0.0
Zn479 Zn 0.04093 0.01467 0.5179 0.0
C480 C 0.02809 0.95015 0.50832 0.0
N481 N 0.02228 0.97374 0.58713 0.0
C482 C 0.03934 0.97864 0.60808 0.0
C483 C -0.00158 0.95896 0.5888 0.0
C484 C 0.99007 0.95026 0.61264 0.0
C485 C 0.00671 0.95645 0.63473 0.0
C486 C 0.03201 0.96987 0.63218 0.0
Zn487 Zn 0.03126 0.99293 0.5539 0.0
O488 O 0.08229 0.00361 0.52466 0.0
C489 C 0.04341 0.0574 0.56359 0.0
O490 O 0.07284 0.98175 0.55986 0.0
H491 H 0.98525 0.95518 0.57186 0.0
H492 H 0.09077 0.04401 0.49796 0.0
H493 H 0.05805 0.99073 0.60638 0.0
O494 O 0.04637 0.05589 0.53939 0.0
O495 O 0.03795 0.03402 0.57498 0.0
H496 H 0.01081 0.02982 0.46753 0.0
O497 O 0.9895 0.00415 0.54764 0.0
O498 O -0.0005 0.02504 0.51208 0.0
O499 O 0.0245 0.95241 0.53241 0.0
O500 O 0.03502 0.97296 0.49667 0.0
C501 C 0.98202 0.01817 0.52803 0.0
H502 H 0.10497 0.06131 0.45765 0.0
H503 H 0.02184 0.05227 0.428 0.0
H504 H 0.97039 0.93995 0.61401 0.0
H505 H 0.04515 0.97539 0.64889 0.0
C506 C 0.23797 0.79187 0.72935 0.0
N507 N 0.29666 0.7496 0.77273 0.0
C508 C 0.29499 0.72729 0.75456 0.0
C509 C 0.31828 0.71378 0.74646 0.0
C510 C 0.34345 0.72372 0.7569 0.0
C511 C 0.34444 0.74506 0.77716 0.0
C512 C 0.32055 0.75784 0.78484 0.0
Zn513 Zn 0.26295 0.77236 0.77915 0.0
C514 C 0.27211 0.83567 0.78517 0.0
N515 N 0.19016 0.81583 0.79094 0.0
C516 C 0.16758 0.8104 0.77567 0.0
C517 C 0.19011 0.83496 0.81166 0.0
C518 C 0.1663 0.84849 0.81847 0.0
C519 C 0.14235 0.84213 0.80386 0.0
C520 C 0.14327 0.82344 0.7818 0.0
Zn521 Zn 0.22431 0.79371 0.78422 0.0
O522 O 0.25632 0.77581 0.73879 0.0
C523 C 0.21572 0.73032 0.77975 0.0
O524 O 0.22066 0.80277 0.74421 0.0
H525 H 0.20839 0.83899 0.82344 0.0
H526 H 0.27572 0.72108 0.74526 0.0
H527 H 0.16821 0.79512 0.75927 0.0
O528 O 0.24123 0.73249 0.7797 0.0
O529 O 0.20171 0.75341 0.77877 0.0
H530 H 0.32125 0.77551 0.79937 0.0
O531 O 0.22836 0.78395 0.82419 0.0
O532 O 0.2698 0.76922 0.81912 0.0
O533 O 0.24723 0.83381 0.79008 0.0
O534 O 0.28471 0.81249 0.77926 0.0
C535 C 0.25019 0.77373 0.83362 0.0
H536 H 0.3168 0.69727 0.73087 0.0
H537 H 0.36354 0.75352 0.78547 0.0
H538 H 0.1664 0.86299 0.83549 0.0
H539 H 0.12514 0.8177 0.77023 0.0
C540 C 0.5657 0.95412 0.02745 0.0
N541 N 0.58358 0.03645 0.06206 0.0
C542 C 0.57108 0.06121 0.07048 0.0
C543 C 0.57557 0.07193 0.09581 0.0
C544 C 0.59293 0.05683 0.1125 0.0
C545 C 0.60608 0.0318 0.10292 0.0
C546 C 0.60122 0.02209 0.07753 0.0
Zn547 Zn 0.57509 0.0186 0.02656 0.0
C548 C 0.6255 -0.00212 0.00227 0.0
N549 N 0.55877 0.98236 0.95157 0.0
C550 C 0.53714 0.96361 0.94912 0.0
C551 C 0.571 0.99225 0.93061 0.0
C552 C 0.55982 0.98555 0.90597 0.0
C553 C 0.53593 0.96858 0.90317 0.0
C554 C 0.52548 0.95619 0.92494 0.0
Zn555 Zn 0.56835 9e-05 0.9872 0.0
O556 O 0.57274 0.97605 0.04211 0.0
C557 C 0.51797 0.0188 0.01243 0.0
O558 O 0.56192 0.95785 0.00348 0.0
H559 H 0.58823 0.00708 0.93308 0.0
H560 H 0.55711 0.07224 0.05774 0.0
H561 H 0.52759 0.95614 0.96602 0.0
O562 O 0.53369 0.02354 0.03201 0.0
O563 O 0.52744 0.00997 0.99127 0.0
H564 H 0.6109 0.00245 0.07041 0.0
O565 O 0.57385 0.04306 0.9715 0.0
O566 O 0.57634 0.06099 0.01121 0.0
O567 O 0.60927 0.98973 0.98372 0.0
O568 O 0.61663 0.01277 0.02119 0.0
C569 C 0.57511 0.06523 0.98722 0.0
H570 H 0.56516 0.09139 0.10238 0.0
H571 H 0.61909 0.01893 0.11516 0.0
H572 H 0.56835 0.99568 0.88962 0.0
H573 H 0.50719 0.94282 0.92346 0.0
C574 C 0.28524 0.24205 0.2617 0.0
N575 N 0.31828 0.27251 0.19533 0.0
C576 C 0.33218 0.24706 0.1969 0.0
C577 C 0.33816 0.23082 0.17471 0.0
C578 C 0.33 0.24096 0.15061 0.0
C579 C 0.31687 0.26803 0.14936 0.0
C580 C 0.31099 0.28349 0.17217 0.0
Zn581 Zn 0.30518 0.29017 0.22908 0.0
C582 C 0.24607 0.30054 0.22655 0.0
N583 N 0.27668 0.32303 0.29972 0.0
C584 C 0.28807 0.31276 0.3217 0.0
C585 C 0.25859 0.3453 0.30025 0.0
C586 C 0.25187 0.35868 0.3237 0.0
C587 C 0.26433 0.3492 0.34643 0.0
C588 C 0.28225 0.32572 0.34538 0.0
Zn589 Zn 0.28968 0.30627 0.26593 0.0
O590 O 0.29309 0.24687 0.2393 0.0
C591 C 0.34887 0.29633 0.269 0.0
O592 O 0.28355 0.26337 0.27795 0.0
H593 H 0.24988 0.35316 0.28246 0.0
H594 H 0.33774 0.23867 0.21548 0.0
H595 H 0.30221 0.29494 0.32084 0.0
O596 O 0.34438 0.28527 0.24644 0.0
O597 O 0.32948 0.30705 0.28124 0.0
H598 H 0.29975 0.30363 0.17142 0.0
O599 O 0.29546 0.34837 0.25441 0.0
O600 O 0.31718 0.33451 0.22019 0.0
O601 O 0.25078 0.30586 0.2504 0.0
O602 O 0.26554 0.29478 0.21207 0.0
C603 C 0.309 0.3549 0.23535 0.0
H604 H 0.34862 0.21024 0.17639 0.0
H605 H 0.31021 0.27646 0.13104 0.0
H606 H 0.23782 0.37667 0.32405 0.0
H607 H 0.29183 0.31764 0.36275 0.0
C608 C 0.58338 0.51061 0.03274 0.0
N609 N 0.55236 0.54922 0.96627 0.0
C610 C 0.573 0.53416 0.95588 0.0
C611 C 0.5832 0.5423 0.93278 0.0
C612 C 0.57181 0.56588 0.91994 0.0
C613 C 0.55052 0.58117 0.9309 0.0
C614 C 0.54119 0.57257 0.95449 0.0
Zn615 Zn 0.53799 0.53389 -0.00087 0.0
C616 C 0.52805 0.46773 0.99201 0.0
N617 N 0.50904 0.49936 0.06725 0.0
C618 C 0.5183 0.47584 0.08004 0.0
C619 C 0.49101 0.51798 0.07783 0.0
C620 C 0.48289 0.51458 0.10268 0.0
C621 C 0.49288 0.49136 0.11701 0.0
C622 C 0.51026 0.47125 0.10509 0.0
Zn623 Zn 0.52391 0.51315 0.03387 0.0
O624 O 0.57811 0.52485 0.01269 0.0
C625 C 0.53438 0.57982 0.04001 0.0
O626 O 0.56408 0.50314 0.04656 0.0
H627 H 0.48402 0.53675 0.06759 0.0
H628 H 0.58122 0.5153 0.96519 0.0
H629 H 0.53273 0.46137 0.07128 0.0
O630 O 0.5403 0.57665 0.01658 0.0
O631 O 0.52802 0.55716 0.05203 0.0
H632 H 0.52474 0.58417 0.96312 0.0
O633 O 0.48362 0.52291 0.02065 0.0
O634 O 0.49802 0.54262 0.98606 0.0
O635 O 0.52054 0.46964 0.01517 0.0
O636 O 0.53544 0.49101 0.98144 0.0
C637 C 0.47858 0.53597 -5e-05 0.0
H638 H 0.59923 0.52955 0.92453 0.0
H639 H 0.54118 0.59931 0.92129 0.0
H640 H 0.47015 0.53126 0.11092 0.0
H641 H 0.51824 0.45278 0.11521 0.0
C642 C 0.74497 0.2779 0.21024 0.0
N643 N 0.80496 0.22348 0.23978 0.0
C644 C 0.80377 0.20509 0.21848 0.0
C645 C 0.8268 0.19005 0.21109 0.0
C646 C 0.85108 0.19403 0.22585 0.0
C647 C 0.85135 0.21268 0.24801 0.0
C648 C 0.82804 0.22717 0.25463 0.0
Zn649 Zn 0.77264 0.24632 0.25167 0.0
C650 C 0.78884 0.30964 0.26591 0.0
N651 N 0.70731 0.29476 0.28113 0.0
C652 C 0.6832 0.29152 0.26778 0.0
C653 C 0.7088 0.30627 0.30565 0.0
C654 C 0.68527 0.31092 0.31893 0.0
C655 C 0.65996 0.30413 0.30664 0.0
C656 C 0.65914 0.29667 0.28011 0.0
Zn657 Zn 0.74 0.27321 0.26767 0.0
O658 O 0.76388 0.25993 0.21436 0.0
C659 C 0.72443 0.20989 0.25445 0.0
O660 O 0.73056 0.28621 0.22885 0.0
H661 H 0.72821 0.30903 0.31582 0.0
H662 H 0.78507 0.20239 0.20708 0.0
H663 H 0.68245 0.28236 0.24827 0.0
O664 O 0.74787 0.20863 0.24563 0.0
O665 O 0.71593 0.23424 0.26336 0.0
H666 H 0.82854 0.24184 0.27149 0.0
O667 O 0.75016 0.25958 0.30616 0.0
O668 O 0.78089 0.23195 0.28901 0.0
O669 O 0.76448 0.31141 0.27251 0.0
O670 O 0.79764 0.28495 0.25797 0.0
C671 C 0.76798 0.24 0.3085 0.0
H672 H 0.82575 0.17594 0.19383 0.0
H673 H 0.86971 0.21718 0.25961 0.0
H674 H 0.68724 0.31678 0.33928 0.0
H675 H 0.64016 0.29221 0.26952 0.0
C676 C 0.06285 0.45424 0.53993 0.0
N677 N 0.09177 0.53816 0.56252 0.0
C678 C 0.07569 0.53633 0.58294 0.0
C679 C 0.08494 0.54628 0.60731 0.0
C680 C 0.11128 0.55766 0.61098 0.0
C681 C 0.1274 0.56006 0.58959 0.0
C682 C 0.11703 0.55034 0.56524 0.0
Zn683 Zn 0.07747 0.51758 0.52917 0.0
C684 C 0.11985 0.48588 0.50089 0.0
N685 N 0.04519 0.47084 0.46257 0.0
C686 C 0.02191 0.45475 0.46308 0.0
C687 C 0.05734 0.47547 0.44012 0.0
C688 C 0.04502 0.46556 0.41677 0.0
C689 C 0.01987 0.451 0.41659 0.0
C690 C 0.00879 0.44458 0.44014 0.0
Zn691 Zn 0.0602 0.49209 0.49519 0.0
O692 O 0.07162 0.47853 0.55014 0.0
C693 C 0.01733 0.52148 0.52367 0.0
O694 O 0.05632 0.45286 0.51603 0.0
H695 H 0.07582 0.48837 0.44019 0.0
H696 H 0.05606 0.52573 0.5807 0.0
H697 H 0.01272 0.45119 0.4812 0.0
O698 O 0.03766 0.5318 0.53684 0.0
O699 O 0.02084 0.50366 0.50482 0.0
H700 H 0.12954 0.55137 0.54876 0.0
O701 O 0.06392 0.53208 0.47468 0.0
O702 O 0.0826 0.55671 0.50809 0.0
O703 O 0.09936 0.47994 0.48606 0.0
O704 O 0.11713 0.50213 0.52105 0.0
C705 C 0.07369 0.55607 0.48475 0.0
H706 H 0.07216 0.54332 0.62342 0.0
H707 H 0.14794 0.56849 0.59184 0.0
H708 H 0.05404 0.47131 0.39902 0.0
H709 H 0.98945 0.43331 0.44072 0.0
C710 C 0.78647 0.71031 0.27374 0.0
N711 N 0.75319 0.75461 0.3353 0.0
C712 C 0.7385 0.72936 0.33692 0.0
C713 C 0.73582 0.71679 0.36069 0.0
C714 C 0.7481 0.7307 0.38284 0.0
C715 C 0.75933 0.75897 0.38097 0.0
C716 C 0.76212 0.77036 0.35679 0.0
Zn717 Zn 0.76921 0.76415 0.30117 0.0
C718 C 0.82999 0.77253 0.30823 0.0
N719 N 0.80564 0.78246 0.23079 0.0
C720 C 0.8023 0.76124 0.21173 0.0
C721 C 0.82034 0.80725 0.22724 0.0
C722 C 0.83149 0.81183 0.20346 0.0
C723 C 0.82819 0.79029 0.1833 0.0
C724 C 0.81402 0.76433 0.18815 0.0
Zn725 Zn 0.78867 0.77511 0.26518 0.0
O726 O 0.77324 0.71904 0.29279 0.0
C727 C 0.72804 0.76634 0.25814 0.0
O728 O 0.79594 0.72918 0.25916 0.0
H729 H 0.82299 0.82377 0.24267 0.0
H730 H 0.73121 0.7174 0.31958 0.0
H731 H 0.79027 0.74181 0.21457 0.0
O732 O 0.73012 0.76321 0.28233 0.0
O733 O 0.74943 0.77054 0.24593 0.0
H734 H 0.77373 0.7904 0.35513 0.0
O735 O 0.78104 0.82116 0.27235 0.0
O736 O 0.76546 0.80924 0.3095 0.0
O737 O 0.8276 0.77956 0.28483 0.0
O738 O 0.8089 0.76494 0.31959 0.0
C739 C 0.77132 0.82876 0.29386 0.0
H740 H 0.7269 0.69502 0.36122 0.0
H741 H 0.76844 0.77074 0.3977 0.0
H742 H 0.84171 0.83254 0.20079 0.0
H743 H 0.81137 0.74664 0.17373 0.0
C744 C 0.84396 0.26622 0.74925 0.0
N745 N 0.77308 0.2391 0.7095 0.0
C746 C 0.78554 0.25289 0.69049 0.0
C747 C 0.78452 0.24089 0.6655 0.0
C748 C 0.76962 0.21485 0.65942 0.0
C749 C 0.75504 0.20242 0.67911 0.0
C750 C 0.75741 0.21472 0.70422 0.0
Zn751 Zn 0.78324 0.25405 0.74621 0.0
C752 C 0.79969 0.20641 0.78053 0.0
N753 N 0.80909 0.28711 0.82126 0.0
C754 C 0.8265 0.31029 0.82568 0.0
C755 C 0.79561 0.2755 0.84082 0.0
C756 C 0.79854 0.28789 0.86575 0.0
C757 C 0.81585 0.31219 0.87077 0.0
C758 C 0.83038 0.32309 0.8505 0.0
Zn759 Zn 0.79901 0.27121 0.78457 0.0
O760 O 0.82336 0.25899 0.73505 0.0
C761 C 0.78258 0.31912 0.75094 0.0
O762 O 0.84105 0.27217 0.77313 0.0
H763 H 0.78193 0.25701 0.83701 0.0
H764 H 0.79768 0.27246 0.69494 0.0
H765 H 0.83682 0.31937 0.80984 0.0
O766 O 0.77495 0.29771 0.73585 0.0
O767 O 0.79411 0.31406 0.77251 0.0
H768 H 0.74757 0.20416 0.71963 0.0
O769 O 0.75691 0.27 0.79478 0.0
O770 O 0.74302 0.24943 0.75769 0.0
O771 O 0.80359 0.22825 0.79621 0.0
O772 O 0.79184 0.21049 0.75738 0.0
C773 C 0.73773 0.25923 0.78012 0.0
H774 H 0.79666 0.25134 0.65161 0.0
H775 H 0.74259 0.1829 0.6755 0.0
H776 H 0.78731 0.27859 0.88096 0.0
H777 H 0.84392 0.34186 0.85366 0.0
C778 C 0.74841 0.73709 0.77113 0.0
N779 N 0.78489 0.77773 0.71141 0.0
C780 C 0.80689 0.76072 0.71569 0.0
C781 C 0.819 0.74615 0.69526 0.0
C782 C 0.80793 0.74846 0.67029 0.0
C783 C 0.78599 0.76703 0.6661 0.0
C784 C 0.77488 0.78187 0.68708 0.0
Zn785 Zn 0.76387 0.79077 0.74284 0.0
C786 C 0.70415 0.78805 0.73201 0.0
N787 N 0.72058 0.81262 0.81023 0.0
C788 C 0.72806 0.79863 0.83197 0.0
C789 C 0.70755 0.83872 0.81159 0.0
C790 C 0.70481 0.85347 0.8354 0.0
C791 C 0.71482 0.8407 0.85786 0.0
C792 C 0.72505 0.81223 0.85613 0.0
Zn793 Zn 0.73952 0.80022 0.7772 0.0
O794 O 0.76034 0.74575 0.75164 0.0
C795 C 0.79857 0.80569 0.78839 0.0
O796 O 0.73796 0.75575 0.78633 0.0
H797 H 0.70163 0.84952 0.79418 0.0
H798 H 0.81415 0.75688 0.73511 0.0
H799 H 0.73901 0.77834 0.8307 0.0
O800 O 0.80029 0.79686 0.7651 0.0
O801 O 0.77564 0.80686 0.79814 0.0
H802 H 0.75737 0.79537 0.68401 0.0
O803 O 0.74249 0.84452 0.76766 0.0
O804 O 0.76796 0.83542 0.7349 0.0
O805 O 0.70336 0.79408 0.75601 0.0
O806 O 0.7267 0.78637 0.72131 0.0
C807 C 0.75774 0.85377 0.75065 0.0
H808 H 0.83567 0.73161 0.69914 0.0
H809 H 0.77695 0.76911 0.64696 0.0
H810 H 0.69674 0.87543 0.83609 0.0
H811 H 0.7333 0.80186 0.87304 0.0
C812 C 0.5017 0.49316 0.49274 0.0
N813 N 0.47096 0.45028 0.55542 0.0
C814 C 0.45005 0.46934 0.55518 0.0
C815 C 0.42459 0.46059 0.5627 0.0
C816 C 0.42017 0.43161 0.56989 0.0
C817 C 0.44216 0.41233 0.56979 0.0
C818 C 0.46752 0.42223 0.5627 0.0
Zn819 Zn 0.50772 0.46523 0.54433 0.0
C820 C 0.53533 0.42252 0.51078 0.0
N821 N 0.58321 0.49987 0.52071 0.0
C822 C 0.58834 0.5293 0.52026 0.0
C823 C 0.60376 0.48033 0.52087 0.0
C824 C 0.63053 0.49014 0.52242 0.0
C825 C 0.63623 0.52028 0.52441 0.0
C826 C 0.61496 0.5401 0.5225 0.0
Zn827 Zn 0.5459 0.48406 0.53003 0.0
O828 O 0.48888 0.48075 0.5101 0.0
C829 C 0.51642 0.52684 0.56236 0.0
O830 O 0.52699 0.49803 0.49594 0.0
H831 H 0.59962 0.45714 0.52208 0.0
H832 H 0.453 0.49148 0.54906 0.0
H833 H 0.57186 0.54458 0.52021 0.0
O834 O 0.5008 0.50483 0.5635 0.0
O835 O 0.53756 0.52477 0.54949 0.0
H836 H 0.48437 0.40741 0.56271 0.0
O837 O 0.56425 0.47002 0.56397 0.0
O838 O 0.52761 0.45054 0.57871 0.0
O839 O 0.55271 0.44323 0.51061 0.0
O840 O 0.51462 0.4255 0.52418 0.0
C841 C 0.55263 0.45716 0.58169 0.0
H842 H 0.4086 0.47651 0.56281 0.0
H843 H 0.43981 0.38959 0.57459 0.0
H844 H 0.64656 0.47434 0.52435 0.0
H845 H 0.61881 0.56355 0.52432 0.0
C846 C 0.01915 0.53608 0.08443 0.0
N847 N 0.06244 0.46782 0.05279 0.0
C848 C 0.08082 0.47097 0.0729 0.0
C849 C 0.08838 0.44673 0.08683 0.0
C850 C 0.076 0.41928 0.08063 0.0
C851 C 0.05916 0.41635 0.05814 0.0
C852 C 0.05294 0.44096 0.04426 0.0
Zn853 Zn 0.04361 0.50377 0.03987 0.0
C854 C 0.98472 0.4932 0.02979 0.0
N855 N 0.00415 0.57995 0.01648 0.0
C856 C 0.01019 0.60699 0.02733 0.0
C857 C 0.98595 0.57613 -0.00373 0.0
C858 C 0.97313 0.60017 0.98598 0.0
C859 C 0.97962 0.62829 -0.00371 0.0
C860 C -0.00177 0.63175 0.01726 0.0
Zn861 Zn 0.0233 0.54427 0.02904 0.0
O862 O 0.03388 0.51469 0.07798 0.0
C863 C 0.08228 0.55476 0.03855 0.0
O864 O 0.01261 0.55459 0.06771 0.0
H865 H 0.9818 0.55446 0.9877 0.0
H866 H 0.08814 0.49256 0.0794 0.0
H867 H 0.02468 0.60938 0.04343 0.0
O868 O 0.08049 0.52771 0.04325 0.0
O869 O 0.06077 0.56861 0.03334 0.0
H870 H 0.03866 0.43891 0.02799 0.0
O871 O 0.0336 0.53327 0.99055 0.0
O872 O 0.05285 0.49247 0.00181 0.0
O873 O 0.98629 0.52008 0.02459 0.0
O874 O 0.00619 0.48 0.03622 0.0
C875 C 0.04666 0.51037 0.98453 0.0
H876 H 0.10223 0.45002 0.10335 0.0
H877 H 0.04879 0.39597 0.05236 0.0
H878 H 0.95909 0.59696 0.96954 0.0
H879 H 0.0036 0.65335 0.02553 0.0
H880 H 0.00305 0.19498 0.09634 0.0
H881 H 0.06961 0.16537 0.14434 0.0
H882 H 0.08076 0.12899 0.11094 0.0
H883 H 0.06485 0.09884 0.07324 0.0
H884 H 0.99469 0.12463 0.02862 0.0
H885 H 0.99267 0.17041 0.05446 0.0
C886 C 0.02021 0.18082 0.09937 0.0
C887 C 0.03486 0.18208 0.12309 0.0
C888 C 0.02613 0.15962 0.08036 0.0
C889 C 0.0576 0.16432 0.12644 0.0
C890 C 0.06407 0.1436 0.10731 0.0
C891 C 0.05016 0.11537 0.0683 0.0
C892 C 0.02986 0.10864 0.04934 0.0
C893 C 0.04765 0.14013 0.08477 0.0
C894 C 0.01058 0.12971 0.04313 0.0
C895 C 0.00905 0.15548 0.0583 0.0
H896 H 0.12943 0.76682 0.35785 0.0
H897 H 0.08964 0.7426 0.28457 0.0
H898 H 0.13248 0.74578 0.26351 0.0
H899 H 0.18176 0.75534 0.26553 0.0
H900 H 0.22141 0.77944 0.33895 0.0
H901 H 0.17859 0.77634 0.3599 0.0
C902 C 0.13011 0.76229 0.33728 0.0
C903 C 0.10615 0.75448 0.32297 0.0
C904 C 0.15501 0.76407 0.3251 0.0
C905 C 0.10761 0.74865 0.29625 0.0
C906 C 0.13221 0.75044 0.28408 0.0
C907 C 0.18105 0.75987 0.2861 0.0
C908 C 0.20499 0.76761 0.30047 0.0
C909 C 0.15611 0.75809 0.29827 0.0
C910 C 0.20347 0.77343 0.3272 0.0
C911 C 0.17888 0.77168 0.33933 0.0
H912 H 0.55512 0.78136 0.58161 0.0
H913 H 0.47607 0.78851 0.54436 0.0
H914 H 0.4926 0.82833 0.51911 0.0
H915 H 0.52481 0.8688 0.51767 0.0
H916 H 0.60239 0.86503 0.55833 0.0
H917 H 0.5911 0.81597 0.57224 0.0
C918 C 0.54166 0.79112 0.56748 0.0
C919 C 0.51413 0.78297 0.56565 0.0
C920 C 0.55088 0.815 0.55413 0.0
C921 C 0.4972 0.79492 0.54659 0.0
C922 C 0.50659 0.81785 0.53229 0.0
C923 C 0.53983 0.85685 0.52862 0.0
C924 C 0.56413 0.87083 0.53759 0.0
C925 C 0.53275 0.82937 0.53737 0.0
C926 C 0.58325 0.85496 0.55179 0.0
C927 C 0.57679 0.82698 0.55976 0.0
H928 H 0.44552 0.25957 0.86966 0.0
H929 H 0.48217 0.31669 0.81649 0.0
H930 H 0.43804 0.32515 0.79577 0.0
H931 H 0.38909 0.3144 0.79117 0.0
H932 H 0.35238 0.25825 0.8451 0.0
H933 H 0.39621 0.25156 0.86696 0.0
C934 C 0.44385 0.27413 0.85373 0.0
C935 C 0.46728 0.28735 0.84466 0.0
C936 C 0.41829 0.27898 0.84184 0.0
C937 C 0.46458 0.30618 0.82396 0.0
C938 C 0.43929 0.31098 0.81199 0.0
C939 C 0.39064 0.30084 0.80779 0.0
C940 C 0.36736 0.28673 0.81628 0.0
C941 C 0.41602 0.29718 0.8205 0.0
C942 C 0.36985 0.2694 0.83803 0.0
C943 C 0.39498 0.26548 0.85058 0.0
H944 H 0.0009 0.82069 0.46559 0.0
H945 H 0.05284 0.8463 0.40566 0.0
H946 H 0.05937 0.89497 0.42705 0.0
H947 H 0.04936 0.93089 0.46263 0.0
H948 H -0.00135 0.90347 0.52294 0.0
H949 H 0.99248 0.8552 0.50145 0.0
C950 C 0.01376 0.83681 0.45715 0.0
C951 C 0.02625 0.82967 0.43388 0.0
C952 C 0.01748 0.86468 0.46959 0.0
C953 C 0.04303 0.85097 0.42354 0.0
C954 C 0.04665 0.87893 0.43573 0.0
C955 C 0.03687 0.91437 0.47098 0.0
C956 C 0.02433 0.92102 0.49436 0.0
C957 C 0.03377 0.88617 0.45868 0.0
C958 C 0.00854 0.89912 0.50503 0.0
C959 C 0.00499 0.87142 0.49274 0.0
H960 H 0.4601 0.72085 0.71651 0.0
H961 H 0.41553 0.74122 0.64652 0.0
H962 H 0.37314 0.73194 0.66695 0.0
H963 H 0.34913 0.72524 0.70605 0.0
H964 H 0.39311 0.70891 0.7772 0.0
H965 H 0.43564 0.70917 0.75482 0.0
C966 C 0.44112 0.72286 0.7056 0.0
C967 C 0.44092 0.73198 0.68012 0.0
C968 C 0.41683 0.71837 0.7177 0.0
C969 C 0.41624 0.73432 0.66618 0.0
C970 C 0.39198 0.72909 0.67786 0.0
C971 C 0.36791 0.72072 0.71651 0.0
C972 C 0.36813 0.717 0.74316 0.0
C973 C 0.39209 0.72203 0.70381 0.0
C974 C 0.39263 0.71188 0.75664 0.0
C975 C 0.41685 0.71218 0.7439 0.0
H976 H 0.53394 0.1922 0.96346 0.0
H977 H 0.57362 0.17412 0.89261 0.0
H978 H 0.58871 0.12681 0.90819 0.0
H979 H 0.58781 0.08876 0.94115 0.0
H980 H 0.55139 0.10962 0.01336 0.0
H981 H 0.53812 0.15736 -0.00176 0.0
C982 C 0.54623 0.17807 0.95161 0.0
C983 C 0.55252 0.1866 0.92688 0.0
C984 C 0.55533 0.15118 0.96092 0.0
C985 C 0.56864 0.16815 0.9118 0.0
C986 C 0.57712 0.14098 0.92064 0.0
C987 C 0.5773 0.10395 0.95364 0.0
C988 C 0.57053 0.09545 0.97832 0.0
C989 C 0.57019 0.13197 0.94503 0.0
C990 C 0.55703 0.11554 0.99434 0.0
C991 C 0.54927 0.14288 0.98567 0.0
H992 H 0.12226 0.27555 0.21858 0.0
H993 H 0.14543 0.21613 0.15714 0.0
H994 H 0.19218 0.23476 0.16204 0.0
H995 H 0.22673 0.26567 0.18619 0.0
H996 H 0.20226 0.32546 0.24702 0.0
H997 H 0.15537 0.30963 0.23938 0.0
C998 C 0.13762 0.26655 0.20639 0.0
C999 C 0.13084 0.24403 0.18804 0.0
C1000 C 0.16398 0.2778 0.2089 0.0
C1001 C 0.15053 0.23319 0.1717 0.0
C1002 C 0.17711 0.24393 0.1744 0.0
C1003 C 0.21099 0.27578 0.19723 0.0
C1004 C 0.21784 0.29651 0.21723 0.0
C1005 C 0.18411 0.26606 0.19315 0.0
C1006 C 0.19738 0.30933 0.2316 0.0
C1007 C 0.17064 0.30013 0.22741 0.0
H1008 H 0.13162 0.04187 0.18542 0.0
H1009 H 0.07238 0.00096 0.23144 0.0
H1010 H 0.03906 0.00151 0.19576 0.0
H1011 H 0.02677 0.01233 0.15074 0.0
H1012 H 0.08655 0.05144 0.10438 0.0
H1013 H 0.11921 0.05336 0.14082 0.0
C1014 C 0.11146 0.03298 0.1876 0.0
C1015 C 0.10465 0.02129 0.21105 0.0
C1016 C 0.09226 0.03331 0.16694 0.0
C1017 C 0.07832 0.01002 0.21357 0.0
C1018 C 0.05912 0.0104 0.19319 0.0
C1019 C 0.04681 0.02167 0.14886 0.0
C1020 C 0.05427 0.03177 0.12505 0.0
C1021 C 0.06583 0.02196 0.16974 0.0
C1022 C 0.08042 0.04345 0.12262 0.0
C1023 C 0.09915 0.04447 0.14339 0.0
H1024 H 0.29876 0.89153 0.48344 0.0
H1025 H 0.32696 0.80992 0.51301 0.0
H1026 H 0.32634 0.78782 0.46943 0.0
H1027 H 0.32009 0.79241 0.42274 0.0
H1028 H 0.29392 0.87462 0.39279 0.0
H1029 H 0.29191 0.89589 0.43652 0.0
C1030 C 0.30429 0.86876 0.48032 0.0
C1031 C 0.31266 0.85228 0.50139 0.0
C1032 C 0.30476 0.85647 0.45509 0.0
C1033 C 0.32036 0.823 0.49707 0.0
C1034 C 0.32013 0.81039 0.47216 0.0
C1035 C 0.3138 0.81492 0.4258 0.0
C1036 C 0.3073 0.83191 0.40451 0.0
C1037 C 0.31278 0.82705 0.45099 0.0
C1038 C 0.29945 0.86118 0.40881 0.0
C1039 C 0.29807 0.8733 0.43383 0.0
H1040 H 0.44528 0.04717 0.67996 0.0
H1041 H 0.43974 0.95266 0.67285 0.0
H1042 H 0.47242 0.95239 0.63889 0.0
H1043 H 0.50277 0.97905 0.61145 0.0
H1044 H 0.50851 0.07358 0.619 0.0
H1045 H 0.47612 0.07371 0.6531 0.0
C1046 C 0.4509 0.02653 0.67072 0.0
C1047 C 0.43983 -3e-05 0.67871 0.0
C1048 C 0.47024 0.0265 0.65174 0.0
C1049 C 0.44779 0.9734 0.66689 0.0
C1050 C 0.46664 0.97322 0.64763 0.0
C1051 C 0.49737 -0.00035 0.62092 0.0
C1052 C 0.50829 0.02626 0.61286 0.0
C1053 C 0.47824 -0.00038 0.64011 0.0
C1054 C 0.50061 0.05278 0.62499 0.0
C1055 C 0.48188 0.0529 0.64432 0.0
H1056 H 0.26601 0.12023 0.92629 0.0
H1057 H 0.29383 0.1871 0.98235 0.0
H1058 H 0.27051 0.22467 0.95795 0.0
H1059 H 0.25082 0.2391 0.91673 0.0
H1060 H 0.23238 0.17232 0.85692 0.0
H1061 H 0.24127 0.13437 0.88706 0.0
C1062 C 0.26612 0.14293 0.93343 0.0
C1063 C 0.2815 0.15124 0.95576 0.0
C1064 C 0.25427 0.16452 0.91846 0.0
C1065 C 0.28205 0.18056 0.965 0.0
C1066 C 0.26883 0.20194 0.95104 0.0
C1067 C 0.24862 0.21628 0.91022 0.0
C1068 C 0.24198 0.20895 0.88418 0.0
C1069 C 0.25626 0.19435 0.92701 0.0
C1070 C 0.23764 0.17911 0.87666 0.0
C1071 C 0.24317 0.15713 0.89386 0.0
H1072 H 0.0938 0.05833 0.32184 0.0
H1073 H 0.17086 0.08632 0.35641 0.0
H1074 H 0.15023 0.09412 0.39818 0.0
H1075 H 0.11175 0.08707 0.42509 0.0
H1076 H 0.03824 0.04675 0.39074 0.0
H1077 H 0.05539 0.05174 0.34873 0.0
C1078 C 0.10588 0.06685 0.33843 0.0
C1079 C 0.13362 0.07198 0.33628 0.0
C1080 C 0.0944 0.06911 0.36249 0.0
C1081 C 0.14938 0.08234 0.35784 0.0
C1082 C 0.1376 0.08665 0.38162 0.0
C1083 C 0.09939 0.07865 0.40875 0.0
C1084 C 0.07371 0.06573 0.41207 0.0
C1085 C 0.11034 0.07892 0.38434 0.0
C1086 C 0.05789 0.05703 0.38977 0.0
C1087 C 0.06786 0.05945 0.36532 0.0
H1088 H 0.25176 0.86655 0.63159 0.0
H1089 H 0.31689 0.80572 0.62153 0.0
H1090 H 0.30128 0.77729 0.6567 0.0
H1091 H 0.27295 0.77305 0.69364 0.0
H1092 H 0.20872 0.83447 0.70543 0.0
H1093 H 0.21975 0.8587 0.66604 0.0
C1094 C 0.26222 0.84677 0.63676 0.0
C1095 C 0.28575 0.83863 0.62407 0.0
C1096 C 0.25338 0.8306 0.65747 0.0
C1097 C 0.29897 0.81284 0.6311 0.0
C1098 C 0.29006 0.79648 0.65126 0.0
C1099 C 0.26094 0.79135 0.68737 0.0
C1100 C 0.24021 0.80205 0.70271 0.0
C1101 C 0.26784 0.80567 0.66511 0.0
C1102 C 0.22483 0.82573 0.69409 0.0
C1103 C 0.23127 0.83978 0.67163 0.0
H1104 H 0.48275 0.98524 0.7931 0.0
H1105 H 0.41617 0.01047 0.83968 0.0
H1106 H 0.44118 0.996 0.87817 0.0
H1107 H 0.48328 0.98099 0.89897 0.0
H1108 H 0.55143 0.95868 0.85356 0.0
H1109 H 0.52441 0.96709 0.81402 0.0
C1110 C 0.47359 0.9872 0.81165 0.0
C1111 C 0.44769 -0.00085 0.81355 0.0
C1112 C 0.48841 0.97949 0.83384 0.0
C1113 C 0.43613 0.00169 0.83767 0.0
C1114 C 0.45042 0.99335 0.85972 0.0
C1115 C 0.49203 0.97716 0.88039 0.0
C1116 C 0.51917 0.96897 0.87906 0.0
C1117 C 0.47675 0.98287 0.85806 0.0
C1118 C 0.53051 0.96494 0.85494 0.0
C1119 C 0.51512 0.96981 0.83242 0.0
H1120 H 0.35511 0.17953 0.04392 0.0
H1121 H 0.31846 0.10556 0.07907 0.0
H1122 H 0.31272 0.13564 0.11848 0.0
H1123 H 0.31726 0.18332 0.14241 0.0
H1124 H 0.35179 0.25763 0.10616 0.0
H1125 H 0.35907 0.22701 0.06741 0.0
C1126 C 0.34612 0.16983 0.06028 0.0
C1127 C 0.33747 0.14024 0.05868 0.0
C1128 C 0.34233 0.18738 0.08251 0.0
C1129 C 0.32536 0.12824 0.07987 0.0
C1130 C 0.32205 0.14543 0.10236 0.0
C1131 C 0.32655 0.19269 0.12605 0.0
C1132 C 0.33416 0.22259 0.12708 0.0
C1133 C 0.33033 0.17506 0.10381 0.0
C1134 C 0.34571 0.2347 0.10568 0.0
C1135 C 0.34995 0.21719 0.08363 0.0
H1136 H 0.23653 0.02161 0.99335 0.0
H1137 H 0.2448 0.03675 0.07572 0.0
H1138 H 0.19826 0.01921 0.07992 0.0
H1139 H 0.15419 0.00448 0.05952 0.0
H1140 H 0.14626 0.9905 0.97702 0.0
H1141 H 0.1941 0.0027 0.97349 0.0
C1142 C 0.22823 0.02098 0.01228 0.0
C1143 C 0.24386 0.03093 0.03418 0.0
C1144 C 0.20164 0.01116 0.01446 0.0
C1145 C 0.23306 0.02938 0.05859 0.0
C1146 C 0.20648 0.01943 0.06096 0.0
C1147 C 0.16311 0.00334 0.04084 0.0
C1148 C 0.14678 0.99668 0.01851 0.0
C1149 C 0.19044 0.01087 0.03895 0.0
C1150 C 0.15845 0.99579 0.9944 0.0
C1151 C 0.18572 0.0028 0.99239 0.0
H1152 H 0.69308 0.45013 0.06583 0.0
H1153 H 0.71609 0.48402 0.99351 0.0
H1154 H 0.67184 0.50598 0.98763 0.0
H1155 H 0.62653 0.51537 0.00259 0.0
H1156 H 0.6027 0.48135 0.07456 0.0
H1157 H 0.6474 0.46006 0.08112 0.0
C1158 C 0.68836 0.46219 0.04873 0.0
C1159 C 0.70796 0.46528 0.03011 0.0
C1160 C 0.66279 0.47503 0.04549 0.0
C1161 C 0.70149 0.4812 0.00816 0.0
C1162 C 0.67616 0.49388 0.00478 0.0
C1163 C 0.63113 0.50358 0.01988 0.0
C1164 C 0.61124 0.50014 0.03812 0.0
C1165 C 0.6567 0.49101 0.02333 0.0
C1166 C 0.61761 0.48449 0.06025 0.0
C1167 C 0.64316 0.47217 0.06396 0.0
H1168 H 0.87559 0.41183 0.257 0.0
H1169 H 0.80514 0.46417 0.26892 0.0
H1170 H 0.77692 0.41982 0.26933 0.0
H1171 H 0.77283 0.36631 0.26963 0.0
H1172 H 0.84326 0.31328 0.25899 0.0
H1173 H 0.87097 0.35758 0.25516 0.0
C1174 C 0.85394 0.41339 0.25889 0.0
C1175 C 0.84229 0.44111 0.26247 0.0
C1176 C 0.83798 0.38769 0.26008 0.0
C1177 C 0.81438 0.44299 0.26574 0.0
C1178 C 0.79832 0.41766 0.26627 0.0
C1179 C 0.79428 0.36439 0.26663 0.0
C1180 C 0.80598 0.33649 0.26498 0.0
C1181 C 0.81002 0.3899 0.26417 0.0
C1182 C 0.83374 0.33448 0.26062 0.0
C1183 C 0.8496 0.35981 0.25826 0.0
H1184 H 0.90607 0.58076 0.54384 0.0
H1185 H 0.87694 0.49312 0.5233 0.0
H1186 H 0.92347 0.47614 0.52052 0.0
H1187 H 0.9721 0.48769 0.51949 0.0
H1188 H 0.00135 0.57488 0.54195 0.0
H1189 H 0.95501 0.59085 0.54824 0.0
C1190 C 0.91 0.55795 0.53893 0.0
C1191 C 0.88835 0.53826 0.53327 0.0
C1192 C 0.9367 0.54845 0.53742 0.0
C1193 C 0.89347 0.50855 0.52774 0.0
C1194 C 0.91999 0.49895 0.52592 0.0
C1195 C 0.96825 0.51012 0.52594 0.0
C1196 C 0.98985 0.53029 0.52984 0.0
C1197 C 0.94171 0.51892 0.52997 0.0
C1198 C 0.98488 0.55909 0.53872 0.0
C1199 C 0.95845 0.56821 0.54227 0.0
H1200 H 0.24307 0.1278 0.31104 0.0
H1201 H 0.21255 0.10902 0.23311 0.0
H1202 H 0.23482 0.15371 0.21931 0.0
H1203 H 0.26112 0.19953 0.23006 0.0
H1204 H 0.28839 0.21896 0.3088 0.0
H1205 H 0.26949 0.17229 0.32156 0.0
C1206 C 0.24139 0.13321 0.29094 0.0
C1207 C 0.22613 0.11497 0.27314 0.0
C1208 C 0.25374 0.15908 0.28331 0.0
C1209 C 0.22408 0.12267 0.24725 0.0
C1210 C 0.23685 0.1482 0.23935 0.0
C1211 C 0.26325 0.19324 0.24991 0.0
C1212 C 0.27626 0.21249 0.26848 0.0
C1213 C 0.25152 0.16674 0.25728 0.0
C1214 C 0.27848 0.20444 0.29421 0.0
C1215 C 0.26763 0.17783 0.30151 0.0
H1216 H 0.36085 0.98581 0.53563 0.0
H1217 H 0.39179 0.90852 0.57118 0.0
H1218 H 0.4374 0.92218 0.56073 0.0
H1219 H 0.46909 0.95724 0.54401 0.0
H1220 H 0.43976 0.03709 0.51186 0.0
H1221 H 0.3931 0.02115 0.51816 0.0
C1222 C 0.37755 0.97184 0.54091 0.0
C1223 C 0.37263 0.94593 0.55402 0.0
C1224 C 0.40413 0.9803 0.53541 0.0
C1225 C 0.39465 0.92835 0.56092 0.0
C1226 C 0.42091 0.9362 0.55498 0.0
C1227 C 0.45251 0.97098 0.53789 0.0
C1228 C 0.45795 -0.00179 0.52721 0.0
C1229 C 0.42592 0.96223 0.54248 0.0
C1230 C 0.43616 0.01594 0.51995 0.0
C1231 C 0.40948 0.0069 0.52369 0.0
H1232 H 0.81523 0.57839 0.2865 0.0
H1233 H 0.87043 0.59794 0.22737 0.0
H1234 H 0.84979 0.646 0.22255 0.0
H1235 H 0.82047 0.68486 0.2397 0.0
H1236 H 0.76677 0.66501 0.30014 0.0
H1237 H 0.78237 0.61463 0.29975 0.0
C1238 C 0.82251 0.59297 0.27226 0.0
C1239 C 0.84464 0.58484 0.25765 0.0
C1240 C 0.81103 0.62068 0.27006 0.0
C1241 C 0.85348 0.60372 0.23893 0.0
C1242 C 0.84182 0.6313 0.23632 0.0
C1243 C 0.81186 0.66937 0.25247 0.0
C1244 C 0.79283 0.67885 0.27024 0.0
C1245 C 0.82127 0.64042 0.25248 0.0
C1246 C 0.7817 0.65844 0.28651 0.0
C1247 C 0.79062 0.62959 0.28633 0.0
H1248 H 0.72126 0.43506 0.73129 0.0
H1249 H 0.77459 0.4651 0.79502 0.0
H1250 H 0.79995 0.41984 0.79147 0.0
H1251 H 0.80177 0.36888 0.77553 0.0
H1252 H 0.74698 0.33744 0.71351 0.0
H1253 H 0.72777 0.38635 0.71078 0.0
C1254 C 0.73886 0.43205 0.74397 0.0
C1255 C 0.74565 0.45311 0.76377 0.0
C1256 C 0.75286 0.40556 0.74236 0.0
C1257 C 0.76863 0.44898 0.77991 0.0
C1258 C 0.78312 0.42307 0.77795 0.0
C1259 C 0.78596 0.37284 0.76108 0.0
C1260 C 0.77535 0.34948 0.74517 0.0
C1261 C 0.77457 0.4007 0.7601 0.0
C1262 C 0.75528 0.35503 0.72619 0.0
C1263 C 0.74419 0.38295 0.7247 0.0
H1264 H 0.92087 0.87727 0.00075 0.0
H1265 H -0.00294 0.85844 0.96674 0.0
H1266 H 0.02133 0.88288 0.00325 0.0
H1267 H 0.02045 0.91779 0.03946 0.0
H1268 H 0.94435 0.94239 0.07073 0.0
H1269 H 0.92079 0.90591 0.04207 0.0
C1270 C 0.94278 0.87817 0.00159 0.0
C1271 C 0.95711 0.86703 0.98072 0.0
C1272 C 0.95669 0.89304 0.02238 0.0
C1273 C 0.98552 0.8678 0.98219 0.0
C1274 C -0.00054 0.8815 0.00318 0.0
C1275 C -0.0012 0.91452 0.04065 0.0
C1276 C 0.98404 0.93366 0.05626 0.0
C1277 C 0.98521 0.89542 0.0227 0.0
C1278 C 0.95617 0.9284 0.05835 0.0
C1279 C 0.94258 0.9079 0.04161 0.0
H1280 H 0.94032 0.27896 0.67479 0.0
H1281 H 0.98321 0.23455 0.73525 0.0
H1282 H 0.94259 0.23433 0.7604 0.0
H1283 H 0.89432 0.24724 0.76548 0.0
H1284 H 0.85193 0.29025 0.7039 0.0
H1285 H 0.89272 0.29095 0.67937 0.0
C1286 C 0.94077 0.26893 0.69334 0.0
C1287 C 0.96487 0.25667 0.70295 0.0
C1288 C 0.91737 0.26906 0.70782 0.0
C1289 C 0.96496 0.24399 0.72719 0.0
C1290 C 0.94173 0.24403 0.74173 0.0
C1291 C 0.89424 0.25713 0.74689 0.0
C1292 C 0.87019 0.269 0.73669 0.0
C1293 C 0.9178 0.25676 0.73238 0.0
C1294 C 0.87022 0.28113 0.71226 0.0
C1295 C 0.89352 0.28142 0.69812 0.0
H1296 H 0.51266 0.26073 0.47451 0.0
H1297 H 0.42785 0.24044 0.462 0.0
H1298 H 0.42917 0.20934 0.49921 0.0
H1299 H 0.4575 0.17732 0.52562 0.0
H1300 H 0.54321 0.19464 0.53462 0.0
H1301 H 0.53844 0.23834 0.50955 0.0
C1302 C 0.49429 0.2504 0.48067 0.0
C1303 C 0.47042 0.25192 0.46535 0.0
C1304 C 0.49553 0.2317 0.50129 0.0
C1305 C 0.4465 0.23917 0.4735 0.0
C1306 C 0.44735 0.22116 0.49459 0.0
C1307 C 0.47489 0.19141 0.5229 0.0
C1308 C 0.50075 0.18236 0.53107 0.0
C1309 C 0.4722 0.21555 0.50726 0.0
C1310 C 0.52313 0.20099 0.5282 0.0
C1311 C 0.52047 0.22579 0.51355 0.0
H1312 H 0.62198 0.77467 0.186 0.0
H1313 H 0.58495 0.76154 0.25835 0.0
H1314 H 0.62927 0.75777 0.2798 0.0
H1315 H 0.67867 0.75956 0.27867 0.0
H1316 H 0.71632 0.77311 0.20676 0.0
H1317 H 0.67189 0.7752 0.1847 0.0
C1318 C 0.6236 0.77084 0.20643 0.0
C1319 C 0.59997 0.7685 0.22046 0.0
C1320 C 0.64938 0.76881 0.21885 0.0
C1321 C 0.60262 0.76355 0.24696 0.0
C1322 C 0.62805 0.76138 0.25933 0.0
C1323 C 0.67723 0.76283 0.25814 0.0
C1324 C 0.70096 0.76622 0.24449 0.0
C1325 C 0.65158 0.76419 0.24555 0.0
C1326 C 0.69851 0.77045 0.21785 0.0
C1327 C 0.67304 0.77169 0.20518 0.0
H1328 H 0.0392 0.168 0.64162 0.0
H1329 H 0.00983 0.20784 0.57236 0.0
H1330 H 0.01801 0.16265 0.54727 0.0
H1331 H 0.03076 0.11073 0.54518 0.0
H1332 H 0.05574 0.06882 0.61482 0.0
H1333 H 0.05225 0.1155 0.63941 0.0
C1334 C 0.03495 0.16681 0.62099 0.0
C1335 C 0.02404 0.19134 0.60886 0.0
C1336 C 0.03881 0.14021 0.60672 0.0
C1337 C 0.01818 0.18929 0.58217 0.0
C1338 C 0.02286 0.16343 0.56779 0.0
C1339 C 0.03584 0.11191 0.56568 0.0
C1340 C 0.04376 0.08631 0.57806 0.0
C1341 C 0.0328 0.13859 0.57987 0.0
C1342 C 0.0497 0.08817 0.60476 0.0
C1343 C 0.04764 0.11488 0.61886 0.0
H1344 H 0.5888 0.27159 0.39776 0.0
H1345 H 0.56376 0.20196 0.3432 0.0
H1346 H 0.58695 0.22634 0.30917 0.0
H1347 H 0.62074 0.26205 0.29772 0.0
H1348 H 0.6454 0.33296 0.35162 0.0
H1349 H 0.61548 0.31365 0.38317 0.0
C1350 C 0.58782 0.26238 0.37818 0.0
C1351 C 0.57483 0.23517 0.37272 0.0
C1352 C 0.60136 0.27644 0.35884 0.0
C1353 C 0.57366 0.22303 0.34756 0.0
C1354 C 0.587 0.23687 0.32821 0.0
C1355 C 0.61895 0.2742 0.31588 0.0
C1356 C 0.63608 0.29855 0.3224 0.0
C1357 C 0.60184 0.26293 0.33395 0.0
C1358 C 0.63322 0.3136 0.34628 0.0
C1359 C 0.61606 0.30259 0.36438 0.0
H1360 H 0.51743 0.83502 0.06489 0.0
H1361 H 0.57105 0.85679 0.13055 0.0
H1362 H 0.58818 0.89948 0.10902 0.0
H1363 H 0.58493 0.93326 0.07307 0.0
H1364 H 0.53274 0.91018 0.0067 0.0
H1365 H 0.51823 0.86547 0.02687 0.0
C1366 C 0.53315 0.84886 0.07436 0.0
C1367 C 0.54271 0.84276 0.09946 0.0
C1368 C 0.54301 0.87337 0.06181 0.0
C1369 C 0.56331 0.86081 0.11126 0.0
C1370 C 0.573 0.88541 0.09902 0.0
C1371 C 0.5706 0.91827 0.06292 0.0
C1372 C 0.55972 0.92528 0.03851 0.0
C1373 C 0.56253 0.89232 0.07454 0.0
C1374 C 0.54144 0.9054 0.02548 0.0
C1375 C 0.53303 0.87984 0.03707 0.0
H1376 H 0.90588 0.86471 0.8346 0.0
H1377 H 0.85952 0.86693 0.90279 0.0
H1378 H 0.81904 0.85082 0.87721 0.0
H1379 H 0.80006 0.82667 0.83768 0.0
H1380 H 0.84844 0.81807 0.77072 0.0
H1381 H 0.88555 0.84491 0.7939 0.0
C1382 C 0.88657 0.863 0.84358 0.0
C1383 C 0.88538 0.86705 0.87036 0.0
C1384 C 0.86435 0.85087 0.82927 0.0
C1385 C 0.86058 0.86425 0.88208 0.0
C1386 C 0.83771 0.85434 0.86757 0.0
C1387 C 0.81876 0.83053 0.82813 0.0
C1388 C 0.82182 0.81964 0.80277 0.0
C1389 C 0.83992 0.84578 0.84155 0.0
C1390 C 0.84593 0.8254 0.79052 0.0
C1391 C 0.86697 0.84113 0.80361 0.0
H1392 H 0.90862 0.01537 0.90595 0.0
H1393 H 0.97157 0.95975 0.87763 0.0
H1394 H 0.99332 0.96021 0.92061 0.0
H1395 H -0.00293 0.98082 0.96504 0.0
H1396 H 0.93405 0.03631 0.99333 0.0
H1397 H 0.90978 0.03158 0.95149 0.0
C1398 C 0.92681 0.00287 0.90924 0.0
C1399 C 0.93862 0.98787 0.88851 0.0
C1400 C 0.93949 0.00368 0.93389 0.0
C1401 C 0.96212 0.97164 0.89319 0.0
C1402 C 0.97469 0.97206 0.91774 0.0
C1403 C 0.97799 0.99182 0.96204 0.0
C1404 C 0.96763 0.00936 0.98206 0.0
C1405 C 0.96405 0.98883 0.93801 0.0
C1406 C 0.94258 0.02292 0.97813 0.0
C1407 C 0.92868 0.0202 0.95422 0.0
H1408 H 0.78841 0.13216 0.56136 0.0
H1409 H 0.80998 0.21529 0.53066 0.0
H1410 H 0.79597 0.24098 0.57001 0.0
H1411 H 0.77883 0.23951 0.61314 0.0
H1412 H 0.76497 0.15553 0.64662 0.0
H1413 H 0.77313 0.13068 0.60565 0.0
C1414 C 0.78997 0.15592 0.56336 0.0
C1415 C 0.8002 0.17192 0.54332 0.0
C1416 C 0.78283 0.17038 0.58633 0.0
C1417 C 0.80237 0.20261 0.54603 0.0
C1418 C 0.79424 0.21725 0.56842 0.0
C1419 C 0.77804 0.21575 0.6119 0.0
C1420 C 0.77149 0.19972 0.63349 0.0
C1421 C 0.78472 0.20131 0.58879 0.0
C1422 C 0.76945 0.16887 0.63058 0.0
C1423 C 0.77456 0.15444 0.60714 0.0
H1424 H 0.62775 0.00481 0.39554 0.0
H1425 H 0.57288 0.0642 0.35868 0.0
H1426 H 0.54956 0.07178 0.399 0.0
H1427 H 0.54331 0.0589 0.44448 0.0
H1428 H 0.59749 0.99668 0.47885 0.0
H1429 H 0.62234 0.99289 0.43985 0.0
C1430 C 0.6109 0.01972 0.39633 0.0
C1431 C 0.60208 0.03391 0.3742 0.0
C1432 C 0.59719 0.02321 0.41915 0.0
C1433 C 0.58006 0.05298 0.37553 0.0
C1434 C 0.56666 0.05723 0.39854 0.0
C1435 C 0.56056 0.04459 0.44331 0.0
C1436 C 0.56824 0.02782 0.46442 0.0
C1437 C 0.57475 0.04201 0.42042 0.0
C1438 C 0.59075 0.00944 0.46274 0.0
C1439 C 0.60517 0.00734 0.44048 0.0
H1440 H 0.85468 0.85442 0.08417 0.0
H1441 H 0.78715 0.8007 0.05485 0.0
H1442 H 0.79113 0.7704 0.09229 0.0
H1443 H 0.80427 0.76988 0.13759 0.0
H1444 H 0.8711 0.82426 0.16848 0.0
H1445 H 0.87645 0.84418 0.12621 0.0
C1446 C 0.84185 0.83508 0.08533 0.0
C1447 C 0.82026 0.83008 0.06721 0.0
C1448 C 0.84316 0.81896 0.10776 0.0
C1449 C 0.80375 0.80501 0.06878 0.0
C1450 C 0.80572 0.78805 0.09043 0.0
C1451 C 0.82085 0.7851 0.1352 0.0
C1452 C 0.8365 0.79634 0.15673 0.0
C1453 C 0.82387 0.79642 0.11088 0.0
C1454 C 0.8578 0.81618 0.15266 0.0
C1455 C 0.8611 0.8274 0.12837 0.0
H1456 H 0.98491 0.94961 0.7525 0.0
H1457 H 0.91679 0.00147 0.72859 0.0
H1458 H 0.92878 0.99502 0.68379 0.0
H1459 H 0.96039 0.97795 0.65188 0.0
H1460 H 0.03048 0.92936 0.67557 0.0
H1461 H 0.01586 0.93087 0.72004 0.0
C1462 C 0.97259 0.95926 0.73744 0.0
C1463 C 0.95012 0.97613 0.74382 0.0
C1464 C 0.97995 0.95601 0.71174 0.0
C1465 C 0.93437 0.98864 0.72417 0.0
C1466 C 0.94114 0.98489 0.69854 0.0
C1467 C 0.97209 0.96712 0.66671 0.0
C1468 C 0.99626 0.95331 0.6606 0.0
C1469 C 0.96409 0.96903 0.69218 0.0
C1470 C 0.01171 0.93997 0.67998 0.0
C1471 C 0.00342 0.94096 0.70533 0.0
H1472 H 0.78159 0.14445 0.39189 0.0
H1473 H 0.78072 0.22058 0.44342 0.0
H1474 H 0.77083 0.25195 0.407 0.0
H1475 H 0.7665 0.25801 0.35963 0.0
H1476 H 0.77335 0.18158 0.30882 0.0
H1477 H 0.77671 0.15015 0.34544 0.0
C1478 C 0.77848 0.1678 0.39511 0.0
C1479 C 0.78116 0.18021 0.42016 0.0
C1480 C 0.77442 0.18574 0.37404 0.0
C1481 C 0.77813 0.2106 0.42421 0.0
C1482 C 0.77277 0.22852 0.40338 0.0
C1483 C 0.76872 0.23449 0.35673 0.0
C1484 C 0.7701 0.2222 0.3316 0.0
C1485 C 0.77157 0.21645 0.37808 0.0
C1486 C 0.77287 0.19166 0.32802 0.0
C1487 C 0.77459 0.17359 0.34893 0.0
H1488 H 0.57906 0.06442 0.23133 0.0
H1489 H 0.66153 0.03572 0.22952 0.0
H1490 H 0.66242 0.04513 0.18372 0.0
H1491 H 0.63804 0.05516 0.1436 0.0
H1492 H 0.55338 0.07621 0.14406 0.0
H1493 H 0.55534 0.07778 0.19099 0.0
C1494 C 0.59724 0.06065 0.22085 0.0
C1495 C 0.62002 0.04899 0.23334 0.0
C1496 C 0.59722 0.06492 0.19434 0.0
C1497 C 0.64361 0.04416 0.2199 0.0
C1498 C 0.64417 0.04966 0.19385 0.0
C1499 C 0.62002 0.06022 0.15396 0.0
C1500 C 0.5955 0.06484 0.14034 0.0
C1501 C 0.62079 0.05901 0.18073 0.0
C1502 C 0.57258 0.07253 0.15403 0.0
C1503 C 0.57357 0.07303 0.18089 0.0
H1504 H 0.76603 0.91632 0.95111 0.0
H1505 H 0.72263 0.85291 0.99344 0.0
H1506 H 0.70177 0.83178 0.95338 0.0
H1507 H 0.69982 0.82806 0.90591 0.0
H1508 H 0.74208 0.8925 0.86374 0.0
H1509 H 0.75912 0.91678 0.904 0.0
C1510 C 0.75177 0.89809 0.9515 0.0
C1511 C 0.74603 0.88597 0.97506 0.0
C1512 C 0.73968 0.88623 0.92841 0.0
C1513 C 0.72725 0.86265 0.97547 0.0
C1514 C 0.71543 0.85046 0.95258 0.0
C1515 C 0.71222 0.84783 0.90566 0.0
C1516 C 0.7197 0.85853 0.88202 0.0
C1517 C 0.722 0.86163 0.92889 0.0
C1518 C 0.73581 0.88412 0.88177 0.0
C1519 C 0.7458 0.89781 0.90477 0.0
H1520 H 0.78694 0.99215 0.09741 0.0
H1521 H 0.79484 0.98018 0.01564 0.0
H1522 H 0.83218 0.0159 0.01726 0.0
H1523 H 0.86898 0.03928 0.04327 0.0
H1524 H 0.86522 0.04552 0.12594 0.0
H1525 H 0.81978 0.02359 0.12287 0.0
C1526 C 0.79603 -0.00138 0.07985 0.0
C1527 C 0.78822 0.98402 0.05641 0.0
C1528 C 0.81877 0.01742 0.08133 0.0
C1529 C 0.80044 0.99164 0.03378 0.0
C1530 C 0.82201 0.01169 0.03481 0.0
C1531 C 0.85782 0.03703 0.06058 0.0
C1532 C 0.87056 0.04368 0.08484 0.0
C1533 C 0.8324 0.02314 0.05869 0.0
C1534 C 0.85593 0.0402 0.10709 0.0
C1535 C 0.83001 0.02758 0.10532 0.0
H1536 H 0.37155 0.59833 0.964 0.0
H1537 H 0.34036 0.55295 0.0278 0.0
H1538 H 0.38446 0.53049 0.03567 0.0
H1539 H 0.43235 0.52515 0.02511 0.0
H1540 H 0.46251 0.56984 0.96032 0.0
H1541 H 0.41822 0.59088 0.95201 0.0
C1542 C 0.37439 0.58358 0.97969 0.0
C1543 C 0.35282 0.57759 0.9955 0.0
C1544 C 0.39958 0.57049 0.98382 0.0
C1545 C 0.35669 0.55801 0.01543 0.0
C1546 C 0.3819 0.54517 0.01992 0.0
C1547 C 0.42917 0.53926 0.00901 0.0
C1548 C 0.45084 0.54594 0.99342 0.0
C1549 C 0.40355 0.55139 0.00431 0.0
C1550 C 0.44628 0.56424 0.97262 0.0
C1551 C 0.42096 0.57643 0.96791 0.0
H1552 H 0.15161 0.6131 0.79865 0.0
H1553 H 0.21812 0.60439 0.854 0.0
H1554 H 0.23716 0.65125 0.84166 0.0
H1555 H 0.23569 0.69369 0.8143 0.0
H1556 H 0.16799 0.70465 0.761 0.0
H1557 H 0.14857 0.65752 0.77321 0.0
C1558 C 0.17024 0.62149 0.80808 0.0
C1559 C 0.18357 0.60511 0.8271 0.0
C1560 C 0.18092 0.64857 0.80105 0.0
C1561 C 0.20745 0.61652 0.83937 0.0
C1562 C 0.21842 0.64322 0.83221 0.0
C1563 C 0.21678 0.68559 0.80518 0.0
C1564 C 0.20352 0.70208 0.78632 0.0
C1565 C 0.20551 0.65918 0.81288 0.0
C1566 C 0.17864 0.69202 0.77529 0.0
C1567 C 0.16758 0.6652 0.78233 0.0
H1568 H 0.18116 0.37573 0.46963 0.0
H1569 H 0.19161 0.37203 0.55193 0.0
H1570 H 0.17843 0.42348 0.55697 0.0
H1571 H 0.15297 0.46421 0.53823 0.0
H1572 H 0.13981 0.46577 0.45588 0.0
H1573 H 0.16587 0.42114 0.45041 0.0
C1574 C 0.18159 0.38666 0.48857 0.0
C1575 C 0.18712 0.37033 0.5104 0.0
C1576 C 0.17314 0.41582 0.49126 0.0
C1577 C 0.18765 0.38441 0.53488 0.0
C1578 C 0.17976 0.4137 0.53774 0.0
C1579 C 0.15693 0.45555 0.51905 0.0
C1580 C 0.14414 0.46795 0.49749 0.0
C1581 C 0.17089 0.42901 0.51614 0.0
C1582 C 0.14928 0.45643 0.47276 0.0
C1583 C 0.16393 0.43071 0.46964 0.0
H1584 H 0.80764 0.96058 0.81463 0.0
H1585 H 0.88058 0.92213 0.78691 0.0
H1586 H 0.85386 0.88779 0.75867 0.0
H1587 H 0.81011 0.8666 0.74418 0.0
H1588 H 0.73698 0.9031 0.77317 0.0
H1589 H 0.76342 0.94131 0.79763 0.0
C1590 C 0.81764 0.94452 0.80253 0.0
C1591 C 0.84602 0.94361 0.8031 0.0
C1592 C 0.80215 0.9251 0.78604 0.0
C1593 C 0.85874 0.92313 0.78693 0.0
C1594 C 0.8435 0.90364 0.77064 0.0
C1595 C 0.79982 0.88361 0.75498 0.0
C1596 C 0.77156 0.88224 0.75659 0.0
C1597 C 0.81521 0.90437 0.7701 0.0
C1598 C 0.75867 0.90401 0.77129 0.0
C1599 C 0.77382 0.92547 0.78568 0.0
H1600 H 0.71883 0.05261 0.54442 0.0
H1601 H 0.69658 0.10866 0.48236 0.0
H1602 H 0.64915 0.10462 0.49289 0.0
H1603 H 0.61369 0.0834 0.51832 0.0
H1604 H 0.63517 0.02396 0.57789 0.0
H1605 H 0.68318 0.03152 0.57014 0.0
C1606 C 0.70362 0.06403 0.53325 0.0
C1607 C 0.71134 0.08088 0.51257 0.0
C1608 C 0.67624 0.06122 0.53915 0.0
C1609 C 0.69128 0.09539 0.49824 0.0
C1610 C 0.66412 0.0932 0.50433 0.0
C1611 C 0.62893 0.07266 0.53003 0.0
C1612 C 0.62094 0.05359 0.54902 0.0
C1613 C 0.65635 0.07606 0.52464 0.0
C1614 C 0.64086 0.03905 0.56343 0.0
C1615 C 0.66828 0.0432 0.55884 0.0
H1616 H 0.22758 0.45269 0.84832 0.0
H1617 H 0.21175 0.47515 0.76939 0.0
H1618 H 0.23994 0.43468 0.75479 0.0
H1619 H 0.26413 0.38917 0.76424 0.0
H1620 H 0.27585 0.36462 0.84304 0.0
H1621 H 0.25451 0.40981 0.85792 0.0
C1622 C 0.23069 0.44918 0.82793 0.0
C1623 C 0.21737 0.46685 0.80998 0.0
C1624 C 0.24603 0.42525 0.81964 0.0
C1625 C 0.2216 0.46178 0.78363 0.0
C1626 C 0.23766 0.43858 0.77525 0.0
C1627 C 0.26253 0.3941 0.78468 0.0
C1628 C 0.27147 0.37364 0.80255 0.0
C1629 C 0.24925 0.41959 0.79304 0.0
C1630 C 0.26898 0.38002 0.82895 0.0
C1631 C 0.25674 0.40581 0.83746 0.0
H1632 H 0.35314 0.5979 0.27474 0.0
H1633 H 0.33997 0.6048 0.35619 0.0
H1634 H 0.31519 0.65003 0.35056 0.0
H1635 H 0.30104 0.69019 0.32316 0.0
H1636 H 0.31188 0.68219 0.24141 0.0
H1637 H 0.33354 0.63483 0.24645 0.0
C1638 C 0.34451 0.60911 0.29117 0.0
C1639 C 0.34868 0.59818 0.31585 0.0
C1640 C 0.33003 0.63506 0.28779 0.0
C1641 C 0.33706 0.61272 0.33695 0.0
C1642 C 0.32301 0.63872 0.3338 0.0
C1643 C 0.30786 0.67785 0.30645 0.0
C1644 C 0.3052 0.68973 0.28204 0.0
C1645 C 0.31996 0.65048 0.30943 0.0
C1646 C 0.31374 0.67343 0.26044 0.0
C1647 C 0.32624 0.64643 0.26331 0.0
H1648 H 0.46305 0.64012 0.60807 0.0
H1649 H 0.54601 0.6704 0.61328 0.0
H1650 H 0.56071 0.62252 0.59658 0.0
H1651 H 0.54934 0.573 0.57793 0.0
H1652 H 0.46617 0.54297 0.57469 0.0
H1653 H 0.45217 0.58989 0.59317 0.0
C1654 C 0.48436 0.63614 0.6057 0.0
C1655 C 0.5034 0.65864 0.61154 0.0
C1656 C 0.49258 0.60873 0.59629 0.0
C1657 C 0.53101 0.65323 0.60886 0.0
C1658 C 0.53939 0.62598 0.59919 0.0
C1659 C 0.52821 0.57681 0.58138 0.0
C1660 C 0.5088 0.5548 0.57477 0.0
C1661 C 0.52027 0.60374 0.59239 0.0
C1662 C 0.4815 0.55967 0.57963 0.0
C1663 C 0.47343 0.58647 0.59015 0.0
H1664 H 0.61353 0.24301 0.80006 0.0
H1665 H 0.63706 0.29046 0.87106 0.0
H1666 H 0.68382 0.2932 0.85752 0.0
H1667 H 0.71819 0.28158 0.82544 0.0
H1668 H 0.6935 0.23435 0.75453 0.0
H1669 H 0.64716 0.23207 0.76822 0.0
C1670 C 0.6288 0.25403 0.81266 0.0
C1671 C 0.62166 0.26648 0.83661 0.0
C1672 C 0.65556 0.25551 0.80476 0.0
C1673 C 0.64188 0.2807 0.85252 0.0
C1674 C 0.66866 0.28222 0.84479 0.0
C1675 C 0.70267 0.27078 0.81298 0.0
C1676 C 0.7095 0.25812 0.78894 0.0
C1677 C 0.67578 0.26961 0.82095 0.0
C1678 C 0.689 0.24431 0.77309 0.0
C1679 C 0.6624 0.24297 0.7809 0.0
H1680 H 0.05344 0.33878 0.17261 0.0
H1681 H 0.03479 0.27746 0.10898 0.0
H1682 H 0.05348 0.31154 0.07904 0.0
H1683 H 0.07136 0.35998 0.07074 0.0
H1684 H 0.08146 0.42482 0.13356 0.0
H1685 H 0.0719 0.38775 0.16407 0.0
C1686 C 0.05362 0.33308 0.15217 0.0
C1687 C 0.04254 0.3062 0.1427 0.0
C1688 C 0.06336 0.35321 0.13501 0.0
C1689 C 0.04285 0.29852 0.11637 0.0
C1690 C 0.05368 0.31782 0.09936 0.0
C1691 C 0.07129 0.36624 0.09104 0.0
C1692 C 0.0766 0.39553 0.09946 0.0
C1693 C 0.06337 0.3455 0.1084 0.0
C1694 C 0.07773 0.40257 0.12614 0.0
C1695 C 0.07174 0.38143 0.14376 0.0
H1696 H 0.93724 0.74889 0.37473 0.0
H1697 H 0.97219 0.79618 0.31379 0.0
H1698 H 0.92738 0.80348 0.29419 0.0
H1699 H 0.87824 0.79425 0.29281 0.0
H1700 H 0.84293 0.74808 0.35419 0.0
H1701 H 0.88758 0.74276 0.37501 0.0
C1702 C 0.93505 0.76108 0.35733 0.0
C1703 C 0.95825 0.77183 0.34578 0.0
C1704 C 0.90903 0.76529 0.34604 0.0
C1705 C 0.95485 0.7876 0.3232 0.0
C1706 C 0.92915 0.79174 0.31186 0.0
C1707 C 0.88026 0.78319 0.31082 0.0
C1708 C 0.85713 0.77143 0.32173 0.0
C1709 C 0.9061 0.78031 0.32286 0.0
C1710 C 0.86026 0.75736 0.34524 0.0
C1711 C 0.88588 0.75423 0.35719 0.0
H1712 H 0.54361 0.35875 0.91441 0.0
H1713 H 0.50461 0.31335 0.97408 0.0
H1714 H 0.50346 0.35892 0.00038 0.0
H1715 H 0.5115 0.41261 0.00573 0.0
H1716 H 0.54873 0.45796 0.94484 0.0
H1717 H 0.55238 0.41195 0.92004 0.0
C1718 C 0.53529 0.35872 0.93335 0.0
C1719 C 0.52437 0.33252 0.94223 0.0
C1720 C 0.53397 0.38528 0.94816 0.0
C1721 C 0.51321 0.33313 0.96669 0.0
C1722 C 0.51243 0.35926 0.98176 0.0
C1723 C 0.52041 0.41243 0.98705 0.0
C1724 C 0.52963 0.43898 0.97727 0.0
C1725 C 0.52234 0.38565 0.97255 0.0
C1726 C 0.5412 0.43809 0.95296 0.0
C1727 C 0.54344 0.41166 0.93868 0.0
H1728 H 0.96263 0.19317 0.17814 0.0
H1729 H 0.98724 0.18056 0.25719 0.0
H1730 H 0.9407 0.16733 0.2667 0.0
H1731 H 0.89244 0.17153 0.25467 0.0
H1732 H 0.86824 0.19117 0.17666 0.0
H1733 H 0.91497 0.1885 0.1643 0.0
C1734 C 0.95779 0.18713 0.19734 0.0
C1735 C 0.97783 0.18886 0.2172 0.0
C1736 C 0.93098 0.181 0.20281 0.0
C1737 C 0.97188 0.17966 0.24173 0.0
C1738 C 0.94528 0.17238 0.24718 0.0
C1739 C 0.89737 0.17462 0.23484 0.0
C1740 C 0.87702 0.18251 0.21683 0.0
C1741 C 0.92448 0.17487 0.22823 0.0
C1742 C 0.88348 0.18532 0.191 0.0
C1743 C 0.91029 0.18417 0.18396 0.0
H1744 H 0.05603 0.65644 0.40518 0.0
H1745 H 0.03727 0.7051 0.47463 0.0
H1746 H 0.05108 0.66367 0.50041 0.0
H1747 H 0.06464 0.61188 0.50297 0.0
H1748 H 0.07799 0.56125 0.43305 0.0
H1749 H 0.07041 0.60478 0.40782 0.0
C1750 C 0.05557 0.65812 0.426 0.0
C1751 C 0.04606 0.68399 0.43803 0.0
C1752 C 0.06235 0.6336 0.44062 0.0
C1753 C 0.04477 0.68555 0.46497 0.0
C1754 C 0.05256 0.66179 0.4797 0.0
C1755 C 0.0664 0.61054 0.48225 0.0
C1756 C 0.07219 0.58337 0.46996 0.0
C1757 C 0.06086 0.63545 0.46773 0.0
C1758 C 0.07371 0.58188 0.44302 0.0
C1759 C 0.0693 0.60679 0.42856 0.0
H1760 H 0.60358 0.7619 0.65666 0.0
H1761 H 0.57674 0.71805 0.72323 0.0
H1762 H 0.61915 0.73118 0.74659 0.0
H1763 H 0.6625 0.75755 0.74896 0.0
H1764 H 0.6909 0.79909 0.68202 0.0
H1765 H 0.64891 0.78469 0.65782 0.0
C1766 C 0.60716 0.75499 0.67619 0.0
C1767 C 0.58702 0.73935 0.68834 0.0
C1768 C 0.63156 0.76258 0.68948 0.0
C1769 C 0.59197 0.73013 0.71349 0.0
C1770 C 0.6161 0.73781 0.72693 0.0
C1771 C 0.65934 0.76358 0.72911 0.0
C1772 C 0.67919 0.77987 0.71731 0.0
C1773 C 0.63572 0.75454 0.71528 0.0
C1774 C 0.67552 0.78685 0.69143 0.0
C1775 C 0.65166 0.77855 0.67765 0.0
H1776 H 0.5949 0.45593 0.69732 0.0
H1777 H 0.66104 0.50342 0.66586 0.0
H1778 H 0.64093 0.49475 0.62251 0.0
H1779 H 0.60332 0.47697 0.59425 0.0
H1780 H 0.53536 0.43248 0.6256 0.0
H1781 H 0.55789 0.43609 0.66845 0.0
C1782 C 0.60505 0.46421 0.68097 0.0
C1783 C 0.62937 0.48049 0.68483 0.0
C1784 C 0.59312 0.45957 0.65617 0.0
C1785 C 0.64222 0.49104 0.66344 0.0
C1786 C 0.63076 0.48603 0.63866 0.0
C1787 C 0.59347 0.46763 0.61033 0.0
C1788 C 0.56758 0.45454 0.60671 0.0
C1789 C 0.60604 0.47075 0.63489 0.0
C1790 C 0.55526 0.44263 0.62783 0.0
C1791 C 0.56806 0.44488 0.65234 0.0
H1792 H 0.84653 0.36541 0.98203 0.0
H1793 H 0.75988 0.37153 0.98471 0.0
H1794 H 0.75496 0.35054 0.94059 0.0
H1795 H 0.77551 0.32962 0.90154 0.0
H1796 H 0.86226 0.32587 0.89875 0.0
H1797 H 0.86698 0.34693 0.94271 0.0
C1798 C 0.82652 0.36207 0.97303 0.0
C1799 C 0.80356 0.36967 0.98676 0.0
C1800 C 0.82392 0.35048 0.94766 0.0
C1801 C 0.77784 0.36578 0.97459 0.0
C1802 C 0.77504 0.35374 0.94941 0.0
C1803 C 0.79542 0.33341 0.91064 0.0
C1804 C 0.81854 0.32605 0.89705 0.0
C1805 C 0.79795 0.34586 0.93581 0.0
C1806 C 0.84422 0.33147 0.90882 0.0
C1807 C 0.8469 0.34339 0.93396 0.0
H1808 H 0.93988 0.54049 0.17663 0.0
H1809 H 0.97076 0.45302 0.18438 0.0
H1810 H 0.00086 0.46041 0.14937 0.0
H1811 H 0.01832 0.49109 0.11661 0.0
H1812 H 0.98683 0.57787 0.10665 0.0
H1813 H 0.95765 0.57165 0.14301 0.0
C1814 C 0.95298 0.52294 0.17046 0.0
C1815 C 0.95293 0.49616 0.18313 0.0
C1816 C 0.97054 0.52741 0.1503 0.0
C1817 C 0.97027 0.4738 0.17501 0.0
C1818 C 0.98765 0.47806 0.15506 0.0
C1819 C 0.00545 0.50896 0.12256 0.0
C1820 C 0.00504 0.53508 0.109 0.0
C1821 C 0.9881 0.50481 0.14274 0.0
C1822 C 0.98782 0.55767 0.11689 0.0
C1823 C 0.97091 0.55398 0.13751 0.0
H1824 H 0.76922 0.63513 0.46535 0.0
H1825 H 0.8486 0.67586 0.46539 0.0
H1826 H 0.83174 0.71225 0.43643 0.0
H1827 H 0.79608 0.73035 0.40875 0.0
H1828 H 0.71647 0.69055 0.40681 0.0
H1829 H 0.73189 0.65598 0.43903 0.0
C1830 C 0.78278 0.65202 0.45908 0.0
C1831 C 0.81022 0.65246 0.46742 0.0
C1832 C 0.77298 0.67309 0.44217 0.0
C1833 C 0.82745 0.67469 0.45922 0.0
C1834 C 0.81784 0.69566 0.44266 0.0
C1835 C 0.78172 0.71481 0.4159 0.0
C1836 C 0.75507 0.71328 0.40557 0.0
C1837 C 0.7908 0.69485 0.43382 0.0
C1838 C 0.73711 0.69221 0.4145 0.0
C1839 C 0.74595 0.67239 0.43282 0.0
H1840 H 0.59718 0.54973 0.80491 0.0
H1841 H 0.67823 0.55496 0.83851 0.0
H1842 H 0.66118 0.57187 0.87957 0.0
H1843 H 0.62297 0.57635 0.90751 0.0
H1844 H 0.54166 0.56817 0.87512 0.0
H1845 H 0.5589 0.56251 0.8318 0.0
C1846 C 0.61109 0.55521 0.8211 0.0
C1847 C 0.63881 0.55003 0.81906 0.0
C1848 C 0.60103 0.56444 0.84484 0.0
C1849 C 0.65672 0.55753 0.83996 0.0
C1850 C 0.647 0.56749 0.86339 0.0
C1851 C 0.6091 0.57421 0.89082 0.0
C1852 C 0.58125 0.5722 0.89428 0.0
C1853 C 0.61915 0.56964 0.86633 0.0
C1854 C 0.56324 0.56976 0.87274 0.0
C1855 C 0.5731 0.56614 0.84806 0.0
H1856 H 0.74722 0.36915 0.12304 0.0
H1857 H 0.80649 0.30838 0.09539 0.0
H1858 H 0.79456 0.27394 0.12778 0.0
H1859 H 0.77215 0.26408 0.16739 0.0
H1860 H 0.71475 0.32562 0.19726 0.0
H1861 H 0.72058 0.35628 0.16033 0.0
C1862 C 0.75706 0.34809 0.12375 0.0
C1863 C 0.77796 0.34154 0.10698 0.0
C1864 C 0.75059 0.32856 0.14299 0.0
C1865 C 0.79059 0.31417 0.10824 0.0
C1866 C 0.78379 0.29443 0.12679 0.0
C1867 C 0.76046 0.28389 0.16563 0.0
C1868 C 0.74329 0.29266 0.1853 0.0
C1869 C 0.76456 0.30185 0.14482 0.0
C1870 C 0.72816 0.31831 0.18248 0.0
C1871 C 0.73166 0.33601 0.16143 0.0
H1872 H 0.97368 0.45762 0.3034 0.0
H1873 H 0.90885 0.49848 0.34386 0.0
H1874 H 0.92906 0.48423 0.3847 0.0
H1875 H 0.96822 0.4669 0.40914 0.0
H1876 H 0.03509 0.42945 0.36953 0.0
H1877 H 0.0109 0.43532 0.32808 0.0
C1878 C 0.96373 0.46296 0.32112 0.0
C1879 C 0.9399 0.47938 0.32054 0.0
C1880 C 0.97596 0.45548 0.34471 0.0
C1881 C 0.92725 0.48608 0.34366 0.0
C1882 C 0.93884 0.47796 0.3671 0.0
C1883 C 0.97714 0.45911 0.3915 0.0
C1884 C 0.00336 0.44781 0.3923 0.0
C1885 C 0.96361 0.46357 0.36789 0.0
C1886 C 0.01493 0.43835 0.36928 0.0
C1887 C 0.00117 0.44183 0.34564 0.0
H1888 H 0.86454 0.66761 0.58828 0.0
H1889 H 0.78496 0.62725 0.58355 0.0
H1890 H 0.76966 0.66298 0.61556 0.0
H1891 H 0.77844 0.70631 0.64437 0.0
H1892 H 0.85817 0.74539 0.65103 0.0
H1893 H 0.87384 0.7098 0.61848 0.0
C1894 C 0.8439 0.66648 0.59435 0.0
C1895 C 0.82595 0.64478 0.58337 0.0
C1896 C 0.83516 0.68713 0.61283 0.0
C1897 C 0.79929 0.64361 0.59164 0.0
C1898 C 0.79043 0.66417 0.60986 0.0
C1899 C 0.79914 0.70714 0.63838 0.0
C1900 C 0.81708 0.72859 0.64949 0.0
C1901 C 0.80808 0.68619 0.62035 0.0
C1902 C 0.84404 0.72918 0.64232 0.0
C1903 C 0.85297 0.70879 0.62388 0.0
H1904 H 0.74749 0.53344 0.58441 0.0
H1905 H 0.77641 0.52808 0.50748 0.0
H1906 H 0.72997 0.53005 0.48957 0.0
H1907 H 0.68077 0.52663 0.49623 0.0
H1908 H 0.65243 0.53376 0.5733 0.0
H1909 H 0.69893 0.5382 0.59086 0.0
C1910 C 0.74357 0.53328 0.56373 0.0
C1911 C 0.7651 0.53034 0.54723 0.0
C1912 C 0.71694 0.53463 0.55367 0.0
C1913 C 0.76002 0.53045 0.5205 0.0
C1914 C 0.73349 0.53137 0.51027 0.0
C1915 C 0.68493 0.53008 0.51677 0.0
C1916 C 0.66351 0.53003 0.53355 0.0
C1917 C 0.71174 0.53256 0.52669 0.0
C1918 C 0.66881 0.53411 0.56015 0.0
C1919 C 0.69533 0.53638 0.57017 0.0
H1920 H 0.21391 0.95684 0.5393 0.0
H1921 H 0.19803 0.92451 0.61406 0.0
H1922 H 0.15112 0.93953 0.60939 0.0
H1923 H 0.11446 0.96224 0.58438 0.0
H1924 H 0.13037 0.99602 0.51015 0.0
H1925 H 0.17717 0.98024 0.51441 0.0
C1926 C 0.20014 0.95295 0.55449 0.0
C1927 C 0.20955 0.93949 0.57697 0.0
C1928 C 0.17312 0.96207 0.55187 0.0
C1929 C 0.19143 0.93488 0.59657 0.0
C1930 C 0.16454 0.94347 0.59393 0.0
C1931 C 0.12815 0.9662 0.56913 0.0
C1932 C 0.11879 0.98031 0.54698 0.0
C1933 C 0.15516 0.9572 0.57173 0.0
C1934 C 0.13694 0.98529 0.52747 0.0
C1935 C 0.16376 0.97619 0.52984 0.0
H1936 H 0.3171 0.96559 0.79731 0.0
H1937 H 0.37168 0.93274 0.74087 0.0
H1938 H 0.34886 0.8846 0.73999 0.0
H1939 H 0.31477 0.85126 0.75715 0.0
H1940 H 0.25946 0.88536 0.81241 0.0
H1941 H 0.28147 0.93362 0.81213 0.0
C1942 C 0.32392 0.94797 0.78464 0.0
C1943 C 0.34621 0.95267 0.76932 0.0
C1944 C 0.31082 0.92051 0.78433 0.0
C1945 C 0.35452 0.92974 0.75277 0.0
C1946 C 0.34162 0.90216 0.75244 0.0
C1947 C 0.30767 0.86926 0.76921 0.0
C1948 C 0.28579 0.86468 0.7851 0.0
C1949 C 0.32006 0.89716 0.76851 0.0
C1950 C 0.27637 0.88831 0.80018 0.0
C1951 C 0.2889 0.9159 0.79998 0.0
H1952 H 0.39452 0.03458 0.0325 0.0
H1953 H 0.39571 0.06431 0.95491 0.0
H1954 H 0.44397 0.05481 0.9537 0.0
H1955 H 0.48558 0.03806 0.97454 0.0
H1956 H 0.48607 0.01228 0.05332 0.0
H1957 H 0.43727 0.02035 0.05443 0.0
C1958 C 0.40545 0.03886 0.01539 0.0
C1959 C 0.39181 0.04985 0.99376 0.0
C1960 C 0.43333 0.03415 0.0151 0.0
C1961 C 0.40601 0.05585 0.97177 0.0
C1962 C 0.43351 0.0504 0.97104 0.0
C1963 C 0.47493 0.03415 0.99191 0.0
C1964 C 0.48904 0.02435 0.01371 0.0
C1965 C 0.44732 0.03954 0.99256 0.0
C1966 C 0.47537 0.01985 0.03632 0.0
C1967 C 0.44757 0.02438 0.03692 0.0
H1968 H 0.72692 0.60995 0.80761 0.0
H1969 H 0.71792 0.59153 0.72568 0.0
H1970 H 0.73106 0.64242 0.71792 0.0
H1971 H 0.7424 0.69284 0.73482 0.0
H1972 H 0.74679 0.71106 0.81689 0.0
H1973 H 0.73834 0.65923 0.82428 0.0
C1974 C 0.72818 0.61683 0.78798 0.0
C1975 C 0.72165 0.5969 0.76721 0.0
C1976 C 0.7348 0.64609 0.78377 0.0
C1977 C 0.72289 0.60644 0.74197 0.0
C1978 C 0.73036 0.63551 0.73756 0.0
C1979 C 0.74184 0.68528 0.75429 0.0
C1980 C 0.74533 0.70554 0.77534 0.0
C1981 C 0.736 0.65562 0.75835 0.0
C1982 C 0.74412 0.69577 0.80047 0.0
C1983 C 0.73929 0.66621 0.80467 0.0
H1984 H 0.88029 0.42489 0.06024 0.0
H1985 H 0.84208 0.49912 0.02587 0.0
H1986 H 0.88605 0.51789 0.01416 0.0
H1987 H 0.93552 0.51457 0.0156 0.0
H1988 H 0.9736 0.43976 0.04921 0.0
H1989 H 0.92941 0.41952 0.05865 0.0
C1990 C 0.88144 0.44496 0.04994 0.0
C1991 C 0.85779 0.46052 0.04403 0.0
C1992 C 0.90681 0.4555 0.04299 0.0
C1993 C 0.85989 0.48665 0.03075 0.0
C1994 C 0.88506 0.49743 0.024 0.0
C1995 C 0.93416 0.49363 0.02467 0.0
C1996 C 0.95791 0.4788 0.03177 0.0
C1997 C 0.90868 0.48219 0.03025 0.0
C1998 C 0.95571 0.45164 0.04345 0.0
C1999 C 0.93042 0.44013 0.04904 0.0
H2000 H 0.36313 0.11536 0.73272 0.0
H2001 H 0.30922 0.08305 0.78845 0.0
H2002 H 0.2845 0.12889 0.78811 0.0
H2003 H 0.28263 0.18042 0.77722 0.0
H2004 H 0.33771 0.2142 0.72316 0.0
H2005 H 0.35723 0.16555 0.71734 0.0
C2006 C 0.34548 0.11808 0.74417 0.0
C2007 C 0.33817 0.09599 0.76077 0.0
C2008 C 0.33184 0.14497 0.74454 0.0
C2009 C 0.31539 0.09987 0.77569 0.0
C2010 C 0.3013 0.12612 0.7756 0.0
C2011 C 0.2986 0.17707 0.76383 0.0
C2012 C 0.30899 0.20102 0.751 0.0
C2013 C 0.31007 0.14924 0.76096 0.0
C2014 C 0.32945 0.19619 0.73345 0.0
C2015 C 0.34072 0.16837 0.73018 0.0
H2016 H 0.21046 0.95412 0.24625 0.0
H2017 H 0.26315 0.98029 0.31165 0.0
H2018 H 0.28617 0.93362 0.30839 0.0
H2019 H 0.28801 0.88338 0.29037 0.0
H2020 H 0.23535 0.85637 0.22532 0.0
H2021 H 0.21601 0.90539 0.22489 0.0
C2022 C 0.22732 0.94987 0.25947 0.0
C2023 C 0.2347 0.97061 0.27942 0.0
C2024 C 0.24036 0.92266 0.25776 0.0
C2025 C 0.25671 0.96466 0.29631 0.0
C2026 C 0.26992 0.9379 0.29452 0.0
C2027 C 0.27254 0.8883 0.27587 0.0
C2028 C 0.26289 0.86611 0.25815 0.0
C2029 C 0.26135 0.9164 0.27587 0.0
C2030 C 0.24309 0.87299 0.23928 0.0
C2031 C 0.23192 0.90101 0.23908 0.0
H2032 H 0.55578 0.32576 0.42415 0.0
H2033 H 0.46982 0.33659 0.41173 0.0
H2034 H 0.4695 0.37211 0.44777 0.0
H2035 H 0.49313 0.39946 0.48319 0.0
H2036 H 0.5795 0.39304 0.49405 0.0
H2037 H 0.5802 0.35596 0.45846 0.0
C2038 C 0.53706 0.33616 0.42918 0.0
C2039 C 0.5128 0.32825 0.41545 0.0
C2040 C 0.53702 0.35688 0.4499 0.0
C2041 C 0.48874 0.34204 0.42206 0.0
C2042 C 0.48848 0.36229 0.44278 0.0
C2043 C 0.51205 0.38954 0.47804 0.0
C2044 C 0.53614 0.39819 0.49151 0.0
C2045 C 0.51239 0.36951 0.45702 0.0
C2046 C 0.56068 0.38615 0.48412 0.0
C2047 C 0.56108 0.36521 0.46371 0.0
H2048 H 0.46079 0.77497 0.23132 0.0
H2049 H 0.42973 0.77575 0.15276 0.0
H2050 H 0.38351 0.77863 0.16762 0.0
H2051 H 0.3518 0.78179 0.20322 0.0
H2052 H 0.38375 0.78428 0.28174 0.0
H2053 H 0.42949 0.77965 0.26666 0.0
C2054 C 0.44389 0.77542 0.21741 0.0
C2055 C 0.44878 0.77474 0.19091 0.0
C2056 C 0.41743 0.77808 0.22615 0.0
C2057 C 0.42662 0.77604 0.17323 0.0
C2058 C 0.40015 0.77781 0.18176 0.0
C2059 C 0.36878 0.78148 0.21705 0.0
C2060 C 0.36414 0.78344 0.24366 0.0
C2061 C 0.39529 0.77908 0.2082 0.0
C2062 C 0.38652 0.78302 0.26119 0.0
C2063 C 0.41278 0.7802 0.25257 0.0
H2064 H 0.91533 0.72973 0.94507 0.0
H2065 H 0.99647 0.75833 0.93017 0.0
H2066 H 0.0147 0.71568 0.95129 0.0
H2067 H 0.00764 0.67124 0.97533 0.0
H2068 H 0.92673 0.64169 0.98898 0.0
H2069 H 0.90818 0.6841 0.96718 0.0
C2070 C 0.937 0.72657 0.94632 0.0
C2071 C 0.95452 0.74724 0.93623 0.0
C2072 C 0.94733 0.7021 0.9585 0.0
C2073 C 0.98253 0.74268 0.93773 0.0
C2074 C 0.993 0.71843 0.94994 0.0
C2075 C 0.98598 0.67435 0.97361 0.0
C2076 C 0.96844 0.65399 0.98391 0.0
C2077 C 0.9756 0.69826 0.96068 0.0
C2078 C 0.94042 0.65749 0.98125 0.0
C2079 C 0.9299 0.68157 0.96879 0.0
H2080 H 0.13284 0.28349 0.67803 0.0
H2081 H 0.09978 0.25932 0.74979 0.0
H2082 H 0.14463 0.26118 0.77055 0.0
H2083 H 0.19287 0.27089 0.76917 0.0
H2084 H 0.22728 0.29625 0.69845 0.0
H2085 H 0.18245 0.29278 0.67659 0.0
C2086 C 0.13556 0.2784 0.69813 0.0
C2087 C 0.11287 0.27132 0.71229 0.0
C2088 C 0.16164 0.27993 0.71026 0.0
C2089 C 0.11675 0.265 0.7384 0.0
C2090 C 0.14245 0.26605 0.75036 0.0
C2091 C 0.1907 0.27568 0.74895 0.0
C2092 C 0.21349 0.2839 0.73554 0.0
C2093 C 0.16497 0.27376 0.7366 0.0
C2094 C 0.21011 0.28994 0.70931 0.0
C2095 C 0.18445 0.28792 0.69678 0.0
H2096 H 0.51191 0.71212 0.07276 0.0
H2097 H 0.52841 0.68008 0.14847 0.0
H2098 H 0.53696 0.63103 0.12967 0.0
H2099 H 0.53803 0.59663 0.09141 0.0
H2100 H 0.52514 0.63052 0.01575 0.0
H2101 H 0.5171 0.67924 0.03471 0.0
C2102 C 0.5175 0.69441 0.08514 0.0
C2103 C 0.51925 0.69968 0.112 0.0
C2104 C 0.52305 0.66651 0.07415 0.0
C2105 C 0.52693 0.67662 0.12775 0.0
C2106 C 0.53173 0.64854 0.11699 0.0
C2107 C 0.53369 0.61476 0.07911 0.0
C2108 C 0.53211 0.6098 0.05215 0.0
C2109 C 0.52962 0.64311 0.09018 0.0
C2110 C 0.52665 0.63363 0.03651 0.0
C2111 C 0.5219 0.66155 0.04735 0.0
H2112 H 0.02127 0.86964 0.8246 0.0
H2113 H 0.04755 0.84357 0.90037 0.0
H2114 H 0.09403 0.84092 0.88689 0.0
H2115 H 0.12596 0.84055 0.85248 0.0
H2116 H 0.09974 0.86447 0.77617 0.0
H2117 H 0.05424 0.87345 0.791 0.0
C2118 C 0.03721 0.86377 0.83827 0.0
C2119 C 0.03096 0.85645 0.86333 0.0
C2120 C 0.06377 0.86166 0.83025 0.0
C2121 C 0.05183 0.849 0.88087 0.0
C2122 C 0.07839 0.84746 0.87319 0.0
C2123 C 0.11048 0.84847 0.83924 0.0
C2124 C 0.1161 0.85182 0.81329 0.0
C2125 C 0.08442 0.85297 0.84776 0.0
C2126 C 0.09574 0.86152 0.79621 0.0
C2127 C 0.06979 0.86664 0.80468 0.0
H2128 H 0.05891 0.35644 0.62301 0.0
H2129 H 0.00582 0.3149 0.56421 0.0
H2130 H 0.01438 0.35481 0.53554 0.0
H2131 H 0.0346 0.4032 0.52806 0.0
H2132 H 0.08523 0.44646 0.58797 0.0
H2133 H 0.07998 0.40449 0.61513 0.0
C2134 C 0.04962 0.3559 0.60375 0.0
C2135 C 0.03188 0.3326 0.59573 0.0
C2136 C 0.05392 0.37951 0.58761 0.0
C2137 C 0.01958 0.33254 0.57087 0.0
C2138 C 0.02439 0.35543 0.55447 0.0
C2139 C 0.04464 0.40337 0.54698 0.0
C2140 C 0.06023 0.42807 0.55591 0.0
C2141 C 0.04112 0.37932 0.56278 0.0
C2142 C 0.07296 0.42788 0.5806 0.0
C2143 C 0.07002 0.40382 0.59617 0.0
H2144 H 0.45162 0.30681 0.34247 0.0
H2145 H 0.47361 0.22981 0.29789 0.0
H2146 H 0.43504 0.23682 0.26767 0.0
H2147 H 0.3909 0.26021 0.2587 0.0
H2148 H 0.368 0.33452 0.30663 0.0
H2149 H 0.4109 0.33306 0.33101 0.0
C2150 C 0.44816 0.29178 0.32594 0.0
C2151 C 0.46489 0.26751 0.32262 0.0
C2152 C 0.42546 0.29517 0.3096 0.0
C2153 C 0.46084 0.24866 0.30077 0.0
C2154 C 0.43863 0.25246 0.28373 0.0
C2155 C 0.39557 0.2763 0.27423 0.0
C2156 C 0.37618 0.29705 0.28125 0.0
C2157 C 0.42011 0.27487 0.28868 0.0
C2158 C 0.38242 0.31794 0.30127 0.0
C2159 C 0.40697 0.31723 0.31514 0.0
H2160 H 0.4258 0.52164 0.39707 0.0
H2161 H 0.49919 0.5036 0.35782 0.0
H2162 H 0.5225 0.49381 0.39868 0.0
H2163 H 0.52261 0.49218 0.44571 0.0
H2164 H 0.44892 0.50764 0.48497 0.0
H2165 H 0.42516 0.51694 0.44395 0.0
C2166 C 0.44679 0.51523 0.39741 0.0
C2167 C 0.46073 0.51347 0.37442 0.0
C2168 C 0.46012 0.5096 0.421 0.0
C2169 C 0.48794 0.50507 0.37521 0.0
C2170 C 0.50136 0.49965 0.3986 0.0
C2171 C 0.5014 0.49782 0.44526 0.0
C2172 C 0.48759 0.49975 0.46825 0.0
C2173 C 0.48777 0.50231 0.42162 0.0
C2174 C 0.45996 0.50631 0.46744 0.0
C2175 C 0.44639 0.51152 0.44403 0.0
H2176 H 0.26357 0.66339 0.05713 0.0
H2177 H 0.34514 0.69853 0.06016 0.0
H2178 H 0.33719 0.72407 0.10111 0.0
H2179 H 0.30746 0.73612 0.13621 0.0
H2180 H 0.22592 0.70139 0.1336 0.0
H2181 H 0.23359 0.67582 0.09231 0.0
C2182 C 0.27966 0.67658 0.06672 0.0
C2183 C 0.30495 0.67896 0.05546 0.0
C2184 C 0.27496 0.69133 0.09031 0.0
C2185 C 0.32549 0.69624 0.06827 0.0
C2186 C 0.32096 0.71091 0.09171 0.0
C2187 C 0.29119 0.72334 0.12643 0.0
C2188 C 0.26605 0.72091 0.13784 0.0
C2189 C 0.29579 0.70867 0.10286 0.0
C2190 C 0.24546 0.70358 0.12524 0.0
C2191 C 0.24983 0.68901 0.10164 0.0
H2192 H 0.11572 0.48826 0.88729 0.0
H2193 H 0.07124 0.56282 0.86119 0.0
H2194 H 0.04601 0.56403 0.90076 0.0
H2195 H 0.03777 0.54455 0.94329 0.0
H2196 H 0.08138 0.46854 0.96798 0.0
H2197 H 0.10538 0.46687 0.92809 0.0
C2198 C 0.1006 0.50489 0.89033 0.0
C2199 C 0.09559 0.52572 0.87163 0.0
C2200 C 0.08582 0.50494 0.91268 0.0
C2201 C 0.07554 0.54672 0.87548 0.0
C2202 C 0.0611 0.54734 0.89802 0.0
C2203 C 0.05226 0.52738 0.9398 0.0
C2204 C 0.05784 0.5068 0.9587 0.0
C2205 C 0.06614 0.52659 0.9168 0.0
C2206 C 0.07663 0.48465 0.95381 0.0
C2207 C 0.09054 0.48378 0.93106 0.0
H2208 H 0.32747 0.28194 0.55669 0.0
H2209 H 0.24135 0.27651 0.56622 0.0
H2210 H 0.24835 0.28767 0.61214 0.0
H2211 H 0.27821 0.3028 0.64871 0.0
H2212 H 0.36405 0.31117 0.63964 0.0
H2213 H 0.35776 0.29622 0.5939 0.0
C2214 C 0.31021 0.28337 0.56879 0.0
C2215 C 0.28384 0.27985 0.55776 0.0
C2216 C 0.31425 0.29106 0.59501 0.0
C2217 C 0.26181 0.28006 0.57397 0.0
C2218 C 0.26576 0.28665 0.60022 0.0
C2219 C 0.29552 0.30188 0.63662 0.0
C2220 C 0.32148 0.30874 0.64724 0.0
C2221 C 0.29175 0.29315 0.6107 0.0
C2222 C 0.34386 0.30632 0.63168 0.0
C2223 C 0.34026 0.29761 0.60568 0.0
H2224 H 0.49346 0.5002 0.23813 0.0
H2225 H 0.41704 0.54099 0.22117 0.0
H2226 H 0.42117 0.52889 0.17536 0.0
H2227 H 0.44685 0.50792 0.14039 0.0
H2228 H 0.52624 0.47332 0.15672 0.0
H2229 H 0.51974 0.48003 0.20269 0.0
C2230 C 0.47776 0.50649 0.22436 0.0
C2231 C 0.45509 0.52163 0.2329 0.0
C2232 C 0.48051 0.49997 0.19806 0.0
C2233 C 0.43487 0.52969 0.21496 0.0
C2234 C 0.4371 0.52254 0.18883 0.0
C2235 C 0.46296 0.50211 0.15388 0.0
C2236 C 0.48719 0.49054 0.14484 0.0
C2237 C 0.45993 0.50789 0.18019 0.0
C2238 C 0.50723 0.48199 0.16288 0.0
C2239 C 0.50374 0.48627 0.18925 0.0
H2240 H 0.24551 0.69266 0.92792 0.0
H2241 H 0.32801 0.72451 0.93817 0.0
H2242 H 0.32071 0.75824 0.90395 0.0
H2243 H 0.29305 0.77448 0.86738 0.0
H2244 H 0.21021 0.74498 0.85716 0.0
H2245 H 0.21538 0.71509 0.89507 0.0
C2246 C 0.26172 0.70734 0.92299 0.0
C2247 C 0.28743 0.70535 0.93537 0.0
C2248 C 0.25743 0.72714 0.90311 0.0
C2249 C 0.30809 0.72494 0.92881 0.0
C2250 C 0.304 0.74439 0.90915 0.0
C2251 C 0.27595 0.76211 0.87391 0.0
C2252 C 0.25136 0.76188 0.8596 0.0
C2253 C 0.27908 0.74502 0.89563 0.0
C2254 C 0.2293 0.74577 0.86813 0.0
C2255 C 0.23233 0.72841 0.88965 0.0
H2256 H 0.15457 0.53735 0.72252 0.0
H2257 H 0.08535 0.58983 0.73994 0.0
H2258 H 0.07877 0.60057 0.69452 0.0
H2259 H 0.08905 0.58938 0.64947 0.0
H2260 H 0.15767 0.53616 0.63202 0.0
H2261 H 0.16879 0.53223 0.67794 0.0
C2262 C 0.13819 0.55134 0.71637 0.0
C2263 C 0.12006 0.5622 0.73435 0.0
C2264 C 0.13457 0.55744 0.69029 0.0
C2265 C 0.09935 0.58092 0.72634 0.0
C2266 C 0.09558 0.58707 0.7004 0.0
C2267 C 0.10683 0.57758 0.65582 0.0
C2268 C 0.12236 0.5628 0.63756 0.0
C2269 C 0.11257 0.57469 0.68215 0.0
C2270 C 0.14551 0.54782 0.6458 0.0
C2271 C 0.15164 0.54523 0.67202 0.0
H2272 H 0.23572 0.36224 0.45995 0.0
H2273 H 0.32086 0.38446 0.46686 0.0
H2274 H 0.3215 0.39049 0.42063 0.0
H2275 H 0.30072 0.37741 0.37816 0.0
H2276 H 0.2169 0.35101 0.37088 0.0
H2277 H 0.21261 0.35927 0.41736 0.0
C2278 C 0.25428 0.36915 0.45148 0.0
C2279 C 0.27846 0.37173 0.46665 0.0
C2280 C 0.25476 0.37145 0.42476 0.0
C2281 C 0.30214 0.38148 0.45548 0.0
C2282 C 0.30256 0.38487 0.42903 0.0
C2283 C 0.28133 0.37451 0.38677 0.0
C2284 C 0.25926 0.36322 0.3716 0.0
C2285 C 0.27944 0.37804 0.41341 0.0
C2286 C 0.2341 0.35963 0.38248 0.0
C2287 C 0.23177 0.36406 0.40901 0.0
H2288 H 0.31506 0.36185 0.5959 0.0
H2289 H 0.27927 0.42083 0.54207 0.0
H2290 H 0.32213 0.44819 0.54126 0.0
H2291 H 0.37119 0.44921 0.54986 0.0
H2292 H 0.40672 0.3906 0.60465 0.0
H2293 H 0.36247 0.36867 0.61058 0.0
C2294 C 0.31645 0.38142 0.58478 0.0
C2295 C 0.29424 0.38948 0.56911 0.0
C2296 C 0.34125 0.39635 0.58387 0.0
C2297 C 0.29607 0.41461 0.55459 0.0
C2298 C 0.3207 0.42987 0.55379 0.0
C2299 C 0.36935 0.43228 0.56372 0.0
C2300 C 0.39264 0.42118 0.57628 0.0
C2301 C 0.3437 0.42006 0.56745 0.0
C2302 C 0.38947 0.39895 0.59395 0.0
C2303 C 0.36408 0.38657 0.59762 0.0
H2304 H 0.85644 0.04473 0.52253 0.0
H2305 H 0.88323 0.10401 0.46585 0.0
H2306 H 0.92957 0.0886 0.47316 0.0
H2307 H 0.96269 0.05792 0.49483 0.0
H2308 H 0.93726 -0.00072 0.55245 0.0
H2309 H 0.89042 0.01471 0.54553 0.0
C2310 C 0.87245 0.05435 0.51189 0.0
C2311 C 0.86621 0.0756 0.4937 0.0
C2312 C 0.89938 0.04539 0.51623 0.0
C2313 C 0.8873 0.08782 0.48011 0.0
C2314 C 0.9139 0.07892 0.48417 0.0
C2315 C 0.94692 0.0484 0.50587 0.0
C2316 C 0.95351 0.0273 0.524 0.0
C2317 C 0.92017 0.05763 0.50204 0.0
C2318 C 0.93279 0.01552 0.53831 0.0
C2319 C 0.90597 0.02435 0.53437 0.0
H2320 H 0.68127 0.08306 0.27549 0.0
H2321 H 0.69561 0.11615 0.35385 0.0
H2322 H 0.70857 0.16411 0.33835 0.0
H2323 H 0.71586 0.19638 0.30262 0.0
H2324 H 0.70693 0.16201 0.22437 0.0
H2325 H 0.69093 0.11471 0.23965 0.0
C2326 C 0.68723 0.10078 0.28919 0.0
C2327 C 0.68733 0.09614 0.31582 0.0
C2328 C 0.6951 0.12804 0.28013 0.0
C2329 C 0.69547 0.11914 0.33331 0.0
C2330 C 0.70268 0.14659 0.32446 0.0
C2331 C 0.70997 0.1786 0.28894 0.0
C2332 C 0.71172 0.18265 0.26244 0.0
C2333 C 0.7024 0.15127 0.29795 0.0
C2334 C 0.70507 0.15937 0.24482 0.0
C2335 C 0.69621 0.13239 0.25358 0.0
H2336 H 0.70606 0.92989 0.06666 0.0
H2337 H 0.67481 0.85942 0.01622 0.0
H2338 H 0.65436 0.89485 0.98736 0.0
H2339 H 0.63889 0.945 0.98154 0.0
H2340 H 0.66862 0.01514 0.03377 0.0
H2341 H 0.69847 0.98114 0.0556 0.0
C2342 C 0.69626 0.92256 0.04852 0.0
C2343 C 0.69254 0.89244 0.04306 0.0
C2344 C 0.68447 0.94303 0.03233 0.0
C2345 C 0.67793 0.88269 0.0206 0.0
C2346 C 0.66638 0.9029 0.00411 0.0
C2347 C 0.6528 0.95315 -0.00308 0.0
C2348 C 0.65114 0.98238 0.00642 0.0
C2349 C 0.66864 0.93311 0.01037 0.0
C2350 C 0.66935 0.99264 0.02631 0.0
C2351 C 0.68609 0.9731 0.03907 0.0
H2352 H 0.3356 0.47535 0.28727 0.0
H2353 H 0.41619 0.44153 0.28482 0.0
H2354 H 0.3999 0.40027 0.25637 0.0
H2355 H 0.36157 0.37088 0.23685 0.0
H2356 H 0.28115 0.4052 0.23924 0.0
H2357 H 0.29857 0.45 0.26176 0.0
C2358 C 0.34949 0.4589 0.28041 0.0
C2359 C 0.37681 0.46074 0.28863 0.0
C2360 C 0.3401 0.43581 0.26351 0.0
C2361 C 0.39493 0.44002 0.27906 0.0
C2362 C 0.38567 0.41662 0.26268 0.0
C2363 C 0.34813 0.38887 0.24107 0.0
C2364 C 0.32018 0.38496 0.23619 0.0
C2365 C 0.35818 0.41398 0.25515 0.0
C2366 C 0.3028 0.40803 0.24243 0.0
C2367 C 0.31268 0.43335 0.25584 0.0
H2368 H 0.1865 0.62096 0.00248 0.0
H2369 H 0.21979 0.53558 0.01592 0.0
H2370 H 0.17749 0.51935 0.0328 0.0
H2371 H 0.13047 0.52774 0.04143 0.0
H2372 H 0.0949 0.61143 0.02618 0.0
H2373 H 0.13864 0.63004 0.01297 0.0
C2374 C 0.18447 0.59888 0.00921 0.0
C2375 C 0.20635 0.57951 0.00766 0.0
C2376 C 0.15969 0.58934 0.01875 0.0
C2377 C 0.20334 0.55095 0.01655 0.0
C2378 C 0.17912 0.54159 0.02636 0.0
C2379 C 0.13224 0.55024 0.03562 0.0
C2380 C 0.10933 0.56811 0.03484 0.0
C2381 C 0.15709 0.56042 0.02726 0.0
C2382 C 0.11218 0.59717 0.02709 0.0
C2383 C 0.13718 0.60776 0.01933 0.0
H2384 H 0.72934 0.9449 0.34519 0.0
H2385 H 0.70173 0.95825 0.26685 0.0
H2386 H 0.72681 0.91545 0.25209 0.0
H2387 H 0.75168 0.87041 0.26224 0.0
H2388 H 0.77575 0.85551 0.34114 0.0
H2389 H 0.75743 0.90277 0.35477 0.0
C2390 C 0.72921 0.93886 0.32481 0.0
C2391 C 0.71343 0.95467 0.30723 0.0
C2392 C 0.74297 0.91368 0.31654 0.0
C2393 C 0.7135 0.94635 0.28088 0.0
C2394 C 0.72781 0.92181 0.27241 0.0
C2395 C 0.75349 0.87795 0.28228 0.0
C2396 C 0.765 0.85958 0.30068 0.0
C2397 C 0.74191 0.90473 0.29016 0.0
C2398 C 0.76688 0.86931 0.32666 0.0
C2399 C 0.75633 0.89627 0.33449 0.0
H2400 H 0.83275 0.09479 0.83967 0.0
H2401 H 0.86475 0.07062 0.76603 0.0
H2402 H 0.84436 0.11389 0.74741 0.0
H2403 H 0.82083 0.16095 0.75317 0.0
H2404 H 0.79248 0.18641 0.82793 0.0
H2405 H 0.80769 0.14006 0.84492 0.0
C2406 C 0.835 0.09872 0.81945 0.0
C2407 C 0.85037 0.07959 0.80432 0.0
C2408 C 0.8239 0.12395 0.80909 0.0
C2409 C 0.85318 0.08515 0.77818 0.0
C2410 C 0.84152 0.10987 0.7675 0.0
C2411 C 0.81759 0.15599 0.77303 0.0
C2412 C 0.80561 0.17688 0.78933 0.0
C2413 C 0.82731 0.12975 0.78292 0.0
C2414 C 0.80179 0.17058 0.81511 0.0
C2415 C 0.81051 0.14416 0.82483 0.0
loop_
_geom_bond_atom_site_label_1
_geom_bond_atom_site_label_2
_geom_bond_distance
_geom_bond_site_symmetry_2
_ccdc_geom_bond_type
Mg0 O1 2.028 . S
Mg0 O7 1.986 . S
Mg0 O9 2.114 . S
Mg0 O10 2.251 . S
Mg0 O13 2.010 . S
O1 Mg0 2.028 . S
O1 C4 1.250 . S
O2 Mg3 2.028 . S
O2 C4 1.248 . S
Mg3 O2 2.028 . S
Mg3 O8 2.032 . S
Mg3 O10 2.079 . S
C4 O1 1.250 . S
C4 O2 1.248 . S
C5 O6 1.264 . S
C5 O13 1.249 . S
O6 C5 1.264 . S
O7 Mg0 1.986 . S
O7 C11 1.246 . S
O8 Mg3 2.032 . S
O8 C11 1.259 . S
O9 Mg0 2.114 . S
O9 C12 1.252 . S
O10 Mg0 2.251 . S
O10 Mg3 2.079 . S
O10 C12 1.273 . S
C11 O7 1.246 . S
C11 O8 1.259 . S
C12 O9 1.252 . S
C12 O10 1.273 . S
O13 Mg0 2.010 . S
O13 C5 1.249 . S
Mg14 O15 2.028 . S
Mg14 O21 1.986 . S
Mg14 O23 2.114 . S
Mg14 O24 2.251 1_455 S
Mg14 O27 2.010 . S
O15 Mg14 2.028 . S
O15 C18 1.250 . S
O16 Mg17 2.028 1_455 S
O16 C18 1.248 . S
Mg17 O16 2.028 1_655 S
Mg17 O22 2.032 1_655 S
Mg17 O24 2.079 . S
C18 O15 1.250 . S
C18 O16 1.248 . S
C19 O20 1.264 . S
C19 O27 1.249 . S
O20 C19 1.264 . S
O21 Mg14 1.986 . S
O21 C25 1.246 . S
O22 Mg17 2.032 1_455 S
O22 C25 1.259 . S
O23 Mg14 2.114 . S
O23 C26 1.252 1_455 S
O24 Mg14 2.251 1_655 S
O24 Mg17 2.079 . S
O24 C26 1.273 . S
C25 O21 1.246 . S
C25 O22 1.259 . S
C26 O23 1.252 1_655 S
C26 O24 1.273 . S
O27 Mg14 2.010 . S
O27 C19 1.249 . S
Mg28 O29 2.028 . S
Mg28 O35 1.986 . S
Mg28 O37 2.114 . S
Mg28 O38 2.251 . S
Mg28 O41 2.010 . S
O29 Mg28 2.028 . S
O29 C32 1.250 . S
O30 Mg31 2.028 . S
O30 C32 1.248 . S
Mg31 O30 2.028 . S
Mg31 O36 2.032 . S
Mg31 O38 2.079 . S
C32 O29 1.250 . S
C32 O30 1.248 . S
C33 O34 1.264 . S
C33 O41 1.249 . S
O34 C33 1.264 . S
O35 Mg28 1.986 . S
O35 C39 1.246 . S
O36 Mg31 2.032 . S
O36 C39 1.259 . S
O37 Mg28 2.114 . S
O37 C40 1.252 . S
O38 Mg28 2.251 . S
O38 Mg31 2.079 . S
O38 C40 1.273 . S
C39 O35 1.246 . S
C39 O36 1.259 . S
C40 O37 1.252 . S
C40 O38 1.273 . S
O41 Mg28 2.010 . S
O41 C33 1.249 . S
Mg42 O43 2.028 . S
Mg42 O49 1.986 . S
Mg42 O51 2.114 . S
Mg42 O52 2.251 . S
Mg42 O55 2.010 . S
O43 Mg42 2.028 . S
O43 C46 1.250 . S
O44 Mg45 2.028 . S
O44 C46 1.248 . S
Mg45 O44 2.028 . S
Mg45 O50 2.032 . S
Mg45 O52 2.079 . S
C46 O43 1.250 . S
C46 O44 1.248 . S
C47 O48 1.264 . S
C47 O55 1.249 . S
O48 C47 1.264 . S
O49 Mg42 1.986 . S
O49 C53 1.246 . S
O50 Mg45 2.032 . S
O50 C53 1.259 . S
O51 Mg42 2.114 . S
O51 C54 1.252 . S
O52 Mg42 2.251 . S
O52 Mg45 2.079 . S
O52 C54 1.273 . S
C53 O49 1.246 . S
C53 O50 1.259 . S
C54 O51 1.252 . S
C54 O52 1.273 . S
O55 Mg42 2.010 . S
O55 C47 1.249 . S
Mg56 O57 2.028 . S
Mg56 O63 1.986 1_545 S
Mg56 O65 2.114 . S
Mg56 O66 2.251 . S
Mg56 O69 2.010 . S
O57 Mg56 2.028 . S
O57 C60 1.250 . S
O58 Mg59 2.028 . S
O58 C60 1.248 . S
Mg59 O58 2.028 . S
Mg59 O64 2.032 1_545 S
Mg59 O66 2.079 . S
C60 O57 1.250 . S
C60 O58 1.248 . S
C61 O62 1.278 . S
C61 O69 1.249 . S
O62 C61 1.278 . S
O63 Mg56 1.986 1_565 S
O63 C67 1.246 . S
O64 Mg59 2.032 1_565 S
O64 C67 1.259 . S
O65 Mg56 2.114 . S
O65 C68 1.252 . S
O66 Mg56 2.251 . S
O66 Mg59 2.079 . S
O66 C68 1.273 . S
C67 O63 1.246 . S
C67 O64 1.259 . S
C68 O65 1.252 . S
C68 O66 1.273 . S
O69 Mg56 2.010 . S
O69 C61 1.249 . S
Mg70 O71 2.028 . S
Mg70 O77 1.986 . S
Mg70 O79 2.114 . S
Mg70 O80 2.251 . S
Mg70 O83 2.010 . S
O71 Mg70 2.028 . S
O71 C74 1.250 . S
O72 Mg73 2.028 . S
O72 C74 1.248 . S
Mg73 O72 2.028 . S
Mg73 O78 2.032 . S
Mg73 O80 2.079 . S
C74 O71 1.250 . S
C74 O72 1.248 . S
C75 O76 1.264 . S
C75 O83 1.249 . S
O76 C75 1.264 . S
O77 Mg70 1.986 . S
O77 C81 1.246 . S
O78 Mg73 2.032 . S
O78 C81 1.259 . S
O79 Mg70 2.114 . S
O79 C82 1.252 . S
O80 Mg70 2.251 . S
O80 Mg73 2.079 . S
O80 C82 1.273 . S
C81 O77 1.246 . S
C81 O78 1.259 . S
C82 O79 1.252 . S
C82 O80 1.273 . S
O83 Mg70 2.010 . S
O83 C75 1.249 . S
Mg84 O85 2.028 1_545 S
Mg84 O91 1.986 . S
Mg84 O93 2.114 . S
Mg84 O94 2.251 . S
Mg84 O97 2.010 . S
O85 Mg84 2.028 1_565 S
O85 C88 1.250 . S
O86 Mg87 2.028 1_565 S
O86 C88 1.248 . S
Mg87 O86 2.028 1_545 S
Mg87 O92 2.032 . S
Mg87 O94 2.079 . S
C88 O85 1.250 . S
C88 O86 1.248 . S
C89 O90 1.264 . S
C89 O97 1.249 . S
O90 C89 1.264 . S
O91 Mg84 1.986 . S
O91 C95 1.246 . S
O92 Mg87 2.032 . S
O92 C95 1.259 . S
O93 Mg84 2.114 . S
O93 C96 1.252 . S
O94 Mg84 2.251 . S
O94 Mg87 2.079 . S
O94 C96 1.273 . S
C95 O91 1.246 . S
C95 O92 1.259 . S
C96 O93 1.252 . S
C96 O94 1.273 . S
O97 Mg84 2.010 . S
O97 C89 1.249 . S
Mg98 O99 2.028 . S
Mg98 O105 1.986 1_554 S
Mg98 O107 2.114 . S
Mg98 O108 2.251 . S
Mg98 O111 2.010 . S
O99 Mg98 2.028 . S
O99 C102 1.250 . S
O100 Mg101 2.028 . S
O100 C102 1.248 . S
Mg101 O100 2.028 . S
Mg101 O106 2.032 . S
Mg101 O108 2.079 . S
C102 O99 1.250 . S
C102 O100 1.248 . S
C103 O104 1.264 . S
C103 O111 1.249 . S
O104 C103 1.264 . S
O105 Mg98 1.986 1_556 S
O105 C109 1.246 . S
O106 Mg101 2.032 . S
O106 C109 1.259 1_554 S
O107 Mg98 2.114 . S
O107 C110 1.252 . S
O108 Mg98 2.251 . S
O108 Mg101 2.079 . S
O108 C110 1.273 . S
C109 O105 1.246 . S
C109 O106 1.259 1_556 S
C110 O107 1.252 . S
C110 O108 1.273 . S
O111 Mg98 2.010 . S
O111 C103 1.249 . S
Mg112 O113 2.028 . S
Mg112 O119 1.986 . S
Mg112 O121 2.114 . S
Mg112 O122 2.251 . S
Mg112 O125 2.010 . S
O113 Mg112 2.028 . S
O113 C116 1.250 . S
O114 Mg115 2.028 . S
O114 C116 1.248 . S
Mg115 O114 2.028 . S
Mg115 O120 2.032 . S
Mg115 O122 2.079 . S
C116 O113 1.250 . S
C116 O114 1.248 . S
C117 O118 1.264 . S
C117 O125 1.249 . S
O118 C117 1.264 . S
O119 Mg112 1.986 . S
O119 C123 1.246 . S
O120 Mg115 2.032 . S
O120 C123 1.259 . S
O121 Mg112 2.114 . S
O121 C124 1.252 . S
O122 Mg112 2.251 . S
O122 Mg115 2.079 . S
O122 C124 1.273 . S
C123 O119 1.246 . S
C123 O120 1.259 . S
C124 O121 1.252 . S
C124 O122 1.273 . S
O125 Mg112 2.010 . S
O125 C117 1.249 . S
Mg126 O127 2.028 . S
Mg126 O133 1.986 . S
Mg126 O135 2.114 . S
Mg126 O136 2.251 . S
Mg126 O139 2.010 . S
O127 Mg126 2.028 . S
O127 C130 1.250 . S
O128 Mg129 2.028 . S
O128 C130 1.248 . S
Mg129 O128 2.028 . S
Mg129 O134 2.032 . S
Mg129 O136 2.079 . S
C130 O127 1.250 . S
C130 O128 1.248 . S
C131 O132 1.264 . S
C131 O139 1.249 . S
O132 C131 1.264 . S
O133 Mg126 1.986 . S
O133 C137 1.246 . S
O134 Mg129 2.032 . S
O134 C137 1.259 . S
O135 Mg126 2.114 . S
O135 C138 1.252 . S
O136 Mg126 2.251 . S
O136 Mg129 2.079 . S
O136 C138 1.273 . S
C137 O133 1.246 . S
C137 O134 1.259 . S
C138 O135 1.252 . S
C138 O136 1.273 . S
O139 Mg126 2.010 . S
O139 C131 1.249 . S
Mg140 O141 2.028 . S
Mg140 O147 1.986 . S
Mg140 O149 2.114 . S
Mg140 O150 2.251 . S
Mg140 O153 2.010 . S
O141 Mg140 2.028 . S
O141 C144 1.250 . S
O142 Mg143 2.028 . S
O142 C144 1.248 . S
Mg143 O142 2.028 . S
Mg143 O148 2.032 . S
Mg143 O150 2.079 . S
C144 O141 1.250 . S
C144 O142 1.248 . S
C145 O146 1.264 . S
C145 O153 1.249 . S
O146 C145 1.264 . S
O147 Mg140 1.986 . S
O147 C151 1.246 . S
O148 Mg143 2.032 . S
O148 C151 1.259 . S
O149 Mg140 2.114 . S
O149 C152 1.252 . S
O150 Mg140 2.251 . S
O150 Mg143 2.079 . S
O150 C152 1.273 . S
C151 O147 1.246 . S
C151 O148 1.259 . S
C152 O149 1.252 . S
C152 O150 1.273 . S
O153 Mg140 2.010 . S
O153 C145 1.249 . S
Mg154 O155 2.028 . S
Mg154 O161 1.986 . S
Mg154 O163 2.114 . S
Mg154 O164 2.251 . S
Mg154 O167 2.010 . S
O155 Mg154 2.028 . S
O155 C158 1.250 . S
O156 Mg157 2.028 . S
O156 C158 1.248 . S
Mg157 O156 2.028 . S
Mg157 O162 2.032 . S
Mg157 O164 2.079 . S
C158 O155 1.250 . S
C158 O156 1.248 . S
C159 O160 1.264 . S
C159 O167 1.249 . S
O160 C159 1.264 . S
O161 Mg154 1.986 . S
O161 C165 1.246 . S
O162 Mg157 2.032 . S
O162 C165 1.259 . S
O163 Mg154 2.114 . S
O163 C166 1.252 . S
O164 Mg154 2.251 . S
O164 Mg157 2.079 . S
O164 C166 1.273 . S
C165 O161 1.246 . S
C165 O162 1.259 . S
C166 O163 1.252 . S
C166 O164 1.273 . S
O167 Mg154 2.010 . S
O167 C159 1.249 . S
Mg168 O169 2.023 1_655 S
Mg168 O175 1.978 1_655 S
Mg168 O177 2.137 . S
Mg168 O178 2.293 . S
Mg168 O181 1.972 1_655 S
O169 Mg168 2.023 1_455 S
O169 C172 1.250 1_455 S
O170 Mg171 2.028 . S
O170 C172 1.248 . S
Mg171 O170 2.028 . S
Mg171 O176 2.032 . S
Mg171 O178 2.079 . S
C172 O169 1.250 1_655 S
C172 O170 1.248 . S
C173 O174 1.264 . S
C173 O181 1.249 . S
O174 C173 1.264 . S
O175 Mg168 1.978 1_455 S
O175 C179 1.246 1_455 S
O176 Mg171 2.032 . S
O176 C179 1.259 . S
O177 Mg168 2.137 . S
O177 C180 1.252 . S
O178 Mg168 2.293 . S
O178 Mg171 2.079 . S
O178 C180 1.273 . S
C179 O175 1.246 1_655 S
C179 O176 1.259 . S
C180 O177 1.252 . S
C180 O178 1.273 . S
O181 Mg168 1.972 1_455 S
O181 C173 1.249 . S
Mg182 O183 2.028 . S
Mg182 O189 1.986 . S
Mg182 O191 2.114 . S
Mg182 O192 2.251 1_455 S
Mg182 O195 2.010 . S
O183 Mg182 2.028 . S
O183 C186 1.250 . S
O184 Mg185 2.028 1_455 S
O184 C186 1.248 . S
Mg185 O184 2.028 1_655 S
Mg185 O190 2.032 1_655 S
Mg185 O192 2.079 . S
C186 O183 1.250 . S
C186 O184 1.248 . S
C187 O188 1.264 . S
C187 O195 1.249 . S
O188 C187 1.264 . S
O189 Mg182 1.986 . S
O189 C193 1.246 . S
O190 Mg185 2.032 1_455 S
O190 C193 1.259 . S
O191 Mg182 2.114 . S
O191 C194 1.252 1_455 S
O192 Mg182 2.251 1_655 S
O192 Mg185 2.079 . S
O192 C194 1.273 . S
C193 O189 1.246 . S
C193 O190 1.259 . S
C194 O191 1.252 1_655 S
C194 O192 1.273 . S
O195 Mg182 2.010 . S
O195 C187 1.249 . S
Mg196 O197 2.028 . S
Mg196 O203 1.986 . S
Mg196 O205 2.114 . S
Mg196 O206 2.251 . S
Mg196 O209 2.010 . S
O197 Mg196 2.028 . S
O197 C200 1.250 . S
O198 Mg199 2.028 . S
O198 C200 1.248 . S
Mg199 O198 2.028 . S
Mg199 O204 2.032 . S
Mg199 O206 2.079 . S
C200 O197 1.250 . S
C200 O198 1.248 . S
C201 O202 1.264 . S
C201 O209 1.249 . S
O202 C201 1.264 . S
O203 Mg196 1.986 . S
O203 C207 1.246 . S
O204 Mg199 2.032 . S
O204 C207 1.259 . S
O205 Mg196 2.114 . S
O205 C208 1.252 . S
O206 Mg196 2.251 . S
O206 Mg199 2.079 . S
O206 C208 1.273 . S
C207 O203 1.246 . S
C207 O204 1.259 . S
C208 O205 1.252 . S
C208 O206 1.273 . S
O209 Mg196 2.010 . S
O209 C201 1.249 . S
Mg210 O211 2.028 . S
Mg210 O217 1.986 . S
Mg210 O219 2.114 . S
Mg210 O220 2.251 . S
Mg210 O223 2.010 . S
O211 Mg210 2.028 . S
O211 C214 1.250 . S
O212 Mg213 2.028 . S
O212 C214 1.248 . S
Mg213 O212 2.028 . S
Mg213 O218 2.032 . S
Mg213 O220 2.079 . S
C214 O211 1.250 . S
C214 O212 1.248 . S
C215 O216 1.264 . S
C215 O223 1.249 . S
O216 C215 1.264 . S
O217 Mg210 1.986 . S
O217 C221 1.246 . S
O218 Mg213 2.032 . S
O218 C221 1.259 . S
O219 Mg210 2.114 . S
O219 C222 1.252 . S
O220 Mg210 2.251 . S
O220 Mg213 2.079 . S
O220 C222 1.273 . S
C221 O217 1.246 . S
C221 O218 1.259 . S
C222 O219 1.252 . S
C222 O220 1.273 . S
O223 Mg210 2.010 . S
O223 C215 1.249 . S
Mg224 O225 2.028 1_545 S
Mg224 O231 1.986 . S
Mg224 O233 2.124 . S
Mg224 O234 2.251 . S
Mg224 O237 2.010 . S
O225 Mg224 2.028 1_565 S
O225 C228 1.250 . S
O226 Mg227 2.028 1_565 S
O226 C228 1.248 . S
Mg227 O226 2.028 1_545 S
Mg227 O232 2.032 . S
Mg227 O234 2.079 . S
C228 O225 1.250 . S
C228 O226 1.248 . S
C229 O230 1.264 . S
C229 O237 1.249 . S
O230 C229 1.264 . S
O231 Mg224 1.986 . S
O231 C235 1.246 . S
O232 Mg227 2.032 . S
O232 C235 1.259 . S
O233 Mg224 2.124 . S
O233 C236 1.257 . S
O234 Mg224 2.251 . S
O234 Mg227 2.079 . S
O234 C236 1.273 . S
C235 O231 1.246 . S
C235 O232 1.259 . S
C236 O233 1.257 . S
C236 O234 1.273 . S
O237 Mg224 2.010 . S
O237 C229 1.249 . S
Mg238 O239 2.028 . S
Mg238 O245 1.986 . S
Mg238 O247 2.114 . S
Mg238 O248 2.251 . S
Mg238 O251 2.010 . S
O239 Mg238 2.028 . S
O239 C242 1.250 . S
O240 Mg241 2.028 . S
O240 C242 1.248 . S
Mg241 O240 2.028 . S
Mg241 O246 2.032 . S
Mg241 O248 2.079 . S
C242 O239 1.250 . S
C242 O240 1.248 . S
C243 O244 1.264 . S
C243 O251 1.249 . S
O244 C243 1.264 . S
O245 Mg238 1.986 . S
O245 C249 1.246 . S
O246 Mg241 2.032 . S
O246 C249 1.259 . S
O247 Mg238 2.114 . S
O247 C250 1.252 . S
O248 Mg238 2.251 . S
O248 Mg241 2.079 . S
O248 C250 1.273 . S
C249 O245 1.246 . S
C249 O246 1.259 . S
C250 O247 1.252 . S
C250 O248 1.273 . S
O251 Mg238 2.010 . S
O251 C243 1.249 . S
Mg252 O253 2.028 . S
Mg252 O259 1.986 1_545 S
Mg252 O261 2.114 . S
Mg252 O262 2.251 . S
Mg252 O265 2.010 . S
O253 Mg252 2.028 . S
O253 C256 1.250 . S
O254 Mg255 2.028 . S
O254 C256 1.248 . S
Mg255 O254 2.028 . S
Mg255 O260 2.032 1_545 S
Mg255 O262 2.079 . S
C256 O253 1.250 . S
C256 O254 1.248 . S
C257 O258 1.262 1_545 S
C257 O265 1.249 . S
O258 C257 1.262 1_565 S
O259 Mg252 1.986 1_565 S
O259 C263 1.246 . S
O260 Mg255 2.032 1_565 S
O260 C263 1.259 . S
O261 Mg252 2.114 . S
O261 C264 1.252 . S
O262 Mg252 2.251 . S
O262 Mg255 2.079 . S
O262 C264 1.273 . S
C263 O259 1.246 . S
C263 O260 1.259 . S
C264 O261 1.252 . S
C264 O262 1.273 . S
O265 Mg252 2.010 . S
O265 C257 1.249 . S
Mg266 O267 2.028 . S
Mg266 O273 1.986 . S
Mg266 O275 2.114 . S
Mg266 O276 2.251 . S
Mg266 O279 2.010 . S
O267 Mg266 2.028 . S
O267 C270 1.250 1_554 S
O268 Mg269 2.028 . S
O268 C270 1.248 1_554 S
Mg269 O268 2.028 . S
Mg269 O274 2.032 . S
Mg269 O276 2.079 . S
C270 O267 1.250 1_556 S
C270 O268 1.248 1_556 S
C271 O272 1.264 . S
C271 O279 1.249 . S
O272 C271 1.264 . S
O273 Mg266 1.986 . S
O273 C277 1.246 . S
O274 Mg269 2.032 . S
O274 C277 1.259 . S
O275 Mg266 2.114 . S
O275 C278 1.252 . S
O276 Mg266 2.251 . S
O276 Mg269 2.079 . S
O276 C278 1.273 . S
C277 O273 1.246 . S
C277 O274 1.259 . S
C278 O275 1.252 . S
C278 O276 1.273 . S
O279 Mg266 2.010 . S
O279 C271 1.249 . S
Mg280 O281 2.028 1_556 S
Mg280 O287 1.986 . S
Mg280 O289 2.114 1_556 S
Mg280 O290 2.251 . S
Mg280 O293 2.010 . S
O281 Mg280 2.028 1_554 S
O281 C284 1.250 . S
O282 Mg283 2.029 . S
O282 C284 1.248 . S
Mg283 O282 2.029 . S
Mg283 O288 2.032 1_554 S
Mg283 O290 2.079 1_554 S
C284 O281 1.250 . S
C284 O282 1.248 . S
C285 O286 1.264 . S
C285 O293 1.249 . S
O286 C285 1.264 . S
O287 Mg280 1.986 . S
O287 C291 1.246 . S
O288 Mg283 2.032 1_556 S
O288 C291 1.259 . S
O289 Mg280 2.114 1_554 S
O289 C292 1.252 . S
O290 Mg280 2.251 . S
O290 Mg283 2.079 1_556 S
O290 C292 1.273 1_556 S
C291 O287 1.246 . S
C291 O288 1.259 . S
C292 O289 1.252 . S
C292 O290 1.273 1_554 S
O293 Mg280 2.010 . S
O293 C285 1.249 . S
Mg294 O295 2.028 . S
Mg294 O301 1.986 . S
Mg294 O303 2.114 . S
Mg294 O304 2.251 . S
Mg294 O307 2.010 . S
O295 Mg294 2.028 . S
O295 C298 1.250 . S
O296 Mg297 2.028 . S
O296 C298 1.248 . S
Mg297 O296 2.028 . S
Mg297 O302 2.032 . S
Mg297 O304 2.079 . S
C298 O295 1.250 . S
C298 O296 1.248 . S
C299 O300 1.264 . S
C299 O307 1.249 . S
O300 C299 1.264 . S
O301 Mg294 1.986 . S
O301 C305 1.246 . S
O302 Mg297 2.032 . S
O302 C305 1.259 . S
O303 Mg294 2.114 . S
O303 C306 1.252 . S
O304 Mg294 2.251 . S
O304 Mg297 2.079 . S
O304 C306 1.273 . S
C305 O301 1.246 . S
C305 O302 1.259 . S
C306 O303 1.252 . S
C306 O304 1.273 . S
O307 Mg294 2.010 . S
O307 C299 1.249 . S
Mg308 O309 2.028 . S
Mg308 O315 1.986 . S
Mg308 O317 2.114 . S
Mg308 O318 2.251 . S
Mg308 O321 2.010 . S
O309 Mg308 2.028 . S
O309 C312 1.250 . S
O310 Mg311 2.028 . S
O310 C312 1.248 . S
Mg311 O310 2.028 . S
Mg311 O316 2.032 . S
Mg311 O318 2.079 . S
C312 O309 1.250 . S
C312 O310 1.248 . S
C313 O314 1.264 . S
C313 O321 1.249 . S
O314 C313 1.264 . S
O315 Mg308 1.986 . S
O315 C319 1.246 . S
O316 Mg311 2.032 . S
O316 C319 1.259 . S
O317 Mg308 2.114 . S
O317 C320 1.252 . S
O318 Mg308 2.251 . S
O318 Mg311 2.079 . S
O318 C320 1.273 . S
C319 O315 1.246 . S
C319 O316 1.259 . S
C320 O317 1.252 . S
C320 O318 1.273 . S
O321 Mg308 2.010 . S
O321 C313 1.249 . S
Mg322 O323 2.028 . S
Mg322 O329 1.986 . S
Mg322 O331 2.114 . S
Mg322 O332 2.251 . S
Mg322 O335 2.010 . S
O323 Mg322 2.028 . S
O323 C326 1.250 . S
O324 Mg325 2.028 . S
O324 C326 1.248 . S
Mg325 O324 2.028 . S
Mg325 O330 2.032 . S
Mg325 O332 2.079 . S
C326 O323 1.250 . S
C326 O324 1.248 . S
C327 O328 1.264 . S
C327 O335 1.249 . S
O328 C327 1.264 . S
O329 Mg322 1.986 . S
O329 C333 1.246 . S
O330 Mg325 2.032 . S
O330 C333 1.259 . S
O331 Mg322 2.114 . S
O331 C334 1.252 . S
O332 Mg322 2.251 . S
O332 Mg325 2.079 . S
O332 C334 1.273 . S
C333 O329 1.246 . S
C333 O330 1.259 . S
C334 O331 1.252 . S
C334 O332 1.273 . S
O335 Mg322 2.010 . S
O335 C327 1.249 . S
C336 O352 1.251 1_456 S
C336 O354 1.254 . S
N337 C338 1.337 . S
N337 C342 1.301 1_545 S
N337 Zn343 2.021 1_655 S
C338 N337 1.337 . S
C338 C339 1.379 . S
C338 H356 0.952 . S
C339 C338 1.379 . S
C339 C340 1.390 1_545 S
C339 H366 0.949 . S
C340 C339 1.390 1_565 S
C340 C341 1.357 . S
C341 C340 1.357 . S
C341 C342 1.370 . S
C341 H367 0.950 . S
C342 N337 1.301 1_565 S
C342 C341 1.370 . S
C342 H360 0.948 . S
Zn343 N337 2.021 1_455 S
Zn343 O352 2.039 1_455 S
Zn343 O358 2.034 . S
Zn343 O362 2.025 1_545 S
Zn343 O364 2.024 1_545 S
C344 O363 1.246 . S
C344 O364 1.249 . S
N345 C346 1.307 1_554 S
N345 C347 1.333 . S
N345 Zn351 2.020 . S
C346 N345 1.307 1_556 S
C346 C350 1.370 . S
C346 H357 0.948 . S
C347 N345 1.333 . S
C347 C348 1.379 . S
C347 H355 0.952 . S
C348 C347 1.379 . S
C348 C349 1.390 . S
C348 H368 0.949 . S
C349 C348 1.390 . S
C349 C350 1.357 1_554 S
C350 C346 1.370 . S
C350 C349 1.357 1_556 S
C350 H369 0.950 . S
Zn351 N345 2.020 . S
Zn351 O354 2.025 1_554 S
Zn351 O359 2.024 . S
Zn351 O361 2.039 . S
Zn351 O363 2.034 1_545 S
O352 C336 1.251 1_654 S
O352 Zn343 2.039 1_655 S
C353 O358 1.246 . S
C353 O359 1.249 . S
O354 C336 1.254 . S
O354 Zn351 2.025 1_556 S
H355 C347 0.952 . S
H356 C338 0.952 . S
H357 C346 0.948 . S
O358 Zn343 2.034 . S
O358 C353 1.246 . S
O359 Zn351 2.024 . S
O359 C353 1.249 . S
H360 C342 0.948 . S
O361 Zn351 2.039 . S
O361 C365 1.251 . S
O362 Zn343 2.025 1_565 S
O362 C365 1.254 1_565 S
O363 C344 1.246 . S
O363 Zn351 2.034 1_565 S
O364 Zn343 2.024 1_565 S
O364 C344 1.249 . S
C365 O361 1.251 . S
C365 O362 1.254 1_545 S
H366 C339 0.949 . S
H367 C341 0.950 . S
H368 C348 0.949 . S
H369 C350 0.950 . S
C370 O386 1.251 . S
C370 O388 1.254 . S
N371 C372 1.333 . S
N371 C376 1.307 . S
N371 Zn377 2.020 . S
C372 N371 1.333 . S
C372 C373 1.379 . S
C372 H390 0.952 . S
C373 C372 1.379 . S
C373 C374 1.390 . S
C373 H400 0.949 . S
C374 C373 1.390 . S
C374 C375 1.357 . S
C375 C374 1.357 . S
C375 C376 1.370 . S
C375 H401 0.950 . S
C376 N371 1.307 . S
C376 C375 1.370 . S
C376 H394 0.948 . S
Zn377 N371 2.020 . S
Zn377 O386 2.039 . S
Zn377 O392 2.034 . S
Zn377 O396 2.025 . S
Zn377 O398 2.024 . S
C378 O397 1.246 . S
C378 O398 1.249 . S
N379 C380 1.307 . S
N379 C381 1.333 . S
N379 Zn385 2.020 . S
C380 N379 1.307 . S
C380 C384 1.370 . S
C380 H391 0.948 . S
C381 N379 1.333 . S
C381 C382 1.379 . S
C381 H389 0.952 . S
C382 C381 1.379 . S
C382 C383 1.390 . S
C382 H402 0.949 . S
C383 C382 1.390 . S
C383 C384 1.357 . S
C384 C380 1.370 . S
C384 C383 1.357 . S
C384 H403 0.950 . S
Zn385 N379 2.020 . S
Zn385 O388 2.025 . S
Zn385 O393 2.024 . S
Zn385 O395 2.039 . S
Zn385 O397 2.034 . S
O386 C370 1.251 . S
O386 Zn377 2.039 . S
C387 O392 1.246 . S
C387 O393 1.249 . S
O388 C370 1.254 . S
O388 Zn385 2.025 . S
H389 C381 0.952 . S
H390 C372 0.952 . S
H391 C380 0.948 . S
O392 Zn377 2.034 . S
O392 C387 1.246 . S
O393 Zn385 2.024 . S
O393 C387 1.249 . S
H394 C376 0.948 . S
O395 Zn385 2.039 . S
O395 C399 1.251 . S
O396 Zn377 2.025 . S
O396 C399 1.254 . S
O397 C378 1.246 . S
O397 Zn385 2.034 . S
O398 Zn377 2.024 . S
O398 C378 1.249 . S
C399 O395 1.251 . S
C399 O396 1.254 . S
H400 C373 0.949 . S
H401 C375 0.950 . S
H402 C382 0.949 . S
H403 C384 0.950 . S
C404 O420 1.251 . S
C404 O422 1.254 . S
N405 C406 1.333 . S
N405 C410 1.307 . S
N405 Zn411 2.020 . S
C406 N405 1.333 . S
C406 C407 1.379 . S
C406 H424 0.952 . S
C407 C406 1.379 . S
C407 C408 1.390 . S
C407 H434 0.949 . S
C408 C407 1.390 . S
C408 C409 1.357 . S
C409 C408 1.357 . S
C409 C410 1.370 . S
C409 H435 0.950 . S
C410 N405 1.307 . S
C410 C409 1.370 . S
C410 H428 0.948 . S
Zn411 N405 2.020 . S
Zn411 O420 2.039 1_565 S
Zn411 O426 2.034 1_565 S
Zn411 O430 2.025 . S
Zn411 O432 2.024 . S
C412 O431 1.246 1_565 S
C412 O432 1.249 . S
N413 C414 1.307 . S
N413 C415 1.333 . S
N413 Zn419 2.020 . S
C414 N413 1.307 . S
C414 C418 1.370 . S
C414 H425 0.948 . S
C415 N413 1.333 . S
C415 C416 1.379 . S
C415 H423 0.952 . S
C416 C415 1.379 . S
C416 C417 1.390 . S
C416 H436 0.949 . S
C417 C416 1.390 . S
C417 C418 1.357 . S
C418 C414 1.370 . S
C418 C417 1.357 . S
C418 H437 0.950 . S
Zn419 N413 2.020 . S
Zn419 O422 2.025 . S
Zn419 O427 2.024 . S
Zn419 O429 2.039 . S
Zn419 O431 2.034 . S
O420 C404 1.251 . S
O420 Zn411 2.039 1_545 S
C421 O426 1.246 . S
C421 O427 1.249 . S
O422 C404 1.254 . S
O422 Zn419 2.025 . S
H423 C415 0.952 . S
H424 C406 0.952 . S
H425 C414 0.948 . S
O426 Zn411 2.034 1_545 S
O426 C421 1.246 . S
O427 Zn419 2.024 . S
O427 C421 1.249 . S
H428 C410 0.948 . S
O429 Zn419 2.039 . S
O429 C433 1.251 . S
O430 Zn411 2.025 . S
O430 C433 1.254 1_565 S
O431 C412 1.246 1_545 S
O431 Zn419 2.034 . S
O432 Zn411 2.024 . S
O432 C412 1.249 . S
C433 O429 1.251 . S
C433 O430 1.254 1_545 S
H434 C407 0.949 . S
H435 C409 0.950 . S
H436 C416 0.949 . S
H437 C418 0.950 . S
C438 O454 1.251 . S
C438 O456 1.254 . S
N439 C440 1.333 . S
N439 C444 1.307 . S
N439 Zn445 2.020 . S
C440 N439 1.333 . S
C440 C441 1.379 . S
C440 H458 0.952 . S
C441 C440 1.379 . S
C441 C442 1.390 . S
C441 H468 0.949 . S
C442 C441 1.390 . S
C442 C443 1.357 . S
C443 C442 1.357 . S
C443 C444 1.370 . S
C443 H469 0.950 . S
C444 N439 1.307 . S
C444 C443 1.370 . S
C444 H462 0.948 . S
Zn445 N439 2.020 . S
Zn445 O454 2.039 . S
Zn445 O460 2.034 . S
Zn445 O464 2.025 . S
Zn445 O466 2.024 . S
C446 O465 1.246 . S
C446 O466 1.249 . S
N447 C448 1.307 . S
N447 C449 1.333 . S
N447 Zn453 2.020 . S
C448 N447 1.307 . S
C448 C452 1.370 . S
C448 H459 0.948 . S
C449 N447 1.333 . S
C449 C450 1.379 . S
C449 H457 0.952 . S
C450 C449 1.379 . S
C450 C451 1.390 . S
C450 H470 0.949 . S
C451 C450 1.390 . S
C451 C452 1.357 . S
C452 C448 1.370 . S
C452 C451 1.357 . S
C452 H471 0.950 . S
Zn453 N447 2.020 . S
Zn453 O456 2.025 . S
Zn453 O461 2.024 . S
Zn453 O463 2.039 . S
Zn453 O465 2.034 . S
O454 C438 1.251 . S
O454 Zn445 2.039 . S
C455 O460 1.246 . S
C455 O461 1.249 . S
O456 C438 1.254 . S
O456 Zn453 2.025 . S
H457 C449 0.952 . S
H458 C440 0.952 . S
H459 C448 0.948 . S
O460 Zn445 2.034 . S
O460 C455 1.246 . S
O461 Zn453 2.024 . S
O461 C455 1.249 . S
H462 C444 0.948 . S
O463 Zn453 2.039 . S
O463 C467 1.251 . S
O464 Zn445 2.025 . S
O464 C467 1.254 . S
O465 C446 1.246 . S
O465 Zn453 2.034 . S
O466 Zn445 2.024 . S
O466 C446 1.249 . S
C467 O463 1.251 . S
C467 O464 1.254 . S
H468 C441 0.949 . S
H469 C443 0.950 . S
H470 C450 0.949 . S
H471 C452 0.950 . S
C472 O488 1.251 . S
C472 O490 1.254 . S
N473 C474 1.333 . S
N473 C478 1.307 . S
N473 Zn479 2.020 . S
C474 N473 1.333 . S
C474 C475 1.379 . S
C474 H492 0.952 . S
C475 C474 1.379 . S
C475 C476 1.390 . S
C475 H502 0.949 . S
C476 C475 1.390 . S
C476 C477 1.357 . S
C477 C476 1.357 . S
C477 C478 1.370 . S
C477 H503 0.950 . S
C478 N473 1.307 . S
C478 C477 1.370 . S
C478 H496 0.948 . S
Zn479 N473 2.020 . S
Zn479 O488 2.039 . S
Zn479 O494 2.034 . S
Zn479 O498 2.025 . S
Zn479 O500 2.024 1_545 S
C480 O499 1.246 . S
C480 O500 1.249 . S
N481 C482 1.307 . S
N481 C483 1.333 1_455 S
N481 Zn487 2.020 1_565 S
C482 N481 1.307 . S
C482 C486 1.377 . S
C482 H493 0.941 1_565 S
C483 N481 1.333 1_655 S
C483 C484 1.379 . S
C483 H491 0.952 . S
C484 C483 1.379 . S
C484 C485 1.390 . S
C484 H504 0.949 . S
C485 C484 1.390 . S
C485 C486 1.357 1_655 S
C486 C482 1.377 . S
C486 C485 1.357 1_455 S
C486 H505 0.950 . S
Zn487 N481 2.020 1_545 S
Zn487 O490 2.025 . S
Zn487 O495 2.024 . S
Zn487 O497 2.039 1_455 S
Zn487 O499 2.034 1_545 S
O488 C472 1.251 . S
O488 Zn479 2.039 . S
C489 O494 1.246 . S
C489 O495 1.249 . S
O490 C472 1.254 . S
O490 Zn487 2.025 . S
H491 C483 0.952 . S
H492 C474 0.952 . S
H493 C482 0.941 1_545 S
O494 Zn479 2.034 . S
O494 C489 1.246 . S
O495 Zn487 2.024 . S
O495 C489 1.249 . S
H496 C478 0.948 . S
O497 Zn487 2.039 1_655 S
O497 C501 1.251 . S
O498 Zn479 2.025 . S
O498 C501 1.254 1_455 S
O499 C480 1.246 . S
O499 Zn487 2.034 1_565 S
O500 Zn479 2.024 1_565 S
O500 C480 1.249 . S
C501 O497 1.251 . S
C501 O498 1.254 1_655 S
H502 C475 0.949 . S
H503 C477 0.950 . S
H504 C484 0.949 . S
H505 C486 0.950 . S
C506 O522 1.251 . S
C506 O524 1.254 . S
N507 C508 1.333 . S
N507 C512 1.307 . S
N507 Zn513 2.020 . S
C508 N507 1.333 . S
C508 C509 1.379 . S
C508 H526 0.952 . S
C509 C508 1.379 . S
C509 C510 1.390 . S
C509 H536 0.949 . S
C510 C509 1.390 . S
C510 C511 1.357 . S
C511 C510 1.357 . S
C511 C512 1.370 . S
C511 H537 0.950 . S
C512 N507 1.307 . S
C512 C511 1.370 . S
C512 H530 0.948 . S
Zn513 N507 2.020 . S
Zn513 O522 2.039 . S
Zn513 O528 2.034 . S
Zn513 O532 2.025 . S
Zn513 O534 2.024 . S
C514 O533 1.246 . S
C514 O534 1.249 . S
N515 C516 1.307 . S
N515 C517 1.333 . S
N515 Zn521 2.020 . S
C516 N515 1.307 . S
C516 C520 1.370 . S
C516 H527 0.948 . S
C517 N515 1.333 . S
C517 C518 1.379 . S
C517 H525 0.952 . S
C518 C517 1.379 . S
C518 C519 1.390 . S
C518 H538 0.949 . S
C519 C518 1.390 . S
C519 C520 1.357 . S
C520 C516 1.370 . S
C520 C519 1.357 . S
C520 H539 0.950 . S
Zn521 N515 2.020 . S
Zn521 O524 2.025 . S
Zn521 O529 2.024 . S
Zn521 O531 2.039 . S
Zn521 O533 2.034 . S
O522 C506 1.251 . S
O522 Zn513 2.039 . S
C523 O528 1.246 . S
C523 O529 1.249 . S
O524 C506 1.254 . S
O524 Zn521 2.025 . S
H525 C517 0.952 . S
H526 C508 0.952 . S
H527 C516 0.948 . S
O528 Zn513 2.034 . S
O528 C523 1.246 . S
O529 Zn521 2.024 . S
O529 C523 1.249 . S
H530 C512 0.948 . S
O531 Zn521 2.039 . S
O531 C535 1.251 . S
O532 Zn513 2.025 . S
O532 C535 1.254 . S
O533 C514 1.246 . S
O533 Zn521 2.034 . S
O534 Zn513 2.024 . S
O534 C514 1.249 . S
C535 O531 1.251 . S
C535 O532 1.254 . S
H536 C509 0.949 . S
H537 C511 0.950 . S
H538 C518 0.949 . S
H539 C520 0.950 . S
C540 O556 1.251 . S
C540 O558 1.254 . S
N541 C542 1.333 . S
N541 C546 1.307 . S
N541 Zn547 2.020 . S
C542 N541 1.333 . S
C542 C543 1.379 . S
C542 H560 0.952 . S
C543 C542 1.379 . S
C543 C544 1.390 . S
C543 H570 0.949 . S
C544 C543 1.390 . S
C544 C545 1.357 . S
C545 C544 1.357 . S
C545 C546 1.370 . S
C545 H571 0.950 . S
C546 N541 1.307 . S
C546 C545 1.370 . S
C546 H564 0.948 . S
Zn547 N541 2.020 . S
Zn547 O556 2.039 1_545 S
Zn547 O562 2.034 . S
Zn547 O566 2.025 . S
Zn547 O568 2.024 . S
C548 O567 1.246 . S
C548 O568 1.249 . S
N549 C550 1.307 . S
N549 C551 1.333 1_565 S
N549 Zn555 2.020 1_566 S
C550 N549 1.307 . S
C550 C554 1.370 . S
C550 H561 0.948 . S
C551 N549 1.333 1_545 S
C551 C552 1.379 . S
C551 H559 0.952 . S
C552 C551 1.379 . S
C552 C553 1.390 1_545 S
C552 H572 0.949 . S
C553 C552 1.390 1_565 S
C553 C554 1.357 . S
C554 C550 1.370 . S
C554 C553 1.357 . S
C554 H573 0.950 . S
Zn555 N549 2.020 1_544 S
Zn555 O558 2.025 1_545 S
Zn555 O563 2.024 . S
Zn555 O565 2.039 1_554 S
Zn555 O567 2.034 . S
O556 C540 1.251 . S
O556 Zn547 2.039 1_565 S
C557 O562 1.246 . S
C557 O563 1.249 . S
O558 C540 1.254 . S
O558 Zn555 2.025 1_565 S
H559 C551 0.952 . S
H560 C542 0.952 . S
H561 C550 0.948 . S
O562 Zn547 2.034 . S
O562 C557 1.246 . S
O563 Zn555 2.024 . S
O563 C557 1.249 . S
H564 C546 0.948 . S
O565 Zn555 2.039 1_556 S
O565 C569 1.251 1_556 S
O566 Zn547 2.025 . S
O566 C569 1.254 . S
O567 C548 1.246 . S
O567 Zn555 2.034 . S
O568 Zn547 2.024 . S
O568 C548 1.249 . S
C569 O565 1.251 1_554 S
C569 O566 1.254 . S
H570 C543 0.949 . S
H571 C545 0.950 . S
H572 C552 0.949 . S
H573 C554 0.950 . S
C574 O590 1.251 . S
C574 O592 1.254 . S
N575 C576 1.333 . S
N575 C580 1.307 . S
N575 Zn581 2.020 . S
C576 N575 1.333 . S
C576 C577 1.379 . S
C576 H594 0.952 . S
C577 C576 1.379 . S
C577 C578 1.390 . S
C577 H604 0.949 . S
C578 C577 1.390 . S
C578 C579 1.357 . S
C579 C578 1.357 . S
C579 C580 1.370 . S
C579 H605 0.950 . S
C580 N575 1.307 . S
C580 C579 1.370 . S
C580 H598 0.948 . S
Zn581 N575 2.020 . S
Zn581 O590 2.039 . S
Zn581 O596 2.034 . S
Zn581 O600 2.025 . S
Zn581 O602 2.024 . S
C582 O601 1.246 . S
C582 O602 1.249 . S
N583 C584 1.307 . S
N583 C585 1.333 . S
N583 Zn589 2.020 . S
C584 N583 1.307 . S
C584 C588 1.370 . S
C584 H595 0.948 . S
C585 N583 1.333 . S
C585 C586 1.379 . S
C585 H593 0.952 . S
C586 C585 1.379 . S
C586 C587 1.390 . S
C586 H606 0.949 . S
C587 C586 1.390 . S
C587 C588 1.357 . S
C588 C584 1.370 . S
C588 C587 1.357 . S
C588 H607 0.950 . S
Zn589 N583 2.020 . S
Zn589 O592 2.025 . S
Zn589 O597 2.024 . S
Zn589 O599 2.039 . S
Zn589 O601 2.034 . S
O590 C574 1.251 . S
O590 Zn581 2.039 . S
C591 O596 1.246 . S
C591 O597 1.249 . S
O592 C574 1.254 . S
O592 Zn589 2.025 . S
H593 C585 0.952 . S
H594 C576 0.952 . S
H595 C584 0.948 . S
O596 Zn581 2.034 . S
O596 C591 1.246 . S
O597 Zn589 2.024 . S
O597 C591 1.249 . S
H598 C580 0.948 . S
O599 Zn589 2.039 . S
O599 C603 1.251 . S
O600 Zn581 2.025 . S
O600 C603 1.254 . S
O601 C582 1.246 . S
O601 Zn589 2.034 . S
O602 Zn581 2.024 . S
O602 C582 1.249 . S
C603 O599 1.251 . S
C603 O600 1.254 . S
H604 C577 0.949 . S
H605 C579 0.950 . S
H606 C586 0.949 . S
H607 C588 0.950 . S
C608 O624 1.251 . S
C608 O626 1.254 . S
N609 C610 1.333 . S
N609 C614 1.307 . S
N609 Zn615 2.020 1_556 S
C610 N609 1.333 . S
C610 C611 1.379 . S
C610 H628 0.952 . S
C611 C610 1.379 . S
C611 C612 1.390 . S
C611 H638 0.949 . S
C612 C611 1.390 . S
C612 C613 1.357 . S
C613 C612 1.357 . S
C613 C614 1.370 . S
C613 H639 0.950 . S
C614 N609 1.307 . S
C614 C613 1.370 . S
C614 H632 0.948 . S
Zn615 N609 2.020 1_554 S
Zn615 O624 2.039 . S
Zn615 O630 2.034 . S
Zn615 O634 2.025 1_554 S
Zn615 O636 2.024 1_554 S
C616 O635 1.246 . S
C616 O636 1.249 1_554 S
N617 C618 1.307 . S
N617 C619 1.333 . S
N617 Zn623 2.020 . S
C618 N617 1.307 . S
C618 C622 1.370 . S
C618 H629 0.948 . S
C619 N617 1.333 . S
C619 C620 1.379 . S
C619 H627 0.952 . S
C620 C619 1.379 . S
C620 C621 1.390 . S
C620 H640 0.949 . S
C621 C620 1.390 . S
C621 C622 1.357 . S
C622 C618 1.370 . S
C622 C621 1.357 . S
C622 H641 0.950 . S
Zn623 N617 2.020 . S
Zn623 O626 2.025 . S
Zn623 O631 2.024 . S
Zn623 O633 2.039 . S
Zn623 O635 2.034 . S
O624 C608 1.251 . S
O624 Zn615 2.039 . S
C625 O630 1.246 . S
C625 O631 1.249 . S
O626 C608 1.254 . S
O626 Zn623 2.025 . S
H627 C619 0.952 . S
H628 C610 0.952 . S
H629 C618 0.948 . S
O630 Zn615 2.034 . S
O630 C625 1.246 . S
O631 Zn623 2.024 . S
O631 C625 1.249 . S
H632 C614 0.948 . S
O633 Zn623 2.039 . S
O633 C637 1.251 . S
O634 Zn615 2.025 1_556 S
O634 C637 1.254 1_556 S
O635 C616 1.246 . S
O635 Zn623 2.034 . S
O636 Zn615 2.024 1_556 S
O636 C616 1.249 1_556 S
C637 O633 1.251 . S
C637 O634 1.254 1_554 S
H638 C611 0.949 . S
H639 C613 0.950 . S
H640 C620 0.949 . S
H641 C622 0.950 . S
C642 O658 1.251 . S
C642 O660 1.254 . S
N643 C644 1.333 . S
N643 C648 1.307 . S
N643 Zn649 2.020 . S
C644 N643 1.333 . S
C644 C645 1.379 . S
C644 H662 0.952 . S
C645 C644 1.379 . S
C645 C646 1.390 . S
C645 H672 0.949 . S
C646 C645 1.390 . S
C646 C647 1.357 . S
C647 C646 1.357 . S
C647 C648 1.370 . S
C647 H673 0.950 . S
C648 N643 1.307 . S
C648 C647 1.370 . S
C648 H666 0.948 . S
Zn649 N643 2.020 . S
Zn649 O658 2.039 . S
Zn649 O664 2.034 . S
Zn649 O668 2.025 . S
Zn649 O670 2.024 . S
C650 O669 1.246 . S
C650 O670 1.249 . S
N651 C652 1.307 . S
N651 C653 1.333 . S
N651 Zn657 2.020 . S
C652 N651 1.307 . S
C652 C656 1.370 . S
C652 H663 0.948 . S
C653 N651 1.333 . S
C653 C654 1.379 . S
C653 H661 0.952 . S
C654 C653 1.379 . S
C654 C655 1.390 . S
C654 H674 0.949 . S
C655 C654 1.390 . S
C655 C656 1.357 . S
C656 C652 1.370 . S
C656 C655 1.357 . S
C656 H675 0.950 . S
Zn657 N651 2.020 . S
Zn657 O660 2.025 . S
Zn657 O665 2.024 . S
Zn657 O667 2.039 . S
Zn657 O669 2.034 . S
O658 C642 1.251 . S
O658 Zn649 2.039 . S
C659 O664 1.246 . S
C659 O665 1.249 . S
O660 C642 1.254 . S
O660 Zn657 2.025 . S
H661 C653 0.952 . S
H662 C644 0.952 . S
H663 C652 0.948 . S
O664 Zn649 2.034 . S
O664 C659 1.246 . S
O665 Zn657 2.024 . S
O665 C659 1.249 . S
H666 C648 0.948 . S
O667 Zn657 2.039 . S
O667 C671 1.251 . S
O668 Zn649 2.025 . S
O668 C671 1.254 . S
O669 C650 1.246 . S
O669 Zn657 2.034 . S
O670 Zn649 2.024 . S
O670 C650 1.249 . S
C671 O667 1.251 . S
C671 O668 1.254 . S
H672 C645 0.949 . S
H673 C647 0.950 . S
H674 C654 0.949 . S
H675 C656 0.950 . S
C676 O692 1.251 . S
C676 O694 1.254 . S
N677 C678 1.333 . S
N677 C682 1.307 . S
N677 Zn683 2.020 . S
C678 N677 1.333 . S
C678 C679 1.379 . S
C678 H696 0.952 . S
C679 C678 1.379 . S
C679 C680 1.390 . S
C679 H706 0.949 . S
C680 C679 1.390 . S
C680 C681 1.357 . S
C681 C680 1.357 . S
C681 C682 1.370 . S
C681 H707 0.950 . S
C682 N677 1.307 . S
C682 C681 1.370 . S
C682 H700 0.948 . S
Zn683 N677 2.020 . S
Zn683 O692 2.039 . S
Zn683 O698 2.034 1_455 S
Zn683 O702 2.025 . S
Zn683 O704 2.024 . S
C684 O703 1.246 . S
C684 O704 1.249 . S
N685 C686 1.307 1_455 S
N685 C687 1.333 . S
N685 Zn691 2.020 . S
C686 N685 1.307 1_655 S
C686 C690 1.370 . S
C686 H697 0.948 . S
C687 N685 1.333 . S
C687 C688 1.379 . S
C687 H695 0.952 . S
C688 C687 1.379 . S
C688 C689 1.390 1_455 S
C688 H708 0.949 . S
C689 C688 1.390 1_655 S
C689 C690 1.357 . S
C690 C686 1.370 . S
C690 C689 1.357 . S
C690 H709 0.950 . S
Zn691 N685 2.020 . S
Zn691 O694 2.025 . S
Zn691 O699 2.024 1_455 S
Zn691 O701 2.039 . S
Zn691 O703 2.034 . S
O692 C676 1.251 . S
O692 Zn683 2.039 . S
C693 O698 1.246 . S
C693 O699 1.249 . S
O694 C676 1.254 . S
O694 Zn691 2.025 . S
H695 C687 0.952 . S
H696 C678 0.952 . S
H697 C686 0.948 . S
O698 Zn683 2.034 1_655 S
O698 C693 1.246 . S
O699 Zn691 2.024 1_655 S
O699 C693 1.249 . S
H700 C682 0.948 . S
O701 Zn691 2.039 . S
O701 C705 1.251 . S
O702 Zn683 2.025 . S
O702 C705 1.254 . S
O703 C684 1.246 . S
O703 Zn691 2.034 . S
O704 Zn683 2.024 . S
O704 C684 1.249 . S
C705 O701 1.251 . S
C705 O702 1.254 . S
H706 C679 0.949 . S
H707 C681 0.950 . S
H708 C688 0.949 . S
H709 C690 0.950 . S
C710 O726 1.251 . S
C710 O728 1.254 . S
N711 C712 1.333 . S
N711 C716 1.307 . S
N711 Zn717 2.020 . S
C712 N711 1.333 . S
C712 C713 1.379 . S
C712 H730 0.952 . S
C713 C712 1.379 . S
C713 C714 1.390 . S
C713 H740 0.949 . S
C714 C713 1.390 . S
C714 C715 1.357 . S
C715 C714 1.357 . S
C715 C716 1.370 . S
C715 H741 0.950 . S
C716 N711 1.307 . S
C716 C715 1.370 . S
C716 H734 0.948 . S
Zn717 N711 2.020 . S
Zn717 O726 2.039 . S
Zn717 O732 2.034 . S
Zn717 O736 2.025 . S
Zn717 O738 2.024 . S
C718 O737 1.246 . S
C718 O738 1.249 . S
N719 C720 1.307 . S
N719 C721 1.333 . S
N719 Zn725 2.020 . S
C720 N719 1.307 . S
C720 C724 1.370 . S
C720 H731 0.948 . S
C721 N719 1.333 . S
C721 C722 1.379 . S
C721 H729 0.952 . S
C722 C721 1.379 . S
C722 C723 1.390 . S
C722 H742 0.949 . S
C723 C722 1.390 . S
C723 C724 1.357 . S
C724 C720 1.370 . S
C724 C723 1.357 . S
C724 H743 0.950 . S
Zn725 N719 2.020 . S
Zn725 O728 2.025 . S
Zn725 O733 2.024 . S
Zn725 O735 2.039 . S
Zn725 O737 2.034 . S
O726 C710 1.251 . S
O726 Zn717 2.039 . S
C727 O732 1.246 . S
C727 O733 1.249 . S
O728 C710 1.254 . S
O728 Zn725 2.025 . S
H729 C721 0.952 . S
H730 C712 0.952 . S
H731 C720 0.948 . S
O732 Zn717 2.034 . S
O732 C727 1.246 . S
O733 Zn725 2.024 . S
O733 C727 1.249 . S
H734 C716 0.948 . S
O735 Zn725 2.039 . S
O735 C739 1.251 . S
O736 Zn717 2.025 . S
O736 C739 1.254 . S
O737 C718 1.246 . S
O737 Zn725 2.034 . S
O738 Zn717 2.024 . S
O738 C718 1.249 . S
C739 O735 1.251 . S
C739 O736 1.254 . S
H740 C713 0.949 . S
H741 C715 0.950 . S
H742 C722 0.949 . S
H743 C724 0.950 . S
C744 O760 1.251 . S
C744 O762 1.254 . S
N745 C746 1.333 . S
N745 C750 1.307 . S
N745 Zn751 2.020 . S
C746 N745 1.333 . S
C746 C747 1.379 . S
C746 H764 0.952 . S
C747 C746 1.379 . S
C747 C748 1.390 . S
C747 H774 0.949 . S
C748 C747 1.390 . S
C748 C749 1.357 . S
C749 C748 1.357 . S
C749 C750 1.370 . S
C749 H775 0.950 . S
C750 N745 1.307 . S
C750 C749 1.370 . S
C750 H768 0.948 . S
Zn751 N745 2.020 . S
Zn751 O760 2.039 . S
Zn751 O766 2.034 . S
Zn751 O770 2.025 . S
Zn751 O772 2.024 . S
C752 O771 1.246 . S
C752 O772 1.249 . S
N753 C754 1.307 . S
N753 C755 1.333 . S
N753 Zn759 2.020 . S
C754 N753 1.307 . S
C754 C758 1.370 . S
C754 H765 0.948 . S
C755 N753 1.333 . S
C755 C756 1.379 . S
C755 H763 0.952 . S
C756 C755 1.379 . S
C756 C757 1.390 . S
C756 H776 0.949 . S
C757 C756 1.390 . S
C757 C758 1.357 . S
C758 C754 1.370 . S
C758 C757 1.357 . S
C758 H777 0.950 . S
Zn759 N753 2.020 . S
Zn759 O762 2.025 . S
Zn759 O767 2.024 . S
Zn759 O769 2.039 . S
Zn759 O771 2.034 . S
O760 C744 1.251 . S
O760 Zn751 2.039 . S
C761 O766 1.246 . S
C761 O767 1.249 . S
O762 C744 1.254 . S
O762 Zn759 2.025 . S
H763 C755 0.952 . S
H764 C746 0.952 . S
H765 C754 0.948 . S
O766 Zn751 2.034 . S
O766 C761 1.246 . S
O767 Zn759 2.024 . S
O767 C761 1.249 . S
H768 C750 0.948 . S
O769 Zn759 2.039 . S
O769 C773 1.251 . S
O770 Zn751 2.025 . S
O770 C773 1.254 . S
O771 C752 1.246 . S
O771 Zn759 2.034 . S
O772 Zn751 2.024 . S
O772 C752 1.249 . S
C773 O769 1.251 . S
C773 O770 1.254 . S
H774 C747 0.949 . S
H775 C749 0.950 . S
H776 C756 0.949 . S
H777 C758 0.950 . S
C778 O794 1.251 . S
C778 O796 1.254 . S
N779 C780 1.333 . S
N779 C784 1.307 . S
N779 Zn785 2.020 . S
C780 N779 1.333 . S
C780 C781 1.379 . S
C780 H798 0.952 . S
C781 C780 1.379 . S
C781 C782 1.390 . S
C781 H808 0.949 . S
C782 C781 1.390 . S
C782 C783 1.357 . S
C783 C782 1.357 . S
C783 C784 1.370 . S
C783 H809 0.950 . S
C784 N779 1.307 . S
C784 C783 1.370 . S
C784 H802 0.948 . S
Zn785 N779 2.020 . S
Zn785 O794 2.039 . S
Zn785 O800 2.034 . S
Zn785 O804 2.025 . S
Zn785 O806 2.024 . S
C786 O805 1.246 . S
C786 O806 1.249 . S
N787 C788 1.307 . S
N787 C789 1.333 . S
N787 Zn793 2.020 . S
C788 N787 1.307 . S
C788 C792 1.370 . S
C788 H799 0.948 . S
C789 N787 1.333 . S
C789 C790 1.379 . S
C789 H797 0.952 . S
C790 C789 1.379 . S
C790 C791 1.390 . S
C790 H810 0.949 . S
C791 C790 1.390 . S
C791 C792 1.357 . S
C792 C788 1.370 . S
C792 C791 1.357 . S
C792 H811 0.950 . S
Zn793 N787 2.020 . S
Zn793 O796 2.025 . S
Zn793 O801 2.024 . S
Zn793 O803 2.039 . S
Zn793 O805 2.034 . S
O794 C778 1.251 . S
O794 Zn785 2.039 . S
C795 O800 1.246 . S
C795 O801 1.249 . S
O796 C778 1.254 . S
O796 Zn793 2.025 . S
H797 C789 0.952 . S
H798 C780 0.952 . S
H799 C788 0.948 . S
O800 Zn785 2.034 . S
O800 C795 1.246 . S
O801 Zn793 2.024 . S
O801 C795 1.249 . S
H802 C784 0.948 . S
O803 Zn793 2.039 . S
O803 C807 1.251 . S
O804 Zn785 2.025 . S
O804 C807 1.254 . S
O805 C786 1.246 . S
O805 Zn793 2.034 . S
O806 Zn785 2.024 . S
O806 C786 1.249 . S
C807 O803 1.251 . S
C807 O804 1.254 . S
H808 C781 0.949 . S
H809 C783 0.950 . S
H810 C790 0.949 . S
H811 C792 0.950 . S
C812 O828 1.251 . S
C812 O830 1.254 . S
N813 C814 1.333 . S
N813 C818 1.307 . S
N813 Zn819 2.020 . S
C814 N813 1.333 . S
C814 C815 1.379 . S
C814 H832 0.952 . S
C815 C814 1.379 . S
C815 C816 1.390 . S
C815 H842 0.949 . S
C816 C815 1.390 . S
C816 C817 1.357 . S
C817 C816 1.357 . S
C817 C818 1.370 . S
C817 H843 0.950 . S
C818 N813 1.307 . S
C818 C817 1.370 . S
C818 H836 0.948 . S
Zn819 N813 2.020 . S
Zn819 O828 2.039 . S
Zn819 O834 2.034 . S
Zn819 O838 2.025 . S
Zn819 O840 2.024 . S
C820 O839 1.246 . S
C820 O840 1.249 . S
N821 C822 1.307 . S
N821 C823 1.333 . S
N821 Zn827 2.020 . S
C822 N821 1.307 . S
C822 C826 1.370 . S
C822 H833 0.948 . S
C823 N821 1.333 . S
C823 C824 1.379 . S
C823 H831 0.952 . S
C824 C823 1.379 . S
C824 C825 1.390 . S
C824 H844 0.949 . S
C825 C824 1.390 . S
C825 C826 1.357 . S
C826 C822 1.370 . S
C826 C825 1.357 . S
C826 H845 0.950 . S
Zn827 N821 2.020 . S
Zn827 O830 2.025 . S
Zn827 O835 2.024 . S
Zn827 O837 2.039 . S
Zn827 O839 2.034 . S
O828 C812 1.251 . S
O828 Zn819 2.039 . S
C829 O834 1.246 . S
C829 O835 1.249 . S
O830 C812 1.254 . S
O830 Zn827 2.025 . S
H831 C823 0.952 . S
H832 C814 0.952 . S
H833 C822 0.948 . S
O834 Zn819 2.034 . S
O834 C829 1.246 . S
O835 Zn827 2.024 . S
O835 C829 1.249 . S
H836 C818 0.948 . S
O837 Zn827 2.039 . S
O837 C841 1.251 . S
O838 Zn819 2.025 . S
O838 C841 1.254 . S
O839 C820 1.246 . S
O839 Zn827 2.034 . S
O840 Zn819 2.024 . S
O840 C820 1.249 . S
C841 O837 1.251 . S
C841 O838 1.254 . S
H842 C815 0.949 . S
H843 C817 0.950 . S
H844 C824 0.949 . S
H845 C826 0.950 . S
C846 O862 1.251 . S
C846 O864 1.254 . S
N847 C848 1.333 . S
N847 C852 1.307 . S
N847 Zn853 2.020 . S
C848 N847 1.333 . S
C848 C849 1.379 . S
C848 H866 0.952 . S
C849 C848 1.379 . S
C849 C850 1.390 . S
C849 H876 0.949 . S
C850 C849 1.390 . S
C850 C851 1.357 . S
C851 C850 1.357 . S
C851 C852 1.370 . S
C851 H877 0.950 . S
C852 N847 1.307 . S
C852 C851 1.370 . S
C852 H870 0.948 . S
Zn853 N847 2.020 . S
Zn853 O862 2.039 . S
Zn853 O868 2.034 . S
Zn853 O872 2.025 1_554 S
Zn853 O874 2.028 1_455 S
C854 O873 1.246 . S
C854 O874 1.246 . S
N855 C856 1.307 . S
N855 C857 1.333 1_554 S
N855 Zn861 2.020 . S
C856 N855 1.307 . S
C856 C860 1.370 . S
C856 H867 0.948 . S
C857 N855 1.333 1_556 S
C857 C858 1.379 1_455 S
C857 H865 0.952 . S
C858 C857 1.379 1_655 S
C858 C859 1.390 . S
C858 H878 0.949 . S
C859 C858 1.390 . S
C859 C860 1.357 1_656 S
C860 C856 1.370 . S
C860 C859 1.357 1_454 S
C860 H879 0.950 . S
Zn861 N855 2.020 . S
Zn861 O864 2.025 . S
Zn861 O869 2.024 . S
Zn861 O871 2.039 1_554 S
Zn861 O873 2.034 1_455 S
O862 C846 1.251 . S
O862 Zn853 2.039 . S
C863 O868 1.246 . S
C863 O869 1.249 . S
O864 C846 1.254 . S
O864 Zn861 2.025 . S
H865 C857 0.952 . S
H866 C848 0.952 . S
H867 C856 0.948 . S
O868 Zn853 2.034 . S
O868 C863 1.246 . S
O869 Zn861 2.024 . S
O869 C863 1.249 . S
H870 C852 0.948 . S
O871 Zn861 2.039 1_556 S
O871 C875 1.251 . S
O872 Zn853 2.025 1_556 S
O872 C875 1.254 . S
O873 C854 1.246 . S
O873 Zn861 2.034 1_655 S
O874 Zn853 2.028 1_655 S
O874 C854 1.246 . S
C875 O871 1.251 . S
C875 O872 1.254 . S
H876 C849 0.949 . S
H877 C851 0.950 . S
H878 C858 0.949 . S
H879 C860 0.950 . S
H880 C886 0.930 . S
H881 C889 0.930 . S
H882 C890 0.930 . S
H883 C891 0.930 . S
H884 C894 0.930 1_655 S
H885 C895 0.930 1_655 S
C886 H880 0.930 . S
C886 C887 1.355 . S
C886 C888 1.415 . S
C887 C886 1.355 . S
C887 C889 1.419 . S
C888 C886 1.415 . S
C888 C893 1.425 . S
C888 C895 1.409 . S
C889 H881 0.930 . S
C889 C887 1.419 . S
C889 C890 1.362 . S
C890 H882 0.930 . S
C890 C889 1.362 . S
C890 C893 1.409 . S
C891 H883 0.930 . S
C891 C892 1.355 . S
C891 C893 1.415 . S
C892 C891 1.355 . S
C892 C894 1.419 . S
C893 C888 1.425 . S
C893 C890 1.409 . S
C893 C891 1.415 . S
C894 H884 0.930 1_455 S
C894 C892 1.419 . S
C894 C895 1.362 . S
C895 H885 0.930 1_455 S
C895 C888 1.409 . S
C895 C894 1.362 . S
H896 C902 0.930 . S
H897 C905 0.930 . S
H898 C906 0.930 . S
H899 C907 0.930 . S
H900 C910 0.930 . S
H901 C911 0.930 . S
C902 H896 0.930 . S
C902 C903 1.355 . S
C902 C904 1.415 . S
C903 C902 1.355 . S
C903 C905 1.419 . S
C904 C902 1.415 . S
C904 C909 1.425 . S
C904 C911 1.409 . S
C905 H897 0.930 . S
C905 C903 1.419 . S
C905 C906 1.362 . S
C906 H898 0.930 . S
C906 C905 1.362 . S
C906 C909 1.409 . S
C907 H899 0.930 . S
C907 C908 1.355 . S
C907 C909 1.415 . S
C908 C907 1.355 . S
C908 C910 1.419 . S
C909 C904 1.425 . S
C909 C906 1.409 . S
C909 C907 1.415 . S
C910 H900 0.930 . S
C910 C908 1.419 . S
C910 C911 1.362 . S
C911 H901 0.930 . S
C911 C904 1.409 . S
C911 C910 1.362 . S
H912 C918 0.930 . S
H913 C921 0.930 . S
H914 C922 0.930 . S
H915 C923 0.930 . S
H916 C926 0.930 . S
H917 C927 0.930 . S
C918 H912 0.930 . S
C918 C919 1.355 . S
C918 C920 1.415 . S
C919 C918 1.355 . S
C919 C921 1.419 . S
C920 C918 1.415 . S
C920 C925 1.425 . S
C920 C927 1.409 . S
C921 H913 0.930 . S
C921 C919 1.419 . S
C921 C922 1.362 . S
C922 H914 0.930 . S
C922 C921 1.362 . S
C922 C925 1.409 . S
C923 H915 0.930 . S
C923 C924 1.355 . S
C923 C925 1.415 . S
C924 C923 1.355 . S
C924 C926 1.419 . S
C925 C920 1.425 . S
C925 C922 1.409 . S
C925 C923 1.415 . S
C926 H916 0.930 . S
C926 C924 1.419 . S
C926 C927 1.362 . S
C927 H917 0.930 . S
C927 C920 1.409 . S
C927 C926 1.362 . S
H928 C934 0.930 . S
H929 C937 0.930 . S
H930 C938 0.930 . S
H931 C939 0.930 . S
H932 C942 0.930 . S
H933 C943 0.930 . S
C934 H928 0.930 . S
C934 C935 1.355 . S
C934 C936 1.415 . S
C935 C934 1.355 . S
C935 C937 1.419 . S
C936 C934 1.415 . S
C936 C941 1.425 . S
C936 C943 1.409 . S
C937 H929 0.930 . S
C937 C935 1.419 . S
C937 C938 1.362 . S
C938 H930 0.930 . S
C938 C937 1.362 . S
C938 C941 1.409 . S
C939 H931 0.930 . S
C939 C940 1.355 . S
C939 C941 1.415 . S
C940 C939 1.355 . S
C940 C942 1.419 . S
C941 C936 1.425 . S
C941 C938 1.409 . S
C941 C939 1.415 . S
C942 H932 0.930 . S
C942 C940 1.419 . S
C942 C943 1.362 . S
C943 H933 0.930 . S
C943 C936 1.409 . S
C943 C942 1.362 . S
H944 C950 0.930 . S
H945 C953 0.930 1_655 S
H946 C954 0.930 1_655 S
H947 C955 0.930 1_655 S
H948 C958 0.930 . S
H949 C959 0.930 . S
C950 H944 0.930 . S
C950 C951 1.355 . S
C950 C952 1.415 . S
C951 C950 1.355 . S
C951 C953 1.419 . S
C952 C950 1.415 . S
C952 C957 1.425 . S
C952 C959 1.409 . S
C953 H945 0.930 1_455 S
C953 C951 1.419 . S
C953 C954 1.362 . S
C954 H946 0.930 1_455 S
C954 C953 1.362 . S
C954 C957 1.409 . S
C955 H947 0.930 1_455 S
C955 C956 1.355 . S
C955 C957 1.415 . S
C956 C955 1.355 . S
C956 C958 1.419 . S
C957 C952 1.425 . S
C957 C954 1.409 . S
C957 C955 1.415 . S
C958 H948 0.930 . S
C958 C956 1.419 . S
C958 C959 1.362 . S
C959 H949 0.930 . S
C959 C952 1.409 . S
C959 C958 1.362 . S
H960 C966 0.930 . S
H961 C969 0.930 . S
H962 C970 0.930 . S
H963 C971 0.930 . S
H964 C974 0.930 . S
H965 C975 0.930 . S
C966 H960 0.930 . S
C966 C967 1.355 . S
C966 C968 1.415 . S
C967 C966 1.355 . S
C967 C969 1.419 . S
C968 C966 1.415 . S
C968 C973 1.425 . S
C968 C975 1.409 . S
C969 H961 0.930 . S
C969 C967 1.419 . S
C969 C970 1.362 . S
C970 H962 0.930 . S
C970 C969 1.362 . S
C970 C973 1.409 . S
C971 H963 0.930 . S
C971 C972 1.355 . S
C971 C973 1.415 . S
C972 C971 1.355 . S
C972 C974 1.419 . S
C973 C968 1.425 . S
C973 C970 1.409 . S
C973 C971 1.415 . S
C974 H964 0.930 . S
C974 C972 1.419 . S
C974 C975 1.362 . S
C975 H965 0.930 . S
C975 C968 1.409 . S
C975 C974 1.362 . S
H976 C982 0.930 . S
H977 C985 0.930 . S
H978 C986 0.930 . S
H979 C987 0.930 . S
H980 C990 0.930 . S
H981 C991 0.930 . S
C982 H976 0.930 . S
C982 C983 1.355 . S
C982 C984 1.415 . S
C983 C982 1.355 . S
C983 C985 1.419 . S
C984 C982 1.415 . S
C984 C989 1.425 . S
C984 C991 1.409 1_556 S
C985 H977 0.930 . S
C985 C983 1.419 . S
C985 C986 1.362 . S
C986 H978 0.930 . S
C986 C985 1.362 . S
C986 C989 1.409 . S
C987 H979 0.930 . S
C987 C988 1.325 1_556 S
C987 C989 1.415 . S
C988 C987 1.325 1_554 S
C988 C990 1.433 . S
C989 C984 1.425 . S
C989 C986 1.409 . S
C989 C987 1.415 . S
C990 H980 0.930 . S
C990 C988 1.433 . S
C990 C991 1.362 . S
C991 H981 0.930 . S
C991 C984 1.409 1_554 S
C991 C990 1.362 . S
H992 C998 0.930 . S
H993 C1001 0.930 . S
H994 C1002 0.930 . S
H995 C1003 0.930 . S
H996 C1006 0.930 . S
H997 C1007 0.930 . S
C998 H992 0.930 . S
C998 C999 1.355 . S
C998 C1000 1.415 . S
C999 C998 1.355 . S
C999 C1001 1.419 . S
C1000 C998 1.415 . S
C1000 C1005 1.425 . S
C1000 C1007 1.409 . S
C1001 H993 0.930 . S
C1001 C999 1.419 . S
C1001 C1002 1.362 . S
C1002 H994 0.930 . S
C1002 C1001 1.362 . S
C1002 C1005 1.409 . S
C1003 H995 0.930 . S
C1003 C1004 1.355 . S
C1003 C1005 1.415 . S
C1004 C1003 1.355 . S
C1004 C1006 1.419 . S
C1005 C1000 1.425 . S
C1005 C1002 1.409 . S
C1005 C1003 1.415 . S
C1006 H996 0.930 . S
C1006 C1004 1.419 . S
C1006 C1007 1.362 . S
C1007 H997 0.930 . S
C1007 C1000 1.409 . S
C1007 C1006 1.362 . S
H1008 C1014 0.930 . S
H1009 C1017 0.930 . S
H1010 C1018 0.930 . S
H1011 C1019 0.930 . S
H1012 C1022 0.932 . S
H1013 C1023 0.930 . S
C1014 H1008 0.930 . S
C1014 C1015 1.355 . S
C1014 C1016 1.415 . S
C1015 C1014 1.355 . S
C1015 C1017 1.419 . S
C1016 C1014 1.415 . S
C1016 C1021 1.425 . S
C1016 C1023 1.409 . S
C1017 H1009 0.930 . S
C1017 C1015 1.419 . S
C1017 C1018 1.362 . S
C1018 H1010 0.930 . S
C1018 C1017 1.362 . S
C1018 C1021 1.409 . S
C1019 H1011 0.930 . S
C1019 C1020 1.359 . S
C1019 C1021 1.415 . S
C1020 C1019 1.359 . S
C1020 C1022 1.422 . S
C1021 C1016 1.425 . S
C1021 C1018 1.409 . S
C1021 C1019 1.415 . S
C1022 H1012 0.932 . S
C1022 C1020 1.422 . S
C1022 C1023 1.362 . S
C1023 H1013 0.930 . S
C1023 C1016 1.409 . S
C1023 C1022 1.362 . S
H1024 C1030 0.930 . S
H1025 C1033 0.930 . S
H1026 C1034 0.930 . S
H1027 C1035 0.930 . S
H1028 C1038 0.930 . S
H1029 C1039 0.930 . S
C1030 H1024 0.930 . S
C1030 C1031 1.355 . S
C1030 C1032 1.415 . S
C1031 C1030 1.355 . S
C1031 C1033 1.419 . S
C1032 C1030 1.415 . S
C1032 C1037 1.425 . S
C1032 C1039 1.409 . S
C1033 H1025 0.930 . S
C1033 C1031 1.419 . S
C1033 C1034 1.362 . S
C1034 H1026 0.930 . S
C1034 C1033 1.362 . S
C1034 C1037 1.409 . S
C1035 H1027 0.930 . S
C1035 C1036 1.355 . S
C1035 C1037 1.415 . S
C1036 C1035 1.355 . S
C1036 C1038 1.419 . S
C1037 C1032 1.425 . S
C1037 C1034 1.409 . S
C1037 C1035 1.415 . S
C1038 H1028 0.930 . S
C1038 C1036 1.419 . S
C1038 C1039 1.362 . S
C1039 H1029 0.930 . S
C1039 C1032 1.409 . S
C1039 C1038 1.362 . S
H1040 C1046 0.930 . S
H1041 C1049 0.930 . S
H1042 C1050 0.930 . S
H1043 C1051 0.930 1_565 S
H1044 C1054 0.930 . S
H1045 C1055 0.930 . S
C1046 H1040 0.930 . S
C1046 C1047 1.355 . S
C1046 C1048 1.415 . S
C1047 C1046 1.355 . S
C1047 C1049 1.419 1_545 S
C1048 C1046 1.415 . S
C1048 C1053 1.425 . S
C1048 C1055 1.409 . S
C1049 H1041 0.930 . S
C1049 C1047 1.419 1_565 S
C1049 C1050 1.362 . S
C1050 H1042 0.930 . S
C1050 C1049 1.362 . S
C1050 C1053 1.409 1_565 S
C1051 H1043 0.930 1_545 S
C1051 C1052 1.355 . S
C1051 C1053 1.415 . S
C1052 C1051 1.355 . S
C1052 C1054 1.419 . S
C1053 C1048 1.425 . S
C1053 C1050 1.409 1_545 S
C1053 C1051 1.415 . S
C1054 H1044 0.930 . S
C1054 C1052 1.419 . S
C1054 C1055 1.362 . S
C1055 H1045 0.930 . S
C1055 C1048 1.409 . S
C1055 C1054 1.362 . S
H1056 C1062 0.930 . S
H1057 C1065 0.930 1_554 S
H1058 C1066 0.930 . S
H1059 C1067 0.930 . S
H1060 C1070 0.930 . S
H1061 C1071 0.930 . S
C1062 H1056 0.930 . S
C1062 C1063 1.355 . S
C1062 C1064 1.415 . S
C1063 C1062 1.355 . S
C1063 C1065 1.419 . S
C1064 C1062 1.415 . S
C1064 C1069 1.425 . S
C1064 C1071 1.409 . S
C1065 H1057 0.930 1_556 S
C1065 C1063 1.419 . S
C1065 C1066 1.362 . S
C1066 H1058 0.930 . S
C1066 C1065 1.362 . S
C1066 C1069 1.409 . S
C1067 H1059 0.930 . S
C1067 C1068 1.355 . S
C1067 C1069 1.415 . S
C1068 C1067 1.355 . S
C1068 C1070 1.419 . S
C1069 C1064 1.425 . S
C1069 C1066 1.409 . S
C1069 C1067 1.415 . S
C1070 H1060 0.930 . S
C1070 C1068 1.419 . S
C1070 C1071 1.362 . S
C1071 H1061 0.930 . S
C1071 C1064 1.409 . S
C1071 C1070 1.362 . S
H1072 C1078 0.930 . S
H1073 C1081 0.930 . S
H1074 C1082 0.930 . S
H1075 C1083 0.930 . S
H1076 C1086 0.930 . S
H1077 C1087 0.930 . S
C1078 H1072 0.930 . S
C1078 C1079 1.355 . S
C1078 C1080 1.415 . S
C1079 C1078 1.355 . S
C1079 C1081 1.419 . S
C1080 C1078 1.415 . S
C1080 C1085 1.425 . S
C1080 C1087 1.409 . S
C1081 H1073 0.930 . S
C1081 C1079 1.419 . S
C1081 C1082 1.362 . S
C1082 H1074 0.930 . S
C1082 C1081 1.362 . S
C1082 C1085 1.409 . S
C1083 H1075 0.930 . S
C1083 C1084 1.355 . S
C1083 C1085 1.415 . S
C1084 C1083 1.355 . S
C1084 C1086 1.419 . S
C1085 C1080 1.425 . S
C1085 C1082 1.409 . S
C1085 C1083 1.415 . S
C1086 H1076 0.930 . S
C1086 C1084 1.419 . S
C1086 C1087 1.362 . S
C1087 H1077 0.930 . S
C1087 C1080 1.409 . S
C1087 C1086 1.362 . S
H1088 C1094 0.930 . S
H1089 C1097 0.930 . S
H1090 C1098 0.930 . S
H1091 C1099 0.930 . S
H1092 C1102 0.930 . S
H1093 C1103 0.930 . S
C1094 H1088 0.930 . S
C1094 C1095 1.355 . S
C1094 C1096 1.415 . S
C1095 C1094 1.355 . S
C1095 C1097 1.419 . S
C1096 C1094 1.415 . S
C1096 C1101 1.425 . S
C1096 C1103 1.409 . S
C1097 H1089 0.930 . S
C1097 C1095 1.419 . S
C1097 C1098 1.362 . S
C1098 H1090 0.930 . S
C1098 C1097 1.362 . S
C1098 C1101 1.409 . S
C1099 H1091 0.930 . S
C1099 C1100 1.355 . S
C1099 C1101 1.415 . S
C1100 C1099 1.355 . S
C1100 C1102 1.419 . S
C1101 C1096 1.425 . S
C1101 C1098 1.409 . S
C1101 C1099 1.415 . S
C1102 H1092 0.930 . S
C1102 C1100 1.419 . S
C1102 C1103 1.362 . S
C1103 H1093 0.930 . S
C1103 C1096 1.409 . S
C1103 C1102 1.362 . S
H1104 C1110 0.930 . S
H1105 C1113 0.930 . S
H1106 C1114 0.930 . S
H1107 C1115 0.923 1_545 S
H1108 C1118 0.930 . S
H1109 C1119 0.930 . S
C1110 H1104 0.930 . S
C1110 C1111 1.355 1_565 S
C1110 C1112 1.415 . S
C1111 C1110 1.355 1_545 S
C1111 C1113 1.419 . S
C1112 C1110 1.415 . S
C1112 C1117 1.425 1_565 S
C1112 C1119 1.409 . S
C1113 H1105 0.930 . S
C1113 C1111 1.419 . S
C1113 C1114 1.362 . S
C1114 H1106 0.930 . S
C1114 C1113 1.362 . S
C1114 C1117 1.409 . S
C1115 H1107 0.923 1_565 S
C1115 C1116 1.363 . S
C1115 C1117 1.412 1_565 S
C1116 C1115 1.363 . S
C1116 C1118 1.419 . S
C1117 C1112 1.425 1_545 S
C1117 C1114 1.409 . S
C1117 C1115 1.412 1_545 S
C1118 H1108 0.930 . S
C1118 C1116 1.419 . S
C1118 C1119 1.362 . S
C1119 H1109 0.930 . S
C1119 C1112 1.409 . S
C1119 C1118 1.362 . S
H1120 C1126 0.930 . S
H1121 C1129 0.930 . S
H1122 C1130 0.930 . S
H1123 C1131 0.930 . S
H1124 C1134 0.930 . S
H1125 C1135 0.930 . S
C1126 H1120 0.930 . S
C1126 C1127 1.355 . S
C1126 C1128 1.415 . S
C1127 C1126 1.355 . S
C1127 C1129 1.419 . S
C1128 C1126 1.415 . S
C1128 C1133 1.425 . S
C1128 C1135 1.409 . S
C1129 H1121 0.930 . S
C1129 C1127 1.419 . S
C1129 C1130 1.362 . S
C1130 H1122 0.930 . S
C1130 C1129 1.362 . S
C1130 C1133 1.409 . S
C1131 H1123 0.930 . S
C1131 C1132 1.355 . S
C1131 C1133 1.415 . S
C1132 C1131 1.355 . S
C1132 C1134 1.419 . S
C1133 C1128 1.425 . S
C1133 C1130 1.409 . S
C1133 C1131 1.415 . S
C1134 H1124 0.930 . S
C1134 C1132 1.419 . S
C1134 C1135 1.362 . S
C1135 H1125 0.930 . S
C1135 C1128 1.409 . S
C1135 C1134 1.362 . S
H1136 C1142 0.930 1_556 S
H1137 C1145 0.930 . S
H1138 C1146 0.930 . S
H1139 C1147 0.930 . S
H1140 C1150 0.930 . S
H1141 C1151 0.930 . S
C1142 H1136 0.930 1_554 S
C1142 C1143 1.355 . S
C1142 C1144 1.415 . S
C1143 C1142 1.355 . S
C1143 C1145 1.419 . S
C1144 C1142 1.415 . S
C1144 C1149 1.425 . S
C1144 C1151 1.409 1_554 S
C1145 H1137 0.930 . S
C1145 C1143 1.419 . S
C1145 C1146 1.362 . S
C1146 H1138 0.930 . S
C1146 C1145 1.362 . S
C1146 C1149 1.409 . S
C1147 H1139 0.930 . S
C1147 C1148 1.355 1_554 S
C1147 C1149 1.415 . S
C1148 C1147 1.355 1_556 S
C1148 C1150 1.419 . S
C1149 C1144 1.425 . S
C1149 C1146 1.409 . S
C1149 C1147 1.415 . S
C1150 H1140 0.930 . S
C1150 C1148 1.419 . S
C1150 C1151 1.362 . S
C1151 H1141 0.930 . S
C1151 C1144 1.409 1_556 S
C1151 C1150 1.362 . S
H1152 C1158 0.930 . S
H1153 C1161 0.930 . S
H1154 C1162 0.930 . S
H1155 C1163 0.930 . S
H1156 C1166 0.930 . S
H1157 C1167 0.930 . S
C1158 H1152 0.930 . S
C1158 C1159 1.355 . S
C1158 C1160 1.415 . S
C1159 C1158 1.355 . S
C1159 C1161 1.419 . S
C1160 C1158 1.415 . S
C1160 C1165 1.425 . S
C1160 C1167 1.409 . S
C1161 H1153 0.930 . S
C1161 C1159 1.419 . S
C1161 C1162 1.362 . S
C1162 H1154 0.930 . S
C1162 C1161 1.362 . S
C1162 C1165 1.409 . S
C1163 H1155 0.930 . S
C1163 C1164 1.355 . S
C1163 C1165 1.415 . S
C1164 C1163 1.355 . S
C1164 C1166 1.419 . S
C1165 C1160 1.425 . S
C1165 C1162 1.409 . S
C1165 C1163 1.415 . S
C1166 H1156 0.930 . S
C1166 C1164 1.419 . S
C1166 C1167 1.362 . S
C1167 H1157 0.930 . S
C1167 C1160 1.409 . S
C1167 C1166 1.362 . S
H1168 C1174 0.930 . S
H1169 C1177 0.930 . S
H1170 C1178 0.930 . S
H1171 C1179 0.930 . S
H1172 C1182 0.930 . S
H1173 C1183 0.930 . S
C1174 H1168 0.930 . S
C1174 C1175 1.355 . S
C1174 C1176 1.415 . S
C1175 C1174 1.355 . S
C1175 C1177 1.419 . S
C1176 C1174 1.415 . S
C1176 C1181 1.425 . S
C1176 C1183 1.409 . S
C1177 H1169 0.930 . S
C1177 C1175 1.419 . S
C1177 C1178 1.362 . S
C1178 H1170 0.930 . S
C1178 C1177 1.362 . S
C1178 C1181 1.409 . S
C1179 H1171 0.930 . S
C1179 C1180 1.355 . S
C1179 C1181 1.415 . S
C1180 C1179 1.355 . S
C1180 C1182 1.419 . S
C1181 C1176 1.425 . S
C1181 C1178 1.409 . S
C1181 C1179 1.415 . S
C1182 H1172 0.930 . S
C1182 C1180 1.419 . S
C1182 C1183 1.362 . S
C1183 H1173 0.930 . S
C1183 C1176 1.409 . S
C1183 C1182 1.362 . S
H1184 C1190 0.930 . S
H1185 C1193 0.930 . S
H1186 C1194 0.930 . S
H1187 C1195 0.930 . S
H1188 C1198 0.930 . S
H1189 C1199 0.930 . S
C1190 H1184 0.930 . S
C1190 C1191 1.355 . S
C1190 C1192 1.415 . S
C1191 C1190 1.355 . S
C1191 C1193 1.419 . S
C1192 C1190 1.415 . S
C1192 C1197 1.425 . S
C1192 C1199 1.409 . S
C1193 H1185 0.930 . S
C1193 C1191 1.419 . S
C1193 C1194 1.362 . S
C1194 H1186 0.930 . S
C1194 C1193 1.362 . S
C1194 C1197 1.409 . S
C1195 H1187 0.930 . S
C1195 C1196 1.355 . S
C1195 C1197 1.415 . S
C1196 C1195 1.355 . S
C1196 C1198 1.419 . S
C1197 C1192 1.425 . S
C1197 C1194 1.409 . S
C1197 C1195 1.415 . S
C1198 H1188 0.930 . S
C1198 C1196 1.419 . S
C1198 C1199 1.362 . S
C1199 H1189 0.930 . S
C1199 C1192 1.409 . S
C1199 C1198 1.362 . S
H1200 C1206 0.930 . S
H1201 C1209 0.930 . S
H1202 C1210 0.930 . S
H1203 C1211 0.930 . S
H1204 C1214 0.930 . S
H1205 C1215 0.930 . S
C1206 H1200 0.930 . S
C1206 C1207 1.355 . S
C1206 C1208 1.415 . S
C1207 C1206 1.355 . S
C1207 C1209 1.419 . S
C1208 C1206 1.415 . S
C1208 C1213 1.425 . S
C1208 C1215 1.409 . S
C1209 H1201 0.930 . S
C1209 C1207 1.419 . S
C1209 C1210 1.362 . S
C1210 H1202 0.930 . S
C1210 C1209 1.362 . S
C1210 C1213 1.409 . S
C1211 H1203 0.930 . S
C1211 C1212 1.355 . S
C1211 C1213 1.415 . S
C1212 C1211 1.355 . S
C1212 C1214 1.419 . S
C1213 C1208 1.425 . S
C1213 C1210 1.409 . S
C1213 C1211 1.415 . S
C1214 H1204 0.930 . S
C1214 C1212 1.419 . S
C1214 C1215 1.362 . S
C1215 H1205 0.930 . S
C1215 C1208 1.409 . S
C1215 C1214 1.362 . S
H1216 C1222 0.930 . S
H1217 C1225 0.930 . S
H1218 C1226 0.930 . S
H1219 C1227 0.930 . S
H1220 C1230 0.930 . S
H1221 C1231 0.930 . S
C1222 H1216 0.930 . S
C1222 C1223 1.355 . S
C1222 C1224 1.415 . S
C1223 C1222 1.355 . S
C1223 C1225 1.419 . S
C1224 C1222 1.415 . S
C1224 C1229 1.425 . S
C1224 C1231 1.409 . S
C1225 H1217 0.930 . S
C1225 C1223 1.419 . S
C1225 C1226 1.362 . S
C1226 H1218 0.930 . S
C1226 C1225 1.362 . S
C1226 C1229 1.409 . S
C1227 H1219 0.930 . S
C1227 C1228 1.355 . S
C1227 C1229 1.415 . S
C1228 C1227 1.355 . S
C1228 C1230 1.419 . S
C1229 C1224 1.425 . S
C1229 C1226 1.409 . S
C1229 C1227 1.415 . S
C1230 H1220 0.930 . S
C1230 C1228 1.419 . S
C1230 C1231 1.362 . S
C1231 H1221 0.930 . S
C1231 C1224 1.409 . S
C1231 C1230 1.362 . S
H1232 C1238 0.930 . S
H1233 C1241 0.930 . S
H1234 C1242 0.930 . S
H1235 C1243 0.930 . S
H1236 C1246 0.930 . S
H1237 C1247 0.930 . S
C1238 H1232 0.930 . S
C1238 C1239 1.355 . S
C1238 C1240 1.415 . S
C1239 C1238 1.355 . S
C1239 C1241 1.419 . S
C1240 C1238 1.415 . S
C1240 C1245 1.425 . S
C1240 C1247 1.409 . S
C1241 H1233 0.930 . S
C1241 C1239 1.419 . S
C1241 C1242 1.362 . S
C1242 H1234 0.930 . S
C1242 C1241 1.362 . S
C1242 C1245 1.409 . S
C1243 H1235 0.930 . S
C1243 C1244 1.355 . S
C1243 C1245 1.415 . S
C1244 C1243 1.355 . S
C1244 C1246 1.419 . S
C1245 C1240 1.425 . S
C1245 C1242 1.409 . S
C1245 C1243 1.415 . S
C1246 H1236 0.930 . S
C1246 C1244 1.419 . S
C1246 C1247 1.362 . S
C1247 H1237 0.930 . S
C1247 C1240 1.409 . S
C1247 C1246 1.362 . S
H1248 C1254 0.930 . S
H1249 C1257 0.930 . S
H1250 C1258 0.930 . S
H1251 C1259 0.930 . S
H1252 C1262 0.930 . S
H1253 C1263 0.930 . S
C1254 H1248 0.930 . S
C1254 C1255 1.355 . S
C1254 C1256 1.415 . S
C1255 C1254 1.355 . S
C1255 C1257 1.419 . S
C1256 C1254 1.415 . S
C1256 C1261 1.425 . S
C1256 C1263 1.409 . S
C1257 H1249 0.930 . S
C1257 C1255 1.419 . S
C1257 C1258 1.362 . S
C1258 H1250 0.930 . S
C1258 C1257 1.362 . S
C1258 C1261 1.409 . S
C1259 H1251 0.930 . S
C1259 C1260 1.355 . S
C1259 C1261 1.415 . S
C1260 C1259 1.355 . S
C1260 C1262 1.419 . S
C1261 C1256 1.425 . S
C1261 C1258 1.409 . S
C1261 C1259 1.415 . S
C1262 H1252 0.930 . S
C1262 C1260 1.419 . S
C1262 C1263 1.362 . S
C1263 H1253 0.930 . S
C1263 C1256 1.409 . S
C1263 C1262 1.362 . S
H1264 C1270 0.930 . S
H1265 C1273 0.930 . S
H1266 C1274 0.930 . S
H1267 C1275 0.930 . S
H1268 C1278 0.949 1_655 S
H1269 C1279 0.930 . S
C1270 H1264 0.930 . S
C1270 C1271 1.355 1_655 S
C1270 C1272 1.415 1_655 S
C1271 C1270 1.355 1_455 S
C1271 C1273 1.419 . S
C1272 C1270 1.415 1_455 S
C1272 C1277 1.425 . S
C1272 C1279 1.409 1_455 S
C1273 H1265 0.930 . S
C1273 C1271 1.419 . S
C1273 C1274 1.362 . S
C1274 H1266 0.930 . S
C1274 C1273 1.362 . S
C1274 C1277 1.409 . S
C1275 H1267 0.930 . S
C1275 C1276 1.355 . S
C1275 C1277 1.415 . S
C1276 C1275 1.355 . S
C1276 C1278 1.416 1_556 S
C1277 C1272 1.425 . S
C1277 C1274 1.409 . S
C1277 C1275 1.415 . S
C1278 H1268 0.949 1_455 S
C1278 C1276 1.416 1_554 S
C1278 C1279 1.346 1_454 S
C1279 H1269 0.930 . S
C1279 C1272 1.409 1_655 S
C1279 C1278 1.346 1_656 S
H1280 C1286 0.930 . S
H1281 C1289 0.930 . S
H1282 C1290 0.930 . S
H1283 C1291 0.930 . S
H1284 C1294 0.930 . S
H1285 C1295 0.930 . S
C1286 H1280 0.930 . S
C1286 C1287 1.355 . S
C1286 C1288 1.415 . S
C1287 C1286 1.355 . S
C1287 C1289 1.419 . S
C1288 C1286 1.415 . S
C1288 C1293 1.425 . S
C1288 C1295 1.409 . S
C1289 H1281 0.930 . S
C1289 C1287 1.419 . S
C1289 C1290 1.362 . S
C1290 H1282 0.930 . S
C1290 C1289 1.362 . S
C1290 C1293 1.409 . S
C1291 H1283 0.930 . S
C1291 C1292 1.355 . S
C1291 C1293 1.415 . S
C1292 C1291 1.355 . S
C1292 C1294 1.419 . S
C1293 C1288 1.425 . S
C1293 C1290 1.409 . S
C1293 C1291 1.415 . S
C1294 H1284 0.930 . S
C1294 C1292 1.419 . S
C1294 C1295 1.362 . S
C1295 H1285 0.930 . S
C1295 C1288 1.409 . S
C1295 C1294 1.362 . S
H1296 C1302 0.930 . S
H1297 C1305 0.930 . S
H1298 C1306 0.930 . S
H1299 C1307 0.930 . S
H1300 C1310 0.930 . S
H1301 C1311 0.930 . S
C1302 H1296 0.930 . S
C1302 C1303 1.355 . S
C1302 C1304 1.415 . S
C1303 C1302 1.355 . S
C1303 C1305 1.419 . S
C1304 C1302 1.415 . S
C1304 C1309 1.425 . S
C1304 C1311 1.409 . S
C1305 H1297 0.930 . S
C1305 C1303 1.419 . S
C1305 C1306 1.362 . S
C1306 H1298 0.930 . S
C1306 C1305 1.362 . S
C1306 C1309 1.409 . S
C1307 H1299 0.930 . S
C1307 C1308 1.355 . S
C1307 C1309 1.415 . S
C1308 C1307 1.355 . S
C1308 C1310 1.419 . S
C1309 C1304 1.425 . S
C1309 C1306 1.409 . S
C1309 C1307 1.415 . S
C1310 H1300 0.930 . S
C1310 C1308 1.419 . S
C1310 C1311 1.362 . S
C1311 H1301 0.930 . S
C1311 C1304 1.409 . S
C1311 C1310 1.362 . S
H1312 C1318 0.930 . S
H1313 C1321 0.930 . S
H1314 C1322 0.930 . S
H1315 C1323 0.930 . S
H1316 C1326 0.930 . S
H1317 C1327 0.930 . S
C1318 H1312 0.930 . S
C1318 C1319 1.355 . S
C1318 C1320 1.415 . S
C1319 C1318 1.355 . S
C1319 C1321 1.419 . S
C1320 C1318 1.415 . S
C1320 C1325 1.425 . S
C1320 C1327 1.409 . S
C1321 H1313 0.930 . S
C1321 C1319 1.419 . S
C1321 C1322 1.362 . S
C1322 H1314 0.930 . S
C1322 C1321 1.362 . S
C1322 C1325 1.409 . S
C1323 H1315 0.930 . S
C1323 C1324 1.355 . S
C1323 C1325 1.415 . S
C1324 C1323 1.355 . S
C1324 C1326 1.419 . S
C1325 C1320 1.425 . S
C1325 C1322 1.409 . S
C1325 C1323 1.415 . S
C1326 H1316 0.930 . S
C1326 C1324 1.419 . S
C1326 C1327 1.362 . S
C1327 H1317 0.930 . S
C1327 C1320 1.409 . S
C1327 C1326 1.362 . S
H1328 C1334 0.930 . S
H1329 C1337 0.930 . S
H1330 C1338 0.930 . S
H1331 C1339 0.930 . S
H1332 C1342 0.930 . S
H1333 C1343 0.930 . S
C1334 H1328 0.930 . S
C1334 C1335 1.355 . S
C1334 C1336 1.415 . S
C1335 C1334 1.355 . S
C1335 C1337 1.419 . S
C1336 C1334 1.415 . S
C1336 C1341 1.425 . S
C1336 C1343 1.409 . S
C1337 H1329 0.930 . S
C1337 C1335 1.419 . S
C1337 C1338 1.362 . S
C1338 H1330 0.930 . S
C1338 C1337 1.362 . S
C1338 C1341 1.409 . S
C1339 H1331 0.930 . S
C1339 C1340 1.355 . S
C1339 C1341 1.415 . S
C1340 C1339 1.355 . S
C1340 C1342 1.419 . S
C1341 C1336 1.425 . S
C1341 C1338 1.409 . S
C1341 C1339 1.415 . S
C1342 H1332 0.930 . S
C1342 C1340 1.419 . S
C1342 C1343 1.362 . S
C1343 H1333 0.930 . S
C1343 C1336 1.409 . S
C1343 C1342 1.362 . S
H1344 C1350 0.930 . S
H1345 C1353 0.930 . S
H1346 C1354 0.930 . S
H1347 C1355 0.930 . S
H1348 C1358 0.930 . S
H1349 C1359 0.930 . S
C1350 H1344 0.930 . S
C1350 C1351 1.355 . S
C1350 C1352 1.415 . S
C1351 C1350 1.355 . S
C1351 C1353 1.419 . S
C1352 C1350 1.415 . S
C1352 C1357 1.425 . S
C1352 C1359 1.409 . S
C1353 H1345 0.930 . S
C1353 C1351 1.419 . S
C1353 C1354 1.362 . S
C1354 H1346 0.930 . S
C1354 C1353 1.362 . S
C1354 C1357 1.409 . S
C1355 H1347 0.930 . S
C1355 C1356 1.355 . S
C1355 C1357 1.415 . S
C1356 C1355 1.355 . S
C1356 C1358 1.419 . S
C1357 C1352 1.425 . S
C1357 C1354 1.409 . S
C1357 C1355 1.415 . S
C1358 H1348 0.930 . S
C1358 C1356 1.419 . S
C1358 C1359 1.362 . S
C1359 H1349 0.930 . S
C1359 C1352 1.409 . S
C1359 C1358 1.362 . S
H1360 C1366 0.930 . S
H1361 C1369 0.930 . S
H1362 C1370 0.930 . S
H1363 C1371 0.930 . S
H1364 C1374 0.930 . S
H1365 C1375 0.930 . S
C1366 H1360 0.930 . S
C1366 C1367 1.355 . S
C1366 C1368 1.415 . S
C1367 C1366 1.355 . S
C1367 C1369 1.419 . S
C1368 C1366 1.415 . S
C1368 C1373 1.425 . S
C1368 C1375 1.409 . S
C1369 H1361 0.930 . S
C1369 C1367 1.419 . S
C1369 C1370 1.362 . S
C1370 H1362 0.930 . S
C1370 C1369 1.362 . S
C1370 C1373 1.409 . S
C1371 H1363 0.930 . S
C1371 C1372 1.355 . S
C1371 C1373 1.415 . S
C1372 C1371 1.355 . S
C1372 C1374 1.419 . S
C1373 C1368 1.425 . S
C1373 C1370 1.409 . S
C1373 C1371 1.415 . S
C1374 H1364 0.930 . S
C1374 C1372 1.419 . S
C1374 C1375 1.362 . S
C1375 H1365 0.930 . S
C1375 C1368 1.409 . S
C1375 C1374 1.362 . S
H1376 C1382 0.930 . S
H1377 C1385 0.930 . S
H1378 C1386 0.930 . S
H1379 C1387 0.930 . S
H1380 C1390 0.930 . S
H1381 C1391 0.930 . S
C1382 H1376 0.930 . S
C1382 C1383 1.355 . S
C1382 C1384 1.415 . S
C1383 C1382 1.355 . S
C1383 C1385 1.419 . S
C1384 C1382 1.415 . S
C1384 C1389 1.425 . S
C1384 C1391 1.409 . S
C1385 H1377 0.930 . S
C1385 C1383 1.419 . S
C1385 C1386 1.362 . S
C1386 H1378 0.930 . S
C1386 C1385 1.362 . S
C1386 C1389 1.409 . S
C1387 H1379 0.930 . S
C1387 C1388 1.355 . S
C1387 C1389 1.415 . S
C1388 C1387 1.355 . S
C1388 C1390 1.419 . S
C1389 C1384 1.425 . S
C1389 C1386 1.409 . S
C1389 C1387 1.415 . S
C1390 H1380 0.930 . S
C1390 C1388 1.419 . S
C1390 C1391 1.362 . S
C1391 H1381 0.930 . S
C1391 C1384 1.409 . S
C1391 C1390 1.362 . S
H1392 C1398 0.930 1_565 S
H1393 C1401 0.930 . S
H1394 C1402 0.901 1_455 S
H1395 C1403 0.923 1_455 S
H1396 C1406 0.930 . S
H1397 C1407 0.930 1_565 S
C1398 H1392 0.930 1_545 S
C1398 C1399 1.355 . S
C1398 C1400 1.415 . S
C1399 C1398 1.355 . S
C1399 C1401 1.419 . S
C1400 C1398 1.415 . S
C1400 C1405 1.425 . S
C1400 C1407 1.409 . S
C1401 H1393 0.930 . S
C1401 C1399 1.419 . S
C1401 C1402 1.362 . S
C1402 H1394 0.901 1_655 S
C1402 C1401 1.362 . S
C1402 C1405 1.409 . S
C1403 H1395 0.923 1_655 S
C1403 C1404 1.357 . S
C1403 C1405 1.419 . S
C1404 C1403 1.357 . S
C1404 C1406 1.419 . S
C1405 C1400 1.425 . S
C1405 C1402 1.409 . S
C1405 C1403 1.419 . S
C1406 H1396 0.930 . S
C1406 C1404 1.419 . S
C1406 C1407 1.362 . S
C1407 H1397 0.930 1_545 S
C1407 C1400 1.409 . S
C1407 C1406 1.362 . S
H1408 C1414 0.930 . S
H1409 C1417 0.930 . S
H1410 C1418 0.930 . S
H1411 C1419 0.930 . S
H1412 C1422 0.930 . S
H1413 C1423 0.930 . S
C1414 H1408 0.930 . S
C1414 C1415 1.355 . S
C1414 C1416 1.415 . S
C1415 C1414 1.355 . S
C1415 C1417 1.419 . S
C1416 C1414 1.415 . S
C1416 C1421 1.425 . S
C1416 C1423 1.409 . S
C1417 H1409 0.930 . S
C1417 C1415 1.419 . S
C1417 C1418 1.362 . S
C1418 H1410 0.930 . S
C1418 C1417 1.362 . S
C1418 C1421 1.409 . S
C1419 H1411 0.930 . S
C1419 C1420 1.355 . S
C1419 C1421 1.415 . S
C1420 C1419 1.355 . S
C1420 C1422 1.419 . S
C1421 C1416 1.425 . S
C1421 C1418 1.409 . S
C1421 C1419 1.415 . S
C1422 H1412 0.930 . S
C1422 C1420 1.419 . S
C1422 C1423 1.362 . S
C1423 H1413 0.930 . S
C1423 C1416 1.409 . S
C1423 C1422 1.362 . S
H1424 C1430 0.930 . S
H1425 C1433 0.930 . S
H1426 C1434 0.930 . S
H1427 C1435 0.930 . S
H1428 C1438 0.930 . S
H1429 C1439 0.930 . S
C1430 H1424 0.930 . S
C1430 C1431 1.355 . S
C1430 C1432 1.415 . S
C1431 C1430 1.355 . S
C1431 C1433 1.419 . S
C1432 C1430 1.415 . S
C1432 C1437 1.425 . S
C1432 C1439 1.409 . S
C1433 H1425 0.930 . S
C1433 C1431 1.419 . S
C1433 C1434 1.362 . S
C1434 H1426 0.930 . S
C1434 C1433 1.362 . S
C1434 C1437 1.409 . S
C1435 H1427 0.930 . S
C1435 C1436 1.355 . S
C1435 C1437 1.415 . S
C1436 C1435 1.355 . S
C1436 C1438 1.419 . S
C1437 C1432 1.425 . S
C1437 C1434 1.409 . S
C1437 C1435 1.415 . S
C1438 H1428 0.930 . S
C1438 C1436 1.419 . S
C1438 C1439 1.362 . S
C1439 H1429 0.930 . S
C1439 C1432 1.409 . S
C1439 C1438 1.362 . S
H1440 C1446 0.930 . S
H1441 C1449 0.930 . S
H1442 C1450 0.930 . S
H1443 C1451 0.930 . S
H1444 C1454 0.930 . S
H1445 C1455 0.930 . S
C1446 H1440 0.930 . S
C1446 C1447 1.355 . S
C1446 C1448 1.415 . S
C1447 C1446 1.355 . S
C1447 C1449 1.419 . S
C1448 C1446 1.415 . S
C1448 C1453 1.425 . S
C1448 C1455 1.409 . S
C1449 H1441 0.930 . S
C1449 C1447 1.419 . S
C1449 C1450 1.362 . S
C1450 H1442 0.930 . S
C1450 C1449 1.362 . S
C1450 C1453 1.409 . S
C1451 H1443 0.930 . S
C1451 C1452 1.355 . S
C1451 C1453 1.415 . S
C1452 C1451 1.355 . S
C1452 C1454 1.419 . S
C1453 C1448 1.425 . S
C1453 C1450 1.409 . S
C1453 C1451 1.415 . S
C1454 H1444 0.930 . S
C1454 C1452 1.419 . S
C1454 C1455 1.362 . S
C1455 H1445 0.930 . S
C1455 C1448 1.409 . S
C1455 C1454 1.362 . S
H1456 C1462 0.928 1_545 S
H1457 C1465 0.933 . S
H1458 C1466 0.930 . S
H1459 C1467 0.930 . S
H1460 C1470 0.930 . S
H1461 C1471 0.930 . S
C1462 H1456 0.928 1_565 S
C1462 C1463 1.354 1_565 S
C1462 C1464 1.418 . S
C1463 C1462 1.354 1_545 S
C1463 C1465 1.419 1_545 S
C1464 C1462 1.418 . S
C1464 C1469 1.425 . S
C1464 C1471 1.409 1_655 S
C1465 H1457 0.933 . S
C1465 C1463 1.419 1_565 S
C1465 C1466 1.362 . S
C1466 H1458 0.930 . S
C1466 C1465 1.362 . S
C1466 C1469 1.409 . S
C1467 H1459 0.930 . S
C1467 C1468 1.355 . S
C1467 C1469 1.415 . S
C1468 C1467 1.355 . S
C1468 C1470 1.419 1_655 S
C1469 C1464 1.425 . S
C1469 C1466 1.409 . S
C1469 C1467 1.415 . S
C1470 H1460 0.930 . S
C1470 C1468 1.419 1_455 S
C1470 C1471 1.362 . S
C1471 H1461 0.930 . S
C1471 C1464 1.409 1_455 S
C1471 C1470 1.362 . S
H1472 C1478 0.930 . S
H1473 C1481 0.930 . S
H1474 C1482 0.930 . S
H1475 C1483 0.930 . S
H1476 C1486 0.930 . S
H1477 C1487 0.930 . S
C1478 H1472 0.930 . S
C1478 C1479 1.355 . S
C1478 C1480 1.415 . S
C1479 C1478 1.355 . S
C1479 C1481 1.419 . S
C1480 C1478 1.415 . S
C1480 C1485 1.425 . S
C1480 C1487 1.409 . S
C1481 H1473 0.930 . S
C1481 C1479 1.419 . S
C1481 C1482 1.362 . S
C1482 H1474 0.930 . S
C1482 C1481 1.362 . S
C1482 C1485 1.409 . S
C1483 H1475 0.930 . S
C1483 C1484 1.355 . S
C1483 C1485 1.415 . S
C1484 C1483 1.355 . S
C1484 C1486 1.419 . S
C1485 C1480 1.425 . S
C1485 C1482 1.409 . S
C1485 C1483 1.415 . S
C1486 H1476 0.930 . S
C1486 C1484 1.419 . S
C1486 C1487 1.362 . S
C1487 H1477 0.930 . S
C1487 C1480 1.409 . S
C1487 C1486 1.362 . S
H1488 C1494 0.930 . S
H1489 C1497 0.930 . S
H1490 C1498 0.930 . S
H1491 C1499 0.930 . S
H1492 C1502 0.930 . S
H1493 C1503 0.930 . S
C1494 H1488 0.930 . S
C1494 C1495 1.355 . S
C1494 C1496 1.415 . S
C1495 C1494 1.355 . S
C1495 C1497 1.419 . S
C1496 C1494 1.415 . S
C1496 C1501 1.425 . S
C1496 C1503 1.409 . S
C1497 H1489 0.930 . S
C1497 C1495 1.419 . S
C1497 C1498 1.362 . S
C1498 H1490 0.930 . S
C1498 C1497 1.362 . S
C1498 C1501 1.409 . S
C1499 H1491 0.930 . S
C1499 C1500 1.355 . S
C1499 C1501 1.415 . S
C1500 C1499 1.355 . S
C1500 C1502 1.419 . S
C1501 C1496 1.425 . S
C1501 C1498 1.409 . S
C1501 C1499 1.415 . S
C1502 H1492 0.930 . S
C1502 C1500 1.419 . S
C1502 C1503 1.362 . S
C1503 H1493 0.930 . S
C1503 C1496 1.409 . S
C1503 C1502 1.362 . S
H1504 C1510 0.930 . S
H1505 C1513 0.930 1_554 S
H1506 C1514 0.930 . S
H1507 C1515 0.930 . S
H1508 C1518 0.930 . S
H1509 C1519 0.930 . S
C1510 H1504 0.930 . S
C1510 C1511 1.355 . S
C1510 C1512 1.415 . S
C1511 C1510 1.355 . S
C1511 C1513 1.419 . S
C1512 C1510 1.415 . S
C1512 C1517 1.425 . S
C1512 C1519 1.409 . S
C1513 H1505 0.930 1_556 S
C1513 C1511 1.419 . S
C1513 C1514 1.362 . S
C1514 H1506 0.930 . S
C1514 C1513 1.362 . S
C1514 C1517 1.409 . S
C1515 H1507 0.930 . S
C1515 C1516 1.355 . S
C1515 C1517 1.415 . S
C1516 C1515 1.355 . S
C1516 C1518 1.419 . S
C1517 C1512 1.425 . S
C1517 C1514 1.409 . S
C1517 C1515 1.415 . S
C1518 H1508 0.930 . S
C1518 C1516 1.419 . S
C1518 C1519 1.362 . S
C1519 H1509 0.930 . S
C1519 C1512 1.409 . S
C1519 C1518 1.362 . S
H1520 C1526 0.930 . S
H1521 C1529 0.930 1_556 S
H1522 C1530 0.930 1_556 S
H1523 C1531 0.930 . S
H1524 C1534 0.930 . S
H1525 C1535 0.930 . S
C1526 H1520 0.930 . S
C1526 C1527 1.355 . S
C1526 C1528 1.415 . S
C1527 C1526 1.355 . S
C1527 C1529 1.419 . S
C1528 C1526 1.415 . S
C1528 C1533 1.425 . S
C1528 C1535 1.409 . S
C1529 H1521 0.930 1_554 S
C1529 C1527 1.419 . S
C1529 C1530 1.362 . S
C1530 H1522 0.930 1_554 S
C1530 C1529 1.362 . S
C1530 C1533 1.409 . S
C1531 H1523 0.930 . S
C1531 C1532 1.355 . S
C1531 C1533 1.415 . S
C1532 C1531 1.355 . S
C1532 C1534 1.419 . S
C1533 C1528 1.425 . S
C1533 C1530 1.409 . S
C1533 C1531 1.415 . S
C1534 H1524 0.930 . S
C1534 C1532 1.419 . S
C1534 C1535 1.362 . S
C1535 H1525 0.930 . S
C1535 C1528 1.409 . S
C1535 C1534 1.362 . S
H1536 C1542 0.930 . S
H1537 C1545 0.930 . S
H1538 C1546 0.930 . S
H1539 C1547 0.930 . S
H1540 C1550 0.930 . S
H1541 C1551 0.930 . S
C1542 H1536 0.930 . S
C1542 C1543 1.355 1_556 S
C1542 C1544 1.415 . S
C1543 C1542 1.355 1_554 S
C1543 C1545 1.419 . S
C1544 C1542 1.415 . S
C1544 C1549 1.425 1_556 S
C1544 C1551 1.409 . S
C1545 H1537 0.930 . S
C1545 C1543 1.419 . S
C1545 C1546 1.362 . S
C1546 H1538 0.930 . S
C1546 C1545 1.362 . S
C1546 C1549 1.409 . S
C1547 H1539 0.930 . S
C1547 C1548 1.355 . S
C1547 C1549 1.415 . S
C1548 C1547 1.355 . S
C1548 C1550 1.419 1_554 S
C1549 C1544 1.425 1_554 S
C1549 C1546 1.409 . S
C1549 C1547 1.415 . S
C1550 H1540 0.930 . S
C1550 C1548 1.419 1_556 S
C1550 C1551 1.362 . S
C1551 H1541 0.930 . S
C1551 C1544 1.409 . S
C1551 C1550 1.362 . S
H1552 C1558 0.930 . S
H1553 C1561 0.930 . S
H1554 C1562 0.930 . S
H1555 C1563 0.930 . S
H1556 C1566 0.930 . S
H1557 C1567 0.930 . S
C1558 H1552 0.930 . S
C1558 C1559 1.355 . S
C1558 C1560 1.415 . S
C1559 C1558 1.355 . S
C1559 C1561 1.419 . S
C1560 C1558 1.415 . S
C1560 C1565 1.425 . S
C1560 C1567 1.409 . S
C1561 H1553 0.930 . S
C1561 C1559 1.419 . S
C1561 C1562 1.362 . S
C1562 H1554 0.930 . S
C1562 C1561 1.362 . S
C1562 C1565 1.409 . S
C1563 H1555 0.930 . S
C1563 C1564 1.355 . S
C1563 C1565 1.415 . S
C1564 C1563 1.355 . S
C1564 C1566 1.419 . S
C1565 C1560 1.425 . S
C1565 C1562 1.409 . S
C1565 C1563 1.415 . S
C1566 H1556 0.930 . S
C1566 C1564 1.419 . S
C1566 C1567 1.362 . S
C1567 H1557 0.930 . S
C1567 C1560 1.409 . S
C1567 C1566 1.362 . S
H1568 C1574 0.930 . S
H1569 C1577 0.930 . S
H1570 C1578 0.930 . S
H1571 C1579 0.930 . S
H1572 C1582 0.930 . S
H1573 C1583 0.930 . S
C1574 H1568 0.930 . S
C1574 C1575 1.355 . S
C1574 C1576 1.415 . S
C1575 C1574 1.355 . S
C1575 C1577 1.419 . S
C1576 C1574 1.415 . S
C1576 C1581 1.425 . S
C1576 C1583 1.409 . S
C1577 H1569 0.930 . S
C1577 C1575 1.419 . S
C1577 C1578 1.362 . S
C1578 H1570 0.930 . S
C1578 C1577 1.362 . S
C1578 C1581 1.409 . S
C1579 H1571 0.930 . S
C1579 C1580 1.355 . S
C1579 C1581 1.415 . S
C1580 C1579 1.355 . S
C1580 C1582 1.419 . S
C1581 C1576 1.425 . S
C1581 C1578 1.409 . S
C1581 C1579 1.415 . S
C1582 H1572 0.930 . S
C1582 C1580 1.419 . S
C1582 C1583 1.362 . S
C1583 H1573 0.930 . S
C1583 C1576 1.409 . S
C1583 C1582 1.362 . S
H1584 C1590 0.930 . S
H1585 C1593 0.930 . S
H1586 C1594 0.930 . S
H1587 C1595 0.930 . S
H1588 C1598 0.930 . S
H1589 C1599 0.930 . S
C1590 H1584 0.930 . S
C1590 C1591 1.355 . S
C1590 C1592 1.415 . S
C1591 C1590 1.355 . S
C1591 C1593 1.419 . S
C1592 C1590 1.415 . S
C1592 C1597 1.425 . S
C1592 C1599 1.409 . S
C1593 H1585 0.930 . S
C1593 C1591 1.419 . S
C1593 C1594 1.362 . S
C1594 H1586 0.930 . S
C1594 C1593 1.362 . S
C1594 C1597 1.409 . S
C1595 H1587 0.930 . S
C1595 C1596 1.355 . S
C1595 C1597 1.415 . S
C1596 C1595 1.355 . S
C1596 C1598 1.419 . S
C1597 C1592 1.425 . S
C1597 C1594 1.409 . S
C1597 C1595 1.415 . S
C1598 H1588 0.930 . S
C1598 C1596 1.419 . S
C1598 C1599 1.362 . S
C1599 H1589 0.930 . S
C1599 C1592 1.409 . S
C1599 C1598 1.362 . S
H1600 C1606 0.930 . S
H1601 C1609 0.930 . S
H1602 C1610 0.930 . S
H1603 C1611 0.930 . S
H1604 C1614 0.930 . S
H1605 C1615 0.930 . S
C1606 H1600 0.930 . S
C1606 C1607 1.355 . S
C1606 C1608 1.415 . S
C1607 C1606 1.355 . S
C1607 C1609 1.419 . S
C1608 C1606 1.415 . S
C1608 C1613 1.425 . S
C1608 C1615 1.409 . S
C1609 H1601 0.930 . S
C1609 C1607 1.419 . S
C1609 C1610 1.362 . S
C1610 H1602 0.930 . S
C1610 C1609 1.362 . S
C1610 C1613 1.409 . S
C1611 H1603 0.930 . S
C1611 C1612 1.355 . S
C1611 C1613 1.415 . S
C1612 C1611 1.355 . S
C1612 C1614 1.419 . S
C1613 C1608 1.425 . S
C1613 C1610 1.409 . S
C1613 C1611 1.415 . S
C1614 H1604 0.930 . S
C1614 C1612 1.419 . S
C1614 C1615 1.362 . S
C1615 H1605 0.930 . S
C1615 C1608 1.409 . S
C1615 C1614 1.362 . S
H1616 C1622 0.930 . S
H1617 C1625 0.930 . S
H1618 C1626 0.930 . S
H1619 C1627 0.930 . S
H1620 C1630 0.930 . S
H1621 C1631 0.930 . S
C1622 H1616 0.930 . S
C1622 C1623 1.355 . S
C1622 C1624 1.415 . S
C1623 C1622 1.355 . S
C1623 C1625 1.419 . S
C1624 C1622 1.415 . S
C1624 C1629 1.425 . S
C1624 C1631 1.409 . S
C1625 H1617 0.930 . S
C1625 C1623 1.419 . S
C1625 C1626 1.362 . S
C1626 H1618 0.930 . S
C1626 C1625 1.362 . S
C1626 C1629 1.409 . S
C1627 H1619 0.930 . S
C1627 C1628 1.355 . S
C1627 C1629 1.415 . S
C1628 C1627 1.355 . S
C1628 C1630 1.419 . S
C1629 C1624 1.425 . S
C1629 C1626 1.409 . S
C1629 C1627 1.415 . S
C1630 H1620 0.930 . S
C1630 C1628 1.419 . S
C1630 C1631 1.362 . S
C1631 H1621 0.930 . S
C1631 C1624 1.409 . S
C1631 C1630 1.362 . S
H1632 C1638 0.930 . S
H1633 C1641 0.930 . S
H1634 C1642 0.930 . S
H1635 C1643 0.930 . S
H1636 C1646 0.930 . S
H1637 C1647 0.930 . S
C1638 H1632 0.930 . S
C1638 C1639 1.355 . S
C1638 C1640 1.415 . S
C1639 C1638 1.355 . S
C1639 C1641 1.419 . S
C1640 C1638 1.415 . S
C1640 C1645 1.425 . S
C1640 C1647 1.409 . S
C1641 H1633 0.930 . S
C1641 C1639 1.419 . S
C1641 C1642 1.362 . S
C1642 H1634 0.930 . S
C1642 C1641 1.362 . S
C1642 C1645 1.409 . S
C1643 H1635 0.930 . S
C1643 C1644 1.355 . S
C1643 C1645 1.415 . S
C1644 C1643 1.355 . S
C1644 C1646 1.419 . S
C1645 C1640 1.425 . S
C1645 C1642 1.409 . S
C1645 C1643 1.415 . S
C1646 H1636 0.930 . S
C1646 C1644 1.419 . S
C1646 C1647 1.362 . S
C1647 H1637 0.930 . S
C1647 C1640 1.409 . S
C1647 C1646 1.362 . S
H1648 C1654 0.930 . S
H1649 C1657 0.930 . S
H1650 C1658 0.930 . S
H1651 C1659 0.930 . S
H1652 C1662 0.930 . S
H1653 C1663 0.930 . S
C1654 H1648 0.930 . S
C1654 C1655 1.355 . S
C1654 C1656 1.415 . S
C1655 C1654 1.355 . S
C1655 C1657 1.419 . S
C1656 C1654 1.415 . S
C1656 C1661 1.425 . S
C1656 C1663 1.409 . S
C1657 H1649 0.930 . S
C1657 C1655 1.419 . S
C1657 C1658 1.362 . S
C1658 H1650 0.930 . S
C1658 C1657 1.362 . S
C1658 C1661 1.409 . S
C1659 H1651 0.930 . S
C1659 C1660 1.355 . S
C1659 C1661 1.415 . S
C1660 C1659 1.355 . S
C1660 C1662 1.419 . S
C1661 C1656 1.425 . S
C1661 C1658 1.409 . S
C1661 C1659 1.415 . S
C1662 H1652 0.930 . S
C1662 C1660 1.419 . S
C1662 C1663 1.362 . S
C1663 H1653 0.930 . S
C1663 C1656 1.409 . S
C1663 C1662 1.362 . S
H1664 C1670 0.930 . S
H1665 C1673 0.930 . S
H1666 C1674 0.930 . S
H1667 C1675 0.930 . S
H1668 C1678 0.930 . S
H1669 C1679 0.930 . S
C1670 H1664 0.930 . S
C1670 C1671 1.355 . S
C1670 C1672 1.415 . S
C1671 C1670 1.355 . S
C1671 C1673 1.419 . S
C1672 C1670 1.415 . S
C1672 C1677 1.425 . S
C1672 C1679 1.409 . S
C1673 H1665 0.930 . S
C1673 C1671 1.419 . S
C1673 C1674 1.362 . S
C1674 H1666 0.930 . S
C1674 C1673 1.362 . S
C1674 C1677 1.409 . S
C1675 H1667 0.930 . S
C1675 C1676 1.355 . S
C1675 C1677 1.415 . S
C1676 C1675 1.355 . S
C1676 C1678 1.419 . S
C1677 C1672 1.425 . S
C1677 C1674 1.409 . S
C1677 C1675 1.415 . S
C1678 H1668 0.930 . S
C1678 C1676 1.419 . S
C1678 C1679 1.362 . S
C1679 H1669 0.930 . S
C1679 C1672 1.409 . S
C1679 C1678 1.362 . S
H1680 C1686 0.930 . S
H1681 C1689 0.930 . S
H1682 C1690 0.930 . S
H1683 C1691 0.930 . S
H1684 C1694 0.930 . S
H1685 C1695 0.930 . S
C1686 H1680 0.930 . S
C1686 C1687 1.355 . S
C1686 C1688 1.415 . S
C1687 C1686 1.355 . S
C1687 C1689 1.419 . S
C1688 C1686 1.415 . S
C1688 C1693 1.425 . S
C1688 C1695 1.409 . S
C1689 H1681 0.930 . S
C1689 C1687 1.419 . S
C1689 C1690 1.362 . S
C1690 H1682 0.930 . S
C1690 C1689 1.362 . S
C1690 C1693 1.409 . S
C1691 H1683 0.930 . S
C1691 C1692 1.355 . S
C1691 C1693 1.415 . S
C1692 C1691 1.355 . S
C1692 C1694 1.419 . S
C1693 C1688 1.425 . S
C1693 C1690 1.409 . S
C1693 C1691 1.415 . S
C1694 H1684 0.930 . S
C1694 C1692 1.419 . S
C1694 C1695 1.362 . S
C1695 H1685 0.930 . S
C1695 C1688 1.409 . S
C1695 C1694 1.362 . S
H1696 C1702 0.930 . S
H1697 C1705 0.930 . S
H1698 C1706 0.930 . S
H1699 C1707 0.930 . S
H1700 C1710 0.930 . S
H1701 C1711 0.930 . S
C1702 H1696 0.930 . S
C1702 C1703 1.355 . S
C1702 C1704 1.415 . S
C1703 C1702 1.355 . S
C1703 C1705 1.419 . S
C1704 C1702 1.415 . S
C1704 C1709 1.425 . S
C1704 C1711 1.409 . S
C1705 H1697 0.930 . S
C1705 C1703 1.419 . S
C1705 C1706 1.362 . S
C1706 H1698 0.930 . S
C1706 C1705 1.362 . S
C1706 C1709 1.409 . S
C1707 H1699 0.930 . S
C1707 C1708 1.355 . S
C1707 C1709 1.415 . S
C1708 C1707 1.355 . S
C1708 C1710 1.419 . S
C1709 C1704 1.425 . S
C1709 C1706 1.409 . S
C1709 C1707 1.415 . S
C1710 H1700 0.930 . S
C1710 C1708 1.419 . S
C1710 C1711 1.362 . S
C1711 H1701 0.930 . S
C1711 C1704 1.409 . S
C1711 C1710 1.362 . S
H1712 C1718 0.930 . S
H1713 C1721 0.930 . S
H1714 C1722 0.930 . S
H1715 C1723 0.930 . S
H1716 C1726 0.929 . S
H1717 C1727 0.930 . S
C1718 H1712 0.930 . S
C1718 C1719 1.355 . S
C1718 C1720 1.415 . S
C1719 C1718 1.355 . S
C1719 C1721 1.419 . S
C1720 C1718 1.415 . S
C1720 C1725 1.425 . S
C1720 C1727 1.409 . S
C1721 H1713 0.930 . S
C1721 C1719 1.419 . S
C1721 C1722 1.362 . S
C1722 H1714 0.930 . S
C1722 C1721 1.362 . S
C1722 C1725 1.409 . S
C1723 H1715 0.930 . S
C1723 C1724 1.355 . S
C1723 C1725 1.415 . S
C1724 C1723 1.355 . S
C1724 C1726 1.419 1_556 S
C1725 C1720 1.425 . S
C1725 C1722 1.409 . S
C1725 C1723 1.415 . S
C1726 H1716 0.929 . S
C1726 C1724 1.419 1_554 S
C1726 C1727 1.363 1_554 S
C1727 H1717 0.930 . S
C1727 C1720 1.409 . S
C1727 C1726 1.363 1_556 S
H1728 C1734 0.930 . S
H1729 C1737 0.930 . S
H1730 C1738 0.930 . S
H1731 C1739 0.930 . S
H1732 C1742 0.930 . S
H1733 C1743 0.930 . S
C1734 H1728 0.930 . S
C1734 C1735 1.355 1_655 S
C1734 C1736 1.415 . S
C1735 C1734 1.355 1_455 S
C1735 C1737 1.419 . S
C1736 C1734 1.415 . S
C1736 C1741 1.425 . S
C1736 C1743 1.409 . S
C1737 H1729 0.930 . S
C1737 C1735 1.419 . S
C1737 C1738 1.362 1_455 S
C1738 H1730 0.930 . S
C1738 C1737 1.362 1_655 S
C1738 C1741 1.409 . S
C1739 H1731 0.930 . S
C1739 C1740 1.355 . S
C1739 C1741 1.415 . S
C1740 C1739 1.355 . S
C1740 C1742 1.419 . S
C1741 C1736 1.425 . S
C1741 C1738 1.409 . S
C1741 C1739 1.415 . S
C1742 H1732 0.930 . S
C1742 C1740 1.419 . S
C1742 C1743 1.362 . S
C1743 H1733 0.930 . S
C1743 C1736 1.409 . S
C1743 C1742 1.362 . S
H1744 C1750 0.930 . S
H1745 C1753 0.930 . S
H1746 C1754 0.930 . S
H1747 C1755 0.930 . S
H1748 C1758 0.930 . S
H1749 C1759 0.930 . S
C1750 H1744 0.930 . S
C1750 C1751 1.355 . S
C1750 C1752 1.415 . S
C1751 C1750 1.355 . S
C1751 C1753 1.419 . S
C1752 C1750 1.415 . S
C1752 C1757 1.425 . S
C1752 C1759 1.409 . S
C1753 H1745 0.930 . S
C1753 C1751 1.419 . S
C1753 C1754 1.362 . S
C1754 H1746 0.930 . S
C1754 C1753 1.362 . S
C1754 C1757 1.409 . S
C1755 H1747 0.930 . S
C1755 C1756 1.355 . S
C1755 C1757 1.415 . S
C1756 C1755 1.355 . S
C1756 C1758 1.419 . S
C1757 C1752 1.425 . S
C1757 C1754 1.409 . S
C1757 C1755 1.415 . S
C1758 H1748 0.930 . S
C1758 C1756 1.419 . S
C1758 C1759 1.362 . S
C1759 H1749 0.930 . S
C1759 C1752 1.409 . S
C1759 C1758 1.362 . S
H1760 C1766 0.930 . S
H1761 C1769 0.930 . S
H1762 C1770 0.930 . S
H1763 C1771 0.930 . S
H1764 C1774 0.930 . S
H1765 C1775 0.930 . S
C1766 H1760 0.930 . S
C1766 C1767 1.355 . S
C1766 C1768 1.415 . S
C1767 C1766 1.355 . S
C1767 C1769 1.419 . S
C1768 C1766 1.415 . S
C1768 C1773 1.425 . S
C1768 C1775 1.409 . S
C1769 H1761 0.930 . S
C1769 C1767 1.419 . S
C1769 C1770 1.362 . S
C1770 H1762 0.930 . S
C1770 C1769 1.362 . S
C1770 C1773 1.409 . S
C1771 H1763 0.930 . S
C1771 C1772 1.355 . S
C1771 C1773 1.415 . S
C1772 C1771 1.355 . S
C1772 C1774 1.419 . S
C1773 C1768 1.425 . S
C1773 C1770 1.409 . S
C1773 C1771 1.415 . S
C1774 H1764 0.930 . S
C1774 C1772 1.419 . S
C1774 C1775 1.362 . S
C1775 H1765 0.930 . S
C1775 C1768 1.409 . S
C1775 C1774 1.362 . S
H1776 C1782 0.930 . S
H1777 C1785 0.930 . S
H1778 C1786 0.930 . S
H1779 C1787 0.930 . S
H1780 C1790 0.930 . S
H1781 C1791 0.930 . S
C1782 H1776 0.930 . S
C1782 C1783 1.355 . S
C1782 C1784 1.415 . S
C1783 C1782 1.355 . S
C1783 C1785 1.419 . S
C1784 C1782 1.415 . S
C1784 C1789 1.425 . S
C1784 C1791 1.409 . S
C1785 H1777 0.930 . S
C1785 C1783 1.419 . S
C1785 C1786 1.362 . S
C1786 H1778 0.930 . S
C1786 C1785 1.362 . S
C1786 C1789 1.409 . S
C1787 H1779 0.930 . S
C1787 C1788 1.355 . S
C1787 C1789 1.415 . S
C1788 C1787 1.355 . S
C1788 C1790 1.419 . S
C1789 C1784 1.425 . S
C1789 C1786 1.409 . S
C1789 C1787 1.415 . S
C1790 H1780 0.930 . S
C1790 C1788 1.419 . S
C1790 C1791 1.362 . S
C1791 H1781 0.930 . S
C1791 C1784 1.409 . S
C1791 C1790 1.362 . S
H1792 C1798 0.930 1_554 S
H1793 C1801 0.930 . S
H1794 C1802 0.930 . S
H1795 C1803 0.930 . S
H1796 C1806 0.930 . S
H1797 C1807 0.930 . S
C1798 H1792 0.930 1_556 S
C1798 C1799 1.355 1_556 S
C1798 C1800 1.415 . S
C1799 C1798 1.355 1_554 S
C1799 C1801 1.419 1_554 S
C1800 C1798 1.415 . S
C1800 C1805 1.425 . S
C1800 C1807 1.409 . S
C1801 H1793 0.930 . S
C1801 C1799 1.419 1_556 S
C1801 C1802 1.362 . S
C1802 H1794 0.930 . S
C1802 C1801 1.362 . S
C1802 C1805 1.409 . S
C1803 H1795 0.930 . S
C1803 C1804 1.355 . S
C1803 C1805 1.415 . S
C1804 C1803 1.355 . S
C1804 C1806 1.419 . S
C1805 C1800 1.425 . S
C1805 C1802 1.409 . S
C1805 C1803 1.415 . S
C1806 H1796 0.930 . S
C1806 C1804 1.419 . S
C1806 C1807 1.362 . S
C1807 H1797 0.930 . S
C1807 C1800 1.409 . S
C1807 C1806 1.362 . S
H1808 C1814 0.930 . S
H1809 C1817 0.930 . S
H1810 C1818 0.930 1_455 S
H1811 C1819 0.930 . S
H1812 C1822 0.930 . S
H1813 C1823 0.930 . S
C1814 H1808 0.930 . S
C1814 C1815 1.355 . S
C1814 C1816 1.415 . S
C1815 C1814 1.355 . S
C1815 C1817 1.419 . S
C1816 C1814 1.415 . S
C1816 C1821 1.425 . S
C1816 C1823 1.409 . S
C1817 H1809 0.930 . S
C1817 C1815 1.419 . S
C1817 C1818 1.362 . S
C1818 H1810 0.930 1_655 S
C1818 C1817 1.362 . S
C1818 C1821 1.409 . S
C1819 H1811 0.930 . S
C1819 C1820 1.355 1_455 S
C1819 C1821 1.415 1_455 S
C1820 C1819 1.355 1_655 S
C1820 C1822 1.419 . S
C1821 C1816 1.425 . S
C1821 C1818 1.409 . S
C1821 C1819 1.415 1_655 S
C1822 H1812 0.930 . S
C1822 C1820 1.419 . S
C1822 C1823 1.362 . S
C1823 H1813 0.930 . S
C1823 C1816 1.409 . S
C1823 C1822 1.362 . S
H1824 C1830 0.930 . S
H1825 C1833 0.930 . S
H1826 C1834 0.930 . S
H1827 C1835 0.930 . S
H1828 C1838 0.930 . S
H1829 C1839 0.930 . S
C1830 H1824 0.930 . S
C1830 C1831 1.355 . S
C1830 C1832 1.415 . S
C1831 C1830 1.355 . S
C1831 C1833 1.419 . S
C1832 C1830 1.415 . S
C1832 C1837 1.425 . S
C1832 C1839 1.409 . S
C1833 H1825 0.930 . S
C1833 C1831 1.419 . S
C1833 C1834 1.362 . S
C1834 H1826 0.930 . S
C1834 C1833 1.362 . S
C1834 C1837 1.409 . S
C1835 H1827 0.930 . S
C1835 C1836 1.355 . S
C1835 C1837 1.415 . S
C1836 C1835 1.355 . S
C1836 C1838 1.419 . S
C1837 C1832 1.425 . S
C1837 C1834 1.409 . S
C1837 C1835 1.415 . S
C1838 H1828 0.930 . S
C1838 C1836 1.419 . S
C1838 C1839 1.362 . S
C1839 H1829 0.930 . S
C1839 C1832 1.409 . S
C1839 C1838 1.362 . S
H1840 C1846 0.930 . S
H1841 C1849 0.930 . S
H1842 C1850 0.930 . S
H1843 C1851 0.930 . S
H1844 C1854 0.930 . S
H1845 C1855 0.930 . S
C1846 H1840 0.930 . S
C1846 C1847 1.355 . S
C1846 C1848 1.415 . S
C1847 C1846 1.355 . S
C1847 C1849 1.419 . S
C1848 C1846 1.415 . S
C1848 C1853 1.425 . S
C1848 C1855 1.409 . S
C1849 H1841 0.930 . S
C1849 C1847 1.419 . S
C1849 C1850 1.362 . S
C1850 H1842 0.930 . S
C1850 C1849 1.362 . S
C1850 C1853 1.409 . S
C1851 H1843 0.930 . S
C1851 C1852 1.355 . S
C1851 C1853 1.415 . S
C1852 C1851 1.355 . S
C1852 C1854 1.419 . S
C1853 C1848 1.425 . S
C1853 C1850 1.409 . S
C1853 C1851 1.415 . S
C1854 H1844 0.930 . S
C1854 C1852 1.419 . S
C1854 C1855 1.362 . S
C1855 H1845 0.930 . S
C1855 C1848 1.409 . S
C1855 C1854 1.362 . S
H1856 C1862 0.930 . S
H1857 C1865 0.930 . S
H1858 C1866 0.930 . S
H1859 C1867 0.930 . S
H1860 C1870 0.930 . S
H1861 C1871 0.930 . S
C1862 H1856 0.930 . S
C1862 C1863 1.355 . S
C1862 C1864 1.415 . S
C1863 C1862 1.355 . S
C1863 C1865 1.419 . S
C1864 C1862 1.415 . S
C1864 C1869 1.425 . S
C1864 C1871 1.409 . S
C1865 H1857 0.930 . S
C1865 C1863 1.419 . S
C1865 C1866 1.362 . S
C1866 H1858 0.930 . S
C1866 C1865 1.362 . S
C1866 C1869 1.409 . S
C1867 H1859 0.930 . S
C1867 C1868 1.355 . S
C1867 C1869 1.415 . S
C1868 C1867 1.355 . S
C1868 C1870 1.419 . S
C1869 C1864 1.425 . S
C1869 C1866 1.409 . S
C1869 C1867 1.415 . S
C1870 H1860 0.930 . S
C1870 C1868 1.419 . S
C1870 C1871 1.362 . S
C1871 H1861 0.930 . S
C1871 C1864 1.409 . S
C1871 C1870 1.362 . S
H1872 C1878 0.930 . S
H1873 C1881 0.930 . S
H1874 C1882 0.930 . S
H1875 C1883 0.930 . S
H1876 C1886 0.923 1_455 S
H1877 C1887 0.930 1_455 S
C1878 H1872 0.930 . S
C1878 C1879 1.355 . S
C1878 C1880 1.415 . S
C1879 C1878 1.355 . S
C1879 C1881 1.419 . S
C1880 C1878 1.415 . S
C1880 C1885 1.425 . S
C1880 C1887 1.409 . S
C1881 H1873 0.930 . S
C1881 C1879 1.419 . S
C1881 C1882 1.362 . S
C1882 H1874 0.930 . S
C1882 C1881 1.362 . S
C1882 C1885 1.409 . S
C1883 H1875 0.930 . S
C1883 C1884 1.355 . S
C1883 C1885 1.415 . S
C1884 C1883 1.355 . S
C1884 C1886 1.424 . S
C1885 C1880 1.425 . S
C1885 C1882 1.409 . S
C1885 C1883 1.415 . S
C1886 H1876 0.923 1_655 S
C1886 C1884 1.424 . S
C1886 C1887 1.364 . S
C1887 H1877 0.930 1_655 S
C1887 C1880 1.409 . S
C1887 C1886 1.364 . S
H1888 C1894 0.930 . S
H1889 C1897 0.930 . S
H1890 C1898 0.930 . S
H1891 C1899 0.930 . S
H1892 C1902 0.930 . S
H1893 C1903 0.930 . S
C1894 H1888 0.930 . S
C1894 C1895 1.355 . S
C1894 C1896 1.415 . S
C1895 C1894 1.355 . S
C1895 C1897 1.419 . S
C1896 C1894 1.415 . S
C1896 C1901 1.425 . S
C1896 C1903 1.409 . S
C1897 H1889 0.930 . S
C1897 C1895 1.419 . S
C1897 C1898 1.362 . S
C1898 H1890 0.930 . S
C1898 C1897 1.362 . S
C1898 C1901 1.409 . S
C1899 H1891 0.930 . S
C1899 C1900 1.355 . S
C1899 C1901 1.415 . S
C1900 C1899 1.355 . S
C1900 C1902 1.419 . S
C1901 C1896 1.425 . S
C1901 C1898 1.409 . S
C1901 C1899 1.415 . S
C1902 H1892 0.930 . S
C1902 C1900 1.419 . S
C1902 C1903 1.362 . S
C1903 H1893 0.930 . S
C1903 C1896 1.409 . S
C1903 C1902 1.362 . S
H1904 C1910 0.930 . S
H1905 C1913 0.930 . S
H1906 C1914 0.930 . S
H1907 C1915 0.930 . S
H1908 C1918 0.930 . S
H1909 C1919 0.930 . S
C1910 H1904 0.930 . S
C1910 C1911 1.355 . S
C1910 C1912 1.415 . S
C1911 C1910 1.355 . S
C1911 C1913 1.419 . S
C1912 C1910 1.415 . S
C1912 C1917 1.425 . S
C1912 C1919 1.409 . S
C1913 H1905 0.930 . S
C1913 C1911 1.419 . S
C1913 C1914 1.362 . S
C1914 H1906 0.930 . S
C1914 C1913 1.362 . S
C1914 C1917 1.409 . S
C1915 H1907 0.930 . S
C1915 C1916 1.355 . S
C1915 C1917 1.415 . S
C1916 C1915 1.355 . S
C1916 C1918 1.419 . S
C1917 C1912 1.425 . S
C1917 C1914 1.409 . S
C1917 C1915 1.415 . S
C1918 H1908 0.930 . S
C1918 C1916 1.419 . S
C1918 C1919 1.362 . S
C1919 H1909 0.930 . S
C1919 C1912 1.409 . S
C1919 C1918 1.362 . S
H1920 C1926 0.930 . S
H1921 C1929 0.930 . S
H1922 C1930 0.930 . S
H1923 C1931 0.930 1_545 S
H1924 C1934 0.930 . S
H1925 C1935 0.930 . S
C1926 H1920 0.930 . S
C1926 C1927 1.355 . S
C1926 C1928 1.415 . S
C1927 C1926 1.355 . S
C1927 C1929 1.419 . S
C1928 C1926 1.415 . S
C1928 C1933 1.425 . S
C1928 C1935 1.409 . S
C1929 H1921 0.930 . S
C1929 C1927 1.419 . S
C1929 C1930 1.362 . S
C1930 H1922 0.930 . S
C1930 C1929 1.362 . S
C1930 C1933 1.409 . S
C1931 H1923 0.930 1_565 S
C1931 C1932 1.355 . S
C1931 C1933 1.415 . S
C1932 C1931 1.355 . S
C1932 C1934 1.419 . S
C1933 C1928 1.425 . S
C1933 C1930 1.409 . S
C1933 C1931 1.415 . S
C1934 H1924 0.930 . S
C1934 C1932 1.419 . S
C1934 C1935 1.362 . S
C1935 H1925 0.930 . S
C1935 C1928 1.409 . S
C1935 C1934 1.362 . S
H1936 C1942 0.930 . S
H1937 C1945 0.930 . S
H1938 C1946 0.930 . S
H1939 C1947 0.930 . S
H1940 C1950 0.930 . S
H1941 C1951 0.930 . S
C1942 H1936 0.930 . S
C1942 C1943 1.355 . S
C1942 C1944 1.415 . S
C1943 C1942 1.355 . S
C1943 C1945 1.419 . S
C1944 C1942 1.415 . S
C1944 C1949 1.425 . S
C1944 C1951 1.409 . S
C1945 H1937 0.930 . S
C1945 C1943 1.419 . S
C1945 C1946 1.362 . S
C1946 H1938 0.930 . S
C1946 C1945 1.362 . S
C1946 C1949 1.409 . S
C1947 H1939 0.930 . S
C1947 C1948 1.355 . S
C1947 C1949 1.415 . S
C1948 C1947 1.355 . S
C1948 C1950 1.419 . S
C1949 C1944 1.425 . S
C1949 C1946 1.409 . S
C1949 C1947 1.415 . S
C1950 H1940 0.930 . S
C1950 C1948 1.419 . S
C1950 C1951 1.362 . S
C1951 H1941 0.930 . S
C1951 C1944 1.409 . S
C1951 C1950 1.362 . S
H1952 C1958 0.930 . S
H1953 C1961 0.930 1_556 S
H1954 C1962 0.930 1_556 S
H1955 C1963 0.930 . S
H1956 C1966 0.930 . S
H1957 C1967 0.930 . S
C1958 H1952 0.930 . S
C1958 C1959 1.355 . S
C1958 C1960 1.415 . S
C1959 C1958 1.355 . S
C1959 C1961 1.419 . S
C1960 C1958 1.415 . S
C1960 C1965 1.425 . S
C1960 C1967 1.409 . S
C1961 H1953 0.930 1_554 S
C1961 C1959 1.419 . S
C1961 C1962 1.362 . S
C1962 H1954 0.930 1_554 S
C1962 C1961 1.362 . S
C1962 C1965 1.409 . S
C1963 H1955 0.930 . S
C1963 C1964 1.355 . S
C1963 C1965 1.415 . S
C1964 C1963 1.355 . S
C1964 C1966 1.419 . S
C1965 C1960 1.425 . S
C1965 C1962 1.409 . S
C1965 C1963 1.415 . S
C1966 H1956 0.930 . S
C1966 C1964 1.419 . S
C1966 C1967 1.362 . S
C1967 H1957 0.930 . S
C1967 C1960 1.409 . S
C1967 C1966 1.362 . S
H1968 C1974 0.930 . S
H1969 C1977 0.930 . S
H1970 C1978 0.930 . S
H1971 C1979 0.930 . S
H1972 C1982 0.930 . S
H1973 C1983 0.930 . S
C1974 H1968 0.930 . S
C1974 C1975 1.355 . S
C1974 C1976 1.415 . S
C1975 C1974 1.355 . S
C1975 C1977 1.419 . S
C1976 C1974 1.415 . S
C1976 C1981 1.425 . S
C1976 C1983 1.409 . S
C1977 H1969 0.930 . S
C1977 C1975 1.419 . S
C1977 C1978 1.362 . S
C1978 H1970 0.930 . S
C1978 C1977 1.362 . S
C1978 C1981 1.409 . S
C1979 H1971 0.930 . S
C1979 C1980 1.355 . S
C1979 C1981 1.415 . S
C1980 C1979 1.355 . S
C1980 C1982 1.419 . S
C1981 C1976 1.425 . S
C1981 C1978 1.409 . S
C1981 C1979 1.415 . S
C1982 H1972 0.930 . S
C1982 C1980 1.419 . S
C1982 C1983 1.362 . S
C1983 H1973 0.930 . S
C1983 C1976 1.409 . S
C1983 C1982 1.362 . S
H1984 C1990 0.930 . S
H1985 C1993 0.930 . S
H1986 C1994 0.930 . S
H1987 C1995 0.930 . S
H1988 C1998 0.930 . S
H1989 C1999 0.930 . S
C1990 H1984 0.930 . S
C1990 C1991 1.355 . S
C1990 C1992 1.415 . S
C1991 C1990 1.355 . S
C1991 C1993 1.419 . S
C1992 C1990 1.415 . S
C1992 C1997 1.425 . S
C1992 C1999 1.409 . S
C1993 H1985 0.930 . S
C1993 C1991 1.419 . S
C1993 C1994 1.362 . S
C1994 H1986 0.930 . S
C1994 C1993 1.362 . S
C1994 C1997 1.409 . S
C1995 H1987 0.930 . S
C1995 C1996 1.355 . S
C1995 C1997 1.415 . S
C1996 C1995 1.355 . S
C1996 C1998 1.419 . S
C1997 C1992 1.425 . S
C1997 C1994 1.409 . S
C1997 C1995 1.415 . S
C1998 H1988 0.930 . S
C1998 C1996 1.419 . S
C1998 C1999 1.362 . S
C1999 H1989 0.930 . S
C1999 C1992 1.409 . S
C1999 C1998 1.362 . S
H2000 C2006 0.930 . S
H2001 C2009 0.930 . S
H2002 C2010 0.930 . S
H2003 C2011 0.930 . S
H2004 C2014 0.930 . S
H2005 C2015 0.930 . S
C2006 H2000 0.930 . S
C2006 C2007 1.355 . S
C2006 C2008 1.415 . S
C2007 C2006 1.355 . S
C2007 C2009 1.419 . S
C2008 C2006 1.415 . S
C2008 C2013 1.425 . S
C2008 C2015 1.409 . S
C2009 H2001 0.930 . S
C2009 C2007 1.419 . S
C2009 C2010 1.362 . S
C2010 H2002 0.930 . S
C2010 C2009 1.362 . S
C2010 C2013 1.409 . S
C2011 H2003 0.930 . S
C2011 C2012 1.355 . S
C2011 C2013 1.415 . S
C2012 C2011 1.355 . S
C2012 C2014 1.419 . S
C2013 C2008 1.425 . S
C2013 C2010 1.409 . S
C2013 C2011 1.415 . S
C2014 H2004 0.930 . S
C2014 C2012 1.419 . S
C2014 C2015 1.362 . S
C2015 H2005 0.930 . S
C2015 C2008 1.409 . S
C2015 C2014 1.362 . S
H2016 C2022 0.930 . S
H2017 C2025 0.930 . S
H2018 C2026 0.930 . S
H2019 C2027 0.930 . S
H2020 C2030 0.930 . S
H2021 C2031 0.930 . S
C2022 H2016 0.930 . S
C2022 C2023 1.355 . S
C2022 C2024 1.415 . S
C2023 C2022 1.355 . S
C2023 C2025 1.419 . S
C2024 C2022 1.415 . S
C2024 C2029 1.425 . S
C2024 C2031 1.409 . S
C2025 H2017 0.930 . S
C2025 C2023 1.419 . S
C2025 C2026 1.362 . S
C2026 H2018 0.930 . S
C2026 C2025 1.362 . S
C2026 C2029 1.409 . S
C2027 H2019 0.930 . S
C2027 C2028 1.355 . S
C2027 C2029 1.415 . S
C2028 C2027 1.355 . S
C2028 C2030 1.419 . S
C2029 C2024 1.425 . S
C2029 C2026 1.409 . S
C2029 C2027 1.415 . S
C2030 H2020 0.930 . S
C2030 C2028 1.419 . S
C2030 C2031 1.362 . S
C2031 H2021 0.930 . S
C2031 C2024 1.409 . S
C2031 C2030 1.362 . S
H2032 C2038 0.930 . S
H2033 C2041 0.930 . S
H2034 C2042 0.930 . S
H2035 C2043 0.930 . S
H2036 C2046 0.930 . S
H2037 C2047 0.930 . S
C2038 H2032 0.930 . S
C2038 C2039 1.355 . S
C2038 C2040 1.415 . S
C2039 C2038 1.355 . S
C2039 C2041 1.419 . S
C2040 C2038 1.415 . S
C2040 C2045 1.425 . S
C2040 C2047 1.409 . S
C2041 H2033 0.930 . S
C2041 C2039 1.419 . S
C2041 C2042 1.362 . S
C2042 H2034 0.930 . S
C2042 C2041 1.362 . S
C2042 C2045 1.409 . S
C2043 H2035 0.930 . S
C2043 C2044 1.355 . S
C2043 C2045 1.415 . S
C2044 C2043 1.355 . S
C2044 C2046 1.419 . S
C2045 C2040 1.425 . S
C2045 C2042 1.409 . S
C2045 C2043 1.415 . S
C2046 H2036 0.930 . S
C2046 C2044 1.419 . S
C2046 C2047 1.362 . S
C2047 H2037 0.930 . S
C2047 C2040 1.409 . S
C2047 C2046 1.362 . S
H2048 C2054 0.930 . S
H2049 C2057 0.930 . S
H2050 C2058 0.930 . S
H2051 C2059 0.930 . S
H2052 C2062 0.930 . S
H2053 C2063 0.930 . S
C2054 H2048 0.930 . S
C2054 C2055 1.355 . S
C2054 C2056 1.415 . S
C2055 C2054 1.355 . S
C2055 C2057 1.419 . S
C2056 C2054 1.415 . S
C2056 C2061 1.425 . S
C2056 C2063 1.409 . S
C2057 H2049 0.930 . S
C2057 C2055 1.419 . S
C2057 C2058 1.362 . S
C2058 H2050 0.930 . S
C2058 C2057 1.362 . S
C2058 C2061 1.409 . S
C2059 H2051 0.930 . S
C2059 C2060 1.355 . S
C2059 C2061 1.415 . S
C2060 C2059 1.355 . S
C2060 C2062 1.419 . S
C2061 C2056 1.425 . S
C2061 C2058 1.409 . S
C2061 C2059 1.415 . S
C2062 H2052 0.930 . S
C2062 C2060 1.419 . S
C2062 C2063 1.362 . S
C2063 H2053 0.930 . S
C2063 C2056 1.409 . S
C2063 C2062 1.362 . S
H2064 C2070 0.930 . S
H2065 C2073 0.930 . S
H2066 C2074 0.930 . S
H2067 C2075 0.930 . S
H2068 C2078 0.930 . S
H2069 C2079 0.930 . S
C2070 H2064 0.930 . S
C2070 C2071 1.355 . S
C2070 C2072 1.415 . S
C2071 C2070 1.355 . S
C2071 C2073 1.419 1_655 S
C2072 C2070 1.415 . S
C2072 C2077 1.425 1_655 S
C2072 C2079 1.409 . S
C2073 H2065 0.930 . S
C2073 C2071 1.419 1_455 S
C2073 C2074 1.362 . S
C2074 H2066 0.930 . S
C2074 C2073 1.362 . S
C2074 C2077 1.409 . S
C2075 H2067 0.930 . S
C2075 C2076 1.355 1_455 S
C2075 C2077 1.415 . S
C2076 C2075 1.355 1_655 S
C2076 C2078 1.419 . S
C2077 C2072 1.425 1_455 S
C2077 C2074 1.409 . S
C2077 C2075 1.415 . S
C2078 H2068 0.930 . S
C2078 C2076 1.419 . S
C2078 C2079 1.362 . S
C2079 H2069 0.930 . S
C2079 C2072 1.409 . S
C2079 C2078 1.362 . S
H2080 C2086 0.930 . S
H2081 C2089 0.930 . S
H2082 C2090 0.930 . S
H2083 C2091 0.930 . S
H2084 C2094 0.930 . S
H2085 C2095 0.930 . S
C2086 H2080 0.930 . S
C2086 C2087 1.355 . S
C2086 C2088 1.415 . S
C2087 C2086 1.355 . S
C2087 C2089 1.419 . S
C2088 C2086 1.415 . S
C2088 C2093 1.425 . S
C2088 C2095 1.409 . S
C2089 H2081 0.930 . S
C2089 C2087 1.419 . S
C2089 C2090 1.362 . S
C2090 H2082 0.930 . S
C2090 C2089 1.362 . S
C2090 C2093 1.409 . S
C2091 H2083 0.930 . S
C2091 C2092 1.355 . S
C2091 C2093 1.415 . S
C2092 C2091 1.355 . S
C2092 C2094 1.419 . S
C2093 C2088 1.425 . S
C2093 C2090 1.409 . S
C2093 C2091 1.415 . S
C2094 H2084 0.930 . S
C2094 C2092 1.419 . S
C2094 C2095 1.362 . S
C2095 H2085 0.930 . S
C2095 C2088 1.409 . S
C2095 C2094 1.362 . S
H2096 C2102 0.930 . S
H2097 C2105 0.930 . S
H2098 C2106 0.930 . S
H2099 C2107 0.930 . S
H2100 C2110 0.930 . S
H2101 C2111 0.930 . S
C2102 H2096 0.930 . S
C2102 C2103 1.355 . S
C2102 C2104 1.415 . S
C2103 C2102 1.355 . S
C2103 C2105 1.419 . S
C2104 C2102 1.415 . S
C2104 C2109 1.425 . S
C2104 C2111 1.409 . S
C2105 H2097 0.930 . S
C2105 C2103 1.419 . S
C2105 C2106 1.362 . S
C2106 H2098 0.930 . S
C2106 C2105 1.362 . S
C2106 C2109 1.409 . S
C2107 H2099 0.930 . S
C2107 C2108 1.355 . S
C2107 C2109 1.415 . S
C2108 C2107 1.355 . S
C2108 C2110 1.419 . S
C2109 C2104 1.425 . S
C2109 C2106 1.409 . S
C2109 C2107 1.415 . S
C2110 H2100 0.930 . S
C2110 C2108 1.419 . S
C2110 C2111 1.362 . S
C2111 H2101 0.930 . S
C2111 C2104 1.409 . S
C2111 C2110 1.362 . S
H2112 C2118 0.930 . S
H2113 C2121 0.930 . S
H2114 C2122 0.930 . S
H2115 C2123 0.930 . S
H2116 C2126 0.930 . S
H2117 C2127 0.930 . S
C2118 H2112 0.930 . S
C2118 C2119 1.355 . S
C2118 C2120 1.415 . S
C2119 C2118 1.355 . S
C2119 C2121 1.419 . S
C2120 C2118 1.415 . S
C2120 C2125 1.425 . S
C2120 C2127 1.409 . S
C2121 H2113 0.930 . S
C2121 C2119 1.419 . S
C2121 C2122 1.362 . S
C2122 H2114 0.930 . S
C2122 C2121 1.362 . S
C2122 C2125 1.409 . S
C2123 H2115 0.930 . S
C2123 C2124 1.355 . S
C2123 C2125 1.415 . S
C2124 C2123 1.355 . S
C2124 C2126 1.419 . S
C2125 C2120 1.425 . S
C2125 C2122 1.409 . S
C2125 C2123 1.415 . S
C2126 H2116 0.930 . S
C2126 C2124 1.419 . S
C2126 C2127 1.362 . S
C2127 H2117 0.930 . S
C2127 C2120 1.409 . S
C2127 C2126 1.362 . S
H2128 C2134 0.930 . S
H2129 C2137 0.930 . S
H2130 C2138 0.930 . S
H2131 C2139 0.930 . S
H2132 C2142 0.930 . S
H2133 C2143 0.930 . S
C2134 H2128 0.930 . S
C2134 C2135 1.355 . S
C2134 C2136 1.415 . S
C2135 C2134 1.355 . S
C2135 C2137 1.419 . S
C2136 C2134 1.415 . S
C2136 C2141 1.425 . S
C2136 C2143 1.409 . S
C2137 H2129 0.930 . S
C2137 C2135 1.419 . S
C2137 C2138 1.362 . S
C2138 H2130 0.930 . S
C2138 C2137 1.362 . S
C2138 C2141 1.409 . S
C2139 H2131 0.930 . S
C2139 C2140 1.355 . S
C2139 C2141 1.415 . S
C2140 C2139 1.355 . S
C2140 C2142 1.419 . S
C2141 C2136 1.425 . S
C2141 C2138 1.409 . S
C2141 C2139 1.415 . S
C2142 H2132 0.930 . S
C2142 C2140 1.419 . S
C2142 C2143 1.362 . S
C2143 H2133 0.930 . S
C2143 C2136 1.409 . S
C2143 C2142 1.362 . S
H2144 C2150 0.930 . S
H2145 C2153 0.930 . S
H2146 C2154 0.930 . S
H2147 C2155 0.930 . S
H2148 C2158 0.930 . S
H2149 C2159 0.930 . S
C2150 H2144 0.930 . S
C2150 C2151 1.355 . S
C2150 C2152 1.415 . S
C2151 C2150 1.355 . S
C2151 C2153 1.419 . S
C2152 C2150 1.415 . S
C2152 C2157 1.425 . S
C2152 C2159 1.409 . S
C2153 H2145 0.930 . S
C2153 C2151 1.419 . S
C2153 C2154 1.362 . S
C2154 H2146 0.930 . S
C2154 C2153 1.362 . S
C2154 C2157 1.409 . S
C2155 H2147 0.930 . S
C2155 C2156 1.355 . S
C2155 C2157 1.415 . S
C2156 C2155 1.355 . S
C2156 C2158 1.419 . S
C2157 C2152 1.425 . S
C2157 C2154 1.409 . S
C2157 C2155 1.415 . S
C2158 H2148 0.930 . S
C2158 C2156 1.419 . S
C2158 C2159 1.362 . S
C2159 H2149 0.930 . S
C2159 C2152 1.409 . S
C2159 C2158 1.362 . S
H2160 C2166 0.930 . S
H2161 C2169 0.930 . S
H2162 C2170 0.930 . S
H2163 C2171 0.930 . S
H2164 C2174 0.930 . S
H2165 C2175 0.930 . S
C2166 H2160 0.930 . S
C2166 C2167 1.355 . S
C2166 C2168 1.415 . S
C2167 C2166 1.355 . S
C2167 C2169 1.419 . S
C2168 C2166 1.415 . S
C2168 C2173 1.425 . S
C2168 C2175 1.409 . S
C2169 H2161 0.930 . S
C2169 C2167 1.419 . S
C2169 C2170 1.362 . S
C2170 H2162 0.930 . S
C2170 C2169 1.362 . S
C2170 C2173 1.409 . S
C2171 H2163 0.930 . S
C2171 C2172 1.355 . S
C2171 C2173 1.415 . S
C2172 C2171 1.355 . S
C2172 C2174 1.419 . S
C2173 C2168 1.425 . S
C2173 C2170 1.409 . S
C2173 C2171 1.415 . S
C2174 H2164 0.930 . S
C2174 C2172 1.419 . S
C2174 C2175 1.362 . S
C2175 H2165 0.930 . S
C2175 C2168 1.409 . S
C2175 C2174 1.362 . S
H2176 C2182 0.930 . S
H2177 C2185 0.930 . S
H2178 C2186 0.930 . S
H2179 C2187 0.930 . S
H2180 C2190 0.930 . S
H2181 C2191 0.930 . S
C2182 H2176 0.930 . S
C2182 C2183 1.355 . S
C2182 C2184 1.415 . S
C2183 C2182 1.355 . S
C2183 C2185 1.419 . S
C2184 C2182 1.415 . S
C2184 C2189 1.425 . S
C2184 C2191 1.409 . S
C2185 H2177 0.930 . S
C2185 C2183 1.419 . S
C2185 C2186 1.362 . S
C2186 H2178 0.930 . S
C2186 C2185 1.362 . S
C2186 C2189 1.409 . S
C2187 H2179 0.930 . S
C2187 C2188 1.355 . S
C2187 C2189 1.415 . S
C2188 C2187 1.355 . S
C2188 C2190 1.419 . S
C2189 C2184 1.425 . S
C2189 C2186 1.409 . S
C2189 C2187 1.415 . S
C2190 H2180 0.930 . S
C2190 C2188 1.419 . S
C2190 C2191 1.362 . S
C2191 H2181 0.930 . S
C2191 C2184 1.409 . S
C2191 C2190 1.362 . S
H2192 C2198 0.930 . S
H2193 C2201 0.930 . S
H2194 C2202 0.930 . S
H2195 C2203 0.930 . S
H2196 C2206 0.930 . S
H2197 C2207 0.930 . S
C2198 H2192 0.930 . S
C2198 C2199 1.355 . S
C2198 C2200 1.415 . S
C2199 C2198 1.355 . S
C2199 C2201 1.419 . S
C2200 C2198 1.415 . S
C2200 C2205 1.425 . S
C2200 C2207 1.409 . S
C2201 H2193 0.930 . S
C2201 C2199 1.419 . S
C2201 C2202 1.362 . S
C2202 H2194 0.930 . S
C2202 C2201 1.362 . S
C2202 C2205 1.409 . S
C2203 H2195 0.930 . S
C2203 C2204 1.355 . S
C2203 C2205 1.415 . S
C2204 C2203 1.355 . S
C2204 C2206 1.419 . S
C2205 C2200 1.425 . S
C2205 C2202 1.409 . S
C2205 C2203 1.415 . S
C2206 H2196 0.930 . S
C2206 C2204 1.419 . S
C2206 C2207 1.362 . S
C2207 H2197 0.930 . S
C2207 C2200 1.409 . S
C2207 C2206 1.362 . S
H2208 C2214 0.930 . S
H2209 C2217 0.930 . S
H2210 C2218 0.930 . S
H2211 C2219 0.930 . S
H2212 C2222 0.930 . S
H2213 C2223 0.930 . S
C2214 H2208 0.930 . S
C2214 C2215 1.355 . S
C2214 C2216 1.415 . S
C2215 C2214 1.355 . S
C2215 C2217 1.419 . S
C2216 C2214 1.415 . S
C2216 C2221 1.425 . S
C2216 C2223 1.409 . S
C2217 H2209 0.930 . S
C2217 C2215 1.419 . S
C2217 C2218 1.362 . S
C2218 H2210 0.930 . S
C2218 C2217 1.362 . S
C2218 C2221 1.409 . S
C2219 H2211 0.930 . S
C2219 C2220 1.355 . S
C2219 C2221 1.415 . S
C2220 C2219 1.355 . S
C2220 C2222 1.419 . S
C2221 C2216 1.425 . S
C2221 C2218 1.409 . S
C2221 C2219 1.415 . S
C2222 H2212 0.930 . S
C2222 C2220 1.419 . S
C2222 C2223 1.362 . S
C2223 H2213 0.930 . S
C2223 C2216 1.409 . S
C2223 C2222 1.362 . S
H2224 C2230 0.930 . S
H2225 C2233 0.930 . S
H2226 C2234 0.930 . S
H2227 C2235 0.930 . S
H2228 C2238 0.930 . S
H2229 C2239 0.930 . S
C2230 H2224 0.930 . S
C2230 C2231 1.355 . S
C2230 C2232 1.415 . S
C2231 C2230 1.355 . S
C2231 C2233 1.419 . S
C2232 C2230 1.415 . S
C2232 C2237 1.425 . S
C2232 C2239 1.409 . S
C2233 H2225 0.930 . S
C2233 C2231 1.419 . S
C2233 C2234 1.362 . S
C2234 H2226 0.930 . S
C2234 C2233 1.362 . S
C2234 C2237 1.409 . S
C2235 H2227 0.930 . S
C2235 C2236 1.355 . S
C2235 C2237 1.415 . S
C2236 C2235 1.355 . S
C2236 C2238 1.419 . S
C2237 C2232 1.425 . S
C2237 C2234 1.409 . S
C2237 C2235 1.415 . S
C2238 H2228 0.930 . S
C2238 C2236 1.419 . S
C2238 C2239 1.362 . S
C2239 H2229 0.930 . S
C2239 C2232 1.409 . S
C2239 C2238 1.362 . S
H2240 C2246 0.930 . S
H2241 C2249 0.930 . S
H2242 C2250 0.930 . S
H2243 C2251 0.930 . S
H2244 C2254 0.930 . S
H2245 C2255 0.930 . S
C2246 H2240 0.930 . S
C2246 C2247 1.355 . S
C2246 C2248 1.415 . S
C2247 C2246 1.355 . S
C2247 C2249 1.419 . S
C2248 C2246 1.415 . S
C2248 C2253 1.425 . S
C2248 C2255 1.409 . S
C2249 H2241 0.930 . S
C2249 C2247 1.419 . S
C2249 C2250 1.362 . S
C2250 H2242 0.930 . S
C2250 C2249 1.362 . S
C2250 C2253 1.409 . S
C2251 H2243 0.930 . S
C2251 C2252 1.355 . S
C2251 C2253 1.415 . S
C2252 C2251 1.355 . S
C2252 C2254 1.419 . S
C2253 C2248 1.425 . S
C2253 C2250 1.409 . S
C2253 C2251 1.415 . S
C2254 H2244 0.930 . S
C2254 C2252 1.419 . S
C2254 C2255 1.362 . S
C2255 H2245 0.930 . S
C2255 C2248 1.409 . S
C2255 C2254 1.362 . S
H2256 C2262 0.930 . S
H2257 C2265 0.930 . S
H2258 C2266 0.930 . S
H2259 C2267 0.930 . S
H2260 C2270 0.930 . S
H2261 C2271 0.930 . S
C2262 H2256 0.930 . S
C2262 C2263 1.355 . S
C2262 C2264 1.415 . S
C2263 C2262 1.355 . S
C2263 C2265 1.419 . S
C2264 C2262 1.415 . S
C2264 C2269 1.425 . S
C2264 C2271 1.409 . S
C2265 H2257 0.930 . S
C2265 C2263 1.419 . S
C2265 C2266 1.362 . S
C2266 H2258 0.930 . S
C2266 C2265 1.362 . S
C2266 C2269 1.409 . S
C2267 H2259 0.930 . S
C2267 C2268 1.355 . S
C2267 C2269 1.415 . S
C2268 C2267 1.355 . S
C2268 C2270 1.419 . S
C2269 C2264 1.425 . S
C2269 C2266 1.409 . S
C2269 C2267 1.415 . S
C2270 H2260 0.930 . S
C2270 C2268 1.419 . S
C2270 C2271 1.362 . S
C2271 H2261 0.930 . S
C2271 C2264 1.409 . S
C2271 C2270 1.362 . S
H2272 C2278 0.930 . S
H2273 C2281 0.930 . S
H2274 C2282 0.930 . S
H2275 C2283 0.930 . S
H2276 C2286 0.930 . S
H2277 C2287 0.930 . S
C2278 H2272 0.930 . S
C2278 C2279 1.355 . S
C2278 C2280 1.415 . S
C2279 C2278 1.355 . S
C2279 C2281 1.419 . S
C2280 C2278 1.415 . S
C2280 C2285 1.425 . S
C2280 C2287 1.409 . S
C2281 H2273 0.930 . S
C2281 C2279 1.419 . S
C2281 C2282 1.362 . S
C2282 H2274 0.930 . S
C2282 C2281 1.362 . S
C2282 C2285 1.409 . S
C2283 H2275 0.930 . S
C2283 C2284 1.355 . S
C2283 C2285 1.415 . S
C2284 C2283 1.355 . S
C2284 C2286 1.419 . S
C2285 C2280 1.425 . S
C2285 C2282 1.409 . S
C2285 C2283 1.415 . S
C2286 H2276 0.930 . S
C2286 C2284 1.419 . S
C2286 C2287 1.362 . S
C2287 H2277 0.930 . S
C2287 C2280 1.409 . S
C2287 C2286 1.362 . S
H2288 C2294 0.930 . S
H2289 C2297 0.930 . S
H2290 C2298 0.930 . S
H2291 C2299 0.930 . S
H2292 C2302 0.930 . S
H2293 C2303 0.930 . S
C2294 H2288 0.930 . S
C2294 C2295 1.355 . S
C2294 C2296 1.415 . S
C2295 C2294 1.355 . S
C2295 C2297 1.419 . S
C2296 C2294 1.415 . S
C2296 C2301 1.425 . S
C2296 C2303 1.409 . S
C2297 H2289 0.930 . S
C2297 C2295 1.419 . S
C2297 C2298 1.362 . S
C2298 H2290 0.930 . S
C2298 C2297 1.362 . S
C2298 C2301 1.409 . S
C2299 H2291 0.930 . S
C2299 C2300 1.355 . S
C2299 C2301 1.415 . S
C2300 C2299 1.355 . S
C2300 C2302 1.419 . S
C2301 C2296 1.425 . S
C2301 C2298 1.409 . S
C2301 C2299 1.415 . S
C2302 H2292 0.930 . S
C2302 C2300 1.419 . S
C2302 C2303 1.362 . S
C2303 H2293 0.930 . S
C2303 C2296 1.409 . S
C2303 C2302 1.362 . S
H2304 C2310 0.930 . S
H2305 C2313 0.930 . S
H2306 C2314 0.930 . S
H2307 C2315 0.930 . S
H2308 C2318 0.930 . S
H2309 C2319 0.930 . S
C2310 H2304 0.930 . S
C2310 C2311 1.355 . S
C2310 C2312 1.415 . S
C2311 C2310 1.355 . S
C2311 C2313 1.419 . S
C2312 C2310 1.415 . S
C2312 C2317 1.425 . S
C2312 C2319 1.409 . S
C2313 H2305 0.930 . S
C2313 C2311 1.419 . S
C2313 C2314 1.362 . S
C2314 H2306 0.930 . S
C2314 C2313 1.362 . S
C2314 C2317 1.409 . S
C2315 H2307 0.930 . S
C2315 C2316 1.355 . S
C2315 C2317 1.415 . S
C2316 C2315 1.355 . S
C2316 C2318 1.419 . S
C2317 C2312 1.425 . S
C2317 C2314 1.409 . S
C2317 C2315 1.415 . S
C2318 H2308 0.930 . S
C2318 C2316 1.419 . S
C2318 C2319 1.362 . S
C2319 H2309 0.930 . S
C2319 C2312 1.409 . S
C2319 C2318 1.362 . S
H2320 C2326 0.930 . S
H2321 C2329 0.930 . S
H2322 C2330 0.930 . S
H2323 C2331 0.930 . S
H2324 C2334 0.930 . S
H2325 C2335 0.930 . S
C2326 H2320 0.930 . S
C2326 C2327 1.355 . S
C2326 C2328 1.415 . S
C2327 C2326 1.355 . S
C2327 C2329 1.419 . S
C2328 C2326 1.415 . S
C2328 C2333 1.425 . S
C2328 C2335 1.409 . S
C2329 H2321 0.930 . S
C2329 C2327 1.419 . S
C2329 C2330 1.362 . S
C2330 H2322 0.930 . S
C2330 C2329 1.362 . S
C2330 C2333 1.409 . S
C2331 H2323 0.930 . S
C2331 C2332 1.355 . S
C2331 C2333 1.415 . S
C2332 C2331 1.355 . S
C2332 C2334 1.419 . S
C2333 C2328 1.425 . S
C2333 C2330 1.409 . S
C2333 C2331 1.415 . S
C2334 H2324 0.930 . S
C2334 C2332 1.419 . S
C2334 C2335 1.362 . S
C2335 H2325 0.930 . S
C2335 C2328 1.409 . S
C2335 C2334 1.362 . S
H2336 C2342 0.930 1_556 S
H2337 C2345 0.930 . S
H2338 C2346 0.930 . S
H2339 C2347 0.930 . S
H2340 C2350 0.930 1_545 S
H2341 C2351 0.930 . S
C2342 H2336 0.930 1_554 S
C2342 C2343 1.355 . S
C2342 C2344 1.415 . S
C2343 C2342 1.355 . S
C2343 C2345 1.419 . S
C2344 C2342 1.415 . S
C2344 C2349 1.425 . S
C2344 C2351 1.409 1_554 S
C2345 H2337 0.930 . S
C2345 C2343 1.419 . S
C2345 C2346 1.362 . S
C2346 H2338 0.930 . S
C2346 C2345 1.362 . S
C2346 C2349 1.409 . S
C2347 H2339 0.930 . S
C2347 C2348 1.355 . S
C2347 C2349 1.415 . S
C2348 C2347 1.355 . S
C2348 C2350 1.419 1_554 S
C2349 C2344 1.425 . S
C2349 C2346 1.409 . S
C2349 C2347 1.415 . S
C2350 H2340 0.930 1_565 S
C2350 C2348 1.419 1_556 S
C2350 C2351 1.362 . S
C2351 H2341 0.930 . S
C2351 C2344 1.409 1_556 S
C2351 C2350 1.362 . S
H2352 C2358 0.930 . S
H2353 C2361 0.930 . S
H2354 C2362 0.930 . S
H2355 C2363 0.930 . S
H2356 C2366 0.930 . S
H2357 C2367 0.930 . S
C2358 H2352 0.930 . S
C2358 C2359 1.355 . S
C2358 C2360 1.415 . S
C2359 C2358 1.355 . S
C2359 C2361 1.419 . S
C2360 C2358 1.415 . S
C2360 C2365 1.425 . S
C2360 C2367 1.409 . S
C2361 H2353 0.930 . S
C2361 C2359 1.419 . S
C2361 C2362 1.362 . S
C2362 H2354 0.930 . S
C2362 C2361 1.362 . S
C2362 C2365 1.409 . S
C2363 H2355 0.930 . S
C2363 C2364 1.355 . S
C2363 C2365 1.415 . S
C2364 C2363 1.355 . S
C2364 C2366 1.419 . S
C2365 C2360 1.425 . S
C2365 C2362 1.409 . S
C2365 C2363 1.415 . S
C2366 H2356 0.930 . S
C2366 C2364 1.419 . S
C2366 C2367 1.362 . S
C2367 H2357 0.930 . S
C2367 C2360 1.409 . S
C2367 C2366 1.362 . S
H2368 C2374 0.930 . S
H2369 C2377 0.930 . S
H2370 C2378 0.930 . S
H2371 C2379 0.930 . S
H2372 C2382 0.930 . S
H2373 C2383 0.930 . S
C2374 H2368 0.930 . S
C2374 C2375 1.355 . S
C2374 C2376 1.415 . S
C2375 C2374 1.355 . S
C2375 C2377 1.419 1_554 S
C2376 C2374 1.415 . S
C2376 C2381 1.425 . S
C2376 C2383 1.409 . S
C2377 H2369 0.930 . S
C2377 C2375 1.419 1_556 S
C2377 C2378 1.362 . S
C2378 H2370 0.930 . S
C2378 C2377 1.362 . S
C2378 C2381 1.409 1_556 S
C2379 H2371 0.930 . S
C2379 C2380 1.355 . S
C2379 C2381 1.415 . S
C2380 C2379 1.355 . S
C2380 C2382 1.419 . S
C2381 C2376 1.425 . S
C2381 C2378 1.409 1_554 S
C2381 C2379 1.415 . S
C2382 H2372 0.930 . S
C2382 C2380 1.419 . S
C2382 C2383 1.362 . S
C2383 H2373 0.930 . S
C2383 C2376 1.409 . S
C2383 C2382 1.362 . S
H2384 C2390 0.930 . S
H2385 C2393 0.930 . S
H2386 C2394 0.930 . S
H2387 C2395 0.930 . S
H2388 C2398 0.930 . S
H2389 C2399 0.930 . S
C2390 H2384 0.930 . S
C2390 C2391 1.355 . S
C2390 C2392 1.415 . S
C2391 C2390 1.355 . S
C2391 C2393 1.419 . S
C2392 C2390 1.415 . S
C2392 C2397 1.425 . S
C2392 C2399 1.409 . S
C2393 H2385 0.930 . S
C2393 C2391 1.419 . S
C2393 C2394 1.362 . S
C2394 H2386 0.930 . S
C2394 C2393 1.362 . S
C2394 C2397 1.409 . S
C2395 H2387 0.930 . S
C2395 C2396 1.355 . S
C2395 C2397 1.415 . S
C2396 C2395 1.355 . S
C2396 C2398 1.419 . S
C2397 C2392 1.425 . S
C2397 C2394 1.409 . S
C2397 C2395 1.415 . S
C2398 H2388 0.930 . S
C2398 C2396 1.419 . S
C2398 C2399 1.362 . S
C2399 H2389 0.930 . S
C2399 C2392 1.409 . S
C2399 C2398 1.362 . S
H2400 C2406 0.930 . S
H2401 C2409 0.930 . S
H2402 C2410 0.930 . S
H2403 C2411 0.930 . S
H2404 C2414 0.930 . S
H2405 C2415 0.930 . S
C2406 H2400 0.930 . S
C2406 C2407 1.355 . S
C2406 C2408 1.415 . S
C2407 C2406 1.355 . S
C2407 C2409 1.419 . S
C2408 C2406 1.415 . S
C2408 C2413 1.425 . S
C2408 C2415 1.409 . S
C2409 H2401 0.930 . S
C2409 C2407 1.419 . S
C2409 C2410 1.362 . S
C2410 H2402 0.930 . S
C2410 C2409 1.362 . S
C2410 C2413 1.409 . S
C2411 H2403 0.930 . S
C2411 C2412 1.355 . S
C2411 C2413 1.415 . S
C2412 C2411 1.355 . S
C2412 C2414 1.419 . S
C2413 C2408 1.425 . S
C2413 C2410 1.409 . S
C2413 C2411 1.415 . S
C2414 H2404 0.930 . S
C2414 C2412 1.419 . S
C2414 C2415 1.362 . S
C2415 H2405 0.930 . S
C2415 C2408 1.409 . S
C2415 C2414 1.362 . S
C892 C353 1.077 . S
C887 C4 1.054 . S
C903 C19 1.480 . S
C908 C399 1.795 . S
C919 C39 0.833 . S
C924 C408 0.883 . S
C940 C446 1.570 . S
C935 C54 1.621 . S
C951 C18 1.505 . S
C956 C480 1.564 . S
C972 C510 0.857 . S
C967 C40 0.845 . S
C988 C569 1.560 . S
C983 C53 1.526 . S
C999 C5 0.917 . S
C1004 C582 1.038 . S
C1015 C61 1.012 . S
C1020 C365 1.280 . S
C1031 C74 1.165 . S
C1036 C383 1.217 . S
C1052 C404 1.540 . S
C1047 C89 1.263 . S
C1068 C442 0.838 . S
C1063 C109 0.872 . S
C1079 C68 1.216 . S
C1084 C476 1.175 . S
C1100 C506 1.606 . S
C1095 C81 1.602 . S
C1116 C553 1.216 . S
C1111 C96 1.214 . S
C1132 C578 0.821 . S
C1127 C102 0.814 . S
C1148 C349 0.761 1_556 S
C1143 C103 0.861 . S
C1164 C608 1.592 . S
C1159 C117 1.451 . S
C1175 C130 1.407 . S
C1180 C650 1.479 . S
C1196 C693 0.563 . S
C1191 C152 0.551 . S
C1207 C60 1.359 . S
C1212 C574 1.391 . S
C1228 C412 1.503 . S
C1223 C82 1.495 . S
C1239 C137 1.321 . S
C1244 C710 1.306 . S
C1260 C761 1.522 . S
C1255 C165 1.481 . S
C1271 C172 1.069 1_455 S
C1276 C344 1.017 1_556 S
C1292 C744 1.894 . S
C1287 C194 1.909 . S
C1303 C207 0.825 . S
C1308 C417 0.827 . S
C1319 C215 1.499 . S
C1324 C727 1.656 . S
C1340 C489 1.612 . S
C1335 C186 1.630 . S
C1356 C655 0.893 . S
C1351 C201 0.756 . S
C1372 C540 1.575 . S
C1367 C221 1.575 . S
C1388 C795 1.041 . S
C1383 C180 1.047 . S
C1404 C336 1.284 1_655 S
C1399 C236 1.327 . S
C1415 C242 1.322 . S
C1420 C748 1.266 . S
C1436 C433 1.631 . S
C1431 C264 1.678 . S
C1447 C277 0.923 . S
C1452 C723 0.953 . S
C1463 C229 1.079 . S
C1468 C485 1.150 . S
C1479 C249 1.554 . S
C1484 C671 1.560 . S
C1500 C544 1.201 . S
C1495 C257 1.181 . S
C1511 C270 0.801 . S
C1516 C791 0.756 . S
C1527 C278 0.784 . S
C1532 C340 0.780 . S
C1543 C292 1.639 . S
C1548 C637 1.656 . S
C1559 C298 1.639 . S
C1564 C523 1.585 . S
C1575 C313 0.693 . S
C1580 C684 0.566 . S
C1596 C807 1.408 . S
C1591 C228 1.455 . S
C1612 C421 1.510 . S
C1607 C243 1.369 . S
C1628 C467 1.317 . S
C1623 C305 1.321 . S
C1644 C378 1.485 . S
C1639 C333 1.490 . S
C1655 C32 0.931 . S
C1660 C829 1.001 . S
C1676 C773 1.791 . S
C1671 C47 1.479 . S
C1692 C850 0.849 . S
C1687 C11 0.849 . S
C1703 C26 1.618 . S
C1708 C718 1.574 . S
C1719 C46 1.500 . S
C1724 C616 1.557 1_556 S
C1740 C646 0.872 . S
C1735 C12 0.879 . S
C1756 C705 1.521 . S
C1751 C25 1.522 . S
C1772 C786 0.981 . S
C1767 C33 0.750 . S
C1788 C841 1.288 . S
C1783 C159 1.081 . S
C1799 C116 1.224 . S
C1804 C757 1.259 . S
C1815 C131 1.240 . S
C1820 C846 1.531 1_655 S
C1836 C714 0.869 . S
C1831 C151 0.893 . S
C1852 C612 1.172 . S
C1847 C166 1.216 . S
C1863 C123 1.604 . S
C1868 C642 1.576 . S
C1884 C689 1.190 . S
C1879 C138 1.200 . S
C1895 C144 0.809 . S
C1900 C782 0.817 . S
C1916 C825 0.649 . S
C1911 C145 0.615 . S
C1932 C472 1.580 1_565 S
C1927 C75 1.338 . S
C1948 C514 1.490 . S
C1943 C88 1.405 . S
C1959 C110 0.482 . S
C1964 C557 0.547 . S
C1980 C778 1.372 . S
C1975 C158 1.313 . S
C1991 C124 1.494 . S
C1996 C854 1.466 . S
C2012 C438 1.326 . S
C2007 C95 1.258 . S
C2028 C387 1.523 . S
C2023 C67 1.476 . S
C2039 C200 1.002 . S
C2044 C820 1.038 . S
C2060 C370 1.903 . S
C2055 C222 1.907 . S
C2076 C859 0.850 . S
C2071 C179 0.845 . S
C2087 C187 1.416 . S
C2092 C455 1.655 . S
C2103 C214 1.626 . S
C2108 C625 1.652 . S
C2119 C173 0.836 . S
C2124 C519 0.863 . S
C2135 C193 1.553 . S
C2140 C676 1.558 . S
C2151 C208 0.936 . S
C2156 C591 0.941 . S
C2172 C812 1.314 . S
C2167 C334 1.346 . S
C2183 C284 1.314 . S
C2188 C374 1.297 . S
C2204 C875 1.628 . S
C2199 C306 1.676 . S
C2215 C319 1.014 . S
C2220 C451 1.021 . S
C2231 C327 1.130 . S
C2236 C621 1.120 . S
C2252 C535 1.582 . S
C2247 C291 1.561 . S
C2263 C299 1.122 . S
C2268 C680 1.168 . S
C2284 C587 0.786 . S
C2279 C312 0.753 . S
C2300 C816 0.780 . S
C2295 C320 0.783 . S
C2316 C501 1.641 . S
C2311 C250 1.625 . S
C2327 C256 1.636 . S
C2332 C659 1.615 . S
C2348 C548 0.621 1_565 S
C2343 C271 0.538 . S
C2364 C603 1.430 . S
C2359 C326 1.449 . S
C2375 C285 1.366 1_554 S
C2380 C863 1.495 . S
C2396 C739 1.318 . S
C2391 C263 1.321 . S
C2412 C752 1.514 . S
C2407 C235 1.513 . S
