# Generated by pormake.
# Topology pyr, (3,6)-cn, num edge types: 1
# Building blocks:
#     Node 0, Type 0, BuildingBlock: OLANEW_clean_sbu_2, # of connection points: 3
#     Node 1, Type 0, BuildingBlock: OLANEW_clean_sbu_2, # of connection points: 3
#     Node 2, Type 0, BuildingBlock: OLANEW_clean_sbu_2, # of connection points: 3
#     Node 3, Type 0, BuildingBlock: OLANEW_clean_sbu_2, # of connection points: 3
#     Node 4, Type 0, BuildingBlock: OLANEW_clean_sbu_2, # of connection points: 3
#     Node 5, Type 0, BuildingBlock: OLANEW_clean_sbu_2, # of connection points: 3
#     Node 6, Type 0, BuildingBlock: OLANEW_clean_sbu_2, # of connection points: 3
#     Node 7, Type 0, BuildingBlock: OLANEW_clean_sbu_2, # of connection points: 3
#     Node 8, Type 1, BuildingBlock: BETDAH_clean_sbu_0, # of connection points: 6
#     Node 9, Type 1, BuildingBlock: BETDAH_clean_sbu_0, # of connection points: 6
#     Node 10, Type 1, BuildingBlock: BETDAH_clean_sbu_0, # of connection points: 6
#     Node 11, Type 1, BuildingBlock: BETDAH_clean_sbu_0, # of connection points: 6
#     Edge 12, Type (0, 1), BuildingBlock: OJICUG_clean_linker_0, # of connection points: 2
#     Edge 13, Type (0, 1), BuildingBlock: OJICUG_clean_linker_0, # of connection points: 2
#     Edge 14, Type (0, 1), BuildingBlock: OJICUG_clean_linker_0, # of connection points: 2
#     Edge 15, Type (0, 1), BuildingBlock: OJICUG_clean_linker_0, # of connection points: 2
#     Edge 16, Type (0, 1), BuildingBlock: OJICUG_clean_linker_0, # of connection points: 2
#     Edge 17, Type (0, 1), BuildingBlock: OJICUG_clean_linker_0, # of connection points: 2
#     Edge 18, Type (0, 1), BuildingBlock: OJICUG_clean_linker_0, # of connection points: 2
#     Edge 19, Type (0, 1), BuildingBlock: OJICUG_clean_linker_0, # of connection points: 2
#     Edge 20, Type (0, 1), BuildingBlock: OJICUG_clean_linker_0, # of connection points: 2
#     Edge 21, Type (0, 1), BuildingBlock: OJICUG_clean_linker_0, # of connection points: 2
#     Edge 22, Type (0, 1), BuildingBlock: OJICUG_clean_linker_0, # of connection points: 2
#     Edge 23, Type (0, 1), BuildingBlock: OJICUG_clean_linker_0, # of connection points: 2
#     Edge 24, Type (0, 1), BuildingBlock: OJICUG_clean_linker_0, # of connection points: 2
#     Edge 25, Type (0, 1), BuildingBlock: OJICUG_clean_linker_0, # of connection points: 2
#     Edge 26, Type (0, 1), BuildingBlock: OJICUG_clean_linker_0, # of connection points: 2
#     Edge 27, Type (0, 1), BuildingBlock: OJICUG_clean_linker_0, # of connection points: 2
#     Edge 28, Type (0, 1), BuildingBlock: OJICUG_clean_linker_0, # of connection points: 2
#     Edge 29, Type (0, 1), BuildingBlock: OJICUG_clean_linker_0, # of connection points: 2
#     Edge 30, Type (0, 1), BuildingBlock: OJICUG_clean_linker_0, # of connection points: 2
#     Edge 31, Type (0, 1), BuildingBlock: OJICUG_clean_linker_0, # of connection points: 2
#     Edge 32, Type (0, 1), BuildingBlock: OJICUG_clean_linker_0, # of connection points: 2
#     Edge 33, Type (0, 1), BuildingBlock: OJICUG_clean_linker_0, # of connection points: 2
#     Edge 34, Type (0, 1), BuildingBlock: OJICUG_clean_linker_0, # of connection points: 2
#     Edge 35, Type (0, 1), BuildingBlock: OJICUG_clean_linker_0, # of connection points: 2
# Relax obj value: 0.187
# Max RMSD: 0.177
# Mean RMSD: 0.124
data_MOF--net-pyr--node1-OLANEW_clean_sbu_2--node2-BETDAH_clean_sbu_0--edge1-OJICUG_clean_linker_0
_symmetry_space_group_name_H-M    P1
_symmetry_Int_Tables_number       1
_symmetry_cell_setting            triclinic
loop_
_symmetry_equiv_pos_as_xyz
'x, y, z'
_cell_length_a     30.916348
_cell_length_b     33.68775
_cell_length_c     29.363783
_cell_angle_alpha  95.172138
_cell_angle_beta   87.795236
_cell_angle_gamma 104.82867
loop_
_atom_site_label
_atom_site_type_symbol
_atom_site_fract_x
_atom_site_fract_y
_atom_site_fract_z
_atom_type_partial_charge
O0 O 0.4107 0.30444 0.18051 0.0
Cd1 Cd 0.40613 0.37196 0.21716 0.0
O2 O 0.41864 0.30134 0.25319 0.0
Cd3 Cd 0.41945 0.27102 0.31477 0.0
O4 O 0.37959 0.24873 0.37338 0.0
C5 C 0.35539 0.27123 0.39186 0.0
O6 O 0.35812 0.3072 0.37637 0.0
C7 C 0.41688 0.28401 0.21286 0.0
C8 C 0.32945 0.39816 0.20309 0.0
O9 O 0.36636 0.41306 0.18209 0.0
O10 O 0.32825 0.37003 0.23005 0.0
O11 O 0.24967 0.91911 0.7075 0.0
Cd12 Cd 0.22052 0.8821 0.63565 0.0
O13 O 0.23687 0.86076 0.74065 0.0
Cd14 Cd 0.17955 0.83531 0.69769 0.0
O15 O 0.1412 0.87383 0.67322 0.0
C16 C 0.14055 0.90622 0.69871 0.0
O17 O 0.15675 0.91101 0.74011 0.0
C18 C 0.25616 0.89893 0.74013 0.0
C19 C 0.27976 0.83387 0.617 0.0
O20 O 0.28504 0.8672 0.59722 0.0
O21 O 0.24495 0.82209 0.64219 0.0
O22 O 0.74866 0.45172 0.9011 0.0
Cd23 Cd 0.67631 0.43641 0.85533 0.0
O24 O 0.7455 0.3999 0.94519 0.0
Cd25 Cd 0.6877 0.34399 0.94623 0.0
O26 O 0.64481 0.28313 0.96601 0.0
C27 C 0.62747 0.27992 1.00609 0.0
O28 O 0.63497 0.31284 0.03516 0.0
C29 C 0.76595 0.43482 0.93101 0.0
C30 C 0.65139 0.48105 0.78522 0.0
O31 O 0.64912 0.49288 0.82783 0.0
O32 O 0.66804 0.45011 0.77514 0.0
O33 O 0.94526 0.80425 0.39893 0.0
Cd34 Cd 0.91278 0.73862 0.34891 0.0
O35 O 0.8972 0.78464 0.45532 0.0
Cd36 Cd 0.85676 0.7248 0.42804 0.0
O37 O 0.79254 0.68428 0.44779 0.0
C38 C 0.78386 0.68943 0.49025 0.0
O39 O 0.81374 0.71588 0.51598 0.0
C40 C 0.92954 0.81133 0.43902 0.0
C41 C 0.95227 0.69428 0.2784 0.0
O42 O 0.93776 0.7252 0.26976 0.0
O43 O 0.95133 0.68623 0.32039 0.0
O44 O 0.65955 0.75475 0.78491 0.0
Cd45 Cd 0.62304 0.69932 0.83065 0.0
O46 O 0.64785 0.79486 0.84394 0.0
Cd47 Cd 0.6521 0.84886 0.89198 0.0
O48 O 0.63236 0.8962 0.93682 0.0
C49 C 0.59544 0.90397 0.9287 0.0
O50 O 0.57198 0.88393 0.89358 0.0
C51 C 0.66669 0.79065 0.80514 0.0
C52 C 0.69429 0.68383 0.87471 0.0
O53 O 0.68087 0.66502 0.83593 0.0
O54 O 0.6725 0.70861 0.89394 0.0
O55 O 0.76607 0.23317 0.48864 0.0
Cd56 Cd 0.82501 0.2546 0.54454 0.0
O57 O 0.81926 0.24412 0.43609 0.0
Cd58 Cd 0.85326 0.29523 0.48289 0.0
O59 O 0.814 0.34005 0.50073 0.0
C60 C 0.78055 0.33273 0.52819 0.0
O61 O 0.77268 0.30013 0.55143 0.0
C62 C 0.77885 0.22831 0.44745 0.0
C63 C 0.8577 0.18707 0.55126 0.0
O64 O 0.82631 0.1942 0.57799 0.0
O65 O 0.87469 0.21292 0.52192 0.0
O66 O 0.43898 0.83971 0.27277 0.0
Cd67 Cd 0.42709 0.76535 0.29811 0.0
O68 O 0.38291 0.82965 0.2241 0.0
Cd69 Cd 0.34258 0.76558 0.22554 0.0
O70 O 0.28335 0.71737 0.20017 0.0
C71 C 0.26776 0.72324 0.16253 0.0
O72 O 0.28826 0.75609 0.14186 0.0
C73 C 0.41736 0.85337 0.24354 0.0
C74 C 0.45479 0.72377 0.37033 0.0
O75 O 0.48121 0.73623 0.3368 0.0
O76 O 0.41711 0.73336 0.37197 0.0
O77 O 0.17274 0.47988 0.80902 0.0
Cd78 Cd 0.20122 0.45141 0.73505 0.0
O79 O 0.12063 0.42474 0.82794 0.0
Cd80 Cd 0.12777 0.37418 0.7767 0.0
O81 O 0.11465 0.31259 0.7379 0.0
C82 C 0.09531 0.28018 0.75734 0.0
O83 O 0.08392 0.28386 0.80078 0.0
C84 C 0.14083 0.4628 0.83556 0.0
C85 C 0.2853 0.48577 0.69254 0.0
O86 O 0.25446 0.5051 0.69599 0.0
O87 O 0.27778 0.45145 0.71075 0.0
Ho88 Ho 0.03727 0.06241 0.56279 0.0
Ho89 Ho 0.97942 1.02669 0.64251 0.0
C90 C 0.04437 0.12002 0.65442 0.0
C91 C 0.07545 0.09587 0.49225 0.0
C92 C 0.11637 0.129 0.49033 0.0
C93 C 0.11908 0.16036 0.46148 0.0
C94 C 0.15899 0.19071 0.45776 0.0
C95 C 0.19651 0.18979 0.48289 0.0
C96 C 0.19242 0.16029 0.51458 0.0
C97 C 0.15258 0.13015 0.51838 0.0
C98 C 0.07882 0.0316 0.62507 0.0
C99 C 0.9767 0.96874 0.54918 0.0
C100 C 0.94309 1.0004 0.71809 0.0
C101 C 0.9007 0.97177 0.73076 0.0
C102 C 0.90042 0.93174 0.74044 0.0
C103 C 0.86035 0.90383 0.75075 0.0
C104 C 0.81973 0.91545 0.75173 0.0
C105 C 0.8201 0.95586 0.74335 0.0
C106 C 0.86024 0.98382 0.73294 0.0
C107 C 0.93646 0.05702 0.58156 0.0
O108 O 0.04922 0.11936 0.60971 0.0
O109 O 0.02457 0.08627 0.67475 0.0
O110 O 0.08065 0.06077 0.50391 0.0
O111 O 0.04149 0.10662 0.51296 0.0
O112 O 0.09873 0.0625 0.60232 0.0
O113 O 0.04024 1.01711 0.6102 0.0
O114 O 0.96999 0.96932 0.59416 0.0
O115 O 0.99536 1.00282 0.52912 0.0
O116 O 0.93999 0.03485 0.70295 0.0
O117 O 0.97223 0.98415 0.69477 0.0
O118 O 0.91794 1.02518 0.60366 0.0
O119 O 0.97567 0.07204 0.59533 0.0
H120 H 0.09092 0.16053 0.44071 0.0
H121 H 0.16134 0.21316 0.433 0.0
H122 H 0.22074 0.15937 0.53473 0.0
H123 H 0.15075 0.10696 0.54209 0.0
H124 H 0.93119 0.92188 0.7397 0.0
H125 H 0.86121 0.87312 0.75814 0.0
H126 H 0.78929 0.96561 0.74385 0.0
H127 H 0.85936 1.01466 0.72609 0.0
Ho128 Ho 0.53268 0.08313 0.13703 0.0
Ho129 Ho 0.4475 0.06012 0.08766 0.0
C130 C 0.45248 0.12549 0.16915 0.0
C131 C 0.60833 0.12594 0.16728 0.0
C132 C 0.62502 0.13909 0.21343 0.0
C133 C 0.64676 0.18058 0.22407 0.0
C134 C 0.66426 0.19359 0.26738 0.0
C135 C 0.66028 0.1651 0.30014 0.0
C136 C 0.63663 0.12405 0.29046 0.0
C137 C 0.6186 0.1111 0.24731 0.0
C138 C 0.48131 1.01958 0.18142 0.0
C139 C 0.52678 1.01859 0.04998 0.0
C140 C 0.37558 1.02712 0.04245 0.0
C141 C 0.36572 1.00951 0.99528 0.0
C142 C 0.34384 0.96774 0.98746 0.0
C143 C 0.33219 0.95071 0.94333 0.0
C144 C 0.34222 0.97521 0.90616 0.0
C145 C 0.36511 1.01691 0.91383 0.0
C146 C 0.37682 0.03396 0.95805 0.0
C147 C 0.50713 0.12892 0.06162 0.0
O148 O 0.49596 0.1296 0.16605 0.0
O149 O 0.42442 0.09344 0.14869 0.0
O150 O 0.60058 0.08648 0.1546 0.0
O151 O 0.57687 0.14248 0.15568 0.0
O152 O 0.52046 0.04135 0.19356 0.0
O153 O 0.46893 0.03436 0.14717 0.0
O154 O 0.48493 1.02025 0.04574 0.0
O155 O 0.55327 0.04222 0.08114 0.0
O156 O 0.39304 0.06674 0.04801 0.0
O157 O 0.39411 1.00646 0.06801 0.0
O158 O 0.46498 0.12592 0.06828 0.0
O159 O 0.51557 0.09554 0.06908 0.0
H160 H 0.65113 0.20264 0.19853 0.0
H161 H 0.68289 0.22536 0.27459 0.0
H162 H 0.63366 0.10184 0.31563 0.0
H163 H 0.60088 0.07909 0.24014 0.0
H164 H 0.33493 0.9484 1.01566 0.0
H165 H 0.31387 0.91864 0.93863 0.0
H166 H 0.37361 0.03641 0.88575 0.0
H167 H 0.39401 0.06633 0.963 0.0
Ho168 Ho 0.52905 0.54939 0.545 0.0
Ho169 Ho 0.52924 0.62015 0.60966 0.0
C170 C 0.56909 0.55271 0.64738 0.0
C171 C 0.54806 0.48743 0.4982 0.0
C172 C 0.5816 0.46484 0.50543 0.0
C173 C 0.62409 0.48592 0.52192 0.0
C174 C 0.65582 0.46437 0.52878 0.0
C175 C 0.6454 0.42143 0.51989 0.0
C176 C 0.60234 0.40012 0.50515 0.0
C177 C 0.57064 0.4218 0.49777 0.0
C178 C 0.44825 0.54583 0.5871 0.0
C179 C 0.49893 0.62176 0.50477 0.0
C180 C 0.50837 0.68088 0.65639 0.0
C181 C 0.4784 0.70571 0.64531 0.0
C182 C 0.44147 0.68853 0.617 0.0
C183 C 0.41298 0.71237 0.60667 0.0
C184 C 0.42091 0.75339 0.62493 0.0
C185 C 0.45862 0.77092 0.6519 0.0
C186 C 0.48747 0.74721 0.66175 0.0
C187 C 0.61064 0.6228 0.5722 0.0
O188 O 0.57009 0.53896 0.60369 0.0
O189 O 0.54954 0.58255 0.66024 0.0
O190 O 0.51576 0.48349 0.52865 0.0
O191 O 0.56364 0.52547 0.48796 0.0
O192 O 0.45352 0.53445 0.5443 0.0
O193 O 0.48605 0.55752 0.60552 0.0
O194 O 0.49381 0.63358 0.54834 0.0
O195 O 0.51675 0.59058 0.49312 0.0
O196 O 0.54448 0.68522 0.63084 0.0
O197 O 0.48917 0.6424 0.66275 0.0
O198 O 0.60341 0.63421 0.61449 0.0
O199 O 0.5741 0.61179 0.55091 0.0
H200 H 0.63292 0.51908 0.52925 0.0
H201 H 0.68863 0.48125 0.54087 0.0
H202 H 0.59367 0.36693 0.49814 0.0
H203 H 0.53773 0.40507 0.48585 0.0
H204 H 0.43404 0.65651 0.60373 0.0
H205 H 0.38365 0.69829 0.58633 0.0
H206 H 0.465 0.80259 0.66631 0.0
H207 H 0.51628 0.76097 0.68291 0.0
Ho208 Ho 0.02884 0.52922 0.06995 0.0
Ho209 Ho 0.01782 0.60724 1.02455 0.0
C210 C 0.10394 0.61817 0.0847 0.0
C211 C 0.06466 0.46976 0.08116 0.0
C212 C 0.10291 0.46456 0.10695 0.0
C213 C 0.14637 0.47475 0.08776 0.0
C214 C 0.18226 0.46754 0.11 0.0
C215 C 0.17576 0.44961 0.15184 0.0
C216 C 0.13254 0.4399 0.1716 0.0
C217 C 0.09643 0.44746 0.1494 0.0
C218 C 0.99806 0.58036 0.13358 0.0
C219 C 0.9376 0.52106 1.01515 0.0
C220 C 0.98737 0.66511 0.99701 0.0
C221 C 0.9436 0.66799 0.98151 0.0
C222 C 0.90497 0.65894 1.00958 0.0
C223 C 0.86382 0.66133 0.99345 0.0
C224 C 0.86053 0.67227 0.94892 0.0
C225 C 0.89918 0.68131 0.92104 0.0
C226 C 0.94032 0.67936 0.93729 0.0
C227 C 0.06705 0.56119 0.9769 0.0
O228 O 0.09401 0.57748 0.08566 0.0
O229 O 0.07754 0.63752 0.06644 0.0
O230 O 0.02885 0.47467 0.10422 0.0
O231 O 0.07532 0.49375 0.04761 0.0
O232 O 0.00461 0.5451 0.14184 0.0
O233 O 0.00668 0.5845 0.09168 0.0
O234 O 0.95149 0.56114 1.01032 0.0
O235 O 0.96188 0.50092 0.03616 0.0
O236 O 0.00773 0.64245 0.96984 0.0
O237 O 0.9905 0.65979 0.04025 0.0
O238 O 0.07591 0.60112 0.97798 0.0
O239 O 0.0315 0.548 0.99979 0.0
H240 H 0.15273 0.48751 0.05487 0.0
H241 H 0.21496 0.47459 0.09346 0.0
H242 H 0.12662 0.42606 0.2039 0.0
H243 H 0.06337 0.43916 0.16498 0.0
H244 H 0.90638 0.64976 0.04379 0.0
H245 H 0.83441 0.65387 1.01544 0.0
H246 H 0.89766 0.69022 0.88673 0.0
H247 H 0.96965 0.6865 0.91514 0.0
C248 C 0.28692 0.27545 0.43819 0.0
C249 C 0.31935 0.25405 0.42422 0.0
H250 H 0.2221 0.27174 0.46895 0.0
C251 C 0.31411 0.21393 0.43697 0.0
H252 H 0.29034 0.30662 0.42931 0.0
C253 C 0.27534 0.19423 0.45964 0.0
C254 C 0.24112 0.2143 0.4699 0.0
H255 H 0.33865 0.19674 0.42701 0.0
H256 H 0.27079 0.16221 0.46593 0.0
C257 C 0.24792 0.2556 0.46079 0.0
C258 C 0.30472 0.89822 0.80521 0.0
C259 C 0.28327 0.92014 0.7791 0.0
H260 H 0.34208 0.89921 0.86515 0.0
C261 C 0.2853 0.96161 0.79241 0.0
H262 H 0.3041 0.86634 0.79511 0.0
C263 C 0.30621 0.98018 0.8329 0.0
C264 C 0.32591 0.95767 0.86025 0.0
H265 H 0.26873 0.97901 0.77283 0.0
H266 H 0.30493 1.01144 0.84385 0.0
C267 C 0.32626 0.91697 0.84525 0.0
C268 C 0.61792 0.53675 0.76018 0.0
C269 C 0.63281 0.50081 0.74916 0.0
H270 H 0.58661 0.58124 0.73725 0.0
C271 C 0.62736 0.48267 0.70386 0.0
H272 H 0.62152 0.55173 0.79453 0.0
C273 C 0.60713 0.4996 0.67088 0.0
C274 C 0.59159 0.53516 0.68217 0.0
H275 H 0.63799 0.45484 0.69399 0.0
H276 H 0.6031 0.48438 0.63663 0.0
C277 C 0.59767 0.55365 0.72723 0.0
C278 C 0.97416 0.62902 0.25064 0.0
C279 C 0.96646 0.66675 0.24093 0.0
H280 H 0.9894 0.57262 0.22463 0.0
C281 C 0.96972 0.67627 0.1949 0.0
H282 H 0.97171 0.62028 0.28543 0.0
C283 C 0.98012 0.64867 0.15971 0.0
C284 C 0.98701 0.6107 0.16959 0.0
H285 H 0.96389 0.70495 0.18598 0.0
H286 H 0.98238 0.65695 0.12491 0.0
C287 C 0.98408 0.60146 0.21556 0.0
C288 C 0.45165 0.2282 0.23085 0.0
C289 C 0.42212 0.24155 0.20424 0.0
H290 H 0.48407 0.18057 0.24076 0.0
C291 C 0.39946 0.21464 0.16852 0.0
H292 H 0.4705 0.24866 0.25778 0.0
C293 C 0.40649 0.17517 0.15949 0.0
C294 C 0.43714 0.16242 0.18534 0.0
H295 H 0.37681 0.22431 0.14725 0.0
H296 H 0.38994 0.15561 0.13063 0.0
C297 C 0.45942 0.18923 0.22119 0.0
C298 C 0.12017 0.93846 0.63273 0.0
C299 C 0.12725 0.94014 0.67986 0.0
H300 H 0.10046 0.96772 0.57829 0.0
C301 C 0.12309 0.97499 0.70818 0.0
H302 H 0.12368 0.91227 0.60997 0.0
C303 C 0.1102 1.0069 0.68975 0.0
C304 C 0.10216 1.00435 0.64294 0.0
H305 H 0.12867 0.97714 0.7446 0.0
H306 H 0.10473 0.0326 0.71216 0.0
C307 C 0.10769 0.97037 0.61444 0.0
C308 C 0.83159 0.43692 0.98154 0.0
C309 C 0.81057 0.45649 0.95153 0.0
H310 H 0.88754 0.44131 1.02486 0.0
C311 C 0.83218 0.49719 0.94264 0.0
H312 H 0.81628 0.40556 0.98938 0.0
C313 C 0.87291 0.5178 0.96349 0.0
C314 C 0.89381 0.49838 0.9937 0.0
H315 H 0.8174 0.51344 0.91988 0.0
H316 H 0.88812 0.54917 0.9556 0.0
C317 C 0.87264 0.45745 1.00208 0.0
C318 C 0.73318 0.67432 0.55794 0.0
C319 C 0.74018 0.66865 0.51054 0.0
H320 H 0.68725 0.66381 0.61423 0.0
C321 C 0.70463 0.64493 0.48338 0.0
H322 H 0.75975 0.69219 0.57998 0.0
C323 C 0.66244 0.62869 0.50326 0.0
C324 C 0.65541 0.63577 0.55054 0.0
H325 H 0.70904 0.63987 0.44675 0.0
H326 H 0.63522 0.61146 0.48163 0.0
C327 C 0.69147 0.65796 0.57766 0.0
C328 C 0.24637 0.38584 0.19757 0.0
C329 C 0.28932 0.41269 0.19564 0.0
H330 H 0.1765 0.37652 0.18474 0.0
C331 C 0.2939 0.45323 0.18455 0.0
H332 H 0.24199 0.35441 0.20605 0.0
C333 C 0.25646 0.46608 0.17323 0.0
C334 C 0.21377 0.43848 0.17223 0.0
H335 H 0.32657 0.47479 0.18381 0.0
H336 H 0.26108 0.49725 0.16373 0.0
C337 C 0.2089 0.39857 0.1857 0.0
C338 C 0.60072 0.20184 0.9994 0.0
C339 C 0.59767 0.24046 1.02007 0.0
H340 H 0.57534 0.13581 0.99759 0.0
C341 C 0.56578 0.24145 0.05539 0.0
H342 H 0.62506 0.19997 0.97229 0.0
C343 C 0.53685 0.20508 0.06886 0.0
C344 C 0.53995 0.16664 0.04846 0.0
H345 H 0.5625 0.27055 0.07214 0.0
H346 H 0.51203 0.20701 0.0955 0.0
C347 C 0.57257 0.16517 1.01406 0.0
C348 C 0.9662 0.88809 0.4469 0.0
C349 C 0.94569 0.85144 0.46699 0.0
H350 H 0.99129 0.95382 0.45665 0.0
C351 C 0.9363 0.85386 0.5144 0.0
H352 H 0.97349 0.88751 0.41052 0.0
C353 C 0.94627 0.89171 0.54082 0.0
C354 C 0.96564 0.92853 0.52067 0.0
H355 H 0.92061 0.82634 0.53123 0.0
H356 H 0.9384 0.89203 0.57709 0.0
C357 C 0.97591 0.92618 0.47339 0.0
C358 C 0.33843 0.8037 0.57705 0.0
C359 C 0.31591 0.81321 0.61731 0.0
H360 H 0.38962 0.77585 0.54782 0.0
C361 C 0.32924 0.80447 0.65957 0.0
H362 H 0.32863 0.81057 0.54422 0.0
C363 C 0.36458 0.78631 0.66175 0.0
C364 C 0.38642 0.77572 0.62161 0.0
H365 H 0.3127 0.81229 0.69108 0.0
H366 H 0.37423 0.77963 0.69475 0.0
C367 C 0.37313 0.78419 0.57911 0.0
C368 C 0.70669 0.86582 0.80312 0.0
C369 C 0.70131 0.82446 0.78649 0.0
H370 H 0.74898 0.92722 0.80588 0.0
C371 C 0.73252 0.81448 0.75428 0.0
H372 H 0.68227 0.87506 0.82598 0.0
C373 C 0.77002 0.84445 0.7418 0.0
C374 C 0.77728 0.88511 0.76126 0.0
H375 H 0.72919 0.78304 0.74012 0.0
H376 H 0.79396 0.83551 0.71771 0.0
C377 C 0.74456 0.89591 0.79086 0.0
C378 C 0.70345 0.21536 0.41424 0.0
C379 C 0.74634 0.20817 0.4125 0.0
H380 H 0.64204 0.20747 0.37855 0.0
C381 C 0.75894 0.18406 0.37555 0.0
H382 H 0.69342 0.23433 0.44239 0.0
C383 C 0.72937 0.16808 0.34008 0.0
C384 C 0.68744 0.17683 0.34086 0.0
H385 H 0.79185 0.1782 0.37379 0.0
H386 H 0.73986 0.1503 0.31109 0.0
C387 C 0.67423 0.20017 0.37809 0.0
C388 C 0.43469 0.68023 0.43819 0.0
C389 C 0.46634 0.69755 0.40485 0.0
H390 H 0.42004 0.64302 0.49557 0.0
C391 C 0.50839 0.68824 0.40402 0.0
H392 H 0.40177 0.68601 0.43976 0.0
C393 C 0.51838 0.66263 0.43545 0.0
C394 C 0.48689 0.64596 0.46903 0.0
H395 H 0.53376 0.70084 0.37911 0.0
H396 H 0.55128 0.65673 0.43427 0.0
C397 C 0.44501 0.65527 0.4701 0.0
C398 C 0.14207 0.53064 0.88115 0.0
C399 C 0.12467 0.48768 0.87439 0.0
H400 H 0.13784 0.58723 0.9188 0.0
C401 C 0.0896 0.46889 0.90374 0.0
H402 H 0.16891 0.54635 0.85938 0.0
C403 C 0.07164 0.49243 0.93776 0.0
C404 C 0.0883 0.53544 0.94359 0.0
H405 H 0.07523 0.43592 0.89986 0.0
H406 H 0.04396 0.477 0.95879 0.0
C407 C 0.12416 0.55414 0.91528 0.0
C408 C 0.53729 0.94231 0.9503 0.0
C409 C 0.5784 0.93412 0.95907 0.0
H410 H 0.48873 0.97553 0.97212 0.0
C411 C 0.6027 0.95445 0.99755 0.0
H412 H 0.51777 0.92715 0.9209 0.0
C413 C 0.58613 0.98227 1.0268 0.0
C414 C 0.54484 0.99016 1.01825 0.0
H415 H 0.63441 0.9487 1.00532 0.0
H416 H 0.60546 0.99713 0.05643 0.0
C417 C 0.52061 0.97 0.97968 0.0
C418 C 0.90913 0.14273 0.52611 0.0
C419 C 0.87432 0.15041 0.55495 0.0
H420 H 0.95562 0.1056 0.51165 0.0
C421 C 0.85634 0.12339 0.58856 0.0
H422 H 0.92329 0.16281 0.49959 0.0
C423 C 0.87433 0.09045 0.59473 0.0
C424 C 0.91068 0.08428 0.56755 0.0
H425 H 0.82945 0.12851 0.6112 0.0
H426 H 0.86168 0.07148 0.62264 0.0
C427 C 0.9274 0.10997 0.53266 0.0
C428 C 0.20894 0.70445 0.10257 0.0
C429 C 0.22653 0.69489 0.14248 0.0
H430 H 0.15666 0.68782 0.0534 0.0
C431 C 0.20389 0.65883 0.16276 0.0
H432 H 0.22543 0.73179 0.08581 0.0
C433 C 0.16451 0.63312 0.14351 0.0
C434 C 0.14668 0.64345 0.10418 0.0
H435 H 0.21642 0.65059 0.19357 0.0
H436 H 0.14742 0.60578 0.16001 0.0
C437 C 0.1694 0.67928 0.08394 0.0
C438 C 0.33745 0.47798 0.62678 0.0
C439 C 0.3271 0.50129 0.6659 0.0
H440 H 0.38306 0.47444 0.57033 0.0
C441 C 0.35645 0.53968 0.67851 0.0
H442 H 0.31526 0.44834 0.61621 0.0
C443 C 0.39591 0.55406 0.65304 0.0
C444 C 0.40594 0.53113 0.61344 0.0
H445 H 0.34922 0.55823 0.70851 0.0
H446 H 0.41829 0.58334 0.66407 0.0
C447 C 0.37606 0.49304 0.60039 0.0
C448 C 0.76306 0.65759 0.86976 0.0
C449 C 0.73528 0.67879 0.89523 0.0
H450 H 0.82436 0.63895 0.8669 0.0
C451 C 0.74838 0.69689 0.93923 0.0
H452 H 0.75404 0.64343 0.8357 0.0
C453 C 0.78871 0.69417 0.95714 0.0
C454 C 0.81687 0.67376 0.93113 0.0
H455 H 0.72777 0.71357 0.95961 0.0
H456 H 0.7984 0.7089 0.99084 0.0
C457 C 0.80349 0.65526 0.88745 0.0
C458 C 0.46956 0.92565 0.24911 0.0
C459 C 0.43211 0.89703 0.2298 0.0
H460 H 0.51341 0.98628 0.24961 0.0
C461 C 0.40899 0.91025 0.19562 0.0
H462 H 0.48833 0.91707 0.27531 0.0
C463 C 0.4235 0.95023 0.18058 0.0
C464 C 0.46143 0.9784 0.19948 0.0
H465 H 0.3799 0.88937 0.17966 0.0
H466 H 0.40562 0.95868 0.15352 0.0
C467 C 0.48383 0.96558 0.2343 0.0
C468 C 0.06315 0.20333 0.75343 0.0
C469 C 0.08435 0.23886 0.7314 0.0
H470 H 0.03417 0.13805 0.74682 0.0
C471 C 0.09397 0.23447 0.68434 0.0
H472 H 0.0553 0.20548 0.78968 0.0
C473 C 0.08191 0.19576 0.65982 0.0
C474 C 0.05993 0.16033 0.68166 0.0
H475 H 0.11029 0.26104 0.66622 0.0
H476 H 0.08935 0.19382 0.62346 0.0
C477 C 0.05112 0.16455 0.72889 0.0
C478 C 0.70572 0.34386 0.55171 0.0
C479 C 0.74716 0.3571 0.52896 0.0
H480 H 0.64063 0.35391 0.56634 0.0
C481 C 0.75499 0.392 0.50415 0.0
H482 H 0.69854 0.31686 0.57088 0.0
C483 C 0.72193 0.41308 0.50177 0.0
C484 C 0.68035 0.39943 0.52379 0.0
H485 H 0.78639 0.40271 0.48596 0.0
H486 H 0.72851 0.43958 0.48182 0.0
C487 C 0.67245 0.36475 0.5489 0.0
loop_
_geom_bond_atom_site_label_1
_geom_bond_atom_site_label_2
_geom_bond_distance
_geom_bond_site_symmetry_2
_ccdc_geom_bond_type
O0 Cd1 2.300 . S
O0 C7 1.275 . S
Cd1 O0 2.300 . S
Cd1 O9 2.381 . S
Cd1 O10 2.378 . S
O2 Cd3 2.385 . S
O2 C7 1.255 . S
Cd3 O2 2.385 . S
Cd3 O4 2.317 . S
O4 Cd3 2.317 . S
O4 C5 1.232 . S
C5 O4 1.232 . S
C5 O6 1.218 . S
O6 C5 1.218 . S
C7 O0 1.275 . S
C7 O2 1.255 . S
C8 O9 1.258 . S
C8 O10 1.256 . S
O9 Cd1 2.381 . S
O9 C8 1.258 . S
O10 Cd1 2.378 . S
O10 C8 1.256 . S
O11 Cd12 2.300 . S
O11 C18 1.275 . S
Cd12 O11 2.300 . S
Cd12 O20 2.381 . S
Cd12 O21 2.378 . S
O13 Cd14 2.385 . S
O13 C18 1.255 . S
Cd14 O13 2.385 . S
Cd14 O15 2.317 . S
O15 Cd14 2.317 . S
O15 C16 1.232 . S
C16 O15 1.232 . S
C16 O17 1.218 . S
O17 C16 1.218 . S
C18 O11 1.275 . S
C18 O13 1.255 . S
C19 O20 1.258 . S
C19 O21 1.256 . S
O20 Cd12 2.381 . S
O20 C19 1.258 . S
O21 Cd12 2.378 . S
O21 C19 1.256 . S
O22 Cd23 2.300 . S
O22 C29 1.275 . S
Cd23 O22 2.300 . S
Cd23 O31 2.381 . S
Cd23 O32 2.378 . S
O24 Cd25 2.385 . S
O24 C29 1.255 . S
Cd25 O24 2.385 . S
Cd25 O26 2.317 . S
O26 Cd25 2.317 . S
O26 C27 1.232 . S
C27 O26 1.232 . S
C27 O28 1.218 . S
O28 C27 1.218 . S
C29 O22 1.275 . S
C29 O24 1.255 . S
C30 O31 1.258 . S
C30 O32 1.256 . S
O31 Cd23 2.381 . S
O31 C30 1.258 . S
O32 Cd23 2.378 . S
O32 C30 1.256 . S
O33 Cd34 2.300 . S
O33 C40 1.275 . S
Cd34 O33 2.300 . S
Cd34 O42 2.381 . S
Cd34 O43 2.378 . S
O35 Cd36 2.385 . S
O35 C40 1.255 . S
Cd36 O35 2.385 . S
Cd36 O37 2.317 . S
O37 Cd36 2.317 . S
O37 C38 1.232 . S
C38 O37 1.232 . S
C38 O39 1.218 . S
O39 C38 1.218 . S
C40 O33 1.275 . S
C40 O35 1.255 . S
C41 O42 1.258 . S
C41 O43 1.256 . S
O42 Cd34 2.381 . S
O42 C41 1.258 . S
O43 Cd34 2.378 . S
O43 C41 1.256 . S
O44 Cd45 2.300 . S
O44 C51 1.275 . S
Cd45 O44 2.300 . S
Cd45 O53 2.381 . S
Cd45 O54 2.378 . S
O46 Cd47 2.385 . S
O46 C51 1.255 . S
Cd47 O46 2.385 . S
Cd47 O48 2.317 . S
O48 Cd47 2.317 . S
O48 C49 1.232 . S
C49 O48 1.232 . S
C49 O50 1.218 . S
O50 C49 1.218 . S
C51 O44 1.275 . S
C51 O46 1.255 . S
C52 O53 1.258 . S
C52 O54 1.256 . S
O53 Cd45 2.381 . S
O53 C52 1.258 . S
O54 Cd45 2.378 . S
O54 C52 1.256 . S
O55 Cd56 2.300 . S
O55 C62 1.275 . S
Cd56 O55 2.300 . S
Cd56 O64 2.381 . S
Cd56 O65 2.378 . S
O57 Cd58 2.385 . S
O57 C62 1.255 . S
Cd58 O57 2.385 . S
Cd58 O59 2.317 . S
O59 Cd58 2.317 . S
O59 C60 1.232 . S
C60 O59 1.232 . S
C60 O61 1.218 . S
O61 C60 1.218 . S
C62 O55 1.275 . S
C62 O57 1.255 . S
C63 O64 1.258 . S
C63 O65 1.256 . S
O64 Cd56 2.381 . S
O64 C63 1.258 . S
O65 Cd56 2.378 . S
O65 C63 1.256 . S
O66 Cd67 2.300 . S
O66 C73 1.275 . S
Cd67 O66 2.300 . S
Cd67 O75 2.381 . S
Cd67 O76 2.378 . S
O68 Cd69 2.385 . S
O68 C73 1.255 . S
Cd69 O68 2.385 . S
Cd69 O70 2.317 . S
O70 Cd69 2.317 . S
O70 C71 1.232 . S
C71 O70 1.232 . S
C71 O72 1.218 . S
O72 C71 1.218 . S
C73 O66 1.275 . S
C73 O68 1.255 . S
C74 O75 1.258 . S
C74 O76 1.256 . S
O75 Cd67 2.381 . S
O75 C74 1.258 . S
O76 Cd67 2.378 . S
O76 C74 1.256 . S
O77 Cd78 2.300 . S
O77 C84 1.275 . S
Cd78 O77 2.300 . S
Cd78 O86 2.381 . S
Cd78 O87 2.378 . S
O79 Cd80 2.385 . S
O79 C84 1.255 . S
Cd80 O79 2.385 . S
Cd80 O81 2.317 . S
O81 Cd80 2.317 . S
O81 C82 1.232 . S
C82 O81 1.232 . S
C82 O83 1.218 . S
O83 C82 1.218 . S
C84 O77 1.275 . S
C84 O79 1.255 . S
C85 O86 1.258 . S
C85 O87 1.256 . S
O86 Cd78 2.381 . S
O86 C85 1.258 . S
O87 Cd78 2.378 . S
O87 C85 1.256 . S
Ho88 C91 2.811 . S
Ho88 O108 2.322 . S
Ho88 O110 2.378 . S
Ho88 O111 2.524 . S
Ho88 O112 2.381 . S
Ho88 O113 2.669 . S
Ho88 O115 2.346 1_445 S
Ho88 O119 2.305 1_455 S
Ho89 C100 2.811 1_545 S
Ho89 O109 2.346 1_655 S
Ho89 O113 2.305 1_655 S
Ho89 O114 2.322 1_545 S
Ho89 O116 2.378 1_545 S
Ho89 O117 2.524 1_545 S
Ho89 O118 2.381 . S
Ho89 O119 2.669 . S
C90 O108 1.259 . S
C90 O109 1.268 . S
C91 Ho88 2.811 . S
C91 C92 1.488 . S
C91 O110 1.215 . S
C91 O111 1.289 . S
C92 C91 1.488 . S
C92 C93 1.348 . S
C92 C97 1.413 . S
C93 C92 1.348 . S
C93 C94 1.442 . S
C93 H120 0.930 . S
C94 C93 1.442 . S
C94 C95 1.381 . S
C94 H121 0.931 . S
C95 C94 1.381 . S
C95 C96 1.321 . S
C96 C95 1.321 . S
C96 C97 1.403 . S
C96 H122 0.934 . S
C97 C92 1.413 . S
C97 C96 1.403 . S
C97 H123 0.930 . S
C98 O112 1.275 1_565 S
C98 O113 1.256 1_565 S
C99 O114 1.259 . S
C99 O115 1.268 . S
C100 Ho89 2.811 1_565 S
C100 C101 1.488 . S
C100 O116 1.215 . S
C100 O117 1.289 . S
C101 C100 1.488 . S
C101 C102 1.348 . S
C101 C106 1.413 . S
C102 C101 1.348 . S
C102 C103 1.442 . S
C102 H124 0.930 . S
C103 C102 1.442 . S
C103 C104 1.381 . S
C103 H125 0.931 . S
C104 C103 1.381 . S
C104 C105 1.321 . S
C105 C104 1.321 . S
C105 C106 1.403 . S
C105 H126 0.934 . S
C106 C101 1.413 . S
C106 C105 1.403 . S
C106 H127 0.930 . S
C107 O118 1.275 . S
C107 O119 1.256 . S
O108 Ho88 2.322 . S
O108 C90 1.259 . S
O109 Ho89 2.346 1_455 S
O109 C90 1.268 . S
O110 Ho88 2.378 . S
O110 C91 1.215 . S
O111 Ho88 2.524 . S
O111 C91 1.289 . S
O112 Ho88 2.381 . S
O112 C98 1.275 1_545 S
O113 Ho88 2.669 . S
O113 Ho89 2.305 1_455 S
O113 C98 1.256 1_545 S
O114 Ho89 2.322 1_565 S
O114 C99 1.259 . S
O115 Ho88 2.346 1_665 S
O115 C99 1.268 . S
O116 Ho89 2.378 1_565 S
O116 C100 1.215 . S
O117 Ho89 2.524 1_565 S
O117 C100 1.289 . S
O118 Ho89 2.381 . S
O118 C107 1.275 . S
O119 Ho88 2.305 1_655 S
O119 Ho89 2.669 . S
O119 C107 1.256 . S
H120 C93 0.930 . S
H121 C94 0.931 . S
H122 C96 0.934 . S
H123 C97 0.930 . S
H124 C102 0.930 . S
H125 C103 0.931 . S
H126 C105 0.934 . S
H127 C106 0.930 . S
Ho128 C131 2.811 . S
Ho128 O148 2.322 . S
Ho128 O150 2.378 . S
Ho128 O151 2.524 . S
Ho128 O152 2.381 1_545 S
Ho128 O153 2.669 . S
Ho128 O155 2.346 . S
Ho128 O159 2.305 . S
Ho129 C140 2.811 1_544 S
Ho129 O149 2.346 . S
Ho129 O153 2.305 . S
Ho129 O154 2.322 1_554 S
Ho129 O156 2.378 1_554 S
Ho129 O157 2.524 1_544 S
Ho129 O158 2.381 . S
Ho129 O159 2.669 . S
C130 O148 1.259 . S
C130 O149 1.268 . S
C131 Ho128 2.811 . S
C131 C132 1.488 . S
C131 O150 1.215 . S
C131 O151 1.289 . S
C132 C131 1.488 . S
C132 C133 1.348 . S
C132 C137 1.413 . S
C133 C132 1.348 . S
C133 C134 1.442 . S
C133 H160 0.930 . S
C134 C133 1.442 . S
C134 C135 1.381 . S
C134 H161 0.931 . S
C135 C134 1.381 . S
C135 C136 1.321 . S
C136 C135 1.321 . S
C136 C137 1.403 . S
C136 H162 0.934 . S
C137 C132 1.413 . S
C137 C136 1.403 . S
C137 H163 0.930 . S
C138 O152 1.275 . S
C138 O153 1.256 1_565 S
C139 O154 1.269 1_554 S
C139 O155 1.268 . S
C140 Ho129 2.811 1_566 S
C140 C141 1.488 . S
C140 O156 1.215 1_565 S
C140 O157 1.289 . S
C141 C140 1.488 . S
C141 C142 1.348 . S
C141 C146 1.413 . S
C142 C141 1.348 . S
C142 C143 1.442 . S
C142 H164 0.930 . S
C143 C142 1.442 . S
C143 C144 1.381 . S
C143 H165 0.931 . S
C144 C143 1.381 . S
C144 C145 1.321 . S
C145 C144 1.321 . S
C145 C146 1.403 . S
C145 H166 0.934 . S
C146 C141 1.413 . S
C146 C145 1.403 . S
C146 H167 0.930 1_565 S
C147 O158 1.275 . S
C147 O159 1.256 . S
O148 Ho128 2.322 . S
O148 C130 1.259 . S
O149 Ho129 2.346 . S
O149 C130 1.268 . S
O150 Ho128 2.378 . S
O150 C131 1.215 . S
O151 Ho128 2.524 . S
O151 C131 1.289 . S
O152 Ho128 2.381 1_565 S
O152 C138 1.275 . S
O153 Ho128 2.669 . S
O153 Ho129 2.305 . S
O153 C138 1.256 1_545 S
O154 Ho129 2.322 1_556 S
O154 C139 1.269 1_556 S
O155 Ho128 2.346 . S
O155 C139 1.268 . S
O156 Ho129 2.378 1_556 S
O156 C140 1.215 1_545 S
O157 Ho129 2.524 1_566 S
O157 C140 1.289 . S
O158 Ho129 2.381 . S
O158 C147 1.275 . S
O159 Ho128 2.305 . S
O159 Ho129 2.669 . S
O159 C147 1.256 . S
H160 C133 0.930 . S
H161 C134 0.931 . S
H162 C136 0.934 . S
H163 C137 0.930 . S
H164 C142 0.930 . S
H165 C143 0.931 . S
H166 C145 0.934 . S
H167 C146 0.930 1_545 S
Ho168 C171 2.811 . S
Ho168 O188 2.322 . S
Ho168 O190 2.378 . S
Ho168 O191 2.524 . S
Ho168 O192 2.381 . S
Ho168 O193 2.669 . S
Ho168 O195 2.346 . S
Ho168 O199 2.305 . S
Ho169 C180 2.811 . S
Ho169 O189 2.346 . S
Ho169 O193 2.305 . S
Ho169 O194 2.322 . S
Ho169 O196 2.378 . S
Ho169 O197 2.524 . S
Ho169 O198 2.381 . S
Ho169 O199 2.669 . S
C170 O188 1.259 . S
C170 O189 1.268 . S
C171 Ho168 2.811 . S
C171 C172 1.488 . S
C171 O190 1.215 . S
C171 O191 1.289 . S
C172 C171 1.488 . S
C172 C173 1.348 . S
C172 C177 1.413 . S
C173 C172 1.348 . S
C173 C174 1.442 . S
C173 H200 0.930 . S
C174 C173 1.442 . S
C174 C175 1.381 . S
C174 H201 0.931 . S
C175 C174 1.381 . S
C175 C176 1.321 . S
C176 C175 1.321 . S
C176 C177 1.403 . S
C176 H202 0.934 . S
C177 C172 1.413 . S
C177 C176 1.403 . S
C177 H203 0.930 . S
C178 O192 1.275 . S
C178 O193 1.256 . S
C179 O194 1.259 . S
C179 O195 1.268 . S
C180 Ho169 2.811 . S
C180 C181 1.488 . S
C180 O196 1.215 . S
C180 O197 1.289 . S
C181 C180 1.488 . S
C181 C182 1.348 . S
C181 C186 1.413 . S
C182 C181 1.348 . S
C182 C183 1.442 . S
C182 H204 0.930 . S
C183 C182 1.442 . S
C183 C184 1.381 . S
C183 H205 0.931 . S
C184 C183 1.381 . S
C184 C185 1.321 . S
C185 C184 1.321 . S
C185 C186 1.403 . S
C185 H206 0.934 . S
C186 C181 1.413 . S
C186 C185 1.403 . S
C186 H207 0.930 . S
C187 O198 1.275 . S
C187 O199 1.256 . S
O188 Ho168 2.322 . S
O188 C170 1.259 . S
O189 Ho169 2.346 . S
O189 C170 1.268 . S
O190 Ho168 2.378 . S
O190 C171 1.215 . S
O191 Ho168 2.524 . S
O191 C171 1.289 . S
O192 Ho168 2.381 . S
O192 C178 1.275 . S
O193 Ho168 2.669 . S
O193 Ho169 2.305 . S
O193 C178 1.256 . S
O194 Ho169 2.322 . S
O194 C179 1.259 . S
O195 Ho168 2.346 . S
O195 C179 1.268 . S
O196 Ho169 2.378 . S
O196 C180 1.215 . S
O197 Ho169 2.524 . S
O197 C180 1.289 . S
O198 Ho169 2.381 . S
O198 C187 1.275 . S
O199 Ho168 2.305 . S
O199 Ho169 2.669 . S
O199 C187 1.256 . S
H200 C173 0.930 . S
H201 C174 0.931 . S
H202 C176 0.934 . S
H203 C177 0.930 . S
H204 C182 0.930 . S
H205 C183 0.931 . S
H206 C185 0.934 . S
H207 C186 0.930 . S
Ho208 C211 2.811 . S
Ho208 O228 2.322 . S
Ho208 O230 2.378 . S
Ho208 O231 2.524 . S
Ho208 O232 2.381 1_455 S
Ho208 O233 2.657 1_455 S
Ho208 O235 2.346 1_455 S
Ho208 O239 2.305 1_554 S
Ho209 C220 2.811 1_455 S
Ho209 O229 2.346 1_556 S
Ho209 O233 2.300 1_456 S
Ho209 O234 2.322 1_455 S
Ho209 O236 2.378 1_455 S
Ho209 O237 2.524 1_455 S
Ho209 O238 2.381 . S
Ho209 O239 2.669 . S
C210 O228 1.259 . S
C210 O229 1.268 . S
C211 Ho208 2.811 . S
C211 C212 1.488 . S
C211 O230 1.215 . S
C211 O231 1.289 . S
C212 C211 1.488 . S
C212 C213 1.348 . S
C212 C217 1.413 . S
C213 C212 1.348 . S
C213 C214 1.442 . S
C213 H240 0.930 . S
C214 C213 1.442 . S
C214 C215 1.381 . S
C214 H241 0.931 . S
C215 C214 1.381 . S
C215 C216 1.321 . S
C216 C215 1.321 . S
C216 C217 1.403 . S
C216 H242 0.934 . S
C217 C212 1.413 . S
C217 C216 1.403 . S
C217 H243 0.930 . S
C218 O232 1.275 . S
C218 O233 1.260 . S
C219 O234 1.259 . S
C219 O235 1.268 1_556 S
C220 Ho209 2.811 1_655 S
C220 C221 1.488 . S
C220 O236 1.215 . S
C220 O237 1.289 . S
C221 C220 1.488 . S
C221 C222 1.348 . S
C221 C226 1.413 . S
C222 C221 1.348 . S
C222 C223 1.442 . S
C222 H244 0.930 . S
C223 C222 1.442 . S
C223 C224 1.381 . S
C223 H245 0.931 . S
C224 C223 1.381 . S
C224 C225 1.321 . S
C225 C224 1.321 . S
C225 C226 1.403 . S
C225 H246 0.934 . S
C226 C221 1.413 . S
C226 C225 1.403 . S
C226 H247 0.930 . S
C227 O238 1.275 . S
C227 O239 1.256 . S
O228 Ho208 2.322 . S
O228 C210 1.259 . S
O229 Ho209 2.346 1_554 S
O229 C210 1.268 . S
O230 Ho208 2.378 . S
O230 C211 1.215 . S
O231 Ho208 2.524 . S
O231 C211 1.289 . S
O232 Ho208 2.381 1_655 S
O232 C218 1.275 . S
O233 Ho208 2.657 1_655 S
O233 Ho209 2.300 1_654 S
O233 C218 1.260 . S
O234 Ho209 2.322 1_655 S
O234 C219 1.259 . S
O235 Ho208 2.346 1_655 S
O235 C219 1.268 1_554 S
O236 Ho209 2.378 1_655 S
O236 C220 1.215 . S
O237 Ho209 2.524 1_655 S
O237 C220 1.289 . S
O238 Ho209 2.381 . S
O238 C227 1.275 . S
O239 Ho208 2.305 1_556 S
O239 Ho209 2.669 . S
O239 C227 1.256 . S
H240 C213 0.930 . S
H241 C214 0.931 . S
H242 C216 0.934 . S
H243 C217 0.930 . S
H244 C222 0.930 . S
H245 C223 0.931 . S
H246 C225 0.934 . S
H247 C226 0.930 . S
C248 C249 1.387 . S
C248 H252 0.950 . S
C248 C257 1.390 . S
C249 C248 1.387 . S
C249 C251 1.387 . S
H250 C257 0.950 . S
C251 C249 1.387 . S
C251 C253 1.390 . S
C251 H255 0.950 . S
H252 C248 0.950 . S
C253 C251 1.390 . S
C253 C254 1.387 . S
C253 H256 0.950 . S
C254 C253 1.387 . S
C254 C257 1.387 . S
H255 C251 0.950 . S
H256 C253 0.950 . S
C257 C248 1.390 . S
C257 H250 0.950 . S
C257 C254 1.387 . S
C258 C259 1.387 . S
C258 H262 0.950 . S
C258 C267 1.390 . S
C259 C258 1.387 . S
C259 C261 1.387 . S
H260 C267 0.950 . S
C261 C259 1.387 . S
C261 C263 1.390 . S
C261 H265 0.950 . S
H262 C258 0.950 . S
C263 C261 1.390 . S
C263 C264 1.387 . S
C263 H266 0.950 . S
C264 C263 1.387 . S
C264 C267 1.387 . S
H265 C261 0.950 . S
H266 C263 0.950 . S
C267 C258 1.390 . S
C267 H260 0.950 . S
C267 C264 1.387 . S
C268 C269 1.387 . S
C268 H272 0.950 . S
C268 C277 1.390 . S
C269 C268 1.387 . S
C269 C271 1.387 . S
H270 C277 0.950 . S
C271 C269 1.387 . S
C271 C273 1.390 . S
C271 H275 0.950 . S
H272 C268 0.950 . S
C273 C271 1.390 . S
C273 C274 1.387 . S
C273 H276 0.950 . S
C274 C273 1.387 . S
C274 C277 1.387 . S
H275 C271 0.950 . S
H276 C273 0.950 . S
C277 C268 1.390 . S
C277 H270 0.950 . S
C277 C274 1.387 . S
C278 C279 1.387 . S
C278 H282 0.950 . S
C278 C287 1.390 . S
C279 C278 1.387 . S
C279 C281 1.387 . S
H280 C287 0.950 . S
C281 C279 1.387 . S
C281 C283 1.390 . S
C281 H285 0.950 . S
H282 C278 0.950 . S
C283 C281 1.390 . S
C283 C284 1.387 . S
C283 H286 0.950 . S
C284 C283 1.387 . S
C284 C287 1.387 . S
H285 C281 0.950 . S
H286 C283 0.950 . S
C287 C278 1.390 . S
C287 H280 0.950 . S
C287 C284 1.387 . S
C288 C289 1.387 . S
C288 H292 0.950 . S
C288 C297 1.390 . S
C289 C288 1.387 . S
C289 C291 1.387 . S
H290 C297 0.950 . S
C291 C289 1.387 . S
C291 C293 1.390 . S
C291 H295 0.950 . S
H292 C288 0.950 . S
C293 C291 1.390 . S
C293 C294 1.387 . S
C293 H296 0.950 . S
C294 C293 1.387 . S
C294 C297 1.387 . S
H295 C291 0.950 . S
H296 C293 0.950 . S
C297 C288 1.390 . S
C297 H290 0.950 . S
C297 C294 1.387 . S
C298 C299 1.387 . S
C298 H302 0.950 . S
C298 C307 1.390 . S
C299 C298 1.387 . S
C299 C301 1.387 . S
H300 C307 0.950 . S
C301 C299 1.387 . S
C301 C303 1.390 . S
C301 H305 0.950 . S
H302 C298 0.950 . S
C303 C301 1.390 . S
C303 C304 1.387 . S
C303 H306 0.950 . S
C304 C303 1.387 . S
C304 C307 1.387 . S
H305 C301 0.950 . S
H306 C303 0.950 . S
C307 C298 1.390 . S
C307 H300 0.950 . S
C307 C304 1.387 . S
C308 C309 1.387 . S
C308 H312 0.950 . S
C308 C317 1.390 . S
C309 C308 1.387 . S
C309 C311 1.387 . S
H310 C317 0.950 1_554 S
C311 C309 1.387 . S
C311 C313 1.390 . S
C311 H315 0.950 . S
H312 C308 0.950 . S
C313 C311 1.390 . S
C313 C314 1.387 . S
C313 H316 0.950 . S
C314 C313 1.387 . S
C314 C317 1.387 . S
H315 C311 0.950 . S
H316 C313 0.950 . S
C317 C308 1.390 . S
C317 H310 0.950 1_556 S
C317 C314 1.387 . S
C318 C319 1.387 . S
C318 H322 0.950 . S
C318 C327 1.390 . S
C319 C318 1.387 . S
C319 C321 1.387 . S
H320 C327 0.950 . S
C321 C319 1.387 . S
C321 C323 1.390 . S
C321 H325 0.950 . S
H322 C318 0.950 . S
C323 C321 1.390 . S
C323 C324 1.387 . S
C323 H326 0.950 . S
C324 C323 1.387 . S
C324 C327 1.387 . S
H325 C321 0.950 . S
H326 C323 0.950 . S
C327 C318 1.390 . S
C327 H320 0.950 . S
C327 C324 1.387 . S
C328 C329 1.387 . S
C328 H332 0.950 . S
C328 C337 1.390 . S
C329 C328 1.387 . S
C329 C331 1.387 . S
H330 C337 0.950 . S
C331 C329 1.387 . S
C331 C333 1.390 . S
C331 H335 0.950 . S
H332 C328 0.950 . S
C333 C331 1.390 . S
C333 C334 1.387 . S
C333 H336 0.950 . S
C334 C333 1.387 . S
C334 C337 1.387 . S
H335 C331 0.950 . S
H336 C333 0.950 . S
C337 C328 1.390 . S
C337 H330 0.950 . S
C337 C334 1.387 . S
C338 C339 1.387 . S
C338 H342 0.950 . S
C338 C347 1.390 . S
C339 C338 1.387 . S
C339 C341 1.387 1_556 S
H340 C347 0.950 . S
C341 C339 1.387 1_554 S
C341 C343 1.390 . S
C341 H345 0.950 . S
H342 C338 0.950 . S
C343 C341 1.390 . S
C343 C344 1.387 . S
C343 H346 0.950 . S
C344 C343 1.387 . S
C344 C347 1.387 1_554 S
H345 C341 0.950 . S
H346 C343 0.950 . S
C347 C338 1.390 . S
C347 H340 0.950 . S
C347 C344 1.387 1_556 S
C348 C349 1.387 . S
C348 H352 0.950 . S
C348 C357 1.390 . S
C349 C348 1.387 . S
C349 C351 1.387 . S
H350 C357 0.950 . S
C351 C349 1.387 . S
C351 C353 1.390 . S
C351 H355 0.950 . S
H352 C348 0.950 . S
C353 C351 1.390 . S
C353 C354 1.387 . S
C353 H356 0.950 . S
C354 C353 1.387 . S
C354 C357 1.387 . S
H355 C351 0.950 . S
H356 C353 0.950 . S
C357 C348 1.390 . S
C357 H350 0.950 . S
C357 C354 1.387 . S
C358 C359 1.387 . S
C358 H362 0.950 . S
C358 C367 1.390 . S
C359 C358 1.387 . S
C359 C361 1.387 . S
H360 C367 0.950 . S
C361 C359 1.387 . S
C361 C363 1.390 . S
C361 H365 0.950 . S
H362 C358 0.950 . S
C363 C361 1.390 . S
C363 C364 1.387 . S
C363 H366 0.950 . S
C364 C363 1.387 . S
C364 C367 1.387 . S
H365 C361 0.950 . S
H366 C363 0.950 . S
C367 C358 1.390 . S
C367 H360 0.950 . S
C367 C364 1.387 . S
C368 C369 1.387 . S
C368 H372 0.950 . S
C368 C377 1.390 . S
C369 C368 1.387 . S
C369 C371 1.387 . S
H370 C377 0.950 . S
C371 C369 1.387 . S
C371 C373 1.390 . S
C371 H375 0.950 . S
H372 C368 0.950 . S
C373 C371 1.390 . S
C373 C374 1.387 . S
C373 H376 0.950 . S
C374 C373 1.387 . S
C374 C377 1.387 . S
H375 C371 0.950 . S
H376 C373 0.950 . S
C377 C368 1.390 . S
C377 H370 0.950 . S
C377 C374 1.387 . S
C378 C379 1.387 . S
C378 H382 0.950 . S
C378 C387 1.390 . S
C379 C378 1.387 . S
C379 C381 1.387 . S
H380 C387 0.950 . S
C381 C379 1.387 . S
C381 C383 1.390 . S
C381 H385 0.950 . S
H382 C378 0.950 . S
C383 C381 1.390 . S
C383 C384 1.387 . S
C383 H386 0.950 . S
C384 C383 1.387 . S
C384 C387 1.387 . S
H385 C381 0.950 . S
H386 C383 0.950 . S
C387 C378 1.390 . S
C387 H380 0.950 . S
C387 C384 1.387 . S
C388 C389 1.387 . S
C388 H392 0.950 . S
C388 C397 1.390 . S
C389 C388 1.387 . S
C389 C391 1.387 . S
H390 C397 0.950 . S
C391 C389 1.387 . S
C391 C393 1.390 . S
C391 H395 0.950 . S
H392 C388 0.950 . S
C393 C391 1.390 . S
C393 C394 1.387 . S
C393 H396 0.950 . S
C394 C393 1.387 . S
C394 C397 1.387 . S
H395 C391 0.950 . S
H396 C393 0.950 . S
C397 C388 1.390 . S
C397 H390 0.950 . S
C397 C394 1.387 . S
C398 C399 1.387 . S
C398 H402 0.950 . S
C398 C407 1.390 . S
C399 C398 1.387 . S
C399 C401 1.387 . S
H400 C407 0.950 . S
C401 C399 1.387 . S
C401 C403 1.390 . S
C401 H405 0.950 . S
H402 C398 0.950 . S
C403 C401 1.390 . S
C403 C404 1.387 . S
C403 H406 0.950 . S
C404 C403 1.387 . S
C404 C407 1.387 . S
H405 C401 0.950 . S
H406 C403 0.950 . S
C407 C398 1.390 . S
C407 H400 0.950 . S
C407 C404 1.387 . S
C408 C409 1.387 . S
C408 H412 0.950 . S
C408 C417 1.390 . S
C409 C408 1.387 . S
C409 C411 1.387 . S
H410 C417 0.950 . S
C411 C409 1.387 . S
C411 C413 1.390 . S
C411 H415 0.950 . S
H412 C408 0.950 . S
C413 C411 1.390 . S
C413 C414 1.387 . S
C413 H416 0.950 . S
C414 C413 1.387 . S
C414 C417 1.387 . S
H415 C411 0.950 . S
H416 C413 0.950 . S
C417 C408 1.390 . S
C417 H410 0.950 . S
C417 C414 1.387 . S
C418 C419 1.387 . S
C418 H422 0.950 . S
C418 C427 1.390 . S
C419 C418 1.387 . S
C419 C421 1.387 . S
H420 C427 0.950 . S
C421 C419 1.387 . S
C421 C423 1.390 . S
C421 H425 0.950 . S
H422 C418 0.950 . S
C423 C421 1.390 . S
C423 C424 1.387 . S
C423 H426 0.950 . S
C424 C423 1.387 . S
C424 C427 1.387 . S
H425 C421 0.950 . S
H426 C423 0.950 . S
C427 C418 1.390 . S
C427 H420 0.950 . S
C427 C424 1.387 . S
C428 C429 1.387 . S
C428 H432 0.950 . S
C428 C437 1.390 . S
C429 C428 1.387 . S
C429 C431 1.387 . S
H430 C437 0.950 . S
C431 C429 1.387 . S
C431 C433 1.390 . S
C431 H435 0.950 . S
H432 C428 0.950 . S
C433 C431 1.390 . S
C433 C434 1.387 . S
C433 H436 0.950 . S
C434 C433 1.387 . S
C434 C437 1.387 . S
H435 C431 0.950 . S
H436 C433 0.950 . S
C437 C428 1.390 . S
C437 H430 0.950 . S
C437 C434 1.387 . S
C438 C439 1.387 . S
C438 H442 0.950 . S
C438 C447 1.390 . S
C439 C438 1.387 . S
C439 C441 1.387 . S
H440 C447 0.950 . S
C441 C439 1.387 . S
C441 C443 1.390 . S
C441 H445 0.950 . S
H442 C438 0.950 . S
C443 C441 1.390 . S
C443 C444 1.387 . S
C443 H446 0.950 . S
C444 C443 1.387 . S
C444 C447 1.387 . S
H445 C441 0.950 . S
H446 C443 0.950 . S
C447 C438 1.390 . S
C447 H440 0.950 . S
C447 C444 1.387 . S
C448 C449 1.387 . S
C448 H452 0.950 . S
C448 C457 1.390 . S
C449 C448 1.387 . S
C449 C451 1.387 . S
H450 C457 0.950 . S
C451 C449 1.387 . S
C451 C453 1.390 . S
C451 H455 0.950 . S
H452 C448 0.950 . S
C453 C451 1.390 . S
C453 C454 1.387 . S
C453 H456 0.950 . S
C454 C453 1.387 . S
C454 C457 1.387 . S
H455 C451 0.950 . S
H456 C453 0.950 . S
C457 C448 1.390 . S
C457 H450 0.950 . S
C457 C454 1.387 . S
C458 C459 1.387 . S
C458 H462 0.950 . S
C458 C467 1.390 . S
C459 C458 1.387 . S
C459 C461 1.387 . S
H460 C467 0.950 . S
C461 C459 1.387 . S
C461 C463 1.390 . S
C461 H465 0.950 . S
H462 C458 0.950 . S
C463 C461 1.390 . S
C463 C464 1.387 . S
C463 H466 0.950 . S
C464 C463 1.387 . S
C464 C467 1.387 . S
H465 C461 0.950 . S
H466 C463 0.950 . S
C467 C458 1.390 . S
C467 H460 0.950 . S
C467 C464 1.387 . S
C468 C469 1.387 . S
C468 H472 0.950 . S
C468 C477 1.390 . S
C469 C468 1.387 . S
C469 C471 1.387 . S
H470 C477 0.950 . S
C471 C469 1.387 . S
C471 C473 1.390 . S
C471 H475 0.950 . S
H472 C468 0.950 . S
C473 C471 1.390 . S
C473 C474 1.387 . S
C473 H476 0.950 . S
C474 C473 1.387 . S
C474 C477 1.387 . S
H475 C471 0.950 . S
H476 C473 0.950 . S
C477 C468 1.390 . S
C477 H470 0.950 . S
C477 C474 1.387 . S
C478 C479 1.387 . S
C478 H482 0.950 . S
C478 C487 1.390 . S
C479 C478 1.387 . S
C479 C481 1.387 . S
H480 C487 0.950 . S
C481 C479 1.387 . S
C481 C483 1.390 . S
C481 H485 0.950 . S
H482 C478 0.950 . S
C483 C481 1.390 . S
C483 C484 1.387 . S
C483 H486 0.950 . S
C484 C483 1.387 . S
C484 C487 1.387 . S
H485 C481 0.950 . S
H486 C483 0.950 . S
C487 C478 1.390 . S
C487 H480 0.950 . S
C487 C484 1.387 . S
C249 C5 1.012 . S
C254 C95 1.260 . S
C259 C18 1.051 . S
C264 C144 1.190 . S
C274 C170 2.377 . S
C269 C30 2.417 . S
C279 C41 2.209 . S
C284 C218 2.172 . S
C294 C130 2.309 . S
C289 C7 2.044 . S
C304 C98 0.847 . S
C299 C16 0.815 . S
C314 C219 2.008 . S
C309 C29 1.977 . S
C324 C187 1.392 . S
C319 C38 1.269 . S
C329 C8 1.472 . S
C334 C215 1.607 . S
C344 C147 2.553 . S
C339 C27 2.365 . S
C349 C40 2.471 . S
C354 C99 2.475 . S
C359 C19 1.076 . S
C364 C184 1.076 . S
C374 C104 1.267 . S
C369 C51 1.004 . S
C379 C62 1.510 . S
C384 C135 1.420 . S
C389 C74 2.513 . S
C394 C179 2.479 . S
C399 C84 2.271 . S
C404 C227 2.370 . S
C409 C49 1.772 . S
C414 C139 2.494 1_566 S
C424 C107 0.965 . S
C419 C63 0.974 . S
C434 C210 1.858 . S
C429 C71 1.767 . S
C444 C178 1.548 . S
C439 C85 1.523 . S
C449 C52 1.545 . S
C454 C224 1.693 . S
C464 C138 2.647 . S
C459 C73 2.720 . S
C474 C90 2.107 . S
C469 C82 1.788 . S
C479 C60 0.943 . S
C484 C175 1.037 . S
