# Generated by pormake.
# Topology ocu, (6,8)-cn, num edge types: 1
# Building blocks:
#     Node 0, Type 0, BuildingBlock: HISSIN_clean_sbu_0, # of connection points: 6
#     Node 1, Type 0, BuildingBlock: HISSIN_clean_sbu_0, # of connection points: 6
#     Node 2, Type 0, BuildingBlock: HISSIN_clean_sbu_0, # of connection points: 6
#     Node 3, Type 0, BuildingBlock: HISSIN_clean_sbu_0, # of connection points: 6
#     Node 4, Type 0, BuildingBlock: HISSIN_clean_sbu_0, # of connection points: 6
#     Node 5, Type 0, BuildingBlock: HISSIN_clean_sbu_0, # of connection points: 6
#     Node 6, Type 0, BuildingBlock: HISSIN_clean_sbu_0, # of connection points: 6
#     Node 7, Type 0, BuildingBlock: HISSIN_clean_sbu_0, # of connection points: 6
#     Node 8, Type 1, BuildingBlock: TAGTUT_clean_sbu_1, # of connection points: 8
#     Node 9, Type 1, BuildingBlock: TAGTUT_clean_sbu_1, # of connection points: 8
#     Node 10, Type 1, BuildingBlock: TAGTUT_clean_sbu_1, # of connection points: 8
#     Node 11, Type 1, BuildingBlock: TAGTUT_clean_sbu_1, # of connection points: 8
#     Node 12, Type 1, BuildingBlock: TAGTUT_clean_sbu_1, # of connection points: 8
#     Node 13, Type 1, BuildingBlock: TAGTUT_clean_sbu_1, # of connection points: 8
#     Edge 14, Type (0, 1), BuildingBlock: MIFKUJ_clean_linker_0, # of connection points: 2
#     Edge 15, Type (0, 1), BuildingBlock: MIFKUJ_clean_linker_0, # of connection points: 2
#     Edge 16, Type (0, 1), BuildingBlock: MIFKUJ_clean_linker_0, # of connection points: 2
#     Edge 17, Type (0, 1), BuildingBlock: MIFKUJ_clean_linker_0, # of connection points: 2
#     Edge 18, Type (0, 1), BuildingBlock: MIFKUJ_clean_linker_0, # of connection points: 2
#     Edge 19, Type (0, 1), BuildingBlock: MIFKUJ_clean_linker_0, # of connection points: 2
#     Edge 20, Type (0, 1), BuildingBlock: MIFKUJ_clean_linker_0, # of connection points: 2
#     Edge 21, Type (0, 1), BuildingBlock: MIFKUJ_clean_linker_0, # of connection points: 2
#     Edge 22, Type (0, 1), BuildingBlock: MIFKUJ_clean_linker_0, # of connection points: 2
#     Edge 23, Type (0, 1), BuildingBlock: MIFKUJ_clean_linker_0, # of connection points: 2
#     Edge 24, Type (0, 1), BuildingBlock: MIFKUJ_clean_linker_0, # of connection points: 2
#     Edge 25, Type (0, 1), BuildingBlock: MIFKUJ_clean_linker_0, # of connection points: 2
#     Edge 26, Type (0, 1), BuildingBlock: MIFKUJ_clean_linker_0, # of connection points: 2
#     Edge 27, Type (0, 1), BuildingBlock: MIFKUJ_clean_linker_0, # of connection points: 2
#     Edge 28, Type (0, 1), BuildingBlock: MIFKUJ_clean_linker_0, # of connection points: 2
#     Edge 29, Type (0, 1), BuildingBlock: MIFKUJ_clean_linker_0, # of connection points: 2
#     Edge 30, Type (0, 1), BuildingBlock: MIFKUJ_clean_linker_0, # of connection points: 2
#     Edge 31, Type (0, 1), BuildingBlock: MIFKUJ_clean_linker_0, # of connection points: 2
#     Edge 32, Type (0, 1), BuildingBlock: MIFKUJ_clean_linker_0, # of connection points: 2
#     Edge 33, Type (0, 1), BuildingBlock: MIFKUJ_clean_linker_0, # of connection points: 2
#     Edge 34, Type (0, 1), BuildingBlock: MIFKUJ_clean_linker_0, # of connection points: 2
#     Edge 35, Type (0, 1), BuildingBlock: MIFKUJ_clean_linker_0, # of connection points: 2
#     Edge 36, Type (0, 1), BuildingBlock: MIFKUJ_clean_linker_0, # of connection points: 2
#     Edge 37, Type (0, 1), BuildingBlock: MIFKUJ_clean_linker_0, # of connection points: 2
#     Edge 38, Type (0, 1), BuildingBlock: MIFKUJ_clean_linker_0, # of connection points: 2
#     Edge 39, Type (0, 1), BuildingBlock: MIFKUJ_clean_linker_0, # of connection points: 2
#     Edge 40, Type (0, 1), BuildingBlock: MIFKUJ_clean_linker_0, # of connection points: 2
#     Edge 41, Type (0, 1), BuildingBlock: MIFKUJ_clean_linker_0, # of connection points: 2
#     Edge 42, Type (0, 1), BuildingBlock: MIFKUJ_clean_linker_0, # of connection points: 2
#     Edge 43, Type (0, 1), BuildingBlock: MIFKUJ_clean_linker_0, # of connection points: 2
#     Edge 44, Type (0, 1), BuildingBlock: MIFKUJ_clean_linker_0, # of connection points: 2
#     Edge 45, Type (0, 1), BuildingBlock: MIFKUJ_clean_linker_0, # of connection points: 2
#     Edge 46, Type (0, 1), BuildingBlock: MIFKUJ_clean_linker_0, # of connection points: 2
#     Edge 47, Type (0, 1), BuildingBlock: MIFKUJ_clean_linker_0, # of connection points: 2
#     Edge 48, Type (0, 1), BuildingBlock: MIFKUJ_clean_linker_0, # of connection points: 2
#     Edge 49, Type (0, 1), BuildingBlock: MIFKUJ_clean_linker_0, # of connection points: 2
#     Edge 50, Type (0, 1), BuildingBlock: MIFKUJ_clean_linker_0, # of connection points: 2
#     Edge 51, Type (0, 1), BuildingBlock: MIFKUJ_clean_linker_0, # of connection points: 2
#     Edge 52, Type (0, 1), BuildingBlock: MIFKUJ_clean_linker_0, # of connection points: 2
#     Edge 53, Type (0, 1), BuildingBlock: MIFKUJ_clean_linker_0, # of connection points: 2
#     Edge 54, Type (0, 1), BuildingBlock: MIFKUJ_clean_linker_0, # of connection points: 2
#     Edge 55, Type (0, 1), BuildingBlock: MIFKUJ_clean_linker_0, # of connection points: 2
#     Edge 56, Type (0, 1), BuildingBlock: MIFKUJ_clean_linker_0, # of connection points: 2
#     Edge 57, Type (0, 1), BuildingBlock: MIFKUJ_clean_linker_0, # of connection points: 2
#     Edge 58, Type (0, 1), BuildingBlock: MIFKUJ_clean_linker_0, # of connection points: 2
#     Edge 59, Type (0, 1), BuildingBlock: MIFKUJ_clean_linker_0, # of connection points: 2
#     Edge 60, Type (0, 1), BuildingBlock: MIFKUJ_clean_linker_0, # of connection points: 2
#     Edge 61, Type (0, 1), BuildingBlock: MIFKUJ_clean_linker_0, # of connection points: 2
# Relax obj value: 0.084
# Max RMSD: 0.208
# Mean RMSD: 0.125
data_MOF--net-ocu--node1-HISSIN_clean_sbu_0--node2-TAGTUT_clean_sbu_1--edge1-MIFKUJ_clean_linker_0
_symmetry_space_group_name_H-M    P1
_symmetry_Int_Tables_number       1
_symmetry_cell_setting            triclinic
loop_
_symmetry_equiv_pos_as_xyz
'x, y, z'
_cell_length_a     52.568546
_cell_length_b     50.438982
_cell_length_c     52.435276
_cell_angle_alpha  99.888547
_cell_angle_beta   83.920444
_cell_angle_gamma 110.46776
loop_
_atom_site_label
_atom_site_type_symbol
_atom_site_fract_x
_atom_site_fract_y
_atom_site_fract_z
_atom_type_partial_charge
Eu0 Eu 0.28649 0.2581 0.27172 0.0
Eu1 Eu 0.2404 0.246 0.22749 0.0
C2 C 0.22857 0.20466 0.27171 0.0
C3 C 0.33624 0.24767 0.31569 0.0
C4 C 0.32123 0.22445 0.32882 0.0
C5 C 0.37784 0.2397 0.32356 0.0
C6 C 0.33442 0.20922 0.33935 0.0
C7 C 0.36467 0.25501 0.31316 0.0
C8 C 0.36295 0.21668 0.33699 0.0
C9 C 0.32292 0.26509 0.30538 0.0
O10 O 0.22596 0.26975 0.2634 0.0
O11 O 0.26513 0.29126 0.28569 0.0
C12 C 0.23964 0.28842 0.28219 0.0
O13 O 0.30792 0.28263 0.23878 0.0
O14 O 0.19856 0.23373 0.21579 0.0
O15 O 0.23206 0.24828 0.18809 0.0
O16 O 0.27149 0.28991 0.22504 0.0
C17 C 0.29784 0.29565 0.22498 0.0
O18 O 0.29031 0.21973 0.24396 0.0
O19 O 0.26865 0.22171 0.20866 0.0
O20 O 0.22332 0.20723 0.24841 0.0
O21 O 0.32898 0.26944 0.28137 0.0
O22 O 0.29722 0.26061 0.3115 0.0
O23 O 0.24971 0.22269 0.28412 0.0
C24 C 0.1917 0.25873 0.18389 0.0
C25 C 0.20603 0.28404 0.17338 0.0
C26 C 0.14919 0.26435 0.1756 0.0
C27 C 0.19204 0.29922 0.16395 0.0
C28 C 0.16316 0.24918 0.18496 0.0
C29 C 0.16339 0.28948 0.16474 0.0
C30 C 0.20586 0.24134 0.19285 0.0
C31 C 0.28498 0.21226 0.21921 0.0
H32 H 0.29929 0.21808 0.3311 0.0
H33 H 0.3998 0.24637 0.32157 0.0
H34 H 0.3222 0.19142 0.34922 0.0
H35 H 0.37681 0.27289 0.30334 0.0
H36 H 0.22805 0.29199 0.17215 0.0
H37 H 0.12718 0.25637 0.17698 0.0
H38 H 0.20374 0.31825 0.15548 0.0
H39 H 0.15157 0.22975 0.19291 0.0
Eu40 Eu 0.78755 0.23351 0.25164 0.0
Eu41 Eu 0.74166 0.26404 0.24559 0.0
C42 C 0.78357 0.28834 0.28908 0.0
C43 C 0.83207 0.19033 0.26841 0.0
C44 C 0.82941 0.18876 0.29512 0.0
C45 C 0.85641 0.15633 0.26209 0.0
C46 C 0.84069 0.17166 0.30527 0.0
C47 C 0.84519 0.1735 0.25198 0.0
C48 C 0.85493 0.15573 0.28896 0.0
C49 C 0.82499 0.21213 0.25783 0.0
O50 O 0.78084 0.29098 0.22715 0.0
O51 O 0.80456 0.25937 0.2191 0.0
C52 C 0.80116 0.28311 0.21575 0.0
O53 O 0.7571 0.20338 0.22351 0.0
O54 O 0.72911 0.30182 0.25182 0.0
O55 O 0.70137 0.26068 0.23539 0.0
O56 O 0.74563 0.23707 0.20761 0.0
C57 C 0.74741 0.21141 0.20518 0.0
O58 O 0.75385 0.21717 0.2813 0.0
O59 O 0.71899 0.22429 0.2635 0.0
O60 O 0.75746 0.27893 0.28559 0.0
O61 O 0.8104 0.20432 0.23744 0.0
O62 O 0.81938 0.23216 0.27418 0.0
O63 O 0.79996 0.27845 0.27284 0.0
C64 C 0.69456 0.30248 0.22579 0.0
C65 C 0.67793 0.287 0.20514 0.0
C66 C 0.68465 0.34488 0.22032 0.0
C67 C 0.6645 0.30022 0.19251 0.0
C68 C 0.69801 0.33164 0.23299 0.0
C69 C 0.66729 0.3292 0.20026 0.0
C70 C 0.70543 0.28795 0.24205 0.0
C71 C 0.72782 0.21248 0.27953 0.0
H72 H 0.81958 0.20162 0.30836 0.0
H73 H 0.86678 0.144 0.24888 0.0
H74 H 0.83934 0.17201 0.32606 0.0
H75 H 0.8477 0.17447 0.23134 0.0
H76 H 0.67463 0.26444 0.19918 0.0
H77 H 0.68707 0.36713 0.22699 0.0
H78 H 0.6516 0.28761 0.17688 0.0
H79 H 0.71032 0.34402 0.2491 0.0
Eu80 Eu 0.75523 0.76222 0.22844 0.0
Eu81 Eu 0.76038 0.72588 0.27394 0.0
C82 C 0.70849 0.70191 0.23868 0.0
C83 C 0.72842 0.79871 0.18361 0.0
C84 C 0.70918 0.77867 0.16688 0.0
C85 C 0.70774 0.83426 0.18016 0.0
C86 C 0.68955 0.78643 0.15682 0.0
C87 C 0.72743 0.82656 0.1901 0.0
C88 C 0.68865 0.81436 0.16325 0.0
C89 C 0.7502 0.79135 0.19355 0.0
O90 O 0.77463 0.70423 0.23623 0.0
O91 O 0.78669 0.74092 0.21177 0.0
C92 C 0.78731 0.71592 0.21571 0.0
O93 O 0.78614 0.79153 0.2564 0.0
O94 O 0.75567 0.68716 0.29031 0.0
O95 O 0.77618 0.72883 0.31158 0.0
O96 O 0.80115 0.757 0.26425 0.0
C97 C 0.8045 0.78405 0.26542 0.0
O98 O 0.72301 0.7672 0.25954 0.0
O99 O 0.74156 0.75947 0.29411 0.0
O100 O 0.71808 0.70176 0.26076 0.0
O101 O 0.7574 0.80272 0.2171 0.0
O102 O 0.74944 0.76484 0.1884 0.0
O103 O 0.72077 0.72069 0.22294 0.0
C104 C 0.79044 0.69041 0.31747 0.0
C105 C 0.81843 0.70436 0.31279 0.0
C106 C 0.8011 0.65567 0.3375 0.0
C107 C 0.8376 0.69412 0.3206 0.0
C108 C 0.78202 0.66596 0.32979 0.0
C109 C 0.82918 0.66962 0.33309 0.0
C110 C 0.76966 0.70121 0.31044 0.0
C111 C 0.72514 0.76982 0.28473 0.0
H112 H 0.70937 0.75704 0.16136 0.0
H113 H 0.70796 0.85608 0.18519 0.0
H114 H 0.67504 0.77051 0.144 0.0
H115 H 0.74215 0.84258 0.20267 0.0
H116 H 0.82548 0.72322 0.30321 0.0
H117 H 0.79379 0.63708 0.34744 0.0
H118 H 0.859 0.70527 0.31668 0.0
H119 H 0.76058 0.65493 0.33373 0.0
Eu120 Eu 0.27849 0.73554 0.26457 0.0
Eu121 Eu 0.23646 0.76271 0.24738 0.0
C122 C 0.24294 0.70555 0.21671 0.0
C123 C 0.33694 0.70975 0.2651 0.0
C124 C 0.34711 0.72066 0.24186 0.0
C125 C 0.36388 0.6786 0.25603 0.0
C126 C 0.36461 0.70971 0.22524 0.0
C127 C 0.3462 0.68956 0.27266 0.0
C128 C 0.37213 0.68755 0.23157 0.0
C129 C 0.31367 0.71599 0.27896 0.0
O130 O 0.21446 0.74039 0.28134 0.0
O131 O 0.23718 0.70863 0.27934 0.0
C132 C 0.21624 0.71691 0.28749 0.0
O133 O 0.2696 0.76535 0.29828 0.0
O134 O 0.20704 0.76083 0.22003 0.0
O135 O 0.21584 0.79409 0.25321 0.0
O136 O 0.26526 0.79705 0.27474 0.0
C137 C 0.27159 0.79147 0.29627 0.0
O138 O 0.3047 0.77044 0.24158 0.0
O139 O 0.27203 0.77493 0.2185 0.0
O140 O 0.2253 0.71649 0.22947 0.0
O141 O 0.31583 0.74294 0.28348 0.0
O142 O 0.2902 0.69961 0.26995 0.0
O143 O 0.26817 0.71481 0.22353 0.0
C144 C 0.17047 0.77203 0.24361 0.0
C145 C 0.15833 0.79308 0.25009 0.0
C146 C 0.13502 0.74085 0.26921 0.0
C147 C 0.13579 0.78882 0.26752 0.0
C148 C 0.15768 0.7452 0.2519 0.0
C149 C 0.12524 0.76344 0.27878 0.0
C150 C 0.19922 0.78046 0.23478 0.0
C151 C 0.29767 0.77959 0.22228 0.0
H152 H 0.33995 0.73613 0.23566 0.0
H153 H 0.36964 0.66183 0.26156 0.0
H154 H 0.37016 0.71688 0.20646 0.0
H155 H 0.33845 0.68097 0.2906 0.0
H156 H 0.168 0.81393 0.24398 0.0
H157 H 0.12703 0.72091 0.27718 0.0
H158 H 0.1289 0.80678 0.27445 0.0
H159 H 0.16679 0.72861 0.24718 0.0
Eu160 Eu 0.28744 0.73587 0.75334 0.0
Eu161 Eu 0.2415 0.76705 0.74842 0.0
C162 C 0.28296 0.7897 0.79371 0.0
C163 C 0.33395 0.6961 0.7726 0.0
C164 C 0.34891 0.71175 0.79424 0.0
C165 C 0.34588 0.65495 0.77808 0.0
C166 C 0.36241 0.69909 0.80757 0.0
C167 C 0.33243 0.66756 0.76486 0.0
C168 C 0.3613 0.67057 0.79949 0.0
C169 C 0.32174 0.70926 0.75622 0.0
O170 O 0.28105 0.79397 0.73043 0.0
O171 O 0.30292 0.76082 0.71996 0.0
C172 C 0.30048 0.78539 0.71779 0.0
O173 O 0.25765 0.70802 0.72355 0.0
O174 O 0.2291 0.80483 0.75413 0.0
O175 O 0.20008 0.76314 0.74088 0.0
O176 O 0.24437 0.74154 0.70945 0.0
C177 C 0.24721 0.71632 0.70597 0.0
O178 O 0.25638 0.72492 0.78625 0.0
O179 O 0.22059 0.72638 0.76582 0.0
O180 O 0.25738 0.78232 0.78837 0.0
O181 O 0.29628 0.69625 0.75099 0.0
O182 O 0.32851 0.73705 0.75912 0.0
O183 O 0.29962 0.77822 0.77947 0.0
C184 C 0.19096 0.80386 0.73255 0.0
C185 C 0.20253 0.81452 0.70942 0.0
C186 C 0.15278 0.8197 0.72976 0.0
C187 C 0.1892 0.82775 0.69651 0.0
C188 C 0.16604 0.80654 0.74254 0.0
C189 C 0.1641 0.83048 0.70655 0.0
C190 C 0.20431 0.79044 0.74728 0.0
C191 C 0.23016 0.71794 0.7839 0.0
H192 H 0.35055 0.73385 0.80064 0.0
H193 H 0.34486 0.63317 0.77093 0.0
H194 H 0.37378 0.7117 0.82416 0.0
H195 H 0.32136 0.65512 0.74802 0.0
H196 H 0.22179 0.81264 0.7014 0.0
H197 H 0.13381 0.82183 0.73837 0.0
H198 H 0.19841 0.83555 0.67856 0.0
H199 H 0.15687 0.79862 0.76048 0.0
Eu200 Eu 0.25366 0.25945 0.73069 0.0
Eu201 Eu 0.26 0.22713 0.77863 0.0
C202 C 0.21321 0.19842 0.73959 0.0
C203 C 0.22574 0.29445 0.68488 0.0
C204 C 0.19766 0.28155 0.6899 0.0
C205 C 0.2164 0.32841 0.66268 0.0
C206 C 0.17908 0.29194 0.68118 0.0
C207 C 0.23489 0.31797 0.6713 0.0
C208 C 0.18823 0.31552 0.66742 0.0
C209 C 0.2459 0.28361 0.6931 0.0
O210 O 0.29201 0.22047 0.7477 0.0
O211 O 0.27585 0.22883 0.71184 0.0
C212 C 0.29155 0.21852 0.7223 0.0
O213 O 0.29447 0.28473 0.74706 0.0
O214 O 0.24774 0.19315 0.80331 0.0
O215 O 0.2847 0.22954 0.81017 0.0
O216 O 0.27977 0.27446 0.78776 0.0
C217 C 0.29622 0.29126 0.77221 0.0
O218 O 0.23423 0.27907 0.7663 0.0
O219 O 0.22589 0.24531 0.79366 0.0
O220 O 0.23247 0.19383 0.75017 0.0
O221 O 0.25914 0.29788 0.7136 0.0
O222 O 0.23907 0.25601 0.69238 0.0
O223 O 0.21443 0.22454 0.73827 0.0
C224 C 0.28396 0.18689 0.8231 0.0
C225 C 0.30163 0.17746 0.80477 0.0
C226 C 0.29976 0.16911 0.85641 0.0
C227 C 0.31852 0.16421 0.81235 0.0
C228 C 0.28282 0.1821 0.8488 0.0
C229 C 0.31826 0.16055 0.83843 0.0
C230 C 0.26935 0.20504 0.81695 0.0
C231 C 0.22264 0.26839 0.78763 0.0
H232 H 0.19009 0.26343 0.70046 0.0
H233 H 0.22422 0.34629 0.65184 0.0
H234 H 0.15758 0.28168 0.68542 0.0
H235 H 0.25644 0.32818 0.66714 0.0
H236 H 0.30305 0.18128 0.78487 0.0
H237 H 0.29874 0.16623 0.87654 0.0
H238 H 0.33261 0.15798 0.79806 0.0
H239 H 0.26949 0.1894 0.86328 0.0
Eu240 Eu 0.7738 0.24079 0.76542 0.0
Eu241 Eu 0.73264 0.26806 0.74711 0.0
C242 C 0.73685 0.20911 0.71844 0.0
C243 C 0.83612 0.22326 0.76576 0.0
C244 C 0.85231 0.24747 0.75447 0.0
C245 C 0.86054 0.19519 0.73873 0.0
C246 C 0.87127 0.24506 0.73438 0.0
C247 C 0.84149 0.19759 0.75885 0.0
C248 C 0.87429 0.21847 0.72532 0.0
C249 C 0.8102 0.22293 0.7795 0.0
O250 O 0.71129 0.24739 0.78238 0.0
O251 O 0.73252 0.21421 0.77992 0.0
C252 C 0.71231 0.2235 0.7884 0.0
O253 O 0.76544 0.2722 0.79823 0.0
O254 O 0.70365 0.26663 0.71948 0.0
O255 O 0.7122 0.29959 0.75294 0.0
O256 O 0.76271 0.30288 0.77265 0.0
C257 C 0.7682 0.2982 0.7949 0.0
O258 O 0.80032 0.2748 0.74185 0.0
O259 O 0.7681 0.27861 0.71779 0.0
O260 O 0.72001 0.22156 0.73051 0.0
O261 O 0.80818 0.24788 0.7887 0.0
O262 O 0.78865 0.20589 0.76745 0.0
O263 O 0.76217 0.21799 0.72507 0.0
C264 C 0.6669 0.27668 0.74379 0.0
C265 C 0.65497 0.24935 0.75132 0.0
C266 C 0.63364 0.29254 0.77142 0.0
C267 C 0.6338 0.24437 0.77026 0.0
C268 C 0.65478 0.29748 0.75244 0.0
C269 C 0.62458 0.26676 0.78203 0.0
C270 C 0.69552 0.28586 0.73456 0.0
C271 C 0.79365 0.2832 0.72193 0.0
H272 H 0.84871 0.26764 0.75949 0.0
H273 H 0.86244 0.17438 0.73205 0.0
H274 H 0.88191 0.26338 0.72454 0.0
H275 H 0.82918 0.17869 0.76727 0.0
H276 H 0.66405 0.23292 0.74496 0.0
H277 H 0.62708 0.31032 0.78009 0.0
H278 H 0.62695 0.22421 0.77784 0.0
H279 H 0.66382 0.31872 0.74699 0.0
Eu280 Eu 0.78608 0.7592 0.77109 0.0
Eu281 Eu 0.74027 0.7466 0.72711 0.0
C282 C 0.72894 0.70604 0.77187 0.0
C283 C 0.83519 0.74769 0.81465 0.0
C284 C 0.8224 0.73307 0.83564 0.0
C285 C 0.87264 0.72968 0.81509 0.0
C286 C 0.83461 0.71701 0.84623 0.0
C287 C 0.86046 0.74575 0.80453 0.0
C288 C 0.86 0.71522 0.83622 0.0
C289 C 0.82304 0.76588 0.80395 0.0
O290 O 0.72592 0.7714 0.7624 0.0
O291 O 0.76459 0.79206 0.78558 0.0
C292 C 0.73937 0.78971 0.78153 0.0
O293 O 0.80706 0.78586 0.73949 0.0
O294 O 0.69833 0.73313 0.71562 0.0
O295 O 0.73134 0.74725 0.68741 0.0
O296 O 0.77016 0.79094 0.72417 0.0
C297 C 0.7966 0.79834 0.72549 0.0
O298 O 0.78804 0.71942 0.74401 0.0
O299 O 0.77121 0.72596 0.70787 0.0
O300 O 0.72442 0.70761 0.74801 0.0
O301 O 0.82849 0.76867 0.77953 0.0
O302 O 0.79784 0.76349 0.81085 0.0
O303 O 0.74912 0.72518 0.78469 0.0
C304 C 0.69075 0.75606 0.68273 0.0
C305 C 0.69077 0.78272 0.69607 0.0
C306 C 0.66262 0.76 0.65055 0.0
C307 C 0.67673 0.7979 0.6867 0.0
C308 C 0.67663 0.74491 0.65991 0.0
C309 C 0.66237 0.78669 0.66381 0.0
C310 C 0.70513 0.73946 0.69222 0.0
C311 C 0.78543 0.71432 0.71875 0.0
H312 H 0.80307 0.73427 0.84414 0.0
H313 H 0.89197 0.72851 0.80657 0.0
H314 H 0.82438 0.70653 0.86268 0.0
H315 H 0.87098 0.75683 0.78848 0.0
H316 H 0.70154 0.79172 0.71376 0.0
H317 H 0.65226 0.75087 0.63267 0.0
H318 H 0.6768 0.81822 0.69759 0.0
H319 H 0.67646 0.72444 0.64927 0.0
C320 C 0.95381 0.06677 0.51229 0.0
C321 C 0.99084 0.04493 0.44152 0.0
C322 C 0.97024 0.9424 0.47134 0.0
Mg323 Mg 0.01166 0.06393 0.4962 0.0
O324 O 0.99373 0.0275 0.50596 0.0
Mg325 Mg 0.95966 0.00299 0.48816 0.0
Mg326 Mg 0.01458 0.00069 0.4979 0.0
O327 O 0.03575 0.97409 0.48984 0.0
Mg328 Mg 0.01903 0.93793 0.50045 0.0
Mg329 Mg 0.07039 -0.00075 0.50659 0.0
C330 C 0.05842 0.05872 0.5271 0.0
C331 C 0.06521 0.02787 0.45682 0.0
O332 O 0.94267 0.0396 0.50572 0.0
O333 O 0.97955 0.07978 0.51065 0.0
O334 O 0.97228 0.02453 0.45111 0.0
O335 O 0.01088 0.06174 0.45472 0.0
O336 O 0.04821 0.07511 0.51855 0.0
O337 O 0.04807 0.0314 0.52251 0.0
C338 C 0.96308 0.97412 0.53839 0.0
O339 O 0.98859 0.9787 0.53272 0.0
O340 O 0.94878 0.98192 0.52479 0.0
O341 O 0.08772 0.96349 0.48807 0.0
O342 O 0.05139 0.92259 0.4846 0.0
O343 O 0.05983 0.97774 0.54347 0.0
C344 C 0.07694 0.93625 0.48192 0.0
O345 O 0.02123 0.9407 0.54187 0.0
O346 O 0.98095 0.92681 0.48053 0.0
C347 C 0.04202 0.95758 0.55398 0.0
O348 O 0.98118 0.96972 0.47354 0.0
O349 O 0.03975 0.02257 0.46291 0.0
O350 O 0.0802 0.02066 0.4701 0.0
C351 C 0.44413 0.05606 0.05432 0.0
C352 C 0.4743 0.05535 0.97418 0.0
C353 C 0.46167 0.94481 0.97105 0.0
Mg354 Mg 0.50076 0.06031 0.02574 0.0
O355 O 0.48741 0.02019 0.024 0.0
Mg356 Mg 0.45089 6e-05 0.00874 0.0
Mg357 Mg 0.50852 0.99621 0.00302 0.0
O358 O 0.52995 0.97278 0.98152 0.0
Mg359 Mg 0.51745 0.93258 0.97763 0.0
Mg360 Mg 0.56682 0.99336 0.99599 0.0
C361 C 0.55593 0.04776 0.03381 0.0
C362 C 0.55311 0.03662 0.96436 0.0
O363 O 0.43383 0.03172 0.03987 0.0
O364 O 0.46982 0.07 0.05331 0.0
O365 O 0.45807 0.03101 0.97906 0.0
O366 O 0.49364 0.0705 0.98892 0.0
O367 O 0.54252 0.06515 0.03508 0.0
O368 O 0.54566 0.02087 0.02559 0.0
C369 C 0.46311 0.95746 0.0426 0.0
O370 O 0.48779 0.96385 0.03288 0.0
O371 O 0.44664 0.969 0.0368 0.0
O372 O 0.58453 0.96336 0.96356 0.0
O373 O 0.54923 0.92458 0.9497 0.0
O374 O 0.56041 0.96068 0.02374 0.0
C375 C 0.57479 0.9392 0.94871 0.0
O376 O 0.52461 0.92144 0.01391 0.0
O377 O 0.47548 0.92764 0.96858 0.0
C378 C 0.54447 0.93603 0.02825 0.0
O379 O 0.4717 0.9714 0.9804 0.0
O380 O 0.5284 0.02863 0.9737 0.0
O381 O 0.57056 0.02602 0.96954 0.0
C382 C 0.95404 0.56992 0.04725 0.0
C383 C 0.98191 0.56445 0.96716 0.0
C384 C 0.96335 0.45114 0.97007 0.0
Mg385 Mg 1.01001 0.56963 0.01817 0.0
O386 O 0.99452 0.52979 0.01769 0.0
Mg387 Mg 0.95701 0.51082 0.00428 0.0
Mg388 Mg 0.01311 0.50154 1.00011 0.0
O389 O 0.03135 0.47311 0.98262 0.0
Mg390 Mg 0.01463 0.43356 0.98292 0.0
Mg391 Mg 0.06825 0.49115 0.99723 0.0
C392 C 0.06251 0.55224 0.02904 0.0
C393 C 0.06075 0.53132 0.95837 0.0
O394 O 0.94272 0.54505 0.03412 0.0
O395 O 0.97992 0.58288 0.04526 0.0
O396 O 0.96492 0.54078 0.97305 0.0
O397 O 1.0026 0.57856 0.98071 0.0
O398 O 0.05097 0.57096 0.02819 0.0
O399 O 0.05056 0.52512 0.0228 0.0
C400 C 0.96661 0.47082 0.04228 0.0
O401 O 0.99059 0.4741 0.03199 0.0
O402 O 0.95113 0.48261 0.0351 0.0
O403 O 0.08207 0.45543 0.96839 0.0
O404 O 0.04413 0.4184 0.95752 0.0
O405 O 0.05841 0.4619 0.02922 0.0
C406 C 0.07011 0.43036 0.95581 0.0
O407 O 0.02018 0.42505 0.02092 0.0
O408 O 0.97474 0.43233 0.97089 0.0
C409 C 0.04041 0.43878 0.0351 0.0
O410 O 0.97521 0.47802 0.97765 0.0
O411 O 0.03666 0.52895 0.96818 0.0
O412 O 0.07543 0.5189 0.966 0.0
C413 C 0.44465 0.54711 0.00575 0.0
C414 C 0.49403 0.54173 0.93816 0.0
C415 C 0.48215 0.43628 0.95882 0.0
Mg416 Mg 0.50646 0.55587 0.99574 0.0
O417 O 0.49241 0.51714 1.00005 0.0
Mg418 Mg 0.46232 0.49093 0.97763 0.0
Mg419 Mg 0.51742 0.49454 0.99373 0.0
O420 O 0.54236 0.47185 0.98724 0.0
Mg421 Mg 0.5272 0.43398 0.99397 0.0
Mg422 Mg 0.57335 0.4985 0.00834 0.0
C423 C 0.55273 0.55338 0.02972 0.0
C424 C 0.57065 0.52839 0.95849 0.0
O425 O 0.43829 0.52088 0.9951 0.0
O426 O 0.46933 0.56382 0.00847 0.0
O427 O 0.4769 0.51788 0.9436 0.0
O428 O 0.51044 0.5589 0.95484 0.0
O429 O 0.54066 0.56845 0.02166 0.0
O430 O 0.54597 0.52629 0.02257 0.0
C431 C 0.46276 0.45986 0.02757 0.0
O432 O 0.48892 0.46763 0.02496 0.0
O433 O 0.44904 0.46612 0.01217 0.0
O434 O 0.59647 0.46668 0.99148 0.0
O435 O 0.56325 0.42393 0.98221 0.0
O436 O 0.55957 0.47415 0.04347 0.0
C437 C 0.58835 0.43963 0.98334 0.0
O438 O 0.52433 0.43397 0.03548 0.0
O439 O 0.49302 0.4208 0.96791 0.0
C440 C 0.54176 0.45182 0.05092 0.0
O441 O 0.48995 0.46351 0.96448 0.0
O442 O 0.5447 0.52067 0.96241 0.0
O443 O 0.58542 0.52232 0.97299 0.0
C444 C 0.94684 0.55862 0.55445 0.0
C445 C 0.97483 0.55534 0.47375 0.0
C446 C 0.96212 0.44419 0.47357 0.0
Mg447 Mg 1.00283 0.56151 0.52453 0.0
O448 O 0.98936 0.52153 0.52376 0.0
Mg449 Mg 0.95221 0.50113 0.50993 0.0
Mg450 Mg 1.00986 0.49632 0.50372 0.0
O451 O 0.03056 0.47128 0.48354 0.0
Mg452 Mg 0.01756 0.43128 0.48136 0.0
Mg453 Mg 0.0677 0.49191 0.49732 0.0
C454 C 0.05804 0.54883 0.53268 0.0
C455 C 0.0541 0.53189 0.46141 0.0
O456 O 0.93611 0.53371 0.54101 0.0
O457 O 0.97249 0.57247 0.55223 0.0
O458 O 0.95865 0.53139 0.4797 0.0
O459 O 0.99505 0.57048 0.48747 0.0
O460 O 0.04466 0.56617 0.53346 0.0
O461 O 0.04756 0.52173 0.52536 0.0
C462 C 0.9646 0.4596 0.54474 0.0
O463 O 0.98924 0.4657 0.53502 0.0
O464 O 0.94822 0.47102 0.53861 0.0
O465 O 0.08456 0.45991 0.46659 0.0
O466 O 0.04882 0.4212 0.45374 0.0
O467 O 0.0611 0.46139 0.5276 0.0
C468 C 0.07449 0.43534 0.45247 0.0
O469 O 0.02476 0.42238 0.51865 0.0
O470 O 0.97581 0.42699 0.47205 0.0
C471 C 0.04462 0.43724 0.53293 0.0
O472 O 0.97229 0.47108 0.48196 0.0
O473 O 0.02994 0.52636 0.47217 0.0
O474 O 0.07103 0.52122 0.46772 0.0
C475 C 0.45515 0.07009 0.55096 0.0
C476 C 0.48317 0.06572 0.47041 0.0
C477 C 0.46471 0.95298 0.47047 0.0
Mg478 Mg 0.51093 0.07005 0.5214 0.0
O479 O 0.49559 0.03019 0.52022 0.0
Mg480 Mg 0.45811 0.01161 0.5068 0.0
Mg481 Mg 0.51439 0.0027 0.50122 0.0
O482 O 0.53303 0.9753 0.48212 0.0
Mg483 Mg 0.51707 0.93534 0.47988 0.0
Mg484 Mg 0.57015 0.9932 0.49644 0.0
C485 C 0.56367 0.05272 0.53153 0.0
C486 C 0.56147 0.036 0.46072 0.0
O487 O 0.4437 0.04548 0.53742 0.0
O488 O 0.48105 0.08285 0.54899 0.0
O489 O 0.4659 0.04217 0.47623 0.0
O490 O 0.50394 0.07947 0.48396 0.0
O491 O 0.5516 0.07117 0.53164 0.0
O492 O 0.55217 0.02577 0.52379 0.0
C493 C 0.46876 0.97081 0.54356 0.0
O494 O 0.49253 0.97408 0.53266 0.0
O495 O 0.45303 0.98277 0.53706 0.0
O496 O 0.58451 0.95889 0.46573 0.0
O497 O 0.54686 0.92289 0.4522 0.0
O498 O 0.56085 0.96187 0.52643 0.0
C499 C 0.57288 0.93488 0.45129 0.0
O500 O 0.5233 0.92452 0.51684 0.0
O501 O 0.47645 0.93413 0.46965 0.0
C502 C 0.54339 0.938 0.53127 0.0
O503 O 0.47639 0.97962 0.47902 0.0
O504 O 0.53686 0.03147 0.46992 0.0
O505 O 0.57676 0.02371 0.46757 0.0
H506 H 0.23869 0.18432 0.31312 0.0
H507 H 0.20668 0.15014 0.339 0.0
H508 H 0.14275 0.13867 0.28867 0.0
H509 H 0.17492 0.17315 0.26243 0.0
H510 H 0.12711 0.1476 0.34123 0.0
H511 H 0.16717 0.08568 0.28611 0.0
H512 H 0.20465 0.07071 0.26369 0.0
H513 H 0.23522 0.07255 0.33697 0.0
H514 H 0.19814 0.08793 0.35985 0.0
H515 H 0.04137 0.03808 0.4165 0.0
H516 H 0.06442 0.06432 0.38048 0.0
H517 H 0.14205 0.0796 0.41123 0.0
H518 H 0.1194 0.05346 0.44671 0.0
H519 H 0.14525 0.06376 0.36191 0.0
H520 H 0.10923 0.13092 0.41695 0.0
H521 H 0.0742 0.14951 0.44002 0.0
H522 H 0.03782 0.14046 0.36804 0.0
H523 H 0.07224 0.12114 0.34462 0.0
C524 C 0.2179 0.17437 0.30729 0.0
C525 C 0.20944 0.18151 0.28559 0.0
C526 C 0.19959 0.15471 0.32213 0.0
C527 C 0.17228 0.14165 0.31577 0.0
C528 C 0.16373 0.14842 0.29395 0.0
C529 C 0.18219 0.16797 0.27885 0.0
C530 C 0.1528 0.12175 0.33262 0.0
C531 C 0.13067 0.12887 0.34536 0.0
C532 C 0.15771 0.09761 0.33838 0.0
C533 C 0.17994 0.08812 0.32469 0.0
C534 C 0.18198 0.08307 0.29745 0.0
C535 C 0.20314 0.07449 0.28466 0.0
C536 C 0.22232 0.07072 0.29889 0.0
C537 C 0.22034 0.07547 0.32596 0.0
C538 C 0.19923 0.08408 0.33885 0.0
C539 C 0.06332 0.04723 0.41565 0.0
C540 C 0.07843 0.04364 0.43464 0.0
C541 C 0.07652 0.06225 0.39501 0.0
C542 C 0.1051 0.07416 0.39306 0.0
C543 C 0.12006 0.07054 0.41205 0.0
C544 C 0.10697 0.05552 0.43245 0.0
C545 C 0.11996 0.09009 0.37132 0.0
C546 C 0.14128 0.08218 0.35755 0.0
C547 C 0.11439 0.11362 0.36482 0.0
C548 C 0.0931 0.12421 0.37907 0.0
C549 C 0.09353 0.1325 0.40609 0.0
C550 C 0.07383 0.14325 0.41922 0.0
C551 C 0.05381 0.14618 0.40551 0.0
C552 C 0.05333 0.13817 0.37865 0.0
C553 C 0.07288 0.12724 0.36545 0.0
H554 H 0.03861 0.15458 0.4157 0.0
H555 H 0.2387 0.06408 0.28895 0.0
H556 H 0.90504 0.15117 0.27361 0.0
H557 H 0.93043 0.12877 0.29398 0.0
H558 H 0.86402 0.10325 0.35046 0.0
H559 H 0.83824 0.12512 0.32993 0.0
H560 H 0.91156 0.12988 0.37322 0.0
H561 H 0.87771 0.0542 0.30323 0.0
H562 H 0.86987 0.03268 0.25758 0.0
H563 H 0.95602 0.05712 0.24059 0.0
H564 H 0.96438 0.07914 0.28609 0.0
H565 H 0.95525 0.01141 0.40483 0.0
H566 H 0.93595 0.0283 0.3731 0.0
H567 H 0.99313 0.11332 0.39208 0.0
H568 H 0.01261 0.09661 0.42385 0.0
H569 H 0.95071 0.05614 0.33036 0.0
H570 H 0.95808 0.15992 0.39931 0.0
H571 H 0.96149 0.17954 0.44577 0.0
H572 H 0.92255 0.09504 0.46584 0.0
H573 H 0.9187 0.07498 0.4195 0.0
C574 C 0.89552 0.14025 0.29001 0.0
C575 C 0.86952 0.14006 0.30012 0.0
C576 C 0.91015 0.1275 0.30169 0.0
C577 C 0.89914 0.11425 0.32373 0.0
C578 C 0.873 0.11346 0.33353 0.0
C579 C 0.85832 0.1261 0.32182 0.0
C580 C 0.91544 0.10281 0.3376 0.0
C581 C 0.92017 0.11382 0.36376 0.0
C582 C 0.92666 0.08178 0.32536 0.0
C583 C 0.92167 0.06858 0.29801 0.0
C584 C 0.89499 0.05521 0.28971 0.0
C585 C 0.89045 0.04287 0.26387 0.0
C586 C 0.91243 0.0436 0.24618 0.0
C587 C 0.93901 0.05661 0.25431 0.0
C588 C 0.94366 0.069 0.28012 0.0
C589 C 0.96437 0.03352 0.40164 0.0
C590 C 0.98531 0.05275 0.41713 0.0
C591 C 0.95327 0.04315 0.38347 0.0
C592 C 0.96274 0.07221 0.38058 0.0
C593 C 0.98535 0.09086 0.39418 0.0
C594 C 0.99662 0.08121 0.41222 0.0
C595 C 0.94697 0.08346 0.36588 0.0
C596 C 0.94233 0.07243 0.33965 0.0
C597 C 0.93554 0.10432 0.37807 0.0
C598 C 0.93836 0.11596 0.40597 0.0
C599 C 0.95029 0.14555 0.41366 0.0
C600 C 0.95229 0.15674 0.43995 0.0
C601 C 0.94228 0.13856 0.45873 0.0
C602 C 0.93038 0.1091 0.45127 0.0
C603 C 0.92833 0.0978 0.42499 0.0
H604 H 0.94363 0.14738 0.47905 0.0
H605 H 0.90888 0.03403 0.22619 0.0
H606 H 0.81281 0.84126 0.2789 0.0
H607 H 0.8393 0.87301 0.31473 0.0
H608 H 0.86791 0.80606 0.32711 0.0
H609 H 0.84192 0.77436 0.2913 0.0
H610 H 0.84026 0.82832 0.37095 0.0
H611 H 0.91084 0.86065 0.30441 0.0
H612 H 0.92962 0.88145 0.26436 0.0
H613 H 0.91282 0.9581 0.29686 0.0
H614 H 0.89355 0.93757 0.33699 0.0
H615 H 0.94528 0.8851 0.45705 0.0
H616 H 0.91251 0.86239 0.42375 0.0
H617 H 0.90787 0.94444 0.41618 0.0
H618 H 0.94148 0.96752 0.44885 0.0
H619 H 0.91791 0.9192 0.3711 0.0
H620 H 0.85267 0.89077 0.43936 0.0
H621 H 0.83289 0.87114 0.47973 0.0
H622 H 0.83692 0.78903 0.44521 0.0
H623 H 0.85719 0.80825 0.40477 0.0
C624 C 0.82531 0.83355 0.2888 0.0
C625 C 0.82497 0.80517 0.28253 0.0
C626 C 0.84034 0.85168 0.30928 0.0
C627 C 0.85514 0.84161 0.32365 0.0
C628 C 0.85632 0.81401 0.31631 0.0
C629 C 0.84154 0.79599 0.29578 0.0
C630 C 0.86757 0.85874 0.34768 0.0
C631 C 0.85739 0.84811 0.37109 0.0
C632 C 0.88894 0.88516 0.34774 0.0
C633 C 0.9004 0.89741 0.32356 0.0
C634 C 0.91085 0.8818 0.30291 0.0
C635 C 0.92166 0.89358 0.28022 0.0
C636 C 0.92231 0.92103 0.27802 0.0
C637 C 0.91223 0.93681 0.29855 0.0
C638 C 0.90137 0.92511 0.32127 0.0
C639 C 0.93688 0.89831 0.44878 0.0
C640 C 0.94628 0.92821 0.45545 0.0
C641 C 0.91796 0.88524 0.4298 0.0
C642 C 0.90767 0.90172 0.41752 0.0
C643 C 0.91563 0.93134 0.42537 0.0
C644 C 0.93479 0.94449 0.44416 0.0
C645 C 0.89123 0.88835 0.39454 0.0
C646 C 0.9005 0.89969 0.37124 0.0
C647 C 0.86874 0.86274 0.39465 0.0
C648 C 0.8566 0.85103 0.41901 0.0
C649 C 0.84955 0.86858 0.44041 0.0
C650 C 0.83821 0.85751 0.46332 0.0
C651 C 0.83361 0.82885 0.46502 0.0
C652 C 0.84043 0.81122 0.44385 0.0
C653 C 0.85183 0.82218 0.42091 0.0
H654 H 0.82477 0.82031 0.48274 0.0
H655 H 0.93071 0.93012 0.26045 0.0
H656 H 0.13373 0.74408 0.32142 0.0
H657 H 0.12516 0.7632 0.36578 0.0
H658 H 0.07645 0.80543 0.33969 0.0
H659 H 0.08458 0.78598 0.29484 0.0
H660 H 0.14259 0.83234 0.36364 0.0
H661 H 0.04241 0.77686 0.37157 0.0
H662 H 1.00391 0.73296 0.3778 0.0
H663 H 0.03955 0.72533 0.44496 0.0
H664 H 0.07844 0.76895 0.43892 0.0
H665 H 0.10412 0.94093 0.43553 0.0
H666 H 0.11817 0.90354 0.40875 0.0
H667 H 0.10147 0.8564 0.47366 0.0
H668 H 0.08547 0.89312 0.49983 0.0
H669 H 0.07523 0.82371 0.43805 0.0
H670 H 0.16734 0.8792 0.43956 0.0
H671 H 0.20908 0.92128 0.43882 0.0
H672 H 0.19649 0.92587 0.36035 0.0
H673 H 0.15446 0.8841 0.36069 0.0
C674 C 0.11974 0.75585 0.32501 0.0
C675 C 0.11036 0.76406 0.30444 0.0
C676 C 0.11484 0.76675 0.35059 0.0
C677 C 0.10011 0.78552 0.35596 0.0
C678 C 0.0876 0.79059 0.33585 0.0
C679 C 0.09243 0.77965 0.31022 0.0
C680 C 0.10471 0.80609 0.37995 0.0
C681 C 0.12795 0.83066 0.38004 0.0
C682 C 0.08655 0.80271 0.40184 0.0
C683 C 0.06366 0.77582 0.40443 0.0
C684 C 0.04237 0.7655 0.3873 0.0
C685 C 0.02034 0.74077 0.39094 0.0
C686 C 0.01931 0.72638 0.41176 0.0
C687 C 0.04039 0.73649 0.42884 0.0
C688 C 0.06239 0.76119 0.42531 0.0
C689 C 0.10458 0.92315 0.44428 0.0
C690 C 0.09382 0.91964 0.46952 0.0
C691 C 0.11275 0.90176 0.42904 0.0
C692 C 0.11095 0.877 0.43913 0.0
C693 C 0.10287 0.87514 0.46536 0.0
C694 C 0.09395 0.89615 0.48035 0.0
C695 C 0.11232 0.85135 0.42117 0.0
C696 C 0.09044 0.82554 0.42214 0.0
C697 C 0.1323 0.85322 0.40063 0.0
C698 C 0.15764 0.87846 0.4002 0.0
C699 C 0.17336 0.88927 0.42218 0.0
C700 C 0.1971 0.91307 0.42183 0.0
C701 C 0.20543 0.92625 0.39956 0.0
C702 C 0.19004 0.91562 0.37758 0.0
C703 C 0.16628 0.89182 0.37783 0.0
H704 H 0.22381 0.94468 0.39932 0.0
H705 H 1.0021 0.70752 0.41484 0.0
H706 H 0.1093 0.81468 0.70061 0.0
H707 H 0.08539 0.83864 0.68036 0.0
H708 H 0.16189 0.90168 0.66116 0.0
H709 H 0.18598 0.8784 0.68234 0.0
H710 H 0.12431 0.92671 0.67903 0.0
H711 H 0.12784 0.84652 0.61557 0.0
H712 H 0.12064 0.79566 0.59948 0.0
H713 H 0.03475 0.77498 0.61644 0.0
H714 H 0.0415 0.8257 0.63295 0.0
H715 H 0.08983 0.98173 0.57826 0.0
H716 H 0.10654 0.96195 0.60903 0.0
H717 H 0.02767 0.89703 0.61579 0.0
H718 H 0.01112 0.91578 0.58324 0.0
H719 H 0.06305 0.87259 0.608 0.0
H720 H 0.05939 0.9547 0.66768 0.0
H721 H 0.06738 0.00619 0.68106 0.0
H722 H 0.15356 0.02407 0.67038 0.0
H723 H 0.14612 0.97275 0.65665 0.0
C724 C 0.1211 0.8338 0.69231 0.0
C725 C 0.14965 0.84457 0.69316 0.0
C726 C 0.10737 0.84737 0.68052 0.0
C727 C 0.1218 0.87187 0.669 0.0
C728 C 0.15027 0.8828 0.6699 0.0
C729 C 0.16406 0.86926 0.68176 0.0
C730 C 0.10722 0.88579 0.65567 0.0
C731 C 0.11104 0.91496 0.66338 0.0
C732 C 0.08929 0.87033 0.63572 0.0
C733 C 0.08521 0.83985 0.62575 0.0
C734 C 0.10745 0.83109 0.61606 0.0
C735 C 0.10344 0.8023 0.60683 0.0
C736 C 0.07726 0.78209 0.60701 0.0
C737 C 0.05502 0.79065 0.61636 0.0
C738 C 0.05892 0.81942 0.62563 0.0
C739 C 0.07567 0.96365 0.58666 0.0
C740 C 0.04911 0.9502 0.57794 0.0
C741 C 0.08532 0.9524 0.60457 0.0
C742 C 0.06843 0.92802 0.61511 0.0
C743 C 0.04123 0.91579 0.60792 0.0
C744 C 0.03168 0.92667 0.58945 0.0
C745 C 0.08008 0.9137 0.63122 0.0
C746 C 0.07585 0.88438 0.62398 0.0
C747 C 0.09759 0.92908 0.6516 0.0
C748 C 0.10216 0.95984 0.661 0.0
C749 C 0.08005 0.9696 0.66816 0.0
C750 C 0.08448 -0.00123 0.67579 0.0
C751 C 0.11096 0.01838 0.67649 0.0
C752 C 0.13307 0.00885 0.66981 0.0
C753 C 0.12875 0.97971 0.66218 0.0
H754 H 0.11435 0.04095 0.68217 0.0
H755 H 0.0742 0.7598 0.59985 0.0
H756 H 0.16638 0.19933 0.72296 0.0
H757 H 0.13752 0.16417 0.69095 0.0
H758 H 0.18374 0.10837 0.69128 0.0
H759 H 0.21314 0.14388 0.72332 0.0
H760 H 0.18309 0.11999 0.64396 0.0
H761 H 0.11668 0.08675 0.70898 0.0
H762 H 0.08617 0.08778 0.74785 0.0
H763 H 0.04394 0.12872 0.71094 0.0
H764 H 0.07438 0.12828 0.6719 0.0
H765 H 0.09276 0.03446 0.54174 0.0
H766 H 0.1186 0.05 0.58082 0.0
H767 H 0.09631 0.12598 0.59652 0.0
H768 H 0.07038 0.11065 0.55744 0.0
H769 H 0.0833 0.09107 0.63791 0.0
H770 H 0.15799 0.13378 0.57797 0.0
H771 H 0.1886 0.13218 0.53914 0.0
H772 H 0.21472 0.07165 0.56794 0.0
H773 H 0.18395 0.07261 0.60681 0.0
C774 C 0.16998 0.17926 0.71679 0.0
C775 C 0.19222 0.17449 0.72534 0.0
C776 C 0.15331 0.15904 0.69861 0.0
C777 C 0.15848 0.13364 0.68876 0.0
C778 C 0.17943 0.12785 0.6987 0.0
C779 C 0.19612 0.1481 0.71705 0.0
C780 C 0.14482 0.1159 0.66535 0.0
C781 C 0.16118 0.11288 0.64282 0.0
C782 C 0.11628 0.10692 0.66383 0.0
C783 C 0.09789 0.10743 0.68739 0.0
C784 C 0.10097 0.09608 0.70912 0.0
C785 C 0.08367 0.09655 0.73122 0.0
C786 C 0.06312 0.10829 0.73187 0.0
C787 C 0.05984 0.11958 0.7104 0.0
C788 C 0.07708 0.11916 0.68824 0.0
C789 C 0.09377 0.05474 0.55316 0.0
C790 C 0.07929 0.07118 0.54657 0.0
C791 C 0.10852 0.06354 0.57551 0.0
C792 C 0.10893 0.08886 0.59161 0.0
C793 C 0.09591 0.10619 0.58434 0.0
C794 C 0.08139 0.09756 0.56185 0.0
C795 C 0.12175 0.09674 0.61673 0.0
C796 C 0.10513 0.09759 0.6394 0.0
C797 C 0.14998 0.10356 0.61845 0.0
C798 C 0.16843 0.10297 0.5951 0.0
C799 C 0.17006 0.11991 0.57589 0.0
C800 C 0.18748 0.11917 0.55391 0.0
C801 C 0.20353 0.10174 0.55103 0.0
C802 C 0.20224 0.08509 0.57017 0.0
C803 C 0.18482 0.08573 0.59218 0.0
H804 H 0.21701 0.10121 0.53401 0.0
H805 H 0.04975 0.10864 0.749 0.0
H806 H 0.90963 0.1891 0.71053 0.0
H807 H 0.9221 0.17221 0.66595 0.0
H808 H 0.87867 0.21831 0.63694 0.0
H809 H 0.86601 0.23516 0.68131 0.0
H810 H 0.86189 0.15958 0.6177 0.0
H811 H 0.94271 0.24037 0.62517 0.0
H812 H 0.98391 0.27491 0.64553 0.0
H813 H 0.0169 0.20772 0.64322 0.0
H814 H 0.97572 0.17267 0.62318 0.0
H815 H 0.96188 0.12072 0.50503 0.0
H816 H 0.94273 0.15431 0.53188 0.0
H817 H 0.89083 0.0865 0.57337 0.0
H818 H 0.90913 0.0525 0.54554 0.0
H819 H 0.95401 0.16621 0.57978 0.0
H820 H 0.84049 0.1054 0.60825 0.0
H821 H 0.79922 0.07226 0.58704 0.0
H822 H 0.83108 0.10246 0.51454 0.0
H823 H 0.87238 0.13611 0.53537 0.0
C824 C 0.90335 0.19616 0.69463 0.0
C825 C 0.88693 0.2134 0.69932 0.0
C826 C 0.91047 0.18658 0.66926 0.0
C827 C 0.90111 0.194 0.64834 0.0
C828 C 0.88595 0.21241 0.65294 0.0
C829 C 0.87904 0.22222 0.67828 0.0
C830 C 0.90499 0.18015 0.62186 0.0
C831 C 0.88197 0.16116 0.6091 0.0
C832 C 0.93119 0.18289 0.61066 0.0
C833 C 0.95603 0.20386 0.62277 0.0
C834 C 0.95865 0.23291 0.62918 0.0
C835 C 0.98202 0.25259 0.64064 0.0
C836 C 1.00299 0.24351 0.64569 0.0
C837 C 1.00064 0.21472 0.63928 0.0
C838 C 0.9773 0.19494 0.62784 0.0
C839 C 0.94556 0.1128 0.51919 0.0
C840 C 0.9371 0.08423 0.52352 0.0
C841 C 0.93467 0.13198 0.5345 0.0
C842 C 0.9156 0.12301 0.55478 0.0
C843 C 0.9053 0.09385 0.55761 0.0
C844 C 0.91581 0.07443 0.54181 0.0
C845 C 0.91087 0.14461 0.5758 0.0
C846 C 0.9338 0.165 0.58777 0.0
C847 C 0.88456 0.14327 0.58607 0.0
C848 C 0.85965 0.12321 0.57339 0.0
C849 C 0.83865 0.10512 0.58782 0.0
C850 C 0.81525 0.0862 0.57585 0.0
C851 C 0.81255 0.08521 0.54945 0.0
C852 C 0.83323 0.10318 0.53497 0.0
C853 C 0.85667 0.12215 0.54685 0.0
H854 H 0.79442 0.07055 0.54021 0.0
H855 H 0.02108 0.25879 0.65455 0.0
H856 H 0.85239 0.81993 0.72395 0.0
H857 H 0.88287 0.85079 0.69427 0.0
H858 H 0.81377 0.85516 0.65984 0.0
H859 H 0.78308 0.82406 0.68933 0.0
H860 H 0.84991 0.84375 0.62307 0.0
H861 H 0.85427 0.91222 0.70026 0.0
H862 H 0.86183 0.93156 0.74638 0.0
H863 H 0.94433 0.93281 0.73536 0.0
H864 H 0.93715 0.9131 0.68922 0.0
H865 H 0.90868 0.95606 0.55103 0.0
H866 H 0.88406 0.92761 0.58443 0.0
H867 H 0.95938 0.92655 0.60894 0.0
H868 H 0.98461 0.9558 0.57542 0.0
H869 H 0.92354 0.93473 0.65078 0.0
H870 H 0.92055 0.86855 0.57385 0.0
H871 H 0.91411 0.85004 0.52746 0.0
H872 H 0.83023 0.84395 0.53782 0.0
H873 H 0.83626 0.86284 0.58427 0.0
C874 C 0.84359 0.82768 0.71029 0.0
C875 C 0.81516 0.81946 0.70916 0.0
C876 C 0.86113 0.84543 0.69331 0.0
C877 C 0.85072 0.85551 0.6748 0.0
C878 C 0.82236 0.84768 0.67389 0.0
C879 C 0.8048 0.82999 0.69091 0.0
C880 C 0.86928 0.87333 0.65582 0.0
C881 C 0.86577 0.8638 0.6292 0.0
C882 C 0.89073 0.89903 0.66364 0.0
C883 C 0.89508 0.91089 0.69136 0.0
C884 C 0.87396 0.91639 0.70772 0.0
C885 C 0.87819 0.92746 0.73386 0.0
C886 C 0.90352 0.93333 0.74381 0.0
C887 C 0.92471 0.92821 0.72763 0.0
C888 C 0.92057 0.9171 0.70148 0.0
C889 C 0.92026 0.95004 0.5635 0.0
C890 C 0.94878 0.95807 0.56016 0.0
C891 C 0.90601 0.93357 0.58263 0.0
C892 C 0.91973 0.92446 0.59898 0.0
C893 C 0.94829 0.93315 0.59644 0.0
C894 C 0.96269 0.94973 0.57713 0.0
C895 C 0.90378 0.90536 0.61816 0.0
C896 C 0.90778 0.91457 0.64472 0.0
C897 C 0.88287 0.87924 0.61034 0.0
C898 C 0.87892 0.86732 0.58252 0.0
C899 C 0.90076 0.86342 0.56622 0.0
C900 C 0.89718 0.85284 0.53992 0.0
C901 C 0.87179 0.84587 0.5297 0.0
C902 C 0.84989 0.84937 0.54578 0.0
C903 C 0.85337 0.85997 0.57211 0.0
H904 H 0.86911 0.83771 0.50933 0.0
H905 H 0.90676 0.94191 0.76405 0.0
H906 H 0.33147 0.20307 0.22857 0.0
H907 H 0.3563 0.17537 0.20034 0.0
H908 H 0.29573 0.15106 0.14353 0.0
H909 H 0.27107 0.17951 0.17141 0.0
H910 H 0.31412 0.10387 0.15549 0.0
H911 H 0.34889 0.1978 0.12951 0.0
H912 H 0.36849 0.25043 0.1376 0.0
H913 H 0.4381 0.24492 0.16953 0.0
H914 H 0.41866 0.19222 0.16205 0.0
H915 H 0.38869 0.04436 0.0529 0.0
H916 H 0.36035 0.06901 0.0798 0.0
H917 H 0.42982 0.12251 0.12341 0.0
H918 H 0.45833 0.09887 0.09583 0.0
H919 H 0.40511 0.15494 0.11761 0.0
H920 H 0.37221 0.06331 0.14634 0.0
H921 H 0.35327 0.0107 0.14229 0.0
H922 H 0.2818 0.01114 0.10983 0.0
H923 H 0.30048 0.06376 0.11339 0.0
C924 C 0.32321 0.19171 0.21017 0.0
C925 C 0.29908 0.19364 0.20243 0.0
C926 C 0.33755 0.17586 0.19395 0.0
C927 C 0.32802 0.16098 0.16967 0.0
C928 C 0.30357 0.16221 0.16214 0.0
C929 C 0.28948 0.1786 0.17813 0.0
C930 C 0.34412 0.14507 0.15197 0.0
C931 C 0.33385 0.11504 0.14688 0.0
C932 C 0.37028 0.15939 0.14128 0.0
C933 C 0.38218 0.19106 0.14546 0.0
C934 C 0.36826 0.2078 0.13846 0.0
C935 C 0.37936 0.23765 0.1429 0.0
C936 C 0.40449 0.25101 0.15413 0.0
C937 C 0.41862 0.23454 0.16086 0.0
C938 C 0.40757 0.20468 0.15652 0.0
C939 C 0.39791 0.0612 0.06837 0.0
C940 C 0.42595 0.06938 0.07208 0.0
C941 C 0.38156 0.07533 0.08396 0.0
C942 C 0.39253 0.09769 0.10423 0.0
C943 C 0.4205 0.10558 0.10805 0.0
C944 C 0.4369 0.09182 0.09222 0.0
C945 C 0.37533 0.11335 0.12102 0.0
C946 C 0.38539 0.14351 0.12605 0.0
C947 C 0.34917 0.09906 0.13205 0.0
C948 C 0.33788 0.06744 0.12986 0.0
C949 C 0.35255 0.05217 0.13816 0.0
C950 C 0.34184 0.02235 0.13598 0.0
C951 C 0.31638 0.00758 0.12574 0.0
C952 C 0.30154 0.02261 0.11772 0.0
C953 C 0.31216 0.05243 0.11982 0.0
H954 H 0.30813 0.98449 0.12407 0.0
H955 H 0.41305 0.27412 0.15756 0.0
H956 H 0.80607 0.3373 0.20917 0.0
H957 H 0.83842 0.36752 0.18027 0.0
H958 H 0.87347 0.3013 0.15436 0.0
H959 H 0.84154 0.27106 0.18369 0.0
H960 H 0.91269 0.35332 0.16033 0.0
H961 H 0.82965 0.30998 0.11727 0.0
H962 H 0.78023 0.29493 0.11251 0.0
H963 H 0.78452 0.38276 0.12531 0.0
H964 H 0.83392 0.39833 0.13053 0.0
H965 H 0.97589 0.42191 0.04752 0.0
H966 H 0.95187 0.38815 0.07777 0.0
H967 H 0.90828 0.44469 0.11279 0.0
H968 H 0.93179 0.47799 0.0824 0.0
H969 H 0.87448 0.3921 0.09865 0.0
H970 H 0.95902 0.43427 0.14378 0.0
H971 H 1.0087 0.44739 0.14551 0.0
H972 H 1.00189 0.35912 0.12498 0.0
H973 H 0.95216 0.34549 0.12283 0.0
C974 C 0.82065 0.32912 0.19737 0.0
C975 C 0.82102 0.30165 0.19855 0.0
C976 C 0.83915 0.34643 0.18086 0.0
C977 C 0.85808 0.33646 0.1649 0.0
C978 C 0.85901 0.30937 0.1665 0.0
C979 C 0.84063 0.29208 0.18318 0.0
C980 C 0.87605 0.35402 0.14586 0.0
C981 C 0.90438 0.36156 0.14661 0.0
C982 C 0.86517 0.36456 0.12787 0.0
C983 C 0.83547 0.35531 0.12449 0.0
C984 C 0.82003 0.32608 0.11924 0.0
C985 C 0.79202 0.31746 0.11644 0.0
C986 C 0.77923 0.33787 0.11866 0.0
C987 C 0.79445 0.36697 0.12361 0.0
C988 C 0.82246 0.37571 0.12647 0.0
C989 C 0.96172 0.42738 0.06211 0.0
C990 C 0.95565 0.45246 0.06264 0.0
C991 C 0.94794 0.40808 0.07933 0.0
C992 C 0.92825 0.41392 0.0975 0.0
C993 C 0.92324 0.43967 0.0988 0.0
C994 C 0.93671 0.45869 0.08147 0.0
C995 C 0.91114 0.39254 0.11391 0.0
C996 C 0.88285 0.38391 0.11237 0.0
C997 C 0.92213 0.38079 0.13083 0.0
C998 C 0.9519 0.38889 0.13296 0.0
C999 C 0.96813 0.41766 0.13955 0.0
C1000 C 0.99628 0.42519 0.1406 0.0
C1001 C 1.00843 0.40411 0.13532 0.0
C1002 C 0.99243 0.37542 0.12908 0.0
C1003 C 0.96426 0.36778 0.12797 0.0
H1004 H 0.03023 0.41 0.13611 0.0
H1005 H 0.75755 0.33115 0.11649 0.0
H1006 H 0.67306 0.80101 0.11304 0.0
H1007 H 0.64306 0.81856 0.09327 0.0
H1008 H 0.62941 0.86572 0.16705 0.0
H1009 H 0.65899 0.8478 0.18712 0.0
H1010 H 0.58215 0.84117 0.1395 0.0
H1011 H 0.67612 0.89866 0.12492 0.0
H1012 H 0.72401 0.90747 0.10978 0.0
H1013 H 0.69948 0.87202 0.03212 0.0
H1014 H 0.65139 0.86254 0.04689 0.0
H1015 H 0.58327 0.96218 0.06374 0.0
H1016 H 0.6025 0.93941 0.09021 0.0
H1017 H 0.54293 0.85754 0.0648 0.0
H1018 H 0.52344 0.8802 0.03793 0.0
H1019 H 0.62564 0.89909 0.06914 0.0
H1020 H 0.53457 0.81636 0.11563 0.0
H1021 H 0.48692 0.81028 0.13025 0.0
H1022 H 0.50666 0.90146 0.14546 0.0
H1023 H 0.55443 0.90806 0.13151 0.0
C1024 C 0.66328 0.81467 0.1252 0.0
C1025 C 0.66864 0.82316 0.15165 0.0
C1026 C 0.64623 0.82481 0.11382 0.0
C1027 C 0.63416 0.84368 0.12861 0.0
C1028 C 0.63849 0.85121 0.15524 0.0
C1029 C 0.65564 0.84117 0.16663 0.0
C1030 C 0.61884 0.85728 0.11595 0.0
C1031 C 0.5916 0.85374 0.12405 0.0
C1032 C 0.63121 0.87397 0.09596 0.0
C1033 C 0.66013 0.87955 0.08708 0.0
C1034 C 0.68092 0.89247 0.10467 0.0
C1035 C 0.7081 0.89763 0.09614 0.0
C1036 C 0.71478 0.89021 0.07002 0.0
C1037 C 0.69428 0.87768 0.05236 0.0
C1038 C 0.66706 0.8724 0.0608 0.0
C1039 C 0.57383 0.93939 0.06405 0.0
C1040 C 0.55198 0.92297 0.04837 0.0
C1041 C 0.58497 0.9264 0.07918 0.0
C1042 C 0.57439 0.89675 0.07926 0.0
C1043 C 0.55142 0.88048 0.06503 0.0
C1044 C 0.54026 0.89349 0.04973 0.0
C1045 C 0.58893 0.88288 0.09251 0.0
C1046 C 0.61607 0.88635 0.08447 0.0
C1047 C 0.57649 0.86642 0.11261 0.0
C1048 C 0.54804 0.86267 0.12223 0.0
C1049 C 0.52877 0.8351 0.12229 0.0
C1050 C 0.50172 0.83157 0.13046 0.0
C1051 C 0.49372 0.85546 0.1387 0.0
C1052 C 0.51281 0.88294 0.13902 0.0
C1053 C 0.53988 0.88659 0.13098 0.0
H1054 H 0.47274 0.85267 0.14485 0.0
H1055 H 0.73584 0.89426 0.06346 0.0
H1056 H 0.19587 0.66086 0.21281 0.0
H1057 H 0.17668 0.63 0.17317 0.0
H1058 H 0.24931 0.67211 0.12906 0.0
H1059 H 0.26919 0.70236 0.16908 0.0
H1060 H 0.18789 0.67144 0.12055 0.0
H1061 H 0.24642 0.61613 0.11975 0.0
H1062 H 0.26778 0.58862 0.13942 0.0
H1063 H 0.18913 0.52843 0.15607 0.0
H1064 H 0.16727 0.55585 0.13685 0.0
H1065 H 0.10718 0.59631 0.01629 0.0
H1066 H 0.14931 0.61798 0.03954 0.0
H1067 H 0.11905 0.55447 0.09132 0.0
H1068 H 0.07827 0.53141 0.06652 0.0
H1069 H 0.1694 0.56819 0.0895 0.0
H1070 H 0.11048 0.62535 0.10227 0.0
H1071 H 0.08473 0.65267 0.08862 0.0
H1072 H 0.15835 0.70897 0.05656 0.0
H1073 H 0.18447 0.68177 0.0698 0.0
C1074 C 0.20808 0.66287 0.19478 0.0
C1075 C 0.23398 0.6838 0.19389 0.0
C1076 C 0.19715 0.64524 0.17222 0.0
C1077 C 0.21168 0.64871 0.14831 0.0
C1078 C 0.238 0.66891 0.14744 0.0
C1079 C 0.24931 0.68606 0.17023 0.0
C1080 C 0.19735 0.6342 0.12433 0.0
C1081 C 0.18442 0.64906 0.11315 0.0
C1082 C 0.19214 0.60482 0.11555 0.0
C1083 C 0.20521 0.58821 0.12705 0.0
C1084 C 0.23366 0.5972 0.12784 0.0
C1085 C 0.24587 0.58157 0.13885 0.0
C1086 C 0.22982 0.55683 0.14905 0.0
C1087 C 0.20154 0.54762 0.14818 0.0
C1088 C 0.18923 0.56317 0.13719 0.0
C1089 C 0.11001 0.58664 0.03221 0.0
C1090 C 0.08953 0.56245 0.03987 0.0
C1091 C 0.13393 0.59914 0.04567 0.0
C1092 C 0.13705 0.58861 0.06791 0.0
C1093 C 0.11725 0.56324 0.0744 0.0
C1094 C 0.09386 0.55008 0.06028 0.0
C1095 C 0.15923 0.60526 0.08589 0.0
C1096 C 0.17342 0.59078 0.09618 0.0
C1097 C 0.16498 0.63493 0.09458 0.0
C1098 C 0.14934 0.65133 0.0867 0.0
C1099 C 0.12112 0.64347 0.09218 0.0
C1100 C 0.10647 0.65893 0.08453 0.0
C1101 C 0.11988 0.68248 0.07165 0.0
C1102 C 0.14798 0.69068 0.06648 0.0
C1103 C 0.16272 0.67526 0.07404 0.0
H1104 H 0.10851 0.69442 0.06574 0.0
H1105 H 0.23931 0.54476 0.15756 0.0
H1106 H 0.25351 0.80781 0.83489 0.0
H1107 H 0.27119 0.84342 0.87271 0.0
H1108 H 0.35305 0.8565 0.84088 0.0
H1109 H 0.3357 0.82098 0.80336 0.0
H1110 H 0.30519 0.84054 0.90775 0.0
H1111 H 0.39044 0.92584 0.85364 0.0
H1112 H 0.39509 0.94968 0.81529 0.0
H1113 H 0.3086 0.9298 0.81739 0.0
H1114 H 0.30343 0.90626 0.85603 0.0
H1115 H 0.43155 0.8891 0.9557 0.0
H1116 H 0.38799 0.871 0.93579 0.0
H1117 H 0.38385 0.95625 0.94731 0.0
H1118 H 0.42811 0.97477 0.96648 0.0
H1119 H 0.37621 0.93468 0.89988 0.0
H1120 H 0.33475 0.90223 0.97682 0.0
H1121 H 0.32847 0.88116 0.01708 0.0
H1122 H 0.32303 0.79963 0.97275 0.0
H1123 H 0.32976 0.82026 0.93222 0.0
C1124 C 0.27527 0.81847 0.83591 0.0
C1125 C 0.29327 0.81152 0.81626 0.0
C1126 C 0.28527 0.83879 0.85746 0.0
C1127 C 0.31334 0.85284 0.85935 0.0
C1128 C 0.33126 0.84625 0.83954 0.0
C1129 C 0.32135 0.82572 0.81824 0.0
C1130 C 0.32464 0.8725 0.88287 0.0
C1131 C 0.32043 0.86136 0.9063 0.0
C1132 C 0.34349 0.9002 0.88121 0.0
C1133 C 0.34654 0.91414 0.85775 0.0
C1134 C 0.3724 0.92666 0.84604 0.0
C1135 C 0.37514 0.94012 0.82422 0.0
C1136 C 0.35216 0.94122 0.81389 0.0
C1137 C 0.32639 0.92887 0.82537 0.0
C1138 C 0.32354 0.91541 0.84721 0.0
C1139 C 0.42123 0.90401 0.95444 0.0
C1140 C 0.43349 0.93344 0.96251 0.0
C1141 C 0.39606 0.89354 0.94334 0.0
C1142 C 0.38241 0.91221 0.94035 0.0
C1143 C 0.39392 0.94144 0.94958 0.0
C1144 C 0.41925 0.95198 0.96059 0.0
C1145 C 0.35861 0.90149 0.92395 0.0
C1146 C 0.36036 0.91436 0.90183 0.0
C1147 C 0.33714 0.87568 0.92708 0.0
C1148 C 0.33273 0.86286 0.95139 0.0
C1149 C 0.33233 0.87983 0.97562 0.0
C1150 C 0.32869 0.86795 0.99852 0.0
C1151 C 0.32533 0.83907 0.99747 0.0
C1152 C 0.32557 0.82199 0.97353 0.0
C1153 C 0.32923 0.83376 0.95057 0.0
H1154 H 0.32255 0.82993 0.01522 0.0
H1155 H 0.35432 0.95166 0.797 0.0
H1156 H 0.22566 0.32417 0.79037 0.0
H1157 H 0.20067 0.35064 0.81981 0.0
H1158 H 0.15796 0.27538 0.85552 0.0
H1159 H 0.18352 0.24874 0.82635 0.0
H1160 H 0.12359 0.30602 0.84241 0.0
H1161 H 0.20474 0.32508 0.88768 0.0
H1162 H 0.25435 0.34063 0.8914 0.0
H1163 H 0.26256 0.42394 0.87528 0.0
H1164 H 0.21302 0.40873 0.87101 0.0
H1165 H 0.05779 0.37227 0.9451 0.0
H1166 H 0.08381 0.34494 0.91874 0.0
H1167 H 0.14563 0.42341 0.90188 0.0
H1168 H 0.12022 0.45093 0.9298 0.0
H1169 H 0.17078 0.39037 0.90509 0.0
H1170 H 0.09345 0.37403 0.85693 0.0
H1171 H 0.04493 0.3606 0.84855 0.0
H1172 H 0.03047 0.27571 0.86457 0.0
H1173 H 0.07885 0.28874 0.87335 0.0
C1174 C 0.21095 0.31307 0.80442 0.0
C1175 C 0.2067 0.28411 0.80578 0.0
C1176 C 0.19667 0.32839 0.8214 0.0
C1177 C 0.17733 0.31522 0.8401 0.0
C1178 C 0.17271 0.28618 0.84134 0.0
C1179 C 0.18744 0.27093 0.82464 0.0
C1180 C 0.16207 0.33185 0.85816 0.0
C1181 C 0.13384 0.32417 0.85643 0.0
C1182 C 0.17542 0.35635 0.87581 0.0
C1183 C 0.20517 0.36567 0.87878 0.0
C1184 C 0.21713 0.34665 0.88472 0.0
C1185 C 0.24525 0.35541 0.88696 0.0
C1186 C 0.26161 0.38324 0.88351 0.0
C1187 C 0.24987 0.40238 0.87791 0.0
C1188 C 0.22177 0.39371 0.8756 0.0
C1189 C 0.0769 0.38381 0.93574 0.0
C1190 C 0.08661 0.41396 0.93945 0.0
C1191 C 0.09182 0.36803 0.92037 0.0
C1192 C 0.11662 0.38172 0.90728 0.0
C1193 C 0.12661 0.41194 0.9114 0.0
C1194 C 0.11197 0.42779 0.92738 0.0
C1195 C 0.13196 0.36458 0.88956 0.0
C1196 C 0.16031 0.37219 0.89122 0.0
C1197 C 0.11881 0.34039 0.87132 0.0
C1198 C 0.08971 0.33245 0.86606 0.0
C1199 C 0.07988 0.35255 0.85884 0.0
C1200 C 0.05241 0.34501 0.85399 0.0
C1201 C 0.03462 0.31734 0.8561 0.0
C1202 C 0.04427 0.29714 0.86298 0.0
C1203 C 0.07172 0.30459 0.86788 0.0
H1204 H 0.01336 0.31154 0.85234 0.0
H1205 H 0.28338 0.38998 0.88523 0.0
H1206 H 0.69296 0.16587 0.78514 0.0
H1207 H 0.65972 0.13682 0.81425 0.0
H1208 H 0.64968 0.21306 0.85909 0.0
H1209 H 0.68272 0.24225 0.8293 0.0
H1210 H 0.66535 0.13631 0.86166 0.0
H1211 H 0.58645 0.19345 0.89451 0.0
H1212 H 0.5641 0.22192 0.87745 0.0
H1213 H 0.57849 0.18465 0.79972 0.0
H1214 H 0.60047 0.15555 0.8163 0.0
H1215 H 0.59838 0.08273 0.97151 0.0
H1216 H 0.61941 0.11876 0.94293 0.0
H1217 H 0.55232 0.07937 0.8926 0.0
H1218 H 0.53032 0.04395 0.9223 0.0
H1219 H 0.573 0.13724 0.89211 0.0
H1220 H 0.60973 0.06032 0.88082 0.0
H1221 H 0.62911 0.02839 0.89651 0.0
H1222 H 0.69655 0.1009 0.92567 0.0
H1223 H 0.67743 0.13327 0.91033 0.0
C1224 C 0.68343 0.17642 0.80103 0.0
C1225 C 0.6904 0.20628 0.80501 0.0
C1226 C 0.6644 0.1598 0.81768 0.0
C1227 C 0.65211 0.17262 0.83899 0.0
C1228 C 0.65851 0.20251 0.84263 0.0
C1229 C 0.6774 0.2192 0.82564 0.0
C1230 C 0.63464 0.15464 0.8583 0.0
C1231 C 0.64515 0.13661 0.86818 0.0
C1232 C 0.60819 0.15482 0.86697 0.0
C1233 C 0.59532 0.17247 0.85668 0.0
C1234 C 0.58476 0.19124 0.87378 0.0
C1235 C 0.57207 0.20741 0.8642 0.0
C1236 C 0.56973 0.20495 0.83754 0.0
C1237 C 0.58023 0.18644 0.82038 0.0
C1238 C 0.59286 0.17015 0.82986 0.0
C1239 C 0.58786 0.08209 0.9546 0.0
C1240 C 0.56304 0.06031 0.94875 0.0
C1241 C 0.5999 0.10267 0.93826 0.0
C1242 C 0.5879 0.10129 0.91516 0.0
C1243 C 0.56208 0.08074 0.91019 0.0
C1244 C 0.54959 0.06046 0.92705 0.0
C1245 C 0.60386 0.11914 0.89517 0.0
C1246 C 0.5932 0.13712 0.88539 0.0
C1247 C 0.63008 0.11868 0.88608 0.0
C1248 C 0.64209 0.0992 0.89454 0.0
C1249 C 0.62868 0.06943 0.89059 0.0
C1250 C 0.63961 0.05127 0.89943 0.0
C1251 C 0.66403 0.06261 0.9121 0.0
C1252 C 0.67764 0.09214 0.91584 0.0
C1253 C 0.66681 0.1104 0.90702 0.0
H1254 H 0.67242 0.04852 0.919 0.0
H1255 H 0.55995 0.21753 0.83017 0.0
H1256 H 0.83643 0.66371 0.85475 0.0
H1257 H 0.85856 0.63736 0.87437 0.0
H1258 H 0.9362 0.70288 0.86399 0.0
H1259 H 0.91423 0.72944 0.84453 0.0
H1260 H 0.94033 0.65091 0.84984 0.0
H1261 H 0.90152 0.69714 0.92403 0.0
H1262 H 0.86458 0.70946 0.9507 0.0
H1263 H 0.82175 0.6206 0.95562 0.0
H1264 H 0.85828 0.60772 0.92869 0.0
H1265 H 1.00425 0.62002 0.95692 0.0
H1266 H 0.9855 0.64382 0.9305 0.0
H1267 H 0.9232 0.56368 0.90625 0.0
H1268 H 0.9417 0.53963 0.93244 0.0
H1269 H 0.91157 0.62198 0.937 0.0
H1270 H 0.94564 0.57486 0.85931 0.0
H1271 H 0.97889 0.56068 0.82826 0.0
H1272 H 0.02794 0.64894 0.82819 0.0
H1273 H 0.99504 0.66359 0.8594 0.0
C1274 C 0.85818 0.6727 0.85685 0.0
C1275 C 0.87346 0.69882 0.84803 0.0
C1276 C 0.87085 0.65755 0.86809 0.0
C1277 C 0.89909 0.66821 0.87098 0.0
C1278 C 0.91442 0.69412 0.86198 0.0
C1279 C 0.90179 0.70926 0.85073 0.0
C1280 C 0.91276 0.65229 0.88307 0.0
C1281 C 0.93423 0.64495 0.86906 0.0
C1282 C 0.90442 0.64371 0.90786 0.0
C1283 C 0.88252 0.65145 0.92415 0.0
C1284 C 0.88413 0.68021 0.93065 0.0
C1285 C 0.86328 0.6873 0.94583 0.0
C1286 C 0.8408 0.66582 0.95479 0.0
C1287 C 0.83915 0.63721 0.94864 0.0
C1288 C 0.85994 0.63001 0.93344 0.0
C1289 C 0.98702 0.60723 0.94544 0.0
C1290 C 0.97453 0.57781 0.94696 0.0
C1291 C 0.97625 0.62094 0.9304 0.0
C1292 C 0.95305 0.6055 0.91624 0.0
C1293 C 0.9413 0.57597 0.91675 0.0
C1294 C 0.95198 0.56225 0.93178 0.0
C1295 C 0.93911 0.62073 0.90377 0.0
C1296 C 0.91767 0.62806 0.91782 0.0
C1297 C 0.94725 0.62902 0.87892 0.0
C1298 C 0.96818 0.62026 0.86206 0.0
C1299 C 0.96375 0.59119 0.85302 0.0
C1300 C 0.98239 0.58309 0.83519 0.0
C1301 C 1.00548 0.6039 0.8262 0.0
C1302 C 1.01003 0.63285 0.83511 0.0
C1303 C 0.99142 0.64106 0.8529 0.0
H1304 H 0.01991 0.59758 0.81245 0.0
H1305 H 0.82468 0.67135 0.96655 0.0
H1306 H 0.17562 0.34765 0.16739 0.0
H1307 H 0.15124 0.37276 0.1491 0.0
H1308 H 0.09216 0.29201 0.11993 0.0
H1309 H 0.11701 0.26674 0.13723 0.0
H1310 H 0.10565 0.32614 0.08415 0.0
H1311 H 0.07866 0.336 0.17444 0.0
H1312 H 0.08662 0.34848 0.22118 0.0
H1313 H 0.12878 0.43617 0.21131 0.0
H1314 H 0.12154 0.42413 0.1644 0.0
H1315 H 0.01416 0.38434 0.04684 0.0
H1316 H 0.03057 0.35911 0.0737 0.0
H1317 H 0.09602 0.43687 0.09749 0.0
H1318 H 0.07984 0.4623 0.07074 0.0
H1319 H 0.07692 0.40321 0.13721 0.0
H1320 H 0.1072 0.39277 0.04723 0.0
H1321 H 0.10057 0.38082 1.00022 0.0
H1322 H 0.05272 0.29429 0.00981 0.0
H1323 H 0.05867 0.30588 0.05698 0.0
C1324 C 0.15757 0.33517 0.15691 0.0
C1325 C 0.14833 0.30506 0.15393 0.0
C1326 C 0.14343 0.34961 0.14668 0.0
C1327 C 0.11954 0.33437 0.13339 0.0
C1328 C 0.11041 0.30435 0.1302 0.0
C1329 C 0.12456 0.28989 0.14035 0.0
C1330 C 0.10434 0.34964 0.1224 0.0
C1331 C 0.09897 0.34261 0.09593 0.0
C1332 C 0.09601 0.37163 0.13751 0.0
C1333 C 0.09976 0.3791 0.16584 0.0
C1334 C 0.08976 0.35792 0.1822 0.0
C1335 C 0.09414 0.36491 0.20873 0.0
C1336 C 0.10825 0.39308 0.2192 0.0
C1337 C 0.11789 0.41435 0.20317 0.0
C1338 C 0.11363 0.40746 0.1766 0.0
C1339 C 0.03164 0.39632 0.05827 0.0
C1340 C 0.04594 0.42531 0.05616 0.0
C1341 C 0.0411 0.38178 0.07355 0.0
C1342 C 0.06493 0.39591 0.08717 0.0
C1343 C 0.07773 0.42542 0.08703 0.0
C1344 C 0.06842 0.43994 0.07163 0.0
C1345 C 0.07818 0.37952 0.0991 0.0
C1346 C 0.08331 0.38644 0.12561 0.0
C1347 C 0.08635 0.35742 0.08407 0.0
C1348 C 0.08313 0.35027 0.05566 0.0
C1349 C 0.09511 0.37125 0.03934 0.0
C1350 C 0.09149 0.36454 0.01267 0.0
C1351 C 0.07618 0.33684 0.00205 0.0
C1352 C 0.06453 0.31576 0.01807 0.0
C1353 C 0.06802 0.32238 0.04478 0.0
H1354 H 0.07339 0.33169 0.98139 0.0
H1355 H 0.11168 0.39843 0.23973 0.0
H1356 H 0.23781 0.71577 0.83387 0.0
H1357 H 0.20643 0.68557 0.86351 0.0
H1358 H 0.14848 0.64867 0.80365 0.0
H1359 H 0.17925 0.68013 0.77446 0.0
H1360 H 0.12173 0.65361 0.8467 0.0
H1361 H 0.19263 0.61478 0.81869 0.0
H1362 H 0.23986 0.61524 0.81065 0.0
H1363 H 0.25275 0.63825 0.89216 0.0
H1364 H 0.20569 0.63833 0.90066 0.0
H1365 H 0.08976 0.51867 0.91547 0.0
H1366 H 0.11665 0.55084 0.88518 0.0
H1367 H 0.08912 0.61808 0.92727 0.0
H1368 H 0.06094 0.58521 0.95683 0.0
H1369 H 0.15794 0.5967 0.89205 0.0
H1370 H 0.08797 0.66212 0.89064 0.0
H1371 H 0.03873 0.65327 0.89913 0.0
H1372 H 0.02142 0.56463 0.86819 0.0
H1373 H 0.07038 0.57299 0.85916 0.0
C1374 C 0.21833 0.70126 0.82711 0.0
C1375 C 0.21103 0.70001 0.80184 0.0
C1376 C 0.20043 0.68395 0.84401 0.0
C1377 C 0.17529 0.66433 0.83566 0.0
C1378 C 0.16774 0.66358 0.81057 0.0
C1379 C 0.18537 0.68145 0.79386 0.0
C1380 C 0.15738 0.64394 0.85276 0.0
C1381 C 0.12973 0.6412 0.85655 0.0
C1382 C 0.16747 0.62711 0.86527 0.0
C1383 C 0.19571 0.62682 0.86027 0.0
C1384 C 0.20559 0.62011 0.83488 0.0
C1385 C 0.23232 0.62026 0.83024 0.0
C1386 C 0.24931 0.62684 0.85087 0.0
C1387 C 0.23958 0.6332 0.8762 0.0
C1388 C 0.21287 0.63313 0.88094 0.0
C1389 C 0.08899 0.54015 0.91782 0.0
C1390 C 0.0731 0.54948 0.93817 0.0
C1391 C 0.10459 0.5586 0.90072 0.0
C1392 C 0.10499 0.58691 0.9039 0.0
C1393 C 0.0888 0.59619 0.92412 0.0
C1394 C 0.07261 0.57744 0.94092 0.0
C1395 C 0.12254 0.6066 0.88606 0.0
C1396 C 0.15006 0.60919 0.88216 0.0
C1397 C 0.11213 0.62225 0.87257 0.0
C1398 C 0.08276 0.61816 0.87443 0.0
C1399 C 0.0736 0.64088 0.88524 0.0
C1400 C 0.04579 0.63589 0.89035 0.0
C1401 C 0.02713 0.60833 0.88455 0.0
C1402 C 0.03601 0.58587 0.87292 0.0
C1403 C 0.06372 0.59075 0.86769 0.0
H1404 H 1.00571 0.60433 0.88875 0.0
H1405 H 0.27001 0.62696 0.84724 0.0
H1406 H 0.34852 0.18171 0.88121 0.0
H1407 H 0.38001 0.16302 0.89697 0.0
H1408 H 0.36477 0.0955 0.83179 0.0
H1409 H 0.33289 0.11412 0.81592 0.0
H1410 H 0.3626 0.07551 0.87807 0.0
H1411 H 0.42422 0.14855 0.83329 0.0
H1412 H 0.44518 0.19672 0.82071 0.0
H1413 H 0.46762 0.2315 0.89902 0.0
H1414 H 0.4464 0.1836 0.91218 0.0
H1415 H 0.4566 0.02773 0.92651 0.0
H1416 H 0.4365 0.04496 0.89556 0.0
H1417 H 0.45357 0.12637 0.94501 0.0
H1418 H 0.47552 0.10983 0.97481 0.0
H1419 H 0.45702 0.13623 0.89915 0.0
H1420 H 0.38871 0.06414 0.94487 0.0
H1421 H 0.36747 0.01589 0.95741 0.0
H1422 H 0.35718 0.9794 0.87734 0.0
H1423 H 0.37869 0.02737 0.86431 0.0
C1424 C 0.35177 0.16282 0.87023 0.0
C1425 C 0.33803 0.1493 0.84737 0.0
C1426 C 0.37001 0.1523 0.87914 0.0
C1427 C 0.37499 0.12797 0.86548 0.0
C1428 C 0.36134 0.11436 0.84262 0.0
C1429 C 0.34323 0.12509 0.83351 0.0
C1430 C 0.39373 0.1164 0.87579 0.0
C1431 C 0.38342 0.08859 0.88227 0.0
C1432 C 0.4208 0.13355 0.88156 0.0
C1433 C 0.4335 0.16247 0.87376 0.0
C1434 C 0.4334 0.16649 0.84789 0.0
C1435 C 0.44537 0.19375 0.84064 0.0
C1436 C 0.45768 0.21716 0.85906 0.0
C1437 C 0.45806 0.21335 0.88477 0.0
C1438 C 0.44608 0.18614 0.89213 0.0
C1439 C 0.45674 0.04958 0.93031 0.0
C1440 C 0.46757 0.06745 0.95306 0.0
C1441 C 0.44488 0.05932 0.9128 0.0
C1442 C 0.44243 0.08666 0.91832 0.0
C1443 C 0.45488 0.10511 0.94026 0.0
C1444 C 0.46756 0.09569 0.95731 0.0
C1445 C 0.42563 0.09564 0.90242 0.0
C1446 C 0.4363 0.12298 0.89479 0.0
C1447 C 0.3988 0.07808 0.89572 0.0
C1448 C 0.38554 0.0493 0.90362 0.0
C1449 C 0.38201 0.0458 0.92995 0.0
C1450 C 0.36995 0.01851 0.93713 0.0
C1451 C 0.36104 0.99459 0.91818 0.0
C1452 C 0.36414 -0.00208 0.89199 0.0
C1453 C 0.37626 0.02516 0.8847 0.0
H1454 H 0.35166 0.97349 0.92378 0.0
H1455 H 0.46696 0.23824 0.85341 0.0
H1456 H 0.7684 0.2959 0.84627 0.0
H1457 H 0.79473 0.33323 0.87888 0.0
H1458 H 0.82216 0.39158 0.82248 0.0
H1459 H 0.79552 0.35425 0.78968 0.0
H1460 H 0.86389 0.38397 0.84439 0.0
H1461 H 0.78521 0.40755 0.87321 0.0
H1462 H 0.73682 0.3983 0.88639 0.0
H1463 H 0.74623 0.3633 0.95243 0.0
H1464 H 0.79457 0.3718 0.93942 0.0
H1465 H 0.9344 0.48374 0.95926 0.0
H1466 H 0.89438 0.46743 0.93301 0.0
H1467 H 0.89221 0.38042 0.92723 0.0
H1468 H 0.93171 0.39621 0.95357 0.0
H1469 H 0.83711 0.4155 0.93504 0.0
H1470 H 0.90016 0.36442 0.86094 0.0
H1471 H 0.94832 0.3715 0.8479 0.0
H1472 H 0.96878 0.46206 0.87119 0.0
H1473 H 0.92068 0.45554 0.88397 0.0
C1474 C 0.77959 0.31687 0.84095 0.0
C1475 C 0.78023 0.32211 0.81539 0.0
C1476 C 0.79444 0.33825 0.85966 0.0
C1477 C 0.81036 0.36517 0.85309 0.0
C1478 C 0.80989 0.37096 0.82792 0.0
C1479 C 0.79468 0.34965 0.80925 0.0
C1480 C 0.83035 0.38538 0.8714 0.0
C1481 C 0.85798 0.39141 0.86402 0.0
C1482 C 0.82261 0.39504 0.89703 0.0
C1483 C 0.7936 0.39027 0.90527 0.0
C1484 C 0.77696 0.39773 0.89048 0.0
C1485 C 0.74953 0.39266 0.89794 0.0
C1486 C 0.73848 0.38028 0.92026 0.0
C1487 C 0.75484 0.37295 0.93517 0.0
C1488 C 0.78229 0.37794 0.92778 0.0
C1489 C 0.92499 0.46106 0.95302 0.0
C1490 C 0.93655 0.44135 0.95829 0.0
C1491 C 0.90206 0.4518 0.9381 0.0
C1492 C 0.89053 0.42279 0.92816 0.0
C1493 C 0.90089 0.40293 0.93478 0.0
C1494 C 0.9236 0.41206 0.94976 0.0
C1495 C 0.87033 0.41327 0.90799 0.0
C1496 C 0.84283 0.40891 0.91512 0.0
C1497 C 0.87805 0.4052 0.88199 0.0
C1498 C 0.90688 0.40945 0.87357 0.0
C1499 C 0.91492 0.38585 0.86311 0.0
C1500 C 0.94221 0.38976 0.8558 0.0
C1501 C 0.96161 0.4172 0.85878 0.0
C1502 C 0.95375 0.44081 0.86897 0.0
C1503 C 0.92648 0.43701 0.87628 0.0
H1504 H 0.98273 0.42018 0.85315 0.0
H1505 H 0.71723 0.37633 0.92598 0.0
H1506 H 0.68566 0.78468 0.78197 0.0
H1507 H 0.66082 0.81202 0.8098 0.0
H1508 H 0.73402 0.86333 0.84882 0.0
H1509 H 0.75909 0.83505 0.82126 0.0
H1510 H 0.69424 0.85412 0.88372 0.0
H1511 H 0.70375 0.88718 0.80219 0.0
H1512 H 0.70102 0.88397 0.75504 0.0
H1513 H 0.61434 0.84421 0.76202 0.0
H1514 H 0.61656 0.84669 0.80917 0.0
H1515 H 0.63114 0.95615 0.9471 0.0
H1516 H 0.66098 0.93384 0.91935 0.0
H1517 H 0.59127 0.87162 0.88161 0.0
H1518 H 0.56141 0.89364 0.90925 0.0
H1519 H 0.63217 0.89014 0.84609 0.0
H1520 H 0.6237 0.85519 0.92748 0.0
H1521 H 0.62682 0.85937 0.97469 0.0
H1522 H 0.7126 0.90483 0.96761 0.0
H1523 H 0.70992 0.90128 0.92037 0.0
C1524 C 0.69675 0.80183 0.79634 0.0
C1525 C 0.72471 0.80756 0.79897 0.0
C1526 C 0.68236 0.81775 0.81231 0.0
C1527 C 0.69535 0.84052 0.83134 0.0
C1528 C 0.72325 0.84613 0.83433 0.0
C1529 C 0.7377 0.82992 0.81841 0.0
C1530 C 0.67958 0.85785 0.84813 0.0
C1531 C 0.6811 0.8624 0.87531 0.0
C1532 C 0.66179 0.86853 0.83765 0.0
C1533 C 0.66037 0.86689 0.80924 0.0
C1534 C 0.68412 0.87752 0.79366 0.0
C1535 C 0.68266 0.87585 0.76692 0.0
C1536 C 0.65753 0.86383 0.75553 0.0
C1537 C 0.63379 0.85348 0.77086 0.0
C1538 C 0.63515 0.85501 0.7976 0.0
C1539 C 0.62209 0.93782 0.93281 0.0
C1540 C 0.59362 0.92686 0.93066 0.0
C1541 C 0.63927 0.92488 0.91696 0.0
C1542 C 0.62861 0.90065 0.8983 0.0
C1543 C 0.60028 0.89016 0.89572 0.0
C1544 C 0.5831 0.90286 0.9117 0.0
C1545 C 0.64666 0.88606 0.88155 0.0
C1546 C 0.64551 0.88202 0.8544 0.0
C1547 C 0.6649 0.87606 0.89202 0.0
C1548 C 0.66655 0.87826 0.92042 0.0
C1549 C 0.64319 0.86631 0.93601 0.0
C1550 C 0.64488 0.86852 0.96278 0.0
C1551 C 0.66988 0.88244 0.97416 0.0
C1552 C 0.69324 0.89411 0.95878 0.0
C1553 C 0.69165 0.89199 0.932 0.0
H1554 H 0.67115 0.88411 0.99488 0.0
H1555 H 0.65643 0.86259 0.73483 0.0
H1556 H 0.82871 0.73784 0.17986 0.0
H1557 H 0.85618 0.71328 0.1515 0.0
H1558 H 0.80939 0.63435 0.18026 0.0
H1559 H 0.78288 0.65921 0.20951 0.0
H1560 H 0.85694 0.63434 0.17553 0.0
H1561 H 0.80459 0.65164 0.11624 0.0
H1562 H 0.78481 0.67924 0.09484 0.0
H1563 H 0.8647 0.73058 0.06993 0.0
H1564 H 0.88502 0.70356 0.09156 0.0
H1565 H 0.90246 0.54582 0.06908 0.0
H1566 H 0.87406 0.56994 0.09696 0.0
H1567 H 0.93679 0.65143 0.09209 0.0
H1568 H 0.9656 0.62745 0.06486 0.0
H1569 H 0.8806 0.64878 0.08367 0.0
H1570 H 0.93072 0.62694 0.14511 0.0
H1571 H 0.94616 0.59441 0.16462 0.0
H1572 H 0.86328 0.54472 0.18242 0.0
H1573 H 0.84734 0.57675 0.16267 0.0
C1574 C 0.82416 0.71522 0.18009 0.0
C1575 C 0.80343 0.70068 0.19716 0.0
C1576 C 0.83987 0.70099 0.16362 0.0
C1577 C 0.83495 0.6715 0.16308 0.0
C1578 C 0.81404 0.65699 0.18004 0.0
C1579 C 0.79868 0.67131 0.19683 0.0
C1580 C 0.85175 0.65595 0.14538 0.0
C1581 C 0.86167 0.63737 0.15537 0.0
C1582 C 0.85845 0.6595 0.11886 0.0
C1583 C 0.84635 0.67576 0.10575 0.0
C1584 C 0.81797 0.66895 0.10636 0.0
C1585 C 0.80665 0.68448 0.09417 0.0
C1586 C 0.82349 0.7067 0.08109 0.0
C1587 C 0.85168 0.71339 0.08012 0.0
C1588 C 0.86312 0.69797 0.09232 0.0
C1589 C 0.91032 0.56888 0.07397 0.0
C1590 C 0.93656 0.58453 0.06464 0.0
C1591 C 0.89398 0.5827 0.08999 0.0
C1592 C 0.90309 0.61267 0.09677 0.0
C1593 C 0.9291 0.62836 0.08722 0.0
C1594 C 0.94569 0.61452 0.07169 0.0
C1595 C 0.88571 0.62758 0.114 0.0
C1596 C 0.87573 0.64592 0.10386 0.0
C1597 C 0.87825 0.62315 0.14012 0.0
C1598 C 0.88784 0.60406 0.15218 0.0
C1599 C 0.91578 0.60893 0.15299 0.0
C1600 C 0.92463 0.59062 0.16413 0.0
C1601 C 0.90571 0.56746 0.17469 0.0
C1602 C 0.87791 0.56263 0.1742 0.0
C1603 C 0.86896 0.58088 0.16306 0.0
H1604 H 0.9126 0.5533 0.1833 0.0
H1605 H 0.81469 0.71869 0.07165 0.0
H1606 H 0.2909 0.79974 0.17913 0.0
H1607 H 0.3258 0.8253 0.14912 0.0
H1608 H 0.38825 0.82095 0.19369 0.0
H1609 H 0.35328 0.79541 0.22415 0.0
H1610 H 0.40167 0.87366 0.17967 0.0
H1611 H 0.3742 0.77865 0.1361 0.0
H1612 H 0.34247 0.73144 0.11877 0.0
H1613 H 0.31146 0.77059 0.06856 0.0
H1614 H 0.34272 0.81811 0.08585 0.0
H1615 H 0.49061 0.93721 0.073 0.0
H1616 H 0.47006 0.90249 0.10372 0.0
H1617 H 0.39017 0.89314 0.08197 0.0
H1618 H 0.41013 0.92723 0.05189 0.0
H1619 H 0.39488 0.84145 0.08501 0.0
H1620 H 0.4181 0.93715 0.13533 0.0
H1621 H 0.45041 0.98386 0.15303 0.0
H1622 H 0.49094 0.94171 0.19063 0.0
H1623 H 0.45899 0.89473 0.17292 0.0
C1624 C 0.31201 0.80413 0.18265 0.0
C1625 C 0.31917 0.79537 0.20411 0.0
C1626 C 0.33202 0.81867 0.16532 0.0
C1627 C 0.35973 0.82474 0.16885 0.0
C1628 C 0.36703 0.81643 0.19045 0.0
C1629 C 0.34697 0.80176 0.20783 0.0
C1630 C 0.38075 0.84014 0.15003 0.0
C1631 C 0.40058 0.86629 0.15899 0.0
C1632 C 0.37953 0.83057 0.12301 0.0
C1633 C 0.36073 0.802 0.1124 0.0
C1634 C 0.36049 0.77723 0.12148 0.0
C1635 C 0.3426 0.7504 0.11165 0.0
C1636 C 0.32493 0.74802 0.09261 0.0
C1637 C 0.32516 0.77247 0.08332 0.0
C1638 C 0.34299 0.79936 0.0931 0.0
C1639 C 0.4687 0.92757 0.07474 0.0
C1640 C 0.45205 0.93535 0.0602 0.0
C1641 C 0.45698 0.9078 0.09231 0.0
C1642 C 0.42849 0.89529 0.09527 0.0
C1643 C 0.41213 0.9024 0.08009 0.0
C1644 C 0.42367 0.92217 0.06295 0.0
C1645 C 0.4149 0.87552 0.11459 0.0
C1646 C 0.39643 0.84846 0.10571 0.0
C1647 C 0.41753 0.88418 0.14163 0.0
C1648 C 0.43651 0.91244 0.15239 0.0
C1649 C 0.43407 0.93784 0.14715 0.0
C1650 C 0.45227 0.96437 0.15725 0.0
C1651 C 0.4728 0.96576 0.17283 0.0
C1652 C 0.47508 0.94062 0.17848 0.0
C1653 C 0.45694 0.91404 0.16842 0.0
H1654 H 0.48688 0.98631 0.18063 0.0
H1655 H 0.31109 0.72723 0.08502 0.0
H1656 H 0.72689 0.2211 0.16341 0.0
H1657 H 0.70532 0.18624 0.12708 0.0
H1658 H 0.72348 0.12061 0.15689 0.0
H1659 H 0.74484 0.1554 0.19376 0.0
H1660 H 0.71857 0.14962 0.08789 0.0
H1661 H 0.66677 0.06027 0.14933 0.0
H1662 H 0.65467 0.0536 0.19518 0.0
H1663 H 0.64806 0.13738 0.21258 0.0
H1664 H 0.65973 0.14433 0.16681 0.0
H1665 H 0.58556 0.01816 0.04817 0.0
H1666 H 0.62919 0.03828 0.06889 0.0
H1667 H 0.6328 0.12317 0.06053 0.0
H1668 H 0.58946 0.10333 0.03979 0.0
H1669 H 0.63508 0.07394 0.11462 0.0
H1670 H 0.69712 0.16688 0.056 0.0
H1671 H 0.70565 0.17468 0.01029 0.0
H1672 H 0.68783 0.0846 0.9861 0.0
H1673 H 0.67969 0.07625 0.03168 0.0
C1674 C 0.72662 0.19935 0.16218 0.0
C1675 C 0.73714 0.19091 0.18176 0.0
C1676 C 0.71449 0.17949 0.14121 0.0
C1677 C 0.7126 0.15081 0.13942 0.0
C1678 C 0.72455 0.14262 0.15807 0.0
C1679 C 0.73666 0.16251 0.17915 0.0
C1680 C 0.69523 0.12929 0.11984 0.0
C1681 C 0.70039 0.13291 0.0936 0.0
C1682 C 0.67192 0.10701 0.12729 0.0
C1683 C 0.66452 0.10294 0.15478 0.0
C1684 C 0.66269 0.07722 0.16297 0.0
C1685 C 0.65589 0.07339 0.18892 0.0
C1686 C 0.65073 0.09511 0.2068 0.0
C1687 C 0.65218 0.12063 0.19874 0.0
C1688 C 0.65889 0.12452 0.1728 0.0
C1689 C 0.59599 0.04105 0.05017 0.0
C1690 C 0.58396 0.05923 0.04264 0.0
C1691 C 0.62088 0.05248 0.06203 0.0
C1692 C 0.63427 0.08216 0.06609 0.0
C1693 C 0.62301 0.10016 0.05723 0.0
C1694 C 0.59809 0.08881 0.04561 0.0
C1695 C 0.65781 0.09495 0.08274 0.0
C1696 C 0.65377 0.08979 0.10855 0.0
C1697 C 0.68193 0.11594 0.07485 0.0
C1698 C 0.68769 0.12094 0.04736 0.0
C1699 C 0.69528 0.14874 0.04098 0.0
C1700 C 0.69999 0.15326 0.01506 0.0
C1701 C 0.69724 0.13015 0.9953 0.0
C1702 C 0.6899 0.10247 0.00142 0.0
C1703 C 0.68522 0.09784 0.02731 0.0
H1704 H 0.70081 0.13368 0.97525 0.0
H1705 H 0.64552 0.09212 0.22689 0.0
H1706 H 0.74097 0.68552 0.81199 0.0
H1707 H 0.71021 0.65126 0.83853 0.0
H1708 H 0.64401 0.63974 0.79098 0.0
H1709 H 0.67502 0.67429 0.76397 0.0
H1710 H 0.63136 0.64973 0.84491 0.0
H1711 H 0.6678 0.58669 0.78655 0.0
H1712 H 0.70398 0.57115 0.76187 0.0
H1713 H 0.73858 0.5725 0.83287 0.0
H1714 H 0.70283 0.58844 0.85799 0.0
H1715 H 0.54714 0.53955 0.91876 0.0
H1716 H 0.57011 0.56608 0.88305 0.0
H1717 H 0.64783 0.5803 0.91305 0.0
H1718 H 0.62515 0.55387 0.94853 0.0
H1719 H 0.64983 0.56484 0.8626 0.0
H1720 H 0.6171 0.63176 0.92096 0.0
H1721 H 0.58301 0.64993 0.94663 0.0
H1722 H 0.54371 0.64423 0.87721 0.0
H1723 H 0.57721 0.6253 0.8512 0.0
C1724 C 0.71994 0.67551 0.8069 0.0
C1725 C 0.71047 0.68265 0.78579 0.0
C1726 C 0.70236 0.65582 0.82211 0.0
C1727 C 0.67479 0.64279 0.81674 0.0
C1728 C 0.66523 0.64949 0.79546 0.0
C1729 C 0.68299 0.66905 0.77993 0.0
C1730 C 0.65615 0.6231 0.83418 0.0
C1731 C 0.63495 0.63077 0.84838 0.0
C1732 C 0.66127 0.59877 0.83919 0.0
C1733 C 0.6827 0.58893 0.82415 0.0
C1734 C 0.68322 0.58386 0.7969 0.0
C1735 C 0.70364 0.57495 0.78283 0.0
C1736 C 0.72359 0.57089 0.79579 0.0
C1737 C 0.72311 0.57566 0.82286 0.0
C1738 C 0.70275 0.58459 0.83702 0.0
C1739 C 0.56909 0.54853 0.91789 0.0
C1740 C 0.5842 0.54467 0.93672 0.0
C1741 C 0.58224 0.56369 0.89739 0.0
C1742 C 0.61079 0.57541 0.89535 0.0
C1743 C 0.62583 0.57143 0.91406 0.0
C1744 C 0.61276 0.55631 0.93445 0.0
C1745 C 0.62531 0.59176 0.87382 0.0
C1746 C 0.64583 0.58349 0.85887 0.0
C1747 C 0.61972 0.6157 0.86836 0.0
C1748 C 0.59938 0.62667 0.88414 0.0
C1749 C 0.60097 0.63399 0.91119 0.0
C1750 C 0.58178 0.64448 0.92581 0.0
C1751 C 0.56114 0.64813 0.91356 0.0
C1752 C 0.55962 0.64126 0.88667 0.0
C1753 C 0.57865 0.63059 0.872 0.0
H1754 H 0.54633 0.6563 0.92489 0.0
H1755 H 0.73938 0.564 0.78486 0.0
H1756 H 0.34545 0.61525 0.80971 0.0
H1757 H 0.37161 0.59269 0.82864 0.0
H1758 H 0.43792 0.67291 0.83897 0.0
H1759 H 0.41232 0.69538 0.81884 0.0
H1760 H 0.4573 0.63099 0.82129 0.0
H1761 H 0.39426 0.64601 0.89023 0.0
H1762 H 0.34937 0.64328 0.91127 0.0
H1763 H 0.32346 0.55154 0.89756 0.0
H1764 H 0.3681 0.55373 0.87609 0.0
H1765 H 0.51601 0.59633 0.92596 0.0
H1766 H 0.49734 0.6168 0.89654 0.0
H1767 H 0.44251 0.53289 0.86906 0.0
H1768 H 0.46174 0.5121 0.8977 0.0
H1769 H 0.41801 0.57583 0.8942 0.0
H1770 H 0.48325 0.56172 0.82801 0.0
H1771 H 0.52819 0.56534 0.80678 0.0
H1772 H 0.5508 0.65676 0.81628 0.0
H1773 H 0.5062 0.65379 0.83817 0.0
C1774 C 0.36567 0.62814 0.8158 0.0
C1775 C 0.37669 0.65723 0.81266 0.0
C1776 C 0.38055 0.61522 0.82691 0.0
C1777 C 0.40671 0.6311 0.83556 0.0
C1778 C 0.41779 0.66015 0.83252 0.0
C1779 C 0.40295 0.67309 0.82127 0.0
C1780 C 0.42249 0.61733 0.84762 0.0
C1781 C 0.44886 0.6193 0.8375 0.0
C1782 C 0.41131 0.60144 0.86839 0.0
C1783 C 0.38444 0.60005 0.8813 0.0
C1784 C 0.37892 0.62526 0.89151 0.0
C1785 C 0.35353 0.6238 0.90355 0.0
C1786 C 0.33355 0.59725 0.90569 0.0
C1787 C 0.33894 0.5721 0.89585 0.0
C1788 C 0.36429 0.57343 0.88376 0.0
C1789 C 0.50079 0.58201 0.91291 0.0
C1790 C 0.48986 0.55257 0.91476 0.0
C1791 C 0.49006 0.59383 0.89613 0.0
C1792 C 0.4683 0.57644 0.88087 0.0
C1793 C 0.45913 0.54675 0.88086 0.0
C1794 C 0.47013 0.5349 0.8973 0.0
C1795 C 0.45277 0.58952 0.86789 0.0
C1796 C 0.42644 0.58751 0.87797 0.0
C1797 C 0.46415 0.60558 0.84732 0.0
C1798 C 0.49142 0.60754 0.83507 0.0
C1799 C 0.49793 0.58265 0.826 0.0
C1800 C 0.52331 0.58457 0.8137 0.0
C1801 C 0.54229 0.61125 0.8101 0.0
C1802 C 0.53602 0.63609 0.81897 0.0
C1803 C 0.5107 0.6343 0.83137 0.0
H1804 H 0.56191 0.61269 0.80053 0.0
H1805 H 0.3139 0.59617 0.91502 0.0
H1806 H 0.34633 0.32257 0.75244 0.0
H1807 H 0.38211 0.36007 0.77772 0.0
H1808 H 0.3258 0.35601 0.84444 0.0
H1809 H 0.2903 0.3201 0.81927 0.0
H1810 H 0.36003 0.40645 0.84809 0.0
H1811 H 0.36538 0.31021 0.82904 0.0
H1812 H 0.37009 0.26813 0.79975 0.0
H1813 H 0.44658 0.32051 0.76876 0.0
H1814 H 0.44212 0.36296 0.79772 0.0
H1815 H 0.42694 0.41165 0.96062 0.0
H1816 H 0.39782 0.39609 0.92322 0.0
H1817 H 0.46923 0.41986 0.87165 0.0
H1818 H 0.49807 0.43464 0.90881 0.0
H1819 H 0.43412 0.36862 0.85437 0.0
H1820 H 0.42929 0.46198 0.88936 0.0
H1821 H 0.41992 0.49792 0.92389 0.0
H1822 H 0.33645 0.44426 0.93039 0.0
H1823 H 0.34534 0.4077 0.89656 0.0
C1824 C 0.34152 0.33052 0.77222 0.0
C1825 C 0.31595 0.31793 0.78422 0.0
C1826 C 0.36192 0.35179 0.78667 0.0
C1827 C 0.35683 0.36017 0.8132 0.0
C1828 C 0.33037 0.34978 0.82412 0.0
C1829 C 0.31013 0.32893 0.80976 0.0
C1830 C 0.37912 0.3757 0.83092 0.0
C1831 C 0.37639 0.39838 0.8494 0.0
C1832 C 0.4005 0.36519 0.83255 0.0
C1833 C 0.40326 0.33975 0.81524 0.0
C1834 C 0.38312 0.31273 0.81587 0.0
C1835 C 0.38575 0.28884 0.79935 0.0
C1836 C 0.40858 0.29166 0.78234 0.0
C1837 C 0.42887 0.31838 0.78189 0.0
C1838 C 0.42631 0.34236 0.79833 0.0
C1839 C 0.43619 0.41296 0.94119 0.0
C1840 C 0.46447 0.42369 0.93719 0.0
C1841 C 0.41969 0.40453 0.91997 0.0
C1842 C 0.43145 0.40731 0.89475 0.0
C1843 C 0.45981 0.41766 0.89094 0.0
C1844 C 0.4762 0.42588 0.91204 0.0
C1845 C 0.41436 0.39861 0.87214 0.0
C1846 C 0.41827 0.37733 0.85272 0.0
C1847 C 0.39342 0.40967 0.87033 0.0
C1848 C 0.38806 0.43201 0.89045 0.0
C1849 C 0.40899 0.45777 0.89826 0.0
C1850 C 0.40377 0.47825 0.9177 0.0
C1851 C 0.37766 0.47338 0.92925 0.0
C1852 C 0.35668 0.44802 0.92142 0.0
C1853 C 0.3618 0.42741 0.90213 0.0
H1854 H 0.37369 0.48927 0.94427 0.0
H1855 H 0.41058 0.27314 0.76957 0.0
H1856 H 0.58387 0.28701 0.80365 0.0
H1857 H 0.58024 0.30618 0.84937 0.0
H1858 H 0.63593 0.26703 0.86723 0.0
H1859 H 0.64004 0.24838 0.82162 0.0
H1860 H 0.57198 0.29453 0.89928 0.0
H1861 H 0.68676 0.32266 0.90098 0.0
H1862 H 0.72632 0.32272 0.871 0.0
H1863 H 0.68695 0.33744 0.80975 0.0
H1864 H 0.64752 0.33818 0.83954 0.0
H1865 H 0.59651 0.3985 0.00446 0.0
H1866 H 0.61097 0.36018 0.97953 0.0
H1867 H 0.63549 0.40768 0.91486 0.0
H1868 H 0.62155 0.4463 0.94005 0.0
H1869 H 0.66301 0.36843 0.91392 0.0
H1870 H 0.5698 0.37151 0.92204 0.0
H1871 H 0.52876 0.37524 0.94782 0.0
H1872 H 0.52329 0.30277 0.98351 0.0
H1873 H 0.56439 0.29873 0.95794 0.0
C1874 C 0.5944 0.28147 0.81748 0.0
C1875 C 0.61286 0.26697 0.80896 0.0
C1876 C 0.59227 0.29234 0.84363 0.0
C1877 C 0.60858 0.28878 0.86143 0.0
C1878 C 0.62364 0.27047 0.85365 0.0
C1879 C 0.6258 0.25965 0.82752 0.0
C1880 C 0.61402 0.30886 0.88587 0.0
C1881 C 0.59201 0.31018 0.90292 0.0
C1882 C 0.64016 0.32962 0.89031 0.0
C1883 C 0.66406 0.33004 0.87239 0.0
C1884 C 0.68662 0.326 0.88113 0.0
C1885 C 0.70902 0.32592 0.86418 0.0
C1886 C 0.70909 0.32995 0.83846 0.0
C1887 C 0.68685 0.33428 0.82967 0.0
C1888 C 0.6645 0.33458 0.84659 0.0
C1889 C 0.60662 0.40149 0.98552 0.0
C1890 C 0.60791 0.42508 0.97397 0.0
C1891 C 0.61474 0.37955 0.97127 0.0
C1892 C 0.62361 0.38085 0.94519 0.0
C1893 C 0.62863 0.4063 0.93497 0.0
C1894 C 0.62075 0.42842 0.94936 0.0
C1895 C 0.62088 0.3542 0.92711 0.0
C1896 C 0.64331 0.35186 0.91113 0.0
C1897 C 0.59502 0.33283 0.92322 0.0
C1898 C 0.57023 0.33501 0.93835 0.0
C1899 C 0.55987 0.35646 0.93547 0.0
C1900 C 0.53661 0.35861 0.95001 0.0
C1901 C 0.5235 0.33933 0.96738 0.0
C1902 C 0.53352 0.31774 0.97011 0.0
C1903 C 0.55675 0.31548 0.95558 0.0
H1904 H 0.50553 0.34107 0.97866 0.0
H1905 H 0.72638 0.3298 0.82534 0.0
H1906 H 0.61396 0.30615 0.18764 0.0
H1907 H 0.58743 0.32826 0.16847 0.0
H1908 H 0.65741 0.40499 0.16698 0.0
H1909 H 0.6841 0.38298 0.18624 0.0
H1910 H 0.61256 0.4183 0.18259 0.0
H1911 H 0.63807 0.3567 0.11214 0.0
H1912 H 0.64213 0.31134 0.08905 0.0
H1913 H 0.55521 0.27236 0.09235 0.0
H1914 H 0.55066 0.31742 0.11579 0.0
H1915 H 0.5816 0.48092 0.08486 0.0
H1916 H 0.59668 0.46134 0.11698 0.0
H1917 H 0.52568 0.38527 0.10707 0.0
H1918 H 0.51121 0.40418 0.07337 0.0
H1919 H 0.56727 0.37017 0.10061 0.0
H1920 H 0.54261 0.43489 0.16979 0.0
H1921 H 0.54057 0.48184 0.19089 0.0
H1922 H 0.62775 0.5167 0.18808 0.0
H1923 H 0.63025 0.46998 0.16692 0.0
C1924 C 0.62382 0.32763 0.183 0.0
C1925 C 0.65127 0.34267 0.18827 0.0
C1926 C 0.60857 0.34031 0.17214 0.0
C1927 C 0.62046 0.36823 0.16602 0.0
C1928 C 0.64774 0.38347 0.17159 0.0
C1929 C 0.66299 0.37083 0.18258 0.0
C1930 C 0.60465 0.38125 0.15325 0.0
C1931 C 0.60273 0.40787 0.1646 0.0
C1932 C 0.59136 0.36745 0.13003 0.0
C1933 C 0.59404 0.34032 0.11599 0.0
C1934 C 0.61984 0.33838 0.10814 0.0
C1935 C 0.62222 0.31274 0.09496 0.0
C1936 C 0.59895 0.28895 0.08931 0.0
C1937 C 0.57323 0.29079 0.09679 0.0
C1938 C 0.57073 0.31637 0.11001 0.0
C1939 C 0.56867 0.46032 0.08991 0.0
C1940 C 0.54548 0.44384 0.07595 0.0
C1941 C 0.57728 0.44919 0.10866 0.0
C1942 C 0.56246 0.42167 0.11464 0.0
C1943 C 0.53772 0.40642 0.10267 0.0
C1944 C 0.52933 0.41735 0.08348 0.0
C1945 C 0.57485 0.40732 0.12996 0.0
C1946 C 0.57643 0.38044 0.11894 0.0
C1947 C 0.58799 0.42105 0.15335 0.0
C1948 C 0.58656 0.449 0.16656 0.0
C1949 C 0.5613 0.45263 0.17352 0.0
C1950 C 0.56007 0.47917 0.18553 0.0
C1951 C 0.584 0.50228 0.19067 0.0
C1952 C 0.60922 0.4988 0.18404 0.0
C1953 C 0.61055 0.47226 0.17215 0.0
H1954 H 0.58301 0.52284 0.19986 0.0
H1955 H 0.60084 0.26913 0.07909 0.0
H1956 H 0.7025 0.64573 0.22977 0.0
H1957 H 0.6721 0.61017 0.19835 0.0
H1958 H 0.63181 0.67006 0.19275 0.0
H1959 H 0.66268 0.70581 0.22343 0.0
H1960 H 0.59737 0.60798 0.18594 0.0
H1961 H 0.6831 0.67756 0.15656 0.0
H1962 H 0.73287 0.70061 0.15782 0.0
H1963 H 0.74315 0.61895 0.13449 0.0
H1964 H 0.6933 0.59534 0.13363 0.0
H1965 H 0.55903 0.60357 0.06186 0.0
H1966 H 0.58443 0.62091 0.10124 0.0
H1967 H 0.61554 0.55092 0.08457 0.0
H1968 H 0.58995 0.53313 0.0453 0.0
H1969 H 0.65469 0.60808 0.10421 0.0
H1970 H 0.56951 0.53968 0.12449 0.0
H1971 H 0.51991 0.51628 0.12354 0.0
H1972 H 0.50842 0.59288 0.16476 0.0
H1973 H 0.55812 0.61708 0.16524 0.0
C1974 C 0.68621 0.65066 0.22282 0.0
C1975 C 0.68468 0.67827 0.22889 0.0
C1976 C 0.669 0.63045 0.20483 0.0
C1977 C 0.64997 0.63771 0.19318 0.0
C1978 C 0.64631 0.6641 0.20169 0.0
C1979 C 0.66387 0.68446 0.21919 0.0
C1980 C 0.63807 0.62095 0.16878 0.0
C1981 C 0.60982 0.60781 0.16808 0.0
C1982 C 0.65455 0.6204 0.14564 0.0
C1983 C 0.6845 0.63466 0.14533 0.0
C1984 C 0.69596 0.6645 0.15187 0.0
C1985 C 0.72418 0.67767 0.15252 0.0
C1986 C 0.74117 0.66124 0.14632 0.0
C1987 C 0.72995 0.63163 0.13935 0.0
C1988 C 0.70172 0.61834 0.13879 0.0
C1989 C 0.57172 0.59216 0.06618 0.0
C1990 C 0.57224 0.56679 0.05045 0.0
C1991 C 0.58608 0.60202 0.08878 0.0
C1992 C 0.60149 0.58692 0.09585 0.0
C1993 C 0.60362 0.56274 0.07939 0.0
C1994 C 0.58892 0.5526 0.05696 0.0
C1995 C 0.61388 0.59564 0.12128 0.0
C1996 C 0.64223 0.60748 0.12212 0.0
C1997 C 0.59751 0.59475 0.14457 0.0
C1998 C 0.56757 0.58029 0.14467 0.0
C1999 C 0.55643 0.55165 0.13312 0.0
C2000 C 0.52827 0.53821 0.13272 0.0
C2001 C 0.51096 0.55306 0.14412 0.0
C2002 C 0.52183 0.5814 0.15594 0.0
C2003 C 0.55002 0.59501 0.15626 0.0
H2004 H 0.48914 0.54261 0.14383 0.0
H2005 H 0.763 0.67145 0.14687 0.0
H2006 H 0.35813 0.62948 0.222 0.0
H2007 H 0.36631 0.60138 0.18142 0.0
H2008 H 0.41801 0.67842 0.15231 0.0
H2009 H 0.41093 0.70684 0.19341 0.0
H2010 H 0.37118 0.64552 0.1231 0.0
H2011 H 0.44622 0.63466 0.15922 0.0
H2012 H 0.47089 0.62223 0.19018 0.0
H2013 H 0.41711 0.5351 0.17851 0.0
H2014 H 0.39181 0.54711 0.14775 0.0
H2015 H 0.44423 0.60157 0.01419 0.0
H2016 H 0.41955 0.6208 0.05023 0.0
H2017 H 0.37316 0.53524 0.06542 0.0
H2018 H 0.39766 0.51581 0.02911 0.0
H2019 H 0.40969 0.56714 0.10249 0.0
H2020 H 0.33937 0.57788 0.06042 0.0
H2021 H 0.31788 0.59117 0.02738 0.0
H2022 H 0.36525 0.6796 0.04836 0.0
H2023 H 0.38742 0.66684 0.08123 0.0
C2024 C 0.37228 0.64045 0.20753 0.0
C2025 C 0.38357 0.6705 0.21079 0.0
C2026 C 0.37669 0.62431 0.18422 0.0
C2027 C 0.39231 0.63799 0.16389 0.0
C2028 C 0.40559 0.66765 0.16782 0.0
C2029 C 0.40153 0.68379 0.19126 0.0
C2030 C 0.3921 0.6218 0.13774 0.0
C2031 C 0.37983 0.62854 0.11839 0.0
C2032 C 0.40234 0.59896 0.13221 0.0
C2033 C 0.41683 0.5919 0.15149 0.0
C2034 C 0.43935 0.61295 0.16357 0.0
C2035 C 0.45353 0.60595 0.181 0.0
C2036 C 0.4455 0.57792 0.18639 0.0
C2037 C 0.42325 0.55683 0.17438 0.0
C2038 C 0.40898 0.56373 0.15695 0.0
C2039 C 0.42783 0.58683 0.02441 0.0
C2040 C 0.42327 0.55734 0.01943 0.0
C2041 C 0.4136 0.59781 0.0449 0.0
C2042 C 0.39489 0.57939 0.06066 0.0
C2043 C 0.38762 0.54971 0.05343 0.0
C2044 C 0.40162 0.53866 0.03267 0.0
C2045 C 0.38926 0.59116 0.08749 0.0
C2046 C 0.40047 0.58367 0.10717 0.0
C2047 C 0.37829 0.61348 0.09319 0.0
C2048 C 0.36521 0.62133 0.07324 0.0
C2049 C 0.34543 0.60014 0.05784 0.0
C2050 C 0.33308 0.60759 0.03916 0.0
C2051 C 0.34023 0.6362 0.03574 0.0
C2052 C 0.35974 0.65744 0.05102 0.0
C2053 C 0.37218 0.6501 0.06971 0.0
H2054 H 0.33062 0.64193 0.02128 0.0
H2055 H 0.45659 0.57252 0.19979 0.0
H2056 H 0.28688 0.33381 0.19998 0.0
H2057 H 0.31609 0.36264 0.16818 0.0
H2058 H 0.37935 0.32914 0.17661 0.0
H2059 H 0.35068 0.30126 0.20924 0.0
H2060 H 0.40234 0.38231 0.17093 0.0
H2061 H 0.33492 0.30372 0.12415 0.0
H2062 H 0.28824 0.27204 0.11432 0.0
H2063 H 0.26909 0.34327 0.09792 0.0
H2064 H 0.31558 0.37546 0.10798 0.0
H2065 H 0.4777 0.4256 0.05465 0.0
H2066 H 0.45097 0.39759 0.08798 0.0
H2067 H 0.386 0.4298 0.08278 0.0
H2068 H 0.41225 0.4568 0.04872 0.0
H2069 H 0.36464 0.37589 0.08637 0.0
H2070 H 0.43176 0.45471 0.13719 0.0
H2071 H 0.4793 0.48516 0.14466 0.0
H2072 H 0.49967 0.41109 0.15048 0.0
H2073 H 0.45215 0.38033 0.14343 0.0
C2074 C 0.30712 0.33281 0.19529 0.0
C2075 C 0.31633 0.31511 0.20722 0.0
C2076 C 0.3238 0.34917 0.17688 0.0
C2077 C 0.34987 0.34772 0.16937 0.0
C2078 C 0.35939 0.33073 0.18188 0.0
C2079 C 0.34289 0.31472 0.20061 0.0
C2080 C 0.3669 0.36329 0.14811 0.0
C2081 C 0.39407 0.3806 0.15239 0.0
C2082 C 0.3564 0.36146 0.12377 0.0
C2083 C 0.32866 0.34203 0.11703 0.0
C2084 C 0.32072 0.31264 0.11854 0.0
C2085 C 0.2943 0.2946 0.11293 0.0
C2086 C 0.27569 0.30565 0.10557 0.0
C2087 C 0.28352 0.33475 0.10365 0.0
C2088 C 0.30991 0.3529 0.10927 0.0
C2089 C 0.4579 0.42693 0.06071 0.0
C2090 C 0.44738 0.44366 0.04895 0.0
C2091 C 0.44251 0.4109 0.07995 0.0
C2092 C 0.41642 0.41178 0.08845 0.0
C2093 C 0.40595 0.42856 0.07672 0.0
C2094 C 0.42112 0.44414 0.05722 0.0
C2095 C 0.39987 0.39523 0.10936 0.0
C2096 C 0.37283 0.37765 0.10497 0.0
C2097 C 0.41051 0.39661 0.13348 0.0
C2098 C 0.43852 0.41527 0.13969 0.0
C2099 C 0.44639 0.445 0.14025 0.0
C2100 C 0.47336 0.46231 0.14435 0.0
C2101 C 0.49263 0.4501 0.14783 0.0
C2102 C 0.48481 0.4206 0.14777 0.0
C2103 C 0.45782 0.40322 0.14389 0.0
H2104 H 0.51358 0.46349 0.1505 0.0
H2105 H 0.25522 0.29167 0.10131 0.0
H2106 H 0.80416 0.67431 0.7327 0.0
H2107 H 0.829 0.64586 0.70573 0.0
H2108 H 0.82611 0.68553 0.63997 0.0
H2109 H 0.79983 0.71266 0.66658 0.0
H2110 H 0.82185 0.63547 0.62165 0.0
H2111 H 0.88579 0.70335 0.68034 0.0
H2112 H 0.90257 0.72826 0.72323 0.0
H2113 H 0.89943 0.64882 0.74491 0.0
H2114 H 0.88229 0.62338 0.70226 0.0
H2115 H 0.96237 0.61162 0.58445 0.0
H2116 H 0.93422 0.63576 0.61187 0.0
H2117 H 0.8629 0.56209 0.59361 0.0
H2118 H 0.89103 0.53795 0.56551 0.0
H2119 H 0.90472 0.6294 0.65376 0.0
H2120 H 0.80642 0.58144 0.59655 0.0
H2121 H 0.79274 0.56275 0.55156 0.0
H2122 H 0.87134 0.61307 0.52286 0.0
H2123 H 0.88534 0.63232 0.56764 0.0
C2124 C 0.80866 0.67689 0.71245 0.0
C2125 C 0.79989 0.69599 0.70199 0.0
C2126 C 0.82321 0.6607 0.69695 0.0
C2127 C 0.83038 0.66372 0.6706 0.0
C2128 C 0.82115 0.68247 0.66008 0.0
C2129 C 0.80605 0.69816 0.67543 0.0
C2130 C 0.84754 0.64774 0.6541 0.0
C2131 C 0.83989 0.63416 0.62887 0.0
C2132 C 0.87163 0.6461 0.66279 0.0
C2133 C 0.88253 0.66144 0.68821 0.0
C2134 C 0.88859 0.69119 0.6943 0.0
C2135 C 0.89816 0.7054 0.71856 0.0
C2136 C 0.90199 0.69012 0.73681 0.0
C2137 C 0.89641 0.66062 0.73077 0.0
C2138 C 0.88679 0.6463 0.70655 0.0
C2139 C 0.9407 0.60036 0.58618 0.0
C2140 C 0.9292 0.57263 0.57242 0.0
C2141 C 0.92449 0.61431 0.60209 0.0
C2142 C 0.8961 0.60119 0.6049 0.0
C2143 C 0.88458 0.57322 0.59163 0.0
C2144 C 0.90082 0.55924 0.57558 0.0
C2145 C 0.87886 0.61697 0.62145 0.0
C2146 C 0.88655 0.63054 0.64666 0.0
C2147 C 0.8553 0.61937 0.61244 0.0
C2148 C 0.84701 0.60803 0.58545 0.0
C2149 C 0.82074 0.58855 0.58063 0.0
C2150 C 0.81294 0.57787 0.55517 0.0
C2151 C 0.83119 0.58664 0.53436 0.0
C2152 C 0.85726 0.6062 0.53898 0.0
C2153 C 0.86515 0.61698 0.5644 0.0
H2154 H 0.82512 0.57833 0.51467 0.0
H2155 H 0.90932 0.70115 0.75561 0.0
H2156 H 0.34123 0.77366 0.68602 0.0
H2157 H 0.37366 0.8042 0.65731 0.0
H2158 H 0.33741 0.86969 0.68181 0.0
H2159 H 0.30458 0.83912 0.7102 0.0
H2160 H 0.34493 0.86221 0.63112 0.0
H2161 H 0.39901 0.87471 0.70325 0.0
H2162 H 0.42 0.85949 0.73539 0.0
H2163 H 0.46317 0.82181 0.67419 0.0
H2164 H 0.4421 0.83644 0.64164 0.0
H2165 H 0.43785 0.98081 0.58598 0.0
H2166 H 0.41442 0.94841 0.61711 0.0
H2167 H 0.452 0.88754 0.57905 0.0
H2168 H 0.47641 0.92064 0.54807 0.0
H2169 H 0.44504 0.88921 0.63387 0.0
H2170 H 0.39069 0.88057 0.56184 0.0
H2171 H 0.37181 0.90132 0.53228 0.0
H2172 H 0.32971 0.9358 0.59674 0.0
H2173 H 0.34862 0.91563 0.62672 0.0
C2174 C 0.34015 0.79458 0.68536 0.0
C2175 C 0.32025 0.80392 0.70043 0.0
C2176 C 0.35884 0.81208 0.66902 0.0
C2177 C 0.35816 0.83935 0.6676 0.0
C2178 C 0.33832 0.84871 0.6826 0.0
C2179 C 0.31955 0.8312 0.69885 0.0
C2180 C 0.3775 0.85789 0.6499 0.0
C2181 C 0.3668 0.86823 0.63191 0.0
C2182 C 0.40608 0.86526 0.65047 0.0
C2183 C 0.41871 0.85636 0.66999 0.0
C2184 C 0.41277 0.86294 0.69663 0.0
C2185 C 0.42473 0.85446 0.71492 0.0
C2186 C 0.44284 0.83961 0.70683 0.0
C2187 C 0.44909 0.83326 0.68042 0.0
C2188 C 0.43715 0.84165 0.66204 0.0
C2189 C 0.44152 0.96074 0.58451 0.0
C2190 C 0.45856 0.95296 0.56442 0.0
C2191 C 0.42814 0.94227 0.6023 0.0
C2192 C 0.43091 0.91529 0.59994 0.0
C2193 C 0.44944 0.90821 0.58104 0.0
C2194 C 0.46334 0.92706 0.56339 0.0
C2195 C 0.41235 0.89383 0.61561 0.0
C2196 C 0.42315 0.88284 0.633 0.0
C2197 C 0.38379 0.88604 0.61477 0.0
C2198 C 0.3712 0.89673 0.59653 0.0
C2199 C 0.3774 0.89258 0.5697 0.0
C2200 C 0.36674 0.90429 0.55288 0.0
C2201 C 0.3497 0.91998 0.56268 0.0
C2202 C 0.34297 0.92369 0.58922 0.0
C2203 C 0.35361 0.91208 0.60612 0.0
H2204 H 0.34169 0.92933 0.54975 0.0
H2205 H 0.45208 0.83308 0.72103 0.0
H2206 H 0.19273 0.37137 0.66738 0.0
H2207 H 0.16222 0.38948 0.64925 0.0
H2208 H 0.10847 0.30315 0.62775 0.0
H2209 H 0.13942 0.28479 0.64522 0.0
H2210 H 0.11651 0.33319 0.58859 0.0
H2211 H 0.09119 0.34771 0.67848 0.0
H2212 H 0.09822 0.36413 0.72509 0.0
H2213 H 0.1334 0.45111 0.71047 0.0
H2214 H 0.12694 0.43518 0.66369 0.0
H2215 H 0.02085 0.3827 0.54524 0.0
H2216 H 0.03823 0.35996 0.57373 0.0
H2217 H 0.1012 0.44029 0.59642 0.0
H2218 H 0.08388 0.46324 0.56831 0.0
H2219 H 0.08323 0.40926 0.63697 0.0
H2220 H 0.11194 0.39379 0.54681 0.0
H2221 H 0.10304 0.3778 0.5005 0.0
H2222 H 0.06129 0.29186 0.51598 0.0
H2223 H 0.06905 0.3076 0.56261 0.0
C2224 C 0.17447 0.35617 0.65875 0.0
C2225 C 0.16865 0.32657 0.65773 0.0
C2226 C 0.15684 0.3666 0.64861 0.0
C2227 C 0.13281 0.34774 0.63733 0.0
C2228 C 0.1268 0.31817 0.63643 0.0
C2229 C 0.14444 0.3077 0.64662 0.0
C2230 C 0.11467 0.35897 0.62557 0.0
C2231 C 0.10879 0.34939 0.59937 0.0
C2232 C 0.10488 0.3805 0.6394 0.0
C2233 C 0.10877 0.39021 0.66753 0.0
C2234 C 0.10062 0.37032 0.68517 0.0
C2235 C 0.10447 0.37954 0.71163 0.0
C2236 C 0.1163 0.40864 0.72073 0.0
C2237 C 0.12426 0.42858 0.70339 0.0
C2238 C 0.12048 0.41946 0.6769 0.0
C2239 C 0.03799 0.39572 0.55674 0.0
C2240 C 0.05122 0.42474 0.55407 0.0
C2241 C 0.04798 0.38264 0.57299 0.0
C2242 C 0.0714 0.39827 0.58683 0.0
C2243 C 0.08322 0.42772 0.58584 0.0
C2244 C 0.0733 0.4408 0.56962 0.0
C2245 C 0.08537 0.38365 0.60004 0.0
C2246 C 0.09061 0.39271 0.6264 0.0
C2247 C 0.09458 0.36163 0.58638 0.0
C2248 C 0.09077 0.35194 0.55825 0.0
C2249 C 0.10067 0.37153 0.54038 0.0
C2250 C 0.09576 0.36253 0.51409 0.0
C2251 C 0.08157 0.33383 0.5053 0.0
C2252 C 0.07223 0.31409 0.52282 0.0
C2253 C 0.07679 0.32306 0.54921 0.0
H2254 H 0.0779 0.32689 0.4849 0.0
H2255 H 0.11926 0.41574 0.74122 0.0
H2256 H 0.68418 0.17836 0.70913 0.0
H2257 H 0.66613 0.1425 0.67236 0.0
H2258 H 0.74756 0.14954 0.64244 0.0
H2259 H 0.76605 0.18619 0.67961 0.0
H2260 H 0.71727 0.15195 0.60527 0.0
H2261 H 0.70735 0.08744 0.663 0.0
H2262 H 0.69684 0.06754 0.70417 0.0
H2263 H 0.61276 0.0579 0.70086 0.0
H2264 H 0.62279 0.07816 0.65989 0.0
H2265 H 0.59277 0.02086 0.54349 0.0
H2266 H 0.6342 0.03847 0.56775 0.0
H2267 H 0.63689 0.12523 0.56933 0.0
H2268 H 0.59628 0.10801 0.54471 0.0
H2269 H 0.63856 0.06372 0.61471 0.0
H2270 H 0.69731 0.17321 0.57646 0.0
H2271 H 0.70985 0.19097 0.53435 0.0
H2272 H 0.70103 0.10604 0.49618 0.0
H2273 H 0.68887 0.08779 0.5381 0.0
C2274 C 0.69838 0.17214 0.69495 0.0
C2275 C 0.72658 0.18521 0.69725 0.0
C2276 C 0.68798 0.15138 0.67398 0.0
C2277 C 0.70545 0.14298 0.65477 0.0
C2278 C 0.73371 0.15555 0.65715 0.0
C2279 C 0.74422 0.17638 0.6784 0.0
C2280 C 0.69356 0.1229 0.63143 0.0
C2281 C 0.70032 0.1324 0.60716 0.0
C2282 C 0.67219 0.09675 0.63368 0.0
C2283 C 0.66587 0.08436 0.65831 0.0
C2284 C 0.68663 0.08122 0.6711 0.0
C2285 C 0.68076 0.06986 0.69441 0.0
C2286 C 0.65415 0.06146 0.70512 0.0
C2287 C 0.63336 0.06437 0.69252 0.0
C2288 C 0.63912 0.07574 0.66921 0.0
C2289 C 0.60263 0.04375 0.54839 0.0
C2290 C 0.59101 0.06301 0.54232 0.0
C2291 C 0.62629 0.05376 0.56234 0.0
C2292 C 0.63888 0.08321 0.57028 0.0
C2293 C 0.62803 0.10245 0.56303 0.0
C2294 C 0.60451 0.09252 0.54911 0.0
C2295 C 0.6609 0.09398 0.589 0.0
C2296 C 0.65603 0.08272 0.61245 0.0
C2297 C 0.68437 0.11811 0.58578 0.0
C2298 C 0.6921 0.12911 0.56051 0.0
C2299 C 0.69827 0.15833 0.55915 0.0
C2300 C 0.70526 0.16848 0.53527 0.0
C2301 C 0.70621 0.14964 0.5126 0.0
C2302 C 0.70023 0.12061 0.51375 0.0
C2303 C 0.69325 0.11034 0.53757 0.0
H2304 H 0.71159 0.15754 0.49414 0.0
H2305 H 0.64965 0.05268 0.72317 0.0
H2306 H 0.83694 0.31705 0.29781 0.0
H2307 H 0.85625 0.35142 0.33521 0.0
H2308 H 0.77572 0.34465 0.36781 0.0
H2309 H 0.75601 0.30975 0.33019 0.0
H2310 H 0.85335 0.40343 0.3567 0.0
H2311 H 0.78041 0.34863 0.43464 0.0
H2312 H 0.7462 0.30176 0.44095 0.0
H2313 H 0.79044 0.25938 0.38508 0.0
H2314 H 0.82503 0.30596 0.3787 0.0
H2315 H 0.92823 0.47343 0.46745 0.0
H2316 H 0.8857 0.45435 0.44496 0.0
H2317 H 0.89112 0.36973 0.43508 0.0
H2318 H 0.93279 0.38829 0.45819 0.0
H2319 H 0.8396 0.36597 0.44048 0.0
H2320 H 0.92191 0.4198 0.39189 0.0
H2321 H 0.95912 0.46404 0.38361 0.0
H2322 H 0.90086 0.50421 0.37673 0.0
H2323 H 0.86338 0.46053 0.38577 0.0
C2324 C 0.82325 0.32294 0.31279 0.0
C2325 C 0.79494 0.31046 0.31116 0.0
C2326 C 0.83434 0.34281 0.33408 0.0
C2327 C 0.81742 0.35056 0.35426 0.0
C2328 C 0.7891 0.33886 0.35242 0.0
C2329 C 0.77791 0.31894 0.33097 0.0
C2330 C 0.83 0.36902 0.37789 0.0
C2331 C 0.84996 0.3956 0.37524 0.0
C2332 C 0.82542 0.35885 0.40206 0.0
C2333 C 0.80503 0.33074 0.40596 0.0
C2334 C 0.78281 0.32928 0.42375 0.0
C2335 C 0.76338 0.30279 0.42734 0.0
C2336 C 0.76608 0.27762 0.41335 0.0
C2337 C 0.78831 0.27889 0.39583 0.0
C2338 C 0.80782 0.30532 0.39221 0.0
C2339 C 0.91997 0.45067 0.46115 0.0
C2340 C 0.93423 0.43249 0.46418 0.0
C2341 C 0.89565 0.43979 0.44825 0.0
C2342 C 0.88551 0.41071 0.43791 0.0
C2343 C 0.89855 0.39226 0.44283 0.0
C2344 C 0.9226 0.40301 0.45587 0.0
C2345 C 0.86399 0.39969 0.41888 0.0
C2346 C 0.8422 0.37456 0.42239 0.0
C2347 C 0.86728 0.41089 0.39527 0.0
C2348 C 0.8899 0.43711 0.38994 0.0
C2349 C 0.91708 0.4382 0.38889 0.0
C2350 C 0.93822 0.46319 0.38411 0.0
C2351 C 0.93238 0.48703 0.37988 0.0
C2352 C 0.90539 0.48587 0.3803 0.0
C2353 C 0.8842 0.46104 0.38532 0.0
H2354 H 0.94876 0.50634 0.37615 0.0
H2355 H 0.751 0.25714 0.41612 0.0
H2356 H 0.73727 0.79952 0.33384 0.0
H2357 H 0.71343 0.82841 0.3617 0.0
H2358 H 0.65263 0.80497 0.30499 0.0
H2359 H 0.67759 0.77778 0.27644 0.0
H2360 H 0.65801 0.85461 0.32167 0.0
H2361 H 0.64516 0.77836 0.36991 0.0
H2362 H 0.65812 0.74601 0.39215 0.0
H2363 H 0.7053 0.81777 0.4441 0.0
H2364 H 0.69287 0.85059 0.42197 0.0
H2365 H 0.55692 0.8931 0.40907 0.0
H2366 H 0.58339 0.86672 0.38154 0.0
H2367 H 0.65362 0.91448 0.426 0.0
H2368 H 0.62731 0.94147 0.4534 0.0
H2369 H 0.64393 0.85395 0.41655 0.0
H2370 H 0.65208 0.92907 0.36677 0.0
H2371 H 0.63465 0.95782 0.34421 0.0
H2372 H 0.58973 0.88213 0.29501 0.0
H2373 H 0.60668 0.85285 0.31737 0.0
C2374 C 0.7187 0.80032 0.32737 0.0
C2375 C 0.7094 0.78597 0.3028 0.0
C2376 C 0.70479 0.81683 0.34352 0.0
C2377 C 0.68047 0.81883 0.33616 0.0
C2378 C 0.67117 0.80424 0.31159 0.0
C2379 C 0.68547 0.78839 0.29517 0.0
C2380 C 0.66514 0.83647 0.35346 0.0
C2381 C 0.65472 0.85391 0.34234 0.0
C2382 C 0.66077 0.83657 0.38078 0.0
C2383 C 0.66833 0.81694 0.3941 0.0
C2384 C 0.65845 0.78725 0.38596 0.0
C2385 C 0.66568 0.76883 0.39856 0.0
C2386 C 0.68259 0.77984 0.41947 0.0
C2387 C 0.69224 0.80928 0.42787 0.0
C2388 C 0.6851 0.8278 0.41532 0.0
C2389 C 0.57806 0.89826 0.41298 0.0
C2390 C 0.58982 0.91974 0.4336 0.0
C2391 C 0.59328 0.88305 0.39709 0.0
C2392 C 0.62074 0.88842 0.40141 0.0
C2393 C 0.63255 0.90974 0.42206 0.0
C2394 C 0.61746 0.92537 0.4377 0.0
C2395 C 0.63685 0.8716 0.38459 0.0
C2396 C 0.64735 0.85443 0.39585 0.0
C2397 C 0.64064 0.87111 0.35733 0.0
C2398 C 0.63045 0.88873 0.34391 0.0
C2399 C 0.63831 0.91852 0.35129 0.0
C2400 C 0.62855 0.93492 0.33852 0.0
C2401 C 0.61102 0.92181 0.31829 0.0
C2402 C 0.60328 0.89226 0.31071 0.0
C2403 C 0.61298 0.87575 0.32339 0.0
H2404 H 0.6035 0.93456 0.30844 0.0
H2405 H 0.68816 0.76555 0.4292 0.0
H2406 H 0.16831 0.72491 0.3064 0.0
H2407 H 0.13169 0.69482 0.3328 0.0
H2408 H 0.17769 0.63859 0.33168 0.0
H2409 H 0.21385 0.66812 0.3052 0.0
H2410 H 0.1257 0.60844 0.32255 0.0
H2411 H 0.17418 0.69103 0.38372 0.0
H2412 H 0.19051 0.74222 0.40178 0.0
H2413 H 0.10839 0.74214 0.41142 0.0
H2414 H 0.09157 0.69112 0.39282 0.0
H2415 H 0.09976 0.53973 0.42978 0.0
H2416 H 0.11689 0.57164 0.39748 0.0
H2417 H 0.04752 0.5998 0.41376 0.0
H2418 H 0.02988 0.56737 0.44659 0.0
H2419 H 0.09851 0.64529 0.41125 0.0
H2420 H 0.04955 0.56106 0.35843 0.0
H2421 H 0.03258 0.50954 0.34189 0.0
H2422 H 0.11384 0.51226 0.31704 0.0
H2423 H 0.13139 0.56374 0.33379 0.0
C2424 C 0.17055 0.70613 0.31184 0.0
C2425 C 0.19406 0.69903 0.30372 0.0
C2426 C 0.14964 0.68898 0.32696 0.0
C2427 C 0.15193 0.66445 0.33439 0.0
C2428 C 0.17533 0.6573 0.32615 0.0
C2429 C 0.19611 0.67434 0.31105 0.0
C2430 C 0.13037 0.64599 0.35086 0.0
C2431 C 0.11978 0.61654 0.34195 0.0
C2432 C 0.12149 0.65662 0.37573 0.0
C2433 C 0.13167 0.68737 0.38653 0.0
C2434 C 0.15963 0.70202 0.38939 0.0
C2435 C 0.16896 0.73099 0.39977 0.0
C2436 C 0.15048 0.74545 0.40768 0.0
C2437 C 0.12264 0.73092 0.40529 0.0
C2438 C 0.11321 0.70202 0.39473 0.0
C2439 C 0.08792 0.55253 0.42662 0.0
C2440 C 0.06338 0.55095 0.44102 0.0
C2441 C 0.09776 0.57075 0.40794 0.0
C2442 C 0.08344 0.58798 0.40301 0.0
C2443 C 0.0589 0.58664 0.41723 0.0
C2444 C 0.04881 0.56805 0.43594 0.0
C2445 C 0.09518 0.6077 0.3834 0.0
C2446 C 0.10384 0.63732 0.3916 0.0
C2447 C 0.10219 0.5973 0.35779 0.0
C2448 C 0.09179 0.56632 0.34745 0.0
C2449 C 0.06384 0.55067 0.34957 0.0
C2450 C 0.0541 0.52145 0.34014 0.0
C2451 C 0.07212 0.50763 0.32843 0.0
C2452 C 0.0999 0.52301 0.3261 0.0
C2453 C 0.10975 0.55223 0.33551 0.0
H2454 H 0.06455 0.485 0.32115 0.0
H2455 H 0.15772 0.76788 0.41571 0.0
H2456 H 0.40675 0.20052 0.31665 0.0
H2457 H 0.43016 0.17529 0.33618 0.0
H2458 H 0.37476 0.17129 0.40333 0.0
H2459 H 0.35161 0.19705 0.38418 0.0
H2460 H 0.42605 0.18553 0.41789 0.0
H2461 H 0.36807 0.11284 0.35714 0.0
H2462 H 0.34938 0.09093 0.31433 0.0
H2463 H 0.42856 0.09218 0.28297 0.0
H2464 H 0.44781 0.11447 0.32554 0.0
H2465 H 0.4389 0.04422 0.44028 0.0
H2466 H 0.42245 0.06976 0.4141 0.0
H2467 H 0.49501 0.14334 0.42744 0.0
H2468 H 0.51136 0.11814 0.45448 0.0
H2469 H 0.43624 0.09492 0.372 0.0
H2470 H 0.47754 0.20402 0.43565 0.0
H2471 H 0.49556 0.2229 0.47917 0.0
H2472 H 0.44533 0.1449 0.50682 0.0
H2473 H 0.42629 0.12599 0.46377 0.0
C2474 C 0.39961 0.19448 0.33566 0.0
C2475 C 0.37714 0.20085 0.34874 0.0
C2476 C 0.41294 0.17981 0.34675 0.0
C2477 C 0.40419 0.1711 0.37122 0.0
C2478 C 0.38197 0.17769 0.38444 0.0
C2479 C 0.36854 0.19223 0.37331 0.0
C2480 C 0.418 0.15498 0.38299 0.0
C2481 C 0.42834 0.16579 0.40776 0.0
C2482 C 0.42095 0.12904 0.37003 0.0
C2483 C 0.40942 0.1156 0.34445 0.0
C2484 C 0.38154 0.10865 0.34106 0.0
C2485 C 0.37083 0.09613 0.31685 0.0
C2486 C 0.38779 0.09024 0.29592 0.0
C2487 C 0.41547 0.0968 0.29918 0.0
C2488 C 0.42628 0.10936 0.32335 0.0
C2489 C 0.45169 0.06567 0.43739 0.0
C2490 C 0.47634 0.0792 0.44999 0.0
C2491 C 0.44221 0.08029 0.42225 0.0
C2492 C 0.45709 0.1088 0.41918 0.0
C2493 C 0.48278 0.12159 0.42994 0.0
C2494 C 0.49221 0.10704 0.44531 0.0
C2495 C 0.44452 0.12561 0.40676 0.0
C2496 C 0.43426 0.11486 0.38197 0.0
C2497 C 0.44129 0.1514 0.41985 0.0
C2498 C 0.45078 0.16348 0.44639 0.0
C2499 C 0.47008 0.19107 0.45112 0.0
C2500 C 0.48047 0.20177 0.4757 0.0
C2501 C 0.4717 0.18505 0.4957 0.0
C2502 C 0.45213 0.15782 0.49131 0.0
C2503 C 0.44143 0.14716 0.46686 0.0
H2504 H 0.48005 0.19322 0.51461 0.0
H2505 H 0.37946 0.08054 0.27719 0.0
H2506 H 0.67775 0.84455 0.66251 0.0
H2507 H 0.65374 0.87008 0.64424 0.0
H2508 H 0.58892 0.79062 0.62348 0.0
H2509 H 0.61273 0.76498 0.64177 0.0
H2510 H 0.60298 0.82058 0.58403 0.0
H2511 H 0.58176 0.84087 0.67491 0.0
H2512 H 0.59296 0.85733 0.72073 0.0
H2513 H 0.63914 0.94137 0.70279 0.0
H2514 H 0.62864 0.92528 0.65674 0.0
H2515 H 0.5168 0.88343 0.54283 0.0
H2516 H 0.53257 0.85784 0.56991 0.0
H2517 H 0.59984 0.93452 0.5922 0.0
H2518 H 0.58406 0.96033 0.56562 0.0
H2519 H 0.58213 0.90479 0.63228 0.0
H2520 H 0.60732 0.88441 0.54207 0.0
H2521 H 0.59906 0.86855 0.49557 0.0
H2522 H 0.54758 0.78549 0.51204 0.0
H2523 H 0.55524 0.801 0.55871 0.0
C2524 C 0.65821 0.83252 0.65439 0.0
C2525 C 0.64728 0.80262 0.65362 0.0
C2526 C 0.64448 0.84717 0.64389 0.0
C2527 C 0.61933 0.83237 0.6326 0.0
C2528 C 0.6083 0.80258 0.63197 0.0
C2529 C 0.62203 0.78791 0.64239 0.0
C2530 C 0.60488 0.84774 0.62078 0.0
C2531 C 0.59799 0.83866 0.59478 0.0
C2532 C 0.59889 0.87182 0.6345 0.0
C2533 C 0.60459 0.88179 0.66231 0.0
C2534 C 0.59442 0.86283 0.6807 0.0
C2535 C 0.60065 0.87208 0.70672 0.0
C2536 C 0.61681 0.90035 0.71465 0.0
C2537 C 0.62666 0.91946 0.6966 0.0
C2538 C 0.62056 0.91029 0.67054 0.0
C2539 C 0.5346 0.89506 0.55394 0.0
C2540 C 0.54931 0.92391 0.55166 0.0
C2541 C 0.54372 0.88032 0.56932 0.0
C2542 C 0.56781 0.89403 0.58268 0.0
C2543 C 0.58133 0.92334 0.58199 0.0
C2544 C 0.57224 0.93809 0.56667 0.0
C2545 C 0.58017 0.87752 0.59558 0.0
C2546 C 0.58681 0.88647 0.62169 0.0
C2547 C 0.58613 0.85339 0.58195 0.0
C2548 C 0.5816 0.84396 0.5539 0.0
C2549 C 0.59408 0.86283 0.53579 0.0
C2550 C 0.58953 0.8539 0.50941 0.0
C2551 C 0.57275 0.82606 0.50087 0.0
C2552 C 0.56053 0.80707 0.51869 0.0
C2553 C 0.56498 0.81591 0.54511 0.0
H2554 H 0.56926 0.81918 0.48043 0.0
H2555 H 0.62166 0.90745 0.73479 0.0
H2556 H 0.67235 0.19291 0.27774 0.0
H2557 H 0.63911 0.16223 0.30583 0.0
H2558 H 0.70416 0.15885 0.34751 0.0
H2559 H 0.73756 0.18907 0.31924 0.0
H2560 H 0.66731 0.10732 0.33737 0.0
H2561 H 0.66592 0.20207 0.37161 0.0
H2562 H 0.66039 0.24824 0.3696 0.0
H2563 H 0.57813 0.20452 0.34733 0.0
H2564 H 0.58331 0.15804 0.34887 0.0
H2565 H 0.61434 0.06798 0.45561 0.0
H2566 H 0.63664 0.09771 0.42238 0.0
H2567 H 0.5592 0.08056 0.39043 0.0
H2568 H 0.53631 0.05087 0.42453 0.0
H2569 H 0.59559 0.13792 0.39018 0.0
H2570 H 0.59701 0.04258 0.36199 0.0
H2571 H 0.60392 -0.00178 0.36821 0.0
H2572 H 0.68807 0.04492 0.38185 0.0
H2573 H 0.68161 0.0896 0.37604 0.0
C2574 C 0.67963 0.18565 0.29288 0.0
C2575 C 0.70766 0.19352 0.29628 0.0
C2576 C 0.66055 0.16819 0.30898 0.0
C2577 C 0.66913 0.1585 0.32895 0.0
C2578 C 0.69708 0.16608 0.33221 0.0
C2579 C 0.71616 0.1834 0.31604 0.0
C2580 C 0.64916 0.14027 0.34644 0.0
C2581 C 0.65169 0.11408 0.34895 0.0
C2582 C 0.62822 0.14867 0.36099 0.0
C2583 C 0.62512 0.17658 0.36002 0.0
C2584 C 0.64674 0.20229 0.36605 0.0
C2585 C 0.64365 0.22852 0.36504 0.0
C2586 C 0.61896 0.22931 0.35825 0.0
C2587 C 0.59727 0.20387 0.35253 0.0
C2588 C 0.60026 0.17759 0.35347 0.0
C2589 C 0.60193 0.07062 0.44165 0.0
C2590 C 0.57365 0.05658 0.44225 0.0
C2591 C 0.61473 0.08765 0.42268 0.0
C2592 C 0.59966 0.09063 0.40354 0.0
C2593 C 0.57118 0.07818 0.40491 0.0
C2594 C 0.55817 0.06126 0.4243 0.0
C2595 C 0.61439 0.10553 0.38158 0.0
C2596 C 0.61084 0.13094 0.37816 0.0
C2597 C 0.6346 0.09658 0.36628 0.0
C2598 C 0.63878 0.06948 0.36867 0.0
C2599 C 0.61698 0.04339 0.36635 0.0
C2600 C 0.62081 0.0182 0.36983 0.0
C2601 C 0.6464 0.01878 0.37551 0.0
C2602 C 0.66826 0.04451 0.37747 0.0
C2603 C 0.66454 0.06976 0.37402 0.0
H2604 H 0.64929 -0.00066 0.37845 0.0
H2605 H 0.6166 0.24963 0.35749 0.0
H2606 H 0.82645 0.61393 0.33055 0.0
H2607 H 0.85669 0.59588 0.3492 0.0
H2608 H 0.9081 0.68225 0.37444 0.0
H2609 H 0.8777 0.70059 0.35596 0.0
H2610 H 0.93816 0.64497 0.35656 0.0
H2611 H 0.86308 0.64853 0.41652 0.0
H2612 H 0.81474 0.63893 0.43023 0.0
H2613 H 0.79962 0.54855 0.41273 0.0
H2614 H 0.84782 0.55763 0.39854 0.0
H2615 H 0.99531 0.61029 0.46172 0.0
H2616 H 0.97618 0.63065 0.43241 0.0
H2617 H 0.91822 0.54721 0.40873 0.0
H2618 H 0.93703 0.52675 0.43773 0.0
H2619 H 0.89337 0.58492 0.42512 0.0
H2620 H 0.97094 0.58182 0.37 0.0
H2621 H 0.01989 0.59245 0.35912 0.0
H2622 H 0.03167 0.68206 0.36758 0.0
H2623 H 0.98277 0.67202 0.37897 0.0
C2624 C 0.8442 0.62917 0.34 0.0
C2625 C 0.84932 0.65876 0.34207 0.0
C2626 C 0.86161 0.61878 0.35052 0.0
C2627 C 0.88455 0.63767 0.36352 0.0
C2628 C 0.89058 0.66724 0.36447 0.0
C2629 C 0.87313 0.67769 0.35389 0.0
C2630 C 0.9006 0.62643 0.378 0.0
C2631 C 0.92853 0.63208 0.37175 0.0
C2632 C 0.88796 0.60928 0.39759 0.0
C2633 C 0.85899 0.60377 0.40623 0.0
C2634 C 0.8494 0.62662 0.4154 0.0
C2635 C 0.82204 0.62127 0.42329 0.0
C2636 C 0.8041 0.59315 0.42228 0.0
C2637 C 0.81352 0.57032 0.41346 0.0
C2638 C 0.84086 0.57555 0.4055 0.0
C2639 C 0.97893 0.59615 0.44979 0.0
C2640 C 0.96752 0.56692 0.45239 0.0
C2641 C 0.96799 0.60784 0.43302 0.0
C2642 C 0.9456 0.59048 0.41841 0.0
C2643 C 0.93538 0.56105 0.41984 0.0
C2644 C 0.94623 0.54938 0.43649 0.0
C2645 C 0.931 0.60298 0.40355 0.0
C2646 C 0.9032 0.59768 0.40986 0.0
C2647 C 0.94393 0.62039 0.38413 0.0
C2648 C 0.97319 0.62625 0.3761 0.0
C2649 C 0.98396 0.60386 0.3699 0.0
C2650 C 0.01172 0.60975 0.36355 0.0
C2651 C 0.02893 0.63793 0.36291 0.0
C2652 C 0.01835 0.66025 0.3683 0.0
C2653 C 0.99061 0.65446 0.37474 0.0
H2654 H 0.05043 0.64246 0.35808 0.0
H2655 H 0.78292 0.58906 0.4284 0.0
H2656 H 0.28432 0.84972 0.29866 0.0
H2657 H 0.30863 0.88709 0.33283 0.0
H2658 H 0.3103 0.82207 0.37584 0.0
H2659 H 0.28552 0.78513 0.34268 0.0
H2660 H 0.30286 0.86403 0.40822 0.0
H2661 H 0.364 0.85578 0.33235 0.0
H2662 H 0.37905 0.85847 0.28637 0.0
H2663 H 0.38389 0.94641 0.29681 0.0
H2664 H 0.36854 0.94409 0.3428 0.0
H2665 H 0.42711 0.89932 0.46523 0.0
H2666 H 0.38586 0.8821 0.44105 0.0
H2667 H 0.39987 0.96772 0.42622 0.0
H2668 H 0.44125 0.98523 0.45067 0.0
H2669 H 0.39379 0.92819 0.38158 0.0
H2670 H 0.34317 0.93728 0.46138 0.0
H2671 H 0.32843 0.93274 0.50709 0.0
H2672 H 0.30557 0.84135 0.4895 0.0
H2673 H 0.32015 0.84535 0.44362 0.0
C2674 C 0.28948 0.84349 0.31565 0.0
C2675 C 0.28327 0.81445 0.31777 0.0
C2676 C 0.30347 0.86485 0.3351 0.0
C2677 C 0.3117 0.85742 0.35675 0.0
C2678 C 0.30422 0.82844 0.35939 0.0
C2679 C 0.29014 0.80725 0.34022 0.0
C2680 C 0.32984 0.87909 0.3759 0.0
C2681 C 0.32271 0.87815 0.4024 0.0
C2682 C 0.35542 0.89825 0.36841 0.0
C2683 C 0.3648 0.89966 0.34086 0.0
C2684 C 0.36812 0.87563 0.32477 0.0
C2685 C 0.37671 0.87709 0.29873 0.0
C2686 C 0.38233 0.90257 0.28865 0.0
C2687 C 0.37945 0.92667 0.30462 0.0
C2688 C 0.37081 0.92529 0.33067 0.0
C2689 C 0.42113 0.91462 0.45731 0.0
C2690 C 0.43752 0.94359 0.45973 0.0
C2691 C 0.39744 0.90478 0.44362 0.0
C2692 C 0.38973 0.92365 0.43191 0.0
C2693 C 0.4054 0.95284 0.43522 0.0
C2694 C 0.42897 0.9628 0.44927 0.0
C2695 C 0.36729 0.91197 0.41379 0.0
C2696 C 0.37362 0.9148 0.38749 0.0
C2697 C 0.34115 0.8942 0.42143 0.0
C2698 C 0.33282 0.89165 0.44908 0.0
C2699 C 0.33518 0.91623 0.46729 0.0
C2700 C 0.32679 0.91374 0.49323 0.0
C2701 C 0.3161 0.88676 0.50122 0.0
C2702 C 0.31381 0.86223 0.48328 0.0
C2703 C 0.32203 0.86459 0.45728 0.0
H2704 H 0.30952 0.88484 0.52129 0.0
H2705 H 0.38898 0.90366 0.26848 0.0
H2706 H 0.18537 0.28143 0.28443 0.0
H2707 H 0.16039 0.3084 0.31252 0.0
H2708 H 0.23449 0.36317 0.34835 0.0
H2709 H 0.25976 0.33526 0.32055 0.0
H2710 H 0.19706 0.35444 0.38454 0.0
H2711 H 0.19936 0.38355 0.30263 0.0
H2712 H 0.19383 0.37919 0.25582 0.0
H2713 H 0.108 0.33622 0.26687 0.0
H2714 H 0.11306 0.33983 0.31371 0.0
H2715 H 0.13087 0.45306 0.44938 0.0
H2716 H 0.16058 0.43099 0.42124 0.0
H2717 H 0.09038 0.36584 0.38688 0.0
H2718 H 0.06062 0.38772 0.41492 0.0
H2719 H 0.12866 0.38395 0.3496 0.0
H2720 H 0.12945 0.34885 0.4305 0.0
H2721 H 0.13639 0.35305 0.47702 0.0
H2722 H 0.21757 0.41138 0.46694 0.0
H2723 H 0.21137 0.40683 0.42014 0.0
C2724 C 0.19663 0.29929 0.29813 0.0
C2725 C 0.22491 0.30606 0.29982 0.0
C2726 C 0.18214 0.31501 0.31424 0.0
C2727 C 0.1953 0.33861 0.33246 0.0
C2728 C 0.22355 0.34531 0.33448 0.0
C2729 C 0.23812 0.3293 0.31845 0.0
C2730 C 0.17933 0.35546 0.34967 0.0
C2731 C 0.18252 0.36128 0.37664 0.0
C2732 C 0.15975 0.36435 0.33997 0.0
C2733 C 0.15666 0.36173 0.31171 0.0
C2734 C 0.17934 0.37291 0.29506 0.0
C2735 C 0.17628 0.37061 0.26851 0.0
C2736 C 0.15059 0.35738 0.25837 0.0
C2737 C 0.1279 0.34642 0.27476 0.0
C2738 C 0.13086 0.34859 0.30131 0.0
C2739 C 0.12165 0.43406 0.43583 0.0
C2740 C 0.09308 0.42238 0.43465 0.0
C2741 C 0.13879 0.42123 0.41976 0.0
C2742 C 0.128 0.39633 0.40183 0.0
C2743 C 0.09952 0.38491 0.4004 0.0
C2744 C 0.08239 0.39754 0.4166 0.0
C2745 C 0.14616 0.38241 0.38433 0.0
C2746 C 0.14337 0.3772 0.35733 0.0
C2747 C 0.1663 0.3744 0.39388 0.0
C2748 C 0.16984 0.37777 0.42199 0.0
C2749 C 0.14869 0.36273 0.43828 0.0
C2750 C 0.15251 0.36512 0.46466 0.0
C2751 C 0.17725 0.38276 0.47502 0.0
C2752 C 0.19837 0.39782 0.45892 0.0
C2753 C 0.19479 0.3952 0.43245 0.0
H2754 H 0.18011 0.38462 0.49547 0.0
H2755 H 0.14825 0.35568 0.23782 0.0
H2756 H 0.29707 0.21065 0.66881 0.0
H2757 H 0.32366 0.18508 0.64046 0.0
H2758 H 0.35202 0.16669 0.70734 0.0
H2759 H 0.32518 0.19194 0.73581 0.0
H2760 H 0.37486 0.19209 0.63154 0.0
H2761 H 0.3656 0.10381 0.69303 0.0
H2762 H 0.33323 0.07666 0.72475 0.0
H2763 H 0.26733 0.08987 0.69296 0.0
H2764 H 0.29924 0.11677 0.66087 0.0
H2765 H 0.47123 0.12407 0.57959 0.0
H2766 H 0.44356 0.14831 0.60786 0.0
H2767 H 0.37201 0.07437 0.59156 0.0
H2768 H 0.3997 0.04981 0.56334 0.0
H2769 H 0.36889 0.09391 0.6409 0.0
H2770 H 0.38385 0.13901 0.56475 0.0
H2771 H 0.40848 0.16544 0.52913 0.0
H2772 H 0.45442 0.23456 0.58413 0.0
H2773 H 0.42972 0.20867 0.62013 0.0
C2774 C 0.30895 0.20123 0.67761 0.0
C2775 C 0.30873 0.20355 0.70484 0.0
C2776 C 0.32431 0.18655 0.66125 0.0
C2777 C 0.33989 0.17342 0.67144 0.0
C2778 C 0.33997 0.17601 0.69866 0.0
C2779 C 0.32463 0.19074 0.71505 0.0
C2780 C 0.35606 0.15736 0.65361 0.0
C2781 C 0.37358 0.17069 0.63382 0.0
C2782 C 0.35426 0.12902 0.65574 0.0
C2783 C 0.33487 0.11257 0.67474 0.0
C2784 C 0.34419 0.10083 0.69276 0.0
C2785 C 0.32592 0.0855 0.71081 0.0
C2786 C 0.29826 0.08163 0.71093 0.0
C2787 C 0.28878 0.09298 0.69292 0.0
C2788 C 0.30695 0.1083 0.67482 0.0
C2789 C 0.44961 0.11279 0.58195 0.0
C2790 C 0.43794 0.08474 0.5689 0.0
C2791 C 0.43364 0.1269 0.59813 0.0
C2792 C 0.40534 0.11359 0.6019 0.0
C2793 C 0.39368 0.08542 0.5892 0.0
C2794 C 0.40964 0.07131 0.57289 0.0
C2795 C 0.38813 0.12891 0.61916 0.0
C2796 C 0.37038 0.11543 0.63882 0.0
C2797 C 0.38923 0.15689 0.61658 0.0
C2798 C 0.40517 0.17179 0.59507 0.0
C2799 C 0.39943 0.1597 0.56921 0.0
C2800 C 0.41332 0.17464 0.54897 0.0
C2801 C 0.43312 0.2016 0.55435 0.0
C2802 C 0.43911 0.21366 0.58 0.0
C2803 C 0.4251 0.19892 0.60032 0.0
H2804 H 0.44369 0.21325 0.53868 0.0
H2805 H 0.28416 0.06978 0.72493 0.0
H2806 H 0.78823 0.30152 0.67717 0.0
H2807 H 0.8242 0.32655 0.64758 0.0
H2808 H 0.88487 0.3243 0.69566 0.0
H2809 H 0.84895 0.29937 0.72556 0.0
H2810 H 0.89778 0.37696 0.6808 0.0
H2811 H 0.87367 0.28112 0.63929 0.0
H2812 H 0.84296 0.2333 0.62205 0.0
H2813 H 0.81483 0.26977 0.56732 0.0
H2814 H 0.84487 0.31793 0.58459 0.0
H2815 H 0.99124 0.44058 0.57704 0.0
H2816 H 0.9698 0.40569 0.60747 0.0
H2817 H 0.89089 0.39368 0.58139 0.0
H2818 H 0.91171 0.42799 0.55166 0.0
H2819 H 0.89659 0.34256 0.5863 0.0
H2820 H 0.91365 0.43847 0.63567 0.0
H2821 H 0.94378 0.48635 0.65361 0.0
H2822 H 0.98637 0.44818 0.69335 0.0
H2823 H 0.95665 0.40004 0.67536 0.0
C2824 C 0.80918 0.30627 0.68151 0.0
C2825 C 0.81559 0.29835 0.70381 0.0
C2826 C 0.82979 0.32049 0.66446 0.0
C2827 C 0.85731 0.32707 0.6692 0.0
C2828 C 0.86382 0.31942 0.69154 0.0
C2829 C 0.8432 0.30508 0.70859 0.0
C2830 C 0.87902 0.34243 0.65095 0.0
C2831 C 0.89792 0.3691 0.66021 0.0
C2832 C 0.87939 0.33224 0.62405 0.0
C2833 C 0.86147 0.30323 0.61335 0.0
C2834 C 0.86081 0.27901 0.62369 0.0
C2835 C 0.84354 0.25182 0.6139 0.0
C2836 C 0.82699 0.24851 0.5936 0.0
C2837 C 0.82768 0.27238 0.58303 0.0
C2838 C 0.84484 0.29963 0.59281 0.0
C2839 C 0.96937 0.43031 0.57778 0.0
C2840 C 0.95319 0.43745 0.5622 0.0
C2841 C 0.95714 0.41043 0.59515 0.0
C2842 C 0.92866 0.39713 0.59679 0.0
C2843 C 0.91283 0.40354 0.58051 0.0
C2844 C 0.92485 0.42345 0.56361 0.0
C2845 C 0.91447 0.37753 0.61604 0.0
C2846 C 0.89693 0.35 0.60698 0.0
C2847 C 0.91547 0.38684 0.64308 0.0
C2848 C 0.9332 0.41572 0.65392 0.0
C2849 C 0.92959 0.44031 0.64807 0.0
C2850 C 0.94655 0.46748 0.65827 0.0
C2851 C 0.96704 0.47031 0.67454 0.0
C2852 C 0.97054 0.44596 0.6807 0.0
C2853 C 0.95364 0.41873 0.67051 0.0
H2854 H 0.98015 0.49136 0.68243 0.0
H2855 H 0.81363 0.22744 0.58605 0.0
H2856 H 0.22499 0.72585 0.66509 0.0
H2857 H 0.2034 0.6909 0.62866 0.0
H2858 H 0.2244 0.62612 0.65683 0.0
H2859 H 0.24588 0.66088 0.69357 0.0
H2860 H 0.21872 0.65488 0.58881 0.0
H2861 H 0.16786 0.56476 0.64951 0.0
H2862 H 0.15569 0.55769 0.69526 0.0
H2863 H 0.14741 0.64072 0.71295 0.0
H2864 H 0.15912 0.64806 0.66727 0.0
H2865 H 0.08795 0.52022 0.54841 0.0
H2866 H 0.13126 0.54149 0.5697 0.0
H2867 H 0.13426 0.62535 0.55857 0.0
H2868 H 0.09137 0.60439 0.53723 0.0
H2869 H 0.13626 0.57732 0.61448 0.0
H2870 H 0.1975 0.67061 0.55566 0.0
H2871 H 0.20793 0.67796 0.50992 0.0
H2872 H 0.19325 0.58815 0.48718 0.0
H2873 H 0.18315 0.58027 0.5328 0.0
C2874 C 0.22532 0.70428 0.66343 0.0
C2875 C 0.23677 0.69604 0.68247 0.0
C2876 C 0.21316 0.68438 0.64246 0.0
C2877 C 0.21212 0.65592 0.64022 0.0
C2878 C 0.22483 0.64797 0.65838 0.0
C2879 C 0.23703 0.66786 0.67937 0.0
C2880 C 0.19519 0.63423 0.62048 0.0
C2881 C 0.20072 0.63781 0.59429 0.0
C2882 C 0.17226 0.61141 0.62767 0.0
C2883 C 0.16476 0.60709 0.65509 0.0
C2884 C 0.16338 0.58145 0.66318 0.0
C2885 C 0.15655 0.5774 0.68908 0.0
C2886 C 0.1509 0.59879 0.70702 0.0
C2887 C 0.1519 0.62421 0.69906 0.0
C2888 C 0.15865 0.62833 0.67318 0.0
C2889 C 0.09823 0.54311 0.54988 0.0
C2890 C 0.08611 0.56069 0.54143 0.0
C2891 C 0.12294 0.5552 0.56208 0.0
C2892 C 0.13605 0.58496 0.56559 0.0
C2893 C 0.12476 0.6023 0.55571 0.0
C2894 C 0.10006 0.5903 0.54373 0.0
C2895 C 0.15911 0.5986 0.58277 0.0
C2896 C 0.15473 0.59362 0.60865 0.0
C2897 C 0.18299 0.62015 0.57524 0.0
C2898 C 0.18946 0.62484 0.54773 0.0
C2899 C 0.1967 0.65244 0.54095 0.0
C2900 C 0.2025 0.6567 0.51502 0.0
C2901 C 0.20121 0.63354 0.49566 0.0
C2902 C 0.19417 0.60607 0.50219 0.0
C2903 C 0.18836 0.60169 0.52809 0.0
H2904 H 0.20569 0.63688 0.47559 0.0
H2905 H 0.14567 0.59564 0.72707 0.0
loop_
_geom_bond_atom_site_label_1
_geom_bond_atom_site_label_2
_geom_bond_distance
_geom_bond_site_symmetry_2
_ccdc_geom_bond_type
Eu0 C9 2.828 . S
Eu0 O11 2.392 . S
Eu0 O13 2.418 . S
Eu0 O18 2.373 . S
Eu0 O21 2.488 . S
Eu0 O22 2.471 . S
Eu0 O23 2.349 . S
Eu1 O10 2.373 . S
Eu1 O14 2.488 . S
Eu1 O15 2.471 . S
Eu1 O16 2.349 . S
Eu1 O19 2.392 . S
Eu1 O20 2.418 . S
Eu1 C30 2.828 . S
C2 O20 1.244 . S
C2 O23 1.265 . S
C3 C4 1.379 . S
C3 C7 1.373 . S
C3 C9 1.505 . S
C4 C3 1.379 . S
C4 C6 1.369 . S
C4 H32 0.930 . S
C5 C7 1.383 . S
C5 C8 1.382 . S
C5 H33 0.930 . S
C6 C4 1.369 . S
C6 C8 1.392 . S
C6 H34 0.930 . S
C7 C3 1.373 . S
C7 C5 1.383 . S
C7 H35 0.931 . S
C8 C5 1.382 . S
C8 C6 1.392 . S
C9 Eu0 2.828 . S
C9 C3 1.505 . S
C9 O21 1.249 . S
C9 O22 1.244 . S
O10 Eu1 2.373 . S
O10 C12 1.258 . S
O11 Eu0 2.392 . S
O11 C12 1.242 . S
C12 O10 1.258 . S
C12 O11 1.242 . S
O13 Eu0 2.418 . S
O13 C17 1.244 . S
O14 Eu1 2.488 . S
O14 C30 1.249 . S
O15 Eu1 2.471 . S
O15 C30 1.244 . S
O16 Eu1 2.349 . S
O16 C17 1.265 . S
C17 O13 1.244 . S
C17 O16 1.265 . S
O18 Eu0 2.373 . S
O18 C31 1.258 . S
O19 Eu1 2.392 . S
O19 C31 1.242 . S
O20 Eu1 2.418 . S
O20 C2 1.244 . S
O21 Eu0 2.488 . S
O21 C9 1.249 . S
O22 Eu0 2.471 . S
O22 C9 1.244 . S
O23 Eu0 2.349 . S
O23 C2 1.265 . S
C24 C25 1.379 . S
C24 C28 1.373 . S
C24 C30 1.505 . S
C25 C24 1.379 . S
C25 C27 1.369 . S
C25 H36 0.930 . S
C26 C28 1.383 . S
C26 C29 1.382 . S
C26 H37 0.930 . S
C27 C25 1.369 . S
C27 C29 1.392 . S
C27 H38 0.930 . S
C28 C24 1.373 . S
C28 C26 1.383 . S
C28 H39 0.931 . S
C29 C26 1.382 . S
C29 C27 1.392 . S
C30 Eu1 2.828 . S
C30 O14 1.249 . S
C30 O15 1.244 . S
C30 C24 1.505 . S
C31 O18 1.258 . S
C31 O19 1.242 . S
H32 C4 0.930 . S
H33 C5 0.930 . S
H34 C6 0.930 . S
H35 C7 0.931 . S
H36 C25 0.930 . S
H37 C26 0.930 . S
H38 C27 0.930 . S
H39 C28 0.931 . S
Eu40 C49 2.828 . S
Eu40 O51 2.392 . S
Eu40 O53 2.418 . S
Eu40 O58 2.373 . S
Eu40 O61 2.488 . S
Eu40 O62 2.471 . S
Eu40 O63 2.349 . S
Eu41 O50 2.373 . S
Eu41 O54 2.488 . S
Eu41 O55 2.471 . S
Eu41 O56 2.349 . S
Eu41 O59 2.392 . S
Eu41 O60 2.418 . S
Eu41 C70 2.828 . S
C42 O60 1.244 . S
C42 O63 1.265 . S
C43 C44 1.379 . S
C43 C47 1.373 . S
C43 C49 1.505 . S
C44 C43 1.379 . S
C44 C46 1.369 . S
C44 H72 0.930 . S
C45 C47 1.383 . S
C45 C48 1.382 . S
C45 H73 0.930 . S
C46 C44 1.369 . S
C46 C48 1.392 . S
C46 H74 0.930 . S
C47 C43 1.373 . S
C47 C45 1.383 . S
C47 H75 0.931 . S
C48 C45 1.382 . S
C48 C46 1.392 . S
C49 Eu40 2.828 . S
C49 C43 1.505 . S
C49 O61 1.249 . S
C49 O62 1.244 . S
O50 Eu41 2.373 . S
O50 C52 1.258 . S
O51 Eu40 2.392 . S
O51 C52 1.242 . S
C52 O50 1.258 . S
C52 O51 1.242 . S
O53 Eu40 2.418 . S
O53 C57 1.244 . S
O54 Eu41 2.488 . S
O54 C70 1.249 . S
O55 Eu41 2.471 . S
O55 C70 1.244 . S
O56 Eu41 2.349 . S
O56 C57 1.265 . S
C57 O53 1.244 . S
C57 O56 1.265 . S
O58 Eu40 2.373 . S
O58 C71 1.258 . S
O59 Eu41 2.392 . S
O59 C71 1.242 . S
O60 Eu41 2.418 . S
O60 C42 1.244 . S
O61 Eu40 2.488 . S
O61 C49 1.249 . S
O62 Eu40 2.471 . S
O62 C49 1.244 . S
O63 Eu40 2.349 . S
O63 C42 1.265 . S
C64 C65 1.379 . S
C64 C68 1.373 . S
C64 C70 1.505 . S
C65 C64 1.379 . S
C65 C67 1.369 . S
C65 H76 0.930 . S
C66 C68 1.383 . S
C66 C69 1.382 . S
C66 H77 0.930 . S
C67 C65 1.369 . S
C67 C69 1.392 . S
C67 H78 0.930 . S
C68 C64 1.373 . S
C68 C66 1.383 . S
C68 H79 0.931 . S
C69 C66 1.382 . S
C69 C67 1.392 . S
C70 Eu41 2.828 . S
C70 O54 1.249 . S
C70 O55 1.244 . S
C70 C64 1.505 . S
C71 O58 1.258 . S
C71 O59 1.242 . S
H72 C44 0.930 . S
H73 C45 0.930 . S
H74 C46 0.930 . S
H75 C47 0.931 . S
H76 C65 0.930 . S
H77 C66 0.930 . S
H78 C67 0.930 . S
H79 C68 0.931 . S
Eu80 C89 2.828 . S
Eu80 O91 2.392 . S
Eu80 O93 2.418 . S
Eu80 O98 2.373 . S
Eu80 O101 2.488 . S
Eu80 O102 2.471 . S
Eu80 O103 2.349 . S
Eu81 O90 2.373 . S
Eu81 O94 2.488 . S
Eu81 O95 2.471 . S
Eu81 O96 2.349 . S
Eu81 O99 2.392 . S
Eu81 O100 2.418 . S
Eu81 C110 2.828 . S
C82 O100 1.244 . S
C82 O103 1.265 . S
C83 C84 1.379 . S
C83 C87 1.373 . S
C83 C89 1.505 . S
C84 C83 1.379 . S
C84 C86 1.369 . S
C84 H112 0.930 . S
C85 C87 1.383 . S
C85 C88 1.382 . S
C85 H113 0.930 . S
C86 C84 1.369 . S
C86 C88 1.392 . S
C86 H114 0.930 . S
C87 C83 1.373 . S
C87 C85 1.383 . S
C87 H115 0.931 . S
C88 C85 1.382 . S
C88 C86 1.392 . S
C89 Eu80 2.828 . S
C89 C83 1.505 . S
C89 O101 1.249 . S
C89 O102 1.244 . S
O90 Eu81 2.373 . S
O90 C92 1.258 . S
O91 Eu80 2.392 . S
O91 C92 1.242 . S
C92 O90 1.258 . S
C92 O91 1.242 . S
O93 Eu80 2.418 . S
O93 C97 1.244 . S
O94 Eu81 2.488 . S
O94 C110 1.249 . S
O95 Eu81 2.471 . S
O95 C110 1.244 . S
O96 Eu81 2.349 . S
O96 C97 1.265 . S
C97 O93 1.244 . S
C97 O96 1.265 . S
O98 Eu80 2.373 . S
O98 C111 1.258 . S
O99 Eu81 2.392 . S
O99 C111 1.242 . S
O100 Eu81 2.418 . S
O100 C82 1.244 . S
O101 Eu80 2.488 . S
O101 C89 1.249 . S
O102 Eu80 2.471 . S
O102 C89 1.244 . S
O103 Eu80 2.349 . S
O103 C82 1.265 . S
C104 C105 1.379 . S
C104 C108 1.373 . S
C104 C110 1.505 . S
C105 C104 1.379 . S
C105 C107 1.369 . S
C105 H116 0.930 . S
C106 C108 1.383 . S
C106 C109 1.382 . S
C106 H117 0.930 . S
C107 C105 1.369 . S
C107 C109 1.392 . S
C107 H118 0.930 . S
C108 C104 1.373 . S
C108 C106 1.383 . S
C108 H119 0.931 . S
C109 C106 1.382 . S
C109 C107 1.392 . S
C110 Eu81 2.828 . S
C110 O94 1.249 . S
C110 O95 1.244 . S
C110 C104 1.505 . S
C111 O98 1.258 . S
C111 O99 1.242 . S
H112 C84 0.930 . S
H113 C85 0.930 . S
H114 C86 0.930 . S
H115 C87 0.931 . S
H116 C105 0.930 . S
H117 C106 0.930 . S
H118 C107 0.930 . S
H119 C108 0.931 . S
Eu120 C129 2.828 . S
Eu120 O131 2.392 . S
Eu120 O133 2.418 . S
Eu120 O138 2.373 . S
Eu120 O141 2.488 . S
Eu120 O142 2.471 . S
Eu120 O143 2.349 . S
Eu121 O130 2.373 . S
Eu121 O134 2.488 . S
Eu121 O135 2.471 . S
Eu121 O136 2.349 . S
Eu121 O139 2.392 . S
Eu121 O140 2.418 . S
Eu121 C150 2.828 . S
C122 O140 1.244 . S
C122 O143 1.265 . S
C123 C124 1.379 . S
C123 C127 1.373 . S
C123 C129 1.505 . S
C124 C123 1.379 . S
C124 C126 1.369 . S
C124 H152 0.930 . S
C125 C127 1.383 . S
C125 C128 1.382 . S
C125 H153 0.930 . S
C126 C124 1.369 . S
C126 C128 1.392 . S
C126 H154 0.930 . S
C127 C123 1.373 . S
C127 C125 1.383 . S
C127 H155 0.931 . S
C128 C125 1.382 . S
C128 C126 1.392 . S
C129 Eu120 2.828 . S
C129 C123 1.505 . S
C129 O141 1.249 . S
C129 O142 1.244 . S
O130 Eu121 2.373 . S
O130 C132 1.258 . S
O131 Eu120 2.392 . S
O131 C132 1.242 . S
C132 O130 1.258 . S
C132 O131 1.242 . S
O133 Eu120 2.418 . S
O133 C137 1.244 . S
O134 Eu121 2.488 . S
O134 C150 1.249 . S
O135 Eu121 2.471 . S
O135 C150 1.244 . S
O136 Eu121 2.349 . S
O136 C137 1.265 . S
C137 O133 1.244 . S
C137 O136 1.265 . S
O138 Eu120 2.373 . S
O138 C151 1.258 . S
O139 Eu121 2.392 . S
O139 C151 1.242 . S
O140 Eu121 2.418 . S
O140 C122 1.244 . S
O141 Eu120 2.488 . S
O141 C129 1.249 . S
O142 Eu120 2.471 . S
O142 C129 1.244 . S
O143 Eu120 2.349 . S
O143 C122 1.265 . S
C144 C145 1.379 . S
C144 C148 1.373 . S
C144 C150 1.505 . S
C145 C144 1.379 . S
C145 C147 1.369 . S
C145 H156 0.930 . S
C146 C148 1.383 . S
C146 C149 1.382 . S
C146 H157 0.930 . S
C147 C145 1.369 . S
C147 C149 1.392 . S
C147 H158 0.930 . S
C148 C144 1.373 . S
C148 C146 1.383 . S
C148 H159 0.931 . S
C149 C146 1.382 . S
C149 C147 1.392 . S
C150 Eu121 2.828 . S
C150 O134 1.249 . S
C150 O135 1.244 . S
C150 C144 1.505 . S
C151 O138 1.258 . S
C151 O139 1.242 . S
H152 C124 0.930 . S
H153 C125 0.930 . S
H154 C126 0.930 . S
H155 C127 0.931 . S
H156 C145 0.930 . S
H157 C146 0.930 . S
H158 C147 0.930 . S
H159 C148 0.931 . S
Eu160 C169 2.828 . S
Eu160 O171 2.392 . S
Eu160 O173 2.418 . S
Eu160 O178 2.373 . S
Eu160 O181 2.488 . S
Eu160 O182 2.471 . S
Eu160 O183 2.349 . S
Eu161 O170 2.373 . S
Eu161 O174 2.488 . S
Eu161 O175 2.471 . S
Eu161 O176 2.349 . S
Eu161 O179 2.392 . S
Eu161 O180 2.418 . S
Eu161 C190 2.828 . S
C162 O180 1.244 . S
C162 O183 1.265 . S
C163 C164 1.379 . S
C163 C167 1.373 . S
C163 C169 1.505 . S
C164 C163 1.379 . S
C164 C166 1.369 . S
C164 H192 0.930 . S
C165 C167 1.383 . S
C165 C168 1.382 . S
C165 H193 0.930 . S
C166 C164 1.369 . S
C166 C168 1.392 . S
C166 H194 0.930 . S
C167 C163 1.373 . S
C167 C165 1.383 . S
C167 H195 0.931 . S
C168 C165 1.382 . S
C168 C166 1.392 . S
C169 Eu160 2.828 . S
C169 C163 1.505 . S
C169 O181 1.249 . S
C169 O182 1.244 . S
O170 Eu161 2.373 . S
O170 C172 1.258 . S
O171 Eu160 2.392 . S
O171 C172 1.242 . S
C172 O170 1.258 . S
C172 O171 1.242 . S
O173 Eu160 2.418 . S
O173 C177 1.244 . S
O174 Eu161 2.488 . S
O174 C190 1.249 . S
O175 Eu161 2.471 . S
O175 C190 1.244 . S
O176 Eu161 2.349 . S
O176 C177 1.265 . S
C177 O173 1.244 . S
C177 O176 1.265 . S
O178 Eu160 2.373 . S
O178 C191 1.258 . S
O179 Eu161 2.392 . S
O179 C191 1.242 . S
O180 Eu161 2.418 . S
O180 C162 1.244 . S
O181 Eu160 2.488 . S
O181 C169 1.249 . S
O182 Eu160 2.471 . S
O182 C169 1.244 . S
O183 Eu160 2.349 . S
O183 C162 1.265 . S
C184 C185 1.379 . S
C184 C188 1.373 . S
C184 C190 1.505 . S
C185 C184 1.379 . S
C185 C187 1.369 . S
C185 H196 0.930 . S
C186 C188 1.383 . S
C186 C189 1.382 . S
C186 H197 0.930 . S
C187 C185 1.369 . S
C187 C189 1.392 . S
C187 H198 0.930 . S
C188 C184 1.373 . S
C188 C186 1.383 . S
C188 H199 0.931 . S
C189 C186 1.382 . S
C189 C187 1.392 . S
C190 Eu161 2.828 . S
C190 O174 1.249 . S
C190 O175 1.244 . S
C190 C184 1.505 . S
C191 O178 1.258 . S
C191 O179 1.242 . S
H192 C164 0.930 . S
H193 C165 0.930 . S
H194 C166 0.930 . S
H195 C167 0.931 . S
H196 C185 0.930 . S
H197 C186 0.930 . S
H198 C187 0.930 . S
H199 C188 0.931 . S
Eu200 C209 2.828 . S
Eu200 O211 2.392 . S
Eu200 O213 2.418 . S
Eu200 O218 2.373 . S
Eu200 O221 2.488 . S
Eu200 O222 2.471 . S
Eu200 O223 2.349 . S
Eu201 O210 2.373 . S
Eu201 O214 2.488 . S
Eu201 O215 2.471 . S
Eu201 O216 2.349 . S
Eu201 O219 2.392 . S
Eu201 O220 2.418 . S
Eu201 C230 2.828 . S
C202 O220 1.244 . S
C202 O223 1.265 . S
C203 C204 1.379 . S
C203 C207 1.373 . S
C203 C209 1.505 . S
C204 C203 1.379 . S
C204 C206 1.369 . S
C204 H232 0.930 . S
C205 C207 1.383 . S
C205 C208 1.382 . S
C205 H233 0.930 . S
C206 C204 1.369 . S
C206 C208 1.392 . S
C206 H234 0.930 . S
C207 C203 1.373 . S
C207 C205 1.383 . S
C207 H235 0.931 . S
C208 C205 1.382 . S
C208 C206 1.392 . S
C209 Eu200 2.828 . S
C209 C203 1.505 . S
C209 O221 1.249 . S
C209 O222 1.244 . S
O210 Eu201 2.373 . S
O210 C212 1.258 . S
O211 Eu200 2.392 . S
O211 C212 1.242 . S
C212 O210 1.258 . S
C212 O211 1.242 . S
O213 Eu200 2.418 . S
O213 C217 1.244 . S
O214 Eu201 2.488 . S
O214 C230 1.249 . S
O215 Eu201 2.471 . S
O215 C230 1.244 . S
O216 Eu201 2.349 . S
O216 C217 1.265 . S
C217 O213 1.244 . S
C217 O216 1.265 . S
O218 Eu200 2.373 . S
O218 C231 1.258 . S
O219 Eu201 2.392 . S
O219 C231 1.242 . S
O220 Eu201 2.418 . S
O220 C202 1.244 . S
O221 Eu200 2.488 . S
O221 C209 1.249 . S
O222 Eu200 2.471 . S
O222 C209 1.244 . S
O223 Eu200 2.349 . S
O223 C202 1.265 . S
C224 C225 1.379 . S
C224 C228 1.373 . S
C224 C230 1.505 . S
C225 C224 1.379 . S
C225 C227 1.369 . S
C225 H236 0.930 . S
C226 C228 1.383 . S
C226 C229 1.382 . S
C226 H237 0.930 . S
C227 C225 1.369 . S
C227 C229 1.392 . S
C227 H238 0.930 . S
C228 C224 1.373 . S
C228 C226 1.383 . S
C228 H239 0.931 . S
C229 C226 1.382 . S
C229 C227 1.392 . S
C230 Eu201 2.828 . S
C230 O214 1.249 . S
C230 O215 1.244 . S
C230 C224 1.505 . S
C231 O218 1.258 . S
C231 O219 1.242 . S
H232 C204 0.930 . S
H233 C205 0.930 . S
H234 C206 0.930 . S
H235 C207 0.931 . S
H236 C225 0.930 . S
H237 C226 0.930 . S
H238 C227 0.930 . S
H239 C228 0.931 . S
Eu240 C249 2.828 . S
Eu240 O251 2.392 . S
Eu240 O253 2.418 . S
Eu240 O258 2.373 . S
Eu240 O261 2.488 . S
Eu240 O262 2.471 . S
Eu240 O263 2.349 . S
Eu241 O250 2.373 . S
Eu241 O254 2.488 . S
Eu241 O255 2.471 . S
Eu241 O256 2.349 . S
Eu241 O259 2.392 . S
Eu241 O260 2.418 . S
Eu241 C270 2.828 . S
C242 O260 1.244 . S
C242 O263 1.265 . S
C243 C244 1.379 . S
C243 C247 1.373 . S
C243 C249 1.505 . S
C244 C243 1.379 . S
C244 C246 1.369 . S
C244 H272 0.930 . S
C245 C247 1.383 . S
C245 C248 1.382 . S
C245 H273 0.930 . S
C246 C244 1.369 . S
C246 C248 1.392 . S
C246 H274 0.930 . S
C247 C243 1.373 . S
C247 C245 1.383 . S
C247 H275 0.931 . S
C248 C245 1.382 . S
C248 C246 1.392 . S
C249 Eu240 2.828 . S
C249 C243 1.505 . S
C249 O261 1.249 . S
C249 O262 1.244 . S
O250 Eu241 2.373 . S
O250 C252 1.258 . S
O251 Eu240 2.392 . S
O251 C252 1.242 . S
C252 O250 1.258 . S
C252 O251 1.242 . S
O253 Eu240 2.418 . S
O253 C257 1.244 . S
O254 Eu241 2.488 . S
O254 C270 1.249 . S
O255 Eu241 2.471 . S
O255 C270 1.244 . S
O256 Eu241 2.349 . S
O256 C257 1.265 . S
C257 O253 1.244 . S
C257 O256 1.265 . S
O258 Eu240 2.373 . S
O258 C271 1.258 . S
O259 Eu241 2.392 . S
O259 C271 1.242 . S
O260 Eu241 2.418 . S
O260 C242 1.244 . S
O261 Eu240 2.488 . S
O261 C249 1.249 . S
O262 Eu240 2.471 . S
O262 C249 1.244 . S
O263 Eu240 2.349 . S
O263 C242 1.265 . S
C264 C265 1.379 . S
C264 C268 1.373 . S
C264 C270 1.505 . S
C265 C264 1.379 . S
C265 C267 1.369 . S
C265 H276 0.930 . S
C266 C268 1.383 . S
C266 C269 1.382 . S
C266 H277 0.930 . S
C267 C265 1.369 . S
C267 C269 1.392 . S
C267 H278 0.930 . S
C268 C264 1.373 . S
C268 C266 1.383 . S
C268 H279 0.931 . S
C269 C266 1.382 . S
C269 C267 1.392 . S
C270 Eu241 2.828 . S
C270 O254 1.249 . S
C270 O255 1.244 . S
C270 C264 1.505 . S
C271 O258 1.258 . S
C271 O259 1.242 . S
H272 C244 0.930 . S
H273 C245 0.930 . S
H274 C246 0.930 . S
H275 C247 0.931 . S
H276 C265 0.930 . S
H277 C266 0.930 . S
H278 C267 0.930 . S
H279 C268 0.931 . S
Eu280 C289 2.828 . S
Eu280 O291 2.392 . S
Eu280 O293 2.418 . S
Eu280 O298 2.373 . S
Eu280 O301 2.488 . S
Eu280 O302 2.471 . S
Eu280 O303 2.349 . S
Eu281 O290 2.373 . S
Eu281 O294 2.488 . S
Eu281 O295 2.471 . S
Eu281 O296 2.349 . S
Eu281 O299 2.392 . S
Eu281 O300 2.418 . S
Eu281 C310 2.828 . S
C282 O300 1.244 . S
C282 O303 1.265 . S
C283 C284 1.379 . S
C283 C287 1.373 . S
C283 C289 1.505 . S
C284 C283 1.379 . S
C284 C286 1.369 . S
C284 H312 0.930 . S
C285 C287 1.383 . S
C285 C288 1.382 . S
C285 H313 0.930 . S
C286 C284 1.369 . S
C286 C288 1.392 . S
C286 H314 0.930 . S
C287 C283 1.373 . S
C287 C285 1.383 . S
C287 H315 0.931 . S
C288 C285 1.382 . S
C288 C286 1.392 . S
C289 Eu280 2.828 . S
C289 C283 1.505 . S
C289 O301 1.249 . S
C289 O302 1.244 . S
O290 Eu281 2.373 . S
O290 C292 1.258 . S
O291 Eu280 2.392 . S
O291 C292 1.242 . S
C292 O290 1.258 . S
C292 O291 1.242 . S
O293 Eu280 2.418 . S
O293 C297 1.244 . S
O294 Eu281 2.488 . S
O294 C310 1.249 . S
O295 Eu281 2.471 . S
O295 C310 1.244 . S
O296 Eu281 2.349 . S
O296 C297 1.265 . S
C297 O293 1.244 . S
C297 O296 1.265 . S
O298 Eu280 2.373 . S
O298 C311 1.258 . S
O299 Eu281 2.392 . S
O299 C311 1.242 . S
O300 Eu281 2.418 . S
O300 C282 1.244 . S
O301 Eu280 2.488 . S
O301 C289 1.249 . S
O302 Eu280 2.471 . S
O302 C289 1.244 . S
O303 Eu280 2.349 . S
O303 C282 1.265 . S
C304 C305 1.379 . S
C304 C308 1.373 . S
C304 C310 1.505 . S
C305 C304 1.379 . S
C305 C307 1.369 . S
C305 H316 0.930 . S
C306 C308 1.383 . S
C306 C309 1.382 . S
C306 H317 0.930 . S
C307 C305 1.369 . S
C307 C309 1.392 . S
C307 H318 0.930 . S
C308 C304 1.373 . S
C308 C306 1.383 . S
C308 H319 0.931 . S
C309 C306 1.382 . S
C309 C307 1.392 . S
C310 Eu281 2.828 . S
C310 O294 1.249 . S
C310 O295 1.244 . S
C310 C304 1.505 . S
C311 O298 1.258 . S
C311 O299 1.242 . S
H312 C284 0.930 . S
H313 C285 0.930 . S
H314 C286 0.930 . S
H315 C287 0.931 . S
H316 C305 0.930 . S
H317 C306 0.930 . S
H318 C307 0.930 . S
H319 C308 0.931 . S
C320 O332 1.241 . S
C320 O333 1.280 . S
C321 O334 1.277 . S
C321 O335 1.245 . S
C322 O346 1.247 . S
C322 O348 1.289 . S
Mg323 O324 1.926 . S
Mg323 O333 1.984 . S
Mg323 O335 1.988 . S
Mg323 O336 2.061 1_655 S
O324 Mg323 1.926 . S
O324 Mg325 1.980 1_545 S
O324 Mg326 1.905 1_655 S
Mg325 O324 1.980 1_565 S
Mg325 O332 2.017 1_565 S
Mg325 O334 2.012 1_565 S
Mg325 O340 2.068 . S
Mg325 O348 2.264 . S
Mg326 O324 1.905 1_455 S
Mg326 O327 1.929 1_545 S
Mg326 O337 2.117 . S
Mg326 O339 2.076 1_445 S
Mg326 O348 2.096 1_445 S
Mg326 O349 2.081 . S
O327 Mg326 1.929 1_565 S
O327 Mg328 1.926 . S
O327 Mg329 1.986 1_565 S
Mg328 O327 1.926 . S
Mg328 O342 1.984 . S
Mg328 O345 1.988 . S
Mg328 O346 2.061 1_455 S
Mg329 O327 1.986 1_545 S
Mg329 O337 2.238 . S
Mg329 O341 2.042 1_545 S
Mg329 O343 2.041 1_545 S
Mg329 O350 2.038 . S
C330 O336 1.247 . S
C330 O337 1.289 . S
C331 O349 1.245 . S
C331 O350 1.274 . S
O332 C320 1.241 . S
O332 Mg325 2.017 1_545 S
O333 C320 1.280 . S
O333 Mg323 1.984 . S
O334 C321 1.277 . S
O334 Mg325 2.012 1_545 S
O335 C321 1.245 . S
O335 Mg323 1.988 . S
O336 Mg323 2.061 1_455 S
O336 C330 1.247 . S
O337 Mg326 2.117 . S
O337 Mg329 2.238 . S
O337 C330 1.289 . S
C338 O339 1.245 . S
C338 O340 1.274 . S
O339 Mg326 2.076 1_665 S
O339 C338 1.245 . S
O340 Mg325 2.068 . S
O340 C338 1.274 . S
O341 Mg329 2.042 1_565 S
O341 C344 1.241 . S
O342 Mg328 1.984 . S
O342 C344 1.280 . S
O343 Mg329 2.041 1_565 S
O343 C347 1.277 . S
C344 O341 1.241 . S
C344 O342 1.280 . S
O345 Mg328 1.988 . S
O345 C347 1.245 . S
O346 C322 1.247 . S
O346 Mg328 2.061 1_655 S
C347 O343 1.277 . S
C347 O345 1.245 . S
O348 C322 1.289 . S
O348 Mg325 2.264 . S
O348 Mg326 2.096 1_665 S
O349 Mg326 2.081 . S
O349 C331 1.245 . S
O350 Mg329 2.038 . S
O350 C331 1.274 . S
C351 O363 1.241 . S
C351 O364 1.280 . S
C352 O365 1.277 . S
C352 O366 1.245 . S
C353 O377 1.247 . S
C353 O379 1.289 . S
Mg354 O355 1.926 . S
Mg354 O364 1.984 . S
Mg354 O366 1.988 1_554 S
Mg354 O367 2.061 . S
O355 Mg354 1.926 . S
O355 Mg356 1.980 1_545 S
O355 Mg357 1.918 . S
Mg356 O355 1.980 1_565 S
Mg356 O363 2.017 1_565 S
Mg356 O365 2.013 1_564 S
Mg356 O371 2.068 . S
Mg356 O379 2.264 1_554 S
Mg357 O355 1.918 . S
Mg357 O358 1.916 1_544 S
Mg357 O368 2.108 . S
Mg357 O370 2.081 1_545 S
Mg357 O379 2.105 1_544 S
Mg357 O380 2.076 1_554 S
O358 Mg357 1.916 1_566 S
O358 Mg359 1.926 . S
O358 Mg360 1.986 1_565 S
Mg359 O358 1.926 . S
Mg359 O373 1.984 . S
Mg359 O376 1.988 1_556 S
Mg359 O377 2.061 . S
Mg360 O358 1.986 1_545 S
Mg360 O368 2.238 1_556 S
Mg360 O372 2.042 1_545 S
Mg360 O374 2.041 1_546 S
Mg360 O381 2.038 . S
C361 O367 1.247 . S
C361 O368 1.289 . S
C362 O380 1.245 . S
C362 O381 1.274 . S
O363 C351 1.241 . S
O363 Mg356 2.017 1_545 S
O364 C351 1.280 . S
O364 Mg354 1.984 . S
O365 C352 1.277 . S
O365 Mg356 2.013 1_546 S
O366 C352 1.245 . S
O366 Mg354 1.988 1_556 S
O367 Mg354 2.061 . S
O367 C361 1.247 . S
O368 Mg357 2.108 . S
O368 Mg360 2.238 1_554 S
O368 C361 1.289 . S
C369 O370 1.245 . S
C369 O371 1.274 . S
O370 Mg357 2.081 1_565 S
O370 C369 1.245 . S
O371 Mg356 2.068 . S
O371 C369 1.274 . S
O372 Mg360 2.042 1_565 S
O372 C375 1.241 . S
O373 Mg359 1.984 . S
O373 C375 1.280 . S
O374 Mg360 2.041 1_564 S
O374 C378 1.277 . S
C375 O372 1.241 . S
C375 O373 1.280 . S
O376 Mg359 1.988 1_554 S
O376 C378 1.245 . S
O377 C353 1.247 . S
O377 Mg359 2.061 . S
C378 O374 1.277 . S
C378 O376 1.245 . S
O379 C353 1.289 . S
O379 Mg356 2.264 1_556 S
O379 Mg357 2.105 1_566 S
O380 Mg357 2.076 1_556 S
O380 C362 1.245 . S
O381 Mg360 2.038 . S
O381 C362 1.274 . S
C382 O394 1.241 . S
C382 O395 1.280 . S
C383 O396 1.277 . S
C383 O397 1.245 . S
C384 O408 1.247 . S
C384 O410 1.289 . S
Mg385 O386 1.926 . S
Mg385 O395 1.984 . S
Mg385 O397 1.988 1_554 S
Mg385 O398 2.061 1_655 S
O386 Mg385 1.926 . S
O386 Mg387 1.986 . S
O386 Mg388 1.906 1_655 S
Mg387 O386 1.986 . S
Mg387 O394 2.042 . S
Mg387 O396 2.041 1_554 S
Mg387 O402 2.038 . S
Mg387 O410 2.238 1_554 S
Mg388 O386 1.906 1_455 S
Mg388 O389 1.928 1_554 S
Mg388 O399 2.119 . S
Mg388 O401 2.079 1_455 S
Mg388 O410 2.094 1_454 S
Mg388 O411 2.079 1_554 S
O389 Mg388 1.928 1_556 S
O389 Mg390 1.926 . S
O389 Mg391 1.986 . S
Mg390 O389 1.926 . S
Mg390 O404 1.984 . S
Mg390 O407 1.988 1_556 S
Mg390 O408 2.061 1_455 S
Mg391 O389 1.986 . S
Mg391 O399 2.238 1_556 S
Mg391 O403 2.042 . S
Mg391 O405 2.041 1_556 S
Mg391 O412 2.038 . S
C392 O398 1.247 . S
C392 O399 1.289 . S
C393 O411 1.245 . S
C393 O412 1.274 . S
O394 C382 1.241 . S
O394 Mg387 2.042 . S
O395 C382 1.280 . S
O395 Mg385 1.984 . S
O396 C383 1.277 . S
O396 Mg387 2.041 1_556 S
O397 C383 1.245 . S
O397 Mg385 1.988 1_556 S
O398 Mg385 2.061 1_455 S
O398 C392 1.247 . S
O399 Mg388 2.119 . S
O399 Mg391 2.238 1_554 S
O399 C392 1.289 . S
C400 O401 1.245 . S
C400 O402 1.274 . S
O401 Mg388 2.079 1_655 S
O401 C400 1.245 . S
O402 Mg387 2.038 . S
O402 C400 1.274 . S
O403 Mg391 2.042 . S
O403 C406 1.241 . S
O404 Mg390 1.984 . S
O404 C406 1.280 . S
O405 Mg391 2.041 1_554 S
O405 C409 1.277 . S
C406 O403 1.241 . S
C406 O404 1.280 . S
O407 Mg390 1.988 1_554 S
O407 C409 1.245 . S
O408 C384 1.247 . S
O408 Mg390 2.061 1_655 S
C409 O405 1.277 . S
C409 O407 1.245 . S
O410 C384 1.289 . S
O410 Mg387 2.238 1_556 S
O410 Mg388 2.094 1_656 S
O411 Mg388 2.079 1_556 S
O411 C393 1.245 . S
O412 Mg391 2.038 . S
O412 C393 1.274 . S
C413 O425 1.241 . S
C413 O426 1.280 . S
C414 O427 1.277 . S
C414 O428 1.245 . S
C415 O439 1.247 . S
C415 O441 1.289 . S
Mg416 O417 1.926 . S
Mg416 O426 1.984 . S
Mg416 O428 1.988 1_554 S
Mg416 O429 2.061 . S
O417 Mg416 1.926 . S
O417 Mg418 1.986 . S
O417 Mg419 1.918 . S
Mg418 O417 1.986 . S
Mg418 O425 2.042 . S
Mg418 O427 2.041 1_554 S
Mg418 O433 2.038 . S
Mg418 O441 2.238 1_554 S
Mg419 O417 1.918 . S
Mg419 O420 1.916 1_554 S
Mg419 O430 2.108 . S
Mg419 O432 2.081 . S
Mg419 O441 2.105 1_554 S
Mg419 O442 2.076 1_554 S
O420 Mg419 1.916 1_556 S
O420 Mg421 1.926 . S
O420 Mg422 1.986 . S
Mg421 O420 1.926 . S
Mg421 O435 1.984 . S
Mg421 O438 1.988 1_556 S
Mg421 O439 2.061 . S
Mg422 O420 1.986 . S
Mg422 O430 2.238 1_556 S
Mg422 O434 2.042 . S
Mg422 O436 2.041 1_556 S
Mg422 O443 2.038 . S
C423 O429 1.247 . S
C423 O430 1.289 . S
C424 O442 1.245 . S
C424 O443 1.274 . S
O425 C413 1.241 . S
O425 Mg418 2.042 . S
O426 C413 1.280 . S
O426 Mg416 1.984 . S
O427 C414 1.277 . S
O427 Mg418 2.041 1_556 S
O428 C414 1.245 . S
O428 Mg416 1.988 1_556 S
O429 Mg416 2.061 . S
O429 C423 1.247 . S
O430 Mg419 2.108 . S
O430 Mg422 2.238 1_554 S
O430 C423 1.289 . S
C431 O432 1.245 . S
C431 O433 1.274 . S
O432 Mg419 2.081 . S
O432 C431 1.245 . S
O433 Mg418 2.038 . S
O433 C431 1.274 . S
O434 Mg422 2.042 . S
O434 C437 1.241 . S
O435 Mg421 1.984 . S
O435 C437 1.280 . S
O436 Mg422 2.041 1_554 S
O436 C440 1.277 . S
C437 O434 1.241 . S
C437 O435 1.280 . S
O438 Mg421 1.988 1_554 S
O438 C440 1.245 . S
O439 C415 1.247 . S
O439 Mg421 2.061 . S
C440 O436 1.277 . S
C440 O438 1.245 . S
O441 C415 1.289 . S
O441 Mg418 2.238 1_556 S
O441 Mg419 2.105 1_556 S
O442 Mg419 2.076 1_556 S
O442 C424 1.245 . S
O443 Mg422 2.038 . S
O443 C424 1.274 . S
C444 O456 1.241 . S
C444 O457 1.280 . S
C445 O458 1.277 . S
C445 O459 1.245 . S
C446 O470 1.247 . S
C446 O472 1.289 . S
Mg447 O448 1.926 . S
Mg447 O457 1.984 . S
Mg447 O459 1.988 . S
Mg447 O460 2.061 1_655 S
O448 Mg447 1.926 . S
O448 Mg449 1.986 . S
O448 Mg450 1.905 1_655 S
Mg449 O448 1.986 . S
Mg449 O456 2.042 . S
Mg449 O458 2.041 . S
Mg449 O464 2.038 . S
Mg449 O472 2.238 . S
Mg450 O448 1.905 1_455 S
Mg450 O451 1.929 . S
Mg450 O461 2.117 . S
Mg450 O463 2.076 1_455 S
Mg450 O472 2.096 1_455 S
Mg450 O473 2.081 . S
O451 Mg450 1.929 . S
O451 Mg452 1.926 . S
O451 Mg453 1.986 . S
Mg452 O451 1.926 . S
Mg452 O466 1.984 . S
Mg452 O469 1.988 . S
Mg452 O470 2.061 1_455 S
Mg453 O451 1.986 . S
Mg453 O461 2.238 . S
Mg453 O465 2.042 . S
Mg453 O467 2.041 . S
Mg453 O474 2.038 . S
C454 O460 1.247 . S
C454 O461 1.289 . S
C455 O473 1.245 . S
C455 O474 1.274 . S
O456 C444 1.241 . S
O456 Mg449 2.042 . S
O457 C444 1.280 . S
O457 Mg447 1.984 . S
O458 C445 1.277 . S
O458 Mg449 2.041 . S
O459 C445 1.245 . S
O459 Mg447 1.988 . S
O460 Mg447 2.061 1_455 S
O460 C454 1.247 . S
O461 Mg450 2.117 . S
O461 Mg453 2.238 . S
O461 C454 1.289 . S
C462 O463 1.245 . S
C462 O464 1.274 . S
O463 Mg450 2.076 1_655 S
O463 C462 1.245 . S
O464 Mg449 2.038 . S
O464 C462 1.274 . S
O465 Mg453 2.042 . S
O465 C468 1.241 . S
O466 Mg452 1.984 . S
O466 C468 1.280 . S
O467 Mg453 2.041 . S
O467 C471 1.277 . S
C468 O465 1.241 . S
C468 O466 1.280 . S
O469 Mg452 1.988 . S
O469 C471 1.245 . S
O470 C446 1.247 . S
O470 Mg452 2.061 1_655 S
C471 O467 1.277 . S
C471 O469 1.245 . S
O472 C446 1.289 . S
O472 Mg449 2.238 . S
O472 Mg450 2.096 1_655 S
O473 Mg450 2.081 . S
O473 C455 1.245 . S
O474 Mg453 2.038 . S
O474 C455 1.274 . S
C475 O487 1.241 . S
C475 O488 1.280 . S
C476 O489 1.277 . S
C476 O490 1.245 . S
C477 O501 1.247 . S
C477 O503 1.289 . S
Mg478 O479 1.926 . S
Mg478 O488 1.984 . S
Mg478 O490 1.988 . S
Mg478 O491 2.061 . S
O479 Mg478 1.926 . S
O479 Mg480 1.980 1_545 S
O479 Mg481 1.917 . S
Mg480 O479 1.980 1_565 S
Mg480 O487 2.017 1_565 S
Mg480 O489 2.012 1_565 S
Mg480 O495 2.068 . S
Mg480 O503 2.264 . S
Mg481 O479 1.917 . S
Mg481 O482 1.917 1_545 S
Mg481 O492 2.106 . S
Mg481 O494 2.079 1_545 S
Mg481 O503 2.106 1_545 S
Mg481 O504 2.079 . S
O482 Mg481 1.917 1_565 S
O482 Mg483 1.926 . S
O482 Mg484 1.986 1_565 S
Mg483 O482 1.926 . S
Mg483 O497 1.984 . S
Mg483 O500 1.988 . S
Mg483 O501 2.061 . S
Mg484 O482 1.986 1_545 S
Mg484 O492 2.238 . S
Mg484 O496 2.042 1_545 S
Mg484 O498 2.041 1_545 S
Mg484 O505 2.038 . S
C485 O491 1.247 . S
C485 O492 1.289 . S
C486 O504 1.245 . S
C486 O505 1.274 . S
O487 C475 1.241 . S
O487 Mg480 2.017 1_545 S
O488 C475 1.280 . S
O488 Mg478 1.984 . S
O489 C476 1.277 . S
O489 Mg480 2.012 1_545 S
O490 C476 1.245 . S
O490 Mg478 1.988 . S
O491 Mg478 2.061 . S
O491 C485 1.247 . S
O492 Mg481 2.106 . S
O492 Mg484 2.238 . S
O492 C485 1.289 . S
C493 O494 1.245 . S
C493 O495 1.274 . S
O494 Mg481 2.079 1_565 S
O494 C493 1.245 . S
O495 Mg480 2.068 . S
O495 C493 1.274 . S
O496 Mg484 2.042 1_565 S
O496 C499 1.241 . S
O497 Mg483 1.984 . S
O497 C499 1.280 . S
O498 Mg484 2.041 1_565 S
O498 C502 1.277 . S
C499 O496 1.241 . S
C499 O497 1.280 . S
O500 Mg483 1.988 . S
O500 C502 1.245 . S
O501 C477 1.247 . S
O501 Mg483 2.061 . S
C502 O498 1.277 . S
C502 O500 1.245 . S
O503 C477 1.289 . S
O503 Mg480 2.264 . S
O503 Mg481 2.106 1_565 S
O504 Mg481 2.079 . S
O504 C486 1.245 . S
O505 Mg484 2.038 . S
O505 C486 1.274 . S
H506 C524 0.951 . S
H507 C526 0.951 . S
H508 C528 0.950 . S
H509 C529 0.950 . S
H510 C531 0.950 . S
H511 C534 0.950 . S
H512 C535 0.950 . S
H513 C537 0.950 . S
H514 C538 0.950 . S
H515 C539 0.951 . S
H516 C541 0.951 . S
H517 C543 0.950 . S
H518 C544 0.950 . S
H519 C546 0.950 . S
H520 C549 0.950 . S
H521 C550 0.950 . S
H522 C552 0.950 . S
H523 C553 0.950 . S
C524 H506 0.951 . S
C524 C525 1.366 . S
C524 C526 1.388 . S
C525 C524 1.366 . S
C525 C529 1.385 . S
C526 H507 0.951 . S
C526 C524 1.388 . S
C526 C527 1.366 . S
C527 C526 1.366 . S
C527 C528 1.414 . S
C527 C530 1.499 . S
C528 H508 0.950 . S
C528 C527 1.414 . S
C528 C529 1.374 . S
C529 H509 0.950 . S
C529 C525 1.385 . S
C529 C528 1.374 . S
C530 C527 1.499 . S
C530 C531 1.373 . S
C530 C532 1.389 . S
C531 H510 0.950 . S
C531 C530 1.373 . S
C531 C547 1.377 . S
C532 C530 1.389 . S
C532 C533 1.524 . S
C532 C546 1.377 . S
C533 C532 1.524 . S
C533 C534 1.397 . S
C533 C538 1.363 . S
C534 H511 0.950 . S
C534 C533 1.397 . S
C534 C535 1.334 . S
C535 H512 0.950 . S
C535 C534 1.334 . S
C535 C536 1.287 . S
C536 C535 1.287 . S
C536 C537 1.524 . S
C536 H555 0.913 . S
C537 H513 0.950 . S
C537 C536 1.524 . S
C537 C538 1.415 . S
C538 H514 0.950 . S
C538 C533 1.363 . S
C538 C537 1.415 . S
C539 H515 0.951 . S
C539 C540 1.366 . S
C539 C541 1.388 . S
C540 C539 1.366 . S
C540 C544 1.385 . S
C541 H516 0.951 . S
C541 C539 1.388 . S
C541 C542 1.366 . S
C542 C541 1.366 . S
C542 C543 1.414 . S
C542 C545 1.499 . S
C543 H517 0.950 . S
C543 C542 1.414 . S
C543 C544 1.374 . S
C544 H518 0.950 . S
C544 C540 1.385 . S
C544 C543 1.374 . S
C545 C542 1.499 . S
C545 C546 1.373 . S
C545 C547 1.389 . S
C546 H519 0.950 . S
C546 C532 1.377 . S
C546 C545 1.373 . S
C547 C531 1.377 . S
C547 C545 1.389 . S
C547 C548 1.524 . S
C548 C547 1.524 . S
C548 C549 1.397 . S
C548 C553 1.363 . S
C549 H520 0.950 . S
C549 C548 1.397 . S
C549 C550 1.334 . S
C550 H521 0.950 . S
C550 C549 1.334 . S
C550 C551 1.287 . S
C551 C550 1.287 . S
C551 C552 1.524 . S
C551 H554 0.999 . S
C552 H522 0.950 . S
C552 C551 1.524 . S
C552 C553 1.415 . S
C553 H523 0.950 . S
C553 C548 1.363 . S
C553 C552 1.415 . S
H554 C551 0.999 . S
H555 C536 0.913 . S
H556 C574 0.951 . S
H557 C576 0.951 . S
H558 C578 0.950 . S
H559 C579 0.950 . S
H560 C581 0.950 . S
H561 C584 0.950 . S
H562 C585 0.950 . S
H563 C587 0.950 . S
H564 C588 0.950 . S
H565 C589 0.951 . S
H566 C591 0.951 . S
H567 C593 0.950 . S
H568 C594 0.950 . S
H569 C596 0.950 . S
H570 C599 0.950 . S
H571 C600 0.950 . S
H572 C602 0.950 . S
H573 C603 0.950 . S
C574 H556 0.951 . S
C574 C575 1.366 . S
C574 C576 1.388 . S
C575 C574 1.366 . S
C575 C579 1.385 . S
C576 H557 0.951 . S
C576 C574 1.388 . S
C576 C577 1.366 . S
C577 C576 1.366 . S
C577 C578 1.414 . S
C577 C580 1.499 . S
C578 H558 0.950 . S
C578 C577 1.414 . S
C578 C579 1.374 . S
C579 H559 0.950 . S
C579 C575 1.385 . S
C579 C578 1.374 . S
C580 C577 1.499 . S
C580 C581 1.373 . S
C580 C582 1.389 . S
C581 H560 0.950 . S
C581 C580 1.373 . S
C581 C597 1.377 . S
C582 C580 1.389 . S
C582 C583 1.524 . S
C582 C596 1.377 . S
C583 C582 1.524 . S
C583 C584 1.397 . S
C583 C588 1.363 . S
C584 H561 0.950 . S
C584 C583 1.397 . S
C584 C585 1.334 . S
C585 H562 0.950 . S
C585 C584 1.334 . S
C585 C586 1.287 . S
C586 C585 1.287 . S
C586 C587 1.524 . S
C586 H605 0.913 . S
C587 H563 0.950 . S
C587 C586 1.524 . S
C587 C588 1.415 . S
C588 H564 0.950 . S
C588 C583 1.363 . S
C588 C587 1.415 . S
C589 H565 0.951 . S
C589 C590 1.366 . S
C589 C591 1.388 . S
C590 C589 1.366 . S
C590 C594 1.385 . S
C591 H566 0.951 . S
C591 C589 1.388 . S
C591 C592 1.366 . S
C592 C591 1.366 . S
C592 C593 1.414 . S
C592 C595 1.499 . S
C593 H567 0.950 . S
C593 C592 1.414 . S
C593 C594 1.374 . S
C594 H568 0.950 . S
C594 C590 1.385 . S
C594 C593 1.374 . S
C595 C592 1.499 . S
C595 C596 1.373 . S
C595 C597 1.389 . S
C596 H569 0.950 . S
C596 C582 1.377 . S
C596 C595 1.373 . S
C597 C581 1.377 . S
C597 C595 1.389 . S
C597 C598 1.524 . S
C598 C597 1.524 . S
C598 C599 1.397 . S
C598 C603 1.363 . S
C599 H570 0.950 . S
C599 C598 1.397 . S
C599 C600 1.334 . S
C600 H571 0.950 . S
C600 C599 1.334 . S
C600 C601 1.287 . S
C601 C600 1.287 . S
C601 C602 1.524 . S
C601 H604 0.999 . S
C602 H572 0.950 . S
C602 C601 1.524 . S
C602 C603 1.415 . S
C603 H573 0.950 . S
C603 C598 1.363 . S
C603 C602 1.415 . S
H604 C601 0.999 . S
H605 C586 0.913 . S
H606 C624 0.951 . S
H607 C626 0.951 . S
H608 C628 0.950 . S
H609 C629 0.950 . S
H610 C631 0.950 . S
H611 C634 0.950 . S
H612 C635 0.950 . S
H613 C637 0.950 . S
H614 C638 0.950 . S
H615 C639 0.951 . S
H616 C641 0.951 . S
H617 C643 0.950 . S
H618 C644 0.950 . S
H619 C646 0.950 . S
H620 C649 0.950 . S
H621 C650 0.950 . S
H622 C652 0.950 . S
H623 C653 0.950 . S
C624 H606 0.951 . S
C624 C625 1.366 . S
C624 C626 1.388 . S
C625 C624 1.366 . S
C625 C629 1.385 . S
C626 H607 0.951 . S
C626 C624 1.388 . S
C626 C627 1.366 . S
C627 C626 1.366 . S
C627 C628 1.414 . S
C627 C630 1.499 . S
C628 H608 0.950 . S
C628 C627 1.414 . S
C628 C629 1.374 . S
C629 H609 0.950 . S
C629 C625 1.385 . S
C629 C628 1.374 . S
C630 C627 1.499 . S
C630 C631 1.373 . S
C630 C632 1.389 . S
C631 H610 0.950 . S
C631 C630 1.373 . S
C631 C647 1.377 . S
C632 C630 1.389 . S
C632 C633 1.524 . S
C632 C646 1.377 . S
C633 C632 1.524 . S
C633 C634 1.397 . S
C633 C638 1.363 . S
C634 H611 0.950 . S
C634 C633 1.397 . S
C634 C635 1.334 . S
C635 H612 0.950 . S
C635 C634 1.334 . S
C635 C636 1.287 . S
C636 C635 1.287 . S
C636 C637 1.524 . S
C636 H655 0.913 . S
C637 H613 0.950 . S
C637 C636 1.524 . S
C637 C638 1.415 . S
C638 H614 0.950 . S
C638 C633 1.363 . S
C638 C637 1.415 . S
C639 H615 0.951 . S
C639 C640 1.366 . S
C639 C641 1.388 . S
C640 C639 1.366 . S
C640 C644 1.385 . S
C641 H616 0.951 . S
C641 C639 1.388 . S
C641 C642 1.366 . S
C642 C641 1.366 . S
C642 C643 1.414 . S
C642 C645 1.499 . S
C643 H617 0.950 . S
C643 C642 1.414 . S
C643 C644 1.374 . S
C644 H618 0.950 . S
C644 C640 1.385 . S
C644 C643 1.374 . S
C645 C642 1.499 . S
C645 C646 1.373 . S
C645 C647 1.389 . S
C646 H619 0.950 . S
C646 C632 1.377 . S
C646 C645 1.373 . S
C647 C631 1.377 . S
C647 C645 1.389 . S
C647 C648 1.524 . S
C648 C647 1.524 . S
C648 C649 1.397 . S
C648 C653 1.363 . S
C649 H620 0.950 . S
C649 C648 1.397 . S
C649 C650 1.334 . S
C650 H621 0.950 . S
C650 C649 1.334 . S
C650 C651 1.287 . S
C651 C650 1.287 . S
C651 C652 1.524 . S
C651 H654 0.999 . S
C652 H622 0.950 . S
C652 C651 1.524 . S
C652 C653 1.415 . S
C653 H623 0.950 . S
C653 C648 1.363 . S
C653 C652 1.415 . S
H654 C651 0.999 . S
H655 C636 0.913 . S
H656 C674 0.951 . S
H657 C676 0.951 . S
H658 C678 0.950 . S
H659 C679 0.950 . S
H660 C681 0.950 . S
H661 C684 0.950 . S
H662 C685 0.950 . S
H663 C687 0.950 . S
H664 C688 0.950 . S
H665 C689 0.951 . S
H666 C691 0.951 . S
H667 C693 0.950 . S
H668 C694 0.950 . S
H669 C696 0.950 . S
H670 C699 0.950 . S
H671 C700 0.950 . S
H672 C702 0.950 . S
H673 C703 0.950 . S
C674 H656 0.951 . S
C674 C675 1.366 . S
C674 C676 1.388 . S
C675 C674 1.366 . S
C675 C679 1.385 . S
C676 H657 0.951 . S
C676 C674 1.388 . S
C676 C677 1.366 . S
C677 C676 1.366 . S
C677 C678 1.414 . S
C677 C680 1.499 . S
C678 H658 0.950 . S
C678 C677 1.414 . S
C678 C679 1.374 . S
C679 H659 0.950 . S
C679 C675 1.385 . S
C679 C678 1.374 . S
C680 C677 1.499 . S
C680 C681 1.373 . S
C680 C682 1.389 . S
C681 H660 0.950 . S
C681 C680 1.373 . S
C681 C697 1.377 . S
C682 C680 1.389 . S
C682 C683 1.524 . S
C682 C696 1.377 . S
C683 C682 1.524 . S
C683 C684 1.397 . S
C683 C688 1.363 . S
C684 H661 0.950 . S
C684 C683 1.397 . S
C684 C685 1.334 . S
C685 H662 0.950 . S
C685 C684 1.334 . S
C685 C686 1.287 . S
C686 C685 1.287 . S
C686 C687 1.524 . S
C686 H705 0.913 . S
C687 H663 0.950 . S
C687 C686 1.524 . S
C687 C688 1.415 . S
C688 H664 0.950 . S
C688 C683 1.363 . S
C688 C687 1.415 . S
C689 H665 0.951 . S
C689 C690 1.366 . S
C689 C691 1.388 . S
C690 C689 1.366 . S
C690 C694 1.385 . S
C691 H666 0.951 . S
C691 C689 1.388 . S
C691 C692 1.366 . S
C692 C691 1.366 . S
C692 C693 1.414 . S
C692 C695 1.499 . S
C693 H667 0.950 . S
C693 C692 1.414 . S
C693 C694 1.374 . S
C694 H668 0.950 . S
C694 C690 1.385 . S
C694 C693 1.374 . S
C695 C692 1.499 . S
C695 C696 1.373 . S
C695 C697 1.389 . S
C696 H669 0.950 . S
C696 C682 1.377 . S
C696 C695 1.373 . S
C697 C681 1.377 . S
C697 C695 1.389 . S
C697 C698 1.524 . S
C698 C697 1.524 . S
C698 C699 1.397 . S
C698 C703 1.363 . S
C699 H670 0.950 . S
C699 C698 1.397 . S
C699 C700 1.334 . S
C700 H671 0.950 . S
C700 C699 1.334 . S
C700 C701 1.287 . S
C701 C700 1.287 . S
C701 C702 1.524 . S
C701 H704 0.999 . S
C702 H672 0.950 . S
C702 C701 1.524 . S
C702 C703 1.415 . S
C703 H673 0.950 . S
C703 C698 1.363 . S
C703 C702 1.415 . S
H704 C701 0.999 . S
H705 C686 0.913 . S
H706 C724 0.951 . S
H707 C726 0.951 . S
H708 C728 0.950 . S
H709 C729 0.950 . S
H710 C731 0.950 . S
H711 C734 0.950 . S
H712 C735 0.950 . S
H713 C737 0.950 . S
H714 C738 0.950 . S
H715 C739 0.951 . S
H716 C741 0.951 . S
H717 C743 0.950 . S
H718 C744 0.950 . S
H719 C746 0.950 . S
H720 C749 0.950 . S
H721 C750 0.950 . S
H722 C752 0.950 . S
H723 C753 0.950 . S
C724 H706 0.951 . S
C724 C725 1.366 . S
C724 C726 1.388 . S
C725 C724 1.366 . S
C725 C729 1.385 . S
C726 H707 0.951 . S
C726 C724 1.388 . S
C726 C727 1.366 . S
C727 C726 1.366 . S
C727 C728 1.414 . S
C727 C730 1.499 . S
C728 H708 0.950 . S
C728 C727 1.414 . S
C728 C729 1.374 . S
C729 H709 0.950 . S
C729 C725 1.385 . S
C729 C728 1.374 . S
C730 C727 1.499 . S
C730 C731 1.373 . S
C730 C732 1.389 . S
C731 H710 0.950 . S
C731 C730 1.373 . S
C731 C747 1.377 . S
C732 C730 1.389 . S
C732 C733 1.524 . S
C732 C746 1.377 . S
C733 C732 1.524 . S
C733 C734 1.397 . S
C733 C738 1.363 . S
C734 H711 0.950 . S
C734 C733 1.397 . S
C734 C735 1.334 . S
C735 H712 0.950 . S
C735 C734 1.334 . S
C735 C736 1.287 . S
C736 C735 1.287 . S
C736 C737 1.524 . S
C736 H755 0.913 . S
C737 H713 0.950 . S
C737 C736 1.524 . S
C737 C738 1.415 . S
C738 H714 0.950 . S
C738 C733 1.363 . S
C738 C737 1.415 . S
C739 H715 0.951 . S
C739 C740 1.366 . S
C739 C741 1.388 . S
C740 C739 1.366 . S
C740 C744 1.385 . S
C741 H716 0.951 . S
C741 C739 1.388 . S
C741 C742 1.366 . S
C742 C741 1.366 . S
C742 C743 1.414 . S
C742 C745 1.499 . S
C743 H717 0.950 . S
C743 C742 1.414 . S
C743 C744 1.374 . S
C744 H718 0.950 . S
C744 C740 1.385 . S
C744 C743 1.374 . S
C745 C742 1.499 . S
C745 C746 1.373 . S
C745 C747 1.389 . S
C746 H719 0.950 . S
C746 C732 1.377 . S
C746 C745 1.373 . S
C747 C731 1.377 . S
C747 C745 1.389 . S
C747 C748 1.524 . S
C748 C747 1.524 . S
C748 C749 1.397 . S
C748 C753 1.363 . S
C749 H720 0.950 . S
C749 C748 1.397 . S
C749 C750 1.334 1_565 S
C750 H721 0.950 . S
C750 C749 1.334 1_545 S
C750 C751 1.287 . S
C751 C750 1.287 . S
C751 C752 1.524 . S
C751 H754 0.999 . S
C752 H722 0.950 . S
C752 C751 1.524 . S
C752 C753 1.415 1_545 S
C753 H723 0.950 . S
C753 C748 1.363 . S
C753 C752 1.415 1_565 S
H754 C751 0.999 . S
H755 C736 0.913 . S
H756 C774 0.951 . S
H757 C776 0.951 . S
H758 C778 0.950 . S
H759 C779 0.950 . S
H760 C781 0.950 . S
H761 C784 0.950 . S
H762 C785 0.950 . S
H763 C787 0.950 . S
H764 C788 0.950 . S
H765 C789 0.951 . S
H766 C791 0.951 . S
H767 C793 0.950 . S
H768 C794 0.950 . S
H769 C796 0.950 . S
H770 C799 0.950 . S
H771 C800 0.950 . S
H772 C802 0.950 . S
H773 C803 0.950 . S
C774 H756 0.951 . S
C774 C775 1.366 . S
C774 C776 1.388 . S
C775 C774 1.366 . S
C775 C779 1.385 . S
C776 H757 0.951 . S
C776 C774 1.388 . S
C776 C777 1.366 . S
C777 C776 1.366 . S
C777 C778 1.414 . S
C777 C780 1.499 . S
C778 H758 0.950 . S
C778 C777 1.414 . S
C778 C779 1.374 . S
C779 H759 0.950 . S
C779 C775 1.385 . S
C779 C778 1.374 . S
C780 C777 1.499 . S
C780 C781 1.373 . S
C780 C782 1.389 . S
C781 H760 0.950 . S
C781 C780 1.373 . S
C781 C797 1.377 . S
C782 C780 1.389 . S
C782 C783 1.524 . S
C782 C796 1.377 . S
C783 C782 1.524 . S
C783 C784 1.397 . S
C783 C788 1.363 . S
C784 H761 0.950 . S
C784 C783 1.397 . S
C784 C785 1.334 . S
C785 H762 0.950 . S
C785 C784 1.334 . S
C785 C786 1.287 . S
C786 C785 1.287 . S
C786 C787 1.524 . S
C786 H805 0.913 . S
C787 H763 0.950 . S
C787 C786 1.524 . S
C787 C788 1.415 . S
C788 H764 0.950 . S
C788 C783 1.363 . S
C788 C787 1.415 . S
C789 H765 0.951 . S
C789 C790 1.366 . S
C789 C791 1.388 . S
C790 C789 1.366 . S
C790 C794 1.385 . S
C791 H766 0.951 . S
C791 C789 1.388 . S
C791 C792 1.366 . S
C792 C791 1.366 . S
C792 C793 1.414 . S
C792 C795 1.499 . S
C793 H767 0.950 . S
C793 C792 1.414 . S
C793 C794 1.374 . S
C794 H768 0.950 . S
C794 C790 1.385 . S
C794 C793 1.374 . S
C795 C792 1.499 . S
C795 C796 1.373 . S
C795 C797 1.389 . S
C796 H769 0.950 . S
C796 C782 1.377 . S
C796 C795 1.373 . S
C797 C781 1.377 . S
C797 C795 1.389 . S
C797 C798 1.524 . S
C798 C797 1.524 . S
C798 C799 1.397 . S
C798 C803 1.363 . S
C799 H770 0.950 . S
C799 C798 1.397 . S
C799 C800 1.334 . S
C800 H771 0.950 . S
C800 C799 1.334 . S
C800 C801 1.287 . S
C801 C800 1.287 . S
C801 C802 1.524 . S
C801 H804 0.999 . S
C802 H772 0.950 . S
C802 C801 1.524 . S
C802 C803 1.415 . S
C803 H773 0.950 . S
C803 C798 1.363 . S
C803 C802 1.415 . S
H804 C801 0.999 . S
H805 C786 0.913 . S
H806 C824 0.951 . S
H807 C826 0.951 . S
H808 C828 0.950 . S
H809 C829 0.950 . S
H810 C831 0.950 . S
H811 C834 0.950 . S
H812 C835 0.950 . S
H813 C837 0.950 . S
H814 C838 0.950 . S
H815 C839 0.951 . S
H816 C841 0.951 . S
H817 C843 0.950 . S
H818 C844 0.950 . S
H819 C846 0.950 . S
H820 C849 0.950 . S
H821 C850 0.950 1_565 S
H822 C852 0.950 . S
H823 C853 0.950 . S
C824 H806 0.951 . S
C824 C825 1.366 . S
C824 C826 1.388 . S
C825 C824 1.366 . S
C825 C829 1.385 . S
C826 H807 0.951 . S
C826 C824 1.388 . S
C826 C827 1.366 . S
C827 C826 1.366 . S
C827 C828 1.414 . S
C827 C830 1.499 . S
C828 H808 0.950 . S
C828 C827 1.414 . S
C828 C829 1.374 . S
C829 H809 0.950 . S
C829 C825 1.385 . S
C829 C828 1.374 . S
C830 C827 1.499 . S
C830 C831 1.373 . S
C830 C832 1.389 . S
C831 H810 0.950 . S
C831 C830 1.373 . S
C831 C847 1.377 . S
C832 C830 1.389 . S
C832 C833 1.524 . S
C832 C846 1.377 . S
C833 C832 1.524 . S
C833 C834 1.397 . S
C833 C838 1.363 . S
C834 H811 0.950 . S
C834 C833 1.397 . S
C834 C835 1.334 . S
C835 H812 0.950 . S
C835 C834 1.334 . S
C835 C836 1.287 . S
C836 C835 1.287 . S
C836 C837 1.524 . S
C836 H855 0.913 . S
C837 H813 0.950 . S
C837 C836 1.524 . S
C837 C838 1.415 . S
C838 H814 0.950 . S
C838 C833 1.363 . S
C838 C837 1.415 . S
C839 H815 0.951 . S
C839 C840 1.366 . S
C839 C841 1.388 . S
C840 C839 1.366 . S
C840 C844 1.385 . S
C841 H816 0.951 . S
C841 C839 1.388 . S
C841 C842 1.366 . S
C842 C841 1.366 . S
C842 C843 1.414 . S
C842 C845 1.499 . S
C843 H817 0.950 . S
C843 C842 1.414 . S
C843 C844 1.374 . S
C844 H818 0.950 . S
C844 C840 1.385 . S
C844 C843 1.374 . S
C845 C842 1.499 . S
C845 C846 1.373 . S
C845 C847 1.389 . S
C846 H819 0.950 . S
C846 C832 1.377 . S
C846 C845 1.373 . S
C847 C831 1.377 . S
C847 C845 1.389 . S
C847 C848 1.524 . S
C848 C847 1.524 . S
C848 C849 1.397 . S
C848 C853 1.363 . S
C849 H820 0.950 . S
C849 C848 1.397 . S
C849 C850 1.334 . S
C850 H821 0.950 1_545 S
C850 C849 1.334 . S
C850 C851 1.287 1_545 S
C851 C850 1.287 1_565 S
C851 C852 1.524 1_565 S
C851 H854 0.999 . S
C852 H822 0.950 . S
C852 C851 1.524 1_545 S
C852 C853 1.415 . S
C853 H823 0.950 . S
C853 C848 1.363 . S
C853 C852 1.415 . S
H854 C851 0.999 . S
H855 C836 0.913 . S
H856 C874 0.951 . S
H857 C876 0.951 . S
H858 C878 0.950 . S
H859 C879 0.950 . S
H860 C881 0.950 . S
H861 C884 0.950 . S
H862 C885 0.950 . S
H863 C887 0.950 . S
H864 C888 0.950 . S
H865 C889 0.951 . S
H866 C891 0.951 . S
H867 C893 0.950 . S
H868 C894 0.950 . S
H869 C896 0.950 . S
H870 C899 0.950 . S
H871 C900 0.950 . S
H872 C902 0.950 . S
H873 C903 0.950 . S
C874 H856 0.951 . S
C874 C875 1.366 . S
C874 C876 1.388 . S
C875 C874 1.366 . S
C875 C879 1.385 . S
C876 H857 0.951 . S
C876 C874 1.388 . S
C876 C877 1.366 . S
C877 C876 1.366 . S
C877 C878 1.414 . S
C877 C880 1.499 . S
C878 H858 0.950 . S
C878 C877 1.414 . S
C878 C879 1.374 . S
C879 H859 0.950 . S
C879 C875 1.385 . S
C879 C878 1.374 . S
C880 C877 1.499 . S
C880 C881 1.373 . S
C880 C882 1.389 . S
C881 H860 0.950 . S
C881 C880 1.373 . S
C881 C897 1.377 . S
C882 C880 1.389 . S
C882 C883 1.524 . S
C882 C896 1.377 . S
C883 C882 1.524 . S
C883 C884 1.397 . S
C883 C888 1.363 . S
C884 H861 0.950 . S
C884 C883 1.397 . S
C884 C885 1.334 . S
C885 H862 0.950 . S
C885 C884 1.334 . S
C885 C886 1.287 . S
C886 C885 1.287 . S
C886 C887 1.524 . S
C886 H905 0.913 . S
C887 H863 0.950 . S
C887 C886 1.524 . S
C887 C888 1.415 . S
C888 H864 0.950 . S
C888 C883 1.363 . S
C888 C887 1.415 . S
C889 H865 0.951 . S
C889 C890 1.366 . S
C889 C891 1.388 . S
C890 C889 1.366 . S
C890 C894 1.385 . S
C891 H866 0.951 . S
C891 C889 1.388 . S
C891 C892 1.366 . S
C892 C891 1.366 . S
C892 C893 1.414 . S
C892 C895 1.499 . S
C893 H867 0.950 . S
C893 C892 1.414 . S
C893 C894 1.374 . S
C894 H868 0.950 . S
C894 C890 1.385 . S
C894 C893 1.374 . S
C895 C892 1.499 . S
C895 C896 1.373 . S
C895 C897 1.389 . S
C896 H869 0.950 . S
C896 C882 1.377 . S
C896 C895 1.373 . S
C897 C881 1.377 . S
C897 C895 1.389 . S
C897 C898 1.524 . S
C898 C897 1.524 . S
C898 C899 1.397 . S
C898 C903 1.363 . S
C899 H870 0.950 . S
C899 C898 1.397 . S
C899 C900 1.334 . S
C900 H871 0.950 . S
C900 C899 1.334 . S
C900 C901 1.287 . S
C901 C900 1.287 . S
C901 C902 1.524 . S
C901 H904 0.999 . S
C902 H872 0.950 . S
C902 C901 1.524 . S
C902 C903 1.415 . S
C903 H873 0.950 . S
C903 C898 1.363 . S
C903 C902 1.415 . S
H904 C901 0.999 . S
H905 C886 0.913 . S
H906 C924 0.951 . S
H907 C926 0.951 . S
H908 C928 0.950 . S
H909 C929 0.950 . S
H910 C931 0.950 . S
H911 C934 0.950 . S
H912 C935 0.950 . S
H913 C937 0.950 . S
H914 C938 0.950 . S
H915 C939 0.951 . S
H916 C941 0.951 . S
H917 C943 0.950 . S
H918 C944 0.950 . S
H919 C946 0.950 . S
H920 C949 0.950 . S
H921 C950 0.950 . S
H922 C952 0.950 . S
H923 C953 0.950 . S
C924 H906 0.951 . S
C924 C925 1.366 . S
C924 C926 1.388 . S
C925 C924 1.366 . S
C925 C929 1.385 . S
C926 H907 0.951 . S
C926 C924 1.388 . S
C926 C927 1.366 . S
C927 C926 1.366 . S
C927 C928 1.414 . S
C927 C930 1.499 . S
C928 H908 0.950 . S
C928 C927 1.414 . S
C928 C929 1.374 . S
C929 H909 0.950 . S
C929 C925 1.385 . S
C929 C928 1.374 . S
C930 C927 1.499 . S
C930 C931 1.373 . S
C930 C932 1.389 . S
C931 H910 0.950 . S
C931 C930 1.373 . S
C931 C947 1.377 . S
C932 C930 1.389 . S
C932 C933 1.524 . S
C932 C946 1.377 . S
C933 C932 1.524 . S
C933 C934 1.397 . S
C933 C938 1.363 . S
C934 H911 0.950 . S
C934 C933 1.397 . S
C934 C935 1.334 . S
C935 H912 0.950 . S
C935 C934 1.334 . S
C935 C936 1.287 . S
C936 C935 1.287 . S
C936 C937 1.524 . S
C936 H955 0.913 . S
C937 H913 0.950 . S
C937 C936 1.524 . S
C937 C938 1.415 . S
C938 H914 0.950 . S
C938 C933 1.363 . S
C938 C937 1.415 . S
C939 H915 0.951 . S
C939 C940 1.366 . S
C939 C941 1.388 . S
C940 C939 1.366 . S
C940 C944 1.385 . S
C941 H916 0.951 . S
C941 C939 1.388 . S
C941 C942 1.366 . S
C942 C941 1.366 . S
C942 C943 1.414 . S
C942 C945 1.499 . S
C943 H917 0.950 . S
C943 C942 1.414 . S
C943 C944 1.374 . S
C944 H918 0.950 . S
C944 C940 1.385 . S
C944 C943 1.374 . S
C945 C942 1.499 . S
C945 C946 1.373 . S
C945 C947 1.389 . S
C946 H919 0.950 . S
C946 C932 1.377 . S
C946 C945 1.373 . S
C947 C931 1.377 . S
C947 C945 1.389 . S
C947 C948 1.524 . S
C948 C947 1.524 . S
C948 C949 1.397 . S
C948 C953 1.363 . S
C949 H920 0.950 . S
C949 C948 1.397 . S
C949 C950 1.334 . S
C950 H921 0.950 . S
C950 C949 1.334 . S
C950 C951 1.287 . S
C951 C950 1.287 . S
C951 C952 1.524 . S
C951 H954 0.999 1_545 S
C952 H922 0.950 . S
C952 C951 1.524 . S
C952 C953 1.415 . S
C953 H923 0.950 . S
C953 C948 1.363 . S
C953 C952 1.415 . S
H954 C951 0.999 1_565 S
H955 C936 0.913 . S
H956 C974 0.951 . S
H957 C976 0.951 . S
H958 C978 0.950 . S
H959 C979 0.950 . S
H960 C981 0.950 . S
H961 C984 0.950 . S
H962 C985 0.950 . S
H963 C987 0.950 . S
H964 C988 0.950 . S
H965 C989 0.951 . S
H966 C991 0.951 . S
H967 C993 0.950 . S
H968 C994 0.950 . S
H969 C996 0.950 . S
H970 C999 0.950 . S
H971 C1000 0.950 . S
H972 C1002 0.950 . S
H973 C1003 0.950 . S
C974 H956 0.951 . S
C974 C975 1.366 . S
C974 C976 1.388 . S
C975 C974 1.366 . S
C975 C979 1.385 . S
C976 H957 0.951 . S
C976 C974 1.388 . S
C976 C977 1.366 . S
C977 C976 1.366 . S
C977 C978 1.414 . S
C977 C980 1.499 . S
C978 H958 0.950 . S
C978 C977 1.414 . S
C978 C979 1.374 . S
C979 H959 0.950 . S
C979 C975 1.385 . S
C979 C978 1.374 . S
C980 C977 1.499 . S
C980 C981 1.373 . S
C980 C982 1.389 . S
C981 H960 0.950 . S
C981 C980 1.373 . S
C981 C997 1.377 . S
C982 C980 1.389 . S
C982 C983 1.524 . S
C982 C996 1.377 . S
C983 C982 1.524 . S
C983 C984 1.397 . S
C983 C988 1.363 . S
C984 H961 0.950 . S
C984 C983 1.397 . S
C984 C985 1.334 . S
C985 H962 0.950 . S
C985 C984 1.334 . S
C985 C986 1.287 . S
C986 C985 1.287 . S
C986 C987 1.524 . S
C986 H1005 0.913 . S
C987 H963 0.950 . S
C987 C986 1.524 . S
C987 C988 1.415 . S
C988 H964 0.950 . S
C988 C983 1.363 . S
C988 C987 1.415 . S
C989 H965 0.951 . S
C989 C990 1.366 . S
C989 C991 1.388 . S
C990 C989 1.366 . S
C990 C994 1.385 . S
C991 H966 0.951 . S
C991 C989 1.388 . S
C991 C992 1.366 . S
C992 C991 1.366 . S
C992 C993 1.414 . S
C992 C995 1.499 . S
C993 H967 0.950 . S
C993 C992 1.414 . S
C993 C994 1.374 . S
C994 H968 0.950 . S
C994 C990 1.385 . S
C994 C993 1.374 . S
C995 C992 1.499 . S
C995 C996 1.373 . S
C995 C997 1.389 . S
C996 H969 0.950 . S
C996 C982 1.377 . S
C996 C995 1.373 . S
C997 C981 1.377 . S
C997 C995 1.389 . S
C997 C998 1.524 . S
C998 C997 1.524 . S
C998 C999 1.397 . S
C998 C1003 1.363 . S
C999 H970 0.950 . S
C999 C998 1.397 . S
C999 C1000 1.334 . S
C1000 H971 0.950 . S
C1000 C999 1.334 . S
C1000 C1001 1.287 . S
C1001 C1000 1.287 . S
C1001 C1002 1.524 . S
C1001 H1004 0.999 . S
C1002 H972 0.950 . S
C1002 C1001 1.524 . S
C1002 C1003 1.415 . S
C1003 H973 0.950 . S
C1003 C998 1.363 . S
C1003 C1002 1.415 . S
H1004 C1001 0.999 . S
H1005 C986 0.913 . S
H1006 C1024 0.951 . S
H1007 C1026 0.951 . S
H1008 C1028 0.950 . S
H1009 C1029 0.950 . S
H1010 C1031 0.950 . S
H1011 C1034 0.950 . S
H1012 C1035 0.950 . S
H1013 C1037 0.950 . S
H1014 C1038 0.950 . S
H1015 C1039 0.951 . S
H1016 C1041 0.951 . S
H1017 C1043 0.950 . S
H1018 C1044 0.950 . S
H1019 C1046 0.950 . S
H1020 C1049 0.950 . S
H1021 C1050 0.950 . S
H1022 C1052 0.950 . S
H1023 C1053 0.950 . S
C1024 H1006 0.951 . S
C1024 C1025 1.366 . S
C1024 C1026 1.388 . S
C1025 C1024 1.366 . S
C1025 C1029 1.385 . S
C1026 H1007 0.951 . S
C1026 C1024 1.388 . S
C1026 C1027 1.366 . S
C1027 C1026 1.366 . S
C1027 C1028 1.414 . S
C1027 C1030 1.499 . S
C1028 H1008 0.950 . S
C1028 C1027 1.414 . S
C1028 C1029 1.374 . S
C1029 H1009 0.950 . S
C1029 C1025 1.385 . S
C1029 C1028 1.374 . S
C1030 C1027 1.499 . S
C1030 C1031 1.373 . S
C1030 C1032 1.389 . S
C1031 H1010 0.950 . S
C1031 C1030 1.373 . S
C1031 C1047 1.377 . S
C1032 C1030 1.389 . S
C1032 C1033 1.524 . S
C1032 C1046 1.377 . S
C1033 C1032 1.524 . S
C1033 C1034 1.397 . S
C1033 C1038 1.363 . S
C1034 H1011 0.950 . S
C1034 C1033 1.397 . S
C1034 C1035 1.334 . S
C1035 H1012 0.950 . S
C1035 C1034 1.334 . S
C1035 C1036 1.287 . S
C1036 C1035 1.287 . S
C1036 C1037 1.524 . S
C1036 H1055 0.913 . S
C1037 H1013 0.950 . S
C1037 C1036 1.524 . S
C1037 C1038 1.415 . S
C1038 H1014 0.950 . S
C1038 C1033 1.363 . S
C1038 C1037 1.415 . S
C1039 H1015 0.951 . S
C1039 C1040 1.366 . S
C1039 C1041 1.388 . S
C1040 C1039 1.366 . S
C1040 C1044 1.385 . S
C1041 H1016 0.951 . S
C1041 C1039 1.388 . S
C1041 C1042 1.366 . S
C1042 C1041 1.366 . S
C1042 C1043 1.414 . S
C1042 C1045 1.499 . S
C1043 H1017 0.950 . S
C1043 C1042 1.414 . S
C1043 C1044 1.374 . S
C1044 H1018 0.950 . S
C1044 C1040 1.385 . S
C1044 C1043 1.374 . S
C1045 C1042 1.499 . S
C1045 C1046 1.373 . S
C1045 C1047 1.389 . S
C1046 H1019 0.950 . S
C1046 C1032 1.377 . S
C1046 C1045 1.373 . S
C1047 C1031 1.377 . S
C1047 C1045 1.389 . S
C1047 C1048 1.524 . S
C1048 C1047 1.524 . S
C1048 C1049 1.397 . S
C1048 C1053 1.363 . S
C1049 H1020 0.950 . S
C1049 C1048 1.397 . S
C1049 C1050 1.334 . S
C1050 H1021 0.950 . S
C1050 C1049 1.334 . S
C1050 C1051 1.287 . S
C1051 C1050 1.287 . S
C1051 C1052 1.524 . S
C1051 H1054 0.999 . S
C1052 H1022 0.950 . S
C1052 C1051 1.524 . S
C1052 C1053 1.415 . S
C1053 H1023 0.950 . S
C1053 C1048 1.363 . S
C1053 C1052 1.415 . S
H1054 C1051 0.999 . S
H1055 C1036 0.913 . S
H1056 C1074 0.951 . S
H1057 C1076 0.951 . S
H1058 C1078 0.950 . S
H1059 C1079 0.950 . S
H1060 C1081 0.950 . S
H1061 C1084 0.950 . S
H1062 C1085 0.950 . S
H1063 C1087 0.950 . S
H1064 C1088 0.950 . S
H1065 C1089 0.951 . S
H1066 C1091 0.951 . S
H1067 C1093 0.950 . S
H1068 C1094 0.950 . S
H1069 C1096 0.950 . S
H1070 C1099 0.950 . S
H1071 C1100 0.950 . S
H1072 C1102 0.950 . S
H1073 C1103 0.950 . S
C1074 H1056 0.951 . S
C1074 C1075 1.366 . S
C1074 C1076 1.388 . S
C1075 C1074 1.366 . S
C1075 C1079 1.385 . S
C1076 H1057 0.951 . S
C1076 C1074 1.388 . S
C1076 C1077 1.366 . S
C1077 C1076 1.366 . S
C1077 C1078 1.414 . S
C1077 C1080 1.499 . S
C1078 H1058 0.950 . S
C1078 C1077 1.414 . S
C1078 C1079 1.374 . S
C1079 H1059 0.950 . S
C1079 C1075 1.385 . S
C1079 C1078 1.374 . S
C1080 C1077 1.499 . S
C1080 C1081 1.373 . S
C1080 C1082 1.389 . S
C1081 H1060 0.950 . S
C1081 C1080 1.373 . S
C1081 C1097 1.377 . S
C1082 C1080 1.389 . S
C1082 C1083 1.524 . S
C1082 C1096 1.377 . S
C1083 C1082 1.524 . S
C1083 C1084 1.397 . S
C1083 C1088 1.363 . S
C1084 H1061 0.950 . S
C1084 C1083 1.397 . S
C1084 C1085 1.334 . S
C1085 H1062 0.950 . S
C1085 C1084 1.334 . S
C1085 C1086 1.287 . S
C1086 C1085 1.287 . S
C1086 C1087 1.524 . S
C1086 H1105 0.913 . S
C1087 H1063 0.950 . S
C1087 C1086 1.524 . S
C1087 C1088 1.415 . S
C1088 H1064 0.950 . S
C1088 C1083 1.363 . S
C1088 C1087 1.415 . S
C1089 H1065 0.951 . S
C1089 C1090 1.366 . S
C1089 C1091 1.388 . S
C1090 C1089 1.366 . S
C1090 C1094 1.385 . S
C1091 H1066 0.951 . S
C1091 C1089 1.388 . S
C1091 C1092 1.366 . S
C1092 C1091 1.366 . S
C1092 C1093 1.414 . S
C1092 C1095 1.499 . S
C1093 H1067 0.950 . S
C1093 C1092 1.414 . S
C1093 C1094 1.374 . S
C1094 H1068 0.950 . S
C1094 C1090 1.385 . S
C1094 C1093 1.374 . S
C1095 C1092 1.499 . S
C1095 C1096 1.373 . S
C1095 C1097 1.389 . S
C1096 H1069 0.950 . S
C1096 C1082 1.377 . S
C1096 C1095 1.373 . S
C1097 C1081 1.377 . S
C1097 C1095 1.389 . S
C1097 C1098 1.524 . S
C1098 C1097 1.524 . S
C1098 C1099 1.397 . S
C1098 C1103 1.363 . S
C1099 H1070 0.950 . S
C1099 C1098 1.397 . S
C1099 C1100 1.334 . S
C1100 H1071 0.950 . S
C1100 C1099 1.334 . S
C1100 C1101 1.287 . S
C1101 C1100 1.287 . S
C1101 C1102 1.524 . S
C1101 H1104 0.999 . S
C1102 H1072 0.950 . S
C1102 C1101 1.524 . S
C1102 C1103 1.415 . S
C1103 H1073 0.950 . S
C1103 C1098 1.363 . S
C1103 C1102 1.415 . S
H1104 C1101 0.999 . S
H1105 C1086 0.913 . S
H1106 C1124 0.951 . S
H1107 C1126 0.951 . S
H1108 C1128 0.950 . S
H1109 C1129 0.950 . S
H1110 C1131 0.950 . S
H1111 C1134 0.950 . S
H1112 C1135 0.950 . S
H1113 C1137 0.950 . S
H1114 C1138 0.950 . S
H1115 C1139 0.951 . S
H1116 C1141 0.951 . S
H1117 C1143 0.950 . S
H1118 C1144 0.950 . S
H1119 C1146 0.950 . S
H1120 C1149 0.950 . S
H1121 C1150 0.950 . S
H1122 C1152 0.950 . S
H1123 C1153 0.950 . S
C1124 H1106 0.951 . S
C1124 C1125 1.366 . S
C1124 C1126 1.388 . S
C1125 C1124 1.366 . S
C1125 C1129 1.385 . S
C1126 H1107 0.951 . S
C1126 C1124 1.388 . S
C1126 C1127 1.366 . S
C1127 C1126 1.366 . S
C1127 C1128 1.414 . S
C1127 C1130 1.499 . S
C1128 H1108 0.950 . S
C1128 C1127 1.414 . S
C1128 C1129 1.374 . S
C1129 H1109 0.950 . S
C1129 C1125 1.385 . S
C1129 C1128 1.374 . S
C1130 C1127 1.499 . S
C1130 C1131 1.373 . S
C1130 C1132 1.389 . S
C1131 H1110 0.950 . S
C1131 C1130 1.373 . S
C1131 C1147 1.377 . S
C1132 C1130 1.389 . S
C1132 C1133 1.524 . S
C1132 C1146 1.377 . S
C1133 C1132 1.524 . S
C1133 C1134 1.397 . S
C1133 C1138 1.363 . S
C1134 H1111 0.950 . S
C1134 C1133 1.397 . S
C1134 C1135 1.334 . S
C1135 H1112 0.950 . S
C1135 C1134 1.334 . S
C1135 C1136 1.287 . S
C1136 C1135 1.287 . S
C1136 C1137 1.524 . S
C1136 H1155 0.913 . S
C1137 H1113 0.950 . S
C1137 C1136 1.524 . S
C1137 C1138 1.415 . S
C1138 H1114 0.950 . S
C1138 C1133 1.363 . S
C1138 C1137 1.415 . S
C1139 H1115 0.951 . S
C1139 C1140 1.366 . S
C1139 C1141 1.388 . S
C1140 C1139 1.366 . S
C1140 C1144 1.385 . S
C1141 H1116 0.951 . S
C1141 C1139 1.388 . S
C1141 C1142 1.366 . S
C1142 C1141 1.366 . S
C1142 C1143 1.414 . S
C1142 C1145 1.499 . S
C1143 H1117 0.950 . S
C1143 C1142 1.414 . S
C1143 C1144 1.374 . S
C1144 H1118 0.950 . S
C1144 C1140 1.385 . S
C1144 C1143 1.374 . S
C1145 C1142 1.499 . S
C1145 C1146 1.373 . S
C1145 C1147 1.389 . S
C1146 H1119 0.950 . S
C1146 C1132 1.377 . S
C1146 C1145 1.373 . S
C1147 C1131 1.377 . S
C1147 C1145 1.389 . S
C1147 C1148 1.524 . S
C1148 C1147 1.524 . S
C1148 C1149 1.397 . S
C1148 C1153 1.363 . S
C1149 H1120 0.950 . S
C1149 C1148 1.397 . S
C1149 C1150 1.334 . S
C1150 H1121 0.950 . S
C1150 C1149 1.334 . S
C1150 C1151 1.287 . S
C1151 C1150 1.287 . S
C1151 C1152 1.524 . S
C1151 H1154 0.999 . S
C1152 H1122 0.950 . S
C1152 C1151 1.524 . S
C1152 C1153 1.415 . S
C1153 H1123 0.950 . S
C1153 C1148 1.363 . S
C1153 C1152 1.415 . S
H1154 C1151 0.999 . S
H1155 C1136 0.913 . S
H1156 C1174 0.951 . S
H1157 C1176 0.951 . S
H1158 C1178 0.950 . S
H1159 C1179 0.950 . S
H1160 C1181 0.950 . S
H1161 C1184 0.950 . S
H1162 C1185 0.950 . S
H1163 C1187 0.950 . S
H1164 C1188 0.950 . S
H1165 C1189 0.951 . S
H1166 C1191 0.951 . S
H1167 C1193 0.950 . S
H1168 C1194 0.950 . S
H1169 C1196 0.950 . S
H1170 C1199 0.950 . S
H1171 C1200 0.950 . S
H1172 C1202 0.950 . S
H1173 C1203 0.950 . S
C1174 H1156 0.951 . S
C1174 C1175 1.366 . S
C1174 C1176 1.388 . S
C1175 C1174 1.366 . S
C1175 C1179 1.385 . S
C1176 H1157 0.951 . S
C1176 C1174 1.388 . S
C1176 C1177 1.366 . S
C1177 C1176 1.366 . S
C1177 C1178 1.414 . S
C1177 C1180 1.499 . S
C1178 H1158 0.950 . S
C1178 C1177 1.414 . S
C1178 C1179 1.374 . S
C1179 H1159 0.950 . S
C1179 C1175 1.385 . S
C1179 C1178 1.374 . S
C1180 C1177 1.499 . S
C1180 C1181 1.373 . S
C1180 C1182 1.389 . S
C1181 H1160 0.950 . S
C1181 C1180 1.373 . S
C1181 C1197 1.377 . S
C1182 C1180 1.389 . S
C1182 C1183 1.524 . S
C1182 C1196 1.377 . S
C1183 C1182 1.524 . S
C1183 C1184 1.397 . S
C1183 C1188 1.363 . S
C1184 H1161 0.950 . S
C1184 C1183 1.397 . S
C1184 C1185 1.334 . S
C1185 H1162 0.950 . S
C1185 C1184 1.334 . S
C1185 C1186 1.287 . S
C1186 C1185 1.287 . S
C1186 C1187 1.524 . S
C1186 H1205 0.913 . S
C1187 H1163 0.950 . S
C1187 C1186 1.524 . S
C1187 C1188 1.415 . S
C1188 H1164 0.950 . S
C1188 C1183 1.363 . S
C1188 C1187 1.415 . S
C1189 H1165 0.951 . S
C1189 C1190 1.366 . S
C1189 C1191 1.388 . S
C1190 C1189 1.366 . S
C1190 C1194 1.385 . S
C1191 H1166 0.951 . S
C1191 C1189 1.388 . S
C1191 C1192 1.366 . S
C1192 C1191 1.366 . S
C1192 C1193 1.414 . S
C1192 C1195 1.499 . S
C1193 H1167 0.950 . S
C1193 C1192 1.414 . S
C1193 C1194 1.374 . S
C1194 H1168 0.950 . S
C1194 C1190 1.385 . S
C1194 C1193 1.374 . S
C1195 C1192 1.499 . S
C1195 C1196 1.373 . S
C1195 C1197 1.389 . S
C1196 H1169 0.950 . S
C1196 C1182 1.377 . S
C1196 C1195 1.373 . S
C1197 C1181 1.377 . S
C1197 C1195 1.389 . S
C1197 C1198 1.524 . S
C1198 C1197 1.524 . S
C1198 C1199 1.397 . S
C1198 C1203 1.363 . S
C1199 H1170 0.950 . S
C1199 C1198 1.397 . S
C1199 C1200 1.334 . S
C1200 H1171 0.950 . S
C1200 C1199 1.334 . S
C1200 C1201 1.287 . S
C1201 C1200 1.287 . S
C1201 C1202 1.524 . S
C1201 H1204 0.999 . S
C1202 H1172 0.950 . S
C1202 C1201 1.524 . S
C1202 C1203 1.415 . S
C1203 H1173 0.950 . S
C1203 C1198 1.363 . S
C1203 C1202 1.415 . S
H1204 C1201 0.999 . S
H1205 C1186 0.913 . S
H1206 C1224 0.951 . S
H1207 C1226 0.951 . S
H1208 C1228 0.950 . S
H1209 C1229 0.950 . S
H1210 C1231 0.950 . S
H1211 C1234 0.950 . S
H1212 C1235 0.950 . S
H1213 C1237 0.950 . S
H1214 C1238 0.950 . S
H1215 C1239 0.951 . S
H1216 C1241 0.951 . S
H1217 C1243 0.950 . S
H1218 C1244 0.950 . S
H1219 C1246 0.950 . S
H1220 C1249 0.950 . S
H1221 C1250 0.950 . S
H1222 C1252 0.950 . S
H1223 C1253 0.950 . S
C1224 H1206 0.951 . S
C1224 C1225 1.366 . S
C1224 C1226 1.388 . S
C1225 C1224 1.366 . S
C1225 C1229 1.385 . S
C1226 H1207 0.951 . S
C1226 C1224 1.388 . S
C1226 C1227 1.366 . S
C1227 C1226 1.366 . S
C1227 C1228 1.414 . S
C1227 C1230 1.499 . S
C1228 H1208 0.950 . S
C1228 C1227 1.414 . S
C1228 C1229 1.374 . S
C1229 H1209 0.950 . S
C1229 C1225 1.385 . S
C1229 C1228 1.374 . S
C1230 C1227 1.499 . S
C1230 C1231 1.373 . S
C1230 C1232 1.389 . S
C1231 H1210 0.950 . S
C1231 C1230 1.373 . S
C1231 C1247 1.377 . S
C1232 C1230 1.389 . S
C1232 C1233 1.524 . S
C1232 C1246 1.377 . S
C1233 C1232 1.524 . S
C1233 C1234 1.397 . S
C1233 C1238 1.363 . S
C1234 H1211 0.950 . S
C1234 C1233 1.397 . S
C1234 C1235 1.334 . S
C1235 H1212 0.950 . S
C1235 C1234 1.334 . S
C1235 C1236 1.287 . S
C1236 C1235 1.287 . S
C1236 C1237 1.524 . S
C1236 H1255 0.913 . S
C1237 H1213 0.950 . S
C1237 C1236 1.524 . S
C1237 C1238 1.415 . S
C1238 H1214 0.950 . S
C1238 C1233 1.363 . S
C1238 C1237 1.415 . S
C1239 H1215 0.951 . S
C1239 C1240 1.366 . S
C1239 C1241 1.388 . S
C1240 C1239 1.366 . S
C1240 C1244 1.385 . S
C1241 H1216 0.951 . S
C1241 C1239 1.388 . S
C1241 C1242 1.366 . S
C1242 C1241 1.366 . S
C1242 C1243 1.414 . S
C1242 C1245 1.499 . S
C1243 H1217 0.950 . S
C1243 C1242 1.414 . S
C1243 C1244 1.374 . S
C1244 H1218 0.950 . S
C1244 C1240 1.385 . S
C1244 C1243 1.374 . S
C1245 C1242 1.499 . S
C1245 C1246 1.373 . S
C1245 C1247 1.389 . S
C1246 H1219 0.950 . S
C1246 C1232 1.377 . S
C1246 C1245 1.373 . S
C1247 C1231 1.377 . S
C1247 C1245 1.389 . S
C1247 C1248 1.524 . S
C1248 C1247 1.524 . S
C1248 C1249 1.397 . S
C1248 C1253 1.363 . S
C1249 H1220 0.950 . S
C1249 C1248 1.397 . S
C1249 C1250 1.334 . S
C1250 H1221 0.950 . S
C1250 C1249 1.334 . S
C1250 C1251 1.287 . S
C1251 C1250 1.287 . S
C1251 C1252 1.524 . S
C1251 H1254 0.999 . S
C1252 H1222 0.950 . S
C1252 C1251 1.524 . S
C1252 C1253 1.415 . S
C1253 H1223 0.950 . S
C1253 C1248 1.363 . S
C1253 C1252 1.415 . S
H1254 C1251 0.999 . S
H1255 C1236 0.913 . S
H1256 C1274 0.951 . S
H1257 C1276 0.951 . S
H1258 C1278 0.950 . S
H1259 C1279 0.950 . S
H1260 C1281 0.950 . S
H1261 C1284 0.950 . S
H1262 C1285 0.950 . S
H1263 C1287 0.950 . S
H1264 C1288 0.950 . S
H1265 C1289 0.951 . S
H1266 C1291 0.951 . S
H1267 C1293 0.950 . S
H1268 C1294 0.950 . S
H1269 C1296 0.950 . S
H1270 C1299 0.950 . S
H1271 C1300 0.950 . S
H1272 C1302 0.950 . S
H1273 C1303 0.950 . S
C1274 H1256 0.951 . S
C1274 C1275 1.366 . S
C1274 C1276 1.388 . S
C1275 C1274 1.366 . S
C1275 C1279 1.385 . S
C1276 H1257 0.951 . S
C1276 C1274 1.388 . S
C1276 C1277 1.366 . S
C1277 C1276 1.366 . S
C1277 C1278 1.414 . S
C1277 C1280 1.499 . S
C1278 H1258 0.950 . S
C1278 C1277 1.414 . S
C1278 C1279 1.374 . S
C1279 H1259 0.950 . S
C1279 C1275 1.385 . S
C1279 C1278 1.374 . S
C1280 C1277 1.499 . S
C1280 C1281 1.373 . S
C1280 C1282 1.389 . S
C1281 H1260 0.950 . S
C1281 C1280 1.373 . S
C1281 C1297 1.377 . S
C1282 C1280 1.389 . S
C1282 C1283 1.524 . S
C1282 C1296 1.377 . S
C1283 C1282 1.524 . S
C1283 C1284 1.397 . S
C1283 C1288 1.363 . S
C1284 H1261 0.950 . S
C1284 C1283 1.397 . S
C1284 C1285 1.334 . S
C1285 H1262 0.950 . S
C1285 C1284 1.334 . S
C1285 C1286 1.287 . S
C1286 C1285 1.287 . S
C1286 C1287 1.524 . S
C1286 H1305 0.913 . S
C1287 H1263 0.950 . S
C1287 C1286 1.524 . S
C1287 C1288 1.415 . S
C1288 H1264 0.950 . S
C1288 C1283 1.363 . S
C1288 C1287 1.415 . S
C1289 H1265 0.951 . S
C1289 C1290 1.366 . S
C1289 C1291 1.388 . S
C1290 C1289 1.366 . S
C1290 C1294 1.385 . S
C1291 H1266 0.951 . S
C1291 C1289 1.388 . S
C1291 C1292 1.366 . S
C1292 C1291 1.366 . S
C1292 C1293 1.414 . S
C1292 C1295 1.499 . S
C1293 H1267 0.950 . S
C1293 C1292 1.414 . S
C1293 C1294 1.374 . S
C1294 H1268 0.950 . S
C1294 C1290 1.385 . S
C1294 C1293 1.374 . S
C1295 C1292 1.499 . S
C1295 C1296 1.373 . S
C1295 C1297 1.389 . S
C1296 H1269 0.950 . S
C1296 C1282 1.377 . S
C1296 C1295 1.373 . S
C1297 C1281 1.377 . S
C1297 C1295 1.389 . S
C1297 C1298 1.524 . S
C1298 C1297 1.524 . S
C1298 C1299 1.397 . S
C1298 C1303 1.363 . S
C1299 H1270 0.950 . S
C1299 C1298 1.397 . S
C1299 C1300 1.334 . S
C1300 H1271 0.950 . S
C1300 C1299 1.334 . S
C1300 C1301 1.287 1_655 S
C1301 C1300 1.287 1_455 S
C1301 C1302 1.524 . S
C1301 H1304 0.999 . S
C1302 H1272 0.950 . S
C1302 C1301 1.524 . S
C1302 C1303 1.415 1_455 S
C1303 H1273 0.950 . S
C1303 C1298 1.363 . S
C1303 C1302 1.415 1_655 S
H1304 C1301 0.999 . S
H1305 C1286 0.913 . S
H1306 C1324 0.951 . S
H1307 C1326 0.951 . S
H1308 C1328 0.950 . S
H1309 C1329 0.950 . S
H1310 C1331 0.950 . S
H1311 C1334 0.950 . S
H1312 C1335 0.950 . S
H1313 C1337 0.950 . S
H1314 C1338 0.950 . S
H1315 C1339 0.951 . S
H1316 C1341 0.951 . S
H1317 C1343 0.950 . S
H1318 C1344 0.950 . S
H1319 C1346 0.950 . S
H1320 C1349 0.950 . S
H1321 C1350 0.950 1_556 S
H1322 C1352 0.950 . S
H1323 C1353 0.950 . S
C1324 H1306 0.951 . S
C1324 C1325 1.366 . S
C1324 C1326 1.388 . S
C1325 C1324 1.366 . S
C1325 C1329 1.385 . S
C1326 H1307 0.951 . S
C1326 C1324 1.388 . S
C1326 C1327 1.366 . S
C1327 C1326 1.366 . S
C1327 C1328 1.414 . S
C1327 C1330 1.499 . S
C1328 H1308 0.950 . S
C1328 C1327 1.414 . S
C1328 C1329 1.374 . S
C1329 H1309 0.950 . S
C1329 C1325 1.385 . S
C1329 C1328 1.374 . S
C1330 C1327 1.499 . S
C1330 C1331 1.373 . S
C1330 C1332 1.389 . S
C1331 H1310 0.950 . S
C1331 C1330 1.373 . S
C1331 C1347 1.377 . S
C1332 C1330 1.389 . S
C1332 C1333 1.524 . S
C1332 C1346 1.377 . S
C1333 C1332 1.524 . S
C1333 C1334 1.397 . S
C1333 C1338 1.363 . S
C1334 H1311 0.950 . S
C1334 C1333 1.397 . S
C1334 C1335 1.334 . S
C1335 H1312 0.950 . S
C1335 C1334 1.334 . S
C1335 C1336 1.287 . S
C1336 C1335 1.287 . S
C1336 C1337 1.524 . S
C1336 H1355 0.913 . S
C1337 H1313 0.950 . S
C1337 C1336 1.524 . S
C1337 C1338 1.415 . S
C1338 H1314 0.950 . S
C1338 C1333 1.363 . S
C1338 C1337 1.415 . S
C1339 H1315 0.951 . S
C1339 C1340 1.366 . S
C1339 C1341 1.388 . S
C1340 C1339 1.366 . S
C1340 C1344 1.385 . S
C1341 H1316 0.951 . S
C1341 C1339 1.388 . S
C1341 C1342 1.366 . S
C1342 C1341 1.366 . S
C1342 C1343 1.414 . S
C1342 C1345 1.499 . S
C1343 H1317 0.950 . S
C1343 C1342 1.414 . S
C1343 C1344 1.374 . S
C1344 H1318 0.950 . S
C1344 C1340 1.385 . S
C1344 C1343 1.374 . S
C1345 C1342 1.499 . S
C1345 C1346 1.373 . S
C1345 C1347 1.389 . S
C1346 H1319 0.950 . S
C1346 C1332 1.377 . S
C1346 C1345 1.373 . S
C1347 C1331 1.377 . S
C1347 C1345 1.389 . S
C1347 C1348 1.524 . S
C1348 C1347 1.524 . S
C1348 C1349 1.397 . S
C1348 C1353 1.363 . S
C1349 H1320 0.950 . S
C1349 C1348 1.397 . S
C1349 C1350 1.334 . S
C1350 H1321 0.950 1_554 S
C1350 C1349 1.334 . S
C1350 C1351 1.287 . S
C1351 C1350 1.287 . S
C1351 C1352 1.524 . S
C1351 H1354 0.999 1_554 S
C1352 H1322 0.950 . S
C1352 C1351 1.524 . S
C1352 C1353 1.415 . S
C1353 H1323 0.950 . S
C1353 C1348 1.363 . S
C1353 C1352 1.415 . S
H1354 C1351 0.999 1_556 S
H1355 C1336 0.913 . S
H1356 C1374 0.951 . S
H1357 C1376 0.951 . S
H1358 C1378 0.950 . S
H1359 C1379 0.950 . S
H1360 C1381 0.950 . S
H1361 C1384 0.950 . S
H1362 C1385 0.950 . S
H1363 C1387 0.950 . S
H1364 C1388 0.950 . S
H1365 C1389 0.951 . S
H1366 C1391 0.951 . S
H1367 C1393 0.950 . S
H1368 C1394 0.950 . S
H1369 C1396 0.950 . S
H1370 C1399 0.950 . S
H1371 C1400 0.950 . S
H1372 C1402 0.950 . S
H1373 C1403 0.950 . S
C1374 H1356 0.951 . S
C1374 C1375 1.366 . S
C1374 C1376 1.388 . S
C1375 C1374 1.366 . S
C1375 C1379 1.385 . S
C1376 H1357 0.951 . S
C1376 C1374 1.388 . S
C1376 C1377 1.366 . S
C1377 C1376 1.366 . S
C1377 C1378 1.414 . S
C1377 C1380 1.499 . S
C1378 H1358 0.950 . S
C1378 C1377 1.414 . S
C1378 C1379 1.374 . S
C1379 H1359 0.950 . S
C1379 C1375 1.385 . S
C1379 C1378 1.374 . S
C1380 C1377 1.499 . S
C1380 C1381 1.373 . S
C1380 C1382 1.389 . S
C1381 H1360 0.950 . S
C1381 C1380 1.373 . S
C1381 C1397 1.377 . S
C1382 C1380 1.389 . S
C1382 C1383 1.524 . S
C1382 C1396 1.377 . S
C1383 C1382 1.524 . S
C1383 C1384 1.397 . S
C1383 C1388 1.363 . S
C1384 H1361 0.950 . S
C1384 C1383 1.397 . S
C1384 C1385 1.334 . S
C1385 H1362 0.950 . S
C1385 C1384 1.334 . S
C1385 C1386 1.287 . S
C1386 C1385 1.287 . S
C1386 C1387 1.524 . S
C1386 H1405 0.913 . S
C1387 H1363 0.950 . S
C1387 C1386 1.524 . S
C1387 C1388 1.415 . S
C1388 H1364 0.950 . S
C1388 C1383 1.363 . S
C1388 C1387 1.415 . S
C1389 H1365 0.951 . S
C1389 C1390 1.366 . S
C1389 C1391 1.388 . S
C1390 C1389 1.366 . S
C1390 C1394 1.385 . S
C1391 H1366 0.951 . S
C1391 C1389 1.388 . S
C1391 C1392 1.366 . S
C1392 C1391 1.366 . S
C1392 C1393 1.414 . S
C1392 C1395 1.499 . S
C1393 H1367 0.950 . S
C1393 C1392 1.414 . S
C1393 C1394 1.374 . S
C1394 H1368 0.950 . S
C1394 C1390 1.385 . S
C1394 C1393 1.374 . S
C1395 C1392 1.499 . S
C1395 C1396 1.373 . S
C1395 C1397 1.389 . S
C1396 H1369 0.950 . S
C1396 C1382 1.377 . S
C1396 C1395 1.373 . S
C1397 C1381 1.377 . S
C1397 C1395 1.389 . S
C1397 C1398 1.524 . S
C1398 C1397 1.524 . S
C1398 C1399 1.397 . S
C1398 C1403 1.363 . S
C1399 H1370 0.950 . S
C1399 C1398 1.397 . S
C1399 C1400 1.334 . S
C1400 H1371 0.950 . S
C1400 C1399 1.334 . S
C1400 C1401 1.287 . S
C1401 C1400 1.287 . S
C1401 C1402 1.524 . S
C1401 H1404 0.999 . S
C1402 H1372 0.950 . S
C1402 C1401 1.524 . S
C1402 C1403 1.415 . S
C1403 H1373 0.950 . S
C1403 C1398 1.363 . S
C1403 C1402 1.415 . S
H1404 C1401 0.999 . S
H1405 C1386 0.913 . S
H1406 C1424 0.951 . S
H1407 C1426 0.951 . S
H1408 C1428 0.950 . S
H1409 C1429 0.950 . S
H1410 C1431 0.950 . S
H1411 C1434 0.950 . S
H1412 C1435 0.950 . S
H1413 C1437 0.950 . S
H1414 C1438 0.950 . S
H1415 C1439 0.951 . S
H1416 C1441 0.951 . S
H1417 C1443 0.950 . S
H1418 C1444 0.950 . S
H1419 C1446 0.950 . S
H1420 C1449 0.950 . S
H1421 C1450 0.950 . S
H1422 C1452 0.950 . S
H1423 C1453 0.950 . S
C1424 H1406 0.951 . S
C1424 C1425 1.366 . S
C1424 C1426 1.388 . S
C1425 C1424 1.366 . S
C1425 C1429 1.385 . S
C1426 H1407 0.951 . S
C1426 C1424 1.388 . S
C1426 C1427 1.366 . S
C1427 C1426 1.366 . S
C1427 C1428 1.414 . S
C1427 C1430 1.499 . S
C1428 H1408 0.950 . S
C1428 C1427 1.414 . S
C1428 C1429 1.374 . S
C1429 H1409 0.950 . S
C1429 C1425 1.385 . S
C1429 C1428 1.374 . S
C1430 C1427 1.499 . S
C1430 C1431 1.373 . S
C1430 C1432 1.389 . S
C1431 H1410 0.950 . S
C1431 C1430 1.373 . S
C1431 C1447 1.377 . S
C1432 C1430 1.389 . S
C1432 C1433 1.524 . S
C1432 C1446 1.377 . S
C1433 C1432 1.524 . S
C1433 C1434 1.397 . S
C1433 C1438 1.363 . S
C1434 H1411 0.950 . S
C1434 C1433 1.397 . S
C1434 C1435 1.334 . S
C1435 H1412 0.950 . S
C1435 C1434 1.334 . S
C1435 C1436 1.287 . S
C1436 C1435 1.287 . S
C1436 C1437 1.524 . S
C1436 H1455 0.913 . S
C1437 H1413 0.950 . S
C1437 C1436 1.524 . S
C1437 C1438 1.415 . S
C1438 H1414 0.950 . S
C1438 C1433 1.363 . S
C1438 C1437 1.415 . S
C1439 H1415 0.951 . S
C1439 C1440 1.366 . S
C1439 C1441 1.388 . S
C1440 C1439 1.366 . S
C1440 C1444 1.385 . S
C1441 H1416 0.951 . S
C1441 C1439 1.388 . S
C1441 C1442 1.366 . S
C1442 C1441 1.366 . S
C1442 C1443 1.414 . S
C1442 C1445 1.499 . S
C1443 H1417 0.950 . S
C1443 C1442 1.414 . S
C1443 C1444 1.374 . S
C1444 H1418 0.950 . S
C1444 C1440 1.385 . S
C1444 C1443 1.374 . S
C1445 C1442 1.499 . S
C1445 C1446 1.373 . S
C1445 C1447 1.389 . S
C1446 H1419 0.950 . S
C1446 C1432 1.377 . S
C1446 C1445 1.373 . S
C1447 C1431 1.377 . S
C1447 C1445 1.389 . S
C1447 C1448 1.524 . S
C1448 C1447 1.524 . S
C1448 C1449 1.397 . S
C1448 C1453 1.363 . S
C1449 H1420 0.950 . S
C1449 C1448 1.397 . S
C1449 C1450 1.334 1_545 S
C1450 H1421 0.950 . S
C1450 C1449 1.334 1_565 S
C1450 C1451 1.287 . S
C1451 C1450 1.287 . S
C1451 C1452 1.524 . S
C1451 H1454 0.999 . S
C1452 H1422 0.950 . S
C1452 C1451 1.524 . S
C1452 C1453 1.415 1_565 S
C1453 H1423 0.950 . S
C1453 C1448 1.363 . S
C1453 C1452 1.415 1_545 S
H1454 C1451 0.999 . S
H1455 C1436 0.913 . S
H1456 C1474 0.951 . S
H1457 C1476 0.951 . S
H1458 C1478 0.950 . S
H1459 C1479 0.950 . S
H1460 C1481 0.950 . S
H1461 C1484 0.950 . S
H1462 C1485 0.950 . S
H1463 C1487 0.950 . S
H1464 C1488 0.950 . S
H1465 C1489 0.951 . S
H1466 C1491 0.951 . S
H1467 C1493 0.950 . S
H1468 C1494 0.950 . S
H1469 C1496 0.950 . S
H1470 C1499 0.950 . S
H1471 C1500 0.950 . S
H1472 C1502 0.950 . S
H1473 C1503 0.950 . S
C1474 H1456 0.951 . S
C1474 C1475 1.366 . S
C1474 C1476 1.388 . S
C1475 C1474 1.366 . S
C1475 C1479 1.385 . S
C1476 H1457 0.951 . S
C1476 C1474 1.388 . S
C1476 C1477 1.366 . S
C1477 C1476 1.366 . S
C1477 C1478 1.414 . S
C1477 C1480 1.499 . S
C1478 H1458 0.950 . S
C1478 C1477 1.414 . S
C1478 C1479 1.374 . S
C1479 H1459 0.950 . S
C1479 C1475 1.385 . S
C1479 C1478 1.374 . S
C1480 C1477 1.499 . S
C1480 C1481 1.373 . S
C1480 C1482 1.389 . S
C1481 H1460 0.950 . S
C1481 C1480 1.373 . S
C1481 C1497 1.377 . S
C1482 C1480 1.389 . S
C1482 C1483 1.524 . S
C1482 C1496 1.377 . S
C1483 C1482 1.524 . S
C1483 C1484 1.397 . S
C1483 C1488 1.363 . S
C1484 H1461 0.950 . S
C1484 C1483 1.397 . S
C1484 C1485 1.334 . S
C1485 H1462 0.950 . S
C1485 C1484 1.334 . S
C1485 C1486 1.287 . S
C1486 C1485 1.287 . S
C1486 C1487 1.524 . S
C1486 H1505 0.913 . S
C1487 H1463 0.950 . S
C1487 C1486 1.524 . S
C1487 C1488 1.415 . S
C1488 H1464 0.950 . S
C1488 C1483 1.363 . S
C1488 C1487 1.415 . S
C1489 H1465 0.951 . S
C1489 C1490 1.366 . S
C1489 C1491 1.388 . S
C1490 C1489 1.366 . S
C1490 C1494 1.385 . S
C1491 H1466 0.951 . S
C1491 C1489 1.388 . S
C1491 C1492 1.366 . S
C1492 C1491 1.366 . S
C1492 C1493 1.414 . S
C1492 C1495 1.499 . S
C1493 H1467 0.950 . S
C1493 C1492 1.414 . S
C1493 C1494 1.374 . S
C1494 H1468 0.950 . S
C1494 C1490 1.385 . S
C1494 C1493 1.374 . S
C1495 C1492 1.499 . S
C1495 C1496 1.373 . S
C1495 C1497 1.389 . S
C1496 H1469 0.950 . S
C1496 C1482 1.377 . S
C1496 C1495 1.373 . S
C1497 C1481 1.377 . S
C1497 C1495 1.389 . S
C1497 C1498 1.524 . S
C1498 C1497 1.524 . S
C1498 C1499 1.397 . S
C1498 C1503 1.363 . S
C1499 H1470 0.950 . S
C1499 C1498 1.397 . S
C1499 C1500 1.334 . S
C1500 H1471 0.950 . S
C1500 C1499 1.334 . S
C1500 C1501 1.287 . S
C1501 C1500 1.287 . S
C1501 C1502 1.524 . S
C1501 H1504 0.999 . S
C1502 H1472 0.950 . S
C1502 C1501 1.524 . S
C1502 C1503 1.415 . S
C1503 H1473 0.950 . S
C1503 C1498 1.363 . S
C1503 C1502 1.415 . S
H1504 C1501 0.999 . S
H1505 C1486 0.913 . S
H1506 C1524 0.951 . S
H1507 C1526 0.951 . S
H1508 C1528 0.950 . S
H1509 C1529 0.950 . S
H1510 C1531 0.950 . S
H1511 C1534 0.950 . S
H1512 C1535 0.950 . S
H1513 C1537 0.950 . S
H1514 C1538 0.950 . S
H1515 C1539 0.951 . S
H1516 C1541 0.951 . S
H1517 C1543 0.950 . S
H1518 C1544 0.950 . S
H1519 C1546 0.950 . S
H1520 C1549 0.950 . S
H1521 C1550 0.950 . S
H1522 C1552 0.950 . S
H1523 C1553 0.950 . S
C1524 H1506 0.951 . S
C1524 C1525 1.366 . S
C1524 C1526 1.388 . S
C1525 C1524 1.366 . S
C1525 C1529 1.385 . S
C1526 H1507 0.951 . S
C1526 C1524 1.388 . S
C1526 C1527 1.366 . S
C1527 C1526 1.366 . S
C1527 C1528 1.414 . S
C1527 C1530 1.499 . S
C1528 H1508 0.950 . S
C1528 C1527 1.414 . S
C1528 C1529 1.374 . S
C1529 H1509 0.950 . S
C1529 C1525 1.385 . S
C1529 C1528 1.374 . S
C1530 C1527 1.499 . S
C1530 C1531 1.373 . S
C1530 C1532 1.389 . S
C1531 H1510 0.950 . S
C1531 C1530 1.373 . S
C1531 C1547 1.377 . S
C1532 C1530 1.389 . S
C1532 C1533 1.524 . S
C1532 C1546 1.377 . S
C1533 C1532 1.524 . S
C1533 C1534 1.397 . S
C1533 C1538 1.363 . S
C1534 H1511 0.950 . S
C1534 C1533 1.397 . S
C1534 C1535 1.334 . S
C1535 H1512 0.950 . S
C1535 C1534 1.334 . S
C1535 C1536 1.287 . S
C1536 C1535 1.287 . S
C1536 C1537 1.524 . S
C1536 H1555 0.913 . S
C1537 H1513 0.950 . S
C1537 C1536 1.524 . S
C1537 C1538 1.415 . S
C1538 H1514 0.950 . S
C1538 C1533 1.363 . S
C1538 C1537 1.415 . S
C1539 H1515 0.951 . S
C1539 C1540 1.366 . S
C1539 C1541 1.388 . S
C1540 C1539 1.366 . S
C1540 C1544 1.385 . S
C1541 H1516 0.951 . S
C1541 C1539 1.388 . S
C1541 C1542 1.366 . S
C1542 C1541 1.366 . S
C1542 C1543 1.414 . S
C1542 C1545 1.499 . S
C1543 H1517 0.950 . S
C1543 C1542 1.414 . S
C1543 C1544 1.374 . S
C1544 H1518 0.950 . S
C1544 C1540 1.385 . S
C1544 C1543 1.374 . S
C1545 C1542 1.499 . S
C1545 C1546 1.373 . S
C1545 C1547 1.389 . S
C1546 H1519 0.950 . S
C1546 C1532 1.377 . S
C1546 C1545 1.373 . S
C1547 C1531 1.377 . S
C1547 C1545 1.389 . S
C1547 C1548 1.524 . S
C1548 C1547 1.524 . S
C1548 C1549 1.397 . S
C1548 C1553 1.363 . S
C1549 H1520 0.950 . S
C1549 C1548 1.397 . S
C1549 C1550 1.334 . S
C1550 H1521 0.950 . S
C1550 C1549 1.334 . S
C1550 C1551 1.287 . S
C1551 C1550 1.287 . S
C1551 C1552 1.524 . S
C1551 H1554 0.999 . S
C1552 H1522 0.950 . S
C1552 C1551 1.524 . S
C1552 C1553 1.415 . S
C1553 H1523 0.950 . S
C1553 C1548 1.363 . S
C1553 C1552 1.415 . S
H1554 C1551 0.999 . S
H1555 C1536 0.913 . S
H1556 C1574 0.951 . S
H1557 C1576 0.951 . S
H1558 C1578 0.950 . S
H1559 C1579 0.950 . S
H1560 C1581 0.950 . S
H1561 C1584 0.950 . S
H1562 C1585 0.950 . S
H1563 C1587 0.950 . S
H1564 C1588 0.950 . S
H1565 C1589 0.951 . S
H1566 C1591 0.951 . S
H1567 C1593 0.950 . S
H1568 C1594 0.950 . S
H1569 C1596 0.950 . S
H1570 C1599 0.950 . S
H1571 C1600 0.950 . S
H1572 C1602 0.950 . S
H1573 C1603 0.950 . S
C1574 H1556 0.951 . S
C1574 C1575 1.366 . S
C1574 C1576 1.388 . S
C1575 C1574 1.366 . S
C1575 C1579 1.385 . S
C1576 H1557 0.951 . S
C1576 C1574 1.388 . S
C1576 C1577 1.366 . S
C1577 C1576 1.366 . S
C1577 C1578 1.414 . S
C1577 C1580 1.499 . S
C1578 H1558 0.950 . S
C1578 C1577 1.414 . S
C1578 C1579 1.374 . S
C1579 H1559 0.950 . S
C1579 C1575 1.385 . S
C1579 C1578 1.374 . S
C1580 C1577 1.499 . S
C1580 C1581 1.373 . S
C1580 C1582 1.389 . S
C1581 H1560 0.950 . S
C1581 C1580 1.373 . S
C1581 C1597 1.377 . S
C1582 C1580 1.389 . S
C1582 C1583 1.524 . S
C1582 C1596 1.377 . S
C1583 C1582 1.524 . S
C1583 C1584 1.397 . S
C1583 C1588 1.363 . S
C1584 H1561 0.950 . S
C1584 C1583 1.397 . S
C1584 C1585 1.334 . S
C1585 H1562 0.950 . S
C1585 C1584 1.334 . S
C1585 C1586 1.287 . S
C1586 C1585 1.287 . S
C1586 C1587 1.524 . S
C1586 H1605 0.913 . S
C1587 H1563 0.950 . S
C1587 C1586 1.524 . S
C1587 C1588 1.415 . S
C1588 H1564 0.950 . S
C1588 C1583 1.363 . S
C1588 C1587 1.415 . S
C1589 H1565 0.951 . S
C1589 C1590 1.366 . S
C1589 C1591 1.388 . S
C1590 C1589 1.366 . S
C1590 C1594 1.385 . S
C1591 H1566 0.951 . S
C1591 C1589 1.388 . S
C1591 C1592 1.366 . S
C1592 C1591 1.366 . S
C1592 C1593 1.414 . S
C1592 C1595 1.499 . S
C1593 H1567 0.950 . S
C1593 C1592 1.414 . S
C1593 C1594 1.374 . S
C1594 H1568 0.950 . S
C1594 C1590 1.385 . S
C1594 C1593 1.374 . S
C1595 C1592 1.499 . S
C1595 C1596 1.373 . S
C1595 C1597 1.389 . S
C1596 H1569 0.950 . S
C1596 C1582 1.377 . S
C1596 C1595 1.373 . S
C1597 C1581 1.377 . S
C1597 C1595 1.389 . S
C1597 C1598 1.524 . S
C1598 C1597 1.524 . S
C1598 C1599 1.397 . S
C1598 C1603 1.363 . S
C1599 H1570 0.950 . S
C1599 C1598 1.397 . S
C1599 C1600 1.334 . S
C1600 H1571 0.950 . S
C1600 C1599 1.334 . S
C1600 C1601 1.287 . S
C1601 C1600 1.287 . S
C1601 C1602 1.524 . S
C1601 H1604 0.999 . S
C1602 H1572 0.950 . S
C1602 C1601 1.524 . S
C1602 C1603 1.415 . S
C1603 H1573 0.950 . S
C1603 C1598 1.363 . S
C1603 C1602 1.415 . S
H1604 C1601 0.999 . S
H1605 C1586 0.913 . S
H1606 C1624 0.951 . S
H1607 C1626 0.951 . S
H1608 C1628 0.950 . S
H1609 C1629 0.950 . S
H1610 C1631 0.950 . S
H1611 C1634 0.950 . S
H1612 C1635 0.950 . S
H1613 C1637 0.950 . S
H1614 C1638 0.950 . S
H1615 C1639 0.951 . S
H1616 C1641 0.951 . S
H1617 C1643 0.950 . S
H1618 C1644 0.950 . S
H1619 C1646 0.950 . S
H1620 C1649 0.950 . S
H1621 C1650 0.950 . S
H1622 C1652 0.950 . S
H1623 C1653 0.950 . S
C1624 H1606 0.951 . S
C1624 C1625 1.366 . S
C1624 C1626 1.388 . S
C1625 C1624 1.366 . S
C1625 C1629 1.385 . S
C1626 H1607 0.951 . S
C1626 C1624 1.388 . S
C1626 C1627 1.366 . S
C1627 C1626 1.366 . S
C1627 C1628 1.414 . S
C1627 C1630 1.499 . S
C1628 H1608 0.950 . S
C1628 C1627 1.414 . S
C1628 C1629 1.374 . S
C1629 H1609 0.950 . S
C1629 C1625 1.385 . S
C1629 C1628 1.374 . S
C1630 C1627 1.499 . S
C1630 C1631 1.373 . S
C1630 C1632 1.389 . S
C1631 H1610 0.950 . S
C1631 C1630 1.373 . S
C1631 C1647 1.377 . S
C1632 C1630 1.389 . S
C1632 C1633 1.524 . S
C1632 C1646 1.377 . S
C1633 C1632 1.524 . S
C1633 C1634 1.397 . S
C1633 C1638 1.363 . S
C1634 H1611 0.950 . S
C1634 C1633 1.397 . S
C1634 C1635 1.334 . S
C1635 H1612 0.950 . S
C1635 C1634 1.334 . S
C1635 C1636 1.287 . S
C1636 C1635 1.287 . S
C1636 C1637 1.524 . S
C1636 H1655 0.913 . S
C1637 H1613 0.950 . S
C1637 C1636 1.524 . S
C1637 C1638 1.415 . S
C1638 H1614 0.950 . S
C1638 C1633 1.363 . S
C1638 C1637 1.415 . S
C1639 H1615 0.951 . S
C1639 C1640 1.366 . S
C1639 C1641 1.388 . S
C1640 C1639 1.366 . S
C1640 C1644 1.385 . S
C1641 H1616 0.951 . S
C1641 C1639 1.388 . S
C1641 C1642 1.366 . S
C1642 C1641 1.366 . S
C1642 C1643 1.414 . S
C1642 C1645 1.499 . S
C1643 H1617 0.950 . S
C1643 C1642 1.414 . S
C1643 C1644 1.374 . S
C1644 H1618 0.950 . S
C1644 C1640 1.385 . S
C1644 C1643 1.374 . S
C1645 C1642 1.499 . S
C1645 C1646 1.373 . S
C1645 C1647 1.389 . S
C1646 H1619 0.950 . S
C1646 C1632 1.377 . S
C1646 C1645 1.373 . S
C1647 C1631 1.377 . S
C1647 C1645 1.389 . S
C1647 C1648 1.524 . S
C1648 C1647 1.524 . S
C1648 C1649 1.397 . S
C1648 C1653 1.363 . S
C1649 H1620 0.950 . S
C1649 C1648 1.397 . S
C1649 C1650 1.334 . S
C1650 H1621 0.950 . S
C1650 C1649 1.334 . S
C1650 C1651 1.287 . S
C1651 C1650 1.287 . S
C1651 C1652 1.524 . S
C1651 H1654 0.999 . S
C1652 H1622 0.950 . S
C1652 C1651 1.524 . S
C1652 C1653 1.415 . S
C1653 H1623 0.950 . S
C1653 C1648 1.363 . S
C1653 C1652 1.415 . S
H1654 C1651 0.999 . S
H1655 C1636 0.913 . S
H1656 C1674 0.951 . S
H1657 C1676 0.951 . S
H1658 C1678 0.950 . S
H1659 C1679 0.950 . S
H1660 C1681 0.950 . S
H1661 C1684 0.950 . S
H1662 C1685 0.950 . S
H1663 C1687 0.950 . S
H1664 C1688 0.950 . S
H1665 C1689 0.951 . S
H1666 C1691 0.951 . S
H1667 C1693 0.950 . S
H1668 C1694 0.950 . S
H1669 C1696 0.950 . S
H1670 C1699 0.950 . S
H1671 C1700 0.950 . S
H1672 C1702 0.950 . S
H1673 C1703 0.950 . S
C1674 H1656 0.951 . S
C1674 C1675 1.366 . S
C1674 C1676 1.388 . S
C1675 C1674 1.366 . S
C1675 C1679 1.385 . S
C1676 H1657 0.951 . S
C1676 C1674 1.388 . S
C1676 C1677 1.366 . S
C1677 C1676 1.366 . S
C1677 C1678 1.414 . S
C1677 C1680 1.499 . S
C1678 H1658 0.950 . S
C1678 C1677 1.414 . S
C1678 C1679 1.374 . S
C1679 H1659 0.950 . S
C1679 C1675 1.385 . S
C1679 C1678 1.374 . S
C1680 C1677 1.499 . S
C1680 C1681 1.373 . S
C1680 C1682 1.389 . S
C1681 H1660 0.950 . S
C1681 C1680 1.373 . S
C1681 C1697 1.377 . S
C1682 C1680 1.389 . S
C1682 C1683 1.524 . S
C1682 C1696 1.377 . S
C1683 C1682 1.524 . S
C1683 C1684 1.397 . S
C1683 C1688 1.363 . S
C1684 H1661 0.950 . S
C1684 C1683 1.397 . S
C1684 C1685 1.334 . S
C1685 H1662 0.950 . S
C1685 C1684 1.334 . S
C1685 C1686 1.287 . S
C1686 C1685 1.287 . S
C1686 C1687 1.524 . S
C1686 H1705 0.913 . S
C1687 H1663 0.950 . S
C1687 C1686 1.524 . S
C1687 C1688 1.415 . S
C1688 H1664 0.950 . S
C1688 C1683 1.363 . S
C1688 C1687 1.415 . S
C1689 H1665 0.951 . S
C1689 C1690 1.366 . S
C1689 C1691 1.388 . S
C1690 C1689 1.366 . S
C1690 C1694 1.385 . S
C1691 H1666 0.951 . S
C1691 C1689 1.388 . S
C1691 C1692 1.366 . S
C1692 C1691 1.366 . S
C1692 C1693 1.414 . S
C1692 C1695 1.499 . S
C1693 H1667 0.950 . S
C1693 C1692 1.414 . S
C1693 C1694 1.374 . S
C1694 H1668 0.950 . S
C1694 C1690 1.385 . S
C1694 C1693 1.374 . S
C1695 C1692 1.499 . S
C1695 C1696 1.373 . S
C1695 C1697 1.389 . S
C1696 H1669 0.950 . S
C1696 C1682 1.377 . S
C1696 C1695 1.373 . S
C1697 C1681 1.377 . S
C1697 C1695 1.389 . S
C1697 C1698 1.524 . S
C1698 C1697 1.524 . S
C1698 C1699 1.397 . S
C1698 C1703 1.363 . S
C1699 H1670 0.950 . S
C1699 C1698 1.397 . S
C1699 C1700 1.334 . S
C1700 H1671 0.950 . S
C1700 C1699 1.334 . S
C1700 C1701 1.287 . S
C1701 C1700 1.287 . S
C1701 C1702 1.524 . S
C1701 H1704 0.999 . S
C1702 H1672 0.950 . S
C1702 C1701 1.524 . S
C1702 C1703 1.415 . S
C1703 H1673 0.950 . S
C1703 C1698 1.363 . S
C1703 C1702 1.415 . S
H1704 C1701 0.999 . S
H1705 C1686 0.913 . S
H1706 C1724 0.951 . S
H1707 C1726 0.951 . S
H1708 C1728 0.950 . S
H1709 C1729 0.950 . S
H1710 C1731 0.950 . S
H1711 C1734 0.950 . S
H1712 C1735 0.950 . S
H1713 C1737 0.950 . S
H1714 C1738 0.950 . S
H1715 C1739 0.951 . S
H1716 C1741 0.951 . S
H1717 C1743 0.950 . S
H1718 C1744 0.950 . S
H1719 C1746 0.950 . S
H1720 C1749 0.950 . S
H1721 C1750 0.950 . S
H1722 C1752 0.950 . S
H1723 C1753 0.950 . S
C1724 H1706 0.951 . S
C1724 C1725 1.366 . S
C1724 C1726 1.388 . S
C1725 C1724 1.366 . S
C1725 C1729 1.385 . S
C1726 H1707 0.951 . S
C1726 C1724 1.388 . S
C1726 C1727 1.366 . S
C1727 C1726 1.366 . S
C1727 C1728 1.414 . S
C1727 C1730 1.499 . S
C1728 H1708 0.950 . S
C1728 C1727 1.414 . S
C1728 C1729 1.374 . S
C1729 H1709 0.950 . S
C1729 C1725 1.385 . S
C1729 C1728 1.374 . S
C1730 C1727 1.499 . S
C1730 C1731 1.373 . S
C1730 C1732 1.389 . S
C1731 H1710 0.950 . S
C1731 C1730 1.373 . S
C1731 C1747 1.377 . S
C1732 C1730 1.389 . S
C1732 C1733 1.524 . S
C1732 C1746 1.377 . S
C1733 C1732 1.524 . S
C1733 C1734 1.397 . S
C1733 C1738 1.363 . S
C1734 H1711 0.950 . S
C1734 C1733 1.397 . S
C1734 C1735 1.334 . S
C1735 H1712 0.950 . S
C1735 C1734 1.334 . S
C1735 C1736 1.287 . S
C1736 C1735 1.287 . S
C1736 C1737 1.524 . S
C1736 H1755 0.913 . S
C1737 H1713 0.950 . S
C1737 C1736 1.524 . S
C1737 C1738 1.415 . S
C1738 H1714 0.950 . S
C1738 C1733 1.363 . S
C1738 C1737 1.415 . S
C1739 H1715 0.951 . S
C1739 C1740 1.366 . S
C1739 C1741 1.388 . S
C1740 C1739 1.366 . S
C1740 C1744 1.385 . S
C1741 H1716 0.951 . S
C1741 C1739 1.388 . S
C1741 C1742 1.366 . S
C1742 C1741 1.366 . S
C1742 C1743 1.414 . S
C1742 C1745 1.499 . S
C1743 H1717 0.950 . S
C1743 C1742 1.414 . S
C1743 C1744 1.374 . S
C1744 H1718 0.950 . S
C1744 C1740 1.385 . S
C1744 C1743 1.374 . S
C1745 C1742 1.499 . S
C1745 C1746 1.373 . S
C1745 C1747 1.389 . S
C1746 H1719 0.950 . S
C1746 C1732 1.377 . S
C1746 C1745 1.373 . S
C1747 C1731 1.377 . S
C1747 C1745 1.389 . S
C1747 C1748 1.524 . S
C1748 C1747 1.524 . S
C1748 C1749 1.397 . S
C1748 C1753 1.363 . S
C1749 H1720 0.950 . S
C1749 C1748 1.397 . S
C1749 C1750 1.334 . S
C1750 H1721 0.950 . S
C1750 C1749 1.334 . S
C1750 C1751 1.287 . S
C1751 C1750 1.287 . S
C1751 C1752 1.524 . S
C1751 H1754 0.999 . S
C1752 H1722 0.950 . S
C1752 C1751 1.524 . S
C1752 C1753 1.415 . S
C1753 H1723 0.950 . S
C1753 C1748 1.363 . S
C1753 C1752 1.415 . S
H1754 C1751 0.999 . S
H1755 C1736 0.913 . S
H1756 C1774 0.951 . S
H1757 C1776 0.951 . S
H1758 C1778 0.950 . S
H1759 C1779 0.950 . S
H1760 C1781 0.950 . S
H1761 C1784 0.950 . S
H1762 C1785 0.950 . S
H1763 C1787 0.950 . S
H1764 C1788 0.950 . S
H1765 C1789 0.951 . S
H1766 C1791 0.951 . S
H1767 C1793 0.950 . S
H1768 C1794 0.950 . S
H1769 C1796 0.950 . S
H1770 C1799 0.950 . S
H1771 C1800 0.950 . S
H1772 C1802 0.950 . S
H1773 C1803 0.950 . S
C1774 H1756 0.951 . S
C1774 C1775 1.366 . S
C1774 C1776 1.388 . S
C1775 C1774 1.366 . S
C1775 C1779 1.385 . S
C1776 H1757 0.951 . S
C1776 C1774 1.388 . S
C1776 C1777 1.366 . S
C1777 C1776 1.366 . S
C1777 C1778 1.414 . S
C1777 C1780 1.499 . S
C1778 H1758 0.950 . S
C1778 C1777 1.414 . S
C1778 C1779 1.374 . S
C1779 H1759 0.950 . S
C1779 C1775 1.385 . S
C1779 C1778 1.374 . S
C1780 C1777 1.499 . S
C1780 C1781 1.373 . S
C1780 C1782 1.389 . S
C1781 H1760 0.950 . S
C1781 C1780 1.373 . S
C1781 C1797 1.377 . S
C1782 C1780 1.389 . S
C1782 C1783 1.524 . S
C1782 C1796 1.377 . S
C1783 C1782 1.524 . S
C1783 C1784 1.397 . S
C1783 C1788 1.363 . S
C1784 H1761 0.950 . S
C1784 C1783 1.397 . S
C1784 C1785 1.334 . S
C1785 H1762 0.950 . S
C1785 C1784 1.334 . S
C1785 C1786 1.287 . S
C1786 C1785 1.287 . S
C1786 C1787 1.524 . S
C1786 H1805 0.913 . S
C1787 H1763 0.950 . S
C1787 C1786 1.524 . S
C1787 C1788 1.415 . S
C1788 H1764 0.950 . S
C1788 C1783 1.363 . S
C1788 C1787 1.415 . S
C1789 H1765 0.951 . S
C1789 C1790 1.366 . S
C1789 C1791 1.388 . S
C1790 C1789 1.366 . S
C1790 C1794 1.385 . S
C1791 H1766 0.951 . S
C1791 C1789 1.388 . S
C1791 C1792 1.366 . S
C1792 C1791 1.366 . S
C1792 C1793 1.414 . S
C1792 C1795 1.499 . S
C1793 H1767 0.950 . S
C1793 C1792 1.414 . S
C1793 C1794 1.374 . S
C1794 H1768 0.950 . S
C1794 C1790 1.385 . S
C1794 C1793 1.374 . S
C1795 C1792 1.499 . S
C1795 C1796 1.373 . S
C1795 C1797 1.389 . S
C1796 H1769 0.950 . S
C1796 C1782 1.377 . S
C1796 C1795 1.373 . S
C1797 C1781 1.377 . S
C1797 C1795 1.389 . S
C1797 C1798 1.524 . S
C1798 C1797 1.524 . S
C1798 C1799 1.397 . S
C1798 C1803 1.363 . S
C1799 H1770 0.950 . S
C1799 C1798 1.397 . S
C1799 C1800 1.334 . S
C1800 H1771 0.950 . S
C1800 C1799 1.334 . S
C1800 C1801 1.287 . S
C1801 C1800 1.287 . S
C1801 C1802 1.524 . S
C1801 H1804 0.999 . S
C1802 H1772 0.950 . S
C1802 C1801 1.524 . S
C1802 C1803 1.415 . S
C1803 H1773 0.950 . S
C1803 C1798 1.363 . S
C1803 C1802 1.415 . S
H1804 C1801 0.999 . S
H1805 C1786 0.913 . S
H1806 C1824 0.951 . S
H1807 C1826 0.951 . S
H1808 C1828 0.950 . S
H1809 C1829 0.950 . S
H1810 C1831 0.950 . S
H1811 C1834 0.950 . S
H1812 C1835 0.950 . S
H1813 C1837 0.950 . S
H1814 C1838 0.950 . S
H1815 C1839 0.951 . S
H1816 C1841 0.951 . S
H1817 C1843 0.950 . S
H1818 C1844 0.950 . S
H1819 C1846 0.950 . S
H1820 C1849 0.950 . S
H1821 C1850 0.950 . S
H1822 C1852 0.950 . S
H1823 C1853 0.950 . S
C1824 H1806 0.951 . S
C1824 C1825 1.366 . S
C1824 C1826 1.388 . S
C1825 C1824 1.366 . S
C1825 C1829 1.385 . S
C1826 H1807 0.951 . S
C1826 C1824 1.388 . S
C1826 C1827 1.366 . S
C1827 C1826 1.366 . S
C1827 C1828 1.414 . S
C1827 C1830 1.499 . S
C1828 H1808 0.950 . S
C1828 C1827 1.414 . S
C1828 C1829 1.374 . S
C1829 H1809 0.950 . S
C1829 C1825 1.385 . S
C1829 C1828 1.374 . S
C1830 C1827 1.499 . S
C1830 C1831 1.373 . S
C1830 C1832 1.389 . S
C1831 H1810 0.950 . S
C1831 C1830 1.373 . S
C1831 C1847 1.377 . S
C1832 C1830 1.389 . S
C1832 C1833 1.524 . S
C1832 C1846 1.377 . S
C1833 C1832 1.524 . S
C1833 C1834 1.397 . S
C1833 C1838 1.363 . S
C1834 H1811 0.950 . S
C1834 C1833 1.397 . S
C1834 C1835 1.334 . S
C1835 H1812 0.950 . S
C1835 C1834 1.334 . S
C1835 C1836 1.287 . S
C1836 C1835 1.287 . S
C1836 C1837 1.524 . S
C1836 H1855 0.913 . S
C1837 H1813 0.950 . S
C1837 C1836 1.524 . S
C1837 C1838 1.415 . S
C1838 H1814 0.950 . S
C1838 C1833 1.363 . S
C1838 C1837 1.415 . S
C1839 H1815 0.951 . S
C1839 C1840 1.366 . S
C1839 C1841 1.388 . S
C1840 C1839 1.366 . S
C1840 C1844 1.385 . S
C1841 H1816 0.951 . S
C1841 C1839 1.388 . S
C1841 C1842 1.366 . S
C1842 C1841 1.366 . S
C1842 C1843 1.414 . S
C1842 C1845 1.499 . S
C1843 H1817 0.950 . S
C1843 C1842 1.414 . S
C1843 C1844 1.374 . S
C1844 H1818 0.950 . S
C1844 C1840 1.385 . S
C1844 C1843 1.374 . S
C1845 C1842 1.499 . S
C1845 C1846 1.373 . S
C1845 C1847 1.389 . S
C1846 H1819 0.950 . S
C1846 C1832 1.377 . S
C1846 C1845 1.373 . S
C1847 C1831 1.377 . S
C1847 C1845 1.389 . S
C1847 C1848 1.524 . S
C1848 C1847 1.524 . S
C1848 C1849 1.397 . S
C1848 C1853 1.363 . S
C1849 H1820 0.950 . S
C1849 C1848 1.397 . S
C1849 C1850 1.334 . S
C1850 H1821 0.950 . S
C1850 C1849 1.334 . S
C1850 C1851 1.287 . S
C1851 C1850 1.287 . S
C1851 C1852 1.524 . S
C1851 H1854 0.999 . S
C1852 H1822 0.950 . S
C1852 C1851 1.524 . S
C1852 C1853 1.415 . S
C1853 H1823 0.950 . S
C1853 C1848 1.363 . S
C1853 C1852 1.415 . S
H1854 C1851 0.999 . S
H1855 C1836 0.913 . S
H1856 C1874 0.951 . S
H1857 C1876 0.951 . S
H1858 C1878 0.950 . S
H1859 C1879 0.950 . S
H1860 C1881 0.950 . S
H1861 C1884 0.950 . S
H1862 C1885 0.950 . S
H1863 C1887 0.950 . S
H1864 C1888 0.950 . S
H1865 C1889 0.951 . S
H1866 C1891 0.951 . S
H1867 C1893 0.950 . S
H1868 C1894 0.950 . S
H1869 C1896 0.950 . S
H1870 C1899 0.950 . S
H1871 C1900 0.950 1_554 S
H1872 C1902 0.950 . S
H1873 C1903 0.950 . S
C1874 H1856 0.951 . S
C1874 C1875 1.366 . S
C1874 C1876 1.388 . S
C1875 C1874 1.366 . S
C1875 C1879 1.385 . S
C1876 H1857 0.951 . S
C1876 C1874 1.388 . S
C1876 C1877 1.366 . S
C1877 C1876 1.366 . S
C1877 C1878 1.414 . S
C1877 C1880 1.499 . S
C1878 H1858 0.950 . S
C1878 C1877 1.414 . S
C1878 C1879 1.374 . S
C1879 H1859 0.950 . S
C1879 C1875 1.385 . S
C1879 C1878 1.374 . S
C1880 C1877 1.499 . S
C1880 C1881 1.373 . S
C1880 C1882 1.389 . S
C1881 H1860 0.950 . S
C1881 C1880 1.373 . S
C1881 C1897 1.377 . S
C1882 C1880 1.389 . S
C1882 C1883 1.524 . S
C1882 C1896 1.377 . S
C1883 C1882 1.524 . S
C1883 C1884 1.397 . S
C1883 C1888 1.363 . S
C1884 H1861 0.950 . S
C1884 C1883 1.397 . S
C1884 C1885 1.334 . S
C1885 H1862 0.950 . S
C1885 C1884 1.334 . S
C1885 C1886 1.287 . S
C1886 C1885 1.287 . S
C1886 C1887 1.524 . S
C1886 H1905 0.913 . S
C1887 H1863 0.950 . S
C1887 C1886 1.524 . S
C1887 C1888 1.415 . S
C1888 H1864 0.950 . S
C1888 C1883 1.363 . S
C1888 C1887 1.415 . S
C1889 H1865 0.951 . S
C1889 C1890 1.366 . S
C1889 C1891 1.388 . S
C1890 C1889 1.366 . S
C1890 C1894 1.385 . S
C1891 H1866 0.951 . S
C1891 C1889 1.388 . S
C1891 C1892 1.366 . S
C1892 C1891 1.366 . S
C1892 C1893 1.414 . S
C1892 C1895 1.499 . S
C1893 H1867 0.950 . S
C1893 C1892 1.414 . S
C1893 C1894 1.374 . S
C1894 H1868 0.950 . S
C1894 C1890 1.385 . S
C1894 C1893 1.374 . S
C1895 C1892 1.499 . S
C1895 C1896 1.373 . S
C1895 C1897 1.389 . S
C1896 H1869 0.950 . S
C1896 C1882 1.377 . S
C1896 C1895 1.373 . S
C1897 C1881 1.377 . S
C1897 C1895 1.389 . S
C1897 C1898 1.524 . S
C1898 C1897 1.524 . S
C1898 C1899 1.397 . S
C1898 C1903 1.363 . S
C1899 H1870 0.950 . S
C1899 C1898 1.397 . S
C1899 C1900 1.334 . S
C1900 H1871 0.950 1_556 S
C1900 C1899 1.334 . S
C1900 C1901 1.287 . S
C1901 C1900 1.287 . S
C1901 C1902 1.524 . S
C1901 H1904 0.999 1_556 S
C1902 H1872 0.950 . S
C1902 C1901 1.524 . S
C1902 C1903 1.415 . S
C1903 H1873 0.950 . S
C1903 C1898 1.363 . S
C1903 C1902 1.415 . S
H1904 C1901 0.999 1_554 S
H1905 C1886 0.913 . S
H1906 C1924 0.951 . S
H1907 C1926 0.951 . S
H1908 C1928 0.950 . S
H1909 C1929 0.950 . S
H1910 C1931 0.950 . S
H1911 C1934 0.950 . S
H1912 C1935 0.950 . S
H1913 C1937 0.950 . S
H1914 C1938 0.950 . S
H1915 C1939 0.951 . S
H1916 C1941 0.951 . S
H1917 C1943 0.950 . S
H1918 C1944 0.950 . S
H1919 C1946 0.950 . S
H1920 C1949 0.950 . S
H1921 C1950 0.950 . S
H1922 C1952 0.950 . S
H1923 C1953 0.950 . S
C1924 H1906 0.951 . S
C1924 C1925 1.366 . S
C1924 C1926 1.388 . S
C1925 C1924 1.366 . S
C1925 C1929 1.385 . S
C1926 H1907 0.951 . S
C1926 C1924 1.388 . S
C1926 C1927 1.366 . S
C1927 C1926 1.366 . S
C1927 C1928 1.414 . S
C1927 C1930 1.499 . S
C1928 H1908 0.950 . S
C1928 C1927 1.414 . S
C1928 C1929 1.374 . S
C1929 H1909 0.950 . S
C1929 C1925 1.385 . S
C1929 C1928 1.374 . S
C1930 C1927 1.499 . S
C1930 C1931 1.373 . S
C1930 C1932 1.389 . S
C1931 H1910 0.950 . S
C1931 C1930 1.373 . S
C1931 C1947 1.377 . S
C1932 C1930 1.389 . S
C1932 C1933 1.524 . S
C1932 C1946 1.377 . S
C1933 C1932 1.524 . S
C1933 C1934 1.397 . S
C1933 C1938 1.363 . S
C1934 H1911 0.950 . S
C1934 C1933 1.397 . S
C1934 C1935 1.334 . S
C1935 H1912 0.950 . S
C1935 C1934 1.334 . S
C1935 C1936 1.287 . S
C1936 C1935 1.287 . S
C1936 C1937 1.524 . S
C1936 H1955 0.913 . S
C1937 H1913 0.950 . S
C1937 C1936 1.524 . S
C1937 C1938 1.415 . S
C1938 H1914 0.950 . S
C1938 C1933 1.363 . S
C1938 C1937 1.415 . S
C1939 H1915 0.951 . S
C1939 C1940 1.366 . S
C1939 C1941 1.388 . S
C1940 C1939 1.366 . S
C1940 C1944 1.385 . S
C1941 H1916 0.951 . S
C1941 C1939 1.388 . S
C1941 C1942 1.366 . S
C1942 C1941 1.366 . S
C1942 C1943 1.414 . S
C1942 C1945 1.499 . S
C1943 H1917 0.950 . S
C1943 C1942 1.414 . S
C1943 C1944 1.374 . S
C1944 H1918 0.950 . S
C1944 C1940 1.385 . S
C1944 C1943 1.374 . S
C1945 C1942 1.499 . S
C1945 C1946 1.373 . S
C1945 C1947 1.389 . S
C1946 H1919 0.950 . S
C1946 C1932 1.377 . S
C1946 C1945 1.373 . S
C1947 C1931 1.377 . S
C1947 C1945 1.389 . S
C1947 C1948 1.524 . S
C1948 C1947 1.524 . S
C1948 C1949 1.397 . S
C1948 C1953 1.363 . S
C1949 H1920 0.950 . S
C1949 C1948 1.397 . S
C1949 C1950 1.334 . S
C1950 H1921 0.950 . S
C1950 C1949 1.334 . S
C1950 C1951 1.287 . S
C1951 C1950 1.287 . S
C1951 C1952 1.524 . S
C1951 H1954 0.999 . S
C1952 H1922 0.950 . S
C1952 C1951 1.524 . S
C1952 C1953 1.415 . S
C1953 H1923 0.950 . S
C1953 C1948 1.363 . S
C1953 C1952 1.415 . S
H1954 C1951 0.999 . S
H1955 C1936 0.913 . S
H1956 C1974 0.951 . S
H1957 C1976 0.951 . S
H1958 C1978 0.950 . S
H1959 C1979 0.950 . S
H1960 C1981 0.950 . S
H1961 C1984 0.950 . S
H1962 C1985 0.950 . S
H1963 C1987 0.950 . S
H1964 C1988 0.950 . S
H1965 C1989 0.951 . S
H1966 C1991 0.951 . S
H1967 C1993 0.950 . S
H1968 C1994 0.950 . S
H1969 C1996 0.950 . S
H1970 C1999 0.950 . S
H1971 C2000 0.950 . S
H1972 C2002 0.950 . S
H1973 C2003 0.950 . S
C1974 H1956 0.951 . S
C1974 C1975 1.366 . S
C1974 C1976 1.388 . S
C1975 C1974 1.366 . S
C1975 C1979 1.385 . S
C1976 H1957 0.951 . S
C1976 C1974 1.388 . S
C1976 C1977 1.366 . S
C1977 C1976 1.366 . S
C1977 C1978 1.414 . S
C1977 C1980 1.499 . S
C1978 H1958 0.950 . S
C1978 C1977 1.414 . S
C1978 C1979 1.374 . S
C1979 H1959 0.950 . S
C1979 C1975 1.385 . S
C1979 C1978 1.374 . S
C1980 C1977 1.499 . S
C1980 C1981 1.373 . S
C1980 C1982 1.389 . S
C1981 H1960 0.950 . S
C1981 C1980 1.373 . S
C1981 C1997 1.377 . S
C1982 C1980 1.389 . S
C1982 C1983 1.524 . S
C1982 C1996 1.377 . S
C1983 C1982 1.524 . S
C1983 C1984 1.397 . S
C1983 C1988 1.363 . S
C1984 H1961 0.950 . S
C1984 C1983 1.397 . S
C1984 C1985 1.334 . S
C1985 H1962 0.950 . S
C1985 C1984 1.334 . S
C1985 C1986 1.287 . S
C1986 C1985 1.287 . S
C1986 C1987 1.524 . S
C1986 H2005 0.913 . S
C1987 H1963 0.950 . S
C1987 C1986 1.524 . S
C1987 C1988 1.415 . S
C1988 H1964 0.950 . S
C1988 C1983 1.363 . S
C1988 C1987 1.415 . S
C1989 H1965 0.951 . S
C1989 C1990 1.366 . S
C1989 C1991 1.388 . S
C1990 C1989 1.366 . S
C1990 C1994 1.385 . S
C1991 H1966 0.951 . S
C1991 C1989 1.388 . S
C1991 C1992 1.366 . S
C1992 C1991 1.366 . S
C1992 C1993 1.414 . S
C1992 C1995 1.499 . S
C1993 H1967 0.950 . S
C1993 C1992 1.414 . S
C1993 C1994 1.374 . S
C1994 H1968 0.950 . S
C1994 C1990 1.385 . S
C1994 C1993 1.374 . S
C1995 C1992 1.499 . S
C1995 C1996 1.373 . S
C1995 C1997 1.389 . S
C1996 H1969 0.950 . S
C1996 C1982 1.377 . S
C1996 C1995 1.373 . S
C1997 C1981 1.377 . S
C1997 C1995 1.389 . S
C1997 C1998 1.524 . S
C1998 C1997 1.524 . S
C1998 C1999 1.397 . S
C1998 C2003 1.363 . S
C1999 H1970 0.950 . S
C1999 C1998 1.397 . S
C1999 C2000 1.334 . S
C2000 H1971 0.950 . S
C2000 C1999 1.334 . S
C2000 C2001 1.287 . S
C2001 C2000 1.287 . S
C2001 C2002 1.524 . S
C2001 H2004 0.999 . S
C2002 H1972 0.950 . S
C2002 C2001 1.524 . S
C2002 C2003 1.415 . S
C2003 H1973 0.950 . S
C2003 C1998 1.363 . S
C2003 C2002 1.415 . S
H2004 C2001 0.999 . S
H2005 C1986 0.913 . S
H2006 C2024 0.951 . S
H2007 C2026 0.951 . S
H2008 C2028 0.950 . S
H2009 C2029 0.950 . S
H2010 C2031 0.950 . S
H2011 C2034 0.950 . S
H2012 C2035 0.950 . S
H2013 C2037 0.950 . S
H2014 C2038 0.950 . S
H2015 C2039 0.951 . S
H2016 C2041 0.951 . S
H2017 C2043 0.950 . S
H2018 C2044 0.950 . S
H2019 C2046 0.950 . S
H2020 C2049 0.950 . S
H2021 C2050 0.950 . S
H2022 C2052 0.950 1_556 S
H2023 C2053 0.950 . S
C2024 H2006 0.951 . S
C2024 C2025 1.366 . S
C2024 C2026 1.388 . S
C2025 C2024 1.366 . S
C2025 C2029 1.385 . S
C2026 H2007 0.951 . S
C2026 C2024 1.388 . S
C2026 C2027 1.366 . S
C2027 C2026 1.366 . S
C2027 C2028 1.414 . S
C2027 C2030 1.499 . S
C2028 H2008 0.950 . S
C2028 C2027 1.414 . S
C2028 C2029 1.374 . S
C2029 H2009 0.950 . S
C2029 C2025 1.385 . S
C2029 C2028 1.374 . S
C2030 C2027 1.499 . S
C2030 C2031 1.373 . S
C2030 C2032 1.389 . S
C2031 H2010 0.950 . S
C2031 C2030 1.373 . S
C2031 C2047 1.377 . S
C2032 C2030 1.389 . S
C2032 C2033 1.524 . S
C2032 C2046 1.377 . S
C2033 C2032 1.524 . S
C2033 C2034 1.397 . S
C2033 C2038 1.363 . S
C2034 H2011 0.950 . S
C2034 C2033 1.397 . S
C2034 C2035 1.334 . S
C2035 H2012 0.950 . S
C2035 C2034 1.334 . S
C2035 C2036 1.287 . S
C2036 C2035 1.287 . S
C2036 C2037 1.524 . S
C2036 H2055 0.913 . S
C2037 H2013 0.950 . S
C2037 C2036 1.524 . S
C2037 C2038 1.415 . S
C2038 H2014 0.950 . S
C2038 C2033 1.363 . S
C2038 C2037 1.415 . S
C2039 H2015 0.951 . S
C2039 C2040 1.366 . S
C2039 C2041 1.388 . S
C2040 C2039 1.366 . S
C2040 C2044 1.385 . S
C2041 H2016 0.951 . S
C2041 C2039 1.388 . S
C2041 C2042 1.366 . S
C2042 C2041 1.366 . S
C2042 C2043 1.414 . S
C2042 C2045 1.499 . S
C2043 H2017 0.950 . S
C2043 C2042 1.414 . S
C2043 C2044 1.374 . S
C2044 H2018 0.950 . S
C2044 C2040 1.385 . S
C2044 C2043 1.374 . S
C2045 C2042 1.499 . S
C2045 C2046 1.373 . S
C2045 C2047 1.389 . S
C2046 H2019 0.950 . S
C2046 C2032 1.377 . S
C2046 C2045 1.373 . S
C2047 C2031 1.377 . S
C2047 C2045 1.389 . S
C2047 C2048 1.524 . S
C2048 C2047 1.524 . S
C2048 C2049 1.397 . S
C2048 C2053 1.363 . S
C2049 H2020 0.950 . S
C2049 C2048 1.397 . S
C2049 C2050 1.334 . S
C2050 H2021 0.950 . S
C2050 C2049 1.334 . S
C2050 C2051 1.270 1_554 S
C2051 C2050 1.270 1_556 S
C2051 C2052 1.522 1_556 S
C2051 H2054 1.022 . S
C2052 H2022 0.950 1_554 S
C2052 C2051 1.522 1_554 S
C2052 C2053 1.415 . S
C2053 H2023 0.950 . S
C2053 C2048 1.363 . S
C2053 C2052 1.415 . S
H2054 C2051 1.022 . S
H2055 C2036 0.913 . S
H2056 C2074 0.951 . S
H2057 C2076 0.951 . S
H2058 C2078 0.950 . S
H2059 C2079 0.950 . S
H2060 C2081 0.950 . S
H2061 C2084 0.950 . S
H2062 C2085 0.950 . S
H2063 C2087 0.950 . S
H2064 C2088 0.950 . S
H2065 C2089 0.951 . S
H2066 C2091 0.951 . S
H2067 C2093 0.950 . S
H2068 C2094 0.950 . S
H2069 C2096 0.950 . S
H2070 C2099 0.950 . S
H2071 C2100 0.950 . S
H2072 C2102 0.950 . S
H2073 C2103 0.950 . S
C2074 H2056 0.951 . S
C2074 C2075 1.366 . S
C2074 C2076 1.388 . S
C2075 C2074 1.366 . S
C2075 C2079 1.385 . S
C2076 H2057 0.951 . S
C2076 C2074 1.388 . S
C2076 C2077 1.366 . S
C2077 C2076 1.366 . S
C2077 C2078 1.414 . S
C2077 C2080 1.499 . S
C2078 H2058 0.950 . S
C2078 C2077 1.414 . S
C2078 C2079 1.374 . S
C2079 H2059 0.950 . S
C2079 C2075 1.385 . S
C2079 C2078 1.374 . S
C2080 C2077 1.499 . S
C2080 C2081 1.373 . S
C2080 C2082 1.389 . S
C2081 H2060 0.950 . S
C2081 C2080 1.373 . S
C2081 C2097 1.377 . S
C2082 C2080 1.389 . S
C2082 C2083 1.524 . S
C2082 C2096 1.377 . S
C2083 C2082 1.524 . S
C2083 C2084 1.397 . S
C2083 C2088 1.363 . S
C2084 H2061 0.950 . S
C2084 C2083 1.397 . S
C2084 C2085 1.334 . S
C2085 H2062 0.950 . S
C2085 C2084 1.334 . S
C2085 C2086 1.287 . S
C2086 C2085 1.287 . S
C2086 C2087 1.524 . S
C2086 H2105 0.913 . S
C2087 H2063 0.950 . S
C2087 C2086 1.524 . S
C2087 C2088 1.415 . S
C2088 H2064 0.950 . S
C2088 C2083 1.363 . S
C2088 C2087 1.415 . S
C2089 H2065 0.951 . S
C2089 C2090 1.366 . S
C2089 C2091 1.388 . S
C2090 C2089 1.366 . S
C2090 C2094 1.385 . S
C2091 H2066 0.951 . S
C2091 C2089 1.388 . S
C2091 C2092 1.366 . S
C2092 C2091 1.366 . S
C2092 C2093 1.414 . S
C2092 C2095 1.499 . S
C2093 H2067 0.950 . S
C2093 C2092 1.414 . S
C2093 C2094 1.374 . S
C2094 H2068 0.950 . S
C2094 C2090 1.385 . S
C2094 C2093 1.374 . S
C2095 C2092 1.499 . S
C2095 C2096 1.373 . S
C2095 C2097 1.389 . S
C2096 H2069 0.950 . S
C2096 C2082 1.377 . S
C2096 C2095 1.373 . S
C2097 C2081 1.377 . S
C2097 C2095 1.389 . S
C2097 C2098 1.524 . S
C2098 C2097 1.524 . S
C2098 C2099 1.397 . S
C2098 C2103 1.363 . S
C2099 H2070 0.950 . S
C2099 C2098 1.397 . S
C2099 C2100 1.334 . S
C2100 H2071 0.950 . S
C2100 C2099 1.334 . S
C2100 C2101 1.287 . S
C2101 C2100 1.287 . S
C2101 C2102 1.524 . S
C2101 H2104 0.999 . S
C2102 H2072 0.950 . S
C2102 C2101 1.524 . S
C2102 C2103 1.415 . S
C2103 H2073 0.950 . S
C2103 C2098 1.363 . S
C2103 C2102 1.415 . S
H2104 C2101 0.999 . S
H2105 C2086 0.913 . S
H2106 C2124 0.951 . S
H2107 C2126 0.951 . S
H2108 C2128 0.950 . S
H2109 C2129 0.950 . S
H2110 C2131 0.950 . S
H2111 C2134 0.950 . S
H2112 C2135 0.950 . S
H2113 C2137 0.950 . S
H2114 C2138 0.950 . S
H2115 C2139 0.951 . S
H2116 C2141 0.951 . S
H2117 C2143 0.950 . S
H2118 C2144 0.950 . S
H2119 C2146 0.950 . S
H2120 C2149 0.950 . S
H2121 C2150 0.950 . S
H2122 C2152 0.950 . S
H2123 C2153 0.950 . S
C2124 H2106 0.951 . S
C2124 C2125 1.366 . S
C2124 C2126 1.388 . S
C2125 C2124 1.366 . S
C2125 C2129 1.385 . S
C2126 H2107 0.951 . S
C2126 C2124 1.388 . S
C2126 C2127 1.366 . S
C2127 C2126 1.366 . S
C2127 C2128 1.414 . S
C2127 C2130 1.499 . S
C2128 H2108 0.950 . S
C2128 C2127 1.414 . S
C2128 C2129 1.374 . S
C2129 H2109 0.950 . S
C2129 C2125 1.385 . S
C2129 C2128 1.374 . S
C2130 C2127 1.499 . S
C2130 C2131 1.373 . S
C2130 C2132 1.389 . S
C2131 H2110 0.950 . S
C2131 C2130 1.373 . S
C2131 C2147 1.377 . S
C2132 C2130 1.389 . S
C2132 C2133 1.524 . S
C2132 C2146 1.377 . S
C2133 C2132 1.524 . S
C2133 C2134 1.397 . S
C2133 C2138 1.363 . S
C2134 H2111 0.950 . S
C2134 C2133 1.397 . S
C2134 C2135 1.334 . S
C2135 H2112 0.950 . S
C2135 C2134 1.334 . S
C2135 C2136 1.287 . S
C2136 C2135 1.287 . S
C2136 C2137 1.524 . S
C2136 H2155 0.913 . S
C2137 H2113 0.950 . S
C2137 C2136 1.524 . S
C2137 C2138 1.415 . S
C2138 H2114 0.950 . S
C2138 C2133 1.363 . S
C2138 C2137 1.415 . S
C2139 H2115 0.951 . S
C2139 C2140 1.366 . S
C2139 C2141 1.388 . S
C2140 C2139 1.366 . S
C2140 C2144 1.385 . S
C2141 H2116 0.951 . S
C2141 C2139 1.388 . S
C2141 C2142 1.366 . S
C2142 C2141 1.366 . S
C2142 C2143 1.414 . S
C2142 C2145 1.499 . S
C2143 H2117 0.950 . S
C2143 C2142 1.414 . S
C2143 C2144 1.374 . S
C2144 H2118 0.950 . S
C2144 C2140 1.385 . S
C2144 C2143 1.374 . S
C2145 C2142 1.499 . S
C2145 C2146 1.373 . S
C2145 C2147 1.389 . S
C2146 H2119 0.950 . S
C2146 C2132 1.377 . S
C2146 C2145 1.373 . S
C2147 C2131 1.377 . S
C2147 C2145 1.389 . S
C2147 C2148 1.524 . S
C2148 C2147 1.524 . S
C2148 C2149 1.397 . S
C2148 C2153 1.363 . S
C2149 H2120 0.950 . S
C2149 C2148 1.397 . S
C2149 C2150 1.334 . S
C2150 H2121 0.950 . S
C2150 C2149 1.334 . S
C2150 C2151 1.287 . S
C2151 C2150 1.287 . S
C2151 C2152 1.524 . S
C2151 H2154 0.999 . S
C2152 H2122 0.950 . S
C2152 C2151 1.524 . S
C2152 C2153 1.415 . S
C2153 H2123 0.950 . S
C2153 C2148 1.363 . S
C2153 C2152 1.415 . S
H2154 C2151 0.999 . S
H2155 C2136 0.913 . S
H2156 C2174 0.951 . S
H2157 C2176 0.951 . S
H2158 C2178 0.950 . S
H2159 C2179 0.950 . S
H2160 C2181 0.950 . S
H2161 C2184 0.950 . S
H2162 C2185 0.950 . S
H2163 C2187 0.950 . S
H2164 C2188 0.950 . S
H2165 C2189 0.951 . S
H2166 C2191 0.951 . S
H2167 C2193 0.950 . S
H2168 C2194 0.950 . S
H2169 C2196 0.950 . S
H2170 C2199 0.950 . S
H2171 C2200 0.950 . S
H2172 C2202 0.950 . S
H2173 C2203 0.950 . S
C2174 H2156 0.951 . S
C2174 C2175 1.366 . S
C2174 C2176 1.388 . S
C2175 C2174 1.366 . S
C2175 C2179 1.385 . S
C2176 H2157 0.951 . S
C2176 C2174 1.388 . S
C2176 C2177 1.366 . S
C2177 C2176 1.366 . S
C2177 C2178 1.414 . S
C2177 C2180 1.499 . S
C2178 H2158 0.950 . S
C2178 C2177 1.414 . S
C2178 C2179 1.374 . S
C2179 H2159 0.950 . S
C2179 C2175 1.385 . S
C2179 C2178 1.374 . S
C2180 C2177 1.499 . S
C2180 C2181 1.373 . S
C2180 C2182 1.389 . S
C2181 H2160 0.950 . S
C2181 C2180 1.373 . S
C2181 C2197 1.377 . S
C2182 C2180 1.389 . S
C2182 C2183 1.524 . S
C2182 C2196 1.377 . S
C2183 C2182 1.524 . S
C2183 C2184 1.397 . S
C2183 C2188 1.363 . S
C2184 H2161 0.950 . S
C2184 C2183 1.397 . S
C2184 C2185 1.334 . S
C2185 H2162 0.950 . S
C2185 C2184 1.334 . S
C2185 C2186 1.287 . S
C2186 C2185 1.287 . S
C2186 C2187 1.524 . S
C2186 H2205 0.913 . S
C2187 H2163 0.950 . S
C2187 C2186 1.524 . S
C2187 C2188 1.415 . S
C2188 H2164 0.950 . S
C2188 C2183 1.363 . S
C2188 C2187 1.415 . S
C2189 H2165 0.951 . S
C2189 C2190 1.366 . S
C2189 C2191 1.388 . S
C2190 C2189 1.366 . S
C2190 C2194 1.385 . S
C2191 H2166 0.951 . S
C2191 C2189 1.388 . S
C2191 C2192 1.366 . S
C2192 C2191 1.366 . S
C2192 C2193 1.414 . S
C2192 C2195 1.499 . S
C2193 H2167 0.950 . S
C2193 C2192 1.414 . S
C2193 C2194 1.374 . S
C2194 H2168 0.950 . S
C2194 C2190 1.385 . S
C2194 C2193 1.374 . S
C2195 C2192 1.499 . S
C2195 C2196 1.373 . S
C2195 C2197 1.389 . S
C2196 H2169 0.950 . S
C2196 C2182 1.377 . S
C2196 C2195 1.373 . S
C2197 C2181 1.377 . S
C2197 C2195 1.389 . S
C2197 C2198 1.524 . S
C2198 C2197 1.524 . S
C2198 C2199 1.397 . S
C2198 C2203 1.363 . S
C2199 H2170 0.950 . S
C2199 C2198 1.397 . S
C2199 C2200 1.334 . S
C2200 H2171 0.950 . S
C2200 C2199 1.334 . S
C2200 C2201 1.287 . S
C2201 C2200 1.287 . S
C2201 C2202 1.524 . S
C2201 H2204 0.999 . S
C2202 H2172 0.950 . S
C2202 C2201 1.524 . S
C2202 C2203 1.415 . S
C2203 H2173 0.950 . S
C2203 C2198 1.363 . S
C2203 C2202 1.415 . S
H2204 C2201 0.999 . S
H2205 C2186 0.913 . S
H2206 C2224 0.951 . S
H2207 C2226 0.951 . S
H2208 C2228 0.950 . S
H2209 C2229 0.950 . S
H2210 C2231 0.950 . S
H2211 C2234 0.950 . S
H2212 C2235 0.950 . S
H2213 C2237 0.950 . S
H2214 C2238 0.950 . S
H2215 C2239 0.951 . S
H2216 C2241 0.951 . S
H2217 C2243 0.950 . S
H2218 C2244 0.950 . S
H2219 C2246 0.950 . S
H2220 C2249 0.950 . S
H2221 C2250 0.950 . S
H2222 C2252 0.950 . S
H2223 C2253 0.950 . S
C2224 H2206 0.951 . S
C2224 C2225 1.366 . S
C2224 C2226 1.388 . S
C2225 C2224 1.366 . S
C2225 C2229 1.385 . S
C2226 H2207 0.951 . S
C2226 C2224 1.388 . S
C2226 C2227 1.366 . S
C2227 C2226 1.366 . S
C2227 C2228 1.414 . S
C2227 C2230 1.499 . S
C2228 H2208 0.950 . S
C2228 C2227 1.414 . S
C2228 C2229 1.374 . S
C2229 H2209 0.950 . S
C2229 C2225 1.385 . S
C2229 C2228 1.374 . S
C2230 C2227 1.499 . S
C2230 C2231 1.373 . S
C2230 C2232 1.389 . S
C2231 H2210 0.950 . S
C2231 C2230 1.373 . S
C2231 C2247 1.377 . S
C2232 C2230 1.389 . S
C2232 C2233 1.524 . S
C2232 C2246 1.377 . S
C2233 C2232 1.524 . S
C2233 C2234 1.397 . S
C2233 C2238 1.363 . S
C2234 H2211 0.950 . S
C2234 C2233 1.397 . S
C2234 C2235 1.334 . S
C2235 H2212 0.950 . S
C2235 C2234 1.334 . S
C2235 C2236 1.287 . S
C2236 C2235 1.287 . S
C2236 C2237 1.524 . S
C2236 H2255 0.913 . S
C2237 H2213 0.950 . S
C2237 C2236 1.524 . S
C2237 C2238 1.415 . S
C2238 H2214 0.950 . S
C2238 C2233 1.363 . S
C2238 C2237 1.415 . S
C2239 H2215 0.951 . S
C2239 C2240 1.366 . S
C2239 C2241 1.388 . S
C2240 C2239 1.366 . S
C2240 C2244 1.385 . S
C2241 H2216 0.951 . S
C2241 C2239 1.388 . S
C2241 C2242 1.366 . S
C2242 C2241 1.366 . S
C2242 C2243 1.414 . S
C2242 C2245 1.499 . S
C2243 H2217 0.950 . S
C2243 C2242 1.414 . S
C2243 C2244 1.374 . S
C2244 H2218 0.950 . S
C2244 C2240 1.385 . S
C2244 C2243 1.374 . S
C2245 C2242 1.499 . S
C2245 C2246 1.373 . S
C2245 C2247 1.389 . S
C2246 H2219 0.950 . S
C2246 C2232 1.377 . S
C2246 C2245 1.373 . S
C2247 C2231 1.377 . S
C2247 C2245 1.389 . S
C2247 C2248 1.524 . S
C2248 C2247 1.524 . S
C2248 C2249 1.397 . S
C2248 C2253 1.363 . S
C2249 H2220 0.950 . S
C2249 C2248 1.397 . S
C2249 C2250 1.334 . S
C2250 H2221 0.950 . S
C2250 C2249 1.334 . S
C2250 C2251 1.287 . S
C2251 C2250 1.287 . S
C2251 C2252 1.524 . S
C2251 H2254 0.999 . S
C2252 H2222 0.950 . S
C2252 C2251 1.524 . S
C2252 C2253 1.415 . S
C2253 H2223 0.950 . S
C2253 C2248 1.363 . S
C2253 C2252 1.415 . S
H2254 C2251 0.999 . S
H2255 C2236 0.913 . S
H2256 C2274 0.951 . S
H2257 C2276 0.951 . S
H2258 C2278 0.950 . S
H2259 C2279 0.950 . S
H2260 C2281 0.950 . S
H2261 C2284 0.950 . S
H2262 C2285 0.950 . S
H2263 C2287 0.950 . S
H2264 C2288 0.950 . S
H2265 C2289 0.951 . S
H2266 C2291 0.951 . S
H2267 C2293 0.950 . S
H2268 C2294 0.950 . S
H2269 C2296 0.950 . S
H2270 C2299 0.950 . S
H2271 C2300 0.950 . S
H2272 C2302 0.950 . S
H2273 C2303 0.950 . S
C2274 H2256 0.951 . S
C2274 C2275 1.366 . S
C2274 C2276 1.388 . S
C2275 C2274 1.366 . S
C2275 C2279 1.385 . S
C2276 H2257 0.951 . S
C2276 C2274 1.388 . S
C2276 C2277 1.366 . S
C2277 C2276 1.366 . S
C2277 C2278 1.414 . S
C2277 C2280 1.499 . S
C2278 H2258 0.950 . S
C2278 C2277 1.414 . S
C2278 C2279 1.374 . S
C2279 H2259 0.950 . S
C2279 C2275 1.385 . S
C2279 C2278 1.374 . S
C2280 C2277 1.499 . S
C2280 C2281 1.373 . S
C2280 C2282 1.389 . S
C2281 H2260 0.950 . S
C2281 C2280 1.373 . S
C2281 C2297 1.377 . S
C2282 C2280 1.389 . S
C2282 C2283 1.524 . S
C2282 C2296 1.377 . S
C2283 C2282 1.524 . S
C2283 C2284 1.397 . S
C2283 C2288 1.363 . S
C2284 H2261 0.950 . S
C2284 C2283 1.397 . S
C2284 C2285 1.334 . S
C2285 H2262 0.950 . S
C2285 C2284 1.334 . S
C2285 C2286 1.287 . S
C2286 C2285 1.287 . S
C2286 C2287 1.524 . S
C2286 H2305 0.913 . S
C2287 H2263 0.950 . S
C2287 C2286 1.524 . S
C2287 C2288 1.415 . S
C2288 H2264 0.950 . S
C2288 C2283 1.363 . S
C2288 C2287 1.415 . S
C2289 H2265 0.951 . S
C2289 C2290 1.366 . S
C2289 C2291 1.388 . S
C2290 C2289 1.366 . S
C2290 C2294 1.385 . S
C2291 H2266 0.951 . S
C2291 C2289 1.388 . S
C2291 C2292 1.366 . S
C2292 C2291 1.366 . S
C2292 C2293 1.414 . S
C2292 C2295 1.499 . S
C2293 H2267 0.950 . S
C2293 C2292 1.414 . S
C2293 C2294 1.374 . S
C2294 H2268 0.950 . S
C2294 C2290 1.385 . S
C2294 C2293 1.374 . S
C2295 C2292 1.499 . S
C2295 C2296 1.373 . S
C2295 C2297 1.389 . S
C2296 H2269 0.950 . S
C2296 C2282 1.377 . S
C2296 C2295 1.373 . S
C2297 C2281 1.377 . S
C2297 C2295 1.389 . S
C2297 C2298 1.524 . S
C2298 C2297 1.524 . S
C2298 C2299 1.397 . S
C2298 C2303 1.363 . S
C2299 H2270 0.950 . S
C2299 C2298 1.397 . S
C2299 C2300 1.334 . S
C2300 H2271 0.950 . S
C2300 C2299 1.334 . S
C2300 C2301 1.287 . S
C2301 C2300 1.287 . S
C2301 C2302 1.524 . S
C2301 H2304 0.999 . S
C2302 H2272 0.950 . S
C2302 C2301 1.524 . S
C2302 C2303 1.415 . S
C2303 H2273 0.950 . S
C2303 C2298 1.363 . S
C2303 C2302 1.415 . S
H2304 C2301 0.999 . S
H2305 C2286 0.913 . S
H2306 C2324 0.951 . S
H2307 C2326 0.951 . S
H2308 C2328 0.950 . S
H2309 C2329 0.950 . S
H2310 C2331 0.950 . S
H2311 C2334 0.950 . S
H2312 C2335 0.950 . S
H2313 C2337 0.950 . S
H2314 C2338 0.950 . S
H2315 C2339 0.951 . S
H2316 C2341 0.951 . S
H2317 C2343 0.950 . S
H2318 C2344 0.950 . S
H2319 C2346 0.950 . S
H2320 C2349 0.950 . S
H2321 C2350 0.950 . S
H2322 C2352 0.950 . S
H2323 C2353 0.950 . S
C2324 H2306 0.951 . S
C2324 C2325 1.366 . S
C2324 C2326 1.388 . S
C2325 C2324 1.366 . S
C2325 C2329 1.385 . S
C2326 H2307 0.951 . S
C2326 C2324 1.388 . S
C2326 C2327 1.366 . S
C2327 C2326 1.366 . S
C2327 C2328 1.414 . S
C2327 C2330 1.499 . S
C2328 H2308 0.950 . S
C2328 C2327 1.414 . S
C2328 C2329 1.374 . S
C2329 H2309 0.950 . S
C2329 C2325 1.385 . S
C2329 C2328 1.374 . S
C2330 C2327 1.499 . S
C2330 C2331 1.373 . S
C2330 C2332 1.389 . S
C2331 H2310 0.950 . S
C2331 C2330 1.373 . S
C2331 C2347 1.377 . S
C2332 C2330 1.389 . S
C2332 C2333 1.524 . S
C2332 C2346 1.377 . S
C2333 C2332 1.524 . S
C2333 C2334 1.397 . S
C2333 C2338 1.363 . S
C2334 H2311 0.950 . S
C2334 C2333 1.397 . S
C2334 C2335 1.334 . S
C2335 H2312 0.950 . S
C2335 C2334 1.334 . S
C2335 C2336 1.287 . S
C2336 C2335 1.287 . S
C2336 C2337 1.524 . S
C2336 H2355 0.913 . S
C2337 H2313 0.950 . S
C2337 C2336 1.524 . S
C2337 C2338 1.415 . S
C2338 H2314 0.950 . S
C2338 C2333 1.363 . S
C2338 C2337 1.415 . S
C2339 H2315 0.951 . S
C2339 C2340 1.366 . S
C2339 C2341 1.388 . S
C2340 C2339 1.366 . S
C2340 C2344 1.385 . S
C2341 H2316 0.951 . S
C2341 C2339 1.388 . S
C2341 C2342 1.366 . S
C2342 C2341 1.366 . S
C2342 C2343 1.414 . S
C2342 C2345 1.499 . S
C2343 H2317 0.950 . S
C2343 C2342 1.414 . S
C2343 C2344 1.374 . S
C2344 H2318 0.950 . S
C2344 C2340 1.385 . S
C2344 C2343 1.374 . S
C2345 C2342 1.499 . S
C2345 C2346 1.373 . S
C2345 C2347 1.389 . S
C2346 H2319 0.950 . S
C2346 C2332 1.377 . S
C2346 C2345 1.373 . S
C2347 C2331 1.377 . S
C2347 C2345 1.389 . S
C2347 C2348 1.524 . S
C2348 C2347 1.524 . S
C2348 C2349 1.397 . S
C2348 C2353 1.363 . S
C2349 H2320 0.950 . S
C2349 C2348 1.397 . S
C2349 C2350 1.334 . S
C2350 H2321 0.950 . S
C2350 C2349 1.334 . S
C2350 C2351 1.287 . S
C2351 C2350 1.287 . S
C2351 C2352 1.524 . S
C2351 H2354 0.999 . S
C2352 H2322 0.950 . S
C2352 C2351 1.524 . S
C2352 C2353 1.415 . S
C2353 H2323 0.950 . S
C2353 C2348 1.363 . S
C2353 C2352 1.415 . S
H2354 C2351 0.999 . S
H2355 C2336 0.913 . S
H2356 C2374 0.951 . S
H2357 C2376 0.951 . S
H2358 C2378 0.950 . S
H2359 C2379 0.950 . S
H2360 C2381 0.950 . S
H2361 C2384 0.950 . S
H2362 C2385 0.950 . S
H2363 C2387 0.950 . S
H2364 C2388 0.950 . S
H2365 C2389 0.951 . S
H2366 C2391 0.951 . S
H2367 C2393 0.950 . S
H2368 C2394 0.950 . S
H2369 C2396 0.950 . S
H2370 C2399 0.950 . S
H2371 C2400 0.950 . S
H2372 C2402 0.950 . S
H2373 C2403 0.950 . S
C2374 H2356 0.951 . S
C2374 C2375 1.366 . S
C2374 C2376 1.388 . S
C2375 C2374 1.366 . S
C2375 C2379 1.385 . S
C2376 H2357 0.951 . S
C2376 C2374 1.388 . S
C2376 C2377 1.366 . S
C2377 C2376 1.366 . S
C2377 C2378 1.414 . S
C2377 C2380 1.499 . S
C2378 H2358 0.950 . S
C2378 C2377 1.414 . S
C2378 C2379 1.374 . S
C2379 H2359 0.950 . S
C2379 C2375 1.385 . S
C2379 C2378 1.374 . S
C2380 C2377 1.499 . S
C2380 C2381 1.373 . S
C2380 C2382 1.389 . S
C2381 H2360 0.950 . S
C2381 C2380 1.373 . S
C2381 C2397 1.377 . S
C2382 C2380 1.389 . S
C2382 C2383 1.524 . S
C2382 C2396 1.377 . S
C2383 C2382 1.524 . S
C2383 C2384 1.397 . S
C2383 C2388 1.363 . S
C2384 H2361 0.950 . S
C2384 C2383 1.397 . S
C2384 C2385 1.334 . S
C2385 H2362 0.950 . S
C2385 C2384 1.334 . S
C2385 C2386 1.287 . S
C2386 C2385 1.287 . S
C2386 C2387 1.524 . S
C2386 H2405 0.913 . S
C2387 H2363 0.950 . S
C2387 C2386 1.524 . S
C2387 C2388 1.415 . S
C2388 H2364 0.950 . S
C2388 C2383 1.363 . S
C2388 C2387 1.415 . S
C2389 H2365 0.951 . S
C2389 C2390 1.366 . S
C2389 C2391 1.388 . S
C2390 C2389 1.366 . S
C2390 C2394 1.385 . S
C2391 H2366 0.951 . S
C2391 C2389 1.388 . S
C2391 C2392 1.366 . S
C2392 C2391 1.366 . S
C2392 C2393 1.414 . S
C2392 C2395 1.499 . S
C2393 H2367 0.950 . S
C2393 C2392 1.414 . S
C2393 C2394 1.374 . S
C2394 H2368 0.950 . S
C2394 C2390 1.385 . S
C2394 C2393 1.374 . S
C2395 C2392 1.499 . S
C2395 C2396 1.373 . S
C2395 C2397 1.389 . S
C2396 H2369 0.950 . S
C2396 C2382 1.377 . S
C2396 C2395 1.373 . S
C2397 C2381 1.377 . S
C2397 C2395 1.389 . S
C2397 C2398 1.524 . S
C2398 C2397 1.524 . S
C2398 C2399 1.397 . S
C2398 C2403 1.363 . S
C2399 H2370 0.950 . S
C2399 C2398 1.397 . S
C2399 C2400 1.334 . S
C2400 H2371 0.950 . S
C2400 C2399 1.334 . S
C2400 C2401 1.287 . S
C2401 C2400 1.287 . S
C2401 C2402 1.524 . S
C2401 H2404 0.999 . S
C2402 H2372 0.950 . S
C2402 C2401 1.524 . S
C2402 C2403 1.415 . S
C2403 H2373 0.950 . S
C2403 C2398 1.363 . S
C2403 C2402 1.415 . S
H2404 C2401 0.999 . S
H2405 C2386 0.913 . S
H2406 C2424 0.951 . S
H2407 C2426 0.951 . S
H2408 C2428 0.950 . S
H2409 C2429 0.950 . S
H2410 C2431 0.950 . S
H2411 C2434 0.950 . S
H2412 C2435 0.950 . S
H2413 C2437 0.950 . S
H2414 C2438 0.950 . S
H2415 C2439 0.951 . S
H2416 C2441 0.951 . S
H2417 C2443 0.950 . S
H2418 C2444 0.950 . S
H2419 C2446 0.950 . S
H2420 C2449 0.950 . S
H2421 C2450 0.950 . S
H2422 C2452 0.950 . S
H2423 C2453 0.950 . S
C2424 H2406 0.951 . S
C2424 C2425 1.366 . S
C2424 C2426 1.388 . S
C2425 C2424 1.366 . S
C2425 C2429 1.385 . S
C2426 H2407 0.951 . S
C2426 C2424 1.388 . S
C2426 C2427 1.366 . S
C2427 C2426 1.366 . S
C2427 C2428 1.414 . S
C2427 C2430 1.499 . S
C2428 H2408 0.950 . S
C2428 C2427 1.414 . S
C2428 C2429 1.374 . S
C2429 H2409 0.950 . S
C2429 C2425 1.385 . S
C2429 C2428 1.374 . S
C2430 C2427 1.499 . S
C2430 C2431 1.373 . S
C2430 C2432 1.389 . S
C2431 H2410 0.950 . S
C2431 C2430 1.373 . S
C2431 C2447 1.377 . S
C2432 C2430 1.389 . S
C2432 C2433 1.524 . S
C2432 C2446 1.377 . S
C2433 C2432 1.524 . S
C2433 C2434 1.397 . S
C2433 C2438 1.363 . S
C2434 H2411 0.950 . S
C2434 C2433 1.397 . S
C2434 C2435 1.334 . S
C2435 H2412 0.950 . S
C2435 C2434 1.334 . S
C2435 C2436 1.287 . S
C2436 C2435 1.287 . S
C2436 C2437 1.524 . S
C2436 H2455 0.913 . S
C2437 H2413 0.950 . S
C2437 C2436 1.524 . S
C2437 C2438 1.415 . S
C2438 H2414 0.950 . S
C2438 C2433 1.363 . S
C2438 C2437 1.415 . S
C2439 H2415 0.951 . S
C2439 C2440 1.366 . S
C2439 C2441 1.388 . S
C2440 C2439 1.366 . S
C2440 C2444 1.385 . S
C2441 H2416 0.951 . S
C2441 C2439 1.388 . S
C2441 C2442 1.366 . S
C2442 C2441 1.366 . S
C2442 C2443 1.414 . S
C2442 C2445 1.499 . S
C2443 H2417 0.950 . S
C2443 C2442 1.414 . S
C2443 C2444 1.374 . S
C2444 H2418 0.950 . S
C2444 C2440 1.385 . S
C2444 C2443 1.374 . S
C2445 C2442 1.499 . S
C2445 C2446 1.373 . S
C2445 C2447 1.389 . S
C2446 H2419 0.950 . S
C2446 C2432 1.377 . S
C2446 C2445 1.373 . S
C2447 C2431 1.377 . S
C2447 C2445 1.389 . S
C2447 C2448 1.524 . S
C2448 C2447 1.524 . S
C2448 C2449 1.397 . S
C2448 C2453 1.363 . S
C2449 H2420 0.950 . S
C2449 C2448 1.397 . S
C2449 C2450 1.334 . S
C2450 H2421 0.950 . S
C2450 C2449 1.334 . S
C2450 C2451 1.287 . S
C2451 C2450 1.287 . S
C2451 C2452 1.524 . S
C2451 H2454 0.999 . S
C2452 H2422 0.950 . S
C2452 C2451 1.524 . S
C2452 C2453 1.415 . S
C2453 H2423 0.950 . S
C2453 C2448 1.363 . S
C2453 C2452 1.415 . S
H2454 C2451 0.999 . S
H2455 C2436 0.913 . S
H2456 C2474 0.951 . S
H2457 C2476 0.951 . S
H2458 C2478 0.950 . S
H2459 C2479 0.950 . S
H2460 C2481 0.950 . S
H2461 C2484 0.950 . S
H2462 C2485 0.950 . S
H2463 C2487 0.950 . S
H2464 C2488 0.950 . S
H2465 C2489 0.951 . S
H2466 C2491 0.951 . S
H2467 C2493 0.950 . S
H2468 C2494 0.950 . S
H2469 C2496 0.950 . S
H2470 C2499 0.950 . S
H2471 C2500 0.950 . S
H2472 C2502 0.950 . S
H2473 C2503 0.950 . S
C2474 H2456 0.951 . S
C2474 C2475 1.366 . S
C2474 C2476 1.388 . S
C2475 C2474 1.366 . S
C2475 C2479 1.385 . S
C2476 H2457 0.951 . S
C2476 C2474 1.388 . S
C2476 C2477 1.366 . S
C2477 C2476 1.366 . S
C2477 C2478 1.414 . S
C2477 C2480 1.499 . S
C2478 H2458 0.950 . S
C2478 C2477 1.414 . S
C2478 C2479 1.374 . S
C2479 H2459 0.950 . S
C2479 C2475 1.385 . S
C2479 C2478 1.374 . S
C2480 C2477 1.499 . S
C2480 C2481 1.373 . S
C2480 C2482 1.389 . S
C2481 H2460 0.950 . S
C2481 C2480 1.373 . S
C2481 C2497 1.377 . S
C2482 C2480 1.389 . S
C2482 C2483 1.524 . S
C2482 C2496 1.377 . S
C2483 C2482 1.524 . S
C2483 C2484 1.397 . S
C2483 C2488 1.363 . S
C2484 H2461 0.950 . S
C2484 C2483 1.397 . S
C2484 C2485 1.334 . S
C2485 H2462 0.950 . S
C2485 C2484 1.334 . S
C2485 C2486 1.287 . S
C2486 C2485 1.287 . S
C2486 C2487 1.524 . S
C2486 H2505 0.913 . S
C2487 H2463 0.950 . S
C2487 C2486 1.524 . S
C2487 C2488 1.415 . S
C2488 H2464 0.950 . S
C2488 C2483 1.363 . S
C2488 C2487 1.415 . S
C2489 H2465 0.951 . S
C2489 C2490 1.366 . S
C2489 C2491 1.388 . S
C2490 C2489 1.366 . S
C2490 C2494 1.385 . S
C2491 H2466 0.951 . S
C2491 C2489 1.388 . S
C2491 C2492 1.366 . S
C2492 C2491 1.366 . S
C2492 C2493 1.414 . S
C2492 C2495 1.499 . S
C2493 H2467 0.950 . S
C2493 C2492 1.414 . S
C2493 C2494 1.374 . S
C2494 H2468 0.950 . S
C2494 C2490 1.385 . S
C2494 C2493 1.374 . S
C2495 C2492 1.499 . S
C2495 C2496 1.373 . S
C2495 C2497 1.389 . S
C2496 H2469 0.950 . S
C2496 C2482 1.377 . S
C2496 C2495 1.373 . S
C2497 C2481 1.377 . S
C2497 C2495 1.389 . S
C2497 C2498 1.524 . S
C2498 C2497 1.524 . S
C2498 C2499 1.397 . S
C2498 C2503 1.363 . S
C2499 H2470 0.950 . S
C2499 C2498 1.397 . S
C2499 C2500 1.334 . S
C2500 H2471 0.950 . S
C2500 C2499 1.334 . S
C2500 C2501 1.287 . S
C2501 C2500 1.287 . S
C2501 C2502 1.524 . S
C2501 H2504 0.999 . S
C2502 H2472 0.950 . S
C2502 C2501 1.524 . S
C2502 C2503 1.415 . S
C2503 H2473 0.950 . S
C2503 C2498 1.363 . S
C2503 C2502 1.415 . S
H2504 C2501 0.999 . S
H2505 C2486 0.913 . S
H2506 C2524 0.951 . S
H2507 C2526 0.951 . S
H2508 C2528 0.950 . S
H2509 C2529 0.950 . S
H2510 C2531 0.950 . S
H2511 C2534 0.950 . S
H2512 C2535 0.950 . S
H2513 C2537 0.950 . S
H2514 C2538 0.950 . S
H2515 C2539 0.951 . S
H2516 C2541 0.951 . S
H2517 C2543 0.950 . S
H2518 C2544 0.950 . S
H2519 C2546 0.950 . S
H2520 C2549 0.950 . S
H2521 C2550 0.950 . S
H2522 C2552 0.950 . S
H2523 C2553 0.950 . S
C2524 H2506 0.951 . S
C2524 C2525 1.366 . S
C2524 C2526 1.388 . S
C2525 C2524 1.366 . S
C2525 C2529 1.385 . S
C2526 H2507 0.951 . S
C2526 C2524 1.388 . S
C2526 C2527 1.366 . S
C2527 C2526 1.366 . S
C2527 C2528 1.414 . S
C2527 C2530 1.499 . S
C2528 H2508 0.950 . S
C2528 C2527 1.414 . S
C2528 C2529 1.374 . S
C2529 H2509 0.950 . S
C2529 C2525 1.385 . S
C2529 C2528 1.374 . S
C2530 C2527 1.499 . S
C2530 C2531 1.373 . S
C2530 C2532 1.389 . S
C2531 H2510 0.950 . S
C2531 C2530 1.373 . S
C2531 C2547 1.377 . S
C2532 C2530 1.389 . S
C2532 C2533 1.524 . S
C2532 C2546 1.377 . S
C2533 C2532 1.524 . S
C2533 C2534 1.397 . S
C2533 C2538 1.363 . S
C2534 H2511 0.950 . S
C2534 C2533 1.397 . S
C2534 C2535 1.334 . S
C2535 H2512 0.950 . S
C2535 C2534 1.334 . S
C2535 C2536 1.287 . S
C2536 C2535 1.287 . S
C2536 C2537 1.524 . S
C2536 H2555 0.913 . S
C2537 H2513 0.950 . S
C2537 C2536 1.524 . S
C2537 C2538 1.415 . S
C2538 H2514 0.950 . S
C2538 C2533 1.363 . S
C2538 C2537 1.415 . S
C2539 H2515 0.951 . S
C2539 C2540 1.366 . S
C2539 C2541 1.388 . S
C2540 C2539 1.366 . S
C2540 C2544 1.385 . S
C2541 H2516 0.951 . S
C2541 C2539 1.388 . S
C2541 C2542 1.366 . S
C2542 C2541 1.366 . S
C2542 C2543 1.414 . S
C2542 C2545 1.499 . S
C2543 H2517 0.950 . S
C2543 C2542 1.414 . S
C2543 C2544 1.374 . S
C2544 H2518 0.950 . S
C2544 C2540 1.385 . S
C2544 C2543 1.374 . S
C2545 C2542 1.499 . S
C2545 C2546 1.373 . S
C2545 C2547 1.389 . S
C2546 H2519 0.950 . S
C2546 C2532 1.377 . S
C2546 C2545 1.373 . S
C2547 C2531 1.377 . S
C2547 C2545 1.389 . S
C2547 C2548 1.524 . S
C2548 C2547 1.524 . S
C2548 C2549 1.397 . S
C2548 C2553 1.363 . S
C2549 H2520 0.950 . S
C2549 C2548 1.397 . S
C2549 C2550 1.334 . S
C2550 H2521 0.950 . S
C2550 C2549 1.334 . S
C2550 C2551 1.287 . S
C2551 C2550 1.287 . S
C2551 C2552 1.524 . S
C2551 H2554 0.999 . S
C2552 H2522 0.950 . S
C2552 C2551 1.524 . S
C2552 C2553 1.415 . S
C2553 H2523 0.950 . S
C2553 C2548 1.363 . S
C2553 C2552 1.415 . S
H2554 C2551 0.999 . S
H2555 C2536 0.913 . S
H2556 C2574 0.951 . S
H2557 C2576 0.951 . S
H2558 C2578 0.950 . S
H2559 C2579 0.950 . S
H2560 C2581 0.950 . S
H2561 C2584 0.950 . S
H2562 C2585 0.950 . S
H2563 C2587 0.950 . S
H2564 C2588 0.950 . S
H2565 C2589 0.951 . S
H2566 C2591 0.951 . S
H2567 C2593 0.950 . S
H2568 C2594 0.950 . S
H2569 C2596 0.950 . S
H2570 C2599 0.950 . S
H2571 C2600 0.950 . S
H2572 C2602 0.950 . S
H2573 C2603 0.950 . S
C2574 H2556 0.951 . S
C2574 C2575 1.366 . S
C2574 C2576 1.388 . S
C2575 C2574 1.366 . S
C2575 C2579 1.385 . S
C2576 H2557 0.951 . S
C2576 C2574 1.388 . S
C2576 C2577 1.366 . S
C2577 C2576 1.366 . S
C2577 C2578 1.414 . S
C2577 C2580 1.499 . S
C2578 H2558 0.950 . S
C2578 C2577 1.414 . S
C2578 C2579 1.374 . S
C2579 H2559 0.950 . S
C2579 C2575 1.385 . S
C2579 C2578 1.374 . S
C2580 C2577 1.499 . S
C2580 C2581 1.373 . S
C2580 C2582 1.389 . S
C2581 H2560 0.950 . S
C2581 C2580 1.373 . S
C2581 C2597 1.377 . S
C2582 C2580 1.389 . S
C2582 C2583 1.524 . S
C2582 C2596 1.377 . S
C2583 C2582 1.524 . S
C2583 C2584 1.397 . S
C2583 C2588 1.363 . S
C2584 H2561 0.950 . S
C2584 C2583 1.397 . S
C2584 C2585 1.334 . S
C2585 H2562 0.950 . S
C2585 C2584 1.334 . S
C2585 C2586 1.287 . S
C2586 C2585 1.287 . S
C2586 C2587 1.524 . S
C2586 H2605 0.913 . S
C2587 H2563 0.950 . S
C2587 C2586 1.524 . S
C2587 C2588 1.415 . S
C2588 H2564 0.950 . S
C2588 C2583 1.363 . S
C2588 C2587 1.415 . S
C2589 H2565 0.951 . S
C2589 C2590 1.366 . S
C2589 C2591 1.388 . S
C2590 C2589 1.366 . S
C2590 C2594 1.385 . S
C2591 H2566 0.951 . S
C2591 C2589 1.388 . S
C2591 C2592 1.366 . S
C2592 C2591 1.366 . S
C2592 C2593 1.414 . S
C2592 C2595 1.499 . S
C2593 H2567 0.950 . S
C2593 C2592 1.414 . S
C2593 C2594 1.374 . S
C2594 H2568 0.950 . S
C2594 C2590 1.385 . S
C2594 C2593 1.374 . S
C2595 C2592 1.499 . S
C2595 C2596 1.373 . S
C2595 C2597 1.389 . S
C2596 H2569 0.950 . S
C2596 C2582 1.377 . S
C2596 C2595 1.373 . S
C2597 C2581 1.377 . S
C2597 C2595 1.389 . S
C2597 C2598 1.524 . S
C2598 C2597 1.524 . S
C2598 C2599 1.397 . S
C2598 C2603 1.363 . S
C2599 H2570 0.950 . S
C2599 C2598 1.397 . S
C2599 C2600 1.334 . S
C2600 H2571 0.950 . S
C2600 C2599 1.334 . S
C2600 C2601 1.287 . S
C2601 C2600 1.287 . S
C2601 C2602 1.524 . S
C2601 H2604 0.999 . S
C2602 H2572 0.950 . S
C2602 C2601 1.524 . S
C2602 C2603 1.415 . S
C2603 H2573 0.950 . S
C2603 C2598 1.363 . S
C2603 C2602 1.415 . S
H2604 C2601 0.999 . S
H2605 C2586 0.913 . S
H2606 C2624 0.951 . S
H2607 C2626 0.951 . S
H2608 C2628 0.950 . S
H2609 C2629 0.950 . S
H2610 C2631 0.950 . S
H2611 C2634 0.950 . S
H2612 C2635 0.950 . S
H2613 C2637 0.950 . S
H2614 C2638 0.950 . S
H2615 C2639 0.951 . S
H2616 C2641 0.951 . S
H2617 C2643 0.950 . S
H2618 C2644 0.950 . S
H2619 C2646 0.950 . S
H2620 C2649 0.950 . S
H2621 C2650 0.950 . S
H2622 C2652 0.950 . S
H2623 C2653 0.950 . S
C2624 H2606 0.951 . S
C2624 C2625 1.366 . S
C2624 C2626 1.388 . S
C2625 C2624 1.366 . S
C2625 C2629 1.385 . S
C2626 H2607 0.951 . S
C2626 C2624 1.388 . S
C2626 C2627 1.366 . S
C2627 C2626 1.366 . S
C2627 C2628 1.414 . S
C2627 C2630 1.499 . S
C2628 H2608 0.950 . S
C2628 C2627 1.414 . S
C2628 C2629 1.374 . S
C2629 H2609 0.950 . S
C2629 C2625 1.385 . S
C2629 C2628 1.374 . S
C2630 C2627 1.499 . S
C2630 C2631 1.373 . S
C2630 C2632 1.389 . S
C2631 H2610 0.950 . S
C2631 C2630 1.373 . S
C2631 C2647 1.377 . S
C2632 C2630 1.389 . S
C2632 C2633 1.524 . S
C2632 C2646 1.377 . S
C2633 C2632 1.524 . S
C2633 C2634 1.397 . S
C2633 C2638 1.363 . S
C2634 H2611 0.950 . S
C2634 C2633 1.397 . S
C2634 C2635 1.334 . S
C2635 H2612 0.950 . S
C2635 C2634 1.334 . S
C2635 C2636 1.287 . S
C2636 C2635 1.287 . S
C2636 C2637 1.524 . S
C2636 H2655 0.913 . S
C2637 H2613 0.950 . S
C2637 C2636 1.524 . S
C2637 C2638 1.415 . S
C2638 H2614 0.950 . S
C2638 C2633 1.363 . S
C2638 C2637 1.415 . S
C2639 H2615 0.951 . S
C2639 C2640 1.366 . S
C2639 C2641 1.388 . S
C2640 C2639 1.366 . S
C2640 C2644 1.385 . S
C2641 H2616 0.951 . S
C2641 C2639 1.388 . S
C2641 C2642 1.366 . S
C2642 C2641 1.366 . S
C2642 C2643 1.414 . S
C2642 C2645 1.499 . S
C2643 H2617 0.950 . S
C2643 C2642 1.414 . S
C2643 C2644 1.374 . S
C2644 H2618 0.950 . S
C2644 C2640 1.385 . S
C2644 C2643 1.374 . S
C2645 C2642 1.499 . S
C2645 C2646 1.373 . S
C2645 C2647 1.389 . S
C2646 H2619 0.950 . S
C2646 C2632 1.377 . S
C2646 C2645 1.373 . S
C2647 C2631 1.377 . S
C2647 C2645 1.389 . S
C2647 C2648 1.524 . S
C2648 C2647 1.524 . S
C2648 C2649 1.397 . S
C2648 C2653 1.363 . S
C2649 H2620 0.950 . S
C2649 C2648 1.397 . S
C2649 C2650 1.334 . S
C2650 H2621 0.950 . S
C2650 C2649 1.334 . S
C2650 C2651 1.287 . S
C2651 C2650 1.287 . S
C2651 C2652 1.524 . S
C2651 H2654 0.999 1_655 S
C2652 H2622 0.950 . S
C2652 C2651 1.524 . S
C2652 C2653 1.415 . S
C2653 H2623 0.950 . S
C2653 C2648 1.363 . S
C2653 C2652 1.415 . S
H2654 C2651 0.999 1_455 S
H2655 C2636 0.913 . S
H2656 C2674 0.951 . S
H2657 C2676 0.951 . S
H2658 C2678 0.950 . S
H2659 C2679 0.950 . S
H2660 C2681 0.950 . S
H2661 C2684 0.950 . S
H2662 C2685 0.950 . S
H2663 C2687 0.950 . S
H2664 C2688 0.950 . S
H2665 C2689 0.951 . S
H2666 C2691 0.951 . S
H2667 C2693 0.950 . S
H2668 C2694 0.950 . S
H2669 C2696 0.950 . S
H2670 C2699 0.950 . S
H2671 C2700 0.950 . S
H2672 C2702 0.950 . S
H2673 C2703 0.950 . S
C2674 H2656 0.951 . S
C2674 C2675 1.366 . S
C2674 C2676 1.388 . S
C2675 C2674 1.366 . S
C2675 C2679 1.385 . S
C2676 H2657 0.951 . S
C2676 C2674 1.388 . S
C2676 C2677 1.366 . S
C2677 C2676 1.366 . S
C2677 C2678 1.414 . S
C2677 C2680 1.499 . S
C2678 H2658 0.950 . S
C2678 C2677 1.414 . S
C2678 C2679 1.374 . S
C2679 H2659 0.950 . S
C2679 C2675 1.385 . S
C2679 C2678 1.374 . S
C2680 C2677 1.499 . S
C2680 C2681 1.373 . S
C2680 C2682 1.389 . S
C2681 H2660 0.950 . S
C2681 C2680 1.373 . S
C2681 C2697 1.377 . S
C2682 C2680 1.389 . S
C2682 C2683 1.524 . S
C2682 C2696 1.377 . S
C2683 C2682 1.524 . S
C2683 C2684 1.397 . S
C2683 C2688 1.363 . S
C2684 H2661 0.950 . S
C2684 C2683 1.397 . S
C2684 C2685 1.334 . S
C2685 H2662 0.950 . S
C2685 C2684 1.334 . S
C2685 C2686 1.287 . S
C2686 C2685 1.287 . S
C2686 C2687 1.524 . S
C2686 H2705 0.913 . S
C2687 H2663 0.950 . S
C2687 C2686 1.524 . S
C2687 C2688 1.415 . S
C2688 H2664 0.950 . S
C2688 C2683 1.363 . S
C2688 C2687 1.415 . S
C2689 H2665 0.951 . S
C2689 C2690 1.366 . S
C2689 C2691 1.388 . S
C2690 C2689 1.366 . S
C2690 C2694 1.385 . S
C2691 H2666 0.951 . S
C2691 C2689 1.388 . S
C2691 C2692 1.366 . S
C2692 C2691 1.366 . S
C2692 C2693 1.414 . S
C2692 C2695 1.499 . S
C2693 H2667 0.950 . S
C2693 C2692 1.414 . S
C2693 C2694 1.374 . S
C2694 H2668 0.950 . S
C2694 C2690 1.385 . S
C2694 C2693 1.374 . S
C2695 C2692 1.499 . S
C2695 C2696 1.373 . S
C2695 C2697 1.389 . S
C2696 H2669 0.950 . S
C2696 C2682 1.377 . S
C2696 C2695 1.373 . S
C2697 C2681 1.377 . S
C2697 C2695 1.389 . S
C2697 C2698 1.524 . S
C2698 C2697 1.524 . S
C2698 C2699 1.397 . S
C2698 C2703 1.363 . S
C2699 H2670 0.950 . S
C2699 C2698 1.397 . S
C2699 C2700 1.334 . S
C2700 H2671 0.950 . S
C2700 C2699 1.334 . S
C2700 C2701 1.287 . S
C2701 C2700 1.287 . S
C2701 C2702 1.524 . S
C2701 H2704 0.999 . S
C2702 H2672 0.950 . S
C2702 C2701 1.524 . S
C2702 C2703 1.415 . S
C2703 H2673 0.950 . S
C2703 C2698 1.363 . S
C2703 C2702 1.415 . S
H2704 C2701 0.999 . S
H2705 C2686 0.913 . S
H2706 C2724 0.951 . S
H2707 C2726 0.951 . S
H2708 C2728 0.950 . S
H2709 C2729 0.950 . S
H2710 C2731 0.950 . S
H2711 C2734 0.950 . S
H2712 C2735 0.950 . S
H2713 C2737 0.950 . S
H2714 C2738 0.950 . S
H2715 C2739 0.951 . S
H2716 C2741 0.951 . S
H2717 C2743 0.950 . S
H2718 C2744 0.950 . S
H2719 C2746 0.950 . S
H2720 C2749 0.950 . S
H2721 C2750 0.950 . S
H2722 C2752 0.950 . S
H2723 C2753 0.950 . S
C2724 H2706 0.951 . S
C2724 C2725 1.366 . S
C2724 C2726 1.388 . S
C2725 C2724 1.366 . S
C2725 C2729 1.385 . S
C2726 H2707 0.951 . S
C2726 C2724 1.388 . S
C2726 C2727 1.366 . S
C2727 C2726 1.366 . S
C2727 C2728 1.414 . S
C2727 C2730 1.499 . S
C2728 H2708 0.950 . S
C2728 C2727 1.414 . S
C2728 C2729 1.374 . S
C2729 H2709 0.950 . S
C2729 C2725 1.385 . S
C2729 C2728 1.374 . S
C2730 C2727 1.499 . S
C2730 C2731 1.373 . S
C2730 C2732 1.389 . S
C2731 H2710 0.950 . S
C2731 C2730 1.373 . S
C2731 C2747 1.377 . S
C2732 C2730 1.389 . S
C2732 C2733 1.524 . S
C2732 C2746 1.377 . S
C2733 C2732 1.524 . S
C2733 C2734 1.397 . S
C2733 C2738 1.363 . S
C2734 H2711 0.950 . S
C2734 C2733 1.397 . S
C2734 C2735 1.334 . S
C2735 H2712 0.950 . S
C2735 C2734 1.334 . S
C2735 C2736 1.287 . S
C2736 C2735 1.287 . S
C2736 C2737 1.524 . S
C2736 H2755 0.913 . S
C2737 H2713 0.950 . S
C2737 C2736 1.524 . S
C2737 C2738 1.415 . S
C2738 H2714 0.950 . S
C2738 C2733 1.363 . S
C2738 C2737 1.415 . S
C2739 H2715 0.951 . S
C2739 C2740 1.366 . S
C2739 C2741 1.388 . S
C2740 C2739 1.366 . S
C2740 C2744 1.385 . S
C2741 H2716 0.951 . S
C2741 C2739 1.388 . S
C2741 C2742 1.366 . S
C2742 C2741 1.366 . S
C2742 C2743 1.414 . S
C2742 C2745 1.499 . S
C2743 H2717 0.950 . S
C2743 C2742 1.414 . S
C2743 C2744 1.374 . S
C2744 H2718 0.950 . S
C2744 C2740 1.385 . S
C2744 C2743 1.374 . S
C2745 C2742 1.499 . S
C2745 C2746 1.373 . S
C2745 C2747 1.389 . S
C2746 H2719 0.950 . S
C2746 C2732 1.377 . S
C2746 C2745 1.373 . S
C2747 C2731 1.377 . S
C2747 C2745 1.389 . S
C2747 C2748 1.524 . S
C2748 C2747 1.524 . S
C2748 C2749 1.397 . S
C2748 C2753 1.363 . S
C2749 H2720 0.950 . S
C2749 C2748 1.397 . S
C2749 C2750 1.334 . S
C2750 H2721 0.950 . S
C2750 C2749 1.334 . S
C2750 C2751 1.287 . S
C2751 C2750 1.287 . S
C2751 C2752 1.524 . S
C2751 H2754 0.999 . S
C2752 H2722 0.950 . S
C2752 C2751 1.524 . S
C2752 C2753 1.415 . S
C2753 H2723 0.950 . S
C2753 C2748 1.363 . S
C2753 C2752 1.415 . S
H2754 C2751 0.999 . S
H2755 C2736 0.913 . S
H2756 C2774 0.951 . S
H2757 C2776 0.951 . S
H2758 C2778 0.950 . S
H2759 C2779 0.950 . S
H2760 C2781 0.950 . S
H2761 C2784 0.950 . S
H2762 C2785 0.950 . S
H2763 C2787 0.950 . S
H2764 C2788 0.950 . S
H2765 C2789 0.951 . S
H2766 C2791 0.951 . S
H2767 C2793 0.950 . S
H2768 C2794 0.950 . S
H2769 C2796 0.950 . S
H2770 C2799 0.950 . S
H2771 C2800 0.950 . S
H2772 C2802 0.950 . S
H2773 C2803 0.950 . S
C2774 H2756 0.951 . S
C2774 C2775 1.366 . S
C2774 C2776 1.388 . S
C2775 C2774 1.366 . S
C2775 C2779 1.385 . S
C2776 H2757 0.951 . S
C2776 C2774 1.388 . S
C2776 C2777 1.366 . S
C2777 C2776 1.366 . S
C2777 C2778 1.414 . S
C2777 C2780 1.499 . S
C2778 H2758 0.950 . S
C2778 C2777 1.414 . S
C2778 C2779 1.374 . S
C2779 H2759 0.950 . S
C2779 C2775 1.385 . S
C2779 C2778 1.374 . S
C2780 C2777 1.499 . S
C2780 C2781 1.373 . S
C2780 C2782 1.389 . S
C2781 H2760 0.950 . S
C2781 C2780 1.373 . S
C2781 C2797 1.377 . S
C2782 C2780 1.389 . S
C2782 C2783 1.524 . S
C2782 C2796 1.377 . S
C2783 C2782 1.524 . S
C2783 C2784 1.397 . S
C2783 C2788 1.363 . S
C2784 H2761 0.950 . S
C2784 C2783 1.397 . S
C2784 C2785 1.334 . S
C2785 H2762 0.950 . S
C2785 C2784 1.334 . S
C2785 C2786 1.287 . S
C2786 C2785 1.287 . S
C2786 C2787 1.524 . S
C2786 H2805 0.913 . S
C2787 H2763 0.950 . S
C2787 C2786 1.524 . S
C2787 C2788 1.415 . S
C2788 H2764 0.950 . S
C2788 C2783 1.363 . S
C2788 C2787 1.415 . S
C2789 H2765 0.951 . S
C2789 C2790 1.366 . S
C2789 C2791 1.388 . S
C2790 C2789 1.366 . S
C2790 C2794 1.385 . S
C2791 H2766 0.951 . S
C2791 C2789 1.388 . S
C2791 C2792 1.366 . S
C2792 C2791 1.366 . S
C2792 C2793 1.414 . S
C2792 C2795 1.499 . S
C2793 H2767 0.950 . S
C2793 C2792 1.414 . S
C2793 C2794 1.374 . S
C2794 H2768 0.950 . S
C2794 C2790 1.385 . S
C2794 C2793 1.374 . S
C2795 C2792 1.499 . S
C2795 C2796 1.373 . S
C2795 C2797 1.389 . S
C2796 H2769 0.950 . S
C2796 C2782 1.377 . S
C2796 C2795 1.373 . S
C2797 C2781 1.377 . S
C2797 C2795 1.389 . S
C2797 C2798 1.524 . S
C2798 C2797 1.524 . S
C2798 C2799 1.397 . S
C2798 C2803 1.363 . S
C2799 H2770 0.950 . S
C2799 C2798 1.397 . S
C2799 C2800 1.334 . S
C2800 H2771 0.950 . S
C2800 C2799 1.334 . S
C2800 C2801 1.287 . S
C2801 C2800 1.287 . S
C2801 C2802 1.524 . S
C2801 H2804 0.999 . S
C2802 H2772 0.950 . S
C2802 C2801 1.524 . S
C2802 C2803 1.415 . S
C2803 H2773 0.950 . S
C2803 C2798 1.363 . S
C2803 C2802 1.415 . S
H2804 C2801 0.999 . S
H2805 C2786 0.913 . S
H2806 C2824 0.951 . S
H2807 C2826 0.951 . S
H2808 C2828 0.950 . S
H2809 C2829 0.950 . S
H2810 C2831 0.950 . S
H2811 C2834 0.950 . S
H2812 C2835 0.950 . S
H2813 C2837 0.950 . S
H2814 C2838 0.950 . S
H2815 C2839 0.951 . S
H2816 C2841 0.951 . S
H2817 C2843 0.950 . S
H2818 C2844 0.950 . S
H2819 C2846 0.950 . S
H2820 C2849 0.950 . S
H2821 C2850 0.950 . S
H2822 C2852 0.950 . S
H2823 C2853 0.950 . S
C2824 H2806 0.951 . S
C2824 C2825 1.366 . S
C2824 C2826 1.388 . S
C2825 C2824 1.366 . S
C2825 C2829 1.385 . S
C2826 H2807 0.951 . S
C2826 C2824 1.388 . S
C2826 C2827 1.366 . S
C2827 C2826 1.366 . S
C2827 C2828 1.414 . S
C2827 C2830 1.499 . S
C2828 H2808 0.950 . S
C2828 C2827 1.414 . S
C2828 C2829 1.374 . S
C2829 H2809 0.950 . S
C2829 C2825 1.385 . S
C2829 C2828 1.374 . S
C2830 C2827 1.499 . S
C2830 C2831 1.373 . S
C2830 C2832 1.389 . S
C2831 H2810 0.950 . S
C2831 C2830 1.373 . S
C2831 C2847 1.377 . S
C2832 C2830 1.389 . S
C2832 C2833 1.524 . S
C2832 C2846 1.377 . S
C2833 C2832 1.524 . S
C2833 C2834 1.397 . S
C2833 C2838 1.363 . S
C2834 H2811 0.950 . S
C2834 C2833 1.397 . S
C2834 C2835 1.334 . S
C2835 H2812 0.950 . S
C2835 C2834 1.334 . S
C2835 C2836 1.287 . S
C2836 C2835 1.287 . S
C2836 C2837 1.524 . S
C2836 H2855 0.913 . S
C2837 H2813 0.950 . S
C2837 C2836 1.524 . S
C2837 C2838 1.415 . S
C2838 H2814 0.950 . S
C2838 C2833 1.363 . S
C2838 C2837 1.415 . S
C2839 H2815 0.951 . S
C2839 C2840 1.366 . S
C2839 C2841 1.388 . S
C2840 C2839 1.366 . S
C2840 C2844 1.385 . S
C2841 H2816 0.951 . S
C2841 C2839 1.388 . S
C2841 C2842 1.366 . S
C2842 C2841 1.366 . S
C2842 C2843 1.414 . S
C2842 C2845 1.499 . S
C2843 H2817 0.950 . S
C2843 C2842 1.414 . S
C2843 C2844 1.374 . S
C2844 H2818 0.950 . S
C2844 C2840 1.385 . S
C2844 C2843 1.374 . S
C2845 C2842 1.499 . S
C2845 C2846 1.373 . S
C2845 C2847 1.389 . S
C2846 H2819 0.950 . S
C2846 C2832 1.377 . S
C2846 C2845 1.373 . S
C2847 C2831 1.377 . S
C2847 C2845 1.389 . S
C2847 C2848 1.524 . S
C2848 C2847 1.524 . S
C2848 C2849 1.397 . S
C2848 C2853 1.363 . S
C2849 H2820 0.950 . S
C2849 C2848 1.397 . S
C2849 C2850 1.334 . S
C2850 H2821 0.950 . S
C2850 C2849 1.334 . S
C2850 C2851 1.287 . S
C2851 C2850 1.287 . S
C2851 C2852 1.524 . S
C2851 H2854 0.999 . S
C2852 H2822 0.950 . S
C2852 C2851 1.524 . S
C2852 C2853 1.415 . S
C2853 H2823 0.950 . S
C2853 C2848 1.363 . S
C2853 C2852 1.415 . S
H2854 C2851 0.999 . S
H2855 C2836 0.913 . S
H2856 C2874 0.951 . S
H2857 C2876 0.951 . S
H2858 C2878 0.950 . S
H2859 C2879 0.950 . S
H2860 C2881 0.950 . S
H2861 C2884 0.950 . S
H2862 C2885 0.950 . S
H2863 C2887 0.950 . S
H2864 C2888 0.950 . S
H2865 C2889 0.951 . S
H2866 C2891 0.951 . S
H2867 C2893 0.950 . S
H2868 C2894 0.950 . S
H2869 C2896 0.950 . S
H2870 C2899 0.950 . S
H2871 C2900 0.950 . S
H2872 C2902 0.950 . S
H2873 C2903 0.950 . S
C2874 H2856 0.951 . S
C2874 C2875 1.366 . S
C2874 C2876 1.388 . S
C2875 C2874 1.366 . S
C2875 C2879 1.385 . S
C2876 H2857 0.951 . S
C2876 C2874 1.388 . S
C2876 C2877 1.366 . S
C2877 C2876 1.366 . S
C2877 C2878 1.414 . S
C2877 C2880 1.499 . S
C2878 H2858 0.950 . S
C2878 C2877 1.414 . S
C2878 C2879 1.374 . S
C2879 H2859 0.950 . S
C2879 C2875 1.385 . S
C2879 C2878 1.374 . S
C2880 C2877 1.499 . S
C2880 C2881 1.373 . S
C2880 C2882 1.389 . S
C2881 H2860 0.950 . S
C2881 C2880 1.373 . S
C2881 C2897 1.377 . S
C2882 C2880 1.389 . S
C2882 C2883 1.524 . S
C2882 C2896 1.377 . S
C2883 C2882 1.524 . S
C2883 C2884 1.397 . S
C2883 C2888 1.363 . S
C2884 H2861 0.950 . S
C2884 C2883 1.397 . S
C2884 C2885 1.334 . S
C2885 H2862 0.950 . S
C2885 C2884 1.334 . S
C2885 C2886 1.287 . S
C2886 C2885 1.287 . S
C2886 C2887 1.524 . S
C2886 H2905 0.913 . S
C2887 H2863 0.950 . S
C2887 C2886 1.524 . S
C2887 C2888 1.415 . S
C2888 H2864 0.950 . S
C2888 C2883 1.363 . S
C2888 C2887 1.415 . S
C2889 H2865 0.951 . S
C2889 C2890 1.366 . S
C2889 C2891 1.388 . S
C2890 C2889 1.366 . S
C2890 C2894 1.385 . S
C2891 H2866 0.951 . S
C2891 C2889 1.388 . S
C2891 C2892 1.366 . S
C2892 C2891 1.366 . S
C2892 C2893 1.414 . S
C2892 C2895 1.499 . S
C2893 H2867 0.950 . S
C2893 C2892 1.414 . S
C2893 C2894 1.374 . S
C2894 H2868 0.950 . S
C2894 C2890 1.385 . S
C2894 C2893 1.374 . S
C2895 C2892 1.499 . S
C2895 C2896 1.373 . S
C2895 C2897 1.389 . S
C2896 H2869 0.950 . S
C2896 C2882 1.377 . S
C2896 C2895 1.373 . S
C2897 C2881 1.377 . S
C2897 C2895 1.389 . S
C2897 C2898 1.524 . S
C2898 C2897 1.524 . S
C2898 C2899 1.397 . S
C2898 C2903 1.363 . S
C2899 H2870 0.950 . S
C2899 C2898 1.397 . S
C2899 C2900 1.334 . S
C2900 H2871 0.950 . S
C2900 C2899 1.334 . S
C2900 C2901 1.287 . S
C2901 C2900 1.287 . S
C2901 C2902 1.524 . S
C2901 H2904 0.999 . S
C2902 H2872 0.950 . S
C2902 C2901 1.524 . S
C2902 C2903 1.415 . S
C2903 H2873 0.950 . S
C2903 C2898 1.363 . S
C2903 C2902 1.415 . S
H2904 C2901 0.999 . S
H2905 C2886 0.913 . S
C540 C331 1.749 . S
C525 C2 1.778 . S
C590 C321 1.459 . S
C575 C48 1.476 . S
C640 C322 0.817 . S
C625 C97 0.822 . S
C675 C149 0.350 . S
C690 C344 0.534 . S
C725 C189 1.476 . S
C740 C347 1.459 . S
C790 C330 0.817 . S
C775 C202 0.821 . S
C825 C248 0.349 . S
C840 C320 0.535 . S
C875 C297 1.779 . S
C890 C338 1.750 . S
C940 C351 2.744 . S
C925 C31 2.819 . S
C975 C52 1.663 . S
C990 C400 1.613 . S
C1040 C378 1.474 . S
C1025 C88 1.495 . S
C1090 C392 0.795 . S
C1075 C122 0.795 . S
C1125 C162 0.813 . S
C1140 C353 0.809 . S
C1190 C406 2.728 . S
C1175 C231 2.815 . S
C1225 C252 1.667 . S
C1240 C362 1.627 . S
C1275 C288 1.473 . S
C1290 C383 1.453 . S
C1325 C29 1.473 . S
C1340 C409 1.455 . S
C1375 C191 1.662 . S
C1390 C393 1.613 . S
C1440 C352 1.474 . S
C1425 C229 1.495 . S
C1490 C384 0.794 . S
C1475 C257 0.795 . S
C1525 C292 2.819 . S
C1540 C375 2.745 . S
C1575 C92 2.814 . S
C1590 C382 2.726 . S
C1640 C369 1.627 . S
C1625 C151 1.667 . S
C1675 C57 0.813 . S
C1690 C361 0.809 . S
C1725 C282 1.778 . S
C1740 C424 1.749 . S
C1775 C168 1.476 . S
C1790 C414 1.457 . S
C1840 C415 0.817 . S
C1825 C217 0.821 . S
C1890 C437 0.538 . S
C1875 C269 0.353 . S
C1925 C69 1.476 . S
C1940 C440 1.458 . S
C1990 C423 0.816 . S
C1975 C82 0.821 . S
C2025 C128 0.352 . S
C2040 C413 0.538 . S
C2075 C17 1.778 . S
C2090 C431 1.749 . S
C2125 C311 2.819 . S
C2140 C444 2.745 . S
C2190 C493 1.614 . S
C2175 C172 1.663 . S
C2225 C208 1.495 . S
C2240 C471 1.475 . S
C2275 C242 0.795 . S
C2290 C485 0.794 . S
C2340 C446 0.807 . S
C2325 C42 0.812 . S
C2375 C111 2.815 . S
C2390 C499 2.727 . S
C2440 C455 1.627 . S
C2425 C132 1.667 . S
C2490 C476 1.454 . S
C2475 C8 1.472 . S
C2540 C502 1.455 . S
C2525 C309 1.473 . S
C2575 C71 1.663 . S
C2590 C486 1.613 . S
C2625 C109 1.495 . S
C2640 C445 1.473 . S
C2690 C477 0.794 . S
C2675 C137 0.795 . S
C2725 C12 2.819 . S
C2740 C468 2.745 . S
C2775 C212 2.814 . S
C2790 C475 2.727 . S
C2840 C462 1.626 . S
C2825 C271 1.666 . S
C2890 C454 0.810 . S
C2875 C177 0.813 . S
