# Generated by pormake.
# Topology rtl, (3,6)-cn, num edge types: 1
# Building blocks:
#     Node 0, Type 0, BuildingBlock: OLANEW_clean_sbu_2, # of connection points: 3
#     Node 1, Type 0, BuildingBlock: OLANEW_clean_sbu_2, # of connection points: 3
#     Node 2, Type 0, BuildingBlock: OLANEW_clean_sbu_2, # of connection points: 3
#     Node 3, Type 0, BuildingBlock: OLANEW_clean_sbu_2, # of connection points: 3
#     Node 4, Type 1, BuildingBlock: VOLQOD_clean_sbu_1, # of connection points: 6
#     Node 5, Type 1, BuildingBlock: VOLQOD_clean_sbu_1, # of connection points: 6
#     Edge 6, Type (0, 1), BuildingBlock: UVAHIK_clean_linker_0, # of connection points: 2
#     Edge 7, Type (0, 1), BuildingBlock: UVAHIK_clean_linker_0, # of connection points: 2
#     Edge 8, Type (0, 1), BuildingBlock: UVAHIK_clean_linker_0, # of connection points: 2
#     Edge 9, Type (0, 1), BuildingBlock: UVAHIK_clean_linker_0, # of connection points: 2
#     Edge 10, Type (0, 1), BuildingBlock: UVAHIK_clean_linker_0, # of connection points: 2
#     Edge 11, Type (0, 1), BuildingBlock: UVAHIK_clean_linker_0, # of connection points: 2
#     Edge 12, Type (0, 1), BuildingBlock: UVAHIK_clean_linker_0, # of connection points: 2
#     Edge 13, Type (0, 1), BuildingBlock: UVAHIK_clean_linker_0, # of connection points: 2
#     Edge 14, Type (0, 1), BuildingBlock: UVAHIK_clean_linker_0, # of connection points: 2
#     Edge 15, Type (0, 1), BuildingBlock: UVAHIK_clean_linker_0, # of connection points: 2
#     Edge 16, Type (0, 1), BuildingBlock: UVAHIK_clean_linker_0, # of connection points: 2
#     Edge 17, Type (0, 1), BuildingBlock: UVAHIK_clean_linker_0, # of connection points: 2
# Relax obj value: 0.052
# Max RMSD: 0.146
# Mean RMSD: 0.102
data_MOF--net-rtl--node1-OLANEW_clean_sbu_2--node2-VOLQOD_clean_sbu_1--edge1-UVAHIK_clean_linker_0
_symmetry_space_group_name_H-M    P1
_symmetry_Int_Tables_number       1
_symmetry_cell_setting            triclinic
loop_
_symmetry_equiv_pos_as_xyz
'x, y, z'
_cell_length_a     52.361121
_cell_length_b     49.584051
_cell_length_c     30.715197
_cell_angle_alpha  87.497754
_cell_angle_beta   92.458697
_cell_angle_gamma 90.160006
loop_
_atom_site_label
_atom_site_type_symbol
_atom_site_fract_x
_atom_site_fract_y
_atom_site_fract_z
_atom_type_partial_charge
O0 O 0.16364 0.75464 0.94587 0.0
Cd1 Cd 0.17535 0.7263 0.01075 0.0
O2 O 0.17021 0.79306 0.9779 0.0
Cd3 Cd 0.17514 0.77629 0.04455 0.0
O4 O 0.16024 0.78647 0.10714 0.0
C5 C 0.13675 0.79306 0.10528 0.0
O6 O 0.12371 0.7913 0.06798 0.0
C7 C 0.16439 0.78029 0.94387 0.0
C8 C 0.22055 0.69772 0.00122 0.0
O9 O 0.19904 0.68891 -0.0138 0.0
O10 O 0.22074 0.72008 0.02067 0.0
O11 O 0.66201 0.71614 0.57575 0.0
Cd12 Cd 0.6761 0.74024 0.50951 0.0
O13 O 0.67733 0.67754 0.5557 0.0
Cd14 Cd 0.68596 0.69199 0.48991 0.0
O15 O 0.67317 0.68396 0.42319 0.0
C16 C 0.64906 0.68384 0.41633 0.0
O17 O 0.63451 0.69058 0.44792 0.0
C18 C 0.66623 0.69109 0.58357 0.0
C19 C 0.7197 0.77231 0.52115 0.0
O20 O 0.69727 0.78201 0.52488 0.0
O21 O 0.72154 0.74731 0.51271 0.0
O22 O 0.83142 0.20661 0.09258 0.0
Cd23 Cd 0.81344 0.22251 0.02108 0.0
O24 O 0.87053 0.21706 0.07453 0.0
Cd25 Cd 0.86047 0.22597 0.00584 0.0
O26 O 0.86834 0.20918 0.94336 0.0
C27 C 0.89041 0.19862 0.94288 0.0
O28 O 0.90581 0.20025 0.9776 0.0
C29 C 0.85519 0.20803 0.10267 0.0
C30 C 0.7721 0.25772 0.02432 0.0
O31 O 0.7687 0.23212 0.02374 0.0
O32 O 0.7951 0.26665 0.02406 0.0
O33 O 0.33104 0.27109 0.58159 0.0
Cd34 Cd 0.31481 0.24924 0.51568 0.0
O35 O 0.31804 0.31053 0.55351 0.0
Cd36 Cd 0.30923 0.29692 0.48802 0.0
O37 O 0.32355 0.30246 0.42257 0.0
C38 C 0.34771 0.30112 0.42064 0.0
O39 O 0.36132 0.29459 0.45648 0.0
C40 C 0.3282 0.29638 0.58516 0.0
C41 C 0.27463 0.21265 0.52664 0.0
O42 O 0.29773 0.20439 0.52504 0.0
O43 O 0.27058 0.23816 0.52409 0.0
O44 O 0.94063 0.9689 0.52498 0.0
Zn45 Zn 0.96549 0.00014 0.52445 0.0
O46 O 0.00097 0.98775 0.52366 0.0
Zn47 Zn 0.01989 -0.00013 0.57555 0.0
Zn48 Zn 0.00122 0.94824 0.52388 0.0
Zn49 Zn 0.01722 0.00267 0.47133 0.0
O50 O 0.04858 0.02501 0.55945 0.0
O51 O 0.04863 0.02481 0.48717 0.0
O52 O 0.95962 0.02148 0.57757 0.0
O53 O -0.00282 0.02014 0.61388 0.0
O54 O 0.03549 0.96838 0.61084 0.0
O55 O 0.02219 0.93254 0.57537 0.0
O56 O 0.01716 0.93538 0.4701 0.0
O57 O 0.95681 0.02459 0.472 0.0
O58 O 0.02829 0.97284 0.43335 0.0
O59 O -0.00734 0.02734 0.43589 0.0
C60 C 0.94337 0.94336 0.52579 0.0
C61 C 0.05815 0.03248 0.52346 0.0
C62 C 0.03479 0.94292 0.60686 0.0
C63 C 0.97389 0.02756 0.61032 0.0
C64 C 0.02711 0.94717 0.43726 0.0
C65 C 0.96939 0.03391 0.44008 0.0
O66 O 0.96549 0.9327 0.52577 0.0
O67 O 0.56172 0.46605 -0.00434 0.0
Zn68 Zn 0.53853 0.49855 -0.0075 0.0
O69 O 0.50246 0.48817 -0.01104 0.0
Zn70 Zn 0.48578 0.50343 0.93465 0.0
Zn71 Zn 0.50004 0.44869 -0.00965 0.0
Zn72 Zn 0.48578 0.5019 0.03929 0.0
O73 O 0.45613 0.52773 0.94772 0.0
O74 O 0.45683 0.52671 0.02015 0.0
O75 O 0.54707 0.52168 0.94007 0.0
O76 O 0.51109 0.5256 0.89925 0.0
O77 O 0.471 0.47366 0.89796 0.0
O78 O 0.48084 0.43602 0.93686 0.0
O79 O 0.48106 0.43464 0.04238 0.0
O80 O 0.54705 0.52047 0.04496 0.0
O81 O 0.47153 0.47153 0.07673 0.0
O82 O 0.51005 0.52326 0.07693 0.0
C83 C 0.55763 0.44071 -0.00414 0.0
C84 C 0.44716 0.53505 -0.01671 0.0
C85 C 0.47037 0.44801 0.9032 0.0
C86 C 0.53475 0.53097 0.90606 0.0
C87 C 0.47096 0.44598 0.07382 0.0
C88 C 0.53372 0.5289 0.07529 0.0
O89 O 0.53496 0.4313 -0.00621 0.0
C90 C 0.25546 0.16713 0.51467 0.0
C91 C 0.25312 0.19334 0.52958 0.0
C92 C 0.2346 0.14944 0.51466 0.0
C93 C 0.16341 0.14887 0.52336 0.0
H94 H 0.17368 0.07144 0.53603 0.0
C95 C 0.08489 0.06813 0.55846 0.0
C96 C 0.08064 0.05063 0.52405 0.0
C97 C 0.10597 0.0855 0.55903 0.0
C98 C 0.17065 0.09304 0.53234 0.0
H99 H 0.22745 0.22127 0.55773 0.0
H100 H 0.19154 0.19006 0.56022 0.0
H101 H 0.21054 0.10163 0.5399 0.0
H102 H 0.09535 0.03729 0.46368 0.0
H103 H 0.13285 0.06712 0.46568 0.0
H104 H 0.12329 0.13991 0.51791 0.0
C105 C 0.20904 0.18336 0.54665 0.0
C106 C 0.19174 0.11042 0.53421 0.0
C107 C 0.22973 0.20125 0.54567 0.0
C108 C 0.09808 0.05064 0.49049 0.0
C109 C 0.11953 0.06756 0.49166 0.0
C110 C 0.14234 0.13149 0.52252 0.0
C111 C 0.211 0.15729 0.53052 0.0
C112 C 0.18847 0.13864 0.52951 0.0
C113 C 0.1235 0.08521 0.52581 0.0
C114 C 0.14582 0.10348 0.52674 0.0
H115 H 0.27321 0.16056 0.50169 0.0
H116 H 0.23692 0.12984 0.50116 0.0
H117 H 0.15995 0.17032 0.51854 0.0
H118 H 0.07172 0.06867 0.58466 0.0
H119 H 0.10875 0.09898 0.58566 0.0
C120 C 0.26612 0.68731 0.02375 0.0
C121 C 0.24439 0.6823 -0.00316 0.0
C122 C 0.28834 0.67204 0.02078 0.0
C123 C 0.32415 0.6317 0.94816 0.0
H124 H 0.35291 0.59652 0.05423 0.0
C125 C 0.40738 0.55489 0.94626 0.0
C126 C 0.42486 0.55339 -0.01773 0.0
C127 C 0.38556 0.57112 0.94678 0.0
C128 C 0.34552 0.60656 0.02433 0.0
H129 H 0.22912 0.65784 0.94495 0.0
H130 H 0.26827 0.63159 0.93909 0.0
H131 H 0.31501 0.62453 0.05722 0.0
H132 H 0.43378 0.56861 0.04625 0.0
H133 H 0.39662 0.59777 0.04643 0.0
H134 H 0.355 0.61454 0.91529 0.0
C135 C 0.26793 0.64718 0.9627 0.0
C136 C 0.32367 0.62249 0.02612 0.0
C137 C 0.24553 0.6621 0.96623 0.0
C138 C 0.42049 0.56905 0.01821 0.0
C139 C 0.399 0.58564 0.01841 0.0
C140 C 0.34633 0.61615 0.94644 0.0
C141 C 0.28943 0.65182 -0.00972 0.0
C142 C 0.31275 0.63517 -0.01191 0.0
C143 C 0.38096 0.58661 -0.01696 0.0
C144 C 0.35734 0.60332 -0.01546 0.0
H145 H 0.26581 0.7027 0.04768 0.0
H146 H 0.30473 0.6761 0.04224 0.0
H147 H 0.31615 0.64144 0.9184 0.0
H148 H 0.41017 0.54291 0.91818 0.0
H149 H 0.37202 0.57098 0.91915 0.0
C150 C 0.76729 0.77872 0.52182 0.0
C151 C 0.74274 0.78966 0.52513 0.0
C152 C 0.78894 0.79529 0.52375 0.0
C153 C 0.80896 0.86617 0.50639 0.0
H154 H 0.8709 0.84267 0.57055 0.0
C155 C 0.89589 0.93692 0.52972 0.0
C156 C 0.92039 0.92574 0.52679 0.0
C157 C 0.87424 0.92036 0.53061 0.0
C158 C 0.85386 0.84942 0.55205 0.0
H159 H 0.72175 0.82658 0.53371 0.0
H160 H 0.75952 0.85544 0.53723 0.0
H161 H 0.83317 0.81371 0.5706 0.0
H162 H 0.9412 0.88823 0.52238 0.0
H163 H 0.90343 0.85944 0.52326 0.0
H164 H 0.82965 0.90174 0.48743 0.0
C165 C 0.76201 0.83408 0.5327 0.0
C166 C 0.83221 0.83282 0.55215 0.0
C167 C 0.74037 0.81749 0.53096 0.0
C168 C 0.92267 0.89756 0.52482 0.0
C169 C 0.90099 0.88101 0.52559 0.0
C170 C 0.83062 0.88273 0.50617 0.0
C171 C 0.78655 0.82321 0.52884 0.0
C172 C 0.8095 0.84099 0.5293 0.0
C173 C 0.87649 0.89219 0.52847 0.0
C174 C 0.85337 0.87458 0.52897 0.0
H175 H 0.7698 0.75737 0.51725 0.0
H176 H 0.80753 0.78631 0.52023 0.0
H177 H 0.79191 0.87289 0.48788 0.0
H178 H 0.89339 0.95851 0.53153 0.0
H179 H 0.85573 0.92965 0.5335 0.0
C180 C 0.75394 0.30452 0.02375 0.0
C181 C 0.75007 0.27644 0.02411 0.0
C182 C 0.73312 0.3222 0.02186 0.0
C183 C 0.6645 0.32583 -0.01095 0.0
H184 H 0.6655 0.38971 0.05756 0.0
C185 C 0.57572 0.39374 0.00019 0.0
C186 C 0.57965 0.42183 -0.00095 0.0
C187 C 0.59647 0.37598 0.00368 0.0
C188 C 0.66503 0.37212 0.03784 0.0
H189 H 0.72126 0.24492 0.02349 0.0
H190 H 0.68497 0.27574 0.02062 0.0
H191 H 0.70174 0.35876 0.06353 0.0
H192 H 0.60865 0.45321 0.00049 0.0
H193 H 0.64478 0.42223 0.00611 0.0
H194 H 0.62785 0.3392 0.96325 0.0
C195 C 0.70411 0.28411 0.02118 0.0
C196 C 0.6858 0.35437 0.04129 0.0
C197 C 0.72492 0.26644 0.02311 0.0
C198 C 0.60487 0.43171 0.00139 0.0
C199 C 0.62561 0.41394 0.0049 0.0
C200 C 0.64374 0.34358 -0.01441 0.0
C201 C 0.70795 0.31221 0.02024 0.0
C202 C 0.68579 0.33101 0.01693 0.0
C203 C 0.62167 0.38586 0.00613 0.0
C204 C 0.64375 0.36695 0.00992 0.0
H205 H 0.77308 0.3129 0.02439 0.0
H206 H 0.73676 0.34372 0.02072 0.0
H207 H 0.66404 0.30827 0.96927 0.0
H208 H 0.55658 0.3854 -0.00138 0.0
H209 H 0.59274 0.35447 0.00509 0.0
C210 C 0.09908 0.81327 0.13907 0.0
C211 C 0.12486 0.8053 0.1426 0.0
C212 C 0.08828 0.82721 0.17223 0.0
C213 C 0.09659 0.84376 0.28809 0.0
H214 H 0.05429 0.90547 0.25155 0.0
C215 C 0.03813 0.90223 0.40858 0.0
C216 C 0.03798 0.93057 0.40354 0.0
C217 C 0.04882 0.88653 0.37736 0.0
C218 C 0.06618 0.88842 0.26231 0.0
H219 H 0.15926 0.80492 0.18454 0.0
H220 H 0.14037 0.82941 0.24251 0.0
H221 H 0.07286 0.87829 0.1968 0.0
H222 H 0.04898 0.96457 0.36149 0.0
H223 H 0.06767 0.93714 0.3071 0.0
H224 H 0.09019 0.8542 0.35368 0.0
C225 C 0.1285 0.82472 0.21409 0.0
C226 C 0.07658 0.87264 0.23094 0.0
C227 C 0.13935 0.81076 0.18081 0.0
C228 C 0.04869 0.94281 0.36639 0.0
C229 C 0.05931 0.92708 0.33509 0.0
C230 C 0.08609 0.8595 0.31952 0.0
C231 C 0.10297 0.83354 0.20977 0.0
C232 C 0.09188 0.85011 0.24343 0.0
C233 C 0.05954 0.89876 0.34027 0.0
C234 C 0.07078 0.88203 0.30697 0.0
H235 H 0.0873 0.80923 0.11023 0.0
H236 H 0.06842 0.83326 0.16827 0.0
H237 H 0.10816 0.82645 0.29876 0.0
H238 H 0.03005 0.89208 0.43674 0.0
H239 H 0.0484 0.86475 0.38203 0.0
C240 C 0.64008 0.69025 0.65046 0.0
C241 C 0.65602 0.6769 0.62265 0.0
C242 C 0.62795 0.67586 0.68397 0.0
C243 C 0.62932 0.61063 0.74843 0.0
H244 H 0.55779 0.62601 0.76401 0.0
C245 C 0.53657 0.55791 0.83473 0.0
C246 C 0.54841 0.54873 0.87457 0.0
C247 C 0.54981 0.57461 0.8054 0.0
C248 C 0.5777 0.62134 0.75985 0.0
H249 H 0.67241 0.63808 0.6094 0.0
H250 H 0.65123 0.61314 0.66727 0.0
H251 H 0.58148 0.65334 0.71143 0.0
H252 H 0.58339 0.55044 0.91505 0.0
H253 H 0.60613 0.57969 0.86453 0.0
H254 H 0.6254 0.5781 0.79563 0.0
C255 C 0.64821 0.63473 0.66359 0.0
C256 C 0.59139 0.63726 0.73016 0.0
C257 C 0.6603 0.64907 0.63019 0.0
C258 C 0.57368 0.55687 0.88453 0.0
C259 C 0.58682 0.57359 0.8554 0.0
C260 C 0.61564 0.59471 0.77799 0.0
C261 C 0.63155 0.64783 0.69046 0.0
C262 C 0.61734 0.63198 0.72388 0.0
C263 C 0.57516 0.58256 0.81534 0.0
C264 C 0.58963 0.59978 0.78398 0.0
H265 H 0.63637 0.71167 0.64559 0.0
H266 H 0.61554 0.68664 0.70452 0.0
H267 H 0.64932 0.60615 0.74476 0.0
H268 H 0.51714 0.55203 0.82599 0.0
H269 H 0.54033 0.58091 0.77462 0.0
C270 C 0.84936 0.18393 0.17527 0.0
C271 C 0.86557 0.19629 0.14499 0.0
C272 C 0.85956 0.1693 0.21193 0.0
C273 C 0.92016 0.1549 0.27731 0.0
H274 H 0.88788 0.0857 0.30157 0.0
C275 C 0.97107 0.06759 0.37675 0.0
C276 C 0.9568 0.05334 0.408 0.0
C277 C 0.95924 0.08654 0.3475 0.0
C278 C 0.89696 0.10508 0.29555 0.0
H279 H 0.90525 0.20416 0.13086 0.0
H280 H 0.92291 0.17841 0.19397 0.0
H281 H 0.86817 0.11731 0.24733 0.0
H282 H 0.9188 0.04775 0.43265 0.0
H283 H 0.89823 0.08064 0.38137 0.0
H284 H 0.94936 0.14218 0.32474 0.0
C285 C 0.90233 0.18019 0.18989 0.0
C286 C 0.8856 0.1233 0.26459 0.0
C287 C 0.89216 0.19489 0.15344 0.0
C288 C 0.9304 0.05833 0.40901 0.0
C289 C 0.91856 0.07711 0.37954 0.0
C290 C 0.93161 0.13659 0.30804 0.0
C291 C 0.88619 0.16664 0.21904 0.0
C292 C 0.89718 0.14834 0.25473 0.0
C293 C 0.93286 0.0915 0.34859 0.0
C294 C 0.92025 0.11138 0.31718 0.0
H295 H 0.82879 0.18474 0.1699 0.0
H296 H 0.84656 0.15958 0.23419 0.0
H297 H 0.92941 0.17416 0.27108 0.0
H298 H -0.00856 0.06429 0.37509 0.0
H299 H 0.9707 0.0971 0.32365 0.0
C300 C 0.33605 0.33822 0.62634 0.0
C301 C 0.33909 0.31017 0.62367 0.0
C302 C 0.34926 0.35222 0.65868 0.0
C303 C 0.38483 0.3454 0.76472 0.0
H304 H 0.4187 0.41065 0.72304 0.0
C305 C 0.45712 0.40339 0.87373 0.0
C306 C 0.45626 0.43177 0.87054 0.0
C307 C 0.44293 0.38803 0.84418 0.0
C308 C 0.40913 0.3927 0.73543 0.0
H309 H 0.35741 0.27466 0.65455 0.0
H310 H 0.38046 0.29925 0.7114 0.0
H311 H 0.39264 0.38472 0.67239 0.0
H312 H 0.43978 0.4662 0.83352 0.0
H313 H 0.41476 0.43948 0.78251 0.0
H314 H 0.40114 0.35355 0.82793 0.0
C315 C 0.36782 0.31032 0.68824 0.0
C316 C 0.3942 0.3778 0.70634 0.0
C317 C 0.35463 0.29625 0.65566 0.0
C318 C 0.44105 0.4444 0.83681 0.0
C319 C 0.42676 0.42904 0.8074 0.0
C320 C 0.39968 0.36042 0.79397 0.0
C321 C 0.3658 0.33857 0.68932 0.0
C322 C 0.38177 0.35407 0.72066 0.0
C323 C 0.42743 0.40064 0.81078 0.0
C324 C 0.41195 0.38433 0.7797 0.0
H325 H 0.32408 0.34961 0.60252 0.0
H326 H 0.34688 0.3739 0.65921 0.0
H327 H 0.37536 0.3273 0.77676 0.0
H328 H 0.46871 0.39296 0.89919 0.0
H329 H 0.44426 0.36624 0.84736 0.0
C330 C 0.61067 0.67085 0.37073 0.0
C331 C 0.63739 0.67277 0.37611 0.0
C332 C 0.59949 0.65742 0.33573 0.0
C333 C 0.61116 0.63097 0.22778 0.0
H334 H 0.55773 0.58013 0.25838 0.0
C335 C 0.57224 0.55123 0.10963 0.0
C336 C 0.5458 0.54604 0.10878 0.0
C337 C 0.5835 0.56764 0.14101 0.0
C338 C 0.57236 0.59448 0.24908 0.0
H339 H 0.67332 0.66324 0.34767 0.0
H340 H 0.65373 0.63971 0.28645 0.0
H341 H 0.57694 0.60819 0.31397 0.0
H342 H 0.51045 0.55437 0.14008 0.0
H343 H 0.52998 0.58321 0.19422 0.0
H344 H 0.60653 0.61721 0.16277 0.0
C345 C 0.64145 0.64867 0.30935 0.0
C346 C 0.58338 0.61058 0.28098 0.0
C347 C 0.65267 0.66208 0.3445 0.0
C348 C 0.53089 0.55774 0.13993 0.0
C349 C 0.54212 0.57421 0.17116 0.0
C350 C 0.60004 0.61491 0.19573 0.0
C351 C 0.61476 0.64564 0.30521 0.0
C352 C 0.60288 0.62902 0.27072 0.0
C353 C 0.56857 0.57931 0.17219 0.0
C354 C 0.58049 0.59647 0.20603 0.0
H355 H 0.59831 0.67905 0.39427 0.0
H356 H 0.57885 0.65587 0.33296 0.0
H357 H 0.62602 0.64515 0.21883 0.0
H358 H 0.58431 0.54251 0.08618 0.0
H359 H 0.60397 0.57086 0.14123 0.0
C360 C 0.92244 0.17092 0.90682 0.0
C361 C 0.89807 0.18278 0.90585 0.0
C362 C 0.9293 0.15425 0.87384 0.0
C363 C 0.91334 0.13607 0.76087 0.0
H364 H 0.95006 0.07043 0.79679 0.0
C365 C 0.93855 0.05469 0.63975 0.0
C366 C 0.9635 0.04419 0.64437 0.0
C367 C 0.92917 0.07112 0.67131 0.0
C368 C 0.94 0.08878 0.78619 0.0
H369 H 0.86201 0.18703 0.86874 0.0
H370 H 0.87404 0.15772 0.81096 0.0
H371 H 0.93644 0.10062 0.85172 0.0
H372 H -0.00194 0.04263 0.68608 0.0
H373 H 0.98175 0.07128 0.74078 0.0
H374 H 0.9171 0.12421 0.6952 0.0
C375 C 0.88784 0.16148 0.83728 0.0
C376 C 0.93221 0.10609 0.81765 0.0
C377 C 0.88094 0.1782 0.87042 0.0
C378 C 0.97873 0.05029 0.68146 0.0
C379 C 0.96933 0.06661 0.713 0.0
C380 C 0.92115 0.1187 0.7293 0.0
C381 C 0.91198 0.149 0.83904 0.0
C382 C 0.91909 0.13011 0.80536 0.0
C383 C 0.94449 0.07729 0.70825 0.0
C384 C 0.93485 0.09503 0.74163 0.0
H385 H 0.93619 0.17417 0.93345 0.0
H386 H 0.94823 0.1454 0.87569 0.0
H387 H 0.90342 0.15452 0.75036 0.0
H388 H 0.92628 0.0504 0.61159 0.0
H389 H 0.90985 0.07883 0.66695 0.0
C390 C 0.34642 0.32013 0.34342 0.0
C391 C 0.36061 0.31033 0.38066 0.0
C392 C 0.3588 0.33189 0.30784 0.0
C393 C 0.4179 0.36813 0.28407 0.0
H394 H 0.39734 0.35856 0.16292 0.0
C395 C 0.44988 0.44075 0.14548 0.0
C396 C 0.45831 0.42915 0.10769 0.0
C397 C 0.43819 0.42488 0.17764 0.0
C398 C 0.40338 0.36129 0.19661 0.0
H399 H 0.39898 0.30384 0.4087 0.0
H400 H 0.42047 0.32425 0.34669 0.0
H401 H 0.37682 0.33173 0.22045 0.0
H402 H 0.46076 0.39173 0.07393 0.0
H403 H 0.44026 0.36408 0.13017 0.0
H404 H 0.44435 0.39771 0.26046 0.0
C405 C 0.39978 0.32321 0.34527 0.0
C406 C 0.39152 0.3461 0.2295 0.0
C407 C 0.38744 0.31138 0.3807 0.0
C408 C 0.45455 0.40132 0.10266 0.0
C409 C 0.44267 0.38549 0.13473 0.0
C410 C 0.42959 0.38343 0.25129 0.0
C411 C 0.38559 0.33416 0.30889 0.0
C412 C 0.39864 0.34941 0.27359 0.0
C413 C 0.4345 0.39708 0.17266 0.0
C414 C 0.42239 0.38028 0.20723 0.0
H415 H 0.32572 0.31957 0.34232 0.0
H416 H 0.34735 0.34026 0.28032 0.0
H417 H 0.4236 0.37139 0.31776 0.0
H418 H 0.45241 0.4621 0.15042 0.0
H419 H 0.43182 0.43444 0.2063 0.0
C420 C 0.1572 0.82393 0.90109 0.0
C421 C 0.15624 0.79557 0.90311 0.0
C422 C 0.14667 0.83864 0.86493 0.0
C423 C 0.09716 0.83299 0.7777 0.0
H424 H 0.12678 0.89985 0.73299 0.0
C425 C 0.04967 0.89695 0.6345 0.0
C426 C 0.04947 0.92508 0.6388 0.0
C427 C 0.06401 0.88023 0.66404 0.0
C428 C 0.11818 0.88132 0.74535 0.0
H429 H 0.14449 0.76038 0.86767 0.0
H430 H 0.12626 0.78614 0.80428 0.0
H431 H 0.15066 0.87197 0.78798 0.0
H432 H 0.06415 0.95761 0.67784 0.0
H433 H 0.08887 0.92842 0.72954 0.0
H434 H 0.0645 0.84255 0.73566 0.0
C435 C 0.13487 0.79696 0.83105 0.0
C436 C 0.13189 0.86533 0.77677 0.0
C437 C 0.14548 0.78221 0.86724 0.0
C438 C 0.06389 0.93606 0.67344 0.0
C439 C 0.07823 0.91934 0.70293 0.0
C440 C 0.08345 0.84899 0.74628 0.0
C441 C 0.1349 0.82535 0.82989 0.0
C442 C 0.1214 0.84115 0.79372 0.0
C443 C 0.07852 0.89124 0.69852 0.0
C444 C 0.09366 0.87352 0.73017 0.0
H445 H 0.16536 0.83489 0.92809 0.0
H446 H 0.14681 0.86047 0.86529 0.0
H447 H 0.08836 0.8147 0.79056 0.0
H448 H 0.03887 0.8878 0.60813 0.0
H449 H 0.06401 0.85869 0.6595 0.0
loop_
_geom_bond_atom_site_label_1
_geom_bond_atom_site_label_2
_geom_bond_distance
_geom_bond_site_symmetry_2
_ccdc_geom_bond_type
O0 Cd1 2.300 1_556 S
O0 C7 1.275 . S
Cd1 O0 2.300 1_554 S
Cd1 O9 2.381 . S
Cd1 O10 2.378 . S
O2 Cd3 2.385 . S
O2 C7 1.255 1_554 S
Cd3 O2 2.385 . S
Cd3 O4 2.317 . S
O4 Cd3 2.317 . S
O4 C5 1.232 . S
C5 O4 1.232 . S
C5 O6 1.218 . S
O6 C5 1.218 . S
C7 O0 1.275 . S
C7 O2 1.255 1_556 S
C8 O9 1.258 . S
C8 O10 1.256 . S
O9 Cd1 2.381 . S
O9 C8 1.258 . S
O10 Cd1 2.378 . S
O10 C8 1.256 . S
O11 Cd12 2.300 . S
O11 C18 1.275 . S
Cd12 O11 2.300 . S
Cd12 O20 2.381 . S
Cd12 O21 2.378 . S
O13 Cd14 2.385 . S
O13 C18 1.255 . S
Cd14 O13 2.385 . S
Cd14 O15 2.317 . S
O15 Cd14 2.317 . S
O15 C16 1.232 . S
C16 O15 1.232 . S
C16 O17 1.218 . S
O17 C16 1.218 . S
C18 O11 1.275 . S
C18 O13 1.255 . S
C19 O20 1.258 . S
C19 O21 1.256 . S
O20 Cd12 2.381 . S
O20 C19 1.258 . S
O21 Cd12 2.378 . S
O21 C19 1.256 . S
O22 Cd23 2.300 . S
O22 C29 1.275 . S
Cd23 O22 2.300 . S
Cd23 O31 2.381 . S
Cd23 O32 2.378 . S
O24 Cd25 2.385 . S
O24 C29 1.255 . S
Cd25 O24 2.385 . S
Cd25 O26 2.317 1_554 S
O26 Cd25 2.317 1_556 S
O26 C27 1.232 . S
C27 O26 1.232 . S
C27 O28 1.218 . S
O28 C27 1.218 . S
C29 O22 1.275 . S
C29 O24 1.255 . S
C30 O31 1.258 . S
C30 O32 1.256 . S
O31 Cd23 2.381 . S
O31 C30 1.258 . S
O32 Cd23 2.378 . S
O32 C30 1.256 . S
O33 Cd34 2.300 . S
O33 C40 1.275 . S
Cd34 O33 2.300 . S
Cd34 O42 2.381 . S
Cd34 O43 2.378 . S
O35 Cd36 2.385 . S
O35 C40 1.255 . S
Cd36 O35 2.385 . S
Cd36 O37 2.317 . S
O37 Cd36 2.317 . S
O37 C38 1.232 . S
C38 O37 1.232 . S
C38 O39 1.218 . S
O39 C38 1.218 . S
C40 O33 1.275 . S
C40 O35 1.255 . S
C41 O42 1.258 . S
C41 O43 1.256 . S
O42 Cd34 2.381 . S
O42 C41 1.258 . S
O43 Cd34 2.378 . S
O43 C41 1.256 . S
O44 Zn45 1.953 1_565 S
O44 C60 1.225 . S
Zn45 O44 1.953 1_545 S
Zn45 O46 1.953 1_655 S
Zn45 O52 1.919 . S
Zn45 O57 1.924 . S
O46 Zn45 1.953 1_455 S
O46 Zn47 1.926 . S
O46 Zn48 1.937 1_545 S
O46 Zn49 1.951 . S
Zn47 O46 1.926 . S
Zn47 O50 1.933 . S
Zn47 O53 1.941 . S
Zn47 O54 1.965 1_545 S
Zn48 O46 1.937 1_565 S
Zn48 O55 1.938 . S
Zn48 O56 1.906 . S
Zn48 O66 1.953 1_455 S
Zn49 O46 1.951 . S
Zn49 O51 1.932 . S
Zn49 O58 1.977 1_545 S
Zn49 O59 1.934 . S
O50 Zn47 1.933 . S
O50 C61 1.226 . S
O51 Zn49 1.932 . S
O51 C61 1.307 . S
O52 Zn45 1.919 . S
O52 C63 1.253 . S
O53 Zn47 1.941 . S
O53 C63 1.283 1_455 S
O54 Zn47 1.965 1_565 S
O54 C62 1.303 . S
O55 Zn48 1.938 . S
O55 C62 1.247 . S
O56 Zn48 1.906 . S
O56 C64 1.304 . S
O57 Zn45 1.924 . S
O57 C65 1.311 . S
O58 Zn49 1.977 1_565 S
O58 C64 1.272 . S
O59 Zn49 1.934 . S
O59 C65 1.197 1_455 S
C60 O44 1.225 . S
C60 O66 1.298 . S
C61 O50 1.226 . S
C61 O51 1.307 . S
C62 O54 1.303 . S
C62 O55 1.247 . S
C63 O52 1.253 . S
C63 O53 1.283 1_655 S
C64 O56 1.304 . S
C64 O58 1.272 . S
C65 O57 1.311 . S
C65 O59 1.197 1_655 S
O66 Zn48 1.953 1_655 S
O66 C60 1.298 . S
O67 Zn68 1.955 . S
O67 C83 1.231 . S
Zn68 O67 1.955 . S
Zn68 O69 1.949 . S
Zn68 O75 1.919 1_554 S
Zn68 O80 1.924 . S
O69 Zn68 1.949 . S
O69 Zn70 1.923 1_554 S
O69 Zn71 1.950 . S
O69 Zn72 1.945 . S
Zn70 O69 1.923 1_556 S
Zn70 O73 1.933 . S
Zn70 O76 1.941 . S
Zn70 O77 1.965 . S
Zn71 O69 1.950 . S
Zn71 O78 1.938 1_554 S
Zn71 O79 1.906 . S
Zn71 O89 1.953 . S
Zn72 O69 1.945 . S
Zn72 O74 1.932 . S
Zn72 O81 1.977 . S
Zn72 O82 1.910 . S
O73 Zn70 1.933 . S
O73 C84 1.226 1_556 S
O74 Zn72 1.932 . S
O74 C84 1.307 . S
O75 Zn68 1.919 1_556 S
O75 C86 1.253 . S
O76 Zn70 1.941 . S
O76 C86 1.283 . S
O77 Zn70 1.965 . S
O77 C85 1.303 . S
O78 Zn71 1.938 1_556 S
O78 C85 1.247 . S
O79 Zn71 1.906 . S
O79 C87 1.304 . S
O80 Zn68 1.924 . S
O80 C88 1.311 . S
O81 Zn72 1.977 . S
O81 C87 1.272 . S
O82 Zn72 1.910 . S
O82 C88 1.231 . S
C83 O67 1.231 . S
C83 O89 1.298 . S
C84 O73 1.226 1_554 S
C84 O74 1.307 . S
C85 O77 1.303 . S
C85 O78 1.247 . S
C86 O75 1.253 . S
C86 O76 1.283 . S
C87 O79 1.304 . S
C87 O81 1.272 . S
C88 O80 1.311 . S
C88 O82 1.231 . S
O89 Zn71 1.953 . S
O89 C83 1.298 . S
C90 C91 1.349 . S
C90 C92 1.327 . S
C90 H115 0.950 . S
C91 C90 1.349 . S
C91 C107 1.349 . S
C92 C90 1.327 . S
C92 C111 1.429 . S
C92 H116 0.950 . S
C93 C110 1.574 . S
C93 C112 1.368 . S
C93 H117 0.949 . S
H94 C98 0.949 . S
C95 C96 1.349 . S
C95 C97 1.327 . S
C95 H118 0.950 . S
C96 C95 1.349 . S
C96 C108 1.349 . S
C97 C95 1.327 . S
C97 C113 1.429 . S
C97 H119 0.950 . S
C98 H94 0.949 . S
C98 C106 1.574 . S
C98 C114 1.368 . S
H99 C107 0.950 . S
H100 C105 0.950 . S
H101 C106 0.949 . S
H102 C108 0.950 . S
H103 C109 0.950 . S
H104 C110 0.949 . S
C105 H100 0.950 . S
C105 C107 1.327 . S
C105 C111 1.429 . S
C106 C98 1.574 . S
C106 H101 0.949 . S
C106 C112 1.368 . S
C107 C91 1.349 . S
C107 H99 0.950 . S
C107 C105 1.327 . S
C108 C96 1.349 . S
C108 H102 0.950 . S
C108 C109 1.327 . S
C109 H103 0.950 . S
C109 C108 1.327 . S
C109 C113 1.429 . S
C110 C93 1.574 . S
C110 H104 0.949 . S
C110 C114 1.368 . S
C111 C92 1.429 . S
C111 C105 1.429 . S
C111 C112 1.523 . S
C112 C93 1.368 . S
C112 C106 1.368 . S
C112 C111 1.523 . S
C113 C97 1.429 . S
C113 C109 1.429 . S
C113 C114 1.523 . S
C114 C98 1.368 . S
C114 C110 1.368 . S
C114 C113 1.523 . S
H115 C90 0.950 . S
H116 C92 0.950 . S
H117 C93 0.949 . S
H118 C95 0.950 . S
H119 C97 0.950 . S
C120 C121 1.349 . S
C120 C122 1.327 . S
C120 H145 0.950 . S
C121 C120 1.349 . S
C121 C137 1.349 1_554 S
C122 C120 1.327 . S
C122 C141 1.429 . S
C122 H146 0.950 . S
C123 C140 1.574 . S
C123 C142 1.368 1_556 S
C123 H147 0.949 . S
H124 C128 0.949 . S
C125 C126 1.349 1_556 S
C125 C127 1.327 . S
C125 H148 0.950 . S
C126 C125 1.349 1_554 S
C126 C138 1.349 . S
C127 C125 1.327 . S
C127 C143 1.429 1_556 S
C127 H149 0.950 . S
C128 H124 0.949 . S
C128 C136 1.574 . S
C128 C144 1.368 . S
H129 C137 0.950 . S
H130 C135 0.950 . S
H131 C136 0.949 . S
H132 C138 0.950 . S
H133 C139 0.950 . S
H134 C140 0.949 . S
C135 H130 0.950 . S
C135 C137 1.327 . S
C135 C141 1.429 1_556 S
C136 C128 1.574 . S
C136 H131 0.949 . S
C136 C142 1.368 . S
C137 C121 1.349 1_556 S
C137 H129 0.950 . S
C137 C135 1.327 . S
C138 C126 1.349 . S
C138 H132 0.950 . S
C138 C139 1.327 . S
C139 H133 0.950 . S
C139 C138 1.327 . S
C139 C143 1.429 . S
C140 C123 1.574 . S
C140 H134 0.949 . S
C140 C144 1.368 1_556 S
C141 C122 1.429 . S
C141 C135 1.429 1_554 S
C141 C142 1.523 . S
C142 C123 1.368 1_554 S
C142 C136 1.368 . S
C142 C141 1.523 . S
C143 C127 1.429 1_554 S
C143 C139 1.429 . S
C143 C144 1.523 . S
C144 C128 1.368 . S
C144 C140 1.368 1_554 S
C144 C143 1.523 . S
H145 C120 0.950 . S
H146 C122 0.950 . S
H147 C123 0.949 . S
H148 C125 0.950 . S
H149 C127 0.950 . S
C150 C151 1.349 . S
C150 C152 1.327 . S
C150 H175 0.950 . S
C151 C150 1.349 . S
C151 C167 1.349 . S
C152 C150 1.327 . S
C152 C171 1.429 . S
C152 H176 0.950 . S
C153 C170 1.574 . S
C153 C172 1.368 . S
C153 H177 0.949 . S
H154 C158 0.949 . S
C155 C156 1.349 . S
C155 C157 1.327 . S
C155 H178 0.950 . S
C156 C155 1.349 . S
C156 C168 1.349 . S
C157 C155 1.327 . S
C157 C173 1.429 . S
C157 H179 0.950 . S
C158 H154 0.949 . S
C158 C166 1.574 . S
C158 C174 1.368 . S
H159 C167 0.950 . S
H160 C165 0.950 . S
H161 C166 0.949 . S
H162 C168 0.950 . S
H163 C169 0.950 . S
H164 C170 0.949 . S
C165 H160 0.950 . S
C165 C167 1.327 . S
C165 C171 1.429 . S
C166 C158 1.574 . S
C166 H161 0.949 . S
C166 C172 1.368 . S
C167 C151 1.349 . S
C167 H159 0.950 . S
C167 C165 1.327 . S
C168 C156 1.349 . S
C168 H162 0.950 . S
C168 C169 1.327 . S
C169 H163 0.950 . S
C169 C168 1.327 . S
C169 C173 1.429 . S
C170 C153 1.574 . S
C170 H164 0.949 . S
C170 C174 1.368 . S
C171 C152 1.429 . S
C171 C165 1.429 . S
C171 C172 1.523 . S
C172 C153 1.368 . S
C172 C166 1.368 . S
C172 C171 1.523 . S
C173 C157 1.429 . S
C173 C169 1.429 . S
C173 C174 1.523 . S
C174 C158 1.368 . S
C174 C170 1.368 . S
C174 C173 1.523 . S
H175 C150 0.950 . S
H176 C152 0.950 . S
H177 C153 0.949 . S
H178 C155 0.950 . S
H179 C157 0.950 . S
C180 C181 1.349 . S
C180 C182 1.327 . S
C180 H205 0.950 . S
C181 C180 1.349 . S
C181 C197 1.349 . S
C182 C180 1.327 . S
C182 C201 1.429 . S
C182 H206 0.950 . S
C183 C200 1.574 . S
C183 C202 1.358 1_556 S
C183 H207 0.958 . S
H184 C188 0.949 . S
C185 C186 1.349 1_556 S
C185 C187 1.327 . S
C185 H208 0.950 . S
C186 C185 1.349 1_554 S
C186 C198 1.349 . S
C187 C185 1.327 . S
C187 C203 1.429 1_556 S
C187 H209 0.950 . S
C188 H184 0.949 . S
C188 C196 1.574 . S
C188 C204 1.368 . S
H189 C197 0.950 1_556 S
H190 C195 0.950 1_556 S
H191 C196 0.949 . S
H192 C198 0.950 . S
H193 C199 0.950 . S
H194 C200 0.949 . S
C195 H190 0.950 1_554 S
C195 C197 1.327 . S
C195 C201 1.429 . S
C196 C188 1.574 . S
C196 H191 0.949 . S
C196 C202 1.368 . S
C197 C181 1.349 . S
C197 H189 0.950 1_554 S
C197 C195 1.327 . S
C198 C186 1.349 . S
C198 H192 0.950 . S
C198 C199 1.327 . S
C199 H193 0.950 . S
C199 C198 1.327 . S
C199 C203 1.429 . S
C200 C183 1.574 . S
C200 H194 0.949 . S
C200 C204 1.368 1_556 S
C201 C182 1.429 . S
C201 C195 1.429 . S
C201 C202 1.523 . S
C202 C183 1.358 1_554 S
C202 C196 1.368 . S
C202 C201 1.523 . S
C203 C187 1.429 1_554 S
C203 C199 1.429 . S
C203 C204 1.523 . S
C204 C188 1.368 . S
C204 C200 1.368 1_554 S
C204 C203 1.523 . S
H205 C180 0.950 . S
H206 C182 0.950 . S
H207 C183 0.958 . S
H208 C185 0.950 . S
H209 C187 0.950 . S
C210 C211 1.349 . S
C210 C212 1.327 . S
C210 H235 0.950 . S
C211 C210 1.349 . S
C211 C227 1.349 . S
C212 C210 1.327 . S
C212 C231 1.429 . S
C212 H236 0.950 . S
C213 C230 1.574 . S
C213 C232 1.368 . S
C213 H237 0.949 . S
H214 C218 0.949 . S
C215 C216 1.349 . S
C215 C217 1.327 . S
C215 H238 0.950 . S
C216 C215 1.349 . S
C216 C228 1.349 . S
C217 C215 1.327 . S
C217 C233 1.429 . S
C217 H239 0.950 . S
C218 H214 0.949 . S
C218 C226 1.574 . S
C218 C234 1.368 . S
H219 C227 0.950 . S
H220 C225 0.950 . S
H221 C226 0.949 . S
H222 C228 0.950 . S
H223 C229 0.950 . S
H224 C230 0.949 . S
C225 H220 0.950 . S
C225 C227 1.327 . S
C225 C231 1.429 . S
C226 C218 1.574 . S
C226 H221 0.949 . S
C226 C232 1.368 . S
C227 C211 1.349 . S
C227 H219 0.950 . S
C227 C225 1.327 . S
C228 C216 1.349 . S
C228 H222 0.950 . S
C228 C229 1.327 . S
C229 H223 0.950 . S
C229 C228 1.327 . S
C229 C233 1.429 . S
C230 C213 1.574 . S
C230 H224 0.949 . S
C230 C234 1.368 . S
C231 C212 1.429 . S
C231 C225 1.429 . S
C231 C232 1.523 . S
C232 C213 1.368 . S
C232 C226 1.368 . S
C232 C231 1.523 . S
C233 C217 1.429 . S
C233 C229 1.429 . S
C233 C234 1.523 . S
C234 C218 1.368 . S
C234 C230 1.368 . S
C234 C233 1.523 . S
H235 C210 0.950 . S
H236 C212 0.950 . S
H237 C213 0.949 . S
H238 C215 0.950 . S
H239 C217 0.950 . S
C240 C241 1.349 . S
C240 C242 1.327 . S
C240 H265 0.950 . S
C241 C240 1.349 . S
C241 C257 1.349 . S
C242 C240 1.327 . S
C242 C261 1.429 . S
C242 H266 0.950 . S
C243 C260 1.574 . S
C243 C262 1.368 . S
C243 H267 0.949 . S
H244 C248 0.949 . S
C245 C246 1.349 . S
C245 C247 1.327 . S
C245 H268 0.950 . S
C246 C245 1.349 . S
C246 C258 1.349 . S
C247 C245 1.327 . S
C247 C263 1.429 . S
C247 H269 0.950 . S
C248 H244 0.949 . S
C248 C256 1.574 . S
C248 C264 1.368 . S
H249 C257 0.950 . S
H250 C255 0.950 . S
H251 C256 0.949 . S
H252 C258 0.950 . S
H253 C259 0.950 . S
H254 C260 0.949 . S
C255 H250 0.950 . S
C255 C257 1.327 . S
C255 C261 1.429 . S
C256 C248 1.574 . S
C256 H251 0.949 . S
C256 C262 1.368 . S
C257 C241 1.349 . S
C257 H249 0.950 . S
C257 C255 1.327 . S
C258 C246 1.349 . S
C258 H252 0.950 . S
C258 C259 1.327 . S
C259 H253 0.950 . S
C259 C258 1.327 . S
C259 C263 1.429 . S
C260 C243 1.574 . S
C260 H254 0.949 . S
C260 C264 1.368 . S
C261 C242 1.429 . S
C261 C255 1.429 . S
C261 C262 1.523 . S
C262 C243 1.368 . S
C262 C256 1.368 . S
C262 C261 1.523 . S
C263 C247 1.429 . S
C263 C259 1.429 . S
C263 C264 1.523 . S
C264 C248 1.368 . S
C264 C260 1.368 . S
C264 C263 1.523 . S
H265 C240 0.950 . S
H266 C242 0.950 . S
H267 C243 0.949 . S
H268 C245 0.950 . S
H269 C247 0.950 . S
C270 C271 1.349 . S
C270 C272 1.327 . S
C270 H295 0.950 . S
C271 C270 1.349 . S
C271 C287 1.349 . S
C272 C270 1.327 . S
C272 C291 1.429 . S
C272 H296 0.950 . S
C273 C290 1.574 . S
C273 C292 1.368 . S
C273 H297 0.949 . S
H274 C278 0.949 . S
C275 C276 1.349 . S
C275 C277 1.327 . S
C275 H298 0.950 . S
C276 C275 1.349 . S
C276 C288 1.349 . S
C277 C275 1.327 . S
C277 C293 1.429 . S
C277 H299 0.950 . S
C278 H274 0.949 . S
C278 C286 1.574 . S
C278 C294 1.368 . S
H279 C287 0.950 . S
H280 C285 0.950 . S
H281 C286 0.949 . S
H282 C288 0.950 . S
H283 C289 0.950 . S
H284 C290 0.949 . S
C285 H280 0.950 . S
C285 C287 1.327 . S
C285 C291 1.429 . S
C286 C278 1.574 . S
C286 H281 0.949 . S
C286 C292 1.368 . S
C287 C271 1.349 . S
C287 H279 0.950 . S
C287 C285 1.327 . S
C288 C276 1.349 . S
C288 H282 0.950 . S
C288 C289 1.327 . S
C289 H283 0.950 . S
C289 C288 1.327 . S
C289 C293 1.429 . S
C290 C273 1.574 . S
C290 H284 0.949 . S
C290 C294 1.368 . S
C291 C272 1.429 . S
C291 C285 1.429 . S
C291 C292 1.523 . S
C292 C273 1.368 . S
C292 C286 1.368 . S
C292 C291 1.523 . S
C293 C277 1.429 . S
C293 C289 1.429 . S
C293 C294 1.523 . S
C294 C278 1.368 . S
C294 C290 1.368 . S
C294 C293 1.523 . S
H295 C270 0.950 . S
H296 C272 0.950 . S
H297 C273 0.949 . S
H298 C275 0.950 . S
H299 C277 0.950 . S
C300 C301 1.349 . S
C300 C302 1.327 . S
C300 H325 0.950 . S
C301 C300 1.349 . S
C301 C317 1.349 . S
C302 C300 1.327 . S
C302 C321 1.429 . S
C302 H326 0.950 . S
C303 C320 1.574 . S
C303 C322 1.368 . S
C303 H327 0.949 . S
H304 C308 0.949 . S
C305 C306 1.349 . S
C305 C307 1.327 . S
C305 H328 0.950 . S
C306 C305 1.349 . S
C306 C318 1.349 . S
C307 C305 1.327 . S
C307 C323 1.429 . S
C307 H329 0.950 . S
C308 H304 0.949 . S
C308 C316 1.574 . S
C308 C324 1.368 . S
H309 C317 0.950 . S
H310 C315 0.950 . S
H311 C316 0.949 . S
H312 C318 0.950 . S
H313 C319 0.950 . S
H314 C320 0.949 . S
C315 H310 0.950 . S
C315 C317 1.327 . S
C315 C321 1.429 . S
C316 C308 1.574 . S
C316 H311 0.949 . S
C316 C322 1.368 . S
C317 C301 1.349 . S
C317 H309 0.950 . S
C317 C315 1.327 . S
C318 C306 1.349 . S
C318 H312 0.950 . S
C318 C319 1.327 . S
C319 H313 0.950 . S
C319 C318 1.327 . S
C319 C323 1.429 . S
C320 C303 1.574 . S
C320 H314 0.949 . S
C320 C324 1.368 . S
C321 C302 1.429 . S
C321 C315 1.429 . S
C321 C322 1.523 . S
C322 C303 1.368 . S
C322 C316 1.368 . S
C322 C321 1.523 . S
C323 C307 1.429 . S
C323 C319 1.429 . S
C323 C324 1.523 . S
C324 C308 1.368 . S
C324 C320 1.368 . S
C324 C323 1.523 . S
H325 C300 0.950 . S
H326 C302 0.950 . S
H327 C303 0.949 . S
H328 C305 0.950 . S
H329 C307 0.950 . S
C330 C331 1.349 . S
C330 C332 1.327 . S
C330 H355 0.950 . S
C331 C330 1.349 . S
C331 C347 1.349 . S
C332 C330 1.327 . S
C332 C351 1.429 . S
C332 H356 0.950 . S
C333 C350 1.574 . S
C333 C352 1.368 . S
C333 H357 0.949 . S
H334 C338 0.949 . S
C335 C336 1.349 . S
C335 C337 1.327 . S
C335 H358 0.950 . S
C336 C335 1.349 . S
C336 C348 1.349 . S
C337 C335 1.327 . S
C337 C353 1.429 . S
C337 H359 0.950 . S
C338 H334 0.949 . S
C338 C346 1.574 . S
C338 C354 1.368 . S
H339 C347 0.950 . S
H340 C345 0.950 . S
H341 C346 0.949 . S
H342 C348 0.950 . S
H343 C349 0.950 . S
H344 C350 0.949 . S
C345 H340 0.950 . S
C345 C347 1.327 . S
C345 C351 1.429 . S
C346 C338 1.574 . S
C346 H341 0.949 . S
C346 C352 1.368 . S
C347 C331 1.349 . S
C347 H339 0.950 . S
C347 C345 1.327 . S
C348 C336 1.349 . S
C348 H342 0.950 . S
C348 C349 1.327 . S
C349 H343 0.950 . S
C349 C348 1.327 . S
C349 C353 1.429 . S
C350 C333 1.574 . S
C350 H344 0.949 . S
C350 C354 1.368 . S
C351 C332 1.429 . S
C351 C345 1.429 . S
C351 C352 1.523 . S
C352 C333 1.368 . S
C352 C346 1.368 . S
C352 C351 1.523 . S
C353 C337 1.429 . S
C353 C349 1.429 . S
C353 C354 1.523 . S
C354 C338 1.368 . S
C354 C350 1.368 . S
C354 C353 1.523 . S
H355 C330 0.950 . S
H356 C332 0.950 . S
H357 C333 0.949 . S
H358 C335 0.950 . S
H359 C337 0.950 . S
C360 C361 1.349 . S
C360 C362 1.327 . S
C360 H385 0.950 . S
C361 C360 1.349 . S
C361 C377 1.349 . S
C362 C360 1.327 . S
C362 C381 1.429 . S
C362 H386 0.950 . S
C363 C380 1.574 . S
C363 C382 1.368 . S
C363 H387 0.949 . S
H364 C368 0.949 . S
C365 C366 1.349 . S
C365 C367 1.327 . S
C365 H388 0.950 . S
C366 C365 1.349 . S
C366 C378 1.349 . S
C367 C365 1.327 . S
C367 C383 1.429 . S
C367 H389 0.950 . S
C368 H364 0.949 . S
C368 C376 1.574 . S
C368 C384 1.368 . S
H369 C377 0.950 . S
H370 C375 0.950 . S
H371 C376 0.949 . S
H372 C378 0.950 . S
H373 C379 0.950 . S
H374 C380 0.949 . S
C375 H370 0.950 . S
C375 C377 1.327 . S
C375 C381 1.429 . S
C376 C368 1.574 . S
C376 H371 0.949 . S
C376 C382 1.368 . S
C377 C361 1.349 . S
C377 H369 0.950 . S
C377 C375 1.327 . S
C378 C366 1.349 . S
C378 H372 0.950 . S
C378 C379 1.327 . S
C379 H373 0.950 . S
C379 C378 1.327 . S
C379 C383 1.429 . S
C380 C363 1.574 . S
C380 H374 0.949 . S
C380 C384 1.368 . S
C381 C362 1.429 . S
C381 C375 1.429 . S
C381 C382 1.523 . S
C382 C363 1.368 . S
C382 C376 1.368 . S
C382 C381 1.523 . S
C383 C367 1.429 . S
C383 C379 1.429 . S
C383 C384 1.523 . S
C384 C368 1.368 . S
C384 C380 1.368 . S
C384 C383 1.523 . S
H385 C360 0.950 . S
H386 C362 0.950 . S
H387 C363 0.949 . S
H388 C365 0.950 . S
H389 C367 0.950 . S
C390 C391 1.349 . S
C390 C392 1.327 . S
C390 H415 0.950 . S
C391 C390 1.349 . S
C391 C407 1.349 . S
C392 C390 1.327 . S
C392 C411 1.429 . S
C392 H416 0.950 . S
C393 C410 1.574 . S
C393 C412 1.368 . S
C393 H417 0.949 . S
H394 C398 0.949 . S
C395 C396 1.349 . S
C395 C397 1.327 . S
C395 H418 0.950 . S
C396 C395 1.349 . S
C396 C408 1.349 . S
C397 C395 1.327 . S
C397 C413 1.429 . S
C397 H419 0.950 . S
C398 H394 0.949 . S
C398 C406 1.574 . S
C398 C414 1.368 . S
H399 C407 0.950 . S
H400 C405 0.950 . S
H401 C406 0.949 . S
H402 C408 0.950 . S
H403 C409 0.950 . S
H404 C410 0.949 . S
C405 H400 0.950 . S
C405 C407 1.327 . S
C405 C411 1.429 . S
C406 C398 1.574 . S
C406 H401 0.949 . S
C406 C412 1.368 . S
C407 C391 1.349 . S
C407 H399 0.950 . S
C407 C405 1.327 . S
C408 C396 1.349 . S
C408 H402 0.950 . S
C408 C409 1.327 . S
C409 H403 0.950 . S
C409 C408 1.327 . S
C409 C413 1.429 . S
C410 C393 1.574 . S
C410 H404 0.949 . S
C410 C414 1.368 . S
C411 C392 1.429 . S
C411 C405 1.429 . S
C411 C412 1.523 . S
C412 C393 1.368 . S
C412 C406 1.368 . S
C412 C411 1.523 . S
C413 C397 1.429 . S
C413 C409 1.429 . S
C413 C414 1.523 . S
C414 C398 1.368 . S
C414 C410 1.368 . S
C414 C413 1.523 . S
H415 C390 0.950 . S
H416 C392 0.950 . S
H417 C393 0.949 . S
H418 C395 0.950 . S
H419 C397 0.950 . S
C420 C421 1.349 . S
C420 C422 1.327 . S
C420 H445 0.950 . S
C421 C420 1.349 . S
C421 C437 1.349 . S
C422 C420 1.327 . S
C422 C441 1.429 . S
C422 H446 0.950 . S
C423 C440 1.574 . S
C423 C442 1.368 . S
C423 H447 0.949 . S
H424 C428 0.949 . S
C425 C426 1.349 . S
C425 C427 1.327 . S
C425 H448 0.950 . S
C426 C425 1.349 . S
C426 C438 1.349 . S
C427 C425 1.327 . S
C427 C443 1.429 . S
C427 H449 0.950 . S
C428 H424 0.949 . S
C428 C436 1.574 . S
C428 C444 1.368 . S
H429 C437 0.950 . S
H430 C435 0.950 . S
H431 C436 0.949 . S
H432 C438 0.950 . S
H433 C439 0.950 . S
H434 C440 0.949 . S
C435 H430 0.950 . S
C435 C437 1.327 . S
C435 C441 1.429 . S
C436 C428 1.574 . S
C436 H431 0.949 . S
C436 C442 1.368 . S
C437 C421 1.349 . S
C437 H429 0.950 . S
C437 C435 1.327 . S
C438 C426 1.349 . S
C438 H432 0.950 . S
C438 C439 1.327 . S
C439 H433 0.950 . S
C439 C438 1.327 . S
C439 C443 1.429 . S
C440 C423 1.574 . S
C440 H434 0.949 . S
C440 C444 1.368 . S
C441 C422 1.429 . S
C441 C435 1.429 . S
C441 C442 1.523 . S
C442 C423 1.368 . S
C442 C436 1.368 . S
C442 C441 1.523 . S
C443 C427 1.429 . S
C443 C439 1.429 . S
C443 C444 1.523 . S
C444 C428 1.368 . S
C444 C440 1.368 . S
C444 C443 1.523 . S
H445 C420 0.950 . S
H446 C422 0.950 . S
H447 C423 0.949 . S
H448 C425 0.950 . S
H449 C427 0.950 . S
C96 C61 1.518 . S
C91 C41 1.495 . S
C121 C8 1.487 . S
C126 C84 1.508 . S
C151 C19 1.524 . S
C156 C60 1.548 . S
C181 C30 1.558 . S
C186 C83 1.558 . S
C216 C64 1.508 . S
C211 C5 1.275 . S
C246 C86 1.617 . S
C241 C18 1.630 . S
C271 C29 1.567 . S
C276 C65 1.527 . S
C301 C40 1.595 . S
C306 C85 1.591 . S
C336 C88 1.317 . S
C331 C16 1.120 . S
C366 C63 1.389 . S
C361 C27 1.277 . S
C396 C87 1.294 . S
C391 C38 1.097 . S
C421 C7 1.377 . S
C426 C62 1.371 . S
