# Generated by pormake.
# Topology soc, (4,6)-cn, num edge types: 1
# Building blocks:
#     Node 0, Type 0, BuildingBlock: ESEHIV_clean_sbu_0, # of connection points: 4
#     Node 1, Type 0, BuildingBlock: ESEHIV_clean_sbu_0, # of connection points: 4
#     Node 2, Type 0, BuildingBlock: ESEHIV_clean_sbu_0, # of connection points: 4
#     Node 3, Type 0, BuildingBlock: ESEHIV_clean_sbu_0, # of connection points: 4
#     Node 4, Type 0, BuildingBlock: ESEHIV_clean_sbu_0, # of connection points: 4
#     Node 5, Type 0, BuildingBlock: ESEHIV_clean_sbu_0, # of connection points: 4
#     Node 6, Type 0, BuildingBlock: ESEHIV_clean_sbu_0, # of connection points: 4
#     Node 7, Type 0, BuildingBlock: ESEHIV_clean_sbu_0, # of connection points: 4
#     Node 8, Type 0, BuildingBlock: ESEHIV_clean_sbu_0, # of connection points: 4
#     Node 9, Type 0, BuildingBlock: ESEHIV_clean_sbu_0, # of connection points: 4
#     Node 10, Type 0, BuildingBlock: ESEHIV_clean_sbu_0, # of connection points: 4
#     Node 11, Type 0, BuildingBlock: ESEHIV_clean_sbu_0, # of connection points: 4
#     Node 12, Type 1, BuildingBlock: BETDIP_clean_sbu_0, # of connection points: 6
#     Node 13, Type 1, BuildingBlock: BETDIP_clean_sbu_0, # of connection points: 6
#     Node 14, Type 1, BuildingBlock: BETDIP_clean_sbu_0, # of connection points: 6
#     Node 15, Type 1, BuildingBlock: BETDIP_clean_sbu_0, # of connection points: 6
#     Node 16, Type 1, BuildingBlock: BETDIP_clean_sbu_0, # of connection points: 6
#     Node 17, Type 1, BuildingBlock: BETDIP_clean_sbu_0, # of connection points: 6
#     Node 18, Type 1, BuildingBlock: BETDIP_clean_sbu_0, # of connection points: 6
#     Node 19, Type 1, BuildingBlock: BETDIP_clean_sbu_0, # of connection points: 6
#     Edge 20, Type (0, 1), BuildingBlock: UVAHIK_clean_linker_0, # of connection points: 2
#     Edge 21, Type (0, 1), BuildingBlock: UVAHIK_clean_linker_0, # of connection points: 2
#     Edge 22, Type (0, 1), BuildingBlock: UVAHIK_clean_linker_0, # of connection points: 2
#     Edge 23, Type (0, 1), BuildingBlock: UVAHIK_clean_linker_0, # of connection points: 2
#     Edge 24, Type (0, 1), BuildingBlock: UVAHIK_clean_linker_0, # of connection points: 2
#     Edge 25, Type (0, 1), BuildingBlock: UVAHIK_clean_linker_0, # of connection points: 2
#     Edge 26, Type (0, 1), BuildingBlock: UVAHIK_clean_linker_0, # of connection points: 2
#     Edge 27, Type (0, 1), BuildingBlock: UVAHIK_clean_linker_0, # of connection points: 2
#     Edge 28, Type (0, 1), BuildingBlock: UVAHIK_clean_linker_0, # of connection points: 2
#     Edge 29, Type (0, 1), BuildingBlock: UVAHIK_clean_linker_0, # of connection points: 2
#     Edge 30, Type (0, 1), BuildingBlock: UVAHIK_clean_linker_0, # of connection points: 2
#     Edge 31, Type (0, 1), BuildingBlock: UVAHIK_clean_linker_0, # of connection points: 2
#     Edge 32, Type (0, 1), BuildingBlock: UVAHIK_clean_linker_0, # of connection points: 2
#     Edge 33, Type (0, 1), BuildingBlock: UVAHIK_clean_linker_0, # of connection points: 2
#     Edge 34, Type (0, 1), BuildingBlock: UVAHIK_clean_linker_0, # of connection points: 2
#     Edge 35, Type (0, 1), BuildingBlock: UVAHIK_clean_linker_0, # of connection points: 2
#     Edge 36, Type (0, 1), BuildingBlock: UVAHIK_clean_linker_0, # of connection points: 2
#     Edge 37, Type (0, 1), BuildingBlock: UVAHIK_clean_linker_0, # of connection points: 2
#     Edge 38, Type (0, 1), BuildingBlock: UVAHIK_clean_linker_0, # of connection points: 2
#     Edge 39, Type (0, 1), BuildingBlock: UVAHIK_clean_linker_0, # of connection points: 2
#     Edge 40, Type (0, 1), BuildingBlock: UVAHIK_clean_linker_0, # of connection points: 2
#     Edge 41, Type (0, 1), BuildingBlock: UVAHIK_clean_linker_0, # of connection points: 2
#     Edge 42, Type (0, 1), BuildingBlock: UVAHIK_clean_linker_0, # of connection points: 2
#     Edge 43, Type (0, 1), BuildingBlock: UVAHIK_clean_linker_0, # of connection points: 2
#     Edge 44, Type (0, 1), BuildingBlock: UVAHIK_clean_linker_0, # of connection points: 2
#     Edge 45, Type (0, 1), BuildingBlock: UVAHIK_clean_linker_0, # of connection points: 2
#     Edge 46, Type (0, 1), BuildingBlock: UVAHIK_clean_linker_0, # of connection points: 2
#     Edge 47, Type (0, 1), BuildingBlock: UVAHIK_clean_linker_0, # of connection points: 2
#     Edge 48, Type (0, 1), BuildingBlock: UVAHIK_clean_linker_0, # of connection points: 2
#     Edge 49, Type (0, 1), BuildingBlock: UVAHIK_clean_linker_0, # of connection points: 2
#     Edge 50, Type (0, 1), BuildingBlock: UVAHIK_clean_linker_0, # of connection points: 2
#     Edge 51, Type (0, 1), BuildingBlock: UVAHIK_clean_linker_0, # of connection points: 2
#     Edge 52, Type (0, 1), BuildingBlock: UVAHIK_clean_linker_0, # of connection points: 2
#     Edge 53, Type (0, 1), BuildingBlock: UVAHIK_clean_linker_0, # of connection points: 2
#     Edge 54, Type (0, 1), BuildingBlock: UVAHIK_clean_linker_0, # of connection points: 2
#     Edge 55, Type (0, 1), BuildingBlock: UVAHIK_clean_linker_0, # of connection points: 2
#     Edge 56, Type (0, 1), BuildingBlock: UVAHIK_clean_linker_0, # of connection points: 2
#     Edge 57, Type (0, 1), BuildingBlock: UVAHIK_clean_linker_0, # of connection points: 2
#     Edge 58, Type (0, 1), BuildingBlock: UVAHIK_clean_linker_0, # of connection points: 2
#     Edge 59, Type (0, 1), BuildingBlock: UVAHIK_clean_linker_0, # of connection points: 2
#     Edge 60, Type (0, 1), BuildingBlock: UVAHIK_clean_linker_0, # of connection points: 2
#     Edge 61, Type (0, 1), BuildingBlock: UVAHIK_clean_linker_0, # of connection points: 2
#     Edge 62, Type (0, 1), BuildingBlock: UVAHIK_clean_linker_0, # of connection points: 2
#     Edge 63, Type (0, 1), BuildingBlock: UVAHIK_clean_linker_0, # of connection points: 2
#     Edge 64, Type (0, 1), BuildingBlock: UVAHIK_clean_linker_0, # of connection points: 2
#     Edge 65, Type (0, 1), BuildingBlock: UVAHIK_clean_linker_0, # of connection points: 2
#     Edge 66, Type (0, 1), BuildingBlock: UVAHIK_clean_linker_0, # of connection points: 2
#     Edge 67, Type (0, 1), BuildingBlock: UVAHIK_clean_linker_0, # of connection points: 2
# Relax obj value: 0.191
# Max RMSD: 0.250
# Mean RMSD: 0.183
data_MOF--net-soc--node1-ESEHIV_clean_sbu_0--node2-BETDIP_clean_sbu_0--edge1-UVAHIK_clean_linker_0
_symmetry_space_group_name_H-M    P1
_symmetry_Int_Tables_number       1
_symmetry_cell_setting            triclinic
loop_
_symmetry_equiv_pos_as_xyz
'x, y, z'
_cell_length_a     54.440779
_cell_length_b     67.523017
_cell_length_c     56.75624
_cell_angle_alpha  91.114486
_cell_angle_beta   91.668585
_cell_angle_gamma 72.771579
loop_
_atom_site_label
_atom_site_type_symbol
_atom_site_fract_x
_atom_site_fract_y
_atom_site_fract_z
_atom_type_partial_charge
Cu0 Cu 0.06626 0.05087 0.32665 0.0
N1 N 0.08553 0.06326 0.34625 0.0
N2 N 0.10685 0.0856 0.3574 0.0
C3 C 0.09048 0.08106 0.34138 0.0
C4 C 0.11237 0.06998 0.37305 0.0
C5 C 0.0991 0.05619 0.36612 0.0
O6 O 0.08891 0.02852 0.30871 0.0
C7 C 1.02191 0.07357 0.30005 0.0
O8 O 1.01234 0.05851 0.3052 0.0
H9 H 0.08317 0.08993 0.32567 0.0
H10 H 0.09985 0.04178 0.37454 0.0
N11 N 1.04594 0.03908 0.34408 0.0
N12 N 1.02412 0.01695 0.35247 0.0
C13 C 1.04143 0.02107 0.33832 0.0
C14 C 1.03112 0.04672 0.36264 0.0
C15 C 1.01753 0.03307 0.36785 0.0
C16 C 0.11174 0.0276 0.30339 0.0
O17 O 0.12043 0.04343 0.3083 0.0
H18 H 1.04973 0.01174 0.32319 0.0
H19 H 1.02972 0.06143 0.37126 0.0
O20 O 1.04484 0.07241 0.30659 0.0
H21 H 0.12533 0.06844 0.38819 0.0
H22 H 1.00361 0.03504 0.3816 0.0
Cu23 Cu 1.0539 0.04821 0.66775 0.0
N24 N 1.04072 0.02945 0.65098 0.0
N25 N 1.02228 1.0041 0.64625 0.0
C26 C 1.03004 0.01657 0.66171 0.0
C27 C 1.02826 0.00939 0.62482 0.0
C28 C 1.03982 0.02498 0.6278 0.0
O29 O 1.02566 0.06955 0.68132 0.0
C30 C 0.09949 0.02153 0.68511 0.0
O31 O 0.10608 0.02301 0.66328 0.0
H32 H 1.02789 0.0165 0.6806 0.0
H33 H 1.04726 0.03227 0.61406 0.0
N34 N 0.07178 0.06197 0.64971 0.0
N35 N 0.09617 0.0827 0.64341 0.0
C36 C 0.08869 0.07108 0.65916 0.0
C37 C 0.06823 0.06811 0.62711 0.0
C38 C 0.08334 0.08088 0.62316 0.0
C39 C 1.00822 0.07957 0.66696 0.0
O40 O 1.00965 0.07396 0.64462 0.0
H41 H 0.0941 0.07021 0.6777 0.0
H42 H 1.05461 0.0646 0.61475 0.0
O43 O 0.07716 0.03205 0.69157 0.0
H44 H 1.02503 1.00222 0.60826 0.0
H45 H 0.08411 0.08875 0.60689 0.0
Cu46 Cu 0.32144 0.09422 0.01661 0.0
N47 N 0.3306 0.06572 0.0114 0.0
N48 N 0.32745 0.03465 0.00051 0.0
C49 C 0.31683 0.05536 -0.00099 0.0
C50 C 0.34887 0.03189 0.01417 0.0
C51 C 0.35073 0.05111 0.02092 0.0
O52 O 0.28551 0.10468 0.02525 0.0
C53 C 0.30934 0.11201 0.97144 0.0
O54 O 0.28881 0.10576 0.97332 0.0
H55 H 0.29913 0.0629 0.98946 0.0
H56 H 0.36523 0.05417 0.03261 0.0
N57 N 0.34201 0.10043 0.04068 0.0
N58 N 0.35389 0.11308 0.07433 0.0
C59 C 0.33399 0.11108 0.06068 0.0
C60 C 0.36781 0.09564 0.0415 0.0
C61 C 0.37523 0.10338 0.06226 0.0
C62 C 0.27108 0.09551 0.03493 0.0
O63 O 0.24658 0.10559 0.03702 0.0
H64 H 0.31391 0.11752 0.06488 0.0
H65 H 0.38032 0.08714 0.02791 0.0
O66 O 0.3262 0.10819 0.98811 0.0
H67 H 0.3618 0.01707 0.01953 0.0
H68 H 0.39481 0.10187 0.06804 0.0
Cu69 Cu 0.06247 0.33731 0.01353 0.0
N70 N 0.07841 0.35338 -0.00347 0.0
N71 N 0.10217 0.36124 0.96867 0.0
C72 C 0.09288 0.34654 0.97753 0.0
C73 C 0.09291 0.37809 0.98264 0.0
C74 C 0.07822 0.37321 -0.00025 0.0
O75 O 0.08695 0.32135 0.03721 0.0
C76 C 1.03227 0.33414 0.97528 0.0
O77 O 1.02931 0.35415 0.97694 0.0
H78 H 0.09694 0.33085 0.97076 0.0
H79 H 0.06812 0.38346 0.01347 0.0
N80 N 1.03543 0.35351 0.03127 0.0
N81 N 1.00132 0.35884 0.05432 0.0
C82 C 1.01457 0.34772 0.03625 0.0
C83 C 1.03546 0.36895 0.04656 0.0
C84 C 1.01435 0.37241 0.06064 0.0
C85 C 0.11136 0.31607 0.03574 0.0
O86 O 0.12158 0.31783 0.01551 0.0
H87 H 1.01041 0.33455 0.02779 0.0
H88 H 1.05093 0.37587 0.04885 0.0
O89 O 1.04705 0.32223 0.99039 0.0
H90 H 0.09632 0.39295 0.98063 0.0
H91 H 1.01033 0.38286 0.07568 0.0
Cu92 Cu 0.83793 0.99467 0.98976 0.0
N93 N 0.86569 1.00299 0.97966 0.0
N94 N 0.88576 0.02413 0.96466 0.0
C95 C 0.86303 0.02179 0.97068 0.0
C96 C 0.90355 1.00603 0.97004 0.0
C97 C 0.8911 0.99304 0.97953 0.0
O98 O 0.81742 0.01847 0.0076 0.0
C99 C 0.83427 0.97598 0.94637 0.0
O100 O 0.85938 0.9711 0.94915 0.0
H101 H 0.84461 0.03345 0.96831 0.0
H102 H 0.89998 0.97749 0.9858 0.0
N103 N 0.84849 0.9717 0.00953 0.0
N104 N 0.84821 0.95003 0.03877 0.0
C105 C 0.83714 0.96896 0.02949 0.0
C106 C 0.86726 0.95387 0.00594 0.0
C107 C 0.86719 0.9405 0.02397 0.0
C108 C 0.82884 0.02291 0.02598 0.0
O109 O 0.85177 0.01064 0.03177 0.0
H110 H 0.82054 0.9804 0.0366 0.0
H111 H 0.87971 0.95059 0.99098 0.0
O112 O 0.82018 0.98694 0.96225 0.0
H113 H 0.92403 1.00257 0.96758 0.0
H114 H 0.88005 0.92494 0.02592 0.0
Cu115 Cu 0.06573 0.76731 -0.00172 0.0
N116 N 1.04905 0.75143 0.98031 0.0
N117 N 1.0229 0.7443 0.95249 0.0
C118 C 1.0309 0.7592 0.96358 0.0
C119 C 1.03686 0.72632 0.96234 0.0
C120 C 1.05302 0.73077 0.97955 0.0
O121 O 1.04296 0.78206 0.02331 0.0
C122 C 0.09007 0.79649 0.97791 0.0
O123 O 0.09235 0.80407 -0.00092 0.0
H124 H 1.02408 0.77549 0.95926 0.0
H125 H 0.06685 0.7197 0.99049 0.0
N126 N 0.09443 0.75048 0.01449 0.0
N127 N 0.13027 0.74433 0.03712 0.0
C128 C 0.11628 0.75544 0.01916 0.0
C129 C 0.09476 0.73536 0.02967 0.0
C130 C 0.11688 0.73143 0.04352 0.0
C131 C 1.01847 0.78875 0.02202 0.0
O132 O 1.00673 0.78953 0.00138 0.0
H133 H 0.12085 0.76799 0.01066 0.0
H134 H 0.07889 0.72909 0.03207 0.0
O135 O 0.07799 0.78305 0.97507 0.0
H136 H 1.03533 0.71111 0.9576 0.0
H137 H 0.12139 0.72126 0.05856 0.0
Cu138 Cu 0.55554 0.54996 0.82049 0.0
N139 N 0.57343 0.56431 0.83912 0.0
N140 N 0.59327 0.58814 0.84824 0.0
C141 C 0.57736 0.5822 0.83287 0.0
C142 C 0.59949 0.57337 0.86494 0.0
C143 C 0.58713 0.55867 0.85928 0.0
O144 O 0.57919 0.52885 0.8017 0.0
C145 C 0.50814 0.5707 0.79658 0.0
O146 O 0.49995 0.55546 0.80379 0.0
H147 H 0.56981 0.59006 0.8166 0.0
H148 H 0.58872 0.54455 0.86869 0.0
N149 N 0.53799 0.53626 0.83878 0.0
N150 N 0.51797 0.51272 0.84677 0.0
C151 C 0.53477 0.51784 0.83279 0.0
C152 C 0.52311 0.54309 0.85748 0.0
C153 C 0.51075 0.52856 0.86251 0.0
C154 C 0.60249 0.52797 0.79828 0.0
O155 O 0.61121 0.54315 0.80596 0.0
H156 H 0.54391 0.50886 0.81777 0.0
H157 H 0.5204 0.55802 0.86602 0.0
O158 O 0.53133 0.57035 0.80093 0.0
H159 H 0.6124 0.57299 0.87991 0.0
H160 H 0.49649 0.53017 0.87587 0.0
Cu161 Cu 0.55696 0.54869 0.15932 0.0
N162 N 0.53982 0.53328 0.14129 0.0
N163 N 0.51637 0.51154 0.13448 0.0
C164 C 0.5231 0.52438 0.1502 0.0
C165 C 0.52937 0.51248 0.11483 0.0
C166 C 0.54388 0.52587 0.11911 0.0
O167 O 0.53193 0.56976 0.17686 0.0
C168 C 0.5996 0.51613 0.1677 0.0
O169 O 0.60014 0.51804 0.14473 0.0
H170 H 0.51739 0.52626 0.16841 0.0
H171 H 0.55747 0.52902 0.10732 0.0
N172 N 0.57441 0.5627 0.14123 0.0
N173 N 0.59886 0.5832 0.13406 0.0
C174 C 0.59153 0.57182 0.15022 0.0
C175 C 0.57066 0.56847 0.11854 0.0
C176 C 0.58579 0.58107 0.11403 0.0
C177 C 0.51382 0.5815 0.16439 0.0
O178 O 0.51289 0.57766 0.14165 0.0
H179 H 0.59725 0.57107 0.16868 0.0
H180 H 0.55699 0.56467 0.10643 0.0
O181 O 0.58183 0.529 0.179 0.0
H182 H 0.52914 0.50358 0.0988 0.0
H183 H 0.58651 0.58854 0.09747 0.0
Cu184 Cu 0.80428 0.59465 0.49823 0.0
N185 N 0.80057 0.61498 0.47538 0.0
N186 N 0.8034 0.63241 0.44309 0.0
C187 C 0.81553 0.6165 0.45733 0.0
C188 C 0.78031 0.6413 0.45264 0.0
C189 C 0.77869 0.6306 0.47256 0.0
O190 O 0.79918 0.6087 0.52878 0.0
C191 C 0.77713 0.57423 0.46947 0.0
O192 O 0.78753 0.58249 0.45318 0.0
H193 H 0.83417 0.60563 0.45396 0.0
H194 H 0.76223 0.63341 0.48376 0.0
N195 N 0.83622 0.57461 0.49899 0.0
N196 N 0.8621 0.54441 0.5122 0.0
C197 C 0.84407 0.56227 0.51775 0.0
C198 C 0.84994 0.56433 0.48084 0.0
C199 C 0.86603 0.5457 0.48897 0.0
C200 C 0.81652 0.61688 0.53556 0.0
O201 O 0.83621 0.61495 0.52191 0.0
H202 H 0.83423 0.56513 0.53435 0.0
H203 H 0.84642 0.56884 0.46259 0.0
O204 O 0.7803 0.57875 0.49104 0.0
H205 H 0.76543 0.65431 0.44534 0.0
H206 H 0.87797 0.53335 0.47823 0.0
Cu207 Cu 0.56614 0.80736 0.50249 0.0
N208 N 0.5899 0.79179 0.48057 0.0
N209 N 0.61871 0.78445 0.4517 0.0
C210 C 0.60335 0.79947 0.46535 0.0
C211 C 0.61455 0.76668 0.45851 0.0
C212 C 0.59672 0.77126 0.47613 0.0
O213 O 0.58228 0.82443 0.52181 0.0
C214 C 0.5234 0.81174 0.47475 0.0
O215 O 0.53099 0.79171 0.47871 0.0
H216 H 0.60209 0.81574 0.46454 0.0
H217 H 0.58905 0.76037 0.48483 0.0
N218 N 0.55452 0.79122 0.52379 0.0
N219 N 0.52909 0.78303 0.55002 0.0
C220 C 0.53206 0.79758 0.53523 0.0
C221 C 0.56636 0.77207 0.53186 0.0
C222 C 0.55067 0.76691 0.54787 0.0
C223 C 0.60577 0.81639 0.52798 0.0
O224 O 0.61811 0.79779 0.52009 0.0
H225 H 0.51812 0.81262 0.53265 0.0
H226 H 0.5853 0.76266 0.5269 0.0
O227 O 0.53638 0.82293 0.48395 0.0
H228 H 0.62338 0.75147 0.45097 0.0
H229 H 0.55515 0.75263 0.55766 0.0
Cu230 Cu 0.33481 0.49422 0.50113 0.0
N231 N 0.35822 0.5078 0.49177 0.0
N232 N 0.37111 0.53249 0.47469 0.0
C233 C 0.35104 0.52543 0.47934 0.0
C234 C 0.39186 0.51866 0.48463 0.0
C235 C 0.38381 0.50348 0.49531 0.0
O236 O 0.31091 0.51464 0.52027 0.0
C237 C 0.33324 0.47939 0.4556 0.0
O238 O 0.35785 0.47772 0.45782 0.0
H239 H 0.33137 0.53274 0.47354 0.0
H240 H 0.39575 0.49034 0.505 0.0
N241 N 0.34967 0.47047 0.51906 0.0
N242 N 0.35358 0.44612 0.54633 0.0
C243 C 0.33853 0.46409 0.53716 0.0
C244 C 0.37245 0.45594 0.51644 0.0
C245 C 0.37495 0.44092 0.53326 0.0
C246 C 0.31983 0.51855 0.54021 0.0
O247 O 0.34307 0.50751 0.54692 0.0
H248 H 0.31954 0.47239 0.54321 0.0
H249 H 0.38619 0.45615 0.50313 0.0
O250 O 0.31871 0.48632 0.47294 0.0
H251 H 0.41136 0.51959 0.48451 0.0
H252 H 0.39137 0.42735 0.53577 0.0
Cu253 Cu 0.57029 0.26011 0.51636 0.0
N254 N 0.59599 0.24552 0.49602 0.0
N255 N 0.62674 0.24086 0.46945 0.0
C256 C 0.61064 0.25446 0.48391 0.0
C257 C 0.62196 0.22259 0.47263 0.0
C258 C 0.60295 0.22552 0.48902 0.0
O259 O 0.58664 0.27628 0.53746 0.0
C260 C 0.53366 0.26302 0.48154 0.0
O261 O 0.54477 0.24295 0.48303 0.0
H262 H 0.60876 0.27085 0.48516 0.0
H263 H 0.59434 0.214 0.4948 0.0
N264 N 0.55916 0.24242 0.53563 0.0
N265 N 0.53658 0.23319 0.56343 0.0
C266 C 0.53788 0.24826 0.54866 0.0
C267 C 0.57168 0.22292 0.54231 0.0
C268 C 0.5578 0.21719 0.55947 0.0
C269 C 0.60613 0.26467 0.5487 0.0
O270 O 0.61259 0.24462 0.54447 0.0
H271 H 0.52435 0.26367 0.5482 0.0
H272 H 0.59023 0.21382 0.53608 0.0
O273 O 0.54113 0.27501 0.49589 0.0
H274 H 0.63131 0.20816 0.46364 0.0
H275 H 0.56316 0.20257 0.56866 0.0
Tb276 Tb 0.28805 0.30359 0.2775 0.0
Tb277 Tb 0.3353 0.30538 0.25417 0.0
C278 C 0.24651 0.29764 0.28926 0.0
C279 C 0.23653 0.28002 0.29287 0.0
C280 C 0.21049 0.28384 0.29778 0.0
C281 C 0.20086 0.26746 0.30294 0.0
C282 C 0.21713 0.24691 0.30322 0.0
C283 C 0.24322 0.24314 0.29785 0.0
C284 C 0.25285 0.25959 0.29277 0.0
C285 C 0.32794 0.30142 0.30617 0.0
C286 C 0.32624 0.26265 0.25544 0.0
C287 C 0.37746 0.31104 0.24403 0.0
C288 C 0.3862 0.32814 0.23552 0.0
C289 C 0.41214 0.32439 0.23024 0.0
C290 C 0.42069 0.3401 0.22091 0.0
C291 C 0.4034 0.35987 0.21673 0.0
C292 C 0.37742 0.36367 0.22245 0.0
C293 C 0.36885 0.34787 0.23168 0.0
C294 C 0.29609 0.3075 0.22483 0.0
C295 C 0.29657 0.34667 0.27588 0.0
O296 O 0.25157 0.30108 0.2676 0.0
O297 O 0.26453 0.29925 0.3042 0.0
O298 O 0.32857 0.29255 0.28635 0.0
O299 O 0.30433 0.31106 0.31102 0.0
O300 O 0.30238 0.2727 0.26124 0.0
O301 O 0.34439 0.27198 0.2562 0.0
O302 O 0.36849 0.31306 0.26536 0.0
O303 O 0.36324 0.30402 0.22911 0.0
O304 O 0.29478 0.31613 0.24492 0.0
O305 O 0.31997 0.29901 0.21999 0.0
O306 O 0.31985 0.337 0.26821 0.0
O307 O 0.27886 0.33704 0.27756 0.0
H308 H 0.19769 0.29956 0.29811 0.0
H309 H 0.18079 0.27098 0.30735 0.0
H310 H 0.2562 0.22751 0.29763 0.0
H311 H 0.27309 0.25639 0.28918 0.0
H312 H 0.42576 0.30923 0.23309 0.0
H313 H 0.44088 0.33677 0.21702 0.0
H314 H 0.36361 0.37868 0.21926 0.0
H315 H 0.34868 0.35094 0.23546 0.0
Tb316 Tb 0.81653 0.31445 0.27111 0.0
Tb317 Tb 0.8003 0.28277 0.24033 0.0
C318 C 0.81979 0.34413 0.29736 0.0
C319 C 0.80689 0.35805 0.3167 0.0
C320 C 0.78543 0.37535 0.3122 0.0
C321 C 0.77626 0.39035 0.32978 0.0
C322 C 0.78842 0.38845 0.35219 0.0
C323 C 0.80901 0.3706 0.357 0.0
C324 C 0.81819 0.35564 0.33944 0.0
C325 C 0.84926 0.27705 0.26936 0.0
C326 C 0.77932 0.2909 0.29085 0.0
C327 C 0.79921 0.25073 0.21739 0.0
C328 C 0.80054 0.23942 0.19458 0.0
C329 C 0.82403 0.22568 0.18737 0.0
C330 C 0.82456 0.2111 0.1694 0.0
C331 C 0.80162 0.20982 0.15832 0.0
C332 C 0.77833 0.2245 0.16439 0.0
C333 C 0.77779 0.23908 0.18241 0.0
C334 C 0.76777 0.32055 0.2406 0.0
C335 C 0.83638 0.30785 0.21938 0.0
O336 O 0.80841 0.34648 0.27652 0.0
O337 O 0.8309 0.3246 0.30234 0.0
O338 O 0.82519 0.28147 0.27008 0.0
O339 O 0.85603 0.29387 0.27111 0.0
O340 O 0.7853 0.30854 0.2908 0.0
O341 O 0.78769 0.27652 0.27445 0.0
O342 O 0.82031 0.25365 0.22643 0.0
O343 O 0.77871 0.26622 0.22174 0.0
O344 O 0.79185 0.31564 0.24125 0.0
O345 O 0.76088 0.30389 0.23716 0.0
O346 O 0.82648 0.2921 0.21695 0.0
O347 O 0.8329 0.31994 0.23841 0.0
H348 H 0.77637 0.37781 0.29481 0.0
H349 H 0.76051 0.40398 0.32538 0.0
H350 H 0.81858 0.36849 0.37417 0.0
H351 H 0.83486 0.34258 0.34342 0.0
H352 H 0.84189 0.22534 0.19651 0.0
H353 H 0.84287 0.20021 0.16488 0.0
H354 H 0.76029 0.22386 0.15636 0.0
H355 H 0.75932 0.24921 0.18775 0.0
Tb356 Tb 0.84637 0.79519 0.25701 0.0
Tb357 Tb 0.80024 0.79159 0.23034 0.0
C358 C 0.88671 0.80256 0.27239 0.0
C359 C 0.89705 0.82029 0.2746 0.0
C360 C 0.92296 0.81678 0.28112 0.0
C361 C 0.93262 0.83346 0.28598 0.0
C362 C 0.91649 0.85399 0.28435 0.0
C363 C 0.89064 0.85742 0.27704 0.0
C364 C 0.88098 0.8407 0.27228 0.0
C365 C 0.80623 0.79698 0.2829 0.0
C366 C 0.80916 0.83435 0.2304 0.0
C367 C 0.75923 0.78422 0.21704 0.0
C368 C 0.7504 0.766 0.21074 0.0
C369 C 0.7423 0.75482 0.22803 0.0
C370 C 0.73232 0.73856 0.22155 0.0
C371 C 0.73011 0.73322 0.19765 0.0
C372 C 0.73871 0.74416 0.18047 0.0
C373 C 0.74858 0.7604 0.18692 0.0
C374 C 0.83989 0.7896 0.20376 0.0
C375 C 0.8386 0.75178 0.25562 0.0
O376 O 0.88426 0.79548 0.2511 0.0
O377 O 0.86674 0.80379 0.28515 0.0
O378 O 0.80554 0.80558 0.26321 0.0
O379 O 0.82986 0.78779 0.28896 0.0
O380 O 0.83255 0.82484 0.23872 0.0
O381 O 0.79093 0.82508 0.22996 0.0
O382 O 0.76522 0.78676 0.23917 0.0
O383 O 0.77535 0.78841 0.20274 0.0
O384 O 0.84106 0.78142 0.22382 0.0
O385 O 0.81604 0.79757 0.19747 0.0
O386 O 0.81569 0.76079 0.2459 0.0
O387 O 0.85604 0.76173 0.25846 0.0
H388 H 0.93556 0.80111 0.28321 0.0
H389 H 0.9525 0.83021 0.29187 0.0
H390 H 0.87778 0.87303 0.2753 0.0
H391 H 0.86084 0.84369 0.26746 0.0
H392 H 0.74319 0.75886 0.24653 0.0
H393 H 0.72561 0.7306 0.23522 0.0
H394 H 0.73768 0.74026 0.16194 0.0
H395 H 0.75447 0.76878 0.17314 0.0
Tb396 Tb 0.32335 0.78981 0.25839 0.0
Tb397 Tb 0.33324 0.82491 0.2299 0.0
C398 C 0.3222 0.75486 0.27219 0.0
C399 C 0.33155 0.73971 0.29137 0.0
C400 C 0.34643 0.71948 0.28565 0.0
C401 C 0.35288 0.70402 0.30274 0.0
C402 C 0.34448 0.70843 0.326 0.0
C403 C 0.33036 0.72891 0.33192 0.0
C404 C 0.32394 0.74439 0.31479 0.0
C405 C 0.29174 0.82688 0.26565 0.0
C406 C 0.35399 0.81616 0.28376 0.0
C407 C 0.33585 0.85927 0.21539 0.0
C408 C 0.3325 0.87278 0.19448 0.0
C409 C 0.30789 0.8842 0.18613 0.0
C410 C 0.30503 0.8994 0.16896 0.0
C411 C 0.32668 0.90363 0.15979 0.0
C412 C 0.35128 0.89164 0.16754 0.0
C413 C 0.35414 0.87647 0.18472 0.0
C414 C 0.3648 0.78763 0.22326 0.0
C415 C 0.30162 0.79877 0.20482 0.0
O416 O 0.33936 0.75742 0.25783 0.0
O417 O 0.30464 0.7723 0.27714 0.0
O418 O 0.30131 0.81961 0.24628 0.0
O419 O 0.2972 0.81241 0.28133 0.0
O420 O 0.34977 0.79783 0.28318 0.0
O421 O 0.34689 0.82944 0.26607 0.0
O422 O 0.3152 0.85648 0.2243 0.0
O423 O 0.35549 0.84243 0.21604 0.0
O424 O 0.35537 0.79543 0.24246 0.0
O425 O 0.35776 0.80136 0.20673 0.0
O426 O 0.30744 0.81647 0.2044 0.0
O427 O 0.3076 0.7861 0.22308 0.0
H428 H 0.35237 0.71542 0.26768 0.0
H429 H 0.36351 0.68841 0.29746 0.0
H430 H 0.3239 0.73291 0.34973 0.0
H431 H 0.31248 0.75985 0.3198 0.0
H432 H 0.29075 0.882 0.19347 0.0
H433 H 0.28577 0.90846 0.16366 0.0
H434 H 0.3684 0.89424 0.16065 0.0
H435 H 0.37334 0.8681 0.19097 0.0
Tb436 Tb 0.30817 0.8134 0.76589 0.0
Tb437 Tb 0.28378 0.78399 0.74115 0.0
C438 C 0.31658 0.84338 0.78792 0.0
C439 C 0.30526 0.85715 0.80785 0.0
C440 C 0.28408 0.87486 0.80434 0.0
C441 C 0.27499 0.88869 0.82298 0.0
C442 C 0.28689 0.88505 0.84544 0.0
C443 C 0.30748 0.867 0.84909 0.0
C444 C 0.31665 0.85325 0.83047 0.0
C445 C 0.33635 0.77448 0.76587 0.0
C446 C 0.2661 0.79758 0.79209 0.0
C447 C 0.27121 0.75558 0.71947 0.0
C448 C 0.27824 0.73991 0.70052 0.0
C449 C 0.30191 0.72423 0.70066 0.0
C450 C 0.3061 0.70775 0.68445 0.0
C451 C 0.2867 0.7067 0.66794 0.0
C452 C 0.2636 0.723 0.66717 0.0
C453 C 0.25944 0.7394 0.68332 0.0
C454 C 0.25626 0.82327 0.7416 0.0
C455 C 0.32698 0.79881 0.71559 0.0
O456 O 0.30285 0.84537 0.76828 0.0
O457 O 0.32818 0.82395 0.79297 0.0
O458 O 0.31233 0.78091 0.76829 0.0
O459 O 0.34558 0.79007 0.76513 0.0
O460 O 0.27802 0.81201 0.79043 0.0
O461 O 0.26845 0.78291 0.77581 0.0
O462 O 0.28553 0.75264 0.73881 0.0
O463 O 0.26333 0.77502 0.71314 0.0
O464 O 0.28005 0.81625 0.73867 0.0
O465 O 0.24662 0.80802 0.74319 0.0
O466 O 0.31531 0.7842 0.71755 0.0
O467 O 0.32385 0.81405 0.73129 0.0
H468 H 0.27488 0.87834 0.78711 0.0
H469 H 0.25901 0.90245 0.8197 0.0
H470 H 0.31734 0.86396 0.86609 0.0
H471 H 0.33315 0.83986 0.83368 0.0
H472 H 0.31678 0.72429 0.71374 0.0
H473 H 0.32424 0.69554 0.68527 0.0
H474 H 0.24812 0.72257 0.65494 0.0
H475 H 0.24097 0.75126 0.68303 0.0
Tb476 Tb 0.34058 0.28911 0.77379 0.0
Tb477 Tb 0.29062 0.28808 0.75071 0.0
C478 C 0.38502 0.29179 0.78274 0.0
C479 C 0.39504 0.30936 0.78814 0.0
C480 C 0.42104 0.30742 0.78479 0.0
C481 C 0.43077 0.32399 0.79029 0.0
C482 C 0.41463 0.34272 0.79939 0.0
C483 C 0.38851 0.34462 0.80255 0.0
C484 C 0.37877 0.32813 0.79685 0.0
C485 C 0.29939 0.30708 0.7983 0.0
C486 C 0.31152 0.32423 0.73718 0.0
C487 C 0.2459 0.28614 0.74111 0.0
C488 C 0.2349 0.26911 0.73592 0.0
C489 C 0.209 0.27356 0.72886 0.0
C490 C 0.19889 0.25757 0.72175 0.0
C491 C 0.21457 0.23683 0.72153 0.0
C492 C 0.24043 0.23242 0.72921 0.0
C493 C 0.25052 0.24844 0.73631 0.0
C494 C 0.33158 0.27081 0.72568 0.0
C495 C 0.32063 0.25235 0.78653 0.0
O496 O 0.37579 0.29102 0.76132 0.0
O497 O 0.37014 0.28797 0.7986 0.0
O498 O 0.30102 0.30763 0.77632 0.0
O499 O 0.32186 0.29852 0.80754 0.0
O500 O 0.33335 0.31391 0.74786 0.0
O501 O 0.29019 0.31894 0.73966 0.0
O502 O 0.25475 0.28724 0.7626 0.0
O503 O 0.26168 0.28872 0.72539 0.0
O504 O 0.33025 0.2698 0.74771 0.0
O505 O 0.3089 0.27955 0.71695 0.0
O506 O 0.29848 0.2627 0.77626 0.0
O507 O 0.34167 0.258 0.78395 0.0
H508 H 0.43385 0.29305 0.77804 0.0
H509 H 0.451 0.32205 0.78779 0.0
H510 H 0.37555 0.35896 0.80919 0.0
H511 H 0.35854 0.32999 0.79932 0.0
H512 H 0.19672 0.28945 0.72841 0.0
H513 H 0.17881 0.26146 0.71631 0.0
H514 H 0.2531 0.21667 0.72903 0.0
H515 H 0.27066 0.24476 0.74153 0.0
Tb516 Tb 0.81236 0.2879 0.77007 0.0
Tb517 Tb 0.82804 0.32138 0.74445 0.0
C518 C 0.80832 0.2562 0.78989 0.0
C519 C 0.82227 0.23945 0.80574 0.0
C520 C 0.84925 0.23246 0.80733 0.0
C521 C 0.86166 0.21599 0.82222 0.0
C522 C 0.84722 0.2065 0.83587 0.0
C523 C 0.82022 0.21378 0.83428 0.0
C524 C 0.80791 0.23006 0.81936 0.0
C525 C 0.7797 0.3255 0.77195 0.0
C526 C 0.85409 0.30612 0.79472 0.0
C527 C 0.83692 0.35388 0.73143 0.0
C528 C 0.83888 0.36568 0.7103 0.0
C529 C 0.82581 0.38695 0.70982 0.0
C530 C 0.82955 0.39923 0.69155 0.0
C531 C 0.84658 0.39051 0.67338 0.0
C532 C 0.8589 0.36901 0.67337 0.0
C533 C 0.85511 0.35669 0.69169 0.0
C534 C 0.85006 0.28293 0.73047 0.0
C535 C 0.78749 0.30243 0.72029 0.0
O536 O 0.81718 0.25598 0.76857 0.0
O537 O 0.80063 0.27486 0.79927 0.0
O538 O 0.8038 0.32087 0.77289 0.0
O539 O 0.77294 0.30869 0.77117 0.0
O540 O 0.84237 0.2915 0.79474 0.0
O541 O 0.84997 0.31999 0.7777 0.0
O542 O 0.81392 0.35307 0.73666 0.0
O543 O 0.8549 0.3363 0.73512 0.0
O544 O 0.84482 0.28924 0.75117 0.0
O545 O 0.8444 0.29869 0.71648 0.0
O546 O 0.79463 0.3195 0.72308 0.0
O547 O 0.79618 0.28642 0.7346 0.0
H548 H 0.86065 0.23965 0.79706 0.0
H549 H 0.88249 0.21079 0.8232 0.0
H550 H 0.80854 0.20659 0.84423 0.0
H551 H 0.78707 0.23523 0.81829 0.0
H552 H 0.81319 0.39421 0.72397 0.0
H553 H 0.81937 0.41565 0.69186 0.0
H554 H 0.87222 0.36182 0.6597 0.0
H555 H 0.86545 0.34029 0.69163 0.0
Tb556 Tb 0.77271 0.80163 0.75576 0.0
Tb557 Tb 0.82327 0.80182 0.73666 0.0
C558 C 0.72821 0.79899 0.76222 0.0
C559 C 0.71766 0.78193 0.76735 0.0
C560 C 0.69199 0.78639 0.7739 0.0
C561 C 0.68221 0.77045 0.78064 0.0
C562 C 0.698 0.74974 0.78096 0.0
C563 C 0.72368 0.74534 0.77395 0.0
C564 C 0.73344 0.76131 0.76725 0.0
C565 C 0.813 0.78636 0.78412 0.0
C566 C 0.80451 0.76392 0.72347 0.0
C567 C 0.86815 0.80402 0.7315 0.0
C568 C 0.87909 0.82094 0.7267 0.0
C569 C 0.90567 0.81762 0.72909 0.0
C570 C 0.91645 0.83322 0.7232 0.0
C571 C 0.90077 0.85237 0.71468 0.0
C572 C 0.87402 0.85575 0.71273 0.0
C573 C 0.86326 0.84019 0.71878 0.0
C574 C 0.78351 0.817 0.70784 0.0
C575 C 0.79082 0.83991 0.76827 0.0
O576 O 0.73793 0.79873 0.74136 0.0
O577 O 0.74293 0.80323 0.77892 0.0
O578 O 0.81213 0.78388 0.76218 0.0
O579 O 0.79026 0.79618 0.79116 0.0
O580 O 0.78185 0.77483 0.73148 0.0
O581 O 0.82528 0.76992 0.72764 0.0
O582 O 0.85774 0.80454 0.75208 0.0
O583 O 0.85393 0.79965 0.71441 0.0
O584 O 0.78375 0.81947 0.72986 0.0
O585 O 0.80663 0.80786 0.70117 0.0
O586 O 0.81357 0.82903 0.76035 0.0
O587 O 0.77018 0.8337 0.76435 0.0
H588 H 0.67963 0.80226 0.77429 0.0
H589 H 0.66247 0.77444 0.78622 0.0
H590 H 0.73627 0.72955 0.7737 0.0
H591 H 0.75339 0.75761 0.76235 0.0
H592 H 0.91815 0.80283 0.73514 0.0
H593 H 0.93712 0.83009 0.72472 0.0
H594 H 0.86143 0.87043 0.70653 0.0
H595 H 0.84263 0.84305 0.71695 0.0
C596 C 0.1425 0.10079 0.36559 0.0
C597 C 0.11771 0.10261 0.35632 0.0
C598 C 0.1538 0.11666 0.36252 0.0
C599 C 0.13863 0.17211 0.34614 0.0
H600 H 0.20952 0.15624 0.32648 0.0
C601 C 0.18218 0.22954 0.30221 0.0
C602 C 0.20695 0.22967 0.3098 0.0
C603 C 0.17202 0.21399 0.30942 0.0
C604 C 0.18981 0.16092 0.33222 0.0
H605 H 0.08487 0.12299 0.33766 0.0
H606 H 0.10462 0.15034 0.33188 0.0
H607 H 0.19021 0.12952 0.33751 0.0
H608 H 0.24052 0.21336 0.33085 0.0
H609 H 0.22285 0.18602 0.34314 0.0
H610 H 0.13808 0.20346 0.34034 0.0
C611 C 0.11537 0.13676 0.34164 0.0
C612 C 0.17875 0.14562 0.33862 0.0
C613 C 0.10414 0.12094 0.3447 0.0
C614 C 0.22152 0.21359 0.32439 0.0
C615 C 0.21138 0.19796 0.33152 0.0
C616 C 0.14964 0.18736 0.33964 0.0
C617 C 0.14048 0.13471 0.35021 0.0
C618 C 0.15291 0.15102 0.34535 0.0
C619 C 0.18641 0.19813 0.32431 0.0
C620 C 0.17523 0.18193 0.33231 0.0
H621 H 0.15353 0.08684 0.37452 0.0
H622 H 0.17305 0.1147 0.36959 0.0
H623 H 0.11884 0.17684 0.35167 0.0
H624 H 0.17062 0.24144 0.2906 0.0
H625 H 0.15291 0.21432 0.30319 0.0
C626 C 0.97842 0.09651 0.28752 0.0
C627 C 1.00511 0.09314 0.28998 0.0
C628 C 0.96214 0.11602 0.28126 0.0
C629 C 0.96028 0.17088 0.2848 0.0
H630 H 0.89766 0.17967 0.24684 0.0
C631 C 0.89359 0.2529 0.2658 0.0
C632 C 0.86717 0.2559 0.26827 0.0
C633 C 0.9108 0.23291 0.26557 0.0
C634 C 0.91502 0.17743 0.25759 0.0
H635 H 1.03579 0.10723 0.28629 0.0
H636 H 1.00747 0.14109 0.27496 0.0
H637 H 0.92739 0.1447 0.25063 0.0
H638 H 0.83787 0.24047 0.27225 0.0
H639 H 0.86795 0.20548 0.27196 0.0
H640 H 0.94783 0.20346 0.29206 0.0
C641 C 0.99904 0.12882 0.27843 0.0
C642 C 0.93204 0.15742 0.25975 0.0
C643 C 1.01529 0.10936 0.28477 0.0
C644 C 0.85817 0.23856 0.27016 0.0
C645 C 0.87537 0.21854 0.26988 0.0
C646 C 0.94332 0.19085 0.2826 0.0
C647 C 0.97222 0.13255 0.27724 0.0
C648 C 0.95479 0.15389 0.27353 0.0
C649 C 0.90192 0.2155 0.26784 0.0
C650 C 0.92041 0.19435 0.26913 0.0
H651 H 0.96994 0.08436 0.29141 0.0
H652 H 0.94157 0.11839 0.28067 0.0
H653 H 0.97733 0.1687 0.29596 0.0
H654 H 0.901 0.26603 0.26418 0.0
H655 H 0.93109 0.23108 0.26365 0.0
C656 C 1.02772 0.98124 0.33909 0.0
C657 C 1.0134 0.99989 0.34975 0.0
C658 C 1.01669 0.96537 0.33423 0.0
C659 C 0.95363 0.95655 0.32383 0.0
H660 H 0.99375 0.89871 0.32823 0.0
C661 C 0.91114 0.88842 0.30462 0.0
C662 C 0.92637 0.87161 0.29143 0.0
C663 C 0.92102 0.90431 0.31261 0.0
C664 C 0.98237 0.9148 0.32673 0.0
H665 H 0.97643 0.01616 0.36439 0.0
H666 H 0.95726 0.9882 0.35635 0.0
H667 H 1.0124 0.92555 0.34229 0.0
H668 H 0.96362 0.85882 0.27557 0.0
H669 H 0.98088 0.88645 0.28968 0.0
H670 H 0.92361 0.9457 0.30824 0.0
C671 C 0.97696 0.98604 0.3514 0.0
C672 C 0.99304 0.93019 0.3348 0.0
C673 C 0.98803 1.00197 0.35627 0.0
C674 C 0.95152 0.87132 0.28604 0.0
C675 C 0.96142 0.88714 0.29413 0.0
C676 C 0.94291 0.94113 0.31586 0.0
C677 C 0.99105 0.96767 0.34 0.0
C678 C 0.97894 0.95127 0.33317 0.0
C679 C 0.94638 0.9037 0.3077 0.0
C680 C 0.9573 0.9201 0.31694 0.0
H681 H 1.04742 0.979 0.33417 0.0
H682 H 1.02807 0.95154 0.32525 0.0
H683 H 0.94236 0.97263 0.322 0.0
H684 H 0.89183 0.889 0.30941 0.0
H685 H 0.90904 0.91678 0.3232 0.0
C686 C 0.1555 1.00551 0.2916 0.0
C687 C 0.12932 1.00773 0.29484 0.0
C688 C 0.17263 0.98608 0.28632 0.0
C689 C 0.18012 0.93072 0.29399 0.0
H690 H 0.2356 0.92247 0.25009 0.0
C691 C 0.24701 0.84929 0.27116 0.0
C692 C 0.27312 0.84738 0.26868 0.0
C693 C 0.22912 0.8689 0.27339 0.0
C694 C 0.22037 0.92457 0.2626 0.0
H695 H 0.10038 0.99142 0.29393 0.0
H696 H 0.1302 0.95767 0.28456 0.0
H697 H 0.20479 0.95684 0.25466 0.0
H698 H 0.30153 0.86391 0.26779 0.0
H699 H 0.2704 0.89828 0.27172 0.0
H700 H 0.1958 0.8986 0.30222 0.0
C701 C 0.13756 0.97087 0.28648 0.0
C702 C 0.20269 0.94424 0.26516 0.0
C703 C 0.12045 0.99027 0.2917 0.0
C704 C 0.28132 0.86518 0.26898 0.0
C705 C 0.26349 0.88479 0.27126 0.0
C706 C 0.19781 0.91109 0.29148 0.0
C707 C 0.16392 0.96848 0.28423 0.0
C708 C 0.18238 0.94753 0.2809 0.0
C709 C 0.23715 0.8869 0.27337 0.0
C710 C 0.21817 0.90777 0.27579 0.0
H711 H 0.16296 0.01864 0.2939 0.0
H712 H 0.19285 0.98472 0.28481 0.0
H713 H 0.16497 0.93283 0.30659 0.0
H714 H 0.24041 0.83564 0.27101 0.0
H715 H 0.20897 0.86996 0.27476 0.0
C716 C 0.10668 0.99661 0.71857 0.0
C717 C 0.11665 1.00568 0.70051 0.0
C718 C 0.12228 0.97903 0.7301 0.0
C719 C 0.18955 0.94612 0.73969 0.0
H720 H 0.15996 0.90056 0.73432 0.0
C721 C 0.25153 0.8607 0.73514 0.0
C722 C 0.24158 0.84533 0.74353 0.0
C723 C 0.23669 0.88151 0.73551 0.0
C724 C 0.16846 0.9131 0.73656 0.0
H725 H 0.1511 1.00456 0.68164 0.0
H726 H 0.17831 0.97411 0.7019 0.0
H727 H 0.13319 0.9356 0.72636 0.0
H728 H 0.2091 0.83952 0.76012 0.0
H729 H 0.18341 0.87585 0.76145 0.0
H730 H 0.22498 0.92355 0.74952 0.0
C731 C 0.15851 0.98045 0.70712 0.0
C732 C 0.15304 0.93324 0.73195 0.0
C733 C 0.14287 0.9978 0.6954 0.0
C734 C 0.21703 0.85112 0.75321 0.0
C735 C 0.20231 0.87192 0.75389 0.0
C736 C 0.20495 0.92596 0.74457 0.0
C737 C 0.14817 0.97045 0.724 0.0
C738 C 0.16356 0.94988 0.73286 0.0
C739 C 0.21168 0.88735 0.74452 0.0
C740 C 0.19477 0.90911 0.74243 0.0
H741 H 0.08652 1.00234 0.72284 0.0
H742 H 0.11388 0.97169 0.74317 0.0
H743 H 0.19809 0.95871 0.74071 0.0
H744 H 0.27042 0.85657 0.72752 0.0
H745 H 0.24446 0.89286 0.72785 0.0
C746 C 0.10767 0.11489 0.63622 0.0
C747 C 0.1118 0.09625 0.64849 0.0
C748 C 0.12104 0.12898 0.64291 0.0
C749 C 0.15404 0.14404 0.69473 0.0
H750 H 0.178 0.17624 0.64978 0.0
C751 C 0.21077 0.20068 0.72398 0.0
C752 C 0.20417 0.21996 0.71268 0.0
C753 C 0.20101 0.18485 0.71554 0.0
C754 C 0.17121 0.16749 0.66255 0.0
H755 H 0.13436 0.07724 0.6764 0.0
H756 H 0.15771 0.10173 0.68799 0.0
H757 H 0.1588 0.14967 0.63562 0.0
H758 H 0.18254 0.23751 0.6833 0.0
H759 H 0.16509 0.2101 0.66892 0.0
H760 H 0.16612 0.16197 0.72166 0.0
C761 C 0.14372 0.1057 0.67357 0.0
C762 C 0.16023 0.15226 0.65443 0.0
C763 C 0.13036 0.09165 0.66691 0.0
C764 C 0.18773 0.22296 0.69264 0.0
C765 C 0.178 0.20714 0.68419 0.0
C766 C 0.16498 0.15926 0.70284 0.0
C767 C 0.13885 0.12472 0.66197 0.0
C768 C 0.15142 0.14041 0.67044 0.0
C769 C 0.18447 0.1879 0.69556 0.0
C770 C 0.17358 0.17126 0.68686 0.0
H771 H 0.09336 0.11901 0.62211 0.0
H772 H 0.11666 0.14357 0.63372 0.0
H773 H 0.14703 0.13546 0.70754 0.0
H774 H 0.22325 0.19789 0.73954 0.0
H775 H 0.20659 0.17015 0.72458 0.0
C776 C 0.97158 0.11092 0.65745 0.0
C777 C 0.9883 0.09864 0.67442 0.0
C778 C 0.95443 0.12998 0.66375 0.0
C779 C 0.92127 0.16157 0.71321 0.0
H780 H 0.92234 0.20784 0.67423 0.0
C781 C 0.87426 0.24674 0.74139 0.0
C782 C 0.86323 0.26128 0.72386 0.0
C783 C 0.88772 0.22636 0.73531 0.0
C784 C 0.92138 0.19509 0.68508 0.0
H785 H 0.99933 0.09633 0.71153 0.0
H786 H 0.96905 0.12972 0.72258 0.0
H787 H 0.94863 0.17303 0.66401 0.0
H788 H 0.85684 0.26596 0.68631 0.0
H789 H 0.8798 0.23018 0.67553 0.0
H790 H 0.89382 0.18358 0.73418 0.0
C791 C 0.96936 0.12452 0.70439 0.0
C792 C 0.93656 0.17513 0.67926 0.0
C793 C 0.98673 0.10546 0.69805 0.0
C794 C 0.86539 0.25503 0.70013 0.0
C795 C 0.87866 0.23457 0.694 0.0
C796 C 0.90584 0.18155 0.71892 0.0
C797 C 0.95344 0.13715 0.68719 0.0
C798 C 0.93676 0.15818 0.6933 0.0
C799 C 0.89029 0.22003 0.71151 0.0
C800 C 0.90581 0.19859 0.70499 0.0
H801 H 0.97216 0.10612 0.63911 0.0
H802 H 0.94213 0.13927 0.65019 0.0
H803 H 0.92089 0.14874 0.72421 0.0
H804 H 0.87303 0.25127 0.75983 0.0
H805 H 0.89672 0.21576 0.74927 0.0
C806 C 0.99272 0.98332 0.63614 0.0
C807 C 1.01042 0.98836 0.65188 0.0
C808 C 0.98033 0.96876 0.64229 0.0
C809 C 0.96423 0.9434 0.69471 0.0
H810 H 0.95138 0.90407 0.6489 0.0
C811 C 0.93186 0.87309 0.72127 0.0
C812 C 0.91236 0.86857 0.70738 0.0
C813 C 0.94308 0.88807 0.71417 0.0
C814 C 0.9546 0.9151 0.66183 0.0
H815 H 1.0299 0.98135 0.68591 0.0
H816 H 1.00869 0.95588 0.69649 0.0
H817 H 0.97268 0.92925 0.63681 0.0
H818 H 0.88951 0.8761 0.67505 0.0
H819 H 0.90906 0.90234 0.66271 0.0
H820 H 0.94647 0.92908 0.71979 0.0
C821 C 1.00372 0.96357 0.67969 0.0
C822 C 0.96677 0.92956 0.6549 0.0
C823 C 1.01594 0.97816 0.67361 0.0
C824 C 0.90432 0.87938 0.68624 0.0
C825 C 0.91569 0.89425 0.67905 0.0
C826 C 0.95221 0.9289 0.70165 0.0
C827 C 0.98551 0.95885 0.66426 0.0
C828 C 0.9719 0.9438 0.67131 0.0
C829 C 0.93519 0.89877 0.69294 0.0
C830 C 0.94738 0.91451 0.68533 0.0
H831 H 0.98793 0.99104 0.61935 0.0
H832 H 0.96625 0.96565 0.63005 0.0
H833 H 0.96733 0.95442 0.70771 0.0
H834 H 0.93834 0.86513 0.73772 0.0
H835 H 0.95822 0.89107 0.72516 0.0
C836 C 0.3723 0.13216 0.10424 0.0
C837 C 0.3525 0.12391 0.09664 0.0
C838 C 0.37035 0.14354 0.12529 0.0
C839 C 0.32189 0.17555 0.16468 0.0
H840 H 0.38058 0.17236 0.20642 0.0
C841 C 0.31242 0.23171 0.24305 0.0
C842 C 0.3318 0.24158 0.245 0.0
C843 C 0.31585 0.21387 0.2291 0.0
C844 C 0.36402 0.17347 0.19491 0.0
H845 H 0.31565 0.12038 0.1059 0.0
H846 H 0.31214 0.14039 0.1425 0.0
H847 H 0.38479 0.14782 0.1735 0.0
H848 H 0.3707 0.23956 0.23517 0.0
H849 H 0.37651 0.20873 0.2106 0.0
H850 H 0.30132 0.20159 0.18539 0.0
C851 C 0.32902 0.13828 0.13196 0.0
C852 C 0.36644 0.15942 0.17606 0.0
C853 C 0.331 0.12687 0.11093 0.0
C854 C 0.35536 0.23238 0.23405 0.0
C855 C 0.35873 0.2146 0.22 0.0
C856 C 0.31949 0.18962 0.18343 0.0
C857 C 0.34853 0.14695 0.13923 0.0
C858 C 0.3455 0.16053 0.16052 0.0
C859 C 0.33868 0.20555 0.21669 0.0
C860 C 0.34063 0.18898 0.19857 0.0
H861 H 0.38899 0.1304 0.09359 0.0
H862 H 0.38554 0.15027 0.13023 0.0
H863 H 0.30549 0.17703 0.15283 0.0
H864 H 0.2941 0.23829 0.25138 0.0
H865 H 0.30023 0.20702 0.22734 0.0
C866 C 0.96629 0.36904 0.0832 0.0
C867 C 0.98091 0.35448 0.06709 0.0
C868 C 0.9483 0.36407 0.09722 0.0
C869 C 0.93326 0.31845 0.12102 0.0
H870 H 0.87022 0.35937 0.13976 0.0
C871 C 0.85934 0.2989 0.18102 0.0
C872 C 0.85082 0.31291 0.1998 0.0
C873 C 0.87348 0.30375 0.16292 0.0
C874 C 0.8878 0.34779 0.13471 0.0
H875 H 0.98695 0.32333 0.05272 0.0
H876 H 0.95519 0.31508 0.07641 0.0
H877 H 0.89756 0.36852 0.11117 0.0
H878 H 0.8501 0.34316 0.21405 0.0
H879 H 0.87458 0.35153 0.18261 0.0
H880 H 0.92349 0.29778 0.14467 0.0
C881 C 0.95811 0.3302 0.07863 0.0
C882 C 0.90352 0.35305 0.11839 0.0
C883 C 0.9762 0.3351 0.06474 0.0
C884 C 0.85641 0.33195 0.19991 0.0
C885 C 0.87028 0.33686 0.18177 0.0
C886 C 0.91745 0.31317 0.13721 0.0
C887 C 0.94428 0.34444 0.09539 0.0
C888 C 0.92663 0.33853 0.11157 0.0
C889 C 0.87908 0.3228 0.16314 0.0
C890 C 0.89475 0.32787 0.14449 0.0
H891 H 0.96899 0.38422 0.08531 0.0
H892 H 0.93813 0.37541 0.11004 0.0
H893 H 0.95111 0.30696 0.11649 0.0
H894 H 0.85537 0.28409 0.18041 0.0
H895 H 0.87992 0.29265 0.1487 0.0
C896 C 0.84513 0.91994 0.06138 0.0
C897 C 0.84057 0.94146 0.05946 0.0
C898 C 0.83762 0.91159 0.0813 0.0
C899 C 0.82262 0.92232 0.1439 0.0
H900 H 0.79402 0.87631 0.1363 0.0
C901 C 0.78418 0.86057 0.2012 0.0
C902 C 0.80531 0.85369 0.21695 0.0
C903 C 0.78398 0.87524 0.18405 0.0
C904 C 0.80156 0.88938 0.13879 0.0
H905 H 0.82476 0.97105 0.0772 0.0
H906 H 0.81149 0.95645 0.112 0.0
H907 H 0.80258 0.89362 0.10161 0.0
H908 H 0.84164 0.8583 0.22837 0.0
H909 H 0.84123 0.88378 0.19865 0.0
H910 H 0.82192 0.91782 0.18114 0.0
C911 C 0.82094 0.94606 0.09805 0.0
C912 C 0.80681 0.89911 0.11887 0.0
C913 C 0.82834 0.95443 0.07802 0.0
C914 C 0.82507 0.86317 0.21651 0.0
C915 C 0.82482 0.87787 0.19944 0.0
C916 C 0.81746 0.9125 0.16387 0.0
C917 C 0.82543 0.92454 0.09988 0.0
C918 C 0.81785 0.91543 0.12116 0.0
C919 C 0.80481 0.88342 0.18238 0.0
C920 C 0.80726 0.89569 0.16154 0.0
H921 H 0.85425 0.90951 0.04735 0.0
H922 H 0.84169 0.89492 0.08228 0.0
H923 H 0.83123 0.93479 0.14627 0.0
H924 H 0.7686 0.85364 0.20102 0.0
H925 H 0.76805 0.87948 0.17141 0.0
C926 C 0.15597 0.76805 0.04838 0.0
C927 C 0.15144 0.74864 0.0501 0.0
C928 C 0.17465 0.77304 0.06267 0.0
C929 C 0.2313 0.75077 0.10223 0.0
H930 H 0.21134 0.80592 0.13025 0.0
C931 C 0.28354 0.77311 0.18372 0.0
C932 C 0.28715 0.79291 0.18467 0.0
C933 C 0.26903 0.76764 0.16543 0.0
C934 C 0.2174 0.79057 0.12231 0.0
H935 H 0.16425 0.71893 0.0676 0.0
H936 H 0.19638 0.72785 0.09296 0.0
H937 H 0.18252 0.79619 0.1018 0.0
H938 H 0.2787 0.82233 0.16674 0.0
H939 H 0.25328 0.81274 0.13471 0.0
H940 H 0.26598 0.74508 0.12323 0.0
C941 C 0.18553 0.73916 0.08036 0.0
C942 C 0.20088 0.78497 0.10597 0.0
C943 C 0.16687 0.73411 0.06596 0.0
C944 C 0.27626 0.80698 0.16659 0.0
C945 C 0.26159 0.80152 0.14831 0.0
C946 C 0.24781 0.75636 0.11865 0.0
C947 C 0.1893 0.75884 0.07919 0.0
C948 C 0.20752 0.76495 0.09583 0.0
C949 C 0.25766 0.78183 0.14763 0.0
C950 C 0.24095 0.77628 0.12903 0.0
H951 H 0.14457 0.77982 0.03662 0.0
H952 H 0.17735 0.7882 0.06097 0.0
H953 H 0.2372 0.73534 0.09452 0.0
H954 H 0.29171 0.76181 0.19727 0.0
H955 H 0.26614 0.75245 0.16561 0.0
C956 C 0.29123 0.02252 0.98561 0.0
C957 C 0.31774 0.01883 0.98998 0.0
C958 C 0.28198 1.00753 0.97426 0.0
C959 C 0.30123 0.95203 0.95531 0.0
H960 H 0.25118 0.97214 0.90467 0.0
C961 C 0.27709 0.9218 0.8594 0.0
C962 C 0.27988 0.90096 0.86441 0.0
C963 C 0.27497 0.93632 0.87763 0.0
C964 C 0.2651 0.96626 0.9188 0.0
H965 H 0.35527 0.99641 0.9863 0.0
H966 H 0.33934 0.97044 0.96609 0.0
H967 H 0.26191 0.99677 0.93189 0.0
H968 H 0.28051 0.87928 0.89226 0.0
H969 H 0.27644 0.90476 0.92419 0.0
H970 H 0.30581 0.92164 0.94124 0.0
C971 C 0.32554 0.9847 0.97188 0.0
C972 C 0.27104 0.98038 0.93459 0.0
C973 C 0.33474 0.99962 0.98338 0.0
C974 C 0.27877 0.8952 0.88793 0.0
C975 C 0.2765 0.90977 0.90619 0.0
C976 C 0.29543 0.93793 0.93942 0.0
C977 C 0.29908 0.98857 0.96691 0.0
C978 C 0.2898 0.97346 0.95257 0.0
C979 C 0.27546 0.93035 0.90128 0.0
C980 C 0.27791 0.94494 0.92052 0.0
H981 H 0.27761 0.03703 0.99089 0.0
H982 H 0.26146 0.01088 0.97104 0.0
H983 H 0.31538 0.94617 0.96926 0.0
H984 H 0.27818 0.92666 0.84149 0.0
H985 H 0.27458 0.95193 0.87316 0.0
C986 C 0.12121 0.34307 0.93218 0.0
C987 C 0.11926 0.35894 0.9491 0.0
C988 C 0.13881 0.34 0.91404 0.0
C989 C 0.19922 0.35074 0.89872 0.0
H990 H 0.18426 0.33101 0.8369 0.0
C991 C 0.27228 0.33516 0.82354 0.0
C992 C 0.27612 0.31603 0.8119 0.0
C993 C 0.25155 0.34264 0.83859 0.0
C994 C 0.18872 0.33648 0.85411 0.0
H995 H 0.1341 0.38435 0.95963 0.0
H996 H 0.1642 0.37939 0.92763 0.0
H997 H 0.1507 0.34037 0.8662 0.0
H998 H 0.26234 0.28925 0.80738 0.0
H999 H 0.22565 0.30248 0.83306 0.0
H1000 H 0.23728 0.34676 0.88657 0.0
C1001 C 0.15244 0.36903 0.9287 0.0
C1002 C 0.16953 0.34178 0.87094 0.0
C1003 C 0.1349 0.37204 0.94694 0.0
C1004 C 0.25904 0.30446 0.81539 0.0
C1005 C 0.23819 0.31198 0.83023 0.0
C1006 C 0.21834 0.34559 0.88182 0.0
C1007 C 0.15485 0.3528 0.91217 0.0
C1008 C 0.17464 0.34867 0.89361 0.0
C1009 C 0.23437 0.33104 0.84222 0.0
C1010 C 0.21342 0.33812 0.85944 0.0
H1011 H 0.10924 0.33287 0.93294 0.0
H1012 H 0.14026 0.3272 0.90183 0.0
H1013 H 0.20403 0.35567 0.91607 0.0
H1014 H 0.2856 0.34411 0.82135 0.0
H1015 H 0.24907 0.35739 0.84754 0.0
C1016 C 0.90848 0.04036 0.9373 0.0
C1017 C 0.88967 0.04222 0.95433 0.0
C1018 C 0.91058 0.05795 0.92585 0.0
C1019 C 0.89236 0.11524 0.9299 0.0
H1020 H 0.88975 0.11314 0.86159 0.0
C1021 C 0.85024 0.18757 0.87384 0.0
C1022 C 0.85988 0.18872 0.85138 0.0
C1023 C 0.85992 0.16984 0.88745 0.0
C1024 C 0.89108 0.11394 0.88064 0.0
H1025 H 0.85931 0.06395 0.97362 0.0
H1026 H 0.86296 0.09458 0.95377 0.0
H1027 H 0.89608 0.08142 0.88383 0.0
H1028 H 0.88809 0.17253 0.82602 0.0
H1029 H 0.90536 0.14156 0.85003 0.0
H1030 H 0.88672 0.14782 0.9268 0.0
C1031 C 0.87605 0.0796 0.94918 0.0
C1032 C 0.89467 0.09574 0.89338 0.0
C1033 C 0.87376 0.06204 0.96037 0.0
C1034 C 0.88032 0.17212 0.8433 0.0
C1035 C 0.89002 0.15431 0.85695 0.0
C1036 C 0.88892 0.13341 0.91718 0.0
C1037 C 0.89419 0.07774 0.93152 0.0
C1038 C 0.89456 0.09632 0.91814 0.0
C1039 C 0.87956 0.1528 0.87899 0.0
C1040 C 0.88742 0.1331 0.8924 0.0
H1041 H 0.9209 0.02524 0.93226 0.0
H1042 H 0.9248 0.05608 0.91237 0.0
H1043 H 0.89262 0.11609 0.94899 0.0
H1044 H 0.83472 0.20022 0.88069 0.0
H1045 H 0.85117 0.16919 0.9042 0.0
C1046 C 1.00506 0.7329 0.91578 0.0
C1047 C 1.00319 0.74737 0.93426 0.0
C1048 C 0.98624 0.73647 0.89767 0.0
C1049 C 0.9323 0.77903 0.87147 0.0
H1050 H 0.91087 0.73373 0.84359 0.0
C1051 C 0.83575 0.79047 0.82167 0.0
C1052 C 0.83643 0.78112 0.79931 0.0
C1053 C 0.85775 0.78596 0.83624 0.0
C1054 C 0.91691 0.74647 0.85106 0.0
H1055 H 0.97971 0.77644 0.94883 0.0
H1056 H 0.94655 0.78238 0.91799 0.0
H1057 H 0.94592 0.72638 0.87312 0.0
H1058 H 0.86049 0.75964 0.77458 0.0
H1059 H 0.89908 0.75119 0.80057 0.0
H1060 H 0.90241 0.79912 0.85017 0.0
C1061 C 0.96295 0.76865 0.91674 0.0
C1062 C 0.93704 0.7423 0.86794 0.0
C1063 C 0.98189 0.76522 0.93456 0.0
C1064 C 0.85951 0.76702 0.79179 0.0
C1065 C 0.88149 0.76217 0.80662 0.0
C1066 C 0.91196 0.78318 0.85494 0.0
C1067 C 0.96495 0.75448 0.89785 0.0
C1068 C 0.94474 0.75858 0.87867 0.0
C1069 C 0.8808 0.77173 0.82892 0.0
C1070 C 0.90385 0.76699 0.84481 0.0
H1071 H 1.0214 0.71909 0.91503 0.0
H1072 H 0.98865 0.72529 0.88334 0.0
H1073 H 0.9381 0.79194 0.87873 0.0
H1074 H 0.81822 0.80146 0.82786 0.0
H1075 H 0.85667 0.79343 0.85341 0.0
C1076 C 0.15482 0.30295 0.05577 0.0
C1077 C 0.12802 0.31153 0.05744 0.0
C1078 C 0.17094 0.30104 0.07582 0.0
C1079 C 0.17501 0.32458 0.13407 0.0
H1080 H 0.23264 0.27543 0.14455 0.0
C1081 C 0.24876 0.31828 0.21281 0.0
C1082 C 0.27458 0.30791 0.20794 0.0
C1083 C 0.22907 0.31801 0.19625 0.0
C1084 C 0.21684 0.28941 0.14181 0.0
H1085 H 0.09719 0.32452 0.08176 0.0
H1086 H 0.12544 0.32137 0.11673 0.0
H1087 H 0.20204 0.27585 0.11228 0.0
H1088 H 0.29998 0.28943 0.18178 0.0
H1089 H 0.2663 0.28948 0.153 0.0
H1090 H 0.19032 0.33845 0.16306 0.0
C1091 C 0.13391 0.31608 0.09984 0.0
C1092 C 0.19921 0.28958 0.12331 0.0
C1093 C 0.11772 0.31769 0.07982 0.0
C1094 C 0.28028 0.29749 0.1862 0.0
C1095 C 0.26082 0.29733 0.16971 0.0
C1096 C 0.19287 0.32451 0.15247 0.0
C1097 C 0.16075 0.30793 0.09805 0.0
C1098 C 0.17828 0.30725 0.11897 0.0
C1099 C 0.23486 0.30743 0.17445 0.0
C1100 C 0.21435 0.30704 0.15634 0.0
H1101 H 0.16343 0.29812 0.03883 0.0
H1102 H 0.19153 0.29483 0.07377 0.0
H1103 H 0.15918 0.3385 0.13111 0.0
H1104 H 0.24378 0.32657 0.22935 0.0
H1105 H 0.20934 0.3259 0.20064 0.0
C1106 C 0.12131 0.81336 0.96101 0.0
C1107 C 0.10519 0.80056 0.95801 0.0
C1108 C 0.1377 0.81514 0.94302 0.0
C1109 C 0.15041 0.80369 0.87875 0.0
H1110 H 0.21915 0.80529 0.89634 0.0
C1111 C 0.2324 0.78558 0.81192 0.0
C1112 C 0.24843 0.79854 0.81196 0.0
C1113 C 0.21473 0.78713 0.82981 0.0
C1114 C 0.19995 0.80506 0.89112 0.0
H1115 H 0.0934 0.77998 0.93329 0.0
H1116 H 0.12202 0.78275 0.90241 0.0
H1117 H 0.18821 0.80624 0.92696 0.0
H1118 H 0.25857 0.82316 0.83128 0.0
H1119 H 0.22789 0.82566 0.86271 0.0
H1120 H 0.16241 0.80196 0.84295 0.0
C1121 C 0.12182 0.79177 0.91842 0.0
C1122 C 0.1821 0.80569 0.9087 0.0
C1123 C 0.10539 0.79009 0.9363 0.0
C1124 C 0.24659 0.81289 0.83066 0.0
C1125 C 0.22904 0.81429 0.84874 0.0
C1126 C 0.1683 0.80288 0.86123 0.0
C1127 C 0.1385 0.80411 0.92156 0.0
C1128 C 0.15711 0.80479 0.9028 0.0
C1129 C 0.21268 0.80157 0.8484 0.0
C1130 C 0.19339 0.80334 0.86717 0.0
H1131 H 0.12171 0.82167 0.97746 0.0
H1132 H 0.14989 0.82508 0.94603 0.0
H1133 H 0.13126 0.80346 0.87335 0.0
H1134 H 0.23318 0.77436 0.79785 0.0
H1135 H 0.20271 0.77689 0.82915 0.0
C1136 C 0.33389 0.13107 0.94831 0.0
C1137 C 0.31203 0.12428 0.95071 0.0
C1138 C 0.33575 0.14337 0.92921 0.0
C1139 C 0.29525 0.17937 0.88557 0.0
H1140 H 0.35911 0.171 0.85282 0.0
C1141 C 0.29982 0.22758 0.80393 0.0
C1142 C 0.32142 0.23478 0.80219 0.0
C1143 C 0.29946 0.21265 0.82059 0.0
C1144 C 0.34118 0.1737 0.86191 0.0
H1145 H 0.2752 0.12485 0.93458 0.0
H1146 H 0.27849 0.14618 0.90139 0.0
H1147 H 0.35711 0.14799 0.88492 0.0
H1148 H 0.3599 0.23144 0.81626 0.0
H1149 H 0.35913 0.20571 0.84547 0.0
H1150 H 0.27937 0.20525 0.863 0.0
C1151 C 0.29409 0.14219 0.91438 0.0
C1152 C 0.34004 0.16048 0.88032 0.0
C1153 C 0.29228 0.12984 0.93338 0.0
C1154 C 0.34298 0.22618 0.81699 0.0
C1155 C 0.34256 0.21133 0.83375 0.0
C1156 C 0.29641 0.19263 0.86727 0.0
C1157 C 0.31573 0.14927 0.91214 0.0
C1158 C 0.31706 0.16315 0.89238 0.0
C1159 C 0.32062 0.20462 0.83607 0.0
C1160 C 0.31938 0.19001 0.85516 0.0
H1161 H 0.34946 0.12709 0.96132 0.0
H1162 H 0.35259 0.14869 0.92814 0.0
H1163 H 0.27735 0.18212 0.89473 0.0
H1164 H 0.28292 0.23375 0.79273 0.0
H1165 H 0.28243 0.20756 0.82147 0.0
C1166 C 1.01125 0.30809 0.95785 0.0
C1167 C 1.01803 0.32655 0.95612 0.0
C1168 C 0.99542 0.30269 0.94033 0.0
C1169 C 0.97203 0.31404 0.87829 0.0
H1170 H 0.91208 0.29889 0.89682 0.0
C1171 C 0.88588 0.322 0.8143 0.0
C1172 C 0.8732 0.30663 0.81392 0.0
C1173 C 0.90458 0.32215 0.83169 0.0
C1174 C 0.92891 0.30282 0.89129 0.0
H1175 H 1.01426 0.35335 0.93428 0.0
H1176 H 0.98727 0.34395 0.90407 0.0
H1177 H 0.94402 0.30212 0.92677 0.0
H1178 H 0.87025 0.2794 0.83194 0.0
H1179 H 0.90298 0.27965 0.86228 0.0
H1180 H 0.95695 0.31507 0.84296 0.0
C1181 C 0.99399 0.33357 0.91876 0.0
C1182 C 0.94726 0.30462 0.90848 0.0
C1183 C 1.0094 0.33904 0.93624 0.0
C1184 C 0.87954 0.29153 0.83167 0.0
C1185 C 0.89828 0.2917 0.84914 0.0
C1186 C 0.95379 0.31222 0.86117 0.0
C1187 C 0.98651 0.31547 0.92061 0.0
C1188 C 0.96875 0.31074 0.90224 0.0
C1189 C 0.91124 0.30692 0.84926 0.0
C1190 C 0.93165 0.30707 0.86746 0.0
H1191 H 1.01747 0.29821 0.97302 0.0
H1192 H 0.99009 0.28859 0.94223 0.0
H1193 H 0.98859 0.31838 0.87277 0.0
H1194 H 0.8815 0.33396 0.80105 0.0
H1195 H 0.91372 0.33437 0.83144 0.0
C1196 C 0.83917 0.95968 0.90635 0.0
C1197 C 0.82334 0.96767 0.92553 0.0
C1198 C 0.83033 0.94998 0.88742 0.0
C1199 C 0.78494 0.92081 0.87273 0.0
H1200 H 0.8064 0.92561 0.80905 0.0
C1201 C 0.76723 0.86813 0.7961 0.0
C1202 C 0.78898 0.85891 0.78256 0.0
C1203 C 0.76693 0.88454 0.81172 0.0
C1204 C 0.80027 0.92407 0.82673 0.0
H1205 H 0.78545 0.9722 0.93956 0.0
H1206 H 0.7699 0.95501 0.90627 0.0
H1207 H 0.81342 0.94917 0.83985 0.0
H1208 H 0.82707 0.86029 0.77415 0.0
H1209 H 0.82651 0.88877 0.80119 0.0
H1210 H 0.7725 0.89526 0.85971 0.0
C1211 C 0.78925 0.95629 0.90604 0.0
C1212 C 0.80427 0.93758 0.84439 0.0
C1213 C 0.79807 0.96625 0.92501 0.0
C1214 C 0.80998 0.867 0.7843 0.0
C1215 C 0.8096 0.88345 0.79974 0.0
C1216 C 0.7809 0.90727 0.85502 0.0
C1217 C 0.80542 0.94786 0.88713 0.0
C1218 C 0.79735 0.93574 0.86775 0.0
C1219 C 0.78827 0.89221 0.81396 0.0
C1220 C 0.7892 0.90837 0.83195 0.0
H1221 H 0.85871 0.96055 0.90612 0.0
H1222 H 0.84346 0.94343 0.87338 0.0
H1223 H 0.77957 0.91884 0.89056 0.0
H1224 H 0.75075 0.86225 0.79525 0.0
H1225 H 0.75011 0.89106 0.82227 0.0
C1226 C 1.01444 0.78422 0.06563 0.0
C1227 C 1.00311 0.79228 0.04386 0.0
C1228 C 0.99928 0.78511 0.08545 0.0
C1229 C 0.93576 0.81213 0.1104 0.0
H1230 H 0.94442 0.76141 0.14493 0.0
C1231 C 0.85563 0.80191 0.16785 0.0
C1232 C 0.86147 0.79032 0.18867 0.0
C1233 C 0.87495 0.80289 0.15271 0.0
C1234 C 0.94198 0.77583 0.13582 0.0
H1235 H 0.967 0.80824 0.02626 0.0
H1236 H 0.94074 0.81018 0.06083 0.0
H1237 H 0.97442 0.76232 0.11399 0.0
H1238 H 0.89244 0.77068 0.20997 0.0
H1239 H 0.92668 0.77259 0.18347 0.0
H1240 H 0.90345 0.82574 0.13204 0.0
C1241 C 0.96134 0.80309 0.06258 0.0
C1242 C 0.95919 0.77633 0.11801 0.0
C1243 C 0.97641 0.80194 0.04271 0.0
C1244 C 0.88735 0.77979 0.1941 0.0
C1245 C 0.90691 0.78079 0.17881 0.0
C1246 C 0.91876 0.8117 0.1283 0.0
C1247 C 0.97248 0.79437 0.08411 0.0
C1248 C 0.95591 0.79436 0.10469 0.0
C1249 C 0.90092 0.79241 0.15786 0.0
C1250 C 0.92115 0.7934 0.14088 0.0
H1251 H 1.03492 0.77653 0.06716 0.0
H1252 H 1.00851 0.7784 0.1018 0.0
H1253 H 0.93295 0.82639 0.10084 0.0
H1254 H 0.83591 0.81022 0.16306 0.0
H1255 H 0.86933 0.8116 0.13661 0.0
C1256 C 0.26609 0.0602 0.03772 0.0
C1257 C 0.28051 0.07388 0.04316 0.0
C1258 C 0.27305 0.04033 0.04728 0.0
C1259 C 0.32552 1.00103 0.0792 0.0
H1260 H 0.26889 0.98354 0.10213 0.0
C1261 C 0.33944 0.93431 0.1458 0.0
C1262 C 0.32354 0.92127 0.14335 0.0
C1263 C 0.33556 0.95163 0.13142 0.0
C1264 C 0.28495 0.98797 0.09553 0.0
H1265 H 0.31327 0.07765 0.06314 0.0
H1266 H 0.32546 0.04298 0.08012 0.0
H1267 H 0.26003 0.01585 0.08078 0.0
H1268 H 0.29164 0.91596 0.12311 0.0
H1269 H 0.28485 0.94617 0.09806 0.0
H1270 H 0.35044 0.97323 0.09442 0.0
C1271 C 0.30913 0.04737 0.06794 0.0
C1272 C 0.27986 1.00656 0.08324 0.0
C1273 C 0.30219 0.06726 0.05823 0.0
C1274 C 0.304 0.92581 0.12576 0.0
C1275 C 0.3001 0.94315 0.11139 0.0
C1276 C 0.33062 0.98241 0.09156 0.0
C1277 C 0.29435 0.03377 0.06291 0.0
C1278 C 0.30005 0.01342 0.07502 0.0
C1279 C 0.31564 0.95644 0.11421 0.0
C1280 C 0.31039 0.97571 0.10002 0.0
H1281 H 0.24922 0.06497 0.02618 0.0
H1282 H 0.26149 0.03018 0.04264 0.0
H1283 H 0.34152 1.0057 0.07286 0.0
H1284 H 0.3544 0.93154 0.15939 0.0
H1285 H 0.34765 0.96165 0.13436 0.0
C1286 C 0.82847 0.04414 0.06233 0.0
C1287 C 0.81838 0.04237 0.0396 0.0
C1288 C 0.82161 0.06304 0.07449 0.0
C1289 C 0.79978 0.11909 0.0646 0.0
H1290 H 0.79399 0.12101 0.1326 0.0
C1291 C 0.7859 0.19436 0.12209 0.0
C1292 C 0.80164 0.19188 0.1426 0.0
C1293 C 0.78475 0.17707 0.10849 0.0
C1294 C 0.79565 0.12073 0.11361 0.0
H1295 H 0.79253 0.05897 0.01201 0.0
H1296 H 0.78039 0.09229 0.03342 0.0
H1297 H 0.79578 0.08906 0.1111 0.0
H1298 H 0.82842 0.16923 0.16486 0.0
H1299 H 0.82663 0.1393 0.14113 0.0
H1300 H 0.80006 0.15079 0.06732 0.0
C1301 C 0.79375 0.07893 0.04174 0.0
C1302 C 0.79664 0.10243 0.10128 0.0
C1303 C 0.80049 0.05984 0.02957 0.0
C1304 C 0.81638 0.17177 0.14901 0.0
C1305 C 0.81507 0.15456 0.13558 0.0
C1306 C 0.79868 0.1375 0.07698 0.0
C1307 C 0.80453 0.08079 0.06424 0.0
C1308 C 0.79946 0.10118 0.0767 0.0
C1309 C 0.79905 0.15695 0.11532 0.0
C1310 C 0.79733 0.13832 0.1017 0.0
H1311 H 0.84229 0.03098 0.07057 0.0
H1312 H 0.83059 0.0639 0.09161 0.0
H1313 H 0.80215 0.11862 0.0457 0.0
H1314 H 0.77437 0.20965 0.11665 0.0
H1315 H 0.77222 0.17939 0.09297 0.0
C1316 C 0.62807 0.60464 0.85428 0.0
C1317 C 0.60334 0.60545 0.84559 0.0
C1318 C 0.63861 0.6207 0.84972 0.0
C1319 C 0.62144 0.6754 0.83017 0.0
H1320 H 0.69192 0.66003 0.80944 0.0
C1321 C 0.66269 0.73287 0.78295 0.0
C1322 C 0.68785 0.73294 0.78915 0.0
C1323 C 0.65285 0.71748 0.79127 0.0
C1324 C 0.67232 0.66461 0.81547 0.0
H1325 H 0.56987 0.62425 0.8263 0.0
H1326 H 0.58829 0.65201 0.81806 0.0
H1327 H 0.67375 0.63324 0.82244 0.0
H1328 H 0.72235 0.71687 0.80914 0.0
H1329 H 0.70521 0.68993 0.82352 0.0
H1330 H 0.6199 0.70673 0.82288 0.0
C1331 C 0.59957 0.63905 0.82847 0.0
C1332 C 0.66191 0.64925 0.82299 0.0
C1333 C 0.58909 0.62301 0.83297 0.0
C1334 C 0.70302 0.71711 0.80371 0.0
C1335 C 0.69319 0.70168 0.81201 0.0
C1336 C 0.63183 0.69074 0.82263 0.0
C1337 C 0.62459 0.63797 0.83649 0.0
C1338 C 0.63625 0.65444 0.83017 0.0
C1339 C 0.66793 0.70176 0.80599 0.0
C1340 C 0.65729 0.68551 0.81494 0.0
H1341 H 0.63962 0.59129 0.86393 0.0
H1342 H 0.65783 0.61951 0.85639 0.0
H1343 H 0.60176 0.67998 0.83597 0.0
H1344 H 0.65062 0.74462 0.77146 0.0
H1345 H 0.63348 0.71777 0.78593 0.0
C1346 C 0.46304 0.59273 0.78767 0.0
C1347 C 0.4897 0.58967 0.78678 0.0
C1348 C 0.44564 0.6119 0.78175 0.0
C1349 C 0.44328 0.66683 0.78027 0.0
H1350 H 0.37652 0.67467 0.74961 0.0
C1351 C 0.37814 0.74803 0.75875 0.0
C1352 C 0.35219 0.75265 0.76461 0.0
C1353 C 0.39401 0.72762 0.75879 0.0
C1354 C 0.39504 0.67267 0.75834 0.0
H1355 H 0.51895 0.60384 0.77736 0.0
H1356 H 0.48866 0.63703 0.76657 0.0
H1357 H 0.40631 0.63964 0.75352 0.0
H1358 H 0.32213 0.73959 0.7744 0.0
H1359 H 0.35007 0.70363 0.77464 0.0
H1360 H 0.4321 0.69967 0.78535 0.0
C1361 C 0.48117 0.62483 0.77245 0.0
C1362 C 0.4121 0.65264 0.76056 0.0
C1363 C 0.49854 0.60575 0.77849 0.0
C1364 C 0.3421 0.73639 0.76977 0.0
C1365 C 0.35806 0.71585 0.76983 0.0
C1366 C 0.42633 0.68675 0.77802 0.0
C1367 C 0.45455 0.62836 0.77472 0.0
C1368 C 0.43646 0.64952 0.77151 0.0
C1369 C 0.38432 0.71132 0.76479 0.0
C1370 C 0.40205 0.68994 0.76698 0.0
H1371 H 0.45559 0.58066 0.79398 0.0
H1372 H 0.42529 0.61411 0.78381 0.0
H1373 H 0.46157 0.66498 0.78937 0.0
H1374 H 0.38633 0.76026 0.75439 0.0
H1375 H 0.41402 0.72461 0.75436 0.0
C1376 C 0.49441 0.48926 0.86164 0.0
C1377 C 0.50766 0.49538 0.84354 0.0
C1378 C 0.48362 0.47297 0.858 0.0
C1379 C 0.4627 0.44328 0.80963 0.0
H1380 H 0.46544 0.40305 0.85821 0.0
C1381 C 0.44108 0.36611 0.78989 0.0
C1382 C 0.42495 0.36025 0.80545 0.0
C1383 C 0.45043 0.38286 0.79537 0.0
C1384 C 0.46434 0.41429 0.84456 0.0
H1385 H 0.51982 0.48875 0.8073 0.0
H1386 H 0.50211 0.46023 0.80145 0.0
H1387 H 0.48322 0.43181 0.86649 0.0
H1388 H 0.40635 0.36707 0.83917 0.0
H1389 H 0.4228 0.39636 0.84879 0.0
H1390 H 0.44432 0.42555 0.78759 0.0
C1391 C 0.49952 0.46826 0.81832 0.0
C1392 C 0.47445 0.4308 0.84931 0.0
C1393 C 0.51011 0.48454 0.82187 0.0
C1394 C 0.41858 0.37135 0.82675 0.0
C1395 C 0.42816 0.38799 0.83235 0.0
C1396 C 0.45282 0.42673 0.80485 0.0
C1397 C 0.48588 0.46238 0.83619 0.0
C1398 C 0.47401 0.44537 0.83179 0.0
C1399 C 0.44403 0.394 0.81663 0.0
C1400 C 0.45375 0.41195 0.82217 0.0
H1401 H 0.4923 0.49703 0.87863 0.0
H1402 H 0.47313 0.46892 0.87214 0.0
H1403 H 0.46142 0.45448 0.7959 0.0
H1404 H 0.44617 0.35794 0.77329 0.0
H1405 H 0.46282 0.38702 0.78302 0.0
C1406 C 0.61121 0.49211 0.78134 0.0
C1407 C 0.62043 0.50857 0.78901 0.0
C1408 C 0.62831 0.47281 0.77574 0.0
C1409 C 0.69672 0.4451 0.76355 0.0
H1410 H 0.67975 0.39852 0.79029 0.0
C1411 C 0.7706 0.36396 0.77551 0.0
C1412 C 0.76182 0.34666 0.77104 0.0
C1413 C 0.75333 0.38397 0.77516 0.0
C1414 C 0.68463 0.41129 0.7824 0.0
H1415 H 0.65487 0.51795 0.79561 0.0
H1416 H 0.68469 0.48418 0.78612 0.0
H1417 H 0.64955 0.43307 0.79325 0.0
H1418 H 0.72841 0.33656 0.76226 0.0
H1419 H 0.69826 0.37143 0.76155 0.0
H1420 H 0.73211 0.4232 0.7531 0.0
C1421 C 0.66424 0.48624 0.78423 0.0
C1422 C 0.66728 0.43112 0.78405 0.0
C1423 C 0.64712 0.5056 0.78977 0.0
C1424 C 0.73562 0.34966 0.76594 0.0
C1425 C 0.71837 0.36961 0.7656 0.0
C1426 C 0.71414 0.4252 0.76191 0.0
C1427 C 0.65503 0.46947 0.77775 0.0
C1428 C 0.67312 0.44829 0.77474 0.0
C1429 C 0.72697 0.387 0.77042 0.0
C1430 C 0.70831 0.40809 0.77141 0.0
H1431 H 0.59076 0.49392 0.78037 0.0
H1432 H 0.62058 0.46033 0.77032 0.0
H1433 H 0.70169 0.45796 0.75599 0.0
H1434 H 0.79071 0.36202 0.7797 0.0
H1435 H 0.76052 0.39701 0.77923 0.0
C1436 C 0.63704 0.48428 0.16586 0.0
C1437 C 0.61829 0.49831 0.17938 0.0
C1438 C 0.65386 0.46665 0.17601 0.0
C1439 C 0.69569 0.43581 0.20295 0.0
H1440 H 0.66937 0.40299 0.24528 0.0
C1441 C 0.7613 0.35852 0.23754 0.0
C1442 C 0.75073 0.34197 0.2384 0.0
C1443 C 0.74548 0.37876 0.23438 0.0
C1444 C 0.67699 0.41193 0.23339 0.0
H1445 H 0.60281 0.50499 0.2144 0.0
H1446 H 0.63269 0.47412 0.23238 0.0
H1447 H 0.64142 0.43643 0.2318 0.0
H1448 H 0.71534 0.33351 0.23676 0.0
H1449 H 0.68761 0.36881 0.23009 0.0
H1450 H 0.73066 0.41102 0.20327 0.0
C1451 C 0.63405 0.47673 0.21376 0.0
C1452 C 0.66107 0.43124 0.22593 0.0
C1453 C 0.61707 0.49447 0.20352 0.0
C1454 C 0.72396 0.34604 0.23624 0.0
C1455 C 0.70809 0.3663 0.23266 0.0
C1456 C 0.71147 0.4165 0.21019 0.0
C1457 C 0.65257 0.46257 0.20005 0.0
C1458 C 0.6701 0.44321 0.21024 0.0
C1459 C 0.7187 0.3829 0.23137 0.0
C1460 C 0.70226 0.40415 0.22525 0.0
H1461 H 0.63851 0.48667 0.14719 0.0
H1462 H 0.66749 0.45592 0.16478 0.0
H1463 H 0.70344 0.44476 0.19118 0.0
H1464 H 0.78189 0.35582 0.23867 0.0
H1465 H 0.75437 0.39112 0.23389 0.0
C1466 C 0.61133 0.61455 0.12474 0.0
C1467 C 0.61471 0.59672 0.13836 0.0
C1468 C 0.6252 0.62853 0.1302 0.0
C1469 C 0.68226 0.63442 0.1636 0.0
H1470 H 0.64413 0.69286 0.16236 0.0
C1471 C 0.72295 0.69842 0.20329 0.0
C1472 C 0.718 0.71688 0.1905 0.0
C1473 C 0.71121 0.68327 0.19653 0.0
C1474 C 0.65517 0.67662 0.16254 0.0
H1475 H 0.63632 0.57918 0.16774 0.0
H1476 H 0.66015 0.60373 0.17751 0.0
H1477 H 0.62268 0.66719 0.15063 0.0
H1478 H 0.69656 0.73392 0.16071 0.0
H1479 H 0.67663 0.7074 0.14868 0.0
H1480 H 0.71473 0.64393 0.17566 0.0
C1481 C 0.64683 0.60687 0.16254 0.0
C1482 C 0.64286 0.66189 0.15577 0.0
C1483 C 0.63294 0.5929 0.15709 0.0
C1484 C 0.70109 0.71979 0.1708 0.0
C1485 C 0.68939 0.70468 0.16406 0.0
C1486 C 0.69459 0.64918 0.17038 0.0
C1487 C 0.64283 0.62502 0.14939 0.0
C1488 C 0.65624 0.64061 0.15619 0.0
C1489 C 0.6942 0.68627 0.17689 0.0
C1490 C 0.68119 0.67046 0.16989 0.0
H1491 H 0.59738 0.61809 0.11029 0.0
H1492 H 0.62194 0.64221 0.11948 0.0
H1493 H 0.69319 0.61816 0.16389 0.0
H1494 H 0.73603 0.69561 0.21844 0.0
H1495 H 0.71516 0.66934 0.20692 0.0
C1496 C 0.47649 0.61326 0.15966 0.0
C1497 C 0.49555 0.60039 0.17438 0.0
C1498 C 0.46063 0.63212 0.16801 0.0
C1499 C 0.45873 0.6721 0.21351 0.0
H1500 H 0.38867 0.6944 0.18948 0.0
C1501 C 0.39189 0.75365 0.23889 0.0
C1502 C 0.3794 0.76571 0.21972 0.0
C1503 C 0.4051 0.73266 0.23566 0.0
C1504 C 0.40823 0.68837 0.19629 0.0
H1505 H 0.51224 0.59688 0.20977 0.0
H1506 H 0.48408 0.62984 0.22458 0.0
H1507 H 0.41255 0.65846 0.18083 0.0
H1508 H 0.37098 0.76555 0.18221 0.0
H1509 H 0.39399 0.72878 0.17652 0.0
H1510 H 0.45423 0.70217 0.22894 0.0
C1511 C 0.48177 0.62543 0.2064 0.0
C1512 C 0.42194 0.6678 0.19132 0.0
C1513 C 0.49778 0.60649 0.19797 0.0
C1514 C 0.38049 0.75655 0.19725 0.0
C1515 C 0.39344 0.73551 0.19406 0.0
C1516 C 0.44488 0.69265 0.21868 0.0
C1517 C 0.46324 0.63861 0.19138 0.0
C1518 C 0.4476 0.65956 0.19935 0.0
C1519 C 0.40583 0.72336 0.21323 0.0
C1520 C 0.41972 0.7011 0.20964 0.0
H1521 H 0.47422 0.60908 0.14138 0.0
H1522 H 0.44692 0.64196 0.1558 0.0
H1523 H 0.47852 0.66637 0.21976 0.0
H1524 H 0.39136 0.76045 0.25639 0.0
H1525 H 0.4144 0.72362 0.25074 0.0
C1526 C 0.48276 0.5026 0.15666 0.0
C1527 C 0.50151 0.49763 0.13921 0.0
C1528 C 0.47008 0.48833 0.16293 0.0
C1529 C 0.47931 0.43221 0.16297 0.0
H1530 H 0.40704 0.44811 0.17816 0.0
C1531 C 0.42956 0.37144 0.18727 0.0
C1532 C 0.41253 0.37628 0.20611 0.0
C1533 C 0.43891 0.38661 0.17769 0.0
C1534 C 0.4273 0.44346 0.17419 0.0
H1535 H 0.52101 0.47391 0.11418 0.0
H1536 H 0.49863 0.44914 0.12486 0.0
H1537 H 0.4257 0.47407 0.16342 0.0
H1538 H 0.39171 0.4009 0.22951 0.0
H1539 H 0.40824 0.42741 0.21292 0.0
H1540 H 0.48113 0.40174 0.17406 0.0
C1541 C 0.49397 0.46402 0.13389 0.0
C1542 C 0.43797 0.45833 0.1657 0.0
C1543 C 0.5066 0.47832 0.12757 0.0
C1544 C 0.40465 0.39675 0.21487 0.0
C1545 C 0.41409 0.41193 0.20532 0.0
C1546 C 0.46868 0.41739 0.17149 0.0
C1547 C 0.47589 0.46872 0.15192 0.0
C1548 C 0.46413 0.45287 0.16005 0.0
C1549 C 0.43152 0.40699 0.18675 0.0
C1550 C 0.44256 0.42282 0.17726 0.0
H1551 H 0.47816 0.51745 0.16574 0.0
H1552 H 0.45636 0.49241 0.17697 0.0
H1553 H 0.49964 0.42758 0.15923 0.0
H1554 H 0.4356 0.35591 0.17982 0.0
H1555 H 0.45188 0.38236 0.16308 0.0
C1556 C 0.83559 0.6357 0.56587 0.0
C1557 C 0.81467 0.62895 0.55792 0.0
C1558 C 0.83395 0.64787 0.58627 0.0
C1559 C 0.78727 0.68446 0.62376 0.0
H1560 H 0.84612 0.67668 0.66657 0.0
C1561 C 0.78444 0.7383 0.7047 0.0
C1562 C 0.80622 0.74519 0.70871 0.0
C1563 C 0.78513 0.72211 0.68872 0.0
C1564 C 0.82956 0.67917 0.65472 0.0
H1565 H 0.77567 0.6295 0.56546 0.0
H1566 H 0.77276 0.65091 0.60125 0.0
H1567 H 0.84761 0.65205 0.63426 0.0
H1568 H 0.84605 0.73994 0.69953 0.0
H1569 H 0.84719 0.7119 0.67155 0.0
H1570 H 0.76944 0.71186 0.64383 0.0
C1571 C 0.79042 0.64679 0.59152 0.0
C1572 C 0.8304 0.66502 0.63621 0.0
C1573 C 0.79213 0.63444 0.57111 0.0
C1574 C 0.82896 0.73499 0.69697 0.0
C1575 C 0.82963 0.71883 0.68095 0.0
C1576 C 0.78645 0.69866 0.64225 0.0
C1577 C 0.81131 0.65373 0.59927 0.0
C1578 C 0.80943 0.66766 0.62026 0.0
C1579 C 0.80759 0.7124 0.6763 0.0
C1580 C 0.80774 0.69638 0.65777 0.0
H1581 H 0.85327 0.63177 0.55619 0.0
H1582 H 0.85027 0.65316 0.59149 0.0
H1583 H 0.7709 0.68712 0.61165 0.0
H1584 H 0.76661 0.7457 0.71352 0.0
H1585 H 0.76794 0.71734 0.68591 0.0
C1586 C 0.49333 0.80382 0.5746 0.0
C1587 C 0.50779 0.78455 0.56538 0.0
C1588 C 0.47305 0.80522 0.58986 0.0
C1589 C 0.44614 0.77293 0.62881 0.0
H1590 H 0.38638 0.82152 0.628 0.0
C1591 C 0.35556 0.77873 0.68364 0.0
C1592 C 0.34549 0.79736 0.69632 0.0
C1593 C 0.37449 0.777 0.66679 0.0
C1594 C 0.403 0.80789 0.62855 0.0
H1595 H 0.51172 0.75168 0.56462 0.0
H1596 H 0.47611 0.75409 0.59066 0.0
H1597 H 0.42074 0.81875 0.60039 0.0
H1598 H 0.34713 0.82893 0.70071 0.0
H1599 H 0.37975 0.82599 0.6712 0.0
H1600 H 0.42807 0.76201 0.65681 0.0
C1601 C 0.4808 0.76814 0.5867 0.0
C1602 C 0.42284 0.80632 0.61274 0.0
C1603 C 0.50124 0.76673 0.57165 0.0
C1604 C 0.3544 0.81434 0.6913 0.0
C1605 C 0.37306 0.81269 0.67428 0.0
C1606 C 0.42616 0.77442 0.64444 0.0
C1607 C 0.46643 0.7874 0.59618 0.0
C1608 C 0.44486 0.78887 0.61271 0.0
C1609 C 0.38359 0.79394 0.66197 0.0
C1610 C 0.40439 0.79199 0.64464 0.0
H1611 H 0.49804 0.81782 0.57044 0.0
H1612 H 0.46291 0.8203 0.59704 0.0
H1613 H 0.46286 0.75941 0.62975 0.0
H1614 H 0.34927 0.7653 0.6871 0.0
H1615 H 0.382 0.76238 0.6575 0.0
C1616 C 0.33071 0.44529 0.58333 0.0
C1617 C 0.34795 0.43493 0.56594 0.0
C1618 C 0.32543 0.4345 0.60242 0.0
C1619 C 0.3072 0.40598 0.6343 0.0
H1620 H 0.3634 0.36314 0.66294 0.0
C1621 C 0.29287 0.34761 0.70304 0.0
C1622 C 0.31198 0.34096 0.72078 0.0
C1623 C 0.29581 0.36074 0.68517 0.0
C1624 C 0.34749 0.3752 0.65536 0.0
H1625 H 0.37265 0.40489 0.55491 0.0
H1626 H 0.36343 0.38609 0.58806 0.0
H1627 H 0.37161 0.3824 0.62985 0.0
H1628 H 0.34832 0.34402 0.73451 0.0
H1629 H 0.3531 0.36716 0.70385 0.0
H1630 H 0.28317 0.39892 0.66016 0.0
C1631 C 0.35432 0.40266 0.58718 0.0
C1632 C 0.35215 0.38607 0.63611 0.0
C1633 C 0.35963 0.41346 0.56811 0.0
C1634 C 0.33333 0.34866 0.72099 0.0
C1635 C 0.33619 0.36181 0.70327 0.0
C1636 C 0.30252 0.39507 0.6536 0.0
C1637 C 0.33723 0.41304 0.60465 0.0
C1638 C 0.33209 0.40157 0.62526 0.0
C1639 C 0.31788 0.36754 0.68472 0.0
C1640 C 0.32263 0.37955 0.66441 0.0
H1641 H 0.32164 0.46185 0.58248 0.0
H1642 H 0.31247 0.44307 0.6157 0.0
H1643 H 0.29122 0.41768 0.62627 0.0
H1644 H 0.27628 0.34187 0.70227 0.0
H1645 H 0.28137 0.36475 0.67113 0.0
C1646 C 0.62195 0.29335 0.56759 0.0
C1647 C 0.622 0.2725 0.56624 0.0
C1648 C 0.63928 0.29937 0.58308 0.0
C1649 C 0.70198 0.27619 0.61401 0.0
H1650 H 0.68366 0.32413 0.65576 0.0
C1651 C 0.76449 0.28208 0.69537 0.0
C1652 C 0.7689 0.30114 0.70097 0.0
C1653 C 0.74672 0.28069 0.67761 0.0
C1654 C 0.68916 0.31083 0.64397 0.0
H1655 H 0.63925 0.242 0.58118 0.0
H1656 H 0.66867 0.25239 0.6078 0.0
H1657 H 0.65166 0.31846 0.62708 0.0
H1658 H 0.75769 0.33379 0.69226 0.0
H1659 H 0.72648 0.33132 0.66115 0.0
H1660 H 0.73914 0.26823 0.63098 0.0
C1661 C 0.65597 0.26406 0.59661 0.0
C1662 C 0.67083 0.30761 0.62754 0.0
C1663 C 0.63889 0.25812 0.58132 0.0
C1664 C 0.75491 0.31883 0.68833 0.0
C1665 C 0.73688 0.31746 0.67061 0.0
C1666 C 0.72015 0.27936 0.63036 0.0
C1667 C 0.65692 0.28461 0.59737 0.0
C1668 C 0.67685 0.28991 0.61279 0.0
C1669 C 0.73267 0.29832 0.66495 0.0
C1670 C 0.71384 0.29642 0.64598 0.0
H1671 H 0.60916 0.30482 0.55624 0.0
H1672 H 0.63945 0.31537 0.58334 0.0
H1673 H 0.70752 0.26268 0.60253 0.0
H1674 H 0.7748 0.26813 0.70472 0.0
H1675 H 0.74372 0.26575 0.674 0.0
C1676 C 0.76583 0.54174 0.47874 0.0
C1677 C 0.76652 0.55707 0.46259 0.0
C1678 C 0.76109 0.52336 0.47083 0.0
C1679 C 0.74076 0.49767 0.41768 0.0
H1680 H 0.79107 0.44845 0.44198 0.0
C1681 C 0.80059 0.41177 0.38232 0.0
C1682 C 0.78127 0.40583 0.36968 0.0
C1683 C 0.79437 0.42911 0.39728 0.0
C1684 C 0.77686 0.46203 0.43498 0.0
H1685 H 0.76075 0.56591 0.42586 0.0
H1686 H 0.75274 0.53414 0.41214 0.0
H1687 H 0.78641 0.48178 0.46131 0.0
H1688 H 0.74007 0.41311 0.36362 0.0
H1689 H 0.72912 0.44342 0.38993 0.0
H1690 H 0.73244 0.47813 0.39041 0.0
C1691 C 0.75569 0.53611 0.43088 0.0
C1692 C 0.7739 0.48114 0.44631 0.0
C1693 C 0.76048 0.55435 0.43875 0.0
C1694 C 0.75544 0.4174 0.3729 0.0
C1695 C 0.74918 0.43477 0.38796 0.0
C1696 C 0.74381 0.47857 0.40628 0.0
C1697 C 0.75681 0.52006 0.44666 0.0
C1698 C 0.7564 0.49934 0.43735 0.0
C1699 C 0.76861 0.44101 0.40011 0.0
C1700 C 0.7625 0.4606 0.41434 0.0
H1701 H 0.77044 0.54336 0.49723 0.0
H1702 H 0.76171 0.51145 0.48352 0.0
H1703 H 0.72677 0.5113 0.41052 0.0
H1704 H 0.82072 0.40351 0.37994 0.0
H1705 H 0.80992 0.43364 0.40588 0.0
C1706 C 0.63064 0.80489 0.42031 0.0
C1707 C 0.63595 0.78668 0.43363 0.0
C1708 C 0.64706 0.80667 0.40232 0.0
C1709 C 0.70028 0.77427 0.3649 0.0
H1710 H 0.71242 0.82683 0.35259 0.0
C1711 C 0.78767 0.78053 0.31392 0.0
C1712 C 0.78401 0.79611 0.29697 0.0
C1713 C 0.76767 0.77978 0.32844 0.0
C1714 C 0.70898 0.8121 0.35561 0.0
H1715 H 0.66329 0.75637 0.43894 0.0
H1716 H 0.69212 0.75957 0.40831 0.0
H1717 H 0.68193 0.82494 0.38263 0.0
H1718 H 0.75636 0.82304 0.28176 0.0
H1719 H 0.72123 0.82206 0.30774 0.0
H1720 H 0.72806 0.76134 0.33848 0.0
C1721 C 0.67485 0.7723 0.41103 0.0
C1722 C 0.69143 0.81098 0.37285 0.0
C1723 C 0.65832 0.77046 0.42877 0.0
C1724 C 0.7597 0.81086 0.29466 0.0
C1725 C 0.73968 0.81034 0.3096 0.0
C1726 C 0.71799 0.77536 0.34792 0.0
C1727 C 0.66941 0.79034 0.39731 0.0
C1728 C 0.68706 0.79196 0.37802 0.0
C1729 C 0.7435 0.79479 0.32672 0.0
C1730 C 0.72283 0.79421 0.34324 0.0
H1731 H 0.61346 0.81761 0.42341 0.0
H1732 H 0.64192 0.82072 0.39208 0.0
H1733 H 0.69705 0.75944 0.36773 0.0
H1734 H 0.80616 0.76888 0.31607 0.0
H1735 H 0.77138 0.7677 0.34151 0.0
C1736 C 0.34757 0.56772 0.46099 0.0
C1737 C 0.37014 0.55087 0.46163 0.0
C1738 C 0.34595 0.58512 0.44741 0.0
C1739 C 0.38491 0.61287 0.4165 0.0
H1740 H 0.32084 0.63692 0.38187 0.0
C1741 C 0.37254 0.67546 0.34448 0.0
C1742 C 0.34907 0.69144 0.34352 0.0
C1743 C 0.37604 0.65876 0.35978 0.0
C1744 C 0.33876 0.63059 0.39164 0.0
H1745 H 0.40892 0.53934 0.44873 0.0
H1746 H 0.40608 0.56972 0.42482 0.0
H1747 H 0.32537 0.607 0.40664 0.0
H1748 H 0.311 0.70239 0.3582 0.0
H1749 H 0.31726 0.67356 0.38509 0.0
H1750 H 0.39831 0.63647 0.40124 0.0
C1751 C 0.38968 0.56953 0.43507 0.0
C1752 C 0.34137 0.61339 0.40588 0.0
C1753 C 0.39133 0.5521 0.44877 0.0
C1754 C 0.32942 0.69051 0.35861 0.0
C1755 C 0.33289 0.67381 0.37384 0.0
C1756 C 0.38231 0.6301 0.40219 0.0
C1757 C 0.36683 0.58616 0.434 0.0
C1758 C 0.36442 0.60435 0.41861 0.0
C1759 C 0.35612 0.65758 0.37441 0.0
C1760 C 0.35914 0.63923 0.38966 0.0
H1761 H 0.33109 0.56753 0.47109 0.0
H1762 H 0.32826 0.59781 0.44749 0.0
H1763 H 0.40284 0.60646 0.42624 0.0
H1764 H 0.38818 0.67577 0.33327 0.0
H1765 H 0.39412 0.64649 0.35965 0.0
C1766 C 0.51567 0.25865 0.44169 0.0
C1767 C 0.51402 0.27062 0.46244 0.0
C1768 C 0.49636 0.2638 0.42421 0.0
C1769 C 0.43812 0.30517 0.40292 0.0
H1770 H 0.42308 0.25822 0.37192 0.0
C1771 C 0.34703 0.31186 0.34329 0.0
C1772 C 0.35015 0.2996 0.32265 0.0
C1773 C 0.36746 0.30971 0.35959 0.0
C1774 C 0.4272 0.27152 0.38016 0.0
H1775 H 0.49104 0.29794 0.48075 0.0
H1776 H 0.45655 0.30677 0.45033 0.0
H1777 H 0.45697 0.2523 0.40205 0.0
H1778 H 0.37733 0.27579 0.30261 0.0
H1779 H 0.41305 0.27179 0.33121 0.0
H1780 H 0.40758 0.32432 0.38125 0.0
C1781 C 0.47315 0.29348 0.44744 0.0
C1782 C 0.44676 0.26816 0.39749 0.0
C1783 C 0.49287 0.28844 0.46492 0.0
C1784 C 0.37432 0.28538 0.31841 0.0
C1785 C 0.39472 0.28305 0.33485 0.0
C1786 C 0.41829 0.30853 0.38568 0.0
C1787 C 0.47438 0.28091 0.42703 0.0
C1788 C 0.45277 0.2849 0.40901 0.0
C1789 C 0.39149 0.29506 0.35577 0.0
C1790 C 0.41271 0.29173 0.37396 0.0
H1791 H 0.53193 0.24501 0.439 0.0
H1792 H 0.49863 0.25412 0.40852 0.0
H1793 H 0.44223 0.31847 0.41116 0.0
H1794 H 0.32864 0.32303 0.34699 0.0
H1795 H 0.36421 0.31909 0.37553 0.0
C1796 C 0.64555 0.82241 0.54482 0.0
C1797 C 0.6188 0.82637 0.54564 0.0
C1798 C 0.65905 0.8287 0.5633 0.0
C1799 C 0.65768 0.83537 0.62648 0.0
H1800 H 0.71654 0.85509 0.61637 0.0
C1801 C 0.73614 0.83342 0.69944 0.0
C1802 C 0.76121 0.82429 0.69145 0.0
C1803 C 0.71529 0.83918 0.68327 0.0
C1804 C 0.70011 0.84965 0.61955 0.0
H1805 H 0.58497 0.84055 0.56609 0.0
H1806 H 0.60884 0.85122 0.59898 0.0
H1807 H 0.68551 0.85612 0.58419 0.0
H1808 H 0.78422 0.81438 0.66044 0.0
H1809 H 0.74828 0.82438 0.63252 0.0
H1810 H 0.67314 0.82778 0.66147 0.0
C1811 C 0.61923 0.84345 0.58379 0.0
C1812 C 0.68232 0.85031 0.60113 0.0
C1813 C 0.60558 0.8375 0.56494 0.0
C1814 C 0.76514 0.82145 0.66714 0.0
C1815 C 0.74451 0.82733 0.65109 0.0
C1816 C 0.6756 0.83462 0.64494 0.0
C1817 C 0.64617 0.83878 0.58328 0.0
C1818 C 0.66148 0.84243 0.60412 0.0
C1819 C 0.71931 0.83617 0.65888 0.0
C1820 C 0.69758 0.84096 0.64133 0.0
H1821 H 0.6562 0.81382 0.53017 0.0
H1822 H 0.67981 0.82465 0.5625 0.0
H1823 H 0.64187 0.82907 0.62925 0.0
H1824 H 0.73264 0.83585 0.71811 0.0
H1825 H 0.69608 0.84596 0.68979 0.0
C1826 C 0.65304 0.26278 0.45664 0.0
C1827 C 0.64404 0.24542 0.45304 0.0
C1828 C 0.66873 0.26785 0.44018 0.0
C1829 C 0.71216 0.24603 0.39146 0.0
H1830 H 0.69626 0.30325 0.37179 0.0
C1831 C 0.75614 0.26848 0.30918 0.0
C1832 C 0.76391 0.28657 0.31006 0.0
C1833 C 0.74219 0.26387 0.32741 0.0
C1834 C 0.7012 0.28726 0.37733 0.0
H1835 H 0.6448 0.21971 0.42926 0.0
H1836 H 0.67236 0.22843 0.40071 0.0
H1837 H 0.67113 0.29412 0.40244 0.0
H1838 H 0.76288 0.31413 0.33078 0.0
H1839 H 0.73866 0.30592 0.36288 0.0
H1840 H 0.74219 0.23911 0.36641 0.0
C1841 C 0.66738 0.23803 0.41639 0.0
C1842 C 0.68678 0.28203 0.39487 0.0
C1843 C 0.65159 0.23301 0.4328 0.0
C1844 C 0.75715 0.30008 0.32954 0.0
C1845 C 0.74319 0.29542 0.34789 0.0
C1846 C 0.72663 0.25127 0.37401 0.0
C1847 C 0.67594 0.25561 0.4198 0.0
C1848 C 0.69195 0.26132 0.40194 0.0
C1849 C 0.7357 0.27717 0.34708 0.0
C1850 C 0.72113 0.2719 0.36653 0.0
H1851 H 0.64806 0.27247 0.47222 0.0
H1852 H 0.67536 0.2813 0.44347 0.0
H1853 H 0.71688 0.23001 0.39682 0.0
H1854 H 0.76081 0.25779 0.29436 0.0
H1855 H 0.73627 0.24992 0.32597 0.0
C1856 C 0.79439 0.64177 0.40152 0.0
C1857 C 0.8116 0.63782 0.42092 0.0
C1858 C 0.80079 0.64943 0.38068 0.0
C1859 C 0.85398 0.66068 0.34849 0.0
H1860 H 0.797 0.7035 0.3208 0.0
C1861 C 0.8623 0.72485 0.28467 0.0
C1862 C 0.84262 0.73165 0.26743 0.0
C1863 C 0.86186 0.70921 0.30036 0.0
C1864 C 0.81306 0.69132 0.32799 0.0
H1865 H 0.84938 0.63785 0.43363 0.0
H1866 H 0.86046 0.65211 0.39732 0.0
H1867 H 0.78978 0.68463 0.3544 0.0
H1868 H 0.80868 0.72575 0.25153 0.0
H1869 H 0.80814 0.69842 0.27865 0.0
H1870 H 0.8774 0.66832 0.32234 0.0
C1871 C 0.84217 0.64886 0.39799 0.0
C1872 C 0.80892 0.68043 0.34733 0.0
C1873 C 0.83588 0.64077 0.4188 0.0
C1874 C 0.82398 0.72109 0.26476 0.0
C1875 C 0.82356 0.7055 0.2804 0.0
C1876 C 0.85818 0.67179 0.32914 0.0
C1877 C 0.82437 0.65382 0.37888 0.0
C1878 C 0.82925 0.6649 0.35785 0.0
C1879 C 0.84175 0.70009 0.29906 0.0
C1880 C 0.8377 0.6872 0.31866 0.0
H1881 H 0.77573 0.63924 0.40268 0.0
H1882 H 0.7869 0.65238 0.36614 0.0
H1883 H 0.87007 0.64875 0.35603 0.0
H1884 H 0.87696 0.73264 0.28724 0.0
H1885 H 0.87614 0.70539 0.31456 0.0
C1886 C 0.49834 0.83791 0.44526 0.0
C1887 C 0.50083 0.82031 0.45901 0.0
C1888 C 0.47866 0.84381 0.42798 0.0
C1889 C 0.41708 0.83501 0.40765 0.0
H1890 H 0.44032 0.83996 0.3447 0.0
C1891 C 0.37088 0.80987 0.32523 0.0
C1892 C 0.36742 0.82181 0.30472 0.0
C1893 C 0.38395 0.81479 0.34494 0.0
C1894 C 0.43335 0.83903 0.36221 0.0
H1895 H 0.48392 0.79588 0.46654 0.0
H1896 H 0.44979 0.80616 0.43684 0.0
H1897 H 0.46867 0.84051 0.37874 0.0
H1898 H 0.37479 0.84845 0.28893 0.0
H1899 H 0.39803 0.85685 0.32344 0.0
H1900 H 0.38228 0.83251 0.39109 0.0
C1901 C 0.46284 0.81547 0.4392 0.0
C1902 C 0.44956 0.8394 0.38171 0.0
C1903 C 0.48256 0.80946 0.45612 0.0
C1904 C 0.37714 0.83893 0.30446 0.0
C1905 C 0.3905 0.84372 0.32416 0.0
C1906 C 0.40095 0.83457 0.3882 0.0
C1907 C 0.46095 0.83241 0.42455 0.0
C1908 C 0.44195 0.8366 0.40457 0.0
C1909 C 0.39405 0.83167 0.3446 0.0
C1910 C 0.40928 0.83581 0.36523 0.0
H1911 H 0.51225 0.84649 0.4471 0.0
H1912 H 0.4776 0.85698 0.41698 0.0
H1913 H 0.4105 0.8332 0.42508 0.0
H1914 H 0.36359 0.79663 0.3261 0.0
H1915 H 0.38672 0.805 0.36028 0.0
C1916 C 0.33762 0.47075 0.41286 0.0
C1917 C 0.32338 0.47243 0.43342 0.0
C1918 C 0.33039 0.46203 0.39235 0.0
C1919 C 0.27881 0.44402 0.36293 0.0
H1920 H 0.33706 0.40436 0.33398 0.0
C1921 C 0.27281 0.37505 0.30302 0.0
C1922 C 0.29184 0.36773 0.28608 0.0
C1923 C 0.27274 0.39219 0.3173 0.0
C1924 C 0.32055 0.41568 0.34142 0.0
H1925 H 0.28961 0.46731 0.44833 0.0
H1926 H 0.27729 0.45141 0.41248 0.0
H1927 H 0.34431 0.42582 0.36643 0.0
H1928 H 0.32377 0.37405 0.26896 0.0
H1929 H 0.32316 0.40424 0.29334 0.0
H1930 H 0.25505 0.43314 0.33813 0.0
C1931 C 0.29385 0.45716 0.41216 0.0
C1932 C 0.32472 0.42801 0.36014 0.0
C1933 C 0.30095 0.46616 0.43272 0.0
C1934 C 0.30909 0.37912 0.28208 0.0
C1935 C 0.30885 0.39635 0.29617 0.0
C1936 C 0.2746 0.43158 0.34408 0.0
C1937 C 0.30896 0.45447 0.39195 0.0
C1938 C 0.30395 0.44227 0.37124 0.0
C1939 C 0.29156 0.4024 0.31476 0.0
C1940 C 0.29548 0.41718 0.33321 0.0
H1941 H 0.35474 0.47579 0.41273 0.0
H1942 H 0.34206 0.46071 0.37693 0.0
H1943 H 0.2624 0.45495 0.371 0.0
H1944 H 0.25925 0.36661 0.30656 0.0
H1945 H 0.25917 0.3964 0.33145 0.0
C1946 C 0.52427 0.22443 0.60265 0.0
C1947 C 0.51751 0.23459 0.58095 0.0
C1948 C 0.50578 0.22624 0.61985 0.0
C1949 C 0.43641 0.23711 0.62664 0.0
H1950 H 0.44784 0.25356 0.69093 0.0
C1951 C 0.35253 0.2699 0.68747 0.0
C1952 C 0.35487 0.26455 0.71137 0.0
C1953 C 0.3738 0.26426 0.67311 0.0
C1954 C 0.44453 0.24859 0.67318 0.0
H1955 H 0.48613 0.25436 0.56016 0.0
H1956 H 0.45376 0.25734 0.59002 0.0
H1957 H 0.48256 0.24723 0.66261 0.0
H1958 H 0.38142 0.24936 0.7392 0.0
H1959 H 0.4191 0.2391 0.71374 0.0
H1960 H 0.39856 0.23838 0.63692 0.0
C1961 C 0.47337 0.24803 0.59376 0.0
C1962 C 0.46436 0.24504 0.65697 0.0
C1963 C 0.49189 0.24646 0.57675 0.0
C1964 C 0.37913 0.25359 0.72078 0.0
C1965 C 0.40063 0.24782 0.70624 0.0
C1966 C 0.41676 0.24044 0.64282 0.0
C1967 C 0.48012 0.23797 0.6155 0.0
C1968 C 0.46022 0.23978 0.63339 0.0
C1969 C 0.39807 0.25293 0.68214 0.0
C1970 C 0.42029 0.2468 0.6661 0.0
H1971 H 0.54394 0.21538 0.60648 0.0
H1972 H 0.51147 0.21829 0.63642 0.0
H1973 H 0.43287 0.23265 0.60872 0.0
H1974 H 0.33414 0.2786 0.67977 0.0
H1975 H 0.3712 0.269 0.65485 0.0
C1976 C 0.87153 0.50647 0.5167 0.0
C1977 C 0.8693 0.52615 0.52663 0.0
C1978 C 0.874 0.4894 0.53118 0.0
C1979 C 0.88806 0.47076 0.59277 0.0
H1980 H 0.84096 0.43891 0.57721 0.0
C1981 C 0.85565 0.42329 0.66189 0.0
C1982 C 0.85233 0.40405 0.65526 0.0
C1983 C 0.86099 0.43618 0.64511 0.0
C1984 C 0.85455 0.44738 0.58164 0.0
H1985 H 0.86953 0.54309 0.55935 0.0
H1986 H 0.87378 0.51342 0.58464 0.0
H1987 H 0.84585 0.46467 0.54968 0.0
H1988 H 0.85218 0.38327 0.6257 0.0
H1989 H 0.86178 0.40577 0.59631 0.0
H1990 H 0.89634 0.45381 0.62496 0.0
C1991 C 0.87368 0.51108 0.56571 0.0
C1992 C 0.85739 0.46215 0.56583 0.0
C1993 C 0.87108 0.52813 0.55125 0.0
C1994 C 0.85474 0.39794 0.6314 0.0
C1995 C 0.86004 0.41091 0.61454 0.0
C1996 C 0.88525 0.45599 0.60855 0.0
C1997 C 0.87447 0.49163 0.55587 0.0
C1998 C 0.8738 0.4743 0.57141 0.0
C1999 C 0.86321 0.4302 0.62122 0.0
C2000 C 0.86806 0.44442 0.60341 0.0
H2001 H 0.86998 0.50446 0.49781 0.0
H2002 H 0.87487 0.47457 0.52306 0.0
H2003 H 0.90117 0.47962 0.59744 0.0
H2004 H 0.85432 0.42836 0.68016 0.0
H2005 H 0.86295 0.45104 0.65084 0.0
C2006 C 0.29078 0.55496 0.54254 0.0
C2007 C 0.30689 0.53735 0.55383 0.0
C2008 C 0.28325 0.57404 0.55451 0.0
C2009 C 0.28073 0.59899 0.61349 0.0
H2010 H 0.2978 0.64263 0.58024 0.0
C2011 C 0.29957 0.66809 0.66283 0.0
C2012 C 0.28929 0.68789 0.65307 0.0
C2013 C 0.2992 0.65039 0.64991 0.0
C2014 C 0.29255 0.63075 0.58967 0.0
H2015 H 0.32607 0.52539 0.58683 0.0
H2016 H 0.31272 0.55848 0.60774 0.0
H2017 H 0.29827 0.61057 0.55947 0.0
H2018 H 0.27161 0.70454 0.62166 0.0
H2019 H 0.2706 0.6736 0.59919 0.0
H2020 H 0.27545 0.61897 0.6438 0.0
C2021 C 0.30595 0.5577 0.58971 0.0
C2022 C 0.29272 0.61241 0.57774 0.0
C2023 C 0.3137 0.53876 0.5777 0.0
C2024 C 0.27944 0.68952 0.62977 0.0
C2025 C 0.27902 0.67179 0.61684 0.0
C2026 C 0.28047 0.61733 0.62539 0.0
C2027 C 0.29143 0.57568 0.57801 0.0
C2028 C 0.28735 0.59618 0.58967 0.0
C2029 C 0.28847 0.65206 0.62693 0.0
C2030 C 0.28695 0.63323 0.61376 0.0
H2031 H 0.28536 0.55431 0.52409 0.0
H2032 H 0.27184 0.58765 0.54516 0.0
H2033 H 0.27623 0.58682 0.62305 0.0
H2034 H 0.30706 0.66628 0.68081 0.0
H2035 H 0.30712 0.63538 0.65802 0.0
loop_
_geom_bond_atom_site_label_1
_geom_bond_atom_site_label_2
_geom_bond_distance
_geom_bond_site_symmetry_2
_ccdc_geom_bond_type
Cu0 N1 1.999 . S
Cu0 O6 1.974 . S
Cu0 N11 1.985 1_455 S
Cu0 O20 1.959 1_455 S
N1 Cu0 1.999 . S
N1 C3 1.263 . S
N1 C5 1.389 . S
N2 C3 1.358 . S
N2 C4 1.400 . S
C3 N1 1.263 . S
C3 N2 1.358 . S
C3 H9 0.930 . S
C4 N2 1.400 . S
C4 C5 1.351 . S
C4 H21 0.930 . S
C5 N1 1.389 . S
C5 C4 1.351 . S
C5 H10 0.930 . S
O6 Cu0 1.974 . S
O6 C16 1.282 . S
C7 O8 1.261 . S
C7 O20 1.251 . S
O8 C7 1.261 . S
H9 C3 0.930 . S
H10 C5 0.930 . S
N11 Cu0 1.985 1_655 S
N11 C13 1.335 . S
N11 C14 1.390 . S
N12 C13 1.345 . S
N12 C15 1.336 1_545 S
C13 N11 1.335 . S
C13 N12 1.345 . S
C13 H18 0.930 . S
C14 N11 1.390 . S
C14 C15 1.346 1_545 S
C14 H19 0.930 1_645 S
C15 N12 1.336 1_565 S
C15 C14 1.346 1_565 S
C15 H22 0.929 . S
C16 O6 1.282 . S
C16 O17 1.216 . S
O17 C16 1.216 . S
H18 C13 0.930 . S
H19 C14 0.930 1_465 S
O20 Cu0 1.959 1_655 S
O20 C7 1.251 . S
H21 C4 0.930 . S
H22 C15 0.929 . S
Cu23 N24 1.999 1_455 S
Cu23 O29 1.974 1_455 S
Cu23 N34 1.985 . S
Cu23 O43 1.959 . S
N24 Cu23 1.999 1_655 S
N24 C26 1.263 . S
N24 C28 1.389 1_545 S
N25 C26 1.358 . S
N25 C27 1.400 1_545 S
C26 N24 1.263 . S
C26 N25 1.358 . S
C26 H32 0.930 . S
C27 N25 1.400 1_565 S
C27 C28 1.351 . S
C27 H44 0.930 . S
C28 N24 1.389 1_565 S
C28 C27 1.351 . S
C28 H33 0.930 1_655 S
O29 Cu23 1.974 1_655 S
O29 C39 1.282 . S
C30 O31 1.261 . S
C30 O43 1.251 . S
O31 C30 1.261 . S
H32 C26 0.930 . S
H33 C28 0.930 1_455 S
N34 Cu23 1.985 . S
N34 C36 1.335 . S
N34 C37 1.390 . S
N35 C36 1.345 . S
N35 C38 1.336 . S
C36 N34 1.335 . S
C36 N35 1.345 . S
C36 H41 0.930 . S
C37 N34 1.390 . S
C37 C38 1.346 . S
C37 H42 0.897 1_455 S
C38 N35 1.336 . S
C38 C37 1.346 . S
C38 H45 0.929 . S
C39 O29 1.282 . S
C39 O40 1.216 . S
O40 C39 1.216 . S
H41 C36 0.930 . S
H42 C37 0.897 1_655 S
O43 Cu23 1.959 . S
O43 C30 1.251 . S
H44 C27 0.930 . S
H45 C38 0.929 . S
Cu46 N47 1.999 1_554 S
Cu46 O52 1.974 . S
Cu46 N57 1.985 . S
Cu46 O66 1.959 1_554 S
N47 Cu46 1.999 1_556 S
N47 C49 1.263 . S
N47 C51 1.389 . S
N48 C49 1.358 . S
N48 C50 1.400 . S
C49 N47 1.263 . S
C49 N48 1.358 . S
C49 H55 0.953 . S
C50 N48 1.400 . S
C50 C51 1.351 . S
C50 H67 0.930 . S
C51 N47 1.389 . S
C51 C50 1.351 . S
C51 H56 0.930 . S
O52 Cu46 1.974 . S
O52 C62 1.282 . S
C53 O54 1.261 . S
C53 O66 1.251 . S
O54 C53 1.261 . S
H55 C49 0.953 . S
H56 C51 0.930 . S
N57 Cu46 1.985 . S
N57 C59 1.335 . S
N57 C60 1.390 . S
N58 C59 1.345 . S
N58 C61 1.336 . S
C59 N57 1.335 . S
C59 N58 1.345 . S
C59 H64 0.930 . S
C60 N57 1.390 . S
C60 C61 1.346 . S
C60 H65 0.930 . S
C61 N58 1.336 . S
C61 C60 1.346 . S
C61 H68 0.929 . S
C62 O52 1.282 . S
C62 O63 1.216 . S
O63 C62 1.216 . S
H64 C59 0.930 . S
H65 C60 0.930 . S
O66 Cu46 1.959 1_556 S
O66 C53 1.251 . S
H67 C50 0.930 . S
H68 C61 0.929 . S
Cu69 N70 1.999 1_654 S
Cu69 O75 1.974 1_655 S
Cu69 N80 1.985 . S
Cu69 O89 1.959 1_554 S
N70 Cu69 1.999 1_456 S
N70 C72 1.263 . S
N70 C74 1.389 . S
N71 C72 1.358 . S
N71 C73 1.400 . S
C72 N70 1.263 . S
C72 N71 1.358 . S
C72 H78 0.930 . S
C73 N71 1.400 . S
C73 C74 1.351 . S
C73 H90 0.930 . S
C74 N70 1.389 . S
C74 C73 1.351 . S
C74 H79 0.891 1_455 S
O75 Cu69 1.974 1_455 S
O75 C85 1.282 . S
C76 O77 1.261 . S
C76 O89 1.251 . S
O77 C76 1.261 . S
H78 C72 0.930 . S
H79 C74 0.891 1_655 S
N80 Cu69 1.985 . S
N80 C82 1.335 . S
N80 C83 1.390 . S
N81 C82 1.345 . S
N81 C84 1.336 . S
C82 N80 1.335 . S
C82 N81 1.345 . S
C82 H87 0.930 . S
C83 N80 1.390 . S
C83 C84 1.346 . S
C83 H88 0.930 1_655 S
C84 N81 1.336 . S
C84 C83 1.346 . S
C84 H91 0.929 . S
C85 O75 1.282 . S
C85 O86 1.216 . S
O86 C85 1.216 . S
H87 C82 0.930 . S
H88 C83 0.930 1_455 S
O89 Cu69 1.959 1_556 S
O89 C76 1.251 . S
H90 C73 0.930 . S
H91 C84 0.929 . S
Cu92 N93 1.999 1_554 S
Cu92 O98 1.974 . S
Cu92 N103 1.985 1_545 S
Cu92 O112 1.959 1_544 S
N93 Cu92 1.999 1_556 S
N93 C95 1.263 . S
N93 C97 1.389 . S
N94 C95 1.358 . S
N94 C96 1.400 . S
C95 N93 1.263 . S
C95 N94 1.358 . S
C95 H101 0.930 . S
C96 N94 1.400 . S
C96 C97 1.351 . S
C96 H113 0.930 . S
C97 N93 1.389 . S
C97 C96 1.351 . S
C97 H102 0.930 . S
O98 Cu92 1.974 . S
O98 C108 1.282 . S
C99 O100 1.261 . S
C99 O112 1.251 . S
O100 C99 1.261 . S
H101 C95 0.930 . S
H102 C97 0.930 . S
N103 Cu92 1.985 1_565 S
N103 C105 1.335 . S
N103 C106 1.390 . S
N104 C105 1.345 . S
N104 C107 1.336 . S
C105 N103 1.335 . S
C105 N104 1.345 . S
C105 H110 0.930 . S
C106 N103 1.390 . S
C106 C107 1.346 . S
C106 H111 0.930 . S
C107 N104 1.336 . S
C107 C106 1.346 . S
C107 H114 0.929 . S
C108 O98 1.282 . S
C108 O109 1.216 . S
O109 C108 1.216 . S
H110 C105 0.930 . S
H111 C106 0.930 . S
O112 Cu92 1.959 1_566 S
O112 C99 1.251 . S
H113 C96 0.930 . S
H114 C107 0.929 . S
Cu115 N116 1.999 1_454 S
Cu115 O121 1.974 1_455 S
Cu115 N126 1.985 . S
Cu115 O135 1.959 1_554 S
N116 Cu115 1.999 1_656 S
N116 C118 1.263 . S
N116 C120 1.389 . S
N117 C118 1.358 . S
N117 C119 1.400 . S
C118 N116 1.263 . S
C118 N117 1.358 . S
C118 H124 0.930 . S
C119 N117 1.400 . S
C119 C120 1.351 . S
C119 H136 0.930 . S
C120 N116 1.389 . S
C120 C119 1.351 . S
C120 H125 0.930 1_655 S
O121 Cu115 1.974 1_655 S
O121 C131 1.282 . S
C122 O123 1.261 . S
C122 O135 1.251 . S
O123 C122 1.261 . S
H124 C118 0.930 . S
H125 C120 0.930 1_455 S
N126 Cu115 1.985 . S
N126 C128 1.335 . S
N126 C129 1.390 . S
N127 C128 1.345 . S
N127 C130 1.336 . S
C128 N126 1.335 . S
C128 N127 1.345 . S
C128 H133 0.930 . S
C129 N126 1.390 . S
C129 C130 1.346 . S
C129 H134 0.930 . S
C130 N127 1.336 . S
C130 C129 1.346 . S
C130 H137 0.929 . S
C131 O121 1.282 . S
C131 O132 1.216 . S
O132 C131 1.216 . S
H133 C128 0.930 . S
H134 C129 0.930 . S
O135 Cu115 1.959 1_556 S
O135 C122 1.251 . S
H136 C119 0.930 . S
H137 C130 0.929 . S
Cu138 N139 1.999 . S
Cu138 O144 1.974 . S
Cu138 N149 1.985 . S
Cu138 O158 1.959 . S
N139 Cu138 1.999 . S
N139 C141 1.263 . S
N139 C143 1.389 . S
N140 C141 1.358 . S
N140 C142 1.400 . S
C141 N139 1.263 . S
C141 N140 1.358 . S
C141 H147 0.930 . S
C142 N140 1.400 . S
C142 C143 1.351 . S
C142 H159 0.930 . S
C143 N139 1.389 . S
C143 C142 1.351 . S
C143 H148 0.930 . S
O144 Cu138 1.974 . S
O144 C154 1.282 . S
C145 O146 1.261 . S
C145 O158 1.251 . S
O146 C145 1.261 . S
H147 C141 0.930 . S
H148 C143 0.930 . S
N149 Cu138 1.985 . S
N149 C151 1.335 . S
N149 C152 1.390 . S
N150 C151 1.345 . S
N150 C153 1.336 . S
C151 N149 1.335 . S
C151 N150 1.345 . S
C151 H156 0.930 . S
C152 N149 1.390 . S
C152 C153 1.346 . S
C152 H157 0.930 . S
C153 N150 1.336 . S
C153 C152 1.346 . S
C153 H160 0.929 . S
C154 O144 1.282 . S
C154 O155 1.216 . S
O155 C154 1.216 . S
H156 C151 0.930 . S
H157 C152 0.930 . S
O158 Cu138 1.959 . S
O158 C145 1.251 . S
H159 C142 0.930 . S
H160 C153 0.929 . S
Cu161 N162 1.999 . S
Cu161 O167 1.974 . S
Cu161 N172 1.985 . S
Cu161 O181 1.959 . S
N162 Cu161 1.999 . S
N162 C164 1.263 . S
N162 C166 1.389 . S
N163 C164 1.358 . S
N163 C165 1.400 . S
C164 N162 1.263 . S
C164 N163 1.358 . S
C164 H170 0.930 . S
C165 N163 1.400 . S
C165 C166 1.351 . S
C165 H182 0.930 . S
C166 N162 1.389 . S
C166 C165 1.351 . S
C166 H171 0.930 . S
O167 Cu161 1.974 . S
O167 C177 1.282 . S
C168 O169 1.261 . S
C168 O181 1.251 . S
O169 C168 1.261 . S
H170 C164 0.930 . S
H171 C166 0.930 . S
N172 Cu161 1.985 . S
N172 C174 1.335 . S
N172 C175 1.390 . S
N173 C174 1.345 . S
N173 C176 1.336 . S
C174 N172 1.335 . S
C174 N173 1.345 . S
C174 H179 0.930 . S
C175 N172 1.390 . S
C175 C176 1.346 . S
C175 H180 0.930 . S
C176 N173 1.336 . S
C176 C175 1.346 . S
C176 H183 0.929 . S
C177 O167 1.282 . S
C177 O178 1.216 . S
O178 C177 1.216 . S
H179 C174 0.930 . S
H180 C175 0.930 . S
O181 Cu161 1.959 . S
O181 C168 1.251 . S
H182 C165 0.930 . S
H183 C176 0.929 . S
Cu184 N185 1.999 . S
Cu184 O190 1.974 . S
Cu184 N195 1.985 . S
Cu184 O204 1.959 . S
N185 Cu184 1.999 . S
N185 C187 1.263 . S
N185 C189 1.389 . S
N186 C187 1.358 . S
N186 C188 1.400 . S
C187 N185 1.263 . S
C187 N186 1.358 . S
C187 H193 0.930 . S
C188 N186 1.400 . S
C188 C189 1.351 . S
C188 H205 0.930 . S
C189 N185 1.389 . S
C189 C188 1.351 . S
C189 H194 0.930 . S
O190 Cu184 1.974 . S
O190 C200 1.282 . S
C191 O192 1.261 . S
C191 O204 1.251 . S
O192 C191 1.261 . S
H193 C187 0.930 . S
H194 C189 0.930 . S
N195 Cu184 1.985 . S
N195 C197 1.335 . S
N195 C198 1.390 . S
N196 C197 1.345 . S
N196 C199 1.336 . S
C197 N195 1.335 . S
C197 N196 1.345 . S
C197 H202 0.930 . S
C198 N195 1.390 . S
C198 C199 1.346 . S
C198 H203 0.930 . S
C199 N196 1.336 . S
C199 C198 1.346 . S
C199 H206 0.929 . S
C200 O190 1.282 . S
C200 O201 1.216 . S
O201 C200 1.216 . S
H202 C197 0.930 . S
H203 C198 0.930 . S
O204 Cu184 1.959 . S
O204 C191 1.251 . S
H205 C188 0.930 . S
H206 C199 0.929 . S
Cu207 N208 1.999 . S
Cu207 O213 1.974 . S
Cu207 N218 1.985 . S
Cu207 O227 1.959 . S
N208 Cu207 1.999 . S
N208 C210 1.263 . S
N208 C212 1.389 . S
N209 C210 1.358 . S
N209 C211 1.400 . S
C210 N208 1.263 . S
C210 N209 1.358 . S
C210 H216 0.930 . S
C211 N209 1.400 . S
C211 C212 1.351 . S
C211 H228 0.930 . S
C212 N208 1.389 . S
C212 C211 1.351 . S
C212 H217 0.930 . S
O213 Cu207 1.974 . S
O213 C223 1.282 . S
C214 O215 1.261 . S
C214 O227 1.251 . S
O215 C214 1.261 . S
H216 C210 0.930 . S
H217 C212 0.930 . S
N218 Cu207 1.985 . S
N218 C220 1.335 . S
N218 C221 1.390 . S
N219 C220 1.345 . S
N219 C222 1.336 . S
C220 N218 1.335 . S
C220 N219 1.345 . S
C220 H225 0.930 . S
C221 N218 1.390 . S
C221 C222 1.346 . S
C221 H226 0.930 . S
C222 N219 1.336 . S
C222 C221 1.346 . S
C222 H229 0.929 . S
C223 O213 1.282 . S
C223 O224 1.216 . S
O224 C223 1.216 . S
H225 C220 0.930 . S
H226 C221 0.930 . S
O227 Cu207 1.959 . S
O227 C214 1.251 . S
H228 C211 0.930 . S
H229 C222 0.929 . S
Cu230 N231 1.999 . S
Cu230 O236 1.974 . S
Cu230 N241 1.985 . S
Cu230 O250 1.959 . S
N231 Cu230 1.999 . S
N231 C233 1.263 . S
N231 C235 1.389 . S
N232 C233 1.358 . S
N232 C234 1.400 . S
C233 N231 1.263 . S
C233 N232 1.358 . S
C233 H239 0.930 . S
C234 N232 1.400 . S
C234 C235 1.351 . S
C234 H251 0.930 . S
C235 N231 1.389 . S
C235 C234 1.351 . S
C235 H240 0.930 . S
O236 Cu230 1.974 . S
O236 C246 1.282 . S
C237 O238 1.261 . S
C237 O250 1.251 . S
O238 C237 1.261 . S
H239 C233 0.930 . S
H240 C235 0.930 . S
N241 Cu230 1.985 . S
N241 C243 1.335 . S
N241 C244 1.390 . S
N242 C243 1.345 . S
N242 C245 1.336 . S
C243 N241 1.335 . S
C243 N242 1.345 . S
C243 H248 0.930 . S
C244 N241 1.390 . S
C244 C245 1.346 . S
C244 H249 0.930 . S
C245 N242 1.336 . S
C245 C244 1.346 . S
C245 H252 0.929 . S
C246 O236 1.282 . S
C246 O247 1.216 . S
O247 C246 1.216 . S
H248 C243 0.930 . S
H249 C244 0.930 . S
O250 Cu230 1.959 . S
O250 C237 1.251 . S
H251 C234 0.930 . S
H252 C245 0.929 . S
Cu253 N254 1.999 . S
Cu253 O259 1.974 . S
Cu253 N264 1.985 . S
Cu253 O273 1.959 . S
N254 Cu253 1.999 . S
N254 C256 1.263 . S
N254 C258 1.389 . S
N255 C256 1.358 . S
N255 C257 1.400 . S
C256 N254 1.263 . S
C256 N255 1.358 . S
C256 H262 0.930 . S
C257 N255 1.400 . S
C257 C258 1.351 . S
C257 H274 0.930 . S
C258 N254 1.389 . S
C258 C257 1.351 . S
C258 H263 0.930 . S
O259 Cu253 1.974 . S
O259 C269 1.282 . S
C260 O261 1.261 . S
C260 O273 1.251 . S
O261 C260 1.261 . S
H262 C256 0.930 . S
H263 C258 0.930 . S
N264 Cu253 1.985 . S
N264 C266 1.335 . S
N264 C267 1.390 . S
N265 C266 1.345 . S
N265 C268 1.336 . S
C266 N264 1.335 . S
C266 N265 1.345 . S
C266 H271 0.930 . S
C267 N264 1.390 . S
C267 C268 1.346 . S
C267 H272 0.930 . S
C268 N265 1.336 . S
C268 C267 1.346 . S
C268 H275 0.929 . S
C269 O259 1.282 . S
C269 O270 1.216 . S
O270 C269 1.216 . S
H271 C266 0.930 . S
H272 C267 0.930 . S
O273 Cu253 1.959 . S
O273 C260 1.251 . S
H274 C257 0.930 . S
H275 C268 0.929 . S
Tb276 C278 2.809 . S
Tb276 O296 2.484 . S
Tb276 O297 2.440 . S
Tb276 O298 2.658 . S
Tb276 O299 2.409 . S
Tb276 O300 2.378 . S
Tb276 O304 2.325 . S
Tb276 O307 2.341 . S
Tb277 C287 2.809 . S
Tb277 O298 2.325 . S
Tb277 O301 2.341 . S
Tb277 O302 2.484 . S
Tb277 O303 2.440 . S
Tb277 O304 2.658 . S
Tb277 O305 2.409 . S
Tb277 O306 2.378 . S
C278 Tb276 2.809 . S
C278 C279 1.514 . S
C278 O296 1.248 . S
C278 O297 1.266 . S
C279 C278 1.514 . S
C279 C280 1.359 . S
C279 C284 1.348 . S
C280 C279 1.359 . S
C280 C281 1.380 . S
C280 H308 0.929 . S
C281 C280 1.380 . S
C281 C282 1.347 . S
C281 H309 0.931 . S
C282 C281 1.347 . S
C282 C283 1.369 . S
C283 C282 1.369 . S
C283 C284 1.408 . S
C283 H310 0.930 . S
C284 C279 1.348 . S
C284 C283 1.408 . S
C284 H311 0.930 . S
C285 O298 1.281 . S
C285 O299 1.254 . S
C286 O300 1.236 . S
C286 O301 1.266 . S
C287 Tb277 2.809 . S
C287 C288 1.514 . S
C287 O302 1.248 . S
C287 O303 1.266 . S
C288 C287 1.514 . S
C288 C289 1.359 . S
C288 C293 1.348 . S
C289 C288 1.359 . S
C289 C290 1.380 . S
C289 H312 0.929 . S
C290 C289 1.380 . S
C290 C291 1.347 . S
C290 H313 0.931 . S
C291 C290 1.347 . S
C291 C292 1.369 . S
C292 C291 1.369 . S
C292 C293 1.408 . S
C292 H314 0.930 . S
C293 C288 1.348 . S
C293 C292 1.408 . S
C293 H315 0.930 . S
C294 O304 1.281 . S
C294 O305 1.254 . S
C295 O306 1.236 . S
C295 O307 1.266 . S
O296 Tb276 2.484 . S
O296 C278 1.248 . S
O297 Tb276 2.440 . S
O297 C278 1.266 . S
O298 Tb276 2.658 . S
O298 Tb277 2.325 . S
O298 C285 1.281 . S
O299 Tb276 2.409 . S
O299 C285 1.254 . S
O300 Tb276 2.378 . S
O300 C286 1.236 . S
O301 Tb277 2.341 . S
O301 C286 1.266 . S
O302 Tb277 2.484 . S
O302 C287 1.248 . S
O303 Tb277 2.440 . S
O303 C287 1.266 . S
O304 Tb276 2.325 . S
O304 Tb277 2.658 . S
O304 C294 1.281 . S
O305 Tb277 2.409 . S
O305 C294 1.254 . S
O306 Tb277 2.378 . S
O306 C295 1.236 . S
O307 Tb276 2.341 . S
O307 C295 1.266 . S
H308 C280 0.929 . S
H309 C281 0.931 . S
H310 C283 0.930 . S
H311 C284 0.930 . S
H312 C289 0.929 . S
H313 C290 0.931 . S
H314 C292 0.930 . S
H315 C293 0.930 . S
Tb316 C318 2.809 . S
Tb316 O336 2.484 . S
Tb316 O337 2.440 . S
Tb316 O338 2.658 . S
Tb316 O339 2.409 . S
Tb316 O340 2.378 . S
Tb316 O344 2.325 . S
Tb316 O347 2.341 . S
Tb317 C327 2.809 . S
Tb317 O338 2.325 . S
Tb317 O341 2.341 . S
Tb317 O342 2.484 . S
Tb317 O343 2.440 . S
Tb317 O344 2.658 . S
Tb317 O345 2.409 . S
Tb317 O346 2.378 . S
C318 Tb316 2.809 . S
C318 C319 1.514 . S
C318 O336 1.248 . S
C318 O337 1.266 . S
C319 C318 1.514 . S
C319 C320 1.359 . S
C319 C324 1.348 . S
C320 C319 1.359 . S
C320 C321 1.380 . S
C320 H348 0.929 . S
C321 C320 1.380 . S
C321 C322 1.347 . S
C321 H349 0.931 . S
C322 C321 1.347 . S
C322 C323 1.369 . S
C323 C322 1.369 . S
C323 C324 1.408 . S
C323 H350 0.930 . S
C324 C319 1.348 . S
C324 C323 1.408 . S
C324 H351 0.930 . S
C325 O338 1.281 . S
C325 O339 1.254 . S
C326 O340 1.236 . S
C326 O341 1.266 . S
C327 Tb317 2.809 . S
C327 C328 1.514 . S
C327 O342 1.248 . S
C327 O343 1.266 . S
C328 C327 1.514 . S
C328 C329 1.359 . S
C328 C333 1.348 . S
C329 C328 1.359 . S
C329 C330 1.380 . S
C329 H352 0.929 . S
C330 C329 1.380 . S
C330 C331 1.347 . S
C330 H353 0.931 . S
C331 C330 1.347 . S
C331 C332 1.369 . S
C332 C331 1.369 . S
C332 C333 1.408 . S
C332 H354 0.930 . S
C333 C328 1.348 . S
C333 C332 1.408 . S
C333 H355 0.930 . S
C334 O344 1.281 . S
C334 O345 1.254 . S
C335 O346 1.236 . S
C335 O347 1.266 . S
O336 Tb316 2.484 . S
O336 C318 1.248 . S
O337 Tb316 2.440 . S
O337 C318 1.266 . S
O338 Tb316 2.658 . S
O338 Tb317 2.325 . S
O338 C325 1.281 . S
O339 Tb316 2.409 . S
O339 C325 1.254 . S
O340 Tb316 2.378 . S
O340 C326 1.236 . S
O341 Tb317 2.341 . S
O341 C326 1.266 . S
O342 Tb317 2.484 . S
O342 C327 1.248 . S
O343 Tb317 2.440 . S
O343 C327 1.266 . S
O344 Tb316 2.325 . S
O344 Tb317 2.658 . S
O344 C334 1.281 . S
O345 Tb317 2.409 . S
O345 C334 1.254 . S
O346 Tb317 2.378 . S
O346 C335 1.236 . S
O347 Tb316 2.341 . S
O347 C335 1.266 . S
H348 C320 0.929 . S
H349 C321 0.931 . S
H350 C323 0.930 . S
H351 C324 0.930 . S
H352 C329 0.929 . S
H353 C330 0.931 . S
H354 C332 0.930 . S
H355 C333 0.930 . S
Tb356 C358 2.809 . S
Tb356 O376 2.484 . S
Tb356 O377 2.440 . S
Tb356 O378 2.658 . S
Tb356 O379 2.409 . S
Tb356 O380 2.378 . S
Tb356 O384 2.325 . S
Tb356 O387 2.341 . S
Tb357 C367 2.809 . S
Tb357 O378 2.325 . S
Tb357 O381 2.341 . S
Tb357 O382 2.484 . S
Tb357 O383 2.440 . S
Tb357 O384 2.658 . S
Tb357 O385 2.409 . S
Tb357 O386 2.378 . S
C358 Tb356 2.809 . S
C358 C359 1.514 . S
C358 O376 1.248 . S
C358 O377 1.266 . S
C359 C358 1.514 . S
C359 C360 1.359 . S
C359 C364 1.348 . S
C360 C359 1.359 . S
C360 C361 1.380 . S
C360 H388 0.929 . S
C361 C360 1.380 . S
C361 C362 1.347 . S
C361 H389 0.931 . S
C362 C361 1.347 . S
C362 C363 1.369 . S
C363 C362 1.369 . S
C363 C364 1.408 . S
C363 H390 0.930 . S
C364 C359 1.348 . S
C364 C363 1.408 . S
C364 H391 0.930 . S
C365 O378 1.281 . S
C365 O379 1.254 . S
C366 O380 1.236 . S
C366 O381 1.266 . S
C367 Tb357 2.809 . S
C367 C368 1.514 . S
C367 O382 1.248 . S
C367 O383 1.266 . S
C368 C367 1.514 . S
C368 C369 1.359 . S
C368 C373 1.348 . S
C369 C368 1.359 . S
C369 C370 1.380 . S
C369 H392 0.929 . S
C370 C369 1.380 . S
C370 C371 1.347 . S
C370 H393 0.931 . S
C371 C370 1.347 . S
C371 C372 1.369 . S
C372 C371 1.369 . S
C372 C373 1.408 . S
C372 H394 0.930 . S
C373 C368 1.348 . S
C373 C372 1.408 . S
C373 H395 0.930 . S
C374 O384 1.281 . S
C374 O385 1.254 . S
C375 O386 1.236 . S
C375 O387 1.266 . S
O376 Tb356 2.484 . S
O376 C358 1.248 . S
O377 Tb356 2.440 . S
O377 C358 1.266 . S
O378 Tb356 2.658 . S
O378 Tb357 2.325 . S
O378 C365 1.281 . S
O379 Tb356 2.409 . S
O379 C365 1.254 . S
O380 Tb356 2.378 . S
O380 C366 1.236 . S
O381 Tb357 2.341 . S
O381 C366 1.266 . S
O382 Tb357 2.484 . S
O382 C367 1.248 . S
O383 Tb357 2.440 . S
O383 C367 1.266 . S
O384 Tb356 2.325 . S
O384 Tb357 2.658 . S
O384 C374 1.281 . S
O385 Tb357 2.409 . S
O385 C374 1.254 . S
O386 Tb357 2.378 . S
O386 C375 1.236 . S
O387 Tb356 2.341 . S
O387 C375 1.266 . S
H388 C360 0.929 . S
H389 C361 0.931 . S
H390 C363 0.930 . S
H391 C364 0.930 . S
H392 C369 0.929 . S
H393 C370 0.931 . S
H394 C372 0.930 . S
H395 C373 0.930 . S
Tb396 C398 2.809 . S
Tb396 O416 2.484 . S
Tb396 O417 2.440 . S
Tb396 O418 2.658 . S
Tb396 O419 2.409 . S
Tb396 O420 2.378 . S
Tb396 O424 2.325 . S
Tb396 O427 2.341 . S
Tb397 C407 2.809 . S
Tb397 O418 2.325 . S
Tb397 O421 2.341 . S
Tb397 O422 2.484 . S
Tb397 O423 2.440 . S
Tb397 O424 2.658 . S
Tb397 O425 2.409 . S
Tb397 O426 2.378 . S
C398 Tb396 2.809 . S
C398 C399 1.514 . S
C398 O416 1.248 . S
C398 O417 1.266 . S
C399 C398 1.514 . S
C399 C400 1.359 . S
C399 C404 1.348 . S
C400 C399 1.359 . S
C400 C401 1.380 . S
C400 H428 0.929 . S
C401 C400 1.380 . S
C401 C402 1.347 . S
C401 H429 0.931 . S
C402 C401 1.347 . S
C402 C403 1.369 . S
C403 C402 1.369 . S
C403 C404 1.408 . S
C403 H430 0.930 . S
C404 C399 1.348 . S
C404 C403 1.408 . S
C404 H431 0.930 . S
C405 O418 1.281 . S
C405 O419 1.254 . S
C406 O420 1.236 . S
C406 O421 1.266 . S
C407 Tb397 2.809 . S
C407 C408 1.514 . S
C407 O422 1.248 . S
C407 O423 1.266 . S
C408 C407 1.514 . S
C408 C409 1.359 . S
C408 C413 1.348 . S
C409 C408 1.359 . S
C409 C410 1.380 . S
C409 H432 0.929 . S
C410 C409 1.380 . S
C410 C411 1.347 . S
C410 H433 0.931 . S
C411 C410 1.347 . S
C411 C412 1.369 . S
C412 C411 1.369 . S
C412 C413 1.408 . S
C412 H434 0.930 . S
C413 C408 1.348 . S
C413 C412 1.408 . S
C413 H435 0.930 . S
C414 O424 1.281 . S
C414 O425 1.254 . S
C415 O426 1.236 . S
C415 O427 1.266 . S
O416 Tb396 2.484 . S
O416 C398 1.248 . S
O417 Tb396 2.440 . S
O417 C398 1.266 . S
O418 Tb396 2.658 . S
O418 Tb397 2.325 . S
O418 C405 1.281 . S
O419 Tb396 2.409 . S
O419 C405 1.254 . S
O420 Tb396 2.378 . S
O420 C406 1.236 . S
O421 Tb397 2.341 . S
O421 C406 1.266 . S
O422 Tb397 2.484 . S
O422 C407 1.248 . S
O423 Tb397 2.440 . S
O423 C407 1.266 . S
O424 Tb396 2.325 . S
O424 Tb397 2.658 . S
O424 C414 1.281 . S
O425 Tb397 2.409 . S
O425 C414 1.254 . S
O426 Tb397 2.378 . S
O426 C415 1.236 . S
O427 Tb396 2.341 . S
O427 C415 1.266 . S
H428 C400 0.929 . S
H429 C401 0.931 . S
H430 C403 0.930 . S
H431 C404 0.930 . S
H432 C409 0.929 . S
H433 C410 0.931 . S
H434 C412 0.930 . S
H435 C413 0.930 . S
Tb436 C438 2.809 . S
Tb436 O456 2.484 . S
Tb436 O457 2.440 . S
Tb436 O458 2.658 . S
Tb436 O459 2.409 . S
Tb436 O460 2.378 . S
Tb436 O464 2.325 . S
Tb436 O467 2.341 . S
Tb437 C447 2.809 . S
Tb437 O458 2.325 . S
Tb437 O461 2.341 . S
Tb437 O462 2.484 . S
Tb437 O463 2.440 . S
Tb437 O464 2.658 . S
Tb437 O465 2.409 . S
Tb437 O466 2.378 . S
C438 Tb436 2.809 . S
C438 C439 1.514 . S
C438 O456 1.248 . S
C438 O457 1.266 . S
C439 C438 1.514 . S
C439 C440 1.359 . S
C439 C444 1.348 . S
C440 C439 1.359 . S
C440 C441 1.380 . S
C440 H468 0.929 . S
C441 C440 1.380 . S
C441 C442 1.347 . S
C441 H469 0.931 . S
C442 C441 1.347 . S
C442 C443 1.369 . S
C443 C442 1.369 . S
C443 C444 1.408 . S
C443 H470 0.930 . S
C444 C439 1.348 . S
C444 C443 1.408 . S
C444 H471 0.930 . S
C445 O458 1.281 . S
C445 O459 1.254 . S
C446 O460 1.236 . S
C446 O461 1.266 . S
C447 Tb437 2.809 . S
C447 C448 1.514 . S
C447 O462 1.248 . S
C447 O463 1.266 . S
C448 C447 1.514 . S
C448 C449 1.359 . S
C448 C453 1.348 . S
C449 C448 1.359 . S
C449 C450 1.380 . S
C449 H472 0.929 . S
C450 C449 1.380 . S
C450 C451 1.347 . S
C450 H473 0.931 . S
C451 C450 1.347 . S
C451 C452 1.369 . S
C452 C451 1.369 . S
C452 C453 1.408 . S
C452 H474 0.930 . S
C453 C448 1.348 . S
C453 C452 1.408 . S
C453 H475 0.930 . S
C454 O464 1.281 . S
C454 O465 1.254 . S
C455 O466 1.236 . S
C455 O467 1.266 . S
O456 Tb436 2.484 . S
O456 C438 1.248 . S
O457 Tb436 2.440 . S
O457 C438 1.266 . S
O458 Tb436 2.658 . S
O458 Tb437 2.325 . S
O458 C445 1.281 . S
O459 Tb436 2.409 . S
O459 C445 1.254 . S
O460 Tb436 2.378 . S
O460 C446 1.236 . S
O461 Tb437 2.341 . S
O461 C446 1.266 . S
O462 Tb437 2.484 . S
O462 C447 1.248 . S
O463 Tb437 2.440 . S
O463 C447 1.266 . S
O464 Tb436 2.325 . S
O464 Tb437 2.658 . S
O464 C454 1.281 . S
O465 Tb437 2.409 . S
O465 C454 1.254 . S
O466 Tb437 2.378 . S
O466 C455 1.236 . S
O467 Tb436 2.341 . S
O467 C455 1.266 . S
H468 C440 0.929 . S
H469 C441 0.931 . S
H470 C443 0.930 . S
H471 C444 0.930 . S
H472 C449 0.929 . S
H473 C450 0.931 . S
H474 C452 0.930 . S
H475 C453 0.930 . S
Tb476 C478 2.809 . S
Tb476 O496 2.484 . S
Tb476 O497 2.440 . S
Tb476 O498 2.658 . S
Tb476 O499 2.409 . S
Tb476 O500 2.378 . S
Tb476 O504 2.325 . S
Tb476 O507 2.341 . S
Tb477 C487 2.809 . S
Tb477 O498 2.325 . S
Tb477 O501 2.341 . S
Tb477 O502 2.484 . S
Tb477 O503 2.440 . S
Tb477 O504 2.658 . S
Tb477 O505 2.409 . S
Tb477 O506 2.378 . S
C478 Tb476 2.809 . S
C478 C479 1.514 . S
C478 O496 1.248 . S
C478 O497 1.266 . S
C479 C478 1.514 . S
C479 C480 1.359 . S
C479 C484 1.348 . S
C480 C479 1.359 . S
C480 C481 1.380 . S
C480 H508 0.929 . S
C481 C480 1.380 . S
C481 C482 1.347 . S
C481 H509 0.931 . S
C482 C481 1.347 . S
C482 C483 1.369 . S
C483 C482 1.369 . S
C483 C484 1.408 . S
C483 H510 0.930 . S
C484 C479 1.348 . S
C484 C483 1.408 . S
C484 H511 0.930 . S
C485 O498 1.281 . S
C485 O499 1.254 . S
C486 O500 1.236 . S
C486 O501 1.266 . S
C487 Tb477 2.809 . S
C487 C488 1.514 . S
C487 O502 1.248 . S
C487 O503 1.266 . S
C488 C487 1.514 . S
C488 C489 1.359 . S
C488 C493 1.348 . S
C489 C488 1.359 . S
C489 C490 1.380 . S
C489 H512 0.929 . S
C490 C489 1.380 . S
C490 C491 1.347 . S
C490 H513 0.931 . S
C491 C490 1.347 . S
C491 C492 1.369 . S
C492 C491 1.369 . S
C492 C493 1.408 . S
C492 H514 0.930 . S
C493 C488 1.348 . S
C493 C492 1.408 . S
C493 H515 0.930 . S
C494 O504 1.281 . S
C494 O505 1.254 . S
C495 O506 1.236 . S
C495 O507 1.266 . S
O496 Tb476 2.484 . S
O496 C478 1.248 . S
O497 Tb476 2.440 . S
O497 C478 1.266 . S
O498 Tb476 2.658 . S
O498 Tb477 2.325 . S
O498 C485 1.281 . S
O499 Tb476 2.409 . S
O499 C485 1.254 . S
O500 Tb476 2.378 . S
O500 C486 1.236 . S
O501 Tb477 2.341 . S
O501 C486 1.266 . S
O502 Tb477 2.484 . S
O502 C487 1.248 . S
O503 Tb477 2.440 . S
O503 C487 1.266 . S
O504 Tb476 2.325 . S
O504 Tb477 2.658 . S
O504 C494 1.281 . S
O505 Tb477 2.409 . S
O505 C494 1.254 . S
O506 Tb477 2.378 . S
O506 C495 1.236 . S
O507 Tb476 2.341 . S
O507 C495 1.266 . S
H508 C480 0.929 . S
H509 C481 0.931 . S
H510 C483 0.930 . S
H511 C484 0.930 . S
H512 C489 0.929 . S
H513 C490 0.931 . S
H514 C492 0.930 . S
H515 C493 0.930 . S
Tb516 C518 2.809 . S
Tb516 O536 2.484 . S
Tb516 O537 2.440 . S
Tb516 O538 2.658 . S
Tb516 O539 2.409 . S
Tb516 O540 2.378 . S
Tb516 O544 2.325 . S
Tb516 O547 2.341 . S
Tb517 C527 2.809 . S
Tb517 O538 2.325 . S
Tb517 O541 2.341 . S
Tb517 O542 2.484 . S
Tb517 O543 2.440 . S
Tb517 O544 2.658 . S
Tb517 O545 2.409 . S
Tb517 O546 2.378 . S
C518 Tb516 2.809 . S
C518 C519 1.514 . S
C518 O536 1.248 . S
C518 O537 1.266 . S
C519 C518 1.514 . S
C519 C520 1.359 . S
C519 C524 1.348 . S
C520 C519 1.359 . S
C520 C521 1.380 . S
C520 H548 0.929 . S
C521 C520 1.380 . S
C521 C522 1.347 . S
C521 H549 0.931 . S
C522 C521 1.347 . S
C522 C523 1.369 . S
C523 C522 1.369 . S
C523 C524 1.408 . S
C523 H550 0.930 . S
C524 C519 1.348 . S
C524 C523 1.408 . S
C524 H551 0.930 . S
C525 O538 1.281 . S
C525 O539 1.254 . S
C526 O540 1.236 . S
C526 O541 1.266 . S
C527 Tb517 2.809 . S
C527 C528 1.514 . S
C527 O542 1.248 . S
C527 O543 1.266 . S
C528 C527 1.514 . S
C528 C529 1.359 . S
C528 C533 1.348 . S
C529 C528 1.359 . S
C529 C530 1.380 . S
C529 H552 0.929 . S
C530 C529 1.380 . S
C530 C531 1.347 . S
C530 H553 0.931 . S
C531 C530 1.347 . S
C531 C532 1.369 . S
C532 C531 1.369 . S
C532 C533 1.408 . S
C532 H554 0.930 . S
C533 C528 1.348 . S
C533 C532 1.408 . S
C533 H555 0.930 . S
C534 O544 1.281 . S
C534 O545 1.254 . S
C535 O546 1.236 . S
C535 O547 1.266 . S
O536 Tb516 2.484 . S
O536 C518 1.248 . S
O537 Tb516 2.440 . S
O537 C518 1.266 . S
O538 Tb516 2.658 . S
O538 Tb517 2.325 . S
O538 C525 1.281 . S
O539 Tb516 2.409 . S
O539 C525 1.254 . S
O540 Tb516 2.378 . S
O540 C526 1.236 . S
O541 Tb517 2.341 . S
O541 C526 1.266 . S
O542 Tb517 2.484 . S
O542 C527 1.248 . S
O543 Tb517 2.440 . S
O543 C527 1.266 . S
O544 Tb516 2.325 . S
O544 Tb517 2.658 . S
O544 C534 1.281 . S
O545 Tb517 2.409 . S
O545 C534 1.254 . S
O546 Tb517 2.378 . S
O546 C535 1.236 . S
O547 Tb516 2.341 . S
O547 C535 1.266 . S
H548 C520 0.929 . S
H549 C521 0.931 . S
H550 C523 0.930 . S
H551 C524 0.930 . S
H552 C529 0.929 . S
H553 C530 0.931 . S
H554 C532 0.930 . S
H555 C533 0.930 . S
Tb556 C558 2.809 . S
Tb556 O576 2.484 . S
Tb556 O577 2.440 . S
Tb556 O578 2.658 . S
Tb556 O579 2.409 . S
Tb556 O580 2.378 . S
Tb556 O584 2.325 . S
Tb556 O587 2.341 . S
Tb557 C567 2.809 . S
Tb557 O578 2.325 . S
Tb557 O581 2.341 . S
Tb557 O582 2.484 . S
Tb557 O583 2.440 . S
Tb557 O584 2.658 . S
Tb557 O585 2.409 . S
Tb557 O586 2.378 . S
C558 Tb556 2.809 . S
C558 C559 1.514 . S
C558 O576 1.248 . S
C558 O577 1.266 . S
C559 C558 1.514 . S
C559 C560 1.359 . S
C559 C564 1.348 . S
C560 C559 1.359 . S
C560 C561 1.380 . S
C560 H588 0.929 . S
C561 C560 1.380 . S
C561 C562 1.347 . S
C561 H589 0.931 . S
C562 C561 1.347 . S
C562 C563 1.369 . S
C563 C562 1.369 . S
C563 C564 1.408 . S
C563 H590 0.930 . S
C564 C559 1.348 . S
C564 C563 1.408 . S
C564 H591 0.930 . S
C565 O578 1.281 . S
C565 O579 1.254 . S
C566 O580 1.236 . S
C566 O581 1.266 . S
C567 Tb557 2.809 . S
C567 C568 1.514 . S
C567 O582 1.248 . S
C567 O583 1.266 . S
C568 C567 1.514 . S
C568 C569 1.359 . S
C568 C573 1.348 . S
C569 C568 1.359 . S
C569 C570 1.380 . S
C569 H592 0.929 . S
C570 C569 1.380 . S
C570 C571 1.347 . S
C570 H593 0.931 . S
C571 C570 1.347 . S
C571 C572 1.369 . S
C572 C571 1.369 . S
C572 C573 1.408 . S
C572 H594 0.930 . S
C573 C568 1.348 . S
C573 C572 1.408 . S
C573 H595 0.930 . S
C574 O584 1.281 . S
C574 O585 1.254 . S
C575 O586 1.236 . S
C575 O587 1.266 . S
O576 Tb556 2.484 . S
O576 C558 1.248 . S
O577 Tb556 2.440 . S
O577 C558 1.266 . S
O578 Tb556 2.658 . S
O578 Tb557 2.325 . S
O578 C565 1.281 . S
O579 Tb556 2.409 . S
O579 C565 1.254 . S
O580 Tb556 2.378 . S
O580 C566 1.236 . S
O581 Tb557 2.341 . S
O581 C566 1.266 . S
O582 Tb557 2.484 . S
O582 C567 1.248 . S
O583 Tb557 2.440 . S
O583 C567 1.266 . S
O584 Tb556 2.325 . S
O584 Tb557 2.658 . S
O584 C574 1.281 . S
O585 Tb557 2.409 . S
O585 C574 1.254 . S
O586 Tb557 2.378 . S
O586 C575 1.236 . S
O587 Tb556 2.341 . S
O587 C575 1.266 . S
H588 C560 0.929 . S
H589 C561 0.931 . S
H590 C563 0.930 . S
H591 C564 0.930 . S
H592 C569 0.929 . S
H593 C570 0.931 . S
H594 C572 0.930 . S
H595 C573 0.930 . S
C596 C597 1.349 . S
C596 C598 1.327 . S
C596 H621 0.950 . S
C597 C596 1.349 . S
C597 C613 1.349 . S
C598 C596 1.327 . S
C598 C617 1.429 . S
C598 H622 0.950 . S
C599 C616 1.574 . S
C599 C618 1.368 . S
C599 H623 0.949 . S
H600 C604 0.949 . S
C601 C602 1.349 . S
C601 C603 1.327 . S
C601 H624 0.950 . S
C602 C601 1.349 . S
C602 C614 1.349 . S
C603 C601 1.327 . S
C603 C619 1.429 . S
C603 H625 0.950 . S
C604 H600 0.949 . S
C604 C612 1.574 . S
C604 C620 1.368 . S
H605 C613 0.950 . S
H606 C611 0.950 . S
H607 C612 0.949 . S
H608 C614 0.950 . S
H609 C615 0.950 . S
H610 C616 0.949 . S
C611 H606 0.950 . S
C611 C613 1.327 . S
C611 C617 1.429 . S
C612 C604 1.574 . S
C612 H607 0.949 . S
C612 C618 1.368 . S
C613 C597 1.349 . S
C613 H605 0.950 . S
C613 C611 1.327 . S
C614 C602 1.349 . S
C614 H608 0.950 . S
C614 C615 1.327 . S
C615 H609 0.950 . S
C615 C614 1.327 . S
C615 C619 1.429 . S
C616 C599 1.574 . S
C616 H610 0.949 . S
C616 C620 1.368 . S
C617 C598 1.429 . S
C617 C611 1.429 . S
C617 C618 1.523 . S
C618 C599 1.368 . S
C618 C612 1.368 . S
C618 C617 1.523 . S
C619 C603 1.429 . S
C619 C615 1.429 . S
C619 C620 1.523 . S
C620 C604 1.368 . S
C620 C616 1.368 . S
C620 C619 1.523 . S
H621 C596 0.950 . S
H622 C598 0.950 . S
H623 C599 0.949 . S
H624 C601 0.950 . S
H625 C603 0.950 . S
C626 C627 1.349 . S
C626 C628 1.327 . S
C626 H651 0.950 . S
C627 C626 1.349 . S
C627 C643 1.349 . S
C628 C626 1.327 . S
C628 C647 1.429 . S
C628 H652 0.950 . S
C629 C646 1.574 . S
C629 C648 1.368 . S
C629 H653 0.949 . S
H630 C634 0.949 . S
C631 C632 1.349 . S
C631 C633 1.327 . S
C631 H654 0.950 . S
C632 C631 1.349 . S
C632 C644 1.349 . S
C633 C631 1.327 . S
C633 C649 1.429 . S
C633 H655 0.950 . S
C634 H630 0.949 . S
C634 C642 1.574 . S
C634 C650 1.368 . S
H635 C643 0.950 . S
H636 C641 0.950 . S
H637 C642 0.949 . S
H638 C644 0.950 . S
H639 C645 0.950 . S
H640 C646 0.949 . S
C641 H636 0.950 . S
C641 C643 1.327 . S
C641 C647 1.429 . S
C642 C634 1.574 . S
C642 H637 0.949 . S
C642 C648 1.368 . S
C643 C627 1.349 . S
C643 H635 0.950 . S
C643 C641 1.327 . S
C644 C632 1.349 . S
C644 H638 0.950 . S
C644 C645 1.327 . S
C645 H639 0.950 . S
C645 C644 1.327 . S
C645 C649 1.429 . S
C646 C629 1.574 . S
C646 H640 0.949 . S
C646 C650 1.368 . S
C647 C628 1.429 . S
C647 C641 1.429 . S
C647 C648 1.523 . S
C648 C629 1.368 . S
C648 C642 1.368 . S
C648 C647 1.523 . S
C649 C633 1.429 . S
C649 C645 1.429 . S
C649 C650 1.523 . S
C650 C634 1.368 . S
C650 C646 1.368 . S
C650 C649 1.523 . S
H651 C626 0.950 . S
H652 C628 0.950 . S
H653 C629 0.949 . S
H654 C631 0.950 . S
H655 C633 0.950 . S
C656 C657 1.349 . S
C656 C658 1.327 . S
C656 H681 0.950 . S
C657 C656 1.349 . S
C657 C673 1.349 . S
C658 C656 1.327 . S
C658 C677 1.429 . S
C658 H682 0.950 . S
C659 C676 1.574 . S
C659 C678 1.368 . S
C659 H683 0.949 . S
H660 C664 0.949 . S
C661 C662 1.349 . S
C661 C663 1.327 . S
C661 H684 0.950 . S
C662 C661 1.349 . S
C662 C674 1.349 . S
C663 C661 1.327 . S
C663 C679 1.429 . S
C663 H685 0.950 . S
C664 H660 0.949 . S
C664 C672 1.574 . S
C664 C680 1.368 . S
H665 C673 0.950 . S
H666 C671 0.950 . S
H667 C672 0.949 . S
H668 C674 0.950 . S
H669 C675 0.950 . S
H670 C676 0.949 . S
C671 H666 0.950 . S
C671 C673 1.327 . S
C671 C677 1.429 . S
C672 C664 1.574 . S
C672 H667 0.949 . S
C672 C678 1.368 . S
C673 C657 1.349 . S
C673 H665 0.950 . S
C673 C671 1.327 . S
C674 C662 1.349 . S
C674 H668 0.950 . S
C674 C675 1.327 . S
C675 H669 0.950 . S
C675 C674 1.327 . S
C675 C679 1.429 . S
C676 C659 1.574 . S
C676 H670 0.949 . S
C676 C680 1.368 . S
C677 C658 1.429 . S
C677 C671 1.429 . S
C677 C678 1.523 . S
C678 C659 1.368 . S
C678 C672 1.368 . S
C678 C677 1.523 . S
C679 C663 1.429 . S
C679 C675 1.429 . S
C679 C680 1.523 . S
C680 C664 1.368 . S
C680 C676 1.368 . S
C680 C679 1.523 . S
H681 C656 0.950 . S
H682 C658 0.950 . S
H683 C659 0.949 . S
H684 C661 0.950 . S
H685 C663 0.950 . S
C686 C687 1.349 . S
C686 C688 1.327 . S
C686 H711 0.971 . S
C687 C686 1.349 . S
C687 C703 1.349 . S
C688 C686 1.327 . S
C688 C707 1.429 . S
C688 H712 0.950 . S
C689 C706 1.574 . S
C689 C708 1.368 . S
C689 H713 0.949 . S
H690 C694 0.949 . S
C691 C692 1.349 . S
C691 C693 1.327 . S
C691 H714 0.950 . S
C692 C691 1.349 . S
C692 C704 1.349 . S
C693 C691 1.327 . S
C693 C709 1.429 . S
C693 H715 0.950 . S
C694 H690 0.949 . S
C694 C702 1.574 . S
C694 C710 1.368 . S
H695 C703 0.950 . S
H696 C701 0.950 . S
H697 C702 0.949 . S
H698 C704 0.950 . S
H699 C705 0.950 . S
H700 C706 0.949 . S
C701 H696 0.950 . S
C701 C703 1.327 . S
C701 C707 1.429 . S
C702 C694 1.574 . S
C702 H697 0.949 . S
C702 C708 1.368 . S
C703 C687 1.349 . S
C703 H695 0.950 . S
C703 C701 1.327 . S
C704 C692 1.349 . S
C704 H698 0.950 . S
C704 C705 1.327 . S
C705 H699 0.950 . S
C705 C704 1.327 . S
C705 C709 1.429 . S
C706 C689 1.574 . S
C706 H700 0.949 . S
C706 C710 1.368 . S
C707 C688 1.429 . S
C707 C701 1.429 . S
C707 C708 1.523 . S
C708 C689 1.368 . S
C708 C702 1.368 . S
C708 C707 1.523 . S
C709 C693 1.429 . S
C709 C705 1.429 . S
C709 C710 1.523 . S
C710 C694 1.368 . S
C710 C706 1.368 . S
C710 C709 1.523 . S
H711 C686 0.971 . S
H712 C688 0.950 . S
H713 C689 0.949 . S
H714 C691 0.950 . S
H715 C693 0.950 . S
C716 C717 1.349 . S
C716 C718 1.327 . S
C716 H741 0.950 . S
C717 C716 1.349 . S
C717 C733 1.349 . S
C718 C716 1.327 . S
C718 C737 1.429 . S
C718 H742 0.950 . S
C719 C736 1.574 . S
C719 C738 1.368 . S
C719 H743 0.949 . S
H720 C724 0.949 . S
C721 C722 1.349 . S
C721 C723 1.327 . S
C721 H744 0.950 . S
C722 C721 1.349 . S
C722 C734 1.349 . S
C723 C721 1.327 . S
C723 C739 1.429 . S
C723 H745 0.950 . S
C724 H720 0.949 . S
C724 C732 1.574 . S
C724 C740 1.368 . S
H725 C733 0.950 . S
H726 C731 0.950 . S
H727 C732 0.949 . S
H728 C734 0.950 . S
H729 C735 0.950 . S
H730 C736 0.949 . S
C731 H726 0.950 . S
C731 C733 1.327 . S
C731 C737 1.429 . S
C732 C724 1.574 . S
C732 H727 0.949 . S
C732 C738 1.368 . S
C733 C717 1.349 . S
C733 H725 0.950 . S
C733 C731 1.327 . S
C734 C722 1.349 . S
C734 H728 0.950 . S
C734 C735 1.327 . S
C735 H729 0.950 . S
C735 C734 1.327 . S
C735 C739 1.429 . S
C736 C719 1.574 . S
C736 H730 0.949 . S
C736 C740 1.368 . S
C737 C718 1.429 . S
C737 C731 1.429 . S
C737 C738 1.523 . S
C738 C719 1.368 . S
C738 C732 1.368 . S
C738 C737 1.523 . S
C739 C723 1.429 . S
C739 C735 1.429 . S
C739 C740 1.523 . S
C740 C724 1.368 . S
C740 C736 1.368 . S
C740 C739 1.523 . S
H741 C716 0.950 . S
H742 C718 0.950 . S
H743 C719 0.949 . S
H744 C721 0.950 . S
H745 C723 0.950 . S
C746 C747 1.349 . S
C746 C748 1.327 . S
C746 H771 0.950 . S
C747 C746 1.349 . S
C747 C763 1.349 . S
C748 C746 1.327 . S
C748 C767 1.429 . S
C748 H772 0.950 . S
C749 C766 1.574 . S
C749 C768 1.368 . S
C749 H773 0.949 . S
H750 C754 0.949 . S
C751 C752 1.349 . S
C751 C753 1.327 . S
C751 H774 0.950 . S
C752 C751 1.349 . S
C752 C764 1.349 . S
C753 C751 1.327 . S
C753 C769 1.429 . S
C753 H775 0.950 . S
C754 H750 0.949 . S
C754 C762 1.574 . S
C754 C770 1.368 . S
H755 C763 0.950 . S
H756 C761 0.950 . S
H757 C762 0.949 . S
H758 C764 0.950 . S
H759 C765 0.950 . S
H760 C766 0.949 . S
C761 H756 0.950 . S
C761 C763 1.327 . S
C761 C767 1.429 . S
C762 C754 1.574 . S
C762 H757 0.949 . S
C762 C768 1.368 . S
C763 C747 1.349 . S
C763 H755 0.950 . S
C763 C761 1.327 . S
C764 C752 1.349 . S
C764 H758 0.950 . S
C764 C765 1.327 . S
C765 H759 0.950 . S
C765 C764 1.327 . S
C765 C769 1.429 . S
C766 C749 1.574 . S
C766 H760 0.949 . S
C766 C770 1.368 . S
C767 C748 1.429 . S
C767 C761 1.429 . S
C767 C768 1.523 . S
C768 C749 1.368 . S
C768 C762 1.368 . S
C768 C767 1.523 . S
C769 C753 1.429 . S
C769 C765 1.429 . S
C769 C770 1.523 . S
C770 C754 1.368 . S
C770 C766 1.368 . S
C770 C769 1.523 . S
H771 C746 0.950 . S
H772 C748 0.950 . S
H773 C749 0.949 . S
H774 C751 0.950 . S
H775 C753 0.950 . S
C776 C777 1.349 . S
C776 C778 1.327 . S
C776 H801 0.950 . S
C777 C776 1.349 . S
C777 C793 1.349 . S
C778 C776 1.327 . S
C778 C797 1.429 . S
C778 H802 0.950 . S
C779 C796 1.574 . S
C779 C798 1.368 . S
C779 H803 0.949 . S
H780 C784 0.949 . S
C781 C782 1.349 . S
C781 C783 1.327 . S
C781 H804 0.950 . S
C782 C781 1.349 . S
C782 C794 1.349 . S
C783 C781 1.327 . S
C783 C799 1.429 . S
C783 H805 0.950 . S
C784 H780 0.949 . S
C784 C792 1.574 . S
C784 C800 1.368 . S
H785 C793 0.950 . S
H786 C791 0.950 . S
H787 C792 0.949 . S
H788 C794 0.950 . S
H789 C795 0.950 . S
H790 C796 0.949 . S
C791 H786 0.950 . S
C791 C793 1.327 . S
C791 C797 1.429 . S
C792 C784 1.574 . S
C792 H787 0.949 . S
C792 C798 1.368 . S
C793 C777 1.349 . S
C793 H785 0.950 . S
C793 C791 1.327 . S
C794 C782 1.349 . S
C794 H788 0.950 . S
C794 C795 1.327 . S
C795 H789 0.950 . S
C795 C794 1.327 . S
C795 C799 1.429 . S
C796 C779 1.574 . S
C796 H790 0.949 . S
C796 C800 1.368 . S
C797 C778 1.429 . S
C797 C791 1.429 . S
C797 C798 1.523 . S
C798 C779 1.368 . S
C798 C792 1.368 . S
C798 C797 1.523 . S
C799 C783 1.429 . S
C799 C795 1.429 . S
C799 C800 1.523 . S
C800 C784 1.368 . S
C800 C796 1.368 . S
C800 C799 1.523 . S
H801 C776 0.950 . S
H802 C778 0.950 . S
H803 C779 0.949 . S
H804 C781 0.950 . S
H805 C783 0.950 . S
C806 C807 1.349 . S
C806 C808 1.327 . S
C806 H831 0.950 . S
C807 C806 1.349 . S
C807 C823 1.354 . S
C808 C806 1.327 . S
C808 C827 1.429 . S
C808 H832 0.950 . S
C809 C826 1.574 . S
C809 C828 1.368 . S
C809 H833 0.949 . S
H810 C814 0.949 . S
C811 C812 1.349 . S
C811 C813 1.327 . S
C811 H834 0.950 . S
C812 C811 1.349 . S
C812 C824 1.349 . S
C813 C811 1.327 . S
C813 C829 1.429 . S
C813 H835 0.950 . S
C814 H810 0.949 . S
C814 C822 1.574 . S
C814 C830 1.368 . S
H815 C823 0.921 1_545 S
H816 C821 0.950 . S
H817 C822 0.949 . S
H818 C824 0.950 . S
H819 C825 0.950 . S
H820 C826 0.949 . S
C821 H816 0.950 . S
C821 C823 1.350 . S
C821 C827 1.429 . S
C822 C814 1.574 . S
C822 H817 0.949 . S
C822 C828 1.368 . S
C823 C807 1.354 . S
C823 H815 0.921 1_565 S
C823 C821 1.350 . S
C824 C812 1.349 . S
C824 H818 0.950 . S
C824 C825 1.327 . S
C825 H819 0.950 . S
C825 C824 1.327 . S
C825 C829 1.429 . S
C826 C809 1.574 . S
C826 H820 0.949 . S
C826 C830 1.368 . S
C827 C808 1.429 . S
C827 C821 1.429 . S
C827 C828 1.523 . S
C828 C809 1.368 . S
C828 C822 1.368 . S
C828 C827 1.523 . S
C829 C813 1.429 . S
C829 C825 1.429 . S
C829 C830 1.523 . S
C830 C814 1.368 . S
C830 C826 1.368 . S
C830 C829 1.523 . S
H831 C806 0.950 . S
H832 C808 0.950 . S
H833 C809 0.949 . S
H834 C811 0.950 . S
H835 C813 0.950 . S
C836 C837 1.349 . S
C836 C838 1.327 . S
C836 H861 0.950 . S
C837 C836 1.349 . S
C837 C853 1.349 . S
C838 C836 1.327 . S
C838 C857 1.429 . S
C838 H862 0.950 . S
C839 C856 1.574 . S
C839 C858 1.368 . S
C839 H863 0.949 . S
H840 C844 0.949 . S
C841 C842 1.349 . S
C841 C843 1.327 . S
C841 H864 0.950 . S
C842 C841 1.349 . S
C842 C854 1.349 . S
C843 C841 1.327 . S
C843 C859 1.429 . S
C843 H865 0.950 . S
C844 H840 0.949 . S
C844 C852 1.574 . S
C844 C860 1.368 . S
H845 C853 0.950 . S
H846 C851 0.950 . S
H847 C852 0.949 . S
H848 C854 0.950 . S
H849 C855 0.950 . S
H850 C856 0.949 . S
C851 H846 0.950 . S
C851 C853 1.327 . S
C851 C857 1.429 . S
C852 C844 1.574 . S
C852 H847 0.949 . S
C852 C858 1.368 . S
C853 C837 1.349 . S
C853 H845 0.950 . S
C853 C851 1.327 . S
C854 C842 1.349 . S
C854 H848 0.950 . S
C854 C855 1.327 . S
C855 H849 0.950 . S
C855 C854 1.327 . S
C855 C859 1.429 . S
C856 C839 1.574 . S
C856 H850 0.949 . S
C856 C860 1.368 . S
C857 C838 1.429 . S
C857 C851 1.429 . S
C857 C858 1.523 . S
C858 C839 1.368 . S
C858 C852 1.368 . S
C858 C857 1.523 . S
C859 C843 1.429 . S
C859 C855 1.429 . S
C859 C860 1.523 . S
C860 C844 1.368 . S
C860 C856 1.368 . S
C860 C859 1.523 . S
H861 C836 0.950 . S
H862 C838 0.950 . S
H863 C839 0.949 . S
H864 C841 0.950 . S
H865 C843 0.950 . S
C866 C867 1.349 . S
C866 C868 1.327 . S
C866 H891 0.950 . S
C867 C866 1.349 . S
C867 C883 1.349 . S
C868 C866 1.327 . S
C868 C887 1.429 . S
C868 H892 0.950 . S
C869 C886 1.574 . S
C869 C888 1.368 . S
C869 H893 0.949 . S
H870 C874 0.949 . S
C871 C872 1.349 . S
C871 C873 1.327 . S
C871 H894 0.950 . S
C872 C871 1.349 . S
C872 C884 1.349 . S
C873 C871 1.327 . S
C873 C889 1.429 . S
C873 H895 0.950 . S
C874 H870 0.949 . S
C874 C882 1.574 . S
C874 C890 1.368 . S
H875 C883 0.950 . S
H876 C881 0.950 . S
H877 C882 0.949 . S
H878 C884 0.950 . S
H879 C885 0.950 . S
H880 C886 0.949 . S
C881 H876 0.950 . S
C881 C883 1.327 . S
C881 C887 1.429 . S
C882 C874 1.574 . S
C882 H877 0.949 . S
C882 C888 1.368 . S
C883 C867 1.349 . S
C883 H875 0.950 . S
C883 C881 1.327 . S
C884 C872 1.349 . S
C884 H878 0.950 . S
C884 C885 1.327 . S
C885 H879 0.950 . S
C885 C884 1.327 . S
C885 C889 1.429 . S
C886 C869 1.574 . S
C886 H880 0.949 . S
C886 C890 1.368 . S
C887 C868 1.429 . S
C887 C881 1.429 . S
C887 C888 1.523 . S
C888 C869 1.368 . S
C888 C882 1.368 . S
C888 C887 1.523 . S
C889 C873 1.429 . S
C889 C885 1.429 . S
C889 C890 1.523 . S
C890 C874 1.368 . S
C890 C886 1.368 . S
C890 C889 1.523 . S
H891 C866 0.950 . S
H892 C868 0.950 . S
H893 C869 0.949 . S
H894 C871 0.950 . S
H895 C873 0.950 . S
C896 C897 1.349 . S
C896 C898 1.327 . S
C896 H921 0.950 . S
C897 C896 1.349 . S
C897 C913 1.349 . S
C898 C896 1.327 . S
C898 C917 1.429 . S
C898 H922 0.950 . S
C899 C916 1.574 . S
C899 C918 1.368 . S
C899 H923 0.949 . S
H900 C904 0.949 . S
C901 C902 1.349 . S
C901 C903 1.327 . S
C901 H924 0.950 . S
C902 C901 1.349 . S
C902 C914 1.349 . S
C903 C901 1.327 . S
C903 C919 1.429 . S
C903 H925 0.950 . S
C904 H900 0.949 . S
C904 C912 1.574 . S
C904 C920 1.368 . S
H905 C913 0.950 . S
H906 C911 0.950 . S
H907 C912 0.949 . S
H908 C914 0.950 . S
H909 C915 0.950 . S
H910 C916 0.949 . S
C911 H906 0.950 . S
C911 C913 1.327 . S
C911 C917 1.429 . S
C912 C904 1.574 . S
C912 H907 0.949 . S
C912 C918 1.368 . S
C913 C897 1.349 . S
C913 H905 0.950 . S
C913 C911 1.327 . S
C914 C902 1.349 . S
C914 H908 0.950 . S
C914 C915 1.327 . S
C915 H909 0.950 . S
C915 C914 1.327 . S
C915 C919 1.429 . S
C916 C899 1.574 . S
C916 H910 0.949 . S
C916 C920 1.368 . S
C917 C898 1.429 . S
C917 C911 1.429 . S
C917 C918 1.523 . S
C918 C899 1.368 . S
C918 C912 1.368 . S
C918 C917 1.523 . S
C919 C903 1.429 . S
C919 C915 1.429 . S
C919 C920 1.523 . S
C920 C904 1.368 . S
C920 C916 1.368 . S
C920 C919 1.523 . S
H921 C896 0.950 . S
H922 C898 0.950 . S
H923 C899 0.949 . S
H924 C901 0.950 . S
H925 C903 0.950 . S
C926 C927 1.349 . S
C926 C928 1.327 . S
C926 H951 0.950 . S
C927 C926 1.349 . S
C927 C943 1.349 . S
C928 C926 1.327 . S
C928 C947 1.429 . S
C928 H952 0.950 . S
C929 C946 1.574 . S
C929 C948 1.368 . S
C929 H953 0.949 . S
H930 C934 0.949 . S
C931 C932 1.349 . S
C931 C933 1.327 . S
C931 H954 0.950 . S
C932 C931 1.349 . S
C932 C944 1.349 . S
C933 C931 1.327 . S
C933 C949 1.429 . S
C933 H955 0.950 . S
C934 H930 0.949 . S
C934 C942 1.574 . S
C934 C950 1.368 . S
H935 C943 0.950 . S
H936 C941 0.950 . S
H937 C942 0.949 . S
H938 C944 0.950 . S
H939 C945 0.950 . S
H940 C946 0.949 . S
C941 H936 0.950 . S
C941 C943 1.327 . S
C941 C947 1.429 . S
C942 C934 1.574 . S
C942 H937 0.949 . S
C942 C948 1.368 . S
C943 C927 1.349 . S
C943 H935 0.950 . S
C943 C941 1.327 . S
C944 C932 1.349 . S
C944 H938 0.950 . S
C944 C945 1.327 . S
C945 H939 0.950 . S
C945 C944 1.327 . S
C945 C949 1.429 . S
C946 C929 1.574 . S
C946 H940 0.949 . S
C946 C950 1.368 . S
C947 C928 1.429 . S
C947 C941 1.429 . S
C947 C948 1.523 . S
C948 C929 1.368 . S
C948 C942 1.368 . S
C948 C947 1.523 . S
C949 C933 1.429 . S
C949 C945 1.429 . S
C949 C950 1.523 . S
C950 C934 1.368 . S
C950 C946 1.368 . S
C950 C949 1.523 . S
H951 C926 0.950 . S
H952 C928 0.950 . S
H953 C929 0.949 . S
H954 C931 0.950 . S
H955 C933 0.950 . S
C956 C957 1.349 . S
C956 C958 1.327 1_545 S
C956 H981 0.950 . S
C957 C956 1.349 . S
C957 C973 1.349 . S
C958 C956 1.327 1_565 S
C958 C977 1.429 . S
C958 H982 0.950 . S
C959 C976 1.574 . S
C959 C978 1.368 . S
C959 H983 0.949 . S
H960 C964 0.949 . S
C961 C962 1.349 . S
C961 C963 1.327 . S
C961 H984 0.950 . S
C962 C961 1.349 . S
C962 C974 1.349 . S
C963 C961 1.327 . S
C963 C979 1.429 . S
C963 H985 0.950 . S
C964 H960 0.949 . S
C964 C972 1.574 . S
C964 C980 1.368 . S
H965 C973 0.950 . S
H966 C971 0.950 . S
H967 C972 0.949 . S
H968 C974 0.950 . S
H969 C975 0.950 . S
H970 C976 0.949 . S
C971 H966 0.950 . S
C971 C973 1.327 1_565 S
C971 C977 1.429 . S
C972 C964 1.574 . S
C972 H967 0.949 . S
C972 C978 1.368 . S
C973 C957 1.349 . S
C973 H965 0.950 . S
C973 C971 1.327 1_545 S
C974 C962 1.349 . S
C974 H968 0.950 . S
C974 C975 1.327 . S
C975 H969 0.950 . S
C975 C974 1.327 . S
C975 C979 1.429 . S
C976 C959 1.574 . S
C976 H970 0.949 . S
C976 C980 1.368 . S
C977 C958 1.429 . S
C977 C971 1.429 . S
C977 C978 1.523 . S
C978 C959 1.368 . S
C978 C972 1.368 . S
C978 C977 1.523 . S
C979 C963 1.429 . S
C979 C975 1.429 . S
C979 C980 1.523 . S
C980 C964 1.368 . S
C980 C976 1.368 . S
C980 C979 1.523 . S
H981 C956 0.950 . S
H982 C958 0.950 . S
H983 C959 0.949 . S
H984 C961 0.950 . S
H985 C963 0.950 . S
C986 C987 1.349 . S
C986 C988 1.327 . S
C986 H1011 0.950 . S
C987 C986 1.349 . S
C987 C1003 1.349 . S
C988 C986 1.327 . S
C988 C1007 1.429 . S
C988 H1012 0.950 . S
C989 C1006 1.574 . S
C989 C1008 1.368 . S
C989 H1013 0.949 . S
H990 C994 0.949 . S
C991 C992 1.349 . S
C991 C993 1.327 . S
C991 H1014 0.950 . S
C992 C991 1.349 . S
C992 C1004 1.349 . S
C993 C991 1.327 . S
C993 C1009 1.429 . S
C993 H1015 0.950 . S
C994 H990 0.949 . S
C994 C1002 1.574 . S
C994 C1010 1.368 . S
H995 C1003 0.950 . S
H996 C1001 0.950 . S
H997 C1002 0.949 . S
H998 C1004 0.950 . S
H999 C1005 0.950 . S
H1000 C1006 0.949 . S
C1001 H996 0.950 . S
C1001 C1003 1.327 . S
C1001 C1007 1.429 . S
C1002 C994 1.574 . S
C1002 H997 0.949 . S
C1002 C1008 1.368 . S
C1003 C987 1.349 . S
C1003 H995 0.950 . S
C1003 C1001 1.327 . S
C1004 C992 1.349 . S
C1004 H998 0.950 . S
C1004 C1005 1.327 . S
C1005 H999 0.950 . S
C1005 C1004 1.327 . S
C1005 C1009 1.429 . S
C1006 C989 1.574 . S
C1006 H1000 0.949 . S
C1006 C1010 1.368 . S
C1007 C988 1.429 . S
C1007 C1001 1.429 . S
C1007 C1008 1.523 . S
C1008 C989 1.368 . S
C1008 C1002 1.368 . S
C1008 C1007 1.523 . S
C1009 C993 1.429 . S
C1009 C1005 1.429 . S
C1009 C1010 1.523 . S
C1010 C994 1.368 . S
C1010 C1006 1.368 . S
C1010 C1009 1.523 . S
H1011 C986 0.950 . S
H1012 C988 0.950 . S
H1013 C989 0.949 . S
H1014 C991 0.950 . S
H1015 C993 0.950 . S
C1016 C1017 1.349 . S
C1016 C1018 1.327 . S
C1016 H1041 0.950 . S
C1017 C1016 1.349 . S
C1017 C1033 1.349 . S
C1018 C1016 1.327 . S
C1018 C1037 1.429 . S
C1018 H1042 0.950 . S
C1019 C1036 1.574 . S
C1019 C1038 1.368 . S
C1019 H1043 0.949 . S
H1020 C1024 0.949 . S
C1021 C1022 1.349 . S
C1021 C1023 1.327 . S
C1021 H1044 0.950 . S
C1022 C1021 1.349 . S
C1022 C1034 1.349 . S
C1023 C1021 1.327 . S
C1023 C1039 1.429 . S
C1023 H1045 0.950 . S
C1024 H1020 0.949 . S
C1024 C1032 1.574 . S
C1024 C1040 1.368 . S
H1025 C1033 0.950 . S
H1026 C1031 0.950 . S
H1027 C1032 0.949 . S
H1028 C1034 0.950 . S
H1029 C1035 0.950 . S
H1030 C1036 0.949 . S
C1031 H1026 0.950 . S
C1031 C1033 1.327 . S
C1031 C1037 1.429 . S
C1032 C1024 1.574 . S
C1032 H1027 0.949 . S
C1032 C1038 1.368 . S
C1033 C1017 1.349 . S
C1033 H1025 0.950 . S
C1033 C1031 1.327 . S
C1034 C1022 1.349 . S
C1034 H1028 0.950 . S
C1034 C1035 1.327 . S
C1035 H1029 0.950 . S
C1035 C1034 1.327 . S
C1035 C1039 1.429 . S
C1036 C1019 1.574 . S
C1036 H1030 0.949 . S
C1036 C1040 1.368 . S
C1037 C1018 1.429 . S
C1037 C1031 1.429 . S
C1037 C1038 1.523 . S
C1038 C1019 1.368 . S
C1038 C1032 1.368 . S
C1038 C1037 1.523 . S
C1039 C1023 1.429 . S
C1039 C1035 1.429 . S
C1039 C1040 1.523 . S
C1040 C1024 1.368 . S
C1040 C1036 1.368 . S
C1040 C1039 1.523 . S
H1041 C1016 0.950 . S
H1042 C1018 0.950 . S
H1043 C1019 0.949 . S
H1044 C1021 0.950 . S
H1045 C1023 0.950 . S
C1046 C1047 1.349 . S
C1046 C1048 1.327 . S
C1046 H1071 0.950 . S
C1047 C1046 1.349 . S
C1047 C1063 1.349 . S
C1048 C1046 1.327 . S
C1048 C1067 1.429 . S
C1048 H1072 0.950 . S
C1049 C1066 1.574 . S
C1049 C1068 1.368 . S
C1049 H1073 0.949 . S
H1050 C1054 0.949 . S
C1051 C1052 1.349 . S
C1051 C1053 1.327 . S
C1051 H1074 0.950 . S
C1052 C1051 1.349 . S
C1052 C1064 1.349 . S
C1053 C1051 1.327 . S
C1053 C1069 1.429 . S
C1053 H1075 0.950 . S
C1054 H1050 0.949 . S
C1054 C1062 1.574 . S
C1054 C1070 1.368 . S
H1055 C1063 0.950 . S
H1056 C1061 0.950 . S
H1057 C1062 0.949 . S
H1058 C1064 0.950 . S
H1059 C1065 0.950 . S
H1060 C1066 0.949 . S
C1061 H1056 0.950 . S
C1061 C1063 1.327 . S
C1061 C1067 1.429 . S
C1062 C1054 1.574 . S
C1062 H1057 0.949 . S
C1062 C1068 1.368 . S
C1063 C1047 1.349 . S
C1063 H1055 0.950 . S
C1063 C1061 1.327 . S
C1064 C1052 1.349 . S
C1064 H1058 0.950 . S
C1064 C1065 1.327 . S
C1065 H1059 0.950 . S
C1065 C1064 1.327 . S
C1065 C1069 1.429 . S
C1066 C1049 1.574 . S
C1066 H1060 0.949 . S
C1066 C1070 1.368 . S
C1067 C1048 1.429 . S
C1067 C1061 1.429 . S
C1067 C1068 1.523 . S
C1068 C1049 1.368 . S
C1068 C1062 1.368 . S
C1068 C1067 1.523 . S
C1069 C1053 1.429 . S
C1069 C1065 1.429 . S
C1069 C1070 1.523 . S
C1070 C1054 1.368 . S
C1070 C1066 1.368 . S
C1070 C1069 1.523 . S
H1071 C1046 0.950 . S
H1072 C1048 0.950 . S
H1073 C1049 0.949 . S
H1074 C1051 0.950 . S
H1075 C1053 0.950 . S
C1076 C1077 1.349 . S
C1076 C1078 1.327 . S
C1076 H1101 0.950 . S
C1077 C1076 1.349 . S
C1077 C1093 1.349 . S
C1078 C1076 1.327 . S
C1078 C1097 1.429 . S
C1078 H1102 0.950 . S
C1079 C1096 1.574 . S
C1079 C1098 1.368 . S
C1079 H1103 0.949 . S
H1080 C1084 0.949 . S
C1081 C1082 1.349 . S
C1081 C1083 1.327 . S
C1081 H1104 0.950 . S
C1082 C1081 1.349 . S
C1082 C1094 1.349 . S
C1083 C1081 1.327 . S
C1083 C1099 1.429 . S
C1083 H1105 0.950 . S
C1084 H1080 0.949 . S
C1084 C1092 1.574 . S
C1084 C1100 1.368 . S
H1085 C1093 0.950 . S
H1086 C1091 0.950 . S
H1087 C1092 0.949 . S
H1088 C1094 0.950 . S
H1089 C1095 0.950 . S
H1090 C1096 0.949 . S
C1091 H1086 0.950 . S
C1091 C1093 1.327 . S
C1091 C1097 1.429 . S
C1092 C1084 1.574 . S
C1092 H1087 0.949 . S
C1092 C1098 1.368 . S
C1093 C1077 1.349 . S
C1093 H1085 0.950 . S
C1093 C1091 1.327 . S
C1094 C1082 1.349 . S
C1094 H1088 0.950 . S
C1094 C1095 1.327 . S
C1095 H1089 0.950 . S
C1095 C1094 1.327 . S
C1095 C1099 1.429 . S
C1096 C1079 1.574 . S
C1096 H1090 0.949 . S
C1096 C1100 1.368 . S
C1097 C1078 1.429 . S
C1097 C1091 1.429 . S
C1097 C1098 1.523 . S
C1098 C1079 1.368 . S
C1098 C1092 1.368 . S
C1098 C1097 1.523 . S
C1099 C1083 1.429 . S
C1099 C1095 1.429 . S
C1099 C1100 1.523 . S
C1100 C1084 1.368 . S
C1100 C1096 1.368 . S
C1100 C1099 1.523 . S
H1101 C1076 0.950 . S
H1102 C1078 0.950 . S
H1103 C1079 0.949 . S
H1104 C1081 0.950 . S
H1105 C1083 0.950 . S
C1106 C1107 1.349 . S
C1106 C1108 1.327 . S
C1106 H1131 0.950 . S
C1107 C1106 1.349 . S
C1107 C1123 1.349 . S
C1108 C1106 1.327 . S
C1108 C1127 1.429 . S
C1108 H1132 0.950 . S
C1109 C1126 1.574 . S
C1109 C1128 1.368 . S
C1109 H1133 0.949 . S
H1110 C1114 0.949 . S
C1111 C1112 1.349 . S
C1111 C1113 1.327 . S
C1111 H1134 0.950 . S
C1112 C1111 1.349 . S
C1112 C1124 1.349 . S
C1113 C1111 1.327 . S
C1113 C1129 1.429 . S
C1113 H1135 0.950 . S
C1114 H1110 0.949 . S
C1114 C1122 1.574 . S
C1114 C1130 1.368 . S
H1115 C1123 0.950 . S
H1116 C1121 0.950 . S
H1117 C1122 0.949 . S
H1118 C1124 0.950 . S
H1119 C1125 0.950 . S
H1120 C1126 0.949 . S
C1121 H1116 0.950 . S
C1121 C1123 1.327 . S
C1121 C1127 1.429 . S
C1122 C1114 1.574 . S
C1122 H1117 0.949 . S
C1122 C1128 1.368 . S
C1123 C1107 1.349 . S
C1123 H1115 0.950 . S
C1123 C1121 1.327 . S
C1124 C1112 1.349 . S
C1124 H1118 0.950 . S
C1124 C1125 1.327 . S
C1125 H1119 0.950 . S
C1125 C1124 1.327 . S
C1125 C1129 1.429 . S
C1126 C1109 1.574 . S
C1126 H1120 0.949 . S
C1126 C1130 1.368 . S
C1127 C1108 1.429 . S
C1127 C1121 1.429 . S
C1127 C1128 1.523 . S
C1128 C1109 1.368 . S
C1128 C1122 1.368 . S
C1128 C1127 1.523 . S
C1129 C1113 1.429 . S
C1129 C1125 1.429 . S
C1129 C1130 1.523 . S
C1130 C1114 1.368 . S
C1130 C1126 1.368 . S
C1130 C1129 1.523 . S
H1131 C1106 0.950 . S
H1132 C1108 0.950 . S
H1133 C1109 0.949 . S
H1134 C1111 0.950 . S
H1135 C1113 0.950 . S
C1136 C1137 1.349 . S
C1136 C1138 1.327 . S
C1136 H1161 0.950 . S
C1137 C1136 1.349 . S
C1137 C1153 1.349 . S
C1138 C1136 1.327 . S
C1138 C1157 1.429 . S
C1138 H1162 0.950 . S
C1139 C1156 1.574 . S
C1139 C1158 1.368 . S
C1139 H1163 0.949 . S
H1140 C1144 0.949 . S
C1141 C1142 1.349 . S
C1141 C1143 1.327 . S
C1141 H1164 0.950 . S
C1142 C1141 1.349 . S
C1142 C1154 1.349 . S
C1143 C1141 1.327 . S
C1143 C1159 1.429 . S
C1143 H1165 0.950 . S
C1144 H1140 0.949 . S
C1144 C1152 1.574 . S
C1144 C1160 1.368 . S
H1145 C1153 0.950 . S
H1146 C1151 0.950 . S
H1147 C1152 0.949 . S
H1148 C1154 0.950 . S
H1149 C1155 0.950 . S
H1150 C1156 0.949 . S
C1151 H1146 0.950 . S
C1151 C1153 1.327 . S
C1151 C1157 1.429 . S
C1152 C1144 1.574 . S
C1152 H1147 0.949 . S
C1152 C1158 1.368 . S
C1153 C1137 1.349 . S
C1153 H1145 0.950 . S
C1153 C1151 1.327 . S
C1154 C1142 1.349 . S
C1154 H1148 0.950 . S
C1154 C1155 1.327 . S
C1155 H1149 0.950 . S
C1155 C1154 1.327 . S
C1155 C1159 1.429 . S
C1156 C1139 1.574 . S
C1156 H1150 0.949 . S
C1156 C1160 1.368 . S
C1157 C1138 1.429 . S
C1157 C1151 1.429 . S
C1157 C1158 1.523 . S
C1158 C1139 1.368 . S
C1158 C1152 1.368 . S
C1158 C1157 1.523 . S
C1159 C1143 1.429 . S
C1159 C1155 1.429 . S
C1159 C1160 1.523 . S
C1160 C1144 1.368 . S
C1160 C1156 1.368 . S
C1160 C1159 1.523 . S
H1161 C1136 0.950 . S
H1162 C1138 0.950 . S
H1163 C1139 0.949 . S
H1164 C1141 0.950 . S
H1165 C1143 0.950 . S
C1166 C1167 1.349 . S
C1166 C1168 1.327 . S
C1166 H1191 0.950 . S
C1167 C1166 1.349 . S
C1167 C1183 1.349 . S
C1168 C1166 1.327 . S
C1168 C1187 1.429 . S
C1168 H1192 0.950 . S
C1169 C1186 1.574 . S
C1169 C1188 1.368 . S
C1169 H1193 0.949 . S
H1170 C1174 0.949 . S
C1171 C1172 1.349 . S
C1171 C1173 1.327 . S
C1171 H1194 0.950 . S
C1172 C1171 1.349 . S
C1172 C1184 1.349 . S
C1173 C1171 1.327 . S
C1173 C1189 1.429 . S
C1173 H1195 0.950 . S
C1174 H1170 0.949 . S
C1174 C1182 1.574 . S
C1174 C1190 1.368 . S
H1175 C1183 0.950 . S
H1176 C1181 0.950 . S
H1177 C1182 0.949 . S
H1178 C1184 0.950 . S
H1179 C1185 0.950 . S
H1180 C1186 0.949 . S
C1181 H1176 0.950 . S
C1181 C1183 1.327 . S
C1181 C1187 1.429 . S
C1182 C1174 1.574 . S
C1182 H1177 0.949 . S
C1182 C1188 1.368 . S
C1183 C1167 1.349 . S
C1183 H1175 0.950 . S
C1183 C1181 1.327 . S
C1184 C1172 1.349 . S
C1184 H1178 0.950 . S
C1184 C1185 1.327 . S
C1185 H1179 0.950 . S
C1185 C1184 1.327 . S
C1185 C1189 1.429 . S
C1186 C1169 1.574 . S
C1186 H1180 0.949 . S
C1186 C1190 1.368 . S
C1187 C1168 1.429 . S
C1187 C1181 1.429 . S
C1187 C1188 1.523 . S
C1188 C1169 1.368 . S
C1188 C1182 1.368 . S
C1188 C1187 1.523 . S
C1189 C1173 1.429 . S
C1189 C1185 1.429 . S
C1189 C1190 1.523 . S
C1190 C1174 1.368 . S
C1190 C1186 1.368 . S
C1190 C1189 1.523 . S
H1191 C1166 0.950 . S
H1192 C1168 0.950 . S
H1193 C1169 0.949 . S
H1194 C1171 0.950 . S
H1195 C1173 0.950 . S
C1196 C1197 1.349 . S
C1196 C1198 1.327 . S
C1196 H1221 0.950 . S
C1197 C1196 1.349 . S
C1197 C1213 1.349 . S
C1198 C1196 1.327 . S
C1198 C1217 1.429 . S
C1198 H1222 0.950 . S
C1199 C1216 1.574 . S
C1199 C1218 1.368 . S
C1199 H1223 0.949 . S
H1200 C1204 0.949 . S
C1201 C1202 1.349 . S
C1201 C1203 1.327 . S
C1201 H1224 0.950 . S
C1202 C1201 1.349 . S
C1202 C1214 1.349 . S
C1203 C1201 1.327 . S
C1203 C1219 1.429 . S
C1203 H1225 0.950 . S
C1204 H1200 0.949 . S
C1204 C1212 1.574 . S
C1204 C1220 1.368 . S
H1205 C1213 0.950 . S
H1206 C1211 0.950 . S
H1207 C1212 0.949 . S
H1208 C1214 0.950 . S
H1209 C1215 0.950 . S
H1210 C1216 0.949 . S
C1211 H1206 0.950 . S
C1211 C1213 1.327 . S
C1211 C1217 1.429 . S
C1212 C1204 1.574 . S
C1212 H1207 0.949 . S
C1212 C1218 1.368 . S
C1213 C1197 1.349 . S
C1213 H1205 0.950 . S
C1213 C1211 1.327 . S
C1214 C1202 1.349 . S
C1214 H1208 0.950 . S
C1214 C1215 1.327 . S
C1215 H1209 0.950 . S
C1215 C1214 1.327 . S
C1215 C1219 1.429 . S
C1216 C1199 1.574 . S
C1216 H1210 0.949 . S
C1216 C1220 1.368 . S
C1217 C1198 1.429 . S
C1217 C1211 1.429 . S
C1217 C1218 1.523 . S
C1218 C1199 1.368 . S
C1218 C1212 1.368 . S
C1218 C1217 1.523 . S
C1219 C1203 1.429 . S
C1219 C1215 1.429 . S
C1219 C1220 1.523 . S
C1220 C1204 1.368 . S
C1220 C1216 1.368 . S
C1220 C1219 1.523 . S
H1221 C1196 0.950 . S
H1222 C1198 0.950 . S
H1223 C1199 0.949 . S
H1224 C1201 0.950 . S
H1225 C1203 0.950 . S
C1226 C1227 1.349 . S
C1226 C1228 1.327 . S
C1226 H1251 0.950 . S
C1227 C1226 1.349 . S
C1227 C1243 1.349 . S
C1228 C1226 1.327 . S
C1228 C1247 1.429 . S
C1228 H1252 0.950 . S
C1229 C1246 1.574 . S
C1229 C1248 1.368 . S
C1229 H1253 0.949 . S
H1230 C1234 0.949 . S
C1231 C1232 1.349 . S
C1231 C1233 1.327 . S
C1231 H1254 0.950 . S
C1232 C1231 1.349 . S
C1232 C1244 1.349 . S
C1233 C1231 1.327 . S
C1233 C1249 1.429 . S
C1233 H1255 0.950 . S
C1234 H1230 0.949 . S
C1234 C1242 1.574 . S
C1234 C1250 1.368 . S
H1235 C1243 0.950 . S
H1236 C1241 0.950 . S
H1237 C1242 0.949 . S
H1238 C1244 0.950 . S
H1239 C1245 0.950 . S
H1240 C1246 0.949 . S
C1241 H1236 0.950 . S
C1241 C1243 1.327 . S
C1241 C1247 1.429 . S
C1242 C1234 1.574 . S
C1242 H1237 0.949 . S
C1242 C1248 1.368 . S
C1243 C1227 1.349 . S
C1243 H1235 0.950 . S
C1243 C1241 1.327 . S
C1244 C1232 1.349 . S
C1244 H1238 0.950 . S
C1244 C1245 1.327 . S
C1245 H1239 0.950 . S
C1245 C1244 1.327 . S
C1245 C1249 1.429 . S
C1246 C1229 1.574 . S
C1246 H1240 0.949 . S
C1246 C1250 1.368 . S
C1247 C1228 1.429 . S
C1247 C1241 1.429 . S
C1247 C1248 1.523 . S
C1248 C1229 1.368 . S
C1248 C1242 1.368 . S
C1248 C1247 1.523 . S
C1249 C1233 1.429 . S
C1249 C1245 1.429 . S
C1249 C1250 1.523 . S
C1250 C1234 1.368 . S
C1250 C1246 1.368 . S
C1250 C1249 1.523 . S
H1251 C1226 0.950 . S
H1252 C1228 0.950 . S
H1253 C1229 0.949 . S
H1254 C1231 0.950 . S
H1255 C1233 0.950 . S
C1256 C1257 1.349 . S
C1256 C1258 1.327 . S
C1256 H1281 0.950 . S
C1257 C1256 1.349 . S
C1257 C1273 1.349 . S
C1258 C1256 1.327 . S
C1258 C1277 1.429 1_545 S
C1258 H1282 0.950 . S
C1259 C1276 1.574 . S
C1259 C1278 1.368 . S
C1259 H1283 0.949 . S
H1260 C1264 0.949 . S
C1261 C1262 1.349 . S
C1261 C1263 1.327 . S
C1261 H1284 0.950 . S
C1262 C1261 1.349 . S
C1262 C1274 1.349 . S
C1263 C1261 1.327 . S
C1263 C1279 1.429 . S
C1263 H1285 0.950 . S
C1264 H1260 0.949 . S
C1264 C1272 1.574 . S
C1264 C1280 1.368 . S
H1265 C1273 0.950 . S
H1266 C1271 0.950 1_565 S
H1267 C1272 0.949 . S
H1268 C1274 0.950 . S
H1269 C1275 0.950 . S
H1270 C1276 0.949 . S
C1271 H1266 0.950 1_545 S
C1271 C1273 1.327 . S
C1271 C1277 1.429 1_545 S
C1272 C1264 1.574 . S
C1272 H1267 0.949 . S
C1272 C1278 1.368 . S
C1273 C1257 1.349 . S
C1273 H1265 0.950 . S
C1273 C1271 1.327 . S
C1274 C1262 1.349 . S
C1274 H1268 0.950 . S
C1274 C1275 1.327 . S
C1275 H1269 0.950 . S
C1275 C1274 1.327 . S
C1275 C1279 1.429 . S
C1276 C1259 1.574 . S
C1276 H1270 0.949 . S
C1276 C1280 1.368 . S
C1277 C1258 1.429 1_565 S
C1277 C1271 1.429 1_565 S
C1277 C1278 1.523 . S
C1278 C1259 1.368 . S
C1278 C1272 1.368 . S
C1278 C1277 1.523 . S
C1279 C1263 1.429 . S
C1279 C1275 1.429 . S
C1279 C1280 1.523 . S
C1280 C1264 1.368 . S
C1280 C1276 1.368 . S
C1280 C1279 1.523 . S
H1281 C1256 0.950 . S
H1282 C1258 0.950 . S
H1283 C1259 0.949 . S
H1284 C1261 0.950 . S
H1285 C1263 0.950 . S
C1286 C1287 1.349 . S
C1286 C1288 1.327 . S
C1286 H1311 0.950 . S
C1287 C1286 1.349 . S
C1287 C1303 1.349 . S
C1288 C1286 1.327 . S
C1288 C1307 1.429 . S
C1288 H1312 0.950 . S
C1289 C1306 1.574 . S
C1289 C1308 1.368 . S
C1289 H1313 0.949 . S
H1290 C1294 0.949 . S
C1291 C1292 1.349 . S
C1291 C1293 1.327 . S
C1291 H1314 0.950 . S
C1292 C1291 1.349 . S
C1292 C1304 1.349 . S
C1293 C1291 1.327 . S
C1293 C1309 1.429 . S
C1293 H1315 0.950 . S
C1294 H1290 0.949 . S
C1294 C1302 1.574 . S
C1294 C1310 1.368 . S
H1295 C1303 0.950 . S
H1296 C1301 0.950 . S
H1297 C1302 0.949 . S
H1298 C1304 0.950 . S
H1299 C1305 0.950 . S
H1300 C1306 0.949 . S
C1301 H1296 0.950 . S
C1301 C1303 1.327 . S
C1301 C1307 1.429 . S
C1302 C1294 1.574 . S
C1302 H1297 0.949 . S
C1302 C1308 1.368 . S
C1303 C1287 1.349 . S
C1303 H1295 0.950 . S
C1303 C1301 1.327 . S
C1304 C1292 1.349 . S
C1304 H1298 0.950 . S
C1304 C1305 1.327 . S
C1305 H1299 0.950 . S
C1305 C1304 1.327 . S
C1305 C1309 1.429 . S
C1306 C1289 1.574 . S
C1306 H1300 0.949 . S
C1306 C1310 1.368 . S
C1307 C1288 1.429 . S
C1307 C1301 1.429 . S
C1307 C1308 1.523 . S
C1308 C1289 1.368 . S
C1308 C1302 1.368 . S
C1308 C1307 1.523 . S
C1309 C1293 1.429 . S
C1309 C1305 1.429 . S
C1309 C1310 1.523 . S
C1310 C1294 1.368 . S
C1310 C1306 1.368 . S
C1310 C1309 1.523 . S
H1311 C1286 0.950 . S
H1312 C1288 0.950 . S
H1313 C1289 0.949 . S
H1314 C1291 0.950 . S
H1315 C1293 0.950 . S
C1316 C1317 1.349 . S
C1316 C1318 1.327 . S
C1316 H1341 0.950 . S
C1317 C1316 1.349 . S
C1317 C1333 1.349 . S
C1318 C1316 1.327 . S
C1318 C1337 1.429 . S
C1318 H1342 0.950 . S
C1319 C1336 1.574 . S
C1319 C1338 1.368 . S
C1319 H1343 0.949 . S
H1320 C1324 0.949 . S
C1321 C1322 1.349 . S
C1321 C1323 1.327 . S
C1321 H1344 0.950 . S
C1322 C1321 1.349 . S
C1322 C1334 1.349 . S
C1323 C1321 1.327 . S
C1323 C1339 1.429 . S
C1323 H1345 0.950 . S
C1324 H1320 0.949 . S
C1324 C1332 1.574 . S
C1324 C1340 1.368 . S
H1325 C1333 0.950 . S
H1326 C1331 0.950 . S
H1327 C1332 0.949 . S
H1328 C1334 0.950 . S
H1329 C1335 0.950 . S
H1330 C1336 0.949 . S
C1331 H1326 0.950 . S
C1331 C1333 1.327 . S
C1331 C1337 1.429 . S
C1332 C1324 1.574 . S
C1332 H1327 0.949 . S
C1332 C1338 1.368 . S
C1333 C1317 1.349 . S
C1333 H1325 0.950 . S
C1333 C1331 1.327 . S
C1334 C1322 1.349 . S
C1334 H1328 0.950 . S
C1334 C1335 1.327 . S
C1335 H1329 0.950 . S
C1335 C1334 1.327 . S
C1335 C1339 1.429 . S
C1336 C1319 1.574 . S
C1336 H1330 0.949 . S
C1336 C1340 1.368 . S
C1337 C1318 1.429 . S
C1337 C1331 1.429 . S
C1337 C1338 1.523 . S
C1338 C1319 1.368 . S
C1338 C1332 1.368 . S
C1338 C1337 1.523 . S
C1339 C1323 1.429 . S
C1339 C1335 1.429 . S
C1339 C1340 1.523 . S
C1340 C1324 1.368 . S
C1340 C1336 1.368 . S
C1340 C1339 1.523 . S
H1341 C1316 0.950 . S
H1342 C1318 0.950 . S
H1343 C1319 0.949 . S
H1344 C1321 0.950 . S
H1345 C1323 0.950 . S
C1346 C1347 1.349 . S
C1346 C1348 1.327 . S
C1346 H1371 0.950 . S
C1347 C1346 1.349 . S
C1347 C1363 1.349 . S
C1348 C1346 1.327 . S
C1348 C1367 1.429 . S
C1348 H1372 0.950 . S
C1349 C1366 1.574 . S
C1349 C1368 1.368 . S
C1349 H1373 0.949 . S
H1350 C1354 0.949 . S
C1351 C1352 1.349 . S
C1351 C1353 1.327 . S
C1351 H1374 0.950 . S
C1352 C1351 1.349 . S
C1352 C1364 1.349 . S
C1353 C1351 1.327 . S
C1353 C1369 1.429 . S
C1353 H1375 0.950 . S
C1354 H1350 0.949 . S
C1354 C1362 1.574 . S
C1354 C1370 1.368 . S
H1355 C1363 0.950 . S
H1356 C1361 0.950 . S
H1357 C1362 0.949 . S
H1358 C1364 0.950 . S
H1359 C1365 0.950 . S
H1360 C1366 0.949 . S
C1361 H1356 0.950 . S
C1361 C1363 1.327 . S
C1361 C1367 1.429 . S
C1362 C1354 1.574 . S
C1362 H1357 0.949 . S
C1362 C1368 1.368 . S
C1363 C1347 1.349 . S
C1363 H1355 0.950 . S
C1363 C1361 1.327 . S
C1364 C1352 1.349 . S
C1364 H1358 0.950 . S
C1364 C1365 1.327 . S
C1365 H1359 0.950 . S
C1365 C1364 1.327 . S
C1365 C1369 1.429 . S
C1366 C1349 1.574 . S
C1366 H1360 0.949 . S
C1366 C1370 1.368 . S
C1367 C1348 1.429 . S
C1367 C1361 1.429 . S
C1367 C1368 1.523 . S
C1368 C1349 1.368 . S
C1368 C1362 1.368 . S
C1368 C1367 1.523 . S
C1369 C1353 1.429 . S
C1369 C1365 1.429 . S
C1369 C1370 1.523 . S
C1370 C1354 1.368 . S
C1370 C1366 1.368 . S
C1370 C1369 1.523 . S
H1371 C1346 0.950 . S
H1372 C1348 0.950 . S
H1373 C1349 0.949 . S
H1374 C1351 0.950 . S
H1375 C1353 0.950 . S
C1376 C1377 1.349 . S
C1376 C1378 1.327 . S
C1376 H1401 0.950 . S
C1377 C1376 1.349 . S
C1377 C1393 1.349 . S
C1378 C1376 1.327 . S
C1378 C1397 1.429 . S
C1378 H1402 0.950 . S
C1379 C1396 1.574 . S
C1379 C1398 1.368 . S
C1379 H1403 0.949 . S
H1380 C1384 0.949 . S
C1381 C1382 1.349 . S
C1381 C1383 1.327 . S
C1381 H1404 0.950 . S
C1382 C1381 1.349 . S
C1382 C1394 1.349 . S
C1383 C1381 1.327 . S
C1383 C1399 1.429 . S
C1383 H1405 0.950 . S
C1384 H1380 0.949 . S
C1384 C1392 1.574 . S
C1384 C1400 1.368 . S
H1385 C1393 0.950 . S
H1386 C1391 0.950 . S
H1387 C1392 0.949 . S
H1388 C1394 0.950 . S
H1389 C1395 0.950 . S
H1390 C1396 0.949 . S
C1391 H1386 0.950 . S
C1391 C1393 1.327 . S
C1391 C1397 1.429 . S
C1392 C1384 1.574 . S
C1392 H1387 0.949 . S
C1392 C1398 1.368 . S
C1393 C1377 1.349 . S
C1393 H1385 0.950 . S
C1393 C1391 1.327 . S
C1394 C1382 1.349 . S
C1394 H1388 0.950 . S
C1394 C1395 1.327 . S
C1395 H1389 0.950 . S
C1395 C1394 1.327 . S
C1395 C1399 1.429 . S
C1396 C1379 1.574 . S
C1396 H1390 0.949 . S
C1396 C1400 1.368 . S
C1397 C1378 1.429 . S
C1397 C1391 1.429 . S
C1397 C1398 1.523 . S
C1398 C1379 1.368 . S
C1398 C1392 1.368 . S
C1398 C1397 1.523 . S
C1399 C1383 1.429 . S
C1399 C1395 1.429 . S
C1399 C1400 1.523 . S
C1400 C1384 1.368 . S
C1400 C1396 1.368 . S
C1400 C1399 1.523 . S
H1401 C1376 0.950 . S
H1402 C1378 0.950 . S
H1403 C1379 0.949 . S
H1404 C1381 0.950 . S
H1405 C1383 0.950 . S
C1406 C1407 1.349 . S
C1406 C1408 1.327 . S
C1406 H1431 0.950 . S
C1407 C1406 1.349 . S
C1407 C1423 1.349 . S
C1408 C1406 1.327 . S
C1408 C1427 1.429 . S
C1408 H1432 0.950 . S
C1409 C1426 1.574 . S
C1409 C1428 1.368 . S
C1409 H1433 0.949 . S
H1410 C1414 0.949 . S
C1411 C1412 1.349 . S
C1411 C1413 1.327 . S
C1411 H1434 0.950 . S
C1412 C1411 1.349 . S
C1412 C1424 1.349 . S
C1413 C1411 1.327 . S
C1413 C1429 1.429 . S
C1413 H1435 0.950 . S
C1414 H1410 0.949 . S
C1414 C1422 1.574 . S
C1414 C1430 1.368 . S
H1415 C1423 0.950 . S
H1416 C1421 0.950 . S
H1417 C1422 0.949 . S
H1418 C1424 0.950 . S
H1419 C1425 0.950 . S
H1420 C1426 0.949 . S
C1421 H1416 0.950 . S
C1421 C1423 1.327 . S
C1421 C1427 1.429 . S
C1422 C1414 1.574 . S
C1422 H1417 0.949 . S
C1422 C1428 1.368 . S
C1423 C1407 1.349 . S
C1423 H1415 0.950 . S
C1423 C1421 1.327 . S
C1424 C1412 1.349 . S
C1424 H1418 0.950 . S
C1424 C1425 1.327 . S
C1425 H1419 0.950 . S
C1425 C1424 1.327 . S
C1425 C1429 1.429 . S
C1426 C1409 1.574 . S
C1426 H1420 0.949 . S
C1426 C1430 1.368 . S
C1427 C1408 1.429 . S
C1427 C1421 1.429 . S
C1427 C1428 1.523 . S
C1428 C1409 1.368 . S
C1428 C1422 1.368 . S
C1428 C1427 1.523 . S
C1429 C1413 1.429 . S
C1429 C1425 1.429 . S
C1429 C1430 1.523 . S
C1430 C1414 1.368 . S
C1430 C1426 1.368 . S
C1430 C1429 1.523 . S
H1431 C1406 0.950 . S
H1432 C1408 0.950 . S
H1433 C1409 0.949 . S
H1434 C1411 0.950 . S
H1435 C1413 0.950 . S
C1436 C1437 1.349 . S
C1436 C1438 1.327 . S
C1436 H1461 0.950 . S
C1437 C1436 1.349 . S
C1437 C1453 1.349 . S
C1438 C1436 1.327 . S
C1438 C1457 1.429 . S
C1438 H1462 0.950 . S
C1439 C1456 1.574 . S
C1439 C1458 1.368 . S
C1439 H1463 0.949 . S
H1440 C1444 0.949 . S
C1441 C1442 1.349 . S
C1441 C1443 1.327 . S
C1441 H1464 0.950 . S
C1442 C1441 1.349 . S
C1442 C1454 1.349 . S
C1443 C1441 1.327 . S
C1443 C1459 1.429 . S
C1443 H1465 0.950 . S
C1444 H1440 0.949 . S
C1444 C1452 1.574 . S
C1444 C1460 1.368 . S
H1445 C1453 0.950 . S
H1446 C1451 0.950 . S
H1447 C1452 0.949 . S
H1448 C1454 0.950 . S
H1449 C1455 0.950 . S
H1450 C1456 0.949 . S
C1451 H1446 0.950 . S
C1451 C1453 1.327 . S
C1451 C1457 1.429 . S
C1452 C1444 1.574 . S
C1452 H1447 0.949 . S
C1452 C1458 1.368 . S
C1453 C1437 1.349 . S
C1453 H1445 0.950 . S
C1453 C1451 1.327 . S
C1454 C1442 1.349 . S
C1454 H1448 0.950 . S
C1454 C1455 1.327 . S
C1455 H1449 0.950 . S
C1455 C1454 1.327 . S
C1455 C1459 1.429 . S
C1456 C1439 1.574 . S
C1456 H1450 0.949 . S
C1456 C1460 1.368 . S
C1457 C1438 1.429 . S
C1457 C1451 1.429 . S
C1457 C1458 1.523 . S
C1458 C1439 1.368 . S
C1458 C1452 1.368 . S
C1458 C1457 1.523 . S
C1459 C1443 1.429 . S
C1459 C1455 1.429 . S
C1459 C1460 1.523 . S
C1460 C1444 1.368 . S
C1460 C1456 1.368 . S
C1460 C1459 1.523 . S
H1461 C1436 0.950 . S
H1462 C1438 0.950 . S
H1463 C1439 0.949 . S
H1464 C1441 0.950 . S
H1465 C1443 0.950 . S
C1466 C1467 1.349 . S
C1466 C1468 1.327 . S
C1466 H1491 0.950 . S
C1467 C1466 1.349 . S
C1467 C1483 1.349 . S
C1468 C1466 1.327 . S
C1468 C1487 1.429 . S
C1468 H1492 0.950 . S
C1469 C1486 1.574 . S
C1469 C1488 1.368 . S
C1469 H1493 0.949 . S
H1470 C1474 0.949 . S
C1471 C1472 1.349 . S
C1471 C1473 1.327 . S
C1471 H1494 0.950 . S
C1472 C1471 1.349 . S
C1472 C1484 1.349 . S
C1473 C1471 1.327 . S
C1473 C1489 1.429 . S
C1473 H1495 0.950 . S
C1474 H1470 0.949 . S
C1474 C1482 1.574 . S
C1474 C1490 1.368 . S
H1475 C1483 0.950 . S
H1476 C1481 0.950 . S
H1477 C1482 0.949 . S
H1478 C1484 0.950 . S
H1479 C1485 0.950 . S
H1480 C1486 0.949 . S
C1481 H1476 0.950 . S
C1481 C1483 1.327 . S
C1481 C1487 1.429 . S
C1482 C1474 1.574 . S
C1482 H1477 0.949 . S
C1482 C1488 1.368 . S
C1483 C1467 1.349 . S
C1483 H1475 0.950 . S
C1483 C1481 1.327 . S
C1484 C1472 1.349 . S
C1484 H1478 0.950 . S
C1484 C1485 1.327 . S
C1485 H1479 0.950 . S
C1485 C1484 1.327 . S
C1485 C1489 1.429 . S
C1486 C1469 1.574 . S
C1486 H1480 0.949 . S
C1486 C1490 1.368 . S
C1487 C1468 1.429 . S
C1487 C1481 1.429 . S
C1487 C1488 1.523 . S
C1488 C1469 1.368 . S
C1488 C1482 1.368 . S
C1488 C1487 1.523 . S
C1489 C1473 1.429 . S
C1489 C1485 1.429 . S
C1489 C1490 1.523 . S
C1490 C1474 1.368 . S
C1490 C1486 1.368 . S
C1490 C1489 1.523 . S
H1491 C1466 0.950 . S
H1492 C1468 0.950 . S
H1493 C1469 0.949 . S
H1494 C1471 0.950 . S
H1495 C1473 0.950 . S
C1496 C1497 1.349 . S
C1496 C1498 1.327 . S
C1496 H1521 0.950 . S
C1497 C1496 1.349 . S
C1497 C1513 1.349 . S
C1498 C1496 1.327 . S
C1498 C1517 1.429 . S
C1498 H1522 0.950 . S
C1499 C1516 1.574 . S
C1499 C1518 1.368 . S
C1499 H1523 0.949 . S
H1500 C1504 0.949 . S
C1501 C1502 1.349 . S
C1501 C1503 1.327 . S
C1501 H1524 0.950 . S
C1502 C1501 1.349 . S
C1502 C1514 1.349 . S
C1503 C1501 1.327 . S
C1503 C1519 1.429 . S
C1503 H1525 0.950 . S
C1504 H1500 0.949 . S
C1504 C1512 1.574 . S
C1504 C1520 1.368 . S
H1505 C1513 0.950 . S
H1506 C1511 0.950 . S
H1507 C1512 0.949 . S
H1508 C1514 0.950 . S
H1509 C1515 0.950 . S
H1510 C1516 0.949 . S
C1511 H1506 0.950 . S
C1511 C1513 1.327 . S
C1511 C1517 1.429 . S
C1512 C1504 1.574 . S
C1512 H1507 0.949 . S
C1512 C1518 1.368 . S
C1513 C1497 1.349 . S
C1513 H1505 0.950 . S
C1513 C1511 1.327 . S
C1514 C1502 1.349 . S
C1514 H1508 0.950 . S
C1514 C1515 1.327 . S
C1515 H1509 0.950 . S
C1515 C1514 1.327 . S
C1515 C1519 1.429 . S
C1516 C1499 1.574 . S
C1516 H1510 0.949 . S
C1516 C1520 1.368 . S
C1517 C1498 1.429 . S
C1517 C1511 1.429 . S
C1517 C1518 1.523 . S
C1518 C1499 1.368 . S
C1518 C1512 1.368 . S
C1518 C1517 1.523 . S
C1519 C1503 1.429 . S
C1519 C1515 1.429 . S
C1519 C1520 1.523 . S
C1520 C1504 1.368 . S
C1520 C1516 1.368 . S
C1520 C1519 1.523 . S
H1521 C1496 0.950 . S
H1522 C1498 0.950 . S
H1523 C1499 0.949 . S
H1524 C1501 0.950 . S
H1525 C1503 0.950 . S
C1526 C1527 1.349 . S
C1526 C1528 1.327 . S
C1526 H1551 0.950 . S
C1527 C1526 1.349 . S
C1527 C1543 1.349 . S
C1528 C1526 1.327 . S
C1528 C1547 1.429 . S
C1528 H1552 0.950 . S
C1529 C1546 1.574 . S
C1529 C1548 1.368 . S
C1529 H1553 0.949 . S
H1530 C1534 0.949 . S
C1531 C1532 1.349 . S
C1531 C1533 1.327 . S
C1531 H1554 0.950 . S
C1532 C1531 1.349 . S
C1532 C1544 1.349 . S
C1533 C1531 1.327 . S
C1533 C1549 1.429 . S
C1533 H1555 0.950 . S
C1534 H1530 0.949 . S
C1534 C1542 1.574 . S
C1534 C1550 1.368 . S
H1535 C1543 0.950 . S
H1536 C1541 0.950 . S
H1537 C1542 0.949 . S
H1538 C1544 0.950 . S
H1539 C1545 0.950 . S
H1540 C1546 0.949 . S
C1541 H1536 0.950 . S
C1541 C1543 1.327 . S
C1541 C1547 1.429 . S
C1542 C1534 1.574 . S
C1542 H1537 0.949 . S
C1542 C1548 1.368 . S
C1543 C1527 1.349 . S
C1543 H1535 0.950 . S
C1543 C1541 1.327 . S
C1544 C1532 1.349 . S
C1544 H1538 0.950 . S
C1544 C1545 1.327 . S
C1545 H1539 0.950 . S
C1545 C1544 1.327 . S
C1545 C1549 1.429 . S
C1546 C1529 1.574 . S
C1546 H1540 0.949 . S
C1546 C1550 1.368 . S
C1547 C1528 1.429 . S
C1547 C1541 1.429 . S
C1547 C1548 1.523 . S
C1548 C1529 1.368 . S
C1548 C1542 1.368 . S
C1548 C1547 1.523 . S
C1549 C1533 1.429 . S
C1549 C1545 1.429 . S
C1549 C1550 1.523 . S
C1550 C1534 1.368 . S
C1550 C1546 1.368 . S
C1550 C1549 1.523 . S
H1551 C1526 0.950 . S
H1552 C1528 0.950 . S
H1553 C1529 0.949 . S
H1554 C1531 0.950 . S
H1555 C1533 0.950 . S
C1556 C1557 1.349 . S
C1556 C1558 1.327 . S
C1556 H1581 0.950 . S
C1557 C1556 1.349 . S
C1557 C1573 1.349 . S
C1558 C1556 1.327 . S
C1558 C1577 1.429 . S
C1558 H1582 0.950 . S
C1559 C1576 1.574 . S
C1559 C1578 1.368 . S
C1559 H1583 0.949 . S
H1560 C1564 0.949 . S
C1561 C1562 1.349 . S
C1561 C1563 1.327 . S
C1561 H1584 0.950 . S
C1562 C1561 1.349 . S
C1562 C1574 1.349 . S
C1563 C1561 1.327 . S
C1563 C1579 1.429 . S
C1563 H1585 0.950 . S
C1564 H1560 0.949 . S
C1564 C1572 1.574 . S
C1564 C1580 1.368 . S
H1565 C1573 0.950 . S
H1566 C1571 0.950 . S
H1567 C1572 0.949 . S
H1568 C1574 0.950 . S
H1569 C1575 0.950 . S
H1570 C1576 0.949 . S
C1571 H1566 0.950 . S
C1571 C1573 1.327 . S
C1571 C1577 1.429 . S
C1572 C1564 1.574 . S
C1572 H1567 0.949 . S
C1572 C1578 1.368 . S
C1573 C1557 1.349 . S
C1573 H1565 0.950 . S
C1573 C1571 1.327 . S
C1574 C1562 1.349 . S
C1574 H1568 0.950 . S
C1574 C1575 1.327 . S
C1575 H1569 0.950 . S
C1575 C1574 1.327 . S
C1575 C1579 1.429 . S
C1576 C1559 1.574 . S
C1576 H1570 0.949 . S
C1576 C1580 1.368 . S
C1577 C1558 1.429 . S
C1577 C1571 1.429 . S
C1577 C1578 1.523 . S
C1578 C1559 1.368 . S
C1578 C1572 1.368 . S
C1578 C1577 1.523 . S
C1579 C1563 1.429 . S
C1579 C1575 1.429 . S
C1579 C1580 1.523 . S
C1580 C1564 1.368 . S
C1580 C1576 1.368 . S
C1580 C1579 1.523 . S
H1581 C1556 0.950 . S
H1582 C1558 0.950 . S
H1583 C1559 0.949 . S
H1584 C1561 0.950 . S
H1585 C1563 0.950 . S
C1586 C1587 1.349 . S
C1586 C1588 1.327 . S
C1586 H1611 0.950 . S
C1587 C1586 1.349 . S
C1587 C1603 1.349 . S
C1588 C1586 1.327 . S
C1588 C1607 1.429 . S
C1588 H1612 0.950 . S
C1589 C1606 1.574 . S
C1589 C1608 1.368 . S
C1589 H1613 0.949 . S
H1590 C1594 0.949 . S
C1591 C1592 1.349 . S
C1591 C1593 1.327 . S
C1591 H1614 0.950 . S
C1592 C1591 1.349 . S
C1592 C1604 1.349 . S
C1593 C1591 1.327 . S
C1593 C1609 1.429 . S
C1593 H1615 0.950 . S
C1594 H1590 0.949 . S
C1594 C1602 1.574 . S
C1594 C1610 1.368 . S
H1595 C1603 0.950 . S
H1596 C1601 0.950 . S
H1597 C1602 0.949 . S
H1598 C1604 0.950 . S
H1599 C1605 0.950 . S
H1600 C1606 0.949 . S
C1601 H1596 0.950 . S
C1601 C1603 1.327 . S
C1601 C1607 1.429 . S
C1602 C1594 1.574 . S
C1602 H1597 0.949 . S
C1602 C1608 1.368 . S
C1603 C1587 1.349 . S
C1603 H1595 0.950 . S
C1603 C1601 1.327 . S
C1604 C1592 1.349 . S
C1604 H1598 0.950 . S
C1604 C1605 1.327 . S
C1605 H1599 0.950 . S
C1605 C1604 1.327 . S
C1605 C1609 1.429 . S
C1606 C1589 1.574 . S
C1606 H1600 0.949 . S
C1606 C1610 1.368 . S
C1607 C1588 1.429 . S
C1607 C1601 1.429 . S
C1607 C1608 1.523 . S
C1608 C1589 1.368 . S
C1608 C1602 1.368 . S
C1608 C1607 1.523 . S
C1609 C1593 1.429 . S
C1609 C1605 1.429 . S
C1609 C1610 1.523 . S
C1610 C1594 1.368 . S
C1610 C1606 1.368 . S
C1610 C1609 1.523 . S
H1611 C1586 0.950 . S
H1612 C1588 0.950 . S
H1613 C1589 0.949 . S
H1614 C1591 0.950 . S
H1615 C1593 0.950 . S
C1616 C1617 1.349 . S
C1616 C1618 1.327 . S
C1616 H1641 0.950 . S
C1617 C1616 1.349 . S
C1617 C1633 1.349 . S
C1618 C1616 1.327 . S
C1618 C1637 1.429 . S
C1618 H1642 0.950 . S
C1619 C1636 1.574 . S
C1619 C1638 1.368 . S
C1619 H1643 0.949 . S
H1620 C1624 0.949 . S
C1621 C1622 1.349 . S
C1621 C1623 1.327 . S
C1621 H1644 0.950 . S
C1622 C1621 1.349 . S
C1622 C1634 1.349 . S
C1623 C1621 1.327 . S
C1623 C1639 1.429 . S
C1623 H1645 0.950 . S
C1624 H1620 0.949 . S
C1624 C1632 1.574 . S
C1624 C1640 1.368 . S
H1625 C1633 0.950 . S
H1626 C1631 0.950 . S
H1627 C1632 0.949 . S
H1628 C1634 0.950 . S
H1629 C1635 0.950 . S
H1630 C1636 0.949 . S
C1631 H1626 0.950 . S
C1631 C1633 1.327 . S
C1631 C1637 1.429 . S
C1632 C1624 1.574 . S
C1632 H1627 0.949 . S
C1632 C1638 1.368 . S
C1633 C1617 1.349 . S
C1633 H1625 0.950 . S
C1633 C1631 1.327 . S
C1634 C1622 1.349 . S
C1634 H1628 0.950 . S
C1634 C1635 1.327 . S
C1635 H1629 0.950 . S
C1635 C1634 1.327 . S
C1635 C1639 1.429 . S
C1636 C1619 1.574 . S
C1636 H1630 0.949 . S
C1636 C1640 1.368 . S
C1637 C1618 1.429 . S
C1637 C1631 1.429 . S
C1637 C1638 1.523 . S
C1638 C1619 1.368 . S
C1638 C1632 1.368 . S
C1638 C1637 1.523 . S
C1639 C1623 1.429 . S
C1639 C1635 1.429 . S
C1639 C1640 1.523 . S
C1640 C1624 1.368 . S
C1640 C1636 1.368 . S
C1640 C1639 1.523 . S
H1641 C1616 0.950 . S
H1642 C1618 0.950 . S
H1643 C1619 0.949 . S
H1644 C1621 0.950 . S
H1645 C1623 0.950 . S
C1646 C1647 1.349 . S
C1646 C1648 1.327 . S
C1646 H1671 0.950 . S
C1647 C1646 1.349 . S
C1647 C1663 1.349 . S
C1648 C1646 1.327 . S
C1648 C1667 1.429 . S
C1648 H1672 0.950 . S
C1649 C1666 1.574 . S
C1649 C1668 1.368 . S
C1649 H1673 0.949 . S
H1650 C1654 0.949 . S
C1651 C1652 1.349 . S
C1651 C1653 1.327 . S
C1651 H1674 0.950 . S
C1652 C1651 1.349 . S
C1652 C1664 1.349 . S
C1653 C1651 1.327 . S
C1653 C1669 1.429 . S
C1653 H1675 0.950 . S
C1654 H1650 0.949 . S
C1654 C1662 1.574 . S
C1654 C1670 1.368 . S
H1655 C1663 0.950 . S
H1656 C1661 0.950 . S
H1657 C1662 0.949 . S
H1658 C1664 0.950 . S
H1659 C1665 0.950 . S
H1660 C1666 0.949 . S
C1661 H1656 0.950 . S
C1661 C1663 1.327 . S
C1661 C1667 1.429 . S
C1662 C1654 1.574 . S
C1662 H1657 0.949 . S
C1662 C1668 1.368 . S
C1663 C1647 1.349 . S
C1663 H1655 0.950 . S
C1663 C1661 1.327 . S
C1664 C1652 1.349 . S
C1664 H1658 0.950 . S
C1664 C1665 1.327 . S
C1665 H1659 0.950 . S
C1665 C1664 1.327 . S
C1665 C1669 1.429 . S
C1666 C1649 1.574 . S
C1666 H1660 0.949 . S
C1666 C1670 1.368 . S
C1667 C1648 1.429 . S
C1667 C1661 1.429 . S
C1667 C1668 1.523 . S
C1668 C1649 1.368 . S
C1668 C1662 1.368 . S
C1668 C1667 1.523 . S
C1669 C1653 1.429 . S
C1669 C1665 1.429 . S
C1669 C1670 1.523 . S
C1670 C1654 1.368 . S
C1670 C1666 1.368 . S
C1670 C1669 1.523 . S
H1671 C1646 0.950 . S
H1672 C1648 0.950 . S
H1673 C1649 0.949 . S
H1674 C1651 0.950 . S
H1675 C1653 0.950 . S
C1676 C1677 1.349 . S
C1676 C1678 1.327 . S
C1676 H1701 0.950 . S
C1677 C1676 1.349 . S
C1677 C1693 1.349 . S
C1678 C1676 1.327 . S
C1678 C1697 1.429 . S
C1678 H1702 0.950 . S
C1679 C1696 1.574 . S
C1679 C1698 1.368 . S
C1679 H1703 0.949 . S
H1680 C1684 0.949 . S
C1681 C1682 1.349 . S
C1681 C1683 1.327 . S
C1681 H1704 0.950 . S
C1682 C1681 1.349 . S
C1682 C1694 1.349 . S
C1683 C1681 1.327 . S
C1683 C1699 1.429 . S
C1683 H1705 0.950 . S
C1684 H1680 0.949 . S
C1684 C1692 1.574 . S
C1684 C1700 1.368 . S
H1685 C1693 0.950 . S
H1686 C1691 0.950 . S
H1687 C1692 0.949 . S
H1688 C1694 0.950 . S
H1689 C1695 0.950 . S
H1690 C1696 0.949 . S
C1691 H1686 0.950 . S
C1691 C1693 1.327 . S
C1691 C1697 1.429 . S
C1692 C1684 1.574 . S
C1692 H1687 0.949 . S
C1692 C1698 1.368 . S
C1693 C1677 1.349 . S
C1693 H1685 0.950 . S
C1693 C1691 1.327 . S
C1694 C1682 1.349 . S
C1694 H1688 0.950 . S
C1694 C1695 1.327 . S
C1695 H1689 0.950 . S
C1695 C1694 1.327 . S
C1695 C1699 1.429 . S
C1696 C1679 1.574 . S
C1696 H1690 0.949 . S
C1696 C1700 1.368 . S
C1697 C1678 1.429 . S
C1697 C1691 1.429 . S
C1697 C1698 1.523 . S
C1698 C1679 1.368 . S
C1698 C1692 1.368 . S
C1698 C1697 1.523 . S
C1699 C1683 1.429 . S
C1699 C1695 1.429 . S
C1699 C1700 1.523 . S
C1700 C1684 1.368 . S
C1700 C1696 1.368 . S
C1700 C1699 1.523 . S
H1701 C1676 0.950 . S
H1702 C1678 0.950 . S
H1703 C1679 0.949 . S
H1704 C1681 0.950 . S
H1705 C1683 0.950 . S
C1706 C1707 1.349 . S
C1706 C1708 1.327 . S
C1706 H1731 0.950 . S
C1707 C1706 1.349 . S
C1707 C1723 1.349 . S
C1708 C1706 1.327 . S
C1708 C1727 1.429 . S
C1708 H1732 0.950 . S
C1709 C1726 1.574 . S
C1709 C1728 1.368 . S
C1709 H1733 0.949 . S
H1710 C1714 0.949 . S
C1711 C1712 1.349 . S
C1711 C1713 1.327 . S
C1711 H1734 0.950 . S
C1712 C1711 1.349 . S
C1712 C1724 1.349 . S
C1713 C1711 1.327 . S
C1713 C1729 1.429 . S
C1713 H1735 0.950 . S
C1714 H1710 0.949 . S
C1714 C1722 1.574 . S
C1714 C1730 1.368 . S
H1715 C1723 0.950 . S
H1716 C1721 0.950 . S
H1717 C1722 0.949 . S
H1718 C1724 0.950 . S
H1719 C1725 0.950 . S
H1720 C1726 0.949 . S
C1721 H1716 0.950 . S
C1721 C1723 1.327 . S
C1721 C1727 1.429 . S
C1722 C1714 1.574 . S
C1722 H1717 0.949 . S
C1722 C1728 1.368 . S
C1723 C1707 1.349 . S
C1723 H1715 0.950 . S
C1723 C1721 1.327 . S
C1724 C1712 1.349 . S
C1724 H1718 0.950 . S
C1724 C1725 1.327 . S
C1725 H1719 0.950 . S
C1725 C1724 1.327 . S
C1725 C1729 1.429 . S
C1726 C1709 1.574 . S
C1726 H1720 0.949 . S
C1726 C1730 1.368 . S
C1727 C1708 1.429 . S
C1727 C1721 1.429 . S
C1727 C1728 1.523 . S
C1728 C1709 1.368 . S
C1728 C1722 1.368 . S
C1728 C1727 1.523 . S
C1729 C1713 1.429 . S
C1729 C1725 1.429 . S
C1729 C1730 1.523 . S
C1730 C1714 1.368 . S
C1730 C1726 1.368 . S
C1730 C1729 1.523 . S
H1731 C1706 0.950 . S
H1732 C1708 0.950 . S
H1733 C1709 0.949 . S
H1734 C1711 0.950 . S
H1735 C1713 0.950 . S
C1736 C1737 1.349 . S
C1736 C1738 1.327 . S
C1736 H1761 0.950 . S
C1737 C1736 1.349 . S
C1737 C1753 1.349 . S
C1738 C1736 1.327 . S
C1738 C1757 1.429 . S
C1738 H1762 0.950 . S
C1739 C1756 1.574 . S
C1739 C1758 1.368 . S
C1739 H1763 0.949 . S
H1740 C1744 0.949 . S
C1741 C1742 1.349 . S
C1741 C1743 1.327 . S
C1741 H1764 0.950 . S
C1742 C1741 1.349 . S
C1742 C1754 1.349 . S
C1743 C1741 1.327 . S
C1743 C1759 1.429 . S
C1743 H1765 0.950 . S
C1744 H1740 0.949 . S
C1744 C1752 1.574 . S
C1744 C1760 1.368 . S
H1745 C1753 0.950 . S
H1746 C1751 0.950 . S
H1747 C1752 0.949 . S
H1748 C1754 0.950 . S
H1749 C1755 0.950 . S
H1750 C1756 0.949 . S
C1751 H1746 0.950 . S
C1751 C1753 1.327 . S
C1751 C1757 1.429 . S
C1752 C1744 1.574 . S
C1752 H1747 0.949 . S
C1752 C1758 1.368 . S
C1753 C1737 1.349 . S
C1753 H1745 0.950 . S
C1753 C1751 1.327 . S
C1754 C1742 1.349 . S
C1754 H1748 0.950 . S
C1754 C1755 1.327 . S
C1755 H1749 0.950 . S
C1755 C1754 1.327 . S
C1755 C1759 1.429 . S
C1756 C1739 1.574 . S
C1756 H1750 0.949 . S
C1756 C1760 1.368 . S
C1757 C1738 1.429 . S
C1757 C1751 1.429 . S
C1757 C1758 1.523 . S
C1758 C1739 1.368 . S
C1758 C1752 1.368 . S
C1758 C1757 1.523 . S
C1759 C1743 1.429 . S
C1759 C1755 1.429 . S
C1759 C1760 1.523 . S
C1760 C1744 1.368 . S
C1760 C1756 1.368 . S
C1760 C1759 1.523 . S
H1761 C1736 0.950 . S
H1762 C1738 0.950 . S
H1763 C1739 0.949 . S
H1764 C1741 0.950 . S
H1765 C1743 0.950 . S
C1766 C1767 1.349 . S
C1766 C1768 1.327 . S
C1766 H1791 0.950 . S
C1767 C1766 1.349 . S
C1767 C1783 1.349 . S
C1768 C1766 1.327 . S
C1768 C1787 1.429 . S
C1768 H1792 0.950 . S
C1769 C1786 1.574 . S
C1769 C1788 1.368 . S
C1769 H1793 0.949 . S
H1770 C1774 0.949 . S
C1771 C1772 1.349 . S
C1771 C1773 1.327 . S
C1771 H1794 0.950 . S
C1772 C1771 1.349 . S
C1772 C1784 1.349 . S
C1773 C1771 1.327 . S
C1773 C1789 1.429 . S
C1773 H1795 0.950 . S
C1774 H1770 0.949 . S
C1774 C1782 1.574 . S
C1774 C1790 1.368 . S
H1775 C1783 0.950 . S
H1776 C1781 0.950 . S
H1777 C1782 0.949 . S
H1778 C1784 0.950 . S
H1779 C1785 0.950 . S
H1780 C1786 0.949 . S
C1781 H1776 0.950 . S
C1781 C1783 1.327 . S
C1781 C1787 1.429 . S
C1782 C1774 1.574 . S
C1782 H1777 0.949 . S
C1782 C1788 1.368 . S
C1783 C1767 1.349 . S
C1783 H1775 0.950 . S
C1783 C1781 1.327 . S
C1784 C1772 1.349 . S
C1784 H1778 0.950 . S
C1784 C1785 1.327 . S
C1785 H1779 0.950 . S
C1785 C1784 1.327 . S
C1785 C1789 1.429 . S
C1786 C1769 1.574 . S
C1786 H1780 0.949 . S
C1786 C1790 1.368 . S
C1787 C1768 1.429 . S
C1787 C1781 1.429 . S
C1787 C1788 1.523 . S
C1788 C1769 1.368 . S
C1788 C1782 1.368 . S
C1788 C1787 1.523 . S
C1789 C1773 1.429 . S
C1789 C1785 1.429 . S
C1789 C1790 1.523 . S
C1790 C1774 1.368 . S
C1790 C1786 1.368 . S
C1790 C1789 1.523 . S
H1791 C1766 0.950 . S
H1792 C1768 0.950 . S
H1793 C1769 0.949 . S
H1794 C1771 0.950 . S
H1795 C1773 0.950 . S
C1796 C1797 1.349 . S
C1796 C1798 1.327 . S
C1796 H1821 0.950 . S
C1797 C1796 1.349 . S
C1797 C1813 1.349 . S
C1798 C1796 1.327 . S
C1798 C1817 1.429 . S
C1798 H1822 0.950 . S
C1799 C1816 1.574 . S
C1799 C1818 1.368 . S
C1799 H1823 0.949 . S
H1800 C1804 0.949 . S
C1801 C1802 1.349 . S
C1801 C1803 1.327 . S
C1801 H1824 0.950 . S
C1802 C1801 1.349 . S
C1802 C1814 1.349 . S
C1803 C1801 1.327 . S
C1803 C1819 1.429 . S
C1803 H1825 0.950 . S
C1804 H1800 0.949 . S
C1804 C1812 1.574 . S
C1804 C1820 1.368 . S
H1805 C1813 0.950 . S
H1806 C1811 0.950 . S
H1807 C1812 0.949 . S
H1808 C1814 0.950 . S
H1809 C1815 0.950 . S
H1810 C1816 0.949 . S
C1811 H1806 0.950 . S
C1811 C1813 1.327 . S
C1811 C1817 1.429 . S
C1812 C1804 1.574 . S
C1812 H1807 0.949 . S
C1812 C1818 1.368 . S
C1813 C1797 1.349 . S
C1813 H1805 0.950 . S
C1813 C1811 1.327 . S
C1814 C1802 1.349 . S
C1814 H1808 0.950 . S
C1814 C1815 1.327 . S
C1815 H1809 0.950 . S
C1815 C1814 1.327 . S
C1815 C1819 1.429 . S
C1816 C1799 1.574 . S
C1816 H1810 0.949 . S
C1816 C1820 1.368 . S
C1817 C1798 1.429 . S
C1817 C1811 1.429 . S
C1817 C1818 1.523 . S
C1818 C1799 1.368 . S
C1818 C1812 1.368 . S
C1818 C1817 1.523 . S
C1819 C1803 1.429 . S
C1819 C1815 1.429 . S
C1819 C1820 1.523 . S
C1820 C1804 1.368 . S
C1820 C1816 1.368 . S
C1820 C1819 1.523 . S
H1821 C1796 0.950 . S
H1822 C1798 0.950 . S
H1823 C1799 0.949 . S
H1824 C1801 0.950 . S
H1825 C1803 0.950 . S
C1826 C1827 1.349 . S
C1826 C1828 1.327 . S
C1826 H1851 0.950 . S
C1827 C1826 1.349 . S
C1827 C1843 1.349 . S
C1828 C1826 1.327 . S
C1828 C1847 1.429 . S
C1828 H1852 0.950 . S
C1829 C1846 1.574 . S
C1829 C1848 1.368 . S
C1829 H1853 0.949 . S
H1830 C1834 0.949 . S
C1831 C1832 1.349 . S
C1831 C1833 1.327 . S
C1831 H1854 0.950 . S
C1832 C1831 1.349 . S
C1832 C1844 1.349 . S
C1833 C1831 1.327 . S
C1833 C1849 1.429 . S
C1833 H1855 0.950 . S
C1834 H1830 0.949 . S
C1834 C1842 1.574 . S
C1834 C1850 1.368 . S
H1835 C1843 0.950 . S
H1836 C1841 0.950 . S
H1837 C1842 0.949 . S
H1838 C1844 0.950 . S
H1839 C1845 0.950 . S
H1840 C1846 0.949 . S
C1841 H1836 0.950 . S
C1841 C1843 1.327 . S
C1841 C1847 1.429 . S
C1842 C1834 1.574 . S
C1842 H1837 0.949 . S
C1842 C1848 1.368 . S
C1843 C1827 1.349 . S
C1843 H1835 0.950 . S
C1843 C1841 1.327 . S
C1844 C1832 1.349 . S
C1844 H1838 0.950 . S
C1844 C1845 1.327 . S
C1845 H1839 0.950 . S
C1845 C1844 1.327 . S
C1845 C1849 1.429 . S
C1846 C1829 1.574 . S
C1846 H1840 0.949 . S
C1846 C1850 1.368 . S
C1847 C1828 1.429 . S
C1847 C1841 1.429 . S
C1847 C1848 1.523 . S
C1848 C1829 1.368 . S
C1848 C1842 1.368 . S
C1848 C1847 1.523 . S
C1849 C1833 1.429 . S
C1849 C1845 1.429 . S
C1849 C1850 1.523 . S
C1850 C1834 1.368 . S
C1850 C1846 1.368 . S
C1850 C1849 1.523 . S
H1851 C1826 0.950 . S
H1852 C1828 0.950 . S
H1853 C1829 0.949 . S
H1854 C1831 0.950 . S
H1855 C1833 0.950 . S
C1856 C1857 1.349 . S
C1856 C1858 1.327 . S
C1856 H1881 0.950 . S
C1857 C1856 1.349 . S
C1857 C1873 1.349 . S
C1858 C1856 1.327 . S
C1858 C1877 1.429 . S
C1858 H1882 0.950 . S
C1859 C1876 1.574 . S
C1859 C1878 1.368 . S
C1859 H1883 0.949 . S
H1860 C1864 0.949 . S
C1861 C1862 1.349 . S
C1861 C1863 1.327 . S
C1861 H1884 0.950 . S
C1862 C1861 1.349 . S
C1862 C1874 1.349 . S
C1863 C1861 1.327 . S
C1863 C1879 1.429 . S
C1863 H1885 0.950 . S
C1864 H1860 0.949 . S
C1864 C1872 1.574 . S
C1864 C1880 1.368 . S
H1865 C1873 0.950 . S
H1866 C1871 0.950 . S
H1867 C1872 0.949 . S
H1868 C1874 0.950 . S
H1869 C1875 0.950 . S
H1870 C1876 0.949 . S
C1871 H1866 0.950 . S
C1871 C1873 1.327 . S
C1871 C1877 1.429 . S
C1872 C1864 1.574 . S
C1872 H1867 0.949 . S
C1872 C1878 1.368 . S
C1873 C1857 1.349 . S
C1873 H1865 0.950 . S
C1873 C1871 1.327 . S
C1874 C1862 1.349 . S
C1874 H1868 0.950 . S
C1874 C1875 1.327 . S
C1875 H1869 0.950 . S
C1875 C1874 1.327 . S
C1875 C1879 1.429 . S
C1876 C1859 1.574 . S
C1876 H1870 0.949 . S
C1876 C1880 1.368 . S
C1877 C1858 1.429 . S
C1877 C1871 1.429 . S
C1877 C1878 1.523 . S
C1878 C1859 1.368 . S
C1878 C1872 1.368 . S
C1878 C1877 1.523 . S
C1879 C1863 1.429 . S
C1879 C1875 1.429 . S
C1879 C1880 1.523 . S
C1880 C1864 1.368 . S
C1880 C1876 1.368 . S
C1880 C1879 1.523 . S
H1881 C1856 0.950 . S
H1882 C1858 0.950 . S
H1883 C1859 0.949 . S
H1884 C1861 0.950 . S
H1885 C1863 0.950 . S
C1886 C1887 1.349 . S
C1886 C1888 1.327 . S
C1886 H1911 0.950 . S
C1887 C1886 1.349 . S
C1887 C1903 1.349 . S
C1888 C1886 1.327 . S
C1888 C1907 1.429 . S
C1888 H1912 0.950 . S
C1889 C1906 1.574 . S
C1889 C1908 1.368 . S
C1889 H1913 0.949 . S
H1890 C1894 0.949 . S
C1891 C1892 1.349 . S
C1891 C1893 1.327 . S
C1891 H1914 0.950 . S
C1892 C1891 1.349 . S
C1892 C1904 1.349 . S
C1893 C1891 1.327 . S
C1893 C1909 1.429 . S
C1893 H1915 0.950 . S
C1894 H1890 0.949 . S
C1894 C1902 1.574 . S
C1894 C1910 1.368 . S
H1895 C1903 0.950 . S
H1896 C1901 0.950 . S
H1897 C1902 0.949 . S
H1898 C1904 0.950 . S
H1899 C1905 0.950 . S
H1900 C1906 0.949 . S
C1901 H1896 0.950 . S
C1901 C1903 1.327 . S
C1901 C1907 1.429 . S
C1902 C1894 1.574 . S
C1902 H1897 0.949 . S
C1902 C1908 1.368 . S
C1903 C1887 1.349 . S
C1903 H1895 0.950 . S
C1903 C1901 1.327 . S
C1904 C1892 1.349 . S
C1904 H1898 0.950 . S
C1904 C1905 1.327 . S
C1905 H1899 0.950 . S
C1905 C1904 1.327 . S
C1905 C1909 1.429 . S
C1906 C1889 1.574 . S
C1906 H1900 0.949 . S
C1906 C1910 1.368 . S
C1907 C1888 1.429 . S
C1907 C1901 1.429 . S
C1907 C1908 1.523 . S
C1908 C1889 1.368 . S
C1908 C1902 1.368 . S
C1908 C1907 1.523 . S
C1909 C1893 1.429 . S
C1909 C1905 1.429 . S
C1909 C1910 1.523 . S
C1910 C1894 1.368 . S
C1910 C1906 1.368 . S
C1910 C1909 1.523 . S
H1911 C1886 0.950 . S
H1912 C1888 0.950 . S
H1913 C1889 0.949 . S
H1914 C1891 0.950 . S
H1915 C1893 0.950 . S
C1916 C1917 1.349 . S
C1916 C1918 1.327 . S
C1916 H1941 0.950 . S
C1917 C1916 1.349 . S
C1917 C1933 1.349 . S
C1918 C1916 1.327 . S
C1918 C1937 1.429 . S
C1918 H1942 0.950 . S
C1919 C1936 1.574 . S
C1919 C1938 1.368 . S
C1919 H1943 0.949 . S
H1920 C1924 0.949 . S
C1921 C1922 1.349 . S
C1921 C1923 1.327 . S
C1921 H1944 0.950 . S
C1922 C1921 1.349 . S
C1922 C1934 1.349 . S
C1923 C1921 1.327 . S
C1923 C1939 1.429 . S
C1923 H1945 0.950 . S
C1924 H1920 0.949 . S
C1924 C1932 1.574 . S
C1924 C1940 1.368 . S
H1925 C1933 0.950 . S
H1926 C1931 0.950 . S
H1927 C1932 0.949 . S
H1928 C1934 0.950 . S
H1929 C1935 0.950 . S
H1930 C1936 0.949 . S
C1931 H1926 0.950 . S
C1931 C1933 1.327 . S
C1931 C1937 1.429 . S
C1932 C1924 1.574 . S
C1932 H1927 0.949 . S
C1932 C1938 1.368 . S
C1933 C1917 1.349 . S
C1933 H1925 0.950 . S
C1933 C1931 1.327 . S
C1934 C1922 1.349 . S
C1934 H1928 0.950 . S
C1934 C1935 1.327 . S
C1935 H1929 0.950 . S
C1935 C1934 1.327 . S
C1935 C1939 1.429 . S
C1936 C1919 1.574 . S
C1936 H1930 0.949 . S
C1936 C1940 1.368 . S
C1937 C1918 1.429 . S
C1937 C1931 1.429 . S
C1937 C1938 1.523 . S
C1938 C1919 1.368 . S
C1938 C1932 1.368 . S
C1938 C1937 1.523 . S
C1939 C1923 1.429 . S
C1939 C1935 1.429 . S
C1939 C1940 1.523 . S
C1940 C1924 1.368 . S
C1940 C1936 1.368 . S
C1940 C1939 1.523 . S
H1941 C1916 0.950 . S
H1942 C1918 0.950 . S
H1943 C1919 0.949 . S
H1944 C1921 0.950 . S
H1945 C1923 0.950 . S
C1946 C1947 1.349 . S
C1946 C1948 1.327 . S
C1946 H1971 0.950 . S
C1947 C1946 1.349 . S
C1947 C1963 1.349 . S
C1948 C1946 1.327 . S
C1948 C1967 1.429 . S
C1948 H1972 0.950 . S
C1949 C1966 1.574 . S
C1949 C1968 1.368 . S
C1949 H1973 0.949 . S
H1950 C1954 0.949 . S
C1951 C1952 1.349 . S
C1951 C1953 1.327 . S
C1951 H1974 0.950 . S
C1952 C1951 1.349 . S
C1952 C1964 1.349 . S
C1953 C1951 1.327 . S
C1953 C1969 1.429 . S
C1953 H1975 0.950 . S
C1954 H1950 0.949 . S
C1954 C1962 1.574 . S
C1954 C1970 1.368 . S
H1955 C1963 0.950 . S
H1956 C1961 0.950 . S
H1957 C1962 0.949 . S
H1958 C1964 0.950 . S
H1959 C1965 0.950 . S
H1960 C1966 0.949 . S
C1961 H1956 0.950 . S
C1961 C1963 1.327 . S
C1961 C1967 1.429 . S
C1962 C1954 1.574 . S
C1962 H1957 0.949 . S
C1962 C1968 1.368 . S
C1963 C1947 1.349 . S
C1963 H1955 0.950 . S
C1963 C1961 1.327 . S
C1964 C1952 1.349 . S
C1964 H1958 0.950 . S
C1964 C1965 1.327 . S
C1965 H1959 0.950 . S
C1965 C1964 1.327 . S
C1965 C1969 1.429 . S
C1966 C1949 1.574 . S
C1966 H1960 0.949 . S
C1966 C1970 1.368 . S
C1967 C1948 1.429 . S
C1967 C1961 1.429 . S
C1967 C1968 1.523 . S
C1968 C1949 1.368 . S
C1968 C1962 1.368 . S
C1968 C1967 1.523 . S
C1969 C1953 1.429 . S
C1969 C1965 1.429 . S
C1969 C1970 1.523 . S
C1970 C1954 1.368 . S
C1970 C1966 1.368 . S
C1970 C1969 1.523 . S
H1971 C1946 0.950 . S
H1972 C1948 0.950 . S
H1973 C1949 0.949 . S
H1974 C1951 0.950 . S
H1975 C1953 0.950 . S
C1976 C1977 1.349 . S
C1976 C1978 1.327 . S
C1976 H2001 0.950 . S
C1977 C1976 1.349 . S
C1977 C1993 1.349 . S
C1978 C1976 1.327 . S
C1978 C1997 1.429 . S
C1978 H2002 0.950 . S
C1979 C1996 1.574 . S
C1979 C1998 1.368 . S
C1979 H2003 0.949 . S
H1980 C1984 0.949 . S
C1981 C1982 1.349 . S
C1981 C1983 1.327 . S
C1981 H2004 0.950 . S
C1982 C1981 1.349 . S
C1982 C1994 1.349 . S
C1983 C1981 1.327 . S
C1983 C1999 1.429 . S
C1983 H2005 0.950 . S
C1984 H1980 0.949 . S
C1984 C1992 1.574 . S
C1984 C2000 1.368 . S
H1985 C1993 0.950 . S
H1986 C1991 0.950 . S
H1987 C1992 0.949 . S
H1988 C1994 0.950 . S
H1989 C1995 0.950 . S
H1990 C1996 0.949 . S
C1991 H1986 0.950 . S
C1991 C1993 1.327 . S
C1991 C1997 1.429 . S
C1992 C1984 1.574 . S
C1992 H1987 0.949 . S
C1992 C1998 1.368 . S
C1993 C1977 1.349 . S
C1993 H1985 0.950 . S
C1993 C1991 1.327 . S
C1994 C1982 1.349 . S
C1994 H1988 0.950 . S
C1994 C1995 1.327 . S
C1995 H1989 0.950 . S
C1995 C1994 1.327 . S
C1995 C1999 1.429 . S
C1996 C1979 1.574 . S
C1996 H1990 0.949 . S
C1996 C2000 1.368 . S
C1997 C1978 1.429 . S
C1997 C1991 1.429 . S
C1997 C1998 1.523 . S
C1998 C1979 1.368 . S
C1998 C1992 1.368 . S
C1998 C1997 1.523 . S
C1999 C1983 1.429 . S
C1999 C1995 1.429 . S
C1999 C2000 1.523 . S
C2000 C1984 1.368 . S
C2000 C1996 1.368 . S
C2000 C1999 1.523 . S
H2001 C1976 0.950 . S
H2002 C1978 0.950 . S
H2003 C1979 0.949 . S
H2004 C1981 0.950 . S
H2005 C1983 0.950 . S
C2006 C2007 1.349 . S
C2006 C2008 1.327 . S
C2006 H2031 0.950 . S
C2007 C2006 1.349 . S
C2007 C2023 1.349 . S
C2008 C2006 1.327 . S
C2008 C2027 1.429 . S
C2008 H2032 0.950 . S
C2009 C2026 1.574 . S
C2009 C2028 1.368 . S
C2009 H2033 0.949 . S
H2010 C2014 0.949 . S
C2011 C2012 1.349 . S
C2011 C2013 1.327 . S
C2011 H2034 0.950 . S
C2012 C2011 1.349 . S
C2012 C2024 1.349 . S
C2013 C2011 1.327 . S
C2013 C2029 1.429 . S
C2013 H2035 0.950 . S
C2014 H2010 0.949 . S
C2014 C2022 1.574 . S
C2014 C2030 1.368 . S
H2015 C2023 0.950 . S
H2016 C2021 0.950 . S
H2017 C2022 0.949 . S
H2018 C2024 0.950 . S
H2019 C2025 0.950 . S
H2020 C2026 0.949 . S
C2021 H2016 0.950 . S
C2021 C2023 1.327 . S
C2021 C2027 1.429 . S
C2022 C2014 1.574 . S
C2022 H2017 0.949 . S
C2022 C2028 1.368 . S
C2023 C2007 1.349 . S
C2023 H2015 0.950 . S
C2023 C2021 1.327 . S
C2024 C2012 1.349 . S
C2024 H2018 0.950 . S
C2024 C2025 1.327 . S
C2025 H2019 0.950 . S
C2025 C2024 1.327 . S
C2025 C2029 1.429 . S
C2026 C2009 1.574 . S
C2026 H2020 0.949 . S
C2026 C2030 1.368 . S
C2027 C2008 1.429 . S
C2027 C2021 1.429 . S
C2027 C2028 1.523 . S
C2028 C2009 1.368 . S
C2028 C2022 1.368 . S
C2028 C2027 1.523 . S
C2029 C2013 1.429 . S
C2029 C2025 1.429 . S
C2029 C2030 1.523 . S
C2030 C2014 1.368 . S
C2030 C2026 1.368 . S
C2030 C2029 1.523 . S
H2031 C2006 0.950 . S
H2032 C2008 0.950 . S
H2033 C2009 0.949 . S
H2034 C2011 0.950 . S
H2035 C2013 0.950 . S
C602 C282 1.558 . S
C597 N2 1.527 . S
C632 C325 2.444 . S
C627 C7 2.435 . S
C662 C362 1.571 . S
C657 N12 1.455 1_565 S
C687 C16 2.359 1_565 S
C692 C405 2.414 . S
C722 C454 2.579 . S
C717 C30 2.554 1_565 S
C752 C491 1.390 . S
C747 N35 1.338 . S
C777 C39 2.561 . S
C782 C534 2.559 . S
C812 C571 1.381 . S
C807 N25 1.269 1_565 S
C842 C286 1.367 . S
C837 N58 1.315 . S
C867 N81 1.945 . S
C872 C335 1.975 . S
C902 C366 1.358 . S
C897 N104 1.306 . S
C927 N127 2.001 . S
C932 C415 2.031 . S
C962 C442 0.542 . S
C957 N48 0.491 . S
C992 C485 1.610 . S
C987 N71 1.645 . S
C1017 N94 0.461 . S
C1022 C522 0.523 . S
C1052 C565 1.621 . S
C1047 N117 1.659 . S
C1077 C85 2.105 . S
C1082 C294 2.022 . S
C1107 C122 2.379 . S
C1112 C446 2.348 . S
C1137 C53 2.001 . S
C1142 C495 2.010 . S
C1172 C526 2.402 . S
C1167 C76 2.434 . S
C1202 C575 2.014 . S
C1197 C99 2.006 . S
C1232 C374 2.001 . S
C1227 C131 2.079 . S
C1262 C411 0.777 . S
C1257 C62 0.781 . S
C1287 C108 0.802 . S
C1292 C331 0.796 . S
C1322 C562 1.664 . S
C1317 N140 1.640 . S
C1347 C145 2.432 . S
C1352 C445 2.439 . S
C1382 C482 1.486 . S
C1377 N150 1.372 . S
C1407 C154 2.368 . S
C1412 C525 2.424 . S
C1442 C334 2.557 . S
C1437 C168 2.533 . S
C1467 N173 1.234 . S
C1472 C371 1.285 . S
C1502 C414 2.553 . S
C1497 C177 2.554 . S
C1532 C291 1.465 . S
C1527 N163 1.347 . S
C1562 C566 1.867 . S
C1557 C200 1.847 . S
C1592 C455 2.274 . S
C1587 N219 2.243 . S
C1617 N242 1.572 . S
C1622 C486 1.634 . S
C1652 C535 2.367 . S
C1647 C269 2.418 . S
C1682 C322 0.798 . S
C1677 C191 0.806 . S
C1707 N209 1.902 . S
C1712 C365 1.861 . S
C1737 N232 0.728 . S
C1742 C402 0.731 . S
C1767 C260 2.131 . S
C1772 C285 2.059 . S
C1797 C223 1.819 . S
C1802 C574 1.747 . S
C1827 N255 1.936 . S
C1832 C326 1.983 . S
C1857 N186 1.468 . S
C1862 C375 1.505 . S
C1892 C406 2.080 . S
C1887 C214 2.109 . S
C1922 C295 1.734 . S
C1917 C237 1.726 . S
C1952 C494 1.569 . S
C1947 N265 1.603 . S
C1982 C531 0.501 . S
C1977 N196 0.455 . S
C2012 C451 0.564 . S
C2007 C246 0.523 . S
