# Generated by pormake.
# Topology gar, (4,6)-cn, num edge types: 1
# Building blocks:
#     Node 0, Type 0, BuildingBlock: UXUYUI_clean_sbu_0, # of connection points: 4
#     Node 1, Type 0, BuildingBlock: UXUYUI_clean_sbu_0, # of connection points: 4
#     Node 2, Type 0, BuildingBlock: UXUYUI_clean_sbu_0, # of connection points: 4
#     Node 3, Type 0, BuildingBlock: UXUYUI_clean_sbu_0, # of connection points: 4
#     Node 4, Type 0, BuildingBlock: UXUYUI_clean_sbu_0, # of connection points: 4
#     Node 5, Type 0, BuildingBlock: UXUYUI_clean_sbu_0, # of connection points: 4
#     Node 6, Type 0, BuildingBlock: UXUYUI_clean_sbu_0, # of connection points: 4
#     Node 7, Type 0, BuildingBlock: UXUYUI_clean_sbu_0, # of connection points: 4
#     Node 8, Type 0, BuildingBlock: UXUYUI_clean_sbu_0, # of connection points: 4
#     Node 9, Type 0, BuildingBlock: UXUYUI_clean_sbu_0, # of connection points: 4
#     Node 10, Type 0, BuildingBlock: UXUYUI_clean_sbu_0, # of connection points: 4
#     Node 11, Type 0, BuildingBlock: UXUYUI_clean_sbu_0, # of connection points: 4
#     Node 12, Type 0, BuildingBlock: UXUYUI_clean_sbu_0, # of connection points: 4
#     Node 13, Type 0, BuildingBlock: UXUYUI_clean_sbu_0, # of connection points: 4
#     Node 14, Type 0, BuildingBlock: UXUYUI_clean_sbu_0, # of connection points: 4
#     Node 15, Type 0, BuildingBlock: UXUYUI_clean_sbu_0, # of connection points: 4
#     Node 16, Type 0, BuildingBlock: UXUYUI_clean_sbu_0, # of connection points: 4
#     Node 17, Type 0, BuildingBlock: UXUYUI_clean_sbu_0, # of connection points: 4
#     Node 18, Type 0, BuildingBlock: UXUYUI_clean_sbu_0, # of connection points: 4
#     Node 19, Type 0, BuildingBlock: UXUYUI_clean_sbu_0, # of connection points: 4
#     Node 20, Type 0, BuildingBlock: UXUYUI_clean_sbu_0, # of connection points: 4
#     Node 21, Type 0, BuildingBlock: UXUYUI_clean_sbu_0, # of connection points: 4
#     Node 22, Type 0, BuildingBlock: UXUYUI_clean_sbu_0, # of connection points: 4
#     Node 23, Type 0, BuildingBlock: UXUYUI_clean_sbu_0, # of connection points: 4
#     Node 24, Type 1, BuildingBlock: HISSIN_clean_sbu_0, # of connection points: 6
#     Node 25, Type 1, BuildingBlock: HISSIN_clean_sbu_0, # of connection points: 6
#     Node 26, Type 1, BuildingBlock: HISSIN_clean_sbu_0, # of connection points: 6
#     Node 27, Type 1, BuildingBlock: HISSIN_clean_sbu_0, # of connection points: 6
#     Node 28, Type 1, BuildingBlock: HISSIN_clean_sbu_0, # of connection points: 6
#     Node 29, Type 1, BuildingBlock: HISSIN_clean_sbu_0, # of connection points: 6
#     Node 30, Type 1, BuildingBlock: HISSIN_clean_sbu_0, # of connection points: 6
#     Node 31, Type 1, BuildingBlock: HISSIN_clean_sbu_0, # of connection points: 6
#     Node 32, Type 1, BuildingBlock: HISSIN_clean_sbu_0, # of connection points: 6
#     Node 33, Type 1, BuildingBlock: HISSIN_clean_sbu_0, # of connection points: 6
#     Node 34, Type 1, BuildingBlock: HISSIN_clean_sbu_0, # of connection points: 6
#     Node 35, Type 1, BuildingBlock: HISSIN_clean_sbu_0, # of connection points: 6
#     Node 36, Type 1, BuildingBlock: HISSIN_clean_sbu_0, # of connection points: 6
#     Node 37, Type 1, BuildingBlock: HISSIN_clean_sbu_0, # of connection points: 6
#     Node 38, Type 1, BuildingBlock: HISSIN_clean_sbu_0, # of connection points: 6
#     Node 39, Type 1, BuildingBlock: HISSIN_clean_sbu_0, # of connection points: 6
#     Edge 40, Type (0, 1), BuildingBlock: UVAHIK_clean_linker_0, # of connection points: 2
#     Edge 41, Type (0, 1), BuildingBlock: UVAHIK_clean_linker_0, # of connection points: 2
#     Edge 42, Type (0, 1), BuildingBlock: UVAHIK_clean_linker_0, # of connection points: 2
#     Edge 43, Type (0, 1), BuildingBlock: UVAHIK_clean_linker_0, # of connection points: 2
#     Edge 44, Type (0, 1), BuildingBlock: UVAHIK_clean_linker_0, # of connection points: 2
#     Edge 45, Type (0, 1), BuildingBlock: UVAHIK_clean_linker_0, # of connection points: 2
#     Edge 46, Type (0, 1), BuildingBlock: UVAHIK_clean_linker_0, # of connection points: 2
#     Edge 47, Type (0, 1), BuildingBlock: UVAHIK_clean_linker_0, # of connection points: 2
#     Edge 48, Type (0, 1), BuildingBlock: UVAHIK_clean_linker_0, # of connection points: 2
#     Edge 49, Type (0, 1), BuildingBlock: UVAHIK_clean_linker_0, # of connection points: 2
#     Edge 50, Type (0, 1), BuildingBlock: UVAHIK_clean_linker_0, # of connection points: 2
#     Edge 51, Type (0, 1), BuildingBlock: UVAHIK_clean_linker_0, # of connection points: 2
#     Edge 52, Type (0, 1), BuildingBlock: UVAHIK_clean_linker_0, # of connection points: 2
#     Edge 53, Type (0, 1), BuildingBlock: UVAHIK_clean_linker_0, # of connection points: 2
#     Edge 54, Type (0, 1), BuildingBlock: UVAHIK_clean_linker_0, # of connection points: 2
#     Edge 55, Type (0, 1), BuildingBlock: UVAHIK_clean_linker_0, # of connection points: 2
#     Edge 56, Type (0, 1), BuildingBlock: UVAHIK_clean_linker_0, # of connection points: 2
#     Edge 57, Type (0, 1), BuildingBlock: UVAHIK_clean_linker_0, # of connection points: 2
#     Edge 58, Type (0, 1), BuildingBlock: UVAHIK_clean_linker_0, # of connection points: 2
#     Edge 59, Type (0, 1), BuildingBlock: UVAHIK_clean_linker_0, # of connection points: 2
#     Edge 60, Type (0, 1), BuildingBlock: UVAHIK_clean_linker_0, # of connection points: 2
#     Edge 61, Type (0, 1), BuildingBlock: UVAHIK_clean_linker_0, # of connection points: 2
#     Edge 62, Type (0, 1), BuildingBlock: UVAHIK_clean_linker_0, # of connection points: 2
#     Edge 63, Type (0, 1), BuildingBlock: UVAHIK_clean_linker_0, # of connection points: 2
#     Edge 64, Type (0, 1), BuildingBlock: UVAHIK_clean_linker_0, # of connection points: 2
#     Edge 65, Type (0, 1), BuildingBlock: UVAHIK_clean_linker_0, # of connection points: 2
#     Edge 66, Type (0, 1), BuildingBlock: UVAHIK_clean_linker_0, # of connection points: 2
#     Edge 67, Type (0, 1), BuildingBlock: UVAHIK_clean_linker_0, # of connection points: 2
#     Edge 68, Type (0, 1), BuildingBlock: UVAHIK_clean_linker_0, # of connection points: 2
#     Edge 69, Type (0, 1), BuildingBlock: UVAHIK_clean_linker_0, # of connection points: 2
#     Edge 70, Type (0, 1), BuildingBlock: UVAHIK_clean_linker_0, # of connection points: 2
#     Edge 71, Type (0, 1), BuildingBlock: UVAHIK_clean_linker_0, # of connection points: 2
#     Edge 72, Type (0, 1), BuildingBlock: UVAHIK_clean_linker_0, # of connection points: 2
#     Edge 73, Type (0, 1), BuildingBlock: UVAHIK_clean_linker_0, # of connection points: 2
#     Edge 74, Type (0, 1), BuildingBlock: UVAHIK_clean_linker_0, # of connection points: 2
#     Edge 75, Type (0, 1), BuildingBlock: UVAHIK_clean_linker_0, # of connection points: 2
#     Edge 76, Type (0, 1), BuildingBlock: UVAHIK_clean_linker_0, # of connection points: 2
#     Edge 77, Type (0, 1), BuildingBlock: UVAHIK_clean_linker_0, # of connection points: 2
#     Edge 78, Type (0, 1), BuildingBlock: UVAHIK_clean_linker_0, # of connection points: 2
#     Edge 79, Type (0, 1), BuildingBlock: UVAHIK_clean_linker_0, # of connection points: 2
#     Edge 80, Type (0, 1), BuildingBlock: UVAHIK_clean_linker_0, # of connection points: 2
#     Edge 81, Type (0, 1), BuildingBlock: UVAHIK_clean_linker_0, # of connection points: 2
#     Edge 82, Type (0, 1), BuildingBlock: UVAHIK_clean_linker_0, # of connection points: 2
#     Edge 83, Type (0, 1), BuildingBlock: UVAHIK_clean_linker_0, # of connection points: 2
#     Edge 84, Type (0, 1), BuildingBlock: UVAHIK_clean_linker_0, # of connection points: 2
#     Edge 85, Type (0, 1), BuildingBlock: UVAHIK_clean_linker_0, # of connection points: 2
#     Edge 86, Type (0, 1), BuildingBlock: UVAHIK_clean_linker_0, # of connection points: 2
#     Edge 87, Type (0, 1), BuildingBlock: UVAHIK_clean_linker_0, # of connection points: 2
#     Edge 88, Type (0, 1), BuildingBlock: UVAHIK_clean_linker_0, # of connection points: 2
#     Edge 89, Type (0, 1), BuildingBlock: UVAHIK_clean_linker_0, # of connection points: 2
#     Edge 90, Type (0, 1), BuildingBlock: UVAHIK_clean_linker_0, # of connection points: 2
#     Edge 91, Type (0, 1), BuildingBlock: UVAHIK_clean_linker_0, # of connection points: 2
#     Edge 92, Type (0, 1), BuildingBlock: UVAHIK_clean_linker_0, # of connection points: 2
#     Edge 93, Type (0, 1), BuildingBlock: UVAHIK_clean_linker_0, # of connection points: 2
#     Edge 94, Type (0, 1), BuildingBlock: UVAHIK_clean_linker_0, # of connection points: 2
#     Edge 95, Type (0, 1), BuildingBlock: UVAHIK_clean_linker_0, # of connection points: 2
#     Edge 96, Type (0, 1), BuildingBlock: UVAHIK_clean_linker_0, # of connection points: 2
#     Edge 97, Type (0, 1), BuildingBlock: UVAHIK_clean_linker_0, # of connection points: 2
#     Edge 98, Type (0, 1), BuildingBlock: UVAHIK_clean_linker_0, # of connection points: 2
#     Edge 99, Type (0, 1), BuildingBlock: UVAHIK_clean_linker_0, # of connection points: 2
#     Edge 100, Type (0, 1), BuildingBlock: UVAHIK_clean_linker_0, # of connection points: 2
#     Edge 101, Type (0, 1), BuildingBlock: UVAHIK_clean_linker_0, # of connection points: 2
#     Edge 102, Type (0, 1), BuildingBlock: UVAHIK_clean_linker_0, # of connection points: 2
#     Edge 103, Type (0, 1), BuildingBlock: UVAHIK_clean_linker_0, # of connection points: 2
#     Edge 104, Type (0, 1), BuildingBlock: UVAHIK_clean_linker_0, # of connection points: 2
#     Edge 105, Type (0, 1), BuildingBlock: UVAHIK_clean_linker_0, # of connection points: 2
#     Edge 106, Type (0, 1), BuildingBlock: UVAHIK_clean_linker_0, # of connection points: 2
#     Edge 107, Type (0, 1), BuildingBlock: UVAHIK_clean_linker_0, # of connection points: 2
#     Edge 108, Type (0, 1), BuildingBlock: UVAHIK_clean_linker_0, # of connection points: 2
#     Edge 109, Type (0, 1), BuildingBlock: UVAHIK_clean_linker_0, # of connection points: 2
#     Edge 110, Type (0, 1), BuildingBlock: UVAHIK_clean_linker_0, # of connection points: 2
#     Edge 111, Type (0, 1), BuildingBlock: UVAHIK_clean_linker_0, # of connection points: 2
#     Edge 112, Type (0, 1), BuildingBlock: UVAHIK_clean_linker_0, # of connection points: 2
#     Edge 113, Type (0, 1), BuildingBlock: UVAHIK_clean_linker_0, # of connection points: 2
#     Edge 114, Type (0, 1), BuildingBlock: UVAHIK_clean_linker_0, # of connection points: 2
#     Edge 115, Type (0, 1), BuildingBlock: UVAHIK_clean_linker_0, # of connection points: 2
#     Edge 116, Type (0, 1), BuildingBlock: UVAHIK_clean_linker_0, # of connection points: 2
#     Edge 117, Type (0, 1), BuildingBlock: UVAHIK_clean_linker_0, # of connection points: 2
#     Edge 118, Type (0, 1), BuildingBlock: UVAHIK_clean_linker_0, # of connection points: 2
#     Edge 119, Type (0, 1), BuildingBlock: UVAHIK_clean_linker_0, # of connection points: 2
#     Edge 120, Type (0, 1), BuildingBlock: UVAHIK_clean_linker_0, # of connection points: 2
#     Edge 121, Type (0, 1), BuildingBlock: UVAHIK_clean_linker_0, # of connection points: 2
#     Edge 122, Type (0, 1), BuildingBlock: UVAHIK_clean_linker_0, # of connection points: 2
#     Edge 123, Type (0, 1), BuildingBlock: UVAHIK_clean_linker_0, # of connection points: 2
#     Edge 124, Type (0, 1), BuildingBlock: UVAHIK_clean_linker_0, # of connection points: 2
#     Edge 125, Type (0, 1), BuildingBlock: UVAHIK_clean_linker_0, # of connection points: 2
#     Edge 126, Type (0, 1), BuildingBlock: UVAHIK_clean_linker_0, # of connection points: 2
#     Edge 127, Type (0, 1), BuildingBlock: UVAHIK_clean_linker_0, # of connection points: 2
#     Edge 128, Type (0, 1), BuildingBlock: UVAHIK_clean_linker_0, # of connection points: 2
#     Edge 129, Type (0, 1), BuildingBlock: UVAHIK_clean_linker_0, # of connection points: 2
#     Edge 130, Type (0, 1), BuildingBlock: UVAHIK_clean_linker_0, # of connection points: 2
#     Edge 131, Type (0, 1), BuildingBlock: UVAHIK_clean_linker_0, # of connection points: 2
#     Edge 132, Type (0, 1), BuildingBlock: UVAHIK_clean_linker_0, # of connection points: 2
#     Edge 133, Type (0, 1), BuildingBlock: UVAHIK_clean_linker_0, # of connection points: 2
#     Edge 134, Type (0, 1), BuildingBlock: UVAHIK_clean_linker_0, # of connection points: 2
#     Edge 135, Type (0, 1), BuildingBlock: UVAHIK_clean_linker_0, # of connection points: 2
# Relax obj value: 0.162
# Max RMSD: 0.251
# Mean RMSD: 0.179
data_MOF--net-gar--node1-UXUYUI_clean_sbu_0--node2-HISSIN_clean_sbu_0--edge1-UVAHIK_clean_linker_0
_symmetry_space_group_name_H-M    P1
_symmetry_Int_Tables_number       1
_symmetry_cell_setting            triclinic
loop_
_symmetry_equiv_pos_as_xyz
'x, y, z'
_cell_length_a     87.907069
_cell_length_b     87.565755
_cell_length_c     86.327793
_cell_angle_alpha  99.04517
_cell_angle_beta   93.268059
_cell_angle_gamma 100.10172
loop_
_atom_site_label
_atom_site_type_symbol
_atom_site_fract_x
_atom_site_fract_y
_atom_site_fract_z
_atom_type_partial_charge
Li0 Li 0.04682 0.27796 0.36404 0.0
Li1 Li 0.05726 0.29709 0.38703 0.0
Li2 Li 0.07449 0.2847 0.37112 0.0
Li3 Li 0.05752 0.26993 0.388 0.0
C4 C 0.05267 0.30897 0.35939 0.0
N5 N 0.03634 0.32995 0.34847 0.0
C6 C 0.03791 0.31005 0.36418 0.0
C7 C 0.05911 0.31857 0.34904 0.0
C8 C 0.02985 0.32073 0.35853 0.0
C9 C 0.05068 0.3291 0.34365 0.0
C10 C 0.02772 0.2797 0.39499 0.0
C11 C 0.01842 0.27799 0.42054 0.0
N12 N 1.00412 0.2795 0.41483 0.0
C13 C 0.01291 0.28117 0.38937 0.0
C14 C 0.0305 0.27806 0.4107 0.0
C15 C 1.00114 0.28108 0.39959 0.0
C16 C 0.0182 0.26145 0.34943 0.0
N17 N 0.03104 0.27174 0.34725 0.0
C18 C 0.02011 0.27416 0.322 0.0
C19 C 0.03237 0.27784 0.33375 0.0
C20 C 0.0064 0.26408 0.3242 0.0
C21 C 0.00564 0.25745 0.338 0.0
H22 H 0.01758 0.25664 0.36023 0.0
H23 H 0.04279 0.28588 0.33224 0.0
C24 C 0.06656 0.3294 0.39649 0.0
N25 N 0.0557 0.31705 0.39881 0.0
C26 C 0.06652 0.34454 0.40442 0.0
C27 C 0.04386 0.33409 0.41671 0.0
C28 C 0.04444 0.31913 0.40866 0.0
C29 C 0.05502 0.34705 0.41468 0.0
H30 H 0.07529 0.32745 0.38845 0.0
H31 H 0.03578 0.30932 0.41022 0.0
C32 C 0.06341 0.2559 0.35069 0.0
N33 N 0.06746 0.24137 0.32081 0.0
C34 C 0.06226 0.23958 0.34739 0.0
C35 C 0.0666 0.26483 0.3388 0.0
C36 C 0.06435 0.23245 0.33221 0.0
C37 C 0.06862 0.25727 0.32377 0.0
C38 C 0.08223 0.29932 0.40635 0.0
C39 C 0.0953 0.30998 0.40385 0.0
C40 C 0.07643 0.30067 0.42115 0.0
C41 C 0.10219 0.32201 0.41613 0.0
C42 C 0.08363 0.31287 0.43312 0.0
N43 N 0.09625 0.3232 0.43039 0.0
C44 C 0.09891 0.30188 0.35855 0.0
C45 C 0.10192 0.27574 0.36003 0.0
C46 C 0.11256 0.30455 0.35114 0.0
N47 N 0.09385 0.28764 0.36267 0.0
C48 C 0.11563 0.27787 0.3526 0.0
C49 C 0.12103 0.2924 0.34792 0.0
H50 H 0.09225 0.31113 0.36093 0.0
H51 H 0.0975 0.2645 0.36338 0.0
C52 C 0.04165 0.24331 0.39784 0.0
N53 N 0.05497 0.2542 0.40064 0.0
C54 C 0.03816 0.23259 0.40805 0.0
C55 C 0.06243 0.24421 0.42351 0.0
C56 C 0.06542 0.25477 0.41303 0.0
C57 C 0.04852 0.23308 0.42121 0.0
H58 H 0.03349 0.24336 0.38799 0.0
H59 H 0.07586 0.26369 0.41498 0.0
O60 O 0.06085 0.29863 0.36475 0.0
O61 O 0.03931 0.27958 0.38504 0.0
O62 O 0.06133 0.263 0.3655 0.0
O63 O 0.07515 0.28766 0.39437 0.0
H64 H 0.03273 0.30278 0.37218 0.0
H65 H 0.0705 0.31785 0.34516 0.0
H66 H 0.01843 0.32168 0.36216 0.0
H67 H 0.05553 0.33659 0.33562 0.0
H68 H 0.02043 0.27676 0.43273 0.0
H69 H 0.01052 0.28242 0.37724 0.0
H70 H 0.04185 0.27697 0.41531 0.0
H71 H 0.98964 0.28225 0.3954 0.0
H72 H 0.02113 0.27966 0.31162 0.0
H73 H 0.99536 0.24947 0.34006 0.0
H74 H 0.07546 0.35414 0.4026 0.0
H75 H 0.03458 0.33549 0.42423 0.0
H76 H 0.05977 0.2325 0.35648 0.0
H77 H 0.06752 0.27747 0.34112 0.0
H78 H 0.0635 0.21982 0.32948 0.0
H79 H 0.07109 0.26404 0.31445 0.0
H80 H 0.1 0.30908 0.39251 0.0
H81 H 0.06641 0.29246 0.42334 0.0
H82 H 0.11224 0.33041 0.41433 0.0
H83 H 0.07919 0.31412 0.44459 0.0
H84 H 0.11645 0.316 0.34798 0.0
H85 H 0.12173 0.26814 0.35019 0.0
H86 H 0.0272 0.22439 0.40594 0.0
H87 H 0.07083 0.24486 0.43337 0.0
Li88 Li 0.9916 0.77789 0.62711 0.0
Li89 Li 0.00604 0.76573 0.64501 0.0
Li90 Li 0.98964 0.75004 0.62217 0.0
Li91 Li 0.97842 0.76215 0.64498 0.0
C92 C 0.01765 0.77488 0.614 0.0
N93 N 0.03561 0.79451 0.59722 0.0
C94 C 0.03112 0.78497 0.62133 0.0
C95 C 0.01338 0.77468 0.59811 0.0
C96 C 0.04004 0.7948 0.61264 0.0
C97 C 0.02258 0.78474 0.58985 0.0
C98 C 0.98696 0.79089 0.66149 0.0
C99 C 0.97897 0.79611 0.68778 0.0
N100 N 0.97208 0.8078 0.68364 0.0
C101 C 0.97982 0.80297 0.65751 0.0
C102 C 0.98659 0.78745 0.67676 0.0
C103 C 0.97236 0.81139 0.66888 0.0
C104 C 0.9842 0.79595 0.60409 0.0
N105 N 0.99308 0.79599 0.6175 0.0
C106 C 0.00842 0.82077 0.61543 0.0
C107 C 0.00468 0.80825 0.62352 0.0
C108 C 0.99999 0.82075 0.6011 0.0
C109 C 0.98744 0.80833 0.59566 0.0
H110 H 0.97502 0.78604 0.59962 0.0
H111 H 0.01157 0.80786 0.63419 0.0
C112 C 0.03529 0.75884 0.65154 0.0
N113 N 0.02489 0.76752 0.65737 0.0
C114 C 0.04885 0.75871 0.66064 0.0
C115 C 0.04097 0.77692 0.68137 0.0
C116 C 0.02752 0.77665 0.67186 0.0
C117 C 0.05174 0.7677 0.67584 0.0
H118 H 0.03289 0.7518 0.63989 0.0
H119 H 0.01908 0.78351 0.67613 0.0
C120 C 0.96171 0.75222 0.6116 0.0
N121 N 0.94073 0.73149 0.58965 0.0
C122 C 0.94871 0.74315 0.61645 0.0
C123 C 0.96398 0.75085 0.59558 0.0
C124 C 0.93824 0.73272 0.60517 0.0
C125 C 0.95327 0.74026 0.58467 0.0
C126 C 0.99957 0.73747 0.65192 0.0
C127 C 0.00672 0.72601 0.64369 0.0
C128 C 1.00178 0.74083 0.66836 0.0
C129 C 0.01603 0.71815 0.65206 0.0
C130 C 0.01121 0.73274 0.67629 0.0
N131 N 0.01809 0.72167 0.66805 0.0
C132 C 0.9989 0.73038 0.5969 0.0
C133 C 0.97692 0.71886 0.60858 0.0
C134 C 0.99941 0.71595 0.58764 0.0
N135 N 0.98792 0.73147 0.60725 0.0
C136 C 0.97692 0.70423 0.59947 0.0
C137 C 0.98855 0.70255 0.58915 0.0
H138 H 0.00777 0.74049 0.59644 0.0
H139 H 0.96859 0.72002 0.61722 0.0
C140 C 0.95156 0.76911 0.65921 0.0
N141 N 0.96186 0.75919 0.65792 0.0
C142 C 0.94019 0.76754 0.66979 0.0
C143 C 0.94966 0.74495 0.67669 0.0
C144 C 0.96091 0.74706 0.6661 0.0
C145 C 0.93931 0.75545 0.67883 0.0
H146 H 0.95237 0.77842 0.65225 0.0
H147 H 0.969 0.7391 0.66456 0.0
O148 O 0.00855 0.76545 0.62241 0.0
O149 O 0.99422 0.78243 0.65048 0.0
O150 O 0.97216 0.76239 0.62248 0.0
O151 O 0.99071 0.74559 0.64393 0.0
H152 H 0.03455 0.78535 0.63364 0.0
H153 H 1.00294 0.76703 0.59229 0.0
H154 H 0.05044 0.80274 0.61818 0.0
H155 H 0.01933 0.78483 0.57759 0.0
H156 H 0.97848 0.79349 0.69959 0.0
H157 H 0.97993 0.80575 0.64574 0.0
H158 H 0.99188 0.77801 0.67999 0.0
H159 H 0.96675 0.82073 0.66595 0.0
H160 H 0.01831 0.82994 0.61999 0.0
H161 H 0.98044 0.80798 0.58484 0.0
H162 H 0.05699 0.75167 0.65584 0.0
H163 H 0.04274 0.78395 0.69305 0.0
H164 H 0.94676 0.74406 0.62879 0.0
H165 H 0.97404 0.75771 0.59164 0.0
H166 H 0.92816 0.72557 0.60875 0.0
H167 H 0.95495 0.73899 0.57225 0.0
H168 H 0.00526 0.72331 0.63098 0.0
H169 H 0.99647 0.74978 0.67491 0.0
H170 H 0.02169 0.70931 0.64584 0.0
H171 H 0.01312 0.73532 0.689 0.0
H172 H 0.00876 0.71516 0.58009 0.0
H173 H 0.96825 0.69424 0.60091 0.0
H174 H 0.93221 0.7757 0.67091 0.0
H175 H 0.94934 0.73548 0.68344 0.0
Li176 Li 0.54985 0.78174 0.86656 0.0
Li177 Li 0.56181 0.79834 0.89017 0.0
Li178 Li 0.57771 0.78704 0.87117 0.0
Li179 Li 0.56082 0.77049 0.88786 0.0
C180 C 0.55673 0.81399 0.86544 0.0
N181 N 0.54183 0.83815 0.85992 0.0
C182 C 0.54195 0.81452 0.87043 0.0
C183 C 0.56393 0.82576 0.85765 0.0
C184 C 0.53461 0.82683 0.86753 0.0
C185 C 0.55621 0.83787 0.85496 0.0
C186 C 0.53238 0.78086 0.89845 0.0
C187 C 0.52483 0.77738 0.92429 0.0
N188 N 0.51031 0.77949 0.92 0.0
C189 C 0.51737 0.78292 0.89428 0.0
C190 C 0.53614 0.77802 0.91356 0.0
C191 C 0.50639 0.78223 0.90535 0.0
C192 C 0.52046 0.76752 0.85092 0.0
N193 N 0.53371 0.77789 0.85011 0.0
C194 C 0.52414 0.78313 0.82544 0.0
C195 C 0.53586 0.78544 0.8376 0.0
C196 C 0.51015 0.77269 0.82601 0.0
C197 C 0.5085 0.76465 0.83889 0.0
H198 H 0.51923 0.76146 0.8609 0.0
H199 H 0.54666 0.79337 0.8371 0.0
C200 C 0.57311 0.82978 0.90279 0.0
N201 N 0.56165 0.81755 0.90411 0.0
C202 C 0.57368 0.84458 0.9118 0.0
C203 C 0.5505 0.83404 0.92324 0.0
C204 C 0.55047 0.81941 0.91411 0.0
C205 C 0.56216 0.84691 0.92208 0.0
H206 H 0.58169 0.82807 0.89452 0.0
H207 H 0.54126 0.80975 0.9148 0.0
C208 C 0.5577 0.75662 0.85116 0.0
N209 N 0.5441 0.73825 0.82318 0.0
C210 C 0.54688 0.7429 0.8513 0.0
C211 C 0.56168 0.76095 0.8368 0.0
C212 C 0.54012 0.73378 0.83702 0.0
C213 C 0.55465 0.75152 0.82278 0.0
C214 C 0.58787 0.79757 0.9069 0.0
C215 C 0.60125 0.8079 0.90457 0.0
C216 C 0.5831 0.79764 0.92207 0.0
C217 C 0.60947 0.81837 0.91743 0.0
C218 C 0.59162 0.8083 0.93463 0.0
N219 N 0.60451 0.81837 0.93207 0.0
C220 C 0.60248 0.80461 0.85901 0.0
C221 C 0.60121 0.77696 0.85395 0.0
C222 C 0.61484 0.8069 0.84968 0.0
N223 N 0.5959 0.78982 0.8608 0.0
C224 C 0.61345 0.77868 0.84441 0.0
C225 C 0.62027 0.79379 0.84202 0.0
H226 H 0.59785 0.81457 0.86453 0.0
H227 H 0.5956 0.76535 0.8555 0.0
C228 C 0.54498 0.74378 0.89815 0.0
N229 N 0.55894 0.75355 0.89901 0.0
C230 C 0.54262 0.7326 0.90805 0.0
C231 C 0.56926 0.74136 0.91903 0.0
C232 C 0.57107 0.75243 0.90897 0.0
C233 C 0.55478 0.73149 0.91885 0.0
H234 H 0.53551 0.74513 0.89022 0.0
H235 H 0.58197 0.76053 0.9095 0.0
O236 O 0.56429 0.80219 0.86832 0.0
O237 O 0.54319 0.78135 0.88764 0.0
O238 O 0.5641 0.76595 0.86501 0.0
O239 O 0.57955 0.78741 0.89439 0.0
H240 H 0.53621 0.80558 0.87652 0.0
H241 H 0.57538 0.82554 0.85372 0.0
H242 H 0.52318 0.82738 0.87135 0.0
H243 H 0.56165 0.84706 0.84894 0.0
H244 H 0.52759 0.77521 0.93602 0.0
H245 H 0.51423 0.78507 0.88262 0.0
H246 H 0.54766 0.77638 0.91702 0.0
H247 H 0.49474 0.78385 0.90229 0.0
H248 H 0.52593 0.78977 0.81592 0.0
H249 H 0.49807 0.75627 0.83971 0.0
H250 H 0.58298 0.85411 0.91061 0.0
H251 H 0.54118 0.83533 0.93072 0.0
H252 H 0.54365 0.73942 0.86232 0.0
H253 H 0.56992 0.77163 0.83651 0.0
H254 H 0.53166 0.72317 0.83694 0.0
H255 H 0.55753 0.75479 0.81158 0.0
H256 H 0.60518 0.80792 0.89293 0.0
H257 H 0.57289 0.78962 0.92413 0.0
H258 H 0.61978 0.82651 0.91578 0.0
H259 H 0.58798 0.80856 0.94642 0.0
H260 H 0.61973 0.81871 0.84803 0.0
H261 H 0.61745 0.76831 0.83884 0.0
H262 H 0.53134 0.7251 0.90747 0.0
H263 H 0.57887 0.74097 0.9273 0.0
Li264 Li 0.49352 0.2777 0.12461 0.0
Li265 Li 0.50726 0.26476 0.14233 0.0
Li266 Li 0.49137 0.24982 0.1188 0.0
Li267 Li 0.47964 0.26131 0.14156 0.0
C268 C 0.51992 0.27485 0.11204 0.0
N269 N 0.53865 0.29489 0.09626 0.0
C270 C 0.53339 0.28457 0.11983 0.0
C271 C 0.51605 0.27522 0.09618 0.0
C272 C 0.5427 0.29462 0.11165 0.0
C273 C 0.52563 0.28548 0.08843 0.0
C274 C 0.48765 0.28953 0.15879 0.0
C275 C 0.4785 0.2939 0.18464 0.0
N276 N 0.47161 0.30558 0.18047 0.0
C277 C 0.48051 0.30159 0.15476 0.0
C278 C 0.48669 0.28567 0.17386 0.0
C279 C 0.47246 0.30957 0.16589 0.0
C280 C 0.48657 0.29644 0.10219 0.0
N281 N 0.4954 0.29614 0.11552 0.0
C282 C 0.51119 0.32078 0.11372 0.0
C283 C 0.50717 0.30819 0.12167 0.0
C284 C 0.50285 0.32104 0.09941 0.0
C285 C 0.49008 0.30889 0.09391 0.0
H286 H 0.47722 0.28673 0.09764 0.0
H287 H 0.514 0.30754 0.1323 0.0
C288 C 0.5363 0.25752 0.14946 0.0
N289 N 0.52577 0.26613 0.15513 0.0
C290 C 0.54961 0.2572 0.15887 0.0
C291 C 0.54123 0.27505 0.17957 0.0
C292 C 0.52804 0.27497 0.16976 0.0
C293 C 0.55212 0.26593 0.17419 0.0
H294 H 0.53419 0.25072 0.1377 0.0
H295 H 0.5195 0.28178 0.1739 0.0
C296 C 0.46376 0.25273 0.10771 0.0
N297 N 0.44308 0.23306 0.08469 0.0
C298 C 0.45043 0.24357 0.11187 0.0
C299 C 0.46652 0.25197 0.09184 0.0
C300 C 0.44013 0.23369 0.10005 0.0
C301 C 0.45595 0.24192 0.08038 0.0
C302 C 0.5004 0.23606 0.14801 0.0
C303 C 0.50748 0.22471 0.1395 0.0
C304 C 0.50244 0.23888 0.16446 0.0
C305 C 0.51656 0.21642 0.14761 0.0
C306 C 0.51164 0.23038 0.17213 0.0
N307 N 0.51845 0.21942 0.16361 0.0
C308 C 0.50061 0.23086 0.09286 0.0
C309 C 0.47826 0.21923 0.10389 0.0
C310 C 0.50062 0.21677 0.08275 0.0
N311 N 0.48964 0.23173 0.10325 0.0
C312 C 0.47774 0.20496 0.09392 0.0
C313 C 0.48926 0.20349 0.08344 0.0
H314 H 0.50977 0.24086 0.09291 0.0
H315 H 0.46991 0.22019 0.11256 0.0
C316 C 0.45177 0.26732 0.1543 0.0
N317 N 0.46255 0.25791 0.15377 0.0
C318 C 0.43958 0.26501 0.16385 0.0
C319 C 0.44951 0.243 0.17158 0.0
C320 C 0.46149 0.24576 0.16192 0.0
C321 C 0.43845 0.25279 0.17277 0.0
H322 H 0.45277 0.27673 0.14745 0.0
H323 H 0.46995 0.23818 0.16093 0.0
O324 O 0.51045 0.2652 0.11994 0.0
O325 O 0.49546 0.28148 0.148 0.0
O326 O 0.47407 0.26237 0.11912 0.0
O327 O 0.49176 0.24458 0.14029 0.0
H328 H 0.53651 0.28451 0.13212 0.0
H329 H 0.50562 0.26786 0.09 0.0
H330 H 0.5531 0.30227 0.11756 0.0
H331 H 0.52269 0.28601 0.07622 0.0
H332 H 0.47756 0.29096 0.1963 0.0
H333 H 0.48108 0.30469 0.14314 0.0
H334 H 0.49199 0.27624 0.17711 0.0
H335 H 0.46683 0.3189 0.16293 0.0
H336 H 0.52122 0.32975 0.11834 0.0
H337 H 0.48313 0.30879 0.08312 0.0
H338 H 0.55786 0.25024 0.15418 0.0
H339 H 0.54272 0.28188 0.19133 0.0
H340 H 0.44811 0.24399 0.12408 0.0
H341 H 0.47684 0.25888 0.08843 0.0
H342 H 0.4298 0.22649 0.1031 0.0
H343 H 0.458 0.24113 0.06807 0.0
H344 H 0.50614 0.22242 0.12677 0.0
H345 H 0.49721 0.24776 0.17124 0.0
H346 H 0.52216 0.20765 0.14117 0.0
H347 H 0.51343 0.23255 0.18484 0.0
H348 H 0.5099 0.2161 0.07509 0.0
H349 H 0.46869 0.19507 0.09476 0.0
H350 H 0.43133 0.27288 0.1645 0.0
H351 H 0.44887 0.23325 0.17799 0.0
Li352 Li 0.06149 0.79932 0.10929 0.0
Li353 Li 0.07043 0.78441 0.12805 0.0
Li354 Li 0.05356 0.77088 0.10434 0.0
Li355 Li 0.04332 0.7863 0.12613 0.0
C356 C 0.08443 0.78455 0.09413 0.0
N357 N 0.10405 0.78751 0.07044 0.0
C358 C 0.1005 0.78793 0.09772 0.0
C359 C 0.07835 0.78252 0.07847 0.0
C360 C 0.11022 0.78943 0.08558 0.0
C361 C 0.08845 0.78411 0.06667 0.0
C362 C 0.0729 0.8167 0.13866 0.0
C363 C 0.08183 0.84128 0.15634 0.0
N364 N 0.09595 0.84233 0.15048 0.0
C365 C 0.0875 0.81802 0.13284 0.0
C366 C 0.07003 0.8284 0.15052 0.0
C367 C 0.09899 0.83107 0.13895 0.0
C368 C 0.05288 0.82269 0.09463 0.0
N369 N 0.06548 0.81653 0.0983 0.0
C370 C 0.08023 0.83048 0.08081 0.0
C371 C 0.07925 0.82087 0.09231 0.0
C372 C 0.06698 0.83592 0.07575 0.0
C373 C 0.0534 0.83254 0.08341 0.0
H374 H 0.04213 0.81918 0.09974 0.0
H375 H 0.08925 0.8162 0.09573 0.0
C376 C 0.09519 0.77078 0.13578 0.0
N377 N 0.08697 0.7818 0.14162 0.0
C378 C 0.10716 0.7674 0.14516 0.0
C379 C 0.10185 0.78668 0.16648 0.0
C380 C 0.08997 0.78972 0.15665 0.0
C381 C 0.11063 0.7754 0.16073 0.0
H382 H 0.0923 0.76449 0.12385 0.0
H383 H 0.08306 0.79826 0.16104 0.0
C384 C 0.02923 0.78344 0.09126 0.0
N385 N 0.00652 0.77651 0.06639 0.0
C386 C 0.01391 0.77731 0.09361 0.0
C387 C 0.03294 0.7863 0.07632 0.0
C388 C 1.00262 0.77381 0.08087 0.0
C389 C 0.02131 0.78266 0.06388 0.0
C390 C 0.0512 0.7616 0.14028 0.0
C391 C 0.04944 0.74549 0.1406 0.0
C392 C 0.05208 0.7722 0.15436 0.0
C393 C 0.04856 0.74022 0.15504 0.0
C394 C 0.05115 0.76647 0.16856 0.0
N395 N 0.04942 0.75074 0.1686 0.0
C396 C 0.06173 0.74659 0.08338 0.0
C397 C 0.03458 0.74519 0.08373 0.0
C398 C 0.05948 0.73302 0.07205 0.0
N399 N 0.04938 0.75251 0.0888 0.0
C400 C 0.03178 0.73148 0.07248 0.0
C401 C 0.04435 0.72527 0.06651 0.0
H402 H 0.07336 0.75222 0.08808 0.0
H403 H 0.02496 0.74976 0.08866 0.0
C404 C 0.02262 0.80093 0.14462 0.0
N405 N 0.02555 0.78699 0.13724 0.0
C406 C 0.00991 0.80119 0.15361 0.0
C407 C 1.00355 0.77277 0.14708 0.0
C408 C 0.01624 0.77308 0.1381 0.0
C409 C 1.00035 0.78693 0.15506 0.0
H410 H 0.03029 0.81179 0.14371 0.0
H411 H 0.01881 0.7622 0.13197 0.0
O412 O 0.07477 0.78315 0.10591 0.0
O413 O 0.06145 0.80399 0.13297 0.0
O414 O 0.0404 0.78705 0.10364 0.0
O415 O 0.05217 0.76691 0.12622 0.0
H416 H 0.10541 0.78947 0.10978 0.0
H417 H 0.06597 0.77965 0.07546 0.0
H418 H 0.12268 0.79211 0.0882 0.0
H419 H 0.08389 0.7826 0.05451 0.0
H420 H 0.07977 0.85042 0.16552 0.0
H421 H 0.08997 0.80904 0.12377 0.0
H422 H 0.0588 0.82752 0.1552 0.0
H423 H 0.11034 0.83222 0.13455 0.0
H424 H 0.09099 0.83283 0.07535 0.0
H425 H 0.04306 0.83692 0.08032 0.0
H426 H 0.11349 0.75844 0.14035 0.0
H427 H 0.10423 0.79319 0.17838 0.0
H428 H 0.0108 0.77518 0.10512 0.0
H429 H 0.04462 0.79143 0.07434 0.0
H430 H 0.99074 0.76894 0.0825 0.0
H431 H 0.02403 0.78477 0.05225 0.0
H432 H 0.04878 0.73715 0.12978 0.0
H433 H 0.05349 0.78472 0.15434 0.0
H434 H 0.04719 0.72778 0.15546 0.0
H435 H 0.05182 0.77454 0.17954 0.0
H436 H 0.06947 0.72832 0.06811 0.0
H437 H 0.01993 0.72571 0.06863 0.0
H438 H 0.00782 0.81233 0.15967 0.0
H439 H 0.99631 0.76157 0.14777 0.0
Li440 Li 0.5068 0.80063 0.42207 0.0
Li441 Li 0.49437 0.78797 0.39723 0.0
Li442 Li 0.50131 0.77262 0.41707 0.0
Li443 Li 0.52185 0.78818 0.40314 0.0
C444 C 0.47405 0.79468 0.41923 0.0
N445 N 0.4495 0.81054 0.42127 0.0
C446 C 0.47592 0.81018 0.41643 0.0
C447 C 0.4597 0.78726 0.42306 0.0
C448 C 0.46337 0.81799 0.41752 0.0
C449 C 0.44742 0.79548 0.42404 0.0
C450 C 0.51559 0.81218 0.38808 0.0
C451 C 0.51892 0.80775 0.3603 0.0
N452 N 0.52345 0.82352 0.36093 0.0
C453 C 0.52025 0.82834 0.38845 0.0
C454 C 0.5149 0.80179 0.3739 0.0
C455 C 0.52419 0.83385 0.3746 0.0
C456 C 0.51969 0.83053 0.43876 0.0
N457 N 0.50832 0.81784 0.43872 0.0
C458 C 0.49975 0.83002 0.46255 0.0
C459 C 0.49853 0.81723 0.45036 0.0
C460 C 0.51142 0.84325 0.46287 0.0
C461 C 0.52156 0.8434 0.4509 0.0
H462 H 0.52733 0.83058 0.42937 0.0
H463 H 0.48975 0.80685 0.45012 0.0
C464 C 0.4693 0.77561 0.37367 0.0
N465 N 0.47894 0.78896 0.38101 0.0
C466 C 0.45786 0.77626 0.36207 0.0
C467 C 0.46597 0.80453 0.36617 0.0
C468 C 0.4774 0.80329 0.37756 0.0
C469 C 0.45608 0.79087 0.35825 0.0
H470 H 0.47019 0.76446 0.37701 0.0
H471 H 0.48486 0.81384 0.38381 0.0
C472 C 0.52934 0.79382 0.43944 0.0
N473 N 0.54488 0.81004 0.46754 0.0
C474 C 0.54329 0.8043 0.43944 0.0
C475 C 0.52335 0.79145 0.4537 0.0
C476 C 0.55096 0.81242 0.45378 0.0
C477 C 0.53136 0.7998 0.46779 0.0
C478 C 0.49967 0.75691 0.38317 0.0
C479 C 0.48744 0.74545 0.38605 0.0
C480 C 0.50644 0.75484 0.36891 0.0
C481 C 0.48199 0.73225 0.37448 0.0
C482 C 0.50066 0.74148 0.35763 0.0
N483 N 0.48865 0.73056 0.36063 0.0
C484 C 0.48824 0.75616 0.43956 0.0
C485 C 0.50358 0.74235 0.42276 0.0
C486 C 0.48691 0.74461 0.44909 0.0
N487 N 0.49676 0.75496 0.42694 0.0
C488 C 0.50238 0.73042 0.43183 0.0
C489 C 0.4944 0.73173 0.44552 0.0
H490 H 0.48321 0.76653 0.4427 0.0
H491 H 0.51046 0.74188 0.41276 0.0
C492 C 0.55047 0.80175 0.39316 0.0
N493 N 0.54115 0.78803 0.39463 0.0
C494 C 0.56409 0.80153 0.38566 0.0
C495 C 0.55863 0.77309 0.38207 0.0
C496 C 0.54503 0.77387 0.3895 0.0
C497 C 0.56826 0.78705 0.37983 0.0
H498 H 0.54717 0.81286 0.39752 0.0
H499 H 0.53743 0.76316 0.39099 0.0
O500 O 0.48609 0.78667 0.4181 0.0
O501 O 0.51182 0.80668 0.40161 0.0
O502 O 0.52144 0.78611 0.42551 0.0
O503 O 0.50542 0.76974 0.39451 0.0
H504 H 0.48693 0.81613 0.41343 0.0
H505 H 0.45806 0.77526 0.42523 0.0
H506 H 0.46466 0.82997 0.41537 0.0
H507 H 0.43624 0.78987 0.42699 0.0
H508 H 0.51843 0.79983 0.34924 0.0
H509 H 0.52084 0.83654 0.39935 0.0
H510 H 0.51122 0.7893 0.37339 0.0
H511 H 0.52783 0.84633 0.37472 0.0
H512 H 0.49175 0.82959 0.47162 0.0
H513 H 0.53058 0.85353 0.45074 0.0
H514 H 0.45017 0.7655 0.35648 0.0
H515 H 0.46486 0.81602 0.36361 0.0
H516 H 0.54804 0.80628 0.42848 0.0
H517 H 0.51253 0.78341 0.45388 0.0
H518 H 0.56172 0.82065 0.45397 0.0
H519 H 0.52681 0.79819 0.47892 0.0
H520 H 0.48203 0.74686 0.397 0.0
H521 H 0.51613 0.76339 0.36657 0.0
H522 H 0.47246 0.72336 0.37651 0.0
H523 H 0.50576 0.73976 0.34653 0.0
H524 H 0.48084 0.74625 0.45962 0.0
H525 H 0.50811 0.72057 0.42848 0.0
H526 H 0.57103 0.81259 0.38408 0.0
H527 H 0.5615 0.76168 0.37807 0.0
Li528 Li 0.56665 0.28883 0.63207 0.0
Li529 Li 0.57631 0.27117 0.64645 0.0
Li530 Li 0.5649 0.26277 0.61951 0.0
Li531 Li 0.54833 0.26922 0.64011 0.0
C532 C 0.59125 0.28284 0.61455 0.0
N533 N 0.60531 0.29218 0.58887 0.0
C534 C 0.6073 0.28437 0.6141 0.0
C535 C 0.58234 0.28603 0.60191 0.0
C536 C 0.6142 0.28912 0.60102 0.0
C537 C 0.58967 0.29074 0.58905 0.0
C538 C 0.56757 0.30154 0.66113 0.0
C539 C 0.56152 0.32635 0.67296 0.0
N540 N 0.57683 0.33297 0.6741 0.0
C541 C 0.58325 0.30856 0.66249 0.0
C542 C 0.55661 0.31046 0.66646 0.0
C543 C 0.5877 0.32447 0.66906 0.0
C544 C 0.55496 0.3146 0.62629 0.0
N545 N 0.56869 0.30979 0.6283 0.0
C546 C 0.58253 0.33363 0.62188 0.0
C547 C 0.5824 0.31907 0.62659 0.0
C548 C 0.56843 0.33863 0.61912 0.0
C549 C 0.55456 0.32907 0.62173 0.0
H550 H 0.54427 0.30693 0.62776 0.0
H551 H 0.59317 0.31498 0.62844 0.0
C552 C 0.5978 0.25433 0.65612 0.0
N553 N 0.59095 0.26675 0.6611 0.0
C554 C 0.60768 0.24919 0.66653 0.0
C555 C 0.60345 0.26992 0.68698 0.0
C556 C 0.59344 0.2745 0.6762 0.0
C557 C 0.6107 0.25705 0.68221 0.0
H558 H 0.59526 0.24819 0.6441 0.0
H559 H 0.5875 0.28407 0.67995 0.0
C560 C 0.53558 0.26713 0.61005 0.0
N561 N 0.50953 0.25025 0.59153 0.0
C562 C 0.53092 0.25103 0.61016 0.0
C563 C 0.52697 0.27463 0.60054 0.0
C564 C 0.51772 0.24271 0.60071 0.0
C565 C 0.51384 0.2659 0.59125 0.0
C566 C 0.55847 0.24221 0.64845 0.0
C567 C 0.55841 0.22616 0.64402 0.0
C568 C 0.55672 0.24825 0.6641 0.0
C569 C 0.55649 0.21634 0.65534 0.0
C570 C 0.55485 0.23805 0.67506 0.0
N571 N 0.55477 0.22245 0.67049 0.0
C572 C 0.57555 0.23805 0.60259 0.0
C573 C 0.55995 0.24996 0.58653 0.0
C574 C 0.57736 0.22697 0.58972 0.0
N575 N 0.56678 0.24907 0.60082 0.0
C576 C 0.56127 0.23894 0.57335 0.0
C577 C 0.56995 0.22719 0.57494 0.0
H578 H 0.58091 0.23776 0.61411 0.0
H579 H 0.55332 0.25907 0.58537 0.0
C580 C 0.52058 0.27715 0.64859 0.0
N581 N 0.52811 0.26479 0.6468 0.0
C582 C 0.50579 0.27545 0.65387 0.0
C583 C 0.50654 0.24813 0.65481 0.0
C584 C 0.52127 0.25033 0.64934 0.0
C585 C 0.49873 0.26085 0.6573 0.0
H586 H 0.52614 0.28837 0.64597 0.0
H587 H 0.52716 0.24048 0.64716 0.0
O588 O 0.58442 0.27812 0.6273 0.0
O589 O 0.56299 0.28607 0.65436 0.0
O590 O 0.54841 0.27567 0.61922 0.0
O591 O 0.5607 0.25199 0.63755 0.0
H592 H 0.61435 0.28191 0.62377 0.0
H593 H 0.56992 0.28496 0.60202 0.0
H594 H 0.62661 0.29036 0.60052 0.0
H595 H 0.58291 0.29327 0.57921 0.0
H596 H 0.55316 0.33341 0.67708 0.0
H597 H 0.59187 0.30185 0.65826 0.0
H598 H 0.54444 0.30521 0.66559 0.0
H599 H 0.59978 0.33009 0.67008 0.0
H600 H 0.59346 0.34074 0.62009 0.0
H601 H 0.54343 0.33238 0.61952 0.0
H602 H 0.61269 0.23902 0.66237 0.0
H603 H 0.60555 0.27646 0.69887 0.0
H604 H 0.53739 0.24496 0.61739 0.0
H605 H 0.53041 0.28708 0.60034 0.0
H606 H 0.514 0.23026 0.60067 0.0
H607 H 0.50707 0.27156 0.58383 0.0
H608 H 0.55986 0.22134 0.63197 0.0
H609 H 0.5568 0.26065 0.66776 0.0
H610 H 0.55641 0.20388 0.65208 0.0
H611 H 0.55348 0.24255 0.6872 0.0
H612 H 0.58396 0.21793 0.59145 0.0
H613 H 0.55546 0.23948 0.56209 0.0
H614 H 0.50013 0.28554 0.65566 0.0
H615 H 0.50131 0.23662 0.65705 0.0
Li616 Li 0.01064 0.30879 0.91199 0.0
Li617 Li 0.99174 0.29266 0.8931 0.0
Li618 Li 1.00355 0.28012 0.91282 0.0
Li619 Li 0.01741 0.28976 0.89085 0.0
C620 C 0.97577 0.29815 0.91762 0.0
N621 N 0.94499 0.30087 0.91874 0.0
C622 C 0.97179 0.31294 0.92172 0.0
C623 C 0.96409 0.28473 0.91412 0.0
C624 C 0.95617 0.31407 0.92223 0.0
C625 C 0.9486 0.28636 0.91473 0.0
C626 C 1.00257 0.31783 0.88015 0.0
C627 C 0.99101 0.32111 0.85514 0.0
N628 N 0.98885 0.33565 0.86172 0.0
C629 C 1.00027 0.33283 0.88664 0.0
C630 C 0.99797 0.31194 0.86424 0.0
C631 C 0.99331 0.34165 0.87714 0.0
C632 C 0.02901 0.33906 0.92094 0.0
N633 N 0.01792 0.32816 0.92542 0.0
C634 C 0.01678 0.34499 0.9497 0.0
C635 C 0.012 0.33067 0.93958 0.0
C636 C 0.02788 0.35674 0.94523 0.0
C637 C 0.03421 0.35353 0.93074 0.0
H638 H 0.03367 0.33655 0.90968 0.0
H639 H 1.00341 0.32161 0.94291 0.0
C640 C 0.96559 0.27792 0.87224 0.0
N641 N 0.97248 0.29186 0.88123 0.0
C642 C 0.95176 0.27681 0.86303 0.0
C643 C 0.95221 0.30436 0.87269 0.0
C644 C 0.96591 0.30488 0.88186 0.0
C645 C 0.94506 0.29022 0.86304 0.0
H646 H 0.97087 0.26766 0.87218 0.0
H647 H 0.97135 0.31572 0.8894 0.0
C648 C 0.03618 0.30084 0.92399 0.0
N649 N 0.05964 0.31795 0.94577 0.0
C650 C 0.04955 0.30909 0.91896 0.0
C651 C 0.03474 0.30121 0.94007 0.0
C652 C 0.06129 0.31769 0.93016 0.0
C653 C 0.04673 0.30995 0.95091 0.0
C654 C 1.00341 0.26157 0.87873 0.0
C655 C 0.00981 0.24924 0.88321 0.0
C656 C 1.00203 0.26303 0.86284 0.0
C657 C 0.01494 0.23868 0.87172 0.0
C658 C 0.00732 0.25224 0.85171 0.0
N659 N 0.01363 0.2404 0.85634 0.0
C660 C 0.99009 0.26211 0.93502 0.0
C661 C 0.01531 0.25899 0.92841 0.0
C662 C 0.99019 0.25165 0.94566 0.0
N663 N 1.0025 0.26544 0.92661 0.0
C664 C 0.01594 0.24853 0.9389 0.0
C665 C 1.00328 0.24476 0.94772 0.0
H666 H 0.98021 0.26773 0.93365 0.0
H667 H 0.02508 0.26206 0.92169 0.0
C668 C 0.03441 0.29244 0.86444 0.0
N669 N 0.03325 0.28589 0.87766 0.0
C670 C 0.04623 0.29011 0.85476 0.0
C671 C 0.05553 0.27434 0.87254 0.0
C672 C 0.04344 0.27693 0.88185 0.0
C673 C 0.05711 0.28111 0.85886 0.0
H674 H 0.02623 0.2996 0.86146 0.0
H675 H 0.04226 0.27196 0.89253 0.0
O676 O 0.991 0.29682 0.91687 0.0
O677 O 0.00947 0.30907 0.88927 0.0
O678 O 0.0244 0.29273 0.91323 0.0
O679 O 0.9987 0.2723 0.88985 0.0
H680 H 0.98065 0.32347 0.92426 0.0
H681 H 0.96695 0.27322 0.91064 0.0
H682 H 0.95292 0.32544 0.92531 0.0
H683 H 0.93944 0.27609 0.91193 0.0
H684 H 0.98728 0.31665 0.84285 0.0
H685 H 1.00363 0.33756 0.89893 0.0
H686 H 0.99949 0.30032 0.85902 0.0
H687 H 0.99139 0.35324 0.88204 0.0
H688 H 0.01145 0.34699 0.96066 0.0
H689 H 0.04298 0.36214 0.92695 0.0
H690 H 0.94654 0.2657 0.85571 0.0
H691 H 0.94723 0.31488 0.87318 0.0
H692 H 0.05078 0.30897 0.90653 0.0
H693 H 0.0244 0.29495 0.94413 0.0
H694 H 0.07168 0.3242 0.92645 0.0
H695 H 0.04576 0.31042 0.9634 0.0
H696 H 0.01087 0.24786 0.89542 0.0
H697 H 0.99708 0.27249 0.85917 0.0
H698 H 0.02 0.22913 0.87503 0.0
H699 H 0.00644 0.25331 0.83939 0.0
H700 H 0.98028 0.24918 0.95237 0.0
H701 H 0.02617 0.24331 0.93996 0.0
H702 H 0.04687 0.29536 0.84421 0.0
H703 H 0.06376 0.26749 0.87625 0.0
Li704 Li 0.40305 0.02572 0.29818 0.0
Li705 Li 0.38058 0.00751 0.28571 0.0
Li706 Li 0.40234 0.01478 0.27095 0.0
Li707 Li 0.3862 0.0333 0.27906 0.0
C708 C 0.41588 0.99881 0.29125 0.0
N709 N 0.44413 0.98975 0.29606 0.0
C710 C 0.41644 0.98337 0.29321 0.0
C711 C 0.42971 0.00965 0.2918 0.0
C712 C 0.43083 0.97901 0.29561 0.0
C713 C 0.44386 1.00484 0.29422 0.0
C714 C 0.37676 0.0257 0.31442 0.0
C715 C 0.36566 0.03467 0.33833 0.0
N716 N 0.36816 0.0216 0.34401 0.0
C717 C 0.37917 0.01234 0.32048 0.0
C718 C 0.36992 0.03694 0.3234 0.0
C719 C 0.37476 0.01049 0.33547 0.0
C720 C 0.42334 0.04786 0.32102 0.0
N721 N 0.41577 0.03266 0.31733 0.0
C722 C 0.4263 0.02671 0.34124 0.0
C723 C 0.41717 0.02208 0.32702 0.0
C724 C 0.43423 0.04232 0.34543 0.0
C725 C 0.43281 0.05297 0.33511 0.0
H726 H 0.42202 0.05599 0.31303 0.0
H727 H 0.41127 0.01 0.32368 0.0
C728 C 0.36893 0.97608 0.28418 0.0
N729 N 0.36498 0.99041 0.28806 0.0
C730 C 0.35872 0.96254 0.28592 0.0
C731 C 0.34028 0.97868 0.29517 0.0
C732 C 0.351 0.992 0.29348 0.0
C733 C 0.34424 0.96377 0.29152 0.0
H734 H 0.38006 0.97522 0.27975 0.0
H735 H 0.34823 1.00358 0.29659 0.0
C736 C 0.41446 0.04615 0.26986 0.0
N737 N 0.42523 0.06405 0.24771 0.0
C738 C 0.4079 0.04226 0.25428 0.0
C739 C 0.42651 0.05913 0.27415 0.0
C740 C 0.4135 0.05146 0.24326 0.0
C741 C 0.43179 0.06804 0.26279 0.0
C742 C 0.36496 0.01092 0.25828 0.0
C743 C 0.36052 1.00299 0.2429 0.0
C744 C 0.35392 0.01677 0.26737 0.0
C745 C 0.34507 1.00099 0.23689 0.0
C746 C 0.33859 0.01454 0.26093 0.0
N747 N 0.33452 0.00675 0.24595 0.0
C748 C 0.40607 0.99557 0.24293 0.0
C749 C 0.42883 0.01386 0.25366 0.0
C750 C 0.41333 0.99065 0.22958 0.0
N751 N 0.41378 0.00718 0.25444 0.0
C752 C 0.43657 0.00924 0.24058 0.0
C753 C 0.4287 0.99773 0.22818 0.0
H754 H 0.39412 0.99045 0.24394 0.0
H755 H 0.43465 0.02318 0.26291 0.0
C756 C 0.37565 0.06152 0.28594 0.0
N757 N 0.3773 0.05017 0.27384 0.0
C758 C 0.36802 0.07363 0.28321 0.0
C759 C 0.36435 0.06237 0.25551 0.0
C760 C 0.37206 0.05047 0.25879 0.0
C761 C 0.36206 0.07403 0.26785 0.0
H762 H 0.37999 0.06094 0.29777 0.0
H763 H 0.37355 0.0413 0.24936 0.0
O764 O 0.40183 1.00319 0.28895 0.0
O765 O 0.38098 0.02785 0.29978 0.0
O766 O 0.40929 0.03732 0.28092 0.0
O767 O 0.38009 0.01297 0.26425 0.0
H768 H 0.40587 0.97483 0.29293 0.0
H769 H 0.42956 0.02168 0.29045 0.0
H770 H 0.43142 0.96709 0.29714 0.0
H771 H 0.45463 0.01312 0.29467 0.0
H772 H 0.36037 0.04329 0.34541 0.0
H773 H 0.38441 1.00348 0.31373 0.0
H774 H 0.3679 0.04733 0.31887 0.0
H775 H 0.37659 1.00022 0.3403 0.0
H776 H 0.42735 0.01809 0.34879 0.0
H777 H 0.43879 0.06511 0.33799 0.0
H778 H 0.36203 0.95119 0.28271 0.0
H779 H 0.32918 0.98 0.29949 0.0
H780 H 0.39865 0.03221 0.25067 0.0
H781 H 0.43175 0.06227 0.28615 0.0
H782 H 0.40854 0.04856 0.23117 0.0
H783 H 0.44112 0.07812 0.26595 0.0
H784 H 0.36892 0.99844 0.23568 0.0
H785 H 0.35712 0.02304 0.27924 0.0
H786 H 0.34147 0.99486 0.225 0.0
H787 H 0.32994 0.01901 0.26783 0.0
H788 H 0.40691 0.98167 0.2203 0.0
H789 H 0.44835 0.01515 0.23985 0.0
H790 H 0.36636 0.08228 0.29309 0.0
H791 H 0.36011 0.06237 0.24348 0.0
Li792 Li 0.27934 0.19352 0.51653 0.0
Li793 Li 0.29005 0.17215 0.50292 0.0
Li794 Li 0.27936 0.19121 0.48794 0.0
Li795 Li 0.26216 0.17116 0.50018 0.0
C796 C 0.30805 0.20872 0.5087 0.0
N797 N 0.32948 0.23621 0.51843 0.0
C798 C 0.32051 0.20907 0.51963 0.0
C799 C 0.30654 0.22234 0.50264 0.0
C800 C 0.3312 0.22309 0.52444 0.0
C801 C 0.31749 0.23611 0.50771 0.0
C802 C 0.27998 0.16143 0.52852 0.0
C803 C 0.28158 0.13516 0.53274 0.0
N804 N 0.28998 0.14125 0.54675 0.0
C805 C 0.28855 0.16743 0.543 0.0
C806 C 0.27638 0.14517 0.52338 0.0
C807 C 0.29352 0.15703 0.55203 0.0
C808 C 0.27035 0.20123 0.54659 0.0
N809 N 0.28013 0.20724 0.53647 0.0
C810 C 0.29037 0.22975 0.55614 0.0
C811 C 0.28976 0.22145 0.54083 0.0
C812 C 0.28072 0.22354 0.56693 0.0
C813 C 0.27038 0.20925 0.5619 0.0
H814 H 0.26271 0.18997 0.54284 0.0
H815 H 0.29712 0.22635 0.53261 0.0
C816 C 0.30753 0.14904 0.49128 0.0
N817 N 0.30602 0.16004 0.50381 0.0
C818 C 0.31919 0.1401 0.49194 0.0
C819 C 0.32747 0.15398 0.51838 0.0
C820 C 0.31582 0.16278 0.51711 0.0
C821 C 0.32925 0.14245 0.50569 0.0
H822 H 0.29971 0.14723 0.48075 0.0
H823 H 0.31459 0.17178 0.52679 0.0
C824 C 0.25504 0.20509 0.50891 0.0
N825 N 0.2423 0.2279 0.52671 0.0
C826 C 0.24265 0.20074 0.51774 0.0
C827 C 0.26087 0.22101 0.509 0.0
C828 C 0.23639 0.21246 0.52669 0.0
C829 C 0.25429 0.23238 0.51812 0.0
C830 C 0.26779 0.15612 0.47181 0.0
C831 C 0.2615 0.16 0.45803 0.0
C832 C 0.26525 0.14044 0.47403 0.0
C833 C 0.25259 0.14811 0.44676 0.0
C834 C 0.25625 0.12889 0.4625 0.0
N835 N 0.25015 0.13293 0.44923 0.0
C836 C 0.29465 0.20194 0.46282 0.0
C837 C 0.26912 0.20705 0.46441 0.0
C838 C 0.29611 0.20852 0.44912 0.0
N839 N 0.28129 0.20129 0.47008 0.0
C840 C 0.27003 0.21363 0.45068 0.0
C841 C 0.28363 0.21432 0.44279 0.0
H842 H 0.30408 0.19714 0.46757 0.0
H843 H 0.25862 0.20629 0.47043 0.0
C844 C 0.23797 0.15177 0.51144 0.0
N845 N 0.24217 0.15804 0.49853 0.0
C846 C 0.22329 0.14262 0.51141 0.0
C847 C 0.2174 0.1465 0.48478 0.0
C848 C 0.23218 0.15575 0.48539 0.0
C849 C 0.21277 0.13991 0.49797 0.0
H850 H 0.24595 0.15409 0.52189 0.0
H851 H 0.23557 0.16131 0.47548 0.0
O852 O 0.2976 0.19505 0.5037 0.0
O853 O 0.27514 0.17142 0.51942 0.0
O854 O 0.26163 0.19381 0.50046 0.0
O855 O 0.27647 0.16761 0.48301 0.0
H856 H 0.3219 0.19867 0.52442 0.0
H857 H 0.29697 0.22234 0.49421 0.0
H858 H 0.34086 0.22355 0.53294 0.0
H859 H 0.31642 0.24674 0.50316 0.0
H860 H 0.27892 0.12255 0.52887 0.0
H861 H 0.29156 0.17999 0.54712 0.0
H862 H 0.26966 0.14033 0.51227 0.0
H863 H 0.30026 0.16152 0.56321 0.0
H864 H 0.29835 0.24087 0.55955 0.0
H865 H 0.26281 0.20403 0.56989 0.0
H866 H 0.3202 0.1313 0.48192 0.0
H867 H 0.33515 0.15633 0.52908 0.0
H868 H 0.23806 0.18845 0.51781 0.0
H869 H 0.27046 0.22454 0.50222 0.0
H870 H 0.22686 0.20929 0.53367 0.0
H871 H 0.25874 0.24475 0.51839 0.0
H872 H 0.2634 0.17206 0.45608 0.0
H873 H 0.27016 0.13722 0.48454 0.0
H874 H 0.24759 0.15094 0.43608 0.0
H875 H 0.25413 0.11672 0.4641 0.0
H876 H 0.30672 0.20866 0.44332 0.0
H877 H 0.2602 0.2181 0.44627 0.0
H878 H 0.22019 0.13771 0.52181 0.0
H879 H 0.20953 0.14489 0.47429 0.0
Li880 Li 0.17009 0.02923 0.7717 0.0
Li881 Li 0.14855 0.01294 0.78558 0.0
Li882 Li 0.16846 0.99709 0.76866 0.0
Li883 Li 0.14792 0.01027 0.75488 0.0
C884 C 0.18544 0.02134 0.79791 0.0
N885 N 0.21245 0.03459 0.81673 0.0
C886 C 0.1852 0.03275 0.81112 0.0
C887 C 0.19939 0.01665 0.79425 0.0
C888 C 0.19899 0.03932 0.82049 0.0
C889 C 0.21293 0.02349 0.80392 0.0
C890 C 0.13684 0.0379 0.77597 0.0
C891 C 0.11042 0.04192 0.77604 0.0
N892 N 0.11526 0.05585 0.78596 0.0
C893 C 0.14158 0.05226 0.78614 0.0
C894 C 0.12116 0.03267 0.77085 0.0
C895 C 0.13048 0.06116 0.79107 0.0
C896 C 0.17564 0.06079 0.76386 0.0
N897 N 0.18248 0.05161 0.77246 0.0
C898 C 0.20371 0.07373 0.78098 0.0
C899 C 0.1964 0.05791 0.78093 0.0
C900 C 0.19687 0.08356 0.77222 0.0
C901 C 0.18257 0.07656 0.76351 0.0
H902 H 0.16463 0.05585 0.75713 0.0
H903 H 0.2019 0.05076 0.78779 0.0
C904 C 0.12647 1.00171 0.80929 0.0
N905 N 0.13667 0.01428 0.80604 0.0
C906 C 0.11878 1.00259 0.8234 0.0
C907 C 0.13191 0.02933 0.83097 0.0
C908 C 0.1393 0.02797 0.81672 0.0
C909 C 0.12135 0.01656 0.8348 0.0
H910 H 0.12423 0.99082 0.80093 0.0
H911 H 0.14731 0.03801 0.81433 0.0
C912 C 0.17127 0.01102 0.73683 0.0
N913 N 0.16985 0.00844 0.70446 0.0
C914 C 0.16784 0.99619 0.72729 0.0
C915 C 0.17397 0.02453 0.72993 0.0
C916 C 0.1672 0.99513 0.71094 0.0
C917 C 0.17319 0.02298 0.71353 0.0
C918 C 0.13288 0.98185 0.76039 0.0
C919 C 0.13612 0.96873 0.75059 0.0
C920 C 0.11753 0.9838 0.76157 0.0
C921 C 0.12386 0.95776 0.74204 0.0
C922 C 0.10561 0.97258 0.7528 0.0
N923 N 0.109 0.95991 0.74329 0.0
C924 C 0.18056 0.96994 0.78059 0.0
C925 C 0.1874 0.97235 0.75511 0.0
C926 C 0.18796 0.95666 0.78047 0.0
N927 N 0.18024 0.9777 0.76802 0.0
C928 C 0.19483 0.95904 0.75446 0.0
C929 C 0.19535 0.95065 0.76723 0.0
H930 H 0.17503 0.974 0.79093 0.0
H931 H 0.18739 0.97831 0.74507 0.0
C932 C 0.13283 0.02429 0.73041 0.0
N933 N 0.13504 0.01004 0.73377 0.0
C934 C 0.12547 0.02572 0.71579 0.0
C935 C 0.12251 0.99782 0.70781 0.0
C936 C 0.12988 0.9969 0.72264 0.0
C937 C 0.12017 0.01242 0.70391 0.0
H938 H 0.13704 0.03478 0.73904 0.0
H939 H 0.13185 0.98561 0.72498 0.0
O940 O 0.17212 0.01483 0.78851 0.0
O941 O 0.1475 0.02893 0.7712 0.0
O942 O 0.17142 0.0123 0.75283 0.0
O943 O 0.14471 0.99279 0.7687 0.0
H944 H 0.17451 0.03656 0.81405 0.0
H945 H 0.19975 0.00785 0.78401 0.0
H946 H 0.19899 0.04819 0.83074 0.0
H947 H 0.22382 0.01999 0.80123 0.0
H948 H 0.09823 0.03802 0.77219 0.0
H949 H 0.15369 0.05641 0.79027 0.0
H950 H 0.11734 0.02158 0.76296 0.0
H951 H 0.13396 0.07228 0.79898 0.0
H952 H 0.21456 0.07823 0.78812 0.0
H953 H 0.1767 0.0831 0.75623 0.0
H954 H 0.11071 0.99231 0.82517 0.0
H955 H 0.13479 0.04039 0.83904 0.0
H956 H 0.16535 0.98563 0.73245 0.0
H957 H 0.17654 0.03609 0.73714 0.0
H958 H 0.16446 0.98374 0.70341 0.0
H959 H 0.1752 0.03334 0.70801 0.0
H960 H 0.14797 0.9671 0.74957 0.0
H961 H 0.11488 0.99389 0.76916 0.0
H962 H 0.12618 0.94756 0.73436 0.0
H963 H 0.09367 0.97395 0.75354 0.0
H964 H 0.18794 0.9513 0.79092 0.0
H965 H 0.19993 0.95532 0.74374 0.0
H966 H 0.12394 0.03731 0.71396 0.0
H967 H 0.11907 0.98709 0.69933 0.0
Li968 Li 0.25482 0.94715 0.00697 0.0
Li969 Li 0.26667 0.92719 0.01866 0.0
Li970 Li 0.28255 0.9471 0.00789 0.0
Li971 Li 0.26612 0.92615 0.98999 0.0
C972 C 0.2781 0.96458 0.03326 0.0
N973 N 0.29611 0.99323 0.04679 0.0
C974 C 0.28943 0.96539 0.04554 0.0
C975 C 0.2759 0.97836 0.0279 0.0
C976 C 0.29844 0.97998 0.05221 0.0
C977 C 0.28512 0.99272 0.03489 0.0
C978 C 0.23416 0.92004 0.00937 0.0
C979 C 0.20728 0.90731 0.00684 0.0
N980 N 0.20597 0.91389 0.02195 0.0
C981 C 0.23255 0.92667 0.02488 0.0
C982 C 0.22144 0.91029 1.00026 0.0
C983 C 0.2182 0.92342 0.03102 0.0
C984 C 0.22705 0.9564 0.99576 0.0
N985 N 0.23736 0.95792 0.00852 0.0
C986 C 0.22093 0.97123 0.02491 0.0
C987 C 0.23459 0.96527 0.0229 0.0
C988 C 0.20984 0.96954 0.01205 0.0
C989 C 0.2132 0.96219 0.99725 0.0
H990 H 0.22932 0.95019 0.98453 0.0
H991 H 0.24278 0.96606 0.03296 0.0
C992 C 0.27845 0.91802 0.04581 0.0
N993 N 0.26616 0.91438 0.03475 0.0
C994 C 0.27944 0.90896 0.05764 0.0
C995 C 0.25528 0.89224 0.04627 0.0
C996 C 0.25474 0.90167 0.03467 0.0
C997 C 0.26774 0.89586 0.05798 0.0
H998 H 0.28767 0.92777 0.04521 0.0
H999 H 0.24533 0.89863 0.02548 0.0
C1000 C 0.27599 0.96032 0.98201 0.0
N1001 N 0.29138 0.98316 0.96682 0.0
C1002 C 0.28818 0.95722 0.97304 0.0
C1003 C 0.27149 0.97496 0.98311 0.0
C1004 C 0.29586 0.96895 0.9655 0.0
C1005 C 0.27945 0.98638 0.97538 0.0
C1006 C 0.28532 0.90913 1.0029 0.0
C1007 C 0.3002 0.90553 1.00318 0.0
C1008 C 0.27238 0.89691 1.00035 0.0
C1009 C 0.30189 0.88979 1.00105 0.0
C1010 C 0.27456 0.88132 0.99828 0.0
N1011 N 0.28914 0.87811 0.99868 0.0
C1012 C 0.31396 0.95124 0.01711 0.0
C1013 C 0.30859 0.97353 0.00708 0.0
C1014 C 0.32985 0.95738 0.01879 0.0
N1015 N 0.30369 0.95908 0.01093 0.0
C1016 C 0.32446 0.98013 0.00853 0.0
C1017 C 0.33539 0.9719 0.01422 0.0
H1018 H 0.30982 0.94002 0.02056 0.0
H1019 H 0.30028 0.9799 1.0027 0.0
C1020 C 0.25188 0.90398 0.96229 0.0
N1021 N 0.26528 0.91257 0.97015 0.0
C1022 C 0.2523 0.8936 0.94824 0.0
C1023 C 0.28023 0.90115 0.95074 0.0
C1024 C 0.27927 0.91131 0.96466 0.0
C1025 C 0.26664 0.89211 0.94228 0.0
H1026 H 0.24091 0.9051 0.96697 0.0
H1027 H 0.28977 0.91802 0.97128 0.0
O1028 O 0.2695 0.95036 0.02615 0.0
O1029 O 0.24799 0.92337 1.00297 0.0
O1030 O 0.26824 0.94899 0.9894 0.0
O1031 O 0.28353 0.92454 1.00488 0.0
H1032 H 0.29136 0.95489 0.04983 0.0
H1033 H 0.26729 0.97794 0.01832 0.0
H1034 H 0.3073 0.98076 0.06168 0.0
H1035 H 0.28358 1.00346 0.0308 0.0
H1036 H 0.19733 0.89979 0.99992 0.0
H1037 H 0.24225 0.93427 0.0321 0.0
H1038 H 0.22247 0.90513 0.98822 0.0
H1039 H 0.21678 0.9285 0.04298 0.0
H1040 H 0.21902 0.97695 0.03651 0.0
H1041 H 0.20497 0.96038 0.98702 0.0
H1042 H 0.28945 0.91196 0.06619 0.0
H1043 H 0.24601 0.88225 0.04608 0.0
H1044 H 0.2918 0.94595 0.97207 0.0
H1045 H 0.26192 0.97746 0.98982 0.0
H1046 H 0.3054 0.96676 0.95862 0.0
H1047 H 0.27614 0.99778 0.97617 0.0
H1048 H 0.31036 0.91479 1.00494 0.0
H1049 H 0.26076 0.89936 0.9999 0.0
H1050 H 0.31334 0.88685 1.00126 0.0
H1051 H 0.26464 0.87177 0.99633 0.0
H1052 H 0.33773 0.95051 0.02318 0.0
H1053 H 0.32812 0.99153 1.00518 0.0
H1054 H 0.24152 0.88694 0.94207 0.0
H1055 H 0.29155 0.90018 0.94682 0.0
Li1056 Li 0.27773 0.38616 0.0308 0.0
Li1057 Li 0.29129 0.36872 0.04355 0.0
Li1058 Li 0.30656 0.38816 0.03123 0.0
Li1059 Li 0.28921 0.36616 0.01575 0.0
C1060 C 0.2924 0.39405 0.06489 0.0
N1061 N 0.28959 0.39623 0.09685 0.0
C1062 C 0.27774 0.39123 0.07051 0.0
C1063 C 0.30562 0.39807 0.07553 0.0
C1064 C 0.27657 0.39239 0.08671 0.0
C1065 C 0.30396 0.39909 0.09164 0.0
C1066 C 0.26469 0.34832 0.02293 0.0
C1067 C 0.26398 0.32032 0.01807 0.0
N1068 N 0.2508 0.31834 0.00835 0.0
C1069 C 0.25112 0.34603 0.01294 0.0
C1070 C 0.27118 0.33538 0.02555 0.0
C1071 C 0.24428 0.33077 0.00566 0.0
C1072 C 0.25094 0.39252 0.01688 0.0
N1073 N 0.26093 0.39705 0.03006 0.0
C1074 C 0.24642 0.41649 0.04022 0.0
C1075 C 0.25907 0.40893 0.04156 0.0
C1076 C 0.23578 0.4119 0.0268 0.0
C1077 C 0.23822 0.39978 0.01501 0.0
H1078 H 0.25294 0.38327 0.00778 0.0
H1079 H 0.26745 0.41264 0.05171 0.0
C1080 C 0.30471 0.35709 0.06891 0.0
N1081 N 0.29111 0.3585 0.06145 0.0
C1082 C 0.30475 0.35138 0.08316 0.0
C1083 C 0.27681 0.34857 0.08159 0.0
C1084 C 0.27728 0.35406 0.06728 0.0
C1085 C 0.29068 0.34736 0.08979 0.0
H1086 H 0.31554 0.36087 0.06405 0.0
H1087 H 0.26667 0.3554 0.0611 0.0
C1088 C 0.29151 0.4028 0.00913 0.0
N1089 N 0.29201 0.43208 1.00079 0.0
C1090 C 0.28991 0.40429 0.99327 0.0
C1091 C 0.29331 0.4162 0.02076 0.0
C1092 C 0.29022 0.4192 0.98929 0.0
C1093 C 0.29354 0.43089 0.0163 0.0
C1094 C 0.31976 0.36269 0.02064 0.0
C1095 C 0.32187 0.36929 0.00699 0.0
C1096 C 0.32993 0.35327 0.02515 0.0
C1097 C 0.33413 0.36632 0.99808 0.0
C1098 C 0.34205 0.35057 0.01592 0.0
N1099 N 0.34388 0.35709 1.00269 0.0
C1100 C 0.33726 0.40084 0.04397 0.0
C1101 C 0.33038 0.41019 0.02074 0.0
C1102 C 0.35231 0.40959 0.04489 0.0
N1103 N 0.32658 0.40146 0.03215 0.0
C1104 C 0.3452 0.41923 0.02129 0.0
C1105 C 0.35638 0.41904 0.0335 0.0
H1106 H 0.33416 0.39331 0.05253 0.0
H1107 H 0.32213 0.40991 0.01095 0.0
C1108 C 0.277 0.35711 0.98466 0.0
N1109 N 0.28581 0.35251 0.99586 0.0
C1110 C 0.27476 0.34876 0.96931 0.0
C1111 C 0.29035 0.33076 0.9774 0.0
C1112 C 0.29221 0.33943 0.99266 0.0
C1113 C 0.28171 0.33555 0.96543 0.0
H1114 H 0.27197 0.3675 0.9876 0.0
H1115 H 0.29903 0.33593 1.00185 0.0
O1116 O 0.29379 0.39252 0.04903 0.0
O1117 O 0.27188 0.36319 0.02976 0.0
O1118 O 0.29097 0.38823 0.01316 0.0
O1119 O 0.30792 0.36546 0.02969 0.0
H1120 H 0.26739 0.38781 0.06243 0.0
H1121 H 0.31705 0.40033 0.07142 0.0
H1122 H 0.2653 0.3901 0.09121 0.0
H1123 H 0.31411 0.40212 0.10001 0.0
H1124 H 0.26892 0.3102 0.01992 0.0
H1125 H 0.24597 0.35591 0.01075 0.0
H1126 H 0.2818 0.33698 0.0331 0.0
H1127 H 0.2338 0.32882 0.99785 0.0
H1128 H 0.2451 0.42596 0.04945 0.0
H1129 H 0.23028 0.39583 1.00451 0.0
H1130 H 0.31567 0.35067 0.08921 0.0
H1131 H 0.26574 0.34545 0.0863 0.0
H1132 H 0.28848 0.39404 0.98412 0.0
H1133 H 0.29454 0.41531 0.0331 0.0
H1134 H 0.28902 0.42053 0.97706 0.0
H1135 H 0.29494 0.44135 0.02517 0.0
H1136 H 0.31416 0.37661 1.00327 0.0
H1137 H 0.32846 0.34811 0.03569 0.0
H1138 H 0.33589 0.37134 0.9875 0.0
H1139 H 0.35 0.34329 0.01927 0.0
H1140 H 0.36064 0.40903 0.05443 0.0
H1141 H 0.34799 0.426 0.01202 0.0
H1142 H 0.26816 0.35299 0.96045 0.0
H1143 H 0.29573 0.32052 0.97496 0.0
Li1144 Li 0.80004 0.13395 0.04309 0.0
Li1145 Li 0.81336 0.11443 0.02517 0.0
Li1146 Li 0.80043 0.13362 0.01454 0.0
Li1147 Li 0.785 0.11227 0.02389 0.0
C1148 C 0.82609 0.15199 0.02728 0.0
N1149 N 0.84042 0.17988 0.01901 0.0
C1150 C 0.83741 0.15193 0.01656 0.0
C1151 C 0.82209 0.16622 0.03384 0.0
C1152 C 0.84451 0.16616 0.01251 0.0
C1153 C 0.82947 0.1802 0.02951 0.0
C1154 C 0.79065 0.10027 0.05022 0.0
C1155 C 0.77717 0.07399 0.05122 0.0
N1156 N 0.7727 0.07921 0.06562 0.0
C1157 C 0.78605 0.10533 0.06511 0.0
C1158 C 0.78631 0.08443 0.04328 0.0
C1159 C 0.77694 0.09452 0.07267 0.0
C1160 C 0.78508 0.14853 0.06714 0.0
N1161 N 0.79946 0.14683 0.06305 0.0
C1162 C 0.81109 0.1643 0.08653 0.0
C1163 C 0.8124 0.15439 0.07243 0.0
C1164 C 0.79633 0.16647 0.09097 0.0
C1165 C 0.78324 0.15833 0.08103 0.0
H1166 H 0.77499 0.14229 0.05951 0.0
H1167 H 0.82372 0.15285 0.06889 0.0
C1168 C 0.83937 0.10666 0.01032 0.0
N1169 N 0.83146 0.10474 0.02319 0.0
C1170 C 0.8532 0.10101 0.00843 0.0
C1171 C 0.85027 0.09085 0.03273 0.0
C1172 C 0.83655 0.09689 0.03427 0.0
C1173 C 0.85893 0.09307 0.01977 0.0
H1174 H 0.83499 0.11276 1.00158 0.0
H1175 H 0.83008 0.09551 0.04441 0.0
C1176 C 0.77019 0.13712 0.01928 0.0
N1177 N 0.74427 0.14185 1.00235 0.0
C1178 C 0.76639 0.12955 1.00369 0.0
C1179 C 0.76085 0.14717 0.02623 0.0
C1180 C 0.75323 0.13206 0.99533 0.0
C1181 C 0.74778 0.14939 0.01748 0.0
C1182 C 0.79579 0.09732 0.99578 0.0
C1183 C 0.78927 0.09685 0.98052 0.0
C1184 C 0.79965 0.08368 1.00013 0.0
C1185 C 0.78638 0.08262 0.96997 0.0
C1186 C 0.7966 0.06968 0.98924 0.0
N1187 N 0.79006 0.06944 0.97452 0.0
C1188 C 0.80734 0.14137 0.98493 0.0
C1189 C 0.79685 0.16068 1.00115 0.0
C1190 C 0.80807 0.15025 0.9728 0.0
N1191 N 0.8017 0.14665 0.9987 0.0
C1192 C 0.79745 0.16999 0.98937 0.0
C1193 C 0.80302 0.16475 0.97491 0.0
H1194 H 0.81123 0.13023 0.98337 0.0
H1195 H 0.79242 0.1646 0.01223 0.0
C1196 C 0.75585 0.10242 0.03402 0.0
N1197 N 0.76422 0.09959 0.02147 0.0
C1198 C 0.74003 0.09611 0.03314 0.0
C1199 C 0.74141 0.08422 0.00623 0.0
C1200 C 0.75735 0.0905 0.00775 0.0
C1201 C 0.73238 0.08719 0.01896 0.0
H1202 H 0.76135 0.11012 0.04463 0.0
H1203 H 0.76398 0.08873 0.99771 0.0
O1204 O 0.81863 0.13815 0.03101 0.0
O1205 O 0.79947 0.11077 0.04261 0.0
O1206 O 0.78297 0.13475 0.02774 0.0
O1207 O 0.79879 0.1112 0.00618 0.0
H1208 H 0.8406 0.14102 0.01131 0.0
H1209 H 0.8132 0.16646 0.04199 0.0
H1210 H 0.85324 0.16628 1.00417 0.0
H1211 H 0.82642 0.1913 0.03442 0.0
H1212 H 0.77361 0.06174 0.04591 0.0
H1213 H 0.78949 0.11746 0.07079 0.0
H1214 H 0.78974 0.08024 0.03182 0.0
H1215 H 0.77324 0.09831 0.08416 0.0
H1216 H 0.82153 0.17013 0.09387 0.0
H1217 H 0.77164 0.15975 0.08374 0.0
H1218 H 0.85933 0.10279 0.99813 0.0
H1219 H 0.85427 0.08487 0.0418 0.0
H1220 H 0.77349 0.12179 0.99809 0.0
H1221 H 0.76366 0.15324 0.03824 0.0
H1222 H 0.75015 0.12623 0.98327 0.0
H1223 H 0.74044 0.15713 0.02272 0.0
H1224 H 0.78638 0.10735 0.97688 0.0
H1225 H 0.80508 0.08391 0.01172 0.0
H1226 H 0.78124 0.08206 0.95816 0.0
H1227 H 0.79949 0.05903 0.99248 0.0
H1228 H 0.81264 0.14587 0.96193 0.0
H1229 H 0.79331 0.18101 0.99144 0.0
H1230 H 0.73385 0.09853 0.04346 0.0
H1231 H 0.73616 0.0777 0.99493 0.0
Li1232 Li 0.18136 0.54644 0.25441 0.0
Li1233 Li 0.15843 0.5423 0.26901 0.0
Li1234 Li 0.17248 0.52105 0.26146 0.0
Li1235 Li 0.15691 0.53045 0.24208 0.0
C1236 C 0.19246 0.55077 0.2842 0.0
N1237 N 0.218 0.57136 0.30021 0.0
C1238 C 0.19054 0.56433 0.29427 0.0
C1239 C 0.20738 0.54766 0.28236 0.0
C1240 C 0.2036 0.57459 0.30225 0.0
C1241 C 0.22014 0.55823 0.29052 0.0
C1242 C 0.15486 0.55933 0.23924 0.0
C1243 C 0.13227 0.56372 0.22462 0.0
N1244 N 0.14155 0.57014 0.21432 0.0
C1245 C 0.16417 0.56602 0.22855 0.0
C1246 C 0.13878 0.55824 0.23733 0.0
C1247 C 0.15722 0.57141 0.21603 0.0
C1248 C 0.21032 0.558 0.24291 0.0
N1249 N 0.19882 0.56154 0.25195 0.0
C1250 C 0.21234 0.5879 0.26017 0.0
C1251 C 0.1994 0.57621 0.26016 0.0
C1252 C 0.22452 0.58452 0.25124 0.0
C1253 C 0.22338 0.5695 0.24228 0.0
H1254 H 0.20938 0.54629 0.23628 0.0
H1255 H 0.18988 0.57873 0.26692 0.0
C1256 C 0.15085 0.54778 0.29996 0.0
N1257 N 0.14853 0.55204 0.28568 0.0
C1258 C 0.14514 0.55544 0.31313 0.0
C1259 C 0.13445 0.57154 0.29658 0.0
C1260 C 0.1405 0.56362 0.28372 0.0
C1261 C 0.13696 0.5676 0.31155 0.0
H1262 H 0.15747 0.53865 0.30115 0.0
H1263 H 0.13909 0.56695 0.27227 0.0
C1264 C 0.18476 0.51376 0.23435 0.0
N1265 N 0.19774 0.48824 0.22261 0.0
C1266 C 0.17627 0.50163 0.22301 0.0
C1267 C 0.19989 0.51296 0.23962 0.0
C1268 C 0.18304 0.48882 0.21722 0.0
C1269 C 0.20622 0.49993 0.23359 0.0
C1270 C 0.13866 0.51667 0.26962 0.0
C1271 C 0.14133 0.50811 0.28154 0.0
C1272 C 0.12485 0.52244 0.26846 0.0
C1273 C 0.13016 0.50554 0.2922 0.0
C1274 C 0.11399 0.51964 0.27937 0.0
N1275 N 0.11685 0.51133 0.29091 0.0
C1276 C 0.18971 0.50592 0.2804 0.0
C1277 C 0.17481 0.48887 0.25865 0.0
C1278 C 0.19684 0.49379 0.28409 0.0
N1279 N 0.17936 0.50339 0.26756 0.0
C1280 C 0.18179 0.47642 0.26179 0.0
C1281 C 0.19323 0.47895 0.27443 0.0
H1282 H 0.19282 0.51748 0.28751 0.0
H1283 H 0.16623 0.48713 0.24875 0.0
C1284 C 0.15189 0.52803 0.20973 0.0
N1285 N 0.14463 0.52486 0.22265 0.0
C1286 C 0.14353 0.52532 0.19507 0.0
C1287 C 0.12039 0.51581 0.20722 0.0
C1288 C 0.12925 0.51869 0.22169 0.0
C1289 C 0.12754 0.51926 0.1937 0.0
H1290 H 0.16416 0.53299 0.21093 0.0
H1291 H 0.12381 0.51626 0.23218 0.0
O1292 O 0.17984 0.54073 0.27602 0.0
O1293 O 0.16141 0.55362 0.25134 0.0
O1294 O 0.17826 0.52629 0.24032 0.0
O1295 O 0.14958 0.51958 0.25927 0.0
H1296 H 0.17914 0.56708 0.29573 0.0
H1297 H 0.20911 0.53729 0.27456 0.0
H1298 H 0.20228 0.58516 0.31 0.0
H1299 H 0.23175 0.55601 0.28911 0.0
H1300 H 0.11983 0.56281 0.22291 0.0
H1301 H 0.17662 0.56689 0.22981 0.0
H1302 H 0.13138 0.55293 0.24539 0.0
H1303 H 0.16428 0.57654 0.20762 0.0
H1304 H 0.21278 0.5995 0.26696 0.0
H1305 H 0.23257 0.56666 0.23513 0.0
H1306 H 0.14711 0.55191 0.32444 0.0
H1307 H 0.12826 0.58091 0.29494 0.0
H1308 H 0.16452 0.50197 0.21886 0.0
H1309 H 0.2066 0.5222 0.24843 0.0
H1310 H 0.17658 0.47932 0.20851 0.0
H1311 H 0.21787 0.4991 0.23766 0.0
H1312 H 0.15197 0.50359 0.28263 0.0
H1313 H 0.12267 0.52921 0.2594 0.0
H1314 H 0.1321 0.49898 0.30152 0.0
H1315 H 0.10331 0.52414 0.27869 0.0
H1316 H 0.20563 0.49622 0.29392 0.0
H1317 H 0.17854 0.46505 0.25423 0.0
H1318 H 0.14945 0.52839 0.18502 0.0
H1319 H 0.10811 0.51101 0.20662 0.0
Li1320 Li 0.77836 0.88935 0.52893 0.0
Li1321 Li 0.79098 0.87117 0.54191 0.0
Li1322 Li 0.80706 0.89012 0.52955 0.0
Li1323 Li 0.78907 0.8687 0.51417 0.0
C1324 C 0.79306 0.89691 0.56318 0.0
N1325 N 0.79044 0.89996 0.59522 0.0
C1326 C 0.77855 0.89314 0.56888 0.0
C1327 C 0.80622 0.90236 0.57378 0.0
C1328 C 0.77747 0.89473 0.58512 0.0
C1329 C 0.80466 0.9038 0.58994 0.0
C1330 C 0.76317 0.85263 0.5202 0.0
C1331 C 0.75901 0.82433 0.51381 0.0
N1332 N 0.74685 0.82451 0.50341 0.0
C1333 C 0.75059 0.85256 0.50952 0.0
C1334 C 0.7674 0.83843 0.52243 0.0
C1335 C 0.7425 0.83821 0.50111 0.0
C1336 C 0.75411 0.89906 0.51368 0.0
N1337 N 0.76223 0.90116 0.52796 0.0
C1338 C 0.74702 0.91963 0.53884 0.0
C1339 C 0.75911 0.91137 0.5404 0.0
C1340 C 0.73826 0.91757 0.52425 0.0
C1341 C 0.74209 0.90721 0.51153 0.0
H1342 H 0.75711 0.89113 0.5039 0.0
H1343 H 0.76598 0.91316 0.55153 0.0
C1344 C 0.80402 0.85958 0.56737 0.0
N1345 N 0.79045 0.86078 0.55971 0.0
C1346 C 0.80395 0.85341 0.58136 0.0
C1347 C 0.77595 0.84978 0.5792 0.0
C1348 C 0.77655 0.85576 0.56514 0.0
C1349 C 0.78979 0.84869 0.58755 0.0
H1350 H 0.81491 0.8638 0.56282 0.0
H1351 H 0.76594 0.85692 0.55881 0.0
C1352 C 0.7933 0.9055 0.5075 0.0
N1353 N 0.79582 0.93511 0.49945 0.0
C1354 C 0.79237 0.90723 0.49167 0.0
C1355 C 0.79546 0.91884 0.51924 0.0
C1356 C 0.79369 0.92229 0.48784 0.0
C1357 C 0.79672 0.9337 0.51493 0.0
C1358 C 0.81922 0.86392 0.51919 0.0
C1359 C 0.82171 0.87023 0.50544 0.0
C1360 C 0.82892 0.85416 0.52394 0.0
C1361 C 0.83387 0.86663 0.49666 0.0
C1362 C 0.84096 0.85084 0.51484 0.0
N1363 N 0.84316 0.85709 0.5015 0.0
C1364 C 0.83767 0.90261 0.5429 0.0
C1365 C 0.83176 0.91079 0.51875 0.0
C1366 C 0.8528 0.91124 0.54404 0.0
N1367 N 0.82741 0.90277 0.53055 0.0
C1368 C 0.84666 0.91968 0.51948 0.0
C1369 C 0.85737 0.92007 0.53229 0.0
H1370 H 0.83417 0.89559 0.55178 0.0
H1371 H 0.82383 0.91011 0.50857 0.0
C1372 C 0.77762 0.85993 0.48273 0.0
N1373 N 0.7855 0.85491 0.49434 0.0
C1374 C 0.7754 0.85134 0.46748 0.0
C1375 C 0.78913 0.8323 0.47649 0.0
C1376 C 0.79101 0.84124 0.49162 0.0
C1377 C 0.78141 0.83745 0.46413 0.0
H1378 H 0.77331 0.8708 0.48528 0.0
H1379 H 0.79711 0.83744 0.50112 0.0
O1380 O 0.79438 0.89507 0.5473 0.0
O1381 O 0.77154 0.86656 0.52819 0.0
O1382 O 0.79183 0.89077 0.51135 0.0
O1383 O 0.80745 0.86726 0.5281 0.0
H1384 H 0.76827 0.88869 0.56083 0.0
H1385 H 0.81752 0.90548 0.56962 0.0
H1386 H 0.76633 0.8917 0.58968 0.0
H1387 H 0.81476 0.90796 0.59828 0.0
H1388 H 0.7622 0.81324 0.51533 0.0
H1389 H 0.74718 0.86346 0.50765 0.0
H1390 H 0.7772 0.83832 0.53057 0.0
H1391 H 0.73279 0.83797 0.49274 0.0
H1392 H 0.74448 0.9274 0.54902 0.0
H1393 H 0.736 0.90552 0.49995 0.0
H1394 H 0.81486 0.85283 0.58754 0.0
H1395 H 0.76481 0.84615 0.58357 0.0
H1396 H 0.79067 0.89702 0.48244 0.0
H1397 H 0.79619 0.91779 0.53155 0.0
H1398 H 0.79302 0.9238 0.47564 0.0
H1399 H 0.79841 0.94412 0.52389 0.0
H1400 H 0.81436 0.87779 0.50152 0.0
H1401 H 0.82716 0.8492 0.53457 0.0
H1402 H 0.83591 0.87142 0.48599 0.0
H1403 H 0.84855 0.84329 0.51838 0.0
H1404 H 0.86076 0.91113 0.55404 0.0
H1405 H 0.84986 0.92595 0.50994 0.0
H1406 H 0.76953 0.85585 0.45831 0.0
H1407 H 0.79379 0.82157 0.47444 0.0
Li1408 Li 0.92193 0.05129 0.27974 0.0
Li1409 Li 0.89964 0.03266 0.26231 0.0
Li1410 Li 0.92133 0.0501 0.24966 0.0
Li1411 Li 0.90228 0.06567 0.26479 0.0
C1412 C 0.93462 0.02611 0.26564 0.0
N1413 N 0.9597 0.01244 0.27236 0.0
C1414 C 0.93242 0.01201 0.2716 0.0
C1415 C 0.94954 0.03319 0.26297 0.0
C1416 C 0.94526 1.00531 0.27497 0.0
C1417 C 0.96208 0.02611 0.26647 0.0
C1418 C 0.89735 0.05158 0.29674 0.0
C1419 C 0.89921 0.06785 0.3223 0.0
N1420 N 0.89622 0.05468 0.32898 0.0
C1421 C 0.89428 0.03821 0.30384 0.0
C1422 C 0.89982 0.06652 0.30602 0.0
C1423 C 0.89376 0.04002 0.32016 0.0
C1424 C 0.94354 0.06416 0.30987 0.0
N1425 N 0.93409 0.0512 0.30117 0.0
C1426 C 0.93916 0.03634 0.32185 0.0
C1427 C 0.93192 0.03746 0.30709 0.0
C1428 C 0.94901 0.04946 0.33119 0.0
C1429 C 0.95103 0.06355 0.32476 0.0
H1430 H 0.94527 0.07513 0.30536 0.0
H1431 H 0.92423 0.02723 0.30048 0.0
C1432 C 0.89182 0.99823 0.25222 0.0
N1433 N 0.88664 0.01048 0.26079 0.0
C1434 C 0.88454 0.98241 0.25192 0.0
C1435 C 0.86634 0.99164 0.26907 0.0
C1436 C 0.87396 0.00732 0.26903 0.0
C1437 C 0.87161 0.97866 0.26056 0.0
H1438 H 0.90191 1.00068 0.24576 0.0
H1439 H 0.86989 0.01696 0.27597 0.0
C1440 C 0.93726 0.08035 0.26333 0.0
N1441 N 0.96048 0.10239 0.25504 0.0
C1442 C 0.9335 0.09215 0.25546 0.0
C1443 C 0.9528 0.07985 0.26715 0.0
C1444 C 0.94542 0.10316 0.25133 0.0
C1445 C 0.96438 0.09107 0.2628 0.0
C1446 C 0.89648 0.04591 0.22977 0.0
C1447 C 0.89773 0.05933 0.22271 0.0
C1448 C 0.89488 0.03107 0.22042 0.0
C1449 C 0.89733 0.05766 0.20632 0.0
C1450 C 0.89454 0.02991 0.20407 0.0
N1451 N 0.89577 0.04311 0.19742 0.0
C1452 C 0.93638 0.03471 0.22238 0.0
C1453 C 0.93729 0.06159 0.22185 0.0
C1454 C 0.94361 0.03295 0.20805 0.0
N1455 N 0.93326 0.0489 0.22921 0.0
C1456 C 0.9446 0.06035 0.20755 0.0
C1457 C 0.94795 0.04584 0.20015 0.0
H1458 H 0.9331 0.02453 0.22795 0.0
H1459 H 0.93456 0.07279 0.22684 0.0
C1460 C 0.89607 0.09861 0.27677 0.0
N1461 N 0.89113 0.08544 0.26559 0.0
C1462 C 0.88914 0.11224 0.27739 0.0
C1463 C 0.87207 0.09916 0.25487 0.0
C1464 C 0.87923 0.08572 0.25475 0.0
C1465 C 0.87682 0.113 0.26632 0.0
H1466 H 0.90556 0.09872 0.28535 0.0
H1467 H 0.87524 0.0755 0.24572 0.0
O1468 O 0.92224 0.03293 0.26239 0.0
O1469 O 0.89839 0.05006 0.28086 0.0
O1470 O 0.92576 0.06948 0.26746 0.0
O1471 O 0.89752 0.04735 0.2458 0.0
H1472 H 0.92093 0.0064 0.27374 0.0
H1473 H 0.95139 0.04402 0.25822 0.0
H1474 H 0.94375 0.99445 0.27967 0.0
H1475 H 0.9737 0.03148 0.26449 0.0
H1476 H 0.90116 0.07934 0.32964 0.0
H1477 H 0.89259 0.02655 0.29686 0.0
H1478 H 0.90235 0.07697 0.30071 0.0
H1479 H 0.89149 0.02978 0.32583 0.0
H1480 H 0.9367 0.02521 0.326 0.0
H1481 H 0.95851 0.07409 0.33108 0.0
H1482 H 0.88912 0.9732 0.24487 0.0
H1483 H 0.85662 0.98977 0.27614 0.0
H1484 H 0.9215 0.09269 0.25246 0.0
H1485 H 0.95587 0.07092 0.27345 0.0
H1486 H 0.94269 0.11231 0.24515 0.0
H1487 H 0.97647 0.0908 0.26563 0.0
H1488 H 0.89923 0.07091 0.22982 0.0
H1489 H 0.89407 0.0206 0.22576 0.0
H1490 H 0.89836 0.06795 0.20068 0.0
H1491 H 0.89338 0.01851 0.19668 0.0
H1492 H 0.94589 0.02146 0.20331 0.0
H1493 H 0.94725 0.07075 0.20216 0.0
H1494 H 0.8935 0.12206 0.28673 0.0
H1495 H 0.86296 0.09862 0.24574 0.0
Li1496 Li 0.29983 0.63581 0.54113 0.0
Li1497 Li 0.31354 0.61648 0.52307 0.0
Li1498 Li 0.29951 0.63523 0.51239 0.0
Li1499 Li 0.28516 0.61364 0.52221 0.0
C1500 C 0.32515 0.65409 0.5243 0.0
N1501 N 0.33863 0.68173 0.51494 0.0
C1502 C 0.33705 0.65411 0.51424 0.0
C1503 C 0.32013 0.66813 0.52965 0.0
C1504 C 0.34371 0.66821 0.50963 0.0
C1505 C 0.32709 0.68198 0.52478 0.0
C1506 C 0.29171 0.60039 0.5465 0.0
C1507 C 0.28269 0.57251 0.54502 0.0
N1508 N 0.27441 0.57552 0.55762 0.0
C1509 C 0.28326 0.60321 0.55954 0.0
C1510 C 0.29157 0.58492 0.53928 0.0
C1511 C 0.27453 0.59048 0.56494 0.0
C1512 C 0.28517 0.64811 0.56679 0.0
N1513 N 0.29929 0.64883 0.561 0.0
C1514 C 0.31064 0.66916 0.58247 0.0
C1515 C 0.31197 0.65901 0.56856 0.0
C1516 C 0.29615 0.66874 0.58876 0.0
C1517 C 0.28336 0.65786 0.58074 0.0
H1518 H 0.27525 0.64 0.56047 0.0
H1519 H 0.32303 0.6595 0.5636 0.0
C1520 C 0.33964 0.60912 0.508 0.0
N1521 N 0.3318 0.60708 0.52089 0.0
C1522 C 0.35352 0.60357 0.50601 0.0
C1523 C 0.35077 0.59327 0.53025 0.0
C1524 C 0.337 0.59921 0.53189 0.0
C1525 C 0.35935 0.59561 0.51726 0.0
H1526 H 0.33516 0.61523 0.49931 0.0
H1527 H 0.33058 0.59772 0.54204 0.0
C1528 C 0.26921 0.63885 0.51921 0.0
N1529 N 0.24228 0.64491 0.50539 0.0
C1530 C 0.26335 0.63099 0.50413 0.0
C1531 C 0.2614 0.6498 0.52727 0.0
C1532 C 0.24971 0.63421 0.49735 0.0
C1533 C 0.2478 0.65271 0.52008 0.0
C1534 C 0.29467 0.59999 0.49277 0.0
C1535 C 0.28613 0.60093 0.47889 0.0
C1536 C 0.29952 0.58594 0.49448 0.0
C1537 C 0.28221 0.58763 0.46714 0.0
C1538 C 0.29537 0.5729 0.48246 0.0
N1539 N 0.28685 0.574 0.46916 0.0
C1540 C 0.30624 0.64348 0.48293 0.0
C1541 C 0.2935 0.66128 0.4985 0.0
C1542 C 0.30626 0.65218 0.47068 0.0
N1543 N 0.2998 0.64807 0.49642 0.0
C1544 C 0.29324 0.67032 0.48655 0.0
C1545 C 0.29958 0.66575 0.47234 0.0
H1546 H 0.31129 0.63299 0.48167 0.0
H1547 H 0.28858 0.66476 0.5094 0.0
C1548 C 0.25561 0.60526 0.53142 0.0
N1549 N 0.26479 0.60025 0.52026 0.0
C1550 C 0.23992 0.59848 0.53058 0.0
C1551 C 0.24324 0.5811 0.50692 0.0
C1552 C 0.25898 0.58821 0.50825 0.0
C1553 C 0.23342 0.58638 0.51807 0.0
H1554 H 0.26037 0.61502 0.5407 0.0
H1555 H 0.26633 0.58436 0.49944 0.0
O1556 O 0.31812 0.64034 0.52856 0.0
O1557 O 0.30004 0.61271 0.5408 0.0
O1558 O 0.2825 0.63583 0.52613 0.0
O1559 O 0.29871 0.61293 0.50434 0.0
H1560 H 0.34104 0.64336 0.50996 0.0
H1561 H 0.31076 0.66827 0.53724 0.0
H1562 H 0.35289 0.66839 0.50179 0.0
H1563 H 0.32326 0.69291 0.52874 0.0
H1564 H 0.2824 0.56048 0.53947 0.0
H1565 H 0.28337 0.61508 0.56538 0.0
H1566 H 0.2982 0.58251 0.52933 0.0
H1567 H 0.26784 0.5925 0.57495 0.0
H1568 H 0.32081 0.67747 0.58801 0.0
H1569 H 0.27202 0.6568 0.58517 0.0
H1570 H 0.35958 0.60544 0.49569 0.0
H1571 H 0.35485 0.58726 0.53925 0.0
H1572 H 0.26922 0.62244 0.49781 0.0
H1573 H 0.26581 0.65601 0.53895 0.0
H1574 H 0.24502 0.62817 0.48569 0.0
H1575 H 0.24162 0.66117 0.52617 0.0
H1576 H 0.28262 0.61182 0.47715 0.0
H1577 H 0.30652 0.58512 0.5049 0.0
H1578 H 0.27553 0.58817 0.45638 0.0
H1579 H 0.29899 0.56193 0.48367 0.0
H1580 H 0.31151 0.64834 0.46006 0.0
H1581 H 0.28783 0.68058 0.48832 0.0
H1582 H 0.23283 0.60315 0.53933 0.0
H1583 H 0.23879 0.5717 0.49715 0.0
Li1584 Li 0.39965 0.53176 0.75944 0.0
Li1585 Li 0.42194 0.55046 0.7767 0.0
Li1586 Li 0.40223 0.5648 0.76189 0.0
Li1587 Li 0.42124 0.54927 0.74661 0.0
C1588 C 0.39743 0.55077 0.79384 0.0
N1589 N 0.39634 0.55399 0.82608 0.0
C1590 C 0.39431 0.53744 0.80098 0.0
C1591 C 0.39997 0.56574 0.80307 0.0
C1592 C 0.3938 0.53931 0.81731 0.0
C1593 C 0.39938 0.56713 0.81936 0.0
C1594 C 0.43473 0.52548 0.76295 0.0
C1595 C 0.4623 0.52608 0.76475 0.0
N1596 N 0.45994 0.51233 0.77049 0.0
C1597 C 0.43255 0.51131 0.76878 0.0
C1598 C 0.4497 0.53291 0.76085 0.0
C1599 C 0.44546 0.50487 0.77256 0.0
C1600 C 0.39182 0.49721 0.74975 0.0
N1601 N 0.38663 0.50956 0.75814 0.0
C1602 C 0.36631 0.49088 0.76663 0.0
C1603 C 0.37393 0.50653 0.76638 0.0
C1604 C 0.3716 0.47781 0.75834 0.0
C1605 C 0.38455 0.48142 0.74968 0.0
H1606 H 0.40192 0.49954 0.74328 0.0
H1607 H 0.36984 0.51624 0.77316 0.0
C1608 C 0.44347 0.56337 0.80689 0.0
N1609 N 0.43407 0.5504 0.79815 0.0
C1610 C 0.45087 0.56276 0.82183 0.0
C1611 C 0.439 0.53555 0.81888 0.0
C1612 C 0.43185 0.53666 0.80408 0.0
C1613 C 0.44879 0.54868 0.82827 0.0
H1614 H 0.44523 0.57433 0.80238 0.0
H1615 H 0.42418 0.52643 0.79745 0.0
C1616 C 0.39598 0.54468 0.72687 0.0
N1617 N 0.39432 0.54126 0.69444 0.0
C1618 C 0.39595 0.55779 0.71951 0.0
C1619 C 0.39517 0.52983 0.71777 0.0
C1620 C 0.39508 0.55581 0.70308 0.0
C1621 C 0.39434 0.52835 0.70138 0.0
C1622 C 0.4369 0.57945 0.75966 0.0
C1623 C 0.43266 0.59052 0.75107 0.0
C1624 C 0.45257 0.5795 0.76348 0.0
C1625 C 0.44425 0.60139 0.74622 0.0
C1626 C 0.4638 0.59057 0.75842 0.0
N1627 N 0.45945 0.60118 0.74995 0.0
C1628 C 0.39635 0.5978 0.77404 0.0
C1629 C 0.37893 0.58495 0.75246 0.0
C1630 C 0.38949 0.61148 0.77491 0.0
N1631 N 0.3911 0.58462 0.76296 0.0
C1632 C 0.37183 0.59845 0.75282 0.0
C1633 C 0.37691 0.61231 0.76419 0.0
H1634 H 0.40606 0.59787 0.78235 0.0
H1635 H 0.37466 0.57471 0.74352 0.0
C1636 C 0.43842 0.5349 0.72026 0.0
N1637 N 0.43314 0.54829 0.72604 0.0
C1638 C 0.44577 0.53338 0.70597 0.0
C1639 C 0.44225 0.55933 0.70324 0.0
C1640 C 0.43501 0.56039 0.7176 0.0
C1641 C 0.44788 0.54565 0.69693 0.0
H1642 H 0.43685 0.52514 0.72666 0.0
H1643 H 0.43058 0.5709 0.72175 0.0
O1644 O 0.39845 0.5492 0.77794 0.0
O1645 O 0.42228 0.53208 0.75934 0.0
O1646 O 0.3974 0.54645 0.74292 0.0
O1647 O 0.42573 0.56867 0.76442 0.0
H1648 H 0.39256 0.52576 0.79404 0.0
H1649 H 0.40254 0.57616 0.79772 0.0
H1650 H 0.3915 0.52909 0.82301 0.0
H1651 H 0.40139 0.57864 0.82666 0.0
H1652 H 0.47396 0.53172 0.76321 0.0
H1653 H 0.42103 0.50544 0.77052 0.0
H1654 H 0.45154 0.54381 0.75623 0.0
H1655 H 0.44396 0.49396 0.77716 0.0
H1656 H 0.35658 0.48913 0.77369 0.0
H1657 H 0.38914 0.47213 0.74278 0.0
H1658 H 0.4583 0.57332 0.82819 0.0
H1659 H 0.4365 0.52443 0.82304 0.0
H1660 H 0.39683 0.5694 0.72642 0.0
H1661 H 0.39534 0.5196 0.72333 0.0
H1662 H 0.39512 0.56586 0.69722 0.0
H1663 H 0.39377 0.51694 0.69418 0.0
H1664 H 0.42056 0.59061 0.74804 0.0
H1665 H 0.45601 0.57113 0.77032 0.0
H1666 H 0.44115 0.60998 0.73947 0.0
H1667 H 0.47599 0.59073 0.76124 0.0
H1668 H 0.39412 0.62128 0.78418 0.0
H1669 H 0.3625 0.59792 0.74393 0.0
H1670 H 0.44986 0.52256 0.70219 0.0
H1671 H 0.44306 0.56918 0.69699 0.0
Li1672 Li 0.65868 0.04852 0.76632 0.0
Li1673 Li 0.68159 0.05282 0.75164 0.0
Li1674 Li 0.65746 0.03598 0.73965 0.0
Li1675 Li 0.67345 0.02767 0.75959 0.0
C1676 C 0.65469 0.06443 0.73577 0.0
N1677 N 0.64123 0.07391 0.71007 0.0
C1678 C 0.66395 0.07059 0.72475 0.0
C1679 C 0.6386 0.06318 0.73378 0.0
C1680 C 0.65692 0.07532 0.71184 0.0
C1681 C 0.63201 0.06799 0.72068 0.0
C1682 C 0.69265 0.05836 0.7815 0.0
C1683 C 0.72025 0.0666 0.78799 0.0
N1684 N 0.71775 0.07997 0.79702 0.0
C1685 C 0.69036 0.07217 0.79089 0.0
C1686 C 0.70772 0.05552 0.78009 0.0
C1687 C 0.70319 0.08294 0.79863 0.0
C1688 C 0.6514 0.05442 0.79724 0.0
N1689 N 0.64843 0.05811 0.78281 0.0
C1690 C 0.63243 0.07593 0.79328 0.0
C1691 C 0.6392 0.06864 0.78057 0.0
C1692 C 0.63547 0.07248 0.80837 0.0
C1693 C 0.64503 0.06152 0.81025 0.0
H1694 H 0.6589 0.04608 0.79863 0.0
H1695 H 0.63722 0.0715 0.76899 0.0
C1696 C 0.71089 0.06436 0.74084 0.0
N1697 N 0.69885 0.06808 0.74896 0.0
C1698 C 0.72415 0.07579 0.74075 0.0
C1699 C 0.71207 0.09456 0.75702 0.0
C1700 C 0.699 0.08292 0.75653 0.0
C1701 C 0.72488 0.09094 0.74925 0.0
H1702 H 0.71033 0.0525 0.73472 0.0
H1703 H 0.68911 0.08554 0.76263 0.0
C1704 C 0.63966 0.02257 0.7677 0.0
N1705 N 0.61812 0.01726 0.78926 0.0
C1706 C 0.64272 0.01449 0.77991 0.0
C1707 C 0.62561 0.02786 0.76639 0.0
C1708 C 0.63168 0.01193 0.7907 0.0
C1709 C 0.61489 0.0251 0.77744 0.0
C1710 C 0.6859 0.01992 0.73265 0.0
C1711 C 0.67775 0.00744 0.72146 0.0
C1712 C 0.70108 0.01961 0.73819 0.0
C1713 C 0.68492 0.99482 0.71606 0.0
C1714 C 0.70783 0.00676 0.73253 0.0
N1715 N 0.69968 0.99474 0.72167 0.0
C1716 C 0.65252 0.03215 0.70713 0.0
C1717 C 0.62966 0.02421 0.7194 0.0
C1718 C 0.64412 0.02937 0.69248 0.0
N1719 N 0.64518 0.02973 0.7202 0.0
C1720 C 0.62076 0.02137 0.70496 0.0
C1721 C 0.628 0.02412 0.6913 0.0
H1722 H 0.66486 0.03669 0.7082 0.0
H1723 H 0.62415 0.02243 0.73001 0.0
C1724 C 0.69092 0.01426 0.77994 0.0
N1725 N 0.68105 0.01078 0.76666 0.0
C1726 C 0.69871 1.00293 0.78449 0.0
C1727 C 0.6852 0.98429 0.76221 0.0
C1728 C 0.67755 0.99598 0.75818 0.0
C1729 C 0.6963 0.98787 0.77527 0.0
H1730 H 0.69307 0.02597 0.78679 0.0
H1731 H 0.66933 0.99345 0.7479 0.0
O1732 O 0.66132 0.05932 0.74824 0.0
O1733 O 0.68025 0.04782 0.77351 0.0
O1734 O 0.65046 0.02548 0.75722 0.0
O1735 O 0.67903 0.03233 0.73818 0.0
H1736 H 0.67641 0.07155 0.72605 0.0
H1737 H 0.63124 0.05822 0.74207 0.0
H1738 H 0.66393 0.08003 0.70317 0.0
H1739 H 0.61956 0.06694 0.7189 0.0
H1740 H 0.73197 0.0646 0.78689 0.0
H1741 H 0.67883 0.07471 0.79198 0.0
H1742 H 0.70973 0.04496 0.77281 0.0
H1743 H 0.70159 0.09372 0.80585 0.0
H1744 H 0.62515 0.08436 0.7914 0.0
H1745 H 0.64745 0.05837 0.82166 0.0
H1746 H 0.73385 0.07275 0.73452 0.0
H1747 H 0.71226 0.10626 0.76348 0.0
H1748 H 0.65354 0.01034 0.78112 0.0
H1749 H 0.62314 0.0343 0.75712 0.0
H1750 H 0.63391 1.00575 0.80025 0.0
H1751 H 0.60403 0.02926 0.77665 0.0
H1752 H 0.66595 0.00738 0.71714 0.0
H1753 H 0.70752 0.02909 0.74694 0.0
H1754 H 0.67873 0.98505 0.70745 0.0
H1755 H 0.71952 0.00632 0.73681 0.0
H1756 H 0.6501 0.03186 0.68227 0.0
H1757 H 0.60836 0.01724 0.7045 0.0
H1758 H 0.70681 1.00606 0.79491 0.0
H1759 H 0.68297 0.97284 0.75475 0.0
Li1760 Li 0.77579 0.695 0.01514 0.0
Li1761 Li 0.7869 0.67415 1.00065 0.0
Li1762 Li 0.77537 0.69209 0.98601 0.0
Li1763 Li 0.75941 0.67183 0.99817 0.0
C1764 C 0.80135 0.71231 1.00225 0.0
N1765 N 0.81664 0.74262 1.00195 0.0
C1766 C 0.81723 0.71526 1.00045 0.0
C1767 C 0.79323 0.72475 1.00388 0.0
C1768 C 0.82476 0.73067 1.00034 0.0
C1769 C 0.80117 0.74 1.00371 0.0
C1770 C 0.77995 0.66427 0.02669 0.0
C1771 C 0.78652 0.63969 0.03143 0.0
N1772 N 0.79581 0.64747 0.04443 0.0
C1773 C 0.7895 0.67201 0.04014 0.0
C1774 C 0.77836 0.64796 0.02234 0.0
C1775 C 0.79743 0.66331 0.04894 0.0
C1776 C 0.7647 0.70784 0.04339 0.0
N1777 N 0.77736 0.70883 0.03499 0.0
C1778 C 0.79266 0.72631 0.05664 0.0
C1779 C 0.79121 0.71782 0.04132 0.0
C1780 C 0.77976 0.72547 0.06556 0.0
C1781 C 0.76559 0.71623 0.05867 0.0
H1782 H 0.75407 0.69998 0.03852 0.0
H1783 H 0.80132 0.71794 0.03477 0.0
C1784 C 0.80379 0.64953 0.99209 0.0
N1785 N 0.80384 0.66339 1.00173 0.0
C1786 C 0.81621 0.64166 0.99336 0.0
C1787 C 0.8285 0.66257 0.01436 0.0
C1788 C 0.8159 0.67005 0.01263 0.0
C1789 C 0.82879 0.64815 1.00465 0.0
H1790 H 0.79412 0.64458 0.98342 0.0
H1791 H 0.81561 0.68112 0.0201 0.0
C1792 C 0.74685 0.70248 1.00406 0.0
N1793 N 0.72382 0.71871 0.01372 0.0
C1794 C 0.73496 0.69559 0.01225 0.0
C1795 C 0.7469 0.71756 1.0006 0.0
C1796 C 0.72346 0.704 0.01709 0.0
C1797 C 0.73519 0.7256 0.00564 0.0
C1798 C 0.76396 0.65727 0.97017 0.0
C1799 C 0.75739 0.66092 0.95641 0.0
C1800 C 0.76072 0.64183 0.97311 0.0
C1801 C 0.74752 0.64907 0.94589 0.0
C1802 C 0.75077 0.63032 0.96231 0.0
N1803 N 0.74442 0.63416 0.94904 0.0
C1804 C 0.79052 0.70552 0.96207 0.0
C1805 C 0.76375 0.70657 0.96195 0.0
C1806 C 0.79165 0.71241 0.94854 0.0
N1807 N 0.77672 0.70272 0.96843 0.0
C1808 C 0.76433 0.7134 0.94837 0.0
C1809 C 0.77839 0.71629 0.94141 0.0
H1810 H 0.80059 0.7021 0.96733 0.0
H1811 H 0.75289 0.704 0.96715 0.0
C1812 C 0.73664 0.64945 0.00794 0.0
N1813 N 0.73974 0.65813 0.99637 0.0
C1814 C 0.72209 0.64 0.0078 0.0
C1815 C 0.71422 0.64835 0.98366 0.0
C1816 C 0.72889 0.65783 0.98439 0.0
C1817 C 0.71065 0.63944 0.99559 0.0
H1818 H 0.74536 0.65014 0.01749 0.0
H1819 H 0.73155 0.66514 0.97555 0.0
O1820 O 0.79378 0.69724 1.00211 0.0
O1821 O 0.7724 0.67263 0.01769 0.0
O1822 O 0.75808 0.69434 0.99898 0.0
O1823 O 0.77351 0.66875 0.98071 0.0
H1824 H 0.82365 0.70571 0.99912 0.0
H1825 H 0.78098 0.72265 1.00537 0.0
H1826 H 0.83706 0.73314 0.99894 0.0
H1827 H 0.79504 0.74974 1.00499 0.0
H1828 H 0.78549 0.62709 0.02814 0.0
H1829 H 0.7909 0.68461 0.04367 0.0
H1830 H 0.77106 0.64179 0.01196 0.0
H1831 H 0.80493 0.66916 0.05932 0.0
H1832 H 0.80382 0.73325 0.06153 0.0
H1833 H 0.75546 0.7149 0.06526 0.0
H1834 H 0.81603 0.6307 0.98547 0.0
H1835 H 0.83779 0.66792 0.02338 0.0
H1836 H 0.73471 0.68395 0.01506 0.0
H1837 H 0.75582 0.72301 0.99402 0.0
H1838 H 0.71427 0.69884 0.02354 0.0
H1839 H 0.73512 0.73729 1.00308 0.0
H1840 H 0.75984 0.67277 0.95389 0.0
H1841 H 0.76566 0.6388 0.98372 0.0
H1842 H 0.7423 0.65175 0.93522 0.0
H1843 H 0.74806 0.61836 0.96451 0.0
H1844 H 0.80267 0.71422 0.94345 0.0
H1845 H 0.75386 0.71631 0.94333 0.0
H1846 H 0.71979 0.63326 0.01718 0.0
H1847 H 0.70562 0.64836 0.97417 0.0
Li1848 Li 0.88343 0.50965 0.78614 0.0
Li1849 Li 0.90543 0.52788 0.79873 0.0
Li1850 Li 0.88538 0.53664 0.78393 0.0
Li1851 Li 0.90271 0.52091 0.77051 0.0
C1852 C 0.88144 0.5224 0.81749 0.0
N1853 N 0.87762 0.51246 0.84609 0.0
C1854 C 0.88666 0.50885 0.82044 0.0
C1855 C 0.87427 0.53088 0.82908 0.0
C1856 C 0.88462 0.50402 0.83497 0.0
C1857 C 0.87245 0.52566 0.84347 0.0
C1858 C 0.91976 0.50346 0.78544 0.0
C1859 C 0.94737 0.51162 0.78494 0.0
N1860 N 0.94915 0.49642 0.78433 0.0
C1861 C 0.92186 0.48793 0.78478 0.0
C1862 C 0.93261 0.51542 0.7855 0.0
C1863 C 0.93681 0.48461 0.78424 0.0
C1864 C 0.87185 0.47785 0.77722 0.0
N1865 N 0.86914 0.49093 0.7865 0.0
C1866 C 0.84561 0.47673 0.7937 0.0
C1867 C 0.85635 0.4907 0.79465 0.0
C1868 C 0.84806 0.46298 0.78414 0.0
C1869 C 0.8614 0.46369 0.77583 0.0
H1870 H 0.88199 0.47854 0.77065 0.0
H1871 H 0.85435 0.50139 0.80169 0.0
C1872 C 0.92388 0.54872 0.82381 0.0
N1873 N 0.91967 0.53335 0.81694 0.0
C1874 C 0.93421 0.55295 0.83736 0.0
C1875 C 0.93573 0.52549 0.83627 0.0
C1876 C 0.9252 0.52177 0.82298 0.0
C1877 C 0.94034 0.54123 0.8436 0.0
H1878 H 0.91915 0.55764 0.81881 0.0
H1879 H 0.92139 0.50961 0.81756 0.0
C1880 C 0.8652 0.51158 0.76108 0.0
N1881 N 0.8352 0.49685 0.75028 0.0
C1882 C 0.86238 0.50045 0.74724 0.0
C1883 C 0.85276 0.51525 0.7694 0.0
C1884 C 0.84713 0.49313 0.74198 0.0
C1885 C 0.83769 0.50767 0.76375 0.0
C1886 C 0.91149 0.55403 0.77432 0.0
C1887 C 0.90412 0.55195 0.75915 0.0
C1888 C 0.92204 0.56792 0.7802 0.0
C1889 C 0.90745 0.56382 0.7501 0.0
C1890 C 0.92506 0.57951 0.77077 0.0
N1891 N 0.91776 0.57724 0.75605 0.0
C1892 C 0.87165 0.56235 0.79566 0.0
C1893 C 0.86732 0.55366 0.76806 0.0
C1894 C 0.86212 0.57343 0.79482 0.0
N1895 N 0.87392 0.5527 0.78241 0.0
C1896 C 0.85773 0.56454 0.76666 0.0
C1897 C 0.85487 0.57447 0.78018 0.0
H1898 H 0.877 0.56119 0.80692 0.0
H1899 H 0.86925 0.54575 0.75773 0.0
C1900 C 0.9079 0.50208 0.74301 0.0
N1901 N 0.91337 0.51617 0.75241 0.0
C1902 C 0.91528 0.49743 0.72966 0.0
C1903 C 0.93405 0.52171 0.7362 0.0
C1904 C 0.92634 0.52586 0.74945 0.0
C1905 C 0.92849 0.50735 0.72606 0.0
H1906 H 0.89791 0.49438 0.74604 0.0
H1907 H 0.93079 0.53675 0.7574 0.0
O1908 O 0.88341 0.52753 0.80342 0.0
O1909 O 0.90512 0.50677 0.7858 0.0
O1910 O 0.88009 0.51856 0.76668 0.0
O1911 O 0.9084 0.54266 0.78351 0.0
H1912 H 0.8922 0.5021 0.81163 0.0
H1913 H 0.87019 0.5414 0.82698 0.0
H1914 H 0.88861 0.49357 0.83741 0.0
H1915 H 0.86693 0.53212 0.85255 0.0
H1916 H 0.95742 0.52075 0.78498 0.0
H1917 H 0.91201 0.47854 0.78468 0.0
H1918 H 0.93124 0.52751 0.78599 0.0
H1919 H 0.93861 0.47264 0.78374 0.0
H1920 H 0.83555 0.4767 0.80037 0.0
H1921 H 0.86359 0.45349 0.76804 0.0
H1922 H 0.9375 0.56521 0.8428 0.0
H1923 H 0.94 0.51612 0.84096 0.0
H1924 H 0.87184 0.49748 0.74063 0.0
H1925 H 0.85475 0.52363 0.78028 0.0
H1926 H 0.84477 0.48447 0.73131 0.0
H1927 H 0.82797 0.51032 0.77013 0.0
H1928 H 0.89601 0.54125 0.75434 0.0
H1929 H 0.92782 0.56971 0.79193 0.0
H1930 H 0.90185 0.56235 0.73833 0.0
H1931 H 0.9332 0.59032 0.77517 0.0
H1932 H 0.86011 0.58078 0.80553 0.0
H1933 H 0.85257 0.56512 0.75513 0.0
H1934 H 0.9108 0.48611 0.72237 0.0
H1935 H 0.94414 0.52977 0.73384 0.0
Li1936 Li 0.76708 0.43045 0.51694 0.0
Li1937 Li 0.75524 0.45064 0.50544 0.0
Li1938 Li 0.76624 0.42953 0.48826 0.0
Li1939 Li 0.78288 0.45036 0.50611 0.0
C1940 C 0.73446 0.42351 0.50795 0.0
N1941 N 0.70636 0.41746 0.52073 0.0
C1942 C 0.7328 0.43062 0.52329 0.0
C1943 C 0.72182 0.41335 0.49911 0.0
C1944 C 0.7185 0.42741 0.52953 0.0
C1945 C 0.70771 0.41042 0.50579 0.0
C1946 C 0.77905 0.4673 0.53212 0.0
C1947 C 0.78705 0.49548 0.53514 0.0
N1948 N 0.79798 0.49502 0.54677 0.0
C1949 C 0.79031 0.46711 0.54416 0.0
C1950 C 0.77737 0.4816 0.5276 0.0
C1951 C 0.79979 0.48125 0.55139 0.0
C1952 C 0.78057 0.42019 0.54241 0.0
N1953 N 0.7671 0.41769 0.53306 0.0
C1954 C 0.75611 0.39689 0.54633 0.0
C1955 C 0.75503 0.40613 0.53464 0.0
C1956 C 0.76983 0.39938 0.55633 0.0
C1957 C 0.78219 0.4112 0.55419 0.0
H1958 H 0.79022 0.42898 0.54046 0.0
H1959 H 0.74464 0.40384 0.52671 0.0
C1960 C 0.72747 0.46002 0.4945 0.0
N1961 N 0.73794 0.46164 0.50715 0.0
C1962 C 0.71373 0.46599 0.49606 0.0
C1963 C 0.72187 0.47542 0.52359 0.0
C1964 C 0.73543 0.46929 0.52149 0.0
C1965 C 0.71063 0.47363 0.51084 0.0
H1966 H 0.72954 0.4536 0.48329 0.0
H1967 H 0.74374 0.47016 0.53148 0.0
C1968 C 0.78543 0.41236 0.50065 0.0
N1969 N 0.78908 0.38128 0.4958 0.0
C1970 C 0.80023 0.40866 0.49973 0.0
C1971 C 0.77248 0.40021 0.49898 0.0
C1972 C 0.80183 0.39289 0.4973 0.0
C1973 C 0.77457 0.38459 0.49657 0.0
C1974 C 0.77617 0.46427 0.48092 0.0
C1975 C 0.78827 0.46167 0.47161 0.0
C1976 C 0.77164 0.47892 0.48291 0.0
C1977 C 0.79584 0.47392 0.46465 0.0
C1978 C 0.77949 0.49086 0.47574 0.0
N1979 N 0.79134 0.48814 0.46685 0.0
C1980 C 0.75197 0.40668 0.46101 0.0
C1981 C 0.7792 0.41521 0.46254 0.0
C1982 C 0.75242 0.39619 0.44706 0.0
N1983 N 0.76527 0.41591 0.46842 0.0
C1984 C 0.78018 0.40496 0.4487 0.0
C1985 C 0.76669 0.39524 0.44071 0.0
H1986 H 0.74106 0.40734 0.46601 0.0
H1987 H 0.78964 0.42241 0.46885 0.0
C1988 C 0.81433 0.454 0.51479 0.0
N1989 N 0.80409 0.46217 0.5091 0.0
C1990 C 0.83023 0.46004 0.51653 0.0
C1991 C 0.82496 0.48336 0.50731 0.0
C1992 C 0.80907 0.47683 0.50577 0.0
C1993 C 0.83584 0.47483 0.51255 0.0
H1994 H 0.81015 0.4426 0.51785 0.0
H1995 H 0.8008 0.48345 0.50178 0.0
O1996 O 0.74822 0.42684 0.50142 0.0
O1997 O 0.76998 0.45356 0.5245 0.0
O1998 O 0.78372 0.4278 0.50288 0.0
O1999 O 0.76851 0.45241 0.48772 0.0
H2000 H 0.74245 0.43852 0.53031 0.0
H2001 H 0.72288 0.40782 0.4872 0.0
H2002 H 0.71705 0.43284 0.54137 0.0
H2003 H 0.69783 0.40257 0.49908 0.0
H2004 H 0.78592 0.50661 0.53169 0.0
H2005 H 0.79178 0.45619 0.54783 0.0
H2006 H 0.76878 0.48195 0.51825 0.0
H2007 H 0.8086 0.48126 0.56067 0.0
H2008 H 0.74627 0.38793 0.54752 0.0
H2009 H 0.79313 0.41327 0.5613 0.0
H2010 H 0.70537 0.4641 0.48592 0.0
H2011 H 0.72015 0.48135 0.53516 0.0
H2012 H 0.81038 0.41787 0.50079 0.0
H2013 H 0.76091 0.40274 0.49948 0.0
H2014 H 0.81322 0.38988 0.49658 0.0
H2015 H 0.76464 0.3751 0.49529 0.0
H2016 H 0.79189 0.4504 0.46993 0.0
H2017 H 0.76213 0.48103 0.48988 0.0
H2018 H 0.80531 0.47213 0.45752 0.0
H2019 H 0.77615 0.50229 0.47722 0.0
H2020 H 0.74171 0.38898 0.44126 0.0
H2021 H 0.79148 0.40443 0.44448 0.0
H2022 H 0.83806 0.45293 0.52053 0.0
H2023 H 0.82867 0.49496 0.50443 0.0
Li2024 Li 0.64764 0.51257 0.28244 0.0
Li2025 Li 0.66897 0.52963 0.26935 0.0
Li2026 Li 0.6468 0.50986 0.25234 0.0
Li2027 Li 0.66697 0.4967 0.26681 0.0
C2028 C 0.63529 0.53729 0.27297 0.0
N2029 N 0.61299 0.55447 0.28256 0.0
C2030 C 0.63967 0.55228 0.28206 0.0
C2031 C 0.61961 0.53105 0.26868 0.0
C2032 C 0.62821 0.56078 0.28682 0.0
C2033 C 0.6085 0.53992 0.27366 0.0
C2034 C 0.67345 0.51843 0.30201 0.0
C2035 C 0.6735 0.50933 0.32695 0.0
N2036 N 0.67617 0.52452 0.33452 0.0
C2037 C 0.67619 0.53395 0.31001 0.0
C2038 C 0.67209 0.50601 0.31051 0.0
C2039 C 0.67755 0.53678 0.32646 0.0
C2040 C 0.6274 0.50083 0.30729 0.0
N2041 N 0.63576 0.51393 0.3029 0.0
C2042 C 0.62931 0.52951 0.32676 0.0
C2043 C 0.63671 0.52812 0.31253 0.0
C2044 C 0.62058 0.51621 0.33169 0.0
C2045 C 0.61982 0.5017 0.32146 0.0
H2046 H 0.6266 0.48952 0.29982 0.0
H2047 H 0.64347 0.53855 0.30937 0.0
C2048 C 0.67492 0.56093 0.26069 0.0
N2049 N 0.68134 0.55192 0.26984 0.0
C2050 C 0.68193 0.57669 0.26041 0.0
C2051 C 0.70228 0.57417 0.27902 0.0
C2052 C 0.69489 0.55836 0.27891 0.0
C2053 C 0.69586 0.58384 0.26971 0.0
H2054 H 0.66415 0.55589 0.25356 0.0
H2055 H 0.69997 0.55133 0.28627 0.0
C2056 C 0.63221 0.48111 0.25741 0.0
N2057 N 0.6095 0.45847 0.23941 0.0
C2058 C 0.63629 0.46846 0.24761 0.0
C2059 C 0.6166 0.48221 0.25817 0.0
C2060 C 0.62463 0.45713 0.23858 0.0
C2061 C 0.60528 0.47066 0.24893 0.0
C2062 C 0.67047 0.51004 0.23473 0.0
C2063 C 0.66856 0.49495 0.22585 0.0
C2064 C 0.67194 0.52312 0.22713 0.0
C2065 C 0.66818 0.49318 0.20945 0.0
C2066 C 0.67146 0.52087 0.21071 0.0
N2067 N 0.6696 0.50607 0.20229 0.0
C2068 C 0.6309 0.52344 0.22802 0.0
C2069 C 0.63 0.49641 0.21957 0.0
C2070 C 0.6235 0.52475 0.21338 0.0
N2071 N 0.63412 0.50943 0.23106 0.0
C2072 C 0.62262 0.49723 0.20471 0.0
C2073 C 0.61923 0.5116 0.20115 0.0
H2074 H 0.6343 0.53385 0.23692 0.0
H2075 H 0.63278 0.48533 0.22167 0.0
C2076 C 0.67586 0.46724 0.27684 0.0
N2077 N 0.67872 0.47731 0.26627 0.0
C2078 C 0.68321 0.45395 0.27677 0.0
C2079 C 0.69641 0.46088 0.25473 0.0
C2080 C 0.68895 0.47417 0.25533 0.0
C2081 C 0.6938 0.45021 0.26555 0.0
H2082 H 0.66774 0.46942 0.28551 0.0
H2083 H 0.69137 0.48193 0.24683 0.0
O2084 O 0.64632 0.52873 0.26834 0.0
O2085 O 0.67157 0.51542 0.28593 0.0
O2086 O 0.64346 0.4924 0.26618 0.0
O2087 O 0.67029 0.51196 0.25073 0.0
H2088 H 0.65178 0.55723 0.28552 0.0
H2089 H 0.61607 0.51949 0.26156 0.0
H2090 H 0.63141 0.57237 0.29392 0.0
H2091 H 0.5963 0.53524 0.27045 0.0
H2092 H 0.67241 0.49984 0.3337 0.0
H2093 H 0.67704 0.54368 0.30358 0.0
H2094 H 0.66981 0.49394 0.30448 0.0
H2095 H 0.67961 0.54873 0.33282 0.0
H2096 H 0.63075 0.54102 0.33398 0.0
H2097 H 0.61325 0.49096 0.32422 0.0
H2098 H 0.6764 0.58314 0.25274 0.0
H2099 H 0.71281 0.57881 0.28663 0.0
H2100 H 0.64835 0.46745 0.24693 0.0
H2101 H 0.61327 0.49189 0.26581 0.0
H2102 H 0.62761 0.4473 0.23089 0.0
H2103 H 0.59315 0.47137 0.24935 0.0
H2104 H 0.66714 0.48469 0.23154 0.0
H2105 H 0.6733 0.53487 0.23383 0.0
H2106 H 0.66663 0.48156 0.20242 0.0
H2107 H 0.67251 0.53088 0.20467 0.0
H2108 H 0.62113 0.53614 0.2118 0.0
H2109 H 0.62 0.48664 0.19595 0.0
H2110 H 0.68053 0.44678 0.2857 0.0
H2111 H 0.70407 0.45905 0.24554 0.0
Eu2112 Eu 0.0422 0.04782 0.02172 0.0
Eu2113 Eu 0.02488 0.01079 0.01217 0.0
C2114 C 0.04548 0.0284 0.98636 0.0
C2115 C 0.05023 0.09156 0.02421 0.0
C2116 C 0.03983 0.08971 0.01082 0.0
C2117 C 0.05023 0.11959 0.02885 0.0
C2118 C 0.03467 0.1027 0.00645 0.0
C2119 C 0.05543 0.10654 0.0332 0.0
C2120 C 0.03977 0.11777 0.01544 0.0
C2121 C 0.05466 0.07767 0.02931 0.0
O2122 O 0.04904 0.00889 0.02097 0.0
O2123 O 0.06144 0.0348 0.02666 0.0
C2124 C 0.06161 0.01967 0.02521 0.0
O2125 O 0.03211 0.04214 0.0447 0.0
O2126 O 0.01211 0.992 0.99393 0.0
O2127 O 0.01713 0.98737 0.01747 0.0
O2128 O 0.01723 0.01749 0.03698 0.0
C2129 C 0.02179 0.03027 0.04773 0.0
O2130 O 0.01837 0.04984 0.01202 0.0
O2131 O 0.00556 0.02416 0.00885 0.0
O2132 O 0.03886 0.01533 0.99102 0.0
O2133 O 0.04473 0.07034 0.03749 0.0
O2134 O 0.05953 0.06797 0.01854 0.0
O2135 O 0.04612 0.0422 0.99543 0.0
C2136 C 0.0187 0.96754 0.99639 0.0
C2137 C 0.03467 0.96793 0.99879 0.0
C2138 C 0.01506 0.94005 0.98439 0.0
C2139 C 0.04071 0.9543 0.99476 0.0
C2140 C 0.00898 0.9537 0.98871 0.0
C2141 C 0.03091 0.94001 0.98797 0.0
C2142 C 0.01224 0.98129 1.00286 0.0
C2143 C 0.00557 0.03919 0.00912 0.0
H2144 H 0.03552 0.07816 1.00389 0.0
H2145 H 0.05442 0.13109 0.03591 0.0
H2146 H 0.02643 0.10089 0.99622 0.0
H2147 H 0.06335 0.1081 0.04366 0.0
H2148 H 0.04238 0.9786 1.00451 0.0
H2149 H 0.00722 0.9294 0.97882 0.0
H2150 H 0.0529 0.95486 0.99796 0.0
H2151 H 0.99664 0.95329 0.98656 0.0
Eu2152 Eu 0.28701 0.77169 0.24036 0.0
Eu2153 Eu 0.27493 0.77198 0.27624 0.0
C2154 C 0.25109 0.76793 0.2456 0.0
C2155 C 0.29301 0.78207 0.19997 0.0
C2156 C 0.28562 0.79501 0.20347 0.0
C2157 C 0.29509 0.78728 0.1733 0.0
C2158 C 0.28304 0.80407 0.19196 0.0
C2159 C 0.2977 0.77824 0.18484 0.0
C2160 C 0.28774 0.80032 0.17674 0.0
C2161 C 0.29572 0.77252 0.21202 0.0
O2162 O 0.28483 0.75005 0.27023 0.0
O2163 O 0.28026 0.7464 0.24342 0.0
C2164 C 0.28302 0.74095 0.25641 0.0
O2165 O 0.3076 0.76976 0.25604 0.0
O2166 O 0.25999 0.76059 0.292 0.0
O2167 O 0.27595 0.78236 0.30113 0.0
O2168 O 0.3005 0.78227 0.2791 0.0
C2169 C 0.31112 0.77746 0.27046 0.0
O2170 O 0.28885 0.79702 0.25149 0.0
O2171 O 0.27094 0.79493 0.26982 0.0
O2172 O 0.25375 0.76317 0.25901 0.0
O2173 O 0.3041 0.78005 0.2248 0.0
O2174 O 0.28356 0.76294 0.21507 0.0
O2175 O 0.26233 0.77485 0.23835 0.0
C2176 C 0.27101 0.76365 0.31801 0.0
C2177 C 0.28082 0.75258 0.31625 0.0
C2178 C 0.26939 0.7607 0.3454 0.0
C2179 C 0.28474 0.74546 0.32895 0.0
C2180 C 0.26542 0.76776 0.33267 0.0
C2181 C 0.27898 0.74936 0.34365 0.0
C2182 C 0.26617 0.77059 0.30453 0.0
C2183 C 0.27977 0.80328 0.26123 0.0
H2184 H 0.28184 0.79806 0.21509 0.0
H2185 H 0.299 0.78418 0.16175 0.0
H2186 H 0.27718 0.81391 0.19493 0.0
H2187 H 0.30342 0.76829 0.18196 0.0
H2188 H 0.28531 0.74932 0.30501 0.0
H2189 H 0.26462 0.76384 0.3565 0.0
H2190 H 0.29231 0.73693 0.32728 0.0
H2191 H 0.25781 0.77626 0.33421 0.0
Eu2192 Eu 0.55496 0.03494 0.50522 0.0
Eu2193 Eu 0.52284 0.03871 0.52258 0.0
C2194 C 0.55356 0.03478 0.54214 0.0
C2195 C 0.59241 0.0212 0.49531 0.0
C2196 C 0.5964 0.01841 0.51047 0.0
C2197 C 0.61109 1.00574 0.48491 0.0
C2198 C 0.60783 0.00958 0.51286 0.0
C2199 C 0.59975 0.01473 0.48254 0.0
C2200 C 0.61533 1.0032 0.50013 0.0
C2201 C 0.58062 0.03079 0.49272 0.0
O2202 O 0.53182 0.0622 0.5158 0.0
O2203 O 0.5575 0.0604 0.51608 0.0
C2204 C 0.54649 0.06877 0.51633 0.0
O2205 O 0.53988 0.04333 0.4877 0.0
O2206 O 0.51029 0.05173 0.53959 0.0
O2207 O 0.49866 0.02962 0.52543 0.0
O2208 O 0.51643 0.03393 0.49641 0.0
C2209 C 0.52469 0.03948 0.48561 0.0
O2210 O 0.53888 0.01146 0.50054 0.0
O2211 O 0.52608 0.01383 0.52282 0.0
O2212 O 0.54201 0.04246 0.542 0.0
O2213 O 0.56695 0.02313 0.48669 0.0
O2214 O 0.5798 0.04218 0.50417 0.0
O2215 O 0.55836 0.02818 0.52905 0.0
C2216 C 0.48364 0.04927 0.53201 0.0
C2217 C 0.47744 0.04867 0.51652 0.0
C2218 C 0.46417 0.06399 0.54173 0.0
C2219 C 0.46456 0.05554 0.51367 0.0
C2220 C 0.47695 0.05701 0.54456 0.0
C2221 C 0.45774 0.06326 0.52625 0.0
C2222 C 0.49712 0.04205 0.53531 0.0
C2223 C 0.53087 1.00509 0.51103 0.0
H2224 H 0.59074 0.02313 0.52048 0.0
H2225 H 0.61675 1.00104 0.4749 0.0
H2226 H 0.61072 0.00763 0.52467 0.0
H2227 H 0.59677 0.01671 0.47076 0.0
H2228 H 0.48249 0.04284 0.50662 0.0
H2229 H 0.45945 0.0701 0.55169 0.0
H2230 H 0.45985 0.0546 0.50162 0.0
H2231 H 0.48166 0.05772 0.55658 0.0
Eu2232 Eu 0.26618 0.28578 0.76349 0.0
Eu2233 Eu 0.30028 0.27659 0.76895 0.0
C2234 C 0.26872 0.24967 0.768 0.0
C2235 C 0.22363 0.28929 0.76529 0.0
C2236 C 0.22158 0.2806 0.77759 0.0
C2237 C 0.19651 0.29142 0.76445 0.0
C2238 C 0.20706 0.27751 0.78345 0.0
C2239 C 0.21102 0.29452 0.75864 0.0
C2240 C 0.19442 0.28306 0.77706 0.0
C2241 C 0.23893 0.29333 0.75957 0.0
O2242 O 0.29461 0.27022 0.74275 0.0
O2243 O 0.27515 0.28413 0.73952 0.0
C2244 C 0.28525 0.27589 0.73375 0.0
O2245 O 0.2832 0.30941 0.76711 0.0
O2246 O 0.31499 0.25889 0.76676 0.0
O2247 O 0.32442 0.28259 0.77874 0.0
O2248 O 0.306 0.30108 0.76203 0.0
C2249 C 0.29792 0.31252 0.76418 0.0
O2250 O 0.26832 0.28314 0.78902 0.0
O2251 O 0.29478 0.2874 0.79283 0.0
O2252 O 0.28333 0.255 0.77353 0.0
O2253 O 0.2499 0.30124 0.77009 0.0
O2254 O 0.24355 0.28213 0.75029 0.0
O2255 O 0.26059 0.25894 0.76187 0.0
C2256 C 0.34105 0.26866 0.76405 0.0
C2257 C 0.34541 0.28005 0.75458 0.0
C2258 C 0.36156 0.25526 0.75483 0.0
C2259 C 0.35783 0.27907 0.74532 0.0
C2260 C 0.34923 0.25633 0.76418 0.0
C2261 C 0.36597 0.26658 0.74523 0.0
C2262 C 0.32741 0.26884 0.77303 0.0
C2263 C 0.28115 0.2865 0.79839 0.0
H2264 H 0.23126 0.27647 0.78283 0.0
H2265 H 0.18695 0.29563 0.75913 0.0
H2266 H 0.20585 0.27118 0.79325 0.0
H2267 H 0.21244 0.30116 0.74907 0.0
H2268 H 0.33912 0.28959 0.7542 0.0
H2269 H 0.36738 0.24534 0.75484 0.0
H2270 H 0.36105 0.28811 0.73824 0.0
H2271 H 0.34588 0.24733 0.77128 0.0
Eu2272 Eu 0.02932 0.04727 0.52568 0.0
Eu2273 Eu 0.0405 0.01556 0.50953 0.0
C2274 C 0.06198 0.04903 0.51033 0.0
C2275 C 0.02055 0.08793 0.53056 0.0
C2276 C 0.02552 0.08868 0.51552 0.0
C2277 C 0.01506 0.11432 0.53222 0.0
C2278 C 0.02514 0.10206 0.5088 0.0
C2279 C 0.01536 0.1008 0.53894 0.0
C2280 C 0.01982 0.11498 0.51702 0.0
C2281 C 0.02067 0.07355 0.5372 0.0
O2282 O 0.05199 0.02055 0.53493 0.0
O2283 O 0.03686 0.03683 0.54707 0.0
C2284 C 0.04745 0.02788 0.54796 0.0
O2285 O 0.00833 0.02804 0.52322 0.0
O2286 O 0.05876 1.00188 0.50505 0.0
O2287 O 0.03521 0.99218 0.49517 0.0
O2288 O 0.02042 0.00703 0.52301 0.0
C2289 C 0.00801 0.01332 0.52455 0.0
O2290 O 0.02546 0.04744 0.49908 0.0
O2291 O 0.02493 0.02136 0.48977 0.0
O2292 O 0.05679 0.03518 0.50172 0.0
O2293 O 0.01115 0.06115 0.52975 0.0
O2294 O 0.03436 0.07051 0.54046 0.0
O2295 O 0.05448 0.05454 0.52199 0.0
C2296 C 0.04938 0.97518 0.50513 0.0
C2297 C 0.04494 0.97495 0.52043 0.0
C2298 C 0.05277 0.94807 0.50317 0.0
C2299 C 0.04426 0.96135 0.52703 0.0
C2300 C 0.0534 0.96174 0.49654 0.0
C2301 C 0.04807 0.94771 0.51846 0.0
C2302 C 0.04905 0.9893 0.49813 0.0
C2303 C 0.02209 0.03522 0.48749 0.0
H2304 H 0.0297 0.07888 0.50896 0.0
H2305 H 0.01089 0.12412 0.53878 0.0
H2306 H 0.02917 0.10234 0.4972 0.0
H2307 H 0.01149 0.10037 0.55058 0.0
H2308 H 0.04169 0.98523 0.52718 0.0
H2309 H 0.05589 0.93778 0.49633 0.0
H2310 H 0.04028 0.96142 0.53868 0.0
H2311 H 0.05684 0.96177 0.48469 0.0
Eu2312 Eu 0.30429 0.79351 0.76538 0.0
Eu2313 Eu 0.27094 0.77166 0.76795 0.0
C2314 C 0.2893 0.79382 0.79841 0.0
C2315 C 0.34612 0.80565 0.75804 0.0
C2316 C 0.34824 0.79006 0.75717 0.0
C2317 C 0.37289 0.81337 0.75265 0.0
C2318 C 0.36274 0.78623 0.75464 0.0
C2319 C 0.35838 0.81722 0.75538 0.0
C2320 C 0.37537 0.79791 0.75273 0.0
C2321 C 0.33146 0.80993 0.76273 0.0
O2322 O 0.26448 0.79603 0.76725 0.0
O2323 O 0.28712 0.80986 0.76051 0.0
C2324 C 0.27238 0.80909 0.76352 0.0
O2325 O 0.29912 0.77589 0.7431 0.0
O2326 O 0.25032 0.76665 0.7805 0.0
O2327 O 0.25281 0.75122 0.75904 0.0
O2328 O 0.27279 0.77159 0.74188 0.0
C2329 C 0.28565 0.77044 0.73516 0.0
O2330 O 0.3112 0.77034 0.77078 0.0
O2331 O 0.28744 0.75385 0.76783 0.0
O2332 O 0.28164 0.77955 0.79299 0.0
O2333 O 0.32005 0.80699 0.75166 0.0
O2334 O 0.32709 0.80568 0.77589 0.0
O2335 O 0.29692 0.80221 0.78909 0.0
C2336 C 0.22798 0.75615 0.76358 0.0
C2337 C 0.226 0.76839 0.75542 0.0
C2338 C 0.20023 0.74645 0.7602 0.0
C2339 C 0.21122 0.76967 0.74968 0.0
C2340 C 0.21507 0.7452 0.76598 0.0
C2341 C 0.19817 0.75868 0.75195 0.0
C2342 C 0.24354 0.755 0.76965 0.0
C2343 C 0.30277 0.75597 0.7696 0.0
H2344 H 0.33884 0.78096 0.7591 0.0
H2345 H 0.38227 0.8226 0.75093 0.0
H2346 H 0.36418 0.77426 0.75502 0.0
H2347 H 0.35686 0.8293 0.75587 0.0
H2348 H 0.23589 0.77699 0.75354 0.0
H2349 H 0.19042 0.73772 0.76199 0.0
H2350 H 0.20999 0.77935 0.74359 0.0
H2351 H 0.21647 0.73569 0.77226 0.0
Eu2352 Eu 0.53689 0.02364 0.02749 0.0
Eu2353 Eu 0.53057 0.0302 0.99158 0.0
C2354 C 0.52861 0.05593 0.02089 0.0
C2355 C 0.53228 0.01433 0.06881 0.0
C2356 C 0.51727 1.00518 0.06593 0.0
C2357 C 0.52954 0.01752 0.09688 0.0
C2358 C 0.50854 1.00207 0.07846 0.0
C2359 C 0.53835 0.02048 0.08434 0.0
C2360 C 0.51458 0.00824 0.09404 0.0
C2361 C 0.54172 0.01756 0.05579 0.0
O2362 O 0.55671 0.03318 0.9958 0.0
O2363 O 0.55905 0.03889 0.02279 0.0
C2364 C 0.56518 0.03861 0.00924 0.0
O2365 O 0.54576 1.0057 0.01052 0.0
O2366 O 0.51944 0.04214 0.97512 0.0
O2367 O 0.53385 0.02545 0.96654 0.0
O2368 O 0.52721 1.00407 0.99066 0.0
C2369 C 0.53747 0.99779 0.99777 0.0
O2370 O 0.51156 0.01269 0.02104 0.0
O2371 O 0.50666 0.02456 0.99979 0.0
O2372 O 0.53522 0.05355 0.00772 0.0
O2373 O 0.53919 0.00684 0.04311 0.0
O2374 O 0.54344 0.03182 0.05263 0.0
O2375 O 0.52504 0.0445 0.02897 0.0
C2376 C 0.53362 0.04705 0.95355 0.0
C2377 C 0.53136 0.04318 0.93714 0.0
C2378 C 0.5514 0.07098 0.95123 0.0
C2379 C 0.53923 0.05301 0.92779 0.0
C2380 C 0.54356 0.06107 0.96059 0.0
C2381 C 0.54948 0.06695 0.93471 0.0
C2382 C 0.52604 0.03603 0.96311 0.0
C2383 C 0.50183 0.01634 0.01066 0.0
H2384 H 0.51229 1.00044 0.05401 0.0
H2385 H 0.53448 0.02235 0.10879 0.0
H2386 H 0.49695 0.99507 0.07597 0.0
H2387 H 0.5499 0.02758 0.08677 0.0
H2388 H 0.52378 0.03234 0.93155 0.0
H2389 H 0.55911 0.08168 0.95693 0.0
H2390 H 0.53771 0.04935 0.91513 0.0
H2391 H 0.54546 0.0642 0.97329 0.0
Eu2392 Eu 0.2977 0.30024 0.27649 0.0
Eu2393 Eu 0.27737 0.26638 0.2583 0.0
C2394 C 0.28699 0.29507 0.23996 0.0
C2395 C 0.30694 0.34314 0.29392 0.0
C2396 C 0.29355 0.34447 0.30182 0.0
C2397 C 0.30807 0.36967 0.28844 0.0
C2398 C 0.28734 0.35813 0.30274 0.0
C2399 C 0.31438 0.35601 0.28762 0.0
C2400 C 0.29429 0.3707 0.29569 0.0
C2401 C 0.31213 0.32792 0.29067 0.0
O2402 O 0.30148 0.26201 0.26335 0.0
O2403 O 0.31456 0.28721 0.2641 0.0
C2404 C 0.31425 0.27198 0.26233 0.0
O2405 O 0.30028 0.28289 0.29274 0.0
O2406 O 0.27407 0.24662 0.23883 0.0
O2407 O 0.25724 0.24739 0.25616 0.0
O2408 O 0.27757 0.2656 0.28426 0.0
C2409 C 0.28917 0.27152 0.295 0.0
O2410 O 0.27308 0.29971 0.28234 0.0
O2411 O 0.26068 0.28316 0.26034 0.0
O2412 O 0.28626 0.27995 0.23962 0.0
O2413 O 0.30571 0.31692 0.2981 0.0
O2414 O 0.31316 0.32255 0.27586 0.0
O2415 O 0.28755 0.30471 0.25334 0.0
C2416 C 0.26423 0.22294 0.24698 0.0
C2417 C 0.26831 0.2202 0.26213 0.0
C2418 C 0.26911 0.1972 0.2359 0.0
C2419 C 0.27308 0.20622 0.2641 0.0
C2420 C 0.26424 0.21119 0.23393 0.0
C2421 C 0.27407 0.19482 0.25097 0.0
C2422 C 0.26235 0.23876 0.24458 0.0
C2423 C 0.26053 0.29379 0.27284 0.0
H2424 H 0.28745 0.33471 0.3067 0.0
H2425 H 0.31371 0.37925 0.283 0.0
H2426 H 0.27659 0.35849 0.30822 0.0
H2427 H 0.3247 0.35525 0.28147 0.0
H2428 H 0.26855 0.22915 0.27239 0.0
H2429 H 0.26987 0.18868 0.22555 0.0
H2430 H 0.27658 0.2046 0.27588 0.0
H2431 H 0.26129 0.21319 0.22215 0.0
Eu2432 Eu 0.52747 0.54603 0.02337 0.0
Eu2433 Eu 0.53899 0.51469 0.00698 0.0
C2434 C 0.56004 0.54845 0.00799 0.0
C2435 C 0.52221 0.5884 0.03198 0.0
C2436 C 0.53725 0.59755 0.03431 0.0
C2437 C 0.51327 0.60868 0.0196 0.0
C2438 C 0.54032 0.61194 0.02901 0.0
C2439 C 0.51017 0.59433 0.025 0.0
C2440 C 0.52846 0.61746 0.02119 0.0
C2441 C 0.51917 0.57225 0.03556 0.0
O2442 O 0.55065 0.51969 0.03228 0.0
O2443 O 0.5348 0.53504 0.04447 0.0
C2444 C 0.54577 0.52654 0.04535 0.0
O2445 O 0.50658 0.52679 0.02125 0.0
O2446 O 0.55761 0.50157 1.00219 0.0
O2447 O 0.53408 0.49126 0.99269 0.0
O2448 O 0.51877 0.50571 0.02014 0.0
C2449 C 0.50638 0.51197 0.02213 0.0
O2450 O 0.52384 0.54647 0.99677 0.0
O2451 O 0.5234 0.52045 0.98726 0.0
O2452 O 0.5549 0.53466 0.99924 0.0
O2453 O 0.51055 0.56161 0.02485 0.0
O2454 O 0.53094 0.56711 0.04135 0.0
O2455 O 0.55256 0.55376 0.01974 0.0
C2456 C 0.54902 0.47479 1.00248 0.0
C2457 C 0.54481 0.47448 0.01785 0.0
C2458 C 0.55351 0.44804 1.00065 0.0
C2459 C 0.54478 0.46102 0.02454 0.0
C2460 C 0.55349 0.46159 0.99392 0.0
C2461 C 0.54904 0.44759 0.01601 0.0
C2462 C 0.54812 0.48878 0.99543 0.0
C2463 C 0.52055 0.53433 0.98507 0.0
H2464 H 0.54679 0.5934 0.03978 0.0
H2465 H 0.50387 0.6125 0.01351 0.0
H2466 H 0.55208 0.61857 0.0307 0.0
H2467 H 0.49847 0.58755 0.02314 0.0
H2468 H 0.54124 0.48458 0.02458 0.0
H2469 H 0.55695 0.43793 0.99383 0.0
H2470 H 0.54097 0.46099 0.03625 0.0
H2471 H 0.55677 0.46169 0.98203 0.0
Eu2472 Eu 0.80336 0.29338 0.26464 0.0
Eu2473 Eu 0.77023 0.27172 0.26875 0.0
C2474 C 0.78921 0.29465 0.29815 0.0
C2475 C 0.84516 0.30488 0.25703 0.0
C2476 C 0.85932 0.3135 0.26445 0.0
C2477 C 0.85862 0.2852 0.24396 0.0
C2478 C 0.873 0.30779 0.26203 0.0
C2479 C 0.84491 0.29086 0.2465 0.0
C2480 C 0.87277 0.29335 0.25208 0.0
C2481 C 0.83068 0.30944 0.26202 0.0
O2482 O 0.76367 0.29593 0.26705 0.0
O2483 O 0.78628 0.30992 0.26033 0.0
C2484 C 0.77151 0.309 0.26324 0.0
O2485 O 0.7972 0.27691 0.24163 0.0
O2486 O 0.74994 0.26782 0.282 0.0
O2487 O 0.75205 0.25095 0.26147 0.0
O2488 O 0.77096 0.27018 0.24243 0.0
C2489 C 0.78344 0.27037 0.23476 0.0
O2490 O 0.81037 0.27012 0.26957 0.0
O2491 O 0.78666 0.25386 0.26859 0.0
O2492 O 0.78188 0.28016 0.29333 0.0
O2493 O 0.81912 0.30712 0.25117 0.0
O2494 O 0.82641 0.30495 0.27509 0.0
O2495 O 0.79617 0.30278 0.28826 0.0
C2496 C 0.72735 0.25636 0.26575 0.0
C2497 C 0.72521 0.26826 0.25719 0.0
C2498 C 0.69969 0.24608 0.2621 0.0
C2499 C 0.71041 0.26909 0.25111 0.0
C2500 C 0.71456 0.24529 0.26823 0.0
C2501 C 0.69749 0.25796 0.25341 0.0
C2502 C 0.74298 0.25556 0.27195 0.0
C2503 C 0.80199 0.25589 0.26935 0.0
H2504 H 0.85968 0.32424 0.27276 0.0
H2505 H 0.85804 0.27417 0.23606 0.0
H2506 H 0.88359 0.31428 0.26872 0.0
H2507 H 0.83404 0.28394 0.24077 0.0
H2508 H 0.735 0.27692 0.2552 0.0
H2509 H 0.68998 0.23726 0.26393 0.0
H2510 H 0.70907 0.27852 0.24469 0.0
H2511 H 0.71608 0.23602 0.27481 0.0
Eu2512 Eu 0.03738 0.5222 0.52599 0.0
Eu2513 Eu 0.03149 0.53334 0.49193 0.0
C2514 C 0.03065 0.55624 0.5238 0.0
C2515 C 0.03141 0.50942 0.56533 0.0
C2516 C 0.01615 0.51209 0.56436 0.0
C2517 C 0.02757 0.50076 0.59036 0.0
C2518 C 0.00666 0.50918 0.57637 0.0
C2519 C 0.03707 0.50369 0.57832 0.0
C2520 C 0.01229 0.50355 0.58954 0.0
C2521 C 0.04134 0.51242 0.55269 0.0
O2522 O 0.05762 0.5361 0.4958 0.0
O2523 O 0.06028 0.53695 0.52259 0.0
C2524 C 0.06627 0.53897 0.50928 0.0
O2525 O 0.04607 0.50596 0.50718 0.0
O2526 O 0.0214 0.5481 0.47769 0.0
O2527 O 0.03391 0.5306 0.4667 0.0
O2528 O 0.02768 0.50691 0.48803 0.0
C2529 C 0.03776 0.49957 0.49396 0.0
O2530 O 0.0119 0.51265 0.51879 0.0
O2531 O 0.00754 0.52772 0.50005 0.0
O2532 O 0.03698 0.55509 0.51038 0.0
O2533 O 0.03718 0.50301 0.53927 0.0
O2534 O 0.04512 0.52713 0.55101 0.0
O2535 O 0.02675 0.54385 0.5305 0.0
C2536 C 0.03527 0.55383 0.45611 0.0
C2537 C 0.03258 0.55128 0.43971 0.0
C2538 C 0.05494 0.57677 0.45501 0.0
C2539 C 0.0412 0.56121 0.43095 0.0
C2540 C 0.04635 0.56674 0.46377 0.0
C2541 C 0.05267 0.57394 0.43846 0.0
C2542 C 0.02711 0.54238 0.46488 0.0
C2543 C 1.0024 0.51808 0.50962 0.0
H2544 H 0.01161 0.51643 0.5543 0.0
H2545 H 0.03227 0.49659 0.60044 0.0
H2546 H 0.99488 0.51125 0.57532 0.0
H2547 H 0.04884 0.50156 0.57918 0.0
H2548 H 0.02413 0.5413 0.43363 0.0
H2549 H 0.06358 0.58653 0.46118 0.0
H2550 H 0.03935 0.55842 0.41823 0.0
H2551 H 0.04859 0.56884 0.47648 0.0
Eu2552 Eu 0.76581 0.78643 0.26301 0.0
Eu2553 Eu 0.7999 0.77684 0.26768 0.0
C2554 C 0.76835 0.75002 0.26683 0.0
C2555 C 0.7243 0.7924 0.26806 0.0
C2556 C 0.7193 0.77859 0.27414 0.0
C2557 C 0.70309 0.80347 0.27913 0.0
C2558 C 0.70624 0.77725 0.28271 0.0
C2559 C 0.71602 0.80473 0.27045 0.0
C2560 C 0.69819 0.7898 0.2855 0.0
C2561 C 0.73879 0.79477 0.26038 0.0
O2562 O 0.79349 0.77073 0.24155 0.0
O2563 O 0.77429 0.78504 0.23884 0.0
C2564 C 0.78416 0.77666 0.23276 0.0
O2565 O 0.7831 0.80989 0.26705 0.0
O2566 O 0.81555 0.76021 0.26269 0.0
O2567 O 0.82336 0.78191 0.27918 0.0
O2568 O 0.80567 0.80148 0.26118 0.0
C2569 C 0.79773 0.81297 0.26384 0.0
O2570 O 0.76811 0.78346 0.28839 0.0
O2571 O 0.79456 0.78694 0.29192 0.0
O2572 O 0.78309 0.75508 0.27202 0.0
O2573 O 0.75071 0.80324 0.2693 0.0
O2574 O 0.7423 0.78253 0.25161 0.0
O2575 O 0.76016 0.75953 0.26116 0.0
C2576 C 0.84176 0.77216 0.2633 0.0
C2577 C 0.84761 0.78684 0.25922 0.0
C2578 C 0.86291 0.76162 0.2514 0.0
C2579 C 0.86108 0.78891 0.25136 0.0
C2580 C 0.84952 0.7596 0.25939 0.0
C2581 C 0.86884 0.77629 0.24726 0.0
C2582 C 0.82732 0.76956 0.27109 0.0
C2583 C 0.78101 0.78631 0.29761 0.0
H2584 H 0.72568 0.76901 0.27259 0.0
H2585 H 0.69699 0.81325 0.281 0.0
H2586 H 0.70276 0.76664 0.28761 0.0
H2587 H 0.71979 0.81551 0.26591 0.0
H2588 H 0.84176 0.7967 0.26202 0.0
H2589 H 0.86841 0.75157 0.24819 0.0
H2590 H 0.86543 0.80041 0.24855 0.0
H2591 H 0.8451 0.74816 0.26233 0.0
Eu2592 Eu 0.78097 0.27502 0.74145 0.0
Eu2593 Eu 0.77889 0.27807 0.78439 0.0
C2594 C 0.74942 0.26152 0.76059 0.0
C2595 C 0.77933 0.2832 0.69912 0.0
C2596 C 0.77928 0.29935 0.70324 0.0
C2597 C 0.78182 0.28652 0.67193 0.0
C2598 C 0.78021 0.30897 0.69171 0.0
C2599 C 0.78081 0.2769 0.68346 0.0
C2600 C 0.78127 0.30263 0.67586 0.0
C2601 C 0.77699 0.27268 0.71083 0.0
O2602 O 0.78269 0.25358 0.77597 0.0
O2603 O 0.78446 0.25192 0.74864 0.0
C2604 C 0.7847 0.24605 0.76191 0.0
O2605 O 0.80722 0.28334 0.74742 0.0
O2606 O 0.77236 0.28044 0.80849 0.0
O2607 O 0.79679 0.28502 0.80397 0.0
O2608 O 0.79398 0.28359 0.76665 0.0
C2609 C 0.8079 0.2852 0.76253 0.0
O2610 O 0.77791 0.29972 0.75178 0.0
O2611 O 0.77308 0.30063 0.77841 0.0
O2612 O 0.75464 0.26696 0.77543 0.0
O2613 O 0.78939 0.26997 0.71812 0.0
O2614 O 0.7663 0.27504 0.72032 0.0
O2615 O 0.75768 0.26304 0.7483 0.0
C2616 C 0.79029 0.27417 0.82673 0.0
C2617 C 0.79532 0.2598 0.82288 0.0
C2618 C 0.79067 0.27083 0.85413 0.0
C2619 C 0.79799 0.25098 0.83461 0.0
C2620 C 0.78804 0.27964 0.84241 0.0
C2621 C 0.79563 0.25636 0.85039 0.0
C2622 C 0.78679 0.28335 0.81454 0.0
C2623 C 0.77429 0.30688 0.76542 0.0
H2624 H 0.77816 0.30445 0.7153 0.0
H2625 H 0.78293 0.2813 0.65992 0.0
H2626 H 0.77959 0.32127 0.69516 0.0
H2627 H 0.78093 0.26447 0.68009 0.0
H2628 H 0.79708 0.25536 0.8108 0.0
H2629 H 0.78847 0.27522 0.86607 0.0
H2630 H 0.80196 0.23998 0.83133 0.0
H2631 H 0.78404 0.29065 0.84557 0.0
Eu2632 Eu 0.79467 0.80113 0.77403 0.0
Eu2633 Eu 0.77636 0.76635 0.75596 0.0
C2634 C 0.78601 0.79453 0.73693 0.0
C2635 C 0.80326 0.8447 0.78658 0.0
C2636 C 0.79277 0.84594 0.77419 0.0
C2637 C 0.8025 0.87149 0.7986 0.0
C2638 C 0.78712 0.8598 0.77403 0.0
C2639 C 0.80822 0.85757 0.79872 0.0
C2640 C 0.79176 0.87267 0.78631 0.0
C2641 C 0.80787 0.82954 0.78737 0.0
O2642 O 0.80033 0.76304 0.76331 0.0
O2643 O 0.81281 0.78839 0.76386 0.0
C2644 C 0.81303 0.77333 0.76296 0.0
O2645 O 0.79663 0.78489 0.79153 0.0
O2646 O 0.77527 0.74528 0.73836 0.0
O2647 O 0.75601 0.74754 0.7526 0.0
O2648 O 0.77485 0.76658 0.78199 0.0
C2649 C 0.78566 0.77321 0.79337 0.0
O2650 O 0.76938 0.79973 0.77769 0.0
O2651 O 0.75909 0.7824 0.75542 0.0
O2652 O 0.78575 0.77954 0.7371 0.0
O2653 O 0.79855 0.82006 0.79435 0.0
O2654 O 0.8119 0.82236 0.77425 0.0
O2655 O 0.78574 0.80442 0.74998 0.0
C2656 C 0.76327 0.72271 0.74734 0.0
C2657 C 0.76579 0.7214 0.76324 0.0
C2658 C 0.76673 0.69574 0.73976 0.0
C2659 C 0.76901 0.70746 0.76736 0.0
C2660 C 0.76342 0.7097 0.73564 0.0
C2661 C 0.76998 0.69464 0.75565 0.0
C2662 C 0.76246 0.73808 0.74293 0.0
C2663 C 0.75765 0.79321 0.76731 0.0
H2664 H 0.78861 0.83602 0.76484 0.0
H2665 H 0.80631 0.88125 0.80819 0.0
H2666 H 0.77863 0.86021 0.76457 0.0
H2667 H 0.81622 0.85672 0.80843 0.0
H2668 H 0.76588 0.73134 0.77249 0.0
H2669 H 0.76756 0.68614 0.73046 0.0
H2670 H 0.77122 0.70689 0.77971 0.0
H2671 H 0.76166 0.71058 0.72331 0.0
Eu2672 Eu 0.5422 0.5504 0.5185 0.0
Eu2673 Eu 0.5254 0.5136 0.50937 0.0
C2674 C 0.54542 0.53041 0.48347 0.0
C2675 C 0.54582 0.59374 0.53023 0.0
C2676 C 0.52971 0.59102 0.53113 0.0
C2677 C 0.54593 0.62162 0.53188 0.0
C2678 C 0.52166 0.60346 0.53178 0.0
C2679 C 0.55397 0.60912 0.53109 0.0
C2680 C 0.52965 0.6188 0.53164 0.0
C2681 C 0.55361 0.58036 0.52622 0.0
O2682 O 0.54983 0.51216 0.51774 0.0
O2683 O 0.56153 0.53814 0.52507 0.0
C2684 C 0.56209 0.52307 0.52297 0.0
O2685 O 0.52739 0.546 0.5391 0.0
O2686 O 0.52569 0.48977 0.49738 0.0
O2687 O 0.50579 0.49452 0.50949 0.0
O2688 O 0.5231 0.51914 0.53606 0.0
C2689 C 0.52229 0.53291 0.54452 0.0
O2690 O 0.5187 0.55178 0.50733 0.0
O2691 O 0.50568 0.52653 0.50651 0.0
O2692 O 0.53314 0.52012 0.48574 0.0
O2693 O 0.55306 0.57059 0.53623 0.0
O2694 O 0.55037 0.5731 0.5117 0.0
O2695 O 0.55178 0.54185 0.49509 0.0
C2696 C 0.51444 0.47096 0.51177 0.0
C2697 C 0.51675 0.47418 0.52827 0.0
C2698 C 0.51896 0.44447 0.51214 0.0
C2699 C 0.52028 0.4627 0.53663 0.0
C2700 C 0.51534 0.45597 0.50376 0.0
C2701 C 0.52171 0.44782 0.52865 0.0
C2702 C 0.51299 0.48372 0.50295 0.0
C2703 C 0.50576 0.54135 0.50559 0.0
H2704 H 0.52325 0.57917 0.53046 0.0
H2705 H 0.55236 0.6333 0.53156 0.0
H2706 H 0.50914 0.60099 0.53165 0.0
H2707 H 0.56639 0.61136 0.53029 0.0
H2708 H 0.51639 0.48576 0.5347 0.0
H2709 H 0.51989 0.43305 0.50571 0.0
H2710 H 0.52258 0.46573 0.54931 0.0
H2711 H 0.51374 0.45335 0.49102 0.0
Eu2712 Eu 0.05558 0.53393 0.00843 0.0
Eu2713 Eu 0.02122 0.54289 0.02871 0.0
C2714 C 0.05231 0.53332 0.04644 0.0
C2715 C 0.0843 0.50713 0.99727 0.0
C2716 C 0.09187 0.50872 0.01236 0.0
C2717 C 0.0972 0.48546 0.98824 0.0
C2718 C 0.10238 0.49901 0.01525 0.0
C2719 C 0.08678 0.49524 0.98534 0.0
C2720 C 0.1054 0.48745 1.00314 0.0
C2721 C 0.07425 0.5181 0.99366 0.0
O2722 O 0.04479 0.55913 0.03198 0.0
O2723 O 0.05861 0.55994 0.01061 0.0
C2724 C 0.05105 0.56701 0.02138 0.0
O2725 O 0.03918 0.53898 0.98983 0.0
O2726 O 0.01312 0.56458 0.03693 0.0
O2727 O 1.00118 0.5426 0.04263 0.0
O2728 O 0.01695 0.54346 1.00257 0.0
C2729 C 0.02499 0.54216 0.99001 0.0
O2730 O 0.0335 0.52384 0.01542 0.0
O2731 O 0.01207 0.5162 0.02385 0.0
O2732 O 0.0379 0.5361 0.04646 0.0
O2733 O 0.05926 0.5129 0.99296 0.0
O2734 O 0.0785 0.53276 1.00085 0.0
O2735 O 0.06081 0.53313 0.03419 0.0
C2736 C 0.98656 0.5625 0.03982 0.0
C2737 C 0.97709 0.55588 0.0259 0.0
C2738 C 0.9692 0.58075 0.04645 0.0
C2739 C 0.96371 0.56172 0.02227 0.0
C2740 C 0.98246 0.57485 0.05011 0.0
C2741 C 0.95978 0.57439 0.03241 0.0
C2742 C 1.00134 0.55763 0.04332 0.0
C2743 C 0.0237 0.51166 0.01725 0.0
H2744 H 0.08998 0.51773 0.0218 0.0
H2745 H 0.09898 0.47645 0.97874 0.0
H2746 H 0.10853 0.50097 0.02682 0.0
H2747 H 0.08089 0.49373 0.97368 0.0
H2748 H 0.98022 0.54645 0.01772 0.0
H2749 H 0.96635 0.59038 0.05458 0.0
H2750 H 0.95673 0.55668 0.01132 0.0
H2751 H 0.9897 0.58014 0.06086 0.0
C2752 C 0.01747 0.23397 0.96816 0.0
C2753 C 1.00377 0.23348 0.95875 0.0
C2754 C 0.01861 0.22229 0.97719 0.0
C2755 C 1.00262 0.18086 0.97661 0.0
H2756 H 0.02869 0.18773 0.01579 0.0
C2757 C 0.03302 0.13317 0.99488 0.0
C2758 C 0.03405 0.13145 0.01078 0.0
C2759 C 0.02719 0.14573 0.9903 0.0
C2760 C 0.02118 0.1856 1.00498 0.0
H2761 H 0.98021 0.22086 0.95209 0.0
H2762 H 0.98211 0.20054 0.96812 0.0
H2763 H 0.02142 0.21019 0.00568 0.0
H2764 H 0.02978 0.14148 0.03437 0.0
H2765 H 0.01959 0.16357 0.02634 0.0
H2766 H 1.00247 0.15632 0.97582 0.0
C2767 C 0.99205 0.20985 0.96831 0.0
C2768 C 0.01714 0.19847 0.99912 0.0
C2769 C 0.99091 0.22156 0.95924 0.0
C2770 C 0.02927 0.14263 0.02205 0.0
C2771 C 0.0234 0.15523 0.01745 0.0
C2772 C 0.00662 0.16802 0.98249 0.0
C2773 C 0.00605 0.20987 0.97705 0.0
C2774 C 0.00819 0.19626 0.98464 0.0
C2775 C 0.02224 0.15685 1.00151 0.0
C2776 C 0.01633 0.17029 0.99647 0.0
H2777 H 0.02748 0.24318 0.96823 0.0
H2778 H 0.02961 0.22259 0.98367 0.0
H2779 H 0.99581 0.17874 0.96537 0.0
H2780 H 0.03686 0.12488 0.98597 0.0
H2781 H 0.0268 0.14687 0.97798 0.0
C2782 C 0.13752 0.77019 0.16449 0.0
C2783 C 0.12346 0.77208 0.17078 0.0
C2784 C 0.14967 0.76704 0.17382 0.0
C2785 C 0.16534 0.77146 0.21487 0.0
H2786 H 0.19187 0.74387 0.19624 0.0
C2787 C 0.22226 0.76266 0.24714 0.0
C2788 C 0.23508 0.7655 0.23829 0.0
C2789 C 0.20718 0.76098 0.24009 0.0
C2790 C 0.18451 0.75154 0.20161 0.0
H2791 H 0.11102 0.77196 0.19176 0.0
H2792 H 0.13237 0.76647 0.20816 0.0
H2793 H 0.16778 0.74545 0.18165 0.0
H2794 H 0.2422 0.76836 0.21509 0.0
H2795 H 0.21602 0.76527 0.20285 0.0
H2796 H 0.18236 0.77778 0.2347 0.0
C2797 C 0.13399 0.76756 0.19601 0.0
C2798 C 0.17077 0.7525 0.19326 0.0
C2799 C 0.1218 0.77074 0.18664 0.0
C2800 C 0.23257 0.76626 0.22225 0.0
C2801 C 0.21757 0.76436 0.21519 0.0
C2802 C 0.17908 0.77042 0.22328 0.0
C2803 C 0.14805 0.76566 0.18967 0.0
C2804 C 0.16131 0.76288 0.19956 0.0
C2805 C 0.20474 0.76181 0.22405 0.0
C2806 C 0.18901 0.76084 0.21649 0.0
H2807 H 0.13926 0.77143 0.15239 0.0
H2808 H 0.16048 0.76602 0.16867 0.0
H2809 H 0.15833 0.77962 0.22001 0.0
H2810 H 0.22387 0.76205 0.25955 0.0
H2811 H 0.19744 0.75903 0.24715 0.0
C2812 C 0.49991 0.86514 0.47649 0.0
C2813 C 0.51252 0.85736 0.47497 0.0
C2814 C 0.50181 0.88012 0.48558 0.0
C2815 C 0.5077 0.91184 0.50691 0.0
H2816 H 0.54609 0.93737 0.49863 0.0
C2817 C 0.52145 0.98044 0.52185 0.0
C2818 C 0.528 0.98779 0.50979 0.0
C2819 C 0.51975 0.96411 0.52093 0.0
C2820 C 0.53532 0.93041 0.50107 0.0
H2821 H 0.5365 0.85817 0.48282 0.0
H2822 H 0.53973 0.88407 0.49931 0.0
H2823 H 0.54252 0.90901 0.49217 0.0
H2824 H 0.53743 0.98375 0.48711 0.0
H2825 H 0.53424 0.95548 0.48543 0.0
H2826 H 0.50021 0.93356 0.5148 0.0
C2827 C 0.52852 0.87895 0.49305 0.0
C2828 C 0.53334 0.91408 0.49761 0.0
C2829 C 0.52669 0.86412 0.48371 0.0
C2830 C 0.53247 0.9785 0.49668 0.0
C2831 C 0.53076 0.96228 0.49577 0.0
C2832 C 0.50966 0.92827 0.51028 0.0
C2833 C 0.51633 0.88747 0.49348 0.0
C2834 C 0.51932 0.90457 0.50001 0.0
C2835 C 0.52461 0.95492 0.50797 0.0
C2836 C 0.52329 0.93768 0.50685 0.0
H2837 H 0.48889 0.86013 0.46976 0.0
H2838 H 0.49219 0.88633 0.48548 0.0
H2839 H 0.49687 0.90487 0.50917 0.0
H2840 H 0.51792 0.98729 0.53212 0.0
H2841 H 0.51496 0.95874 0.5305 0.0
C2842 C 0.47143 0.26545 0.65788 0.0
C2843 C 0.4836 0.25916 0.66411 0.0
C2844 C 0.45757 0.26486 0.66509 0.0
C2845 C 0.43511 0.24603 0.69458 0.0
H2846 H 0.41712 0.28372 0.69875 0.0
C2847 C 0.39208 0.25988 0.74028 0.0
C2848 C 0.37883 0.26518 0.73498 0.0
C2849 C 0.40403 0.25826 0.73053 0.0
C2850 C 0.42192 0.27306 0.69752 0.0
H2851 H 0.49081 0.24718 0.68261 0.0
H2852 H 0.4668 0.24644 0.6954 0.0
H2853 H 0.43939 0.28215 0.68342 0.0
H2854 H 0.36771 0.27277 0.71516 0.0
H2855 H 0.38883 0.27034 0.69833 0.0
H2856 H 0.41791 0.23723 0.70919 0.0
C2857 C 0.46774 0.25149 0.68474 0.0
C2858 C 0.43463 0.27211 0.68868 0.0
C2859 C 0.48153 0.25195 0.67745 0.0
C2860 C 0.37786 0.26893 0.71973 0.0
C2861 C 0.3899 0.26747 0.71005 0.0
C2862 C 0.4225 0.24706 0.70354 0.0
C2863 C 0.45566 0.25811 0.67876 0.0
C2864 C 0.44148 0.25864 0.68724 0.0
C2865 C 0.40305 0.26206 0.71535 0.0
C2866 C 0.41589 0.26064 0.70521 0.0
H2867 H 0.47268 0.27091 0.64749 0.0
H2868 H 0.44839 0.2698 0.66 0.0
H2869 H 0.43992 0.23538 0.69347 0.0
H2870 H 0.39333 0.25716 0.75204 0.0
H2871 H 0.41417 0.2543 0.73498 0.0
C2872 C 1.00445 0.82922 0.57498 0.0
C2873 C 0.0049 0.83311 0.59147 0.0
C2874 C 0.01003 0.84061 0.56601 0.0
C2875 C 0.03736 0.87758 0.56856 0.0
H2876 H 0.01238 0.88421 0.5326 0.0
C2877 C 0.05028 0.93375 0.54146 0.0
C2878 C 0.04635 0.93305 0.52533 0.0
C2879 C 0.04678 0.92038 0.54843 0.0
C2880 C 0.01967 0.88231 0.54239 0.0
H2881 H 0.01117 0.8522 0.61137 0.0
H2882 H 0.02124 0.87196 0.59569 0.0
H2883 H 1.0027 0.86314 0.54694 0.0
H2884 H 0.03639 0.91751 0.50368 0.0
H2885 H 0.03082 0.894 0.51573 0.0
H2886 H 0.05439 0.89661 0.56405 0.0
C2887 C 0.01665 0.86004 0.58978 0.0
C2888 C 0.01406 0.8703 0.55064 0.0
C2889 C 0.01089 0.84871 0.59874 0.0
C2890 C 0.03963 0.91845 0.51613 0.0
C2891 C 0.03624 0.90501 0.52308 0.0
C2892 C 0.04306 0.88946 0.5602 0.0
C2893 C 0.01637 0.85606 0.57336 0.0
C2894 C 0.02273 0.86804 0.56398 0.0
C2895 C 0.03941 0.90591 0.53939 0.0
C2896 C 0.03416 0.89218 0.5472 0.0
H2897 H 1.0002 0.81726 0.56901 0.0
H2898 H 0.00978 0.83724 0.55336 0.0
H2899 H 0.04437 0.87588 0.57866 0.0
H2900 H 0.05572 0.94476 0.54883 0.0
H2901 H 0.04929 0.92159 0.56103 0.0
C2902 C 0.5 0.77187 0.79794 0.0
C2903 C 0.49713 0.77093 0.81369 0.0
C2904 C 0.48787 0.77198 0.78679 0.0
C2905 C 0.44542 0.76282 0.77856 0.0
H2906 H 0.45055 0.80007 0.75885 0.0
C2907 C 0.39375 0.7793 0.74587 0.0
C2908 C 0.39128 0.79427 0.75268 0.0
C2909 C 0.40807 0.77488 0.74857 0.0
C2910 C 0.44903 0.78949 0.76407 0.0
H2911 H 0.47908 0.76882 0.82981 0.0
H2912 H 0.45798 0.76853 0.81027 0.0
H2913 H 0.47286 0.79383 0.77316 0.0
H2914 H 0.40239 0.81667 0.76675 0.0
H2915 H 0.42733 0.8091 0.77103 0.0
H2916 H 0.42146 0.75889 0.77017 0.0
C2917 C 0.46963 0.76917 0.80659 0.0
C2918 C 0.46179 0.78587 0.77217 0.0
C2919 C 0.48175 0.7693 0.81779 0.0
C2920 C 0.40385 0.80513 0.76113 0.0
C2921 C 0.41819 0.80078 0.76363 0.0
C2922 C 0.43272 0.76633 0.77031 0.0
C2923 C 0.47261 0.77085 0.79108 0.0
C2924 C 0.45995 0.77283 0.77998 0.0
C2925 C 0.42026 0.78543 0.75788 0.0
C2926 C 0.43429 0.78001 0.76348 0.0
H2927 H 0.51165 0.77279 0.79426 0.0
H2928 H 0.49043 0.77318 0.77486 0.0
H2929 H 0.44375 0.75265 0.78441 0.0
H2930 H 0.38444 0.77076 0.73898 0.0
H2931 H 0.40944 0.76303 0.74386 0.0
C2932 C 0.48764 0.17445 0.08163 0.0
C2933 C 0.49034 0.18789 0.07443 0.0
C2934 C 0.49014 0.16002 0.07388 0.0
C2935 C 0.5136 0.14368 0.0444 0.0
H2936 H 0.48701 0.10416 0.04753 0.0
C2937 C 0.52659 0.08321 0.01684 0.0
C2938 C 0.52424 0.07132 0.02613 0.0
C2939 C 0.52166 0.09744 0.02141 0.0
C2940 C 0.4946 0.1151 0.04666 0.0
H2941 H 0.49713 0.19654 0.05316 0.0
H2942 H 0.50165 0.17124 0.03964 0.0
H2943 H 0.47897 0.12894 0.0573 0.0
H2944 H 0.51514 0.06513 0.04763 0.0
H2945 H 0.50679 0.09003 0.0557 0.0
H2946 H 0.52941 0.12986 0.03409 0.0
C2947 C 0.49772 0.17198 0.05136 0.0
C2948 C 0.48997 0.12927 0.0522 0.0
C2949 C 0.49515 0.18645 0.05909 0.0
C2950 C 0.51707 0.07403 0.04018 0.0
C2951 C 0.51217 0.08825 0.04474 0.0
C2952 C 0.51825 0.1295 0.03888 0.0
C2953 C 0.49546 0.15869 0.05878 0.0
C2954 C 0.49954 0.14369 0.05136 0.0
C2955 C 0.51429 0.10006 0.03535 0.0
C2956 C 0.50892 0.11507 0.0402 0.0
H2957 H 0.48424 0.17519 0.09355 0.0
H2958 H 0.48853 0.15004 0.08 0.0
H2959 H 0.52131 0.15463 0.04378 0.0
H2960 H 0.53201 0.08146 0.00591 0.0
H2961 H 0.52336 0.10628 0.01387 0.0
C2962 C 0.13581 0.30297 0.32669 0.0
C2963 C 0.13525 0.29481 0.3395 0.0
C2964 C 0.14917 0.30516 0.31869 0.0
C2965 C 0.19114 0.30499 0.32306 0.0
H2966 H 0.1875 0.29813 0.2774 0.0
C2967 C 0.23154 0.28818 0.27094 0.0
C2968 C 0.24564 0.29786 0.27744 0.0
C2969 C 0.21766 0.29043 0.27725 0.0
C2970 C 0.1887 0.3001 0.29015 0.0
H2971 H 0.14832 0.28269 0.35404 0.0
H2972 H 0.17151 0.28621 0.33987 0.0
H2973 H 0.16411 0.29628 0.29147 0.0
H2974 H 0.25612 0.31838 0.29466 0.0
H2975 H 0.23187 0.3225 0.30543 0.0
H2976 H 0.21563 0.30809 0.32181 0.0
C2977 C 0.16169 0.2911 0.33614 0.0
C2978 C 0.17531 0.29918 0.29821 0.0
C2979 C 0.14834 0.28891 0.34414 0.0
C2980 C 0.24546 0.31055 0.28957 0.0
C2981 C 0.23158 0.31288 0.29579 0.0
C2982 C 0.20449 0.30587 0.31502 0.0
C2983 C 0.16226 0.29926 0.32333 0.0
C2984 C 0.1764 0.30135 0.31475 0.0
C2985 C 0.21762 0.30249 0.29009 0.0
C2986 C 0.20343 0.30321 0.29847 0.0
H2987 H 0.12584 0.30749 0.32271 0.0
H2988 H 0.14929 0.31158 0.30893 0.0
H2989 H 0.19236 0.30695 0.33581 0.0
H2990 H 0.2313 0.2783 0.26158 0.0
H2991 H 0.20713 0.28215 0.27264 0.0
C2992 C 0.96608 0.05679 0.18015 0.0
C2993 C 0.95569 0.04417 0.18447 0.0
C2994 C 0.97322 0.05524 0.16574 0.0
C2995 C 0.97071 0.02902 0.12531 0.0
H2996 H 0.01153 0.05323 0.12287 0.0
C2997 C 1.00379 0.01917 0.06758 0.0
C2998 C 0.01473 0.03157 0.06367 0.0
C2999 C 0.99684 0.0206 0.0821 0.0
C3000 C 1.00003 0.04645 0.12304 0.0
H3001 H 0.94488 0.01983 0.17589 0.0
H3002 H 0.95726 0.01711 0.15131 0.0
H3003 H 0.99935 0.05589 0.14753 0.0
H3004 H 0.02657 0.05543 0.07276 0.0
H3005 H 0.01453 0.058 0.09759 0.0
H3006 H 0.97131 0.01965 0.10081 0.0
C3007 C 0.9599 0.0284 0.15904 0.0
C3008 C 0.99292 0.048 0.13747 0.0
C3009 C 0.95283 0.02992 0.17349 0.0
C3010 C 0.01838 0.04546 0.07509 0.0
C3011 C 0.0114 0.0469 0.08959 0.0
C3012 C 0.97779 0.02751 0.11087 0.0
C3013 C 0.97033 0.041 0.15474 0.0
C3014 C 0.97805 0.03933 0.13904 0.0
C3015 C 1.00038 0.03453 0.09354 0.0
C3016 C 0.99268 0.03617 0.10928 0.0
H3017 H 0.96895 0.06798 0.18802 0.0
H3018 H 0.98092 0.06543 0.16318 0.0
H3019 H 0.95921 0.02222 0.12553 0.0
H3020 H 1.0005 0.00823 0.05934 0.0
H3021 H 0.98873 0.01055 0.08435 0.0
C3022 C 0.30114 0.6914 0.46225 0.0
C3023 C 0.29889 0.67486 0.45921 0.0
C3024 C 0.3 0.6999 0.44994 0.0
C3025 C 0.30124 0.6969 0.40682 0.0
H3026 H 0.27826 0.73107 0.41196 0.0
C3027 C 0.28221 0.725 0.35447 0.0
C3028 C 0.28258 0.74132 0.35699 0.0
C3029 C 0.28506 0.71731 0.36705 0.0
C3030 C 0.28491 0.72172 0.41039 0.0
H3031 H 0.2936 0.65433 0.44075 0.0
H3032 H 0.29175 0.66915 0.41931 0.0
H3033 H 0.28178 0.71697 0.4337 0.0
H3034 H 0.28666 0.76243 0.37471 0.0
H3035 H 0.29176 0.74906 0.39667 0.0
H3036 H 0.30435 0.70162 0.3835 0.0
C3037 C 0.29458 0.67556 0.43121 0.0
C3038 C 0.28692 0.71362 0.42286 0.0
C3039 C 0.29566 0.66706 0.44352 0.0
C3040 C 0.28607 0.74981 0.37239 0.0
C3041 C 0.28897 0.74213 0.38499 0.0
C3042 C 0.29928 0.70503 0.39436 0.0
C3043 C 0.29665 0.69207 0.43427 0.0
C3044 C 0.29501 0.70105 0.42119 0.0
C3045 C 0.28841 0.72577 0.38249 0.0
C3046 C 0.29099 0.71747 0.39594 0.0
H3047 H 0.30389 0.69782 0.47416 0.0
H3048 H 0.30188 0.71263 0.45267 0.0
H3049 H 0.30774 0.68743 0.40523 0.0
H3050 H 0.27933 0.71807 0.34279 0.0
H3051 H 0.28428 0.70467 0.36472 0.0
C3052 C 0.60521 0.0287 0.67512 0.0
C3053 C 0.61881 0.02241 0.67601 0.0
C3054 C 0.59743 0.02857 0.66052 0.0
C3055 C 0.60482 0.0272 0.61887 0.0
H3056 H 0.56 0.02055 0.61199 0.0
C3057 C 0.57333 0.02479 0.55788 0.0
C3058 C 0.56092 0.03293 0.5574 0.0
C3059 C 0.58005 0.02273 0.57226 0.0
C3060 C 0.57254 0.02256 0.61379 0.0
H3061 H 0.63448 0.0103 0.66245 0.0
H3062 H 0.62081 0.00991 0.63695 0.0
H3063 H 0.57203 0.01761 0.63729 0.0
H3064 H 0.54586 0.0453 0.57168 0.0
H3065 H 0.55772 0.04179 0.59677 0.0
H3066 H 0.60535 0.03223 0.59543 0.0
C3067 C 0.61634 0.01526 0.64749 0.0
C3068 C 0.57942 0.02087 0.62826 0.0
C3069 C 0.62414 0.01544 0.66208 0.0
C3070 C 0.5554 0.03897 0.57162 0.0
C3071 C 0.56211 0.03687 0.586 0.0
C3072 C 0.59795 0.02885 0.60441 0.0
C3073 C 0.60308 0.02211 0.64653 0.0
C3074 C 0.59565 0.02323 0.63098 0.0
C3075 C 0.5745 0.02872 0.58647 0.0
C3076 C 0.58174 0.02663 0.60174 0.0
H3077 H 0.60094 0.03432 0.68566 0.0
H3078 H 0.58734 0.0341 0.66017 0.0
H3079 H 0.61736 0.0294 0.62068 0.0
H3080 H 0.57782 0.01992 0.54715 0.0
H3081 H 0.58949 0.01626 0.57224 0.0
C3082 C 0.26682 0.32504 0.93904 0.0
C3083 C 0.28071 0.32753 0.9488 0.0
C3084 C 0.26635 0.31897 0.923 0.0
C3085 C 0.29203 0.31675 0.89099 0.0
H3086 H 0.25754 0.28643 0.86788 0.0
C3087 C 0.29395 0.29134 0.8258 0.0
C3088 C 0.28043 0.28963 0.81569 0.0
C3089 C 0.29356 0.29486 0.84209 0.0
C3090 C 0.26718 0.29502 0.87414 0.0
H3091 H 0.30488 0.32518 0.9494 0.0
H3092 H 0.30399 0.3144 0.92148 0.0
H3093 H 0.25762 0.29418 0.89637 0.0
H3094 H 0.25578 0.29 0.81483 0.0
H3095 H 0.25516 0.29644 0.84334 0.0
H3096 H 0.30151 0.31786 0.86887 0.0
C3097 C 0.29351 0.31729 0.92621 0.0
C3098 C 0.26724 0.29943 0.89046 0.0
C3099 C 0.29397 0.3233 0.94225 0.0
C3100 C 0.26641 0.29123 0.82229 0.0
C3101 C 0.26604 0.29484 0.83864 0.0
C3102 C 0.29194 0.3124 0.87472 0.0
C3103 C 0.27977 0.31534 0.91634 0.0
C3104 C 0.2797 0.31031 0.89907 0.0
C3105 C 0.27966 0.29686 0.84873 0.0
C3106 C 0.27956 0.30145 0.86608 0.0
H3107 H 0.25636 0.32802 0.94377 0.0
H3108 H 0.2556 0.31767 0.91571 0.0
H3109 H 0.30164 0.32542 0.89721 0.0
H3110 H 0.30492 0.29002 0.82115 0.0
H3111 H 0.3042 0.296 0.8495 0.0
C3112 C 0.9607 0.03409 0.35069 0.0
C3113 C 0.9569 0.04837 0.34732 0.0
C3114 C 0.96776 0.03295 0.36556 0.0
C3115 C 0.97662 0.05421 0.40829 0.0
H3116 H 1.00351 0.02396 0.41091 0.0
C3117 C 0.01143 0.05155 0.46844 0.0
C3118 C 0.01486 0.03704 0.47145 0.0
C3119 C 1.00458 0.05311 0.45358 0.0
C3120 C 0.99589 0.03238 0.41063 0.0
H3121 H 0.95793 0.0727 0.35803 0.0
H3122 H 0.97035 0.07081 0.38348 0.0
H3123 H 0.99164 0.02629 0.38545 0.0
H3124 H 0.01339 0.01276 0.46046 0.0
H3125 H 1.0015 0.01536 0.43501 0.0
H3126 H 0.98091 0.06031 0.4335 0.0
C3127 C 0.96769 0.0603 0.37461 0.0
C3128 C 0.98896 0.03375 0.39577 0.0
C3129 C 0.96064 0.06145 0.3597 0.0
C3130 C 0.01111 0.02419 0.45886 0.0
C3131 C 1.00428 0.02575 0.44402 0.0
C3132 C 0.98356 0.05285 0.42317 0.0
C3133 C 0.97145 0.046 0.37798 0.0
C3134 C 0.97909 0.04467 0.39415 0.0
C3135 C 1.00081 0.04024 0.44094 0.0
C3136 C 0.99337 0.04186 0.42478 0.0
H3137 H 0.95838 0.02365 0.34173 0.0
H3138 H 0.97011 0.02159 0.36732 0.0
H3139 H 0.96901 0.06264 0.40799 0.0
H3140 H 0.01406 0.06183 0.47761 0.0
H3141 H 1.00244 0.06459 0.45201 0.0
C3142 C 0.30626 0.68406 0.61576 0.0
C3143 C 0.2943 0.67958 0.60348 0.0
C3144 C 0.30444 0.69405 0.62959 0.0
C3145 C 0.27999 0.72235 0.64664 0.0
H3146 H 0.29953 0.71612 0.68598 0.0
C3147 C 0.27139 0.75497 0.70963 0.0
C3148 C 0.28535 0.76136 0.71904 0.0
C3149 C 0.27146 0.74524 0.69504 0.0
C3150 C 0.29403 0.71802 0.67507 0.0
H3151 H 0.2711 0.6826 0.59621 0.0
H3152 H 0.26767 0.69931 0.62052 0.0
H3153 H 0.30157 0.69847 0.66176 0.0
H3154 H 0.31035 0.76281 0.72018 0.0
H3155 H 0.31035 0.74584 0.69512 0.0
H3156 H 0.27221 0.74179 0.66029 0.0
C3157 C 0.27861 0.69534 0.61937 0.0
C3158 C 0.29529 0.70797 0.66113 0.0
C3159 C 0.28049 0.68549 0.60546 0.0
C3160 C 0.29934 0.75811 0.71335 0.0
C3161 C 0.29938 0.74829 0.69899 0.0
C3162 C 0.27855 0.73229 0.66069 0.0
C3163 C 0.29054 0.69974 0.63167 0.0
C3164 C 0.28852 0.71012 0.64664 0.0
C3165 C 0.28546 0.74156 0.68977 0.0
C3166 C 0.28577 0.73037 0.67499 0.0
H3167 H 0.317 0.67968 0.61483 0.0
H3168 H 0.31404 0.69737 0.63861 0.0
H3169 H 0.27475 0.72454 0.63575 0.0
H3170 H 0.26042 0.75722 0.71365 0.0
H3171 H 0.26056 0.74019 0.68813 0.0
C3172 C 0.61259 0.0803 0.82133 0.0
C3173 C 0.62851 0.0799 0.82213 0.0
C3174 C 0.60565 0.08527 0.83492 0.0
C3175 C 0.61133 0.08548 0.87708 0.0
H3176 H 0.57497 0.10495 0.87855 0.0
C3177 C 0.57489 0.08222 0.92911 0.0
C3178 C 0.55905 0.07637 0.92466 0.0
C3179 C 0.58454 0.08849 0.91847 0.0
C3180 C 0.58515 0.09955 0.87834 0.0
H3181 H 0.6499 0.08567 0.83735 0.0
H3182 H 0.63782 0.09449 0.86106 0.0
H3183 H 0.59016 0.10526 0.85568 0.0
H3184 H 0.54064 0.07405 0.90614 0.0
H3185 H 0.55754 0.08433 0.88737 0.0
H3186 H 0.60601 0.07899 0.89919 0.0
C3187 C 0.63063 0.09062 0.85005 0.0
C3188 C 0.59383 0.09973 0.86526 0.0
C3189 C 0.63754 0.08556 0.8365 0.0
C3190 C 0.55286 0.07811 0.9098 0.0
C3191 C 0.56254 0.08424 0.89911 0.0
C3192 C 0.60267 0.08526 0.89008 0.0
C3193 C 0.61452 0.09 0.84952 0.0
C3194 C 0.60676 0.09229 0.86431 0.0
C3195 C 0.5786 0.08889 0.9031 0.0
C3196 C 0.58921 0.09188 0.89068 0.0
H3197 H 0.60536 0.07594 0.8104 0.0
H3198 H 0.59319 0.08448 0.83413 0.0
H3199 H 0.62107 0.07941 0.87664 0.0
H3200 H 0.58007 0.08108 0.94046 0.0
H3201 H 0.59682 0.09227 0.92202 0.0
C3202 C 0.28246 0.34974 0.11721 0.0
C3203 C 0.29047 0.34242 0.10542 0.0
C3204 C 0.28223 0.34514 0.132 0.0
C3205 C 0.28483 0.31172 0.15153 0.0
H3206 H 0.29575 0.34243 0.18988 0.0
C3207 C 0.29188 0.29216 0.21157 0.0
C3208 C 0.28746 0.30116 0.22492 0.0
C3209 C 0.2923 0.29762 0.19723 0.0
C3210 C 0.29241 0.3337 0.17933 0.0
H3211 H 0.30446 0.3246 0.09978 0.0
H3212 H 0.30376 0.31628 0.12559 0.0
H3213 H 0.29623 0.35115 0.16436 0.0
H3214 H 0.28 0.32296 0.23372 0.0
H3215 H 0.28012 0.33228 0.20848 0.0
H3216 H 0.28048 0.2943 0.16627 0.0
C3217 C 0.29777 0.32564 0.12339 0.0
C3218 C 0.29278 0.33872 0.16471 0.0
C3219 C 0.29823 0.33043 0.10868 0.0
C3220 C 0.2835 0.31579 0.22363 0.0
C3221 C 0.28367 0.32116 0.20917 0.0
C3222 C 0.2842 0.30673 0.16611 0.0
C3223 C 0.28978 0.33296 0.13518 0.0
C3224 C 0.28914 0.32775 0.15069 0.0
C3225 C 0.28804 0.31211 0.19575 0.0
C3226 C 0.28815 0.31761 0.18023 0.0
H3227 H 0.2765 0.35912 0.11501 0.0
H3228 H 0.27593 0.35092 0.14087 0.0
H3229 H 0.28173 0.30306 0.14089 0.0
H3230 H 0.29522 0.28093 0.21221 0.0
H3231 H 0.29614 0.29048 0.18735 0.0
C3232 C 0.18771 0.98173 1.00257 0.0
C3233 C 0.1947 0.97494 0.01418 0.0
C3234 C 0.17348 0.98664 1.00457 0.0
C3235 C 0.13873 0.98122 0.02742 0.0
H3236 H 0.13156 0.01934 0.01307 0.0
C3237 C 0.07782 0.99845 0.02382 0.0
C3238 C 0.07687 0.01452 0.02693 0.0
C3239 C 0.09224 0.9937 0.02332 0.0
C3240 C 0.13338 0.00874 0.01731 0.0
H3241 H 0.19185 0.9678 0.03697 0.0
H3242 H 0.16734 0.97665 0.0406 0.0
H3243 H 0.15647 0.01116 0.01009 0.0
H3244 H 0.09059 0.03813 0.03262 0.0
H3245 H 0.11563 0.02985 0.03208 0.0
H3246 H 0.11572 0.97895 0.03488 0.0
C3247 C 0.17277 0.97807 0.02984 0.0
C3248 C 0.14765 1.00392 0.01539 0.0
C3249 C 0.187 0.97318 0.02784 0.0
C3250 C 0.09078 0.02565 0.03014 0.0
C3251 C 0.1052 0.0209 0.02967 0.0
C3252 C 0.12445 0.98604 0.02933 0.0
C3253 C 0.16578 0.98487 0.01824 0.0
C3254 C 0.15054 0.99007 0.02038 0.0
C3255 C 0.10616 1.00487 0.02595 0.0
C3256 C 0.12154 0.99987 0.02429 0.0
H3257 H 0.1933 0.98341 0.99195 0.0
H3258 H 0.16841 0.99164 0.99528 0.0
H3259 H 0.14041 0.9704 0.03127 0.0
H3260 H 0.06741 0.98949 0.02125 0.0
H3261 H 0.09244 0.98126 0.0203 0.0
C3262 C 0.68744 0.61991 0.98216 0.0
C3263 C 0.69491 0.63005 0.99573 0.0
C3264 C 0.67276 0.61075 0.98258 0.0
C3265 C 0.64612 0.59565 0.01103 0.0
H3266 H 0.61503 0.58754 0.97554 0.0
C3267 C 0.58209 0.57106 0.0164 0.0
C3268 C 0.57498 0.55795 1.00517 0.0
C3269 C 0.59661 0.57956 0.01439 0.0
C3270 C 0.62366 0.58963 0.98548 0.0
H3271 H 0.69267 0.63909 0.02017 0.0
H3272 H 0.667 0.62355 0.02084 0.0
H3273 H 0.64063 0.60314 0.97372 0.0
H3274 H 0.57735 0.54384 0.98272 0.0
H3275 H 0.60274 0.55897 0.9791 0.0
H3276 H 0.629 0.58252 0.02292 0.0
C3277 C 0.6726 0.62216 0.00999 0.0
C3278 C 0.63835 0.59851 0.98444 0.0
C3279 C 0.6873 0.63114 0.00961 0.0
C3280 C 0.58254 0.55384 0.99162 0.0
C3281 C 0.59702 0.56251 0.98951 0.0
C3282 C 0.63143 0.58697 0.01212 0.0
C3283 C 0.66519 0.61169 0.99655 0.0
C3284 C 0.64972 0.60176 0.99728 0.0
C3285 C 0.60428 0.5753 1.00101 0.0
C3286 C 0.62002 0.58399 0.99942 0.0
H3287 H 0.69311 0.6188 0.97133 0.0
H3288 H 0.66751 0.6027 0.97205 0.0
H3289 H 0.65467 0.59752 0.02101 0.0
H3290 H 0.57661 0.5746 0.02696 0.0
H3291 H 0.60187 0.58949 0.02334 0.0
C3292 C 0.6967 0.42305 0.27339 0.0
C3293 C 0.70185 0.43557 0.26515 0.0
C3294 C 0.70408 0.40974 0.27311 0.0
C3295 C 0.74024 0.39307 0.25912 0.0
H3296 H 0.71882 0.35547 0.27231 0.0
C3297 C 0.77192 0.33852 0.26209 0.0
C3298 C 0.7635 0.32332 0.26276 0.0
C3299 C 0.7646 0.35186 0.26233 0.0
C3300 C 0.72518 0.36565 0.26835 0.0
H3301 H 0.71979 0.44268 0.25 0.0
H3302 H 0.73184 0.41984 0.24895 0.0
H3303 H 0.70621 0.37784 0.27229 0.0
H3304 H 0.74014 0.31093 0.26398 0.0
H3305 H 0.72748 0.3335 0.26379 0.0
H3306 H 0.75895 0.38064 0.25454 0.0
C3307 C 0.72217 0.42031 0.25609 0.0
C3308 C 0.71783 0.37897 0.26858 0.0
C3309 C 0.71489 0.43371 0.25651 0.0
C3310 C 0.7473 0.32221 0.26349 0.0
C3311 C 0.73994 0.3355 0.26353 0.0
C3312 C 0.74753 0.37969 0.25872 0.0
C3313 C 0.71707 0.40785 0.26441 0.0
C3314 C 0.7251 0.3932 0.26403 0.0
C3315 C 0.74833 0.35086 0.26305 0.0
C3316 C 0.74029 0.36549 0.26336 0.0
H3317 H 0.68674 0.42326 0.28013 0.0
H3318 H 0.69949 0.40099 0.28 0.0
H3319 H 0.74679 0.40343 0.25564 0.0
H3320 H 0.78438 0.34023 0.26167 0.0
H3321 H 0.77199 0.36308 0.2622 0.0
C3322 C 0.85948 0.48888 0.50176 0.0
C3323 C 0.85293 0.48092 0.51345 0.0
C3324 C 0.87561 0.49348 0.50196 0.0
C3325 C 0.91239 0.48388 0.51723 0.0
H3326 H 0.93093 0.52388 0.50632 0.0
C3327 C 0.97916 0.50535 0.52193 0.0
C3328 C 0.98534 0.51356 0.51026 0.0
C3329 C 0.96307 0.50159 0.52272 0.0
C3330 C 0.92596 0.51256 0.50921 0.0
H3331 H 0.85835 0.47229 0.53495 0.0
H3332 H 0.88636 0.4802 0.53521 0.0
H3333 H 0.90288 0.51727 0.50701 0.0
H3334 H 0.97928 0.52403 0.49013 0.0
H3335 H 0.95141 0.51722 0.49131 0.0
H3336 H 0.93541 0.47906 0.51923 0.0
C3337 C 0.87905 0.48263 0.52572 0.0
C3338 C 0.90984 0.50879 0.50963 0.0
C3339 C 0.86294 0.47809 0.52556 0.0
C3340 C 0.975 0.51778 0.49934 0.0
C3341 C 0.95895 0.51396 0.50009 0.0
C3342 C 0.9285 0.48762 0.51674 0.0
C3343 C 0.88562 0.49022 0.51382 0.0
C3344 C 0.90283 0.49439 0.51362 0.0
C3345 C 0.95272 0.50589 0.51184 0.0
C3346 C 0.93554 0.502 0.51267 0.0
H3347 H 0.8522 0.49109 0.49213 0.0
H3348 H 0.88025 0.49917 0.49252 0.0
H3349 H 0.90739 0.47258 0.52012 0.0
H3350 H 0.98675 0.502 0.53061 0.0
H3351 H 0.95876 0.49554 0.53206 0.0
C3352 C 0.33923 0.08206 0.25479 0.0
C3353 C 0.35296 0.08616 0.2649 0.0
C3354 C 0.3301 0.09327 0.25281 0.0
C3355 C 0.32174 0.13054 0.27306 0.0
H3356 H 0.30382 0.13432 0.23204 0.0
C3357 C 0.29536 0.18383 0.26297 0.0
C3358 C 0.28171 0.18135 0.25289 0.0
C3359 C 0.30315 0.17151 0.26437 0.0
C3360 C 0.30855 0.13324 0.24359 0.0
H3361 H 0.36821 0.10536 0.28036 0.0
H3362 H 0.35225 0.12492 0.27694 0.0
H3363 H 0.31962 0.11427 0.23423 0.0
H3364 H 0.26546 0.16398 0.23644 0.0
H3365 H 0.27912 0.14229 0.23895 0.0
H3366 H 0.31077 0.14948 0.28246 0.0
C3367 C 0.34842 0.11297 0.27076 0.0
C3368 C 0.31763 0.12181 0.24484 0.0
C3369 C 0.35756 0.10178 0.27271 0.0
C3370 C 0.27599 0.16624 0.24424 0.0
C3371 C 0.28381 0.15386 0.24566 0.0
C3372 C 0.31266 0.14191 0.27183 0.0
C3373 C 0.33451 0.10878 0.26095 0.0
C3374 C 0.32447 0.1205 0.25957 0.0
C3375 C 0.29749 0.1564 0.25573 0.0
C3376 C 0.30614 0.14353 0.25707 0.0
H3377 H 0.33527 0.07007 0.24877 0.0
H3378 H 0.31937 0.08968 0.24528 0.0
H3379 H 0.32659 0.12957 0.28461 0.0
H3380 H 0.3003 0.19542 0.26948 0.0
H3381 H 0.31383 0.17393 0.27197 0.0
C3382 C 0.35143 0.13103 0.49471 0.0
C3383 C 0.34165 0.13309 0.50687 0.0
C3384 C 0.36365 0.12292 0.49628 0.0
C3385 C 0.38785 0.11033 0.52684 0.0
H3386 H 0.40016 0.08395 0.49111 0.0
C3387 C 0.43214 0.06999 0.53361 0.0
C3388 C 0.44399 0.07056 0.52331 0.0
C3389 C 0.41946 0.07723 0.53117 0.0
C3390 C 0.3969 0.09137 0.50116 0.0
H3391 H 0.33653 0.12775 0.5299 0.0
H3392 H 0.35753 0.11326 0.53249 0.0
H3393 H 0.37812 0.09699 0.48761 0.0
H3394 H 0.45165 0.07918 0.50227 0.0
H3395 H 0.42931 0.09153 0.49787 0.0
H3396 H 0.40649 0.10449 0.5404 0.0
C3397 C 0.35614 0.1183 0.52194 0.0
C3398 C 0.3843 0.09888 0.49916 0.0
C3399 C 0.34405 0.12654 0.52044 0.0
C3400 C 0.44266 0.0783 0.51032 0.0
C3401 C 0.42988 0.08542 0.50781 0.0
C3402 C 0.40032 0.1027 0.52885 0.0
C3403 C 0.36625 0.11656 0.50998 0.0
C3404 C 0.37961 0.10846 0.51199 0.0
C3405 C 0.41823 0.08508 0.51829 0.0
C3406 C 0.40497 0.09314 0.51604 0.0
H3407 H 0.34991 0.13608 0.48418 0.0
H3408 H 0.37129 0.12201 0.48691 0.0
H3409 H 0.38483 0.11789 0.53692 0.0
H3410 H 0.43257 0.06385 0.54353 0.0
H3411 H 0.41053 0.07657 0.53931 0.0
C3412 C 0.71963 0.60651 0.27288 0.0
C3413 C 0.70344 0.60106 0.26971 0.0
C3414 C 0.72655 0.62238 0.27271 0.0
C3415 C 0.71912 0.65966 0.25856 0.0
H3416 H 0.75503 0.67984 0.2872 0.0
C3417 C 0.74482 0.72735 0.26312 0.0
C3418 C 0.76081 0.73304 0.26736 0.0
C3419 C 0.7379 0.71152 0.26351 0.0
C3420 C 0.74515 0.67449 0.27889 0.0
H3421 H 0.68208 0.60916 0.26426 0.0
H3422 H 0.694 0.6363 0.2638 0.0
H3423 H 0.74333 0.65256 0.28757 0.0
H3424 H 0.78187 0.72585 0.27529 0.0
H3425 H 0.77008 0.69858 0.27568 0.0
H3426 H 0.72099 0.68147 0.24974 0.0
C3427 C 0.70149 0.62821 0.26619 0.0
C3428 C 0.73833 0.65861 0.27913 0.0
C3429 C 0.69456 0.61239 0.26643 0.0
C3430 C 0.76955 0.72218 0.272 0.0
C3431 C 0.76265 0.70635 0.27233 0.0
C3432 C 0.72598 0.67551 0.25826 0.0
C3433 C 0.71766 0.63363 0.2693 0.0
C3434 C 0.72512 0.65079 0.26899 0.0
C3435 C 0.74663 0.70057 0.2681 0.0
C3436 C 0.73918 0.68338 0.26843 0.0
H3437 H 0.72714 0.59844 0.27523 0.0
H3438 H 0.73902 0.62573 0.27498 0.0
H3439 H 0.70919 0.65427 0.25031 0.0
H3440 H 0.73754 0.73517 0.25954 0.0
H3441 H 0.72555 0.70799 0.26039 0.0
C3442 C 0.84203 0.43364 0.78151 0.0
C3443 C 0.83676 0.44799 0.78259 0.0
C3444 C 0.83153 0.41943 0.77893 0.0
C3445 C 0.79244 0.40043 0.78344 0.0
H3446 H 0.80114 0.36855 0.75032 0.0
C3447 C 0.77565 0.33366 0.78132 0.0
C3448 C 0.7735 0.32375 0.76658 0.0
C3449 C 0.77862 0.35 0.78227 0.0
C3450 C 0.79829 0.37736 0.75939 0.0
H3451 H 0.81623 0.45864 0.78228 0.0
H3452 H 0.79781 0.4336 0.77818 0.0
H3453 H 0.81644 0.395 0.75419 0.0
H3454 H 0.77076 0.32316 0.74132 0.0
H3455 H 0.77578 0.35163 0.74303 0.0
H3456 H 0.77463 0.38251 0.78901 0.0
C3457 C 0.81013 0.43351 0.77923 0.0
C3458 C 0.80719 0.39246 0.76171 0.0
C3459 C 0.82068 0.4478 0.78164 0.0
C3460 C 0.77272 0.33047 0.75287 0.0
C3461 C 0.77559 0.34678 0.75383 0.0
C3462 C 0.78356 0.3852 0.7812 0.0
C3463 C 0.81551 0.41922 0.77755 0.0
C3464 C 0.80464 0.40399 0.77401 0.0
C3465 C 0.77939 0.35668 0.7685 0.0
C3466 C 0.78666 0.37343 0.76937 0.0
H3467 H 0.85431 0.43337 0.78259 0.0
H3468 H 0.83594 0.40855 0.778 0.0
H3469 H 0.79027 0.40917 0.793 0.0
H3470 H 0.77623 0.32887 0.79213 0.0
H3471 H 0.78155 0.35731 0.79376 0.0
C3472 C 0.05358 0.84105 0.05124 0.0
C3473 C 0.0669 0.84403 0.06186 0.0
C3474 C 0.05317 0.84874 0.03832 0.0
C3475 C 0.07182 0.88488 0.02509 0.0
H3476 H 0.04296 0.86719 0.98835 0.0
C3477 C 0.05258 0.92463 0.98482 0.0
C3478 C 0.03686 0.92499 0.98694 0.0
C3479 C 0.05914 0.91202 0.98834 0.0
C3480 C 0.0513 0.87217 0.99838 0.0
H3481 H 0.09053 0.85705 0.06677 0.0
H3482 H 0.09003 0.87004 0.04382 0.0
H3483 H 0.05015 0.85004 0.00616 0.0
H3484 H 0.01538 0.91131 0.9926 0.0
H3485 H 0.02668 0.88922 0.99797 0.0
H3486 H 0.07265 0.90705 0.01744 0.0
C3487 C 0.07972 0.86202 0.04574 0.0
C3488 C 0.05529 0.86244 0.00869 0.0
C3489 C 0.08006 0.85447 0.05885 0.0
C3490 C 0.02748 0.91155 0.9907 0.0
C3491 C 0.03397 0.89881 0.99385 0.0
C3492 C 0.06808 0.89453 0.0146 0.0
C3493 C 0.06617 0.85944 0.03544 0.0
C3494 C 0.06493 0.86883 0.02263 0.0
C3495 C 0.04999 0.89935 0.99355 0.0
C3496 C 0.05721 0.88839 1.00159 0.0
H3497 H 0.04336 0.83276 0.05289 0.0
H3498 H 0.04241 0.8466 0.03089 0.0
H3499 H 0.07919 0.89031 0.0357 0.0
H3500 H 0.06007 0.93453 0.98143 0.0
H3501 H 0.07152 0.91259 0.98789 0.0
C3502 C 0.91799 0.27744 0.8524 0.0
C3503 C 0.93084 0.28957 0.85281 0.0
C3504 C 0.90458 0.27688 0.84269 0.0
C3505 C 0.88463 0.30163 0.82027 0.0
H3506 H 0.86135 0.26126 0.79901 0.0
C3507 C 0.8358 0.29525 0.7708 0.0
C3508 C 0.8219 0.28534 0.77263 0.0
C3509 C 0.84913 0.29569 0.78058 0.0
C3510 C 0.86771 0.27259 0.80496 0.0
H3511 H 0.93998 0.31042 0.84326 0.0
H3512 H 0.91676 0.30923 0.82597 0.0
H3513 H 0.88469 0.26222 0.81611 0.0
H3514 H 0.81112 0.26738 0.78519 0.0
H3515 H 0.83441 0.26812 0.80238 0.0
H3516 H 0.86777 0.31196 0.80877 0.0
C3517 C 0.9168 0.3004 0.83344 0.0
C3518 C 0.88102 0.27316 0.81481 0.0
C3519 C 0.93012 0.30106 0.84329 0.0
C3520 C 0.8216 0.27546 0.78394 0.0
C3521 C 0.83496 0.27574 0.7936 0.0
C3522 C 0.87142 0.30105 0.81027 0.0
C3523 C 0.90384 0.28833 0.83305 0.0
C3524 C 0.88964 0.28769 0.82261 0.0
C3525 C 0.8488 0.28597 0.7921 0.0
C3526 C 0.86285 0.28654 0.80256 0.0
H3527 H 0.91824 0.26853 0.85976 0.0
H3528 H 0.89473 0.26758 0.8429 0.0
H3529 H 0.89079 0.313 0.82632 0.0
H3530 H 0.83626 0.30283 0.76199 0.0
H3531 H 0.85973 0.30353 0.77908 0.0
C3532 C 0.55618 0.20583 0.55367 0.0
C3533 C 0.57018 0.21427 0.56176 0.0
C3534 C 0.55588 0.19165 0.5436 0.0
C3535 C 0.57768 0.15967 0.54063 0.0
H3536 H 0.54627 0.14061 0.50642 0.0
C3537 C 0.56643 0.09326 0.51786 0.0
C3538 C 0.55077 0.08597 0.51711 0.0
C3539 C 0.57053 0.10958 0.51925 0.0
C3540 C 0.55514 0.14582 0.51592 0.0
H3541 H 0.59502 0.2155 0.56449 0.0
H3542 H 0.59461 0.19088 0.54655 0.0
H3543 H 0.55097 0.16909 0.5153 0.0
H3544 H 0.52709 0.09002 0.51659 0.0
H3545 H 0.5343 0.11853 0.51929 0.0
H3546 H 0.58149 0.13643 0.54167 0.0
C3547 C 0.58379 0.19494 0.54834 0.0
C3548 C 0.55784 0.16209 0.521 0.0
C3549 C 0.58405 0.20904 0.55855 0.0
C3550 C 0.53927 0.09528 0.51724 0.0
C3551 C 0.54338 0.1116 0.51861 0.0
C3552 C 0.57505 0.14346 0.53551 0.0
C3553 C 0.56962 0.18572 0.54133 0.0
C3554 C 0.56879 0.16913 0.53376 0.0
C3555 C 0.55907 0.11893 0.5199 0.0
C3556 C 0.56343 0.13631 0.52344 0.0
H3557 H 0.5453 0.20957 0.55602 0.0
H3558 H 0.54474 0.18481 0.53854 0.0
H3559 H 0.58602 0.16459 0.55067 0.0
H3560 H 0.57558 0.08642 0.51762 0.0
H3561 H 0.58271 0.11491 0.52008 0.0
C3562 C 0.58205 0.77474 0.35783 0.0
C3563 C 0.58225 0.78652 0.37102 0.0
C3564 C 0.59494 0.7746 0.34913 0.0
C3565 C 0.62847 0.80073 0.33892 0.0
H3566 H 0.64437 0.76249 0.32615 0.0
C3567 C 0.6845 0.80157 0.30763 0.0
C3568 C 0.68509 0.78896 0.29556 0.0
C3569 C 0.6722 0.80093 0.31715 0.0
C3570 C 0.63995 0.77323 0.32943 0.0
H3571 H 0.59645 0.80712 0.38561 0.0
H3572 H 0.61881 0.80706 0.37013 0.0
H3573 H 0.62243 0.7619 0.3423 0.0
H3574 H 0.67332 0.76583 0.28394 0.0
H3575 H 0.65152 0.76484 0.30031 0.0
H3576 H 0.64561 0.81203 0.32578 0.0
C3577 C 0.60859 0.798 0.36655 0.0
C3578 C 0.62743 0.77289 0.33873 0.0
C3579 C 0.59576 0.79805 0.37537 0.0
C3580 C 0.67318 0.77566 0.29324 0.0
C3581 C 0.66074 0.77508 0.30267 0.0
C3582 C 0.64085 0.80104 0.32948 0.0
C3583 C 0.60826 0.78633 0.35331 0.0
C3584 C 0.62162 0.78665 0.34359 0.0
C3585 C 0.66009 0.78774 0.31473 0.0
C3586 C 0.6468 0.78731 0.32466 0.0
H3587 H 0.57177 0.76584 0.35395 0.0
H3588 H 0.59433 0.76558 0.33885 0.0
H3589 H 0.62404 0.81146 0.3423 0.0
H3590 H 0.69369 0.81186 0.30983 0.0
H3591 H 0.67227 0.81074 0.32653 0.0
C3592 C 0.03707 0.20668 0.42747 0.0
C3593 C 0.04458 0.22235 0.43269 0.0
C3594 C 0.03285 0.19673 0.43826 0.0
C3595 C 0.04248 0.19053 0.47822 0.0
H3596 H 1.00244 0.16247 0.47152 0.0
C3597 C 0.02546 0.14423 0.51794 0.0
C3598 C 0.01946 0.12906 0.50959 0.0
C3599 C 0.02668 0.15728 0.51027 0.0
C3600 C 0.01367 0.17022 0.47354 0.0
H3601 H 0.05344 0.23986 0.45339 0.0
H3602 H 0.04631 0.22232 0.47223 0.0
H3603 H 0.00864 0.18209 0.45454 0.0
H3604 H 0.00913 0.1157 0.48702 0.0
H3605 H 0.01147 0.1383 0.47361 0.0
H3606 H 0.04775 0.1783 0.49684 0.0
C3607 C 0.04376 0.21778 0.45976 0.0
C3608 C 0.01722 0.18143 0.46382 0.0
C3609 C 0.0479 0.22778 0.44896 0.0
C3610 C 0.014 0.12725 0.49369 0.0
C3611 C 0.01518 0.14024 0.48605 0.0
C3612 C 0.03896 0.17926 0.48791 0.0
C3613 C 0.0361 0.20219 0.45451 0.0
C3614 C 0.03179 0.19144 0.46583 0.0
C3615 C 0.02181 0.15536 0.49416 0.0
C3616 C 0.02466 0.16873 0.48542 0.0
H3617 H 0.03458 0.20203 0.41502 0.0
H3618 H 0.02723 0.18466 0.43386 0.0
H3619 H 0.05384 0.19804 0.47998 0.0
H3620 H 0.02979 0.14595 0.53021 0.0
H3621 H 0.03169 0.16881 0.51687 0.0
C3622 C 0.57099 0.25114 0.18504 0.0
C3623 C 0.56604 0.26546 0.18448 0.0
C3624 C 0.58443 0.25074 0.19425 0.0
C3625 C 0.62125 0.27577 0.2111 0.0
H3626 H 0.62447 0.24173 0.23423 0.0
C3627 C 0.67991 0.2622 0.2313 0.0
C3628 C 0.68185 0.25872 0.24655 0.0
C3629 C 0.66534 0.26341 0.22492 0.0
C3630 C 0.6237 0.25139 0.22796 0.0
H3631 H 0.57111 0.29056 0.19333 0.0
H3632 H 0.59455 0.28984 0.20958 0.0
H3633 H 0.59939 0.24337 0.22152 0.0
H3634 H 0.67 0.25369 0.26705 0.0
H3635 H 0.64441 0.25569 0.25579 0.0
H3636 H 0.64553 0.28379 0.21749 0.0
C3637 C 0.58808 0.27894 0.20278 0.0
C3638 C 0.60939 0.25225 0.22057 0.0
C3639 C 0.57461 0.27934 0.19359 0.0
C3640 C 0.66883 0.25623 0.2552 0.0
C3641 C 0.65421 0.2574 0.24878 0.0
C3642 C 0.63554 0.27489 0.21844 0.0
C3643 C 0.59321 0.26466 0.20308 0.0
C3644 C 0.60807 0.26434 0.21191 0.0
C3645 C 0.65236 0.26113 0.23362 0.0
C3646 C 0.63696 0.26257 0.22675 0.0
H3647 H 0.56449 0.24022 0.1783 0.0
H3648 H 0.58817 0.23957 0.19412 0.0
H3649 H 0.62063 0.28515 0.2044 0.0
H3650 H 0.68966 0.26386 0.22421 0.0
H3651 H 0.66421 0.26596 0.21308 0.0
C3652 C 0.5656 0.87619 0.92382 0.0
C3653 C 0.56178 0.8628 0.93092 0.0
C3654 C 0.56417 0.891 0.93165 0.0
C3655 C 0.55926 0.91316 0.97084 0.0
H3656 H 0.54215 0.94008 0.94564 0.0
C3657 C 0.55351 0.97677 0.99624 0.0
C3658 C 0.54033 0.98214 0.9909 0.0
C3659 C 0.55656 0.96224 0.98929 0.0
C3660 C 0.54679 0.93265 0.95289 0.0
H3661 H 0.55409 0.8546 0.95213 0.0
H3662 H 0.55101 0.88033 0.96555 0.0
H3663 H 0.54692 0.91477 0.93304 0.0
H3664 H 0.51977 0.97633 0.97443 0.0
H3665 H 0.52485 0.95081 0.9626 0.0
H3666 H 0.55851 0.93082 0.9908 0.0
C3667 C 0.55533 0.87944 0.954 0.0
C3668 C 0.54977 0.91823 0.94561 0.0
C3669 C 0.55689 0.86464 0.94622 0.0
C3670 C 0.5301 0.97257 0.9787 0.0
C3671 C 0.53307 0.95798 0.97185 0.0
C3672 C 0.55616 0.92756 0.97815 0.0
C3673 C 0.55875 0.89276 0.94672 0.0
C3674 C 0.55603 0.9083 0.9545 0.0
C3675 C 0.54642 0.95271 0.97695 0.0
C3676 C 0.54984 0.93745 0.96925 0.0
H3677 H 0.56925 0.87521 0.91199 0.0
H3678 H 0.56716 0.90106 0.92581 0.0
H3679 H 0.56423 0.90587 0.97801 0.0
H3680 H 0.56166 0.98393 0.00558 0.0
H3681 H 0.56704 0.95864 0.99337 0.0
C3682 C 0.91918 0.73925 0.69195 0.0
C3683 C 0.92791 0.75401 0.6907 0.0
C3684 C 0.90826 0.73802 0.70305 0.0
C3685 C 0.89611 0.7594 0.73929 0.0
H3686 H 0.85458 0.73821 0.72259 0.0
C3687 C 0.84159 0.7788 0.76104 0.0
C3688 C 0.82773 0.76782 0.76018 0.0
C3689 C 0.85509 0.77398 0.7562 0.0
C3690 C 0.86616 0.74382 0.72763 0.0
H3691 H 0.93253 0.77891 0.70038 0.0
H3692 H 0.91334 0.77681 0.71959 0.0
H3693 H 0.87625 0.73553 0.70671 0.0
H3694 H 0.8174 0.74298 0.75469 0.0
H3695 H 0.8411 0.73454 0.74619 0.0
H3696 H 0.8859 0.76825 0.75995 0.0
C3697 C 0.91499 0.76619 0.71211 0.0
C3698 C 0.87857 0.74231 0.7185 0.0
C3699 C 0.9258 0.76743 0.70096 0.0
C3700 C 0.82789 0.75175 0.75537 0.0
C3701 C 0.84143 0.74691 0.75046 0.0
C3702 C 0.8837 0.76086 0.74845 0.0
C3703 C 0.90601 0.7515 0.71317 0.0
C3704 C 0.89355 0.7506 0.72399 0.0
C3705 C 0.85504 0.75805 0.75038 0.0
C3706 C 0.86851 0.75361 0.74245 0.0
H3707 H 0.92057 0.72872 0.68414 0.0
H3708 H 0.9015 0.72656 0.70364 0.0
H3709 H 0.90761 0.76567 0.74392 0.0
H3710 H 0.84189 0.79126 0.76483 0.0
H3711 H 0.86531 0.78289 0.75613 0.0
C3712 C 0.10776 1.00443 0.85725 0.0
C3713 C 0.11328 0.01779 0.85036 0.0
C3714 C 0.10045 1.00559 0.87157 0.0
C3715 C 0.08263 0.03408 0.90085 0.0
H3716 H 0.08374 1.00236 0.92725 0.0
C3717 C 0.05941 0.04091 0.9645 0.0
C3718 C 0.05279 0.02737 0.97054 0.0
C3719 C 0.06651 0.03983 0.95004 0.0
C3720 C 0.08306 0.01133 0.92006 0.0
H3721 H 0.11466 0.04313 0.85414 0.0
H3722 H 0.10265 0.04517 0.87882 0.0
H3723 H 0.09621 1.00039 0.90275 0.0
H3724 H 0.04884 1.00189 0.96533 0.0
H3725 H 0.06098 1.00001 0.94052 0.0
H3726 H 0.06961 0.04509 0.91834 0.0
C3727 C 0.10373 0.03356 0.87306 0.0
C3728 C 0.09032 0.01017 0.90572 0.0
C3729 C 0.11099 0.03239 0.85872 0.0
C3730 C 0.05366 0.0127 0.96136 0.0
C3731 C 0.06085 0.01162 0.94698 0.0
C3732 C 0.07544 0.03528 0.91525 0.0
C3733 C 0.09822 0.0202 0.87996 0.0
C3734 C 0.09032 0.02149 0.89563 0.0
C3735 C 0.06751 0.02515 0.94089 0.0
C3736 C 0.07541 0.02392 0.92527 0.0
H3737 H 0.10923 0.99287 0.85171 0.0
H3738 H 0.09638 0.99481 0.87593 0.0
H3739 H 0.08186 0.04304 0.89369 0.0
H3740 H 0.05919 0.05248 0.97101 0.0
H3741 H 0.07152 0.05066 0.94622 0.0
C3742 C 0.76507 0.37335 0.56583 0.0
C3743 C 0.77138 0.38955 0.56872 0.0
C3744 C 0.76665 0.3641 0.57742 0.0
C3745 C 0.77511 0.36676 0.62043 0.0
H3746 H 0.78264 0.32434 0.60841 0.0
C3747 C 0.78906 0.32837 0.66623 0.0
C3748 C 0.78119 0.31263 0.6634 0.0
C3749 C 0.78847 0.33787 0.65468 0.0
C3750 C 0.78043 0.33612 0.61194 0.0
H3751 H 0.78416 0.40871 0.58622 0.0
H3752 H 0.78728 0.39251 0.60624 0.0
H3753 H 0.78041 0.34071 0.58832 0.0
H3754 H 0.76641 0.29461 0.64617 0.0
H3755 H 0.76558 0.31109 0.62602 0.0
H3756 H 0.77522 0.36214 0.64408 0.0
C3757 C 0.78092 0.38699 0.59508 0.0
C3758 C 0.77911 0.3455 0.60042 0.0
C3759 C 0.7793 0.39625 0.58351 0.0
C3760 C 0.77287 0.30658 0.64867 0.0
C3761 C 0.77234 0.31604 0.63711 0.0
C3762 C 0.77651 0.3574 0.63196 0.0
C3763 C 0.77463 0.37079 0.59218 0.0
C3764 C 0.77634 0.36091 0.6045 0.0
C3765 C 0.78006 0.33181 0.64001 0.0
C3766 C 0.7791 0.34194 0.62783 0.0
H3767 H 0.75906 0.36774 0.55452 0.0
H3768 H 0.76148 0.35171 0.57483 0.0
H3769 H 0.77275 0.37847 0.62398 0.0
H3770 H 0.79577 0.33336 0.67734 0.0
H3771 H 0.7947 0.34992 0.65719 0.0
C3772 C 0.45951 0.05495 0.36085 0.0
C3773 C 0.44406 0.04718 0.36046 0.0
C3774 C 0.46927 0.05775 0.37476 0.0
C3775 C 0.46949 0.05878 0.41778 0.0
H3776 H 0.50793 0.04308 0.41373 0.0
C3777 C 0.50025 0.03868 0.469 0.0
C3778 C 0.51653 0.0422 0.47114 0.0
C3779 C 0.49243 0.04185 0.45571 0.0
C3780 C 0.49739 0.04779 0.41507 0.0
H3781 H 0.4264 0.03707 0.37434 0.0
H3782 H 0.44338 0.04194 0.39859 0.0
H3783 H 0.49234 0.04518 0.39014 0.0
H3784 H 0.53738 0.0518 0.46096 0.0
H3785 H 0.52365 0.05735 0.4377 0.0
H3786 H 0.47432 0.06101 0.44267 0.0
C3787 C 0.448 0.04589 0.38824 0.0
C3788 C 0.48848 0.04902 0.40156 0.0
C3789 C 0.43832 0.04297 0.37434 0.0
C3790 C 0.52483 0.04887 0.45963 0.0
C3791 C 0.51698 0.05204 0.4463 0.0
C3792 C 0.47841 0.0576 0.43127 0.0
C3793 C 0.46366 0.05299 0.38851 0.0
C3794 C 0.47423 0.05412 0.40278 0.0
C3795 C 0.50069 0.04863 0.44425 0.0
C3796 C 0.49224 0.05167 0.43004 0.0
H3797 H 0.4642 0.05825 0.35026 0.0
H3798 H 0.48128 0.06333 0.37469 0.0
H3799 H 0.45867 0.06297 0.41906 0.0
H3800 H 0.49348 0.03352 0.47762 0.0
H3801 H 0.47989 0.03879 0.45433 0.0
C3802 C 0.79391 0.73239 0.09254 0.0
C3803 C 0.78122 0.7333 0.08229 0.0
C3804 C 0.79471 0.73867 0.10856 0.0
C3805 C 0.76957 0.75006 0.13969 0.0
H3806 H 0.80877 0.76906 0.16372 0.0
C3807 C 0.77321 0.77756 0.20548 0.0
C3808 C 0.78455 0.77349 0.21541 0.0
C3809 C 0.77317 0.77391 0.18911 0.0
C3810 C 0.79775 0.7637 0.15717 0.0
H3811 H 0.75971 0.74207 0.08071 0.0
H3812 H 0.76121 0.75328 0.1086 0.0
H3813 H 0.80808 0.76077 0.1353 0.0
H3814 H 0.80495 0.76268 0.21584 0.0
H3815 H 0.80485 0.75634 0.1873 0.0
H3816 H 0.75925 0.75299 0.16157 0.0
C3817 C 0.77039 0.74738 0.10435 0.0
C3818 C 0.79735 0.75892 0.14088 0.0
C3819 C 0.76954 0.74101 0.08835 0.0
C3820 C 0.79602 0.76597 0.20856 0.0
C3821 C 0.79603 0.76241 0.19219 0.0
C3822 C 0.76996 0.75492 0.15594 0.0
C3823 C 0.78287 0.74609 0.11471 0.0
C3824 C 0.78326 0.75191 0.13194 0.0
C3825 C 0.78451 0.7662 0.18228 0.0
C3826 C 0.78407 0.76168 0.1649 0.0
H3827 H 0.80298 0.72632 0.08829 0.0
H3828 H 0.80438 0.73722 0.11619 0.0
H3829 H 0.75855 0.74446 0.13326 0.0
H3830 H 0.76421 0.78338 0.21032 0.0
H3831 H 0.76424 0.77713 0.18178 0.0
C3832 C 0.11571 0.02789 0.68132 0.0
C3833 C 0.11254 0.01385 0.68775 0.0
C3834 C 0.10865 0.02928 0.66653 0.0
C3835 C 0.08657 1.00531 0.6286 0.0
H3836 H 0.07768 0.04559 0.62161 0.0
C3837 C 0.06485 0.01549 0.56544 0.0
C3838 C 0.0546 0.02607 0.56404 0.0
C3839 C 0.07163 0.01389 0.5803 0.0
C3840 C 0.07992 0.03415 0.62322 0.0
H3841 H 0.09877 0.99022 0.68264 0.0
H3842 H 0.08681 0.99257 0.65716 0.0
H3843 H 0.08943 0.04302 0.64713 0.0
H3844 H 0.0437 0.04326 0.57792 0.0
H3845 H 0.05536 0.04053 0.60352 0.0
H3846 H 0.07691 0.99641 0.60473 0.0
C3847 C 0.09497 1.0026 0.66355 0.0
C3848 C 0.08694 0.0327 0.63802 0.0
C3849 C 0.10196 1.00123 0.67841 0.0
C3850 C 0.05147 0.03498 0.57824 0.0
C3851 C 0.05834 0.03346 0.59309 0.0
C3852 C 0.07966 0.00679 0.61376 0.0
C3853 C 0.09808 0.01668 0.65721 0.0
C3854 C 0.09045 0.01824 0.64114 0.0
C3855 C 0.06862 0.02287 0.59454 0.0
C3856 C 0.07612 0.02125 0.61065 0.0
H3857 H 0.12393 0.03793 0.68758 0.0
H3858 H 0.11179 0.0403 0.66227 0.0
H3859 H 0.08907 0.99395 0.63012 0.0
H3860 H 0.06771 0.00835 0.55498 0.0
H3861 H 0.07952 1.00571 0.58052 0.0
C3862 C 0.75903 0.36873 0.42307 0.0
C3863 C 0.76772 0.38416 0.42597 0.0
C3864 C 0.76067 0.35819 0.40952 0.0
C3865 C 0.7749 0.3571 0.36972 0.0
H3866 H 0.77729 0.31375 0.37231 0.0
C3867 C 0.79666 0.31812 0.31949 0.0
C3868 C 0.78801 0.30287 0.31433 0.0
C3869 C 0.79401 0.32706 0.3336 0.0
C3870 C 0.7765 0.32578 0.37138 0.0
H3871 H 0.78462 0.40068 0.41659 0.0
H3872 H 0.78769 0.38234 0.39328 0.0
H3873 H 0.77237 0.33137 0.39569 0.0
H3874 H 0.77029 0.28478 0.32044 0.0
H3875 H 0.7657 0.30048 0.34525 0.0
H3876 H 0.77918 0.35163 0.34553 0.0
C3877 C 0.7795 0.37835 0.40136 0.0
C3878 C 0.77364 0.33588 0.38476 0.0
C3879 C 0.77788 0.38884 0.41486 0.0
C3880 C 0.77719 0.29647 0.32408 0.0
C3881 C 0.77454 0.30546 0.33829 0.0
C3882 C 0.7778 0.34706 0.35643 0.0
C3883 C 0.77097 0.36287 0.39851 0.0
C3884 C 0.77302 0.35174 0.38414 0.0
C3885 C 0.78264 0.32103 0.34297 0.0
C3886 C 0.77886 0.33134 0.35712 0.0
H3887 H 0.7512 0.36469 0.43144 0.0
H3888 H 0.75381 0.34641 0.40764 0.0
H3889 H 0.77413 0.36911 0.36868 0.0
H3890 H 0.8052 0.32339 0.31239 0.0
H3891 H 0.80071 0.33886 0.33704 0.0
C3892 C 0.45169 0.99261 0.21366 0.0
C3893 C 0.43606 0.99425 0.21336 0.0
C3894 C 0.45914 0.9914 0.19977 0.0
C3895 C 0.47009 0.98308 0.16688 0.0
H3896 H 0.46486 0.01597 0.14281 0.0
C3897 C 0.49748 0.98993 0.10807 0.0
C3898 C 0.5052 1.00523 0.10729 0.0
C3899 C 0.4885 0.98716 0.12054 0.0
C3900 C 0.4664 0.00672 0.14941 0.0
H3901 H 0.41582 0.99529 0.19826 0.0
H3902 H 0.42884 0.99314 0.17401 0.0
H3903 H 0.44973 0.01267 0.16527 0.0
H3904 H 0.50954 0.02962 0.11877 0.0
H3905 H 0.49373 0.02482 0.1405 0.0
H3906 H 0.48699 0.97733 0.15107 0.0
C3907 C 0.43531 0.99283 0.18499 0.0
C3908 C 0.45765 1.00472 0.16215 0.0
C3909 C 0.42784 0.99392 0.19884 0.0
C3910 C 0.50379 0.01771 0.11916 0.0
C3911 C 0.49466 0.01498 0.1315 0.0
C3912 C 0.47874 0.98496 0.15399 0.0
C3913 C 0.45111 0.99194 0.18538 0.0
C3914 C 0.45953 0.99302 0.17112 0.0
C3915 C 0.48692 0.9997 0.13229 0.0
C3916 C 0.47713 0.99697 0.14531 0.0
H3917 H 0.45825 0.9927 0.22469 0.0
H3918 H 0.47135 0.9908 0.20041 0.0
H3919 H 0.47171 0.97394 0.1736 0.0
H3920 H 0.49849 0.9801 0.0991 0.0
H3921 H 0.48259 0.97529 0.12087 0.0
C3922 C 0.79179 0.73421 0.92424 0.0
C3923 C 0.77913 0.72275 0.92648 0.0
C3924 C 0.79267 0.7399 0.90999 0.0
C3925 C 0.7782 0.72929 0.86805 0.0
H3926 H 0.79114 0.77385 0.86748 0.0
C3927 C 0.77333 0.75531 0.81099 0.0
C3928 C 0.78532 0.76741 0.80861 0.0
C3929 C 0.77285 0.74993 0.82539 0.0
C3930 C 0.7877 0.76135 0.86741 0.0
H3931 H 0.75749 0.70824 0.91545 0.0
H3932 H 0.75895 0.71828 0.89067 0.0
H3933 H 0.78974 0.76448 0.89261 0.0
H3934 H 0.80633 0.78321 0.81951 0.0
H3935 H 0.80562 0.77365 0.84456 0.0
H3936 H 0.77625 0.7261 0.84289 0.0
C3937 C 0.76824 0.7228 0.89991 0.0
C3938 C 0.78688 0.75598 0.88183 0.0
C3939 C 0.76732 0.71718 0.91417 0.0
C3940 C 0.79689 0.77392 0.82096 0.0
C3941 C 0.79643 0.7685 0.83536 0.0
C3942 C 0.77909 0.73464 0.85365 0.0
C3943 C 0.78096 0.73417 0.89762 0.0
C3944 C 0.78204 0.7399 0.88232 0.0
C3945 C 0.78439 0.75645 0.83777 0.0
C3946 C 0.78378 0.75074 0.85313 0.0
H3947 H 0.80101 0.73883 0.93353 0.0
H3948 H 0.80267 0.74858 0.90856 0.0
H3949 H 0.77469 0.71679 0.86802 0.0
H3950 H 0.76419 0.75004 0.80177 0.0
H3951 H 0.76328 0.7408 0.82689 0.0
C3952 C 0.87549 0.07238 0.02101 0.0
C3953 C 0.87396 0.08743 0.01815 0.0
C3954 C 0.88956 0.06707 0.01927 0.0
C3955 C 0.9277 0.07587 1.00178 0.0
H3956 H 0.93981 0.04808 0.02905 0.0
C3957 C 0.98959 0.06024 0.00686 0.0
C3958 C 0.99036 0.04443 0.00755 0.0
C3959 C 0.97532 0.06539 0.00718 0.0
C3960 C 0.93654 0.05573 0.02124 0.0
H3961 H 0.88623 0.10883 0.01158 0.0
H3962 H 0.9108 0.09985 0.00901 0.0
H3963 H 0.91541 0.05733 0.03196 0.0
H3964 H 0.9765 0.02161 0.00877 0.0
H3965 H 0.95182 0.03061 0.00944 0.0
H3966 H 0.94917 0.07453 0.99141 0.0
C3967 C 0.90105 0.09186 0.01211 0.0
C3968 C 0.92247 0.06102 0.02285 0.0
C3969 C 0.88692 0.09708 0.01366 0.0
C3970 C 0.97643 0.03386 0.00817 0.0
C3971 C 0.96224 0.03904 0.0087 0.0
C3972 C 0.94189 0.07073 1.00032 0.0
C3973 C 0.90261 0.07674 0.01483 0.0
C3974 C 0.91775 0.07113 0.01311 0.0
C3975 C 0.96151 0.05491 0.00843 0.0
C3976 C 0.94646 0.06053 0.00997 0.0
H3977 H 0.8657 0.06456 0.02431 0.0
H3978 H 0.8901 0.05525 0.0212 0.0
H3979 H 0.92446 0.08339 0.99383 0.0
H3980 H 1.00004 0.06874 0.00641 0.0
H3981 H 0.97519 0.07771 0.00701 0.0
C3982 C 0.37428 0.44402 0.03122 0.0
C3983 C 0.37224 0.42846 0.03402 0.0
C3984 C 0.38913 0.45269 0.0308 0.0
C3985 C 0.43093 0.4541 0.04169 0.0
H3986 H 0.43615 0.48104 0.01003 0.0
C3987 C 0.49085 0.48627 0.02669 0.0
C3988 C 0.4916 0.50206 0.02486 0.0
C3989 C 0.47664 0.47686 0.02847 0.0
C3990 C 0.43486 0.47366 0.01901 0.0
H3991 H 0.38416 0.40982 0.0388 0.0
H3992 H 0.41017 0.42488 0.03782 0.0
H3993 H 0.41077 0.46544 0.0119 0.0
H3994 H 0.47802 0.5204 0.02381 0.0
H3995 H 0.4534 0.50403 0.02684 0.0
H3996 H 0.45521 0.46229 0.04859 0.0
C3997 C 0.40029 0.43049 0.0362 0.0
C3998 C 0.42029 0.46475 0.02013 0.0
C3999 C 0.3854 0.42184 0.03674 0.0
C4000 C 0.47791 0.50828 0.02513 0.0
C4001 C 0.46375 0.49888 0.02678 0.0
C4002 C 0.44558 0.46297 0.04048 0.0
C4003 C 0.40233 0.44596 0.03302 0.0
C4004 C 0.41807 0.455 0.03162 0.0
C4005 C 0.46291 0.48303 0.02829 0.0
C4006 C 0.44763 0.47299 0.02925 0.0
H4007 H 0.36436 0.44952 0.02935 0.0
H4008 H 0.39025 0.4647 0.02872 0.0
H4009 H 0.42962 0.44682 0.05075 0.0
H4010 H 0.50119 0.48111 0.02657 0.0
H4011 H 0.47632 0.46465 0.02957 0.0
C4012 C 0.35445 0.62686 0.75723 0.0
C4013 C 0.36933 0.62726 0.76482 0.0
C4014 C 0.34757 0.64051 0.75777 0.0
C4015 C 0.35612 0.68605 0.77069 0.0
H4016 H 0.3119 0.68125 0.76098 0.0
C4017 C 0.32681 0.74237 0.76861 0.0
C4018 C 0.31069 0.74155 0.76976 0.0
C4019 C 0.33389 0.72883 0.76804 0.0
C4020 C 0.32427 0.68315 0.76397 0.0
H4021 H 0.38823 0.64384 0.77899 0.0
H4022 H 0.37628 0.66682 0.78045 0.0
H4023 H 0.3236 0.65819 0.76049 0.0
H4024 H 0.28971 0.72496 0.7714 0.0
H4025 H 0.30177 0.70195 0.77101 0.0
H4026 H 0.35669 0.71102 0.77477 0.0
C4027 C 0.36984 0.65594 0.77368 0.0
C4028 C 0.33121 0.66954 0.76342 0.0
C4029 C 0.37678 0.64232 0.77303 0.0
C4030 C 0.3021 0.72644 0.77047 0.0
C4031 C 0.30917 0.71294 0.77008 0.0
C4032 C 0.34916 0.69967 0.77139 0.0
C4033 C 0.35499 0.65555 0.76605 0.0
C4034 C 0.3474 0.67048 0.76672 0.0
C4035 C 0.32531 0.71361 0.76874 0.0
C4036 C 0.33298 0.69872 0.76803 0.0
H4037 H 0.34781 0.61589 0.75086 0.0
H4038 H 0.33633 0.6391 0.7514 0.0
H4039 H 0.36856 0.68794 0.77318 0.0
H4040 H 0.33406 0.75354 0.76787 0.0
H4041 H 0.3462 0.73043 0.76676 0.0
C4042 C 0.20838 0.57768 0.52979 0.0
C4043 C 0.21638 0.57997 0.51643 0.0
C4044 C 0.19224 0.57297 0.52848 0.0
C4045 C 0.15799 0.5551 0.50003 0.0
H4046 H 0.13559 0.57517 0.53231 0.0
C4047 C 0.09056 0.54604 0.49563 0.0
C4048 C 0.08337 0.54424 0.50956 0.0
C4049 C 0.10673 0.55054 0.496 0.0
C4050 C 0.14164 0.56931 0.52327 0.0
H4051 H 0.21351 0.57878 0.49112 0.0
H4052 H 0.18535 0.57051 0.48884 0.0
H4053 H 0.16374 0.58217 0.53381 0.0
H4054 H 0.08771 0.54585 0.53483 0.0
H4055 H 0.1157 0.55351 0.53543 0.0
H4056 H 0.13582 0.54222 0.48951 0.0
C4057 C 0.19161 0.57223 0.50034 0.0
C4058 C 0.15783 0.57332 0.52414 0.0
C4059 C 0.2078 0.57695 0.50165 0.0
C4060 C 0.09277 0.54716 0.52385 0.0
C4061 C 0.10888 0.55166 0.52422 0.0
C4062 C 0.14176 0.55108 0.49916 0.0
C4063 C 0.18358 0.5704 0.51378 0.0
C4064 C 0.16626 0.5662 0.51261 0.0
C4065 C 0.11611 0.55339 0.51031 0.0
C4066 C 0.13337 0.55805 0.51084 0.0
H4067 H 0.21461 0.57961 0.54132 0.0
H4068 H 0.18653 0.57133 0.53905 0.0
H4069 H 0.16408 0.54926 0.49101 0.0
H4070 H 0.08372 0.54392 0.48441 0.0
H4071 H 0.11186 0.55192 0.48508 0.0
C4072 C 0.72202 0.98153 0.7831 0.0
C4073 C 0.70608 0.97639 0.77862 0.0
C4074 C 0.73154 0.97075 0.78531 0.0
C4075 C 0.73426 0.92966 0.77261 0.0
H4076 H 0.7666 0.93766 0.80697 0.0
C4077 C 0.7818 0.89262 0.77272 0.0
C4078 C 0.78452 0.88675 0.78666 0.0
C4079 C 0.77305 0.90442 0.77252 0.0
C4080 C 0.75759 0.93527 0.79735 0.0
H4081 H 0.68756 0.95592 0.77341 0.0
H4082 H 0.70428 0.93702 0.77712 0.0
H4083 H 0.74877 0.95607 0.80577 0.0
H4084 H 0.78078 0.88911 0.81148 0.0
H4085 H 0.76558 0.90989 0.81115 0.0
H4086 H 0.74297 0.90885 0.76421 0.0
C4087 C 0.70938 0.94943 0.7788 0.0
C4088 C 0.74745 0.94582 0.79662 0.0
C4089 C 0.69982 0.96023 0.77666 0.0
C4090 C 0.779 0.89351 0.80059 0.0
C4091 C 0.77027 0.90537 0.8004 0.0
C4092 C 0.74443 0.91918 0.77329 0.0
C4093 C 0.72536 0.95458 0.78299 0.0
C4094 C 0.73571 0.94312 0.78421 0.0
C4095 C 0.76687 0.91063 0.78627 0.0
C4096 C 0.75623 0.92191 0.78562 0.0
H4097 H 0.72728 0.99386 0.7844 0.0
H4098 H 0.74385 0.97504 0.7883 0.0
H4099 H 0.72543 0.92737 0.76282 0.0
H4100 H 0.78615 0.88782 0.76187 0.0
H4101 H 0.77088 0.9085 0.76154 0.0
C4102 C 0.71189 0.91896 0.5122 0.0
C4103 C 0.72527 0.92617 0.52222 0.0
C4104 C 0.69986 0.92712 0.50996 0.0
C4105 C 0.68217 0.95952 0.52816 0.0
H4106 H 0.66578 0.95992 0.48559 0.0
C4107 C 0.63944 0.99983 0.51508 0.0
C4108 C 0.6277 0.99412 0.50276 0.0
C4109 C 0.6512 0.99139 0.51752 0.0
C4110 C 0.67002 0.95974 0.49757 0.0
H4111 H 0.73638 0.94772 0.53773 0.0
H4112 H 0.71513 0.96175 0.53414 0.0
H4113 H 0.68639 0.94531 0.48988 0.0
H4114 H 0.61887 0.97498 0.48353 0.0
H4115 H 0.63915 0.96 0.48801 0.0
H4116 H 0.66564 0.97364 0.53594 0.0
C4117 C 0.71403 0.94976 0.52804 0.0
C4118 C 0.68188 0.95141 0.5 0.0
C4119 C 0.72617 0.94168 0.53013 0.0
C4120 C 0.62789 0.97974 0.493 0.0
C4121 C 0.63955 0.9712 0.49555 0.0
C4122 C 0.67017 0.9677 0.52575 0.0
C4123 C 0.70082 0.9426 0.51784 0.0
C4124 C 0.68811 0.95128 0.51531 0.0
C4125 C 0.65141 0.97694 0.50781 0.0
C4126 C 0.66399 0.96798 0.51041 0.0
H4127 H 0.71059 0.90694 0.50617 0.0
H4128 H 0.6897 0.92125 0.5022 0.0
H4129 H 0.68664 0.95945 0.5401 0.0
H4130 H 0.63969 0.01099 0.52266 0.0
H4131 H 0.66027 0.99636 0.52688 0.0
C4132 C 0.34799 0.45647 0.76104 0.0
C4133 C 0.36392 0.46072 0.75886 0.0
C4134 C 0.34098 0.4407 0.76157 0.0
C4135 C 0.34708 0.39827 0.75185 0.0
H4136 H 0.31315 0.38985 0.77783 0.0
C4137 C 0.32136 0.3335 0.76079 0.0
C4138 C 0.30555 0.32942 0.7634 0.0
C4139 C 0.3284 0.34925 0.7602 0.0
C4140 C 0.32246 0.3918 0.77029 0.0
H4141 H 0.38474 0.45079 0.75589 0.0
H4142 H 0.37268 0.42375 0.75672 0.0
H4143 H 0.3251 0.41692 0.77685 0.0
H4144 H 0.28494 0.33941 0.76734 0.0
H4145 H 0.29695 0.36644 0.76611 0.0
H4146 H 0.34442 0.37316 0.74524 0.0
C4147 C 0.36542 0.43258 0.75775 0.0
C4148 C 0.32942 0.40756 0.76972 0.0
C4149 C 0.37244 0.44834 0.75726 0.0
C4150 C 0.29711 0.34183 0.76536 0.0
C4151 C 0.30414 0.35756 0.76476 0.0
C4152 C 0.3401 0.38249 0.75239 0.0
C4153 C 0.3495 0.42832 0.75993 0.0
C4154 C 0.34192 0.41123 0.7605 0.0
C4155 C 0.31999 0.36172 0.7622 0.0
C4156 C 0.32759 0.37882 0.76162 0.0
H4157 H 0.34074 0.4653 0.76209 0.0
H4158 H 0.32869 0.43821 0.763 0.0
H4159 H 0.35641 0.40024 0.74433 0.0
H4160 H 0.32841 0.32449 0.75926 0.0
H4161 H 0.34062 0.35163 0.75842 0.0
C4162 C 0.24095 0.60327 0.2374 0.0
C4163 C 0.23805 0.59703 0.25115 0.0
C4164 C 0.25143 0.61739 0.23813 0.0
C4165 C 0.26513 0.653 0.26715 0.0
H4166 H 0.28734 0.66724 0.23298 0.0
C4167 C 0.28796 0.71841 0.26923 0.0
C4168 C 0.28364 0.72411 0.25561 0.0
C4169 C 0.28712 0.70231 0.2689 0.0
C4170 C 0.28122 0.6634 0.24264 0.0
H4171 H 0.24467 0.59948 0.27606 0.0
H4172 H 0.26348 0.62383 0.27731 0.0
H4173 H 0.27788 0.63908 0.23204 0.0
H4174 H 0.2759 0.71747 0.23075 0.0
H4175 H 0.27407 0.68932 0.23028 0.0
H4176 H 0.26786 0.67718 0.27748 0.0
C4177 C 0.25737 0.6182 0.26605 0.0
C4178 C 0.27582 0.6473 0.2421 0.0
C4179 C 0.24671 0.60424 0.26536 0.0
C4180 C 0.27923 0.71344 0.24146 0.0
C4181 C 0.27832 0.69731 0.24115 0.0
C4182 C 0.27056 0.669 0.26771 0.0
C4183 C 0.25926 0.62536 0.25262 0.0
C4184 C 0.26736 0.64196 0.25418 0.0
C4185 C 0.28185 0.69155 0.25497 0.0
C4186 C 0.27831 0.67443 0.25528 0.0
H4187 H 0.23427 0.59787 0.22636 0.0
H4188 H 0.2525 0.62261 0.22759 0.0
H4189 H 0.25838 0.64941 0.27651 0.0
H4190 H 0.29163 0.72634 0.28028 0.0
H4191 H 0.29016 0.69824 0.27967 0.0
C4192 C 0.50911 0.71535 0.4597 0.0
C4193 C 0.4952 0.72064 0.45677 0.0
C4194 C 0.51038 0.70574 0.47093 0.0
C4195 C 0.48759 0.67864 0.49317 0.0
H4196 H 0.52763 0.68378 0.51661 0.0
C4197 C 0.50928 0.62813 0.51637 0.0
C4198 C 0.52103 0.63129 0.52878 0.0
C4199 C 0.5032 0.64037 0.51135 0.0
C4200 C 0.51622 0.68232 0.51052 0.0
H4201 H 0.47161 0.71974 0.46326 0.0
H4202 H 0.47399 0.70319 0.48325 0.0
H4203 H 0.52294 0.70299 0.50048 0.0
H4204 H 0.53463 0.64946 0.54663 0.0
H4205 H 0.52361 0.6709 0.53822 0.0
H4206 H 0.48085 0.65799 0.50335 0.0
C4207 C 0.48385 0.7064 0.47668 0.0
C4208 C 0.51363 0.69323 0.501 0.0
C4209 C 0.48253 0.71596 0.46531 0.0
C4210 C 0.52571 0.64677 0.5369 0.0
C4211 C 0.51945 0.65902 0.53202 0.0
C4212 C 0.49011 0.6678 0.50287 0.0
C4213 C 0.49786 0.70131 0.47971 0.0
C4214 C 0.49954 0.69115 0.49171 0.0
C4215 C 0.50862 0.65604 0.51873 0.0
C4216 C 0.50468 0.66916 0.51118 0.0
H4217 H 0.5192 0.71891 0.45358 0.0
H4218 H 0.52124 0.70175 0.47269 0.0
H4219 H 0.47657 0.67672 0.48622 0.0
H4220 H 0.50557 0.61633 0.50978 0.0
H4221 H 0.49506 0.63757 0.50096 0.0
C4222 C 0.63485 0.24667 0.68806 0.0
C4223 C 0.62159 0.25206 0.69337 0.0
C4224 C 0.64553 0.2427 0.69856 0.0
C4225 C 0.66179 0.25404 0.73863 0.0
H4226 H 0.68345 0.21945 0.72752 0.0
C4227 C 0.7221 0.25612 0.76825 0.0
C4228 C 0.7329 0.25398 0.75707 0.0
C4229 C 0.7062 0.25123 0.76392 0.0
C4230 C 0.67746 0.2291 0.73088 0.0
H4231 H 0.60891 0.25685 0.71392 0.0
H4232 H 0.62803 0.2505 0.7324 0.0
H4233 H 0.65896 0.21973 0.71282 0.0
H4234 H 0.73555 0.24373 0.73301 0.0
H4235 H 0.70806 0.23554 0.72545 0.0
H4236 H 0.68079 0.26409 0.75583 0.0
C4237 C 0.62998 0.24928 0.72002 0.0
C4238 C 0.66345 0.22924 0.72249 0.0
C4239 C 0.61914 0.25305 0.70945 0.0
C4240 C 0.72755 0.24577 0.74187 0.0
C4241 C 0.71173 0.24088 0.73758 0.0
C4242 C 0.67588 0.25399 0.74693 0.0
C4243 C 0.64334 0.2442 0.71467 0.0
C4244 C 0.65587 0.24206 0.72584 0.0
C4245 C 0.70084 0.24404 0.74837 0.0
C4246 C 0.68423 0.2419 0.74262 0.0
H4247 H 0.63732 0.24604 0.67585 0.0
H4248 H 0.6559 0.23915 0.69416 0.0
H4249 H 0.65621 0.26411 0.74141 0.0
H4250 H 0.72585 0.2623 0.7801 0.0
H4251 H 0.69809 0.25365 0.77255 0.0
C4252 C 0.03364 0.38612 0.94811 0.0
C4253 C 0.03198 0.37257 0.95515 0.0
C4254 C 0.0358 0.40102 0.95735 0.0
C4255 C 0.04624 0.43177 0.97999 0.0
H4256 H 0.01629 0.43627 0.01091 0.0
C4257 C 0.04131 0.49234 0.01397 0.0
C4258 C 0.02617 0.49539 0.01374 0.0
C4259 C 0.04386 0.47706 0.00947 0.0
C4260 C 0.02475 0.43517 1.00236 0.0
H4261 H 0.03222 0.3641 0.97747 0.0
H4262 H 0.03575 0.39022 0.99362 0.0
H4263 H 0.0184 0.41006 0.99767 0.0
H4264 H 1.00177 0.48499 0.00982 0.0
H4265 H 0.00614 0.45814 1.00182 0.0
H4266 H 0.05214 0.4569 0.98416 0.0
C4267 C 0.03524 0.38923 0.98093 0.0
C4268 C 0.02609 0.42018 0.99491 0.0
C4269 C 0.03317 0.3743 0.97168 0.0
C4270 C 0.01355 0.48287 0.0099 0.0
C4271 C 0.01608 0.46754 1.00543 0.0
C4272 C 0.04496 0.44675 0.98749 0.0
C4273 C 0.03629 0.4027 0.97383 0.0
C4274 C 0.03656 0.41836 0.98336 0.0
C4275 C 0.03127 0.46454 1.00485 0.0
C4276 C 0.03393 0.44861 0.99845 0.0
H4277 H 0.03254 0.38523 0.93543 0.0
H4278 H 0.03635 0.41118 0.95155 0.0
H4279 H 0.05451 0.43068 0.97122 0.0
H4280 H 0.05119 0.50178 0.01762 0.0
H4281 H 0.05568 0.47506 0.00947 0.0
C4282 C 0.98523 0.77615 0.17582 0.0
C4283 C 0.98728 0.78671 0.16512 0.0
C4284 C 0.97276 0.77562 0.18513 0.0
C4285 C 0.94293 0.79819 0.19967 0.0
H4286 H 0.92239 0.75742 0.20727 0.0
C4287 C 0.88391 0.78759 0.2265 0.0
C4288 C 0.88289 0.77831 0.23845 0.0
C4289 C 0.89694 0.78916 0.21795 0.0
C4290 C 0.9281 0.76889 0.20535 0.0
H4291 H 0.97798 0.80502 0.15573 0.0
H4292 H 0.95589 0.80387 0.17172 0.0
H4293 H 0.94442 0.75909 0.19134 0.0
H4294 H 0.89501 0.76378 0.25103 0.0
H4295 H 0.91758 0.76624 0.23581 0.0
H4296 H 0.92626 0.80787 0.21343 0.0
C4297 C 0.9641 0.79622 0.17319 0.0
C4298 C 0.94076 0.76988 0.19627 0.0
C4299 C 0.97671 0.79686 0.16399 0.0
C4300 C 0.89527 0.77076 0.24171 0.0
C4301 C 0.90822 0.7722 0.23305 0.0
C4302 C 0.93015 0.79717 0.20862 0.0
C4303 C 0.96194 0.78553 0.18382 0.0
C4304 C 0.94838 0.78454 0.19338 0.0
C4305 C 0.90915 0.78137 0.22106 0.0
C4306 C 0.92267 0.78252 0.21159 0.0
H4307 H 0.99338 0.76838 0.17709 0.0
H4308 H 0.97167 0.7675 0.19343 0.0
H4309 H 0.94866 0.8097 0.19788 0.0
H4310 H 0.87449 0.79336 0.22348 0.0
H4311 H 0.89731 0.79615 0.20864 0.0
C4312 C 0.50758 0.32946 0.07334 0.0
C4313 C 0.50808 0.33335 0.08984 0.0
C4314 C 0.51324 0.34081 0.06436 0.0
C4315 C 0.54042 0.37796 0.06674 0.0
H4316 H 0.51508 0.38398 0.03075 0.0
C4317 C 0.55209 0.43393 0.03909 0.0
C4318 C 0.54795 0.43302 0.02296 0.0
C4319 C 0.54901 0.42059 0.04618 0.0
C4320 C 0.52248 0.38226 0.04054 0.0
H4321 H 0.51465 0.35237 0.10976 0.0
H4322 H 0.52482 0.37209 0.09405 0.0
H4323 H 0.50575 0.36301 0.04529 0.0
H4324 H 0.53817 0.41718 1.00144 0.0
H4325 H 0.53335 0.39375 0.0137 0.0
H4326 H 0.55719 0.39712 0.06203 0.0
C4327 C 0.52012 0.36019 0.08815 0.0
C4328 C 0.51707 0.37029 0.04891 0.0
C4329 C 0.5143 0.3489 0.09712 0.0
C4330 C 0.54154 0.41828 0.01388 0.0
C4331 C 0.53858 0.40489 0.02096 0.0
C4332 C 0.54592 0.38981 0.05826 0.0
C4333 C 0.51969 0.35623 0.0717 0.0
C4334 C 0.52586 0.36823 0.06225 0.0
C4335 C 0.54188 0.40598 0.03728 0.0
C4336 C 0.53689 0.3923 0.04523 0.0
H4337 H 0.50318 0.31753 0.06736 0.0
H4338 H 0.51289 0.33744 0.05171 0.0
H4339 H 0.54753 0.37643 0.07684 0.0
H4340 H 0.5573 0.44506 0.04637 0.0
H4341 H 0.55162 0.42194 0.05879 0.0
C4342 C 0.97793 0.26226 0.31826 0.0
C4343 C 0.99257 0.26158 0.31278 0.0
C4344 C 0.96509 0.2615 0.30774 0.0
C4345 C 0.95513 0.27009 0.26864 0.0
H4346 H 0.91376 0.25272 0.27821 0.0
C4347 C 0.90172 0.29552 0.25304 0.0
C4348 C 0.88686 0.28609 0.25173 0.0
C4349 C 0.91491 0.28921 0.25596 0.0
C4350 C 0.92519 0.25735 0.27503 0.0
H4351 H 0.0051 0.25884 0.29191 0.0
H4352 H 0.98254 0.25742 0.27343 0.0
H4353 H 0.93607 0.2467 0.29219 0.0
H4354 H 0.87439 0.26223 0.25106 0.0
H4355 H 0.89739 0.25113 0.25533 0.0
H4356 H 0.94421 0.2808 0.2515 0.0
C4357 C 0.98108 0.25877 0.28591 0.0
C4358 C 0.93801 0.25408 0.28326 0.0
C4359 C 0.99398 0.25958 0.29648 0.0
C4360 C 0.88562 0.26989 0.25196 0.0
C4361 C 0.89883 0.26354 0.25466 0.0
C4362 C 0.94227 0.27325 0.26027 0.0
C4363 C 0.96653 0.25998 0.29146 0.0
C4364 C 0.95312 0.26093 0.28062 0.0
C4365 C 0.91358 0.27326 0.25742 0.0
C4366 C 0.92714 0.26742 0.26381 0.0
H4367 H 0.9765 0.26409 0.33076 0.0
H4368 H 0.95416 0.26282 0.31248 0.0
H4369 H 0.9666 0.27559 0.26631 0.0
H4370 H 0.90313 0.30797 0.25256 0.0
H4371 H 0.92604 0.29712 0.25806 0.0
C4372 C 0.98841 0.67401 0.58954 0.0
C4373 C 0.99038 0.68673 0.58128 0.0
C4374 C 0.99181 0.65955 0.58292 0.0
C4375 C 0.9991 0.63595 0.54556 0.0
H4376 H 0.02218 0.61577 0.57342 0.0
C4377 C 0.02899 0.58428 0.52272 0.0
C4378 C 0.02686 0.57145 0.53084 0.0
C4379 C 0.0244 0.59832 0.52885 0.0
C4380 C 0.01562 0.62119 0.56554 0.0
H4381 H 0.99679 0.69402 0.55929 0.0
H4382 H 1.00312 0.66885 0.54788 0.0
H4383 H 0.01362 0.64006 0.58381 0.0
H4384 H 0.01854 0.56341 0.55191 0.0
H4385 H 0.01058 0.58796 0.5626 0.0
H4386 H 1.00131 0.61712 0.52725 0.0
C4387 C 0.99879 0.67003 0.55942 0.0
C4388 C 0.01066 0.63507 0.57149 0.0
C4389 C 0.99532 0.6845 0.56602 0.0
C4390 C 0.02036 0.57308 0.54537 0.0
C4391 C 0.01584 0.58715 0.55153 0.0
C4392 C 1.00412 0.62209 0.5396 0.0
C4393 C 0.99737 0.6575 0.56794 0.0
C4394 C 1.00233 0.64259 0.56158 0.0
C4395 C 0.01767 0.59984 0.54325 0.0
C4396 C 0.01242 0.61458 0.54953 0.0
H4397 H 0.98482 0.67535 0.60139 0.0
H4398 H 0.99034 0.65004 0.58968 0.0
H4399 H 0.99255 0.64136 0.53767 0.0
H4400 H 0.03397 0.58342 0.5115 0.0
H4401 H 0.02614 0.608 0.52232 0.0
C4402 C 0.64601 0.8075 0.83557 0.0
C4403 C 0.63268 0.7958 0.83124 0.0
C4404 C 0.65794 0.80899 0.82559 0.0
C4405 C 0.67419 0.78544 0.79395 0.0
H4406 H 0.69956 0.82565 0.7909 0.0
C4407 C 0.72886 0.78795 0.76101 0.0
C4408 C 0.74216 0.79689 0.77009 0.0
C4409 C 0.71411 0.7897 0.7653 0.0
C4410 C 0.69253 0.81435 0.7916 0.0
H4411 H 0.621 0.77699 0.81279 0.0
H4412 H 0.64177 0.77964 0.79529 0.0
H4413 H 0.676 0.82495 0.80472 0.0
H4414 H 0.75042 0.8156 0.78996 0.0
H4415 H 0.72473 0.81852 0.79751 0.0
H4416 H 0.69088 0.77481 0.78129 0.0
C4417 C 0.64317 0.78745 0.80654 0.0
C4418 C 0.67909 0.81394 0.79955 0.0
C4419 C 0.6313 0.78591 0.81656 0.0
C4420 C 0.74041 0.80841 0.78282 0.0
C4421 C 0.72567 0.81018 0.78707 0.0
C4422 C 0.68756 0.78585 0.78598 0.0
C4423 C 0.65672 0.79885 0.81104 0.0
C4424 C 0.66997 0.79947 0.80112 0.0
C4425 C 0.71238 0.80047 0.77868 0.0
C4426 C 0.69706 0.80029 0.78503 0.0
H4427 H 0.6474 0.81522 0.84688 0.0
H4428 H 0.66833 0.81772 0.82952 0.0
H4429 H 0.66757 0.77409 0.79513 0.0
H4430 H 0.72981 0.77906 0.75104 0.0
H4431 H 0.70405 0.78222 0.75848 0.0
C4432 C 0.45567 0.52942 0.67169 0.0
C4433 C 0.45568 0.54418 0.68122 0.0
C4434 C 0.46282 0.52809 0.65727 0.0
C4435 C 0.49075 0.5515 0.63286 0.0
H4436 H 0.47592 0.51575 0.59979 0.0
C4437 C 0.51438 0.54853 0.56969 0.0
C4438 C 0.5151 0.53388 0.56041 0.0
C4439 C 0.5074 0.54961 0.58419 0.0
C4440 C 0.48048 0.52579 0.60885 0.0
H4441 H 0.46394 0.56919 0.68206 0.0
H4442 H 0.47577 0.56693 0.65724 0.0
H4443 H 0.46365 0.51794 0.62444 0.0
H4444 H 0.50859 0.50876 0.55985 0.0
H4445 H 0.49664 0.51057 0.58487 0.0
H4446 H 0.50752 0.55938 0.61723 0.0
C4447 C 0.4704 0.55618 0.66097 0.0
C4448 C 0.47332 0.52708 0.62327 0.0
C4449 C 0.46327 0.55752 0.67539 0.0
C4450 C 0.50844 0.52033 0.56642 0.0
C4451 C 0.50138 0.5214 0.58091 0.0
C4452 C 0.49787 0.55023 0.61843 0.0
C4453 C 0.47041 0.54142 0.65144 0.0
C4454 C 0.47822 0.53998 0.63573 0.0
C4455 C 0.50065 0.53609 0.59024 0.0
C4456 C 0.49295 0.53736 0.60598 0.0
H4457 H 0.44994 0.5187 0.67521 0.0
H4458 H 0.46249 0.51639 0.65079 0.0
H4459 H 0.49537 0.56153 0.6419 0.0
H4460 H 0.51917 0.55935 0.56571 0.0
H4461 H 0.50707 0.56123 0.59051 0.0
C4462 C 0.7986 0.16688 0.94638 0.0
C4463 C 0.80332 0.17421 0.96201 0.0
C4464 C 0.79857 0.17578 0.93428 0.0
C4465 C 0.79823 0.2164 0.92724 0.0
H4466 H 0.81008 0.20046 0.88606 0.0
C4467 C 0.8045 0.25417 0.87806 0.0
C4468 C 0.79795 0.24682 0.86289 0.0
C4469 C 0.80593 0.24534 0.89004 0.0
C4470 C 0.80662 0.20501 0.89746 0.0
H4471 H 0.81206 0.19663 0.97713 0.0
H4472 H 0.81217 0.21217 0.95601 0.0
H4473 H 0.8112 0.1851 0.90722 0.0
H4474 H 0.78789 0.22433 0.84846 0.0
H4475 H 0.79051 0.20891 0.86933 0.0
H4476 H 0.79368 0.23632 0.91747 0.0
C4477 C 0.80818 0.19955 0.95313 0.0
C4478 C 0.80724 0.1962 0.9096 0.0
C4479 C 0.80814 0.19065 0.96524 0.0
C4480 C 0.79318 0.23036 0.85993 0.0
C4481 C 0.79466 0.22152 0.87191 0.0
C4482 C 0.79767 0.22523 0.91513 0.0
C4483 C 0.80332 0.19224 0.93749 0.0
C4484 C 0.80299 0.20175 0.92463 0.0
C4485 C 0.8009 0.22892 0.88715 0.0
C4486 C 0.80182 0.21963 0.90008 0.0
H4487 H 0.79459 0.15426 0.94353 0.0
H4488 H 0.7945 0.16977 0.92244 0.0
H4489 H 0.7946 0.22093 0.93856 0.0
H4490 H 0.80858 0.26678 0.88069 0.0
H4491 H 0.81103 0.25137 0.90158 0.0
C4492 C 0.1244 0.5115 0.16434 0.0
C4493 C 0.11836 0.51729 0.17834 0.0
C4494 C 0.11654 0.51117 0.14975 0.0
C4495 C 0.07875 0.51339 0.13012 0.0
H4496 H 0.10401 0.53089 0.09944 0.0
C4497 C 0.05248 0.533 0.07544 0.0
C4498 C 0.05945 0.53017 0.06127 0.0
C4499 C 0.05927 0.53007 0.08943 0.0
C4500 C 0.0968 0.52574 0.10776 0.0
H4501 H 0.09909 0.52681 0.18804 0.0
H4502 H 0.0853 0.52616 0.16254 0.0
H4503 H 0.11631 0.52755 0.12434 0.0
H4504 H 0.07887 0.52165 0.05066 0.0
H4505 H 0.09057 0.51638 0.07501 0.0
H4506 H 0.05921 0.51169 0.11355 0.0
C4507 C 0.09607 0.52177 0.16287 0.0
C4508 C 0.10386 0.52383 0.12203 0.0
C4509 C 0.10396 0.52212 0.17747 0.0
C4510 C 0.07327 0.52416 0.06138 0.0
C4511 C 0.08001 0.52116 0.07535 0.0
C4512 C 0.07168 0.51525 0.1158 0.0
C4513 C 0.10244 0.51659 0.14886 0.0
C4514 C 0.09491 0.51774 0.13341 0.0
C4515 C 0.07314 0.52417 0.08955 0.0
C4516 C 0.08063 0.52156 0.10451 0.0
H4517 H 0.13534 0.50742 0.16464 0.0
H4518 H 0.12159 0.50686 0.13915 0.0
H4519 H 0.07159 0.50852 0.13862 0.0
H4520 H 0.04186 0.53767 0.07581 0.0
H4521 H 0.0538 0.53273 0.1002 0.0
C4522 C 0.76682 0.82718 0.43757 0.0
C4523 C 0.7804 0.82903 0.44765 0.0
C4524 C 0.76643 0.82068 0.42165 0.0
C4525 C 0.79252 0.81603 0.3903 0.0
H4526 H 0.75702 0.78731 0.36705 0.0
C4527 C 0.79378 0.79027 0.32499 0.0
C4528 C 0.78038 0.7893 0.31493 0.0
C4529 C 0.79346 0.79374 0.3413 0.0
C4530 C 0.76697 0.79545 0.37334 0.0
H4531 H 0.80409 0.82511 0.44897 0.0
H4532 H 0.80334 0.8136 0.42125 0.0
H4533 H 0.75697 0.79555 0.39544 0.0
H4534 H 0.75602 0.79097 0.31417 0.0
H4535 H 0.75554 0.79735 0.34266 0.0
H4536 H 0.80241 0.81628 0.36829 0.0
C4537 C 0.79304 0.81731 0.42564 0.0
C4538 C 0.76695 0.80013 0.38961 0.0
C4539 C 0.79341 0.82374 0.44156 0.0
C4540 C 0.76655 0.79159 0.32159 0.0
C4541 C 0.76625 0.79517 0.33794 0.0
C4542 C 0.79251 0.81143 0.37406 0.0
C4543 C 0.77964 0.81596 0.41544 0.0
C4544 C 0.77973 0.81048 0.39826 0.0
C4545 C 0.77976 0.79645 0.348 0.0
C4546 C 0.77974 0.80108 0.36535 0.0
H4547 H 0.75656 0.83099 0.44195 0.0
H4548 H 0.75595 0.81987 0.41409 0.0
H4549 H 0.80242 0.82427 0.39656 0.0
H4550 H 0.8046 0.78841 0.32028 0.0
H4551 H 0.804 0.7943 0.34868 0.0
C4552 C 0.46032 0.53333 0.84786 0.0
C4553 C 0.45654 0.5476 0.84446 0.0
C4554 C 0.46719 0.53217 0.86281 0.0
C4555 C 0.48784 0.55669 0.90136 0.0
H4556 H 0.47938 0.51695 0.91643 0.0
C4557 C 0.50994 0.55069 0.96601 0.0
C4558 C 0.51342 0.5362 0.96901 0.0
C4559 C 0.50317 0.55226 0.95112 0.0
C4560 C 0.48217 0.52816 0.91249 0.0
H4561 H 0.45739 0.5719 0.85516 0.0
H4562 H 0.4692 0.5699 0.88086 0.0
H4563 H 0.46774 0.51929 0.89088 0.0
H4564 H 0.51227 0.512 0.95792 0.0
H4565 H 0.50084 0.5147 0.93232 0.0
H4566 H 0.50226 0.56556 0.92304 0.0
C4567 C 0.46704 0.55951 0.87183 0.0
C4568 C 0.47537 0.52953 0.89757 0.0
C4569 C 0.46016 0.56068 0.85686 0.0
C4570 C 0.50983 0.52339 0.95637 0.0
C4571 C 0.50307 0.52495 0.94151 0.0
C4572 C 0.49465 0.55532 0.91631 0.0
C4573 C 0.4707 0.5452 0.87526 0.0
C4574 C 0.47804 0.54382 0.89155 0.0
C4575 C 0.4995 0.53941 0.93844 0.0
C4576 C 0.49204 0.541 0.92229 0.0
H4577 H 0.45821 0.52293 0.83886 0.0
H4578 H 0.46998 0.52094 0.86446 0.0
H4579 H 0.49059 0.56791 0.89742 0.0
H4580 H 0.51237 0.56092 0.97525 0.0
H4581 H 0.50058 0.56362 0.94969 0.0
C4582 C 0.78188 0.17376 0.11465 0.0
C4583 C 0.79451 0.17732 0.10567 0.0
C4584 C 0.77974 0.18422 0.12801 0.0
C4585 C 0.79157 0.22613 0.14755 0.0
H4586 H 0.77574 0.21002 0.18399 0.0
C4587 C 0.79507 0.26427 0.20923 0.0
C4588 C 0.78244 0.2617 0.2184 0.0
C4589 C 0.79526 0.25469 0.19469 0.0
C4590 C 0.77996 0.21471 0.17383 0.0
H4591 H 0.81486 0.19481 0.10397 0.0
H4592 H 0.81148 0.21272 0.12757 0.0
H4593 H 0.77919 0.1917 0.1607 0.0
H4594 H 0.75985 0.24731 0.21919 0.0
H4595 H 0.76022 0.23049 0.19377 0.0
H4596 H 0.79273 0.24916 0.16094 0.0
C4597 C 0.803 0.20197 0.12407 0.0
C4598 C 0.78195 0.2042 0.16044 0.0
C4599 C 0.80509 0.19155 0.11063 0.0
C4600 C 0.76972 0.24966 0.2124 0.0
C4601 C 0.77 0.23994 0.19791 0.0
C4602 C 0.7897 0.23663 0.161 0.0
C4603 C 0.79023 0.19852 0.1329 0.0
C4604 C 0.78787 0.20974 0.14712 0.0
C4605 C 0.7829 0.24218 0.18902 0.0
C4606 C 0.78394 0.23105 0.17433 0.0
H4607 H 0.7736 0.16284 0.11139 0.0
H4608 H 0.76968 0.18117 0.13437 0.0
H4609 H 0.79584 0.23088 0.13744 0.0
H4610 H 0.80507 0.27343 0.21348 0.0
H4611 H 0.80542 0.25667 0.18822 0.0
C4612 C 0.14056 0.5807 0.33974 0.0
C4613 C 0.13109 0.576 0.32553 0.0
C4614 C 0.13457 0.58701 0.35342 0.0
C4615 C 0.10041 0.60188 0.36927 0.0
H4616 H 0.10914 0.57966 0.40321 0.0
C4617 C 0.05762 0.58605 0.41429 0.0
C4618 C 0.0632 0.583 0.42887 0.0
C4619 C 0.06792 0.59123 0.40366 0.0
C4620 C 0.10684 0.58638 0.39411 0.0
H4621 H 0.1082 0.575 0.31424 0.0
H4622 H 0.09759 0.58574 0.33822 0.0
H4623 H 0.12374 0.5775 0.38036 0.0
H4624 H 0.08398 0.58471 0.44439 0.0
H4625 H 0.10186 0.59437 0.42614 0.0
H4626 H 0.08297 0.61021 0.3829 0.0
C4627 C 0.10972 0.5848 0.33877 0.0
C4628 C 0.11523 0.58509 0.38093 0.0
C4629 C 0.11576 0.57856 0.32505 0.0
C4630 C 0.07923 0.58687 0.43325 0.0
C4631 C 0.08952 0.59224 0.4227 0.0
C4632 C 0.09201 0.60323 0.38255 0.0
C4633 C 0.11895 0.58865 0.35319 0.0
C4634 C 0.1118 0.59241 0.36814 0.0
C4635 C 0.08402 0.59364 0.40747 0.0
C4636 C 0.0948 0.59506 0.3949 0.0
H4637 H 0.15254 0.57916 0.34035 0.0
H4638 H 0.14204 0.59013 0.3643 0.0
H4639 H 0.09767 0.60785 0.35969 0.0
H4640 H 0.0453 0.58359 0.41072 0.0
H4641 H 0.06322 0.59218 0.39206 0.0
C4642 C 0.78098 0.84968 0.61469 0.0
C4643 C 0.78945 0.84312 0.60289 0.0
C4644 C 0.78079 0.84462 0.62927 0.0
C4645 C 0.78478 0.8111 0.64825 0.0
H4646 H 0.79439 0.84155 0.68687 0.0
C4647 C 0.79128 0.79137 0.70854 0.0
C4648 C 0.78649 0.8003 0.72171 0.0
C4649 C 0.79181 0.79676 0.69414 0.0
C4650 C 0.79141 0.83287 0.67624 0.0
H4651 H 0.80422 0.82608 0.59696 0.0
H4652 H 0.8036 0.81696 0.6224 0.0
H4653 H 0.7947 0.85057 0.66154 0.0
H4654 H 0.77833 0.82184 0.73009 0.0
H4655 H 0.77861 0.83096 0.70484 0.0
H4656 H 0.78094 0.7934 0.66275 0.0
C4657 C 0.79722 0.82609 0.62037 0.0
C4658 C 0.79169 0.83807 0.66173 0.0
C4659 C 0.79764 0.83135 0.60589 0.0
C4660 C 0.78217 0.81473 0.72017 0.0
C4661 C 0.78244 0.82 0.70568 0.0
C4662 C 0.78423 0.8059 0.66275 0.0
C4663 C 0.78884 0.83273 0.63222 0.0
C4664 C 0.78845 0.82723 0.6476 0.0
C4665 C 0.78729 0.8111 0.69245 0.0
C4666 C 0.78763 0.8167 0.67697 0.0
H4667 H 0.77467 0.85887 0.61271 0.0
H4668 H 0.77418 0.84988 0.63818 0.0
H4669 H 0.78205 0.80251 0.63752 0.0
H4670 H 0.79485 0.78028 0.70939 0.0
H4671 H 0.79595 0.78972 0.6844 0.0
C4672 C 0.68854 0.48592 0.50143 0.0
C4673 C 0.69558 0.4792 0.51307 0.0
C4674 C 0.67436 0.49092 0.5035 0.0
C4675 C 0.63972 0.48562 0.52644 0.0
H4676 H 0.63238 0.5236 0.51191 0.0
C4677 C 0.5786 0.50216 0.5219 0.0
C4678 C 0.57743 0.51817 0.52502 0.0
C4679 C 0.59312 0.49761 0.52168 0.0
C4680 C 0.63425 0.51305 0.5162 0.0
H4681 H 0.6929 0.47233 0.53599 0.0
H4682 H 0.66845 0.48129 0.5397 0.0
H4683 H 0.65738 0.51555 0.50904 0.0
H4684 H 0.59085 0.5419 0.53096 0.0
H4685 H 0.61608 0.53397 0.53084 0.0
H4686 H 0.61666 0.48323 0.53378 0.0
C4687 C 0.67381 0.4826 0.52888 0.0
C4688 C 0.64857 0.5083 0.51435 0.0
C4689 C 0.688 0.47763 0.52684 0.0
C4690 C 0.59122 0.52946 0.5285 0.0
C4691 C 0.60575 0.52491 0.52826 0.0
C4692 C 0.62539 0.49036 0.52826 0.0
C4693 C 0.66675 0.4893 0.51724 0.0
C4694 C 0.65151 0.49448 0.51939 0.0
C4695 C 0.60693 0.50893 0.52456 0.0
C4696 C 0.62242 0.50412 0.52313 0.0
H4697 H 0.69405 0.48745 0.49073 0.0
H4698 H 0.66924 0.49585 0.49418 0.0
H4699 H 0.64145 0.47484 0.53033 0.0
H4700 H 0.56829 0.49309 0.5191 0.0
H4701 H 0.5935 0.48522 0.51865 0.0
C4702 C 0.18835 0.13332 0.51103 0.0
C4703 C 0.19695 0.13061 0.49799 0.0
C4704 C 0.17366 0.12433 0.51141 0.0
C4705 C 0.14106 0.09735 0.48627 0.0
H4706 H 0.13007 0.08592 0.52635 0.0
C4707 C 0.0851 0.05355 0.49458 0.0
C4708 C 0.07699 0.05841 0.50748 0.0
C4709 C 0.09963 0.06216 0.4925 0.0
C4710 C 0.13293 0.0891 0.5151 0.0
H4711 H 0.19682 0.11645 0.47501 0.0
H4712 H 0.17119 0.10044 0.47575 0.0
H4713 H 0.15565 0.10109 0.52445 0.0
H4714 H 0.07767 0.07637 0.5281 0.0
H4715 H 0.10292 0.09121 0.5245 0.0
H4716 H 0.11826 0.08507 0.47697 0.0
C4717 C 0.17571 0.10972 0.4856 0.0
C4718 C 0.14759 0.09786 0.514 0.0
C4719 C 0.19041 0.11885 0.48518 0.0
C4720 C 0.08359 0.07221 0.51807 0.0
C4721 C 0.09812 0.08069 0.51606 0.0
C4722 C 0.1264 0.08845 0.48736 0.0
C4723 C 0.16721 0.11226 0.4988 0.0
C4724 C 0.15178 0.10231 0.49964 0.0
C4725 C 0.10637 0.07569 0.50337 0.0
C4726 C 0.12213 0.08443 0.50184 0.0
H4727 H 0.19297 0.14251 0.52095 0.0
H4728 H 0.16731 0.12691 0.52159 0.0
H4729 H 0.14384 0.10068 0.47506 0.0
H4730 H 0.08033 0.043 0.48618 0.0
H4731 H 0.10578 0.05801 0.48263 0.0
C4732 C 0.2146 0.93285 0.75609 0.0
C4733 C 0.20336 0.93602 0.76675 0.0
C4734 C 0.22185 0.91944 0.75559 0.0
C4735 C 0.21987 0.87998 0.77133 0.0
H4736 H 0.25884 0.8798 0.75273 0.0
C4737 C 0.24839 0.82262 0.76476 0.0
C4738 C 0.26446 0.82349 0.76317 0.0
C4739 C 0.2411 0.83597 0.76498 0.0
C4740 C 0.24804 0.87942 0.75818 0.0
H4741 H 0.1914 0.92616 0.7853 0.0
H4742 H 0.20414 0.90372 0.78485 0.0
H4743 H 0.24675 0.90275 0.75399 0.0
H4744 H 0.28518 0.84007 0.76072 0.0
H4745 H 0.27287 0.86305 0.76145 0.0
H4746 H 0.22143 0.85688 0.77604 0.0
C4747 C 0.20728 0.91147 0.77649 0.0
C4748 C 0.24079 0.89284 0.75869 0.0
C4749 C 0.19996 0.92482 0.77692 0.0
C4750 C 0.27282 0.83853 0.76182 0.0
C4751 C 0.26557 0.85193 0.76217 0.0
C4752 C 0.22716 0.8666 0.7709 0.0
C4753 C 0.21847 0.90827 0.76578 0.0
C4754 C 0.22643 0.8936 0.76526 0.0
C4755 C 0.24945 0.85114 0.76379 0.0
C4756 C 0.24149 0.86582 0.76428 0.0
H4757 H 0.21807 0.94083 0.74803 0.0
H4758 H 0.23007 0.91785 0.7469 0.0
H4759 H 0.20885 0.87941 0.77636 0.0
H4760 H 0.24128 0.81146 0.76581 0.0
H4761 H 0.22874 0.83419 0.76594 0.0
C4762 C 0.36258 0.97582 0.02725 0.0
C4763 C 0.35246 0.97799 0.01488 0.0
C4764 C 0.37867 0.98034 0.02722 0.0
C4765 C 0.40916 0.98873 1.00005 0.0
H4766 H 0.43545 0.00621 0.03858 0.0
C4767 C 0.47432 0.0144 0.99971 0.0
C4768 C 0.48479 0.01144 0.01133 0.0
C4769 C 0.4583 0.01023 1.00038 0.0
C4770 C 0.4283 1.00117 0.02774 0.0
H4771 H 0.35152 0.98699 0.99291 0.0
H4772 H 0.3795 0.99524 0.99305 0.0
H4773 H 0.40738 0.99983 0.03945 0.0
H4774 H 0.48644 1.0017 0.03284 0.0
H4775 H 0.45842 0.99434 0.03396 0.0
H4776 H 0.43005 0.99011 0.98833 0.0
C4777 C 0.375 0.98977 1.00267 0.0
C4778 C 0.41217 0.99751 0.02822 0.0
C4779 C 0.35889 0.98523 1.0027 0.0
C4780 C 0.47876 1.00414 0.02366 0.0
C4781 C 0.46267 1.00002 0.02436 0.0
C4782 C 0.42526 0.99241 0.99956 0.0
C4783 C 0.38514 0.9872 0.01483 0.0
C4784 C 0.40235 0.99127 0.01437 0.0
C4785 C 0.45222 1.00301 0.01272 0.0
C4786 C 0.43507 0.99873 0.01338 0.0
H4787 H 0.35807 0.97048 0.03696 0.0
H4788 H 0.38606 0.97806 0.03674 0.0
H4789 H 0.40206 0.98363 0.98918 0.0
H4790 H 0.47848 0.02003 0.99005 0.0
H4791 H 0.45065 0.01293 0.99133 0.0
C4792 C 0.8303 0.58097 0.76907 0.0
C4793 C 0.84416 0.58562 0.77897 0.0
C4794 C 0.82039 0.59156 0.76755 0.0
C4795 C 0.81083 0.62905 0.78661 0.0
H4796 H 0.79525 0.63174 0.74436 0.0
C4797 C 0.78839 0.68303 0.77133 0.0
C4798 C 0.77577 0.68081 0.75993 0.0
C4799 C 0.79478 0.67029 0.7746 0.0
C4800 C 0.79925 0.63095 0.75626 0.0
H4801 H 0.85842 0.60499 0.7951 0.0
H4802 H 0.84109 0.62353 0.79243 0.0
H4803 H 0.81029 0.61159 0.74831 0.0
H4804 H 0.75965 0.66339 0.74339 0.0
H4805 H 0.7709 0.64103 0.7491 0.0
H4806 H 0.80004 0.64861 0.79452 0.0
C4807 C 0.83782 0.61161 0.78601 0.0
C4808 C 0.8079 0.61942 0.75852 0.0
C4809 C 0.84775 0.60102 0.78753 0.0
C4810 C 0.76947 0.66548 0.75211 0.0
C4811 C 0.7759 0.6527 0.75538 0.0
C4812 C 0.80217 0.64056 0.78435 0.0
C4813 C 0.82409 0.60702 0.77591 0.0
C4814 C 0.81398 0.61852 0.77369 0.0
C4815 C 0.78875 0.65502 0.76653 0.0
C4816 C 0.79651 0.6418 0.76912 0.0
H4817 H 0.82707 0.56909 0.76256 0.0
H4818 H 0.80978 0.58763 0.75986 0.0
H4819 H 0.81515 0.62846 0.79846 0.0
H4820 H 0.79373 0.69471 0.77734 0.0
H4821 H 0.80486 0.67251 0.78303 0.0
C4822 C 0.8398 0.6235 1.00499 0.0
C4823 C 0.84213 0.63999 0.00636 0.0
C4824 C 0.85234 0.61594 0.00706 0.0
C4825 C 0.89186 0.62318 0.0263 0.0
H4826 H 0.89642 0.58544 0.99816 0.0
C4827 C 0.94757 0.59777 0.03015 0.0
C4828 C 0.94619 0.58135 0.02827 0.0
C4829 C 0.93476 0.60451 0.02686 0.0
C4830 C 0.89522 0.59585 0.00624 0.0
H4831 H 0.85962 0.66136 0.01043 0.0
H4832 H 0.8814 0.64819 0.01428 0.0
H4833 H 0.87416 0.59791 0.99359 0.0
H4834 H 0.93034 0.55907 0.02125 0.0
H4835 H 0.90779 0.57084 0.01571 0.0
H4836 H 0.9127 0.62111 0.03911 0.0
C4837 C 0.86984 0.64114 0.0118 0.0
C4838 C 0.88248 0.60301 1.0036 0.0
C4839 C 0.85734 0.64869 0.00963 0.0
C4840 C 0.93176 0.57177 0.02272 0.0
C4841 C 0.91886 0.57852 0.01952 0.0
C4842 C 0.9045 0.616 0.02901 0.0
C4843 C 0.86747 0.6247 0.01065 0.0
C4844 C 0.88075 0.61682 0.01354 0.0
C4845 C 0.92018 0.59499 0.02171 0.0
C4846 C 0.90644 0.60232 0.01894 0.0
H4847 H 0.82823 0.61645 1.00268 0.0
H4848 H 0.85014 0.60326 0.00626 0.0
H4849 H 0.89069 0.63365 0.03434 0.0
H4850 H 0.95863 0.60545 0.03411 0.0
H4851 H 0.93631 0.61721 0.0283 0.0
C4852 C 0.22066 0.10617 0.77472 0.0
C4853 C 0.20441 0.10079 0.7721 0.0
C4854 C 0.22753 0.12203 0.77445 0.0
C4855 C 0.21972 0.15931 0.76067 0.0
H4856 H 0.25608 0.17954 0.78866 0.0
C4857 C 0.2453 0.22691 0.7645 0.0
C4858 C 0.26128 0.23271 0.76869 0.0
C4859 C 0.23845 0.2111 0.76504 0.0
C4860 C 0.24608 0.17418 0.78051 0.0
H4861 H 0.18294 0.10903 0.76753 0.0
H4862 H 0.19479 0.13613 0.76682 0.0
H4863 H 0.2445 0.15226 0.7892 0.0
H4864 H 0.28242 0.2257 0.77667 0.0
H4865 H 0.27078 0.19843 0.77726 0.0
H4866 H 0.22136 0.18106 0.75179 0.0
C4867 C 0.20233 0.12799 0.76887 0.0
C4868 C 0.23932 0.15831 0.78086 0.0
C4869 C 0.19545 0.11218 0.76925 0.0
C4870 C 0.27009 0.22195 0.77342 0.0
C4871 C 0.26328 0.20612 0.77386 0.0
C4872 C 0.22653 0.17514 0.76023 0.0
C4873 C 0.21855 0.13334 0.77144 0.0
C4874 C 0.22595 0.15047 0.77098 0.0
C4875 C 0.24726 0.20024 0.76969 0.0
C4876 C 0.23989 0.18304 0.77016 0.0
H4877 H 0.22824 0.09806 0.77671 0.0
H4878 H 0.24004 0.12534 0.7763 0.0
H4879 H 0.20965 0.1539 0.75261 0.0
H4880 H 0.23796 0.23466 0.76086 0.0
H4881 H 0.2261 0.20752 0.76197 0.0
C4882 C 0.33872 0.93795 0.30058 0.0
C4883 C 0.33338 0.94931 0.29305 0.0
C4884 C 0.32977 0.92295 0.29928 0.0
C4885 C 0.29189 0.89722 0.2864 0.0
H4886 H 0.31762 0.86744 0.27071 0.0
C4887 C 0.27544 0.82854 0.27696 0.0
C4888 C 0.28076 0.82049 0.26354 0.0
C4889 C 0.27889 0.84499 0.28042 0.0
C4890 C 0.31025 0.87562 0.27497 0.0
H4891 H 0.31403 0.95451 0.27944 0.0
H4892 H 0.29832 0.92803 0.27699 0.0
H4893 H 0.32926 0.89496 0.2791 0.0
H4894 H 0.29243 0.82336 0.24239 0.0
H4895 H 0.29841 0.85195 0.24845 0.0
H4896 H 0.27282 0.87756 0.28214 0.0
C4897 C 0.30939 0.9308 0.28398 0.0
C4898 C 0.31695 0.89134 0.27998 0.0
C4899 C 0.31836 0.9459 0.28535 0.0
C4900 C 0.28844 0.82919 0.253 0.0
C4901 C 0.29185 0.84556 0.25644 0.0
C4902 C 0.28515 0.88132 0.28151 0.0
C4903 C 0.31536 0.91903 0.29034 0.0
C4904 C 0.30788 0.9023 0.28575 0.0
C4905 C 0.28769 0.85356 0.27049 0.0
C4906 C 0.2943 0.87044 0.27562 0.0
H4907 H 0.35018 0.94043 0.3068 0.0
H4908 H 0.3345 0.91415 0.30454 0.0
H4909 H 0.28467 0.9055 0.29077 0.0
H4910 H 0.26941 0.82214 0.28526 0.0
H4911 H 0.27557 0.85092 0.29134 0.0
C4912 C 0.5576 0.36292 0.61724 0.0
C4913 C 0.56783 0.35291 0.61212 0.0
C4914 C 0.55498 0.37474 0.60889 0.0
C4915 C 0.5553 0.38279 0.5687 0.0
H4916 H 0.5472 0.42339 0.58773 0.0
C4917 C 0.53877 0.42831 0.53213 0.0
C4918 C 0.52708 0.43635 0.53755 0.0
C4919 C 0.5449 0.41863 0.54125 0.0
C4920 C 0.54931 0.41203 0.58226 0.0
H4921 H 0.584 0.34797 0.59478 0.0
H4922 H 0.57961 0.36884 0.58032 0.0
H4923 H 0.55717 0.4066 0.60433 0.0
H4924 H 0.51222 0.44008 0.55644 0.0
H4925 H 0.52282 0.42307 0.57232 0.0
H4926 H 0.54716 0.38807 0.54668 0.0
C4927 C 0.57347 0.36738 0.59067 0.0
C4928 C 0.55507 0.40247 0.59175 0.0
C4929 C 0.57612 0.35557 0.59906 0.0
C4930 C 0.52136 0.43419 0.55207 0.0
C4931 C 0.52748 0.42452 0.56118 0.0
C4932 C 0.54953 0.39235 0.55921 0.0
C4933 C 0.56252 0.37677 0.59523 0.0
C4934 C 0.55794 0.38766 0.58509 0.0
C4935 C 0.53945 0.41681 0.55597 0.0
C4936 C 0.54627 0.40698 0.56592 0.0
H4937 H 0.55118 0.36121 0.62737 0.0
H4938 H 0.54642 0.38173 0.61266 0.0
H4939 H 0.55714 0.37132 0.56325 0.0
H4940 H 0.54357 0.42993 0.52109 0.0
H4941 H 0.5542 0.41294 0.53698 0.0
C4942 C 0.44072 0.78145 0.33218 0.0
C4943 C 0.44343 0.79181 0.34663 0.0
C4944 C 0.42795 0.7814 0.32179 0.0
C4945 C 0.39677 0.80371 0.3138 0.0
H4946 H 0.37396 0.76229 0.29497 0.0
C4947 C 0.33194 0.79087 0.29161 0.0
C4948 C 0.32737 0.78054 0.27728 0.0
C4949 C 0.34719 0.79341 0.29831 0.0
C4950 C 0.38031 0.77395 0.29995 0.0
H4951 H 0.43519 0.81046 0.36145 0.0
H4952 H 0.41265 0.81013 0.34354 0.0
H4953 H 0.39888 0.76475 0.30979 0.0
H4954 H 0.33528 0.76498 0.25858 0.0
H4955 H 0.3619 0.76932 0.27042 0.0
H4956 H 0.37773 0.81277 0.30444 0.0
C4957 C 0.42055 0.8023 0.34 0.0
C4958 C 0.39464 0.77539 0.30841 0.0
C4959 C 0.43343 0.80246 0.3503 0.0
C4960 C 0.33843 0.77299 0.26965 0.0
C4961 C 0.35364 0.77543 0.27643 0.0
C4962 C 0.38235 0.80225 0.30546 0.0
C4963 C 0.41751 0.79157 0.32574 0.0
C4964 C 0.40295 0.79027 0.31561 0.0
C4965 C 0.35813 0.78557 0.29087 0.0
C4966 C 0.37392 0.78733 0.29862 0.0
H4967 H 0.44841 0.77327 0.329 0.0
H4968 H 0.42613 0.77322 0.31077 0.0
H4969 H 0.40299 0.81537 0.31896 0.0
H4970 H 0.32371 0.79691 0.29775 0.0
H4971 H 0.35031 0.80117 0.30953 0.0
C4972 C 0.05091 0.70778 0.04296 0.0
C4973 C 0.04186 0.70999 0.05574 0.0
C4974 C 0.05023 0.69276 0.03431 0.0
C4975 C 0.02875 0.65125 0.02905 0.0
H4976 H 0.06962 0.64115 0.02396 0.0
C4977 C 0.0434 0.59149 0.03478 0.0
C4978 C 0.05072 0.58392 0.02257 0.0
C4979 C 0.04153 0.60699 0.0351 0.0
C4980 C 0.05813 0.64386 0.02503 0.0
H4981 H 0.02452 0.69843 0.06905 0.0
H4982 H 0.02353 0.67227 0.05428 0.0
H4983 H 0.06687 0.66859 0.0305 0.0
H4984 H 0.0624 0.58687 1.00145 0.0
H4985 H 0.05966 0.6144 1.00246 0.0
H4986 H 0.02025 0.62636 0.02474 0.0
C4987 C 0.03091 0.68209 0.05061 0.0
C4988 C 0.0565 0.65956 0.0287 0.0
C4989 C 0.03149 0.6971 0.05915 0.0
C4990 C 0.05671 0.5924 0.01102 0.0
C4991 C 0.05509 0.60808 0.01152 0.0
C4992 C 0.03042 0.63556 0.02562 0.0
C4993 C 0.04059 0.67966 0.03838 0.0
C4994 C 0.04185 0.6634 0.03132 0.0
C4995 C 0.04722 0.61534 0.02341 0.0
C4996 C 0.04518 0.63177 0.02411 0.0
H4997 H 0.05885 0.71761 0.03997 0.0
H4998 H 0.05763 0.69134 0.02478 0.0
H4999 H 0.01727 0.65381 0.03062 0.0
H5000 H 0.03892 0.58541 0.04402 0.0
H5001 H 0.03572 0.61251 0.04458 0.0
C5002 C 0.07557 0.26494 0.84632 0.0
C5003 C 0.07031 0.27932 0.84918 0.0
C5004 C 0.08813 0.26346 0.83731 0.0
C5005 C 0.11034 0.28168 0.80784 0.0
H5006 H 0.14387 0.26312 0.82336 0.0
C5007 C 0.171 0.29319 0.78623 0.0
C5008 C 0.17927 0.28078 0.78393 0.0
C5009 C 0.15693 0.29131 0.79302 0.0
C5010 C 0.13449 0.26809 0.81873 0.0
H5011 H 0.07437 0.30349 0.84513 0.0
H5012 H 0.09608 0.30084 0.82935 0.0
H5013 H 0.1205 0.26279 0.83741 0.0
H5014 H 0.17915 0.25659 0.78678 0.0
H5015 H 0.15446 0.25332 0.79872 0.0
H5016 H 0.12436 0.28721 0.78932 0.0
C5017 C 0.09034 0.29064 0.83383 0.0
C5018 C 0.12112 0.26791 0.82677 0.0
C5019 C 0.07789 0.29215 0.84287 0.0
C5020 C 0.17311 0.26642 0.78855 0.0
C5021 C 0.15899 0.26454 0.79537 0.0
C5022 C 0.12366 0.28183 0.79979 0.0
C5023 C 0.0956 0.2763 0.83094 0.0
C5024 C 0.10907 0.27501 0.82159 0.0
C5025 C 0.15077 0.27699 0.79768 0.0
C5026 C 0.13602 0.27535 0.80534 0.0
H5027 H 0.06988 0.25479 0.85088 0.0
H5028 H 0.09189 0.25223 0.83518 0.0
H5029 H 0.1011 0.28697 0.80341 0.0
H5030 H 0.17558 0.3045 0.78311 0.0
H5031 H 0.15105 0.30125 0.79495 0.0
C5032 C 0.56326 0.71163 0.93375 0.0
C5033 C 0.55217 0.72068 0.93041 0.0
C5034 C 0.56089 0.70171 0.94491 0.0
C5035 C 0.52998 0.68109 0.96546 0.0
H5036 H 0.56451 0.67671 0.9934 0.0
C5037 C 0.52175 0.64212 0.01335 0.0
C5038 C 0.5321 0.63158 0.01358 0.0
C5039 C 0.52452 0.65446 1.0048 0.0
C5040 C 0.55477 0.6778 0.98564 0.0
H5041 H 0.53009 0.72672 0.93636 0.0
H5042 H 0.52598 0.70949 0.95591 0.0
H5043 H 0.56862 0.69528 0.97504 0.0
H5044 H 0.55362 0.62596 1.00519 0.0
H5045 H 0.55852 0.64758 0.99051 0.0
H5046 H 0.51617 0.66353 0.97599 0.0
C5047 C 0.53636 0.7098 0.94969 0.0
C5048 C 0.55713 0.68838 0.97509 0.0
C5049 C 0.5387 0.71966 0.93848 0.0
C5050 C 0.54555 0.63401 1.00552 0.0
C5051 C 0.54835 0.64639 0.99706 0.0
C5052 C 0.52762 0.67058 0.97606 0.0
C5053 C 0.54741 0.70069 0.95303 0.0
C5054 C 0.5448 0.69 0.96475 0.0
C5055 C 0.53773 0.65656 0.99638 0.0
C5056 C 0.54002 0.66869 0.98612 0.0
H5057 H 0.57369 0.71209 0.9276 0.0
H5058 H 0.56951 0.69464 0.94701 0.0
H5059 H 0.52028 0.6819 0.95751 0.0
H5060 H 0.51141 0.64071 0.01963 0.0
H5061 H 0.51625 0.66227 1.00464 0.0
C5062 C 0.07459 0.78129 0.69471 0.0
C5063 C 0.06586 0.76735 0.68586 0.0
C5064 C 0.08823 0.78097 0.70368 0.0
C5065 C 0.10982 0.75435 0.72128 0.0
H5066 H 0.14585 0.78575 0.71751 0.0
C5067 C 0.16971 0.75756 0.75449 0.0
C5068 C 0.18253 0.75996 0.74556 0.0
C5069 C 0.15505 0.75907 0.74848 0.0
C5070 C 0.13589 0.77689 0.71865 0.0
H5071 H 0.06422 0.74208 0.67993 0.0
H5072 H 0.08818 0.74155 0.69532 0.0
H5073 H 0.12075 0.78716 0.70488 0.0
H5074 H 0.18997 0.76541 0.7232 0.0
H5075 H 0.16444 0.76804 0.71274 0.0
H5076 H 0.12511 0.74379 0.73462 0.0
C5077 C 0.08444 0.75271 0.69543 0.0
C5078 C 0.12149 0.7778 0.71158 0.0
C5079 C 0.07084 0.75304 0.68645 0.0
C5080 C 0.18038 0.76378 0.73048 0.0
C5081 C 0.16576 0.7653 0.7245 0.0
C5082 C 0.12424 0.75346 0.72838 0.0
C5083 C 0.09336 0.76669 0.70401 0.0
C5084 C 0.10835 0.76641 0.71262 0.0
C5085 C 0.15295 0.76302 0.73345 0.0
C5086 C 0.13746 0.76458 0.72692 0.0
H5087 H 0.07108 0.7925 0.69442 0.0
H5088 H 0.0948 0.7919 0.71029 0.0
H5089 H 0.09985 0.7455 0.72242 0.0
H5090 H 0.17105 0.75479 0.76622 0.0
H5091 H 0.1454 0.75737 0.75569 0.0
C5092 C 0.0501 0.36539 0.43849 0.0
C5093 C 0.05445 0.3631 0.423 0.0
C5094 C 0.04896 0.38037 0.4461 0.0
C5095 C 0.04458 0.41967 0.43793 0.0
H5096 H 0.05593 0.43203 0.48279 0.0
C5097 C 0.02925 0.47556 0.4734 0.0
C5098 C 0.04005 0.48422 0.48562 0.0
C5099 C 0.0314 0.46095 0.46566 0.0
C5100 C 0.05287 0.42886 0.47022 0.0
H5101 H 0.06116 0.37486 0.40342 0.0
H5102 H 0.0598 0.40107 0.41693 0.0
H5103 H 0.05978 0.40658 0.46952 0.0
H5104 H 0.06173 0.48457 0.49911 0.0
H5105 H 0.06573 0.45935 0.48533 0.0
H5106 H 0.03817 0.44219 0.43854 0.0
C5107 C 0.05693 0.39122 0.42308 0.0
C5108 C 0.05487 0.41415 0.46264 0.0
C5109 C 0.05793 0.37621 0.41541 0.0
C5110 C 0.05312 0.47809 0.48983 0.0
C5111 C 0.05537 0.46358 0.48198 0.0
C5112 C 0.04272 0.43445 0.44548 0.0
C5113 C 0.05229 0.39346 0.43846 0.0
C5114 C 0.05065 0.40933 0.44643 0.0
C5115 C 0.0445 0.45479 0.46986 0.0
C5116 C 0.04675 0.43919 0.46174 0.0
H5117 H 0.04756 0.35559 0.44477 0.0
H5118 H 0.04518 0.38162 0.45788 0.0
H5119 H 0.04102 0.41628 0.42547 0.0
H5120 H 0.01901 0.47996 0.46995 0.0
H5121 H 0.02267 0.45439 0.45655 0.0
C5122 C 0.42921 0.24703 0.19854 0.0
C5123 C 0.42596 0.25039 0.18343 0.0
C5124 C 0.41759 0.2454 0.20885 0.0
C5125 C 0.39408 0.25505 0.23108 0.0
H5126 H 0.35134 0.23679 0.21608 0.0
C5127 C 0.34237 0.27651 0.25806 0.0
C5128 C 0.32831 0.26596 0.2578 0.0
C5129 C 0.35514 0.27131 0.25169 0.0
C5130 C 0.36325 0.24164 0.22059 0.0
H5131 H 0.40787 0.25413 0.16708 0.0
H5132 H 0.38767 0.25169 0.18519 0.0
H5133 H 0.37186 0.23313 0.19883 0.0
H5134 H 0.31689 0.24147 0.25163 0.0
H5135 H 0.33931 0.2324 0.24045 0.0
H5136 H 0.38542 0.26388 0.25271 0.0
C5137 C 0.39915 0.2501 0.18901 0.0
C5138 C 0.37497 0.23972 0.21062 0.0
C5139 C 0.41077 0.25174 0.17872 0.0
C5140 C 0.32755 0.24991 0.25192 0.0
C5141 C 0.34035 0.24472 0.24546 0.0
C5142 C 0.38235 0.25696 0.24105 0.0
C5143 C 0.40247 0.24709 0.20425 0.0
C5144 C 0.39043 0.24687 0.21558 0.0
C5145 C 0.35412 0.25546 0.2449 0.0
C5146 C 0.36677 0.25075 0.2357 0.0
H5147 H 0.44085 0.24605 0.20256 0.0
H5148 H 0.42047 0.243 0.22048 0.0
H5149 H 0.40588 0.26075 0.23524 0.0
H5150 H 0.34337 0.28893 0.26262 0.0
H5151 H 0.36552 0.27993 0.25129 0.0
C5152 C 0.60981 0.50493 0.35582 0.0
C5153 C 0.61251 0.51751 0.3472 0.0
C5154 C 0.60251 0.50622 0.37015 0.0
C5155 C 0.59055 0.53629 0.40241 0.0
H5156 H 0.56752 0.49919 0.4153 0.0
C5157 C 0.56601 0.5396 0.46513 0.0
C5158 C 0.55259 0.529 0.46758 0.0
C5159 C 0.57301 0.53817 0.45066 0.0
C5160 C 0.57375 0.50982 0.412 0.0
H5161 H 0.60879 0.54143 0.34769 0.0
H5162 H 0.59629 0.54362 0.37215 0.0
H5163 H 0.57955 0.49686 0.39052 0.0
H5164 H 0.53629 0.50838 0.45588 0.0
H5165 H 0.54816 0.50601 0.43086 0.0
H5166 H 0.58446 0.54931 0.42368 0.0
C5167 C 0.6001 0.5327 0.36807 0.0
C5168 C 0.58096 0.50843 0.39762 0.0
C5169 C 0.60741 0.53142 0.35376 0.0
C5170 C 0.54653 0.51688 0.45475 0.0
C5171 C 0.55354 0.51544 0.44024 0.0
C5172 C 0.58335 0.53768 0.41678 0.0
C5173 C 0.59745 0.52016 0.37673 0.0
C5174 C 0.58959 0.52163 0.39238 0.0
C5175 C 0.56701 0.52604 0.43776 0.0
C5176 C 0.57474 0.52449 0.42204 0.0
H5177 H 0.61361 0.49402 0.35169 0.0
H5178 H 0.60113 0.49622 0.37622 0.0
H5179 H 0.59709 0.54688 0.39932 0.0
H5180 H 0.57129 0.54907 0.47453 0.0
H5181 H 0.58341 0.54655 0.44978 0.0
C5182 C 0.27381 0.89274 0.08597 0.0
C5183 C 0.26879 0.88586 0.07027 0.0
C5184 C 0.27519 0.88334 0.09746 0.0
C5185 C 0.28016 0.84334 0.10218 0.0
H5186 H 0.2671 0.85488 0.14389 0.0
C5187 C 0.27993 0.8028 0.14891 0.0
C5188 C 0.28505 0.80999 0.16451 0.0
C5189 C 0.27747 0.8119 0.1374 0.0
C5190 C 0.27096 0.85158 0.13235 0.0
H5191 H 0.26131 0.86369 0.05434 0.0
H5192 H 0.26353 0.84729 0.07443 0.0
H5193 H 0.26357 0.87103 0.12385 0.0
H5194 H 0.29177 0.83242 0.18018 0.0
H5195 H 0.28757 0.8483 0.1601 0.0
H5196 H 0.28767 0.82399 0.11068 0.0
C5197 C 0.2665 0.85996 0.07783 0.0
C5198 C 0.26892 0.86083 0.12086 0.0
C5199 C 0.26506 0.86936 0.06635 0.0
C5200 C 0.28761 0.8265 0.16833 0.0
C5201 C 0.28518 0.83561 0.15682 0.0
C5202 C 0.28222 0.83411 0.11367 0.0
C5203 C 0.27164 0.86683 0.09351 0.0
C5204 C 0.27353 0.85684 0.10565 0.0
C5205 C 0.2801 0.82842 0.1412 0.0
C5206 C 0.27769 0.83813 0.12891 0.0
H5207 H 0.27663 0.90541 0.08941 0.0
H5208 H 0.27932 0.88901 0.1094 0.0
H5209 H 0.28405 0.84008 0.09065 0.0
H5210 H 0.27762 0.7901 0.14564 0.0
H5211 H 0.27332 0.80597 0.12556 0.0
C5212 C 0.94721 0.55356 0.87183 0.0
C5213 C 0.95118 0.54509 0.85794 0.0
C5214 C 0.95649 0.55527 0.88592 0.0
C5215 C 0.9848 0.53538 0.90403 0.0
H5216 H 0.99038 0.57167 0.93737 0.0
C5217 C 0.02397 0.53998 0.96069 0.0
C5218 C 0.01747 0.54422 0.97489 0.0
C5219 C 0.01671 0.54149 0.94637 0.0
C5220 C 0.98883 0.56145 0.92816 0.0
H5221 H 0.96837 0.53278 0.84747 0.0
H5222 H 0.98489 0.53621 0.87189 0.0
H5223 H 0.97673 0.57239 0.91206 0.0
H5224 H 0.99843 0.5538 0.98516 0.0
H5225 H 0.98577 0.55641 0.96004 0.0
H5226 H 0.99692 0.52447 0.92007 0.0
C5227 C 0.97437 0.54106 0.87212 0.0
C5228 C 0.98101 0.56183 0.91369 0.0
C5229 C 0.965 0.53917 0.85812 0.0
C5230 C 1.0037 0.55033 0.97444 0.0
C5231 C 0.99651 0.55195 0.96009 0.0
C5232 C 0.99271 0.53505 0.91839 0.0
C5233 C 0.96999 0.54869 0.88629 0.0
C5234 C 0.97887 0.54877 0.90148 0.0
C5235 C 1.00286 0.54737 0.94592 0.0
C5236 C 0.99475 0.54804 0.93061 0.0
H5237 H 0.93654 0.55814 0.87195 0.0
H5238 H 0.9527 0.56111 0.89662 0.0
H5239 H 0.98303 0.52494 0.89506 0.0
H5240 H 0.03456 0.53527 0.96056 0.0
H5241 H 0.02193 0.53801 0.93562 0.0
C5242 C 0.26854 0.23367 0.5911 0.0
C5243 C 0.28193 0.23145 0.58356 0.0
C5244 C 0.26965 0.24016 0.60709 0.0
C5245 C 0.29353 0.24308 0.64351 0.0
H5246 H 0.27243 0.27677 0.65975 0.0
C5247 C 0.29901 0.26814 0.70992 0.0
C5248 C 0.28583 0.27255 0.71646 0.0
C5249 C 0.2993 0.26446 0.69359 0.0
C5250 C 0.27823 0.26721 0.65547 0.0
H5251 H 0.30696 0.23434 0.58676 0.0
H5252 H 0.30888 0.24545 0.61481 0.0
H5253 H 0.27122 0.26783 0.63139 0.0
H5254 H 0.26261 0.27654 0.71101 0.0
H5255 H 0.26285 0.26952 0.68266 0.0
H5256 H 0.30001 0.24185 0.66743 0.0
C5257 C 0.29756 0.24228 0.6083 0.0
C5258 C 0.27759 0.26217 0.6392 0.0
C5259 C 0.29647 0.23605 0.59225 0.0
C5260 C 0.273 0.27331 0.70633 0.0
C5261 C 0.27319 0.26937 0.69002 0.0
C5262 C 0.29396 0.24792 0.65977 0.0
C5263 C 0.28415 0.24429 0.61589 0.0
C5264 C 0.28521 0.25004 0.63308 0.0
C5265 C 0.28632 0.26481 0.6834 0.0
C5266 C 0.28628 0.26003 0.66601 0.0
H5267 H 0.2572 0.23027 0.58464 0.0
H5268 H 0.25914 0.2415 0.61268 0.0
H5269 H 0.29934 0.23355 0.63909 0.0
H5270 H 0.30914 0.2676 0.71742 0.0
H5271 H 0.30976 0.26135 0.68899 0.0
C5272 C 0.60173 0.49999 0.17526 0.0
C5273 C 0.61154 0.51294 0.18499 0.0
C5274 C 0.59466 0.5013 0.16042 0.0
C5275 C 0.58486 0.53132 0.13555 0.0
H5276 H 0.57695 0.4956 0.10159 0.0
C5277 C 0.54932 0.53308 0.07566 0.0
C5278 C 0.55297 0.52473 0.06139 0.0
C5279 C 0.55625 0.5316 0.0905 0.0
C5280 C 0.5791 0.50583 0.1108 0.0
H5281 H 0.62149 0.53756 0.18554 0.0
H5282 H 0.60924 0.53981 0.16023 0.0
H5283 H 0.58927 0.49325 0.12694 0.0
H5284 H 0.56708 0.50801 0.0522 0.0
H5285 H 0.57903 0.50545 0.0777 0.0
H5286 H 0.57487 0.54397 0.11937 0.0
C5287 C 0.60675 0.52857 0.16417 0.0
C5288 C 0.5861 0.5044 0.12563 0.0
C5289 C 0.61387 0.52725 0.17896 0.0
C5290 C 0.56381 0.51471 0.06271 0.0
C5291 C 0.57067 0.51315 0.07755 0.0
C5292 C 0.57776 0.53272 0.12077 0.0
C5293 C 0.59694 0.51564 0.15447 0.0
C5294 C 0.58922 0.51712 0.13841 0.0
C5295 C 0.56713 0.52159 0.09186 0.0
C5296 C 0.57472 0.52003 0.10796 0.0
H5297 H 0.59921 0.48875 0.17918 0.0
H5298 H 0.58711 0.49099 0.15372 0.0
H5299 H 0.58673 0.54147 0.14486 0.0
H5300 H 0.54108 0.54092 0.07541 0.0
H5301 H 0.55285 0.53823 0.10097 0.0
C5302 C 0.27832 0.88581 0.91671 0.0
C5303 C 0.26762 0.88124 0.92738 0.0
C5304 C 0.27987 0.87549 0.90306 0.0
C5305 C 0.27249 0.83327 0.88525 0.0
H5306 H 0.28018 0.85013 0.84692 0.0
C5307 C 0.27644 0.7952 0.82387 0.0
C5308 C 0.28791 0.80156 0.81473 0.0
C5309 C 0.27369 0.80392 0.83819 0.0
C5310 C 0.27819 0.84524 0.85756 0.0
H5311 H 0.25006 0.86215 0.93194 0.0
H5312 H 0.25255 0.84418 0.90786 0.0
H5313 H 0.27514 0.86733 0.87026 0.0
H5314 H 0.30613 0.82162 0.81402 0.0
H5315 H 0.30144 0.83659 0.83886 0.0
H5316 H 0.27552 0.81109 0.87234 0.0
C5317 C 0.25988 0.85573 0.9102 0.0
C5318 C 0.2753 0.85512 0.87097 0.0
C5319 C 0.25832 0.8661 0.92391 0.0
C5320 C 0.29708 0.8164 0.82063 0.0
C5321 C 0.29432 0.82507 0.83485 0.0
C5322 C 0.27534 0.82332 0.87175 0.0
C5323 C 0.27071 0.86029 0.89962 0.0
C5324 C 0.27267 0.84936 0.88508 0.0
C5325 C 0.28232 0.81915 0.8436 0.0
C5326 C 0.27849 0.82928 0.85783 0.0
H5327 H 0.28555 0.89742 0.91889 0.0
H5328 H 0.28847 0.87937 0.89532 0.0
H5329 H 0.27063 0.82844 0.89594 0.0
H5330 H 0.26913 0.78382 0.81964 0.0
H5331 H 0.26435 0.79903 0.84467 0.0
C5332 C 0.92754 0.49586 0.69743 0.0
C5333 C 0.9363 0.50292 0.71169 0.0
C5334 C 0.93486 0.49272 0.68365 0.0
C5335 C 0.9522 0.49916 0.65541 0.0
H5336 H 0.99254 0.487 0.65512 0.0
C5337 C 0.99333 0.51213 0.60802 0.0
C5338 C 1.00237 0.50101 0.60256 0.0
C5339 C 0.98427 0.51005 0.62053 0.0
C5340 C 0.98118 0.49018 0.65493 0.0
H5341 H 0.95965 0.51145 0.72282 0.0
H5342 H 0.97237 0.50646 0.69873 0.0
H5343 H 0.97848 0.48656 0.67864 0.0
H5344 H 0.00877 0.47881 0.6057 0.0
H5345 H 0.99287 0.47513 0.62762 0.0
H5346 H 0.95488 0.50277 0.63172 0.0
C5347 C 0.95986 0.50318 0.6982 0.0
C5348 C 0.9732 0.4901 0.66846 0.0
C5349 C 0.95256 0.50626 0.71197 0.0
C5350 C 1.00206 0.48767 0.60979 0.0
C5351 C 0.99296 0.48556 0.62232 0.0
C5352 C 0.96015 0.4992 0.64188 0.0
C5353 C 0.95108 0.49662 0.68382 0.0
C5354 C 0.95878 0.49492 0.66896 0.0
C5355 C 0.98402 0.49677 0.62786 0.0
C5356 C 0.97488 0.49506 0.64161 0.0
H5357 H 0.915 0.49322 0.69678 0.0
H5358 H 0.92778 0.48747 0.67281 0.0
H5359 H 0.94118 0.50307 0.65542 0.0
H5360 H 0.99353 0.52266 0.60286 0.0
H5361 H 0.97778 0.51907 0.62472 0.0
C5362 C 0.29815 0.23059 0.4249 0.0
C5363 C 0.28462 0.2206 0.42779 0.0
C5364 C 0.29916 0.23617 0.41061 0.0
C5365 C 0.28262 0.22705 0.36936 0.0
H5366 H 0.29917 0.27094 0.36852 0.0
C5367 C 0.2771 0.25399 0.31303 0.0
C5368 C 0.28949 0.26536 0.31003 0.0
C5369 C 0.2771 0.24844 0.32734 0.0
C5370 C 0.29473 0.2586 0.36851 0.0
H5371 H 0.26162 0.20858 0.4179 0.0
H5372 H 0.26336 0.21839 0.393 0.0
H5373 H 0.29804 0.26155 0.39367 0.0
H5374 H 0.31174 0.27961 0.31967 0.0
H5375 H 0.31187 0.26969 0.34454 0.0
H5376 H 0.27939 0.224 0.34425 0.0
C5377 C 0.27319 0.22185 0.40177 0.0
C5378 C 0.29405 0.25324 0.38294 0.0
C5379 C 0.27213 0.21637 0.4161 0.0
C5380 C 0.30197 0.27091 0.32162 0.0
C5381 C 0.302 0.26529 0.33593 0.0
C5382 C 0.28338 0.23237 0.35494 0.0
C5383 C 0.28673 0.23178 0.39885 0.0
C5384 C 0.28787 0.23743 0.38352 0.0
C5385 C 0.28953 0.25403 0.33899 0.0
C5386 C 0.28932 0.24825 0.35433 0.0
H5387 H 0.30792 0.23414 0.43373 0.0
H5388 H 0.30978 0.24373 0.40866 0.0
H5389 H 0.27803 0.21474 0.3694 0.0
H5390 H 0.26726 0.24948 0.3044 0.0
H5391 H 0.26719 0.23996 0.32936 0.0
C5392 C 0.38731 0.5997 0.51099 0.0
C5393 C 0.37439 0.59 0.51552 0.0
C5394 C 0.40145 0.59453 0.50937 0.0
C5395 C 0.42298 0.56369 0.51997 0.0
H5396 H 0.44956 0.57726 0.48846 0.0
C5397 C 0.47662 0.53624 0.50479 0.0
C5398 C 0.49059 0.54671 0.50409 0.0
C5399 C 0.46251 0.54155 0.50545 0.0
C5400 C 0.44232 0.57345 0.49739 0.0
H5401 H 0.36623 0.5671 0.52163 0.0
H5402 H 0.39064 0.55786 0.51839 0.0
H5403 H 0.42489 0.58617 0.49104 0.0
H5404 H 0.50042 0.57102 0.50304 0.0
H5405 H 0.47569 0.5802 0.50389 0.0
H5406 H 0.44031 0.5507 0.52604 0.0
C5407 C 0.39007 0.56968 0.5165 0.0
C5408 C 0.42815 0.57861 0.49894 0.0
C5409 C 0.37598 0.57495 0.51832 0.0
C5410 C 0.48993 0.56257 0.50348 0.0
C5411 C 0.47573 0.56785 0.50397 0.0
C5412 C 0.43704 0.55839 0.51827 0.0
C5413 C 0.40308 0.5794 0.51205 0.0
C5414 C 0.41823 0.57384 0.51028 0.0
C5415 C 0.46188 0.55746 0.50527 0.0
C5416 C 0.4469 0.56318 0.50697 0.0
H5417 H 0.38657 0.61145 0.50896 0.0
H5418 H 0.41117 0.60255 0.50626 0.0
H5419 H 0.41596 0.55999 0.52909 0.0
H5420 H 0.4766 0.52396 0.50532 0.0
H5421 H 0.45204 0.53318 0.50623 0.0
C5422 C 0.87536 0.94486 0.52962 0.0
C5423 C 0.87324 0.92955 0.53315 0.0
C5424 C 0.89025 0.95358 0.52959 0.0
C5425 C 0.93167 0.95595 0.5429 0.0
H5426 H 0.93829 0.98147 0.51015 0.0
C5427 C 0.99233 0.98789 0.52956 0.0
C5428 C 0.99312 1.0035 0.52707 0.0
C5429 C 0.97803 0.97849 0.53105 0.0
C5430 C 0.9366 0.97449 0.51944 0.0
H5431 H 0.88505 0.91144 0.53962 0.0
H5432 H 0.91115 0.9266 0.53932 0.0
H5433 H 0.91281 0.96573 0.51129 0.0
H5434 H 0.97951 0.02154 0.52455 0.0
H5435 H 0.95471 1.00517 0.52706 0.0
H5436 H 0.95567 0.96467 0.55083 0.0
C5437 C 0.90129 0.93197 0.53682 0.0
C5438 C 0.92197 0.9655 0.52014 0.0
C5439 C 0.88634 0.92326 0.53698 0.0
C5440 C 0.97936 0.00957 0.52641 0.0
C5441 C 0.96511 1.00017 0.52775 0.0
C5442 C 0.94639 0.96489 0.54211 0.0
C5443 C 0.90342 0.94718 0.53293 0.0
C5444 C 0.91924 0.95627 0.53199 0.0
C5445 C 0.96426 0.98448 0.52991 0.0
C5446 C 0.94893 0.9744 0.53048 0.0
H5447 H 0.86548 0.95011 0.5269 0.0
H5448 H 0.89142 0.96539 0.52693 0.0
H5449 H 0.92996 0.94908 0.55226 0.0
H5450 H 1.00272 0.98286 0.53015 0.0
H5451 H 0.9777 0.96642 0.53265 0.0
C5452 C 0.85429 0.12728 0.25905 0.0
C5453 C 0.86918 0.12787 0.26669 0.0
C5454 C 0.84734 0.14086 0.25934 0.0
C5455 C 0.85576 0.18645 0.27117 0.0
H5456 H 0.81137 0.18135 0.26245 0.0
C5457 C 0.82597 0.24224 0.26773 0.0
C5458 C 0.80997 0.24152 0.26962 0.0
C5459 C 0.83313 0.22877 0.26739 0.0
C5460 C 0.82379 0.18333 0.26514 0.0
H5461 H 0.88805 0.14465 0.28066 0.0
H5462 H 0.87598 0.16758 0.28167 0.0
H5463 H 0.82323 0.1584 0.26236 0.0
H5464 H 0.7893 0.22521 0.2728 0.0
H5465 H 0.80152 0.20232 0.27274 0.0
H5466 H 0.85625 0.21141 0.27452 0.0
C5467 C 0.86959 0.15658 0.27507 0.0
C5468 C 0.83081 0.16979 0.26482 0.0
C5469 C 0.87659 0.14302 0.27468 0.0
C5470 C 0.80158 0.2266 0.27127 0.0
C5471 C 0.80874 0.21317 0.27108 0.0
C5472 C 0.84873 0.2 0.2716 0.0
C5473 C 0.85471 0.156 0.2674 0.0
C5474 C 0.84705 0.17085 0.2678 0.0
C5475 C 0.82475 0.21374 0.26903 0.0
C5476 C 0.83249 0.19893 0.26859 0.0
H5477 H 0.8477 0.11621 0.25283 0.0
H5478 H 0.83608 0.13933 0.25297 0.0
H5479 H 0.86824 0.1884 0.27338 0.0
H5480 H 0.83305 0.25327 0.26625 0.0
H5481 H 0.84532 0.23024 0.26553 0.0
C5482 C 0.70548 0.09065 0.02592 0.0
C5483 C 0.71509 0.08174 0.01735 0.0
C5484 C 0.68938 0.08561 0.02464 0.0
C5485 C 0.65648 0.0629 0.9986 0.0
H5486 H 0.6358 0.05985 0.03676 0.0
C5487 C 0.59033 0.03843 0.99674 0.0
C5488 C 0.58217 0.04406 0.00928 0.0
C5489 C 0.60652 0.0428 0.99734 0.0
C5490 C 0.64125 0.06091 0.02595 0.0
H5491 H 0.71483 0.06044 1.0005 0.0
H5492 H 0.68664 0.05211 0.9978 0.0
H5493 H 0.66385 0.06797 0.0384 0.0
H5494 H 0.58456 0.05923 0.032 0.0
H5495 H 0.61249 0.06751 0.03273 0.0
H5496 H 0.63394 0.05652 0.98611 0.0
C5497 C 0.69177 0.06293 0.00565 0.0
C5498 C 0.6574 0.06544 0.02693 0.0
C5499 C 0.70795 0.06779 0.00717 0.0
C5500 C 0.59051 0.05453 0.02222 0.0
C5501 C 0.60663 0.05916 0.02268 0.0
C5502 C 0.64025 0.05867 0.99761 0.0
C5503 C 0.68233 0.07173 0.01449 0.0
C5504 C 0.66519 0.0665 0.01328 0.0
C5505 C 0.61497 0.05318 0.01038 0.0
C5506 C 0.63234 0.05762 0.01129 0.0
H5507 H 0.71029 0.1017 0.03352 0.0
H5508 H 0.68237 0.09275 0.03143 0.0
H5509 H 0.66218 0.06376 0.98789 0.0
H5510 H 0.58426 0.03024 0.98666 0.0
H5511 H 0.6124 0.0377 0.98771 0.0
C5512 C 0.20584 0.46376 0.29205 0.0
C5513 C 0.2023 0.46668 0.27685 0.0
C5514 C 0.21571 0.45331 0.29443 0.0
C5515 C 0.23349 0.42147 0.27353 0.0
H5516 H 0.26425 0.43351 0.30945 0.0
C5517 C 0.28402 0.38884 0.27994 0.0
C5518 C 0.28619 0.38398 0.29453 0.0
C5519 C 0.27446 0.3997 0.27815 0.0
C5520 C 0.25566 0.42998 0.29943 0.0
H5521 H 0.20617 0.46094 0.25221 0.0
H5522 H 0.22351 0.44284 0.25634 0.0
H5523 H 0.24538 0.45026 0.30556 0.0
H5524 H 0.28077 0.38725 0.31887 0.0
H5525 H 0.26405 0.40632 0.31574 0.0
H5526 H 0.24393 0.40131 0.26731 0.0
C5527 C 0.21845 0.44834 0.26641 0.0
C5528 C 0.2448 0.4395 0.29723 0.0
C5529 C 0.2085 0.45869 0.26402 0.0
C5530 C 0.27921 0.39074 0.30748 0.0
C5531 C 0.26973 0.4017 0.30571 0.0
C5532 C 0.24441 0.41203 0.27567 0.0
C5533 C 0.22233 0.44568 0.28166 0.0
C5534 C 0.2336 0.43536 0.28424 0.0
C5535 C 0.26696 0.40596 0.29093 0.0
C5536 C 0.25562 0.41621 0.28862 0.0
H5537 H 0.20109 0.46967 0.30212 0.0
H5538 H 0.21824 0.45129 0.30628 0.0
H5539 H 0.22487 0.4178 0.26355 0.0
H5540 H 0.28913 0.38371 0.26972 0.0
H5541 H 0.27266 0.40294 0.26668 0.0
C5542 C 0.21791 0.42361 0.01045 0.0
C5543 C 0.22221 0.41964 0.02501 0.0
C5544 C 0.20483 0.43039 0.00854 0.0
C5545 C 0.17784 0.45165 0.0307 0.0
H5546 H 0.15168 0.43865 0.99146 0.0
C5547 C 0.11995 0.47299 0.02022 0.0
C5548 C 0.11766 0.47815 0.00577 0.0
C5549 C 0.13208 0.46505 0.0229 0.0
C5550 C 0.15892 0.44246 1.00244 0.0
H5551 H 0.21619 0.41971 0.04902 0.0
H5552 H 0.19324 0.43145 0.04567 0.0
H5553 H 0.17418 0.42656 0.99565 0.0
H5554 H 0.12645 0.47901 0.98286 0.0
H5555 H 0.14737 0.46499 0.98747 0.0
H5556 H 0.16251 0.46755 0.03746 0.0
C5557 C 0.20011 0.42952 0.03578 0.0
C5558 C 0.17185 0.43558 1.00484 0.0
C5559 C 0.21326 0.42279 0.0377 0.0
C5560 C 0.12764 0.47494 0.99401 0.0
C5561 C 0.13969 0.46693 0.99666 0.0
C5562 C 0.16486 0.45849 0.02833 0.0
C5563 C 0.19569 0.4333 0.02114 0.0
C5564 C 0.18158 0.44021 0.01892 0.0
C5565 C 0.14212 0.46201 0.01117 0.0
C5566 C 0.15536 0.45409 0.0141 0.0
H5567 H 0.22473 0.42158 1.00053 0.0
H5568 H 0.20197 0.43347 0.99721 0.0
H5569 H 0.18518 0.45562 0.04161 0.0
H5570 H 0.11236 0.47507 0.02946 0.0
H5571 H 0.13357 0.46122 0.03414 0.0
C5572 C 0.848 0.95724 0.26301 0.0
C5573 C 0.86393 0.96153 0.26084 0.0
C5574 C 0.84098 0.94143 0.26331 0.0
C5575 C 0.84697 0.89907 0.25279 0.0
H5576 H 0.81327 0.89023 0.27894 0.0
C5577 C 0.82119 0.834 0.26064 0.0
C5578 C 0.80541 0.82992 0.26335 0.0
C5579 C 0.82827 0.8498 0.26031 0.0
C5580 C 0.82251 0.8923 0.27134 0.0
H5581 H 0.88474 0.95163 0.25763 0.0
H5582 H 0.87265 0.9245 0.25805 0.0
H5583 H 0.82524 0.91737 0.27836 0.0
H5584 H 0.78488 0.83993 0.26773 0.0
H5585 H 0.79695 0.86704 0.26694 0.0
H5586 H 0.84422 0.87401 0.24571 0.0
C5587 C 0.86541 0.93335 0.25926 0.0
C5588 C 0.82949 0.90811 0.27102 0.0
C5589 C 0.87244 0.94915 0.259 0.0
C5590 C 0.79704 0.84235 0.26567 0.0
C5591 C 0.8041 0.85813 0.26533 0.0
C5592 C 0.83998 0.88326 0.25308 0.0
C5593 C 0.8495 0.92906 0.26142 0.0
C5594 C 0.84191 0.91192 0.26174 0.0
C5595 C 0.81992 0.86229 0.26267 0.0
C5596 C 0.82755 0.87943 0.26237 0.0
H5597 H 0.84075 0.96608 0.26424 0.0
H5598 H 0.82869 0.93891 0.26475 0.0
H5599 H 0.85625 0.90117 0.24522 0.0
H5600 H 0.8282 0.82496 0.25884 0.0
H5601 H 0.84047 0.85218 0.25845 0.0
C5602 C 0.74698 0.10938 0.76501 0.0
C5603 C 0.73885 0.10315 0.7503 0.0
C5604 C 0.75826 0.12302 0.7668 0.0
C5605 C 0.77951 0.15292 0.74531 0.0
H5606 H 0.7705 0.18188 0.7809 0.0
C5607 C 0.78353 0.21916 0.74635 0.0
C5608 C 0.78655 0.22948 0.76084 0.0
C5609 C 0.78309 0.20306 0.74572 0.0
C5610 C 0.77354 0.17396 0.77112 0.0
H5611 H 0.73656 0.1054 0.72574 0.0
H5612 H 0.7559 0.12964 0.72887 0.0
H5613 H 0.76019 0.15412 0.77855 0.0
H5614 H 0.79298 0.23124 0.78581 0.0
H5615 H 0.79241 0.20318 0.78464 0.0
H5616 H 0.79221 0.17313 0.73753 0.0
C5617 C 0.75395 0.12387 0.73898 0.0
C5618 C 0.76761 0.15795 0.76976 0.0
C5619 C 0.74282 0.11005 0.73716 0.0
C5620 C 0.79028 0.22355 0.7745 0.0
C5621 C 0.78997 0.20747 0.77384 0.0
C5622 C 0.78545 0.16902 0.74667 0.0
C5623 C 0.76131 0.13086 0.75396 0.0
C5624 C 0.77012 0.14728 0.75662 0.0
C5625 C 0.78579 0.19698 0.75954 0.0
C5626 C 0.78212 0.17976 0.75936 0.0
H5627 H 0.74408 0.10409 0.77526 0.0
H5628 H 0.76396 0.12791 0.77841 0.0
H5629 H 0.78182 0.14497 0.73516 0.0
H5630 H 0.78065 0.22336 0.7356 0.0
H5631 H 0.77968 0.1953 0.73453 0.0
loop_
_geom_bond_atom_site_label_1
_geom_bond_atom_site_label_2
_geom_bond_distance
_geom_bond_site_symmetry_2
_ccdc_geom_bond_type
Li0 N17 1.990 . S
Li0 O60 1.956 . S
Li0 O61 1.970 . S
Li0 O62 1.961 . S
Li1 N25 1.990 . S
Li1 O60 1.970 . S
Li1 O61 1.956 . S
Li1 O63 1.961 . S
Li2 N47 1.990 . S
Li2 O60 1.961 . S
Li2 O62 1.956 . S
Li2 O63 1.970 . S
Li3 N53 1.990 . S
Li3 O61 1.961 . S
Li3 O62 1.970 . S
Li3 O63 1.956 . S
C4 C6 1.348 . S
C4 C7 1.356 . S
C4 O60 1.325 . S
N5 C8 1.314 . S
N5 C9 1.279 . S
C6 C4 1.348 . S
C6 C8 1.353 . S
C6 H64 0.929 . S
C7 C4 1.356 . S
C7 C9 1.358 . S
C7 H65 0.930 . S
C8 N5 1.314 . S
C8 C6 1.353 . S
C8 H66 0.930 . S
C9 N5 1.279 . S
C9 C7 1.358 . S
C9 H67 0.930 . S
C10 C13 1.348 . S
C10 C14 1.356 . S
C10 O61 1.325 . S
C11 N12 1.279 . S
C11 C14 1.358 . S
C11 H68 0.930 . S
N12 C11 1.279 . S
N12 C15 1.314 . S
C13 C10 1.348 . S
C13 C15 1.353 . S
C13 H69 0.929 . S
C14 C10 1.356 . S
C14 C11 1.358 . S
C14 H70 0.930 . S
C15 N12 1.314 . S
C15 C13 1.353 . S
C15 H71 0.930 1_455 S
C16 N17 1.314 . S
C16 C21 1.290 1_455 S
C16 H22 0.930 . S
N17 Li0 1.990 . S
N17 C16 1.314 . S
N17 C19 1.279 . S
C18 C19 1.358 . S
C18 C20 1.356 1_455 S
C18 H72 0.930 . S
C19 N17 1.279 . S
C19 C18 1.358 . S
C19 H23 0.930 . S
C20 C18 1.356 1_655 S
C20 C21 1.384 . S
C21 C16 1.290 1_655 S
C21 C20 1.384 . S
C21 H73 0.962 . S
H22 C16 0.930 . S
H23 C19 0.930 . S
C24 N25 1.314 . S
C24 C26 1.353 . S
C24 H30 0.930 . S
N25 Li1 1.990 . S
N25 C24 1.314 . S
N25 C28 1.279 . S
C26 C24 1.353 . S
C26 C29 1.348 . S
C26 H74 0.929 . S
C27 C28 1.358 . S
C27 C29 1.356 . S
C27 H75 0.930 . S
C28 N25 1.279 . S
C28 C27 1.358 . S
C28 H31 0.930 . S
C29 C26 1.348 . S
C29 C27 1.356 . S
H30 C24 0.930 . S
H31 C28 0.930 . S
C32 C34 1.348 . S
C32 C35 1.356 . S
C32 O62 1.325 . S
N33 C36 1.314 . S
N33 C37 1.279 . S
C34 C32 1.348 . S
C34 C36 1.353 . S
C34 H76 0.929 . S
C35 C32 1.356 . S
C35 C37 1.358 . S
C35 H77 0.930 . S
C36 N33 1.314 . S
C36 C34 1.353 . S
C36 H78 0.930 . S
C37 N33 1.279 . S
C37 C35 1.358 . S
C37 H79 0.930 . S
C38 C39 1.348 . S
C38 C40 1.356 . S
C38 O63 1.325 . S
C39 C38 1.348 . S
C39 C41 1.353 . S
C39 H80 0.929 . S
C40 C38 1.356 . S
C40 C42 1.358 . S
C40 H81 0.930 . S
C41 C39 1.353 . S
C41 N43 1.314 . S
C41 H82 0.930 . S
C42 C40 1.358 . S
C42 N43 1.279 . S
C42 H83 0.930 . S
N43 C41 1.314 . S
N43 C42 1.279 . S
C44 C46 1.353 . S
C44 N47 1.314 . S
C44 H50 0.930 . S
C45 N47 1.279 . S
C45 C48 1.358 . S
C45 H51 0.930 . S
C46 C44 1.353 . S
C46 C49 1.348 . S
C46 H84 0.929 . S
N47 Li2 1.990 . S
N47 C44 1.314 . S
N47 C45 1.279 . S
C48 C45 1.358 . S
C48 C49 1.356 . S
C48 H85 0.930 . S
C49 C46 1.348 . S
C49 C48 1.356 . S
H50 C44 0.930 . S
H51 C45 0.930 . S
C52 N53 1.314 . S
C52 C54 1.353 . S
C52 H58 0.930 . S
N53 Li3 1.990 . S
N53 C52 1.314 . S
N53 C56 1.279 . S
C54 C52 1.353 . S
C54 C57 1.348 . S
C54 H86 0.929 . S
C55 C56 1.358 . S
C55 C57 1.356 . S
C55 H87 0.930 . S
C56 N53 1.279 . S
C56 C55 1.358 . S
C56 H59 0.930 . S
C57 C54 1.348 . S
C57 C55 1.356 . S
H58 C52 0.930 . S
H59 C56 0.930 . S
O60 Li0 1.956 . S
O60 Li1 1.970 . S
O60 Li2 1.961 . S
O60 C4 1.325 . S
O61 Li0 1.970 . S
O61 Li1 1.956 . S
O61 Li3 1.961 . S
O61 C10 1.325 . S
O62 Li0 1.961 . S
O62 Li2 1.956 . S
O62 Li3 1.970 . S
O62 C32 1.325 . S
O63 Li1 1.961 . S
O63 Li2 1.970 . S
O63 Li3 1.956 . S
O63 C38 1.325 . S
H64 C6 0.929 . S
H65 C7 0.930 . S
H66 C8 0.930 . S
H67 C9 0.930 . S
H68 C11 0.930 . S
H69 C13 0.929 . S
H70 C14 0.930 . S
H71 C15 0.930 1_655 S
H72 C18 0.930 . S
H73 C21 0.962 . S
H74 C26 0.929 . S
H75 C27 0.930 . S
H76 C34 0.929 . S
H77 C35 0.930 . S
H78 C36 0.930 . S
H79 C37 0.930 . S
H80 C39 0.929 . S
H81 C40 0.930 . S
H82 C41 0.930 . S
H83 C42 0.930 . S
H84 C46 0.929 . S
H85 C48 0.930 . S
H86 C54 0.929 . S
H87 C55 0.930 . S
Li88 N105 1.990 . S
Li88 O148 1.956 . S
Li88 O149 1.970 . S
Li88 O150 1.961 1_455 S
Li89 N113 1.990 . S
Li89 O148 1.970 . S
Li89 O149 1.956 . S
Li89 O151 1.942 1_455 S
Li90 N135 1.990 . S
Li90 O148 1.961 1_655 S
Li90 O150 1.956 . S
Li90 O151 1.971 . S
Li91 N141 1.990 . S
Li91 O149 1.961 1_655 S
Li91 O150 1.970 . S
Li91 O151 1.981 . S
C92 C94 1.348 . S
C92 C95 1.356 . S
C92 O148 1.325 . S
N93 C96 1.314 . S
N93 C97 1.279 . S
C94 C92 1.348 . S
C94 C96 1.353 . S
C94 H152 0.929 . S
C95 C92 1.356 . S
C95 C97 1.358 . S
C95 H153 0.930 . S
C96 N93 1.314 . S
C96 C94 1.353 . S
C96 H154 0.930 . S
C97 N93 1.279 . S
C97 C95 1.358 . S
C97 H155 0.930 . S
C98 C101 1.348 . S
C98 C102 1.356 . S
C98 O149 1.325 . S
C99 N100 1.279 . S
C99 C102 1.358 . S
C99 H156 0.930 . S
N100 C99 1.279 . S
N100 C103 1.314 . S
C101 C98 1.348 . S
C101 C103 1.353 . S
C101 H157 0.929 . S
C102 C98 1.356 . S
C102 C99 1.358 . S
C102 H158 0.922 1_455 S
C103 N100 1.314 . S
C103 C101 1.353 . S
C103 H159 0.930 . S
C104 N105 1.314 1_655 S
C104 C109 1.353 . S
C104 H110 0.930 . S
N105 Li88 1.990 . S
N105 C104 1.314 1_455 S
N105 C107 1.279 . S
C106 C107 1.358 . S
C106 C108 1.356 . S
C106 H160 0.930 . S
C107 N105 1.279 . S
C107 C106 1.358 . S
C107 H111 0.930 . S
C108 C106 1.356 . S
C108 C109 1.348 1_455 S
C109 C104 1.353 . S
C109 C108 1.348 1_655 S
C109 H161 0.929 . S
H110 C104 0.930 . S
H111 C107 0.930 . S
C112 N113 1.314 . S
C112 C114 1.353 . S
C112 H118 0.930 . S
N113 Li89 1.990 . S
N113 C112 1.314 . S
N113 C116 1.279 . S
C114 C112 1.353 . S
C114 C117 1.348 . S
C114 H162 0.929 . S
C115 C116 1.358 . S
C115 C117 1.356 . S
C115 H163 0.930 . S
C116 N113 1.279 . S
C116 C115 1.358 . S
C116 H119 0.930 . S
C117 C114 1.348 . S
C117 C115 1.356 . S
H118 C112 0.930 . S
H119 C116 0.930 . S
C120 C122 1.348 . S
C120 C123 1.356 . S
C120 O150 1.325 . S
N121 C124 1.314 . S
N121 C125 1.279 . S
C122 C120 1.348 . S
C122 C124 1.353 . S
C122 H164 0.929 . S
C123 C120 1.356 . S
C123 C125 1.358 . S
C123 H165 0.930 . S
C124 N121 1.314 . S
C124 C122 1.353 . S
C124 H166 0.930 . S
C125 N121 1.279 . S
C125 C123 1.358 . S
C125 H167 0.930 . S
C126 C127 1.348 . S
C126 C128 1.356 1_655 S
C126 O151 1.324 . S
C127 C126 1.348 . S
C127 C129 1.353 . S
C127 H168 0.929 . S
C128 C126 1.356 1_455 S
C128 C130 1.358 . S
C128 H169 0.930 . S
C129 C127 1.353 . S
C129 N131 1.314 . S
C129 H170 0.930 . S
C130 C128 1.358 . S
C130 N131 1.271 1_455 S
C130 H171 0.946 . S
N131 C129 1.314 . S
N131 C130 1.271 1_655 S
C132 C134 1.353 . S
C132 N135 1.314 1_455 S
C132 H138 0.930 . S
C133 N135 1.279 . S
C133 C136 1.358 . S
C133 H139 0.930 . S
C134 C132 1.353 . S
C134 C137 1.348 1_455 S
C134 H172 0.929 . S
N135 Li90 1.990 . S
N135 C132 1.314 1_655 S
N135 C133 1.279 . S
C136 C133 1.358 . S
C136 C137 1.356 . S
C136 H173 0.930 . S
C137 C134 1.348 1_655 S
C137 C136 1.356 . S
H138 C132 0.930 . S
H139 C133 0.930 . S
C140 N141 1.314 . S
C140 C142 1.353 . S
C140 H146 0.930 . S
N141 Li91 1.990 . S
N141 C140 1.314 . S
N141 C144 1.279 . S
C142 C140 1.353 . S
C142 C145 1.348 . S
C142 H174 0.929 . S
C143 C144 1.358 . S
C143 C145 1.356 . S
C143 H175 0.930 . S
C144 N141 1.279 . S
C144 C143 1.358 . S
C144 H147 0.930 . S
C145 C142 1.348 . S
C145 C143 1.356 . S
H146 C140 0.930 . S
H147 C144 0.930 . S
O148 Li88 1.956 . S
O148 Li89 1.970 . S
O148 Li90 1.961 1_455 S
O148 C92 1.325 . S
O149 Li88 1.970 . S
O149 Li89 1.956 . S
O149 Li91 1.961 1_455 S
O149 C98 1.325 . S
O150 Li88 1.961 1_655 S
O150 Li90 1.956 . S
O150 Li91 1.970 . S
O150 C120 1.325 . S
O151 Li89 1.942 1_655 S
O151 Li90 1.971 . S
O151 Li91 1.981 . S
O151 C126 1.324 . S
H152 C94 0.929 . S
H153 C95 0.930 . S
H154 C96 0.930 . S
H155 C97 0.930 . S
H156 C99 0.930 . S
H157 C101 0.929 . S
H158 C102 0.922 1_655 S
H159 C103 0.930 . S
H160 C106 0.930 . S
H161 C109 0.929 . S
H162 C114 0.929 . S
H163 C115 0.930 . S
H164 C122 0.929 . S
H165 C123 0.930 . S
H166 C124 0.930 . S
H167 C125 0.930 . S
H168 C127 0.929 . S
H169 C128 0.930 . S
H170 C129 0.930 . S
H171 C130 0.946 . S
H172 C134 0.929 . S
H173 C136 0.930 . S
H174 C142 0.929 . S
H175 C143 0.930 . S
Li176 N193 1.990 . S
Li176 O236 1.956 . S
Li176 O237 1.970 . S
Li176 O238 1.961 . S
Li177 N201 1.990 . S
Li177 O236 1.970 . S
Li177 O237 1.956 . S
Li177 O239 1.961 . S
Li178 N223 1.990 . S
Li178 O236 1.961 . S
Li178 O238 1.956 . S
Li178 O239 1.970 . S
Li179 N229 1.990 . S
Li179 O237 1.961 . S
Li179 O238 1.970 . S
Li179 O239 1.956 . S
C180 C182 1.348 . S
C180 C183 1.356 . S
C180 O236 1.325 . S
N181 C184 1.314 . S
N181 C185 1.279 . S
C182 C180 1.348 . S
C182 C184 1.353 . S
C182 H240 0.929 . S
C183 C180 1.356 . S
C183 C185 1.358 . S
C183 H241 0.930 . S
C184 N181 1.314 . S
C184 C182 1.353 . S
C184 H242 0.930 . S
C185 N181 1.279 . S
C185 C183 1.358 . S
C185 H243 0.930 . S
C186 C189 1.348 . S
C186 C190 1.356 . S
C186 O237 1.325 . S
C187 N188 1.279 . S
C187 C190 1.358 . S
C187 H244 0.930 . S
N188 C187 1.279 . S
N188 C191 1.314 . S
C189 C186 1.348 . S
C189 C191 1.353 . S
C189 H245 0.929 . S
C190 C186 1.356 . S
C190 C187 1.358 . S
C190 H246 0.930 . S
C191 N188 1.314 . S
C191 C189 1.353 . S
C191 H247 0.930 . S
C192 N193 1.314 . S
C192 C197 1.353 . S
C192 H198 0.930 . S
N193 Li176 1.990 . S
N193 C192 1.314 . S
N193 C195 1.279 . S
C194 C195 1.358 . S
C194 C196 1.356 . S
C194 H248 0.930 . S
C195 N193 1.279 . S
C195 C194 1.358 . S
C195 H199 0.930 . S
C196 C194 1.356 . S
C196 C197 1.348 . S
C197 C192 1.353 . S
C197 C196 1.348 . S
C197 H249 0.929 . S
H198 C192 0.930 . S
H199 C195 0.930 . S
C200 N201 1.314 . S
C200 C202 1.353 . S
C200 H206 0.930 . S
N201 Li177 1.990 . S
N201 C200 1.314 . S
N201 C204 1.279 . S
C202 C200 1.353 . S
C202 C205 1.348 . S
C202 H250 0.929 . S
C203 C204 1.358 . S
C203 C205 1.356 . S
C203 H251 0.930 . S
C204 N201 1.279 . S
C204 C203 1.358 . S
C204 H207 0.930 . S
C205 C202 1.348 . S
C205 C203 1.356 . S
H206 C200 0.930 . S
H207 C204 0.930 . S
C208 C210 1.348 . S
C208 C211 1.356 . S
C208 O238 1.325 . S
N209 C212 1.314 . S
N209 C213 1.279 . S
C210 C208 1.348 . S
C210 C212 1.353 . S
C210 H252 0.929 . S
C211 C208 1.356 . S
C211 C213 1.358 . S
C211 H253 0.930 . S
C212 N209 1.314 . S
C212 C210 1.353 . S
C212 H254 0.930 . S
C213 N209 1.279 . S
C213 C211 1.358 . S
C213 H255 0.930 . S
C214 C215 1.348 . S
C214 C216 1.356 . S
C214 O239 1.325 . S
C215 C214 1.348 . S
C215 C217 1.353 . S
C215 H256 0.929 . S
C216 C214 1.356 . S
C216 C218 1.358 . S
C216 H257 0.930 . S
C217 C215 1.353 . S
C217 N219 1.314 . S
C217 H258 0.930 . S
C218 C216 1.358 . S
C218 N219 1.279 . S
C218 H259 0.930 . S
N219 C217 1.314 . S
N219 C218 1.279 . S
C220 C222 1.353 . S
C220 N223 1.314 . S
C220 H226 0.930 . S
C221 N223 1.279 . S
C221 C224 1.358 . S
C221 H227 0.930 . S
C222 C220 1.353 . S
C222 C225 1.348 . S
C222 H260 0.929 . S
N223 Li178 1.990 . S
N223 C220 1.314 . S
N223 C221 1.279 . S
C224 C221 1.358 . S
C224 C225 1.356 . S
C224 H261 0.930 . S
C225 C222 1.348 . S
C225 C224 1.356 . S
H226 C220 0.930 . S
H227 C221 0.930 . S
C228 N229 1.314 . S
C228 C230 1.353 . S
C228 H234 0.930 . S
N229 Li179 1.990 . S
N229 C228 1.314 . S
N229 C232 1.279 . S
C230 C228 1.353 . S
C230 C233 1.348 . S
C230 H262 0.929 . S
C231 C232 1.358 . S
C231 C233 1.356 . S
C231 H263 0.930 . S
C232 N229 1.279 . S
C232 C231 1.358 . S
C232 H235 0.930 . S
C233 C230 1.348 . S
C233 C231 1.356 . S
H234 C228 0.930 . S
H235 C232 0.930 . S
O236 Li176 1.956 . S
O236 Li177 1.970 . S
O236 Li178 1.961 . S
O236 C180 1.325 . S
O237 Li176 1.970 . S
O237 Li177 1.956 . S
O237 Li179 1.961 . S
O237 C186 1.325 . S
O238 Li176 1.961 . S
O238 Li178 1.956 . S
O238 Li179 1.970 . S
O238 C208 1.325 . S
O239 Li177 1.961 . S
O239 Li178 1.970 . S
O239 Li179 1.956 . S
O239 C214 1.325 . S
H240 C182 0.929 . S
H241 C183 0.930 . S
H242 C184 0.930 . S
H243 C185 0.930 . S
H244 C187 0.930 . S
H245 C189 0.929 . S
H246 C190 0.930 . S
H247 C191 0.930 . S
H248 C194 0.930 . S
H249 C197 0.929 . S
H250 C202 0.929 . S
H251 C203 0.930 . S
H252 C210 0.929 . S
H253 C211 0.930 . S
H254 C212 0.930 . S
H255 C213 0.930 . S
H256 C215 0.929 . S
H257 C216 0.930 . S
H258 C217 0.930 . S
H259 C218 0.930 . S
H260 C222 0.929 . S
H261 C224 0.930 . S
H262 C230 0.929 . S
H263 C231 0.930 . S
Li264 N281 1.990 . S
Li264 O324 1.956 . S
Li264 O325 1.970 . S
Li264 O326 1.961 . S
Li265 N289 1.990 . S
Li265 O324 1.970 . S
Li265 O325 1.956 . S
Li265 O327 1.961 . S
Li266 N311 1.990 . S
Li266 O324 1.961 . S
Li266 O326 1.956 . S
Li266 O327 1.970 . S
Li267 N317 1.990 . S
Li267 O325 1.961 . S
Li267 O326 1.970 . S
Li267 O327 1.956 . S
C268 C270 1.348 . S
C268 C271 1.356 . S
C268 O324 1.325 . S
N269 C272 1.314 . S
N269 C273 1.279 . S
C270 C268 1.348 . S
C270 C272 1.353 . S
C270 H328 0.929 . S
C271 C268 1.356 . S
C271 C273 1.358 . S
C271 H329 0.930 . S
C272 N269 1.314 . S
C272 C270 1.353 . S
C272 H330 0.930 . S
C273 N269 1.279 . S
C273 C271 1.358 . S
C273 H331 0.930 . S
C274 C277 1.348 . S
C274 C278 1.356 . S
C274 O325 1.325 . S
C275 N276 1.279 . S
C275 C278 1.358 . S
C275 H332 0.930 . S
N276 C275 1.279 . S
N276 C279 1.314 . S
C277 C274 1.348 . S
C277 C279 1.353 . S
C277 H333 0.929 . S
C278 C274 1.356 . S
C278 C275 1.358 . S
C278 H334 0.930 . S
C279 N276 1.314 . S
C279 C277 1.353 . S
C279 H335 0.930 . S
C280 N281 1.314 . S
C280 C285 1.353 . S
C280 H286 0.930 . S
N281 Li264 1.990 . S
N281 C280 1.314 . S
N281 C283 1.279 . S
C282 C283 1.358 . S
C282 C284 1.356 . S
C282 H336 0.930 . S
C283 N281 1.279 . S
C283 C282 1.358 . S
C283 H287 0.930 . S
C284 C282 1.356 . S
C284 C285 1.348 . S
C285 C280 1.353 . S
C285 C284 1.348 . S
C285 H337 0.929 . S
H286 C280 0.930 . S
H287 C283 0.930 . S
C288 N289 1.314 . S
C288 C290 1.353 . S
C288 H294 0.930 . S
N289 Li265 1.990 . S
N289 C288 1.314 . S
N289 C292 1.279 . S
C290 C288 1.353 . S
C290 C293 1.348 . S
C290 H338 0.929 . S
C291 C292 1.358 . S
C291 C293 1.356 . S
C291 H339 0.930 . S
C292 N289 1.279 . S
C292 C291 1.358 . S
C292 H295 0.930 . S
C293 C290 1.348 . S
C293 C291 1.356 . S
H294 C288 0.930 . S
H295 C292 0.930 . S
C296 C298 1.348 . S
C296 C299 1.356 . S
C296 O326 1.325 . S
N297 C300 1.314 . S
N297 C301 1.279 . S
C298 C296 1.348 . S
C298 C300 1.353 . S
C298 H340 0.929 . S
C299 C296 1.356 . S
C299 C301 1.358 . S
C299 H341 0.930 . S
C300 N297 1.314 . S
C300 C298 1.353 . S
C300 H342 0.930 . S
C301 N297 1.279 . S
C301 C299 1.358 . S
C301 H343 0.930 . S
C302 C303 1.348 . S
C302 C304 1.356 . S
C302 O327 1.325 . S
C303 C302 1.348 . S
C303 C305 1.353 . S
C303 H344 0.929 . S
C304 C302 1.356 . S
C304 C306 1.358 . S
C304 H345 0.930 . S
C305 C303 1.353 . S
C305 N307 1.314 . S
C305 H346 0.930 . S
C306 C304 1.358 . S
C306 N307 1.279 . S
C306 H347 0.930 . S
N307 C305 1.314 . S
N307 C306 1.279 . S
C308 C310 1.353 . S
C308 N311 1.314 . S
C308 H314 0.930 . S
C309 N311 1.279 . S
C309 C312 1.358 . S
C309 H315 0.930 . S
C310 C308 1.353 . S
C310 C313 1.348 . S
C310 H348 0.929 . S
N311 Li266 1.990 . S
N311 C308 1.314 . S
N311 C309 1.279 . S
C312 C309 1.358 . S
C312 C313 1.356 . S
C312 H349 0.930 . S
C313 C310 1.348 . S
C313 C312 1.356 . S
H314 C308 0.930 . S
H315 C309 0.930 . S
C316 N317 1.314 . S
C316 C318 1.353 . S
C316 H322 0.930 . S
N317 Li267 1.990 . S
N317 C316 1.314 . S
N317 C320 1.279 . S
C318 C316 1.353 . S
C318 C321 1.348 . S
C318 H350 0.929 . S
C319 C320 1.358 . S
C319 C321 1.356 . S
C319 H351 0.930 . S
C320 N317 1.279 . S
C320 C319 1.358 . S
C320 H323 0.930 . S
C321 C318 1.348 . S
C321 C319 1.356 . S
H322 C316 0.930 . S
H323 C320 0.930 . S
O324 Li264 1.956 . S
O324 Li265 1.970 . S
O324 Li266 1.961 . S
O324 C268 1.325 . S
O325 Li264 1.970 . S
O325 Li265 1.956 . S
O325 Li267 1.961 . S
O325 C274 1.325 . S
O326 Li264 1.961 . S
O326 Li266 1.956 . S
O326 Li267 1.970 . S
O326 C296 1.325 . S
O327 Li265 1.961 . S
O327 Li266 1.970 . S
O327 Li267 1.956 . S
O327 C302 1.325 . S
H328 C270 0.929 . S
H329 C271 0.930 . S
H330 C272 0.930 . S
H331 C273 0.930 . S
H332 C275 0.930 . S
H333 C277 0.929 . S
H334 C278 0.930 . S
H335 C279 0.930 . S
H336 C282 0.930 . S
H337 C285 0.929 . S
H338 C290 0.929 . S
H339 C291 0.930 . S
H340 C298 0.929 . S
H341 C299 0.930 . S
H342 C300 0.930 . S
H343 C301 0.930 . S
H344 C303 0.929 . S
H345 C304 0.930 . S
H346 C305 0.930 . S
H347 C306 0.930 . S
H348 C310 0.929 . S
H349 C312 0.930 . S
H350 C318 0.929 . S
H351 C319 0.930 . S
Li352 N369 1.990 . S
Li352 O412 1.956 . S
Li352 O413 1.970 . S
Li352 O414 1.961 . S
Li353 N377 1.990 . S
Li353 O412 1.970 . S
Li353 O413 1.956 . S
Li353 O415 1.961 . S
Li354 N399 1.990 . S
Li354 O412 1.961 . S
Li354 O414 1.956 . S
Li354 O415 1.970 . S
Li355 N405 1.990 . S
Li355 O413 1.961 . S
Li355 O414 1.970 . S
Li355 O415 1.956 . S
C356 C358 1.348 . S
C356 C359 1.356 . S
C356 O412 1.325 . S
N357 C360 1.314 . S
N357 C361 1.279 . S
C358 C356 1.348 . S
C358 C360 1.353 . S
C358 H416 0.929 . S
C359 C356 1.356 . S
C359 C361 1.358 . S
C359 H417 0.930 . S
C360 N357 1.314 . S
C360 C358 1.353 . S
C360 H418 0.930 . S
C361 N357 1.279 . S
C361 C359 1.358 . S
C361 H419 0.930 . S
C362 C365 1.348 . S
C362 C366 1.356 . S
C362 O413 1.325 . S
C363 N364 1.279 . S
C363 C366 1.358 . S
C363 H420 0.930 . S
N364 C363 1.279 . S
N364 C367 1.314 . S
C365 C362 1.348 . S
C365 C367 1.353 . S
C365 H421 0.929 . S
C366 C362 1.356 . S
C366 C363 1.358 . S
C366 H422 0.930 . S
C367 N364 1.314 . S
C367 C365 1.353 . S
C367 H423 0.930 . S
C368 N369 1.314 . S
C368 C373 1.353 . S
C368 H374 0.930 . S
N369 Li352 1.990 . S
N369 C368 1.314 . S
N369 C371 1.279 . S
C370 C371 1.358 . S
C370 C372 1.356 . S
C370 H424 0.930 . S
C371 N369 1.279 . S
C371 C370 1.358 . S
C371 H375 0.930 . S
C372 C370 1.356 . S
C372 C373 1.348 . S
C373 C368 1.353 . S
C373 C372 1.348 . S
C373 H425 0.929 . S
H374 C368 0.930 . S
H375 C371 0.930 . S
C376 N377 1.314 . S
C376 C378 1.353 . S
C376 H382 0.930 . S
N377 Li353 1.990 . S
N377 C376 1.314 . S
N377 C380 1.279 . S
C378 C376 1.353 . S
C378 C381 1.348 . S
C378 H426 0.929 . S
C379 C380 1.358 . S
C379 C381 1.356 . S
C379 H427 0.930 . S
C380 N377 1.279 . S
C380 C379 1.358 . S
C380 H383 0.930 . S
C381 C378 1.348 . S
C381 C379 1.356 . S
H382 C376 0.930 . S
H383 C380 0.930 . S
C384 C386 1.348 . S
C384 C387 1.356 . S
C384 O414 1.325 . S
N385 C388 1.314 . S
N385 C389 1.279 1_655 S
C386 C384 1.348 . S
C386 C388 1.353 1_455 S
C386 H428 0.929 . S
C387 C384 1.356 . S
C387 C389 1.358 . S
C387 H429 0.930 . S
C388 N385 1.314 . S
C388 C386 1.353 1_655 S
C388 H430 0.930 . S
C389 N385 1.279 1_455 S
C389 C387 1.358 . S
C389 H431 0.930 . S
C390 C391 1.348 . S
C390 C392 1.356 . S
C390 O415 1.325 . S
C391 C390 1.348 . S
C391 C393 1.353 . S
C391 H432 0.929 . S
C392 C390 1.356 . S
C392 C394 1.358 . S
C392 H433 0.930 . S
C393 C391 1.353 . S
C393 N395 1.314 . S
C393 H434 0.930 . S
C394 C392 1.358 . S
C394 N395 1.279 . S
C394 H435 0.930 . S
N395 C393 1.314 . S
N395 C394 1.279 . S
C396 C398 1.353 . S
C396 N399 1.314 . S
C396 H402 0.930 . S
C397 N399 1.279 . S
C397 C400 1.358 . S
C397 H403 0.930 . S
C398 C396 1.353 . S
C398 C401 1.348 . S
C398 H436 0.929 . S
N399 Li354 1.990 . S
N399 C396 1.314 . S
N399 C397 1.279 . S
C400 C397 1.358 . S
C400 C401 1.356 . S
C400 H437 0.930 . S
C401 C398 1.348 . S
C401 C400 1.356 . S
H402 C396 0.930 . S
H403 C397 0.930 . S
C404 N405 1.314 . S
C404 C406 1.353 1_455 S
C404 H410 0.930 . S
N405 Li355 1.990 . S
N405 C404 1.314 . S
N405 C408 1.279 . S
C406 C404 1.353 1_655 S
C406 C409 1.348 . S
C406 H438 0.929 . S
C407 C408 1.319 1_655 S
C407 C409 1.388 . S
C407 H439 0.939 . S
C408 N405 1.279 . S
C408 C407 1.319 1_455 S
C408 H411 0.930 . S
C409 C406 1.348 . S
C409 C407 1.388 . S
H410 C404 0.930 . S
H411 C408 0.930 . S
O412 Li352 1.956 . S
O412 Li353 1.970 . S
O412 Li354 1.961 . S
O412 C356 1.325 . S
O413 Li352 1.970 . S
O413 Li353 1.956 . S
O413 Li355 1.961 . S
O413 C362 1.325 . S
O414 Li352 1.961 . S
O414 Li354 1.956 . S
O414 Li355 1.970 . S
O414 C384 1.325 . S
O415 Li353 1.961 . S
O415 Li354 1.970 . S
O415 Li355 1.956 . S
O415 C390 1.325 . S
H416 C358 0.929 . S
H417 C359 0.930 . S
H418 C360 0.930 . S
H419 C361 0.930 . S
H420 C363 0.930 . S
H421 C365 0.929 . S
H422 C366 0.930 . S
H423 C367 0.930 . S
H424 C370 0.930 . S
H425 C373 0.929 . S
H426 C378 0.929 . S
H427 C379 0.930 . S
H428 C386 0.929 . S
H429 C387 0.930 . S
H430 C388 0.930 . S
H431 C389 0.930 . S
H432 C391 0.929 . S
H433 C392 0.930 . S
H434 C393 0.930 . S
H435 C394 0.930 . S
H436 C398 0.929 . S
H437 C400 0.930 . S
H438 C406 0.929 . S
H439 C407 0.939 . S
Li440 N457 1.990 . S
Li440 O500 1.956 . S
Li440 O501 1.970 . S
Li440 O502 1.961 . S
Li441 N465 1.990 . S
Li441 O500 1.970 . S
Li441 O501 1.956 . S
Li441 O503 1.961 . S
Li442 N487 1.990 . S
Li442 O500 1.961 . S
Li442 O502 1.956 . S
Li442 O503 1.970 . S
Li443 N493 1.990 . S
Li443 O501 1.961 . S
Li443 O502 1.970 . S
Li443 O503 1.956 . S
C444 C446 1.348 . S
C444 C447 1.356 . S
C444 O500 1.325 . S
N445 C448 1.314 . S
N445 C449 1.279 . S
C446 C444 1.348 . S
C446 C448 1.353 . S
C446 H504 0.929 . S
C447 C444 1.356 . S
C447 C449 1.358 . S
C447 H505 0.930 . S
C448 N445 1.314 . S
C448 C446 1.353 . S
C448 H506 0.930 . S
C449 N445 1.279 . S
C449 C447 1.358 . S
C449 H507 0.930 . S
C450 C453 1.348 . S
C450 C454 1.356 . S
C450 O501 1.325 . S
C451 N452 1.279 . S
C451 C454 1.358 . S
C451 H508 0.930 . S
N452 C451 1.279 . S
N452 C455 1.314 . S
C453 C450 1.348 . S
C453 C455 1.353 . S
C453 H509 0.929 . S
C454 C450 1.356 . S
C454 C451 1.358 . S
C454 H510 0.930 . S
C455 N452 1.314 . S
C455 C453 1.353 . S
C455 H511 0.930 . S
C456 N457 1.314 . S
C456 C461 1.353 . S
C456 H462 0.930 . S
N457 Li440 1.990 . S
N457 C456 1.314 . S
N457 C459 1.279 . S
C458 C459 1.358 . S
C458 C460 1.356 . S
C458 H512 0.930 . S
C459 N457 1.279 . S
C459 C458 1.358 . S
C459 H463 0.930 . S
C460 C458 1.356 . S
C460 C461 1.348 . S
C461 C456 1.353 . S
C461 C460 1.348 . S
C461 H513 0.929 . S
H462 C456 0.930 . S
H463 C459 0.930 . S
C464 N465 1.314 . S
C464 C466 1.353 . S
C464 H470 0.930 . S
N465 Li441 1.990 . S
N465 C464 1.314 . S
N465 C468 1.279 . S
C466 C464 1.353 . S
C466 C469 1.348 . S
C466 H514 0.929 . S
C467 C468 1.358 . S
C467 C469 1.356 . S
C467 H515 0.930 . S
C468 N465 1.279 . S
C468 C467 1.358 . S
C468 H471 0.930 . S
C469 C466 1.348 . S
C469 C467 1.356 . S
H470 C464 0.930 . S
H471 C468 0.930 . S
C472 C474 1.348 . S
C472 C475 1.356 . S
C472 O502 1.325 . S
N473 C476 1.314 . S
N473 C477 1.279 . S
C474 C472 1.348 . S
C474 C476 1.353 . S
C474 H516 0.929 . S
C475 C472 1.356 . S
C475 C477 1.358 . S
C475 H517 0.930 . S
C476 N473 1.314 . S
C476 C474 1.353 . S
C476 H518 0.930 . S
C477 N473 1.279 . S
C477 C475 1.358 . S
C477 H519 0.930 . S
C478 C479 1.348 . S
C478 C480 1.356 . S
C478 O503 1.325 . S
C479 C478 1.348 . S
C479 C481 1.353 . S
C479 H520 0.929 . S
C480 C478 1.356 . S
C480 C482 1.358 . S
C480 H521 0.930 . S
C481 C479 1.353 . S
C481 N483 1.314 . S
C481 H522 0.930 . S
C482 C480 1.358 . S
C482 N483 1.279 . S
C482 H523 0.930 . S
N483 C481 1.314 . S
N483 C482 1.279 . S
C484 C486 1.353 . S
C484 N487 1.314 . S
C484 H490 0.930 . S
C485 N487 1.279 . S
C485 C488 1.358 . S
C485 H491 0.930 . S
C486 C484 1.353 . S
C486 C489 1.348 . S
C486 H524 0.929 . S
N487 Li442 1.990 . S
N487 C484 1.314 . S
N487 C485 1.279 . S
C488 C485 1.358 . S
C488 C489 1.356 . S
C488 H525 0.930 . S
C489 C486 1.348 . S
C489 C488 1.356 . S
H490 C484 0.930 . S
H491 C485 0.930 . S
C492 N493 1.314 . S
C492 C494 1.353 . S
C492 H498 0.930 . S
N493 Li443 1.990 . S
N493 C492 1.314 . S
N493 C496 1.279 . S
C494 C492 1.353 . S
C494 C497 1.348 . S
C494 H526 0.929 . S
C495 C496 1.358 . S
C495 C497 1.356 . S
C495 H527 0.930 . S
C496 N493 1.279 . S
C496 C495 1.358 . S
C496 H499 0.930 . S
C497 C494 1.348 . S
C497 C495 1.356 . S
H498 C492 0.930 . S
H499 C496 0.930 . S
O500 Li440 1.956 . S
O500 Li441 1.970 . S
O500 Li442 1.961 . S
O500 C444 1.325 . S
O501 Li440 1.970 . S
O501 Li441 1.956 . S
O501 Li443 1.961 . S
O501 C450 1.325 . S
O502 Li440 1.961 . S
O502 Li442 1.956 . S
O502 Li443 1.970 . S
O502 C472 1.325 . S
O503 Li441 1.961 . S
O503 Li442 1.970 . S
O503 Li443 1.956 . S
O503 C478 1.325 . S
H504 C446 0.929 . S
H505 C447 0.930 . S
H506 C448 0.930 . S
H507 C449 0.930 . S
H508 C451 0.930 . S
H509 C453 0.929 . S
H510 C454 0.930 . S
H511 C455 0.930 . S
H512 C458 0.930 . S
H513 C461 0.929 . S
H514 C466 0.929 . S
H515 C467 0.930 . S
H516 C474 0.929 . S
H517 C475 0.930 . S
H518 C476 0.930 . S
H519 C477 0.930 . S
H520 C479 0.929 . S
H521 C480 0.930 . S
H522 C481 0.930 . S
H523 C482 0.930 . S
H524 C486 0.929 . S
H525 C488 0.930 . S
H526 C494 0.929 . S
H527 C495 0.930 . S
Li528 N545 1.990 . S
Li528 O588 1.956 . S
Li528 O589 1.970 . S
Li528 O590 1.961 . S
Li529 N553 1.990 . S
Li529 O588 1.970 . S
Li529 O589 1.956 . S
Li529 O591 1.961 . S
Li530 N575 1.990 . S
Li530 O588 1.961 . S
Li530 O590 1.956 . S
Li530 O591 1.970 . S
Li531 N581 1.990 . S
Li531 O589 1.961 . S
Li531 O590 1.970 . S
Li531 O591 1.956 . S
C532 C534 1.348 . S
C532 C535 1.356 . S
C532 O588 1.325 . S
N533 C536 1.314 . S
N533 C537 1.279 . S
C534 C532 1.348 . S
C534 C536 1.353 . S
C534 H592 0.929 . S
C535 C532 1.356 . S
C535 C537 1.358 . S
C535 H593 0.930 . S
C536 N533 1.314 . S
C536 C534 1.353 . S
C536 H594 0.930 . S
C537 N533 1.279 . S
C537 C535 1.358 . S
C537 H595 0.930 . S
C538 C541 1.348 . S
C538 C542 1.356 . S
C538 O589 1.325 . S
C539 N540 1.279 . S
C539 C542 1.358 . S
C539 H596 0.930 . S
N540 C539 1.279 . S
N540 C543 1.314 . S
C541 C538 1.348 . S
C541 C543 1.353 . S
C541 H597 0.929 . S
C542 C538 1.356 . S
C542 C539 1.358 . S
C542 H598 0.930 . S
C543 N540 1.314 . S
C543 C541 1.353 . S
C543 H599 0.930 . S
C544 N545 1.314 . S
C544 C549 1.353 . S
C544 H550 0.930 . S
N545 Li528 1.990 . S
N545 C544 1.314 . S
N545 C547 1.279 . S
C546 C547 1.358 . S
C546 C548 1.356 . S
C546 H600 0.930 . S
C547 N545 1.279 . S
C547 C546 1.358 . S
C547 H551 0.930 . S
C548 C546 1.356 . S
C548 C549 1.348 . S
C549 C544 1.353 . S
C549 C548 1.348 . S
C549 H601 0.929 . S
H550 C544 0.930 . S
H551 C547 0.930 . S
C552 N553 1.314 . S
C552 C554 1.353 . S
C552 H558 0.930 . S
N553 Li529 1.990 . S
N553 C552 1.314 . S
N553 C556 1.279 . S
C554 C552 1.353 . S
C554 C557 1.348 . S
C554 H602 0.929 . S
C555 C556 1.358 . S
C555 C557 1.356 . S
C555 H603 0.930 . S
C556 N553 1.279 . S
C556 C555 1.358 . S
C556 H559 0.930 . S
C557 C554 1.348 . S
C557 C555 1.356 . S
H558 C552 0.930 . S
H559 C556 0.930 . S
C560 C562 1.348 . S
C560 C563 1.356 . S
C560 O590 1.325 . S
N561 C564 1.314 . S
N561 C565 1.279 . S
C562 C560 1.348 . S
C562 C564 1.353 . S
C562 H604 0.929 . S
C563 C560 1.356 . S
C563 C565 1.358 . S
C563 H605 0.930 . S
C564 N561 1.314 . S
C564 C562 1.353 . S
C564 H606 0.930 . S
C565 N561 1.279 . S
C565 C563 1.358 . S
C565 H607 0.930 . S
C566 C567 1.348 . S
C566 C568 1.356 . S
C566 O591 1.325 . S
C567 C566 1.348 . S
C567 C569 1.353 . S
C567 H608 0.929 . S
C568 C566 1.356 . S
C568 C570 1.358 . S
C568 H609 0.930 . S
C569 C567 1.353 . S
C569 N571 1.314 . S
C569 H610 0.930 . S
C570 C568 1.358 . S
C570 N571 1.279 . S
C570 H611 0.930 . S
N571 C569 1.314 . S
N571 C570 1.279 . S
C572 C574 1.353 . S
C572 N575 1.314 . S
C572 H578 0.930 . S
C573 N575 1.279 . S
C573 C576 1.358 . S
C573 H579 0.930 . S
C574 C572 1.353 . S
C574 C577 1.348 . S
C574 H612 0.929 . S
N575 Li530 1.990 . S
N575 C572 1.314 . S
N575 C573 1.279 . S
C576 C573 1.358 . S
C576 C577 1.356 . S
C576 H613 0.930 . S
C577 C574 1.348 . S
C577 C576 1.356 . S
H578 C572 0.930 . S
H579 C573 0.930 . S
C580 N581 1.314 . S
C580 C582 1.353 . S
C580 H586 0.930 . S
N581 Li531 1.990 . S
N581 C580 1.314 . S
N581 C584 1.279 . S
C582 C580 1.353 . S
C582 C585 1.348 . S
C582 H614 0.929 . S
C583 C584 1.358 . S
C583 C585 1.356 . S
C583 H615 0.930 . S
C584 N581 1.279 . S
C584 C583 1.358 . S
C584 H587 0.930 . S
C585 C582 1.348 . S
C585 C583 1.356 . S
H586 C580 0.930 . S
H587 C584 0.930 . S
O588 Li528 1.956 . S
O588 Li529 1.970 . S
O588 Li530 1.961 . S
O588 C532 1.325 . S
O589 Li528 1.970 . S
O589 Li529 1.956 . S
O589 Li531 1.961 . S
O589 C538 1.325 . S
O590 Li528 1.961 . S
O590 Li530 1.956 . S
O590 Li531 1.970 . S
O590 C560 1.325 . S
O591 Li529 1.961 . S
O591 Li530 1.970 . S
O591 Li531 1.956 . S
O591 C566 1.325 . S
H592 C534 0.929 . S
H593 C535 0.930 . S
H594 C536 0.930 . S
H595 C537 0.930 . S
H596 C539 0.930 . S
H597 C541 0.929 . S
H598 C542 0.930 . S
H599 C543 0.930 . S
H600 C546 0.930 . S
H601 C549 0.929 . S
H602 C554 0.929 . S
H603 C555 0.930 . S
H604 C562 0.929 . S
H605 C563 0.930 . S
H606 C564 0.930 . S
H607 C565 0.930 . S
H608 C567 0.929 . S
H609 C568 0.930 . S
H610 C569 0.930 . S
H611 C570 0.930 . S
H612 C574 0.929 . S
H613 C576 0.930 . S
H614 C582 0.929 . S
H615 C583 0.930 . S
Li616 N633 1.990 . S
Li616 O676 1.956 1_455 S
Li616 O677 1.970 . S
Li616 O678 1.961 . S
Li617 N641 1.990 . S
Li617 O676 1.970 . S
Li617 O677 1.956 1_655 S
Li617 O679 1.961 1_655 S
Li618 N663 1.990 . S
Li618 O676 1.961 1_455 S
Li618 O678 1.956 . S
Li618 O679 1.970 . S
Li619 N669 1.990 . S
Li619 O677 1.961 . S
Li619 O678 1.970 . S
Li619 O679 1.956 . S
C620 C622 1.348 . S
C620 C623 1.356 . S
C620 O676 1.325 . S
N621 C624 1.314 . S
N621 C625 1.279 . S
C622 C620 1.348 . S
C622 C624 1.353 . S
C622 H680 0.929 . S
C623 C620 1.356 . S
C623 C625 1.358 . S
C623 H681 0.930 . S
C624 N621 1.314 . S
C624 C622 1.353 . S
C624 H682 0.930 . S
C625 N621 1.279 . S
C625 C623 1.358 . S
C625 H683 0.930 . S
C626 C629 1.348 . S
C626 C630 1.356 . S
C626 O677 1.325 . S
C627 N628 1.279 . S
C627 C630 1.358 . S
C627 H684 0.930 . S
N628 C627 1.279 . S
N628 C631 1.314 . S
C629 C626 1.348 . S
C629 C631 1.353 . S
C629 H685 0.929 . S
C630 C626 1.356 . S
C630 C627 1.358 . S
C630 H686 0.930 . S
C631 N628 1.314 . S
C631 C629 1.353 . S
C631 H687 0.930 . S
C632 N633 1.314 . S
C632 C637 1.353 . S
C632 H638 0.930 . S
N633 Li616 1.990 . S
N633 C632 1.314 . S
N633 C635 1.281 . S
C634 C635 1.358 . S
C634 C636 1.356 . S
C634 H688 0.930 1_455 S
C635 N633 1.281 . S
C635 C634 1.358 . S
C635 H639 0.929 1_455 S
C636 C634 1.356 . S
C636 C637 1.348 . S
C637 C632 1.353 . S
C637 C636 1.348 . S
C637 H689 0.929 . S
H638 C632 0.930 . S
H639 C635 0.929 1_655 S
C640 N641 1.314 . S
C640 C642 1.353 . S
C640 H646 0.930 . S
N641 Li617 1.990 . S
N641 C640 1.314 . S
N641 C644 1.279 . S
C642 C640 1.353 . S
C642 C645 1.348 . S
C642 H690 0.929 . S
C643 C644 1.358 . S
C643 C645 1.356 . S
C643 H691 0.930 . S
C644 N641 1.279 . S
C644 C643 1.358 . S
C644 H647 0.930 . S
C645 C642 1.348 . S
C645 C643 1.356 . S
H646 C640 0.930 . S
H647 C644 0.930 . S
C648 C650 1.348 . S
C648 C651 1.356 . S
C648 O678 1.325 . S
N649 C652 1.314 . S
N649 C653 1.279 . S
C650 C648 1.348 . S
C650 C652 1.353 . S
C650 H692 0.929 . S
C651 C648 1.356 . S
C651 C653 1.358 . S
C651 H693 0.930 . S
C652 N649 1.314 . S
C652 C650 1.353 . S
C652 H694 0.930 . S
C653 N649 1.279 . S
C653 C651 1.358 . S
C653 H695 0.930 . S
C654 C655 1.348 . S
C654 C656 1.353 1_455 S
C654 O679 1.325 . S
C655 C654 1.348 . S
C655 C657 1.353 . S
C655 H696 0.929 . S
C656 C654 1.353 1_655 S
C656 C658 1.356 . S
C656 H697 0.936 . S
C657 C655 1.353 . S
C657 N659 1.327 . S
C657 H698 0.930 . S
C658 C656 1.356 . S
C658 N659 1.261 1_655 S
C658 H699 0.930 . S
N659 C657 1.327 . S
N659 C658 1.261 1_455 S
C660 C662 1.353 . S
C660 N663 1.314 1_655 S
C660 H666 0.930 . S
C661 N663 1.279 . S
C661 C664 1.358 . S
C661 H667 0.930 . S
C662 C660 1.353 . S
C662 C665 1.348 1_655 S
C662 H700 0.929 . S
N663 Li618 1.990 . S
N663 C660 1.314 1_455 S
N663 C661 1.279 . S
C664 C661 1.358 . S
C664 C665 1.356 . S
C664 H701 0.930 . S
C665 C662 1.348 1_455 S
C665 C664 1.356 . S
H666 C660 0.930 . S
H667 C661 0.930 . S
C668 N669 1.314 . S
C668 C670 1.353 . S
C668 H674 0.930 . S
N669 Li619 1.990 . S
N669 C668 1.314 . S
N669 C672 1.279 . S
C670 C668 1.353 . S
C670 C673 1.348 . S
C670 H702 0.929 . S
C671 C672 1.358 . S
C671 C673 1.356 . S
C671 H703 0.930 . S
C672 N669 1.279 . S
C672 C671 1.358 . S
C672 H675 0.930 . S
C673 C670 1.348 . S
C673 C671 1.356 . S
H674 C668 0.930 . S
H675 C672 0.930 . S
O676 Li616 1.956 1_655 S
O676 Li617 1.970 . S
O676 Li618 1.961 1_655 S
O676 C620 1.325 . S
O677 Li616 1.970 . S
O677 Li617 1.956 1_455 S
O677 Li619 1.961 . S
O677 C626 1.325 . S
O678 Li616 1.961 . S
O678 Li618 1.956 . S
O678 Li619 1.970 . S
O678 C648 1.325 . S
O679 Li617 1.961 1_455 S
O679 Li618 1.970 . S
O679 Li619 1.956 . S
O679 C654 1.325 . S
H680 C622 0.929 . S
H681 C623 0.930 . S
H682 C624 0.930 . S
H683 C625 0.930 . S
H684 C627 0.930 . S
H685 C629 0.929 . S
H686 C630 0.930 . S
H687 C631 0.930 . S
H688 C634 0.930 1_655 S
H689 C637 0.929 . S
H690 C642 0.929 . S
H691 C643 0.930 . S
H692 C650 0.929 . S
H693 C651 0.930 . S
H694 C652 0.930 . S
H695 C653 0.930 . S
H696 C655 0.929 . S
H697 C656 0.936 . S
H698 C657 0.930 . S
H699 C658 0.930 . S
H700 C662 0.929 . S
H701 C664 0.930 . S
H702 C670 0.929 . S
H703 C671 0.930 . S
Li704 N721 1.990 . S
Li704 O764 1.956 1_545 S
Li704 O765 1.970 . S
Li704 O766 1.961 . S
Li705 N729 1.990 . S
Li705 O764 1.970 . S
Li705 O765 1.956 1_565 S
Li705 O767 1.961 1_565 S
Li706 N751 1.990 . S
Li706 O764 1.961 1_545 S
Li706 O766 1.956 . S
Li706 O767 1.970 . S
Li707 N757 1.990 . S
Li707 O765 1.961 . S
Li707 O766 1.970 . S
Li707 O767 1.956 . S
C708 C710 1.348 . S
C708 C711 1.356 . S
C708 O764 1.325 . S
N709 C712 1.314 . S
N709 C713 1.279 . S
C710 C708 1.348 . S
C710 C712 1.353 . S
C710 H768 0.929 . S
C711 C708 1.356 . S
C711 C713 1.358 . S
C711 H769 0.930 . S
C712 N709 1.314 . S
C712 C710 1.353 . S
C712 H770 0.930 . S
C713 N709 1.279 . S
C713 C711 1.358 . S
C713 H771 0.930 . S
C714 C717 1.348 . S
C714 C718 1.356 . S
C714 O765 1.325 . S
C715 N716 1.279 . S
C715 C718 1.358 . S
C715 H772 0.930 . S
N716 C715 1.279 . S
N716 C719 1.314 . S
C717 C714 1.348 . S
C717 C719 1.353 . S
C717 H773 0.929 . S
C718 C714 1.356 . S
C718 C715 1.358 . S
C718 H774 0.930 . S
C719 N716 1.314 . S
C719 C717 1.353 . S
C719 H775 0.930 . S
C720 N721 1.314 . S
C720 C725 1.353 . S
C720 H726 0.930 . S
N721 Li704 1.990 . S
N721 C720 1.314 . S
N721 C723 1.347 . S
C722 C723 1.351 . S
C722 C724 1.356 . S
C722 H776 0.930 1_545 S
C723 N721 1.347 . S
C723 C722 1.351 . S
C723 H727 0.868 1_545 S
C724 C722 1.356 . S
C724 C725 1.348 . S
C725 C720 1.353 . S
C725 C724 1.348 . S
C725 H777 0.929 . S
H726 C720 0.930 . S
H727 C723 0.868 1_565 S
C728 N729 1.314 . S
C728 C730 1.353 . S
C728 H734 0.930 . S
N729 Li705 1.990 . S
N729 C728 1.314 . S
N729 C732 1.279 . S
C730 C728 1.353 . S
C730 C733 1.348 . S
C730 H778 0.929 . S
C731 C732 1.358 . S
C731 C733 1.356 . S
C731 H779 0.930 . S
C732 N729 1.279 . S
C732 C731 1.358 . S
C732 H735 0.930 . S
C733 C730 1.348 . S
C733 C731 1.356 . S
H734 C728 0.930 . S
H735 C732 0.930 . S
C736 C738 1.348 . S
C736 C739 1.356 . S
C736 O766 1.325 . S
N737 C740 1.314 . S
N737 C741 1.279 . S
C738 C736 1.348 . S
C738 C740 1.353 . S
C738 H780 0.929 . S
C739 C736 1.356 . S
C739 C741 1.358 . S
C739 H781 0.930 . S
C740 N737 1.314 . S
C740 C738 1.353 . S
C740 H782 0.930 . S
C741 N737 1.279 . S
C741 C739 1.358 . S
C741 H783 0.930 . S
C742 C743 1.376 . S
C742 C744 1.350 1_545 S
C742 O767 1.317 . S
C743 C742 1.376 . S
C743 C745 1.353 . S
C743 H784 0.929 . S
C744 C742 1.350 1_565 S
C744 C746 1.358 . S
C744 H785 0.930 . S
C745 C743 1.353 . S
C745 N747 1.314 1_545 S
C745 H786 0.930 . S
C746 C744 1.358 . S
C746 N747 1.279 . S
C746 H787 0.930 . S
N747 C745 1.314 1_565 S
N747 C746 1.279 . S
C748 C750 1.353 . S
C748 N751 1.314 1_565 S
C748 H754 0.930 . S
C749 N751 1.279 . S
C749 C752 1.358 . S
C749 H755 0.930 . S
C750 C748 1.353 . S
C750 C753 1.348 1_565 S
C750 H788 0.929 . S
N751 Li706 1.990 . S
N751 C748 1.314 1_545 S
N751 C749 1.279 . S
C752 C749 1.358 . S
C752 C753 1.356 . S
C752 H789 0.930 . S
C753 C750 1.348 1_545 S
C753 C752 1.356 . S
H754 C748 0.930 . S
H755 C749 0.930 . S
C756 N757 1.314 . S
C756 C758 1.353 . S
C756 H762 0.930 . S
N757 Li707 1.990 . S
N757 C756 1.314 . S
N757 C760 1.279 . S
C758 C756 1.353 . S
C758 C761 1.348 . S
C758 H790 0.929 . S
C759 C760 1.358 . S
C759 C761 1.356 . S
C759 H791 0.930 . S
C760 N757 1.279 . S
C760 C759 1.358 . S
C760 H763 0.930 . S
C761 C758 1.348 . S
C761 C759 1.356 . S
H762 C756 0.930 . S
H763 C760 0.930 . S
O764 Li704 1.956 1_565 S
O764 Li705 1.970 . S
O764 Li706 1.961 1_565 S
O764 C708 1.325 . S
O765 Li704 1.970 . S
O765 Li705 1.956 1_545 S
O765 Li707 1.961 . S
O765 C714 1.325 . S
O766 Li704 1.961 . S
O766 Li706 1.956 . S
O766 Li707 1.970 . S
O766 C736 1.325 . S
O767 Li705 1.961 1_545 S
O767 Li706 1.970 . S
O767 Li707 1.956 . S
O767 C742 1.317 . S
H768 C710 0.929 . S
H769 C711 0.930 . S
H770 C712 0.930 . S
H771 C713 0.930 . S
H772 C715 0.930 . S
H773 C717 0.929 . S
H774 C718 0.930 . S
H775 C719 0.930 . S
H776 C722 0.930 1_565 S
H777 C725 0.929 . S
H778 C730 0.929 . S
H779 C731 0.930 . S
H780 C738 0.929 . S
H781 C739 0.930 . S
H782 C740 0.930 . S
H783 C741 0.930 . S
H784 C743 0.929 . S
H785 C744 0.930 . S
H786 C745 0.930 . S
H787 C746 0.930 . S
H788 C750 0.929 . S
H789 C752 0.930 . S
H790 C758 0.929 . S
H791 C759 0.930 . S
Li792 N809 1.990 . S
Li792 O852 1.956 . S
Li792 O853 1.970 . S
Li792 O854 1.961 . S
Li793 N817 1.990 . S
Li793 O852 1.970 . S
Li793 O853 1.956 . S
Li793 O855 1.961 . S
Li794 N839 1.990 . S
Li794 O852 1.961 . S
Li794 O854 1.956 . S
Li794 O855 1.970 . S
Li795 N845 1.990 . S
Li795 O853 1.961 . S
Li795 O854 1.970 . S
Li795 O855 1.956 . S
C796 C798 1.348 . S
C796 C799 1.356 . S
C796 O852 1.325 . S
N797 C800 1.314 . S
N797 C801 1.279 . S
C798 C796 1.348 . S
C798 C800 1.353 . S
C798 H856 0.929 . S
C799 C796 1.356 . S
C799 C801 1.358 . S
C799 H857 0.930 . S
C800 N797 1.314 . S
C800 C798 1.353 . S
C800 H858 0.930 . S
C801 N797 1.279 . S
C801 C799 1.358 . S
C801 H859 0.930 . S
C802 C805 1.348 . S
C802 C806 1.356 . S
C802 O853 1.325 . S
C803 N804 1.279 . S
C803 C806 1.358 . S
C803 H860 0.930 . S
N804 C803 1.279 . S
N804 C807 1.314 . S
C805 C802 1.348 . S
C805 C807 1.353 . S
C805 H861 0.929 . S
C806 C802 1.356 . S
C806 C803 1.358 . S
C806 H862 0.930 . S
C807 N804 1.314 . S
C807 C805 1.353 . S
C807 H863 0.930 . S
C808 N809 1.314 . S
C808 C813 1.353 . S
C808 H814 0.930 . S
N809 Li792 1.990 . S
N809 C808 1.314 . S
N809 C811 1.279 . S
C810 C811 1.358 . S
C810 C812 1.356 . S
C810 H864 0.930 . S
C811 N809 1.279 . S
C811 C810 1.358 . S
C811 H815 0.930 . S
C812 C810 1.356 . S
C812 C813 1.348 . S
C813 C808 1.353 . S
C813 C812 1.348 . S
C813 H865 0.929 . S
H814 C808 0.930 . S
H815 C811 0.930 . S
C816 N817 1.314 . S
C816 C818 1.353 . S
C816 H822 0.930 . S
N817 Li793 1.990 . S
N817 C816 1.314 . S
N817 C820 1.279 . S
C818 C816 1.353 . S
C818 C821 1.348 . S
C818 H866 0.929 . S
C819 C820 1.358 . S
C819 C821 1.356 . S
C819 H867 0.930 . S
C820 N817 1.279 . S
C820 C819 1.358 . S
C820 H823 0.930 . S
C821 C818 1.348 . S
C821 C819 1.356 . S
H822 C816 0.930 . S
H823 C820 0.930 . S
C824 C826 1.348 . S
C824 C827 1.356 . S
C824 O854 1.325 . S
N825 C828 1.314 . S
N825 C829 1.279 . S
C826 C824 1.348 . S
C826 C828 1.353 . S
C826 H868 0.929 . S
C827 C824 1.356 . S
C827 C829 1.358 . S
C827 H869 0.930 . S
C828 N825 1.314 . S
C828 C826 1.353 . S
C828 H870 0.930 . S
C829 N825 1.279 . S
C829 C827 1.358 . S
C829 H871 0.930 . S
C830 C831 1.348 . S
C830 C832 1.356 . S
C830 O855 1.325 . S
C831 C830 1.348 . S
C831 C833 1.353 . S
C831 H872 0.929 . S
C832 C830 1.356 . S
C832 C834 1.358 . S
C832 H873 0.930 . S
C833 C831 1.353 . S
C833 N835 1.314 . S
C833 H874 0.930 . S
C834 C832 1.358 . S
C834 N835 1.279 . S
C834 H875 0.930 . S
N835 C833 1.314 . S
N835 C834 1.279 . S
C836 C838 1.353 . S
C836 N839 1.314 . S
C836 H842 0.930 . S
C837 N839 1.279 . S
C837 C840 1.358 . S
C837 H843 0.930 . S
C838 C836 1.353 . S
C838 C841 1.348 . S
C838 H876 0.929 . S
N839 Li794 1.990 . S
N839 C836 1.314 . S
N839 C837 1.279 . S
C840 C837 1.358 . S
C840 C841 1.356 . S
C840 H877 0.930 . S
C841 C838 1.348 . S
C841 C840 1.356 . S
H842 C836 0.930 . S
H843 C837 0.930 . S
C844 N845 1.314 . S
C844 C846 1.353 . S
C844 H850 0.930 . S
N845 Li795 1.990 . S
N845 C844 1.314 . S
N845 C848 1.279 . S
C846 C844 1.353 . S
C846 C849 1.348 . S
C846 H878 0.929 . S
C847 C848 1.358 . S
C847 C849 1.356 . S
C847 H879 0.930 . S
C848 N845 1.279 . S
C848 C847 1.358 . S
C848 H851 0.930 . S
C849 C846 1.348 . S
C849 C847 1.356 . S
H850 C844 0.930 . S
H851 C848 0.930 . S
O852 Li792 1.956 . S
O852 Li793 1.970 . S
O852 Li794 1.961 . S
O852 C796 1.325 . S
O853 Li792 1.970 . S
O853 Li793 1.956 . S
O853 Li795 1.961 . S
O853 C802 1.325 . S
O854 Li792 1.961 . S
O854 Li794 1.956 . S
O854 Li795 1.970 . S
O854 C824 1.325 . S
O855 Li793 1.961 . S
O855 Li794 1.970 . S
O855 Li795 1.956 . S
O855 C830 1.325 . S
H856 C798 0.929 . S
H857 C799 0.930 . S
H858 C800 0.930 . S
H859 C801 0.930 . S
H860 C803 0.930 . S
H861 C805 0.929 . S
H862 C806 0.930 . S
H863 C807 0.930 . S
H864 C810 0.930 . S
H865 C813 0.929 . S
H866 C818 0.929 . S
H867 C819 0.930 . S
H868 C826 0.929 . S
H869 C827 0.930 . S
H870 C828 0.930 . S
H871 C829 0.930 . S
H872 C831 0.929 . S
H873 C832 0.930 . S
H874 C833 0.930 . S
H875 C834 0.930 . S
H876 C838 0.929 . S
H877 C840 0.930 . S
H878 C846 0.929 . S
H879 C847 0.930 . S
Li880 N897 1.990 . S
Li880 O940 1.956 . S
Li880 O941 1.970 . S
Li880 O942 1.961 . S
Li881 N905 1.990 . S
Li881 O940 1.970 . S
Li881 O941 1.956 . S
Li881 O943 1.961 1_545 S
Li882 N927 1.990 . S
Li882 O940 1.961 1_565 S
Li882 O942 1.956 1_565 S
Li882 O943 1.970 . S
Li883 N933 1.990 . S
Li883 O941 1.961 1_565 S
Li883 O942 1.970 1_565 S
Li883 O943 1.956 . S
C884 C886 1.348 . S
C884 C887 1.356 . S
C884 O940 1.325 . S
N885 C888 1.314 . S
N885 C889 1.279 . S
C886 C884 1.348 . S
C886 C888 1.353 . S
C886 H944 0.929 . S
C887 C884 1.356 . S
C887 C889 1.358 . S
C887 H945 0.930 . S
C888 N885 1.314 . S
C888 C886 1.353 . S
C888 H946 0.930 . S
C889 N885 1.279 . S
C889 C887 1.358 . S
C889 H947 0.930 . S
C890 C893 1.348 . S
C890 C894 1.356 . S
C890 O941 1.325 . S
C891 N892 1.279 . S
C891 C894 1.358 . S
C891 H948 0.930 . S
N892 C891 1.279 . S
N892 C895 1.314 . S
C893 C890 1.348 . S
C893 C895 1.353 . S
C893 H949 0.929 . S
C894 C890 1.356 . S
C894 C891 1.358 . S
C894 H950 0.930 . S
C895 N892 1.314 . S
C895 C893 1.353 . S
C895 H951 0.930 . S
C896 N897 1.314 . S
C896 C901 1.353 . S
C896 H902 0.930 . S
N897 Li880 1.990 . S
N897 C896 1.314 . S
N897 C899 1.279 . S
C898 C899 1.358 . S
C898 C900 1.356 . S
C898 H952 0.930 . S
C899 N897 1.279 . S
C899 C898 1.358 . S
C899 H903 0.930 . S
C900 C898 1.356 . S
C900 C901 1.348 . S
C901 C896 1.353 . S
C901 C900 1.348 . S
C901 H953 0.929 . S
H902 C896 0.930 . S
H903 C899 0.930 . S
C904 N905 1.314 1_565 S
C904 C906 1.353 . S
C904 H910 0.930 . S
N905 Li881 1.990 . S
N905 C904 1.314 1_545 S
N905 C908 1.279 . S
C906 C904 1.353 . S
C906 C909 1.348 1_565 S
C906 H954 0.929 . S
C907 C908 1.358 . S
C907 C909 1.356 . S
C907 H955 0.930 . S
C908 N905 1.279 . S
C908 C907 1.358 . S
C908 H911 0.930 . S
C909 C906 1.348 1_545 S
C909 C907 1.356 . S
H910 C904 0.930 . S
H911 C908 0.930 . S
C912 C914 1.348 1_545 S
C912 C915 1.356 . S
C912 O942 1.325 . S
N913 C916 1.311 1_545 S
N913 C917 1.283 . S
C914 C912 1.348 1_565 S
C914 C916 1.353 . S
C914 H956 0.929 . S
C915 C912 1.356 . S
C915 C917 1.358 . S
C915 H957 0.930 . S
C916 N913 1.311 1_565 S
C916 C914 1.353 . S
C916 H958 0.930 . S
C917 N913 1.283 . S
C917 C915 1.358 . S
C917 H959 0.930 . S
C918 C919 1.348 . S
C918 C920 1.356 . S
C918 O943 1.325 . S
C919 C918 1.348 . S
C919 C921 1.353 . S
C919 H960 0.929 . S
C920 C918 1.356 . S
C920 C922 1.358 . S
C920 H961 0.930 . S
C921 C919 1.353 . S
C921 N923 1.314 . S
C921 H962 0.930 . S
C922 C920 1.358 . S
C922 N923 1.279 . S
C922 H963 0.930 . S
N923 C921 1.314 . S
N923 C922 1.279 . S
C924 C926 1.353 . S
C924 N927 1.314 . S
C924 H930 0.930 . S
C925 N927 1.279 . S
C925 C928 1.358 . S
C925 H931 0.930 . S
C926 C924 1.353 . S
C926 C929 1.348 . S
C926 H964 0.929 . S
N927 Li882 1.990 . S
N927 C924 1.314 . S
N927 C925 1.279 . S
C928 C925 1.358 . S
C928 C929 1.356 . S
C928 H965 0.930 . S
C929 C926 1.348 . S
C929 C928 1.356 . S
H930 C924 0.930 . S
H931 C925 0.930 . S
C932 N933 1.314 1_545 S
C932 C934 1.353 . S
C932 H938 0.930 . S
N933 Li883 1.990 . S
N933 C932 1.314 1_565 S
N933 C936 1.279 . S
C934 C932 1.353 . S
C934 C937 1.348 1_545 S
C934 H966 0.929 . S
C935 C936 1.358 . S
C935 C937 1.356 . S
C935 H967 0.930 . S
C936 N933 1.279 . S
C936 C935 1.358 . S
C936 H939 0.930 . S
C937 C934 1.348 1_565 S
C937 C935 1.356 . S
H938 C932 0.930 . S
H939 C936 0.930 . S
O940 Li880 1.956 . S
O940 Li881 1.970 . S
O940 Li882 1.961 1_545 S
O940 C884 1.325 . S
O941 Li880 1.970 . S
O941 Li881 1.956 . S
O941 Li883 1.961 1_545 S
O941 C890 1.325 . S
O942 Li880 1.961 . S
O942 Li882 1.956 1_545 S
O942 Li883 1.970 1_545 S
O942 C912 1.325 . S
O943 Li881 1.961 1_565 S
O943 Li882 1.970 . S
O943 Li883 1.956 . S
O943 C918 1.325 . S
H944 C886 0.929 . S
H945 C887 0.930 . S
H946 C888 0.930 . S
H947 C889 0.930 . S
H948 C891 0.930 . S
H949 C893 0.929 . S
H950 C894 0.930 . S
H951 C895 0.930 . S
H952 C898 0.930 . S
H953 C901 0.929 . S
H954 C906 0.929 . S
H955 C907 0.930 . S
H956 C914 0.929 . S
H957 C915 0.930 . S
H958 C916 0.930 . S
H959 C917 0.930 . S
H960 C919 0.929 . S
H961 C920 0.930 . S
H962 C921 0.930 . S
H963 C922 0.930 . S
H964 C926 0.929 . S
H965 C928 0.930 . S
H966 C934 0.929 . S
H967 C935 0.930 . S
Li968 N985 1.990 . S
Li968 O1028 1.956 . S
Li968 O1029 1.970 . S
Li968 O1030 1.961 1_554 S
Li969 N993 1.990 . S
Li969 O1028 1.970 . S
Li969 O1029 1.956 . S
Li969 O1031 1.961 . S
Li970 N1015 1.990 . S
Li970 O1028 1.961 . S
Li970 O1030 1.956 1_554 S
Li970 O1031 1.970 . S
Li971 N1021 1.990 . S
Li971 O1029 1.961 1_556 S
Li971 O1030 1.970 . S
Li971 O1031 1.956 1_556 S
C972 C974 1.348 . S
C972 C975 1.356 . S
C972 O1028 1.325 . S
N973 C976 1.314 . S
N973 C977 1.279 . S
C974 C972 1.348 . S
C974 C976 1.353 . S
C974 H1032 0.929 . S
C975 C972 1.356 . S
C975 C977 1.358 . S
C975 H1033 0.930 . S
C976 N973 1.314 . S
C976 C974 1.353 . S
C976 H1034 0.930 . S
C977 N973 1.279 . S
C977 C975 1.358 . S
C977 H1035 0.930 . S
C978 C981 1.348 . S
C978 C982 1.356 . S
C978 O1029 1.325 . S
C979 N980 1.279 . S
C979 C982 1.358 . S
C979 H1036 0.922 1_554 S
N980 C979 1.279 . S
N980 C983 1.314 . S
C981 C978 1.348 . S
C981 C983 1.353 . S
C981 H1037 0.929 . S
C982 C978 1.356 . S
C982 C979 1.358 . S
C982 H1038 0.930 . S
C983 N980 1.314 . S
C983 C981 1.353 . S
C983 H1039 0.930 . S
C984 N985 1.314 . S
C984 C989 1.360 . S
C984 H990 0.930 1_554 S
N985 Li968 1.990 . S
N985 C984 1.314 . S
N985 C987 1.279 . S
C986 C987 1.358 . S
C986 C988 1.356 . S
C986 H1040 0.930 . S
C987 N985 1.279 . S
C987 C986 1.358 . S
C987 H991 0.930 . S
C988 C986 1.356 . S
C988 C989 1.401 . S
C989 C984 1.360 . S
C989 C988 1.401 . S
C989 H1041 0.872 1_554 S
H990 C984 0.930 1_556 S
H991 C987 0.930 . S
C992 N993 1.314 . S
C992 C994 1.353 . S
C992 H998 0.930 . S
N993 Li969 1.990 . S
N993 C992 1.314 . S
N993 C996 1.279 . S
C994 C992 1.353 . S
C994 C997 1.348 . S
C994 H1042 0.929 . S
C995 C996 1.358 . S
C995 C997 1.356 . S
C995 H1043 0.930 . S
C996 N993 1.279 . S
C996 C995 1.358 . S
C996 H999 0.930 . S
C997 C994 1.348 . S
C997 C995 1.356 . S
H998 C992 0.930 . S
H999 C996 0.930 . S
C1000 C1002 1.348 . S
C1000 C1003 1.356 . S
C1000 O1030 1.325 . S
N1001 C1004 1.314 . S
N1001 C1005 1.279 . S
C1002 C1000 1.348 . S
C1002 C1004 1.353 . S
C1002 H1044 0.929 . S
C1003 C1000 1.356 . S
C1003 C1005 1.358 . S
C1003 H1045 0.930 . S
C1004 N1001 1.314 . S
C1004 C1002 1.353 . S
C1004 H1046 0.930 . S
C1005 N1001 1.279 . S
C1005 C1003 1.358 . S
C1005 H1047 0.930 . S
C1006 C1007 1.348 . S
C1006 C1008 1.356 . S
C1006 O1031 1.325 . S
C1007 C1006 1.348 . S
C1007 C1009 1.353 . S
C1007 H1048 0.929 . S
C1008 C1006 1.356 . S
C1008 C1010 1.358 . S
C1008 H1049 0.930 . S
C1009 C1007 1.353 . S
C1009 N1011 1.314 . S
C1009 H1050 0.930 . S
C1010 C1008 1.358 . S
C1010 N1011 1.279 . S
C1010 H1051 0.930 . S
N1011 C1009 1.314 . S
N1011 C1010 1.279 . S
C1012 C1014 1.353 . S
C1012 N1015 1.314 . S
C1012 H1018 0.930 . S
C1013 N1015 1.279 . S
C1013 C1016 1.358 . S
C1013 H1019 0.930 1_554 S
C1014 C1012 1.353 . S
C1014 C1017 1.348 . S
C1014 H1052 0.929 . S
N1015 Li970 1.990 . S
N1015 C1012 1.314 . S
N1015 C1013 1.279 . S
C1016 C1013 1.358 . S
C1016 C1017 1.356 . S
C1016 H1053 0.930 1_554 S
C1017 C1014 1.348 . S
C1017 C1016 1.356 . S
H1018 C1012 0.930 . S
H1019 C1013 0.930 1_556 S
C1020 N1021 1.314 . S
C1020 C1022 1.353 . S
C1020 H1026 0.930 . S
N1021 Li971 1.990 . S
N1021 C1020 1.314 . S
N1021 C1024 1.279 . S
C1022 C1020 1.353 . S
C1022 C1025 1.348 . S
C1022 H1054 0.929 . S
C1023 C1024 1.358 . S
C1023 C1025 1.356 . S
C1023 H1055 0.930 . S
C1024 N1021 1.279 . S
C1024 C1023 1.358 . S
C1024 H1027 0.930 . S
C1025 C1022 1.348 . S
C1025 C1023 1.356 . S
H1026 C1020 0.930 . S
H1027 C1024 0.930 . S
O1028 Li968 1.956 . S
O1028 Li969 1.970 . S
O1028 Li970 1.961 . S
O1028 C972 1.325 . S
O1029 Li968 1.970 . S
O1029 Li969 1.956 . S
O1029 Li971 1.961 1_554 S
O1029 C978 1.325 . S
O1030 Li968 1.961 1_556 S
O1030 Li970 1.956 1_556 S
O1030 Li971 1.970 . S
O1030 C1000 1.325 . S
O1031 Li969 1.961 . S
O1031 Li970 1.970 . S
O1031 Li971 1.956 1_554 S
O1031 C1006 1.325 . S
H1032 C974 0.929 . S
H1033 C975 0.930 . S
H1034 C976 0.930 . S
H1035 C977 0.930 . S
H1036 C979 0.922 1_556 S
H1037 C981 0.929 . S
H1038 C982 0.930 . S
H1039 C983 0.930 . S
H1040 C986 0.930 . S
H1041 C989 0.872 1_556 S
H1042 C994 0.929 . S
H1043 C995 0.930 . S
H1044 C1002 0.929 . S
H1045 C1003 0.930 . S
H1046 C1004 0.930 . S
H1047 C1005 0.930 . S
H1048 C1007 0.929 . S
H1049 C1008 0.930 . S
H1050 C1009 0.930 . S
H1051 C1010 0.930 . S
H1052 C1014 0.929 . S
H1053 C1016 0.930 1_556 S
H1054 C1022 0.929 . S
H1055 C1023 0.930 . S
Li1056 N1073 1.990 . S
Li1056 O1116 1.956 . S
Li1056 O1117 1.970 . S
Li1056 O1118 1.961 1_554 S
Li1057 N1081 1.990 . S
Li1057 O1116 1.970 . S
Li1057 O1117 1.956 . S
Li1057 O1119 1.961 . S
Li1058 N1103 1.990 . S
Li1058 O1116 1.961 . S
Li1058 O1118 1.956 1_554 S
Li1058 O1119 1.970 . S
Li1059 N1109 1.990 . S
Li1059 O1117 1.961 1_556 S
Li1059 O1118 1.970 . S
Li1059 O1119 1.956 1_556 S
C1060 C1062 1.348 . S
C1060 C1063 1.356 . S
C1060 O1116 1.325 . S
N1061 C1064 1.314 . S
N1061 C1065 1.279 . S
C1062 C1060 1.348 . S
C1062 C1064 1.353 . S
C1062 H1120 0.929 . S
C1063 C1060 1.356 . S
C1063 C1065 1.358 . S
C1063 H1121 0.930 . S
C1064 N1061 1.314 . S
C1064 C1062 1.353 . S
C1064 H1122 0.930 . S
C1065 N1061 1.279 . S
C1065 C1063 1.358 . S
C1065 H1123 0.930 . S
C1066 C1069 1.348 . S
C1066 C1070 1.356 . S
C1066 O1117 1.325 . S
C1067 N1068 1.279 . S
C1067 C1070 1.358 . S
C1067 H1124 0.929 . S
N1068 C1067 1.279 . S
N1068 C1071 1.314 . S
C1069 C1066 1.348 . S
C1069 C1071 1.353 . S
C1069 H1125 0.929 . S
C1070 C1066 1.356 . S
C1070 C1067 1.358 . S
C1070 H1126 0.930 . S
C1071 N1068 1.314 . S
C1071 C1069 1.353 . S
C1071 H1127 0.930 . S
C1072 N1073 1.314 . S
C1072 C1077 1.353 . S
C1072 H1078 0.930 1_554 S
N1073 Li1056 1.990 . S
N1073 C1072 1.314 . S
N1073 C1075 1.279 . S
C1074 C1075 1.358 . S
C1074 C1076 1.356 . S
C1074 H1128 0.930 . S
C1075 N1073 1.279 . S
C1075 C1074 1.358 . S
C1075 H1079 0.930 . S
C1076 C1074 1.356 . S
C1076 C1077 1.348 . S
C1077 C1072 1.353 . S
C1077 C1076 1.348 . S
C1077 H1129 0.929 1_554 S
H1078 C1072 0.930 1_556 S
H1079 C1075 0.930 . S
C1080 N1081 1.314 . S
C1080 C1082 1.353 . S
C1080 H1086 0.930 . S
N1081 Li1057 1.990 . S
N1081 C1080 1.314 . S
N1081 C1084 1.279 . S
C1082 C1080 1.353 . S
C1082 C1085 1.348 . S
C1082 H1130 0.929 . S
C1083 C1084 1.358 . S
C1083 C1085 1.356 . S
C1083 H1131 0.930 . S
C1084 N1081 1.279 . S
C1084 C1083 1.358 . S
C1084 H1087 0.930 . S
C1085 C1082 1.348 . S
C1085 C1083 1.356 . S
H1086 C1080 0.930 . S
H1087 C1084 0.930 . S
C1088 C1090 1.348 . S
C1088 C1091 1.356 . S
C1088 O1118 1.325 . S
N1089 C1092 1.314 . S
N1089 C1093 1.279 . S
C1090 C1088 1.348 . S
C1090 C1092 1.353 . S
C1090 H1132 0.929 . S
C1091 C1088 1.356 . S
C1091 C1093 1.358 . S
C1091 H1133 0.930 . S
C1092 N1089 1.314 . S
C1092 C1090 1.353 . S
C1092 H1134 0.930 . S
C1093 N1089 1.279 . S
C1093 C1091 1.358 . S
C1093 H1135 0.930 . S
C1094 C1095 1.348 . S
C1094 C1096 1.356 . S
C1094 O1119 1.325 . S
C1095 C1094 1.348 . S
C1095 C1097 1.353 . S
C1095 H1136 0.929 . S
C1096 C1094 1.356 . S
C1096 C1098 1.358 . S
C1096 H1137 0.930 . S
C1097 C1095 1.353 . S
C1097 N1099 1.314 . S
C1097 H1138 0.930 . S
C1098 C1096 1.358 . S
C1098 N1099 1.279 . S
C1098 H1139 0.930 . S
N1099 C1097 1.314 . S
N1099 C1098 1.279 . S
C1100 C1102 1.353 . S
C1100 N1103 1.314 . S
C1100 H1106 0.930 . S
C1101 N1103 1.279 . S
C1101 C1104 1.358 . S
C1101 H1107 0.930 1_554 S
C1102 C1100 1.353 . S
C1102 C1105 1.348 . S
C1102 H1140 0.929 . S
N1103 Li1058 1.990 . S
N1103 C1100 1.314 . S
N1103 C1101 1.279 . S
C1104 C1101 1.358 . S
C1104 C1105 1.356 . S
C1104 H1141 0.930 1_554 S
C1105 C1102 1.348 . S
C1105 C1104 1.356 . S
H1106 C1100 0.930 . S
H1107 C1101 0.930 1_556 S
C1108 N1109 1.314 . S
C1108 C1110 1.353 . S
C1108 H1114 0.930 . S
N1109 Li1059 1.990 . S
N1109 C1108 1.314 . S
N1109 C1112 1.279 . S
C1110 C1108 1.353 . S
C1110 C1113 1.348 . S
C1110 H1142 0.929 . S
C1111 C1112 1.358 . S
C1111 C1113 1.356 . S
C1111 H1143 0.930 . S
C1112 N1109 1.279 . S
C1112 C1111 1.358 . S
C1112 H1115 0.930 . S
C1113 C1110 1.348 . S
C1113 C1111 1.356 . S
H1114 C1108 0.930 . S
H1115 C1112 0.930 . S
O1116 Li1056 1.956 . S
O1116 Li1057 1.970 . S
O1116 Li1058 1.961 . S
O1116 C1060 1.325 . S
O1117 Li1056 1.970 . S
O1117 Li1057 1.956 . S
O1117 Li1059 1.961 1_554 S
O1117 C1066 1.325 . S
O1118 Li1056 1.961 1_556 S
O1118 Li1058 1.956 1_556 S
O1118 Li1059 1.970 . S
O1118 C1088 1.325 . S
O1119 Li1057 1.961 . S
O1119 Li1058 1.970 . S
O1119 Li1059 1.956 1_554 S
O1119 C1094 1.325 . S
H1120 C1062 0.929 . S
H1121 C1063 0.930 . S
H1122 C1064 0.930 . S
H1123 C1065 0.930 . S
H1124 C1067 0.929 . S
H1125 C1069 0.929 . S
H1126 C1070 0.930 . S
H1127 C1071 0.930 . S
H1128 C1074 0.930 . S
H1129 C1077 0.929 1_556 S
H1130 C1082 0.929 . S
H1131 C1083 0.930 . S
H1132 C1090 0.929 . S
H1133 C1091 0.930 . S
H1134 C1092 0.930 . S
H1135 C1093 0.930 . S
H1136 C1095 0.929 . S
H1137 C1096 0.930 . S
H1138 C1097 0.930 . S
H1139 C1098 0.930 . S
H1140 C1102 0.929 . S
H1141 C1104 0.930 1_556 S
H1142 C1110 0.929 . S
H1143 C1111 0.930 . S
Li1144 N1161 1.990 . S
Li1144 O1204 1.956 . S
Li1144 O1205 1.970 . S
Li1144 O1206 1.961 . S
Li1145 N1169 1.990 . S
Li1145 O1204 1.970 . S
Li1145 O1205 1.956 . S
Li1145 O1207 1.961 1_554 S
Li1146 N1191 1.990 . S
Li1146 O1204 1.961 1_556 S
Li1146 O1206 1.956 1_556 S
Li1146 O1207 1.970 . S
Li1147 N1197 1.990 . S
Li1147 O1205 1.961 . S
Li1147 O1206 1.970 . S
Li1147 O1207 1.956 1_554 S
C1148 C1150 1.348 . S
C1148 C1151 1.356 . S
C1148 O1204 1.325 . S
N1149 C1152 1.314 . S
N1149 C1153 1.279 . S
C1150 C1148 1.348 . S
C1150 C1152 1.353 . S
C1150 H1208 0.929 . S
C1151 C1148 1.356 . S
C1151 C1153 1.358 . S
C1151 H1209 0.930 . S
C1152 N1149 1.314 . S
C1152 C1150 1.353 . S
C1152 H1210 0.930 . S
C1153 N1149 1.279 . S
C1153 C1151 1.358 . S
C1153 H1211 0.930 . S
C1154 C1157 1.348 . S
C1154 C1158 1.356 . S
C1154 O1205 1.325 . S
C1155 N1156 1.279 . S
C1155 C1158 1.358 . S
C1155 H1212 0.930 . S
N1156 C1155 1.279 . S
N1156 C1159 1.314 . S
C1157 C1154 1.348 . S
C1157 C1159 1.353 . S
C1157 H1213 0.929 . S
C1158 C1154 1.356 . S
C1158 C1155 1.358 . S
C1158 H1214 0.930 . S
C1159 N1156 1.314 . S
C1159 C1157 1.353 . S
C1159 H1215 0.930 . S
C1160 N1161 1.314 . S
C1160 C1165 1.353 . S
C1160 H1166 0.930 . S
N1161 Li1144 1.990 . S
N1161 C1160 1.314 . S
N1161 C1163 1.279 . S
C1162 C1163 1.358 . S
C1162 C1164 1.356 . S
C1162 H1216 0.930 . S
C1163 N1161 1.279 . S
C1163 C1162 1.358 . S
C1163 H1167 0.930 . S
C1164 C1162 1.356 . S
C1164 C1165 1.348 . S
C1165 C1160 1.353 . S
C1165 C1164 1.348 . S
C1165 H1217 0.929 . S
H1166 C1160 0.930 . S
H1167 C1163 0.930 . S
C1168 N1169 1.314 1_556 S
C1168 C1170 1.353 . S
C1168 H1174 0.930 . S
N1169 Li1145 1.990 . S
N1169 C1168 1.314 1_554 S
N1169 C1172 1.279 . S
C1170 C1168 1.353 . S
C1170 C1173 1.348 1_556 S
C1170 H1218 0.929 . S
C1171 C1172 1.358 . S
C1171 C1173 1.356 . S
C1171 H1219 0.930 . S
C1172 N1169 1.279 . S
C1172 C1171 1.358 . S
C1172 H1175 0.930 . S
C1173 C1170 1.348 1_554 S
C1173 C1171 1.356 . S
H1174 C1168 0.930 . S
H1175 C1172 0.930 . S
C1176 C1178 1.348 . S
C1176 C1179 1.356 . S
C1176 O1206 1.325 . S
N1177 C1180 1.314 . S
N1177 C1181 1.279 . S
C1178 C1176 1.348 . S
C1178 C1180 1.353 . S
C1178 H1220 0.929 1_554 S
C1179 C1176 1.356 . S
C1179 C1181 1.358 . S
C1179 H1221 0.930 . S
C1180 N1177 1.314 . S
C1180 C1178 1.353 . S
C1180 H1222 0.930 1_554 S
C1181 N1177 1.279 . S
C1181 C1179 1.358 . S
C1181 H1223 0.930 . S
C1182 C1183 1.348 . S
C1182 C1184 1.356 . S
C1182 O1207 1.325 . S
C1183 C1182 1.348 . S
C1183 C1185 1.353 . S
C1183 H1224 0.929 . S
C1184 C1182 1.356 . S
C1184 C1186 1.358 . S
C1184 H1225 0.930 . S
C1185 C1183 1.353 . S
C1185 N1187 1.314 . S
C1185 H1226 0.930 . S
C1186 C1184 1.358 . S
C1186 N1187 1.279 . S
C1186 H1227 0.930 . S
N1187 C1185 1.314 . S
N1187 C1186 1.279 . S
C1188 C1190 1.353 . S
C1188 N1191 1.314 . S
C1188 H1194 0.930 . S
C1189 N1191 1.279 . S
C1189 C1192 1.358 . S
C1189 H1195 0.930 . S
C1190 C1188 1.353 . S
C1190 C1193 1.348 . S
C1190 H1228 0.929 . S
N1191 Li1146 1.990 . S
N1191 C1188 1.314 . S
N1191 C1189 1.279 . S
C1192 C1189 1.358 . S
C1192 C1193 1.356 . S
C1192 H1229 0.930 . S
C1193 C1190 1.348 . S
C1193 C1192 1.356 . S
H1194 C1188 0.930 . S
H1195 C1189 0.930 . S
C1196 N1197 1.314 . S
C1196 C1198 1.353 . S
C1196 H1202 0.930 . S
N1197 Li1147 1.990 . S
N1197 C1196 1.314 . S
N1197 C1200 1.279 1_554 S
C1198 C1196 1.353 . S
C1198 C1201 1.348 1_554 S
C1198 H1230 0.929 . S
C1199 C1200 1.358 . S
C1199 C1201 1.356 . S
C1199 H1231 0.930 . S
C1200 N1197 1.279 1_556 S
C1200 C1199 1.358 . S
C1200 H1203 0.930 . S
C1201 C1198 1.348 1_556 S
C1201 C1199 1.356 . S
H1202 C1196 0.930 . S
H1203 C1200 0.930 . S
O1204 Li1144 1.956 . S
O1204 Li1145 1.970 . S
O1204 Li1146 1.961 1_554 S
O1204 C1148 1.325 . S
O1205 Li1144 1.970 . S
O1205 Li1145 1.956 . S
O1205 Li1147 1.961 . S
O1205 C1154 1.325 . S
O1206 Li1144 1.961 . S
O1206 Li1146 1.956 1_554 S
O1206 Li1147 1.970 . S
O1206 C1176 1.325 . S
O1207 Li1145 1.961 1_556 S
O1207 Li1146 1.970 . S
O1207 Li1147 1.956 1_556 S
O1207 C1182 1.325 . S
H1208 C1150 0.929 . S
H1209 C1151 0.930 . S
H1210 C1152 0.930 . S
H1211 C1153 0.930 . S
H1212 C1155 0.930 . S
H1213 C1157 0.929 . S
H1214 C1158 0.930 . S
H1215 C1159 0.930 . S
H1216 C1162 0.930 . S
H1217 C1165 0.929 . S
H1218 C1170 0.929 . S
H1219 C1171 0.930 . S
H1220 C1178 0.929 1_556 S
H1221 C1179 0.930 . S
H1222 C1180 0.930 1_556 S
H1223 C1181 0.930 . S
H1224 C1183 0.929 . S
H1225 C1184 0.930 . S
H1226 C1185 0.930 . S
H1227 C1186 0.930 . S
H1228 C1190 0.929 . S
H1229 C1192 0.930 . S
H1230 C1198 0.929 . S
H1231 C1199 0.930 . S
Li1232 N1249 1.990 . S
Li1232 O1292 1.956 . S
Li1232 O1293 1.970 . S
Li1232 O1294 1.961 . S
Li1233 N1257 1.990 . S
Li1233 O1292 1.970 . S
Li1233 O1293 1.956 . S
Li1233 O1295 1.961 . S
Li1234 N1279 1.990 . S
Li1234 O1292 1.961 . S
Li1234 O1294 1.956 . S
Li1234 O1295 1.970 . S
Li1235 N1285 1.990 . S
Li1235 O1293 1.961 . S
Li1235 O1294 1.970 . S
Li1235 O1295 1.956 . S
C1236 C1238 1.348 . S
C1236 C1239 1.356 . S
C1236 O1292 1.325 . S
N1237 C1240 1.314 . S
N1237 C1241 1.279 . S
C1238 C1236 1.348 . S
C1238 C1240 1.353 . S
C1238 H1296 0.929 . S
C1239 C1236 1.356 . S
C1239 C1241 1.358 . S
C1239 H1297 0.930 . S
C1240 N1237 1.314 . S
C1240 C1238 1.353 . S
C1240 H1298 0.930 . S
C1241 N1237 1.279 . S
C1241 C1239 1.358 . S
C1241 H1299 0.930 . S
C1242 C1245 1.348 . S
C1242 C1246 1.356 . S
C1242 O1293 1.325 . S
C1243 N1244 1.279 . S
C1243 C1246 1.358 . S
C1243 H1300 0.930 . S
N1244 C1243 1.279 . S
N1244 C1247 1.314 . S
C1245 C1242 1.348 . S
C1245 C1247 1.353 . S
C1245 H1301 0.929 . S
C1246 C1242 1.356 . S
C1246 C1243 1.358 . S
C1246 H1302 0.930 . S
C1247 N1244 1.314 . S
C1247 C1245 1.353 . S
C1247 H1303 0.930 . S
C1248 N1249 1.314 . S
C1248 C1253 1.353 . S
C1248 H1254 0.930 . S
N1249 Li1232 1.990 . S
N1249 C1248 1.314 . S
N1249 C1251 1.279 . S
C1250 C1251 1.358 . S
C1250 C1252 1.356 . S
C1250 H1304 0.930 . S
C1251 N1249 1.279 . S
C1251 C1250 1.358 . S
C1251 H1255 0.930 . S
C1252 C1250 1.356 . S
C1252 C1253 1.348 . S
C1253 C1248 1.353 . S
C1253 C1252 1.348 . S
C1253 H1305 0.929 . S
H1254 C1248 0.930 . S
H1255 C1251 0.930 . S
C1256 N1257 1.314 . S
C1256 C1258 1.353 . S
C1256 H1262 0.930 . S
N1257 Li1233 1.990 . S
N1257 C1256 1.314 . S
N1257 C1260 1.279 . S
C1258 C1256 1.353 . S
C1258 C1261 1.348 . S
C1258 H1306 0.929 . S
C1259 C1260 1.358 . S
C1259 C1261 1.356 . S
C1259 H1307 0.930 . S
C1260 N1257 1.279 . S
C1260 C1259 1.358 . S
C1260 H1263 0.930 . S
C1261 C1258 1.348 . S
C1261 C1259 1.356 . S
H1262 C1256 0.930 . S
H1263 C1260 0.930 . S
C1264 C1266 1.348 . S
C1264 C1267 1.356 . S
C1264 O1294 1.325 . S
N1265 C1268 1.314 . S
N1265 C1269 1.279 . S
C1266 C1264 1.348 . S
C1266 C1268 1.353 . S
C1266 H1308 0.929 . S
C1267 C1264 1.356 . S
C1267 C1269 1.358 . S
C1267 H1309 0.930 . S
C1268 N1265 1.314 . S
C1268 C1266 1.353 . S
C1268 H1310 0.930 . S
C1269 N1265 1.279 . S
C1269 C1267 1.358 . S
C1269 H1311 0.930 . S
C1270 C1271 1.348 . S
C1270 C1272 1.356 . S
C1270 O1295 1.325 . S
C1271 C1270 1.348 . S
C1271 C1273 1.353 . S
C1271 H1312 0.929 . S
C1272 C1270 1.356 . S
C1272 C1274 1.358 . S
C1272 H1313 0.930 . S
C1273 C1271 1.353 . S
C1273 N1275 1.314 . S
C1273 H1314 0.930 . S
C1274 C1272 1.358 . S
C1274 N1275 1.279 . S
C1274 H1315 0.930 . S
N1275 C1273 1.314 . S
N1275 C1274 1.279 . S
C1276 C1278 1.353 . S
C1276 N1279 1.314 . S
C1276 H1282 0.930 . S
C1277 N1279 1.279 . S
C1277 C1280 1.358 . S
C1277 H1283 0.930 . S
C1278 C1276 1.353 . S
C1278 C1281 1.348 . S
C1278 H1316 0.929 . S
N1279 Li1234 1.990 . S
N1279 C1276 1.314 . S
N1279 C1277 1.279 . S
C1280 C1277 1.358 . S
C1280 C1281 1.356 . S
C1280 H1317 0.930 . S
C1281 C1278 1.348 . S
C1281 C1280 1.356 . S
H1282 C1276 0.930 . S
H1283 C1277 0.930 . S
C1284 N1285 1.314 . S
C1284 C1286 1.353 . S
C1284 H1290 0.930 . S
N1285 Li1235 1.990 . S
N1285 C1284 1.314 . S
N1285 C1288 1.279 . S
C1286 C1284 1.353 . S
C1286 C1289 1.348 . S
C1286 H1318 0.929 . S
C1287 C1288 1.358 . S
C1287 C1289 1.356 . S
C1287 H1319 0.930 . S
C1288 N1285 1.279 . S
C1288 C1287 1.358 . S
C1288 H1291 0.930 . S
C1289 C1286 1.348 . S
C1289 C1287 1.356 . S
H1290 C1284 0.930 . S
H1291 C1288 0.930 . S
O1292 Li1232 1.956 . S
O1292 Li1233 1.970 . S
O1292 Li1234 1.961 . S
O1292 C1236 1.325 . S
O1293 Li1232 1.970 . S
O1293 Li1233 1.956 . S
O1293 Li1235 1.961 . S
O1293 C1242 1.325 . S
O1294 Li1232 1.961 . S
O1294 Li1234 1.956 . S
O1294 Li1235 1.970 . S
O1294 C1264 1.325 . S
O1295 Li1233 1.961 . S
O1295 Li1234 1.970 . S
O1295 Li1235 1.956 . S
O1295 C1270 1.325 . S
H1296 C1238 0.929 . S
H1297 C1239 0.930 . S
H1298 C1240 0.930 . S
H1299 C1241 0.930 . S
H1300 C1243 0.930 . S
H1301 C1245 0.929 . S
H1302 C1246 0.930 . S
H1303 C1247 0.930 . S
H1304 C1250 0.930 . S
H1305 C1253 0.929 . S
H1306 C1258 0.929 . S
H1307 C1259 0.930 . S
H1308 C1266 0.929 . S
H1309 C1267 0.930 . S
H1310 C1268 0.930 . S
H1311 C1269 0.930 . S
H1312 C1271 0.929 . S
H1313 C1272 0.930 . S
H1314 C1273 0.930 . S
H1315 C1274 0.930 . S
H1316 C1278 0.929 . S
H1317 C1280 0.930 . S
H1318 C1286 0.929 . S
H1319 C1287 0.930 . S
Li1320 N1337 1.990 . S
Li1320 O1380 1.956 . S
Li1320 O1381 1.970 . S
Li1320 O1382 1.961 . S
Li1321 N1345 1.990 . S
Li1321 O1380 1.970 . S
Li1321 O1381 1.956 . S
Li1321 O1383 1.961 . S
Li1322 N1367 1.990 . S
Li1322 O1380 1.961 . S
Li1322 O1382 1.956 . S
Li1322 O1383 1.970 . S
Li1323 N1373 1.990 . S
Li1323 O1381 1.961 . S
Li1323 O1382 1.970 . S
Li1323 O1383 1.956 . S
C1324 C1326 1.348 . S
C1324 C1327 1.356 . S
C1324 O1380 1.325 . S
N1325 C1328 1.314 . S
N1325 C1329 1.279 . S
C1326 C1324 1.348 . S
C1326 C1328 1.353 . S
C1326 H1384 0.929 . S
C1327 C1324 1.356 . S
C1327 C1329 1.358 . S
C1327 H1385 0.930 . S
C1328 N1325 1.314 . S
C1328 C1326 1.353 . S
C1328 H1386 0.930 . S
C1329 N1325 1.279 . S
C1329 C1327 1.358 . S
C1329 H1387 0.930 . S
C1330 C1333 1.348 . S
C1330 C1334 1.356 . S
C1330 O1381 1.325 . S
C1331 N1332 1.279 . S
C1331 C1334 1.358 . S
C1331 H1388 0.930 . S
N1332 C1331 1.279 . S
N1332 C1335 1.314 . S
C1333 C1330 1.348 . S
C1333 C1335 1.353 . S
C1333 H1389 0.929 . S
C1334 C1330 1.356 . S
C1334 C1331 1.358 . S
C1334 H1390 0.930 . S
C1335 N1332 1.314 . S
C1335 C1333 1.353 . S
C1335 H1391 0.930 . S
C1336 N1337 1.314 . S
C1336 C1341 1.353 . S
C1336 H1342 0.930 . S
N1337 Li1320 1.990 . S
N1337 C1336 1.314 . S
N1337 C1339 1.279 . S
C1338 C1339 1.358 . S
C1338 C1340 1.356 . S
C1338 H1392 0.930 . S
C1339 N1337 1.279 . S
C1339 C1338 1.358 . S
C1339 H1343 0.930 . S
C1340 C1338 1.356 . S
C1340 C1341 1.348 . S
C1341 C1336 1.353 . S
C1341 C1340 1.348 . S
C1341 H1393 0.929 . S
H1342 C1336 0.930 . S
H1343 C1339 0.930 . S
C1344 N1345 1.314 . S
C1344 C1346 1.353 . S
C1344 H1350 0.930 . S
N1345 Li1321 1.990 . S
N1345 C1344 1.314 . S
N1345 C1348 1.279 . S
C1346 C1344 1.353 . S
C1346 C1349 1.348 . S
C1346 H1394 0.929 . S
C1347 C1348 1.358 . S
C1347 C1349 1.356 . S
C1347 H1395 0.930 . S
C1348 N1345 1.279 . S
C1348 C1347 1.358 . S
C1348 H1351 0.930 . S
C1349 C1346 1.348 . S
C1349 C1347 1.356 . S
H1350 C1344 0.930 . S
H1351 C1348 0.930 . S
C1352 C1354 1.348 . S
C1352 C1355 1.356 . S
C1352 O1382 1.325 . S
N1353 C1356 1.314 . S
N1353 C1357 1.279 . S
C1354 C1352 1.348 . S
C1354 C1356 1.353 . S
C1354 H1396 0.929 . S
C1355 C1352 1.356 . S
C1355 C1357 1.358 . S
C1355 H1397 0.930 . S
C1356 N1353 1.314 . S
C1356 C1354 1.353 . S
C1356 H1398 0.930 . S
C1357 N1353 1.279 . S
C1357 C1355 1.358 . S
C1357 H1399 0.930 . S
C1358 C1359 1.348 . S
C1358 C1360 1.356 . S
C1358 O1383 1.325 . S
C1359 C1358 1.348 . S
C1359 C1361 1.353 . S
C1359 H1400 0.929 . S
C1360 C1358 1.356 . S
C1360 C1362 1.358 . S
C1360 H1401 0.930 . S
C1361 C1359 1.353 . S
C1361 N1363 1.314 . S
C1361 H1402 0.930 . S
C1362 C1360 1.358 . S
C1362 N1363 1.279 . S
C1362 H1403 0.930 . S
N1363 C1361 1.314 . S
N1363 C1362 1.279 . S
C1364 C1366 1.353 . S
C1364 N1367 1.314 . S
C1364 H1370 0.930 . S
C1365 N1367 1.279 . S
C1365 C1368 1.358 . S
C1365 H1371 0.930 . S
C1366 C1364 1.353 . S
C1366 C1369 1.348 . S
C1366 H1404 0.929 . S
N1367 Li1322 1.990 . S
N1367 C1364 1.314 . S
N1367 C1365 1.279 . S
C1368 C1365 1.358 . S
C1368 C1369 1.356 . S
C1368 H1405 0.930 . S
C1369 C1366 1.348 . S
C1369 C1368 1.356 . S
H1370 C1364 0.930 . S
H1371 C1365 0.930 . S
C1372 N1373 1.314 . S
C1372 C1374 1.353 . S
C1372 H1378 0.930 . S
N1373 Li1323 1.990 . S
N1373 C1372 1.314 . S
N1373 C1376 1.279 . S
C1374 C1372 1.353 . S
C1374 C1377 1.348 . S
C1374 H1406 0.929 . S
C1375 C1376 1.358 . S
C1375 C1377 1.356 . S
C1375 H1407 0.930 . S
C1376 N1373 1.279 . S
C1376 C1375 1.358 . S
C1376 H1379 0.930 . S
C1377 C1374 1.348 . S
C1377 C1375 1.356 . S
H1378 C1372 0.930 . S
H1379 C1376 0.930 . S
O1380 Li1320 1.956 . S
O1380 Li1321 1.970 . S
O1380 Li1322 1.961 . S
O1380 C1324 1.325 . S
O1381 Li1320 1.970 . S
O1381 Li1321 1.956 . S
O1381 Li1323 1.961 . S
O1381 C1330 1.325 . S
O1382 Li1320 1.961 . S
O1382 Li1322 1.956 . S
O1382 Li1323 1.970 . S
O1382 C1352 1.325 . S
O1383 Li1321 1.961 . S
O1383 Li1322 1.970 . S
O1383 Li1323 1.956 . S
O1383 C1358 1.325 . S
H1384 C1326 0.929 . S
H1385 C1327 0.930 . S
H1386 C1328 0.930 . S
H1387 C1329 0.930 . S
H1388 C1331 0.930 . S
H1389 C1333 0.929 . S
H1390 C1334 0.930 . S
H1391 C1335 0.930 . S
H1392 C1338 0.930 . S
H1393 C1341 0.929 . S
H1394 C1346 0.929 . S
H1395 C1347 0.930 . S
H1396 C1354 0.929 . S
H1397 C1355 0.930 . S
H1398 C1356 0.930 . S
H1399 C1357 0.930 . S
H1400 C1359 0.929 . S
H1401 C1360 0.930 . S
H1402 C1361 0.930 . S
H1403 C1362 0.930 . S
H1404 C1366 0.929 . S
H1405 C1368 0.930 . S
H1406 C1374 0.929 . S
H1407 C1375 0.930 . S
Li1408 N1425 1.990 . S
Li1408 O1468 1.956 . S
Li1408 O1469 1.970 . S
Li1408 O1470 1.961 . S
Li1409 N1433 1.990 . S
Li1409 O1468 1.970 . S
Li1409 O1469 1.956 . S
Li1409 O1471 1.961 . S
Li1410 N1455 1.990 . S
Li1410 O1468 1.961 . S
Li1410 O1470 1.956 . S
Li1410 O1471 1.970 . S
Li1411 N1461 1.990 . S
Li1411 O1469 1.961 . S
Li1411 O1470 1.970 . S
Li1411 O1471 1.956 . S
C1412 C1414 1.348 . S
C1412 C1415 1.356 . S
C1412 O1468 1.325 . S
N1413 C1416 1.314 . S
N1413 C1417 1.279 1_565 S
C1414 C1412 1.348 . S
C1414 C1416 1.353 1_545 S
C1414 H1472 0.929 . S
C1415 C1412 1.356 . S
C1415 C1417 1.358 . S
C1415 H1473 0.930 . S
C1416 N1413 1.314 . S
C1416 C1414 1.353 1_565 S
C1416 H1474 0.930 . S
C1417 N1413 1.279 1_545 S
C1417 C1415 1.358 . S
C1417 H1475 0.930 . S
C1418 C1421 1.348 . S
C1418 C1422 1.356 . S
C1418 O1469 1.325 . S
C1419 N1420 1.279 . S
C1419 C1422 1.358 . S
C1419 H1476 0.930 . S
N1420 C1419 1.279 . S
N1420 C1423 1.314 . S
C1421 C1418 1.348 . S
C1421 C1423 1.353 . S
C1421 H1477 0.929 . S
C1422 C1418 1.356 . S
C1422 C1419 1.358 . S
C1422 H1478 0.930 . S
C1423 N1420 1.314 . S
C1423 C1421 1.353 . S
C1423 H1479 0.930 . S
C1424 N1425 1.314 . S
C1424 C1429 1.353 . S
C1424 H1430 0.930 . S
N1425 Li1408 1.990 . S
N1425 C1424 1.314 . S
N1425 C1427 1.279 . S
C1426 C1427 1.358 . S
C1426 C1428 1.356 . S
C1426 H1480 0.930 . S
C1427 N1425 1.279 . S
C1427 C1426 1.358 . S
C1427 H1431 0.930 . S
C1428 C1426 1.356 . S
C1428 C1429 1.348 . S
C1429 C1424 1.353 . S
C1429 C1428 1.348 . S
C1429 H1481 0.929 . S
H1430 C1424 0.930 . S
H1431 C1427 0.930 . S
C1432 N1433 1.314 . S
C1432 C1434 1.353 1_545 S
C1432 H1438 0.930 . S
N1433 Li1409 1.990 . S
N1433 C1432 1.314 . S
N1433 C1436 1.279 . S
C1434 C1432 1.353 1_565 S
C1434 C1437 1.348 . S
C1434 H1482 0.929 . S
C1435 C1436 1.358 1_565 S
C1435 C1437 1.356 . S
C1435 H1483 0.930 . S
C1436 N1433 1.279 . S
C1436 C1435 1.358 1_545 S
C1436 H1439 0.930 . S
C1437 C1434 1.348 . S
C1437 C1435 1.356 . S
H1438 C1432 0.930 . S
H1439 C1436 0.930 . S
C1440 C1442 1.348 . S
C1440 C1443 1.356 . S
C1440 O1470 1.325 . S
N1441 C1444 1.314 . S
N1441 C1445 1.279 . S
C1442 C1440 1.348 . S
C1442 C1444 1.353 . S
C1442 H1484 0.929 . S
C1443 C1440 1.356 . S
C1443 C1445 1.358 . S
C1443 H1485 0.930 . S
C1444 N1441 1.314 . S
C1444 C1442 1.353 . S
C1444 H1486 0.930 . S
C1445 N1441 1.279 . S
C1445 C1443 1.358 . S
C1445 H1487 0.930 . S
C1446 C1447 1.348 . S
C1446 C1448 1.356 . S
C1446 O1471 1.325 . S
C1447 C1446 1.348 . S
C1447 C1449 1.353 . S
C1447 H1488 0.929 . S
C1448 C1446 1.356 . S
C1448 C1450 1.358 . S
C1448 H1489 0.930 . S
C1449 C1447 1.353 . S
C1449 N1451 1.314 . S
C1449 H1490 0.930 . S
C1450 C1448 1.358 . S
C1450 N1451 1.279 . S
C1450 H1491 0.930 . S
N1451 C1449 1.314 . S
N1451 C1450 1.279 . S
C1452 C1454 1.353 . S
C1452 N1455 1.314 . S
C1452 H1458 0.930 . S
C1453 N1455 1.279 . S
C1453 C1456 1.358 . S
C1453 H1459 0.930 . S
C1454 C1452 1.353 . S
C1454 C1457 1.348 . S
C1454 H1492 0.929 . S
N1455 Li1410 1.990 . S
N1455 C1452 1.314 . S
N1455 C1453 1.279 . S
C1456 C1453 1.358 . S
C1456 C1457 1.356 . S
C1456 H1493 0.930 . S
C1457 C1454 1.348 . S
C1457 C1456 1.356 . S
H1458 C1452 0.930 . S
H1459 C1453 0.930 . S
C1460 N1461 1.314 . S
C1460 C1462 1.353 . S
C1460 H1466 0.930 . S
N1461 Li1411 1.990 . S
N1461 C1460 1.314 . S
N1461 C1464 1.279 . S
C1462 C1460 1.353 . S
C1462 C1465 1.348 . S
C1462 H1494 0.929 . S
C1463 C1464 1.358 . S
C1463 C1465 1.356 . S
C1463 H1495 0.930 . S
C1464 N1461 1.279 . S
C1464 C1463 1.358 . S
C1464 H1467 0.930 . S
C1465 C1462 1.348 . S
C1465 C1463 1.356 . S
H1466 C1460 0.930 . S
H1467 C1464 0.930 . S
O1468 Li1408 1.956 . S
O1468 Li1409 1.970 . S
O1468 Li1410 1.961 . S
O1468 C1412 1.325 . S
O1469 Li1408 1.970 . S
O1469 Li1409 1.956 . S
O1469 Li1411 1.961 . S
O1469 C1418 1.325 . S
O1470 Li1408 1.961 . S
O1470 Li1410 1.956 . S
O1470 Li1411 1.970 . S
O1470 C1440 1.325 . S
O1471 Li1409 1.961 . S
O1471 Li1410 1.970 . S
O1471 Li1411 1.956 . S
O1471 C1446 1.325 . S
H1472 C1414 0.929 . S
H1473 C1415 0.930 . S
H1474 C1416 0.930 . S
H1475 C1417 0.930 . S
H1476 C1419 0.930 . S
H1477 C1421 0.929 . S
H1478 C1422 0.930 . S
H1479 C1423 0.930 . S
H1480 C1426 0.930 . S
H1481 C1429 0.929 . S
H1482 C1434 0.929 . S
H1483 C1435 0.930 . S
H1484 C1442 0.929 . S
H1485 C1443 0.930 . S
H1486 C1444 0.930 . S
H1487 C1445 0.930 . S
H1488 C1447 0.929 . S
H1489 C1448 0.930 . S
H1490 C1449 0.930 . S
H1491 C1450 0.930 . S
H1492 C1454 0.929 . S
H1493 C1456 0.930 . S
H1494 C1462 0.929 . S
H1495 C1463 0.930 . S
Li1496 N1513 1.990 . S
Li1496 O1556 1.956 . S
Li1496 O1557 1.970 . S
Li1496 O1558 1.961 . S
Li1497 N1521 1.990 . S
Li1497 O1556 1.970 . S
Li1497 O1557 1.956 . S
Li1497 O1559 1.961 . S
Li1498 N1543 1.990 . S
Li1498 O1556 1.961 . S
Li1498 O1558 1.956 . S
Li1498 O1559 1.970 . S
Li1499 N1549 1.990 . S
Li1499 O1557 1.961 . S
Li1499 O1558 1.970 . S
Li1499 O1559 1.956 . S
C1500 C1502 1.348 . S
C1500 C1503 1.356 . S
C1500 O1556 1.325 . S
N1501 C1504 1.314 . S
N1501 C1505 1.279 . S
C1502 C1500 1.348 . S
C1502 C1504 1.353 . S
C1502 H1560 0.929 . S
C1503 C1500 1.356 . S
C1503 C1505 1.358 . S
C1503 H1561 0.930 . S
C1504 N1501 1.314 . S
C1504 C1502 1.353 . S
C1504 H1562 0.930 . S
C1505 N1501 1.279 . S
C1505 C1503 1.358 . S
C1505 H1563 0.930 . S
C1506 C1509 1.348 . S
C1506 C1510 1.356 . S
C1506 O1557 1.325 . S
C1507 N1508 1.279 . S
C1507 C1510 1.358 . S
C1507 H1564 0.930 . S
N1508 C1507 1.279 . S
N1508 C1511 1.314 . S
C1509 C1506 1.348 . S
C1509 C1511 1.353 . S
C1509 H1565 0.929 . S
C1510 C1506 1.356 . S
C1510 C1507 1.358 . S
C1510 H1566 0.930 . S
C1511 N1508 1.314 . S
C1511 C1509 1.353 . S
C1511 H1567 0.930 . S
C1512 N1513 1.314 . S
C1512 C1517 1.353 . S
C1512 H1518 0.930 . S
N1513 Li1496 1.990 . S
N1513 C1512 1.314 . S
N1513 C1515 1.279 . S
C1514 C1515 1.358 . S
C1514 C1516 1.356 . S
C1514 H1568 0.930 . S
C1515 N1513 1.279 . S
C1515 C1514 1.358 . S
C1515 H1519 0.930 . S
C1516 C1514 1.356 . S
C1516 C1517 1.348 . S
C1517 C1512 1.353 . S
C1517 C1516 1.348 . S
C1517 H1569 0.929 . S
H1518 C1512 0.930 . S
H1519 C1515 0.930 . S
C1520 N1521 1.314 . S
C1520 C1522 1.353 . S
C1520 H1526 0.930 . S
N1521 Li1497 1.990 . S
N1521 C1520 1.314 . S
N1521 C1524 1.279 . S
C1522 C1520 1.353 . S
C1522 C1525 1.348 . S
C1522 H1570 0.929 . S
C1523 C1524 1.358 . S
C1523 C1525 1.356 . S
C1523 H1571 0.930 . S
C1524 N1521 1.279 . S
C1524 C1523 1.358 . S
C1524 H1527 0.930 . S
C1525 C1522 1.348 . S
C1525 C1523 1.356 . S
H1526 C1520 0.930 . S
H1527 C1524 0.930 . S
C1528 C1530 1.348 . S
C1528 C1531 1.356 . S
C1528 O1558 1.325 . S
N1529 C1532 1.314 . S
N1529 C1533 1.279 . S
C1530 C1528 1.348 . S
C1530 C1532 1.353 . S
C1530 H1572 0.929 . S
C1531 C1528 1.356 . S
C1531 C1533 1.358 . S
C1531 H1573 0.930 . S
C1532 N1529 1.314 . S
C1532 C1530 1.353 . S
C1532 H1574 0.930 . S
C1533 N1529 1.279 . S
C1533 C1531 1.358 . S
C1533 H1575 0.930 . S
C1534 C1535 1.348 . S
C1534 C1536 1.356 . S
C1534 O1559 1.325 . S
C1535 C1534 1.348 . S
C1535 C1537 1.353 . S
C1535 H1576 0.929 . S
C1536 C1534 1.356 . S
C1536 C1538 1.358 . S
C1536 H1577 0.930 . S
C1537 C1535 1.353 . S
C1537 N1539 1.314 . S
C1537 H1578 0.930 . S
C1538 C1536 1.358 . S
C1538 N1539 1.279 . S
C1538 H1579 0.930 . S
N1539 C1537 1.314 . S
N1539 C1538 1.279 . S
C1540 C1542 1.353 . S
C1540 N1543 1.314 . S
C1540 H1546 0.930 . S
C1541 N1543 1.279 . S
C1541 C1544 1.358 . S
C1541 H1547 0.930 . S
C1542 C1540 1.353 . S
C1542 C1545 1.348 . S
C1542 H1580 0.929 . S
N1543 Li1498 1.990 . S
N1543 C1540 1.314 . S
N1543 C1541 1.279 . S
C1544 C1541 1.358 . S
C1544 C1545 1.356 . S
C1544 H1581 0.930 . S
C1545 C1542 1.348 . S
C1545 C1544 1.356 . S
H1546 C1540 0.930 . S
H1547 C1541 0.930 . S
C1548 N1549 1.314 . S
C1548 C1550 1.353 . S
C1548 H1554 0.930 . S
N1549 Li1499 1.990 . S
N1549 C1548 1.314 . S
N1549 C1552 1.279 . S
C1550 C1548 1.353 . S
C1550 C1553 1.348 . S
C1550 H1582 0.929 . S
C1551 C1552 1.358 . S
C1551 C1553 1.356 . S
C1551 H1583 0.930 . S
C1552 N1549 1.279 . S
C1552 C1551 1.358 . S
C1552 H1555 0.930 . S
C1553 C1550 1.348 . S
C1553 C1551 1.356 . S
H1554 C1548 0.930 . S
H1555 C1552 0.930 . S
O1556 Li1496 1.956 . S
O1556 Li1497 1.970 . S
O1556 Li1498 1.961 . S
O1556 C1500 1.325 . S
O1557 Li1496 1.970 . S
O1557 Li1497 1.956 . S
O1557 Li1499 1.961 . S
O1557 C1506 1.325 . S
O1558 Li1496 1.961 . S
O1558 Li1498 1.956 . S
O1558 Li1499 1.970 . S
O1558 C1528 1.325 . S
O1559 Li1497 1.961 . S
O1559 Li1498 1.970 . S
O1559 Li1499 1.956 . S
O1559 C1534 1.325 . S
H1560 C1502 0.929 . S
H1561 C1503 0.930 . S
H1562 C1504 0.930 . S
H1563 C1505 0.930 . S
H1564 C1507 0.930 . S
H1565 C1509 0.929 . S
H1566 C1510 0.930 . S
H1567 C1511 0.930 . S
H1568 C1514 0.930 . S
H1569 C1517 0.929 . S
H1570 C1522 0.929 . S
H1571 C1523 0.930 . S
H1572 C1530 0.929 . S
H1573 C1531 0.930 . S
H1574 C1532 0.930 . S
H1575 C1533 0.930 . S
H1576 C1535 0.929 . S
H1577 C1536 0.930 . S
H1578 C1537 0.930 . S
H1579 C1538 0.930 . S
H1580 C1542 0.929 . S
H1581 C1544 0.930 . S
H1582 C1550 0.929 . S
H1583 C1551 0.930 . S
Li1584 N1601 1.990 . S
Li1584 O1644 1.956 . S
Li1584 O1645 1.970 . S
Li1584 O1646 1.961 . S
Li1585 N1609 1.990 . S
Li1585 O1644 1.970 . S
Li1585 O1645 1.956 . S
Li1585 O1647 1.961 . S
Li1586 N1631 1.990 . S
Li1586 O1644 1.961 . S
Li1586 O1646 1.956 . S
Li1586 O1647 1.970 . S
Li1587 N1637 1.990 . S
Li1587 O1645 1.961 . S
Li1587 O1646 1.970 . S
Li1587 O1647 1.956 . S
C1588 C1590 1.348 . S
C1588 C1591 1.356 . S
C1588 O1644 1.325 . S
N1589 C1592 1.314 . S
N1589 C1593 1.279 . S
C1590 C1588 1.348 . S
C1590 C1592 1.353 . S
C1590 H1648 0.929 . S
C1591 C1588 1.356 . S
C1591 C1593 1.358 . S
C1591 H1649 0.930 . S
C1592 N1589 1.314 . S
C1592 C1590 1.353 . S
C1592 H1650 0.930 . S
C1593 N1589 1.279 . S
C1593 C1591 1.358 . S
C1593 H1651 0.930 . S
C1594 C1597 1.348 . S
C1594 C1598 1.356 . S
C1594 O1645 1.325 . S
C1595 N1596 1.279 . S
C1595 C1598 1.358 . S
C1595 H1652 0.930 . S
N1596 C1595 1.279 . S
N1596 C1599 1.314 . S
C1597 C1594 1.348 . S
C1597 C1599 1.353 . S
C1597 H1653 0.929 . S
C1598 C1594 1.356 . S
C1598 C1595 1.358 . S
C1598 H1654 0.930 . S
C1599 N1596 1.314 . S
C1599 C1597 1.353 . S
C1599 H1655 0.930 . S
C1600 N1601 1.314 . S
C1600 C1605 1.353 . S
C1600 H1606 0.930 . S
N1601 Li1584 1.990 . S
N1601 C1600 1.314 . S
N1601 C1603 1.279 . S
C1602 C1603 1.358 . S
C1602 C1604 1.356 . S
C1602 H1656 0.930 . S
C1603 N1601 1.279 . S
C1603 C1602 1.358 . S
C1603 H1607 0.930 . S
C1604 C1602 1.356 . S
C1604 C1605 1.348 . S
C1605 C1600 1.353 . S
C1605 C1604 1.348 . S
C1605 H1657 0.929 . S
H1606 C1600 0.930 . S
H1607 C1603 0.930 . S
C1608 N1609 1.314 . S
C1608 C1610 1.353 . S
C1608 H1614 0.930 . S
N1609 Li1585 1.990 . S
N1609 C1608 1.314 . S
N1609 C1612 1.279 . S
C1610 C1608 1.353 . S
C1610 C1613 1.348 . S
C1610 H1658 0.929 . S
C1611 C1612 1.358 . S
C1611 C1613 1.356 . S
C1611 H1659 0.930 . S
C1612 N1609 1.279 . S
C1612 C1611 1.358 . S
C1612 H1615 0.930 . S
C1613 C1610 1.348 . S
C1613 C1611 1.356 . S
H1614 C1608 0.930 . S
H1615 C1612 0.930 . S
C1616 C1618 1.348 . S
C1616 C1619 1.356 . S
C1616 O1646 1.325 . S
N1617 C1620 1.314 . S
N1617 C1621 1.279 . S
C1618 C1616 1.348 . S
C1618 C1620 1.353 . S
C1618 H1660 0.929 . S
C1619 C1616 1.356 . S
C1619 C1621 1.358 . S
C1619 H1661 0.930 . S
C1620 N1617 1.314 . S
C1620 C1618 1.353 . S
C1620 H1662 0.930 . S
C1621 N1617 1.279 . S
C1621 C1619 1.358 . S
C1621 H1663 0.930 . S
C1622 C1623 1.348 . S
C1622 C1624 1.356 . S
C1622 O1647 1.325 . S
C1623 C1622 1.348 . S
C1623 C1625 1.353 . S
C1623 H1664 0.929 . S
C1624 C1622 1.356 . S
C1624 C1626 1.358 . S
C1624 H1665 0.930 . S
C1625 C1623 1.353 . S
C1625 N1627 1.314 . S
C1625 H1666 0.930 . S
C1626 C1624 1.358 . S
C1626 N1627 1.279 . S
C1626 H1667 0.930 . S
N1627 C1625 1.314 . S
N1627 C1626 1.279 . S
C1628 C1630 1.353 . S
C1628 N1631 1.314 . S
C1628 H1634 0.930 . S
C1629 N1631 1.279 . S
C1629 C1632 1.358 . S
C1629 H1635 0.930 . S
C1630 C1628 1.353 . S
C1630 C1633 1.348 . S
C1630 H1668 0.929 . S
N1631 Li1586 1.990 . S
N1631 C1628 1.314 . S
N1631 C1629 1.279 . S
C1632 C1629 1.358 . S
C1632 C1633 1.356 . S
C1632 H1669 0.930 . S
C1633 C1630 1.348 . S
C1633 C1632 1.356 . S
H1634 C1628 0.930 . S
H1635 C1629 0.930 . S
C1636 N1637 1.314 . S
C1636 C1638 1.353 . S
C1636 H1642 0.930 . S
N1637 Li1587 1.990 . S
N1637 C1636 1.314 . S
N1637 C1640 1.279 . S
C1638 C1636 1.353 . S
C1638 C1641 1.348 . S
C1638 H1670 0.929 . S
C1639 C1640 1.358 . S
C1639 C1641 1.356 . S
C1639 H1671 0.930 . S
C1640 N1637 1.279 . S
C1640 C1639 1.358 . S
C1640 H1643 0.930 . S
C1641 C1638 1.348 . S
C1641 C1639 1.356 . S
H1642 C1636 0.930 . S
H1643 C1640 0.930 . S
O1644 Li1584 1.956 . S
O1644 Li1585 1.970 . S
O1644 Li1586 1.961 . S
O1644 C1588 1.325 . S
O1645 Li1584 1.970 . S
O1645 Li1585 1.956 . S
O1645 Li1587 1.961 . S
O1645 C1594 1.325 . S
O1646 Li1584 1.961 . S
O1646 Li1586 1.956 . S
O1646 Li1587 1.970 . S
O1646 C1616 1.325 . S
O1647 Li1585 1.961 . S
O1647 Li1586 1.970 . S
O1647 Li1587 1.956 . S
O1647 C1622 1.325 . S
H1648 C1590 0.929 . S
H1649 C1591 0.930 . S
H1650 C1592 0.930 . S
H1651 C1593 0.930 . S
H1652 C1595 0.930 . S
H1653 C1597 0.929 . S
H1654 C1598 0.930 . S
H1655 C1599 0.930 . S
H1656 C1602 0.930 . S
H1657 C1605 0.929 . S
H1658 C1610 0.929 . S
H1659 C1611 0.930 . S
H1660 C1618 0.929 . S
H1661 C1619 0.930 . S
H1662 C1620 0.930 . S
H1663 C1621 0.930 . S
H1664 C1623 0.929 . S
H1665 C1624 0.930 . S
H1666 C1625 0.930 . S
H1667 C1626 0.930 . S
H1668 C1630 0.929 . S
H1669 C1632 0.930 . S
H1670 C1638 0.929 . S
H1671 C1639 0.930 . S
Li1672 N1689 1.990 . S
Li1672 O1732 1.956 . S
Li1672 O1733 1.970 . S
Li1672 O1734 1.961 . S
Li1673 N1697 1.990 . S
Li1673 O1732 1.970 . S
Li1673 O1733 1.956 . S
Li1673 O1735 1.961 . S
Li1674 N1719 1.990 . S
Li1674 O1732 1.961 . S
Li1674 O1734 1.956 . S
Li1674 O1735 1.970 . S
Li1675 N1725 1.990 . S
Li1675 O1733 1.961 . S
Li1675 O1734 1.970 . S
Li1675 O1735 1.956 . S
C1676 C1678 1.348 . S
C1676 C1679 1.356 . S
C1676 O1732 1.325 . S
N1677 C1680 1.314 . S
N1677 C1681 1.279 . S
C1678 C1676 1.348 . S
C1678 C1680 1.353 . S
C1678 H1736 0.929 . S
C1679 C1676 1.356 . S
C1679 C1681 1.358 . S
C1679 H1737 0.930 . S
C1680 N1677 1.314 . S
C1680 C1678 1.353 . S
C1680 H1738 0.930 . S
C1681 N1677 1.279 . S
C1681 C1679 1.358 . S
C1681 H1739 0.930 . S
C1682 C1685 1.348 . S
C1682 C1686 1.356 . S
C1682 O1733 1.325 . S
C1683 N1684 1.279 . S
C1683 C1686 1.358 . S
C1683 H1740 0.930 . S
N1684 C1683 1.279 . S
N1684 C1687 1.314 . S
C1685 C1682 1.348 . S
C1685 C1687 1.353 . S
C1685 H1741 0.929 . S
C1686 C1682 1.356 . S
C1686 C1683 1.358 . S
C1686 H1742 0.930 . S
C1687 N1684 1.314 . S
C1687 C1685 1.353 . S
C1687 H1743 0.930 . S
C1688 N1689 1.314 . S
C1688 C1693 1.353 . S
C1688 H1694 0.930 . S
N1689 Li1672 1.990 . S
N1689 C1688 1.314 . S
N1689 C1691 1.279 . S
C1690 C1691 1.358 . S
C1690 C1692 1.356 . S
C1690 H1744 0.930 . S
C1691 N1689 1.279 . S
C1691 C1690 1.358 . S
C1691 H1695 0.930 . S
C1692 C1690 1.356 . S
C1692 C1693 1.348 . S
C1693 C1688 1.353 . S
C1693 C1692 1.348 . S
C1693 H1745 0.929 . S
H1694 C1688 0.930 . S
H1695 C1691 0.930 . S
C1696 N1697 1.314 . S
C1696 C1698 1.353 . S
C1696 H1702 0.930 . S
N1697 Li1673 1.990 . S
N1697 C1696 1.314 . S
N1697 C1700 1.279 . S
C1698 C1696 1.353 . S
C1698 C1701 1.348 . S
C1698 H1746 0.929 . S
C1699 C1700 1.358 . S
C1699 C1701 1.356 . S
C1699 H1747 0.930 . S
C1700 N1697 1.279 . S
C1700 C1699 1.358 . S
C1700 H1703 0.930 . S
C1701 C1698 1.348 . S
C1701 C1699 1.356 . S
H1702 C1696 0.930 . S
H1703 C1700 0.930 . S
C1704 C1706 1.348 1_545 S
C1704 C1707 1.356 . S
C1704 O1734 1.325 . S
N1705 C1708 1.314 . S
N1705 C1709 1.279 . S
C1706 C1704 1.348 1_565 S
C1706 C1708 1.353 . S
C1706 H1748 0.929 . S
C1707 C1704 1.356 . S
C1707 C1709 1.358 1_545 S
C1707 H1749 0.930 . S
C1708 N1705 1.314 . S
C1708 C1706 1.353 . S
C1708 H1750 0.930 . S
C1709 N1705 1.279 . S
C1709 C1707 1.358 1_565 S
C1709 H1751 0.930 . S
C1710 C1711 1.348 . S
C1710 C1712 1.356 . S
C1710 O1735 1.325 . S
C1711 C1710 1.348 . S
C1711 C1713 1.353 . S
C1711 H1752 0.929 . S
C1712 C1710 1.356 . S
C1712 C1714 1.358 . S
C1712 H1753 0.930 . S
C1713 C1711 1.353 . S
C1713 N1715 1.314 . S
C1713 H1754 0.930 . S
C1714 C1712 1.358 . S
C1714 N1715 1.279 . S
C1714 H1755 0.930 . S
N1715 C1713 1.314 . S
N1715 C1714 1.279 . S
C1716 C1718 1.353 . S
C1716 N1719 1.314 . S
C1716 H1722 0.930 . S
C1717 N1719 1.279 . S
C1717 C1720 1.358 . S
C1717 H1723 0.930 . S
C1718 C1716 1.353 . S
C1718 C1721 1.348 . S
C1718 H1756 0.929 . S
N1719 Li1674 1.990 . S
N1719 C1716 1.314 . S
N1719 C1717 1.279 . S
C1720 C1717 1.358 . S
C1720 C1721 1.356 . S
C1720 H1757 0.930 . S
C1721 C1718 1.348 . S
C1721 C1720 1.356 . S
H1722 C1716 0.930 . S
H1723 C1717 0.930 . S
C1724 N1725 1.314 . S
C1724 C1726 1.353 1_545 S
C1724 H1730 0.930 . S
N1725 Li1675 1.990 . S
N1725 C1724 1.314 . S
N1725 C1728 1.279 . S
C1726 C1724 1.353 1_565 S
C1726 C1729 1.348 . S
C1726 H1758 0.929 . S
C1727 C1728 1.358 1_565 S
C1727 C1729 1.356 . S
C1727 H1759 0.930 . S
C1728 N1725 1.279 . S
C1728 C1727 1.358 1_545 S
C1728 H1731 0.930 . S
C1729 C1726 1.348 . S
C1729 C1727 1.356 . S
H1730 C1724 0.930 . S
H1731 C1728 0.930 . S
O1732 Li1672 1.956 . S
O1732 Li1673 1.970 . S
O1732 Li1674 1.961 . S
O1732 C1676 1.325 . S
O1733 Li1672 1.970 . S
O1733 Li1673 1.956 . S
O1733 Li1675 1.961 . S
O1733 C1682 1.325 . S
O1734 Li1672 1.961 . S
O1734 Li1674 1.956 . S
O1734 Li1675 1.970 . S
O1734 C1704 1.325 . S
O1735 Li1673 1.961 . S
O1735 Li1674 1.970 . S
O1735 Li1675 1.956 . S
O1735 C1710 1.325 . S
H1736 C1678 0.929 . S
H1737 C1679 0.930 . S
H1738 C1680 0.930 . S
H1739 C1681 0.930 . S
H1740 C1683 0.930 . S
H1741 C1685 0.929 . S
H1742 C1686 0.930 . S
H1743 C1687 0.930 . S
H1744 C1690 0.930 . S
H1745 C1693 0.929 . S
H1746 C1698 0.929 . S
H1747 C1699 0.930 . S
H1748 C1706 0.929 . S
H1749 C1707 0.930 . S
H1750 C1708 0.930 . S
H1751 C1709 0.930 . S
H1752 C1711 0.929 . S
H1753 C1712 0.930 . S
H1754 C1713 0.930 . S
H1755 C1714 0.930 . S
H1756 C1718 0.929 . S
H1757 C1720 0.930 . S
H1758 C1726 0.929 . S
H1759 C1727 0.930 . S
Li1760 N1777 1.990 . S
Li1760 O1820 1.956 . S
Li1760 O1821 1.970 . S
Li1760 O1822 1.961 . S
Li1761 N1785 1.990 . S
Li1761 O1820 1.970 . S
Li1761 O1821 1.956 . S
Li1761 O1823 1.961 1_554 S
Li1762 N1807 1.990 . S
Li1762 O1820 1.961 1_556 S
Li1762 O1822 1.956 1_556 S
Li1762 O1823 1.970 . S
Li1763 N1813 1.989 . S
Li1763 O1821 1.961 . S
Li1763 O1822 1.970 . S
Li1763 O1823 1.956 1_554 S
C1764 C1766 1.348 . S
C1764 C1767 1.356 . S
C1764 O1820 1.325 . S
N1765 C1768 1.314 . S
N1765 C1769 1.279 . S
C1766 C1764 1.348 . S
C1766 C1768 1.353 . S
C1766 H1824 0.929 . S
C1767 C1764 1.356 . S
C1767 C1769 1.358 . S
C1767 H1825 0.930 . S
C1768 N1765 1.314 . S
C1768 C1766 1.353 . S
C1768 H1826 0.930 . S
C1769 N1765 1.279 . S
C1769 C1767 1.358 . S
C1769 H1827 0.930 . S
C1770 C1773 1.348 . S
C1770 C1774 1.356 . S
C1770 O1821 1.325 . S
C1771 N1772 1.279 . S
C1771 C1774 1.358 . S
C1771 H1828 0.930 . S
N1772 C1771 1.279 . S
N1772 C1775 1.314 . S
C1773 C1770 1.348 . S
C1773 C1775 1.353 . S
C1773 H1829 0.929 . S
C1774 C1770 1.356 . S
C1774 C1771 1.358 . S
C1774 H1830 0.930 . S
C1775 N1772 1.314 . S
C1775 C1773 1.353 . S
C1775 H1831 0.930 . S
C1776 N1777 1.314 . S
C1776 C1781 1.353 . S
C1776 H1782 0.930 . S
N1777 Li1760 1.990 . S
N1777 C1776 1.314 . S
N1777 C1779 1.279 . S
C1778 C1779 1.358 . S
C1778 C1780 1.356 . S
C1778 H1832 0.930 . S
C1779 N1777 1.279 . S
C1779 C1778 1.358 . S
C1779 H1783 0.930 . S
C1780 C1778 1.356 . S
C1780 C1781 1.348 . S
C1781 C1776 1.353 . S
C1781 C1780 1.348 . S
C1781 H1833 0.929 . S
H1782 C1776 0.930 . S
H1783 C1779 0.930 . S
C1784 N1785 1.314 1_556 S
C1784 C1786 1.353 . S
C1784 H1790 0.930 . S
N1785 Li1761 1.990 . S
N1785 C1784 1.314 1_554 S
N1785 C1788 1.279 . S
C1786 C1784 1.353 . S
C1786 C1789 1.348 1_556 S
C1786 H1834 0.929 . S
C1787 C1788 1.358 . S
C1787 C1789 1.356 . S
C1787 H1835 0.930 . S
C1788 N1785 1.279 . S
C1788 C1787 1.358 . S
C1788 H1791 0.930 . S
C1789 C1786 1.348 1_554 S
C1789 C1787 1.356 . S
H1790 C1784 0.930 . S
H1791 C1788 0.930 . S
C1792 C1794 1.359 . S
C1792 C1795 1.356 . S
C1792 O1822 1.325 . S
N1793 C1796 1.314 . S
N1793 C1797 1.279 . S
C1794 C1792 1.359 . S
C1794 C1796 1.353 . S
C1794 H1836 0.920 1_554 S
C1795 C1792 1.356 . S
C1795 C1797 1.358 . S
C1795 H1837 0.930 . S
C1796 N1793 1.314 . S
C1796 C1794 1.353 . S
C1796 H1838 0.930 1_554 S
C1797 N1793 1.279 . S
C1797 C1795 1.358 . S
C1797 H1839 0.930 . S
C1798 C1799 1.348 . S
C1798 C1800 1.356 . S
C1798 O1823 1.325 . S
C1799 C1798 1.348 . S
C1799 C1801 1.353 . S
C1799 H1840 0.929 . S
C1800 C1798 1.356 . S
C1800 C1802 1.358 . S
C1800 H1841 0.930 . S
C1801 C1799 1.353 . S
C1801 N1803 1.314 . S
C1801 H1842 0.930 . S
C1802 C1800 1.358 . S
C1802 N1803 1.279 . S
C1802 H1843 0.930 . S
N1803 C1801 1.314 . S
N1803 C1802 1.279 . S
C1804 C1806 1.353 . S
C1804 N1807 1.314 . S
C1804 H1810 0.930 . S
C1805 N1807 1.279 . S
C1805 C1808 1.358 . S
C1805 H1811 0.930 . S
C1806 C1804 1.353 . S
C1806 C1809 1.348 . S
C1806 H1844 0.929 . S
N1807 Li1762 1.990 . S
N1807 C1804 1.314 . S
N1807 C1805 1.279 . S
C1808 C1805 1.358 . S
C1808 C1809 1.356 . S
C1808 H1845 0.930 . S
C1809 C1806 1.348 . S
C1809 C1808 1.356 . S
H1810 C1804 0.930 . S
H1811 C1805 0.930 . S
C1812 N1813 1.329 . S
C1812 C1814 1.353 . S
C1812 H1818 0.930 . S
N1813 Li1763 1.989 . S
N1813 C1812 1.329 . S
N1813 C1816 1.267 1_554 S
C1814 C1812 1.353 . S
C1814 C1817 1.348 1_554 S
C1814 H1846 0.929 . S
C1815 C1816 1.358 . S
C1815 C1817 1.356 . S
C1815 H1847 0.930 . S
C1816 N1813 1.267 1_556 S
C1816 C1815 1.358 . S
C1816 H1819 0.930 . S
C1817 C1814 1.348 1_556 S
C1817 C1815 1.356 . S
H1818 C1812 0.930 . S
H1819 C1816 0.930 . S
O1820 Li1760 1.956 . S
O1820 Li1761 1.970 . S
O1820 Li1762 1.961 1_554 S
O1820 C1764 1.325 . S
O1821 Li1760 1.970 . S
O1821 Li1761 1.956 . S
O1821 Li1763 1.961 . S
O1821 C1770 1.325 . S
O1822 Li1760 1.961 . S
O1822 Li1762 1.956 1_554 S
O1822 Li1763 1.970 . S
O1822 C1792 1.325 . S
O1823 Li1761 1.961 1_556 S
O1823 Li1762 1.970 . S
O1823 Li1763 1.956 1_556 S
O1823 C1798 1.325 . S
H1824 C1766 0.929 . S
H1825 C1767 0.930 . S
H1826 C1768 0.930 . S
H1827 C1769 0.930 . S
H1828 C1771 0.930 . S
H1829 C1773 0.929 . S
H1830 C1774 0.930 . S
H1831 C1775 0.930 . S
H1832 C1778 0.930 . S
H1833 C1781 0.929 . S
H1834 C1786 0.929 . S
H1835 C1787 0.930 . S
H1836 C1794 0.920 1_556 S
H1837 C1795 0.930 . S
H1838 C1796 0.930 1_556 S
H1839 C1797 0.930 . S
H1840 C1799 0.929 . S
H1841 C1800 0.930 . S
H1842 C1801 0.930 . S
H1843 C1802 0.930 . S
H1844 C1806 0.929 . S
H1845 C1808 0.930 . S
H1846 C1814 0.929 . S
H1847 C1815 0.930 . S
Li1848 N1865 1.990 . S
Li1848 O1908 1.956 . S
Li1848 O1909 1.970 . S
Li1848 O1910 1.961 . S
Li1849 N1873 1.990 . S
Li1849 O1908 1.970 . S
Li1849 O1909 1.956 . S
Li1849 O1911 1.961 . S
Li1850 N1895 1.990 . S
Li1850 O1908 1.961 . S
Li1850 O1910 1.956 . S
Li1850 O1911 1.970 . S
Li1851 N1901 1.990 . S
Li1851 O1909 1.961 . S
Li1851 O1910 1.970 . S
Li1851 O1911 1.956 . S
C1852 C1854 1.348 . S
C1852 C1855 1.356 . S
C1852 O1908 1.325 . S
N1853 C1856 1.314 . S
N1853 C1857 1.279 . S
C1854 C1852 1.348 . S
C1854 C1856 1.353 . S
C1854 H1912 0.929 . S
C1855 C1852 1.356 . S
C1855 C1857 1.358 . S
C1855 H1913 0.930 . S
C1856 N1853 1.314 . S
C1856 C1854 1.353 . S
C1856 H1914 0.930 . S
C1857 N1853 1.279 . S
C1857 C1855 1.358 . S
C1857 H1915 0.930 . S
C1858 C1861 1.348 . S
C1858 C1862 1.356 . S
C1858 O1909 1.325 . S
C1859 N1860 1.279 . S
C1859 C1862 1.358 . S
C1859 H1916 0.930 . S
N1860 C1859 1.279 . S
N1860 C1863 1.314 . S
C1861 C1858 1.348 . S
C1861 C1863 1.353 . S
C1861 H1917 0.929 . S
C1862 C1858 1.356 . S
C1862 C1859 1.358 . S
C1862 H1918 0.930 . S
C1863 N1860 1.314 . S
C1863 C1861 1.353 . S
C1863 H1919 0.930 . S
C1864 N1865 1.314 . S
C1864 C1869 1.353 . S
C1864 H1870 0.930 . S
N1865 Li1848 1.990 . S
N1865 C1864 1.314 . S
N1865 C1867 1.279 . S
C1866 C1867 1.358 . S
C1866 C1868 1.356 . S
C1866 H1920 0.930 . S
C1867 N1865 1.279 . S
C1867 C1866 1.358 . S
C1867 H1871 0.930 . S
C1868 C1866 1.356 . S
C1868 C1869 1.348 . S
C1869 C1864 1.353 . S
C1869 C1868 1.348 . S
C1869 H1921 0.929 . S
H1870 C1864 0.930 . S
H1871 C1867 0.930 . S
C1872 N1873 1.314 . S
C1872 C1874 1.353 . S
C1872 H1878 0.930 . S
N1873 Li1849 1.990 . S
N1873 C1872 1.314 . S
N1873 C1876 1.279 . S
C1874 C1872 1.353 . S
C1874 C1877 1.348 . S
C1874 H1922 0.929 . S
C1875 C1876 1.358 . S
C1875 C1877 1.356 . S
C1875 H1923 0.930 . S
C1876 N1873 1.279 . S
C1876 C1875 1.358 . S
C1876 H1879 0.930 . S
C1877 C1874 1.348 . S
C1877 C1875 1.356 . S
H1878 C1872 0.930 . S
H1879 C1876 0.930 . S
C1880 C1882 1.348 . S
C1880 C1883 1.356 . S
C1880 O1910 1.325 . S
N1881 C1884 1.314 . S
N1881 C1885 1.279 . S
C1882 C1880 1.348 . S
C1882 C1884 1.353 . S
C1882 H1924 0.929 . S
C1883 C1880 1.356 . S
C1883 C1885 1.358 . S
C1883 H1925 0.930 . S
C1884 N1881 1.314 . S
C1884 C1882 1.353 . S
C1884 H1926 0.930 . S
C1885 N1881 1.279 . S
C1885 C1883 1.358 . S
C1885 H1927 0.930 . S
C1886 C1887 1.348 . S
C1886 C1888 1.356 . S
C1886 O1911 1.325 . S
C1887 C1886 1.348 . S
C1887 C1889 1.353 . S
C1887 H1928 0.929 . S
C1888 C1886 1.356 . S
C1888 C1890 1.358 . S
C1888 H1929 0.930 . S
C1889 C1887 1.353 . S
C1889 N1891 1.314 . S
C1889 H1930 0.930 . S
C1890 C1888 1.358 . S
C1890 N1891 1.279 . S
C1890 H1931 0.930 . S
N1891 C1889 1.314 . S
N1891 C1890 1.279 . S
C1892 C1894 1.353 . S
C1892 N1895 1.314 . S
C1892 H1898 0.930 . S
C1893 N1895 1.279 . S
C1893 C1896 1.358 . S
C1893 H1899 0.930 . S
C1894 C1892 1.353 . S
C1894 C1897 1.348 . S
C1894 H1932 0.929 . S
N1895 Li1850 1.990 . S
N1895 C1892 1.314 . S
N1895 C1893 1.279 . S
C1896 C1893 1.358 . S
C1896 C1897 1.356 . S
C1896 H1933 0.930 . S
C1897 C1894 1.348 . S
C1897 C1896 1.356 . S
H1898 C1892 0.930 . S
H1899 C1893 0.930 . S
C1900 N1901 1.314 . S
C1900 C1902 1.353 . S
C1900 H1906 0.930 . S
N1901 Li1851 1.990 . S
N1901 C1900 1.314 . S
N1901 C1904 1.279 . S
C1902 C1900 1.353 . S
C1902 C1905 1.348 . S
C1902 H1934 0.929 . S
C1903 C1904 1.358 . S
C1903 C1905 1.356 . S
C1903 H1935 0.930 . S
C1904 N1901 1.279 . S
C1904 C1903 1.358 . S
C1904 H1907 0.930 . S
C1905 C1902 1.348 . S
C1905 C1903 1.356 . S
H1906 C1900 0.930 . S
H1907 C1904 0.930 . S
O1908 Li1848 1.956 . S
O1908 Li1849 1.970 . S
O1908 Li1850 1.961 . S
O1908 C1852 1.325 . S
O1909 Li1848 1.970 . S
O1909 Li1849 1.956 . S
O1909 Li1851 1.961 . S
O1909 C1858 1.325 . S
O1910 Li1848 1.961 . S
O1910 Li1850 1.956 . S
O1910 Li1851 1.970 . S
O1910 C1880 1.325 . S
O1911 Li1849 1.961 . S
O1911 Li1850 1.970 . S
O1911 Li1851 1.956 . S
O1911 C1886 1.325 . S
H1912 C1854 0.929 . S
H1913 C1855 0.930 . S
H1914 C1856 0.930 . S
H1915 C1857 0.930 . S
H1916 C1859 0.930 . S
H1917 C1861 0.929 . S
H1918 C1862 0.930 . S
H1919 C1863 0.930 . S
H1920 C1866 0.930 . S
H1921 C1869 0.929 . S
H1922 C1874 0.929 . S
H1923 C1875 0.930 . S
H1924 C1882 0.929 . S
H1925 C1883 0.930 . S
H1926 C1884 0.930 . S
H1927 C1885 0.930 . S
H1928 C1887 0.929 . S
H1929 C1888 0.930 . S
H1930 C1889 0.930 . S
H1931 C1890 0.930 . S
H1932 C1894 0.929 . S
H1933 C1896 0.930 . S
H1934 C1902 0.929 . S
H1935 C1903 0.930 . S
Li1936 N1953 1.990 . S
Li1936 O1996 1.956 . S
Li1936 O1997 1.970 . S
Li1936 O1998 1.961 . S
Li1937 N1961 1.990 . S
Li1937 O1996 1.970 . S
Li1937 O1997 1.956 . S
Li1937 O1999 1.961 . S
Li1938 N1983 1.990 . S
Li1938 O1996 1.961 . S
Li1938 O1998 1.956 . S
Li1938 O1999 1.970 . S
Li1939 N1989 1.990 . S
Li1939 O1997 1.961 . S
Li1939 O1998 1.970 . S
Li1939 O1999 1.956 . S
C1940 C1942 1.348 . S
C1940 C1943 1.356 . S
C1940 O1996 1.325 . S
N1941 C1944 1.314 . S
N1941 C1945 1.279 . S
C1942 C1940 1.348 . S
C1942 C1944 1.353 . S
C1942 H2000 0.929 . S
C1943 C1940 1.356 . S
C1943 C1945 1.358 . S
C1943 H2001 0.930 . S
C1944 N1941 1.314 . S
C1944 C1942 1.353 . S
C1944 H2002 0.930 . S
C1945 N1941 1.279 . S
C1945 C1943 1.358 . S
C1945 H2003 0.930 . S
C1946 C1949 1.348 . S
C1946 C1950 1.356 . S
C1946 O1997 1.325 . S
C1947 N1948 1.279 . S
C1947 C1950 1.358 . S
C1947 H2004 0.930 . S
N1948 C1947 1.279 . S
N1948 C1951 1.314 . S
C1949 C1946 1.348 . S
C1949 C1951 1.353 . S
C1949 H2005 0.929 . S
C1950 C1946 1.356 . S
C1950 C1947 1.358 . S
C1950 H2006 0.930 . S
C1951 N1948 1.314 . S
C1951 C1949 1.353 . S
C1951 H2007 0.930 . S
C1952 N1953 1.314 . S
C1952 C1957 1.353 . S
C1952 H1958 0.930 . S
N1953 Li1936 1.990 . S
N1953 C1952 1.314 . S
N1953 C1955 1.279 . S
C1954 C1955 1.358 . S
C1954 C1956 1.356 . S
C1954 H2008 0.930 . S
C1955 N1953 1.279 . S
C1955 C1954 1.358 . S
C1955 H1959 0.930 . S
C1956 C1954 1.356 . S
C1956 C1957 1.348 . S
C1957 C1952 1.353 . S
C1957 C1956 1.348 . S
C1957 H2009 0.929 . S
H1958 C1952 0.930 . S
H1959 C1955 0.930 . S
C1960 N1961 1.314 . S
C1960 C1962 1.353 . S
C1960 H1966 0.930 . S
N1961 Li1937 1.990 . S
N1961 C1960 1.314 . S
N1961 C1964 1.279 . S
C1962 C1960 1.353 . S
C1962 C1965 1.348 . S
C1962 H2010 0.929 . S
C1963 C1964 1.358 . S
C1963 C1965 1.356 . S
C1963 H2011 0.930 . S
C1964 N1961 1.279 . S
C1964 C1963 1.358 . S
C1964 H1967 0.930 . S
C1965 C1962 1.348 . S
C1965 C1963 1.356 . S
H1966 C1960 0.930 . S
H1967 C1964 0.930 . S
C1968 C1970 1.348 . S
C1968 C1971 1.356 . S
C1968 O1998 1.325 . S
N1969 C1972 1.314 . S
N1969 C1973 1.279 . S
C1970 C1968 1.348 . S
C1970 C1972 1.353 . S
C1970 H2012 0.929 . S
C1971 C1968 1.356 . S
C1971 C1973 1.358 . S
C1971 H2013 0.930 . S
C1972 N1969 1.314 . S
C1972 C1970 1.353 . S
C1972 H2014 0.930 . S
C1973 N1969 1.279 . S
C1973 C1971 1.358 . S
C1973 H2015 0.930 . S
C1974 C1975 1.348 . S
C1974 C1976 1.356 . S
C1974 O1999 1.325 . S
C1975 C1974 1.348 . S
C1975 C1977 1.353 . S
C1975 H2016 0.929 . S
C1976 C1974 1.356 . S
C1976 C1978 1.358 . S
C1976 H2017 0.930 . S
C1977 C1975 1.353 . S
C1977 N1979 1.314 . S
C1977 H2018 0.930 . S
C1978 C1976 1.358 . S
C1978 N1979 1.279 . S
C1978 H2019 0.930 . S
N1979 C1977 1.314 . S
N1979 C1978 1.279 . S
C1980 C1982 1.353 . S
C1980 N1983 1.314 . S
C1980 H1986 0.930 . S
C1981 N1983 1.279 . S
C1981 C1984 1.358 . S
C1981 H1987 0.930 . S
C1982 C1980 1.353 . S
C1982 C1985 1.348 . S
C1982 H2020 0.929 . S
N1983 Li1938 1.990 . S
N1983 C1980 1.314 . S
N1983 C1981 1.279 . S
C1984 C1981 1.358 . S
C1984 C1985 1.356 . S
C1984 H2021 0.930 . S
C1985 C1982 1.348 . S
C1985 C1984 1.356 . S
H1986 C1980 0.930 . S
H1987 C1981 0.930 . S
C1988 N1989 1.314 . S
C1988 C1990 1.353 . S
C1988 H1994 0.930 . S
N1989 Li1939 1.990 . S
N1989 C1988 1.314 . S
N1989 C1992 1.279 . S
C1990 C1988 1.353 . S
C1990 C1993 1.348 . S
C1990 H2022 0.929 . S
C1991 C1992 1.358 . S
C1991 C1993 1.356 . S
C1991 H2023 0.930 . S
C1992 N1989 1.279 . S
C1992 C1991 1.358 . S
C1992 H1995 0.930 . S
C1993 C1990 1.348 . S
C1993 C1991 1.356 . S
H1994 C1988 0.930 . S
H1995 C1992 0.930 . S
O1996 Li1936 1.956 . S
O1996 Li1937 1.970 . S
O1996 Li1938 1.961 . S
O1996 C1940 1.325 . S
O1997 Li1936 1.970 . S
O1997 Li1937 1.956 . S
O1997 Li1939 1.961 . S
O1997 C1946 1.325 . S
O1998 Li1936 1.961 . S
O1998 Li1938 1.956 . S
O1998 Li1939 1.970 . S
O1998 C1968 1.325 . S
O1999 Li1937 1.961 . S
O1999 Li1938 1.970 . S
O1999 Li1939 1.956 . S
O1999 C1974 1.325 . S
H2000 C1942 0.929 . S
H2001 C1943 0.930 . S
H2002 C1944 0.930 . S
H2003 C1945 0.930 . S
H2004 C1947 0.930 . S
H2005 C1949 0.929 . S
H2006 C1950 0.930 . S
H2007 C1951 0.930 . S
H2008 C1954 0.930 . S
H2009 C1957 0.929 . S
H2010 C1962 0.929 . S
H2011 C1963 0.930 . S
H2012 C1970 0.929 . S
H2013 C1971 0.930 . S
H2014 C1972 0.930 . S
H2015 C1973 0.930 . S
H2016 C1975 0.929 . S
H2017 C1976 0.930 . S
H2018 C1977 0.930 . S
H2019 C1978 0.930 . S
H2020 C1982 0.929 . S
H2021 C1984 0.930 . S
H2022 C1990 0.929 . S
H2023 C1991 0.930 . S
Li2024 N2041 1.990 . S
Li2024 O2084 1.956 . S
Li2024 O2085 1.970 . S
Li2024 O2086 1.961 . S
Li2025 N2049 1.990 . S
Li2025 O2084 1.970 . S
Li2025 O2085 1.956 . S
Li2025 O2087 1.961 . S
Li2026 N2071 1.990 . S
Li2026 O2084 1.961 . S
Li2026 O2086 1.956 . S
Li2026 O2087 1.970 . S
Li2027 N2077 1.990 . S
Li2027 O2085 1.961 . S
Li2027 O2086 1.970 . S
Li2027 O2087 1.956 . S
C2028 C2030 1.348 . S
C2028 C2031 1.356 . S
C2028 O2084 1.325 . S
N2029 C2032 1.314 . S
N2029 C2033 1.279 . S
C2030 C2028 1.348 . S
C2030 C2032 1.353 . S
C2030 H2088 0.929 . S
C2031 C2028 1.356 . S
C2031 C2033 1.358 . S
C2031 H2089 0.930 . S
C2032 N2029 1.314 . S
C2032 C2030 1.353 . S
C2032 H2090 0.930 . S
C2033 N2029 1.279 . S
C2033 C2031 1.358 . S
C2033 H2091 0.930 . S
C2034 C2037 1.348 . S
C2034 C2038 1.356 . S
C2034 O2085 1.325 . S
C2035 N2036 1.279 . S
C2035 C2038 1.358 . S
C2035 H2092 0.930 . S
N2036 C2035 1.279 . S
N2036 C2039 1.314 . S
C2037 C2034 1.348 . S
C2037 C2039 1.353 . S
C2037 H2093 0.929 . S
C2038 C2034 1.356 . S
C2038 C2035 1.358 . S
C2038 H2094 0.930 . S
C2039 N2036 1.314 . S
C2039 C2037 1.353 . S
C2039 H2095 0.930 . S
C2040 N2041 1.314 . S
C2040 C2045 1.353 . S
C2040 H2046 0.930 . S
N2041 Li2024 1.990 . S
N2041 C2040 1.314 . S
N2041 C2043 1.279 . S
C2042 C2043 1.358 . S
C2042 C2044 1.356 . S
C2042 H2096 0.930 . S
C2043 N2041 1.279 . S
C2043 C2042 1.358 . S
C2043 H2047 0.930 . S
C2044 C2042 1.356 . S
C2044 C2045 1.348 . S
C2045 C2040 1.353 . S
C2045 C2044 1.348 . S
C2045 H2097 0.929 . S
H2046 C2040 0.930 . S
H2047 C2043 0.930 . S
C2048 N2049 1.314 . S
C2048 C2050 1.353 . S
C2048 H2054 0.930 . S
N2049 Li2025 1.990 . S
N2049 C2048 1.314 . S
N2049 C2052 1.279 . S
C2050 C2048 1.353 . S
C2050 C2053 1.348 . S
C2050 H2098 0.929 . S
C2051 C2052 1.358 . S
C2051 C2053 1.356 . S
C2051 H2099 0.930 . S
C2052 N2049 1.279 . S
C2052 C2051 1.358 . S
C2052 H2055 0.930 . S
C2053 C2050 1.348 . S
C2053 C2051 1.356 . S
H2054 C2048 0.930 . S
H2055 C2052 0.930 . S
C2056 C2058 1.348 . S
C2056 C2059 1.356 . S
C2056 O2086 1.325 . S
N2057 C2060 1.314 . S
N2057 C2061 1.279 . S
C2058 C2056 1.348 . S
C2058 C2060 1.353 . S
C2058 H2100 0.929 . S
C2059 C2056 1.356 . S
C2059 C2061 1.358 . S
C2059 H2101 0.930 . S
C2060 N2057 1.314 . S
C2060 C2058 1.353 . S
C2060 H2102 0.930 . S
C2061 N2057 1.279 . S
C2061 C2059 1.358 . S
C2061 H2103 0.930 . S
C2062 C2063 1.348 . S
C2062 C2064 1.356 . S
C2062 O2087 1.325 . S
C2063 C2062 1.348 . S
C2063 C2065 1.353 . S
C2063 H2104 0.929 . S
C2064 C2062 1.356 . S
C2064 C2066 1.358 . S
C2064 H2105 0.930 . S
C2065 C2063 1.353 . S
C2065 N2067 1.314 . S
C2065 H2106 0.930 . S
C2066 C2064 1.358 . S
C2066 N2067 1.279 . S
C2066 H2107 0.930 . S
N2067 C2065 1.314 . S
N2067 C2066 1.279 . S
C2068 C2070 1.353 . S
C2068 N2071 1.314 . S
C2068 H2074 0.930 . S
C2069 N2071 1.279 . S
C2069 C2072 1.358 . S
C2069 H2075 0.930 . S
C2070 C2068 1.353 . S
C2070 C2073 1.348 . S
C2070 H2108 0.929 . S
N2071 Li2026 1.990 . S
N2071 C2068 1.314 . S
N2071 C2069 1.279 . S
C2072 C2069 1.358 . S
C2072 C2073 1.356 . S
C2072 H2109 0.930 . S
C2073 C2070 1.348 . S
C2073 C2072 1.356 . S
H2074 C2068 0.930 . S
H2075 C2069 0.930 . S
C2076 N2077 1.314 . S
C2076 C2078 1.353 . S
C2076 H2082 0.930 . S
N2077 Li2027 1.990 . S
N2077 C2076 1.314 . S
N2077 C2080 1.279 . S
C2078 C2076 1.353 . S
C2078 C2081 1.348 . S
C2078 H2110 0.929 . S
C2079 C2080 1.358 . S
C2079 C2081 1.356 . S
C2079 H2111 0.930 . S
C2080 N2077 1.279 . S
C2080 C2079 1.358 . S
C2080 H2083 0.930 . S
C2081 C2078 1.348 . S
C2081 C2079 1.356 . S
H2082 C2076 0.930 . S
H2083 C2080 0.930 . S
O2084 Li2024 1.956 . S
O2084 Li2025 1.970 . S
O2084 Li2026 1.961 . S
O2084 C2028 1.325 . S
O2085 Li2024 1.970 . S
O2085 Li2025 1.956 . S
O2085 Li2027 1.961 . S
O2085 C2034 1.325 . S
O2086 Li2024 1.961 . S
O2086 Li2026 1.956 . S
O2086 Li2027 1.970 . S
O2086 C2056 1.325 . S
O2087 Li2025 1.961 . S
O2087 Li2026 1.970 . S
O2087 Li2027 1.956 . S
O2087 C2062 1.325 . S
H2088 C2030 0.929 . S
H2089 C2031 0.930 . S
H2090 C2032 0.930 . S
H2091 C2033 0.930 . S
H2092 C2035 0.930 . S
H2093 C2037 0.929 . S
H2094 C2038 0.930 . S
H2095 C2039 0.930 . S
H2096 C2042 0.930 . S
H2097 C2045 0.929 . S
H2098 C2050 0.929 . S
H2099 C2051 0.930 . S
H2100 C2058 0.929 . S
H2101 C2059 0.930 . S
H2102 C2060 0.930 . S
H2103 C2061 0.930 . S
H2104 C2063 0.929 . S
H2105 C2064 0.930 . S
H2106 C2065 0.930 . S
H2107 C2066 0.930 . S
H2108 C2070 0.929 . S
H2109 C2072 0.930 . S
H2110 C2078 0.929 . S
H2111 C2079 0.930 . S
Eu2112 C2121 2.828 . S
Eu2112 O2123 2.392 . S
Eu2112 O2125 2.418 . S
Eu2112 O2130 2.373 . S
Eu2112 O2133 2.488 . S
Eu2112 O2134 2.471 1_554 S
Eu2112 O2135 2.349 1_554 S
Eu2113 O2122 2.373 . S
Eu2113 O2126 2.487 1_544 S
Eu2113 O2127 2.471 1_545 S
Eu2113 O2128 2.349 . S
Eu2113 O2131 2.433 1_554 S
Eu2113 O2132 2.418 1_554 S
Eu2113 C2142 2.828 1_545 S
C2114 O2132 1.244 . S
C2114 O2135 1.265 . S
C2115 C2116 1.438 . S
C2115 C2119 1.341 1_556 S
C2115 C2121 1.481 1_556 S
C2116 C2115 1.438 . S
C2116 C2118 1.369 . S
C2116 H2144 0.930 . S
C2117 C2119 1.383 . S
C2117 C2120 1.382 1_554 S
C2117 H2145 0.930 . S
C2118 C2116 1.369 . S
C2118 C2120 1.392 . S
C2118 H2146 0.930 . S
C2119 C2115 1.341 1_554 S
C2119 C2117 1.383 . S
C2119 H2147 0.931 . S
C2120 C2117 1.382 1_556 S
C2120 C2118 1.392 . S
C2121 Eu2112 2.828 . S
C2121 C2115 1.481 1_554 S
C2121 O2133 1.249 . S
C2121 O2134 1.244 1_554 S
O2122 Eu2113 2.373 . S
O2122 C2124 1.258 . S
O2123 Eu2112 2.392 . S
O2123 C2124 1.242 . S
C2124 O2122 1.258 . S
C2124 O2123 1.242 . S
O2125 Eu2112 2.418 . S
O2125 C2129 1.244 . S
O2126 Eu2113 2.487 1_566 S
O2126 C2142 1.202 1_556 S
O2127 Eu2113 2.471 1_565 S
O2127 C2142 1.244 . S
O2128 Eu2113 2.349 . S
O2128 C2129 1.265 . S
C2129 O2125 1.244 . S
C2129 O2128 1.265 . S
O2130 Eu2112 2.373 . S
O2130 C2143 1.328 . S
O2131 Eu2113 2.433 1_556 S
O2131 C2143 1.245 1_556 S
O2132 Eu2113 2.418 1_556 S
O2132 C2114 1.244 . S
O2133 Eu2112 2.488 . S
O2133 C2121 1.249 . S
O2134 Eu2112 2.471 1_556 S
O2134 C2121 1.244 1_556 S
O2135 Eu2112 2.349 1_556 S
O2135 C2114 1.265 . S
C2136 C2137 1.379 . S
C2136 C2140 1.373 . S
C2136 C2142 1.505 . S
C2137 C2136 1.379 . S
C2137 C2139 1.369 . S
C2137 H2148 0.930 . S
C2138 C2140 1.383 . S
C2138 C2141 1.382 . S
C2138 H2149 0.930 . S
C2139 C2137 1.369 . S
C2139 C2141 1.392 . S
C2139 H2150 0.930 . S
C2140 C2136 1.373 . S
C2140 C2138 1.383 . S
C2140 H2151 0.931 1_554 S
C2141 C2138 1.382 . S
C2141 C2139 1.392 . S
C2142 Eu2113 2.828 1_565 S
C2142 O2126 1.202 1_554 S
C2142 O2127 1.244 . S
C2142 C2136 1.505 . S
C2143 O2130 1.328 . S
C2143 O2131 1.245 1_554 S
H2144 C2116 0.930 . S
H2145 C2117 0.930 . S
H2146 C2118 0.930 . S
H2147 C2119 0.931 . S
H2148 C2137 0.930 . S
H2149 C2138 0.930 . S
H2150 C2139 0.930 . S
H2151 C2140 0.931 1_556 S
Eu2152 C2161 2.828 . S
Eu2152 O2163 2.392 . S
Eu2152 O2165 2.418 . S
Eu2152 O2170 2.373 . S
Eu2152 O2173 2.488 . S
Eu2152 O2174 2.471 . S
Eu2152 O2175 2.349 . S
Eu2153 O2162 2.373 . S
Eu2153 O2166 2.488 . S
Eu2153 O2167 2.471 . S
Eu2153 O2168 2.349 . S
Eu2153 O2171 2.392 . S
Eu2153 O2172 2.418 . S
Eu2153 C2182 2.828 . S
C2154 O2172 1.244 . S
C2154 O2175 1.265 . S
C2155 C2156 1.379 . S
C2155 C2159 1.373 . S
C2155 C2161 1.505 . S
C2156 C2155 1.379 . S
C2156 C2158 1.369 . S
C2156 H2184 0.930 . S
C2157 C2159 1.383 . S
C2157 C2160 1.382 . S
C2157 H2185 0.930 . S
C2158 C2156 1.369 . S
C2158 C2160 1.392 . S
C2158 H2186 0.930 . S
C2159 C2155 1.373 . S
C2159 C2157 1.383 . S
C2159 H2187 0.931 . S
C2160 C2157 1.382 . S
C2160 C2158 1.392 . S
C2161 Eu2152 2.828 . S
C2161 C2155 1.505 . S
C2161 O2173 1.249 . S
C2161 O2174 1.244 . S
O2162 Eu2153 2.373 . S
O2162 C2164 1.258 . S
O2163 Eu2152 2.392 . S
O2163 C2164 1.242 . S
C2164 O2162 1.258 . S
C2164 O2163 1.242 . S
O2165 Eu2152 2.418 . S
O2165 C2169 1.244 . S
O2166 Eu2153 2.488 . S
O2166 C2182 1.249 . S
O2167 Eu2153 2.471 . S
O2167 C2182 1.244 . S
O2168 Eu2153 2.349 . S
O2168 C2169 1.265 . S
C2169 O2165 1.244 . S
C2169 O2168 1.265 . S
O2170 Eu2152 2.373 . S
O2170 C2183 1.258 . S
O2171 Eu2153 2.392 . S
O2171 C2183 1.242 . S
O2172 Eu2153 2.418 . S
O2172 C2154 1.244 . S
O2173 Eu2152 2.488 . S
O2173 C2161 1.249 . S
O2174 Eu2152 2.471 . S
O2174 C2161 1.244 . S
O2175 Eu2152 2.349 . S
O2175 C2154 1.265 . S
C2176 C2177 1.379 . S
C2176 C2180 1.373 . S
C2176 C2182 1.505 . S
C2177 C2176 1.379 . S
C2177 C2179 1.369 . S
C2177 H2188 0.930 . S
C2178 C2180 1.383 . S
C2178 C2181 1.382 . S
C2178 H2189 0.930 . S
C2179 C2177 1.369 . S
C2179 C2181 1.392 . S
C2179 H2190 0.930 . S
C2180 C2176 1.373 . S
C2180 C2178 1.383 . S
C2180 H2191 0.931 . S
C2181 C2178 1.382 . S
C2181 C2179 1.392 . S
C2182 Eu2153 2.828 . S
C2182 O2166 1.249 . S
C2182 O2167 1.244 . S
C2182 C2176 1.505 . S
C2183 O2170 1.258 . S
C2183 O2171 1.242 . S
H2184 C2156 0.930 . S
H2185 C2157 0.930 . S
H2186 C2158 0.930 . S
H2187 C2159 0.931 . S
H2188 C2177 0.930 . S
H2189 C2178 0.930 . S
H2190 C2179 0.930 . S
H2191 C2180 0.931 . S
Eu2192 C2201 2.828 . S
Eu2192 O2203 2.392 . S
Eu2192 O2205 2.418 . S
Eu2192 O2210 2.373 . S
Eu2192 O2213 2.488 . S
Eu2192 O2214 2.471 . S
Eu2192 O2215 2.349 . S
Eu2193 O2202 2.373 . S
Eu2193 O2206 2.488 . S
Eu2193 O2207 2.471 . S
Eu2193 O2208 2.349 . S
Eu2193 O2211 2.392 1_545 S
Eu2193 O2212 2.418 . S
Eu2193 C2222 2.828 . S
C2194 O2212 1.244 . S
C2194 O2215 1.265 . S
C2195 C2196 1.419 . S
C2195 C2199 1.374 . S
C2195 C2201 1.467 1_565 S
C2196 C2195 1.419 . S
C2196 C2198 1.369 . S
C2196 H2224 0.930 . S
C2197 C2199 1.383 . S
C2197 C2200 1.382 . S
C2197 H2225 0.930 . S
C2198 C2196 1.369 . S
C2198 C2200 1.392 . S
C2198 H2226 0.930 . S
C2199 C2195 1.374 . S
C2199 C2197 1.383 . S
C2199 H2227 0.931 1_565 S
C2200 C2197 1.382 . S
C2200 C2198 1.392 . S
C2201 Eu2192 2.828 . S
C2201 C2195 1.467 1_545 S
C2201 O2213 1.249 . S
C2201 O2214 1.244 . S
O2202 Eu2193 2.373 . S
O2202 C2204 1.258 . S
O2203 Eu2192 2.392 . S
O2203 C2204 1.242 . S
C2204 O2202 1.258 . S
C2204 O2203 1.242 . S
O2205 Eu2192 2.418 . S
O2205 C2209 1.244 . S
O2206 Eu2193 2.488 . S
O2206 C2222 1.249 . S
O2207 Eu2193 2.471 . S
O2207 C2222 1.244 . S
O2208 Eu2193 2.349 . S
O2208 C2209 1.265 . S
C2209 O2205 1.244 . S
C2209 O2208 1.265 . S
O2210 Eu2192 2.373 . S
O2210 C2223 1.258 1_545 S
O2211 Eu2193 2.392 1_565 S
O2211 C2223 1.242 . S
O2212 Eu2193 2.418 . S
O2212 C2194 1.244 . S
O2213 Eu2192 2.488 . S
O2213 C2201 1.249 . S
O2214 Eu2192 2.471 . S
O2214 C2201 1.244 . S
O2215 Eu2192 2.349 . S
O2215 C2194 1.265 . S
C2216 C2217 1.379 . S
C2216 C2220 1.373 . S
C2216 C2222 1.505 . S
C2217 C2216 1.379 . S
C2217 C2219 1.369 . S
C2217 H2228 0.930 . S
C2218 C2220 1.383 . S
C2218 C2221 1.382 . S
C2218 H2229 0.930 . S
C2219 C2217 1.369 . S
C2219 C2221 1.392 . S
C2219 H2230 0.930 . S
C2220 C2216 1.373 . S
C2220 C2218 1.383 . S
C2220 H2231 0.931 . S
C2221 C2218 1.382 . S
C2221 C2219 1.392 . S
C2222 Eu2193 2.828 . S
C2222 O2206 1.249 . S
C2222 O2207 1.244 . S
C2222 C2216 1.505 . S
C2223 O2210 1.258 1_565 S
C2223 O2211 1.242 . S
H2224 C2196 0.930 . S
H2225 C2197 0.930 . S
H2226 C2198 0.930 . S
H2227 C2199 0.931 1_545 S
H2228 C2217 0.930 . S
H2229 C2218 0.930 . S
H2230 C2219 0.930 . S
H2231 C2220 0.931 . S
Eu2232 C2241 2.828 . S
Eu2232 O2243 2.392 . S
Eu2232 O2245 2.418 . S
Eu2232 O2250 2.373 . S
Eu2232 O2253 2.488 . S
Eu2232 O2254 2.471 . S
Eu2232 O2255 2.349 . S
Eu2233 O2242 2.373 . S
Eu2233 O2246 2.488 . S
Eu2233 O2247 2.471 . S
Eu2233 O2248 2.349 . S
Eu2233 O2251 2.392 . S
Eu2233 O2252 2.418 . S
Eu2233 C2262 2.828 . S
C2234 O2252 1.244 . S
C2234 O2255 1.265 . S
C2235 C2236 1.379 . S
C2235 C2239 1.373 . S
C2235 C2241 1.505 . S
C2236 C2235 1.379 . S
C2236 C2238 1.369 . S
C2236 H2264 0.930 . S
C2237 C2239 1.383 . S
C2237 C2240 1.382 . S
C2237 H2265 0.930 . S
C2238 C2236 1.369 . S
C2238 C2240 1.392 . S
C2238 H2266 0.930 . S
C2239 C2235 1.373 . S
C2239 C2237 1.383 . S
C2239 H2267 0.931 . S
C2240 C2237 1.382 . S
C2240 C2238 1.392 . S
C2241 Eu2232 2.828 . S
C2241 C2235 1.505 . S
C2241 O2253 1.249 . S
C2241 O2254 1.244 . S
O2242 Eu2233 2.373 . S
O2242 C2244 1.258 . S
O2243 Eu2232 2.392 . S
O2243 C2244 1.242 . S
C2244 O2242 1.258 . S
C2244 O2243 1.242 . S
O2245 Eu2232 2.418 . S
O2245 C2249 1.244 . S
O2246 Eu2233 2.488 . S
O2246 C2262 1.249 . S
O2247 Eu2233 2.471 . S
O2247 C2262 1.244 . S
O2248 Eu2233 2.349 . S
O2248 C2249 1.265 . S
C2249 O2245 1.244 . S
C2249 O2248 1.265 . S
O2250 Eu2232 2.373 . S
O2250 C2263 1.258 . S
O2251 Eu2233 2.392 . S
O2251 C2263 1.242 . S
O2252 Eu2233 2.418 . S
O2252 C2234 1.244 . S
O2253 Eu2232 2.488 . S
O2253 C2241 1.249 . S
O2254 Eu2232 2.471 . S
O2254 C2241 1.244 . S
O2255 Eu2232 2.349 . S
O2255 C2234 1.265 . S
C2256 C2257 1.379 . S
C2256 C2260 1.373 . S
C2256 C2262 1.505 . S
C2257 C2256 1.379 . S
C2257 C2259 1.369 . S
C2257 H2268 0.930 . S
C2258 C2260 1.383 . S
C2258 C2261 1.382 . S
C2258 H2269 0.930 . S
C2259 C2257 1.369 . S
C2259 C2261 1.392 . S
C2259 H2270 0.930 . S
C2260 C2256 1.373 . S
C2260 C2258 1.383 . S
C2260 H2271 0.931 . S
C2261 C2258 1.382 . S
C2261 C2259 1.392 . S
C2262 Eu2233 2.828 . S
C2262 O2246 1.249 . S
C2262 O2247 1.244 . S
C2262 C2256 1.505 . S
C2263 O2250 1.258 . S
C2263 O2251 1.242 . S
H2264 C2236 0.930 . S
H2265 C2237 0.930 . S
H2266 C2238 0.930 . S
H2267 C2239 0.931 . S
H2268 C2257 0.930 . S
H2269 C2258 0.930 . S
H2270 C2259 0.930 . S
H2271 C2260 0.931 . S
Eu2272 C2281 2.828 . S
Eu2272 O2283 2.392 . S
Eu2272 O2285 2.418 1_455 S
Eu2272 O2290 2.373 . S
Eu2272 O2293 2.488 . S
Eu2272 O2294 2.471 . S
Eu2272 O2295 2.349 . S
Eu2273 O2282 2.373 . S
Eu2273 O2286 2.488 1_545 S
Eu2273 O2287 2.471 1_545 S
Eu2273 O2288 2.349 . S
Eu2273 O2291 2.392 . S
Eu2273 O2292 2.418 . S
Eu2273 C2302 2.828 1_545 S
C2274 O2292 1.244 . S
C2274 O2295 1.265 . S
C2275 C2276 1.379 . S
C2275 C2279 1.373 . S
C2275 C2281 1.505 . S
C2276 C2275 1.379 . S
C2276 C2278 1.369 . S
C2276 H2304 0.930 . S
C2277 C2279 1.383 . S
C2277 C2280 1.382 . S
C2277 H2305 0.930 1_455 S
C2278 C2276 1.369 . S
C2278 C2280 1.392 . S
C2278 H2306 0.930 . S
C2279 C2275 1.373 . S
C2279 C2277 1.383 . S
C2279 H2307 0.931 1_455 S
C2280 C2277 1.382 . S
C2280 C2278 1.392 . S
C2281 Eu2272 2.828 . S
C2281 C2275 1.505 . S
C2281 O2293 1.249 . S
C2281 O2294 1.244 . S
O2282 Eu2273 2.373 . S
O2282 C2284 1.258 . S
O2283 Eu2272 2.392 . S
O2283 C2284 1.242 . S
C2284 O2282 1.258 . S
C2284 O2283 1.242 . S
O2285 Eu2272 2.418 1_655 S
O2285 C2289 1.244 . S
O2286 Eu2273 2.488 1_565 S
O2286 C2302 1.249 . S
O2287 Eu2273 2.471 1_565 S
O2287 C2302 1.244 . S
O2288 Eu2273 2.349 . S
O2288 C2289 1.265 1_455 S
C2289 O2285 1.244 . S
C2289 O2288 1.265 1_655 S
O2290 Eu2272 2.373 . S
O2290 C2303 1.258 . S
O2291 Eu2273 2.392 . S
O2291 C2303 1.242 . S
O2292 Eu2273 2.418 . S
O2292 C2274 1.244 . S
O2293 Eu2272 2.488 . S
O2293 C2281 1.249 . S
O2294 Eu2272 2.471 . S
O2294 C2281 1.244 . S
O2295 Eu2272 2.349 . S
O2295 C2274 1.265 . S
C2296 C2297 1.379 . S
C2296 C2300 1.373 . S
C2296 C2302 1.505 . S
C2297 C2296 1.379 . S
C2297 C2299 1.369 . S
C2297 H2308 0.930 . S
C2298 C2300 1.383 . S
C2298 C2301 1.382 . S
C2298 H2309 0.930 . S
C2299 C2297 1.369 . S
C2299 C2301 1.392 . S
C2299 H2310 0.930 . S
C2300 C2296 1.373 . S
C2300 C2298 1.383 . S
C2300 H2311 0.931 . S
C2301 C2298 1.382 . S
C2301 C2299 1.392 . S
C2302 Eu2273 2.828 1_565 S
C2302 O2286 1.249 . S
C2302 O2287 1.244 . S
C2302 C2296 1.505 . S
C2303 O2290 1.258 . S
C2303 O2291 1.242 . S
H2304 C2276 0.930 . S
H2305 C2277 0.930 1_655 S
H2306 C2278 0.930 . S
H2307 C2279 0.931 1_655 S
H2308 C2297 0.930 . S
H2309 C2298 0.930 . S
H2310 C2299 0.930 . S
H2311 C2300 0.931 . S
Eu2312 C2321 2.828 . S
Eu2312 O2323 2.392 . S
Eu2312 O2325 2.418 . S
Eu2312 O2330 2.373 . S
Eu2312 O2333 2.488 . S
Eu2312 O2334 2.471 . S
Eu2312 O2335 2.349 . S
Eu2313 O2322 2.373 . S
Eu2313 O2326 2.488 . S
Eu2313 O2327 2.471 . S
Eu2313 O2328 2.349 . S
Eu2313 O2331 2.392 . S
Eu2313 O2332 2.418 . S
Eu2313 C2342 2.828 . S
C2314 O2332 1.244 . S
C2314 O2335 1.265 . S
C2315 C2316 1.379 . S
C2315 C2319 1.373 . S
C2315 C2321 1.505 . S
C2316 C2315 1.379 . S
C2316 C2318 1.369 . S
C2316 H2344 0.930 . S
C2317 C2319 1.383 . S
C2317 C2320 1.382 . S
C2317 H2345 0.930 . S
C2318 C2316 1.369 . S
C2318 C2320 1.392 . S
C2318 H2346 0.930 . S
C2319 C2315 1.373 . S
C2319 C2317 1.383 . S
C2319 H2347 0.931 . S
C2320 C2317 1.382 . S
C2320 C2318 1.392 . S
C2321 Eu2312 2.828 . S
C2321 C2315 1.505 . S
C2321 O2333 1.249 . S
C2321 O2334 1.244 . S
O2322 Eu2313 2.373 . S
O2322 C2324 1.258 . S
O2323 Eu2312 2.392 . S
O2323 C2324 1.242 . S
C2324 O2322 1.258 . S
C2324 O2323 1.242 . S
O2325 Eu2312 2.418 . S
O2325 C2329 1.244 . S
O2326 Eu2313 2.488 . S
O2326 C2342 1.249 . S
O2327 Eu2313 2.471 . S
O2327 C2342 1.244 . S
O2328 Eu2313 2.349 . S
O2328 C2329 1.265 . S
C2329 O2325 1.244 . S
C2329 O2328 1.265 . S
O2330 Eu2312 2.373 . S
O2330 C2343 1.258 . S
O2331 Eu2313 2.392 . S
O2331 C2343 1.242 . S
O2332 Eu2313 2.418 . S
O2332 C2314 1.244 . S
O2333 Eu2312 2.488 . S
O2333 C2321 1.249 . S
O2334 Eu2312 2.471 . S
O2334 C2321 1.244 . S
O2335 Eu2312 2.349 . S
O2335 C2314 1.265 . S
C2336 C2337 1.379 . S
C2336 C2340 1.373 . S
C2336 C2342 1.505 . S
C2337 C2336 1.379 . S
C2337 C2339 1.369 . S
C2337 H2348 0.930 . S
C2338 C2340 1.383 . S
C2338 C2341 1.382 . S
C2338 H2349 0.930 . S
C2339 C2337 1.369 . S
C2339 C2341 1.392 . S
C2339 H2350 0.930 . S
C2340 C2336 1.373 . S
C2340 C2338 1.383 . S
C2340 H2351 0.931 . S
C2341 C2338 1.382 . S
C2341 C2339 1.392 . S
C2342 Eu2313 2.828 . S
C2342 O2326 1.249 . S
C2342 O2327 1.244 . S
C2342 C2336 1.505 . S
C2343 O2330 1.258 . S
C2343 O2331 1.242 . S
H2344 C2316 0.930 . S
H2345 C2317 0.930 . S
H2346 C2318 0.930 . S
H2347 C2319 0.931 . S
H2348 C2337 0.930 . S
H2349 C2338 0.930 . S
H2350 C2339 0.930 . S
H2351 C2340 0.931 . S
Eu2352 C2361 2.828 . S
Eu2352 O2363 2.392 . S
Eu2352 O2365 2.418 1_545 S
Eu2352 O2370 2.373 . S
Eu2352 O2373 2.488 . S
Eu2352 O2374 2.471 . S
Eu2352 O2375 2.349 . S
Eu2353 O2362 2.373 . S
Eu2353 O2366 2.488 . S
Eu2353 O2367 2.471 . S
Eu2353 O2368 2.349 . S
Eu2353 O2371 2.423 . S
Eu2353 O2372 2.418 1_556 S
Eu2353 C2382 2.828 . S
C2354 O2372 1.244 . S
C2354 O2375 1.265 . S
C2355 C2356 1.379 . S
C2355 C2359 1.373 1_545 S
C2355 C2361 1.505 . S
C2356 C2355 1.379 . S
C2356 C2358 1.369 . S
C2356 H2384 0.930 . S
C2357 C2359 1.383 . S
C2357 C2360 1.382 1_565 S
C2357 H2385 0.930 . S
C2358 C2356 1.369 . S
C2358 C2360 1.392 . S
C2358 H2386 0.930 . S
C2359 C2355 1.373 1_565 S
C2359 C2357 1.383 . S
C2359 H2387 0.931 . S
C2360 C2357 1.382 1_545 S
C2360 C2358 1.392 . S
C2361 Eu2352 2.828 . S
C2361 C2355 1.505 . S
C2361 O2373 1.249 . S
C2361 O2374 1.244 . S
O2362 Eu2353 2.373 . S
O2362 C2364 1.258 1_556 S
O2363 Eu2352 2.392 . S
O2363 C2364 1.242 . S
C2364 O2362 1.258 1_554 S
C2364 O2363 1.242 . S
O2365 Eu2352 2.418 1_565 S
O2365 C2369 1.276 . S
O2366 Eu2353 2.488 . S
O2366 C2382 1.249 . S
O2367 Eu2353 2.471 . S
O2367 C2382 1.244 . S
O2368 Eu2353 2.349 . S
O2368 C2369 1.253 1_546 S
C2369 O2365 1.276 . S
C2369 O2368 1.253 1_564 S
O2370 Eu2352 2.373 . S
O2370 C2383 1.258 . S
O2371 Eu2353 2.423 . S
O2371 C2383 1.193 1_556 S
O2372 Eu2353 2.418 1_554 S
O2372 C2354 1.244 . S
O2373 Eu2352 2.488 . S
O2373 C2361 1.249 . S
O2374 Eu2352 2.471 . S
O2374 C2361 1.244 . S
O2375 Eu2352 2.349 . S
O2375 C2354 1.265 . S
C2376 C2377 1.379 . S
C2376 C2380 1.373 . S
C2376 C2382 1.505 . S
C2377 C2376 1.379 . S
C2377 C2379 1.369 . S
C2377 H2388 0.930 . S
C2378 C2380 1.383 . S
C2378 C2381 1.382 . S
C2378 H2389 0.930 . S
C2379 C2377 1.369 . S
C2379 C2381 1.392 . S
C2379 H2390 0.930 . S
C2380 C2376 1.373 . S
C2380 C2378 1.383 . S
C2380 H2391 0.931 . S
C2381 C2378 1.382 . S
C2381 C2379 1.392 . S
C2382 Eu2353 2.828 . S
C2382 O2366 1.249 . S
C2382 O2367 1.244 . S
C2382 C2376 1.505 . S
C2383 O2370 1.258 . S
C2383 O2371 1.193 1_554 S
H2384 C2356 0.930 . S
H2385 C2357 0.930 . S
H2386 C2358 0.930 . S
H2387 C2359 0.931 . S
H2388 C2377 0.930 . S
H2389 C2378 0.930 . S
H2390 C2379 0.930 . S
H2391 C2380 0.931 . S
Eu2392 C2401 2.828 . S
Eu2392 O2403 2.392 . S
Eu2392 O2405 2.418 . S
Eu2392 O2410 2.373 . S
Eu2392 O2413 2.488 . S
Eu2392 O2414 2.471 . S
Eu2392 O2415 2.349 . S
Eu2393 O2402 2.373 . S
Eu2393 O2406 2.488 . S
Eu2393 O2407 2.471 . S
Eu2393 O2408 2.349 . S
Eu2393 O2411 2.392 . S
Eu2393 O2412 2.418 . S
Eu2393 C2422 2.828 . S
C2394 O2412 1.244 . S
C2394 O2415 1.265 . S
C2395 C2396 1.379 . S
C2395 C2399 1.373 . S
C2395 C2401 1.505 . S
C2396 C2395 1.379 . S
C2396 C2398 1.369 . S
C2396 H2424 0.930 . S
C2397 C2399 1.383 . S
C2397 C2400 1.382 . S
C2397 H2425 0.930 . S
C2398 C2396 1.369 . S
C2398 C2400 1.392 . S
C2398 H2426 0.930 . S
C2399 C2395 1.373 . S
C2399 C2397 1.383 . S
C2399 H2427 0.931 . S
C2400 C2397 1.382 . S
C2400 C2398 1.392 . S
C2401 Eu2392 2.828 . S
C2401 C2395 1.505 . S
C2401 O2413 1.249 . S
C2401 O2414 1.244 . S
O2402 Eu2393 2.373 . S
O2402 C2404 1.258 . S
O2403 Eu2392 2.392 . S
O2403 C2404 1.242 . S
C2404 O2402 1.258 . S
C2404 O2403 1.242 . S
O2405 Eu2392 2.418 . S
O2405 C2409 1.244 . S
O2406 Eu2393 2.488 . S
O2406 C2422 1.249 . S
O2407 Eu2393 2.471 . S
O2407 C2422 1.244 . S
O2408 Eu2393 2.349 . S
O2408 C2409 1.265 . S
C2409 O2405 1.244 . S
C2409 O2408 1.265 . S
O2410 Eu2392 2.373 . S
O2410 C2423 1.258 . S
O2411 Eu2393 2.392 . S
O2411 C2423 1.242 . S
O2412 Eu2393 2.418 . S
O2412 C2394 1.244 . S
O2413 Eu2392 2.488 . S
O2413 C2401 1.249 . S
O2414 Eu2392 2.471 . S
O2414 C2401 1.244 . S
O2415 Eu2392 2.349 . S
O2415 C2394 1.265 . S
C2416 C2417 1.379 . S
C2416 C2420 1.373 . S
C2416 C2422 1.505 . S
C2417 C2416 1.379 . S
C2417 C2419 1.369 . S
C2417 H2428 0.930 . S
C2418 C2420 1.383 . S
C2418 C2421 1.382 . S
C2418 H2429 0.930 . S
C2419 C2417 1.369 . S
C2419 C2421 1.392 . S
C2419 H2430 0.930 . S
C2420 C2416 1.373 . S
C2420 C2418 1.383 . S
C2420 H2431 0.931 . S
C2421 C2418 1.382 . S
C2421 C2419 1.392 . S
C2422 Eu2393 2.828 . S
C2422 O2406 1.249 . S
C2422 O2407 1.244 . S
C2422 C2416 1.505 . S
C2423 O2410 1.258 . S
C2423 O2411 1.242 . S
H2424 C2396 0.930 . S
H2425 C2397 0.930 . S
H2426 C2398 0.930 . S
H2427 C2399 0.931 . S
H2428 C2417 0.930 . S
H2429 C2418 0.930 . S
H2430 C2419 0.930 . S
H2431 C2420 0.931 . S
Eu2432 C2441 2.828 . S
Eu2432 O2443 2.392 . S
Eu2432 O2445 2.418 . S
Eu2432 O2450 2.373 1_554 S
Eu2432 O2453 2.488 . S
Eu2432 O2454 2.471 . S
Eu2432 O2455 2.349 . S
Eu2433 O2442 2.373 . S
Eu2433 O2446 2.488 . S
Eu2433 O2447 2.471 . S
Eu2433 O2448 2.349 . S
Eu2433 O2451 2.392 1_554 S
Eu2433 O2452 2.418 . S
Eu2433 C2462 2.828 . S
C2434 O2452 1.244 . S
C2434 O2455 1.265 . S
C2435 C2436 1.379 . S
C2435 C2439 1.373 . S
C2435 C2441 1.505 1_556 S
C2436 C2435 1.379 . S
C2436 C2438 1.369 . S
C2436 H2464 0.930 . S
C2437 C2439 1.383 . S
C2437 C2440 1.382 . S
C2437 H2465 0.930 . S
C2438 C2436 1.369 . S
C2438 C2440 1.392 . S
C2438 H2466 0.930 . S
C2439 C2435 1.373 . S
C2439 C2437 1.383 . S
C2439 H2467 0.931 1_556 S
C2440 C2437 1.382 . S
C2440 C2438 1.392 . S
C2441 Eu2432 2.828 . S
C2441 C2435 1.505 1_554 S
C2441 O2453 1.249 . S
C2441 O2454 1.244 . S
O2442 Eu2433 2.373 . S
O2442 C2444 1.258 . S
O2443 Eu2432 2.392 . S
O2443 C2444 1.242 . S
C2444 O2442 1.258 . S
C2444 O2443 1.242 . S
O2445 Eu2432 2.418 . S
O2445 C2449 1.244 . S
O2446 Eu2433 2.488 . S
O2446 C2462 1.249 . S
O2447 Eu2433 2.471 . S
O2447 C2462 1.244 . S
O2448 Eu2433 2.349 . S
O2448 C2449 1.265 . S
C2449 O2445 1.244 . S
C2449 O2448 1.265 . S
O2450 Eu2432 2.373 1_556 S
O2450 C2463 1.258 . S
O2451 Eu2433 2.392 1_556 S
O2451 C2463 1.242 . S
O2452 Eu2433 2.418 . S
O2452 C2434 1.244 . S
O2453 Eu2432 2.488 . S
O2453 C2441 1.249 . S
O2454 Eu2432 2.471 . S
O2454 C2441 1.244 . S
O2455 Eu2432 2.349 . S
O2455 C2434 1.265 . S
C2456 C2457 1.379 . S
C2456 C2460 1.373 . S
C2456 C2462 1.505 . S
C2457 C2456 1.379 . S
C2457 C2459 1.369 . S
C2457 H2468 0.930 . S
C2458 C2460 1.383 . S
C2458 C2461 1.382 . S
C2458 H2469 0.930 . S
C2459 C2457 1.369 . S
C2459 C2461 1.392 . S
C2459 H2470 0.930 . S
C2460 C2456 1.373 . S
C2460 C2458 1.383 . S
C2460 H2471 0.931 . S
C2461 C2458 1.382 . S
C2461 C2459 1.392 . S
C2462 Eu2433 2.828 . S
C2462 O2446 1.249 . S
C2462 O2447 1.244 . S
C2462 C2456 1.505 . S
C2463 O2450 1.258 . S
C2463 O2451 1.242 . S
H2464 C2436 0.930 . S
H2465 C2437 0.930 . S
H2466 C2438 0.930 . S
H2467 C2439 0.931 1_554 S
H2468 C2457 0.930 . S
H2469 C2458 0.930 . S
H2470 C2459 0.930 . S
H2471 C2460 0.931 . S
Eu2472 C2481 2.828 . S
Eu2472 O2483 2.392 . S
Eu2472 O2485 2.418 . S
Eu2472 O2490 2.373 . S
Eu2472 O2493 2.488 . S
Eu2472 O2494 2.471 . S
Eu2472 O2495 2.349 . S
Eu2473 O2482 2.373 . S
Eu2473 O2486 2.488 . S
Eu2473 O2487 2.471 . S
Eu2473 O2488 2.349 . S
Eu2473 O2491 2.392 . S
Eu2473 O2492 2.418 . S
Eu2473 C2502 2.828 . S
C2474 O2492 1.244 . S
C2474 O2495 1.265 . S
C2475 C2476 1.379 . S
C2475 C2479 1.373 . S
C2475 C2481 1.505 . S
C2476 C2475 1.379 . S
C2476 C2478 1.369 . S
C2476 H2504 0.930 . S
C2477 C2479 1.383 . S
C2477 C2480 1.382 . S
C2477 H2505 0.930 . S
C2478 C2476 1.369 . S
C2478 C2480 1.392 . S
C2478 H2506 0.930 . S
C2479 C2475 1.373 . S
C2479 C2477 1.383 . S
C2479 H2507 0.931 . S
C2480 C2477 1.382 . S
C2480 C2478 1.392 . S
C2481 Eu2472 2.828 . S
C2481 C2475 1.505 . S
C2481 O2493 1.249 . S
C2481 O2494 1.244 . S
O2482 Eu2473 2.373 . S
O2482 C2484 1.258 . S
O2483 Eu2472 2.392 . S
O2483 C2484 1.242 . S
C2484 O2482 1.258 . S
C2484 O2483 1.242 . S
O2485 Eu2472 2.418 . S
O2485 C2489 1.244 . S
O2486 Eu2473 2.488 . S
O2486 C2502 1.249 . S
O2487 Eu2473 2.471 . S
O2487 C2502 1.244 . S
O2488 Eu2473 2.349 . S
O2488 C2489 1.265 . S
C2489 O2485 1.244 . S
C2489 O2488 1.265 . S
O2490 Eu2472 2.373 . S
O2490 C2503 1.258 . S
O2491 Eu2473 2.392 . S
O2491 C2503 1.242 . S
O2492 Eu2473 2.418 . S
O2492 C2474 1.244 . S
O2493 Eu2472 2.488 . S
O2493 C2481 1.249 . S
O2494 Eu2472 2.471 . S
O2494 C2481 1.244 . S
O2495 Eu2472 2.349 . S
O2495 C2474 1.265 . S
C2496 C2497 1.379 . S
C2496 C2500 1.373 . S
C2496 C2502 1.505 . S
C2497 C2496 1.379 . S
C2497 C2499 1.369 . S
C2497 H2508 0.930 . S
C2498 C2500 1.383 . S
C2498 C2501 1.382 . S
C2498 H2509 0.930 . S
C2499 C2497 1.369 . S
C2499 C2501 1.392 . S
C2499 H2510 0.930 . S
C2500 C2496 1.373 . S
C2500 C2498 1.383 . S
C2500 H2511 0.931 . S
C2501 C2498 1.382 . S
C2501 C2499 1.392 . S
C2502 Eu2473 2.828 . S
C2502 O2486 1.249 . S
C2502 O2487 1.244 . S
C2502 C2496 1.505 . S
C2503 O2490 1.258 . S
C2503 O2491 1.242 . S
H2504 C2476 0.930 . S
H2505 C2477 0.930 . S
H2506 C2478 0.930 . S
H2507 C2479 0.931 . S
H2508 C2497 0.930 . S
H2509 C2498 0.930 . S
H2510 C2499 0.930 . S
H2511 C2500 0.931 . S
Eu2512 C2521 2.828 . S
Eu2512 O2523 2.392 . S
Eu2512 O2525 2.418 . S
Eu2512 O2530 2.373 . S
Eu2512 O2533 2.488 . S
Eu2512 O2534 2.471 . S
Eu2512 O2535 2.349 . S
Eu2513 O2522 2.373 . S
Eu2513 O2526 2.488 . S
Eu2513 O2527 2.471 . S
Eu2513 O2528 2.349 . S
Eu2513 O2531 2.440 . S
Eu2513 O2532 2.418 . S
Eu2513 C2542 2.828 . S
C2514 O2532 1.244 . S
C2514 O2535 1.265 . S
C2515 C2516 1.379 1_455 S
C2515 C2519 1.373 . S
C2515 C2521 1.505 . S
C2516 C2515 1.379 1_655 S
C2516 C2518 1.369 . S
C2516 H2544 0.930 . S
C2517 C2519 1.383 1_655 S
C2517 C2520 1.382 . S
C2517 H2545 0.930 . S
C2518 C2516 1.369 . S
C2518 C2520 1.392 . S
C2518 H2546 0.930 . S
C2519 C2515 1.373 . S
C2519 C2517 1.383 1_455 S
C2519 H2547 0.931 . S
C2520 C2517 1.382 . S
C2520 C2518 1.392 . S
C2521 Eu2512 2.828 . S
C2521 C2515 1.505 . S
C2521 O2533 1.249 . S
C2521 O2534 1.244 . S
O2522 Eu2513 2.373 . S
O2522 C2524 1.258 . S
O2523 Eu2512 2.392 . S
O2523 C2524 1.242 . S
C2524 O2522 1.258 . S
C2524 O2523 1.242 . S
O2525 Eu2512 2.418 . S
O2525 C2529 1.244 . S
O2526 Eu2513 2.488 . S
O2526 C2542 1.249 . S
O2527 Eu2513 2.471 . S
O2527 C2542 1.244 . S
O2528 Eu2513 2.349 . S
O2528 C2529 1.265 . S
C2529 O2525 1.244 . S
C2529 O2528 1.265 . S
O2530 Eu2512 2.373 . S
O2530 C2543 1.258 1_455 S
O2531 Eu2513 2.440 . S
O2531 C2543 1.232 1_455 S
O2532 Eu2513 2.418 . S
O2532 C2514 1.244 . S
O2533 Eu2512 2.488 . S
O2533 C2521 1.249 . S
O2534 Eu2512 2.471 . S
O2534 C2521 1.244 . S
O2535 Eu2512 2.349 . S
O2535 C2514 1.265 . S
C2536 C2537 1.379 . S
C2536 C2540 1.373 . S
C2536 C2542 1.505 . S
C2537 C2536 1.379 . S
C2537 C2539 1.369 . S
C2537 H2548 0.930 . S
C2538 C2540 1.383 . S
C2538 C2541 1.382 . S
C2538 H2549 0.930 . S
C2539 C2537 1.369 . S
C2539 C2541 1.392 . S
C2539 H2550 0.930 . S
C2540 C2536 1.373 . S
C2540 C2538 1.383 . S
C2540 H2551 0.931 . S
C2541 C2538 1.382 . S
C2541 C2539 1.392 . S
C2542 Eu2513 2.828 . S
C2542 O2526 1.249 . S
C2542 O2527 1.244 . S
C2542 C2536 1.505 . S
C2543 O2530 1.258 1_655 S
C2543 O2531 1.232 1_655 S
H2544 C2516 0.930 . S
H2545 C2517 0.930 . S
H2546 C2518 0.930 . S
H2547 C2519 0.931 . S
H2548 C2537 0.930 . S
H2549 C2538 0.930 . S
H2550 C2539 0.930 . S
H2551 C2540 0.931 . S
Eu2552 C2561 2.828 . S
Eu2552 O2563 2.392 . S
Eu2552 O2565 2.418 . S
Eu2552 O2570 2.373 . S
Eu2552 O2573 2.488 . S
Eu2552 O2574 2.471 . S
Eu2552 O2575 2.349 . S
Eu2553 O2562 2.373 . S
Eu2553 O2566 2.488 . S
Eu2553 O2567 2.471 . S
Eu2553 O2568 2.349 . S
Eu2553 O2571 2.392 . S
Eu2553 O2572 2.418 . S
Eu2553 C2582 2.828 . S
C2554 O2572 1.244 . S
C2554 O2575 1.265 . S
C2555 C2556 1.379 . S
C2555 C2559 1.373 . S
C2555 C2561 1.505 . S
C2556 C2555 1.379 . S
C2556 C2558 1.369 . S
C2556 H2584 0.930 . S
C2557 C2559 1.383 . S
C2557 C2560 1.382 . S
C2557 H2585 0.930 . S
C2558 C2556 1.369 . S
C2558 C2560 1.392 . S
C2558 H2586 0.930 . S
C2559 C2555 1.373 . S
C2559 C2557 1.383 . S
C2559 H2587 0.931 . S
C2560 C2557 1.382 . S
C2560 C2558 1.392 . S
C2561 Eu2552 2.828 . S
C2561 C2555 1.505 . S
C2561 O2573 1.249 . S
C2561 O2574 1.244 . S
O2562 Eu2553 2.373 . S
O2562 C2564 1.258 . S
O2563 Eu2552 2.392 . S
O2563 C2564 1.242 . S
C2564 O2562 1.258 . S
C2564 O2563 1.242 . S
O2565 Eu2552 2.418 . S
O2565 C2569 1.244 . S
O2566 Eu2553 2.488 . S
O2566 C2582 1.249 . S
O2567 Eu2553 2.471 . S
O2567 C2582 1.244 . S
O2568 Eu2553 2.349 . S
O2568 C2569 1.265 . S
C2569 O2565 1.244 . S
C2569 O2568 1.265 . S
O2570 Eu2552 2.373 . S
O2570 C2583 1.258 . S
O2571 Eu2553 2.392 . S
O2571 C2583 1.242 . S
O2572 Eu2553 2.418 . S
O2572 C2554 1.244 . S
O2573 Eu2552 2.488 . S
O2573 C2561 1.249 . S
O2574 Eu2552 2.471 . S
O2574 C2561 1.244 . S
O2575 Eu2552 2.349 . S
O2575 C2554 1.265 . S
C2576 C2577 1.379 . S
C2576 C2580 1.373 . S
C2576 C2582 1.505 . S
C2577 C2576 1.379 . S
C2577 C2579 1.369 . S
C2577 H2588 0.930 . S
C2578 C2580 1.383 . S
C2578 C2581 1.382 . S
C2578 H2589 0.930 . S
C2579 C2577 1.369 . S
C2579 C2581 1.392 . S
C2579 H2590 0.930 . S
C2580 C2576 1.373 . S
C2580 C2578 1.383 . S
C2580 H2591 0.931 . S
C2581 C2578 1.382 . S
C2581 C2579 1.392 . S
C2582 Eu2553 2.828 . S
C2582 O2566 1.249 . S
C2582 O2567 1.244 . S
C2582 C2576 1.505 . S
C2583 O2570 1.258 . S
C2583 O2571 1.242 . S
H2584 C2556 0.930 . S
H2585 C2557 0.930 . S
H2586 C2558 0.930 . S
H2587 C2559 0.931 . S
H2588 C2577 0.930 . S
H2589 C2578 0.930 . S
H2590 C2579 0.930 . S
H2591 C2580 0.931 . S
Eu2592 C2601 2.828 . S
Eu2592 O2603 2.392 . S
Eu2592 O2605 2.418 . S
Eu2592 O2610 2.373 . S
Eu2592 O2613 2.488 . S
Eu2592 O2614 2.471 . S
Eu2592 O2615 2.349 . S
Eu2593 O2602 2.373 . S
Eu2593 O2606 2.488 . S
Eu2593 O2607 2.471 . S
Eu2593 O2608 2.349 . S
Eu2593 O2611 2.392 . S
Eu2593 O2612 2.418 . S
Eu2593 C2622 2.828 . S
C2594 O2612 1.244 . S
C2594 O2615 1.265 . S
C2595 C2596 1.379 . S
C2595 C2599 1.373 . S
C2595 C2601 1.505 . S
C2596 C2595 1.379 . S
C2596 C2598 1.369 . S
C2596 H2624 0.930 . S
C2597 C2599 1.383 . S
C2597 C2600 1.382 . S
C2597 H2625 0.930 . S
C2598 C2596 1.369 . S
C2598 C2600 1.392 . S
C2598 H2626 0.930 . S
C2599 C2595 1.373 . S
C2599 C2597 1.383 . S
C2599 H2627 0.931 . S
C2600 C2597 1.382 . S
C2600 C2598 1.392 . S
C2601 Eu2592 2.828 . S
C2601 C2595 1.505 . S
C2601 O2613 1.249 . S
C2601 O2614 1.244 . S
O2602 Eu2593 2.373 . S
O2602 C2604 1.258 . S
O2603 Eu2592 2.392 . S
O2603 C2604 1.242 . S
C2604 O2602 1.258 . S
C2604 O2603 1.242 . S
O2605 Eu2592 2.418 . S
O2605 C2609 1.244 . S
O2606 Eu2593 2.488 . S
O2606 C2622 1.249 . S
O2607 Eu2593 2.471 . S
O2607 C2622 1.244 . S
O2608 Eu2593 2.349 . S
O2608 C2609 1.265 . S
C2609 O2605 1.244 . S
C2609 O2608 1.265 . S
O2610 Eu2592 2.373 . S
O2610 C2623 1.258 . S
O2611 Eu2593 2.392 . S
O2611 C2623 1.242 . S
O2612 Eu2593 2.418 . S
O2612 C2594 1.244 . S
O2613 Eu2592 2.488 . S
O2613 C2601 1.249 . S
O2614 Eu2592 2.471 . S
O2614 C2601 1.244 . S
O2615 Eu2592 2.349 . S
O2615 C2594 1.265 . S
C2616 C2617 1.379 . S
C2616 C2620 1.373 . S
C2616 C2622 1.505 . S
C2617 C2616 1.379 . S
C2617 C2619 1.369 . S
C2617 H2628 0.930 . S
C2618 C2620 1.383 . S
C2618 C2621 1.382 . S
C2618 H2629 0.930 . S
C2619 C2617 1.369 . S
C2619 C2621 1.392 . S
C2619 H2630 0.930 . S
C2620 C2616 1.373 . S
C2620 C2618 1.383 . S
C2620 H2631 0.931 . S
C2621 C2618 1.382 . S
C2621 C2619 1.392 . S
C2622 Eu2593 2.828 . S
C2622 O2606 1.249 . S
C2622 O2607 1.244 . S
C2622 C2616 1.505 . S
C2623 O2610 1.258 . S
C2623 O2611 1.242 . S
H2624 C2596 0.930 . S
H2625 C2597 0.930 . S
H2626 C2598 0.930 . S
H2627 C2599 0.931 . S
H2628 C2617 0.930 . S
H2629 C2618 0.930 . S
H2630 C2619 0.930 . S
H2631 C2620 0.931 . S
Eu2632 C2641 2.828 . S
Eu2632 O2643 2.392 . S
Eu2632 O2645 2.418 . S
Eu2632 O2650 2.373 . S
Eu2632 O2653 2.488 . S
Eu2632 O2654 2.471 . S
Eu2632 O2655 2.349 . S
Eu2633 O2642 2.373 . S
Eu2633 O2646 2.488 . S
Eu2633 O2647 2.471 . S
Eu2633 O2648 2.349 . S
Eu2633 O2651 2.392 . S
Eu2633 O2652 2.418 . S
Eu2633 C2662 2.828 . S
C2634 O2652 1.244 . S
C2634 O2655 1.265 . S
C2635 C2636 1.379 . S
C2635 C2639 1.373 . S
C2635 C2641 1.505 . S
C2636 C2635 1.379 . S
C2636 C2638 1.369 . S
C2636 H2664 0.930 . S
C2637 C2639 1.383 . S
C2637 C2640 1.382 . S
C2637 H2665 0.930 . S
C2638 C2636 1.369 . S
C2638 C2640 1.392 . S
C2638 H2666 0.930 . S
C2639 C2635 1.373 . S
C2639 C2637 1.383 . S
C2639 H2667 0.931 . S
C2640 C2637 1.382 . S
C2640 C2638 1.392 . S
C2641 Eu2632 2.828 . S
C2641 C2635 1.505 . S
C2641 O2653 1.249 . S
C2641 O2654 1.244 . S
O2642 Eu2633 2.373 . S
O2642 C2644 1.258 . S
O2643 Eu2632 2.392 . S
O2643 C2644 1.242 . S
C2644 O2642 1.258 . S
C2644 O2643 1.242 . S
O2645 Eu2632 2.418 . S
O2645 C2649 1.244 . S
O2646 Eu2633 2.488 . S
O2646 C2662 1.249 . S
O2647 Eu2633 2.471 . S
O2647 C2662 1.244 . S
O2648 Eu2633 2.349 . S
O2648 C2649 1.265 . S
C2649 O2645 1.244 . S
C2649 O2648 1.265 . S
O2650 Eu2632 2.373 . S
O2650 C2663 1.258 . S
O2651 Eu2633 2.392 . S
O2651 C2663 1.242 . S
O2652 Eu2633 2.418 . S
O2652 C2634 1.244 . S
O2653 Eu2632 2.488 . S
O2653 C2641 1.249 . S
O2654 Eu2632 2.471 . S
O2654 C2641 1.244 . S
O2655 Eu2632 2.349 . S
O2655 C2634 1.265 . S
C2656 C2657 1.379 . S
C2656 C2660 1.373 . S
C2656 C2662 1.505 . S
C2657 C2656 1.379 . S
C2657 C2659 1.369 . S
C2657 H2668 0.930 . S
C2658 C2660 1.383 . S
C2658 C2661 1.382 . S
C2658 H2669 0.930 . S
C2659 C2657 1.369 . S
C2659 C2661 1.392 . S
C2659 H2670 0.930 . S
C2660 C2656 1.373 . S
C2660 C2658 1.383 . S
C2660 H2671 0.931 . S
C2661 C2658 1.382 . S
C2661 C2659 1.392 . S
C2662 Eu2633 2.828 . S
C2662 O2646 1.249 . S
C2662 O2647 1.244 . S
C2662 C2656 1.505 . S
C2663 O2650 1.258 . S
C2663 O2651 1.242 . S
H2664 C2636 0.930 . S
H2665 C2637 0.930 . S
H2666 C2638 0.930 . S
H2667 C2639 0.931 . S
H2668 C2657 0.930 . S
H2669 C2658 0.930 . S
H2670 C2659 0.930 . S
H2671 C2660 0.931 . S
Eu2672 C2681 2.828 . S
Eu2672 O2683 2.392 . S
Eu2672 O2685 2.418 . S
Eu2672 O2690 2.373 . S
Eu2672 O2693 2.488 . S
Eu2672 O2694 2.471 . S
Eu2672 O2695 2.349 . S
Eu2673 O2682 2.373 . S
Eu2673 O2686 2.488 . S
Eu2673 O2687 2.471 . S
Eu2673 O2688 2.349 . S
Eu2673 O2691 2.392 . S
Eu2673 O2692 2.418 . S
Eu2673 C2702 2.828 . S
C2674 O2692 1.244 . S
C2674 O2695 1.265 . S
C2675 C2676 1.379 . S
C2675 C2679 1.373 . S
C2675 C2681 1.505 . S
C2676 C2675 1.379 . S
C2676 C2678 1.369 . S
C2676 H2704 0.930 . S
C2677 C2679 1.383 . S
C2677 C2680 1.382 . S
C2677 H2705 0.930 . S
C2678 C2676 1.369 . S
C2678 C2680 1.392 . S
C2678 H2706 0.930 . S
C2679 C2675 1.373 . S
C2679 C2677 1.383 . S
C2679 H2707 0.931 . S
C2680 C2677 1.382 . S
C2680 C2678 1.392 . S
C2681 Eu2672 2.828 . S
C2681 C2675 1.505 . S
C2681 O2693 1.249 . S
C2681 O2694 1.244 . S
O2682 Eu2673 2.373 . S
O2682 C2684 1.258 . S
O2683 Eu2672 2.392 . S
O2683 C2684 1.242 . S
C2684 O2682 1.258 . S
C2684 O2683 1.242 . S
O2685 Eu2672 2.418 . S
O2685 C2689 1.244 . S
O2686 Eu2673 2.488 . S
O2686 C2702 1.249 . S
O2687 Eu2673 2.471 . S
O2687 C2702 1.244 . S
O2688 Eu2673 2.349 . S
O2688 C2689 1.265 . S
C2689 O2685 1.244 . S
C2689 O2688 1.265 . S
O2690 Eu2672 2.373 . S
O2690 C2703 1.258 . S
O2691 Eu2673 2.392 . S
O2691 C2703 1.242 . S
O2692 Eu2673 2.418 . S
O2692 C2674 1.244 . S
O2693 Eu2672 2.488 . S
O2693 C2681 1.249 . S
O2694 Eu2672 2.471 . S
O2694 C2681 1.244 . S
O2695 Eu2672 2.349 . S
O2695 C2674 1.265 . S
C2696 C2697 1.379 . S
C2696 C2700 1.373 . S
C2696 C2702 1.505 . S
C2697 C2696 1.379 . S
C2697 C2699 1.369 . S
C2697 H2708 0.930 . S
C2698 C2700 1.383 . S
C2698 C2701 1.382 . S
C2698 H2709 0.930 . S
C2699 C2697 1.369 . S
C2699 C2701 1.392 . S
C2699 H2710 0.930 . S
C2700 C2696 1.373 . S
C2700 C2698 1.383 . S
C2700 H2711 0.931 . S
C2701 C2698 1.382 . S
C2701 C2699 1.392 . S
C2702 Eu2673 2.828 . S
C2702 O2686 1.249 . S
C2702 O2687 1.244 . S
C2702 C2696 1.505 . S
C2703 O2690 1.258 . S
C2703 O2691 1.242 . S
H2704 C2676 0.930 . S
H2705 C2677 0.930 . S
H2706 C2678 0.930 . S
H2707 C2679 0.931 . S
H2708 C2697 0.930 . S
H2709 C2698 0.930 . S
H2710 C2699 0.930 . S
H2711 C2700 0.931 . S
Eu2712 C2721 2.828 1_554 S
Eu2712 O2723 2.392 . S
Eu2712 O2725 2.418 1_554 S
Eu2712 O2730 2.373 1_554 S
Eu2712 O2733 2.488 1_554 S
Eu2712 O2734 2.471 . S
Eu2712 O2735 2.349 . S
Eu2713 O2722 2.373 . S
Eu2713 O2726 2.488 1_455 S
Eu2713 O2727 2.471 1_455 S
Eu2713 O2728 2.349 1_554 S
Eu2713 O2731 2.392 . S
Eu2713 O2732 2.418 . S
Eu2713 C2742 2.828 1_455 S
C2714 O2732 1.244 . S
C2714 O2735 1.265 . S
C2715 C2716 1.379 1_556 S
C2715 C2719 1.373 . S
C2715 C2721 1.505 . S
C2716 C2715 1.379 1_554 S
C2716 C2718 1.369 . S
C2716 H2744 0.930 . S
C2717 C2719 1.383 . S
C2717 C2720 1.382 . S
C2717 H2745 0.930 . S
C2718 C2716 1.369 . S
C2718 C2720 1.392 1_554 S
C2718 H2746 0.930 . S
C2719 C2715 1.373 . S
C2719 C2717 1.383 . S
C2719 H2747 0.931 . S
C2720 C2717 1.382 . S
C2720 C2718 1.392 1_556 S
C2721 Eu2712 2.828 1_556 S
C2721 C2715 1.505 . S
C2721 O2733 1.249 . S
C2721 O2734 1.244 1_556 S
O2722 Eu2713 2.373 . S
O2722 C2724 1.258 . S
O2723 Eu2712 2.392 . S
O2723 C2724 1.242 . S
C2724 O2722 1.258 . S
C2724 O2723 1.242 . S
O2725 Eu2712 2.418 1_556 S
O2725 C2729 1.244 . S
O2726 Eu2713 2.488 1_655 S
O2726 C2742 1.249 . S
O2727 Eu2713 2.471 1_655 S
O2727 C2742 1.244 . S
O2728 Eu2713 2.349 1_556 S
O2728 C2729 1.265 . S
C2729 O2725 1.244 . S
C2729 O2728 1.265 . S
O2730 Eu2712 2.373 1_556 S
O2730 C2743 1.260 1_556 S
O2731 Eu2713 2.392 . S
O2731 C2743 1.240 . S
O2732 Eu2713 2.418 . S
O2732 C2714 1.244 . S
O2733 Eu2712 2.488 1_556 S
O2733 C2721 1.249 . S
O2734 Eu2712 2.471 . S
O2734 C2721 1.244 1_554 S
O2735 Eu2712 2.349 . S
O2735 C2714 1.265 . S
C2736 C2737 1.379 . S
C2736 C2740 1.373 . S
C2736 C2742 1.505 . S
C2737 C2736 1.379 . S
C2737 C2739 1.369 . S
C2737 H2748 0.930 . S
C2738 C2740 1.383 . S
C2738 C2741 1.382 . S
C2738 H2749 0.930 . S
C2739 C2737 1.369 . S
C2739 C2741 1.392 . S
C2739 H2750 0.930 . S
C2740 C2736 1.373 . S
C2740 C2738 1.383 . S
C2740 H2751 0.931 . S
C2741 C2738 1.382 . S
C2741 C2739 1.392 . S
C2742 Eu2713 2.828 1_655 S
C2742 O2726 1.249 . S
C2742 O2727 1.244 . S
C2742 C2736 1.505 . S
C2743 O2730 1.260 1_554 S
C2743 O2731 1.240 . S
H2744 C2716 0.930 . S
H2745 C2717 0.930 . S
H2746 C2718 0.930 . S
H2747 C2719 0.931 . S
H2748 C2737 0.930 . S
H2749 C2738 0.930 . S
H2750 C2739 0.930 . S
H2751 C2740 0.931 . S
C2752 C2753 1.349 1_655 S
C2752 C2754 1.308 1_655 S
C2752 H2777 0.950 . S
C2753 C2752 1.349 1_455 S
C2753 C2769 1.349 . S
C2754 C2752 1.308 1_455 S
C2754 C2773 1.476 . S
C2754 H2778 0.927 1_455 S
C2755 C2772 1.574 . S
C2755 C2774 1.368 . S
C2755 H2779 0.949 . S
H2756 C2760 0.949 . S
C2757 C2758 1.349 . S
C2757 C2759 1.327 . S
C2757 H2780 0.950 . S
C2758 C2757 1.349 . S
C2758 C2770 1.349 . S
C2759 C2757 1.327 . S
C2759 C2775 1.429 . S
C2759 H2781 0.950 . S
C2760 H2756 0.949 . S
C2760 C2768 1.574 . S
C2760 C2776 1.368 . S
H2761 C2769 0.950 . S
H2762 C2767 0.950 . S
H2763 C2768 0.991 . S
H2764 C2770 0.950 1_554 S
H2765 C2771 0.950 . S
H2766 C2772 0.949 . S
C2767 H2762 0.950 . S
C2767 C2769 1.327 . S
C2767 C2773 1.429 . S
C2768 C2760 1.574 . S
C2768 H2763 0.991 . S
C2768 C2774 1.368 . S
C2769 C2753 1.349 . S
C2769 H2761 0.950 . S
C2769 C2767 1.327 . S
C2770 C2758 1.349 . S
C2770 H2764 0.950 1_556 S
C2770 C2771 1.327 . S
C2771 H2765 0.950 . S
C2771 C2770 1.327 . S
C2771 C2775 1.429 . S
C2772 C2755 1.574 . S
C2772 H2766 0.949 . S
C2772 C2776 1.368 . S
C2773 C2754 1.476 . S
C2773 C2767 1.429 . S
C2773 C2774 1.523 . S
C2774 C2755 1.368 . S
C2774 C2768 1.368 . S
C2774 C2773 1.523 . S
C2775 C2759 1.429 . S
C2775 C2771 1.429 . S
C2775 C2776 1.523 . S
C2776 C2760 1.368 . S
C2776 C2772 1.368 . S
C2776 C2775 1.523 . S
H2777 C2752 0.950 . S
H2778 C2754 0.927 1_655 S
H2779 C2755 0.949 . S
H2780 C2757 0.950 . S
H2781 C2759 0.950 . S
C2782 C2783 1.349 . S
C2782 C2784 1.327 . S
C2782 H2807 0.950 . S
C2783 C2782 1.349 . S
C2783 C2799 1.349 . S
C2784 C2782 1.327 . S
C2784 C2803 1.429 . S
C2784 H2808 0.950 . S
C2785 C2802 1.574 . S
C2785 C2804 1.368 . S
C2785 H2809 0.949 . S
H2786 C2790 0.949 . S
C2787 C2788 1.349 . S
C2787 C2789 1.327 . S
C2787 H2810 0.950 . S
C2788 C2787 1.349 . S
C2788 C2800 1.349 . S
C2789 C2787 1.327 . S
C2789 C2805 1.429 . S
C2789 H2811 0.950 . S
C2790 H2786 0.949 . S
C2790 C2798 1.574 . S
C2790 C2806 1.368 . S
H2791 C2799 0.950 . S
H2792 C2797 0.950 . S
H2793 C2798 0.949 . S
H2794 C2800 0.950 . S
H2795 C2801 0.950 . S
H2796 C2802 0.949 . S
C2797 H2792 0.950 . S
C2797 C2799 1.327 . S
C2797 C2803 1.429 . S
C2798 C2790 1.574 . S
C2798 H2793 0.949 . S
C2798 C2804 1.368 . S
C2799 C2783 1.349 . S
C2799 H2791 0.950 . S
C2799 C2797 1.327 . S
C2800 C2788 1.349 . S
C2800 H2794 0.950 . S
C2800 C2801 1.327 . S
C2801 H2795 0.950 . S
C2801 C2800 1.327 . S
C2801 C2805 1.429 . S
C2802 C2785 1.574 . S
C2802 H2796 0.949 . S
C2802 C2806 1.368 . S
C2803 C2784 1.429 . S
C2803 C2797 1.429 . S
C2803 C2804 1.523 . S
C2804 C2785 1.368 . S
C2804 C2798 1.368 . S
C2804 C2803 1.523 . S
C2805 C2789 1.429 . S
C2805 C2801 1.429 . S
C2805 C2806 1.523 . S
C2806 C2790 1.368 . S
C2806 C2802 1.368 . S
C2806 C2805 1.523 . S
H2807 C2782 0.950 . S
H2808 C2784 0.950 . S
H2809 C2785 0.949 . S
H2810 C2787 0.950 . S
H2811 C2789 0.950 . S
C2812 C2813 1.349 . S
C2812 C2814 1.327 . S
C2812 H2837 0.950 . S
C2813 C2812 1.349 . S
C2813 C2829 1.349 . S
C2814 C2812 1.327 . S
C2814 C2833 1.429 . S
C2814 H2838 0.950 . S
C2815 C2832 1.574 . S
C2815 C2834 1.368 . S
C2815 H2839 0.949 . S
H2816 C2820 0.949 . S
C2817 C2818 1.349 . S
C2817 C2819 1.327 . S
C2817 H2840 0.950 . S
C2818 C2817 1.349 . S
C2818 C2830 1.349 . S
C2819 C2817 1.327 . S
C2819 C2835 1.429 . S
C2819 H2841 0.950 . S
C2820 H2816 0.949 . S
C2820 C2828 1.574 . S
C2820 C2836 1.368 . S
H2821 C2829 0.950 . S
H2822 C2827 0.950 . S
H2823 C2828 0.949 . S
H2824 C2830 0.950 . S
H2825 C2831 0.950 . S
H2826 C2832 0.949 . S
C2827 H2822 0.950 . S
C2827 C2829 1.327 . S
C2827 C2833 1.429 . S
C2828 C2820 1.574 . S
C2828 H2823 0.949 . S
C2828 C2834 1.368 . S
C2829 C2813 1.349 . S
C2829 H2821 0.950 . S
C2829 C2827 1.327 . S
C2830 C2818 1.349 . S
C2830 H2824 0.950 . S
C2830 C2831 1.327 . S
C2831 H2825 0.950 . S
C2831 C2830 1.327 . S
C2831 C2835 1.429 . S
C2832 C2815 1.574 . S
C2832 H2826 0.949 . S
C2832 C2836 1.368 . S
C2833 C2814 1.429 . S
C2833 C2827 1.429 . S
C2833 C2834 1.523 . S
C2834 C2815 1.368 . S
C2834 C2828 1.368 . S
C2834 C2833 1.523 . S
C2835 C2819 1.429 . S
C2835 C2831 1.429 . S
C2835 C2836 1.523 . S
C2836 C2820 1.368 . S
C2836 C2832 1.368 . S
C2836 C2835 1.523 . S
H2837 C2812 0.950 . S
H2838 C2814 0.950 . S
H2839 C2815 0.949 . S
H2840 C2817 0.950 . S
H2841 C2819 0.950 . S
C2842 C2843 1.349 . S
C2842 C2844 1.327 . S
C2842 H2867 0.950 . S
C2843 C2842 1.349 . S
C2843 C2859 1.349 . S
C2844 C2842 1.327 . S
C2844 C2863 1.429 . S
C2844 H2868 0.950 . S
C2845 C2862 1.574 . S
C2845 C2864 1.368 . S
C2845 H2869 0.949 . S
H2846 C2850 0.949 . S
C2847 C2848 1.349 . S
C2847 C2849 1.327 . S
C2847 H2870 0.950 . S
C2848 C2847 1.349 . S
C2848 C2860 1.349 . S
C2849 C2847 1.327 . S
C2849 C2865 1.429 . S
C2849 H2871 0.950 . S
C2850 H2846 0.949 . S
C2850 C2858 1.574 . S
C2850 C2866 1.368 . S
H2851 C2859 0.950 . S
H2852 C2857 0.950 . S
H2853 C2858 0.949 . S
H2854 C2860 0.950 . S
H2855 C2861 0.950 . S
H2856 C2862 0.949 . S
C2857 H2852 0.950 . S
C2857 C2859 1.327 . S
C2857 C2863 1.429 . S
C2858 C2850 1.574 . S
C2858 H2853 0.949 . S
C2858 C2864 1.368 . S
C2859 C2843 1.349 . S
C2859 H2851 0.950 . S
C2859 C2857 1.327 . S
C2860 C2848 1.349 . S
C2860 H2854 0.950 . S
C2860 C2861 1.327 . S
C2861 H2855 0.950 . S
C2861 C2860 1.327 . S
C2861 C2865 1.429 . S
C2862 C2845 1.574 . S
C2862 H2856 0.949 . S
C2862 C2866 1.368 . S
C2863 C2844 1.429 . S
C2863 C2857 1.429 . S
C2863 C2864 1.523 . S
C2864 C2845 1.368 . S
C2864 C2858 1.368 . S
C2864 C2863 1.523 . S
C2865 C2849 1.429 . S
C2865 C2861 1.429 . S
C2865 C2866 1.523 . S
C2866 C2850 1.368 . S
C2866 C2862 1.368 . S
C2866 C2865 1.523 . S
H2867 C2842 0.950 . S
H2868 C2844 0.950 . S
H2869 C2845 0.949 . S
H2870 C2847 0.950 . S
H2871 C2849 0.950 . S
C2872 C2873 1.329 1_655 S
C2872 C2874 1.320 1_655 S
C2872 H2897 0.980 . S
C2873 C2872 1.329 1_455 S
C2873 C2889 1.349 . S
C2874 C2872 1.320 1_455 S
C2874 C2893 1.429 . S
C2874 H2898 0.950 1_455 S
C2875 C2892 1.574 . S
C2875 C2894 1.368 . S
C2875 H2899 0.949 . S
H2876 C2880 0.949 . S
C2877 C2878 1.349 . S
C2877 C2879 1.327 . S
C2877 H2900 0.950 . S
C2878 C2877 1.349 . S
C2878 C2890 1.349 . S
C2879 C2877 1.327 . S
C2879 C2895 1.429 . S
C2879 H2901 0.950 . S
C2880 H2876 0.949 . S
C2880 C2888 1.574 . S
C2880 C2896 1.368 . S
H2881 C2889 0.950 . S
H2882 C2887 0.950 . S
H2883 C2888 0.949 . S
H2884 C2890 0.950 . S
H2885 C2891 0.950 . S
H2886 C2892 0.949 . S
C2887 H2882 0.950 . S
C2887 C2889 1.327 . S
C2887 C2893 1.429 . S
C2888 C2880 1.574 . S
C2888 H2883 0.949 . S
C2888 C2894 1.368 . S
C2889 C2873 1.349 . S
C2889 H2881 0.950 . S
C2889 C2887 1.327 . S
C2890 C2878 1.349 . S
C2890 H2884 0.950 . S
C2890 C2891 1.327 . S
C2891 H2885 0.950 . S
C2891 C2890 1.327 . S
C2891 C2895 1.429 . S
C2892 C2875 1.574 . S
C2892 H2886 0.949 . S
C2892 C2896 1.368 . S
C2893 C2874 1.429 . S
C2893 C2887 1.429 . S
C2893 C2894 1.523 . S
C2894 C2875 1.368 . S
C2894 C2888 1.368 . S
C2894 C2893 1.523 . S
C2895 C2879 1.429 . S
C2895 C2891 1.429 . S
C2895 C2896 1.523 . S
C2896 C2880 1.368 . S
C2896 C2892 1.368 . S
C2896 C2895 1.523 . S
H2897 C2872 0.980 . S
H2898 C2874 0.950 1_655 S
H2899 C2875 0.949 . S
H2900 C2877 0.950 . S
H2901 C2879 0.950 . S
C2902 C2903 1.349 . S
C2902 C2904 1.327 . S
C2902 H2927 0.950 . S
C2903 C2902 1.349 . S
C2903 C2919 1.349 . S
C2904 C2902 1.327 . S
C2904 C2923 1.429 . S
C2904 H2928 0.950 . S
C2905 C2922 1.574 . S
C2905 C2924 1.368 . S
C2905 H2929 0.949 . S
H2906 C2910 0.949 . S
C2907 C2908 1.349 . S
C2907 C2909 1.327 . S
C2907 H2930 0.950 . S
C2908 C2907 1.349 . S
C2908 C2920 1.349 . S
C2909 C2907 1.327 . S
C2909 C2925 1.429 . S
C2909 H2931 0.950 . S
C2910 H2906 0.949 . S
C2910 C2918 1.574 . S
C2910 C2926 1.368 . S
H2911 C2919 0.950 . S
H2912 C2917 0.950 . S
H2913 C2918 0.949 . S
H2914 C2920 0.950 . S
H2915 C2921 0.950 . S
H2916 C2922 0.949 . S
C2917 H2912 0.950 . S
C2917 C2919 1.327 . S
C2917 C2923 1.429 . S
C2918 C2910 1.574 . S
C2918 H2913 0.949 . S
C2918 C2924 1.368 . S
C2919 C2903 1.349 . S
C2919 H2911 0.950 . S
C2919 C2917 1.327 . S
C2920 C2908 1.349 . S
C2920 H2914 0.950 . S
C2920 C2921 1.327 . S
C2921 H2915 0.950 . S
C2921 C2920 1.327 . S
C2921 C2925 1.429 . S
C2922 C2905 1.574 . S
C2922 H2916 0.949 . S
C2922 C2926 1.368 . S
C2923 C2904 1.429 . S
C2923 C2917 1.429 . S
C2923 C2924 1.523 . S
C2924 C2905 1.368 . S
C2924 C2918 1.368 . S
C2924 C2923 1.523 . S
C2925 C2909 1.429 . S
C2925 C2921 1.429 . S
C2925 C2926 1.523 . S
C2926 C2910 1.368 . S
C2926 C2922 1.368 . S
C2926 C2925 1.523 . S
H2927 C2902 0.950 . S
H2928 C2904 0.950 . S
H2929 C2905 0.949 . S
H2930 C2907 0.950 . S
H2931 C2909 0.950 . S
C2932 C2933 1.349 . S
C2932 C2934 1.327 . S
C2932 H2957 0.950 . S
C2933 C2932 1.349 . S
C2933 C2949 1.349 . S
C2934 C2932 1.327 . S
C2934 C2953 1.429 . S
C2934 H2958 0.950 . S
C2935 C2952 1.574 . S
C2935 C2954 1.368 . S
C2935 H2959 0.949 . S
H2936 C2940 0.949 . S
C2937 C2938 1.349 . S
C2937 C2939 1.327 . S
C2937 H2960 0.950 . S
C2938 C2937 1.349 . S
C2938 C2950 1.349 . S
C2939 C2937 1.327 . S
C2939 C2955 1.429 . S
C2939 H2961 0.950 . S
C2940 H2936 0.949 . S
C2940 C2948 1.574 . S
C2940 C2956 1.368 . S
H2941 C2949 0.950 . S
H2942 C2947 0.950 . S
H2943 C2948 0.949 . S
H2944 C2950 0.950 . S
H2945 C2951 0.950 . S
H2946 C2952 0.949 . S
C2947 H2942 0.950 . S
C2947 C2949 1.327 . S
C2947 C2953 1.429 . S
C2948 C2940 1.574 . S
C2948 H2943 0.949 . S
C2948 C2954 1.368 . S
C2949 C2933 1.349 . S
C2949 H2941 0.950 . S
C2949 C2947 1.327 . S
C2950 C2938 1.349 . S
C2950 H2944 0.950 . S
C2950 C2951 1.327 . S
C2951 H2945 0.950 . S
C2951 C2950 1.327 . S
C2951 C2955 1.429 . S
C2952 C2935 1.574 . S
C2952 H2946 0.949 . S
C2952 C2956 1.368 . S
C2953 C2934 1.429 . S
C2953 C2947 1.429 . S
C2953 C2954 1.523 . S
C2954 C2935 1.368 . S
C2954 C2948 1.368 . S
C2954 C2953 1.523 . S
C2955 C2939 1.429 . S
C2955 C2951 1.429 . S
C2955 C2956 1.523 . S
C2956 C2940 1.368 . S
C2956 C2952 1.368 . S
C2956 C2955 1.523 . S
H2957 C2932 0.950 . S
H2958 C2934 0.950 . S
H2959 C2935 0.949 . S
H2960 C2937 0.950 . S
H2961 C2939 0.950 . S
C2962 C2963 1.349 . S
C2962 C2964 1.327 . S
C2962 H2987 0.950 . S
C2963 C2962 1.349 . S
C2963 C2979 1.349 . S
C2964 C2962 1.327 . S
C2964 C2983 1.429 . S
C2964 H2988 0.950 . S
C2965 C2982 1.574 . S
C2965 C2984 1.368 . S
C2965 H2989 0.949 . S
H2966 C2970 0.949 . S
C2967 C2968 1.349 . S
C2967 C2969 1.327 . S
C2967 H2990 0.950 . S
C2968 C2967 1.349 . S
C2968 C2980 1.349 . S
C2969 C2967 1.327 . S
C2969 C2985 1.429 . S
C2969 H2991 0.950 . S
C2970 H2966 0.949 . S
C2970 C2978 1.574 . S
C2970 C2986 1.368 . S
H2971 C2979 0.950 . S
H2972 C2977 0.950 . S
H2973 C2978 0.949 . S
H2974 C2980 0.950 . S
H2975 C2981 0.950 . S
H2976 C2982 0.949 . S
C2977 H2972 0.950 . S
C2977 C2979 1.327 . S
C2977 C2983 1.429 . S
C2978 C2970 1.574 . S
C2978 H2973 0.949 . S
C2978 C2984 1.368 . S
C2979 C2963 1.349 . S
C2979 H2971 0.950 . S
C2979 C2977 1.327 . S
C2980 C2968 1.349 . S
C2980 H2974 0.950 . S
C2980 C2981 1.327 . S
C2981 H2975 0.950 . S
C2981 C2980 1.327 . S
C2981 C2985 1.429 . S
C2982 C2965 1.574 . S
C2982 H2976 0.949 . S
C2982 C2986 1.368 . S
C2983 C2964 1.429 . S
C2983 C2977 1.429 . S
C2983 C2984 1.523 . S
C2984 C2965 1.368 . S
C2984 C2978 1.368 . S
C2984 C2983 1.523 . S
C2985 C2969 1.429 . S
C2985 C2981 1.429 . S
C2985 C2986 1.523 . S
C2986 C2970 1.368 . S
C2986 C2982 1.368 . S
C2986 C2985 1.523 . S
H2987 C2962 0.950 . S
H2988 C2964 0.950 . S
H2989 C2965 0.949 . S
H2990 C2967 0.950 . S
H2991 C2969 0.950 . S
C2992 C2993 1.349 . S
C2992 C2994 1.327 . S
C2992 H3017 0.950 . S
C2993 C2992 1.349 . S
C2993 C3009 1.349 . S
C2994 C2992 1.327 . S
C2994 C3013 1.429 . S
C2994 H3018 0.950 . S
C2995 C3012 1.574 . S
C2995 C3014 1.368 . S
C2995 H3019 0.949 . S
H2996 C3000 0.949 . S
C2997 C2998 1.349 . S
C2997 C2999 1.327 1_455 S
C2997 H3020 0.950 1_455 S
C2998 C2997 1.349 . S
C2998 C3010 1.349 . S
C2999 C2997 1.327 1_655 S
C2999 C3015 1.429 1_655 S
C2999 H3021 0.950 . S
C3000 H2996 0.949 . S
C3000 C3008 1.574 1_455 S
C3000 C3016 1.368 1_455 S
H3001 C3009 0.950 . S
H3002 C3007 0.950 . S
H3003 C3008 0.949 1_455 S
H3004 C3010 0.950 . S
H3005 C3011 0.950 . S
H3006 C3012 0.949 . S
C3007 H3002 0.950 . S
C3007 C3009 1.327 . S
C3007 C3013 1.429 . S
C3008 C3000 1.574 1_655 S
C3008 H3003 0.949 1_655 S
C3008 C3014 1.368 . S
C3009 C2993 1.349 . S
C3009 H3001 0.950 . S
C3009 C3007 1.327 . S
C3010 C2998 1.349 . S
C3010 H3004 0.950 . S
C3010 C3011 1.327 . S
C3011 H3005 0.950 . S
C3011 C3010 1.327 . S
C3011 C3015 1.429 . S
C3012 C2995 1.574 . S
C3012 H3006 0.949 . S
C3012 C3016 1.368 . S
C3013 C2994 1.429 . S
C3013 C3007 1.429 . S
C3013 C3014 1.523 . S
C3014 C2995 1.368 . S
C3014 C3008 1.368 . S
C3014 C3013 1.523 . S
C3015 C2999 1.429 1_455 S
C3015 C3011 1.429 . S
C3015 C3016 1.523 1_455 S
C3016 C3000 1.368 1_655 S
C3016 C3012 1.368 . S
C3016 C3015 1.523 1_655 S
H3017 C2992 0.950 . S
H3018 C2994 0.950 . S
H3019 C2995 0.949 . S
H3020 C2997 0.950 1_655 S
H3021 C2999 0.950 . S
C3022 C3023 1.349 . S
C3022 C3024 1.327 . S
C3022 H3047 0.950 . S
C3023 C3022 1.349 . S
C3023 C3039 1.349 . S
C3024 C3022 1.327 . S
C3024 C3043 1.429 . S
C3024 H3048 0.950 . S
C3025 C3042 1.574 . S
C3025 C3044 1.368 . S
C3025 H3049 0.949 . S
H3026 C3030 0.949 . S
C3027 C3028 1.349 . S
C3027 C3029 1.327 . S
C3027 H3050 0.950 . S
C3028 C3027 1.349 . S
C3028 C3040 1.349 . S
C3029 C3027 1.327 . S
C3029 C3045 1.429 . S
C3029 H3051 0.950 . S
C3030 H3026 0.949 . S
C3030 C3038 1.574 . S
C3030 C3046 1.368 . S
H3031 C3039 0.950 . S
H3032 C3037 0.950 . S
H3033 C3038 0.949 . S
H3034 C3040 0.950 . S
H3035 C3041 0.950 . S
H3036 C3042 0.949 . S
C3037 H3032 0.950 . S
C3037 C3039 1.327 . S
C3037 C3043 1.429 . S
C3038 C3030 1.574 . S
C3038 H3033 0.949 . S
C3038 C3044 1.368 . S
C3039 C3023 1.349 . S
C3039 H3031 0.950 . S
C3039 C3037 1.327 . S
C3040 C3028 1.349 . S
C3040 H3034 0.950 . S
C3040 C3041 1.327 . S
C3041 H3035 0.950 . S
C3041 C3040 1.327 . S
C3041 C3045 1.429 . S
C3042 C3025 1.574 . S
C3042 H3036 0.949 . S
C3042 C3046 1.368 . S
C3043 C3024 1.429 . S
C3043 C3037 1.429 . S
C3043 C3044 1.523 . S
C3044 C3025 1.368 . S
C3044 C3038 1.368 . S
C3044 C3043 1.523 . S
C3045 C3029 1.429 . S
C3045 C3041 1.429 . S
C3045 C3046 1.523 . S
C3046 C3030 1.368 . S
C3046 C3042 1.368 . S
C3046 C3045 1.523 . S
H3047 C3022 0.950 . S
H3048 C3024 0.950 . S
H3049 C3025 0.949 . S
H3050 C3027 0.950 . S
H3051 C3029 0.950 . S
C3052 C3053 1.349 . S
C3052 C3054 1.327 . S
C3052 H3077 0.950 . S
C3053 C3052 1.349 . S
C3053 C3069 1.349 . S
C3054 C3052 1.327 . S
C3054 C3073 1.429 . S
C3054 H3078 0.950 . S
C3055 C3072 1.574 . S
C3055 C3074 1.368 . S
C3055 H3079 0.949 . S
H3056 C3060 0.949 . S
C3057 C3058 1.349 . S
C3057 C3059 1.327 . S
C3057 H3080 0.950 . S
C3058 C3057 1.349 . S
C3058 C3070 1.349 . S
C3059 C3057 1.327 . S
C3059 C3075 1.429 . S
C3059 H3081 0.950 . S
C3060 H3056 0.949 . S
C3060 C3068 1.574 . S
C3060 C3076 1.368 . S
H3061 C3069 0.950 . S
H3062 C3067 0.950 . S
H3063 C3068 0.949 . S
H3064 C3070 0.950 . S
H3065 C3071 0.950 . S
H3066 C3072 0.949 . S
C3067 H3062 0.950 . S
C3067 C3069 1.327 . S
C3067 C3073 1.429 . S
C3068 C3060 1.574 . S
C3068 H3063 0.949 . S
C3068 C3074 1.368 . S
C3069 C3053 1.349 . S
C3069 H3061 0.950 . S
C3069 C3067 1.327 . S
C3070 C3058 1.349 . S
C3070 H3064 0.950 . S
C3070 C3071 1.327 . S
C3071 H3065 0.950 . S
C3071 C3070 1.327 . S
C3071 C3075 1.429 . S
C3072 C3055 1.574 . S
C3072 H3066 0.949 . S
C3072 C3076 1.368 . S
C3073 C3054 1.429 . S
C3073 C3067 1.429 . S
C3073 C3074 1.523 . S
C3074 C3055 1.368 . S
C3074 C3068 1.368 . S
C3074 C3073 1.523 . S
C3075 C3059 1.429 . S
C3075 C3071 1.429 . S
C3075 C3076 1.523 . S
C3076 C3060 1.368 . S
C3076 C3072 1.368 . S
C3076 C3075 1.523 . S
H3077 C3052 0.950 . S
H3078 C3054 0.950 . S
H3079 C3055 0.949 . S
H3080 C3057 0.950 . S
H3081 C3059 0.950 . S
C3082 C3083 1.349 . S
C3082 C3084 1.327 . S
C3082 H3107 0.950 . S
C3083 C3082 1.349 . S
C3083 C3099 1.349 . S
C3084 C3082 1.327 . S
C3084 C3103 1.429 . S
C3084 H3108 0.950 . S
C3085 C3102 1.574 . S
C3085 C3104 1.368 . S
C3085 H3109 0.949 . S
H3086 C3090 0.949 . S
C3087 C3088 1.349 . S
C3087 C3089 1.327 . S
C3087 H3110 0.950 . S
C3088 C3087 1.349 . S
C3088 C3100 1.349 . S
C3089 C3087 1.327 . S
C3089 C3105 1.429 . S
C3089 H3111 0.950 . S
C3090 H3086 0.949 . S
C3090 C3098 1.574 . S
C3090 C3106 1.368 . S
H3091 C3099 0.950 . S
H3092 C3097 0.950 . S
H3093 C3098 0.949 . S
H3094 C3100 0.950 . S
H3095 C3101 0.950 . S
H3096 C3102 0.949 . S
C3097 H3092 0.950 . S
C3097 C3099 1.327 . S
C3097 C3103 1.429 . S
C3098 C3090 1.574 . S
C3098 H3093 0.949 . S
C3098 C3104 1.368 . S
C3099 C3083 1.349 . S
C3099 H3091 0.950 . S
C3099 C3097 1.327 . S
C3100 C3088 1.349 . S
C3100 H3094 0.950 . S
C3100 C3101 1.327 . S
C3101 H3095 0.950 . S
C3101 C3100 1.327 . S
C3101 C3105 1.429 . S
C3102 C3085 1.574 . S
C3102 H3096 0.949 . S
C3102 C3106 1.368 . S
C3103 C3084 1.429 . S
C3103 C3097 1.429 . S
C3103 C3104 1.523 . S
C3104 C3085 1.368 . S
C3104 C3098 1.368 . S
C3104 C3103 1.523 . S
C3105 C3089 1.429 . S
C3105 C3101 1.429 . S
C3105 C3106 1.523 . S
C3106 C3090 1.368 . S
C3106 C3102 1.368 . S
C3106 C3105 1.523 . S
H3107 C3082 0.950 . S
H3108 C3084 0.950 . S
H3109 C3085 0.949 . S
H3110 C3087 0.950 . S
H3111 C3089 0.950 . S
C3112 C3113 1.349 . S
C3112 C3114 1.327 . S
C3112 H3137 0.950 . S
C3113 C3112 1.349 . S
C3113 C3129 1.349 . S
C3114 C3112 1.327 . S
C3114 C3133 1.429 . S
C3114 H3138 0.950 . S
C3115 C3132 1.574 . S
C3115 C3134 1.368 . S
C3115 H3139 0.949 . S
H3116 C3120 0.949 . S
C3117 C3118 1.349 . S
C3117 C3119 1.327 1_455 S
C3117 H3140 0.950 1_455 S
C3118 C3117 1.349 . S
C3118 C3130 1.349 . S
C3119 C3117 1.327 1_655 S
C3119 C3135 1.429 1_655 S
C3119 H3141 0.950 . S
C3120 H3116 0.949 . S
C3120 C3128 1.585 . S
C3120 C3136 1.368 1_455 S
H3121 C3129 0.950 . S
H3122 C3127 0.950 . S
H3123 C3128 0.967 . S
H3124 C3130 0.950 . S
H3125 C3131 0.950 . S
H3126 C3132 0.949 . S
C3127 H3122 0.950 . S
C3127 C3129 1.327 . S
C3127 C3133 1.429 . S
C3128 C3120 1.585 . S
C3128 H3123 0.967 . S
C3128 C3134 1.338 1_455 S
C3129 C3113 1.349 . S
C3129 H3121 0.950 . S
C3129 C3127 1.327 . S
C3130 C3118 1.349 . S
C3130 H3124 0.950 . S
C3130 C3131 1.327 . S
C3131 H3125 0.950 . S
C3131 C3130 1.327 . S
C3131 C3135 1.429 . S
C3132 C3115 1.574 . S
C3132 H3126 0.949 . S
C3132 C3136 1.368 . S
C3133 C3114 1.429 . S
C3133 C3127 1.429 . S
C3133 C3134 1.523 . S
C3134 C3115 1.368 . S
C3134 C3128 1.338 1_655 S
C3134 C3133 1.523 . S
C3135 C3119 1.429 1_455 S
C3135 C3131 1.429 . S
C3135 C3136 1.523 1_455 S
C3136 C3120 1.368 1_655 S
C3136 C3132 1.368 . S
C3136 C3135 1.523 1_655 S
H3137 C3112 0.950 . S
H3138 C3114 0.950 . S
H3139 C3115 0.949 . S
H3140 C3117 0.950 1_655 S
H3141 C3119 0.950 . S
C3142 C3143 1.349 . S
C3142 C3144 1.327 . S
C3142 H3167 0.950 . S
C3143 C3142 1.349 . S
C3143 C3159 1.349 . S
C3144 C3142 1.327 . S
C3144 C3163 1.429 . S
C3144 H3168 0.950 . S
C3145 C3162 1.574 . S
C3145 C3164 1.368 . S
C3145 H3169 0.949 . S
H3146 C3150 0.949 . S
C3147 C3148 1.349 . S
C3147 C3149 1.327 . S
C3147 H3170 0.950 . S
C3148 C3147 1.349 . S
C3148 C3160 1.349 . S
C3149 C3147 1.327 . S
C3149 C3165 1.429 . S
C3149 H3171 0.950 . S
C3150 H3146 0.949 . S
C3150 C3158 1.574 . S
C3150 C3166 1.368 . S
H3151 C3159 0.950 . S
H3152 C3157 0.950 . S
H3153 C3158 0.949 . S
H3154 C3160 0.950 . S
H3155 C3161 0.950 . S
H3156 C3162 0.949 . S
C3157 H3152 0.950 . S
C3157 C3159 1.327 . S
C3157 C3163 1.429 . S
C3158 C3150 1.574 . S
C3158 H3153 0.949 . S
C3158 C3164 1.368 . S
C3159 C3143 1.349 . S
C3159 H3151 0.950 . S
C3159 C3157 1.327 . S
C3160 C3148 1.349 . S
C3160 H3154 0.950 . S
C3160 C3161 1.327 . S
C3161 H3155 0.950 . S
C3161 C3160 1.327 . S
C3161 C3165 1.429 . S
C3162 C3145 1.574 . S
C3162 H3156 0.949 . S
C3162 C3166 1.368 . S
C3163 C3144 1.429 . S
C3163 C3157 1.429 . S
C3163 C3164 1.523 . S
C3164 C3145 1.368 . S
C3164 C3158 1.368 . S
C3164 C3163 1.523 . S
C3165 C3149 1.429 . S
C3165 C3161 1.429 . S
C3165 C3166 1.523 . S
C3166 C3150 1.368 . S
C3166 C3162 1.368 . S
C3166 C3165 1.523 . S
H3167 C3142 0.950 . S
H3168 C3144 0.950 . S
H3169 C3145 0.949 . S
H3170 C3147 0.950 . S
H3171 C3149 0.950 . S
C3172 C3173 1.349 . S
C3172 C3174 1.327 . S
C3172 H3197 0.950 . S
C3173 C3172 1.349 . S
C3173 C3189 1.349 . S
C3174 C3172 1.327 . S
C3174 C3193 1.429 . S
C3174 H3198 0.950 . S
C3175 C3192 1.574 . S
C3175 C3194 1.368 . S
C3175 H3199 0.949 . S
H3176 C3180 0.949 . S
C3177 C3178 1.349 . S
C3177 C3179 1.327 . S
C3177 H3200 0.950 . S
C3178 C3177 1.349 . S
C3178 C3190 1.349 . S
C3179 C3177 1.327 . S
C3179 C3195 1.429 . S
C3179 H3201 0.950 . S
C3180 H3176 0.949 . S
C3180 C3188 1.574 . S
C3180 C3196 1.368 . S
H3181 C3189 0.950 . S
H3182 C3187 0.950 . S
H3183 C3188 0.949 . S
H3184 C3190 0.950 . S
H3185 C3191 0.950 . S
H3186 C3192 0.949 . S
C3187 H3182 0.950 . S
C3187 C3189 1.327 . S
C3187 C3193 1.429 . S
C3188 C3180 1.574 . S
C3188 H3183 0.949 . S
C3188 C3194 1.368 . S
C3189 C3173 1.349 . S
C3189 H3181 0.950 . S
C3189 C3187 1.327 . S
C3190 C3178 1.349 . S
C3190 H3184 0.950 . S
C3190 C3191 1.327 . S
C3191 H3185 0.950 . S
C3191 C3190 1.327 . S
C3191 C3195 1.429 . S
C3192 C3175 1.574 . S
C3192 H3186 0.949 . S
C3192 C3196 1.368 . S
C3193 C3174 1.429 . S
C3193 C3187 1.429 . S
C3193 C3194 1.523 . S
C3194 C3175 1.368 . S
C3194 C3188 1.368 . S
C3194 C3193 1.523 . S
C3195 C3179 1.429 . S
C3195 C3191 1.429 . S
C3195 C3196 1.523 . S
C3196 C3180 1.368 . S
C3196 C3192 1.368 . S
C3196 C3195 1.523 . S
H3197 C3172 0.950 . S
H3198 C3174 0.950 . S
H3199 C3175 0.949 . S
H3200 C3177 0.950 . S
H3201 C3179 0.950 . S
C3202 C3203 1.349 . S
C3202 C3204 1.327 . S
C3202 H3227 0.950 . S
C3203 C3202 1.349 . S
C3203 C3219 1.349 . S
C3204 C3202 1.327 . S
C3204 C3223 1.429 . S
C3204 H3228 0.950 . S
C3205 C3222 1.574 . S
C3205 C3224 1.368 . S
C3205 H3229 0.949 . S
H3206 C3210 0.949 . S
C3207 C3208 1.349 . S
C3207 C3209 1.327 . S
C3207 H3230 0.950 . S
C3208 C3207 1.349 . S
C3208 C3220 1.349 . S
C3209 C3207 1.327 . S
C3209 C3225 1.429 . S
C3209 H3231 0.950 . S
C3210 H3206 0.949 . S
C3210 C3218 1.574 . S
C3210 C3226 1.368 . S
H3211 C3219 0.950 . S
H3212 C3217 0.950 . S
H3213 C3218 0.949 . S
H3214 C3220 0.950 . S
H3215 C3221 0.950 . S
H3216 C3222 0.949 . S
C3217 H3212 0.950 . S
C3217 C3219 1.327 . S
C3217 C3223 1.429 . S
C3218 C3210 1.574 . S
C3218 H3213 0.949 . S
C3218 C3224 1.368 . S
C3219 C3203 1.349 . S
C3219 H3211 0.950 . S
C3219 C3217 1.327 . S
C3220 C3208 1.349 . S
C3220 H3214 0.950 . S
C3220 C3221 1.327 . S
C3221 H3215 0.950 . S
C3221 C3220 1.327 . S
C3221 C3225 1.429 . S
C3222 C3205 1.574 . S
C3222 H3216 0.949 . S
C3222 C3226 1.368 . S
C3223 C3204 1.429 . S
C3223 C3217 1.429 . S
C3223 C3224 1.523 . S
C3224 C3205 1.368 . S
C3224 C3218 1.368 . S
C3224 C3223 1.523 . S
C3225 C3209 1.429 . S
C3225 C3221 1.429 . S
C3225 C3226 1.523 . S
C3226 C3210 1.368 . S
C3226 C3222 1.368 . S
C3226 C3225 1.523 . S
H3227 C3202 0.950 . S
H3228 C3204 0.950 . S
H3229 C3205 0.949 . S
H3230 C3207 0.950 . S
H3231 C3209 0.950 . S
C3232 C3233 1.349 . S
C3232 C3234 1.327 . S
C3232 H3257 1.001 . S
C3233 C3232 1.349 . S
C3233 C3249 1.349 . S
C3234 C3232 1.327 . S
C3234 C3253 1.429 . S
C3234 H3258 0.950 . S
C3235 C3252 1.574 . S
C3235 C3254 1.368 . S
C3235 H3259 0.949 . S
H3236 C3240 0.982 . S
C3237 C3238 1.349 1_565 S
C3237 C3239 1.327 . S
C3237 H3260 0.950 . S
C3238 C3237 1.349 1_545 S
C3238 C3250 1.349 . S
C3239 C3237 1.327 . S
C3239 C3255 1.429 . S
C3239 H3261 0.950 . S
C3240 H3236 0.982 . S
C3240 C3248 1.557 1_545 S
C3240 C3256 1.350 1_545 S
H3241 C3249 0.950 . S
H3242 C3247 0.950 . S
H3243 C3248 0.956 . S
H3244 C3250 0.950 . S
H3245 C3251 0.950 . S
H3246 C3252 0.949 . S
C3247 H3242 0.950 . S
C3247 C3249 1.327 . S
C3247 C3253 1.429 . S
C3248 C3240 1.557 1_565 S
C3248 H3243 0.956 . S
C3248 C3254 1.368 . S
C3249 C3233 1.349 . S
C3249 H3241 0.950 . S
C3249 C3247 1.327 . S
C3250 C3238 1.349 . S
C3250 H3244 0.950 . S
C3250 C3251 1.327 . S
C3251 H3245 0.950 . S
C3251 C3250 1.327 . S
C3251 C3255 1.429 1_545 S
C3252 C3235 1.574 . S
C3252 H3246 0.949 . S
C3252 C3256 1.368 . S
C3253 C3234 1.429 . S
C3253 C3247 1.429 . S
C3253 C3254 1.523 . S
C3254 C3235 1.368 . S
C3254 C3248 1.368 . S
C3254 C3253 1.523 . S
C3255 C3239 1.429 . S
C3255 C3251 1.429 1_565 S
C3255 C3256 1.523 . S
C3256 C3240 1.350 1_565 S
C3256 C3252 1.368 . S
C3256 C3255 1.523 . S
H3257 C3232 1.001 . S
H3258 C3234 0.950 . S
H3259 C3235 0.949 . S
H3260 C3237 0.950 . S
H3261 C3239 0.950 . S
C3262 C3263 1.349 . S
C3262 C3264 1.327 . S
C3262 H3287 0.950 . S
C3263 C3262 1.349 . S
C3263 C3279 1.349 1_556 S
C3264 C3262 1.327 . S
C3264 C3283 1.442 . S
C3264 H3288 0.950 . S
C3265 C3282 1.574 . S
C3265 C3284 1.405 . S
C3265 H3289 0.949 . S
H3266 C3270 0.949 . S
C3267 C3268 1.349 . S
C3267 C3269 1.327 . S
C3267 H3290 0.950 . S
C3268 C3267 1.349 . S
C3268 C3280 1.349 1_554 S
C3269 C3267 1.327 . S
C3269 C3285 1.429 . S
C3269 H3291 0.950 . S
C3270 H3266 0.949 . S
C3270 C3278 1.574 . S
C3270 C3286 1.368 1_556 S
H3271 C3279 0.950 . S
H3272 C3277 0.950 . S
H3273 C3278 0.949 . S
H3274 C3280 0.950 . S
H3275 C3281 0.950 . S
H3276 C3282 0.949 . S
C3277 H3272 0.950 . S
C3277 C3279 1.327 . S
C3277 C3283 1.419 1_554 S
C3278 C3270 1.574 . S
C3278 H3273 0.949 . S
C3278 C3284 1.340 1_556 S
C3279 C3263 1.349 1_554 S
C3279 H3271 0.950 . S
C3279 C3277 1.327 . S
C3280 C3268 1.349 1_556 S
C3280 H3274 0.950 . S
C3280 C3281 1.327 . S
C3281 H3275 0.950 . S
C3281 C3280 1.327 . S
C3281 C3285 1.429 1_556 S
C3282 C3265 1.574 . S
C3282 H3276 0.949 . S
C3282 C3286 1.368 . S
C3283 C3264 1.442 . S
C3283 C3277 1.419 1_556 S
C3283 C3284 1.511 1_556 S
C3284 C3265 1.405 . S
C3284 C3278 1.340 1_554 S
C3284 C3283 1.511 1_554 S
C3285 C3269 1.429 . S
C3285 C3281 1.429 1_554 S
C3285 C3286 1.523 . S
C3286 C3270 1.368 1_554 S
C3286 C3282 1.368 . S
C3286 C3285 1.523 . S
H3287 C3262 0.950 . S
H3288 C3264 0.950 . S
H3289 C3265 0.949 . S
H3290 C3267 0.950 . S
H3291 C3269 0.950 . S
C3292 C3293 1.349 . S
C3292 C3294 1.327 . S
C3292 H3317 0.950 . S
C3293 C3292 1.349 . S
C3293 C3309 1.349 . S
C3294 C3292 1.327 . S
C3294 C3313 1.429 . S
C3294 H3318 0.950 . S
C3295 C3312 1.574 . S
C3295 C3314 1.368 . S
C3295 H3319 0.949 . S
H3296 C3300 0.949 . S
C3297 C3298 1.349 . S
C3297 C3299 1.327 . S
C3297 H3320 0.950 . S
C3298 C3297 1.349 . S
C3298 C3310 1.349 . S
C3299 C3297 1.327 . S
C3299 C3315 1.429 . S
C3299 H3321 0.950 . S
C3300 H3296 0.949 . S
C3300 C3308 1.574 . S
C3300 C3316 1.368 . S
H3301 C3309 0.950 . S
H3302 C3307 0.950 . S
H3303 C3308 0.949 . S
H3304 C3310 0.950 . S
H3305 C3311 0.950 . S
H3306 C3312 0.949 . S
C3307 H3302 0.950 . S
C3307 C3309 1.327 . S
C3307 C3313 1.429 . S
C3308 C3300 1.574 . S
C3308 H3303 0.949 . S
C3308 C3314 1.368 . S
C3309 C3293 1.349 . S
C3309 H3301 0.950 . S
C3309 C3307 1.327 . S
C3310 C3298 1.349 . S
C3310 H3304 0.950 . S
C3310 C3311 1.327 . S
C3311 H3305 0.950 . S
C3311 C3310 1.327 . S
C3311 C3315 1.429 . S
C3312 C3295 1.574 . S
C3312 H3306 0.949 . S
C3312 C3316 1.368 . S
C3313 C3294 1.429 . S
C3313 C3307 1.429 . S
C3313 C3314 1.523 . S
C3314 C3295 1.368 . S
C3314 C3308 1.368 . S
C3314 C3313 1.523 . S
C3315 C3299 1.429 . S
C3315 C3311 1.429 . S
C3315 C3316 1.523 . S
C3316 C3300 1.368 . S
C3316 C3312 1.368 . S
C3316 C3315 1.523 . S
H3317 C3292 0.950 . S
H3318 C3294 0.950 . S
H3319 C3295 0.949 . S
H3320 C3297 0.950 . S
H3321 C3299 0.950 . S
C3322 C3323 1.349 . S
C3322 C3324 1.327 . S
C3322 H3347 0.950 . S
C3323 C3322 1.349 . S
C3323 C3339 1.349 . S
C3324 C3322 1.327 . S
C3324 C3343 1.429 . S
C3324 H3348 0.950 . S
C3325 C3342 1.574 . S
C3325 C3344 1.368 . S
C3325 H3349 0.949 . S
H3326 C3330 0.949 . S
C3327 C3328 1.349 . S
C3327 C3329 1.327 . S
C3327 H3350 0.950 . S
C3328 C3327 1.349 . S
C3328 C3340 1.349 . S
C3329 C3327 1.327 . S
C3329 C3345 1.429 . S
C3329 H3351 0.950 . S
C3330 H3326 0.949 . S
C3330 C3338 1.574 . S
C3330 C3346 1.368 . S
H3331 C3339 0.950 . S
H3332 C3337 0.950 . S
H3333 C3338 0.949 . S
H3334 C3340 0.950 . S
H3335 C3341 0.950 . S
H3336 C3342 0.949 . S
C3337 H3332 0.950 . S
C3337 C3339 1.327 . S
C3337 C3343 1.429 . S
C3338 C3330 1.574 . S
C3338 H3333 0.949 . S
C3338 C3344 1.368 . S
C3339 C3323 1.349 . S
C3339 H3331 0.950 . S
C3339 C3337 1.327 . S
C3340 C3328 1.349 . S
C3340 H3334 0.950 . S
C3340 C3341 1.327 . S
C3341 H3335 0.950 . S
C3341 C3340 1.327 . S
C3341 C3345 1.429 . S
C3342 C3325 1.574 . S
C3342 H3336 0.949 . S
C3342 C3346 1.368 . S
C3343 C3324 1.429 . S
C3343 C3337 1.429 . S
C3343 C3344 1.523 . S
C3344 C3325 1.368 . S
C3344 C3338 1.368 . S
C3344 C3343 1.523 . S
C3345 C3329 1.429 . S
C3345 C3341 1.429 . S
C3345 C3346 1.523 . S
C3346 C3330 1.368 . S
C3346 C3342 1.368 . S
C3346 C3345 1.523 . S
H3347 C3322 0.950 . S
H3348 C3324 0.950 . S
H3349 C3325 0.949 . S
H3350 C3327 0.950 . S
H3351 C3329 0.950 . S
C3352 C3353 1.349 . S
C3352 C3354 1.327 . S
C3352 H3377 0.950 . S
C3353 C3352 1.349 . S
C3353 C3369 1.349 . S
C3354 C3352 1.327 . S
C3354 C3373 1.429 . S
C3354 H3378 0.950 . S
C3355 C3372 1.574 . S
C3355 C3374 1.368 . S
C3355 H3379 0.949 . S
H3356 C3360 0.949 . S
C3357 C3358 1.349 . S
C3357 C3359 1.327 . S
C3357 H3380 0.950 . S
C3358 C3357 1.349 . S
C3358 C3370 1.349 . S
C3359 C3357 1.327 . S
C3359 C3375 1.429 . S
C3359 H3381 0.950 . S
C3360 H3356 0.949 . S
C3360 C3368 1.574 . S
C3360 C3376 1.368 . S
H3361 C3369 0.950 . S
H3362 C3367 0.950 . S
H3363 C3368 0.949 . S
H3364 C3370 0.950 . S
H3365 C3371 0.950 . S
H3366 C3372 0.949 . S
C3367 H3362 0.950 . S
C3367 C3369 1.327 . S
C3367 C3373 1.429 . S
C3368 C3360 1.574 . S
C3368 H3363 0.949 . S
C3368 C3374 1.368 . S
C3369 C3353 1.349 . S
C3369 H3361 0.950 . S
C3369 C3367 1.327 . S
C3370 C3358 1.349 . S
C3370 H3364 0.950 . S
C3370 C3371 1.327 . S
C3371 H3365 0.950 . S
C3371 C3370 1.327 . S
C3371 C3375 1.429 . S
C3372 C3355 1.574 . S
C3372 H3366 0.949 . S
C3372 C3376 1.368 . S
C3373 C3354 1.429 . S
C3373 C3367 1.429 . S
C3373 C3374 1.523 . S
C3374 C3355 1.368 . S
C3374 C3368 1.368 . S
C3374 C3373 1.523 . S
C3375 C3359 1.429 . S
C3375 C3371 1.429 . S
C3375 C3376 1.523 . S
C3376 C3360 1.368 . S
C3376 C3372 1.368 . S
C3376 C3375 1.523 . S
H3377 C3352 0.950 . S
H3378 C3354 0.950 . S
H3379 C3355 0.949 . S
H3380 C3357 0.950 . S
H3381 C3359 0.950 . S
C3382 C3383 1.349 . S
C3382 C3384 1.327 . S
C3382 H3407 0.950 . S
C3383 C3382 1.349 . S
C3383 C3399 1.349 . S
C3384 C3382 1.327 . S
C3384 C3403 1.429 . S
C3384 H3408 0.950 . S
C3385 C3402 1.574 . S
C3385 C3404 1.368 . S
C3385 H3409 0.949 . S
H3386 C3390 0.949 . S
C3387 C3388 1.349 . S
C3387 C3389 1.327 . S
C3387 H3410 0.950 . S
C3388 C3387 1.349 . S
C3388 C3400 1.349 . S
C3389 C3387 1.327 . S
C3389 C3405 1.429 . S
C3389 H3411 0.950 . S
C3390 H3386 0.949 . S
C3390 C3398 1.574 . S
C3390 C3406 1.368 . S
H3391 C3399 0.950 . S
H3392 C3397 0.950 . S
H3393 C3398 0.949 . S
H3394 C3400 0.950 . S
H3395 C3401 0.950 . S
H3396 C3402 0.949 . S
C3397 H3392 0.950 . S
C3397 C3399 1.327 . S
C3397 C3403 1.429 . S
C3398 C3390 1.574 . S
C3398 H3393 0.949 . S
C3398 C3404 1.368 . S
C3399 C3383 1.349 . S
C3399 H3391 0.950 . S
C3399 C3397 1.327 . S
C3400 C3388 1.349 . S
C3400 H3394 0.950 . S
C3400 C3401 1.327 . S
C3401 H3395 0.950 . S
C3401 C3400 1.327 . S
C3401 C3405 1.429 . S
C3402 C3385 1.574 . S
C3402 H3396 0.949 . S
C3402 C3406 1.368 . S
C3403 C3384 1.429 . S
C3403 C3397 1.429 . S
C3403 C3404 1.523 . S
C3404 C3385 1.368 . S
C3404 C3398 1.368 . S
C3404 C3403 1.523 . S
C3405 C3389 1.429 . S
C3405 C3401 1.429 . S
C3405 C3406 1.523 . S
C3406 C3390 1.368 . S
C3406 C3402 1.368 . S
C3406 C3405 1.523 . S
H3407 C3382 0.950 . S
H3408 C3384 0.950 . S
H3409 C3385 0.949 . S
H3410 C3387 0.950 . S
H3411 C3389 0.950 . S
C3412 C3413 1.349 . S
C3412 C3414 1.327 . S
C3412 H3437 0.950 . S
C3413 C3412 1.349 . S
C3413 C3429 1.349 . S
C3414 C3412 1.327 . S
C3414 C3433 1.429 . S
C3414 H3438 0.950 . S
C3415 C3432 1.574 . S
C3415 C3434 1.368 . S
C3415 H3439 0.949 . S
H3416 C3420 0.949 . S
C3417 C3418 1.349 . S
C3417 C3419 1.327 . S
C3417 H3440 0.950 . S
C3418 C3417 1.349 . S
C3418 C3430 1.349 . S
C3419 C3417 1.327 . S
C3419 C3435 1.429 . S
C3419 H3441 0.950 . S
C3420 H3416 0.949 . S
C3420 C3428 1.574 . S
C3420 C3436 1.368 . S
H3421 C3429 0.950 . S
H3422 C3427 0.950 . S
H3423 C3428 0.949 . S
H3424 C3430 0.950 . S
H3425 C3431 0.950 . S
H3426 C3432 0.949 . S
C3427 H3422 0.950 . S
C3427 C3429 1.327 . S
C3427 C3433 1.429 . S
C3428 C3420 1.574 . S
C3428 H3423 0.949 . S
C3428 C3434 1.368 . S
C3429 C3413 1.349 . S
C3429 H3421 0.950 . S
C3429 C3427 1.327 . S
C3430 C3418 1.349 . S
C3430 H3424 0.950 . S
C3430 C3431 1.327 . S
C3431 H3425 0.950 . S
C3431 C3430 1.327 . S
C3431 C3435 1.429 . S
C3432 C3415 1.574 . S
C3432 H3426 0.949 . S
C3432 C3436 1.368 . S
C3433 C3414 1.429 . S
C3433 C3427 1.429 . S
C3433 C3434 1.523 . S
C3434 C3415 1.368 . S
C3434 C3428 1.368 . S
C3434 C3433 1.523 . S
C3435 C3419 1.429 . S
C3435 C3431 1.429 . S
C3435 C3436 1.523 . S
C3436 C3420 1.368 . S
C3436 C3432 1.368 . S
C3436 C3435 1.523 . S
H3437 C3412 0.950 . S
H3438 C3414 0.950 . S
H3439 C3415 0.949 . S
H3440 C3417 0.950 . S
H3441 C3419 0.950 . S
C3442 C3443 1.349 . S
C3442 C3444 1.327 . S
C3442 H3467 0.950 . S
C3443 C3442 1.349 . S
C3443 C3459 1.349 . S
C3444 C3442 1.327 . S
C3444 C3463 1.429 . S
C3444 H3468 0.950 . S
C3445 C3462 1.574 . S
C3445 C3464 1.368 . S
C3445 H3469 0.949 . S
H3446 C3450 0.949 . S
C3447 C3448 1.349 . S
C3447 C3449 1.327 . S
C3447 H3470 0.950 . S
C3448 C3447 1.349 . S
C3448 C3460 1.349 . S
C3449 C3447 1.327 . S
C3449 C3465 1.429 . S
C3449 H3471 0.950 . S
C3450 H3446 0.949 . S
C3450 C3458 1.574 . S
C3450 C3466 1.368 . S
H3451 C3459 0.950 . S
H3452 C3457 0.950 . S
H3453 C3458 0.949 . S
H3454 C3460 0.950 . S
H3455 C3461 0.950 . S
H3456 C3462 0.949 . S
C3457 H3452 0.950 . S
C3457 C3459 1.327 . S
C3457 C3463 1.429 . S
C3458 C3450 1.574 . S
C3458 H3453 0.949 . S
C3458 C3464 1.368 . S
C3459 C3443 1.349 . S
C3459 H3451 0.950 . S
C3459 C3457 1.327 . S
C3460 C3448 1.349 . S
C3460 H3454 0.950 . S
C3460 C3461 1.327 . S
C3461 H3455 0.950 . S
C3461 C3460 1.327 . S
C3461 C3465 1.429 . S
C3462 C3445 1.574 . S
C3462 H3456 0.949 . S
C3462 C3466 1.368 . S
C3463 C3444 1.429 . S
C3463 C3457 1.429 . S
C3463 C3464 1.523 . S
C3464 C3445 1.368 . S
C3464 C3458 1.368 . S
C3464 C3463 1.523 . S
C3465 C3449 1.429 . S
C3465 C3461 1.429 . S
C3465 C3466 1.523 . S
C3466 C3450 1.368 . S
C3466 C3462 1.368 . S
C3466 C3465 1.523 . S
H3467 C3442 0.950 . S
H3468 C3444 0.950 . S
H3469 C3445 0.949 . S
H3470 C3447 0.950 . S
H3471 C3449 0.950 . S
C3472 C3473 1.349 . S
C3472 C3474 1.327 . S
C3472 H3497 0.950 . S
C3473 C3472 1.349 . S
C3473 C3489 1.349 . S
C3474 C3472 1.327 . S
C3474 C3493 1.429 . S
C3474 H3498 0.950 . S
C3475 C3492 1.574 . S
C3475 C3494 1.368 . S
C3475 H3499 0.949 . S
H3476 C3480 0.949 . S
C3477 C3478 1.349 . S
C3477 C3479 1.327 . S
C3477 H3500 0.950 . S
C3478 C3477 1.349 . S
C3478 C3490 1.349 . S
C3479 C3477 1.327 . S
C3479 C3495 1.429 . S
C3479 H3501 0.950 . S
C3480 H3476 0.949 . S
C3480 C3488 1.574 . S
C3480 C3496 1.368 . S
H3481 C3489 0.950 . S
H3482 C3487 0.950 . S
H3483 C3488 0.949 . S
H3484 C3490 0.950 . S
H3485 C3491 0.950 . S
H3486 C3492 0.949 . S
C3487 H3482 0.950 . S
C3487 C3489 1.327 . S
C3487 C3493 1.429 . S
C3488 C3480 1.574 . S
C3488 H3483 0.949 . S
C3488 C3494 1.368 . S
C3489 C3473 1.349 . S
C3489 H3481 0.950 . S
C3489 C3487 1.327 . S
C3490 C3478 1.349 . S
C3490 H3484 0.950 . S
C3490 C3491 1.327 . S
C3491 H3485 0.950 . S
C3491 C3490 1.327 . S
C3491 C3495 1.429 . S
C3492 C3475 1.574 . S
C3492 H3486 0.949 . S
C3492 C3496 1.368 . S
C3493 C3474 1.429 . S
C3493 C3487 1.429 . S
C3493 C3494 1.523 . S
C3494 C3475 1.368 . S
C3494 C3488 1.368 . S
C3494 C3493 1.523 . S
C3495 C3479 1.429 . S
C3495 C3491 1.429 . S
C3495 C3496 1.523 . S
C3496 C3480 1.368 . S
C3496 C3492 1.368 . S
C3496 C3495 1.523 . S
H3497 C3472 0.950 . S
H3498 C3474 0.950 . S
H3499 C3475 0.949 . S
H3500 C3477 0.950 . S
H3501 C3479 0.950 . S
C3502 C3503 1.349 . S
C3502 C3504 1.327 . S
C3502 H3527 0.950 . S
C3503 C3502 1.349 . S
C3503 C3519 1.349 . S
C3504 C3502 1.327 . S
C3504 C3523 1.429 . S
C3504 H3528 0.950 . S
C3505 C3522 1.574 . S
C3505 C3524 1.368 . S
C3505 H3529 0.949 . S
H3506 C3510 0.949 . S
C3507 C3508 1.349 . S
C3507 C3509 1.327 . S
C3507 H3530 0.950 . S
C3508 C3507 1.349 . S
C3508 C3520 1.349 . S
C3509 C3507 1.327 . S
C3509 C3525 1.429 . S
C3509 H3531 0.950 . S
C3510 H3506 0.949 . S
C3510 C3518 1.574 . S
C3510 C3526 1.368 . S
H3511 C3519 0.950 . S
H3512 C3517 0.950 . S
H3513 C3518 0.949 . S
H3514 C3520 0.950 . S
H3515 C3521 0.950 . S
H3516 C3522 0.949 . S
C3517 H3512 0.950 . S
C3517 C3519 1.327 . S
C3517 C3523 1.429 . S
C3518 C3510 1.574 . S
C3518 H3513 0.949 . S
C3518 C3524 1.368 . S
C3519 C3503 1.349 . S
C3519 H3511 0.950 . S
C3519 C3517 1.327 . S
C3520 C3508 1.349 . S
C3520 H3514 0.950 . S
C3520 C3521 1.327 . S
C3521 H3515 0.950 . S
C3521 C3520 1.327 . S
C3521 C3525 1.429 . S
C3522 C3505 1.574 . S
C3522 H3516 0.949 . S
C3522 C3526 1.368 . S
C3523 C3504 1.429 . S
C3523 C3517 1.429 . S
C3523 C3524 1.523 . S
C3524 C3505 1.368 . S
C3524 C3518 1.368 . S
C3524 C3523 1.523 . S
C3525 C3509 1.429 . S
C3525 C3521 1.429 . S
C3525 C3526 1.523 . S
C3526 C3510 1.368 . S
C3526 C3522 1.368 . S
C3526 C3525 1.523 . S
H3527 C3502 0.950 . S
H3528 C3504 0.950 . S
H3529 C3505 0.949 . S
H3530 C3507 0.950 . S
H3531 C3509 0.950 . S
C3532 C3533 1.349 . S
C3532 C3534 1.327 . S
C3532 H3557 0.950 . S
C3533 C3532 1.349 . S
C3533 C3549 1.349 . S
C3534 C3532 1.327 . S
C3534 C3553 1.429 . S
C3534 H3558 0.950 . S
C3535 C3552 1.574 . S
C3535 C3554 1.368 . S
C3535 H3559 0.949 . S
H3536 C3540 0.949 . S
C3537 C3538 1.349 . S
C3537 C3539 1.327 . S
C3537 H3560 0.950 . S
C3538 C3537 1.349 . S
C3538 C3550 1.349 . S
C3539 C3537 1.327 . S
C3539 C3555 1.429 . S
C3539 H3561 0.950 . S
C3540 H3536 0.949 . S
C3540 C3548 1.574 . S
C3540 C3556 1.368 . S
H3541 C3549 0.950 . S
H3542 C3547 0.950 . S
H3543 C3548 0.949 . S
H3544 C3550 0.950 . S
H3545 C3551 0.950 . S
H3546 C3552 0.949 . S
C3547 H3542 0.950 . S
C3547 C3549 1.327 . S
C3547 C3553 1.429 . S
C3548 C3540 1.574 . S
C3548 H3543 0.949 . S
C3548 C3554 1.368 . S
C3549 C3533 1.349 . S
C3549 H3541 0.950 . S
C3549 C3547 1.327 . S
C3550 C3538 1.349 . S
C3550 H3544 0.950 . S
C3550 C3551 1.327 . S
C3551 H3545 0.950 . S
C3551 C3550 1.327 . S
C3551 C3555 1.429 . S
C3552 C3535 1.574 . S
C3552 H3546 0.949 . S
C3552 C3556 1.368 . S
C3553 C3534 1.429 . S
C3553 C3547 1.429 . S
C3553 C3554 1.523 . S
C3554 C3535 1.368 . S
C3554 C3548 1.368 . S
C3554 C3553 1.523 . S
C3555 C3539 1.429 . S
C3555 C3551 1.429 . S
C3555 C3556 1.523 . S
C3556 C3540 1.368 . S
C3556 C3552 1.368 . S
C3556 C3555 1.523 . S
H3557 C3532 0.950 . S
H3558 C3534 0.950 . S
H3559 C3535 0.949 . S
H3560 C3537 0.950 . S
H3561 C3539 0.950 . S
C3562 C3563 1.349 . S
C3562 C3564 1.327 . S
C3562 H3587 0.950 . S
C3563 C3562 1.349 . S
C3563 C3579 1.349 . S
C3564 C3562 1.327 . S
C3564 C3583 1.429 . S
C3564 H3588 0.950 . S
C3565 C3582 1.574 . S
C3565 C3584 1.368 . S
C3565 H3589 0.949 . S
H3566 C3570 0.949 . S
C3567 C3568 1.349 . S
C3567 C3569 1.327 . S
C3567 H3590 0.950 . S
C3568 C3567 1.349 . S
C3568 C3580 1.349 . S
C3569 C3567 1.327 . S
C3569 C3585 1.429 . S
C3569 H3591 0.950 . S
C3570 H3566 0.949 . S
C3570 C3578 1.574 . S
C3570 C3586 1.368 . S
H3571 C3579 0.950 . S
H3572 C3577 0.950 . S
H3573 C3578 0.949 . S
H3574 C3580 0.950 . S
H3575 C3581 0.950 . S
H3576 C3582 0.949 . S
C3577 H3572 0.950 . S
C3577 C3579 1.327 . S
C3577 C3583 1.429 . S
C3578 C3570 1.574 . S
C3578 H3573 0.949 . S
C3578 C3584 1.368 . S
C3579 C3563 1.349 . S
C3579 H3571 0.950 . S
C3579 C3577 1.327 . S
C3580 C3568 1.349 . S
C3580 H3574 0.950 . S
C3580 C3581 1.327 . S
C3581 H3575 0.950 . S
C3581 C3580 1.327 . S
C3581 C3585 1.429 . S
C3582 C3565 1.574 . S
C3582 H3576 0.949 . S
C3582 C3586 1.368 . S
C3583 C3564 1.429 . S
C3583 C3577 1.429 . S
C3583 C3584 1.523 . S
C3584 C3565 1.368 . S
C3584 C3578 1.368 . S
C3584 C3583 1.523 . S
C3585 C3569 1.429 . S
C3585 C3581 1.429 . S
C3585 C3586 1.523 . S
C3586 C3570 1.368 . S
C3586 C3582 1.368 . S
C3586 C3585 1.523 . S
H3587 C3562 0.950 . S
H3588 C3564 0.950 . S
H3589 C3565 0.949 . S
H3590 C3567 0.950 . S
H3591 C3569 0.950 . S
C3592 C3593 1.349 . S
C3592 C3594 1.327 . S
C3592 H3617 0.950 . S
C3593 C3592 1.349 . S
C3593 C3609 1.349 . S
C3594 C3592 1.327 . S
C3594 C3613 1.429 . S
C3594 H3618 0.950 . S
C3595 C3612 1.574 . S
C3595 C3614 1.368 . S
C3595 H3619 0.949 . S
H3596 C3600 0.949 . S
C3597 C3598 1.349 . S
C3597 C3599 1.327 . S
C3597 H3620 0.950 . S
C3598 C3597 1.349 . S
C3598 C3610 1.349 . S
C3599 C3597 1.327 . S
C3599 C3615 1.429 . S
C3599 H3621 0.950 . S
C3600 H3596 0.949 . S
C3600 C3608 1.574 . S
C3600 C3616 1.368 . S
H3601 C3609 0.950 . S
H3602 C3607 0.950 . S
H3603 C3608 0.949 . S
H3604 C3610 0.950 . S
H3605 C3611 0.950 . S
H3606 C3612 0.949 . S
C3607 H3602 0.950 . S
C3607 C3609 1.327 . S
C3607 C3613 1.429 . S
C3608 C3600 1.574 . S
C3608 H3603 0.949 . S
C3608 C3614 1.368 . S
C3609 C3593 1.349 . S
C3609 H3601 0.950 . S
C3609 C3607 1.327 . S
C3610 C3598 1.349 . S
C3610 H3604 0.950 . S
C3610 C3611 1.327 . S
C3611 H3605 0.950 . S
C3611 C3610 1.327 . S
C3611 C3615 1.429 . S
C3612 C3595 1.574 . S
C3612 H3606 0.949 . S
C3612 C3616 1.368 . S
C3613 C3594 1.429 . S
C3613 C3607 1.429 . S
C3613 C3614 1.523 . S
C3614 C3595 1.368 . S
C3614 C3608 1.368 . S
C3614 C3613 1.523 . S
C3615 C3599 1.429 . S
C3615 C3611 1.429 . S
C3615 C3616 1.523 . S
C3616 C3600 1.368 . S
C3616 C3612 1.368 . S
C3616 C3615 1.523 . S
H3617 C3592 0.950 . S
H3618 C3594 0.950 . S
H3619 C3595 0.949 . S
H3620 C3597 0.950 . S
H3621 C3599 0.950 . S
C3622 C3623 1.349 . S
C3622 C3624 1.327 . S
C3622 H3647 0.950 . S
C3623 C3622 1.349 . S
C3623 C3639 1.349 . S
C3624 C3622 1.327 . S
C3624 C3643 1.429 . S
C3624 H3648 0.950 . S
C3625 C3642 1.574 . S
C3625 C3644 1.368 . S
C3625 H3649 0.949 . S
H3626 C3630 0.949 . S
C3627 C3628 1.349 . S
C3627 C3629 1.327 . S
C3627 H3650 0.950 . S
C3628 C3627 1.349 . S
C3628 C3640 1.349 . S
C3629 C3627 1.327 . S
C3629 C3645 1.429 . S
C3629 H3651 0.950 . S
C3630 H3626 0.949 . S
C3630 C3638 1.574 . S
C3630 C3646 1.368 . S
H3631 C3639 0.950 . S
H3632 C3637 0.950 . S
H3633 C3638 0.949 . S
H3634 C3640 0.950 . S
H3635 C3641 0.950 . S
H3636 C3642 0.949 . S
C3637 H3632 0.950 . S
C3637 C3639 1.327 . S
C3637 C3643 1.429 . S
C3638 C3630 1.574 . S
C3638 H3633 0.949 . S
C3638 C3644 1.368 . S
C3639 C3623 1.349 . S
C3639 H3631 0.950 . S
C3639 C3637 1.327 . S
C3640 C3628 1.349 . S
C3640 H3634 0.950 . S
C3640 C3641 1.327 . S
C3641 H3635 0.950 . S
C3641 C3640 1.327 . S
C3641 C3645 1.429 . S
C3642 C3625 1.574 . S
C3642 H3636 0.949 . S
C3642 C3646 1.368 . S
C3643 C3624 1.429 . S
C3643 C3637 1.429 . S
C3643 C3644 1.523 . S
C3644 C3625 1.368 . S
C3644 C3638 1.368 . S
C3644 C3643 1.523 . S
C3645 C3629 1.429 . S
C3645 C3641 1.429 . S
C3645 C3646 1.523 . S
C3646 C3630 1.368 . S
C3646 C3642 1.368 . S
C3646 C3645 1.523 . S
H3647 C3622 0.950 . S
H3648 C3624 0.950 . S
H3649 C3625 0.949 . S
H3650 C3627 0.950 . S
H3651 C3629 0.950 . S
C3652 C3653 1.349 . S
C3652 C3654 1.327 . S
C3652 H3677 0.950 . S
C3653 C3652 1.349 . S
C3653 C3669 1.349 . S
C3654 C3652 1.327 . S
C3654 C3673 1.429 . S
C3654 H3678 0.950 . S
C3655 C3672 1.574 . S
C3655 C3674 1.368 . S
C3655 H3679 0.949 . S
H3656 C3660 0.949 . S
C3657 C3658 1.378 . S
C3657 C3659 1.348 . S
C3657 H3680 0.902 1_556 S
C3658 C3657 1.378 . S
C3658 C3670 1.349 . S
C3659 C3657 1.348 . S
C3659 C3675 1.429 . S
C3659 H3681 0.950 . S
C3660 H3656 0.949 . S
C3660 C3668 1.574 . S
C3660 C3676 1.368 . S
H3661 C3669 0.950 . S
H3662 C3667 0.950 . S
H3663 C3668 0.949 . S
H3664 C3670 0.950 . S
H3665 C3671 0.950 . S
H3666 C3672 0.949 . S
C3667 H3662 0.950 . S
C3667 C3669 1.327 . S
C3667 C3673 1.429 . S
C3668 C3660 1.574 . S
C3668 H3663 0.949 . S
C3668 C3674 1.368 . S
C3669 C3653 1.349 . S
C3669 H3661 0.950 . S
C3669 C3667 1.327 . S
C3670 C3658 1.349 . S
C3670 H3664 0.950 . S
C3670 C3671 1.327 . S
C3671 H3665 0.950 . S
C3671 C3670 1.327 . S
C3671 C3675 1.429 . S
C3672 C3655 1.574 . S
C3672 H3666 0.949 . S
C3672 C3676 1.368 . S
C3673 C3654 1.429 . S
C3673 C3667 1.429 . S
C3673 C3674 1.523 . S
C3674 C3655 1.368 . S
C3674 C3668 1.368 . S
C3674 C3673 1.523 . S
C3675 C3659 1.429 . S
C3675 C3671 1.429 . S
C3675 C3676 1.523 . S
C3676 C3660 1.368 . S
C3676 C3672 1.368 . S
C3676 C3675 1.523 . S
H3677 C3652 0.950 . S
H3678 C3654 0.950 . S
H3679 C3655 0.949 . S
H3680 C3657 0.902 1_554 S
H3681 C3659 0.950 . S
C3682 C3683 1.349 . S
C3682 C3684 1.327 . S
C3682 H3707 0.950 . S
C3683 C3682 1.349 . S
C3683 C3699 1.349 . S
C3684 C3682 1.327 . S
C3684 C3703 1.429 . S
C3684 H3708 0.950 . S
C3685 C3702 1.574 . S
C3685 C3704 1.368 . S
C3685 H3709 0.949 . S
H3686 C3690 0.949 . S
C3687 C3688 1.349 . S
C3687 C3689 1.327 . S
C3687 H3710 0.950 . S
C3688 C3687 1.349 . S
C3688 C3700 1.349 . S
C3689 C3687 1.327 . S
C3689 C3705 1.429 . S
C3689 H3711 0.950 . S
C3690 H3686 0.949 . S
C3690 C3698 1.574 . S
C3690 C3706 1.368 . S
H3691 C3699 0.950 . S
H3692 C3697 0.950 . S
H3693 C3698 0.949 . S
H3694 C3700 0.950 . S
H3695 C3701 0.950 . S
H3696 C3702 0.949 . S
C3697 H3692 0.950 . S
C3697 C3699 1.327 . S
C3697 C3703 1.429 . S
C3698 C3690 1.574 . S
C3698 H3693 0.949 . S
C3698 C3704 1.368 . S
C3699 C3683 1.349 . S
C3699 H3691 0.950 . S
C3699 C3697 1.327 . S
C3700 C3688 1.349 . S
C3700 H3694 0.950 . S
C3700 C3701 1.327 . S
C3701 H3695 0.950 . S
C3701 C3700 1.327 . S
C3701 C3705 1.429 . S
C3702 C3685 1.574 . S
C3702 H3696 0.949 . S
C3702 C3706 1.368 . S
C3703 C3684 1.429 . S
C3703 C3697 1.429 . S
C3703 C3704 1.523 . S
C3704 C3685 1.368 . S
C3704 C3698 1.368 . S
C3704 C3703 1.523 . S
C3705 C3689 1.429 . S
C3705 C3701 1.429 . S
C3705 C3706 1.523 . S
C3706 C3690 1.368 . S
C3706 C3702 1.368 . S
C3706 C3705 1.523 . S
H3707 C3682 0.950 . S
H3708 C3684 0.950 . S
H3709 C3685 0.949 . S
H3710 C3687 0.950 . S
H3711 C3689 0.950 . S
C3712 C3713 1.349 1_565 S
C3712 C3714 1.327 . S
C3712 H3737 0.950 . S
C3713 C3712 1.349 1_545 S
C3713 C3729 1.349 . S
C3714 C3712 1.327 . S
C3714 C3733 1.429 1_565 S
C3714 H3738 0.950 . S
C3715 C3732 1.574 . S
C3715 C3734 1.368 . S
C3715 H3739 0.949 . S
H3716 C3720 0.988 . S
C3717 C3718 1.349 . S
C3717 C3719 1.327 . S
C3717 H3740 0.950 . S
C3718 C3717 1.349 . S
C3718 C3730 1.349 . S
C3719 C3717 1.327 . S
C3719 C3735 1.429 . S
C3719 H3741 0.950 . S
C3720 H3716 0.988 . S
C3720 C3728 1.576 . S
C3720 C3736 1.326 1_565 S
H3721 C3729 0.950 . S
H3722 C3727 0.950 . S
H3723 C3728 0.949 . S
H3724 C3730 0.950 1_565 S
H3725 C3731 0.950 1_565 S
H3726 C3732 0.949 . S
C3727 H3722 0.950 . S
C3727 C3729 1.327 . S
C3727 C3733 1.429 . S
C3728 C3720 1.576 . S
C3728 H3723 0.949 . S
C3728 C3734 1.368 1_565 S
C3729 C3713 1.349 . S
C3729 H3721 0.950 . S
C3729 C3727 1.327 . S
C3730 C3718 1.349 . S
C3730 H3724 0.950 1_545 S
C3730 C3731 1.327 . S
C3731 H3725 0.950 1_545 S
C3731 C3730 1.327 . S
C3731 C3735 1.429 . S
C3732 C3715 1.574 . S
C3732 H3726 0.949 . S
C3732 C3736 1.368 . S
C3733 C3714 1.429 1_545 S
C3733 C3727 1.429 . S
C3733 C3734 1.523 . S
C3734 C3715 1.368 . S
C3734 C3728 1.368 1_545 S
C3734 C3733 1.523 . S
C3735 C3719 1.429 . S
C3735 C3731 1.429 . S
C3735 C3736 1.523 . S
C3736 C3720 1.326 1_545 S
C3736 C3732 1.368 . S
C3736 C3735 1.523 . S
H3737 C3712 0.950 . S
H3738 C3714 0.950 . S
H3739 C3715 0.949 . S
H3740 C3717 0.950 . S
H3741 C3719 0.950 . S
C3742 C3743 1.349 . S
C3742 C3744 1.327 . S
C3742 H3767 0.950 . S
C3743 C3742 1.349 . S
C3743 C3759 1.349 . S
C3744 C3742 1.327 . S
C3744 C3763 1.429 . S
C3744 H3768 0.950 . S
C3745 C3762 1.574 . S
C3745 C3764 1.368 . S
C3745 H3769 0.949 . S
H3746 C3750 0.949 . S
C3747 C3748 1.349 . S
C3747 C3749 1.327 . S
C3747 H3770 0.950 . S
C3748 C3747 1.349 . S
C3748 C3760 1.349 . S
C3749 C3747 1.327 . S
C3749 C3765 1.429 . S
C3749 H3771 0.950 . S
C3750 H3746 0.949 . S
C3750 C3758 1.574 . S
C3750 C3766 1.368 . S
H3751 C3759 0.950 . S
H3752 C3757 0.950 . S
H3753 C3758 0.949 . S
H3754 C3760 0.950 . S
H3755 C3761 0.950 . S
H3756 C3762 0.949 . S
C3757 H3752 0.950 . S
C3757 C3759 1.327 . S
C3757 C3763 1.429 . S
C3758 C3750 1.574 . S
C3758 H3753 0.949 . S
C3758 C3764 1.368 . S
C3759 C3743 1.349 . S
C3759 H3751 0.950 . S
C3759 C3757 1.327 . S
C3760 C3748 1.349 . S
C3760 H3754 0.950 . S
C3760 C3761 1.327 . S
C3761 H3755 0.950 . S
C3761 C3760 1.327 . S
C3761 C3765 1.429 . S
C3762 C3745 1.574 . S
C3762 H3756 0.949 . S
C3762 C3766 1.368 . S
C3763 C3744 1.429 . S
C3763 C3757 1.429 . S
C3763 C3764 1.523 . S
C3764 C3745 1.368 . S
C3764 C3758 1.368 . S
C3764 C3763 1.523 . S
C3765 C3749 1.429 . S
C3765 C3761 1.429 . S
C3765 C3766 1.523 . S
C3766 C3750 1.368 . S
C3766 C3762 1.368 . S
C3766 C3765 1.523 . S
H3767 C3742 0.950 . S
H3768 C3744 0.950 . S
H3769 C3745 0.949 . S
H3770 C3747 0.950 . S
H3771 C3749 0.950 . S
C3772 C3773 1.349 . S
C3772 C3774 1.327 . S
C3772 H3797 0.950 . S
C3773 C3772 1.349 . S
C3773 C3789 1.349 . S
C3774 C3772 1.327 . S
C3774 C3793 1.429 . S
C3774 H3798 0.950 . S
C3775 C3792 1.574 . S
C3775 C3794 1.368 . S
C3775 H3799 0.949 . S
H3776 C3780 0.949 . S
C3777 C3778 1.349 . S
C3777 C3779 1.327 . S
C3777 H3800 0.950 . S
C3778 C3777 1.349 . S
C3778 C3790 1.349 . S
C3779 C3777 1.327 . S
C3779 C3795 1.429 . S
C3779 H3801 0.950 . S
C3780 H3776 0.949 . S
C3780 C3788 1.574 . S
C3780 C3796 1.368 . S
H3781 C3789 0.950 . S
H3782 C3787 0.950 . S
H3783 C3788 0.949 . S
H3784 C3790 0.950 . S
H3785 C3791 0.950 . S
H3786 C3792 0.949 . S
C3787 H3782 0.950 . S
C3787 C3789 1.327 . S
C3787 C3793 1.429 . S
C3788 C3780 1.574 . S
C3788 H3783 0.949 . S
C3788 C3794 1.368 . S
C3789 C3773 1.349 . S
C3789 H3781 0.950 . S
C3789 C3787 1.327 . S
C3790 C3778 1.349 . S
C3790 H3784 0.950 . S
C3790 C3791 1.327 . S
C3791 H3785 0.950 . S
C3791 C3790 1.327 . S
C3791 C3795 1.429 . S
C3792 C3775 1.574 . S
C3792 H3786 0.949 . S
C3792 C3796 1.368 . S
C3793 C3774 1.429 . S
C3793 C3787 1.429 . S
C3793 C3794 1.523 . S
C3794 C3775 1.368 . S
C3794 C3788 1.368 . S
C3794 C3793 1.523 . S
C3795 C3779 1.429 . S
C3795 C3791 1.429 . S
C3795 C3796 1.523 . S
C3796 C3780 1.368 . S
C3796 C3792 1.368 . S
C3796 C3795 1.523 . S
H3797 C3772 0.950 . S
H3798 C3774 0.950 . S
H3799 C3775 0.949 . S
H3800 C3777 0.950 . S
H3801 C3779 0.950 . S
C3802 C3803 1.349 . S
C3802 C3804 1.327 . S
C3802 H3827 0.950 . S
C3803 C3802 1.349 . S
C3803 C3819 1.349 . S
C3804 C3802 1.327 . S
C3804 C3823 1.429 . S
C3804 H3828 0.950 . S
C3805 C3822 1.574 . S
C3805 C3824 1.368 . S
C3805 H3829 0.949 . S
H3806 C3810 0.949 . S
C3807 C3808 1.349 . S
C3807 C3809 1.327 . S
C3807 H3830 0.950 . S
C3808 C3807 1.349 . S
C3808 C3820 1.349 . S
C3809 C3807 1.327 . S
C3809 C3825 1.429 . S
C3809 H3831 0.950 . S
C3810 H3806 0.949 . S
C3810 C3818 1.574 . S
C3810 C3826 1.368 . S
H3811 C3819 0.950 . S
H3812 C3817 0.950 . S
H3813 C3818 0.949 . S
H3814 C3820 0.950 . S
H3815 C3821 0.950 . S
H3816 C3822 0.949 . S
C3817 H3812 0.950 . S
C3817 C3819 1.327 . S
C3817 C3823 1.429 . S
C3818 C3810 1.574 . S
C3818 H3813 0.949 . S
C3818 C3824 1.368 . S
C3819 C3803 1.349 . S
C3819 H3811 0.950 . S
C3819 C3817 1.327 . S
C3820 C3808 1.349 . S
C3820 H3814 0.950 . S
C3820 C3821 1.327 . S
C3821 H3815 0.950 . S
C3821 C3820 1.327 . S
C3821 C3825 1.429 . S
C3822 C3805 1.574 . S
C3822 H3816 0.949 . S
C3822 C3826 1.368 . S
C3823 C3804 1.429 . S
C3823 C3817 1.429 . S
C3823 C3824 1.523 . S
C3824 C3805 1.368 . S
C3824 C3818 1.368 . S
C3824 C3823 1.523 . S
C3825 C3809 1.429 . S
C3825 C3821 1.429 . S
C3825 C3826 1.523 . S
C3826 C3810 1.368 . S
C3826 C3822 1.368 . S
C3826 C3825 1.523 . S
H3827 C3802 0.950 . S
H3828 C3804 0.950 . S
H3829 C3805 0.949 . S
H3830 C3807 0.950 . S
H3831 C3809 0.950 . S
C3832 C3833 1.349 1_545 S
C3832 C3834 1.327 . S
C3832 H3857 0.950 . S
C3833 C3832 1.349 1_565 S
C3833 C3849 1.349 . S
C3834 C3832 1.327 . S
C3834 C3853 1.429 1_545 S
C3834 H3858 0.950 . S
C3835 C3852 1.574 . S
C3835 C3854 1.368 1_565 S
C3835 H3859 0.949 . S
H3836 C3840 0.949 . S
C3837 C3838 1.349 . S
C3837 C3839 1.327 . S
C3837 H3860 0.950 1_545 S
C3838 C3837 1.349 . S
C3838 C3850 1.349 . S
C3839 C3837 1.327 . S
C3839 C3855 1.429 . S
C3839 H3861 0.950 1_545 S
C3840 H3836 0.949 . S
C3840 C3848 1.574 . S
C3840 C3856 1.368 . S
H3841 C3849 0.950 . S
H3842 C3847 0.950 . S
H3843 C3848 0.949 . S
H3844 C3850 0.950 . S
H3845 C3851 0.950 . S
H3846 C3852 0.949 . S
C3847 H3842 0.950 . S
C3847 C3849 1.327 . S
C3847 C3853 1.429 . S
C3848 C3840 1.574 . S
C3848 H3843 0.949 . S
C3848 C3854 1.368 . S
C3849 C3833 1.349 . S
C3849 H3841 0.950 . S
C3849 C3847 1.327 . S
C3850 C3838 1.349 . S
C3850 H3844 0.950 . S
C3850 C3851 1.327 . S
C3851 H3845 0.950 . S
C3851 C3850 1.327 . S
C3851 C3855 1.429 . S
C3852 C3835 1.574 . S
C3852 H3846 0.949 . S
C3852 C3856 1.368 1_565 S
C3853 C3834 1.429 1_565 S
C3853 C3847 1.429 . S
C3853 C3854 1.523 1_565 S
C3854 C3835 1.368 1_545 S
C3854 C3848 1.368 . S
C3854 C3853 1.523 1_545 S
C3855 C3839 1.429 . S
C3855 C3851 1.429 . S
C3855 C3856 1.523 . S
C3856 C3840 1.368 . S
C3856 C3852 1.368 1_545 S
C3856 C3855 1.523 . S
H3857 C3832 0.950 . S
H3858 C3834 0.950 . S
H3859 C3835 0.949 . S
H3860 C3837 0.950 1_565 S
H3861 C3839 0.950 1_565 S
C3862 C3863 1.349 . S
C3862 C3864 1.327 . S
C3862 H3887 0.950 . S
C3863 C3862 1.349 . S
C3863 C3879 1.349 . S
C3864 C3862 1.327 . S
C3864 C3883 1.429 . S
C3864 H3888 0.950 . S
C3865 C3882 1.574 . S
C3865 C3884 1.368 . S
C3865 H3889 0.949 . S
H3866 C3870 0.949 . S
C3867 C3868 1.349 . S
C3867 C3869 1.327 . S
C3867 H3890 0.950 . S
C3868 C3867 1.349 . S
C3868 C3880 1.349 . S
C3869 C3867 1.327 . S
C3869 C3885 1.429 . S
C3869 H3891 0.950 . S
C3870 H3866 0.949 . S
C3870 C3878 1.574 . S
C3870 C3886 1.368 . S
H3871 C3879 0.950 . S
H3872 C3877 0.950 . S
H3873 C3878 0.949 . S
H3874 C3880 0.950 . S
H3875 C3881 0.950 . S
H3876 C3882 0.949 . S
C3877 H3872 0.950 . S
C3877 C3879 1.327 . S
C3877 C3883 1.429 . S
C3878 C3870 1.574 . S
C3878 H3873 0.949 . S
C3878 C3884 1.368 . S
C3879 C3863 1.349 . S
C3879 H3871 0.950 . S
C3879 C3877 1.327 . S
C3880 C3868 1.349 . S
C3880 H3874 0.950 . S
C3880 C3881 1.327 . S
C3881 H3875 0.950 . S
C3881 C3880 1.327 . S
C3881 C3885 1.429 . S
C3882 C3865 1.574 . S
C3882 H3876 0.949 . S
C3882 C3886 1.368 . S
C3883 C3864 1.429 . S
C3883 C3877 1.429 . S
C3883 C3884 1.523 . S
C3884 C3865 1.368 . S
C3884 C3878 1.368 . S
C3884 C3883 1.523 . S
C3885 C3869 1.429 . S
C3885 C3881 1.429 . S
C3885 C3886 1.523 . S
C3886 C3870 1.368 . S
C3886 C3882 1.368 . S
C3886 C3885 1.523 . S
H3887 C3862 0.950 . S
H3888 C3864 0.950 . S
H3889 C3865 0.949 . S
H3890 C3867 0.950 . S
H3891 C3869 0.950 . S
C3892 C3893 1.349 . S
C3892 C3894 1.327 . S
C3892 H3917 0.950 . S
C3893 C3892 1.349 . S
C3893 C3909 1.349 1_545 S
C3894 C3892 1.327 . S
C3894 C3913 1.429 . S
C3894 H3918 0.950 . S
C3895 C3912 1.574 . S
C3895 C3914 1.368 1_565 S
C3895 H3919 0.949 . S
H3896 C3900 0.949 . S
C3897 C3898 1.303 1_565 S
C3897 C3899 1.327 . S
C3897 H3920 0.950 . S
C3898 C3897 1.303 1_545 S
C3898 C3910 1.393 . S
C3899 C3897 1.327 . S
C3899 C3915 1.429 1_565 S
C3899 H3921 0.950 . S
C3900 H3896 0.949 . S
C3900 C3908 1.574 . S
C3900 C3916 1.368 . S
H3901 C3909 0.950 . S
H3902 C3907 0.950 . S
H3903 C3908 0.949 . S
H3904 C3910 0.950 . S
H3905 C3911 0.950 . S
H3906 C3912 0.949 . S
C3907 H3902 0.950 . S
C3907 C3909 1.327 . S
C3907 C3913 1.429 1_565 S
C3908 C3900 1.574 . S
C3908 H3903 0.949 . S
C3908 C3914 1.368 . S
C3909 C3893 1.349 1_565 S
C3909 H3901 0.950 . S
C3909 C3907 1.327 . S
C3910 C3898 1.393 . S
C3910 H3904 0.950 . S
C3910 C3911 1.327 . S
C3911 H3905 0.950 . S
C3911 C3910 1.327 . S
C3911 C3915 1.429 . S
C3912 C3895 1.574 . S
C3912 H3906 0.949 . S
C3912 C3916 1.368 1_565 S
C3913 C3894 1.429 . S
C3913 C3907 1.429 1_545 S
C3913 C3914 1.523 . S
C3914 C3895 1.368 1_545 S
C3914 C3908 1.368 . S
C3914 C3913 1.523 . S
C3915 C3899 1.429 1_545 S
C3915 C3911 1.429 . S
C3915 C3916 1.523 . S
C3916 C3900 1.368 . S
C3916 C3912 1.368 1_545 S
C3916 C3915 1.523 . S
H3917 C3892 0.950 . S
H3918 C3894 0.950 . S
H3919 C3895 0.949 . S
H3920 C3897 0.950 . S
H3921 C3899 0.950 . S
C3922 C3923 1.349 . S
C3922 C3924 1.327 . S
C3922 H3947 0.950 . S
C3923 C3922 1.349 . S
C3923 C3939 1.349 . S
C3924 C3922 1.327 . S
C3924 C3943 1.429 . S
C3924 H3948 0.950 . S
C3925 C3942 1.574 . S
C3925 C3944 1.368 . S
C3925 H3949 0.949 . S
H3926 C3930 0.949 . S
C3927 C3928 1.349 . S
C3927 C3929 1.327 . S
C3927 H3950 0.950 . S
C3928 C3927 1.349 . S
C3928 C3940 1.349 . S
C3929 C3927 1.327 . S
C3929 C3945 1.429 . S
C3929 H3951 0.950 . S
C3930 H3926 0.949 . S
C3930 C3938 1.574 . S
C3930 C3946 1.368 . S
H3931 C3939 0.950 . S
H3932 C3937 0.950 . S
H3933 C3938 0.949 . S
H3934 C3940 0.950 . S
H3935 C3941 0.950 . S
H3936 C3942 0.949 . S
C3937 H3932 0.950 . S
C3937 C3939 1.327 . S
C3937 C3943 1.429 . S
C3938 C3930 1.574 . S
C3938 H3933 0.949 . S
C3938 C3944 1.368 . S
C3939 C3923 1.349 . S
C3939 H3931 0.950 . S
C3939 C3937 1.327 . S
C3940 C3928 1.349 . S
C3940 H3934 0.950 . S
C3940 C3941 1.327 . S
C3941 H3935 0.950 . S
C3941 C3940 1.327 . S
C3941 C3945 1.429 . S
C3942 C3925 1.574 . S
C3942 H3936 0.949 . S
C3942 C3946 1.368 . S
C3943 C3924 1.429 . S
C3943 C3937 1.429 . S
C3943 C3944 1.523 . S
C3944 C3925 1.368 . S
C3944 C3938 1.368 . S
C3944 C3943 1.523 . S
C3945 C3929 1.429 . S
C3945 C3941 1.429 . S
C3945 C3946 1.523 . S
C3946 C3930 1.368 . S
C3946 C3942 1.368 . S
C3946 C3945 1.523 . S
H3947 C3922 0.950 . S
H3948 C3924 0.950 . S
H3949 C3925 0.949 . S
H3950 C3927 0.950 . S
H3951 C3929 0.950 . S
C3952 C3953 1.349 . S
C3952 C3954 1.327 . S
C3952 H3977 0.950 . S
C3953 C3952 1.349 . S
C3953 C3969 1.349 1_554 S
C3954 C3952 1.327 . S
C3954 C3973 1.429 . S
C3954 H3978 0.950 . S
C3955 C3972 1.574 . S
C3955 C3974 1.368 1_556 S
C3955 H3979 0.949 . S
H3956 C3960 0.949 . S
C3957 C3958 1.395 . S
C3957 C3959 1.327 . S
C3957 H3980 0.950 . S
C3958 C3957 1.395 . S
C3958 C3970 1.301 1_556 S
C3959 C3957 1.327 . S
C3959 C3975 1.431 1_556 S
C3959 H3981 0.950 . S
C3960 H3956 0.949 . S
C3960 C3968 1.574 . S
C3960 C3976 1.400 . S
H3961 C3969 0.950 . S
H3962 C3967 0.950 . S
H3963 C3968 0.949 . S
H3964 C3970 0.950 . S
H3965 C3971 0.950 . S
H3966 C3972 0.949 . S
C3967 H3962 0.950 . S
C3967 C3969 1.327 . S
C3967 C3973 1.429 1_556 S
C3968 C3960 1.574 . S
C3968 H3963 0.949 . S
C3968 C3974 1.368 . S
C3969 C3953 1.349 1_556 S
C3969 H3961 0.950 . S
C3969 C3967 1.327 . S
C3970 C3958 1.301 1_554 S
C3970 H3964 0.950 . S
C3970 C3971 1.327 . S
C3971 H3965 0.950 . S
C3971 C3970 1.327 . S
C3971 C3975 1.426 . S
C3972 C3955 1.574 . S
C3972 H3966 0.949 . S
C3972 C3976 1.338 1_556 S
C3973 C3954 1.429 . S
C3973 C3967 1.429 1_554 S
C3973 C3974 1.523 . S
C3974 C3955 1.368 1_554 S
C3974 C3968 1.368 . S
C3974 C3973 1.523 . S
C3975 C3959 1.431 1_554 S
C3975 C3971 1.426 . S
C3975 C3976 1.522 . S
C3976 C3960 1.400 . S
C3976 C3972 1.338 1_554 S
C3976 C3975 1.522 . S
H3977 C3952 0.950 . S
H3978 C3954 0.950 . S
H3979 C3955 0.949 . S
H3980 C3957 0.950 . S
H3981 C3959 0.950 . S
C3982 C3983 1.349 . S
C3982 C3984 1.327 . S
C3982 H4007 0.950 . S
C3983 C3982 1.349 . S
C3983 C3999 1.349 . S
C3984 C3982 1.327 . S
C3984 C4003 1.429 . S
C3984 H4008 0.950 . S
C3985 C4002 1.574 . S
C3985 C4004 1.368 . S
C3985 H4009 0.949 . S
H3986 C3990 0.958 . S
C3987 C3988 1.349 . S
C3987 C3989 1.327 . S
C3987 H4010 0.950 . S
C3988 C3987 1.349 . S
C3988 C4000 1.349 . S
C3989 C3987 1.327 . S
C3989 C4005 1.429 . S
C3989 H4011 0.950 . S
C3990 H3986 0.958 . S
C3990 C3998 1.574 . S
C3990 C4006 1.368 . S
H3991 C3999 0.950 . S
H3992 C3997 0.950 . S
H3993 C3998 0.949 . S
H3994 C4000 0.950 1_556 S
H3995 C4001 0.919 1_556 S
H3996 C4002 0.949 . S
C3997 H3992 0.950 . S
C3997 C3999 1.327 . S
C3997 C4003 1.429 . S
C3998 C3990 1.574 . S
C3998 H3993 0.949 . S
C3998 C4004 1.368 . S
C3999 C3983 1.349 . S
C3999 H3991 0.950 . S
C3999 C3997 1.327 . S
C4000 C3988 1.349 . S
C4000 H3994 0.950 1_554 S
C4000 C4001 1.327 . S
C4001 H3995 0.919 1_554 S
C4001 C4000 1.327 . S
C4001 C4005 1.429 . S
C4002 C3985 1.574 . S
C4002 H3996 0.949 . S
C4002 C4006 1.368 . S
C4003 C3984 1.429 . S
C4003 C3997 1.429 . S
C4003 C4004 1.523 . S
C4004 C3985 1.368 . S
C4004 C3998 1.368 . S
C4004 C4003 1.523 . S
C4005 C3989 1.429 . S
C4005 C4001 1.429 . S
C4005 C4006 1.523 . S
C4006 C3990 1.368 . S
C4006 C4002 1.368 . S
C4006 C4005 1.523 . S
H4007 C3982 0.950 . S
H4008 C3984 0.950 . S
H4009 C3985 0.949 . S
H4010 C3987 0.950 . S
H4011 C3989 0.950 . S
C4012 C4013 1.349 . S
C4012 C4014 1.327 . S
C4012 H4037 0.950 . S
C4013 C4012 1.349 . S
C4013 C4029 1.349 . S
C4014 C4012 1.327 . S
C4014 C4033 1.429 . S
C4014 H4038 0.950 . S
C4015 C4032 1.574 . S
C4015 C4034 1.368 . S
C4015 H4039 0.949 . S
H4016 C4020 0.949 . S
C4017 C4018 1.349 . S
C4017 C4019 1.327 . S
C4017 H4040 0.950 . S
C4018 C4017 1.349 . S
C4018 C4030 1.349 . S
C4019 C4017 1.327 . S
C4019 C4035 1.429 . S
C4019 H4041 0.950 . S
C4020 H4016 0.949 . S
C4020 C4028 1.574 . S
C4020 C4036 1.368 . S
H4021 C4029 0.950 . S
H4022 C4027 0.950 . S
H4023 C4028 0.949 . S
H4024 C4030 0.950 . S
H4025 C4031 0.950 . S
H4026 C4032 0.949 . S
C4027 H4022 0.950 . S
C4027 C4029 1.327 . S
C4027 C4033 1.429 . S
C4028 C4020 1.574 . S
C4028 H4023 0.949 . S
C4028 C4034 1.368 . S
C4029 C4013 1.349 . S
C4029 H4021 0.950 . S
C4029 C4027 1.327 . S
C4030 C4018 1.349 . S
C4030 H4024 0.950 . S
C4030 C4031 1.327 . S
C4031 H4025 0.950 . S
C4031 C4030 1.327 . S
C4031 C4035 1.429 . S
C4032 C4015 1.574 . S
C4032 H4026 0.949 . S
C4032 C4036 1.368 . S
C4033 C4014 1.429 . S
C4033 C4027 1.429 . S
C4033 C4034 1.523 . S
C4034 C4015 1.368 . S
C4034 C4028 1.368 . S
C4034 C4033 1.523 . S
C4035 C4019 1.429 . S
C4035 C4031 1.429 . S
C4035 C4036 1.523 . S
C4036 C4020 1.368 . S
C4036 C4032 1.368 . S
C4036 C4035 1.523 . S
H4037 C4012 0.950 . S
H4038 C4014 0.950 . S
H4039 C4015 0.949 . S
H4040 C4017 0.950 . S
H4041 C4019 0.950 . S
C4042 C4043 1.349 . S
C4042 C4044 1.327 . S
C4042 H4067 0.950 . S
C4043 C4042 1.349 . S
C4043 C4059 1.349 . S
C4044 C4042 1.327 . S
C4044 C4063 1.429 . S
C4044 H4068 0.950 . S
C4045 C4062 1.574 . S
C4045 C4064 1.368 . S
C4045 H4069 0.949 . S
H4046 C4050 0.949 . S
C4047 C4048 1.349 . S
C4047 C4049 1.327 . S
C4047 H4070 0.950 . S
C4048 C4047 1.349 . S
C4048 C4060 1.349 . S
C4049 C4047 1.327 . S
C4049 C4065 1.429 . S
C4049 H4071 0.950 . S
C4050 H4046 0.949 . S
C4050 C4058 1.574 . S
C4050 C4066 1.368 . S
H4051 C4059 0.950 . S
H4052 C4057 0.950 . S
H4053 C4058 0.949 . S
H4054 C4060 0.950 . S
H4055 C4061 0.950 . S
H4056 C4062 0.949 . S
C4057 H4052 0.950 . S
C4057 C4059 1.327 . S
C4057 C4063 1.429 . S
C4058 C4050 1.574 . S
C4058 H4053 0.949 . S
C4058 C4064 1.368 . S
C4059 C4043 1.349 . S
C4059 H4051 0.950 . S
C4059 C4057 1.327 . S
C4060 C4048 1.349 . S
C4060 H4054 0.950 . S
C4060 C4061 1.327 . S
C4061 H4055 0.950 . S
C4061 C4060 1.327 . S
C4061 C4065 1.429 . S
C4062 C4045 1.574 . S
C4062 H4056 0.949 . S
C4062 C4066 1.368 . S
C4063 C4044 1.429 . S
C4063 C4057 1.429 . S
C4063 C4064 1.523 . S
C4064 C4045 1.368 . S
C4064 C4058 1.368 . S
C4064 C4063 1.523 . S
C4065 C4049 1.429 . S
C4065 C4061 1.429 . S
C4065 C4066 1.523 . S
C4066 C4050 1.368 . S
C4066 C4062 1.368 . S
C4066 C4065 1.523 . S
H4067 C4042 0.950 . S
H4068 C4044 0.950 . S
H4069 C4045 0.949 . S
H4070 C4047 0.950 . S
H4071 C4049 0.950 . S
C4072 C4073 1.349 . S
C4072 C4074 1.327 . S
C4072 H4097 0.950 . S
C4073 C4072 1.349 . S
C4073 C4089 1.349 . S
C4074 C4072 1.327 . S
C4074 C4093 1.429 . S
C4074 H4098 0.950 . S
C4075 C4092 1.574 . S
C4075 C4094 1.368 . S
C4075 H4099 0.949 . S
H4076 C4080 0.949 . S
C4077 C4078 1.349 . S
C4077 C4079 1.327 . S
C4077 H4100 0.950 . S
C4078 C4077 1.349 . S
C4078 C4090 1.349 . S
C4079 C4077 1.327 . S
C4079 C4095 1.429 . S
C4079 H4101 0.950 . S
C4080 H4076 0.949 . S
C4080 C4088 1.574 . S
C4080 C4096 1.368 . S
H4081 C4089 0.950 . S
H4082 C4087 0.950 . S
H4083 C4088 0.949 . S
H4084 C4090 0.950 . S
H4085 C4091 0.950 . S
H4086 C4092 0.949 . S
C4087 H4082 0.950 . S
C4087 C4089 1.327 . S
C4087 C4093 1.429 . S
C4088 C4080 1.574 . S
C4088 H4083 0.949 . S
C4088 C4094 1.368 . S
C4089 C4073 1.349 . S
C4089 H4081 0.950 . S
C4089 C4087 1.327 . S
C4090 C4078 1.349 . S
C4090 H4084 0.950 . S
C4090 C4091 1.327 . S
C4091 H4085 0.950 . S
C4091 C4090 1.327 . S
C4091 C4095 1.429 . S
C4092 C4075 1.574 . S
C4092 H4086 0.949 . S
C4092 C4096 1.368 . S
C4093 C4074 1.429 . S
C4093 C4087 1.429 . S
C4093 C4094 1.523 . S
C4094 C4075 1.368 . S
C4094 C4088 1.368 . S
C4094 C4093 1.523 . S
C4095 C4079 1.429 . S
C4095 C4091 1.429 . S
C4095 C4096 1.523 . S
C4096 C4080 1.368 . S
C4096 C4092 1.368 . S
C4096 C4095 1.523 . S
H4097 C4072 0.950 . S
H4098 C4074 0.950 . S
H4099 C4075 0.949 . S
H4100 C4077 0.950 . S
H4101 C4079 0.950 . S
C4102 C4103 1.349 . S
C4102 C4104 1.327 . S
C4102 H4127 0.950 . S
C4103 C4102 1.349 . S
C4103 C4119 1.349 . S
C4104 C4102 1.327 . S
C4104 C4123 1.429 . S
C4104 H4128 0.950 . S
C4105 C4122 1.574 . S
C4105 C4124 1.368 . S
C4105 H4129 0.949 . S
H4106 C4110 0.949 . S
C4107 C4108 1.349 . S
C4107 C4109 1.327 . S
C4107 H4130 0.950 . S
C4108 C4107 1.349 . S
C4108 C4120 1.349 . S
C4109 C4107 1.327 . S
C4109 C4125 1.429 . S
C4109 H4131 0.950 . S
C4110 H4106 0.949 . S
C4110 C4118 1.574 . S
C4110 C4126 1.368 . S
H4111 C4119 0.950 . S
H4112 C4117 0.950 . S
H4113 C4118 0.949 . S
H4114 C4120 0.950 . S
H4115 C4121 0.950 . S
H4116 C4122 0.949 . S
C4117 H4112 0.950 . S
C4117 C4119 1.327 . S
C4117 C4123 1.429 . S
C4118 C4110 1.574 . S
C4118 H4113 0.949 . S
C4118 C4124 1.368 . S
C4119 C4103 1.349 . S
C4119 H4111 0.950 . S
C4119 C4117 1.327 . S
C4120 C4108 1.349 . S
C4120 H4114 0.950 . S
C4120 C4121 1.327 . S
C4121 H4115 0.950 . S
C4121 C4120 1.327 . S
C4121 C4125 1.429 . S
C4122 C4105 1.574 . S
C4122 H4116 0.949 . S
C4122 C4126 1.368 . S
C4123 C4104 1.429 . S
C4123 C4117 1.429 . S
C4123 C4124 1.523 . S
C4124 C4105 1.368 . S
C4124 C4118 1.368 . S
C4124 C4123 1.523 . S
C4125 C4109 1.429 . S
C4125 C4121 1.429 . S
C4125 C4126 1.523 . S
C4126 C4110 1.368 . S
C4126 C4122 1.368 . S
C4126 C4125 1.523 . S
H4127 C4102 0.950 . S
H4128 C4104 0.950 . S
H4129 C4105 0.949 . S
H4130 C4107 0.950 . S
H4131 C4109 0.950 . S
C4132 C4133 1.349 . S
C4132 C4134 1.327 . S
C4132 H4157 0.950 . S
C4133 C4132 1.349 . S
C4133 C4149 1.349 . S
C4134 C4132 1.327 . S
C4134 C4153 1.429 . S
C4134 H4158 0.950 . S
C4135 C4152 1.574 . S
C4135 C4154 1.368 . S
C4135 H4159 0.949 . S
H4136 C4140 0.949 . S
C4137 C4138 1.349 . S
C4137 C4139 1.327 . S
C4137 H4160 0.950 . S
C4138 C4137 1.349 . S
C4138 C4150 1.349 . S
C4139 C4137 1.327 . S
C4139 C4155 1.429 . S
C4139 H4161 0.950 . S
C4140 H4136 0.949 . S
C4140 C4148 1.574 . S
C4140 C4156 1.368 . S
H4141 C4149 0.950 . S
H4142 C4147 0.950 . S
H4143 C4148 0.949 . S
H4144 C4150 0.950 . S
H4145 C4151 0.950 . S
H4146 C4152 0.949 . S
C4147 H4142 0.950 . S
C4147 C4149 1.327 . S
C4147 C4153 1.429 . S
C4148 C4140 1.574 . S
C4148 H4143 0.949 . S
C4148 C4154 1.368 . S
C4149 C4133 1.349 . S
C4149 H4141 0.950 . S
C4149 C4147 1.327 . S
C4150 C4138 1.349 . S
C4150 H4144 0.950 . S
C4150 C4151 1.327 . S
C4151 H4145 0.950 . S
C4151 C4150 1.327 . S
C4151 C4155 1.429 . S
C4152 C4135 1.574 . S
C4152 H4146 0.949 . S
C4152 C4156 1.368 . S
C4153 C4134 1.429 . S
C4153 C4147 1.429 . S
C4153 C4154 1.523 . S
C4154 C4135 1.368 . S
C4154 C4148 1.368 . S
C4154 C4153 1.523 . S
C4155 C4139 1.429 . S
C4155 C4151 1.429 . S
C4155 C4156 1.523 . S
C4156 C4140 1.368 . S
C4156 C4152 1.368 . S
C4156 C4155 1.523 . S
H4157 C4132 0.950 . S
H4158 C4134 0.950 . S
H4159 C4135 0.949 . S
H4160 C4137 0.950 . S
H4161 C4139 0.950 . S
C4162 C4163 1.349 . S
C4162 C4164 1.327 . S
C4162 H4187 0.950 . S
C4163 C4162 1.349 . S
C4163 C4179 1.349 . S
C4164 C4162 1.327 . S
C4164 C4183 1.429 . S
C4164 H4188 0.950 . S
C4165 C4182 1.574 . S
C4165 C4184 1.368 . S
C4165 H4189 0.949 . S
H4166 C4170 0.949 . S
C4167 C4168 1.349 . S
C4167 C4169 1.327 . S
C4167 H4190 0.950 . S
C4168 C4167 1.349 . S
C4168 C4180 1.349 . S
C4169 C4167 1.327 . S
C4169 C4185 1.429 . S
C4169 H4191 0.950 . S
C4170 H4166 0.949 . S
C4170 C4178 1.574 . S
C4170 C4186 1.368 . S
H4171 C4179 0.950 . S
H4172 C4177 0.950 . S
H4173 C4178 0.949 . S
H4174 C4180 0.950 . S
H4175 C4181 0.950 . S
H4176 C4182 0.949 . S
C4177 H4172 0.950 . S
C4177 C4179 1.327 . S
C4177 C4183 1.429 . S
C4178 C4170 1.574 . S
C4178 H4173 0.949 . S
C4178 C4184 1.368 . S
C4179 C4163 1.349 . S
C4179 H4171 0.950 . S
C4179 C4177 1.327 . S
C4180 C4168 1.349 . S
C4180 H4174 0.950 . S
C4180 C4181 1.327 . S
C4181 H4175 0.950 . S
C4181 C4180 1.327 . S
C4181 C4185 1.429 . S
C4182 C4165 1.574 . S
C4182 H4176 0.949 . S
C4182 C4186 1.368 . S
C4183 C4164 1.429 . S
C4183 C4177 1.429 . S
C4183 C4184 1.523 . S
C4184 C4165 1.368 . S
C4184 C4178 1.368 . S
C4184 C4183 1.523 . S
C4185 C4169 1.429 . S
C4185 C4181 1.429 . S
C4185 C4186 1.523 . S
C4186 C4170 1.368 . S
C4186 C4182 1.368 . S
C4186 C4185 1.523 . S
H4187 C4162 0.950 . S
H4188 C4164 0.950 . S
H4189 C4165 0.949 . S
H4190 C4167 0.950 . S
H4191 C4169 0.950 . S
C4192 C4193 1.349 . S
C4192 C4194 1.327 . S
C4192 H4217 0.950 . S
C4193 C4192 1.349 . S
C4193 C4209 1.349 . S
C4194 C4192 1.327 . S
C4194 C4213 1.429 . S
C4194 H4218 0.950 . S
C4195 C4212 1.574 . S
C4195 C4214 1.368 . S
C4195 H4219 0.949 . S
H4196 C4200 0.949 . S
C4197 C4198 1.349 . S
C4197 C4199 1.327 . S
C4197 H4220 0.950 . S
C4198 C4197 1.349 . S
C4198 C4210 1.349 . S
C4199 C4197 1.327 . S
C4199 C4215 1.429 . S
C4199 H4221 0.950 . S
C4200 H4196 0.949 . S
C4200 C4208 1.574 . S
C4200 C4216 1.368 . S
H4201 C4209 0.950 . S
H4202 C4207 0.950 . S
H4203 C4208 0.949 . S
H4204 C4210 0.950 . S
H4205 C4211 0.950 . S
H4206 C4212 0.949 . S
C4207 H4202 0.950 . S
C4207 C4209 1.327 . S
C4207 C4213 1.429 . S
C4208 C4200 1.574 . S
C4208 H4203 0.949 . S
C4208 C4214 1.368 . S
C4209 C4193 1.349 . S
C4209 H4201 0.950 . S
C4209 C4207 1.327 . S
C4210 C4198 1.349 . S
C4210 H4204 0.950 . S
C4210 C4211 1.327 . S
C4211 H4205 0.950 . S
C4211 C4210 1.327 . S
C4211 C4215 1.429 . S
C4212 C4195 1.574 . S
C4212 H4206 0.949 . S
C4212 C4216 1.368 . S
C4213 C4194 1.429 . S
C4213 C4207 1.429 . S
C4213 C4214 1.523 . S
C4214 C4195 1.368 . S
C4214 C4208 1.368 . S
C4214 C4213 1.523 . S
C4215 C4199 1.429 . S
C4215 C4211 1.429 . S
C4215 C4216 1.523 . S
C4216 C4200 1.368 . S
C4216 C4212 1.368 . S
C4216 C4215 1.523 . S
H4217 C4192 0.950 . S
H4218 C4194 0.950 . S
H4219 C4195 0.949 . S
H4220 C4197 0.950 . S
H4221 C4199 0.950 . S
C4222 C4223 1.349 . S
C4222 C4224 1.327 . S
C4222 H4247 0.950 . S
C4223 C4222 1.349 . S
C4223 C4239 1.349 . S
C4224 C4222 1.327 . S
C4224 C4243 1.429 . S
C4224 H4248 0.950 . S
C4225 C4242 1.574 . S
C4225 C4244 1.368 . S
C4225 H4249 0.949 . S
H4226 C4230 0.949 . S
C4227 C4228 1.349 . S
C4227 C4229 1.327 . S
C4227 H4250 0.950 . S
C4228 C4227 1.349 . S
C4228 C4240 1.349 . S
C4229 C4227 1.327 . S
C4229 C4245 1.429 . S
C4229 H4251 0.950 . S
C4230 H4226 0.949 . S
C4230 C4238 1.574 . S
C4230 C4246 1.368 . S
H4231 C4239 0.950 . S
H4232 C4237 0.950 . S
H4233 C4238 0.949 . S
H4234 C4240 0.950 . S
H4235 C4241 0.950 . S
H4236 C4242 0.949 . S
C4237 H4232 0.950 . S
C4237 C4239 1.327 . S
C4237 C4243 1.429 . S
C4238 C4230 1.574 . S
C4238 H4233 0.949 . S
C4238 C4244 1.368 . S
C4239 C4223 1.349 . S
C4239 H4231 0.950 . S
C4239 C4237 1.327 . S
C4240 C4228 1.349 . S
C4240 H4234 0.950 . S
C4240 C4241 1.327 . S
C4241 H4235 0.950 . S
C4241 C4240 1.327 . S
C4241 C4245 1.429 . S
C4242 C4225 1.574 . S
C4242 H4236 0.949 . S
C4242 C4246 1.368 . S
C4243 C4224 1.429 . S
C4243 C4237 1.429 . S
C4243 C4244 1.523 . S
C4244 C4225 1.368 . S
C4244 C4238 1.368 . S
C4244 C4243 1.523 . S
C4245 C4229 1.429 . S
C4245 C4241 1.429 . S
C4245 C4246 1.523 . S
C4246 C4230 1.368 . S
C4246 C4242 1.368 . S
C4246 C4245 1.523 . S
H4247 C4222 0.950 . S
H4248 C4224 0.950 . S
H4249 C4225 0.949 . S
H4250 C4227 0.950 . S
H4251 C4229 0.950 . S
C4252 C4253 1.349 . S
C4252 C4254 1.327 . S
C4252 H4277 0.947 . S
C4253 C4252 1.349 . S
C4253 C4269 1.349 . S
C4254 C4252 1.327 . S
C4254 C4273 1.429 . S
C4254 H4278 0.950 . S
C4255 C4272 1.574 . S
C4255 C4274 1.368 . S
C4255 H4279 0.949 . S
H4256 C4260 0.949 . S
C4257 C4258 1.349 . S
C4257 C4259 1.335 . S
C4257 H4280 0.950 . S
C4258 C4257 1.349 . S
C4258 C4270 1.349 1_554 S
C4259 C4257 1.335 . S
C4259 C4275 1.406 1_554 S
C4259 H4281 0.965 . S
C4260 H4256 0.949 . S
C4260 C4268 1.574 . S
C4260 C4276 1.368 . S
H4261 C4269 0.950 . S
H4262 C4267 0.950 . S
H4263 C4268 0.949 . S
H4264 C4270 0.950 . S
H4265 C4271 0.950 . S
H4266 C4272 0.949 . S
C4267 H4262 0.950 . S
C4267 C4269 1.327 . S
C4267 C4273 1.429 . S
C4268 C4260 1.574 . S
C4268 H4263 0.949 . S
C4268 C4274 1.368 . S
C4269 C4253 1.349 . S
C4269 H4261 0.950 . S
C4269 C4267 1.327 . S
C4270 C4258 1.349 1_556 S
C4270 H4264 0.950 . S
C4270 C4271 1.327 . S
C4271 H4265 0.950 . S
C4271 C4270 1.327 . S
C4271 C4275 1.429 . S
C4272 C4255 1.574 . S
C4272 H4266 0.949 . S
C4272 C4276 1.368 . S
C4273 C4254 1.429 . S
C4273 C4267 1.429 . S
C4273 C4274 1.523 . S
C4274 C4255 1.368 . S
C4274 C4268 1.368 . S
C4274 C4273 1.523 . S
C4275 C4259 1.406 1_556 S
C4275 C4271 1.429 . S
C4275 C4276 1.523 . S
C4276 C4260 1.368 . S
C4276 C4272 1.368 . S
C4276 C4275 1.523 . S
H4277 C4252 0.947 . S
H4278 C4254 0.950 . S
H4279 C4255 0.949 . S
H4280 C4257 0.950 . S
H4281 C4259 0.965 . S
C4282 C4283 1.349 . S
C4282 C4284 1.327 . S
C4282 H4307 0.950 . S
C4283 C4282 1.349 . S
C4283 C4299 1.349 . S
C4284 C4282 1.327 . S
C4284 C4303 1.429 . S
C4284 H4308 0.950 . S
C4285 C4302 1.574 . S
C4285 C4304 1.368 . S
C4285 H4309 0.949 . S
H4286 C4290 0.949 . S
C4287 C4288 1.349 . S
C4287 C4289 1.327 . S
C4287 H4310 0.950 . S
C4288 C4287 1.349 . S
C4288 C4300 1.349 . S
C4289 C4287 1.327 . S
C4289 C4305 1.429 . S
C4289 H4311 0.950 . S
C4290 H4286 0.949 . S
C4290 C4298 1.574 . S
C4290 C4306 1.368 . S
H4291 C4299 0.950 . S
H4292 C4297 0.950 . S
H4293 C4298 0.949 . S
H4294 C4300 0.950 . S
H4295 C4301 0.950 . S
H4296 C4302 0.949 . S
C4297 H4292 0.950 . S
C4297 C4299 1.327 . S
C4297 C4303 1.429 . S
C4298 C4290 1.574 . S
C4298 H4293 0.949 . S
C4298 C4304 1.368 . S
C4299 C4283 1.349 . S
C4299 H4291 0.950 . S
C4299 C4297 1.327 . S
C4300 C4288 1.349 . S
C4300 H4294 0.950 . S
C4300 C4301 1.327 . S
C4301 H4295 0.950 . S
C4301 C4300 1.327 . S
C4301 C4305 1.429 . S
C4302 C4285 1.574 . S
C4302 H4296 0.949 . S
C4302 C4306 1.368 . S
C4303 C4284 1.429 . S
C4303 C4297 1.429 . S
C4303 C4304 1.523 . S
C4304 C4285 1.368 . S
C4304 C4298 1.368 . S
C4304 C4303 1.523 . S
C4305 C4289 1.429 . S
C4305 C4301 1.429 . S
C4305 C4306 1.523 . S
C4306 C4290 1.368 . S
C4306 C4302 1.368 . S
C4306 C4305 1.523 . S
H4307 C4282 0.950 . S
H4308 C4284 0.950 . S
H4309 C4285 0.949 . S
H4310 C4287 0.950 . S
H4311 C4289 0.950 . S
C4312 C4313 1.349 . S
C4312 C4314 1.327 . S
C4312 H4337 0.950 . S
C4313 C4312 1.349 . S
C4313 C4329 1.349 . S
C4314 C4312 1.327 . S
C4314 C4333 1.429 . S
C4314 H4338 0.950 . S
C4315 C4332 1.574 . S
C4315 C4334 1.368 . S
C4315 H4339 0.949 . S
H4316 C4320 0.949 . S
C4317 C4318 1.349 . S
C4317 C4319 1.327 . S
C4317 H4340 0.950 . S
C4318 C4317 1.349 . S
C4318 C4330 1.349 . S
C4319 C4317 1.327 . S
C4319 C4335 1.429 . S
C4319 H4341 0.950 . S
C4320 H4316 0.949 . S
C4320 C4328 1.574 . S
C4320 C4336 1.368 . S
H4321 C4329 0.950 . S
H4322 C4327 0.950 . S
H4323 C4328 0.949 . S
H4324 C4330 0.950 . S
H4325 C4331 0.950 . S
H4326 C4332 0.949 . S
C4327 H4322 0.950 . S
C4327 C4329 1.327 . S
C4327 C4333 1.429 . S
C4328 C4320 1.574 . S
C4328 H4323 0.949 . S
C4328 C4334 1.368 . S
C4329 C4313 1.349 . S
C4329 H4321 0.950 . S
C4329 C4327 1.327 . S
C4330 C4318 1.349 . S
C4330 H4324 0.950 . S
C4330 C4331 1.327 . S
C4331 H4325 0.950 . S
C4331 C4330 1.327 . S
C4331 C4335 1.429 . S
C4332 C4315 1.574 . S
C4332 H4326 0.949 . S
C4332 C4336 1.368 . S
C4333 C4314 1.429 . S
C4333 C4327 1.429 . S
C4333 C4334 1.523 . S
C4334 C4315 1.368 . S
C4334 C4328 1.368 . S
C4334 C4333 1.523 . S
C4335 C4319 1.429 . S
C4335 C4331 1.429 . S
C4335 C4336 1.523 . S
C4336 C4320 1.368 . S
C4336 C4332 1.368 . S
C4336 C4335 1.523 . S
H4337 C4312 0.950 . S
H4338 C4314 0.950 . S
H4339 C4315 0.949 . S
H4340 C4317 0.950 . S
H4341 C4319 0.950 . S
C4342 C4343 1.349 . S
C4342 C4344 1.327 . S
C4342 H4367 0.950 . S
C4343 C4342 1.349 . S
C4343 C4359 1.349 . S
C4344 C4342 1.327 . S
C4344 C4363 1.429 . S
C4344 H4368 0.950 . S
C4345 C4362 1.574 . S
C4345 C4364 1.368 . S
C4345 H4369 0.949 . S
H4346 C4350 0.949 . S
C4347 C4348 1.349 . S
C4347 C4349 1.327 . S
C4347 H4370 0.950 . S
C4348 C4347 1.349 . S
C4348 C4360 1.349 . S
C4349 C4347 1.327 . S
C4349 C4365 1.429 . S
C4349 H4371 0.950 . S
C4350 H4346 0.949 . S
C4350 C4358 1.574 . S
C4350 C4366 1.368 . S
H4351 C4359 0.966 . S
H4352 C4357 0.950 . S
H4353 C4358 0.949 . S
H4354 C4360 0.950 . S
H4355 C4361 0.950 . S
H4356 C4362 0.949 . S
C4357 H4352 0.950 . S
C4357 C4359 1.327 . S
C4357 C4363 1.429 . S
C4358 C4350 1.574 . S
C4358 H4353 0.949 . S
C4358 C4364 1.368 . S
C4359 C4343 1.349 . S
C4359 H4351 0.966 . S
C4359 C4357 1.327 . S
C4360 C4348 1.349 . S
C4360 H4354 0.950 . S
C4360 C4361 1.327 . S
C4361 H4355 0.950 . S
C4361 C4360 1.327 . S
C4361 C4365 1.429 . S
C4362 C4345 1.574 . S
C4362 H4356 0.949 . S
C4362 C4366 1.368 . S
C4363 C4344 1.429 . S
C4363 C4357 1.429 . S
C4363 C4364 1.523 . S
C4364 C4345 1.368 . S
C4364 C4358 1.368 . S
C4364 C4363 1.523 . S
C4365 C4349 1.429 . S
C4365 C4361 1.429 . S
C4365 C4366 1.523 . S
C4366 C4350 1.368 . S
C4366 C4362 1.368 . S
C4366 C4365 1.523 . S
H4367 C4342 0.950 . S
H4368 C4344 0.950 . S
H4369 C4345 0.949 . S
H4370 C4347 0.950 . S
H4371 C4349 0.950 . S
C4372 C4373 1.349 . S
C4372 C4374 1.327 . S
C4372 H4397 0.950 . S
C4373 C4372 1.349 . S
C4373 C4389 1.382 . S
C4374 C4372 1.327 . S
C4374 C4393 1.429 . S
C4374 H4398 0.950 . S
C4375 C4392 1.574 . S
C4375 C4394 1.368 . S
C4375 H4399 0.949 . S
H4376 C4380 0.949 . S
C4377 C4378 1.349 . S
C4377 C4379 1.327 . S
C4377 H4400 0.950 . S
C4378 C4377 1.349 . S
C4378 C4390 1.349 . S
C4379 C4377 1.327 . S
C4379 C4395 1.429 . S
C4379 H4401 0.950 . S
C4380 H4376 0.949 . S
C4380 C4388 1.570 . S
C4380 C4396 1.368 . S
H4381 C4389 0.947 1_455 S
H4382 C4387 0.950 . S
H4383 C4388 0.953 1_655 S
H4384 C4390 0.950 . S
H4385 C4391 0.950 . S
H4386 C4392 0.949 . S
C4387 H4382 0.950 . S
C4387 C4389 1.301 1_455 S
C4387 C4393 1.429 1_455 S
C4388 C4380 1.570 . S
C4388 H4383 0.953 1_455 S
C4388 C4394 1.367 . S
C4389 C4373 1.382 . S
C4389 H4381 0.947 1_655 S
C4389 C4387 1.301 1_655 S
C4390 C4378 1.349 . S
C4390 H4384 0.950 . S
C4390 C4391 1.327 . S
C4391 H4385 0.950 . S
C4391 C4390 1.327 . S
C4391 C4395 1.429 . S
C4392 C4375 1.574 . S
C4392 H4386 0.949 . S
C4392 C4396 1.368 . S
C4393 C4374 1.429 . S
C4393 C4387 1.429 1_655 S
C4393 C4394 1.523 1_655 S
C4394 C4375 1.368 . S
C4394 C4388 1.367 . S
C4394 C4393 1.523 1_455 S
C4395 C4379 1.429 . S
C4395 C4391 1.429 . S
C4395 C4396 1.523 . S
C4396 C4380 1.368 . S
C4396 C4392 1.368 . S
C4396 C4395 1.523 . S
H4397 C4372 0.950 . S
H4398 C4374 0.950 . S
H4399 C4375 0.949 . S
H4400 C4377 0.950 . S
H4401 C4379 0.950 . S
C4402 C4403 1.349 . S
C4402 C4404 1.327 . S
C4402 H4427 0.950 . S
C4403 C4402 1.349 . S
C4403 C4419 1.349 . S
C4404 C4402 1.327 . S
C4404 C4423 1.429 . S
C4404 H4428 0.950 . S
C4405 C4422 1.574 . S
C4405 C4424 1.368 . S
C4405 H4429 0.949 . S
H4406 C4410 0.949 . S
C4407 C4408 1.349 . S
C4407 C4409 1.327 . S
C4407 H4430 0.950 . S
C4408 C4407 1.349 . S
C4408 C4420 1.349 . S
C4409 C4407 1.327 . S
C4409 C4425 1.429 . S
C4409 H4431 0.950 . S
C4410 H4406 0.949 . S
C4410 C4418 1.574 . S
C4410 C4426 1.368 . S
H4411 C4419 0.950 . S
H4412 C4417 0.950 . S
H4413 C4418 0.949 . S
H4414 C4420 0.950 . S
H4415 C4421 0.950 . S
H4416 C4422 0.949 . S
C4417 H4412 0.950 . S
C4417 C4419 1.327 . S
C4417 C4423 1.429 . S
C4418 C4410 1.574 . S
C4418 H4413 0.949 . S
C4418 C4424 1.368 . S
C4419 C4403 1.349 . S
C4419 H4411 0.950 . S
C4419 C4417 1.327 . S
C4420 C4408 1.349 . S
C4420 H4414 0.950 . S
C4420 C4421 1.327 . S
C4421 H4415 0.950 . S
C4421 C4420 1.327 . S
C4421 C4425 1.429 . S
C4422 C4405 1.574 . S
C4422 H4416 0.949 . S
C4422 C4426 1.368 . S
C4423 C4404 1.429 . S
C4423 C4417 1.429 . S
C4423 C4424 1.523 . S
C4424 C4405 1.368 . S
C4424 C4418 1.368 . S
C4424 C4423 1.523 . S
C4425 C4409 1.429 . S
C4425 C4421 1.429 . S
C4425 C4426 1.523 . S
C4426 C4410 1.368 . S
C4426 C4422 1.368 . S
C4426 C4425 1.523 . S
H4427 C4402 0.950 . S
H4428 C4404 0.950 . S
H4429 C4405 0.949 . S
H4430 C4407 0.950 . S
H4431 C4409 0.950 . S
C4432 C4433 1.349 . S
C4432 C4434 1.327 . S
C4432 H4457 0.950 . S
C4433 C4432 1.349 . S
C4433 C4449 1.349 . S
C4434 C4432 1.327 . S
C4434 C4453 1.429 . S
C4434 H4458 0.950 . S
C4435 C4452 1.574 . S
C4435 C4454 1.368 . S
C4435 H4459 0.949 . S
H4436 C4440 0.949 . S
C4437 C4438 1.349 . S
C4437 C4439 1.327 . S
C4437 H4460 0.950 . S
C4438 C4437 1.349 . S
C4438 C4450 1.349 . S
C4439 C4437 1.327 . S
C4439 C4455 1.429 . S
C4439 H4461 0.950 . S
C4440 H4436 0.949 . S
C4440 C4448 1.574 . S
C4440 C4456 1.368 . S
H4441 C4449 0.950 . S
H4442 C4447 0.950 . S
H4443 C4448 0.949 . S
H4444 C4450 0.950 . S
H4445 C4451 0.950 . S
H4446 C4452 0.949 . S
C4447 H4442 0.950 . S
C4447 C4449 1.327 . S
C4447 C4453 1.429 . S
C4448 C4440 1.574 . S
C4448 H4443 0.949 . S
C4448 C4454 1.368 . S
C4449 C4433 1.349 . S
C4449 H4441 0.950 . S
C4449 C4447 1.327 . S
C4450 C4438 1.349 . S
C4450 H4444 0.950 . S
C4450 C4451 1.327 . S
C4451 H4445 0.950 . S
C4451 C4450 1.327 . S
C4451 C4455 1.429 . S
C4452 C4435 1.574 . S
C4452 H4446 0.949 . S
C4452 C4456 1.368 . S
C4453 C4434 1.429 . S
C4453 C4447 1.429 . S
C4453 C4454 1.523 . S
C4454 C4435 1.368 . S
C4454 C4448 1.368 . S
C4454 C4453 1.523 . S
C4455 C4439 1.429 . S
C4455 C4451 1.429 . S
C4455 C4456 1.523 . S
C4456 C4440 1.368 . S
C4456 C4452 1.368 . S
C4456 C4455 1.523 . S
H4457 C4432 0.950 . S
H4458 C4434 0.950 . S
H4459 C4435 0.949 . S
H4460 C4437 0.950 . S
H4461 C4439 0.950 . S
C4462 C4463 1.349 . S
C4462 C4464 1.327 . S
C4462 H4487 0.950 . S
C4463 C4462 1.349 . S
C4463 C4479 1.349 . S
C4464 C4462 1.327 . S
C4464 C4483 1.429 . S
C4464 H4488 0.950 . S
C4465 C4482 1.574 . S
C4465 C4484 1.368 . S
C4465 H4489 0.949 . S
H4466 C4470 0.949 . S
C4467 C4468 1.349 . S
C4467 C4469 1.327 . S
C4467 H4490 0.950 . S
C4468 C4467 1.349 . S
C4468 C4480 1.349 . S
C4469 C4467 1.327 . S
C4469 C4485 1.429 . S
C4469 H4491 0.950 . S
C4470 H4466 0.949 . S
C4470 C4478 1.574 . S
C4470 C4486 1.368 . S
H4471 C4479 0.950 . S
H4472 C4477 0.950 . S
H4473 C4478 0.949 . S
H4474 C4480 0.950 . S
H4475 C4481 0.950 . S
H4476 C4482 0.949 . S
C4477 H4472 0.950 . S
C4477 C4479 1.327 . S
C4477 C4483 1.429 . S
C4478 C4470 1.574 . S
C4478 H4473 0.949 . S
C4478 C4484 1.368 . S
C4479 C4463 1.349 . S
C4479 H4471 0.950 . S
C4479 C4477 1.327 . S
C4480 C4468 1.349 . S
C4480 H4474 0.950 . S
C4480 C4481 1.327 . S
C4481 H4475 0.950 . S
C4481 C4480 1.327 . S
C4481 C4485 1.429 . S
C4482 C4465 1.574 . S
C4482 H4476 0.949 . S
C4482 C4486 1.368 . S
C4483 C4464 1.429 . S
C4483 C4477 1.429 . S
C4483 C4484 1.523 . S
C4484 C4465 1.368 . S
C4484 C4478 1.368 . S
C4484 C4483 1.523 . S
C4485 C4469 1.429 . S
C4485 C4481 1.429 . S
C4485 C4486 1.523 . S
C4486 C4470 1.368 . S
C4486 C4482 1.368 . S
C4486 C4485 1.523 . S
H4487 C4462 0.950 . S
H4488 C4464 0.950 . S
H4489 C4465 0.949 . S
H4490 C4467 0.950 . S
H4491 C4469 0.950 . S
C4492 C4493 1.349 . S
C4492 C4494 1.327 . S
C4492 H4517 0.950 . S
C4493 C4492 1.349 . S
C4493 C4509 1.349 . S
C4494 C4492 1.327 . S
C4494 C4513 1.429 . S
C4494 H4518 0.950 . S
C4495 C4512 1.574 . S
C4495 C4514 1.368 . S
C4495 H4519 0.949 . S
H4496 C4500 0.949 . S
C4497 C4498 1.349 . S
C4497 C4499 1.327 . S
C4497 H4520 0.950 . S
C4498 C4497 1.349 . S
C4498 C4510 1.349 . S
C4499 C4497 1.327 . S
C4499 C4515 1.429 . S
C4499 H4521 0.950 . S
C4500 H4496 0.949 . S
C4500 C4508 1.574 . S
C4500 C4516 1.368 . S
H4501 C4509 0.950 . S
H4502 C4507 0.950 . S
H4503 C4508 0.949 . S
H4504 C4510 0.950 . S
H4505 C4511 0.950 . S
H4506 C4512 0.949 . S
C4507 H4502 0.950 . S
C4507 C4509 1.327 . S
C4507 C4513 1.429 . S
C4508 C4500 1.574 . S
C4508 H4503 0.949 . S
C4508 C4514 1.368 . S
C4509 C4493 1.349 . S
C4509 H4501 0.950 . S
C4509 C4507 1.327 . S
C4510 C4498 1.349 . S
C4510 H4504 0.950 . S
C4510 C4511 1.327 . S
C4511 H4505 0.950 . S
C4511 C4510 1.327 . S
C4511 C4515 1.429 . S
C4512 C4495 1.574 . S
C4512 H4506 0.949 . S
C4512 C4516 1.368 . S
C4513 C4494 1.429 . S
C4513 C4507 1.429 . S
C4513 C4514 1.523 . S
C4514 C4495 1.368 . S
C4514 C4508 1.368 . S
C4514 C4513 1.523 . S
C4515 C4499 1.429 . S
C4515 C4511 1.429 . S
C4515 C4516 1.523 . S
C4516 C4500 1.368 . S
C4516 C4512 1.368 . S
C4516 C4515 1.523 . S
H4517 C4492 0.950 . S
H4518 C4494 0.950 . S
H4519 C4495 0.949 . S
H4520 C4497 0.950 . S
H4521 C4499 0.950 . S
C4522 C4523 1.349 . S
C4522 C4524 1.327 . S
C4522 H4547 0.950 . S
C4523 C4522 1.349 . S
C4523 C4539 1.349 . S
C4524 C4522 1.327 . S
C4524 C4543 1.429 . S
C4524 H4548 0.950 . S
C4525 C4542 1.574 . S
C4525 C4544 1.368 . S
C4525 H4549 0.949 . S
H4526 C4530 0.949 . S
C4527 C4528 1.349 . S
C4527 C4529 1.327 . S
C4527 H4550 0.950 . S
C4528 C4527 1.349 . S
C4528 C4540 1.349 . S
C4529 C4527 1.327 . S
C4529 C4545 1.429 . S
C4529 H4551 0.950 . S
C4530 H4526 0.949 . S
C4530 C4538 1.574 . S
C4530 C4546 1.368 . S
H4531 C4539 0.950 . S
H4532 C4537 0.950 . S
H4533 C4538 0.949 . S
H4534 C4540 0.950 . S
H4535 C4541 0.950 . S
H4536 C4542 0.949 . S
C4537 H4532 0.950 . S
C4537 C4539 1.327 . S
C4537 C4543 1.429 . S
C4538 C4530 1.574 . S
C4538 H4533 0.949 . S
C4538 C4544 1.368 . S
C4539 C4523 1.349 . S
C4539 H4531 0.950 . S
C4539 C4537 1.327 . S
C4540 C4528 1.349 . S
C4540 H4534 0.950 . S
C4540 C4541 1.327 . S
C4541 H4535 0.950 . S
C4541 C4540 1.327 . S
C4541 C4545 1.429 . S
C4542 C4525 1.574 . S
C4542 H4536 0.949 . S
C4542 C4546 1.368 . S
C4543 C4524 1.429 . S
C4543 C4537 1.429 . S
C4543 C4544 1.523 . S
C4544 C4525 1.368 . S
C4544 C4538 1.368 . S
C4544 C4543 1.523 . S
C4545 C4529 1.429 . S
C4545 C4541 1.429 . S
C4545 C4546 1.523 . S
C4546 C4530 1.368 . S
C4546 C4542 1.368 . S
C4546 C4545 1.523 . S
H4547 C4522 0.950 . S
H4548 C4524 0.950 . S
H4549 C4525 0.949 . S
H4550 C4527 0.950 . S
H4551 C4529 0.950 . S
C4552 C4553 1.349 . S
C4552 C4554 1.327 . S
C4552 H4577 0.950 . S
C4553 C4552 1.349 . S
C4553 C4569 1.349 . S
C4554 C4552 1.327 . S
C4554 C4573 1.429 . S
C4554 H4578 0.950 . S
C4555 C4572 1.574 . S
C4555 C4574 1.368 . S
C4555 H4579 0.949 . S
H4556 C4560 0.949 . S
C4557 C4558 1.349 . S
C4557 C4559 1.327 . S
C4557 H4580 0.950 . S
C4558 C4557 1.349 . S
C4558 C4570 1.349 . S
C4559 C4557 1.327 . S
C4559 C4575 1.429 . S
C4559 H4581 0.950 . S
C4560 H4556 0.949 . S
C4560 C4568 1.574 . S
C4560 C4576 1.368 . S
H4561 C4569 0.950 . S
H4562 C4567 0.950 . S
H4563 C4568 0.949 . S
H4564 C4570 0.950 . S
H4565 C4571 0.950 . S
H4566 C4572 0.949 . S
C4567 H4562 0.950 . S
C4567 C4569 1.327 . S
C4567 C4573 1.429 . S
C4568 C4560 1.574 . S
C4568 H4563 0.949 . S
C4568 C4574 1.368 . S
C4569 C4553 1.349 . S
C4569 H4561 0.950 . S
C4569 C4567 1.327 . S
C4570 C4558 1.349 . S
C4570 H4564 0.950 . S
C4570 C4571 1.327 . S
C4571 H4565 0.950 . S
C4571 C4570 1.327 . S
C4571 C4575 1.429 . S
C4572 C4555 1.574 . S
C4572 H4566 0.949 . S
C4572 C4576 1.368 . S
C4573 C4554 1.429 . S
C4573 C4567 1.429 . S
C4573 C4574 1.523 . S
C4574 C4555 1.368 . S
C4574 C4568 1.368 . S
C4574 C4573 1.523 . S
C4575 C4559 1.429 . S
C4575 C4571 1.429 . S
C4575 C4576 1.523 . S
C4576 C4560 1.368 . S
C4576 C4572 1.368 . S
C4576 C4575 1.523 . S
H4577 C4552 0.950 . S
H4578 C4554 0.950 . S
H4579 C4555 0.949 . S
H4580 C4557 0.950 . S
H4581 C4559 0.950 . S
C4582 C4583 1.349 . S
C4582 C4584 1.327 . S
C4582 H4607 0.950 . S
C4583 C4582 1.349 . S
C4583 C4599 1.349 . S
C4584 C4582 1.327 . S
C4584 C4603 1.429 . S
C4584 H4608 0.950 . S
C4585 C4602 1.574 . S
C4585 C4604 1.368 . S
C4585 H4609 0.949 . S
H4586 C4590 0.949 . S
C4587 C4588 1.349 . S
C4587 C4589 1.327 . S
C4587 H4610 0.950 . S
C4588 C4587 1.349 . S
C4588 C4600 1.349 . S
C4589 C4587 1.327 . S
C4589 C4605 1.429 . S
C4589 H4611 0.950 . S
C4590 H4586 0.949 . S
C4590 C4598 1.574 . S
C4590 C4606 1.368 . S
H4591 C4599 0.950 . S
H4592 C4597 0.950 . S
H4593 C4598 0.949 . S
H4594 C4600 0.950 . S
H4595 C4601 0.950 . S
H4596 C4602 0.949 . S
C4597 H4592 0.950 . S
C4597 C4599 1.327 . S
C4597 C4603 1.429 . S
C4598 C4590 1.574 . S
C4598 H4593 0.949 . S
C4598 C4604 1.368 . S
C4599 C4583 1.349 . S
C4599 H4591 0.950 . S
C4599 C4597 1.327 . S
C4600 C4588 1.349 . S
C4600 H4594 0.950 . S
C4600 C4601 1.327 . S
C4601 H4595 0.950 . S
C4601 C4600 1.327 . S
C4601 C4605 1.429 . S
C4602 C4585 1.574 . S
C4602 H4596 0.949 . S
C4602 C4606 1.368 . S
C4603 C4584 1.429 . S
C4603 C4597 1.429 . S
C4603 C4604 1.523 . S
C4604 C4585 1.368 . S
C4604 C4598 1.368 . S
C4604 C4603 1.523 . S
C4605 C4589 1.429 . S
C4605 C4601 1.429 . S
C4605 C4606 1.523 . S
C4606 C4590 1.368 . S
C4606 C4602 1.368 . S
C4606 C4605 1.523 . S
H4607 C4582 0.950 . S
H4608 C4584 0.950 . S
H4609 C4585 0.949 . S
H4610 C4587 0.950 . S
H4611 C4589 0.950 . S
C4612 C4613 1.349 . S
C4612 C4614 1.327 . S
C4612 H4637 0.950 . S
C4613 C4612 1.349 . S
C4613 C4629 1.349 . S
C4614 C4612 1.327 . S
C4614 C4633 1.429 . S
C4614 H4638 0.950 . S
C4615 C4632 1.574 . S
C4615 C4634 1.368 . S
C4615 H4639 0.949 . S
H4616 C4620 0.949 . S
C4617 C4618 1.349 . S
C4617 C4619 1.327 . S
C4617 H4640 0.950 . S
C4618 C4617 1.349 . S
C4618 C4630 1.349 . S
C4619 C4617 1.327 . S
C4619 C4635 1.429 . S
C4619 H4641 0.950 . S
C4620 H4616 0.949 . S
C4620 C4628 1.574 . S
C4620 C4636 1.368 . S
H4621 C4629 0.950 . S
H4622 C4627 0.950 . S
H4623 C4628 0.949 . S
H4624 C4630 0.950 . S
H4625 C4631 0.950 . S
H4626 C4632 0.949 . S
C4627 H4622 0.950 . S
C4627 C4629 1.327 . S
C4627 C4633 1.429 . S
C4628 C4620 1.574 . S
C4628 H4623 0.949 . S
C4628 C4634 1.368 . S
C4629 C4613 1.349 . S
C4629 H4621 0.950 . S
C4629 C4627 1.327 . S
C4630 C4618 1.349 . S
C4630 H4624 0.950 . S
C4630 C4631 1.327 . S
C4631 H4625 0.950 . S
C4631 C4630 1.327 . S
C4631 C4635 1.429 . S
C4632 C4615 1.574 . S
C4632 H4626 0.949 . S
C4632 C4636 1.368 . S
C4633 C4614 1.429 . S
C4633 C4627 1.429 . S
C4633 C4634 1.523 . S
C4634 C4615 1.368 . S
C4634 C4628 1.368 . S
C4634 C4633 1.523 . S
C4635 C4619 1.429 . S
C4635 C4631 1.429 . S
C4635 C4636 1.523 . S
C4636 C4620 1.368 . S
C4636 C4632 1.368 . S
C4636 C4635 1.523 . S
H4637 C4612 0.950 . S
H4638 C4614 0.950 . S
H4639 C4615 0.949 . S
H4640 C4617 0.950 . S
H4641 C4619 0.950 . S
C4642 C4643 1.349 . S
C4642 C4644 1.327 . S
C4642 H4667 0.950 . S
C4643 C4642 1.349 . S
C4643 C4659 1.349 . S
C4644 C4642 1.327 . S
C4644 C4663 1.429 . S
C4644 H4668 0.950 . S
C4645 C4662 1.574 . S
C4645 C4664 1.368 . S
C4645 H4669 0.949 . S
H4646 C4650 0.949 . S
C4647 C4648 1.349 . S
C4647 C4649 1.327 . S
C4647 H4670 0.950 . S
C4648 C4647 1.349 . S
C4648 C4660 1.349 . S
C4649 C4647 1.327 . S
C4649 C4665 1.429 . S
C4649 H4671 0.950 . S
C4650 H4646 0.949 . S
C4650 C4658 1.574 . S
C4650 C4666 1.368 . S
H4651 C4659 0.950 . S
H4652 C4657 0.950 . S
H4653 C4658 0.949 . S
H4654 C4660 0.950 . S
H4655 C4661 0.950 . S
H4656 C4662 0.949 . S
C4657 H4652 0.950 . S
C4657 C4659 1.327 . S
C4657 C4663 1.429 . S
C4658 C4650 1.574 . S
C4658 H4653 0.949 . S
C4658 C4664 1.368 . S
C4659 C4643 1.349 . S
C4659 H4651 0.950 . S
C4659 C4657 1.327 . S
C4660 C4648 1.349 . S
C4660 H4654 0.950 . S
C4660 C4661 1.327 . S
C4661 H4655 0.950 . S
C4661 C4660 1.327 . S
C4661 C4665 1.429 . S
C4662 C4645 1.574 . S
C4662 H4656 0.949 . S
C4662 C4666 1.368 . S
C4663 C4644 1.429 . S
C4663 C4657 1.429 . S
C4663 C4664 1.523 . S
C4664 C4645 1.368 . S
C4664 C4658 1.368 . S
C4664 C4663 1.523 . S
C4665 C4649 1.429 . S
C4665 C4661 1.429 . S
C4665 C4666 1.523 . S
C4666 C4650 1.368 . S
C4666 C4662 1.368 . S
C4666 C4665 1.523 . S
H4667 C4642 0.950 . S
H4668 C4644 0.950 . S
H4669 C4645 0.949 . S
H4670 C4647 0.950 . S
H4671 C4649 0.950 . S
C4672 C4673 1.349 . S
C4672 C4674 1.327 . S
C4672 H4697 0.950 . S
C4673 C4672 1.349 . S
C4673 C4689 1.349 . S
C4674 C4672 1.327 . S
C4674 C4693 1.429 . S
C4674 H4698 0.950 . S
C4675 C4692 1.574 . S
C4675 C4694 1.368 . S
C4675 H4699 0.949 . S
H4676 C4680 0.949 . S
C4677 C4678 1.349 . S
C4677 C4679 1.327 . S
C4677 H4700 0.950 . S
C4678 C4677 1.349 . S
C4678 C4690 1.349 . S
C4679 C4677 1.327 . S
C4679 C4695 1.429 . S
C4679 H4701 0.950 . S
C4680 H4676 0.949 . S
C4680 C4688 1.574 . S
C4680 C4696 1.368 . S
H4681 C4689 0.950 . S
H4682 C4687 0.950 . S
H4683 C4688 0.949 . S
H4684 C4690 0.950 . S
H4685 C4691 0.950 . S
H4686 C4692 0.949 . S
C4687 H4682 0.950 . S
C4687 C4689 1.327 . S
C4687 C4693 1.429 . S
C4688 C4680 1.574 . S
C4688 H4683 0.949 . S
C4688 C4694 1.368 . S
C4689 C4673 1.349 . S
C4689 H4681 0.950 . S
C4689 C4687 1.327 . S
C4690 C4678 1.349 . S
C4690 H4684 0.950 . S
C4690 C4691 1.327 . S
C4691 H4685 0.950 . S
C4691 C4690 1.327 . S
C4691 C4695 1.429 . S
C4692 C4675 1.574 . S
C4692 H4686 0.949 . S
C4692 C4696 1.368 . S
C4693 C4674 1.429 . S
C4693 C4687 1.429 . S
C4693 C4694 1.523 . S
C4694 C4675 1.368 . S
C4694 C4688 1.368 . S
C4694 C4693 1.523 . S
C4695 C4679 1.429 . S
C4695 C4691 1.429 . S
C4695 C4696 1.523 . S
C4696 C4680 1.368 . S
C4696 C4692 1.368 . S
C4696 C4695 1.523 . S
H4697 C4672 0.950 . S
H4698 C4674 0.950 . S
H4699 C4675 0.949 . S
H4700 C4677 0.950 . S
H4701 C4679 0.950 . S
C4702 C4703 1.349 . S
C4702 C4704 1.327 . S
C4702 H4727 0.950 . S
C4703 C4702 1.349 . S
C4703 C4719 1.349 . S
C4704 C4702 1.327 . S
C4704 C4723 1.429 . S
C4704 H4728 0.950 . S
C4705 C4722 1.574 . S
C4705 C4724 1.368 . S
C4705 H4729 0.949 . S
H4706 C4710 0.949 . S
C4707 C4708 1.349 . S
C4707 C4709 1.327 . S
C4707 H4730 0.950 . S
C4708 C4707 1.349 . S
C4708 C4720 1.349 . S
C4709 C4707 1.327 . S
C4709 C4725 1.429 . S
C4709 H4731 0.950 . S
C4710 H4706 0.949 . S
C4710 C4718 1.574 . S
C4710 C4726 1.368 . S
H4711 C4719 0.950 . S
H4712 C4717 0.950 . S
H4713 C4718 0.949 . S
H4714 C4720 0.950 . S
H4715 C4721 0.950 . S
H4716 C4722 0.949 . S
C4717 H4712 0.950 . S
C4717 C4719 1.327 . S
C4717 C4723 1.429 . S
C4718 C4710 1.574 . S
C4718 H4713 0.949 . S
C4718 C4724 1.368 . S
C4719 C4703 1.349 . S
C4719 H4711 0.950 . S
C4719 C4717 1.327 . S
C4720 C4708 1.349 . S
C4720 H4714 0.950 . S
C4720 C4721 1.327 . S
C4721 H4715 0.950 . S
C4721 C4720 1.327 . S
C4721 C4725 1.429 . S
C4722 C4705 1.574 . S
C4722 H4716 0.949 . S
C4722 C4726 1.368 . S
C4723 C4704 1.429 . S
C4723 C4717 1.429 . S
C4723 C4724 1.523 . S
C4724 C4705 1.368 . S
C4724 C4718 1.368 . S
C4724 C4723 1.523 . S
C4725 C4709 1.429 . S
C4725 C4721 1.429 . S
C4725 C4726 1.523 . S
C4726 C4710 1.368 . S
C4726 C4722 1.368 . S
C4726 C4725 1.523 . S
H4727 C4702 0.950 . S
H4728 C4704 0.950 . S
H4729 C4705 0.949 . S
H4730 C4707 0.950 . S
H4731 C4709 0.950 . S
C4732 C4733 1.349 . S
C4732 C4734 1.327 . S
C4732 H4757 0.950 . S
C4733 C4732 1.349 . S
C4733 C4749 1.349 . S
C4734 C4732 1.327 . S
C4734 C4753 1.429 . S
C4734 H4758 0.950 . S
C4735 C4752 1.574 . S
C4735 C4754 1.368 . S
C4735 H4759 0.949 . S
H4736 C4740 0.949 . S
C4737 C4738 1.349 . S
C4737 C4739 1.327 . S
C4737 H4760 0.950 . S
C4738 C4737 1.349 . S
C4738 C4750 1.349 . S
C4739 C4737 1.327 . S
C4739 C4755 1.429 . S
C4739 H4761 0.950 . S
C4740 H4736 0.949 . S
C4740 C4748 1.574 . S
C4740 C4756 1.368 . S
H4741 C4749 0.950 . S
H4742 C4747 0.950 . S
H4743 C4748 0.949 . S
H4744 C4750 0.950 . S
H4745 C4751 0.950 . S
H4746 C4752 0.949 . S
C4747 H4742 0.950 . S
C4747 C4749 1.327 . S
C4747 C4753 1.429 . S
C4748 C4740 1.574 . S
C4748 H4743 0.949 . S
C4748 C4754 1.368 . S
C4749 C4733 1.349 . S
C4749 H4741 0.950 . S
C4749 C4747 1.327 . S
C4750 C4738 1.349 . S
C4750 H4744 0.950 . S
C4750 C4751 1.327 . S
C4751 H4745 0.950 . S
C4751 C4750 1.327 . S
C4751 C4755 1.429 . S
C4752 C4735 1.574 . S
C4752 H4746 0.949 . S
C4752 C4756 1.368 . S
C4753 C4734 1.429 . S
C4753 C4747 1.429 . S
C4753 C4754 1.523 . S
C4754 C4735 1.368 . S
C4754 C4748 1.368 . S
C4754 C4753 1.523 . S
C4755 C4739 1.429 . S
C4755 C4751 1.429 . S
C4755 C4756 1.523 . S
C4756 C4740 1.368 . S
C4756 C4752 1.368 . S
C4756 C4755 1.523 . S
H4757 C4732 0.950 . S
H4758 C4734 0.950 . S
H4759 C4735 0.949 . S
H4760 C4737 0.950 . S
H4761 C4739 0.950 . S
C4762 C4763 1.349 . S
C4762 C4764 1.327 . S
C4762 H4787 0.950 . S
C4763 C4762 1.349 . S
C4763 C4779 1.349 . S
C4764 C4762 1.327 . S
C4764 C4783 1.429 . S
C4764 H4788 0.950 . S
C4765 C4782 1.579 . S
C4765 C4784 1.368 . S
C4765 H4789 0.949 1_554 S
H4766 C4770 0.949 . S
C4767 C4768 1.349 1_556 S
C4767 C4769 1.340 . S
C4767 H4790 0.950 . S
C4768 C4767 1.349 1_554 S
C4768 C4780 1.349 . S
C4769 C4767 1.340 . S
C4769 C4785 1.364 1_556 S
C4769 H4791 1.011 . S
C4770 H4766 0.949 . S
C4770 C4778 1.574 . S
C4770 C4786 1.368 . S
H4771 C4779 0.950 1_556 S
H4772 C4777 0.950 1_556 S
H4773 C4778 0.949 . S
H4774 C4780 0.950 . S
H4775 C4781 0.939 1_565 S
H4776 C4782 0.920 1_556 S
C4777 H4772 0.950 1_554 S
C4777 C4779 1.327 . S
C4777 C4783 1.429 . S
C4778 C4770 1.574 . S
C4778 H4773 0.949 . S
C4778 C4784 1.368 . S
C4779 C4763 1.349 . S
C4779 H4771 0.950 1_554 S
C4779 C4777 1.327 . S
C4780 C4768 1.349 . S
C4780 H4774 0.950 . S
C4780 C4781 1.327 . S
C4781 H4775 0.939 1_545 S
C4781 C4780 1.327 . S
C4781 C4785 1.426 . S
C4782 C4765 1.579 . S
C4782 H4776 0.920 1_554 S
C4782 C4786 1.395 . S
C4783 C4764 1.429 . S
C4783 C4777 1.429 . S
C4783 C4784 1.523 . S
C4784 C4765 1.368 . S
C4784 C4778 1.368 . S
C4784 C4783 1.523 . S
C4785 C4769 1.364 1_554 S
C4785 C4781 1.426 . S
C4785 C4786 1.522 1_545 S
C4786 C4770 1.368 . S
C4786 C4782 1.395 . S
C4786 C4785 1.522 1_565 S
H4787 C4762 0.950 . S
H4788 C4764 0.950 . S
H4789 C4765 0.949 1_556 S
H4790 C4767 0.950 . S
H4791 C4769 1.011 . S
C4792 C4793 1.349 . S
C4792 C4794 1.327 . S
C4792 H4817 0.950 . S
C4793 C4792 1.349 . S
C4793 C4809 1.349 . S
C4794 C4792 1.327 . S
C4794 C4813 1.429 . S
C4794 H4818 0.950 . S
C4795 C4812 1.574 . S
C4795 C4814 1.368 . S
C4795 H4819 0.949 . S
H4796 C4800 0.949 . S
C4797 C4798 1.349 . S
C4797 C4799 1.327 . S
C4797 H4820 0.950 . S
C4798 C4797 1.349 . S
C4798 C4810 1.349 . S
C4799 C4797 1.327 . S
C4799 C4815 1.429 . S
C4799 H4821 0.950 . S
C4800 H4796 0.949 . S
C4800 C4808 1.574 . S
C4800 C4816 1.368 . S
H4801 C4809 0.950 . S
H4802 C4807 0.950 . S
H4803 C4808 0.949 . S
H4804 C4810 0.950 . S
H4805 C4811 0.950 . S
H4806 C4812 0.949 . S
C4807 H4802 0.950 . S
C4807 C4809 1.327 . S
C4807 C4813 1.429 . S
C4808 C4800 1.574 . S
C4808 H4803 0.949 . S
C4808 C4814 1.368 . S
C4809 C4793 1.349 . S
C4809 H4801 0.950 . S
C4809 C4807 1.327 . S
C4810 C4798 1.349 . S
C4810 H4804 0.950 . S
C4810 C4811 1.327 . S
C4811 H4805 0.950 . S
C4811 C4810 1.327 . S
C4811 C4815 1.429 . S
C4812 C4795 1.574 . S
C4812 H4806 0.949 . S
C4812 C4816 1.368 . S
C4813 C4794 1.429 . S
C4813 C4807 1.429 . S
C4813 C4814 1.523 . S
C4814 C4795 1.368 . S
C4814 C4808 1.368 . S
C4814 C4813 1.523 . S
C4815 C4799 1.429 . S
C4815 C4811 1.429 . S
C4815 C4816 1.523 . S
C4816 C4800 1.368 . S
C4816 C4812 1.368 . S
C4816 C4815 1.523 . S
H4817 C4792 0.950 . S
H4818 C4794 0.950 . S
H4819 C4795 0.949 . S
H4820 C4797 0.950 . S
H4821 C4799 0.950 . S
C4822 C4823 1.349 1_556 S
C4822 C4824 1.327 . S
C4822 H4847 0.950 . S
C4823 C4822 1.349 1_554 S
C4823 C4839 1.349 . S
C4824 C4822 1.327 . S
C4824 C4843 1.429 1_556 S
C4824 H4848 0.950 . S
C4825 C4842 1.574 . S
C4825 C4844 1.368 . S
C4825 H4849 0.949 . S
H4826 C4830 0.949 1_556 S
C4827 C4828 1.349 . S
C4827 C4829 1.327 . S
C4827 H4850 0.950 . S
C4828 C4827 1.349 . S
C4828 C4840 1.349 . S
C4829 C4827 1.327 . S
C4829 C4845 1.429 . S
C4829 H4851 0.950 . S
C4830 H4826 0.949 1_554 S
C4830 C4838 1.574 . S
C4830 C4846 1.368 . S
H4831 C4839 0.950 . S
H4832 C4837 0.950 . S
H4833 C4838 0.949 1_556 S
H4834 C4840 0.950 . S
H4835 C4841 0.950 . S
H4836 C4842 0.949 . S
C4837 H4832 0.950 . S
C4837 C4839 1.327 . S
C4837 C4843 1.429 . S
C4838 C4830 1.574 . S
C4838 H4833 0.949 1_554 S
C4838 C4844 1.368 . S
C4839 C4823 1.349 . S
C4839 H4831 0.950 . S
C4839 C4837 1.327 . S
C4840 C4828 1.349 . S
C4840 H4834 0.950 . S
C4840 C4841 1.327 . S
C4841 H4835 0.950 . S
C4841 C4840 1.327 . S
C4841 C4845 1.429 . S
C4842 C4825 1.574 . S
C4842 H4836 0.949 . S
C4842 C4846 1.368 . S
C4843 C4824 1.429 1_554 S
C4843 C4837 1.429 . S
C4843 C4844 1.523 . S
C4844 C4825 1.368 . S
C4844 C4838 1.368 . S
C4844 C4843 1.523 . S
C4845 C4829 1.429 . S
C4845 C4841 1.429 . S
C4845 C4846 1.523 . S
C4846 C4830 1.368 . S
C4846 C4842 1.368 . S
C4846 C4845 1.523 . S
H4847 C4822 0.950 . S
H4848 C4824 0.950 . S
H4849 C4825 0.949 . S
H4850 C4827 0.950 . S
H4851 C4829 0.950 . S
C4852 C4853 1.349 . S
C4852 C4854 1.327 . S
C4852 H4877 0.950 . S
C4853 C4852 1.349 . S
C4853 C4869 1.349 . S
C4854 C4852 1.327 . S
C4854 C4873 1.429 . S
C4854 H4878 0.950 . S
C4855 C4872 1.574 . S
C4855 C4874 1.368 . S
C4855 H4879 0.949 . S
H4856 C4860 0.949 . S
C4857 C4858 1.349 . S
C4857 C4859 1.327 . S
C4857 H4880 0.950 . S
C4858 C4857 1.349 . S
C4858 C4870 1.349 . S
C4859 C4857 1.327 . S
C4859 C4875 1.429 . S
C4859 H4881 0.950 . S
C4860 H4856 0.949 . S
C4860 C4868 1.574 . S
C4860 C4876 1.368 . S
H4861 C4869 0.950 . S
H4862 C4867 0.950 . S
H4863 C4868 0.949 . S
H4864 C4870 0.950 . S
H4865 C4871 0.950 . S
H4866 C4872 0.949 . S
C4867 H4862 0.950 . S
C4867 C4869 1.327 . S
C4867 C4873 1.429 . S
C4868 C4860 1.574 . S
C4868 H4863 0.949 . S
C4868 C4874 1.368 . S
C4869 C4853 1.349 . S
C4869 H4861 0.950 . S
C4869 C4867 1.327 . S
C4870 C4858 1.349 . S
C4870 H4864 0.950 . S
C4870 C4871 1.327 . S
C4871 H4865 0.950 . S
C4871 C4870 1.327 . S
C4871 C4875 1.429 . S
C4872 C4855 1.574 . S
C4872 H4866 0.949 . S
C4872 C4876 1.368 . S
C4873 C4854 1.429 . S
C4873 C4867 1.429 . S
C4873 C4874 1.523 . S
C4874 C4855 1.368 . S
C4874 C4868 1.368 . S
C4874 C4873 1.523 . S
C4875 C4859 1.429 . S
C4875 C4871 1.429 . S
C4875 C4876 1.523 . S
C4876 C4860 1.368 . S
C4876 C4872 1.368 . S
C4876 C4875 1.523 . S
H4877 C4852 0.950 . S
H4878 C4854 0.950 . S
H4879 C4855 0.949 . S
H4880 C4857 0.950 . S
H4881 C4859 0.950 . S
C4882 C4883 1.349 . S
C4882 C4884 1.327 . S
C4882 H4907 0.950 . S
C4883 C4882 1.349 . S
C4883 C4899 1.349 . S
C4884 C4882 1.327 . S
C4884 C4903 1.429 . S
C4884 H4908 0.950 . S
C4885 C4902 1.574 . S
C4885 C4904 1.368 . S
C4885 H4909 0.949 . S
H4886 C4890 0.949 . S
C4887 C4888 1.349 . S
C4887 C4889 1.327 . S
C4887 H4910 0.950 . S
C4888 C4887 1.349 . S
C4888 C4900 1.349 . S
C4889 C4887 1.327 . S
C4889 C4905 1.429 . S
C4889 H4911 0.950 . S
C4890 H4886 0.949 . S
C4890 C4898 1.574 . S
C4890 C4906 1.368 . S
H4891 C4899 0.950 . S
H4892 C4897 0.950 . S
H4893 C4898 0.949 . S
H4894 C4900 0.950 . S
H4895 C4901 0.950 . S
H4896 C4902 0.949 . S
C4897 H4892 0.950 . S
C4897 C4899 1.327 . S
C4897 C4903 1.429 . S
C4898 C4890 1.574 . S
C4898 H4893 0.949 . S
C4898 C4904 1.368 . S
C4899 C4883 1.349 . S
C4899 H4891 0.950 . S
C4899 C4897 1.327 . S
C4900 C4888 1.349 . S
C4900 H4894 0.950 . S
C4900 C4901 1.327 . S
C4901 H4895 0.950 . S
C4901 C4900 1.327 . S
C4901 C4905 1.429 . S
C4902 C4885 1.574 . S
C4902 H4896 0.949 . S
C4902 C4906 1.368 . S
C4903 C4884 1.429 . S
C4903 C4897 1.429 . S
C4903 C4904 1.523 . S
C4904 C4885 1.368 . S
C4904 C4898 1.368 . S
C4904 C4903 1.523 . S
C4905 C4889 1.429 . S
C4905 C4901 1.429 . S
C4905 C4906 1.523 . S
C4906 C4890 1.368 . S
C4906 C4902 1.368 . S
C4906 C4905 1.523 . S
H4907 C4882 0.950 . S
H4908 C4884 0.950 . S
H4909 C4885 0.949 . S
H4910 C4887 0.950 . S
H4911 C4889 0.950 . S
C4912 C4913 1.349 . S
C4912 C4914 1.327 . S
C4912 H4937 0.950 . S
C4913 C4912 1.349 . S
C4913 C4929 1.349 . S
C4914 C4912 1.327 . S
C4914 C4933 1.429 . S
C4914 H4938 0.950 . S
C4915 C4932 1.574 . S
C4915 C4934 1.368 . S
C4915 H4939 0.949 . S
H4916 C4920 0.949 . S
C4917 C4918 1.349 . S
C4917 C4919 1.327 . S
C4917 H4940 0.950 . S
C4918 C4917 1.349 . S
C4918 C4930 1.349 . S
C4919 C4917 1.327 . S
C4919 C4935 1.429 . S
C4919 H4941 0.950 . S
C4920 H4916 0.949 . S
C4920 C4928 1.574 . S
C4920 C4936 1.368 . S
H4921 C4929 0.950 . S
H4922 C4927 0.950 . S
H4923 C4928 0.949 . S
H4924 C4930 0.950 . S
H4925 C4931 0.950 . S
H4926 C4932 0.949 . S
C4927 H4922 0.950 . S
C4927 C4929 1.327 . S
C4927 C4933 1.429 . S
C4928 C4920 1.574 . S
C4928 H4923 0.949 . S
C4928 C4934 1.368 . S
C4929 C4913 1.349 . S
C4929 H4921 0.950 . S
C4929 C4927 1.327 . S
C4930 C4918 1.349 . S
C4930 H4924 0.950 . S
C4930 C4931 1.327 . S
C4931 H4925 0.950 . S
C4931 C4930 1.327 . S
C4931 C4935 1.429 . S
C4932 C4915 1.574 . S
C4932 H4926 0.949 . S
C4932 C4936 1.368 . S
C4933 C4914 1.429 . S
C4933 C4927 1.429 . S
C4933 C4934 1.523 . S
C4934 C4915 1.368 . S
C4934 C4928 1.368 . S
C4934 C4933 1.523 . S
C4935 C4919 1.429 . S
C4935 C4931 1.429 . S
C4935 C4936 1.523 . S
C4936 C4920 1.368 . S
C4936 C4932 1.368 . S
C4936 C4935 1.523 . S
H4937 C4912 0.950 . S
H4938 C4914 0.950 . S
H4939 C4915 0.949 . S
H4940 C4917 0.950 . S
H4941 C4919 0.950 . S
C4942 C4943 1.349 . S
C4942 C4944 1.327 . S
C4942 H4967 0.950 . S
C4943 C4942 1.349 . S
C4943 C4959 1.349 . S
C4944 C4942 1.327 . S
C4944 C4963 1.429 . S
C4944 H4968 0.950 . S
C4945 C4962 1.574 . S
C4945 C4964 1.368 . S
C4945 H4969 0.949 . S
H4946 C4950 0.949 . S
C4947 C4948 1.349 . S
C4947 C4949 1.327 . S
C4947 H4970 0.950 . S
C4948 C4947 1.349 . S
C4948 C4960 1.349 . S
C4949 C4947 1.327 . S
C4949 C4965 1.429 . S
C4949 H4971 0.950 . S
C4950 H4946 0.949 . S
C4950 C4958 1.574 . S
C4950 C4966 1.368 . S
H4951 C4959 0.950 . S
H4952 C4957 0.950 . S
H4953 C4958 0.949 . S
H4954 C4960 0.950 . S
H4955 C4961 0.950 . S
H4956 C4962 0.949 . S
C4957 H4952 0.950 . S
C4957 C4959 1.327 . S
C4957 C4963 1.429 . S
C4958 C4950 1.574 . S
C4958 H4953 0.949 . S
C4958 C4964 1.368 . S
C4959 C4943 1.349 . S
C4959 H4951 0.950 . S
C4959 C4957 1.327 . S
C4960 C4948 1.349 . S
C4960 H4954 0.950 . S
C4960 C4961 1.327 . S
C4961 H4955 0.950 . S
C4961 C4960 1.327 . S
C4961 C4965 1.429 . S
C4962 C4945 1.574 . S
C4962 H4956 0.949 . S
C4962 C4966 1.368 . S
C4963 C4944 1.429 . S
C4963 C4957 1.429 . S
C4963 C4964 1.523 . S
C4964 C4945 1.368 . S
C4964 C4958 1.368 . S
C4964 C4963 1.523 . S
C4965 C4949 1.429 . S
C4965 C4961 1.429 . S
C4965 C4966 1.523 . S
C4966 C4950 1.368 . S
C4966 C4962 1.368 . S
C4966 C4965 1.523 . S
H4967 C4942 0.950 . S
H4968 C4944 0.950 . S
H4969 C4945 0.949 . S
H4970 C4947 0.950 . S
H4971 C4949 0.950 . S
C4972 C4973 1.349 . S
C4972 C4974 1.327 . S
C4972 H4997 0.950 . S
C4973 C4972 1.349 . S
C4973 C4989 1.349 . S
C4974 C4972 1.327 . S
C4974 C4993 1.429 . S
C4974 H4998 0.950 . S
C4975 C4992 1.574 . S
C4975 C4994 1.368 . S
C4975 H4999 0.949 . S
H4976 C4980 0.949 . S
C4977 C4978 1.349 . S
C4977 C4979 1.327 . S
C4977 H5000 0.950 . S
C4978 C4977 1.349 . S
C4978 C4990 1.349 . S
C4979 C4977 1.327 . S
C4979 C4995 1.429 . S
C4979 H5001 0.950 . S
C4980 H4976 0.949 . S
C4980 C4988 1.574 . S
C4980 C4996 1.368 . S
H4981 C4989 0.950 . S
H4982 C4987 0.950 . S
H4983 C4988 0.949 . S
H4984 C4990 1.006 . S
H4985 C4991 0.950 . S
H4986 C4992 0.949 . S
C4987 H4982 0.950 . S
C4987 C4989 1.327 . S
C4987 C4993 1.429 . S
C4988 C4980 1.574 . S
C4988 H4983 0.949 . S
C4988 C4994 1.368 . S
C4989 C4973 1.349 . S
C4989 H4981 0.950 . S
C4989 C4987 1.327 . S
C4990 C4978 1.349 . S
C4990 H4984 1.006 . S
C4990 C4991 1.327 . S
C4991 H4985 0.950 . S
C4991 C4990 1.327 . S
C4991 C4995 1.429 . S
C4992 C4975 1.574 . S
C4992 H4986 0.949 . S
C4992 C4996 1.368 . S
C4993 C4974 1.429 . S
C4993 C4987 1.429 . S
C4993 C4994 1.523 . S
C4994 C4975 1.368 . S
C4994 C4988 1.368 . S
C4994 C4993 1.523 . S
C4995 C4979 1.429 . S
C4995 C4991 1.429 . S
C4995 C4996 1.523 . S
C4996 C4980 1.368 . S
C4996 C4992 1.368 . S
C4996 C4995 1.523 . S
H4997 C4972 0.950 . S
H4998 C4974 0.950 . S
H4999 C4975 0.949 . S
H5000 C4977 0.950 . S
H5001 C4979 0.950 . S
C5002 C5003 1.349 . S
C5002 C5004 1.327 . S
C5002 H5027 0.950 . S
C5003 C5002 1.349 . S
C5003 C5019 1.349 . S
C5004 C5002 1.327 . S
C5004 C5023 1.429 . S
C5004 H5028 0.950 . S
C5005 C5022 1.574 . S
C5005 C5024 1.368 . S
C5005 H5029 0.949 . S
H5006 C5010 0.949 . S
C5007 C5008 1.349 . S
C5007 C5009 1.327 . S
C5007 H5030 0.950 . S
C5008 C5007 1.349 . S
C5008 C5020 1.349 . S
C5009 C5007 1.327 . S
C5009 C5025 1.429 . S
C5009 H5031 0.950 . S
C5010 H5006 0.949 . S
C5010 C5018 1.574 . S
C5010 C5026 1.368 . S
H5011 C5019 0.950 . S
H5012 C5017 0.950 . S
H5013 C5018 0.949 . S
H5014 C5020 0.950 . S
H5015 C5021 0.950 . S
H5016 C5022 0.949 . S
C5017 H5012 0.950 . S
C5017 C5019 1.327 . S
C5017 C5023 1.429 . S
C5018 C5010 1.574 . S
C5018 H5013 0.949 . S
C5018 C5024 1.368 . S
C5019 C5003 1.349 . S
C5019 H5011 0.950 . S
C5019 C5017 1.327 . S
C5020 C5008 1.349 . S
C5020 H5014 0.950 . S
C5020 C5021 1.327 . S
C5021 H5015 0.950 . S
C5021 C5020 1.327 . S
C5021 C5025 1.429 . S
C5022 C5005 1.574 . S
C5022 H5016 0.949 . S
C5022 C5026 1.368 . S
C5023 C5004 1.429 . S
C5023 C5017 1.429 . S
C5023 C5024 1.523 . S
C5024 C5005 1.368 . S
C5024 C5018 1.368 . S
C5024 C5023 1.523 . S
C5025 C5009 1.429 . S
C5025 C5021 1.429 . S
C5025 C5026 1.523 . S
C5026 C5010 1.368 . S
C5026 C5022 1.368 . S
C5026 C5025 1.523 . S
H5027 C5002 0.950 . S
H5028 C5004 0.950 . S
H5029 C5005 0.949 . S
H5030 C5007 0.950 . S
H5031 C5009 0.950 . S
C5032 C5033 1.349 . S
C5032 C5034 1.327 . S
C5032 H5057 0.950 . S
C5033 C5032 1.349 . S
C5033 C5049 1.349 . S
C5034 C5032 1.327 . S
C5034 C5053 1.429 . S
C5034 H5058 0.950 . S
C5035 C5052 1.574 . S
C5035 C5054 1.368 . S
C5035 H5059 0.949 . S
H5036 C5040 0.949 . S
C5037 C5038 1.349 . S
C5037 C5039 1.327 . S
C5037 H5060 0.950 . S
C5038 C5037 1.349 . S
C5038 C5050 1.349 . S
C5039 C5037 1.327 . S
C5039 C5055 1.429 . S
C5039 H5061 0.950 . S
C5040 H5036 0.949 . S
C5040 C5048 1.574 . S
C5040 C5056 1.368 . S
H5041 C5049 0.950 . S
H5042 C5047 0.950 . S
H5043 C5048 0.949 . S
H5044 C5050 0.950 . S
H5045 C5051 0.950 . S
H5046 C5052 0.949 . S
C5047 H5042 0.950 . S
C5047 C5049 1.327 . S
C5047 C5053 1.429 . S
C5048 C5040 1.574 . S
C5048 H5043 0.949 . S
C5048 C5054 1.368 . S
C5049 C5033 1.349 . S
C5049 H5041 0.950 . S
C5049 C5047 1.327 . S
C5050 C5038 1.349 . S
C5050 H5044 0.950 . S
C5050 C5051 1.327 . S
C5051 H5045 0.950 . S
C5051 C5050 1.327 . S
C5051 C5055 1.429 . S
C5052 C5035 1.574 . S
C5052 H5046 0.949 . S
C5052 C5056 1.368 . S
C5053 C5034 1.429 . S
C5053 C5047 1.429 . S
C5053 C5054 1.523 . S
C5054 C5035 1.368 . S
C5054 C5048 1.368 . S
C5054 C5053 1.523 . S
C5055 C5039 1.429 . S
C5055 C5051 1.429 . S
C5055 C5056 1.523 . S
C5056 C5040 1.368 . S
C5056 C5052 1.368 . S
C5056 C5055 1.523 . S
H5057 C5032 0.950 . S
H5058 C5034 0.950 . S
H5059 C5035 0.949 . S
H5060 C5037 0.950 . S
H5061 C5039 0.950 . S
C5062 C5063 1.349 . S
C5062 C5064 1.327 . S
C5062 H5087 0.950 . S
C5063 C5062 1.349 . S
C5063 C5079 1.349 . S
C5064 C5062 1.327 . S
C5064 C5083 1.429 . S
C5064 H5088 0.950 . S
C5065 C5082 1.574 . S
C5065 C5084 1.368 . S
C5065 H5089 0.949 . S
H5066 C5070 0.949 . S
C5067 C5068 1.349 . S
C5067 C5069 1.327 . S
C5067 H5090 0.950 . S
C5068 C5067 1.349 . S
C5068 C5080 1.349 . S
C5069 C5067 1.327 . S
C5069 C5085 1.429 . S
C5069 H5091 0.950 . S
C5070 H5066 0.949 . S
C5070 C5078 1.574 . S
C5070 C5086 1.368 . S
H5071 C5079 0.950 . S
H5072 C5077 0.950 . S
H5073 C5078 0.949 . S
H5074 C5080 0.950 . S
H5075 C5081 0.950 . S
H5076 C5082 0.949 . S
C5077 H5072 0.950 . S
C5077 C5079 1.327 . S
C5077 C5083 1.429 . S
C5078 C5070 1.574 . S
C5078 H5073 0.949 . S
C5078 C5084 1.368 . S
C5079 C5063 1.349 . S
C5079 H5071 0.950 . S
C5079 C5077 1.327 . S
C5080 C5068 1.349 . S
C5080 H5074 0.950 . S
C5080 C5081 1.327 . S
C5081 H5075 0.950 . S
C5081 C5080 1.327 . S
C5081 C5085 1.429 . S
C5082 C5065 1.574 . S
C5082 H5076 0.949 . S
C5082 C5086 1.368 . S
C5083 C5064 1.429 . S
C5083 C5077 1.429 . S
C5083 C5084 1.523 . S
C5084 C5065 1.368 . S
C5084 C5078 1.368 . S
C5084 C5083 1.523 . S
C5085 C5069 1.429 . S
C5085 C5081 1.429 . S
C5085 C5086 1.523 . S
C5086 C5070 1.368 . S
C5086 C5082 1.368 . S
C5086 C5085 1.523 . S
H5087 C5062 0.950 . S
H5088 C5064 0.950 . S
H5089 C5065 0.949 . S
H5090 C5067 0.950 . S
H5091 C5069 0.950 . S
C5092 C5093 1.349 . S
C5092 C5094 1.327 . S
C5092 H5117 0.950 . S
C5093 C5092 1.349 . S
C5093 C5109 1.349 . S
C5094 C5092 1.327 . S
C5094 C5113 1.429 . S
C5094 H5118 0.950 . S
C5095 C5112 1.574 . S
C5095 C5114 1.368 . S
C5095 H5119 0.949 . S
H5096 C5100 0.949 . S
C5097 C5098 1.349 . S
C5097 C5099 1.327 . S
C5097 H5120 0.950 . S
C5098 C5097 1.349 . S
C5098 C5110 1.349 . S
C5099 C5097 1.327 . S
C5099 C5115 1.429 . S
C5099 H5121 0.950 . S
C5100 H5096 0.949 . S
C5100 C5108 1.574 . S
C5100 C5116 1.368 . S
H5101 C5109 0.950 . S
H5102 C5107 0.950 . S
H5103 C5108 0.949 . S
H5104 C5110 0.950 . S
H5105 C5111 0.950 . S
H5106 C5112 0.949 . S
C5107 H5102 0.950 . S
C5107 C5109 1.327 . S
C5107 C5113 1.429 . S
C5108 C5100 1.574 . S
C5108 H5103 0.949 . S
C5108 C5114 1.368 . S
C5109 C5093 1.349 . S
C5109 H5101 0.950 . S
C5109 C5107 1.327 . S
C5110 C5098 1.349 . S
C5110 H5104 0.950 . S
C5110 C5111 1.327 . S
C5111 H5105 0.950 . S
C5111 C5110 1.327 . S
C5111 C5115 1.429 . S
C5112 C5095 1.574 . S
C5112 H5106 0.949 . S
C5112 C5116 1.368 . S
C5113 C5094 1.429 . S
C5113 C5107 1.429 . S
C5113 C5114 1.523 . S
C5114 C5095 1.368 . S
C5114 C5108 1.368 . S
C5114 C5113 1.523 . S
C5115 C5099 1.429 . S
C5115 C5111 1.429 . S
C5115 C5116 1.523 . S
C5116 C5100 1.368 . S
C5116 C5112 1.368 . S
C5116 C5115 1.523 . S
H5117 C5092 0.950 . S
H5118 C5094 0.950 . S
H5119 C5095 0.949 . S
H5120 C5097 0.950 . S
H5121 C5099 0.950 . S
C5122 C5123 1.349 . S
C5122 C5124 1.327 . S
C5122 H5147 0.950 . S
C5123 C5122 1.349 . S
C5123 C5139 1.349 . S
C5124 C5122 1.327 . S
C5124 C5143 1.429 . S
C5124 H5148 0.950 . S
C5125 C5142 1.574 . S
C5125 C5144 1.368 . S
C5125 H5149 0.949 . S
H5126 C5130 0.949 . S
C5127 C5128 1.349 . S
C5127 C5129 1.327 . S
C5127 H5150 0.950 . S
C5128 C5127 1.349 . S
C5128 C5140 1.349 . S
C5129 C5127 1.327 . S
C5129 C5145 1.429 . S
C5129 H5151 0.950 . S
C5130 H5126 0.949 . S
C5130 C5138 1.574 . S
C5130 C5146 1.368 . S
H5131 C5139 0.950 . S
H5132 C5137 0.950 . S
H5133 C5138 0.949 . S
H5134 C5140 0.950 . S
H5135 C5141 0.950 . S
H5136 C5142 0.949 . S
C5137 H5132 0.950 . S
C5137 C5139 1.327 . S
C5137 C5143 1.429 . S
C5138 C5130 1.574 . S
C5138 H5133 0.949 . S
C5138 C5144 1.368 . S
C5139 C5123 1.349 . S
C5139 H5131 0.950 . S
C5139 C5137 1.327 . S
C5140 C5128 1.349 . S
C5140 H5134 0.950 . S
C5140 C5141 1.327 . S
C5141 H5135 0.950 . S
C5141 C5140 1.327 . S
C5141 C5145 1.429 . S
C5142 C5125 1.574 . S
C5142 H5136 0.949 . S
C5142 C5146 1.368 . S
C5143 C5124 1.429 . S
C5143 C5137 1.429 . S
C5143 C5144 1.523 . S
C5144 C5125 1.368 . S
C5144 C5138 1.368 . S
C5144 C5143 1.523 . S
C5145 C5129 1.429 . S
C5145 C5141 1.429 . S
C5145 C5146 1.523 . S
C5146 C5130 1.368 . S
C5146 C5142 1.368 . S
C5146 C5145 1.523 . S
H5147 C5122 0.950 . S
H5148 C5124 0.950 . S
H5149 C5125 0.949 . S
H5150 C5127 0.950 . S
H5151 C5129 0.950 . S
C5152 C5153 1.349 . S
C5152 C5154 1.327 . S
C5152 H5177 0.950 . S
C5153 C5152 1.349 . S
C5153 C5169 1.349 . S
C5154 C5152 1.327 . S
C5154 C5173 1.429 . S
C5154 H5178 0.950 . S
C5155 C5172 1.574 . S
C5155 C5174 1.368 . S
C5155 H5179 0.949 . S
H5156 C5160 0.949 . S
C5157 C5158 1.349 . S
C5157 C5159 1.327 . S
C5157 H5180 0.950 . S
C5158 C5157 1.349 . S
C5158 C5170 1.349 . S
C5159 C5157 1.327 . S
C5159 C5175 1.429 . S
C5159 H5181 0.950 . S
C5160 H5156 0.949 . S
C5160 C5168 1.574 . S
C5160 C5176 1.368 . S
H5161 C5169 0.950 . S
H5162 C5167 0.950 . S
H5163 C5168 0.949 . S
H5164 C5170 0.950 . S
H5165 C5171 0.950 . S
H5166 C5172 0.949 . S
C5167 H5162 0.950 . S
C5167 C5169 1.327 . S
C5167 C5173 1.429 . S
C5168 C5160 1.574 . S
C5168 H5163 0.949 . S
C5168 C5174 1.368 . S
C5169 C5153 1.349 . S
C5169 H5161 0.950 . S
C5169 C5167 1.327 . S
C5170 C5158 1.349 . S
C5170 H5164 0.950 . S
C5170 C5171 1.327 . S
C5171 H5165 0.950 . S
C5171 C5170 1.327 . S
C5171 C5175 1.429 . S
C5172 C5155 1.574 . S
C5172 H5166 0.949 . S
C5172 C5176 1.368 . S
C5173 C5154 1.429 . S
C5173 C5167 1.429 . S
C5173 C5174 1.523 . S
C5174 C5155 1.368 . S
C5174 C5168 1.368 . S
C5174 C5173 1.523 . S
C5175 C5159 1.429 . S
C5175 C5171 1.429 . S
C5175 C5176 1.523 . S
C5176 C5160 1.368 . S
C5176 C5172 1.368 . S
C5176 C5175 1.523 . S
H5177 C5152 0.950 . S
H5178 C5154 0.950 . S
H5179 C5155 0.949 . S
H5180 C5157 0.950 . S
H5181 C5159 0.950 . S
C5182 C5183 1.349 . S
C5182 C5184 1.327 . S
C5182 H5207 0.950 . S
C5183 C5182 1.349 . S
C5183 C5199 1.349 . S
C5184 C5182 1.327 . S
C5184 C5203 1.429 . S
C5184 H5208 0.950 . S
C5185 C5202 1.574 . S
C5185 C5204 1.368 . S
C5185 H5209 0.949 . S
H5186 C5190 0.949 . S
C5187 C5188 1.349 . S
C5187 C5189 1.327 . S
C5187 H5210 0.950 . S
C5188 C5187 1.349 . S
C5188 C5200 1.349 . S
C5189 C5187 1.327 . S
C5189 C5205 1.429 . S
C5189 H5211 0.950 . S
C5190 H5186 0.949 . S
C5190 C5198 1.574 . S
C5190 C5206 1.368 . S
H5191 C5199 0.950 . S
H5192 C5197 0.950 . S
H5193 C5198 0.949 . S
H5194 C5200 0.950 . S
H5195 C5201 0.950 . S
H5196 C5202 0.949 . S
C5197 H5192 0.950 . S
C5197 C5199 1.327 . S
C5197 C5203 1.429 . S
C5198 C5190 1.574 . S
C5198 H5193 0.949 . S
C5198 C5204 1.368 . S
C5199 C5183 1.349 . S
C5199 H5191 0.950 . S
C5199 C5197 1.327 . S
C5200 C5188 1.349 . S
C5200 H5194 0.950 . S
C5200 C5201 1.327 . S
C5201 H5195 0.950 . S
C5201 C5200 1.327 . S
C5201 C5205 1.429 . S
C5202 C5185 1.574 . S
C5202 H5196 0.949 . S
C5202 C5206 1.368 . S
C5203 C5184 1.429 . S
C5203 C5197 1.429 . S
C5203 C5204 1.523 . S
C5204 C5185 1.368 . S
C5204 C5198 1.368 . S
C5204 C5203 1.523 . S
C5205 C5189 1.429 . S
C5205 C5201 1.429 . S
C5205 C5206 1.523 . S
C5206 C5190 1.368 . S
C5206 C5202 1.368 . S
C5206 C5205 1.523 . S
H5207 C5182 0.950 . S
H5208 C5184 0.950 . S
H5209 C5185 0.949 . S
H5210 C5187 0.950 . S
H5211 C5189 0.950 . S
C5212 C5213 1.349 . S
C5212 C5214 1.327 . S
C5212 H5237 0.950 . S
C5213 C5212 1.349 . S
C5213 C5229 1.349 . S
C5214 C5212 1.327 . S
C5214 C5233 1.429 . S
C5214 H5238 0.950 . S
C5215 C5232 1.574 . S
C5215 C5234 1.368 . S
C5215 H5239 0.949 . S
H5216 C5220 0.949 . S
C5217 C5218 1.349 . S
C5217 C5219 1.327 . S
C5217 H5240 0.950 . S
C5218 C5217 1.349 . S
C5218 C5230 1.349 . S
C5219 C5217 1.327 . S
C5219 C5235 1.416 1_455 S
C5219 H5241 0.950 . S
C5220 H5216 0.949 . S
C5220 C5228 1.574 . S
C5220 C5236 1.368 . S
H5221 C5229 0.950 . S
H5222 C5227 0.950 . S
H5223 C5228 0.949 . S
H5224 C5230 0.950 . S
H5225 C5231 0.950 . S
H5226 C5232 0.949 1_455 S
C5227 H5222 0.950 . S
C5227 C5229 1.327 . S
C5227 C5233 1.429 . S
C5228 C5220 1.574 . S
C5228 H5223 0.949 . S
C5228 C5234 1.368 . S
C5229 C5213 1.349 . S
C5229 H5221 0.950 . S
C5229 C5227 1.327 . S
C5230 C5218 1.349 . S
C5230 H5224 0.950 . S
C5230 C5231 1.327 1_455 S
C5231 H5225 0.950 . S
C5231 C5230 1.327 1_655 S
C5231 C5235 1.434 . S
C5232 C5215 1.574 . S
C5232 H5226 0.949 1_655 S
C5232 C5236 1.368 . S
C5233 C5214 1.429 . S
C5233 C5227 1.429 . S
C5233 C5234 1.523 . S
C5234 C5215 1.368 . S
C5234 C5228 1.368 . S
C5234 C5233 1.523 . S
C5235 C5219 1.416 1_655 S
C5235 C5231 1.434 . S
C5235 C5236 1.529 . S
C5236 C5220 1.368 . S
C5236 C5232 1.368 . S
C5236 C5235 1.529 . S
H5237 C5212 0.950 . S
H5238 C5214 0.950 . S
H5239 C5215 0.949 . S
H5240 C5217 0.950 . S
H5241 C5219 0.950 . S
C5242 C5243 1.349 . S
C5242 C5244 1.327 . S
C5242 H5267 0.950 . S
C5243 C5242 1.349 . S
C5243 C5259 1.349 . S
C5244 C5242 1.327 . S
C5244 C5263 1.429 . S
C5244 H5268 0.950 . S
C5245 C5262 1.574 . S
C5245 C5264 1.368 . S
C5245 H5269 0.949 . S
H5246 C5250 0.949 . S
C5247 C5248 1.349 . S
C5247 C5249 1.327 . S
C5247 H5270 0.950 . S
C5248 C5247 1.349 . S
C5248 C5260 1.349 . S
C5249 C5247 1.327 . S
C5249 C5265 1.429 . S
C5249 H5271 0.950 . S
C5250 H5246 0.949 . S
C5250 C5258 1.574 . S
C5250 C5266 1.368 . S
H5251 C5259 0.950 . S
H5252 C5257 0.950 . S
H5253 C5258 0.949 . S
H5254 C5260 0.950 . S
H5255 C5261 0.950 . S
H5256 C5262 0.949 . S
C5257 H5252 0.950 . S
C5257 C5259 1.327 . S
C5257 C5263 1.429 . S
C5258 C5250 1.574 . S
C5258 H5253 0.949 . S
C5258 C5264 1.368 . S
C5259 C5243 1.349 . S
C5259 H5251 0.950 . S
C5259 C5257 1.327 . S
C5260 C5248 1.349 . S
C5260 H5254 0.950 . S
C5260 C5261 1.327 . S
C5261 H5255 0.950 . S
C5261 C5260 1.327 . S
C5261 C5265 1.429 . S
C5262 C5245 1.574 . S
C5262 H5256 0.949 . S
C5262 C5266 1.368 . S
C5263 C5244 1.429 . S
C5263 C5257 1.429 . S
C5263 C5264 1.523 . S
C5264 C5245 1.368 . S
C5264 C5258 1.368 . S
C5264 C5263 1.523 . S
C5265 C5249 1.429 . S
C5265 C5261 1.429 . S
C5265 C5266 1.523 . S
C5266 C5250 1.368 . S
C5266 C5262 1.368 . S
C5266 C5265 1.523 . S
H5267 C5242 0.950 . S
H5268 C5244 0.950 . S
H5269 C5245 0.949 . S
H5270 C5247 0.950 . S
H5271 C5249 0.950 . S
C5272 C5273 1.349 . S
C5272 C5274 1.327 . S
C5272 H5297 0.950 . S
C5273 C5272 1.349 . S
C5273 C5289 1.349 . S
C5274 C5272 1.327 . S
C5274 C5293 1.429 . S
C5274 H5298 0.950 . S
C5275 C5292 1.574 . S
C5275 C5294 1.368 . S
C5275 H5299 0.949 . S
H5276 C5280 0.949 . S
C5277 C5278 1.349 . S
C5277 C5279 1.327 . S
C5277 H5300 0.950 . S
C5278 C5277 1.349 . S
C5278 C5290 1.349 . S
C5279 C5277 1.327 . S
C5279 C5295 1.429 . S
C5279 H5301 0.950 . S
C5280 H5276 0.949 . S
C5280 C5288 1.574 . S
C5280 C5296 1.368 . S
H5281 C5289 0.950 . S
H5282 C5287 0.950 . S
H5283 C5288 0.949 . S
H5284 C5290 0.950 . S
H5285 C5291 0.950 . S
H5286 C5292 0.949 . S
C5287 H5282 0.950 . S
C5287 C5289 1.327 . S
C5287 C5293 1.429 . S
C5288 C5280 1.574 . S
C5288 H5283 0.949 . S
C5288 C5294 1.368 . S
C5289 C5273 1.349 . S
C5289 H5281 0.950 . S
C5289 C5287 1.327 . S
C5290 C5278 1.349 . S
C5290 H5284 0.950 . S
C5290 C5291 1.327 . S
C5291 H5285 0.950 . S
C5291 C5290 1.327 . S
C5291 C5295 1.429 . S
C5292 C5275 1.574 . S
C5292 H5286 0.949 . S
C5292 C5296 1.368 . S
C5293 C5274 1.429 . S
C5293 C5287 1.429 . S
C5293 C5294 1.523 . S
C5294 C5275 1.368 . S
C5294 C5288 1.368 . S
C5294 C5293 1.523 . S
C5295 C5279 1.429 . S
C5295 C5291 1.429 . S
C5295 C5296 1.523 . S
C5296 C5280 1.368 . S
C5296 C5292 1.368 . S
C5296 C5295 1.523 . S
H5297 C5272 0.950 . S
H5298 C5274 0.950 . S
H5299 C5275 0.949 . S
H5300 C5277 0.950 . S
H5301 C5279 0.950 . S
C5302 C5303 1.349 . S
C5302 C5304 1.327 . S
C5302 H5327 0.950 . S
C5303 C5302 1.349 . S
C5303 C5319 1.349 . S
C5304 C5302 1.327 . S
C5304 C5323 1.429 . S
C5304 H5328 0.950 . S
C5305 C5322 1.574 . S
C5305 C5324 1.368 . S
C5305 H5329 0.949 . S
H5306 C5310 0.949 . S
C5307 C5308 1.349 . S
C5307 C5309 1.327 . S
C5307 H5330 0.950 . S
C5308 C5307 1.349 . S
C5308 C5320 1.349 . S
C5309 C5307 1.327 . S
C5309 C5325 1.429 . S
C5309 H5331 0.950 . S
C5310 H5306 0.949 . S
C5310 C5318 1.574 . S
C5310 C5326 1.368 . S
H5311 C5319 0.950 . S
H5312 C5317 0.950 . S
H5313 C5318 0.949 . S
H5314 C5320 0.950 . S
H5315 C5321 0.950 . S
H5316 C5322 0.949 . S
C5317 H5312 0.950 . S
C5317 C5319 1.327 . S
C5317 C5323 1.429 . S
C5318 C5310 1.574 . S
C5318 H5313 0.949 . S
C5318 C5324 1.368 . S
C5319 C5303 1.349 . S
C5319 H5311 0.950 . S
C5319 C5317 1.327 . S
C5320 C5308 1.349 . S
C5320 H5314 0.950 . S
C5320 C5321 1.327 . S
C5321 H5315 0.950 . S
C5321 C5320 1.327 . S
C5321 C5325 1.429 . S
C5322 C5305 1.574 . S
C5322 H5316 0.949 . S
C5322 C5326 1.368 . S
C5323 C5304 1.429 . S
C5323 C5317 1.429 . S
C5323 C5324 1.523 . S
C5324 C5305 1.368 . S
C5324 C5318 1.368 . S
C5324 C5323 1.523 . S
C5325 C5309 1.429 . S
C5325 C5321 1.429 . S
C5325 C5326 1.523 . S
C5326 C5310 1.368 . S
C5326 C5322 1.368 . S
C5326 C5325 1.523 . S
H5327 C5302 0.950 . S
H5328 C5304 0.950 . S
H5329 C5305 0.949 . S
H5330 C5307 0.950 . S
H5331 C5309 0.950 . S
C5332 C5333 1.349 . S
C5332 C5334 1.327 . S
C5332 H5357 0.950 . S
C5333 C5332 1.349 . S
C5333 C5349 1.349 . S
C5334 C5332 1.327 . S
C5334 C5353 1.429 . S
C5334 H5358 0.950 . S
C5335 C5352 1.574 . S
C5335 C5354 1.368 . S
C5335 H5359 0.949 . S
H5336 C5340 0.949 . S
C5337 C5338 1.349 . S
C5337 C5339 1.327 . S
C5337 H5360 0.963 . S
C5338 C5337 1.349 . S
C5338 C5350 1.349 . S
C5339 C5337 1.327 . S
C5339 C5355 1.429 . S
C5339 H5361 0.950 . S
C5340 H5336 0.949 . S
C5340 C5348 1.574 . S
C5340 C5356 1.368 . S
H5341 C5349 0.950 . S
H5342 C5347 0.950 . S
H5343 C5348 0.949 . S
H5344 C5350 0.950 . S
H5345 C5351 0.950 . S
H5346 C5352 0.949 . S
C5347 H5342 0.950 . S
C5347 C5349 1.327 . S
C5347 C5353 1.429 . S
C5348 C5340 1.574 . S
C5348 H5343 0.949 . S
C5348 C5354 1.368 . S
C5349 C5333 1.349 . S
C5349 H5341 0.950 . S
C5349 C5347 1.327 . S
C5350 C5338 1.349 . S
C5350 H5344 0.950 . S
C5350 C5351 1.327 . S
C5351 H5345 0.950 . S
C5351 C5350 1.327 . S
C5351 C5355 1.429 . S
C5352 C5335 1.574 . S
C5352 H5346 0.949 . S
C5352 C5356 1.368 . S
C5353 C5334 1.429 . S
C5353 C5347 1.429 . S
C5353 C5354 1.523 . S
C5354 C5335 1.368 . S
C5354 C5348 1.368 . S
C5354 C5353 1.523 . S
C5355 C5339 1.429 . S
C5355 C5351 1.429 . S
C5355 C5356 1.523 . S
C5356 C5340 1.368 . S
C5356 C5352 1.368 . S
C5356 C5355 1.523 . S
H5357 C5332 0.950 . S
H5358 C5334 0.950 . S
H5359 C5335 0.949 . S
H5360 C5337 0.963 . S
H5361 C5339 0.950 . S
C5362 C5363 1.349 . S
C5362 C5364 1.327 . S
C5362 H5387 0.950 . S
C5363 C5362 1.349 . S
C5363 C5379 1.349 . S
C5364 C5362 1.327 . S
C5364 C5383 1.429 . S
C5364 H5388 0.950 . S
C5365 C5382 1.574 . S
C5365 C5384 1.368 . S
C5365 H5389 0.949 . S
H5366 C5370 0.949 . S
C5367 C5368 1.349 . S
C5367 C5369 1.327 . S
C5367 H5390 0.950 . S
C5368 C5367 1.349 . S
C5368 C5380 1.349 . S
C5369 C5367 1.327 . S
C5369 C5385 1.429 . S
C5369 H5391 0.950 . S
C5370 H5366 0.949 . S
C5370 C5378 1.574 . S
C5370 C5386 1.368 . S
H5371 C5379 0.950 . S
H5372 C5377 0.950 . S
H5373 C5378 0.949 . S
H5374 C5380 0.950 . S
H5375 C5381 0.950 . S
H5376 C5382 0.949 . S
C5377 H5372 0.950 . S
C5377 C5379 1.327 . S
C5377 C5383 1.429 . S
C5378 C5370 1.574 . S
C5378 H5373 0.949 . S
C5378 C5384 1.368 . S
C5379 C5363 1.349 . S
C5379 H5371 0.950 . S
C5379 C5377 1.327 . S
C5380 C5368 1.349 . S
C5380 H5374 0.950 . S
C5380 C5381 1.327 . S
C5381 H5375 0.950 . S
C5381 C5380 1.327 . S
C5381 C5385 1.429 . S
C5382 C5365 1.574 . S
C5382 H5376 0.949 . S
C5382 C5386 1.368 . S
C5383 C5364 1.429 . S
C5383 C5377 1.429 . S
C5383 C5384 1.523 . S
C5384 C5365 1.368 . S
C5384 C5378 1.368 . S
C5384 C5383 1.523 . S
C5385 C5369 1.429 . S
C5385 C5381 1.429 . S
C5385 C5386 1.523 . S
C5386 C5370 1.368 . S
C5386 C5382 1.368 . S
C5386 C5385 1.523 . S
H5387 C5362 0.950 . S
H5388 C5364 0.950 . S
H5389 C5365 0.949 . S
H5390 C5367 0.950 . S
H5391 C5369 0.950 . S
C5392 C5393 1.349 . S
C5392 C5394 1.327 . S
C5392 H5417 0.950 . S
C5393 C5392 1.349 . S
C5393 C5409 1.349 . S
C5394 C5392 1.327 . S
C5394 C5413 1.429 . S
C5394 H5418 0.950 . S
C5395 C5412 1.574 . S
C5395 C5414 1.368 . S
C5395 H5419 0.949 . S
H5396 C5400 0.949 . S
C5397 C5398 1.349 . S
C5397 C5399 1.327 . S
C5397 H5420 0.950 . S
C5398 C5397 1.349 . S
C5398 C5410 1.349 . S
C5399 C5397 1.327 . S
C5399 C5415 1.429 . S
C5399 H5421 0.950 . S
C5400 H5396 0.949 . S
C5400 C5408 1.574 . S
C5400 C5416 1.368 . S
H5401 C5409 0.950 . S
H5402 C5407 0.950 . S
H5403 C5408 0.949 . S
H5404 C5410 0.950 . S
H5405 C5411 0.950 . S
H5406 C5412 0.949 . S
C5407 H5402 0.950 . S
C5407 C5409 1.327 . S
C5407 C5413 1.429 . S
C5408 C5400 1.574 . S
C5408 H5403 0.949 . S
C5408 C5414 1.368 . S
C5409 C5393 1.349 . S
C5409 H5401 0.950 . S
C5409 C5407 1.327 . S
C5410 C5398 1.349 . S
C5410 H5404 0.950 . S
C5410 C5411 1.327 . S
C5411 H5405 0.950 . S
C5411 C5410 1.327 . S
C5411 C5415 1.429 . S
C5412 C5395 1.574 . S
C5412 H5406 0.949 . S
C5412 C5416 1.368 . S
C5413 C5394 1.429 . S
C5413 C5407 1.429 . S
C5413 C5414 1.523 . S
C5414 C5395 1.368 . S
C5414 C5408 1.368 . S
C5414 C5413 1.523 . S
C5415 C5399 1.429 . S
C5415 C5411 1.429 . S
C5415 C5416 1.523 . S
C5416 C5400 1.368 . S
C5416 C5412 1.368 . S
C5416 C5415 1.523 . S
H5417 C5392 0.950 . S
H5418 C5394 0.950 . S
H5419 C5395 0.949 . S
H5420 C5397 0.950 . S
H5421 C5399 0.950 . S
C5422 C5423 1.349 . S
C5422 C5424 1.327 . S
C5422 H5447 0.950 . S
C5423 C5422 1.349 . S
C5423 C5439 1.349 . S
C5424 C5422 1.327 . S
C5424 C5443 1.429 . S
C5424 H5448 0.950 . S
C5425 C5442 1.574 . S
C5425 C5444 1.368 . S
C5425 H5449 0.949 . S
H5426 C5430 0.949 . S
C5427 C5428 1.349 1_565 S
C5427 C5429 1.327 . S
C5427 H5450 0.950 . S
C5428 C5427 1.349 1_545 S
C5428 C5440 1.353 1_545 S
C5429 C5427 1.327 . S
C5429 C5445 1.429 . S
C5429 H5451 0.950 . S
C5430 H5426 0.949 . S
C5430 C5438 1.574 . S
C5430 C5446 1.368 . S
H5431 C5439 0.950 . S
H5432 C5437 0.950 . S
H5433 C5438 0.949 . S
H5434 C5440 0.934 1_545 S
H5435 C5441 0.950 . S
H5436 C5442 0.949 . S
C5437 H5432 0.950 . S
C5437 C5439 1.327 . S
C5437 C5443 1.429 . S
C5438 C5430 1.574 . S
C5438 H5433 0.949 . S
C5438 C5444 1.368 . S
C5439 C5423 1.349 . S
C5439 H5431 0.950 . S
C5439 C5437 1.327 . S
C5440 C5428 1.353 1_565 S
C5440 H5434 0.934 1_565 S
C5440 C5441 1.339 . S
C5441 H5435 0.950 . S
C5441 C5440 1.339 . S
C5441 C5445 1.429 . S
C5442 C5425 1.574 . S
C5442 H5436 0.949 . S
C5442 C5446 1.368 . S
C5443 C5424 1.429 . S
C5443 C5437 1.429 . S
C5443 C5444 1.523 . S
C5444 C5425 1.368 . S
C5444 C5438 1.368 . S
C5444 C5443 1.523 . S
C5445 C5429 1.429 . S
C5445 C5441 1.429 . S
C5445 C5446 1.523 . S
C5446 C5430 1.368 . S
C5446 C5442 1.368 . S
C5446 C5445 1.523 . S
H5447 C5422 0.950 . S
H5448 C5424 0.950 . S
H5449 C5425 0.949 . S
H5450 C5427 0.950 . S
H5451 C5429 0.950 . S
C5452 C5453 1.349 . S
C5452 C5454 1.327 . S
C5452 H5477 0.950 . S
C5453 C5452 1.349 . S
C5453 C5469 1.349 . S
C5454 C5452 1.327 . S
C5454 C5473 1.429 . S
C5454 H5478 0.950 . S
C5455 C5472 1.574 . S
C5455 C5474 1.368 . S
C5455 H5479 0.949 . S
H5456 C5460 0.949 . S
C5457 C5458 1.349 . S
C5457 C5459 1.327 . S
C5457 H5480 0.950 . S
C5458 C5457 1.349 . S
C5458 C5470 1.349 . S
C5459 C5457 1.327 . S
C5459 C5475 1.429 . S
C5459 H5481 0.950 . S
C5460 H5456 0.949 . S
C5460 C5468 1.574 . S
C5460 C5476 1.368 . S
H5461 C5469 0.950 . S
H5462 C5467 0.950 . S
H5463 C5468 0.949 . S
H5464 C5470 0.950 . S
H5465 C5471 0.950 . S
H5466 C5472 0.949 . S
C5467 H5462 0.950 . S
C5467 C5469 1.327 . S
C5467 C5473 1.429 . S
C5468 C5460 1.574 . S
C5468 H5463 0.949 . S
C5468 C5474 1.368 . S
C5469 C5453 1.349 . S
C5469 H5461 0.950 . S
C5469 C5467 1.327 . S
C5470 C5458 1.349 . S
C5470 H5464 0.950 . S
C5470 C5471 1.327 . S
C5471 H5465 0.950 . S
C5471 C5470 1.327 . S
C5471 C5475 1.429 . S
C5472 C5455 1.574 . S
C5472 H5466 0.949 . S
C5472 C5476 1.368 . S
C5473 C5454 1.429 . S
C5473 C5467 1.429 . S
C5473 C5474 1.523 . S
C5474 C5455 1.368 . S
C5474 C5468 1.368 . S
C5474 C5473 1.523 . S
C5475 C5459 1.429 . S
C5475 C5471 1.429 . S
C5475 C5476 1.523 . S
C5476 C5460 1.368 . S
C5476 C5472 1.368 . S
C5476 C5475 1.523 . S
H5477 C5452 0.950 . S
H5478 C5454 0.950 . S
H5479 C5455 0.949 . S
H5480 C5457 0.950 . S
H5481 C5459 0.950 . S
C5482 C5483 1.349 1_554 S
C5482 C5484 1.327 . S
C5482 H5507 0.950 . S
C5483 C5482 1.349 1_556 S
C5483 C5499 1.349 . S
C5484 C5482 1.327 . S
C5484 C5503 1.446 . S
C5484 H5508 0.950 . S
C5485 C5502 1.574 . S
C5485 C5504 1.368 1_556 S
C5485 H5509 0.949 . S
H5486 C5490 0.949 . S
C5487 C5488 1.349 1_556 S
C5487 C5489 1.327 . S
C5487 H5510 0.950 . S
C5488 C5487 1.349 1_554 S
C5488 C5500 1.349 . S
C5489 C5487 1.327 . S
C5489 C5505 1.429 1_556 S
C5489 H5511 0.950 . S
C5490 H5486 0.949 . S
C5490 C5498 1.574 . S
C5490 C5506 1.368 . S
H5491 C5499 0.950 . S
H5492 C5497 0.950 . S
H5493 C5498 0.949 . S
H5494 C5500 0.950 . S
H5495 C5501 0.950 . S
H5496 C5502 0.949 . S
C5497 H5492 0.950 . S
C5497 C5499 1.327 . S
C5497 C5503 1.405 1_556 S
C5498 C5490 1.574 . S
C5498 H5493 0.949 . S
C5498 C5504 1.368 . S
C5499 C5483 1.349 . S
C5499 H5491 0.950 . S
C5499 C5497 1.327 . S
C5500 C5488 1.349 . S
C5500 H5494 0.950 . S
C5500 C5501 1.327 . S
C5501 H5495 0.950 . S
C5501 C5500 1.327 . S
C5501 C5505 1.429 . S
C5502 C5485 1.574 . S
C5502 H5496 0.949 . S
C5502 C5506 1.368 1_556 S
C5503 C5484 1.446 . S
C5503 C5497 1.405 1_554 S
C5503 C5504 1.530 . S
C5504 C5485 1.368 1_554 S
C5504 C5498 1.368 . S
C5504 C5503 1.530 . S
C5505 C5489 1.429 1_554 S
C5505 C5501 1.429 . S
C5505 C5506 1.523 . S
C5506 C5490 1.368 . S
C5506 C5502 1.368 1_554 S
C5506 C5505 1.523 . S
H5507 C5482 0.950 . S
H5508 C5484 0.950 . S
H5509 C5485 0.949 . S
H5510 C5487 0.950 . S
H5511 C5489 0.950 . S
C5512 C5513 1.349 . S
C5512 C5514 1.327 . S
C5512 H5537 0.950 . S
C5513 C5512 1.349 . S
C5513 C5529 1.349 . S
C5514 C5512 1.327 . S
C5514 C5533 1.429 . S
C5514 H5538 0.950 . S
C5515 C5532 1.574 . S
C5515 C5534 1.368 . S
C5515 H5539 0.949 . S
H5516 C5520 0.949 . S
C5517 C5518 1.349 . S
C5517 C5519 1.327 . S
C5517 H5540 0.950 . S
C5518 C5517 1.349 . S
C5518 C5530 1.349 . S
C5519 C5517 1.327 . S
C5519 C5535 1.429 . S
C5519 H5541 0.950 . S
C5520 H5516 0.949 . S
C5520 C5528 1.574 . S
C5520 C5536 1.368 . S
H5521 C5529 0.950 . S
H5522 C5527 0.950 . S
H5523 C5528 0.949 . S
H5524 C5530 0.950 . S
H5525 C5531 0.950 . S
H5526 C5532 0.949 . S
C5527 H5522 0.950 . S
C5527 C5529 1.327 . S
C5527 C5533 1.429 . S
C5528 C5520 1.574 . S
C5528 H5523 0.949 . S
C5528 C5534 1.368 . S
C5529 C5513 1.349 . S
C5529 H5521 0.950 . S
C5529 C5527 1.327 . S
C5530 C5518 1.349 . S
C5530 H5524 0.950 . S
C5530 C5531 1.327 . S
C5531 H5525 0.950 . S
C5531 C5530 1.327 . S
C5531 C5535 1.429 . S
C5532 C5515 1.574 . S
C5532 H5526 0.949 . S
C5532 C5536 1.368 . S
C5533 C5514 1.429 . S
C5533 C5527 1.429 . S
C5533 C5534 1.523 . S
C5534 C5515 1.368 . S
C5534 C5528 1.368 . S
C5534 C5533 1.523 . S
C5535 C5519 1.429 . S
C5535 C5531 1.429 . S
C5535 C5536 1.523 . S
C5536 C5520 1.368 . S
C5536 C5532 1.368 . S
C5536 C5535 1.523 . S
H5537 C5512 0.950 . S
H5538 C5514 0.950 . S
H5539 C5515 0.949 . S
H5540 C5517 0.950 . S
H5541 C5519 0.950 . S
C5542 C5543 1.349 . S
C5542 C5544 1.336 . S
C5542 H5567 0.950 1_554 S
C5543 C5542 1.349 . S
C5543 C5559 1.349 . S
C5544 C5542 1.336 . S
C5544 C5563 1.446 . S
C5544 H5568 0.924 1_554 S
C5545 C5562 1.574 . S
C5545 C5564 1.368 . S
C5545 H5569 0.949 . S
H5546 C5550 0.949 . S
C5547 C5548 1.349 . S
C5547 C5549 1.327 1_556 S
C5547 H5570 0.950 1_556 S
C5548 C5547 1.349 . S
C5548 C5560 1.349 . S
C5549 C5547 1.327 1_554 S
C5549 C5565 1.429 1_554 S
C5549 H5571 0.950 . S
C5550 H5546 0.949 . S
C5550 C5558 1.574 . S
C5550 C5566 1.368 . S
H5551 C5559 0.950 . S
H5552 C5557 0.950 . S
H5553 C5558 0.949 . S
H5554 C5560 0.950 . S
H5555 C5561 0.950 . S
H5556 C5562 0.949 . S
C5557 H5552 0.950 . S
C5557 C5559 1.327 . S
C5557 C5563 1.429 . S
C5558 C5550 1.574 . S
C5558 H5553 0.949 . S
C5558 C5564 1.368 1_556 S
C5559 C5543 1.349 . S
C5559 H5551 0.950 . S
C5559 C5557 1.327 . S
C5560 C5548 1.349 . S
C5560 H5554 0.950 . S
C5560 C5561 1.327 . S
C5561 H5555 0.950 . S
C5561 C5560 1.327 . S
C5561 C5565 1.429 . S
C5562 C5545 1.574 . S
C5562 H5556 0.949 . S
C5562 C5566 1.368 1_554 S
C5563 C5544 1.446 . S
C5563 C5557 1.429 . S
C5563 C5564 1.523 . S
C5564 C5545 1.368 . S
C5564 C5558 1.368 1_554 S
C5564 C5563 1.523 . S
C5565 C5549 1.429 1_556 S
C5565 C5561 1.429 . S
C5565 C5566 1.523 . S
C5566 C5550 1.368 . S
C5566 C5562 1.368 1_556 S
C5566 C5565 1.523 . S
H5567 C5542 0.950 1_556 S
H5568 C5544 0.924 1_556 S
H5569 C5545 0.949 . S
H5570 C5547 0.950 1_554 S
H5571 C5549 0.950 . S
C5572 C5573 1.349 . S
C5572 C5574 1.327 . S
C5572 H5597 0.950 . S
C5573 C5572 1.349 . S
C5573 C5589 1.349 . S
C5574 C5572 1.327 . S
C5574 C5593 1.429 . S
C5574 H5598 0.950 . S
C5575 C5592 1.574 . S
C5575 C5594 1.368 . S
C5575 H5599 0.949 . S
H5576 C5580 0.949 . S
C5577 C5578 1.349 . S
C5577 C5579 1.327 . S
C5577 H5600 0.950 . S
C5578 C5577 1.349 . S
C5578 C5590 1.349 . S
C5579 C5577 1.327 . S
C5579 C5595 1.429 . S
C5579 H5601 0.950 . S
C5580 H5576 0.949 . S
C5580 C5588 1.574 . S
C5580 C5596 1.368 . S
H5581 C5589 0.950 . S
H5582 C5587 0.950 . S
H5583 C5588 0.949 . S
H5584 C5590 0.950 . S
H5585 C5591 0.950 . S
H5586 C5592 0.949 . S
C5587 H5582 0.950 . S
C5587 C5589 1.327 . S
C5587 C5593 1.429 . S
C5588 C5580 1.574 . S
C5588 H5583 0.949 . S
C5588 C5594 1.368 . S
C5589 C5573 1.349 . S
C5589 H5581 0.950 . S
C5589 C5587 1.327 . S
C5590 C5578 1.349 . S
C5590 H5584 0.950 . S
C5590 C5591 1.327 . S
C5591 H5585 0.950 . S
C5591 C5590 1.327 . S
C5591 C5595 1.429 . S
C5592 C5575 1.574 . S
C5592 H5586 0.949 . S
C5592 C5596 1.368 . S
C5593 C5574 1.429 . S
C5593 C5587 1.429 . S
C5593 C5594 1.523 . S
C5594 C5575 1.368 . S
C5594 C5588 1.368 . S
C5594 C5593 1.523 . S
C5595 C5579 1.429 . S
C5595 C5591 1.429 . S
C5595 C5596 1.523 . S
C5596 C5580 1.368 . S
C5596 C5592 1.368 . S
C5596 C5595 1.523 . S
H5597 C5572 0.950 . S
H5598 C5574 0.950 . S
H5599 C5575 0.949 . S
H5600 C5577 0.950 . S
H5601 C5579 0.950 . S
C5602 C5603 1.349 . S
C5602 C5604 1.327 . S
C5602 H5627 0.950 . S
C5603 C5602 1.349 . S
C5603 C5619 1.349 . S
C5604 C5602 1.327 . S
C5604 C5623 1.429 . S
C5604 H5628 0.950 . S
C5605 C5622 1.574 . S
C5605 C5624 1.368 . S
C5605 H5629 0.949 . S
H5606 C5610 0.949 . S
C5607 C5608 1.349 . S
C5607 C5609 1.327 . S
C5607 H5630 0.950 . S
C5608 C5607 1.349 . S
C5608 C5620 1.349 . S
C5609 C5607 1.327 . S
C5609 C5625 1.429 . S
C5609 H5631 0.950 . S
C5610 H5606 0.949 . S
C5610 C5618 1.574 . S
C5610 C5626 1.368 . S
H5611 C5619 0.950 . S
H5612 C5617 0.950 . S
H5613 C5618 0.949 . S
H5614 C5620 0.950 . S
H5615 C5621 0.950 . S
H5616 C5622 0.949 . S
C5617 H5612 0.950 . S
C5617 C5619 1.327 . S
C5617 C5623 1.429 . S
C5618 C5610 1.574 . S
C5618 H5613 0.949 . S
C5618 C5624 1.368 . S
C5619 C5603 1.349 . S
C5619 H5611 0.950 . S
C5619 C5617 1.327 . S
C5620 C5608 1.349 . S
C5620 H5614 0.950 . S
C5620 C5621 1.327 . S
C5621 H5615 0.950 . S
C5621 C5620 1.327 . S
C5621 C5625 1.429 . S
C5622 C5605 1.574 . S
C5622 H5616 0.949 . S
C5622 C5626 1.368 . S
C5623 C5604 1.429 . S
C5623 C5617 1.429 . S
C5623 C5624 1.523 . S
C5624 C5605 1.368 . S
C5624 C5618 1.368 . S
C5624 C5623 1.523 . S
C5625 C5609 1.429 . S
C5625 C5621 1.429 . S
C5625 C5626 1.523 . S
C5626 C5610 1.368 . S
C5626 C5622 1.368 . S
C5626 C5625 1.523 . S
H5627 C5602 0.950 . S
H5628 C5604 0.950 . S
H5629 C5605 0.949 . S
H5630 C5607 0.950 . S
H5631 C5609 0.950 . S
C2753 C665 0.907 . S
C2758 C2120 0.911 . S
C2783 C381 1.227 . S
C2788 C2154 1.219 . S
C2813 C460 0.277 . S
C2818 C2223 0.257 . S
C2848 C2261 0.851 . S
C2843 C585 0.852 . S
C2873 C108 1.205 . S
C2878 C2301 1.193 . S
C2908 C2320 0.106 . S
C2903 C196 0.227 . S
C2938 C2354 1.069 . S
C2933 C313 1.071 . S
C2963 C49 1.486 . S
C2968 C2423 1.480 . S
C2998 C2129 2.377 . S
C2993 C1457 2.401 . S
C3023 C1545 0.670 . S
C3028 C2181 0.675 . S
C3058 C2194 1.415 . S
C3053 C1721 1.428 . S
C3088 C2263 1.226 . S
C3083 C1113 1.197 . S
C3113 C1428 1.727 . S
C3118 C2303 1.760 . S
C3148 C2329 1.873 . S
C3143 C1516 1.910 . S
C3178 C2381 0.287 . S
C3173 C1692 0.194 . S
C3208 C2394 2.086 . S
C3203 C1085 2.101 . S
C3238 C2124 2.436 . S
C3233 C988 2.446 . S
C3263 C1817 1.964 . S
C3268 C2434 1.958 . S
C3298 C2484 2.606 . S
C3293 C2081 2.623 . S
C3328 C2543 1.381 . S
C3323 C1993 1.354 . S
C3353 C761 1.253 . S
C3358 C2421 1.242 . S
C3383 C821 1.291 . S
C3388 C2221 1.279 . S
C3413 C2053 2.489 . S
C3418 C2554 2.457 . S
C3448 C2623 0.583 . S
C3443 C1868 0.582 . S
C3478 C2141 0.908 . S
C3473 C372 0.905 . S
C3508 C2609 1.215 . S
C3503 C645 1.223 . S
C3533 C577 0.270 . S
C3538 C2204 0.251 . S
C3563 C497 0.849 . S
C3568 C2560 0.847 . S
C3598 C2280 1.189 . S
C3593 C57 1.204 . S
C3623 C293 0.220 . S
C3628 C2501 0.109 . S
C3658 C2369 1.046 1_556 S
C3653 C205 1.064 . S
C3688 C2644 1.477 . S
C3683 C145 1.493 . S
C3718 C2114 2.374 . S
C3713 C909 2.398 . S
C3748 C2600 0.673 . S
C3743 C1956 0.667 . S
C3773 C724 1.423 . S
C3778 C2209 1.411 . S
C3803 C1780 1.191 . S
C3808 C2564 1.219 . S
C3833 C937 1.726 . S
C3838 C2284 1.755 . S
C3868 C2474 1.870 . S
C3863 C1985 1.905 . S
C3893 C753 0.195 . S
C3898 C2360 0.320 . S
C3923 C1809 2.097 . S
C3928 C2649 2.082 . S
C3953 C1173 2.442 . S
C3958 C2143 2.353 1_656 S
C3983 C1105 1.959 . S
C3988 C2449 1.955 . S
C4013 C1633 2.618 . S
C4018 C2343 2.602 . S
C4043 C1553 1.347 . S
C4048 C2524 1.373 . S
C4078 C2640 1.239 . S
C4073 C1729 1.253 . S
C4103 C1340 1.290 . S
C4108 C2200 1.277 . S
C4138 C2249 2.453 . S
C4133 C1604 2.483 . S
C4168 C2164 0.577 . S
C4163 C1252 0.575 . S
C4193 C489 0.907 . S
C4198 C2680 0.912 . S
C4228 C2594 1.219 . S
C4223 C557 1.228 . S
C4253 C636 0.277 . S
C4258 C2743 0.256 . S
C4283 C409 0.852 . S
C4288 C2581 0.851 . S
C4313 C284 1.206 . S
C4318 C2461 1.193 . S
C4348 C2480 0.105 . S
C4343 C20 0.227 . S
C4378 C2514 1.069 . S
C4373 C137 1.069 . S
C4408 C2663 1.480 . S
C4403 C225 1.487 . S
C4438 C2689 2.377 . S
C4433 C1641 2.401 . S
C4463 C1193 0.670 . S
C4468 C2621 0.675 . S
C4498 C2714 1.415 . S
C4493 C1289 1.427 . S
C4528 C2583 1.226 . S
C4523 C1377 1.197 . S
C4558 C2463 1.760 . S
C4553 C1613 1.727 . S
C4583 C1164 1.910 . S
C4588 C2489 1.873 . S
C4618 C2541 0.287 . S
C4613 C1261 0.194 . S
C4643 C1349 2.101 . S
C4648 C2634 2.087 . S
C4678 C2684 2.435 . S
C4673 C1965 2.446 . S
C4703 C849 1.965 . S
C4708 C2274 1.958 . S
C4738 C2324 2.607 . S
C4733 C929 2.623 . S
C4768 C2383 1.381 . S
C4763 C1017 1.354 . S
C4798 C2661 1.241 . S
C4793 C1897 1.253 . S
C4823 C1789 1.291 . S
C4828 C2741 1.280 . S
C4858 C2234 2.458 . S
C4853 C900 2.490 . S
C4888 C2183 0.583 . S
C4883 C733 0.582 . S
C4913 C548 0.904 . S
C4918 C2701 0.907 . S
C4948 C2169 1.216 . S
C4943 C469 1.223 . S
C4973 C401 0.270 . S
C4978 C2724 0.252 . S
C5003 C673 0.848 . S
C5008 C2240 0.847 . S
C5033 C233 1.204 . S
C5038 C2440 1.189 . S
C5068 C2341 0.109 . S
C5063 C117 0.226 . S
C5093 C29 1.064 . S
C5098 C2529 1.064 . S
C5123 C321 1.485 . S
C5128 C2404 1.477 . S
C5158 C2674 2.374 . S
C5153 C2044 2.398 . S
C5183 C997 0.667 . S
C5188 C2160 0.673 . S
C5218 C2729 1.411 . S
C5213 C1877 1.423 . S
C5243 C812 1.192 . S
C5248 C2244 1.219 . S
C5273 C2073 1.727 . S
C5278 C2444 1.756 . S
C5308 C2314 1.871 . S
C5303 C1025 1.906 . S
C5333 C1905 0.195 . S
C5338 C2520 0.287 . S
C5368 C2409 2.083 . S
C5363 C841 2.098 . S
C5398 C2703 2.432 . S
C5393 C1525 2.443 . S
C5428 C2289 1.955 . S
C5423 C1369 1.959 . S
C5453 C1465 2.618 . S
C5458 C2503 2.602 . S
C5488 C2364 1.372 . S
C5483 C1201 1.347 . S
C5513 C1281 1.253 . S
C5518 C2400 1.239 . S
C5543 C1076 1.290 . S
C5548 C2720 1.277 . S
C5578 C2569 2.453 . S
C5573 C1437 2.483 . S
C5608 C2604 0.577 . S
C5603 C1701 0.575 . S
