# Generated by pormake.
# Topology ctn, (3,4)-cn, num edge types: 1
# Building blocks:
#     Node 0, Type 0, BuildingBlock: OLANEW_clean_sbu_2, # of connection points: 3
#     Node 1, Type 0, BuildingBlock: OLANEW_clean_sbu_2, # of connection points: 3
#     Node 2, Type 0, BuildingBlock: OLANEW_clean_sbu_2, # of connection points: 3
#     Node 3, Type 0, BuildingBlock: OLANEW_clean_sbu_2, # of connection points: 3
#     Node 4, Type 0, BuildingBlock: OLANEW_clean_sbu_2, # of connection points: 3
#     Node 5, Type 0, BuildingBlock: OLANEW_clean_sbu_2, # of connection points: 3
#     Node 6, Type 0, BuildingBlock: OLANEW_clean_sbu_2, # of connection points: 3
#     Node 7, Type 0, BuildingBlock: OLANEW_clean_sbu_2, # of connection points: 3
#     Node 8, Type 0, BuildingBlock: OLANEW_clean_sbu_2, # of connection points: 3
#     Node 9, Type 0, BuildingBlock: OLANEW_clean_sbu_2, # of connection points: 3
#     Node 10, Type 0, BuildingBlock: OLANEW_clean_sbu_2, # of connection points: 3
#     Node 11, Type 0, BuildingBlock: OLANEW_clean_sbu_2, # of connection points: 3
#     Node 12, Type 0, BuildingBlock: OLANEW_clean_sbu_2, # of connection points: 3
#     Node 13, Type 0, BuildingBlock: OLANEW_clean_sbu_2, # of connection points: 3
#     Node 14, Type 0, BuildingBlock: OLANEW_clean_sbu_2, # of connection points: 3
#     Node 15, Type 0, BuildingBlock: OLANEW_clean_sbu_2, # of connection points: 3
#     Node 16, Type 1, BuildingBlock: QUQFOY_clean_sbu_1, # of connection points: 4
#     Node 17, Type 1, BuildingBlock: QUQFOY_clean_sbu_1, # of connection points: 4
#     Node 18, Type 1, BuildingBlock: QUQFOY_clean_sbu_1, # of connection points: 4
#     Node 19, Type 1, BuildingBlock: QUQFOY_clean_sbu_1, # of connection points: 4
#     Node 20, Type 1, BuildingBlock: QUQFOY_clean_sbu_1, # of connection points: 4
#     Node 21, Type 1, BuildingBlock: QUQFOY_clean_sbu_1, # of connection points: 4
#     Node 22, Type 1, BuildingBlock: QUQFOY_clean_sbu_1, # of connection points: 4
#     Node 23, Type 1, BuildingBlock: QUQFOY_clean_sbu_1, # of connection points: 4
#     Node 24, Type 1, BuildingBlock: QUQFOY_clean_sbu_1, # of connection points: 4
#     Node 25, Type 1, BuildingBlock: QUQFOY_clean_sbu_1, # of connection points: 4
#     Node 26, Type 1, BuildingBlock: QUQFOY_clean_sbu_1, # of connection points: 4
#     Node 27, Type 1, BuildingBlock: QUQFOY_clean_sbu_1, # of connection points: 4
#     Edge 28, Type (0, 1), BuildingBlock: CIFDUS_clean_linker_0, # of connection points: 2
#     Edge 29, Type (0, 1), BuildingBlock: CIFDUS_clean_linker_0, # of connection points: 2
#     Edge 30, Type (0, 1), BuildingBlock: CIFDUS_clean_linker_0, # of connection points: 2
#     Edge 31, Type (0, 1), BuildingBlock: CIFDUS_clean_linker_0, # of connection points: 2
#     Edge 32, Type (0, 1), BuildingBlock: CIFDUS_clean_linker_0, # of connection points: 2
#     Edge 33, Type (0, 1), BuildingBlock: CIFDUS_clean_linker_0, # of connection points: 2
#     Edge 34, Type (0, 1), BuildingBlock: CIFDUS_clean_linker_0, # of connection points: 2
#     Edge 35, Type (0, 1), BuildingBlock: CIFDUS_clean_linker_0, # of connection points: 2
#     Edge 36, Type (0, 1), BuildingBlock: CIFDUS_clean_linker_0, # of connection points: 2
#     Edge 37, Type (0, 1), BuildingBlock: CIFDUS_clean_linker_0, # of connection points: 2
#     Edge 38, Type (0, 1), BuildingBlock: CIFDUS_clean_linker_0, # of connection points: 2
#     Edge 39, Type (0, 1), BuildingBlock: CIFDUS_clean_linker_0, # of connection points: 2
#     Edge 40, Type (0, 1), BuildingBlock: CIFDUS_clean_linker_0, # of connection points: 2
#     Edge 41, Type (0, 1), BuildingBlock: CIFDUS_clean_linker_0, # of connection points: 2
#     Edge 42, Type (0, 1), BuildingBlock: CIFDUS_clean_linker_0, # of connection points: 2
#     Edge 43, Type (0, 1), BuildingBlock: CIFDUS_clean_linker_0, # of connection points: 2
#     Edge 44, Type (0, 1), BuildingBlock: CIFDUS_clean_linker_0, # of connection points: 2
#     Edge 45, Type (0, 1), BuildingBlock: CIFDUS_clean_linker_0, # of connection points: 2
#     Edge 46, Type (0, 1), BuildingBlock: CIFDUS_clean_linker_0, # of connection points: 2
#     Edge 47, Type (0, 1), BuildingBlock: CIFDUS_clean_linker_0, # of connection points: 2
#     Edge 48, Type (0, 1), BuildingBlock: CIFDUS_clean_linker_0, # of connection points: 2
#     Edge 49, Type (0, 1), BuildingBlock: CIFDUS_clean_linker_0, # of connection points: 2
#     Edge 50, Type (0, 1), BuildingBlock: CIFDUS_clean_linker_0, # of connection points: 2
#     Edge 51, Type (0, 1), BuildingBlock: CIFDUS_clean_linker_0, # of connection points: 2
#     Edge 52, Type (0, 1), BuildingBlock: CIFDUS_clean_linker_0, # of connection points: 2
#     Edge 53, Type (0, 1), BuildingBlock: CIFDUS_clean_linker_0, # of connection points: 2
#     Edge 54, Type (0, 1), BuildingBlock: CIFDUS_clean_linker_0, # of connection points: 2
#     Edge 55, Type (0, 1), BuildingBlock: CIFDUS_clean_linker_0, # of connection points: 2
#     Edge 56, Type (0, 1), BuildingBlock: CIFDUS_clean_linker_0, # of connection points: 2
#     Edge 57, Type (0, 1), BuildingBlock: CIFDUS_clean_linker_0, # of connection points: 2
#     Edge 58, Type (0, 1), BuildingBlock: CIFDUS_clean_linker_0, # of connection points: 2
#     Edge 59, Type (0, 1), BuildingBlock: CIFDUS_clean_linker_0, # of connection points: 2
#     Edge 60, Type (0, 1), BuildingBlock: CIFDUS_clean_linker_0, # of connection points: 2
#     Edge 61, Type (0, 1), BuildingBlock: CIFDUS_clean_linker_0, # of connection points: 2
#     Edge 62, Type (0, 1), BuildingBlock: CIFDUS_clean_linker_0, # of connection points: 2
#     Edge 63, Type (0, 1), BuildingBlock: CIFDUS_clean_linker_0, # of connection points: 2
#     Edge 64, Type (0, 1), BuildingBlock: CIFDUS_clean_linker_0, # of connection points: 2
#     Edge 65, Type (0, 1), BuildingBlock: CIFDUS_clean_linker_0, # of connection points: 2
#     Edge 66, Type (0, 1), BuildingBlock: CIFDUS_clean_linker_0, # of connection points: 2
#     Edge 67, Type (0, 1), BuildingBlock: CIFDUS_clean_linker_0, # of connection points: 2
#     Edge 68, Type (0, 1), BuildingBlock: CIFDUS_clean_linker_0, # of connection points: 2
#     Edge 69, Type (0, 1), BuildingBlock: CIFDUS_clean_linker_0, # of connection points: 2
#     Edge 70, Type (0, 1), BuildingBlock: CIFDUS_clean_linker_0, # of connection points: 2
#     Edge 71, Type (0, 1), BuildingBlock: CIFDUS_clean_linker_0, # of connection points: 2
#     Edge 72, Type (0, 1), BuildingBlock: CIFDUS_clean_linker_0, # of connection points: 2
#     Edge 73, Type (0, 1), BuildingBlock: CIFDUS_clean_linker_0, # of connection points: 2
#     Edge 74, Type (0, 1), BuildingBlock: CIFDUS_clean_linker_0, # of connection points: 2
#     Edge 75, Type (0, 1), BuildingBlock: CIFDUS_clean_linker_0, # of connection points: 2
# Relax obj value: 0.084
# Max RMSD: 0.188
# Mean RMSD: 0.125
data_MOF--net-ctn--node1-OLANEW_clean_sbu_2--node2-QUQFOY_clean_sbu_1--edge1-CIFDUS_clean_linker_0
_symmetry_space_group_name_H-M    P1
_symmetry_Int_Tables_number       1
_symmetry_cell_setting            triclinic
loop_
_symmetry_equiv_pos_as_xyz
'x, y, z'
_cell_length_a     51.07615
_cell_length_b     52.636643
_cell_length_c     49.485722
_cell_angle_alpha  94.309459
_cell_angle_beta   95.095837
_cell_angle_gamma 100.67686
loop_
_atom_site_label
_atom_site_type_symbol
_atom_site_fract_x
_atom_site_fract_y
_atom_site_fract_z
_atom_type_partial_charge
O0 O 0.04262 0.12028 0.03512 0.0
Cd1 Cd 0.0488 0.08804 0.06753 0.0
O2 O 0.0749 0.14982 0.05777 0.0
Cd3 Cd 0.07577 0.12724 0.09287 0.0
O4 O 0.05738 0.10947 0.1268 0.0
C5 C 0.04242 0.1219 0.13952 0.0
O6 O 0.03972 0.1449 0.13236 0.0
C7 C 0.05758 0.14274 0.03719 0.0
C8 C 0.07912 0.05208 0.04988 0.0
O9 O 0.09013 0.07558 0.05821 0.0
O10 O 0.05367 0.04537 0.04962 0.0
O11 O 0.33018 0.79509 0.28675 0.0
Cd12 Cd 0.28721 0.783 0.2582 0.0
O13 O 0.34064 0.75731 0.27506 0.0
Cd14 Cd 0.30385 0.74121 0.24891 0.0
O15 O 0.26847 0.7104 0.24145 0.0
C16 C 0.26852 0.69274 0.25759 0.0
O17 O 0.28919 0.69463 0.27595 0.0
C18 C 0.34636 0.77945 0.28865 0.0
C19 C 0.28275 0.8105 0.21253 0.0
O20 O 0.27361 0.81749 0.23463 0.0
O21 O 0.29432 0.79086 0.21225 0.0
O22 O 0.89795 0.49255 0.1885 0.0
Cd23 Cd 0.85376 0.4937 0.1662 0.0
O24 O 0.90716 0.47344 0.15058 0.0
Cd25 Cd 0.93283 0.45426 0.12644 0.0
O26 O 0.94985 0.42873 0.0992 0.0
C27 C 0.93937 0.4047 0.096 0.0
O28 O 0.91916 0.39609 0.10969 0.0
C29 C 0.91435 0.48281 0.17508 0.0
C30 C 0.85544 0.53165 0.1295 0.0
O31 O 0.85203 0.53683 0.15452 0.0
O32 O 0.85832 0.50858 0.12192 0.0
O33 O 0.77047 0.84778 0.25853 0.0
Cd34 Cd 0.74074 0.80536 0.25676 0.0
O35 O 0.75129 0.86287 0.29275 0.0
Cd36 Cd 0.72213 0.8279 0.29705 0.0
O37 O 0.68878 0.81213 0.31933 0.0
C38 C 0.68203 0.8294 0.33513 0.0
O39 O 0.69531 0.85342 0.33612 0.0
C40 C 0.7687 0.86631 0.27587 0.0
C41 C 0.73604 0.77682 0.20616 0.0
O42 O 0.71957 0.79171 0.21146 0.0
O43 O 0.75477 0.77556 0.22476 0.0
O44 O 0.15975 0.93227 0.528 0.0
Cd45 Cd 0.14305 0.88717 0.53551 0.0
O46 O 0.11938 0.93772 0.51392 0.0
Cd47 Cd 0.09166 0.95898 0.4936 0.0
O48 O 0.06717 0.97725 0.46561 0.0
C49 C 0.07536 0.98131 0.44253 0.0
O50 O 0.09816 0.97494 0.43711 0.0
C51 C 0.1444 0.94667 0.51857 0.0
C52 C 0.10085 0.87932 0.56785 0.0
O53 O 0.1252 0.88232 0.57841 0.0
O54 O 0.09658 0.8807 0.54213 0.0
O55 O 0.27833 0.77131 0.87739 0.0
Cd56 Cd 0.28679 0.74894 0.83472 0.0
O57 O 0.23777 0.76674 0.85718 0.0
Cd58 Cd 0.1953 0.76856 0.85165 0.0
O59 O 0.15443 0.76714 0.83394 0.0
C60 C 0.14933 0.78531 0.82005 0.0
O61 O 0.16867 0.8051 0.81783 0.0
C62 C 0.25455 0.77525 0.87788 0.0
C63 C 0.31537 0.70893 0.83995 0.0
O64 O 0.3273 0.73179 0.83597 0.0
O65 O 0.29014 0.70519 0.84205 0.0
O66 O 0.93087 0.61022 0.3796 0.0
Cd67 Cd 0.89214 0.62406 0.39722 0.0
O68 O 0.94436 0.60767 0.42216 0.0
Cd69 Cd 0.97033 0.6063 0.45923 0.0
O70 O 0.97391 0.62744 0.49943 0.0
C71 C 0.96743 0.64956 0.49846 0.0
O72 O 0.96087 0.65714 0.4745 0.0
C73 C 0.94857 0.60556 0.39724 0.0
C74 C 0.85948 0.58333 0.41797 0.0
O75 O 0.8548 0.58874 0.39338 0.0
O76 O 0.87962 0.59727 0.43282 0.0
O77 O 0.76346 0.79504 0.85458 0.0
Cd78 Cd 0.76284 0.82027 0.81509 0.0
O79 O 0.72348 0.80022 0.86445 0.0
Cd80 Cd 0.71795 0.829 0.83592 0.0
O81 O 0.70486 0.86504 0.82701 0.0
C82 C 0.68564 0.86629 0.80929 0.0
O83 O 0.67354 0.84515 0.79402 0.0
C84 C 0.74405 0.79016 0.869 0.0
C85 C 0.80535 0.81373 0.78523 0.0
O86 O 0.80706 0.834 0.80185 0.0
O87 O 0.78349 0.79686 0.78244 0.0
O88 O 0.25997 0.29393 0.36575 0.0
Cd89 Cd 0.27379 0.33141 0.34036 0.0
O90 O 0.21966 0.30137 0.37146 0.0
Cd91 Cd 0.22244 0.3375 0.35193 0.0
O92 O 0.21141 0.37531 0.34751 0.0
C93 C 0.18988 0.37699 0.33332 0.0
O94 O 0.17518 0.35588 0.31999 0.0
C95 C 0.23746 0.2876 0.37501 0.0
C96 C 0.31678 0.32453 0.31117 0.0
O97 O 0.32052 0.33292 0.33647 0.0
O98 O 0.29272 0.31956 0.29953 0.0
O99 O 0.40681 0.00362 0.68287 0.0
Cd100 Cd 0.36071 0.99338 0.66186 0.0
O101 O 0.41442 0.96699 0.66417 0.0
Cd102 Cd 0.43913 0.93952 0.65125 0.0
O103 O 0.45645 0.91306 0.62531 0.0
C104 C 0.44676 0.88885 0.62243 0.0
O105 O 0.42695 0.87972 0.6364 0.0
C106 C 0.42285 0.98824 0.67899 0.0
C107 C 0.35057 0.02902 0.62519 0.0
O108 O 0.3472 0.03283 0.65043 0.0
O109 O 0.35886 0.00841 0.61735 0.0
O110 O 0.28394 0.3273 0.7637 0.0
Cd111 Cd 0.25536 0.28429 0.76193 0.0
O112 O 0.26372 0.34168 0.79747 0.0
Cd113 Cd 0.23427 0.30671 0.80093 0.0
O114 O 0.19834 0.29541 0.82128 0.0
C115 C 0.19295 0.31445 0.83563 0.0
O116 O 0.20903 0.33717 0.83658 0.0
C117 C 0.28145 0.3456 0.78099 0.0
C118 C 0.25029 0.25602 0.71112 0.0
O119 O 0.23345 0.27034 0.71695 0.0
O120 O 0.26962 0.25525 0.72925 0.0
O121 O 0.84252 0.29064 0.75892 0.0
Cd122 Cd 0.80099 0.28644 0.7286 0.0
O123 O 0.84459 0.24981 0.74794 0.0
Cd124 Cd 0.80582 0.23932 0.7238 0.0
O125 O 0.76845 0.21193 0.72501 0.0
C126 C 0.77041 0.1954 0.74216 0.0
O127 O 0.79375 0.19633 0.75611 0.0
C128 C 0.8545 0.27162 0.76116 0.0
C129 C 0.80397 0.31923 0.68672 0.0
O130 O 0.79419 0.32539 0.70872 0.0
O131 O 0.81265 0.29789 0.68478 0.0
O132 O 0.57822 0.61814 0.55823 0.0
Cd133 Cd 0.58344 0.58568 0.59059 0.0
O134 O 0.53437 0.60677 0.55656 0.0
Cd135 Cd 0.53339 0.58014 0.58824 0.0
O136 O 0.52042 0.564 0.62524 0.0
C137 C 0.50583 0.57625 0.6387 0.0
O138 O 0.4998 0.59757 0.62979 0.0
C139 C 0.55494 0.62058 0.54864 0.0
C140 C 0.61589 0.55051 0.57628 0.0
O141 O 0.59115 0.54668 0.5668 0.0
O142 O 0.62542 0.57118 0.59213 0.0
O143 O 0.66336 0.45625 0.02929 0.0
Cd144 Cd 0.64837 0.41039 0.03441 0.0
O145 O 0.62174 0.46188 0.02493 0.0
Cd146 Cd 0.59147 0.48453 0.01335 0.0
O147 O 0.56295 0.50124 0.98833 0.0
C148 C 0.56924 0.50673 0.96489 0.0
O149 O 0.59254 0.50302 0.95781 0.0
C150 C 0.64663 0.47105 0.02543 0.0
C151 C 0.61189 0.4016 0.07285 0.0
O152 O 0.63705 0.40354 0.07958 0.0
O153 O 0.6041 0.40415 0.04803 0.0
O154 O 0.78257 0.25838 0.36388 0.0
Cd155 Cd 0.78258 0.22816 0.32369 0.0
O156 O 0.74073 0.25702 0.34908 0.0
Cd157 Cd 0.69959 0.26383 0.3469 0.0
O158 O 0.6583 0.26679 0.3342 0.0
C159 C 0.65351 0.28471 0.31977 0.0
O160 O 0.67369 0.30192 0.31361 0.0
C161 C 0.76066 0.26599 0.3667 0.0
C162 C 0.81192 0.18898 0.33123 0.0
O163 O 0.82234 0.21001 0.32157 0.0
O164 O 0.78794 0.18678 0.33783 0.0
O165 O 0.46074 0.06674 0.95114 0.0
Cd166 Cd 0.43032 0.08634 0.97776 0.0
O167 O 0.4859 0.10199 0.97143 0.0
Cd168 Cd 0.51954 0.13283 0.98681 0.0
O169 O 0.515 0.16146 0.01942 0.0
C170 C 0.49547 0.17295 0.01481 0.0
O171 O 0.48152 0.16845 0.99074 0.0
C172 C 0.48349 0.08174 0.95507 0.0
C173 C 0.38946 0.05103 0.99512 0.0
O174 O 0.38594 0.06162 0.97291 0.0
O175 O 0.41253 0.05694 0.00896 0.0
O176 O 0.22878 0.87535 0.00996 0.0
Cd177 Cd 0.23762 0.9027 0.04323 0.0
Cd178 Cd 0.20016 0.92332 0.01054 0.0
O179 O 0.19677 0.88925 0.98567 0.0
O180 O 0.26094 0.88603 0.06789 0.0
O181 O 0.22307 0.89601 0.07934 0.0
C182 C 0.24391 0.88614 0.08552 0.0
C183 C 0.16355 0.9421 0.01984 0.0
C184 C 0.21192 0.87281 0.98895 0.0
C185 C 0.25726 0.95343 0.02154 0.0
O186 O 0.23417 0.95062 0.00859 0.0
O187 O 0.26248 0.93708 0.03783 0.0
O188 O 0.17224 0.94214 0.99619 0.0
O189 O 0.17449 0.92977 0.03795 0.0
O190 O 0.14621 0.57018 0.30667 0.0
Cd191 Cd 0.11409 0.54289 0.31503 0.0
Cd192 Cd 0.09303 0.55589 0.26869 0.0
O193 O 0.13174 0.57293 0.26391 0.0
O194 O 0.12929 0.51848 0.33799 0.0
O195 O 0.10966 0.50725 0.29592 0.0
C196 C 0.12247 0.50116 0.31742 0.0
C197 C 0.06387 0.52958 0.23483 0.0
C198 C 0.15007 0.57867 0.28368 0.0
C199 C 0.06914 0.57061 0.31931 0.0
O200 O 0.07291 0.57526 0.29498 0.0
O201 O 0.08221 0.55563 0.3314 0.0
O202 O 0.07189 0.55395 0.23255 0.0
O203 O 0.07401 0.51967 0.25544 0.0
O204 O 0.74792 0.68786 0.99386 0.0
Cd205 Cd 0.74196 0.66618 0.02669 0.0
Cd206 Cd 0.78193 0.64607 0.00544 0.0
O207 O 0.78541 0.67713 0.98198 0.0
O208 O 0.7228 0.68535 0.05273 0.0
O209 O 0.76417 0.6792 0.06205 0.0
C210 C 0.74422 0.68879 0.06957 0.0
C211 C 0.81376 0.63638 0.03741 0.0
C212 C 0.76733 0.69073 0.97919 0.0
C213 C 0.72943 0.61015 0.00487 0.0
O214 O 0.75136 0.61481 0.99425 0.0
O215 O 0.72253 0.62769 0.02027 0.0
O216 O 0.81499 0.63103 0.01168 0.0
O217 O 0.79607 0.64946 0.04452 0.0
O218 O 0.96758 0.0173 0.31759 0.0
Cd219 Cd 0.94394 0.01923 0.28213 0.0
Cd220 Cd 0.91313 0.03781 0.31845 0.0
O221 O 0.94347 0.03324 0.34707 0.0
O222 O 0.96759 0.01506 0.25294 0.0
O223 O 0.95155 0.05077 0.26137 0.0
C224 C 0.96617 0.03833 0.24739 0.0
C225 C 0.89728 0.07669 0.32024 0.0
C226 C 0.96401 0.02402 0.34199 0.0
C227 C 0.88878 0.98816 0.28327 0.0
O228 O 0.88617 0.0049 0.30222 0.0
O229 O 0.91031 0.99049 0.27184 0.0
O230 O 0.89106 0.05969 0.33721 0.0
O231 O 0.91312 0.07183 0.30238 0.0
O232 O 0.21642 0.17353 0.48778 0.0
Cd233 Cd 0.20884 0.15375 0.52161 0.0
Cd234 Cd 0.25015 0.13211 0.5059 0.0
O235 O 0.25439 0.16133 0.48002 0.0
O236 O 0.19133 0.17508 0.5471 0.0
O237 O 0.23204 0.16703 0.55624 0.0
C238 C 0.21294 0.17806 0.56363 0.0
C239 C 0.28425 0.1238 0.53633 0.0
C240 C 0.23692 0.17512 0.47468 0.0
C241 C 0.19667 0.09673 0.50548 0.0
O242 O 0.21976 0.10013 0.49712 0.0
O243 O 0.18846 0.11566 0.51721 0.0
O244 O 0.28334 0.11718 0.51055 0.0
O245 O 0.26707 0.13709 0.54437 0.0
O246 O 0.44721 0.52703 0.84611 0.0
Cd247 Cd 0.42031 0.52385 0.81186 0.0
Cd248 Cd 0.38964 0.54035 0.84968 0.0
O249 O 0.42222 0.53901 0.87702 0.0
O250 O 0.44221 0.51955 0.7812 0.0
O251 O 0.42199 0.55289 0.78742 0.0
C252 C 0.43694 0.54099 0.7733 0.0
C253 C 0.37109 0.57763 0.85115 0.0
C254 C 0.4441 0.53311 0.8708 0.0
C255 C 0.36817 0.4886 0.81742 0.0
O256 O 0.36443 0.50574 0.83539 0.0
O257 O 0.38936 0.49201 0.80545 0.0
O258 O 0.36651 0.56085 0.86868 0.0
O259 O 0.38667 0.57344 0.83278 0.0
O260 O 0.76357 0.38785 0.48974 0.0
Cd261 Cd 0.77285 0.41794 0.52042 0.0
Cd262 Cd 0.73 0.43149 0.49394 0.0
O263 O 0.72434 0.39501 0.47334 0.0
O264 O 0.7974 0.40514 0.54742 0.0
O265 O 0.75785 0.41306 0.5564 0.0
C266 C 0.77935 0.40475 0.5641 0.0
C267 C 0.6956 0.44821 0.51238 0.0
C268 C 0.74229 0.38119 0.47346 0.0
C269 C 0.78341 0.4662 0.49235 0.0
O270 O 0.75929 0.45931 0.48178 0.0
O271 O 0.79271 0.45347 0.51056 0.0
O272 O 0.696 0.44434 0.4864 0.0
O273 O 0.7141 0.44128 0.52811 0.0
O274 O 0.65998 0.07486 0.81302 0.0
Cd275 Cd 0.63132 0.04582 0.82525 0.0
Cd276 Cd 0.59935 0.07052 0.79234 0.0
O277 O 0.63501 0.08877 0.78087 0.0
O278 O 0.65354 0.02419 0.84463 0.0
O279 O 0.6271 0.0095 0.80677 0.0
C280 C 0.64442 0.00555 0.82587 0.0
C281 C 0.56345 0.05503 0.75916 0.0
C282 C 0.65776 0.08909 0.7936 0.0
C283 C 0.5913 0.07197 0.85137 0.0
O284 O 0.58854 0.08273 0.82948 0.0
O285 O 0.60553 0.05463 0.85314 0.0
O286 O 0.57171 0.07951 0.76597 0.0
O287 O 0.57627 0.03907 0.7707 0.0
O288 O 0.98345 0.30912 0.96749 0.0
Cd289 Cd 0.98973 0.28323 0.93613 0.0
Cd290 Cd 0.01962 0.32567 0.92122 0.0
O291 O 0.01407 0.34194 0.95874 0.0
O292 O 0.97757 0.24784 0.94768 0.0
O293 O 0.0199 0.26395 0.94282 0.0
C294 C 0.00223 0.24514 0.94935 0.0
C295 C 0.06246 0.32732 0.90839 0.0
C296 C 0.99674 0.33207 0.97377 0.0
C297 C 0.97143 0.3026 0.8835 0.0
O298 O 0.98918 0.32289 0.89037 0.0
O299 O 0.96967 0.28344 0.8979 0.0
O300 O 0.05171 0.34766 0.90943 0.0
O301 O 0.04896 0.30593 0.91525 0.0
O302 O 0.48712 0.79607 0.48922 0.0
Cd303 Cd 0.4921 0.77009 0.45729 0.0
Cd304 Cd 0.51511 0.81484 0.43785 0.0
O305 O 0.51135 0.83114 0.47594 0.0
O306 O 0.47959 0.7357 0.47063 0.0
O307 O 0.52146 0.74918 0.46247 0.0
C308 C 0.50359 0.73142 0.47048 0.0
C309 C 0.55643 0.82231 0.42077 0.0
C310 C 0.49771 0.82005 0.49347 0.0
C311 C 0.46619 0.7854 0.40511 0.0
O312 O 0.48195 0.80729 0.40956 0.0
O313 O 0.46835 0.76756 0.42065 0.0
O314 O 0.54234 0.84019 0.4227 0.0
O315 O 0.54721 0.80001 0.4291 0.0
O316 O 0.93207 0.7466 0.71563 0.0
Cd317 Cd 0.9675 0.73833 0.7039 0.0
Cd318 Cd 0.96376 0.77696 0.67125 0.0
O319 O 0.93349 0.7826 0.69503 0.0
O320 O 0.98758 0.72486 0.73436 0.0
O321 O 0.00136 0.76266 0.71825 0.0
C322 C 0.00538 0.74591 0.73515 0.0
C323 C 0.99637 0.8112 0.66115 0.0
C324 C 0.92261 0.7667 0.71078 0.0
C325 C 0.96189 0.72259 0.64474 0.0
O326 O 0.95812 0.74554 0.64216 0.0
O327 O 0.96704 0.71544 0.66825 0.0
O328 O 0.97217 0.80741 0.64953 0.0
O329 O 0.00156 0.79658 0.67992 0.0
O330 O 0.44267 0.29171 0.21928 0.0
Cd331 Cd 0.47702 0.28376 0.20353 0.0
Cd332 Cd 0.45798 0.30912 0.16218 0.0
O333 O 0.42806 0.31332 0.18636 0.0
O334 O 0.49899 0.27254 0.23411 0.0
O335 O 0.51217 0.30826 0.21418 0.0
C336 C 0.51715 0.29269 0.23207 0.0
C337 C 0.48714 0.34336 0.14778 0.0
C338 C 0.42562 0.3042 0.20926 0.0
C339 C 0.46639 0.25594 0.14646 0.0
O340 O 0.4562 0.27484 0.13896 0.0
O341 O 0.47581 0.25594 0.17113 0.0
O342 O 0.46272 0.33666 0.13667 0.0
O343 O 0.49427 0.33175 0.16853 0.0
H344 H 0.21695 0.80593 0.87932 0.0
H345 H 0.27624 0.77784 0.93039 0.0
H346 H 0.26621 0.80356 0.96997 0.0
H347 H 0.24265 0.83584 0.98935 0.0
H348 H 0.18353 0.86436 0.93828 0.0
H349 H 0.19055 0.83559 0.8996 0.0
C350 C 0.227 0.80466 0.89922 0.0
C351 C 0.24697 0.78957 0.90195 0.0
C352 C 0.22115 0.81955 0.9219 0.0
C353 C 0.26076 0.78927 0.92775 0.0
C354 C 0.25499 0.80392 0.9504 0.0
C355 C 0.23096 0.83556 0.96988 0.0
C356 C 0.2127 0.85244 0.96676 0.0
C357 C 0.23549 0.81939 0.94762 0.0
C358 C 0.19773 0.85164 0.94134 0.0
C359 C 0.20187 0.8353 0.91913 0.0
H360 H 0.97138 0.61896 0.35212 0.0
H361 H 0.98161 0.57681 0.42248 0.0
H362 H 0.02117 0.56354 0.40559 0.0
H363 H 0.05115 0.56178 0.36908 0.0
H364 H 0.03976 0.60421 0.29888 0.0
H365 H 0.00247 0.61947 0.31753 0.0
C366 C 0.98234 0.60697 0.36386 0.0
C367 C 0.97362 0.59892 0.38852 0.0
C368 C 0.00483 0.59934 0.35397 0.0
C369 C 0.98815 0.58359 0.40362 0.0
C370 C 0.01064 0.57582 0.39385 0.0
C371 C 0.04068 0.57457 0.35801 0.0
C372 C 0.0482 0.5816 0.33248 0.0
C373 C 0.01897 0.58331 0.36883 0.0
C374 C 0.0344 0.59828 0.31847 0.0
C375 C 0.01299 0.60704 0.32909 0.0
H376 H 0.78334 0.76314 0.88307 0.0
H377 H 0.7072 0.77812 0.90491 0.0
H378 H 0.70828 0.74945 0.94116 0.0
H379 H 0.73014 0.71969 0.9662 0.0
H380 H 0.8059 0.70365 0.94458 0.0
H381 H 0.80566 0.7333 0.9088 0.0
C382 C 0.76701 0.76017 0.89579 0.0
C383 C 0.7452 0.77279 0.89116 0.0
C384 C 0.76766 0.74349 0.91666 0.0
C385 C 0.72422 0.76867 0.90787 0.0
C386 C 0.7248 0.75227 0.92868 0.0
C387 C 0.74672 0.72269 0.95379 0.0
C388 C 0.76801 0.70941 0.95813 0.0
C389 C 0.74635 0.73953 0.93318 0.0
C390 C 0.78924 0.71359 0.94172 0.0
C391 C 0.7891 0.73052 0.92122 0.0
H392 H 0.02928 0.99946 0.44802 0.0
H393 H 0.08392 0.98548 0.38932 0.0
H394 H 0.05493 0.99874 0.35341 0.0
H395 H 0.01303 0.01199 0.33815 0.0
H396 H 0.95828 0.02633 0.39657 0.0
H397 H 0.98851 0.01545 0.43314 0.0
C398 C 0.03492 0.99945 0.4274 0.0
C399 C 0.05863 0.99124 0.42135 0.0
C400 C 0.01813 0.00711 0.40678 0.0
C401 C 0.06576 0.99159 0.39457 0.0
C402 C 0.04916 0.99914 0.37397 0.0
C403 C 0.00773 0.01289 0.35889 0.0
C404 C 0.9833 0.01974 0.36454 0.0
C405 C 0.02513 0.00657 0.37978 0.0
C406 C 0.97694 0.02108 0.39162 0.0
C407 C 0.99417 0.01478 0.41254 0.0
H408 H 0.209 0.24965 0.67092 0.0
H409 H 0.2851 0.22753 0.69128 0.0
H410 H 0.28026 0.20159 0.64749 0.0
H411 H 0.2544 0.18499 0.60355 0.0
H412 H 0.17797 0.20652 0.58336 0.0
H413 H 0.18298 0.23283 0.62699 0.0
C414 C 0.22456 0.23921 0.66577 0.0
C415 C 0.24739 0.24058 0.68437 0.0
C416 C 0.22158 0.22416 0.64061 0.0
C417 C 0.26731 0.22682 0.67738 0.0
C418 C 0.26457 0.21196 0.65233 0.0
C419 C 0.23883 0.19544 0.60866 0.0
C420 C 0.21586 0.19379 0.59019 0.0
C421 C 0.24177 0.21046 0.63381 0.0
C422 C 0.19585 0.20741 0.59721 0.0
C423 C 0.1987 0.2225 0.62215 0.0
H424 H 0.47402 0.59782 0.67129 0.0
H425 H 0.5141 0.53274 0.66233 0.0
H426 H 0.49636 0.51633 0.70319 0.0
H427 H 0.46931 0.5202 0.74113 0.0
H428 H 0.42911 0.58512 0.75037 0.0
H429 H 0.44712 0.60186 0.70963 0.0
C430 C 0.47892 0.58006 0.67827 0.0
C431 C 0.49536 0.56653 0.66372 0.0
C432 C 0.46862 0.57069 0.70178 0.0
C433 C 0.5015 0.54355 0.6731 0.0
C434 C 0.49135 0.53413 0.69647 0.0
C435 C 0.46446 0.53803 0.73428 0.0
C436 C 0.44785 0.55137 0.74877 0.0
C437 C 0.47486 0.54751 0.71091 0.0
C438 C 0.44183 0.57446 0.73959 0.0
C439 C 0.45212 0.58404 0.7163 0.0
H440 H 0.77339 0.35538 0.67649 0.0
H441 H 0.8355 0.31973 0.64523 0.0
H442 H 0.83478 0.34477 0.60571 0.0
H443 H 0.81489 0.37478 0.5788 0.0
H444 H 0.75055 0.40835 0.60795 0.0
H445 H 0.75384 0.38629 0.64962 0.0
C446 C 0.78694 0.35332 0.66115 0.0
C447 C 0.80448 0.33573 0.66378 0.0
C448 C 0.78594 0.36732 0.63807 0.0
C449 C 0.82174 0.33305 0.64362 0.0
C450 C 0.82135 0.34737 0.62102 0.0
C451 C 0.80177 0.37755 0.5944 0.0
C452 C 0.78255 0.39325 0.59032 0.0
C453 C 0.8033 0.36428 0.61786 0.0
C454 C 0.76551 0.39636 0.6106 0.0
C455 C 0.76737 0.38371 0.6344 0.0
H456 H 0.45253 0.03649 0.68743 0.0
H457 H 0.45566 0.95667 0.69873 0.0
H458 H 0.50076 0.97003 0.72271 0.0
H459 H 0.53784 0.00497 0.74357 0.0
H460 H 0.5337 0.08475 0.73215 0.0
H461 H 0.49059 0.07081 0.70506 0.0
C462 C 0.46321 0.02201 0.69496 0.0
C463 C 0.45092 0.99567 0.69123 0.0
C464 C 0.4889 0.02985 0.70886 0.0
C465 C 0.46494 0.97705 0.7009 0.0
C466 C 0.49062 0.98471 0.71485 0.0
C467 C 0.52765 0.01926 0.73486 0.0
C468 C 0.53891 0.04588 0.74013 0.0
C469 C 0.50263 0.01112 0.71934 0.0
C470 C 0.52546 0.06414 0.72861 0.0
C471 C 0.50074 0.05622 0.71313 0.0
H472 H 0.8858 0.31563 0.78807 0.0
H473 H 0.87663 0.23209 0.77944 0.0
H474 H 0.91237 0.23438 0.81599 0.0
H475 H 0.94437 0.2597 0.85234 0.0
H476 H 0.95531 0.34326 0.86017 0.0
H477 H 0.92087 0.34136 0.82201 0.0
C478 C 0.89181 0.29797 0.79401 0.0
C479 C 0.87835 0.27375 0.78114 0.0
C480 C 0.91258 0.29938 0.81505 0.0
C481 C 0.88658 0.25104 0.78895 0.0
C482 C 0.90697 0.25228 0.80997 0.0
C483 C 0.93928 0.27749 0.8456 0.0
C484 C 0.9521 0.30154 0.8592 0.0
C485 C 0.91977 0.27628 0.82348 0.0
C486 C 0.94566 0.32448 0.85001 0.0
C487 C 0.92593 0.32341 0.82825 0.0
H488 H 0.48423 0.90254 0.58775 0.0
H489 H 0.42956 0.83653 0.61018 0.0
H490 H 0.44167 0.809 0.5732 0.0
H491 H 0.46573 0.80431 0.53279 0.0
H492 H 0.51957 0.87079 0.50999 0.0
H493 H 0.50987 0.89738 0.5489 0.0
C494 C 0.47511 0.88208 0.58473 0.0
C495 C 0.45588 0.87169 0.60163 0.0
C496 C 0.4819 0.86644 0.56325 0.0
C497 C 0.44434 0.8451 0.59742 0.0
C498 C 0.45122 0.82933 0.57624 0.0
C499 C 0.47552 0.82456 0.53643 0.0
C500 C 0.49321 0.83552 0.51832 0.0
C501 C 0.46965 0.83989 0.55875 0.0
C502 C 0.50573 0.86182 0.52345 0.0
C503 C 0.50021 0.87709 0.54572 0.0
H504 H 0.174 0.35293 0.86206 0.0
H505 H 0.15714 0.26995 0.84165 0.0
H506 H 0.11605 0.2663 0.86426 0.0
H507 H 0.08388 0.28714 0.88801 0.0
H508 H 0.10039 0.37042 0.9061 0.0
H509 H 0.14282 0.37345 0.88639 0.0
C510 C 0.16146 0.33399 0.86265 0.0
C511 C 0.1686 0.31176 0.85012 0.0
C512 C 0.13779 0.3321 0.87528 0.0
C513 C 0.15205 0.28739 0.85106 0.0
C514 C 0.12857 0.28529 0.864 0.0
C515 C 0.09694 0.30589 0.88789 0.0
C516 C 0.08903 0.32853 0.89847 0.0
C517 C 0.1211 0.30757 0.87595 0.0
C518 C 0.10599 0.35273 0.89797 0.0
C519 C 0.13024 0.35449 0.8867 0.0
H520 H 0.50845 0.62674 0.52175 0.0
H521 H 0.59287 0.66017 0.53415 0.0
H522 H 0.58487 0.69666 0.5087 0.0
H523 H 0.55298 0.72106 0.48664 0.0
H524 H 0.46853 0.6874 0.47651 0.0
H525 H 0.47753 0.64904 0.49725 0.0
C526 C 0.52522 0.64184 0.51871 0.0
C527 C 0.55118 0.64082 0.53013 0.0
C528 C 0.52042 0.66289 0.50459 0.0
C529 C 0.57265 0.66047 0.52566 0.0
C530 C 0.56807 0.68142 0.51121 0.0
C531 C 0.53664 0.70515 0.48866 0.0
C532 C 0.51009 0.70721 0.48027 0.0
C533 C 0.54191 0.68315 0.50114 0.0
C534 C 0.48912 0.68646 0.48305 0.0
C535 C 0.49423 0.66447 0.4949 0.0
H536 H 0.81652 0.7677 0.76668 0.0
H537 H 0.84561 0.85036 0.77084 0.0
H538 H 0.88388 0.8432 0.7468 0.0
H539 H 0.90959 0.81324 0.72547 0.0
H540 H 0.88222 0.73059 0.72505 0.0
H541 H 0.84276 0.73789 0.74671 0.0
C542 C 0.83116 0.78414 0.76215 0.0
C543 C 0.8282 0.80951 0.7703 0.0
C544 C 0.85345 0.77985 0.74908 0.0
C545 C 0.84751 0.83064 0.76474 0.0
C546 C 0.86936 0.82655 0.75099 0.0
C547 C 0.89488 0.79687 0.73001 0.0
C548 C 0.89869 0.77142 0.72357 0.0
C549 C 0.87261 0.80123 0.74318 0.0
C550 C 0.87973 0.75036 0.7299 0.0
C551 C 0.85715 0.75451 0.74223 0.0
H552 H 0.10323 0.86686 0.62028 0.0
H553 H 0.04761 0.87605 0.55242 0.0
H554 H 0.01 0.85904 0.57728 0.0
H555 H 0.99314 0.83695 0.61587 0.0
H556 H 0.04873 0.82537 0.68265 0.0
H557 H 0.08606 0.84834 0.66084 0.0
C558 C 0.08288 0.86553 0.61109 0.0
C559 C 0.07826 0.87245 0.58441 0.0
C560 C 0.06132 0.85518 0.62527 0.0
C561 C 0.05175 0.87064 0.57283 0.0
C562 C 0.03021 0.86089 0.58703 0.0
C563 C 0.01336 0.83989 0.62595 0.0
C564 C 0.01815 0.82927 0.65075 0.0
C565 C 0.03478 0.85241 0.61291 0.0
C566 C 0.04449 0.83324 0.66349 0.0
C567 C 0.06587 0.84627 0.65096 0.0
H568 H 0.10633 0.74584 0.81824 0.0
H569 H 0.13253 0.8197 0.78696 0.0
H570 H 0.08985 0.81446 0.75873 0.0
H571 H 0.04601 0.78798 0.74128 0.0
H572 H 0.02009 0.71388 0.77218 0.0
H573 H 0.06177 0.72023 0.80225 0.0
C574 C 0.10266 0.7609 0.80541 0.0
C575 C 0.12269 0.78306 0.80463 0.0
C576 C 0.07818 0.75768 0.78905 0.0
C577 C 0.11752 0.8024 0.78792 0.0
C578 C 0.09313 0.79941 0.77171 0.0
C579 C 0.0494 0.77327 0.75469 0.0
C580 C 0.03001 0.75043 0.75437 0.0
C581 C 0.07347 0.77697 0.77185 0.0
C582 C 0.03471 0.73161 0.77195 0.0
C583 C 0.05855 0.73521 0.78915 0.0
H584 H 0.97226 0.63739 0.55119 0.0
H585 H 0.95896 0.69912 0.50201 0.0
H586 H 0.95507 0.72656 0.54271 0.0
H587 H 0.95569 0.73334 0.59206 0.0
H588 H 0.96908 0.67211 0.64188 0.0
H589 H 0.9724 0.64414 0.6011 0.0
C590 C 0.96861 0.65688 0.54941 0.0
C591 C 0.96598 0.66617 0.52356 0.0
C592 C 0.96621 0.67262 0.57298 0.0
C593 C 0.96108 0.69143 0.52161 0.0
C594 C 0.95881 0.70717 0.54489 0.0
C595 C 0.95916 0.71382 0.59408 0.0
C596 C 0.96209 0.70488 0.62005 0.0
C597 C 0.96129 0.69796 0.57064 0.0
C598 C 0.96668 0.67952 0.62216 0.0
C599 C 0.96868 0.66353 0.59885 0.0
H600 H 0.81289 0.87927 0.24859 0.0
H601 H 0.76631 0.91058 0.3069 0.0
H602 H 0.79833 0.9515 0.31274 0.0
H603 H 0.84079 0.97749 0.30369 0.0
H604 H 0.88838 0.94651 0.24627 0.0
H605 H 0.85459 0.90656 0.23753 0.0
C606 C 0.80963 0.89512 0.26238 0.0
C607 C 0.78731 0.8917 0.27745 0.0
C608 C 0.82834 0.91867 0.26591 0.0
C609 C 0.7834 0.91251 0.2952 0.0
C610 C 0.80171 0.93598 0.29857 0.0
C611 C 0.84375 0.96212 0.28908 0.0
C612 C 0.86723 0.96498 0.27585 0.0
C613 C 0.82446 0.93912 0.2844 0.0
C614 C 0.87055 0.94485 0.25685 0.0
C615 C 0.85126 0.92194 0.25188 0.0
H616 H 0.85606 0.18162 0.30687 0.0
H617 H 0.8005 0.14767 0.36106 0.0
H618 H 0.82294 0.11068 0.36345 0.0
H619 H 0.85702 0.08712 0.34876 0.0
H620 H 0.91133 0.11963 0.29275 0.0
H621 H 0.89073 0.15807 0.2925 0.0
C622 C 0.84903 0.16623 0.31938 0.0
C623 C 0.82665 0.16742 0.33378 0.0
C624 C 0.86171 0.14471 0.32023 0.0
C625 C 0.81762 0.1472 0.34971 0.0
C626 C 0.83044 0.12603 0.35109 0.0
C627 C 0.86451 0.10268 0.33662 0.0
C628 C 0.88571 0.10051 0.32082 0.0
C629 C 0.8523 0.12445 0.33621 0.0
C630 C 0.89501 0.12078 0.30507 0.0
C631 C 0.88324 0.14277 0.30492 0.0
H632 H 0.33684 0.04252 0.97645 0.0
H633 H 0.39277 0.01833 0.03506 0.0
H634 H 0.35647 0.98687 0.04957 0.0
H635 H 0.30918 0.96504 0.0442 0.0
H636 H 0.2534 0.9899 0.9858 0.0
H637 H 0.28933 0.02248 0.97288 0.0
C638 C 0.3411 0.03037 0.99241 0.0
C639 C 0.36746 0.03256 0.00447 0.0
C640 C 0.32016 0.0125 0.00075 0.0
C641 C 0.37262 0.01694 0.02538 0.0
C642 C 0.35189 0.99895 0.03369 0.0
C643 C 0.30482 0.97772 0.02882 0.0
C644 C 0.27865 0.97484 0.01588 0.0
C645 C 0.32562 0.99641 0.02134 0.0
C646 C 0.27336 0.99157 0.99606 0.0
C647 C 0.29392 0.01019 0.98856 0.0
H648 H 0.14846 0.38861 0.30106 0.0
H649 H 0.21025 0.42165 0.36603 0.0
H650 H 0.19386 0.46236 0.36776 0.0
H651 H 0.16222 0.48872 0.35077 0.0
H652 H 0.10174 0.45671 0.28439 0.0
H653 H 0.11721 0.41538 0.28345 0.0
C654 C 0.15837 0.40473 0.31558 0.0
C655 C 0.18054 0.40203 0.33341 0.0
C656 C 0.14896 0.42821 0.31634 0.0
C657 C 0.19321 0.42318 0.35199 0.0
C658 C 0.18379 0.44646 0.35308 0.0
C659 C 0.15225 0.47262 0.33627 0.0
C660 C 0.13071 0.47569 0.31784 0.0
C661 C 0.16166 0.44918 0.33541 0.0
C662 C 0.1183 0.4548 0.29885 0.0
C663 C 0.12718 0.43119 0.29826 0.0
H664 H 0.12335 0.99054 0.52402 0.0
H665 H 0.19214 0.96184 0.49913 0.0
H666 H 0.21312 0.00548 0.48999 0.0
H667 H 0.2131 0.05187 0.4917 0.0
H668 H 0.14524 0.08137 0.51821 0.0
H669 H 0.12223 0.03712 0.52312 0.0
C670 C 0.14259 0.99375 0.51591 0.0
C671 C 0.15605 0.97298 0.51191 0.0
C672 C 0.15466 0.01899 0.51096 0.0
C673 C 0.18145 0.97757 0.50241 0.0
C674 C 0.1934 0.00248 0.49709 0.0
C675 C 0.1931 0.04869 0.49815 0.0
C676 C 0.18097 0.06997 0.50465 0.0
C677 C 0.18034 0.02336 0.50164 0.0
C678 C 0.15508 0.06536 0.51312 0.0
C679 C 0.14196 0.04008 0.51605 0.0
H680 H 0.7688 0.15915 0.77841 0.0
H681 H 0.71901 0.18838 0.71772 0.0
H682 H 0.6799 0.15752 0.72781 0.0
H683 H 0.65974 0.12315 0.75472 0.0
H684 H 0.70967 0.09441 0.81577 0.0
H685 H 0.74889 0.12424 0.80456 0.0
C686 C 0.74943 0.15876 0.76729 0.0
C687 C 0.74683 0.17612 0.74739 0.0
C688 C 0.72705 0.14111 0.77329 0.0
C689 C 0.72157 0.17527 0.73317 0.0
C690 C 0.69919 0.15764 0.73894 0.0
C691 C 0.6792 0.12332 0.76554 0.0
C692 C 0.68169 0.10659 0.78614 0.0
C693 C 0.70168 0.14061 0.7591 0.0
C694 C 0.70711 0.10709 0.79989 0.0
C695 C 0.72958 0.12416 0.7935 0.0
H696 H 0.33267 0.074 0.63566 0.0
H697 H 0.35346 0.02497 0.57024 0.0
H698 H 0.33815 0.05245 0.53704 0.0
H699 H 0.31455 0.08754 0.52626 0.0
H700 H 0.29213 0.13559 0.59151 0.0
H701 H 0.31292 0.11169 0.62507 0.0
C702 C 0.33412 0.06947 0.61417 0.0
C703 C 0.34387 0.04724 0.60545 0.0
C704 C 0.32499 0.08519 0.59512 0.0
C705 C 0.34583 0.04181 0.57753 0.0
C706 C 0.33707 0.05752 0.55849 0.0
C707 C 0.3147 0.09317 0.54783 0.0
C708 C 0.30161 0.11319 0.55634 0.0
C709 C 0.32602 0.07889 0.56701 0.0
C710 C 0.30197 0.12018 0.58438 0.0
C711 C 0.31371 0.10642 0.6036 0.0
H712 H 0.60544 0.5115 0.53527 0.0
H713 H 0.66472 0.54707 0.60146 0.0
H714 H 0.69333 0.51646 0.5894 0.0
H715 H 0.70265 0.48109 0.55845 0.0
H716 H 0.64495 0.448 0.49015 0.0
H717 H 0.61441 0.47576 0.50483 0.0
C718 C 0.62455 0.51246 0.54715 0.0
C719 C 0.63295 0.5316 0.56918 0.0
C720 C 0.64115 0.49513 0.53977 0.0
C721 C 0.65785 0.53266 0.58428 0.0
C722 C 0.6742 0.5151 0.57746 0.0
C723 C 0.68317 0.47966 0.54711 0.0
C724 C 0.67592 0.46241 0.5234 0.0
C725 C 0.66618 0.49641 0.55507 0.0
C726 C 0.65089 0.4611 0.50853 0.0
C727 C 0.63349 0.47704 0.51684 0.0
H728 H 0.72626 0.3 0.37044 0.0
H729 H 0.79222 0.27543 0.41498 0.0
H730 H 0.7914 0.30786 0.45269 0.0
H731 H 0.77307 0.34422 0.4722 0.0
H732 H 0.70595 0.36762 0.42827 0.0
H733 H 0.70527 0.33367 0.39162 0.0
C734 C 0.73977 0.30094 0.38872 0.0
C735 C 0.75887 0.28482 0.39 0.0
C736 C 0.73898 0.31944 0.41049 0.0
C737 C 0.77725 0.28753 0.41343 0.0
C738 C 0.77676 0.30603 0.43505 0.0
C739 C 0.7581 0.34175 0.45475 0.0
C740 C 0.73971 0.35859 0.45295 0.0
C741 C 0.75787 0.32225 0.4337 0.0
C742 C 0.72034 0.35495 0.43025 0.0
C743 C 0.72003 0.33562 0.40918 0.0
H744 H 0.5207 0.11619 0.93427 0.0
H745 H 0.49532 0.03448 0.94174 0.0
H746 H 0.52928 0.02444 0.91289 0.0
H747 H 0.56343 0.03868 0.88225 0.0
H748 H 0.58457 0.11985 0.87017 0.0
H749 H 0.55538 0.1305 0.90425 0.0
C750 C 0.52302 0.09626 0.92996 0.0
C751 C 0.50581 0.0761 0.94021 0.0
C752 C 0.54173 0.09059 0.91238 0.0
C753 C 0.50846 0.05028 0.93403 0.0
C754 C 0.52782 0.04455 0.91753 0.0
C755 C 0.56195 0.05871 0.88752 0.0
C756 C 0.57617 0.07851 0.87402 0.0
C757 C 0.54418 0.0645 0.90613 0.0
C758 C 0.57376 0.10435 0.88044 0.0
C759 C 0.55706 0.11042 0.89985 0.0
H760 H 0.27189 0.25594 0.3902 0.0
H761 H 0.19154 0.26882 0.39718 0.0
H762 H 0.1841 0.23455 0.42764 0.0
H763 H 0.20097 0.20261 0.45421 0.0
H764 H 0.28123 0.18945 0.44776 0.0
H765 H 0.28801 0.22207 0.4151 0.0
C766 C 0.25266 0.25111 0.39818 0.0
C767 C 0.2324 0.26513 0.3915 0.0
C768 C 0.24851 0.23143 0.41593 0.0
C769 C 0.20759 0.2585 0.40202 0.0
C770 C 0.20329 0.23891 0.41952 0.0
C771 C 0.21995 0.20677 0.44562 0.0
C772 C 0.24062 0.19373 0.45364 0.0
C773 C 0.22373 0.22554 0.42694 0.0
C774 C 0.26497 0.19923 0.44204 0.0
C775 C 0.26889 0.21792 0.42337 0.0
H776 H 0.52034 0.51783 0.97329 0.0
H777 H 0.57439 0.51369 0.91146 0.0
H778 H 0.54095 0.523 0.8773 0.0
H779 H 0.4955 0.52948 0.86433 0.0
H780 H 0.44122 0.53388 0.92584 0.0
H781 H 0.47574 0.52754 0.96079 0.0
C782 C 0.52488 0.51916 0.95239 0.0
C783 C 0.54975 0.51479 0.94493 0.0
C784 C 0.5055 0.52447 0.93275 0.0
C785 C 0.55538 0.51682 0.91779 0.0
C786 C 0.53624 0.52211 0.89818 0.0
C787 C 0.49123 0.52922 0.88541 0.0
C788 C 0.46571 0.53188 0.8924 0.0
C789 C 0.51109 0.5255 0.90535 0.0
C790 C 0.46067 0.53182 0.91987 0.0
C791 C 0.48037 0.52811 0.93986 0.0
H792 H 0.77017 0.74716 0.18774 0.0
H793 H 0.69611 0.77201 0.16442 0.0
H794 H 0.69177 0.74653 0.12035 0.0
H795 H 0.70917 0.7174 0.08829 0.0
H796 H 0.78376 0.69342 0.11142 0.0
H797 H 0.78764 0.71831 0.15571 0.0
C798 C 0.75305 0.747 0.17304 0.0
C799 C 0.7335 0.76146 0.17941 0.0
C800 C 0.75075 0.73244 0.14769 0.0
C801 C 0.71149 0.76109 0.16006 0.0
C802 C 0.70897 0.74649 0.13485 0.0
C803 C 0.72623 0.71755 0.10306 0.0
C804 C 0.74611 0.70354 0.09655 0.0
C805 C 0.72849 0.73211 0.12843 0.0
C806 C 0.76817 0.70406 0.11587 0.0
C807 C 0.77042 0.71829 0.14122 0.0
H808 H 0.03889 0.07297 0.15496 0.0
H809 H 0.0115 0.14467 0.17252 0.0
H810 H 0.98525 0.12517 0.2072 0.0
H811 H 0.96982 0.08762 0.23245 0.0
H812 H 0.99718 0.01596 0.21444 0.0
H813 H 0.02352 0.03558 0.18003 0.0
C814 C 0.02727 0.08439 0.16643 0.0
C815 C 0.02722 0.11025 0.16114 0.0
C816 C 0.01207 0.07303 0.18623 0.0
C817 C 0.01193 0.1247 0.17615 0.0
C818 C 0.99686 0.11357 0.19599 0.0
C819 C 0.98148 0.07629 0.22094 0.0
C820 C 0.98147 0.05035 0.22604 0.0
C821 C 0.9967 0.08771 0.20114 0.0
C822 C 0.99677 0.03596 0.21097 0.0
C823 C 0.01191 0.04717 0.19127 0.0
H824 H 0.24803 0.84283 0.20138 0.0
H825 H 0.31011 0.80861 0.16795 0.0
H826 H 0.30403 0.82971 0.12624 0.0
H827 H 0.28048 0.85682 0.09882 0.0
H828 H 0.21688 0.88966 0.13074 0.0
H829 H 0.22413 0.87012 0.17351 0.0
C830 C 0.26033 0.84016 0.18502 0.0
C831 C 0.27954 0.82422 0.18779 0.0
C832 C 0.25638 0.85198 0.16081 0.0
C833 C 0.29515 0.82071 0.16632 0.0
C834 C 0.29169 0.83278 0.14245 0.0
C835 C 0.26824 0.85983 0.11515 0.0
C836 C 0.2482 0.87473 0.11162 0.0
C837 C 0.27226 0.84828 0.13941 0.0
C838 C 0.23241 0.87824 0.13293 0.0
C839 C 0.23657 0.8671 0.15739 0.0
H840 H 0.96048 0.49798 0.15296 0.0
H841 H 0.92912 0.47049 0.2257 0.0
H842 H 0.97453 0.47765 0.24908 0.0
H843 H 0.02211 0.49739 0.25068 0.0
H844 H 0.05238 0.53109 0.18024 0.0
H845 H 0.00877 0.51533 0.15372 0.0
C846 C 0.96377 0.49298 0.1737 0.0
C847 C 0.94172 0.48359 0.18764 0.0
C848 C 0.98976 0.49837 0.18735 0.0
C849 C 0.94595 0.47774 0.21469 0.0
C850 C 0.97185 0.48185 0.22801 0.0
C851 C 0.01932 0.50052 0.22927 0.0
C852 C 0.04034 0.51505 0.21722 0.0
C853 C 0.99381 0.49291 0.21481 0.0
C854 C 0.03643 0.51972 0.18975 0.0
C855 C 0.01147 0.5109 0.17471 0.0
H856 H 0.37393 0.74542 0.31021 0.0
H857 H 0.37266 0.82728 0.31229 0.0
H858 H 0.41085 0.83657 0.34758 0.0
H859 H 0.44325 0.82101 0.37929 0.0
H860 H 0.44165 0.73871 0.37895 0.0
H861 H 0.40589 0.73001 0.34145 0.0
C862 C 0.38218 0.76536 0.31812 0.0
C863 C 0.37058 0.78565 0.30852 0.0
C864 C 0.4035 0.77043 0.33885 0.0
C865 C 0.38125 0.81132 0.31932 0.0
C866 C 0.40305 0.81662 0.33952 0.0
C867 C 0.43518 0.80121 0.37085 0.0
C868 C 0.44509 0.78053 0.38187 0.0
C869 C 0.41413 0.79628 0.34966 0.0
C870 C 0.43427 0.75494 0.37094 0.0
C871 C 0.41386 0.74995 0.34946 0.0
H872 H 0.98067 0.41626 0.06511 0.0
H873 H 0.91877 0.35326 0.08162 0.0
H874 H 0.932 0.32478 0.04626 0.0
H875 H 0.95956 0.31841 0.00903 0.0
H876 H 0.02116 0.38169 0.9924 0.0
H877 H 0.00968 0.40926 0.02955 0.0
C878 C 0.97015 0.39626 0.06111 0.0
C879 C 0.94863 0.387 0.07587 0.0
C880 C 0.97774 0.38001 0.04065 0.0
C881 C 0.93534 0.36096 0.0705 0.0
C882 C 0.94287 0.34464 0.05025 0.0
C883 C 0.97062 0.33816 0.01364 0.0
C884 C 0.99106 0.34796 0.99776 0.0
C885 C 0.9638 0.35405 0.03495 0.0
C886 C 0.00524 0.37361 0.00415 0.0
C887 C 0.99867 0.38946 0.0254 0.0
H888 H 0.65979 0.86333 0.36486 0.0
H889 H 0.65306 0.78141 0.34223 0.0
H890 H 0.61463 0.77171 0.36857 0.0
H891 H 0.58174 0.78686 0.39651 0.0
H892 H 0.58783 0.86909 0.41674 0.0
H893 H 0.6279 0.87829 0.39306 0.0
C894 C 0.65005 0.84331 0.36576 0.0
C895 C 0.65925 0.82314 0.35155 0.0
C896 C 0.62785 0.83795 0.38056 0.0
C897 C 0.6463 0.79732 0.3529 0.0
C898 C 0.62435 0.79177 0.36798 0.0
C899 C 0.59207 0.80674 0.39597 0.0
C900 C 0.58188 0.82727 0.40835 0.0
C901 C 0.6148 0.81196 0.38171 0.0
C902 C 0.59524 0.85297 0.40727 0.0
C903 C 0.61813 0.85826 0.39372 0.0
H904 H 0.01249 0.14255 0.00358 0.0
H905 H 0.09267 0.18587 0.02699 0.0
H906 H 0.0835 0.22029 0.99918 0.0
H907 H 0.0513 0.24003 0.97189 0.0
H908 H 0.97013 0.19807 0.9516 0.0
H909 H 0.98111 0.16117 0.97424 0.0
C910 C 0.02812 0.15929 0.00219 0.0
C911 C 0.0532 0.16166 0.01737 0.0
C912 C 0.02242 0.17941 0.98689 0.0
C913 C 0.07314 0.18363 0.0156 0.0
C914 C 0.0679 0.20336 -0.00026 0.0
C915 C 0.03616 0.22263 0.97205 0.0
C916 C 0.00993 0.22182 0.96017 0.0
C917 C 0.0424 0.20177 0.98585 0.0
C918 C 0.99044 0.19924 0.96075 0.0
C919 C 0.99669 0.17813 0.97371 0.0
H920 H 0.31888 0.32238 0.25637 0.0
H921 H 0.36589 0.31768 0.33204 0.0
H922 H 0.40343 0.31019 0.30718 0.0
H923 H 0.42297 0.30501 0.2639 0.0
H924 H 0.37704 0.3126 0.18847 0.0
H925 H 0.33906 0.31893 0.21322 0.0
C926 C 0.33734 0.31967 0.26739 0.0
C927 C 0.33956 0.32045 0.29598 0.0
C928 C 0.35904 0.3159 0.253 0.0
C929 C 0.3637 0.31722 0.31002 0.0
C930 C 0.38516 0.31288 0.29582 0.0
C931 C 0.4046 0.30796 0.25289 0.0
C932 C 0.40276 0.30817 0.22439 0.0
C933 C 0.38305 0.31216 0.26731 0.0
C934 C 0.37898 0.3124 0.21042 0.0
C935 C 0.35723 0.31597 0.22455 0.0
H936 H 0.55852 0.40156 0.06634 0.0
H937 H 0.62119 0.3867 0.12396 0.0
H938 H 0.58803 0.37047 0.1543 0.0
H939 H 0.54096 0.35594 0.16191 0.0
H940 H 0.47831 0.36999 0.1037 0.0
H941 H 0.51178 0.39154 0.07647 0.0
C942 C 0.56496 0.39504 0.08568 0.0
C943 C 0.59224 0.39497 0.09268 0.0
C944 C 0.54578 0.38554 0.10293 0.0
C945 C 0.60029 0.38679 0.11797 0.0
C946 C 0.58133 0.37746 0.13533 0.0
C947 C 0.53461 0.36419 0.14357 0.0
C948 C 0.50716 0.36106 0.13471 0.0
C949 C 0.55397 0.37609 0.12767 0.0
C950 C 0.4993 0.37196 0.11093 0.0
C951 C 0.51844 0.38418 0.09523 0.0
H952 H 0.63693 0.3182 0.28562 0.0
H953 H 0.60772 0.25122 0.32751 0.0
H954 H 0.56266 0.24888 0.30531 0.0
H955 H 0.53215 0.26406 0.27197 0.0
H956 H 0.56119 0.3306 0.22943 0.0
H957 H 0.60566 0.33498 0.2541 0.0
C958 C 0.62068 0.30321 0.29008 0.0
C959 C 0.6258 0.28479 0.30806 0.0
C960 C 0.59479 0.30182 0.27705 0.0
C961 C 0.60444 0.26558 0.31367 0.0
C962 C 0.57863 0.26419 0.30095 0.0
C963 C 0.54813 0.27967 0.26823 0.0
C964 C 0.54338 0.29687 0.24875 0.0
C965 C 0.57368 0.28193 0.28228 0.0
C966 C 0.5643 0.31705 0.24427 0.0
C967 C 0.58977 0.31953 0.25833 0.0
H968 H 0.50766 0.17405 0.06966 0.0
H969 H 0.4641 0.209 0.00859 0.0
H970 H 0.44936 0.23618 0.04408 0.0
H971 H 0.45009 0.25109 0.09219 0.0
H972 H 0.49313 0.21597 0.1536 0.0
H973 H 0.50628 0.18739 0.11824 0.0
C974 C 0.49505 0.18771 0.06415 0.0
C975 C 0.48725 0.18973 0.03652 0.0
C976 C 0.48629 0.20304 0.0847 0.0
C977 C 0.4705 0.20717 0.0297 0.0
C978 C 0.462 0.22268 0.04998 0.0
C979 C 0.46206 0.23698 0.09795 0.0
C980 C 0.47069 0.23583 0.12557 0.0
C981 C 0.46986 0.22085 0.07752 0.0
C982 C 0.48615 0.21732 0.13253 0.0
C983 C 0.49386 0.20107 0.1123 0.0
H984 H 0.27698 0.38922 0.81144 0.0
H985 H 0.32604 0.3601 0.75436 0.0
H986 H 0.35663 0.40227 0.7596 0.0
H987 H 0.37044 0.44676 0.78211 0.0
H988 H 0.32096 0.47515 0.83933 0.0
H989 H 0.28948 0.43384 0.83213 0.0
C990 C 0.29432 0.39203 0.80004 0.0
C991 C 0.29932 0.37142 0.7827 0.0
C992 C 0.31178 0.4162 0.80321 0.0
C993 C 0.32175 0.37559 0.76791 0.0
C994 C 0.33927 0.39969 0.77093 0.0
C995 C 0.35269 0.44399 0.79288 0.0
C996 C 0.34823 0.46405 0.81139 0.0
C997 C 0.33464 0.42004 0.78878 0.0
C998 C 0.32503 0.46008 0.82507 0.0
C999 C 0.30699 0.43643 0.821 0.0
H1000 H 0.30039 0.66346 0.86183 0.0
H1001 H 0.36323 0.70574 0.82065 0.0
H1002 H 0.38601 0.66874 0.82005 0.0
H1003 H 0.38743 0.62377 0.83032 0.0
H1004 H 0.32571 0.5828 0.87385 0.0
H1005 H 0.30315 0.6198 0.87442 0.0
C1006 C 0.31911 0.6646 0.85279 0.0
C1007 C 0.33001 0.68721 0.84115 0.0
C1008 C 0.33226 0.64342 0.85286 0.0
C1009 C 0.35444 0.68854 0.8298 0.0
C1010 C 0.36743 0.66735 0.82935 0.0
C1011 C 0.36905 0.62301 0.83991 0.0
C1012 C 0.35816 0.60054 0.85185 0.0
C1013 C 0.35642 0.6446 0.84064 0.0
C1014 C 0.33452 0.59989 0.86454 0.0
C1015 C 0.32157 0.62102 0.86483 0.0
H1016 H 0.86933 0.56089 0.46469 0.0
H1017 H 0.81059 0.55685 0.39536 0.0
H1018 H 0.78174 0.52079 0.41274 0.0
H1019 H 0.77336 0.49018 0.44712 0.0
H1020 H 0.83251 0.4927 0.51574 0.0
H1021 H 0.86106 0.52964 0.4991 0.0
C1022 C 0.85018 0.55216 0.45344 0.0
C1023 C 0.8421 0.56158 0.42879 0.0
C1024 C 0.83379 0.53118 0.46338 0.0
C1025 C 0.81732 0.54994 0.41435 0.0
C1026 C 0.80078 0.52934 0.42428 0.0
C1027 C 0.79244 0.49885 0.45856 0.0
C1028 C 0.80074 0.48874 0.4827 0.0
C1029 C 0.80885 0.51978 0.44872 0.0
C1030 C 0.82565 0.50008 0.49707 0.0
C1031 C 0.84197 0.52121 0.48759 0.0
H1032 H 0.70046 0.9102 0.84371 0.0
H1033 H 0.64812 0.87761 0.77124 0.0
H1034 H 0.63054 0.91775 0.76985 0.0
H1035 H 0.62973 0.96211 0.78971 0.0
H1036 H 0.68178 0.99357 0.86281 0.0
H1037 H 0.69958 0.95383 0.86345 0.0
C1038 C 0.68531 0.91185 0.82748 0.0
C1039 C 0.6757 0.89092 0.80757 0.0
C1040 C 0.67508 0.93479 0.827 0.0
C1041 C 0.65591 0.89342 0.78683 0.0
C1042 C 0.6458 0.91637 0.78604 0.0
C1043 C 0.64492 0.96022 0.80579 0.0
C1044 C 0.65435 0.98084 0.82618 0.0
C1045 C 0.65515 0.93716 0.80612 0.0
C1046 C 0.67407 0.97805 0.84687 0.0
C1047 C 0.68435 0.95532 0.84726 0.0
H1048 H 0.68718 0.48955 0.99665 0.0
H1049 H 0.62795 0.51362 0.04436 0.0
H1050 H 0.64666 0.55922 0.03981 0.0
H1051 H 0.68238 0.59213 0.02559 0.0
H1052 H 0.74147 0.56749 0.97768 0.0
H1053 H 0.72009 0.52231 0.97872 0.0
C1054 C 0.67827 0.50483 0.00584 0.0
C1055 C 0.65628 0.49837 0.02078 0.0
C1056 C 0.68915 0.53088 0.00317 0.0
C1057 C 0.64469 0.5182 0.03243 0.0
C1058 C 0.6555 0.54424 0.03 0.0
C1059 C 0.69035 0.57691 0.01503 0.0
C1060 C 0.71372 0.58327 0.00188 0.0
C1061 C 0.67805 0.55082 0.01583 0.0
C1062 C 0.72363 0.56325 0.98813 0.0
C1063 C 0.71148 0.53733 0.98878 0.0
H1064 H 0.26108 0.65584 0.29295 0.0
H1065 H 0.22372 0.68118 0.22074 0.0
H1066 H 0.18448 0.64671 0.22129 0.0
H1067 H 0.15988 0.61091 0.24374 0.0
H1068 H 0.19683 0.58707 0.31706 0.0
H1069 H 0.23727 0.61936 0.31444 0.0
C1070 C 0.24445 0.65377 0.2772 0.0
C1071 C 0.2453 0.67114 0.25691 0.0
C1072 C 0.22186 0.6342 0.27786 0.0
C1073 C 0.22354 0.66814 0.23667 0.0
C1074 C 0.2011 0.64843 0.23697 0.0
C1075 C 0.1769 0.61258 0.25897 0.0
C1076 C 0.17531 0.59664 0.2806 0.0
C1077 C 0.19991 0.63156 0.25766 0.0
C1078 C 0.19747 0.59918 0.30027 0.0
C1079 C 0.2206 0.61765 0.29882 0.0
H1080 H 0.84675 0.58088 0.13885 0.0
H1081 H 0.86186 0.52633 0.07527 0.0
H1082 H 0.85471 0.55638 0.04136 0.0
H1083 H 0.83861 0.59555 0.02912 0.0
H1084 H 0.82101 0.64892 0.09241 0.0
H1085 H 0.83532 0.62227 0.12707 0.0
C1086 C 0.84884 0.57569 0.11763 0.0
C1087 C 0.85445 0.55121 0.10959 0.0
C1088 C 0.84424 0.59289 0.09814 0.0
C1089 C 0.85728 0.54492 0.08202 0.0
C1090 C 0.8532 0.56211 0.06258 0.0
C1091 C 0.83859 0.60173 0.05053 0.0
C1092 C 0.8286 0.6241 0.05815 0.0
C1093 C 0.84591 0.58581 0.0703 0.0
C1094 C 0.82853 0.63173 0.08599 0.0
C1095 C 0.83653 0.6164 0.10582 0.0
H1096 H 0.07722 0.00266 0.06327 0.0
H1097 H 0.1179 0.06033 0.01607 0.0
H1098 H 0.14599 0.0303 0.00076 0.0
H1099 H 0.16004 0.98838 0.00207 0.0
H1100 H 0.12386 0.93245 0.0537 0.0
H1101 H 0.09285 0.96088 0.0661 0.0
C1102 C 0.09215 0.00845 0.04949 0.0
C1103 C 0.09544 0.03348 0.04052 0.0
C1104 C 0.10898 0.99142 0.04168 0.0
C1105 C 0.1151 0.04111 0.02313 0.0
C1106 C 0.1311 0.02396 0.01438 0.0
C1107 C 0.14514 0.9823 0.0158 0.0
C1108 C 0.14386 0.95824 0.02666 0.0
C1109 C 0.12833 0.99917 0.02366 0.0
C1110 C 0.12502 0.95084 0.04498 0.0
C1111 C 0.10736 0.9671 0.05206 0.0
loop_
_geom_bond_atom_site_label_1
_geom_bond_atom_site_label_2
_geom_bond_distance
_geom_bond_site_symmetry_2
_ccdc_geom_bond_type
O0 Cd1 2.300 . S
O0 C7 1.275 . S
Cd1 O0 2.300 . S
Cd1 O9 2.381 . S
Cd1 O10 2.378 . S
O2 Cd3 2.385 . S
O2 C7 1.255 . S
Cd3 O2 2.385 . S
Cd3 O4 2.317 . S
O4 Cd3 2.317 . S
O4 C5 1.232 . S
C5 O4 1.232 . S
C5 O6 1.218 . S
O6 C5 1.218 . S
C7 O0 1.275 . S
C7 O2 1.255 . S
C8 O9 1.258 . S
C8 O10 1.256 . S
O9 Cd1 2.381 . S
O9 C8 1.258 . S
O10 Cd1 2.378 . S
O10 C8 1.256 . S
O11 Cd12 2.300 . S
O11 C18 1.275 . S
Cd12 O11 2.300 . S
Cd12 O20 2.381 . S
Cd12 O21 2.378 . S
O13 Cd14 2.385 . S
O13 C18 1.255 . S
Cd14 O13 2.385 . S
Cd14 O15 2.317 . S
O15 Cd14 2.317 . S
O15 C16 1.232 . S
C16 O15 1.232 . S
C16 O17 1.218 . S
O17 C16 1.218 . S
C18 O11 1.275 . S
C18 O13 1.255 . S
C19 O20 1.258 . S
C19 O21 1.256 . S
O20 Cd12 2.381 . S
O20 C19 1.258 . S
O21 Cd12 2.378 . S
O21 C19 1.256 . S
O22 Cd23 2.300 . S
O22 C29 1.275 . S
Cd23 O22 2.300 . S
Cd23 O31 2.381 . S
Cd23 O32 2.378 . S
O24 Cd25 2.385 . S
O24 C29 1.255 . S
Cd25 O24 2.385 . S
Cd25 O26 2.317 . S
O26 Cd25 2.317 . S
O26 C27 1.232 . S
C27 O26 1.232 . S
C27 O28 1.218 . S
O28 C27 1.218 . S
C29 O22 1.275 . S
C29 O24 1.255 . S
C30 O31 1.258 . S
C30 O32 1.256 . S
O31 Cd23 2.381 . S
O31 C30 1.258 . S
O32 Cd23 2.378 . S
O32 C30 1.256 . S
O33 Cd34 2.300 . S
O33 C40 1.275 . S
Cd34 O33 2.300 . S
Cd34 O42 2.381 . S
Cd34 O43 2.378 . S
O35 Cd36 2.385 . S
O35 C40 1.255 . S
Cd36 O35 2.385 . S
Cd36 O37 2.317 . S
O37 Cd36 2.317 . S
O37 C38 1.232 . S
C38 O37 1.232 . S
C38 O39 1.218 . S
O39 C38 1.218 . S
C40 O33 1.275 . S
C40 O35 1.255 . S
C41 O42 1.258 . S
C41 O43 1.256 . S
O42 Cd34 2.381 . S
O42 C41 1.258 . S
O43 Cd34 2.378 . S
O43 C41 1.256 . S
O44 Cd45 2.300 . S
O44 C51 1.275 . S
Cd45 O44 2.300 . S
Cd45 O53 2.381 . S
Cd45 O54 2.378 . S
O46 Cd47 2.385 . S
O46 C51 1.255 1_545 S
Cd47 O46 2.385 . S
Cd47 O48 2.317 1_545 S
O48 Cd47 2.317 1_565 S
O48 C49 1.232 . S
C49 O48 1.232 . S
C49 O50 1.218 1_565 S
O50 C49 1.218 1_545 S
C51 O44 1.275 . S
C51 O46 1.255 1_565 S
C52 O53 1.258 . S
C52 O54 1.256 . S
O53 Cd45 2.381 . S
O53 C52 1.258 . S
O54 Cd45 2.378 . S
O54 C52 1.256 . S
O55 Cd56 2.300 . S
O55 C62 1.275 . S
Cd56 O55 2.300 . S
Cd56 O64 2.381 . S
Cd56 O65 2.378 . S
O57 Cd58 2.385 . S
O57 C62 1.255 . S
Cd58 O57 2.385 . S
Cd58 O59 2.317 . S
O59 Cd58 2.317 . S
O59 C60 1.232 . S
C60 O59 1.232 . S
C60 O61 1.218 . S
O61 C60 1.218 . S
C62 O55 1.275 . S
C62 O57 1.255 . S
C63 O64 1.258 . S
C63 O65 1.256 . S
O64 Cd56 2.381 . S
O64 C63 1.258 . S
O65 Cd56 2.378 . S
O65 C63 1.256 . S
O66 Cd67 2.300 . S
O66 C73 1.275 . S
Cd67 O66 2.300 . S
Cd67 O75 2.381 . S
Cd67 O76 2.378 . S
O68 Cd69 2.385 . S
O68 C73 1.255 . S
Cd69 O68 2.385 . S
Cd69 O70 2.317 . S
O70 Cd69 2.317 . S
O70 C71 1.232 . S
C71 O70 1.232 . S
C71 O72 1.218 . S
O72 C71 1.218 . S
C73 O66 1.275 . S
C73 O68 1.255 . S
C74 O75 1.258 . S
C74 O76 1.256 . S
O75 Cd67 2.381 . S
O75 C74 1.258 . S
O76 Cd67 2.378 . S
O76 C74 1.256 . S
O77 Cd78 2.300 . S
O77 C84 1.275 . S
Cd78 O77 2.300 . S
Cd78 O86 2.381 . S
Cd78 O87 2.378 . S
O79 Cd80 2.385 . S
O79 C84 1.255 . S
Cd80 O79 2.385 . S
Cd80 O81 2.317 . S
O81 Cd80 2.317 . S
O81 C82 1.232 . S
C82 O81 1.232 . S
C82 O83 1.218 . S
O83 C82 1.218 . S
C84 O77 1.275 . S
C84 O79 1.255 . S
C85 O86 1.258 . S
C85 O87 1.256 . S
O86 Cd78 2.381 . S
O86 C85 1.258 . S
O87 Cd78 2.378 . S
O87 C85 1.256 . S
O88 Cd89 2.300 . S
O88 C95 1.275 . S
Cd89 O88 2.300 . S
Cd89 O97 2.381 . S
Cd89 O98 2.378 . S
O90 Cd91 2.385 . S
O90 C95 1.255 . S
Cd91 O90 2.385 . S
Cd91 O92 2.317 . S
O92 Cd91 2.317 . S
O92 C93 1.232 . S
C93 O92 1.232 . S
C93 O94 1.218 . S
O94 C93 1.218 . S
C95 O88 1.275 . S
C95 O90 1.255 . S
C96 O97 1.258 . S
C96 O98 1.256 . S
O97 Cd89 2.381 . S
O97 C96 1.258 . S
O98 Cd89 2.378 . S
O98 C96 1.256 . S
O99 Cd100 2.300 . S
O99 C106 1.275 . S
Cd100 O99 2.300 . S
Cd100 O108 2.381 . S
Cd100 O109 2.378 . S
O101 Cd102 2.385 . S
O101 C106 1.255 . S
Cd102 O101 2.385 . S
Cd102 O103 2.317 . S
O103 Cd102 2.317 . S
O103 C104 1.232 . S
C104 O103 1.232 . S
C104 O105 1.218 . S
O105 C104 1.218 . S
C106 O99 1.275 . S
C106 O101 1.255 . S
C107 O108 1.258 . S
C107 O109 1.256 . S
O108 Cd100 2.381 . S
O108 C107 1.258 . S
O109 Cd100 2.378 . S
O109 C107 1.256 . S
O110 Cd111 2.300 . S
O110 C117 1.275 . S
Cd111 O110 2.300 . S
Cd111 O119 2.381 . S
Cd111 O120 2.378 . S
O112 Cd113 2.385 . S
O112 C117 1.255 . S
Cd113 O112 2.385 . S
Cd113 O114 2.317 . S
O114 Cd113 2.317 . S
O114 C115 1.232 . S
C115 O114 1.232 . S
C115 O116 1.218 . S
O116 C115 1.218 . S
C117 O110 1.275 . S
C117 O112 1.255 . S
C118 O119 1.258 . S
C118 O120 1.256 . S
O119 Cd111 2.381 . S
O119 C118 1.258 . S
O120 Cd111 2.378 . S
O120 C118 1.256 . S
O121 Cd122 2.300 . S
O121 C128 1.275 . S
Cd122 O121 2.300 . S
Cd122 O130 2.381 . S
Cd122 O131 2.378 . S
O123 Cd124 2.385 . S
O123 C128 1.255 . S
Cd124 O123 2.385 . S
Cd124 O125 2.317 . S
O125 Cd124 2.317 . S
O125 C126 1.232 . S
C126 O125 1.232 . S
C126 O127 1.218 . S
O127 C126 1.218 . S
C128 O121 1.275 . S
C128 O123 1.255 . S
C129 O130 1.258 . S
C129 O131 1.256 . S
O130 Cd122 2.381 . S
O130 C129 1.258 . S
O131 Cd122 2.378 . S
O131 C129 1.256 . S
O132 Cd133 2.300 . S
O132 C139 1.275 . S
Cd133 O132 2.300 . S
Cd133 O141 2.381 . S
Cd133 O142 2.378 . S
O134 Cd135 2.385 . S
O134 C139 1.255 . S
Cd135 O134 2.385 . S
Cd135 O136 2.317 . S
O136 Cd135 2.317 . S
O136 C137 1.232 . S
C137 O136 1.232 . S
C137 O138 1.218 . S
O138 C137 1.218 . S
C139 O132 1.275 . S
C139 O134 1.255 . S
C140 O141 1.258 . S
C140 O142 1.256 . S
O141 Cd133 2.381 . S
O141 C140 1.258 . S
O142 Cd133 2.378 . S
O142 C140 1.256 . S
O143 Cd144 2.300 . S
O143 C150 1.275 . S
Cd144 O143 2.300 . S
Cd144 O152 2.381 . S
Cd144 O153 2.378 . S
O145 Cd146 2.385 . S
O145 C150 1.255 . S
Cd146 O145 2.385 . S
Cd146 O147 2.317 . S
O147 Cd146 2.317 . S
O147 C148 1.232 . S
C148 O147 1.232 . S
C148 O149 1.218 . S
O149 C148 1.218 . S
C150 O143 1.275 . S
C150 O145 1.255 . S
C151 O152 1.258 . S
C151 O153 1.256 . S
O152 Cd144 2.381 . S
O152 C151 1.258 . S
O153 Cd144 2.378 . S
O153 C151 1.256 . S
O154 Cd155 2.300 . S
O154 C161 1.275 . S
Cd155 O154 2.300 . S
Cd155 O163 2.381 . S
Cd155 O164 2.378 . S
O156 Cd157 2.385 . S
O156 C161 1.255 . S
Cd157 O156 2.385 . S
Cd157 O158 2.317 . S
O158 Cd157 2.317 . S
O158 C159 1.232 . S
C159 O158 1.232 . S
C159 O160 1.218 . S
O160 C159 1.218 . S
C161 O154 1.275 . S
C161 O156 1.255 . S
C162 O163 1.258 . S
C162 O164 1.256 . S
O163 Cd155 2.381 . S
O163 C162 1.258 . S
O164 Cd155 2.378 . S
O164 C162 1.256 . S
O165 Cd166 2.300 . S
O165 C172 1.275 . S
Cd166 O165 2.300 . S
Cd166 O174 2.381 . S
Cd166 O175 2.378 . S
O167 Cd168 2.417 . S
O167 C172 1.255 . S
Cd168 O167 2.417 . S
Cd168 O169 2.319 . S
O169 Cd168 2.319 . S
O169 C170 1.232 . S
C170 O169 1.232 . S
C170 O171 1.218 . S
O171 C170 1.218 . S
C172 O165 1.275 . S
C172 O167 1.255 . S
C173 O174 1.258 . S
C173 O175 1.256 . S
O174 Cd166 2.381 . S
O174 C173 1.258 . S
O175 Cd166 2.378 . S
O175 C173 1.256 . S
O176 Cd177 2.223 . S
O176 C184 1.315 . S
Cd177 O176 2.223 . S
Cd177 O180 2.297 . S
Cd177 O181 2.439 . S
Cd177 O187 2.240 . S
Cd178 O179 2.240 . S
Cd178 O186 2.223 . S
Cd178 O188 2.297 . S
Cd178 O189 2.439 . S
O179 Cd178 2.240 . S
O179 C184 1.279 . S
O180 Cd177 2.297 . S
O180 C182 1.247 . S
O181 Cd177 2.439 . S
O181 C182 1.208 . S
C182 O180 1.247 . S
C182 O181 1.208 . S
C183 O188 1.247 . S
C183 O189 1.208 . S
C184 O176 1.315 . S
C184 O179 1.279 . S
C185 O186 1.315 . S
C185 O187 1.279 . S
O186 Cd178 2.223 . S
O186 C185 1.315 . S
O187 Cd177 2.240 . S
O187 C185 1.279 . S
O188 Cd178 2.297 . S
O188 C183 1.247 . S
O189 Cd178 2.439 . S
O189 C183 1.208 . S
O190 Cd191 2.223 . S
O190 C198 1.315 . S
Cd191 O190 2.223 . S
Cd191 O194 2.297 . S
Cd191 O195 2.439 . S
Cd191 O201 2.240 . S
Cd192 O193 2.240 . S
Cd192 O200 2.223 . S
Cd192 O202 2.297 . S
Cd192 O203 2.439 . S
O193 Cd192 2.240 . S
O193 C198 1.279 . S
O194 Cd191 2.297 . S
O194 C196 1.247 . S
O195 Cd191 2.439 . S
O195 C196 1.208 . S
C196 O194 1.247 . S
C196 O195 1.208 . S
C197 O202 1.247 . S
C197 O203 1.208 . S
C198 O190 1.315 . S
C198 O193 1.279 . S
C199 O200 1.315 . S
C199 O201 1.279 . S
O200 Cd192 2.223 . S
O200 C199 1.315 . S
O201 Cd191 2.240 . S
O201 C199 1.279 . S
O202 Cd192 2.297 . S
O202 C197 1.247 . S
O203 Cd192 2.439 . S
O203 C197 1.208 . S
O204 Cd205 2.223 1_556 S
O204 C212 1.315 . S
Cd205 O204 2.223 1_554 S
Cd205 O208 2.297 . S
Cd205 O209 2.439 . S
Cd205 O215 2.240 . S
Cd206 O207 2.240 . S
Cd206 O214 2.223 . S
Cd206 O216 2.297 1_556 S
Cd206 O217 2.439 1_556 S
O207 Cd206 2.240 . S
O207 C212 1.279 . S
O208 Cd205 2.297 . S
O208 C210 1.247 . S
O209 Cd205 2.439 . S
O209 C210 1.208 . S
C210 O208 1.247 . S
C210 O209 1.208 . S
C211 O216 1.247 . S
C211 O217 1.208 . S
C212 O204 1.315 . S
C212 O207 1.279 . S
C213 O214 1.315 . S
C213 O215 1.279 1_556 S
O214 Cd206 2.223 . S
O214 C213 1.315 . S
O215 Cd205 2.240 . S
O215 C213 1.279 1_554 S
O216 Cd206 2.297 1_554 S
O216 C211 1.247 . S
O217 Cd206 2.439 1_554 S
O217 C211 1.208 . S
O218 Cd219 2.223 . S
O218 C226 1.315 . S
Cd219 O218 2.223 . S
Cd219 O222 2.297 . S
Cd219 O223 2.439 . S
Cd219 O229 2.240 . S
Cd220 O221 2.240 . S
Cd220 O228 2.223 . S
Cd220 O230 2.297 . S
Cd220 O231 2.439 . S
O221 Cd220 2.240 . S
O221 C226 1.279 . S
O222 Cd219 2.297 . S
O222 C224 1.247 . S
O223 Cd219 2.439 . S
O223 C224 1.208 . S
C224 O222 1.247 . S
C224 O223 1.208 . S
C225 O230 1.247 . S
C225 O231 1.208 . S
C226 O218 1.315 . S
C226 O221 1.279 . S
C227 O228 1.315 . S
C227 O229 1.279 . S
O228 Cd220 2.223 . S
O228 C227 1.315 . S
O229 Cd219 2.240 . S
O229 C227 1.279 . S
O230 Cd220 2.297 . S
O230 C225 1.247 . S
O231 Cd220 2.439 . S
O231 C225 1.208 . S
O232 Cd233 2.223 . S
O232 C240 1.315 . S
Cd233 O232 2.223 . S
Cd233 O236 2.297 . S
Cd233 O237 2.439 . S
Cd233 O243 2.240 . S
Cd234 O235 2.240 . S
Cd234 O242 2.223 . S
Cd234 O244 2.297 . S
Cd234 O245 2.439 . S
O235 Cd234 2.240 . S
O235 C240 1.279 . S
O236 Cd233 2.297 . S
O236 C238 1.247 . S
O237 Cd233 2.439 . S
O237 C238 1.208 . S
C238 O236 1.247 . S
C238 O237 1.208 . S
C239 O244 1.247 . S
C239 O245 1.208 . S
C240 O232 1.315 . S
C240 O235 1.279 . S
C241 O242 1.315 . S
C241 O243 1.279 . S
O242 Cd234 2.223 . S
O242 C241 1.315 . S
O243 Cd233 2.240 . S
O243 C241 1.279 . S
O244 Cd234 2.297 . S
O244 C239 1.247 . S
O245 Cd234 2.439 . S
O245 C239 1.208 . S
O246 Cd247 2.223 . S
O246 C254 1.315 . S
Cd247 O246 2.223 . S
Cd247 O250 2.297 . S
Cd247 O251 2.439 . S
Cd247 O257 2.240 . S
Cd248 O249 2.240 . S
Cd248 O256 2.223 . S
Cd248 O258 2.297 . S
Cd248 O259 2.439 . S
O249 Cd248 2.240 . S
O249 C254 1.279 . S
O250 Cd247 2.297 . S
O250 C252 1.247 . S
O251 Cd247 2.439 . S
O251 C252 1.208 . S
C252 O250 1.247 . S
C252 O251 1.208 . S
C253 O258 1.247 . S
C253 O259 1.208 . S
C254 O246 1.315 . S
C254 O249 1.279 . S
C255 O256 1.315 . S
C255 O257 1.279 . S
O256 Cd248 2.223 . S
O256 C255 1.315 . S
O257 Cd247 2.240 . S
O257 C255 1.279 . S
O258 Cd248 2.297 . S
O258 C253 1.247 . S
O259 Cd248 2.439 . S
O259 C253 1.208 . S
O260 Cd261 2.223 . S
O260 C268 1.315 . S
Cd261 O260 2.223 . S
Cd261 O264 2.297 . S
Cd261 O265 2.439 . S
Cd261 O271 2.240 . S
Cd262 O263 2.240 . S
Cd262 O270 2.223 . S
Cd262 O272 2.297 . S
Cd262 O273 2.439 . S
O263 Cd262 2.240 . S
O263 C268 1.279 . S
O264 Cd261 2.297 . S
O264 C266 1.247 . S
O265 Cd261 2.439 . S
O265 C266 1.208 . S
C266 O264 1.247 . S
C266 O265 1.208 . S
C267 O272 1.247 . S
C267 O273 1.208 . S
C268 O260 1.315 . S
C268 O263 1.279 . S
C269 O270 1.315 . S
C269 O271 1.279 . S
O270 Cd262 2.223 . S
O270 C269 1.315 . S
O271 Cd261 2.240 . S
O271 C269 1.279 . S
O272 Cd262 2.297 . S
O272 C267 1.247 . S
O273 Cd262 2.439 . S
O273 C267 1.208 . S
O274 Cd275 2.223 1_545 S
O274 C282 1.315 . S
Cd275 O274 2.223 1_565 S
Cd275 O278 2.297 . S
Cd275 O279 2.439 . S
Cd275 O285 2.240 1_565 S
Cd276 O277 2.240 . S
Cd276 O284 2.223 . S
Cd276 O286 2.297 . S
Cd276 O287 2.439 1_545 S
O277 Cd276 2.240 . S
O277 C282 1.279 . S
O278 Cd275 2.297 . S
O278 C280 1.247 . S
O279 Cd275 2.439 . S
O279 C280 1.208 . S
C280 O278 1.247 . S
C280 O279 1.208 . S
C281 O286 1.247 1_565 S
C281 O287 1.208 . S
C282 O274 1.315 . S
C282 O277 1.279 . S
C283 O284 1.315 . S
C283 O285 1.279 . S
O284 Cd276 2.223 . S
O284 C283 1.315 . S
O285 Cd275 2.240 1_545 S
O285 C283 1.279 . S
O286 Cd276 2.297 . S
O286 C281 1.247 1_545 S
O287 Cd276 2.439 1_565 S
O287 C281 1.208 . S
O288 Cd289 2.223 . S
O288 C296 1.315 . S
Cd289 O288 2.223 . S
Cd289 O292 2.297 1_656 S
Cd289 O293 2.439 1_655 S
Cd289 O299 2.240 . S
Cd290 O291 2.240 . S
Cd290 O298 2.223 1_455 S
Cd290 O300 2.297 . S
Cd290 O301 2.439 . S
O291 Cd290 2.240 . S
O291 C296 1.279 1_455 S
O292 Cd289 2.297 1_454 S
O292 C294 1.247 . S
O293 Cd289 2.439 1_455 S
O293 C294 1.208 1_556 S
C294 O292 1.247 . S
C294 O293 1.208 1_554 S
C295 O300 1.247 . S
C295 O301 1.208 . S
C296 O288 1.315 . S
C296 O291 1.279 1_655 S
C297 O298 1.315 . S
C297 O299 1.279 . S
O298 Cd290 2.223 1_655 S
O298 C297 1.315 . S
O299 Cd289 2.240 . S
O299 C297 1.279 . S
O300 Cd290 2.297 . S
O300 C295 1.247 . S
O301 Cd290 2.439 . S
O301 C295 1.208 . S
O302 Cd303 2.223 . S
O302 C310 1.315 . S
Cd303 O302 2.223 . S
Cd303 O306 2.297 . S
Cd303 O307 2.439 . S
Cd303 O313 2.240 . S
Cd304 O305 2.240 . S
Cd304 O312 2.223 . S
Cd304 O314 2.297 . S
Cd304 O315 2.439 . S
O305 Cd304 2.240 . S
O305 C310 1.279 . S
O306 Cd303 2.297 . S
O306 C308 1.247 . S
O307 Cd303 2.439 . S
O307 C308 1.208 . S
C308 O306 1.247 . S
C308 O307 1.208 . S
C309 O314 1.247 . S
C309 O315 1.208 . S
C310 O302 1.315 . S
C310 O305 1.279 . S
C311 O312 1.315 . S
C311 O313 1.279 . S
O312 Cd304 2.223 . S
O312 C311 1.315 . S
O313 Cd303 2.240 . S
O313 C311 1.279 . S
O314 Cd304 2.297 . S
O314 C309 1.247 . S
O315 Cd304 2.439 . S
O315 C309 1.208 . S
O316 Cd317 2.223 1_655 S
O316 C324 1.315 . S
Cd317 O316 2.223 1_455 S
Cd317 O320 2.297 . S
Cd317 O321 2.439 . S
Cd317 O327 2.240 . S
Cd318 O319 2.240 . S
Cd318 O326 2.211 1_455 S
Cd318 O328 2.309 . S
Cd318 O329 2.472 . S
O319 Cd318 2.240 . S
O319 C324 1.265 1_455 S
O320 Cd317 2.297 . S
O320 C322 1.247 . S
O321 Cd317 2.439 . S
O321 C322 1.208 . S
C322 O320 1.247 . S
C322 O321 1.208 . S
C323 O328 1.247 . S
C323 O329 1.208 . S
C324 O316 1.315 . S
C324 O319 1.265 1_655 S
C325 O326 1.315 . S
C325 O327 1.279 1_655 S
O326 Cd318 2.211 1_655 S
O326 C325 1.315 . S
O327 Cd317 2.240 . S
O327 C325 1.279 1_455 S
O328 Cd318 2.309 . S
O328 C323 1.247 . S
O329 Cd318 2.472 . S
O329 C323 1.208 . S
O330 Cd331 2.223 . S
O330 C338 1.315 . S
Cd331 O330 2.223 . S
Cd331 O334 2.297 . S
Cd331 O335 2.439 . S
Cd331 O341 2.240 . S
Cd332 O333 2.240 . S
Cd332 O340 2.223 . S
Cd332 O342 2.297 . S
Cd332 O343 2.439 . S
O333 Cd332 2.240 . S
O333 C338 1.279 . S
O334 Cd331 2.297 . S
O334 C336 1.247 . S
O335 Cd331 2.439 . S
O335 C336 1.208 . S
C336 O334 1.247 . S
C336 O335 1.208 . S
C337 O342 1.247 . S
C337 O343 1.208 . S
C338 O330 1.315 . S
C338 O333 1.279 . S
C339 O340 1.315 . S
C339 O341 1.279 . S
O340 Cd332 2.223 . S
O340 C339 1.315 . S
O341 Cd331 2.240 . S
O341 C339 1.279 . S
O342 Cd332 2.297 . S
O342 C337 1.247 . S
O343 Cd332 2.439 . S
O343 C337 1.208 . S
H344 C350 0.930 . S
H345 C353 0.930 . S
H346 C354 0.930 . S
H347 C355 0.898 1_554 S
H348 C358 0.930 . S
H349 C359 0.930 . S
C350 H344 0.930 . S
C350 C351 1.355 . S
C350 C352 1.415 . S
C351 C350 1.355 . S
C351 C353 1.419 . S
C352 C350 1.415 . S
C352 C357 1.425 . S
C352 C359 1.409 . S
C353 H345 0.930 . S
C353 C351 1.419 . S
C353 C354 1.362 . S
C354 H346 0.930 . S
C354 C353 1.362 . S
C354 C357 1.409 . S
C355 H347 0.898 1_556 S
C355 C356 1.355 . S
C355 C357 1.415 . S
C356 C355 1.355 . S
C356 C358 1.419 . S
C357 C352 1.425 . S
C357 C354 1.409 . S
C357 C355 1.415 . S
C358 H348 0.930 . S
C358 C356 1.419 . S
C358 C359 1.362 . S
C359 H349 0.930 . S
C359 C352 1.409 . S
C359 C358 1.362 . S
H360 C366 0.930 . S
H361 C369 0.930 . S
H362 C370 0.930 . S
H363 C371 0.930 . S
H364 C374 0.930 . S
H365 C375 0.930 . S
C366 H360 0.930 . S
C366 C367 1.355 . S
C366 C368 1.415 1_655 S
C367 C366 1.355 . S
C367 C369 1.419 . S
C368 C366 1.415 1_455 S
C368 C373 1.425 . S
C368 C375 1.409 . S
C369 H361 0.930 . S
C369 C367 1.419 . S
C369 C370 1.362 1_655 S
C370 H362 0.930 . S
C370 C369 1.362 1_455 S
C370 C373 1.409 . S
C371 H363 0.930 . S
C371 C372 1.355 . S
C371 C373 1.415 . S
C372 C371 1.355 . S
C372 C374 1.419 . S
C373 C368 1.425 . S
C373 C370 1.409 . S
C373 C371 1.415 . S
C374 H364 0.930 . S
C374 C372 1.419 . S
C374 C375 1.362 . S
C375 H365 0.930 . S
C375 C368 1.409 . S
C375 C374 1.362 . S
H376 C382 0.930 . S
H377 C385 0.930 . S
H378 C386 0.930 . S
H379 C387 0.930 . S
H380 C390 0.930 . S
H381 C391 0.930 . S
C382 H376 0.930 . S
C382 C383 1.355 . S
C382 C384 1.415 . S
C383 C382 1.355 . S
C383 C385 1.419 . S
C384 C382 1.415 . S
C384 C389 1.425 . S
C384 C391 1.409 . S
C385 H377 0.930 . S
C385 C383 1.419 . S
C385 C386 1.362 . S
C386 H378 0.930 . S
C386 C385 1.362 . S
C386 C389 1.409 . S
C387 H379 0.930 . S
C387 C388 1.355 . S
C387 C389 1.415 . S
C388 C387 1.355 . S
C388 C390 1.419 . S
C389 C384 1.425 . S
C389 C386 1.409 . S
C389 C387 1.415 . S
C390 H380 0.930 . S
C390 C388 1.419 . S
C390 C391 1.362 . S
C391 H381 0.930 . S
C391 C384 1.409 . S
C391 C390 1.362 . S
H392 C398 0.930 . S
H393 C401 0.929 . S
H394 C402 0.930 . S
H395 C403 0.930 1_565 S
H396 C406 0.930 . S
H397 C407 0.930 1_455 S
C398 H392 0.930 . S
C398 C399 1.355 1_545 S
C398 C400 1.415 1_455 S
C399 C398 1.355 1_565 S
C399 C401 1.416 . S
C400 C398 1.415 1_655 S
C400 C405 1.425 . S
C400 C407 1.409 . S
C401 H393 0.929 . S
C401 C399 1.416 . S
C401 C402 1.367 1_455 S
C402 H394 0.930 . S
C402 C401 1.367 1_655 S
C402 C405 1.409 1_565 S
C403 H395 0.930 1_545 S
C403 C404 1.355 . S
C403 C405 1.415 . S
C404 C403 1.355 . S
C404 C406 1.419 . S
C405 C400 1.425 . S
C405 C402 1.409 1_545 S
C405 C403 1.415 . S
C406 H396 0.930 . S
C406 C404 1.419 . S
C406 C407 1.362 . S
C407 H397 0.930 1_655 S
C407 C400 1.409 . S
C407 C406 1.362 . S
H408 C414 0.930 . S
H409 C417 0.930 . S
H410 C418 0.930 . S
H411 C419 0.930 . S
H412 C422 0.930 . S
H413 C423 0.930 . S
C414 H408 0.930 . S
C414 C415 1.355 . S
C414 C416 1.415 . S
C415 C414 1.355 . S
C415 C417 1.419 . S
C416 C414 1.415 . S
C416 C421 1.425 . S
C416 C423 1.409 . S
C417 H409 0.930 . S
C417 C415 1.419 . S
C417 C418 1.362 . S
C418 H410 0.930 . S
C418 C417 1.362 . S
C418 C421 1.409 . S
C419 H411 0.930 . S
C419 C420 1.355 . S
C419 C421 1.415 . S
C420 C419 1.355 . S
C420 C422 1.419 . S
C421 C416 1.425 . S
C421 C418 1.409 . S
C421 C419 1.415 . S
C422 H412 0.930 . S
C422 C420 1.419 . S
C422 C423 1.362 . S
C423 H413 0.930 . S
C423 C416 1.409 . S
C423 C422 1.362 . S
H424 C430 0.930 . S
H425 C433 0.930 . S
H426 C434 0.930 . S
H427 C435 0.930 . S
H428 C438 0.930 . S
H429 C439 0.930 . S
C430 H424 0.930 . S
C430 C431 1.355 . S
C430 C432 1.415 . S
C431 C430 1.355 . S
C431 C433 1.419 . S
C432 C430 1.415 . S
C432 C437 1.425 . S
C432 C439 1.409 . S
C433 H425 0.930 . S
C433 C431 1.419 . S
C433 C434 1.362 . S
C434 H426 0.930 . S
C434 C433 1.362 . S
C434 C437 1.409 . S
C435 H427 0.930 . S
C435 C436 1.355 . S
C435 C437 1.415 . S
C436 C435 1.355 . S
C436 C438 1.419 . S
C437 C432 1.425 . S
C437 C434 1.409 . S
C437 C435 1.415 . S
C438 H428 0.930 . S
C438 C436 1.419 . S
C438 C439 1.362 . S
C439 H429 0.930 . S
C439 C432 1.409 . S
C439 C438 1.362 . S
H440 C446 0.930 . S
H441 C449 0.930 . S
H442 C450 0.930 . S
H443 C451 0.930 . S
H444 C454 0.930 . S
H445 C455 0.930 . S
C446 H440 0.930 . S
C446 C447 1.355 . S
C446 C448 1.415 . S
C447 C446 1.355 . S
C447 C449 1.419 . S
C448 C446 1.415 . S
C448 C453 1.425 . S
C448 C455 1.409 . S
C449 H441 0.930 . S
C449 C447 1.419 . S
C449 C450 1.362 . S
C450 H442 0.930 . S
C450 C449 1.362 . S
C450 C453 1.409 . S
C451 H443 0.930 . S
C451 C452 1.355 . S
C451 C453 1.415 . S
C452 C451 1.355 . S
C452 C454 1.419 . S
C453 C448 1.425 . S
C453 C450 1.409 . S
C453 C451 1.415 . S
C454 H444 0.930 . S
C454 C452 1.419 . S
C454 C455 1.362 . S
C455 H445 0.930 . S
C455 C448 1.409 . S
C455 C454 1.362 . S
H456 C462 0.930 . S
H457 C465 0.930 . S
H458 C466 0.930 . S
H459 C467 0.930 . S
H460 C470 0.930 . S
H461 C471 0.930 . S
C462 H456 0.930 . S
C462 C463 1.355 . S
C462 C464 1.415 . S
C463 C462 1.355 . S
C463 C465 1.419 . S
C464 C462 1.415 . S
C464 C469 1.425 . S
C464 C471 1.409 . S
C465 H457 0.930 . S
C465 C463 1.419 . S
C465 C466 1.362 . S
C466 H458 0.930 . S
C466 C465 1.362 . S
C466 C469 1.409 . S
C467 H459 0.930 . S
C467 C468 1.355 . S
C467 C469 1.415 . S
C468 C467 1.355 . S
C468 C470 1.419 . S
C469 C464 1.425 . S
C469 C466 1.409 . S
C469 C467 1.415 . S
C470 H460 0.930 . S
C470 C468 1.419 . S
C470 C471 1.362 . S
C471 H461 0.930 . S
C471 C464 1.409 . S
C471 C470 1.362 . S
H472 C478 0.930 . S
H473 C481 0.930 . S
H474 C482 0.930 . S
H475 C483 0.930 . S
H476 C486 0.930 . S
H477 C487 0.930 . S
C478 H472 0.930 . S
C478 C479 1.355 . S
C478 C480 1.415 . S
C479 C478 1.355 . S
C479 C481 1.419 . S
C480 C478 1.415 . S
C480 C485 1.425 . S
C480 C487 1.409 . S
C481 H473 0.930 . S
C481 C479 1.419 . S
C481 C482 1.362 . S
C482 H474 0.930 . S
C482 C481 1.362 . S
C482 C485 1.409 . S
C483 H475 0.930 . S
C483 C484 1.355 . S
C483 C485 1.415 . S
C484 C483 1.355 . S
C484 C486 1.419 . S
C485 C480 1.425 . S
C485 C482 1.409 . S
C485 C483 1.415 . S
C486 H476 0.930 . S
C486 C484 1.419 . S
C486 C487 1.362 . S
C487 H477 0.930 . S
C487 C480 1.409 . S
C487 C486 1.362 . S
H488 C494 0.930 . S
H489 C497 0.930 . S
H490 C498 0.930 . S
H491 C499 0.930 . S
H492 C502 0.930 . S
H493 C503 0.930 . S
C494 H488 0.930 . S
C494 C495 1.355 . S
C494 C496 1.415 . S
C495 C494 1.355 . S
C495 C497 1.419 . S
C496 C494 1.415 . S
C496 C501 1.425 . S
C496 C503 1.409 . S
C497 H489 0.930 . S
C497 C495 1.419 . S
C497 C498 1.362 . S
C498 H490 0.930 . S
C498 C497 1.362 . S
C498 C501 1.409 . S
C499 H491 0.930 . S
C499 C500 1.355 . S
C499 C501 1.415 . S
C500 C499 1.355 . S
C500 C502 1.419 . S
C501 C496 1.425 . S
C501 C498 1.409 . S
C501 C499 1.415 . S
C502 H492 0.930 . S
C502 C500 1.419 . S
C502 C503 1.362 . S
C503 H493 0.930 . S
C503 C496 1.409 . S
C503 C502 1.362 . S
H504 C510 0.930 . S
H505 C513 0.930 . S
H506 C514 0.930 . S
H507 C515 0.930 . S
H508 C518 0.930 . S
H509 C519 0.930 . S
C510 H504 0.930 . S
C510 C511 1.355 . S
C510 C512 1.415 . S
C511 C510 1.355 . S
C511 C513 1.419 . S
C512 C510 1.415 . S
C512 C517 1.425 . S
C512 C519 1.409 . S
C513 H505 0.930 . S
C513 C511 1.419 . S
C513 C514 1.362 . S
C514 H506 0.930 . S
C514 C513 1.362 . S
C514 C517 1.409 . S
C515 H507 0.930 . S
C515 C516 1.355 . S
C515 C517 1.415 . S
C516 C515 1.355 . S
C516 C518 1.419 . S
C517 C512 1.425 . S
C517 C514 1.409 . S
C517 C515 1.415 . S
C518 H508 0.930 . S
C518 C516 1.419 . S
C518 C519 1.362 . S
C519 H509 0.930 . S
C519 C512 1.409 . S
C519 C518 1.362 . S
H520 C526 0.930 . S
H521 C529 0.930 . S
H522 C530 0.930 . S
H523 C531 0.930 . S
H524 C534 0.930 . S
H525 C535 0.930 . S
C526 H520 0.930 . S
C526 C527 1.355 . S
C526 C528 1.415 . S
C527 C526 1.355 . S
C527 C529 1.419 . S
C528 C526 1.415 . S
C528 C533 1.425 . S
C528 C535 1.409 . S
C529 H521 0.930 . S
C529 C527 1.419 . S
C529 C530 1.362 . S
C530 H522 0.930 . S
C530 C529 1.362 . S
C530 C533 1.409 . S
C531 H523 0.930 . S
C531 C532 1.355 . S
C531 C533 1.415 . S
C532 C531 1.355 . S
C532 C534 1.419 . S
C533 C528 1.425 . S
C533 C530 1.409 . S
C533 C531 1.415 . S
C534 H524 0.930 . S
C534 C532 1.419 . S
C534 C535 1.362 . S
C535 H525 0.930 . S
C535 C528 1.409 . S
C535 C534 1.362 . S
H536 C542 0.930 . S
H537 C545 0.930 . S
H538 C546 0.930 . S
H539 C547 0.930 . S
H540 C550 0.930 . S
H541 C551 0.930 . S
C542 H536 0.930 . S
C542 C543 1.355 . S
C542 C544 1.415 . S
C543 C542 1.355 . S
C543 C545 1.419 . S
C544 C542 1.415 . S
C544 C549 1.425 . S
C544 C551 1.409 . S
C545 H537 0.930 . S
C545 C543 1.419 . S
C545 C546 1.362 . S
C546 H538 0.930 . S
C546 C545 1.362 . S
C546 C549 1.409 . S
C547 H539 0.930 . S
C547 C548 1.355 . S
C547 C549 1.415 . S
C548 C547 1.355 . S
C548 C550 1.419 . S
C549 C544 1.425 . S
C549 C546 1.409 . S
C549 C547 1.415 . S
C550 H540 0.930 . S
C550 C548 1.419 . S
C550 C551 1.362 . S
C551 H541 0.930 . S
C551 C544 1.409 . S
C551 C550 1.362 . S
H552 C558 0.930 . S
H553 C561 0.930 . S
H554 C562 0.930 . S
H555 C563 0.930 . S
H556 C566 0.930 . S
H557 C567 0.930 . S
C558 H552 0.930 . S
C558 C559 1.355 . S
C558 C560 1.415 . S
C559 C558 1.355 . S
C559 C561 1.419 . S
C560 C558 1.415 . S
C560 C565 1.425 . S
C560 C567 1.409 . S
C561 H553 0.930 . S
C561 C559 1.419 . S
C561 C562 1.362 . S
C562 H554 0.930 . S
C562 C561 1.362 . S
C562 C565 1.409 . S
C563 H555 0.930 . S
C563 C564 1.355 . S
C563 C565 1.415 . S
C564 C563 1.355 . S
C564 C566 1.419 . S
C565 C560 1.425 . S
C565 C562 1.409 . S
C565 C563 1.415 . S
C566 H556 0.930 . S
C566 C564 1.419 . S
C566 C567 1.362 . S
C567 H557 0.930 . S
C567 C560 1.409 . S
C567 C566 1.362 . S
H568 C574 0.930 . S
H569 C577 0.930 . S
H570 C578 0.930 . S
H571 C579 0.930 . S
H572 C582 0.930 . S
H573 C583 0.930 . S
C574 H568 0.930 . S
C574 C575 1.355 . S
C574 C576 1.415 . S
C575 C574 1.355 . S
C575 C577 1.419 . S
C576 C574 1.415 . S
C576 C581 1.425 . S
C576 C583 1.409 . S
C577 H569 0.930 . S
C577 C575 1.419 . S
C577 C578 1.362 . S
C578 H570 0.930 . S
C578 C577 1.362 . S
C578 C581 1.409 . S
C579 H571 0.930 . S
C579 C580 1.355 . S
C579 C581 1.415 . S
C580 C579 1.355 . S
C580 C582 1.419 . S
C581 C576 1.425 . S
C581 C578 1.409 . S
C581 C579 1.415 . S
C582 H572 0.930 . S
C582 C580 1.419 . S
C582 C583 1.362 . S
C583 H573 0.930 . S
C583 C576 1.409 . S
C583 C582 1.362 . S
H584 C590 0.930 . S
H585 C593 0.930 . S
H586 C594 0.930 . S
H587 C595 0.930 . S
H588 C598 0.930 1_455 S
H589 C599 0.930 1_455 S
C590 H584 0.930 . S
C590 C591 1.355 . S
C590 C592 1.415 . S
C591 C590 1.355 . S
C591 C593 1.419 . S
C592 C590 1.415 . S
C592 C597 1.425 . S
C592 C599 1.409 . S
C593 H585 0.930 . S
C593 C591 1.419 . S
C593 C594 1.362 . S
C594 H586 0.930 . S
C594 C593 1.362 . S
C594 C597 1.409 . S
C595 H587 0.930 . S
C595 C596 1.355 . S
C595 C597 1.415 . S
C596 C595 1.355 . S
C596 C598 1.419 . S
C597 C592 1.425 . S
C597 C594 1.409 . S
C597 C595 1.415 . S
C598 H588 0.930 1_655 S
C598 C596 1.419 . S
C598 C599 1.362 . S
C599 H589 0.930 1_655 S
C599 C592 1.409 . S
C599 C598 1.362 . S
H600 C606 0.930 . S
H601 C609 0.930 . S
H602 C610 0.930 . S
H603 C611 0.930 1_545 S
H604 C614 0.930 . S
H605 C615 0.930 . S
C606 H600 0.930 . S
C606 C607 1.355 . S
C606 C608 1.415 . S
C607 C606 1.355 . S
C607 C609 1.419 . S
C608 C606 1.415 . S
C608 C613 1.425 . S
C608 C615 1.409 . S
C609 H601 0.930 . S
C609 C607 1.419 . S
C609 C610 1.362 . S
C610 H602 0.930 . S
C610 C609 1.362 . S
C610 C613 1.409 . S
C611 H603 0.930 1_565 S
C611 C612 1.355 . S
C611 C613 1.415 . S
C612 C611 1.355 . S
C612 C614 1.419 . S
C613 C608 1.425 . S
C613 C610 1.409 . S
C613 C611 1.415 . S
C614 H604 0.930 . S
C614 C612 1.419 . S
C614 C615 1.362 . S
C615 H605 0.930 . S
C615 C608 1.409 . S
C615 C614 1.362 . S
H616 C622 0.930 . S
H617 C625 0.930 . S
H618 C626 0.930 . S
H619 C627 0.930 . S
H620 C630 0.930 . S
H621 C631 0.930 . S
C622 H616 0.930 . S
C622 C623 1.355 . S
C622 C624 1.415 . S
C623 C622 1.355 . S
C623 C625 1.419 . S
C624 C622 1.415 . S
C624 C629 1.425 . S
C624 C631 1.409 . S
C625 H617 0.930 . S
C625 C623 1.419 . S
C625 C626 1.362 . S
C626 H618 0.930 . S
C626 C625 1.362 . S
C626 C629 1.409 . S
C627 H619 0.930 . S
C627 C628 1.355 . S
C627 C629 1.415 . S
C628 C627 1.355 . S
C628 C630 1.419 . S
C629 C624 1.425 . S
C629 C626 1.409 . S
C629 C627 1.415 . S
C630 H620 0.930 . S
C630 C628 1.419 . S
C630 C631 1.362 . S
C631 H621 0.930 . S
C631 C624 1.409 . S
C631 C630 1.362 . S
H632 C638 0.930 . S
H633 C641 0.930 . S
H634 C642 0.930 1_554 S
H635 C643 0.930 . S
H636 C646 0.930 . S
H637 C647 0.930 1_545 S
C638 H632 0.930 . S
C638 C639 1.355 . S
C638 C640 1.395 1_545 S
C639 C638 1.355 . S
C639 C641 1.419 . S
C640 C638 1.395 1_565 S
C640 C645 1.458 . S
C640 C647 1.410 . S
C641 H633 0.930 . S
C641 C639 1.419 . S
C641 C642 1.362 1_545 S
C642 H634 0.930 1_556 S
C642 C641 1.362 1_565 S
C642 C645 1.415 . S
C643 H635 0.930 . S
C643 C644 1.355 . S
C643 C645 1.397 1_554 S
C644 C643 1.355 . S
C644 C646 1.419 . S
C645 C640 1.458 . S
C645 C642 1.415 . S
C645 C643 1.397 1_556 S
C646 H636 0.930 . S
C646 C644 1.419 . S
C646 C647 1.362 1_554 S
C647 H637 0.930 1_565 S
C647 C640 1.410 . S
C647 C646 1.362 1_556 S
H648 C654 0.930 . S
H649 C657 0.930 . S
H650 C658 0.930 . S
H651 C659 0.930 . S
H652 C662 0.930 . S
H653 C663 0.930 . S
C654 H648 0.930 . S
C654 C655 1.355 . S
C654 C656 1.415 . S
C655 C654 1.355 . S
C655 C657 1.419 . S
C656 C654 1.415 . S
C656 C661 1.425 . S
C656 C663 1.409 . S
C657 H649 0.930 . S
C657 C655 1.419 . S
C657 C658 1.362 . S
C658 H650 0.930 . S
C658 C657 1.362 . S
C658 C661 1.409 . S
C659 H651 0.930 . S
C659 C660 1.355 . S
C659 C661 1.415 . S
C660 C659 1.355 . S
C660 C662 1.419 . S
C661 C656 1.425 . S
C661 C658 1.409 . S
C661 C659 1.415 . S
C662 H652 0.930 . S
C662 C660 1.419 . S
C662 C663 1.362 . S
C663 H653 0.930 . S
C663 C656 1.409 . S
C663 C662 1.362 . S
H664 C670 0.930 . S
H665 C673 0.930 1_565 S
H666 C674 0.930 . S
H667 C675 0.930 . S
H668 C678 0.930 . S
H669 C679 0.930 . S
C670 H664 0.930 . S
C670 C671 1.355 . S
C670 C672 1.415 . S
C671 C670 1.355 . S
C671 C673 1.419 . S
C672 C670 1.415 . S
C672 C677 1.425 . S
C672 C679 1.409 . S
C673 H665 0.930 1_545 S
C673 C671 1.419 . S
C673 C674 1.362 . S
C674 H666 0.930 . S
C674 C673 1.362 . S
C674 C677 1.409 . S
C675 H667 0.930 . S
C675 C676 1.355 . S
C675 C677 1.415 . S
C676 C675 1.355 . S
C676 C678 1.419 . S
C677 C672 1.425 . S
C677 C674 1.409 . S
C677 C675 1.415 . S
C678 H668 0.930 . S
C678 C676 1.419 . S
C678 C679 1.362 . S
C679 H669 0.930 . S
C679 C672 1.409 . S
C679 C678 1.362 . S
H680 C686 0.930 . S
H681 C689 0.930 . S
H682 C690 0.930 . S
H683 C691 0.930 . S
H684 C694 0.930 . S
H685 C695 0.930 . S
C686 H680 0.930 . S
C686 C687 1.355 . S
C686 C688 1.415 . S
C687 C686 1.355 . S
C687 C689 1.419 . S
C688 C686 1.415 . S
C688 C693 1.425 . S
C688 C695 1.409 . S
C689 H681 0.930 . S
C689 C687 1.419 . S
C689 C690 1.362 . S
C690 H682 0.930 . S
C690 C689 1.362 . S
C690 C693 1.409 . S
C691 H683 0.930 . S
C691 C692 1.355 . S
C691 C693 1.415 . S
C692 C691 1.355 . S
C692 C694 1.419 . S
C693 C688 1.425 . S
C693 C690 1.409 . S
C693 C691 1.415 . S
C694 H684 0.930 . S
C694 C692 1.419 . S
C694 C695 1.362 . S
C695 H685 0.930 . S
C695 C688 1.409 . S
C695 C694 1.362 . S
H696 C702 0.930 . S
H697 C705 0.930 . S
H698 C706 0.930 . S
H699 C707 0.930 . S
H700 C710 0.930 . S
H701 C711 0.930 . S
C702 H696 0.930 . S
C702 C703 1.355 . S
C702 C704 1.415 . S
C703 C702 1.355 . S
C703 C705 1.419 . S
C704 C702 1.415 . S
C704 C709 1.425 . S
C704 C711 1.409 . S
C705 H697 0.930 . S
C705 C703 1.419 . S
C705 C706 1.362 . S
C706 H698 0.930 . S
C706 C705 1.362 . S
C706 C709 1.409 . S
C707 H699 0.930 . S
C707 C708 1.355 . S
C707 C709 1.415 . S
C708 C707 1.355 . S
C708 C710 1.419 . S
C709 C704 1.425 . S
C709 C706 1.409 . S
C709 C707 1.415 . S
C710 H700 0.930 . S
C710 C708 1.419 . S
C710 C711 1.362 . S
C711 H701 0.930 . S
C711 C704 1.409 . S
C711 C710 1.362 . S
H712 C718 0.930 . S
H713 C721 0.930 . S
H714 C722 0.930 . S
H715 C723 0.930 . S
H716 C726 0.930 . S
H717 C727 0.930 . S
C718 H712 0.930 . S
C718 C719 1.355 . S
C718 C720 1.415 . S
C719 C718 1.355 . S
C719 C721 1.419 . S
C720 C718 1.415 . S
C720 C725 1.425 . S
C720 C727 1.409 . S
C721 H713 0.930 . S
C721 C719 1.419 . S
C721 C722 1.362 . S
C722 H714 0.930 . S
C722 C721 1.362 . S
C722 C725 1.409 . S
C723 H715 0.930 . S
C723 C724 1.355 . S
C723 C725 1.415 . S
C724 C723 1.355 . S
C724 C726 1.419 . S
C725 C720 1.425 . S
C725 C722 1.409 . S
C725 C723 1.415 . S
C726 H716 0.930 . S
C726 C724 1.419 . S
C726 C727 1.362 . S
C727 H717 0.930 . S
C727 C720 1.409 . S
C727 C726 1.362 . S
H728 C734 0.930 . S
H729 C737 0.930 . S
H730 C738 0.930 . S
H731 C739 0.930 . S
H732 C742 0.930 . S
H733 C743 0.930 . S
C734 H728 0.930 . S
C734 C735 1.355 . S
C734 C736 1.415 . S
C735 C734 1.355 . S
C735 C737 1.419 . S
C736 C734 1.415 . S
C736 C741 1.425 . S
C736 C743 1.409 . S
C737 H729 0.930 . S
C737 C735 1.419 . S
C737 C738 1.362 . S
C738 H730 0.930 . S
C738 C737 1.362 . S
C738 C741 1.409 . S
C739 H731 0.930 . S
C739 C740 1.355 . S
C739 C741 1.415 . S
C740 C739 1.355 . S
C740 C742 1.419 . S
C741 C736 1.425 . S
C741 C738 1.409 . S
C741 C739 1.415 . S
C742 H732 0.930 . S
C742 C740 1.419 . S
C742 C743 1.362 . S
C743 H733 0.930 . S
C743 C736 1.409 . S
C743 C742 1.362 . S
H744 C750 0.930 . S
H745 C753 0.930 . S
H746 C754 0.930 . S
H747 C755 0.930 . S
H748 C758 0.930 . S
H749 C759 0.930 . S
C750 H744 0.930 . S
C750 C751 1.355 . S
C750 C752 1.415 . S
C751 C750 1.355 . S
C751 C753 1.419 . S
C752 C750 1.415 . S
C752 C757 1.425 . S
C752 C759 1.409 . S
C753 H745 0.930 . S
C753 C751 1.419 . S
C753 C754 1.362 . S
C754 H746 0.930 . S
C754 C753 1.362 . S
C754 C757 1.409 . S
C755 H747 0.930 . S
C755 C756 1.355 . S
C755 C757 1.415 . S
C756 C755 1.355 . S
C756 C758 1.419 . S
C757 C752 1.425 . S
C757 C754 1.409 . S
C757 C755 1.415 . S
C758 H748 0.930 . S
C758 C756 1.419 . S
C758 C759 1.362 . S
C759 H749 0.930 . S
C759 C752 1.409 . S
C759 C758 1.362 . S
H760 C766 0.930 . S
H761 C769 0.930 . S
H762 C770 0.930 . S
H763 C771 0.930 . S
H764 C774 0.930 . S
H765 C775 0.930 . S
C766 H760 0.930 . S
C766 C767 1.355 . S
C766 C768 1.415 . S
C767 C766 1.355 . S
C767 C769 1.419 . S
C768 C766 1.415 . S
C768 C773 1.425 . S
C768 C775 1.409 . S
C769 H761 0.930 . S
C769 C767 1.419 . S
C769 C770 1.362 . S
C770 H762 0.930 . S
C770 C769 1.362 . S
C770 C773 1.409 . S
C771 H763 0.930 . S
C771 C772 1.355 . S
C771 C773 1.415 . S
C772 C771 1.355 . S
C772 C774 1.419 . S
C773 C768 1.425 . S
C773 C770 1.409 . S
C773 C771 1.415 . S
C774 H764 0.930 . S
C774 C772 1.419 . S
C774 C775 1.362 . S
C775 H765 0.930 . S
C775 C768 1.409 . S
C775 C774 1.362 . S
H776 C782 0.930 . S
H777 C785 0.930 . S
H778 C786 0.930 . S
H779 C787 0.930 . S
H780 C790 0.930 . S
H781 C791 0.930 . S
C782 H776 0.930 . S
C782 C783 1.355 . S
C782 C784 1.415 . S
C783 C782 1.355 . S
C783 C785 1.419 . S
C784 C782 1.415 . S
C784 C789 1.425 . S
C784 C791 1.409 . S
C785 H777 0.930 . S
C785 C783 1.419 . S
C785 C786 1.362 . S
C786 H778 0.930 . S
C786 C785 1.362 . S
C786 C789 1.409 . S
C787 H779 0.930 . S
C787 C788 1.355 . S
C787 C789 1.415 . S
C788 C787 1.355 . S
C788 C790 1.419 . S
C789 C784 1.425 . S
C789 C786 1.409 . S
C789 C787 1.415 . S
C790 H780 0.930 . S
C790 C788 1.419 . S
C790 C791 1.362 . S
C791 H781 0.930 . S
C791 C784 1.409 . S
C791 C790 1.362 . S
H792 C798 0.930 . S
H793 C801 0.930 . S
H794 C802 0.930 . S
H795 C803 0.930 . S
H796 C806 0.930 . S
H797 C807 0.930 . S
C798 H792 0.930 . S
C798 C799 1.355 . S
C798 C800 1.415 . S
C799 C798 1.355 . S
C799 C801 1.419 . S
C800 C798 1.415 . S
C800 C805 1.425 . S
C800 C807 1.409 . S
C801 H793 0.930 . S
C801 C799 1.419 . S
C801 C802 1.362 . S
C802 H794 0.930 . S
C802 C801 1.362 . S
C802 C805 1.409 . S
C803 H795 0.930 . S
C803 C804 1.355 . S
C803 C805 1.415 . S
C804 C803 1.355 . S
C804 C806 1.419 . S
C805 C800 1.425 . S
C805 C802 1.409 . S
C805 C803 1.415 . S
C806 H796 0.930 . S
C806 C804 1.419 . S
C806 C807 1.362 . S
C807 H797 0.930 . S
C807 C800 1.409 . S
C807 C806 1.362 . S
H808 C814 0.930 . S
H809 C817 0.930 . S
H810 C818 0.930 . S
H811 C819 0.930 . S
H812 C822 0.930 . S
H813 C823 0.930 . S
C814 H808 0.930 . S
C814 C815 1.355 . S
C814 C816 1.415 . S
C815 C814 1.355 . S
C815 C817 1.419 . S
C816 C814 1.415 . S
C816 C821 1.425 1_455 S
C816 C823 1.409 . S
C817 H809 0.930 . S
C817 C815 1.419 . S
C817 C818 1.362 1_455 S
C818 H810 0.930 . S
C818 C817 1.362 1_655 S
C818 C821 1.409 . S
C819 H811 0.930 . S
C819 C820 1.355 . S
C819 C821 1.415 . S
C820 C819 1.355 . S
C820 C822 1.419 . S
C821 C816 1.425 1_655 S
C821 C818 1.409 . S
C821 C819 1.415 . S
C822 H812 0.930 . S
C822 C820 1.419 . S
C822 C823 1.362 1_655 S
C823 H813 0.930 . S
C823 C816 1.409 . S
C823 C822 1.362 1_455 S
H824 C830 0.930 . S
H825 C833 0.930 . S
H826 C834 0.930 . S
H827 C835 0.930 . S
H828 C838 0.930 . S
H829 C839 0.930 . S
C830 H824 0.930 . S
C830 C831 1.355 . S
C830 C832 1.415 . S
C831 C830 1.355 . S
C831 C833 1.419 . S
C832 C830 1.415 . S
C832 C837 1.425 . S
C832 C839 1.409 . S
C833 H825 0.930 . S
C833 C831 1.419 . S
C833 C834 1.362 . S
C834 H826 0.930 . S
C834 C833 1.362 . S
C834 C837 1.409 . S
C835 H827 0.930 . S
C835 C836 1.355 . S
C835 C837 1.415 . S
C836 C835 1.355 . S
C836 C838 1.419 . S
C837 C832 1.425 . S
C837 C834 1.409 . S
C837 C835 1.415 . S
C838 H828 0.930 . S
C838 C836 1.419 . S
C838 C839 1.362 . S
C839 H829 0.930 . S
C839 C832 1.409 . S
C839 C838 1.362 . S
H840 C846 0.930 . S
H841 C849 0.930 . S
H842 C850 0.930 . S
H843 C851 0.939 . S
H844 C854 0.930 . S
H845 C855 0.930 . S
C846 H840 0.930 . S
C846 C847 1.355 . S
C846 C848 1.415 . S
C847 C846 1.355 . S
C847 C849 1.419 . S
C848 C846 1.415 . S
C848 C853 1.425 . S
C848 C855 1.409 1_655 S
C849 H841 0.930 . S
C849 C847 1.419 . S
C849 C850 1.362 . S
C850 H842 0.930 . S
C850 C849 1.362 . S
C850 C853 1.409 . S
C851 H843 0.939 . S
C851 C852 1.327 1_655 S
C851 C853 1.434 . S
C852 C851 1.327 1_455 S
C852 C854 1.419 . S
C853 C848 1.425 . S
C853 C850 1.409 . S
C853 C851 1.434 . S
C854 H844 0.930 . S
C854 C852 1.419 . S
C854 C855 1.362 . S
C855 H845 0.930 . S
C855 C848 1.409 1_455 S
C855 C854 1.362 . S
H856 C862 0.930 . S
H857 C865 0.930 . S
H858 C866 0.930 . S
H859 C867 0.930 . S
H860 C870 0.930 . S
H861 C871 0.930 . S
C862 H856 0.930 . S
C862 C863 1.355 . S
C862 C864 1.415 . S
C863 C862 1.355 . S
C863 C865 1.419 . S
C864 C862 1.415 . S
C864 C869 1.425 . S
C864 C871 1.409 . S
C865 H857 0.930 . S
C865 C863 1.419 . S
C865 C866 1.362 . S
C866 H858 0.930 . S
C866 C865 1.362 . S
C866 C869 1.409 . S
C867 H859 0.930 . S
C867 C868 1.355 . S
C867 C869 1.415 . S
C868 C867 1.355 . S
C868 C870 1.419 . S
C869 C864 1.425 . S
C869 C866 1.409 . S
C869 C867 1.415 . S
C870 H860 0.930 . S
C870 C868 1.419 . S
C870 C871 1.362 . S
C871 H861 0.930 . S
C871 C864 1.409 . S
C871 C870 1.362 . S
H872 C878 0.930 . S
H873 C881 0.930 . S
H874 C882 0.930 . S
H875 C883 0.930 . S
H876 C886 0.930 1_455 S
H877 C887 0.930 . S
C878 H872 0.930 . S
C878 C879 1.355 . S
C878 C880 1.415 . S
C879 C878 1.355 . S
C879 C881 1.419 . S
C880 C878 1.415 . S
C880 C885 1.425 . S
C880 C887 1.409 . S
C881 H873 0.930 . S
C881 C879 1.419 . S
C881 C882 1.362 . S
C882 H874 0.930 . S
C882 C881 1.362 . S
C882 C885 1.409 . S
C883 H875 0.930 . S
C883 C884 1.355 . S
C883 C885 1.415 . S
C884 C883 1.355 . S
C884 C886 1.419 . S
C885 C880 1.425 . S
C885 C882 1.409 . S
C885 C883 1.415 . S
C886 H876 0.930 1_655 S
C886 C884 1.419 . S
C886 C887 1.362 . S
C887 H877 0.930 . S
C887 C880 1.409 . S
C887 C886 1.362 . S
H888 C894 0.930 . S
H889 C897 0.930 . S
H890 C898 0.930 . S
H891 C899 0.930 . S
H892 C902 0.930 . S
H893 C903 0.930 . S
C894 H888 0.930 . S
C894 C895 1.355 . S
C894 C896 1.415 . S
C895 C894 1.355 . S
C895 C897 1.419 . S
C896 C894 1.415 . S
C896 C901 1.425 . S
C896 C903 1.409 . S
C897 H889 0.930 . S
C897 C895 1.419 . S
C897 C898 1.362 . S
C898 H890 0.930 . S
C898 C897 1.362 . S
C898 C901 1.409 . S
C899 H891 0.930 . S
C899 C900 1.355 . S
C899 C901 1.415 . S
C900 C899 1.355 . S
C900 C902 1.419 . S
C901 C896 1.425 . S
C901 C898 1.409 . S
C901 C899 1.415 . S
C902 H892 0.930 . S
C902 C900 1.419 . S
C902 C903 1.362 . S
C903 H893 0.930 . S
C903 C896 1.409 . S
C903 C902 1.362 . S
H904 C910 0.930 . S
H905 C913 0.930 . S
H906 C914 0.930 . S
H907 C915 0.930 . S
H908 C918 0.930 . S
H909 C919 0.930 . S
C910 H904 0.930 . S
C910 C911 1.355 . S
C910 C912 1.415 . S
C911 C910 1.355 . S
C911 C913 1.419 . S
C912 C910 1.415 . S
C912 C917 1.425 . S
C912 C919 1.409 . S
C913 H905 0.930 . S
C913 C911 1.419 . S
C913 C914 1.362 . S
C914 H906 0.930 . S
C914 C913 1.362 . S
C914 C917 1.409 . S
C915 H907 0.930 . S
C915 C916 1.355 . S
C915 C917 1.415 . S
C916 C915 1.355 . S
C916 C918 1.419 . S
C917 C912 1.425 . S
C917 C914 1.409 . S
C917 C915 1.415 . S
C918 H908 0.930 . S
C918 C916 1.419 . S
C918 C919 1.362 . S
C919 H909 0.930 . S
C919 C912 1.409 . S
C919 C918 1.362 . S
H920 C926 0.930 . S
H921 C929 0.930 . S
H922 C930 0.930 . S
H923 C931 0.930 . S
H924 C934 0.930 . S
H925 C935 0.930 . S
C926 H920 0.930 . S
C926 C927 1.355 . S
C926 C928 1.415 . S
C927 C926 1.355 . S
C927 C929 1.419 . S
C928 C926 1.415 . S
C928 C933 1.425 . S
C928 C935 1.409 . S
C929 H921 0.930 . S
C929 C927 1.419 . S
C929 C930 1.362 . S
C930 H922 0.930 . S
C930 C929 1.362 . S
C930 C933 1.409 . S
C931 H923 0.930 . S
C931 C932 1.355 . S
C931 C933 1.415 . S
C932 C931 1.355 . S
C932 C934 1.419 . S
C933 C928 1.425 . S
C933 C930 1.409 . S
C933 C931 1.415 . S
C934 H924 0.930 . S
C934 C932 1.419 . S
C934 C935 1.362 . S
C935 H925 0.930 . S
C935 C928 1.409 . S
C935 C934 1.362 . S
H936 C942 0.930 . S
H937 C945 0.930 . S
H938 C946 0.930 . S
H939 C947 0.930 . S
H940 C950 0.930 . S
H941 C951 0.930 . S
C942 H936 0.930 . S
C942 C943 1.355 1_554 S
C942 C944 1.415 . S
C943 C942 1.355 1_556 S
C943 C945 1.419 . S
C944 C942 1.415 . S
C944 C949 1.425 . S
C944 C951 1.409 . S
C945 H937 0.930 . S
C945 C943 1.419 . S
C945 C946 1.362 1_556 S
C946 H938 0.930 . S
C946 C945 1.362 1_554 S
C946 C949 1.409 . S
C947 H939 0.930 . S
C947 C948 1.355 . S
C947 C949 1.415 . S
C948 C947 1.355 . S
C948 C950 1.419 . S
C949 C944 1.425 . S
C949 C946 1.409 . S
C949 C947 1.415 . S
C950 H940 0.930 . S
C950 C948 1.419 . S
C950 C951 1.362 . S
C951 H941 0.930 . S
C951 C944 1.409 . S
C951 C950 1.362 . S
H952 C958 0.930 . S
H953 C961 0.930 . S
H954 C962 0.930 . S
H955 C963 0.930 . S
H956 C966 0.930 . S
H957 C967 0.930 . S
C958 H952 0.930 . S
C958 C959 1.355 . S
C958 C960 1.415 . S
C959 C958 1.355 . S
C959 C961 1.419 . S
C960 C958 1.415 . S
C960 C965 1.425 . S
C960 C967 1.409 . S
C961 H953 0.930 . S
C961 C959 1.419 . S
C961 C962 1.362 . S
C962 H954 0.930 . S
C962 C961 1.362 . S
C962 C965 1.409 . S
C963 H955 0.930 . S
C963 C964 1.355 . S
C963 C965 1.415 . S
C964 C963 1.355 . S
C964 C966 1.419 . S
C965 C960 1.425 . S
C965 C962 1.409 . S
C965 C963 1.415 . S
C966 H956 0.930 . S
C966 C964 1.419 . S
C966 C967 1.362 . S
C967 H957 0.930 . S
C967 C960 1.409 . S
C967 C966 1.362 . S
H968 C974 0.930 . S
H969 C977 0.930 . S
H970 C978 0.930 . S
H971 C979 0.930 . S
H972 C982 0.930 . S
H973 C983 0.930 . S
C974 H968 0.930 . S
C974 C975 1.355 . S
C974 C976 1.415 . S
C975 C974 1.355 . S
C975 C977 1.419 . S
C976 C974 1.415 . S
C976 C981 1.425 . S
C976 C983 1.409 . S
C977 H969 0.930 . S
C977 C975 1.419 . S
C977 C978 1.362 . S
C978 H970 0.930 . S
C978 C977 1.362 . S
C978 C981 1.409 . S
C979 H971 0.930 . S
C979 C980 1.355 . S
C979 C981 1.415 . S
C980 C979 1.355 . S
C980 C982 1.419 . S
C981 C976 1.425 . S
C981 C978 1.409 . S
C981 C979 1.415 . S
C982 H972 0.930 . S
C982 C980 1.419 . S
C982 C983 1.362 . S
C983 H973 0.930 . S
C983 C976 1.409 . S
C983 C982 1.362 . S
H984 C990 0.930 . S
H985 C993 0.930 . S
H986 C994 0.930 . S
H987 C995 0.930 . S
H988 C998 0.930 . S
H989 C999 0.930 . S
C990 H984 0.930 . S
C990 C991 1.355 . S
C990 C992 1.415 . S
C991 C990 1.355 . S
C991 C993 1.419 . S
C992 C990 1.415 . S
C992 C997 1.425 . S
C992 C999 1.409 . S
C993 H985 0.930 . S
C993 C991 1.419 . S
C993 C994 1.362 . S
C994 H986 0.930 . S
C994 C993 1.362 . S
C994 C997 1.409 . S
C995 H987 0.930 . S
C995 C996 1.355 . S
C995 C997 1.415 . S
C996 C995 1.355 . S
C996 C998 1.419 . S
C997 C992 1.425 . S
C997 C994 1.409 . S
C997 C995 1.415 . S
C998 H988 0.930 . S
C998 C996 1.419 . S
C998 C999 1.362 . S
C999 H989 0.930 . S
C999 C992 1.409 . S
C999 C998 1.362 . S
H1000 C1006 0.930 . S
H1001 C1009 0.930 . S
H1002 C1010 0.930 . S
H1003 C1011 0.930 . S
H1004 C1014 0.930 . S
H1005 C1015 0.930 . S
C1006 H1000 0.930 . S
C1006 C1007 1.355 . S
C1006 C1008 1.415 . S
C1007 C1006 1.355 . S
C1007 C1009 1.419 . S
C1008 C1006 1.415 . S
C1008 C1013 1.425 . S
C1008 C1015 1.409 . S
C1009 H1001 0.930 . S
C1009 C1007 1.419 . S
C1009 C1010 1.362 . S
C1010 H1002 0.930 . S
C1010 C1009 1.362 . S
C1010 C1013 1.409 . S
C1011 H1003 0.930 . S
C1011 C1012 1.355 . S
C1011 C1013 1.415 . S
C1012 C1011 1.355 . S
C1012 C1014 1.419 . S
C1013 C1008 1.425 . S
C1013 C1010 1.409 . S
C1013 C1011 1.415 . S
C1014 H1004 0.930 . S
C1014 C1012 1.419 . S
C1014 C1015 1.362 . S
C1015 H1005 0.930 . S
C1015 C1008 1.409 . S
C1015 C1014 1.362 . S
H1016 C1022 0.930 . S
H1017 C1025 0.930 . S
H1018 C1026 0.930 . S
H1019 C1027 0.930 . S
H1020 C1030 0.930 . S
H1021 C1031 0.930 . S
C1022 H1016 0.930 . S
C1022 C1023 1.355 . S
C1022 C1024 1.415 . S
C1023 C1022 1.355 . S
C1023 C1025 1.419 . S
C1024 C1022 1.415 . S
C1024 C1029 1.425 . S
C1024 C1031 1.409 . S
C1025 H1017 0.930 . S
C1025 C1023 1.419 . S
C1025 C1026 1.362 . S
C1026 H1018 0.930 . S
C1026 C1025 1.362 . S
C1026 C1029 1.409 . S
C1027 H1019 0.930 . S
C1027 C1028 1.355 . S
C1027 C1029 1.415 . S
C1028 C1027 1.355 . S
C1028 C1030 1.419 . S
C1029 C1024 1.425 . S
C1029 C1026 1.409 . S
C1029 C1027 1.415 . S
C1030 H1020 0.930 . S
C1030 C1028 1.419 . S
C1030 C1031 1.362 . S
C1031 H1021 0.930 . S
C1031 C1024 1.409 . S
C1031 C1030 1.362 . S
H1032 C1038 0.930 . S
H1033 C1041 0.930 . S
H1034 C1042 0.930 . S
H1035 C1043 0.930 . S
H1036 C1046 0.930 . S
H1037 C1047 0.930 . S
C1038 H1032 0.930 . S
C1038 C1039 1.355 . S
C1038 C1040 1.415 . S
C1039 C1038 1.355 . S
C1039 C1041 1.419 . S
C1040 C1038 1.415 . S
C1040 C1045 1.425 . S
C1040 C1047 1.409 . S
C1041 H1033 0.930 . S
C1041 C1039 1.419 . S
C1041 C1042 1.362 . S
C1042 H1034 0.930 . S
C1042 C1041 1.362 . S
C1042 C1045 1.409 . S
C1043 H1035 0.930 . S
C1043 C1044 1.355 . S
C1043 C1045 1.415 . S
C1044 C1043 1.355 . S
C1044 C1046 1.419 . S
C1045 C1040 1.425 . S
C1045 C1042 1.409 . S
C1045 C1043 1.415 . S
C1046 H1036 0.930 . S
C1046 C1044 1.419 . S
C1046 C1047 1.362 . S
C1047 H1037 0.930 . S
C1047 C1040 1.409 . S
C1047 C1046 1.362 . S
H1048 C1054 0.930 . S
H1049 C1057 0.930 . S
H1050 C1058 0.930 . S
H1051 C1059 0.966 . S
H1052 C1062 0.930 . S
H1053 C1063 0.930 . S
C1054 H1048 0.930 . S
C1054 C1055 1.355 . S
C1054 C1056 1.415 . S
C1055 C1054 1.355 . S
C1055 C1057 1.419 . S
C1056 C1054 1.415 . S
C1056 C1061 1.425 . S
C1056 C1063 1.409 . S
C1057 H1049 0.930 . S
C1057 C1055 1.419 . S
C1057 C1058 1.362 . S
C1058 H1050 0.930 . S
C1058 C1057 1.362 . S
C1058 C1061 1.409 . S
C1059 H1051 0.966 . S
C1059 C1060 1.355 . S
C1059 C1061 1.415 . S
C1060 C1059 1.355 . S
C1060 C1062 1.419 . S
C1061 C1056 1.425 . S
C1061 C1058 1.409 . S
C1061 C1059 1.415 . S
C1062 H1052 0.930 . S
C1062 C1060 1.419 . S
C1062 C1063 1.362 . S
C1063 H1053 0.930 . S
C1063 C1056 1.409 . S
C1063 C1062 1.362 . S
H1064 C1070 0.930 . S
H1065 C1073 0.930 . S
H1066 C1074 0.930 . S
H1067 C1075 0.930 . S
H1068 C1078 0.930 . S
H1069 C1079 0.930 . S
C1070 H1064 0.930 . S
C1070 C1071 1.355 . S
C1070 C1072 1.415 . S
C1071 C1070 1.355 . S
C1071 C1073 1.419 . S
C1072 C1070 1.415 . S
C1072 C1077 1.425 . S
C1072 C1079 1.409 . S
C1073 H1065 0.930 . S
C1073 C1071 1.419 . S
C1073 C1074 1.362 . S
C1074 H1066 0.930 . S
C1074 C1073 1.362 . S
C1074 C1077 1.409 . S
C1075 H1067 0.930 . S
C1075 C1076 1.355 . S
C1075 C1077 1.415 . S
C1076 C1075 1.355 . S
C1076 C1078 1.419 . S
C1077 C1072 1.425 . S
C1077 C1074 1.409 . S
C1077 C1075 1.415 . S
C1078 H1068 0.930 . S
C1078 C1076 1.419 . S
C1078 C1079 1.362 . S
C1079 H1069 0.930 . S
C1079 C1072 1.409 . S
C1079 C1078 1.362 . S
H1080 C1086 0.930 . S
H1081 C1089 0.930 . S
H1082 C1090 0.930 . S
H1083 C1091 0.930 . S
H1084 C1094 0.930 . S
H1085 C1095 0.930 . S
C1086 H1080 0.930 . S
C1086 C1087 1.355 . S
C1086 C1088 1.415 . S
C1087 C1086 1.355 . S
C1087 C1089 1.419 . S
C1088 C1086 1.415 . S
C1088 C1093 1.425 . S
C1088 C1095 1.409 . S
C1089 H1081 0.930 . S
C1089 C1087 1.419 . S
C1089 C1090 1.362 . S
C1090 H1082 0.930 . S
C1090 C1089 1.362 . S
C1090 C1093 1.409 . S
C1091 H1083 0.930 . S
C1091 C1092 1.355 . S
C1091 C1093 1.415 . S
C1092 C1091 1.355 . S
C1092 C1094 1.419 . S
C1093 C1088 1.425 . S
C1093 C1090 1.409 . S
C1093 C1091 1.415 . S
C1094 H1084 0.930 . S
C1094 C1092 1.419 . S
C1094 C1095 1.362 . S
C1095 H1085 0.930 . S
C1095 C1088 1.409 . S
C1095 C1094 1.362 . S
H1096 C1102 0.930 . S
H1097 C1105 0.930 . S
H1098 C1106 0.930 . S
H1099 C1107 0.930 . S
H1100 C1110 0.930 . S
H1101 C1111 0.931 . S
C1102 H1096 0.930 . S
C1102 C1103 1.355 . S
C1102 C1104 1.415 . S
C1103 C1102 1.355 . S
C1103 C1105 1.419 . S
C1104 C1102 1.415 . S
C1104 C1109 1.425 . S
C1104 C1111 1.397 1_545 S
C1105 H1097 0.930 . S
C1105 C1103 1.419 . S
C1105 C1106 1.362 . S
C1106 H1098 0.930 . S
C1106 C1105 1.362 . S
C1106 C1109 1.409 . S
C1107 H1099 0.930 . S
C1107 C1108 1.355 1_545 S
C1107 C1109 1.415 . S
C1108 C1107 1.355 1_565 S
C1108 C1110 1.419 . S
C1109 C1104 1.425 . S
C1109 C1106 1.409 . S
C1109 C1107 1.415 . S
C1110 H1100 0.930 . S
C1110 C1108 1.419 . S
C1110 C1111 1.374 . S
C1111 H1101 0.931 . S
C1111 C1104 1.397 1_565 S
C1111 C1110 1.374 . S
C356 C184 1.282 1_556 S
C351 C62 1.190 . S
C372 C199 1.724 . S
C367 C73 1.665 . S
C383 C84 1.774 . S
C388 C212 1.789 . S
C404 C226 1.341 . S
C399 C49 1.076 . S
C420 C238 1.485 . S
C415 C118 1.524 . S
C436 C252 1.340 . S
C431 C137 1.274 . S
C447 C129 1.725 . S
C452 C266 1.718 . S
C468 C281 1.686 . S
C463 C106 1.642 . S
C479 C128 1.821 . S
C484 C297 1.859 . S
C500 C310 1.604 . S
C495 C104 1.334 . S
C511 C115 1.524 . S
C516 C295 1.748 . S
C532 C308 1.590 . S
C527 C139 1.583 . S
C543 C85 1.902 . S
C548 C324 1.886 . S
C559 C52 1.292 . S
C564 C323 1.394 . S
C575 C60 1.284 . S
C580 C322 1.326 . S
C591 C71 1.485 . S
C596 C325 1.704 . S
C607 C40 1.864 . S
C612 C227 1.930 1_565 S
C623 C162 1.148 . S
C628 C225 1.130 . S
C644 C185 1.224 . S
C639 C173 1.183 . S
C660 C196 1.930 . S
C655 C93 1.844 . S
C671 C51 1.526 1_545 S
C676 C241 1.629 . S
C692 C282 1.874 . S
C687 C126 1.610 . S
C708 C239 1.754 . S
C703 C107 1.663 1_545 S
C724 C267 1.550 . S
C719 C140 1.595 . S
C740 C268 1.274 . S
C735 C161 1.186 . S
C751 C172 1.673 . S
C756 C283 1.764 . S
C767 C95 1.765 . S
C772 C240 1.788 . S
C788 C254 1.359 . S
C783 C148 1.114 . S
C799 C41 1.533 . S
C804 C210 1.472 . S
C820 C224 1.348 . S
C815 C5 1.336 . S
C836 C182 1.718 . S
C831 C19 1.724 . S
C852 C197 1.650 . S
C847 C29 1.695 . S
C863 C18 1.831 . S
C868 C311 1.864 . S
C879 C27 1.330 . S
C884 C296 1.600 1_554 S
C895 C38 1.526 . S
C900 C309 1.757 . S
C911 C7 1.586 . S
C916 C294 1.578 . S
C932 C338 1.900 . S
C927 C96 1.893 . S
C948 C337 1.358 . S
C943 C151 1.368 . S
C964 C336 1.356 . S
C959 C159 1.241 . S
C975 C170 1.437 1_554 S
C980 C339 1.676 . S
C991 C117 1.825 . S
C996 C255 1.914 . S
C1012 C253 1.181 . S
C1007 C63 1.189 . S
C1028 C269 1.293 . S
C1023 C74 1.277 . S
C1044 C280 1.945 . S
C1039 C82 1.780 . S
C1055 C150 1.459 . S
C1060 C213 1.611 . S
C1076 C198 1.852 . S
C1071 C16 1.701 . S
C1087 C30 1.710 . S
C1092 C211 1.775 . S
C1108 C183 1.594 . S
C1103 C8 1.608 . S
