# Generated by pormake.
# Topology iac, (4,6)-cn, num edge types: 1
# Building blocks:
#     Node 0, Type 0, BuildingBlock: CEKHIL_clean_sbu_0, # of connection points: 4
#     Node 1, Type 0, BuildingBlock: CEKHIL_clean_sbu_0, # of connection points: 4
#     Node 2, Type 0, BuildingBlock: CEKHIL_clean_sbu_0, # of connection points: 4
#     Node 3, Type 0, BuildingBlock: CEKHIL_clean_sbu_0, # of connection points: 4
#     Node 4, Type 0, BuildingBlock: CEKHIL_clean_sbu_0, # of connection points: 4
#     Node 5, Type 0, BuildingBlock: CEKHIL_clean_sbu_0, # of connection points: 4
#     Node 6, Type 0, BuildingBlock: CEKHIL_clean_sbu_0, # of connection points: 4
#     Node 7, Type 0, BuildingBlock: CEKHIL_clean_sbu_0, # of connection points: 4
#     Node 8, Type 0, BuildingBlock: CEKHIL_clean_sbu_0, # of connection points: 4
#     Node 9, Type 0, BuildingBlock: CEKHIL_clean_sbu_0, # of connection points: 4
#     Node 10, Type 0, BuildingBlock: CEKHIL_clean_sbu_0, # of connection points: 4
#     Node 11, Type 0, BuildingBlock: CEKHIL_clean_sbu_0, # of connection points: 4
#     Node 12, Type 0, BuildingBlock: CEKHIL_clean_sbu_0, # of connection points: 4
#     Node 13, Type 0, BuildingBlock: CEKHIL_clean_sbu_0, # of connection points: 4
#     Node 14, Type 0, BuildingBlock: CEKHIL_clean_sbu_0, # of connection points: 4
#     Node 15, Type 0, BuildingBlock: CEKHIL_clean_sbu_0, # of connection points: 4
#     Node 16, Type 0, BuildingBlock: CEKHIL_clean_sbu_0, # of connection points: 4
#     Node 17, Type 0, BuildingBlock: CEKHIL_clean_sbu_0, # of connection points: 4
#     Node 18, Type 0, BuildingBlock: CEKHIL_clean_sbu_0, # of connection points: 4
#     Node 19, Type 0, BuildingBlock: CEKHIL_clean_sbu_0, # of connection points: 4
#     Node 20, Type 0, BuildingBlock: CEKHIL_clean_sbu_0, # of connection points: 4
#     Node 21, Type 0, BuildingBlock: CEKHIL_clean_sbu_0, # of connection points: 4
#     Node 22, Type 0, BuildingBlock: CEKHIL_clean_sbu_0, # of connection points: 4
#     Node 23, Type 0, BuildingBlock: CEKHIL_clean_sbu_0, # of connection points: 4
#     Node 24, Type 1, BuildingBlock: VOLQOD_clean_sbu_1, # of connection points: 6
#     Node 25, Type 1, BuildingBlock: VOLQOD_clean_sbu_1, # of connection points: 6
#     Node 26, Type 1, BuildingBlock: VOLQOD_clean_sbu_1, # of connection points: 6
#     Node 27, Type 1, BuildingBlock: VOLQOD_clean_sbu_1, # of connection points: 6
#     Node 28, Type 1, BuildingBlock: VOLQOD_clean_sbu_1, # of connection points: 6
#     Node 29, Type 1, BuildingBlock: VOLQOD_clean_sbu_1, # of connection points: 6
#     Node 30, Type 1, BuildingBlock: VOLQOD_clean_sbu_1, # of connection points: 6
#     Node 31, Type 1, BuildingBlock: VOLQOD_clean_sbu_1, # of connection points: 6
#     Node 32, Type 1, BuildingBlock: VOLQOD_clean_sbu_1, # of connection points: 6
#     Node 33, Type 1, BuildingBlock: VOLQOD_clean_sbu_1, # of connection points: 6
#     Node 34, Type 1, BuildingBlock: VOLQOD_clean_sbu_1, # of connection points: 6
#     Node 35, Type 1, BuildingBlock: VOLQOD_clean_sbu_1, # of connection points: 6
#     Node 36, Type 1, BuildingBlock: VOLQOD_clean_sbu_1, # of connection points: 6
#     Node 37, Type 1, BuildingBlock: VOLQOD_clean_sbu_1, # of connection points: 6
#     Node 38, Type 1, BuildingBlock: VOLQOD_clean_sbu_1, # of connection points: 6
#     Node 39, Type 1, BuildingBlock: VOLQOD_clean_sbu_1, # of connection points: 6
#     Edge 40, Type (0, 1), BuildingBlock: CIFDUS_clean_linker_0, # of connection points: 2
#     Edge 41, Type (0, 1), BuildingBlock: CIFDUS_clean_linker_0, # of connection points: 2
#     Edge 42, Type (0, 1), BuildingBlock: CIFDUS_clean_linker_0, # of connection points: 2
#     Edge 43, Type (0, 1), BuildingBlock: CIFDUS_clean_linker_0, # of connection points: 2
#     Edge 44, Type (0, 1), BuildingBlock: CIFDUS_clean_linker_0, # of connection points: 2
#     Edge 45, Type (0, 1), BuildingBlock: CIFDUS_clean_linker_0, # of connection points: 2
#     Edge 46, Type (0, 1), BuildingBlock: CIFDUS_clean_linker_0, # of connection points: 2
#     Edge 47, Type (0, 1), BuildingBlock: CIFDUS_clean_linker_0, # of connection points: 2
#     Edge 48, Type (0, 1), BuildingBlock: CIFDUS_clean_linker_0, # of connection points: 2
#     Edge 49, Type (0, 1), BuildingBlock: CIFDUS_clean_linker_0, # of connection points: 2
#     Edge 50, Type (0, 1), BuildingBlock: CIFDUS_clean_linker_0, # of connection points: 2
#     Edge 51, Type (0, 1), BuildingBlock: CIFDUS_clean_linker_0, # of connection points: 2
#     Edge 52, Type (0, 1), BuildingBlock: CIFDUS_clean_linker_0, # of connection points: 2
#     Edge 53, Type (0, 1), BuildingBlock: CIFDUS_clean_linker_0, # of connection points: 2
#     Edge 54, Type (0, 1), BuildingBlock: CIFDUS_clean_linker_0, # of connection points: 2
#     Edge 55, Type (0, 1), BuildingBlock: CIFDUS_clean_linker_0, # of connection points: 2
#     Edge 56, Type (0, 1), BuildingBlock: CIFDUS_clean_linker_0, # of connection points: 2
#     Edge 57, Type (0, 1), BuildingBlock: CIFDUS_clean_linker_0, # of connection points: 2
#     Edge 58, Type (0, 1), BuildingBlock: CIFDUS_clean_linker_0, # of connection points: 2
#     Edge 59, Type (0, 1), BuildingBlock: CIFDUS_clean_linker_0, # of connection points: 2
#     Edge 60, Type (0, 1), BuildingBlock: CIFDUS_clean_linker_0, # of connection points: 2
#     Edge 61, Type (0, 1), BuildingBlock: CIFDUS_clean_linker_0, # of connection points: 2
#     Edge 62, Type (0, 1), BuildingBlock: CIFDUS_clean_linker_0, # of connection points: 2
#     Edge 63, Type (0, 1), BuildingBlock: CIFDUS_clean_linker_0, # of connection points: 2
#     Edge 64, Type (0, 1), BuildingBlock: CIFDUS_clean_linker_0, # of connection points: 2
#     Edge 65, Type (0, 1), BuildingBlock: CIFDUS_clean_linker_0, # of connection points: 2
#     Edge 66, Type (0, 1), BuildingBlock: CIFDUS_clean_linker_0, # of connection points: 2
#     Edge 67, Type (0, 1), BuildingBlock: CIFDUS_clean_linker_0, # of connection points: 2
#     Edge 68, Type (0, 1), BuildingBlock: CIFDUS_clean_linker_0, # of connection points: 2
#     Edge 69, Type (0, 1), BuildingBlock: CIFDUS_clean_linker_0, # of connection points: 2
#     Edge 70, Type (0, 1), BuildingBlock: CIFDUS_clean_linker_0, # of connection points: 2
#     Edge 71, Type (0, 1), BuildingBlock: CIFDUS_clean_linker_0, # of connection points: 2
#     Edge 72, Type (0, 1), BuildingBlock: CIFDUS_clean_linker_0, # of connection points: 2
#     Edge 73, Type (0, 1), BuildingBlock: CIFDUS_clean_linker_0, # of connection points: 2
#     Edge 74, Type (0, 1), BuildingBlock: CIFDUS_clean_linker_0, # of connection points: 2
#     Edge 75, Type (0, 1), BuildingBlock: CIFDUS_clean_linker_0, # of connection points: 2
#     Edge 76, Type (0, 1), BuildingBlock: CIFDUS_clean_linker_0, # of connection points: 2
#     Edge 77, Type (0, 1), BuildingBlock: CIFDUS_clean_linker_0, # of connection points: 2
#     Edge 78, Type (0, 1), BuildingBlock: CIFDUS_clean_linker_0, # of connection points: 2
#     Edge 79, Type (0, 1), BuildingBlock: CIFDUS_clean_linker_0, # of connection points: 2
#     Edge 80, Type (0, 1), BuildingBlock: CIFDUS_clean_linker_0, # of connection points: 2
#     Edge 81, Type (0, 1), BuildingBlock: CIFDUS_clean_linker_0, # of connection points: 2
#     Edge 82, Type (0, 1), BuildingBlock: CIFDUS_clean_linker_0, # of connection points: 2
#     Edge 83, Type (0, 1), BuildingBlock: CIFDUS_clean_linker_0, # of connection points: 2
#     Edge 84, Type (0, 1), BuildingBlock: CIFDUS_clean_linker_0, # of connection points: 2
#     Edge 85, Type (0, 1), BuildingBlock: CIFDUS_clean_linker_0, # of connection points: 2
#     Edge 86, Type (0, 1), BuildingBlock: CIFDUS_clean_linker_0, # of connection points: 2
#     Edge 87, Type (0, 1), BuildingBlock: CIFDUS_clean_linker_0, # of connection points: 2
#     Edge 88, Type (0, 1), BuildingBlock: CIFDUS_clean_linker_0, # of connection points: 2
#     Edge 89, Type (0, 1), BuildingBlock: CIFDUS_clean_linker_0, # of connection points: 2
#     Edge 90, Type (0, 1), BuildingBlock: CIFDUS_clean_linker_0, # of connection points: 2
#     Edge 91, Type (0, 1), BuildingBlock: CIFDUS_clean_linker_0, # of connection points: 2
#     Edge 92, Type (0, 1), BuildingBlock: CIFDUS_clean_linker_0, # of connection points: 2
#     Edge 93, Type (0, 1), BuildingBlock: CIFDUS_clean_linker_0, # of connection points: 2
#     Edge 94, Type (0, 1), BuildingBlock: CIFDUS_clean_linker_0, # of connection points: 2
#     Edge 95, Type (0, 1), BuildingBlock: CIFDUS_clean_linker_0, # of connection points: 2
#     Edge 96, Type (0, 1), BuildingBlock: CIFDUS_clean_linker_0, # of connection points: 2
#     Edge 97, Type (0, 1), BuildingBlock: CIFDUS_clean_linker_0, # of connection points: 2
#     Edge 98, Type (0, 1), BuildingBlock: CIFDUS_clean_linker_0, # of connection points: 2
#     Edge 99, Type (0, 1), BuildingBlock: CIFDUS_clean_linker_0, # of connection points: 2
#     Edge 100, Type (0, 1), BuildingBlock: CIFDUS_clean_linker_0, # of connection points: 2
#     Edge 101, Type (0, 1), BuildingBlock: CIFDUS_clean_linker_0, # of connection points: 2
#     Edge 102, Type (0, 1), BuildingBlock: CIFDUS_clean_linker_0, # of connection points: 2
#     Edge 103, Type (0, 1), BuildingBlock: CIFDUS_clean_linker_0, # of connection points: 2
#     Edge 104, Type (0, 1), BuildingBlock: CIFDUS_clean_linker_0, # of connection points: 2
#     Edge 105, Type (0, 1), BuildingBlock: CIFDUS_clean_linker_0, # of connection points: 2
#     Edge 106, Type (0, 1), BuildingBlock: CIFDUS_clean_linker_0, # of connection points: 2
#     Edge 107, Type (0, 1), BuildingBlock: CIFDUS_clean_linker_0, # of connection points: 2
#     Edge 108, Type (0, 1), BuildingBlock: CIFDUS_clean_linker_0, # of connection points: 2
#     Edge 109, Type (0, 1), BuildingBlock: CIFDUS_clean_linker_0, # of connection points: 2
#     Edge 110, Type (0, 1), BuildingBlock: CIFDUS_clean_linker_0, # of connection points: 2
#     Edge 111, Type (0, 1), BuildingBlock: CIFDUS_clean_linker_0, # of connection points: 2
#     Edge 112, Type (0, 1), BuildingBlock: CIFDUS_clean_linker_0, # of connection points: 2
#     Edge 113, Type (0, 1), BuildingBlock: CIFDUS_clean_linker_0, # of connection points: 2
#     Edge 114, Type (0, 1), BuildingBlock: CIFDUS_clean_linker_0, # of connection points: 2
#     Edge 115, Type (0, 1), BuildingBlock: CIFDUS_clean_linker_0, # of connection points: 2
#     Edge 116, Type (0, 1), BuildingBlock: CIFDUS_clean_linker_0, # of connection points: 2
#     Edge 117, Type (0, 1), BuildingBlock: CIFDUS_clean_linker_0, # of connection points: 2
#     Edge 118, Type (0, 1), BuildingBlock: CIFDUS_clean_linker_0, # of connection points: 2
#     Edge 119, Type (0, 1), BuildingBlock: CIFDUS_clean_linker_0, # of connection points: 2
#     Edge 120, Type (0, 1), BuildingBlock: CIFDUS_clean_linker_0, # of connection points: 2
#     Edge 121, Type (0, 1), BuildingBlock: CIFDUS_clean_linker_0, # of connection points: 2
#     Edge 122, Type (0, 1), BuildingBlock: CIFDUS_clean_linker_0, # of connection points: 2
#     Edge 123, Type (0, 1), BuildingBlock: CIFDUS_clean_linker_0, # of connection points: 2
#     Edge 124, Type (0, 1), BuildingBlock: CIFDUS_clean_linker_0, # of connection points: 2
#     Edge 125, Type (0, 1), BuildingBlock: CIFDUS_clean_linker_0, # of connection points: 2
#     Edge 126, Type (0, 1), BuildingBlock: CIFDUS_clean_linker_0, # of connection points: 2
#     Edge 127, Type (0, 1), BuildingBlock: CIFDUS_clean_linker_0, # of connection points: 2
#     Edge 128, Type (0, 1), BuildingBlock: CIFDUS_clean_linker_0, # of connection points: 2
#     Edge 129, Type (0, 1), BuildingBlock: CIFDUS_clean_linker_0, # of connection points: 2
#     Edge 130, Type (0, 1), BuildingBlock: CIFDUS_clean_linker_0, # of connection points: 2
#     Edge 131, Type (0, 1), BuildingBlock: CIFDUS_clean_linker_0, # of connection points: 2
#     Edge 132, Type (0, 1), BuildingBlock: CIFDUS_clean_linker_0, # of connection points: 2
#     Edge 133, Type (0, 1), BuildingBlock: CIFDUS_clean_linker_0, # of connection points: 2
#     Edge 134, Type (0, 1), BuildingBlock: CIFDUS_clean_linker_0, # of connection points: 2
#     Edge 135, Type (0, 1), BuildingBlock: CIFDUS_clean_linker_0, # of connection points: 2
# Relax obj value: 0.303
# Max RMSD: 0.289
# Mean RMSD: 0.141
data_MOF--net-iac--node1-CEKHIL_clean_sbu_0--node2-VOLQOD_clean_sbu_1--edge1-CIFDUS_clean_linker_0
_symmetry_space_group_name_H-M    P1
_symmetry_Int_Tables_number       1
_symmetry_cell_setting            triclinic
loop_
_symmetry_equiv_pos_as_xyz
'x, y, z'
_cell_length_a     48.904775
_cell_length_b     48.341926
_cell_length_c     47.675204
_cell_angle_alpha  90.055375
_cell_angle_beta   90.262098
_cell_angle_gamma 90.723936
loop_
_atom_site_label
_atom_site_type_symbol
_atom_site_fract_x
_atom_site_fract_y
_atom_site_fract_z
_atom_type_partial_charge
Co0 Co 0.98205 0.2601 0.14004 0.0
O1 O 0.94281 0.25772 0.13977 0.0
O2 O 0.96942 0.24881 0.17647 0.0
C3 C 0.98705 0.30052 0.11759 0.0
O4 O 0.02275 0.26094 0.14832 0.0
Co5 Co 0.01466 0.25948 0.08403 0.0
O6 O 0.0463 0.26901 0.10867 0.0
C7 C 0.98337 0.2107 0.10283 0.0
C8 C 0.945 0.24935 0.16558 0.0
C9 C 0.04513 0.26646 0.13526 0.0
O10 O 0.98314 0.22043 0.12785 0.0
O11 O 0.99238 0.22439 0.08176 0.0
O12 O 0.98167 0.30043 0.14433 0.0
O13 O 0.98594 0.27679 0.10533 0.0
Co14 Co 0.01872 0.754 0.39209 0.0
O15 O 0.05702 0.76284 0.3934 0.0
O16 O 0.03621 0.73895 0.35953 0.0
C17 C 0.0039 0.79595 0.40394 0.0
O18 O 0.98 0.74205 0.38245 0.0
Co19 Co 0.98133 0.75766 0.44451 0.0
O20 O 0.95155 0.75681 0.41597 0.0
C21 C 0.02372 0.71513 0.44066 0.0
C22 C 0.05864 0.74978 0.36963 0.0
C23 C 0.95592 0.74742 0.39143 0.0
O24 O 0.02567 0.71943 0.41411 0.0
O25 O 0.00905 0.72993 0.45685 0.0
O26 O 0.01075 0.79115 0.37806 0.0
O27 O 0.00839 0.77633 0.42156 0.0
Co28 Co 0.4895 0.79269 0.63367 0.0
O29 O 0.45051 0.79036 0.63657 0.0
O30 O 0.47993 0.77111 0.66621 0.0
C31 C 0.4942 0.83779 0.62462 0.0
O32 O 0.53084 0.79155 0.63729 0.0
Co33 Co 0.51545 0.8069 0.57611 0.0
O34 O 0.5504 0.80703 0.59749 0.0
C35 C 0.48573 0.75489 0.58364 0.0
C36 C 0.45474 0.77478 0.65832 0.0
C37 C 0.55191 0.79894 0.62288 0.0
O38 O 0.48831 0.75822 0.61022 0.0
O39 O 0.49278 0.7735 0.56597 0.0
O40 O 0.49051 0.82963 0.65034 0.0
O41 O 0.49087 0.81908 0.60547 0.0
Co42 Co 0.51418 0.25234 0.89234 0.0
O43 O 0.55245 0.26016 0.8972 0.0
O44 O 0.53359 0.23942 0.86012 0.0
C45 C 0.49916 0.29338 0.90685 0.0
O46 O 0.47614 0.24192 0.87896 0.0
Co47 Co 0.47378 0.25179 0.94238 0.0
O48 O 0.44543 0.25162 0.9123 0.0
C49 C 0.51738 0.21073 0.93787 0.0
C50 C 0.5555 0.2484 0.87289 0.0
C51 C 0.45142 0.24509 0.88716 0.0
O52 O 0.51927 0.21603 0.91156 0.0
O53 O 0.50225 0.22457 0.95448 0.0
O54 O 0.50762 0.29062 0.88114 0.0
O55 O 0.50223 0.27225 0.92292 0.0
Co56 Co 0.11043 0.01638 0.26774 0.0
O57 O 0.10462 0.97764 0.26084 0.0
O58 O 0.1393 0.00253 0.24421 0.0
C59 C 0.10191 0.01517 0.31391 0.0
O60 O 0.12388 0.05622 0.27111 0.0
Co61 Co 0.06356 0.05372 0.28917 0.0
O62 O 0.09334 0.08141 0.29482 0.0
C63 C 0.06177 0.03025 0.23221 0.0
C64 C 0.12667 0.97875 0.24577 0.0
C65 C 0.11674 0.07861 0.28357 0.0
O66 O 0.08738 0.02476 0.23401 0.0
O67 O 0.04795 0.03978 0.25272 0.0
O68 O 0.12602 0.00863 0.30473 0.0
O69 O 0.08369 0.01992 0.29498 0.0
Co70 Co 0.27108 0.88428 0.49279 0.0
O71 O 0.2324 0.87904 0.49819 0.0
O72 O 0.25686 0.915 0.51355 0.0
C73 C 0.27198 0.87302 0.44726 0.0
O74 O 0.31055 0.89788 0.49029 0.0
Co75 Co 0.30932 0.83624 0.47525 0.0
O76 O 0.33537 0.8667 0.46691 0.0
C77 C 0.28511 0.83771 0.53178 0.0
C78 C 0.23323 0.90257 0.51143 0.0
C79 C 0.3324 0.89071 0.47739 0.0
O80 O 0.27799 0.86302 0.52835 0.0
O81 O 0.29584 0.82311 0.51242 0.0
O82 O 0.26476 0.89778 0.45465 0.0
O83 O 0.27584 0.85567 0.46732 0.0
Co84 Co 0.38302 0.98546 0.75255 0.0
O85 O 0.38277 0.02505 0.74847 0.0
O86 O 0.35077 -0.00373 0.73215 0.0
C87 C 0.39413 0.9849 0.7981 0.0
O88 O 0.37484 0.94403 0.7539 0.0
Co89 Co 0.43485 0.95258 0.76949 0.0
O90 O 0.40846 0.92216 0.77683 0.0
C91 C 0.43132 0.98022 0.71441 0.0
C92 C 0.35956 0.02153 0.73545 0.0
C93 C 0.38446 0.92262 0.7664 0.0
O94 O 0.40527 0.98293 0.71712 0.0
O95 O 0.44669 0.97052 0.73374 0.0
O96 O 0.36885 0.98877 0.79066 0.0
O97 O 0.41174 0.98371 0.77813 0.0
Co98 Co 0.25045 0.12325 0.98998 0.0
O99 O 0.28945 0.12578 0.98664 0.0
O100 O 0.26721 0.09522 0.01296 0.0
C101 C 0.24077 0.12661 0.94413 0.0
O102 O 0.21045 0.11361 -0.00265 0.0
Co103 Co 0.21404 0.17257 0.97223 0.0
O104 O 0.18434 0.14436 0.97456 0.0
C105 C 0.2487 0.17688 0.02261 0.0
C106 C 0.29043 0.10507 0.00391 0.0
C107 C 0.18718 0.12169 0.98783 0.0
O108 O 0.2522 0.15054 0.02198 0.0
O109 O 0.23608 0.18996 0.00325 0.0
O110 O 0.24793 0.10289 0.95448 0.0
O111 O 0.24249 0.14745 0.96099 0.0
Co112 Co 0.75129 0.36337 0.0066 0.0
O113 O 0.71209 0.35977 0.01126 0.0
O114 O 0.73821 0.39338 0.02889 0.0
C115 C 0.75292 0.35476 0.96043 0.0
O116 O 0.79091 0.37611 0.00577 0.0
Co117 Co 0.78962 0.31654 0.98713 0.0
O118 O 0.81649 0.34703 0.98074 0.0
C119 C 0.76375 0.3143 0.04297 0.0
C120 C 0.71398 0.3826 0.02571 0.0
C121 C 0.81305 0.37024 0.99279 0.0
O122 O 0.75704 0.33988 0.04086 0.0
O123 O 0.77494 0.30085 0.02302 0.0
O124 O 0.74624 0.37922 0.9693 0.0
O125 O 0.75594 0.33607 0.97944 0.0
Co126 Co 0.86197 0.48461 0.25586 0.0
O127 O 0.86653 0.52307 0.24669 0.0
O128 O 0.8296 0.49746 0.23725 0.0
C129 C 0.87783 0.48808 0.29983 0.0
O130 O 0.84847 0.44542 0.26297 0.0
Co131 Co 0.90933 0.44577 0.27309 0.0
O132 O 0.87979 0.42068 0.28614 0.0
C133 C 0.90441 0.46685 0.21497 0.0
C134 C 0.84183 0.52144 0.23651 0.0
C135 C 0.85555 0.42397 0.27701 0.0
O136 O 0.87967 0.47451 0.21931 0.0
O137 O 0.91981 0.45699 0.23421 0.0
O138 O 0.85261 0.49454 0.29441 0.0
O139 O 0.89266 0.4815 0.27865 0.0
Co140 Co 0.76424 0.64562 0.5052 0.0
O141 O 0.80352 0.64647 0.50365 0.0
O142 O 0.7788 0.6158 0.52738 0.0
C143 C 0.75675 0.65129 0.45903 0.0
O144 O 0.72379 0.63695 0.51055 0.0
Co145 Co 0.72937 0.6961 0.48742 0.0
O146 O 0.69897 0.66854 0.48753 0.0
C147 C 0.76052 0.69762 0.54053 0.0
C148 C 0.80278 0.6246 0.51946 0.0
C149 C 0.70098 0.64559 0.50047 0.0
O150 O 0.76518 0.67151 0.5385 0.0
O151 O 0.74873 0.71149 0.52118 0.0
O152 O 0.76253 0.62693 0.46874 0.0
O153 O 0.7583 0.67134 0.47685 0.0
Co154 Co 0.63545 0.50707 0.7814 0.0
O155 O 0.6363 0.46828 0.77343 0.0
O156 O 0.66854 0.49874 0.76138 0.0
C157 C 0.62242 0.50366 0.82643 0.0
O158 O 0.64202 0.54823 0.78657 0.0
Co159 Co 0.58105 0.53563 0.79759 0.0
O160 O 0.60525 0.56786 0.806 0.0
C161 C 0.58981 0.51633 0.73973 0.0
C162 C 0.65945 0.47335 0.76107 0.0
C163 C 0.62994 0.56903 0.79756 0.0
O164 O 0.61538 0.51316 0.74504 0.0
O165 O 0.57235 0.52263 0.75855 0.0
O166 O 0.64806 0.50082 0.81997 0.0
O167 O 0.60575 0.50568 0.80554 0.0
Co168 Co 0.00937 0.76001 0.8849 0.0
O169 O 0.04797 0.75375 0.88728 0.0
O170 O 0.0208 0.73893 0.85281 0.0
C171 C 0.01403 0.80501 0.89562 0.0
O172 O 0.96962 0.76347 0.87372 0.0
Co173 Co 0.97485 0.78172 0.93425 0.0
O174 O 0.94446 0.78397 0.90676 0.0
C175 C 0.98879 0.72226 0.93111 0.0
C176 C 0.04538 0.74209 0.86287 0.0
C177 C 0.94692 0.7731 0.88258 0.0
O178 O 0.00033 0.72559 0.90704 0.0
O179 O 0.97959 0.74226 0.94579 0.0
O180 O 0.01713 0.79677 0.86993 0.0
O181 O 0.0088 0.7861 0.91398 0.0
Co182 Co -0.00013 0.26049 0.62437 0.0
O183 O 0.96098 0.25902 0.62326 0.0
O184 O 0.98607 0.24688 0.65996 0.0
C185 C 0.00089 0.30356 0.60679 0.0
O186 O 0.04056 0.26004 0.63303 0.0
Co187 Co 0.0329 0.26847 0.57003 0.0
O188 O 0.06405 0.27546 0.59567 0.0
C189 C 0.0137 0.21249 0.58655 0.0
C190 C 0.96199 0.25154 0.64929 0.0
C191 C 0.06298 0.2674 0.62104 0.0
O192 O 0.00234 0.22231 0.60861 0.0
O193 O 0.02578 0.2275 0.56814 0.0
O194 O -0.00155 0.29944 0.63353 0.0
O195 O 0.00215 0.28162 0.59131 0.0
Co196 Co 0.49882 0.29404 0.39029 0.0
O197 O 0.53676 0.29061 0.40061 0.0
O198 O 0.51766 0.27443 0.3614 0.0
C199 C 0.49742 0.33917 0.4013 0.0
O200 O 0.46182 0.29324 0.3711 0.0
Co201 Co 0.45364 0.31002 0.43102 0.0
O202 O 0.42731 0.30276 0.40008 0.0
C203 C 0.47629 0.2541 0.43334 0.0
C204 C 0.53947 0.27821 0.37663 0.0
C205 C 0.43625 0.29542 0.37625 0.0
O206 O 0.48962 0.25888 0.41061 0.0
O207 O 0.46279 0.27264 0.44624 0.0
O208 O 0.50577 0.33131 0.37678 0.0
O209 O 0.49038 0.31977 0.41858 0.0
Co210 Co 0.49915 0.75975 0.13193 0.0
O211 O 0.46067 0.75526 0.12618 0.0
O212 O 0.48164 0.75066 0.16717 0.0
C213 C 0.50006 0.79951 0.10767 0.0
O214 O 0.53835 0.76367 0.14596 0.0
Co215 Co 0.53961 0.76342 0.08235 0.0
O216 O 0.56537 0.77819 0.11082 0.0
C217 C 0.52027 0.70865 0.10342 0.0
C218 C 0.45882 0.75214 0.15308 0.0
C219 C 0.5614 0.77261 0.13656 0.0
O220 O 0.50585 0.72002 0.12267 0.0
O221 O 0.53377 0.72234 0.08498 0.0
O222 O 0.4941 0.79942 0.13414 0.0
O223 O 0.50499 0.77574 0.09653 0.0
Co224 Co 0.88398 0.0337 0.75915 0.0
O225 O 0.89309 0.06972 0.7452 0.0
O226 O 0.86082 0.04212 0.72757 0.0
C227 C 0.88233 0.04783 0.80375 0.0
O228 O 0.86808 -0.00412 0.7683 0.0
Co229 Co 0.92108 0.00364 0.80271 0.0
O230 O 0.89028 0.97663 0.80459 0.0
C231 C 0.93616 0.00571 0.74276 0.0
C232 C 0.87239 0.06652 0.72835 0.0
C233 C 0.87114 0.97646 0.78635 0.0
O234 O 0.91294 0.01598 0.73561 0.0
O235 O 0.94405 0.0022 0.76812 0.0
O236 O 0.86098 0.05061 0.78785 0.0
O237 O 0.90377 0.03773 0.79227 0.0
Co238 Co 0.79154 0.12345 0.50699 0.0
O239 O 0.82768 0.12275 0.52248 0.0
O240 O 0.7929 0.09623 0.53644 0.0
C241 C 0.80539 0.12246 0.4623 0.0
O242 O 0.7518 0.11793 0.49616 0.0
Co243 Co 0.77233 0.17093 0.4676 0.0
O244 O 0.73826 0.14841 0.46356 0.0
C245 C 0.77467 0.17914 0.52904 0.0
C246 C 0.81872 0.10277 0.53823 0.0
C247 C 0.7336 0.12784 0.47963 0.0
O248 O 0.78054 0.15358 0.5333 0.0
O249 O 0.7733 0.19035 0.50477 0.0
O250 O 0.8028 0.0995 0.47618 0.0
O251 O 0.80086 0.14491 0.47598 0.0
Co252 Co 0.61802 0.96619 0.25996 0.0
O253 O 0.62349 0.92772 0.25312 0.0
O254 O 0.64792 0.96208 0.23437 0.0
C255 C 0.61485 0.96205 0.30645 0.0
O256 O 0.61953 0.00767 0.26252 0.0
Co257 Co 0.56569 0.98884 0.28864 0.0
O258 O 0.58502 0.02533 0.28732 0.0
C259 C 0.56507 0.97428 0.22853 0.0
C260 C 0.6441 0.93569 0.23793 0.0
C261 C 0.60697 0.02819 0.27322 0.0
O262 O 0.59085 0.96926 0.2287 0.0
O263 O 0.55105 0.97937 0.25049 0.0
O264 O 0.63879 0.96355 0.29485 0.0
O265 O 0.59406 0.96135 0.28976 0.0
Co266 Co 0.73057 0.8632 0.01502 0.0
O267 O 0.69493 0.85647 0.02982 0.0
O268 O 0.72289 0.89003 0.04395 0.0
C269 C 0.71561 0.86097 0.97058 0.0
O270 O 0.7683 0.87698 0.00425 0.0
Co271 Co 0.75858 0.82112 0.97539 0.0
O272 O 0.78694 0.85041 0.97095 0.0
C273 C 0.75927 0.8128 0.03702 0.0
C274 C 0.69835 0.8792 0.04395 0.0
C275 C 0.78775 0.8713 0.98727 0.0
O276 O 0.74777 0.83623 0.0416 0.0
O277 O 0.76282 0.8024 0.01261 0.0
O278 O 0.71433 0.88405 0.9843 0.0
O279 O 0.72518 0.84004 0.98399 0.0
Co280 Co 0.26366 0.61556 0.9904 0.0
O281 O 0.30239 0.6127 0.99182 0.0
O282 O 0.27356 0.58571 0.01552 0.0
C283 C 0.26292 0.61868 0.94364 0.0
O284 O 0.22231 0.61261 0.99304 0.0
Co285 Co 0.23771 0.66831 0.96425 0.0
O286 O 0.20298 0.64743 0.9691 0.0
C287 C 0.2581 0.66899 0.02283 0.0
C288 C 0.29858 0.59172 0.00821 0.0
C289 C 0.20124 0.62548 0.98382 0.0
O290 O 0.26377 0.64308 0.02188 0.0
O291 O 0.25003 0.68287 0.00154 0.0
O292 O 0.2631 0.59445 0.95531 0.0
O293 O 0.26432 0.63968 0.9602 0.0
Co294 Co 0.1352 0.48106 0.76378 0.0
O295 O 0.13999 0.44242 0.7694 0.0
O296 O 0.16789 0.46951 0.74466 0.0
C297 C 0.12645 0.48861 0.80916 0.0
O298 O 0.13718 0.52179 0.75421 0.0
Co299 Co 0.0802 0.50896 0.77779 0.0
O300 O 0.09922 0.54386 0.76739 0.0
C301 C 0.08672 0.47874 0.72426 0.0
C302 C 0.16247 0.44531 0.75538 0.0
C303 C 0.12283 0.54375 0.75621 0.0
O304 O 0.11217 0.47448 0.72943 0.0
O305 O 0.0704 0.4895 0.74202 0.0
O306 O 0.15156 0.48823 0.80052 0.0
O307 O 0.10774 0.48371 0.79063 0.0
Co308 Co 0.25508 0.37915 0.48979 0.0
O309 O 0.21612 0.37502 0.48993 0.0
O310 O 0.23911 0.40892 0.51109 0.0
C311 C 0.25816 0.37219 0.44346 0.0
O312 O 0.29491 0.39069 0.49347 0.0
Co313 Co 0.29216 0.33149 0.47129 0.0
O314 O 0.32225 0.35902 0.47427 0.0
C315 C 0.27171 0.33304 0.52942 0.0
C316 C 0.21563 0.39809 0.50377 0.0
C317 C 0.31867 0.3821 0.4865 0.0
O318 O 0.25888 0.35556 0.52415 0.0
O319 O 0.28491 0.31957 0.51087 0.0
O320 O 0.25315 0.39663 0.45322 0.0
O321 O 0.26 0.35246 0.46164 0.0
Co322 Co 0.35193 0.52882 0.28026 0.0
O323 O 0.3564 0.56765 0.27373 0.0
O324 O 0.32186 0.54213 0.25753 0.0
C325 C 0.36113 0.53317 0.32615 0.0
O326 O 0.34014 0.48849 0.28309 0.0
Co327 Co 0.39861 0.49319 0.30492 0.0
O328 O 0.36988 0.46434 0.30904 0.0
C329 C 0.3967 0.50569 0.24385 0.0
C330 C 0.33309 0.56651 0.26072 0.0
C331 C 0.34768 0.46606 0.29514 0.0
O332 O 0.37434 0.51931 0.24644 0.0
O333 O 0.40982 0.49542 0.26461 0.0
O334 O 0.33641 0.53691 0.31706 0.0
O335 O 0.37931 0.52755 0.30762 0.0
O336 O 0.96594 0.06597 0.01451 0.0
Zn337 Zn 0.98196 0.03714 0.99062 0.0
O338 O 0.98151 0.00288 0.01134 0.0
Zn339 Zn 0.01818 0.99043 0.01927 0.0
Zn340 Zn 0.95863 0.00512 0.04453 0.0
Zn341 Zn 0.96513 0.976 0.98781 0.0
O342 O 0.02722 0.95495 -0.00143 0.0
O343 O 0.99238 0.95327 0.96865 0.0
O344 O 0.02061 0.04958 0.98232 0.0
O345 O 0.04517 0.01966 0.00696 0.0
O346 O 0.02255 0.98569 0.06073 0.0
O347 O 0.98133 0.9947 0.078 0.0
O348 O 0.92459 0.9804 0.04037 0.0
O349 O 0.9575 0.036 0.95658 0.0
O350 O 0.94044 0.95122 0.0087 0.0
O351 O 0.94149 0.99309 0.95937 0.0
C352 C 0.95276 0.06657 0.03739 0.0
C353 C 0.01554 0.94485 0.97685 0.0
C354 C 0.00634 0.98826 0.0814 0.0
C355 C 0.04352 0.04131 0.99183 0.0
C356 C 0.92204 0.95829 0.02587 0.0
C357 C 0.94107 0.01697 0.94846 0.0
O358 O 0.94783 0.04476 0.05156 0.0
O359 O 0.22139 0.74322 0.17892 0.0
Zn360 Zn 0.2246 0.74799 0.2203 0.0
O361 O 0.24191 0.78363 0.2277 0.0
Zn362 Zn 0.27365 0.77869 0.25123 0.0
Zn363 Zn 0.25103 0.80463 0.1942 0.0
Zn364 Zn 0.21665 0.8057 0.24698 0.0
O365 O 0.27346 0.80455 0.28436 0.0
O366 O 0.23483 0.8272 0.27735 0.0
O367 O 0.24898 0.71747 0.23363 0.0
O368 O 0.27793 0.73891 0.26259 0.0
O369 O 0.30693 0.78616 0.22859 0.0
O370 O 0.29215 0.80643 0.1897 0.0
O371 O 0.23314 0.84285 0.19343 0.0
O372 O 0.18837 0.74286 0.24083 0.0
O373 O 0.19887 0.83267 0.22202 0.0
O374 O 0.18841 0.78237 0.26461 0.0
C375 C 0.22791 0.75833 0.15805 0.0
C376 C 0.25695 0.82369 0.29088 0.0
C377 C 0.31152 0.79693 0.20474 0.0
C378 C 0.2684 0.7168 0.25147 0.0
C379 C 0.20995 0.84853 0.20403 0.0
C380 C 0.17846 0.75848 0.25968 0.0
O381 O 0.23828 0.78247 0.16101 0.0
O382 O 0.52467 0.97072 0.52796 0.0
Zn383 Zn 0.51145 -0.0035 0.49939 0.0
O384 O 0.51806 0.03399 0.51123 0.0
Zn385 Zn 0.483 0.05201 0.51708 0.0
Zn386 Zn 0.5406 0.03473 0.54546 0.0
Zn387 Zn 0.5371 0.05225 0.48142 0.0
O388 O 0.482 0.08882 0.49697 0.0
O389 O 0.51578 0.08347 0.46639 0.0
O390 O 0.47213 0.9891 0.49319 0.0
O391 O 0.4511 0.02819 0.50334 0.0
O392 O 0.47695 0.05564 0.55845 0.0
O393 O 0.51804 0.04892 0.57735 0.0
O394 O 0.57682 0.05576 0.53983 0.0
O395 O 0.53048 0.98652 0.46438 0.0
O396 O 0.57213 0.06758 0.49514 0.0
O397 O 0.54776 0.02681 0.45065 0.0
C398 C 0.5397 0.97268 0.54963 0.0
C399 C 0.49557 0.09695 0.47565 0.0
C400 C 0.49257 0.05374 0.57978 0.0
C401 C 0.45045 0.00315 0.49503 0.0
C402 C 0.58597 0.06749 0.51771 0.0
C403 C 0.54421 0.00098 0.44721 0.0
O404 O 0.54866 -0.00416 0.55871 0.0
O405 O 0.23623 0.22151 0.80357 0.0
Zn406 Zn 0.25827 0.24752 0.78043 0.0
O407 O 0.26137 0.23317 0.74262 0.0
Zn408 Zn 0.29946 0.23107 0.73024 0.0
Zn409 Zn 0.24125 0.19766 0.73839 0.0
Zn410 Zn 0.24464 0.26019 0.72029 0.0
O411 O 0.30736 0.25248 0.69355 0.0
O412 O 0.26566 0.26863 0.68751 0.0
O413 O 0.29546 0.24981 0.79713 0.0
O414 O 0.3248 0.24215 0.76246 0.0
O415 O 0.30691 0.19147 0.72226 0.0
O416 O 0.26736 0.1682 0.72399 0.0
O417 O 0.20648 0.20199 0.71398 0.0
O418 O 0.2424 0.28586 0.78366 0.0
O419 O 0.2094 0.24726 0.70683 0.0
O420 O 0.23931 0.29589 0.73865 0.0
C421 C 0.22683 0.19709 0.80002 0.0
C422 C 0.28994 0.26589 0.67915 0.0
C423 C 0.29318 0.16903 0.71986 0.0
C424 C 0.31979 0.24799 0.78806 0.0
C425 C 0.19672 0.22441 0.70417 0.0
C426 C 0.23776 0.30302 0.7641 0.0
O427 O 0.22867 0.18452 0.77661 0.0
O428 O 0.00981 0.00492 0.47003 0.0
Zn429 Zn 0.99186 0.98561 0.50277 0.0
O430 O 0.01653 0.98411 0.53465 0.0
Zn431 Zn 0.02093 0.94659 0.54821 0.0
Zn432 Zn 0.05116 0.00177 0.52555 0.0
Zn433 Zn 0.00122 0.00426 0.56458 0.0
O434 O 0.00665 0.94139 0.58786 0.0
O435 O 0.00626 0.98552 0.60054 0.0
O436 O 0.98378 0.94733 0.48924 0.0
O437 O 0.00108 0.92036 0.52254 0.0
O438 O 0.06108 0.93741 0.54758 0.0
O439 O 0.08208 0.97716 0.53682 0.0
O440 O 0.05484 0.04069 0.54154 0.0
O441 O 0.95558 0.00213 0.51341 0.0
O442 O 0.01747 0.04112 0.56745 0.0
O443 O 0.9615 0.01032 0.55892 0.0
C444 C 0.03512 0.00926 0.46507 0.0
C445 C 0.00504 0.96002 0.60664 0.0
C446 C 0.08286 0.95167 0.54364 0.0
C447 C 0.98791 0.92356 0.49969 0.0
C448 C 0.03846 0.05326 0.55771 0.0
C449 C 0.94642 0.00974 0.53716 0.0
O450 O 0.05323 0.00653 0.48408 0.0
O451 O 0.31015 0.72823 0.73187 0.0
Zn452 Zn 0.27977 0.73765 0.75737 0.0
O453 O 0.24508 0.73385 0.73779 0.0
Zn454 Zn 0.22704 0.76998 0.73499 0.0
Zn455 Zn 0.25069 0.71605 0.70134 0.0
Zn456 Zn 0.22244 0.70965 0.75904 0.0
O457 O 0.19061 0.77054 0.75616 0.0
O458 O 0.19105 0.72857 0.77511 0.0
O459 O 0.28723 0.77701 0.76805 0.0
O460 O 0.25179 0.79985 0.75097 0.0
O461 O 0.22323 0.78057 0.69403 0.0
O462 O 0.24039 0.74368 0.67274 0.0
O463 O 0.22851 0.68028 0.69516 0.0
O464 O 0.28269 0.71272 0.7907 0.0
O465 O 0.20638 0.68086 0.73558 0.0
O466 O 0.24266 0.69077 0.78929 0.0
C467 C 0.31205 0.71749 0.70764 0.0
C468 C 0.17994 0.75187 0.77172 0.0
C469 C 0.23074 0.76799 0.67188 0.0
C470 C 0.27497 0.79959 0.76326 0.0
C471 C 0.21031 0.67055 0.71156 0.0
C472 C 0.26629 0.69428 0.79991 0.0
O473 O 0.29085 0.71033 0.69367 0.0
O474 O 0.53748 0.02985 0.06159 0.0
Zn475 Zn 0.5395 0.01927 0.0214 0.0
O476 O 0.50393 0.00597 0.0084 0.0
Zn477 Zn 0.50815 0.9701 0.99091 0.0
Zn478 Zn 0.47734 0.00439 0.03869 0.0
Zn479 Zn 0.49027 0.03067 0.9809 0.0
O480 O 0.4931 0.968 0.95149 0.0
O481 O 0.47507 0.00984 0.94864 0.0
O482 O 0.56674 0.98849 0.02096 0.0
O483 O 0.54653 0.95636 -0.00547 0.0
O484 O 0.4877 0.94258 0.01332 0.0
O485 O 0.46587 0.96516 0.04672 0.0
O486 O 0.44457 0.02844 0.03151 0.0
O487 O 0.55343 0.05158 -0.00124 0.0
O488 O 0.45928 0.05317 -0.00471 0.0
O489 O 0.51988 0.05562 0.96744 0.0
C490 C 0.51923 0.02627 0.08018 0.0
C491 C 0.47841 0.98568 0.9389 0.0
C492 C 0.47248 0.94267 0.03483 0.0
C493 C 0.56679 0.96485 0.00922 0.0
C494 C 0.44166 0.04832 0.01427 0.0
C495 C 0.54341 0.06245 0.97676 0.0
O496 O 0.4956 0.01671 0.07403 0.0
O497 O 0.19385 0.27092 0.22661 0.0
Zn498 Zn 0.22277 0.26028 0.25422 0.0
O499 O 0.25787 0.26315 0.23686 0.0
Zn500 Zn 0.27693 0.22825 0.23471 0.0
Zn501 Zn 0.25607 0.28412 0.20226 0.0
Zn502 Zn 0.27952 0.2864 0.25942 0.0
O503 O 0.31099 0.22763 0.26054 0.0
O504 O 0.30272 0.26573 0.28492 0.0
O505 O 0.21549 0.22081 0.26405 0.0
O506 O 0.25073 0.19753 0.24697 0.0
O507 O 0.28632 0.22235 0.19393 0.0
O508 O 0.27527 0.2619 0.17272 0.0
O509 O 0.27126 0.32357 0.2085 0.0
O510 O 0.22032 0.28457 0.2885 0.0
O511 O 0.30401 0.30897 0.23601 0.0
O512 O 0.25735 0.31089 0.2831 0.0
C513 C 0.19433 0.28065 0.20181 0.0
C514 C 0.31581 0.24362 0.28137 0.0
C515 C 0.28473 0.23737 0.17194 0.0
C516 C 0.22746 0.19809 0.25901 0.0
C517 C 0.29279 0.32853 0.22288 0.0
C518 C 0.23505 0.30538 0.29557 0.0
O519 O 0.21681 0.28669 0.18971 0.0
O520 O 0.51444 0.49758 0.96955 0.0
Zn521 Zn 0.48956 0.48332 -0.00069 0.0
O522 O 0.50711 0.48497 0.03592 0.0
Zn523 Zn 0.50655 0.4487 0.05475 0.0
Zn524 Zn 0.54456 0.4995 0.03219 0.0
Zn525 Zn 0.48617 0.51006 0.05763 0.0
O526 O 0.48722 0.44938 0.09302 0.0
O527 O 0.47435 0.49315 0.09226 0.0
O528 O 0.48129 0.44422 0.9899 0.0
O529 O 0.48811 0.42068 0.02932 0.0
O530 O 0.54537 0.43531 0.05915 0.0
O531 O 0.57118 0.47131 0.04621 0.0
O532 O 0.54975 0.53645 0.0521 0.0
O533 O 0.45393 0.50357 -0.00295 0.0
O534 O 0.50762 0.54307 0.06761 0.0
O535 O 0.45164 0.52159 0.0396 0.0
C536 C 0.53955 0.50473 0.96907 0.0
C537 C 0.47504 0.4698 0.10413 0.0
C538 C 0.56876 0.44655 0.05514 0.0
C539 C 0.48056 0.42175 0.0037 0.0
C540 C 0.53227 0.55107 0.06496 0.0
C541 C 0.44138 0.51743 0.0155 0.0
O542 O 0.55396 0.50562 0.99138 0.0
O543 O 0.80138 0.21419 0.25029 0.0
Zn544 Zn 0.7731 0.22244 0.27841 0.0
O545 O 0.73782 0.22175 0.26024 0.0
Zn546 Zn 0.72411 0.25879 0.25528 0.0
Zn547 Zn 0.73997 0.20194 0.22459 0.0
Zn548 Zn 0.71334 0.20313 0.28498 0.0
O549 O 0.68727 0.26359 0.2734 0.0
O550 O 0.68667 0.22816 0.30299 0.0
O551 O 0.78237 0.26025 0.293 0.0
O552 O 0.75039 0.28588 0.2729 0.0
O553 O 0.72169 0.26805 0.2144 0.0
O554 O 0.72905 0.22766 0.19361 0.0
O555 O 0.71487 0.16765 0.22442 0.0
O556 O 0.77604 0.19398 0.30869 0.0
O557 O 0.69198 0.17582 0.26365 0.0
O558 O 0.73277 0.18103 0.31379 0.0
C559 C 0.80165 0.2024 0.22647 0.0
C560 C 0.67662 0.25056 0.2939 0.0
C561 C 0.7238 0.25338 0.19235 0.0
C562 C 0.77205 0.28372 0.28765 0.0
C563 C 0.6953 0.16208 0.24127 0.0
C564 C 0.75784 0.17897 0.32035 0.0
O565 O 0.77959 0.19404 0.21462 0.0
O566 O 0.03904 0.51432 0.55852 0.0
Zn567 Zn 0.03954 0.51587 0.51673 0.0
O568 O 0.00454 0.50352 0.50193 0.0
Zn569 Zn 0.00908 0.47024 0.47988 0.0
Zn570 Zn 0.97753 0.49859 0.53141 0.0
Zn571 Zn 0.99145 0.53129 0.47755 0.0
O572 O 0.99056 0.4724 0.44229 0.0
O573 O 0.9733 0.51459 0.44427 0.0
O574 O 0.06877 0.4896 0.50577 0.0
O575 O 0.04867 0.45932 0.47713 0.0
O576 O 0.99069 0.43961 0.50004 0.0
O577 O 0.96442 0.45903 0.53238 0.0
O578 O 0.9466 0.52627 0.52893 0.0
O579 O 0.05045 0.55357 0.5019 0.0
O580 O 0.96311 0.55428 0.49609 0.0
O581 O 0.02205 0.55566 0.4654 0.0
C582 C 0.02045 0.50844 0.5762 0.0
C583 C 0.97547 0.49127 0.43227 0.0
C584 C 0.97316 0.43778 0.51956 0.0
C585 C 0.06985 0.46846 0.48997 0.0
C586 C 0.9455 0.54867 0.51487 0.0
C587 C 0.04308 0.56428 0.47869 0.0
O588 O 0.99597 0.50306 0.56868 0.0
O589 O 0.74136 0.74171 0.3087 0.0
Zn590 Zn 0.76419 0.76259 0.28091 0.0
O591 O 0.76656 0.74165 0.24677 0.0
Zn592 Zn 0.80415 0.73519 0.23672 0.0
Zn593 Zn 0.7439 0.70815 0.24858 0.0
Zn594 Zn 0.75313 0.76366 0.2176 0.0
O595 O 0.81633 0.75562 0.20138 0.0
O596 O 0.77465 0.76001 0.18356 0.0
O597 O 0.80122 0.76553 0.29897 0.0
O598 O 0.82883 0.74412 0.26932 0.0
O599 O 0.80706 0.69513 0.22818 0.0
O600 O 0.76547 0.67619 0.23236 0.0
O601 O 0.7064 0.71358 0.22936 0.0
O602 O 0.74953 0.80081 0.27413 0.0
O603 O 0.71537 0.75377 0.20906 0.0
O604 O 0.75167 0.80318 0.22775 0.0
C605 C 0.7346 0.71622 0.31031 0.0
C606 C 0.80039 0.76018 0.18077 0.0
C607 C 0.79084 0.67438 0.22631 0.0
C608 C 0.82471 0.75646 0.29253 0.0
C609 C 0.69884 0.73422 0.21468 0.0
C610 C 0.74746 0.81445 0.25137 0.0
O611 O 0.73674 0.69993 0.28939 0.0
O612 O 0.71738 0.22858 0.69225 0.0
Zn613 Zn 0.72742 0.22882 0.7329 0.0
O614 O 0.74905 0.26195 0.74188 0.0
Zn615 Zn 0.78255 0.25226 0.76143 0.0
Zn616 Zn 0.7565 0.28433 0.70892 0.0
Zn617 Zn 0.72829 0.28395 0.76626 0.0
O618 O 0.78403 0.26767 0.80131 0.0
O619 O 0.75068 0.29823 0.79766 0.0
O620 O 0.75102 0.19543 0.73685 0.0
O621 O 0.78834 0.21126 0.75872 0.0
O622 O 0.81471 0.26704 0.74037 0.0
O623 O 0.79699 0.28856 0.70352 0.0
O624 O 0.73776 0.32165 0.70913 0.0
O625 O 0.69382 0.22416 0.75731 0.0
O626 O 0.7118 0.3156 0.74676 0.0
O627 O 0.69834 0.26221 0.783 0.0
C628 C 0.72709 0.2424 0.67179 0.0
C629 C 0.77092 0.28829 0.81086 0.0
C630 C 0.81757 0.28022 0.71748 0.0
C631 C 0.77473 0.19168 0.74712 0.0
C632 C 0.71853 0.32931 0.72516 0.0
C633 C 0.68616 0.23953 0.77742 0.0
O634 O 0.74277 0.26329 0.67569 0.0
O635 O 0.68111 0.77869 0.74384 0.0
Zn636 Zn 0.70696 0.76597 0.7727 0.0
O637 O 0.74369 0.77611 0.76151 0.0
Zn638 Zn 0.76672 0.74338 0.75902 0.0
Zn639 Zn 0.74416 0.798 0.7268 0.0
Zn640 Zn 0.75734 0.79847 0.79109 0.0
O641 O 0.79995 0.74683 0.78494 0.0
O642 O 0.78488 0.77918 0.81395 0.0
O643 O 0.70344 0.7254 0.77711 0.0
O644 O 0.74504 0.70893 0.76998 0.0
O645 O 0.7779 0.73773 0.7188 0.0
O646 O 0.76193 0.77494 0.697 0.0
O647 O 0.76549 0.83498 0.73134 0.0
O648 O 0.69436 0.78312 0.80877 0.0
O649 O 0.77555 0.83128 0.77645 0.0
O650 O 0.72885 0.81217 0.8162 0.0
C651 C 0.68235 0.79413 0.72232 0.0
C652 C 0.80207 0.76077 0.80762 0.0
C653 C 0.77413 0.75176 0.6965 0.0
C654 C 0.7199 0.70529 0.77614 0.0
C655 C 0.77725 0.84426 0.75347 0.0
C656 C 0.70513 0.80324 0.8221 0.0
O657 O 0.70499 0.80415 0.7134 0.0
O658 O 0.47685 0.59779 0.52674 0.0
Zn659 Zn 0.4931 0.56949 0.50247 0.0
O660 O 0.49111 0.53541 0.52271 0.0
Zn661 Zn 0.52657 0.51988 0.53019 0.0
Zn662 Zn 0.46708 0.53664 0.55497 0.0
Zn663 Zn 0.47438 0.51095 0.49771 0.0
O664 O 0.53134 0.48357 0.5087 0.0
O665 O 0.50128 0.49127 0.47487 0.0
O666 O 0.5323 0.58021 0.49597 0.0
O667 O 0.55568 0.54746 0.51807 0.0
O668 O 0.53005 0.51365 0.57184 0.0
O669 O 0.48892 0.52431 0.58838 0.0
O670 O 0.43403 0.51037 0.54986 0.0
O671 O 0.47059 0.56969 0.46675 0.0
O672 O 0.45284 0.48324 0.51808 0.0
O673 O 0.44881 0.52971 0.4723 0.0
C674 C 0.46252 0.59845 0.54892 0.0
C675 C 0.52097 0.4775 0.48481 0.0
C676 C 0.51339 0.51621 0.59218 0.0
C677 C 0.55488 0.57006 0.50427 0.0
C678 C 0.43411 0.48791 0.53572 0.0
C679 C 0.4515 0.5528 0.45997 0.0
O680 O 0.45613 0.57648 0.56235 0.0
O681 O 0.01779 0.442 0.02613 0.0
Zn682 Zn 0.0075 0.46744 -0.00467 0.0
O683 O 0.00606 0.50479 0.01008 0.0
Zn684 Zn 0.96864 0.51829 0.011 0.0
Zn685 Zn 0.02371 0.50671 0.04702 0.0
Zn686 Zn 0.02584 0.52791 0.9851 0.0
O687 O 0.96473 0.55473 0.98985 0.0
O688 O 0.0025 0.55371 0.96425 0.0
O689 O 0.97044 0.45477 0.98269 0.0
O690 O 0.94309 0.48918 -0.00533 0.0
O691 O 0.95706 0.52252 0.05111 0.0
O692 O 0.99617 0.51931 0.07492 0.0
O693 O 0.05811 0.53123 0.0474 0.0
O694 O 0.03419 0.46301 0.96366 0.0
O695 O 0.05324 0.55018 0.00536 0.0
O696 O 0.04702 0.50669 0.95785 0.0
C697 C 0.02713 0.4447 0.05093 0.0
C698 C 0.97957 0.56418 0.97002 0.0
C699 C 0.97036 0.52261 0.07411 0.0
C700 C 0.94672 0.46511 0.98444 0.0
C701 C 0.06553 0.54867 0.02878 0.0
C702 C 0.04872 0.48133 0.95147 0.0
O703 O 0.03195 0.46846 0.06152 0.0
H704 H 0.95762 0.19258 0.05647 0.0
H705 H 0.98453 0.16631 0.13835 0.0
H706 H 0.97147 0.11842 0.1271 0.0
H707 H 0.95925 0.08361 0.09106 0.0
H708 H 0.93437 0.1107 0.00875 0.0
H709 H 0.93883 0.15892 0.02336 0.0
C710 C 0.9604 0.17637 0.07192 0.0
C711 C 0.97268 0.1826 0.09781 0.0
C712 C 0.95298 0.14916 0.06528 0.0
C713 C 0.97545 0.16174 0.11807 0.0
C714 C 0.96799 0.13445 0.11166 0.0
C715 C 0.95383 0.10013 0.07676 0.0
C716 C 0.94672 0.09389 0.04889 0.0
C717 C 0.9576 0.1278 0.08496 0.0
C718 C 0.94 0.11527 0.0303 0.0
C719 C 0.94281 0.14276 0.03854 0.0
H720 H 0.06771 0.72654 0.3184 0.0
H721 H 0.10771 0.77111 0.38599 0.0
H722 H 0.14929 0.77501 0.3584 0.0
H723 H 0.17263 0.7699 0.31394 0.0
H724 H 0.13378 0.72614 0.24544 0.0
H725 H 0.09334 0.71729 0.27475 0.0
C726 C 0.08565 0.7368 0.32718 0.0
C727 C 0.08453 0.74888 0.35403 0.0
C728 C 0.10953 0.73919 0.31106 0.0
C729 C 0.10796 0.76188 0.36528 0.0
C730 C 0.13174 0.76415 0.34953 0.0
C731 C 0.15537 0.75821 0.30548 0.0
C732 C 0.15579 0.74907 0.27755 0.0
C733 C 0.13246 0.75355 0.32221 0.0
C734 C 0.13372 0.73342 0.26693 0.0
C735 C 0.11063 0.72854 0.28361 0.0
H736 H 0.52564 0.85094 0.58049 0.0
H737 H 0.48876 0.88607 0.65407 0.0
H738 H 0.50522 0.93225 0.64011 0.0
H739 H 0.52476 0.96267 0.60313 0.0
H740 H 0.56131 0.92578 0.53022 0.0
H741 H 0.55176 0.87965 0.54865 0.0
C742 C 0.52157 0.8685 0.59381 0.0
C743 C 0.50564 0.86526 0.61795 0.0
C744 C 0.53154 0.8945 0.586 0.0
C745 C 0.50076 0.88826 0.63514 0.0
C746 C 0.51024 0.91456 0.62723 0.0
C747 C 0.5317 0.94446 0.59205 0.0
C748 C 0.54377 0.94728 0.56551 0.0
C749 C 0.52508 0.91799 0.60227 0.0
C750 C 0.55221 0.92379 0.55082 0.0
C751 C 0.54637 0.89752 0.56113 0.0
H752 H 0.39931 0.26326 0.89121 0.0
H753 H 0.45432 0.22148 0.83517 0.0
H754 H 0.41896 0.21995 0.79892 0.0
H755 H 0.3723 0.23043 0.7831 0.0
H756 H 0.31762 0.27231 0.83942 0.0
H757 H 0.35311 0.2741 0.87536 0.0
C758 C 0.40351 0.25358 0.87117 0.0
C759 C 0.42937 0.2424 0.86601 0.0
C760 C 0.38325 0.25305 0.85029 0.0
C761 C 0.43456 0.23025 0.83975 0.0
C762 C 0.41438 0.22942 0.81894 0.0
C763 C 0.36827 0.24022 0.80312 0.0
C764 C 0.34237 0.2512 0.80853 0.0
C765 C 0.38869 0.2409 0.82392 0.0
C766 C 0.33738 0.26359 0.83471 0.0
C767 C 0.35762 0.26457 0.85535 0.0
H768 H 0.97865 0.80454 0.45277 0.0
H769 H 0.00475 0.84637 0.37745 0.0
H770 H 0.99627 0.89122 0.3997 0.0
H771 H 0.99007 0.91766 0.44347 0.0
H772 H 0.96961 0.8744 0.51982 0.0
H773 H 0.96687 0.83071 0.49417 0.0
C774 C 0.98205 0.82343 0.44098 0.0
C775 C 0.99292 0.82233 0.41383 0.0
C776 C 0.97836 0.84878 0.45426 0.0
C777 C 0.99663 0.84685 0.39854 0.0
C778 C 0.99196 0.87242 0.41132 0.0
C779 C 0.98426 0.89872 0.45423 0.0
C780 C 0.98031 0.89893 0.48342 0.0
C781 C 0.98412 0.87357 0.43962 0.0
C782 C 0.97299 0.87445 0.49737 0.0
C783 C 0.9715 0.84956 0.48276 0.0
H784 H 0.4098 0.75444 0.63274 0.0
H785 H 0.44929 0.76118 0.71352 0.0
H786 H 0.40948 0.73922 0.73583 0.0
H787 H 0.36175 0.7231 0.73259 0.0
H788 H 0.32261 0.71619 0.65145 0.0
H789 H 0.36453 0.73222 0.62881 0.0
C790 C 0.40964 0.75101 0.65524 0.0
C791 C 0.43189 0.76001 0.67172 0.0
C792 C 0.38699 0.73807 0.66769 0.0
C793 C 0.43206 0.75472 0.70062 0.0
C794 C 0.4094 0.74215 0.71329 0.0
C795 C 0.36258 0.7245 0.70989 0.0
C796 C 0.33896 0.71892 0.69377 0.0
C797 C 0.38651 0.73437 0.69709 0.0
C798 C 0.34046 0.72038 0.66437 0.0
C799 C 0.36433 0.72989 0.65143 0.0
H800 H 0.53845 0.1678 0.9088 0.0
H801 H 0.5299 0.20045 0.99259 0.0
H802 H 0.54746 0.15764 0.01222 0.0
H803 H 0.55464 0.10818 0.0058 0.0
H804 H 0.55577 0.07376 0.92252 0.0
H805 H 0.55332 0.12012 0.90226 0.0
C806 C 0.54095 0.16574 0.93132 0.0
C807 C 0.53208 0.18682 0.94927 0.0
C808 C 0.55002 0.1407 0.94249 0.0
C809 C 0.53582 0.18411 0.97838 0.0
C810 C 0.54602 0.15971 0.98962 0.0
C811 C 0.55576 0.11108 0.98325 0.0
C812 C 0.55528 0.08795 0.96555 0.0
C813 C 0.55176 0.1374 0.97194 0.0
C814 C 0.55626 0.09154 0.93638 0.0
C815 C 0.55435 0.11795 0.92487 0.0
H816 H 0.09535 0.28327 0.11684 0.0
H817 H 0.05209 0.25717 0.19131 0.0
H818 H 0.09409 0.26121 0.21867 0.0
H819 H 0.14322 0.27005 0.22116 0.0
H820 H 0.18697 0.29561 0.14687 0.0
H821 H 0.14443 0.29419 0.11986 0.0
C822 C 0.09506 0.27847 0.13906 0.0
C823 C 0.07059 0.26968 0.15189 0.0
C824 C 0.11932 0.28081 0.15475 0.0
C825 C 0.07061 0.26386 0.18079 0.0
C826 C 0.09463 0.26617 0.19651 0.0
C827 C 0.14351 0.27554 0.19911 0.0
C828 C 0.16832 0.28275 0.18606 0.0
C829 C 0.11911 0.27436 0.18365 0.0
C830 C 0.16818 0.28995 0.15748 0.0
C831 C 0.14388 0.28903 0.14197 0.0
H832 H 0.07966 -0.00146 0.18918 0.0
H833 H 0.01093 0.04701 0.21614 0.0
H834 H 0.9863 0.03507 0.17315 0.0
H835 H 0.98518 0.01292 0.12715 0.0
H836 H 0.05441 0.96587 0.09921 0.0
H837 H 0.07771 0.97467 0.14386 0.0
C838 C 0.05936 0.00665 0.1856 0.0
C839 C 0.0473 0.02391 0.2057 0.0
C840 C 0.04526 -0.00035 0.16092 0.0
C841 C 0.02078 0.03382 0.20094 0.0
C842 C 0.00661 0.02693 0.17643 0.0
C843 C 0.00512 0.00407 0.13101 0.0
C844 C 0.01805 0.98875 0.10993 0.0
C845 C 0.01872 0.00998 0.15624 0.0
C846 C 0.04404 0.97773 0.11515 0.0
C847 C 0.05744 0.98293 0.14056 0.0
H848 H 0.24953 0.8952 0.40037 0.0
H849 H 0.30488 0.83223 0.42886 0.0
H850 H 0.30846 0.81413 0.38154 0.0
H851 H 0.29145 0.8123 0.33358 0.0
H852 H 0.23296 0.87239 0.30525 0.0
H853 H 0.23528 0.89566 0.3507 0.0
C854 C 0.26273 0.87786 0.39601 0.0
C855 C 0.27672 0.86494 0.41802 0.0
C856 C 0.26394 0.86684 0.3688 0.0
C857 C 0.29367 0.84239 0.41229 0.0
C858 C 0.29575 0.83197 0.38521 0.0
C859 C 0.27962 0.83081 0.33714 0.0
C860 C 0.26186 0.84041 0.31628 0.0
C861 C 0.2803 0.84346 0.36352 0.0
C862 C 0.24659 0.8644 0.32119 0.0
C863 C 0.24785 0.8777 0.34716 0.0
H864 H 0.41389 0.02039 0.67845 0.0
H865 H 0.48035 0.96433 0.69412 0.0
H866 H 0.50675 0.98563 0.65666 0.0
H867 H 0.51094 0.01922 0.6193 0.0
H868 H 0.444 0.07336 0.60005 0.0
H869 H 0.41815 0.05446 0.63984 0.0
C870 C 0.43397 0.01261 0.67334 0.0
C871 C 0.44509 0.99076 0.68902 0.0
C872 C 0.44925 0.0251 0.65174 0.0
C873 C 0.47131 0.98113 0.68242 0.0
C874 C 0.48653 0.99342 0.66113 0.0
C875 C 0.491 0.02752 0.6242 0.0
C876 C 0.47961 0.04807 0.6071 0.0
C877 C 0.47582 0.01553 0.64589 0.0
C878 C 0.45337 0.05788 0.61325 0.0
C879 C 0.43847 0.04679 0.63571 0.0
H880 H 0.20912 0.16701 0.92409 0.0
H881 H 0.25324 0.09464 0.89865 0.0
H882 H 0.24722 0.10743 0.84925 0.0
H883 H 0.23725 0.14412 0.81468 0.0
H884 H 0.19607 0.21779 0.84176 0.0
H885 H 0.19232 0.19925 0.88916 0.0
C886 C 0.21696 0.15374 0.90773 0.0
C887 C 0.23216 0.13035 0.91483 0.0
C888 C 0.21395 0.16156 0.87971 0.0
C889 C 0.24169 0.11294 0.89353 0.0
C890 C 0.23836 0.12033 0.86535 0.0
C891 C 0.22657 0.15556 0.83077 0.0
C892 C 0.21719 0.18233 0.82504 0.0
C893 C 0.22563 0.14529 0.8583 0.0
C894 C 0.20359 0.1972 0.84594 0.0
C895 C 0.20163 0.18671 0.87303 0.0
H896 H 0.05266 0.02651 0.33586 0.0
H897 H 0.13553 0.0067 0.35911 0.0
H898 H 0.12241 0.00558 0.40862 0.0
H899 H 0.08671 0.00704 0.44454 0.0
H900 H 0.00343 0.02468 0.42054 0.0
H901 H 0.01756 0.03008 0.3718 0.0
C902 C 0.06795 0.02215 0.35174 0.0
C903 C 0.09499 0.01651 0.3439 0.0
C904 C 0.06017 0.02109 0.37991 0.0
C905 C 0.11456 0.01099 0.36469 0.0
C906 C 0.10706 0.01033 0.39294 0.0
C907 C 0.07167 0.01241 0.42873 0.0
C908 C 0.04401 0.01533 0.43615 0.0
C909 C 0.07981 0.01489 0.4007 0.0
C910 C 0.0248 0.02216 0.41537 0.0
C911 C 0.03285 0.02522 0.38751 0.0
H912 H 0.2472 0.85158 0.5713 0.0
H913 H 0.30933 0.79177 0.55186 0.0
H914 H 0.29582 0.7641 0.592 0.0
H915 H 0.26644 0.75617 0.63147 0.0
H916 H 0.20579 0.81607 0.65451 0.0
H917 H 0.21827 0.84425 0.61347 0.0
C918 C 0.258 0.83271 0.57616 0.0
C919 C 0.27914 0.82367 0.55852 0.0
C920 C 0.25002 0.81665 0.59937 0.0
C921 C 0.29286 0.79909 0.56494 0.0
C922 C 0.28509 0.78316 0.58781 0.0
C923 C 0.25548 0.77515 0.62742 0.0
C924 C 0.23481 0.78375 0.6457 0.0
C925 C 0.26348 0.79152 0.6048 0.0
C926 C 0.22151 0.80883 0.64046 0.0
C927 C 0.22882 0.82501 0.6172 0.0
H928 H 0.43809 0.95775 0.81733 0.0
H929 H 0.37008 0.00698 0.84425 0.0
H930 H 0.38968 0.0098 0.89157 0.0
H931 H 0.42858 0.00246 0.92324 0.0
H932 H 0.49608 0.95236 0.89662 0.0
H933 H 0.47405 0.94536 0.85081 0.0
C934 C 0.42737 0.96877 0.83366 0.0
C935 C 0.40296 0.98252 0.82741 0.0
C936 C 0.43876 0.97028 0.86056 0.0
C937 C 0.38895 -0.00369 0.84873 0.0
C938 C 0.40022 -0.00194 0.87564 0.0
C939 C 0.43832 0.98982 0.90743 0.0
C940 C 0.46407 0.97836 0.91282 0.0
C941 C 0.42551 0.98583 0.88147 0.0
C942 C 0.47631 0.96148 0.89266 0.0
C943 C 0.46378 0.95758 0.86656 0.0
H944 H 0.27539 0.15756 0.06902 0.0
H945 H 0.24585 0.23265 0.03089 0.0
H946 H 0.25951 0.25892 0.07221 0.0
H947 H 0.27459 0.25983 0.12087 0.0
H948 H 0.30191 0.18471 0.16049 0.0
H949 H 0.29527 0.15954 0.11652 0.0
C950 C 0.2721 0.1797 0.06964 0.0
C951 C 0.25905 0.19292 0.04704 0.0
C952 C 0.27975 0.19479 0.09369 0.0
C953 C 0.2554 0.22173 0.0481 0.0
C954 C 0.26331 0.23688 0.07172 0.0
C955 C 0.2797 0.23808 0.11985 0.0
C956 C 0.28826 0.22413 0.14417 0.0
C957 C 0.2748 0.22351 0.09489 0.0
C958 C 0.29504 0.19598 0.14221 0.0
C959 C 0.291 0.18148 0.11711 0.0
H960 H 0.13687 0.12807 0.96447 0.0
H961 H 0.18252 0.07453 0.01947 0.0
H962 H 0.14238 0.04441 0.0246 0.0
H963 H 0.09433 0.03359 0.01386 0.0
H964 H 0.04886 0.08735 0.95889 0.0
H965 H 0.0892 0.11695 0.95323 0.0
C966 C 0.13811 0.1099 0.97771 0.0
C967 C 0.16271 0.10371 0.99169 0.0
C968 C 0.11505 0.0926 0.98044 0.0
C969 C 0.16387 0.07988 0.00852 0.0
C970 C 0.14093 0.0626 0.01143 0.0
C971 C 0.09323 0.05166 0.00046 0.0
C972 C 0.06852 0.05818 0.98682 0.0
C973 C 0.11643 0.06876 -0.00253 0.0
C974 C 0.06756 0.08178 0.96965 0.0
C975 C 0.0906 0.09879 0.96645 0.0
H976 H 0.66234 0.36167 0.03275 0.0
H977 H 0.7114 0.43584 0.04328 0.0
H978 H 0.67104 0.46159 0.05671 0.0
H979 H 0.62131 0.46425 0.06083 0.0
H980 H 0.57186 0.39026 0.05135 0.0
H981 H 0.61285 0.36318 0.04287 0.0
C982 C 0.66417 0.3834 0.03825 0.0
C983 C 0.68972 0.39691 0.03659 0.0
C984 C 0.64082 0.39814 0.04621 0.0
C985 C 0.69193 0.42496 0.04421 0.0
C986 C 0.66885 0.43976 0.05187 0.0
C987 C 0.61954 0.4421 0.05742 0.0
C988 C 0.59357 0.42938 0.05639 0.0
C989 C 0.64312 0.42672 0.0523 0.0
C990 C 0.59162 0.4006 0.05229 0.0
C991 C 0.61505 0.38512 0.04716 0.0
H992 H 0.86232 0.37517 0.30459 0.0
H993 H 0.80229 0.42296 0.25958 0.0
H994 H 0.76954 0.38482 0.26293 0.0
H995 H 0.75972 0.33652 0.27389 0.0
H996 H 0.82019 0.2878 0.31707 0.0
H997 H 0.85069 0.32804 0.31977 0.0
C998 C 0.84202 0.37736 0.29569 0.0
C999 C 0.83502 0.40172 0.28138 0.0
C1000 C 0.82331 0.35523 0.29739 0.0
C1001 C 0.80844 0.40431 0.27037 0.0
C1002 C 0.78962 0.38253 0.2723 0.0
C1003 C 0.77935 0.33474 0.28436 0.0
C1004 C 0.78781 0.30905 0.29483 0.0
C1005 C 0.7971 0.35767 0.2851 0.0
C1006 C 0.81324 0.30727 0.30857 0.0
C1007 C 0.83078 0.33023 0.30999 0.0
H1008 H 0.85466 0.6389 0.50569 0.0
H1009 H 0.80731 0.57544 0.54746 0.0
H1010 H 0.8482 0.54719 0.5524 0.0
H1011 H 0.89646 0.53868 0.54055 0.0
H1012 H 0.94281 0.60206 0.49731 0.0
H1013 H 0.90333 0.63217 0.49748 0.0
C1014 C 0.85331 0.61904 0.51619 0.0
C1015 C 0.82794 0.60917 0.52593 0.0
C1016 C 0.87673 0.60276 0.51852 0.0
C1017 C 0.8266 0.58347 0.53966 0.0
C1018 C 0.84996 0.56725 0.5424 0.0
C1019 C 0.89803 0.55924 0.53157 0.0
C1020 C 0.92248 0.56792 0.51864 0.0
C1021 C 0.87501 0.5764 0.53128 0.0
C1022 C 0.92416 0.59466 0.50709 0.0
C1023 C 0.90157 0.61195 0.50716 0.0
H1024 H 0.16827 0.08156 0.26166 0.0
H1025 H 0.1088 0.12949 0.30688 0.0
H1026 H 0.13911 0.16972 0.30543 0.0
H1027 H 0.18076 0.1922 0.2888 0.0
H1028 H 0.24019 0.1453 0.24265 0.0
H1029 H 0.21173 0.10361 0.24751 0.0
C1030 C 0.16196 0.10075 0.27134 0.0
C1031 C 0.13607 0.10248 0.28406 0.0
C1032 C 0.17946 0.124 0.27032 0.0
C1033 C 0.12844 0.1275 0.29671 0.0
C1034 C 0.14578 0.15059 0.29594 0.0
C1035 C 0.1877 0.17284 0.27996 0.0
C1036 C 0.21247 0.17199 0.26511 0.0
C1037 C 0.17109 0.14918 0.28241 0.0
C1038 C 0.2212 0.14659 0.25414 0.0
C1039 C 0.20485 0.12278 0.25677 0.0
H1040 H 0.33565 0.94336 0.49839 0.0
H1041 H 0.381 0.88316 0.45094 0.0
H1042 H 0.42021 0.91442 0.44945 0.0
H1043 H 0.44295 0.95675 0.46469 0.0
H1044 H 0.39917 0.01701 0.51323 0.0
H1045 H 0.35772 0.98804 0.51056 0.0
C1046 C 0.35405 0.93713 0.4876 0.0
C1047 C 0.35545 0.9107 0.47523 0.0
C1048 C 0.37675 0.9552 0.48691 0.0
C1049 C 0.37938 0.90316 0.46101 0.0
C1050 C 0.40185 0.92106 0.46005 0.0
C1051 C 0.42427 0.96374 0.47448 0.0
C1052 C 0.42419 0.98876 0.48946 0.0
C1053 C 0.40094 0.94681 0.4734 0.0
C1054 C 0.39973 -0.00222 0.50158 0.0
C1055 C 0.37613 0.98111 0.50026 0.0
H1056 H 0.86433 0.56981 0.21967 0.0
H1057 H 0.78676 0.52884 0.23363 0.0
H1058 H 0.76309 0.57275 0.22803 0.0
H1059 H 0.76544 0.62364 0.22598 0.0
H1060 H 0.84351 0.66401 0.2118 0.0
H1061 H 0.86581 0.61947 0.21023 0.0
C1062 C 0.8422 0.57046 0.22099 0.0
C1063 C 0.82733 0.54639 0.22755 0.0
C1064 C 0.82881 0.59571 0.21797 0.0
C1065 C 0.79865 0.54726 0.22873 0.0
C1066 C 0.78512 0.57236 0.2257 0.0
C1067 C 0.78722 0.62267 0.22202 0.0
C1068 C 0.80281 0.6472 0.21977 0.0
C1069 C 0.80012 0.59689 0.22135 0.0
C1070 C 0.831 0.64552 0.21418 0.0
C1071 C 0.84387 0.62003 0.2133 0.0
H1072 H 0.63846 0.42531 0.74196 0.0
H1073 H 0.71416 0.47145 0.7495 0.0
H1074 H 0.73959 0.43128 0.73289 0.0
H1075 H 0.74043 0.3809 0.72344 0.0
H1076 H 0.66442 0.33509 0.71855 0.0
H1077 H 0.63876 0.37743 0.72602 0.0
C1078 C 0.66051 0.42666 0.73965 0.0
C1079 C 0.67456 0.45092 0.7475 0.0
C1080 C 0.67484 0.40357 0.73037 0.0
C1081 C 0.703 0.45276 0.74383 0.0
C1082 C 0.71751 0.42982 0.73438 0.0
C1083 C 0.71825 0.38056 0.72292 0.0
C1084 C 0.70415 0.35522 0.72035 0.0
C1085 C 0.70371 0.40483 0.72848 0.0
C1086 C 0.67548 0.35459 0.7203 0.0
C1087 C 0.66087 0.37868 0.72488 0.0
H1088 H 0.0359 0.82282 0.94411 0.0
H1089 H 0.00196 0.85137 0.86585 0.0
H1090 H 0.00421 0.89924 0.88286 0.0
H1091 H 0.00994 0.93143 0.92236 0.0
H1092 H 0.04403 0.90273 0.00054 0.0
H1093 H 0.0487 0.85631 0.98079 0.0
C1094 C 0.02924 0.83963 0.93074 0.0
C1095 C 0.01812 0.83385 0.90415 0.0
C1096 C 0.03088 0.86686 0.94054 0.0
C1097 C 0.01026 0.85556 0.88656 0.0
C1098 C 0.01156 0.88281 0.89626 0.0
C1099 C 0.01906 0.91513 0.93478 0.0
C1100 C 0.02622 0.92017 0.96293 0.0
C1101 C 0.02104 0.88852 0.92353 0.0
C1102 C 0.0384 0.89921 0.97881 0.0
C1103 C 0.04072 0.87264 0.96765 0.0
H1104 H 0.91831 0.28197 0.63732 0.0
H1105 H 0.95081 0.22731 0.70034 0.0
H1106 H 0.90949 0.23362 0.72873 0.0
H1107 H 0.86361 0.25353 0.73423 0.0
H1108 H 0.83264 0.30897 0.6708 0.0
H1109 H 0.87464 0.30403 0.64415 0.0
C1110 C 0.91634 0.27118 0.65717 0.0
C1111 C 0.93723 0.25369 0.66652 0.0
C1112 C 0.89312 0.27545 0.67341 0.0
C1113 C 0.93475 0.24055 0.69262 0.0
C1114 C 0.91126 0.2443 0.70883 0.0
C1115 C 0.86622 0.26496 0.71484 0.0
C1116 C 0.84489 0.2815 0.70444 0.0
C1117 C 0.89028 0.26167 0.69934 0.0
C1118 C 0.84864 0.29607 0.67925 0.0
C1119 C 0.87256 0.2931 0.66389 0.0
H1120 H 0.49429 0.20773 0.40786 0.0
H1121 H 0.45707 0.23668 0.48429 0.0
H1122 H 0.45716 0.18979 0.50315 0.0
H1123 H 0.47026 0.14103 0.49894 0.0
H1124 H 0.50837 0.11285 0.42274 0.0
H1125 H 0.50504 0.15899 0.40265 0.0
C1126 C 0.4862 0.20385 0.42866 0.0
C1127 C 0.47597 0.22573 0.44472 0.0
C1128 C 0.4863 0.17695 0.43938 0.0
C1129 C 0.46522 0.22022 0.47149 0.0
C1130 C 0.46521 0.19341 0.48231 0.0
C1131 C 0.47738 0.14492 0.47777 0.0
C1132 C 0.48967 0.12369 0.46241 0.0
C1133 C 0.47595 0.17166 0.46654 0.0
C1134 C 0.49901 0.12899 0.43506 0.0
C1135 C 0.4972 0.15535 0.42358 0.0
H1136 H 0.57607 0.73147 0.17174 0.0
H1137 H 0.60131 0.81156 0.14073 0.0
H1138 H 0.64564 0.80691 0.16396 0.0
H1139 H 0.67803 0.7788 0.18891 0.0
H1140 H 0.65535 0.69706 0.2179 0.0
H1141 H 0.60888 0.70354 0.19935 0.0
C1142 C 0.59112 0.74813 0.17076 0.0
C1143 C 0.58555 0.77199 0.15491 0.0
C1144 C 0.61699 0.74473 0.18317 0.0
C1145 C 0.60525 0.79319 0.15305 0.0
C1146 C 0.63057 0.79042 0.16611 0.0
C1147 C 0.66308 0.7622 0.19131 0.0
C1148 C 0.67035 0.73724 0.20448 0.0
C1149 C 0.63685 0.76599 0.18049 0.0
C1150 C 0.65039 0.71634 0.20763 0.0
C1151 C 0.62385 0.7201 0.19709 0.0
H1152 H 0.04836 0.18299 0.55396 0.0
H1153 H 0.9825 0.17402 0.61358 0.0
H1154 H 0.987 0.12396 0.61213 0.0
H1155 H 0.0087 0.08322 0.59367 0.0
H1156 H 0.07333 0.09086 0.5326 0.0
H1157 H 0.07091 0.14139 0.53577 0.0
C1158 C 0.03478 0.17007 0.5664 0.0
C1159 C 0.01494 0.1822 0.58367 0.0
C1160 C 0.03763 0.14126 0.56568 0.0
C1161 C -0.00216 0.16521 0.60003 0.0
C1162 C 0.00049 0.13661 0.59935 0.0
C1163 C 0.02248 0.09582 0.58111 0.0
C1164 C 0.04105 0.08328 0.56275 0.0
C1165 C 0.0203 0.12451 0.5823 0.0
C1166 C 0.05891 0.1 0.54696 0.0
C1167 C 0.05731 0.12885 0.54854 0.0
H1168 H 0.55743 0.28658 0.32434 0.0
H1169 H 0.58188 0.2555 0.40521 0.0
H1170 H 0.62729 0.24468 0.38675 0.0
H1171 H 0.6594 0.24347 0.34721 0.0
H1172 H 0.63596 0.27835 0.26751 0.0
H1173 H 0.59072 0.28889 0.28602 0.0
C1174 C 0.57273 0.27728 0.33779 0.0
C1175 C 0.56648 0.27126 0.36581 0.0
C1176 C 0.59888 0.27218 0.32734 0.0
C1177 C 0.58644 0.25998 0.38345 0.0
C1178 C 0.61229 0.2539 0.37294 0.0
C1179 C 0.64442 0.25359 0.33402 0.0
C1180 C 0.6508 0.26001 0.30605 0.0
C1181 C 0.61868 0.25988 0.3449 0.0
C1182 C 0.63146 0.27339 0.28917 0.0
C1183 C 0.60557 0.2792 0.29966 0.0
H1184 H 0.47437 0.84664 0.12228 0.0
H1185 H 0.51516 0.80658 0.05344 0.0
H1186 H 0.50538 0.84589 0.02311 0.0
H1187 H 0.48767 0.89213 0.01702 0.0
H1188 H 0.44893 0.93373 0.08626 0.0
H1189 H 0.45422 0.89248 0.11526 0.0
C1190 C 0.48128 0.84664 0.1007 0.0
C1191 C 0.49581 0.82402 0.09015 0.0
C1192 C 0.47539 0.86916 0.08334 0.0
C1193 C 0.50419 0.82396 0.06204 0.0
C1194 C 0.49843 0.84628 0.04466 0.0
C1195 C 0.47991 0.89214 0.0383 0.0
C1196 C 0.46826 0.91614 0.04956 0.0
C1197 C 0.4842 0.869 0.05517 0.0
C1198 C 0.45803 0.91556 0.07706 0.0
C1199 C 0.46139 0.89212 0.09378 0.0
H1200 H 0.89383 0.7757 0.89847 0.0
H1201 H 0.94503 0.76115 0.82656 0.0
H1202 H 0.90458 0.7526 0.79747 0.0
H1203 H 0.85443 0.75117 0.79204 0.0
H1204 H 0.80369 0.76677 0.86396 0.0
H1205 H 0.84418 0.7723 0.8936 0.0
C1206 C 0.89617 0.77084 0.8764 0.0
C1207 C 0.92239 0.76936 0.86468 0.0
C1208 C 0.87289 0.76569 0.85987 0.0
C1209 C 0.92505 0.76257 0.83611 0.0
C1210 C 0.90194 0.75755 0.81947 0.0
C1211 C 0.85233 0.75511 0.81433 0.0
C1212 C 0.82623 0.75845 0.82589 0.0
C1213 C 0.87574 0.7591 0.83111 0.0
C1214 C 0.82366 0.76408 0.85468 0.0
C1215 C 0.84677 0.76745 0.87158 0.0
H1216 H 0.8656 0.01225 0.84275 0.0
H1217 H 0.90156 0.09299 0.83068 0.0
H1218 H 0.92042 0.09231 0.8783 0.0
H1219 H 0.93493 0.06426 0.91834 0.0
H1220 H 0.90235 0.98129 0.92787 0.0
H1221 H 0.87404 0.98714 0.88632 0.0
C1222 C 0.87651 0.03012 0.85118 0.0
C1223 C 0.88221 0.05266 0.83378 0.0
C1224 C 0.88874 0.02868 0.87768 0.0
C1225 C 0.89672 0.07565 0.84424 0.0
C1226 C 0.90788 0.07501 0.87119 0.0
C1227 C 0.92134 0.04762 0.91157 0.0
C1228 C 0.92141 0.02213 0.92563 0.0
C1229 C 0.90544 0.05089 0.88734 0.0
C1230 C 0.90324 0.00094 0.91697 0.0
C1231 C 0.88689 0.00427 0.89329 0.0
H1232 H 0.74263 0.16232 0.57135 0.0
H1233 H 0.78601 0.23348 0.53884 0.0
H1234 H 0.7703 0.26145 0.57835 0.0
H1235 H 0.74773 0.26413 0.62384 0.0
H1236 H 0.70423 0.19272 0.65622 0.0
H1237 H 0.71535 0.16669 0.61411 0.0
C1238 C 0.74877 0.18391 0.57313 0.0
C1239 C 0.76607 0.19578 0.55297 0.0
C1240 C 0.73918 0.19986 0.59539 0.0
C1241 C 0.77312 0.22395 0.55463 0.0
C1242 C 0.76399 0.23991 0.577 0.0
C1243 C 0.74014 0.24306 0.62148 0.0
C1244 C 0.72579 0.23019 0.64346 0.0
C1245 C 0.74738 0.22793 0.59771 0.0
C1246 C 0.71561 0.20308 0.63977 0.0
C1247 C 0.72224 0.18803 0.61585 0.0
H1248 H 0.57582 0.93875 0.33743 0.0
H1249 H 0.64376 -0.00371 0.3413 0.0
H1250 H 0.62836 0.0127 0.3872 0.0
H1251 H 0.59198 0.01469 0.42262 0.0
H1252 H 0.52438 0.95656 0.41856 0.0
H1253 H 0.54321 0.93616 0.37603 0.0
C1254 C 0.58756 0.9544 0.34876 0.0
C1255 C 0.61059 0.96659 0.3363 0.0
C1256 C 0.57835 0.96389 0.37461 0.0
C1257 C 0.626 0.98663 0.35085 0.0
C1258 C 0.61701 -0.0038 0.37682 0.0
C1259 C 0.58152 -0.00253 0.41241 0.0
C1260 C 0.5566 0.98746 0.42305 0.0
C1261 C 0.59261 0.98571 0.38828 0.0
C1262 C 0.54347 0.96469 0.41036 0.0
C1263 C 0.55421 0.95305 0.38615 0.0
H1264 H 0.78829 0.83414 0.08031 0.0
H1265 H 0.7577 0.75742 0.04538 0.0
H1266 H 0.77676 0.73186 0.08499 0.0
H1267 H 0.79524 0.73274 0.13272 0.0
H1268 H 0.82432 0.80938 0.1686 0.0
H1269 H 0.81448 0.83354 0.12469 0.0
C1270 C 0.78585 0.81184 0.08152 0.0
C1271 C 0.77086 0.79764 0.06074 0.0
C1272 C 0.79727 0.79731 0.10403 0.0
C1273 C 0.76864 0.76869 0.06167 0.0
C1274 C 0.77973 0.75411 0.08409 0.0
C1275 C 0.80081 0.75442 0.13025 0.0
C1276 C 0.81035 0.76941 0.15356 0.0
C1277 C 0.79339 0.76831 0.10573 0.0
C1278 C 0.8173 0.79748 0.15063 0.0
C1279 C 0.81094 0.81139 0.12582 0.0
H1280 H 0.92435 0.96794 0.70294 0.0
H1281 H 0.98911 0.02014 0.7356 0.0
H1282 H 0.02008 0.00378 0.69912 0.0
H1283 H 0.02607 0.97993 0.65438 0.0
H1284 H 0.96136 0.92815 0.62113 0.0
H1285 H 0.93339 0.9375 0.66242 0.0
C1286 C 0.94527 0.97564 0.70188 0.0
C1287 C 0.95443 -0.00415 0.72093 0.0
C1288 C 0.96301 0.96564 0.68135 0.0
C1289 C 0.9817 0.00507 0.72044 0.0
C1290 C -0.00062 -0.00446 0.69987 0.0
C1291 C 0.00635 0.9697 0.65692 0.0
C1292 C 0.99554 0.95365 0.63492 0.0
C1293 C 0.99001 0.97638 0.67983 0.0
C1294 C 0.97007 0.9404 0.63807 0.0
C1295 C 0.95384 0.94631 0.66132 0.0
H1296 H 0.76623 0.10496 0.42724 0.0
H1297 H 0.84542 0.1447 0.43067 0.0
H1298 H 0.83921 0.16247 0.38307 0.0
H1299 H 0.80742 0.17456 0.34553 0.0
H1300 H 0.72579 0.13935 0.34497 0.0
H1301 H 0.7366 0.11198 0.38636 0.0
C1302 C 0.78251 0.11647 0.41692 0.0
C1303 C 0.80629 0.12342 0.43186 0.0
C1304 C 0.77791 0.12819 0.39052 0.0
C1305 C 0.82712 0.13893 0.41904 0.0
C1306 C 0.82339 0.14939 0.39209 0.0
C1307 C 0.79214 0.16054 0.35415 0.0
C1308 C 0.76567 0.15952 0.34267 0.0
C1309 C 0.79822 0.14547 0.37837 0.0
C1310 C 0.74618 0.14098 0.35384 0.0
C1311 C 0.75235 0.12522 0.37744 0.0
H1312 H 0.5867 0.00594 0.18861 0.0
H1313 H 0.51401 0.95953 0.21032 0.0
H1314 H 0.49111 0.97607 0.16773 0.0
H1315 H 0.49306 0.00181 0.12366 0.0
H1316 H 0.56587 0.04881 0.10263 0.0
H1317 H 0.58708 0.0351 0.14679 0.0
C1318 C 0.56602 -0.00093 0.18365 0.0
C1319 C 0.55225 0.98081 0.20169 0.0
C1320 C 0.55284 0.00945 0.15995 0.0
C1321 C 0.52508 0.97298 0.19606 0.0
C1322 C 0.51196 0.98271 0.17203 0.0
C1323 C 0.51329 0.00969 0.129 0.0
C1324 C 0.52806 0.02594 0.10971 0.0
C1325 C 0.52572 0.0009 0.15383 0.0
C1326 C 0.55418 0.03609 0.11706 0.0
C1327 C 0.56646 0.02796 0.14209 0.0
H1328 H 0.68916 0.8175 0.94821 0.0
H1329 H 0.72133 0.89858 0.92859 0.0
H1330 H 0.71393 0.88984 0.87845 0.0
H1331 H 0.70733 0.85549 0.84105 0.0
H1332 H 0.67641 0.77396 0.86096 0.0
H1333 H 0.67295 0.78687 0.91038 0.0
C1334 C 0.69402 0.83338 0.93288 0.0
C1335 C 0.70648 0.85824 0.94154 0.0
C1336 C 0.68976 0.82815 0.90438 0.0
C1337 C 0.71207 0.87914 0.922 0.0
C1338 C 0.70787 0.87413 0.89347 0.0
C1339 C 0.69889 0.84095 0.85614 0.0
C1340 C 0.69276 0.8137 0.84782 0.0
C1341 C 0.69799 0.8482 0.88447 0.0
C1342 C 0.68137 0.79502 0.86711 0.0
C1343 C 0.67979 0.80227 0.89538 0.0
H1344 H 0.80185 0.90926 0.02729 0.0
H1345 H 0.8319 0.86926 0.95257 0.0
H1346 H 0.87644 0.89136 0.95947 0.0
H1347 H 0.90683 0.92078 0.98679 0.0
H1348 H 0.87751 0.96236 0.06083 0.0
H1349 H 0.83253 0.94015 0.05436 0.0
C1350 C 0.81801 0.90562 0.01228 0.0
C1351 C 0.81348 0.88757 0.98941 0.0
C1352 C 0.84373 0.91815 0.01654 0.0
C1353 C 0.83476 0.883 0.97033 0.0
C1354 C 0.8603 0.8955 0.97434 0.0
C1355 C 0.8908 0.92488 0.00183 0.0
C1356 C 0.89567 0.94302 0.0245 0.0
C1357 C 0.86505 0.91276 -0.00246 0.0
C1358 C 0.87439 0.94829 0.04338 0.0
C1359 C 0.84866 0.93577 0.03955 0.0
H1360 H 0.33552 0.57525 0.9715 0.0
H1361 H 0.31318 0.56855 0.05857 0.0
H1362 H 0.35586 0.54382 0.06846 0.0
H1363 H 0.40074 0.52731 0.05236 0.0
H1364 H 0.42142 0.53266 0.96457 0.0
H1365 H 0.37777 0.55479 0.95469 0.0
C1366 C 0.33996 0.56814 0.99261 0.0
C1367 C 0.32175 0.57386 0.01444 0.0
C1368 C 0.36412 0.55397 -0.00212 0.0
C1369 C 0.32714 0.56426 0.04159 0.0
C1370 C 0.35151 0.55034 0.04717 0.0
C1371 C 0.39559 0.53328 0.03106 0.0
C1372 C 0.41433 0.52886 0.00923 0.0
C1373 C 0.37036 0.54561 0.02554 0.0
C1374 C 0.40731 0.53603 0.98165 0.0
C1375 C 0.38245 0.5487 0.97604 0.0
H1376 H 0.16953 0.55073 0.72576 0.0
H1377 H 0.09998 0.59495 0.75782 0.0
H1378 H 0.11844 0.63799 0.73895 0.0
H1379 H 0.15699 0.66377 0.71968 0.0
H1380 H 0.22859 0.62104 0.69155 0.0
H1381 H 0.20602 0.5764 0.70105 0.0
C1382 C 0.15833 0.56974 0.72855 0.0
C1383 C 0.13369 0.56966 0.74382 0.0
C1384 C 0.16919 0.59455 0.71785 0.0
C1385 C 0.1192 0.59443 0.74666 0.0
C1386 C 0.12964 0.61905 0.73569 0.0
C1387 C 0.16722 0.64458 0.71466 0.0
C1388 C 0.19434 0.64545 0.70515 0.0
C1389 C 0.15491 0.61942 0.72199 0.0
C1390 C 0.20757 0.62073 0.69863 0.0
C1391 C 0.19487 0.5953 0.70466 0.0
H1392 H 0.16777 0.38606 0.47804 0.0
H1393 H 0.20573 0.44436 0.53523 0.0
H1394 H 0.16392 0.47177 0.53537 0.0
H1395 H 0.11727 0.4796 0.51812 0.0
H1396 H 0.08025 0.42169 0.4597 0.0
H1397 H 0.12149 0.39388 0.46078 0.0
C1398 C 0.16685 0.40458 0.49086 0.0
C1399 C 0.18973 0.41309 0.5068 0.0
C1400 C 0.14315 0.4205 0.4902 0.0
C1401 C 0.1883 0.43732 0.52294 0.0
C1402 C 0.16449 0.45305 0.52286 0.0
C1403 C 0.11822 0.461 0.50545 0.0
C1404 C 0.09565 0.45282 0.48877 0.0
C1405 C 0.14194 0.44499 0.50628 0.0
C1406 C 0.0973 0.42857 0.47262 0.0
C1407 C 0.12082 0.41255 0.47334 0.0
H1408 H 0.8404 0.95891 0.74162 0.0
H1409 H 0.86127 0.93871 0.82732 0.0
H1410 H 0.83405 0.89634 0.82406 0.0
H1411 H 0.8059 0.86484 0.79716 0.0
H1412 H 0.78452 0.88299 0.71116 0.0
H1413 H 0.81079 0.92661 0.71424 0.0
C1414 C 0.83873 0.94536 0.75966 0.0
C1415 C 0.85285 0.95197 0.78473 0.0
C1416 C 0.82329 0.92071 0.75752 0.0
C1417 C 0.85073 0.93408 0.8078 0.0
C1418 C 0.8352 0.90984 0.80595 0.0
C1419 C 0.80676 0.8782 0.77891 0.0
C1420 C 0.79316 0.87057 0.7539 0.0
C1421 C 0.82168 0.9029 0.78089 0.0
C1422 C 0.79482 0.8883 0.73063 0.0
C1423 C 0.80976 0.91324 0.73244 0.0
H1424 H 0.71119 0.10037 0.52367 0.0
H1425 H 0.69234 0.13175 0.44111 0.0
H1426 H 0.64466 0.11717 0.44667 0.0
H1427 H 0.60869 0.096 0.47479 0.0
H1428 H 0.62686 0.06452 0.55749 0.0
H1429 H 0.67464 0.0794 0.55226 0.0
C1430 C 0.69673 0.10372 0.50673 0.0
C1431 C 0.70535 0.11692 0.48187 0.0
C1432 C 0.66927 0.09575 0.51029 0.0
C1433 C 0.68624 0.12157 0.46037 0.0
C1434 C 0.65899 0.11335 0.4636 0.0
C1435 C 0.62297 0.09243 0.49185 0.0
C1436 C 0.61414 0.07907 0.51653 0.0
C1437 C 0.6503 0.1006 0.48851 0.0
C1438 C 0.63303 0.07486 0.53835 0.0
C1439 C 0.66038 0.08316 0.53526 0.0
H1440 H 0.16909 0.40648 0.79464 0.0
H1441 H 0.19955 0.43372 0.71438 0.0
H1442 H 0.22889 0.39297 0.71191 0.0
H1443 H 0.2418 0.34768 0.73056 0.0
H1444 H 0.2112 0.32073 0.81095 0.0
H1445 H 0.18635 0.36405 0.8159 0.0
C1446 C 0.18222 0.40349 0.77663 0.0
C1447 C 0.18181 0.42246 0.75433 0.0
C1448 C 0.19899 0.38036 0.77557 0.0
C1449 C 0.19942 0.41904 0.73154 0.0
C1450 C 0.21611 0.39584 0.73018 0.0
C1451 C 0.22999 0.35148 0.74936 0.0
C1452 C 0.22783 0.33094 0.77016 0.0
C1453 C 0.2155 0.37608 0.75177 0.0
C1454 C 0.21303 0.33624 0.79466 0.0
C1455 C 0.19866 0.36085 0.79735 0.0
H1456 H 0.34464 0.61713 0.28115 0.0
H1457 H 0.28816 0.57345 0.22667 0.0
H1458 H 0.26239 0.61617 0.21964 0.0
H1459 H 0.25599 0.66582 0.22957 0.0
H1460 H 0.31208 0.70805 0.28594 0.0
H1461 H 0.33766 0.66564 0.29203 0.0
C1462 C 0.32686 0.61694 0.26744 0.0
C1463 C 0.3185 0.59227 0.25412 0.0
C1464 C 0.31186 0.64118 0.26422 0.0
C1465 C 0.29512 0.59228 0.23693 0.0
C1466 C 0.28033 0.61663 0.23306 0.0
C1467 C 0.27367 0.66572 0.24338 0.0
C1468 C 0.28206 0.69021 0.25724 0.0
C1469 C 0.28844 0.64118 0.24679 0.0
C1470 C 0.30506 0.6896 0.27502 0.0
C1471 C 0.31984 0.66537 0.27842 0.0
H1472 H 0.47099 0.70952 0.61429 0.0
H1473 H 0.47624 0.74002 0.52921 0.0
H1474 H 0.46334 0.69453 0.51136 0.0
H1475 H 0.45713 0.64527 0.5195 0.0
H1476 H 0.45531 0.61336 0.60393 0.0
H1477 H 0.45921 0.66055 0.62253 0.0
C1478 C 0.46912 0.70631 0.59184 0.0
C1479 C 0.47531 0.72801 0.57309 0.0
C1480 C 0.46215 0.67993 0.58163 0.0
C1481 C 0.47219 0.72359 0.54411 0.0
C1482 C 0.4647 0.6976 0.53385 0.0
C1483 C 0.45704 0.64869 0.54201 0.0
C1484 C 0.4565 0.62598 0.56035 0.0
C1485 C 0.46058 0.6755 0.55238 0.0
C1486 C 0.45578 0.63059 0.58942 0.0
C1487 C 0.45838 0.6575 0.60001 0.0
H1488 H 0.56843 0.22036 0.82545 0.0
H1489 H 0.60359 0.26958 0.89249 0.0
H1490 H 0.64826 0.26772 0.87023 0.0
H1491 H 0.67607 0.25593 0.82999 0.0
H1492 H 0.64156 0.20793 0.76189 0.0
H1493 H 0.59784 0.20476 0.78678 0.0
C1494 C 0.58592 0.23054 0.83524 0.0
C1495 C 0.58269 0.24548 0.86031 0.0
C1496 C 0.61155 0.22948 0.82226 0.0
C1497 C 0.60553 0.2582 0.87304 0.0
C1498 C 0.63107 0.25711 0.86037 0.0
C1499 C 0.65906 0.24449 0.8207 0.0
C1500 C 0.66176 0.23258 0.79401 0.0
C1501 C 0.63411 0.24336 0.83472 0.0
C1502 C 0.63985 0.21732 0.78243 0.0
C1503 C 0.61485 0.21574 0.79653 0.0
H1504 H -0.00049 0.35197 0.13866 0.0
H1505 H -0.00121 0.30357 0.06241 0.0
H1506 H 0.01601 0.34297 0.03615 0.0
H1507 H 0.02749 0.39174 0.03368 0.0
H1508 H 0.02608 0.44201 0.10847 0.0
H1509 H 0.01448 0.40117 0.13656 0.0
C1510 C 0.00317 0.35014 0.11632 0.0
C1511 C -0.00243 0.32498 0.10248 0.0
C1512 C 0.013 0.37309 0.1011 0.0
C1513 C 0.00272 0.32274 0.07359 0.0
C1514 C 0.01268 0.34524 0.05849 0.0
C1515 C 0.02514 0.39374 0.05622 0.0
C1516 C 0.02739 0.41986 0.0689 0.0
C1517 C 0.01745 0.37056 0.07192 0.0
C1518 C 0.02459 0.42206 0.09818 0.0
C1519 C 0.01758 0.39878 0.11419 0.0
H1520 H 0.90618 0.77156 0.39443 0.0
H1521 H 0.95424 0.71677 0.34343 0.0
H1522 H 0.91815 0.71544 0.30798 0.0
H1523 H 0.87365 0.7307 0.29092 0.0
H1524 H 0.82558 0.78581 0.34159 0.0
H1525 H 0.86121 0.78636 0.37758 0.0
C1526 C 0.9086 0.75903 0.37574 0.0
C1527 C 0.93282 0.74424 0.37162 0.0
C1528 C 0.88799 0.75872 0.35519 0.0
C1529 C 0.93579 0.72838 0.34711 0.0
C1530 C 0.91523 0.72767 0.32677 0.0
C1531 C 0.87101 0.74302 0.30972 0.0
C1532 C 0.84704 0.7583 0.31345 0.0
C1533 C 0.89141 0.74305 0.33044 0.0
C1534 C 0.84387 0.7739 0.33811 0.0
C1535 C 0.86418 0.77416 0.35877 0.0
H1536 H 0.47891 0.30096 0.95852 0.0
H1537 H 0.49602 0.34392 0.88111 0.0
H1538 H 0.48648 0.38816 0.90395 0.0
H1539 H 0.48063 0.41434 0.94744 0.0
H1540 H 0.4681 0.37098 0.02563 0.0
H1541 H 0.46812 0.32683 0.00072 0.0
C1542 C 0.48018 0.31994 0.94646 0.0
C1543 C 0.48867 0.31935 0.91835 0.0
C1544 C 0.47569 0.34511 0.95994 0.0
C1545 C 0.48978 0.34399 0.90287 0.0
C1546 C 0.48444 0.36922 0.91596 0.0
C1547 C 0.47728 0.39528 0.959 0.0
C1548 C 0.47478 0.39585 0.9884 0.0
C1549 C 0.47847 0.37003 0.94474 0.0
C1550 C 0.47041 0.37102 0.00304 0.0
C1551 C 0.4705 0.34581 0.98883 0.0
H1552 H 0.8969 0.23103 0.14362 0.0
H1553 H 0.93995 0.24287 0.22202 0.0
H1554 H 0.90024 0.22522 0.24767 0.0
H1555 H 0.8525 0.20974 0.2479 0.0
H1556 H 0.80902 0.19818 0.16967 0.0
H1557 H 0.85016 0.21143 0.14373 0.0
C1558 C 0.89752 0.22982 0.16633 0.0
C1559 C 0.92104 0.23875 0.18101 0.0
C1560 C 0.87478 0.21932 0.18087 0.0
C1561 C 0.92191 0.23642 0.21033 0.0
C1562 C 0.89929 0.22624 0.22497 0.0
C1563 C 0.85212 0.20963 0.22514 0.0
C1564 C 0.82764 0.20325 0.21075 0.0
C1565 C 0.87553 0.21799 0.21046 0.0
C1566 C 0.8276 0.20289 0.18128 0.0
C1567 C 0.85102 0.21082 0.16644 0.0
H1568 H 0.0465 0.67212 0.41295 0.0
H1569 H 0.03144 0.70368 0.49618 0.0
H1570 H 0.04493 0.6597 0.51649 0.0
H1571 H 0.05051 0.60991 0.50973 0.0
H1572 H 0.05978 0.57731 0.42628 0.0
H1573 H 0.06033 0.62411 0.40696 0.0
C1574 C 0.04673 0.6696 0.43555 0.0
C1575 C 0.03709 0.69077 0.45294 0.0
C1576 C 0.0536 0.64396 0.44706 0.0
C1577 C 0.03801 0.68737 0.48224 0.0
C1578 C 0.04582 0.66226 0.49392 0.0
C1579 C 0.05396 0.61326 0.48751 0.0
C1580 C 0.05495 0.59055 0.46932 0.0
C1581 C 0.05219 0.63999 0.47644 0.0
C1582 C 0.059 0.59477 0.44052 0.0
C1583 C 0.05892 0.62144 0.42948 0.0
H1584 H 0.56178 0.79889 0.67859 0.0
H1585 H 0.60261 0.80094 0.59853 0.0
H1586 H 0.64707 0.8024 0.62226 0.0
H1587 H 0.67433 0.8009 0.6661 0.0
H1588 H 0.63245 0.79833 0.74557 0.0
H1589 H 0.58841 0.79979 0.72169 0.0
C1590 C 0.58038 0.79951 0.66627 0.0
C1591 C 0.5789 0.79941 0.63688 0.0
C1592 C 0.60571 0.80055 0.67996 0.0
C1593 C 0.60321 0.8008 0.62125 0.0
C1594 C 0.62863 0.80171 0.63478 0.0
C1595 C 0.65554 0.80119 0.67808 0.0
C1596 C 0.65654 0.7994 0.70746 0.0
C1597 C 0.63014 0.80143 0.66417 0.0
C1598 C 0.63211 0.7995 0.72287 0.0
C1599 C 0.60693 0.80024 0.70927 0.0
H1600 H 0.53716 0.51434 0.72167 0.0
H1601 H 0.62038 0.51061 0.69204 0.0
H1602 H 0.60386 0.50773 0.64369 0.0
H1603 H 0.56594 0.50944 0.60982 0.0
H1604 H 0.48291 0.514 0.63993 0.0
H1605 H 0.49936 0.51307 0.6882 0.0
C1606 C 0.55177 0.51286 0.7047 0.0
C1607 C 0.57999 0.5131 0.7105 0.0
C1608 C 0.54218 0.51132 0.67702 0.0
C1609 C 0.59854 0.51069 0.6882 0.0
C1610 C 0.58912 0.50904 0.66053 0.0
C1611 C 0.55139 0.50987 0.62692 0.0
C1612 C 0.52324 0.51206 0.62121 0.0
C1613 C 0.561 0.50977 0.65469 0.0
C1614 C 0.50471 0.51256 0.64367 0.0
C1615 C 0.51408 0.51208 0.67131 0.0
H1616 H 0.77872 0.30998 0.93984 0.0
H1617 H 0.74057 0.38611 0.91462 0.0
H1618 H 0.74655 0.37363 0.86529 0.0
H1619 H 0.75818 0.339 0.82999 0.0
H1620 H 0.79566 0.26252 0.85519 0.0
H1621 H 0.79522 0.27771 0.90419 0.0
C1622 C 0.77194 0.324 0.92358 0.0
C1623 C 0.7588 0.34873 0.93079 0.0
C1624 C 0.77546 0.31669 0.89541 0.0
C1625 C 0.75051 0.36686 0.90953 0.0
C1626 C 0.75393 0.35973 0.88138 0.0
C1627 C 0.76665 0.32581 0.84616 0.0
C1628 C 0.77654 0.29948 0.83911 0.0
C1629 C 0.76575 0.3344 0.87416 0.0
C1630 C 0.78791 0.28283 0.86013 0.0
C1631 C 0.7874 0.29141 0.88813 0.0
H1632 H 0.88877 0.50371 0.17461 0.0
H1633 H 0.94955 0.44242 0.19421 0.0
H1634 H 0.97627 0.4566 0.15379 0.0
H1635 H 0.9834 0.48697 0.11422 0.0
H1636 H 0.92211 0.54611 0.09094 0.0
H1637 H 0.89471 0.53266 0.13202 0.0
C1638 C 0.90758 0.49314 0.16969 0.0
C1639 C 0.91724 0.47217 0.18753 0.0
C1640 C 0.92307 0.50151 0.14634 0.0
C1641 C 0.94174 0.45875 0.18097 0.0
C1642 C 0.95716 0.46695 0.15797 0.0
C1643 C 0.9643 0.49738 0.11842 0.0
C1644 C 0.95512 0.51811 0.10024 0.0
C1645 C 0.94832 0.48865 0.14096 0.0
C1646 C 0.9298 0.53054 0.10517 0.0
C1647 C 0.91408 0.52264 0.1284 0.0
H1648 H 0.7316 0.69641 0.43897 0.0
H1649 H 0.76248 0.61707 0.41367 0.0
H1650 H 0.75361 0.62852 0.3644 0.0
H1651 H 0.74307 0.6638 0.32872 0.0
H1652 H 0.71396 0.74363 0.35504 0.0
H1653 H 0.71544 0.72894 0.40391 0.0
C1654 C 0.73609 0.68144 0.42275 0.0
C1655 C 0.74815 0.65617 0.42982 0.0
C1656 C 0.7312 0.68827 0.3947 0.0
C1657 C 0.75341 0.63679 0.40863 0.0
C1658 C 0.74838 0.64335 0.38051 0.0
C1659 C 0.7363 0.67767 0.3451 0.0
C1660 C 0.72874 0.70487 0.33837 0.0
C1661 C 0.73808 0.6694 0.37327 0.0
C1662 C 0.72012 0.72269 0.35978 0.0
C1663 C 0.72111 0.71437 0.38772 0.0
H1664 H 0.57147 0.51609 0.84261 0.0
H1665 H 0.65122 0.49641 0.87546 0.0
H1666 H 0.6331 0.49763 0.92337 0.0
H1667 H 0.59354 0.50114 0.95536 0.0
H1668 H 0.514 0.51973 0.92098 0.0
H1669 H 0.53329 0.52251 0.87409 0.0
C1670 C 0.58502 0.51224 0.8602 0.0
C1671 C 0.61257 0.50593 0.85553 0.0
C1672 C 0.57448 0.51283 0.88738 0.0
C1673 C 0.62986 0.50118 0.87858 0.0
C1674 C 0.61951 0.50188 0.90592 0.0
C1675 C 0.58057 0.50625 0.93764 0.0
C1676 C 0.55234 0.51003 0.94159 0.0
C1677 C 0.59172 0.50728 0.91052 0.0
C1678 C 0.53573 0.51648 0.91845 0.0
C1679 C 0.54672 0.51804 0.89163 0.0
H1680 H 0.73587 0.33297 0.08863 0.0
H1681 H 0.77687 0.26115 0.05595 0.0
H1682 H 0.76522 0.23526 0.09796 0.0
H1683 H 0.74518 0.2333 0.14448 0.0
H1684 H 0.7059 0.3052 0.17879 0.0
H1685 H 0.71462 0.33055 0.13527 0.0
C1686 C 0.74235 0.3117 0.09072 0.0
C1687 C 0.7574 0.29917 0.06916 0.0
C1688 C 0.73563 0.2968 0.11505 0.0
C1689 C 0.7654 0.27146 0.07219 0.0
C1690 C 0.75866 0.25653 0.09619 0.0
C1691 C 0.73804 0.25435 0.14233 0.0
C1692 C 0.72483 0.2673 0.16481 0.0
C1693 C 0.74389 0.26901 0.11775 0.0
C1694 C 0.71608 0.29474 0.16174 0.0
C1695 C 0.72122 0.30929 0.13696 0.0
H1696 H 0.92102 0.45909 0.31739 0.0
H1697 H 0.86163 0.51821 0.34523 0.0
H1698 H 0.88678 0.52405 0.38953 0.0
H1699 H 0.92754 0.51479 0.41827 0.0
H1700 H 0.98616 0.45482 0.39027 0.0
H1701 H 0.95928 0.44684 0.3476 0.0
C1702 C 0.91339 0.47304 0.33326 0.0
C1703 C 0.88977 0.48846 0.32809 0.0
C1704 C 0.92795 0.47633 0.35829 0.0
C1705 C 0.87981 0.50614 0.34891 0.0
C1706 C 0.89428 0.50961 0.37404 0.0
C1707 C 0.93443 0.50001 0.40277 0.0
C1708 C 0.959 0.48575 0.40701 0.0
C1709 C 0.91872 0.4953 0.3786 0.0
C1710 C 0.96741 0.46616 0.38724 0.0
C1711 C 0.95207 0.46159 0.36294 0.0
H1712 H 0.77961 0.6759 0.58981 0.0
H1713 H 0.75766 0.75306 0.55043 0.0
H1714 H 0.76389 0.77725 0.59468 0.0
H1715 H 0.77035 0.77584 0.64531 0.0
H1716 H 0.79092 0.69888 0.68565 0.0
H1717 H 0.79113 0.67559 0.64019 0.0
C1718 C 0.7765 0.69805 0.59082 0.0
C1719 C 0.76763 0.71244 0.56686 0.0
C1720 C 0.77984 0.71197 0.61654 0.0
C1721 C 0.76403 0.74125 0.56856 0.0
C1722 C 0.76764 0.75521 0.59389 0.0
C1723 C 0.77533 0.75407 0.6442 0.0
C1724 C 0.78015 0.73909 0.66895 0.0
C1725 C 0.77475 0.74065 0.61815 0.0
C1726 C 0.78694 0.71095 0.66698 0.0
C1727 C 0.78688 0.69753 0.64098 0.0
H1728 H 0.6508 0.65397 0.47751 0.0
H1729 H 0.69525 0.59759 0.53055 0.0
H1730 H 0.65431 0.56861 0.53537 0.0
H1731 H 0.60571 0.55972 0.52522 0.0
H1732 H 0.56153 0.61646 0.4723 0.0
H1733 H 0.60273 0.64468 0.46664 0.0
C1734 C 0.65161 0.6354 0.49021 0.0
C1735 C 0.6761 0.62812 0.50376 0.0
C1736 C 0.62807 0.61877 0.49283 0.0
C1737 C 0.67669 0.6038 0.51993 0.0
C1738 C 0.65329 0.58716 0.52267 0.0
C1739 C 0.60511 0.57813 0.51225 0.0
C1740 C 0.58049 0.58592 0.49925 0.0
C1741 C 0.62885 0.59448 0.50925 0.0
C1742 C 0.58014 0.60994 0.48262 0.0
C1743 C 0.60369 0.62617 0.4794 0.0
H1744 H 0.18466 0.87703 0.52161 0.0
H1745 H 0.22585 0.95639 0.52602 0.0
H1746 H 0.18312 0.97838 0.53935 0.0
H1747 H 0.13339 0.97563 0.5453 0.0
H1748 H 0.09226 0.89614 0.54138 0.0
H1749 H 0.13577 0.87357 0.53285 0.0
C1750 C 0.18429 0.8991 0.52572 0.0
C1751 C 0.20819 0.91517 0.52242 0.0
C1752 C 0.15971 0.91157 0.53345 0.0
C1753 C 0.20762 0.94363 0.52828 0.0
C1754 C 0.18321 0.95622 0.53584 0.0
C1755 C 0.13398 0.95332 0.54296 0.0
C1756 C 0.10956 0.93767 0.54357 0.0
C1757 C 0.15901 0.94048 0.53784 0.0
C1758 C 0.11073 0.90873 0.54092 0.0
C1759 C 0.13559 0.89579 0.53585 0.0
H1760 H 0.32961 0.91791 0.75672 0.0
H1761 H 0.3999 0.871 0.7828 0.0
H1762 H 0.37136 0.82964 0.78738 0.0
H1763 H 0.3273 0.80619 0.78147 0.0
H1764 H 0.25694 0.85238 0.75435 0.0
H1765 H 0.28463 0.89477 0.75341 0.0
C1766 C 0.33872 0.89864 0.76334 0.0
C1767 C 0.36695 0.89756 0.76904 0.0
C1768 C 0.32216 0.87485 0.76604 0.0
C1769 C 0.37829 0.87246 0.77806 0.0
C1770 C 0.36196 0.84877 0.78078 0.0
C1771 C 0.31782 0.82556 0.77576 0.0
C1772 C 0.29008 0.82598 0.7678 0.0
C1773 C 0.33396 0.84967 0.77457 0.0
C1774 C 0.27825 0.85138 0.76053 0.0
C1775 C 0.29412 0.87562 0.75978 0.0
H1776 H 0.34074 0.12336 0.98917 0.0
H1777 H 0.29947 0.05964 0.03683 0.0
H1778 H 0.34335 0.03783 0.04681 0.0
H1779 H 0.39297 0.03496 0.03867 0.0
H1780 H 0.43336 0.09818 0.98945 0.0
H1781 H 0.39025 0.12226 0.9837 0.0
C1782 C 0.3413 0.1048 0.00192 0.0
C1783 C 0.31688 0.09296 0.012 0.0
C1784 C 0.36645 0.09227 0.00726 0.0
C1785 C 0.318 0.06906 0.02868 0.0
C1786 C 0.34307 0.05657 0.03437 0.0
C1787 C 0.39241 0.05424 0.02708 0.0
C1788 C 0.41631 0.06463 0.01433 0.0
C1789 C 0.36738 0.06773 0.02332 0.0
C1790 C 0.41522 0.08959 -0.00072 0.0
C1791 C 0.39057 0.10337 -0.00408 0.0
H1792 H 0.68216 0.58036 0.78081 0.0
H1793 H 0.61104 0.61821 0.81739 0.0
H1794 H 0.63367 0.66328 0.81564 0.0
H1795 H 0.67197 0.69228 0.80091 0.0
H1796 H 0.74309 0.65534 0.7637 0.0
H1797 H 0.72211 0.60937 0.76887 0.0
C1798 C 0.67165 0.59841 0.78861 0.0
C1799 C 0.64477 0.59587 0.7989 0.0
C1800 C 0.68469 0.62439 0.78736 0.0
C1801 C 0.63162 0.6195 0.80915 0.0
C1802 C 0.64453 0.64533 0.80815 0.0
C1803 C 0.683 0.67419 0.794 0.0
C1804 C 0.70889 0.67724 0.7816 0.0
C1805 C 0.67079 0.64805 0.79681 0.0
C1806 C 0.72308 0.65355 0.77324 0.0
C1807 C 0.71106 0.6273 0.77609 0.0
H1808 H 0.86235 0.36748 0.96623 0.0
H1809 H 0.81296 0.42143 0.01694 0.0
H1810 H 0.84869 0.45681 0.01576 0.0
H1811 H 0.89487 0.47154 0.00287 0.0
H1812 H 0.94526 0.41731 0.95378 0.0
H1813 H 0.90799 0.38327 0.95134 0.0
C1814 C 0.85937 0.38696 0.97703 0.0
C1815 C 0.83505 0.39156 0.99188 0.0
C1816 C 0.8801 0.40734 0.97638 0.0
C1817 C 0.83152 0.41711 0.00552 0.0
C1818 C 0.85192 0.43748 0.00479 0.0
C1819 C 0.89755 0.45253 0.99114 0.0
C1820 C 0.92281 0.44698 0.97856 0.0
C1821 C 0.87637 0.43273 0.99054 0.0
C1822 C 0.92601 0.42208 0.9637 0.0
C1823 C 0.90476 0.40253 0.96243 0.0
H1824 H 0.37793 0.07282 0.72269 0.0
H1825 H 0.30418 0.02351 0.72912 0.0
H1826 H 0.27647 0.06475 0.72184 0.0
H1827 H 0.27349 0.11563 0.71895 0.0
H1828 H 0.34793 0.16415 0.71135 0.0
H1829 H 0.37491 0.12241 0.71331 0.0
C1830 C 0.35579 0.07109 0.72213 0.0
C1831 C 0.34307 0.04538 0.72683 0.0
C1832 C 0.34007 0.09477 0.71784 0.0
C1833 C 0.31441 0.04321 0.72561 0.0
C1834 C 0.29856 0.06678 0.72158 0.0
C1835 C 0.29556 0.11704 0.7172 0.0
C1836 C 0.30857 0.14313 0.71558 0.0
C1837 C 0.31118 0.09282 0.71843 0.0
C1838 C 0.33725 0.14446 0.71302 0.0
C1839 C 0.35282 0.12057 0.71421 0.0
H1840 H 0.17663 0.97122 0.22157 0.0
H1841 H 0.0994 0.93022 0.23801 0.0
H1842 H 0.11729 0.88691 0.22021 0.0
H1843 H 0.15641 0.8594 0.20685 0.0
H1844 H 0.23488 0.89863 0.19335 0.0
H1845 H 0.21478 0.94407 0.20199 0.0
C1846 C 0.16364 0.95288 0.22084 0.0
C1847 C 0.13692 0.95377 0.23165 0.0
C1848 C 0.17427 0.92776 0.21102 0.0
C1849 C 0.12021 0.92995 0.23034 0.0
C1850 C 0.13038 0.90518 0.22006 0.0
C1851 C 0.16898 0.87799 0.20509 0.0
C1852 C 0.19712 0.87571 0.1999 0.0
C1853 C 0.15761 0.90365 0.21133 0.0
C1854 C 0.21313 0.89988 0.19728 0.0
C1855 C 0.20171 0.92581 0.20263 0.0
H1856 H 0.51772 0.35301 0.45192 0.0
H1857 H 0.49189 0.38764 0.37297 0.0
H1858 H 0.50166 0.43442 0.39071 0.0
H1859 H 0.51353 0.46503 0.43011 0.0
H1860 H 0.53997 0.43017 0.50885 0.0
H1861 H 0.53525 0.38359 0.48926 0.0
C1862 C 0.51416 0.37087 0.43868 0.0
C1863 C 0.50335 0.36723 0.41155 0.0
C1864 C 0.52045 0.39741 0.44876 0.0
C1865 C 0.49972 0.39023 0.39412 0.0
C1866 C 0.50545 0.41683 0.40419 0.0
C1867 C 0.5189 0.44724 0.44277 0.0
C1868 C 0.52672 0.45095 0.47098 0.0
C1869 C 0.51538 0.42063 0.43164 0.0
C1870 C 0.53398 0.42784 0.48706 0.0
C1871 C 0.53086 0.40121 0.47601 0.0
H1872 H 0.41518 0.77711 0.13068 0.0
H1873 H 0.44382 0.73892 0.20694 0.0
H1874 H 0.40118 0.75149 0.23048 0.0
H1875 H 0.35603 0.77325 0.22894 0.0
H1876 H 0.32877 0.81275 0.15263 0.0
H1877 H 0.37137 0.80043 0.12972 0.0
C1878 C 0.41201 0.77113 0.15236 0.0
C1879 C 0.43236 0.7566 0.16695 0.0
C1880 C 0.38806 0.77922 0.16584 0.0
C1881 C 0.42824 0.74973 0.19522 0.0
C1882 C 0.40401 0.75713 0.20868 0.0
C1883 C 0.35949 0.77953 0.2074 0.0
C1884 C 0.33909 0.79387 0.19252 0.0
C1885 C 0.38388 0.77203 0.1942 0.0
C1886 C 0.34405 0.8018 0.16463 0.0
C1887 C 0.36831 0.79453 0.15142 0.0
H1888 H 0.99139 0.67361 0.90238 0.0
H1889 H 0.97463 0.70747 0.98433 0.0
H1890 H 0.96483 0.66132 0.00226 0.0
H1891 H 0.96457 0.61102 -0.00419 0.0
H1892 H 0.98398 0.57685 0.91494 0.0
H1893 H 0.98818 0.62339 0.89518 0.0
C1894 C 0.98572 0.67089 0.92419 0.0
C1895 C 0.98412 0.69397 0.94201 0.0
C1896 C 0.98001 0.64424 0.93444 0.0
C1897 C 0.97625 0.69008 0.97012 0.0
C1898 C 0.97047 0.66368 0.98042 0.0
C1899 C 0.96872 0.61385 0.97365 0.0
C1900 C 0.97361 0.59076 0.95669 0.0
C1901 C 0.97251 0.6406 0.96286 0.0
C1902 C 0.97979 0.59451 0.92819 0.0
C1903 C 0.98258 0.62105 0.91703 0.0
H1904 H 0.07528 0.2272 0.65879 0.0
H1905 H 0.10924 0.29804 0.61549 0.0
H1906 H 0.15404 0.28906 0.6359 0.0
H1907 H 0.18327 0.26141 0.66523 0.0
H1908 H 0.15104 0.19042 0.70946 0.0
H1909 H 0.1057 0.19847 0.68851 0.0
C1910 C 0.09246 0.24086 0.65423 0.0
C1911 C 0.08902 0.26346 0.63595 0.0
C1912 C 0.11836 0.23517 0.66557 0.0
C1913 C 0.11146 0.28065 0.62961 0.0
C1914 C 0.13704 0.27543 0.64112 0.0
C1915 C 0.16637 0.24756 0.67035 0.0
C1916 C 0.17037 0.22547 0.68903 0.0
C1917 C 0.14069 0.2527 0.65889 0.0
C1918 C 0.14844 0.20745 0.69499 0.0
C1919 C 0.12254 0.21228 0.68328 0.0
H1920 H 0.55666 0.67769 0.07468 0.0
H1921 H 0.48781 0.67127 0.13094 0.0
H1922 H 0.48882 0.62098 0.1274 0.0
H1923 H 0.50603 0.57963 0.10472 0.0
H1924 H 0.57337 0.58565 0.04675 0.0
H1925 H 0.57681 0.63554 0.05539 0.0
C1926 C 0.54188 0.66532 0.08622 0.0
C1927 C 0.5218 0.67823 0.10258 0.0
C1928 C 0.54248 0.63646 0.08399 0.0
C1929 C 0.50325 0.66188 0.11794 0.0
C1930 C 0.50385 0.63314 0.11598 0.0
C1931 C 0.52175 0.59179 0.09425 0.0
C1932 C 0.53912 0.57918 0.07475 0.0
C1933 C 0.52294 0.62033 0.09857 0.0
C1934 C 0.55974 0.59497 0.0618 0.0
C1935 C 0.56149 0.62349 0.0665 0.0
H1936 H 0.08426 0.78024 0.85378 0.0
H1937 H 0.05853 0.69779 0.83037 0.0
H1938 H 0.0976 0.69437 0.7984 0.0
H1939 H 0.1394 0.7147 0.77831 0.0
H1940 H 0.16322 0.79849 0.79892 0.0
H1941 H 0.12386 0.80207 0.83046 0.0
C1942 C 0.08748 0.76144 0.84185 0.0
C1943 C 0.06927 0.73892 0.84481 0.0
C1944 C 0.10916 0.7602 0.82282 0.0
C1945 C 0.07276 0.71505 0.82864 0.0
C1946 C 0.0949 0.71323 0.81033 0.0
C1947 C 0.13573 0.73386 0.78949 0.0
C1948 C 0.1541 0.7563 0.78658 0.0
C1949 C 0.11321 0.73567 0.80735 0.0
C1950 C 0.14915 0.78111 0.80078 0.0
C1951 C 0.12689 0.783 0.81898 0.0
H1952 H 0.98889 0.3149 0.55263 0.0
H1953 H -0.00132 0.35285 0.63413 0.0
H1954 H 0.98513 0.39741 0.61482 0.0
H1955 H 0.97343 0.42592 0.57433 0.0
H1956 H 0.96652 0.38873 0.49233 0.0
H1957 H 0.97473 0.34303 0.51254 0.0
C1958 C 0.98822 0.33296 0.56612 0.0
C1959 C 0.99509 0.33076 0.59464 0.0
C1960 C 0.9802 0.35837 0.55495 0.0
C1961 C 0.99375 0.35418 0.612 0.0
C1962 C 0.98577 0.37956 0.60106 0.0
C1963 C 0.97273 0.40765 0.56108 0.0
C1964 C 0.96907 0.41041 0.53203 0.0
C1965 C 0.97905 0.38189 0.57256 0.0
C1966 C 0.96897 0.38682 0.51485 0.0
C1967 C 0.97409 0.36086 0.52631 0.0
H1968 H 0.38917 0.26663 0.38414 0.0
H1969 H 0.44112 0.30072 0.31968 0.0
H1970 H 0.41075 0.28155 0.28342 0.0
H1971 H 0.36739 0.25848 0.27036 0.0
H1972 H 0.31513 0.22526 0.33476 0.0
H1973 H 0.34824 0.23944 0.37083 0.0
C1974 C 0.39364 0.27006 0.36214 0.0
C1975 C 0.41686 0.28568 0.35451 0.0
C1976 C 0.37652 0.25835 0.34148 0.0
C1977 C 0.42303 0.28919 0.32598 0.0
C1978 C 0.40584 0.27802 0.30528 0.0
C1979 C 0.36401 0.25316 0.2922 0.0
C1980 C 0.33936 0.24018 0.29998 0.0
C1981 C 0.38244 0.26272 0.31279 0.0
C1982 C 0.33446 0.2344 0.32836 0.0
C1983 C 0.35307 0.24311 0.34897 0.0
H1984 H 0.4007 0.56836 0.34105 0.0
H1985 H 0.34077 0.51157 0.37472 0.0
H1986 H 0.36199 0.51577 0.42141 0.0
H1987 H 0.40139 0.53062 0.45016 0.0
H1988 H 0.46139 0.58731 0.41585 0.0
H1989 H 0.43585 0.58882 0.37172 0.0
C1990 C 0.39205 0.55737 0.35884 0.0
C1991 C 0.36964 0.53942 0.35484 0.0
C1992 C 0.40439 0.55983 0.38519 0.0
C1993 C 0.35811 0.52546 0.37769 0.0
C1994 C 0.37032 0.52776 0.40417 0.0
C1995 C 0.40863 0.54365 0.43314 0.0
C1996 C 0.43352 0.55835 0.43588 0.0
C1997 C 0.39405 0.54411 0.40784 0.0
C1998 C 0.4424 0.57566 0.41406 0.0
C1999 C 0.42791 0.57638 0.38882 0.0
H2000 H 0.24605 0.72266 0.03332 0.0
H2001 H 0.26637 0.6459 0.07452 0.0
H2002 H 0.25604 0.66644 0.11989 0.0
H2003 H 0.24002 0.70548 0.14753 0.0
H2004 H 0.22145 0.78275 0.10691 0.0
H2005 H 0.23142 0.7622 0.06113 0.0
C2006 C 0.24851 0.71042 0.0522 0.0
C2007 C 0.25682 0.68269 0.05044 0.0
C2008 C 0.24213 0.72215 0.07811 0.0
C2009 C 0.26007 0.66729 0.0752 0.0
C2010 C 0.25388 0.67891 0.10114 0.0
C2011 C 0.23759 0.71765 0.12859 0.0
C2012 C 0.22944 0.74534 0.13033 0.0
C2013 C 0.24441 0.7061 0.10273 0.0
C2014 C 0.22727 0.76123 0.10584 0.0
C2015 C 0.23324 0.74959 0.07982 0.0
H2016 H 0.09387 0.45165 0.83373 0.0
H2017 H 0.1441 0.52372 0.85044 0.0
H2018 H 0.12688 0.52533 0.89877 0.0
H2019 H 0.09317 0.50946 0.93343 0.0
H2020 H 0.04306 0.4372 0.91621 0.0
H2021 H 0.06538 0.43171 0.87082 0.0
C2022 C 0.1012 0.4675 0.84816 0.0
C2023 C 0.11956 0.48796 0.83884 0.0
C2024 C 0.09137 0.46809 0.87555 0.0
C2025 C 0.12968 0.50803 0.85747 0.0
C2026 C 0.11983 0.50892 0.88491 0.0
C2027 C 0.08749 0.49223 0.91991 0.0
C2028 C 0.06615 0.47408 0.92769 0.0
C2029 C 0.10003 0.48955 0.8938 0.0
C2030 C 0.05933 0.45148 0.91047 0.0
C2031 C 0.0719 0.4485 0.88448 0.0
H2032 H 0.30418 0.2927 0.55142 0.0
H2033 H 0.24324 0.35285 0.57385 0.0
H2034 H 0.24784 0.34019 0.6229 0.0
H2035 H 0.26734 0.31138 0.65887 0.0
H2036 H 0.32521 0.24817 0.63783 0.0
H2037 H 0.32481 0.26381 0.58867 0.0
C2038 C 0.29176 0.30291 0.567 0.0
C2039 C 0.27321 0.32361 0.55885 0.0
C2040 C 0.29447 0.29551 0.59536 0.0
C2041 C 0.25755 0.33681 0.5794 0.0
C2042 C 0.26029 0.32974 0.60751 0.0
C2043 C 0.28016 0.30114 0.6436 0.0
C2044 C 0.29612 0.27853 0.65178 0.0
C2045 C 0.27857 0.30914 0.61561 0.0
C2046 C 0.31294 0.26576 0.63199 0.0
C2047 C 0.31231 0.27442 0.60389 0.0
H2048 H 0.43702 0.47009 0.22937 0.0
H2049 H 0.37959 0.52812 0.19434 0.0
H2050 H 0.39669 0.51851 0.14746 0.0
H2051 H 0.42935 0.4961 0.1171 0.0
H2052 H 0.48839 0.43961 0.15119 0.0
H2053 H 0.46842 0.4454 0.19809 0.0
C2054 C 0.42826 0.48075 0.21152 0.0
C2055 C 0.40727 0.50015 0.21545 0.0
C2056 C 0.43816 0.4751 0.18461 0.0
C2057 C 0.39588 0.51333 0.192 0.0
C2058 C 0.40555 0.50776 0.16518 0.0
C2059 C 0.43771 0.48479 0.13477 0.0
C2060 C 0.46046 0.4677 0.13095 0.0
C2061 C 0.42683 0.48897 0.16137 0.0
C2062 C 0.47081 0.45277 0.15374 0.0
C2063 C 0.45961 0.45638 0.18049 0.0
H2064 H 0.29909 0.65092 0.91812 0.0
H2065 H 0.2304 0.59633 0.90256 0.0
H2066 H 0.22772 0.61284 0.85387 0.0
H2067 H 0.24076 0.64797 0.819 0.0
H2068 H 0.30893 0.70337 0.83591 0.0
H2069 H 0.31647 0.68088 0.88097 0.0
C2070 C 0.28394 0.64227 0.90377 0.0
C2071 C 0.26469 0.62292 0.9135 0.0
C2072 C 0.28235 0.65216 0.8764 0.0
C2073 C 0.24532 0.61132 0.89512 0.0
C2074 C 0.24371 0.62092 0.86752 0.0
C2075 C 0.25748 0.6549 0.8324 0.0
C2076 C 0.27381 0.67777 0.82456 0.0
C2077 C 0.26143 0.64217 0.85839 0.0
C2078 C 0.29585 0.68607 0.8417 0.0
C2079 C 0.30013 0.67329 0.86746 0.0
H2080 H 0.03518 0.48731 0.70514 0.0
H2081 H 0.11614 0.46537 0.67748 0.0
H2082 H 0.10259 0.4734 0.62891 0.0
H2083 H 0.06927 0.49094 0.59499 0.0
H2084 H 0.98854 0.51309 0.62264 0.0
H2085 H 0.00089 0.50144 0.67095 0.0
C2086 C 0.04983 0.48382 0.68852 0.0
C2087 C 0.0768 0.47619 0.69506 0.0
C2088 C 0.04222 0.48935 0.66081 0.0
C2089 C 0.09528 0.47136 0.67313 0.0
C2090 C 0.08766 0.47628 0.64536 0.0
C2091 C 0.0545 0.49354 0.61167 0.0
C2092 C 0.02828 0.5035 0.60552 0.0
C2093 C 0.06153 0.48624 0.63913 0.0
C2094 C 0.00899 0.50588 0.62707 0.0
C2095 C 0.01597 0.49902 0.65457 0.0
H2096 H 0.22438 0.33391 0.42207 0.0
H2097 H 0.28231 0.39768 0.39898 0.0
H2098 H 0.27669 0.38535 0.34924 0.0
H2099 H 0.25864 0.35325 0.31362 0.0
H2100 H 0.19999 0.28994 0.33725 0.0
H2101 H 0.20147 0.30624 0.38564 0.0
C2102 C 0.2357 0.34506 0.40603 0.0
C2103 C 0.2543 0.36599 0.41376 0.0
C2104 C 0.23185 0.33828 0.3778 0.0
C2105 C 0.26827 0.38112 0.39315 0.0
C2106 C 0.26494 0.37417 0.36489 0.0
C2107 C 0.24573 0.34337 0.32924 0.0
C2108 C 0.2297 0.32002 0.32203 0.0
C2109 C 0.24721 0.35238 0.35709 0.0
C2110 C 0.21266 0.30781 0.3423 0.0
C2111 C 0.21374 0.3169 0.37004 0.0
H2112 H 0.32022 0.42904 0.51846 0.0
H2113 H 0.37202 0.37158 0.47466 0.0
H2114 H 0.41238 0.39712 0.49038 0.0
H2115 H 0.43282 0.43657 0.5141 0.0
H2116 H 0.382 0.49634 0.5555 0.0
H2117 H 0.34132 0.46821 0.54421 0.0
C2118 C 0.34032 0.42215 0.51223 0.0
C2119 C 0.34299 0.39854 0.4951 0.0
C2120 C 0.36358 0.43699 0.52132 0.0
C2121 C 0.36925 0.38976 0.48758 0.0
C2122 C 0.3924 0.40425 0.4967 0.0
C2123 C 0.41289 0.44342 0.52099 0.0
C2124 C 0.41039 0.4687 0.53533 0.0
C2125 C 0.38975 0.42795 0.51334 0.0
C2126 C 0.38448 0.47694 0.54448 0.0
C2127 C 0.36122 0.46105 0.53769 0.0
H2128 H 0.8265 0.0512 0.52164 0.0
H2129 H 0.85654 0.11349 0.57896 0.0
H2130 H 0.89814 0.08676 0.58706 0.0
H2131 H 0.92875 0.0501 0.57135 0.0
H2132 H 0.90154 0.99255 0.50758 0.0
H2133 H 0.85596 0.0129 0.50816 0.0
C2134 C 0.84175 0.05823 0.53675 0.0
C2135 C 0.83849 0.08374 0.55026 0.0
C2136 C 0.86635 0.04398 0.53937 0.0
C2137 C 0.85861 0.09351 0.56892 0.0
C2138 C 0.88246 0.07844 0.57318 0.0
C2139 C 0.91266 0.04173 0.55796 0.0
C2140 C 0.91835 0.02002 0.53933 0.0
C2141 C 0.88703 0.05434 0.55751 0.0
C2142 C 0.89756 0.00947 0.52184 0.0
C2143 C 0.87155 0.02102 0.52226 0.0
H2144 H 0.64708 0.04187 0.23646 0.0
H2145 H 0.59182 0.07738 0.29675 0.0
H2146 H 0.61184 0.12313 0.28817 0.0
H2147 H 0.64724 0.15187 0.26678 0.0
H2148 H 0.7044 0.11619 0.20867 0.0
H2149 H 0.68051 0.0715 0.2124 0.0
C2150 C 0.63934 0.05957 0.24779 0.0
C2151 C 0.61826 0.05612 0.26763 0.0
C2152 C 0.65102 0.08569 0.24288 0.0
C2153 C 0.60818 0.0794 0.28162 0.0
C2154 C 0.61956 0.10555 0.27666 0.0
C2155 C 0.65435 0.13442 0.25461 0.0
C2156 C 0.67784 0.13719 0.23779 0.0
C2157 C 0.64128 0.10877 0.25775 0.0
C2158 C 0.68641 0.11457 0.22175 0.0
C2159 C 0.67295 0.08898 0.22416 0.0
H2160 H 0.64594 0.86603 0.03203 0.0
H2161 H 0.69653 0.93164 0.06643 0.0
H2162 H 0.65933 0.96443 0.0593 0.0
H2163 H 0.61489 0.97541 0.03715 0.0
H2164 H 0.56765 0.90971 -0.00211 0.0
H2165 H 0.6017 0.87628 0.01199 0.0
C2166 C 0.64877 0.88737 0.03861 0.0
C2167 C 0.67414 0.89639 0.04949 0.0
C2168 C 0.62826 0.90636 0.03246 0.0
C2169 C 0.67721 0.9241 0.05804 0.0
C2170 C 0.65611 0.94296 0.05349 0.0
C2171 C 0.61213 0.9538 0.03155 0.0
C2172 C 0.58888 0.94525 0.01604 0.0
C2173 C 0.63204 0.93453 0.0395 0.0
C2174 C 0.58552 0.91708 0.00929 0.0
C2175 C 0.60484 0.89782 0.01765 0.0
H2176 H 0.31789 0.45463 0.24819 0.0
H2177 H 0.34594 0.41875 0.32593 0.0
H2178 H 0.3308 0.37307 0.31002 0.0
H2179 H 0.31382 0.34317 0.27284 0.0
H2180 H 0.28569 0.37767 0.19456 0.0
H2181 H 0.29706 0.42441 0.21182 0.0
C2182 C 0.32007 0.43691 0.26192 0.0
C2183 C 0.33308 0.44002 0.28822 0.0
C2184 C 0.31206 0.41055 0.25226 0.0
C2185 C 0.33605 0.41685 0.30563 0.0
C2186 C 0.32761 0.39073 0.29644 0.0
C2187 C 0.31035 0.36084 0.25932 0.0
C2188 C 0.29965 0.35697 0.2321 0.0
C2189 C 0.31647 0.3873 0.2695 0.0
C2190 C 0.29437 0.38016 0.21537 0.0
C2191 C 0.30073 0.4068 0.2253 0.0
H2192 H 0.18802 0.58586 0.02259 0.0
H2193 H 0.1523 0.6436 0.96413 0.0
H2194 H 0.10676 0.62842 0.9778 0.0
H2195 H 0.07726 0.59645 0.00293 0.0
H2196 H 0.11176 0.53618 0.05906 0.0
H2197 H 0.15761 0.55564 0.05078 0.0
C2198 C 0.17028 0.59507 0.01278 0.0
C2199 C 0.17367 0.61556 0.99201 0.0
C2200 C 0.14396 0.58619 0.0207 0.0
C2201 C 0.15041 0.62761 0.97993 0.0
C2202 C 0.12429 0.61907 0.98784 0.0
C2203 C 0.09476 0.58787 0.01381 0.0
C2204 C 0.09125 0.56473 0.03129 0.0
C2205 C 0.12089 0.59815 0.00783 0.0
C2206 C 0.11397 0.55409 0.04558 0.0
C2207 C 0.14019 0.56492 0.04047 0.0
H2208 H 0.67892 0.91948 0.27665 0.0
H2209 H 0.65824 0.90946 0.18931 0.0
H2210 H 0.6927 0.87306 0.18485 0.0
H2211 H 0.72435 0.84109 0.20754 0.0
H2212 H 0.74238 0.84943 0.29599 0.0
H2213 H 0.7137 0.89038 0.29827 0.0
C2214 C 0.68239 0.90951 0.25658 0.0
C2215 C 0.66637 0.91661 0.23333 0.0
C2216 C 0.70164 0.88857 0.2545 0.0
C2217 C 0.67061 0.90399 0.20733 0.0
C2218 C 0.69017 0.88329 0.2049 0.0
C2219 C 0.72254 0.85219 0.22721 0.0
C2220 C 0.73524 0.84212 0.25168 0.0
C2221 C 0.70526 0.87497 0.22856 0.0
C2222 C 0.73262 0.85669 0.27697 0.0
C2223 C 0.71616 0.87997 0.2783 0.0
H2224 H 0.81767 0.07174 0.72366 0.0
H2225 H 0.89372 0.11724 0.71622 0.0
H2226 H 0.86948 0.16081 0.72143 0.0
H2227 H 0.82798 0.18514 0.7352 0.0
H2228 H 0.7519 0.13991 0.74361 0.0
H2229 H 0.77499 0.09677 0.73168 0.0
C2230 C 0.82879 0.09123 0.72204 0.0
C2231 C 0.85745 0.09133 0.71966 0.0
C2232 C 0.8149 0.11607 0.72653 0.0
C2233 C 0.87163 0.11671 0.71793 0.0
C2234 C 0.85785 0.14157 0.72143 0.0
C2235 C 0.81652 0.16577 0.73465 0.0
C2236 C 0.78852 0.16542 0.74118 0.0
C2237 C 0.82976 0.14133 0.72719 0.0
C2238 C 0.77362 0.14047 0.73929 0.0
C2239 C 0.78675 0.11592 0.73223 0.0
loop_
_geom_bond_atom_site_label_1
_geom_bond_atom_site_label_2
_geom_bond_distance
_geom_bond_site_symmetry_2
_ccdc_geom_bond_type
Co0 O1 2.224 . S
Co0 O2 2.096 . S
Co0 O4 1.998 1_655 S
Co0 O10 2.020 1_655 S
Co0 O12 2.138 . S
Co0 O13 2.242 1_655 S
O1 Co0 2.224 . S
O1 C8 1.247 . S
O2 Co0 2.096 . S
O2 C8 1.261 . S
C3 O12 1.247 1_455 S
C3 O13 1.272 . S
O4 Co0 1.998 1_455 S
O4 C9 1.259 . S
Co5 O6 2.061 . S
Co5 O11 2.052 . S
Co5 O13 2.135 . S
O6 Co5 2.061 . S
O6 C9 1.235 . S
C7 O10 1.238 . S
C7 O11 1.241 . S
C8 O1 1.247 . S
C8 O2 1.261 . S
C9 O4 1.259 . S
C9 O6 1.235 . S
O10 Co0 2.020 1_455 S
O10 C7 1.238 . S
O11 Co5 2.052 . S
O11 C7 1.241 . S
O12 Co0 2.138 . S
O12 C3 1.247 1_655 S
O13 Co0 2.242 1_455 S
O13 C3 1.272 . S
O13 Co5 2.135 . S
Co14 O15 2.216 . S
Co14 O16 2.091 . S
Co14 O18 2.004 1_455 S
Co14 O24 2.021 . S
Co14 O26 2.137 . S
Co14 O27 2.244 1_455 S
O15 Co14 2.216 . S
O15 C22 1.247 . S
O16 Co14 2.091 . S
O16 C22 1.261 . S
C17 O26 1.247 . S
C17 O27 1.272 1_455 S
O18 Co14 2.004 1_655 S
O18 C23 1.259 . S
Co19 O20 2.061 . S
Co19 O25 2.052 . S
Co19 O27 2.135 . S
O20 Co19 2.061 . S
O20 C23 1.235 . S
C21 O24 1.238 . S
C21 O25 1.241 1_455 S
C22 O15 1.247 . S
C22 O16 1.261 . S
C23 O18 1.259 . S
C23 O20 1.235 . S
O24 Co14 2.021 . S
O24 C21 1.238 . S
O25 Co19 2.052 . S
O25 C21 1.241 1_655 S
O26 Co14 2.137 . S
O26 C17 1.247 . S
O27 Co14 2.244 1_655 S
O27 C17 1.272 1_655 S
O27 Co19 2.135 . S
Co28 O29 2.216 . S
Co28 O30 2.091 . S
Co28 O32 2.004 . S
Co28 O38 2.021 . S
Co28 O40 2.137 . S
Co28 O41 2.244 . S
O29 Co28 2.216 . S
O29 C36 1.247 . S
O30 Co28 2.091 . S
O30 C36 1.261 . S
C31 O40 1.247 . S
C31 O41 1.272 . S
O32 Co28 2.004 . S
O32 C37 1.259 . S
Co33 O34 2.061 . S
Co33 O39 2.052 . S
Co33 O41 2.135 . S
O34 Co33 2.061 . S
O34 C37 1.235 . S
C35 O38 1.238 . S
C35 O39 1.241 . S
C36 O29 1.247 . S
C36 O30 1.261 . S
C37 O32 1.259 . S
C37 O34 1.235 . S
O38 Co28 2.021 . S
O38 C35 1.238 . S
O39 Co33 2.052 . S
O39 C35 1.241 . S
O40 Co28 2.137 . S
O40 C31 1.247 . S
O41 Co28 2.244 . S
O41 C31 1.272 . S
O41 Co33 2.135 . S
Co42 O43 2.216 . S
Co42 O44 2.091 . S
Co42 O46 2.004 . S
Co42 O52 2.021 . S
Co42 O54 2.137 . S
Co42 O55 2.244 . S
O43 Co42 2.216 . S
O43 C50 1.247 . S
O44 Co42 2.091 . S
O44 C50 1.261 . S
C45 O54 1.247 . S
C45 O55 1.272 . S
O46 Co42 2.004 . S
O46 C51 1.259 . S
Co47 O48 2.061 . S
Co47 O53 2.052 . S
Co47 O55 2.135 . S
O48 Co47 2.061 . S
O48 C51 1.235 . S
C49 O52 1.238 . S
C49 O53 1.241 . S
C50 O43 1.247 . S
C50 O44 1.261 . S
C51 O46 1.259 . S
C51 O48 1.235 . S
O52 Co42 2.021 . S
O52 C49 1.238 . S
O53 Co47 2.052 . S
O53 C49 1.241 . S
O54 Co42 2.137 . S
O54 C45 1.247 . S
O55 Co42 2.244 . S
O55 C45 1.272 . S
O55 Co47 2.135 . S
Co56 O57 2.216 1_545 S
Co56 O58 2.091 1_545 S
Co56 O60 2.004 . S
Co56 O66 2.021 . S
Co56 O68 2.137 . S
Co56 O69 2.244 . S
O57 Co56 2.216 1_565 S
O57 C64 1.247 . S
O58 Co56 2.091 1_565 S
O58 C64 1.261 . S
C59 O68 1.247 . S
C59 O69 1.272 . S
O60 Co56 2.004 . S
O60 C65 1.259 . S
Co61 O62 2.061 . S
Co61 O67 2.052 . S
Co61 O69 2.135 . S
O62 Co61 2.061 . S
O62 C65 1.235 . S
C63 O66 1.238 . S
C63 O67 1.241 . S
C64 O57 1.247 . S
C64 O58 1.261 . S
C65 O60 1.259 . S
C65 O62 1.235 . S
O66 Co56 2.021 . S
O66 C63 1.238 . S
O67 Co61 2.052 . S
O67 C63 1.241 . S
O68 Co56 2.137 . S
O68 C59 1.247 . S
O69 Co56 2.244 . S
O69 C59 1.272 . S
O69 Co61 2.135 . S
Co70 O71 2.216 . S
Co70 O72 2.091 . S
Co70 O74 2.004 . S
Co70 O80 2.021 . S
Co70 O82 2.137 . S
Co70 O83 2.244 . S
O71 Co70 2.216 . S
O71 C78 1.247 . S
O72 Co70 2.091 . S
O72 C78 1.261 . S
C73 O82 1.247 . S
C73 O83 1.272 . S
O74 Co70 2.004 . S
O74 C79 1.259 . S
Co75 O76 2.061 . S
Co75 O81 2.052 . S
Co75 O83 2.135 . S
O76 Co75 2.061 . S
O76 C79 1.235 . S
C77 O80 1.238 . S
C77 O81 1.241 . S
C78 O71 1.247 . S
C78 O72 1.261 . S
C79 O74 1.259 . S
C79 O76 1.235 . S
O80 Co70 2.021 . S
O80 C77 1.238 . S
O81 Co75 2.052 . S
O81 C77 1.241 . S
O82 Co70 2.137 . S
O82 C73 1.247 . S
O83 Co70 2.244 . S
O83 C73 1.272 . S
O83 Co75 2.135 . S
Co84 O85 2.216 . S
Co84 O86 2.091 . S
Co84 O88 2.004 1_545 S
Co84 O94 2.021 . S
Co84 O96 2.137 . S
Co84 O97 2.244 1_545 S
O85 Co84 2.216 . S
O85 C92 1.247 . S
O86 Co84 2.091 . S
O86 C92 1.261 . S
C87 O96 1.249 1_565 S
C87 O97 1.270 . S
O88 Co84 2.004 1_565 S
O88 C93 1.259 . S
Co89 O90 2.061 . S
Co89 O95 2.052 . S
Co89 O97 2.135 . S
O90 Co89 2.061 . S
O90 C93 1.235 . S
C91 O94 1.238 1_565 S
C91 O95 1.241 . S
C92 O85 1.247 . S
C92 O86 1.261 . S
C93 O88 1.259 . S
C93 O90 1.235 . S
O94 Co84 2.021 . S
O94 C91 1.238 1_545 S
O95 Co89 2.052 . S
O95 C91 1.241 . S
O96 Co84 2.137 . S
O96 C87 1.249 1_545 S
O97 Co84 2.244 1_565 S
O97 C87 1.270 . S
O97 Co89 2.135 . S
Co98 O99 2.216 . S
Co98 O100 2.091 . S
Co98 O102 2.004 . S
Co98 O108 2.021 . S
Co98 O110 2.137 1_554 S
Co98 O111 2.244 1_554 S
O99 Co98 2.216 . S
O99 C106 1.247 . S
O100 Co98 2.091 . S
O100 C106 1.261 . S
C101 O110 1.247 . S
C101 O111 1.272 . S
O102 Co98 2.004 . S
O102 C107 1.259 . S
Co103 O104 2.061 . S
Co103 O109 2.052 . S
Co103 O111 2.135 1_554 S
O104 Co103 2.061 . S
O104 C107 1.235 . S
C105 O108 1.238 . S
C105 O109 1.241 . S
C106 O99 1.247 . S
C106 O100 1.261 . S
C107 O102 1.259 . S
C107 O104 1.235 . S
O108 Co98 2.021 . S
O108 C105 1.238 . S
O109 Co103 2.052 . S
O109 C105 1.241 . S
O110 Co98 2.137 1_556 S
O110 C101 1.247 . S
O111 Co98 2.244 1_556 S
O111 C101 1.272 . S
O111 Co103 2.135 1_556 S
Co112 O113 2.216 . S
Co112 O114 2.091 . S
Co112 O116 2.004 . S
Co112 O122 2.021 . S
Co112 O124 2.137 1_554 S
Co112 O125 2.244 1_554 S
O113 Co112 2.216 . S
O113 C120 1.247 . S
O114 Co112 2.091 . S
O114 C120 1.261 . S
C115 O124 1.247 . S
C115 O125 1.272 . S
O116 Co112 2.004 . S
O116 C121 1.259 . S
Co117 O118 2.061 . S
Co117 O123 2.052 . S
Co117 O125 2.135 1_554 S
O118 Co117 2.061 . S
O118 C121 1.235 . S
C119 O122 1.238 . S
C119 O123 1.241 . S
C120 O113 1.247 . S
C120 O114 1.261 . S
C121 O116 1.259 . S
C121 O118 1.235 . S
O122 Co112 2.021 . S
O122 C119 1.238 . S
O123 Co117 2.052 . S
O123 C119 1.241 . S
O124 Co112 2.137 1_556 S
O124 C115 1.247 . S
O125 Co112 2.244 1_556 S
O125 C115 1.272 . S
O125 Co117 2.135 1_556 S
Co126 O127 2.216 . S
Co126 O128 2.091 . S
Co126 O130 2.004 . S
Co126 O136 2.021 . S
Co126 O138 2.137 . S
Co126 O139 2.244 . S
O127 Co126 2.216 . S
O127 C134 1.247 . S
O128 Co126 2.091 . S
O128 C134 1.261 . S
C129 O138 1.247 . S
C129 O139 1.272 . S
O130 Co126 2.004 . S
O130 C135 1.259 . S
Co131 O132 2.061 . S
Co131 O137 2.052 . S
Co131 O139 2.135 . S
O132 Co131 2.061 . S
O132 C135 1.235 . S
C133 O136 1.238 . S
C133 O137 1.241 . S
C134 O127 1.247 . S
C134 O128 1.261 . S
C135 O130 1.259 . S
C135 O132 1.235 . S
O136 Co126 2.021 . S
O136 C133 1.238 . S
O137 Co131 2.052 . S
O137 C133 1.241 . S
O138 Co126 2.137 . S
O138 C129 1.247 . S
O139 Co126 2.244 . S
O139 C129 1.272 . S
O139 Co131 2.135 . S
Co140 O141 2.216 . S
Co140 O142 2.091 . S
Co140 O144 2.004 . S
Co140 O150 2.021 . S
Co140 O152 2.137 . S
Co140 O153 2.244 . S
O141 Co140 2.216 . S
O141 C148 1.247 . S
O142 Co140 2.091 . S
O142 C148 1.261 . S
C143 O152 1.247 . S
C143 O153 1.272 . S
O144 Co140 2.004 . S
O144 C149 1.259 . S
Co145 O146 2.061 . S
Co145 O151 2.052 . S
Co145 O153 2.135 . S
O146 Co145 2.061 . S
O146 C149 1.235 . S
C147 O150 1.238 . S
C147 O151 1.241 . S
C148 O141 1.247 . S
C148 O142 1.261 . S
C149 O144 1.259 . S
C149 O146 1.235 . S
O150 Co140 2.021 . S
O150 C147 1.238 . S
O151 Co145 2.052 . S
O151 C147 1.241 . S
O152 Co140 2.137 . S
O152 C143 1.247 . S
O153 Co140 2.244 . S
O153 C143 1.272 . S
O153 Co145 2.135 . S
Co154 O155 2.216 . S
Co154 O156 2.091 . S
Co154 O158 2.004 . S
Co154 O164 2.021 . S
Co154 O166 2.137 . S
Co154 O167 2.244 . S
O155 Co154 2.216 . S
O155 C162 1.247 . S
O156 Co154 2.091 . S
O156 C162 1.261 . S
C157 O166 1.247 . S
C157 O167 1.272 . S
O158 Co154 2.004 . S
O158 C163 1.259 . S
Co159 O160 2.061 . S
Co159 O165 2.052 . S
Co159 O167 2.135 . S
O160 Co159 2.061 . S
O160 C163 1.235 . S
C161 O164 1.238 . S
C161 O165 1.241 . S
C162 O155 1.247 . S
C162 O156 1.261 . S
C163 O158 1.259 . S
C163 O160 1.235 . S
O164 Co154 2.021 . S
O164 C161 1.238 . S
O165 Co159 2.052 . S
O165 C161 1.241 . S
O166 Co154 2.137 . S
O166 C157 1.247 . S
O167 Co154 2.244 . S
O167 C157 1.272 . S
O167 Co159 2.135 . S
Co168 O169 2.216 . S
Co168 O170 2.091 . S
Co168 O172 2.004 1_455 S
Co168 O178 2.021 . S
Co168 O180 2.137 . S
Co168 O181 2.244 1_455 S
O169 Co168 2.216 . S
O169 C176 1.247 . S
O170 Co168 2.091 . S
O170 C176 1.261 . S
C171 O180 1.247 . S
C171 O181 1.272 1_455 S
O172 Co168 2.004 1_655 S
O172 C177 1.259 . S
Co173 O174 2.061 . S
Co173 O179 2.052 . S
Co173 O181 2.135 . S
O174 Co173 2.061 . S
O174 C177 1.235 . S
C175 O178 1.239 . S
C175 O179 1.238 1_455 S
C176 O169 1.247 . S
C176 O170 1.261 . S
C177 O172 1.259 . S
C177 O174 1.235 . S
O178 Co168 2.021 . S
O178 C175 1.239 . S
O179 Co173 2.052 . S
O179 C175 1.238 1_655 S
O180 Co168 2.137 . S
O180 C171 1.247 . S
O181 Co168 2.244 1_655 S
O181 C171 1.272 1_655 S
O181 Co173 2.135 . S
Co182 O183 2.200 1_455 S
Co182 O184 2.080 1_455 S
Co182 O186 2.019 . S
Co182 O192 2.022 . S
Co182 O194 2.136 1_455 S
Co182 O195 2.249 . S
O183 Co182 2.200 1_655 S
O183 C190 1.247 . S
O184 Co182 2.080 1_655 S
O184 C190 1.261 . S
C185 O194 1.247 1_455 S
C185 O195 1.272 . S
O186 Co182 2.019 . S
O186 C191 1.259 . S
Co187 O188 2.061 . S
Co187 O193 2.052 . S
Co187 O195 2.135 . S
O188 Co187 2.061 . S
O188 C191 1.235 . S
C189 O192 1.238 . S
C189 O193 1.241 . S
C190 O183 1.247 . S
C190 O184 1.261 . S
C191 O186 1.259 . S
C191 O188 1.235 . S
O192 Co182 2.022 . S
O192 C189 1.238 . S
O193 Co187 2.052 . S
O193 C189 1.241 . S
O194 Co182 2.136 1_655 S
O194 C185 1.247 1_655 S
O195 Co182 2.249 . S
O195 C185 1.272 . S
O195 Co187 2.135 . S
Co196 O197 2.216 . S
Co196 O198 2.091 . S
Co196 O200 2.004 . S
Co196 O206 2.021 . S
Co196 O208 2.137 . S
Co196 O209 2.244 . S
O197 Co196 2.216 . S
O197 C204 1.247 . S
O198 Co196 2.091 . S
O198 C204 1.261 . S
C199 O208 1.247 . S
C199 O209 1.272 . S
O200 Co196 2.004 . S
O200 C205 1.259 . S
Co201 O202 2.061 . S
Co201 O207 2.052 . S
Co201 O209 2.135 . S
O202 Co201 2.061 . S
O202 C205 1.235 . S
C203 O206 1.238 . S
C203 O207 1.241 . S
C204 O197 1.247 . S
C204 O198 1.261 . S
C205 O200 1.259 . S
C205 O202 1.235 . S
O206 Co196 2.021 . S
O206 C203 1.238 . S
O207 Co201 2.052 . S
O207 C203 1.241 . S
O208 Co196 2.137 . S
O208 C199 1.247 . S
O209 Co196 2.244 . S
O209 C199 1.272 . S
O209 Co201 2.135 . S
Co210 O211 2.216 . S
Co210 O212 2.091 . S
Co210 O214 2.004 . S
Co210 O220 2.021 . S
Co210 O222 2.137 . S
Co210 O223 2.244 . S
O211 Co210 2.216 . S
O211 C218 1.247 . S
O212 Co210 2.091 . S
O212 C218 1.261 . S
C213 O222 1.247 . S
C213 O223 1.272 . S
O214 Co210 2.004 . S
O214 C219 1.259 . S
Co215 O216 2.061 . S
Co215 O221 2.052 . S
Co215 O223 2.135 . S
O216 Co215 2.061 . S
O216 C219 1.235 . S
C217 O220 1.238 . S
C217 O221 1.241 . S
C218 O211 1.247 . S
C218 O212 1.261 . S
C219 O214 1.259 . S
C219 O216 1.235 . S
O220 Co210 2.021 . S
O220 C217 1.238 . S
O221 Co215 2.052 . S
O221 C217 1.241 . S
O222 Co210 2.137 . S
O222 C213 1.247 . S
O223 Co210 2.244 . S
O223 C213 1.272 . S
O223 Co215 2.135 . S
Co224 O225 2.216 . S
Co224 O226 2.091 . S
Co224 O228 2.004 1_545 S
Co224 O234 2.021 . S
Co224 O236 2.137 . S
Co224 O237 2.244 . S
O225 Co224 2.216 . S
O225 C232 1.247 . S
O226 Co224 2.091 . S
O226 C232 1.261 . S
C227 O236 1.247 . S
C227 O237 1.272 . S
O228 Co224 2.004 1_565 S
O228 C233 1.259 . S
Co229 O230 2.061 . S
Co229 O235 2.052 1_565 S
Co229 O237 2.135 1_565 S
O230 Co229 2.061 . S
O230 C233 1.235 . S
C231 O234 1.238 . S
C231 O235 1.241 . S
C232 O225 1.247 . S
C232 O226 1.261 . S
C233 O228 1.259 . S
C233 O230 1.235 . S
O234 Co224 2.021 . S
O234 C231 1.238 . S
O235 Co229 2.052 1_545 S
O235 C231 1.241 . S
O236 Co224 2.137 . S
O236 C227 1.247 . S
O237 Co224 2.244 . S
O237 C227 1.272 . S
O237 Co229 2.135 1_545 S
Co238 O239 2.216 . S
Co238 O240 2.091 . S
Co238 O242 2.004 . S
Co238 O248 2.021 . S
Co238 O250 2.137 . S
Co238 O251 2.244 . S
O239 Co238 2.216 . S
O239 C246 1.247 . S
O240 Co238 2.091 . S
O240 C246 1.261 . S
C241 O250 1.247 . S
C241 O251 1.272 . S
O242 Co238 2.004 . S
O242 C247 1.259 . S
Co243 O244 2.061 . S
Co243 O249 2.052 . S
Co243 O251 2.135 . S
O244 Co243 2.061 . S
O244 C247 1.235 . S
C245 O248 1.238 . S
C245 O249 1.241 . S
C246 O239 1.247 . S
C246 O240 1.261 . S
C247 O242 1.259 . S
C247 O244 1.235 . S
O248 Co238 2.021 . S
O248 C245 1.238 . S
O249 Co243 2.052 . S
O249 C245 1.241 . S
O250 Co238 2.137 . S
O250 C241 1.247 . S
O251 Co238 2.244 . S
O251 C241 1.272 . S
O251 Co243 2.135 . S
Co252 O253 2.216 . S
Co252 O254 2.091 . S
Co252 O256 2.004 1_565 S
Co252 O262 2.021 . S
Co252 O264 2.137 . S
Co252 O265 2.244 1_565 S
O253 Co252 2.216 . S
O253 C260 1.247 . S
O254 Co252 2.091 . S
O254 C260 1.261 . S
C255 O264 1.247 1_545 S
C255 O265 1.272 . S
O256 Co252 2.004 1_545 S
O256 C261 1.259 . S
Co257 O258 2.061 . S
Co257 O263 2.052 . S
Co257 O265 2.135 . S
O258 Co257 2.061 . S
O258 C261 1.235 . S
C259 O262 1.238 1_545 S
C259 O263 1.241 . S
C260 O253 1.247 . S
C260 O254 1.261 . S
C261 O256 1.259 . S
C261 O258 1.235 . S
O262 Co252 2.021 . S
O262 C259 1.238 1_565 S
O263 Co257 2.052 . S
O263 C259 1.241 . S
O264 Co252 2.137 . S
O264 C255 1.247 1_565 S
O265 Co252 2.244 1_545 S
O265 C255 1.272 . S
O265 Co257 2.135 . S
Co266 O267 2.216 . S
Co266 O268 2.091 1_556 S
Co266 O270 2.004 . S
Co266 O276 2.021 1_556 S
Co266 O278 2.137 . S
Co266 O279 2.244 . S
O267 Co266 2.216 . S
O267 C274 1.245 1_556 S
O268 Co266 2.091 1_554 S
O268 C274 1.261 . S
C269 O278 1.247 . S
C269 O279 1.272 . S
O270 Co266 2.004 . S
O270 C275 1.259 1_556 S
Co271 O272 2.061 . S
Co271 O277 2.052 . S
Co271 O279 2.135 1_554 S
O272 Co271 2.061 . S
O272 C275 1.235 . S
C273 O276 1.238 . S
C273 O277 1.241 . S
C274 O267 1.245 1_554 S
C274 O268 1.261 . S
C275 O270 1.259 1_554 S
C275 O272 1.235 . S
O276 Co266 2.021 1_554 S
O276 C273 1.238 . S
O277 Co271 2.052 . S
O277 C273 1.241 . S
O278 Co266 2.137 . S
O278 C269 1.247 . S
O279 Co266 2.244 . S
O279 C269 1.272 . S
O279 Co271 2.135 1_556 S
Co280 O281 2.217 . S
Co280 O282 2.091 1_556 S
Co280 O284 2.004 . S
Co280 O290 2.021 1_556 S
Co280 O292 2.137 . S
Co280 O293 2.244 . S
O281 Co280 2.217 . S
O281 C288 1.243 1_556 S
O282 Co280 2.091 1_554 S
O282 C288 1.261 . S
C283 O292 1.247 . S
C283 O293 1.272 . S
O284 Co280 2.004 . S
O284 C289 1.259 1_556 S
Co285 O286 2.064 . S
Co285 O291 2.077 . S
Co285 O293 2.118 1_554 S
O286 Co285 2.064 . S
O286 C289 1.235 . S
C287 O290 1.238 . S
C287 O291 1.241 . S
C288 O281 1.243 1_554 S
C288 O282 1.261 . S
C289 O284 1.259 1_554 S
C289 O286 1.235 . S
O290 Co280 2.021 1_554 S
O290 C287 1.238 . S
O291 Co285 2.077 . S
O291 C287 1.241 . S
O292 Co280 2.137 . S
O292 C283 1.247 . S
O293 Co280 2.244 . S
O293 C283 1.272 . S
O293 Co285 2.118 1_556 S
Co294 O295 2.216 . S
Co294 O296 2.091 . S
Co294 O298 2.004 . S
Co294 O304 2.021 . S
Co294 O306 2.137 . S
Co294 O307 2.244 . S
O295 Co294 2.216 . S
O295 C302 1.247 . S
O296 Co294 2.091 . S
O296 C302 1.261 . S
C297 O306 1.247 . S
C297 O307 1.272 . S
O298 Co294 2.004 . S
O298 C303 1.259 . S
Co299 O300 2.061 . S
Co299 O305 2.052 . S
Co299 O307 2.135 . S
O300 Co299 2.061 . S
O300 C303 1.235 . S
C301 O304 1.238 . S
C301 O305 1.241 . S
C302 O295 1.247 . S
C302 O296 1.261 . S
C303 O298 1.259 . S
C303 O300 1.235 . S
O304 Co294 2.021 . S
O304 C301 1.238 . S
O305 Co299 2.052 . S
O305 C301 1.241 . S
O306 Co294 2.137 . S
O306 C297 1.247 . S
O307 Co294 2.244 . S
O307 C297 1.272 . S
O307 Co299 2.135 . S
Co308 O309 2.216 . S
Co308 O310 2.091 . S
Co308 O312 2.004 . S
Co308 O318 2.021 . S
Co308 O320 2.137 . S
Co308 O321 2.244 . S
O309 Co308 2.216 . S
O309 C316 1.247 . S
O310 Co308 2.091 . S
O310 C316 1.261 . S
C311 O320 1.247 . S
C311 O321 1.272 . S
O312 Co308 2.004 . S
O312 C317 1.259 . S
Co313 O314 2.061 . S
Co313 O319 2.052 . S
Co313 O321 2.135 . S
O314 Co313 2.061 . S
O314 C317 1.235 . S
C315 O318 1.238 . S
C315 O319 1.241 . S
C316 O309 1.247 . S
C316 O310 1.261 . S
C317 O312 1.259 . S
C317 O314 1.235 . S
O318 Co308 2.021 . S
O318 C315 1.238 . S
O319 Co313 2.052 . S
O319 C315 1.241 . S
O320 Co308 2.137 . S
O320 C311 1.247 . S
O321 Co308 2.244 . S
O321 C311 1.272 . S
O321 Co313 2.135 . S
Co322 O323 2.216 . S
Co322 O324 2.091 . S
Co322 O326 2.004 . S
Co322 O332 2.021 . S
Co322 O334 2.137 . S
Co322 O335 2.244 . S
O323 Co322 2.216 . S
O323 C330 1.247 . S
O324 Co322 2.091 . S
O324 C330 1.261 . S
C325 O334 1.247 . S
C325 O335 1.272 . S
O326 Co322 2.004 . S
O326 C331 1.259 . S
Co327 O328 2.061 . S
Co327 O333 2.052 . S
Co327 O335 2.135 . S
O328 Co327 2.061 . S
O328 C331 1.235 . S
C329 O332 1.238 . S
C329 O333 1.241 . S
C330 O323 1.247 . S
C330 O324 1.261 . S
C331 O326 1.259 . S
C331 O328 1.235 . S
O332 Co322 2.021 . S
O332 C329 1.238 . S
O333 Co327 2.052 . S
O333 C329 1.241 . S
O334 Co322 2.137 . S
O334 C325 1.247 . S
O335 Co322 2.244 . S
O335 C325 1.272 . S
O335 Co327 2.135 . S
O336 Zn337 1.953 . S
O336 C352 1.225 1_455 S
Zn337 O336 1.953 . S
Zn337 O338 1.954 . S
Zn337 O344 1.919 1_554 S
Zn337 O349 1.924 1_454 S
O338 Zn337 1.954 . S
O338 Zn339 1.935 1_545 S
O338 Zn340 1.941 1_455 S
O338 Zn341 1.937 1_444 S
Zn339 O338 1.935 1_565 S
Zn339 O342 1.933 . S
Zn339 O345 1.941 1_565 S
Zn339 O346 1.965 . S
Zn340 O338 1.941 1_655 S
Zn340 O347 1.938 . S
Zn340 O348 1.906 1_545 S
Zn340 O358 1.953 . S
Zn341 O338 1.937 1_666 S
Zn341 O343 1.932 . S
Zn341 O350 1.977 1_556 S
Zn341 O351 1.910 1_565 S
O342 Zn339 1.933 . S
O342 C353 1.226 1_554 S
O343 Zn341 1.932 . S
O343 C353 1.307 1_655 S
O344 Zn337 1.919 1_556 S
O344 C355 1.253 1_556 S
O345 Zn339 1.941 1_545 S
O345 C355 1.283 . S
O346 Zn339 1.965 . S
O346 C354 1.323 . S
O347 Zn340 1.938 . S
O347 C354 1.234 1_645 S
O348 Zn340 1.906 1_565 S
O348 C356 1.304 . S
O349 Zn337 1.924 1_656 S
O349 C357 1.311 . S
O350 Zn341 1.977 1_554 S
O350 C356 1.272 . S
O351 Zn341 1.910 1_545 S
O351 C357 1.231 . S
C352 O336 1.225 1_655 S
C352 O358 1.298 . S
C353 O342 1.226 1_556 S
C353 O343 1.307 1_455 S
C354 O346 1.323 . S
C354 O347 1.234 1_465 S
C355 O344 1.253 1_554 S
C355 O345 1.283 . S
C356 O348 1.304 . S
C356 O350 1.272 . S
C357 O349 1.311 . S
C357 O351 1.231 . S
O358 Zn340 1.953 . S
O358 C352 1.298 . S
O359 Zn360 1.953 . S
O359 C375 1.225 . S
Zn360 O359 1.953 . S
Zn360 O361 1.949 . S
Zn360 O367 1.919 . S
Zn360 O372 1.924 . S
O361 Zn360 1.949 . S
O361 Zn362 1.923 . S
O361 Zn363 1.950 . S
O361 Zn364 1.945 . S
Zn362 O361 1.923 . S
Zn362 O365 1.933 . S
Zn362 O368 1.941 . S
Zn362 O369 1.965 . S
Zn363 O361 1.950 . S
Zn363 O370 1.938 . S
Zn363 O371 1.906 . S
Zn363 O381 1.953 . S
Zn364 O361 1.945 . S
Zn364 O366 1.932 . S
Zn364 O373 1.977 . S
Zn364 O374 1.910 . S
O365 Zn362 1.933 . S
O365 C376 1.226 . S
O366 Zn364 1.932 . S
O366 C376 1.307 . S
O367 Zn360 1.919 . S
O367 C378 1.253 . S
O368 Zn362 1.941 . S
O368 C378 1.283 . S
O369 Zn362 1.965 . S
O369 C377 1.303 . S
O370 Zn363 1.938 . S
O370 C377 1.247 . S
O371 Zn363 1.906 . S
O371 C379 1.304 . S
O372 Zn360 1.924 . S
O372 C380 1.311 . S
O373 Zn364 1.977 . S
O373 C379 1.272 . S
O374 Zn364 1.910 . S
O374 C380 1.231 . S
C375 O359 1.225 . S
C375 O381 1.298 . S
C376 O365 1.226 . S
C376 O366 1.307 . S
C377 O369 1.303 . S
C377 O370 1.247 . S
C378 O367 1.253 . S
C378 O368 1.283 . S
C379 O371 1.304 . S
C379 O373 1.272 . S
C380 O372 1.311 . S
C380 O374 1.231 . S
O381 Zn363 1.953 . S
O381 C375 1.298 . S
O382 Zn383 1.953 . S
O382 C398 1.225 . S
Zn383 O382 1.953 . S
Zn383 O384 1.949 1_565 S
Zn383 O390 1.919 . S
Zn383 O395 1.924 . S
O384 Zn383 1.949 1_545 S
O384 Zn385 1.923 . S
O384 Zn386 1.950 . S
O384 Zn387 1.945 . S
Zn385 O384 1.923 . S
Zn385 O388 1.933 . S
Zn385 O391 1.941 . S
Zn385 O392 1.965 . S
Zn386 O384 1.950 . S
Zn386 O393 1.938 . S
Zn386 O394 1.906 . S
Zn386 O404 1.953 1_545 S
Zn387 O384 1.945 . S
Zn387 O389 1.932 . S
Zn387 O396 1.977 . S
Zn387 O397 1.910 . S
O388 Zn385 1.933 . S
O388 C399 1.226 . S
O389 Zn387 1.932 . S
O389 C399 1.307 . S
O390 Zn383 1.919 . S
O390 C401 1.253 . S
O391 Zn385 1.941 . S
O391 C401 1.283 1_545 S
O392 Zn385 1.965 . S
O392 C400 1.303 . S
O393 Zn386 1.938 . S
O393 C400 1.247 . S
O394 Zn386 1.906 . S
O394 C402 1.304 . S
O395 Zn383 1.924 . S
O395 C403 1.311 . S
O396 Zn387 1.977 . S
O396 C402 1.272 . S
O397 Zn387 1.910 . S
O397 C403 1.231 1_545 S
C398 O382 1.225 . S
C398 O404 1.298 . S
C399 O388 1.226 . S
C399 O389 1.307 . S
C400 O392 1.303 . S
C400 O393 1.247 . S
C401 O390 1.253 . S
C401 O391 1.283 1_565 S
C402 O394 1.304 . S
C402 O396 1.272 . S
C403 O395 1.311 . S
C403 O397 1.231 1_565 S
O404 Zn386 1.953 1_565 S
O404 C398 1.298 . S
O405 Zn406 1.953 . S
O405 C421 1.225 . S
Zn406 O405 1.953 . S
Zn406 O407 1.949 . S
Zn406 O413 1.919 . S
Zn406 O418 1.924 . S
O407 Zn406 1.949 . S
O407 Zn408 1.923 . S
O407 Zn409 1.950 . S
O407 Zn410 1.945 . S
Zn408 O407 1.923 . S
Zn408 O411 1.933 . S
Zn408 O414 1.941 . S
Zn408 O415 1.965 . S
Zn409 O407 1.950 . S
Zn409 O416 1.938 . S
Zn409 O417 1.906 . S
Zn409 O427 1.953 . S
Zn410 O407 1.945 . S
Zn410 O412 1.932 . S
Zn410 O419 1.977 . S
Zn410 O420 1.910 . S
O411 Zn408 1.933 . S
O411 C422 1.226 . S
O412 Zn410 1.932 . S
O412 C422 1.307 . S
O413 Zn406 1.919 . S
O413 C424 1.253 . S
O414 Zn408 1.941 . S
O414 C424 1.283 . S
O415 Zn408 1.965 . S
O415 C423 1.303 . S
O416 Zn409 1.938 . S
O416 C423 1.247 . S
O417 Zn409 1.906 . S
O417 C425 1.304 . S
O418 Zn406 1.924 . S
O418 C426 1.311 . S
O419 Zn410 1.977 . S
O419 C425 1.272 . S
O420 Zn410 1.910 . S
O420 C426 1.231 . S
C421 O405 1.225 . S
C421 O427 1.298 . S
C422 O411 1.226 . S
C422 O412 1.307 . S
C423 O415 1.303 . S
C423 O416 1.247 . S
C424 O413 1.253 . S
C424 O414 1.283 . S
C425 O417 1.304 . S
C425 O419 1.272 . S
C426 O418 1.311 . S
C426 O420 1.231 . S
O427 Zn409 1.953 . S
O427 C421 1.298 . S
O428 Zn429 1.947 1_445 S
O428 C444 1.225 . S
Zn429 O428 1.947 1_665 S
Zn429 O430 1.942 1_665 S
Zn429 O436 1.939 . S
Zn429 O441 1.915 1_565 S
O430 Zn429 1.942 1_445 S
O430 Zn431 1.923 1_545 S
O430 Zn432 1.950 . S
O430 Zn433 1.945 1_455 S
Zn431 O430 1.923 1_565 S
Zn431 O434 1.933 . S
Zn431 O437 1.941 . S
Zn431 O438 1.965 . S
Zn432 O430 1.950 . S
Zn432 O439 1.938 . S
Zn432 O440 1.906 . S
Zn432 O450 1.953 . S
Zn433 O430 1.945 1_655 S
Zn433 O435 1.932 . S
Zn433 O442 1.977 . S
Zn433 O443 1.910 . S
O434 Zn431 1.933 . S
O434 C445 1.226 1_455 S
O435 Zn433 1.932 . S
O435 C445 1.307 1_545 S
O436 Zn429 1.939 . S
O436 C447 1.253 . S
O437 Zn431 1.941 . S
O437 C447 1.283 1_455 S
O438 Zn431 1.965 . S
O438 C446 1.303 . S
O439 Zn432 1.938 . S
O439 C446 1.247 1_545 S
O440 Zn432 1.906 . S
O440 C448 1.304 . S
O441 Zn429 1.915 1_545 S
O441 C449 1.311 . S
O442 Zn433 1.977 . S
O442 C448 1.272 1_655 S
O443 Zn433 1.910 . S
O443 C449 1.231 . S
C444 O428 1.225 . S
C444 O450 1.298 . S
C445 O434 1.226 1_655 S
C445 O435 1.307 1_565 S
C446 O438 1.303 . S
C446 O439 1.247 1_565 S
C447 O436 1.253 . S
C447 O437 1.283 1_655 S
C448 O440 1.304 . S
C448 O442 1.272 1_455 S
C449 O441 1.311 . S
C449 O443 1.231 . S
O450 Zn432 1.953 . S
O450 C444 1.298 . S
O451 Zn452 1.953 . S
O451 C467 1.225 . S
Zn452 O451 1.953 . S
Zn452 O453 1.949 . S
Zn452 O459 1.919 . S
Zn452 O464 1.924 . S
O453 Zn452 1.949 . S
O453 Zn454 1.923 . S
O453 Zn455 1.950 . S
O453 Zn456 1.945 . S
Zn454 O453 1.923 . S
Zn454 O457 1.933 . S
Zn454 O460 1.941 . S
Zn454 O461 1.965 . S
Zn455 O453 1.950 . S
Zn455 O462 1.938 . S
Zn455 O463 1.906 . S
Zn455 O473 1.953 . S
Zn456 O453 1.945 . S
Zn456 O458 1.932 . S
Zn456 O465 1.977 . S
Zn456 O466 1.910 . S
O457 Zn454 1.933 . S
O457 C468 1.226 . S
O458 Zn456 1.932 . S
O458 C468 1.307 . S
O459 Zn452 1.919 . S
O459 C470 1.253 . S
O460 Zn454 1.941 . S
O460 C470 1.283 . S
O461 Zn454 1.965 . S
O461 C469 1.303 . S
O462 Zn455 1.938 . S
O462 C469 1.247 . S
O463 Zn455 1.906 . S
O463 C471 1.304 . S
O464 Zn452 1.924 . S
O464 C472 1.311 . S
O465 Zn456 1.977 . S
O465 C471 1.272 . S
O466 Zn456 1.910 . S
O466 C472 1.231 . S
C467 O451 1.225 . S
C467 O473 1.298 . S
C468 O457 1.226 . S
C468 O458 1.307 . S
C469 O461 1.303 . S
C469 O462 1.247 . S
C470 O459 1.253 . S
C470 O460 1.283 . S
C471 O463 1.304 . S
C471 O465 1.272 . S
C472 O464 1.311 . S
C472 O466 1.231 . S
O473 Zn455 1.953 . S
O473 C467 1.298 . S
O474 Zn475 1.953 . S
O474 C490 1.225 . S
Zn475 O474 1.953 . S
Zn475 O476 1.949 . S
Zn475 O482 1.919 1_545 S
Zn475 O487 1.924 . S
O476 Zn475 1.949 . S
O476 Zn477 1.923 1_544 S
O476 Zn478 1.950 . S
O476 Zn479 1.945 1_554 S
Zn477 O476 1.923 1_566 S
Zn477 O480 1.933 . S
Zn477 O483 1.941 . S
Zn477 O484 1.965 1_556 S
Zn478 O476 1.950 . S
Zn478 O485 1.938 1_545 S
Zn478 O486 1.906 . S
Zn478 O496 1.953 . S
Zn479 O476 1.945 1_556 S
Zn479 O481 1.932 . S
Zn479 O488 1.977 1_556 S
Zn479 O489 1.910 . S
O480 Zn477 1.933 . S
O480 C491 1.226 . S
O481 Zn479 1.932 . S
O481 C491 1.307 1_545 S
O482 Zn475 1.919 1_565 S
O482 C493 1.253 1_554 S
O483 Zn477 1.941 . S
O483 C493 1.283 . S
O484 Zn477 1.965 1_554 S
O484 C492 1.303 . S
O485 Zn478 1.938 1_565 S
O485 C492 1.247 . S
O486 Zn478 1.906 . S
O486 C494 1.304 . S
O487 Zn475 1.924 . S
O487 C495 1.305 1_554 S
O488 Zn479 1.977 1_554 S
O488 C494 1.272 . S
O489 Zn479 1.910 . S
O489 C495 1.239 . S
C490 O474 1.225 . S
C490 O496 1.298 . S
C491 O480 1.226 . S
C491 O481 1.307 1_565 S
C492 O484 1.303 . S
C492 O485 1.247 . S
C493 O482 1.253 1_556 S
C493 O483 1.283 . S
C494 O486 1.304 . S
C494 O488 1.272 . S
C495 O487 1.305 1_556 S
C495 O489 1.239 . S
O496 Zn478 1.953 . S
O496 C490 1.298 . S
O497 Zn498 1.953 . S
O497 C513 1.225 . S
Zn498 O497 1.953 . S
Zn498 O499 1.949 . S
Zn498 O505 1.919 . S
Zn498 O510 1.924 . S
O499 Zn498 1.949 . S
O499 Zn500 1.923 . S
O499 Zn501 1.950 . S
O499 Zn502 1.945 . S
Zn500 O499 1.923 . S
Zn500 O503 1.933 . S
Zn500 O506 1.941 . S
Zn500 O507 1.965 . S
Zn501 O499 1.950 . S
Zn501 O508 1.938 . S
Zn501 O509 1.906 . S
Zn501 O519 1.953 . S
Zn502 O499 1.945 . S
Zn502 O504 1.932 . S
Zn502 O511 1.977 . S
Zn502 O512 1.910 . S
O503 Zn500 1.933 . S
O503 C514 1.226 . S
O504 Zn502 1.932 . S
O504 C514 1.307 . S
O505 Zn498 1.919 . S
O505 C516 1.253 . S
O506 Zn500 1.941 . S
O506 C516 1.283 . S
O507 Zn500 1.965 . S
O507 C515 1.303 . S
O508 Zn501 1.938 . S
O508 C515 1.247 . S
O509 Zn501 1.906 . S
O509 C517 1.304 . S
O510 Zn498 1.924 . S
O510 C518 1.311 . S
O511 Zn502 1.977 . S
O511 C517 1.272 . S
O512 Zn502 1.910 . S
O512 C518 1.231 . S
C513 O497 1.225 . S
C513 O519 1.298 . S
C514 O503 1.226 . S
C514 O504 1.307 . S
C515 O507 1.303 . S
C515 O508 1.247 . S
C516 O505 1.253 . S
C516 O506 1.283 . S
C517 O509 1.304 . S
C517 O511 1.272 . S
C518 O510 1.311 . S
C518 O512 1.231 . S
O519 Zn501 1.953 . S
O519 C513 1.298 . S
O520 Zn521 1.953 . S
O520 C536 1.225 . S
Zn521 O520 1.953 . S
Zn521 O522 1.949 1_556 S
Zn521 O528 1.919 . S
Zn521 O533 1.924 . S
O522 Zn521 1.949 1_554 S
O522 Zn523 1.923 . S
O522 Zn524 1.950 . S
O522 Zn525 1.945 . S
Zn523 O522 1.923 . S
Zn523 O526 1.933 . S
Zn523 O529 1.941 . S
Zn523 O530 1.965 . S
Zn524 O522 1.950 . S
Zn524 O531 1.938 . S
Zn524 O532 1.906 . S
Zn524 O542 1.953 1_554 S
Zn525 O522 1.945 . S
Zn525 O527 1.932 . S
Zn525 O534 1.977 . S
Zn525 O535 1.910 . S
O526 Zn523 1.933 . S
O526 C537 1.226 . S
O527 Zn525 1.932 . S
O527 C537 1.307 . S
O528 Zn521 1.919 . S
O528 C539 1.254 1_556 S
O529 Zn523 1.941 . S
O529 C539 1.282 . S
O530 Zn523 1.965 . S
O530 C538 1.303 . S
O531 Zn524 1.938 . S
O531 C538 1.247 . S
O532 Zn524 1.906 . S
O532 C540 1.304 . S
O533 Zn521 1.924 . S
O533 C541 1.311 . S
O534 Zn525 1.977 . S
O534 C540 1.272 . S
O535 Zn525 1.910 . S
O535 C541 1.231 1_554 S
C536 O520 1.225 . S
C536 O542 1.298 . S
C537 O526 1.226 . S
C537 O527 1.307 . S
C538 O530 1.303 . S
C538 O531 1.247 . S
C539 O528 1.254 1_554 S
C539 O529 1.282 . S
C540 O532 1.304 . S
C540 O534 1.272 . S
C541 O533 1.311 . S
C541 O535 1.231 1_556 S
O542 Zn524 1.953 1_556 S
O542 C536 1.298 . S
O543 Zn544 1.953 . S
O543 C559 1.225 . S
Zn544 O543 1.953 . S
Zn544 O545 1.949 . S
Zn544 O551 1.919 . S
Zn544 O556 1.924 . S
O545 Zn544 1.949 . S
O545 Zn546 1.923 . S
O545 Zn547 1.950 . S
O545 Zn548 1.945 . S
Zn546 O545 1.923 . S
Zn546 O549 1.933 . S
Zn546 O552 1.941 . S
Zn546 O553 1.965 . S
Zn547 O545 1.950 . S
Zn547 O554 1.938 . S
Zn547 O555 1.906 . S
Zn547 O565 1.953 . S
Zn548 O545 1.945 . S
Zn548 O550 1.932 . S
Zn548 O557 1.977 . S
Zn548 O558 1.910 . S
O549 Zn546 1.933 . S
O549 C560 1.226 . S
O550 Zn548 1.932 . S
O550 C560 1.307 . S
O551 Zn544 1.919 . S
O551 C562 1.253 . S
O552 Zn546 1.941 . S
O552 C562 1.283 . S
O553 Zn546 1.965 . S
O553 C561 1.303 . S
O554 Zn547 1.938 . S
O554 C561 1.247 . S
O555 Zn547 1.906 . S
O555 C563 1.304 . S
O556 Zn544 1.924 . S
O556 C564 1.311 . S
O557 Zn548 1.977 . S
O557 C563 1.272 . S
O558 Zn548 1.910 . S
O558 C564 1.231 . S
C559 O543 1.225 . S
C559 O565 1.298 . S
C560 O549 1.226 . S
C560 O550 1.307 . S
C561 O553 1.303 . S
C561 O554 1.247 . S
C562 O551 1.253 . S
C562 O552 1.283 . S
C563 O555 1.304 . S
C563 O557 1.272 . S
C564 O556 1.311 . S
C564 O558 1.231 . S
O565 Zn547 1.953 . S
O565 C559 1.298 . S
O566 Zn567 1.953 . S
O566 C582 1.225 . S
Zn567 O566 1.953 . S
Zn567 O568 1.960 . S
Zn567 O574 1.919 . S
Zn567 O579 1.924 . S
O568 Zn567 1.960 . S
O568 Zn569 1.923 . S
O568 Zn570 1.944 1_455 S
O568 Zn571 1.939 1_455 S
Zn569 O568 1.923 . S
Zn569 O572 1.933 1_455 S
Zn569 O575 1.941 . S
Zn569 O576 1.965 1_455 S
Zn570 O568 1.944 1_655 S
Zn570 O577 1.938 . S
Zn570 O578 1.906 . S
Zn570 O588 1.953 1_655 S
Zn571 O568 1.939 1_655 S
Zn571 O573 1.932 . S
Zn571 O580 1.977 . S
Zn571 O581 1.893 1_655 S
O572 Zn569 1.933 1_655 S
O572 C583 1.226 . S
O573 Zn571 1.932 . S
O573 C583 1.307 . S
O574 Zn567 1.919 . S
O574 C585 1.253 . S
O575 Zn569 1.941 . S
O575 C585 1.283 . S
O576 Zn569 1.965 1_655 S
O576 C584 1.303 . S
O577 Zn570 1.938 . S
O577 C584 1.247 . S
O578 Zn570 1.906 . S
O578 C586 1.304 . S
O579 Zn567 1.924 . S
O579 C587 1.311 . S
O580 Zn571 1.977 . S
O580 C586 1.272 . S
O581 Zn571 1.893 1_455 S
O581 C587 1.264 . S
C582 O566 1.225 . S
C582 O588 1.298 . S
C583 O572 1.226 . S
C583 O573 1.307 . S
C584 O576 1.303 . S
C584 O577 1.247 . S
C585 O574 1.253 . S
C585 O575 1.283 . S
C586 O578 1.304 . S
C586 O580 1.272 . S
C587 O579 1.311 . S
C587 O581 1.264 . S
O588 Zn570 1.953 1_455 S
O588 C582 1.298 . S
O589 Zn590 1.953 . S
O589 C605 1.225 . S
Zn590 O589 1.953 . S
Zn590 O591 1.949 . S
Zn590 O597 1.919 . S
Zn590 O602 1.924 . S
O591 Zn590 1.949 . S
O591 Zn592 1.923 . S
O591 Zn593 1.950 . S
O591 Zn594 1.945 . S
Zn592 O591 1.923 . S
Zn592 O595 1.933 . S
Zn592 O598 1.941 . S
Zn592 O599 1.965 . S
Zn593 O591 1.950 . S
Zn593 O600 1.938 . S
Zn593 O601 1.906 . S
Zn593 O611 1.953 . S
Zn594 O591 1.945 . S
Zn594 O596 1.932 . S
Zn594 O603 1.977 . S
Zn594 O604 1.910 . S
O595 Zn592 1.933 . S
O595 C606 1.226 . S
O596 Zn594 1.932 . S
O596 C606 1.307 . S
O597 Zn590 1.919 . S
O597 C608 1.253 . S
O598 Zn592 1.941 . S
O598 C608 1.283 . S
O599 Zn592 1.965 . S
O599 C607 1.303 . S
O600 Zn593 1.938 . S
O600 C607 1.247 . S
O601 Zn593 1.906 . S
O601 C609 1.304 . S
O602 Zn590 1.924 . S
O602 C610 1.311 . S
O603 Zn594 1.977 . S
O603 C609 1.272 . S
O604 Zn594 1.910 . S
O604 C610 1.231 . S
C605 O589 1.225 . S
C605 O611 1.298 . S
C606 O595 1.226 . S
C606 O596 1.307 . S
C607 O599 1.303 . S
C607 O600 1.247 . S
C608 O597 1.253 . S
C608 O598 1.283 . S
C609 O601 1.304 . S
C609 O603 1.272 . S
C610 O602 1.311 . S
C610 O604 1.231 . S
O611 Zn593 1.953 . S
O611 C605 1.298 . S
O612 Zn613 1.953 . S
O612 C628 1.225 . S
Zn613 O612 1.953 . S
Zn613 O614 1.949 . S
Zn613 O620 1.919 . S
Zn613 O625 1.924 . S
O614 Zn613 1.949 . S
O614 Zn615 1.923 . S
O614 Zn616 1.950 . S
O614 Zn617 1.945 . S
Zn615 O614 1.923 . S
Zn615 O618 1.933 . S
Zn615 O621 1.941 . S
Zn615 O622 1.965 . S
Zn616 O614 1.950 . S
Zn616 O623 1.938 . S
Zn616 O624 1.906 . S
Zn616 O634 1.953 . S
Zn617 O614 1.945 . S
Zn617 O619 1.932 . S
Zn617 O626 1.977 . S
Zn617 O627 1.910 . S
O618 Zn615 1.933 . S
O618 C629 1.226 . S
O619 Zn617 1.932 . S
O619 C629 1.307 . S
O620 Zn613 1.919 . S
O620 C631 1.253 . S
O621 Zn615 1.941 . S
O621 C631 1.283 . S
O622 Zn615 1.965 . S
O622 C630 1.303 . S
O623 Zn616 1.938 . S
O623 C630 1.247 . S
O624 Zn616 1.906 . S
O624 C632 1.304 . S
O625 Zn613 1.924 . S
O625 C633 1.311 . S
O626 Zn617 1.977 . S
O626 C632 1.272 . S
O627 Zn617 1.910 . S
O627 C633 1.231 . S
C628 O612 1.225 . S
C628 O634 1.298 . S
C629 O618 1.226 . S
C629 O619 1.307 . S
C630 O622 1.303 . S
C630 O623 1.247 . S
C631 O620 1.253 . S
C631 O621 1.283 . S
C632 O624 1.304 . S
C632 O626 1.272 . S
C633 O625 1.311 . S
C633 O627 1.231 . S
O634 Zn616 1.953 . S
O634 C628 1.298 . S
O635 Zn636 1.953 . S
O635 C651 1.225 . S
Zn636 O635 1.953 . S
Zn636 O637 1.949 . S
Zn636 O643 1.919 . S
Zn636 O648 1.924 . S
O637 Zn636 1.949 . S
O637 Zn638 1.923 . S
O637 Zn639 1.950 . S
O637 Zn640 1.945 . S
Zn638 O637 1.923 . S
Zn638 O641 1.933 . S
Zn638 O644 1.941 . S
Zn638 O645 1.965 . S
Zn639 O637 1.950 . S
Zn639 O646 1.938 . S
Zn639 O647 1.906 . S
Zn639 O657 1.953 . S
Zn640 O637 1.945 . S
Zn640 O642 1.932 . S
Zn640 O649 1.977 . S
Zn640 O650 1.910 . S
O641 Zn638 1.933 . S
O641 C652 1.226 . S
O642 Zn640 1.932 . S
O642 C652 1.307 . S
O643 Zn636 1.919 . S
O643 C654 1.253 . S
O644 Zn638 1.941 . S
O644 C654 1.283 . S
O645 Zn638 1.965 . S
O645 C653 1.303 . S
O646 Zn639 1.938 . S
O646 C653 1.247 . S
O647 Zn639 1.906 . S
O647 C655 1.304 . S
O648 Zn636 1.924 . S
O648 C656 1.311 . S
O649 Zn640 1.977 . S
O649 C655 1.272 . S
O650 Zn640 1.910 . S
O650 C656 1.231 . S
C651 O635 1.225 . S
C651 O657 1.298 . S
C652 O641 1.226 . S
C652 O642 1.307 . S
C653 O645 1.303 . S
C653 O646 1.247 . S
C654 O643 1.253 . S
C654 O644 1.283 . S
C655 O647 1.304 . S
C655 O649 1.272 . S
C656 O648 1.311 . S
C656 O650 1.231 . S
O657 Zn639 1.953 . S
O657 C651 1.298 . S
O658 Zn659 1.953 . S
O658 C674 1.225 . S
Zn659 O658 1.953 . S
Zn659 O660 1.949 . S
Zn659 O666 1.919 . S
Zn659 O671 1.924 . S
O660 Zn659 1.949 . S
O660 Zn661 1.923 . S
O660 Zn662 1.950 . S
O660 Zn663 1.945 . S
Zn661 O660 1.923 . S
Zn661 O664 1.933 . S
Zn661 O667 1.941 . S
Zn661 O668 1.965 . S
Zn662 O660 1.950 . S
Zn662 O669 1.938 . S
Zn662 O670 1.906 . S
Zn662 O680 1.953 . S
Zn663 O660 1.945 . S
Zn663 O665 1.932 . S
Zn663 O672 1.977 . S
Zn663 O673 1.910 . S
O664 Zn661 1.933 . S
O664 C675 1.226 . S
O665 Zn663 1.932 . S
O665 C675 1.307 . S
O666 Zn659 1.919 . S
O666 C677 1.253 . S
O667 Zn661 1.941 . S
O667 C677 1.283 . S
O668 Zn661 1.965 . S
O668 C676 1.303 . S
O669 Zn662 1.938 . S
O669 C676 1.247 . S
O670 Zn662 1.906 . S
O670 C678 1.304 . S
O671 Zn659 1.924 . S
O671 C679 1.311 . S
O672 Zn663 1.977 . S
O672 C678 1.272 . S
O673 Zn663 1.910 . S
O673 C679 1.231 . S
C674 O658 1.225 . S
C674 O680 1.298 . S
C675 O664 1.226 . S
C675 O665 1.307 . S
C676 O668 1.303 . S
C676 O669 1.247 . S
C677 O666 1.253 . S
C677 O667 1.283 . S
C678 O670 1.304 . S
C678 O672 1.272 . S
C679 O671 1.311 . S
C679 O673 1.231 . S
O680 Zn662 1.953 . S
O680 C674 1.298 . S
O681 Zn682 1.953 1_455 S
O681 C697 1.225 . S
Zn682 O681 1.953 1_655 S
Zn682 O683 1.949 1_655 S
Zn682 O689 1.919 1_554 S
Zn682 O694 1.924 1_654 S
O683 Zn682 1.949 1_455 S
O683 Zn684 1.923 1_455 S
O683 Zn685 1.950 . S
O683 Zn686 1.945 1_554 S
Zn684 O683 1.923 1_655 S
Zn684 O687 1.933 . S
Zn684 O690 1.941 . S
Zn684 O691 1.965 . S
Zn685 O683 1.950 . S
Zn685 O692 1.938 . S
Zn685 O693 1.906 . S
Zn685 O703 1.953 . S
Zn686 O683 1.945 1_556 S
Zn686 O688 1.932 . S
Zn686 O695 1.977 1_556 S
Zn686 O696 1.910 . S
O687 Zn684 1.933 . S
O687 C698 1.226 1_554 S
O688 Zn686 1.932 . S
O688 C698 1.307 1_455 S
O689 Zn682 1.919 1_556 S
O689 C700 1.253 1_556 S
O690 Zn684 1.941 . S
O690 C700 1.283 . S
O691 Zn684 1.965 . S
O691 C699 1.303 . S
O692 Zn685 1.938 . S
O692 C699 1.247 1_455 S
O693 Zn685 1.906 . S
O693 C701 1.304 . S
O694 Zn682 1.924 1_456 S
O694 C702 1.311 . S
O695 Zn686 1.977 1_554 S
O695 C701 1.272 . S
O696 Zn686 1.910 . S
O696 C702 1.231 . S
C697 O681 1.225 . S
C697 O703 1.298 . S
C698 O687 1.226 1_556 S
C698 O688 1.307 1_655 S
C699 O691 1.303 . S
C699 O692 1.247 1_655 S
C700 O689 1.253 1_554 S
C700 O690 1.283 . S
C701 O693 1.304 . S
C701 O695 1.272 . S
C702 O694 1.311 . S
C702 O696 1.231 . S
O703 Zn685 1.953 . S
O703 C697 1.298 . S
H704 C710 0.930 . S
H705 C713 0.930 . S
H706 C714 0.930 1_455 S
H707 C715 0.930 . S
H708 C718 0.930 . S
H709 C719 0.930 . S
C710 H704 0.930 . S
C710 C711 1.355 1_655 S
C710 C712 1.415 . S
C711 C710 1.355 1_455 S
C711 C713 1.419 . S
C712 C710 1.415 . S
C712 C717 1.425 . S
C712 C719 1.409 . S
C713 H705 0.930 . S
C713 C711 1.419 . S
C713 C714 1.360 1_455 S
C714 H706 0.930 1_655 S
C714 C713 1.360 1_655 S
C714 C717 1.412 . S
C715 H707 0.930 . S
C715 C716 1.355 . S
C715 C717 1.415 . S
C716 C715 1.355 . S
C716 C718 1.419 . S
C717 C712 1.425 . S
C717 C714 1.412 . S
C717 C715 1.415 . S
C718 H708 0.930 . S
C718 C716 1.419 . S
C718 C719 1.362 . S
C719 H709 0.930 . S
C719 C712 1.409 . S
C719 C718 1.362 . S
H720 C726 0.930 . S
H721 C729 0.930 . S
H722 C730 0.930 . S
H723 C731 0.930 . S
H724 C734 0.930 . S
H725 C735 0.930 . S
C726 H720 0.930 . S
C726 C727 1.355 . S
C726 C728 1.415 . S
C727 C726 1.355 . S
C727 C729 1.419 . S
C728 C726 1.415 . S
C728 C733 1.425 . S
C728 C735 1.409 . S
C729 H721 0.930 . S
C729 C727 1.419 . S
C729 C730 1.362 . S
C730 H722 0.930 . S
C730 C729 1.362 . S
C730 C733 1.409 . S
C731 H723 0.930 . S
C731 C732 1.355 . S
C731 C733 1.415 . S
C732 C731 1.355 . S
C732 C734 1.419 . S
C733 C728 1.425 . S
C733 C730 1.409 . S
C733 C731 1.415 . S
C734 H724 0.930 . S
C734 C732 1.419 . S
C734 C735 1.362 . S
C735 H725 0.930 . S
C735 C728 1.409 . S
C735 C734 1.362 . S
H736 C742 0.930 . S
H737 C745 0.930 . S
H738 C746 0.930 . S
H739 C747 0.930 . S
H740 C750 0.930 . S
H741 C751 0.930 . S
C742 H736 0.930 . S
C742 C743 1.355 . S
C742 C744 1.415 . S
C743 C742 1.355 . S
C743 C745 1.419 . S
C744 C742 1.415 . S
C744 C749 1.425 . S
C744 C751 1.409 . S
C745 H737 0.930 . S
C745 C743 1.419 . S
C745 C746 1.362 . S
C746 H738 0.930 . S
C746 C745 1.362 . S
C746 C749 1.409 . S
C747 H739 0.930 . S
C747 C748 1.355 . S
C747 C749 1.415 . S
C748 C747 1.355 . S
C748 C750 1.419 . S
C749 C744 1.425 . S
C749 C746 1.409 . S
C749 C747 1.415 . S
C750 H740 0.930 . S
C750 C748 1.419 . S
C750 C751 1.362 . S
C751 H741 0.930 . S
C751 C744 1.409 . S
C751 C750 1.362 . S
H752 C758 0.930 . S
H753 C761 0.930 . S
H754 C762 0.930 . S
H755 C763 0.930 . S
H756 C766 0.930 . S
H757 C767 0.930 . S
C758 H752 0.930 . S
C758 C759 1.355 . S
C758 C760 1.415 . S
C759 C758 1.355 . S
C759 C761 1.419 . S
C760 C758 1.415 . S
C760 C765 1.425 . S
C760 C767 1.409 . S
C761 H753 0.930 . S
C761 C759 1.419 . S
C761 C762 1.362 . S
C762 H754 0.930 . S
C762 C761 1.362 . S
C762 C765 1.409 . S
C763 H755 0.930 . S
C763 C764 1.355 . S
C763 C765 1.415 . S
C764 C763 1.355 . S
C764 C766 1.419 . S
C765 C760 1.425 . S
C765 C762 1.409 . S
C765 C763 1.415 . S
C766 H756 0.930 . S
C766 C764 1.419 . S
C766 C767 1.362 . S
C767 H757 0.930 . S
C767 C760 1.409 . S
C767 C766 1.362 . S
H768 C774 0.934 . S
H769 C777 0.930 . S
H770 C778 0.930 . S
H771 C779 0.930 . S
H772 C782 0.930 . S
H773 C783 0.926 1_455 S
C774 H768 0.934 . S
C774 C775 1.356 . S
C774 C776 1.410 1_455 S
C775 C774 1.356 . S
C775 C777 1.419 1_455 S
C776 C774 1.410 1_655 S
C776 C781 1.425 . S
C776 C783 1.409 . S
C777 H769 0.930 . S
C777 C775 1.419 1_655 S
C777 C778 1.362 . S
C778 H770 0.930 . S
C778 C777 1.362 . S
C778 C781 1.409 . S
C779 H771 0.930 . S
C779 C780 1.355 . S
C779 C781 1.415 . S
C780 C779 1.355 . S
C780 C782 1.419 . S
C781 C776 1.425 . S
C781 C778 1.409 . S
C781 C779 1.415 . S
C782 H772 0.930 . S
C782 C780 1.419 . S
C782 C783 1.362 . S
C783 H773 0.926 1_655 S
C783 C776 1.409 . S
C783 C782 1.362 . S
H784 C790 0.930 . S
H785 C793 0.930 . S
H786 C794 0.930 . S
H787 C795 0.930 . S
H788 C798 0.930 . S
H789 C799 0.930 . S
C790 H784 0.930 . S
C790 C791 1.355 . S
C790 C792 1.415 . S
C791 C790 1.355 . S
C791 C793 1.419 . S
C792 C790 1.415 . S
C792 C797 1.425 . S
C792 C799 1.409 . S
C793 H785 0.930 . S
C793 C791 1.419 . S
C793 C794 1.362 . S
C794 H786 0.930 . S
C794 C793 1.362 . S
C794 C797 1.409 . S
C795 H787 0.930 . S
C795 C796 1.355 . S
C795 C797 1.415 . S
C796 C795 1.355 . S
C796 C798 1.419 . S
C797 C792 1.425 . S
C797 C794 1.409 . S
C797 C795 1.415 . S
C798 H788 0.930 . S
C798 C796 1.419 . S
C798 C799 1.362 . S
C799 H789 0.930 . S
C799 C792 1.409 . S
C799 C798 1.362 . S
H800 C806 0.930 . S
H801 C809 0.930 . S
H802 C810 0.930 . S
H803 C811 0.930 1_554 S
H804 C814 0.930 . S
H805 C815 0.930 . S
C806 H800 0.930 . S
C806 C807 1.355 . S
C806 C808 1.415 . S
C807 C806 1.355 . S
C807 C809 1.419 . S
C808 C806 1.415 . S
C808 C813 1.425 . S
C808 C815 1.409 . S
C809 H801 0.930 . S
C809 C807 1.419 . S
C809 C810 1.362 . S
C810 H802 0.930 . S
C810 C809 1.362 . S
C810 C813 1.409 . S
C811 H803 0.930 1_556 S
C811 C812 1.355 . S
C811 C813 1.415 . S
C812 C811 1.355 . S
C812 C814 1.419 . S
C813 C808 1.425 . S
C813 C810 1.409 . S
C813 C811 1.415 . S
C814 H804 0.930 . S
C814 C812 1.419 . S
C814 C815 1.362 . S
C815 H805 0.930 . S
C815 C808 1.409 . S
C815 C814 1.362 . S
H816 C822 0.930 . S
H817 C825 0.930 . S
H818 C826 0.930 . S
H819 C827 0.930 . S
H820 C830 0.930 . S
H821 C831 0.930 . S
C822 H816 0.930 . S
C822 C823 1.355 . S
C822 C824 1.415 . S
C823 C822 1.355 . S
C823 C825 1.419 . S
C824 C822 1.415 . S
C824 C829 1.425 . S
C824 C831 1.409 . S
C825 H817 0.930 . S
C825 C823 1.419 . S
C825 C826 1.362 . S
C826 H818 0.930 . S
C826 C825 1.362 . S
C826 C829 1.409 . S
C827 H819 0.930 . S
C827 C828 1.355 . S
C827 C829 1.415 . S
C828 C827 1.355 . S
C828 C830 1.419 . S
C829 C824 1.425 . S
C829 C826 1.409 . S
C829 C827 1.415 . S
C830 H820 0.930 . S
C830 C828 1.419 . S
C830 C831 1.362 . S
C831 H821 0.930 . S
C831 C824 1.409 . S
C831 C830 1.362 . S
H832 C838 0.930 . S
H833 C841 0.930 . S
H834 C842 0.939 . S
H835 C843 0.930 1_565 S
H836 C846 0.930 . S
H837 C847 0.930 . S
C838 H832 0.930 . S
C838 C839 1.355 . S
C838 C840 1.415 . S
C839 C838 1.355 . S
C839 C841 1.419 . S
C840 C838 1.415 . S
C840 C845 1.425 . S
C840 C847 1.409 . S
C841 H833 0.930 . S
C841 C839 1.419 . S
C841 C842 1.362 . S
C842 H834 0.939 . S
C842 C841 1.362 . S
C842 C845 1.409 . S
C843 H835 0.930 1_545 S
C843 C844 1.355 . S
C843 C845 1.415 . S
C844 C843 1.355 . S
C844 C846 1.419 . S
C845 C840 1.425 . S
C845 C842 1.409 . S
C845 C843 1.415 . S
C846 H836 0.930 . S
C846 C844 1.419 . S
C846 C847 1.362 . S
C847 H837 0.930 . S
C847 C840 1.409 . S
C847 C846 1.362 . S
H848 C854 0.930 . S
H849 C857 0.930 . S
H850 C858 0.930 . S
H851 C859 0.930 . S
H852 C862 0.930 . S
H853 C863 0.930 . S
C854 H848 0.930 . S
C854 C855 1.355 . S
C854 C856 1.415 . S
C855 C854 1.355 . S
C855 C857 1.419 . S
C856 C854 1.415 . S
C856 C861 1.425 . S
C856 C863 1.409 . S
C857 H849 0.930 . S
C857 C855 1.419 . S
C857 C858 1.362 . S
C858 H850 0.930 . S
C858 C857 1.362 . S
C858 C861 1.409 . S
C859 H851 0.930 . S
C859 C860 1.355 . S
C859 C861 1.415 . S
C860 C859 1.355 . S
C860 C862 1.419 . S
C861 C856 1.425 . S
C861 C858 1.409 . S
C861 C859 1.415 . S
C862 H852 0.930 . S
C862 C860 1.419 . S
C862 C863 1.362 . S
C863 H853 0.930 . S
C863 C856 1.409 . S
C863 C862 1.362 . S
H864 C870 0.930 . S
H865 C873 0.930 . S
H866 C874 0.930 . S
H867 C875 0.930 . S
H868 C878 0.930 . S
H869 C879 0.930 . S
C870 H864 0.930 . S
C870 C871 1.385 . S
C870 C872 1.415 . S
C871 C870 1.385 . S
C871 C873 1.386 1_545 S
C872 C870 1.415 . S
C872 C877 1.425 1_545 S
C872 C879 1.409 . S
C873 H865 0.930 . S
C873 C871 1.386 1_565 S
C873 C874 1.362 . S
C874 H866 0.930 . S
C874 C873 1.362 . S
C874 C877 1.409 . S
C875 H867 0.930 . S
C875 C876 1.355 1_565 S
C875 C877 1.415 . S
C876 C875 1.355 1_545 S
C876 C878 1.419 . S
C877 C872 1.425 1_565 S
C877 C874 1.409 . S
C877 C875 1.415 . S
C878 H868 0.930 . S
C878 C876 1.419 . S
C878 C879 1.362 . S
C879 H869 0.930 . S
C879 C872 1.409 . S
C879 C878 1.362 . S
H880 C886 0.930 . S
H881 C889 0.930 . S
H882 C890 0.930 . S
H883 C891 0.930 . S
H884 C894 0.930 . S
H885 C895 0.930 . S
C886 H880 0.930 . S
C886 C887 1.355 . S
C886 C888 1.415 . S
C887 C886 1.355 . S
C887 C889 1.419 . S
C888 C886 1.415 . S
C888 C893 1.425 . S
C888 C895 1.409 . S
C889 H881 0.930 . S
C889 C887 1.419 . S
C889 C890 1.362 . S
C890 H882 0.930 . S
C890 C889 1.362 . S
C890 C893 1.409 . S
C891 H883 0.930 . S
C891 C892 1.355 . S
C891 C893 1.415 . S
C892 C891 1.355 . S
C892 C894 1.419 . S
C893 C888 1.425 . S
C893 C890 1.409 . S
C893 C891 1.415 . S
C894 H884 0.930 . S
C894 C892 1.419 . S
C894 C895 1.362 . S
C895 H885 0.930 . S
C895 C888 1.409 . S
C895 C894 1.362 . S
H896 C902 0.930 . S
H897 C905 0.930 1_565 S
H898 C906 0.925 1_565 S
H899 C907 0.930 . S
H900 C910 0.930 . S
H901 C911 0.930 . S
C902 H896 0.930 . S
C902 C903 1.355 . S
C902 C904 1.415 . S
C903 C902 1.355 . S
C903 C905 1.419 . S
C904 C902 1.415 . S
C904 C909 1.425 . S
C904 C911 1.409 . S
C905 H897 0.930 1_545 S
C905 C903 1.419 . S
C905 C906 1.362 . S
C906 H898 0.925 1_545 S
C906 C905 1.362 . S
C906 C909 1.409 . S
C907 H899 0.930 . S
C907 C908 1.355 . S
C907 C909 1.415 . S
C908 C907 1.355 . S
C908 C910 1.419 . S
C909 C904 1.425 . S
C909 C906 1.409 . S
C909 C907 1.415 . S
C910 H900 0.930 . S
C910 C908 1.419 . S
C910 C911 1.362 . S
C911 H901 0.930 . S
C911 C904 1.409 . S
C911 C910 1.362 . S
H912 C918 0.930 . S
H913 C921 0.930 . S
H914 C922 0.930 . S
H915 C923 0.930 . S
H916 C926 0.930 . S
H917 C927 0.930 . S
C918 H912 0.930 . S
C918 C919 1.355 . S
C918 C920 1.415 . S
C919 C918 1.355 . S
C919 C921 1.419 . S
C920 C918 1.415 . S
C920 C925 1.425 . S
C920 C927 1.409 . S
C921 H913 0.930 . S
C921 C919 1.419 . S
C921 C922 1.362 . S
C922 H914 0.930 . S
C922 C921 1.362 . S
C922 C925 1.409 . S
C923 H915 0.930 . S
C923 C924 1.355 . S
C923 C925 1.415 . S
C924 C923 1.355 . S
C924 C926 1.419 . S
C925 C920 1.425 . S
C925 C922 1.409 . S
C925 C923 1.415 . S
C926 H916 0.930 . S
C926 C924 1.419 . S
C926 C927 1.362 . S
C927 H917 0.930 . S
C927 C920 1.409 . S
C927 C926 1.362 . S
H928 C934 0.930 . S
H929 C937 0.930 . S
H930 C938 0.930 . S
H931 C939 0.930 . S
H932 C942 0.930 . S
H933 C943 0.930 . S
C934 H928 0.930 . S
C934 C935 1.355 . S
C934 C936 1.415 . S
C935 C934 1.355 . S
C935 C937 1.419 . S
C936 C934 1.415 . S
C936 C941 1.425 . S
C936 C943 1.409 . S
C937 H929 0.930 . S
C937 C935 1.419 . S
C937 C938 1.362 . S
C938 H930 0.930 . S
C938 C937 1.362 . S
C938 C941 1.409 . S
C939 H931 0.930 . S
C939 C940 1.355 . S
C939 C941 1.415 . S
C940 C939 1.355 . S
C940 C942 1.419 . S
C941 C936 1.425 . S
C941 C938 1.409 . S
C941 C939 1.415 . S
C942 H932 0.930 . S
C942 C940 1.419 . S
C942 C943 1.362 . S
C943 H933 0.930 . S
C943 C936 1.409 . S
C943 C942 1.362 . S
H944 C950 0.930 . S
H945 C953 0.930 . S
H946 C954 0.930 . S
H947 C955 0.930 . S
H948 C958 0.930 . S
H949 C959 0.930 . S
C950 H944 0.930 . S
C950 C951 1.355 . S
C950 C952 1.415 . S
C951 C950 1.355 . S
C951 C953 1.419 . S
C952 C950 1.415 . S
C952 C957 1.425 . S
C952 C959 1.409 . S
C953 H945 0.930 . S
C953 C951 1.419 . S
C953 C954 1.362 . S
C954 H946 0.930 . S
C954 C953 1.362 . S
C954 C957 1.409 . S
C955 H947 0.930 . S
C955 C956 1.355 . S
C955 C957 1.415 . S
C956 C955 1.355 . S
C956 C958 1.419 . S
C957 C952 1.425 . S
C957 C954 1.409 . S
C957 C955 1.415 . S
C958 H948 0.930 . S
C958 C956 1.419 . S
C958 C959 1.362 . S
C959 H949 0.930 . S
C959 C952 1.409 . S
C959 C958 1.362 . S
H960 C966 0.930 . S
H961 C969 0.930 . S
H962 C970 0.933 . S
H963 C971 0.930 . S
H964 C974 0.930 . S
H965 C975 0.930 . S
C966 H960 0.930 . S
C966 C967 1.355 . S
C966 C968 1.415 . S
C967 C966 1.355 . S
C967 C969 1.419 . S
C968 C966 1.415 . S
C968 C973 1.420 1_554 S
C968 C975 1.409 . S
C969 H961 0.930 . S
C969 C967 1.419 . S
C969 C970 1.360 1_554 S
C970 H962 0.933 . S
C970 C969 1.360 1_556 S
C970 C973 1.409 . S
C971 H963 0.930 . S
C971 C972 1.355 . S
C971 C973 1.421 . S
C972 C971 1.355 . S
C972 C974 1.423 . S
C973 C968 1.420 1_556 S
C973 C970 1.409 . S
C973 C971 1.421 . S
C974 H964 0.930 . S
C974 C972 1.423 . S
C974 C975 1.359 1_556 S
C975 H965 0.930 . S
C975 C968 1.409 . S
C975 C974 1.359 1_554 S
H976 C982 0.930 . S
H977 C985 0.930 . S
H978 C986 0.930 . S
H979 C987 0.916 1_556 S
H980 C990 0.930 . S
H981 C991 0.930 . S
C982 H976 0.930 . S
C982 C983 1.355 . S
C982 C984 1.415 . S
C983 C982 1.355 . S
C983 C985 1.419 1_554 S
C984 C982 1.415 . S
C984 C989 1.425 . S
C984 C991 1.409 . S
C985 H977 0.930 . S
C985 C983 1.419 1_556 S
C985 C986 1.362 . S
C986 H978 0.930 . S
C986 C985 1.362 . S
C986 C989 1.409 1_556 S
C987 H979 0.916 1_554 S
C987 C988 1.367 . S
C987 C989 1.416 . S
C988 C987 1.367 . S
C988 C990 1.419 . S
C989 C984 1.425 . S
C989 C986 1.409 1_554 S
C989 C987 1.416 . S
C990 H980 0.930 . S
C990 C988 1.419 . S
C990 C991 1.362 . S
C991 H981 0.930 . S
C991 C984 1.409 . S
C991 C990 1.362 . S
H992 C998 0.930 . S
H993 C1001 0.930 . S
H994 C1002 0.930 . S
H995 C1003 0.930 . S
H996 C1006 0.930 . S
H997 C1007 0.930 . S
C998 H992 0.930 . S
C998 C999 1.355 . S
C998 C1000 1.415 . S
C999 C998 1.355 . S
C999 C1001 1.419 . S
C1000 C998 1.415 . S
C1000 C1005 1.425 . S
C1000 C1007 1.409 . S
C1001 H993 0.930 . S
C1001 C999 1.419 . S
C1001 C1002 1.362 . S
C1002 H994 0.930 . S
C1002 C1001 1.362 . S
C1002 C1005 1.409 . S
C1003 H995 0.930 . S
C1003 C1004 1.355 . S
C1003 C1005 1.415 . S
C1004 C1003 1.355 . S
C1004 C1006 1.419 . S
C1005 C1000 1.425 . S
C1005 C1002 1.409 . S
C1005 C1003 1.415 . S
C1006 H996 0.930 . S
C1006 C1004 1.419 . S
C1006 C1007 1.362 . S
C1007 H997 0.930 . S
C1007 C1000 1.409 . S
C1007 C1006 1.362 . S
H1008 C1014 0.930 . S
H1009 C1017 0.930 . S
H1010 C1018 0.930 . S
H1011 C1019 0.930 . S
H1012 C1022 0.930 . S
H1013 C1023 0.930 . S
C1014 H1008 0.930 . S
C1014 C1015 1.355 . S
C1014 C1016 1.415 . S
C1015 C1014 1.355 . S
C1015 C1017 1.419 . S
C1016 C1014 1.415 . S
C1016 C1021 1.425 . S
C1016 C1023 1.409 . S
C1017 H1009 0.930 . S
C1017 C1015 1.419 . S
C1017 C1018 1.362 . S
C1018 H1010 0.930 . S
C1018 C1017 1.362 . S
C1018 C1021 1.409 . S
C1019 H1011 0.930 . S
C1019 C1020 1.355 . S
C1019 C1021 1.415 . S
C1020 C1019 1.355 . S
C1020 C1022 1.419 . S
C1021 C1016 1.425 . S
C1021 C1018 1.409 . S
C1021 C1019 1.415 . S
C1022 H1012 0.930 . S
C1022 C1020 1.419 . S
C1022 C1023 1.362 . S
C1023 H1013 0.930 . S
C1023 C1016 1.409 . S
C1023 C1022 1.362 . S
H1024 C1030 0.930 . S
H1025 C1033 0.930 . S
H1026 C1034 0.930 . S
H1027 C1035 0.930 . S
H1028 C1038 0.930 . S
H1029 C1039 0.930 . S
C1030 H1024 0.930 . S
C1030 C1031 1.355 . S
C1030 C1032 1.415 . S
C1031 C1030 1.355 . S
C1031 C1033 1.419 . S
C1032 C1030 1.415 . S
C1032 C1037 1.425 . S
C1032 C1039 1.409 . S
C1033 H1025 0.930 . S
C1033 C1031 1.419 . S
C1033 C1034 1.362 . S
C1034 H1026 0.930 . S
C1034 C1033 1.362 . S
C1034 C1037 1.409 . S
C1035 H1027 0.930 . S
C1035 C1036 1.355 . S
C1035 C1037 1.415 . S
C1036 C1035 1.355 . S
C1036 C1038 1.419 . S
C1037 C1032 1.425 . S
C1037 C1034 1.409 . S
C1037 C1035 1.415 . S
C1038 H1028 0.930 . S
C1038 C1036 1.419 . S
C1038 C1039 1.362 . S
C1039 H1029 0.930 . S
C1039 C1032 1.409 . S
C1039 C1038 1.362 . S
H1040 C1046 0.930 . S
H1041 C1049 0.930 . S
H1042 C1050 0.930 . S
H1043 C1051 0.930 1_545 S
H1044 C1054 0.930 . S
H1045 C1055 0.930 . S
C1046 H1040 0.930 . S
C1046 C1047 1.355 . S
C1046 C1048 1.415 . S
C1047 C1046 1.355 . S
C1047 C1049 1.419 . S
C1048 C1046 1.415 . S
C1048 C1053 1.425 . S
C1048 C1055 1.409 . S
C1049 H1041 0.930 . S
C1049 C1047 1.419 . S
C1049 C1050 1.362 . S
C1050 H1042 0.930 . S
C1050 C1049 1.362 . S
C1050 C1053 1.409 . S
C1051 H1043 0.930 1_565 S
C1051 C1052 1.355 . S
C1051 C1053 1.415 . S
C1052 C1051 1.355 . S
C1052 C1054 1.419 . S
C1053 C1048 1.425 . S
C1053 C1050 1.409 . S
C1053 C1051 1.415 . S
C1054 H1044 0.930 . S
C1054 C1052 1.419 . S
C1054 C1055 1.362 . S
C1055 H1045 0.930 . S
C1055 C1048 1.409 . S
C1055 C1054 1.362 . S
H1056 C1062 0.930 . S
H1057 C1065 0.930 . S
H1058 C1066 0.930 . S
H1059 C1067 0.930 . S
H1060 C1070 0.930 . S
H1061 C1071 0.930 . S
C1062 H1056 0.930 . S
C1062 C1063 1.355 . S
C1062 C1064 1.415 . S
C1063 C1062 1.355 . S
C1063 C1065 1.419 . S
C1064 C1062 1.415 . S
C1064 C1069 1.425 . S
C1064 C1071 1.409 . S
C1065 H1057 0.930 . S
C1065 C1063 1.419 . S
C1065 C1066 1.362 . S
C1066 H1058 0.930 . S
C1066 C1065 1.362 . S
C1066 C1069 1.409 . S
C1067 H1059 0.930 . S
C1067 C1068 1.355 . S
C1067 C1069 1.415 . S
C1068 C1067 1.355 . S
C1068 C1070 1.419 . S
C1069 C1064 1.425 . S
C1069 C1066 1.409 . S
C1069 C1067 1.415 . S
C1070 H1060 0.930 . S
C1070 C1068 1.419 . S
C1070 C1071 1.362 . S
C1071 H1061 0.930 . S
C1071 C1064 1.409 . S
C1071 C1070 1.362 . S
H1072 C1078 0.930 . S
H1073 C1081 0.930 . S
H1074 C1082 0.930 . S
H1075 C1083 0.930 . S
H1076 C1086 0.930 . S
H1077 C1087 0.930 . S
C1078 H1072 0.930 . S
C1078 C1079 1.355 . S
C1078 C1080 1.415 . S
C1079 C1078 1.355 . S
C1079 C1081 1.419 . S
C1080 C1078 1.415 . S
C1080 C1085 1.425 . S
C1080 C1087 1.409 . S
C1081 H1073 0.930 . S
C1081 C1079 1.419 . S
C1081 C1082 1.362 . S
C1082 H1074 0.930 . S
C1082 C1081 1.362 . S
C1082 C1085 1.409 . S
C1083 H1075 0.930 . S
C1083 C1084 1.355 . S
C1083 C1085 1.415 . S
C1084 C1083 1.355 . S
C1084 C1086 1.419 . S
C1085 C1080 1.425 . S
C1085 C1082 1.409 . S
C1085 C1083 1.415 . S
C1086 H1076 0.930 . S
C1086 C1084 1.419 . S
C1086 C1087 1.362 . S
C1087 H1077 0.930 . S
C1087 C1080 1.409 . S
C1087 C1086 1.362 . S
H1088 C1094 0.930 . S
H1089 C1097 0.930 . S
H1090 C1098 0.930 . S
H1091 C1099 0.940 . S
H1092 C1102 0.930 . S
H1093 C1103 0.930 . S
C1094 H1088 0.930 . S
C1094 C1095 1.355 . S
C1094 C1096 1.415 . S
C1095 C1094 1.355 . S
C1095 C1097 1.419 1_455 S
C1096 C1094 1.415 . S
C1096 C1101 1.429 . S
C1096 C1103 1.409 . S
C1097 H1089 0.930 . S
C1097 C1095 1.419 1_655 S
C1097 C1098 1.362 . S
C1098 H1090 0.930 . S
C1098 C1097 1.362 . S
C1098 C1101 1.406 1_655 S
C1099 H1091 0.940 . S
C1099 C1100 1.344 1_655 S
C1099 C1101 1.414 1_655 S
C1100 C1099 1.344 1_455 S
C1100 C1102 1.419 . S
C1101 C1096 1.429 . S
C1101 C1098 1.406 1_455 S
C1101 C1099 1.414 1_455 S
C1102 H1092 0.930 . S
C1102 C1100 1.419 . S
C1102 C1103 1.362 . S
C1103 H1093 0.930 . S
C1103 C1096 1.409 . S
C1103 C1102 1.362 . S
H1104 C1110 0.930 . S
H1105 C1113 0.930 . S
H1106 C1114 0.930 . S
H1107 C1115 0.930 . S
H1108 C1118 0.930 . S
H1109 C1119 0.930 . S
C1110 H1104 0.930 . S
C1110 C1111 1.355 . S
C1110 C1112 1.415 . S
C1111 C1110 1.355 . S
C1111 C1113 1.419 . S
C1112 C1110 1.415 . S
C1112 C1117 1.425 . S
C1112 C1119 1.409 . S
C1113 H1105 0.930 . S
C1113 C1111 1.419 . S
C1113 C1114 1.362 . S
C1114 H1106 0.930 . S
C1114 C1113 1.362 . S
C1114 C1117 1.409 . S
C1115 H1107 0.930 . S
C1115 C1116 1.355 . S
C1115 C1117 1.415 . S
C1116 C1115 1.355 . S
C1116 C1118 1.419 . S
C1117 C1112 1.425 . S
C1117 C1114 1.409 . S
C1117 C1115 1.415 . S
C1118 H1108 0.930 . S
C1118 C1116 1.419 . S
C1118 C1119 1.362 . S
C1119 H1109 0.930 . S
C1119 C1112 1.409 . S
C1119 C1118 1.362 . S
H1120 C1126 0.930 . S
H1121 C1129 0.930 . S
H1122 C1130 0.930 . S
H1123 C1131 0.930 . S
H1124 C1134 0.930 . S
H1125 C1135 0.930 . S
C1126 H1120 0.930 . S
C1126 C1127 1.355 . S
C1126 C1128 1.415 . S
C1127 C1126 1.355 . S
C1127 C1129 1.419 . S
C1128 C1126 1.415 . S
C1128 C1133 1.425 . S
C1128 C1135 1.409 . S
C1129 H1121 0.930 . S
C1129 C1127 1.419 . S
C1129 C1130 1.362 . S
C1130 H1122 0.930 . S
C1130 C1129 1.362 . S
C1130 C1133 1.409 . S
C1131 H1123 0.930 . S
C1131 C1132 1.355 . S
C1131 C1133 1.415 . S
C1132 C1131 1.355 . S
C1132 C1134 1.419 . S
C1133 C1128 1.425 . S
C1133 C1130 1.409 . S
C1133 C1131 1.415 . S
C1134 H1124 0.930 . S
C1134 C1132 1.419 . S
C1134 C1135 1.362 . S
C1135 H1125 0.930 . S
C1135 C1128 1.409 . S
C1135 C1134 1.362 . S
H1136 C1142 0.930 . S
H1137 C1145 0.930 . S
H1138 C1146 0.930 . S
H1139 C1147 0.930 . S
H1140 C1150 0.930 . S
H1141 C1151 0.930 . S
C1142 H1136 0.930 . S
C1142 C1143 1.355 . S
C1142 C1144 1.415 . S
C1143 C1142 1.355 . S
C1143 C1145 1.419 . S
C1144 C1142 1.415 . S
C1144 C1149 1.425 . S
C1144 C1151 1.409 . S
C1145 H1137 0.930 . S
C1145 C1143 1.419 . S
C1145 C1146 1.362 . S
C1146 H1138 0.930 . S
C1146 C1145 1.362 . S
C1146 C1149 1.409 . S
C1147 H1139 0.930 . S
C1147 C1148 1.355 . S
C1147 C1149 1.415 . S
C1148 C1147 1.355 . S
C1148 C1150 1.419 . S
C1149 C1144 1.425 . S
C1149 C1146 1.409 . S
C1149 C1147 1.415 . S
C1150 H1140 0.930 . S
C1150 C1148 1.419 . S
C1150 C1151 1.362 . S
C1151 H1141 0.930 . S
C1151 C1144 1.409 . S
C1151 C1150 1.362 . S
H1152 C1158 0.930 . S
H1153 C1161 0.930 . S
H1154 C1162 0.930 . S
H1155 C1163 0.930 . S
H1156 C1166 0.930 . S
H1157 C1167 0.930 . S
C1158 H1152 0.930 . S
C1158 C1159 1.355 . S
C1158 C1160 1.415 . S
C1159 C1158 1.355 . S
C1159 C1161 1.419 1_455 S
C1160 C1158 1.415 . S
C1160 C1165 1.425 . S
C1160 C1167 1.409 . S
C1161 H1153 0.930 . S
C1161 C1159 1.419 1_655 S
C1161 C1162 1.362 . S
C1162 H1154 0.930 . S
C1162 C1161 1.362 . S
C1162 C1165 1.409 1_655 S
C1163 H1155 0.930 . S
C1163 C1164 1.355 . S
C1163 C1165 1.415 . S
C1164 C1163 1.355 . S
C1164 C1166 1.419 . S
C1165 C1160 1.425 . S
C1165 C1162 1.409 1_455 S
C1165 C1163 1.415 . S
C1166 H1156 0.930 . S
C1166 C1164 1.419 . S
C1166 C1167 1.362 . S
C1167 H1157 0.930 . S
C1167 C1160 1.409 . S
C1167 C1166 1.362 . S
H1168 C1174 0.930 . S
H1169 C1177 0.930 . S
H1170 C1178 0.930 . S
H1171 C1179 0.930 . S
H1172 C1182 0.930 . S
H1173 C1183 0.930 . S
C1174 H1168 0.930 . S
C1174 C1175 1.355 . S
C1174 C1176 1.415 . S
C1175 C1174 1.355 . S
C1175 C1177 1.419 . S
C1176 C1174 1.415 . S
C1176 C1181 1.425 . S
C1176 C1183 1.409 . S
C1177 H1169 0.930 . S
C1177 C1175 1.419 . S
C1177 C1178 1.362 . S
C1178 H1170 0.930 . S
C1178 C1177 1.362 . S
C1178 C1181 1.409 . S
C1179 H1171 0.930 . S
C1179 C1180 1.355 . S
C1179 C1181 1.415 . S
C1180 C1179 1.355 . S
C1180 C1182 1.419 . S
C1181 C1176 1.425 . S
C1181 C1178 1.409 . S
C1181 C1179 1.415 . S
C1182 H1172 0.930 . S
C1182 C1180 1.419 . S
C1182 C1183 1.362 . S
C1183 H1173 0.930 . S
C1183 C1176 1.409 . S
C1183 C1182 1.362 . S
H1184 C1190 0.930 . S
H1185 C1193 0.930 . S
H1186 C1194 0.930 . S
H1187 C1195 0.930 . S
H1188 C1198 0.930 . S
H1189 C1199 0.930 . S
C1190 H1184 0.930 . S
C1190 C1191 1.355 . S
C1190 C1192 1.415 . S
C1191 C1190 1.355 . S
C1191 C1193 1.419 . S
C1192 C1190 1.415 . S
C1192 C1197 1.425 . S
C1192 C1199 1.409 . S
C1193 H1185 0.930 . S
C1193 C1191 1.419 . S
C1193 C1194 1.362 . S
C1194 H1186 0.930 . S
C1194 C1193 1.362 . S
C1194 C1197 1.409 . S
C1195 H1187 0.930 . S
C1195 C1196 1.355 . S
C1195 C1197 1.415 . S
C1196 C1195 1.355 . S
C1196 C1198 1.419 . S
C1197 C1192 1.425 . S
C1197 C1194 1.409 . S
C1197 C1195 1.415 . S
C1198 H1188 0.930 . S
C1198 C1196 1.419 . S
C1198 C1199 1.362 . S
C1199 H1189 0.930 . S
C1199 C1192 1.409 . S
C1199 C1198 1.362 . S
H1200 C1206 0.930 . S
H1201 C1209 0.930 . S
H1202 C1210 0.930 . S
H1203 C1211 0.930 . S
H1204 C1214 0.930 . S
H1205 C1215 0.930 . S
C1206 H1200 0.930 . S
C1206 C1207 1.355 . S
C1206 C1208 1.415 . S
C1207 C1206 1.355 . S
C1207 C1209 1.419 . S
C1208 C1206 1.415 . S
C1208 C1213 1.425 . S
C1208 C1215 1.409 . S
C1209 H1201 0.930 . S
C1209 C1207 1.419 . S
C1209 C1210 1.362 . S
C1210 H1202 0.930 . S
C1210 C1209 1.362 . S
C1210 C1213 1.409 . S
C1211 H1203 0.930 . S
C1211 C1212 1.355 . S
C1211 C1213 1.415 . S
C1212 C1211 1.355 . S
C1212 C1214 1.419 . S
C1213 C1208 1.425 . S
C1213 C1210 1.409 . S
C1213 C1211 1.415 . S
C1214 H1204 0.930 . S
C1214 C1212 1.419 . S
C1214 C1215 1.362 . S
C1215 H1205 0.930 . S
C1215 C1208 1.409 . S
C1215 C1214 1.362 . S
H1216 C1222 0.930 . S
H1217 C1225 0.930 . S
H1218 C1226 0.930 . S
H1219 C1227 0.930 . S
H1220 C1230 0.930 . S
H1221 C1231 0.930 . S
C1222 H1216 0.930 . S
C1222 C1223 1.355 . S
C1222 C1224 1.415 . S
C1223 C1222 1.355 . S
C1223 C1225 1.419 . S
C1224 C1222 1.415 . S
C1224 C1229 1.425 . S
C1224 C1231 1.409 . S
C1225 H1217 0.930 . S
C1225 C1223 1.419 . S
C1225 C1226 1.362 . S
C1226 H1218 0.930 . S
C1226 C1225 1.362 . S
C1226 C1229 1.409 . S
C1227 H1219 0.930 . S
C1227 C1228 1.355 . S
C1227 C1229 1.415 . S
C1228 C1227 1.355 . S
C1228 C1230 1.419 . S
C1229 C1224 1.425 . S
C1229 C1226 1.409 . S
C1229 C1227 1.415 . S
C1230 H1220 0.930 . S
C1230 C1228 1.419 . S
C1230 C1231 1.362 . S
C1231 H1221 0.930 . S
C1231 C1224 1.409 . S
C1231 C1230 1.362 . S
H1232 C1238 0.930 . S
H1233 C1241 0.930 . S
H1234 C1242 0.930 . S
H1235 C1243 0.930 . S
H1236 C1246 0.930 . S
H1237 C1247 0.930 . S
C1238 H1232 0.930 . S
C1238 C1239 1.355 . S
C1238 C1240 1.415 . S
C1239 C1238 1.355 . S
C1239 C1241 1.419 . S
C1240 C1238 1.415 . S
C1240 C1245 1.425 . S
C1240 C1247 1.409 . S
C1241 H1233 0.930 . S
C1241 C1239 1.419 . S
C1241 C1242 1.362 . S
C1242 H1234 0.930 . S
C1242 C1241 1.362 . S
C1242 C1245 1.409 . S
C1243 H1235 0.930 . S
C1243 C1244 1.355 . S
C1243 C1245 1.415 . S
C1244 C1243 1.355 . S
C1244 C1246 1.419 . S
C1245 C1240 1.425 . S
C1245 C1242 1.409 . S
C1245 C1243 1.415 . S
C1246 H1236 0.930 . S
C1246 C1244 1.419 . S
C1246 C1247 1.362 . S
C1247 H1237 0.930 . S
C1247 C1240 1.409 . S
C1247 C1246 1.362 . S
H1248 C1254 0.930 . S
H1249 C1257 0.930 . S
H1250 C1258 0.930 . S
H1251 C1259 0.930 . S
H1252 C1262 0.930 . S
H1253 C1263 0.930 1_545 S
C1254 H1248 0.930 . S
C1254 C1255 1.358 . S
C1254 C1256 1.415 1_545 S
C1255 C1254 1.358 . S
C1255 C1257 1.408 1_545 S
C1256 C1254 1.415 1_565 S
C1256 C1261 1.425 . S
C1256 C1263 1.409 . S
C1257 H1249 0.930 . S
C1257 C1255 1.408 1_565 S
C1257 C1258 1.362 . S
C1258 H1250 0.930 . S
C1258 C1257 1.362 . S
C1258 C1261 1.409 . S
C1259 H1251 0.930 . S
C1259 C1260 1.355 . S
C1259 C1261 1.415 . S
C1260 C1259 1.355 . S
C1260 C1262 1.419 . S
C1261 C1256 1.425 . S
C1261 C1258 1.409 . S
C1261 C1259 1.415 . S
C1262 H1252 0.930 . S
C1262 C1260 1.419 . S
C1262 C1263 1.362 . S
C1263 H1253 0.930 1_565 S
C1263 C1256 1.409 . S
C1263 C1262 1.362 . S
H1264 C1270 0.930 . S
H1265 C1273 0.930 . S
H1266 C1274 0.930 . S
H1267 C1275 0.930 . S
H1268 C1278 0.930 . S
H1269 C1279 0.930 . S
C1270 H1264 0.930 . S
C1270 C1271 1.355 . S
C1270 C1272 1.415 . S
C1271 C1270 1.355 . S
C1271 C1273 1.419 . S
C1272 C1270 1.415 . S
C1272 C1277 1.425 . S
C1272 C1279 1.409 . S
C1273 H1265 0.930 . S
C1273 C1271 1.419 . S
C1273 C1274 1.362 . S
C1274 H1266 0.930 . S
C1274 C1273 1.362 . S
C1274 C1277 1.409 . S
C1275 H1267 0.930 . S
C1275 C1276 1.355 . S
C1275 C1277 1.415 . S
C1276 C1275 1.355 . S
C1276 C1278 1.419 . S
C1277 C1272 1.425 . S
C1277 C1274 1.409 . S
C1277 C1275 1.415 . S
C1278 H1268 0.930 . S
C1278 C1276 1.419 . S
C1278 C1279 1.362 . S
C1279 H1269 0.930 . S
C1279 C1272 1.409 . S
C1279 C1278 1.362 . S
H1280 C1286 0.930 . S
H1281 C1289 0.930 . S
H1282 C1290 0.930 1_565 S
H1283 C1291 0.930 . S
H1284 C1294 0.930 . S
H1285 C1295 0.930 . S
C1286 H1280 0.930 . S
C1286 C1287 1.355 . S
C1286 C1288 1.415 . S
C1287 C1286 1.355 . S
C1287 C1289 1.419 . S
C1288 C1286 1.415 . S
C1288 C1293 1.425 . S
C1288 C1295 1.409 . S
C1289 H1281 0.930 . S
C1289 C1287 1.419 . S
C1289 C1290 1.362 . S
C1290 H1282 0.930 1_545 S
C1290 C1289 1.362 . S
C1290 C1293 1.409 . S
C1291 H1283 0.930 . S
C1291 C1292 1.355 . S
C1291 C1293 1.415 1_565 S
C1292 C1291 1.355 . S
C1292 C1294 1.411 1_565 S
C1293 C1288 1.425 . S
C1293 C1290 1.409 . S
C1293 C1291 1.415 1_545 S
C1294 H1284 0.930 . S
C1294 C1292 1.411 1_545 S
C1294 C1295 1.372 . S
C1295 H1285 0.930 . S
C1295 C1288 1.409 . S
C1295 C1294 1.372 . S
H1296 C1302 0.930 . S
H1297 C1305 0.930 . S
H1298 C1306 0.930 . S
H1299 C1307 0.930 . S
H1300 C1310 0.930 . S
H1301 C1311 0.930 . S
C1302 H1296 0.930 . S
C1302 C1303 1.355 . S
C1302 C1304 1.415 . S
C1303 C1302 1.355 . S
C1303 C1305 1.419 . S
C1304 C1302 1.415 . S
C1304 C1309 1.425 . S
C1304 C1311 1.409 . S
C1305 H1297 0.930 . S
C1305 C1303 1.419 . S
C1305 C1306 1.362 . S
C1306 H1298 0.930 . S
C1306 C1305 1.362 . S
C1306 C1309 1.409 . S
C1307 H1299 0.930 . S
C1307 C1308 1.355 . S
C1307 C1309 1.415 . S
C1308 C1307 1.355 . S
C1308 C1310 1.419 . S
C1309 C1304 1.425 . S
C1309 C1306 1.409 . S
C1309 C1307 1.415 . S
C1310 H1300 0.930 . S
C1310 C1308 1.419 . S
C1310 C1311 1.362 . S
C1311 H1301 0.930 . S
C1311 C1304 1.409 . S
C1311 C1310 1.362 . S
H1312 C1318 0.923 1_565 S
H1313 C1321 0.930 . S
H1314 C1322 0.930 . S
H1315 C1323 0.930 . S
H1316 C1326 0.930 . S
H1317 C1327 0.930 . S
C1318 H1312 0.923 1_545 S
C1318 C1319 1.355 . S
C1318 C1320 1.415 . S
C1319 C1318 1.355 . S
C1319 C1321 1.419 . S
C1320 C1318 1.415 . S
C1320 C1325 1.425 . S
C1320 C1327 1.409 . S
C1321 H1313 0.930 . S
C1321 C1319 1.419 . S
C1321 C1322 1.362 . S
C1322 H1314 0.930 . S
C1322 C1321 1.362 . S
C1322 C1325 1.409 . S
C1323 H1315 0.930 . S
C1323 C1324 1.355 . S
C1323 C1325 1.415 . S
C1324 C1323 1.355 . S
C1324 C1326 1.419 . S
C1325 C1320 1.425 . S
C1325 C1322 1.409 . S
C1325 C1323 1.415 . S
C1326 H1316 0.930 . S
C1326 C1324 1.419 . S
C1326 C1327 1.362 . S
C1327 H1317 0.930 . S
C1327 C1320 1.409 . S
C1327 C1326 1.362 . S
H1328 C1334 0.930 . S
H1329 C1337 0.930 . S
H1330 C1338 0.930 . S
H1331 C1339 0.930 . S
H1332 C1342 0.930 . S
H1333 C1343 0.930 . S
C1334 H1328 0.930 . S
C1334 C1335 1.355 . S
C1334 C1336 1.415 . S
C1335 C1334 1.355 . S
C1335 C1337 1.419 . S
C1336 C1334 1.415 . S
C1336 C1341 1.425 . S
C1336 C1343 1.409 . S
C1337 H1329 0.930 . S
C1337 C1335 1.419 . S
C1337 C1338 1.362 . S
C1338 H1330 0.930 . S
C1338 C1337 1.362 . S
C1338 C1341 1.409 . S
C1339 H1331 0.930 . S
C1339 C1340 1.355 . S
C1339 C1341 1.415 . S
C1340 C1339 1.355 . S
C1340 C1342 1.419 . S
C1341 C1336 1.425 . S
C1341 C1338 1.409 . S
C1341 C1339 1.415 . S
C1342 H1332 0.930 . S
C1342 C1340 1.419 . S
C1342 C1343 1.362 . S
C1343 H1333 0.930 . S
C1343 C1336 1.409 . S
C1343 C1342 1.362 . S
H1344 C1350 0.930 . S
H1345 C1353 0.930 . S
H1346 C1354 0.930 . S
H1347 C1355 0.930 . S
H1348 C1358 0.930 . S
H1349 C1359 0.930 . S
C1350 H1344 0.930 . S
C1350 C1351 1.355 . S
C1350 C1352 1.415 . S
C1351 C1350 1.355 . S
C1351 C1353 1.419 1_554 S
C1352 C1350 1.415 . S
C1352 C1357 1.425 . S
C1352 C1359 1.409 . S
C1353 H1345 0.930 . S
C1353 C1351 1.419 1_556 S
C1353 C1354 1.362 . S
C1354 H1346 0.930 . S
C1354 C1353 1.362 . S
C1354 C1357 1.409 1_556 S
C1355 H1347 0.930 . S
C1355 C1356 1.355 . S
C1355 C1357 1.415 . S
C1356 C1355 1.355 . S
C1356 C1358 1.419 . S
C1357 C1352 1.425 . S
C1357 C1354 1.409 1_554 S
C1357 C1355 1.415 . S
C1358 H1348 0.930 . S
C1358 C1356 1.419 . S
C1358 C1359 1.362 . S
C1359 H1349 0.930 . S
C1359 C1352 1.409 . S
C1359 C1358 1.362 . S
H1360 C1366 0.930 . S
H1361 C1369 0.930 . S
H1362 C1370 0.930 . S
H1363 C1371 0.930 . S
H1364 C1374 0.930 . S
H1365 C1375 0.930 . S
C1366 H1360 0.930 . S
C1366 C1367 1.355 1_554 S
C1366 C1368 1.415 . S
C1367 C1366 1.355 1_556 S
C1367 C1369 1.419 . S
C1368 C1366 1.415 . S
C1368 C1373 1.425 1_554 S
C1368 C1375 1.409 . S
C1369 H1361 0.930 . S
C1369 C1367 1.419 . S
C1369 C1370 1.362 . S
C1370 H1362 0.930 . S
C1370 C1369 1.362 . S
C1370 C1373 1.409 . S
C1371 H1363 0.930 . S
C1371 C1372 1.355 . S
C1371 C1373 1.415 . S
C1372 C1371 1.355 . S
C1372 C1374 1.419 1_556 S
C1373 C1368 1.425 1_556 S
C1373 C1370 1.409 . S
C1373 C1371 1.415 . S
C1374 H1364 0.930 . S
C1374 C1372 1.419 1_554 S
C1374 C1375 1.362 . S
C1375 H1365 0.930 . S
C1375 C1368 1.409 . S
C1375 C1374 1.362 . S
H1376 C1382 0.930 . S
H1377 C1385 0.930 . S
H1378 C1386 0.930 . S
H1379 C1387 0.930 . S
H1380 C1390 0.930 . S
H1381 C1391 0.930 . S
C1382 H1376 0.930 . S
C1382 C1383 1.355 . S
C1382 C1384 1.415 . S
C1383 C1382 1.355 . S
C1383 C1385 1.419 . S
C1384 C1382 1.415 . S
C1384 C1389 1.425 . S
C1384 C1391 1.409 . S
C1385 H1377 0.930 . S
C1385 C1383 1.419 . S
C1385 C1386 1.362 . S
C1386 H1378 0.930 . S
C1386 C1385 1.362 . S
C1386 C1389 1.409 . S
C1387 H1379 0.930 . S
C1387 C1388 1.355 . S
C1387 C1389 1.415 . S
C1388 C1387 1.355 . S
C1388 C1390 1.419 . S
C1389 C1384 1.425 . S
C1389 C1386 1.409 . S
C1389 C1387 1.415 . S
C1390 H1380 0.930 . S
C1390 C1388 1.419 . S
C1390 C1391 1.362 . S
C1391 H1381 0.930 . S
C1391 C1384 1.409 . S
C1391 C1390 1.362 . S
H1392 C1398 0.930 . S
H1393 C1401 0.930 . S
H1394 C1402 0.930 . S
H1395 C1403 0.930 . S
H1396 C1406 0.930 . S
H1397 C1407 0.930 . S
C1398 H1392 0.930 . S
C1398 C1399 1.355 . S
C1398 C1400 1.415 . S
C1399 C1398 1.355 . S
C1399 C1401 1.419 . S
C1400 C1398 1.415 . S
C1400 C1405 1.425 . S
C1400 C1407 1.409 . S
C1401 H1393 0.930 . S
C1401 C1399 1.419 . S
C1401 C1402 1.362 . S
C1402 H1394 0.930 . S
C1402 C1401 1.362 . S
C1402 C1405 1.409 . S
C1403 H1395 0.930 . S
C1403 C1404 1.355 . S
C1403 C1405 1.415 . S
C1404 C1403 1.355 . S
C1404 C1406 1.419 . S
C1405 C1400 1.425 . S
C1405 C1402 1.409 . S
C1405 C1403 1.415 . S
C1406 H1396 0.930 . S
C1406 C1404 1.419 . S
C1406 C1407 1.362 . S
C1407 H1397 0.930 . S
C1407 C1400 1.409 . S
C1407 C1406 1.362 . S
H1408 C1414 0.930 . S
H1409 C1417 0.930 . S
H1410 C1418 0.930 . S
H1411 C1419 0.930 . S
H1412 C1422 0.930 . S
H1413 C1423 0.930 . S
C1414 H1408 0.930 . S
C1414 C1415 1.355 . S
C1414 C1416 1.415 . S
C1415 C1414 1.355 . S
C1415 C1417 1.419 . S
C1416 C1414 1.415 . S
C1416 C1421 1.425 . S
C1416 C1423 1.409 . S
C1417 H1409 0.930 . S
C1417 C1415 1.419 . S
C1417 C1418 1.362 . S
C1418 H1410 0.930 . S
C1418 C1417 1.362 . S
C1418 C1421 1.409 . S
C1419 H1411 0.930 . S
C1419 C1420 1.355 . S
C1419 C1421 1.415 . S
C1420 C1419 1.355 . S
C1420 C1422 1.419 . S
C1421 C1416 1.425 . S
C1421 C1418 1.409 . S
C1421 C1419 1.415 . S
C1422 H1412 0.930 . S
C1422 C1420 1.419 . S
C1422 C1423 1.362 . S
C1423 H1413 0.930 . S
C1423 C1416 1.409 . S
C1423 C1422 1.362 . S
H1424 C1430 0.930 . S
H1425 C1433 0.930 . S
H1426 C1434 0.930 . S
H1427 C1435 0.930 . S
H1428 C1438 0.930 . S
H1429 C1439 0.930 . S
C1430 H1424 0.930 . S
C1430 C1431 1.355 . S
C1430 C1432 1.415 . S
C1431 C1430 1.355 . S
C1431 C1433 1.419 . S
C1432 C1430 1.415 . S
C1432 C1437 1.425 . S
C1432 C1439 1.409 . S
C1433 H1425 0.930 . S
C1433 C1431 1.419 . S
C1433 C1434 1.362 . S
C1434 H1426 0.930 . S
C1434 C1433 1.362 . S
C1434 C1437 1.409 . S
C1435 H1427 0.930 . S
C1435 C1436 1.355 . S
C1435 C1437 1.415 . S
C1436 C1435 1.355 . S
C1436 C1438 1.419 . S
C1437 C1432 1.425 . S
C1437 C1434 1.409 . S
C1437 C1435 1.415 . S
C1438 H1428 0.930 . S
C1438 C1436 1.419 . S
C1438 C1439 1.362 . S
C1439 H1429 0.930 . S
C1439 C1432 1.409 . S
C1439 C1438 1.362 . S
H1440 C1446 0.930 . S
H1441 C1449 0.930 . S
H1442 C1450 0.930 . S
H1443 C1451 0.930 . S
H1444 C1454 0.930 . S
H1445 C1455 0.930 . S
C1446 H1440 0.930 . S
C1446 C1447 1.355 . S
C1446 C1448 1.415 . S
C1447 C1446 1.355 . S
C1447 C1449 1.419 . S
C1448 C1446 1.415 . S
C1448 C1453 1.425 . S
C1448 C1455 1.409 . S
C1449 H1441 0.930 . S
C1449 C1447 1.419 . S
C1449 C1450 1.362 . S
C1450 H1442 0.930 . S
C1450 C1449 1.362 . S
C1450 C1453 1.409 . S
C1451 H1443 0.930 . S
C1451 C1452 1.355 . S
C1451 C1453 1.415 . S
C1452 C1451 1.355 . S
C1452 C1454 1.419 . S
C1453 C1448 1.425 . S
C1453 C1450 1.409 . S
C1453 C1451 1.415 . S
C1454 H1444 0.930 . S
C1454 C1452 1.419 . S
C1454 C1455 1.362 . S
C1455 H1445 0.930 . S
C1455 C1448 1.409 . S
C1455 C1454 1.362 . S
H1456 C1462 0.930 . S
H1457 C1465 0.930 . S
H1458 C1466 0.930 . S
H1459 C1467 0.930 . S
H1460 C1470 0.930 . S
H1461 C1471 0.930 . S
C1462 H1456 0.930 . S
C1462 C1463 1.355 . S
C1462 C1464 1.415 . S
C1463 C1462 1.355 . S
C1463 C1465 1.419 . S
C1464 C1462 1.415 . S
C1464 C1469 1.425 . S
C1464 C1471 1.409 . S
C1465 H1457 0.930 . S
C1465 C1463 1.419 . S
C1465 C1466 1.362 . S
C1466 H1458 0.930 . S
C1466 C1465 1.362 . S
C1466 C1469 1.409 . S
C1467 H1459 0.930 . S
C1467 C1468 1.355 . S
C1467 C1469 1.415 . S
C1468 C1467 1.355 . S
C1468 C1470 1.419 . S
C1469 C1464 1.425 . S
C1469 C1466 1.409 . S
C1469 C1467 1.415 . S
C1470 H1460 0.930 . S
C1470 C1468 1.419 . S
C1470 C1471 1.362 . S
C1471 H1461 0.930 . S
C1471 C1464 1.409 . S
C1471 C1470 1.362 . S
H1472 C1478 0.930 . S
H1473 C1481 0.930 . S
H1474 C1482 0.930 . S
H1475 C1483 0.930 . S
H1476 C1486 0.930 . S
H1477 C1487 0.930 . S
C1478 H1472 0.930 . S
C1478 C1479 1.355 . S
C1478 C1480 1.415 . S
C1479 C1478 1.355 . S
C1479 C1481 1.419 . S
C1480 C1478 1.415 . S
C1480 C1485 1.425 . S
C1480 C1487 1.409 . S
C1481 H1473 0.930 . S
C1481 C1479 1.419 . S
C1481 C1482 1.362 . S
C1482 H1474 0.930 . S
C1482 C1481 1.362 . S
C1482 C1485 1.409 . S
C1483 H1475 0.930 . S
C1483 C1484 1.355 . S
C1483 C1485 1.415 . S
C1484 C1483 1.355 . S
C1484 C1486 1.419 . S
C1485 C1480 1.425 . S
C1485 C1482 1.409 . S
C1485 C1483 1.415 . S
C1486 H1476 0.930 . S
C1486 C1484 1.419 . S
C1486 C1487 1.362 . S
C1487 H1477 0.930 . S
C1487 C1480 1.409 . S
C1487 C1486 1.362 . S
H1488 C1494 0.930 . S
H1489 C1497 0.930 . S
H1490 C1498 0.930 . S
H1491 C1499 0.930 . S
H1492 C1502 0.930 . S
H1493 C1503 0.930 . S
C1494 H1488 0.930 . S
C1494 C1495 1.355 . S
C1494 C1496 1.415 . S
C1495 C1494 1.355 . S
C1495 C1497 1.419 . S
C1496 C1494 1.415 . S
C1496 C1501 1.425 . S
C1496 C1503 1.409 . S
C1497 H1489 0.930 . S
C1497 C1495 1.419 . S
C1497 C1498 1.362 . S
C1498 H1490 0.930 . S
C1498 C1497 1.362 . S
C1498 C1501 1.409 . S
C1499 H1491 0.930 . S
C1499 C1500 1.355 . S
C1499 C1501 1.415 . S
C1500 C1499 1.355 . S
C1500 C1502 1.419 . S
C1501 C1496 1.425 . S
C1501 C1498 1.409 . S
C1501 C1499 1.415 . S
C1502 H1492 0.930 . S
C1502 C1500 1.419 . S
C1502 C1503 1.362 . S
C1503 H1493 0.930 . S
C1503 C1496 1.409 . S
C1503 C1502 1.362 . S
H1504 C1510 0.929 . S
H1505 C1513 0.930 . S
H1506 C1514 0.930 . S
H1507 C1515 0.930 . S
H1508 C1518 0.930 . S
H1509 C1519 0.930 . S
C1510 H1504 0.929 . S
C1510 C1511 1.355 . S
C1510 C1512 1.415 . S
C1511 C1510 1.355 . S
C1511 C1513 1.419 . S
C1512 C1510 1.415 . S
C1512 C1517 1.425 . S
C1512 C1519 1.409 . S
C1513 H1505 0.930 . S
C1513 C1511 1.419 . S
C1513 C1514 1.362 . S
C1514 H1506 0.930 . S
C1514 C1513 1.362 . S
C1514 C1517 1.409 . S
C1515 H1507 0.930 . S
C1515 C1516 1.355 . S
C1515 C1517 1.415 . S
C1516 C1515 1.355 . S
C1516 C1518 1.419 . S
C1517 C1512 1.425 . S
C1517 C1514 1.409 . S
C1517 C1515 1.415 . S
C1518 H1508 0.930 . S
C1518 C1516 1.419 . S
C1518 C1519 1.362 . S
C1519 H1509 0.930 . S
C1519 C1512 1.409 . S
C1519 C1518 1.362 . S
H1520 C1526 0.930 . S
H1521 C1529 0.930 . S
H1522 C1530 0.930 . S
H1523 C1531 0.930 . S
H1524 C1534 0.930 . S
H1525 C1535 0.930 . S
C1526 H1520 0.930 . S
C1526 C1527 1.355 . S
C1526 C1528 1.415 . S
C1527 C1526 1.355 . S
C1527 C1529 1.419 . S
C1528 C1526 1.415 . S
C1528 C1533 1.425 . S
C1528 C1535 1.409 . S
C1529 H1521 0.930 . S
C1529 C1527 1.419 . S
C1529 C1530 1.362 . S
C1530 H1522 0.930 . S
C1530 C1529 1.362 . S
C1530 C1533 1.409 . S
C1531 H1523 0.930 . S
C1531 C1532 1.355 . S
C1531 C1533 1.415 . S
C1532 C1531 1.355 . S
C1532 C1534 1.419 . S
C1533 C1528 1.425 . S
C1533 C1530 1.409 . S
C1533 C1531 1.415 . S
C1534 H1524 0.930 . S
C1534 C1532 1.419 . S
C1534 C1535 1.362 . S
C1535 H1525 0.930 . S
C1535 C1528 1.409 . S
C1535 C1534 1.362 . S
H1536 C1542 0.930 . S
H1537 C1545 0.930 . S
H1538 C1546 0.930 . S
H1539 C1547 0.930 . S
H1540 C1550 0.930 1_554 S
H1541 C1551 0.930 . S
C1542 H1536 0.930 . S
C1542 C1543 1.355 . S
C1542 C1544 1.415 . S
C1543 C1542 1.355 . S
C1543 C1545 1.419 . S
C1544 C1542 1.415 . S
C1544 C1549 1.425 . S
C1544 C1551 1.409 . S
C1545 H1537 0.930 . S
C1545 C1543 1.419 . S
C1545 C1546 1.362 . S
C1546 H1538 0.930 . S
C1546 C1545 1.362 . S
C1546 C1549 1.409 . S
C1547 H1539 0.930 . S
C1547 C1548 1.355 . S
C1547 C1549 1.415 . S
C1548 C1547 1.355 . S
C1548 C1550 1.419 . S
C1549 C1544 1.425 . S
C1549 C1546 1.409 . S
C1549 C1547 1.415 . S
C1550 H1540 0.930 1_556 S
C1550 C1548 1.419 . S
C1550 C1551 1.362 . S
C1551 H1541 0.930 . S
C1551 C1544 1.409 . S
C1551 C1550 1.362 . S
H1552 C1558 0.930 . S
H1553 C1561 0.930 . S
H1554 C1562 0.930 . S
H1555 C1563 0.930 . S
H1556 C1566 0.930 . S
H1557 C1567 0.930 . S
C1558 H1552 0.930 . S
C1558 C1559 1.355 . S
C1558 C1560 1.415 . S
C1559 C1558 1.355 . S
C1559 C1561 1.419 . S
C1560 C1558 1.415 . S
C1560 C1565 1.425 . S
C1560 C1567 1.409 . S
C1561 H1553 0.930 . S
C1561 C1559 1.419 . S
C1561 C1562 1.362 . S
C1562 H1554 0.930 . S
C1562 C1561 1.362 . S
C1562 C1565 1.409 . S
C1563 H1555 0.930 . S
C1563 C1564 1.355 . S
C1563 C1565 1.415 . S
C1564 C1563 1.355 . S
C1564 C1566 1.419 . S
C1565 C1560 1.425 . S
C1565 C1562 1.409 . S
C1565 C1563 1.415 . S
C1566 H1556 0.930 . S
C1566 C1564 1.419 . S
C1566 C1567 1.362 . S
C1567 H1557 0.930 . S
C1567 C1560 1.409 . S
C1567 C1566 1.362 . S
H1568 C1574 0.930 . S
H1569 C1577 0.930 . S
H1570 C1578 0.930 . S
H1571 C1579 0.930 . S
H1572 C1582 0.930 . S
H1573 C1583 0.930 . S
C1574 H1568 0.930 . S
C1574 C1575 1.355 . S
C1574 C1576 1.415 . S
C1575 C1574 1.355 . S
C1575 C1577 1.419 . S
C1576 C1574 1.415 . S
C1576 C1581 1.425 . S
C1576 C1583 1.409 . S
C1577 H1569 0.930 . S
C1577 C1575 1.419 . S
C1577 C1578 1.362 . S
C1578 H1570 0.930 . S
C1578 C1577 1.362 . S
C1578 C1581 1.409 . S
C1579 H1571 0.930 . S
C1579 C1580 1.355 . S
C1579 C1581 1.415 . S
C1580 C1579 1.355 . S
C1580 C1582 1.419 . S
C1581 C1576 1.425 . S
C1581 C1578 1.409 . S
C1581 C1579 1.415 . S
C1582 H1572 0.930 . S
C1582 C1580 1.419 . S
C1582 C1583 1.362 . S
C1583 H1573 0.930 . S
C1583 C1576 1.409 . S
C1583 C1582 1.362 . S
H1584 C1590 0.930 . S
H1585 C1593 0.930 . S
H1586 C1594 0.930 . S
H1587 C1595 0.930 . S
H1588 C1598 0.930 . S
H1589 C1599 0.930 . S
C1590 H1584 0.930 . S
C1590 C1591 1.355 . S
C1590 C1592 1.415 . S
C1591 C1590 1.355 . S
C1591 C1593 1.419 . S
C1592 C1590 1.415 . S
C1592 C1597 1.425 . S
C1592 C1599 1.409 . S
C1593 H1585 0.930 . S
C1593 C1591 1.419 . S
C1593 C1594 1.362 . S
C1594 H1586 0.930 . S
C1594 C1593 1.362 . S
C1594 C1597 1.409 . S
C1595 H1587 0.930 . S
C1595 C1596 1.355 . S
C1595 C1597 1.415 . S
C1596 C1595 1.355 . S
C1596 C1598 1.419 . S
C1597 C1592 1.425 . S
C1597 C1594 1.409 . S
C1597 C1595 1.415 . S
C1598 H1588 0.930 . S
C1598 C1596 1.419 . S
C1598 C1599 1.362 . S
C1599 H1589 0.930 . S
C1599 C1592 1.409 . S
C1599 C1598 1.362 . S
H1600 C1606 0.930 . S
H1601 C1609 0.930 . S
H1602 C1610 0.930 . S
H1603 C1611 0.930 . S
H1604 C1614 0.930 . S
H1605 C1615 0.930 . S
C1606 H1600 0.930 . S
C1606 C1607 1.355 . S
C1606 C1608 1.415 . S
C1607 C1606 1.355 . S
C1607 C1609 1.419 . S
C1608 C1606 1.415 . S
C1608 C1613 1.425 . S
C1608 C1615 1.409 . S
C1609 H1601 0.930 . S
C1609 C1607 1.419 . S
C1609 C1610 1.362 . S
C1610 H1602 0.930 . S
C1610 C1609 1.362 . S
C1610 C1613 1.409 . S
C1611 H1603 0.930 . S
C1611 C1612 1.355 . S
C1611 C1613 1.415 . S
C1612 C1611 1.355 . S
C1612 C1614 1.419 . S
C1613 C1608 1.425 . S
C1613 C1610 1.409 . S
C1613 C1611 1.415 . S
C1614 H1604 0.930 . S
C1614 C1612 1.419 . S
C1614 C1615 1.362 . S
C1615 H1605 0.930 . S
C1615 C1608 1.409 . S
C1615 C1614 1.362 . S
H1616 C1622 0.930 . S
H1617 C1625 0.930 . S
H1618 C1626 0.930 . S
H1619 C1627 0.930 . S
H1620 C1630 0.930 . S
H1621 C1631 0.930 . S
C1622 H1616 0.930 . S
C1622 C1623 1.355 . S
C1622 C1624 1.415 . S
C1623 C1622 1.355 . S
C1623 C1625 1.419 . S
C1624 C1622 1.415 . S
C1624 C1629 1.425 . S
C1624 C1631 1.409 . S
C1625 H1617 0.930 . S
C1625 C1623 1.419 . S
C1625 C1626 1.362 . S
C1626 H1618 0.930 . S
C1626 C1625 1.362 . S
C1626 C1629 1.409 . S
C1627 H1619 0.930 . S
C1627 C1628 1.355 . S
C1627 C1629 1.415 . S
C1628 C1627 1.355 . S
C1628 C1630 1.419 . S
C1629 C1624 1.425 . S
C1629 C1626 1.409 . S
C1629 C1627 1.415 . S
C1630 H1620 0.930 . S
C1630 C1628 1.419 . S
C1630 C1631 1.362 . S
C1631 H1621 0.930 . S
C1631 C1624 1.409 . S
C1631 C1630 1.362 . S
H1632 C1638 0.930 . S
H1633 C1641 0.930 . S
H1634 C1642 0.930 . S
H1635 C1643 0.930 . S
H1636 C1646 0.930 . S
H1637 C1647 0.930 . S
C1638 H1632 0.930 . S
C1638 C1639 1.355 . S
C1638 C1640 1.415 . S
C1639 C1638 1.355 . S
C1639 C1641 1.419 . S
C1640 C1638 1.415 . S
C1640 C1645 1.425 . S
C1640 C1647 1.409 . S
C1641 H1633 0.930 . S
C1641 C1639 1.419 . S
C1641 C1642 1.362 . S
C1642 H1634 0.930 . S
C1642 C1641 1.362 . S
C1642 C1645 1.409 . S
C1643 H1635 0.930 . S
C1643 C1644 1.355 . S
C1643 C1645 1.415 . S
C1644 C1643 1.355 . S
C1644 C1646 1.419 . S
C1645 C1640 1.425 . S
C1645 C1642 1.409 . S
C1645 C1643 1.415 . S
C1646 H1636 0.930 . S
C1646 C1644 1.419 . S
C1646 C1647 1.362 . S
C1647 H1637 0.930 . S
C1647 C1640 1.409 . S
C1647 C1646 1.362 . S
H1648 C1654 0.930 . S
H1649 C1657 0.930 . S
H1650 C1658 0.930 . S
H1651 C1659 0.930 . S
H1652 C1662 0.930 . S
H1653 C1663 0.930 . S
C1654 H1648 0.930 . S
C1654 C1655 1.355 . S
C1654 C1656 1.415 . S
C1655 C1654 1.355 . S
C1655 C1657 1.419 . S
C1656 C1654 1.415 . S
C1656 C1661 1.425 . S
C1656 C1663 1.409 . S
C1657 H1649 0.930 . S
C1657 C1655 1.419 . S
C1657 C1658 1.362 . S
C1658 H1650 0.930 . S
C1658 C1657 1.362 . S
C1658 C1661 1.409 . S
C1659 H1651 0.930 . S
C1659 C1660 1.355 . S
C1659 C1661 1.415 . S
C1660 C1659 1.355 . S
C1660 C1662 1.419 . S
C1661 C1656 1.425 . S
C1661 C1658 1.409 . S
C1661 C1659 1.415 . S
C1662 H1652 0.930 . S
C1662 C1660 1.419 . S
C1662 C1663 1.362 . S
C1663 H1653 0.930 . S
C1663 C1656 1.409 . S
C1663 C1662 1.362 . S
H1664 C1670 0.930 . S
H1665 C1673 0.930 . S
H1666 C1674 0.930 . S
H1667 C1675 0.930 . S
H1668 C1678 0.930 . S
H1669 C1679 0.930 . S
C1670 H1664 0.930 . S
C1670 C1671 1.355 . S
C1670 C1672 1.415 . S
C1671 C1670 1.355 . S
C1671 C1673 1.419 . S
C1672 C1670 1.415 . S
C1672 C1677 1.425 . S
C1672 C1679 1.409 . S
C1673 H1665 0.930 . S
C1673 C1671 1.419 . S
C1673 C1674 1.362 . S
C1674 H1666 0.930 . S
C1674 C1673 1.362 . S
C1674 C1677 1.409 . S
C1675 H1667 0.930 . S
C1675 C1676 1.355 . S
C1675 C1677 1.415 . S
C1676 C1675 1.355 . S
C1676 C1678 1.419 . S
C1677 C1672 1.425 . S
C1677 C1674 1.409 . S
C1677 C1675 1.415 . S
C1678 H1668 0.930 . S
C1678 C1676 1.419 . S
C1678 C1679 1.362 . S
C1679 H1669 0.930 . S
C1679 C1672 1.409 . S
C1679 C1678 1.362 . S
H1680 C1686 0.930 . S
H1681 C1689 0.930 . S
H1682 C1690 0.930 . S
H1683 C1691 0.930 . S
H1684 C1694 0.930 . S
H1685 C1695 0.930 . S
C1686 H1680 0.930 . S
C1686 C1687 1.355 . S
C1686 C1688 1.415 . S
C1687 C1686 1.355 . S
C1687 C1689 1.419 . S
C1688 C1686 1.415 . S
C1688 C1693 1.425 . S
C1688 C1695 1.409 . S
C1689 H1681 0.930 . S
C1689 C1687 1.419 . S
C1689 C1690 1.362 . S
C1690 H1682 0.930 . S
C1690 C1689 1.362 . S
C1690 C1693 1.409 . S
C1691 H1683 0.930 . S
C1691 C1692 1.355 . S
C1691 C1693 1.415 . S
C1692 C1691 1.355 . S
C1692 C1694 1.419 . S
C1693 C1688 1.425 . S
C1693 C1690 1.409 . S
C1693 C1691 1.415 . S
C1694 H1684 0.930 . S
C1694 C1692 1.419 . S
C1694 C1695 1.362 . S
C1695 H1685 0.930 . S
C1695 C1688 1.409 . S
C1695 C1694 1.362 . S
H1696 C1702 0.930 . S
H1697 C1705 0.930 . S
H1698 C1706 0.930 . S
H1699 C1707 0.930 . S
H1700 C1710 0.930 . S
H1701 C1711 0.930 . S
C1702 H1696 0.930 . S
C1702 C1703 1.355 . S
C1702 C1704 1.415 . S
C1703 C1702 1.355 . S
C1703 C1705 1.419 . S
C1704 C1702 1.415 . S
C1704 C1709 1.425 . S
C1704 C1711 1.409 . S
C1705 H1697 0.930 . S
C1705 C1703 1.419 . S
C1705 C1706 1.362 . S
C1706 H1698 0.930 . S
C1706 C1705 1.362 . S
C1706 C1709 1.409 . S
C1707 H1699 0.930 . S
C1707 C1708 1.355 . S
C1707 C1709 1.415 . S
C1708 C1707 1.355 . S
C1708 C1710 1.419 . S
C1709 C1704 1.425 . S
C1709 C1706 1.409 . S
C1709 C1707 1.415 . S
C1710 H1700 0.930 . S
C1710 C1708 1.419 . S
C1710 C1711 1.362 . S
C1711 H1701 0.930 . S
C1711 C1704 1.409 . S
C1711 C1710 1.362 . S
H1712 C1718 0.930 . S
H1713 C1721 0.930 . S
H1714 C1722 0.930 . S
H1715 C1723 0.930 . S
H1716 C1726 0.930 . S
H1717 C1727 0.930 . S
C1718 H1712 0.930 . S
C1718 C1719 1.355 . S
C1718 C1720 1.415 . S
C1719 C1718 1.355 . S
C1719 C1721 1.419 . S
C1720 C1718 1.415 . S
C1720 C1725 1.425 . S
C1720 C1727 1.409 . S
C1721 H1713 0.930 . S
C1721 C1719 1.419 . S
C1721 C1722 1.362 . S
C1722 H1714 0.930 . S
C1722 C1721 1.362 . S
C1722 C1725 1.409 . S
C1723 H1715 0.930 . S
C1723 C1724 1.355 . S
C1723 C1725 1.415 . S
C1724 C1723 1.355 . S
C1724 C1726 1.419 . S
C1725 C1720 1.425 . S
C1725 C1722 1.409 . S
C1725 C1723 1.415 . S
C1726 H1716 0.930 . S
C1726 C1724 1.419 . S
C1726 C1727 1.362 . S
C1727 H1717 0.930 . S
C1727 C1720 1.409 . S
C1727 C1726 1.362 . S
H1728 C1734 0.930 . S
H1729 C1737 0.930 . S
H1730 C1738 0.930 . S
H1731 C1739 0.930 . S
H1732 C1742 0.930 . S
H1733 C1743 0.930 . S
C1734 H1728 0.930 . S
C1734 C1735 1.355 . S
C1734 C1736 1.415 . S
C1735 C1734 1.355 . S
C1735 C1737 1.419 . S
C1736 C1734 1.415 . S
C1736 C1741 1.425 . S
C1736 C1743 1.409 . S
C1737 H1729 0.930 . S
C1737 C1735 1.419 . S
C1737 C1738 1.362 . S
C1738 H1730 0.930 . S
C1738 C1737 1.362 . S
C1738 C1741 1.409 . S
C1739 H1731 0.930 . S
C1739 C1740 1.355 . S
C1739 C1741 1.415 . S
C1740 C1739 1.355 . S
C1740 C1742 1.419 . S
C1741 C1736 1.425 . S
C1741 C1738 1.409 . S
C1741 C1739 1.415 . S
C1742 H1732 0.930 . S
C1742 C1740 1.419 . S
C1742 C1743 1.362 . S
C1743 H1733 0.930 . S
C1743 C1736 1.409 . S
C1743 C1742 1.362 . S
H1744 C1750 0.930 . S
H1745 C1753 0.930 . S
H1746 C1754 0.930 . S
H1747 C1755 0.930 . S
H1748 C1758 0.930 . S
H1749 C1759 0.930 . S
C1750 H1744 0.930 . S
C1750 C1751 1.355 . S
C1750 C1752 1.415 . S
C1751 C1750 1.355 . S
C1751 C1753 1.419 . S
C1752 C1750 1.415 . S
C1752 C1757 1.425 . S
C1752 C1759 1.409 . S
C1753 H1745 0.930 . S
C1753 C1751 1.419 . S
C1753 C1754 1.362 . S
C1754 H1746 0.930 . S
C1754 C1753 1.362 . S
C1754 C1757 1.409 . S
C1755 H1747 0.930 . S
C1755 C1756 1.355 . S
C1755 C1757 1.415 . S
C1756 C1755 1.355 . S
C1756 C1758 1.419 . S
C1757 C1752 1.425 . S
C1757 C1754 1.409 . S
C1757 C1755 1.415 . S
C1758 H1748 0.930 . S
C1758 C1756 1.419 . S
C1758 C1759 1.362 . S
C1759 H1749 0.930 . S
C1759 C1752 1.409 . S
C1759 C1758 1.362 . S
H1760 C1766 0.930 . S
H1761 C1769 0.930 . S
H1762 C1770 0.930 . S
H1763 C1771 0.930 . S
H1764 C1774 0.930 . S
H1765 C1775 0.930 . S
C1766 H1760 0.930 . S
C1766 C1767 1.355 . S
C1766 C1768 1.415 . S
C1767 C1766 1.355 . S
C1767 C1769 1.419 . S
C1768 C1766 1.415 . S
C1768 C1773 1.425 . S
C1768 C1775 1.409 . S
C1769 H1761 0.930 . S
C1769 C1767 1.419 . S
C1769 C1770 1.362 . S
C1770 H1762 0.930 . S
C1770 C1769 1.362 . S
C1770 C1773 1.409 . S
C1771 H1763 0.930 . S
C1771 C1772 1.355 . S
C1771 C1773 1.415 . S
C1772 C1771 1.355 . S
C1772 C1774 1.419 . S
C1773 C1768 1.425 . S
C1773 C1770 1.409 . S
C1773 C1771 1.415 . S
C1774 H1764 0.930 . S
C1774 C1772 1.419 . S
C1774 C1775 1.362 . S
C1775 H1765 0.930 . S
C1775 C1768 1.409 . S
C1775 C1774 1.362 . S
H1776 C1782 0.930 . S
H1777 C1785 0.930 . S
H1778 C1786 0.930 . S
H1779 C1787 0.930 . S
H1780 C1790 0.930 . S
H1781 C1791 0.930 . S
C1782 H1776 0.930 . S
C1782 C1783 1.355 1_556 S
C1782 C1784 1.415 1_556 S
C1783 C1782 1.355 1_554 S
C1783 C1785 1.419 . S
C1784 C1782 1.415 1_554 S
C1784 C1789 1.425 . S
C1784 C1791 1.409 1_554 S
C1785 H1777 0.930 . S
C1785 C1783 1.419 . S
C1785 C1786 1.362 . S
C1786 H1778 0.930 . S
C1786 C1785 1.362 . S
C1786 C1789 1.409 . S
C1787 H1779 0.930 . S
C1787 C1788 1.355 . S
C1787 C1789 1.415 . S
C1788 C1787 1.355 . S
C1788 C1790 1.419 1_554 S
C1789 C1784 1.425 . S
C1789 C1786 1.409 . S
C1789 C1787 1.415 . S
C1790 H1780 0.930 . S
C1790 C1788 1.419 1_556 S
C1790 C1791 1.362 . S
C1791 H1781 0.930 . S
C1791 C1784 1.409 1_556 S
C1791 C1790 1.362 . S
H1792 C1798 0.930 . S
H1793 C1801 0.930 . S
H1794 C1802 0.930 . S
H1795 C1803 0.930 . S
H1796 C1806 0.930 . S
H1797 C1807 0.930 . S
C1798 H1792 0.930 . S
C1798 C1799 1.355 . S
C1798 C1800 1.415 . S
C1799 C1798 1.355 . S
C1799 C1801 1.419 . S
C1800 C1798 1.415 . S
C1800 C1805 1.425 . S
C1800 C1807 1.409 . S
C1801 H1793 0.930 . S
C1801 C1799 1.419 . S
C1801 C1802 1.362 . S
C1802 H1794 0.930 . S
C1802 C1801 1.362 . S
C1802 C1805 1.409 . S
C1803 H1795 0.930 . S
C1803 C1804 1.355 . S
C1803 C1805 1.415 . S
C1804 C1803 1.355 . S
C1804 C1806 1.419 . S
C1805 C1800 1.425 . S
C1805 C1802 1.409 . S
C1805 C1803 1.415 . S
C1806 H1796 0.930 . S
C1806 C1804 1.419 . S
C1806 C1807 1.362 . S
C1807 H1797 0.930 . S
C1807 C1800 1.409 . S
C1807 C1806 1.362 . S
H1808 C1814 0.929 1_556 S
H1809 C1817 0.930 . S
H1810 C1818 0.930 . S
H1811 C1819 0.929 1_554 S
H1812 C1822 0.930 . S
H1813 C1823 0.930 . S
C1814 H1808 0.929 1_554 S
C1814 C1815 1.355 . S
C1814 C1816 1.415 1_554 S
C1815 C1814 1.355 . S
C1815 C1817 1.419 . S
C1816 C1814 1.415 1_556 S
C1816 C1821 1.425 1_556 S
C1816 C1823 1.409 . S
C1817 H1809 0.930 . S
C1817 C1815 1.419 . S
C1817 C1818 1.362 . S
C1818 H1810 0.930 . S
C1818 C1817 1.362 . S
C1818 C1821 1.409 . S
C1819 H1811 0.929 1_556 S
C1819 C1820 1.356 . S
C1819 C1821 1.414 1_556 S
C1820 C1819 1.356 . S
C1820 C1822 1.419 . S
C1821 C1816 1.425 1_554 S
C1821 C1818 1.409 . S
C1821 C1819 1.414 1_554 S
C1822 H1812 0.930 . S
C1822 C1820 1.419 . S
C1822 C1823 1.362 . S
C1823 H1813 0.930 . S
C1823 C1816 1.409 . S
C1823 C1822 1.362 . S
H1824 C1830 0.930 . S
H1825 C1833 0.930 . S
H1826 C1834 0.930 . S
H1827 C1835 0.930 . S
H1828 C1838 0.930 . S
H1829 C1839 0.930 . S
C1830 H1824 0.930 . S
C1830 C1831 1.355 . S
C1830 C1832 1.415 . S
C1831 C1830 1.355 . S
C1831 C1833 1.419 . S
C1832 C1830 1.415 . S
C1832 C1837 1.425 . S
C1832 C1839 1.409 . S
C1833 H1825 0.930 . S
C1833 C1831 1.419 . S
C1833 C1834 1.362 . S
C1834 H1826 0.930 . S
C1834 C1833 1.362 . S
C1834 C1837 1.409 . S
C1835 H1827 0.930 . S
C1835 C1836 1.355 . S
C1835 C1837 1.415 . S
C1836 C1835 1.355 . S
C1836 C1838 1.419 . S
C1837 C1832 1.425 . S
C1837 C1834 1.409 . S
C1837 C1835 1.415 . S
C1838 H1828 0.930 . S
C1838 C1836 1.419 . S
C1838 C1839 1.362 . S
C1839 H1829 0.930 . S
C1839 C1832 1.409 . S
C1839 C1838 1.362 . S
H1840 C1846 0.930 . S
H1841 C1849 0.930 . S
H1842 C1850 0.930 . S
H1843 C1851 0.930 . S
H1844 C1854 0.930 . S
H1845 C1855 0.930 . S
C1846 H1840 0.930 . S
C1846 C1847 1.355 . S
C1846 C1848 1.415 . S
C1847 C1846 1.355 . S
C1847 C1849 1.419 . S
C1848 C1846 1.415 . S
C1848 C1853 1.425 . S
C1848 C1855 1.409 . S
C1849 H1841 0.930 . S
C1849 C1847 1.419 . S
C1849 C1850 1.362 . S
C1850 H1842 0.930 . S
C1850 C1849 1.362 . S
C1850 C1853 1.409 . S
C1851 H1843 0.930 . S
C1851 C1852 1.355 . S
C1851 C1853 1.415 . S
C1852 C1851 1.355 . S
C1852 C1854 1.419 . S
C1853 C1848 1.425 . S
C1853 C1850 1.409 . S
C1853 C1851 1.415 . S
C1854 H1844 0.930 . S
C1854 C1852 1.419 . S
C1854 C1855 1.362 . S
C1855 H1845 0.930 . S
C1855 C1848 1.409 . S
C1855 C1854 1.362 . S
H1856 C1862 0.930 . S
H1857 C1865 0.930 . S
H1858 C1866 0.930 . S
H1859 C1867 0.930 . S
H1860 C1870 0.930 . S
H1861 C1871 0.930 . S
C1862 H1856 0.930 . S
C1862 C1863 1.355 . S
C1862 C1864 1.415 . S
C1863 C1862 1.355 . S
C1863 C1865 1.419 . S
C1864 C1862 1.415 . S
C1864 C1869 1.425 . S
C1864 C1871 1.409 . S
C1865 H1857 0.930 . S
C1865 C1863 1.419 . S
C1865 C1866 1.362 . S
C1866 H1858 0.930 . S
C1866 C1865 1.362 . S
C1866 C1869 1.409 . S
C1867 H1859 0.930 . S
C1867 C1868 1.355 . S
C1867 C1869 1.415 . S
C1868 C1867 1.355 . S
C1868 C1870 1.419 . S
C1869 C1864 1.425 . S
C1869 C1866 1.409 . S
C1869 C1867 1.415 . S
C1870 H1860 0.930 . S
C1870 C1868 1.419 . S
C1870 C1871 1.362 . S
C1871 H1861 0.930 . S
C1871 C1864 1.409 . S
C1871 C1870 1.362 . S
H1872 C1878 0.930 . S
H1873 C1881 0.930 . S
H1874 C1882 0.930 . S
H1875 C1883 0.930 . S
H1876 C1886 0.930 . S
H1877 C1887 0.930 . S
C1878 H1872 0.930 . S
C1878 C1879 1.355 . S
C1878 C1880 1.415 . S
C1879 C1878 1.355 . S
C1879 C1881 1.419 . S
C1880 C1878 1.415 . S
C1880 C1885 1.425 . S
C1880 C1887 1.409 . S
C1881 H1873 0.930 . S
C1881 C1879 1.419 . S
C1881 C1882 1.362 . S
C1882 H1874 0.930 . S
C1882 C1881 1.362 . S
C1882 C1885 1.409 . S
C1883 H1875 0.930 . S
C1883 C1884 1.355 . S
C1883 C1885 1.415 . S
C1884 C1883 1.355 . S
C1884 C1886 1.419 . S
C1885 C1880 1.425 . S
C1885 C1882 1.409 . S
C1885 C1883 1.415 . S
C1886 H1876 0.930 . S
C1886 C1884 1.419 . S
C1886 C1887 1.362 . S
C1887 H1877 0.930 . S
C1887 C1880 1.409 . S
C1887 C1886 1.362 . S
H1888 C1894 0.930 . S
H1889 C1897 0.930 . S
H1890 C1898 0.930 . S
H1891 C1899 0.930 1_554 S
H1892 C1902 0.930 . S
H1893 C1903 0.930 . S
C1894 H1888 0.930 . S
C1894 C1895 1.355 1_655 S
C1894 C1896 1.415 . S
C1895 C1894 1.355 1_455 S
C1895 C1897 1.419 . S
C1896 C1894 1.415 . S
C1896 C1901 1.425 1_655 S
C1896 C1903 1.409 . S
C1897 H1889 0.930 . S
C1897 C1895 1.419 . S
C1897 C1898 1.362 . S
C1898 H1890 0.930 . S
C1898 C1897 1.362 . S
C1898 C1901 1.409 . S
C1899 H1891 0.930 1_556 S
C1899 C1900 1.355 1_455 S
C1899 C1901 1.415 . S
C1900 C1899 1.355 1_655 S
C1900 C1902 1.419 . S
C1901 C1896 1.425 1_455 S
C1901 C1898 1.409 . S
C1901 C1899 1.415 . S
C1902 H1892 0.930 . S
C1902 C1900 1.419 . S
C1902 C1903 1.362 . S
C1903 H1893 0.930 . S
C1903 C1896 1.409 . S
C1903 C1902 1.362 . S
H1904 C1910 0.930 . S
H1905 C1913 0.930 . S
H1906 C1914 0.930 . S
H1907 C1915 0.930 . S
H1908 C1918 0.930 . S
H1909 C1919 0.930 . S
C1910 H1904 0.930 . S
C1910 C1911 1.355 . S
C1910 C1912 1.415 . S
C1911 C1910 1.355 . S
C1911 C1913 1.419 . S
C1912 C1910 1.415 . S
C1912 C1917 1.425 . S
C1912 C1919 1.409 . S
C1913 H1905 0.930 . S
C1913 C1911 1.419 . S
C1913 C1914 1.362 . S
C1914 H1906 0.930 . S
C1914 C1913 1.362 . S
C1914 C1917 1.409 . S
C1915 H1907 0.930 . S
C1915 C1916 1.355 . S
C1915 C1917 1.415 . S
C1916 C1915 1.355 . S
C1916 C1918 1.419 . S
C1917 C1912 1.425 . S
C1917 C1914 1.409 . S
C1917 C1915 1.415 . S
C1918 H1908 0.930 . S
C1918 C1916 1.419 . S
C1918 C1919 1.362 . S
C1919 H1909 0.930 . S
C1919 C1912 1.409 . S
C1919 C1918 1.362 . S
H1920 C1926 0.930 . S
H1921 C1929 0.930 . S
H1922 C1930 0.930 . S
H1923 C1931 0.930 . S
H1924 C1934 0.930 . S
H1925 C1935 0.930 . S
C1926 H1920 0.930 . S
C1926 C1927 1.355 . S
C1926 C1928 1.415 . S
C1927 C1926 1.355 . S
C1927 C1929 1.419 . S
C1928 C1926 1.415 . S
C1928 C1933 1.425 . S
C1928 C1935 1.409 . S
C1929 H1921 0.930 . S
C1929 C1927 1.419 . S
C1929 C1930 1.362 . S
C1930 H1922 0.930 . S
C1930 C1929 1.362 . S
C1930 C1933 1.409 . S
C1931 H1923 0.930 . S
C1931 C1932 1.355 . S
C1931 C1933 1.415 . S
C1932 C1931 1.355 . S
C1932 C1934 1.419 . S
C1933 C1928 1.425 . S
C1933 C1930 1.409 . S
C1933 C1931 1.415 . S
C1934 H1924 0.930 . S
C1934 C1932 1.419 . S
C1934 C1935 1.362 . S
C1935 H1925 0.930 . S
C1935 C1928 1.409 . S
C1935 C1934 1.362 . S
H1936 C1942 0.930 . S
H1937 C1945 0.930 . S
H1938 C1946 0.930 . S
H1939 C1947 0.930 . S
H1940 C1950 0.930 . S
H1941 C1951 0.930 . S
C1942 H1936 0.930 . S
C1942 C1943 1.355 . S
C1942 C1944 1.415 . S
C1943 C1942 1.355 . S
C1943 C1945 1.419 . S
C1944 C1942 1.415 . S
C1944 C1949 1.425 . S
C1944 C1951 1.409 . S
C1945 H1937 0.930 . S
C1945 C1943 1.419 . S
C1945 C1946 1.362 . S
C1946 H1938 0.930 . S
C1946 C1945 1.362 . S
C1946 C1949 1.409 . S
C1947 H1939 0.930 . S
C1947 C1948 1.355 . S
C1947 C1949 1.415 . S
C1948 C1947 1.355 . S
C1948 C1950 1.419 . S
C1949 C1944 1.425 . S
C1949 C1946 1.409 . S
C1949 C1947 1.415 . S
C1950 H1940 0.930 . S
C1950 C1948 1.419 . S
C1950 C1951 1.362 . S
C1951 H1941 0.930 . S
C1951 C1944 1.409 . S
C1951 C1950 1.362 . S
H1952 C1958 0.930 . S
H1953 C1961 0.930 . S
H1954 C1962 0.930 . S
H1955 C1963 0.923 1_455 S
H1956 C1966 0.930 . S
H1957 C1967 0.930 . S
C1958 H1952 0.930 . S
C1958 C1959 1.355 1_655 S
C1958 C1960 1.415 . S
C1959 C1958 1.355 1_455 S
C1959 C1961 1.419 . S
C1960 C1958 1.415 . S
C1960 C1965 1.425 1_655 S
C1960 C1967 1.409 . S
C1961 H1953 0.930 . S
C1961 C1959 1.419 . S
C1961 C1962 1.362 . S
C1962 H1954 0.930 . S
C1962 C1961 1.362 . S
C1962 C1965 1.409 . S
C1963 H1955 0.923 1_655 S
C1963 C1964 1.365 . S
C1963 C1965 1.412 1_655 S
C1964 C1963 1.365 . S
C1964 C1966 1.419 . S
C1965 C1960 1.425 1_455 S
C1965 C1962 1.409 . S
C1965 C1963 1.412 1_455 S
C1966 H1956 0.930 . S
C1966 C1964 1.419 . S
C1966 C1967 1.362 . S
C1967 H1957 0.930 . S
C1967 C1960 1.409 . S
C1967 C1966 1.362 . S
H1968 C1974 0.930 . S
H1969 C1977 0.930 . S
H1970 C1978 0.930 . S
H1971 C1979 0.930 . S
H1972 C1982 0.930 . S
H1973 C1983 0.930 . S
C1974 H1968 0.930 . S
C1974 C1975 1.355 . S
C1974 C1976 1.415 . S
C1975 C1974 1.355 . S
C1975 C1977 1.419 . S
C1976 C1974 1.415 . S
C1976 C1981 1.425 . S
C1976 C1983 1.409 . S
C1977 H1969 0.930 . S
C1977 C1975 1.419 . S
C1977 C1978 1.362 . S
C1978 H1970 0.930 . S
C1978 C1977 1.362 . S
C1978 C1981 1.409 . S
C1979 H1971 0.930 . S
C1979 C1980 1.355 . S
C1979 C1981 1.415 . S
C1980 C1979 1.355 . S
C1980 C1982 1.419 . S
C1981 C1976 1.425 . S
C1981 C1978 1.409 . S
C1981 C1979 1.415 . S
C1982 H1972 0.930 . S
C1982 C1980 1.419 . S
C1982 C1983 1.362 . S
C1983 H1973 0.930 . S
C1983 C1976 1.409 . S
C1983 C1982 1.362 . S
H1984 C1990 0.930 . S
H1985 C1993 0.930 . S
H1986 C1994 0.930 . S
H1987 C1995 0.930 . S
H1988 C1998 0.930 . S
H1989 C1999 0.930 . S
C1990 H1984 0.930 . S
C1990 C1991 1.355 . S
C1990 C1992 1.415 . S
C1991 C1990 1.355 . S
C1991 C1993 1.419 . S
C1992 C1990 1.415 . S
C1992 C1997 1.425 . S
C1992 C1999 1.409 . S
C1993 H1985 0.930 . S
C1993 C1991 1.419 . S
C1993 C1994 1.362 . S
C1994 H1986 0.930 . S
C1994 C1993 1.362 . S
C1994 C1997 1.409 . S
C1995 H1987 0.930 . S
C1995 C1996 1.355 . S
C1995 C1997 1.415 . S
C1996 C1995 1.355 . S
C1996 C1998 1.419 . S
C1997 C1992 1.425 . S
C1997 C1994 1.409 . S
C1997 C1995 1.415 . S
C1998 H1988 0.930 . S
C1998 C1996 1.419 . S
C1998 C1999 1.362 . S
C1999 H1989 0.930 . S
C1999 C1992 1.409 . S
C1999 C1998 1.362 . S
H2000 C2006 0.930 . S
H2001 C2009 0.930 . S
H2002 C2010 0.930 . S
H2003 C2011 0.930 . S
H2004 C2014 0.930 . S
H2005 C2015 0.930 . S
C2006 H2000 0.930 . S
C2006 C2007 1.355 . S
C2006 C2008 1.415 . S
C2007 C2006 1.355 . S
C2007 C2009 1.419 . S
C2008 C2006 1.415 . S
C2008 C2013 1.425 . S
C2008 C2015 1.409 . S
C2009 H2001 0.930 . S
C2009 C2007 1.419 . S
C2009 C2010 1.362 . S
C2010 H2002 0.930 . S
C2010 C2009 1.362 . S
C2010 C2013 1.409 . S
C2011 H2003 0.930 . S
C2011 C2012 1.355 . S
C2011 C2013 1.415 . S
C2012 C2011 1.355 . S
C2012 C2014 1.419 . S
C2013 C2008 1.425 . S
C2013 C2010 1.409 . S
C2013 C2011 1.415 . S
C2014 H2004 0.930 . S
C2014 C2012 1.419 . S
C2014 C2015 1.362 . S
C2015 H2005 0.930 . S
C2015 C2008 1.409 . S
C2015 C2014 1.362 . S
H2016 C2022 0.930 . S
H2017 C2025 0.930 . S
H2018 C2026 0.930 . S
H2019 C2027 0.930 . S
H2020 C2030 0.930 . S
H2021 C2031 0.930 . S
C2022 H2016 0.930 . S
C2022 C2023 1.355 . S
C2022 C2024 1.415 . S
C2023 C2022 1.355 . S
C2023 C2025 1.419 . S
C2024 C2022 1.415 . S
C2024 C2029 1.425 . S
C2024 C2031 1.409 . S
C2025 H2017 0.930 . S
C2025 C2023 1.419 . S
C2025 C2026 1.362 . S
C2026 H2018 0.930 . S
C2026 C2025 1.362 . S
C2026 C2029 1.409 . S
C2027 H2019 0.930 . S
C2027 C2028 1.355 . S
C2027 C2029 1.415 . S
C2028 C2027 1.355 . S
C2028 C2030 1.419 . S
C2029 C2024 1.425 . S
C2029 C2026 1.409 . S
C2029 C2027 1.415 . S
C2030 H2020 0.930 . S
C2030 C2028 1.419 . S
C2030 C2031 1.362 . S
C2031 H2021 0.930 . S
C2031 C2024 1.409 . S
C2031 C2030 1.362 . S
H2032 C2038 0.930 . S
H2033 C2041 0.930 . S
H2034 C2042 0.930 . S
H2035 C2043 0.930 . S
H2036 C2046 0.930 . S
H2037 C2047 0.930 . S
C2038 H2032 0.930 . S
C2038 C2039 1.355 . S
C2038 C2040 1.415 . S
C2039 C2038 1.355 . S
C2039 C2041 1.419 . S
C2040 C2038 1.415 . S
C2040 C2045 1.425 . S
C2040 C2047 1.409 . S
C2041 H2033 0.930 . S
C2041 C2039 1.419 . S
C2041 C2042 1.362 . S
C2042 H2034 0.930 . S
C2042 C2041 1.362 . S
C2042 C2045 1.409 . S
C2043 H2035 0.930 . S
C2043 C2044 1.355 . S
C2043 C2045 1.415 . S
C2044 C2043 1.355 . S
C2044 C2046 1.419 . S
C2045 C2040 1.425 . S
C2045 C2042 1.409 . S
C2045 C2043 1.415 . S
C2046 H2036 0.930 . S
C2046 C2044 1.419 . S
C2046 C2047 1.362 . S
C2047 H2037 0.930 . S
C2047 C2040 1.409 . S
C2047 C2046 1.362 . S
H2048 C2054 0.930 . S
H2049 C2057 0.930 . S
H2050 C2058 0.930 . S
H2051 C2059 0.930 . S
H2052 C2062 0.930 . S
H2053 C2063 0.930 . S
C2054 H2048 0.930 . S
C2054 C2055 1.355 . S
C2054 C2056 1.415 . S
C2055 C2054 1.355 . S
C2055 C2057 1.419 . S
C2056 C2054 1.415 . S
C2056 C2061 1.425 . S
C2056 C2063 1.409 . S
C2057 H2049 0.930 . S
C2057 C2055 1.419 . S
C2057 C2058 1.362 . S
C2058 H2050 0.930 . S
C2058 C2057 1.362 . S
C2058 C2061 1.409 . S
C2059 H2051 0.930 . S
C2059 C2060 1.355 . S
C2059 C2061 1.415 . S
C2060 C2059 1.355 . S
C2060 C2062 1.419 . S
C2061 C2056 1.425 . S
C2061 C2058 1.409 . S
C2061 C2059 1.415 . S
C2062 H2052 0.930 . S
C2062 C2060 1.419 . S
C2062 C2063 1.362 . S
C2063 H2053 0.930 . S
C2063 C2056 1.409 . S
C2063 C2062 1.362 . S
H2064 C2070 0.930 . S
H2065 C2073 0.930 . S
H2066 C2074 0.930 . S
H2067 C2075 0.930 . S
H2068 C2078 0.930 . S
H2069 C2079 0.930 . S
C2070 H2064 0.930 . S
C2070 C2071 1.355 . S
C2070 C2072 1.415 . S
C2071 C2070 1.355 . S
C2071 C2073 1.419 . S
C2072 C2070 1.415 . S
C2072 C2077 1.425 . S
C2072 C2079 1.409 . S
C2073 H2065 0.930 . S
C2073 C2071 1.419 . S
C2073 C2074 1.362 . S
C2074 H2066 0.930 . S
C2074 C2073 1.362 . S
C2074 C2077 1.409 . S
C2075 H2067 0.930 . S
C2075 C2076 1.355 . S
C2075 C2077 1.415 . S
C2076 C2075 1.355 . S
C2076 C2078 1.419 . S
C2077 C2072 1.425 . S
C2077 C2074 1.409 . S
C2077 C2075 1.415 . S
C2078 H2068 0.930 . S
C2078 C2076 1.419 . S
C2078 C2079 1.362 . S
C2079 H2069 0.930 . S
C2079 C2072 1.409 . S
C2079 C2078 1.362 . S
H2080 C2086 0.930 . S
H2081 C2089 0.930 . S
H2082 C2090 0.930 . S
H2083 C2091 0.930 . S
H2084 C2094 0.957 . S
H2085 C2095 0.930 . S
C2086 H2080 0.930 . S
C2086 C2087 1.355 . S
C2086 C2088 1.415 . S
C2087 C2086 1.355 . S
C2087 C2089 1.419 . S
C2088 C2086 1.415 . S
C2088 C2093 1.425 . S
C2088 C2095 1.409 . S
C2089 H2081 0.930 . S
C2089 C2087 1.419 . S
C2089 C2090 1.362 . S
C2090 H2082 0.930 . S
C2090 C2089 1.362 . S
C2090 C2093 1.409 . S
C2091 H2083 0.930 . S
C2091 C2092 1.355 . S
C2091 C2093 1.415 . S
C2092 C2091 1.355 . S
C2092 C2094 1.419 . S
C2093 C2088 1.425 . S
C2093 C2090 1.409 . S
C2093 C2091 1.415 . S
C2094 H2084 0.957 . S
C2094 C2092 1.419 . S
C2094 C2095 1.362 . S
C2095 H2085 0.930 . S
C2095 C2088 1.409 . S
C2095 C2094 1.362 . S
H2096 C2102 0.930 . S
H2097 C2105 0.930 . S
H2098 C2106 0.930 . S
H2099 C2107 0.930 . S
H2100 C2110 0.930 . S
H2101 C2111 0.930 . S
C2102 H2096 0.930 . S
C2102 C2103 1.355 . S
C2102 C2104 1.415 . S
C2103 C2102 1.355 . S
C2103 C2105 1.419 . S
C2104 C2102 1.415 . S
C2104 C2109 1.425 . S
C2104 C2111 1.409 . S
C2105 H2097 0.930 . S
C2105 C2103 1.419 . S
C2105 C2106 1.362 . S
C2106 H2098 0.930 . S
C2106 C2105 1.362 . S
C2106 C2109 1.409 . S
C2107 H2099 0.930 . S
C2107 C2108 1.355 . S
C2107 C2109 1.415 . S
C2108 C2107 1.355 . S
C2108 C2110 1.419 . S
C2109 C2104 1.425 . S
C2109 C2106 1.409 . S
C2109 C2107 1.415 . S
C2110 H2100 0.930 . S
C2110 C2108 1.419 . S
C2110 C2111 1.362 . S
C2111 H2101 0.930 . S
C2111 C2104 1.409 . S
C2111 C2110 1.362 . S
H2112 C2118 0.930 . S
H2113 C2121 0.930 . S
H2114 C2122 0.930 . S
H2115 C2123 0.930 . S
H2116 C2126 0.930 . S
H2117 C2127 0.930 . S
C2118 H2112 0.930 . S
C2118 C2119 1.355 . S
C2118 C2120 1.415 . S
C2119 C2118 1.355 . S
C2119 C2121 1.419 . S
C2120 C2118 1.415 . S
C2120 C2125 1.425 . S
C2120 C2127 1.409 . S
C2121 H2113 0.930 . S
C2121 C2119 1.419 . S
C2121 C2122 1.362 . S
C2122 H2114 0.930 . S
C2122 C2121 1.362 . S
C2122 C2125 1.409 . S
C2123 H2115 0.930 . S
C2123 C2124 1.355 . S
C2123 C2125 1.415 . S
C2124 C2123 1.355 . S
C2124 C2126 1.419 . S
C2125 C2120 1.425 . S
C2125 C2122 1.409 . S
C2125 C2123 1.415 . S
C2126 H2116 0.930 . S
C2126 C2124 1.419 . S
C2126 C2127 1.362 . S
C2127 H2117 0.930 . S
C2127 C2120 1.409 . S
C2127 C2126 1.362 . S
H2128 C2134 0.930 . S
H2129 C2137 0.930 . S
H2130 C2138 0.930 . S
H2131 C2139 0.930 . S
H2132 C2142 0.930 . S
H2133 C2143 0.930 . S
C2134 H2128 0.930 . S
C2134 C2135 1.355 . S
C2134 C2136 1.415 . S
C2135 C2134 1.355 . S
C2135 C2137 1.419 . S
C2136 C2134 1.415 . S
C2136 C2141 1.425 . S
C2136 C2143 1.409 . S
C2137 H2129 0.930 . S
C2137 C2135 1.419 . S
C2137 C2138 1.362 . S
C2138 H2130 0.930 . S
C2138 C2137 1.362 . S
C2138 C2141 1.409 . S
C2139 H2131 0.930 . S
C2139 C2140 1.355 . S
C2139 C2141 1.415 . S
C2140 C2139 1.355 . S
C2140 C2142 1.419 . S
C2141 C2136 1.425 . S
C2141 C2138 1.409 . S
C2141 C2139 1.415 . S
C2142 H2132 0.930 . S
C2142 C2140 1.419 . S
C2142 C2143 1.362 . S
C2143 H2133 0.930 . S
C2143 C2136 1.409 . S
C2143 C2142 1.362 . S
H2144 C2150 0.930 . S
H2145 C2153 0.930 . S
H2146 C2154 0.930 . S
H2147 C2155 0.930 . S
H2148 C2158 0.930 . S
H2149 C2159 0.930 . S
C2150 H2144 0.930 . S
C2150 C2151 1.355 . S
C2150 C2152 1.415 . S
C2151 C2150 1.355 . S
C2151 C2153 1.419 . S
C2152 C2150 1.415 . S
C2152 C2157 1.425 . S
C2152 C2159 1.409 . S
C2153 H2145 0.930 . S
C2153 C2151 1.419 . S
C2153 C2154 1.362 . S
C2154 H2146 0.930 . S
C2154 C2153 1.362 . S
C2154 C2157 1.409 . S
C2155 H2147 0.930 . S
C2155 C2156 1.355 . S
C2155 C2157 1.415 . S
C2156 C2155 1.355 . S
C2156 C2158 1.419 . S
C2157 C2152 1.425 . S
C2157 C2154 1.409 . S
C2157 C2155 1.415 . S
C2158 H2148 0.930 . S
C2158 C2156 1.419 . S
C2158 C2159 1.362 . S
C2159 H2149 0.930 . S
C2159 C2152 1.409 . S
C2159 C2158 1.362 . S
H2160 C2166 0.930 . S
H2161 C2169 0.930 . S
H2162 C2170 0.930 . S
H2163 C2171 0.930 . S
H2164 C2174 0.930 . S
H2165 C2175 0.930 . S
C2166 H2160 0.930 . S
C2166 C2167 1.355 1_556 S
C2166 C2168 1.415 . S
C2167 C2166 1.355 1_554 S
C2167 C2169 1.419 . S
C2168 C2166 1.415 . S
C2168 C2173 1.425 . S
C2168 C2175 1.409 . S
C2169 H2161 0.930 . S
C2169 C2167 1.419 . S
C2169 C2170 1.362 . S
C2170 H2162 0.930 . S
C2170 C2169 1.362 . S
C2170 C2173 1.409 1_554 S
C2171 H2163 0.930 . S
C2171 C2172 1.355 . S
C2171 C2173 1.415 . S
C2172 C2171 1.355 . S
C2172 C2174 1.419 . S
C2173 C2168 1.425 . S
C2173 C2170 1.409 1_556 S
C2173 C2171 1.415 . S
C2174 H2164 0.930 . S
C2174 C2172 1.419 . S
C2174 C2175 1.362 . S
C2175 H2165 0.930 . S
C2175 C2168 1.409 . S
C2175 C2174 1.362 . S
H2176 C2182 0.930 . S
H2177 C2185 0.930 . S
H2178 C2186 0.930 . S
H2179 C2187 0.930 . S
H2180 C2190 0.930 . S
H2181 C2191 0.930 . S
C2182 H2176 0.930 . S
C2182 C2183 1.355 . S
C2182 C2184 1.415 . S
C2183 C2182 1.355 . S
C2183 C2185 1.419 . S
C2184 C2182 1.415 . S
C2184 C2189 1.425 . S
C2184 C2191 1.409 . S
C2185 H2177 0.930 . S
C2185 C2183 1.419 . S
C2185 C2186 1.362 . S
C2186 H2178 0.930 . S
C2186 C2185 1.362 . S
C2186 C2189 1.409 . S
C2187 H2179 0.930 . S
C2187 C2188 1.355 . S
C2187 C2189 1.415 . S
C2188 C2187 1.355 . S
C2188 C2190 1.419 . S
C2189 C2184 1.425 . S
C2189 C2186 1.409 . S
C2189 C2187 1.415 . S
C2190 H2180 0.930 . S
C2190 C2188 1.419 . S
C2190 C2191 1.362 . S
C2191 H2181 0.930 . S
C2191 C2184 1.409 . S
C2191 C2190 1.362 . S
H2192 C2198 0.930 . S
H2193 C2201 0.930 . S
H2194 C2202 0.930 . S
H2195 C2203 0.930 1_556 S
H2196 C2206 0.930 . S
H2197 C2207 0.930 . S
C2198 H2192 0.930 . S
C2198 C2199 1.355 . S
C2198 C2200 1.415 . S
C2199 C2198 1.355 . S
C2199 C2201 1.419 1_554 S
C2200 C2198 1.415 . S
C2200 C2205 1.425 . S
C2200 C2207 1.409 . S
C2201 H2193 0.930 . S
C2201 C2199 1.419 1_556 S
C2201 C2202 1.362 . S
C2202 H2194 0.930 . S
C2202 C2201 1.362 . S
C2202 C2205 1.409 1_556 S
C2203 H2195 0.930 1_554 S
C2203 C2204 1.355 . S
C2203 C2205 1.415 . S
C2204 C2203 1.355 . S
C2204 C2206 1.419 . S
C2205 C2200 1.425 . S
C2205 C2202 1.409 1_554 S
C2205 C2203 1.415 . S
C2206 H2196 0.930 . S
C2206 C2204 1.419 . S
C2206 C2207 1.362 . S
C2207 H2197 0.930 . S
C2207 C2200 1.409 . S
C2207 C2206 1.362 . S
H2208 C2214 0.930 . S
H2209 C2217 0.930 . S
H2210 C2218 0.930 . S
H2211 C2219 0.930 . S
H2212 C2222 0.930 . S
H2213 C2223 0.930 . S
C2214 H2208 0.930 . S
C2214 C2215 1.355 . S
C2214 C2216 1.415 . S
C2215 C2214 1.355 . S
C2215 C2217 1.419 . S
C2216 C2214 1.415 . S
C2216 C2221 1.425 . S
C2216 C2223 1.409 . S
C2217 H2209 0.930 . S
C2217 C2215 1.419 . S
C2217 C2218 1.362 . S
C2218 H2210 0.930 . S
C2218 C2217 1.362 . S
C2218 C2221 1.409 . S
C2219 H2211 0.930 . S
C2219 C2220 1.355 . S
C2219 C2221 1.415 . S
C2220 C2219 1.355 . S
C2220 C2222 1.419 . S
C2221 C2216 1.425 . S
C2221 C2218 1.409 . S
C2221 C2219 1.415 . S
C2222 H2212 0.930 . S
C2222 C2220 1.419 . S
C2222 C2223 1.362 . S
C2223 H2213 0.930 . S
C2223 C2216 1.409 . S
C2223 C2222 1.362 . S
H2224 C2230 0.930 . S
H2225 C2233 0.930 . S
H2226 C2234 0.930 . S
H2227 C2235 0.930 . S
H2228 C2238 0.930 . S
H2229 C2239 0.930 . S
C2230 H2224 0.930 . S
C2230 C2231 1.355 . S
C2230 C2232 1.415 . S
C2231 C2230 1.355 . S
C2231 C2233 1.419 . S
C2232 C2230 1.415 . S
C2232 C2237 1.425 . S
C2232 C2239 1.409 . S
C2233 H2225 0.930 . S
C2233 C2231 1.419 . S
C2233 C2234 1.362 . S
C2234 H2226 0.930 . S
C2234 C2233 1.362 . S
C2234 C2237 1.409 . S
C2235 H2227 0.930 . S
C2235 C2236 1.355 . S
C2235 C2237 1.415 . S
C2236 C2235 1.355 . S
C2236 C2238 1.419 . S
C2237 C2232 1.425 . S
C2237 C2234 1.409 . S
C2237 C2235 1.415 . S
C2238 H2228 0.930 . S
C2238 C2236 1.419 . S
C2238 C2239 1.362 . S
C2239 H2229 0.930 . S
C2239 C2232 1.409 . S
C2239 C2238 1.362 . S
C716 C352 1.216 . S
C711 C7 1.256 . S
C727 C22 1.483 . S
C732 C380 1.399 . S
C743 C31 1.235 . S
C748 C398 1.177 . S
C764 C424 1.357 . S
C759 C51 1.538 . S
C775 C17 1.553 . S
C780 C447 1.406 . S
C796 C467 1.168 . S
C791 C36 1.180 . S
C812 C495 1.365 . S
C807 C49 1.471 . S
C823 C9 1.234 . S
C828 C513 1.196 . S
C839 C63 1.367 . S
C844 C354 1.420 1_545 S
C855 C73 1.180 . S
C860 C376 1.122 . S
C876 C400 1.445 . S
C871 C91 1.405 1_545 S
C892 C421 1.200 . S
C887 C101 1.225 . S
C903 C59 1.242 . S
C908 C444 1.231 . S
C924 C469 1.437 . S
C919 C77 1.410 . S
C940 C491 1.138 . S
C935 C87 1.180 . S
C956 C515 1.423 . S
C951 C105 1.370 . S
C972 C355 1.012 1_556 S
C967 C107 1.170 . S
C988 C538 1.229 . S
C983 C120 1.242 . S
C999 C135 1.175 . S
C1004 C562 1.048 . S
C1020 C586 1.146 . S
C1015 C148 1.201 . S
C1031 C65 1.127 . S
C1036 C516 0.945 . S
C1052 C401 1.005 . S
C1047 C79 1.189 . S
C1063 C134 1.175 . S
C1068 C607 1.187 . S
C1084 C632 1.121 . S
C1079 C162 1.170 . S
C1095 C171 1.243 . S
C1100 C353 1.231 . S
C1116 C630 1.116 . S
C1111 C190 1.089 . S
C1127 C203 1.155 . S
C1132 C399 1.183 . S
C1143 C219 1.085 . S
C1148 C609 1.076 . S
C1164 C448 1.092 . S
C1159 C189 1.129 . S
C1180 C560 1.201 . S
C1175 C204 1.198 . S
C1196 C492 1.167 . S
C1191 C213 1.144 . S
C1212 C652 1.159 . S
C1207 C177 1.216 . S
C1228 C357 1.001 . S
C1223 C227 1.081 . S
C1239 C245 1.342 . S
C1244 C628 1.361 . S
C1260 C403 1.014 . S
C1255 C255 1.093 . S
C1271 C273 1.272 . S
C1276 C606 1.305 . S
C1287 C231 1.286 . S
C1292 C445 1.319 . S
C1303 C241 1.069 . S
C1308 C564 0.967 . S
C1324 C490 1.313 . S
C1319 C259 1.287 . S
C1335 C269 1.071 . S
C1340 C656 0.975 . S
C1351 C275 1.378 . S
C1356 C356 1.346 . S
C1367 C288 1.280 1_556 S
C1372 C541 1.178 . S
C1383 C303 1.341 . S
C1388 C471 1.295 . S
C1399 C316 1.303 . S
C1404 C585 1.216 . S
C1420 C655 1.266 . S
C1415 C233 1.334 . S
C1436 C402 1.318 . S
C1431 C247 1.372 . S
C1452 C426 1.236 . S
C1447 C302 1.266 . S
C1468 C378 1.086 . S
C1463 C330 1.245 . S
C1479 C35 1.207 . S
C1484 C674 1.210 . S
C1500 C633 1.348 . S
C1495 C50 1.459 . S
C1516 C697 1.205 . S
C1511 C3 1.245 . S
C1527 C23 1.530 . S
C1532 C608 1.318 . S
C1543 C45 1.546 . S
C1548 C539 1.347 1_556 S
C1564 C559 1.195 . S
C1559 C8 1.193 . S
C1580 C587 1.368 . S
C1575 C21 1.471 . S
C1596 C651 1.197 . S
C1591 C37 1.198 . S
C1612 C676 1.449 . S
C1607 C161 1.433 . S
C1623 C115 1.185 . S
C1628 C629 1.138 . S
C1639 C133 1.384 . S
C1644 C699 1.437 . S
C1660 C605 1.223 . S
C1655 C143 1.223 . S
C1676 C536 1.170 . S
C1671 C157 1.227 . S
C1687 C119 1.379 . S
C1692 C561 1.430 . S
C1708 C583 1.184 . S
C1703 C129 1.192 . S
C1719 C147 1.387 . S
C1724 C653 1.428 . S
C1740 C677 1.035 . S
C1735 C149 1.173 . S
C1756 C446 1.239 . S
C1751 C78 1.220 . S
C1772 C470 1.074 . S
C1767 C93 1.157 . S
C1783 C106 1.206 . S
C1788 C494 1.166 . S
C1804 C654 1.071 . S
C1799 C163 1.131 . S
C1815 C121 1.203 . S
C1820 C700 1.058 1_556 S
C1836 C423 1.198 . S
C1831 C92 1.177 . S
C1852 C379 1.160 . S
C1847 C64 1.184 . S
C1863 C199 1.245 . S
C1868 C675 1.242 . S
C1884 C377 1.114 . S
C1879 C218 1.102 . S
C1900 C698 1.214 . S
C1895 C175 1.179 . S
C1911 C191 1.080 . S
C1916 C425 1.068 . S
C1927 C217 1.113 . S
C1932 C540 1.058 . S
C1943 C176 1.161 . S
C1948 C468 1.156 . S
C1959 C185 1.153 . S
C1964 C584 1.141 . S
C1975 C205 1.208 . S
C1980 C514 1.158 . S
C1996 C679 1.000 . S
C1991 C325 1.081 . S
C2007 C287 1.364 . S
C2012 C375 1.377 . S
C2028 C702 1.003 . S
C2023 C297 1.088 . S
C2039 C315 1.333 . S
C2044 C422 1.357 . S
C2055 C329 1.357 . S
C2060 C537 1.362 . S
C2076 C472 1.091 . S
C2071 C283 1.115 . S
C2087 C301 1.360 . S
C2092 C582 1.371 . S
C2108 C518 1.033 . S
C2103 C311 1.092 . S
C2124 C678 1.312 . S
C2119 C317 1.362 . S
C2140 C449 1.257 . S
C2135 C246 1.330 . S
C2151 C261 1.330 . S
C2156 C563 1.253 . S
C2172 C493 1.169 . S
C2167 C274 1.287 . S
C2188 C517 1.259 . S
C2183 C331 1.322 . S
C2199 C289 1.404 . S
C2204 C701 1.379 . S
C2220 C610 1.172 . S
C2215 C260 1.285 . S
C2236 C631 1.177 . S
C2231 C232 1.290 . S
