# Generated by pormake.
# Topology gar, (4,6)-cn, num edge types: 1
# Building blocks:
#     Node 0, Type 0, BuildingBlock: GALJAG_clean_sbu_0, # of connection points: 4
#     Node 1, Type 0, BuildingBlock: GALJAG_clean_sbu_0, # of connection points: 4
#     Node 2, Type 0, BuildingBlock: GALJAG_clean_sbu_0, # of connection points: 4
#     Node 3, Type 0, BuildingBlock: GALJAG_clean_sbu_0, # of connection points: 4
#     Node 4, Type 0, BuildingBlock: GALJAG_clean_sbu_0, # of connection points: 4
#     Node 5, Type 0, BuildingBlock: GALJAG_clean_sbu_0, # of connection points: 4
#     Node 6, Type 0, BuildingBlock: GALJAG_clean_sbu_0, # of connection points: 4
#     Node 7, Type 0, BuildingBlock: GALJAG_clean_sbu_0, # of connection points: 4
#     Node 8, Type 0, BuildingBlock: GALJAG_clean_sbu_0, # of connection points: 4
#     Node 9, Type 0, BuildingBlock: GALJAG_clean_sbu_0, # of connection points: 4
#     Node 10, Type 0, BuildingBlock: GALJAG_clean_sbu_0, # of connection points: 4
#     Node 11, Type 0, BuildingBlock: GALJAG_clean_sbu_0, # of connection points: 4
#     Node 12, Type 0, BuildingBlock: GALJAG_clean_sbu_0, # of connection points: 4
#     Node 13, Type 0, BuildingBlock: GALJAG_clean_sbu_0, # of connection points: 4
#     Node 14, Type 0, BuildingBlock: GALJAG_clean_sbu_0, # of connection points: 4
#     Node 15, Type 0, BuildingBlock: GALJAG_clean_sbu_0, # of connection points: 4
#     Node 16, Type 0, BuildingBlock: GALJAG_clean_sbu_0, # of connection points: 4
#     Node 17, Type 0, BuildingBlock: GALJAG_clean_sbu_0, # of connection points: 4
#     Node 18, Type 0, BuildingBlock: GALJAG_clean_sbu_0, # of connection points: 4
#     Node 19, Type 0, BuildingBlock: GALJAG_clean_sbu_0, # of connection points: 4
#     Node 20, Type 0, BuildingBlock: GALJAG_clean_sbu_0, # of connection points: 4
#     Node 21, Type 0, BuildingBlock: GALJAG_clean_sbu_0, # of connection points: 4
#     Node 22, Type 0, BuildingBlock: GALJAG_clean_sbu_0, # of connection points: 4
#     Node 23, Type 0, BuildingBlock: GALJAG_clean_sbu_0, # of connection points: 4
#     Node 24, Type 1, BuildingBlock: BETFEN_clean_sbu_0, # of connection points: 6
#     Node 25, Type 1, BuildingBlock: BETFEN_clean_sbu_0, # of connection points: 6
#     Node 26, Type 1, BuildingBlock: BETFEN_clean_sbu_0, # of connection points: 6
#     Node 27, Type 1, BuildingBlock: BETFEN_clean_sbu_0, # of connection points: 6
#     Node 28, Type 1, BuildingBlock: BETFEN_clean_sbu_0, # of connection points: 6
#     Node 29, Type 1, BuildingBlock: BETFEN_clean_sbu_0, # of connection points: 6
#     Node 30, Type 1, BuildingBlock: BETFEN_clean_sbu_0, # of connection points: 6
#     Node 31, Type 1, BuildingBlock: BETFEN_clean_sbu_0, # of connection points: 6
#     Node 32, Type 1, BuildingBlock: BETFEN_clean_sbu_0, # of connection points: 6
#     Node 33, Type 1, BuildingBlock: BETFEN_clean_sbu_0, # of connection points: 6
#     Node 34, Type 1, BuildingBlock: BETFEN_clean_sbu_0, # of connection points: 6
#     Node 35, Type 1, BuildingBlock: BETFEN_clean_sbu_0, # of connection points: 6
#     Node 36, Type 1, BuildingBlock: BETFEN_clean_sbu_0, # of connection points: 6
#     Node 37, Type 1, BuildingBlock: BETFEN_clean_sbu_0, # of connection points: 6
#     Node 38, Type 1, BuildingBlock: BETFEN_clean_sbu_0, # of connection points: 6
#     Node 39, Type 1, BuildingBlock: BETFEN_clean_sbu_0, # of connection points: 6
#     Edge 40, Type (0, 1), BuildingBlock: XIVTED_clean_linker_0, # of connection points: 2
#     Edge 41, Type (0, 1), BuildingBlock: XIVTED_clean_linker_0, # of connection points: 2
#     Edge 42, Type (0, 1), BuildingBlock: XIVTED_clean_linker_0, # of connection points: 2
#     Edge 43, Type (0, 1), BuildingBlock: XIVTED_clean_linker_0, # of connection points: 2
#     Edge 44, Type (0, 1), BuildingBlock: XIVTED_clean_linker_0, # of connection points: 2
#     Edge 45, Type (0, 1), BuildingBlock: XIVTED_clean_linker_0, # of connection points: 2
#     Edge 46, Type (0, 1), BuildingBlock: XIVTED_clean_linker_0, # of connection points: 2
#     Edge 47, Type (0, 1), BuildingBlock: XIVTED_clean_linker_0, # of connection points: 2
#     Edge 48, Type (0, 1), BuildingBlock: XIVTED_clean_linker_0, # of connection points: 2
#     Edge 49, Type (0, 1), BuildingBlock: XIVTED_clean_linker_0, # of connection points: 2
#     Edge 50, Type (0, 1), BuildingBlock: XIVTED_clean_linker_0, # of connection points: 2
#     Edge 51, Type (0, 1), BuildingBlock: XIVTED_clean_linker_0, # of connection points: 2
#     Edge 52, Type (0, 1), BuildingBlock: XIVTED_clean_linker_0, # of connection points: 2
#     Edge 53, Type (0, 1), BuildingBlock: XIVTED_clean_linker_0, # of connection points: 2
#     Edge 54, Type (0, 1), BuildingBlock: XIVTED_clean_linker_0, # of connection points: 2
#     Edge 55, Type (0, 1), BuildingBlock: XIVTED_clean_linker_0, # of connection points: 2
#     Edge 56, Type (0, 1), BuildingBlock: XIVTED_clean_linker_0, # of connection points: 2
#     Edge 57, Type (0, 1), BuildingBlock: XIVTED_clean_linker_0, # of connection points: 2
#     Edge 58, Type (0, 1), BuildingBlock: XIVTED_clean_linker_0, # of connection points: 2
#     Edge 59, Type (0, 1), BuildingBlock: XIVTED_clean_linker_0, # of connection points: 2
#     Edge 60, Type (0, 1), BuildingBlock: XIVTED_clean_linker_0, # of connection points: 2
#     Edge 61, Type (0, 1), BuildingBlock: XIVTED_clean_linker_0, # of connection points: 2
#     Edge 62, Type (0, 1), BuildingBlock: XIVTED_clean_linker_0, # of connection points: 2
#     Edge 63, Type (0, 1), BuildingBlock: XIVTED_clean_linker_0, # of connection points: 2
#     Edge 64, Type (0, 1), BuildingBlock: XIVTED_clean_linker_0, # of connection points: 2
#     Edge 65, Type (0, 1), BuildingBlock: XIVTED_clean_linker_0, # of connection points: 2
#     Edge 66, Type (0, 1), BuildingBlock: XIVTED_clean_linker_0, # of connection points: 2
#     Edge 67, Type (0, 1), BuildingBlock: XIVTED_clean_linker_0, # of connection points: 2
#     Edge 68, Type (0, 1), BuildingBlock: XIVTED_clean_linker_0, # of connection points: 2
#     Edge 69, Type (0, 1), BuildingBlock: XIVTED_clean_linker_0, # of connection points: 2
#     Edge 70, Type (0, 1), BuildingBlock: XIVTED_clean_linker_0, # of connection points: 2
#     Edge 71, Type (0, 1), BuildingBlock: XIVTED_clean_linker_0, # of connection points: 2
#     Edge 72, Type (0, 1), BuildingBlock: XIVTED_clean_linker_0, # of connection points: 2
#     Edge 73, Type (0, 1), BuildingBlock: XIVTED_clean_linker_0, # of connection points: 2
#     Edge 74, Type (0, 1), BuildingBlock: XIVTED_clean_linker_0, # of connection points: 2
#     Edge 75, Type (0, 1), BuildingBlock: XIVTED_clean_linker_0, # of connection points: 2
#     Edge 76, Type (0, 1), BuildingBlock: XIVTED_clean_linker_0, # of connection points: 2
#     Edge 77, Type (0, 1), BuildingBlock: XIVTED_clean_linker_0, # of connection points: 2
#     Edge 78, Type (0, 1), BuildingBlock: XIVTED_clean_linker_0, # of connection points: 2
#     Edge 79, Type (0, 1), BuildingBlock: XIVTED_clean_linker_0, # of connection points: 2
#     Edge 80, Type (0, 1), BuildingBlock: XIVTED_clean_linker_0, # of connection points: 2
#     Edge 81, Type (0, 1), BuildingBlock: XIVTED_clean_linker_0, # of connection points: 2
#     Edge 82, Type (0, 1), BuildingBlock: XIVTED_clean_linker_0, # of connection points: 2
#     Edge 83, Type (0, 1), BuildingBlock: XIVTED_clean_linker_0, # of connection points: 2
#     Edge 84, Type (0, 1), BuildingBlock: XIVTED_clean_linker_0, # of connection points: 2
#     Edge 85, Type (0, 1), BuildingBlock: XIVTED_clean_linker_0, # of connection points: 2
#     Edge 86, Type (0, 1), BuildingBlock: XIVTED_clean_linker_0, # of connection points: 2
#     Edge 87, Type (0, 1), BuildingBlock: XIVTED_clean_linker_0, # of connection points: 2
#     Edge 88, Type (0, 1), BuildingBlock: XIVTED_clean_linker_0, # of connection points: 2
#     Edge 89, Type (0, 1), BuildingBlock: XIVTED_clean_linker_0, # of connection points: 2
#     Edge 90, Type (0, 1), BuildingBlock: XIVTED_clean_linker_0, # of connection points: 2
#     Edge 91, Type (0, 1), BuildingBlock: XIVTED_clean_linker_0, # of connection points: 2
#     Edge 92, Type (0, 1), BuildingBlock: XIVTED_clean_linker_0, # of connection points: 2
#     Edge 93, Type (0, 1), BuildingBlock: XIVTED_clean_linker_0, # of connection points: 2
#     Edge 94, Type (0, 1), BuildingBlock: XIVTED_clean_linker_0, # of connection points: 2
#     Edge 95, Type (0, 1), BuildingBlock: XIVTED_clean_linker_0, # of connection points: 2
#     Edge 96, Type (0, 1), BuildingBlock: XIVTED_clean_linker_0, # of connection points: 2
#     Edge 97, Type (0, 1), BuildingBlock: XIVTED_clean_linker_0, # of connection points: 2
#     Edge 98, Type (0, 1), BuildingBlock: XIVTED_clean_linker_0, # of connection points: 2
#     Edge 99, Type (0, 1), BuildingBlock: XIVTED_clean_linker_0, # of connection points: 2
#     Edge 100, Type (0, 1), BuildingBlock: XIVTED_clean_linker_0, # of connection points: 2
#     Edge 101, Type (0, 1), BuildingBlock: XIVTED_clean_linker_0, # of connection points: 2
#     Edge 102, Type (0, 1), BuildingBlock: XIVTED_clean_linker_0, # of connection points: 2
#     Edge 103, Type (0, 1), BuildingBlock: XIVTED_clean_linker_0, # of connection points: 2
#     Edge 104, Type (0, 1), BuildingBlock: XIVTED_clean_linker_0, # of connection points: 2
#     Edge 105, Type (0, 1), BuildingBlock: XIVTED_clean_linker_0, # of connection points: 2
#     Edge 106, Type (0, 1), BuildingBlock: XIVTED_clean_linker_0, # of connection points: 2
#     Edge 107, Type (0, 1), BuildingBlock: XIVTED_clean_linker_0, # of connection points: 2
#     Edge 108, Type (0, 1), BuildingBlock: XIVTED_clean_linker_0, # of connection points: 2
#     Edge 109, Type (0, 1), BuildingBlock: XIVTED_clean_linker_0, # of connection points: 2
#     Edge 110, Type (0, 1), BuildingBlock: XIVTED_clean_linker_0, # of connection points: 2
#     Edge 111, Type (0, 1), BuildingBlock: XIVTED_clean_linker_0, # of connection points: 2
#     Edge 112, Type (0, 1), BuildingBlock: XIVTED_clean_linker_0, # of connection points: 2
#     Edge 113, Type (0, 1), BuildingBlock: XIVTED_clean_linker_0, # of connection points: 2
#     Edge 114, Type (0, 1), BuildingBlock: XIVTED_clean_linker_0, # of connection points: 2
#     Edge 115, Type (0, 1), BuildingBlock: XIVTED_clean_linker_0, # of connection points: 2
#     Edge 116, Type (0, 1), BuildingBlock: XIVTED_clean_linker_0, # of connection points: 2
#     Edge 117, Type (0, 1), BuildingBlock: XIVTED_clean_linker_0, # of connection points: 2
#     Edge 118, Type (0, 1), BuildingBlock: XIVTED_clean_linker_0, # of connection points: 2
#     Edge 119, Type (0, 1), BuildingBlock: XIVTED_clean_linker_0, # of connection points: 2
#     Edge 120, Type (0, 1), BuildingBlock: XIVTED_clean_linker_0, # of connection points: 2
#     Edge 121, Type (0, 1), BuildingBlock: XIVTED_clean_linker_0, # of connection points: 2
#     Edge 122, Type (0, 1), BuildingBlock: XIVTED_clean_linker_0, # of connection points: 2
#     Edge 123, Type (0, 1), BuildingBlock: XIVTED_clean_linker_0, # of connection points: 2
#     Edge 124, Type (0, 1), BuildingBlock: XIVTED_clean_linker_0, # of connection points: 2
#     Edge 125, Type (0, 1), BuildingBlock: XIVTED_clean_linker_0, # of connection points: 2
#     Edge 126, Type (0, 1), BuildingBlock: XIVTED_clean_linker_0, # of connection points: 2
#     Edge 127, Type (0, 1), BuildingBlock: XIVTED_clean_linker_0, # of connection points: 2
#     Edge 128, Type (0, 1), BuildingBlock: XIVTED_clean_linker_0, # of connection points: 2
#     Edge 129, Type (0, 1), BuildingBlock: XIVTED_clean_linker_0, # of connection points: 2
#     Edge 130, Type (0, 1), BuildingBlock: XIVTED_clean_linker_0, # of connection points: 2
#     Edge 131, Type (0, 1), BuildingBlock: XIVTED_clean_linker_0, # of connection points: 2
#     Edge 132, Type (0, 1), BuildingBlock: XIVTED_clean_linker_0, # of connection points: 2
#     Edge 133, Type (0, 1), BuildingBlock: XIVTED_clean_linker_0, # of connection points: 2
#     Edge 134, Type (0, 1), BuildingBlock: XIVTED_clean_linker_0, # of connection points: 2
#     Edge 135, Type (0, 1), BuildingBlock: XIVTED_clean_linker_0, # of connection points: 2
# Relax obj value: 0.210
# Max RMSD: 0.312
# Mean RMSD: 0.179
data_MOF--net-gar--node1-GALJAG_clean_sbu_0--node2-BETFEN_clean_sbu_0--edge1-XIVTED_clean_linker_0
_symmetry_space_group_name_H-M    P1
_symmetry_Int_Tables_number       1
_symmetry_cell_setting            triclinic
loop_
_symmetry_equiv_pos_as_xyz
'x, y, z'
_cell_length_a     63.801395
_cell_length_b     56.599634
_cell_length_c     56.724858
_cell_angle_alpha  94.216503
_cell_angle_beta   98.599947
_cell_angle_gamma 101.41526
loop_
_atom_site_label
_atom_site_type_symbol
_atom_site_fract_x
_atom_site_fract_y
_atom_site_fract_z
_atom_type_partial_charge
In0 In 0.047 0.31982 0.42615 0.0
O1 O 0.0645 0.32366 0.39345 0.0
O2 O 0.08245 0.31741 0.42604 0.0
C3 C 1.00548 0.31483 0.40318 0.0
C4 C 0.04407 0.27704 0.44602 0.0
C5 C 0.05511 0.36505 0.45076 0.0
O6 O 0.02066 0.31118 0.3924 0.0
O7 O 1.01121 0.32092 0.42542 0.0
O8 O 0.05393 0.34586 0.46099 0.0
O9 O 0.0525 0.36152 0.42819 0.0
C10 C 0.0823 0.32034 0.40421 0.0
O11 O 0.05049 0.29742 0.45834 0.0
O12 O 0.03879 0.27825 0.42389 0.0
In13 In 0.08662 0.83281 0.64355 0.0
O14 O 0.08168 0.85332 0.61 0.0
O15 O 0.09606 0.87418 0.64298 0.0
C16 C 0.07874 0.78664 0.621 0.0
C17 C 0.12726 0.83732 0.6691 0.0
C18 C 0.05097 0.83411 0.66441 0.0
O19 O 0.08366 0.80536 0.61046 0.0
O20 O 0.07753 0.79112 0.64282 0.0
O21 O 0.0688 0.83182 0.67604 0.0
O22 O 0.05096 0.83509 0.64227 0.0
C23 C 0.08926 0.87422 0.62095 0.0
O24 O 0.1118 0.84286 0.67823 0.0
O25 O 0.12234 0.82976 0.64708 0.0
In26 In 0.54573 0.82186 0.91981 0.0
O27 O 0.56172 0.8238 0.88599 0.0
O28 O 0.58109 0.8196 0.91845 0.0
C29 C 0.50385 0.81601 0.89789 0.0
C30 C 0.54311 0.78004 0.94148 0.0
C31 C 0.55435 0.86835 0.94176 0.0
O32 O 0.51874 0.81185 0.88689 0.0
O33 O 0.50998 0.82289 0.91998 0.0
O34 O 0.55647 0.85033 0.9531 0.0
O35 O 0.54822 0.863 0.91948 0.0
C36 C 0.57992 0.82116 0.89627 0.0
O37 O 0.54876 0.8008 0.95318 0.0
O38 O 0.53838 0.78044 0.91916 0.0
In39 In 0.58981 0.34124 0.14935 0.0
O40 O 0.59899 0.3124 0.12391 0.0
O41 O 0.56792 0.30423 0.13371 0.0
C42 C 0.59207 0.38265 0.1268 0.0
C43 C 0.5569 0.34502 0.17398 0.0
C44 C 0.6281 0.34098 0.17806 0.0
O45 O 0.58713 0.36172 0.11538 0.0
O46 O 0.59638 0.38258 0.14921 0.0
O47 O 0.61033 0.32742 0.18008 0.0
O48 O 0.62657 0.35492 0.1618 0.0
C49 C 0.58147 0.29701 0.12249 0.0
O50 O 0.57566 0.34417 0.18431 0.0
O51 O 0.55475 0.34369 0.15143 0.0
In52 In 0.10464 0.84822 0.15846 0.0
O53 O 0.10893 0.82013 0.1293 0.0
O54 O 0.08866 0.80794 0.15436 0.0
C55 C 0.10625 0.88691 0.13241 0.0
C56 C 0.06884 0.84912 0.17862 0.0
C57 C 0.14372 0.85163 0.18678 0.0
O58 O 0.09643 0.86573 0.12398 0.0
O59 O 0.11607 0.8885 0.15365 0.0
O60 O 0.12901 0.8612 0.19348 0.0
O61 O 0.13882 0.84074 0.16587 0.0
C62 C 0.09682 0.80252 0.13631 0.0
O63 O 0.08642 0.84645 0.19064 0.0
O64 O 0.0695 0.85136 0.15679 0.0
In65 In 0.53445 0.81842 0.42929 0.0
O66 O 0.54889 0.80037 0.39963 0.0
O67 O 0.56199 0.83743 0.41154 0.0
C68 C 0.49659 0.81533 0.39859 0.0
C69 C 0.54032 0.78445 0.46015 0.0
C70 C 0.54055 0.86014 0.45859 0.0
O71 O 0.50927 0.83512 0.40711 0.0
O72 O 0.50306 0.7968 0.40522 0.0
O73 O 0.5224 0.84552 0.45347 0.0
O74 O 0.55563 0.85311 0.44994 0.0
C75 C 0.56287 0.81911 0.39804 0.0
O76 O 0.5218 0.78811 0.45224 0.0
O77 O 0.55559 0.79812 0.45298 0.0
In78 In 0.60647 0.35329 0.65653 0.0
O79 O 0.61716 0.32499 0.63203 0.0
O80 O 0.58517 0.31702 0.63945 0.0
C81 C 0.60562 0.39346 0.63306 0.0
C82 C 0.57166 0.35194 0.6787 0.0
C83 C 0.64418 0.35612 0.68738 0.0
O84 O 0.60994 0.37456 0.62341 0.0
O85 O 0.60255 0.39225 0.65439 0.0
O86 O 0.64194 0.3709 0.67207 0.0
O87 O 0.62729 0.34022 0.68754 0.0
C88 C 0.59931 0.30992 0.62921 0.0
O89 O 0.59072 0.35517 0.69034 0.0
O90 O 0.57037 0.34939 0.65622 0.0
In91 In 0.03221 0.31308 0.92867 0.0
O92 O 0.04425 0.29752 0.96333 0.0
O93 O 0.0221 0.27343 0.93636 0.0
C94 C 0.03495 0.35948 0.94709 0.0
C95 C 0.06756 0.31214 0.90745 0.0
C96 C 0.9925 0.3072 0.90133 0.0
O97 O 0.03492 0.34235 0.96018 0.0
O98 O 0.03347 0.35315 0.92506 0.0
O99 O 1.00991 0.31113 0.89282 0.0
O100 O 0.99501 0.30561 0.92366 0.0
C101 C 0.03381 0.27611 0.95677 0.0
O102 O 0.04912 0.29917 0.89901 0.0
O103 O 0.06812 0.32541 0.92644 0.0
In104 In 0.49139 0.17414 0.31245 0.0
O105 O 0.52695 0.18186 0.30805 0.0
O106 O 0.50378 0.18725 0.27906 0.0
C107 C 0.50151 0.17163 0.36002 0.0
C108 C 0.46145 0.20175 0.30897 0.0
C109 C 0.47686 0.1284 0.29128 0.0
O110 O 0.51122 0.18859 0.3498 0.0
O111 O 0.48638 0.15691 0.34647 0.0
O112 O 0.49471 0.13507 0.30531 0.0
O113 O 0.4667 0.14503 0.28723 0.0
C114 C 0.5234 0.18753 0.28697 0.0
O115 O 0.45711 0.17948 0.31137 0.0
O116 O 0.48128 0.21063 0.3092 0.0
In117 In 0.28715 0.22486 0.51886 0.0
O118 O 0.28075 0.25244 0.54742 0.0
O119 O 0.30258 0.23009 0.55848 0.0
C120 C 0.28933 0.25021 0.47983 0.0
C121 C 0.32176 0.20448 0.51648 0.0
C122 C 0.24793 0.1946 0.5175 0.0
O123 O 0.29517 0.26015 0.50106 0.0
O124 O 0.28171 0.22774 0.47829 0.0
O125 O 0.26551 0.18738 0.51932 0.0
O126 O 0.24999 0.21704 0.51593 0.0
C127 C 0.2932 0.24663 0.56445 0.0
O128 O 0.30244 0.19252 0.51114 0.0
O129 O 0.32361 0.22674 0.52293 0.0
In130 In 0.20089 0.11307 0.86591 0.0
O131 O 0.16769 0.11748 0.84831 0.0
O132 O 0.17955 0.08728 0.83521 0.0
C133 C 0.18487 0.10038 0.90532 0.0
C134 C 0.23351 0.09179 0.85765 0.0
C135 C 0.21902 0.15959 0.86234 0.0
O136 O 0.19236 0.12217 0.90251 0.0
O137 O 0.18586 0.08508 0.88848 0.0
O138 O 0.22554 0.14843 0.87949 0.0
O139 O 0.20307 0.14754 0.84764 0.0
C140 C 0.16447 0.09885 0.83346 0.0
O141 O 0.22964 0.09627 0.87848 0.0
O142 O 0.22091 0.09802 0.84108 0.0
In143 In 0.32843 0.94081 0.04415 0.0
O144 O 0.31799 0.90862 0.06597 0.0
O145 O 0.33997 0.93991 0.08419 0.0
C146 C 0.3206 0.91603 0.99935 0.0
C147 C 0.29761 0.96697 0.04964 0.0
C148 C 0.36934 0.96495 0.04275 0.0
O149 O 0.323 0.90566 0.01828 0.0
O150 O 0.32182 0.93852 1.00308 0.0
O151 O 0.35279 0.97338 0.03614 0.0
O152 O 0.36535 0.94425 0.05005 0.0
C153 C 0.32919 0.91901 0.08565 0.0
O154 O 0.31746 0.97471 0.05779 0.0
O155 O 0.29312 0.94592 0.03868 0.0
In156 In 0.34175 0.4351 0.05643 0.0
O157 O 0.33352 0.40021 0.07486 0.0
O158 O 0.34832 0.43269 0.09705 0.0
C159 C 0.33497 0.41368 0.01063 0.0
C160 C 0.30766 0.45637 0.05918 0.0
C161 C 0.38155 0.4635 0.05641 0.0
O162 O 0.34667 0.40678 0.0276 0.0
O163 O 0.32644 0.43089 0.01682 0.0
O164 O 0.36459 0.47186 0.05589 0.0
O165 O 0.37859 0.44096 0.05763 0.0
C166 C 0.3403 0.41033 0.09593 0.0
O167 O 0.32711 0.46802 0.0641 0.0
O168 O 0.30544 0.43399 0.05303 0.0
In169 In 0.8021 0.22083 0.03963 0.0
O170 O 0.81506 0.186 0.04108 0.0
O171 O 0.83724 0.21814 0.03731 0.0
C172 C 0.7601 0.19755 0.03512 0.0
C173 C 0.80988 0.24282 0.08544 0.0
C174 C 0.80167 0.24353 0.99875 0.0
O175 O 0.77445 0.1878 0.02784 0.0
O176 O 0.76687 0.21915 0.0446 0.0
O177 O 0.81194 0.25389 0.01882 0.0
O178 O 0.79165 0.22214 0.99945 0.0
C179 C 0.83416 0.19566 0.03901 0.0
O180 O 0.80796 0.25445 0.06732 0.0
O181 O 0.80804 0.22035 0.08044 0.0
In182 In 0.15541 0.4854 0.24243 0.0
O183 O 0.17028 0.45355 0.23249 0.0
O184 O 0.16653 0.45995 0.26876 0.0
C185 C 0.18902 0.52235 0.25999 0.0
C186 C 0.13988 0.48596 0.19584 0.0
C187 C 0.1212 0.49533 0.26056 0.0
O188 O 0.17407 0.51506 0.27163 0.0
O189 O 0.18718 0.51075 0.2397 0.0
O190 O 0.13416 0.51079 0.25192 0.0
O191 O 0.12527 0.4743 0.25986 0.0
C192 C 0.17383 0.44789 0.25355 0.0
O193 O 0.13049 0.47101 0.2084 0.0
O194 O 0.15725 0.49961 0.20661 0.0
In195 In 0.83625 0.93402 0.54386 0.0
O196 O 0.8329 0.89823 0.56162 0.0
O197 O 0.83942 0.9312 0.58418 0.0
C198 C 0.82846 0.91654 0.49683 0.0
C199 C 0.80247 0.95603 0.54684 0.0
C200 C 0.87763 0.95921 0.54661 0.0
O201 O 0.82562 0.90284 0.51321 0.0
O202 O 0.83507 0.93871 0.50421 0.0
O203 O 0.86174 0.96913 0.54791 0.0
O204 O 0.87286 0.9363 0.54459 0.0
C205 C 0.83574 0.90841 0.58276 0.0
O206 O 0.82194 0.96637 0.55444 0.0
O207 O 0.79989 0.93447 0.53762 0.0
In208 In 0.90173 0.07632 0.19683 0.0
O209 O 0.91549 0.06332 0.16455 0.0
O210 O 0.92492 0.10064 0.17789 0.0
C211 C 0.93235 0.0815 0.23615 0.0
C212 C 0.87215 0.1035 0.18628 0.0
C213 C 0.87783 0.03436 0.20594 0.0
O214 O 0.93155 0.06708 0.21784 0.0
O215 O 0.91775 0.09379 0.23461 0.0
O216 O 0.88391 0.0369 0.18587 0.0
O217 O 0.88343 0.05302 0.22092 0.0
C218 C 0.92689 0.08393 0.16298 0.0
O219 O 0.86936 0.08182 0.17739 0.0
O220 O 0.88977 0.11143 0.2005 0.0
In221 In 0.30002 0.72293 0.53536 0.0
O222 O 0.31374 0.68845 0.53558 0.0
O223 O 0.33592 0.72162 0.53561 0.0
C224 C 0.25806 0.69906 0.53087 0.0
C225 C 0.30687 0.7448 0.58125 0.0
C226 C 0.30002 0.74544 0.49416 0.0
O227 O 0.27277 0.68926 0.52461 0.0
O228 O 0.26437 0.72109 0.53913 0.0
O229 O 0.30848 0.75646 0.51457 0.0
O230 O 0.2914 0.72349 0.49466 0.0
C231 C 0.33308 0.69893 0.53553 0.0
O232 O 0.30672 0.75656 0.56313 0.0
O233 O 0.30372 0.72216 0.57626 0.0
In234 In 0.40787 0.5646 0.70029 0.0
O235 O 0.38746 0.58787 0.67995 0.0
O236 O 0.37374 0.56713 0.70566 0.0
C237 C 0.39726 0.51653 0.70353 0.0
C238 C 0.43336 0.57558 0.66745 0.0
C239 C 0.43175 0.58469 0.74296 0.0
O240 O 0.38879 0.5262 0.68622 0.0
O241 O 0.41163 0.53089 0.71838 0.0
O242 O 0.43964 0.57573 0.72623 0.0
O243 O 0.41166 0.58401 0.73811 0.0
C244 C 0.37133 0.58167 0.6902 0.0
O245 O 0.43045 0.59129 0.68288 0.0
O246 O 0.42278 0.5543 0.66806 0.0
In247 In 0.64414 0.98803 0.76719 0.0
O248 O 0.66693 0.96833 0.75038 0.0
O249 O 0.65546 0.95504 0.78112 0.0
C250 C 0.67117 0.02911 0.78932 0.0
C251 C 0.62957 0.99945 0.72337 0.0
C252 C 0.61045 0.97598 0.79062 0.0
O253 O 0.67776 0.01162 0.7801 0.0
O254 O 0.65089 0.02557 0.78819 0.0
O255 O 0.60786 0.97785 0.76841 0.0
O256 O 0.62996 0.97957 0.80079 0.0
C257 C 0.66767 0.95347 0.7658 0.0
O258 O 0.62535 0.97792 0.72877 0.0
O259 O 0.64096 0.01473 0.73993 0.0
In260 In 0.78721 0.72524 1.00717 0.0
O261 O 0.80189 0.69219 1.00009 0.0
O262 O 0.82355 0.72617 0.01128 0.0
C263 C 0.74807 0.69567 1.00796 0.0
C264 C 0.79335 0.74898 0.05197 0.0
C265 C 0.78869 0.7489 0.96689 0.0
O266 O 0.76542 0.68803 1.00868 0.0
O267 O 0.75033 0.71812 1.00634 0.0
O268 O 0.79726 0.75894 0.98759 0.0
O269 O 0.77879 0.72724 0.96652 0.0
C270 C 0.82134 0.70378 1.00526 0.0
O271 O 0.78101 0.75419 0.03448 0.0
O272 O 0.80269 0.73213 0.04684 0.0
In273 In 0.98667 0.68055 0.82526 0.0
O274 O 0.95393 0.68062 0.80359 0.0
O275 O 0.97222 0.71429 0.82186 0.0
C276 C 0.96799 0.63321 0.8229 0.0
C277 C 0.01774 0.68799 0.79777 0.0
C278 C 1.00516 0.6913 0.87189 0.0
O279 O 0.96789 0.64853 0.84009 0.0
O280 O 0.97773 0.64165 0.80656 0.0
O281 O 0.01609 0.69231 0.85512 0.0
O282 O 0.98496 0.68708 0.86501 0.0
C283 C 0.95492 0.7029 0.80859 0.0
O284 O 0.01599 0.67146 0.81157 0.0
O285 O 1.00375 0.70096 0.79776 0.0
In286 In 0.83017 0.43957 0.55013 0.0
O287 O 0.81885 0.40768 0.57176 0.0
O288 O 0.84325 0.43701 0.58964 0.0
C289 C 0.82157 0.41468 0.50549 0.0
C290 C 0.79881 0.46572 0.55194 0.0
C291 C 0.87167 0.46362 0.55147 0.0
O292 O 0.82719 0.40536 0.52436 0.0
O293 O 0.81983 0.43642 0.50911 0.0
O294 O 0.85806 0.47284 0.56094 0.0
O295 O 0.86444 0.44227 0.54156 0.0
C296 C 0.83133 0.41676 0.59107 0.0
O297 O 0.81779 0.47492 0.549 0.0
O298 O 0.79548 0.44325 0.5537 0.0
In299 In 0.70203 0.61637 0.35878 0.0
O300 O 0.73263 0.60238 0.37086 0.0
O301 O 0.71428 0.58933 0.33623 0.0
C302 C 0.72406 0.6587 0.34784 0.0
C303 C 0.66307 0.6077 0.33053 0.0
C304 C 0.68726 0.60658 0.39959 0.0
O305 O 0.72586 0.65311 0.36911 0.0
O306 O 0.71106 0.64325 0.33264 0.0
O307 O 0.69374 0.62806 0.39498 0.0
O308 O 0.68904 0.59035 0.38408 0.0
C309 C 0.73056 0.58878 0.35162 0.0
O310 O 0.67045 0.62719 0.34415 0.0
O311 O 0.6753 0.59268 0.33135 0.0
Pr312 Pr 0.04438 0.07054 0.04018 0.0
Pr313 Pr 0.09291 0.09777 0.06366 0.0
C314 C 1.00083 0.05909 0.02985 0.0
C315 C 0.9834 0.07291 0.02991 0.0
C316 C 0.98219 0.09195 0.01553 0.0
C317 C 0.96624 0.10555 0.01674 0.0
C318 C 0.95116 0.10049 0.0324 0.0
C319 C 0.9524 0.0814 0.04675 0.0
C320 C 0.96832 0.06776 0.04549 0.0
C321 C 0.07572 0.0706 0.01138 0.0
C322 C 0.0611 0.13155 0.03989 0.0
C323 C 0.13657 0.10868 0.07444 0.0
C324 C 0.15324 0.0943 0.07216 0.0
C325 C 0.17518 0.10423 0.08096 0.0
C326 C 0.19096 0.09059 0.0783 0.0
C327 C 0.18507 0.06665 0.06691 0.0
C328 C 0.16294 0.05684 0.05824 0.0
C329 C 0.14729 0.07058 0.06065 0.0
C330 C 0.06131 0.0979 0.09222 0.0
C331 C 0.07634 0.03648 0.06194 0.0
O332 O 1.01167 0.05738 0.05091 0.0
O333 O 1.01314 0.06257 0.01333 0.0
O334 O 0.07416 0.08786 0.02574 0.0
O335 O 0.0594 0.0522 0.00978 0.0
O336 O 0.0816 0.13052 0.04702 0.0
O337 O 0.04491 0.1125 0.03892 0.0
O338 O 0.1258 0.11274 0.05419 0.0
O339 O 0.12411 0.10279 0.09039 0.0
O340 O 0.06315 0.0805 0.07818 0.0
O341 O 0.07739 0.11648 0.09339 0.0
O342 O 0.05576 0.03741 0.05556 0.0
O343 O 0.0923 0.05574 0.06318 0.0
H344 H 0.99366 0.0965 1.00344 0.0
H345 H 0.96562 0.11993 1.00523 0.0
H346 H 0.94131 0.07723 0.0593 0.0
H347 H 0.96905 0.05336 0.05697 0.0
H348 H 0.18014 0.1226 0.08969 0.0
H349 H 0.20781 0.099 0.08485 0.0
H350 H 0.15759 0.03843 0.04975 0.0
H351 H 0.1305 0.06265 0.05339 0.0
Pr352 Pr 0.33357 0.86025 0.30484 0.0
Pr353 Pr 0.30749 0.80463 0.27721 0.0
C354 C 0.36605 0.89764 0.32347 0.0
C355 C 0.3755 0.92131 0.31667 0.0
C356 C 0.39368 0.93582 0.33145 0.0
C357 C 0.40442 0.95711 0.32386 0.0
C358 C 0.39717 0.96412 0.30129 0.0
C359 C 0.37853 0.94978 0.28679 0.0
C360 C 0.36779 0.92847 0.29442 0.0
C361 C 0.2899 0.85788 0.28513 0.0
C362 C 0.32582 0.84932 0.2445 0.0
C363 C 0.27707 0.76594 0.25739 0.0
C364 C 0.27228 0.74024 0.26123 0.0
C365 C 0.28907 0.72781 0.26688 0.0
C366 C 0.28428 0.7036 0.27144 0.0
C367 C 0.26269 0.69163 0.27078 0.0
C368 C 0.24596 0.7042 0.26528 0.0
C369 C 0.25074 0.72832 0.26049 0.0
C370 C 0.35096 0.80647 0.29745 0.0
C371 C 0.31293 0.81671 0.3374 0.0
O372 O 0.36855 0.87917 0.30963 0.0
O373 O 0.34668 0.89502 0.32951 0.0
O374 O 0.30063 0.84158 0.28528 0.0
O375 O 0.30223 0.87766 0.29694 0.0
O376 O 0.31296 0.82789 0.24508 0.0
O377 O 0.33674 0.86325 0.26414 0.0
O378 O 0.27419 0.78097 0.27479 0.0
O379 O 0.29463 0.77358 0.24822 0.0
O380 O 0.34053 0.82308 0.29687 0.0
O381 O 0.33849 0.78684 0.28564 0.0
O382 O 0.3263 0.83796 0.33726 0.0
O383 O 0.30264 0.80271 0.31752 0.0
H384 H 0.39985 0.93041 0.34862 0.0
H385 H 0.41849 0.96803 0.33562 0.0
H386 H 0.37264 0.95465 0.26928 0.0
H387 H 0.35385 0.91722 0.28271 0.0
H388 H 0.30588 0.73683 0.26794 0.0
H389 H 0.29745 0.69432 0.27577 0.0
H390 H 0.22914 0.69526 0.26434 0.0
H391 H 0.23762 0.73772 0.25634 0.0
Pr392 Pr 0.59087 0.08916 0.54223 0.0
Pr393 Pr 0.54108 0.08173 0.53927 0.0
C394 C 0.63356 0.08887 0.54877 0.0
C395 C 0.64944 0.07327 0.54944 0.0
C396 C 0.67097 0.08378 0.54817 0.0
C397 C 0.6866 0.06965 0.54882 0.0
C398 C 0.68104 0.04463 0.55081 0.0
C399 C 0.6593 0.03405 0.55184 0.0
C400 C 0.6436 0.0483 0.55119 0.0
C401 C 0.56985 0.10879 0.5043 0.0
C402 C 0.55921 0.0353 0.51984 0.0
C403 C 0.49831 0.08155 0.53271 0.0
C404 C 0.48155 0.0961 0.53068 0.0
C405 C 0.4616 0.08656 0.53739 0.0
C406 C 0.44481 0.09913 0.53466 0.0
C407 C 0.44761 0.12156 0.52512 0.0
C408 C 0.46785 0.13139 0.51886 0.0
C409 C 0.48471 0.11871 0.52156 0.0
C410 C 0.56226 0.06256 0.57745 0.0
C411 C 0.57296 0.13536 0.56227 0.0
O412 O 0.62241 0.08882 0.56636 0.0
O413 O 0.62219 0.08999 0.52785 0.0
O414 O 0.56296 0.08833 0.511 0.0
O415 O 0.58872 0.11927 0.51641 0.0
O416 O 0.54228 0.04559 0.51757 0.0
O417 O 0.57863 0.04726 0.53066 0.0
O418 O 0.50927 0.08047 0.51505 0.0
O419 O 0.50993 0.08208 0.55386 0.0
O420 O 0.56894 0.08296 0.57056 0.0
O421 O 0.54349 0.05179 0.56532 0.0
O422 O 0.58974 0.12483 0.56458 0.0
O423 O 0.55353 0.1237 0.55107 0.0
H424 H 0.6757 0.10301 0.54664 0.0
H425 H 0.70305 0.07832 0.54748 0.0
H426 H 0.6545 0.01488 0.55351 0.0
H427 H 0.62698 0.03988 0.55211 0.0
H428 H 0.45891 0.06918 0.54455 0.0
H429 H 0.42961 0.09126 0.54011 0.0
H430 H 0.47049 0.14858 0.51137 0.0
H431 H 0.50005 0.12637 0.51629 0.0
Pr432 Pr 0.29122 0.33413 0.78199 0.0
Pr433 Pr 0.34126 0.33566 0.79108 0.0
C434 C 0.24821 0.32774 0.78212 0.0
C435 C 0.2316 0.32469 0.79798 0.0
C436 C 0.22793 0.34465 0.81182 0.0
C437 C 0.2109 0.34185 0.82501 0.0
C438 C 0.19709 0.31906 0.82461 0.0
C439 C 0.2011 0.29902 0.81118 0.0
C440 C 0.21811 0.30182 0.79798 0.0
C441 C 0.31643 0.37199 0.76372 0.0
C442 C 0.3207 0.35532 0.83621 0.0
C443 C 0.38447 0.34199 0.79275 0.0
C444 C 0.40255 0.34451 0.7791 0.0
C445 C 0.422 0.36086 0.78876 0.0
C446 C 0.44015 0.3623 0.77748 0.0
C447 C 0.43926 0.34734 0.75627 0.0
C448 C 0.4195 0.33142 0.74623 0.0
C449 C 0.40129 0.33 0.75756 0.0
C450 C 0.31559 0.29752 0.80862 0.0
C451 C 0.31156 0.31363 0.73707 0.0
O452 O 0.25795 0.30978 0.7787 0.0
O453 O 0.26103 0.3491 0.78325 0.0
O454 O 0.32143 0.36465 0.78387 0.0
O455 O 0.29716 0.36093 0.75307 0.0
O456 O 0.33865 0.35685 0.82693 0.0
O457 O 0.30138 0.34533 0.82361 0.0
O458 O 0.37459 0.36009 0.79438 0.0
O459 O 0.37151 0.32067 0.79111 0.0
O460 O 0.31112 0.30528 0.78865 0.0
O461 O 0.33467 0.30852 0.81985 0.0
O462 O 0.29368 0.31244 0.74645 0.0
O463 O 0.331 0.32368 0.74947 0.0
H464 H 0.23788 0.36257 0.81209 0.0
H465 H 0.20814 0.35775 0.83489 0.0
H466 H 0.19099 0.28115 0.81073 0.0
H467 H 0.22045 0.28612 0.78738 0.0
H468 H 0.42327 0.37224 0.80535 0.0
H469 H 0.45494 0.37509 0.78546 0.0
H470 H 0.41828 0.31953 0.73 0.0
H471 H 0.38642 0.31725 0.74976 0.0
Pr472 Pr 0.05994 0.06131 0.50637 0.0
Pr473 Pr 0.06744 0.08624 0.5545 0.0
C474 C 0.04408 0.04243 0.46072 0.0
C475 C 0.03599 0.051 0.43786 0.0
C476 C 0.04478 0.04568 0.41738 0.0
C477 C 0.03666 0.05269 0.39531 0.0
C478 C 0.0194 0.06494 0.39323 0.0
C479 C 1.01101 0.07077 0.41397 0.0
C480 C 0.01929 0.06398 0.43606 0.0
C481 C 0.10308 0.0862 0.52083 0.0
C482 C 0.05409 0.11854 0.51245 0.0
C483 C 0.0811 0.1061 0.60011 0.0
C484 C 0.08164 0.09886 0.6246 0.0
C485 C 0.06896 0.10801 0.63975 0.0
C486 C 0.07022 0.10256 0.66346 0.0
C487 C 0.08441 0.08807 0.67258 0.0
C488 C 0.0966 0.0783 0.65713 0.0
C489 C 0.09519 0.08359 0.63338 0.0
C490 C 0.02432 0.0616 0.54007 0.0
C491 C 0.07474 0.0292 0.54861 0.0
O492 O 0.03213 0.04256 0.47754 0.0
O493 O 0.06485 0.04924 0.46889 0.0
O494 O 0.0866 0.09442 0.52391 0.0
O495 O 0.09761 0.06418 0.51027 0.0
O496 O 0.06587 0.11999 0.5338 0.0
O497 O 0.04698 0.09726 0.49954 0.0
O498 O 0.0938 0.09791 0.58687 0.0
O499 O 0.06206 0.10656 0.58812 0.0
O500 O 0.0407 0.05309 0.5371 0.0
O501 O 0.02998 0.08362 0.5504 0.0
O502 O 0.06487 0.02764 0.52625 0.0
O503 O 0.07962 0.05015 0.56225 0.0
H504 H 0.05779 0.03586 0.4184 0.0
H505 H 0.04383 0.04832 0.37985 0.0
H506 H 0.99757 0.07991 0.41306 0.0
H507 H 1.0123 0.06852 0.45162 0.0
H508 H 0.05833 0.11977 0.63337 0.0
H509 H 0.06041 0.11012 0.67477 0.0
H510 H 0.10797 0.06741 0.66361 0.0
H511 H 0.10515 0.07618 0.62213 0.0
Pr512 Pr 0.30241 0.79723 0.79228 0.0
Pr513 Pr 0.3227 0.856 0.79065 0.0
C514 C 0.28696 0.74955 0.78021 0.0
C515 C 0.28644 0.73157 0.76005 0.0
C516 C 0.26847 0.71226 0.75347 0.0
C517 C 0.26855 0.69404 0.73548 0.0
C518 C 0.28659 0.69501 0.72377 0.0
C519 C 0.30405 0.71511 0.72962 0.0
C520 C 0.30401 0.73316 0.74767 0.0
C521 C 0.29899 0.82521 0.8345 0.0
C522 C 0.35491 0.81987 0.81263 0.0
C523 C 0.33781 0.90386 0.8019 0.0
C524 C 0.33002 0.92555 0.80879 0.0
C525 C 0.34408 0.94472 0.82388 0.0
C526 C 0.33718 0.96605 0.82955 0.0
C527 C 0.31621 0.96844 0.81994 0.0
C528 C 0.30203 0.94899 0.80521 0.0
C529 C 0.30884 0.92763 0.79978 0.0
C530 C 0.3267 0.82771 0.74894 0.0
C531 C 0.27196 0.83319 0.76616 0.0
O532 O 0.27511 0.76569 0.77598 0.0
O533 O 0.30602 0.75855 0.79335 0.0
O534 O 0.30584 0.83238 0.81603 0.0
O535 O 0.29258 0.80179 0.83094 0.0
O536 O 0.3514 0.84208 0.81166 0.0
O537 O 0.34007 0.80011 0.80351 0.0
O538 O 0.33889 0.88828 0.81776 0.0
O539 O 0.33052 0.89374 0.77991 0.0
O540 O 0.31911 0.82062 0.76702 0.0
O541 O 0.33387 0.85102 0.75275 0.0
O542 O 0.27666 0.8114 0.7661 0.0
O543 O 0.2853 0.85285 0.77806 0.0
H544 H 0.25468 0.71089 0.76275 0.0
H545 H 0.25484 0.67882 0.73127 0.0
H546 H 0.31838 0.71624 0.7213 0.0
H547 H 0.31806 0.74793 0.75246 0.0
H548 H 0.36047 0.94331 0.831 0.0
H549 H 0.34834 0.98083 0.84098 0.0
H550 H 0.28564 0.95027 0.79798 0.0
H551 H 0.29767 0.91288 0.78831 0.0
Pr552 Pr 0.57105 0.07562 0.05783 0.0
Pr553 Pr 0.55694 0.08667 0.01105 0.0
C554 C 0.57917 0.07253 0.10531 0.0
C555 C 0.58643 0.0911 0.12585 0.0
C556 C 0.58564 0.08469 0.14909 0.0
C557 C 0.58869 0.1027 0.16824 0.0
C558 C 0.59241 0.12736 0.16432 0.0
C559 C 0.59454 0.13366 0.14115 0.0
C560 C 0.59155 0.11564 0.12204 0.0
C561 C 0.57324 0.03764 0.02369 0.0
C562 C 0.51933 0.05745 0.03578 0.0
C563 C 0.54891 0.09139 0.9638 0.0
C564 C 0.54089 0.07398 0.94241 0.0
C565 C 0.54529 0.08059 0.92009 0.0
C566 C 0.54177 0.06291 0.90059 0.0
C567 C 0.53403 0.03834 0.90325 0.0
C568 C 0.52824 0.03207 0.92528 0.0
C569 C 0.53157 0.04982 0.94471 0.0
C570 C 0.55567 0.12479 0.04565 0.0
C571 C 0.60834 0.10532 0.03333 0.0
O572 O 0.59328 0.07035 0.09124 0.0
O573 O 0.55988 0.0723 0.09356 0.0
O574 O 0.55782 0.04867 0.02303 0.0
O575 O 0.58791 0.04598 0.04238 0.0
O576 O 0.52576 0.059 0.01492 0.0
O577 O 0.53309 0.06643 0.05555 0.0
O578 O 0.53509 0.09371 0.97816 0.0
O579 O 0.56795 0.09014 0.97519 0.0
O580 O 0.5708 0.11352 0.04552 0.0
O581 O 0.54039 0.11631 0.0276 0.0
O582 O 0.60117 0.10471 0.05382 0.0
O583 O 0.59514 0.09504 0.01357 0.0
H584 H 0.58154 0.06581 0.15224 0.0
H585 H 0.58663 0.09721 0.18578 0.0
H586 H 0.59755 0.15248 0.1376 0.0
H587 H 0.59212 0.12085 0.1041 0.0
H588 H 0.55262 0.09915 0.9181 0.0
H589 H 0.54667 0.06829 0.88396 0.0
H590 H 0.52215 0.01332 0.92781 0.0
H591 H 0.52797 0.04452 0.96186 0.0
Pr592 Pr 0.29908 0.31021 0.28467 0.0
Pr593 Pr 0.34054 0.35124 0.29495 0.0
C594 C 0.26007 0.28252 0.28726 0.0
C595 C 0.24124 0.2867 0.29816 0.0
C596 C 0.23388 0.30846 0.29644 0.0
C597 C 0.21672 0.31263 0.30783 0.0
C598 C 0.20665 0.29523 0.32137 0.0
C599 C 0.21403 0.27345 0.32299 0.0
C600 C 0.23112 0.26924 0.31148 0.0
C601 C 0.312 0.32981 0.24397 0.0
C602 C 0.2956 0.36695 0.29973 0.0
C603 C 0.3792 0.37985 0.29252 0.0
C604 C 0.39852 0.37669 0.28199 0.0
C605 C 0.40855 0.35708 0.28649 0.0
C606 C 0.42605 0.35372 0.2753 0.0
C607 C 0.43382 0.36977 0.25922 0.0
C608 C 0.42386 0.38949 0.25495 0.0
C609 C 0.40646 0.39292 0.26625 0.0
C610 C 0.32725 0.33166 0.33548 0.0
C611 C 0.34393 0.29411 0.27969 0.0
O612 O 0.27768 0.28221 0.30225 0.0
O613 O 0.26402 0.29398 0.26866 0.0
O614 O 0.3121 0.34164 0.26373 0.0
O615 O 0.30396 0.30681 0.24422 0.0
O616 O 0.3147 0.37497 0.29368 0.0
O617 O 0.28886 0.34394 0.30262 0.0
O618 O 0.36158 0.3794 0.27725 0.0
O619 O 0.37539 0.36842 0.31118 0.0
O620 O 0.32751 0.31991 0.31581 0.0
O621 O 0.33512 0.35472 0.33529 0.0
O622 O 0.32447 0.28596 0.28484 0.0
O623 O 0.3512 0.31735 0.27798 0.0
H624 H 0.24156 0.32241 0.28654 0.0
H625 H 0.21166 0.32972 0.30646 0.0
H626 H 0.20652 0.25956 0.33305 0.0
H627 H 0.23657 0.2524 0.31318 0.0
H628 H 0.40266 0.34409 0.29835 0.0
H629 H 0.43315 0.33819 0.27878 0.0
H630 H 0.42958 0.40236 0.24291 0.0
H631 H 0.399 0.40814 0.26244 0.0
Pr632 Pr 0.56016 0.56646 1.00782 0.0
Pr633 Pr 0.56885 0.59267 0.05516 0.0
C634 C 0.54216 0.54652 0.96306 0.0
C635 C 0.53314 0.55555 0.941 0.0
C636 C 0.54227 0.57846 0.93477 0.0
C637 C 0.53243 0.58745 0.91464 0.0
C638 C 0.51314 0.57384 0.90076 0.0
C639 C 0.50412 0.55092 0.90705 0.0
C640 C 0.51409 0.54184 0.92697 0.0
C641 C 0.60365 0.59085 0.02033 0.0
C642 C 0.55531 0.62399 0.01234 0.0
C643 C 0.58283 0.61424 0.10013 0.0
C644 C 0.58173 0.60875 0.12494 0.0
C645 C 0.5711 0.62216 0.13921 0.0
C646 C 0.57081 0.6182 0.16316 0.0
C647 C 0.58137 0.60091 0.17338 0.0
C648 C 0.59139 0.58693 0.1588 0.0
C649 C 0.59152 0.59075 0.13479 0.0
C650 C 0.52551 0.56792 0.04247 0.0
C651 C 0.57588 0.53536 0.05052 0.0
O652 O 0.53108 0.54741 0.98057 0.0
O653 O 0.56313 0.55297 0.97016 0.0
O654 O 0.58752 0.59959 0.02389 0.0
O655 O 0.59761 0.56866 0.01024 0.0
O656 O 0.5677 0.62583 0.03338 0.0
O657 O 0.54752 0.60242 1.00023 0.0
O658 O 0.59479 0.60326 0.08809 0.0
O659 O 0.56466 0.61629 0.08721 0.0
O660 O 0.54178 0.5593 0.03936 0.0
O661 O 0.53137 0.5902 0.05203 0.0
O662 O 0.56574 0.53338 0.02824 0.0
O663 O 0.58092 0.55658 0.06378 0.0
H664 H 0.55678 0.58955 0.94565 0.0
H665 H 0.53961 0.60522 0.91021 0.0
H666 H 0.48942 0.53994 0.89645 0.0
H667 H 0.50672 0.52424 0.93165 0.0
H668 H 0.56333 0.63604 0.13194 0.0
H669 H 0.56271 0.62905 0.1738 0.0
H670 H 0.6 0.57373 0.16614 0.0
H671 H 0.59974 0.58001 0.12419 0.0
Pr672 Pr 0.80447 0.29647 0.29843 0.0
Pr673 Pr 0.82356 0.35075 0.29586 0.0
C674 C 0.7839 0.24958 0.29038 0.0
C675 C 0.77664 0.23269 0.26854 0.0
C676 C 0.77546 0.20793 0.27002 0.0
C677 C 0.77516 0.19259 0.24949 0.0
C678 C 0.77629 0.20197 0.22729 0.0
C679 C 0.77498 0.2263 0.2255 0.0
C680 C 0.7752 0.2416 0.24604 0.0
C681 C 0.8085 0.32563 0.34154 0.0
C682 C 0.85636 0.31553 0.31627 0.0
C683 C 0.8387 0.39854 0.30778 0.0
C684 C 0.82989 0.41849 0.3171 0.0
C685 C 0.84299 0.44179 0.32259 0.0
C686 C 0.83384 0.46138 0.32871 0.0
C687 C 0.81148 0.45773 0.32916 0.0
C688 C 0.79867 0.43413 0.32479 0.0
C689 C 0.80782 0.41463 0.31881 0.0
C690 C 0.82864 0.32495 0.25323 0.0
C691 C 0.77265 0.3307 0.2721 0.0
O692 O 0.77369 0.26728 0.29269 0.0
O693 O 0.80497 0.25665 0.29604 0.0
O694 O 0.80199 0.33148 0.32102 0.0
O695 O 0.81167 0.30372 0.34012 0.0
O696 O 0.85196 0.3373 0.31796 0.0
O697 O 0.8418 0.29657 0.30509 0.0
O698 O 0.842 0.3824 0.32252 0.0
O699 O 0.8296 0.38901 0.28604 0.0
O700 O 0.8203 0.31595 0.27018 0.0
O701 O 0.83543 0.34813 0.25846 0.0
O702 O 0.77681 0.3088 0.27312 0.0
O703 O 0.787 0.35023 0.28232 0.0
H704 H 0.77666 0.20084 0.28729 0.0
H705 H 0.77636 0.17401 0.25157 0.0
H706 H 0.77564 0.23396 0.20861 0.0
H707 H 0.77611 0.26075 0.24461 0.0
H708 H 0.86008 0.44494 0.3213 0.0
H709 H 0.84397 0.47945 0.33192 0.0
H710 H 0.78144 0.43089 0.32532 0.0
H711 H 0.79755 0.39666 0.31465 0.0
Pr712 Pr 0.07357 0.57508 0.56758 0.0
Pr713 Pr 0.05868 0.57474 0.5081 0.0
C714 C 0.08433 0.58584 0.6153 0.0
C715 C 0.08881 0.60572 0.63458 0.0
C716 C 0.0894 0.59999 0.65817 0.0
C717 C 0.09063 0.61802 0.6767 0.0
C718 C 0.09108 0.64213 0.6719 0.0
C719 C 0.09154 0.64805 0.64829 0.0
C720 C 0.09064 0.62994 0.62975 0.0
C721 C 0.07428 0.53049 0.54149 0.0
C722 C 0.02259 0.55305 0.54271 0.0
C723 C 0.04799 0.55835 0.46153 0.0
C724 C 0.04736 0.55997 0.43577 0.0
C725 C 0.02942 0.54627 0.41985 0.0
C726 C 0.03036 0.54246 0.39548 0.0
C727 C 0.04929 0.55235 0.38671 0.0
C728 C 0.06655 0.56779 0.40242 0.0
C729 C 0.06562 0.57152 0.42683 0.0
C730 C 0.05759 0.61935 0.5333 0.0
C731 C 0.10863 0.60177 0.53367 0.0
O732 O 0.0988 0.58553 0.60117 0.0
O733 O 0.06421 0.57941 0.60414 0.0
O734 O 0.0698 0.54948 0.534 0.0
O735 O 0.0797 0.53453 0.56464 0.0
O736 O 0.02881 0.55175 0.52149 0.0
O737 O 0.03559 0.56458 0.56234 0.0
O738 O 0.06666 0.55776 0.47458 0.0
O739 O 0.03491 0.56824 0.47295 0.0
O740 O 0.062 0.6006 0.54174 0.0
O741 O 0.05309 0.61514 0.50998 0.0
O742 O 0.10248 0.60095 0.555 0.0
O743 O 0.09618 0.59044 0.51357 0.0
H744 H 0.088 0.58136 0.66216 0.0
H745 H 0.08988 0.61277 0.69459 0.0
H746 H 0.09199 0.6665 0.64411 0.0
H747 H 0.09071 0.63467 0.61164 0.0
H748 H 0.01521 0.53719 0.42649 0.0
H749 H 0.01674 0.53073 0.38373 0.0
H750 H 0.08143 0.57551 0.39624 0.0
H751 H 0.07967 0.58213 0.43887 0.0
Pr752 Pr 0.7821 0.83396 0.26815 0.0
Pr753 Pr 0.83261 0.84572 0.27598 0.0
C754 C 0.73928 0.81849 0.26828 0.0
C755 C 0.72177 0.8192 0.28227 0.0
C756 C 0.70024 0.81126 0.27072 0.0
C757 C 0.68315 0.81153 0.28343 0.0
C758 C 0.68726 0.8198 0.30801 0.0
C759 C 0.70895 0.82792 0.31954 0.0
C760 C 0.72609 0.82759 0.30676 0.0
C761 C 0.80123 0.87836 0.25465 0.0
C762 C 0.81013 0.85984 0.32139 0.0
C763 C 0.87521 0.86165 0.27502 0.0
C764 C 0.89357 0.85741 0.26321 0.0
C765 C 0.90638 0.84122 0.27162 0.0
C766 C 0.92482 0.83889 0.26181 0.0
C767 C 0.93096 0.85277 0.24343 0.0
C768 C 0.91799 0.86874 0.23484 0.0
C769 C 0.89957 0.87109 0.24467 0.0
C770 C 0.81354 0.80123 0.28933 0.0
C771 C 0.80438 0.81933 0.22234 0.0
O772 O 0.75386 0.80624 0.27591 0.0
O773 O 0.74739 0.83855 0.25982 0.0
O774 O 0.80763 0.86965 0.27354 0.0
O775 O 0.7838 0.8645 0.24225 0.0
O776 O 0.82694 0.86667 0.31058 0.0
O777 O 0.79217 0.84501 0.30998 0.0
O778 O 0.85991 0.87027 0.26264 0.0
O779 O 0.86789 0.84601 0.28932 0.0
O780 O 0.80718 0.81019 0.27059 0.0
O781 O 0.83127 0.81475 0.30149 0.0
O782 O 0.78662 0.81495 0.23204 0.0
O783 O 0.82312 0.83182 0.23461 0.0
H784 H 0.69664 0.80484 0.25178 0.0
H785 H 0.66668 0.80554 0.27391 0.0
H786 H 0.71267 0.83421 0.33849 0.0
H787 H 0.74266 0.8338 0.31596 0.0
H788 H 0.90238 0.83059 0.28607 0.0
H789 H 0.9343 0.82624 0.26868 0.0
H790 H 0.9224 0.87999 0.22097 0.0
H791 H 0.89029 0.88403 0.23806 0.0
Pr792 Pr 0.83095 0.35103 0.80567 0.0
Pr793 Pr 0.80404 0.30305 0.78205 0.0
C794 C 0.85959 0.38867 0.83145 0.0
C795 C 0.86989 0.41377 0.82865 0.0
C796 C 0.85761 0.43167 0.8253 0.0
C797 C 0.86777 0.45541 0.82307 0.0
C798 C 0.89034 0.46163 0.82401 0.0
C799 C 0.90256 0.44366 0.82703 0.0
C800 C 0.89242 0.41996 0.82946 0.0
C801 C 0.78907 0.35363 0.78472 0.0
C802 C 0.82571 0.34382 0.74758 0.0
C803 C 0.77684 0.26342 0.75803 0.0
C804 C 0.76743 0.23978 0.76521 0.0
C805 C 0.76392 0.21888 0.7491 0.0
C806 C 0.75594 0.19619 0.75623 0.0
C807 C 0.75129 0.19413 0.77956 0.0
C808 C 0.75481 0.21515 0.79564 0.0
C809 C 0.76295 0.23778 0.78857 0.0
C810 C 0.84583 0.30104 0.80403 0.0
C811 C 0.80798 0.31098 0.83982 0.0
O812 O 0.86539 0.37155 0.81878 0.0
O813 O 0.8389 0.38408 0.8328 0.0
O814 O 0.79371 0.3369 0.79679 0.0
O815 O 0.80612 0.37043 0.78439 0.0
O816 O 0.81021 0.32486 0.7489 0.0
O817 O 0.83843 0.35571 0.76707 0.0
O818 O 0.77019 0.28203 0.76704 0.0
O819 O 0.79776 0.26771 0.75813 0.0
O820 O 0.84121 0.31713 0.79111 0.0
O821 O 0.82869 0.28477 0.80524 0.0
O822 O 0.82424 0.32912 0.83858 0.0
O823 O 0.79511 0.29957 0.82023 0.0
H824 H 0.84018 0.42743 0.82447 0.0
H825 H 0.85798 0.46891 0.82055 0.0
H826 H 0.92001 0.44805 0.82809 0.0
H827 H 0.90221 0.40646 0.83212 0.0
H828 H 0.76746 0.2201 0.73108 0.0
H829 H 0.75316 0.18028 0.7434 0.0
H830 H 0.75155 0.21403 0.81377 0.0
H831 H 0.7659 0.2537 0.80143 0.0
Pr832 Pr 0.78929 0.80422 0.76704 0.0
Pr833 Pr 0.83302 0.84905 0.77839 0.0
C834 C 0.74994 0.77734 0.76892 0.0
C835 C 0.73204 0.78173 0.7815 0.0
C836 C 0.72376 0.80287 0.77919 0.0
C837 C 0.70744 0.80732 0.79178 0.0
C838 C 0.69903 0.79081 0.80712 0.0
C839 C 0.70735 0.76968 0.80945 0.0
C840 C 0.72365 0.76518 0.79674 0.0
C841 C 0.80477 0.82412 0.72774 0.0
C842 C 0.78653 0.86238 0.78357 0.0
C843 C 0.86923 0.87878 0.77039 0.0
C844 C 0.88906 0.87488 0.76148 0.0
C845 C 0.89764 0.88971 0.74498 0.0
C846 C 0.91532 0.88507 0.73484 0.0
C847 C 0.92484 0.86544 0.74096 0.0
C848 C 0.91639 0.85081 0.75781 0.0
C849 C 0.89866 0.85545 0.76791 0.0
C850 C 0.82275 0.82851 0.82025 0.0
C851 C 0.83656 0.79085 0.76771 0.0
O852 O 0.76761 0.77442 0.7824 0.0
O853 O 0.75388 0.79049 0.75136 0.0
O854 O 0.8043 0.83555 0.74754 0.0
O855 O 0.79581 0.80121 0.7271 0.0
O856 O 0.80657 0.87162 0.78048 0.0
O857 O 0.77851 0.83877 0.78259 0.0
O858 O 0.85134 0.87306 0.75468 0.0
O859 O 0.8666 0.87227 0.79164 0.0
O860 O 0.81373 0.82266 0.79885 0.0
O861 O 0.83881 0.84695 0.82093 0.0
O862 O 0.81666 0.78228 0.77167 0.0
O863 O 0.84386 0.81393 0.76515 0.0
H864 H 0.73005 0.8162 0.76784 0.0
H865 H 0.70169 0.82395 0.78983 0.0
H866 H 0.70113 0.75647 0.82094 0.0
H867 H 0.72979 0.74881 0.79894 0.0
H868 H 0.89043 0.9047 0.73965 0.0
H869 H 0.92155 0.8969 0.72217 0.0
H870 H 0.92309 0.83536 0.76272 0.0
H871 H 0.8922 0.84353 0.78038 0.0
Pr872 Pr 0.54716 0.57762 0.53656 0.0
Pr873 Pr 0.59608 0.6014 0.56121 0.0
C874 C 0.50357 0.56765 0.52525 0.0
C875 C 0.48615 0.58143 0.52534 0.0
C876 C 0.48746 0.60367 0.51554 0.0
C877 C 0.47114 0.61683 0.51671 0.0
C878 C 0.45321 0.6081 0.52778 0.0
C879 C 0.45206 0.58586 0.53764 0.0
C880 C 0.46833 0.57269 0.5364 0.0
C881 C 0.57856 0.57908 0.50752 0.0
C882 C 0.56585 0.6384 0.54108 0.0
C883 C 0.63965 0.61059 0.57295 0.0
C884 C 0.65605 0.59576 0.57118 0.0
C885 C 0.6771 0.60356 0.58417 0.0
C886 C 0.69273 0.58958 0.58229 0.0
C887 C 0.68755 0.56745 0.56743 0.0
C888 C 0.66634 0.55969 0.55452 0.0
C889 C 0.65078 0.57372 0.55634 0.0
C890 C 0.5646 0.59992 0.59012 0.0
C891 C 0.57714 0.54065 0.55646 0.0
O892 O 0.51392 0.5652 0.54634 0.0
O893 O 0.51632 0.57172 0.50923 0.0
O894 O 0.57743 0.59541 0.52316 0.0
O895 O 0.56193 0.56092 0.50492 0.0
O896 O 0.58612 0.63586 0.54681 0.0
O897 O 0.54905 0.62001 0.53988 0.0
O898 O 0.62948 0.61508 0.55251 0.0
O899 O 0.62674 0.60505 0.58853 0.0
O900 O 0.56595 0.58359 0.5746 0.0
O901 O 0.58102 0.61831 0.59254 0.0
O902 O 0.55694 0.54347 0.55137 0.0
O903 O 0.59401 0.55882 0.55711 0.0
H904 H 0.50113 0.61097 0.50708 0.0
H905 H 0.47251 0.63374 0.5087 0.0
H906 H 0.43877 0.57875 0.54671 0.0
H907 H 0.46712 0.55575 0.54436 0.0
H908 H 0.68146 0.62049 0.59575 0.0
H909 H 0.70882 0.59598 0.59268 0.0
H910 H 0.66184 0.54296 0.54267 0.0
H911 H 0.63466 0.56744 0.54599 0.0
Pr912 Pr 0.09209 0.58688 0.03656 0.0
Pr913 Pr 0.04147 0.5808 0.03057 0.0
C914 C 0.1342 0.584 0.04459 0.0
C915 C 0.14956 0.56772 0.04876 0.0
C916 C 0.14895 0.54764 0.03235 0.0
C917 C 0.16526 0.53427 0.03538 0.0
C918 C 0.18251 0.54072 0.05486 0.0
C919 C 0.18254 0.56023 0.07173 0.0
C920 C 0.16628 0.57359 0.06867 0.0
C921 C 0.07429 0.61206 1.00115 0.0
C922 C 0.05965 0.53523 0.00952 0.0
C923 C 0.99898 0.58213 0.02256 0.0
C924 C 0.9825 0.59713 0.02082 0.0
C925 C 0.96331 0.58891 0.02967 0.0
C926 C 0.94661 0.60163 0.02709 0.0
C927 C 0.94873 0.62292 0.01554 0.0
C928 C 0.96825 0.6315 1.00714 0.0
C929 C 0.98501 0.61866 0.0097 0.0
C930 C 0.06015 0.55708 0.06684 0.0
C931 C 0.07395 0.63173 0.05981 0.0
O932 O 0.12362 0.58864 0.06186 0.0
O933 O 0.1228 0.58246 0.0231 0.0
O934 O 0.06582 0.59093 1.00519 0.0
O935 O 0.09332 0.61985 0.01407 0.0
O936 O 0.0435 0.5467 1.0059 0.0
O937 O 0.07844 0.54558 0.02301 0.0
O938 O 1.01064 0.58175 1.00546 0.0
O939 O 1.0097 0.58102 0.04385 0.0
O940 O 0.06778 0.57805 0.06194 0.0
O941 O 0.04141 0.54797 0.05369 0.0
O942 O 0.09053 0.62083 0.0614 0.0
O943 O 0.05465 0.62143 0.04725 0.0
H944 H 0.13623 0.54266 0.01681 0.0
H945 H 0.16478 0.51946 0.02195 0.0
H946 H 0.19531 0.56543 0.08718 0.0
H947 H 0.16709 0.58898 0.08158 0.0
H948 H 0.96109 0.57236 0.03834 0.0
H949 H 0.93201 0.59476 0.03418 0.0
H950 H 0.97035 0.64778 0.99808 0.0
H951 H 0.99972 0.62534 1.00272 0.0
H952 H 1.00884 0.23003 0.94984 0.0
H953 H 0.08801 0.17666 0.0442 0.0
H954 H 0.06424 0.27525 0.99615 0.0
H955 H 0.0229 0.13814 0.01448 0.0
H956 H 0.08035 0.21256 0.02588 0.0
H957 H 0.01437 0.19569 0.97217 0.0
C958 C 0.0221 0.23277 0.9648 0.0
C959 C 0.0361 0.25556 0.97112 0.0
C960 C 0.06769 0.19631 0.02355 0.0
C961 C 0.04272 0.2162 0.9966 0.0
C962 C 0.07205 0.17576 0.034 0.0
C963 C 0.05612 0.15422 0.03087 0.0
C964 C 0.04735 0.19529 0.00951 0.0
C965 C 0.03572 0.15427 0.01744 0.0
C966 C 0.02522 0.21316 0.97757 0.0
C967 C 0.05302 0.25803 0.99068 0.0
N968 N 0.03201 0.17434 1.00708 0.0
N969 N 0.05597 0.23857 1.00257 0.0
H970 H 0.16127 0.8797 0.22941 0.0
H971 H 0.26635 0.82145 0.25159 0.0
H972 H 0.17432 0.82557 0.17927 0.0
H973 H 0.26312 0.88974 0.28832 0.0
H974 H 0.23036 0.81948 0.22822 0.0
H975 H 0.19645 0.88072 0.25437 0.0
C976 C 0.17151 0.86802 0.22368 0.0
C977 C 0.16489 0.8526 0.20218 0.0
C978 C 0.23748 0.83486 0.24146 0.0
C979 C 0.205 0.85347 0.23074 0.0
C980 C 0.25795 0.8359 0.2549 0.0
C981 C 0.26766 0.85575 0.27194 0.0
C982 C 0.22653 0.85369 0.24525 0.0
C983 C 0.25617 0.87412 0.27534 0.0
C984 C 0.19159 0.86864 0.23789 0.0
C985 C 0.17881 0.83783 0.19563 0.0
N986 N 0.23619 0.87263 0.26216 0.0
N987 N 0.19814 0.83856 0.20987 0.0
H988 H 0.57861 0.89265 0.47495 0.0
H989 H 0.52112 1.00275 0.50197 0.0
H990 H 0.50933 0.88402 0.46986 0.0
H991 H 0.59031 1.00816 0.51854 0.0
H992 H 0.51644 0.95954 0.48933 0.0
H993 H 0.5832 0.935 0.49086 0.0
C994 C 0.56437 0.89961 0.47745 0.0
C995 C 0.54355 0.88478 0.47107 0.0
C996 C 0.53264 0.97017 0.49576 0.0
C997 C 0.54866 0.93345 0.48891 0.0
C998 C 0.53535 0.99492 0.50287 0.0
C999 C 0.55616 1.00922 0.51127 0.0
C1000 C 0.55086 0.9596 0.49689 0.0
C1001 C 0.57395 0.99793 0.51215 0.0
C1002 C 0.56699 0.92383 0.48648 0.0
C1003 C 0.52567 0.89479 0.47464 0.0
N1004 N 0.5709 0.97385 0.50499 0.0
N1005 N 0.52862 0.91855 0.48313 0.0
H1006 H 0.52973 0.34623 0.65661 0.0
H1007 H 0.48118 0.35115 0.77871 0.0
H1008 H 0.56924 0.35596 0.72675 0.0
H1009 H 0.4425 0.34485 0.70838 0.0
H1010 H 0.5135 0.35251 0.76017 0.0
H1011 H 0.49759 0.34504 0.67537 0.0
C1012 C 0.53165 0.34811 0.676 0.0
C1013 C 0.55221 0.3512 0.69015 0.0
C1014 C 0.49796 0.35085 0.74879 0.0
C1015 C 0.51538 0.34985 0.71181 0.0
C1016 C 0.47948 0.35022 0.75936 0.0
C1017 C 0.45903 0.348 0.74511 0.0
C1018 C 0.49607 0.34921 0.72372 0.0
C1019 C 0.45784 0.34634 0.7201 0.0
C1020 C 0.51326 0.34744 0.68671 0.0
C1021 C 0.5537 0.35355 0.71518 0.0
N1022 N 0.47608 0.34702 0.71023 0.0
N1023 N 0.53552 0.35282 0.72522 0.0
H1024 H 0.07439 0.87922 0.57392 0.0
H1025 H 0.09344 0.0245 0.59459 0.0
H1026 H 0.10328 0.92119 0.64162 0.0
H1027 H 0.06559 0.98254 0.52655 0.0
H1028 H 0.09839 0.98713 0.61174 0.0
H1029 H 0.07225 0.91692 0.5559 0.0
C1030 C 0.08042 0.89636 0.58497 0.0
C1031 C 0.08902 0.89697 0.60935 0.0
C1032 C 0.09129 0.98609 0.59302 0.0
C1033 C 0.08651 0.94037 0.58883 0.0
C1034 C 0.08848 1.00749 0.58317 0.0
C1035 C 0.07905 1.0068 0.55902 0.0
C1036 C 0.08459 0.9637 0.57869 0.0
C1037 C 0.07292 0.98408 0.54523 0.0
C1038 C 0.07916 0.91792 0.57468 0.0
C1039 C 0.09653 0.91979 0.62276 0.0
N1040 N 0.07572 0.96353 0.55525 0.0
N1041 N 0.09503 0.94049 0.61238 0.0
H1042 H 0.48432 0.79279 0.85352 0.0
H1043 H 0.38077 0.85086 0.84905 0.0
H1044 H 0.47193 0.83496 0.91441 0.0
H1045 H 0.37775 0.78378 0.80602 0.0
H1046 H 0.41623 0.84813 0.87029 0.0
H1047 H 0.44726 0.79167 0.83306 0.0
C1048 C 0.47379 0.80172 0.86261 0.0
C1049 C 0.48123 0.81404 0.88569 0.0
C1050 C 0.40781 0.83394 0.85627 0.0
C1051 C 0.43906 0.81311 0.86228 0.0
C1052 C 0.38761 0.83555 0.84399 0.0
C1053 C 0.37628 0.81756 0.82562 0.0
C1054 C 0.41714 0.81446 0.8499 0.0
C1055 C 0.3859 0.79801 0.82009 0.0
C1056 C 0.45265 0.80098 0.85096 0.0
C1057 C 0.46688 0.82524 0.89665 0.0
N1058 N 0.40593 0.7971 0.83201 0.0
N1059 N 0.44661 0.82474 0.88476 0.0
H1060 H 0.61124 0.27306 0.10717 0.0
H1061 H 0.52524 0.15247 0.04891 0.0
H1062 H 0.54302 0.26361 0.11035 0.0
H1063 H 0.59317 0.15372 0.07088 0.0
H1064 H 0.53124 0.19439 0.06748 0.0
H1065 H 0.60485 0.23085 0.08942 0.0
C1066 C 0.59488 0.26219 0.10394 0.0
C1067 C 0.57764 0.27195 0.11023 0.0
C1068 C 0.5448 0.18544 0.06833 0.0
C1069 C 0.57019 0.22354 0.08984 0.0
C1070 C 0.54139 0.16151 0.05774 0.0
C1071 C 0.55871 0.14953 0.05832 0.0
C1072 C 0.56579 0.1977 0.07923 0.0
C1073 C 0.57931 0.16218 0.07003 0.0
C1074 C 0.59127 0.23803 0.09396 0.0
C1075 C 0.5568 0.25688 0.10578 0.0
N1076 N 0.58231 0.18559 0.0798 0.0
N1077 N 0.55365 0.23352 0.09577 0.0
H1078 H 0.08681 0.32786 0.35777 0.0
H1079 H 0.20018 0.28543 0.36674 0.0
H1080 H 0.1205 0.30853 0.42287 0.0
H1081 H 0.17222 0.31568 0.30496 0.0
H1082 H 0.17045 0.2926 0.38702 0.0
H1083 H 0.11734 0.32275 0.33768 0.0
C1084 C 0.10067 0.32266 0.36787 0.0
C1085 C 0.10108 0.31862 0.39205 0.0
C1086 C 0.17081 0.29773 0.36905 0.0
C1087 C 0.13603 0.31251 0.36911 0.0
C1088 C 0.18773 0.29348 0.35737 0.0
C1089 C 0.18871 0.29986 0.33403 0.0
C1090 C 0.15455 0.30829 0.35731 0.0
C1091 C 0.17225 0.31063 0.323 0.0
C1092 C 0.1181 0.31974 0.35639 0.0
C1093 C 0.11947 0.31188 0.40423 0.0
N1094 N 0.15583 0.31439 0.33467 0.0
N1095 N 0.13611 0.30893 0.39262 0.0
H1096 H 0.93645 0.05035 0.13151 0.0
H1097 H 0.04584 0.13668 0.10941 0.0
H1098 H 0.95567 0.12578 0.15978 0.0
H1099 H 0.03166 0.05857 0.09787 0.0
H1100 H 1.01066 0.13477 0.12288 0.0
H1101 H 0.96838 0.05514 0.11192 0.0
C1102 C 0.94722 0.06801 0.13329 0.0
C1103 C 0.94363 0.0876 0.14755 0.0
C1104 C 0.01531 0.1181 0.11735 0.0
C1105 C 0.98037 0.09311 0.12567 0.0
C1106 C 0.0354 0.11919 0.1099 0.0
C1107 C 0.0415 0.09775 0.1025 0.0
C1108 C 1.00143 0.09542 0.11724 0.0
C1109 C 0.02742 0.07553 0.10325 0.0
C1110 C 0.96553 0.07071 0.12227 0.0
C1111 C 0.95801 0.11014 0.14913 0.0
N1112 N 1.00802 0.07494 0.11037 0.0
N1113 N 0.97594 0.11223 0.13856 0.0
H1114 H 0.2812 0.72507 0.44885 0.0
H1115 H 0.33081 0.83888 0.38295 0.0
H1116 H 0.32047 0.79151 0.48723 0.0
H1117 H 0.2884 0.77342 0.34598 0.0
H1118 H 0.32694 0.82248 0.42121 0.0
H1119 H 0.28339 0.74298 0.41117 0.0
C1120 C 0.29024 0.74349 0.44938 0.0
C1121 C 0.30068 0.75677 0.47131 0.0
C1122 C 0.31842 0.81175 0.40473 0.0
C1123 C 0.30337 0.7775 0.42794 0.0
C1124 C 0.32059 0.82113 0.3828 0.0
C1125 C 0.30994 0.80758 0.36101 0.0
C1126 C 0.30554 0.78857 0.40502 0.0
C1127 C 0.29696 0.78463 0.36217 0.0
C1128 C 0.29149 0.75374 0.42779 0.0
C1129 C 0.31215 0.7806 0.47078 0.0
N1130 N 0.29521 0.77589 0.38369 0.0
N1131 N 0.31326 0.79015 0.44948 0.0
H1132 H 0.5993 0.97254 0.6867 0.0
H1133 H 0.59983 0.08421 0.60745 0.0
H1134 H 0.64101 0.04328 0.70699 0.0
H1135 H 0.55101 0.01793 0.59257 0.0
H1136 H 0.618 0.06747 0.6414 0.0
H1137 H 0.58418 0.98685 0.64935 0.0
C1138 C 0.60539 0.99098 0.68319 0.0
C1139 C 0.62129 1.00681 0.69998 0.0
C1140 C 0.60334 0.05655 0.63068 0.0
C1141 C 0.60417 0.02326 0.65752 0.0
C1142 C 0.593 0.0661 0.61131 0.0
C1143 C 0.57383 0.05249 0.59741 0.0
C1144 C 0.59443 0.03321 0.6361 0.0
C1145 C 0.56568 0.02908 0.60304 0.0
C1146 C 0.59674 0.99916 0.66195 0.0
C1147 C 0.62864 0.03053 0.6946 0.0
N1148 N 0.57598 0.02019 0.62204 0.0
N1149 N 0.61998 0.03804 0.67389 0.0
H1150 H 0.35966 0.38597 0.99042 0.0
H1151 H 0.28869 0.36682 0.85935 0.0
H1152 H 0.30424 0.41834 0.97321 0.0
H1153 H 0.35633 0.36313 0.87165 0.0
H1154 H 0.29163 0.38009 0.90206 0.0
H1155 H 0.35605 0.3714 0.94786 0.0
C1156 C 0.34663 0.38982 0.97772 0.0
C1157 C 0.33225 0.40341 0.98532 0.0
C1158 C 0.30582 0.37642 0.89535 0.0
C1159 C 0.32798 0.38674 0.93675 0.0
C1160 C 0.30416 0.36881 0.87101 0.0
C1161 C 0.32233 0.36399 0.86186 0.0
C1162 C 0.32567 0.37877 0.91078 0.0
C1163 C 0.34195 0.36685 0.87785 0.0
C1164 C 0.34467 0.38164 0.95345 0.0
C1165 C 0.31572 0.40799 0.96809 0.0
N1166 N 0.34307 0.3739 0.90154 0.0
N1167 N 0.31398 0.3996 0.94463 0.0
H1168 H 0.96312 0.05451 0.24371 0.0
H1169 H 1.00274 0.10489 0.38194 0.0
H1170 H 0.93738 0.11003 0.27877 0.0
H1171 H 1.01288 0.03727 0.34996 0.0
H1172 H 0.98362 0.11144 0.34304 0.0
H1173 H 0.98682 0.0529 0.28123 0.0
C1174 C 0.96259 0.06654 0.25927 0.0
C1175 C 0.94813 0.08229 0.2582 0.0
C1176 C 0.99019 0.09527 0.34459 0.0
C1177 C 0.97519 0.08047 0.30126 0.0
C1178 C 1.00102 0.09143 0.3668 0.0
C1179 C 1.00937 0.07039 0.36938 0.0
C1180 C 0.98784 0.07806 0.32475 0.0
C1181 C 1.00703 0.05391 0.34891 0.0
C1182 C 0.97609 0.06555 0.28071 0.0
C1183 C 0.94822 0.09753 0.27889 0.0
N1184 N 0.99644 0.05807 0.32754 0.0
N1185 N 0.96147 0.09616 0.29967 0.0
H1186 H 0.32078 0.79301 0.59724 0.0
H1187 H 0.30452 0.78079 0.73339 0.0
H1188 H 0.30063 0.72333 0.62233 0.0
H1189 H 0.34418 0.84283 0.71054 0.0
H1190 H 0.3003 0.75939 0.69287 0.0
H1191 H 0.32631 0.81205 0.63846 0.0
C1192 C 0.3175 0.78171 0.61142 0.0
C1193 C 0.31028 0.75653 0.60628 0.0
C1194 C 0.3101 0.7776 0.69685 0.0
C1195 C 0.31644 0.77828 0.6537 0.0
C1196 C 0.31265 0.78967 0.72 0.0
C1197 C 0.32499 0.81343 0.72543 0.0
C1198 C 0.3196 0.78964 0.67895 0.0
C1199 C 0.33461 0.82449 0.7072 0.0
C1200 C 0.32073 0.79258 0.635 0.0
C1201 C 0.3063 0.7428 0.62547 0.0
N1202 N 0.3316 0.81262 0.68484 0.0
N1203 N 0.30931 0.75384 0.6483 0.0
H1204 H 0.61041 0.96316 0.83597 0.0
H1205 H 0.52194 0.03616 0.85446 0.0
H1206 H 0.5699 0.98428 0.77677 0.0
H1207 H 0.55051 0.99789 0.90949 0.0
H1208 H 0.534 0.01123 0.8243 0.0
H1209 H 0.58402 0.969 0.86166 0.0
C1210 C 0.59569 0.96852 0.82828 0.0
C1211 C 0.59248 0.97372 0.8044 0.0
C1212 C 0.53713 1.00782 0.8429 0.0
C1213 C 0.56247 0.98103 0.83375 0.0
C1214 C 0.53028 0.0221 0.86011 0.0
C1215 C 0.53562 0.01942 0.88452 0.0
C1216 C 0.54976 0.99113 0.85027 0.0
C1217 C 0.54614 1.00068 0.89087 0.0
C1218 C 0.58059 0.97183 0.84292 0.0
C1219 C 0.57307 0.98034 0.7952 0.0
N1220 N 0.55332 0.98764 0.87391 0.0
N1221 N 0.55901 0.98441 0.81006 0.0
H1222 H 0.3243 0.36194 0.09834 0.0
H1223 H 0.32717 0.37783 0.2405 0.0
H1224 H 0.35049 0.42949 0.14297 0.0
H1225 H 0.30938 0.30816 0.19832 0.0
H1226 H 0.33555 0.39693 0.20481 0.0
H1227 H 0.31854 0.34176 0.13437 0.0
C1228 C 0.32897 0.3725 0.11572 0.0
C1229 C 0.33789 0.39747 0.11761 0.0
C1230 C 0.32991 0.37745 0.20331 0.0
C1231 C 0.33116 0.37451 0.15896 0.0
C1232 C 0.32514 0.36651 0.22373 0.0
C1233 C 0.3176 0.34134 0.22242 0.0
C1234 C 0.32696 0.36318 0.18123 0.0
C1235 C 0.31515 0.32763 0.20014 0.0
C1236 C 0.32566 0.36097 0.13629 0.0
C1237 C 0.34358 0.41023 0.14062 0.0
N1238 N 0.31971 0.33873 0.18041 0.0
N1239 N 0.34002 0.39866 0.16032 0.0
H1240 H 0.30235 1.00877 0.07914 0.0
H1241 H 0.18551 0.03283 0.02946 0.0
H1242 H 0.25538 0.95857 0.02677 0.0
H1243 H 0.22307 0.06673 0.09757 0.0
H1244 H 0.21243 1.00822 0.02562 0.0
H1245 H 0.2751 0.03307 0.08346 0.0
C1246 C 0.28629 1.00286 0.06854 0.0
C1247 C 0.28111 0.98159 0.05258 0.0
C1248 C 0.21473 0.02102 0.04142 0.0
C1249 C 0.24991 0.00947 0.05728 0.0
C1250 C 0.19928 0.03505 0.04374 0.0
C1251 C 0.20179 0.05193 0.064 0.0
C1252 C 0.23309 0.02401 0.05927 0.0
C1253 C 0.22045 0.0543 0.08147 0.0
C1254 C 0.27074 0.01671 0.07107 0.0
C1255 C 0.26004 0.9748 0.03933 0.0
N1256 N 0.23536 0.04058 0.07867 0.0
N1257 N 0.24525 0.98876 0.04186 0.0
H1258 H 0.73839 0.64618 1.0074 0.0
H1259 H 0.61652 0.64005 0.03052 0.0
H1260 H 0.70974 0.70887 0.01287 0.0
H1261 H 0.64029 0.57666 0.00995 0.0
H1262 H 0.65169 0.66545 0.02778 0.0
H1263 H 0.70367 0.62039 0.01141 0.0
C1264 C 0.72479 0.65452 1.0094 0.0
C1265 C 0.72698 0.67974 0.00973 0.0
C1266 C 0.64926 0.64599 0.02391 0.0
C1267 C 0.68719 0.65031 0.01457 0.0
C1268 C 0.6292 0.63145 0.02558 0.0
C1269 C 0.62543 0.60617 0.02038 0.0
C1270 C 0.66582 0.63523 0.01716 0.0
C1271 C 0.64247 0.59606 0.01406 0.0
C1272 C 0.70496 0.63978 0.01169 0.0
C1273 C 0.70878 0.68953 0.01242 0.0
N1274 N 0.66191 0.6106 0.01262 0.0
N1275 N 0.68972 0.67483 0.01482 0.0
H1276 H 0.76576 0.58206 0.38252 0.0
H1277 H 0.77601 0.46575 0.30092 0.0
H1278 H 0.72834 0.55798 0.31194 0.0
H1279 H 0.82354 0.49701 0.36335 0.0
H1280 H 0.75821 0.49963 0.30549 0.0
H1281 H 0.78751 0.55159 0.37651 0.0
C1282 C 0.76228 0.57052 0.36571 0.0
C1283 C 0.74515 0.57232 0.34777 0.0
C1284 C 0.77257 0.49922 0.3182 0.0
C1285 C 0.76969 0.53758 0.34089 0.0
C1286 C 0.78261 0.47977 0.31569 0.0
C1287 C 0.80106 0.47854 0.33197 0.0
C1288 C 0.78092 0.51751 0.33725 0.0
C1289 C 0.80928 0.49739 0.35049 0.0
C1290 C 0.77467 0.55319 0.36229 0.0
C1291 C 0.7413 0.55706 0.3263 0.0
N1292 N 0.79901 0.5161 0.35279 0.0
N1293 N 0.75336 0.5402 0.32355 0.0
H1294 H 0.89337 0.50653 0.57754 0.0
H1295 H 0.99564 0.51776 0.51048 0.0
H1296 H 0.90102 0.45103 0.52514 0.0
H1297 H 0.99876 0.55855 0.57876 0.0
H1298 H 0.95925 0.49604 0.5133 0.0
H1299 H 0.93037 0.52854 0.57621 0.0
C1300 C 0.90284 0.49897 0.56579 0.0
C1301 C 0.89412 0.47692 0.55142 0.0
C1302 C 0.96788 0.50971 0.52769 0.0
C1303 C 0.93626 0.50208 0.54964 0.0
C1304 C 0.98866 0.52226 0.52606 0.0
C1305 C 1.00033 0.54009 0.54441 0.0
C1306 C 0.95844 0.51516 0.54768 0.0
C1307 C 0.9904 0.54492 0.56422 0.0
C1308 C 0.92395 0.5115 0.5651 0.0
C1309 C 0.9071 0.46793 0.53656 0.0
N1310 N 0.96996 0.53262 0.56527 0.0
N1311 N 0.92743 0.48061 0.53593 0.0
H1312 H 0.4652 0.24812 0.29666 0.0
H1313 H 0.33907 0.24717 0.29084 0.0
H1314 H 0.41842 0.18638 0.30999 0.0
H1315 H 0.38436 0.30444 0.26757 0.0
H1316 H 0.36757 0.22395 0.2968 0.0
H1317 H 0.43568 0.26926 0.2862 0.0
C1318 C 0.44874 0.2391 0.29755 0.0
C1319 C 0.44423 0.21554 0.30427 0.0
C1320 C 0.37118 0.24151 0.29016 0.0
C1321 C 0.4104 0.23939 0.29213 0.0
C1322 C 0.35486 0.25469 0.28658 0.0
C1323 C 0.35938 0.2779 0.27897 0.0
C1324 C 0.39216 0.2517 0.28622 0.0
C1325 C 0.38019 0.28675 0.27378 0.0
C1326 C 0.43188 0.25107 0.29141 0.0
C1327 C 0.4226 0.20458 0.30495 0.0
N1328 N 0.39586 0.27376 0.27776 0.0
N1329 N 0.4065 0.21661 0.29899 0.0
H1330 H 0.36483 0.22616 0.5284 0.0
H1331 H 0.40486 0.10186 0.50776 0.0
H1332 H 0.32182 0.15702 0.5035 0.0
H1333 H 0.4485 0.17024 0.5343 0.0
H1334 H 0.37451 0.12235 0.50425 0.0
H1335 H 0.39587 0.20666 0.52881 0.0
C1336 C 0.36193 0.20689 0.52292 0.0
C1337 C 0.34071 0.19316 0.51597 0.0
C1338 C 0.39071 0.13294 0.51078 0.0
C1339 C 0.37614 0.17073 0.51643 0.0
C1340 C 0.40806 0.12121 0.51291 0.0
C1341 C 0.42927 0.1343 0.52159 0.0
C1342 C 0.39447 0.158 0.51739 0.0
C1343 C 0.43246 0.15944 0.52744 0.0
C1344 C 0.37965 0.19577 0.52318 0.0
C1345 C 0.3379 0.16828 0.50904 0.0
N1346 N 0.41523 0.17046 0.52538 0.0
N1347 N 0.35539 0.15787 0.50951 0.0
H1348 H 0.75742 0.69251 0.37516 0.0
H1349 H 0.77788 0.76971 0.26475 0.0
H1350 H 0.7197 0.67514 0.30399 0.0
H1351 H 0.81995 0.78488 0.33348 0.0
H1352 H 0.75554 0.73585 0.27973 0.0
H1353 H 0.77956 0.72772 0.36132 0.0
C1354 C 0.75372 0.69621 0.35671 0.0
C1355 C 0.73677 0.6809 0.34067 0.0
C1356 C 0.76968 0.7465 0.29157 0.0
C1357 C 0.76195 0.72085 0.32474 0.0
C1358 C 0.78243 0.76581 0.283 0.0
C1359 C 0.80073 0.78003 0.29793 0.0
C1360 C 0.77526 0.74135 0.31527 0.0
C1361 C 0.80597 0.77423 0.3214 0.0
C1362 C 0.76638 0.71621 0.3488 0.0
C1363 C 0.73266 0.68642 0.31694 0.0
N1364 N 0.79325 0.75532 0.32941 0.0
N1365 N 0.74518 0.7059 0.30971 0.0
H1366 H 0.96825 0.595 0.79022 0.0
H1367 H 0.88373 0.50233 0.84787 0.0
H1368 H 0.9424 0.61351 0.85358 0.0
H1369 H 0.92171 0.47851 0.79758 0.0
H1370 H 0.9024 0.54411 0.8467 0.0
H1371 H 0.94893 0.55277 0.7895 0.0
C1372 C 0.95853 0.59016 0.80394 0.0
C1373 C 0.9569 0.60768 0.822 0.0
C1374 C 0.90666 0.52977 0.83589 0.0
C1375 C 0.93479 0.55981 0.82118 0.0
C1376 C 0.8959 0.50596 0.83642 0.0
C1377 C 0.9012 0.48701 0.82279 0.0
C1378 C 0.92277 0.53472 0.8215 0.0
C1379 C 0.91731 0.49265 0.80851 0.0
C1380 C 0.94757 0.56613 0.80355 0.0
C1381 C 0.94413 0.60055 0.83936 0.0
N1382 N 0.92753 0.51607 0.80819 0.0
N1383 N 0.93352 0.57719 0.83847 0.0
H1384 H 0.13006 0.93337 0.14363 0.0
H1385 H 0.05035 0.99075 0.05462 0.0
H1386 H 0.07778 0.88946 0.09201 0.0
H1387 H 0.11489 0.02974 0.08614 0.0
H1388 H 0.05916 0.95374 0.06949 0.0
H1389 H 0.12409 0.96932 0.12419 0.0
C1390 C 0.11747 0.93127 0.12806 0.0
C1391 C 0.1044 0.9084 0.11943 0.0
C1392 C 0.07144 0.97037 0.07296 0.0
C1393 C 0.09721 0.94948 0.09737 0.0
C1394 C 0.06641 0.99153 0.06453 0.0
C1395 C 0.08185 0.01347 0.06919 0.0
C1396 C 0.09195 0.97118 0.08652 0.0
C1397 C 0.10243 0.01329 0.08208 0.0
C1398 C 0.11408 0.95178 0.11697 0.0
C1399 C 0.08829 0.90673 0.09922 0.0
N1400 N 0.10679 0.99258 0.09051 0.0
N1401 N 0.08497 0.92702 0.08906 0.0
H1402 H 0.98392 0.32055 0.85611 0.0
H1403 H 0.85557 0.2748 0.84092 0.0
H1404 H 0.95219 0.29074 0.91263 0.0
H1405 H 0.88524 0.32869 0.79922 0.0
H1406 H 0.89124 0.27604 0.86455 0.0
H1407 H 0.94831 0.31925 0.83215 0.0
C1408 C 0.96945 0.3136 0.86343 0.0
C1409 C 0.97102 0.30572 0.88641 0.0
C1410 C 0.88996 0.28759 0.85023 0.0
C1411 C 0.93024 0.30406 0.85901 0.0
C1412 C 0.86964 0.28682 0.83666 0.0
C1413 C 0.86748 0.30162 0.81803 0.0
C1414 C 0.90838 0.30301 0.84494 0.0
C1415 C 0.88622 0.31698 0.81342 0.0
C1416 C 0.94916 0.313 0.84979 0.0
C1417 C 0.95174 0.29702 0.89503 0.0
N1418 N 0.90593 0.31717 0.82669 0.0
N1419 N 0.93216 0.2963 0.88127 0.0
H1420 H 0.62905 0.28641 0.6132 0.0
H1421 H 0.54224 0.16264 0.5662 0.0
H1422 H 0.56093 0.277 0.61709 0.0
H1423 H 0.61147 0.16746 0.57884 0.0
H1424 H 0.54848 0.2057 0.58061 0.0
H1425 H 0.62256 0.24407 0.59585 0.0
C1426 C 0.61271 0.27551 0.61016 0.0
C1427 C 0.59552 0.2852 0.61665 0.0
C1428 C 0.56229 0.1973 0.58024 0.0
C1429 C 0.58798 0.2368 0.59693 0.0
C1430 C 0.55874 0.1727 0.57202 0.0
C1431 C 0.57634 0.16131 0.57143 0.0
C1432 C 0.5836 0.21072 0.5877 0.0
C1433 C 0.59738 0.17537 0.57914 0.0
C1434 C 0.60903 0.25133 0.6004 0.0
C1435 C 0.57467 0.27024 0.61242 0.0
N1436 N 0.60041 0.1993 0.58688 0.0
N1437 N 0.57149 0.24681 0.60287 0.0
H1438 H 0.568 0.78249 0.36636 0.0
H1439 H 0.68264 0.85495 0.34173 0.0
H1440 H 0.59702 0.85611 0.39609 0.0
H1441 H 0.64997 0.785 0.30474 0.0
H1442 H 0.65193 0.85507 0.36286 0.0
H1443 H 0.59809 0.78265 0.34405 0.0
C1444 C 0.58063 0.79872 0.36806 0.0
C1445 C 0.58001 0.8193 0.38309 0.0
C1446 C 0.65146 0.8397 0.35009 0.0
C1447 C 0.61459 0.81956 0.35787 0.0
C1448 C 0.66907 0.83955 0.33815 0.0
C1449 C 0.66891 0.81995 0.3214 0.0
C1450 C 0.63354 0.82005 0.34538 0.0
C1451 C 0.65071 0.80064 0.31727 0.0
C1452 C 0.59781 0.79881 0.35537 0.0
C1453 C 0.59682 0.83985 0.38468 0.0
N1454 N 0.63381 0.80115 0.3292 0.0
N1455 N 0.61345 0.83941 0.37234 0.0
H1456 H 0.05654 0.26964 0.49283 0.0
H1457 H 0.03499 0.1245 0.46687 0.0
H1458 H 0.03086 0.23099 0.42282 0.0
H1459 H 0.06473 0.16461 0.53533 0.0
H1460 H 0.03105 0.16279 0.45082 0.0
H1461 H 0.05739 0.23093 0.50914 0.0
C1462 C 0.05097 0.253 0.4809 0.0
C1463 C 0.04367 0.25361 0.45641 0.0
C1464 C 0.03835 0.16317 0.46938 0.0
C1465 C 0.04464 0.20904 0.47497 0.0
C1466 C 0.04056 0.14128 0.47858 0.0
C1467 C 0.05027 0.14125 0.50251 0.0
C1468 C 0.04585 0.18521 0.48421 0.0
C1469 C 0.05721 0.16365 0.51678 0.0
C1470 C 0.05149 0.23086 0.49022 0.0
C1471 C 0.03665 0.23141 0.44182 0.0
N1472 N 0.05491 0.18462 0.50742 0.0
N1473 N 0.03736 0.21008 0.45128 0.0
H1474 H 0.63688 0.30642 0.20716 0.0
H1475 H 0.76064 0.37173 0.25629 0.0
H1476 H 0.66718 0.37323 0.18288 0.0
H1477 H 0.73587 0.29527 0.25785 0.0
H1478 H 0.72539 0.37485 0.23397 0.0
H1479 H 0.67188 0.30433 0.23057 0.0
C1480 C 0.65087 0.32073 0.20685 0.0
C1481 C 0.64909 0.34001 0.19298 0.0
C1482 C 0.72771 0.35741 0.23922 0.0
C1483 C 0.68924 0.3378 0.21991 0.0
C1484 C 0.7478 0.35562 0.25204 0.0
C1485 C 0.75131 0.33319 0.25894 0.0
C1486 C 0.71084 0.33671 0.23358 0.0
C1487 C 0.73402 0.31293 0.25284 0.0
C1488 C 0.67087 0.31947 0.22015 0.0
C1489 C 0.66782 0.358 0.19324 0.0
N1490 N 0.71457 0.3152 0.24065 0.0
N1491 N 0.68708 0.35651 0.20655 0.0
H1492 H 0.57523 0.88644 0.98736 0.0
H1493 H 0.5443 0.01632 0.9834 0.0
H1494 H 0.5419 0.90782 0.92318 0.0
H1495 H 0.59754 1.00356 0.03365 0.0
H1496 H 0.54041 0.97563 0.96268 0.0
H1497 H 0.5807 0.92802 1.00654 0.0
C1498 C 0.56907 0.89987 0.97729 0.0
C1499 C 0.55813 0.89359 0.95359 0.0
C1500 C 0.55301 0.98178 0.97818 0.0
C1501 C 0.56408 0.94124 0.97558 0.0
C1502 C 0.55525 1.00504 0.98998 0.0
C1503 C 0.57131 0.01346 0.01024 0.0
C1504 C 0.56664 0.96655 0.98699 0.0
C1505 C 0.58496 0.9979 0.01808 0.0
C1506 C 0.57225 0.92363 0.98823 0.0
C1507 C 0.55051 0.91183 0.94144 0.0
N1508 N 0.58219 0.97519 1.00662 0.0
N1509 N 0.55346 0.93471 0.9526 0.0
H1510 H 0.04674 0.83222 0.71175 0.0
H1511 H 0.92993 0.86726 0.69385 0.0
H1512 H 1.01207 0.84252 0.64325 0.0
H1513 H 0.96152 0.85095 0.76159 0.0
H1514 H 0.96011 0.85866 0.67526 0.0
H1515 H 0.01588 0.83895 0.73047 0.0
C1516 C 0.03259 0.83577 0.70062 0.0
C1517 C 0.03201 0.83681 0.67588 0.0
C1518 C 0.96047 0.85692 0.69418 0.0
C1519 C 0.99665 0.84473 0.69722 0.0
C1520 C 0.94327 0.86201 0.70488 0.0
C1521 C 0.94316 0.85998 0.72941 0.0
C1522 C 0.97786 0.8498 0.70805 0.0
C1523 C 0.96077 0.8526 0.74261 0.0
C1524 C 0.01498 0.83964 0.71133 0.0
C1525 C 1.01325 0.84152 0.66237 0.0
N1526 N 0.97741 0.84788 0.7318 0.0
N1527 N 0.9964 0.84539 0.67321 0.0
H1528 H 0.18327 0.12912 0.94534 0.0
H1529 H 0.08649 0.0346 0.98312 0.0
H1530 H 0.16051 0.0562 0.91044 0.0
H1531 H 0.10608 0.11051 1.00941 0.0
H1532 H 0.11715 0.03941 0.96086 0.0
H1533 H 0.15954 0.11945 0.97472 0.0
C1534 C 0.17345 0.11097 0.94407 0.0
C1535 C 0.17351 0.09356 0.92528 0.0
C1536 C 0.1148 0.05488 0.97177 0.0
C1537 C 0.14601 0.08244 0.95846 0.0
C1538 C 0.09731 0.05215 0.9843 0.0
C1539 C 0.09387 0.07218 0.99806 0.0
C1540 C 0.12873 0.07775 0.9732 0.0
C1541 C 0.1083 0.09453 0.9992 0.0
C1542 C 0.15985 0.10544 0.96078 0.0
C1543 C 0.16071 0.07021 0.92458 0.0
N1544 N 0.12502 0.09671 0.9869 0.0
N1545 N 0.14715 0.0654 0.94075 0.0
H1546 H 0.8574 0.43311 0.63436 0.0
H1547 H 0.80178 0.32503 0.7034 0.0
H1548 H 0.80598 0.37397 0.5996 0.0
H1549 H 0.85402 0.38372 0.7375 0.0
H1550 H 0.80383 0.34179 0.66508 0.0
H1551 H 0.85706 0.41457 0.67194 0.0
C1552 C 0.84606 0.41616 0.6346 0.0
C1553 C 0.83166 0.40511 0.61375 0.0
C1554 C 0.81492 0.35095 0.68092 0.0
C1555 C 0.83115 0.38372 0.65692 0.0
C1556 C 0.8138 0.34135 0.70286 0.0
C1557 C 0.82774 0.35294 0.72386 0.0
C1558 C 0.83007 0.37239 0.67982 0.0
C1559 C 0.84293 0.3741 0.72189 0.0
C1560 C 0.84588 0.40557 0.65611 0.0
C1561 C 0.81736 0.38314 0.61521 0.0
N1562 N 0.84362 0.38314 0.70035 0.0
N1563 N 0.81742 0.37322 0.6364 0.0
H1564 H 0.53779 0.19579 0.39126 0.0
H1565 H 0.53021 0.08975 0.47691 0.0
H1566 H 0.48263 0.13621 0.38474 0.0
H1567 H 0.58249 0.15287 0.48857 0.0
H1568 H 0.51127 0.10813 0.44481 0.0
H1569 H 0.55303 0.18258 0.42907 0.0
C1570 C 0.52871 0.18021 0.39801 0.0
C1571 C 0.50906 0.16692 0.38476 0.0
C1572 C 0.52682 0.11807 0.45448 0.0
C1573 C 0.52647 0.15148 0.42766 0.0
C1574 C 0.53763 0.10754 0.47277 0.0
C1575 C 0.55796 0.11976 0.48525 0.0
C1576 C 0.53655 0.14088 0.44848 0.0
C1577 C 0.56689 0.14277 0.47921 0.0
C1578 C 0.53744 0.1726 0.41952 0.0
C1579 C 0.49795 0.14686 0.3943 0.0
N1580 N 0.5562 0.15252 0.46111 0.0
N1581 N 0.50693 0.13959 0.415 0.0
H1582 H 0.82563 0.74903 0.08957 0.0
H1583 H 0.76833 0.80651 0.18766 0.0
H1584 H 0.76724 0.77581 0.07069 0.0
H1585 H 0.83744 0.81071 0.19912 0.0
H1586 H 0.76624 0.79079 0.14585 0.0
H1587 H 0.82904 0.76731 0.13091 0.0
C1588 C 0.81357 0.75883 0.09411 0.0
C1589 C 0.79612 0.76093 0.07669 0.0
C1590 C 0.78186 0.79522 0.1575 0.0
C1591 C 0.79976 0.78151 0.12396 0.0
C1592 C 0.78307 0.80406 0.18141 0.0
C1593 C 0.8031 0.80989 0.19696 0.0
C1594 C 0.80073 0.7917 0.1491 0.0
C1595 C 0.82168 0.80651 0.18776 0.0
C1596 C 0.81557 0.7693 0.11767 0.0
C1597 C 0.78098 0.77384 0.08355 0.0
N1598 N 0.82002 0.79742 0.16448 0.0
N1599 N 0.78302 0.78343 0.10671 0.0
H1600 H 0.1332 0.12468 0.82184 0.0
H1601 H 0.0917 0.04777 0.69415 0.0
H1602 H 0.15342 0.05914 0.80023 0.0
H1603 H 0.08624 0.12186 0.71037 0.0
H1604 H 0.10506 0.04633 0.73662 0.0
H1605 H 0.10656 0.11801 0.78495 0.0
C1606 C 0.13174 0.10865 0.80954 0.0
C1607 C 0.1458 0.09269 0.81379 0.0
C1608 C 0.10055 0.06273 0.73088 0.0
C1609 C 0.11553 0.08504 0.77164 0.0
C1610 C 0.09303 0.06362 0.70665 0.0
C1611 C 0.08828 0.08514 0.69855 0.0
C1612 C 0.10329 0.08348 0.74711 0.0
C1613 C 0.0897 0.10487 0.71568 0.0
C1614 C 0.11658 0.10488 0.78849 0.0
C1615 C 0.14311 0.07209 0.79741 0.0
N1616 N 0.09737 0.10367 0.73909 0.0
N1617 N 0.12847 0.06902 0.77685 0.0
H1618 H 0.82542 0.36826 0.49364 0.0
H1619 H 0.80084 0.37175 0.35073 0.0
H1620 H 0.81079 0.43121 0.46173 0.0
H1621 H 0.81932 0.3121 0.38576 0.0
H1622 H 0.80329 0.39398 0.39048 0.0
H1623 H 0.8218 0.34729 0.45365 0.0
C1624 C 0.82135 0.37766 0.4782 0.0
C1625 C 0.81841 0.40154 0.48111 0.0
C1626 C 0.80677 0.37601 0.38939 0.0
C1627 C 0.81431 0.37758 0.43491 0.0
C1628 C 0.80538 0.36335 0.36672 0.0
C1629 C 0.80981 0.34001 0.3649 0.0
C1630 C 0.81258 0.36516 0.4103 0.0
C1631 C 0.81568 0.33 0.38622 0.0
C1632 C 0.81932 0.36568 0.45528 0.0
C1633 C 0.81318 0.41278 0.46033 0.0
N1634 N 0.81684 0.34256 0.40787 0.0
N1635 N 0.81133 0.40074 0.43812 0.0
H1636 H 0.52054 0.20245 0.24213 0.0
H1637 H 0.60943 0.13203 0.21234 0.0
H1638 H 0.56388 0.1777 0.29609 0.0
H1639 H 0.57087 0.16439 0.15998 0.0
H1640 H 0.59877 0.15613 0.24427 0.0
H1641 H 0.54432 0.19684 0.21321 0.0
C1642 C 0.53533 0.19634 0.24802 0.0
C1643 C 0.54003 0.19001 0.27135 0.0
C1644 C 0.59304 0.15838 0.22578 0.0
C1645 C 0.56708 0.18302 0.23828 0.0
C1646 C 0.59907 0.14456 0.20756 0.0
C1647 C 0.59068 0.14582 0.18348 0.0
C1648 C 0.57825 0.17328 0.21985 0.0
C1649 C 0.57768 0.16272 0.17828 0.0
C1650 C 0.54892 0.1931 0.23149 0.0
C1651 C 0.55952 0.18246 0.27814 0.0
N1652 N 0.57151 0.1754 0.19632 0.0
N1653 N 0.5721 0.17863 0.26152 0.0
H1654 H 0.77034 0.73142 0.92053 0.0
H1655 H 0.7851 0.79641 0.82223 0.0
H1656 H 0.81338 0.79351 0.96272 0.0
H1657 H 0.84422 0.8356 0.8666 0.0
H1658 H 0.77432 0.77687 0.85677 0.0
H1659 H 0.77672 0.75014 0.88414 0.0
C1660 C 0.7809 0.74919 0.92215 0.0
C1661 C 0.79123 0.76095 0.94476 0.0
C1662 C 0.78986 0.78934 0.85901 0.0
C1663 C 0.79848 0.78287 0.90296 0.0
C1664 C 0.79597 0.80055 0.83918 0.0
C1665 C 0.81578 0.81717 0.84135 0.0
C1666 C 0.80373 0.79477 0.88132 0.0
C1667 C 0.82889 0.82267 0.86406 0.0
C1668 C 0.78444 0.76002 0.90129 0.0
C1669 C 0.80495 0.78384 0.94569 0.0
N1670 N 0.82266 0.81149 0.88313 0.0
N1671 N 0.8083 0.79394 0.92512 0.0
H1672 H 0.83088 0.14718 0.04218 0.0
H1673 H 0.95511 0.14964 0.03119 0.0
H1674 H 0.87667 0.21219 0.0346 0.0
H1675 H 0.90846 0.08455 0.03667 0.0
H1676 H 0.92687 0.17298 0.03289 0.0
H1677 H 0.85935 0.12414 0.04092 0.0
C1678 C 0.84695 0.15662 0.04027 0.0
C1679 C 0.8514 0.18165 0.03847 0.0
C1680 C 0.92281 0.15359 0.03373 0.0
C1681 C 0.88415 0.15534 0.037 0.0
C1682 C 0.93891 0.14021 0.03262 0.0
C1683 C 0.9342 0.11503 0.03373 0.0
C1684 C 0.90177 0.14176 0.03596 0.0
C1685 C 0.91297 0.10393 0.03604 0.0
C1686 C 0.86321 0.14344 0.03954 0.0
C1687 C 0.87253 0.19292 0.03603 0.0
N1688 N 0.89758 0.11734 0.03704 0.0
N1689 N 0.88811 0.17969 0.03535 0.0
H1690 H 0.41932 0.44877 0.05202 0.0
H1691 H 0.48897 0.58303 0.05098 0.0
H1692 H 0.39241 0.51282 0.0562 0.0
H1693 H 0.51257 0.51841 0.03467 0.0
H1694 H 0.45384 0.55773 0.05415 0.0
H1695 H 0.45406 0.47401 0.04741 0.0
C1696 C 0.42074 0.46816 0.05208 0.0
C1697 C 0.40293 0.4787 0.05455 0.0
C1698 C 0.46664 0.54906 0.04976 0.0
C1699 C 0.44268 0.50775 0.04919 0.0
C1700 C 0.4867 0.5635 0.04792 0.0
C1701 C 0.50373 0.55281 0.0426 0.0
C1702 C 0.46359 0.52367 0.04645 0.0
C1703 C 0.49988 0.52741 0.0388 0.0
C1704 C 0.44057 0.48256 0.04933 0.0
C1705 C 0.40571 0.50392 0.05438 0.0
N1706 N 0.48028 0.51372 0.04094 0.0
N1707 N 0.42519 0.51757 0.0518 0.0
H1708 H 0.33401 0.56941 0.70857 0.0
H1709 H 0.30329 0.69409 0.68185 0.0
H1710 H 0.36458 0.61784 0.66247 0.0
H1711 H 0.27603 0.64736 0.73133 0.0
H1712 H 0.31738 0.66071 0.66483 0.0
H1713 H 0.30496 0.5918 0.70743 0.0
C1714 C 0.33442 0.58456 0.6979 0.0
C1715 C 0.35197 0.59224 0.68613 0.0
C1716 C 0.30784 0.65758 0.67901 0.0
C1717 C 0.31896 0.61806 0.68491 0.0
C1718 C 0.29981 0.67663 0.68872 0.0
C1719 C 0.28905 0.6737 0.7085 0.0
C1720 C 0.30522 0.6356 0.68933 0.0
C1721 C 0.28445 0.65055 0.71628 0.0
C1722 C 0.3178 0.5973 0.6972 0.0
C1723 C 0.35152 0.61165 0.6722 0.0
N1724 N 0.29301 0.63254 0.70704 0.0
N1725 N 0.33549 0.62423 0.67236 0.0
H1726 H 0.2387 0.65517 0.50557 0.0
H1727 H 0.13268 0.63909 0.56589 0.0
H1728 H 0.2261 0.71175 0.55323 0.0
H1729 H 0.13389 0.59878 0.49868 0.0
H1730 H 0.16844 0.66352 0.56407 0.0
H1731 H 0.20181 0.63196 0.50507 0.0
C1732 C 0.22814 0.66275 0.51586 0.0
C1733 C 0.23547 0.68543 0.52947 0.0
C1734 C 0.16086 0.64939 0.54968 0.0
C1735 C 0.1934 0.65882 0.52924 0.0
C1736 C 0.14048 0.63531 0.55076 0.0
C1737 C 0.13026 0.61676 0.53244 0.0
C1738 C 0.17136 0.64468 0.53035 0.0
C1739 C 0.14113 0.6129 0.51317 0.0
C1740 C 0.20709 0.64952 0.51551 0.0
C1741 C 0.22109 0.69438 0.54244 0.0
N1742 N 0.16118 0.62659 0.51274 0.0
N1743 N 0.20083 0.68096 0.54219 0.0
H1744 H 0.67137 0.91823 0.79574 0.0
H1745 H 0.78823 0.90698 0.76754 0.0
H1746 H 0.70174 0.95529 0.74178 0.0
H1747 H 0.74949 0.85383 0.80301 0.0
H1748 H 0.75894 0.9293 0.7637 0.0
H1749 H 0.70159 0.89741 0.80284 0.0
C1750 C 0.68427 0.92175 0.78521 0.0
C1751 C 0.68405 0.93839 0.76808 0.0
C1752 C 0.75696 0.91285 0.7725 0.0
C1753 C 0.7188 0.91526 0.77654 0.0
C1754 C 0.77376 0.90029 0.77497 0.0
C1755 C 0.77118 0.87846 0.78544 0.0
C1756 C 0.73759 0.90359 0.78076 0.0
C1757 C 0.75202 0.87048 0.79457 0.0
C1758 C 0.70154 0.91 0.78936 0.0
C1759 C 0.70122 0.94246 0.75504 0.0
N1760 N 0.73588 0.88298 0.79191 0.0
N1761 N 0.718 0.93111 0.75967 0.0
H1762 H 0.80434 1.00117 0.56857 0.0
H1763 H 0.67798 0.99868 0.52893 0.0
H1764 H 0.7592 0.93895 0.52906 0.0
H1765 H 0.72289 0.05698 0.57479 0.0
H1766 H 0.70701 0.97607 0.52899 0.0
H1767 H 0.77439 0.02171 0.57085 0.0
C1768 C 0.78809 0.99181 0.56039 0.0
C1769 C 0.78426 0.96834 0.54856 0.0
C1770 C 0.71046 0.99378 0.5391 0.0
C1771 C 0.74978 0.9918 0.55106 0.0
C1772 C 0.69386 1.00664 0.53919 0.0
C1773 C 0.69801 0.02989 0.5517 0.0
C1774 C 0.73138 1.00423 0.5516 0.0
C1775 C 0.719 0.03936 0.56448 0.0
C1776 C 0.77096 1.00354 0.56173 0.0
C1777 C 0.76286 0.95707 0.53834 0.0
N1778 N 0.73486 0.02657 0.564 0.0
N1779 N 0.74642 0.96894 0.53974 0.0
H1780 H 0.36294 0.48333 0.67755 0.0
H1781 H 0.35634 0.399 0.78412 0.0
H1782 H 0.41193 0.49305 0.74081 0.0
H1783 H 0.30868 0.3874 0.71958 0.0
H1784 H 0.37896 0.43091 0.76664 0.0
H1785 H 0.34514 0.44514 0.69024 0.0
C1786 C 0.37017 0.47719 0.69387 0.0
C1787 C 0.38877 0.49148 0.7083 0.0
C1788 C 0.36363 0.42127 0.75621 0.0
C1789 C 0.36836 0.4481 0.72314 0.0
C1790 C 0.35074 0.40308 0.7662 0.0
C1791 C 0.3306 0.39074 0.75332 0.0
C1792 C 0.35622 0.42721 0.73324 0.0
C1793 C 0.32404 0.3967 0.73019 0.0
C1794 C 0.35996 0.45545 0.70118 0.0
C1795 C 0.39749 0.48268 0.72925 0.0
N1796 N 0.33675 0.41464 0.72095 0.0
N1797 N 0.38705 0.46171 0.7362 0.0
H1798 H 0.19209 0.5547 0.29913 0.0
H1799 H 0.27834 0.65422 0.25181 0.0
H1800 H 0.22344 0.54085 0.23873 0.0
H1801 H 0.23498 0.67056 0.29923 0.0
H1802 H 0.26575 0.61098 0.25491 0.0
H1803 H 0.21534 0.59525 0.30739 0.0
C1804 C 0.20417 0.56003 0.2879 0.0
C1805 C 0.20561 0.54465 0.26795 0.0
C1806 C 0.25923 0.62407 0.2649 0.0
C1807 C 0.23206 0.59089 0.27718 0.0
C1808 C 0.26646 0.6487 0.26321 0.0
C1809 C 0.25739 0.66585 0.27498 0.0
C1810 C 0.24292 0.61665 0.27852 0.0
C1811 C 0.24202 0.6578 0.28948 0.0
C1812 C 0.21737 0.58318 0.29258 0.0
C1813 C 0.22162 0.55234 0.25409 0.0
N1814 N 0.2351 0.63373 0.29067 0.0
N1815 N 0.23406 0.57509 0.25877 0.0
H1816 H 0.57907 0.77497 0.47998 0.0
H1817 H 0.52659 0.65135 0.52879 0.0
H1818 H 0.51007 0.74925 0.47484 0.0
H1819 H 0.59553 0.67908 0.53544 0.0
H1820 H 0.52009 0.68816 0.51164 0.0
H1821 H 0.58523 0.74122 0.50263 0.0
C1822 C 0.56519 0.7623 0.48377 0.0
C1823 C 0.54401 0.76493 0.47541 0.0
C1824 C 0.53664 0.68629 0.51704 0.0
C1825 C 0.55096 0.72596 0.50133 0.0
C1826 C 0.5404 0.66524 0.52689 0.0
C1827 C 0.56168 0.66192 0.53348 0.0
C1828 C 0.55427 0.70422 0.51363 0.0
C1829 C 0.57885 0.68071 0.53063 0.0
C1830 C 0.56872 0.74298 0.49672 0.0
C1831 C 0.52667 0.74792 0.4809 0.0
N1832 N 0.57477 0.7009 0.52078 0.0
N1833 N 0.53052 0.72909 0.49338 0.0
H1834 H 0.6824 0.38918 0.69072 0.0
H1835 H 0.75073 0.32083 0.78362 0.0
H1836 H 0.65384 0.32433 0.7196 0.0
H1837 H 0.77761 0.38737 0.7564 0.0
H1838 H 0.71501 0.32175 0.7609 0.0
H1839 H 0.71725 0.38895 0.71528 0.0
C1840 C 0.68343 0.37494 0.70232 0.0
C1841 C 0.66515 0.35675 0.70308 0.0
C1842 C 0.72871 0.33619 0.75997 0.0
C1843 C 0.70517 0.35625 0.73126 0.0
C1844 C 0.74909 0.33566 0.77293 0.0
C1845 C 0.76715 0.35405 0.7719 0.0
C1846 C 0.7264 0.35524 0.74584 0.0
C1847 C 0.76412 0.37283 0.75777 0.0
C1848 C 0.70337 0.37479 0.71635 0.0
C1849 C 0.6675 0.33873 0.71846 0.0
N1850 N 0.74421 0.37291 0.74529 0.0
N1851 N 0.68714 0.33889 0.73186 0.0
H1852 H 0.02441 0.39632 0.92259 0.0
H1853 H 0.08112 0.50114 0.02659 0.0
H1854 H 0.05092 0.38101 0.99293 0.0
H1855 H 0.02981 0.51026 0.97141 0.0
H1856 H 0.07423 0.45808 0.01196 0.0
H1857 H 0.02987 0.43913 0.93778 0.0
C1858 C 0.03132 0.40197 0.94126 0.0
C1859 C 0.03721 0.3851 0.95655 0.0
C1860 C 0.06449 0.46952 1.00307 0.0
C1861 C 0.04382 0.43409 0.97389 0.0
C1862 C 0.06852 0.49414 0.01126 0.0
C1863 C 0.05607 0.50937 1.00011 0.0
C1864 C 0.04818 0.46008 0.9833 0.0
C1865 C 0.03978 0.49919 0.98052 0.0
C1866 C 0.03437 0.42637 0.9499 0.0
C1867 C 0.04607 0.39341 0.98058 0.0
N1868 N 0.03641 0.47521 0.97261 0.0
N1869 N 0.04933 0.41738 0.98847 0.0
H1870 H 0.0627 0.84524 0.22526 0.0
H1871 H 0.9373 0.8528 0.19663 0.0
H1872 H 0.0294 0.85317 0.15521 0.0
H1873 H 0.9706 0.84906 0.26789 0.0
H1874 H 0.9708 0.85166 0.18113 0.0
H1875 H 0.02904 0.84534 0.24128 0.0
C1876 C 0.04832 0.84701 0.21327 0.0
C1877 C 0.04885 0.84923 0.18888 0.0
C1878 C 0.97081 0.85105 0.20016 0.0
C1879 C 1.01034 0.84929 0.20701 0.0
C1880 C 0.95167 0.85181 0.20905 0.0
C1881 C 0.95109 0.85111 0.23364 0.0
C1882 C 0.98961 0.84959 0.21592 0.0
C1883 C 0.97018 0.84937 0.24877 0.0
C1884 C 0.02913 0.84705 0.2224 0.0
C1885 C 0.02976 0.85144 0.17414 0.0
N1886 N 0.98866 0.84874 0.23969 0.0
N1887 N 1.01132 0.8514 0.18342 0.0
H1888 H 0.60282 0.42933 0.14833 0.0
H1889 H 0.56859 0.48903 0.0282 0.0
H1890 H 0.58037 0.38812 0.07902 0.0
H1891 H 0.59298 0.53053 0.09716 0.0
H1892 H 0.57387 0.45226 0.04618 0.0
H1893 H 0.60042 0.46657 0.12974 0.0
C1894 C 0.59749 0.4281 0.12915 0.0
C1895 C 0.59178 0.40546 0.11525 0.0
C1896 C 0.57817 0.4694 0.05739 0.0
C1897 C 0.58885 0.44829 0.09374 0.0
C1898 C 0.57518 0.4905 0.04712 0.0
C1899 C 0.58032 0.51308 0.06113 0.0
C1900 C 0.58632 0.47066 0.08198 0.0
C1901 C 0.5888 0.51363 0.08558 0.0
C1902 C 0.5961 0.44943 0.11853 0.0
C1903 C 0.58497 0.40511 0.09047 0.0
N1904 N 0.59144 0.49279 0.09519 0.0
N1905 N 0.58362 0.42613 0.08056 0.0
H1906 H 0.97268 0.33091 0.42068 0.0
H1907 H 0.88044 0.28141 0.30622 0.0
H1908 H 0.98684 0.29413 0.35751 0.0
H1909 H 0.88095 0.34357 0.35529 0.0
H1910 H 0.91669 0.27943 0.3275 0.0
H1911 H 0.93591 0.32903 0.39975 0.0
C1912 C 0.96802 0.32231 0.40244 0.0
C1913 C 0.98291 0.31281 0.39078 0.0
C1914 C 0.90875 0.29343 0.33352 0.0
C1915 C 0.94068 0.3104 0.36673 0.0
C1916 C 0.88808 0.2945 0.32149 0.0
C1917 C 0.87774 0.31279 0.32888 0.0
C1918 C 0.91877 0.31041 0.35336 0.0
C1919 C 0.88838 0.32932 0.34877 0.0
C1920 C 0.94703 0.3213 0.39047 0.0
C1921 C 0.9759 0.30183 0.3671 0.0
N1922 N 0.90817 0.32766 0.36033 0.0
N1923 N 0.95526 0.30087 0.35583 0.0
H1924 H 0.07143 0.74324 0.64068 0.0
H1925 H 0.06044 0.66265 0.51499 0.0
H1926 H 0.07786 0.77268 0.57351 0.0
H1927 H 0.05998 0.63132 0.58186 0.0
H1928 H 0.06529 0.70282 0.53645 0.0
H1929 H 0.06605 0.70221 0.62007 0.0
C1930 C 0.07165 0.7411 0.62159 0.0
C1931 C 0.07509 0.76153 0.60882 0.0
C1932 C 0.06423 0.68727 0.54658 0.0
C1933 C 0.06886 0.71451 0.58507 0.0
C1934 C 0.06139 0.66425 0.53428 0.0
C1935 C 0.06011 0.64361 0.54672 0.0
C1936 C 0.06565 0.6899 0.57163 0.0
C1937 C 0.06138 0.64685 0.57171 0.0
C1938 C 0.0686 0.71764 0.60984 0.0
C1939 C 0.07527 0.75757 0.58413 0.0
N1940 N 0.06407 0.66954 0.58338 0.0
N1941 N 0.07217 0.73464 0.57313 0.0
H1942 H 0.58198 0.82572 0.84881 0.0
H1943 H 0.69542 0.78383 0.85393 0.0
H1944 H 0.61884 0.81025 0.91386 0.0
H1945 H 0.66322 0.80915 0.79132 0.0
H1946 H 0.66695 0.79215 0.8758 0.0
H1947 H 0.61114 0.81899 0.8272 0.0
C1948 C 0.59626 0.82104 0.85858 0.0
C1949 C 0.59796 0.81856 0.88319 0.0
C1950 C 0.66612 0.79593 0.85729 0.0
C1951 C 0.63136 0.81059 0.8585 0.0
C1952 C 0.68231 0.79102 0.84472 0.0
C1953 C 0.68175 0.79574 0.82069 0.0
C1954 C 0.64908 0.8055 0.84576 0.0
C1955 C 0.66448 0.80543 0.80987 0.0
C1956 C 0.61291 0.81718 0.84622 0.0
C1957 C 0.61684 0.81241 0.8949 0.0
N1958 N 0.64884 0.80989 0.82242 0.0
N1959 N 0.63272 0.80852 0.88245 0.0
H1960 H 0.44277 0.54517 0.63293 0.0
H1961 H 0.55054 0.6366 0.6138 0.0
H1962 H 0.46189 0.61851 0.66744 0.0
H1963 H 0.53494 0.55956 0.59242 0.0
H1964 H 0.51631 0.63248 0.62987 0.0
H1965 H 0.474 0.55274 0.61239 0.0
C1966 C 0.45342 0.56297 0.63594 0.0
C1967 C 0.44995 0.58113 0.6521 0.0
C1968 C 0.52046 0.61655 0.62161 0.0
C1969 C 0.48594 0.58983 0.62909 0.0
C1970 C 0.53999 0.61888 0.61267 0.0
C1971 C 0.54541 0.5984 0.60177 0.0
C1972 C 0.50648 0.59362 0.61948 0.0
C1973 C 0.53124 0.57585 0.60052 0.0
C1974 C 0.47132 0.56726 0.62434 0.0
C1975 C 0.46413 0.60395 0.65523 0.0
N1976 N 0.51244 0.57408 0.60917 0.0
N1977 N 0.48171 0.6076 0.64402 0.0
H1978 H 0.82481 0.28798 0.99108 0.0
H1979 H 0.77946 0.27109 0.84949 0.0
H1980 H 0.77866 0.22505 0.95445 0.0
H1981 H 0.83067 0.33052 0.88431 0.0
H1982 H 0.77702 0.25562 0.88833 0.0
H1983 H 0.82536 0.30544 0.95276 0.0
C1984 C 0.81472 0.27789 0.97502 0.0
C1985 C 0.80171 0.25499 0.976 0.0
C1986 C 0.78874 0.27211 0.88751 0.0
C1987 C 0.80224 0.27484 0.93204 0.0
C1988 C 0.79009 0.28102 0.86529 0.0
C1989 C 0.80531 0.30217 0.86351 0.0
C1990 C 0.80265 0.28441 0.90824 0.0
C1991 C 0.8187 0.31414 0.88472 0.0
C1992 C 0.81506 0.28784 0.95313 0.0
C1993 C 0.78898 0.24273 0.95457 0.0
N1994 N 0.81708 0.30509 0.90613 0.0
N1995 N 0.78958 0.25277 0.93355 0.0
H1996 H 0.15824 0.51576 0.16574 0.0
H1997 H 0.04737 0.51045 0.07707 0.0
H1998 H 0.09869 0.46661 0.17175 0.0
H1999 H 0.10012 0.57303 0.0938 0.0
H2000 H 0.06802 0.48849 0.10463 0.0
H2001 H 0.13942 0.53008 0.13079 0.0
C2002 C 0.14128 0.50764 0.15941 0.0
C2003 C 0.12988 0.49029 0.17187 0.0
C2004 C 0.07508 0.50696 0.10204 0.0
C2005 C 0.10824 0.50682 0.13211 0.0
C2006 C 0.06333 0.5195 0.08646 0.0
C2007 C 0.07214 0.54356 0.08323 0.0
C2008 C 0.09581 0.51855 0.11412 0.0
C2009 C 0.09286 0.55445 0.09564 0.0
C2010 C 0.13054 0.51593 0.13956 0.0
C2011 C 0.108 0.48018 0.16274 0.0
N2012 N 0.10401 0.54185 0.11053 0.0
N2013 N 0.09774 0.48886 0.14352 0.0
H2014 H 0.80727 0.8715 0.47455 0.0
H2015 H 0.83859 0.89903 0.34688 0.0
H2016 H 0.84121 0.94143 0.46032 0.0
H2017 H 0.78558 0.84101 0.35424 0.0
H2018 H 0.84234 0.91269 0.38943 0.0
H2019 H 0.80165 0.85772 0.43148 0.0
C2020 C 0.81354 0.88392 0.46238 0.0
C2021 C 0.82473 0.90764 0.47101 0.0
C2022 C 0.82981 0.89703 0.38174 0.0
C2023 C 0.81854 0.89199 0.42194 0.0
C2024 C 0.82769 0.88917 0.35744 0.0
C2025 C 0.81173 0.86885 0.34695 0.0
C2026 C 0.81612 0.88428 0.39587 0.0
C2027 C 0.79804 0.85685 0.36156 0.0
C2028 C 0.81026 0.87609 0.43784 0.0
C2029 C 0.83246 0.92302 0.45446 0.0
N2030 N 0.80066 0.86462 0.38534 0.0
N2031 N 0.82935 0.91489 0.4308 0.0
H2032 H 0.41698 0.5934 0.78495 0.0
H2033 H 0.53167 0.59375 0.86435 0.0
H2034 H 0.47561 0.59242 0.75591 0.0
H2035 H 0.47031 0.57494 0.88893 0.0
H2036 H 0.51279 0.60423 0.82695 0.0
H2037 H 0.43798 0.59787 0.82547 0.0
C2038 C 0.43434 0.59465 0.78712 0.0
C2039 C 0.44455 0.59215 0.76713 0.0
C2040 C 0.50351 0.59811 0.84068 0.0
C2041 C 0.46855 0.5971 0.81322 0.0
C2042 C 0.51427 0.59224 0.86201 0.0
C2043 C 0.50244 0.58313 0.87951 0.0
C2044 C 0.48082 0.595 0.83696 0.0
C2045 C 0.47994 0.58146 0.87563 0.0
C2046 C 0.44628 0.59707 0.81021 0.0
C2047 C 0.46708 0.59394 0.7709 0.0
N2048 N 0.46982 0.58714 0.85468 0.0
N2049 N 0.4783 0.59604 0.79351 0.0
H2050 H 0.8101 0.22062 0.12682 0.0
H2051 H 0.83959 0.34499 0.21353 0.0
H2052 H 0.81808 0.29129 0.10136 0.0
H2053 H 0.81564 0.27599 0.23801 0.0
H2054 H 0.83579 0.32493 0.17307 0.0
H2055 H 0.81577 0.23993 0.16802 0.0
C2056 C 0.81307 0.2402 0.12988 0.0
C2057 C 0.81358 0.25436 0.11054 0.0
C2058 C 0.83138 0.3141 0.18724 0.0
C2059 C 0.8201 0.27654 0.15781 0.0
C2060 C 0.83366 0.32554 0.21042 0.0
C2061 C 0.82782 0.31216 0.22918 0.0
C2062 C 0.82336 0.28897 0.18264 0.0
C2063 C 0.82019 0.28699 0.22403 0.0
C2064 C 0.81622 0.25118 0.15344 0.0
C2065 C 0.8175 0.27965 0.11566 0.0
N2066 N 0.81818 0.27619 0.20124 0.0
N2067 N 0.82065 0.2899 0.13876 0.0
H2068 H 0.11003 0.53928 0.26345 0.0
H2069 H 0.03886 0.50594 0.36501 0.0
H2070 H 0.09379 0.46749 0.28556 0.0
H2071 H 0.06755 0.57901 0.35357 0.0
H2072 H 0.05044 0.49089 0.32873 0.0
H2073 H 0.08629 0.55284 0.28906 0.0
C2074 C 0.1012 0.52626 0.27343 0.0
C2075 C 0.10416 0.50232 0.27275 0.0
C2076 C 0.05387 0.51024 0.33392 0.0
C2077 C 0.07707 0.51779 0.30216 0.0
C2078 C 0.0471 0.5189 0.35452 0.0
C2079 C 0.05245 0.54378 0.36244 0.0
C2080 C 0.06608 0.52658 0.32117 0.0
C2081 C 0.0634 0.55966 0.34829 0.0
C2082 C 0.08768 0.53404 0.28807 0.0
C2083 C 0.09214 0.48617 0.28581 0.0
N2084 N 0.07008 0.55076 0.32846 0.0
N2085 N 0.07931 0.49429 0.30026 0.0
H2086 H 0.82612 0.85902 0.58491 0.0
H2087 H 0.81534 0.87261 0.72402 0.0
H2088 H 0.83996 0.92729 0.62929 0.0
H2089 H 0.80813 0.80315 0.6835 0.0
H2090 H 0.8249 0.89259 0.68931 0.0
H2091 H 0.82003 0.83785 0.62038 0.0
C2092 C 0.82804 0.86954 0.60212 0.0
C2093 C 0.83351 0.89498 0.6041 0.0
C2094 C 0.8214 0.87298 0.68796 0.0
C2095 C 0.82641 0.87091 0.64471 0.0
C2096 C 0.81605 0.86153 0.70788 0.0
C2097 C 0.8112 0.83616 0.70678 0.0
C2098 C 0.82168 0.85901 0.66651 0.0
C2099 C 0.81184 0.82277 0.68514 0.0
C2100 C 0.82454 0.85745 0.62236 0.0
C2101 C 0.83574 0.90768 0.62686 0.0
N2102 N 0.81691 0.83434 0.66582 0.0
N2103 N 0.83209 0.89555 0.64617 0.0
H2104 H 0.75645 0.4499 0.55721 0.0
H2105 H 0.73055 0.5831 0.56425 0.0
H2106 H 0.80301 0.51469 0.55084 0.0
H2107 H 0.68256 0.51791 0.56546 0.0
H2108 H 0.75751 0.55842 0.56037 0.0
H2109 H 0.7293 0.47447 0.56093 0.0
C2110 C 0.76095 0.46929 0.55655 0.0
C2111 C 0.78204 0.48025 0.5537 0.0
C2112 C 0.74108 0.54949 0.56147 0.0
C2113 C 0.75105 0.50855 0.55805 0.0
C2114 C 0.72569 0.5636 0.56385 0.0
C2115 C 0.7042 0.55262 0.56521 0.0
C2116 C 0.73504 0.52413 0.56053 0.0
C2117 C 0.69883 0.5272 0.5642 0.0
C2118 C 0.74544 0.48332 0.55867 0.0
C2119 C 0.78695 0.50547 0.55299 0.0
N2120 N 0.71413 0.51386 0.56197 0.0
N2121 N 0.77161 0.51874 0.55519 0.0
H2122 H 0.23894 0.14508 0.51608 0.0
H2123 H 0.11499 0.13525 0.53248 0.0
H2124 H 0.20877 0.20671 0.52023 0.0
H2125 H 0.14065 0.07321 0.51197 0.0
H2126 H 0.15026 0.16154 0.53191 0.0
H2127 H 0.20406 0.11838 0.51786 0.0
C2128 C 0.22497 0.153 0.51732 0.0
C2129 C 0.22677 0.17818 0.51794 0.0
C2130 C 0.14822 0.14218 0.52758 0.0
C2131 C 0.18681 0.14772 0.52024 0.0
C2132 C 0.1281 0.12713 0.52801 0.0
C2133 C 0.12485 0.10198 0.52218 0.0
C2134 C 0.16535 0.13206 0.52147 0.0
C2135 C 0.14244 0.0925 0.51652 0.0
C2136 C 0.20506 0.13774 0.51834 0.0
C2137 C 0.20811 0.18742 0.5196 0.0
N2138 N 0.16192 0.10753 0.51631 0.0
N2139 N 0.18896 0.17222 0.52078 0.0
H2140 H 0.26174 0.07497 0.89002 0.0
H2141 H 0.29617 0.99397 0.78819 0.0
H2142 H 0.24356 0.07888 0.81422 0.0
H2143 H 0.31957 0.99408 0.86359 0.0
H2144 H 0.28033 0.02867 0.79744 0.0
H2145 H 0.28658 0.04906 0.88098 0.0
C2146 C 0.26318 0.07059 0.87149 0.0
C2147 C 0.25038 0.07871 0.85279 0.0
C2148 C 0.28912 0.02133 0.81199 0.0
C2149 C 0.27856 0.0491 0.84234 0.0
C2150 C 0.29806 1.00148 0.8067 0.0
C2151 C 0.30885 0.99104 0.82521 0.0
C2152 C 0.29075 0.03059 0.836 0.0
C2153 C 0.31127 1.00164 0.84885 0.0
C2154 C 0.27736 0.05584 0.86635 0.0
C2155 C 0.25297 0.07274 0.82914 0.0
N2156 N 0.30199 0.02068 0.85363 0.0
N2157 N 0.26659 0.05804 0.82457 0.0
H2158 H 0.4076 0.95845 0.0677 0.0
H2159 H 0.48363 0.04943 1.00066 0.0
H2160 H 0.38159 1.00208 0.01625 0.0
H2161 H 0.50428 0.03597 0.07349 0.0
H2162 H 0.44695 0.02707 1.00254 0.0
H2163 H 0.44428 0.98159 0.06657 0.0
C2164 C 0.40963 0.97282 0.05611 0.0
C2165 C 0.39157 0.97841 0.04207 0.0
C2166 C 0.45952 0.02911 0.01811 0.0
C2167 C 0.43333 1.00462 0.04047 0.0
C2168 C 0.48044 0.04178 0.01704 0.0
C2169 C 0.49699 0.04462 0.03698 0.0
C2170 C 0.45524 0.0187 0.03906 0.0
C2171 C 0.49195 0.03435 0.05777 0.0
C2172 C 0.4305 0.98607 0.05558 0.0
C2173 C 0.39508 0.99727 0.02743 0.0
N2174 N 0.47156 0.02162 0.0582 0.0
N2175 N 0.41556 0.00957 0.02685 0.0
H2176 H 0.91271 0.68078 0.7925 0.0
H2177 H 0.87715 0.80171 0.75633 0.0
H2178 H 0.95622 0.75097 0.80489 0.0
H2179 H 0.83246 0.74406 0.77995 0.0
H2180 H 0.90566 0.77911 0.76403 0.0
H2181 H 0.88262 0.70025 0.77881 0.0
C2182 C 0.91593 0.70027 0.79219 0.0
C2183 C 0.9369 0.71439 0.79988 0.0
C2184 C 0.88956 0.77134 0.76733 0.0
C2185 C 0.90282 0.73647 0.78395 0.0
C2186 C 0.87321 0.78417 0.76292 0.0
C2187 C 0.85242 0.77501 0.76802 0.0
C2188 C 0.88511 0.74896 0.77655 0.0
C2189 C 0.84827 0.7519 0.77597 0.0
C2190 C 0.89878 0.71129 0.78445 0.0
C2191 C 0.94025 0.73951 0.79922 0.0
N2192 N 0.86457 0.73967 0.78017 0.0
N2193 N 0.92336 0.74977 0.79126 0.0
H2194 H 0.82069 0.65578 0.99404 0.0
H2195 H 0.95015 0.672 0.02094 0.0
H2196 H 0.86461 0.72494 0.01584 0.0
H2197 H 0.90543 0.60292 1.00218 0.0
H2198 H 0.91934 0.69215 0.01686 0.0
H2199 H 0.8518 0.63646 0.99489 0.0
C2200 C 0.83689 0.66691 0.99893 0.0
C2201 C 0.84006 0.69199 1.00494 0.0
C2202 C 0.91629 0.67258 0.0136 0.0
C2203 C 0.87582 0.66999 1.006 0.0
C2204 C 0.93388 0.66108 0.01579 0.0
C2205 C 0.93039 0.6357 0.0121 0.0
C2206 C 0.89503 0.65862 1.00756 0.0
C2207 C 0.90891 0.62249 1.00564 0.0
C2208 C 0.85467 0.65588 0.99943 0.0
C2209 C 0.86143 0.70553 0.01112 0.0
N2210 N 0.89211 0.63407 1.00364 0.0
N2211 N 0.87849 0.69436 0.01154 0.0
H2212 H 0.20765 0.18651 0.82661 0.0
H2213 H 0.32095 0.28226 0.85323 0.0
H2214 H 0.25711 0.18693 0.88762 0.0
H2215 H 0.276 0.27163 0.78661 0.0
H2216 H 0.29558 0.25165 0.86923 0.0
H2217 H 0.22993 0.22279 0.81541 0.0
C2218 C 0.22309 0.19446 0.83785 0.0
C2219 C 0.2307 0.18358 0.8579 0.0
C2220 C 0.29123 0.25615 0.85117 0.0
C2221 C 0.25639 0.22487 0.84502 0.0
C2222 C 0.3057 0.27351 0.84202 0.0
C2223 C 0.3005 0.27936 0.81858 0.0
C2224 C 0.27145 0.24468 0.83674 0.0
C2225 C 0.28053 0.2677 0.80483 0.0
C2226 C 0.23584 0.21509 0.83138 0.0
C2227 C 0.25074 0.1947 0.87192 0.0
N2228 N 0.26674 0.25086 0.8141 0.0
N2229 N 0.26304 0.21464 0.86506 0.0
H2230 H 0.49552 0.08946 0.2978 0.0
H2231 H 0.38062 0.99898 0.27812 0.0
H2232 H 0.43559 0.10881 0.26838 0.0
H2233 H 0.44107 0.97951 0.30538 0.0
H2234 H 0.40097 0.0371 0.26794 0.0
H2235 H 0.47665 0.04706 0.29367 0.0
C2236 C 0.47847 0.0847 0.29001 0.0
C2237 C 0.46699 0.10265 0.28381 0.0
C2238 C 0.40979 0.02437 0.27591 0.0
C2239 C 0.4452 0.05431 0.27947 0.0
C2240 C 0.39818 1.00258 0.28167 0.0
C2241 C 0.40918 0.98627 0.29302 0.0
C2242 C 0.43254 0.02988 0.28162 0.0
C2243 C 0.43194 0.99188 0.29724 0.0
C2244 C 0.46767 0.0605 0.28773 0.0
C2245 C 0.44498 0.09552 0.27362 0.0
N2246 N 0.44285 0.01333 0.29178 0.0
N2247 N 0.43468 0.07191 0.27217 0.0
H2248 H 0.62262 0.40921 0.59356 0.0
H2249 H 0.54884 0.50583 0.57321 0.0
H2250 H 0.58121 0.4258 0.64317 0.0
H2251 H 0.61422 0.52212 0.55816 0.0
H2252 H 0.55624 0.46944 0.59044 0.0
H2253 H 0.61603 0.44454 0.57267 0.0
C2254 C 0.61217 0.42024 0.60001 0.0
C2255 C 0.60252 0.41468 0.62018 0.0
C2256 C 0.56889 0.48088 0.58315 0.0
C2257 C 0.59452 0.45435 0.59614 0.0
C2258 C 0.56466 0.50158 0.57314 0.0
C2259 C 0.58095 0.51715 0.56425 0.0
C2260 C 0.58943 0.47531 0.58391 0.0
C2261 C 0.60122 0.51069 0.5649 0.0
C2262 C 0.60848 0.44034 0.58816 0.0
C2263 C 0.5891 0.42953 0.62782 0.0
N2264 N 0.60489 0.49018 0.57453 0.0
N2265 N 0.58532 0.44848 0.61567 0.0
H2266 H 0.47685 0.85283 0.38826 0.0
H2267 H 0.37586 0.77243 0.29678 0.0
H2268 H 0.46843 0.77542 0.37301 0.0
H2269 H 0.37552 0.84308 0.3304 0.0
H2270 H 0.41162 0.77434 0.32077 0.0
H2271 H 0.44178 0.8509 0.3631 0.0
C2272 C 0.46766 0.83541 0.37954 0.0
C2273 C 0.47558 0.81423 0.38279 0.0
C2274 C 0.40379 0.78951 0.32275 0.0
C2275 C 0.43537 0.81192 0.35381 0.0
C2276 C 0.38343 0.78848 0.30902 0.0
C2277 C 0.37292 0.80791 0.31121 0.0
C2278 C 0.41379 0.81019 0.33873 0.0
C2279 C 0.38334 0.8281 0.32754 0.0
C2280 C 0.44759 0.83432 0.36523 0.0
C2281 C 0.46292 0.79218 0.37105 0.0
N2282 N 0.40321 0.82878 0.3406 0.0
N2283 N 0.44347 0.7916 0.35702 0.0
H2284 H 0.06381 0.7646 0.13962 0.0
H2285 H 0.11222 0.6649 0.07258 0.0
H2286 H 0.12082 0.78333 0.1068 0.0
H2287 H 0.04357 0.65568 0.07347 0.0
H2288 H 0.11759 0.7067 0.0908 0.0
H2289 H 0.05788 0.72282 0.12086 0.0
C2290 C 0.07507 0.7599 0.12847 0.0
C2291 C 0.09282 0.77742 0.1247 0.0
C2292 C 0.10136 0.69549 0.087 0.0
C2293 C 0.08631 0.72971 0.10359 0.0
C2294 C 0.09829 0.6716 0.07676 0.0
C2295 C 0.07741 0.65677 0.07154 0.0
C2296 C 0.0835 0.70449 0.09251 0.0
C2297 C 0.05993 0.66651 0.07715 0.0
C2298 C 0.07163 0.73613 0.11773 0.0
C2299 C 0.10689 0.77039 0.11006 0.0
N2300 N 0.06339 0.68972 0.08751 0.0
N2301 N 0.10345 0.74701 0.10021 0.0
H2302 H 0.10881 0.33801 0.92332 0.0
H2303 H 0.15601 0.29153 0.80945 0.0
H2304 H 0.07043 0.28648 0.86553 0.0
H2305 H 0.19475 0.34075 0.86888 0.0
H2306 H 0.12475 0.28862 0.83004 0.0
H2307 H 0.14057 0.33869 0.90388 0.0
C2308 C 0.10708 0.32678 0.90654 0.0
C2309 C 0.08693 0.31219 0.89599 0.0
C2310 C 0.14011 0.3 0.83862 0.0
C2311 C 0.12327 0.31291 0.87357 0.0
C2312 C 0.15804 0.30155 0.82694 0.0
C2313 C 0.17812 0.31644 0.8374 0.0
C2314 C 0.14217 0.31345 0.86097 0.0
C2315 C 0.17956 0.32932 0.85993 0.0
C2316 C 0.12523 0.32717 0.89544 0.0
C2317 C 0.08565 0.29801 0.87426 0.0
N2318 N 0.16186 0.32756 0.87091 0.0
N2319 N 0.10356 0.29876 0.86373 0.0
H2320 H 0.5557 0.77415 0.98879 0.0
H2321 H 0.53566 0.62877 0.96667 0.0
H2322 H 0.53062 0.73347 0.9196 0.0
H2323 H 0.5664 0.67062 0.03398 0.0
H2324 H 0.53127 0.66647 0.94968 0.0
H2325 H 0.55728 0.73607 1.00625 0.0
C2326 C 0.5504 0.7572 0.97729 0.0
C2327 C 0.54305 0.75706 0.95268 0.0
C2328 C 0.5389 0.66738 0.96819 0.0
C2329 C 0.54487 0.71325 0.97254 0.0
C2330 C 0.54136 0.64583 0.97794 0.0
C2331 C 0.55145 0.64644 1.00183 0.0
C2332 C 0.54649 0.68978 0.98243 0.0
C2333 C 0.55858 0.66917 0.01548 0.0
C2334 C 0.55135 0.73543 0.98725 0.0
C2335 C 0.53643 0.73449 0.93866 0.0
N2336 N 0.55599 0.68983 1.00561 0.0
N2337 N 0.53753 0.71356 0.94875 0.0
H2338 H 0.14444 0.86086 0.714 0.0
H2339 H 0.24869 0.80254 0.72774 0.0
H2340 H 0.15988 0.81682 0.65639 0.0
H2341 H 0.2478 0.86833 0.77078 0.0
H2342 H 0.21421 0.80492 0.70385 0.0
H2343 H 0.1803 0.86152 0.7374 0.0
C2344 C 0.15538 0.85139 0.70625 0.0
C2345 C 0.14914 0.83874 0.6832 0.0
C2346 C 0.22155 0.8189 0.71846 0.0
C2347 C 0.19001 0.83917 0.70998 0.0
C2348 C 0.24123 0.81751 0.73223 0.0
C2349 C 0.25119 0.83524 0.75141 0.0
C2350 C 0.21139 0.83793 0.72404 0.0
C2351 C 0.24075 0.8543 0.75615 0.0
C2352 C 0.17585 0.85185 0.71958 0.0
C2353 C 0.164 0.82683 0.67405 0.0
N2354 N 0.22129 0.85503 0.74271 0.0
N2355 N 0.18361 0.82715 0.68752 0.0
H2356 H 0.06518 0.37767 0.49938 0.0
H2357 H 0.05898 0.51746 0.49324 0.0
H2358 H 0.05307 0.40845 0.43263 0.0
H2359 H 0.0841 0.48907 0.55744 0.0
H2360 H 0.055 0.4776 0.47075 0.0
H2361 H 0.07034 0.418 0.52105 0.0
C2362 C 0.06363 0.39291 0.48926 0.0
C2363 C 0.05871 0.3896 0.46411 0.0
C2364 C 0.06151 0.48013 0.48973 0.0
C2365 C 0.06446 0.43602 0.48891 0.0
C2366 C 0.06389 0.50295 0.50254 0.0
C2367 C 0.07214 0.50675 0.52719 0.0
C2368 C 0.0672 0.46081 0.50172 0.0
C2369 C 0.07777 0.48704 0.53843 0.0
C2370 C 0.06661 0.41599 0.50166 0.0
C2371 C 0.05691 0.41012 0.45201 0.0
N2372 N 0.07514 0.465 0.52568 0.0
N2373 N 0.05968 0.43237 0.46449 0.0
H2374 H 0.55625 0.34536 0.22236 0.0
H2375 H 0.43721 0.37404 0.21202 0.0
H2376 H 0.51658 0.35134 0.15539 0.0
H2377 H 0.47166 0.35622 0.27745 0.0
H2378 H 0.46702 0.36771 0.19153 0.0
H2379 H 0.52633 0.35093 0.24336 0.0
C2380 C 0.54124 0.3478 0.21208 0.0
C2381 C 0.53892 0.34788 0.18707 0.0
C2382 C 0.46809 0.36515 0.21036 0.0
C2383 C 0.50466 0.3544 0.21099 0.0
C2384 C 0.45111 0.36892 0.22214 0.0
C2385 C 0.45192 0.36576 0.24656 0.0
C2386 C 0.48621 0.3583 0.22306 0.0
C2387 C 0.47024 0.35869 0.25858 0.0
C2388 C 0.52416 0.35096 0.22407 0.0
C2389 C 0.5191 0.35112 0.17467 0.0
N2390 N 0.48668 0.35531 0.24676 0.0
N2391 N 0.50282 0.35433 0.18674 0.0
H2392 H 0.6668 0.56201 0.40891 0.0
H2393 H 0.60967 0.61909 0.50805 0.0
H2394 H 0.68083 0.63789 0.4354 0.0
H2395 H 0.58844 0.54492 0.4762 0.0
H2396 H 0.63966 0.62423 0.48594 0.0
H2397 H 0.6423 0.55353 0.43798 0.0
C2398 C 0.66501 0.57683 0.42114 0.0
C2399 C 0.67563 0.60075 0.41963 0.0
C2400 C 0.62857 0.60676 0.48379 0.0
C2401 C 0.6476 0.59119 0.45264 0.0
C2402 C 0.61144 0.60376 0.49648 0.0
C2403 C 0.59658 0.58152 0.49392 0.0
C2404 C 0.63081 0.58745 0.46812 0.0
C2405 C 0.59951 0.5624 0.4785 0.0
C2406 C 0.65095 0.57197 0.43761 0.0
C2407 C 0.67281 0.61923 0.43586 0.0
N2408 N 0.61631 0.56584 0.466 0.0
N2409 N 0.6589 0.61408 0.45156 0.0
H2410 H 0.35226 0.93879 0.12959 0.0
H2411 H 0.30514 0.82736 0.19986 0.0
H2412 H 0.30688 0.87451 0.09468 0.0
H2413 H 0.34954 0.8926 0.23444 0.0
H2414 H 0.30641 0.84356 0.1612 0.0
H2415 H 0.35222 0.92151 0.16782 0.0
C2416 C 0.3423 0.92098 0.12993 0.0
C2417 C 0.32953 0.90811 0.10881 0.0
C2418 C 0.31593 0.85431 0.17722 0.0
C2419 C 0.32939 0.88812 0.15281 0.0
C2420 C 0.31526 0.84504 0.1994 0.0
C2421 C 0.32727 0.85857 0.22064 0.0
C2422 C 0.32869 0.87734 0.17609 0.0
C2423 C 0.34001 0.88142 0.21867 0.0
C2424 C 0.34229 0.91111 0.15183 0.0
C2425 C 0.31697 0.8851 0.11047 0.0
N2426 N 0.34034 0.89005 0.19688 0.0
N2427 N 0.31719 0.87587 0.13205 0.0
H2428 H 0.98406 0.67137 0.90638 0.0
H2429 H 0.09188 0.6567 0.98981 0.0
H2430 H 0.04795 0.70237 0.8926 0.0
H2431 H 0.03307 0.60142 0.97535 0.0
H2432 H 0.07457 0.68152 0.96259 0.0
H2433 H 1.00065 0.65483 0.94143 0.0
C2434 C 1.00158 0.6754 0.91117 0.0
C2435 C 0.0147 0.68803 0.89644 0.0
C2436 C 0.06543 0.66406 0.96562 0.0
C2437 C 0.03362 0.66903 0.93626 0.0
C2438 C 0.07526 0.64985 0.98103 0.0
C2439 C 0.06382 0.62696 0.98479 0.0
C2440 C 0.04391 0.65547 0.95425 0.0
C2441 C 0.04235 0.61901 0.97307 0.0
C2442 C 1.01098 0.66571 0.93099 0.0
C2443 C 0.03729 0.69258 0.90342 0.0
N2444 N 0.03303 0.63328 0.95832 0.0
N2445 N 0.04608 0.68286 0.92275 0.0
H2446 H 0.26831 0.27432 0.58431 0.0
H2447 H 0.3432 0.30145 0.71354 0.0
H2448 H 0.32511 0.24426 0.60158 0.0
H2449 H 0.27539 0.30445 0.70238 0.0
H2450 H 0.33923 0.28593 0.67121 0.0
H2451 H 0.27311 0.29124 0.62633 0.0
C2452 C 0.28185 0.27141 0.59691 0.0
C2453 C 0.29629 0.25781 0.58949 0.0
C2454 C 0.32524 0.28998 0.67809 0.0
C2455 C 0.30196 0.27723 0.63745 0.0
C2456 C 0.3275 0.29888 0.70222 0.0
C2457 C 0.30957 0.30413 0.71158 0.0
C2458 C 0.30502 0.28673 0.66312 0.0
C2459 C 0.28962 0.30046 0.69602 0.0
C2460 C 0.28452 0.28097 0.62088 0.0
C2461 C 0.31354 0.25454 0.60658 0.0
N2462 N 0.28791 0.29212 0.67257 0.0
N2463 N 0.31595 0.26426 0.62974 0.0
H2464 H 0.63775 0.64033 0.31937 0.0
H2465 H 0.5805 0.5602 0.19724 0.0
H2466 H 0.64304 0.56659 0.3012 0.0
H2467 H 0.58882 0.63798 0.20943 0.0
H2468 H 0.59304 0.55932 0.23999 0.0
H2469 H 0.60939 0.63627 0.28427 0.0
C2470 C 0.63261 0.62313 0.30828 0.0
C2471 C 0.64307 0.60396 0.31278 0.0
C2472 C 0.59167 0.5765 0.23333 0.0
C2473 C 0.61086 0.59925 0.27269 0.0
C2474 C 0.58463 0.57704 0.20893 0.0
C2475 C 0.58413 0.59926 0.1996 0.0
C2476 C 0.59825 0.59833 0.24846 0.0
C2477 C 0.58902 0.62042 0.21572 0.0
C2478 C 0.61647 0.62083 0.28825 0.0
C2479 C 0.63566 0.58198 0.29804 0.0
N2480 N 0.59623 0.61947 0.23929 0.0
N2481 N 0.62023 0.58034 0.27839 0.0
H2482 H 0.31966 0.9358 0.95658 0.0
H2483 H 0.2924 0.80744 0.87645 0.0
H2484 H 0.3135 0.86706 0.98587 0.0
H2485 H 0.31078 0.87503 0.8469 0.0
H2486 H 0.29739 0.8295 0.9161 0.0
H2487 H 0.31414 0.91452 0.91616 0.0
C2488 C 0.3171 0.91621 0.95453 0.0
C2489 C 0.31703 0.9032 0.97473 0.0
C2490 C 0.30039 0.83961 0.90103 0.0
C2491 C 0.3106 0.87869 0.92834 0.0
C2492 C 0.29747 0.82701 0.87828 0.0
C2493 C 0.30134 0.83937 0.85826 0.0
C2494 C 0.3071 0.86496 0.90401 0.0
C2495 C 0.30785 0.86475 0.86184 0.0
C2496 C 0.314 0.90409 0.93141 0.0
C2497 C 0.31369 0.87786 0.97089 0.0
N2498 N 0.3105 0.87672 0.88427 0.0
N2499 N 0.31056 0.86647 0.94823 0.0
H2500 H 0.01795 0.7118 0.75744 0.0
H2501 H 0.11129 0.65026 0.71875 0.0
H2502 H 0.05436 0.66986 0.80154 0.0
H2503 H 0.0637 0.67379 0.66875 0.0
H2504 H 0.09854 0.67023 0.75183 0.0
H2505 H 0.04206 0.70993 0.72776 0.0
C2506 C 0.03128 0.70263 0.76108 0.0
C2507 C 0.03398 0.69055 0.78168 0.0
C2508 C 0.0912 0.67147 0.73359 0.0
C2509 C 0.06155 0.68851 0.7481 0.0
C2510 C 0.09849 0.66012 0.71472 0.0
C2511 C 0.08815 0.65984 0.69104 0.0
C2512 C 0.07338 0.68249 0.72873 0.0
C2513 C 0.07199 0.67336 0.68677 0.0
C2514 C 0.04499 0.70155 0.74416 0.0
C2515 C 0.05152 0.67903 0.78565 0.0
N2516 N 0.06476 0.68372 0.70549 0.0
N2517 N 0.06451 0.67808 0.76889 0.0
H2518 H 0.30528 0.29878 0.47839 0.0
H2519 H 0.31192 0.28363 0.33834 0.0
H2520 H 0.28148 0.23148 0.43273 0.0
H2521 H 0.327 0.35325 0.38047 0.0
H2522 H 0.30089 0.26442 0.37296 0.0
H2523 H 0.31334 0.31929 0.44316 0.0
C2524 C 0.30158 0.28835 0.46093 0.0
C2525 C 0.29271 0.26335 0.45853 0.0
C2526 C 0.30651 0.28391 0.37468 0.0
C2527 C 0.3021 0.28668 0.41814 0.0
C2528 C 0.3128 0.29491 0.35487 0.0
C2529 C 0.32033 0.3201 0.35648 0.0
C2530 C 0.30793 0.29812 0.39647 0.0
C2531 C 0.3213 0.33376 0.37845 0.0
C2532 C 0.30621 0.30008 0.44083 0.0
C2533 C 0.28831 0.25077 0.43547 0.0
N2534 N 0.31527 0.3226 0.39763 0.0
N2535 N 0.29316 0.26251 0.41625 0.0
H2536 H 0.33005 0.64993 0.53291 0.0
H2537 H 0.45724 0.65759 0.53544 0.0
H2538 H 0.37645 0.71741 0.53676 0.0
H2539 H 0.40922 0.59055 0.52307 0.0
H2540 H 0.4283 0.67989 0.53745 0.0
H2541 H 0.35924 0.62798 0.5312 0.0
C2542 C 0.3464 0.66014 0.53344 0.0
C2543 C 0.35081 0.68555 0.53496 0.0
C2544 C 0.4241 0.6603 0.5343 0.0
C2545 C 0.3844 0.6605 0.533 0.0
C2546 C 0.44063 0.64752 0.53299 0.0
C2547 C 0.43576 0.62206 0.52906 0.0
C2548 C 0.40248 0.64759 0.53171 0.0
C2549 C 0.41389 0.61009 0.52649 0.0
C2550 C 0.36308 0.64759 0.53242 0.0
C2551 C 0.37232 0.69782 0.53558 0.0
N2552 N 0.39813 0.62293 0.52787 0.0
N2553 N 0.38831 0.68519 0.53461 0.0
H2554 H 0.91422 0.94271 0.53944 0.0
H2555 H 0.98788 0.07668 0.54851 0.0
H2556 H 0.89115 1.00841 0.55225 0.0
H2557 H 1.01087 0.01215 0.53006 0.0
H2558 H 0.9524 0.05158 0.55013 0.0
H2559 H 0.94992 0.96732 0.53673 0.0
C2560 C 0.9167 0.96229 0.54182 0.0
C2561 C 0.89968 0.97351 0.54612 0.0
C2562 C 0.96513 0.04284 0.54563 0.0
C2563 C 0.9404 1.00176 0.5429 0.0
C2564 C 0.98541 0.0572 0.54466 0.0
C2565 C 1.00236 0.04649 0.53919 0.0
C2566 C 0.96171 0.01749 0.54122 0.0
C2567 C 0.99822 0.02114 0.53433 0.0
C2568 C 0.93704 0.97632 0.54017 0.0
C2569 C 0.90377 0.99895 0.54893 0.0
N2570 N 0.97834 1.00748 0.53557 0.0
N2571 N 0.92365 0.01216 0.54728 0.0
H2572 H 0.82854 0.08729 0.17132 0.0
H2573 H 0.80811 0.21909 0.20224 0.0
H2574 H 0.87802 0.1526 0.19127 0.0
H2575 H 0.76328 0.15351 0.21036 0.0
H2576 H 0.82866 0.19504 0.18133 0.0
H2577 H 0.8007 0.11179 0.17038 0.0
C2578 C 0.83353 0.10682 0.17497 0.0
C2579 C 0.85551 0.11801 0.18184 0.0
C2580 C 0.81398 0.18595 0.18708 0.0
C2581 C 0.824 0.1459 0.18042 0.0
C2582 C 0.80201 0.1997 0.19872 0.0
C2583 C 0.78408 0.18826 0.20834 0.0
C2584 C 0.80812 0.16059 0.1853 0.0
C2585 C 0.77727 0.16298 0.20364 0.0
C2586 C 0.81768 0.12072 0.17443 0.0
C2587 C 0.86119 0.1433 0.18633 0.0
N2588 N 0.78959 0.14988 0.19288 0.0
N2589 N 0.84552 0.1564 0.18573 0.0
H2590 H 0.73984 0.15506 1.00773 0.0
H2591 H 0.63358 0.13987 0.06728 0.0
H2592 H 0.72864 0.21014 0.05821 0.0
H2593 H 0.63336 0.10265 0.99802 0.0
H2594 H 0.67003 0.16294 0.06659 0.0
H2595 H 0.70237 0.13288 1.00599 0.0
C2596 C 0.72947 0.1625 0.01839 0.0
C2597 C 0.73734 0.18444 0.03317 0.0
C2598 C 0.66201 0.14978 0.0515 0.0
C2599 C 0.69467 0.15908 0.03147 0.0
C2600 C 0.64123 0.13648 0.05192 0.0
C2601 C 0.63043 0.11924 0.03268 0.0
C2602 C 0.67231 0.14559 0.03189 0.0
C2603 C 0.64111 0.1158 0.0132 0.0
C2604 C 0.70811 0.14989 0.01732 0.0
C2605 C 0.72322 0.19331 0.04656 0.0
N2606 N 0.66158 0.12872 0.01338 0.0
N2607 N 0.70264 0.18049 0.04556 0.0
H2608 H 0.20099 0.43187 0.22661 0.0
H2609 H 0.26002 0.36246 0.3219 0.0
H2610 H 0.18271 0.43021 0.29685 0.0
H2611 H 0.29377 0.40516 0.27367 0.0
H2612 H 0.2289 0.38141 0.31153 0.0
H2613 H 0.23172 0.41397 0.24085 0.0
C2614 C 0.20317 0.42726 0.24489 0.0
C2615 C 0.18936 0.43258 0.26063 0.0
C2616 C 0.24331 0.38689 0.30363 0.0
C2617 C 0.22454 0.41239 0.27699 0.0
C2618 C 0.26107 0.37625 0.3096 0.0
C2619 C 0.27945 0.3823 0.2986 0.0
C2620 C 0.24387 0.40316 0.28616 0.0
C2621 C 0.27998 0.40011 0.28268 0.0
C2622 C 0.22086 0.41738 0.25306 0.0
C2623 C 0.19305 0.42639 0.28419 0.0
N2624 N 0.26224 0.40959 0.27657 0.0
N2625 N 0.21036 0.41655 0.29173 0.0
H2626 H 0.26441 0.43527 0.04838 0.0
H2627 H 0.22587 0.5606 0.06863 0.0
H2628 H 0.3083 0.50425 0.07129 0.0
H2629 H 0.18144 0.49194 0.04555 0.0
H2630 H 0.25607 0.53992 0.07102 0.0
H2631 H 0.23374 0.45532 0.04833 0.0
C2632 C 0.26759 0.45463 0.05348 0.0
C2633 C 0.28895 0.46813 0.05981 0.0
C2634 C 0.23972 0.52933 0.0655 0.0
C2635 C 0.25392 0.49122 0.05975 0.0
C2636 C 0.2224 0.54112 0.0643 0.0
C2637 C 0.20098 0.52802 0.05695 0.0
C2638 C 0.23573 0.50417 0.05928 0.0
C2639 C 0.19765 0.50285 0.05106 0.0
C2640 C 0.25007 0.46607 0.05343 0.0
C2641 C 0.29211 0.49315 0.06626 0.0
N2642 N 0.21482 0.49176 0.05234 0.0
N2643 N 0.2748 0.50388 0.06601 0.0
H2644 H 0.85678 0.99378 0.17569 0.0
H2645 H 0.83328 0.91292 0.28176 0.0
H2646 H 0.87208 0.02228 0.25034 0.0
H2647 H 0.79495 0.8955 0.21094 0.0
H2648 H 0.85188 0.95093 0.26941 0.0
H2649 H 0.8378 0.95525 0.18717 0.0
C2650 C 0.85611 0.99192 0.19445 0.0
C2651 C 0.86592 0.01119 0.2121 0.0
C2652 C 0.83936 0.93881 0.2566 0.0
C2653 C 0.84466 0.96738 0.22529 0.0
C2654 C 0.8288 0.91714 0.26361 0.0
C2655 C 0.8125 0.90123 0.24736 0.0
C2656 C 0.8338 0.94441 0.23307 0.0
C2657 C 0.80735 0.90744 0.22403 0.0
C2658 C 0.84527 0.97003 0.20096 0.0
C2659 C 0.86463 1.0079 0.23616 0.0
N2660 N 0.81805 0.92856 0.2175 0.0
N2661 N 0.85432 0.98636 0.24206 0.0
H2662 H 0.66056 0.0707 0.8069 0.0
H2663 H 0.7653 0.152 0.77235 0.0
H2664 H 0.71437 0.04218 0.78774 0.0
H2665 H 0.71719 0.18182 0.80344 0.0
H2666 H 0.74851 0.11183 0.78156 0.0
H2667 H 0.68275 0.1117 0.8104 0.0
C2668 C 0.6772 0.07305 0.80393 0.0
C2669 C 0.68556 0.0531 0.79666 0.0
C2670 C 0.74175 0.12718 0.78665 0.0
C2671 C 0.71086 0.09985 0.80018 0.0
C2672 C 0.75124 0.15005 0.78123 0.0
C2673 C 0.74243 0.17014 0.78688 0.0
C2674 C 0.72313 0.12432 0.7975 0.0
C2675 C 0.72446 0.16676 0.79877 0.0
C2676 C 0.68984 0.09645 0.80585 0.0
C2677 C 0.70722 0.05711 0.79314 0.0
N2678 N 0.71521 0.14421 0.8034 0.0
N2679 N 0.71901 0.08007 0.79453 0.0
loop_
_geom_bond_atom_site_label_1
_geom_bond_atom_site_label_2
_geom_bond_distance
_geom_bond_site_symmetry_2
_ccdc_geom_bond_type
In0 O1 2.294 . S
In0 O2 2.326 . S
In0 O6 2.266 1_455 S
In0 O7 2.326 1_455 S
In0 O8 2.266 . S
In0 O9 2.326 . S
In0 O11 2.294 . S
In0 O12 2.326 . S
O1 In0 2.294 . S
O1 C10 1.240 . S
O2 In0 2.326 . S
O2 C10 1.252 . S
C3 O6 1.252 . S
C3 O7 1.260 . S
C4 O11 1.240 . S
C4 O12 1.252 . S
C5 O8 1.252 . S
C5 O9 1.260 . S
O6 In0 2.266 1_655 S
O6 C3 1.252 . S
O7 In0 2.326 1_655 S
O7 C3 1.260 . S
O8 In0 2.266 . S
O8 C5 1.252 . S
O9 In0 2.326 . S
O9 C5 1.260 . S
C10 O1 1.240 . S
C10 O2 1.252 . S
O11 In0 2.294 . S
O11 C4 1.240 . S
O12 In0 2.326 . S
O12 C4 1.252 . S
In13 O14 2.294 . S
In13 O15 2.326 . S
In13 O19 2.266 . S
In13 O20 2.326 . S
In13 O21 2.266 . S
In13 O22 2.326 . S
In13 O24 2.294 . S
In13 O25 2.326 . S
O14 In13 2.294 . S
O14 C23 1.240 . S
O15 In13 2.326 . S
O15 C23 1.252 . S
C16 O19 1.252 . S
C16 O20 1.260 . S
C17 O24 1.240 . S
C17 O25 1.252 . S
C18 O21 1.252 . S
C18 O22 1.260 . S
O19 In13 2.266 . S
O19 C16 1.252 . S
O20 In13 2.326 . S
O20 C16 1.260 . S
O21 In13 2.266 . S
O21 C18 1.252 . S
O22 In13 2.326 . S
O22 C18 1.260 . S
C23 O14 1.240 . S
C23 O15 1.252 . S
O24 In13 2.294 . S
O24 C17 1.240 . S
O25 In13 2.326 . S
O25 C17 1.252 . S
In26 O27 2.294 . S
In26 O28 2.326 . S
In26 O32 2.266 . S
In26 O33 2.326 . S
In26 O34 2.266 . S
In26 O35 2.326 . S
In26 O37 2.294 . S
In26 O38 2.326 . S
O27 In26 2.294 . S
O27 C36 1.240 . S
O28 In26 2.326 . S
O28 C36 1.252 . S
C29 O32 1.252 . S
C29 O33 1.260 . S
C30 O37 1.240 . S
C30 O38 1.252 . S
C31 O34 1.252 . S
C31 O35 1.260 . S
O32 In26 2.266 . S
O32 C29 1.252 . S
O33 In26 2.326 . S
O33 C29 1.260 . S
O34 In26 2.266 . S
O34 C31 1.252 . S
O35 In26 2.326 . S
O35 C31 1.260 . S
C36 O27 1.240 . S
C36 O28 1.252 . S
O37 In26 2.294 . S
O37 C30 1.240 . S
O38 In26 2.326 . S
O38 C30 1.252 . S
In39 O40 2.294 . S
In39 O41 2.326 . S
In39 O45 2.266 . S
In39 O46 2.326 . S
In39 O47 2.266 . S
In39 O48 2.326 . S
In39 O50 2.294 . S
In39 O51 2.326 . S
O40 In39 2.294 . S
O40 C49 1.240 . S
O41 In39 2.326 . S
O41 C49 1.252 . S
C42 O45 1.252 . S
C42 O46 1.260 . S
C43 O50 1.240 . S
C43 O51 1.252 . S
C44 O47 1.252 . S
C44 O48 1.260 . S
O45 In39 2.266 . S
O45 C42 1.252 . S
O46 In39 2.326 . S
O46 C42 1.260 . S
O47 In39 2.266 . S
O47 C44 1.252 . S
O48 In39 2.326 . S
O48 C44 1.260 . S
C49 O40 1.240 . S
C49 O41 1.252 . S
O50 In39 2.294 . S
O50 C43 1.240 . S
O51 In39 2.326 . S
O51 C43 1.252 . S
In52 O53 2.294 . S
In52 O54 2.326 . S
In52 O58 2.266 . S
In52 O59 2.326 . S
In52 O60 2.266 . S
In52 O61 2.326 . S
In52 O63 2.294 . S
In52 O64 2.326 . S
O53 In52 2.294 . S
O53 C62 1.240 . S
O54 In52 2.326 . S
O54 C62 1.252 . S
C55 O58 1.252 . S
C55 O59 1.260 . S
C56 O63 1.240 . S
C56 O64 1.252 . S
C57 O60 1.252 . S
C57 O61 1.260 . S
O58 In52 2.266 . S
O58 C55 1.252 . S
O59 In52 2.326 . S
O59 C55 1.260 . S
O60 In52 2.266 . S
O60 C57 1.252 . S
O61 In52 2.326 . S
O61 C57 1.260 . S
C62 O53 1.240 . S
C62 O54 1.252 . S
O63 In52 2.294 . S
O63 C56 1.240 . S
O64 In52 2.326 . S
O64 C56 1.252 . S
In65 O66 2.294 . S
In65 O67 2.326 . S
In65 O71 2.266 . S
In65 O72 2.326 . S
In65 O73 2.266 . S
In65 O74 2.326 . S
In65 O76 2.294 . S
In65 O77 2.326 . S
O66 In65 2.294 . S
O66 C75 1.240 . S
O67 In65 2.326 . S
O67 C75 1.252 . S
C68 O71 1.252 . S
C68 O72 1.260 . S
C69 O76 1.240 . S
C69 O77 1.252 . S
C70 O73 1.252 . S
C70 O74 1.260 . S
O71 In65 2.266 . S
O71 C68 1.252 . S
O72 In65 2.326 . S
O72 C68 1.260 . S
O73 In65 2.266 . S
O73 C70 1.252 . S
O74 In65 2.326 . S
O74 C70 1.260 . S
C75 O66 1.240 . S
C75 O67 1.252 . S
O76 In65 2.294 . S
O76 C69 1.240 . S
O77 In65 2.326 . S
O77 C69 1.252 . S
In78 O79 2.294 . S
In78 O80 2.326 . S
In78 O84 2.266 . S
In78 O85 2.326 . S
In78 O86 2.266 . S
In78 O87 2.326 . S
In78 O89 2.294 . S
In78 O90 2.326 . S
O79 In78 2.294 . S
O79 C88 1.240 . S
O80 In78 2.326 . S
O80 C88 1.252 . S
C81 O84 1.252 . S
C81 O85 1.260 . S
C82 O89 1.240 . S
C82 O90 1.252 . S
C83 O86 1.252 . S
C83 O87 1.260 . S
O84 In78 2.266 . S
O84 C81 1.252 . S
O85 In78 2.326 . S
O85 C81 1.260 . S
O86 In78 2.266 . S
O86 C83 1.252 . S
O87 In78 2.326 . S
O87 C83 1.260 . S
C88 O79 1.240 . S
C88 O80 1.252 . S
O89 In78 2.294 . S
O89 C82 1.240 . S
O90 In78 2.326 . S
O90 C82 1.252 . S
In91 O92 2.294 . S
In91 O93 2.326 . S
In91 O97 2.266 . S
In91 O98 2.326 . S
In91 O99 2.254 1_455 S
In91 O100 2.326 1_455 S
In91 O102 2.294 . S
In91 O103 2.326 . S
O92 In91 2.294 . S
O92 C101 1.240 . S
O93 In91 2.326 . S
O93 C101 1.252 . S
C94 O97 1.252 . S
C94 O98 1.260 . S
C95 O102 1.240 . S
C95 O103 1.252 . S
C96 O99 1.269 . S
C96 O100 1.260 . S
O97 In91 2.266 . S
O97 C94 1.252 . S
O98 In91 2.326 . S
O98 C94 1.260 . S
O99 In91 2.254 1_655 S
O99 C96 1.269 . S
O100 In91 2.326 1_655 S
O100 C96 1.260 . S
C101 O92 1.240 . S
C101 O93 1.252 . S
O102 In91 2.294 . S
O102 C95 1.240 . S
O103 In91 2.326 . S
O103 C95 1.252 . S
In104 O105 2.294 . S
In104 O106 2.326 . S
In104 O110 2.266 . S
In104 O111 2.326 . S
In104 O112 2.266 . S
In104 O113 2.326 . S
In104 O115 2.294 . S
In104 O116 2.326 . S
O105 In104 2.294 . S
O105 C114 1.240 . S
O106 In104 2.326 . S
O106 C114 1.252 . S
C107 O110 1.252 . S
C107 O111 1.260 . S
C108 O115 1.240 . S
C108 O116 1.252 . S
C109 O112 1.252 . S
C109 O113 1.260 . S
O110 In104 2.266 . S
O110 C107 1.252 . S
O111 In104 2.326 . S
O111 C107 1.260 . S
O112 In104 2.266 . S
O112 C109 1.252 . S
O113 In104 2.326 . S
O113 C109 1.260 . S
C114 O105 1.240 . S
C114 O106 1.252 . S
O115 In104 2.294 . S
O115 C108 1.240 . S
O116 In104 2.326 . S
O116 C108 1.252 . S
In117 O118 2.294 . S
In117 O119 2.326 . S
In117 O123 2.266 . S
In117 O124 2.326 . S
In117 O125 2.266 . S
In117 O126 2.326 . S
In117 O128 2.294 . S
In117 O129 2.326 . S
O118 In117 2.294 . S
O118 C127 1.240 . S
O119 In117 2.326 . S
O119 C127 1.252 . S
C120 O123 1.252 . S
C120 O124 1.260 . S
C121 O128 1.240 . S
C121 O129 1.252 . S
C122 O125 1.252 . S
C122 O126 1.260 . S
O123 In117 2.266 . S
O123 C120 1.252 . S
O124 In117 2.326 . S
O124 C120 1.260 . S
O125 In117 2.266 . S
O125 C122 1.252 . S
O126 In117 2.326 . S
O126 C122 1.260 . S
C127 O118 1.240 . S
C127 O119 1.252 . S
O128 In117 2.294 . S
O128 C121 1.240 . S
O129 In117 2.326 . S
O129 C121 1.252 . S
In130 O131 2.294 . S
In130 O132 2.326 . S
In130 O136 2.266 . S
In130 O137 2.326 . S
In130 O138 2.266 . S
In130 O139 2.326 . S
In130 O141 2.294 . S
In130 O142 2.326 . S
O131 In130 2.294 . S
O131 C140 1.240 . S
O132 In130 2.326 . S
O132 C140 1.252 . S
C133 O136 1.252 . S
C133 O137 1.260 . S
C134 O141 1.240 . S
C134 O142 1.252 . S
C135 O138 1.252 . S
C135 O139 1.260 . S
O136 In130 2.266 . S
O136 C133 1.252 . S
O137 In130 2.326 . S
O137 C133 1.260 . S
O138 In130 2.266 . S
O138 C135 1.252 . S
O139 In130 2.326 . S
O139 C135 1.260 . S
C140 O131 1.240 . S
C140 O132 1.252 . S
O141 In130 2.294 . S
O141 C134 1.240 . S
O142 In130 2.326 . S
O142 C134 1.252 . S
In143 O144 2.294 . S
In143 O145 2.326 . S
In143 O149 2.266 . S
In143 O150 2.326 . S
In143 O151 2.266 . S
In143 O152 2.326 . S
In143 O154 2.294 . S
In143 O155 2.326 . S
O144 In143 2.294 . S
O144 C153 1.240 . S
O145 In143 2.326 . S
O145 C153 1.252 . S
C146 O149 1.252 . S
C146 O150 1.260 . S
C147 O154 1.240 . S
C147 O155 1.252 . S
C148 O151 1.252 . S
C148 O152 1.260 . S
O149 In143 2.266 . S
O149 C146 1.252 . S
O150 In143 2.326 . S
O150 C146 1.260 . S
O151 In143 2.266 . S
O151 C148 1.252 . S
O152 In143 2.326 . S
O152 C148 1.260 . S
C153 O144 1.240 . S
C153 O145 1.252 . S
O154 In143 2.294 . S
O154 C147 1.240 . S
O155 In143 2.326 . S
O155 C147 1.252 . S
In156 O157 2.294 . S
In156 O158 2.326 . S
In156 O162 2.266 . S
In156 O163 2.326 1_554 S
In156 O164 2.266 . S
In156 O165 2.326 . S
In156 O167 2.294 . S
In156 O168 2.326 . S
O157 In156 2.294 . S
O157 C166 1.240 . S
O158 In156 2.326 . S
O158 C166 1.252 . S
C159 O162 1.252 1_556 S
C159 O163 1.260 . S
C160 O167 1.240 . S
C160 O168 1.252 . S
C161 O164 1.252 . S
C161 O165 1.260 . S
O162 In156 2.266 . S
O162 C159 1.252 1_554 S
O163 In156 2.326 1_556 S
O163 C159 1.260 . S
O164 In156 2.266 . S
O164 C161 1.252 . S
O165 In156 2.326 . S
O165 C161 1.260 . S
C166 O157 1.240 . S
C166 O158 1.252 . S
O167 In156 2.294 . S
O167 C160 1.240 . S
O168 In156 2.326 . S
O168 C160 1.252 . S
In169 O170 2.294 . S
In169 O171 2.326 . S
In169 O175 2.266 1_554 S
In169 O176 2.326 1_554 S
In169 O177 2.264 1_554 S
In169 O178 2.322 1_554 S
In169 O180 2.296 . S
In169 O181 2.330 . S
O170 In169 2.294 . S
O170 C179 1.240 . S
O171 In169 2.326 . S
O171 C179 1.252 . S
C172 O175 1.252 . S
C172 O176 1.260 . S
C173 O180 1.240 . S
C173 O181 1.252 . S
C174 O177 1.252 . S
C174 O178 1.260 . S
O175 In169 2.266 1_556 S
O175 C172 1.252 . S
O176 In169 2.326 1_556 S
O176 C172 1.260 . S
O177 In169 2.264 1_556 S
O177 C174 1.252 . S
O178 In169 2.322 1_556 S
O178 C174 1.260 . S
C179 O170 1.240 . S
C179 O171 1.252 . S
O180 In169 2.296 . S
O180 C173 1.240 . S
O181 In169 2.330 . S
O181 C173 1.252 . S
In182 O183 2.294 . S
In182 O184 2.326 . S
In182 O188 2.266 . S
In182 O189 2.326 . S
In182 O190 2.266 . S
In182 O191 2.326 . S
In182 O193 2.294 . S
In182 O194 2.326 . S
O183 In182 2.294 . S
O183 C192 1.240 . S
O184 In182 2.326 . S
O184 C192 1.252 . S
C185 O188 1.252 . S
C185 O189 1.260 . S
C186 O193 1.240 . S
C186 O194 1.252 . S
C187 O190 1.252 . S
C187 O191 1.260 . S
O188 In182 2.266 . S
O188 C185 1.252 . S
O189 In182 2.326 . S
O189 C185 1.260 . S
O190 In182 2.266 . S
O190 C187 1.252 . S
O191 In182 2.326 . S
O191 C187 1.260 . S
C192 O183 1.240 . S
C192 O184 1.252 . S
O193 In182 2.294 . S
O193 C186 1.240 . S
O194 In182 2.326 . S
O194 C186 1.252 . S
In195 O196 2.294 . S
In195 O197 2.326 . S
In195 O201 2.266 . S
In195 O202 2.326 . S
In195 O203 2.266 . S
In195 O204 2.326 . S
In195 O206 2.294 . S
In195 O207 2.326 . S
O196 In195 2.294 . S
O196 C205 1.240 . S
O197 In195 2.326 . S
O197 C205 1.252 . S
C198 O201 1.252 . S
C198 O202 1.260 . S
C199 O206 1.240 . S
C199 O207 1.252 . S
C200 O203 1.252 . S
C200 O204 1.260 . S
O201 In195 2.266 . S
O201 C198 1.252 . S
O202 In195 2.326 . S
O202 C198 1.260 . S
O203 In195 2.266 . S
O203 C200 1.252 . S
O204 In195 2.326 . S
O204 C200 1.260 . S
C205 O196 1.240 . S
C205 O197 1.252 . S
O206 In195 2.294 . S
O206 C199 1.240 . S
O207 In195 2.326 . S
O207 C199 1.252 . S
In208 O209 2.294 . S
In208 O210 2.326 . S
In208 O214 2.266 . S
In208 O215 2.326 . S
In208 O216 2.266 . S
In208 O217 2.326 . S
In208 O219 2.294 . S
In208 O220 2.326 . S
O209 In208 2.294 . S
O209 C218 1.240 . S
O210 In208 2.326 . S
O210 C218 1.252 . S
C211 O214 1.252 . S
C211 O215 1.260 . S
C212 O219 1.240 . S
C212 O220 1.252 . S
C213 O216 1.252 1_565 S
C213 O217 1.260 1_565 S
O214 In208 2.266 . S
O214 C211 1.252 . S
O215 In208 2.326 . S
O215 C211 1.260 . S
O216 In208 2.266 . S
O216 C213 1.252 1_545 S
O217 In208 2.326 . S
O217 C213 1.260 1_545 S
C218 O209 1.240 . S
C218 O210 1.252 . S
O219 In208 2.294 . S
O219 C212 1.240 . S
O220 In208 2.326 . S
O220 C212 1.252 . S
In221 O222 2.294 . S
In221 O223 2.326 . S
In221 O227 2.266 . S
In221 O228 2.326 . S
In221 O229 2.266 . S
In221 O230 2.326 . S
In221 O232 2.294 . S
In221 O233 2.326 . S
O222 In221 2.294 . S
O222 C231 1.240 . S
O223 In221 2.326 . S
O223 C231 1.252 . S
C224 O227 1.252 . S
C224 O228 1.260 . S
C225 O232 1.240 . S
C225 O233 1.252 . S
C226 O229 1.252 . S
C226 O230 1.260 . S
O227 In221 2.266 . S
O227 C224 1.252 . S
O228 In221 2.326 . S
O228 C224 1.260 . S
O229 In221 2.266 . S
O229 C226 1.252 . S
O230 In221 2.326 . S
O230 C226 1.260 . S
C231 O222 1.240 . S
C231 O223 1.252 . S
O232 In221 2.294 . S
O232 C225 1.240 . S
O233 In221 2.326 . S
O233 C225 1.252 . S
In234 O235 2.294 . S
In234 O236 2.326 . S
In234 O240 2.266 . S
In234 O241 2.326 . S
In234 O242 2.266 . S
In234 O243 2.326 . S
In234 O245 2.294 . S
In234 O246 2.326 . S
O235 In234 2.294 . S
O235 C244 1.240 . S
O236 In234 2.326 . S
O236 C244 1.252 . S
C237 O240 1.252 . S
C237 O241 1.260 . S
C238 O245 1.240 . S
C238 O246 1.252 . S
C239 O242 1.252 . S
C239 O243 1.260 . S
O240 In234 2.266 . S
O240 C237 1.252 . S
O241 In234 2.326 . S
O241 C237 1.260 . S
O242 In234 2.266 . S
O242 C239 1.252 . S
O243 In234 2.326 . S
O243 C239 1.260 . S
C244 O235 1.240 . S
C244 O236 1.252 . S
O245 In234 2.294 . S
O245 C238 1.240 . S
O246 In234 2.326 . S
O246 C238 1.252 . S
In247 O248 2.292 1_545 S
In247 O249 2.324 1_545 S
In247 O253 2.268 . S
In247 O254 2.328 . S
In247 O255 2.267 . S
In247 O256 2.326 . S
In247 O258 2.294 1_545 S
In247 O259 2.326 1_545 S
O248 In247 2.292 1_565 S
O248 C257 1.240 . S
O249 In247 2.324 1_565 S
O249 C257 1.252 . S
C250 O253 1.252 . S
C250 O254 1.260 . S
C251 O258 1.240 . S
C251 O259 1.252 . S
C252 O255 1.252 . S
C252 O256 1.260 . S
O253 In247 2.268 . S
O253 C250 1.252 . S
O254 In247 2.328 . S
O254 C250 1.260 . S
O255 In247 2.267 . S
O255 C252 1.252 . S
O256 In247 2.326 . S
O256 C252 1.260 . S
C257 O248 1.240 . S
C257 O249 1.252 . S
O258 In247 2.294 1_565 S
O258 C251 1.240 . S
O259 In247 2.326 1_565 S
O259 C251 1.252 . S
In260 O261 2.294 . S
In260 O262 2.326 . S
In260 O266 2.266 . S
In260 O267 2.326 . S
In260 O268 2.266 1_554 S
In260 O269 2.326 1_554 S
In260 O271 2.294 . S
In260 O272 2.326 . S
O261 In260 2.294 . S
O261 C270 1.240 . S
O262 In260 2.326 . S
O262 C270 1.252 . S
C263 O266 1.252 . S
C263 O267 1.260 . S
C264 O271 1.240 . S
C264 O272 1.252 . S
C265 O268 1.252 . S
C265 O269 1.260 . S
O266 In260 2.266 . S
O266 C263 1.252 . S
O267 In260 2.326 . S
O267 C263 1.260 . S
O268 In260 2.266 1_556 S
O268 C265 1.252 . S
O269 In260 2.326 1_556 S
O269 C265 1.260 . S
C270 O261 1.240 . S
C270 O262 1.252 . S
O271 In260 2.294 . S
O271 C264 1.240 . S
O272 In260 2.326 . S
O272 C264 1.252 . S
In273 O274 2.294 . S
In273 O275 2.326 . S
In273 O279 2.266 . S
In273 O280 2.326 . S
In273 O281 2.266 . S
In273 O282 2.326 . S
In273 O284 2.294 . S
In273 O285 2.326 . S
O274 In273 2.294 . S
O274 C283 1.240 . S
O275 In273 2.326 . S
O275 C283 1.252 . S
C276 O279 1.252 . S
C276 O280 1.260 . S
C277 O284 1.240 . S
C277 O285 1.252 . S
C278 O281 1.252 . S
C278 O282 1.260 . S
O279 In273 2.266 . S
O279 C276 1.252 . S
O280 In273 2.326 . S
O280 C276 1.260 . S
O281 In273 2.266 . S
O281 C278 1.252 . S
O282 In273 2.326 . S
O282 C278 1.260 . S
C283 O274 1.240 . S
C283 O275 1.252 . S
O284 In273 2.294 . S
O284 C277 1.240 . S
O285 In273 2.326 . S
O285 C277 1.252 . S
In286 O287 2.294 . S
In286 O288 2.326 . S
In286 O292 2.266 . S
In286 O293 2.326 . S
In286 O294 2.266 . S
In286 O295 2.326 . S
In286 O297 2.294 . S
In286 O298 2.326 . S
O287 In286 2.294 . S
O287 C296 1.240 . S
O288 In286 2.326 . S
O288 C296 1.252 . S
C289 O292 1.252 . S
C289 O293 1.260 . S
C290 O297 1.240 . S
C290 O298 1.252 . S
C291 O294 1.252 . S
C291 O295 1.260 . S
O292 In286 2.266 . S
O292 C289 1.252 . S
O293 In286 2.326 . S
O293 C289 1.260 . S
O294 In286 2.266 . S
O294 C291 1.252 . S
O295 In286 2.326 . S
O295 C291 1.260 . S
C296 O287 1.240 . S
C296 O288 1.252 . S
O297 In286 2.294 . S
O297 C290 1.240 . S
O298 In286 2.326 . S
O298 C290 1.252 . S
In299 O300 2.294 . S
In299 O301 2.326 . S
In299 O305 2.266 . S
In299 O306 2.326 . S
In299 O307 2.266 . S
In299 O308 2.326 . S
In299 O310 2.294 . S
In299 O311 2.326 . S
O300 In299 2.294 . S
O300 C309 1.240 . S
O301 In299 2.326 . S
O301 C309 1.252 . S
C302 O305 1.252 . S
C302 O306 1.260 . S
C303 O310 1.240 . S
C303 O311 1.252 . S
C304 O307 1.252 . S
C304 O308 1.260 . S
O305 In299 2.266 . S
O305 C302 1.252 . S
O306 In299 2.326 . S
O306 C302 1.260 . S
O307 In299 2.266 . S
O307 C304 1.252 . S
O308 In299 2.326 . S
O308 C304 1.260 . S
C309 O300 1.240 . S
C309 O301 1.252 . S
O310 In299 2.294 . S
O310 C303 1.240 . S
O311 In299 2.326 . S
O311 C303 1.252 . S
Pr312 C314 2.880 1_455 S
Pr312 O332 2.562 . S
Pr312 O333 2.490 1_554 S
Pr312 O334 2.695 . S
Pr312 O335 2.512 1_554 S
Pr312 O337 2.437 . S
Pr312 O340 2.436 . S
Pr312 O342 2.438 . S
Pr313 C323 2.880 . S
Pr313 O334 2.436 . S
Pr313 O336 2.438 . S
Pr313 O338 2.562 . S
Pr313 O339 2.490 . S
Pr313 O340 2.695 . S
Pr313 O341 2.512 . S
Pr313 O343 2.437 . S
C314 Pr312 2.880 1_655 S
C314 C315 1.500 . S
C314 O332 1.254 1_655 S
C314 O333 1.225 1_654 S
C315 C314 1.500 . S
C315 C316 1.361 1_554 S
C315 C320 1.378 . S
C316 C315 1.361 1_556 S
C316 C317 1.368 . S
C316 H344 0.929 . S
C317 C316 1.368 . S
C317 C318 1.386 . S
C317 H345 0.929 . S
C318 C317 1.386 . S
C318 C319 1.373 1_556 S
C319 C318 1.373 1_554 S
C319 C320 1.409 . S
C319 H346 0.931 . S
C320 C315 1.378 . S
C320 C319 1.409 . S
C320 H347 0.930 . S
C321 O334 1.270 . S
C321 O335 1.248 1_554 S
C322 O336 1.267 . S
C322 O337 1.278 . S
C323 Pr313 2.880 . S
C323 C324 1.491 . S
C323 O338 1.254 . S
C323 O339 1.225 . S
C324 C323 1.491 . S
C324 C325 1.392 . S
C324 C329 1.356 . S
C325 C324 1.392 . S
C325 C326 1.368 . S
C325 H348 0.929 . S
C326 C325 1.368 . S
C326 C327 1.386 . S
C326 H349 0.929 . S
C327 C326 1.386 . S
C327 C328 1.373 . S
C328 C327 1.373 . S
C328 C329 1.409 . S
C328 H350 0.931 . S
C329 C324 1.356 . S
C329 C328 1.409 . S
C329 H351 0.930 . S
C330 O340 1.270 . S
C330 O341 1.248 . S
C331 O342 1.267 . S
C331 O343 1.278 . S
O332 Pr312 2.562 . S
O332 C314 1.254 1_455 S
O333 Pr312 2.490 1_556 S
O333 C314 1.225 1_456 S
O334 Pr312 2.695 . S
O334 Pr313 2.436 . S
O334 C321 1.270 . S
O335 Pr312 2.512 1_556 S
O335 C321 1.248 1_556 S
O336 Pr313 2.438 . S
O336 C322 1.267 . S
O337 Pr312 2.437 . S
O337 C322 1.278 . S
O338 Pr313 2.562 . S
O338 C323 1.254 . S
O339 Pr313 2.490 . S
O339 C323 1.225 . S
O340 Pr312 2.436 . S
O340 Pr313 2.695 . S
O340 C330 1.270 . S
O341 Pr313 2.512 . S
O341 C330 1.248 . S
O342 Pr312 2.438 . S
O342 C331 1.267 . S
O343 Pr313 2.437 . S
O343 C331 1.278 . S
H344 C316 0.929 . S
H345 C317 0.929 . S
H346 C319 0.931 . S
H347 C320 0.930 . S
H348 C325 0.929 . S
H349 C326 0.929 . S
H350 C328 0.931 . S
H351 C329 0.930 . S
Pr352 C354 2.880 . S
Pr352 O372 2.562 . S
Pr352 O373 2.490 . S
Pr352 O374 2.695 . S
Pr352 O375 2.512 . S
Pr352 O377 2.437 . S
Pr352 O380 2.436 . S
Pr352 O382 2.438 . S
Pr353 C363 2.880 . S
Pr353 O374 2.436 . S
Pr353 O376 2.438 . S
Pr353 O378 2.562 . S
Pr353 O379 2.490 . S
Pr353 O380 2.695 . S
Pr353 O381 2.512 . S
Pr353 O383 2.437 . S
C354 Pr352 2.880 . S
C354 C355 1.491 . S
C354 O372 1.254 . S
C354 O373 1.225 . S
C355 C354 1.491 . S
C355 C356 1.392 . S
C355 C360 1.356 . S
C356 C355 1.392 . S
C356 C357 1.368 . S
C356 H384 0.929 . S
C357 C356 1.368 . S
C357 C358 1.386 . S
C357 H385 0.929 . S
C358 C357 1.386 . S
C358 C359 1.373 . S
C359 C358 1.373 . S
C359 C360 1.409 . S
C359 H386 0.931 . S
C360 C355 1.356 . S
C360 C359 1.409 . S
C360 H387 0.930 . S
C361 O374 1.270 . S
C361 O375 1.248 . S
C362 O376 1.267 . S
C362 O377 1.278 . S
C363 Pr353 2.880 . S
C363 C364 1.491 . S
C363 O378 1.254 . S
C363 O379 1.225 . S
C364 C363 1.491 . S
C364 C365 1.392 . S
C364 C369 1.356 . S
C365 C364 1.392 . S
C365 C366 1.368 . S
C365 H388 0.929 . S
C366 C365 1.368 . S
C366 C367 1.386 . S
C366 H389 0.929 . S
C367 C366 1.386 . S
C367 C368 1.373 . S
C368 C367 1.373 . S
C368 C369 1.409 . S
C368 H390 0.931 . S
C369 C364 1.356 . S
C369 C368 1.409 . S
C369 H391 0.930 . S
C370 O380 1.270 . S
C370 O381 1.248 . S
C371 O382 1.267 . S
C371 O383 1.278 . S
O372 Pr352 2.562 . S
O372 C354 1.254 . S
O373 Pr352 2.490 . S
O373 C354 1.225 . S
O374 Pr352 2.695 . S
O374 Pr353 2.436 . S
O374 C361 1.270 . S
O375 Pr352 2.512 . S
O375 C361 1.248 . S
O376 Pr353 2.438 . S
O376 C362 1.267 . S
O377 Pr352 2.437 . S
O377 C362 1.278 . S
O378 Pr353 2.562 . S
O378 C363 1.254 . S
O379 Pr353 2.490 . S
O379 C363 1.225 . S
O380 Pr352 2.436 . S
O380 Pr353 2.695 . S
O380 C370 1.270 . S
O381 Pr353 2.512 . S
O381 C370 1.248 . S
O382 Pr352 2.438 . S
O382 C371 1.267 . S
O383 Pr353 2.437 . S
O383 C371 1.278 . S
H384 C356 0.929 . S
H385 C357 0.929 . S
H386 C359 0.931 . S
H387 C360 0.930 . S
H388 C365 0.929 . S
H389 C366 0.929 . S
H390 C368 0.931 . S
H391 C369 0.930 . S
Pr392 C394 2.880 . S
Pr392 O412 2.562 . S
Pr392 O413 2.490 . S
Pr392 O414 2.695 . S
Pr392 O415 2.512 . S
Pr392 O417 2.437 . S
Pr392 O420 2.436 . S
Pr392 O422 2.438 . S
Pr393 C403 2.880 . S
Pr393 O414 2.436 . S
Pr393 O416 2.438 . S
Pr393 O418 2.562 . S
Pr393 O419 2.490 . S
Pr393 O420 2.695 . S
Pr393 O421 2.512 . S
Pr393 O423 2.437 . S
C394 Pr392 2.880 . S
C394 C395 1.491 . S
C394 O412 1.254 . S
C394 O413 1.225 . S
C395 C394 1.491 . S
C395 C396 1.392 . S
C395 C400 1.356 . S
C396 C395 1.392 . S
C396 C397 1.368 . S
C396 H424 0.929 . S
C397 C396 1.368 . S
C397 C398 1.386 . S
C397 H425 0.929 . S
C398 C397 1.386 . S
C398 C399 1.373 1_545 S
C399 C398 1.373 1_565 S
C399 C400 1.409 1_565 S
C399 H426 0.931 . S
C400 C395 1.356 . S
C400 C399 1.409 1_545 S
C400 H427 0.930 . S
C401 O414 1.270 . S
C401 O415 1.248 . S
C402 O416 1.267 . S
C402 O417 1.278 . S
C403 Pr393 2.880 . S
C403 C404 1.491 . S
C403 O418 1.254 . S
C403 O419 1.225 . S
C404 C403 1.491 . S
C404 C405 1.392 . S
C404 C409 1.356 . S
C405 C404 1.392 . S
C405 C406 1.368 . S
C405 H428 0.929 . S
C406 C405 1.368 . S
C406 C407 1.386 . S
C406 H429 0.929 . S
C407 C406 1.386 . S
C407 C408 1.373 . S
C408 C407 1.373 . S
C408 C409 1.409 . S
C408 H430 0.931 . S
C409 C404 1.356 . S
C409 C408 1.409 . S
C409 H431 0.930 . S
C410 O420 1.270 . S
C410 O421 1.248 . S
C411 O422 1.267 . S
C411 O423 1.278 . S
O412 Pr392 2.562 . S
O412 C394 1.254 . S
O413 Pr392 2.490 . S
O413 C394 1.225 . S
O414 Pr392 2.695 . S
O414 Pr393 2.436 . S
O414 C401 1.270 . S
O415 Pr392 2.512 . S
O415 C401 1.248 . S
O416 Pr393 2.438 . S
O416 C402 1.267 . S
O417 Pr392 2.437 . S
O417 C402 1.278 . S
O418 Pr393 2.562 . S
O418 C403 1.254 . S
O419 Pr393 2.490 . S
O419 C403 1.225 . S
O420 Pr392 2.436 . S
O420 Pr393 2.695 . S
O420 C410 1.270 . S
O421 Pr393 2.512 . S
O421 C410 1.248 . S
O422 Pr392 2.438 . S
O422 C411 1.267 . S
O423 Pr393 2.437 . S
O423 C411 1.278 . S
H424 C396 0.929 . S
H425 C397 0.929 . S
H426 C399 0.931 . S
H427 C400 0.930 . S
H428 C405 0.929 . S
H429 C406 0.929 . S
H430 C408 0.931 . S
H431 C409 0.930 . S
Pr432 C434 2.880 . S
Pr432 O452 2.562 . S
Pr432 O453 2.490 . S
Pr432 O454 2.695 . S
Pr432 O455 2.512 . S
Pr432 O457 2.437 . S
Pr432 O460 2.436 . S
Pr432 O462 2.438 . S
Pr433 C443 2.880 . S
Pr433 O454 2.436 . S
Pr433 O456 2.438 . S
Pr433 O458 2.562 . S
Pr433 O459 2.490 . S
Pr433 O460 2.695 . S
Pr433 O461 2.512 . S
Pr433 O463 2.437 . S
C434 Pr432 2.880 . S
C434 C435 1.491 . S
C434 O452 1.254 . S
C434 O453 1.225 . S
C435 C434 1.491 . S
C435 C436 1.392 . S
C435 C440 1.356 . S
C436 C435 1.392 . S
C436 C437 1.368 . S
C436 H464 0.929 . S
C437 C436 1.368 . S
C437 C438 1.386 . S
C437 H465 0.929 . S
C438 C437 1.386 . S
C438 C439 1.373 . S
C439 C438 1.373 . S
C439 C440 1.409 . S
C439 H466 0.931 . S
C440 C435 1.356 . S
C440 C439 1.409 . S
C440 H467 0.930 . S
C441 O454 1.270 . S
C441 O455 1.248 . S
C442 O456 1.267 . S
C442 O457 1.278 . S
C443 Pr433 2.880 . S
C443 C444 1.491 . S
C443 O458 1.254 . S
C443 O459 1.225 . S
C444 C443 1.491 . S
C444 C445 1.392 . S
C444 C449 1.356 . S
C445 C444 1.392 . S
C445 C446 1.368 . S
C445 H468 0.929 . S
C446 C445 1.368 . S
C446 C447 1.386 . S
C446 H469 0.929 . S
C447 C446 1.386 . S
C447 C448 1.373 . S
C448 C447 1.373 . S
C448 C449 1.409 . S
C448 H470 0.931 . S
C449 C444 1.356 . S
C449 C448 1.409 . S
C449 H471 0.930 . S
C450 O460 1.270 . S
C450 O461 1.248 . S
C451 O462 1.267 . S
C451 O463 1.278 . S
O452 Pr432 2.562 . S
O452 C434 1.254 . S
O453 Pr432 2.490 . S
O453 C434 1.225 . S
O454 Pr432 2.695 . S
O454 Pr433 2.436 . S
O454 C441 1.270 . S
O455 Pr432 2.512 . S
O455 C441 1.248 . S
O456 Pr433 2.438 . S
O456 C442 1.267 . S
O457 Pr432 2.437 . S
O457 C442 1.278 . S
O458 Pr433 2.562 . S
O458 C443 1.254 . S
O459 Pr433 2.490 . S
O459 C443 1.225 . S
O460 Pr432 2.436 . S
O460 Pr433 2.695 . S
O460 C450 1.270 . S
O461 Pr433 2.512 . S
O461 C450 1.248 . S
O462 Pr432 2.438 . S
O462 C451 1.267 . S
O463 Pr433 2.437 . S
O463 C451 1.278 . S
H464 C436 0.929 . S
H465 C437 0.929 . S
H466 C439 0.931 . S
H467 C440 0.930 . S
H468 C445 0.929 . S
H469 C446 0.929 . S
H470 C448 0.931 . S
H471 C449 0.930 . S
Pr472 C474 2.880 . S
Pr472 O492 2.562 . S
Pr472 O493 2.490 . S
Pr472 O494 2.695 . S
Pr472 O495 2.512 . S
Pr472 O497 2.437 . S
Pr472 O500 2.436 . S
Pr472 O502 2.438 . S
Pr473 C483 2.880 . S
Pr473 O494 2.436 . S
Pr473 O496 2.438 . S
Pr473 O498 2.562 . S
Pr473 O499 2.490 . S
Pr473 O500 2.695 . S
Pr473 O501 2.512 . S
Pr473 O503 2.437 . S
C474 Pr472 2.880 . S
C474 C475 1.491 . S
C474 O492 1.254 . S
C474 O493 1.225 . S
C475 C474 1.491 . S
C475 C476 1.392 . S
C475 C480 1.356 . S
C476 C475 1.392 . S
C476 C477 1.368 . S
C476 H504 0.929 . S
C477 C476 1.368 . S
C477 C478 1.386 . S
C477 H505 0.929 . S
C478 C477 1.386 . S
C478 C479 1.373 1_455 S
C479 C478 1.373 1_655 S
C479 C480 1.409 1_655 S
C479 H506 0.931 . S
C480 C475 1.356 . S
C480 C479 1.409 1_455 S
C480 H507 0.930 1_455 S
C481 O494 1.270 . S
C481 O495 1.248 . S
C482 O496 1.267 . S
C482 O497 1.278 . S
C483 Pr473 2.880 . S
C483 C484 1.491 . S
C483 O498 1.254 . S
C483 O499 1.225 . S
C484 C483 1.491 . S
C484 C485 1.392 . S
C484 C489 1.356 . S
C485 C484 1.392 . S
C485 C486 1.368 . S
C485 H508 0.929 . S
C486 C485 1.368 . S
C486 C487 1.386 . S
C486 H509 0.929 . S
C487 C486 1.386 . S
C487 C488 1.373 . S
C488 C487 1.373 . S
C488 C489 1.409 . S
C488 H510 0.931 . S
C489 C484 1.356 . S
C489 C488 1.409 . S
C489 H511 0.930 . S
C490 O500 1.270 . S
C490 O501 1.248 . S
C491 O502 1.267 . S
C491 O503 1.278 . S
O492 Pr472 2.562 . S
O492 C474 1.254 . S
O493 Pr472 2.490 . S
O493 C474 1.225 . S
O494 Pr472 2.695 . S
O494 Pr473 2.436 . S
O494 C481 1.270 . S
O495 Pr472 2.512 . S
O495 C481 1.248 . S
O496 Pr473 2.438 . S
O496 C482 1.267 . S
O497 Pr472 2.437 . S
O497 C482 1.278 . S
O498 Pr473 2.562 . S
O498 C483 1.254 . S
O499 Pr473 2.490 . S
O499 C483 1.225 . S
O500 Pr472 2.436 . S
O500 Pr473 2.695 . S
O500 C490 1.270 . S
O501 Pr473 2.512 . S
O501 C490 1.248 . S
O502 Pr472 2.438 . S
O502 C491 1.267 . S
O503 Pr473 2.437 . S
O503 C491 1.278 . S
H504 C476 0.929 . S
H505 C477 0.929 . S
H506 C479 0.931 . S
H507 C480 0.930 1_655 S
H508 C485 0.929 . S
H509 C486 0.929 . S
H510 C488 0.931 . S
H511 C489 0.930 . S
Pr512 C514 2.880 . S
Pr512 O532 2.562 . S
Pr512 O533 2.490 . S
Pr512 O534 2.695 . S
Pr512 O535 2.512 . S
Pr512 O537 2.437 . S
Pr512 O540 2.436 . S
Pr512 O542 2.438 . S
Pr513 C523 2.880 . S
Pr513 O534 2.436 . S
Pr513 O536 2.438 . S
Pr513 O538 2.562 . S
Pr513 O539 2.490 . S
Pr513 O540 2.695 . S
Pr513 O541 2.512 . S
Pr513 O543 2.437 . S
C514 Pr512 2.880 . S
C514 C515 1.491 . S
C514 O532 1.254 . S
C514 O533 1.225 . S
C515 C514 1.491 . S
C515 C516 1.392 . S
C515 C520 1.356 . S
C516 C515 1.392 . S
C516 C517 1.368 . S
C516 H544 0.929 . S
C517 C516 1.368 . S
C517 C518 1.386 . S
C517 H545 0.929 . S
C518 C517 1.386 . S
C518 C519 1.373 . S
C519 C518 1.373 . S
C519 C520 1.409 . S
C519 H546 0.931 . S
C520 C515 1.356 . S
C520 C519 1.409 . S
C520 H547 0.930 . S
C521 O534 1.270 . S
C521 O535 1.248 . S
C522 O536 1.267 . S
C522 O537 1.278 . S
C523 Pr513 2.880 . S
C523 C524 1.491 . S
C523 O538 1.254 . S
C523 O539 1.225 . S
C524 C523 1.491 . S
C524 C525 1.392 . S
C524 C529 1.356 . S
C525 C524 1.392 . S
C525 C526 1.368 . S
C525 H548 0.929 . S
C526 C525 1.368 . S
C526 C527 1.386 . S
C526 H549 0.929 . S
C527 C526 1.386 . S
C527 C528 1.373 . S
C528 C527 1.373 . S
C528 C529 1.409 . S
C528 H550 0.931 . S
C529 C524 1.356 . S
C529 C528 1.409 . S
C529 H551 0.930 . S
C530 O540 1.270 . S
C530 O541 1.248 . S
C531 O542 1.267 . S
C531 O543 1.278 . S
O532 Pr512 2.562 . S
O532 C514 1.254 . S
O533 Pr512 2.490 . S
O533 C514 1.225 . S
O534 Pr512 2.695 . S
O534 Pr513 2.436 . S
O534 C521 1.270 . S
O535 Pr512 2.512 . S
O535 C521 1.248 . S
O536 Pr513 2.438 . S
O536 C522 1.267 . S
O537 Pr512 2.437 . S
O537 C522 1.278 . S
O538 Pr513 2.562 . S
O538 C523 1.254 . S
O539 Pr513 2.490 . S
O539 C523 1.225 . S
O540 Pr512 2.436 . S
O540 Pr513 2.695 . S
O540 C530 1.270 . S
O541 Pr513 2.512 . S
O541 C530 1.248 . S
O542 Pr512 2.438 . S
O542 C531 1.267 . S
O543 Pr513 2.437 . S
O543 C531 1.278 . S
H544 C516 0.929 . S
H545 C517 0.929 . S
H546 C519 0.931 . S
H547 C520 0.930 . S
H548 C525 0.929 . S
H549 C526 0.929 . S
H550 C528 0.931 . S
H551 C529 0.930 . S
Pr552 C554 2.880 . S
Pr552 O572 2.562 . S
Pr552 O573 2.490 . S
Pr552 O574 2.695 . S
Pr552 O575 2.512 . S
Pr552 O577 2.437 . S
Pr552 O580 2.436 . S
Pr552 O582 2.438 . S
Pr553 C563 2.880 . S
Pr553 O574 2.436 1_556 S
Pr553 O576 2.438 . S
Pr553 O578 2.562 . S
Pr553 O579 2.490 . S
Pr553 O580 2.695 1_556 S
Pr553 O581 2.512 . S
Pr553 O583 2.437 . S
C554 Pr552 2.880 . S
C554 C555 1.491 . S
C554 O572 1.254 . S
C554 O573 1.225 . S
C555 C554 1.491 . S
C555 C556 1.392 . S
C555 C560 1.356 . S
C556 C555 1.392 . S
C556 C557 1.368 . S
C556 H584 0.929 . S
C557 C556 1.368 . S
C557 C558 1.386 . S
C557 H585 0.929 . S
C558 C557 1.386 . S
C558 C559 1.373 . S
C559 C558 1.373 . S
C559 C560 1.409 . S
C559 H586 0.931 . S
C560 C555 1.356 . S
C560 C559 1.409 . S
C560 H587 0.930 . S
C561 O574 1.270 . S
C561 O575 1.248 . S
C562 O576 1.267 1_554 S
C562 O577 1.278 . S
C563 Pr553 2.880 . S
C563 C564 1.491 . S
C563 O578 1.254 . S
C563 O579 1.225 . S
C564 C563 1.491 . S
C564 C565 1.392 . S
C564 C569 1.356 . S
C565 C564 1.392 . S
C565 C566 1.368 . S
C565 H588 0.929 . S
C566 C565 1.368 . S
C566 C567 1.386 . S
C566 H589 0.929 . S
C567 C566 1.386 . S
C567 C568 1.373 . S
C568 C567 1.373 . S
C568 C569 1.409 . S
C568 H590 0.931 . S
C569 C564 1.356 . S
C569 C568 1.409 . S
C569 H591 0.930 . S
C570 O580 1.270 . S
C570 O581 1.248 1_554 S
C571 O582 1.267 . S
C571 O583 1.278 1_554 S
O572 Pr552 2.562 . S
O572 C554 1.254 . S
O573 Pr552 2.490 . S
O573 C554 1.225 . S
O574 Pr552 2.695 . S
O574 Pr553 2.436 1_554 S
O574 C561 1.270 . S
O575 Pr552 2.512 . S
O575 C561 1.248 . S
O576 Pr553 2.438 . S
O576 C562 1.267 1_556 S
O577 Pr552 2.437 . S
O577 C562 1.278 . S
O578 Pr553 2.562 . S
O578 C563 1.254 . S
O579 Pr553 2.490 . S
O579 C563 1.225 . S
O580 Pr552 2.436 . S
O580 Pr553 2.695 1_554 S
O580 C570 1.270 . S
O581 Pr553 2.512 . S
O581 C570 1.248 1_556 S
O582 Pr552 2.438 . S
O582 C571 1.267 . S
O583 Pr553 2.437 . S
O583 C571 1.278 1_556 S
H584 C556 0.929 . S
H585 C557 0.929 . S
H586 C559 0.931 . S
H587 C560 0.930 . S
H588 C565 0.929 . S
H589 C566 0.929 . S
H590 C568 0.931 . S
H591 C569 0.930 . S
Pr592 C594 2.880 . S
Pr592 O612 2.562 . S
Pr592 O613 2.490 . S
Pr592 O614 2.695 . S
Pr592 O615 2.512 . S
Pr592 O617 2.437 . S
Pr592 O620 2.436 . S
Pr592 O622 2.438 . S
Pr593 C603 2.880 . S
Pr593 O614 2.436 . S
Pr593 O616 2.438 . S
Pr593 O618 2.562 . S
Pr593 O619 2.490 . S
Pr593 O620 2.695 . S
Pr593 O621 2.512 . S
Pr593 O623 2.437 . S
C594 Pr592 2.880 . S
C594 C595 1.491 . S
C594 O612 1.254 . S
C594 O613 1.225 . S
C595 C594 1.491 . S
C595 C596 1.392 . S
C595 C600 1.356 . S
C596 C595 1.392 . S
C596 C597 1.368 . S
C596 H624 0.929 . S
C597 C596 1.368 . S
C597 C598 1.386 . S
C597 H625 0.929 . S
C598 C597 1.386 . S
C598 C599 1.373 . S
C599 C598 1.373 . S
C599 C600 1.409 . S
C599 H626 0.931 . S
C600 C595 1.356 . S
C600 C599 1.409 . S
C600 H627 0.930 . S
C601 O614 1.270 . S
C601 O615 1.248 . S
C602 O616 1.267 . S
C602 O617 1.278 . S
C603 Pr593 2.880 . S
C603 C604 1.491 . S
C603 O618 1.254 . S
C603 O619 1.225 . S
C604 C603 1.491 . S
C604 C605 1.392 . S
C604 C609 1.356 . S
C605 C604 1.392 . S
C605 C606 1.368 . S
C605 H628 0.929 . S
C606 C605 1.368 . S
C606 C607 1.386 . S
C606 H629 0.929 . S
C607 C606 1.386 . S
C607 C608 1.373 . S
C608 C607 1.373 . S
C608 C609 1.409 . S
C608 H630 0.931 . S
C609 C604 1.356 . S
C609 C608 1.409 . S
C609 H631 0.930 . S
C610 O620 1.270 . S
C610 O621 1.248 . S
C611 O622 1.267 . S
C611 O623 1.278 . S
O612 Pr592 2.562 . S
O612 C594 1.254 . S
O613 Pr592 2.490 . S
O613 C594 1.225 . S
O614 Pr592 2.695 . S
O614 Pr593 2.436 . S
O614 C601 1.270 . S
O615 Pr592 2.512 . S
O615 C601 1.248 . S
O616 Pr593 2.438 . S
O616 C602 1.267 . S
O617 Pr592 2.437 . S
O617 C602 1.278 . S
O618 Pr593 2.562 . S
O618 C603 1.254 . S
O619 Pr593 2.490 . S
O619 C603 1.225 . S
O620 Pr592 2.436 . S
O620 Pr593 2.695 . S
O620 C610 1.270 . S
O621 Pr593 2.512 . S
O621 C610 1.248 . S
O622 Pr592 2.438 . S
O622 C611 1.267 . S
O623 Pr593 2.437 . S
O623 C611 1.278 . S
H624 C596 0.929 . S
H625 C597 0.929 . S
H626 C599 0.931 . S
H627 C600 0.930 . S
H628 C605 0.929 . S
H629 C606 0.929 . S
H630 C608 0.931 . S
H631 C609 0.930 . S
Pr632 C634 2.880 . S
Pr632 O652 2.562 . S
Pr632 O653 2.490 . S
Pr632 O654 2.695 1_556 S
Pr632 O655 2.512 . S
Pr632 O657 2.437 . S
Pr632 O660 2.436 1_556 S
Pr632 O662 2.438 1_556 S
Pr633 C643 2.880 . S
Pr633 O654 2.436 . S
Pr633 O656 2.438 . S
Pr633 O658 2.562 . S
Pr633 O659 2.490 . S
Pr633 O660 2.695 . S
Pr633 O661 2.512 . S
Pr633 O663 2.437 . S
C634 Pr632 2.880 . S
C634 C635 1.491 . S
C634 O652 1.254 . S
C634 O653 1.225 . S
C635 C634 1.491 . S
C635 C636 1.392 . S
C635 C640 1.356 . S
C636 C635 1.392 . S
C636 C637 1.368 . S
C636 H664 0.929 . S
C637 C636 1.368 . S
C637 C638 1.386 . S
C637 H665 0.929 . S
C638 C637 1.386 . S
C638 C639 1.373 . S
C639 C638 1.373 . S
C639 C640 1.409 . S
C639 H666 0.931 . S
C640 C635 1.356 . S
C640 C639 1.409 . S
C640 H667 0.930 . S
C641 O654 1.270 . S
C641 O655 1.248 1_554 S
C642 O656 1.267 1_556 S
C642 O657 1.278 . S
C643 Pr633 2.880 . S
C643 C644 1.491 . S
C643 O658 1.254 . S
C643 O659 1.225 . S
C644 C643 1.491 . S
C644 C645 1.392 . S
C644 C649 1.356 . S
C645 C644 1.392 . S
C645 C646 1.368 . S
C645 H668 0.929 . S
C646 C645 1.368 . S
C646 C647 1.386 . S
C646 H669 0.929 . S
C647 C646 1.386 . S
C647 C648 1.373 . S
C648 C647 1.373 . S
C648 C649 1.409 . S
C648 H670 0.931 . S
C649 C644 1.356 . S
C649 C648 1.409 . S
C649 H671 0.930 . S
C650 O660 1.270 . S
C650 O661 1.248 . S
C651 O662 1.267 . S
C651 O663 1.278 . S
O652 Pr632 2.562 . S
O652 C634 1.254 . S
O653 Pr632 2.490 . S
O653 C634 1.225 . S
O654 Pr632 2.695 1_554 S
O654 Pr633 2.436 . S
O654 C641 1.270 . S
O655 Pr632 2.512 . S
O655 C641 1.248 1_556 S
O656 Pr633 2.438 . S
O656 C642 1.267 1_554 S
O657 Pr632 2.437 . S
O657 C642 1.278 . S
O658 Pr633 2.562 . S
O658 C643 1.254 . S
O659 Pr633 2.490 . S
O659 C643 1.225 . S
O660 Pr632 2.436 1_554 S
O660 Pr633 2.695 . S
O660 C650 1.270 . S
O661 Pr633 2.512 . S
O661 C650 1.248 . S
O662 Pr632 2.438 1_554 S
O662 C651 1.267 . S
O663 Pr633 2.437 . S
O663 C651 1.278 . S
H664 C636 0.929 . S
H665 C637 0.929 . S
H666 C639 0.931 . S
H667 C640 0.930 . S
H668 C645 0.929 . S
H669 C646 0.929 . S
H670 C648 0.931 . S
H671 C649 0.930 . S
Pr672 C674 2.880 . S
Pr672 O692 2.562 . S
Pr672 O693 2.490 . S
Pr672 O694 2.695 . S
Pr672 O695 2.512 . S
Pr672 O697 2.437 . S
Pr672 O700 2.436 . S
Pr672 O702 2.438 . S
Pr673 C683 2.880 . S
Pr673 O694 2.436 . S
Pr673 O696 2.438 . S
Pr673 O698 2.562 . S
Pr673 O699 2.490 . S
Pr673 O700 2.695 . S
Pr673 O701 2.512 . S
Pr673 O703 2.437 . S
C674 Pr672 2.880 . S
C674 C675 1.491 . S
C674 O692 1.254 . S
C674 O693 1.225 . S
C675 C674 1.491 . S
C675 C676 1.392 . S
C675 C680 1.356 . S
C676 C675 1.392 . S
C676 C677 1.368 . S
C676 H704 0.929 . S
C677 C676 1.368 . S
C677 C678 1.386 . S
C677 H705 0.929 . S
C678 C677 1.386 . S
C678 C679 1.373 . S
C679 C678 1.373 . S
C679 C680 1.409 . S
C679 H706 0.931 . S
C680 C675 1.356 . S
C680 C679 1.409 . S
C680 H707 0.930 . S
C681 O694 1.270 . S
C681 O695 1.248 . S
C682 O696 1.267 . S
C682 O697 1.278 . S
C683 Pr673 2.880 . S
C683 C684 1.491 . S
C683 O698 1.254 . S
C683 O699 1.225 . S
C684 C683 1.491 . S
C684 C685 1.392 . S
C684 C689 1.356 . S
C685 C684 1.392 . S
C685 C686 1.368 . S
C685 H708 0.929 . S
C686 C685 1.368 . S
C686 C687 1.386 . S
C686 H709 0.929 . S
C687 C686 1.386 . S
C687 C688 1.373 . S
C688 C687 1.373 . S
C688 C689 1.409 . S
C688 H710 0.931 . S
C689 C684 1.356 . S
C689 C688 1.409 . S
C689 H711 0.930 . S
C690 O700 1.270 . S
C690 O701 1.248 . S
C691 O702 1.267 . S
C691 O703 1.278 . S
O692 Pr672 2.562 . S
O692 C674 1.254 . S
O693 Pr672 2.490 . S
O693 C674 1.225 . S
O694 Pr672 2.695 . S
O694 Pr673 2.436 . S
O694 C681 1.270 . S
O695 Pr672 2.512 . S
O695 C681 1.248 . S
O696 Pr673 2.438 . S
O696 C682 1.267 . S
O697 Pr672 2.437 . S
O697 C682 1.278 . S
O698 Pr673 2.562 . S
O698 C683 1.254 . S
O699 Pr673 2.490 . S
O699 C683 1.225 . S
O700 Pr672 2.436 . S
O700 Pr673 2.695 . S
O700 C690 1.270 . S
O701 Pr673 2.512 . S
O701 C690 1.248 . S
O702 Pr672 2.438 . S
O702 C691 1.267 . S
O703 Pr673 2.437 . S
O703 C691 1.278 . S
H704 C676 0.929 . S
H705 C677 0.929 . S
H706 C679 0.931 . S
H707 C680 0.930 . S
H708 C685 0.929 . S
H709 C686 0.929 . S
H710 C688 0.931 . S
H711 C689 0.930 . S
Pr712 C714 2.880 . S
Pr712 O732 2.562 . S
Pr712 O733 2.490 . S
Pr712 O734 2.695 . S
Pr712 O735 2.512 . S
Pr712 O737 2.437 . S
Pr712 O740 2.436 . S
Pr712 O742 2.438 . S
Pr713 C723 2.880 . S
Pr713 O734 2.436 . S
Pr713 O736 2.474 . S
Pr713 O738 2.562 . S
Pr713 O739 2.490 . S
Pr713 O740 2.695 . S
Pr713 O741 2.512 . S
Pr713 O743 2.437 . S
C714 Pr712 2.880 . S
C714 C715 1.491 . S
C714 O732 1.254 . S
C714 O733 1.225 . S
C715 C714 1.491 . S
C715 C716 1.392 . S
C715 C720 1.356 . S
C716 C715 1.392 . S
C716 C717 1.368 . S
C716 H744 0.929 . S
C717 C716 1.368 . S
C717 C718 1.386 1_455 S
C717 H745 0.929 . S
C718 C717 1.386 1_655 S
C718 C719 1.373 . S
C719 C718 1.373 . S
C719 C720 1.409 1_655 S
C719 H746 0.931 . S
C720 C715 1.356 . S
C720 C719 1.409 1_455 S
C720 H747 0.930 . S
C721 O734 1.270 . S
C721 O735 1.248 . S
C722 O736 1.258 1_655 S
C722 O737 1.278 1_655 S
C723 Pr713 2.880 . S
C723 C724 1.491 . S
C723 O738 1.254 . S
C723 O739 1.225 . S
C724 C723 1.491 . S
C724 C725 1.392 . S
C724 C729 1.356 . S
C725 C724 1.392 . S
C725 C726 1.368 . S
C725 H748 0.929 . S
C726 C725 1.368 . S
C726 C727 1.386 . S
C726 H749 0.929 . S
C727 C726 1.386 . S
C727 C728 1.373 . S
C728 C727 1.373 . S
C728 C729 1.409 . S
C728 H750 0.931 . S
C729 C724 1.356 . S
C729 C728 1.409 . S
C729 H751 0.930 . S
C730 O740 1.270 . S
C730 O741 1.248 . S
C731 O742 1.267 . S
C731 O743 1.278 . S
O732 Pr712 2.562 . S
O732 C714 1.254 . S
O733 Pr712 2.490 . S
O733 C714 1.225 . S
O734 Pr712 2.695 . S
O734 Pr713 2.436 . S
O734 C721 1.270 . S
O735 Pr712 2.512 . S
O735 C721 1.248 . S
O736 Pr713 2.474 . S
O736 C722 1.258 1_455 S
O737 Pr712 2.437 . S
O737 C722 1.278 1_455 S
O738 Pr713 2.562 . S
O738 C723 1.254 . S
O739 Pr713 2.490 . S
O739 C723 1.225 . S
O740 Pr712 2.436 . S
O740 Pr713 2.695 . S
O740 C730 1.270 . S
O741 Pr713 2.512 . S
O741 C730 1.248 . S
O742 Pr712 2.438 . S
O742 C731 1.267 . S
O743 Pr713 2.437 . S
O743 C731 1.278 . S
H744 C716 0.929 . S
H745 C717 0.929 . S
H746 C719 0.931 . S
H747 C720 0.930 . S
H748 C725 0.929 . S
H749 C726 0.929 . S
H750 C728 0.931 . S
H751 C729 0.930 . S
Pr752 C754 2.880 . S
Pr752 O772 2.562 . S
Pr752 O773 2.490 . S
Pr752 O774 2.695 . S
Pr752 O775 2.512 . S
Pr752 O777 2.437 . S
Pr752 O780 2.436 . S
Pr752 O782 2.438 . S
Pr753 C763 2.880 . S
Pr753 O774 2.436 . S
Pr753 O776 2.438 . S
Pr753 O778 2.562 . S
Pr753 O779 2.490 . S
Pr753 O780 2.695 . S
Pr753 O781 2.512 . S
Pr753 O783 2.437 . S
C754 Pr752 2.880 . S
C754 C755 1.491 . S
C754 O772 1.254 . S
C754 O773 1.225 . S
C755 C754 1.491 . S
C755 C756 1.392 . S
C755 C760 1.356 . S
C756 C755 1.392 . S
C756 C757 1.368 . S
C756 H784 0.929 . S
C757 C756 1.368 . S
C757 C758 1.386 . S
C757 H785 0.929 . S
C758 C757 1.386 . S
C758 C759 1.373 . S
C759 C758 1.373 . S
C759 C760 1.409 . S
C759 H786 0.931 . S
C760 C755 1.356 . S
C760 C759 1.409 . S
C760 H787 0.930 . S
C761 O774 1.270 . S
C761 O775 1.248 . S
C762 O776 1.267 . S
C762 O777 1.278 . S
C763 Pr753 2.880 . S
C763 C764 1.491 . S
C763 O778 1.254 . S
C763 O779 1.225 . S
C764 C763 1.491 . S
C764 C765 1.392 . S
C764 C769 1.356 . S
C765 C764 1.392 . S
C765 C766 1.368 . S
C765 H788 0.929 . S
C766 C765 1.368 . S
C766 C767 1.386 . S
C766 H789 0.929 . S
C767 C766 1.386 . S
C767 C768 1.373 . S
C768 C767 1.373 . S
C768 C769 1.409 . S
C768 H790 0.931 . S
C769 C764 1.356 . S
C769 C768 1.409 . S
C769 H791 0.930 . S
C770 O780 1.270 . S
C770 O781 1.248 . S
C771 O782 1.267 . S
C771 O783 1.278 . S
O772 Pr752 2.562 . S
O772 C754 1.254 . S
O773 Pr752 2.490 . S
O773 C754 1.225 . S
O774 Pr752 2.695 . S
O774 Pr753 2.436 . S
O774 C761 1.270 . S
O775 Pr752 2.512 . S
O775 C761 1.248 . S
O776 Pr753 2.438 . S
O776 C762 1.267 . S
O777 Pr752 2.437 . S
O777 C762 1.278 . S
O778 Pr753 2.562 . S
O778 C763 1.254 . S
O779 Pr753 2.490 . S
O779 C763 1.225 . S
O780 Pr752 2.436 . S
O780 Pr753 2.695 . S
O780 C770 1.270 . S
O781 Pr753 2.512 . S
O781 C770 1.248 . S
O782 Pr752 2.438 . S
O782 C771 1.267 . S
O783 Pr753 2.437 . S
O783 C771 1.278 . S
H784 C756 0.929 . S
H785 C757 0.929 . S
H786 C759 0.931 . S
H787 C760 0.930 . S
H788 C765 0.929 . S
H789 C766 0.929 . S
H790 C768 0.931 . S
H791 C769 0.930 . S
Pr792 C794 2.880 . S
Pr792 O812 2.562 . S
Pr792 O813 2.490 . S
Pr792 O814 2.695 . S
Pr792 O815 2.512 . S
Pr792 O817 2.437 . S
Pr792 O820 2.436 . S
Pr792 O822 2.438 . S
Pr793 C803 2.880 . S
Pr793 O814 2.436 . S
Pr793 O816 2.438 . S
Pr793 O818 2.562 . S
Pr793 O819 2.490 . S
Pr793 O820 2.695 . S
Pr793 O821 2.512 . S
Pr793 O823 2.437 . S
C794 Pr792 2.880 . S
C794 C795 1.491 . S
C794 O812 1.254 . S
C794 O813 1.225 . S
C795 C794 1.491 . S
C795 C796 1.392 . S
C795 C800 1.356 . S
C796 C795 1.392 . S
C796 C797 1.368 . S
C796 H824 0.929 . S
C797 C796 1.368 . S
C797 C798 1.386 . S
C797 H825 0.929 . S
C798 C797 1.386 . S
C798 C799 1.373 . S
C799 C798 1.373 . S
C799 C800 1.409 . S
C799 H826 0.931 . S
C800 C795 1.356 . S
C800 C799 1.409 . S
C800 H827 0.930 . S
C801 O814 1.270 . S
C801 O815 1.248 . S
C802 O816 1.267 . S
C802 O817 1.278 . S
C803 Pr793 2.880 . S
C803 C804 1.491 . S
C803 O818 1.254 . S
C803 O819 1.225 . S
C804 C803 1.491 . S
C804 C805 1.392 . S
C804 C809 1.356 . S
C805 C804 1.392 . S
C805 C806 1.368 . S
C805 H828 0.929 . S
C806 C805 1.368 . S
C806 C807 1.386 . S
C806 H829 0.929 . S
C807 C806 1.386 . S
C807 C808 1.373 . S
C808 C807 1.373 . S
C808 C809 1.409 . S
C808 H830 0.931 . S
C809 C804 1.356 . S
C809 C808 1.409 . S
C809 H831 0.930 . S
C810 O820 1.270 . S
C810 O821 1.248 . S
C811 O822 1.267 . S
C811 O823 1.278 . S
O812 Pr792 2.562 . S
O812 C794 1.254 . S
O813 Pr792 2.490 . S
O813 C794 1.225 . S
O814 Pr792 2.695 . S
O814 Pr793 2.436 . S
O814 C801 1.270 . S
O815 Pr792 2.512 . S
O815 C801 1.248 . S
O816 Pr793 2.438 . S
O816 C802 1.267 . S
O817 Pr792 2.437 . S
O817 C802 1.278 . S
O818 Pr793 2.562 . S
O818 C803 1.254 . S
O819 Pr793 2.490 . S
O819 C803 1.225 . S
O820 Pr792 2.436 . S
O820 Pr793 2.695 . S
O820 C810 1.270 . S
O821 Pr793 2.512 . S
O821 C810 1.248 . S
O822 Pr792 2.438 . S
O822 C811 1.267 . S
O823 Pr793 2.437 . S
O823 C811 1.278 . S
H824 C796 0.929 . S
H825 C797 0.929 . S
H826 C799 0.931 . S
H827 C800 0.930 . S
H828 C805 0.929 . S
H829 C806 0.929 . S
H830 C808 0.931 . S
H831 C809 0.930 . S
Pr832 C834 2.880 . S
Pr832 O852 2.562 . S
Pr832 O853 2.490 . S
Pr832 O854 2.695 . S
Pr832 O855 2.512 . S
Pr832 O857 2.437 . S
Pr832 O860 2.436 . S
Pr832 O862 2.438 . S
Pr833 C843 2.880 . S
Pr833 O854 2.436 . S
Pr833 O856 2.438 . S
Pr833 O858 2.562 . S
Pr833 O859 2.490 . S
Pr833 O860 2.695 . S
Pr833 O861 2.512 . S
Pr833 O863 2.437 . S
C834 Pr832 2.880 . S
C834 C835 1.491 . S
C834 O852 1.254 . S
C834 O853 1.225 . S
C835 C834 1.491 . S
C835 C836 1.392 . S
C835 C840 1.356 . S
C836 C835 1.392 . S
C836 C837 1.368 . S
C836 H864 0.929 . S
C837 C836 1.368 . S
C837 C838 1.386 . S
C837 H865 0.929 . S
C838 C837 1.386 . S
C838 C839 1.373 . S
C839 C838 1.373 . S
C839 C840 1.409 . S
C839 H866 0.931 . S
C840 C835 1.356 . S
C840 C839 1.409 . S
C840 H867 0.930 . S
C841 O854 1.270 . S
C841 O855 1.248 . S
C842 O856 1.267 . S
C842 O857 1.278 . S
C843 Pr833 2.880 . S
C843 C844 1.491 . S
C843 O858 1.254 . S
C843 O859 1.225 . S
C844 C843 1.491 . S
C844 C845 1.392 . S
C844 C849 1.356 . S
C845 C844 1.392 . S
C845 C846 1.368 . S
C845 H868 0.929 . S
C846 C845 1.368 . S
C846 C847 1.386 . S
C846 H869 0.929 . S
C847 C846 1.386 . S
C847 C848 1.373 . S
C848 C847 1.373 . S
C848 C849 1.409 . S
C848 H870 0.931 . S
C849 C844 1.356 . S
C849 C848 1.409 . S
C849 H871 0.930 . S
C850 O860 1.270 . S
C850 O861 1.248 . S
C851 O862 1.267 . S
C851 O863 1.278 . S
O852 Pr832 2.562 . S
O852 C834 1.254 . S
O853 Pr832 2.490 . S
O853 C834 1.225 . S
O854 Pr832 2.695 . S
O854 Pr833 2.436 . S
O854 C841 1.270 . S
O855 Pr832 2.512 . S
O855 C841 1.248 . S
O856 Pr833 2.438 . S
O856 C842 1.267 . S
O857 Pr832 2.437 . S
O857 C842 1.278 . S
O858 Pr833 2.562 . S
O858 C843 1.254 . S
O859 Pr833 2.490 . S
O859 C843 1.225 . S
O860 Pr832 2.436 . S
O860 Pr833 2.695 . S
O860 C850 1.270 . S
O861 Pr833 2.512 . S
O861 C850 1.248 . S
O862 Pr832 2.438 . S
O862 C851 1.267 . S
O863 Pr833 2.437 . S
O863 C851 1.278 . S
H864 C836 0.929 . S
H865 C837 0.929 . S
H866 C839 0.931 . S
H867 C840 0.930 . S
H868 C845 0.929 . S
H869 C846 0.929 . S
H870 C848 0.931 . S
H871 C849 0.930 . S
Pr872 C874 2.880 . S
Pr872 O892 2.562 . S
Pr872 O893 2.490 . S
Pr872 O894 2.695 . S
Pr872 O895 2.512 . S
Pr872 O897 2.437 . S
Pr872 O900 2.436 . S
Pr872 O902 2.438 . S
Pr873 C883 2.880 . S
Pr873 O894 2.436 . S
Pr873 O896 2.438 . S
Pr873 O898 2.562 . S
Pr873 O899 2.490 . S
Pr873 O900 2.695 . S
Pr873 O901 2.512 . S
Pr873 O903 2.437 . S
C874 Pr872 2.880 . S
C874 C875 1.491 . S
C874 O892 1.254 . S
C874 O893 1.225 . S
C875 C874 1.491 . S
C875 C876 1.392 . S
C875 C880 1.356 . S
C876 C875 1.392 . S
C876 C877 1.368 . S
C876 H904 0.929 . S
C877 C876 1.368 . S
C877 C878 1.386 . S
C877 H905 0.929 . S
C878 C877 1.386 . S
C878 C879 1.373 . S
C879 C878 1.373 . S
C879 C880 1.409 . S
C879 H906 0.931 . S
C880 C875 1.356 . S
C880 C879 1.409 . S
C880 H907 0.930 . S
C881 O894 1.270 . S
C881 O895 1.248 . S
C882 O896 1.267 . S
C882 O897 1.278 . S
C883 Pr873 2.880 . S
C883 C884 1.491 . S
C883 O898 1.254 . S
C883 O899 1.225 . S
C884 C883 1.491 . S
C884 C885 1.392 . S
C884 C889 1.356 . S
C885 C884 1.392 . S
C885 C886 1.368 . S
C885 H908 0.929 . S
C886 C885 1.368 . S
C886 C887 1.386 . S
C886 H909 0.929 . S
C887 C886 1.386 . S
C887 C888 1.373 . S
C888 C887 1.373 . S
C888 C889 1.409 . S
C888 H910 0.931 . S
C889 C884 1.356 . S
C889 C888 1.409 . S
C889 H911 0.930 . S
C890 O900 1.270 . S
C890 O901 1.248 . S
C891 O902 1.267 . S
C891 O903 1.278 . S
O892 Pr872 2.562 . S
O892 C874 1.254 . S
O893 Pr872 2.490 . S
O893 C874 1.225 . S
O894 Pr872 2.695 . S
O894 Pr873 2.436 . S
O894 C881 1.270 . S
O895 Pr872 2.512 . S
O895 C881 1.248 . S
O896 Pr873 2.438 . S
O896 C882 1.267 . S
O897 Pr872 2.437 . S
O897 C882 1.278 . S
O898 Pr873 2.562 . S
O898 C883 1.254 . S
O899 Pr873 2.490 . S
O899 C883 1.225 . S
O900 Pr872 2.436 . S
O900 Pr873 2.695 . S
O900 C890 1.270 . S
O901 Pr873 2.512 . S
O901 C890 1.248 . S
O902 Pr872 2.438 . S
O902 C891 1.267 . S
O903 Pr873 2.437 . S
O903 C891 1.278 . S
H904 C876 0.929 . S
H905 C877 0.929 . S
H906 C879 0.931 . S
H907 C880 0.930 . S
H908 C885 0.929 . S
H909 C886 0.929 . S
H910 C888 0.931 . S
H911 C889 0.930 . S
Pr912 C914 2.880 . S
Pr912 O932 2.562 . S
Pr912 O933 2.490 . S
Pr912 O934 2.695 . S
Pr912 O935 2.512 1_554 S
Pr912 O937 2.437 . S
Pr912 O940 2.436 . S
Pr912 O942 2.438 . S
Pr913 C923 2.880 1_455 S
Pr913 O934 2.436 . S
Pr913 O936 2.438 . S
Pr913 O938 2.562 1_455 S
Pr913 O939 2.490 1_455 S
Pr913 O940 2.695 . S
Pr913 O941 2.512 . S
Pr913 O943 2.437 . S
C914 Pr912 2.880 . S
C914 C915 1.491 . S
C914 O932 1.254 . S
C914 O933 1.225 . S
C915 C914 1.491 . S
C915 C916 1.392 1_554 S
C915 C920 1.356 . S
C916 C915 1.392 1_556 S
C916 C917 1.368 . S
C916 H944 0.929 . S
C917 C916 1.368 . S
C917 C918 1.386 1_556 S
C917 H945 0.929 . S
C918 C917 1.386 1_554 S
C918 C919 1.373 . S
C919 C918 1.373 . S
C919 C920 1.409 . S
C919 H946 0.931 . S
C920 C915 1.356 . S
C920 C919 1.409 . S
C920 H947 0.930 . S
C921 O934 1.270 1_556 S
C921 O935 1.248 . S
C922 O936 1.267 . S
C922 O937 1.278 . S
C923 Pr913 2.880 1_655 S
C923 C924 1.491 . S
C923 O938 1.254 . S
C923 O939 1.225 . S
C924 C923 1.491 . S
C924 C925 1.392 . S
C924 C929 1.356 . S
C925 C924 1.392 . S
C925 C926 1.368 . S
C925 H948 0.929 . S
C926 C925 1.368 . S
C926 C927 1.386 . S
C926 H949 0.929 . S
C927 C926 1.386 . S
C927 C928 1.373 . S
C928 C927 1.373 . S
C928 C929 1.409 . S
C928 H950 0.931 . S
C929 C924 1.356 . S
C929 C928 1.409 . S
C929 H951 0.930 . S
C930 O940 1.270 . S
C930 O941 1.248 . S
C931 O942 1.267 . S
C931 O943 1.278 . S
O932 Pr912 2.562 . S
O932 C914 1.254 . S
O933 Pr912 2.490 . S
O933 C914 1.225 . S
O934 Pr912 2.695 . S
O934 Pr913 2.436 . S
O934 C921 1.270 1_554 S
O935 Pr912 2.512 1_556 S
O935 C921 1.248 . S
O936 Pr913 2.438 . S
O936 C922 1.267 . S
O937 Pr912 2.437 . S
O937 C922 1.278 . S
O938 Pr913 2.562 1_655 S
O938 C923 1.254 . S
O939 Pr913 2.490 1_655 S
O939 C923 1.225 . S
O940 Pr912 2.436 . S
O940 Pr913 2.695 . S
O940 C930 1.270 . S
O941 Pr913 2.512 . S
O941 C930 1.248 . S
O942 Pr912 2.438 . S
O942 C931 1.267 . S
O943 Pr913 2.437 . S
O943 C931 1.278 . S
H944 C916 0.929 . S
H945 C917 0.929 . S
H946 C919 0.931 . S
H947 C920 0.930 . S
H948 C925 0.929 . S
H949 C926 0.929 . S
H950 C928 0.931 . S
H951 C929 0.930 . S
H952 C958 0.930 . S
H953 C962 0.930 . S
H954 C967 0.929 . S
H955 C965 0.929 1_556 S
H956 C960 0.929 . S
H957 C966 0.929 . S
C958 H952 0.930 . S
C958 C959 1.367 . S
C958 C966 1.378 . S
C959 C958 1.367 . S
C959 C967 1.433 . S
C960 H956 0.929 . S
C960 C962 1.378 . S
C960 C964 1.350 1_554 S
C961 C964 1.463 . S
C961 C966 1.350 . S
C961 N969 1.427 . S
C962 H953 0.930 . S
C962 C960 1.378 . S
C962 C963 1.367 . S
C963 C962 1.367 . S
C963 C965 1.433 . S
C964 C960 1.350 1_556 S
C964 C961 1.463 . S
C964 N968 1.427 . S
C965 H955 0.929 1_554 S
C965 C963 1.433 . S
C965 N968 1.384 1_554 S
C966 H957 0.929 . S
C966 C958 1.378 . S
C966 C961 1.350 . S
C967 H954 0.929 . S
C967 C959 1.433 . S
C967 N969 1.384 . S
N968 C964 1.427 . S
N968 C965 1.384 1_556 S
N969 C961 1.427 . S
N969 C967 1.384 . S
H970 C976 0.930 . S
H971 C980 0.930 . S
H972 C985 0.929 . S
H973 C983 0.929 . S
H974 C978 0.929 . S
H975 C984 0.929 . S
C976 H970 0.930 . S
C976 C977 1.367 . S
C976 C984 1.378 . S
C977 C976 1.367 . S
C977 C985 1.433 . S
C978 H974 0.929 . S
C978 C980 1.378 . S
C978 C982 1.350 . S
C979 C982 1.463 . S
C979 C984 1.350 . S
C979 N987 1.427 . S
C980 H971 0.930 . S
C980 C978 1.378 . S
C980 C981 1.367 . S
C981 C980 1.367 . S
C981 C983 1.433 . S
C982 C978 1.350 . S
C982 C979 1.463 . S
C982 N986 1.427 . S
C983 H973 0.929 . S
C983 C981 1.433 . S
C983 N986 1.384 . S
C984 H975 0.929 . S
C984 C976 1.378 . S
C984 C979 1.350 . S
C985 H972 0.929 . S
C985 C977 1.433 . S
C985 N987 1.384 . S
N986 C982 1.427 . S
N986 C983 1.384 . S
N987 C979 1.427 . S
N987 C985 1.384 . S
H988 C994 0.930 . S
H989 C998 0.930 . S
H990 C1003 0.929 . S
H991 C1001 0.929 1_545 S
H992 C996 0.929 . S
H993 C1002 0.929 . S
C994 H988 0.930 . S
C994 C995 1.367 . S
C994 C1002 1.378 . S
C995 C994 1.367 . S
C995 C1003 1.433 . S
C996 H992 0.929 . S
C996 C998 1.378 . S
C996 C1000 1.350 . S
C997 C1000 1.463 . S
C997 C1002 1.350 . S
C997 N1005 1.427 . S
C998 H989 0.930 . S
C998 C996 1.378 . S
C998 C999 1.367 . S
C999 C998 1.367 . S
C999 C1001 1.433 . S
C1000 C996 1.350 . S
C1000 C997 1.463 . S
C1000 N1004 1.427 . S
C1001 H991 0.929 1_565 S
C1001 C999 1.433 . S
C1001 N1004 1.384 . S
C1002 H993 0.929 . S
C1002 C994 1.378 . S
C1002 C997 1.350 . S
C1003 H990 0.929 . S
C1003 C995 1.433 . S
C1003 N1005 1.384 . S
N1004 C1000 1.427 . S
N1004 C1001 1.384 . S
N1005 C997 1.427 . S
N1005 C1003 1.384 . S
H1006 C1012 0.930 . S
H1007 C1016 0.930 . S
H1008 C1021 0.929 . S
H1009 C1019 0.929 . S
H1010 C1014 0.929 . S
H1011 C1020 0.929 . S
C1012 H1006 0.930 . S
C1012 C1013 1.367 . S
C1012 C1020 1.378 . S
C1013 C1012 1.367 . S
C1013 C1021 1.433 . S
C1014 H1010 0.929 . S
C1014 C1016 1.378 . S
C1014 C1018 1.350 . S
C1015 C1018 1.463 . S
C1015 C1020 1.350 . S
C1015 N1023 1.427 . S
C1016 H1007 0.930 . S
C1016 C1014 1.378 . S
C1016 C1017 1.367 . S
C1017 C1016 1.367 . S
C1017 C1019 1.433 . S
C1018 C1014 1.350 . S
C1018 C1015 1.463 . S
C1018 N1022 1.427 . S
C1019 H1009 0.929 . S
C1019 C1017 1.433 . S
C1019 N1022 1.384 . S
C1020 H1011 0.929 . S
C1020 C1012 1.378 . S
C1020 C1015 1.350 . S
C1021 H1008 0.929 . S
C1021 C1013 1.433 . S
C1021 N1023 1.384 . S
N1022 C1018 1.427 . S
N1022 C1019 1.384 . S
N1023 C1015 1.427 . S
N1023 C1021 1.384 . S
H1024 C1030 0.930 . S
H1025 C1034 0.930 . S
H1026 C1039 0.929 . S
H1027 C1037 0.929 . S
H1028 C1032 0.929 . S
H1029 C1038 0.929 . S
C1030 H1024 0.930 . S
C1030 C1031 1.367 . S
C1030 C1038 1.378 . S
C1031 C1030 1.367 . S
C1031 C1039 1.433 . S
C1032 H1028 0.929 . S
C1032 C1034 1.378 1_565 S
C1032 C1036 1.350 . S
C1033 C1036 1.463 . S
C1033 C1038 1.350 . S
C1033 N1041 1.427 . S
C1034 H1025 0.930 . S
C1034 C1032 1.378 1_545 S
C1034 C1035 1.367 . S
C1035 C1034 1.367 . S
C1035 C1037 1.432 1_545 S
C1036 C1032 1.350 . S
C1036 C1033 1.463 . S
C1036 N1040 1.427 . S
C1037 H1027 0.929 . S
C1037 C1035 1.432 1_565 S
C1037 N1040 1.384 . S
C1038 H1029 0.929 . S
C1038 C1030 1.378 . S
C1038 C1033 1.350 . S
C1039 H1026 0.929 . S
C1039 C1031 1.433 . S
C1039 N1041 1.384 . S
N1040 C1036 1.427 . S
N1040 C1037 1.384 . S
N1041 C1033 1.427 . S
N1041 C1039 1.384 . S
H1042 C1048 0.930 . S
H1043 C1052 0.930 . S
H1044 C1057 0.929 . S
H1045 C1055 0.929 . S
H1046 C1050 0.929 . S
H1047 C1056 0.929 . S
C1048 H1042 0.930 . S
C1048 C1049 1.367 . S
C1048 C1056 1.378 . S
C1049 C1048 1.367 . S
C1049 C1057 1.433 . S
C1050 H1046 0.929 . S
C1050 C1052 1.378 . S
C1050 C1054 1.350 . S
C1051 C1054 1.463 . S
C1051 C1056 1.350 . S
C1051 N1059 1.427 . S
C1052 H1043 0.930 . S
C1052 C1050 1.378 . S
C1052 C1053 1.367 . S
C1053 C1052 1.367 . S
C1053 C1055 1.433 . S
C1054 C1050 1.350 . S
C1054 C1051 1.463 . S
C1054 N1058 1.427 . S
C1055 H1045 0.929 . S
C1055 C1053 1.433 . S
C1055 N1058 1.384 . S
C1056 H1047 0.929 . S
C1056 C1048 1.378 . S
C1056 C1051 1.350 . S
C1057 H1044 0.929 . S
C1057 C1049 1.433 . S
C1057 N1059 1.384 . S
N1058 C1054 1.427 . S
N1058 C1055 1.384 . S
N1059 C1051 1.427 . S
N1059 C1057 1.384 . S
H1060 C1066 0.930 . S
H1061 C1070 0.930 . S
H1062 C1075 0.929 . S
H1063 C1073 0.929 . S
H1064 C1068 0.929 . S
H1065 C1074 0.929 . S
C1066 H1060 0.930 . S
C1066 C1067 1.367 . S
C1066 C1074 1.378 . S
C1067 C1066 1.367 . S
C1067 C1075 1.433 . S
C1068 H1064 0.929 . S
C1068 C1070 1.378 . S
C1068 C1072 1.350 . S
C1069 C1072 1.463 . S
C1069 C1074 1.350 . S
C1069 N1077 1.427 . S
C1070 H1061 0.930 . S
C1070 C1068 1.378 . S
C1070 C1071 1.367 . S
C1071 C1070 1.367 . S
C1071 C1073 1.433 . S
C1072 C1068 1.350 . S
C1072 C1069 1.463 . S
C1072 N1076 1.427 . S
C1073 H1063 0.929 . S
C1073 C1071 1.433 . S
C1073 N1076 1.384 . S
C1074 H1065 0.929 . S
C1074 C1066 1.378 . S
C1074 C1069 1.350 . S
C1075 H1062 0.929 . S
C1075 C1067 1.433 . S
C1075 N1077 1.384 . S
N1076 C1072 1.427 . S
N1076 C1073 1.384 . S
N1077 C1069 1.427 . S
N1077 C1075 1.384 . S
H1078 C1084 0.930 . S
H1079 C1088 0.930 . S
H1080 C1093 0.929 . S
H1081 C1091 0.929 . S
H1082 C1086 0.929 . S
H1083 C1092 0.929 . S
C1084 H1078 0.930 . S
C1084 C1085 1.367 . S
C1084 C1092 1.378 . S
C1085 C1084 1.367 . S
C1085 C1093 1.433 . S
C1086 H1082 0.929 . S
C1086 C1088 1.378 . S
C1086 C1090 1.350 . S
C1087 C1090 1.463 . S
C1087 C1092 1.350 . S
C1087 N1095 1.427 . S
C1088 H1079 0.930 . S
C1088 C1086 1.378 . S
C1088 C1089 1.367 . S
C1089 C1088 1.367 . S
C1089 C1091 1.433 . S
C1090 C1086 1.350 . S
C1090 C1087 1.463 . S
C1090 N1094 1.427 . S
C1091 H1081 0.929 . S
C1091 C1089 1.433 . S
C1091 N1094 1.384 . S
C1092 H1083 0.929 . S
C1092 C1084 1.378 . S
C1092 C1087 1.350 . S
C1093 H1080 0.929 . S
C1093 C1085 1.433 . S
C1093 N1095 1.384 . S
N1094 C1090 1.427 . S
N1094 C1091 1.384 . S
N1095 C1087 1.427 . S
N1095 C1093 1.384 . S
H1096 C1102 0.930 . S
H1097 C1106 0.930 . S
H1098 C1111 0.929 . S
H1099 C1109 0.929 . S
H1100 C1104 0.924 1_655 S
H1101 C1110 0.929 . S
C1102 H1096 0.930 . S
C1102 C1103 1.367 . S
C1102 C1110 1.378 . S
C1103 C1102 1.367 . S
C1103 C1111 1.433 . S
C1104 H1100 0.924 1_455 S
C1104 C1106 1.378 . S
C1104 C1108 1.356 . S
C1105 C1108 1.424 1_655 S
C1105 C1110 1.350 . S
C1105 N1113 1.427 . S
C1106 H1097 0.930 . S
C1106 C1104 1.378 . S
C1106 C1107 1.367 . S
C1107 C1106 1.367 . S
C1107 C1109 1.433 . S
C1108 C1104 1.356 . S
C1108 C1105 1.424 1_455 S
C1108 N1112 1.461 . S
C1109 H1099 0.929 . S
C1109 C1107 1.433 . S
C1109 N1112 1.384 . S
C1110 H1101 0.929 . S
C1110 C1102 1.378 . S
C1110 C1105 1.350 . S
C1111 H1098 0.929 . S
C1111 C1103 1.433 . S
C1111 N1113 1.384 . S
N1112 C1108 1.461 . S
N1112 C1109 1.384 . S
N1113 C1105 1.427 . S
N1113 C1111 1.384 . S
H1114 C1120 0.930 . S
H1115 C1124 0.930 . S
H1116 C1129 0.929 . S
H1117 C1127 0.929 . S
H1118 C1122 0.929 . S
H1119 C1128 0.929 . S
C1120 H1114 0.930 . S
C1120 C1121 1.367 . S
C1120 C1128 1.378 . S
C1121 C1120 1.367 . S
C1121 C1129 1.433 . S
C1122 H1118 0.929 . S
C1122 C1124 1.378 . S
C1122 C1126 1.350 . S
C1123 C1126 1.463 . S
C1123 C1128 1.350 . S
C1123 N1131 1.427 . S
C1124 H1115 0.930 . S
C1124 C1122 1.378 . S
C1124 C1125 1.367 . S
C1125 C1124 1.367 . S
C1125 C1127 1.433 . S
C1126 C1122 1.350 . S
C1126 C1123 1.463 . S
C1126 N1130 1.427 . S
C1127 H1117 0.929 . S
C1127 C1125 1.433 . S
C1127 N1130 1.384 . S
C1128 H1119 0.929 . S
C1128 C1120 1.378 . S
C1128 C1123 1.350 . S
C1129 H1116 0.929 . S
C1129 C1121 1.433 . S
C1129 N1131 1.384 . S
N1130 C1126 1.427 . S
N1130 C1127 1.384 . S
N1131 C1123 1.427 . S
N1131 C1129 1.384 . S
H1132 C1138 0.930 . S
H1133 C1142 0.930 . S
H1134 C1147 0.929 . S
H1135 C1145 0.929 . S
H1136 C1140 0.929 . S
H1137 C1146 0.929 . S
C1138 H1132 0.930 . S
C1138 C1139 1.367 . S
C1138 C1146 1.378 . S
C1139 C1138 1.367 . S
C1139 C1147 1.433 1_565 S
C1140 H1136 0.929 . S
C1140 C1142 1.378 . S
C1140 C1144 1.350 . S
C1141 C1144 1.463 . S
C1141 C1146 1.350 1_545 S
C1141 N1149 1.427 . S
C1142 H1133 0.930 . S
C1142 C1140 1.378 . S
C1142 C1143 1.367 . S
C1143 C1142 1.367 . S
C1143 C1145 1.433 . S
C1144 C1140 1.350 . S
C1144 C1141 1.463 . S
C1144 N1148 1.427 . S
C1145 H1135 0.929 . S
C1145 C1143 1.433 . S
C1145 N1148 1.384 . S
C1146 H1137 0.929 . S
C1146 C1138 1.378 . S
C1146 C1141 1.350 1_565 S
C1147 H1134 0.929 . S
C1147 C1139 1.433 1_545 S
C1147 N1149 1.384 . S
N1148 C1144 1.427 . S
N1148 C1145 1.384 . S
N1149 C1141 1.427 . S
N1149 C1147 1.384 . S
H1150 C1156 0.930 . S
H1151 C1160 0.930 . S
H1152 C1165 0.929 . S
H1153 C1163 0.929 . S
H1154 C1158 0.929 . S
H1155 C1164 0.929 . S
C1156 H1150 0.930 . S
C1156 C1157 1.367 . S
C1156 C1164 1.378 . S
C1157 C1156 1.367 . S
C1157 C1165 1.433 . S
C1158 H1154 0.929 . S
C1158 C1160 1.378 . S
C1158 C1162 1.350 . S
C1159 C1162 1.463 . S
C1159 C1164 1.350 . S
C1159 N1167 1.427 . S
C1160 H1151 0.930 . S
C1160 C1158 1.378 . S
C1160 C1161 1.367 . S
C1161 C1160 1.367 . S
C1161 C1163 1.433 . S
C1162 C1158 1.350 . S
C1162 C1159 1.463 . S
C1162 N1166 1.427 . S
C1163 H1153 0.929 . S
C1163 C1161 1.433 . S
C1163 N1166 1.384 . S
C1164 H1155 0.929 . S
C1164 C1156 1.378 . S
C1164 C1159 1.350 . S
C1165 H1152 0.929 . S
C1165 C1157 1.433 . S
C1165 N1167 1.384 . S
N1166 C1162 1.427 . S
N1166 C1163 1.384 . S
N1167 C1159 1.427 . S
N1167 C1165 1.384 . S
H1168 C1174 0.930 . S
H1169 C1178 0.930 . S
H1170 C1183 0.929 . S
H1171 C1181 0.929 . S
H1172 C1176 0.929 . S
H1173 C1182 0.929 . S
C1174 H1168 0.930 . S
C1174 C1175 1.367 . S
C1174 C1182 1.378 . S
C1175 C1174 1.367 . S
C1175 C1183 1.433 . S
C1176 H1172 0.929 . S
C1176 C1178 1.378 . S
C1176 C1180 1.350 . S
C1177 C1180 1.463 . S
C1177 C1182 1.350 . S
C1177 N1185 1.427 . S
C1178 H1169 0.930 . S
C1178 C1176 1.378 . S
C1178 C1179 1.367 1_655 S
C1179 C1178 1.367 1_455 S
C1179 C1181 1.433 . S
C1180 C1176 1.350 . S
C1180 C1177 1.463 . S
C1180 N1184 1.416 1_655 S
C1181 H1171 0.929 . S
C1181 C1179 1.433 . S
C1181 N1184 1.391 . S
C1182 H1173 0.929 . S
C1182 C1174 1.378 . S
C1182 C1177 1.350 . S
C1183 H1170 0.929 . S
C1183 C1175 1.433 . S
C1183 N1185 1.384 . S
N1184 C1180 1.416 1_455 S
N1184 C1181 1.391 . S
N1185 C1177 1.427 . S
N1185 C1183 1.384 . S
H1186 C1192 0.930 . S
H1187 C1196 0.930 . S
H1188 C1201 0.929 . S
H1189 C1199 0.929 . S
H1190 C1194 0.929 . S
H1191 C1200 0.929 . S
C1192 H1186 0.930 . S
C1192 C1193 1.367 . S
C1192 C1200 1.378 . S
C1193 C1192 1.367 . S
C1193 C1201 1.433 . S
C1194 H1190 0.929 . S
C1194 C1196 1.378 . S
C1194 C1198 1.350 . S
C1195 C1198 1.463 . S
C1195 C1200 1.350 . S
C1195 N1203 1.427 . S
C1196 H1187 0.930 . S
C1196 C1194 1.378 . S
C1196 C1197 1.367 . S
C1197 C1196 1.367 . S
C1197 C1199 1.433 . S
C1198 C1194 1.350 . S
C1198 C1195 1.463 . S
C1198 N1202 1.427 . S
C1199 H1189 0.929 . S
C1199 C1197 1.433 . S
C1199 N1202 1.384 . S
C1200 H1191 0.929 . S
C1200 C1192 1.378 . S
C1200 C1195 1.350 . S
C1201 H1188 0.929 . S
C1201 C1193 1.433 . S
C1201 N1203 1.384 . S
N1202 C1198 1.427 . S
N1202 C1199 1.384 . S
N1203 C1195 1.427 . S
N1203 C1201 1.384 . S
H1204 C1210 0.930 . S
H1205 C1214 0.930 . S
H1206 C1219 0.929 1_565 S
H1207 C1217 0.929 . S
H1208 C1212 0.929 . S
H1209 C1218 0.929 . S
C1210 H1204 0.930 . S
C1210 C1211 1.367 . S
C1210 C1218 1.378 . S
C1211 C1210 1.367 . S
C1211 C1219 1.433 . S
C1212 H1208 0.929 . S
C1212 C1214 1.378 . S
C1212 C1216 1.350 . S
C1213 C1216 1.463 . S
C1213 C1218 1.350 . S
C1213 N1221 1.427 . S
C1214 H1205 0.930 . S
C1214 C1212 1.378 . S
C1214 C1215 1.367 . S
C1215 C1214 1.367 . S
C1215 C1217 1.433 . S
C1216 C1212 1.350 . S
C1216 C1213 1.463 . S
C1216 N1220 1.427 . S
C1217 H1207 0.929 . S
C1217 C1215 1.433 . S
C1217 N1220 1.384 . S
C1218 H1209 0.929 . S
C1218 C1210 1.378 . S
C1218 C1213 1.350 . S
C1219 H1206 0.929 1_545 S
C1219 C1211 1.433 . S
C1219 N1221 1.384 . S
N1220 C1216 1.427 . S
N1220 C1217 1.384 . S
N1221 C1213 1.427 . S
N1221 C1219 1.384 . S
H1222 C1228 0.930 . S
H1223 C1232 0.930 . S
H1224 C1237 0.929 . S
H1225 C1235 0.929 . S
H1226 C1230 0.929 . S
H1227 C1236 0.929 . S
C1228 H1222 0.930 . S
C1228 C1229 1.367 . S
C1228 C1236 1.378 . S
C1229 C1228 1.367 . S
C1229 C1237 1.433 . S
C1230 H1226 0.929 . S
C1230 C1232 1.378 . S
C1230 C1234 1.350 . S
C1231 C1234 1.463 . S
C1231 C1236 1.350 . S
C1231 N1239 1.427 . S
C1232 H1223 0.930 . S
C1232 C1230 1.378 . S
C1232 C1233 1.367 . S
C1233 C1232 1.367 . S
C1233 C1235 1.433 . S
C1234 C1230 1.350 . S
C1234 C1231 1.463 . S
C1234 N1238 1.427 . S
C1235 H1225 0.929 . S
C1235 C1233 1.433 . S
C1235 N1238 1.384 . S
C1236 H1227 0.929 . S
C1236 C1228 1.378 . S
C1236 C1231 1.350 . S
C1237 H1224 0.929 . S
C1237 C1229 1.433 . S
C1237 N1239 1.384 . S
N1238 C1234 1.427 . S
N1238 C1235 1.384 . S
N1239 C1231 1.427 . S
N1239 C1237 1.384 . S
H1240 C1246 0.930 . S
H1241 C1250 0.930 . S
H1242 C1255 0.929 . S
H1243 C1253 0.929 . S
H1244 C1248 0.929 . S
H1245 C1254 0.929 . S
C1246 H1240 0.930 . S
C1246 C1247 1.367 . S
C1246 C1254 1.378 . S
C1247 C1246 1.367 . S
C1247 C1255 1.433 . S
C1248 H1244 0.929 . S
C1248 C1250 1.378 . S
C1248 C1252 1.350 . S
C1249 C1252 1.463 1_565 S
C1249 C1254 1.350 . S
C1249 N1257 1.427 . S
C1250 H1241 0.930 . S
C1250 C1248 1.378 . S
C1250 C1251 1.367 . S
C1251 C1250 1.367 . S
C1251 C1253 1.433 . S
C1252 C1248 1.350 . S
C1252 C1249 1.463 1_545 S
C1252 N1256 1.427 . S
C1253 H1243 0.929 . S
C1253 C1251 1.433 . S
C1253 N1256 1.384 . S
C1254 H1245 0.929 . S
C1254 C1246 1.378 . S
C1254 C1249 1.350 . S
C1255 H1242 0.929 . S
C1255 C1247 1.433 . S
C1255 N1257 1.384 . S
N1256 C1252 1.427 . S
N1256 C1253 1.384 . S
N1257 C1249 1.427 . S
N1257 C1255 1.384 . S
H1258 C1264 0.930 . S
H1259 C1268 0.930 . S
H1260 C1273 0.929 . S
H1261 C1271 0.929 . S
H1262 C1266 0.929 . S
H1263 C1272 0.929 . S
C1264 H1258 0.930 . S
C1264 C1265 1.367 1_556 S
C1264 C1272 1.378 . S
C1265 C1264 1.367 1_554 S
C1265 C1273 1.433 . S
C1266 H1262 0.929 . S
C1266 C1268 1.378 . S
C1266 C1270 1.350 . S
C1267 C1270 1.463 . S
C1267 C1272 1.350 1_554 S
C1267 N1275 1.427 . S
C1268 H1259 0.930 . S
C1268 C1266 1.378 . S
C1268 C1269 1.367 . S
C1269 C1268 1.367 . S
C1269 C1271 1.433 1_554 S
C1270 C1266 1.350 . S
C1270 C1267 1.463 . S
C1270 N1274 1.427 1_554 S
C1271 H1261 0.929 . S
C1271 C1269 1.433 1_556 S
C1271 N1274 1.384 . S
C1272 H1263 0.929 . S
C1272 C1264 1.378 . S
C1272 C1267 1.350 1_556 S
C1273 H1260 0.929 . S
C1273 C1265 1.433 . S
C1273 N1275 1.384 . S
N1274 C1270 1.427 1_556 S
N1274 C1271 1.384 . S
N1275 C1267 1.427 . S
N1275 C1273 1.384 . S
H1276 C1282 0.930 . S
H1277 C1286 0.930 . S
H1278 C1291 0.929 . S
H1279 C1289 0.929 . S
H1280 C1284 0.929 . S
H1281 C1290 0.929 . S
C1282 H1276 0.930 . S
C1282 C1283 1.367 . S
C1282 C1290 1.378 . S
C1283 C1282 1.367 . S
C1283 C1291 1.433 . S
C1284 H1280 0.929 . S
C1284 C1286 1.378 . S
C1284 C1288 1.350 . S
C1285 C1288 1.463 . S
C1285 C1290 1.350 . S
C1285 N1293 1.427 . S
C1286 H1277 0.930 . S
C1286 C1284 1.378 . S
C1286 C1287 1.367 . S
C1287 C1286 1.367 . S
C1287 C1289 1.433 . S
C1288 C1284 1.350 . S
C1288 C1285 1.463 . S
C1288 N1292 1.427 . S
C1289 H1279 0.929 . S
C1289 C1287 1.433 . S
C1289 N1292 1.384 . S
C1290 H1281 0.929 . S
C1290 C1282 1.378 . S
C1290 C1285 1.350 . S
C1291 H1278 0.929 . S
C1291 C1283 1.433 . S
C1291 N1293 1.384 . S
N1292 C1288 1.427 . S
N1292 C1289 1.384 . S
N1293 C1285 1.427 . S
N1293 C1291 1.384 . S
H1294 C1300 0.930 . S
H1295 C1304 0.930 . S
H1296 C1309 0.929 . S
H1297 C1307 0.929 . S
H1298 C1302 0.929 . S
H1299 C1308 0.929 . S
C1300 H1294 0.930 . S
C1300 C1301 1.367 . S
C1300 C1308 1.378 . S
C1301 C1300 1.367 . S
C1301 C1309 1.433 . S
C1302 H1298 0.929 . S
C1302 C1304 1.378 . S
C1302 C1306 1.350 . S
C1303 C1306 1.463 . S
C1303 C1308 1.350 . S
C1303 N1311 1.427 . S
C1304 H1295 0.930 . S
C1304 C1302 1.378 . S
C1304 C1305 1.367 . S
C1305 C1304 1.367 . S
C1305 C1307 1.433 . S
C1306 C1302 1.350 . S
C1306 C1303 1.463 . S
C1306 N1310 1.427 . S
C1307 H1297 0.929 . S
C1307 C1305 1.433 . S
C1307 N1310 1.384 . S
C1308 H1299 0.929 . S
C1308 C1300 1.378 . S
C1308 C1303 1.350 . S
C1309 H1296 0.929 . S
C1309 C1301 1.433 . S
C1309 N1311 1.384 . S
N1310 C1306 1.427 . S
N1310 C1307 1.384 . S
N1311 C1303 1.427 . S
N1311 C1309 1.384 . S
H1312 C1318 0.930 . S
H1313 C1322 0.930 . S
H1314 C1327 0.929 . S
H1315 C1325 0.929 . S
H1316 C1320 0.929 . S
H1317 C1326 0.929 . S
C1318 H1312 0.930 . S
C1318 C1319 1.367 . S
C1318 C1326 1.378 . S
C1319 C1318 1.367 . S
C1319 C1327 1.433 . S
C1320 H1316 0.929 . S
C1320 C1322 1.378 . S
C1320 C1324 1.350 . S
C1321 C1324 1.463 . S
C1321 C1326 1.350 . S
C1321 N1329 1.427 . S
C1322 H1313 0.930 . S
C1322 C1320 1.378 . S
C1322 C1323 1.367 . S
C1323 C1322 1.367 . S
C1323 C1325 1.433 . S
C1324 C1320 1.350 . S
C1324 C1321 1.463 . S
C1324 N1328 1.427 . S
C1325 H1315 0.929 . S
C1325 C1323 1.433 . S
C1325 N1328 1.384 . S
C1326 H1317 0.929 . S
C1326 C1318 1.378 . S
C1326 C1321 1.350 . S
C1327 H1314 0.929 . S
C1327 C1319 1.433 . S
C1327 N1329 1.384 . S
N1328 C1324 1.427 . S
N1328 C1325 1.384 . S
N1329 C1321 1.427 . S
N1329 C1327 1.384 . S
H1330 C1336 0.930 . S
H1331 C1340 0.930 . S
H1332 C1345 0.929 . S
H1333 C1343 0.929 . S
H1334 C1338 0.929 . S
H1335 C1344 0.929 . S
C1336 H1330 0.930 . S
C1336 C1337 1.367 . S
C1336 C1344 1.378 . S
C1337 C1336 1.367 . S
C1337 C1345 1.433 . S
C1338 H1334 0.929 . S
C1338 C1340 1.378 . S
C1338 C1342 1.350 . S
C1339 C1342 1.463 . S
C1339 C1344 1.350 . S
C1339 N1347 1.427 . S
C1340 H1331 0.930 . S
C1340 C1338 1.378 . S
C1340 C1341 1.367 . S
C1341 C1340 1.367 . S
C1341 C1343 1.433 . S
C1342 C1338 1.350 . S
C1342 C1339 1.463 . S
C1342 N1346 1.427 . S
C1343 H1333 0.929 . S
C1343 C1341 1.433 . S
C1343 N1346 1.384 . S
C1344 H1335 0.929 . S
C1344 C1336 1.378 . S
C1344 C1339 1.350 . S
C1345 H1332 0.929 . S
C1345 C1337 1.433 . S
C1345 N1347 1.384 . S
N1346 C1342 1.427 . S
N1346 C1343 1.384 . S
N1347 C1339 1.427 . S
N1347 C1345 1.384 . S
H1348 C1354 0.930 . S
H1349 C1358 0.930 . S
H1350 C1363 0.929 . S
H1351 C1361 0.929 . S
H1352 C1356 0.929 . S
H1353 C1362 0.929 . S
C1354 H1348 0.930 . S
C1354 C1355 1.367 . S
C1354 C1362 1.378 . S
C1355 C1354 1.367 . S
C1355 C1363 1.433 . S
C1356 H1352 0.929 . S
C1356 C1358 1.378 . S
C1356 C1360 1.350 . S
C1357 C1360 1.463 . S
C1357 C1362 1.350 . S
C1357 N1365 1.427 . S
C1358 H1349 0.930 . S
C1358 C1356 1.378 . S
C1358 C1359 1.367 . S
C1359 C1358 1.367 . S
C1359 C1361 1.433 . S
C1360 C1356 1.350 . S
C1360 C1357 1.463 . S
C1360 N1364 1.427 . S
C1361 H1351 0.929 . S
C1361 C1359 1.433 . S
C1361 N1364 1.384 . S
C1362 H1353 0.929 . S
C1362 C1354 1.378 . S
C1362 C1357 1.350 . S
C1363 H1350 0.929 . S
C1363 C1355 1.433 . S
C1363 N1365 1.384 . S
N1364 C1360 1.427 . S
N1364 C1361 1.384 . S
N1365 C1357 1.427 . S
N1365 C1363 1.384 . S
H1366 C1372 0.930 . S
H1367 C1376 0.930 . S
H1368 C1381 0.929 . S
H1369 C1379 0.929 . S
H1370 C1374 0.929 . S
H1371 C1380 0.929 . S
C1372 H1366 0.930 . S
C1372 C1373 1.367 . S
C1372 C1380 1.378 . S
C1373 C1372 1.367 . S
C1373 C1381 1.433 . S
C1374 H1370 0.929 . S
C1374 C1376 1.378 . S
C1374 C1378 1.350 . S
C1375 C1378 1.463 . S
C1375 C1380 1.350 . S
C1375 N1383 1.427 . S
C1376 H1367 0.930 . S
C1376 C1374 1.378 . S
C1376 C1377 1.367 . S
C1377 C1376 1.367 . S
C1377 C1379 1.433 . S
C1378 C1374 1.350 . S
C1378 C1375 1.463 . S
C1378 N1382 1.427 . S
C1379 H1369 0.929 . S
C1379 C1377 1.433 . S
C1379 N1382 1.384 . S
C1380 H1371 0.929 . S
C1380 C1372 1.378 . S
C1380 C1375 1.350 . S
C1381 H1368 0.929 . S
C1381 C1373 1.433 . S
C1381 N1383 1.384 . S
N1382 C1378 1.427 . S
N1382 C1379 1.384 . S
N1383 C1375 1.427 . S
N1383 C1381 1.384 . S
H1384 C1390 0.930 . S
H1385 C1394 0.930 . S
H1386 C1399 0.929 . S
H1387 C1397 0.929 . S
H1388 C1392 0.929 . S
H1389 C1398 0.929 . S
C1390 H1384 0.930 . S
C1390 C1391 1.367 . S
C1390 C1398 1.378 . S
C1391 C1390 1.367 . S
C1391 C1399 1.433 . S
C1392 H1388 0.929 . S
C1392 C1394 1.378 . S
C1392 C1396 1.350 . S
C1393 C1396 1.463 . S
C1393 C1398 1.350 . S
C1393 N1401 1.427 . S
C1394 H1385 0.930 . S
C1394 C1392 1.378 . S
C1394 C1395 1.367 1_565 S
C1395 C1394 1.367 1_545 S
C1395 C1397 1.433 . S
C1396 C1392 1.350 . S
C1396 C1393 1.463 . S
C1396 N1400 1.427 . S
C1397 H1387 0.929 . S
C1397 C1395 1.433 . S
C1397 N1400 1.384 1_545 S
C1398 H1389 0.929 . S
C1398 C1390 1.378 . S
C1398 C1393 1.350 . S
C1399 H1386 0.929 . S
C1399 C1391 1.433 . S
C1399 N1401 1.384 . S
N1400 C1396 1.427 . S
N1400 C1397 1.384 1_565 S
N1401 C1393 1.427 . S
N1401 C1399 1.384 . S
H1402 C1408 0.930 . S
H1403 C1412 0.930 . S
H1404 C1417 0.929 . S
H1405 C1415 0.929 . S
H1406 C1410 0.929 . S
H1407 C1416 0.929 . S
C1408 H1402 0.930 . S
C1408 C1409 1.367 . S
C1408 C1416 1.378 . S
C1409 C1408 1.367 . S
C1409 C1417 1.433 . S
C1410 H1406 0.929 . S
C1410 C1412 1.378 . S
C1410 C1414 1.350 . S
C1411 C1414 1.463 . S
C1411 C1416 1.350 . S
C1411 N1419 1.427 . S
C1412 H1403 0.930 . S
C1412 C1410 1.378 . S
C1412 C1413 1.367 . S
C1413 C1412 1.367 . S
C1413 C1415 1.433 . S
C1414 C1410 1.350 . S
C1414 C1411 1.463 . S
C1414 N1418 1.427 . S
C1415 H1405 0.929 . S
C1415 C1413 1.433 . S
C1415 N1418 1.384 . S
C1416 H1407 0.929 . S
C1416 C1408 1.378 . S
C1416 C1411 1.350 . S
C1417 H1404 0.929 . S
C1417 C1409 1.433 . S
C1417 N1419 1.384 . S
N1418 C1414 1.427 . S
N1418 C1415 1.384 . S
N1419 C1411 1.427 . S
N1419 C1417 1.384 . S
H1420 C1426 0.930 . S
H1421 C1430 0.930 . S
H1422 C1435 0.929 . S
H1423 C1433 0.929 . S
H1424 C1428 0.929 . S
H1425 C1434 0.929 . S
C1426 H1420 0.930 . S
C1426 C1427 1.367 . S
C1426 C1434 1.378 . S
C1427 C1426 1.367 . S
C1427 C1435 1.433 . S
C1428 H1424 0.929 . S
C1428 C1430 1.378 . S
C1428 C1432 1.350 . S
C1429 C1432 1.463 . S
C1429 C1434 1.350 . S
C1429 N1437 1.427 . S
C1430 H1421 0.930 . S
C1430 C1428 1.378 . S
C1430 C1431 1.367 . S
C1431 C1430 1.367 . S
C1431 C1433 1.433 . S
C1432 C1428 1.350 . S
C1432 C1429 1.463 . S
C1432 N1436 1.427 . S
C1433 H1423 0.929 . S
C1433 C1431 1.433 . S
C1433 N1436 1.384 . S
C1434 H1425 0.929 . S
C1434 C1426 1.378 . S
C1434 C1429 1.350 . S
C1435 H1422 0.929 . S
C1435 C1427 1.433 . S
C1435 N1437 1.384 . S
N1436 C1432 1.427 . S
N1436 C1433 1.384 . S
N1437 C1429 1.427 . S
N1437 C1435 1.384 . S
H1438 C1444 0.930 . S
H1439 C1448 0.930 . S
H1440 C1453 0.929 . S
H1441 C1451 0.929 . S
H1442 C1446 0.929 . S
H1443 C1452 0.929 . S
C1444 H1438 0.930 . S
C1444 C1445 1.367 . S
C1444 C1452 1.378 . S
C1445 C1444 1.367 . S
C1445 C1453 1.433 . S
C1446 H1442 0.929 . S
C1446 C1448 1.378 . S
C1446 C1450 1.350 . S
C1447 C1450 1.463 . S
C1447 C1452 1.350 . S
C1447 N1455 1.427 . S
C1448 H1439 0.930 . S
C1448 C1446 1.378 . S
C1448 C1449 1.367 . S
C1449 C1448 1.367 . S
C1449 C1451 1.433 . S
C1450 C1446 1.350 . S
C1450 C1447 1.463 . S
C1450 N1454 1.427 . S
C1451 H1441 0.929 . S
C1451 C1449 1.433 . S
C1451 N1454 1.384 . S
C1452 H1443 0.929 . S
C1452 C1444 1.378 . S
C1452 C1447 1.350 . S
C1453 H1440 0.929 . S
C1453 C1445 1.433 . S
C1453 N1455 1.384 . S
N1454 C1450 1.427 . S
N1454 C1451 1.384 . S
N1455 C1447 1.427 . S
N1455 C1453 1.384 . S
H1456 C1462 0.930 . S
H1457 C1466 0.930 . S
H1458 C1471 0.929 1_655 S
H1459 C1469 0.929 . S
H1460 C1464 0.929 1_655 S
H1461 C1470 0.929 . S
C1462 H1456 0.930 . S
C1462 C1463 1.367 . S
C1462 C1470 1.378 . S
C1463 C1462 1.367 . S
C1463 C1471 1.433 . S
C1464 H1460 0.929 1_455 S
C1464 C1466 1.378 . S
C1464 C1468 1.350 . S
C1465 C1468 1.463 . S
C1465 C1470 1.350 . S
C1465 N1473 1.427 . S
C1466 H1457 0.930 . S
C1466 C1464 1.378 . S
C1466 C1467 1.367 . S
C1467 C1466 1.367 . S
C1467 C1469 1.433 . S
C1468 C1464 1.350 . S
C1468 C1465 1.463 . S
C1468 N1472 1.427 . S
C1469 H1459 0.929 . S
C1469 C1467 1.433 . S
C1469 N1472 1.384 . S
C1470 H1461 0.929 . S
C1470 C1462 1.378 . S
C1470 C1465 1.350 . S
C1471 H1458 0.929 1_455 S
C1471 C1463 1.433 . S
C1471 N1473 1.384 . S
N1472 C1468 1.427 . S
N1472 C1469 1.384 . S
N1473 C1465 1.427 . S
N1473 C1471 1.384 . S
H1474 C1480 0.930 . S
H1475 C1484 0.930 . S
H1476 C1489 0.929 . S
H1477 C1487 0.929 . S
H1478 C1482 0.929 . S
H1479 C1488 0.929 . S
C1480 H1474 0.930 . S
C1480 C1481 1.367 . S
C1480 C1488 1.378 . S
C1481 C1480 1.367 . S
C1481 C1489 1.433 . S
C1482 H1478 0.929 . S
C1482 C1484 1.378 . S
C1482 C1486 1.350 . S
C1483 C1486 1.463 . S
C1483 C1488 1.350 . S
C1483 N1491 1.427 . S
C1484 H1475 0.930 . S
C1484 C1482 1.378 . S
C1484 C1485 1.367 . S
C1485 C1484 1.367 . S
C1485 C1487 1.433 . S
C1486 C1482 1.350 . S
C1486 C1483 1.463 . S
C1486 N1490 1.427 . S
C1487 H1477 0.929 . S
C1487 C1485 1.433 . S
C1487 N1490 1.384 . S
C1488 H1479 0.929 . S
C1488 C1480 1.378 . S
C1488 C1483 1.350 . S
C1489 H1476 0.929 . S
C1489 C1481 1.433 . S
C1489 N1491 1.384 . S
N1490 C1486 1.427 . S
N1490 C1487 1.384 . S
N1491 C1483 1.427 . S
N1491 C1489 1.384 . S
H1492 C1498 0.930 . S
H1493 C1502 0.930 1_545 S
H1494 C1507 0.929 . S
H1495 C1505 0.901 1_554 S
H1496 C1500 0.929 . S
H1497 C1506 0.929 . S
C1498 H1492 0.930 . S
C1498 C1499 1.367 . S
C1498 C1506 1.378 . S
C1499 C1498 1.367 . S
C1499 C1507 1.433 . S
C1500 H1496 0.929 . S
C1500 C1502 1.378 . S
C1500 C1504 1.350 . S
C1501 C1504 1.463 . S
C1501 C1506 1.350 . S
C1501 N1509 1.427 . S
C1502 H1493 0.930 1_565 S
C1502 C1500 1.378 . S
C1502 C1503 1.367 1_565 S
C1503 C1502 1.367 1_545 S
C1503 C1505 1.448 1_545 S
C1504 C1500 1.350 . S
C1504 C1501 1.463 . S
C1504 N1508 1.427 . S
C1505 H1495 0.901 1_556 S
C1505 C1503 1.448 1_565 S
C1505 N1508 1.400 . S
C1506 H1497 0.929 . S
C1506 C1498 1.378 . S
C1506 C1501 1.350 . S
C1507 H1494 0.929 . S
C1507 C1499 1.433 . S
C1507 N1509 1.384 . S
N1508 C1504 1.427 . S
N1508 C1505 1.400 . S
N1509 C1501 1.427 . S
N1509 C1507 1.384 . S
H1510 C1516 0.930 . S
H1511 C1520 0.930 . S
H1512 C1525 0.929 . S
H1513 C1523 0.929 . S
H1514 C1518 0.929 . S
H1515 C1524 0.951 . S
C1516 H1510 0.930 . S
C1516 C1517 1.367 . S
C1516 C1524 1.335 1_455 S
C1517 C1516 1.367 . S
C1517 C1525 1.433 . S
C1518 H1514 0.929 . S
C1518 C1520 1.378 . S
C1518 C1522 1.350 . S
C1519 C1522 1.463 . S
C1519 C1524 1.372 . S
C1519 N1527 1.427 1_655 S
C1520 H1511 0.930 . S
C1520 C1518 1.378 . S
C1520 C1521 1.367 . S
C1521 C1520 1.367 . S
C1521 C1523 1.433 . S
C1522 C1518 1.350 . S
C1522 C1519 1.463 . S
C1522 N1526 1.427 . S
C1523 H1513 0.929 . S
C1523 C1521 1.433 . S
C1523 N1526 1.384 . S
C1524 H1515 0.951 . S
C1524 C1516 1.335 1_655 S
C1524 C1519 1.372 . S
C1525 H1512 0.929 . S
C1525 C1517 1.433 . S
C1525 N1527 1.384 . S
N1526 C1522 1.427 . S
N1526 C1523 1.384 . S
N1527 C1519 1.427 1_455 S
N1527 C1525 1.384 . S
H1528 C1534 0.930 . S
H1529 C1538 0.930 . S
H1530 C1543 0.929 . S
H1531 C1541 0.929 . S
H1532 C1536 0.929 . S
H1533 C1542 0.929 . S
C1534 H1528 0.930 . S
C1534 C1535 1.367 . S
C1534 C1542 1.378 . S
C1535 C1534 1.367 . S
C1535 C1543 1.433 . S
C1536 H1532 0.929 . S
C1536 C1538 1.378 . S
C1536 C1540 1.350 . S
C1537 C1540 1.463 . S
C1537 C1542 1.350 . S
C1537 N1545 1.427 . S
C1538 H1529 0.930 . S
C1538 C1536 1.378 . S
C1538 C1539 1.367 . S
C1539 C1538 1.367 . S
C1539 C1541 1.433 . S
C1540 C1536 1.350 . S
C1540 C1537 1.463 . S
C1540 N1544 1.427 . S
C1541 H1531 0.929 . S
C1541 C1539 1.433 . S
C1541 N1544 1.384 . S
C1542 H1533 0.929 . S
C1542 C1534 1.378 . S
C1542 C1537 1.350 . S
C1543 H1530 0.929 . S
C1543 C1535 1.433 . S
C1543 N1545 1.384 . S
N1544 C1540 1.427 . S
N1544 C1541 1.384 . S
N1545 C1537 1.427 . S
N1545 C1543 1.384 . S
H1546 C1552 0.930 . S
H1547 C1556 0.930 . S
H1548 C1561 0.929 . S
H1549 C1559 0.929 . S
H1550 C1554 0.929 . S
H1551 C1560 0.929 . S
C1552 H1546 0.930 . S
C1552 C1553 1.367 . S
C1552 C1560 1.378 . S
C1553 C1552 1.367 . S
C1553 C1561 1.433 . S
C1554 H1550 0.929 . S
C1554 C1556 1.378 . S
C1554 C1558 1.350 . S
C1555 C1558 1.463 . S
C1555 C1560 1.350 . S
C1555 N1563 1.427 . S
C1556 H1547 0.930 . S
C1556 C1554 1.378 . S
C1556 C1557 1.367 . S
C1557 C1556 1.367 . S
C1557 C1559 1.433 . S
C1558 C1554 1.350 . S
C1558 C1555 1.463 . S
C1558 N1562 1.427 . S
C1559 H1549 0.929 . S
C1559 C1557 1.433 . S
C1559 N1562 1.384 . S
C1560 H1551 0.929 . S
C1560 C1552 1.378 . S
C1560 C1555 1.350 . S
C1561 H1548 0.929 . S
C1561 C1553 1.433 . S
C1561 N1563 1.384 . S
N1562 C1558 1.427 . S
N1562 C1559 1.384 . S
N1563 C1555 1.427 . S
N1563 C1561 1.384 . S
H1564 C1570 0.930 . S
H1565 C1574 0.930 . S
H1566 C1579 0.929 . S
H1567 C1577 0.929 . S
H1568 C1572 0.929 . S
H1569 C1578 0.929 . S
C1570 H1564 0.930 . S
C1570 C1571 1.367 . S
C1570 C1578 1.378 . S
C1571 C1570 1.367 . S
C1571 C1579 1.433 . S
C1572 H1568 0.929 . S
C1572 C1574 1.378 . S
C1572 C1576 1.350 . S
C1573 C1576 1.463 . S
C1573 C1578 1.350 . S
C1573 N1581 1.427 . S
C1574 H1565 0.930 . S
C1574 C1572 1.378 . S
C1574 C1575 1.367 . S
C1575 C1574 1.367 . S
C1575 C1577 1.433 . S
C1576 C1572 1.350 . S
C1576 C1573 1.463 . S
C1576 N1580 1.427 . S
C1577 H1567 0.929 . S
C1577 C1575 1.433 . S
C1577 N1580 1.384 . S
C1578 H1569 0.929 . S
C1578 C1570 1.378 . S
C1578 C1573 1.350 . S
C1579 H1566 0.929 . S
C1579 C1571 1.433 . S
C1579 N1581 1.384 . S
N1580 C1576 1.427 . S
N1580 C1577 1.384 . S
N1581 C1573 1.427 . S
N1581 C1579 1.384 . S
H1582 C1588 0.930 . S
H1583 C1592 0.930 . S
H1584 C1597 0.929 . S
H1585 C1595 0.929 . S
H1586 C1590 0.929 . S
H1587 C1596 0.929 . S
C1588 H1582 0.930 . S
C1588 C1589 1.367 . S
C1588 C1596 1.378 . S
C1589 C1588 1.367 . S
C1589 C1597 1.433 . S
C1590 H1586 0.929 . S
C1590 C1592 1.378 . S
C1590 C1594 1.350 . S
C1591 C1594 1.463 . S
C1591 C1596 1.350 . S
C1591 N1599 1.427 . S
C1592 H1583 0.930 . S
C1592 C1590 1.378 . S
C1592 C1593 1.367 . S
C1593 C1592 1.367 . S
C1593 C1595 1.433 . S
C1594 C1590 1.350 . S
C1594 C1591 1.463 . S
C1594 N1598 1.427 . S
C1595 H1585 0.929 . S
C1595 C1593 1.433 . S
C1595 N1598 1.384 . S
C1596 H1587 0.929 . S
C1596 C1588 1.378 . S
C1596 C1591 1.350 . S
C1597 H1584 0.929 . S
C1597 C1589 1.433 . S
C1597 N1599 1.384 . S
N1598 C1594 1.427 . S
N1598 C1595 1.384 . S
N1599 C1591 1.427 . S
N1599 C1597 1.384 . S
H1600 C1606 0.930 . S
H1601 C1610 0.930 . S
H1602 C1615 0.929 . S
H1603 C1613 0.929 . S
H1604 C1608 0.929 . S
H1605 C1614 0.929 . S
C1606 H1600 0.930 . S
C1606 C1607 1.367 . S
C1606 C1614 1.378 . S
C1607 C1606 1.367 . S
C1607 C1615 1.433 . S
C1608 H1604 0.929 . S
C1608 C1610 1.378 . S
C1608 C1612 1.350 . S
C1609 C1612 1.463 . S
C1609 C1614 1.350 . S
C1609 N1617 1.427 . S
C1610 H1601 0.930 . S
C1610 C1608 1.378 . S
C1610 C1611 1.367 . S
C1611 C1610 1.367 . S
C1611 C1613 1.433 . S
C1612 C1608 1.350 . S
C1612 C1609 1.463 . S
C1612 N1616 1.427 . S
C1613 H1603 0.929 . S
C1613 C1611 1.433 . S
C1613 N1616 1.384 . S
C1614 H1605 0.929 . S
C1614 C1606 1.378 . S
C1614 C1609 1.350 . S
C1615 H1602 0.929 . S
C1615 C1607 1.433 . S
C1615 N1617 1.384 . S
N1616 C1612 1.427 . S
N1616 C1613 1.384 . S
N1617 C1609 1.427 . S
N1617 C1615 1.384 . S
H1618 C1624 0.930 . S
H1619 C1628 0.930 . S
H1620 C1633 0.929 . S
H1621 C1631 0.929 . S
H1622 C1626 0.929 . S
H1623 C1632 0.929 . S
C1624 H1618 0.930 . S
C1624 C1625 1.367 . S
C1624 C1632 1.378 . S
C1625 C1624 1.367 . S
C1625 C1633 1.433 . S
C1626 H1622 0.929 . S
C1626 C1628 1.378 . S
C1626 C1630 1.350 . S
C1627 C1630 1.463 . S
C1627 C1632 1.350 . S
C1627 N1635 1.427 . S
C1628 H1619 0.930 . S
C1628 C1626 1.378 . S
C1628 C1629 1.367 . S
C1629 C1628 1.367 . S
C1629 C1631 1.433 . S
C1630 C1626 1.350 . S
C1630 C1627 1.463 . S
C1630 N1634 1.427 . S
C1631 H1621 0.929 . S
C1631 C1629 1.433 . S
C1631 N1634 1.384 . S
C1632 H1623 0.929 . S
C1632 C1624 1.378 . S
C1632 C1627 1.350 . S
C1633 H1620 0.929 . S
C1633 C1625 1.433 . S
C1633 N1635 1.384 . S
N1634 C1630 1.427 . S
N1634 C1631 1.384 . S
N1635 C1627 1.427 . S
N1635 C1633 1.384 . S
H1636 C1642 0.930 . S
H1637 C1646 0.930 . S
H1638 C1651 0.929 . S
H1639 C1649 0.929 . S
H1640 C1644 0.929 . S
H1641 C1650 0.929 . S
C1642 H1636 0.930 . S
C1642 C1643 1.367 . S
C1642 C1650 1.378 . S
C1643 C1642 1.367 . S
C1643 C1651 1.433 . S
C1644 H1640 0.929 . S
C1644 C1646 1.378 . S
C1644 C1648 1.350 . S
C1645 C1648 1.463 . S
C1645 C1650 1.350 . S
C1645 N1653 1.427 . S
C1646 H1637 0.930 . S
C1646 C1644 1.378 . S
C1646 C1647 1.367 . S
C1647 C1646 1.367 . S
C1647 C1649 1.433 . S
C1648 C1644 1.350 . S
C1648 C1645 1.463 . S
C1648 N1652 1.427 . S
C1649 H1639 0.929 . S
C1649 C1647 1.433 . S
C1649 N1652 1.384 . S
C1650 H1641 0.929 . S
C1650 C1642 1.378 . S
C1650 C1645 1.350 . S
C1651 H1638 0.929 . S
C1651 C1643 1.433 . S
C1651 N1653 1.384 . S
N1652 C1648 1.427 . S
N1652 C1649 1.384 . S
N1653 C1645 1.427 . S
N1653 C1651 1.384 . S
H1654 C1660 0.930 . S
H1655 C1664 0.930 . S
H1656 C1669 0.929 . S
H1657 C1667 0.929 . S
H1658 C1662 0.929 . S
H1659 C1668 0.929 . S
C1660 H1654 0.930 . S
C1660 C1661 1.367 . S
C1660 C1668 1.378 . S
C1661 C1660 1.367 . S
C1661 C1669 1.433 . S
C1662 H1658 0.929 . S
C1662 C1664 1.378 . S
C1662 C1666 1.350 . S
C1663 C1666 1.463 . S
C1663 C1668 1.350 . S
C1663 N1671 1.427 . S
C1664 H1655 0.930 . S
C1664 C1662 1.378 . S
C1664 C1665 1.367 . S
C1665 C1664 1.367 . S
C1665 C1667 1.433 . S
C1666 C1662 1.350 . S
C1666 C1663 1.463 . S
C1666 N1670 1.427 . S
C1667 H1657 0.929 . S
C1667 C1665 1.433 . S
C1667 N1670 1.384 . S
C1668 H1659 0.929 . S
C1668 C1660 1.378 . S
C1668 C1663 1.350 . S
C1669 H1656 0.929 . S
C1669 C1661 1.433 . S
C1669 N1671 1.384 . S
N1670 C1666 1.427 . S
N1670 C1667 1.384 . S
N1671 C1663 1.427 . S
N1671 C1669 1.384 . S
H1672 C1678 0.930 . S
H1673 C1682 0.930 . S
H1674 C1687 0.929 . S
H1675 C1685 0.929 . S
H1676 C1680 0.929 . S
H1677 C1686 0.929 . S
C1678 H1672 0.930 . S
C1678 C1679 1.367 . S
C1678 C1686 1.378 . S
C1679 C1678 1.367 . S
C1679 C1687 1.433 1_554 S
C1680 H1676 0.929 . S
C1680 C1682 1.378 . S
C1680 C1684 1.350 . S
C1681 C1684 1.463 . S
C1681 C1686 1.350 1_556 S
C1681 N1689 1.427 . S
C1682 H1673 0.930 . S
C1682 C1680 1.378 . S
C1682 C1683 1.367 . S
C1683 C1682 1.367 . S
C1683 C1685 1.433 1_556 S
C1684 C1680 1.350 . S
C1684 C1681 1.463 . S
C1684 N1688 1.427 1_556 S
C1685 H1675 0.929 . S
C1685 C1683 1.433 1_554 S
C1685 N1688 1.384 . S
C1686 H1677 0.929 . S
C1686 C1678 1.378 . S
C1686 C1681 1.350 1_554 S
C1687 H1674 0.929 . S
C1687 C1679 1.433 1_556 S
C1687 N1689 1.384 . S
N1688 C1684 1.427 1_554 S
N1688 C1685 1.384 . S
N1689 C1681 1.427 . S
N1689 C1687 1.384 . S
H1690 C1696 0.930 1_556 S
H1691 C1700 0.930 . S
H1692 C1705 0.929 . S
H1693 C1703 0.929 1_556 S
H1694 C1698 0.929 . S
H1695 C1704 0.929 1_556 S
C1696 H1690 0.930 1_554 S
C1696 C1697 1.367 . S
C1696 C1704 1.378 . S
C1697 C1696 1.367 . S
C1697 C1705 1.433 . S
C1698 H1694 0.929 . S
C1698 C1700 1.378 . S
C1698 C1702 1.350 . S
C1699 C1702 1.463 . S
C1699 C1704 1.350 . S
C1699 N1707 1.427 . S
C1700 H1691 0.930 . S
C1700 C1698 1.378 . S
C1700 C1701 1.367 . S
C1701 C1700 1.367 . S
C1701 C1703 1.433 . S
C1702 C1698 1.350 . S
C1702 C1699 1.463 . S
C1702 N1706 1.427 . S
C1703 H1693 0.929 1_554 S
C1703 C1701 1.433 . S
C1703 N1706 1.384 . S
C1704 H1695 0.929 1_554 S
C1704 C1696 1.378 . S
C1704 C1699 1.350 . S
C1705 H1692 0.929 . S
C1705 C1697 1.433 . S
C1705 N1707 1.384 . S
N1706 C1702 1.427 . S
N1706 C1703 1.384 . S
N1707 C1699 1.427 . S
N1707 C1705 1.384 . S
H1708 C1714 0.930 . S
H1709 C1718 0.930 . S
H1710 C1723 0.929 . S
H1711 C1721 0.929 . S
H1712 C1716 0.929 . S
H1713 C1722 0.929 . S
C1714 H1708 0.930 . S
C1714 C1715 1.367 . S
C1714 C1722 1.378 . S
C1715 C1714 1.367 . S
C1715 C1723 1.433 . S
C1716 H1712 0.929 . S
C1716 C1718 1.378 . S
C1716 C1720 1.350 . S
C1717 C1720 1.463 . S
C1717 C1722 1.350 . S
C1717 N1725 1.427 . S
C1718 H1709 0.930 . S
C1718 C1716 1.378 . S
C1718 C1719 1.367 . S
C1719 C1718 1.367 . S
C1719 C1721 1.433 . S
C1720 C1716 1.350 . S
C1720 C1717 1.463 . S
C1720 N1724 1.427 . S
C1721 H1711 0.929 . S
C1721 C1719 1.433 . S
C1721 N1724 1.384 . S
C1722 H1713 0.929 . S
C1722 C1714 1.378 . S
C1722 C1717 1.350 . S
C1723 H1710 0.929 . S
C1723 C1715 1.433 . S
C1723 N1725 1.384 . S
N1724 C1720 1.427 . S
N1724 C1721 1.384 . S
N1725 C1717 1.427 . S
N1725 C1723 1.384 . S
H1726 C1732 0.930 . S
H1727 C1736 0.930 . S
H1728 C1741 0.929 . S
H1729 C1739 0.929 . S
H1730 C1734 0.929 . S
H1731 C1740 0.929 . S
C1732 H1726 0.930 . S
C1732 C1733 1.367 . S
C1732 C1740 1.378 . S
C1733 C1732 1.367 . S
C1733 C1741 1.433 . S
C1734 H1730 0.929 . S
C1734 C1736 1.378 . S
C1734 C1738 1.350 . S
C1735 C1738 1.463 . S
C1735 C1740 1.350 . S
C1735 N1743 1.427 . S
C1736 H1727 0.930 . S
C1736 C1734 1.378 . S
C1736 C1737 1.367 . S
C1737 C1736 1.367 . S
C1737 C1739 1.433 . S
C1738 C1734 1.350 . S
C1738 C1735 1.463 . S
C1738 N1742 1.427 . S
C1739 H1729 0.929 . S
C1739 C1737 1.433 . S
C1739 N1742 1.384 . S
C1740 H1731 0.929 . S
C1740 C1732 1.378 . S
C1740 C1735 1.350 . S
C1741 H1728 0.929 . S
C1741 C1733 1.433 . S
C1741 N1743 1.384 . S
N1742 C1738 1.427 . S
N1742 C1739 1.384 . S
N1743 C1735 1.427 . S
N1743 C1741 1.384 . S
H1744 C1750 0.930 . S
H1745 C1754 0.930 . S
H1746 C1759 0.929 . S
H1747 C1757 0.929 . S
H1748 C1752 0.929 . S
H1749 C1758 0.929 . S
C1750 H1744 0.930 . S
C1750 C1751 1.367 . S
C1750 C1758 1.378 . S
C1751 C1750 1.367 . S
C1751 C1759 1.433 . S
C1752 H1748 0.929 . S
C1752 C1754 1.378 . S
C1752 C1756 1.350 . S
C1753 C1756 1.463 . S
C1753 C1758 1.350 . S
C1753 N1761 1.427 . S
C1754 H1745 0.930 . S
C1754 C1752 1.378 . S
C1754 C1755 1.367 . S
C1755 C1754 1.367 . S
C1755 C1757 1.433 . S
C1756 C1752 1.350 . S
C1756 C1753 1.463 . S
C1756 N1760 1.427 . S
C1757 H1747 0.929 . S
C1757 C1755 1.433 . S
C1757 N1760 1.384 . S
C1758 H1749 0.929 . S
C1758 C1750 1.378 . S
C1758 C1753 1.350 . S
C1759 H1746 0.929 . S
C1759 C1751 1.433 . S
C1759 N1761 1.384 . S
N1760 C1756 1.427 . S
N1760 C1757 1.384 . S
N1761 C1753 1.427 . S
N1761 C1759 1.384 . S
H1762 C1768 0.930 . S
H1763 C1772 0.930 . S
H1764 C1777 0.929 . S
H1765 C1775 0.929 . S
H1766 C1770 0.929 . S
H1767 C1776 0.929 . S
C1768 H1762 0.930 . S
C1768 C1769 1.367 . S
C1768 C1776 1.378 . S
C1769 C1768 1.367 . S
C1769 C1777 1.433 . S
C1770 H1766 0.929 . S
C1770 C1772 1.378 . S
C1770 C1774 1.350 . S
C1771 C1774 1.463 . S
C1771 C1776 1.350 . S
C1771 N1779 1.427 . S
C1772 H1763 0.930 . S
C1772 C1770 1.378 . S
C1772 C1773 1.367 . S
C1773 C1772 1.367 . S
C1773 C1775 1.433 1_565 S
C1774 C1770 1.350 . S
C1774 C1771 1.463 . S
C1774 N1778 1.427 . S
C1775 H1765 0.929 . S
C1775 C1773 1.433 1_545 S
C1775 N1778 1.384 1_545 S
C1776 H1767 0.929 . S
C1776 C1768 1.378 . S
C1776 C1771 1.350 . S
C1777 H1764 0.929 . S
C1777 C1769 1.433 . S
C1777 N1779 1.384 . S
N1778 C1774 1.427 . S
N1778 C1775 1.384 1_565 S
N1779 C1771 1.427 . S
N1779 C1777 1.384 . S
H1780 C1786 0.930 . S
H1781 C1790 0.930 . S
H1782 C1795 0.929 . S
H1783 C1793 0.929 . S
H1784 C1788 0.929 . S
H1785 C1794 0.929 . S
C1786 H1780 0.930 . S
C1786 C1787 1.367 . S
C1786 C1794 1.378 . S
C1787 C1786 1.367 . S
C1787 C1795 1.433 . S
C1788 H1784 0.929 . S
C1788 C1790 1.378 . S
C1788 C1792 1.350 . S
C1789 C1792 1.463 . S
C1789 C1794 1.350 . S
C1789 N1797 1.427 . S
C1790 H1781 0.930 . S
C1790 C1788 1.378 . S
C1790 C1791 1.367 . S
C1791 C1790 1.367 . S
C1791 C1793 1.433 . S
C1792 C1788 1.350 . S
C1792 C1789 1.463 . S
C1792 N1796 1.427 . S
C1793 H1783 0.929 . S
C1793 C1791 1.433 . S
C1793 N1796 1.384 . S
C1794 H1785 0.929 . S
C1794 C1786 1.378 . S
C1794 C1789 1.350 . S
C1795 H1782 0.929 . S
C1795 C1787 1.433 . S
C1795 N1797 1.384 . S
N1796 C1792 1.427 . S
N1796 C1793 1.384 . S
N1797 C1789 1.427 . S
N1797 C1795 1.384 . S
H1798 C1804 0.930 . S
H1799 C1808 0.930 . S
H1800 C1813 0.929 . S
H1801 C1811 0.929 . S
H1802 C1806 0.929 . S
H1803 C1812 0.929 . S
C1804 H1798 0.930 . S
C1804 C1805 1.367 . S
C1804 C1812 1.378 . S
C1805 C1804 1.367 . S
C1805 C1813 1.433 . S
C1806 H1802 0.929 . S
C1806 C1808 1.378 . S
C1806 C1810 1.350 . S
C1807 C1810 1.463 . S
C1807 C1812 1.350 . S
C1807 N1815 1.427 . S
C1808 H1799 0.930 . S
C1808 C1806 1.378 . S
C1808 C1809 1.367 . S
C1809 C1808 1.367 . S
C1809 C1811 1.433 . S
C1810 C1806 1.350 . S
C1810 C1807 1.463 . S
C1810 N1814 1.427 . S
C1811 H1801 0.929 . S
C1811 C1809 1.433 . S
C1811 N1814 1.384 . S
C1812 H1803 0.929 . S
C1812 C1804 1.378 . S
C1812 C1807 1.350 . S
C1813 H1800 0.929 . S
C1813 C1805 1.433 . S
C1813 N1815 1.384 . S
N1814 C1810 1.427 . S
N1814 C1811 1.384 . S
N1815 C1807 1.427 . S
N1815 C1813 1.384 . S
H1816 C1822 0.930 . S
H1817 C1826 0.930 . S
H1818 C1831 0.929 . S
H1819 C1829 0.929 . S
H1820 C1824 0.929 . S
H1821 C1830 0.929 . S
C1822 H1816 0.930 . S
C1822 C1823 1.367 . S
C1822 C1830 1.378 . S
C1823 C1822 1.367 . S
C1823 C1831 1.433 . S
C1824 H1820 0.929 . S
C1824 C1826 1.378 . S
C1824 C1828 1.350 . S
C1825 C1828 1.463 . S
C1825 C1830 1.350 . S
C1825 N1833 1.427 . S
C1826 H1817 0.930 . S
C1826 C1824 1.378 . S
C1826 C1827 1.367 . S
C1827 C1826 1.367 . S
C1827 C1829 1.433 . S
C1828 C1824 1.350 . S
C1828 C1825 1.463 . S
C1828 N1832 1.427 . S
C1829 H1819 0.929 . S
C1829 C1827 1.433 . S
C1829 N1832 1.384 . S
C1830 H1821 0.929 . S
C1830 C1822 1.378 . S
C1830 C1825 1.350 . S
C1831 H1818 0.929 . S
C1831 C1823 1.433 . S
C1831 N1833 1.384 . S
N1832 C1828 1.427 . S
N1832 C1829 1.384 . S
N1833 C1825 1.427 . S
N1833 C1831 1.384 . S
H1834 C1840 0.930 . S
H1835 C1844 0.930 . S
H1836 C1849 0.929 . S
H1837 C1847 0.929 . S
H1838 C1842 0.929 . S
H1839 C1848 0.929 . S
C1840 H1834 0.930 . S
C1840 C1841 1.367 . S
C1840 C1848 1.378 . S
C1841 C1840 1.367 . S
C1841 C1849 1.433 . S
C1842 H1838 0.929 . S
C1842 C1844 1.378 . S
C1842 C1846 1.350 . S
C1843 C1846 1.463 . S
C1843 C1848 1.350 . S
C1843 N1851 1.427 . S
C1844 H1835 0.930 . S
C1844 C1842 1.378 . S
C1844 C1845 1.367 . S
C1845 C1844 1.367 . S
C1845 C1847 1.433 . S
C1846 C1842 1.350 . S
C1846 C1843 1.463 . S
C1846 N1850 1.427 . S
C1847 H1837 0.929 . S
C1847 C1845 1.433 . S
C1847 N1850 1.384 . S
C1848 H1839 0.929 . S
C1848 C1840 1.378 . S
C1848 C1843 1.350 . S
C1849 H1836 0.929 . S
C1849 C1841 1.433 . S
C1849 N1851 1.384 . S
N1850 C1846 1.427 . S
N1850 C1847 1.384 . S
N1851 C1843 1.427 . S
N1851 C1849 1.384 . S
H1852 C1858 0.930 . S
H1853 C1862 0.930 . S
H1854 C1867 0.929 . S
H1855 C1865 0.929 . S
H1856 C1860 0.929 . S
H1857 C1866 0.929 . S
C1858 H1852 0.930 . S
C1858 C1859 1.367 . S
C1858 C1866 1.378 . S
C1859 C1858 1.367 . S
C1859 C1867 1.433 . S
C1860 H1856 0.929 . S
C1860 C1862 1.378 . S
C1860 C1864 1.350 1_554 S
C1861 C1864 1.463 . S
C1861 C1866 1.350 . S
C1861 N1869 1.427 . S
C1862 H1853 0.930 . S
C1862 C1860 1.378 . S
C1862 C1863 1.367 . S
C1863 C1862 1.367 . S
C1863 C1865 1.433 1_554 S
C1864 C1860 1.350 1_556 S
C1864 C1861 1.463 . S
C1864 N1868 1.427 . S
C1865 H1855 0.929 . S
C1865 C1863 1.433 1_556 S
C1865 N1868 1.384 . S
C1866 H1857 0.929 . S
C1866 C1858 1.378 . S
C1866 C1861 1.350 . S
C1867 H1854 0.929 . S
C1867 C1859 1.433 . S
C1867 N1869 1.384 . S
N1868 C1864 1.427 . S
N1868 C1865 1.384 . S
N1869 C1861 1.427 . S
N1869 C1867 1.384 . S
H1870 C1876 0.930 . S
H1871 C1880 0.930 . S
H1872 C1885 0.929 . S
H1873 C1883 0.929 . S
H1874 C1878 0.929 . S
H1875 C1884 0.929 . S
C1876 H1870 0.930 . S
C1876 C1877 1.367 . S
C1876 C1884 1.378 . S
C1877 C1876 1.367 . S
C1877 C1885 1.433 . S
C1878 H1874 0.929 . S
C1878 C1880 1.378 . S
C1878 C1882 1.350 . S
C1879 C1882 1.463 . S
C1879 C1884 1.350 1_655 S
C1879 N1887 1.427 . S
C1880 H1871 0.930 . S
C1880 C1878 1.378 . S
C1880 C1881 1.367 . S
C1881 C1880 1.367 . S
C1881 C1883 1.433 . S
C1882 C1878 1.350 . S
C1882 C1879 1.463 . S
C1882 N1886 1.427 . S
C1883 H1873 0.929 . S
C1883 C1881 1.433 . S
C1883 N1886 1.384 . S
C1884 H1875 0.929 . S
C1884 C1876 1.378 . S
C1884 C1879 1.350 1_455 S
C1885 H1872 0.929 . S
C1885 C1877 1.433 . S
C1885 N1887 1.384 1_455 S
N1886 C1882 1.427 . S
N1886 C1883 1.384 . S
N1887 C1879 1.427 . S
N1887 C1885 1.384 1_655 S
H1888 C1894 0.930 . S
H1889 C1898 0.930 . S
H1890 C1903 0.929 . S
H1891 C1901 0.929 . S
H1892 C1896 0.929 . S
H1893 C1902 0.929 . S
C1894 H1888 0.930 . S
C1894 C1895 1.367 . S
C1894 C1902 1.378 . S
C1895 C1894 1.367 . S
C1895 C1903 1.433 . S
C1896 H1892 0.929 . S
C1896 C1898 1.378 . S
C1896 C1900 1.350 . S
C1897 C1900 1.463 . S
C1897 C1902 1.350 . S
C1897 N1905 1.427 . S
C1898 H1889 0.930 . S
C1898 C1896 1.378 . S
C1898 C1899 1.367 . S
C1899 C1898 1.367 . S
C1899 C1901 1.433 . S
C1900 C1896 1.350 . S
C1900 C1897 1.463 . S
C1900 N1904 1.427 . S
C1901 H1891 0.929 . S
C1901 C1899 1.433 . S
C1901 N1904 1.384 . S
C1902 H1893 0.929 . S
C1902 C1894 1.378 . S
C1902 C1897 1.350 . S
C1903 H1890 0.929 . S
C1903 C1895 1.433 . S
C1903 N1905 1.384 . S
N1904 C1900 1.427 . S
N1904 C1901 1.384 . S
N1905 C1897 1.427 . S
N1905 C1903 1.384 . S
H1906 C1912 0.930 . S
H1907 C1916 0.930 . S
H1908 C1921 0.929 . S
H1909 C1919 0.929 . S
H1910 C1914 0.929 . S
H1911 C1920 0.929 . S
C1912 H1906 0.930 . S
C1912 C1913 1.367 . S
C1912 C1920 1.378 . S
C1913 C1912 1.367 . S
C1913 C1921 1.433 . S
C1914 H1910 0.929 . S
C1914 C1916 1.378 . S
C1914 C1918 1.350 . S
C1915 C1918 1.463 . S
C1915 C1920 1.350 . S
C1915 N1923 1.427 . S
C1916 H1907 0.930 . S
C1916 C1914 1.378 . S
C1916 C1917 1.367 . S
C1917 C1916 1.367 . S
C1917 C1919 1.433 . S
C1918 C1914 1.350 . S
C1918 C1915 1.463 . S
C1918 N1922 1.427 . S
C1919 H1909 0.929 . S
C1919 C1917 1.433 . S
C1919 N1922 1.384 . S
C1920 H1911 0.929 . S
C1920 C1912 1.378 . S
C1920 C1915 1.350 . S
C1921 H1908 0.929 . S
C1921 C1913 1.433 . S
C1921 N1923 1.384 . S
N1922 C1918 1.427 . S
N1922 C1919 1.384 . S
N1923 C1915 1.427 . S
N1923 C1921 1.384 . S
H1924 C1930 0.930 . S
H1925 C1934 0.930 . S
H1926 C1939 0.929 . S
H1927 C1937 0.929 . S
H1928 C1932 0.929 . S
H1929 C1938 0.929 . S
C1930 H1924 0.930 . S
C1930 C1931 1.367 . S
C1930 C1938 1.378 . S
C1931 C1930 1.367 . S
C1931 C1939 1.433 . S
C1932 H1928 0.929 . S
C1932 C1934 1.378 . S
C1932 C1936 1.350 . S
C1933 C1936 1.463 . S
C1933 C1938 1.350 . S
C1933 N1941 1.427 . S
C1934 H1925 0.930 . S
C1934 C1932 1.378 . S
C1934 C1935 1.367 . S
C1935 C1934 1.367 . S
C1935 C1937 1.433 . S
C1936 C1932 1.350 . S
C1936 C1933 1.463 . S
C1936 N1940 1.427 . S
C1937 H1927 0.929 . S
C1937 C1935 1.433 . S
C1937 N1940 1.384 . S
C1938 H1929 0.929 . S
C1938 C1930 1.378 . S
C1938 C1933 1.350 . S
C1939 H1926 0.929 . S
C1939 C1931 1.433 . S
C1939 N1941 1.384 . S
N1940 C1936 1.427 . S
N1940 C1937 1.384 . S
N1941 C1933 1.427 . S
N1941 C1939 1.384 . S
H1942 C1948 0.930 . S
H1943 C1952 0.930 . S
H1944 C1957 0.929 . S
H1945 C1955 0.929 . S
H1946 C1950 0.929 . S
H1947 C1956 0.929 . S
C1948 H1942 0.930 . S
C1948 C1949 1.367 . S
C1948 C1956 1.378 . S
C1949 C1948 1.367 . S
C1949 C1957 1.433 . S
C1950 H1946 0.929 . S
C1950 C1952 1.378 . S
C1950 C1954 1.350 . S
C1951 C1954 1.463 . S
C1951 C1956 1.350 . S
C1951 N1959 1.427 . S
C1952 H1943 0.930 . S
C1952 C1950 1.378 . S
C1952 C1953 1.367 . S
C1953 C1952 1.367 . S
C1953 C1955 1.433 . S
C1954 C1950 1.350 . S
C1954 C1951 1.463 . S
C1954 N1958 1.427 . S
C1955 H1945 0.929 . S
C1955 C1953 1.433 . S
C1955 N1958 1.384 . S
C1956 H1947 0.929 . S
C1956 C1948 1.378 . S
C1956 C1951 1.350 . S
C1957 H1944 0.929 . S
C1957 C1949 1.433 . S
C1957 N1959 1.384 . S
N1958 C1954 1.427 . S
N1958 C1955 1.384 . S
N1959 C1951 1.427 . S
N1959 C1957 1.384 . S
H1960 C1966 0.930 . S
H1961 C1970 0.930 . S
H1962 C1975 0.929 . S
H1963 C1973 0.929 . S
H1964 C1968 0.929 . S
H1965 C1974 0.929 . S
C1966 H1960 0.930 . S
C1966 C1967 1.367 . S
C1966 C1974 1.378 . S
C1967 C1966 1.367 . S
C1967 C1975 1.433 . S
C1968 H1964 0.929 . S
C1968 C1970 1.378 . S
C1968 C1972 1.350 . S
C1969 C1972 1.463 . S
C1969 C1974 1.350 . S
C1969 N1977 1.427 . S
C1970 H1961 0.930 . S
C1970 C1968 1.378 . S
C1970 C1971 1.367 . S
C1971 C1970 1.367 . S
C1971 C1973 1.433 . S
C1972 C1968 1.350 . S
C1972 C1969 1.463 . S
C1972 N1976 1.427 . S
C1973 H1963 0.929 . S
C1973 C1971 1.433 . S
C1973 N1976 1.384 . S
C1974 H1965 0.929 . S
C1974 C1966 1.378 . S
C1974 C1969 1.350 . S
C1975 H1962 0.929 . S
C1975 C1967 1.433 . S
C1975 N1977 1.384 . S
N1976 C1972 1.427 . S
N1976 C1973 1.384 . S
N1977 C1969 1.427 . S
N1977 C1975 1.384 . S
H1978 C1984 0.930 . S
H1979 C1988 0.930 . S
H1980 C1993 0.929 . S
H1981 C1991 0.929 . S
H1982 C1986 0.929 . S
H1983 C1992 0.929 . S
C1984 H1978 0.930 . S
C1984 C1985 1.367 . S
C1984 C1992 1.378 . S
C1985 C1984 1.367 . S
C1985 C1993 1.433 . S
C1986 H1982 0.929 . S
C1986 C1988 1.378 . S
C1986 C1990 1.350 . S
C1987 C1990 1.463 . S
C1987 C1992 1.350 . S
C1987 N1995 1.427 . S
C1988 H1979 0.930 . S
C1988 C1986 1.378 . S
C1988 C1989 1.367 . S
C1989 C1988 1.367 . S
C1989 C1991 1.433 . S
C1990 C1986 1.350 . S
C1990 C1987 1.463 . S
C1990 N1994 1.427 . S
C1991 H1981 0.929 . S
C1991 C1989 1.433 . S
C1991 N1994 1.384 . S
C1992 H1983 0.929 . S
C1992 C1984 1.378 . S
C1992 C1987 1.350 . S
C1993 H1980 0.929 . S
C1993 C1985 1.433 . S
C1993 N1995 1.384 . S
N1994 C1990 1.427 . S
N1994 C1991 1.384 . S
N1995 C1987 1.427 . S
N1995 C1993 1.384 . S
H1996 C2002 0.930 . S
H1997 C2006 0.930 . S
H1998 C2011 0.929 . S
H1999 C2009 0.929 . S
H2000 C2004 0.929 . S
H2001 C2010 0.929 . S
C2002 H1996 0.930 . S
C2002 C2003 1.367 . S
C2002 C2010 1.378 . S
C2003 C2002 1.367 . S
C2003 C2011 1.433 . S
C2004 H2000 0.929 . S
C2004 C2006 1.378 . S
C2004 C2008 1.350 . S
C2005 C2008 1.463 . S
C2005 C2010 1.350 . S
C2005 N2013 1.427 . S
C2006 H1997 0.930 . S
C2006 C2004 1.378 . S
C2006 C2007 1.367 . S
C2007 C2006 1.367 . S
C2007 C2009 1.433 . S
C2008 C2004 1.350 . S
C2008 C2005 1.463 . S
C2008 N2012 1.427 . S
C2009 H1999 0.929 . S
C2009 C2007 1.433 . S
C2009 N2012 1.384 . S
C2010 H2001 0.929 . S
C2010 C2002 1.378 . S
C2010 C2005 1.350 . S
C2011 H1998 0.929 . S
C2011 C2003 1.433 . S
C2011 N2013 1.384 . S
N2012 C2008 1.427 . S
N2012 C2009 1.384 . S
N2013 C2005 1.427 . S
N2013 C2011 1.384 . S
H2014 C2020 0.930 . S
H2015 C2024 0.930 . S
H2016 C2029 0.929 . S
H2017 C2027 0.929 . S
H2018 C2022 0.929 . S
H2019 C2028 0.929 . S
C2020 H2014 0.930 . S
C2020 C2021 1.367 . S
C2020 C2028 1.378 . S
C2021 C2020 1.367 . S
C2021 C2029 1.433 . S
C2022 H2018 0.929 . S
C2022 C2024 1.378 . S
C2022 C2026 1.350 . S
C2023 C2026 1.463 . S
C2023 C2028 1.350 . S
C2023 N2031 1.427 . S
C2024 H2015 0.930 . S
C2024 C2022 1.378 . S
C2024 C2025 1.367 . S
C2025 C2024 1.367 . S
C2025 C2027 1.433 . S
C2026 C2022 1.350 . S
C2026 C2023 1.463 . S
C2026 N2030 1.427 . S
C2027 H2017 0.929 . S
C2027 C2025 1.433 . S
C2027 N2030 1.384 . S
C2028 H2019 0.929 . S
C2028 C2020 1.378 . S
C2028 C2023 1.350 . S
C2029 H2016 0.929 . S
C2029 C2021 1.433 . S
C2029 N2031 1.384 . S
N2030 C2026 1.427 . S
N2030 C2027 1.384 . S
N2031 C2023 1.427 . S
N2031 C2029 1.384 . S
H2032 C2038 0.930 . S
H2033 C2042 0.930 . S
H2034 C2047 0.929 . S
H2035 C2045 0.929 . S
H2036 C2040 0.929 . S
H2037 C2046 0.929 . S
C2038 H2032 0.930 . S
C2038 C2039 1.367 . S
C2038 C2046 1.378 . S
C2039 C2038 1.367 . S
C2039 C2047 1.433 . S
C2040 H2036 0.929 . S
C2040 C2042 1.378 . S
C2040 C2044 1.350 . S
C2041 C2044 1.463 . S
C2041 C2046 1.350 . S
C2041 N2049 1.427 . S
C2042 H2033 0.930 . S
C2042 C2040 1.378 . S
C2042 C2043 1.367 . S
C2043 C2042 1.367 . S
C2043 C2045 1.433 . S
C2044 C2040 1.350 . S
C2044 C2041 1.463 . S
C2044 N2048 1.427 . S
C2045 H2035 0.929 . S
C2045 C2043 1.433 . S
C2045 N2048 1.384 . S
C2046 H2037 0.929 . S
C2046 C2038 1.378 . S
C2046 C2041 1.350 . S
C2047 H2034 0.929 . S
C2047 C2039 1.433 . S
C2047 N2049 1.384 . S
N2048 C2044 1.427 . S
N2048 C2045 1.384 . S
N2049 C2041 1.427 . S
N2049 C2047 1.384 . S
H2050 C2056 0.930 . S
H2051 C2060 0.930 . S
H2052 C2065 0.929 . S
H2053 C2063 0.929 . S
H2054 C2058 0.929 . S
H2055 C2064 0.929 . S
C2056 H2050 0.930 . S
C2056 C2057 1.367 . S
C2056 C2064 1.378 . S
C2057 C2056 1.367 . S
C2057 C2065 1.433 . S
C2058 H2054 0.929 . S
C2058 C2060 1.378 . S
C2058 C2062 1.350 . S
C2059 C2062 1.463 . S
C2059 C2064 1.350 . S
C2059 N2067 1.427 . S
C2060 H2051 0.930 . S
C2060 C2058 1.378 . S
C2060 C2061 1.367 . S
C2061 C2060 1.367 . S
C2061 C2063 1.433 . S
C2062 C2058 1.350 . S
C2062 C2059 1.463 . S
C2062 N2066 1.427 . S
C2063 H2053 0.929 . S
C2063 C2061 1.433 . S
C2063 N2066 1.384 . S
C2064 H2055 0.929 . S
C2064 C2056 1.378 . S
C2064 C2059 1.350 . S
C2065 H2052 0.929 . S
C2065 C2057 1.433 . S
C2065 N2067 1.384 . S
N2066 C2062 1.427 . S
N2066 C2063 1.384 . S
N2067 C2059 1.427 . S
N2067 C2065 1.384 . S
H2068 C2074 0.930 . S
H2069 C2078 0.930 . S
H2070 C2083 0.929 . S
H2071 C2081 0.929 . S
H2072 C2076 0.929 . S
H2073 C2082 0.929 . S
C2074 H2068 0.930 . S
C2074 C2075 1.367 . S
C2074 C2082 1.378 . S
C2075 C2074 1.367 . S
C2075 C2083 1.433 . S
C2076 H2072 0.929 . S
C2076 C2078 1.378 . S
C2076 C2080 1.350 . S
C2077 C2080 1.463 . S
C2077 C2082 1.350 . S
C2077 N2085 1.427 . S
C2078 H2069 0.930 . S
C2078 C2076 1.378 . S
C2078 C2079 1.367 . S
C2079 C2078 1.367 . S
C2079 C2081 1.433 . S
C2080 C2076 1.350 . S
C2080 C2077 1.463 . S
C2080 N2084 1.427 . S
C2081 H2071 0.929 . S
C2081 C2079 1.433 . S
C2081 N2084 1.384 . S
C2082 H2073 0.929 . S
C2082 C2074 1.378 . S
C2082 C2077 1.350 . S
C2083 H2070 0.929 . S
C2083 C2075 1.433 . S
C2083 N2085 1.384 . S
N2084 C2080 1.427 . S
N2084 C2081 1.384 . S
N2085 C2077 1.427 . S
N2085 C2083 1.384 . S
H2086 C2092 0.930 . S
H2087 C2096 0.930 . S
H2088 C2101 0.929 . S
H2089 C2099 0.929 . S
H2090 C2094 0.929 . S
H2091 C2100 0.929 . S
C2092 H2086 0.930 . S
C2092 C2093 1.367 . S
C2092 C2100 1.378 . S
C2093 C2092 1.367 . S
C2093 C2101 1.433 . S
C2094 H2090 0.929 . S
C2094 C2096 1.378 . S
C2094 C2098 1.350 . S
C2095 C2098 1.463 . S
C2095 C2100 1.350 . S
C2095 N2103 1.427 . S
C2096 H2087 0.930 . S
C2096 C2094 1.378 . S
C2096 C2097 1.367 . S
C2097 C2096 1.367 . S
C2097 C2099 1.433 . S
C2098 C2094 1.350 . S
C2098 C2095 1.463 . S
C2098 N2102 1.427 . S
C2099 H2089 0.929 . S
C2099 C2097 1.433 . S
C2099 N2102 1.384 . S
C2100 H2091 0.929 . S
C2100 C2092 1.378 . S
C2100 C2095 1.350 . S
C2101 H2088 0.929 . S
C2101 C2093 1.433 . S
C2101 N2103 1.384 . S
N2102 C2098 1.427 . S
N2102 C2099 1.384 . S
N2103 C2095 1.427 . S
N2103 C2101 1.384 . S
H2104 C2110 0.930 . S
H2105 C2114 0.930 . S
H2106 C2119 0.929 . S
H2107 C2117 0.929 . S
H2108 C2112 0.929 . S
H2109 C2118 0.929 . S
C2110 H2104 0.930 . S
C2110 C2111 1.367 . S
C2110 C2118 1.378 . S
C2111 C2110 1.367 . S
C2111 C2119 1.433 . S
C2112 H2108 0.929 . S
C2112 C2114 1.378 . S
C2112 C2116 1.350 . S
C2113 C2116 1.463 . S
C2113 C2118 1.350 . S
C2113 N2121 1.427 . S
C2114 H2105 0.930 . S
C2114 C2112 1.378 . S
C2114 C2115 1.367 . S
C2115 C2114 1.367 . S
C2115 C2117 1.433 . S
C2116 C2112 1.350 . S
C2116 C2113 1.463 . S
C2116 N2120 1.427 . S
C2117 H2107 0.929 . S
C2117 C2115 1.433 . S
C2117 N2120 1.384 . S
C2118 H2109 0.929 . S
C2118 C2110 1.378 . S
C2118 C2113 1.350 . S
C2119 H2106 0.929 . S
C2119 C2111 1.433 . S
C2119 N2121 1.384 . S
N2120 C2116 1.427 . S
N2120 C2117 1.384 . S
N2121 C2113 1.427 . S
N2121 C2119 1.384 . S
H2122 C2128 0.930 . S
H2123 C2132 0.930 . S
H2124 C2137 0.929 . S
H2125 C2135 0.929 . S
H2126 C2130 0.929 . S
H2127 C2136 0.929 . S
C2128 H2122 0.930 . S
C2128 C2129 1.367 . S
C2128 C2136 1.378 . S
C2129 C2128 1.367 . S
C2129 C2137 1.433 . S
C2130 H2126 0.929 . S
C2130 C2132 1.378 . S
C2130 C2134 1.350 . S
C2131 C2134 1.463 . S
C2131 C2136 1.350 . S
C2131 N2139 1.427 . S
C2132 H2123 0.930 . S
C2132 C2130 1.378 . S
C2132 C2133 1.367 . S
C2133 C2132 1.367 . S
C2133 C2135 1.433 . S
C2134 C2130 1.350 . S
C2134 C2131 1.463 . S
C2134 N2138 1.427 . S
C2135 H2125 0.929 . S
C2135 C2133 1.433 . S
C2135 N2138 1.384 . S
C2136 H2127 0.929 . S
C2136 C2128 1.378 . S
C2136 C2131 1.350 . S
C2137 H2124 0.929 . S
C2137 C2129 1.433 . S
C2137 N2139 1.384 . S
N2138 C2134 1.427 . S
N2138 C2135 1.384 . S
N2139 C2131 1.427 . S
N2139 C2137 1.384 . S
H2140 C2146 0.930 . S
H2141 C2150 0.930 . S
H2142 C2155 0.929 . S
H2143 C2153 0.929 . S
H2144 C2148 0.929 . S
H2145 C2154 0.929 . S
C2146 H2140 0.930 . S
C2146 C2147 1.367 . S
C2146 C2154 1.378 . S
C2147 C2146 1.367 . S
C2147 C2155 1.433 . S
C2148 H2144 0.929 . S
C2148 C2150 1.378 . S
C2148 C2152 1.350 1_565 S
C2149 C2152 1.463 . S
C2149 C2154 1.350 . S
C2149 N2157 1.427 . S
C2150 H2141 0.930 . S
C2150 C2148 1.378 . S
C2150 C2151 1.367 . S
C2151 C2150 1.367 . S
C2151 C2153 1.433 1_565 S
C2152 C2148 1.350 1_545 S
C2152 C2149 1.463 . S
C2152 N2156 1.427 . S
C2153 H2143 0.929 . S
C2153 C2151 1.433 1_545 S
C2153 N2156 1.384 . S
C2154 H2145 0.929 . S
C2154 C2146 1.378 . S
C2154 C2149 1.350 . S
C2155 H2142 0.929 . S
C2155 C2147 1.433 . S
C2155 N2157 1.384 . S
N2156 C2152 1.427 . S
N2156 C2153 1.384 . S
N2157 C2149 1.427 . S
N2157 C2155 1.384 . S
H2158 C2164 0.930 . S
H2159 C2168 0.930 . S
H2160 C2173 0.929 . S
H2161 C2171 0.929 . S
H2162 C2166 0.929 . S
H2163 C2172 0.929 . S
C2164 H2158 0.930 . S
C2164 C2165 1.367 . S
C2164 C2172 1.378 . S
C2165 C2164 1.367 . S
C2165 C2173 1.433 . S
C2166 H2162 0.929 . S
C2166 C2168 1.378 . S
C2166 C2170 1.350 . S
C2167 C2170 1.463 . S
C2167 C2172 1.350 1_545 S
C2167 N2175 1.427 . S
C2168 H2159 0.930 . S
C2168 C2166 1.378 . S
C2168 C2169 1.367 . S
C2169 C2168 1.367 . S
C2169 C2171 1.433 . S
C2170 C2166 1.350 . S
C2170 C2167 1.463 . S
C2170 N2174 1.427 . S
C2171 H2161 0.929 . S
C2171 C2169 1.433 . S
C2171 N2174 1.384 . S
C2172 H2163 0.929 . S
C2172 C2164 1.378 . S
C2172 C2167 1.350 1_565 S
C2173 H2160 0.929 . S
C2173 C2165 1.433 . S
C2173 N2175 1.384 1_565 S
N2174 C2170 1.427 . S
N2174 C2171 1.384 . S
N2175 C2167 1.427 . S
N2175 C2173 1.384 1_545 S
H2176 C2182 0.930 . S
H2177 C2186 0.930 . S
H2178 C2191 0.929 . S
H2179 C2189 0.929 . S
H2180 C2184 0.929 . S
H2181 C2190 0.929 . S
C2182 H2176 0.930 . S
C2182 C2183 1.367 . S
C2182 C2190 1.378 . S
C2183 C2182 1.367 . S
C2183 C2191 1.433 . S
C2184 H2180 0.929 . S
C2184 C2186 1.378 . S
C2184 C2188 1.350 . S
C2185 C2188 1.463 . S
C2185 C2190 1.350 . S
C2185 N2193 1.427 . S
C2186 H2177 0.930 . S
C2186 C2184 1.378 . S
C2186 C2187 1.367 . S
C2187 C2186 1.367 . S
C2187 C2189 1.433 . S
C2188 C2184 1.350 . S
C2188 C2185 1.463 . S
C2188 N2192 1.427 . S
C2189 H2179 0.929 . S
C2189 C2187 1.433 . S
C2189 N2192 1.384 . S
C2190 H2181 0.929 . S
C2190 C2182 1.378 . S
C2190 C2185 1.350 . S
C2191 H2178 0.929 . S
C2191 C2183 1.433 . S
C2191 N2193 1.384 . S
N2192 C2188 1.427 . S
N2192 C2189 1.384 . S
N2193 C2185 1.427 . S
N2193 C2191 1.384 . S
H2194 C2200 0.930 . S
H2195 C2204 0.930 . S
H2196 C2209 0.929 . S
H2197 C2207 0.929 . S
H2198 C2202 0.929 . S
H2199 C2208 0.929 . S
C2200 H2194 0.930 . S
C2200 C2201 1.367 . S
C2200 C2208 1.378 . S
C2201 C2200 1.367 . S
C2201 C2209 1.433 . S
C2202 H2198 0.929 . S
C2202 C2204 1.378 . S
C2202 C2206 1.350 . S
C2203 C2206 1.463 . S
C2203 C2208 1.350 . S
C2203 N2211 1.427 . S
C2204 H2195 0.930 . S
C2204 C2202 1.378 . S
C2204 C2205 1.367 . S
C2205 C2204 1.367 . S
C2205 C2207 1.433 . S
C2206 C2202 1.350 . S
C2206 C2203 1.463 . S
C2206 N2210 1.427 . S
C2207 H2197 0.929 . S
C2207 C2205 1.433 . S
C2207 N2210 1.384 . S
C2208 H2199 0.929 . S
C2208 C2200 1.378 . S
C2208 C2203 1.350 . S
C2209 H2196 0.929 . S
C2209 C2201 1.433 . S
C2209 N2211 1.384 . S
N2210 C2206 1.427 . S
N2210 C2207 1.384 . S
N2211 C2203 1.427 . S
N2211 C2209 1.384 . S
H2212 C2218 0.930 . S
H2213 C2222 0.930 . S
H2214 C2227 0.929 . S
H2215 C2225 0.929 . S
H2216 C2220 0.929 . S
H2217 C2226 0.929 . S
C2218 H2212 0.930 . S
C2218 C2219 1.367 . S
C2218 C2226 1.378 . S
C2219 C2218 1.367 . S
C2219 C2227 1.433 . S
C2220 H2216 0.929 . S
C2220 C2222 1.378 . S
C2220 C2224 1.350 . S
C2221 C2224 1.463 . S
C2221 C2226 1.350 . S
C2221 N2229 1.427 . S
C2222 H2213 0.930 . S
C2222 C2220 1.378 . S
C2222 C2223 1.367 . S
C2223 C2222 1.367 . S
C2223 C2225 1.433 . S
C2224 C2220 1.350 . S
C2224 C2221 1.463 . S
C2224 N2228 1.427 . S
C2225 H2215 0.929 . S
C2225 C2223 1.433 . S
C2225 N2228 1.384 . S
C2226 H2217 0.929 . S
C2226 C2218 1.378 . S
C2226 C2221 1.350 . S
C2227 H2214 0.929 . S
C2227 C2219 1.433 . S
C2227 N2229 1.384 . S
N2228 C2224 1.427 . S
N2228 C2225 1.384 . S
N2229 C2221 1.427 . S
N2229 C2227 1.384 . S
H2230 C2236 0.930 . S
H2231 C2240 0.930 . S
H2232 C2245 0.929 . S
H2233 C2243 0.929 . S
H2234 C2238 0.929 . S
H2235 C2244 0.929 . S
C2236 H2230 0.930 . S
C2236 C2237 1.367 . S
C2236 C2244 1.378 . S
C2237 C2236 1.367 . S
C2237 C2245 1.433 . S
C2238 H2234 0.929 . S
C2238 C2240 1.378 . S
C2238 C2242 1.350 . S
C2239 C2242 1.463 . S
C2239 C2244 1.350 . S
C2239 N2247 1.427 . S
C2240 H2231 0.930 . S
C2240 C2238 1.378 . S
C2240 C2241 1.367 1_545 S
C2241 C2240 1.367 1_565 S
C2241 C2243 1.433 . S
C2242 C2238 1.350 . S
C2242 C2239 1.463 . S
C2242 N2246 1.427 . S
C2243 H2233 0.929 . S
C2243 C2241 1.433 . S
C2243 N2246 1.384 1_565 S
C2244 H2235 0.929 . S
C2244 C2236 1.378 . S
C2244 C2239 1.350 . S
C2245 H2232 0.929 . S
C2245 C2237 1.433 . S
C2245 N2247 1.384 . S
N2246 C2242 1.427 . S
N2246 C2243 1.384 1_545 S
N2247 C2239 1.427 . S
N2247 C2245 1.384 . S
H2248 C2254 0.930 . S
H2249 C2258 0.930 . S
H2250 C2263 0.929 . S
H2251 C2261 0.929 . S
H2252 C2256 0.929 . S
H2253 C2262 0.929 . S
C2254 H2248 0.930 . S
C2254 C2255 1.367 . S
C2254 C2262 1.378 . S
C2255 C2254 1.367 . S
C2255 C2263 1.433 . S
C2256 H2252 0.929 . S
C2256 C2258 1.378 . S
C2256 C2260 1.350 . S
C2257 C2260 1.463 . S
C2257 C2262 1.350 . S
C2257 N2265 1.427 . S
C2258 H2249 0.930 . S
C2258 C2256 1.378 . S
C2258 C2259 1.367 . S
C2259 C2258 1.367 . S
C2259 C2261 1.433 . S
C2260 C2256 1.350 . S
C2260 C2257 1.463 . S
C2260 N2264 1.427 . S
C2261 H2251 0.929 . S
C2261 C2259 1.433 . S
C2261 N2264 1.384 . S
C2262 H2253 0.929 . S
C2262 C2254 1.378 . S
C2262 C2257 1.350 . S
C2263 H2250 0.929 . S
C2263 C2255 1.433 . S
C2263 N2265 1.384 . S
N2264 C2260 1.427 . S
N2264 C2261 1.384 . S
N2265 C2257 1.427 . S
N2265 C2263 1.384 . S
H2266 C2272 0.930 . S
H2267 C2276 0.930 . S
H2268 C2281 0.929 . S
H2269 C2279 0.929 . S
H2270 C2274 0.929 . S
H2271 C2280 0.929 . S
C2272 H2266 0.930 . S
C2272 C2273 1.367 . S
C2272 C2280 1.378 . S
C2273 C2272 1.367 . S
C2273 C2281 1.433 . S
C2274 H2270 0.929 . S
C2274 C2276 1.378 . S
C2274 C2278 1.350 . S
C2275 C2278 1.463 . S
C2275 C2280 1.350 . S
C2275 N2283 1.427 . S
C2276 H2267 0.930 . S
C2276 C2274 1.378 . S
C2276 C2277 1.367 . S
C2277 C2276 1.367 . S
C2277 C2279 1.433 . S
C2278 C2274 1.350 . S
C2278 C2275 1.463 . S
C2278 N2282 1.427 . S
C2279 H2269 0.929 . S
C2279 C2277 1.433 . S
C2279 N2282 1.384 . S
C2280 H2271 0.929 . S
C2280 C2272 1.378 . S
C2280 C2275 1.350 . S
C2281 H2268 0.929 . S
C2281 C2273 1.433 . S
C2281 N2283 1.384 . S
N2282 C2278 1.427 . S
N2282 C2279 1.384 . S
N2283 C2275 1.427 . S
N2283 C2281 1.384 . S
H2284 C2290 0.930 . S
H2285 C2294 0.930 . S
H2286 C2299 0.929 . S
H2287 C2297 0.929 . S
H2288 C2292 0.929 . S
H2289 C2298 0.929 . S
C2290 H2284 0.930 . S
C2290 C2291 1.367 . S
C2290 C2298 1.378 . S
C2291 C2290 1.367 . S
C2291 C2299 1.433 . S
C2292 H2288 0.929 . S
C2292 C2294 1.378 . S
C2292 C2296 1.350 . S
C2293 C2296 1.463 . S
C2293 C2298 1.350 . S
C2293 N2301 1.427 . S
C2294 H2285 0.930 . S
C2294 C2292 1.378 . S
C2294 C2295 1.367 . S
C2295 C2294 1.367 . S
C2295 C2297 1.433 . S
C2296 C2292 1.350 . S
C2296 C2293 1.463 . S
C2296 N2300 1.427 . S
C2297 H2287 0.929 . S
C2297 C2295 1.433 . S
C2297 N2300 1.384 . S
C2298 H2289 0.929 . S
C2298 C2290 1.378 . S
C2298 C2293 1.350 . S
C2299 H2286 0.929 . S
C2299 C2291 1.433 . S
C2299 N2301 1.384 . S
N2300 C2296 1.427 . S
N2300 C2297 1.384 . S
N2301 C2293 1.427 . S
N2301 C2299 1.384 . S
H2302 C2308 0.930 . S
H2303 C2312 0.930 . S
H2304 C2317 0.929 . S
H2305 C2315 0.929 . S
H2306 C2310 0.929 . S
H2307 C2316 0.929 . S
C2308 H2302 0.930 . S
C2308 C2309 1.367 . S
C2308 C2316 1.378 . S
C2309 C2308 1.367 . S
C2309 C2317 1.433 . S
C2310 H2306 0.929 . S
C2310 C2312 1.378 . S
C2310 C2314 1.350 . S
C2311 C2314 1.463 . S
C2311 C2316 1.350 . S
C2311 N2319 1.427 . S
C2312 H2303 0.930 . S
C2312 C2310 1.378 . S
C2312 C2313 1.367 . S
C2313 C2312 1.367 . S
C2313 C2315 1.433 . S
C2314 C2310 1.350 . S
C2314 C2311 1.463 . S
C2314 N2318 1.427 . S
C2315 H2305 0.929 . S
C2315 C2313 1.433 . S
C2315 N2318 1.384 . S
C2316 H2307 0.929 . S
C2316 C2308 1.378 . S
C2316 C2311 1.350 . S
C2317 H2304 0.929 . S
C2317 C2309 1.433 . S
C2317 N2319 1.384 . S
N2318 C2314 1.427 . S
N2318 C2315 1.384 . S
N2319 C2311 1.427 . S
N2319 C2317 1.384 . S
H2320 C2326 0.930 . S
H2321 C2330 0.930 . S
H2322 C2335 0.929 . S
H2323 C2333 0.929 . S
H2324 C2328 0.929 . S
H2325 C2334 0.929 . S
C2326 H2320 0.930 . S
C2326 C2327 1.367 . S
C2326 C2334 1.378 . S
C2327 C2326 1.367 . S
C2327 C2335 1.433 . S
C2328 H2324 0.929 . S
C2328 C2330 1.378 . S
C2328 C2332 1.350 . S
C2329 C2332 1.463 . S
C2329 C2334 1.350 . S
C2329 N2337 1.427 . S
C2330 H2321 0.930 . S
C2330 C2328 1.378 . S
C2330 C2331 1.367 . S
C2331 C2330 1.367 . S
C2331 C2333 1.433 . S
C2332 C2328 1.350 . S
C2332 C2329 1.463 . S
C2332 N2336 1.427 . S
C2333 H2323 0.929 . S
C2333 C2331 1.433 . S
C2333 N2336 1.384 . S
C2334 H2325 0.929 . S
C2334 C2326 1.378 . S
C2334 C2329 1.350 . S
C2335 H2322 0.929 . S
C2335 C2327 1.433 . S
C2335 N2337 1.384 . S
N2336 C2332 1.427 . S
N2336 C2333 1.384 . S
N2337 C2329 1.427 . S
N2337 C2335 1.384 . S
H2338 C2344 0.930 . S
H2339 C2348 0.930 . S
H2340 C2353 0.929 . S
H2341 C2351 0.929 . S
H2342 C2346 0.929 . S
H2343 C2352 0.929 . S
C2344 H2338 0.930 . S
C2344 C2345 1.367 . S
C2344 C2352 1.378 . S
C2345 C2344 1.367 . S
C2345 C2353 1.433 . S
C2346 H2342 0.929 . S
C2346 C2348 1.378 . S
C2346 C2350 1.350 . S
C2347 C2350 1.463 . S
C2347 C2352 1.350 . S
C2347 N2355 1.427 . S
C2348 H2339 0.930 . S
C2348 C2346 1.378 . S
C2348 C2349 1.367 . S
C2349 C2348 1.367 . S
C2349 C2351 1.433 . S
C2350 C2346 1.350 . S
C2350 C2347 1.463 . S
C2350 N2354 1.427 . S
C2351 H2341 0.929 . S
C2351 C2349 1.433 . S
C2351 N2354 1.384 . S
C2352 H2343 0.929 . S
C2352 C2344 1.378 . S
C2352 C2347 1.350 . S
C2353 H2340 0.929 . S
C2353 C2345 1.433 . S
C2353 N2355 1.384 . S
N2354 C2350 1.427 . S
N2354 C2351 1.384 . S
N2355 C2347 1.427 . S
N2355 C2353 1.384 . S
H2356 C2362 0.930 . S
H2357 C2366 0.930 . S
H2358 C2371 0.929 . S
H2359 C2369 0.929 . S
H2360 C2364 0.929 . S
H2361 C2370 0.929 . S
C2362 H2356 0.930 . S
C2362 C2363 1.367 . S
C2362 C2370 1.378 . S
C2363 C2362 1.367 . S
C2363 C2371 1.433 . S
C2364 H2360 0.929 . S
C2364 C2366 1.378 . S
C2364 C2368 1.350 . S
C2365 C2368 1.463 . S
C2365 C2370 1.350 . S
C2365 N2373 1.427 . S
C2366 H2357 0.930 . S
C2366 C2364 1.378 . S
C2366 C2367 1.367 . S
C2367 C2366 1.367 . S
C2367 C2369 1.433 . S
C2368 C2364 1.350 . S
C2368 C2365 1.463 . S
C2368 N2372 1.427 . S
C2369 H2359 0.929 . S
C2369 C2367 1.433 . S
C2369 N2372 1.384 . S
C2370 H2361 0.929 . S
C2370 C2362 1.378 . S
C2370 C2365 1.350 . S
C2371 H2358 0.929 . S
C2371 C2363 1.433 . S
C2371 N2373 1.384 . S
N2372 C2368 1.427 . S
N2372 C2369 1.384 . S
N2373 C2365 1.427 . S
N2373 C2371 1.384 . S
H2374 C2380 0.930 . S
H2375 C2384 0.930 . S
H2376 C2389 0.929 . S
H2377 C2387 0.929 . S
H2378 C2382 0.929 . S
H2379 C2388 0.929 . S
C2380 H2374 0.930 . S
C2380 C2381 1.367 . S
C2380 C2388 1.378 . S
C2381 C2380 1.367 . S
C2381 C2389 1.433 . S
C2382 H2378 0.929 . S
C2382 C2384 1.378 . S
C2382 C2386 1.350 . S
C2383 C2386 1.463 . S
C2383 C2388 1.350 . S
C2383 N2391 1.427 . S
C2384 H2375 0.930 . S
C2384 C2382 1.378 . S
C2384 C2385 1.367 . S
C2385 C2384 1.367 . S
C2385 C2387 1.433 . S
C2386 C2382 1.350 . S
C2386 C2383 1.463 . S
C2386 N2390 1.427 . S
C2387 H2377 0.929 . S
C2387 C2385 1.433 . S
C2387 N2390 1.384 . S
C2388 H2379 0.929 . S
C2388 C2380 1.378 . S
C2388 C2383 1.350 . S
C2389 H2376 0.929 . S
C2389 C2381 1.433 . S
C2389 N2391 1.384 . S
N2390 C2386 1.427 . S
N2390 C2387 1.384 . S
N2391 C2383 1.427 . S
N2391 C2389 1.384 . S
H2392 C2398 0.930 . S
H2393 C2402 0.930 . S
H2394 C2407 0.929 . S
H2395 C2405 0.929 . S
H2396 C2400 0.929 . S
H2397 C2406 0.929 . S
C2398 H2392 0.930 . S
C2398 C2399 1.367 . S
C2398 C2406 1.378 . S
C2399 C2398 1.367 . S
C2399 C2407 1.433 . S
C2400 H2396 0.929 . S
C2400 C2402 1.378 . S
C2400 C2404 1.350 . S
C2401 C2404 1.463 . S
C2401 C2406 1.350 . S
C2401 N2409 1.427 . S
C2402 H2393 0.930 . S
C2402 C2400 1.378 . S
C2402 C2403 1.367 . S
C2403 C2402 1.367 . S
C2403 C2405 1.433 . S
C2404 C2400 1.350 . S
C2404 C2401 1.463 . S
C2404 N2408 1.427 . S
C2405 H2395 0.929 . S
C2405 C2403 1.433 . S
C2405 N2408 1.384 . S
C2406 H2397 0.929 . S
C2406 C2398 1.378 . S
C2406 C2401 1.350 . S
C2407 H2394 0.929 . S
C2407 C2399 1.433 . S
C2407 N2409 1.384 . S
N2408 C2404 1.427 . S
N2408 C2405 1.384 . S
N2409 C2401 1.427 . S
N2409 C2407 1.384 . S
H2410 C2416 0.930 . S
H2411 C2420 0.930 . S
H2412 C2425 0.929 . S
H2413 C2423 0.929 . S
H2414 C2418 0.929 . S
H2415 C2424 0.929 . S
C2416 H2410 0.930 . S
C2416 C2417 1.367 . S
C2416 C2424 1.378 . S
C2417 C2416 1.367 . S
C2417 C2425 1.433 . S
C2418 H2414 0.929 . S
C2418 C2420 1.378 . S
C2418 C2422 1.350 . S
C2419 C2422 1.463 . S
C2419 C2424 1.350 . S
C2419 N2427 1.427 . S
C2420 H2411 0.930 . S
C2420 C2418 1.378 . S
C2420 C2421 1.367 . S
C2421 C2420 1.367 . S
C2421 C2423 1.433 . S
C2422 C2418 1.350 . S
C2422 C2419 1.463 . S
C2422 N2426 1.427 . S
C2423 H2413 0.929 . S
C2423 C2421 1.433 . S
C2423 N2426 1.384 . S
C2424 H2415 0.929 . S
C2424 C2416 1.378 . S
C2424 C2419 1.350 . S
C2425 H2412 0.929 . S
C2425 C2417 1.433 . S
C2425 N2427 1.384 . S
N2426 C2422 1.427 . S
N2426 C2423 1.384 . S
N2427 C2419 1.427 . S
N2427 C2425 1.384 . S
H2428 C2434 0.930 . S
H2429 C2438 0.930 . S
H2430 C2443 0.926 1_455 S
H2431 C2441 0.929 . S
H2432 C2436 0.929 . S
H2433 C2442 0.929 . S
C2434 H2428 0.930 . S
C2434 C2435 1.367 . S
C2434 C2442 1.378 . S
C2435 C2434 1.367 . S
C2435 C2443 1.433 . S
C2436 H2432 0.929 . S
C2436 C2438 1.378 . S
C2436 C2440 1.350 . S
C2437 C2440 1.463 1_655 S
C2437 C2442 1.350 . S
C2437 N2445 1.427 1_655 S
C2438 H2429 0.930 . S
C2438 C2436 1.378 . S
C2438 C2439 1.367 . S
C2439 C2438 1.367 . S
C2439 C2441 1.433 . S
C2440 C2436 1.350 . S
C2440 C2437 1.463 1_455 S
C2440 N2444 1.427 . S
C2441 H2431 0.929 . S
C2441 C2439 1.433 . S
C2441 N2444 1.384 . S
C2442 H2433 0.929 . S
C2442 C2434 1.378 . S
C2442 C2437 1.350 . S
C2443 H2430 0.926 1_655 S
C2443 C2435 1.433 . S
C2443 N2445 1.384 1_655 S
N2444 C2440 1.427 . S
N2444 C2441 1.384 . S
N2445 C2437 1.427 1_455 S
N2445 C2443 1.384 1_455 S
H2446 C2452 0.930 . S
H2447 C2456 0.930 . S
H2448 C2461 0.929 . S
H2449 C2459 0.929 . S
H2450 C2454 0.929 . S
H2451 C2460 0.929 . S
C2452 H2446 0.930 . S
C2452 C2453 1.367 . S
C2452 C2460 1.378 . S
C2453 C2452 1.367 . S
C2453 C2461 1.433 . S
C2454 H2450 0.929 . S
C2454 C2456 1.378 . S
C2454 C2458 1.350 . S
C2455 C2458 1.463 . S
C2455 C2460 1.350 . S
C2455 N2463 1.427 . S
C2456 H2447 0.930 . S
C2456 C2454 1.378 . S
C2456 C2457 1.367 . S
C2457 C2456 1.367 . S
C2457 C2459 1.433 . S
C2458 C2454 1.350 . S
C2458 C2455 1.463 . S
C2458 N2462 1.427 . S
C2459 H2449 0.929 . S
C2459 C2457 1.433 . S
C2459 N2462 1.384 . S
C2460 H2451 0.929 . S
C2460 C2452 1.378 . S
C2460 C2455 1.350 . S
C2461 H2448 0.929 . S
C2461 C2453 1.433 . S
C2461 N2463 1.384 . S
N2462 C2458 1.427 . S
N2462 C2459 1.384 . S
N2463 C2455 1.427 . S
N2463 C2461 1.384 . S
H2464 C2470 0.930 . S
H2465 C2474 0.930 . S
H2466 C2479 0.929 . S
H2467 C2477 0.929 . S
H2468 C2472 0.929 . S
H2469 C2478 0.929 . S
C2470 H2464 0.930 . S
C2470 C2471 1.367 . S
C2470 C2478 1.378 . S
C2471 C2470 1.367 . S
C2471 C2479 1.433 . S
C2472 H2468 0.929 . S
C2472 C2474 1.378 . S
C2472 C2476 1.350 . S
C2473 C2476 1.463 . S
C2473 C2478 1.350 . S
C2473 N2481 1.427 . S
C2474 H2465 0.930 . S
C2474 C2472 1.378 . S
C2474 C2475 1.367 . S
C2475 C2474 1.367 . S
C2475 C2477 1.433 . S
C2476 C2472 1.350 . S
C2476 C2473 1.463 . S
C2476 N2480 1.427 . S
C2477 H2467 0.929 . S
C2477 C2475 1.433 . S
C2477 N2480 1.384 . S
C2478 H2469 0.929 . S
C2478 C2470 1.378 . S
C2478 C2473 1.350 . S
C2479 H2466 0.929 . S
C2479 C2471 1.433 . S
C2479 N2481 1.384 . S
N2480 C2476 1.427 . S
N2480 C2477 1.384 . S
N2481 C2473 1.427 . S
N2481 C2479 1.384 . S
H2482 C2488 0.930 . S
H2483 C2492 0.930 . S
H2484 C2497 0.929 . S
H2485 C2495 0.929 . S
H2486 C2490 0.929 . S
H2487 C2496 0.929 . S
C2488 H2482 0.930 . S
C2488 C2489 1.367 . S
C2488 C2496 1.378 . S
C2489 C2488 1.367 . S
C2489 C2497 1.433 . S
C2490 H2486 0.929 . S
C2490 C2492 1.378 . S
C2490 C2494 1.350 . S
C2491 C2494 1.463 . S
C2491 C2496 1.350 . S
C2491 N2499 1.427 . S
C2492 H2483 0.930 . S
C2492 C2490 1.378 . S
C2492 C2493 1.367 . S
C2493 C2492 1.367 . S
C2493 C2495 1.433 . S
C2494 C2490 1.350 . S
C2494 C2491 1.463 . S
C2494 N2498 1.427 . S
C2495 H2485 0.929 . S
C2495 C2493 1.433 . S
C2495 N2498 1.384 . S
C2496 H2487 0.929 . S
C2496 C2488 1.378 . S
C2496 C2491 1.350 . S
C2497 H2484 0.929 . S
C2497 C2489 1.433 . S
C2497 N2499 1.384 . S
N2498 C2494 1.427 . S
N2498 C2495 1.384 . S
N2499 C2491 1.427 . S
N2499 C2497 1.384 . S
H2500 C2506 0.930 . S
H2501 C2510 0.930 1_455 S
H2502 C2515 0.929 . S
H2503 C2513 0.929 . S
H2504 C2508 0.929 . S
H2505 C2514 0.929 . S
C2506 H2500 0.930 . S
C2506 C2507 1.367 . S
C2506 C2514 1.378 . S
C2507 C2506 1.367 . S
C2507 C2515 1.433 . S
C2508 H2504 0.929 . S
C2508 C2510 1.378 . S
C2508 C2512 1.350 . S
C2509 C2512 1.463 . S
C2509 C2514 1.350 . S
C2509 N2517 1.427 . S
C2510 H2501 0.930 1_655 S
C2510 C2508 1.378 . S
C2510 C2511 1.367 . S
C2511 C2510 1.367 . S
C2511 C2513 1.433 . S
C2512 C2508 1.350 . S
C2512 C2509 1.463 . S
C2512 N2516 1.427 . S
C2513 H2503 0.929 . S
C2513 C2511 1.433 . S
C2513 N2516 1.384 . S
C2514 H2505 0.929 . S
C2514 C2506 1.378 . S
C2514 C2509 1.350 . S
C2515 H2502 0.929 . S
C2515 C2507 1.433 . S
C2515 N2517 1.384 . S
N2516 C2512 1.427 . S
N2516 C2513 1.384 . S
N2517 C2509 1.427 . S
N2517 C2515 1.384 . S
H2518 C2524 0.930 . S
H2519 C2528 0.930 . S
H2520 C2533 0.929 . S
H2521 C2531 0.929 . S
H2522 C2526 0.929 . S
H2523 C2532 0.929 . S
C2524 H2518 0.930 . S
C2524 C2525 1.367 . S
C2524 C2532 1.378 . S
C2525 C2524 1.367 . S
C2525 C2533 1.433 . S
C2526 H2522 0.929 . S
C2526 C2528 1.378 . S
C2526 C2530 1.350 . S
C2527 C2530 1.463 . S
C2527 C2532 1.350 . S
C2527 N2535 1.427 . S
C2528 H2519 0.930 . S
C2528 C2526 1.378 . S
C2528 C2529 1.367 . S
C2529 C2528 1.367 . S
C2529 C2531 1.433 . S
C2530 C2526 1.350 . S
C2530 C2527 1.463 . S
C2530 N2534 1.427 . S
C2531 H2521 0.929 . S
C2531 C2529 1.433 . S
C2531 N2534 1.384 . S
C2532 H2523 0.929 . S
C2532 C2524 1.378 . S
C2532 C2527 1.350 . S
C2533 H2520 0.929 . S
C2533 C2525 1.433 . S
C2533 N2535 1.384 . S
N2534 C2530 1.427 . S
N2534 C2531 1.384 . S
N2535 C2527 1.427 . S
N2535 C2533 1.384 . S
H2536 C2542 0.930 . S
H2537 C2546 0.930 . S
H2538 C2551 0.929 . S
H2539 C2549 0.929 . S
H2540 C2544 0.929 . S
H2541 C2550 0.929 . S
C2542 H2536 0.930 . S
C2542 C2543 1.367 . S
C2542 C2550 1.378 . S
C2543 C2542 1.367 . S
C2543 C2551 1.433 . S
C2544 H2540 0.929 . S
C2544 C2546 1.378 . S
C2544 C2548 1.350 . S
C2545 C2548 1.463 . S
C2545 C2550 1.350 . S
C2545 N2553 1.427 . S
C2546 H2537 0.930 . S
C2546 C2544 1.378 . S
C2546 C2547 1.367 . S
C2547 C2546 1.367 . S
C2547 C2549 1.433 . S
C2548 C2544 1.350 . S
C2548 C2545 1.463 . S
C2548 N2552 1.427 . S
C2549 H2539 0.929 . S
C2549 C2547 1.433 . S
C2549 N2552 1.384 . S
C2550 H2541 0.929 . S
C2550 C2542 1.378 . S
C2550 C2545 1.350 . S
C2551 H2538 0.929 . S
C2551 C2543 1.433 . S
C2551 N2553 1.384 . S
N2552 C2548 1.427 . S
N2552 C2549 1.384 . S
N2553 C2545 1.427 . S
N2553 C2551 1.384 . S
H2554 C2560 0.930 . S
H2555 C2564 0.930 . S
H2556 C2569 0.929 . S
H2557 C2567 0.929 . S
H2558 C2562 0.929 . S
H2559 C2568 0.929 . S
C2560 H2554 0.930 . S
C2560 C2561 1.367 . S
C2560 C2568 1.378 . S
C2561 C2560 1.367 . S
C2561 C2569 1.433 . S
C2562 H2558 0.929 . S
C2562 C2564 1.378 . S
C2562 C2566 1.350 . S
C2563 C2566 1.463 1_565 S
C2563 C2568 1.350 . S
C2563 N2571 1.427 . S
C2564 H2555 0.930 . S
C2564 C2562 1.378 . S
C2564 C2565 1.367 . S
C2565 C2564 1.367 . S
C2565 C2567 1.433 . S
C2566 C2562 1.350 . S
C2566 C2563 1.463 1_545 S
C2566 N2570 1.427 . S
C2567 H2557 0.929 . S
C2567 C2565 1.433 . S
C2567 N2570 1.384 . S
C2568 H2559 0.929 . S
C2568 C2560 1.378 . S
C2568 C2563 1.350 . S
C2569 H2556 0.929 . S
C2569 C2561 1.433 . S
C2569 N2571 1.384 . S
N2570 C2566 1.427 . S
N2570 C2567 1.384 . S
N2571 C2563 1.427 . S
N2571 C2569 1.384 . S
H2572 C2578 0.930 . S
H2573 C2582 0.930 . S
H2574 C2587 0.929 . S
H2575 C2585 0.929 . S
H2576 C2580 0.929 . S
H2577 C2586 0.929 . S
C2578 H2572 0.930 . S
C2578 C2579 1.367 . S
C2578 C2586 1.378 . S
C2579 C2578 1.367 . S
C2579 C2587 1.433 . S
C2580 H2576 0.929 . S
C2580 C2582 1.378 . S
C2580 C2584 1.350 . S
C2581 C2584 1.463 . S
C2581 C2586 1.350 . S
C2581 N2589 1.427 . S
C2582 H2573 0.930 . S
C2582 C2580 1.378 . S
C2582 C2583 1.367 . S
C2583 C2582 1.367 . S
C2583 C2585 1.433 . S
C2584 C2580 1.350 . S
C2584 C2581 1.463 . S
C2584 N2588 1.427 . S
C2585 H2575 0.929 . S
C2585 C2583 1.433 . S
C2585 N2588 1.384 . S
C2586 H2577 0.929 . S
C2586 C2578 1.378 . S
C2586 C2581 1.350 . S
C2587 H2574 0.929 . S
C2587 C2579 1.433 . S
C2587 N2589 1.384 . S
N2588 C2584 1.427 . S
N2588 C2585 1.384 . S
N2589 C2581 1.427 . S
N2589 C2587 1.384 . S
H2590 C2596 0.930 . S
H2591 C2600 0.930 . S
H2592 C2605 0.929 . S
H2593 C2603 0.929 . S
H2594 C2598 0.929 . S
H2595 C2604 0.929 . S
C2596 H2590 0.930 . S
C2596 C2597 1.367 . S
C2596 C2604 1.378 . S
C2597 C2596 1.367 . S
C2597 C2605 1.433 1_556 S
C2598 H2594 0.929 . S
C2598 C2600 1.378 . S
C2598 C2602 1.350 1_554 S
C2599 C2602 1.463 . S
C2599 C2604 1.350 . S
C2599 N2607 1.427 1_556 S
C2600 H2591 0.930 . S
C2600 C2598 1.378 . S
C2600 C2601 1.367 . S
C2601 C2600 1.367 . S
C2601 C2603 1.433 1_554 S
C2602 C2598 1.350 1_556 S
C2602 C2599 1.463 . S
C2602 N2606 1.427 . S
C2603 H2593 0.929 . S
C2603 C2601 1.433 1_556 S
C2603 N2606 1.384 . S
C2604 H2595 0.929 . S
C2604 C2596 1.378 . S
C2604 C2599 1.350 . S
C2605 H2592 0.929 . S
C2605 C2597 1.433 1_554 S
C2605 N2607 1.384 . S
N2606 C2602 1.427 . S
N2606 C2603 1.384 . S
N2607 C2599 1.427 1_554 S
N2607 C2605 1.384 . S
H2608 C2614 0.930 . S
H2609 C2618 0.930 . S
H2610 C2623 0.929 . S
H2611 C2621 0.929 . S
H2612 C2616 0.929 . S
H2613 C2622 0.929 . S
C2614 H2608 0.930 . S
C2614 C2615 1.367 . S
C2614 C2622 1.378 . S
C2615 C2614 1.367 . S
C2615 C2623 1.433 . S
C2616 H2612 0.929 . S
C2616 C2618 1.378 . S
C2616 C2620 1.350 . S
C2617 C2620 1.463 . S
C2617 C2622 1.350 . S
C2617 N2625 1.427 . S
C2618 H2609 0.930 . S
C2618 C2616 1.378 . S
C2618 C2619 1.367 . S
C2619 C2618 1.367 . S
C2619 C2621 1.433 . S
C2620 C2616 1.350 . S
C2620 C2617 1.463 . S
C2620 N2624 1.427 . S
C2621 H2611 0.929 . S
C2621 C2619 1.433 . S
C2621 N2624 1.384 . S
C2622 H2613 0.929 . S
C2622 C2614 1.378 . S
C2622 C2617 1.350 . S
C2623 H2610 0.929 . S
C2623 C2615 1.433 . S
C2623 N2625 1.384 . S
N2624 C2620 1.427 . S
N2624 C2621 1.384 . S
N2625 C2617 1.427 . S
N2625 C2623 1.384 . S
H2626 C2632 0.930 1_556 S
H2627 C2636 0.930 . S
H2628 C2641 0.929 . S
H2629 C2639 0.929 . S
H2630 C2634 0.929 . S
H2631 C2640 0.929 1_556 S
C2632 H2626 0.930 1_554 S
C2632 C2633 1.367 . S
C2632 C2640 1.378 . S
C2633 C2632 1.367 . S
C2633 C2641 1.433 . S
C2634 H2630 0.929 . S
C2634 C2636 1.378 . S
C2634 C2638 1.350 . S
C2635 C2638 1.463 . S
C2635 C2640 1.350 . S
C2635 N2643 1.427 . S
C2636 H2627 0.930 . S
C2636 C2634 1.378 . S
C2636 C2637 1.367 . S
C2637 C2636 1.367 . S
C2637 C2639 1.433 1_554 S
C2638 C2634 1.350 . S
C2638 C2635 1.463 . S
C2638 N2642 1.427 1_554 S
C2639 H2629 0.929 . S
C2639 C2637 1.433 1_556 S
C2639 N2642 1.384 . S
C2640 H2631 0.929 1_554 S
C2640 C2632 1.378 . S
C2640 C2635 1.350 . S
C2641 H2628 0.929 . S
C2641 C2633 1.433 . S
C2641 N2643 1.384 . S
N2642 C2638 1.427 1_556 S
N2642 C2639 1.384 . S
N2643 C2635 1.427 . S
N2643 C2641 1.384 . S
H2644 C2650 0.930 . S
H2645 C2654 0.930 . S
H2646 C2659 0.929 . S
H2647 C2657 0.929 . S
H2648 C2652 0.929 . S
H2649 C2658 0.929 . S
C2650 H2644 0.930 . S
C2650 C2651 1.367 . S
C2650 C2658 1.378 . S
C2651 C2650 1.367 . S
C2651 C2659 1.433 . S
C2652 H2648 0.929 . S
C2652 C2654 1.378 . S
C2652 C2656 1.350 . S
C2653 C2656 1.463 . S
C2653 C2658 1.350 . S
C2653 N2661 1.427 . S
C2654 H2645 0.930 . S
C2654 C2652 1.378 . S
C2654 C2655 1.367 . S
C2655 C2654 1.367 . S
C2655 C2657 1.433 . S
C2656 C2652 1.350 . S
C2656 C2653 1.463 . S
C2656 N2660 1.427 . S
C2657 H2647 0.929 . S
C2657 C2655 1.433 . S
C2657 N2660 1.384 . S
C2658 H2649 0.929 . S
C2658 C2650 1.378 . S
C2658 C2653 1.350 . S
C2659 H2646 0.929 . S
C2659 C2651 1.433 . S
C2659 N2661 1.384 . S
N2660 C2656 1.427 . S
N2660 C2657 1.384 . S
N2661 C2653 1.427 . S
N2661 C2659 1.384 . S
H2662 C2668 0.930 . S
H2663 C2672 0.930 . S
H2664 C2677 0.929 . S
H2665 C2675 0.929 . S
H2666 C2670 0.929 . S
H2667 C2676 0.929 . S
C2668 H2662 0.930 . S
C2668 C2669 1.367 . S
C2668 C2676 1.378 . S
C2669 C2668 1.367 . S
C2669 C2677 1.433 . S
C2670 H2666 0.929 . S
C2670 C2672 1.378 . S
C2670 C2674 1.350 . S
C2671 C2674 1.463 . S
C2671 C2676 1.350 . S
C2671 N2679 1.427 . S
C2672 H2663 0.930 . S
C2672 C2670 1.378 . S
C2672 C2673 1.367 . S
C2673 C2672 1.367 . S
C2673 C2675 1.433 . S
C2674 C2670 1.350 . S
C2674 C2671 1.463 . S
C2674 N2678 1.427 . S
C2675 H2665 0.929 . S
C2675 C2673 1.433 . S
C2675 N2678 1.384 . S
C2676 H2667 0.929 . S
C2676 C2668 1.378 . S
C2676 C2671 1.350 . S
C2677 H2664 0.929 . S
C2677 C2669 1.433 . S
C2677 N2679 1.384 . S
N2678 C2674 1.427 . S
N2678 C2675 1.384 . S
N2679 C2671 1.427 . S
N2679 C2677 1.384 . S
C959 C101 2.100 . S
C963 C322 2.012 . S
C977 C57 1.761 . S
C981 C361 1.743 . S
C995 C70 1.227 . S
C999 C402 1.210 1_565 S
C1017 C447 1.445 . S
C1013 C82 1.479 . S
C1031 C23 1.941 . S
C1035 C491 1.931 . S
C1053 C522 1.292 . S
C1049 C29 1.360 . S
C1071 C570 1.910 . S
C1067 C49 1.899 . S
C1085 C10 1.844 . S
C1089 C598 1.768 . S
C1107 C330 1.604 . S
C1103 C218 1.547 . S
C1121 C226 1.300 . S
C1125 C371 1.254 . S
C1143 C410 1.392 . S
C1139 C251 1.341 . S
C1161 C442 1.293 . S
C1157 C159 1.313 . S
C1175 C211 0.230 . S
C1179 C478 0.279 . S
C1197 C530 2.142 . S
C1193 C225 2.149 . S
C1215 C567 1.122 . S
C1211 C252 1.166 . S
C1233 C601 1.947 . S
C1229 C166 1.950 . S
C1251 C327 1.940 . S
C1247 C147 2.030 . S
C1265 C263 1.927 . S
C1269 C641 1.906 . S
C1287 C687 1.374 . S
C1283 C309 1.393 . S
C1305 C722 1.460 . S
C1301 C291 1.538 . S
C1319 C108 2.016 . S
C1323 C611 1.984 . S
C1337 C121 1.419 . S
C1341 C407 1.387 . S
C1355 C302 1.231 . S
C1359 C770 1.284 . S
C1377 C798 0.447 . S
C1373 C276 0.431 . S
C1395 C331 2.255 . S
C1391 C55 2.305 . S
C1413 C810 1.922 . S
C1409 C96 1.975 . S
C1427 C88 1.709 . S
C1431 C411 1.690 . S
C1445 C75 1.604 . S
C1449 C758 1.574 . S
C1467 C482 2.340 . S
C1463 C4 2.369 . S
C1481 C44 1.548 . S
C1485 C691 1.513 . S
C1503 C561 2.181 1_556 S
C1499 C31 2.191 . S
C1521 C847 1.710 . S
C1517 C18 1.755 . S
C1539 C321 1.642 1_556 S
C1535 C133 1.629 . S
C1557 C802 1.790 . S
C1553 C296 1.844 . S
C1571 C107 1.654 . S
C1575 C401 1.677 . S
C1589 C264 1.787 . S
C1593 C771 1.778 . S
C1607 C140 0.391 . S
C1611 C487 0.413 . S
C1629 C681 2.413 . S
C1625 C289 2.436 . S
C1643 C114 1.127 . S
C1647 C558 1.114 . S
C1661 C265 2.133 . S
C1665 C850 2.125 . S
C1679 C179 1.932 . S
C1683 C318 1.881 . S
C1697 C161 2.151 . S
C1701 C650 2.095 . S
C1715 C244 1.348 . S
C1719 C518 1.339 . S
C1733 C224 1.729 . S
C1737 C731 1.684 . S
C1755 C842 2.002 . S
C1751 C257 2.047 . S
C1769 C199 1.540 . S
C1773 C398 1.515 1_565 S
C1791 C441 1.545 . S
C1787 C237 1.526 . S
C1809 C367 0.628 . S
C1805 C185 0.628 . S
C1823 C69 2.100 . S
C1827 C882 2.015 . S
C1845 C801 1.748 . S
C1841 C83 1.765 . S
C1859 C94 1.228 . S
C1863 C922 1.213 . S
C1877 C56 1.477 . S
C1881 C767 1.442 . S
C1895 C42 1.953 . S
C1899 C651 1.932 . S
C1917 C682 1.312 . S
C1913 C3 1.368 . S
C1935 C730 1.919 . S
C1931 C16 1.915 . S
C1953 C838 1.776 . S
C1949 C36 1.850 . S
C1971 C890 1.603 . S
C1967 C238 1.552 . S
C1985 C174 1.294 . S
C1989 C811 1.270 . S
C2007 C930 1.383 . S
C2003 C186 1.324 . S
C2025 C762 1.289 . S
C2021 C198 1.313 . S
C2043 C638 0.307 . S
C2039 C239 0.255 . S
C2057 C173 2.149 . S
C2061 C690 2.135 . S
C2079 C727 1.125 . S
C2075 C187 1.169 . S
C2093 C205 1.951 . S
C2097 C841 1.947 . S
C2115 C887 1.951 . S
C2111 C290 2.036 . S
C2129 C122 1.924 . S
C2133 C481 1.903 . S
C2151 C527 1.358 . S
C2147 C134 1.379 . S
C2169 C562 1.476 . S
C2165 C148 1.545 . S
C2187 C851 1.969 . S
C2183 C283 2.002 . S
C2201 C270 1.414 . S
C2205 C927 1.385 . S
C2223 C450 1.278 . S
C2219 C135 1.228 . S
C2241 C358 0.464 . S
C2237 C109 0.446 . S
C2255 C81 2.304 . S
C2259 C891 2.248 . S
C2277 C370 1.922 . S
C2273 C68 1.974 . S
C2291 C62 1.708 . S
C2295 C931 1.693 . S
C2309 C95 1.601 . S
C2313 C438 1.568 . S
C2327 C30 2.373 . S
C2331 C642 2.335 . S
C2349 C531 1.502 . S
C2345 C17 1.548 . S
C2363 C5 2.192 . S
C2367 C721 2.181 . S
C2381 C43 1.745 . S
C2385 C607 1.699 . S
C2403 C881 1.639 . S
C2399 C304 1.627 . S
C2417 C153 1.844 . S
C2421 C362 1.790 . S
C2439 C921 1.676 . S
C2435 C278 1.663 . S
C2453 C127 1.786 . S
C2457 C451 1.778 . S
C2471 C303 0.390 . S
C2475 C647 0.413 . S
C2493 C521 2.410 . S
C2489 C146 2.434 1_556 S
C2507 C277 1.132 . S
C2511 C718 1.120 . S
C2529 C610 2.121 . S
C2525 C120 2.133 . S
C2547 C878 1.882 . S
C2543 C231 1.933 . S
C2565 C490 2.103 1_655 S
C2561 C200 2.152 . S
C2579 C212 1.349 . S
C2583 C678 1.341 . S
C2601 C571 1.683 . S
C2597 C172 1.728 . S
C2615 C192 2.047 . S
C2619 C602 2.011 . S
C2633 C160 1.537 . S
C2637 C918 1.506 . S
C2655 C761 1.543 . S
C2651 C213 1.523 . S
C2673 C807 0.648 . S
C2669 C250 0.636 . S
