# Generated by pormake.
# Topology sit, (3,6)-cn, num edge types: 1
# Building blocks:
#     Node 0, Type 0, BuildingBlock: WUSLED_clean_sbu_0, # of connection points: 3
#     Node 1, Type 0, BuildingBlock: WUSLED_clean_sbu_0, # of connection points: 3
#     Node 2, Type 0, BuildingBlock: WUSLED_clean_sbu_0, # of connection points: 3
#     Node 3, Type 0, BuildingBlock: WUSLED_clean_sbu_0, # of connection points: 3
#     Node 4, Type 1, BuildingBlock: MIDCAF_clean_sbu_0, # of connection points: 6
#     Node 5, Type 1, BuildingBlock: MIDCAF_clean_sbu_0, # of connection points: 6
#     Edge 6, Type (0, 1), BuildingBlock: EZIPEK_clean_linker_0, # of connection points: 2
#     Edge 7, Type (0, 1), BuildingBlock: EZIPEK_clean_linker_0, # of connection points: 2
#     Edge 8, Type (0, 1), BuildingBlock: EZIPEK_clean_linker_0, # of connection points: 2
#     Edge 9, Type (0, 1), BuildingBlock: EZIPEK_clean_linker_0, # of connection points: 2
#     Edge 10, Type (0, 1), BuildingBlock: EZIPEK_clean_linker_0, # of connection points: 2
#     Edge 11, Type (0, 1), BuildingBlock: EZIPEK_clean_linker_0, # of connection points: 2
#     Edge 12, Type (0, 1), BuildingBlock: EZIPEK_clean_linker_0, # of connection points: 2
#     Edge 13, Type (0, 1), BuildingBlock: EZIPEK_clean_linker_0, # of connection points: 2
#     Edge 14, Type (0, 1), BuildingBlock: EZIPEK_clean_linker_0, # of connection points: 2
#     Edge 15, Type (0, 1), BuildingBlock: EZIPEK_clean_linker_0, # of connection points: 2
#     Edge 16, Type (0, 1), BuildingBlock: EZIPEK_clean_linker_0, # of connection points: 2
#     Edge 17, Type (0, 1), BuildingBlock: EZIPEK_clean_linker_0, # of connection points: 2
# Relax obj value: 0.107
# Max RMSD: 0.192
# Mean RMSD: 0.104
data_MOF--net-sit--node1-WUSLED_clean_sbu_0--node2-MIDCAF_clean_sbu_0--edge1-EZIPEK_clean_linker_0
_symmetry_space_group_name_H-M    P1
_symmetry_Int_Tables_number       1
_symmetry_cell_setting            triclinic
loop_
_symmetry_equiv_pos_as_xyz
'x, y, z'
_cell_length_a     23.714449
_cell_length_b     31.452696
_cell_length_c     37.290637
_cell_angle_alpha  90.20088
_cell_angle_beta   89.090197
_cell_angle_gamma 82.748625
loop_
_atom_site_label
_atom_site_type_symbol
_atom_site_fract_x
_atom_site_fract_y
_atom_site_fract_z
_atom_type_partial_charge
C0 C 0.92517 0.36571 0.00548 0.0
C1 C 0.94024 0.39835 0.98295 0.0
C2 C 0.84122 0.41731 0.96736 0.0
C3 C 0.89843 0.42413 0.96406 0.0
C4 C 0.82611 0.38549 0.99064 0.0
C5 C 0.86786 0.35981 0.00956 0.0
U6 U 0.08038 0.32452 0.01712 0.0
O7 O 0.13075 0.30653 0.06489 0.0
O8 O 0.12328 0.25848 0.02294 0.0
C9 C 0.14015 0.26583 0.05555 0.0
C10 C 0.96916 0.33634 0.02319 0.0
C11 C 0.12743 0.23468 0.08323 0.0
C12 C 0.0786 0.21741 0.13817 0.0
C13 C 0.08685 0.24616 0.11062 0.0
C14 C 0.14898 0.16433 0.11048 0.0
C15 C 0.11038 0.17662 0.13871 0.0
C16 C 0.15766 0.19328 0.08306 0.0
C17 C 0.18189 0.38504 0.95814 0.0
C18 C 0.28221 0.39152 0.96537 0.0
C19 C 0.23061 0.4269 0.91591 0.0
C20 C 0.18158 0.41017 0.92718 0.0
C21 C 0.28085 0.41867 0.9354 0.0
C22 C 0.23276 0.37496 0.97684 0.0
C23 C 0.12714 0.37419 0.97199 0.0
O24 O -0.00305 0.30716 0.002 0.0
O25 O 0.00257 0.35454 0.04465 0.0
O26 O 0.11471 0.38465 0.00559 0.0
O27 O 0.11235 0.33684 0.96269 0.0
H28 H 0.9844 0.40321 0.9794 0.0
H29 H 0.91076 0.44848 0.94612 0.0
H30 H 0.78214 0.37978 -0.00663 0.0
H31 H 0.85555 0.33473 0.02674 0.0
H32 H 0.04846 0.22739 0.15965 0.0
H33 H 0.06242 0.27768 0.1112 0.0
H34 H 0.17375 0.13294 0.11041 0.0
H35 H 0.1889 0.18366 0.06211 0.0
H36 H 0.32071 0.38482 0.98068 0.0
H37 H 0.22876 0.44771 0.89275 0.0
H38 H 0.14266 0.4184 0.91252 0.0
H39 H 0.23367 0.35569 0.0009 0.0
C40 C 0.87297 0.71501 0.01898 0.0
C41 C 0.84452 0.72886 0.98745 0.0
C42 C 0.8046 0.66167 0.98303 0.0
C43 C 0.81093 0.70239 0.96964 0.0
C44 C 0.83185 0.64779 0.01479 0.0
C45 C 0.86572 0.67428 0.03267 0.0
U46 U 0.01949 0.74882 0.02582 0.0
O47 O 0.04972 0.81204 0.02964 0.0
O48 O 0.07247 0.76366 0.07098 0.0
C49 C 0.07413 0.80347 0.06068 0.0
C50 C 0.91154 0.74231 0.03649 0.0
C51 C 0.06547 0.83719 0.08895 0.0
C52 C 0.04322 0.91233 0.1068 0.0
C53 C 0.04539 0.88007 0.08057 0.0
C54 C 0.08099 0.85964 0.15022 0.0
C55 C 0.06133 0.90227 0.14174 0.0
C56 C 0.08323 0.82747 0.12411 0.0
C57 C 0.13054 0.689 0.96178 0.0
C58 C 0.2261 0.70761 0.95351 0.0
C59 C 0.19867 0.64459 0.92408 0.0
C60 C 0.14433 0.65316 0.93943 0.0
C61 C 0.23971 0.67188 0.93091 0.0
C62 C 0.17171 0.71613 0.96895 0.0
C63 C 0.07301 0.69756 0.97719 0.0
O64 O 0.95179 0.72231 0.0564 0.0
O65 O 0.92974 0.77202 0.01615 0.0
O66 O 0.04503 0.73514 0.96964 0.0
O67 O 0.06778 0.68676 0.01096 0.0
H68 H 0.84856 0.76008 0.97624 0.0
H69 H 0.78961 0.71375 0.94536 0.0
H70 H 0.82679 0.61659 0.02568 0.0
H71 H 0.88657 0.66272 0.05702 0.0
H72 H 0.02806 0.94514 0.0998 0.0
H73 H 0.03237 0.88889 0.05362 0.0
H74 H 0.09527 0.85135 0.17705 0.0
H75 H 0.10001 0.79505 0.13134 0.0
H76 H 0.25749 0.72888 0.95903 0.0
H77 H 0.20871 0.61685 0.90676 0.0
H78 H 0.11298 0.63189 0.93377 0.0
H79 H 0.16166 0.74386 0.98628 0.0
C80 C 0.43097 0.8767 0.517 0.0
C81 C 0.44575 0.91486 0.50209 0.0
C82 C 0.35289 0.92871 0.47506 0.0
C83 C 0.40677 0.94089 0.48138 0.0
C84 C 0.33764 0.89123 0.49082 0.0
C85 C 0.3765 0.86534 0.51163 0.0
U86 U 0.58479 0.84169 0.53549 0.0
O87 O 0.63103 0.81887 0.58369 0.0
O88 O 0.63347 0.77703 0.53631 0.0
C89 C 0.64535 0.78008 0.57049 0.0
C90 C 0.47374 0.8469 0.53526 0.0
C91 C 0.63338 0.74383 0.59364 0.0
C92 C 0.59594 0.71696 0.64917 0.0
C93 C 0.60303 0.75105 0.62629 0.0
C94 C 0.64715 0.66724 0.60678 0.0
C95 C 0.61878 0.67494 0.63995 0.0
C96 C 0.65475 0.70149 0.58393 0.0
C97 C 0.68453 0.91544 0.48857 0.0
C98 C 0.77914 0.90284 0.46162 0.0
C99 C 0.73567 0.97556 0.47365 0.0
C100 C 0.68762 0.95975 0.48788 0.0
C101 C 0.78111 0.94721 0.45971 0.0
C102 C 0.73113 0.88699 0.47598 0.0
C103 C 0.6302 0.90058 0.49913 0.0
O104 O 0.50683 0.82159 0.51351 0.0
O105 O 0.50168 0.86373 0.56077 0.0
O106 O 0.61469 0.90525 0.53305 0.0
O107 O 0.61873 0.86438 0.4849 0.0
H108 H 0.48793 0.92388 0.50567 0.0
H109 H 0.41912 0.96971 0.46937 0.0
H110 H 0.29617 0.88144 0.48614 0.0
H111 H 0.3646 0.83586 0.52268 0.0
H112 H 0.57368 0.7235 0.67458 0.0
H113 H 0.58566 0.78312 0.63461 0.0
H114 H 0.66489 0.63498 0.59916 0.0
H115 H 0.6783 0.69499 0.55897 0.0
H116 H 0.8141 0.88059 0.45105 0.0
H117 H 0.73678 1.00985 0.47251 0.0
H118 H 0.65202 0.98223 0.49731 0.0
H119 H 0.72976 0.8527 0.47623 0.0
C120 C 0.37347 0.20839 0.52705 0.0
C121 C 0.39337 0.16695 0.51431 0.0
C122 C 0.30375 0.16299 0.48464 0.0
C123 C 0.35858 0.14427 0.49349 0.0
C124 C 0.28343 0.20399 0.498 0.0
C125 C 0.31809 0.22656 0.51904 0.0
U126 U 0.52287 0.22993 0.54083 0.0
O127 O 0.5624 0.28961 0.54335 0.0
O128 O 0.57194 0.24416 0.58803 0.0
C129 C 0.58076 0.28214 0.57613 0.0
C130 C 0.41211 0.23407 0.5456 0.0
C131 C 0.57191 0.31809 0.60245 0.0
C132 C 0.54605 0.39388 0.61721 0.0
C133 C 0.5501 0.36003 0.59229 0.0
C134 C 0.58562 0.34471 0.66275 0.0
C135 C 0.56372 0.38636 0.65265 0.0
C136 C 0.58984 0.311 0.63793 0.0
C137 C 0.63094 0.15419 0.4841 0.0
C138 C 0.72941 0.16364 0.47223 0.0
C139 C 0.691 0.10195 0.44775 0.0
C140 C 0.63854 0.11592 0.46417 0.0
C141 C 0.73636 0.12618 0.45119 0.0
C142 C 0.67687 0.17764 0.48862 0.0
C143 C 0.5739 0.17027 0.49779 0.0
O144 O 0.44633 0.21322 0.56883 0.0
O145 O 0.43796 0.25902 0.52441 0.0
O146 O 0.55331 0.20877 0.48699 0.0
O147 O 0.56394 0.16381 0.53197 0.0
H148 H 0.4363 0.15252 0.51974 0.0
H149 H 0.37487 0.11266 0.48346 0.0
H150 H 0.24115 0.21886 0.49145 0.0
H151 H 0.30221 0.2586 0.52828 0.0
H152 H 0.5292 0.42588 0.60891 0.0
H153 H 0.53669 0.36684 0.56506 0.0
H154 H 0.59964 0.33831 0.68994 0.0
H155 H 0.60781 0.27933 0.64645 0.0
H156 H 0.76413 0.18267 0.475 0.0
H157 H 0.69578 0.07307 0.43149 0.0
H158 H 0.6034 0.0975 0.46044 0.0
H159 H 0.67161 0.20726 0.50394 0.0
Zn160 Zn 0.04655 0.1336 0.34646 0.0
Zn161 Zn 0.08178 0.957 0.34617 0.0
Zn162 Zn 0.06674 0.04505 0.34527 0.0
C163 C 0.07412 0.98539 0.27416 0.0
C164 C 0.97964 0.98529 0.3822 0.0
O165 O 0.13373 0.0685 0.37735 0.0
O166 O 0.11019 0.13905 0.38005 0.0
C167 C 0.07107 0.10457 0.27494 0.0
O168 O 0.07181 1.02277 0.28879 0.0
O169 O 0.07789 0.95198 0.2931 0.0
O170 O 0.01195 0.95105 0.37539 0.0
O171 O 0.99336 1.02181 0.37218 0.0
O172 O 0.06105 0.13816 0.29385 0.0
O173 O 0.07309 0.06719 0.28927 0.0
O174 O 0.98366 0.06635 0.37043 0.0
O175 O 0.96738 0.13717 0.36645 0.0
C176 C 0.95163 0.102 0.37611 0.0
O177 O 0.14389 1.02372 0.37557 0.0
O178 O 0.15628 0.95281 0.37071 0.0
C179 C 0.14256 0.10578 0.3887 0.0
C180 C 0.1724 0.98706 0.38219 0.0
Zn181 Zn 0.56769 0.64385 0.83757 0.0
Zn182 Zn 0.54085 0.46085 0.85698 0.0
Zn183 Zn 0.55925 0.55382 0.84486 0.0
C184 C 0.55634 0.48341 0.78123 0.0
C185 C 0.44201 0.5292 0.88677 0.0
O186 O 0.63079 0.56833 0.87785 0.0
O187 O 0.62871 0.63904 0.87428 0.0
C188 C 0.58481 0.59786 0.76984 0.0
O189 O 0.56327 0.52162 0.79175 0.0
O190 O 0.54628 0.45449 0.80327 0.0
O191 O 0.48944 0.51934 0.87062 0.0
O192 O 0.48982 0.52139 0.87035 0.0
O193 O 0.58634 0.63326 0.78575 0.0
O194 O 0.57377 0.56433 0.78708 0.0
O195 O 0.48632 0.59769 0.86315 0.0
O196 O 0.48833 0.66637 0.85322 0.0
C197 C 0.46281 0.63633 0.86504 0.0
O198 O 0.63018 0.52402 0.87668 0.0
O199 O 0.61721 0.45499 0.88143 0.0
C200 C 0.64958 0.60341 0.88705 0.0
C201 C 0.64629 0.48547 0.88737 0.0
C202 C 0.14875 0.14425 0.19644 0.0
C203 C 0.10545 0.14834 0.1703 0.0
C204 C 0.04377 0.1119 0.21026 0.0
C205 C 0.08622 0.10964 0.23669 0.0
N206 N 0.18418 0.11061 0.25158 0.0
N207 N 0.01845 0.12681 0.14819 0.0
C208 C 0.14059 0.12129 0.22845 0.0
C209 C 0.05509 0.12893 0.17587 0.0
N210 N 0.1959 0.16472 0.19188 0.0
N211 N 0.99204 0.09947 0.21869 0.0
H212 H 0.02603 0.13895 0.1228 0.0
H213 H 0.98329 0.11011 0.14939 0.0
H214 H 0.98386 0.08525 0.24316 0.0
H215 H 0.95684 0.10458 0.20222 0.0
H216 H 0.2255 0.16712 0.21188 0.0
H217 H 0.20364 0.18215 0.169 0.0
H218 H 0.22626 0.11462 0.24575 0.0
H219 H 0.17899 0.09367 0.27519 0.0
C220 C 0.1121 0.95178 0.17884 0.0
C221 C 0.06057 0.9359 0.17 0.0
C222 C 0.01365 0.97223 0.22273 0.0
C223 C 0.06747 0.98012 0.2351 0.0
N224 N 0.16698 0.98281 0.2246 0.0
N225 N 0.96098 0.93264 0.18167 0.0
C226 C 0.11632 0.97233 0.21264 0.0
C227 C 0.01052 0.94748 0.19098 0.0
N228 N 0.15677 0.94668 0.15496 0.0
N229 N 0.9659 0.988 0.24187 0.0
H230 H 0.95693 0.91544 0.15808 0.0
H231 H 0.92458 0.93561 0.1979 0.0
H232 H 0.96775 1.00621 0.26519 0.0
H233 H 0.92471 0.9865 0.23318 0.0
H234 H 0.19437 0.95994 0.15835 0.0
H235 H 0.15442 0.93169 0.13011 0.0
H236 H 0.20589 0.97407 0.21161 0.0
H237 H 0.16998 0.99978 0.24846 0.0
C238 C 0.561 0.62599 0.67348 0.0
C239 C 0.61466 0.64004 0.66647 0.0
C240 C 0.65285 0.60172 0.71966 0.0
C241 C 0.59682 0.59702 0.73079 0.0
N242 N 0.49805 0.59835 0.71747 0.0
N243 N 0.71347 0.63936 0.68147 0.0
C244 C 0.55116 0.60619 0.70694 0.0
C245 C 0.66166 0.62627 0.68859 0.0
N246 N 0.51963 0.6324 0.64829 0.0
N247 N 0.69714 0.58368 0.73976 0.0
H248 H 0.72179 0.657 0.65882 0.0
H249 H 0.74757 0.63464 0.69885 0.0
H250 H 0.69056 0.5659 0.76273 0.0
H251 H 0.73965 0.58282 0.73206 0.0
H252 H 0.48063 0.62064 0.65043 0.0
H253 H 0.52644 0.64674 0.62366 0.0
H254 H 0.46126 0.60841 0.7034 0.0
H255 H 0.49095 0.58219 0.74121 0.0
C256 C 0.60947 0.43802 0.69082 0.0
C257 C 0.55935 0.42155 0.67984 0.0
C258 C 0.50511 0.4631 0.72751 0.0
C259 C 0.55674 0.47208 0.7426 0.0
N260 N 0.65823 0.47076 0.73855 0.0
N261 N 0.45871 0.41838 0.6872 0.0
C262 C 0.60896 0.46114 0.72381 0.0
C263 C 0.50662 0.43481 0.69758 0.0
N264 N 0.65734 0.43132 0.66965 0.0
N265 N 0.45473 0.48167 0.74216 0.0
H266 H 0.45791 0.39813 0.66507 0.0
H267 H 0.42051 0.42272 0.70167 0.0
H268 H 0.45304 0.50292 0.76384 0.0
H269 H 0.41533 0.4795 0.73086 0.0
H270 H 0.694 0.44535 0.67438 0.0
H271 H 0.65859 0.41449 0.64541 0.0
H272 H 0.69856 0.45949 0.72851 0.0
H273 H 0.6587 0.48885 0.76202 0.0
C274 C 0.34262 0.47654 0.94704 0.0
C275 C 0.32992 0.44172 0.92558 0.0
C276 C 0.39351 0.46226 0.87791 0.0
C277 C 0.40882 0.4955 0.90035 0.0
N278 N 0.40889 0.52705 0.95935 0.0
N279 N 0.35339 0.39513 0.87471 0.0
C280 C 0.38682 0.50026 0.93591 0.0
C281 C 0.35901 0.43242 0.8924 0.0
N282 N 0.31046 0.48866 0.97697 0.0
N283 N 0.40788 0.4609 0.84225 0.0
H284 H 0.3284 0.37269 0.88475 0.0
H285 H 0.37774 0.38464 0.85214 0.0
H286 H 0.43013 0.48342 0.82983 0.0
H287 H 0.39273 0.43993 0.82414 0.0
H288 H 0.31353 0.51695 0.99101 0.0
H289 H 0.27728 0.47256 0.98614 0.0
H290 H 0.39842 0.52862 0.98661 0.0
H291 H 0.44208 0.5444 0.95236 0.0
C292 C 0.78874 0.6099 0.93388 0.0
C293 C 0.76708 0.6349 0.96399 0.0
C294 C 0.67056 0.62122 0.94985 0.0
C295 C 0.69096 0.60414 0.91624 0.0
N296 N 0.76853 0.57735 0.87688 0.0
N297 N 0.6883 0.66288 0.0024 0.0
C298 C 0.75003 0.59615 0.90874 0.0
C299 C 0.70829 0.63934 0.97293 0.0
N300 N 0.84618 0.59991 0.9294 0.0
N301 N 0.61491 0.62001 0.9594 0.0
H302 H 0.71503 0.67528 0.0206 0.0
H303 H 0.64533 0.67185 0.00806 0.0
H304 H 0.58698 0.6062 0.94291 0.0
H305 H 0.59786 0.62864 0.98466 0.0
H306 H 0.86517 0.57927 0.90959 0.0
H307 H 0.87507 0.60988 0.94747 0.0
H308 H 0.81049 0.57443 0.86769 0.0
H309 H 0.74089 0.56548 0.85895 0.0
C310 C 0.75794 0.47421 0.96017 0.0
C311 C 0.79707 0.44115 0.94469 0.0
C312 C 0.74535 0.44827 0.88824 0.0
C313 C 0.70109 0.47538 0.9058 0.0
N314 N 0.66303 0.51327 0.95891 0.0
N315 N 0.82739 0.39476 0.89443 0.0
C316 C 0.70709 0.48876 0.94175 0.0
C317 C 0.7911 0.42802 0.90863 0.0
N318 N 0.76969 0.49173 -0.00764 0.0
N319 N 0.7438 0.44237 0.85194 0.0
H320 H 0.86197 0.37938 0.90825 0.0
H321 H 0.82105 0.38041 0.86986 0.0
H322 H 0.71097 0.45716 0.83626 0.0
H323 H 0.77744 0.42635 0.83697 0.0
H324 H 0.74582 0.51884 0.00337 0.0
H325 H 0.80657 0.48146 0.00645 0.0
H326 H 0.66241 0.52024 0.98623 0.0
H327 H 0.62523 0.52452 0.94622 0.0
C328 C 0.3047 0.67273 0.87729 0.0
C329 C 0.29702 0.66309 0.91406 0.0
C330 C 0.39905 0.63994 0.91929 0.0
C331 C 0.40584 0.64595 0.88186 0.0
N332 N 0.36463 0.66154 0.82395 0.0
N333 N 0.33433 0.63141 0.96896 0.0
C334 C 0.35853 0.66063 0.86046 0.0
C335 C 0.34352 0.64494 0.9348 0.0
N336 N 0.26097 0.69453 0.85876 0.0
N337 N 0.44586 0.63101 0.9402 0.0
H338 H 0.29419 0.63464 0.98125 0.0
H339 H 0.36557 0.61396 0.98415 0.0
H340 H 0.48723 0.62707 0.92974 0.0
H341 H 0.44408 0.63087 0.96811 0.0
H342 H 0.26568 0.70659 0.83306 0.0
H343 H 0.22079 0.70374 0.87013 0.0
H344 H 0.33053 0.66734 0.80664 0.0
H345 H 0.40349 0.653 0.81067 0.0
C346 C 0.88144 0.96437 0.45989 0.0
C347 C 0.82983 0.96376 0.44138 0.0
C348 C 0.87366 0.98873 0.38657 0.0
C349 C 0.92708 0.983 0.40358 0.0
N350 N 0.98318 0.96749 0.45637 0.0
N351 N 0.7755 0.97442 0.3873 0.0
C352 C 0.93127 0.97173 0.44036 0.0
C353 C 0.82529 0.97639 0.4049 0.0
N354 N 0.88224 0.95873 0.49623 0.0
N355 N 0.86933 1.00575 0.35288 0.0
H356 H 0.7388 0.96634 0.39993 0.0
H357 H 0.77118 0.97821 0.35973 0.0
H358 H 0.90426 1.01354 0.33812 0.0
H359 H 0.83077 1.01536 0.34057 0.0
H360 H 0.91686 0.9628 0.5121 0.0
H361 H 0.84629 0.95324 0.51116 0.0
H362 H 0.99075 0.95447 0.4817 0.0
H363 H 0.01977 0.9757 0.44364 0.0
C364 C 0.27951 0.13829 0.42299 0.0
C365 C 0.26771 0.14049 0.4605 0.0
C366 C 0.17716 0.11252 0.45121 0.0
C367 C 0.18896 0.11049 0.41381 0.0
N368 N 0.25619 0.1105 0.36491 0.0
N369 N 0.21371 0.11916 0.5111 0.0
C370 C 0.24201 0.11957 0.40001 0.0
C371 C 0.21916 0.1241 0.47487 0.0
N372 N 0.32458 0.1563 0.40909 0.0
N373 N 0.12492 0.10513 0.46394 0.0
H374 H 0.24399 0.12725 0.52907 0.0
H375 H 0.1822 0.10347 0.52304 0.0
H376 H 0.09392 0.095 0.44752 0.0
H377 H 0.11123 0.11108 0.49036 0.0
H378 H 0.33157 0.16004 0.38171 0.0
H379 H 0.35299 0.17045 0.42491 0.0
H380 H 0.29638 0.11259 0.35392 0.0
H381 H 0.22915 0.097 0.34755 0.0
C382 C 0.26388 0.97865 0.46499 0.0
C383 C 0.31275 0.95355 0.45046 0.0
C384 C 0.27614 0.96648 0.38991 0.0
C385 C 0.22304 0.9837 0.40504 0.0
N386 N 0.16445 1.00498 0.45716 0.0
N387 N 0.36617 0.92253 0.39903 0.0
C388 C 0.21659 0.9904 0.44261 0.0
C389 C 0.31968 0.94781 0.41279 0.0
N390 N 0.26277 0.99094 0.50019 0.0
N391 N 0.28459 0.968 0.35362 0.0
H392 H 0.39938 0.90869 0.41483 0.0
H393 H 0.37024 0.91303 0.37225 0.0
H394 H 0.2532 0.98189 0.33645 0.0
H395 H 0.32392 0.95945 0.34104 0.0
H396 H 0.23061 1.0127 0.51153 0.0
H397 H 0.29696 0.98252 0.51712 0.0
H398 H 0.15573 1.00576 0.48463 0.0
H399 H 0.12869 1.01391 0.44171 0.0
C400 C 0.79358 0.12645 0.39414 0.0
C401 C 0.79003 0.11427 0.43063 0.0
C402 C 0.89237 0.09043 0.43079 0.0
C403 C 0.8957 0.10216 0.39415 0.0
N404 N 0.84847 0.12027 0.33855 0.0
N405 N 0.83193 0.07556 0.48119 0.0
C406 C 0.84589 0.11675 0.37506 0.0
C407 C 0.83822 0.09319 0.44815 0.0
N408 N 0.74762 0.14884 0.37812 0.0
N409 N 0.94102 0.07875 0.44945 0.0
H410 H 0.79272 0.0773 0.49458 0.0
H411 H 0.8643 0.0561 0.49392 0.0
H412 H 0.98151 0.0762 0.43772 0.0
H413 H 0.94166 0.07431 0.4771 0.0
H414 H 0.74962 0.163 0.35301 0.0
H415 H 0.70811 0.15594 0.39092 0.0
H416 H 0.81266 0.12649 0.32269 0.0
H417 H 0.88615 0.11279 0.32373 0.0
loop_
_geom_bond_atom_site_label_1
_geom_bond_atom_site_label_2
_geom_bond_distance
_geom_bond_site_symmetry_2
_ccdc_geom_bond_type
C0 C1 1.264 . S
C0 C5 1.479 . S
C0 C10 1.465 1_656 S
C1 C0 1.264 . S
C1 C3 1.339 . S
C1 H28 0.931 . S
C2 C3 1.395 . S
C2 C4 1.320 . S
C3 C1 1.339 . S
C3 C2 1.395 . S
C3 H29 0.929 . S
C4 C2 1.320 . S
C4 C5 1.405 . S
C4 H30 0.930 . S
C5 C0 1.479 . S
C5 C4 1.405 . S
C5 H31 0.931 1_556 S
U6 O7 2.454 . S
U6 O8 2.458 . S
U6 C9 2.984 . S
U6 C10 2.847 . S
U6 C23 2.882 . S
U6 O24 2.441 . S
U6 O25 2.420 . S
U6 O26 2.455 . S
U6 O27 2.449 . S
O7 U6 2.454 . S
O7 C9 1.353 . S
O8 U6 2.458 . S
O8 C9 1.286 . S
C9 U6 2.984 . S
C9 O7 1.353 . S
C9 O8 1.286 . S
C9 C11 1.363 . S
C10 C0 1.465 1_454 S
C10 U6 2.847 . S
C10 O24 1.249 . S
C10 O25 1.202 . S
C11 C9 1.363 . S
C11 C13 1.408 . S
C11 C16 1.342 . S
C12 C13 1.310 . S
C12 C15 1.461 . S
C12 H32 0.932 . S
C13 C11 1.408 . S
C13 C12 1.310 . S
C13 H33 0.930 . S
C14 C15 1.474 . S
C14 C16 1.285 . S
C14 H34 0.929 . S
C15 C12 1.461 . S
C15 C14 1.474 . S
C16 C11 1.342 . S
C16 C14 1.285 . S
C16 H35 0.930 . S
C17 C20 1.424 . S
C17 C22 1.245 1_556 S
C17 C23 1.428 1_556 S
C18 C21 1.260 . S
C18 C22 1.477 1_556 S
C18 H36 0.932 . S
C19 C20 1.384 . S
C19 C21 1.479 . S
C19 H37 0.929 . S
C20 C17 1.424 . S
C20 C19 1.384 . S
C20 H38 0.928 . S
C21 C18 1.260 . S
C21 C19 1.479 . S
C22 C17 1.245 1_554 S
C22 C18 1.477 1_554 S
C22 H39 0.932 . S
C23 U6 2.882 . S
C23 C17 1.428 1_554 S
C23 O26 1.301 . S
C23 O27 1.282 . S
O24 U6 2.441 . S
O24 C10 1.249 . S
O25 U6 2.420 . S
O25 C10 1.202 . S
O26 U6 2.455 . S
O26 C23 1.301 . S
O27 U6 2.449 . S
O27 C23 1.282 . S
H28 C1 0.931 . S
H29 C3 0.929 . S
H30 C4 0.930 . S
H31 C5 0.931 1_554 S
H32 C12 0.932 . S
H33 C13 0.930 . S
H34 C14 0.929 . S
H35 C16 0.930 . S
H36 C18 0.932 . S
H37 C19 0.929 . S
H38 C20 0.928 . S
H39 C22 0.932 . S
C40 C41 1.264 . S
C40 C45 1.479 . S
C40 C50 1.465 . S
C41 C40 1.264 . S
C41 C43 1.339 . S
C41 H68 0.931 . S
C42 C43 1.395 . S
C42 C44 1.320 . S
C43 C41 1.339 . S
C43 C42 1.395 . S
C43 H69 0.929 . S
C44 C42 1.320 . S
C44 C45 1.405 . S
C44 H70 0.930 . S
C45 C40 1.479 . S
C45 C44 1.405 . S
C45 H71 0.931 1_556 S
U46 O47 2.454 . S
U46 O48 2.458 1_655 S
U46 C49 2.984 . S
U46 C50 2.847 1_554 S
U46 C63 2.882 1_654 S
U46 O64 2.441 . S
U46 O65 2.420 1_554 S
U46 O66 2.455 1_655 S
U46 O67 2.449 1_654 S
O47 U46 2.454 . S
O47 C49 1.353 . S
O48 U46 2.458 1_455 S
O48 C49 1.286 1_455 S
C49 U46 2.984 . S
C49 O47 1.353 . S
C49 O48 1.286 1_655 S
C49 C51 1.363 . S
C50 C40 1.465 . S
C50 U46 2.847 1_556 S
C50 O64 1.249 1_556 S
C50 O65 1.202 . S
C51 C49 1.363 . S
C51 C53 1.408 . S
C51 C56 1.342 1_655 S
C52 C53 1.310 . S
C52 C55 1.461 . S
C52 H72 0.932 . S
C53 C51 1.408 . S
C53 C52 1.310 . S
C53 H73 0.930 . S
C54 C55 1.474 1_455 S
C54 C56 1.285 . S
C54 H74 0.929 . S
C55 C52 1.461 . S
C55 C54 1.474 1_655 S
C56 C51 1.342 1_455 S
C56 C54 1.285 . S
C56 H75 0.930 . S
C57 C60 1.424 . S
C57 C62 1.245 . S
C57 C63 1.428 . S
C58 C61 1.260 . S
C58 C62 1.477 . S
C58 H76 0.932 . S
C59 C60 1.384 . S
C59 C61 1.479 . S
C59 H77 0.929 . S
C60 C57 1.424 . S
C60 C59 1.384 . S
C60 H78 0.928 . S
C61 C58 1.260 . S
C61 C59 1.479 . S
C62 C57 1.245 . S
C62 C58 1.477 . S
C62 H79 0.932 . S
C63 U46 2.882 1_456 S
C63 C57 1.428 . S
C63 O66 1.301 1_556 S
C63 O67 1.282 . S
O64 U46 2.441 . S
O64 C50 1.249 1_554 S
O65 U46 2.420 1_556 S
O65 C50 1.202 . S
O66 U46 2.455 1_455 S
O66 C63 1.301 1_554 S
O67 U46 2.449 1_456 S
O67 C63 1.282 . S
H68 C41 0.931 . S
H69 C43 0.929 . S
H70 C44 0.930 . S
H71 C45 0.931 1_554 S
H72 C52 0.932 . S
H73 C53 0.930 . S
H74 C54 0.929 . S
H75 C56 0.930 . S
H76 C58 0.932 . S
H77 C59 0.929 . S
H78 C60 0.928 . S
H79 C62 0.932 . S
C80 C81 1.264 . S
C80 C85 1.479 . S
C80 C90 1.465 . S
C81 C80 1.264 . S
C81 C83 1.339 . S
C81 H108 0.931 . S
C82 C83 1.395 . S
C82 C84 1.320 . S
C83 C81 1.339 . S
C83 C82 1.395 . S
C83 H109 0.929 . S
C84 C82 1.320 . S
C84 C85 1.405 . S
C84 H110 0.930 . S
C85 C80 1.479 . S
C85 C84 1.405 . S
C85 H111 0.931 . S
U86 O87 2.454 . S
U86 O88 2.458 . S
U86 C89 2.984 . S
U86 C90 2.847 . S
U86 C103 2.882 . S
U86 O104 2.441 . S
U86 O105 2.420 . S
U86 O106 2.455 . S
U86 O107 2.449 . S
O87 U86 2.454 . S
O87 C89 1.353 . S
O88 U86 2.458 . S
O88 C89 1.286 . S
C89 U86 2.984 . S
C89 O87 1.353 . S
C89 O88 1.286 . S
C89 C91 1.363 . S
C90 C80 1.465 . S
C90 U86 2.847 . S
C90 O104 1.249 . S
C90 O105 1.202 . S
C91 C89 1.363 . S
C91 C93 1.408 . S
C91 C96 1.342 . S
C92 C93 1.310 . S
C92 C95 1.461 . S
C92 H112 0.932 . S
C93 C91 1.408 . S
C93 C92 1.310 . S
C93 H113 0.930 . S
C94 C95 1.474 . S
C94 C96 1.285 . S
C94 H114 0.929 . S
C95 C92 1.461 . S
C95 C94 1.474 . S
C96 C91 1.342 . S
C96 C94 1.285 . S
C96 H115 0.930 . S
C97 C100 1.424 . S
C97 C102 1.245 . S
C97 C103 1.428 . S
C98 C101 1.260 . S
C98 C102 1.477 . S
C98 H116 0.932 . S
C99 C100 1.384 . S
C99 C101 1.479 . S
C99 H117 0.929 . S
C100 C97 1.424 . S
C100 C99 1.384 . S
C100 H118 0.928 . S
C101 C98 1.260 . S
C101 C99 1.479 . S
C102 C97 1.245 . S
C102 C98 1.477 . S
C102 H119 0.932 . S
C103 U86 2.882 . S
C103 C97 1.428 . S
C103 O106 1.301 . S
C103 O107 1.282 . S
O104 U86 2.441 . S
O104 C90 1.249 . S
O105 U86 2.420 . S
O105 C90 1.202 . S
O106 U86 2.455 . S
O106 C103 1.301 . S
O107 U86 2.449 . S
O107 C103 1.282 . S
H108 C81 0.931 . S
H109 C83 0.929 . S
H110 C84 0.930 . S
H111 C85 0.931 . S
H112 C92 0.932 . S
H113 C93 0.930 . S
H114 C94 0.929 . S
H115 C96 0.930 . S
H116 C98 0.932 . S
H117 C99 0.929 . S
H118 C100 0.928 . S
H119 C102 0.932 . S
C120 C121 1.264 . S
C120 C125 1.479 . S
C120 C130 1.465 . S
C121 C120 1.264 . S
C121 C123 1.339 . S
C121 H148 0.931 . S
C122 C123 1.395 . S
C122 C124 1.320 . S
C123 C121 1.339 . S
C123 C122 1.395 . S
C123 H149 0.929 . S
C124 C122 1.320 . S
C124 C125 1.405 . S
C124 H150 0.930 . S
C125 C120 1.479 . S
C125 C124 1.405 . S
C125 H151 0.931 . S
U126 O127 2.454 . S
U126 O128 2.458 . S
U126 C129 2.984 . S
U126 C130 2.847 . S
U126 C143 2.882 . S
U126 O144 2.441 . S
U126 O145 2.420 . S
U126 O146 2.455 . S
U126 O147 2.449 . S
O127 U126 2.454 . S
O127 C129 1.353 . S
O128 U126 2.458 . S
O128 C129 1.286 . S
C129 U126 2.984 . S
C129 O127 1.353 . S
C129 O128 1.286 . S
C129 C131 1.363 . S
C130 C120 1.465 . S
C130 U126 2.847 . S
C130 O144 1.249 . S
C130 O145 1.202 . S
C131 C129 1.363 . S
C131 C133 1.408 . S
C131 C136 1.342 . S
C132 C133 1.310 . S
C132 C135 1.461 . S
C132 H152 0.932 . S
C133 C131 1.408 . S
C133 C132 1.310 . S
C133 H153 0.930 . S
C134 C135 1.474 . S
C134 C136 1.285 . S
C134 H154 0.929 . S
C135 C132 1.461 . S
C135 C134 1.474 . S
C136 C131 1.342 . S
C136 C134 1.285 . S
C136 H155 0.930 . S
C137 C140 1.424 . S
C137 C142 1.245 . S
C137 C143 1.428 . S
C138 C141 1.260 . S
C138 C142 1.477 . S
C138 H156 0.932 . S
C139 C140 1.384 . S
C139 C141 1.479 . S
C139 H157 0.929 . S
C140 C137 1.424 . S
C140 C139 1.384 . S
C140 H158 0.928 . S
C141 C138 1.260 . S
C141 C139 1.479 . S
C142 C137 1.245 . S
C142 C138 1.477 . S
C142 H159 0.932 . S
C143 U126 2.882 . S
C143 C137 1.428 . S
C143 O146 1.301 . S
C143 O147 1.282 . S
O144 U126 2.441 . S
O144 C130 1.249 . S
O145 U126 2.420 . S
O145 C130 1.202 . S
O146 U126 2.455 . S
O146 C143 1.301 . S
O147 U126 2.449 . S
O147 C143 1.282 . S
H148 C121 0.931 . S
H149 C123 0.929 . S
H150 C124 0.930 . S
H151 C125 0.931 . S
H152 C132 0.932 . S
H153 C133 0.930 . S
H154 C134 0.929 . S
H155 C136 0.930 . S
H156 C138 0.932 . S
H157 C139 0.929 . S
H158 C140 0.928 . S
H159 C142 0.932 . S
Zn160 O166 1.920 . S
Zn160 O172 1.898 . S
Zn160 O175 1.905 1_455 S
Zn161 O169 1.905 . S
Zn161 O170 1.898 . S
Zn161 O178 1.920 . S
Zn162 O165 2.080 . S
Zn162 O168 2.114 1_545 S
Zn162 O171 2.120 1_545 S
Zn162 O173 2.120 . S
Zn162 O174 2.114 1_455 S
Zn162 O177 2.080 1_545 S
C163 O168 1.166 . S
C163 O169 1.182 . S
C164 O170 1.167 . S
C164 O171 1.299 . S
O165 Zn162 2.080 . S
O165 C179 1.305 . S
O166 Zn160 1.920 . S
O166 C179 1.234 . S
C167 O172 1.167 . S
C167 O173 1.299 . S
O168 Zn162 2.114 1_565 S
O168 C163 1.166 . S
O169 Zn161 1.905 . S
O169 C163 1.182 . S
O170 Zn161 1.898 . S
O170 C164 1.167 . S
O171 Zn162 2.120 1_565 S
O171 C164 1.299 . S
O172 Zn160 1.898 . S
O172 C167 1.167 . S
O173 Zn162 2.120 . S
O173 C167 1.299 . S
O174 Zn162 2.114 1_655 S
O174 C176 1.166 . S
O175 Zn160 1.905 1_655 S
O175 C176 1.182 . S
C176 O174 1.166 . S
C176 O175 1.182 . S
O177 Zn162 2.080 1_565 S
O177 C180 1.305 . S
O178 Zn161 1.920 . S
O178 C180 1.234 . S
C179 O165 1.305 . S
C179 O166 1.234 . S
C180 O177 1.305 . S
C180 O178 1.234 . S
Zn181 O187 1.920 . S
Zn181 O193 1.898 . S
Zn181 O196 1.905 . S
Zn182 O190 1.905 . S
Zn182 O191 1.898 . S
Zn182 O199 1.920 . S
Zn183 O186 2.080 . S
Zn183 O189 2.114 . S
Zn183 O192 2.120 . S
Zn183 O194 2.120 . S
Zn183 O195 2.114 . S
Zn183 O198 2.080 . S
C184 O189 1.166 . S
C184 O190 1.182 . S
C185 O191 1.167 . S
C185 O192 1.299 . S
O186 Zn183 2.080 . S
O186 C200 1.305 . S
O187 Zn181 1.920 . S
O187 C200 1.234 . S
C188 O193 1.167 . S
C188 O194 1.299 . S
O189 Zn183 2.114 . S
O189 C184 1.166 . S
O190 Zn182 1.905 . S
O190 C184 1.182 . S
O191 Zn182 1.898 . S
O191 C185 1.167 . S
O192 Zn183 2.120 . S
O192 C185 1.299 . S
O193 Zn181 1.898 . S
O193 C188 1.167 . S
O194 Zn183 2.120 . S
O194 C188 1.299 . S
O195 Zn183 2.114 . S
O195 C197 1.166 . S
O196 Zn181 1.905 . S
O196 C197 1.182 . S
C197 O195 1.166 . S
C197 O196 1.182 . S
O198 Zn183 2.080 . S
O198 C201 1.305 . S
O199 Zn182 1.920 . S
O199 C201 1.234 . S
C200 O186 1.305 . S
C200 O187 1.234 . S
C201 O198 1.305 . S
C201 O199 1.234 . S
C202 C203 1.363 . S
C202 C208 1.379 . S
C202 N210 1.356 . S
C203 C202 1.363 . S
C203 C209 1.363 . S
C204 C205 1.363 . S
C204 C209 1.379 . S
C204 N211 1.356 . S
C205 C204 1.363 . S
C205 C208 1.363 . S
N206 C208 1.356 . S
N206 H218 0.984 . S
N206 H219 0.985 . S
N207 C209 1.356 . S
N207 H212 0.984 . S
N207 H213 0.985 . S
C208 C202 1.379 . S
C208 C205 1.363 . S
C208 N206 1.356 . S
C209 C203 1.363 . S
C209 C204 1.379 . S
C209 N207 1.356 . S
N210 C202 1.356 . S
N210 H216 0.984 . S
N210 H217 0.984 . S
N211 C204 1.356 . S
N211 H214 0.984 . S
N211 H215 0.985 1_545 S
H212 N207 0.984 . S
H213 N207 0.985 . S
H214 N211 0.984 . S
H215 N211 0.985 1_565 S
H216 N210 0.984 . S
H217 N210 0.984 . S
H218 N206 0.984 . S
H219 N206 0.985 . S
C220 C221 1.363 . S
C220 C226 1.379 . S
C220 N228 1.356 . S
C221 C220 1.363 . S
C221 C227 1.363 1_455 S
C222 C223 1.363 1_655 S
C222 C227 1.379 . S
C222 N229 1.356 . S
C223 C222 1.363 1_455 S
C223 C226 1.363 . S
N224 C226 1.356 . S
N224 H236 0.984 . S
N224 H237 0.985 . S
N225 C227 1.356 . S
N225 H230 0.984 . S
N225 H231 0.985 . S
C226 C220 1.379 . S
C226 C223 1.363 . S
C226 N224 1.356 . S
C227 C221 1.363 1_655 S
C227 C222 1.379 . S
C227 N225 1.356 . S
N228 C220 1.356 . S
N228 H234 0.984 . S
N228 H235 0.984 . S
N229 C222 1.356 . S
N229 H232 0.984 . S
N229 H233 0.985 . S
H230 N225 0.984 . S
H231 N225 0.985 . S
H232 N229 0.984 . S
H233 N229 0.985 . S
H234 N228 0.984 . S
H235 N228 0.984 . S
H236 N224 0.984 . S
H237 N224 0.985 . S
C238 C239 1.363 . S
C238 C244 1.379 . S
C238 N246 1.356 . S
C239 C238 1.363 . S
C239 C245 1.363 . S
C240 C241 1.363 . S
C240 C245 1.379 . S
C240 N247 1.356 . S
C241 C240 1.363 . S
C241 C244 1.363 . S
N242 C244 1.356 . S
N242 H254 0.984 . S
N242 H255 0.985 . S
N243 C245 1.356 . S
N243 H248 0.984 . S
N243 H249 0.985 . S
C244 C238 1.379 . S
C244 C241 1.363 . S
C244 N242 1.356 . S
C245 C239 1.363 . S
C245 C240 1.379 . S
C245 N243 1.356 . S
N246 C238 1.356 . S
N246 H252 0.984 . S
N246 H253 0.984 . S
N247 C240 1.356 . S
N247 H250 0.984 . S
N247 H251 0.985 . S
H248 N243 0.984 . S
H249 N243 0.985 . S
H250 N247 0.984 . S
H251 N247 0.985 . S
H252 N246 0.984 . S
H253 N246 0.984 . S
H254 N242 0.984 . S
H255 N242 0.985 . S
C256 C257 1.363 . S
C256 C262 1.379 . S
C256 N264 1.356 . S
C257 C256 1.363 . S
C257 C263 1.363 . S
C258 C259 1.363 . S
C258 C263 1.379 . S
C258 N265 1.356 . S
C259 C258 1.363 . S
C259 C262 1.363 . S
N260 C262 1.356 . S
N260 H272 0.984 . S
N260 H273 0.985 . S
N261 C263 1.356 . S
N261 H266 0.984 . S
N261 H267 0.985 . S
C262 C256 1.379 . S
C262 C259 1.363 . S
C262 N260 1.356 . S
C263 C257 1.363 . S
C263 C258 1.379 . S
C263 N261 1.356 . S
N264 C256 1.356 . S
N264 H270 0.984 . S
N264 H271 0.984 . S
N265 C258 1.356 . S
N265 H268 0.984 . S
N265 H269 0.985 . S
H266 N261 0.984 . S
H267 N261 0.985 . S
H268 N265 0.984 . S
H269 N265 0.985 . S
H270 N264 0.984 . S
H271 N264 0.984 . S
H272 N260 0.984 . S
H273 N260 0.985 . S
C274 C275 1.363 . S
C274 C280 1.379 . S
C274 N282 1.356 . S
C275 C274 1.363 . S
C275 C281 1.363 . S
C276 C277 1.363 . S
C276 C281 1.379 . S
C276 N283 1.356 . S
C277 C276 1.363 . S
C277 C280 1.363 . S
N278 C280 1.356 . S
N278 H290 0.984 . S
N278 H291 0.985 . S
N279 C281 1.356 . S
N279 H284 0.984 . S
N279 H285 0.985 . S
C280 C274 1.379 . S
C280 C277 1.363 . S
C280 N278 1.356 . S
C281 C275 1.363 . S
C281 C276 1.379 . S
C281 N279 1.356 . S
N282 C274 1.356 . S
N282 H288 0.984 . S
N282 H289 0.984 . S
N283 C276 1.356 . S
N283 H286 0.984 . S
N283 H287 0.985 . S
H284 N279 0.984 . S
H285 N279 0.985 . S
H286 N283 0.984 . S
H287 N283 0.985 . S
H288 N282 0.984 . S
H289 N282 0.984 . S
H290 N278 0.984 . S
H291 N278 0.985 . S
C292 C293 1.363 . S
C292 C298 1.379 . S
C292 N300 1.356 . S
C293 C292 1.363 . S
C293 C299 1.363 . S
C294 C295 1.363 . S
C294 C299 1.379 . S
C294 N301 1.356 . S
C295 C294 1.363 . S
C295 C298 1.363 . S
N296 C298 1.356 . S
N296 H308 0.984 . S
N296 H309 0.985 . S
N297 C299 1.356 . S
N297 H302 0.984 . S
N297 H303 0.985 . S
C298 C292 1.379 . S
C298 C295 1.363 . S
C298 N296 1.356 . S
C299 C293 1.363 . S
C299 C294 1.379 . S
C299 N297 1.356 . S
N300 C292 1.356 . S
N300 H306 0.984 . S
N300 H307 0.984 . S
N301 C294 1.356 . S
N301 H304 0.984 . S
N301 H305 0.985 . S
H302 N297 0.984 . S
H303 N297 0.985 . S
H304 N301 0.984 . S
H305 N301 0.985 . S
H306 N300 0.984 . S
H307 N300 0.984 . S
H308 N296 0.984 . S
H309 N296 0.985 . S
C310 C311 1.363 . S
C310 C316 1.379 . S
C310 N318 1.356 . S
C311 C310 1.363 . S
C311 C317 1.363 . S
C312 C313 1.363 . S
C312 C317 1.379 . S
C312 N319 1.356 . S
C313 C312 1.363 . S
C313 C316 1.363 . S
N314 C316 1.356 . S
N314 H326 0.984 . S
N314 H327 0.985 . S
N315 C317 1.356 . S
N315 H320 0.984 . S
N315 H321 0.985 . S
C316 C310 1.379 . S
C316 C313 1.363 . S
C316 N314 1.356 . S
C317 C311 1.363 . S
C317 C312 1.379 . S
C317 N315 1.356 . S
N318 C310 1.356 . S
N318 H324 0.984 . S
N318 H325 0.984 . S
N319 C312 1.356 . S
N319 H322 0.984 . S
N319 H323 0.985 . S
H320 N315 0.984 . S
H321 N315 0.985 . S
H322 N319 0.984 . S
H323 N319 0.985 . S
H324 N318 0.984 . S
H325 N318 0.984 . S
H326 N314 0.984 . S
H327 N314 0.985 . S
C328 C329 1.363 . S
C328 C334 1.379 . S
C328 N336 1.356 . S
C329 C328 1.363 . S
C329 C335 1.363 . S
C330 C331 1.363 . S
C330 C335 1.379 . S
C330 N337 1.356 . S
C331 C330 1.363 . S
C331 C334 1.363 . S
N332 C334 1.356 . S
N332 H344 0.984 . S
N332 H345 0.985 . S
N333 C335 1.356 . S
N333 H338 0.984 . S
N333 H339 0.972 1_556 S
C334 C328 1.379 . S
C334 C331 1.363 . S
C334 N332 1.356 . S
C335 C329 1.363 . S
C335 C330 1.379 . S
C335 N333 1.356 . S
N336 C328 1.356 . S
N336 H342 0.984 . S
N336 H343 0.984 . S
N337 C330 1.356 . S
N337 H340 0.984 . S
N337 H341 0.985 . S
H338 N333 0.984 . S
H339 N333 0.972 1_554 S
H340 N337 0.984 . S
H341 N337 0.985 . S
H342 N336 0.984 . S
H343 N336 0.984 . S
H344 N332 0.984 . S
H345 N332 0.985 . S
C346 C347 1.363 . S
C346 C352 1.379 . S
C346 N354 1.356 . S
C347 C346 1.363 . S
C347 C353 1.363 . S
C348 C349 1.363 . S
C348 C353 1.379 . S
C348 N355 1.356 1_655 S
C349 C348 1.363 . S
C349 C352 1.363 . S
N350 C352 1.356 . S
N350 H362 0.984 . S
N350 H363 0.985 . S
N351 C353 1.356 . S
N351 H356 0.984 . S
N351 H357 0.985 . S
C352 C346 1.379 . S
C352 C349 1.363 . S
C352 N350 1.356 . S
C353 C347 1.363 . S
C353 C348 1.379 . S
C353 N351 1.356 . S
N354 C346 1.356 . S
N354 H360 0.984 . S
N354 H361 0.984 . S
N355 C348 1.356 1_455 S
N355 H358 0.984 . S
N355 H359 0.985 . S
H356 N351 0.984 . S
H357 N351 0.985 . S
H358 N355 0.984 . S
H359 N355 0.985 . S
H360 N354 0.984 . S
H361 N354 0.984 . S
H362 N350 0.984 . S
H363 N350 0.985 . S
C364 C365 1.363 . S
C364 C370 1.379 . S
C364 N372 1.356 . S
C365 C364 1.363 . S
C365 C371 1.363 . S
C366 C367 1.363 . S
C366 C371 1.379 . S
C366 N373 1.356 . S
C367 C366 1.363 . S
C367 C370 1.363 . S
N368 C370 1.356 . S
N368 H380 0.984 . S
N368 H381 0.985 . S
N369 C371 1.356 . S
N369 H374 0.984 . S
N369 H375 0.985 . S
C370 C364 1.379 . S
C370 C367 1.363 . S
C370 N368 1.356 . S
C371 C365 1.363 . S
C371 C366 1.379 . S
C371 N369 1.356 . S
N372 C364 1.356 . S
N372 H378 0.984 . S
N372 H379 0.984 . S
N373 C366 1.356 . S
N373 H376 0.984 . S
N373 H377 0.985 . S
H374 N369 0.984 . S
H375 N369 0.985 . S
H376 N373 0.984 . S
H377 N373 0.985 . S
H378 N372 0.984 . S
H379 N372 0.984 . S
H380 N368 0.984 . S
H381 N368 0.985 . S
C382 C383 1.363 . S
C382 C388 1.379 . S
C382 N390 1.356 . S
C383 C382 1.363 . S
C383 C389 1.363 . S
C384 C385 1.363 . S
C384 C389 1.379 . S
C384 N391 1.356 . S
C385 C384 1.363 . S
C385 C388 1.363 . S
N386 C388 1.356 . S
N386 H398 0.984 . S
N386 H399 0.985 . S
N387 C389 1.356 . S
N387 H392 0.984 . S
N387 H393 0.985 . S
C388 C382 1.379 . S
C388 C385 1.363 . S
C388 N386 1.356 . S
C389 C383 1.363 . S
C389 C384 1.379 . S
C389 N387 1.356 . S
N390 C382 1.356 . S
N390 H396 0.984 . S
N390 H397 0.984 . S
N391 C384 1.356 . S
N391 H394 0.984 . S
N391 H395 0.985 . S
H392 N387 0.984 . S
H393 N387 0.985 . S
H394 N391 0.984 . S
H395 N391 0.985 . S
H396 N390 0.984 . S
H397 N390 0.984 . S
H398 N386 0.984 . S
H399 N386 0.985 . S
C400 C401 1.363 . S
C400 C406 1.379 . S
C400 N408 1.356 . S
C401 C400 1.363 . S
C401 C407 1.363 . S
C402 C403 1.363 . S
C402 C407 1.379 . S
C402 N409 1.356 . S
C403 C402 1.363 . S
C403 C406 1.363 . S
N404 C406 1.356 . S
N404 H416 0.984 . S
N404 H417 0.985 . S
N405 C407 1.356 . S
N405 H410 0.984 . S
N405 H411 0.985 . S
C406 C400 1.379 . S
C406 C403 1.363 . S
C406 N404 1.356 . S
C407 C401 1.363 . S
C407 C402 1.379 . S
C407 N405 1.356 . S
N408 C400 1.356 . S
N408 H414 0.984 . S
N408 H415 0.984 . S
N409 C402 1.356 . S
N409 H412 0.984 . S
N409 H413 0.985 . S
H410 N405 0.984 . S
H411 N405 0.985 . S
H412 N409 0.984 . S
H413 N409 0.985 . S
H414 N408 0.984 . S
H415 N408 0.984 . S
H416 N404 0.984 . S
H417 N404 0.985 . S
C205 C167 1.554 . S
C203 C15 1.580 . S
C223 C163 1.544 . S
C221 C55 1.577 1_455 S
C241 C188 1.554 . S
C239 C95 1.580 . S
C257 C135 1.577 . S
C259 C184 1.544 . S
C275 C21 1.324 . S
C277 C185 1.156 . S
C295 C200 1.168 . S
C293 C42 1.435 . S
C311 C2 1.676 . S
C313 C201 1.531 . S
C331 C197 1.559 . S
C329 C61 1.732 . S
C349 C164 1.156 1_655 S
C347 C101 1.324 . S
C365 C122 1.435 . S
C367 C179 1.168 . S
C385 C180 1.531 . S
C383 C82 1.676 . S
C403 C176 1.559 . S
C401 C141 1.732 . S
