# Generated by pormake.
# Topology eea, (3,6)-cn, num edge types: 1
# Building blocks:
#     Node 0, Type 0, BuildingBlock: WUSLED_clean_sbu_0, # of connection points: 3
#     Node 1, Type 0, BuildingBlock: WUSLED_clean_sbu_0, # of connection points: 3
#     Node 2, Type 0, BuildingBlock: WUSLED_clean_sbu_0, # of connection points: 3
#     Node 3, Type 0, BuildingBlock: WUSLED_clean_sbu_0, # of connection points: 3
#     Node 4, Type 0, BuildingBlock: WUSLED_clean_sbu_0, # of connection points: 3
#     Node 5, Type 0, BuildingBlock: WUSLED_clean_sbu_0, # of connection points: 3
#     Node 6, Type 0, BuildingBlock: WUSLED_clean_sbu_0, # of connection points: 3
#     Node 7, Type 0, BuildingBlock: WUSLED_clean_sbu_0, # of connection points: 3
#     Node 8, Type 0, BuildingBlock: WUSLED_clean_sbu_0, # of connection points: 3
#     Node 9, Type 0, BuildingBlock: WUSLED_clean_sbu_0, # of connection points: 3
#     Node 10, Type 0, BuildingBlock: WUSLED_clean_sbu_0, # of connection points: 3
#     Node 11, Type 0, BuildingBlock: WUSLED_clean_sbu_0, # of connection points: 3
#     Node 12, Type 0, BuildingBlock: WUSLED_clean_sbu_0, # of connection points: 3
#     Node 13, Type 0, BuildingBlock: WUSLED_clean_sbu_0, # of connection points: 3
#     Node 14, Type 0, BuildingBlock: WUSLED_clean_sbu_0, # of connection points: 3
#     Node 15, Type 0, BuildingBlock: WUSLED_clean_sbu_0, # of connection points: 3
#     Node 16, Type 0, BuildingBlock: WUSLED_clean_sbu_0, # of connection points: 3
#     Node 17, Type 0, BuildingBlock: WUSLED_clean_sbu_0, # of connection points: 3
#     Node 18, Type 1, BuildingBlock: LEVNOQ01_clean_sbu_1, # of connection points: 6
#     Node 19, Type 1, BuildingBlock: LEVNOQ01_clean_sbu_1, # of connection points: 6
#     Node 20, Type 1, BuildingBlock: LEVNOQ01_clean_sbu_1, # of connection points: 6
#     Node 21, Type 1, BuildingBlock: LEVNOQ01_clean_sbu_1, # of connection points: 6
#     Node 22, Type 1, BuildingBlock: LEVNOQ01_clean_sbu_1, # of connection points: 6
#     Node 23, Type 1, BuildingBlock: LEVNOQ01_clean_sbu_1, # of connection points: 6
#     Node 24, Type 1, BuildingBlock: LEVNOQ01_clean_sbu_1, # of connection points: 6
#     Node 25, Type 1, BuildingBlock: LEVNOQ01_clean_sbu_1, # of connection points: 6
#     Node 26, Type 1, BuildingBlock: LEVNOQ01_clean_sbu_1, # of connection points: 6
#     Edge 27, Type (0, 1), BuildingBlock: AJUNOK_clean_linker_0, # of connection points: 2
#     Edge 28, Type (0, 1), BuildingBlock: AJUNOK_clean_linker_0, # of connection points: 2
#     Edge 29, Type (0, 1), BuildingBlock: AJUNOK_clean_linker_0, # of connection points: 2
#     Edge 30, Type (0, 1), BuildingBlock: AJUNOK_clean_linker_0, # of connection points: 2
#     Edge 31, Type (0, 1), BuildingBlock: AJUNOK_clean_linker_0, # of connection points: 2
#     Edge 32, Type (0, 1), BuildingBlock: AJUNOK_clean_linker_0, # of connection points: 2
#     Edge 33, Type (0, 1), BuildingBlock: AJUNOK_clean_linker_0, # of connection points: 2
#     Edge 34, Type (0, 1), BuildingBlock: AJUNOK_clean_linker_0, # of connection points: 2
#     Edge 35, Type (0, 1), BuildingBlock: AJUNOK_clean_linker_0, # of connection points: 2
#     Edge 36, Type (0, 1), BuildingBlock: AJUNOK_clean_linker_0, # of connection points: 2
#     Edge 37, Type (0, 1), BuildingBlock: AJUNOK_clean_linker_0, # of connection points: 2
#     Edge 38, Type (0, 1), BuildingBlock: AJUNOK_clean_linker_0, # of connection points: 2
#     Edge 39, Type (0, 1), BuildingBlock: AJUNOK_clean_linker_0, # of connection points: 2
#     Edge 40, Type (0, 1), BuildingBlock: AJUNOK_clean_linker_0, # of connection points: 2
#     Edge 41, Type (0, 1), BuildingBlock: AJUNOK_clean_linker_0, # of connection points: 2
#     Edge 42, Type (0, 1), BuildingBlock: AJUNOK_clean_linker_0, # of connection points: 2
#     Edge 43, Type (0, 1), BuildingBlock: AJUNOK_clean_linker_0, # of connection points: 2
#     Edge 44, Type (0, 1), BuildingBlock: AJUNOK_clean_linker_0, # of connection points: 2
#     Edge 45, Type (0, 1), BuildingBlock: AJUNOK_clean_linker_0, # of connection points: 2
#     Edge 46, Type (0, 1), BuildingBlock: AJUNOK_clean_linker_0, # of connection points: 2
#     Edge 47, Type (0, 1), BuildingBlock: AJUNOK_clean_linker_0, # of connection points: 2
#     Edge 48, Type (0, 1), BuildingBlock: AJUNOK_clean_linker_0, # of connection points: 2
#     Edge 49, Type (0, 1), BuildingBlock: AJUNOK_clean_linker_0, # of connection points: 2
#     Edge 50, Type (0, 1), BuildingBlock: AJUNOK_clean_linker_0, # of connection points: 2
#     Edge 51, Type (0, 1), BuildingBlock: AJUNOK_clean_linker_0, # of connection points: 2
#     Edge 52, Type (0, 1), BuildingBlock: AJUNOK_clean_linker_0, # of connection points: 2
#     Edge 53, Type (0, 1), BuildingBlock: AJUNOK_clean_linker_0, # of connection points: 2
#     Edge 54, Type (0, 1), BuildingBlock: AJUNOK_clean_linker_0, # of connection points: 2
#     Edge 55, Type (0, 1), BuildingBlock: AJUNOK_clean_linker_0, # of connection points: 2
#     Edge 56, Type (0, 1), BuildingBlock: AJUNOK_clean_linker_0, # of connection points: 2
#     Edge 57, Type (0, 1), BuildingBlock: AJUNOK_clean_linker_0, # of connection points: 2
#     Edge 58, Type (0, 1), BuildingBlock: AJUNOK_clean_linker_0, # of connection points: 2
#     Edge 59, Type (0, 1), BuildingBlock: AJUNOK_clean_linker_0, # of connection points: 2
#     Edge 60, Type (0, 1), BuildingBlock: AJUNOK_clean_linker_0, # of connection points: 2
#     Edge 61, Type (0, 1), BuildingBlock: AJUNOK_clean_linker_0, # of connection points: 2
#     Edge 62, Type (0, 1), BuildingBlock: AJUNOK_clean_linker_0, # of connection points: 2
#     Edge 63, Type (0, 1), BuildingBlock: AJUNOK_clean_linker_0, # of connection points: 2
#     Edge 64, Type (0, 1), BuildingBlock: AJUNOK_clean_linker_0, # of connection points: 2
#     Edge 65, Type (0, 1), BuildingBlock: AJUNOK_clean_linker_0, # of connection points: 2
#     Edge 66, Type (0, 1), BuildingBlock: AJUNOK_clean_linker_0, # of connection points: 2
#     Edge 67, Type (0, 1), BuildingBlock: AJUNOK_clean_linker_0, # of connection points: 2
#     Edge 68, Type (0, 1), BuildingBlock: AJUNOK_clean_linker_0, # of connection points: 2
#     Edge 69, Type (0, 1), BuildingBlock: AJUNOK_clean_linker_0, # of connection points: 2
#     Edge 70, Type (0, 1), BuildingBlock: AJUNOK_clean_linker_0, # of connection points: 2
#     Edge 71, Type (0, 1), BuildingBlock: AJUNOK_clean_linker_0, # of connection points: 2
#     Edge 72, Type (0, 1), BuildingBlock: AJUNOK_clean_linker_0, # of connection points: 2
#     Edge 73, Type (0, 1), BuildingBlock: AJUNOK_clean_linker_0, # of connection points: 2
#     Edge 74, Type (0, 1), BuildingBlock: AJUNOK_clean_linker_0, # of connection points: 2
#     Edge 75, Type (0, 1), BuildingBlock: AJUNOK_clean_linker_0, # of connection points: 2
#     Edge 76, Type (0, 1), BuildingBlock: AJUNOK_clean_linker_0, # of connection points: 2
#     Edge 77, Type (0, 1), BuildingBlock: AJUNOK_clean_linker_0, # of connection points: 2
#     Edge 78, Type (0, 1), BuildingBlock: AJUNOK_clean_linker_0, # of connection points: 2
#     Edge 79, Type (0, 1), BuildingBlock: AJUNOK_clean_linker_0, # of connection points: 2
#     Edge 80, Type (0, 1), BuildingBlock: AJUNOK_clean_linker_0, # of connection points: 2
# Relax obj value: 0.092
# Max RMSD: 0.177
# Mean RMSD: 0.089
data_MOF--net-eea--node1-WUSLED_clean_sbu_0--node2-LEVNOQ01_clean_sbu_1--edge1-AJUNOK_clean_linker_0
_symmetry_space_group_name_H-M    P1
_symmetry_Int_Tables_number       1
_symmetry_cell_setting            triclinic
loop_
_symmetry_equiv_pos_as_xyz
'x, y, z'
_cell_length_a     56.758069
_cell_length_b     56.669501
_cell_length_c     56.395382
_cell_angle_alpha  89.584348
_cell_angle_beta   89.884179
_cell_angle_gamma 119.97854
loop_
_atom_site_label
_atom_site_type_symbol
_atom_site_fract_x
_atom_site_fract_y
_atom_site_fract_z
_atom_type_partial_charge
C0 C 0.18977 0.14098 0.39354 0.0
C1 C 0.18406 0.15589 0.41018 0.0
C2 C 0.18721 0.18743 0.37917 0.0
C3 C 0.18264 0.1789 0.403 0.0
C4 C 0.19246 0.17222 0.36258 0.0
C5 C 0.19361 0.14918 0.36968 0.0
U6 U 0.21651 0.10575 0.43472 0.0
O7 O 0.19695 0.06306 0.44717 0.0
O8 O 0.2351 0.0808 0.42675 0.0
C9 C 0.21507 0.05874 0.43656 0.0
C10 C 0.19259 0.11734 0.40051 0.0
C11 C 0.20436 0.0336 0.42264 0.0
C12 C 0.19659 0.01044 0.38497 0.0
C13 C 0.20449 0.03426 0.39775 0.0
C14 C 0.1872 0.98479 0.42172 0.0
C15 C 0.18832 0.98553 0.39682 0.0
C16 C 0.19527 0.00866 0.4345 0.0
C17 C 0.25796 0.14125 0.48909 0.0
C18 C 0.28637 0.12708 0.51005 0.0
C19 C 0.26998 0.15382 0.53013 0.0
C20 C 0.25672 0.15445 0.50953 0.0
C21 C 0.28474 0.13997 0.53065 0.0
C22 C 0.27284 0.12749 0.48945 0.0
C23 C 0.24284 0.1413 0.46793 0.0
O24 O 0.21724 0.1209 0.39851 0.0
O25 O 0.17994 0.1043 0.42004 0.0
O26 O 0.21649 0.1243 0.46887 0.0
O27 O 0.25385 0.14141 0.44737 0.0
H28 H 0.18117 0.15007 0.42876 0.0
H29 H 0.1789 0.19053 0.41613 0.0
H30 H 0.19607 0.17844 0.34409 0.0
H31 H 0.198 0.13801 0.35655 0.0
H32 H 0.1978 0.01168 0.36579 0.0
H33 H 0.21133 0.05326 0.3882 0.0
H34 H 0.1804 0.96583 0.43132 0.0
H35 H 0.19492 0.00775 0.45371 0.0
H36 H 0.29777 0.11643 0.51003 0.0
H37 H 0.26889 0.16439 0.54567 0.0
H38 H 0.24535 0.16515 0.5096 0.0
H39 H 0.27389 0.11696 0.47387 0.0
C40 C 0.95747 0.1512 0.38715 0.0
C41 C 0.9634 0.1767 0.39587 0.0
C42 C 0.0075 0.19814 0.3759 0.0
C43 C 0.98813 0.19996 0.39021 0.0
C44 C 1.00134 0.17258 0.367 0.0
C45 C 0.97648 0.14932 0.37255 0.0
U46 U 0.89872 0.11272 0.43041 0.0
O47 O 0.85511 0.08545 0.42482 0.0
O48 O 0.87907 0.07004 0.44283 0.0
C49 C 0.85542 0.06416 0.43387 0.0
C50 C 0.9322 0.12635 0.39412 0.0
C51 C 0.84173 0.03938 0.41962 0.0
C52 C 0.83136 0.01732 0.38133 0.0
C53 C 0.84738 0.04001 0.39533 0.0
C54 C 0.80508 0.99262 0.41606 0.0
C55 C 0.80955 0.99375 0.39148 0.0
C56 C 0.82103 0.01537 0.43002 0.0
C57 C 0.89222 0.14648 0.48567 0.0
C58 C 0.86115 0.12077 0.51796 0.0
C59 C 0.87888 0.16942 0.5143 0.0
C60 C 0.8936 0.1703 0.49411 0.0
C61 C 0.86246 0.14465 0.52638 0.0
C62 C 0.87574 0.12163 0.4976 0.0
C63 C 0.90731 0.14774 0.46401 0.0
O64 O 0.93408 0.11385 0.41312 0.0
O65 O 0.90999 0.12818 0.39384 0.0
O66 O 0.89496 0.14696 0.44411 0.0
O67 O 0.91842 0.13218 0.46387 0.0
H68 H 0.94908 0.17856 0.40732 0.0
H69 H 0.99225 0.21937 0.39727 0.0
H70 H 0.01606 0.17041 0.35639 0.0
H71 H 0.97233 0.12974 0.36584 0.0
H72 H 0.83531 0.01851 0.36243 0.0
H73 H 0.86341 0.05839 0.38705 0.0
H74 H 0.78831 0.97471 0.42422 0.0
H75 H 0.81645 0.0146 0.44877 0.0
H76 H 0.84876 0.10149 0.52704 0.0
H77 H 0.88073 0.18824 0.52073 0.0
H78 H 0.90612 0.18962 0.48511 0.0
H79 H 0.87416 0.10292 0.49118 0.0
C80 C 0.84939 0.78954 0.37568 0.0
C81 C 0.82367 0.77046 0.38473 0.0
C82 C 0.804 0.79625 0.36776 0.0
C83 C 0.80122 0.77369 0.38068 0.0
C84 C 0.82969 0.81515 0.35836 0.0
C85 C 0.85221 0.81177 0.36228 0.0
U86 U 0.88361 0.76831 0.42064 0.0
O87 O 0.90573 0.74575 0.41815 0.0
O88 O 0.92588 0.78699 0.43298 0.0
C89 C 0.92832 0.76606 0.42653 0.0
C90 C 0.87342 0.78737 0.38197 0.0
C91 C 0.95344 0.77231 0.41384 0.0
C92 C 0.98471 0.79117 0.38031 0.0
C93 C 0.96065 0.78607 0.39188 0.0
C94 C 0.99436 0.76897 0.41267 0.0
C95 C 1.00157 0.78228 0.3905 0.0
C96 C 0.97051 0.76396 0.42415 0.0
C97 C 0.84328 0.73819 0.47834 0.0
C98 C 0.85271 0.71197 0.50713 0.0
C99 C 0.82157 0.72797 0.5172 0.0
C100 C 0.82568 0.74008 0.49472 0.0
C101 C 0.83498 0.71371 0.52357 0.0
C102 C 0.85694 0.72422 0.48473 0.0
C103 C 0.84682 0.75055 0.45463 0.0
O104 O 0.8879 0.80311 0.39948 0.0
O105 O 0.86915 0.76238 0.38385 0.0
O106 O 0.84615 0.73545 0.43678 0.0
O107 O 0.86624 0.77609 0.45261 0.0
H108 H 0.82101 0.75331 0.39541 0.0
H109 H 0.78169 0.75873 0.38804 0.0
H110 H 0.83257 0.83301 0.34874 0.0
H111 H 0.87196 0.8269 0.35544 0.0
H112 H 0.98993 0.80165 0.36332 0.0
H113 H 0.94766 0.79272 0.38371 0.0
H114 H 0.00731 0.76253 0.42125 0.0
H115 H 0.96537 0.75349 0.44116 0.0
H116 H 0.86347 0.70129 0.5117 0.0
H117 H 0.80763 0.7294 0.52946 0.0
H118 H 0.81496 0.75078 0.49006 0.0
H119 H 0.87075 0.72268 0.47237 0.0
C120 C 0.0641 0.21743 0.63943 0.0
C121 C 0.04985 0.22153 0.62108 0.0
C122 C 0.01307 0.21287 0.64846 0.0
C123 C 0.02456 0.21924 0.62555 0.0
C124 C 0.02746 0.20883 0.66682 0.0
C125 C 0.05278 0.21107 0.66231 0.0
U126 U 0.12492 0.23932 0.5988 0.0
O127 O 0.16882 0.26139 0.60608 0.0
O128 O 0.14956 0.22028 0.59092 0.0
C129 C 0.17198 0.24111 0.59898 0.0
C130 C 0.09096 0.22036 0.63487 0.0
C131 C 0.18954 0.23485 0.61361 0.0
C132 C 0.19715 0.20987 0.6451 0.0
C133 C 0.1795 0.21593 0.63246 0.0
C134 C 0.23469 0.24185 0.62028 0.0
C135 C 0.22493 0.22271 0.63898 0.0
C136 C 0.21719 0.24785 0.60779 0.0
C137 C 0.12725 0.2706 0.53856 0.0
C138 C 0.16215 0.27891 0.5092 0.0
C139 C 0.13387 0.29946 0.50433 0.0
C140 C 0.12013 0.28711 0.52542 0.0
C141 C 0.15495 0.29543 0.49595 0.0
C142 C 0.14847 0.26667 0.53043 0.0
C143 C 0.11289 0.25828 0.56099 0.0
O144 O 0.09169 0.20478 0.61804 0.0
O145 O 0.11117 0.24561 0.63349 0.0
O146 O 0.124 0.27299 0.57995 0.0
O147 O 0.105 0.23235 0.56411 0.0
H148 H 0.05834 0.22658 0.60331 0.0
H149 H 0.0139 0.22235 0.61103 0.0
H150 H 0.01938 0.20442 0.68473 0.0
H151 H 0.06363 0.20806 0.67672 0.0
H152 H 0.18913 0.19524 0.65957 0.0
H153 H 0.15812 0.20575 0.63721 0.0
H154 H 0.25588 0.2518 0.6149 0.0
H155 H 0.22524 0.26243 0.59325 0.0
H156 H 0.17851 0.27573 0.50328 0.0
H157 H 0.12779 0.31194 0.49438 0.0
H158 H 0.10394 0.2905 0.53148 0.0
H159 H 0.15447 0.25421 0.54053 0.0
C160 C 0.81415 0.85742 0.6303 0.0
C161 C 0.81441 0.83991 0.61287 0.0
C162 C 0.82124 0.81309 0.64322 0.0
C163 C 0.81805 0.81799 0.61928 0.0
C164 C 0.82052 0.83047 0.66056 0.0
C165 C 0.81706 0.8524 0.65415 0.0
U166 U 0.78682 0.8937 0.59109 0.0
O167 O 0.77093 0.9208 0.59995 0.0
O168 O 0.80747 0.93604 0.57758 0.0
C169 C 0.79092 0.94195 0.58903 0.0
C170 C 0.81149 0.88131 0.62406 0.0
C171 C 0.80364 0.96791 0.602 0.0
C172 C 0.81248 0.99332 0.63856 0.0
C173 C 0.80263 0.96852 0.62685 0.0
C174 C 0.82535 0.01739 0.60088 0.0
C175 C 0.82388 0.01805 0.62572 0.0
C176 C 0.81533 0.99253 0.58915 0.0
C177 C 0.74181 0.85855 0.53861 0.0
C178 C 0.73232 0.88412 0.5091 0.0
C179 C 0.70893 0.8348 0.50767 0.0
C180 C 0.72285 0.83421 0.52787 0.0
C181 C 0.71392 0.85977 0.49785 0.0
C182 C 0.74611 0.88351 0.52941 0.0
C183 C 0.75736 0.85778 0.55907 0.0
O184 O 0.82337 0.89399 0.60418 0.0
O185 O 0.7872 0.87842 0.62708 0.0
O186 O 0.74768 0.8591 0.57989 0.0
O187 O 0.78388 0.87354 0.55722 0.0
H188 H 0.81212 0.84336 0.59432 0.0
H189 H 0.81884 0.8052 0.60549 0.0
H190 H 0.82254 0.82703 0.67918 0.0
H191 H 0.8168 0.86557 0.66786 0.0
H192 H 0.8103 0.99301 0.65766 0.0
H193 H 0.79358 0.94982 0.6372 0.0
H194 H 0.83394 0.03607 0.59052 0.0
H195 H 0.81616 0.99249 0.56996 0.0
H196 H 0.7363 0.90359 0.50198 0.0
H197 H 0.69497 0.81576 0.49922 0.0
H198 H 0.71919 0.81478 0.53483 0.0
H199 H 0.76051 0.90251 0.53768 0.0
C200 C 0.05835 0.84807 0.63457 0.0
C201 C 0.0474 0.82568 0.61932 0.0
C202 C 0.00983 0.79996 0.64691 0.0
C203 C 0.02333 0.80187 0.6254 0.0
C204 C 0.02064 0.8226 0.66197 0.0
C205 C 0.0448 0.84646 0.65588 0.0
U206 U 0.11708 0.88816 0.5917 0.0
O207 O 0.13827 0.93135 0.58109 0.0
O208 O 0.16106 0.9138 0.59784 0.0
C209 C 0.16173 0.93587 0.58957 0.0
C210 C 0.08393 0.873 0.6284 0.0
C211 C 0.17744 0.96078 0.60353 0.0
C212 C 0.18084 0.9974 0.62815 0.0
C213 C 0.16499 0.97327 0.61568 0.0
C214 C 0.22162 0.99674 0.61651 0.0
C215 C 0.20933 0.00926 0.62886 0.0
C216 C 0.20582 0.97279 0.60396 0.0
C217 C 0.12136 0.85825 0.53335 0.0
C218 C 0.16339 0.87758 0.51038 0.0
C219 C 0.12036 0.84691 0.49184 0.0
C220 C 0.10677 0.84431 0.51324 0.0
C221 C 0.1488 0.86339 0.49025 0.0
C222 C 0.14975 0.87515 0.53175 0.0
C223 C 0.10674 0.85554 0.5557 0.0
O224 O 0.10555 0.87018 0.6275 0.0
O225 O 0.08253 0.88717 0.61044 0.0
O226 O 0.09661 0.87183 0.55767 0.0
O227 O 0.11887 0.85415 0.57506 0.0
H228 H 0.0575 0.82664 0.60271 0.0
H229 H 0.01514 0.78499 0.61317 0.0
H230 H 0.01063 0.82171 0.6786 0.0
H231 H 0.05296 0.86359 0.66783 0.0
H232 H 0.17083 0.0068 0.6372 0.0
H233 H 0.1431 0.96446 0.61548 0.0
H234 H 0.24346 0.00521 0.61691 0.0
H235 H 0.21582 0.96354 0.5946 0.0
H236 H 0.18528 0.8906 0.50953 0.0
H237 H 0.10868 0.83561 0.47661 0.0
H238 H 0.08487 0.83133 0.5141 0.0
H239 H 0.16136 0.88641 0.54703 0.0
C240 C 0.85794 0.47753 0.72964 0.0
C241 C 0.85251 0.49247 0.74645 0.0
C242 C 0.84888 0.52016 0.71491 0.0
C243 C 0.84795 0.51358 0.73913 0.0
C244 C 0.85466 0.50532 0.69828 0.0
C245 C 0.85907 0.48425 0.70556 0.0
U246 U 0.88701 0.44316 0.76986 0.0
O247 O 0.86851 0.40054 0.78196 0.0
O248 O 0.90598 0.41875 0.76056 0.0
C249 C 0.88672 0.39665 0.77095 0.0
C250 C 0.86201 0.45458 0.73646 0.0
C251 C 0.87649 0.37132 0.75743 0.0
C252 C 0.84396 0.33685 0.73092 0.0
C253 C 0.85263 0.36073 0.74395 0.0
C254 C 0.88272 0.33386 0.74495 0.0
C255 C 0.8592 0.32342 0.73097 0.0
C256 C 0.89124 0.35756 0.75804 0.0
C257 C 0.92921 0.47734 0.82382 0.0
C258 C 0.95346 0.45813 0.84451 0.0
C259 C 0.94583 0.49192 0.86363 0.0
C260 C 0.9324 0.49354 0.84351 0.0
C261 C 0.9563 0.47409 0.86437 0.0
C262 C 0.93983 0.45962 0.82438 0.0
C263 C 0.91373 0.47821 0.80329 0.0
O264 O 0.88692 0.45892 0.73404 0.0
O265 O 0.84989 0.44125 0.75605 0.0
O266 O 0.88741 0.46109 0.80444 0.0
O267 O 0.92438 0.47886 0.78241 0.0
H268 H 0.8516 0.48772 0.76519 0.0
H269 H 0.84332 0.52446 0.75235 0.0
H270 H 0.85598 0.51014 0.67953 0.0
H271 H 0.86332 0.4731 0.69231 0.0
H272 H 0.82552 0.32906 0.72062 0.0
H273 H 0.84089 0.37102 0.74333 0.0
H274 H 0.89504 0.32419 0.74517 0.0
H275 H 0.90968 0.36542 0.76839 0.0
H276 H 0.96133 0.44421 0.84474 0.0
H277 H 0.94819 0.50471 0.87862 0.0
H278 H 0.92429 0.50726 0.84341 0.0
H279 H 0.93733 0.44675 0.80938 0.0
C280 C 0.62023 0.48811 0.71785 0.0
C281 C 0.62467 0.51363 0.72516 0.0
C282 C 0.66978 0.53595 0.70687 0.0
C283 C 0.64915 0.53732 0.71965 0.0
C284 C 0.66513 0.51033 0.69944 0.0
C285 C 0.64054 0.48666 0.70482 0.0
U286 U 0.56069 0.44817 0.76031 0.0
O287 O 0.51766 0.41856 0.75422 0.0
O288 O 0.54301 0.40612 0.77406 0.0
C289 C 0.51913 0.39849 0.76464 0.0
C290 C 0.59525 0.46279 0.72472 0.0
C291 C 0.50598 0.3722 0.75228 0.0
C292 C 0.48943 0.34569 0.71632 0.0
C293 C 0.50474 0.37082 0.72745 0.0
C294 C 0.47742 0.32291 0.75461 0.0
C295 C 0.47513 0.32152 0.7298 0.0
C296 C 0.49265 0.34806 0.76574 0.0
C297 C 0.55199 0.48142 0.81499 0.0
C298 C 0.52213 0.45494 0.84766 0.0
C299 C 0.5398 0.50367 0.84527 0.0
C300 C 0.55363 0.50501 0.82432 0.0
C301 C 0.52422 0.47869 0.8573 0.0
C302 C 0.53581 0.45627 0.82657 0.0
C303 C 0.56715 0.48327 0.79322 0.0
O304 O 0.59724 0.45081 0.74404 0.0
O305 O 0.57244 0.46348 0.72371 0.0
O306 O 0.55421 0.48105 0.77333 0.0
O307 O 0.57977 0.46913 0.79342 0.0
H308 H 0.60937 0.51521 0.73543 0.0
H309 H 0.65209 0.55673 0.72561 0.0
H310 H 0.6808 0.50845 0.69014 0.0
H311 H 0.63761 0.46712 0.69925 0.0
H312 H 0.48794 0.34529 0.69716 0.0
H313 H 0.51491 0.38919 0.7167 0.0
H314 H 0.46705 0.30461 0.76543 0.0
H315 H 0.49345 0.34873 0.78493 0.0
H316 H 0.51007 0.43544 0.85651 0.0
H317 H 0.54191 0.5223 0.85244 0.0
H318 H 0.56587 0.52454 0.81555 0.0
H319 H 0.53401 0.43774 0.81945 0.0
C320 C 0.51659 0.11829 0.70785 0.0
C321 C 0.49061 0.0975 0.71488 0.0
C322 C 0.47041 0.12369 0.69992 0.0
C323 C 0.46778 0.10011 0.71083 0.0
C324 C 0.49636 0.1443 0.6925 0.0
C325 C 0.51925 0.14156 0.69639 0.0
U326 U 0.55226 0.0991 0.75329 0.0
O327 O 0.57558 0.07772 0.75104 0.0
O328 O 0.5947 0.11916 0.76538 0.0
C329 C 0.59795 0.09869 0.75898 0.0
C330 C 0.54098 0.11684 0.71439 0.0
C331 C 0.62301 0.1056 0.74582 0.0
C332 C 0.65573 0.12896 0.71392 0.0
C333 C 0.63157 0.12292 0.72583 0.0
C334 C 0.66264 0.10028 0.74182 0.0
C335 C 0.67148 0.11763 0.72184 0.0
C336 C 0.63868 0.09435 0.75365 0.0
C337 C 0.51164 0.0687 0.81139 0.0
C338 C 0.52674 0.06952 0.85187 0.0
C339 C 0.48245 0.03342 0.83967 0.0
C340 C 0.48711 0.04491 0.81692 0.0
C341 C 0.50214 0.04571 0.8574 0.0
C342 C 0.5315 0.08091 0.82905 0.0
C343 C 0.51554 0.08065 0.78735 0.0
O344 O 0.5553 0.13308 0.73169 0.0
O345 O 0.53746 0.09214 0.71659 0.0
O346 O 0.51549 0.06542 0.76987 0.0
O347 O 0.53417 0.10648 0.78485 0.0
H348 H 0.48798 0.07947 0.72407 0.0
H349 H 0.44806 0.08385 0.71666 0.0
H350 H 0.49912 0.16296 0.68452 0.0
H351 H 0.53915 0.15799 0.69113 0.0
H352 H 0.66192 0.14217 0.69844 0.0
H353 H 0.61959 0.13169 0.71947 0.0
H354 H 0.67447 0.09149 0.74852 0.0
H355 H 0.63241 0.08096 0.76904 0.0
H356 H 0.54252 0.07904 0.86509 0.0
H357 H 0.4634 0.01497 0.84345 0.0
H358 H 0.47149 0.03521 0.8036 0.0
H359 H 0.55069 0.09918 0.82526 0.0
C360 C 0.72818 0.55474 0.97227 0.0
C361 C 0.71591 0.5622 0.95445 0.0
C362 C 0.67799 0.5521 0.98094 0.0
C363 C 0.69097 0.56081 0.95872 0.0
C364 C 0.69026 0.54438 0.99866 0.0
C365 C 0.71522 0.54576 0.99436 0.0
U366 U 0.78905 0.573 0.93229 0.0
O367 O 0.81086 0.55103 0.92482 0.0
O368 O 0.83262 0.59171 0.9407 0.0
C369 C 0.83366 0.57001 0.93417 0.0
C370 C 0.75444 0.55625 0.96794 0.0
C371 C 0.8485 0.5608 0.94975 0.0
C372 C 0.85872 0.52538 0.9611 0.0
C373 C 0.84123 0.53315 0.95083 0.0
C374 C 0.89013 0.57236 0.97102 0.0
C375 C 0.8838 0.54507 0.97039 0.0
C376 C 0.87269 0.58019 0.96066 0.0
C377 C 0.79363 0.60218 0.87047 0.0
C378 C 0.83525 0.62617 0.847 0.0
C379 C 0.79139 0.60593 0.82773 0.0
C380 C 0.77839 0.59672 0.84968 0.0
C381 C 0.81995 0.62079 0.82615 0.0
C382 C 0.8222 0.61673 0.86899 0.0
C383 C 0.77933 0.59214 0.89337 0.0
O384 O 0.75429 0.53992 0.95143 0.0
O385 O 0.7755 0.58102 0.96634 0.0
O386 O 0.79128 0.60732 0.91195 0.0
O387 O 0.76933 0.56599 0.89746 0.0
H388 H 0.72559 0.56903 0.93723 0.0
H389 H 0.6817 0.56629 0.94455 0.0
H390 H 0.68069 0.53758 0.01591 0.0
H391 H 0.72444 0.53989 0.0083 0.0
H392 H 0.8534 0.50418 0.96055 0.0
H393 H 0.8228 0.51765 0.94256 0.0
H394 H 0.90946 0.58791 0.97796 0.0
H395 H 0.87896 0.60165 0.95992 0.0
H396 H 0.85727 0.63771 0.84627 0.0
H397 H 0.77906 0.60207 0.81203 0.0
H398 H 0.75636 0.58549 0.85044 0.0
H399 H 0.83441 0.62095 0.88481 0.0
C400 C 0.48899 0.1962 0.95996 0.0
C401 C 0.47468 0.17214 0.9469 0.0
C402 C 0.49365 0.15015 0.97135 0.0
C403 C 0.47691 0.14926 0.95262 0.0
C404 C 0.50821 0.17443 0.98415 0.0
C405 C 0.5059 0.19726 0.97848 0.0
U406 U 0.46075 0.23163 0.92163 0.0
O407 O 0.44412 0.2581 0.93045 0.0
O408 O 0.48049 0.27378 0.90778 0.0
C409 C 0.46358 0.27928 0.91912 0.0
C410 C 0.48638 0.2202 0.95443 0.0
C411 C 0.47576 0.30537 0.93173 0.0
C412 C 0.48784 0.33122 0.9682 0.0
C413 C 0.47883 0.30657 0.95644 0.0
C414 C 0.49178 0.35399 0.93064 0.0
C415 C 0.49423 0.35517 0.95544 0.0
C416 C 0.48264 0.32928 0.9189 0.0
C417 C 0.41583 0.19589 0.86931 0.0
C418 C 0.40902 0.22039 0.83691 0.0
C419 C 0.37879 0.17175 0.84173 0.0
C420 C 0.39327 0.17169 0.86172 0.0
C421 C 0.38674 0.19604 0.829 0.0
C422 C 0.42332 0.22037 0.85706 0.0
C423 C 0.43156 0.19537 0.88979 0.0
O424 O 0.49788 0.23277 0.93442 0.0
O425 O 0.462 0.21703 0.95763 0.0
O426 O 0.42183 0.19649 0.91065 0.0
O427 O 0.45806 0.21129 0.88795 0.0
H428 H 0.46157 0.171 0.93248 0.0
H429 H 0.46534 0.13076 0.94257 0.0
H430 H 0.52072 0.17549 0.99905 0.0
H431 H 0.51703 0.21565 0.98878 0.0
H432 H 0.48879 0.33129 0.98738 0.0
H433 H 0.47349 0.28832 0.96671 0.0
H434 H 0.4965 0.37207 0.92038 0.0
H435 H 0.48029 0.32871 0.89982 0.0
H436 H 0.41553 0.23932 0.82734 0.0
H437 H 0.36196 0.15262 0.83573 0.0
H438 H 0.38714 0.15266 0.871 0.0
H439 H 0.44052 0.23937 0.86283 0.0
C440 C 0.72535 0.18449 0.96809 0.0
C441 C 0.71398 0.16239 0.95252 0.0
C442 C 0.6766 0.13658 0.98025 0.0
C443 C 0.68978 0.13869 0.95852 0.0
C444 C 0.68784 0.15893 0.99564 0.0
C445 C 0.71211 0.18269 0.98962 0.0
U446 U 0.78458 0.22425 0.92561 0.0
O447 O 0.80525 0.26744 0.91461 0.0
O448 O 0.8283 0.25048 0.93185 0.0
C449 C 0.82867 0.27237 0.92345 0.0
C450 C 0.75096 0.20936 0.96194 0.0
C451 C 0.84337 0.29731 0.93753 0.0
C452 C 0.86198 0.32022 0.9748 0.0
C453 C 0.8458 0.29631 0.96223 0.0
C454 C 0.87262 0.34651 0.93831 0.0
C455 C 0.87594 0.34552 0.9629 0.0
C456 C 0.85655 0.32259 0.92574 0.0
C457 C 0.7898 0.1938 0.8678 0.0
C458 C 0.83213 0.21166 0.84542 0.0
C459 C 0.78901 0.1829 0.82619 0.0
C460 C 0.77526 0.18065 0.84741 0.0
C461 C 0.81757 0.19821 0.82505 0.0
C462 C 0.81834 0.20961 0.86662 0.0
C463 C 0.77498 0.19131 0.88999 0.0
O464 O 0.77264 0.20664 0.96151 0.0
O465 O 0.74968 0.22323 0.94368 0.0
O466 O 0.76456 0.2074 0.8915 0.0
O467 O 0.78698 0.19029 0.90957 0.0
H468 H 0.72384 0.16351 0.93574 0.0
H469 H 0.68127 0.12202 0.94606 0.0
H470 H 0.67807 0.15786 0.01245 0.0
H471 H 0.7206 0.19961 1.00182 0.0
H472 H 0.86423 0.31883 0.99374 0.0
H473 H 0.83573 0.27703 0.97173 0.0
H474 H 0.88266 0.36576 0.92875 0.0
H475 H 0.85481 0.32377 0.90669 0.0
H476 H 0.85412 0.22375 0.84492 0.0
H477 H 0.77734 0.17216 0.81075 0.0
H478 H 0.75326 0.16853 0.84793 0.0
H479 H 0.82996 0.22027 0.8821 0.0
C480 C 0.52437 0.81003 0.06042 0.0
C481 C 0.52849 0.8297 0.07744 0.0
C482 C 0.51791 0.85492 0.04824 0.0
C483 C 0.52515 0.85188 0.07144 0.0
C484 C 0.51375 0.83506 0.03132 0.0
C485 C 0.51693 0.81285 0.03737 0.0
U486 U 0.553 0.776 0.10017 0.0
O487 O 0.53368 0.73401 0.1143 0.0
O488 O 0.57063 0.75011 0.09235 0.0
C489 C 0.55107 0.72879 0.10346 0.0
C490 C 0.5277 0.78653 0.06644 0.0
C491 C 0.53938 0.7027 0.09086 0.0
C492 C 0.52786 0.67682 0.05441 0.0
C493 C 0.53673 0.7015 0.06611 0.0
C494 C 0.52305 0.654 0.0921 0.0
C495 C 0.52138 0.65289 0.06724 0.0
C496 C 0.53207 0.67874 0.10378 0.0
C497 C 0.59573 0.81375 0.15337 0.0
C498 C 0.62104 0.7974 0.17638 0.0
C499 C 0.60985 0.82978 0.19339 0.0
C500 C 0.59702 0.83006 0.1724 0.0
C501 C 0.62165 0.81321 0.19566 0.0
C502 C 0.60792 0.79748 0.15539 0.0
C503 C 0.58035 0.81292 0.13216 0.0
O504 O 0.55244 0.79043 0.06387 0.0
O505 O 0.51577 0.77361 0.08621 0.0
O506 O 0.55401 0.7961 0.13366 0.0
O507 O 0.59091 0.81186 0.1117 0.0
H508 H 0.53426 0.82788 0.09537 0.0
H509 H 0.52812 0.86657 0.08496 0.0
H510 H 0.50851 0.83697 0.01322 0.0
H511 H 0.51373 0.79792 0.02399 0.0
H512 H 0.52696 0.67667 0.03523 0.0
H513 H 0.54216 0.71973 0.05578 0.0
H514 H 0.51771 0.63584 0.10248 0.0
H515 H 0.53387 0.67926 0.12292 0.0
H516 H 0.63009 0.78456 0.17778 0.0
H517 H 0.61046 0.84245 0.20795 0.0
H518 H 0.58772 0.84271 0.17116 0.0
H519 H 0.60694 0.78457 0.14091 0.0
C520 C 0.28581 0.82375 0.04924 0.0
C521 C 0.29118 0.84946 0.05695 0.0
C522 C 0.33641 0.8706 0.03902 0.0
C523 C 0.31618 0.87265 0.05179 0.0
C524 C 0.33085 0.84482 0.03119 0.0
C525 C 0.30573 0.82163 0.03619 0.0
U526 U 0.22627 0.78399 0.09169 0.0
O527 O 0.18268 0.75684 0.08542 0.0
O528 O 0.20642 0.74106 0.10332 0.0
C529 C 0.18287 0.73539 0.09426 0.0
C530 C 0.26014 0.79891 0.05558 0.0
C531 C 0.16875 0.7101 0.08053 0.0
C532 C 0.14995 0.6861 0.04372 0.0
C533 C 0.16547 0.71047 0.05589 0.0
C534 C 0.14167 0.66066 0.08047 0.0
C535 C 0.13751 0.66097 0.05595 0.0
C536 C 0.15707 0.68503 0.09264 0.0
C537 C 0.22049 0.81446 0.14922 0.0
C538 C 0.17826 0.79546 0.1719 0.0
C539 C 0.22129 0.82517 0.19089 0.0
C540 C 0.235 0.82788 0.16954 0.0
C541 C 0.19279 0.80911 0.19222 0.0
C542 C 0.19202 0.79797 0.15058 0.0
C543 C 0.23532 0.81716 0.127 0.0
O544 O 0.26151 0.78528 0.07397 0.0
O545 O 0.23817 0.80118 0.05567 0.0
O546 O 0.22304 0.81764 0.10741 0.0
O547 O 0.24629 0.80156 0.12561 0.0
H548 H 0.2762 0.85157 0.06722 0.0
H549 H 0.31981 0.89222 0.05803 0.0
H550 H 0.34619 0.84241 0.02185 0.0
H551 H 0.30205 0.80192 0.03029 0.0
H552 H 0.14703 0.68697 0.02482 0.0
H553 H 0.17438 0.72958 0.04613 0.0
H554 H 0.13283 0.64159 0.09026 0.0
H555 H 0.15948 0.68433 0.11165 0.0
H556 H 0.15632 0.78281 0.17254 0.0
H557 H 0.23292 0.83608 0.20628 0.0
H558 H 0.25695 0.84051 0.16889 0.0
H559 H 0.18045 0.78708 0.13516 0.0
C560 C 0.18256 0.45392 0.04557 0.0
C561 C 0.158 0.43653 0.05736 0.0
C562 C 0.13712 0.461 0.0401 0.0
C563 C 0.13546 0.43988 0.05449 0.0
C564 C 0.16151 0.47801 0.0278 0.0
C565 C 0.18414 0.47454 0.03059 0.0
U566 U 0.21814 0.43224 0.08827 0.0
O567 O 0.23941 0.40893 0.08452 0.0
O568 O 0.26078 0.4502 0.09931 0.0
C569 C 0.26253 0.42905 0.09227 0.0
C570 C 0.20678 0.45158 0.05044 0.0
C571 C 0.28698 0.43486 0.07859 0.0
C572 C 0.32056 0.45885 0.04743 0.0
C573 C 0.29677 0.45359 0.05959 0.0
C574 C 0.32464 0.42663 0.07311 0.0
C575 C 0.33459 0.44522 0.054 0.0
C576 C 0.30105 0.42145 0.08519 0.0
C577 C 0.17893 0.40248 0.14673 0.0
C578 C 0.18799 0.37562 0.1751 0.0
C579 C 0.15672 0.3914 0.18536 0.0
C580 C 0.16119 0.40408 0.16312 0.0
C581 C 0.16978 0.37673 0.19142 0.0
C582 C 0.19255 0.38841 0.15292 0.0
C583 C 0.18242 0.41502 0.12313 0.0
O584 O 0.22222 0.46724 0.06758 0.0
O585 O 0.20225 0.42647 0.05197 0.0
O586 O 0.18097 0.39978 0.10511 0.0
O587 O 0.20225 0.44038 0.12101 0.0
H588 H 0.15635 0.42058 0.06915 0.0
H589 H 0.11676 0.4261 0.06377 0.0
H590 H 0.16329 0.49444 0.01659 0.0
H591 H 0.203 0.48828 0.0215 0.0
H592 H 0.32791 0.47342 0.03289 0.0
H593 H 0.28614 0.46418 0.05427 0.0
H594 H 0.33541 0.41641 0.07906 0.0
H595 H 0.29392 0.4071 0.09991 0.0
H596 H 0.19881 0.36497 0.17956 0.0
H597 H 0.14271 0.39266 0.19766 0.0
H598 H 0.15057 0.41494 0.15863 0.0
H599 H 0.20653 0.38717 0.14056 0.0
C600 C 0.39378 0.88653 0.30466 0.0
C601 C 0.38805 0.90648 0.29618 0.0
C602 C 0.34228 0.88139 0.31292 0.0
C603 C 0.36262 0.90399 0.30036 0.0
C604 C 0.34807 0.86141 0.32133 0.0
C605 C 0.37364 0.86404 0.31731 0.0
U606 U 0.45489 0.90706 0.26427 0.0
O607 O 0.49866 0.92749 0.27187 0.0
O608 O 0.47815 0.88653 0.25637 0.0
C609 C 0.50095 0.90679 0.26451 0.0
C610 C 0.42028 0.88852 0.29987 0.0
C611 C 0.51813 0.89971 0.2788 0.0
C612 C 0.52552 0.87496 0.31064 0.0
C613 C 0.50809 0.88144 0.29812 0.0
C614 C 0.56278 0.90509 0.28467 0.0
C615 C 0.55306 0.88675 0.30394 0.0
C616 C 0.54551 0.91151 0.2723 0.0
C617 C 0.4598 0.93996 0.20426 0.0
C618 C 0.48926 0.94201 0.17186 0.0
C619 C 0.47343 0.97453 0.17341 0.0
C620 C 0.45916 0.96237 0.19435 0.0
C621 C 0.48864 0.96451 0.16195 0.0
C622 C 0.47515 0.92997 0.19297 0.0
C623 C 0.44478 0.9277 0.22652 0.0
O624 O 0.42035 0.87286 0.28281 0.0
O625 O 0.44142 0.91332 0.29904 0.0
O626 O 0.45591 0.9419 0.24572 0.0
O627 O 0.43553 0.90146 0.22945 0.0
H628 H 0.40317 0.92391 0.28617 0.0
H629 H 0.35883 0.91975 0.29368 0.0
H630 H 0.33266 0.8434 0.33049 0.0
H631 H 0.37757 0.8483 0.32379 0.0
H632 H 0.51756 0.86093 0.32555 0.0
H633 H 0.48693 0.87219 0.30338 0.0
H634 H 0.58376 0.9142 0.27884 0.0
H635 H 0.55355 0.92557 0.25739 0.0
H636 H 0.50074 0.93385 0.16331 0.0
H637 H 0.47209 0.99146 0.16589 0.0
H638 H 0.4475 0.97041 0.20278 0.0
H639 H 0.47618 0.91284 0.20042 0.0
C640 C 0.14915 0.52555 0.29704 0.0
C641 C 0.1464 0.50607 0.28031 0.0
C642 C 0.15205 0.47928 0.31139 0.0
C643 C 0.14796 0.48313 0.28743 0.0
C644 C 0.15505 0.49901 0.32797 0.0
C645 C 0.15367 0.52193 0.32085 0.0
U646 U 0.12403 0.5613 0.25511 0.0
O647 O 0.10492 0.586 0.26245 0.0
O648 O 0.14371 0.60401 0.24302 0.0
C649 C 0.12495 0.60807 0.25269 0.0
C650 C 0.14653 0.54927 0.29026 0.0
C651 C 0.13474 0.6331 0.26643 0.0
C652 C 0.15839 0.66121 0.30022 0.0
C653 C 0.15086 0.63797 0.28661 0.0
C654 C 0.13426 0.67511 0.27326 0.0
C655 C 0.14963 0.67969 0.29396 0.0
C656 C 0.12685 0.65197 0.25965 0.0
C657 C 0.0851 0.5276 0.19969 0.0
C658 C 0.05996 0.54524 0.17819 0.0
C659 C 0.07229 0.51486 0.15881 0.0
C660 C 0.08483 0.51321 0.17953 0.0
C661 C 0.0597 0.53083 0.15797 0.0
C662 C 0.07273 0.54377 0.19889 0.0
C663 C 0.09929 0.52648 0.22107 0.0
O664 O 0.15998 0.56266 0.27112 0.0
O665 O 0.12171 0.54544 0.29131 0.0
O666 O 0.08744 0.52571 0.24135 0.0
O667 O 0.12566 0.54349 0.22103 0.0
H668 H 0.14267 0.50841 0.26184 0.0
H669 H 0.14518 0.46803 0.27438 0.0
H670 H 0.15825 0.49654 0.34655 0.0
H671 H 0.15577 0.53669 0.33401 0.0
H672 H 0.17063 0.66448 0.31588 0.0
H673 H 0.15719 0.62361 0.29203 0.0
H674 H 0.1271 0.68889 0.2681 0.0
H675 H 0.11439 0.64846 0.24409 0.0
H676 H 0.05057 0.55783 0.17789 0.0
H677 H 0.07215 0.50339 0.14346 0.0
H678 H 0.09441 0.50079 0.17979 0.0
H679 H 0.07306 0.55535 0.21422 0.0
C680 C 0.39293 0.51833 0.30354 0.0
C681 C 0.38147 0.49546 0.28885 0.0
C682 C 0.34341 0.47176 0.31632 0.0
C683 C 0.3569 0.47241 0.29515 0.0
C684 C 0.35466 0.49492 0.33076 0.0
C685 C 0.37934 0.51804 0.32444 0.0
U686 U 0.45188 0.55495 0.26042 0.0
O687 O 0.47454 0.59771 0.24873 0.0
O688 O 0.49599 0.57927 0.26645 0.0
C689 C 0.49758 0.60156 0.25764 0.0
C690 C 0.41909 0.54235 0.29713 0.0
C691 C 0.51357 0.62651 0.27143 0.0
C692 C 0.51778 0.66462 0.29429 0.0
C693 C 0.50159 0.64016 0.28239 0.0
C694 C 0.55786 0.6616 0.28489 0.0
C695 C 0.54613 0.67574 0.2954 0.0
C696 C 0.54175 0.63734 0.27288 0.0
C697 C 0.45439 0.52335 0.20266 0.0
C698 C 0.49627 0.54064 0.17969 0.0
C699 C 0.45261 0.51397 0.16061 0.0
C700 C 0.43934 0.51131 0.18219 0.0
C701 C 0.48118 0.52876 0.15913 0.0
C702 C 0.48296 0.53818 0.20127 0.0
C703 C 0.44005 0.52133 0.22503 0.0
O704 O 0.4399 0.5382 0.29655 0.0
O705 O 0.41841 0.55646 0.2788 0.0
O706 O 0.4307 0.5383 0.22674 0.0
O707 O 0.45195 0.51971 0.24446 0.0
H708 H 0.39159 0.49543 0.27254 0.0
H709 H 0.34837 0.45506 0.28342 0.0
H710 H 0.3446 0.49495 0.3471 0.0
H711 H 0.38791 0.5356 0.33593 0.0
H712 H 0.50819 0.67496 0.30244 0.0
H713 H 0.47982 0.63209 0.28161 0.0
H714 H 0.5795 0.6691 0.28617 0.0
H715 H 0.55134 0.62701 0.26466 0.0
H716 H 0.51829 0.55197 0.17901 0.0
H717 H 0.44052 0.50407 0.14512 0.0
H718 H 0.41732 0.49989 0.1829 0.0
H719 H 0.49499 0.54793 0.21683 0.0
O720 O 0.50843 0.98035 0.94695 0.0
Mg721 Mg 0.53242 0.98185 0.97567 0.0
O722 O 0.50057 0.00774 0.96859 0.0
Mg723 Mg 0.5069 0.00288 0.00924 0.0
O724 O 0.51381 0.96521 0.00741 0.0
O725 O 0.53166 0.94665 0.98329 0.0
O726 O 0.51284 0.99721 0.05039 0.0
O727 O 0.46067 0.97053 0.01236 0.0
Mg728 Mg 0.48686 0.02333 0.04214 0.0
O729 O 0.49947 0.04077 0.00936 0.0
O730 O 0.51641 0.03289 0.0681 0.0
O731 O 0.45038 0.98528 0.04455 0.0
O732 O 0.47901 0.05375 0.03646 0.0
C733 C 0.57335 0.03697 0.99387 0.0
C734 C 0.50037 0.99739 0.94852 0.0
C735 C 0.51948 0.94606 1.0028 0.0
C736 C 0.51851 0.01181 0.06896 0.0
C737 C 0.44378 0.9673 0.02877 0.0
C738 C 0.49069 0.05701 0.01611 0.0
O739 O 0.56997 0.0179 0.98018 0.0
O740 O 0.55343 0.03533 0.00589 0.0
O741 O 0.0365 0.51185 0.95064 0.0
Mg742 Mg 0.03149 0.53955 0.97173 0.0
O743 O 0.99987 0.48651 0.97137 0.0
Mg744 Mg 0.00805 0.50131 0.0109 0.0
O745 O 0.04536 0.5453 1.00566 0.0
O746 O 0.06561 0.57627 0.97656 0.0
O747 O 0.01585 0.51583 0.05049 0.0
O748 O 0.0386 0.48598 0.01586 0.0
Mg749 Mg 0.98477 0.4606 0.05007 0.0
O750 O 0.97086 0.45751 0.01637 0.0
O751 O 0.9806 0.48812 0.07198 0.0
O752 O 0.02327 0.46221 0.04939 0.0
O753 O 0.95003 0.42469 0.04388 0.0
C754 C 0.97503 0.52851 0.98734 0.0
C755 C 0.01318 0.49101 0.95203 0.0
C756 C 0.06457 0.56913 0.99849 0.0
C757 C 1.00286 0.51018 0.07012 0.0
C758 C 0.0413 0.47288 0.03317 0.0
C759 C 0.95126 0.43343 0.02247 0.0
O760 O 0.99284 0.53753 0.97086 0.0
O761 O 0.97767 0.51681 1.00575 0.0
O762 O 0.51177 0.48437 0.07183 0.0
Mg763 Mg 0.48663 0.45769 0.04558 0.0
O764 O 0.51125 0.51606 0.04958 0.0
Mg765 Mg 0.50617 0.50454 0.00924 0.0
O766 O 0.50359 0.46223 0.01295 0.0
O767 O 0.49254 0.4263 0.03677 0.0
O768 O 0.5007 0.49312 0.96865 0.0
O769 O 0.55291 0.52318 1.00458 0.0
Mg770 Mg 0.52684 0.55284 0.97293 0.0
O771 O 0.50962 0.54695 1.00556 0.0
O772 O 0.50102 0.52589 0.94721 0.0
O773 O 0.56562 0.55592 0.97733 0.0
O774 O 0.52066 0.58388 0.98339 0.0
C775 C 0.44131 0.46694 0.02718 0.0
C776 C 0.51441 0.50777 0.06979 0.0
C777 C 0.50158 0.43858 0.01664 0.0
C778 C 0.49758 0.50212 0.94874 0.0
C779 C 0.57126 0.54185 0.99144 0.0
C780 C 0.51166 0.57073 1.00315 0.0
O781 O 0.4474 0.4531 0.04111 0.0
O782 O 0.45924 0.48599 0.01405 0.0
O783 O 0.17412 0.31146 0.2829 0.0
Mg784 Mg 0.19903 0.31914 0.31218 0.0
O785 O 0.16808 0.34108 0.30254 0.0
Mg786 Mg 0.17411 0.33524 0.34361 0.0
O787 O 0.18354 0.29834 0.34338 0.0
O788 O 0.20679 0.28876 0.31636 0.0
O789 O 0.17952 0.32797 0.38481 0.0
O790 O 0.12869 0.30109 0.34523 0.0
Mg791 Mg 0.15585 0.35242 0.37526 0.0
O792 O 0.16406 0.37212 0.3433 0.0
O793 O 0.18661 0.36561 0.40079 0.0
O794 O 0.12094 0.31322 0.37986 0.0
O795 O 0.14286 0.37932 0.37373 0.0
C796 C 0.2395 0.37359 0.32885 0.0
C797 C 0.16661 0.32892 0.28314 0.0
C798 C 0.19374 0.28341 0.3362 0.0
C799 C 0.18657 0.34346 0.40284 0.0
C800 C 0.11327 0.29613 0.36322 0.0
C801 C 0.15297 0.38533 0.35261 0.0
O802 O 0.23598 0.35596 0.31356 0.0
O803 O 0.21992 0.37003 0.34238 0.0
O804 O 0.69872 0.85398 0.28424 0.0
Mg805 Mg 0.69179 0.8747 0.31175 0.0
O806 O 0.66383 0.82489 0.30505 0.0
Mg807 Mg 0.6731 0.8368 0.34545 0.0
O808 O 0.71106 0.88262 0.34366 0.0
O809 O 0.72319 0.91258 0.31328 0.0
O810 O 0.68114 0.84814 0.38641 0.0
O811 O 0.70497 0.82276 0.34624 0.0
Mg812 Mg 0.65258 0.79606 0.37955 0.0
O813 O 0.63648 0.79132 0.34664 0.0
O814 O 0.64406 0.81818 0.40429 0.0
O815 O 0.69143 0.79856 0.37945 0.0
O816 O 0.62036 0.75843 0.37467 0.0
C817 C 0.63773 0.86479 0.32899 0.0
C818 C 0.67625 0.83214 0.28518 0.0
C819 C 0.72692 0.90685 0.3346 0.0
C820 C 0.6663 0.84024 0.40508 0.0
C821 C 0.70871 0.80945 0.36272 0.0
C822 C 0.61911 0.76657 0.35353 0.0
O823 O 0.655 0.8757 0.31236 0.0
O824 O 0.64065 0.8504 0.34491 0.0
O825 O 0.18676 0.82424 0.40143 0.0
Mg826 Mg 0.15642 0.79941 0.3773 0.0
O827 O 0.17573 0.85003 0.38129 0.0
Mg828 Mg 0.17026 0.8354 0.34142 0.0
O829 O 0.16566 0.79102 0.34468 0.0
O830 O 0.15329 0.76268 0.37609 0.0
O831 O 0.16479 0.82238 0.30127 0.0
O832 O 0.21674 0.85267 0.33703 0.0
Mg833 Mg 0.18948 0.88008 0.30325 0.0
O834 O 0.17537 0.87838 0.33668 0.0
O835 O 0.16019 0.85225 0.27987 0.0
O836 O 0.22732 0.88044 0.30583 0.0
O837 O 0.18687 0.91372 0.31224 0.0
C838 C 0.10833 0.8045 0.36272 0.0
C839 C 0.1843 0.84509 0.40051 0.0
C840 C 0.16031 0.7677 0.35408 0.0
C841 C 0.15904 0.82948 0.28155 0.0
C842 C 0.23392 0.86848 0.32145 0.0
C843 C 0.17857 0.90244 0.33282 0.0
O844 O 0.1174 0.79576 0.37905 0.0
O845 O 0.12363 0.81862 0.3455 0.0
O846 O 0.84239 0.64798 0.61177 0.0
Mg847 Mg 0.86534 0.64623 0.63997 0.0
O848 O 0.83298 0.6737 0.63444 0.0
Mg849 Mg 0.8395 0.66723 0.67483 0.0
O850 O 0.845 0.629 0.67088 0.0
O851 O 0.86169 0.60943 0.64676 0.0
O852 O 0.84531 0.65911 0.71513 0.0
O853 O 0.79308 0.63617 0.6787 0.0
Mg854 Mg 0.82172 0.68845 0.71068 0.0
O855 O 0.83354 0.70578 0.67777 0.0
O856 O 0.85142 0.69413 0.73558 0.0
O857 O 0.78398 0.65115 0.71154 0.0
O858 O 0.81845 0.72204 0.70688 0.0
C859 C 0.90649 0.70026 0.65993 0.0
C860 C 0.8336 0.66439 0.61402 0.0
C861 C 0.84942 0.60904 0.66617 0.0
C862 C 0.85162 0.67205 0.73464 0.0
C863 C 0.77662 0.63336 0.69542 0.0
C864 C 0.82764 0.72384 0.68562 0.0
O865 O 0.90334 0.68124 0.64627 0.0
O866 O 0.8863 0.69881 0.67135 0.0
O867 O 0.36438 0.18828 0.61531 0.0
Mg868 Mg 0.36522 0.21367 0.64268 0.0
O869 O 0.33363 0.15591 0.638 0.0
Mg870 Mg 0.34125 0.16687 0.67836 0.0
O871 O 0.3795 0.21045 0.67483 0.0
O872 O 0.40189 0.24646 0.65049 0.0
O873 O 0.34915 0.17919 0.71899 0.0
O874 O 0.3718 0.15107 0.68004 0.0
Mg875 Mg 0.32023 0.12638 0.71298 0.0
O876 O 0.30279 0.12214 0.68056 0.0
O877 O 0.31357 0.14889 0.73855 0.0
O878 O 0.35764 0.12609 0.71269 0.0
O879 O 0.28701 0.08954 0.70887 0.0
C880 C 0.31052 0.20172 0.66329 0.0
C881 C 0.34415 0.16458 0.61753 0.0
C882 C 0.40001 0.23473 0.67066 0.0
C883 C 0.33521 0.17154 0.73816 0.0
C884 C 0.37498 0.13692 0.69604 0.0
C885 C 0.28489 0.09776 0.68802 0.0
O886 O 0.32962 0.21619 0.64877 0.0
O887 O 0.31092 0.18315 0.676 0.0
O888 O 0.8488 0.153 0.73792 0.0
Mg889 Mg 0.82239 0.12783 0.71158 0.0
O890 O 0.84733 0.18451 0.71638 0.0
Mg891 Mg 0.84213 0.17246 0.676 0.0
O892 O 0.83817 0.12914 0.67892 0.0
O893 O 0.82506 0.09432 0.70469 0.0
O894 O 0.83625 0.15996 0.63546 0.0
O895 O 0.88862 0.18851 0.67261 0.0
Mg896 Mg 0.86382 0.21629 0.64127 0.0
O897 O 0.847 0.21646 0.67326 0.0
O898 O 0.83746 0.19308 0.61434 0.0
O899 O 0.90241 0.21895 0.64358 0.0
O900 O 0.86347 0.2511 0.64697 0.0
C901 C 0.77752 0.13776 0.69409 0.0
C902 C 0.85138 0.17637 0.73631 0.0
C903 C 0.83463 0.10513 0.68416 0.0
C904 C 0.83295 0.16898 0.61567 0.0
C905 C 0.90733 0.20524 0.65862 0.0
C906 C 0.85203 0.24083 0.66715 0.0
O907 O 0.78352 0.12424 0.70846 0.0
O908 O 0.7954 0.15571 0.68017 0.0
C909 C 0.37661 0.91252 0.05461 0.0
C910 C 0.36378 0.89507 0.03544 0.0
C911 C 0.40235 0.93565 0.05212 0.0
C912 C 0.41659 0.94234 0.03038 0.0
H913 H 0.3668 0.90812 0.07186 0.0
H914 H 0.41125 0.94824 0.06757 0.0
S915 S 0.39164 0.90393 0.97434 0.0
N916 N 0.36688 0.8865 0.99366 0.0
N917 N 0.41567 0.92983 0.98909 0.0
C918 C 0.4041 0.92507 0.011 0.0
C919 C 0.37765 0.9015 0.01351 0.0
C920 C 0.10371 0.4681 0.01635 0.0
C921 C 0.11353 0.46547 0.03853 0.0
C922 C 0.0805 0.47084 0.01466 0.0
C923 C 0.06623 0.47084 0.0351 0.0
H924 H 0.11369 0.46743 1.00018 0.0
H925 H 0.07334 0.47236 0.99723 0.0
S926 S 0.08593 0.46848 0.09745 0.0
N927 N 0.10887 0.46591 0.08137 0.0
N928 N 0.06515 0.47061 0.07825 0.0
C929 C 0.07644 0.4692 0.05739 0.0
C930 C 0.1001 0.46663 0.0591 0.0
C931 C 0.49643 0.61945 0.03505 0.0
C932 C 0.51446 0.62745 0.05431 0.0
C933 C 0.49353 0.59887 0.01967 0.0
C934 C 0.50823 0.58526 0.02318 0.0
H935 H 0.48551 0.63014 0.03112 0.0
H936 H 0.48092 0.59468 1.00411 0.0
S937 S 0.55686 0.59719 0.07157 0.0
N938 N 0.54619 0.61899 0.07668 0.0
N939 N 0.54053 0.58022 0.04771 0.0
C940 C 0.52498 0.59175 0.04314 0.0
C941 C 0.52809 0.61283 0.05879 0.0
C942 C 0.88623 0.37595 0.99792 0.0
C943 C 0.89463 0.3705 0.97616 0.0
C944 C 0.90442 0.39751 0.01216 0.0
C945 C 0.9316 0.41463 1.00507 0.0
H946 H 0.86561 0.36298 1.00429 0.0
H947 H 0.89738 0.4003 0.02922 0.0
S948 S 0.96404 0.40871 0.95009 0.0
N949 N 0.93211 0.3839 0.94834 0.0
N950 N 0.96617 0.42467 0.97508 0.0
C951 C 0.94008 0.41007 0.98303 0.0
C952 C 0.92161 0.38794 0.96858 0.0
C953 C 0.62944 0.52691 0.99501 0.0
C954 C 0.65152 0.55073 0.98543 0.0
C955 C 0.60376 0.52455 0.99782 0.0
C956 C 0.59921 0.54593 0.9911 0.0
H957 H 0.63179 0.50962 0.99966 0.0
H958 H 0.58714 0.50546 1.00448 0.0
S959 S 0.65136 0.61392 0.96815 0.0
N960 N 0.66789 0.59705 0.97147 0.0
N961 N 0.61971 0.59264 0.97649 0.0
C962 C 0.62148 0.57029 0.98248 0.0
C963 C 0.64758 0.57268 0.9797 0.0
C964 C 0.46896 0.10127 0.98394 0.0
C965 C 0.49381 0.1251 0.97909 0.0
C966 C 0.46826 0.07856 0.99465 0.0
C967 C 0.49235 0.07862 1.00041 0.0
H968 H 0.44987 0.10069 0.98068 0.0
H969 H 0.4487 0.06118 0.99934 0.0
S970 S 0.56262 0.13463 0.9892 0.0
N971 N 0.54317 0.14658 0.9793 0.0
N972 N 0.54166 0.10348 0.99916 0.0
C973 C 0.51731 0.10155 0.9944 0.0
C974 C 0.51809 0.12494 0.98383 0.0
C975 C 0.62775 0.11184 0.99385 0.0
C976 C 0.65113 0.11108 0.98662 0.0
C977 C 0.6028 0.0877 0.99756 0.0
C978 C 0.60043 0.06203 0.99409 0.0
H979 H 0.62845 0.13119 0.99569 0.0
H980 H 0.58503 0.08921 1.00203 0.0
S981 S 0.65667 0.04907 0.97906 0.0
N982 N 0.67105 0.08259 0.97902 0.0
N983 N 0.62435 0.03738 0.98572 0.0
C984 C 0.62407 0.06108 0.98828 0.0
C985 C 0.64936 0.08555 0.98458 0.0
C986 C 0.91817 0.54415 0.99786 0.0
C987 C 0.90509 0.53806 0.97574 0.0
C988 C 0.94022 0.53993 1.00205 0.0
C989 C 0.95023 0.53028 0.98397 0.0
H990 H 0.91156 0.55257 0.01184 0.0
H991 H 0.95014 0.54524 0.01914 0.0
S992 S 0.9225 0.5105 0.92334 0.0
N993 N 0.90315 0.52101 0.93596 0.0
N994 N 0.94476 0.51363 0.94364 0.0
C995 C 0.93695 0.52363 0.96201 0.0
C996 C 0.91433 0.5274 0.95793 0.0
C997 C 0.48694 0.39462 0.96307 0.0
C998 C 0.50106 0.38064 0.96825 0.0
C999 C 0.48937 0.41571 0.97763 0.0
C1000 C 0.50605 0.42352 0.99773 0.0
H1001 H 0.47259 0.3881 0.94859 0.0
H1002 H 0.47661 0.42454 0.97413 0.0
S1003 S 0.55034 0.3964 0.01701 0.0
N1004 N 0.5349 0.3786 0.99321 0.0
N1005 N 0.53883 0.41774 0.02084 0.0
C1006 C 0.52165 0.41107 1.00214 0.0
C1007 C 0.51935 0.38977 0.98731 0.0
C1008 C 0.1281 0.63027 0.02127 0.0
C1009 C 0.11959 0.63537 0.04312 0.0
C1010 C 0.11053 0.60783 0.00755 0.0
C1011 C 0.08388 0.58946 0.01525 0.0
H1012 H 0.14831 0.64413 0.01444 0.0
H1013 H 0.11763 0.60525 0.99044 0.0
S1014 S 0.05139 0.59393 0.0708 0.0
N1015 N 0.08258 0.62029 0.07172 0.0
N1016 N 0.0497 0.57786 0.046 0.0
C1017 C 0.07535 0.59374 0.03739 0.0
C1018 C 0.09318 0.61676 0.05132 0.0
C1019 C 0.38207 0.4779 0.03971 0.0
C1020 C 0.3603 0.45095 0.04199 0.0
C1021 C 0.40814 0.48327 0.03281 0.0
C1022 C 0.41317 0.46183 0.02813 0.0
H1023 H 0.37939 0.49482 0.04476 0.0
H1024 H 0.4248 0.50413 0.03284 0.0
S1025 S 0.36217 0.38821 0.02726 0.0
N1026 N 0.34477 0.40302 0.03552 0.0
N1027 N 0.39382 0.41311 0.02331 0.0
C1028 C 0.39119 0.43505 0.02858 0.0
C1029 C 0.36472 0.42961 0.0353 0.0
C1030 C 0.4938 0.87558 0.0267 0.0
C1031 C 0.51555 0.87904 0.04111 0.0
C1032 C 0.49355 0.89798 0.01621 0.0
C1033 C 0.51477 0.92463 0.0201 0.0
H1034 H 0.47751 0.8553 0.02252 0.0
H1035 H 0.47759 0.89432 1.00374 0.0
S1036 S 0.57553 0.94522 0.05728 0.0
N1037 N 0.55829 0.91165 0.05947 0.0
N1038 N 0.55728 0.95361 0.0401 0.0
C1039 C 0.53565 0.92859 0.03564 0.0
C1040 C 0.53614 0.90583 0.04614 0.0
C1041 C 0.04872 0.23935 0.39101 0.0
C1042 C 0.03466 0.22265 0.37176 0.0
C1043 C 0.0741 0.26279 0.38794 0.0
C1044 C 0.08668 0.27058 0.36548 0.0
H1045 H 0.0401 0.23418 0.40873 0.0
H1046 H 0.08395 0.27485 0.40345 0.0
S1047 S 0.0583 0.23402 0.30912 0.0
N1048 N 0.03499 0.21562 0.32929 0.0
N1049 N 0.08311 0.25961 0.32354 0.0
C1050 C 0.07307 0.25391 0.34604 0.0
C1051 C 0.047 0.22998 0.34917 0.0
C1052 C 0.76464 0.79771 0.38593 0.0
C1053 C 0.78038 0.80066 0.36566 0.0
C1054 C 0.7417 0.80074 0.38469 0.0
C1055 C 0.73355 0.80705 0.36313 0.0
H1056 H 0.77013 0.79307 0.40301 0.0
H1057 H 0.73034 0.79822 0.40088 0.0
S1058 S 0.7676 0.81661 0.30474 0.0
N1059 N 0.78609 0.80992 0.32324 0.0
N1060 N 0.7431 0.81616 0.32094 0.0
C1061 C 0.7493 0.81047 0.34272 0.0
C1062 C 0.77268 0.80717 0.34397 0.0
C1063 C 0.16607 0.95447 0.36252 0.0
C1064 C 0.18216 0.96086 0.38301 0.0
C1065 C 0.16333 0.93394 0.34717 0.0
C1066 C 0.17622 0.91875 0.35191 0.0
H1067 H 0.15636 0.96615 0.35783 0.0
H1068 H 0.15198 0.93068 0.33093 0.0
S1069 S 0.2207 0.92736 0.40296 0.0
N1070 N 0.21105 0.95009 0.40724 0.0
N1071 N 0.2055 0.91125 0.37843 0.0
C1072 C 0.19132 0.92398 0.37282 0.0
C1073 C 0.19436 0.94509 0.38839 0.0
C1074 C 0.55609 0.70415 0.33172 0.0
C1075 C 0.5634 0.70127 0.30854 0.0
C1076 C 0.57376 0.72627 0.34571 0.0
C1077 C 0.59923 0.74647 0.33697 0.0
H1078 H 0.53718 0.68852 0.33953 0.0
H1079 H 0.56781 0.72707 0.36383 0.0
S1080 S 0.62745 0.749 0.27706 0.0
N1081 N 0.59715 0.7213 0.27695 0.0
N1082 N 0.63067 0.7625 0.30356 0.0
C1083 C 0.60631 0.7445 0.3135 0.0
C1084 C 0.58833 0.72195 0.29922 0.0
C1085 C 0.30211 0.88298 0.29664 0.0
C1086 C 0.31473 0.87815 0.31603 0.0
C1087 C 0.2762 0.88004 0.29875 0.0
C1088 C 0.26161 0.87192 0.32032 0.0
H1089 H 0.31218 0.88874 0.2795 0.0
H1090 H 0.26739 0.88375 0.28315 0.0
S1091 S 0.28601 0.85806 0.37686 0.0
N1092 N 0.31113 0.86597 0.35787 0.0
N1093 N 0.26204 0.8598 0.36171 0.0
C1094 C 0.27395 0.86706 0.33992 0.0
C1095 C 0.30055 0.87031 0.33781 0.0
C1096 C 0.13396 0.4391 0.33853 0.0
C1097 C 0.15144 0.45406 0.31973 0.0
C1098 C 0.13412 0.41646 0.34828 0.0
C1099 C 0.15187 0.40776 0.33978 0.0
H1100 H 0.12019 0.44517 0.34599 0.0
H1101 H 0.12039 0.40596 0.36297 0.0
S1102 S 0.20131 0.43963 0.29025 0.0
N1103 N 0.18649 0.4583 0.29233 0.0
N1104 N 0.18702 0.41566 0.31089 0.0
C1105 C 0.16894 0.42203 0.32044 0.0
C1106 C 0.16867 0.44518 0.31037 0.0
C1107 C 0.29413 0.44815 0.32855 0.0
C1108 C 0.31767 0.44682 0.32306 0.0
C1109 C 0.26886 0.4243 0.332 0.0
C1110 C 0.26646 0.39847 0.32996 0.0
H1111 H 0.295 0.46768 0.32907 0.0
H1112 H 0.25093 0.42606 0.33493 0.0
S1113 S 0.32272 0.38415 0.32003 0.0
N1114 N 0.33749 0.41769 0.31893 0.0
N1115 N 0.29014 0.37302 0.325 0.0
C1116 C 0.29014 0.39699 0.32603 0.0
C1117 C 0.31573 0.42113 0.32268 0.0
C1118 C 0.59843 0.9013 0.32166 0.0
C1119 C 0.57217 0.88004 0.31617 0.0
C1120 C 0.61919 0.89595 0.32773 0.0
C1121 C 0.6143 0.86915 0.32911 0.0
H1122 H 0.60342 0.92235 0.31983 0.0
H1123 H 0.63958 0.91297 0.33012 0.0
S1124 S 0.54865 0.80609 0.31918 0.0
N1125 N 0.54198 0.83096 0.31434 0.0
N1126 N 0.58107 0.821 0.32663 0.0
C1127 C 0.58773 0.84759 0.3257 0.0
C1128 C 0.56657 0.85301 0.31909 0.0
C1129 C 0.16423 0.72898 0.30063 0.0
C1130 C 0.15457 0.70252 0.30982 0.0
C1131 C 0.16689 0.75021 0.31516 0.0
C1132 C 0.15985 0.74575 0.33938 0.0
H1133 H 0.1695 0.73323 0.282 0.0
H1134 H 0.17401 0.77011 0.30722 0.0
S1135 S 0.13279 0.67967 0.37183 0.0
N1136 N 0.13744 0.67284 0.34442 0.0
N1137 N 0.14274 0.71244 0.37182 0.0
C1138 C 0.15052 0.71934 0.3488 0.0
C1139 C 0.1478 0.69783 0.33401 0.0
C1140 C 0.78238 0.94444 0.38026 0.0
C1141 C 0.78953 0.97175 0.37622 0.0
C1142 C 0.76197 0.9233 0.36686 0.0
C1143 C 0.74827 0.92892 0.34891 0.0
H1144 H 0.79272 0.93949 0.39383 0.0
H1145 H 0.75711 0.90252 0.37036 0.0
S1146 S 0.75869 0.99711 0.33234 0.0
N1147 N 0.78074 0.0032 0.35373 0.0
N1148 N 0.74281 0.96386 0.32838 0.0
C1149 C 0.75536 0.95625 0.34476 0.0
C1150 C 0.77592 0.97758 0.35843 0.0
C1151 C 0.04715 0.81345 0.37165 0.0
C1152 C 0.02699 0.787 0.37863 0.0
C1153 C 0.07322 0.81889 0.3646 0.0
C1154 C 0.07981 0.79804 0.36447 0.0
H1155 H 0.04328 0.83027 0.37302 0.0
H1156 H 0.08875 0.83974 0.36079 0.0
S1157 S 0.03299 0.72478 0.377 0.0
N1158 N 0.01438 0.73928 0.3816 0.0
N1159 N 0.06341 0.74967 0.36903 0.0
C1160 C 0.05929 0.77132 0.36971 0.0
C1161 C 0.03284 0.76574 0.3766 0.0
C1162 C 0.21277 0.23303 0.36009 0.0
C1163 C 0.18894 0.21333 0.37152 0.0
C1164 C 0.21437 0.25631 0.34991 0.0
C1165 C 0.19221 0.26091 0.35075 0.0
H1166 H 0.23013 0.23004 0.35841 0.0
H1167 H 0.23294 0.27049 0.34066 0.0
S1168 S 0.12546 0.21607 0.37944 0.0
N1169 N 0.14295 0.20028 0.38401 0.0
N1170 N 0.14602 0.24443 0.36475 0.0
C1171 C 0.16865 0.24209 0.36312 0.0
C1172 C 0.16699 0.21817 0.37353 0.0
C1173 C 0.70937 0.579 0.72173 0.0
C1174 C 0.69668 0.56098 0.70287 0.0
C1175 C 0.73495 0.60232 0.71894 0.0
C1176 C 0.74915 0.60869 0.69717 0.0
H1177 H 0.69968 0.5748 0.73902 0.0
H1178 H 0.74384 0.61522 0.73422 0.0
S1179 S 0.72423 0.56901 0.64173 0.0
N1180 N 0.69967 0.55173 0.66125 0.0
N1181 N 0.74811 0.59541 0.6561 0.0
C1182 C 0.73665 0.59099 0.67804 0.0
C1183 C 0.71039 0.56722 0.68086 0.0
C1184 C 0.42905 0.12145 0.71781 0.0
C1185 C 0.44629 0.12734 0.69803 0.0
C1186 C 0.40609 0.12449 0.71683 0.0
C1187 C 0.3994 0.13372 0.69605 0.0
H1188 H 0.43349 0.11469 0.73437 0.0
H1189 H 0.39368 0.11983 0.73268 0.0
S1190 S 0.43745 0.15108 0.63899 0.0
N1191 N 0.45476 0.14209 0.65677 0.0
N1192 N 0.41176 0.14832 0.65498 0.0
C1193 C 0.41649 0.13975 0.67608 0.0
C1194 C 0.43988 0.13648 0.67706 0.0
C1195 C 0.85299 0.27687 0.72378 0.0
C1196 C 0.85216 0.29989 0.7152 0.0
C1197 C 0.85083 0.25652 0.70834 0.0
C1198 C 0.84787 0.25855 0.6838 0.0
H1199 H 0.85641 0.27511 0.74244 0.0
H1200 H 0.8533 0.24012 0.71547 0.0
S1201 S 0.84216 0.31341 0.65261 0.0
N1202 N 0.84657 0.32255 0.6807 0.0
N1203 N 0.84182 0.28413 0.6519 0.0
C1204 C 0.84532 0.28057 0.67523 0.0
C1205 C 0.8476 0.30126 0.69088 0.0
C1206 C 0.25081 0.05535 0.63384 0.0
C1207 C 0.22639 0.03385 0.64327 0.0
C1208 C 0.26904 0.07701 0.6481 0.0
C1209 C 0.26344 0.07798 0.67222 0.0
H1210 H 0.25628 0.05498 0.61549 0.0
H1211 H 0.28832 0.09218 0.64051 0.0
S1212 S 0.20186 0.02761 0.70528 0.0
N1213 N 0.19734 0.01545 0.67814 0.0
N1214 N 0.23121 0.05644 0.70467 0.0
C1215 C 0.2386 0.05727 0.6816 0.0
C1216 C 0.22013 0.03519 0.66717 0.0
C1217 C 0.98181 0.2318 0.64434 0.0
C1218 C 0.98644 0.21116 0.65304 0.0
C1219 C 0.95647 0.23008 0.64701 0.0
C1220 C 0.93464 0.20767 0.65854 0.0
H1221 H 0.99787 0.24937 0.63517 0.0
H1222 H 0.9539 0.24634 0.6396 0.0
S1223 S 0.93617 0.14805 0.68454 0.0
N1224 N 0.96714 0.16757 0.67372 0.0
N1225 N 0.9195 0.16441 0.67899 0.0
C1226 C 0.93916 0.18716 0.66789 0.0
C1227 C 0.96504 0.18889 0.66508 0.0
C1228 C 0.84553 0.79474 0.66747 0.0
C1229 C 0.82551 0.79017 0.65053 0.0
C1230 C 0.84755 0.7731 0.67741 0.0
C1231 C 0.83 0.74615 0.67048 0.0
H1232 H 0.8591 0.81514 0.67379 0.0
H1233 H 0.86213 0.77736 0.69143 0.0
S1234 S 0.77497 0.72298 0.62618 0.0
N1235 N 0.78835 0.75642 0.62671 0.0
N1236 N 0.79266 0.71585 0.64524 0.0
C1237 C 0.81087 0.74128 0.65274 0.0
C1238 C 0.80856 0.7633 0.64272 0.0
C1239 C 0.96082 0.77514 0.66006 0.0
C1240 C 0.98436 0.77442 0.65331 0.0
C1241 C 0.93585 0.75099 0.66363 0.0
C1242 C 0.9336 0.72531 0.66052 0.0
H1243 H 0.96142 0.79448 0.66157 0.0
H1244 H 0.91797 0.7525 0.66765 0.0
S1245 S 0.99022 0.71245 0.64692 0.0
N1246 N 1.00452 0.74597 0.64664 0.0
N1247 N 0.95777 0.70072 0.65308 0.0
C1248 C 0.95738 0.7244 0.65525 0.0
C1249 C 0.9827 0.7489 0.65168 0.0
C1250 C 0.27012 0.23738 0.65721 0.0
C1251 C 0.24416 0.21604 0.65104 0.0
C1252 C 0.29109 0.23229 0.6631 0.0
C1253 C 0.28676 0.20564 0.66357 0.0
H1254 H 0.27473 0.25836 0.65606 0.0
H1255 H 0.31125 0.24946 0.66608 0.0
S1256 S 0.22192 0.14233 0.65161 0.0
N1257 N 0.21477 0.16699 0.64762 0.0
N1258 N 0.2542 0.15743 0.65953 0.0
C1259 C 0.2604 0.1839 0.65953 0.0
C1260 C 0.23904 0.1891 0.6531 0.0
C1261 C 0.82308 0.06177 0.63034 0.0
C1262 C 0.83228 0.04409 0.63825 0.0
C1263 C 0.82637 0.08366 0.64431 0.0
C1264 C 0.83883 0.08842 0.66661 0.0
H1265 H 0.81166 0.05761 0.61404 0.0
H1266 H 0.81718 0.09547 0.63849 0.0
S1267 S 0.87124 0.05175 0.69316 0.0
N1268 N 0.85828 0.03578 0.66802 0.0
N1269 N 0.86372 0.07634 0.69446 0.0
C1270 C 0.85014 0.07243 0.67372 0.0
C1271 C 0.84704 0.05039 0.65949 0.0
C1272 C 0.46556 0.28816 0.69723 0.0
C1273 C 0.45669 0.2954 0.7178 0.0
C1274 C 0.44731 0.26648 0.6831 0.0
C1275 C 0.4196 0.25101 0.68917 0.0
H1276 H 0.48653 0.30018 0.69138 0.0
H1277 H 0.45463 0.26278 0.66657 0.0
S1278 S 0.38604 0.26102 0.74142 0.0
N1279 N 0.41834 0.28472 0.74388 0.0
N1280 N 0.38419 0.24377 0.71734 0.0
C1281 C 0.41071 0.25687 0.71039 0.0
C1282 C 0.42924 0.27913 0.72473 0.0
C1283 C 0.70202 0.10194 0.70511 0.0
C1284 C 0.69725 0.12356 0.70981 0.0
C1285 C 0.72777 0.1068 0.69821 0.0
C1286 C 0.74967 0.13347 0.69535 0.0
H1287 H 0.68601 0.08104 0.7079 0.0
H1288 H 0.73089 0.08956 0.69617 0.0
S1289 S 0.74766 0.19723 0.70366 0.0
N1290 N 0.71634 0.17272 0.70981 0.0
N1291 N 0.76473 0.18179 0.69624 0.0
C1292 C 0.74485 0.15529 0.6983 0.0
C1293 C 0.7186 0.15035 0.70566 0.0
C1294 C 0.82766 0.53807 0.68646 0.0
C1295 C 0.84415 0.54244 0.70644 0.0
C1296 C 0.82718 0.55974 0.67484 0.0
C1297 C 0.84276 0.58655 0.68298 0.0
H1298 H 0.81622 0.51792 0.67891 0.0
H1299 H 0.81593 0.55575 0.65845 0.0
S1300 S 0.88723 0.60888 0.7357 0.0
N1301 N 0.87484 0.57559 0.73492 0.0
N1302 N 0.87363 0.61628 0.713 0.0
C1303 C 0.85763 0.59104 0.70394 0.0
C1304 C 0.85833 0.56896 0.71575 0.0
C1305 C 0.49651 0.96018 0.11883 0.0
C1306 C 0.50231 0.97669 0.13896 0.0
C1307 C 0.50451 0.97176 0.09606 0.0
C1308 C 0.51848 1.00024 0.09267 0.0
H1309 H 0.48405 0.93825 0.12049 0.0
H1310 H 0.4977 0.95827 0.08096 0.0
S1311 S 0.5439 0.05203 0.1402 0.0
N1312 N 0.52687 0.02262 0.15447 0.0
N1313 N 0.54177 0.04444 0.11177 0.0
C1314 C 0.52682 0.0168 0.11291 0.0
C1315 C 0.51869 0.00502 0.13603 0.0
C1316 C 0.05989 0.53754 0.1142 0.0
C1317 C 0.04591 0.53164 0.13597 0.0
C1318 C 0.04615 0.53337 0.0927 0.0
C1319 C 0.0178 0.52282 0.0922 0.0
H1320 H 0.08139 0.54411 0.11377 0.0
H1321 H 0.05754 0.53644 0.07643 0.0
S1322 S 0.97259 0.50781 0.14449 0.0
N1323 N 1.00287 0.51772 0.1559 0.0
N1324 N 0.97688 0.50976 0.11542 0.0
C1325 C 1.00403 0.51905 0.1139 0.0
C1326 C 0.01812 0.52348 0.13582 0.0
C1327 C 0.51342 0.52051 0.13516 0.0
C1328 C 0.49492 0.53014 0.13635 0.0
C1329 C 0.52203 0.51589 0.11323 0.0
C1330 C 0.51262 0.52095 0.09177 0.0
H1331 H 0.5197 0.51463 0.15122 0.0
H1332 H 0.53465 0.50654 0.11309 0.0
S1333 S 0.46722 0.55028 0.0856 0.0
N1334 N 0.47032 0.548 0.11451 0.0
N1335 N 0.48585 0.53873 0.07328 0.0
C1336 C 0.49602 0.53287 0.09283 0.0
C1337 C 0.48727 0.53754 0.11514 0.0
C1338 C 0.95614 0.46658 0.90794 0.0
C1339 C 0.96999 0.47247 0.88612 0.0
C1340 C 0.96985 0.46986 0.92933 0.0
C1341 C 0.99807 0.47955 0.92971 0.0
H1342 H 0.9348 0.46067 0.90852 0.0
H1343 H 0.95855 0.4667 0.94568 0.0
S1344 S 0.04268 0.49403 0.87703 0.0
N1345 N 0.01256 0.48531 0.86585 0.0
N1346 N 0.03858 0.49174 0.90613 0.0
C1347 C 0.01163 0.48333 0.90787 0.0
C1348 C 0.99754 0.47975 0.88605 0.0
C1349 C 0.49596 0.49083 0.88293 0.0
C1350 C 0.51173 0.47818 0.88056 0.0
C1351 C 0.48877 0.49583 0.90535 0.0
C1352 C 0.4973 0.48859 0.92624 0.0
H1353 H 0.49038 0.49823 0.86737 0.0
H1354 H 0.47809 0.50717 0.90631 0.0
S1355 S 0.53706 0.45285 0.92941 0.0
N1356 N 0.53373 0.45645 0.90074 0.0
N1357 N 0.5207 0.46623 0.94292 0.0
C1358 C 0.51127 0.474 0.92403 0.0
C1359 C 0.51844 0.46876 0.90115 0.0
C1360 C 0.49111 0.00539 0.88312 0.0
C1361 C 0.49777 0.03278 0.88119 0.0
C1362 C 0.49018 0.99353 0.90523 0.0
C1363 C 0.49558 0.00851 0.92632 0.0
H1364 H 0.4879 0.9934 0.86732 0.0
H1365 H 0.48628 0.97276 0.9057 0.0
S1366 S 0.51059 0.08005 0.93097 0.0
N1367 N 0.50735 0.07387 0.90223 0.0
N1368 N 0.50543 0.05161 0.94391 0.0
C1369 C 0.50048 0.03542 0.92474 0.0
C1370 C 0.50173 0.04758 0.90214 0.0
C1371 C 0.17835 0.33626 0.46939 0.0
C1372 C 0.16881 0.3084 0.47321 0.0
C1373 C 0.18684 0.34812 0.44686 0.0
C1374 C 0.18573 0.33249 0.4271 0.0
H1375 H 0.17807 0.34874 0.48372 0.0
H1376 H 0.19253 0.36933 0.44471 0.0
S1377 S 0.16674 0.25956 0.42871 0.0
N1378 N 0.16208 0.26621 0.45623 0.0
N1379 N 0.17792 0.28839 0.41372 0.0
C1380 C 0.17858 0.30513 0.43116 0.0
C1381 C 0.17009 0.29309 0.45425 0.0
C1382 C 0.67323 0.84347 0.47179 0.0
C1383 C 0.70138 0.86007 0.4749 0.0
C1384 C 0.66164 0.83937 0.44921 0.0
C1385 C 0.67784 0.85132 0.42879 0.0
H1386 H 0.66024 0.8326 0.48678 0.0
H1387 H 0.64002 0.82527 0.44767 0.0
S1388 S 0.75236 0.89909 0.42815 0.0
N1389 N 0.74488 0.89063 0.45633 0.0
N1390 N 0.72328 0.8829 0.41378 0.0
C1391 C 0.70577 0.86971 0.432 0.0
C1392 C 0.7175 0.87402 0.45508 0.0
C1393 C 0.15397 0.87037 0.44634 0.0
C1394 C 0.16291 0.86467 0.46771 0.0
C1395 C 0.1633 0.86671 0.42442 0.0
C1396 C 0.18166 0.85685 0.42308 0.0
H1397 H 0.13866 0.87645 0.44655 0.0
H1398 H 0.15447 0.86972 0.40848 0.0
S1399 S 0.2141 0.84266 0.47403 0.0
N1400 N 0.19338 0.85167 0.48632 0.0
N1401 N 0.21093 0.8447 0.44509 0.0
C1402 C 0.19244 0.85326 0.44436 0.0
C1403 C 0.18305 0.85718 0.4667 0.0
C1404 C 0.66221 0.82127 0.21938 0.0
C1405 C 0.63432 0.81259 0.21838 0.0
C1406 C 0.67545 0.82558 0.24127 0.0
C1407 C 0.66115 0.82105 0.26282 0.0
H1408 H 0.67415 0.82631 0.2032 0.0
H1409 H 0.69727 0.83385 0.2413 0.0
S1410 S 0.58691 0.79476 0.26929 0.0
N1411 N 0.59225 0.79685 0.24038 0.0
N1412 N 0.61688 0.80514 0.2815 0.0
C1413 C 0.63281 0.81051 0.26189 0.0
C1414 C 0.61946 0.80625 0.23965 0.0
C1415 C 0.18696 0.80159 0.23607 0.0
C1416 C 0.17859 0.80792 0.21467 0.0
C1417 C 0.17788 0.80564 0.25798 0.0
C1418 C 0.16043 0.81656 0.25926 0.0
H1419 H 0.20179 0.79487 0.23589 0.0
H1420 H 0.18658 0.80249 0.27393 0.0
S1421 S 0.12964 0.83278 0.20825 0.0
N1422 N 0.14947 0.82261 0.19599 0.0
N1423 N 0.13253 0.83042 0.2372 0.0
C1424 C 0.15012 0.82073 0.23795 0.0
C1425 C 0.15919 0.81639 0.21563 0.0
C1426 C 0.16773 0.37732 0.23585 0.0
C1427 C 0.16481 0.36287 0.21485 0.0
C1428 C 0.16621 0.36545 0.25815 0.0
C1429 C 0.16179 0.33876 0.26021 0.0
H1430 H 0.1725 0.39836 0.23503 0.0
H1431 H 0.17004 0.37781 0.27377 0.0
S1432 S 0.14776 0.29079 0.21064 0.0
N1433 N 0.15356 0.31938 0.19756 0.0
N1434 N 0.15084 0.29707 0.23935 0.0
C1435 C 0.15681 0.32348 0.23936 0.0
C1436 C 0.15836 0.33556 0.21672 0.0
C1437 C 0.85114 0.6607 0.8007 0.0
C1438 C 0.83333 0.63249 0.80296 0.0
C1439 C 0.85931 0.67318 0.7783 0.0
C1440 C 0.85005 0.65789 0.75735 0.0
H1441 H 0.85724 0.67351 0.81624 0.0
H1442 H 0.87146 0.6952 0.7774 0.0
S1443 S 0.80694 0.58259 0.75404 0.0
N1444 N 0.80984 0.5891 0.78271 0.0
N1445 N 0.82468 0.61243 0.74059 0.0
C1446 C 0.83428 0.62932 0.75951 0.0
C1447 C 0.82597 0.61666 0.78233 0.0
C1448 C 0.38881 0.20439 0.78534 0.0
C1449 C 0.37327 0.19525 0.80632 0.0
C1450 C 0.37626 0.19878 0.7631 0.0
C1451 C 0.34772 0.18408 0.7611 0.0
H1452 H 0.41079 0.21422 0.78603 0.0
H1453 H 0.38907 0.20429 0.74743 0.0
S1454 S 0.29815 0.16058 0.81103 0.0
N1455 N 0.32815 0.1743 0.82398 0.0
N1456 N 0.30443 0.16412 0.78222 0.0
C1457 C 0.33206 0.17716 0.78208 0.0
C1458 C 0.34486 0.18262 0.80468 0.0
C1459 C 0.82391 0.20533 0.78119 0.0
C1460 C 0.83177 0.1988 0.80276 0.0
C1461 C 0.83296 0.20086 0.75944 0.0
C1462 C 0.84996 0.18938 0.75851 0.0
H1463 H 0.80948 0.21256 0.78109 0.0
H1464 H 0.82455 0.20411 0.74335 0.0
S1465 S 0.87904 0.17199 0.81005 0.0
N1466 N 0.85973 0.18299 0.82196 0.0
N1467 N 0.87664 0.17442 0.78106 0.0
C1468 C 0.85967 0.18483 0.77999 0.0
C1469 C 0.8506 0.18958 0.80214 0.0
C1470 C 0.32739 0.1513 0.55248 0.0
C1471 C 0.299 0.13999 0.55262 0.0
C1472 C 0.34191 0.15694 0.57378 0.0
C1473 C 0.32848 0.15121 0.59591 0.0
H1474 H 0.33862 0.15757 0.53589 0.0
H1475 H 0.36392 0.16743 0.57295 0.0
S1476 S 0.25378 0.11811 0.60538 0.0
N1477 N 0.25766 0.12033 0.5763 0.0
N1478 N 0.28473 0.13133 0.61633 0.0
C1479 C 0.29984 0.13782 0.5961 0.0
C1480 C 0.28516 0.13217 0.57444 0.0
C1481 C 0.85305 0.13434 0.56975 0.0
C1482 C 0.84824 0.14445 0.54855 0.0
C1483 C 0.84507 0.13962 0.59174 0.0
C1484 C 0.83209 0.15523 0.59318 0.0
H1485 H 0.86491 0.12416 0.56951 0.0
H1486 H 0.85137 0.13358 0.6077 0.0
S1487 S 0.80915 0.18047 0.54238 0.0
N1488 N 0.82543 0.16634 0.53003 0.0
N1489 N 0.81051 0.17638 0.57128 0.0
C1490 C 0.82451 0.16271 0.57192 0.0
C1491 C 0.83265 0.15737 0.54961 0.0
C1492 C 0.82411 0.67316 0.5489 0.0
C1493 C 0.83062 0.70051 0.54724 0.0
C1494 C 0.82303 0.66101 0.57088 0.0
C1495 C 0.82853 0.67576 0.59211 0.0
H1496 H 0.82058 0.66126 0.53299 0.0
H1497 H 0.819 0.6402 0.57114 0.0
S1498 S 0.84577 0.74791 0.59733 0.0
N1499 N 0.84163 0.7418 0.56861 0.0
N1500 N 0.83977 0.71906 0.61004 0.0
C1501 C 0.83373 0.70278 0.59079 0.0
C1502 C 0.83479 0.71515 0.56832 0.0
loop_
_geom_bond_atom_site_label_1
_geom_bond_atom_site_label_2
_geom_bond_distance
_geom_bond_site_symmetry_2
_ccdc_geom_bond_type
C0 C1 1.264 . S
C0 C5 1.479 . S
C0 C10 1.465 . S
C1 C0 1.264 . S
C1 C3 1.339 . S
C1 H28 0.931 . S
C2 C3 1.395 . S
C2 C4 1.320 . S
C3 C1 1.339 . S
C3 C2 1.395 . S
C3 H29 0.929 . S
C4 C2 1.320 . S
C4 C5 1.405 . S
C4 H30 0.930 . S
C5 C0 1.479 . S
C5 C4 1.405 . S
C5 H31 0.931 . S
U6 O7 2.454 . S
U6 O8 2.458 . S
U6 C9 2.984 . S
U6 C10 2.847 . S
U6 C23 2.882 . S
U6 O24 2.441 . S
U6 O25 2.420 . S
U6 O26 2.455 . S
U6 O27 2.449 . S
O7 U6 2.454 . S
O7 C9 1.353 . S
O8 U6 2.458 . S
O8 C9 1.286 . S
C9 U6 2.984 . S
C9 O7 1.353 . S
C9 O8 1.286 . S
C9 C11 1.363 . S
C10 C0 1.465 . S
C10 U6 2.847 . S
C10 O24 1.249 . S
C10 O25 1.202 . S
C11 C9 1.363 . S
C11 C13 1.408 . S
C11 C16 1.342 . S
C12 C13 1.310 . S
C12 C15 1.461 . S
C12 H32 0.932 . S
C13 C11 1.408 . S
C13 C12 1.310 . S
C13 H33 0.930 . S
C14 C15 1.474 . S
C14 C16 1.285 . S
C14 H34 0.929 . S
C15 C12 1.461 . S
C15 C14 1.474 . S
C16 C11 1.342 . S
C16 C14 1.285 . S
C16 H35 0.930 . S
C17 C20 1.424 . S
C17 C22 1.245 . S
C17 C23 1.428 . S
C18 C21 1.260 . S
C18 C22 1.477 . S
C18 H36 0.932 . S
C19 C20 1.384 . S
C19 C21 1.479 . S
C19 H37 0.929 . S
C20 C17 1.424 . S
C20 C19 1.384 . S
C20 H38 0.928 . S
C21 C18 1.260 . S
C21 C19 1.479 . S
C22 C17 1.245 . S
C22 C18 1.477 . S
C22 H39 0.932 . S
C23 U6 2.882 . S
C23 C17 1.428 . S
C23 O26 1.301 . S
C23 O27 1.282 . S
O24 U6 2.441 . S
O24 C10 1.249 . S
O25 U6 2.420 . S
O25 C10 1.202 . S
O26 U6 2.455 . S
O26 C23 1.301 . S
O27 U6 2.449 . S
O27 C23 1.282 . S
H28 C1 0.931 . S
H29 C3 0.929 . S
H30 C4 0.930 . S
H31 C5 0.931 . S
H32 C12 0.932 . S
H33 C13 0.930 . S
H34 C14 0.929 . S
H35 C16 0.930 . S
H36 C18 0.932 . S
H37 C19 0.929 . S
H38 C20 0.928 . S
H39 C22 0.932 . S
C40 C41 1.264 . S
C40 C45 1.479 . S
C40 C50 1.465 . S
C41 C40 1.264 . S
C41 C43 1.339 . S
C41 H68 0.931 . S
C42 C43 1.395 . S
C42 C44 1.320 . S
C43 C41 1.339 . S
C43 C42 1.395 . S
C43 H69 0.929 . S
C44 C42 1.320 . S
C44 C45 1.405 . S
C44 H70 0.930 . S
C45 C40 1.479 . S
C45 C44 1.405 . S
C45 H71 0.931 . S
U46 O47 2.454 . S
U46 O48 2.458 . S
U46 C49 2.984 . S
U46 C50 2.847 . S
U46 C63 2.882 . S
U46 O64 2.441 . S
U46 O65 2.420 . S
U46 O66 2.455 . S
U46 O67 2.449 . S
O47 U46 2.454 . S
O47 C49 1.353 . S
O48 U46 2.458 . S
O48 C49 1.286 . S
C49 U46 2.984 . S
C49 O47 1.353 . S
C49 O48 1.286 . S
C49 C51 1.363 . S
C50 C40 1.465 . S
C50 U46 2.847 . S
C50 O64 1.249 . S
C50 O65 1.202 . S
C51 C49 1.363 . S
C51 C53 1.408 . S
C51 C56 1.342 . S
C52 C53 1.310 . S
C52 C55 1.461 . S
C52 H72 0.932 . S
C53 C51 1.408 . S
C53 C52 1.310 . S
C53 H73 0.930 . S
C54 C55 1.474 . S
C54 C56 1.285 . S
C54 H74 0.929 . S
C55 C52 1.461 . S
C55 C54 1.474 . S
C56 C51 1.342 . S
C56 C54 1.285 . S
C56 H75 0.930 . S
C57 C60 1.424 . S
C57 C62 1.245 . S
C57 C63 1.428 . S
C58 C61 1.260 . S
C58 C62 1.477 . S
C58 H76 0.932 . S
C59 C60 1.384 . S
C59 C61 1.479 . S
C59 H77 0.929 . S
C60 C57 1.424 . S
C60 C59 1.384 . S
C60 H78 0.928 . S
C61 C58 1.260 . S
C61 C59 1.479 . S
C62 C57 1.245 . S
C62 C58 1.477 . S
C62 H79 0.932 . S
C63 U46 2.882 . S
C63 C57 1.428 . S
C63 O66 1.301 . S
C63 O67 1.282 . S
O64 U46 2.441 . S
O64 C50 1.249 . S
O65 U46 2.420 . S
O65 C50 1.202 . S
O66 U46 2.455 . S
O66 C63 1.301 . S
O67 U46 2.449 . S
O67 C63 1.282 . S
H68 C41 0.931 . S
H69 C43 0.929 . S
H70 C44 0.930 . S
H71 C45 0.931 . S
H72 C52 0.932 . S
H73 C53 0.930 . S
H74 C54 0.929 . S
H75 C56 0.930 . S
H76 C58 0.932 . S
H77 C59 0.929 . S
H78 C60 0.928 . S
H79 C62 0.932 . S
C80 C81 1.264 . S
C80 C85 1.479 . S
C80 C90 1.465 . S
C81 C80 1.264 . S
C81 C83 1.339 . S
C81 H108 0.931 . S
C82 C83 1.395 . S
C82 C84 1.320 . S
C83 C81 1.339 . S
C83 C82 1.395 . S
C83 H109 0.929 . S
C84 C82 1.320 . S
C84 C85 1.405 . S
C84 H110 0.930 . S
C85 C80 1.479 . S
C85 C84 1.405 . S
C85 H111 0.931 . S
U86 O87 2.454 . S
U86 O88 2.458 . S
U86 C89 2.984 . S
U86 C90 2.847 . S
U86 C103 2.882 . S
U86 O104 2.441 . S
U86 O105 2.420 . S
U86 O106 2.455 . S
U86 O107 2.449 . S
O87 U86 2.454 . S
O87 C89 1.353 . S
O88 U86 2.458 . S
O88 C89 1.286 . S
C89 U86 2.984 . S
C89 O87 1.353 . S
C89 O88 1.286 . S
C89 C91 1.363 . S
C90 C80 1.465 . S
C90 U86 2.847 . S
C90 O104 1.249 . S
C90 O105 1.202 . S
C91 C89 1.363 . S
C91 C93 1.408 . S
C91 C96 1.342 . S
C92 C93 1.310 . S
C92 C95 1.461 . S
C92 H112 0.932 . S
C93 C91 1.408 . S
C93 C92 1.310 . S
C93 H113 0.930 . S
C94 C95 1.474 . S
C94 C96 1.285 . S
C94 H114 0.929 . S
C95 C92 1.461 . S
C95 C94 1.474 . S
C96 C91 1.342 . S
C96 C94 1.285 . S
C96 H115 0.930 . S
C97 C100 1.424 . S
C97 C102 1.245 . S
C97 C103 1.428 . S
C98 C101 1.260 . S
C98 C102 1.477 . S
C98 H116 0.932 . S
C99 C100 1.384 . S
C99 C101 1.479 . S
C99 H117 0.929 . S
C100 C97 1.424 . S
C100 C99 1.384 . S
C100 H118 0.928 . S
C101 C98 1.260 . S
C101 C99 1.479 . S
C102 C97 1.245 . S
C102 C98 1.477 . S
C102 H119 0.932 . S
C103 U86 2.882 . S
C103 C97 1.428 . S
C103 O106 1.301 . S
C103 O107 1.282 . S
O104 U86 2.441 . S
O104 C90 1.249 . S
O105 U86 2.420 . S
O105 C90 1.202 . S
O106 U86 2.455 . S
O106 C103 1.301 . S
O107 U86 2.449 . S
O107 C103 1.282 . S
H108 C81 0.931 . S
H109 C83 0.929 . S
H110 C84 0.930 . S
H111 C85 0.931 . S
H112 C92 0.932 . S
H113 C93 0.930 . S
H114 C94 0.929 . S
H115 C96 0.930 . S
H116 C98 0.932 . S
H117 C99 0.929 . S
H118 C100 0.928 . S
H119 C102 0.932 . S
C120 C121 1.264 . S
C120 C125 1.479 . S
C120 C130 1.465 . S
C121 C120 1.264 . S
C121 C123 1.339 . S
C121 H148 0.931 . S
C122 C123 1.395 . S
C122 C124 1.320 . S
C123 C121 1.339 . S
C123 C122 1.395 . S
C123 H149 0.929 . S
C124 C122 1.320 . S
C124 C125 1.405 . S
C124 H150 0.930 . S
C125 C120 1.479 . S
C125 C124 1.405 . S
C125 H151 0.931 . S
U126 O127 2.454 . S
U126 O128 2.458 . S
U126 C129 2.984 . S
U126 C130 2.847 . S
U126 C143 2.882 . S
U126 O144 2.441 . S
U126 O145 2.420 . S
U126 O146 2.455 . S
U126 O147 2.449 . S
O127 U126 2.454 . S
O127 C129 1.353 . S
O128 U126 2.458 . S
O128 C129 1.286 . S
C129 U126 2.984 . S
C129 O127 1.353 . S
C129 O128 1.286 . S
C129 C131 1.363 . S
C130 C120 1.465 . S
C130 U126 2.847 . S
C130 O144 1.249 . S
C130 O145 1.202 . S
C131 C129 1.363 . S
C131 C133 1.408 . S
C131 C136 1.342 . S
C132 C133 1.310 . S
C132 C135 1.461 . S
C132 H152 0.932 . S
C133 C131 1.408 . S
C133 C132 1.310 . S
C133 H153 0.930 . S
C134 C135 1.474 . S
C134 C136 1.285 . S
C134 H154 0.929 . S
C135 C132 1.461 . S
C135 C134 1.474 . S
C136 C131 1.342 . S
C136 C134 1.285 . S
C136 H155 0.930 . S
C137 C140 1.424 . S
C137 C142 1.245 . S
C137 C143 1.428 . S
C138 C141 1.260 . S
C138 C142 1.477 . S
C138 H156 0.932 . S
C139 C140 1.384 . S
C139 C141 1.479 . S
C139 H157 0.929 . S
C140 C137 1.424 . S
C140 C139 1.384 . S
C140 H158 0.928 . S
C141 C138 1.260 . S
C141 C139 1.479 . S
C142 C137 1.245 . S
C142 C138 1.477 . S
C142 H159 0.932 . S
C143 U126 2.882 . S
C143 C137 1.428 . S
C143 O146 1.301 . S
C143 O147 1.282 . S
O144 U126 2.441 . S
O144 C130 1.249 . S
O145 U126 2.420 . S
O145 C130 1.202 . S
O146 U126 2.455 . S
O146 C143 1.301 . S
O147 U126 2.449 . S
O147 C143 1.282 . S
H148 C121 0.931 . S
H149 C123 0.929 . S
H150 C124 0.930 . S
H151 C125 0.931 . S
H152 C132 0.932 . S
H153 C133 0.930 . S
H154 C134 0.929 . S
H155 C136 0.930 . S
H156 C138 0.932 . S
H157 C139 0.929 . S
H158 C140 0.928 . S
H159 C142 0.932 . S
C160 C161 1.264 . S
C160 C165 1.479 . S
C160 C170 1.465 . S
C161 C160 1.264 . S
C161 C163 1.339 . S
C161 H188 0.931 . S
C162 C163 1.395 . S
C162 C164 1.320 . S
C163 C161 1.339 . S
C163 C162 1.395 . S
C163 H189 0.929 . S
C164 C162 1.320 . S
C164 C165 1.405 . S
C164 H190 0.930 . S
C165 C160 1.479 . S
C165 C164 1.405 . S
C165 H191 0.931 . S
U166 O167 2.454 . S
U166 O168 2.458 . S
U166 C169 2.984 . S
U166 C170 2.847 . S
U166 C183 2.882 . S
U166 O184 2.441 . S
U166 O185 2.420 . S
U166 O186 2.455 . S
U166 O187 2.449 . S
O167 U166 2.454 . S
O167 C169 1.353 . S
O168 U166 2.458 . S
O168 C169 1.286 . S
C169 U166 2.984 . S
C169 O167 1.353 . S
C169 O168 1.286 . S
C169 C171 1.363 . S
C170 C160 1.465 . S
C170 U166 2.847 . S
C170 O184 1.249 . S
C170 O185 1.202 . S
C171 C169 1.363 . S
C171 C173 1.408 . S
C171 C176 1.342 . S
C172 C173 1.310 . S
C172 C175 1.461 . S
C172 H192 0.932 . S
C173 C171 1.408 . S
C173 C172 1.310 . S
C173 H193 0.930 . S
C174 C175 1.474 . S
C174 C176 1.285 . S
C174 H194 0.929 . S
C175 C172 1.461 . S
C175 C174 1.474 . S
C176 C171 1.342 . S
C176 C174 1.285 . S
C176 H195 0.930 . S
C177 C180 1.424 . S
C177 C182 1.245 . S
C177 C183 1.428 . S
C178 C181 1.260 . S
C178 C182 1.477 . S
C178 H196 0.932 . S
C179 C180 1.384 . S
C179 C181 1.479 . S
C179 H197 0.929 . S
C180 C177 1.424 . S
C180 C179 1.384 . S
C180 H198 0.928 . S
C181 C178 1.260 . S
C181 C179 1.479 . S
C182 C177 1.245 . S
C182 C178 1.477 . S
C182 H199 0.932 . S
C183 U166 2.882 . S
C183 C177 1.428 . S
C183 O186 1.301 . S
C183 O187 1.282 . S
O184 U166 2.441 . S
O184 C170 1.249 . S
O185 U166 2.420 . S
O185 C170 1.202 . S
O186 U166 2.455 . S
O186 C183 1.301 . S
O187 U166 2.449 . S
O187 C183 1.282 . S
H188 C161 0.931 . S
H189 C163 0.929 . S
H190 C164 0.930 . S
H191 C165 0.931 . S
H192 C172 0.932 . S
H193 C173 0.930 . S
H194 C174 0.929 . S
H195 C176 0.930 . S
H196 C178 0.932 . S
H197 C179 0.929 . S
H198 C180 0.928 . S
H199 C182 0.932 . S
C200 C201 1.264 . S
C200 C205 1.479 . S
C200 C210 1.465 . S
C201 C200 1.264 . S
C201 C203 1.339 . S
C201 H228 0.931 . S
C202 C203 1.395 . S
C202 C204 1.320 . S
C203 C201 1.339 . S
C203 C202 1.395 . S
C203 H229 0.929 . S
C204 C202 1.320 . S
C204 C205 1.405 . S
C204 H230 0.930 . S
C205 C200 1.479 . S
C205 C204 1.405 . S
C205 H231 0.931 . S
U206 O207 2.454 . S
U206 O208 2.458 . S
U206 C209 2.984 . S
U206 C210 2.847 . S
U206 C223 2.882 . S
U206 O224 2.441 . S
U206 O225 2.420 . S
U206 O226 2.455 . S
U206 O227 2.449 . S
O207 U206 2.454 . S
O207 C209 1.353 . S
O208 U206 2.458 . S
O208 C209 1.286 . S
C209 U206 2.984 . S
C209 O207 1.353 . S
C209 O208 1.286 . S
C209 C211 1.363 . S
C210 C200 1.465 . S
C210 U206 2.847 . S
C210 O224 1.249 . S
C210 O225 1.202 . S
C211 C209 1.363 . S
C211 C213 1.408 . S
C211 C216 1.342 . S
C212 C213 1.310 . S
C212 C215 1.461 . S
C212 H232 0.932 . S
C213 C211 1.408 . S
C213 C212 1.310 . S
C213 H233 0.930 . S
C214 C215 1.474 . S
C214 C216 1.285 . S
C214 H234 0.929 . S
C215 C212 1.461 . S
C215 C214 1.474 . S
C216 C211 1.342 . S
C216 C214 1.285 . S
C216 H235 0.930 . S
C217 C220 1.424 . S
C217 C222 1.245 . S
C217 C223 1.428 . S
C218 C221 1.260 . S
C218 C222 1.477 . S
C218 H236 0.932 . S
C219 C220 1.384 . S
C219 C221 1.479 . S
C219 H237 0.929 . S
C220 C217 1.424 . S
C220 C219 1.384 . S
C220 H238 0.928 . S
C221 C218 1.260 . S
C221 C219 1.479 . S
C222 C217 1.245 . S
C222 C218 1.477 . S
C222 H239 0.932 . S
C223 U206 2.882 . S
C223 C217 1.428 . S
C223 O226 1.301 . S
C223 O227 1.282 . S
O224 U206 2.441 . S
O224 C210 1.249 . S
O225 U206 2.420 . S
O225 C210 1.202 . S
O226 U206 2.455 . S
O226 C223 1.301 . S
O227 U206 2.449 . S
O227 C223 1.282 . S
H228 C201 0.931 . S
H229 C203 0.929 . S
H230 C204 0.930 . S
H231 C205 0.931 . S
H232 C212 0.932 . S
H233 C213 0.930 . S
H234 C214 0.929 . S
H235 C216 0.930 . S
H236 C218 0.932 . S
H237 C219 0.929 . S
H238 C220 0.928 . S
H239 C222 0.932 . S
C240 C241 1.264 . S
C240 C245 1.479 . S
C240 C250 1.465 . S
C241 C240 1.264 . S
C241 C243 1.339 . S
C241 H268 0.931 . S
C242 C243 1.395 . S
C242 C244 1.320 . S
C243 C241 1.339 . S
C243 C242 1.395 . S
C243 H269 0.929 . S
C244 C242 1.320 . S
C244 C245 1.405 . S
C244 H270 0.930 . S
C245 C240 1.479 . S
C245 C244 1.405 . S
C245 H271 0.931 . S
U246 O247 2.454 . S
U246 O248 2.458 . S
U246 C249 2.984 . S
U246 C250 2.847 . S
U246 C263 2.882 . S
U246 O264 2.441 . S
U246 O265 2.420 . S
U246 O266 2.455 . S
U246 O267 2.449 . S
O247 U246 2.454 . S
O247 C249 1.353 . S
O248 U246 2.458 . S
O248 C249 1.286 . S
C249 U246 2.984 . S
C249 O247 1.353 . S
C249 O248 1.286 . S
C249 C251 1.363 . S
C250 C240 1.465 . S
C250 U246 2.847 . S
C250 O264 1.249 . S
C250 O265 1.202 . S
C251 C249 1.363 . S
C251 C253 1.408 . S
C251 C256 1.342 . S
C252 C253 1.310 . S
C252 C255 1.461 . S
C252 H272 0.932 . S
C253 C251 1.408 . S
C253 C252 1.310 . S
C253 H273 0.930 . S
C254 C255 1.474 . S
C254 C256 1.285 . S
C254 H274 0.929 . S
C255 C252 1.461 . S
C255 C254 1.474 . S
C256 C251 1.342 . S
C256 C254 1.285 . S
C256 H275 0.930 . S
C257 C260 1.424 . S
C257 C262 1.245 . S
C257 C263 1.428 . S
C258 C261 1.260 . S
C258 C262 1.477 . S
C258 H276 0.932 . S
C259 C260 1.384 . S
C259 C261 1.479 . S
C259 H277 0.929 . S
C260 C257 1.424 . S
C260 C259 1.384 . S
C260 H278 0.928 . S
C261 C258 1.260 . S
C261 C259 1.479 . S
C262 C257 1.245 . S
C262 C258 1.477 . S
C262 H279 0.932 . S
C263 U246 2.882 . S
C263 C257 1.428 . S
C263 O266 1.301 . S
C263 O267 1.282 . S
O264 U246 2.441 . S
O264 C250 1.249 . S
O265 U246 2.420 . S
O265 C250 1.202 . S
O266 U246 2.455 . S
O266 C263 1.301 . S
O267 U246 2.449 . S
O267 C263 1.282 . S
H268 C241 0.931 . S
H269 C243 0.929 . S
H270 C244 0.930 . S
H271 C245 0.931 . S
H272 C252 0.932 . S
H273 C253 0.930 . S
H274 C254 0.929 . S
H275 C256 0.930 . S
H276 C258 0.932 . S
H277 C259 0.929 . S
H278 C260 0.928 . S
H279 C262 0.932 . S
C280 C281 1.264 . S
C280 C285 1.479 . S
C280 C290 1.465 . S
C281 C280 1.264 . S
C281 C283 1.339 . S
C281 H308 0.931 . S
C282 C283 1.395 . S
C282 C284 1.320 . S
C283 C281 1.339 . S
C283 C282 1.395 . S
C283 H309 0.929 . S
C284 C282 1.320 . S
C284 C285 1.405 . S
C284 H310 0.930 . S
C285 C280 1.479 . S
C285 C284 1.405 . S
C285 H311 0.931 . S
U286 O287 2.454 . S
U286 O288 2.458 . S
U286 C289 2.984 . S
U286 C290 2.847 . S
U286 C303 2.882 . S
U286 O304 2.441 . S
U286 O305 2.420 . S
U286 O306 2.455 . S
U286 O307 2.449 . S
O287 U286 2.454 . S
O287 C289 1.353 . S
O288 U286 2.458 . S
O288 C289 1.286 . S
C289 U286 2.984 . S
C289 O287 1.353 . S
C289 O288 1.286 . S
C289 C291 1.363 . S
C290 C280 1.465 . S
C290 U286 2.847 . S
C290 O304 1.249 . S
C290 O305 1.202 . S
C291 C289 1.363 . S
C291 C293 1.408 . S
C291 C296 1.342 . S
C292 C293 1.310 . S
C292 C295 1.461 . S
C292 H312 0.932 . S
C293 C291 1.408 . S
C293 C292 1.310 . S
C293 H313 0.930 . S
C294 C295 1.474 . S
C294 C296 1.285 . S
C294 H314 0.929 . S
C295 C292 1.461 . S
C295 C294 1.474 . S
C296 C291 1.342 . S
C296 C294 1.285 . S
C296 H315 0.930 . S
C297 C300 1.424 . S
C297 C302 1.245 . S
C297 C303 1.428 . S
C298 C301 1.260 . S
C298 C302 1.477 . S
C298 H316 0.932 . S
C299 C300 1.384 . S
C299 C301 1.479 . S
C299 H317 0.929 . S
C300 C297 1.424 . S
C300 C299 1.384 . S
C300 H318 0.928 . S
C301 C298 1.260 . S
C301 C299 1.479 . S
C302 C297 1.245 . S
C302 C298 1.477 . S
C302 H319 0.932 . S
C303 U286 2.882 . S
C303 C297 1.428 . S
C303 O306 1.301 . S
C303 O307 1.282 . S
O304 U286 2.441 . S
O304 C290 1.249 . S
O305 U286 2.420 . S
O305 C290 1.202 . S
O306 U286 2.455 . S
O306 C303 1.301 . S
O307 U286 2.449 . S
O307 C303 1.282 . S
H308 C281 0.931 . S
H309 C283 0.929 . S
H310 C284 0.930 . S
H311 C285 0.931 . S
H312 C292 0.932 . S
H313 C293 0.930 . S
H314 C294 0.929 . S
H315 C296 0.930 . S
H316 C298 0.932 . S
H317 C299 0.929 . S
H318 C300 0.928 . S
H319 C302 0.932 . S
C320 C321 1.264 . S
C320 C325 1.479 . S
C320 C330 1.465 . S
C321 C320 1.264 . S
C321 C323 1.339 . S
C321 H348 0.931 . S
C322 C323 1.395 . S
C322 C324 1.320 . S
C323 C321 1.339 . S
C323 C322 1.395 . S
C323 H349 0.929 . S
C324 C322 1.320 . S
C324 C325 1.405 . S
C324 H350 0.930 . S
C325 C320 1.479 . S
C325 C324 1.405 . S
C325 H351 0.931 . S
U326 O327 2.454 . S
U326 O328 2.458 . S
U326 C329 2.984 . S
U326 C330 2.847 . S
U326 C343 2.882 . S
U326 O344 2.441 . S
U326 O345 2.420 . S
U326 O346 2.455 . S
U326 O347 2.449 . S
O327 U326 2.454 . S
O327 C329 1.353 . S
O328 U326 2.458 . S
O328 C329 1.286 . S
C329 U326 2.984 . S
C329 O327 1.353 . S
C329 O328 1.286 . S
C329 C331 1.363 . S
C330 C320 1.465 . S
C330 U326 2.847 . S
C330 O344 1.249 . S
C330 O345 1.202 . S
C331 C329 1.363 . S
C331 C333 1.408 . S
C331 C336 1.342 . S
C332 C333 1.310 . S
C332 C335 1.461 . S
C332 H352 0.932 . S
C333 C331 1.408 . S
C333 C332 1.310 . S
C333 H353 0.930 . S
C334 C335 1.474 . S
C334 C336 1.285 . S
C334 H354 0.929 . S
C335 C332 1.461 . S
C335 C334 1.474 . S
C336 C331 1.342 . S
C336 C334 1.285 . S
C336 H355 0.930 . S
C337 C340 1.424 . S
C337 C342 1.245 . S
C337 C343 1.428 . S
C338 C341 1.260 . S
C338 C342 1.477 . S
C338 H356 0.932 . S
C339 C340 1.384 . S
C339 C341 1.479 . S
C339 H357 0.929 . S
C340 C337 1.424 . S
C340 C339 1.384 . S
C340 H358 0.928 . S
C341 C338 1.260 . S
C341 C339 1.479 . S
C342 C337 1.245 . S
C342 C338 1.477 . S
C342 H359 0.932 . S
C343 U326 2.882 . S
C343 C337 1.428 . S
C343 O346 1.301 . S
C343 O347 1.282 . S
O344 U326 2.441 . S
O344 C330 1.249 . S
O345 U326 2.420 . S
O345 C330 1.202 . S
O346 U326 2.455 . S
O346 C343 1.301 . S
O347 U326 2.449 . S
O347 C343 1.282 . S
H348 C321 0.931 . S
H349 C323 0.929 . S
H350 C324 0.930 . S
H351 C325 0.931 . S
H352 C332 0.932 . S
H353 C333 0.930 . S
H354 C334 0.929 . S
H355 C336 0.930 . S
H356 C338 0.932 . S
H357 C339 0.929 . S
H358 C340 0.928 . S
H359 C342 0.932 . S
C360 C361 1.264 . S
C360 C365 1.515 . S
C360 C370 1.465 . S
C361 C360 1.264 . S
C361 C363 1.339 . S
C361 H388 0.931 . S
C362 C363 1.395 . S
C362 C364 1.320 1_556 S
C363 C361 1.339 . S
C363 C362 1.395 . S
C363 H389 0.929 . S
C364 C362 1.320 1_554 S
C364 C365 1.394 1_554 S
C364 H390 0.930 . S
C365 C360 1.515 . S
C365 C364 1.394 1_556 S
C365 H391 0.909 1_556 S
U366 O367 2.454 . S
U366 O368 2.458 . S
U366 C369 2.984 . S
U366 C370 2.847 . S
U366 C383 2.882 . S
U366 O384 2.441 . S
U366 O385 2.420 . S
U366 O386 2.455 . S
U366 O387 2.449 . S
O367 U366 2.454 . S
O367 C369 1.353 . S
O368 U366 2.458 . S
O368 C369 1.286 . S
C369 U366 2.984 . S
C369 O367 1.353 . S
C369 O368 1.286 . S
C369 C371 1.363 . S
C370 C360 1.465 . S
C370 U366 2.847 . S
C370 O384 1.249 . S
C370 O385 1.202 . S
C371 C369 1.363 . S
C371 C373 1.408 . S
C371 C376 1.342 . S
C372 C373 1.310 1_554 S
C372 C375 1.461 1_554 S
C372 H392 0.932 . S
C373 C371 1.408 . S
C373 C372 1.310 1_556 S
C373 H393 0.930 1_556 S
C374 C375 1.474 . S
C374 C376 1.285 . S
C374 H394 0.929 . S
C375 C372 1.461 1_556 S
C375 C374 1.474 . S
C376 C371 1.342 . S
C376 C374 1.285 . S
C376 H395 0.930 . S
C377 C380 1.424 . S
C377 C382 1.245 . S
C377 C383 1.428 . S
C378 C381 1.260 . S
C378 C382 1.477 . S
C378 H396 0.932 . S
C379 C380 1.384 . S
C379 C381 1.479 . S
C379 H397 0.929 . S
C380 C377 1.424 . S
C380 C379 1.384 . S
C380 H398 0.928 . S
C381 C378 1.260 . S
C381 C379 1.479 . S
C382 C377 1.245 . S
C382 C378 1.477 . S
C382 H399 0.932 . S
C383 U366 2.882 . S
C383 C377 1.428 . S
C383 O386 1.301 . S
C383 O387 1.282 . S
O384 U366 2.441 . S
O384 C370 1.249 . S
O385 U366 2.420 . S
O385 C370 1.202 . S
O386 U366 2.455 . S
O386 C383 1.301 . S
O387 U366 2.449 . S
O387 C383 1.282 . S
H388 C361 0.931 . S
H389 C363 0.929 . S
H390 C364 0.930 . S
H391 C365 0.909 1_554 S
H392 C372 0.932 . S
H393 C373 0.930 1_554 S
H394 C374 0.929 . S
H395 C376 0.930 . S
H396 C378 0.932 . S
H397 C379 0.929 . S
H398 C380 0.928 . S
H399 C382 0.932 . S
C400 C401 1.264 . S
C400 C405 1.479 1_556 S
C400 C410 1.465 . S
C401 C400 1.264 . S
C401 C403 1.339 . S
C401 H428 0.931 . S
C402 C403 1.395 . S
C402 C404 1.320 1_556 S
C403 C401 1.339 . S
C403 C402 1.395 . S
C403 H429 0.929 . S
C404 C402 1.320 1_554 S
C404 C405 1.405 . S
C404 H430 0.930 . S
C405 C400 1.479 1_554 S
C405 C404 1.405 . S
C405 H431 0.931 . S
U406 O407 2.454 . S
U406 O408 2.458 . S
U406 C409 2.984 . S
U406 C410 2.847 . S
U406 C423 2.882 . S
U406 O424 2.441 . S
U406 O425 2.420 . S
U406 O426 2.455 . S
U406 O427 2.449 . S
O407 U406 2.454 . S
O407 C409 1.353 . S
O408 U406 2.458 . S
O408 C409 1.286 . S
C409 U406 2.984 . S
C409 O407 1.353 . S
C409 O408 1.286 . S
C409 C411 1.363 . S
C410 C400 1.465 . S
C410 U406 2.847 . S
C410 O424 1.249 . S
C410 O425 1.202 . S
C411 C409 1.363 . S
C411 C413 1.361 1_556 S
C411 C416 1.342 . S
C412 C413 1.331 . S
C412 C415 1.461 1_554 S
C412 H432 0.932 . S
C413 C411 1.361 1_554 S
C413 C412 1.331 . S
C413 H433 0.957 . S
C414 C415 1.474 . S
C414 C416 1.285 . S
C414 H434 0.929 . S
C415 C412 1.461 1_556 S
C415 C414 1.474 . S
C416 C411 1.342 . S
C416 C414 1.285 . S
C416 H435 0.930 . S
C417 C420 1.424 . S
C417 C422 1.245 . S
C417 C423 1.428 . S
C418 C421 1.260 . S
C418 C422 1.477 . S
C418 H436 0.932 . S
C419 C420 1.384 . S
C419 C421 1.479 . S
C419 H437 0.929 . S
C420 C417 1.424 . S
C420 C419 1.384 . S
C420 H438 0.928 . S
C421 C418 1.260 . S
C421 C419 1.479 . S
C422 C417 1.245 . S
C422 C418 1.477 . S
C422 H439 0.932 . S
C423 U406 2.882 . S
C423 C417 1.428 . S
C423 O426 1.301 . S
C423 O427 1.282 . S
O424 U406 2.441 . S
O424 C410 1.249 . S
O425 U406 2.420 . S
O425 C410 1.202 . S
O426 U406 2.455 . S
O426 C423 1.301 . S
O427 U406 2.449 . S
O427 C423 1.282 . S
H428 C401 0.931 . S
H429 C403 0.929 . S
H430 C404 0.930 . S
H431 C405 0.931 . S
H432 C412 0.932 . S
H433 C413 0.957 . S
H434 C414 0.929 . S
H435 C416 0.930 . S
H436 C418 0.932 . S
H437 C419 0.929 . S
H438 C420 0.928 . S
H439 C422 0.932 . S
C440 C441 1.264 . S
C440 C445 1.479 . S
C440 C450 1.465 . S
C441 C440 1.264 . S
C441 C443 1.339 . S
C441 H468 0.931 . S
C442 C443 1.395 . S
C442 C444 1.320 1_556 S
C443 C441 1.339 . S
C443 C442 1.395 . S
C443 H469 0.929 . S
C444 C442 1.320 1_554 S
C444 C445 1.405 1_554 S
C444 H470 0.930 . S
C445 C440 1.479 . S
C445 C444 1.405 1_556 S
C445 H471 0.944 . S
U446 O447 2.454 . S
U446 O448 2.458 . S
U446 C449 2.984 . S
U446 C450 2.847 . S
U446 C463 2.882 . S
U446 O464 2.441 . S
U446 O465 2.420 . S
U446 O466 2.455 . S
U446 O467 2.449 . S
O447 U446 2.454 . S
O447 C449 1.353 . S
O448 U446 2.458 . S
O448 C449 1.286 . S
C449 U446 2.984 . S
C449 O447 1.353 . S
C449 O448 1.286 . S
C449 C451 1.363 . S
C450 C440 1.465 . S
C450 U446 2.847 . S
C450 O464 1.249 . S
C450 O465 1.202 . S
C451 C449 1.363 . S
C451 C453 1.408 . S
C451 C456 1.342 . S
C452 C453 1.310 1_554 S
C452 C455 1.461 1_554 S
C452 H472 0.932 . S
C453 C451 1.408 . S
C453 C452 1.310 1_556 S
C453 H473 0.911 1_556 S
C454 C455 1.474 . S
C454 C456 1.285 . S
C454 H474 0.929 . S
C455 C452 1.461 1_556 S
C455 C454 1.474 . S
C456 C451 1.342 . S
C456 C454 1.285 . S
C456 H475 0.930 . S
C457 C460 1.424 . S
C457 C462 1.245 . S
C457 C463 1.428 . S
C458 C461 1.260 . S
C458 C462 1.477 . S
C458 H476 0.932 . S
C459 C460 1.384 . S
C459 C461 1.479 . S
C459 H477 0.929 . S
C460 C457 1.424 . S
C460 C459 1.384 . S
C460 H478 0.928 . S
C461 C458 1.260 . S
C461 C459 1.479 . S
C462 C457 1.245 . S
C462 C458 1.477 . S
C462 H479 0.932 . S
C463 U446 2.882 . S
C463 C457 1.428 . S
C463 O466 1.301 . S
C463 O467 1.282 . S
O464 U446 2.441 . S
O464 C450 1.249 . S
O465 U446 2.420 . S
O465 C450 1.202 . S
O466 U446 2.455 . S
O466 C463 1.301 . S
O467 U446 2.449 . S
O467 C463 1.282 . S
H468 C441 0.931 . S
H469 C443 0.929 . S
H470 C444 0.930 . S
H471 C445 0.944 . S
H472 C452 0.932 . S
H473 C453 0.911 1_554 S
H474 C454 0.929 . S
H475 C456 0.930 . S
H476 C458 0.932 . S
H477 C459 0.929 . S
H478 C460 0.928 . S
H479 C462 0.932 . S
C480 C481 1.264 . S
C480 C485 1.479 . S
C480 C490 1.465 . S
C481 C480 1.264 . S
C481 C483 1.339 . S
C481 H508 0.931 . S
C482 C483 1.395 . S
C482 C484 1.320 . S
C483 C481 1.339 . S
C483 C482 1.395 . S
C483 H509 0.929 . S
C484 C482 1.320 . S
C484 C485 1.405 . S
C484 H510 0.930 1_554 S
C485 C480 1.479 . S
C485 C484 1.405 . S
C485 H511 0.931 . S
U486 O487 2.454 . S
U486 O488 2.458 . S
U486 C489 2.984 . S
U486 C490 2.847 . S
U486 C503 2.882 . S
U486 O504 2.441 . S
U486 O505 2.420 . S
U486 O506 2.455 . S
U486 O507 2.449 . S
O487 U486 2.454 . S
O487 C489 1.353 . S
O488 U486 2.458 . S
O488 C489 1.286 . S
C489 U486 2.984 . S
C489 O487 1.353 . S
C489 O488 1.286 . S
C489 C491 1.363 . S
C490 C480 1.465 . S
C490 U486 2.847 . S
C490 O504 1.249 . S
C490 O505 1.202 . S
C491 C489 1.363 . S
C491 C493 1.408 . S
C491 C496 1.342 . S
C492 C493 1.310 . S
C492 C495 1.461 . S
C492 H512 0.932 1_554 S
C493 C491 1.408 . S
C493 C492 1.310 . S
C493 H513 0.930 . S
C494 C495 1.474 . S
C494 C496 1.285 . S
C494 H514 0.929 . S
C495 C492 1.461 . S
C495 C494 1.474 . S
C496 C491 1.342 . S
C496 C494 1.285 . S
C496 H515 0.930 . S
C497 C500 1.424 . S
C497 C502 1.245 . S
C497 C503 1.428 . S
C498 C501 1.260 . S
C498 C502 1.477 . S
C498 H516 0.932 . S
C499 C500 1.384 . S
C499 C501 1.479 . S
C499 H517 0.929 . S
C500 C497 1.424 . S
C500 C499 1.384 . S
C500 H518 0.928 . S
C501 C498 1.260 . S
C501 C499 1.479 . S
C502 C497 1.245 . S
C502 C498 1.477 . S
C502 H519 0.932 . S
C503 U486 2.882 . S
C503 C497 1.428 . S
C503 O506 1.301 . S
C503 O507 1.282 . S
O504 U486 2.441 . S
O504 C490 1.249 . S
O505 U486 2.420 . S
O505 C490 1.202 . S
O506 U486 2.455 . S
O506 C503 1.301 . S
O507 U486 2.449 . S
O507 C503 1.282 . S
H508 C481 0.931 . S
H509 C483 0.929 . S
H510 C484 0.930 1_556 S
H511 C485 0.931 . S
H512 C492 0.932 1_556 S
H513 C493 0.930 . S
H514 C494 0.929 . S
H515 C496 0.930 . S
H516 C498 0.932 . S
H517 C499 0.929 . S
H518 C500 0.928 . S
H519 C502 0.932 . S
C520 C521 1.264 . S
C520 C525 1.479 . S
C520 C530 1.465 . S
C521 C520 1.264 . S
C521 C523 1.339 . S
C521 H548 0.931 . S
C522 C523 1.395 . S
C522 C524 1.320 . S
C523 C521 1.339 . S
C523 C522 1.395 . S
C523 H549 0.929 . S
C524 C522 1.320 . S
C524 C525 1.405 . S
C524 H550 0.930 1_554 S
C525 C520 1.479 . S
C525 C524 1.405 . S
C525 H551 0.910 1_554 S
U526 O527 2.454 . S
U526 O528 2.458 . S
U526 C529 2.984 . S
U526 C530 2.847 . S
U526 C543 2.882 . S
U526 O544 2.441 . S
U526 O545 2.420 . S
U526 O546 2.455 . S
U526 O547 2.449 . S
O527 U526 2.454 . S
O527 C529 1.353 . S
O528 U526 2.458 . S
O528 C529 1.286 . S
C529 U526 2.984 . S
C529 O527 1.353 . S
C529 O528 1.286 . S
C529 C531 1.363 . S
C530 C520 1.465 . S
C530 U526 2.847 . S
C530 O544 1.249 . S
C530 O545 1.202 . S
C531 C529 1.363 . S
C531 C533 1.408 . S
C531 C536 1.342 . S
C532 C533 1.318 . S
C532 C535 1.471 . S
C532 H552 0.914 1_554 S
C533 C531 1.408 . S
C533 C532 1.318 . S
C533 H553 0.930 . S
C534 C535 1.474 . S
C534 C536 1.285 . S
C534 H554 0.929 . S
C535 C532 1.471 . S
C535 C534 1.474 . S
C536 C531 1.342 . S
C536 C534 1.285 . S
C536 H555 0.930 . S
C537 C540 1.424 . S
C537 C542 1.245 . S
C537 C543 1.428 . S
C538 C541 1.260 . S
C538 C542 1.477 . S
C538 H556 0.932 . S
C539 C540 1.384 . S
C539 C541 1.479 . S
C539 H557 0.929 . S
C540 C537 1.424 . S
C540 C539 1.384 . S
C540 H558 0.928 . S
C541 C538 1.260 . S
C541 C539 1.479 . S
C542 C537 1.245 . S
C542 C538 1.477 . S
C542 H559 0.932 . S
C543 U526 2.882 . S
C543 C537 1.428 . S
C543 O546 1.301 . S
C543 O547 1.282 . S
O544 U526 2.441 . S
O544 C530 1.249 . S
O545 U526 2.420 . S
O545 C530 1.202 . S
O546 U526 2.455 . S
O546 C543 1.301 . S
O547 U526 2.449 . S
O547 C543 1.282 . S
H548 C521 0.931 . S
H549 C523 0.929 . S
H550 C524 0.930 1_556 S
H551 C525 0.910 1_556 S
H552 C532 0.914 1_556 S
H553 C533 0.930 . S
H554 C534 0.929 . S
H555 C536 0.930 . S
H556 C538 0.932 . S
H557 C539 0.929 . S
H558 C540 0.928 . S
H559 C542 0.932 . S
C560 C561 1.264 . S
C560 C565 1.479 . S
C560 C570 1.465 . S
C561 C560 1.264 . S
C561 C563 1.339 . S
C561 H588 0.931 . S
C562 C563 1.395 . S
C562 C564 1.320 . S
C563 C561 1.339 . S
C563 C562 1.395 . S
C563 H589 0.929 . S
C564 C562 1.320 . S
C564 C565 1.405 . S
C564 H590 0.930 1_554 S
C565 C560 1.479 . S
C565 C564 1.405 . S
C565 H591 0.931 . S
U566 O567 2.454 . S
U566 O568 2.458 . S
U566 C569 2.984 . S
U566 C570 2.847 . S
U566 C583 2.882 . S
U566 O584 2.441 . S
U566 O585 2.420 . S
U566 O586 2.455 . S
U566 O587 2.449 . S
O567 U566 2.454 . S
O567 C569 1.353 . S
O568 U566 2.458 . S
O568 C569 1.286 . S
C569 U566 2.984 . S
C569 O567 1.353 . S
C569 O568 1.286 . S
C569 C571 1.363 . S
C570 C560 1.465 . S
C570 U566 2.847 . S
C570 O584 1.249 . S
C570 O585 1.202 . S
C571 C569 1.363 . S
C571 C573 1.408 . S
C571 C576 1.342 . S
C572 C573 1.310 . S
C572 C575 1.461 . S
C572 H592 0.932 1_554 S
C573 C571 1.408 . S
C573 C572 1.310 . S
C573 H593 0.930 . S
C574 C575 1.474 . S
C574 C576 1.285 . S
C574 H594 0.929 . S
C575 C572 1.461 . S
C575 C574 1.474 . S
C576 C571 1.342 . S
C576 C574 1.285 . S
C576 H595 0.930 . S
C577 C580 1.424 . S
C577 C582 1.245 . S
C577 C583 1.428 . S
C578 C581 1.260 . S
C578 C582 1.477 . S
C578 H596 0.932 . S
C579 C580 1.384 . S
C579 C581 1.479 . S
C579 H597 0.929 . S
C580 C577 1.424 . S
C580 C579 1.384 . S
C580 H598 0.928 . S
C581 C578 1.260 . S
C581 C579 1.479 . S
C582 C577 1.245 . S
C582 C578 1.477 . S
C582 H599 0.932 . S
C583 U566 2.882 . S
C583 C577 1.428 . S
C583 O586 1.301 . S
C583 O587 1.282 . S
O584 U566 2.441 . S
O584 C570 1.249 . S
O585 U566 2.420 . S
O585 C570 1.202 . S
O586 U566 2.455 . S
O586 C583 1.301 . S
O587 U566 2.449 . S
O587 C583 1.282 . S
H588 C561 0.931 . S
H589 C563 0.929 . S
H590 C564 0.930 1_556 S
H591 C565 0.931 . S
H592 C572 0.932 1_556 S
H593 C573 0.930 . S
H594 C574 0.929 . S
H595 C576 0.930 . S
H596 C578 0.932 . S
H597 C579 0.929 . S
H598 C580 0.928 . S
H599 C582 0.932 . S
C600 C601 1.264 . S
C600 C605 1.479 . S
C600 C610 1.465 . S
C601 C600 1.264 . S
C601 C603 1.339 . S
C601 H628 0.931 . S
C602 C603 1.395 . S
C602 C604 1.320 . S
C603 C601 1.339 . S
C603 C602 1.395 . S
C603 H629 0.929 . S
C604 C602 1.320 . S
C604 C605 1.405 . S
C604 H630 0.930 . S
C605 C600 1.479 . S
C605 C604 1.405 . S
C605 H631 0.931 . S
U606 O607 2.454 . S
U606 O608 2.458 . S
U606 C609 2.984 . S
U606 C610 2.847 . S
U606 C623 2.882 . S
U606 O624 2.441 . S
U606 O625 2.420 . S
U606 O626 2.455 . S
U606 O627 2.449 . S
O607 U606 2.454 . S
O607 C609 1.353 . S
O608 U606 2.458 . S
O608 C609 1.286 . S
C609 U606 2.984 . S
C609 O607 1.353 . S
C609 O608 1.286 . S
C609 C611 1.363 . S
C610 C600 1.465 . S
C610 U606 2.847 . S
C610 O624 1.249 . S
C610 O625 1.202 . S
C611 C609 1.363 . S
C611 C613 1.408 . S
C611 C616 1.342 . S
C612 C613 1.310 . S
C612 C615 1.461 . S
C612 H632 0.932 . S
C613 C611 1.408 . S
C613 C612 1.310 . S
C613 H633 0.930 . S
C614 C615 1.474 . S
C614 C616 1.285 . S
C614 H634 0.929 . S
C615 C612 1.461 . S
C615 C614 1.474 . S
C616 C611 1.342 . S
C616 C614 1.285 . S
C616 H635 0.930 . S
C617 C620 1.424 . S
C617 C622 1.245 . S
C617 C623 1.428 . S
C618 C621 1.260 . S
C618 C622 1.477 . S
C618 H636 0.932 . S
C619 C620 1.384 . S
C619 C621 1.479 . S
C619 H637 0.929 . S
C620 C617 1.424 . S
C620 C619 1.384 . S
C620 H638 0.928 . S
C621 C618 1.260 . S
C621 C619 1.479 . S
C622 C617 1.245 . S
C622 C618 1.477 . S
C622 H639 0.932 . S
C623 U606 2.882 . S
C623 C617 1.428 . S
C623 O626 1.301 . S
C623 O627 1.282 . S
O624 U606 2.441 . S
O624 C610 1.249 . S
O625 U606 2.420 . S
O625 C610 1.202 . S
O626 U606 2.455 . S
O626 C623 1.301 . S
O627 U606 2.449 . S
O627 C623 1.282 . S
H628 C601 0.931 . S
H629 C603 0.929 . S
H630 C604 0.930 . S
H631 C605 0.931 . S
H632 C612 0.932 . S
H633 C613 0.930 . S
H634 C614 0.929 . S
H635 C616 0.930 . S
H636 C618 0.932 . S
H637 C619 0.929 . S
H638 C620 0.928 . S
H639 C622 0.932 . S
C640 C641 1.264 . S
C640 C645 1.479 . S
C640 C650 1.465 . S
C641 C640 1.264 . S
C641 C643 1.339 . S
C641 H668 0.931 . S
C642 C643 1.395 . S
C642 C644 1.320 . S
C643 C641 1.339 . S
C643 C642 1.395 . S
C643 H669 0.929 . S
C644 C642 1.320 . S
C644 C645 1.405 . S
C644 H670 0.930 . S
C645 C640 1.479 . S
C645 C644 1.405 . S
C645 H671 0.931 . S
U646 O647 2.454 . S
U646 O648 2.458 . S
U646 C649 2.984 . S
U646 C650 2.847 . S
U646 C663 2.882 . S
U646 O664 2.441 . S
U646 O665 2.420 . S
U646 O666 2.455 . S
U646 O667 2.449 . S
O647 U646 2.454 . S
O647 C649 1.353 . S
O648 U646 2.458 . S
O648 C649 1.286 . S
C649 U646 2.984 . S
C649 O647 1.353 . S
C649 O648 1.286 . S
C649 C651 1.363 . S
C650 C640 1.465 . S
C650 U646 2.847 . S
C650 O664 1.249 . S
C650 O665 1.202 . S
C651 C649 1.363 . S
C651 C653 1.408 . S
C651 C656 1.342 . S
C652 C653 1.310 . S
C652 C655 1.461 . S
C652 H672 0.932 . S
C653 C651 1.408 . S
C653 C652 1.310 . S
C653 H673 0.930 . S
C654 C655 1.474 . S
C654 C656 1.285 . S
C654 H674 0.929 . S
C655 C652 1.461 . S
C655 C654 1.474 . S
C656 C651 1.342 . S
C656 C654 1.285 . S
C656 H675 0.930 . S
C657 C660 1.424 . S
C657 C662 1.245 . S
C657 C663 1.428 . S
C658 C661 1.260 . S
C658 C662 1.477 . S
C658 H676 0.932 . S
C659 C660 1.384 . S
C659 C661 1.479 . S
C659 H677 0.929 . S
C660 C657 1.424 . S
C660 C659 1.384 . S
C660 H678 0.928 . S
C661 C658 1.260 . S
C661 C659 1.479 . S
C662 C657 1.245 . S
C662 C658 1.477 . S
C662 H679 0.932 . S
C663 U646 2.882 . S
C663 C657 1.428 . S
C663 O666 1.301 . S
C663 O667 1.282 . S
O664 U646 2.441 . S
O664 C650 1.249 . S
O665 U646 2.420 . S
O665 C650 1.202 . S
O666 U646 2.455 . S
O666 C663 1.301 . S
O667 U646 2.449 . S
O667 C663 1.282 . S
H668 C641 0.931 . S
H669 C643 0.929 . S
H670 C644 0.930 . S
H671 C645 0.931 . S
H672 C652 0.932 . S
H673 C653 0.930 . S
H674 C654 0.929 . S
H675 C656 0.930 . S
H676 C658 0.932 . S
H677 C659 0.929 . S
H678 C660 0.928 . S
H679 C662 0.932 . S
C680 C681 1.264 . S
C680 C685 1.479 . S
C680 C690 1.465 . S
C681 C680 1.264 . S
C681 C683 1.339 . S
C681 H708 0.931 . S
C682 C683 1.395 . S
C682 C684 1.320 . S
C683 C681 1.339 . S
C683 C682 1.395 . S
C683 H709 0.929 . S
C684 C682 1.320 . S
C684 C685 1.405 . S
C684 H710 0.930 . S
C685 C680 1.479 . S
C685 C684 1.405 . S
C685 H711 0.931 . S
U686 O687 2.454 . S
U686 O688 2.458 . S
U686 C689 2.984 . S
U686 C690 2.847 . S
U686 C703 2.882 . S
U686 O704 2.441 . S
U686 O705 2.420 . S
U686 O706 2.455 . S
U686 O707 2.449 . S
O687 U686 2.454 . S
O687 C689 1.353 . S
O688 U686 2.458 . S
O688 C689 1.286 . S
C689 U686 2.984 . S
C689 O687 1.353 . S
C689 O688 1.286 . S
C689 C691 1.363 . S
C690 C680 1.465 . S
C690 U686 2.847 . S
C690 O704 1.249 . S
C690 O705 1.202 . S
C691 C689 1.363 . S
C691 C693 1.408 . S
C691 C696 1.342 . S
C692 C693 1.310 . S
C692 C695 1.461 . S
C692 H712 0.932 . S
C693 C691 1.408 . S
C693 C692 1.310 . S
C693 H713 0.930 . S
C694 C695 1.474 . S
C694 C696 1.285 . S
C694 H714 0.929 . S
C695 C692 1.461 . S
C695 C694 1.474 . S
C696 C691 1.342 . S
C696 C694 1.285 . S
C696 H715 0.930 . S
C697 C700 1.424 . S
C697 C702 1.245 . S
C697 C703 1.428 . S
C698 C701 1.260 . S
C698 C702 1.477 . S
C698 H716 0.932 . S
C699 C700 1.384 . S
C699 C701 1.479 . S
C699 H717 0.929 . S
C700 C697 1.424 . S
C700 C699 1.384 . S
C700 H718 0.928 . S
C701 C698 1.260 . S
C701 C699 1.479 . S
C702 C697 1.245 . S
C702 C698 1.477 . S
C702 H719 0.932 . S
C703 U686 2.882 . S
C703 C697 1.428 . S
C703 O706 1.301 . S
C703 O707 1.282 . S
O704 U686 2.441 . S
O704 C690 1.249 . S
O705 U686 2.420 . S
O705 C690 1.202 . S
O706 U686 2.455 . S
O706 C703 1.301 . S
O707 U686 2.449 . S
O707 C703 1.282 . S
H708 C681 0.931 . S
H709 C683 0.929 . S
H710 C684 0.930 . S
H711 C685 0.931 . S
H712 C692 0.932 . S
H713 C693 0.930 . S
H714 C694 0.929 . S
H715 C696 0.930 . S
H716 C698 0.932 . S
H717 C699 0.929 . S
H718 C700 0.928 . S
H719 C702 0.932 . S
O720 Mg721 1.990 . S
O720 C734 1.253 1_565 S
Mg721 O720 1.990 . S
Mg721 O724 2.180 1_556 S
Mg721 O725 2.117 . S
Mg721 O739 2.030 1_565 S
O722 Mg723 2.072 1_556 S
O722 C734 1.260 . S
Mg723 O722 2.072 1_554 S
Mg723 O724 2.099 1_545 S
Mg723 O726 2.079 . S
Mg723 O727 2.072 1_545 S
Mg723 O729 2.099 . S
Mg723 O740 2.079 . S
O724 Mg721 2.180 1_554 S
O724 Mg723 2.099 1_565 S
O724 C735 1.279 . S
O725 Mg721 2.117 . S
O725 C735 1.250 1_556 S
O726 Mg723 2.079 . S
O726 C736 1.264 . S
O727 Mg723 2.072 1_565 S
O727 C737 1.260 . S
Mg728 O729 2.180 . S
Mg728 O730 2.022 1_545 S
Mg728 O731 1.990 1_545 S
Mg728 O732 2.117 . S
O729 Mg723 2.099 . S
O729 Mg728 2.180 . S
O729 C738 1.279 . S
O730 Mg728 2.022 1_565 S
O730 C736 1.253 1_565 S
O731 Mg728 1.990 1_565 S
O731 C737 1.253 . S
O732 Mg728 2.117 . S
O732 C738 1.250 . S
C733 O739 1.248 . S
C733 O740 1.264 1_556 S
C734 O720 1.253 1_545 S
C734 O722 1.260 . S
C735 O724 1.279 . S
C735 O725 1.250 1_554 S
C736 O726 1.264 . S
C736 O730 1.253 1_545 S
C737 O727 1.260 . S
C737 O731 1.253 . S
C738 O729 1.279 . S
C738 O732 1.250 . S
O739 Mg721 2.030 1_545 S
O739 C733 1.248 . S
O740 Mg723 2.079 . S
O740 C733 1.264 1_554 S
O741 Mg742 1.990 . S
O741 C755 1.252 . S
Mg742 O741 1.990 . S
Mg742 O745 2.180 1_556 S
Mg742 O746 2.117 . S
Mg742 O760 2.030 1_455 S
O743 Mg744 2.072 1_556 S
O743 C755 1.262 1_655 S
Mg744 O743 2.072 1_554 S
Mg744 O745 2.099 1_655 S
Mg744 O747 2.079 . S
Mg744 O748 2.072 1_655 S
Mg744 O750 2.099 . S
Mg744 O761 2.079 . S
O745 Mg742 2.180 1_554 S
O745 Mg744 2.099 1_455 S
O745 C756 1.279 . S
O746 Mg742 2.117 . S
O746 C756 1.250 1_556 S
O747 Mg744 2.079 . S
O747 C757 1.264 1_655 S
O748 Mg744 2.072 1_455 S
O748 C758 1.260 . S
Mg749 O750 2.180 . S
Mg749 O751 2.030 1_655 S
Mg749 O752 1.990 1_655 S
Mg749 O753 2.117 . S
O750 Mg744 2.099 . S
O750 Mg749 2.180 . S
O750 C759 1.279 . S
O751 Mg749 2.030 1_455 S
O751 C757 1.248 . S
O752 Mg749 1.990 1_455 S
O752 C758 1.253 . S
O753 Mg749 2.117 . S
O753 C759 1.250 . S
C754 O760 1.248 . S
C754 O761 1.264 1_556 S
C755 O741 1.252 . S
C755 O743 1.262 1_455 S
C756 O745 1.279 . S
C756 O746 1.250 1_554 S
C757 O747 1.264 1_455 S
C757 O751 1.248 . S
C758 O748 1.260 . S
C758 O752 1.253 . S
C759 O750 1.279 . S
C759 O753 1.250 . S
O760 Mg742 2.030 1_655 S
O760 C754 1.248 . S
O761 Mg744 2.079 . S
O761 C754 1.264 1_554 S
O762 Mg763 1.990 . S
O762 C776 1.253 . S
Mg763 O762 1.990 . S
Mg763 O766 2.180 . S
Mg763 O767 2.117 . S
Mg763 O781 2.030 . S
O764 Mg765 2.098 . S
O764 C776 1.260 . S
Mg765 O764 2.098 . S
Mg765 O766 2.102 . S
Mg765 O768 2.053 1_554 S
Mg765 O769 2.071 1_554 S
Mg765 O771 2.095 1_554 S
Mg765 O782 2.080 . S
O766 Mg763 2.180 . S
O766 Mg765 2.102 . S
O766 C777 1.279 . S
O767 Mg763 2.117 . S
O767 C777 1.250 . S
O768 Mg765 2.053 1_556 S
O768 C778 1.264 . S
O769 Mg765 2.071 1_556 S
O769 C779 1.260 . S
Mg770 O771 2.180 . S
Mg770 O772 2.030 . S
Mg770 O773 1.990 . S
Mg770 O774 2.124 . S
O771 Mg765 2.095 1_556 S
O771 Mg770 2.180 . S
O771 C780 1.279 1_556 S
O772 Mg770 2.030 . S
O772 C778 1.248 . S
O773 Mg770 1.990 . S
O773 C779 1.253 . S
O774 Mg770 2.124 . S
O774 C780 1.248 1_556 S
C775 O781 1.248 . S
C775 O782 1.264 . S
C776 O762 1.253 . S
C776 O764 1.260 . S
C777 O766 1.279 . S
C777 O767 1.250 . S
C778 O768 1.264 . S
C778 O772 1.248 . S
C779 O769 1.260 . S
C779 O773 1.253 . S
C780 O771 1.279 1_554 S
C780 O774 1.248 1_554 S
O781 Mg763 2.030 . S
O781 C775 1.248 . S
O782 Mg765 2.080 . S
O782 C775 1.264 . S
O783 Mg784 1.990 . S
O783 C797 1.253 . S
Mg784 O783 1.990 . S
Mg784 O787 2.180 . S
Mg784 O788 2.117 . S
Mg784 O802 2.030 . S
O785 Mg786 2.072 . S
O785 C797 1.260 . S
Mg786 O785 2.072 . S
Mg786 O787 2.099 . S
Mg786 O789 2.079 . S
Mg786 O790 2.072 . S
Mg786 O792 2.099 . S
Mg786 O803 2.079 . S
O787 Mg784 2.180 . S
O787 Mg786 2.099 . S
O787 C798 1.279 . S
O788 Mg784 2.117 . S
O788 C798 1.250 . S
O789 Mg786 2.079 . S
O789 C799 1.264 . S
O790 Mg786 2.072 . S
O790 C800 1.260 . S
Mg791 O792 2.180 . S
Mg791 O793 2.030 . S
Mg791 O794 1.990 . S
Mg791 O795 2.117 . S
O792 Mg786 2.099 . S
O792 Mg791 2.180 . S
O792 C801 1.279 . S
O793 Mg791 2.030 . S
O793 C799 1.248 . S
O794 Mg791 1.990 . S
O794 C800 1.253 . S
O795 Mg791 2.117 . S
O795 C801 1.250 . S
C796 O802 1.248 . S
C796 O803 1.264 . S
C797 O783 1.253 . S
C797 O785 1.260 . S
C798 O787 1.279 . S
C798 O788 1.250 . S
C799 O789 1.264 . S
C799 O793 1.248 . S
C800 O790 1.260 . S
C800 O794 1.253 . S
C801 O792 1.279 . S
C801 O795 1.250 . S
O802 Mg784 2.030 . S
O802 C796 1.248 . S
O803 Mg786 2.079 . S
O803 C796 1.264 . S
O804 Mg805 1.990 . S
O804 C818 1.253 . S
Mg805 O804 1.990 . S
Mg805 O808 2.180 . S
Mg805 O809 2.117 . S
Mg805 O823 2.030 . S
O806 Mg807 2.072 . S
O806 C818 1.260 . S
Mg807 O806 2.072 . S
Mg807 O808 2.099 . S
Mg807 O810 2.079 . S
Mg807 O811 2.072 . S
Mg807 O813 2.099 . S
Mg807 O824 2.079 . S
O808 Mg805 2.180 . S
O808 Mg807 2.099 . S
O808 C819 1.279 . S
O809 Mg805 2.117 . S
O809 C819 1.250 . S
O810 Mg807 2.079 . S
O810 C820 1.264 . S
O811 Mg807 2.072 . S
O811 C821 1.260 . S
Mg812 O813 2.180 . S
Mg812 O814 2.030 . S
Mg812 O815 1.990 . S
Mg812 O816 2.117 . S
O813 Mg807 2.099 . S
O813 Mg812 2.180 . S
O813 C822 1.279 . S
O814 Mg812 2.030 . S
O814 C820 1.248 . S
O815 Mg812 1.990 . S
O815 C821 1.253 . S
O816 Mg812 2.117 . S
O816 C822 1.250 . S
C817 O823 1.248 . S
C817 O824 1.264 . S
C818 O804 1.253 . S
C818 O806 1.260 . S
C819 O808 1.279 . S
C819 O809 1.250 . S
C820 O810 1.264 . S
C820 O814 1.248 . S
C821 O811 1.260 . S
C821 O815 1.253 . S
C822 O813 1.279 . S
C822 O816 1.250 . S
O823 Mg805 2.030 . S
O823 C817 1.248 . S
O824 Mg807 2.079 . S
O824 C817 1.264 . S
O825 Mg826 1.990 . S
O825 C839 1.253 . S
Mg826 O825 1.990 . S
Mg826 O829 2.180 . S
Mg826 O830 2.117 . S
Mg826 O844 2.030 . S
O827 Mg828 2.072 . S
O827 C839 1.260 . S
Mg828 O827 2.072 . S
Mg828 O829 2.099 . S
Mg828 O831 2.079 . S
Mg828 O832 2.072 . S
Mg828 O834 2.099 . S
Mg828 O845 2.079 . S
O829 Mg826 2.180 . S
O829 Mg828 2.099 . S
O829 C840 1.279 . S
O830 Mg826 2.117 . S
O830 C840 1.250 . S
O831 Mg828 2.079 . S
O831 C841 1.264 . S
O832 Mg828 2.072 . S
O832 C842 1.260 . S
Mg833 O834 2.180 . S
Mg833 O835 2.030 . S
Mg833 O836 1.990 . S
Mg833 O837 2.117 . S
O834 Mg828 2.099 . S
O834 Mg833 2.180 . S
O834 C843 1.279 . S
O835 Mg833 2.030 . S
O835 C841 1.248 . S
O836 Mg833 1.990 . S
O836 C842 1.253 . S
O837 Mg833 2.117 . S
O837 C843 1.250 . S
C838 O844 1.248 . S
C838 O845 1.264 . S
C839 O825 1.253 . S
C839 O827 1.260 . S
C840 O829 1.279 . S
C840 O830 1.250 . S
C841 O831 1.264 . S
C841 O835 1.248 . S
C842 O832 1.260 . S
C842 O836 1.253 . S
C843 O834 1.279 . S
C843 O837 1.250 . S
O844 Mg826 2.030 . S
O844 C838 1.248 . S
O845 Mg828 2.079 . S
O845 C838 1.264 . S
O846 Mg847 1.990 . S
O846 C860 1.253 . S
Mg847 O846 1.990 . S
Mg847 O850 2.180 . S
Mg847 O851 2.117 . S
Mg847 O865 2.030 . S
O848 Mg849 2.072 . S
O848 C860 1.260 . S
Mg849 O848 2.072 . S
Mg849 O850 2.099 . S
Mg849 O852 2.079 . S
Mg849 O853 2.072 . S
Mg849 O855 2.099 . S
Mg849 O866 2.079 . S
O850 Mg847 2.180 . S
O850 Mg849 2.099 . S
O850 C861 1.279 . S
O851 Mg847 2.117 . S
O851 C861 1.250 . S
O852 Mg849 2.079 . S
O852 C862 1.264 . S
O853 Mg849 2.072 . S
O853 C863 1.260 . S
Mg854 O855 2.180 . S
Mg854 O856 2.030 . S
Mg854 O857 1.990 . S
Mg854 O858 2.117 . S
O855 Mg849 2.099 . S
O855 Mg854 2.180 . S
O855 C864 1.279 . S
O856 Mg854 2.030 . S
O856 C862 1.248 . S
O857 Mg854 1.990 . S
O857 C863 1.253 . S
O858 Mg854 2.117 . S
O858 C864 1.250 . S
C859 O865 1.248 . S
C859 O866 1.264 . S
C860 O846 1.253 . S
C860 O848 1.260 . S
C861 O850 1.279 . S
C861 O851 1.250 . S
C862 O852 1.264 . S
C862 O856 1.248 . S
C863 O853 1.260 . S
C863 O857 1.253 . S
C864 O855 1.279 . S
C864 O858 1.250 . S
O865 Mg847 2.030 . S
O865 C859 1.248 . S
O866 Mg849 2.079 . S
O866 C859 1.264 . S
O867 Mg868 1.990 . S
O867 C881 1.253 . S
Mg868 O867 1.990 . S
Mg868 O871 2.180 . S
Mg868 O872 2.117 . S
Mg868 O886 2.030 . S
O869 Mg870 2.072 . S
O869 C881 1.260 . S
Mg870 O869 2.072 . S
Mg870 O871 2.099 . S
Mg870 O873 2.079 . S
Mg870 O874 2.072 . S
Mg870 O876 2.099 . S
Mg870 O887 2.079 . S
O871 Mg868 2.180 . S
O871 Mg870 2.099 . S
O871 C882 1.279 . S
O872 Mg868 2.117 . S
O872 C882 1.250 . S
O873 Mg870 2.079 . S
O873 C883 1.264 . S
O874 Mg870 2.072 . S
O874 C884 1.260 . S
Mg875 O876 2.180 . S
Mg875 O877 2.030 . S
Mg875 O878 1.990 . S
Mg875 O879 2.117 . S
O876 Mg870 2.099 . S
O876 Mg875 2.180 . S
O876 C885 1.279 . S
O877 Mg875 2.030 . S
O877 C883 1.248 . S
O878 Mg875 1.990 . S
O878 C884 1.253 . S
O879 Mg875 2.117 . S
O879 C885 1.250 . S
C880 O886 1.248 . S
C880 O887 1.264 . S
C881 O867 1.253 . S
C881 O869 1.260 . S
C882 O871 1.279 . S
C882 O872 1.250 . S
C883 O873 1.264 . S
C883 O877 1.248 . S
C884 O874 1.260 . S
C884 O878 1.253 . S
C885 O876 1.279 . S
C885 O879 1.250 . S
O886 Mg868 2.030 . S
O886 C880 1.248 . S
O887 Mg870 2.079 . S
O887 C880 1.264 . S
O888 Mg889 1.990 . S
O888 C902 1.253 . S
Mg889 O888 1.990 . S
Mg889 O892 2.180 . S
Mg889 O893 2.117 . S
Mg889 O907 2.030 . S
O890 Mg891 2.072 . S
O890 C902 1.260 . S
Mg891 O890 2.072 . S
Mg891 O892 2.099 . S
Mg891 O894 2.079 . S
Mg891 O895 2.072 . S
Mg891 O897 2.099 . S
Mg891 O908 2.079 . S
O892 Mg889 2.180 . S
O892 Mg891 2.099 . S
O892 C903 1.279 . S
O893 Mg889 2.117 . S
O893 C903 1.250 . S
O894 Mg891 2.079 . S
O894 C904 1.264 . S
O895 Mg891 2.072 . S
O895 C905 1.260 . S
Mg896 O897 2.180 . S
Mg896 O898 2.030 . S
Mg896 O899 1.990 . S
Mg896 O900 2.117 . S
O897 Mg891 2.099 . S
O897 Mg896 2.180 . S
O897 C906 1.279 . S
O898 Mg896 2.030 . S
O898 C904 1.248 . S
O899 Mg896 1.990 . S
O899 C905 1.253 . S
O900 Mg896 2.117 . S
O900 C906 1.250 . S
C901 O907 1.248 . S
C901 O908 1.264 . S
C902 O888 1.253 . S
C902 O890 1.260 . S
C903 O892 1.279 . S
C903 O893 1.250 . S
C904 O894 1.264 . S
C904 O898 1.248 . S
C905 O895 1.260 . S
C905 O899 1.253 . S
C906 O897 1.279 . S
C906 O900 1.250 . S
O907 Mg889 2.030 . S
O907 C901 1.248 . S
O908 Mg891 2.079 . S
O908 C901 1.264 . S
C909 C910 1.369 . S
C909 C911 1.419 . S
C909 H913 0.930 . S
C910 C909 1.369 . S
C910 C919 1.429 1_554 S
C911 C909 1.419 . S
C911 C912 1.363 . S
C911 H914 0.929 . S
C912 C911 1.363 . S
C912 C918 1.440 . S
H913 C909 0.930 . S
H914 C911 0.929 . S
S915 N916 1.613 . S
S915 N917 1.610 . S
N916 S915 1.613 . S
N916 C919 1.350 . S
N917 S915 1.610 . S
N917 C918 1.339 1_556 S
C918 C912 1.440 . S
C918 N917 1.339 1_554 S
C918 C919 1.433 1_554 S
C919 C910 1.429 1_556 S
C919 N916 1.350 . S
C919 C918 1.433 1_556 S
C920 C921 1.369 1_556 S
C920 C922 1.419 . S
C920 H924 0.930 . S
C921 C920 1.369 1_554 S
C921 C930 1.429 . S
C922 C920 1.419 . S
C922 C923 1.363 1_556 S
C922 H925 0.929 . S
C923 C922 1.363 1_554 S
C923 C929 1.428 . S
H924 C920 0.930 . S
H925 C922 0.929 . S
S926 N927 1.613 . S
S926 N928 1.610 . S
N927 S926 1.613 . S
N927 C930 1.350 . S
N928 S926 1.610 . S
N928 C929 1.351 . S
C929 C923 1.428 . S
C929 N928 1.351 . S
C929 C930 1.434 . S
C930 C921 1.429 . S
C930 N927 1.350 . S
C930 C929 1.434 . S
C931 C932 1.369 . S
C931 C933 1.419 . S
C931 H935 0.930 . S
C932 C931 1.369 . S
C932 C941 1.429 . S
C933 C931 1.419 . S
C933 C934 1.363 . S
C933 H936 0.929 . S
C934 C933 1.363 . S
C934 C940 1.428 . S
H935 C931 0.930 . S
H936 C933 0.929 . S
S937 N938 1.613 . S
S937 N939 1.610 . S
N938 S937 1.613 . S
N938 C941 1.350 . S
N939 S937 1.610 . S
N939 C940 1.351 . S
C940 C934 1.428 . S
C940 N939 1.351 . S
C940 C941 1.434 . S
C941 C932 1.429 . S
C941 N938 1.350 . S
C941 C940 1.434 . S
C942 C943 1.369 1_554 S
C942 C944 1.419 . S
C942 H946 0.930 . S
C943 C942 1.369 1_556 S
C943 C952 1.429 . S
C944 C942 1.419 . S
C944 C945 1.363 1_554 S
C944 H947 0.929 . S
C945 C944 1.363 1_556 S
C945 C951 1.428 . S
H946 C942 0.930 . S
H947 C944 0.929 . S
S948 N949 1.613 . S
S948 N950 1.610 . S
N949 S948 1.613 . S
N949 C952 1.350 . S
N950 S948 1.610 . S
N950 C951 1.351 . S
C951 C945 1.428 . S
C951 N950 1.351 . S
C951 C952 1.434 . S
C952 C943 1.429 . S
C952 N949 1.350 . S
C952 C951 1.434 . S
C953 C954 1.369 1_554 S
C953 C955 1.419 . S
C953 H957 0.930 . S
C954 C953 1.369 1_556 S
C954 C963 1.429 . S
C955 C953 1.419 . S
C955 C956 1.363 1_554 S
C955 H958 0.929 . S
C956 C955 1.363 1_556 S
C956 C962 1.428 . S
H957 C953 0.930 . S
H958 C955 0.929 . S
S959 N960 1.613 . S
S959 N961 1.610 . S
N960 S959 1.613 . S
N960 C963 1.350 . S
N961 S959 1.610 . S
N961 C962 1.351 . S
C962 C956 1.428 . S
C962 N961 1.351 . S
C962 C963 1.434 . S
C963 C954 1.429 . S
C963 N960 1.350 . S
C963 C962 1.434 . S
C964 C965 1.370 1_556 S
C964 C966 1.419 . S
C964 H968 0.930 . S
C965 C964 1.370 1_554 S
C965 C974 1.428 . S
C966 C964 1.419 . S
C966 C967 1.363 . S
C966 H969 0.929 . S
C967 C966 1.363 . S
C967 C973 1.428 1_556 S
H968 C964 0.930 . S
H969 C966 0.929 . S
S970 N971 1.613 . S
S970 N972 1.610 . S
N971 S970 1.613 . S
N971 C974 1.350 . S
N972 S970 1.610 . S
N972 C973 1.351 . S
C973 C967 1.428 1_554 S
C973 N972 1.351 . S
C973 C974 1.434 . S
C974 C965 1.428 . S
C974 N971 1.350 . S
C974 C973 1.434 . S
C975 C976 1.369 1_554 S
C975 C977 1.419 . S
C975 H979 0.930 . S
C976 C975 1.369 1_556 S
C976 C985 1.429 . S
C977 C975 1.419 . S
C977 C978 1.363 1_554 S
C977 H980 0.929 . S
C978 C977 1.363 1_556 S
C978 C984 1.428 . S
H979 C975 0.930 . S
H980 C977 0.929 . S
S981 N982 1.613 . S
S981 N983 1.610 . S
N982 S981 1.613 . S
N982 C985 1.350 . S
N983 S981 1.610 . S
N983 C984 1.351 . S
C984 C978 1.428 . S
C984 N983 1.351 . S
C984 C985 1.434 . S
C985 C976 1.429 . S
C985 N982 1.350 . S
C985 C984 1.434 . S
C986 C987 1.348 1_554 S
C986 C988 1.419 . S
C986 H990 0.930 . S
C987 C986 1.348 1_556 S
C987 C996 1.452 . S
C988 C986 1.419 . S
C988 C989 1.363 1_554 S
C988 H991 0.929 . S
C989 C988 1.363 1_556 S
C989 C995 1.428 . S
H990 C986 0.930 . S
H991 C988 0.929 . S
S992 N993 1.613 . S
S992 N994 1.610 . S
N993 S992 1.613 . S
N993 C996 1.350 . S
N994 S992 1.610 . S
N994 C995 1.351 . S
C995 C989 1.428 . S
C995 N994 1.351 . S
C995 C996 1.434 . S
C996 C987 1.452 . S
C996 N993 1.350 . S
C996 C995 1.434 . S
C997 C998 1.369 . S
C997 C999 1.419 . S
C997 H1001 0.930 . S
C998 C997 1.369 . S
C998 C1007 1.431 . S
C999 C997 1.419 . S
C999 C1000 1.360 1_554 S
C999 H1002 0.929 . S
C1000 C999 1.360 1_556 S
C1000 C1006 1.428 . S
H1001 C997 0.930 . S
H1002 C999 0.929 . S
S1003 N1004 1.613 1_556 S
S1003 N1005 1.611 . S
N1004 S1003 1.613 1_554 S
N1004 C1007 1.351 . S
N1005 S1003 1.611 . S
N1005 C1006 1.354 . S
C1006 C1000 1.428 . S
C1006 N1005 1.354 . S
C1006 C1007 1.431 1_556 S
C1007 C998 1.431 . S
C1007 N1004 1.351 . S
C1007 C1006 1.431 1_554 S
C1008 C1009 1.369 . S
C1008 C1010 1.419 . S
C1008 H1012 0.930 . S
C1009 C1008 1.369 . S
C1009 C1018 1.429 . S
C1010 C1008 1.419 . S
C1010 C1011 1.363 . S
C1010 H1013 0.929 . S
C1011 C1010 1.363 . S
C1011 C1017 1.428 . S
H1012 C1008 0.930 . S
H1013 C1010 0.929 . S
S1014 N1015 1.613 . S
S1014 N1016 1.610 . S
N1015 S1014 1.613 . S
N1015 C1018 1.350 . S
N1016 S1014 1.610 . S
N1016 C1017 1.351 . S
C1017 C1011 1.428 . S
C1017 N1016 1.351 . S
C1017 C1018 1.434 . S
C1018 C1009 1.429 . S
C1018 N1015 1.350 . S
C1018 C1017 1.434 . S
C1019 C1020 1.369 . S
C1019 C1021 1.419 . S
C1019 H1023 0.930 . S
C1020 C1019 1.369 . S
C1020 C1029 1.429 . S
C1021 C1019 1.419 . S
C1021 C1022 1.363 . S
C1021 H1024 0.929 . S
C1022 C1021 1.363 . S
C1022 C1028 1.428 . S
H1023 C1019 0.930 . S
H1024 C1021 0.929 . S
S1025 N1026 1.613 . S
S1025 N1027 1.610 . S
N1026 S1025 1.613 . S
N1026 C1029 1.350 . S
N1027 S1025 1.610 . S
N1027 C1028 1.351 . S
C1028 C1022 1.428 . S
C1028 N1027 1.351 . S
C1028 C1029 1.434 . S
C1029 C1020 1.429 . S
C1029 N1026 1.350 . S
C1029 C1028 1.434 . S
C1030 C1031 1.369 . S
C1030 C1032 1.419 . S
C1030 H1034 0.930 . S
C1031 C1030 1.369 . S
C1031 C1040 1.429 . S
C1032 C1030 1.419 . S
C1032 C1033 1.363 . S
C1032 H1035 0.929 . S
C1033 C1032 1.363 . S
C1033 C1039 1.428 . S
H1034 C1030 0.930 . S
H1035 C1032 0.929 . S
S1036 N1037 1.613 . S
S1036 N1038 1.610 . S
N1037 S1036 1.613 . S
N1037 C1040 1.350 . S
N1038 S1036 1.610 . S
N1038 C1039 1.351 . S
C1039 C1033 1.428 . S
C1039 N1038 1.351 . S
C1039 C1040 1.434 . S
C1040 C1031 1.429 . S
C1040 N1037 1.350 . S
C1040 C1039 1.434 . S
C1041 C1042 1.369 . S
C1041 C1043 1.419 . S
C1041 H1045 0.930 . S
C1042 C1041 1.369 . S
C1042 C1051 1.429 . S
C1043 C1041 1.419 . S
C1043 C1044 1.363 . S
C1043 H1046 0.929 . S
C1044 C1043 1.363 . S
C1044 C1050 1.428 . S
H1045 C1041 0.930 . S
H1046 C1043 0.929 . S
S1047 N1048 1.613 . S
S1047 N1049 1.610 . S
N1048 S1047 1.613 . S
N1048 C1051 1.350 . S
N1049 S1047 1.610 . S
N1049 C1050 1.351 . S
C1050 C1044 1.428 . S
C1050 N1049 1.351 . S
C1050 C1051 1.434 . S
C1051 C1042 1.429 . S
C1051 N1048 1.350 . S
C1051 C1050 1.434 . S
C1052 C1053 1.369 . S
C1052 C1054 1.419 . S
C1052 H1056 0.930 . S
C1053 C1052 1.369 . S
C1053 C1062 1.429 . S
C1054 C1052 1.419 . S
C1054 C1055 1.363 . S
C1054 H1057 0.929 . S
C1055 C1054 1.363 . S
C1055 C1061 1.428 . S
H1056 C1052 0.930 . S
H1057 C1054 0.929 . S
S1058 N1059 1.613 . S
S1058 N1060 1.610 . S
N1059 S1058 1.613 . S
N1059 C1062 1.350 . S
N1060 S1058 1.610 . S
N1060 C1061 1.351 . S
C1061 C1055 1.428 . S
C1061 N1060 1.351 . S
C1061 C1062 1.434 . S
C1062 C1053 1.429 . S
C1062 N1059 1.350 . S
C1062 C1061 1.434 . S
C1063 C1064 1.369 . S
C1063 C1065 1.419 . S
C1063 H1067 0.930 . S
C1064 C1063 1.369 . S
C1064 C1073 1.429 . S
C1065 C1063 1.419 . S
C1065 C1066 1.363 . S
C1065 H1068 0.929 . S
C1066 C1065 1.363 . S
C1066 C1072 1.428 . S
H1067 C1063 0.930 . S
H1068 C1065 0.929 . S
S1069 N1070 1.613 . S
S1069 N1071 1.610 . S
N1070 S1069 1.613 . S
N1070 C1073 1.350 . S
N1071 S1069 1.610 . S
N1071 C1072 1.351 . S
C1072 C1066 1.428 . S
C1072 N1071 1.351 . S
C1072 C1073 1.434 . S
C1073 C1064 1.429 . S
C1073 N1070 1.350 . S
C1073 C1072 1.434 . S
C1074 C1075 1.369 . S
C1074 C1076 1.419 . S
C1074 H1078 0.930 . S
C1075 C1074 1.369 . S
C1075 C1084 1.429 . S
C1076 C1074 1.419 . S
C1076 C1077 1.363 . S
C1076 H1079 0.929 . S
C1077 C1076 1.363 . S
C1077 C1083 1.428 . S
H1078 C1074 0.930 . S
H1079 C1076 0.929 . S
S1080 N1081 1.613 . S
S1080 N1082 1.610 . S
N1081 S1080 1.613 . S
N1081 C1084 1.350 . S
N1082 S1080 1.610 . S
N1082 C1083 1.351 . S
C1083 C1077 1.428 . S
C1083 N1082 1.351 . S
C1083 C1084 1.434 . S
C1084 C1075 1.429 . S
C1084 N1081 1.350 . S
C1084 C1083 1.434 . S
C1085 C1086 1.369 . S
C1085 C1087 1.419 . S
C1085 H1089 0.930 . S
C1086 C1085 1.369 . S
C1086 C1095 1.429 . S
C1087 C1085 1.419 . S
C1087 C1088 1.363 . S
C1087 H1090 0.929 . S
C1088 C1087 1.363 . S
C1088 C1094 1.428 . S
H1089 C1085 0.930 . S
H1090 C1087 0.929 . S
S1091 N1092 1.613 . S
S1091 N1093 1.610 . S
N1092 S1091 1.613 . S
N1092 C1095 1.350 . S
N1093 S1091 1.610 . S
N1093 C1094 1.351 . S
C1094 C1088 1.428 . S
C1094 N1093 1.351 . S
C1094 C1095 1.434 . S
C1095 C1086 1.429 . S
C1095 N1092 1.350 . S
C1095 C1094 1.434 . S
C1096 C1097 1.369 . S
C1096 C1098 1.419 . S
C1096 H1100 0.930 . S
C1097 C1096 1.369 . S
C1097 C1106 1.429 . S
C1098 C1096 1.419 . S
C1098 C1099 1.363 . S
C1098 H1101 0.929 . S
C1099 C1098 1.363 . S
C1099 C1105 1.428 . S
H1100 C1096 0.930 . S
H1101 C1098 0.929 . S
S1102 N1103 1.613 . S
S1102 N1104 1.610 . S
N1103 S1102 1.613 . S
N1103 C1106 1.350 . S
N1104 S1102 1.610 . S
N1104 C1105 1.351 . S
C1105 C1099 1.428 . S
C1105 N1104 1.351 . S
C1105 C1106 1.434 . S
C1106 C1097 1.429 . S
C1106 N1103 1.350 . S
C1106 C1105 1.434 . S
C1107 C1108 1.369 . S
C1107 C1109 1.419 . S
C1107 H1111 0.930 . S
C1108 C1107 1.369 . S
C1108 C1117 1.429 . S
C1109 C1107 1.419 . S
C1109 C1110 1.363 . S
C1109 H1112 0.929 . S
C1110 C1109 1.363 . S
C1110 C1116 1.428 . S
H1111 C1107 0.930 . S
H1112 C1109 0.929 . S
S1113 N1114 1.613 . S
S1113 N1115 1.610 . S
N1114 S1113 1.613 . S
N1114 C1117 1.350 . S
N1115 S1113 1.610 . S
N1115 C1116 1.351 . S
C1116 C1110 1.428 . S
C1116 N1115 1.351 . S
C1116 C1117 1.434 . S
C1117 C1108 1.429 . S
C1117 N1114 1.350 . S
C1117 C1116 1.434 . S
C1118 C1119 1.369 . S
C1118 C1120 1.419 . S
C1118 H1122 0.930 . S
C1119 C1118 1.369 . S
C1119 C1128 1.429 . S
C1120 C1118 1.419 . S
C1120 C1121 1.363 . S
C1120 H1123 0.929 . S
C1121 C1120 1.363 . S
C1121 C1127 1.428 . S
H1122 C1118 0.930 . S
H1123 C1120 0.929 . S
S1124 N1125 1.613 . S
S1124 N1126 1.610 . S
N1125 S1124 1.613 . S
N1125 C1128 1.350 . S
N1126 S1124 1.610 . S
N1126 C1127 1.351 . S
C1127 C1121 1.428 . S
C1127 N1126 1.351 . S
C1127 C1128 1.434 . S
C1128 C1119 1.429 . S
C1128 N1125 1.350 . S
C1128 C1127 1.434 . S
C1129 C1130 1.369 . S
C1129 C1131 1.419 . S
C1129 H1133 0.930 . S
C1130 C1129 1.369 . S
C1130 C1139 1.429 . S
C1131 C1129 1.419 . S
C1131 C1132 1.363 . S
C1131 H1134 0.929 . S
C1132 C1131 1.363 . S
C1132 C1138 1.428 . S
H1133 C1129 0.930 . S
H1134 C1131 0.929 . S
S1135 N1136 1.613 . S
S1135 N1137 1.610 . S
N1136 S1135 1.613 . S
N1136 C1139 1.350 . S
N1137 S1135 1.610 . S
N1137 C1138 1.351 . S
C1138 C1132 1.428 . S
C1138 N1137 1.351 . S
C1138 C1139 1.434 . S
C1139 C1130 1.429 . S
C1139 N1136 1.350 . S
C1139 C1138 1.434 . S
C1140 C1141 1.369 . S
C1140 C1142 1.419 . S
C1140 H1144 0.930 . S
C1141 C1140 1.369 . S
C1141 C1150 1.429 . S
C1142 C1140 1.419 . S
C1142 C1143 1.363 . S
C1142 H1145 0.929 . S
C1143 C1142 1.363 . S
C1143 C1149 1.428 . S
H1144 C1140 0.930 . S
H1145 C1142 0.929 . S
S1146 N1147 1.613 . S
S1146 N1148 1.610 . S
N1147 S1146 1.613 . S
N1147 C1150 1.350 . S
N1148 S1146 1.610 . S
N1148 C1149 1.351 . S
C1149 C1143 1.428 . S
C1149 N1148 1.351 . S
C1149 C1150 1.434 . S
C1150 C1141 1.429 . S
C1150 N1147 1.350 . S
C1150 C1149 1.434 . S
C1151 C1152 1.369 . S
C1151 C1153 1.419 . S
C1151 H1155 0.930 . S
C1152 C1151 1.369 . S
C1152 C1161 1.429 . S
C1153 C1151 1.419 . S
C1153 C1154 1.363 . S
C1153 H1156 0.929 . S
C1154 C1153 1.363 . S
C1154 C1160 1.428 . S
H1155 C1151 0.930 . S
H1156 C1153 0.929 . S
S1157 N1158 1.613 . S
S1157 N1159 1.610 . S
N1158 S1157 1.613 . S
N1158 C1161 1.350 . S
N1159 S1157 1.610 . S
N1159 C1160 1.351 . S
C1160 C1154 1.428 . S
C1160 N1159 1.351 . S
C1160 C1161 1.434 . S
C1161 C1152 1.429 . S
C1161 N1158 1.350 . S
C1161 C1160 1.434 . S
C1162 C1163 1.369 . S
C1162 C1164 1.419 . S
C1162 H1166 0.930 . S
C1163 C1162 1.369 . S
C1163 C1172 1.429 . S
C1164 C1162 1.419 . S
C1164 C1165 1.363 . S
C1164 H1167 0.929 . S
C1165 C1164 1.363 . S
C1165 C1171 1.428 . S
H1166 C1162 0.930 . S
H1167 C1164 0.929 . S
S1168 N1169 1.613 . S
S1168 N1170 1.610 . S
N1169 S1168 1.613 . S
N1169 C1172 1.350 . S
N1170 S1168 1.610 . S
N1170 C1171 1.351 . S
C1171 C1165 1.428 . S
C1171 N1170 1.351 . S
C1171 C1172 1.434 . S
C1172 C1163 1.429 . S
C1172 N1169 1.350 . S
C1172 C1171 1.434 . S
C1173 C1174 1.369 . S
C1173 C1175 1.419 . S
C1173 H1177 0.930 . S
C1174 C1173 1.369 . S
C1174 C1183 1.429 . S
C1175 C1173 1.419 . S
C1175 C1176 1.363 . S
C1175 H1178 0.929 . S
C1176 C1175 1.363 . S
C1176 C1182 1.428 . S
H1177 C1173 0.930 . S
H1178 C1175 0.929 . S
S1179 N1180 1.613 . S
S1179 N1181 1.610 . S
N1180 S1179 1.613 . S
N1180 C1183 1.350 . S
N1181 S1179 1.610 . S
N1181 C1182 1.351 . S
C1182 C1176 1.428 . S
C1182 N1181 1.351 . S
C1182 C1183 1.434 . S
C1183 C1174 1.429 . S
C1183 N1180 1.350 . S
C1183 C1182 1.434 . S
C1184 C1185 1.369 . S
C1184 C1186 1.419 . S
C1184 H1188 0.930 . S
C1185 C1184 1.369 . S
C1185 C1194 1.429 . S
C1186 C1184 1.419 . S
C1186 C1187 1.363 . S
C1186 H1189 0.929 . S
C1187 C1186 1.363 . S
C1187 C1193 1.428 . S
H1188 C1184 0.930 . S
H1189 C1186 0.929 . S
S1190 N1191 1.613 . S
S1190 N1192 1.610 . S
N1191 S1190 1.613 . S
N1191 C1194 1.350 . S
N1192 S1190 1.610 . S
N1192 C1193 1.351 . S
C1193 C1187 1.428 . S
C1193 N1192 1.351 . S
C1193 C1194 1.434 . S
C1194 C1185 1.429 . S
C1194 N1191 1.350 . S
C1194 C1193 1.434 . S
C1195 C1196 1.369 . S
C1195 C1197 1.419 . S
C1195 H1199 0.930 . S
C1196 C1195 1.369 . S
C1196 C1205 1.429 . S
C1197 C1195 1.419 . S
C1197 C1198 1.363 . S
C1197 H1200 0.929 . S
C1198 C1197 1.363 . S
C1198 C1204 1.428 . S
H1199 C1195 0.930 . S
H1200 C1197 0.929 . S
S1201 N1202 1.613 . S
S1201 N1203 1.610 . S
N1202 S1201 1.613 . S
N1202 C1205 1.350 . S
N1203 S1201 1.610 . S
N1203 C1204 1.351 . S
C1204 C1198 1.428 . S
C1204 N1203 1.351 . S
C1204 C1205 1.434 . S
C1205 C1196 1.429 . S
C1205 N1202 1.350 . S
C1205 C1204 1.434 . S
C1206 C1207 1.369 . S
C1206 C1208 1.419 . S
C1206 H1210 0.930 . S
C1207 C1206 1.369 . S
C1207 C1216 1.429 . S
C1208 C1206 1.419 . S
C1208 C1209 1.363 . S
C1208 H1211 0.929 . S
C1209 C1208 1.363 . S
C1209 C1215 1.428 . S
H1210 C1206 0.930 . S
H1211 C1208 0.929 . S
S1212 N1213 1.613 . S
S1212 N1214 1.610 . S
N1213 S1212 1.613 . S
N1213 C1216 1.350 . S
N1214 S1212 1.610 . S
N1214 C1215 1.351 . S
C1215 C1209 1.428 . S
C1215 N1214 1.351 . S
C1215 C1216 1.434 . S
C1216 C1207 1.429 . S
C1216 N1213 1.350 . S
C1216 C1215 1.434 . S
C1217 C1218 1.369 . S
C1217 C1219 1.419 . S
C1217 H1221 0.930 . S
C1218 C1217 1.369 . S
C1218 C1227 1.429 . S
C1219 C1217 1.419 . S
C1219 C1220 1.363 . S
C1219 H1222 0.929 . S
C1220 C1219 1.363 . S
C1220 C1226 1.428 . S
H1221 C1217 0.930 . S
H1222 C1219 0.929 . S
S1223 N1224 1.613 . S
S1223 N1225 1.610 . S
N1224 S1223 1.613 . S
N1224 C1227 1.350 . S
N1225 S1223 1.610 . S
N1225 C1226 1.351 . S
C1226 C1220 1.428 . S
C1226 N1225 1.351 . S
C1226 C1227 1.434 . S
C1227 C1218 1.429 . S
C1227 N1224 1.350 . S
C1227 C1226 1.434 . S
C1228 C1229 1.369 . S
C1228 C1230 1.419 . S
C1228 H1232 0.930 . S
C1229 C1228 1.369 . S
C1229 C1238 1.429 . S
C1230 C1228 1.419 . S
C1230 C1231 1.363 . S
C1230 H1233 0.929 . S
C1231 C1230 1.363 . S
C1231 C1237 1.428 . S
H1232 C1228 0.930 . S
H1233 C1230 0.929 . S
S1234 N1235 1.613 . S
S1234 N1236 1.610 . S
N1235 S1234 1.613 . S
N1235 C1238 1.350 . S
N1236 S1234 1.610 . S
N1236 C1237 1.351 . S
C1237 C1231 1.428 . S
C1237 N1236 1.351 . S
C1237 C1238 1.434 . S
C1238 C1229 1.429 . S
C1238 N1235 1.350 . S
C1238 C1237 1.434 . S
C1239 C1240 1.369 . S
C1239 C1241 1.419 . S
C1239 H1243 0.930 . S
C1240 C1239 1.369 . S
C1240 C1249 1.429 . S
C1241 C1239 1.419 . S
C1241 C1242 1.363 . S
C1241 H1244 0.929 . S
C1242 C1241 1.363 . S
C1242 C1248 1.428 . S
H1243 C1239 0.930 . S
H1244 C1241 0.929 . S
S1245 N1246 1.613 . S
S1245 N1247 1.610 . S
N1246 S1245 1.613 . S
N1246 C1249 1.350 . S
N1247 S1245 1.610 . S
N1247 C1248 1.351 . S
C1248 C1242 1.428 . S
C1248 N1247 1.351 . S
C1248 C1249 1.434 . S
C1249 C1240 1.429 . S
C1249 N1246 1.350 . S
C1249 C1248 1.434 . S
C1250 C1251 1.369 . S
C1250 C1252 1.419 . S
C1250 H1254 0.930 . S
C1251 C1250 1.369 . S
C1251 C1260 1.429 . S
C1252 C1250 1.419 . S
C1252 C1253 1.363 . S
C1252 H1255 0.929 . S
C1253 C1252 1.363 . S
C1253 C1259 1.428 . S
H1254 C1250 0.930 . S
H1255 C1252 0.929 . S
S1256 N1257 1.613 . S
S1256 N1258 1.610 . S
N1257 S1256 1.613 . S
N1257 C1260 1.350 . S
N1258 S1256 1.610 . S
N1258 C1259 1.351 . S
C1259 C1253 1.428 . S
C1259 N1258 1.351 . S
C1259 C1260 1.434 . S
C1260 C1251 1.429 . S
C1260 N1257 1.350 . S
C1260 C1259 1.434 . S
C1261 C1262 1.369 . S
C1261 C1263 1.419 . S
C1261 H1265 0.930 . S
C1262 C1261 1.369 . S
C1262 C1271 1.429 . S
C1263 C1261 1.419 . S
C1263 C1264 1.363 . S
C1263 H1266 0.929 . S
C1264 C1263 1.363 . S
C1264 C1270 1.428 . S
H1265 C1261 0.930 . S
H1266 C1263 0.929 . S
S1267 N1268 1.613 . S
S1267 N1269 1.610 . S
N1268 S1267 1.613 . S
N1268 C1271 1.350 . S
N1269 S1267 1.610 . S
N1269 C1270 1.351 . S
C1270 C1264 1.428 . S
C1270 N1269 1.351 . S
C1270 C1271 1.434 . S
C1271 C1262 1.429 . S
C1271 N1268 1.350 . S
C1271 C1270 1.434 . S
C1272 C1273 1.369 . S
C1272 C1274 1.419 . S
C1272 H1276 0.930 . S
C1273 C1272 1.369 . S
C1273 C1282 1.429 . S
C1274 C1272 1.419 . S
C1274 C1275 1.363 . S
C1274 H1277 0.929 . S
C1275 C1274 1.363 . S
C1275 C1281 1.428 . S
H1276 C1272 0.930 . S
H1277 C1274 0.929 . S
S1278 N1279 1.613 . S
S1278 N1280 1.610 . S
N1279 S1278 1.613 . S
N1279 C1282 1.350 . S
N1280 S1278 1.610 . S
N1280 C1281 1.351 . S
C1281 C1275 1.428 . S
C1281 N1280 1.351 . S
C1281 C1282 1.434 . S
C1282 C1273 1.429 . S
C1282 N1279 1.350 . S
C1282 C1281 1.434 . S
C1283 C1284 1.369 . S
C1283 C1285 1.419 . S
C1283 H1287 0.930 . S
C1284 C1283 1.369 . S
C1284 C1293 1.429 . S
C1285 C1283 1.419 . S
C1285 C1286 1.363 . S
C1285 H1288 0.929 . S
C1286 C1285 1.363 . S
C1286 C1292 1.428 . S
H1287 C1283 0.930 . S
H1288 C1285 0.929 . S
S1289 N1290 1.613 . S
S1289 N1291 1.610 . S
N1290 S1289 1.613 . S
N1290 C1293 1.350 . S
N1291 S1289 1.610 . S
N1291 C1292 1.351 . S
C1292 C1286 1.428 . S
C1292 N1291 1.351 . S
C1292 C1293 1.434 . S
C1293 C1284 1.429 . S
C1293 N1290 1.350 . S
C1293 C1292 1.434 . S
C1294 C1295 1.369 . S
C1294 C1296 1.419 . S
C1294 H1298 0.930 . S
C1295 C1294 1.369 . S
C1295 C1304 1.429 . S
C1296 C1294 1.419 . S
C1296 C1297 1.363 . S
C1296 H1299 0.929 . S
C1297 C1296 1.363 . S
C1297 C1303 1.428 . S
H1298 C1294 0.930 . S
H1299 C1296 0.929 . S
S1300 N1301 1.613 . S
S1300 N1302 1.610 . S
N1301 S1300 1.613 . S
N1301 C1304 1.350 . S
N1302 S1300 1.610 . S
N1302 C1303 1.351 . S
C1303 C1297 1.428 . S
C1303 N1302 1.351 . S
C1303 C1304 1.434 . S
C1304 C1295 1.429 . S
C1304 N1301 1.350 . S
C1304 C1303 1.434 . S
C1305 C1306 1.369 . S
C1305 C1307 1.419 . S
C1305 H1309 0.930 . S
C1306 C1305 1.369 . S
C1306 C1315 1.429 1_565 S
C1307 C1305 1.419 . S
C1307 C1308 1.363 . S
C1307 H1310 0.929 . S
C1308 C1307 1.363 . S
C1308 C1314 1.428 1_565 S
H1309 C1305 0.930 . S
H1310 C1307 0.929 . S
S1311 N1312 1.613 . S
S1311 N1313 1.610 . S
N1312 S1311 1.613 . S
N1312 C1315 1.350 . S
N1313 S1311 1.610 . S
N1313 C1314 1.351 . S
C1314 C1308 1.428 1_545 S
C1314 N1313 1.351 . S
C1314 C1315 1.434 . S
C1315 C1306 1.429 1_545 S
C1315 N1312 1.350 . S
C1315 C1314 1.434 . S
C1316 C1317 1.369 . S
C1316 C1318 1.419 . S
C1316 H1320 0.930 . S
C1317 C1316 1.369 . S
C1317 C1326 1.429 1_455 S
C1318 C1316 1.419 . S
C1318 C1319 1.363 . S
C1318 H1321 0.929 . S
C1319 C1318 1.363 . S
C1319 C1325 1.428 1_455 S
H1320 C1316 0.930 . S
H1321 C1318 0.929 . S
S1322 N1323 1.613 . S
S1322 N1324 1.610 . S
N1323 S1322 1.613 . S
N1323 C1326 1.350 . S
N1324 S1322 1.610 . S
N1324 C1325 1.351 . S
C1325 C1319 1.428 1_655 S
C1325 N1324 1.351 . S
C1325 C1326 1.434 . S
C1326 C1317 1.429 1_655 S
C1326 N1323 1.350 . S
C1326 C1325 1.434 . S
C1327 C1328 1.369 . S
C1327 C1329 1.419 . S
C1327 H1331 0.930 . S
C1328 C1327 1.369 . S
C1328 C1337 1.429 . S
C1329 C1327 1.419 . S
C1329 C1330 1.363 . S
C1329 H1332 0.929 . S
C1330 C1329 1.363 . S
C1330 C1336 1.428 . S
H1331 C1327 0.930 . S
H1332 C1329 0.929 . S
S1333 N1334 1.613 . S
S1333 N1335 1.610 . S
N1334 S1333 1.613 . S
N1334 C1337 1.350 . S
N1335 S1333 1.610 . S
N1335 C1336 1.351 . S
C1336 C1330 1.428 . S
C1336 N1335 1.351 . S
C1336 C1337 1.434 . S
C1337 C1328 1.429 . S
C1337 N1334 1.350 . S
C1337 C1336 1.434 . S
C1338 C1339 1.369 . S
C1338 C1340 1.419 . S
C1338 H1342 0.930 . S
C1339 C1338 1.369 . S
C1339 C1348 1.429 1_655 S
C1340 C1338 1.419 . S
C1340 C1341 1.363 . S
C1340 H1343 0.929 . S
C1341 C1340 1.363 . S
C1341 C1347 1.428 1_655 S
H1342 C1338 0.930 . S
H1343 C1340 0.929 . S
S1344 N1345 1.613 . S
S1344 N1346 1.610 . S
N1345 S1344 1.613 . S
N1345 C1348 1.350 . S
N1346 S1344 1.610 . S
N1346 C1347 1.351 . S
C1347 C1341 1.428 1_455 S
C1347 N1346 1.351 . S
C1347 C1348 1.434 . S
C1348 C1339 1.429 1_455 S
C1348 N1345 1.350 . S
C1348 C1347 1.434 . S
C1349 C1350 1.369 . S
C1349 C1351 1.419 . S
C1349 H1353 0.930 . S
C1350 C1349 1.369 . S
C1350 C1359 1.429 . S
C1351 C1349 1.419 . S
C1351 C1352 1.363 . S
C1351 H1354 0.929 . S
C1352 C1351 1.363 . S
C1352 C1358 1.428 . S
H1353 C1349 0.930 . S
H1354 C1351 0.929 . S
S1355 N1356 1.613 . S
S1355 N1357 1.610 . S
N1356 S1355 1.613 . S
N1356 C1359 1.350 . S
N1357 S1355 1.610 . S
N1357 C1358 1.351 . S
C1358 C1352 1.428 . S
C1358 N1357 1.351 . S
C1358 C1359 1.434 . S
C1359 C1350 1.429 . S
C1359 N1356 1.350 . S
C1359 C1358 1.434 . S
C1360 C1361 1.369 1_565 S
C1360 C1362 1.419 . S
C1360 H1364 0.930 . S
C1361 C1360 1.369 1_545 S
C1361 C1370 1.429 . S
C1362 C1360 1.419 . S
C1362 C1363 1.363 1_565 S
C1362 H1365 0.929 . S
C1363 C1362 1.363 1_545 S
C1363 C1369 1.428 . S
H1364 C1360 0.930 . S
H1365 C1362 0.929 . S
S1366 N1367 1.613 . S
S1366 N1368 1.610 . S
N1367 S1366 1.613 . S
N1367 C1370 1.350 . S
N1368 S1366 1.610 . S
N1368 C1369 1.351 . S
C1369 C1363 1.428 . S
C1369 N1368 1.351 . S
C1369 C1370 1.434 . S
C1370 C1361 1.429 . S
C1370 N1367 1.350 . S
C1370 C1369 1.434 . S
C1371 C1372 1.369 . S
C1371 C1373 1.419 . S
C1371 H1375 0.930 . S
C1372 C1371 1.369 . S
C1372 C1381 1.429 . S
C1373 C1371 1.419 . S
C1373 C1374 1.363 . S
C1373 H1376 0.929 . S
C1374 C1373 1.363 . S
C1374 C1380 1.428 . S
H1375 C1371 0.930 . S
H1376 C1373 0.929 . S
S1377 N1378 1.613 . S
S1377 N1379 1.610 . S
N1378 S1377 1.613 . S
N1378 C1381 1.350 . S
N1379 S1377 1.610 . S
N1379 C1380 1.351 . S
C1380 C1374 1.428 . S
C1380 N1379 1.351 . S
C1380 C1381 1.434 . S
C1381 C1372 1.429 . S
C1381 N1378 1.350 . S
C1381 C1380 1.434 . S
C1382 C1383 1.369 . S
C1382 C1384 1.419 . S
C1382 H1386 0.930 . S
C1383 C1382 1.369 . S
C1383 C1392 1.429 . S
C1384 C1382 1.419 . S
C1384 C1385 1.363 . S
C1384 H1387 0.929 . S
C1385 C1384 1.363 . S
C1385 C1391 1.428 . S
H1386 C1382 0.930 . S
H1387 C1384 0.929 . S
S1388 N1389 1.613 . S
S1388 N1390 1.610 . S
N1389 S1388 1.613 . S
N1389 C1392 1.350 . S
N1390 S1388 1.610 . S
N1390 C1391 1.351 . S
C1391 C1385 1.428 . S
C1391 N1390 1.351 . S
C1391 C1392 1.434 . S
C1392 C1383 1.429 . S
C1392 N1389 1.350 . S
C1392 C1391 1.434 . S
C1393 C1394 1.369 . S
C1393 C1395 1.419 . S
C1393 H1397 0.930 . S
C1394 C1393 1.369 . S
C1394 C1403 1.429 . S
C1395 C1393 1.419 . S
C1395 C1396 1.363 . S
C1395 H1398 0.929 . S
C1396 C1395 1.363 . S
C1396 C1402 1.428 . S
H1397 C1393 0.930 . S
H1398 C1395 0.929 . S
S1399 N1400 1.613 . S
S1399 N1401 1.610 . S
N1400 S1399 1.613 . S
N1400 C1403 1.350 . S
N1401 S1399 1.610 . S
N1401 C1402 1.351 . S
C1402 C1396 1.428 . S
C1402 N1401 1.351 . S
C1402 C1403 1.434 . S
C1403 C1394 1.429 . S
C1403 N1400 1.350 . S
C1403 C1402 1.434 . S
C1404 C1405 1.369 . S
C1404 C1406 1.419 . S
C1404 H1408 0.930 . S
C1405 C1404 1.369 . S
C1405 C1414 1.429 . S
C1406 C1404 1.419 . S
C1406 C1407 1.363 . S
C1406 H1409 0.929 . S
C1407 C1406 1.363 . S
C1407 C1413 1.428 . S
H1408 C1404 0.930 . S
H1409 C1406 0.929 . S
S1410 N1411 1.613 . S
S1410 N1412 1.610 . S
N1411 S1410 1.613 . S
N1411 C1414 1.350 . S
N1412 S1410 1.610 . S
N1412 C1413 1.351 . S
C1413 C1407 1.428 . S
C1413 N1412 1.351 . S
C1413 C1414 1.434 . S
C1414 C1405 1.429 . S
C1414 N1411 1.350 . S
C1414 C1413 1.434 . S
C1415 C1416 1.369 . S
C1415 C1417 1.419 . S
C1415 H1419 0.930 . S
C1416 C1415 1.369 . S
C1416 C1425 1.429 . S
C1417 C1415 1.419 . S
C1417 C1418 1.363 . S
C1417 H1420 0.929 . S
C1418 C1417 1.363 . S
C1418 C1424 1.428 . S
H1419 C1415 0.930 . S
H1420 C1417 0.929 . S
S1421 N1422 1.613 . S
S1421 N1423 1.610 . S
N1422 S1421 1.613 . S
N1422 C1425 1.350 . S
N1423 S1421 1.610 . S
N1423 C1424 1.351 . S
C1424 C1418 1.428 . S
C1424 N1423 1.351 . S
C1424 C1425 1.434 . S
C1425 C1416 1.429 . S
C1425 N1422 1.350 . S
C1425 C1424 1.434 . S
C1426 C1427 1.369 . S
C1426 C1428 1.419 . S
C1426 H1430 0.930 . S
C1427 C1426 1.369 . S
C1427 C1436 1.429 . S
C1428 C1426 1.419 . S
C1428 C1429 1.363 . S
C1428 H1431 0.929 . S
C1429 C1428 1.363 . S
C1429 C1435 1.428 . S
H1430 C1426 0.930 . S
H1431 C1428 0.929 . S
S1432 N1433 1.613 . S
S1432 N1434 1.610 . S
N1433 S1432 1.613 . S
N1433 C1436 1.350 . S
N1434 S1432 1.610 . S
N1434 C1435 1.351 . S
C1435 C1429 1.428 . S
C1435 N1434 1.351 . S
C1435 C1436 1.434 . S
C1436 C1427 1.429 . S
C1436 N1433 1.350 . S
C1436 C1435 1.434 . S
C1437 C1438 1.369 . S
C1437 C1439 1.419 . S
C1437 H1441 0.930 . S
C1438 C1437 1.369 . S
C1438 C1447 1.429 . S
C1439 C1437 1.419 . S
C1439 C1440 1.363 . S
C1439 H1442 0.929 . S
C1440 C1439 1.363 . S
C1440 C1446 1.428 . S
H1441 C1437 0.930 . S
H1442 C1439 0.929 . S
S1443 N1444 1.613 . S
S1443 N1445 1.610 . S
N1444 S1443 1.613 . S
N1444 C1447 1.350 . S
N1445 S1443 1.610 . S
N1445 C1446 1.351 . S
C1446 C1440 1.428 . S
C1446 N1445 1.351 . S
C1446 C1447 1.434 . S
C1447 C1438 1.429 . S
C1447 N1444 1.350 . S
C1447 C1446 1.434 . S
C1448 C1449 1.369 . S
C1448 C1450 1.419 . S
C1448 H1452 0.930 . S
C1449 C1448 1.369 . S
C1449 C1458 1.429 . S
C1450 C1448 1.419 . S
C1450 C1451 1.363 . S
C1450 H1453 0.929 . S
C1451 C1450 1.363 . S
C1451 C1457 1.428 . S
H1452 C1448 0.930 . S
H1453 C1450 0.929 . S
S1454 N1455 1.613 . S
S1454 N1456 1.610 . S
N1455 S1454 1.613 . S
N1455 C1458 1.350 . S
N1456 S1454 1.610 . S
N1456 C1457 1.351 . S
C1457 C1451 1.428 . S
C1457 N1456 1.351 . S
C1457 C1458 1.434 . S
C1458 C1449 1.429 . S
C1458 N1455 1.350 . S
C1458 C1457 1.434 . S
C1459 C1460 1.369 . S
C1459 C1461 1.419 . S
C1459 H1463 0.930 . S
C1460 C1459 1.369 . S
C1460 C1469 1.429 . S
C1461 C1459 1.419 . S
C1461 C1462 1.363 . S
C1461 H1464 0.929 . S
C1462 C1461 1.363 . S
C1462 C1468 1.428 . S
H1463 C1459 0.930 . S
H1464 C1461 0.929 . S
S1465 N1466 1.613 . S
S1465 N1467 1.610 . S
N1466 S1465 1.613 . S
N1466 C1469 1.350 . S
N1467 S1465 1.610 . S
N1467 C1468 1.351 . S
C1468 C1462 1.428 . S
C1468 N1467 1.351 . S
C1468 C1469 1.434 . S
C1469 C1460 1.429 . S
C1469 N1466 1.350 . S
C1469 C1468 1.434 . S
C1470 C1471 1.369 . S
C1470 C1472 1.419 . S
C1470 H1474 0.930 . S
C1471 C1470 1.369 . S
C1471 C1480 1.429 . S
C1472 C1470 1.419 . S
C1472 C1473 1.363 . S
C1472 H1475 0.929 . S
C1473 C1472 1.363 . S
C1473 C1479 1.428 . S
H1474 C1470 0.930 . S
H1475 C1472 0.929 . S
S1476 N1477 1.613 . S
S1476 N1478 1.610 . S
N1477 S1476 1.613 . S
N1477 C1480 1.350 . S
N1478 S1476 1.610 . S
N1478 C1479 1.351 . S
C1479 C1473 1.428 . S
C1479 N1478 1.351 . S
C1479 C1480 1.434 . S
C1480 C1471 1.429 . S
C1480 N1477 1.350 . S
C1480 C1479 1.434 . S
C1481 C1482 1.369 . S
C1481 C1483 1.419 . S
C1481 H1485 0.930 . S
C1482 C1481 1.369 . S
C1482 C1491 1.429 . S
C1483 C1481 1.419 . S
C1483 C1484 1.363 . S
C1483 H1486 0.929 . S
C1484 C1483 1.363 . S
C1484 C1490 1.428 . S
H1485 C1481 0.930 . S
H1486 C1483 0.929 . S
S1487 N1488 1.613 . S
S1487 N1489 1.610 . S
N1488 S1487 1.613 . S
N1488 C1491 1.350 . S
N1489 S1487 1.610 . S
N1489 C1490 1.351 . S
C1490 C1484 1.428 . S
C1490 N1489 1.351 . S
C1490 C1491 1.434 . S
C1491 C1482 1.429 . S
C1491 N1488 1.350 . S
C1491 C1490 1.434 . S
C1492 C1493 1.369 . S
C1492 C1494 1.419 . S
C1492 H1496 0.930 . S
C1493 C1492 1.369 . S
C1493 C1502 1.429 . S
C1494 C1492 1.419 . S
C1494 C1495 1.363 . S
C1494 H1497 0.929 . S
C1495 C1494 1.363 . S
C1495 C1501 1.428 . S
H1496 C1492 0.930 . S
H1497 C1494 0.929 . S
S1498 N1499 1.613 . S
S1498 N1500 1.610 . S
N1499 S1498 1.613 . S
N1499 C1502 1.350 . S
N1500 S1498 1.610 . S
N1500 C1501 1.351 . S
C1501 C1495 1.428 . S
C1501 N1500 1.351 . S
C1501 C1502 1.434 . S
C1502 C1493 1.429 . S
C1502 N1499 1.350 . S
C1502 C1501 1.434 . S
C910 C522 1.602 . S
C912 C737 1.467 . S
C921 C562 1.588 . S
C923 C758 1.452 . S
C932 C495 1.510 . S
C934 C780 1.208 . S
C943 C455 1.525 . S
C945 C759 1.209 1_556 S
C956 C779 1.461 . S
C954 C362 1.615 . S
C965 C402 1.574 1_554 S
C967 C738 1.211 1_556 S
C978 C733 1.456 . S
C976 C442 1.484 . S
C989 C754 1.436 . S
C987 C375 1.486 . S
C998 C415 1.585 1_554 S
C1000 C777 1.242 1_556 S
C1009 C535 1.530 . S
C1011 C756 1.214 . S
C1020 C575 1.448 . S
C1022 C775 1.380 . S
C1033 C735 1.240 . S
C1031 C482 1.510 . S
C1044 C800 1.469 . S
C1042 C42 1.602 1_455 S
C1053 C82 1.592 . S
C1055 C821 1.448 . S
C1064 C15 1.510 1_565 S
C1066 C843 1.209 . S
C1075 C695 1.520 . S
C1077 C822 1.216 . S
C1086 C602 1.616 . S
C1088 C842 1.462 . S
C1097 C642 1.571 . S
C1099 C801 1.215 . S
C1108 C682 1.490 . S
C1110 C796 1.454 . S
C1119 C615 1.486 . S
C1121 C817 1.440 . S
C1132 C840 1.242 . S
C1130 C655 1.589 . S
C1141 C55 1.533 1_565 S
C1143 C819 1.211 . S
C1154 C838 1.381 . S
C1152 C95 1.446 1_455 S
C1163 C2 1.501 . S
C1165 C798 1.253 . S
C1176 C863 1.471 . S
C1174 C282 1.601 . S
C1185 C322 1.589 . S
C1187 C884 1.457 . S
C1198 C906 1.211 . S
C1196 C255 1.509 . S
C1209 C885 1.209 . S
C1207 C215 1.526 1_545 S
C1220 C905 1.471 . S
C1218 C122 1.611 1_655 S
C1229 C162 1.576 . S
C1231 C864 1.203 . S
C1240 C202 1.485 1_655 S
C1242 C859 1.456 . S
C1251 C135 1.486 . S
C1253 C880 1.439 . S
C1264 C903 1.248 . S
C1262 C175 1.588 1_545 S
C1273 C295 1.528 . S
C1275 C882 1.217 . S
C1284 C335 1.443 . S
C1286 C901 1.390 . S
C1295 C242 1.505 . S
C1297 C861 1.248 . S
C1306 C621 1.457 . S
C1308 C736 1.403 1_565 S
C1319 C757 1.461 . S
C1317 C661 1.510 . S
C1328 C701 1.513 . S
C1330 C776 1.526 . S
C1339 C261 1.558 . S
C1341 C755 1.565 1_655 S
C1350 C301 1.506 . S
C1352 C778 1.456 . S
C1363 C734 1.501 . S
C1361 C341 1.547 . S
C1372 C141 1.456 . S
C1374 C799 1.408 . S
C1383 C181 1.509 . S
C1385 C820 1.464 . S
C1394 C221 1.513 . S
C1396 C839 1.532 . S
C1405 C501 1.556 . S
C1407 C818 1.562 . S
C1418 C841 1.454 . S
C1416 C541 1.506 . S
C1427 C581 1.548 . S
C1429 C797 1.500 . S
C1438 C381 1.456 . S
C1440 C862 1.403 . S
C1449 C421 1.509 . S
C1451 C883 1.458 . S
C1462 C902 1.533 . S
C1460 C461 1.510 . S
C1471 C21 1.552 . S
C1473 C881 1.565 . S
C1482 C61 1.507 . S
C1484 C904 1.451 . S
C1493 C101 1.547 . S
C1495 C860 1.506 . S
