# Generated by pormake.
# Topology nia, (6,6)-cn, num edge types: 1
# Building blocks:
#     Node 0, Type 0, BuildingBlock: MIFKUJ_clean_sbu_0, # of connection points: 6
#     Node 1, Type 0, BuildingBlock: MIFKUJ_clean_sbu_0, # of connection points: 6
#     Node 2, Type 1, BuildingBlock: MIDCAF_clean_sbu_0, # of connection points: 6
#     Node 3, Type 1, BuildingBlock: MIDCAF_clean_sbu_0, # of connection points: 6
#     Edge 4, Type (0, 1), BuildingBlock: ZUJKAS_clean_linker_0, # of connection points: 2
#     Edge 5, Type (0, 1), BuildingBlock: ZUJKAS_clean_linker_0, # of connection points: 2
#     Edge 6, Type (0, 1), BuildingBlock: ZUJKAS_clean_linker_0, # of connection points: 2
#     Edge 7, Type (0, 1), BuildingBlock: ZUJKAS_clean_linker_0, # of connection points: 2
#     Edge 8, Type (0, 1), BuildingBlock: ZUJKAS_clean_linker_0, # of connection points: 2
#     Edge 9, Type (0, 1), BuildingBlock: ZUJKAS_clean_linker_0, # of connection points: 2
#     Edge 10, Type (0, 1), BuildingBlock: ZUJKAS_clean_linker_0, # of connection points: 2
#     Edge 11, Type (0, 1), BuildingBlock: ZUJKAS_clean_linker_0, # of connection points: 2
#     Edge 12, Type (0, 1), BuildingBlock: ZUJKAS_clean_linker_0, # of connection points: 2
#     Edge 13, Type (0, 1), BuildingBlock: ZUJKAS_clean_linker_0, # of connection points: 2
#     Edge 14, Type (0, 1), BuildingBlock: ZUJKAS_clean_linker_0, # of connection points: 2
#     Edge 15, Type (0, 1), BuildingBlock: ZUJKAS_clean_linker_0, # of connection points: 2
# Relax obj value: 0.166
# Max RMSD: 0.248
# Mean RMSD: 0.182
data_MOF--net-nia--node1-MIFKUJ_clean_sbu_0--node2-MIDCAF_clean_sbu_0--edge1-ZUJKAS_clean_linker_0
_symmetry_space_group_name_H-M    P1
_symmetry_Int_Tables_number       1
_symmetry_cell_setting            triclinic
loop_
_symmetry_equiv_pos_as_xyz
'x, y, z'
_cell_length_a     32.595197
_cell_length_b     32.687436
_cell_length_c     38.085736
_cell_angle_alpha  88.693187
_cell_angle_beta   88.853497
_cell_angle_gamma 126.69868
loop_
_atom_site_label
_atom_site_type_symbol
_atom_site_fract_x
_atom_site_fract_y
_atom_site_fract_z
_atom_type_partial_charge
Zn0 Zn 0.01386 0.95945 0.07139 0.0
Zn1 Zn -0.01517 0.02131 1.02865 0.0
C2 C 0.93331 0.86324 1.04156 0.0
O3 O 0.91318 0.85166 0.07375 0.0
C4 C 0.06635 0.11526 0.06129 0.0
O5 O 0.09135 0.12568 1.03098 0.0
O6 O 0.03846 0.93109 0.10549 0.0
O7 O 0.07693 0.0205 0.04677 0.0
O8 O 0.03522 0.01665 1.00069 0.0
C9 C 0.05984 0.91174 0.0937 0.0
O10 O 0.06512 0.91062 0.05951 0.0
O11 O -0.02487 0.90704 1.03458 0.0
C12 C 0.93834 0.06884 1.00723 0.0
O13 O 0.93628 0.0724 1.04143 0.0
O14 O 0.95799 0.04803 0.99495 0.0
O15 O 0.92261 0.95828 0.05304 0.0
O16 O 0.96623 0.96775 0.09928 0.0
O17 O 0.02168 0.07359 0.0659 0.0
C18 C 0.07595 0.02742 1.01391 0.0
C19 C 0.92443 0.95388 0.08611 0.0
Zn20 Zn 0.02439 0.97321 0.52594 0.0
Zn21 Zn 0.97031 0.00772 0.56756 0.0
C22 C 0.12521 0.04611 0.55171 0.0
O23 O 0.1374 0.05484 0.51787 0.0
C24 C 0.87054 0.93514 0.53941 0.0
O25 O 0.85615 0.92442 0.57288 0.0
O26 O 0.04931 0.9435 0.49339 0.0
O27 O 0.96181 0.91287 0.55207 0.0
O28 O -0.02527 0.95885 0.59744 0.0
C29 C 0.07547 0.92959 0.50549 0.0
O30 O 0.08542 0.93444 0.53903 0.0
O31 O 0.07855 0.01343 0.56167 0.0
C32 C 0.92985 0.06177 0.5866 0.0
O33 O 0.93403 0.07012 0.55235 0.0
O34 O 0.94351 0.03572 0.5997 0.0
O35 O 0.03335 0.06823 0.54202 0.0
O36 O 0.01966 0.02223 0.49644 0.0
O37 O 0.9176 0.96868 0.53093 0.0
C38 C 0.9585 0.91607 0.58506 0.0
C39 C 0.03621 0.06505 0.50897 0.0
Zn40 Zn 0.33273 0.663 0.23124 0.0
Zn41 Zn 0.32519 0.65224 0.36867 0.0
Zn42 Zn 0.33106 0.65665 0.29946 0.0
C43 C 0.42893 0.71671 0.34844 0.0
C44 C 0.28163 0.55346 0.34756 0.0
O45 O 0.29613 0.6948 0.28176 0.0
O46 O 0.31393 0.70996 0.22451 0.0
C47 C 0.43296 0.70752 0.25009 0.0
O48 O 0.41041 0.70049 0.318 0.0
O49 O 0.39943 0.70475 0.375 0.0
O50 O 0.29765 0.57946 0.37469 0.0
O51 O 0.28818 0.57525 0.31719 0.0
O52 O 0.40545 0.69071 0.22364 0.0
O53 O 0.41253 0.70119 0.28096 0.0
O54 O 0.28806 0.57799 0.28036 0.0
O55 O 0.27999 0.58927 0.22412 0.0
C56 C 0.27011 0.55972 0.25017 0.0
O57 O 0.29161 0.6892 0.31837 0.0
O58 O 0.27791 0.67088 0.37571 0.0
C59 C 0.29521 0.71432 0.2522 0.0
C60 C 0.27247 0.68931 0.3483 0.0
Zn61 Zn 0.66969 0.32276 0.86596 0.0
Zn62 Zn 0.67209 0.32915 0.72754 0.0
Zn63 Zn 0.66695 0.32557 0.79619 0.0
C64 C 0.71475 0.42788 0.74694 0.0
C65 C 0.56841 0.26446 0.7486 0.0
O66 O 0.70399 0.28918 0.81348 0.0
O67 O 0.71086 0.29721 0.8711 0.0
C68 C 0.71894 0.42442 0.84457 0.0
O69 O 0.7091 0.40671 0.77743 0.0
O70 O 0.69842 0.4013 0.7201 0.0
O71 O 0.59775 0.27581 0.72207 0.0
O72 O 0.58699 0.28153 0.77889 0.0
O73 O 0.70455 0.39642 0.87223 0.0
O74 O 0.70924 0.40497 0.81407 0.0
O75 O 0.58646 0.28015 0.81648 0.0
O76 O 0.59413 0.27397 0.87368 0.0
C77 C 0.56621 0.26304 0.84774 0.0
O78 O 0.70474 0.29132 0.77655 0.0
O79 O 0.71954 0.31106 0.71943 0.0
C80 C 0.71891 0.28303 0.84297 0.0
C81 C 0.72394 0.29135 0.74656 0.0
H82 H 0.10064 0.86191 0.07673 0.0
H83 H 0.13303 0.82854 0.11645 0.0
H84 H 0.09515 0.88129 0.20528 0.0
H85 H 0.06257 0.91507 0.16561 0.0
H86 H 0.19611 0.90707 0.20453 0.0
H87 H 0.04786 0.70145 0.18454 0.0
H88 H 0.07551 0.7388 0.14405 0.0
H89 H 0.03911 0.74968 0.17319 0.0
C90 C 0.09891 0.86627 0.10471 0.0
C91 C 0.07884 0.89101 0.11799 0.0
C92 C 0.11719 0.84691 0.12739 0.0
C93 C 0.11574 0.85177 0.16382 0.0
C94 C 0.0962 0.87682 0.17725 0.0
H95 H 0.20478 0.68522 0.28335 0.0
H96 H 0.15925 0.72244 0.27193 0.0
C97 C 0.07759 0.89603 0.15455 0.0
C98 C 0.13646 0.83209 0.18741 0.0
H99 H 0.12686 0.72441 0.20754 0.0
C100 C 0.18046 0.86699 0.20579 0.0
C101 C 0.11545 0.7797 0.18959 0.0
C102 C 0.06656 0.74012 0.17208 0.0
C103 C 0.20618 0.85134 0.22416 0.0
C104 C 0.18756 0.7996 0.22381 0.0
C105 C 0.14141 0.76415 0.20763 0.0
C106 C 0.2182 0.78246 0.23591 0.0
C107 C 0.25397 0.89081 0.24272 0.0
C108 C 0.26666 0.80424 0.21991 0.0
C109 C 0.2927 0.78337 0.22668 0.0
C110 C 0.27088 0.74038 0.24962 0.0
C111 C 0.2231 0.71939 0.26648 0.0
C112 C 0.19692 0.7403 0.25968 0.0
H113 H 0.25087 0.92024 0.25345 0.0
H114 H 0.26173 0.87348 0.26451 0.0
H115 H 0.28714 0.91045 0.22355 0.0
H116 H 0.28329 0.83588 0.20079 0.0
H117 H 0.32924 0.79984 0.21304 0.0
H118 H 0.22837 0.10183 0.53894 0.0
H119 H 0.29497 0.13656 0.58181 0.0
H120 H 0.18108 0.081 0.66621 0.0
H121 H 0.11377 0.04456 0.62337 0.0
H122 H 0.32571 0.20708 0.6294 0.0
H123 H 0.25415 0.02225 0.69745 0.0
H124 H 0.22909 0.0259 0.65667 0.0
H125 H 0.20914 0.03692 0.69749 0.0
C126 C 0.21739 0.09703 0.56661 0.0
C127 C 0.16572 0.07014 0.57775 0.0
C128 C 0.25556 0.11692 0.59112 0.0
C129 C 0.24301 0.11063 0.6273 0.0
C130 C 0.19159 0.08518 0.63851 0.0
H131 H 0.50677 0.29311 0.76087 0.0
H132 H 0.42045 0.25247 0.73966 0.0
C133 C 0.15321 0.06475 0.61397 0.0
C134 C 0.28425 0.13113 0.65285 0.0
H135 H 0.32791 0.09641 0.71942 0.0
C136 C 0.32604 0.18298 0.64927 0.0
C137 C 0.28475 0.09949 0.6786 0.0
C138 C 0.24216 0.04296 0.6827 0.0
C139 C 0.36904 0.20378 0.66982 0.0
C140 C 0.36959 0.17221 0.69563 0.0
C141 C 0.32715 0.12067 0.69995 0.0
C142 C 0.41609 0.1907 0.71552 0.0
C143 C 0.41454 0.25869 0.66223 0.0
C144 C 0.44065 0.16743 0.71133 0.0
C145 C 0.48892 0.18947 0.72478 0.0
C146 C 0.51325 0.23485 0.7429 0.0
C147 C 0.48764 0.2567 0.74867 0.0
C148 C 0.43894 0.23422 0.73569 0.0
H149 H 0.41244 0.27363 0.63636 0.0
H150 H 0.41558 0.2828 0.68276 0.0
H151 H 0.45093 0.26286 0.66241 0.0
H152 H 0.42388 0.13391 0.69584 0.0
H153 H 0.5085 0.1726 0.71937 0.0
H154 H 0.16671 0.19513 0.06797 0.0
H155 H 0.20244 0.26199 0.11067 0.0
H156 H 0.05156 0.18949 0.15843 0.0
H157 H 0.01605 0.12139 0.11677 0.0
H158 H 0.18282 0.32726 0.11471 0.0
H159 H 0.13169 0.22712 0.24504 0.0
H160 H 0.12663 0.19643 0.20484 0.0
H161 H 0.07636 0.20071 0.21924 0.0
C162 C 0.14132 0.19297 0.08799 0.0
C163 C 0.08858 0.15316 0.08894 0.0
C164 C 0.16178 0.23113 0.11245 0.0
C165 C 0.12987 0.2306 0.13814 0.0
C166 C 0.0773 0.19012 0.13963 0.0
H167 H 0.18458 0.50245 0.2133 0.0
H168 H 0.14758 0.4177 0.19141 0.0
C169 C 0.05693 0.15143 0.11552 0.0
C170 C 0.15055 0.27546 0.16025 0.0
H171 H 0.15353 0.31203 0.24423 0.0
C172 C 0.17692 0.32378 0.14307 0.0
C173 C 0.14336 0.27128 0.19736 0.0
C174 C 0.11844 0.22112 0.21771 0.0
C175 C 0.19489 0.36764 0.16165 0.0
C176 C 0.18488 0.36305 0.19839 0.0
C177 C 0.16022 0.3152 0.21595 0.0
C178 C 0.19929 0.40799 0.21828 0.0
C179 C 0.22446 0.41864 0.14163 0.0
C180 C 0.23826 0.42894 0.24254 0.0
C181 C 0.25901 0.47722 0.2555 0.0
C182 C 0.24087 0.50478 0.24427 0.0
C183 C 0.19923 0.4819 0.22222 0.0
C184 C 0.17822 0.43365 0.20966 0.0
H185 H 0.24091 0.41753 0.11614 0.0
H186 H 0.19828 0.42886 0.13594 0.0
H187 H 0.2561 0.4492 0.1572 0.0
H188 H 0.25484 0.40954 0.24962 0.0
H189 H 0.2914 0.49439 0.27229 0.0
H190 H 0.9176 0.05316 0.65853 0.0
H191 H 0.88126 0.08532 0.6958 0.0
H192 H 0.8588 0.14806 0.60379 0.0
H193 H 0.89456 0.11589 0.5664 0.0
H194 H 0.91353 0.1865 0.7026 0.0
H195 H 0.71682 0.06107 0.65455 0.0
H196 H 0.76356 0.04904 0.64707 0.0
H197 H 0.76465 0.09518 0.61954 0.0
C198 C 0.90482 0.07372 0.64622 0.0
C199 C 0.90872 0.08171 0.60945 0.0
C200 C 0.88414 0.09209 0.66757 0.0
C201 C 0.86662 0.11833 0.6525 0.0
C202 C 0.87117 0.127 0.6159 0.0
H203 H 0.81647 0.33124 0.71492 0.0
H204 H 0.85225 0.28565 0.69992 0.0
C205 C 0.89188 0.1088 0.59457 0.0
C206 C 0.84418 0.13753 0.67479 0.0
H207 H 0.73831 0.13479 0.68463 0.0
C208 C 0.87496 0.17472 0.69909 0.0
C209 C 0.79349 0.12127 0.67077 0.0
C210 C 0.7575 0.07905 0.64684 0.0
C211 C 0.85736 0.19834 0.71788 0.0
C212 C 0.80812 0.18488 0.71174 0.0
C213 C 0.77629 0.14548 0.68907 0.0
C214 C 0.79041 0.21404 0.72581 0.0
C215 C 0.89182 0.23797 0.74376 0.0
C216 C 0.74372 0.18895 0.74527 0.0
C217 C 0.72321 0.21499 0.75365 0.0
C218 C 0.74915 0.26641 0.74284 0.0
C219 C 0.79635 0.2918 0.72412 0.0
C220 C 0.81692 0.26589 0.71578 0.0
H221 H 0.91996 0.23227 0.7537 0.0
H222 H 0.91353 0.27645 0.73049 0.0
H223 H 0.86928 0.23699 0.76648 0.0
H224 H 0.72221 0.14874 0.75274 0.0
H225 H 0.68574 0.19423 0.76678 0.0
H226 H 0.91589 0.94126 0.15787 0.0
H227 H 0.83932 0.90552 0.19589 0.0
H228 H 0.75193 0.882 0.10497 0.0
H229 H 0.82837 0.91838 0.06676 0.0
H230 H 0.7349 0.92595 0.16052 0.0
H231 H 0.71825 0.75344 0.20615 0.0
H232 H 0.7786 0.81384 0.21269 0.0
H233 H 0.75895 0.7935 0.16885 0.0
C234 C 0.88037 0.92845 0.14592 0.0
C235 C 0.87818 0.9324 0.10922 0.0
C236 C 0.83663 0.90787 0.16772 0.0
C237 C 0.78986 0.89056 0.15321 0.0
C238 C 0.78769 0.89509 0.11667 0.0
H239 H 0.478 0.68093 0.20581 0.0
H240 H 0.56886 0.72893 0.18952 0.0
C241 C 0.83138 0.91574 0.09486 0.0
C242 C 0.74279 0.86729 0.17582 0.0
H243 H 0.65536 0.76148 0.22761 0.0
C244 C 0.71772 0.89031 0.17557 0.0
C245 C 0.72062 0.82078 0.19536 0.0
C246 C 0.74513 0.79357 0.19572 0.0
C247 C 0.66999 0.86705 0.19321 0.0
C248 C 0.64718 0.81988 0.21203 0.0
C249 C 0.67326 0.79791 0.21345 0.0
C250 C 0.59325 0.78908 0.22558 0.0
C251 C 0.64302 0.89163 0.18989 0.0
C252 C 0.57688 0.80639 0.25194 0.0
C253 C 0.5246 0.77896 0.26117 0.0
C254 C 0.48838 0.73374 0.24444 0.0
C255 C 0.50521 0.71568 0.21914 0.0
C256 C 0.5571 0.74294 0.20992 0.0
H257 H 0.66251 0.92402 0.17007 0.0
H258 H 0.60283 0.8632 0.18238 0.0
H259 H 0.64215 0.90638 0.21563 0.0
H260 H 0.60429 0.84166 0.26462 0.0
H261 H 0.51238 0.79402 0.28033 0.0
H262 H 0.94071 0.90799 0.65642 0.0
H263 H 0.9057 0.83266 0.69564 0.0
H264 H 0.892 0.74604 0.60703 0.0
H265 H 0.92723 0.82097 0.56771 0.0
H266 H 0.81057 0.73713 0.69401 0.0
H267 H 0.96848 0.71965 0.67719 0.0
H268 H -0.02461 0.77715 0.66452 0.0
H269 H 0.94537 0.72418 0.63599 0.0
C270 C 0.93047 0.87296 0.64529 0.0
C271 C 0.93694 0.87056 0.60892 0.0
C272 C 0.9105 0.83 0.66776 0.0
C273 C 0.89716 0.78408 0.65433 0.0
C274 C 0.90315 0.78145 0.61805 0.0
H275 H 0.68864 0.47304 0.70199 0.0
H276 H 0.73445 0.56405 0.68825 0.0
C277 C 0.92293 0.82425 0.59556 0.0
C278 C 0.87481 0.73801 0.67778 0.0
H279 H 0.88742 0.64424 0.69941 0.0
C280 C 0.82781 0.71728 0.69575 0.0
C281 C 0.89782 0.71268 0.68067 0.0
C282 C 0.94983 0.73483 0.66386 0.0
C283 C 0.80148 0.66998 0.71441 0.0
C284 C 0.82247 0.64262 0.71472 0.0
C285 C 0.87116 0.66508 0.69893 0.0
C286 C 0.79185 0.58823 0.72687 0.0
C287 C 0.75066 0.64893 0.73274 0.0
C288 C 0.80902 0.57149 0.75313 0.0
C289 C 0.78274 0.51913 0.76101 0.0
C290 C 0.73942 0.48305 0.74244 0.0
C291 C 0.72185 0.50008 0.71679 0.0
C292 C 0.74772 0.55209 0.70913 0.0
H293 H 0.74806 0.68007 0.74001 0.0
H294 H 0.71944 0.62412 0.71471 0.0
H295 H 0.74437 0.62574 0.75683 0.0
H296 H 0.84344 0.59881 0.76677 0.0
H297 H 0.79776 0.50688 0.78023 0.0
H298 H 0.03994 0.88678 0.44176 0.0
H299 H 0.06684 0.84402 0.40654 0.0
H300 H 0.1812 0.88209 0.48137 0.0
H301 H 0.15329 0.9229 0.5172 0.0
H302 H 0.1555 0.87241 0.37358 0.0
H303 H 0.10112 0.7296 0.48074 0.0
H304 H 0.0837 0.77252 0.48237 0.0
H305 H 0.14628 0.79327 0.4949 0.0
C306 C 0.07089 0.88607 0.4506 0.0
C307 C 0.09392 0.90735 0.48254 0.0
C308 C 0.08627 0.86174 0.43043 0.0
C309 C 0.12515 0.85872 0.44179 0.0
C310 C 0.15003 0.88252 0.47266 0.0
H311 H 0.30954 0.78815 0.33537 0.0
H312 H 0.2678 0.82753 0.35211 0.0
C313 C 0.13416 0.906 0.49306 0.0
C314 C 0.13886 0.82936 0.42229 0.0
H315 H 0.15615 0.73713 0.43449 0.0
C316 C 0.15507 0.84233 0.38669 0.0
C317 C 0.13697 0.78919 0.43909 0.0
C318 C 0.11552 0.76993 0.47625 0.0
C319 C 0.17167 0.81771 0.36793 0.0
C320 C 0.17345 0.78023 0.38561 0.0
C321 C 0.15529 0.76607 0.42081 0.0
C322 C 0.19568 0.7562 0.36923 0.0
C323 C 0.18686 0.8321 0.32946 0.0
C324 C 0.16928 0.70304 0.37303 0.0
C325 C 0.19378 0.68098 0.36468 0.0
C326 C 0.24458 0.71146 0.35142 0.0
C327 C 0.27007 0.76403 0.34529 0.0
C328 C 0.24599 0.78639 0.35453 0.0
H329 H 0.16567 0.84521 0.31723 0.0
H330 H 0.22827 0.86423 0.3268 0.0
H331 H 0.17973 0.79967 0.31468 0.0
H332 H 0.13048 0.67884 0.3842 0.0
H333 H 0.17359 0.6403 0.36961 0.0
H334 H 0.09526 0.06743 0.94649 0.0
H335 H 0.17298 0.10357 0.90934 0.0
H336 H 0.23892 0.07132 0.99242 0.0
H337 H 0.16183 0.03565 1.02992 0.0
H338 H 0.28456 0.18891 0.93637 0.0
H339 H 0.24494 0.00704 0.89388 0.0
H340 H 0.19441 0.01253 0.90557 0.0
H341 H 0.23079 0.01039 0.93926 0.0
C342 C 0.12623 0.06786 0.95682 0.0
C343 C 0.12245 0.04875 0.99117 0.0
C344 C 0.1705 0.0885 0.93557 0.0
C345 C 0.21125 0.08963 0.94815 0.0
C346 C 0.20756 0.07036 0.98226 0.0
H347 H 0.50896 0.18171 0.89357 0.0
H348 H 0.4194 0.13844 0.91245 0.0
C349 C 0.16361 0.05024 1.00366 0.0
C350 C 0.25872 0.11265 0.92632 0.0
H351 H 0.3283 0.08282 0.88103 0.0
C352 C 0.29406 0.16596 0.92377 0.0
C353 C 0.27063 0.08229 0.91022 0.0
C354 C 0.23324 0.02481 0.91205 0.0
C355 C 0.34238 0.18988 0.90686 0.0
C356 C 0.35491 0.15948 0.89123 0.0
C357 C 0.3186 0.10608 0.89281 0.0
C358 C 0.40712 0.18201 0.8764 0.0
C359 C 0.38047 0.24725 0.90766 0.0
C360 C 0.42966 0.21992 0.84914 0.0
C361 C 0.48117 0.24517 0.83872 0.0
C362 C 0.51037 0.23192 0.85462 0.0
C363 C 0.48708 0.19236 0.88068 0.0
C364 C 0.43591 0.16755 0.89139 0.0
H365 H 0.36899 0.26341 0.92753 0.0
H366 H 0.41916 0.25869 0.91361 0.0
H367 H 0.38297 0.26453 0.88155 0.0
H368 H 0.40805 0.23132 0.83687 0.0
H369 H 0.49902 0.27714 0.81995 0.0
H370 H 0.07003 0.16076 0.52685 0.0
H371 H 0.10453 0.23568 0.48771 0.0
H372 H 0.08443 0.14774 0.39822 0.0
H373 H 0.05032 0.07247 0.43728 0.0
H374 H 0.17964 0.24145 0.39733 0.0
H375 H 0.02698 0.26483 0.42156 0.0
H376 H 0.05237 0.26049 0.46167 0.0
H377 H 0.0192 0.20677 0.43379 0.0
C378 C 0.07277 0.1572 0.49885 0.0
C379 C 0.05729 0.11055 0.48521 0.0
C380 C 0.09211 0.19999 0.47647 0.0
C381 C 0.09608 0.197 0.43999 0.0
C382 C 0.08121 0.1507 0.42626 0.0
H383 H 0.19491 0.47585 0.31662 0.0
H384 H 0.14744 0.38365 0.33012 0.0
C385 C 0.06177 0.10778 0.44864 0.0
C386 C 0.11802 0.24306 0.41659 0.0
H387 H 0.10788 0.33921 0.39785 0.0
C388 C 0.16345 0.26236 0.3969 0.0
C389 C 0.0963 0.26975 0.41537 0.0
C390 C 0.04572 0.24911 0.43394 0.0
C391 C 0.18969 0.30956 0.37813 0.0
C392 C 0.1703 0.33835 0.37953 0.0
C393 C 0.12297 0.31731 0.39706 0.0
C394 C 0.20151 0.39271 0.36725 0.0
C395 C 0.23873 0.32894 0.35779 0.0
C396 C 0.24757 0.42808 0.38345 0.0
C397 C 0.27441 0.48023 0.37581 0.0
C398 C 0.25589 0.49811 0.35169 0.0
C399 C 0.21048 0.46281 0.3347 0.0
C400 C 0.18329 0.41034 0.34255 0.0
H401 H 0.23931 0.29689 0.34954 0.0
H402 H 0.24409 0.35236 0.33409 0.0
H403 H 0.27159 0.35309 0.37482 0.0
H404 H 0.2617 0.41548 0.40319 0.0
H405 H 0.30913 0.50676 0.38946 0.0
H406 H 0.9258 0.05806 0.93611 0.0
H407 H 0.88892 0.08873 0.89793 0.0
H408 H 0.86778 0.155 0.98663 0.0
H409 H 0.90335 0.12364 1.02497 0.0
H410 H 0.7825 0.09947 0.94842 0.0
H411 H 0.9533 0.23355 0.86017 0.0
H412 H 0.93297 0.16891 0.86284 0.0
H413 H 0.95712 0.20692 0.90093 0.0
C414 C 0.91352 0.0794 0.94743 0.0
C415 C 0.91753 0.08842 0.9836 0.0
C416 C 0.89273 0.09716 0.92552 0.0
C417 C 0.87617 0.12472 0.93933 0.0
C418 C 0.88037 0.13387 0.97538 0.0
H419 H 0.81464 0.32701 0.86442 0.0
H420 H 0.85255 0.28376 0.88085 0.0
C421 C 0.90077 0.11592 0.99728 0.0
C422 C 0.85276 0.14282 0.91689 0.0
H423 H 0.87804 0.22556 0.84861 0.0
C424 C 0.80319 0.1267 0.92638 0.0
C425 C 0.87994 0.17844 0.8882 0.0
C426 C 0.93393 0.19841 0.87748 0.0
C427 C 0.78071 0.14653 0.90893 0.0
C428 C 0.80806 0.1826 0.88048 0.0
C429 C 0.85699 0.19752 0.87017 0.0
C430 C 0.78896 0.20966 0.86421 0.0
C431 C 0.72903 0.13072 0.92241 0.0
C432 C 0.74154 0.18282 0.84812 0.0
C433 C 0.71971 0.20751 0.83905 0.0
C434 C 0.74568 0.25954 0.84502 0.0
C435 C 0.79439 0.28698 0.85907 0.0
C436 C 0.81602 0.26232 0.8684 0.0
H437 H 0.71802 0.11075 0.94872 0.0
H438 H 0.7288 0.16444 0.92424 0.0
H439 H 0.69944 0.10427 0.90394 0.0
H440 H 0.72025 0.14228 0.84431 0.0
H441 H 0.68135 0.18533 0.82937 0.0
H442 H 0.76693 0.86432 0.54871 0.0
H443 H 0.70302 0.82838 0.50381 0.0
H444 H 0.82259 0.91465 0.42302 0.0
H445 H 0.88701 0.95152 0.46793 0.0
H446 H 0.74549 0.92407 0.41552 0.0
H447 H 0.66344 0.72004 0.43367 0.0
H448 H 0.66437 0.74668 0.47455 0.0
H449 H 0.72381 0.77015 0.45139 0.0
C450 C 0.77979 0.87528 0.52139 0.0
C451 C 0.8321 0.91076 0.51194 0.0
C452 C 0.74317 0.85438 0.49569 0.0
C453 C 0.75806 0.86812 0.45998 0.0
C454 C 0.81029 0.90319 0.45039 0.0
H455 H 0.49751 0.70238 0.32114 0.0
H456 H 0.58596 0.74415 0.33897 0.0
C457 C 0.84702 0.92418 0.47611 0.0
C458 C 0.71857 0.84841 0.4332 0.0
H459 H 0.60908 0.73842 0.40684 0.0
C460 C 0.71622 0.88345 0.41309 0.0
C461 C 0.68102 0.79547 0.42933 0.0
C462 C 0.68357 0.75595 0.44811 0.0
C463 C 0.67516 0.86692 0.39129 0.0
C464 C 0.63509 0.81409 0.39009 0.0
C465 C 0.6395 0.77899 0.40806 0.0
C466 C 0.58552 0.79474 0.37443 0.0
C467 C 0.67436 0.90626 0.37052 0.0
C468 C 0.55633 0.80982 0.38802 0.0
C469 C 0.50626 0.78624 0.37785 0.0
C470 C 0.48435 0.74718 0.3538 0.0
C471 C 0.51401 0.73319 0.33916 0.0
C472 C 0.5643 0.75678 0.34947 0.0
H473 H 0.71383 0.94107 0.36411 0.0
H474 H 0.65406 0.89088 0.34569 0.0
H475 H 0.65427 0.91779 0.38651 0.0
H476 H 0.57129 0.838 0.40797 0.0
H477 H 0.4839 0.7972 0.38984 0.0
H478 H -0.02614 0.86808 0.97657 0.0
H479 H 0.93794 0.80063 0.9343 0.0
H480 H 0.80309 0.70377 1.0024 0.0
H481 H 0.83931 0.77048 0.04521 0.0
H482 H 0.84323 0.65635 0.9834 0.0
H483 H 0.82639 0.74516 0.86427 0.0
H484 H 0.88948 0.78263 0.88118 0.0
H485 H 0.83678 0.77179 0.90705 0.0
C486 C 0.93621 0.83269 0.98233 0.0
C487 C 0.90953 0.82453 1.01437 0.0
C488 C 0.91553 0.79429 0.95796 0.0
C489 C 0.86749 0.74732 0.96491 0.0
C490 C 0.84015 0.73976 0.9964 0.0
H491 H 0.68221 0.48013 0.84089 0.0
H492 H 0.72248 0.56465 0.86526 0.0
C493 C 0.86095 0.77792 1.02089 0.0
C494 C 0.8479 0.70422 0.94128 0.0
H495 H 0.81648 0.66727 0.85672 0.0
C496 C 0.83719 0.65877 0.95575 0.0
C497 C 0.83973 0.70724 0.90521 0.0
C498 C 0.8482 0.75415 0.88854 0.0
C499 C 0.81889 0.61642 0.93528 0.0
C500 C 0.81238 0.61993 0.89896 0.0
C501 C 0.82237 0.66506 0.88443 0.0
C502 C 0.79336 0.57592 0.87648 0.0
C503 C 0.80574 0.56788 0.95297 0.0
C504 C 0.82104 0.55584 0.87286 0.0
C505 C 0.79794 0.50763 0.85936 0.0
C506 C 0.74744 0.47954 0.84845 0.0
C507 C 0.72148 0.50163 0.84883 0.0
C508 C 0.7444 0.54972 0.86277 0.0
H509 H 0.80085 0.56752 0.98196 0.0
H510 H 0.76995 0.5338 0.94289 0.0
H511 H 0.83722 0.56465 0.94741 0.0
H512 H 0.85915 0.57584 0.8828 0.0
H513 H 0.81834 0.49092 0.85949 0.0
loop_
_geom_bond_atom_site_label_1
_geom_bond_atom_site_label_2
_geom_bond_distance
_geom_bond_site_symmetry_2
_ccdc_geom_bond_type
Zn0 O6 1.969 . S
Zn0 O7 1.965 1_565 S
Zn0 O11 2.023 1_454 S
Zn0 O16 1.969 1_455 S
Zn1 O8 1.974 . S
Zn1 O14 1.978 . S
Zn1 O15 1.963 1_456 S
Zn1 O17 2.014 1_556 S
C2 O3 1.234 . S
C2 O11 1.058 . S
O3 C2 1.234 . S
C4 O5 1.229 . S
C4 O17 1.058 . S
O5 C4 1.229 . S
O6 Zn0 1.969 . S
O6 C9 1.267 . S
O7 Zn0 1.965 1_545 S
O7 C18 1.260 1_554 S
O8 Zn1 1.974 . S
O8 C18 1.258 . S
C9 O6 1.267 . S
C9 O10 1.228 . S
O10 C9 1.228 . S
O11 Zn0 2.023 1_656 S
O11 C2 1.058 . S
C12 O13 1.228 . S
C12 O14 1.267 1_655 S
O13 C12 1.228 . S
O14 Zn1 1.978 . S
O14 C12 1.267 1_455 S
O15 Zn1 1.963 1_654 S
O15 C19 1.260 1_545 S
O16 Zn0 1.969 1_655 S
O16 C19 1.258 . S
O17 Zn1 2.014 1_554 S
O17 C4 1.058 . S
C18 O7 1.260 1_556 S
C18 O8 1.258 . S
C19 O15 1.260 1_565 S
C19 O16 1.258 . S
Zn20 O26 1.969 1_545 S
Zn20 O27 1.965 1_545 S
Zn20 O31 2.024 . S
Zn20 O36 1.969 . S
Zn21 O28 1.969 1_545 S
Zn21 O34 1.969 . S
Zn21 O35 1.965 1_655 S
Zn21 O37 2.024 1_545 S
C22 O23 1.229 . S
C22 O31 1.058 . S
O23 C22 1.229 . S
C24 O25 1.229 . S
C24 O37 1.058 . S
O25 C24 1.229 . S
O26 Zn20 1.969 1_565 S
O26 C29 1.267 . S
O27 Zn20 1.965 1_565 S
O27 C38 1.260 1_455 S
O28 Zn21 1.969 1_565 S
O28 C38 1.258 . S
C29 O26 1.267 . S
C29 O30 1.228 . S
O30 C29 1.228 . S
O31 Zn20 2.024 . S
O31 C22 1.058 . S
C32 O33 1.228 . S
C32 O34 1.267 . S
O33 C32 1.228 . S
O34 Zn21 1.969 . S
O34 C32 1.267 . S
O35 Zn21 1.965 1_455 S
O35 C39 1.260 . S
O36 Zn20 1.969 . S
O36 C39 1.258 . S
O37 Zn21 2.024 1_565 S
O37 C24 1.058 . S
C38 O27 1.260 1_655 S
C38 O28 1.258 . S
C39 O35 1.260 . S
C39 O36 1.258 . S
Zn40 O46 1.920 . S
Zn40 O52 1.898 . S
Zn40 O55 1.905 . S
Zn41 O49 1.905 . S
Zn41 O50 1.898 . S
Zn41 O58 1.920 . S
Zn42 O45 2.080 . S
Zn42 O48 2.114 . S
Zn42 O51 2.120 . S
Zn42 O53 2.120 . S
Zn42 O54 2.114 . S
Zn42 O57 2.080 . S
C43 O48 1.166 . S
C43 O49 1.182 . S
C44 O50 1.167 . S
C44 O51 1.299 . S
O45 Zn42 2.080 . S
O45 C59 1.305 . S
O46 Zn40 1.920 . S
O46 C59 1.234 . S
C47 O52 1.167 . S
C47 O53 1.299 . S
O48 Zn42 2.114 . S
O48 C43 1.166 . S
O49 Zn41 1.905 . S
O49 C43 1.182 . S
O50 Zn41 1.898 . S
O50 C44 1.167 . S
O51 Zn42 2.120 . S
O51 C44 1.299 . S
O52 Zn40 1.898 . S
O52 C47 1.167 . S
O53 Zn42 2.120 . S
O53 C47 1.299 . S
O54 Zn42 2.114 . S
O54 C56 1.166 . S
O55 Zn40 1.905 . S
O55 C56 1.182 . S
C56 O54 1.166 . S
C56 O55 1.182 . S
O57 Zn42 2.080 . S
O57 C60 1.305 . S
O58 Zn41 1.920 . S
O58 C60 1.234 . S
C59 O45 1.305 . S
C59 O46 1.234 . S
C60 O57 1.305 . S
C60 O58 1.234 . S
Zn61 O67 1.920 . S
Zn61 O73 1.898 . S
Zn61 O76 1.905 . S
Zn62 O70 1.905 . S
Zn62 O71 1.898 . S
Zn62 O79 1.920 . S
Zn63 O66 2.080 . S
Zn63 O69 2.114 . S
Zn63 O72 2.120 . S
Zn63 O74 2.120 . S
Zn63 O75 2.114 . S
Zn63 O78 2.080 . S
C64 O69 1.166 . S
C64 O70 1.182 . S
C65 O71 1.167 . S
C65 O72 1.299 . S
O66 Zn63 2.080 . S
O66 C80 1.305 . S
O67 Zn61 1.920 . S
O67 C80 1.234 . S
C68 O73 1.167 . S
C68 O74 1.299 . S
O69 Zn63 2.114 . S
O69 C64 1.166 . S
O70 Zn62 1.905 . S
O70 C64 1.182 . S
O71 Zn62 1.898 . S
O71 C65 1.167 . S
O72 Zn63 2.120 . S
O72 C65 1.299 . S
O73 Zn61 1.898 . S
O73 C68 1.167 . S
O74 Zn63 2.120 . S
O74 C68 1.299 . S
O75 Zn63 2.114 . S
O75 C77 1.166 . S
O76 Zn61 1.905 . S
O76 C77 1.182 . S
C77 O75 1.166 . S
C77 O76 1.182 . S
O78 Zn63 2.080 . S
O78 C81 1.305 . S
O79 Zn62 1.920 . S
O79 C81 1.234 . S
C80 O66 1.305 . S
C80 O67 1.234 . S
C81 O78 1.305 . S
C81 O79 1.234 . S
H82 C90 0.929 . S
H83 C92 0.930 . S
H84 C94 0.930 . S
H85 C97 0.929 . S
H86 C100 0.930 . S
H87 C102 0.960 . S
H88 C102 0.960 . S
H89 C102 0.960 . S
C90 H82 0.929 . S
C90 C91 1.377 . S
C90 C92 1.384 . S
C91 C90 1.377 . S
C91 C97 1.390 . S
C92 H83 0.930 . S
C92 C90 1.384 . S
C92 C93 1.372 . S
C93 C92 1.372 . S
C93 C94 1.400 . S
C93 C98 1.490 . S
C94 H84 0.930 . S
C94 C93 1.400 . S
C94 C97 1.386 . S
H95 C111 0.930 . S
H96 C112 0.931 . S
C97 H85 0.929 . S
C97 C91 1.390 . S
C97 C94 1.386 . S
C98 C93 1.490 . S
C98 C100 1.395 . S
C98 C101 1.403 . S
H99 C105 0.930 . S
C100 H86 0.930 . S
C100 C98 1.395 . S
C100 C103 1.403 . S
C101 C98 1.403 . S
C101 C102 1.524 . S
C101 C105 1.400 . S
C102 H87 0.960 . S
C102 H88 0.960 . S
C102 H89 0.960 . S
C102 C101 1.524 . S
C103 C100 1.403 . S
C103 C104 1.392 . S
C103 C107 1.495 . S
C104 C103 1.392 . S
C104 C105 1.385 . S
C104 C106 1.478 . S
C105 H99 0.930 . S
C105 C101 1.400 . S
C105 C104 1.385 . S
C106 C104 1.478 . S
C106 C108 1.381 . S
C106 C112 1.383 . S
C107 C103 1.495 . S
C107 H113 0.959 . S
C107 H114 0.961 . S
C107 H115 0.960 . S
C108 C106 1.381 . S
C108 C109 1.394 . S
C108 H116 0.930 . S
C109 C108 1.394 . S
C109 C110 1.383 . S
C109 H117 0.929 . S
C110 C109 1.383 . S
C110 C111 1.377 . S
C111 H95 0.930 . S
C111 C110 1.377 . S
C111 C112 1.379 . S
C112 H96 0.931 . S
C112 C106 1.383 . S
C112 C111 1.379 . S
H113 C107 0.959 . S
H114 C107 0.961 . S
H115 C107 0.960 . S
H116 C108 0.930 . S
H117 C109 0.929 . S
H118 C126 0.929 . S
H119 C128 0.930 . S
H120 C130 0.930 . S
H121 C133 0.929 . S
H122 C136 0.930 . S
H123 C138 0.960 . S
H124 C138 0.960 . S
H125 C138 0.960 . S
C126 H118 0.929 . S
C126 C127 1.377 . S
C126 C128 1.384 . S
C127 C126 1.377 . S
C127 C133 1.390 . S
C128 H119 0.930 . S
C128 C126 1.384 . S
C128 C129 1.372 . S
C129 C128 1.372 . S
C129 C130 1.400 . S
C129 C134 1.490 . S
C130 H120 0.930 . S
C130 C129 1.400 . S
C130 C133 1.386 . S
H131 C147 0.930 . S
H132 C148 0.931 . S
C133 H121 0.929 . S
C133 C127 1.390 . S
C133 C130 1.386 . S
C134 C129 1.490 . S
C134 C136 1.395 . S
C134 C137 1.403 . S
H135 C141 0.930 . S
C136 H122 0.930 . S
C136 C134 1.395 . S
C136 C139 1.403 . S
C137 C134 1.403 . S
C137 C138 1.524 . S
C137 C141 1.400 . S
C138 H123 0.960 . S
C138 H124 0.960 . S
C138 H125 0.960 . S
C138 C137 1.524 . S
C139 C136 1.403 . S
C139 C140 1.392 . S
C139 C143 1.495 . S
C140 C139 1.392 . S
C140 C141 1.385 . S
C140 C142 1.478 . S
C141 H135 0.930 . S
C141 C137 1.400 . S
C141 C140 1.385 . S
C142 C140 1.478 . S
C142 C144 1.381 . S
C142 C148 1.383 . S
C143 C139 1.495 . S
C143 H149 0.959 . S
C143 H150 0.961 . S
C143 H151 0.960 . S
C144 C142 1.381 . S
C144 C145 1.394 . S
C144 H152 0.930 . S
C145 C144 1.394 . S
C145 C146 1.383 . S
C145 H153 0.929 . S
C146 C145 1.383 . S
C146 C147 1.377 . S
C147 H131 0.930 . S
C147 C146 1.377 . S
C147 C148 1.379 . S
C148 H132 0.931 . S
C148 C142 1.383 . S
C148 C147 1.379 . S
H149 C143 0.959 . S
H150 C143 0.961 . S
H151 C143 0.960 . S
H152 C144 0.930 . S
H153 C145 0.929 . S
H154 C162 0.929 . S
H155 C164 0.930 . S
H156 C166 0.930 . S
H157 C169 0.929 . S
H158 C172 0.930 . S
H159 C174 0.960 . S
H160 C174 0.960 . S
H161 C174 0.960 . S
C162 H154 0.929 . S
C162 C163 1.377 . S
C162 C164 1.384 . S
C163 C162 1.377 . S
C163 C169 1.390 . S
C164 H155 0.930 . S
C164 C162 1.384 . S
C164 C165 1.372 . S
C165 C164 1.372 . S
C165 C166 1.400 . S
C165 C170 1.490 . S
C166 H156 0.930 . S
C166 C165 1.400 . S
C166 C169 1.386 . S
H167 C183 0.930 . S
H168 C184 0.931 . S
C169 H157 0.929 . S
C169 C163 1.390 . S
C169 C166 1.386 . S
C170 C165 1.490 . S
C170 C172 1.395 . S
C170 C173 1.403 . S
H171 C177 0.930 . S
C172 H158 0.930 . S
C172 C170 1.395 . S
C172 C175 1.403 . S
C173 C170 1.403 . S
C173 C174 1.524 . S
C173 C177 1.400 . S
C174 H159 0.960 . S
C174 H160 0.960 . S
C174 H161 0.960 . S
C174 C173 1.524 . S
C175 C172 1.403 . S
C175 C176 1.392 . S
C175 C179 1.495 . S
C176 C175 1.392 . S
C176 C177 1.385 . S
C176 C178 1.478 . S
C177 H171 0.930 . S
C177 C173 1.400 . S
C177 C176 1.385 . S
C178 C176 1.478 . S
C178 C180 1.381 . S
C178 C184 1.383 . S
C179 C175 1.495 . S
C179 H185 0.959 . S
C179 H186 0.961 . S
C179 H187 0.960 . S
C180 C178 1.381 . S
C180 C181 1.394 . S
C180 H188 0.930 . S
C181 C180 1.394 . S
C181 C182 1.383 . S
C181 H189 0.929 . S
C182 C181 1.383 . S
C182 C183 1.377 . S
C183 H167 0.930 . S
C183 C182 1.377 . S
C183 C184 1.379 . S
C184 H168 0.931 . S
C184 C178 1.383 . S
C184 C183 1.379 . S
H185 C179 0.959 . S
H186 C179 0.961 . S
H187 C179 0.960 . S
H188 C180 0.930 . S
H189 C181 0.929 . S
H190 C198 0.929 . S
H191 C200 0.930 . S
H192 C202 0.930 . S
H193 C205 0.929 . S
H194 C208 0.930 . S
H195 C210 0.960 . S
H196 C210 0.960 . S
H197 C210 0.960 . S
C198 H190 0.929 . S
C198 C199 1.377 . S
C198 C200 1.384 . S
C199 C198 1.377 . S
C199 C205 1.390 . S
C200 H191 0.930 . S
C200 C198 1.384 . S
C200 C201 1.372 . S
C201 C200 1.372 . S
C201 C202 1.400 . S
C201 C206 1.490 . S
C202 H192 0.930 . S
C202 C201 1.400 . S
C202 C205 1.386 . S
H203 C219 0.930 . S
H204 C220 0.931 . S
C205 H193 0.929 . S
C205 C199 1.390 . S
C205 C202 1.386 . S
C206 C201 1.490 . S
C206 C208 1.395 . S
C206 C209 1.403 . S
H207 C213 0.930 . S
C208 H194 0.930 . S
C208 C206 1.395 . S
C208 C211 1.403 . S
C209 C206 1.403 . S
C209 C210 1.524 . S
C209 C213 1.400 . S
C210 H195 0.960 . S
C210 H196 0.960 . S
C210 H197 0.960 . S
C210 C209 1.524 . S
C211 C208 1.403 . S
C211 C212 1.392 . S
C211 C215 1.495 . S
C212 C211 1.392 . S
C212 C213 1.385 . S
C212 C214 1.478 . S
C213 H207 0.930 . S
C213 C209 1.400 . S
C213 C212 1.385 . S
C214 C212 1.478 . S
C214 C216 1.381 . S
C214 C220 1.383 . S
C215 C211 1.495 . S
C215 H221 0.959 . S
C215 H222 0.961 . S
C215 H223 0.960 . S
C216 C214 1.381 . S
C216 C217 1.394 . S
C216 H224 0.930 . S
C217 C216 1.394 . S
C217 C218 1.383 . S
C217 H225 0.929 . S
C218 C217 1.383 . S
C218 C219 1.377 . S
C219 H203 0.930 . S
C219 C218 1.377 . S
C219 C220 1.379 . S
C220 H204 0.931 . S
C220 C214 1.383 . S
C220 C219 1.379 . S
H221 C215 0.959 . S
H222 C215 0.961 . S
H223 C215 0.960 . S
H224 C216 0.930 . S
H225 C217 0.929 . S
H226 C234 0.929 . S
H227 C236 0.930 . S
H228 C238 0.930 . S
H229 C241 0.929 . S
H230 C244 0.930 . S
H231 C246 0.960 . S
H232 C246 0.960 . S
H233 C246 0.960 . S
C234 H226 0.929 . S
C234 C235 1.377 . S
C234 C236 1.384 . S
C235 C234 1.377 . S
C235 C241 1.390 . S
C236 H227 0.930 . S
C236 C234 1.384 . S
C236 C237 1.372 . S
C237 C236 1.372 . S
C237 C238 1.400 . S
C237 C242 1.490 . S
C238 H228 0.930 . S
C238 C237 1.400 . S
C238 C241 1.386 . S
H239 C255 0.930 . S
H240 C256 0.931 . S
C241 H229 0.929 . S
C241 C235 1.390 . S
C241 C238 1.386 . S
C242 C237 1.490 . S
C242 C244 1.395 . S
C242 C245 1.403 . S
H243 C249 0.930 . S
C244 H230 0.930 . S
C244 C242 1.395 . S
C244 C247 1.403 . S
C245 C242 1.403 . S
C245 C246 1.524 . S
C245 C249 1.400 . S
C246 H231 0.960 . S
C246 H232 0.960 . S
C246 H233 0.960 . S
C246 C245 1.524 . S
C247 C244 1.403 . S
C247 C248 1.392 . S
C247 C251 1.495 . S
C248 C247 1.392 . S
C248 C249 1.385 . S
C248 C250 1.478 . S
C249 H243 0.930 . S
C249 C245 1.400 . S
C249 C248 1.385 . S
C250 C248 1.478 . S
C250 C252 1.381 . S
C250 C256 1.383 . S
C251 C247 1.495 . S
C251 H257 0.959 . S
C251 H258 0.961 . S
C251 H259 0.960 . S
C252 C250 1.381 . S
C252 C253 1.394 . S
C252 H260 0.930 . S
C253 C252 1.394 . S
C253 C254 1.383 . S
C253 H261 0.929 . S
C254 C253 1.383 . S
C254 C255 1.377 . S
C255 H239 0.930 . S
C255 C254 1.377 . S
C255 C256 1.379 . S
C256 H240 0.931 . S
C256 C250 1.383 . S
C256 C255 1.379 . S
H257 C251 0.959 . S
H258 C251 0.961 . S
H259 C251 0.960 . S
H260 C252 0.930 . S
H261 C253 0.929 . S
H262 C270 0.929 . S
H263 C272 0.930 . S
H264 C274 0.930 . S
H265 C277 0.929 . S
H266 C280 0.930 . S
H267 C282 0.960 . S
H268 C282 0.960 . S
H269 C282 0.960 . S
C270 H262 0.929 . S
C270 C271 1.377 . S
C270 C272 1.384 . S
C271 C270 1.377 . S
C271 C277 1.390 . S
C272 H263 0.930 . S
C272 C270 1.384 . S
C272 C273 1.372 . S
C273 C272 1.372 . S
C273 C274 1.400 . S
C273 C278 1.490 . S
C274 H264 0.930 . S
C274 C273 1.400 . S
C274 C277 1.386 . S
H275 C291 0.930 . S
H276 C292 0.931 . S
C277 H265 0.929 . S
C277 C271 1.390 . S
C277 C274 1.386 . S
C278 C273 1.490 . S
C278 C280 1.395 . S
C278 C281 1.403 . S
H279 C285 0.930 . S
C280 H266 0.930 . S
C280 C278 1.395 . S
C280 C283 1.403 . S
C281 C278 1.403 . S
C281 C282 1.524 . S
C281 C285 1.400 . S
C282 H267 0.960 . S
C282 H268 0.960 . S
C282 H269 0.960 . S
C282 C281 1.524 . S
C283 C280 1.403 . S
C283 C284 1.392 . S
C283 C287 1.495 . S
C284 C283 1.392 . S
C284 C285 1.385 . S
C284 C286 1.478 . S
C285 H279 0.930 . S
C285 C281 1.400 . S
C285 C284 1.385 . S
C286 C284 1.478 . S
C286 C288 1.381 . S
C286 C292 1.383 . S
C287 C283 1.495 . S
C287 H293 0.959 . S
C287 H294 0.961 . S
C287 H295 0.960 . S
C288 C286 1.381 . S
C288 C289 1.394 . S
C288 H296 0.930 . S
C289 C288 1.394 . S
C289 C290 1.383 . S
C289 H297 0.929 . S
C290 C289 1.383 . S
C290 C291 1.377 . S
C291 H275 0.930 . S
C291 C290 1.377 . S
C291 C292 1.379 . S
C292 H276 0.931 . S
C292 C286 1.383 . S
C292 C291 1.379 . S
H293 C287 0.959 . S
H294 C287 0.961 . S
H295 C287 0.960 . S
H296 C288 0.930 . S
H297 C289 0.929 . S
H298 C306 0.929 . S
H299 C308 0.930 . S
H300 C310 0.930 . S
H301 C313 0.929 . S
H302 C316 0.930 . S
H303 C318 0.960 . S
H304 C318 0.960 . S
H305 C318 0.960 . S
C306 H298 0.929 . S
C306 C307 1.377 . S
C306 C308 1.384 . S
C307 C306 1.377 . S
C307 C313 1.390 . S
C308 H299 0.930 . S
C308 C306 1.384 . S
C308 C309 1.372 . S
C309 C308 1.372 . S
C309 C310 1.400 . S
C309 C314 1.490 . S
C310 H300 0.930 . S
C310 C309 1.400 . S
C310 C313 1.386 . S
H311 C327 0.930 . S
H312 C328 0.931 . S
C313 H301 0.929 . S
C313 C307 1.390 . S
C313 C310 1.386 . S
C314 C309 1.490 . S
C314 C316 1.395 . S
C314 C317 1.403 . S
H315 C321 0.930 . S
C316 H302 0.930 . S
C316 C314 1.395 . S
C316 C319 1.403 . S
C317 C314 1.403 . S
C317 C318 1.524 . S
C317 C321 1.400 . S
C318 H303 0.960 . S
C318 H304 0.960 . S
C318 H305 0.960 . S
C318 C317 1.524 . S
C319 C316 1.403 . S
C319 C320 1.392 . S
C319 C323 1.495 . S
C320 C319 1.392 . S
C320 C321 1.385 . S
C320 C322 1.478 . S
C321 H315 0.930 . S
C321 C317 1.400 . S
C321 C320 1.385 . S
C322 C320 1.478 . S
C322 C324 1.381 . S
C322 C328 1.383 . S
C323 C319 1.495 . S
C323 H329 0.959 . S
C323 H330 0.961 . S
C323 H331 0.960 . S
C324 C322 1.381 . S
C324 C325 1.394 . S
C324 H332 0.930 . S
C325 C324 1.394 . S
C325 C326 1.383 . S
C325 H333 0.929 . S
C326 C325 1.383 . S
C326 C327 1.377 . S
C327 H311 0.930 . S
C327 C326 1.377 . S
C327 C328 1.379 . S
C328 H312 0.931 . S
C328 C322 1.383 . S
C328 C327 1.379 . S
H329 C323 0.959 . S
H330 C323 0.961 . S
H331 C323 0.960 . S
H332 C324 0.930 . S
H333 C325 0.929 . S
H334 C342 0.929 . S
H335 C344 0.930 . S
H336 C346 0.930 . S
H337 C349 0.929 . S
H338 C352 0.930 . S
H339 C354 0.960 . S
H340 C354 0.960 . S
H341 C354 0.960 . S
C342 H334 0.929 . S
C342 C343 1.377 . S
C342 C344 1.384 . S
C343 C342 1.377 . S
C343 C349 1.390 . S
C344 H335 0.930 . S
C344 C342 1.384 . S
C344 C345 1.372 . S
C345 C344 1.372 . S
C345 C346 1.400 . S
C345 C350 1.490 . S
C346 H336 0.930 . S
C346 C345 1.400 . S
C346 C349 1.386 . S
H347 C363 0.930 . S
H348 C364 0.931 . S
C349 H337 0.929 . S
C349 C343 1.390 . S
C349 C346 1.386 . S
C350 C345 1.490 . S
C350 C352 1.395 . S
C350 C353 1.403 . S
H351 C357 0.930 . S
C352 H338 0.930 . S
C352 C350 1.395 . S
C352 C355 1.403 . S
C353 C350 1.403 . S
C353 C354 1.524 . S
C353 C357 1.400 . S
C354 H339 0.960 . S
C354 H340 0.960 . S
C354 H341 0.960 . S
C354 C353 1.524 . S
C355 C352 1.403 . S
C355 C356 1.392 . S
C355 C359 1.495 . S
C356 C355 1.392 . S
C356 C357 1.385 . S
C356 C358 1.478 . S
C357 H351 0.930 . S
C357 C353 1.400 . S
C357 C356 1.385 . S
C358 C356 1.478 . S
C358 C360 1.381 . S
C358 C364 1.383 . S
C359 C355 1.495 . S
C359 H365 0.959 . S
C359 H366 0.961 . S
C359 H367 0.960 . S
C360 C358 1.381 . S
C360 C361 1.394 . S
C360 H368 0.930 . S
C361 C360 1.394 . S
C361 C362 1.383 . S
C361 H369 0.929 . S
C362 C361 1.383 . S
C362 C363 1.377 . S
C363 H347 0.930 . S
C363 C362 1.377 . S
C363 C364 1.379 . S
C364 H348 0.931 . S
C364 C358 1.383 . S
C364 C363 1.379 . S
H365 C359 0.959 . S
H366 C359 0.961 . S
H367 C359 0.960 . S
H368 C360 0.930 . S
H369 C361 0.929 . S
H370 C378 0.929 . S
H371 C380 0.930 . S
H372 C382 0.930 . S
H373 C385 0.929 . S
H374 C388 0.930 . S
H375 C390 0.960 . S
H376 C390 0.960 . S
H377 C390 0.960 . S
C378 H370 0.929 . S
C378 C379 1.377 . S
C378 C380 1.384 . S
C379 C378 1.377 . S
C379 C385 1.390 . S
C380 H371 0.930 . S
C380 C378 1.384 . S
C380 C381 1.372 . S
C381 C380 1.372 . S
C381 C382 1.400 . S
C381 C386 1.490 . S
C382 H372 0.930 . S
C382 C381 1.400 . S
C382 C385 1.386 . S
H383 C399 0.930 . S
H384 C400 0.931 . S
C385 H373 0.929 . S
C385 C379 1.390 . S
C385 C382 1.386 . S
C386 C381 1.490 . S
C386 C388 1.395 . S
C386 C389 1.403 . S
H387 C393 0.930 . S
C388 H374 0.930 . S
C388 C386 1.395 . S
C388 C391 1.403 . S
C389 C386 1.403 . S
C389 C390 1.524 . S
C389 C393 1.400 . S
C390 H375 0.960 . S
C390 H376 0.960 . S
C390 H377 0.960 . S
C390 C389 1.524 . S
C391 C388 1.403 . S
C391 C392 1.392 . S
C391 C395 1.495 . S
C392 C391 1.392 . S
C392 C393 1.385 . S
C392 C394 1.478 . S
C393 H387 0.930 . S
C393 C389 1.400 . S
C393 C392 1.385 . S
C394 C392 1.478 . S
C394 C396 1.381 . S
C394 C400 1.383 . S
C395 C391 1.495 . S
C395 H401 0.959 . S
C395 H402 0.961 . S
C395 H403 0.960 . S
C396 C394 1.381 . S
C396 C397 1.394 . S
C396 H404 0.930 . S
C397 C396 1.394 . S
C397 C398 1.383 . S
C397 H405 0.929 . S
C398 C397 1.383 . S
C398 C399 1.377 . S
C399 H383 0.930 . S
C399 C398 1.377 . S
C399 C400 1.379 . S
C400 H384 0.931 . S
C400 C394 1.383 . S
C400 C399 1.379 . S
H401 C395 0.959 . S
H402 C395 0.961 . S
H403 C395 0.960 . S
H404 C396 0.930 . S
H405 C397 0.929 . S
H406 C414 0.929 . S
H407 C416 0.930 . S
H408 C418 0.930 . S
H409 C421 0.929 . S
H410 C424 0.930 . S
H411 C426 0.960 . S
H412 C426 0.960 . S
H413 C426 0.960 . S
C414 H406 0.929 . S
C414 C415 1.377 . S
C414 C416 1.384 . S
C415 C414 1.377 . S
C415 C421 1.390 . S
C416 H407 0.930 . S
C416 C414 1.384 . S
C416 C417 1.372 . S
C417 C416 1.372 . S
C417 C418 1.400 . S
C417 C422 1.490 . S
C418 H408 0.930 . S
C418 C417 1.400 . S
C418 C421 1.386 . S
H419 C435 0.930 . S
H420 C436 0.931 . S
C421 H409 0.929 . S
C421 C415 1.390 . S
C421 C418 1.386 . S
C422 C417 1.490 . S
C422 C424 1.395 . S
C422 C425 1.403 . S
H423 C429 0.930 . S
C424 H410 0.930 . S
C424 C422 1.395 . S
C424 C427 1.403 . S
C425 C422 1.403 . S
C425 C426 1.524 . S
C425 C429 1.400 . S
C426 H411 0.960 . S
C426 H412 0.960 . S
C426 H413 0.960 . S
C426 C425 1.524 . S
C427 C424 1.403 . S
C427 C428 1.392 . S
C427 C431 1.495 . S
C428 C427 1.392 . S
C428 C429 1.385 . S
C428 C430 1.478 . S
C429 H423 0.930 . S
C429 C425 1.400 . S
C429 C428 1.385 . S
C430 C428 1.478 . S
C430 C432 1.381 . S
C430 C436 1.383 . S
C431 C427 1.495 . S
C431 H437 0.959 . S
C431 H438 0.961 . S
C431 H439 0.960 . S
C432 C430 1.381 . S
C432 C433 1.394 . S
C432 H440 0.930 . S
C433 C432 1.394 . S
C433 C434 1.383 . S
C433 H441 0.929 . S
C434 C433 1.383 . S
C434 C435 1.377 . S
C435 H419 0.930 . S
C435 C434 1.377 . S
C435 C436 1.379 . S
C436 H420 0.931 . S
C436 C430 1.383 . S
C436 C435 1.379 . S
H437 C431 0.959 . S
H438 C431 0.961 . S
H439 C431 0.960 . S
H440 C432 0.930 . S
H441 C433 0.929 . S
H442 C450 0.929 . S
H443 C452 0.930 . S
H444 C454 0.930 . S
H445 C457 0.929 . S
H446 C460 0.930 . S
H447 C462 0.960 . S
H448 C462 0.960 . S
H449 C462 0.960 . S
C450 H442 0.929 . S
C450 C451 1.377 . S
C450 C452 1.384 . S
C451 C450 1.377 . S
C451 C457 1.390 . S
C452 H443 0.930 . S
C452 C450 1.384 . S
C452 C453 1.372 . S
C453 C452 1.372 . S
C453 C454 1.400 . S
C453 C458 1.490 . S
C454 H444 0.930 . S
C454 C453 1.400 . S
C454 C457 1.386 . S
H455 C471 0.930 . S
H456 C472 0.931 . S
C457 H445 0.929 . S
C457 C451 1.390 . S
C457 C454 1.386 . S
C458 C453 1.490 . S
C458 C460 1.395 . S
C458 C461 1.403 . S
H459 C465 0.930 . S
C460 H446 0.930 . S
C460 C458 1.395 . S
C460 C463 1.403 . S
C461 C458 1.403 . S
C461 C462 1.524 . S
C461 C465 1.400 . S
C462 H447 0.960 . S
C462 H448 0.960 . S
C462 H449 0.960 . S
C462 C461 1.524 . S
C463 C460 1.403 . S
C463 C464 1.392 . S
C463 C467 1.495 . S
C464 C463 1.392 . S
C464 C465 1.385 . S
C464 C466 1.478 . S
C465 H459 0.930 . S
C465 C461 1.400 . S
C465 C464 1.385 . S
C466 C464 1.478 . S
C466 C468 1.381 . S
C466 C472 1.383 . S
C467 C463 1.495 . S
C467 H473 0.959 . S
C467 H474 0.961 . S
C467 H475 0.960 . S
C468 C466 1.381 . S
C468 C469 1.394 . S
C468 H476 0.930 . S
C469 C468 1.394 . S
C469 C470 1.383 . S
C469 H477 0.929 . S
C470 C469 1.383 . S
C470 C471 1.377 . S
C471 H455 0.930 . S
C471 C470 1.377 . S
C471 C472 1.379 . S
C472 H456 0.931 . S
C472 C466 1.383 . S
C472 C471 1.379 . S
H473 C467 0.959 . S
H474 C467 0.961 . S
H475 C467 0.960 . S
H476 C468 0.930 . S
H477 C469 0.929 . S
H478 C486 0.929 1_455 S
H479 C488 0.930 . S
H480 C490 0.930 . S
H481 C493 0.929 . S
H482 C496 0.930 . S
H483 C498 0.960 . S
H484 C498 0.960 . S
H485 C498 0.960 . S
C486 H478 0.929 1_655 S
C486 C487 1.377 . S
C486 C488 1.384 . S
C487 C486 1.377 . S
C487 C493 1.390 . S
C488 H479 0.930 . S
C488 C486 1.384 . S
C488 C489 1.372 . S
C489 C488 1.372 . S
C489 C490 1.400 . S
C489 C494 1.490 . S
C490 H480 0.930 . S
C490 C489 1.400 . S
C490 C493 1.386 . S
H491 C507 0.930 . S
H492 C508 0.931 . S
C493 H481 0.929 . S
C493 C487 1.390 . S
C493 C490 1.386 . S
C494 C489 1.490 . S
C494 C496 1.395 . S
C494 C497 1.403 . S
H495 C501 0.930 . S
C496 H482 0.930 . S
C496 C494 1.395 . S
C496 C499 1.403 . S
C497 C494 1.403 . S
C497 C498 1.524 . S
C497 C501 1.400 . S
C498 H483 0.960 . S
C498 H484 0.960 . S
C498 H485 0.960 . S
C498 C497 1.524 . S
C499 C496 1.403 . S
C499 C500 1.392 . S
C499 C503 1.495 . S
C500 C499 1.392 . S
C500 C501 1.385 . S
C500 C502 1.478 . S
C501 H495 0.930 . S
C501 C497 1.400 . S
C501 C500 1.385 . S
C502 C500 1.478 . S
C502 C504 1.381 . S
C502 C508 1.383 . S
C503 C499 1.495 . S
C503 H509 0.959 . S
C503 H510 0.961 . S
C503 H511 0.960 . S
C504 C502 1.381 . S
C504 C505 1.394 . S
C504 H512 0.930 . S
C505 C504 1.394 . S
C505 C506 1.383 . S
C505 H513 0.929 . S
C506 C505 1.383 . S
C506 C507 1.377 . S
C507 H491 0.930 . S
C507 C506 1.377 . S
C507 C508 1.379 . S
C508 H492 0.931 . S
C508 C502 1.383 . S
C508 C507 1.379 . S
H509 C503 0.959 . S
H510 C503 0.961 . S
H511 C503 0.960 . S
H512 C504 0.930 . S
H513 C505 0.929 . S
C91 C9 1.403 . S
C110 C59 1.292 . S
C127 C22 1.155 . S
C146 C65 1.034 . S
C163 C4 1.218 . S
C182 C56 1.105 . S
C199 C32 1.490 . S
C218 C81 1.395 . S
C235 C19 1.819 . S
C254 C47 1.685 . S
C290 C64 1.670 . S
C271 C38 1.770 . S
C307 C29 1.407 . S
C326 C60 1.350 . S
C362 C77 1.655 . S
C343 C18 1.769 . S
C398 C44 1.671 . S
C379 C39 1.817 . S
C434 C80 1.366 . S
C415 C12 1.491 . S
C470 C43 1.129 . S
C451 C24 1.208 . S
C506 C68 1.048 . S
C487 C2 1.160 . S
