# Generated by pormake.
# Topology nia, (6,6)-cn, num edge types: 1
# Building blocks:
#     Node 0, Type 0, BuildingBlock: BETDIP_clean_sbu_0, # of connection points: 6
#     Node 1, Type 0, BuildingBlock: BETDIP_clean_sbu_0, # of connection points: 6
#     Node 2, Type 1, BuildingBlock: MIDCAF_clean_sbu_0, # of connection points: 6
#     Node 3, Type 1, BuildingBlock: MIDCAF_clean_sbu_0, # of connection points: 6
#     Edge 4, Type (0, 1), BuildingBlock: FUNLAD_clean_linker_0, # of connection points: 2
#     Edge 5, Type (0, 1), BuildingBlock: FUNLAD_clean_linker_0, # of connection points: 2
#     Edge 6, Type (0, 1), BuildingBlock: FUNLAD_clean_linker_0, # of connection points: 2
#     Edge 7, Type (0, 1), BuildingBlock: FUNLAD_clean_linker_0, # of connection points: 2
#     Edge 8, Type (0, 1), BuildingBlock: FUNLAD_clean_linker_0, # of connection points: 2
#     Edge 9, Type (0, 1), BuildingBlock: FUNLAD_clean_linker_0, # of connection points: 2
#     Edge 10, Type (0, 1), BuildingBlock: FUNLAD_clean_linker_0, # of connection points: 2
#     Edge 11, Type (0, 1), BuildingBlock: FUNLAD_clean_linker_0, # of connection points: 2
#     Edge 12, Type (0, 1), BuildingBlock: FUNLAD_clean_linker_0, # of connection points: 2
#     Edge 13, Type (0, 1), BuildingBlock: FUNLAD_clean_linker_0, # of connection points: 2
#     Edge 14, Type (0, 1), BuildingBlock: FUNLAD_clean_linker_0, # of connection points: 2
#     Edge 15, Type (0, 1), BuildingBlock: FUNLAD_clean_linker_0, # of connection points: 2
# Relax obj value: 0.289
# Max RMSD: 0.265
# Mean RMSD: 0.237
data_MOF--net-nia--node1-BETDIP_clean_sbu_0--node2-MIDCAF_clean_sbu_0--edge1-FUNLAD_clean_linker_0
_symmetry_space_group_name_H-M    P1
_symmetry_Int_Tables_number       1
_symmetry_cell_setting            triclinic
loop_
_symmetry_equiv_pos_as_xyz
'x, y, z'
_cell_length_a     32.201054
_cell_length_b     29.07906
_cell_length_c     38.255663
_cell_angle_alpha  101.13735
_cell_angle_beta   71.36598
_cell_angle_gamma 128.76357
loop_
_atom_site_label
_atom_site_type_symbol
_atom_site_fract_x
_atom_site_fract_y
_atom_site_fract_z
_atom_type_partial_charge
Tb0 Tb 0.97759 0.04855 1.02283 0.0
Tb1 Tb 0.02163 0.99417 0.04389 0.0
C2 C 0.92794 0.08766 1.01942 0.0
C3 C 0.91057 0.09649 0.99166 0.0
C4 C 0.86322 0.09383 1.00287 0.0
C5 C 0.84728 0.10526 0.97771 0.0
C6 C 0.87851 0.11974 0.94073 0.0
C7 C 0.92547 0.12121 0.92937 0.0
C8 C 0.94126 0.10947 0.9546 0.0
C9 C 0.0771 0.08541 0.98318 0.0
C10 C 0.02735 0.09455 0.09313 0.0
C11 C 0.06967 0.95344 0.04801 0.0
C12 C 0.08365 0.94096 0.07634 0.0
C13 C 0.13151 0.94476 0.0667 0.0
C14 C 0.14358 0.92849 0.09197 0.0
C15 C 0.10783 0.90787 0.12749 0.0
C16 C 0.0606 0.90577 0.13744 0.0
C17 C 0.04869 0.92233 0.11214 0.0
C18 C 0.92199 0.95771 0.08316 0.0
C19 C 0.97189 0.94838 0.97348 0.0
O20 O 0.98106 0.12074 1.0161 0.0
O21 O 0.90271 0.03298 1.02814 0.0
O22 O 0.05789 0.07395 1.01728 0.0
O23 O 0.04167 0.08083 0.97072 0.0
O24 O -0.00713 0.08705 0.07679 0.0
O25 O 0.05014 0.06733 0.08176 0.0
O26 O 0.01728 0.92084 0.04907 0.0
O27 O 0.09551 0.00899 0.04106 0.0
O28 O 0.94173 0.9689 0.04911 0.0
O29 O 0.9571 0.96242 0.09609 0.0
O30 O 0.00661 0.95593 0.98964 0.0
O31 O 0.94915 0.97562 0.98501 0.0
H32 H 0.83905 0.08395 0.03135 0.0
H33 H 0.81137 0.1045 0.98755 0.0
H34 H 0.95007 0.13157 0.90102 0.0
H35 H 0.97779 0.11132 0.94528 0.0
H36 H 0.15895 0.95891 0.0392 0.0
H37 H 0.17988 0.92997 0.08316 0.0
H38 H 0.03255 0.89075 0.16468 0.0
H39 H 0.01164 0.91941 0.1203 0.0
Tb40 Tb 0.05546 0.06317 0.57731 0.0
Tb41 Tb -0.00705 0.01937 0.5148 0.0
C42 C 0.09296 0.07438 0.62899 0.0
C43 C 0.11175 0.04941 0.64376 0.0
C44 C 0.1228 0.0682 0.67834 0.0
C45 C 0.14875 0.05293 0.69105 0.0
C46 C 0.16419 0.01849 0.66928 0.0
C47 C 0.14926 0.99607 0.63569 0.0
C48 C 0.12323 0.01154 0.62297 0.0
C49 C 0.08645 0.14482 0.5333 0.0
C50 C 0.08356 1.00224 0.50535 0.0
C51 C 0.96932 0.01798 0.45797 0.0
C52 C 0.92219 0.99294 0.44321 0.0
C53 C 0.92885 0.02456 0.41592 0.0
C54 C 0.8866 1.00012 0.399 0.0
C55 C 0.83685 0.9434 0.40904 0.0
C56 C 0.82991 0.9122 0.43698 0.0
C57 C 0.87223 0.93683 0.45399 0.0
C58 C 0.94394 0.93636 0.56557 0.0
C59 C 0.95941 0.07216 0.5899 0.0
O60 O 0.03998 0.0412 0.63137 0.0
O61 O 0.12412 0.10298 0.59739 0.0
O62 O 0.071 0.09329 0.52422 0.0
O63 O 0.08963 0.15348 0.56716 0.0
O64 O 0.08283 0.01429 0.54071 0.0
O65 O 0.05852 0.01058 0.48857 0.0
O66 O 0.97844 0.05794 0.48375 0.0
O67 O 0.97643 0.98085 0.46425 0.0
O68 O 0.98632 0.98835 0.56228 0.0
O69 O 0.9238 0.92821 0.53848 0.0
O70 O 0.95957 0.06097 0.55447 0.0
O71 O 0.98744 0.06674 0.60552 0.0
H72 H 0.11397 0.09735 0.69474 0.0
H73 H 0.16019 0.07178 0.71674 0.0
H74 H 0.15994 0.96884 0.61849 0.0
H75 H 0.11426 0.99613 0.59634 0.0
H76 H 0.9673 0.06779 0.40711 0.0
H77 H 0.89345 0.02505 0.37739 0.0
H78 H 0.79175 0.8688 0.4457 0.0
H79 H 0.86626 0.91177 0.47511 0.0
Zn80 Zn 0.31191 0.63953 0.22265 0.0
Zn81 Zn 0.31277 0.68425 0.36422 0.0
Zn82 Zn 0.31478 0.66363 0.29276 0.0
C83 C 0.42267 0.73735 0.32362 0.0
C84 C 0.2491 0.56211 0.35627 0.0
O85 O 0.27984 0.70184 0.27833 0.0
O86 O 0.27645 0.67483 0.22046 0.0
C87 C 0.42306 0.70917 0.22355 0.0
O88 O 0.40068 0.71621 0.29621 0.0
O89 O 0.39343 0.72958 0.35632 0.0
O90 O 0.26199 0.60059 0.38123 0.0
O91 O 0.26556 0.57768 0.32223 0.0
O92 O 0.39255 0.68311 0.20157 0.0
O93 O 0.40164 0.7073 0.25859 0.0
O94 O 0.26378 0.56631 0.28531 0.0
O95 O 0.26633 0.55299 0.22584 0.0
C96 C 0.25021 0.53207 0.25744 0.0
O97 O 0.27964 0.71301 0.31578 0.0
O98 O 0.28483 0.73057 0.37382 0.0
C99 C 0.26769 0.70085 0.24898 0.0
C100 C 0.27253 0.73595 0.34747 0.0
Zn101 Zn 0.67823 0.38643 0.84981 0.0
Zn102 Zn 0.69791 0.36799 0.70734 0.0
Zn103 Zn 0.6864 0.37494 0.77852 0.0
C104 C 0.75116 0.48559 0.72087 0.0
C105 C 0.58479 0.29549 0.7413 0.0
O106 O 0.7288 0.34482 0.79152 0.0
O107 O 0.72738 0.36736 0.85038 0.0
C108 C 0.72928 0.49734 0.82261 0.0
O109 O 0.73127 0.46437 0.75385 0.0
O110 O 0.74525 0.45202 0.69342 0.0
O111 O 0.61808 0.31765 0.7102 0.0
O112 O 0.60269 0.31169 0.77038 0.0
O113 O 0.70766 0.47023 0.85281 0.0
O114 O 0.72741 0.46962 0.79178 0.0
O115 O 0.59702 0.3224 0.80902 0.0
O116 O 0.59728 0.32665 0.86733 0.0
C117 C 0.57087 0.308 0.84328 0.0
O118 O 0.7284 0.33324 0.75432 0.0
O119 O 0.72991 0.32544 0.69527 0.0
C120 C 0.7419 0.34728 0.82074 0.0
C121 C 0.73963 0.31588 0.72139 0.0
C122 C 0.172 0.91361 0.15552 0.0
C123 C 0.11818 0.88519 0.15294 0.0
C124 C 0.18235 0.88869 0.17631 0.0
C125 C 0.13894 0.83467 0.19515 0.0
C126 C 0.085 0.80743 0.19355 0.0
C127 C 0.07467 0.83241 0.17287 0.0
C128 C 0.14863 0.80205 0.2131 0.0
C129 C 0.19536 0.82656 0.22284 0.0
C130 C 0.20807 0.791 0.23395 0.0
C131 C 0.24755 0.81752 0.2542 0.0
C132 C 0.26525 0.78732 0.26093 0.0
C133 C 0.24393 0.73016 0.24734 0.0
H134 H 0.15676 0.71144 0.20459 0.0
C135 C 0.20365 0.70319 0.22788 0.0
C136 C 0.18584 0.73305 0.22128 0.0
H137 H 0.18706 0.65938 0.21669 0.0
H138 H 0.20641 0.95458 0.14077 0.0
H139 H 0.22467 0.91075 0.17608 0.0
H140 H 0.05077 0.76559 0.20745 0.0
H141 H 0.03281 0.80887 0.17118 0.0
H142 H 0.11585 0.75506 0.21756 0.0
H143 H 0.22624 0.87414 0.22185 0.0
H144 H 0.26589 0.86231 0.26393 0.0
H145 H 0.29731 0.80961 0.27526 0.0
C146 C 0.20088 0.01281 0.71601 0.0
C147 C 0.20347 0.01519 0.67892 0.0
C148 C 0.24629 0.02759 0.72566 0.0
C149 C 0.29504 0.04484 0.69823 0.0
C150 C 0.29474 0.03967 0.66104 0.0
C151 C 0.24962 0.02534 0.65144 0.0
C152 C 0.3491 0.0767 0.70648 0.0
C153 C 0.35994 0.10317 0.7388 0.0
C154 C 0.41716 0.15256 0.74035 0.0
C155 C 0.43747 0.15644 0.76907 0.0
C156 C 0.492 0.20338 0.76985 0.0
C157 C 0.52596 0.24833 0.74288 0.0
H158 H 0.43582 0.19648 0.69166 0.0
C159 C 0.50475 0.24502 0.71488 0.0
C160 C 0.45104 0.19764 0.71357 0.0
H161 H 0.52993 0.27883 0.69363 0.0
H162 H 0.16511 1.00327 0.73778 0.0
H163 H 0.24379 0.02845 0.7546 0.0
H164 H 0.33137 0.05178 0.63926 0.0
H165 H 0.25324 0.02757 0.62258 0.0
H166 H 0.38387 0.08708 0.68311 0.0
H167 H 0.32729 0.09361 0.76347 0.0
H168 H 0.41178 0.12237 0.79017 0.0
H169 H 0.50792 0.20368 0.79094 0.0
C170 C 0.0812 0.14929 0.14086 0.0
C171 C 0.04067 0.13499 0.12495 0.0
C172 C 0.09633 0.19074 0.16917 0.0
C173 C 0.07095 0.21864 0.18237 0.0
C174 C 0.02902 0.20245 0.1673 0.0
C175 C 0.01405 0.16125 0.13901 0.0
C176 C 0.09004 0.26869 0.20878 0.0
C177 C 0.12838 0.28815 0.22657 0.0
C178 C 0.15634 0.34724 0.24396 0.0
C179 C 0.21324 0.38132 0.24005 0.0
C180 C 0.2436 0.44149 0.24794 0.0
C181 C 0.21723 0.46799 0.26089 0.0
H182 H 0.08515 0.34728 0.26472 0.0
C183 C 0.15969 0.43298 0.26848 0.0
C184 C 0.12928 0.37283 0.26021 0.0
H185 H 0.13877 0.45293 0.27818 0.0
H186 H 0.10243 0.12974 0.13076 0.0
H187 H 0.12918 0.20183 0.17943 0.0
H188 H 0.00866 0.22303 0.17674 0.0
H189 H 0.98229 0.15096 0.12768 0.0
H190 H 0.07495 0.29397 0.211 0.0
H191 H 0.14538 0.26488 0.22414 0.0
H192 H 0.23499 0.3626 0.22794 0.0
H193 H 0.28813 0.4681 0.24155 0.0
C194 C 0.90136 0.10523 0.59735 0.0
C195 C 0.93005 0.09616 0.61261 0.0
C196 C 0.87794 0.13272 0.61778 0.0
C197 C 0.8824 0.15154 0.6541 0.0
C198 C 0.91071 0.14211 0.66942 0.0
C199 C 0.93395 0.11441 0.64905 0.0
C200 C 0.8607 0.18396 0.67577 0.0
C201 C 0.81689 0.17561 0.67077 0.0
C202 C 0.79596 0.21013 0.68878 0.0
C203 C 0.74639 0.19127 0.68325 0.0
C204 C 0.72751 0.22497 0.6954 0.0
C205 C 0.75738 0.27824 0.71376 0.0
H206 H 0.86387 0.27957 0.71299 0.0
C207 C 0.80588 0.29662 0.72081 0.0
C208 C 0.8252 0.26285 0.70838 0.0
H209 H 0.82986 0.33807 0.73453 0.0
H210 H 0.89806 0.09244 0.56926 0.0
H211 H 0.85804 0.14086 0.60447 0.0
H212 H 0.9152 0.15657 0.69717 0.0
H213 H 0.95607 0.1086 0.66171 0.0
H214 H 0.88094 0.21433 0.69655 0.0
H215 H 0.79476 0.14135 0.65194 0.0
H216 H 0.72288 0.15106 0.66835 0.0
H217 H 0.68998 0.21003 0.6896 0.0
C218 C 0.82656 0.92015 0.08634 0.0
C219 C 0.86567 0.93661 0.10441 0.0
C220 C 0.7727 0.89819 0.10643 0.0
C221 C 0.75667 0.89173 0.1451 0.0
C222 C 0.79641 0.90995 0.16318 0.0
C223 C 0.85028 0.93178 0.14303 0.0
C224 C 0.69895 0.86595 0.16714 0.0
C225 C 0.65524 0.82512 0.15322 0.0
C226 C 0.59642 0.79575 0.17395 0.0
C227 C 0.55606 0.74373 0.15931 0.0
C228 C 0.50017 0.71557 0.17606 0.0
C229 C 0.48284 0.73865 0.208 0.0
H230 H 0.60897 0.85969 0.21797 0.0
C231 C 0.52288 0.79061 0.223 0.0
C232 C 0.5793 0.81893 0.20623 0.0
H233 H 0.51066 0.81045 0.24681 0.0
H234 H 0.83729 0.92335 0.05659 0.0
H235 H 0.74388 0.88654 0.09152 0.0
H236 H 0.78546 0.90609 0.19291 0.0
H237 H 0.8798 0.94458 0.15769 0.0
H238 H 0.69248 0.87795 0.19599 0.0
H239 H 0.66252 0.80989 0.12529 0.0
H240 H 0.56777 0.72482 0.13449 0.0
H241 H 0.47033 0.6756 0.16377 0.0
C242 C 0.87141 0.83901 0.59881 0.0
C243 C 0.92564 0.89144 0.59135 0.0
C244 C 0.85566 0.79484 0.62117 0.0
C245 C 0.89427 0.80202 0.63593 0.0
C246 C 0.94833 0.85471 0.62854 0.0
C247 C 0.9637 0.89915 0.60683 0.0
C248 C 0.88125 0.75316 0.65551 0.0
C249 C 0.83074 0.71192 0.6764 0.0
C250 C 0.81668 0.65861 0.69123 0.0
C251 C 0.77382 0.63053 0.72344 0.0
C252 C 0.75499 0.576 0.73497 0.0
C253 C 0.77803 0.5481 0.71405 0.0
H254 H 0.87365 0.65122 0.64608 0.0
C255 C 0.8221 0.57713 0.68264 0.0
C256 C 0.84147 0.63184 0.67146 0.0
H257 H 0.84021 0.55629 0.66579 0.0
H258 H 0.84145 0.8318 0.58689 0.0
H259 H 0.81401 0.75419 0.62549 0.0
H260 H 0.97914 0.86112 0.63905 0.0
H261 H 0.00608 0.93845 0.60083 0.0
H262 H 0.91491 0.75132 0.65247 0.0
H263 H 0.79829 0.71673 0.68247 0.0
H264 H 0.7537 0.64989 0.73904 0.0
H265 H 0.72023 0.55405 0.75887 0.0
C266 C 0.1105 0.95888 0.4472 0.0
C267 C 0.11239 0.977 0.48393 0.0
C268 C 0.13561 0.93258 0.42767 0.0
C269 C 0.16307 0.92365 0.44453 0.0
C270 C 0.16572 0.94279 0.48095 0.0
C271 C 0.14063 0.96891 0.50044 0.0
C272 C 0.19063 0.89599 0.42538 0.0
C273 C 0.18143 0.86327 0.39446 0.0
C274 C 0.20831 0.83412 0.37818 0.0
C275 C 0.18109 0.78089 0.35887 0.0
C276 C 0.20305 0.74965 0.3469 0.0
C277 C 0.25282 0.77166 0.3538 0.0
H278 H 0.28366 0.89981 0.39579 0.0
C279 C 0.28154 0.8264 0.37106 0.0
C280 C 0.26 0.85767 0.38269 0.0
H281 H 0.32035 0.8445 0.37631 0.0
H282 H 0.08928 0.9646 0.43352 0.0
H283 H 0.13369 0.91994 0.3994 0.0
H284 H 0.18693 0.93702 0.49463 0.0
H285 H 0.14319 0.9824 0.52856 0.0
H286 H 0.21785 0.90038 0.43895 0.0
H287 H 0.15067 0.85378 0.38229 0.0
H288 H 0.14167 0.7622 0.35444 0.0
H289 H 0.18014 0.70735 0.33371 0.0
C290 C 0.17261 0.12119 0.97859 0.0
C291 C 0.13393 0.10879 0.96159 0.0
C292 C 0.22673 0.14477 0.95806 0.0
C293 C 0.24329 0.15647 0.91998 0.0
C294 C 0.20453 0.14443 0.90319 0.0
C295 C 0.15037 0.12051 0.92369 0.0
C296 C 0.30121 0.18428 0.89756 0.0
C297 C 0.33519 0.17792 0.90567 0.0
C298 C 0.39484 0.20864 0.88623 0.0
C299 C 0.42547 0.2016 0.90079 0.0
C300 C 0.48221 0.23251 0.88594 0.0
C301 C 0.50997 0.27092 0.85575 0.0
H302 H 0.401 0.25272 0.8426 0.0
C303 C 0.47957 0.277 0.84023 0.0
C304 C 0.42249 0.24605 0.85519 0.0
H305 H 0.50015 0.30688 0.81718 0.0
H306 H 0.16142 0.11385 1.00791 0.0
H307 H 0.25574 0.15537 0.9724 0.0
H308 H 0.21618 0.15356 0.87408 0.0
H309 H 0.12147 0.11166 0.90987 0.0
H310 H 0.31534 0.21011 0.87374 0.0
H311 H 0.31878 0.14929 0.92864 0.0
H312 H 0.40569 0.17311 0.92449 0.0
H313 H 0.50462 0.22701 0.89852 0.0
C314 C 0.10131 0.18192 0.47254 0.0
C315 C 0.09745 0.18895 0.51059 0.0
C316 C 0.11351 0.22599 0.45189 0.0
C317 C 0.12209 0.27783 0.46912 0.0
C318 C 0.11722 0.28374 0.50725 0.0
C319 C 0.10529 0.24018 0.52762 0.0
C320 C 0.13613 0.32739 0.44943 0.0
C321 C 0.15139 0.3348 0.41248 0.0
C322 C 0.17009 0.38926 0.39557 0.0
C323 C 0.20856 0.40929 0.36086 0.0
C324 C 0.23216 0.46421 0.34672 0.0
C325 C 0.21741 0.49988 0.36697 0.0
H326 H 0.12085 0.40838 0.44015 0.0
C327 C 0.17635 0.47818 0.40039 0.0
C328 C 0.15238 0.42325 0.41429 0.0
H329 H 0.16373 0.50451 0.41635 0.0
H330 H 0.09545 0.14277 0.45874 0.0
H331 H 0.11601 0.21906 0.42272 0.0
H332 H 0.12323 0.32275 0.52149 0.0
H333 H 0.10234 0.24686 0.55692 0.0
H334 H 0.1371 0.362 0.467 0.0
H335 H 0.15489 0.30322 0.39419 0.0
H336 H 0.22252 0.38384 0.34552 0.0
H337 H 0.26436 0.48032 0.32115 0.0
C338 C 0.90382 0.18447 0.89074 0.0
C339 C 0.86322 0.1358 0.91483 0.0
C340 C 0.88897 0.20334 0.86924 0.0
C341 C 0.83304 0.17405 0.87149 0.0
C342 C 0.79278 0.12346 0.89397 0.0
C343 C 0.8076 0.1047 0.91551 0.0
C344 C 0.81476 0.19624 0.85244 0.0
C345 C 0.84437 0.25369 0.84406 0.0
C346 C 0.82137 0.27838 0.83319 0.0
C347 C 0.84066 0.33627 0.8437 0.0
C348 C 0.81615 0.35936 0.8381 0.0
C349 C 0.77274 0.32565 0.82096 0.0
H350 H 0.76442 0.20113 0.80515 0.0
C351 C 0.7552 0.2689 0.8085 0.0
C352 C 0.77935 0.24535 0.81452 0.0
H353 H 0.72135 0.2419 0.79554 0.0
H354 H 0.94706 0.2094 0.88947 0.0
H355 H 0.92144 0.2413 0.85134 0.0
H356 H 0.74945 0.0995 0.89592 0.0
H357 H 0.77535 0.06631 0.93318 0.0
H358 H 0.77285 0.16554 0.84953 0.0
H359 H 0.88428 0.28531 0.85009 0.0
H360 H 0.87314 0.36287 0.85788 0.0
H361 H 0.83019 0.40317 0.84807 0.0
C362 C 0.77944 0.95099 0.38251 0.0
C363 C 0.79267 0.91688 0.39019 0.0
C364 C 0.73743 0.92606 0.36522 0.0
C365 C 0.7078 0.86628 0.35487 0.0
C366 C 0.72145 0.83242 0.36232 0.0
C367 C 0.7634 0.85737 0.37972 0.0
C368 C 0.65953 0.83626 0.33934 0.0
C369 C 0.64708 0.86476 0.32603 0.0
C370 C 0.59234 0.83391 0.31941 0.0
C371 C 0.56652 0.86111 0.33104 0.0
C372 C 0.51168 0.83015 0.33085 0.0
C373 C 0.48238 0.7722 0.31783 0.0
H374 H 0.58325 0.75528 0.29463 0.0
C375 C 0.50913 0.7462 0.30361 0.0
C376 C 0.56384 0.77679 0.30457 0.0
H377 H 0.48698 0.70143 0.29345 0.0
H378 H 0.80065 0.99674 0.39075 0.0
H379 H 0.72756 0.9537 0.36129 0.0
H380 H 0.69919 0.78623 0.35499 0.0
H381 H 0.77305 0.83007 0.38485 0.0
H382 H 0.63106 0.7884 0.34126 0.0
H383 H 0.67431 0.91249 0.32419 0.0
H384 H 0.58776 0.90517 0.34236 0.0
H385 H 0.49155 0.85081 0.34195 0.0
C386 C 0.92332 0.90113 0.92287 0.0
C387 C 0.95728 0.90733 0.94201 0.0
C388 C 0.90568 0.8589 0.89525 0.0
C389 C 0.92119 0.82141 0.88641 0.0
C390 C 0.95766 0.82999 0.90408 0.0
C391 C 0.97542 0.87233 0.93162 0.0
C392 C 0.89748 0.77048 0.86105 0.0
C393 C 0.84736 0.74267 0.85559 0.0
C394 C 0.81645 0.68206 0.84062 0.0
C395 C 0.75963 0.64272 0.85671 0.0
C396 C 0.73048 0.58271 0.84888 0.0
C397 C 0.75721 0.56118 0.82389 0.0
H398 H 0.88604 0.69081 0.79997 0.0
C399 C 0.81285 0.60098 0.80504 0.0
C400 C 0.84251 0.66118 0.81354 0.0
H401 H 0.83416 0.5851 0.78565 0.0
H402 H 0.90944 0.92818 0.92964 0.0
H403 H 0.87935 0.85536 0.88136 0.0
H404 H 0.97074 0.8022 0.89763 0.0
H405 H 0.00204 0.87628 0.94549 0.0
H406 H 0.91815 0.75015 0.85112 0.0
H407 H 0.82414 0.75968 0.86826 0.0
H408 H 0.73847 0.65772 0.87738 0.0
H409 H 0.6875 0.55266 0.86363 0.0
loop_
_geom_bond_atom_site_label_1
_geom_bond_atom_site_label_2
_geom_bond_distance
_geom_bond_site_symmetry_2
_ccdc_geom_bond_type
Tb0 C2 2.809 . S
Tb0 O20 2.484 . S
Tb0 O21 2.440 1_655 S
Tb0 O22 2.658 1_655 S
Tb0 O23 2.409 1_655 S
Tb0 O24 2.378 1_656 S
Tb0 O28 2.325 1_546 S
Tb0 O31 2.341 1_545 S
Tb1 C11 2.809 . S
Tb1 O22 2.325 1_564 S
Tb1 O25 2.341 1_565 S
Tb1 O26 2.484 . S
Tb1 O27 2.440 . S
Tb1 O28 2.658 1_455 S
Tb1 O29 2.409 1_455 S
Tb1 O30 2.378 1_455 S
C2 Tb0 2.809 . S
C2 C3 1.514 . S
C2 O20 1.248 . S
C2 O21 1.266 1_655 S
C3 C2 1.514 . S
C3 C4 1.359 . S
C3 C8 1.348 1_655 S
C4 C3 1.359 . S
C4 C5 1.380 . S
C4 H32 0.929 . S
C5 C4 1.380 . S
C5 C6 1.347 . S
C5 H33 0.931 . S
C6 C5 1.347 . S
C6 C7 1.369 . S
C7 C6 1.369 . S
C7 C8 1.407 1_655 S
C7 H34 0.930 1_655 S
C8 C3 1.348 1_455 S
C8 C7 1.407 1_455 S
C8 H35 0.932 . S
C9 O22 1.281 . S
C9 O23 1.254 . S
C10 O24 1.236 . S
C10 O25 1.266 . S
C11 Tb1 2.809 . S
C11 C12 1.514 . S
C11 O26 1.248 . S
C11 O27 1.266 . S
C12 C11 1.514 . S
C12 C13 1.359 . S
C12 C17 1.348 . S
C13 C12 1.359 . S
C13 C14 1.380 . S
C13 H36 0.929 . S
C14 C13 1.380 . S
C14 C15 1.347 . S
C14 H37 0.931 . S
C15 C14 1.347 . S
C15 C16 1.369 . S
C16 C15 1.369 . S
C16 C17 1.408 . S
C16 H38 0.930 . S
C17 C12 1.348 . S
C17 C16 1.408 . S
C17 H39 0.930 1_455 S
C18 O28 1.281 . S
C18 O29 1.254 . S
C19 O30 1.236 1_556 S
C19 O31 1.266 . S
O20 Tb0 2.484 . S
O20 C2 1.248 . S
O21 Tb0 2.440 1_455 S
O21 C2 1.266 1_455 S
O22 Tb0 2.658 1_455 S
O22 Tb1 2.325 1_546 S
O22 C9 1.281 . S
O23 Tb0 2.409 1_455 S
O23 C9 1.254 . S
O24 Tb0 2.378 1_454 S
O24 C10 1.236 . S
O25 Tb1 2.341 1_545 S
O25 C10 1.266 . S
O26 Tb1 2.484 . S
O26 C11 1.248 . S
O27 Tb1 2.440 . S
O27 C11 1.266 . S
O28 Tb0 2.325 1_564 S
O28 Tb1 2.658 1_655 S
O28 C18 1.281 . S
O29 Tb1 2.409 1_655 S
O29 C18 1.254 . S
O30 Tb1 2.378 1_655 S
O30 C19 1.236 1_554 S
O31 Tb0 2.341 1_565 S
O31 C19 1.266 . S
H32 C4 0.929 . S
H33 C5 0.931 . S
H34 C7 0.930 1_455 S
H35 C8 0.932 . S
H36 C13 0.929 . S
H37 C14 0.931 . S
H38 C16 0.930 . S
H39 C17 0.930 1_655 S
Tb40 C42 2.809 . S
Tb40 O60 2.484 . S
Tb40 O61 2.440 . S
Tb40 O62 2.658 . S
Tb40 O63 2.409 . S
Tb40 O64 2.378 . S
Tb40 O68 2.327 1_545 S
Tb40 O71 2.341 1_455 S
Tb41 C51 2.809 . S
Tb41 O62 2.325 1_665 S
Tb41 O65 2.341 1_655 S
Tb41 O66 2.484 . S
Tb41 O67 2.440 . S
Tb41 O68 2.651 1_655 S
Tb41 O69 2.409 . S
Tb41 O70 2.378 . S
C42 Tb40 2.809 . S
C42 C43 1.514 . S
C42 O60 1.248 . S
C42 O61 1.266 . S
C43 C42 1.514 . S
C43 C44 1.359 . S
C43 C48 1.348 . S
C44 C43 1.359 . S
C44 C45 1.380 . S
C44 H72 0.929 . S
C45 C44 1.380 . S
C45 C46 1.347 . S
C45 H73 0.931 . S
C46 C45 1.347 . S
C46 C47 1.369 . S
C47 C46 1.369 . S
C47 C48 1.408 . S
C47 H74 0.930 . S
C48 C43 1.348 . S
C48 C47 1.408 . S
C48 H75 0.930 . S
C49 O62 1.281 . S
C49 O63 1.254 . S
C50 O64 1.236 1_565 S
C50 O65 1.266 . S
C51 Tb41 2.809 . S
C51 C52 1.514 . S
C51 O66 1.248 . S
C51 O67 1.266 . S
C52 C51 1.514 . S
C52 C53 1.359 . S
C52 C57 1.348 . S
C53 C52 1.359 . S
C53 C54 1.380 . S
C53 H76 0.929 1_565 S
C54 C53 1.380 . S
C54 C55 1.347 . S
C54 H77 0.931 . S
C55 C54 1.347 . S
C55 C56 1.369 . S
C56 C55 1.369 . S
C56 C57 1.408 . S
C56 H78 0.930 . S
C57 C52 1.348 . S
C57 C56 1.408 . S
C57 H79 0.930 . S
C58 O68 1.277 1_655 S
C58 O69 1.254 . S
C59 O70 1.236 1_545 S
C59 O71 1.266 . S
O60 Tb40 2.484 . S
O60 C42 1.248 . S
O61 Tb40 2.440 . S
O61 C42 1.266 . S
O62 Tb40 2.658 . S
O62 Tb41 2.325 1_445 S
O62 C49 1.281 . S
O63 Tb40 2.409 . S
O63 C49 1.254 . S
O64 Tb40 2.378 . S
O64 C50 1.236 1_545 S
O65 Tb41 2.341 1_455 S
O65 C50 1.266 . S
O66 Tb41 2.484 . S
O66 C51 1.248 . S
O67 Tb41 2.440 . S
O67 C51 1.266 . S
O68 Tb40 2.327 1_565 S
O68 Tb41 2.651 1_455 S
O68 C58 1.277 1_455 S
O69 Tb41 2.409 . S
O69 C58 1.254 . S
O70 Tb41 2.378 . S
O70 C59 1.236 1_565 S
O71 Tb40 2.341 1_655 S
O71 C59 1.266 . S
H72 C44 0.929 . S
H73 C45 0.931 . S
H74 C47 0.930 . S
H75 C48 0.930 . S
H76 C53 0.929 1_545 S
H77 C54 0.931 . S
H78 C56 0.930 . S
H79 C57 0.930 . S
Zn80 O86 1.920 . S
Zn80 O92 1.898 . S
Zn80 O95 1.905 . S
Zn81 O89 1.905 . S
Zn81 O90 1.898 . S
Zn81 O98 1.920 . S
Zn82 O85 2.080 . S
Zn82 O88 2.114 . S
Zn82 O91 2.120 . S
Zn82 O93 2.120 . S
Zn82 O94 2.114 . S
Zn82 O97 2.080 . S
C83 O88 1.166 . S
C83 O89 1.182 . S
C84 O90 1.167 . S
C84 O91 1.299 . S
O85 Zn82 2.080 . S
O85 C99 1.305 . S
O86 Zn80 1.920 . S
O86 C99 1.234 . S
C87 O92 1.167 . S
C87 O93 1.299 . S
O88 Zn82 2.114 . S
O88 C83 1.166 . S
O89 Zn81 1.905 . S
O89 C83 1.182 . S
O90 Zn81 1.898 . S
O90 C84 1.167 . S
O91 Zn82 2.120 . S
O91 C84 1.299 . S
O92 Zn80 1.898 . S
O92 C87 1.167 . S
O93 Zn82 2.120 . S
O93 C87 1.299 . S
O94 Zn82 2.114 . S
O94 C96 1.166 . S
O95 Zn80 1.905 . S
O95 C96 1.182 . S
C96 O94 1.166 . S
C96 O95 1.182 . S
O97 Zn82 2.080 . S
O97 C100 1.305 . S
O98 Zn81 1.920 . S
O98 C100 1.234 . S
C99 O85 1.305 . S
C99 O86 1.234 . S
C100 O97 1.305 . S
C100 O98 1.234 . S
Zn101 O107 1.920 . S
Zn101 O113 1.898 . S
Zn101 O116 1.905 . S
Zn102 O110 1.905 . S
Zn102 O111 1.898 . S
Zn102 O119 1.920 . S
Zn103 O106 2.080 . S
Zn103 O109 2.114 . S
Zn103 O112 2.120 . S
Zn103 O114 2.120 . S
Zn103 O115 2.114 . S
Zn103 O118 2.080 . S
C104 O109 1.166 . S
C104 O110 1.182 . S
C105 O111 1.167 . S
C105 O112 1.299 . S
O106 Zn103 2.080 . S
O106 C120 1.305 . S
O107 Zn101 1.920 . S
O107 C120 1.234 . S
C108 O113 1.167 . S
C108 O114 1.299 . S
O109 Zn103 2.114 . S
O109 C104 1.166 . S
O110 Zn102 1.905 . S
O110 C104 1.182 . S
O111 Zn102 1.898 . S
O111 C105 1.167 . S
O112 Zn103 2.120 . S
O112 C105 1.299 . S
O113 Zn101 1.898 . S
O113 C108 1.167 . S
O114 Zn103 2.120 . S
O114 C108 1.299 . S
O115 Zn103 2.114 . S
O115 C117 1.166 . S
O116 Zn101 1.905 . S
O116 C117 1.182 . S
C117 O115 1.166 . S
C117 O116 1.182 . S
O118 Zn103 2.080 . S
O118 C121 1.305 . S
O119 Zn102 1.920 . S
O119 C121 1.234 . S
C120 O106 1.305 . S
C120 O107 1.234 . S
C121 O118 1.305 . S
C121 O119 1.234 . S
C122 C123 1.386 . S
C122 C124 1.383 . S
C122 H138 0.951 . S
C123 C122 1.386 . S
C123 C127 1.383 . S
C124 C122 1.383 . S
C124 C125 1.402 . S
C124 H139 0.951 . S
C125 C124 1.402 . S
C125 C126 1.375 . S
C125 C128 1.481 . S
C126 C125 1.375 . S
C126 C127 1.367 . S
C126 H140 0.951 . S
C127 C123 1.383 . S
C127 C126 1.367 . S
C127 H141 0.950 . S
C128 C125 1.481 . S
C128 C129 1.297 . S
C128 H142 0.950 . S
C129 C128 1.297 . S
C129 C130 1.479 . S
C129 H143 0.950 . S
C130 C129 1.479 . S
C130 C131 1.375 . S
C130 C136 1.404 . S
C131 C130 1.375 . S
C131 C132 1.369 . S
C131 H144 0.950 . S
C132 C131 1.369 . S
C132 C133 1.392 . S
C132 H145 0.951 . S
C133 C132 1.392 . S
C133 C135 1.384 . S
H134 C136 0.949 . S
C135 C133 1.384 . S
C135 C136 1.385 . S
C135 H137 0.950 . S
C136 C130 1.404 . S
C136 H134 0.949 . S
C136 C135 1.385 . S
H137 C135 0.950 . S
H138 C122 0.951 . S
H139 C124 0.951 . S
H140 C126 0.951 . S
H141 C127 0.950 . S
H142 C128 0.950 . S
H143 C129 0.950 . S
H144 C131 0.950 . S
H145 C132 0.951 . S
C146 C147 1.386 . S
C146 C148 1.383 . S
C146 H162 0.951 . S
C147 C146 1.386 . S
C147 C151 1.383 . S
C148 C146 1.383 . S
C148 C149 1.402 . S
C148 H163 0.951 . S
C149 C148 1.402 . S
C149 C150 1.375 . S
C149 C152 1.481 . S
C150 C149 1.375 . S
C150 C151 1.367 . S
C150 H164 0.951 . S
C151 C147 1.383 . S
C151 C150 1.367 . S
C151 H165 0.950 . S
C152 C149 1.481 . S
C152 C153 1.297 . S
C152 H166 0.950 . S
C153 C152 1.297 . S
C153 C154 1.479 . S
C153 H167 0.950 . S
C154 C153 1.479 . S
C154 C155 1.375 . S
C154 C160 1.404 . S
C155 C154 1.375 . S
C155 C156 1.369 . S
C155 H168 0.950 . S
C156 C155 1.369 . S
C156 C157 1.392 . S
C156 H169 0.951 . S
C157 C156 1.392 . S
C157 C159 1.384 . S
H158 C160 0.949 . S
C159 C157 1.384 . S
C159 C160 1.385 . S
C159 H161 0.950 . S
C160 C154 1.404 . S
C160 H158 0.949 . S
C160 C159 1.385 . S
H161 C159 0.950 . S
H162 C146 0.951 . S
H163 C148 0.951 . S
H164 C150 0.951 . S
H165 C151 0.950 . S
H166 C152 0.950 . S
H167 C153 0.950 . S
H168 C155 0.950 . S
H169 C156 0.951 . S
C170 C171 1.386 . S
C170 C172 1.383 . S
C170 H186 0.951 . S
C171 C170 1.386 . S
C171 C175 1.383 . S
C172 C170 1.383 . S
C172 C173 1.402 . S
C172 H187 0.951 . S
C173 C172 1.402 . S
C173 C174 1.375 . S
C173 C176 1.481 . S
C174 C173 1.375 . S
C174 C175 1.367 . S
C174 H188 0.951 . S
C175 C171 1.383 . S
C175 C174 1.367 . S
C175 H189 0.950 . S
C176 C173 1.481 . S
C176 C177 1.297 . S
C176 H190 0.950 . S
C177 C176 1.297 . S
C177 C178 1.479 . S
C177 H191 0.950 . S
C178 C177 1.479 . S
C178 C179 1.375 . S
C178 C184 1.404 . S
C179 C178 1.375 . S
C179 C180 1.369 . S
C179 H192 0.950 . S
C180 C179 1.369 . S
C180 C181 1.392 . S
C180 H193 0.951 . S
C181 C180 1.392 . S
C181 C183 1.384 . S
H182 C184 0.949 . S
C183 C181 1.384 . S
C183 C184 1.385 . S
C183 H185 0.950 . S
C184 C178 1.404 . S
C184 H182 0.949 . S
C184 C183 1.385 . S
H185 C183 0.950 . S
H186 C170 0.951 . S
H187 C172 0.951 . S
H188 C174 0.951 . S
H189 C175 0.950 . S
H190 C176 0.950 . S
H191 C177 0.950 . S
H192 C179 0.950 . S
H193 C180 0.951 . S
C194 C195 1.386 . S
C194 C196 1.383 . S
C194 H210 0.951 . S
C195 C194 1.386 . S
C195 C199 1.383 . S
C196 C194 1.383 . S
C196 C197 1.402 . S
C196 H211 0.951 . S
C197 C196 1.402 . S
C197 C198 1.375 . S
C197 C200 1.481 . S
C198 C197 1.375 . S
C198 C199 1.367 . S
C198 H212 0.951 . S
C199 C195 1.383 . S
C199 C198 1.367 . S
C199 H213 0.950 . S
C200 C197 1.481 . S
C200 C201 1.297 . S
C200 H214 0.950 . S
C201 C200 1.297 . S
C201 C202 1.479 . S
C201 H215 0.950 . S
C202 C201 1.479 . S
C202 C203 1.375 . S
C202 C208 1.404 . S
C203 C202 1.375 . S
C203 C204 1.369 . S
C203 H216 0.950 . S
C204 C203 1.369 . S
C204 C205 1.392 . S
C204 H217 0.951 . S
C205 C204 1.392 . S
C205 C207 1.384 . S
H206 C208 0.949 . S
C207 C205 1.384 . S
C207 C208 1.385 . S
C207 H209 0.950 . S
C208 C202 1.404 . S
C208 H206 0.949 . S
C208 C207 1.385 . S
H209 C207 0.950 . S
H210 C194 0.951 . S
H211 C196 0.951 . S
H212 C198 0.951 . S
H213 C199 0.950 . S
H214 C200 0.950 . S
H215 C201 0.950 . S
H216 C203 0.950 . S
H217 C204 0.951 . S
C218 C219 1.386 . S
C218 C220 1.383 . S
C218 H234 0.951 . S
C219 C218 1.386 . S
C219 C223 1.383 . S
C220 C218 1.383 . S
C220 C221 1.402 . S
C220 H235 0.951 . S
C221 C220 1.402 . S
C221 C222 1.375 . S
C221 C224 1.481 . S
C222 C221 1.375 . S
C222 C223 1.367 . S
C222 H236 0.951 . S
C223 C219 1.383 . S
C223 C222 1.367 . S
C223 H237 0.950 . S
C224 C221 1.481 . S
C224 C225 1.297 . S
C224 H238 0.950 . S
C225 C224 1.297 . S
C225 C226 1.479 . S
C225 H239 0.950 . S
C226 C225 1.479 . S
C226 C227 1.375 . S
C226 C232 1.404 . S
C227 C226 1.375 . S
C227 C228 1.369 . S
C227 H240 0.950 . S
C228 C227 1.369 . S
C228 C229 1.392 . S
C228 H241 0.951 . S
C229 C228 1.392 . S
C229 C231 1.384 . S
H230 C232 0.949 . S
C231 C229 1.384 . S
C231 C232 1.385 . S
C231 H233 0.950 . S
C232 C226 1.404 . S
C232 H230 0.949 . S
C232 C231 1.385 . S
H233 C231 0.950 . S
H234 C218 0.951 . S
H235 C220 0.951 . S
H236 C222 0.951 . S
H237 C223 0.950 . S
H238 C224 0.950 . S
H239 C225 0.950 . S
H240 C227 0.950 . S
H241 C228 0.951 . S
C242 C243 1.386 . S
C242 C244 1.383 . S
C242 H258 0.951 . S
C243 C242 1.386 . S
C243 C247 1.383 . S
C244 C242 1.383 . S
C244 C245 1.402 . S
C244 H259 0.951 . S
C245 C244 1.402 . S
C245 C246 1.375 . S
C245 C248 1.481 . S
C246 C245 1.375 . S
C246 C247 1.367 . S
C246 H260 0.951 . S
C247 C243 1.383 . S
C247 C246 1.367 . S
C247 H261 0.950 . S
C248 C245 1.481 . S
C248 C249 1.297 . S
C248 H262 0.950 . S
C249 C248 1.297 . S
C249 C250 1.479 . S
C249 H263 0.950 . S
C250 C249 1.479 . S
C250 C251 1.375 . S
C250 C256 1.404 . S
C251 C250 1.375 . S
C251 C252 1.369 . S
C251 H264 0.950 . S
C252 C251 1.369 . S
C252 C253 1.392 . S
C252 H265 0.951 . S
C253 C252 1.392 . S
C253 C255 1.384 . S
H254 C256 0.949 . S
C255 C253 1.384 . S
C255 C256 1.385 . S
C255 H257 0.950 . S
C256 C250 1.404 . S
C256 H254 0.949 . S
C256 C255 1.385 . S
H257 C255 0.950 . S
H258 C242 0.951 . S
H259 C244 0.951 . S
H260 C246 0.951 . S
H261 C247 0.950 . S
H262 C248 0.950 . S
H263 C249 0.950 . S
H264 C251 0.950 . S
H265 C252 0.951 . S
C266 C267 1.386 . S
C266 C268 1.383 . S
C266 H282 0.951 . S
C267 C266 1.386 . S
C267 C271 1.383 . S
C268 C266 1.383 . S
C268 C269 1.402 . S
C268 H283 0.951 . S
C269 C268 1.402 . S
C269 C270 1.375 . S
C269 C272 1.481 . S
C270 C269 1.375 . S
C270 C271 1.367 . S
C270 H284 0.951 . S
C271 C267 1.383 . S
C271 C270 1.367 . S
C271 H285 0.950 . S
C272 C269 1.481 . S
C272 C273 1.297 . S
C272 H286 0.950 . S
C273 C272 1.297 . S
C273 C274 1.479 . S
C273 H287 0.950 . S
C274 C273 1.479 . S
C274 C275 1.375 . S
C274 C280 1.404 . S
C275 C274 1.375 . S
C275 C276 1.369 . S
C275 H288 0.950 . S
C276 C275 1.369 . S
C276 C277 1.392 . S
C276 H289 0.951 . S
C277 C276 1.392 . S
C277 C279 1.384 . S
H278 C280 0.949 . S
C279 C277 1.384 . S
C279 C280 1.385 . S
C279 H281 0.950 . S
C280 C274 1.404 . S
C280 H278 0.949 . S
C280 C279 1.385 . S
H281 C279 0.950 . S
H282 C266 0.951 . S
H283 C268 0.951 . S
H284 C270 0.951 . S
H285 C271 0.950 . S
H286 C272 0.950 . S
H287 C273 0.950 . S
H288 C275 0.950 . S
H289 C276 0.951 . S
C290 C291 1.386 . S
C290 C292 1.383 . S
C290 H306 0.951 . S
C291 C290 1.386 . S
C291 C295 1.383 . S
C292 C290 1.383 . S
C292 C293 1.402 . S
C292 H307 0.951 . S
C293 C292 1.402 . S
C293 C294 1.375 . S
C293 C296 1.481 . S
C294 C293 1.375 . S
C294 C295 1.367 . S
C294 H308 0.951 . S
C295 C291 1.383 . S
C295 C294 1.367 . S
C295 H309 0.950 . S
C296 C293 1.481 . S
C296 C297 1.297 . S
C296 H310 0.950 . S
C297 C296 1.297 . S
C297 C298 1.479 . S
C297 H311 0.950 . S
C298 C297 1.479 . S
C298 C299 1.375 . S
C298 C304 1.404 . S
C299 C298 1.375 . S
C299 C300 1.369 . S
C299 H312 0.950 . S
C300 C299 1.369 . S
C300 C301 1.392 . S
C300 H313 0.951 . S
C301 C300 1.392 . S
C301 C303 1.384 . S
H302 C304 0.949 . S
C303 C301 1.384 . S
C303 C304 1.385 . S
C303 H305 0.950 . S
C304 C298 1.404 . S
C304 H302 0.949 . S
C304 C303 1.385 . S
H305 C303 0.950 . S
H306 C290 0.951 . S
H307 C292 0.951 . S
H308 C294 0.951 . S
H309 C295 0.950 . S
H310 C296 0.950 . S
H311 C297 0.950 . S
H312 C299 0.950 . S
H313 C300 0.951 . S
C314 C315 1.386 . S
C314 C316 1.383 . S
C314 H330 0.951 . S
C315 C314 1.386 . S
C315 C319 1.383 . S
C316 C314 1.383 . S
C316 C317 1.402 . S
C316 H331 0.951 . S
C317 C316 1.402 . S
C317 C318 1.375 . S
C317 C320 1.481 . S
C318 C317 1.375 . S
C318 C319 1.367 . S
C318 H332 0.951 . S
C319 C315 1.383 . S
C319 C318 1.367 . S
C319 H333 0.950 . S
C320 C317 1.481 . S
C320 C321 1.297 . S
C320 H334 0.950 . S
C321 C320 1.297 . S
C321 C322 1.479 . S
C321 H335 0.950 . S
C322 C321 1.479 . S
C322 C323 1.375 . S
C322 C328 1.404 . S
C323 C322 1.375 . S
C323 C324 1.369 . S
C323 H336 0.950 . S
C324 C323 1.369 . S
C324 C325 1.392 . S
C324 H337 0.951 . S
C325 C324 1.392 . S
C325 C327 1.384 . S
H326 C328 0.949 . S
C327 C325 1.384 . S
C327 C328 1.385 . S
C327 H329 0.950 . S
C328 C322 1.404 . S
C328 H326 0.949 . S
C328 C327 1.385 . S
H329 C327 0.950 . S
H330 C314 0.951 . S
H331 C316 0.951 . S
H332 C318 0.951 . S
H333 C319 0.950 . S
H334 C320 0.950 . S
H335 C321 0.950 . S
H336 C323 0.950 . S
H337 C324 0.951 . S
C338 C339 1.386 . S
C338 C340 1.383 . S
C338 H354 0.951 . S
C339 C338 1.386 . S
C339 C343 1.383 . S
C340 C338 1.383 . S
C340 C341 1.402 . S
C340 H355 0.951 . S
C341 C340 1.402 . S
C341 C342 1.375 . S
C341 C344 1.481 . S
C342 C341 1.375 . S
C342 C343 1.367 . S
C342 H356 0.951 . S
C343 C339 1.383 . S
C343 C342 1.367 . S
C343 H357 0.950 . S
C344 C341 1.481 . S
C344 C345 1.297 . S
C344 H358 0.950 . S
C345 C344 1.297 . S
C345 C346 1.479 . S
C345 H359 0.950 . S
C346 C345 1.479 . S
C346 C347 1.375 . S
C346 C352 1.404 . S
C347 C346 1.375 . S
C347 C348 1.369 . S
C347 H360 0.950 . S
C348 C347 1.369 . S
C348 C349 1.392 . S
C348 H361 0.951 . S
C349 C348 1.392 . S
C349 C351 1.384 . S
H350 C352 0.949 . S
C351 C349 1.384 . S
C351 C352 1.385 . S
C351 H353 0.950 . S
C352 C346 1.404 . S
C352 H350 0.949 . S
C352 C351 1.385 . S
H353 C351 0.950 . S
H354 C338 0.951 . S
H355 C340 0.951 . S
H356 C342 0.951 . S
H357 C343 0.950 . S
H358 C344 0.950 . S
H359 C345 0.950 . S
H360 C347 0.950 . S
H361 C348 0.951 . S
C362 C363 1.386 . S
C362 C364 1.383 . S
C362 H378 0.951 . S
C363 C362 1.386 . S
C363 C367 1.383 . S
C364 C362 1.383 . S
C364 C365 1.402 . S
C364 H379 0.951 . S
C365 C364 1.402 . S
C365 C366 1.375 . S
C365 C368 1.481 . S
C366 C365 1.375 . S
C366 C367 1.367 . S
C366 H380 0.951 . S
C367 C363 1.383 . S
C367 C366 1.367 . S
C367 H381 0.950 . S
C368 C365 1.481 . S
C368 C369 1.297 . S
C368 H382 0.950 . S
C369 C368 1.297 . S
C369 C370 1.479 . S
C369 H383 0.950 . S
C370 C369 1.479 . S
C370 C371 1.375 . S
C370 C376 1.404 . S
C371 C370 1.375 . S
C371 C372 1.369 . S
C371 H384 0.950 . S
C372 C371 1.369 . S
C372 C373 1.392 . S
C372 H385 0.951 . S
C373 C372 1.392 . S
C373 C375 1.384 . S
H374 C376 0.949 . S
C375 C373 1.384 . S
C375 C376 1.385 . S
C375 H377 0.950 . S
C376 C370 1.404 . S
C376 H374 0.949 . S
C376 C375 1.385 . S
H377 C375 0.950 . S
H378 C362 0.951 . S
H379 C364 0.951 . S
H380 C366 0.951 . S
H381 C367 0.950 . S
H382 C368 0.950 . S
H383 C369 0.950 . S
H384 C371 0.950 . S
H385 C372 0.951 . S
C386 C387 1.386 . S
C386 C388 1.383 . S
C386 H402 0.951 1_655 S
C387 C386 1.386 . S
C387 C391 1.383 . S
C388 C386 1.383 . S
C388 C389 1.402 . S
C388 H403 0.951 . S
C389 C388 1.402 . S
C389 C390 1.375 . S
C389 C392 1.481 . S
C390 C389 1.375 . S
C390 C391 1.367 . S
C390 H404 0.951 . S
C391 C387 1.383 . S
C391 C390 1.367 . S
C391 H405 0.950 1_556 S
C392 C389 1.481 . S
C392 C393 1.297 . S
C392 H406 0.950 . S
C393 C392 1.297 . S
C393 C394 1.479 . S
C393 H407 0.950 . S
C394 C393 1.479 . S
C394 C395 1.375 . S
C394 C400 1.404 . S
C395 C394 1.375 . S
C395 C396 1.369 . S
C395 H408 0.950 . S
C396 C395 1.369 . S
C396 C397 1.392 . S
C396 H409 0.951 . S
C397 C396 1.392 . S
C397 C399 1.384 . S
H398 C400 0.949 . S
C399 C397 1.384 . S
C399 C400 1.385 . S
C399 H401 0.950 . S
C400 C394 1.404 . S
C400 H398 0.949 . S
C400 C399 1.385 . S
H401 C399 0.950 . S
H402 C386 0.951 1_455 S
H403 C388 0.951 . S
H404 C390 0.951 . S
H405 C391 0.950 1_554 S
H406 C392 0.950 . S
H407 C393 0.950 . S
H408 C395 0.950 . S
H409 C396 0.951 . S
C123 C15 1.255 . S
C133 C99 1.247 . S
C147 C46 0.948 . S
C157 C105 0.792 . S
C171 C10 1.259 . S
C181 C96 1.128 . S
C195 C59 2.062 . S
C205 C121 1.922 . S
C219 C18 2.039 . S
C229 C87 1.949 . S
C253 C104 1.810 . S
C243 C58 1.925 . S
C267 C50 1.862 . S
C277 C100 1.769 . S
C301 C117 2.149 . S
C291 C9 2.173 . S
C325 C84 2.103 . S
C315 C49 2.223 . S
C349 C120 1.273 . S
C339 C6 1.314 . S
C373 C83 0.927 . S
C363 C55 0.926 . S
C397 C108 0.955 . S
C387 C19 1.053 . S
