# Generated by pormake.
# Topology gar, (4,6)-cn, num edge types: 1
# Building blocks:
#     Node 0, Type 0, BuildingBlock: CEKHIL_clean_sbu_0, # of connection points: 4
#     Node 1, Type 0, BuildingBlock: CEKHIL_clean_sbu_0, # of connection points: 4
#     Node 2, Type 0, BuildingBlock: CEKHIL_clean_sbu_0, # of connection points: 4
#     Node 3, Type 0, BuildingBlock: CEKHIL_clean_sbu_0, # of connection points: 4
#     Node 4, Type 0, BuildingBlock: CEKHIL_clean_sbu_0, # of connection points: 4
#     Node 5, Type 0, BuildingBlock: CEKHIL_clean_sbu_0, # of connection points: 4
#     Node 6, Type 0, BuildingBlock: CEKHIL_clean_sbu_0, # of connection points: 4
#     Node 7, Type 0, BuildingBlock: CEKHIL_clean_sbu_0, # of connection points: 4
#     Node 8, Type 0, BuildingBlock: CEKHIL_clean_sbu_0, # of connection points: 4
#     Node 9, Type 0, BuildingBlock: CEKHIL_clean_sbu_0, # of connection points: 4
#     Node 10, Type 0, BuildingBlock: CEKHIL_clean_sbu_0, # of connection points: 4
#     Node 11, Type 0, BuildingBlock: CEKHIL_clean_sbu_0, # of connection points: 4
#     Node 12, Type 0, BuildingBlock: CEKHIL_clean_sbu_0, # of connection points: 4
#     Node 13, Type 0, BuildingBlock: CEKHIL_clean_sbu_0, # of connection points: 4
#     Node 14, Type 0, BuildingBlock: CEKHIL_clean_sbu_0, # of connection points: 4
#     Node 15, Type 0, BuildingBlock: CEKHIL_clean_sbu_0, # of connection points: 4
#     Node 16, Type 0, BuildingBlock: CEKHIL_clean_sbu_0, # of connection points: 4
#     Node 17, Type 0, BuildingBlock: CEKHIL_clean_sbu_0, # of connection points: 4
#     Node 18, Type 0, BuildingBlock: CEKHIL_clean_sbu_0, # of connection points: 4
#     Node 19, Type 0, BuildingBlock: CEKHIL_clean_sbu_0, # of connection points: 4
#     Node 20, Type 0, BuildingBlock: CEKHIL_clean_sbu_0, # of connection points: 4
#     Node 21, Type 0, BuildingBlock: CEKHIL_clean_sbu_0, # of connection points: 4
#     Node 22, Type 0, BuildingBlock: CEKHIL_clean_sbu_0, # of connection points: 4
#     Node 23, Type 0, BuildingBlock: CEKHIL_clean_sbu_0, # of connection points: 4
#     Node 24, Type 1, BuildingBlock: KUMJIN_clean_sbu_0, # of connection points: 6
#     Node 25, Type 1, BuildingBlock: KUMJIN_clean_sbu_0, # of connection points: 6
#     Node 26, Type 1, BuildingBlock: KUMJIN_clean_sbu_0, # of connection points: 6
#     Node 27, Type 1, BuildingBlock: KUMJIN_clean_sbu_0, # of connection points: 6
#     Node 28, Type 1, BuildingBlock: KUMJIN_clean_sbu_0, # of connection points: 6
#     Node 29, Type 1, BuildingBlock: KUMJIN_clean_sbu_0, # of connection points: 6
#     Node 30, Type 1, BuildingBlock: KUMJIN_clean_sbu_0, # of connection points: 6
#     Node 31, Type 1, BuildingBlock: KUMJIN_clean_sbu_0, # of connection points: 6
#     Node 32, Type 1, BuildingBlock: KUMJIN_clean_sbu_0, # of connection points: 6
#     Node 33, Type 1, BuildingBlock: KUMJIN_clean_sbu_0, # of connection points: 6
#     Node 34, Type 1, BuildingBlock: KUMJIN_clean_sbu_0, # of connection points: 6
#     Node 35, Type 1, BuildingBlock: KUMJIN_clean_sbu_0, # of connection points: 6
#     Node 36, Type 1, BuildingBlock: KUMJIN_clean_sbu_0, # of connection points: 6
#     Node 37, Type 1, BuildingBlock: KUMJIN_clean_sbu_0, # of connection points: 6
#     Node 38, Type 1, BuildingBlock: KUMJIN_clean_sbu_0, # of connection points: 6
#     Node 39, Type 1, BuildingBlock: KUMJIN_clean_sbu_0, # of connection points: 6
#     Edge 40, Type (0, 1), BuildingBlock: TEMPAE_clean_linker_10, # of connection points: 2
#     Edge 41, Type (0, 1), BuildingBlock: TEMPAE_clean_linker_10, # of connection points: 2
#     Edge 42, Type (0, 1), BuildingBlock: TEMPAE_clean_linker_10, # of connection points: 2
#     Edge 43, Type (0, 1), BuildingBlock: TEMPAE_clean_linker_10, # of connection points: 2
#     Edge 44, Type (0, 1), BuildingBlock: TEMPAE_clean_linker_10, # of connection points: 2
#     Edge 45, Type (0, 1), BuildingBlock: TEMPAE_clean_linker_10, # of connection points: 2
#     Edge 46, Type (0, 1), BuildingBlock: TEMPAE_clean_linker_10, # of connection points: 2
#     Edge 47, Type (0, 1), BuildingBlock: TEMPAE_clean_linker_10, # of connection points: 2
#     Edge 48, Type (0, 1), BuildingBlock: TEMPAE_clean_linker_10, # of connection points: 2
#     Edge 49, Type (0, 1), BuildingBlock: TEMPAE_clean_linker_10, # of connection points: 2
#     Edge 50, Type (0, 1), BuildingBlock: TEMPAE_clean_linker_10, # of connection points: 2
#     Edge 51, Type (0, 1), BuildingBlock: TEMPAE_clean_linker_10, # of connection points: 2
#     Edge 52, Type (0, 1), BuildingBlock: TEMPAE_clean_linker_10, # of connection points: 2
#     Edge 53, Type (0, 1), BuildingBlock: TEMPAE_clean_linker_10, # of connection points: 2
#     Edge 54, Type (0, 1), BuildingBlock: TEMPAE_clean_linker_10, # of connection points: 2
#     Edge 55, Type (0, 1), BuildingBlock: TEMPAE_clean_linker_10, # of connection points: 2
#     Edge 56, Type (0, 1), BuildingBlock: TEMPAE_clean_linker_10, # of connection points: 2
#     Edge 57, Type (0, 1), BuildingBlock: TEMPAE_clean_linker_10, # of connection points: 2
#     Edge 58, Type (0, 1), BuildingBlock: TEMPAE_clean_linker_10, # of connection points: 2
#     Edge 59, Type (0, 1), BuildingBlock: TEMPAE_clean_linker_10, # of connection points: 2
#     Edge 60, Type (0, 1), BuildingBlock: TEMPAE_clean_linker_10, # of connection points: 2
#     Edge 61, Type (0, 1), BuildingBlock: TEMPAE_clean_linker_10, # of connection points: 2
#     Edge 62, Type (0, 1), BuildingBlock: TEMPAE_clean_linker_10, # of connection points: 2
#     Edge 63, Type (0, 1), BuildingBlock: TEMPAE_clean_linker_10, # of connection points: 2
#     Edge 64, Type (0, 1), BuildingBlock: TEMPAE_clean_linker_10, # of connection points: 2
#     Edge 65, Type (0, 1), BuildingBlock: TEMPAE_clean_linker_10, # of connection points: 2
#     Edge 66, Type (0, 1), BuildingBlock: TEMPAE_clean_linker_10, # of connection points: 2
#     Edge 67, Type (0, 1), BuildingBlock: TEMPAE_clean_linker_10, # of connection points: 2
#     Edge 68, Type (0, 1), BuildingBlock: TEMPAE_clean_linker_10, # of connection points: 2
#     Edge 69, Type (0, 1), BuildingBlock: TEMPAE_clean_linker_10, # of connection points: 2
#     Edge 70, Type (0, 1), BuildingBlock: TEMPAE_clean_linker_10, # of connection points: 2
#     Edge 71, Type (0, 1), BuildingBlock: TEMPAE_clean_linker_10, # of connection points: 2
#     Edge 72, Type (0, 1), BuildingBlock: TEMPAE_clean_linker_10, # of connection points: 2
#     Edge 73, Type (0, 1), BuildingBlock: TEMPAE_clean_linker_10, # of connection points: 2
#     Edge 74, Type (0, 1), BuildingBlock: TEMPAE_clean_linker_10, # of connection points: 2
#     Edge 75, Type (0, 1), BuildingBlock: TEMPAE_clean_linker_10, # of connection points: 2
#     Edge 76, Type (0, 1), BuildingBlock: TEMPAE_clean_linker_10, # of connection points: 2
#     Edge 77, Type (0, 1), BuildingBlock: TEMPAE_clean_linker_10, # of connection points: 2
#     Edge 78, Type (0, 1), BuildingBlock: TEMPAE_clean_linker_10, # of connection points: 2
#     Edge 79, Type (0, 1), BuildingBlock: TEMPAE_clean_linker_10, # of connection points: 2
#     Edge 80, Type (0, 1), BuildingBlock: TEMPAE_clean_linker_10, # of connection points: 2
#     Edge 81, Type (0, 1), BuildingBlock: TEMPAE_clean_linker_10, # of connection points: 2
#     Edge 82, Type (0, 1), BuildingBlock: TEMPAE_clean_linker_10, # of connection points: 2
#     Edge 83, Type (0, 1), BuildingBlock: TEMPAE_clean_linker_10, # of connection points: 2
#     Edge 84, Type (0, 1), BuildingBlock: TEMPAE_clean_linker_10, # of connection points: 2
#     Edge 85, Type (0, 1), BuildingBlock: TEMPAE_clean_linker_10, # of connection points: 2
#     Edge 86, Type (0, 1), BuildingBlock: TEMPAE_clean_linker_10, # of connection points: 2
#     Edge 87, Type (0, 1), BuildingBlock: TEMPAE_clean_linker_10, # of connection points: 2
#     Edge 88, Type (0, 1), BuildingBlock: TEMPAE_clean_linker_10, # of connection points: 2
#     Edge 89, Type (0, 1), BuildingBlock: TEMPAE_clean_linker_10, # of connection points: 2
#     Edge 90, Type (0, 1), BuildingBlock: TEMPAE_clean_linker_10, # of connection points: 2
#     Edge 91, Type (0, 1), BuildingBlock: TEMPAE_clean_linker_10, # of connection points: 2
#     Edge 92, Type (0, 1), BuildingBlock: TEMPAE_clean_linker_10, # of connection points: 2
#     Edge 93, Type (0, 1), BuildingBlock: TEMPAE_clean_linker_10, # of connection points: 2
#     Edge 94, Type (0, 1), BuildingBlock: TEMPAE_clean_linker_10, # of connection points: 2
#     Edge 95, Type (0, 1), BuildingBlock: TEMPAE_clean_linker_10, # of connection points: 2
#     Edge 96, Type (0, 1), BuildingBlock: TEMPAE_clean_linker_10, # of connection points: 2
#     Edge 97, Type (0, 1), BuildingBlock: TEMPAE_clean_linker_10, # of connection points: 2
#     Edge 98, Type (0, 1), BuildingBlock: TEMPAE_clean_linker_10, # of connection points: 2
#     Edge 99, Type (0, 1), BuildingBlock: TEMPAE_clean_linker_10, # of connection points: 2
#     Edge 100, Type (0, 1), BuildingBlock: TEMPAE_clean_linker_10, # of connection points: 2
#     Edge 101, Type (0, 1), BuildingBlock: TEMPAE_clean_linker_10, # of connection points: 2
#     Edge 102, Type (0, 1), BuildingBlock: TEMPAE_clean_linker_10, # of connection points: 2
#     Edge 103, Type (0, 1), BuildingBlock: TEMPAE_clean_linker_10, # of connection points: 2
#     Edge 104, Type (0, 1), BuildingBlock: TEMPAE_clean_linker_10, # of connection points: 2
#     Edge 105, Type (0, 1), BuildingBlock: TEMPAE_clean_linker_10, # of connection points: 2
#     Edge 106, Type (0, 1), BuildingBlock: TEMPAE_clean_linker_10, # of connection points: 2
#     Edge 107, Type (0, 1), BuildingBlock: TEMPAE_clean_linker_10, # of connection points: 2
#     Edge 108, Type (0, 1), BuildingBlock: TEMPAE_clean_linker_10, # of connection points: 2
#     Edge 109, Type (0, 1), BuildingBlock: TEMPAE_clean_linker_10, # of connection points: 2
#     Edge 110, Type (0, 1), BuildingBlock: TEMPAE_clean_linker_10, # of connection points: 2
#     Edge 111, Type (0, 1), BuildingBlock: TEMPAE_clean_linker_10, # of connection points: 2
#     Edge 112, Type (0, 1), BuildingBlock: TEMPAE_clean_linker_10, # of connection points: 2
#     Edge 113, Type (0, 1), BuildingBlock: TEMPAE_clean_linker_10, # of connection points: 2
#     Edge 114, Type (0, 1), BuildingBlock: TEMPAE_clean_linker_10, # of connection points: 2
#     Edge 115, Type (0, 1), BuildingBlock: TEMPAE_clean_linker_10, # of connection points: 2
#     Edge 116, Type (0, 1), BuildingBlock: TEMPAE_clean_linker_10, # of connection points: 2
#     Edge 117, Type (0, 1), BuildingBlock: TEMPAE_clean_linker_10, # of connection points: 2
#     Edge 118, Type (0, 1), BuildingBlock: TEMPAE_clean_linker_10, # of connection points: 2
#     Edge 119, Type (0, 1), BuildingBlock: TEMPAE_clean_linker_10, # of connection points: 2
#     Edge 120, Type (0, 1), BuildingBlock: TEMPAE_clean_linker_10, # of connection points: 2
#     Edge 121, Type (0, 1), BuildingBlock: TEMPAE_clean_linker_10, # of connection points: 2
#     Edge 122, Type (0, 1), BuildingBlock: TEMPAE_clean_linker_10, # of connection points: 2
#     Edge 123, Type (0, 1), BuildingBlock: TEMPAE_clean_linker_10, # of connection points: 2
#     Edge 124, Type (0, 1), BuildingBlock: TEMPAE_clean_linker_10, # of connection points: 2
#     Edge 125, Type (0, 1), BuildingBlock: TEMPAE_clean_linker_10, # of connection points: 2
#     Edge 126, Type (0, 1), BuildingBlock: TEMPAE_clean_linker_10, # of connection points: 2
#     Edge 127, Type (0, 1), BuildingBlock: TEMPAE_clean_linker_10, # of connection points: 2
#     Edge 128, Type (0, 1), BuildingBlock: TEMPAE_clean_linker_10, # of connection points: 2
#     Edge 129, Type (0, 1), BuildingBlock: TEMPAE_clean_linker_10, # of connection points: 2
#     Edge 130, Type (0, 1), BuildingBlock: TEMPAE_clean_linker_10, # of connection points: 2
#     Edge 131, Type (0, 1), BuildingBlock: TEMPAE_clean_linker_10, # of connection points: 2
#     Edge 132, Type (0, 1), BuildingBlock: TEMPAE_clean_linker_10, # of connection points: 2
#     Edge 133, Type (0, 1), BuildingBlock: TEMPAE_clean_linker_10, # of connection points: 2
#     Edge 134, Type (0, 1), BuildingBlock: TEMPAE_clean_linker_10, # of connection points: 2
#     Edge 135, Type (0, 1), BuildingBlock: TEMPAE_clean_linker_10, # of connection points: 2
# Relax obj value: 0.121
# Max RMSD: 0.321
# Mean RMSD: 0.150
data_MOF--net-gar--node1-CEKHIL_clean_sbu_0--node2-KUMJIN_clean_sbu_0--edge1-TEMPAE_clean_linker_10
_symmetry_space_group_name_H-M    P1
_symmetry_Int_Tables_number       1
_symmetry_cell_setting            triclinic
loop_
_symmetry_equiv_pos_as_xyz
'x, y, z'
_cell_length_a     61.929891
_cell_length_b     56.153527
_cell_length_c     55.698927
_cell_angle_alpha  100.2528
_cell_angle_beta   93.673443
_cell_angle_gamma 101.60967
loop_
_atom_site_label
_atom_site_type_symbol
_atom_site_fract_x
_atom_site_fract_y
_atom_site_fract_z
_atom_type_partial_charge
Co0 Co 0.12078 0.33873 0.38199 0.0
O1 O 0.15243 0.34187 0.3853 0.0
O2 O 0.12953 0.31999 0.35317 0.0
C3 C 0.12057 0.37917 0.3941 0.0
O4 O 0.08787 0.33281 0.371 0.0
Co5 Co 0.09555 0.35211 0.42722 0.0
O6 O 0.07134 0.35118 0.40169 0.0
C7 C 0.11164 0.30587 0.42011 0.0
C8 C 0.14975 0.32826 0.36342 0.0
C9 C 0.07124 0.34087 0.37935 0.0
O10 O 0.11621 0.30864 0.39834 0.0
O11 O 0.1054 0.32243 0.4353 0.0
O12 O 0.12458 0.37086 0.37192 0.0
O13 O 0.11966 0.36364 0.40877 0.0
Co14 Co 0.01549 0.77293 0.67029 0.0
O15 O 0.98381 0.76565 0.67098 0.0
O16 O 1.00846 0.77157 0.70335 0.0
C17 C 0.01686 0.80226 0.64707 0.0
O18 O 0.04913 0.781 0.677 0.0
Co19 Co 0.0368 0.76416 0.62122 0.0
O20 O 0.06546 0.77772 0.64199 0.0
C21 C 0.01513 0.72199 0.64232 0.0
C22 C 0.9878 0.76681 0.69437 0.0
C23 C 0.0665 0.78248 0.66534 0.0
O24 O 0.01515 0.73637 0.66305 0.0
O25 O 0.02038 0.72991 0.62284 0.0
O26 O 0.0158 0.80801 0.67057 0.0
O27 O 0.01528 0.77906 0.63841 0.0
Co28 Co 0.62674 0.84438 0.89098 0.0
O29 O 0.6584 0.84775 0.89369 0.0
O30 O 0.63494 0.82193 0.86427 0.0
C31 C 0.62648 0.88517 0.89766 0.0
O32 O 0.59333 0.83692 0.88138 0.0
Co33 Co 0.60348 0.86421 0.93583 0.0
O34 O 0.57797 0.85901 0.91068 0.0
C35 C 0.62047 0.81886 0.93485 0.0
C36 C 0.65535 0.83102 0.87371 0.0
C37 C 0.57682 0.84556 0.88944 0.0
O38 O 0.62372 0.81815 0.91211 0.0
O39 O 0.61442 0.83696 0.94806 0.0
O40 O 0.62953 0.87387 0.87609 0.0
O41 O 0.62636 0.87231 0.91472 0.0
Co42 Co 0.50916 0.27416 0.15059 0.0
O43 O 0.47759 0.2698 0.15084 0.0
O44 O 0.50154 0.2768 0.18395 0.0
C45 C 0.51245 0.3005 0.12416 0.0
O46 O 0.54268 0.28003 0.15773 0.0
Co47 Co 0.53068 0.25945 0.10266 0.0
O48 O 0.55933 0.27451 0.12309 0.0
C49 C 0.5065 0.22117 0.12722 0.0
C50 C 0.48108 0.27308 0.17455 0.0
C51 C 0.56019 0.28038 0.14638 0.0
O52 O 0.50667 0.23731 0.1468 0.0
O53 O 0.51257 0.22688 0.10704 0.0
O54 O 0.51179 0.30886 0.14736 0.0
O55 O 0.50968 0.27684 0.11773 0.0
Co56 Co 0.1014 0.82289 0.1291 0.0
O57 O 0.06907 0.81838 0.12591 0.0
O58 O 0.0891 0.81557 0.15888 0.0
C59 C 0.10702 0.85914 0.1127 0.0
O60 O 0.13435 0.82661 0.1425 0.0
Co61 Co 0.13075 0.82197 0.08963 0.0
O62 O 0.15745 0.82951 0.11368 0.0
C63 C 0.10628 0.77362 0.09717 0.0
C64 C 0.0696 0.81465 0.14829 0.0
C65 C 0.15419 0.82897 0.13587 0.0
O66 O 0.09847 0.78557 0.1155 0.0
O67 O 0.119 0.78499 0.08368 0.0
O68 O 0.10454 0.85929 0.13569 0.0
O69 O 0.10601 0.83717 0.09977 0.0
Co70 Co 0.53329 0.77906 0.43395 0.0
O71 O 0.56562 0.78576 0.43907 0.0
O72 O 0.54585 0.76869 0.40375 0.0
C73 C 0.53037 0.81788 0.45391 0.0
O74 O 0.50036 0.77153 0.41865 0.0
Co75 Co 0.50286 0.77615 0.47233 0.0
O76 O 0.4788 0.77907 0.44838 0.0
C77 C 0.52467 0.73441 0.46133 0.0
C78 C 0.56534 0.77715 0.41576 0.0
C79 C 0.48146 0.77485 0.4257 0.0
O80 O 0.53208 0.74449 0.44337 0.0
O81 O 0.51278 0.74472 0.47612 0.0
O82 O 0.53484 0.81354 0.43134 0.0
O83 O 0.52901 0.79902 0.46485 0.0
Co84 Co 0.60163 0.32431 0.63062 0.0
O85 O 0.56954 0.31986 0.62487 0.0
O86 O 0.5872 0.31697 0.65938 0.0
C87 C 0.60807 0.36068 0.61439 0.0
O88 O 0.63412 0.32831 0.6462 0.0
Co89 Co 0.63251 0.32294 0.59328 0.0
O90 O 0.65834 0.33197 0.61858 0.0
C91 C 0.60737 0.27465 0.59983 0.0
C92 C 0.56841 0.31611 0.64713 0.0
C93 C 0.65434 0.33142 0.64057 0.0
O94 O 0.59889 0.28687 0.6174 0.0
O95 O 0.62096 0.28586 0.58703 0.0
O96 O 0.60477 0.36067 0.63715 0.0
O97 O 0.60764 0.33877 0.60155 0.0
Co98 Co 0.03348 0.27896 0.93523 0.0
O99 O 0.06581 0.28512 0.93929 0.0
O100 O 0.04517 0.26778 0.90458 0.0
C101 C 0.03136 0.31802 0.95491 0.0
O102 O 1.00017 0.272 0.92129 0.0
Co103 Co 1.00443 0.27754 0.97546 0.0
O104 O 0.98028 0.28145 0.95224 0.0
C105 C 0.02527 0.23506 0.96363 0.0
C106 C 0.06493 0.2761 0.916 0.0
C107 C 0.98194 0.27659 0.92934 0.0
O108 O 0.03212 0.24461 0.94515 0.0
O109 O 0.01413 0.24593 0.97894 0.0
O110 O 0.03531 0.31334 0.93217 0.0
O111 O 0.03022 0.29939 0.96613 0.0
Co112 Co 0.45781 0.04177 0.29485 0.0
O113 O 0.46188 0.07456 0.28694 0.0
O114 O 0.43156 0.0448 0.27649 0.0
C115 C 0.47226 0.05467 0.33442 0.0
O116 O 0.44586 1.0067 0.2998 0.0
Co117 Co 0.49456 0.01741 0.31394 0.0
O118 O 0.46994 0.99339 0.32321 0.0
C119 C 0.48713 0.01839 0.26079 0.0
C120 C 0.44165 0.06738 0.27638 0.0
C121 C 0.45072 0.9911 0.31238 0.0
O122 O 0.47041 0.02865 0.26392 0.0
O123 O 0.499 1.01365 0.27829 0.0
O124 O 0.45182 0.05539 0.32816 0.0
O125 O 0.48327 0.04743 0.31673 0.0
Co126 Co 0.30738 0.19322 0.5136 0.0
O127 O 0.33944 0.1991 0.51826 0.0
O128 O 0.31667 0.16546 0.52421 0.0
C129 C 0.3057 0.20498 0.47656 0.0
O130 O 0.27385 0.1792 0.51008 0.0
Co131 Co 0.28144 0.23386 0.50924 0.0
O132 O 0.25491 0.20651 0.49962 0.0
C133 C 0.29945 0.22937 0.55841 0.0
C134 C 0.33694 0.17734 0.52401 0.0
C135 C 0.25552 0.18504 0.50368 0.0
O136 O 0.30663 0.21016 0.54882 0.0
O137 O 0.28987 0.24189 0.54569 0.0
O138 O 0.30793 0.18281 0.47826 0.0
O139 O 0.30579 0.21979 0.49723 0.0
Co140 Co 0.18868 1.01379 0.7816 0.0
O141 O 0.18531 0.97606 0.77792 0.0
O142 O 0.21572 0.99956 0.77326 0.0
C143 C 0.17189 0.0196 0.82042 0.0
O144 O 0.20384 0.05217 0.78527 0.0
Co145 Co 0.15527 0.04665 0.78607 0.0
O146 O 0.17994 0.07643 0.79508 0.0
C147 C 0.16068 0.02382 0.73482 0.0
C148 C 0.20611 0.97712 0.77455 0.0
C149 C 0.19949 0.0742 0.79109 0.0
O150 O 0.17592 1.01308 0.74385 0.0
O151 O 0.15037 0.03691 0.74926 0.0
O152 O 0.19199 0.01633 0.8188 0.0
O153 O 0.16222 0.01864 0.79884 0.0
Co154 Co 0.34193 0.96396 0.02692 0.0
O155 O 0.31088 0.96307 0.0296 0.0
O156 O 0.33789 0.99652 0.04106 0.0
C157 C 0.33803 0.94211 0.98828 0.0
O158 O 0.37547 0.97294 0.02577 0.0
Co159 Co 0.36119 0.91629 0.01848 0.0
O160 O 0.38874 0.93871 0.01349 0.0
C161 C 0.34721 0.93461 0.06682 0.0
C162 C 0.31681 0.98666 0.03877 0.0
C163 C 0.39119 0.96213 0.01904 0.0
O164 O 0.34468 0.95493 0.06045 0.0
O165 O 0.35219 0.91666 0.05226 0.0
O166 O 0.33802 0.96564 0.99217 0.0
O167 O 0.3385 0.93239 1.00756 0.0
Co168 Co 0.32726 0.40233 0.03809 0.0
O169 O 0.29519 0.39525 0.03363 0.0
O170 O 0.31625 0.4311 0.05255 0.0
C171 C 0.3311 0.38607 0.99882 0.0
O172 O 0.36061 0.41799 0.04442 0.0
Co173 Co 0.35462 0.36167 0.03061 0.0
O174 O 0.38054 0.38936 0.03287 0.0
C175 C 0.33143 0.36917 0.07528 0.0
C176 C 0.29652 0.41817 0.04408 0.0
C177 C 0.37921 0.41174 0.0404 0.0
O178 O 0.32698 0.38933 0.07008 0.0
O179 O 0.3406 0.3548 0.06076 0.0
O180 O 0.32762 0.40831 1.00462 0.0
O181 O 0.33063 0.37372 0.0163 0.0
Co182 Co 0.81632 0.15265 0.01808 0.0
O183 O 0.84641 0.14933 0.0225 0.0
O184 O 0.81736 0.12301 0.03084 0.0
C185 C 0.81726 0.16171 0.98039 0.0
O186 O 0.78304 0.15015 0.01539 0.0
Co187 Co 0.80662 0.20383 0.01199 0.0
O188 O 0.77532 0.18497 1.00564 0.0
C189 C 0.82117 0.19598 0.06066 0.0
C190 C 0.83872 0.12914 0.03027 0.0
C191 C 0.7692 0.16316 0.00992 0.0
O192 O 0.81899 0.17269 0.05225 0.0
O193 O 0.8194 0.21189 0.04723 0.0
O194 O 0.81424 0.13875 0.98296 0.0
O195 O 0.82199 0.17802 1.00047 0.0
Co196 Co 0.20324 0.53481 0.27573 0.0
O197 O 0.20114 0.4996 0.27163 0.0
O198 O 0.22892 0.52612 0.26148 0.0
C199 C 0.19418 0.5392 0.31471 0.0
O200 O 0.21207 0.57229 0.27825 0.0
Co201 Co 0.16397 0.5601 0.2889 0.0
O202 O 0.18728 0.59101 0.29731 0.0
C203 C 0.16675 0.53587 0.23724 0.0
C204 C 0.22076 0.50365 0.2642 0.0
C205 C 0.20581 0.59188 0.28844 0.0
O206 O 0.18584 0.53102 0.24257 0.0
O207 O 0.15541 0.54534 0.25335 0.0
O208 O 0.21445 0.5387 0.31039 0.0
O209 O 0.18024 0.53584 0.29562 0.0
Co210 Co 0.82792 0.90056 0.54257 0.0
O211 O 0.79584 0.89564 0.54122 0.0
O212 O 0.81932 0.93099 0.55662 0.0
C213 C 0.82873 0.88165 0.50316 0.0
O214 O 0.86148 0.9144 0.54556 0.0
Co215 Co 0.85287 0.85782 0.53521 0.0
O216 O 0.87951 0.88388 0.53443 0.0
C217 C 0.83383 0.87001 0.58204 0.0
C218 C 0.79886 0.91914 0.55057 0.0
C219 C 0.87932 0.90677 0.54074 0.0
O220 O 0.82962 0.8899 0.57584 0.0
O221 O 0.84128 0.854 0.56742 0.0
O222 O 0.82618 0.90431 0.50832 0.0
O223 O 0.82889 0.87039 0.52146 0.0
Co224 Co 0.94407 0.08399 0.28671 0.0
O225 O 0.94696 0.12182 0.29072 0.0
O226 O 0.91655 0.09627 0.27687 0.0
C227 C 0.96242 0.08234 0.32655 0.0
O228 O 0.92908 0.04544 0.28184 0.0
Co229 Co 0.97878 0.05186 0.28731 0.0
O230 O 0.95437 0.02281 0.28723 0.0
C231 C 0.97289 0.07138 0.24146 0.0
C232 C 0.92606 0.11954 0.2833 0.0
C233 C 0.93422 0.02424 0.28354 0.0
O234 O 0.95585 0.08013 0.25017 0.0
O235 O 0.98447 0.06135 0.25493 0.0
O236 O 0.94261 0.08675 0.32382 0.0
O237 O 0.97102 0.08105 0.30596 0.0
Co238 Co 0.30816 0.64395 0.51893 0.0
O239 O 0.33925 0.64444 0.52174 0.0
O240 O 0.31322 0.61491 0.53062 0.0
C241 C 0.30672 0.65385 0.48162 0.0
O242 O 0.27449 0.6371 0.51756 0.0
Co243 Co 0.2909 0.69145 0.51321 0.0
O244 O 0.26215 0.66749 0.5032 0.0
C245 C 0.30633 0.68418 0.56237 0.0
C246 C 0.33411 0.62342 0.52884 0.0
C247 C 0.25875 0.64644 0.50953 0.0
O248 O 0.31048 0.66303 0.55348 0.0
O249 O 0.29939 0.69837 0.54949 0.0
O250 O 0.30585 0.63098 0.4836 0.0
O251 O 0.31025 0.66985 0.50191 0.0
Co252 Co 0.4454 0.58251 0.78504 0.0
O253 O 0.44909 0.62038 0.78872 0.0
O254 O 0.4183 0.59541 0.77508 0.0
C255 C 0.46341 0.5811 0.82503 0.0
O256 O 0.42989 0.54403 0.78013 0.0
Co257 Co 0.47911 0.54929 0.78646 0.0
O258 O 0.45433 0.52248 0.79133 0.0
C259 C 0.47403 0.56872 0.74019 0.0
C260 C 0.42825 0.61856 0.78133 0.0
C261 C 0.43445 0.52358 0.78527 0.0
O262 O 0.45732 0.57818 0.74873 0.0
O263 O 0.48497 0.55802 0.75366 0.0
O264 O 0.44373 0.58577 0.82211 0.0
O265 O 0.47208 0.5792 0.80448 0.0
Co266 Co 0.70744 0.04903 0.77269 0.0
O267 O 0.70827 1.01471 0.77026 0.0
O268 O 0.72837 0.04053 0.75028 0.0
C269 C 0.70932 0.05853 0.81377 0.0
O270 O 0.71204 0.08561 0.77136 0.0
Co271 Co 0.66925 0.07084 0.795 0.0
O272 O 0.69002 0.10313 0.79626 0.0
C273 C 0.66218 0.04189 0.74427 0.0
C274 C 0.72339 0.01849 0.75542 0.0
C275 C 0.70605 0.10475 0.78295 0.0
O276 O 0.68267 0.04031 0.74522 0.0
O277 O 0.65344 0.05181 0.76264 0.0
O278 O 0.72733 0.05806 0.80314 0.0
O279 O 0.69097 0.0512 0.7996 0.0
Co280 Co 0.80828 0.68772 0.01658 0.0
O281 O 0.84011 0.69139 0.02351 0.0
O282 O 0.81483 0.65858 0.02677 0.0
C283 C 0.80974 0.70134 0.98037 0.0
O284 O 0.77457 0.67539 0.01053 0.0
Co285 Co 0.78475 0.73025 0.01194 0.0
O286 O 0.75746 0.70431 1.00049 0.0
C287 C 0.79922 0.72308 0.06143 0.0
C288 C 0.83566 0.66924 0.02846 0.0
C289 C 0.75693 0.68233 1.00368 0.0
O290 O 0.80607 0.70363 0.05185 0.0
O291 O 0.79112 0.73663 0.04864 0.0
O292 O 0.81075 0.67864 0.98139 0.0
O293 O 0.80918 0.71549 1.00126 0.0
Co294 Co 0.94372 0.56621 0.81182 0.0
O295 O 0.94449 0.59986 0.80786 0.0
O296 O 0.91874 0.56707 0.78976 0.0
C297 C 0.95146 0.57527 0.85294 0.0
O298 O 0.93612 0.52921 0.81162 0.0
Co299 Co 0.9837 0.54881 0.83434 0.0
O300 O 0.96123 0.51858 0.83625 0.0
C301 C 0.98297 0.55935 0.78398 0.0
C302 C 0.92626 0.59089 0.79334 0.0
C303 C 0.94274 0.5136 0.82302 0.0
O304 O 0.96248 0.56095 0.78381 0.0
O305 O 0.99454 0.5569 0.80294 0.0
O306 O 0.93119 0.57248 0.84331 0.0
O307 O 0.96614 0.5738 0.83776 0.0
Co308 Co 0.83027 0.4568 0.52772 0.0
O309 O 0.80011 0.45948 0.5318 0.0
O310 O 0.82939 0.49068 0.54115 0.0
C311 C 0.82423 0.43357 0.48959 0.0
O312 O 0.86347 0.46169 0.52516 0.0
Co313 Co 0.84378 0.4056 0.52126 0.0
O314 O 0.87398 0.42507 0.51967 0.0
C315 C 0.83199 0.42842 0.56878 0.0
C316 C 0.80804 0.48298 0.54013 0.0
C317 C 0.87825 0.44857 0.52196 0.0
O318 O 0.83385 0.44934 0.5618 0.0
O319 O 0.83243 0.40822 0.55418 0.0
O320 O 0.82559 0.45734 0.49269 0.0
O321 O 0.82403 0.42453 0.50931 0.0
Co322 Co 0.68841 0.51488 0.28046 0.0
O323 O 0.68451 0.47712 0.27693 0.0
O324 O 0.7152 0.50017 0.27228 0.0
C325 C 0.67169 0.52109 0.31921 0.0
O326 O 0.704 0.5531 0.28381 0.0
Co327 Co 0.65559 0.5484 0.28493 0.0
O328 O 0.68054 0.57794 0.29352 0.0
C329 C 0.66048 0.52486 0.23375 0.0
C330 C 0.70528 0.47785 0.27362 0.0
C331 C 0.69998 0.57531 0.28944 0.0
O332 O 0.67564 0.51401 0.24275 0.0
O333 O 0.65039 0.53824 0.24818 0.0
O334 O 0.69176 0.51769 0.31766 0.0
O335 O 0.66205 0.52015 0.29764 0.0
Eu336 Eu 0.04466 0.02395 0.01313 0.0
C337 C 0.09937 0.11887 0.08058 0.0
C338 C 0.10451 0.14959 0.05484 0.0
C339 C 0.1042 0.16258 0.09878 0.0
C340 C 0.10063 0.12462 0.05759 0.0
C341 C 0.10167 0.13783 0.10154 0.0
C342 C 0.10567 0.16846 0.07545 0.0
C343 C 0.10137 0.10684 0.12658 0.0
N344 N 0.09743 0.09486 0.08262 0.0
C345 C 0.09938 0.08877 0.10527 0.0
C346 C 0.10218 0.13144 0.1247 0.0
Eu347 Eu 0.09294 0.06483 0.0457 0.0
N348 N 0.09952 0.10594 0.03809 0.0
C349 C 0.104 0.11123 0.01565 0.0
C350 C 0.10787 0.15493 0.03162 0.0
C351 C 0.1079 0.13568 0.01199 0.0
H352 H 0.09874 0.0698 0.10697 0.0
H353 H 0.11084 0.13963 0.99401 0.0
H354 H 0.10832 0.1877 0.07364 0.0
H355 H 0.10227 0.10177 0.14441 0.0
H356 H 0.10401 0.09668 1.00019 0.0
H357 H 0.02821 0.94735 0.06277 0.0
H358 H 0.11101 0.17387 0.02881 0.0
H359 H 0.03394 0.01873 0.95164 0.0
H360 H 0.03331 0.99057 0.05782 0.0
H361 H 0.03233 0.98747 0.914 0.0
H362 H 0.10575 0.17737 0.11463 0.0
H363 H 0.03141 0.91474 0.02782 0.0
H364 H 0.03751 0.90276 0.98388 0.0
H365 H 0.10387 0.14545 0.14123 0.0
H366 H 0.03906 0.91384 0.94321 0.0
N367 N 0.04066 0.98315 0.0207 0.0
C368 C 0.03516 0.97678 0.04243 0.0
C369 C 0.03433 0.93387 0.02574 0.0
C370 C 0.03864 0.94019 1.0031 0.0
C371 C 0.03221 0.95217 0.04537 0.0
C372 C 0.04114 0.96523 1.00087 0.0
H373 H 0.03655 0.9452 0.91691 0.0
N374 N 0.04058 0.9949 0.9757 0.0
C375 C 0.03507 0.98275 0.93179 0.0
C376 C 0.04138 0.97134 0.97776 0.0
C377 C 0.03601 1.00042 0.95317 0.0
C378 C 0.03757 0.95895 0.93352 0.0
C379 C 0.04001 0.95274 0.95665 0.0
O380 O 1.01057 1.00394 1.00059 0.0
O381 O 0.06102 0.0644 0.02394 0.0
O382 O 0.06435 0.06997 0.07047 0.0
O383 O 0.03907 0.03299 0.05509 0.0
O384 O 0.04717 0.05189 0.98803 0.0
O385 O 0.01664 0.04185 0.01959 0.0
O386 O 0.12124 0.05653 0.06547 0.0
O387 O 0.07686 0.02387 0.03405 0.0
O388 O 0.07113 0.02259 0.98496 0.0
O389 O 0.10002 0.05458 1.00434 0.0
O390 O 0.0896 0.03632 0.07025 0.0
O391 O 0.12609 0.07306 0.03354 0.0
C392 C 0.05724 0.07141 1.00372 0.0
C393 C 0.98366 1.01553 0.02595 0.0
C394 C 0.94994 0.02411 0.0426 0.0
C395 C 0.96709 0.02925 0.02766 0.0
C396 C 0.9498 1.00535 0.05627 0.0
C397 C 0.98288 0.99634 0.03917 0.0
C398 C 0.96616 0.99146 0.05441 0.0
C399 C 0.0461 0.05337 0.07268 0.0
C400 C 1.00174 0.02185 0.01066 0.0
C401 C 0.0398 0.92828 0.95919 0.0
C402 C 0.03895 0.92198 0.98236 0.0
C403 C 0.08023 0.01684 0.05436 0.0
C404 C 0.15701 0.07955 0.06309 0.0
C405 C 0.17572 0.06947 0.05922 0.0
C406 C 0.19658 0.08181 0.07148 0.0
C407 C 0.1985 0.10459 0.08764 0.0
C408 C 0.15915 0.10242 0.07902 0.0
C409 C 0.17988 0.11489 0.0912 0.0
C410 C 0.09091 0.03726 0.98457 0.0
C411 C 0.13541 0.06504 0.05119 0.0
H412 H 0.96761 0.04405 0.01743 0.0
H413 H 0.93676 1.00104 0.06789 0.0
H414 H 0.99507 0.98508 0.03772 0.0
H415 H 0.96579 0.97675 0.06467 0.0
H416 H 0.17393 0.05161 0.04712 0.0
H417 H 0.2144 0.11447 0.09731 0.0
H418 H 0.14485 0.11043 0.08222 0.0
H419 H 0.1815 0.13249 0.10359 0.0
Eu420 Eu 0.32592 0.78039 0.25521 0.0
C421 C 0.29025 0.86658 0.31284 0.0
C422 C 0.32099 0.89722 0.33642 0.0
C423 C 0.28856 0.91019 0.32096 0.0
C424 C 0.31148 0.87245 0.32496 0.0
C425 C 0.27833 0.88533 0.31142 0.0
C426 C 0.30981 0.91611 0.33357 0.0
C427 C 0.24584 0.85337 0.29497 0.0
N428 N 0.28047 0.84236 0.30456 0.0
C429 C 0.2582 0.83546 0.29715 0.0
C430 C 0.25608 0.87844 0.30163 0.0
Eu431 Eu 0.3032 0.8134 0.30717 0.0
N432 N 0.32191 0.85378 0.32762 0.0
C433 C 0.34048 0.85839 0.34382 0.0
C434 C 0.34091 0.90215 0.35151 0.0
C435 C 0.35046 0.88259 0.3556 0.0
H436 H 0.2502 0.81607 0.29188 0.0
H437 H 0.36527 0.88603 0.36821 0.0
H438 H 0.3171 0.93526 0.34185 0.0
H439 H 0.22845 0.84782 0.28814 0.0
H440 H 0.34756 0.84362 0.34832 0.0
H441 H 0.2628 0.69925 0.21086 0.0
H442 H 0.34842 0.92083 0.36103 0.0
H443 H 0.38186 0.78459 0.26432 0.0
H444 H 0.27795 0.74348 0.22726 0.0
H445 H 0.40732 0.75668 0.26712 0.0
H446 H 0.27978 0.92485 0.31972 0.0
H447 H 0.28596 0.66874 0.21441 0.0
H448 H 0.32167 0.65971 0.22973 0.0
H449 H 0.24642 0.8923 0.30014 0.0
H450 H 0.36083 0.67534 0.24576 0.0
N451 N 0.30894 0.73813 0.24165 0.0
C452 C 0.28806 0.73039 0.22969 0.0
C453 C 0.2924 0.68808 0.22256 0.0
C454 C 0.31397 0.69612 0.23425 0.0
C455 C 0.2794 0.70528 0.22023 0.0
C456 C 0.32218 0.72173 0.2431 0.0
H457 H 0.3929 0.71137 0.25938 0.0
N458 N 0.35272 0.75558 0.25648 0.0
C459 C 0.38971 0.74912 0.26268 0.0
C460 C 0.34457 0.73066 0.25113 0.0
C461 C 0.37513 0.76492 0.26104 0.0
C462 C 0.3815 0.72357 0.25842 0.0
C463 C 0.3588 0.714 0.25188 0.0
O464 O 0.32777 0.76589 0.21644 0.0
O465 O 0.32652 0.81683 0.27889 0.0
O466 O 0.28947 0.82192 0.271 0.0
O467 O 0.29168 0.78684 0.24303 0.0
O468 O 0.35649 0.81132 0.26652 0.0
O469 O 0.33365 0.80532 0.22935 0.0
O470 O 0.30379 0.79203 0.33635 0.0
O471 O 0.30283 0.77665 0.28407 0.0
O472 O 0.34349 0.77408 0.2903 0.0
O473 O 0.33762 0.80673 0.31997 0.0
O474 O 0.27242 0.78286 0.29288 0.0
O475 O 0.28365 0.81937 0.33802 0.0
C476 C 0.34687 0.8267 0.27959 0.0
C477 C 0.31293 0.78957 0.19086 0.0
C478 C 0.29808 0.81528 0.16572 0.0
C479 C 0.31419 0.81233 0.18331 0.0
C480 C 0.28053 0.79506 0.15584 0.0
C481 C 0.29534 0.76954 0.18051 0.0
C482 C 0.27925 0.77237 0.16318 0.0
C483 C 0.28326 0.80672 0.24944 0.0
C484 C 0.32945 0.78742 0.21028 0.0
C485 C 0.35017 0.68838 0.2451 0.0
C486 C 0.32786 0.67947 0.23603 0.0
C487 C 0.28252 0.76661 0.28224 0.0
C488 C 0.26844 0.78169 0.35006 0.0
C489 C 0.27193 0.76134 0.35989 0.0
C490 C 0.25402 0.74234 0.36214 0.0
C491 C 0.23236 0.7441 0.35477 0.0
C492 C 0.24666 0.78309 0.34261 0.0
C493 C 0.22877 0.76438 0.345 0.0
C494 C 0.34835 0.78877 0.31234 0.0
C495 C 0.28777 0.80046 0.34654 0.0
H496 H 0.32802 0.82762 0.19082 0.0
H497 H 0.26792 0.79668 0.14224 0.0
H498 H 0.29387 0.75174 0.18589 0.0
H499 H 0.26571 0.7569 0.1554 0.0
H500 H 0.28869 0.76039 0.36591 0.0
H501 H 0.21827 0.72969 0.35627 0.0
H502 H 0.2434 0.79846 0.33471 0.0
H503 H 0.21206 0.76553 0.33915 0.0
Eu504 Eu 0.59133 0.04919 0.52597 0.0
C505 C 0.52181 0.99891 0.58711 0.0
C506 C 0.50191 0.96101 0.56024 0.0
C507 C 0.50757 0.96257 0.60413 0.0
C508 C 0.51382 0.98578 0.56376 0.0
C509 C 0.51858 0.98756 0.60762 0.0
C510 C 0.4992 0.94933 0.58049 0.0
C511 C 0.53633 0.02682 0.63356 0.0
N512 N 0.53237 0.02301 0.5898 0.0
C513 C 0.53902 0.03729 0.61266 0.0
C514 C 0.52626 1.00178 0.63102 0.0
Eu515 Eu 0.53856 0.03854 0.55331 0.0
N516 N 0.51683 0.99758 0.54461 0.0
C517 C 0.50685 0.98632 0.5217 0.0
C518 C 0.49262 0.94893 0.53656 0.0
C519 C 0.49485 0.96176 0.51726 0.0
H520 H 0.5471 0.05656 0.6148 0.0
H521 H 0.48745 0.95272 0.49894 0.0
H522 H 0.49032 0.93022 0.57811 0.0
H523 H 0.54214 0.03803 0.65159 0.0
H524 H 0.50859 0.99599 0.50661 0.0
H525 H 0.64464 0.13173 0.58339 0.0
H526 H 0.48325 0.92996 0.53311 0.0
H527 H 0.58307 0.03368 0.46446 0.0
H528 H 0.62064 0.08995 0.57435 0.0
H529 H 0.58999 0.05331 0.42861 0.0
H530 H 0.50507 0.95346 0.61964 0.0
H531 H 0.65235 0.15493 0.55 0.0
H532 H 0.64619 0.15685 0.50547 0.0
H533 H 0.52422 0.99371 0.64724 0.0
H534 H 0.6311 0.13565 0.46339 0.0
N535 N 0.61397 0.08966 0.53633 0.0
C536 C 0.62359 0.09988 0.55962 0.0
C537 C 0.64138 0.13677 0.54601 0.0
C538 C 0.63189 0.12602 0.5221 0.0
C539 C 0.63724 0.12363 0.56485 0.0
C540 C 0.61837 0.10195 0.51773 0.0
H541 H 0.61029 0.09698 0.43454 0.0
N542 N 0.59875 0.06611 0.49051 0.0
C543 C 0.59583 0.0638 0.44692 0.0
C544 C 0.61035 0.08986 0.49408 0.0
C545 C 0.59202 0.05272 0.46728 0.0
C546 C 0.60722 0.08848 0.45035 0.0
C547 C 0.61496 0.10172 0.47412 0.0
O548 O 0.61173 0.02529 0.50765 0.0
O549 O 0.56307 0.02027 0.53322 0.0
O550 O 0.56338 0.02378 0.57452 0.0
O551 O 0.59529 0.04987 0.56712 0.0
O552 O 0.57514 1.01303 0.49977 0.0
O553 O 0.62128 0.04381 0.54539 0.0
O554 O 0.50615 0.03968 0.53602 0.0
O555 O 0.56652 0.06741 0.54518 0.0
O556 O 0.56588 0.06303 0.5042 0.0
O557 O 0.53392 0.03726 0.51227 0.0
O558 O 0.55494 0.07546 0.57862 0.0
O559 O 0.51884 0.06368 0.57088 0.0
C560 C 0.56084 1.00424 0.51349 0.0
C561 C 0.64993 0.03385 0.52206 0.0
C562 C 0.68579 0.02149 0.52309 0.0
C563 C 0.66322 0.01739 0.52746 0.0
C564 C 0.69474 0.04253 0.51354 0.0
C565 C 0.6593 0.05458 0.51252 0.0
C566 C 0.6816 0.05887 0.50834 0.0
C567 C 0.5845 0.03462 0.58008 0.0
C568 C 0.6264 0.02932 0.52663 0.0
C569 C 0.62749 0.12616 0.47847 0.0
C570 C 0.63605 0.13824 0.50242 0.0
C571 C 0.56892 0.084 0.56445 0.0
C572 C 0.49895 0.07977 0.54235 0.0
C573 C 0.47799 0.08595 0.54295 0.0
C574 C 0.47362 0.10564 0.5321 0.0
C575 C 0.4905 0.11905 0.52095 0.0
C576 C 0.51555 0.09373 0.53141 0.0
C577 C 0.51134 0.11319 0.52075 0.0
C578 C 0.54467 0.0521 0.49895 0.0
C579 C 0.50363 0.05844 0.55229 0.0
H580 H 0.65591 1.00128 0.5347 0.0
H581 H 0.71204 0.04656 0.51033 0.0
H582 H 0.64938 0.06743 0.50835 0.0
H583 H 0.68876 0.07498 0.50106 0.0
H584 H 0.46508 0.07527 0.55137 0.0
H585 H 0.48764 0.13432 0.51264 0.0
H586 H 0.53177 0.08944 0.53099 0.0
H587 H 0.52426 0.12374 0.51227 0.0
Eu588 Eu 0.29 0.30668 0.77823 0.0
C589 C 0.35939 0.26431 0.82917 0.0
C590 C 0.3761 0.29763 0.8631 0.0
C591 C 0.37134 0.25491 0.86824 0.0
C592 C 0.36567 0.28943 0.83889 0.0
C593 C 0.36304 0.24681 0.84343 0.0
C594 C 0.3779 0.28032 0.87806 0.0
C595 C 0.35373 0.21505 0.80668 0.0
N596 N 0.35202 0.25709 0.80501 0.0
C597 C 0.35053 0.23311 0.79329 0.0
C598 C 0.35946 0.22183 0.83199 0.0
Eu599 Eu 0.34383 0.28834 0.78456 0.0
N600 N 0.36394 0.30572 0.82386 0.0
C601 C 0.37526 0.32987 0.83083 0.0
C602 C 0.38574 0.32279 0.87104 0.0
C603 C 0.38592 0.33882 0.85458 0.0
H604 H 0.34583 0.22781 0.77372 0.0
H605 H 0.39425 0.35812 0.86018 0.0
H606 H 0.3854 0.28635 0.89685 0.0
H607 H 0.35166 0.19594 0.79749 0.0
H608 H 0.37616 0.3427 0.81853 0.0
H609 H 0.24476 0.24176 0.69715 0.0
H610 H 0.39419 0.32975 0.88933 0.0
H611 H 0.28732 0.3661 0.79487 0.0
H612 H 0.26442 0.25447 0.73857 0.0
H613 H 0.27906 0.40035 0.77603 0.0
H614 H 0.37386 0.24173 0.87961 0.0
H615 H 0.23925 0.27341 0.67308 0.0
H616 H 0.24426 0.31833 0.6706 0.0
H617 H 0.36206 0.20784 0.84232 0.0
H618 H 0.25394 0.36192 0.69213 0.0
N619 N 0.27134 0.29303 0.73786 0.0
C620 C 0.26249 0.26857 0.72834 0.0
C621 C 0.24848 0.27909 0.69107 0.0
C622 C 0.25646 0.30416 0.70135 0.0
C623 C 0.2513 0.26121 0.70473 0.0
C624 C 0.26759 0.3106 0.72527 0.0
H625 H 0.26641 0.39267 0.73172 0.0
N626 N 0.28064 0.33972 0.76135 0.0
C627 C 0.27729 0.38206 0.76488 0.0
C628 C 0.27261 0.33489 0.73742 0.0
C629 C 0.28192 0.36262 0.77549 0.0
C630 C 0.27028 0.37768 0.73986 0.0
C631 C 0.26724 0.3537 0.72593 0.0
O632 O 0.26907 0.32111 0.8052 0.0
O633 O 0.31725 0.30202 0.80446 0.0
O634 O 0.31694 0.2551 0.79098 0.0
O635 O 0.28342 0.26457 0.77893 0.0
O636 O 0.30455 0.33368 0.81313 0.0
O637 O 0.2585 0.28397 0.78473 0.0
O638 O 0.36431 0.30364 0.75777 0.0
O639 O 0.31651 0.29209 0.75826 0.0
O640 O 0.31658 0.33994 0.77154 0.0
O641 O 0.34995 0.33076 0.78526 0.0
O642 O 0.32779 0.25932 0.75153 0.0
O643 O 0.37511 0.27731 0.77644 0.0
C644 C 0.31876 0.32181 0.82006 0.0
C645 C 0.23033 0.30481 0.79765 0.0
C646 C 0.19359 0.30409 0.81248 0.0
C647 C 0.21547 0.30024 0.81548 0.0
C648 C 0.18695 0.31214 0.79118 0.0
C649 C 0.2231 0.31286 0.77675 0.0
C650 C 0.20155 0.31644 0.77356 0.0
C651 C 0.29493 0.24888 0.78595 0.0
C652 C 0.25334 0.30124 0.80075 0.0
C653 C 0.25793 0.34771 0.70139 0.0
C654 C 0.25244 0.32291 0.68913 0.0
C655 C 0.31454 0.27175 0.74328 0.0
C656 C 0.38739 0.27937 0.73712 0.0
C657 C 0.40968 0.28694 0.73226 0.0
C658 C 0.41742 0.27557 0.71062 0.0
C659 C 0.40232 0.25693 0.69393 0.0
C660 C 0.37297 0.26061 0.72008 0.0
C661 C 0.38041 0.24953 0.69869 0.0
C662 C 0.33849 0.3464 0.77783 0.0
C663 C 0.37939 0.29087 0.76 0.0
H664 H 0.22103 0.29411 0.83172 0.0
H665 H 0.17027 0.31486 0.78794 0.0
H666 H 0.23412 0.31633 0.76285 0.0
H667 H 0.19611 0.32257 0.75729 0.0
H668 H 0.42098 0.30127 0.74544 0.0
H669 H 0.4074 0.24811 0.67694 0.0
H670 H 0.35594 0.25439 0.72321 0.0
H671 H 0.36912 0.23502 0.68574 0.0
Eu672 Eu 0.05965 0.0735 0.54186 0.0
C673 C 0.10027 0.01731 0.46087 0.0
C674 C 0.07318 1.01144 0.42571 0.0
C675 C 0.11224 0.01601 0.41995 0.0
C676 C 0.07845 1.01461 0.45129 0.0
C677 C 0.11728 0.01736 0.44516 0.0
C678 C 0.09023 1.01303 0.41024 0.0
C679 C 0.14267 0.01731 0.47989 0.0
N680 N 0.10468 0.01835 0.48534 0.0
C681 C 0.12531 0.01709 0.49476 0.0
C682 C 0.13874 0.0179 0.45509 0.0
Eu683 Eu 0.07444 0.0212 0.50912 0.0
N684 N 0.06222 1.01286 0.46663 0.0
C685 C 0.04051 1.00486 0.45724 0.0
C686 C 0.05087 1.00554 0.41626 0.0
C687 C 0.0345 1.00151 0.43203 0.0
H688 H 0.12868 0.0164 0.51381 0.0
H689 H 0.0172 0.99594 0.4248 0.0
H690 H 0.08649 1.01102 0.39062 0.0
H691 H 0.15909 0.01701 0.48759 0.0
H692 H 0.02758 1.00156 0.46903 0.0
H693 H 0.12417 0.10435 0.62048 0.0
H694 H 0.04614 1.00295 0.39675 0.0
H695 H 1.00476 0.07118 0.54249 0.0
H696 H 0.11003 0.0954 0.57733 0.0
H697 H 0.97699 0.07028 0.57224 0.0
H698 H 0.12514 0.01636 0.40768 0.0
H699 H 0.09842 0.09996 0.65225 0.0
H700 H 0.05947 0.09091 0.66299 0.0
H701 H 0.15224 0.01801 0.44363 0.0
H702 H 0.01951 0.08173 0.64997 0.0
N703 N 0.07594 0.08514 0.58348 0.0
C704 C 0.0982 0.09334 0.59047 0.0
C705 C 0.09194 0.09594 0.63309 0.0
C706 C 0.06914 0.08892 0.6261 0.0
C707 C 0.10649 0.09853 0.61522 0.0
C708 C 0.06149 0.08389 0.60086 0.0
H709 H 0.98871 0.07446 0.61633 0.0
N710 N 0.03206 0.07545 0.56937 0.0
C711 C 0.99434 0.07265 0.57849 0.0
C712 C 0.03894 0.07885 0.59359 0.0
C713 C 1.01016 0.07325 0.56169 0.0
C714 C 1.00101 0.07493 0.60334 0.0
C715 C 0.02355 0.07848 0.61124 0.0
O716 O 0.07549 0.1061 0.5279 0.0
O717 O 0.0588 0.05344 0.50216 0.0
O718 O 0.10086 0.05337 0.50401 0.0
O719 O 0.09647 0.08305 0.53676 0.0
O720 O 0.03052 0.06438 0.51163 0.0
O721 O 0.0478 0.10806 0.54899 0.0
O722 O 0.07262 0.98245 0.49226 0.0
O723 O 0.0747 0.04113 0.54891 0.0
O724 O 0.03524 0.03945 0.54761 0.0
O725 O 0.03744 1.01265 0.51197 0.0
O726 O 0.10297 0.02964 0.5399 0.0
O727 O 0.06903 0.99199 0.53073 0.0
C728 C 0.03933 0.05456 0.49314 0.0
C729 C 0.04984 0.12799 0.5147 0.0
C730 C 0.05251 0.15391 0.4835 0.0
C731 C 0.06228 0.14605 0.50347 0.0
C732 C 0.03035 0.14276 0.47447 0.0
C733 C 0.02748 0.11798 0.50587 0.0
C734 C 0.01796 0.12507 0.48568 0.0
C735 C 0.1078 0.075 0.51884 0.0
C736 C 0.0606 0.11858 0.53448 0.0
C737 C 0.0311 0.08222 0.6362 0.0
C738 C 0.05385 0.08744 0.64361 0.0
C739 C 0.09405 0.03983 0.55825 0.0
C740 C 0.04881 0.95299 0.50987 0.0
C741 C 0.04734 0.9387 0.52822 0.0
C742 C 0.02961 0.9182 0.52686 0.0
C743 C 1.01314 0.91253 0.50681 0.0
C744 C 0.0321 0.94711 0.4902 0.0
C745 C 0.01435 0.92701 0.48877 0.0
C746 C 0.02711 0.01906 0.53124 0.0
C747 C 0.06775 0.97414 0.51203 0.0
H748 H 0.07939 0.15418 0.51055 0.0
H749 H 0.02251 0.14783 0.45876 0.0
H750 H 0.01733 0.10443 0.51434 0.0
H751 H 1.00086 0.11684 0.47871 0.0
H752 H 0.05999 0.94384 0.5437 0.0
H753 H 0.99944 0.8967 0.50476 0.0
H754 H 0.03272 0.958 0.47597 0.0
H755 H 1.00153 0.92252 0.47352 0.0
Eu756 Eu 0.34058 0.81859 0.76787 0.0
C757 C 0.29788 0.7625 0.8425 0.0
C758 C 0.31231 0.72509 0.83708 0.0
C759 C 0.30386 0.74317 0.87741 0.0
C760 C 0.30626 0.74479 0.8276 0.0
C761 C 0.29588 0.76137 0.86738 0.0
C762 C 0.31201 0.72499 0.86225 0.0
C763 C 0.27478 0.79335 0.86943 0.0
N764 N 0.28962 0.7793 0.83203 0.0
C765 C 0.27683 0.7934 0.84458 0.0
C766 C 0.28479 0.77766 0.88104 0.0
Eu767 Eu 0.29577 0.77979 0.7905 0.0
N768 N 0.30594 0.74516 0.80328 0.0
C769 C 0.30862 0.7249 0.7871 0.0
C770 C 0.31702 0.70525 0.82072 0.0
C771 C 0.31446 0.7048 0.79555 0.0
H772 H 0.26871 0.80522 0.83561 0.0
H773 H 0.31722 0.68912 0.78266 0.0
H774 H 0.31699 0.71027 0.86994 0.0
H775 H 0.26536 0.80528 0.87954 0.0
H776 H 0.30658 0.72422 0.76762 0.0
H777 H 0.31771 0.90783 0.77073 0.0
H778 H 0.32162 0.68971 0.82723 0.0
H779 H 0.361 0.78417 0.72142 0.0
H780 H 0.32786 0.87347 0.78785 0.0
H781 H 0.36555 0.78315 0.67787 0.0
H782 H 0.30276 0.74222 0.89657 0.0
H783 H 0.31649 0.90661 0.72605 0.0
H784 H 0.3236 0.88548 0.68457 0.0
H785 H 0.28293 0.77742 0.90021 0.0
H786 H 0.33705 0.85189 0.65948 0.0
N787 N 0.3312 0.85245 0.75311 0.0
C788 C 0.32711 0.87259 0.76829 0.0
C789 C 0.32083 0.89141 0.73345 0.0
C790 C 0.32664 0.87153 0.7182 0.0
C791 C 0.32155 0.8922 0.75868 0.0
C792 C 0.33211 0.85217 0.72876 0.0
H793 H 0.35314 0.81406 0.65693 0.0
N794 N 0.34608 0.81558 0.72565 0.0
C795 C 0.35827 0.79732 0.68798 0.0
C796 C 0.33997 0.83336 0.71466 0.0
C797 C 0.35574 0.79807 0.71285 0.0
C798 C 0.35122 0.81478 0.67622 0.0
C799 C 0.34215 0.83325 0.68959 0.0
O800 O 0.37229 0.82369 0.79019 0.0
O801 O 0.33125 0.78154 0.78053 0.0
O802 O 0.31499 0.80683 0.82367 0.0
O803 O 0.33438 0.83772 0.80541 0.0
O804 O 0.35966 0.78684 0.76415 0.0
O805 O 0.36704 0.85111 0.76917 0.0
O806 O 0.26584 0.77417 0.76496 0.0
O807 O 0.30555 0.81713 0.77878 0.0
O808 O 0.3168 0.79571 0.73606 0.0
O809 O 0.30418 0.76192 0.75343 0.0
O810 O 0.27648 0.81141 0.79403 0.0
O811 O 0.2678 0.74898 0.78958 0.0
C812 C 0.34786 0.7711 0.77501 0.0
C813 C 0.40269 0.84203 0.77121 0.0
C814 C 0.44135 0.83869 0.77636 0.0
C815 C 0.42105 0.83973 0.78608 0.0
C816 C 0.44301 0.83977 0.75151 0.0
C817 C 0.40471 0.84299 0.74636 0.0
C818 C 0.42475 0.84182 0.73663 0.0
C819 C 0.32731 0.8292 0.82478 0.0
C820 C 0.38148 0.84297 0.78164 0.0
C821 C 0.33567 0.85181 0.67876 0.0
C822 C 0.32795 0.87091 0.69303 0.0
C823 C 0.2887 0.82729 0.78364 0.0
C824 C 0.23294 0.75901 0.78204 0.0
C825 C 0.21734 0.76484 0.76579 0.0
C826 C 0.1962 0.76671 0.77269 0.0
C827 C 0.19084 0.76303 0.79605 0.0
C828 C 0.22726 0.75559 0.80547 0.0
C829 C 0.20636 0.75767 0.81237 0.0
C830 C 0.30766 0.77211 0.73405 0.0
C831 C 0.25495 0.75643 0.77446 0.0
H832 H 0.41963 0.83913 0.80528 0.0
H833 H 0.45841 0.83884 0.74357 0.0
H834 H 0.39084 0.84466 0.73439 0.0
H835 H 0.42615 0.84255 0.71749 0.0
H836 H 0.22145 0.76741 0.74765 0.0
H837 H 0.17464 0.7644 0.80168 0.0
H838 H 0.23889 0.75122 0.8185 0.0
H839 H 0.20214 0.75496 0.8304 0.0
Eu840 Eu 0.58674 0.04968 0.02447 0.0
C841 C 0.51647 0.09963 0.9851 0.0
C842 C 0.49159 0.06542 0.95772 0.0
C843 C 0.47687 0.09828 0.98104 0.0
C844 C 0.51314 0.07727 0.96878 0.0
C845 C 0.49844 0.11072 0.99091 0.0
C846 C 0.47347 0.07576 0.96434 0.0
C847 C 0.52461 0.14712 0.01296 0.0
N848 N 0.53752 0.11146 0.99382 0.0
C849 C 0.54191 0.13554 1.00634 0.0
C850 C 0.50273 0.13447 1.00559 0.0
Eu851 Eu 0.56582 0.08907 0.98512 0.0
N852 N 0.53109 0.06801 0.96243 0.0
C853 C 0.52864 0.04815 0.94349 0.0
C854 C 0.48895 0.04405 0.93963 0.0
C855 C 0.50761 0.03567 0.93217 0.0
H856 H 0.55887 0.14533 0.01214 0.0
H857 H 0.50584 0.01962 0.91759 0.0
H858 H 0.45684 0.06693 0.956 0.0
H859 H 0.52816 0.16577 0.02374 0.0
H860 H 0.54264 0.04156 0.9368 0.0
H861 H 0.64383 0.1182 0.09501 0.0
H862 H 0.4727 0.03442 0.9307 0.0
H863 H 0.59369 0.99546 0.99411 0.0
H864 H 0.60854 0.09953 0.07009 0.0
H865 H 0.62369 0.97221 0.98799 0.0
H866 H 0.4628 0.10639 0.98545 0.0
H867 H 0.67628 0.09933 0.08882 0.0
H868 H 0.69211 0.06457 0.06756 0.0
H869 H 0.48933 0.14354 0.01057 0.0
H870 H 0.68685 0.02533 0.0379 0.0
N871 N 0.62046 0.07008 0.04908 0.0
C872 C 0.6223 0.09075 0.06694 0.0
C873 C 0.66073 0.09093 0.07764 0.0
C874 C 0.6586 0.06925 0.06005 0.0
C875 C 0.64243 0.10157 0.08125 0.0
C876 C 0.638 0.05911 0.04588 0.0
H877 H 0.66137 0.99073 1.00825 0.0
N878 N 0.61465 0.02687 0.0172 0.0
C879 C 0.62708 0.99049 0.99943 0.0
C880 C 0.63501 0.03689 0.02938 0.0
C881 C 0.61023 1.00361 1.00299 0.0
C882 C 0.64839 1.00101 0.01093 0.0
C883 C 0.6525 0.02427 0.02649 0.0
O884 O 0.57422 1.01374 0.03402 0.0
O885 O 0.55764 0.05785 1.0046 0.0
O886 O 0.55766 0.10128 0.02365 0.0
O887 O 0.57406 0.07936 0.04908 0.0
O888 O 0.5586 0.02107 1.00055 0.0
O889 O 0.57709 0.04776 0.06099 0.0
O890 O 0.5854 0.09241 0.95403 0.0
O891 O 0.59437 0.08212 1.00651 0.0
O892 O 0.60167 0.0452 0.98866 0.0
O893 O 0.57502 0.05464 0.96253 0.0
O894 O 0.59368 0.11863 1.00856 0.0
O895 O 0.56764 0.12064 0.96685 0.0
C896 C 0.54673 0.03639 0.99569 0.0
C897 C 0.57919 1.01184 0.07613 0.0
C898 C 0.57203 0.99965 0.11509 0.0
C899 C 0.56543 1.009 0.09479 0.0
C900 C 0.59262 0.9928 0.1164 0.0
C901 C 0.59968 1.00489 0.07742 0.0
C902 C 0.60629 0.99525 0.0975 0.0
C903 C 0.56274 0.09613 0.04524 0.0
C904 C 0.57202 0.02357 0.05655 0.0
C905 C 0.67322 0.03472 0.03992 0.0
C906 C 0.67621 0.05706 0.05681 0.0
C907 C 0.60514 0.1037 0.01529 0.0
C908 C 0.60317 0.13384 0.95426 0.0
C909 C 0.61925 0.12901 0.9386 0.0
C910 C 0.63942 0.14618 0.94012 0.0
C911 C 0.64337 0.16855 0.95718 0.0
C912 C 0.60735 0.1564 0.97133 0.0
C913 C 0.62734 0.17363 0.97269 0.0
C914 C 0.59164 0.04362 0.96661 0.0
C915 C 0.58275 0.11468 0.95328 0.0
H916 H 0.54983 1.01498 0.09392 0.0
H917 H 0.59811 0.98563 0.13199 0.0
H918 H 0.61059 1.00717 0.06318 0.0
H919 H 0.62214 0.98996 0.09859 0.0
H920 H 0.61632 0.11155 0.9256 0.0
H921 H 0.65881 0.18203 0.95843 0.0
H922 H 0.59533 0.16066 0.98381 0.0
H923 H 0.63047 0.19088 0.98592 0.0
Eu924 Eu 0.33131 0.31576 0.29361 0.0
C925 C 0.25756 0.25377 0.21715 0.0
C926 C 0.22408 0.25075 0.23764 0.0
C927 C 0.22237 0.2527 0.19439 0.0
C928 C 0.24725 0.25307 0.23843 0.0
C929 C 0.24505 0.2527 0.19472 0.0
C930 C 0.21188 0.25165 0.21581 0.0
C931 C 0.27738 0.24775 0.17399 0.0
N932 N 0.2794 0.25315 0.21794 0.0
C933 C 0.28903 0.24859 0.19657 0.0
C934 C 0.25544 0.25038 0.17311 0.0
Eu935 Eu 0.29828 0.25784 0.25771 0.0
N936 N 0.25939 0.25174 0.25916 0.0
C937 C 0.24899 0.24492 0.27854 0.0
C938 C 0.21363 0.24594 0.25831 0.0
C939 C 0.22608 0.24243 0.27864 0.0
H940 H 0.30591 0.24632 0.19683 0.0
H941 H 0.21804 0.2376 0.29433 0.0
H942 H 0.19414 0.25036 0.21503 0.0
H943 H 0.28533 0.24505 0.15727 0.0
H944 H 0.25816 0.24143 0.29411 0.0
H945 H 0.34574 0.40281 0.26 0.0
H946 H 0.19583 0.24352 0.25821 0.0
H947 H 0.36877 0.2847 0.31306 0.0
H948 H 0.32372 0.36729 0.27449 0.0
H949 H 0.40887 0.28765 0.31531 0.0
H950 H 0.21258 0.25229 0.17742 0.0
H951 H 0.3858 0.40566 0.2568 0.0
H952 H 0.41958 0.38866 0.26406 0.0
H953 H 0.24641 0.24955 0.15555 0.0
H954 H 0.43674 0.35791 0.27977 0.0
N955 N 0.35084 0.35008 0.27888 0.0
C956 C 0.34122 0.36863 0.27344 0.0
C957 C 0.3762 0.39011 0.26323 0.0
C958 C 0.38627 0.37196 0.27046 0.0
C959 C 0.35361 0.38862 0.26506 0.0
C960 C 0.37303 0.352 0.27861 0.0
H961 H 0.433 0.32091 0.29974 0.0
N962 N 0.36966 0.3159 0.29587 0.0
C963 C 0.40172 0.30093 0.3074 0.0
C964 C 0.38271 0.33457 0.28748 0.0
C965 C 0.37886 0.29941 0.30613 0.0
C966 C 0.41527 0.31963 0.29843 0.0
C967 C 0.40587 0.33674 0.28832 0.0
O968 O 0.31458 0.33015 0.32474 0.0
O969 O 0.29735 0.29146 0.28492 0.0
O970 O 0.29999 0.28775 0.23413 0.0
O971 O 0.3285 0.32078 0.25407 0.0
O972 O 0.3001 0.32834 0.28273 0.0
O973 O 0.34993 0.34081 0.32647 0.0
O974 O 0.31583 0.22966 0.26615 0.0
O975 O 0.33268 0.27886 0.27228 0.0
O976 O 0.33085 0.28399 0.31413 0.0
O977 O 0.29636 0.25982 0.29882 0.0
O978 O 0.32747 0.2606 0.23555 0.0
O979 O 0.28347 0.21825 0.24627 0.0
C980 C 0.28635 0.30733 0.28117 0.0
C981 C 0.33134 0.37139 0.3437 0.0
C982 C 0.31726 0.40763 0.33674 0.0
C983 C 0.31741 0.38227 0.33005 0.0
C984 C 0.33121 0.42193 0.3574 0.0
C985 C 0.34503 0.38603 0.36422 0.0
C986 C 0.34492 0.41115 0.37103 0.0
C987 C 0.31403 0.30925 0.23495 0.0
C988 C 0.33235 0.3451 0.33633 0.0
C989 C 0.41897 0.35609 0.27943 0.0
C990 C 0.40919 0.37359 0.27045 0.0
C991 C 0.34174 0.27462 0.25264 0.0
C992 C 0.31003 0.19422 0.23484 0.0
C993 C 0.32783 0.18416 0.24216 0.0
C994 C 0.33703 0.16849 0.22499 0.0
C995 C 0.32811 0.16309 0.20026 0.0
C996 C 0.30144 0.18856 0.21002 0.0
C997 C 0.31048 0.1731 0.1929 0.0
C998 C 0.31321 0.26707 0.31627 0.0
C999 C 0.30128 0.21129 0.25313 0.0
H1000 H 0.30658 0.37099 0.31437 0.0
H1001 H 0.33177 0.44156 0.36287 0.0
H1002 H 0.35592 0.37803 0.37488 0.0
H1003 H 0.35564 0.42237 0.38683 0.0
H1004 H 0.33471 0.18885 0.26122 0.0
H1005 H 0.33449 0.15075 0.18664 0.0
H1006 H 0.28782 0.19614 0.20377 0.0
H1007 H 0.30373 0.16877 0.17383 0.0
Eu1008 Eu 0.56143 0.57836 0.04294 0.0
C1009 C 0.59548 0.51829 0.95748 0.0
C1010 C 0.56615 0.50991 0.92427 0.0
C1011 C 0.60443 0.51392 0.91524 0.0
C1012 C 0.57328 0.51467 0.94959 0.0
C1013 C 0.61131 0.51755 0.94039 0.0
C1014 C 0.58188 0.5101 0.90719 0.0
C1015 C 0.63936 0.5225 0.97414 0.0
N1016 N 0.60151 0.52166 0.98189 0.0
C1017 C 0.62306 0.52307 0.99036 0.0
C1018 C 0.63351 0.52 0.94906 0.0
Eu1019 Eu 0.57323 0.52468 1.00853 0.0
N1020 N 0.55855 0.51447 0.96658 0.0
C1021 C 0.53633 0.50747 0.95931 0.0
C1022 C 0.5434 0.50435 0.91685 0.0
C1023 C 0.52842 0.5027 0.93445 0.0
H1024 H 0.62789 0.52532 0.00972 0.0
H1025 H 0.51077 0.49791 0.92891 0.0
H1026 H 0.57673 0.50674 0.8877 0.0
H1027 H 0.65645 0.52415 0.98102 0.0
H1028 H 0.52447 0.50627 0.97258 0.0
H1029 H 0.62378 0.60208 0.12307 0.0
H1030 H 0.53725 0.50064 0.89761 0.0
H1031 H 0.50791 0.58503 0.04217 0.0
H1032 H 0.61088 0.59486 0.07944 0.0
H1033 H 0.47955 0.58674 0.07099 0.0
H1034 H 0.61636 0.51351 0.90185 0.0
H1035 H 0.59678 0.5992 0.15378 0.0
H1036 H 0.55737 0.59347 0.16315 0.0
H1037 H 0.64617 0.5196 0.93654 0.0
H1038 H 0.51814 0.5892 0.14899 0.0
N1039 N 0.57649 0.58698 0.08465 0.0
C1040 C 0.59868 0.59341 0.0923 0.0
C1041 C 0.59091 0.59592 0.13449 0.0
C1042 C 0.56825 0.59096 0.12675 0.0
C1043 C 0.60619 0.59766 0.11722 0.0
C1044 C 0.56141 0.58698 0.1014 0.0
H1045 H 0.48911 0.58715 0.11484 0.0
N1046 N 0.53328 0.58327 0.06916 0.0
C1047 C 0.49622 0.58607 0.07751 0.0
C1048 C 0.53923 0.58495 0.09345 0.0
C1049 C 0.5124 0.58508 0.0612 0.0
C1050 C 0.50167 0.58624 0.10223 0.0
C1051 C 0.52348 0.58628 0.1106 0.0
O1052 O 0.56349 0.6174 0.05889 0.0
O1053 O 0.55919 0.55804 1.00327 0.0
O1054 O 0.59679 0.55784 1.00021 0.0
O1055 O 0.59807 0.58306 0.03776 0.0
O1056 O 0.53213 0.57185 0.01318 0.0
O1057 O 0.56984 0.6073 0.02133 0.0
O1058 O 0.58662 0.49273 0.01381 0.0
O1059 O 0.57425 0.54413 0.04872 0.0
O1060 O 0.53369 0.54747 0.04838 0.0
O1061 O 0.53686 0.51716 0.01557 0.0
O1062 O 0.60119 0.53025 0.03946 0.0
O1063 O 0.55106 0.48862 1.00628 0.0
C1064 C 0.53998 0.56034 0.99465 0.0
C1065 C 0.59016 0.64586 0.04332 0.0
C1066 C 0.61203 0.68095 0.02884 0.0
C1067 C 0.59347 0.66104 0.02578 0.0
C1068 C 0.62754 0.68494 0.04956 0.0
C1069 C 0.60579 0.65035 0.06388 0.0
C1070 C 0.62442 0.66969 0.06684 0.0
C1071 C 0.6067 0.57721 0.01704 0.0
C1072 C 0.57042 0.62539 0.03961 0.0
C1073 C 0.53007 0.58847 0.13562 0.0
C1074 C 0.55241 0.59088 0.14368 0.0
C1075 C 0.59294 0.54092 0.05795 0.0
C1076 C 0.56524 0.45217 0.99875 0.0
C1077 C 0.55618 0.43379 0.01136 0.0
C1078 C 0.55548 0.4088 1.00194 0.0
C1079 C 0.56373 0.40223 0.97935 0.0
C1080 C 0.57319 0.44562 0.97605 0.0
C1081 C 0.57232 0.42061 0.96635 0.0
C1082 C 0.52598 0.52596 0.03354 0.0
C1083 C 0.56718 0.47787 0.01094 0.0
H1084 H 0.58151 0.65727 0.00976 0.0
H1085 H 0.64181 0.70026 0.05283 0.0
H1086 H 0.60365 0.63898 0.07766 0.0
H1087 H 0.63639 0.67306 0.08277 0.0
H1088 H 0.55038 0.43907 0.02912 0.0
H1089 H 0.5635 0.38301 0.97183 0.0
H1090 H 0.58028 0.45974 0.96613 0.0
H1091 H 0.57858 0.41548 0.9489 0.0
Eu1092 Eu 0.83672 0.3172 0.26998 0.0
C1093 C 0.78788 0.248 0.33024 0.0
C1094 C 0.80001 0.20987 0.31638 0.0
C1095 C 0.79048 0.21955 0.35806 0.0
C1096 C 0.79554 0.23254 0.31198 0.0
C1097 C 0.78448 0.24113 0.35313 0.0
C1098 C 0.79829 0.20398 0.33973 0.0
C1099 C 0.767 0.27578 0.3637 0.0
N1100 N 0.78204 0.26869 0.32498 0.0
C1101 C 0.77095 0.28206 0.34096 0.0
C1102 C 0.77425 0.25556 0.37005 0.0
Eu1103 Eu 0.79059 0.27866 0.2865 0.0
N1104 N 0.79665 0.23847 0.28937 0.0
C1105 C 0.79951 0.22109 0.26989 0.0
C1106 C 0.80502 0.19317 0.29688 0.0
C1107 C 0.80422 0.19856 0.27344 0.0
H1108 H 0.76607 0.29836 0.33673 0.0
H1109 H 0.8072 0.18533 0.25802 0.0
H1110 H 0.80204 0.18688 0.34349 0.0
H1111 H 0.7587 0.28681 0.37647 0.0
H1112 H 0.79842 0.22414 0.25142 0.0
H1113 H 0.81943 0.41004 0.29201 0.0
H1114 H 0.8086 0.17565 0.29954 0.0
H1115 H 0.85833 0.29204 0.21981 0.0
H1116 H 0.82671 0.37075 0.30066 0.0
H1117 H 0.8645 0.29958 0.17845 0.0
H1118 H 0.78833 0.21423 0.37567 0.0
H1119 H 0.81994 0.41816 0.24983 0.0
H1120 H 0.82711 0.40457 0.2062 0.0
H1121 H 0.77128 0.25082 0.38776 0.0
H1122 H 0.83946 0.37452 0.17527 0.0
N1123 N 0.83065 0.35615 0.26359 0.0
C1124 C 0.82702 0.37394 0.28214 0.0
C1125 C 0.82313 0.40081 0.25351 0.0
C1126 C 0.82826 0.38321 0.23489 0.0
C1127 C 0.82292 0.39634 0.27735 0.0
C1128 C 0.83222 0.36087 0.24064 0.0
H1129 H 0.85379 0.33553 0.16485 0.0
N1130 N 0.84406 0.32343 0.22992 0.0
C1131 C 0.85708 0.31203 0.19072 0.0
C1132 C 0.83925 0.34406 0.22329 0.0
C1133 C 0.85364 0.30791 0.21433 0.0
C1134 C 0.85106 0.33239 0.18316 0.0
C1135 C 0.84237 0.34896 0.19962 0.0
O1136 O 0.87145 0.31481 0.27208 0.0
O1137 O 0.82817 0.2811 0.28572 0.0
O1138 O 0.80874 0.30062 0.3227 0.0
O1139 O 0.83301 0.3315 0.30961 0.0
O1140 O 0.84838 0.281 0.25805 0.0
O1141 O 0.86239 0.34807 0.29053 0.0
O1142 O 0.76408 0.27679 0.25764 0.0
O1143 O 0.79972 0.31536 0.27335 0.0
O1144 O 0.81359 0.30049 0.23582 0.0
O1145 O 0.79964 0.26441 0.24857 0.0
O1146 O 0.77957 0.31496 0.30105 0.0
O1147 O 0.75739 0.25585 0.28605 0.0
C1148 C 0.83998 0.26755 0.27305 0.0
C1149 C 0.89837 0.35164 0.27721 0.0
C1150 C 0.93863 0.3603 0.27837 0.0
C1151 C 0.9189 0.34783 0.28566 0.0
C1152 C 0.93753 0.3771 0.26261 0.0
C1153 C 0.89738 0.36822 0.2613 0.0
C1154 C 0.91697 0.38096 0.25411 0.0
C1155 C 0.8234 0.32184 0.32707 0.0
C1156 C 0.87849 0.33712 0.28478 0.0
C1157 C 0.83737 0.37055 0.19342 0.0
C1158 C 0.83032 0.38765 0.21102 0.0
C1159 C 0.78854 0.32897 0.28669 0.0
C1160 C 0.72886 0.27427 0.27208 0.0
C1161 C 0.71482 0.27651 0.25206 0.0
C1162 C 0.6967 0.28793 0.25605 0.0
C1163 C 0.69285 0.29711 0.28019 0.0
C1164 C 0.72418 0.28298 0.29602 0.0
C1165 C 0.70644 0.29449 0.3 0.0
C1166 C 0.80461 0.27674 0.23095 0.0
C1167 C 0.74884 0.26395 0.26799 0.0
H1168 H 0.91946 0.33517 0.29819 0.0
H1169 H 0.95249 0.387 0.25669 0.0
H1170 H 0.8816 0.37125 0.25445 0.0
H1171 H 0.91622 0.39377 0.24184 0.0
H1172 H 0.71808 0.26964 0.23349 0.0
H1173 H 0.67891 0.30573 0.28374 0.0
H1174 H 0.73416 0.28093 0.31174 0.0
H1175 H 0.70312 0.30123 0.31854 0.0
Eu1176 Eu 0.07872 0.53607 0.53659 0.0
C1177 C 1.00772 0.59081 0.50438 0.0
C1178 C 0.97961 0.55985 0.47703 0.0
C1179 C 0.96963 0.5959 0.50096 0.0
C1180 C 1.00169 0.56842 0.48783 0.0
C1181 C 0.99184 0.60505 0.51067 0.0
C1182 C 0.96354 0.57341 0.48409 0.0
C1183 C 0.02144 0.63764 0.53347 0.0
N1184 N 0.02938 0.59945 0.51309 0.0
C1185 C 0.03658 0.62297 0.52657 0.0
C1186 C 0.99892 0.62854 0.5257 0.0
Eu1187 Eu 0.05413 0.57426 0.49909 0.0
N1188 N 0.01763 0.55589 0.48103 0.0
C1189 C 1.01283 0.53539 0.46265 0.0
C1190 C 0.9745 0.53843 0.45871 0.0
C1191 C 0.99118 0.52616 0.45148 0.0
H1192 H 0.05405 0.63012 0.53228 0.0
H1193 H 0.98742 0.50973 0.43714 0.0
H1194 H 0.94647 0.56697 0.47614 0.0
H1195 H 0.02714 0.65599 0.54467 0.0
H1196 H 0.0256 0.52589 0.45665 0.0
H1197 H 0.14218 0.60552 0.60057 0.0
H1198 H 0.95786 0.5316 0.44956 0.0
H1199 H 0.08263 0.48054 0.50583 0.0
H1200 H 0.10555 0.5882 0.57913 0.0
H1201 H 0.11119 0.45585 0.49746 0.0
H1202 H 0.95716 0.60648 0.50574 0.0
H1203 H 0.17258 0.58359 0.5933 0.0
H1204 H 0.18562 0.54708 0.57158 0.0
H1205 H 0.98723 0.64006 0.53084 0.0
H1206 H 0.17752 0.5071 0.54279 0.0
N1207 N 0.11419 0.55604 0.55838 0.0
C1208 C 0.11817 0.57791 0.57514 0.0
C1209 C 0.15635 0.57574 0.58337 0.0
C1210 C 0.15231 0.55326 0.56664 0.0
C1211 C 0.13922 0.58811 0.58759 0.0
C1212 C 0.1308 0.54367 0.55432 0.0
H1213 H 0.14992 0.47307 0.51509 0.0
N1214 N 0.10527 0.51162 0.52761 0.0
C1215 C 0.11566 0.47423 0.50873 0.0
C1216 C 0.12625 0.52097 0.53833 0.0
C1217 C 0.09959 0.48822 0.51358 0.0
C1218 C 0.13752 0.48401 0.51877 0.0
C1219 C 0.14299 0.50742 0.5341 0.0
O1220 O 0.07415 0.50355 0.55385 0.0
O1221 O 0.04838 0.54193 0.5174 0.0
O1222 O 0.04236 0.57962 0.53677 0.0
O1223 O 0.0713 0.57054 0.55987 0.0
O1224 O 0.05073 0.50569 0.5145 0.0
O1225 O 0.0613 0.53528 0.56927 0.0
O1226 O 0.05282 0.57493 0.46 0.0
O1227 O 0.0849 0.56652 0.51578 0.0
O1228 O 0.08833 0.52752 0.49828 0.0
O1229 O 0.06397 0.54217 0.4735 0.0
O1230 O 0.08493 0.60324 0.51744 0.0
O1231 O 0.06479 0.60909 0.48691 0.0
C1232 C 0.03814 0.52005 0.50899 0.0
C1233 C 0.07276 0.51238 0.59707 0.0
C1234 C 0.06708 0.51847 0.64043 0.0
C1235 C 0.06024 0.51931 0.61617 0.0
C1236 C 0.08659 0.51029 0.64544 0.0
C1237 C 0.09239 0.50455 0.60233 0.0
C1238 C 0.09919 0.50345 0.62645 0.0
C1239 C 0.05399 0.58077 0.55778 0.0
C1240 C 0.06486 0.51387 0.57205 0.0
C1241 C 0.16447 0.51723 0.54584 0.0
C1242 C 0.16906 0.53999 0.56223 0.0
C1243 C 0.09666 0.58794 0.52257 0.0
C1244 C 0.07699 0.60782 0.44773 0.0
C1245 C 0.09792 0.6018 0.44793 0.0
C1246 C 0.11282 0.61005 0.43152 0.0
C1247 C 0.10635 0.62477 0.41543 0.0
C1248 C 0.07108 0.62266 0.43183 0.0
C1249 C 0.08578 0.63118 0.41582 0.0
C1250 C 0.07919 0.52905 0.47666 0.0
C1251 C 0.06075 0.59883 0.46372 0.0
H1252 H 0.04502 0.52525 0.61209 0.0
H1253 H 0.09225 0.50956 0.66405 0.0
H1254 H 0.10247 0.49935 0.58791 0.0
H1255 H 0.11431 0.49739 0.63047 0.0
H1256 H 0.10234 0.59055 0.4606 0.0
H1257 H 0.11681 0.63072 0.40183 0.0
H1258 H 0.05499 0.62746 0.43164 0.0
H1259 H 0.08102 0.64236 0.4033 0.0
Eu1260 Eu 0.79171 0.80789 0.28132 0.0
C1261 C 0.85861 0.75787 0.32468 0.0
C1262 C 0.87392 0.7861 0.36292 0.0
C1263 C 0.86891 0.74171 0.36051 0.0
C1264 C 0.86472 0.78188 0.33827 0.0
C1265 C 0.86167 0.73767 0.33543 0.0
C1266 C 0.87499 0.76589 0.37425 0.0
C1267 C 0.85399 0.71158 0.29508 0.0
N1268 N 0.85203 0.75452 0.30035 0.0
C1269 C 0.85127 0.73213 0.28523 0.0
C1270 C 0.85863 0.71422 0.32038 0.0
Eu1271 Eu 0.84601 0.79055 0.28624 0.0
N1272 N 0.86396 0.80113 0.32674 0.0
C1273 C 0.87477 0.82463 0.3377 0.0
C1274 C 0.88305 0.81046 0.37501 0.0
C1275 C 0.88408 0.82971 0.36211 0.0
H1276 H 0.84724 0.72984 0.26565 0.0
H1277 H 0.89192 0.84851 0.37098 0.0
H1278 H 0.88161 0.76882 0.39329 0.0
H1279 H 0.85238 0.69371 0.28318 0.0
H1280 H 0.87581 0.83973 0.32806 0.0
H1281 H 0.74747 0.75113 0.19584 0.0
H1282 H 0.89038 0.81444 0.39387 0.0
H1283 H 0.79332 0.86832 0.30254 0.0
H1284 H 0.76562 0.75964 0.23811 0.0
H1285 H 0.7883 0.90534 0.28663 0.0
H1286 H 0.87092 0.72636 0.36917 0.0
H1287 H 0.74489 0.78588 0.17478 0.0
H1288 H 0.75188 0.83184 0.17652 0.0
H1289 H 0.86083 0.69828 0.32796 0.0
H1290 H 0.76324 0.87408 0.20133 0.0
N1291 N 0.77401 0.79868 0.2407 0.0
C1292 C 0.76472 0.77494 0.2291 0.0
C1293 C 0.75318 0.78966 0.1932 0.0
C1294 C 0.76167 0.81401 0.20566 0.0
C1295 C 0.75442 0.77003 0.20511 0.0
C1296 C 0.77181 0.81794 0.22985 0.0
H1297 H 0.7765 0.90167 0.24259 0.0
N1298 N 0.78555 0.84407 0.26765 0.0
C1299 C 0.78543 0.88752 0.27433 0.0
C1300 C 0.77788 0.8415 0.2438 0.0
C1301 C 0.78823 0.86647 0.28328 0.0
C1302 C 0.77885 0.88539 0.24945 0.0
C1303 C 0.77443 0.86207 0.23396 0.0
O1304 O 0.77177 0.81841 0.31116 0.0
O1305 O 0.81911 0.80265 0.30701 0.0
O1306 O 0.81909 0.75505 0.28744 0.0
O1307 O 0.78504 0.76543 0.27963 0.0
O1308 O 0.80581 0.83358 0.31711 0.0
O1309 O 0.75768 0.78763 0.28222 0.0
O1310 O 0.86423 0.77294 0.25825 0.0
O1311 O 0.81444 0.78676 0.2617 0.0
O1312 O 0.8189 0.83961 0.2724 0.0
O1313 O 0.85127 0.83338 0.29184 0.0
O1314 O 0.84382 0.79817 0.24783 0.0
O1315 O 0.88097 0.80634 0.28391 0.0
C1316 C 0.82019 0.8217 0.32352 0.0
C1317 C 0.73279 0.80978 0.30158 0.0
C1318 C 0.69692 0.81154 0.31777 0.0
C1319 C 0.7174 0.80391 0.31852 0.0
C1320 C 0.69224 0.8248 0.29954 0.0
C1321 C 0.72759 0.82316 0.28387 0.0
C1322 C 0.70744 0.83057 0.28288 0.0
C1323 C 0.79695 0.74904 0.28391 0.0
C1324 C 0.75409 0.80165 0.3021 0.0
C1325 C 0.7658 0.8585 0.20932 0.0
C1326 C 0.75935 0.83447 0.1952 0.0
C1327 C 0.8228 0.79239 0.24284 0.0
C1328 C 0.90365 0.78025 0.26507 0.0
C1329 C 0.91895 0.78621 0.24804 0.0
C1330 C 0.93865 0.77703 0.24734 0.0
C1331 C 0.94275 0.76208 0.26415 0.0
C1332 C 0.90842 0.76557 0.28171 0.0
C1333 C 0.92782 0.75652 0.28118 0.0
C1334 C 0.84012 0.84779 0.28176 0.0
C1335 C 0.8828 0.78935 0.26521 0.0
H1336 H 0.72147 0.79369 0.33232 0.0
H1337 H 0.67659 0.83047 0.29786 0.0
H1338 H 0.73906 0.82772 0.27067 0.0
H1339 H 0.70351 0.84074 0.269 0.0
H1340 H 0.91537 0.79764 0.23517 0.0
H1341 H 0.95775 0.75496 0.26441 0.0
H1342 H 0.89719 0.76111 0.29514 0.0
H1343 H 0.93135 0.74516 0.2941 0.0
Eu1344 Eu 0.8307 0.29426 0.76414 0.0
C1345 C 0.79216 0.37856 0.82258 0.0
C1346 C 0.8228 0.40892 0.84662 0.0
C1347 C 0.79006 0.422 0.83222 0.0
C1348 C 0.81338 0.38429 0.83463 0.0
C1349 C 0.78006 0.39727 0.82187 0.0
C1350 C 0.81135 0.4278 0.8447 0.0
C1351 C 0.74788 0.3654 0.80416 0.0
N1352 N 0.78262 0.35444 0.81343 0.0
C1353 C 0.76041 0.34752 0.80566 0.0
C1354 C 0.75787 0.39044 0.81185 0.0
Eu1355 Eu 0.80534 0.32529 0.81515 0.0
N1356 N 0.82408 0.36561 0.83633 0.0
C1357 C 0.84324 0.3702 0.85166 0.0
C1358 C 0.84303 0.41377 0.86109 0.0
C1359 C 0.8531 0.39425 0.86392 0.0
H1360 H 0.75258 0.32814 0.79972 0.0
H1361 H 0.86833 0.39763 0.87586 0.0
H1362 H 0.81854 0.44684 0.85345 0.0
H1363 H 0.73055 0.35985 0.79711 0.0
H1364 H 0.85113 0.35562 0.85497 0.0
H1365 H 0.76827 0.22098 0.70349 0.0
H1366 H 0.85052 0.43233 0.87092 0.0
H1367 H 0.8835 0.29123 0.77991 0.0
H1368 H 0.78619 0.2634 0.72269 0.0
H1369 H 0.90494 0.25948 0.78458 0.0
H1370 H 0.78113 0.43664 0.83158 0.0
H1371 H 0.78548 0.18645 0.71026 0.0
H1372 H 0.81641 0.17199 0.73034 0.0
H1373 H 0.74808 0.40428 0.8109 0.0
H1374 H 0.85361 0.18243 0.7528 0.0
N1375 N 0.81224 0.25368 0.74312 0.0
C1376 C 0.79341 0.24884 0.72727 0.0
C1377 C 0.79293 0.20511 0.71988 0.0
C1378 C 0.81279 0.2101 0.73503 0.0
C1379 C 0.78328 0.22458 0.71583 0.0
C1380 C 0.82245 0.23494 0.7461 0.0
H1381 H 0.88694 0.21501 0.77256 0.0
N1382 N 0.85335 0.26503 0.7663 0.0
C1383 C 0.88768 0.25394 0.77723 0.0
C1384 C 0.84357 0.2408 0.75827 0.0
C1385 C 0.87548 0.27187 0.77448 0.0
C1386 C 0.87742 0.22888 0.77056 0.0
C1387 C 0.85531 0.22202 0.76032 0.0
O1388 O 0.82915 0.31515 0.73469 0.0
O1389 O 0.83007 0.33074 0.78812 0.0
O1390 O 0.79087 0.33299 0.77883 0.0
O1391 O 0.797 0.30075 0.7493 0.0
O1392 O 0.86092 0.32354 0.78149 0.0
O1393 O 0.85402 0.29342 0.73634 0.0
O1394 O 0.80601 0.30408 0.84443 0.0
O1395 O 0.80663 0.28951 0.79144 0.0
O1396 O 0.84331 0.28474 0.80015 0.0
O1397 O 0.83873 0.3177 0.82976 0.0
O1398 O 0.77539 0.29443 0.79867 0.0
O1399 O 0.7833 0.32848 0.84409 0.0
C1400 C 0.85069 0.33975 0.79181 0.0
C1401 C 0.86495 0.3331 0.72623 0.0
C1402 C 0.87519 0.37342 0.71454 0.0
C1403 C 0.85932 0.35181 0.71503 0.0
C1404 C 0.89683 0.37629 0.72551 0.0
C1405 C 0.88669 0.33641 0.73736 0.0
C1406 C 0.90245 0.35796 0.7371 0.0
C1407 C 0.7863 0.31869 0.75661 0.0
C1408 C 0.84772 0.31093 0.72712 0.0
C1409 C 0.84498 0.19713 0.75111 0.0
C1410 C 0.8238 0.19118 0.73834 0.0
C1411 C 0.7864 0.27917 0.78799 0.0
C1412 C 0.77018 0.28989 0.85561 0.0
C1413 C 0.77502 0.26894 0.86334 0.0
C1414 C 0.75801 0.24869 0.86494 0.0
C1415 C 0.73587 0.24979 0.85906 0.0
C1416 C 0.74792 0.29053 0.84955 0.0
C1417 C 0.73092 0.27057 0.8513 0.0
C1418 C 0.84853 0.29899 0.82229 0.0
C1419 C 0.78854 0.3104 0.85318 0.0
H1420 H 0.84268 0.34925 0.70616 0.0
H1421 H 0.9094 0.39261 0.72497 0.0
H1422 H 0.89154 0.32246 0.7464 0.0
H1423 H 0.91912 0.36037 0.7457 0.0
H1424 H 0.79212 0.26855 0.86842 0.0
H1425 H 0.72243 0.23452 0.86026 0.0
H1426 H 0.7436 0.30635 0.84335 0.0
H1427 H 0.71384 0.2712 0.84659 0.0
Eu1428 Eu 0.84114 0.82495 0.80468 0.0
C1429 C 0.75571 0.74951 0.77291 0.0
C1430 C 0.75281 0.71233 0.79019 0.0
C1431 C 0.71988 0.72812 0.78229 0.0
C1432 C 0.76569 0.73216 0.78151 0.0
C1433 C 0.73254 0.7471 0.77251 0.0
C1434 C 0.73002 0.71088 0.79125 0.0
C1435 C 0.73562 0.78104 0.75089 0.0
N1436 N 0.76833 0.76775 0.76354 0.0
C1437 C 0.75852 0.78291 0.75187 0.0
C1438 C 0.72261 0.76325 0.76146 0.0
Eu1439 Eu 0.80695 0.76909 0.76651 0.0
N1440 N 0.78771 0.73369 0.7799 0.0
C1441 C 0.79731 0.7147 0.78419 0.0
C1442 C 0.76303 0.69396 0.79663 0.0
C1443 C 0.78528 0.69491 0.79316 0.0
H1444 H 0.76803 0.79667 0.74332 0.0
H1445 H 0.79316 0.68036 0.79731 0.0
H1446 H 0.71992 0.69594 0.79812 0.0
H1447 H 0.72801 0.79333 0.7419 0.0
H1448 H 0.81446 0.71512 0.78145 0.0
H1449 H 0.92305 0.83785 0.77229 0.0
H1450 H 0.7537 0.6785 0.80344 0.0
H1451 H 0.83014 0.83628 0.86474 0.0
H1452 H 0.8828 0.83516 0.76986 0.0
H1453 H 0.84827 0.83688 0.90534 0.0
H1454 H 0.70212 0.72618 0.78235 0.0
H1455 H 0.94309 0.83298 0.81044 0.0
H1456 H 0.94218 0.82766 0.85408 0.0
H1457 H 0.70484 0.76162 0.76028 0.0
H1458 H 0.92165 0.82733 0.89041 0.0
N1459 N 0.87971 0.82736 0.80558 0.0
C1460 C 0.89122 0.83246 0.78638 0.0
C1461 C 0.9253 0.83127 0.80923 0.0
C1462 C 0.91365 0.82778 0.82946 0.0
C1463 C 0.9141 0.83414 0.78775 0.0
C1464 C 0.8906 0.82649 0.82723 0.0
H1465 H 0.88679 0.83129 0.90978 0.0
N1466 N 0.85753 0.82861 0.84552 0.0
C1467 C 0.8571 0.8339 0.88929 0.0
C1468 C 0.87917 0.82703 0.84782 0.0
C1469 C 0.84682 0.83342 0.86606 0.0
C1470 C 0.87882 0.83068 0.89172 0.0
C1471 C 0.89034 0.82788 0.87097 0.0
O1472 O 0.86124 0.86266 0.81077 0.0
O1473 O 0.80652 0.8057 0.78874 0.0
O1474 O 0.80625 0.80365 0.75047 0.0
O1475 O 0.84217 0.82396 0.76352 0.0
O1476 O 0.8108 0.82414 0.82525 0.0
O1477 O 0.82596 0.85685 0.80341 0.0
O1478 O 0.82304 0.76381 0.73271 0.0
O1479 O 0.84145 0.79172 0.77633 0.0
O1480 O 0.83788 0.79448 0.82744 0.0
O1481 O 0.80883 0.76294 0.80596 0.0
O1482 O 0.83697 0.7545 0.77728 0.0
O1483 O 0.79124 0.74093 0.73424 0.0
C1484 C 0.79679 0.81028 0.80777 0.0
C1485 C 0.84754 0.887 0.78529 0.0
C1486 C 0.83253 0.91242 0.76023 0.0
C1487 C 0.83132 0.9 0.78001 0.0
C1488 C 0.85018 0.91194 0.74573 0.0
C1489 C 0.86543 0.8871 0.7709 0.0
C1490 C 0.86667 0.89951 0.75123 0.0
C1491 C 0.82432 0.81962 0.74764 0.0
C1492 C 0.84482 0.87236 0.80487 0.0
C1493 C 0.91287 0.827 0.87284 0.0
C1494 C 0.92455 0.82711 0.85214 0.0
C1495 C 0.85155 0.77491 0.77947 0.0
C1496 C 0.8158 0.7233 0.70952 0.0
C1497 C 0.82997 0.71224 0.72253 0.0
C1498 C 0.83794 0.69195 0.71057 0.0
C1499 C 0.8314 0.68286 0.68539 0.0
C1500 C 0.80951 0.71394 0.68448 0.0
C1501 C 0.81728 0.6938 0.6725 0.0
C1502 C 0.82289 0.77352 0.82575 0.0
C1503 C 0.80793 0.74502 0.7215 0.0
H1504 H 0.8175 0.90011 0.79103 0.0
H1505 H 0.85145 0.92162 0.73053 0.0
H1506 H 0.87831 0.87741 0.77457 0.0
H1507 H 0.8804 0.89937 0.74016 0.0
H1508 H 0.83503 0.71958 0.74179 0.0
H1509 H 0.83693 0.66704 0.67571 0.0
H1510 H 0.79867 0.7223 0.67417 0.0
H1511 H 0.81233 0.68661 0.65315 0.0
Eu1512 Eu 0.54457 0.52162 0.51127 0.0
C1513 C 0.59589 0.61263 0.5848 0.0
C1514 C 0.5991 0.64811 0.56495 0.0
C1515 C 0.59855 0.6538 0.60918 0.0
C1516 C 0.59656 0.62233 0.56354 0.0
C1517 C 0.59745 0.62837 0.60789 0.0
C1518 C 0.5994 0.66364 0.58776 0.0
C1519 C 0.59938 0.59325 0.62693 0.0
N1520 N 0.59513 0.58802 0.58305 0.0
C1521 C 0.59804 0.57841 0.60367 0.0
C1522 C 0.59873 0.61826 0.62905 0.0
Eu1523 Eu 0.59306 0.56452 0.54287 0.0
N1524 N 0.59646 0.60692 0.54173 0.0
C1525 C 0.6009 0.6163 0.52115 0.0
C1526 C 0.60225 0.65764 0.54356 0.0
C1527 C 0.60359 0.64172 0.52166 0.0
H1528 H 0.59843 0.55901 0.60196 0.0
H1529 H 0.60658 0.64896 0.50515 0.0
H1530 H 0.60103 0.68343 0.58914 0.0
H1531 H 0.60091 0.58541 0.6432 0.0
H1532 H 0.60204 0.60421 0.50413 0.0
H1533 H 0.53501 0.43642 0.54683 0.0
H1534 H 0.60431 0.67733 0.54389 0.0
H1535 H 0.53736 0.52629 0.45137 0.0
H1536 H 0.53493 0.48067 0.54755 0.0
H1537 H 0.53837 0.50108 0.41058 0.0
H1538 H 0.5995 0.66613 0.62673 0.0
H1539 H 0.54343 0.41039 0.50932 0.0
H1540 H 0.54995 0.40603 0.46488 0.0
H1541 H 0.59989 0.62974 0.64711 0.0
H1542 H 0.55028 0.42361 0.42746 0.0
N1543 N 0.54512 0.47989 0.51188 0.0
C1544 C 0.53928 0.46949 0.53148 0.0
C1545 C 0.54391 0.42986 0.50981 0.0
C1546 C 0.54754 0.44009 0.48889 0.0
C1547 C 0.53909 0.44445 0.53098 0.0
C1548 C 0.54753 0.46542 0.49034 0.0
H1549 H 0.54525 0.45877 0.40693 0.0
N1550 N 0.54459 0.49892 0.47084 0.0
C1551 C 0.54096 0.49363 0.42691 0.0
C1552 C 0.54707 0.47514 0.46913 0.0
C1553 C 0.54034 0.50784 0.45007 0.0
C1554 C 0.54492 0.46977 0.42493 0.0
C1555 C 0.54752 0.46002 0.44612 0.0
O1556 O 0.51364 0.4943 0.50317 0.0
O1557 O 0.56331 0.5607 0.51712 0.0
O1558 O 0.56464 0.56674 0.56883 0.0
O1559 O 0.53953 0.52965 0.55344 0.0
O1560 O 0.53634 0.55192 0.49169 0.0
O1561 O 0.51244 0.533 0.51584 0.0
O1562 O 0.62209 0.55816 0.56283 0.0
O1563 O 0.57159 0.52566 0.54175 0.0
O1564 O 0.57367 0.52155 0.48574 0.0
O1565 O 0.5973 0.55948 0.50087 0.0
O1566 O 0.60474 0.52825 0.5401 0.0
O1567 O 0.62625 0.58048 0.53446 0.0
C1568 C 0.55184 0.57011 0.50298 0.0
C1569 C 0.47707 0.50199 0.50714 0.0
C1570 C 0.44033 0.51067 0.51132 0.0
C1571 C 0.46353 0.5189 0.51372 0.0
C1572 C 0.43084 0.48542 0.50268 0.0
C1573 C 0.4672 0.47675 0.49865 0.0
C1574 C 0.44425 0.46858 0.4965 0.0
C1575 C 0.54647 0.55004 0.57106 0.0
C1576 C 0.5014 0.51017 0.509 0.0
C1577 C 0.54961 0.4354 0.44493 0.0
C1578 C 0.54952 0.42542 0.46626 0.0
C1579 C 0.5866 0.51308 0.54115 0.0
C1580 C 0.65678 0.58552 0.56457 0.0
C1581 C 0.67598 0.57635 0.56101 0.0
C1582 C 0.69617 0.58832 0.57494 0.0
C1583 C 0.69696 0.60988 0.59252 0.0
C1584 C 0.65774 0.60717 0.58194 0.0
C1585 C 0.67784 0.61933 0.59581 0.0
C1586 C 0.59078 0.53937 0.48309 0.0
C1587 C 0.63599 0.57094 0.55078 0.0
H1588 H 0.4709 0.5384 0.52018 0.0
H1589 H 0.41302 0.47873 0.50079 0.0
H1590 H 0.4772 0.46325 0.49358 0.0
H1591 H 0.43682 0.44913 0.48992 0.0
H1592 H 0.67503 0.55932 0.54785 0.0
H1593 H 0.71233 0.61941 0.60356 0.0
H1594 H 0.64302 0.61444 0.58495 0.0
H1595 H 0.67856 0.63599 0.60932 0.0
Eu1596 Eu 0.08924 0.54753 0.01982 0.0
C1597 C 0.02515 0.49871 0.08708 0.0
C1598 C 1.00306 0.46181 0.06052 0.0
C1599 C 1.01157 0.46198 0.10378 0.0
C1600 C 0.01545 0.48638 0.06402 0.0
C1601 C 0.02306 0.48681 0.10733 0.0
C1602 C 1.00157 0.44951 0.08041 0.0
C1603 C 0.04277 0.52528 0.13325 0.0
N1604 N 0.03612 0.52266 0.08985 0.0
C1605 C 0.04433 0.5363 0.11261 0.0
C1606 C 0.03229 0.50035 0.13057 0.0
Eu1607 Eu 0.04014 0.53916 0.0537 0.0
N1608 N 0.01723 0.49881 0.04523 0.0
C1609 C 1.00546 0.48852 0.02295 0.0
C1610 C 0.99207 0.4506 0.03729 0.0
C1611 C 0.99298 0.46417 0.01854 0.0
H1612 H 0.05271 0.55549 0.11477 0.0
H1613 H 0.9842 0.45584 1.00063 0.0
H1614 H 0.99234 0.43054 0.07802 0.0
H1615 H 0.04978 0.53598 0.15117 0.0
H1616 H 1.00621 0.49873 1.00824 0.0
H1617 H 0.14375 0.6322 0.07224 0.0
H1618 H 0.98239 0.43175 0.03383 0.0
H1619 H 0.0813 0.52823 0.95869 0.0
H1620 H 0.12077 0.58991 0.06559 0.0
H1621 H 0.08727 0.54541 0.92129 0.0
H1622 H 1.00994 0.45243 0.11906 0.0
H1623 H 0.14867 0.65407 0.0375 0.0
H1624 H 0.14089 0.65352 0.9926 0.0
H1625 H 0.03114 0.49185 0.14658 0.0
H1626 H 0.12544 0.62988 0.95142 0.0
N1627 N 0.11168 0.58819 0.02771 0.0
C1628 C 0.1225 0.5993 0.0503 0.0
C1629 C 0.13817 0.63568 0.03459 0.0
C1630 C 0.12795 0.62375 0.01123 0.0
C1631 C 0.13559 0.62331 0.05417 0.0
C1632 C 0.1149 0.59954 1.0083 0.0
H1633 H 0.10577 0.58941 0.9246 0.0
N1634 N 0.09554 0.56234 0.98305 0.0
C1635 C 0.09269 0.55714 0.93916 0.0
C1636 C 0.1065 0.58619 0.9852 0.0
C1637 C 0.08932 0.54747 0.96043 0.0
C1638 C 0.10306 0.58199 0.94111 0.0
C1639 C 0.11049 0.59675 0.96431 0.0
O1640 O 0.10491 0.51803 1.00306 0.0
O1641 O 0.06199 0.51983 0.03055 0.0
O1642 O 0.06646 0.52372 0.07201 0.0
O1643 O 0.09722 0.54836 0.06056 0.0
O1644 O 0.06968 0.51212 0.99499 0.0
O1645 O 0.12276 0.5456 0.03362 0.0
O1646 O 0.02342 0.56531 0.07494 0.0
O1647 O 0.06684 0.56714 0.04234 0.0
O1648 O 0.06255 0.55958 0.99798 0.0
O1649 O 0.03099 0.54001 0.01366 0.0
O1650 O 0.05964 0.57493 0.07808 0.0
O1651 O 1.00746 0.54328 0.04006 0.0
C1652 C 0.05719 0.50389 0.01067 0.0
C1653 C 0.14405 0.52518 1.00607 0.0
C1654 C 0.17902 0.51082 1.00417 0.0
C1655 C 0.15994 0.51387 0.01608 0.0
C1656 C 0.18166 0.51962 0.98208 0.0
C1657 C 0.14751 0.53429 0.98449 0.0
C1658 C 0.16624 0.53149 0.97261 0.0
C1659 C 0.08798 0.53327 0.07455 0.0
C1660 C 0.12331 0.52592 0.01751 0.0
C1661 C 0.12237 0.62136 0.96722 0.0
C1662 C 0.13114 0.63483 0.99066 0.0
C1663 C 0.07143 0.58345 0.06199 0.0
C1664 C 0.98422 0.55813 0.0686 0.0
C1665 C 0.97012 0.57332 0.06221 0.0
C1666 C 0.9495 0.57251 0.07178 0.0
C1667 C 0.94319 0.556 0.08763 0.0
C1668 C 0.97754 0.54174 0.0843 0.0
C1669 C 0.95708 0.5407 0.09373 0.0
C1670 C 0.04076 0.55214 0.99757 0.0
C1671 C 1.00594 0.56001 0.05899 0.0
H1672 H 0.15726 0.50741 0.03307 0.0
H1673 H 0.19544 0.517 0.97166 0.0
H1674 H 0.13555 0.54311 0.97659 0.0
H1675 H 0.16862 0.53817 0.95569 0.0
H1676 H 0.9754 0.58607 0.05015 0.0
H1677 H 0.92736 0.55468 0.09508 0.0
H1678 H 0.98816 0.52986 0.0893 0.0
H1679 H 0.95197 0.52801 0.10585 0.0
C1680 C 0.01423 0.19242 0.97459 0.0
C1681 C 0.03063 0.21086 0.96818 0.0
C1682 C 0.01906 0.17041 0.98078 0.0
C1683 C 0.04116 0.16675 0.9819 0.0
C1684 C 0.05786 0.18551 0.97573 0.0
C1685 C 0.05239 0.20693 0.96865 0.0
C1686 C 1.00029 0.15083 0.98583 0.0
C1687 C 0.08181 0.18351 0.97757 0.0
C1688 C 0.05347 0.11673 0.01823 0.0
C1689 C 0.05475 0.09681 0.99941 0.0
C1690 C 0.05001 0.13975 0.01297 0.0
C1691 C 0.04644 0.14286 0.98824 0.0
C1692 C 0.04719 0.12253 0.96931 0.0
C1693 C 0.05161 0.10026 0.97507 0.0
C1694 C 0.05044 0.16091 0.03398 0.0
C1695 C 0.04278 0.12401 0.9427 0.0
H1696 H 0.99738 0.19511 0.97451 0.0
H1697 H 0.06539 0.22115 0.9644 0.0
H1698 H 0.99996 0.13282 0.97357 0.0
H1699 H 1.00286 0.14816 1.00497 0.0
H1700 H 0.98392 0.15571 0.98305 0.0
H1701 H 0.09246 0.19782 0.96953 0.0
H1702 H 0.08793 0.18593 0.99719 0.0
H1703 H 0.08362 0.16494 0.96831 0.0
H1704 H 0.0552 0.11436 0.03708 0.0
H1705 H 0.05217 0.08511 0.96021 0.0
H1706 H 0.0342 0.16636 0.03374 0.0
H1707 H 0.0631 0.17729 0.03193 0.0
H1708 H 0.05428 0.15612 0.05206 0.0
H1709 H 0.02635 0.1286 0.93947 0.0
H1710 H 0.04305 0.10639 0.93008 0.0
H1711 H 0.05539 0.13904 0.93801 0.0
C1712 C 0.17042 0.82207 0.17672 0.0
C1713 C 0.17359 0.82882 0.15383 0.0
C1714 C 0.18835 0.81942 0.19249 0.0
C1715 C 0.21031 0.82379 0.18558 0.0
C1716 C 0.21371 0.83148 0.16289 0.0
C1717 C 0.19546 0.83363 0.14736 0.0
C1718 C 0.1837 0.81129 0.21638 0.0
C1719 C 0.23646 0.83655 0.15416 0.0
C1720 C 0.25957 0.8347 0.23531 0.0
C1721 C 0.26511 0.81132 0.23258 0.0
C1722 C 0.242 0.83902 0.22027 0.0
C1723 C 0.22943 0.81959 0.2017 0.0
C1724 C 0.23527 0.79611 0.19851 0.0
C1725 C 0.25285 0.79227 0.21391 0.0
C1726 C 0.23701 0.86455 0.2241 0.0
C1727 C 0.22292 0.77494 0.17871 0.0
H1728 H 0.15375 0.81812 0.18208 0.0
H1729 H 0.19842 0.83881 0.12982 0.0
H1730 H 0.18825 0.79314 0.21631 0.0
H1731 H 0.19402 0.82479 0.2319 0.0
H1732 H 0.16599 0.80945 0.21967 0.0
H1733 H 0.23796 0.85096 0.14267 0.0
H1734 H 0.24991 0.8426 0.1695 0.0
H1735 H 0.23897 0.81931 0.14257 0.0
H1736 H 0.2691 0.8498 0.24923 0.0
H1737 H 0.2568 0.77411 0.21146 0.0
H1738 H 0.21951 0.8635 0.22789 0.0
H1739 H 0.23915 0.87212 0.20709 0.0
H1740 H 0.24794 0.8776 0.23951 0.0
H1741 H 0.20491 0.77147 0.18075 0.0
H1742 H 0.22876 0.75754 0.17911 0.0
H1743 H 0.22514 0.77993 0.16048 0.0
C1744 C 0.51617 0.85311 0.47873 0.0
C1745 C 0.5334 0.8442 0.46744 0.0
C1746 C 0.51838 0.87874 0.48864 0.0
C1747 C 0.53857 0.89594 0.48803 0.0
C1748 C 0.55628 0.88664 0.47756 0.0
C1749 C 0.55335 0.8612 0.4671 0.0
C1750 C 0.49886 0.88752 0.4991 0.0
C1751 C 0.57829 0.90376 0.47678 0.0
C1752 C 0.54268 0.96449 0.48512 0.0
C1753 C 0.55121 0.9769 0.50906 0.0
C1754 C 0.53708 0.93836 0.47863 0.0
C1755 C 0.54085 0.92376 0.49619 0.0
C1756 C 0.54875 0.93621 0.52071 0.0
C1757 C 0.5537 0.96254 0.52687 0.0
C1758 C 0.52793 0.92638 0.45255 0.0
C1759 C 0.55331 0.92182 0.54016 0.0
H1760 H 0.50061 0.84022 0.47888 0.0
H1761 H 0.56675 0.85454 0.45839 0.0
H1762 H 0.50298 0.89505 0.51903 0.0
H1763 H 0.49508 0.90273 0.49041 0.0
H1764 H 0.48379 0.87238 0.49645 0.0
H1765 H 0.59108 0.89347 0.47041 0.0
H1766 H 0.57626 0.91658 0.46419 0.0
H1767 H 0.58436 0.91524 0.49525 0.0
H1768 H 0.54081 0.97539 0.47118 0.0
H1769 H 0.56065 0.97187 0.54531 0.0
H1770 H 0.51305 0.9115 0.45229 0.0
H1771 H 0.54049 0.91769 0.44315 0.0
H1772 H 0.52337 0.93995 0.44195 0.0
H1773 H 0.53908 0.90626 0.54008 0.0
H1774 H 0.55671 0.9337 0.55879 0.0
H1775 H 0.56792 0.91372 0.53614 0.0
C1776 C 0.52677 0.30958 0.64389 0.0
C1777 C 0.54686 0.31133 0.65801 0.0
C1778 C 0.50629 0.3049 0.6538 0.0
C1779 C 0.5057 0.30193 0.67853 0.0
C1780 C 0.52595 0.304 0.69297 0.0
C1781 C 0.54621 0.3086 0.68256 0.0
C1782 C 0.4852 0.30273 0.63762 0.0
C1783 C 0.5262 0.30104 0.71939 0.0
C1784 C 0.45212 0.30757 0.70806 0.0
C1785 C 0.44098 0.28265 0.7049 0.0
C1786 C 0.47337 0.31415 0.70014 0.0
C1787 C 0.48384 0.29541 0.68879 0.0
C1788 C 0.47298 0.27024 0.68638 0.0
C1789 C 0.45186 0.26422 0.69449 0.0
C1790 C 0.48434 0.34121 0.70324 0.0
C1791 C 0.48341 0.24957 0.67457 0.0
H1792 H 0.52701 0.3117 0.62494 0.0
H1793 H 0.56158 0.31 0.6937 0.0
H1794 H 0.47469 0.28385 0.63561 0.0
H1795 H 0.47557 0.31603 0.6462 0.0
H1796 H 0.48845 0.30632 0.61906 0.0
H1797 H 0.54331 0.30426 0.72851 0.0
H1798 H 0.51738 0.3142 0.72979 0.0
H1799 H 0.5173 0.28206 0.72038 0.0
H1800 H 0.4439 0.32198 0.71592 0.0
H1801 H 0.44368 0.24488 0.69235 0.0
H1802 H 0.48596 0.34624 0.68496 0.0
H1803 H 0.50131 0.34479 0.71275 0.0
H1804 H 0.47481 0.35347 0.71384 0.0
H1805 H 0.48562 0.25096 0.65522 0.0
H1806 H 0.47324 0.23094 0.67488 0.0
H1807 H 0.50009 0.25129 0.68412 0.0
C1808 C 0.02194 0.84601 0.64032 0.0
C1809 C 0.02005 0.82071 0.63097 0.0
C1810 C 0.02428 0.86328 0.62468 0.0
C1811 C 0.02465 0.85496 0.59919 0.0
C1812 C 0.02302 0.82948 0.58976 0.0
C1813 C 0.02077 0.81271 0.60575 0.0
C1814 C 0.0261 0.89035 0.63537 0.0
C1815 C 0.02324 0.81982 0.56268 0.0
C1816 C 1.00789 0.89192 0.5531 0.0
C1817 C 0.02843 0.90273 0.54618 0.0
C1818 C 1.00646 0.87688 0.57078 0.0
C1819 C 0.02608 0.87261 0.58205 0.0
C1820 C 0.04691 0.88375 0.57556 0.0
C1821 C 0.04784 0.89849 0.55761 0.0
C1822 C 0.98389 0.8652 0.57709 0.0
C1823 C 0.06821 0.87954 0.58711 0.0
H1824 H 0.02143 0.85229 0.65979 0.0
H1825 H 0.01931 0.79318 0.59836 0.0
H1826 H 0.04141 0.90162 0.63039 0.0
H1827 H 1.01188 0.89677 0.62752 0.0
H1828 H 0.02637 0.89395 0.65566 0.0
H1829 H 0.02232 0.79953 0.5584 0.0
H1830 H 1.00898 0.82383 0.55221 0.0
H1831 H 0.03855 0.82937 0.55612 0.0
H1832 H 0.9928 0.89506 0.54463 0.0
H1833 H 0.06382 0.90618 0.55213 0.0
H1834 H 0.9825 0.8716 0.59684 0.0
H1835 H 0.98171 0.84474 0.57384 0.0
H1836 H 0.9702 0.86976 0.56615 0.0
H1837 H 0.06879 0.88377 0.6074 0.0
H1838 H 0.0831 0.8911 0.58155 0.0
H1839 H 0.06896 0.85976 0.58167 0.0
C1840 C 0.53919 0.85354 0.88017 0.0
C1841 C 0.55587 0.84088 0.87314 0.0
C1842 C 0.52007 0.85125 0.86433 0.0
C1843 C 0.51737 0.83573 0.84089 0.0
C1844 C 0.53367 0.82214 0.83396 0.0
C1845 C 0.55281 0.82498 0.85013 0.0
C1846 C 0.50315 0.86621 0.87235 0.0
C1847 C 0.53121 0.8052 0.8092 0.0
C1848 C 0.45926 0.8197 0.80759 0.0
C1849 C 0.46096 0.83708 0.7922 0.0
C1850 C 0.4777 0.81841 0.82296 0.0
C1851 C 0.49817 0.83516 0.82316 0.0
C1852 C 0.5 0.85253 0.80743 0.0
C1853 C 0.48139 0.85319 0.79205 0.0
C1854 C 0.4752 0.79944 0.83926 0.0
C1855 C 0.52145 0.87093 0.80734 0.0
H1856 H 0.54131 0.86593 0.89787 0.0
H1857 H 0.56552 0.81502 0.84455 0.0
H1858 H 0.50224 0.87977 0.86025 0.0
H1859 H 0.48646 0.85391 0.8706 0.0
H1860 H 0.5072 0.87649 0.89161 0.0
H1861 H 0.54436 0.79433 0.80743 0.0
H1862 H 0.5148 0.79215 0.806 0.0
H1863 H 0.53199 0.81632 0.79457 0.0
H1864 H 0.44351 0.80705 0.8075 0.0
H1865 H 0.48267 0.86677 0.78031 0.0
H1866 H 0.47746 0.80897 0.85877 0.0
H1867 H 0.48818 0.78846 0.83666 0.0
H1868 H 0.45868 0.78655 0.83554 0.0
H1869 H 0.52598 0.88325 0.82565 0.0
H1870 H 0.52033 0.88261 0.79336 0.0
H1871 H 0.53508 0.86108 0.80369 0.0
C1872 C 0.51909 0.18814 0.14421 0.0
C1873 C 0.50384 0.19486 0.12843 0.0
C1874 C 0.52621 0.16592 0.13727 0.0
C1875 C 0.51765 0.15053 0.11427 0.0
C1876 C 0.49889 0.1548 0.10122 0.0
C1877 C 0.49229 0.17722 0.10838 0.0
C1878 C 0.54546 0.16125 0.15233 0.0
C1879 C 0.48848 0.13809 0.07726 0.0
C1880 C 0.55784 0.13564 0.06889 0.0
C1881 C 0.55459 0.10999 0.06623 0.0
C1882 C 0.54697 0.14916 0.08578 0.0
C1883 C 0.53223 0.13654 0.10021 0.0
C1884 C 0.52999 0.11068 0.09867 0.0
C1885 C 0.54133 0.09763 0.08161 0.0
C1886 C 0.55022 0.17678 0.08689 0.0
C1887 C 0.5146 0.0964 0.11358 0.0
H1888 H 0.52786 0.2017 0.15993 0.0
H1889 H 0.48019 0.18232 0.09643 0.0
H1890 H 0.54436 0.14109 0.15111 0.0
H1891 H 0.56113 0.16904 0.14519 0.0
H1892 H 0.54622 0.17031 0.17189 0.0
H1893 H 0.47164 0.14084 0.07219 0.0
H1894 H 0.49895 0.14233 0.06246 0.0
H1895 H 0.48738 0.11834 0.07827 0.0
H1896 H 0.56836 0.14504 0.05708 0.0
H1897 H 0.53876 0.07764 0.07929 0.0
H1898 H 0.55455 0.18699 0.10611 0.0
H1899 H 0.5346 0.18111 0.07979 0.0
H1900 H 0.56351 0.18382 0.07582 0.0
H1901 H 0.51233 0.10811 0.13111 0.0
H1902 H 0.52086 0.08019 0.11765 0.0
H1903 H 0.49814 0.08925 0.10281 0.0
C1904 C 0.18983 0.33968 0.35742 0.0
C1905 C 0.16893 0.32396 0.3501 0.0
C1906 C 0.208 0.3367 0.34427 0.0
C1907 C 0.20533 0.31716 0.32363 0.0
C1908 C 0.18423 0.30126 0.31616 0.0
C1909 C 0.16624 0.30496 0.32939 0.0
C1910 C 0.23009 0.35445 0.35249 0.0
C1911 C 0.18075 0.27984 0.29472 0.0
C1912 C 0.25038 0.32083 0.28012 0.0
C1913 C 0.2643 0.30725 0.28968 0.0
C1914 C 0.23078 0.32379 0.29059 0.0
C1915 C 0.22496 0.31265 0.31089 0.0
C1916 C 0.23882 0.29851 0.32021 0.0
C1917 C 0.25861 0.29665 0.30997 0.0
C1918 C 0.21677 0.33963 0.2806 0.0
C1919 C 0.23309 0.28586 0.34145 0.0
H1920 H 0.19191 0.35464 0.37321 0.0
H1921 H 0.1501 0.29276 0.32369 0.0
H1922 H 0.24241 0.34432 0.35857 0.0
H1923 H 0.23642 0.36273 0.33696 0.0
H1924 H 0.22903 0.36966 0.36784 0.0
H1925 H 0.1629 0.27185 0.28876 0.0
H1926 H 0.18889 0.28562 0.27889 0.0
H1927 H 0.18838 0.26509 0.30018 0.0
H1928 H 0.2552 0.32973 0.26494 0.0
H1929 H 0.26984 0.28716 0.31819 0.0
H1930 H 0.21664 0.35612 0.29488 0.0
H1931 H 0.19938 0.32913 0.27583 0.0
H1932 H 0.22302 0.34604 0.26407 0.0
H1933 H 0.23417 0.29998 0.35841 0.0
H1934 H 0.24437 0.2734 0.3447 0.0
H1935 H 0.21582 0.27478 0.33799 0.0
C1936 C 1.00028 0.06119 0.2099 0.0
C1937 C 0.98117 0.07109 0.21508 0.0
C1938 C 1.00929 0.05901 0.18676 0.0
C1939 C 0.99972 0.06701 0.16656 0.0
C1940 C 0.98048 0.07723 0.17124 0.0
C1941 C 0.97154 0.07907 0.19492 0.0
C1942 C 0.02938 0.04773 0.18397 0.0
C1943 C 0.96914 0.08623 0.15099 0.0
C1944 C 0.03921 0.07924 0.11451 0.0
C1945 C 0.03346 0.05733 0.09616 0.0
C1946 C 0.02811 0.08292 0.13644 0.0
C1947 C 1.01018 0.06446 0.14126 0.0
C1948 C 1.00404 0.04247 0.12258 0.0
C1949 C 0.01542 0.03928 0.10078 0.0
C1950 C 0.03591 0.10683 0.15481 0.0
C1951 C 0.98536 0.02184 0.12572 0.0
H1952 H 1.00867 0.05467 0.22426 0.0
H1953 H 0.95694 0.08671 0.19748 0.0
H1954 H 0.02557 0.03125 0.16883 0.0
H1955 H 0.04325 0.06123 0.17905 0.0
H1956 H 0.03502 0.04197 0.20096 0.0
H1957 H 0.95531 0.09487 0.15719 0.0
H1958 H 0.98129 0.09994 0.14384 0.0
H1959 H 0.96249 0.07046 0.13553 0.0
H1960 H 0.05264 0.09383 0.1118 0.0
H1961 H 1.01022 0.0222 0.08736 0.0
H1962 H 0.04284 0.10296 0.17222 0.0
H1963 H 0.02171 0.11561 0.15901 0.0
H1964 H 0.04883 0.12017 0.14814 0.0
H1965 H 0.98887 1.01564 0.14312 0.0
H1966 H 0.98268 1.00564 0.11033 0.0
H1967 H 0.96981 0.02873 0.12692 0.0
C1968 C 0.28695 0.64392 0.43916 0.0
C1969 C 0.3001 0.66108 0.45862 0.0
C1970 C 0.27798 0.65193 0.41896 0.0
C1971 C 0.28232 0.67758 0.41853 0.0
C1972 C 0.29655 0.69471 0.43759 0.0
C1973 C 0.30527 0.68621 0.45733 0.0
C1974 C 0.26306 0.63315 0.39884 0.0
C1975 C 0.30181 0.72225 0.43777 0.0
C1976 C 0.27612 0.71041 0.36639 0.0
C1977 C 0.25821 0.72118 0.37284 0.0
C1978 C 0.28273 0.69349 0.3794 0.0
C1979 C 0.27119 0.6874 0.39932 0.0
C1980 C 0.25161 0.69602 0.40406 0.0
C1981 C 0.24538 0.71294 0.39077 0.0
C1982 C 0.3033 0.68404 0.37342 0.0
C1983 C 0.23862 0.68952 0.4249 0.0
H1984 H 0.28288 0.62445 0.44022 0.0
H1985 H 0.31564 0.69945 0.47227 0.0
H1986 H 0.24552 0.63359 0.40142 0.0
H1987 H 0.26615 0.63753 0.38054 0.0
H1988 H 0.2653 0.61404 0.39903 0.0
H1989 H 0.31375 0.73289 0.45363 0.0
H1990 H 0.30892 0.72589 0.42066 0.0
H1991 H 0.28637 0.7294 0.43858 0.0
H1992 H 0.28559 0.71611 0.3519 0.0
H1993 H 0.23137 0.721 0.39562 0.0
H1994 H 0.31701 0.69309 0.38802 0.0
H1995 H 0.30875 0.68793 0.35564 0.0
H1996 H 0.30034 0.66378 0.37279 0.0
H1997 H 0.23632 0.66947 0.42515 0.0
H1998 H 0.22207 0.69429 0.42364 0.0
H1999 H 0.24796 0.69989 0.4426 0.0
C2000 C 0.65584 0.0204 0.70007 0.0
C2001 C 0.64852 0.03424 0.72025 0.0
C2002 C 0.64454 0.01626 0.67653 0.0
C2003 C 0.62581 0.02663 0.67311 0.0
C2004 C 0.61763 0.03938 0.69359 0.0
C2005 C 0.62896 0.04283 0.71693 0.0
C2006 C 0.65333 1.00195 0.65515 0.0
C2007 C 0.59785 0.05099 0.69067 0.0
C2008 C 0.6151 0.04858 0.61402 0.0
C2009 C 0.59597 0.03128 0.60287 0.0
C2010 C 0.62532 0.0468 0.63658 0.0
C2011 C 0.61638 0.02698 0.64806 0.0
C2012 C 0.59759 1.00885 0.63641 0.0
C2013 C 0.58749 1.01132 0.61398 0.0
C2014 C 0.64513 0.06676 0.6486 0.0
C2015 C 0.58779 0.98727 0.64792 0.0
H2016 H 0.67077 1.01342 0.70252 0.0
H2017 H 0.62311 0.0535 0.73238 0.0
H2018 H 0.6396 0.98833 0.64328 0.0
H2019 H 0.66123 1.0149 0.64377 0.0
H2020 H 0.66581 0.99199 0.66125 0.0
H2021 H 0.59245 0.05841 0.7086 0.0
H2022 H 0.60214 0.06643 0.68066 0.0
H2023 H 0.58368 0.03729 0.67966 0.0
H2024 H 0.62172 0.06406 0.60555 0.0
H2025 H 0.57284 0.99772 0.60525 0.0
H2026 H 0.65932 0.05837 0.65284 0.0
H2027 H 0.64107 0.07671 0.66623 0.0
H2028 H 0.6504 0.0805 0.63687 0.0
H2029 H 0.60098 0.97824 0.65402 0.0
H2030 H 0.57504 0.97319 0.63509 0.0
H2031 H 0.57993 0.99403 0.66439 0.0
C2032 C 0.31509 0.37395 0.9554 0.0
C2033 C 0.33217 0.37436 0.97322 0.0
C2034 C 0.31525 0.36236 0.93095 0.0
C2035 C 0.33347 0.35188 0.92395 0.0
C2036 C 0.35083 0.35231 0.94201 0.0
C2037 C 0.34973 0.36314 0.96661 0.0
C2038 C 0.29599 0.3616 0.91254 0.0
C2039 C 0.37099 0.34242 0.93525 0.0
C2040 C 0.32261 0.30979 0.8609 0.0
C2041 C 0.32782 0.32727 0.84596 0.0
C2042 C 0.32576 0.31712 0.88663 0.0
C2043 C 0.33476 0.34235 0.89743 0.0
C2044 C 0.34184 0.35946 0.8822 0.0
C2045 C 0.33755 0.3519 0.8567 0.0
C2046 C 0.31757 0.29834 0.90208 0.0
C2047 C 0.3526 0.3862 0.8928 0.0
H2048 H 0.30136 0.38235 0.96071 0.0
H2049 H 0.36294 0.36356 0.98053 0.0
H2050 H 0.30148 0.37373 0.89941 0.0
H2051 H 0.28983 0.34248 0.90182 0.0
H2052 H 0.28202 0.3679 0.92145 0.0
H2053 H 0.38123 0.34057 0.95165 0.0
H2054 H 0.3662 0.32413 0.92265 0.0
H2055 H 0.38133 0.35536 0.9255 0.0
H2056 H 0.31455 0.29087 0.85253 0.0
H2057 H 0.34134 0.36544 0.84505 0.0
H2058 H 0.30176 0.30164 0.90888 0.0
H2059 H 0.32956 0.30024 0.91833 0.0
H2060 H 0.3146 0.27904 0.89147 0.0
H2061 H 0.33984 0.39622 0.89973 0.0
H2062 H 0.36086 0.39571 0.87889 0.0
H2063 H 0.36506 0.38751 0.90848 0.0
C2064 C 0.97017 0.08921 0.37456 0.0
C2065 C 0.97412 0.07802 0.35081 0.0
C2066 C 0.98159 0.08605 0.39686 0.0
C2067 C 0.9973 0.07042 0.39654 0.0
C2068 C 1.00101 0.05871 0.3726 0.0
C2069 C 0.99002 0.06297 0.35059 0.0
C2070 C 0.97722 0.10023 0.42101 0.0
C2071 C 0.01652 0.04108 0.37014 0.0
C2072 C 0.04124 0.07431 0.45363 0.0
C2073 C 0.03053 0.05677 0.46683 0.0
C2074 C 0.03082 0.07917 0.43151 0.0
C2075 C 1.00907 0.06572 0.42085 0.0
C2076 C 0.99851 0.04771 0.43398 0.0
C2077 C 1.00876 0.04427 0.45667 0.0
C2078 C 0.04299 0.09956 0.41998 0.0
C2079 C 0.976 0.03179 0.42407 0.0
H2080 H 0.95839 0.10116 0.3758 0.0
H2081 H 0.99365 0.0539 0.33293 0.0
H2082 H 0.97144 0.08732 0.43334 0.0
H2083 H 0.99289 0.11274 0.43021 0.0
H2084 H 0.96467 0.1115 0.41877 0.0
H2085 H 0.01686 0.03208 0.35077 0.0
H2086 H 0.03356 0.05116 0.37769 0.0
H2087 H 1.01143 0.02647 0.38097 0.0
H2088 H 0.05749 0.08526 0.46125 0.0
H2089 H 0.99959 0.03126 0.46653 0.0
H2090 H 0.0321 0.11246 0.41695 0.0
H2091 H 0.04748 0.09153 0.40181 0.0
H2092 H 0.05835 0.11031 0.4315 0.0
H2093 H 0.96342 0.04338 0.42511 0.0
H2094 H 0.97091 0.01674 0.43441 0.0
H2095 H 0.976 0.02335 0.40447 0.0
C2096 C 0.28669 0.69116 0.599 0.0
C2097 C 0.30681 0.69145 0.58891 0.0
C2098 C 0.28627 0.70134 0.62372 0.0
C2099 C 0.3065 0.71245 0.6384 0.0
C2100 C 0.32693 0.71165 0.62851 0.0
C2101 C 0.32684 0.70099 0.6037 0.0
C2102 C 0.26417 0.70154 0.63369 0.0
C2103 C 0.34882 0.72356 0.64356 0.0
C2104 C 0.30454 0.76662 0.68867 0.0
C2105 C 0.30536 0.75615 0.70962 0.0
C2106 C 0.30513 0.7526 0.66542 0.0
C2107 C 0.30611 0.72734 0.66306 0.0
C2108 C 0.30625 0.71641 0.68406 0.0
C2109 C 0.30591 0.731 0.70718 0.0
C2110 C 0.30515 0.76499 0.64345 0.0
C2111 C 0.30718 0.68948 0.68213 0.0
H2112 H 0.27125 0.68366 0.58728 0.0
H2113 H 0.34233 0.70125 0.5956 0.0
H2114 H 0.26394 0.69516 0.65143 0.0
H2115 H 0.26149 0.72076 0.63716 0.0
H2116 H 0.25017 0.68958 0.62077 0.0
H2117 H 0.36294 0.7176 0.6347 0.0
H2118 H 0.35143 0.74399 0.64573 0.0
H2119 H 0.3489 0.71912 0.66219 0.0
H2120 H 0.30394 0.78602 0.6905 0.0
H2121 H 0.30673 0.72287 0.72336 0.0
H2122 H 0.29087 0.75522 0.62982 0.0
H2123 H 0.32046 0.7639 0.6344 0.0
H2124 H 0.30427 0.7848 0.64851 0.0
H2125 H 0.29312 0.67756 0.66931 0.0
H2126 H 0.30658 0.68367 0.70017 0.0
H2127 H 0.32266 0.68616 0.67451 0.0
C2128 C 0.71961 0.0978 0.84443 0.0
C2129 C 0.70939 0.07257 0.83858 0.0
C2130 C 0.71334 0.11347 0.86407 0.0
C2131 C 0.69712 0.10329 0.87838 0.0
C2132 C 0.68899 0.07729 0.8743 0.0
C2133 C 0.69492 0.06228 0.85406 0.0
C2134 C 0.72214 0.14109 0.86772 0.0
C2135 C 0.67206 0.06561 0.88953 0.0
C2136 C 0.67663 0.1369 0.93441 0.0
C2137 C 0.65637 0.14 0.92421 0.0
C2138 C 0.69123 0.12676 0.91951 0.0
C2139 C 0.68518 0.11949 0.89392 0.0
C2140 C 0.66546 0.12439 0.88342 0.0
C2141 C 0.6512 0.13446 0.89878 0.0
C2142 C 0.71214 0.12208 0.93141 0.0
C2143 C 0.65851 0.11722 0.85615 0.0
H2144 H 0.73071 0.10569 0.83221 0.0
H2145 H 0.68707 0.04273 0.84936 0.0
H2146 H 0.70921 0.14984 0.86052 0.0
H2147 H 0.72612 0.14935 0.8875 0.0
H2148 H 0.73712 0.14575 0.85808 0.0
H2149 H 0.67004 0.04515 0.88643 0.0
H2150 H 0.67686 0.07333 0.90934 0.0
H2151 H 0.65577 0.06982 0.88463 0.0
H2152 H 0.68036 0.14083 0.95411 0.0
H2153 H 0.63552 0.13703 0.89101 0.0
H2154 H 0.72601 0.12549 0.91999 0.0
H2155 H 0.70936 0.1024 0.93335 0.0
H2156 H 0.71706 0.13392 0.94995 0.0
H2157 H 0.67242 0.12387 0.84573 0.0
H2158 H 0.64411 0.12486 0.85074 0.0
H2159 H 0.65386 0.09672 0.85064 0.0
C2160 C 0.31728 0.37666 0.11717 0.0
C2161 C 0.32644 0.3619 0.09923 0.0
C2162 C 0.31342 0.36976 0.13996 0.0
C2163 C 0.31889 0.34765 0.14496 0.0
C2164 C 0.32779 0.33256 0.12681 0.0
C2165 C 0.33138 0.3398 0.10431 0.0
C2166 C 0.30376 0.38624 0.15883 0.0
C2167 C 0.33396 0.30888 0.13129 0.0
C2168 C 0.33306 0.33804 0.20947 0.0
C2169 C 0.31426 0.32078 0.21288 0.0
C2170 C 0.33431 0.34792 0.18802 0.0
C2171 C 0.31629 0.34045 0.16939 0.0
C2172 C 0.29686 0.32385 0.17317 0.0
C2173 C 0.29609 0.31424 0.19486 0.0
C2174 C 0.35543 0.36538 0.18482 0.0
C2175 C 0.27721 0.31539 0.1539 0.0
H2176 H 0.31331 0.3937 0.11352 0.0
H2177 H 0.33837 0.32805 0.09073 0.0
H2178 H 0.28863 0.3754 0.16463 0.0
H2179 H 0.31582 0.39347 0.17541 0.0
H2180 H 0.29945 0.40219 0.1518 0.0
H2181 H 0.34023 0.2989 0.11506 0.0
H2182 H 0.34696 0.31312 0.14702 0.0
H2183 H 0.31937 0.2963 0.13613 0.0
H2184 H 0.34724 0.34327 0.22321 0.0
H2185 H 0.2813 0.30141 0.19758 0.0
H2186 H 0.36401 0.35606 0.17025 0.0
H2187 H 0.36695 0.37135 0.20196 0.0
H2188 H 0.35167 0.38209 0.17891 0.0
H2189 H 0.27308 0.33142 0.14692 0.0
H2190 H 0.26233 0.3055 0.16102 0.0
H2191 H 0.28139 0.30264 0.13813 0.0
C2192 C 0.2784 0.99008 0.04774 0.0
C2193 C 0.30026 1.00168 0.04562 0.0
C2194 C 0.26228 1.00403 0.05323 0.0
C2195 C 0.2681 0.03019 0.05628 0.0
C2196 C 0.29023 0.04202 0.05447 0.0
C2197 C 0.30609 0.02762 0.04935 0.0
C2198 C 0.23894 0.99074 0.0554 0.0
C2199 C 0.297 0.06983 0.05728 0.0
C2200 C 0.22062 0.06135 0.04393 0.0
C2201 C 0.216 0.07036 0.06774 0.0
C2202 C 0.23795 0.04889 0.03998 0.0
C2203 C 0.25076 0.045 0.06034 0.0
C2204 C 0.24642 0.05446 0.08445 0.0
C2205 C 0.22917 0.06721 0.08786 0.0
C2206 C 0.24228 0.03948 0.01399 0.0
C2207 C 0.25951 0.0504 0.10661 0.0
H2208 H 0.27383 0.97004 0.04504 0.0
H2209 H 0.32296 0.03668 0.04766 0.0
H2210 H 0.23353 0.99837 0.07322 0.0
H2211 H 0.22741 0.99376 0.04072 0.0
H2212 H 0.23743 0.97047 0.05393 0.0
H2213 H 0.31502 0.07623 0.05613 0.0
H2214 H 0.28766 0.07596 0.0427 0.0
H2215 H 0.29281 0.07905 0.07515 0.0
H2216 H 0.21055 0.06398 0.02836 0.0
H2217 H 0.22547 0.07397 0.10628 0.0
H2218 H 0.2391 0.01893 0.01027 0.0
H2219 H 0.25991 0.04638 0.01147 0.0
H2220 H 0.23168 0.04529 1.00024 0.0
H2221 H 0.25689 0.03026 0.10658 0.0
H2222 H 0.25466 0.05978 0.12409 0.0
H2223 H 0.27749 0.05736 0.10591 0.0
C2224 C 0.7332 0.64203 1.00916 0.0
C2225 C 0.73496 0.6649 1.00167 0.0
C2226 C 0.71239 0.6267 0.01003 0.0
C2227 C 0.6928 0.6343 1.0032 0.0
C2228 C 0.69444 0.65684 0.99468 0.0
C2229 C 0.71545 0.67182 0.994 0.0
C2230 C 0.71137 0.60281 0.01922 0.0
C2231 C 0.67397 0.66538 0.9868 0.0
C2232 C 0.6376 0.58723 0.99084 0.0
C2233 C 0.6286 0.5919 0.01328 0.0
C2234 C 0.65852 0.60068 0.98731 0.0
C2235 C 0.67064 0.61955 1.00654 0.0
C2236 C 0.6615 0.62458 0.0291 0.0
C2237 C 0.64068 0.61069 0.0322 0.0
C2238 C 0.66763 0.59466 0.963 0.0
C2239 C 0.67364 0.64481 0.04996 0.0
H2240 H 0.74808 0.6364 0.01512 0.0
H2241 H 0.71651 0.6893 0.98796 0.0
H2242 H 0.70394 0.6041 0.03689 0.0
H2243 H 0.70059 0.58712 1.00605 0.0
H2244 H 0.72801 0.59859 0.02208 0.0
H2245 H 0.67796 0.6842 0.98238 0.0
H2246 H 0.66485 0.65224 0.97033 0.0
H2247 H 0.66265 0.66545 1.00144 0.0
H2248 H 0.62828 0.57306 0.97595 0.0
H2249 H 0.63392 0.61455 0.04957 0.0
H2250 H 0.684 0.58984 0.96588 0.0
H2251 H 0.67024 0.61114 0.95427 0.0
H2252 H 0.65642 0.57897 0.95017 0.0
H2253 H 0.69074 0.64242 0.05415 0.0
H2254 H 0.66512 0.64508 0.06693 0.0
H2255 H 0.67495 0.66309 0.04453 0.0
C2256 C 0.7411 0.45909 0.27496 0.0
C2257 C 0.71759 0.45554 0.27337 0.0
C2258 C 0.75293 0.43941 0.27601 0.0
C2259 C 0.74169 0.41423 0.27505 0.0
C2260 C 0.71793 0.41041 0.27302 0.0
C2261 C 0.7065 0.43055 0.27246 0.0
C2262 C 0.7779 0.44582 0.27853 0.0
C2263 C 0.70431 0.38462 0.27134 0.0
C2264 C 0.77322 0.35803 0.25946 0.0
C2265 C 0.77835 0.35179 0.28249 0.0
C2266 C 0.76169 0.37774 0.25675 0.0
C2267 C 0.75458 0.3926 0.27734 0.0
C2268 C 0.76005 0.38644 0.30051 0.0
C2269 C 0.77124 0.36658 0.30264 0.0
C2270 C 0.7568 0.38243 0.23141 0.0
C2271 C 0.75392 0.40096 0.32356 0.0
H2272 H 0.75058 0.47773 0.27587 0.0
H2273 H 0.68857 0.42654 0.27125 0.0
H2274 H 0.78449 0.44023 0.29518 0.0
H2275 H 0.78407 0.43534 0.26257 0.0
H2276 H 0.78463 0.46593 0.27975 0.0
H2277 H 0.68622 0.38385 0.26886 0.0
H2278 H 0.70872 0.37188 0.2557 0.0
H2279 H 0.70812 0.37768 0.28822 0.0
H2280 H 0.77786 0.34716 0.2433 0.0
H2281 H 0.77449 0.36253 0.32068 0.0
H2282 H 0.76478 0.40174 0.23051 0.0
H2283 H 0.73867 0.38035 0.22726 0.0
H2284 H 0.76278 0.36957 0.2171 0.0
H2285 H 0.76078 0.42105 0.32493 0.0
H2286 H 0.76013 0.39529 0.34037 0.0
H2287 H 0.73563 0.39829 0.32285 0.0
C2288 C 0.9053 0.47883 0.50523 0.0
C2289 C 0.90115 0.46106 0.52002 0.0
C2290 C 0.92708 0.4895 0.5017 0.0
C2291 C 0.94508 0.48285 0.51391 0.0
C2292 C 0.94088 0.46543 0.52951 0.0
C2293 C 0.91893 0.45437 0.53199 0.0
C2294 C 0.93076 0.50721 0.48425 0.0
C2295 C 0.95957 0.45848 0.54359 0.0
C2296 C 1.00269 0.48993 0.4926 0.0
C2297 C 0.01387 0.51206 0.50798 0.0
C2298 C 0.97989 0.481 0.49324 0.0
C2299 C 0.96835 0.49393 0.51049 0.0
C2300 C 0.97959 0.51648 0.52585 0.0
C2301 C 1.00218 0.52534 0.52427 0.0
C2302 C 0.9683 0.45739 0.4759 0.0
C2303 C 0.96811 0.53061 0.54487 0.0
H2304 H 0.89146 0.48368 0.49572 0.0
H2305 H 0.91562 0.44066 0.54351 0.0
H2306 H 0.9423 0.52469 0.49338 0.0
H2307 H 0.93849 0.4988 0.46837 0.0
H2308 H 0.91511 0.51165 0.47733 0.0
H2309 H 0.95346 0.44578 0.55605 0.0
H2310 H 0.96962 0.44927 0.53064 0.0
H2311 H 0.97071 0.4754 0.55465 0.0
H2312 H 1.01182 0.47966 0.4801 0.0
H2313 H 1.01089 0.54212 0.53664 0.0
H2314 H 0.95281 0.46002 0.46659 0.0
H2315 H 0.96361 0.4424 0.48636 0.0
H2316 H 0.97892 0.45125 0.46174 0.0
H2317 H 0.95305 0.53476 0.53616 0.0
H2318 H 0.97903 0.54834 0.5547 0.0
H2319 H 0.96271 0.51905 0.55852 0.0
C2320 C 0.4369 0.1101 0.27335 0.0
C2321 C 0.42979 0.08431 0.26616 0.0
C2322 C 0.42392 0.12605 0.26627 0.0
C2323 C 0.40354 0.11591 0.25146 0.0
C2324 C 0.39693 0.08994 0.24312 0.0
C2325 C 0.41005 0.07448 0.25069 0.0
C2326 C 0.43145 0.15363 0.27563 0.0
C2327 C 0.3755 0.07837 0.22699 0.0
C2328 C 0.3552 0.14806 0.25478 0.0
C2329 C 0.35539 0.15717 0.2329 0.0
C2330 C 0.37145 0.13566 0.2616 0.0
C2331 C 0.3882 0.13201 0.24605 0.0
C2332 C 0.38899 0.14193 0.2244 0.0
C2333 C 0.37264 0.15447 0.21813 0.0
C2334 C 0.37011 0.12554 0.28496 0.0
C2335 C 0.40658 0.13842 0.20734 0.0
H2336 H 0.45211 0.11777 0.28539 0.0
H2337 H 0.40457 0.05456 0.24491 0.0
H2338 H 0.43056 0.16379 0.26037 0.0
H2339 H 0.42023 0.15992 0.28897 0.0
H2340 H 0.44865 0.15876 0.28483 0.0
H2341 H 0.37362 0.05811 0.22052 0.0
H2342 H 0.36126 0.08148 0.23733 0.0
H2343 H 0.37462 0.08723 0.21077 0.0
H2344 H 0.34187 0.1498 0.2662 0.0
H2345 H 0.37319 0.1619 0.20145 0.0
H2346 H 0.38638 0.13127 0.29626 0.0
H2347 H 0.36596 0.10498 0.28043 0.0
H2348 H 0.35736 0.13191 0.29612 0.0
H2349 H 0.42329 0.14414 0.21769 0.0
H2350 H 0.40611 0.14915 0.19245 0.0
H2351 H 0.40413 0.1185 0.19891 0.0
C2352 C 0.37788 0.18041 0.53163 0.0
C2353 C 0.35621 0.16602 0.52848 0.0
C2354 C 0.39634 0.16961 0.53396 0.0
C2355 C 0.39313 0.14368 0.53271 0.0
C2356 C 0.37127 0.12915 0.53012 0.0
C2357 C 0.35309 0.14051 0.52821 0.0
C2358 C 0.41932 0.18589 0.53708 0.0
C2359 C 0.36707 0.10144 0.52841 0.0
C2360 C 0.44084 0.1153 0.51026 0.0
C2361 C 0.45169 0.11263 0.53219 0.0
C2362 C 0.42137 0.12453 0.51012 0.0
C2363 C 0.41265 0.1317 0.53254 0.0
C2364 C 0.42321 0.12841 0.55471 0.0
C2365 C 0.44252 0.11872 0.55424 0.0
C2366 C 0.4105 0.12725 0.486 0.0
C2367 C 0.41464 0.13606 0.57902 0.0
H2368 H 0.38045 0.20015 0.53198 0.0
H2369 H 0.33641 0.12922 0.52569 0.0
H2370 H 0.4292 0.18286 0.55315 0.0
H2371 H 0.42798 0.1809 0.52069 0.0
H2372 H 0.41902 0.20589 0.53959 0.0
H2373 H 0.34918 0.09297 0.5279 0.0
H2374 H 0.37336 0.09277 0.51155 0.0
H2375 H 0.37618 0.09698 0.54424 0.0
H2376 H 0.44783 0.11045 0.49316 0.0
H2377 H 0.45099 0.1169 0.57125 0.0
H2378 H 0.41147 0.14717 0.48584 0.0
H2379 H 0.39268 0.118 0.4837 0.0
H2380 H 0.41844 0.11924 0.47007 0.0
H2381 H 0.4161 0.15643 0.58293 0.0
H2382 H 0.42388 0.13093 0.59439 0.0
H2383 H 0.39682 0.12732 0.57833 0.0
C2384 C 0.7162 0.62144 0.30593 0.0
C2385 C 0.71751 0.5992 0.29013 0.0
C2386 C 0.73017 0.64479 0.3053 0.0
C2387 C 0.74595 0.64698 0.28789 0.0
C2388 C 0.7476 0.62456 0.272 0.0
C2389 C 0.73373 0.6012 0.27347 0.0
C2390 C 0.72769 0.66738 0.32322 0.0
C2391 C 0.76355 0.62537 0.25269 0.0
C2392 C 0.76336 0.71245 0.27119 0.0
C2393 C 0.78455 0.72245 0.28414 0.0
C2394 C 0.75123 0.68807 0.2716 0.0
C2395 C 0.75982 0.67269 0.28585 0.0
C2396 C 0.78122 0.6827 0.29901 0.0
C2397 C 0.79322 0.707 0.29784 0.0
C2398 C 0.72894 0.67877 0.25671 0.0
C2399 C 0.7913 0.66795 0.31502 0.0
H2400 H 0.70388 0.62065 0.31892 0.0
H2401 H 0.73493 0.58463 0.26074 0.0
H2402 H 0.74407 0.67736 0.33302 0.0
H2403 H 0.72132 0.68033 0.31317 0.0
H2404 H 0.71617 0.66261 0.33697 0.0
H2405 H 0.7637 0.6066 0.24229 0.0
H2406 H 0.75889 0.63671 0.2396 0.0
H2407 H 0.78057 0.63441 0.26124 0.0
H2408 H 0.75617 0.72374 0.26043 0.0
H2409 H 0.80921 0.71424 0.30842 0.0
H2410 H 0.71575 0.67599 0.26913 0.0
H2411 H 0.72837 0.66055 0.24475 0.0
H2412 H 0.72517 0.69185 0.24505 0.0
H2413 H 0.78075 0.66465 0.32998 0.0
H2414 H 0.80832 0.67755 0.32331 0.0
H2415 H 0.79195 0.64955 0.30421 0.0
C2416 C 0.92173 0.47437 0.7964 0.0
C2417 C 0.92854 0.48865 0.81992 0.0
C2418 C 0.90845 0.45037 0.79309 0.0
C2419 C 0.90093 0.44093 0.81379 0.0
C2420 C 0.90769 0.4556 0.83763 0.0
C2421 C 0.92162 0.47917 0.84038 0.0
C2422 C 0.90352 0.43464 0.76759 0.0
C2423 C 0.90016 0.44707 0.8605 0.0
C2424 C 0.85197 0.38545 0.7974 0.0
C2425 C 0.8622 0.36591 0.80026 0.0
C2426 C 0.8641 0.41017 0.80304 0.0
C2427 C 0.88721 0.41522 0.81029 0.0
C2428 C 0.89758 0.3954 0.81284 0.0
C2429 C 0.88488 0.3711 0.80817 0.0
C2430 C 0.85225 0.43086 0.80114 0.0
C2431 C 0.92222 0.39976 0.81985 0.0
H2432 H 0.9274 0.48171 0.78062 0.0
H2433 H 0.92679 0.49041 0.85857 0.0
H2434 H 0.91053 0.4179 0.76721 0.0
H2435 H 0.8854 0.42821 0.76257 0.0
H2436 H 0.91066 0.44467 0.75347 0.0
H2437 H 0.91363 0.45347 0.87585 0.0
H2438 H 0.88615 0.45563 0.86608 0.0
H2439 H 0.8947 0.4267 0.85793 0.0
H2440 H 0.8346 0.38138 0.79044 0.0
H2441 H 0.89291 0.35594 0.80996 0.0
H2442 H 0.85846 0.44067 0.78653 0.0
H2443 H 0.85569 0.44464 0.81865 0.0
H2444 H 0.83404 0.42398 0.79697 0.0
H2445 H 0.92792 0.38218 0.81951 0.0
H2446 H 0.92657 0.41123 0.83857 0.0
H2447 H 0.93141 0.41011 0.80709 0.0
C2448 C 0.0844 0.87948 0.08596 0.0
C2449 C 0.10384 0.88092 0.10114 0.0
C2450 C 0.07999 0.90028 0.07673 0.0
C2451 C 0.0957 0.92333 0.08177 0.0
C2452 C 0.1158 0.92451 0.09638 0.0
C2453 C 0.11936 0.90369 0.10626 0.0
C2454 C 0.05814 0.89756 0.06195 0.0
C2455 C 0.13368 0.9479 0.10165 0.0
C2456 C 0.09014 0.97386 0.04282 0.0
C2457 C 0.08242 0.99156 0.05932 0.0
C2458 C 0.09455 0.95178 0.04965 0.0
C2459 C 0.0906 0.94653 0.07339 0.0
C2460 C 0.08201 0.96403 0.08961 0.0
C2461 C 0.07864 0.98625 0.08269 0.0
C2462 C 0.10365 0.93421 0.03136 0.0
C2463 C 0.07617 0.95926 0.11447 0.0
H2464 H 0.07213 0.86217 0.08196 0.0
H2465 H 0.13447 0.90521 0.11792 0.0
H2466 H 0.05022 0.91309 0.06901 0.0
H2467 H 0.06107 0.89817 0.04263 0.0
H2468 H 0.0465 0.87981 0.06232 0.0
H2469 H 0.14924 0.94522 0.11079 0.0
H2470 H 0.13732 0.95435 0.08431 0.0
H2471 H 0.12789 0.96281 0.11368 0.0
H2472 H 0.09341 0.97761 0.02482 0.0
H2473 H 0.0727 0.99961 0.09571 0.0
H2474 H 0.09007 0.91834 0.02265 0.0
H2475 H 0.1166 0.92678 0.04048 0.0
H2476 H 0.11081 0.94329 0.01664 0.0
H2477 H 0.06504 0.94072 0.11248 0.0
H2478 H 0.06785 0.97342 0.12412 0.0
H2479 H 0.09138 0.95926 0.1261 0.0
C2480 C 0.94096 0.27497 0.9203 0.0
C2481 C 0.96216 0.27692 0.91201 0.0
C2482 C 0.92241 0.27748 0.90551 0.0
C2483 C 0.92479 0.28256 0.88164 0.0
C2484 C 0.94605 0.28417 0.87292 0.0
C2485 C 0.96432 0.28117 0.88803 0.0
C2486 C 0.90022 0.27506 0.91567 0.0
C2487 C 0.94965 0.28979 0.84781 0.0
C2488 C 0.8723 0.27102 0.83606 0.0
C2489 C 0.8674 0.29468 0.83834 0.0
C2490 C 0.89078 0.26683 0.84978 0.0
C2491 C 0.90517 0.28679 0.86627 0.0
C2492 C 0.90033 0.31075 0.86857 0.0
C2493 C 0.8816 0.31435 0.85478 0.0
C2494 C 0.89484 0.24091 0.84663 0.0
C2495 C 0.91512 0.33278 0.88549 0.0
H2496 H 0.93881 0.27162 0.93867 0.0
H2497 H 0.98051 0.283 0.88133 0.0
H2498 H 0.8948 0.29289 0.91732 0.0
H2499 H 0.88753 0.26086 0.90294 0.0
H2500 H 0.90072 0.26983 0.93399 0.0
H2501 H 0.9668 0.28954 0.8432 0.0
H2502 H 0.93785 0.27612 0.83365 0.0
H2503 H 0.94635 0.30834 0.84694 0.0
H2504 H 0.86157 0.2556 0.82347 0.0
H2505 H 0.87848 0.33281 0.85641 0.0
H2506 H 0.89455 0.23475 0.86448 0.0
H2507 H 0.91151 0.24066 0.84051 0.0
H2508 H 0.8823 0.22739 0.83305 0.0
H2509 H 0.91542 0.32976 0.90464 0.0
H2510 H 0.90959 0.3503 0.8848 0.0
H2511 H 0.93237 0.33491 0.88048 0.0
C2512 C 0.58127 0.23245 0.59735 0.0
C2513 C 0.60204 0.24658 0.59426 0.0
C2514 C 0.57626 0.20611 0.59096 0.0
C2515 C 0.59258 0.19316 0.58202 0.0
C2516 C 0.61368 0.20743 0.57936 0.0
C2517 C 0.61795 0.23365 0.585 0.0
C2518 C 0.55334 0.19208 0.59359 0.0
C2519 C 0.63198 0.195 0.57079 0.0
C2520 C 0.58539 0.12557 0.59112 0.0
C2521 C 0.57784 0.11151 0.56749 0.0
C2522 C 0.59093 0.15179 0.59579 0.0
C2523 C 0.588 0.16486 0.57663 0.0
C2524 C 0.5806 0.15071 0.55258 0.0
C2525 C 0.57595 0.12436 0.54825 0.0
C2526 C 0.59972 0.16554 0.62148 0.0
C2527 C 0.57675 0.16337 0.53149 0.0
H2528 H 0.5687 0.24202 0.60423 0.0
H2529 H 0.63411 0.24414 0.58258 0.0
H2530 H 0.54616 0.1794 0.576 0.0
H2531 H 0.55425 0.18047 0.60762 0.0
H2532 H 0.54199 0.20465 0.59902 0.0
H2533 H 0.648 0.20843 0.5717 0.0
H2534 H 0.63434 0.1812 0.58216 0.0
H2535 H 0.62737 0.18498 0.55155 0.0
H2536 H 0.58684 0.11591 0.60616 0.0
H2537 H 0.56987 0.11383 0.52998 0.0
H2538 H 0.58775 0.17633 0.62919 0.0
H2539 H 0.6155 0.17893 0.62115 0.0
H2540 H 0.60268 0.15284 0.63391 0.0
H2541 H 0.56464 0.17524 0.53582 0.0
H2542 H 0.57041 0.14992 0.51409 0.0
H2543 H 0.59241 0.17563 0.52866 0.0
C2544 C 0.58463 0.77287 0.37732 0.0
C2545 C 0.58599 0.77891 0.40303 0.0
C2546 C 0.60366 0.77681 0.36471 0.0
C2547 C 0.62479 0.78688 0.37804 0.0
C2548 C 0.62639 0.79209 0.40405 0.0
C2549 C 0.60702 0.78818 0.4162 0.0
C2550 C 0.601 0.77112 0.33702 0.0
C2551 C 0.64852 0.80254 0.41907 0.0
C2552 C 0.67521 0.78243 0.34212 0.0
C2553 C 0.68009 0.80576 0.3354 0.0
C2554 C 0.65779 0.77625 0.35665 0.0
C2555 C 0.64478 0.79371 0.36463 0.0
C2556 C 0.65019 0.81755 0.35866 0.0
C2557 C 0.66775 0.82329 0.34437 0.0
C2558 C 0.65285 0.75074 0.3628 0.0
C2559 C 0.63693 0.83685 0.36669 0.0
H2560 H 0.56852 0.76573 0.36689 0.0
H2561 H 0.60834 0.79289 0.43605 0.0
H2562 H 0.60588 0.78854 0.33003 0.0
H2563 H 0.6121 0.75881 0.33006 0.0
H2564 H 0.5837 0.76207 0.32935 0.0
H2565 H 0.64733 0.80329 0.439 0.0
H2566 H 0.66064 0.79118 0.41305 0.0
H2567 H 0.65515 0.82157 0.41618 0.0
H2568 H 0.68447 0.76865 0.3353 0.0
H2569 H 0.67162 0.84157 0.33988 0.0
H2570 H 0.63654 0.74019 0.35329 0.0
H2571 H 0.65177 0.7521 0.38279 0.0
H2572 H 0.66564 0.74011 0.35727 0.0
H2573 H 0.61951 0.83007 0.35838 0.0
H2574 H 0.6437 0.85479 0.36131 0.0
H2575 H 0.63668 0.84013 0.3869 0.0
C2576 C 0.11367 0.28097 0.45269 0.0
C2577 C 0.11108 0.28172 0.42764 0.0
C2578 C 0.10803 0.25857 0.46097 0.0
C2579 C 0.09939 0.23632 0.44379 0.0
C2580 C 0.0987 0.23662 0.41834 0.0
C2581 C 0.10465 0.25937 0.41053 0.0
C2582 C 0.10938 0.25916 0.48824 0.0
C2583 C 0.08975 0.2133 0.39941 0.0
C2584 C 0.0872 0.17632 0.46863 0.0
C2585 C 0.0648 0.17441 0.47263 0.0
C2586 C 0.09869 0.19599 0.45866 0.0
C2587 C 0.0875 0.21414 0.45259 0.0
C2588 C 0.06485 0.21207 0.45634 0.0
C2589 C 0.05388 0.19239 0.46638 0.0
C2590 C 0.12283 0.19756 0.45497 0.0
C2591 C 0.05223 0.23102 0.4503 0.0
H2592 H 0.11896 0.29816 0.46602 0.0
H2593 H 0.10263 0.25979 0.39114 0.0
H2594 H 0.09245 0.25692 0.49421 0.0
H2595 H 0.11641 0.24365 0.49279 0.0
H2596 H 0.11964 0.27689 0.49889 0.0
H2597 H 0.09405 0.21565 0.38078 0.0
H2598 H 0.09621 0.19752 0.40422 0.0
H2599 H 0.07143 0.20843 0.39888 0.0
H2600 H 0.09572 0.16238 0.47317 0.0
H2601 H 0.03672 0.1914 0.46983 0.0
H2602 H 0.13306 0.21455 0.46691 0.0
H2603 H 0.12554 0.19899 0.43574 0.0
H2604 H 0.12878 0.18126 0.45927 0.0
H2605 H 0.05967 0.24942 0.46193 0.0
H2606 H 0.03444 0.22609 0.45324 0.0
H2607 H 0.05339 0.23287 0.43089 0.0
C2608 C 0.60188 0.29003 0.15012 0.0
C2609 C 0.58205 0.28549 0.16113 0.0
C2610 C 0.62251 0.29246 0.16351 0.0
C2611 C 0.62331 0.28986 0.18835 0.0
C2612 C 0.60342 0.28591 0.19971 0.0
C2613 C 0.5831 0.28398 0.18604 0.0
C2614 C 0.64339 0.29724 0.15094 0.0
C2615 C 0.60351 0.28286 0.22612 0.0
C2616 C 0.66996 0.26767 0.21914 0.0
C2617 C 0.68086 0.28931 0.23551 0.0
C2618 C 0.65184 0.26783 0.2027 0.0
C2619 C 0.64471 0.29027 0.20244 0.0
C2620 C 0.65675 0.31251 0.21771 0.0
C2621 C 0.67455 0.31171 0.23424 0.0
C2622 C 0.63938 0.24368 0.18686 0.0
C2623 C 0.65005 0.33691 0.21768 0.0
H2624 H 0.60127 0.29137 0.13093 0.0
H2625 H 0.56793 0.28035 0.19473 0.0
H2626 H 0.65554 0.31338 0.16192 0.0
H2627 H 0.6512 0.28098 0.14954 0.0
H2628 H 0.64013 0.30082 0.13221 0.0
H2629 H 0.58666 0.28029 0.23234 0.0
H2630 H 0.61043 0.26654 0.22841 0.0
H2631 H 0.6143 0.29934 0.23826 0.0
H2632 H 0.67472 0.25031 0.22026 0.0
H2633 H 0.68308 0.32848 0.24683 0.0
H2634 H 0.63679 0.24575 0.16752 0.0
H2635 H 0.62277 0.23837 0.1932 0.0
H2636 H 0.64819 0.22838 0.18753 0.0
H2637 H 0.64638 0.3394 0.19864 0.0
H2638 H 0.66313 0.3529 0.22743 0.0
H2639 H 0.63472 0.33708 0.22693 0.0
C2640 C 0.62558 0.92607 0.88564 0.0
C2641 C 0.62061 0.90974 0.90186 0.0
C2642 C 0.62048 0.94971 0.89025 0.0
C2643 C 0.61005 0.95695 0.91142 0.0
C2644 C 0.60382 0.93984 0.92696 0.0
C2645 C 0.60951 0.91672 0.92218 0.0
C2646 C 0.6264 0.96693 0.87261 0.0
C2647 C 0.5906 0.94524 0.94841 0.0
C2648 C 0.61945 0.02165 0.9485 0.0
C2649 C 0.59795 0.02602 0.94669 0.0
C2650 C 0.62432 1.00017 0.93503 0.0
C2651 C 0.60734 0.98289 0.91898 0.0
C2652 C 0.5864 0.9888 0.91481 0.0
C2653 C 0.58188 1.01032 0.92886 0.0
C2654 C 0.64688 0.9947 0.94017 0.0
C2655 C 0.56799 0.97114 0.89753 0.0
H2656 H 0.63386 0.92059 0.86965 0.0
H2657 H 0.60503 0.90402 0.93446 0.0
H2658 H 0.61241 0.97574 0.86862 0.0
H2659 H 0.64079 0.98199 0.88099 0.0
H2660 H 0.63078 0.95713 0.85507 0.0
H2661 H 0.59501 0.93592 0.96345 0.0
H2662 H 0.59275 0.96527 0.95592 0.0
H2663 H 0.57275 0.93769 0.9422 0.0
H2664 H 0.63203 0.03402 0.96202 0.0
H2665 H 0.56525 1.01353 0.92735 0.0
H2666 H 0.65417 0.98985 0.92278 0.0
H2667 H 0.64522 0.97849 0.9493 0.0
H2668 H 0.65855 1.01063 0.95217 0.0
H2669 H 0.57453 0.96192 0.88111 0.0
H2670 H 0.55522 0.98079 0.89154 0.0
H2671 H 0.55986 0.95653 0.90706 0.0
C2672 C 0.94926 0.74796 0.70137 0.0
C2673 C 0.9696 0.76427 0.71013 0.0
C2674 C 0.93107 0.74736 0.71522 0.0
C2675 C 0.93299 0.76439 0.73773 0.0
C2676 C 0.95389 0.77999 0.74716 0.0
C2677 C 0.97202 0.77948 0.73335 0.0
C2678 C 0.90957 0.72915 0.70529 0.0
C2679 C 0.95702 0.7987 0.77081 0.0
C2680 C 0.87925 0.78443 0.75027 0.0
C2681 C 0.8732 0.77369 0.77037 0.0
C2682 C 0.89923 0.78262 0.74044 0.0
C2683 C 0.91265 0.7679 0.74956 0.0
C2684 C 0.90605 0.75591 0.76908 0.0
C2685 C 0.88646 0.75917 0.77946 0.0
C2686 C 0.90594 0.79657 0.72033 0.0
C2687 C 0.91928 0.73906 0.7784 0.0
H2688 H 0.94752 0.73585 0.68354 0.0
H2689 H 0.98777 0.79214 0.7401 0.0
H2690 H 0.90165 0.72116 0.72024 0.0
H2691 H 0.89789 0.73883 0.69711 0.0
H2692 H 0.91211 0.71379 0.69093 0.0
H2693 H 0.97432 0.80256 0.77957 0.0
H2694 H 0.95378 0.81633 0.76665 0.0
H2695 H 0.94561 0.79254 0.78409 0.0
H2696 H 0.86845 0.79461 0.74235 0.0
H2697 H 0.88124 0.74995 0.79431 0.0
H2698 H 0.90496 0.7833 0.70278 0.0
H2699 H 0.92335 0.80716 0.72469 0.0
H2700 H 0.89516 0.80969 0.71766 0.0
H2701 H 0.91969 0.72341 0.76327 0.0
H2702 H 0.91221 0.73156 0.79404 0.0
H2703 H 0.93667 0.74909 0.78432 0.0
C2704 C 0.14022 0.03104 0.84639 0.0
C2705 C 0.16037 0.02277 0.8448 0.0
C2706 C 0.12928 0.03377 0.86855 0.0
C2707 C 0.13784 0.02759 0.89062 0.0
C2708 C 0.15808 0.019 0.88903 0.0
C2709 C 0.16897 0.01703 0.8668 0.0
C2710 C 0.10836 0.04358 0.86833 0.0
C2711 C 0.16828 1.01144 0.911 0.0
C2712 C 0.12034 0.05372 0.9561 0.0
C2713 C 0.10307 0.03473 0.96062 0.0
C2714 C 0.13129 0.05181 0.93392 0.0
C2715 C 0.12579 0.03005 0.91493 0.0
C2716 C 0.10856 1.0107 0.91956 0.0
C2717 C 0.09755 1.01331 0.94166 0.0
C2718 C 0.14881 0.07357 0.93072 0.0
C2719 C 0.10176 0.98675 0.90108 0.0
H2720 H 0.13291 0.03572 0.83014 0.0
H2721 H 0.18426 1.01046 0.86659 0.0
H2722 H 0.09432 0.02936 0.87184 0.0
H2723 H 0.11022 0.06006 0.88326 0.0
H2724 H 0.10414 0.04883 0.85058 0.0
H2725 H 0.18337 1.00421 0.90708 0.0
H2726 H 0.17276 0.02755 0.92649 0.0
H2727 H 0.15605 0.99695 0.91705 0.0
H2728 H 0.12521 0.07056 0.96991 0.0
H2729 H 0.08463 0.99811 0.94422 0.0
H2730 H 0.14454 0.07946 0.91335 0.0
H2731 H 0.16498 0.06806 0.92936 0.0
H2732 H 0.15074 0.08963 0.94615 0.0
H2733 H 0.09543 0.99038 0.88331 0.0
H2734 H 0.08872 0.97308 0.90718 0.0
H2735 H 0.11639 0.97845 0.89779 0.0
C2736 C 0.82505 0.40443 0.60186 0.0
C2737 C 0.83204 0.42744 0.59513 0.0
C2738 C 0.83032 0.40113 0.62563 0.0
C2739 C 0.84258 0.42148 0.64327 0.0
C2740 C 0.84719 0.44544 0.63749 0.0
C2741 C 0.84198 0.44815 0.6133 0.0
C2742 C 0.82473 0.37526 0.63103 0.0
C2743 C 0.85921 0.4678 0.65617 0.0
C2744 C 0.84991 0.40012 0.70309 0.0
C2745 C 0.86952 0.39152 0.70028 0.0
C2746 C 0.84204 0.41287 0.68609 0.0
C2747 C 0.85378 0.41634 0.66556 0.0
C2748 C 0.87466 0.40976 0.66404 0.0
C2749 C 0.88235 0.39758 0.68158 0.0
C2750 C 0.82028 0.42067 0.68906 0.0
C2751 C 0.88778 0.41309 0.64247 0.0
H2752 H 0.81678 0.38849 0.58803 0.0
H2753 H 0.84712 0.46609 0.60832 0.0
H2754 H 0.84021 0.36861 0.63399 0.0
H2755 H 0.81634 0.37528 0.64802 0.0
H2756 H 0.8138 0.36187 0.61584 0.0
H2757 H 0.85582 0.4852 0.65145 0.0
H2758 H 0.85439 0.4665 0.67482 0.0
H2759 H 0.87732 0.46893 0.65663 0.0
H2760 H 0.8402 0.39583 0.71791 0.0
H2761 H 0.89754 0.39096 0.67945 0.0
H2762 H 0.80658 0.40565 0.67894 0.0
H2763 H 0.8199 0.43765 0.68159 0.0
H2764 H 0.81712 0.42411 0.70866 0.0
H2765 H 0.87883 0.40024 0.62571 0.0
H2766 H 0.90459 0.40927 0.64528 0.0
H2767 H 0.88955 0.43223 0.63912 0.0
C2768 C 0.47095 0.06707 0.37997 0.0
C2769 C 0.48194 0.05832 0.36012 0.0
C2770 C 0.48027 0.06948 0.40426 0.0
C2771 C 0.50068 0.06239 0.40856 0.0
C2772 C 0.51197 0.05407 0.38854 0.0
C2773 C 0.50262 0.05246 0.36466 0.0
C2774 C 0.46815 0.07912 0.42527 0.0
C2775 C 0.53358 0.0459 0.39226 0.0
C2776 C 0.53812 0.07792 0.46821 0.0
C2777 C 0.5324 0.05582 0.47692 0.0
C2778 C 0.52666 0.0812 0.44689 0.0
C2779 C 0.50966 0.06159 0.43368 0.0
C2780 C 0.50347 0.03953 0.44288 0.0
C2781 C 0.51475 0.03706 0.46457 0.0
C2782 C 0.53335 0.10524 0.43802 0.0
C2783 C 0.48589 0.01789 0.42903 0.0
H2784 H 0.4551 0.07189 0.37655 0.0
H2785 H 0.51139 0.04595 0.34948 0.0
H2786 H 0.46177 0.06395 0.43499 0.0
H2787 H 0.47963 0.09391 0.43877 0.0
H2788 H 0.45396 0.0866 0.41897 0.0
H2789 H 0.54036 0.04017 0.37467 0.0
H2790 H 0.54616 0.06113 0.40393 0.0
H2791 H 0.53105 0.03004 0.40191 0.0
H2792 H 0.55154 0.09261 0.47805 0.0
H2793 H 0.51034 0.01994 0.4713 0.0
H2794 H 0.5185 0.11161 0.43175 0.0
H2795 H 0.54312 0.10236 0.42215 0.0
H2796 H 0.54363 0.12009 0.45254 0.0
H2797 H 0.47046 0.02403 0.42449 0.0
H2798 H 0.48192 1.00282 0.43958 0.0
H2799 H 0.49171 1.01021 0.41145 0.0
C2800 C 0.78321 0.74009 0.09911 0.0
C2801 C 0.80031 0.73033 0.08852 0.0
C2802 C 0.78435 0.74866 0.12455 0.0
C2803 C 0.80341 0.74828 0.13983 0.0
C2804 C 0.8206 0.73805 0.12926 0.0
C2805 C 0.81868 0.72882 0.10378 0.0
C2806 C 0.76531 0.75854 0.135 0.0
C2807 C 0.84145 0.73779 0.14472 0.0
C2808 C 0.81893 0.7963 0.19929 0.0
C2809 C 0.81383 0.78189 0.21707 0.0
C2810 C 0.81522 0.7857 0.17414 0.0
C2811 C 0.80598 0.75998 0.16651 0.0
C2812 C 0.80005 0.74549 0.18446 0.0
C2813 C 0.80459 0.75649 0.20955 0.0
C2814 C 0.82221 0.80183 0.1558 0.0
C2815 C 0.78946 0.71825 0.17722 0.0
H2816 H 0.76884 0.74102 0.08741 0.0
H2817 H 0.83198 0.72141 0.09564 0.0
H2818 H 0.75975 0.74921 0.15019 0.0
H2819 H 0.77082 0.77865 0.14269 0.0
H2820 H 0.75096 0.75577 0.12101 0.0
H2821 H 0.85309 0.7288 0.13386 0.0
H2822 H 0.85003 0.75708 0.15317 0.0
H2823 H 0.83727 0.72786 0.15989 0.0
H2824 H 0.82672 0.81579 0.20515 0.0
H2825 H 0.80135 0.74513 0.22331 0.0
H2826 H 0.80794 0.80096 0.14236 0.0
H2827 H 0.83511 0.79487 0.14539 0.0
H2828 H 0.82892 0.82152 0.1647 0.0
H2829 H 0.77529 0.71521 0.16297 0.0
H2830 H 0.78345 0.71035 0.19311 0.0
H2831 H 0.80165 0.70795 0.16923 0.0
C2832 C 0.14556 1.00332 0.68834 0.0
C2833 C 0.15447 0.02435 0.7071 0.0
C2834 C 0.13532 1.00516 0.66469 0.0
C2835 C 0.13329 0.02856 0.65866 0.0
C2836 C 0.1426 0.04969 0.67741 0.0
C2837 C 0.15258 0.04733 0.70068 0.0
C2838 C 0.12603 0.98169 0.64618 0.0
C2839 C 0.14147 0.07523 0.67324 0.0
C2840 C 0.12572 0.0381 0.58999 0.0
C2841 C 0.10299 0.03831 0.5849 0.0
C2842 C 0.13532 0.03477 0.61304 0.0
C2843 C 0.12239 0.0313 0.63298 0.0
C2844 C 0.09935 0.03166 0.62816 0.0
C2845 C 0.09006 0.03484 0.60463 0.0
C2846 C 0.15973 0.035 0.61602 0.0
C2847 C 0.08429 0.02868 0.64807 0.0
H2848 H 0.14573 0.9852 0.6924 0.0
H2849 H 0.15857 0.06402 0.7145 0.0
H2850 H 0.10791 0.97971 0.64212 0.0
H2851 H 0.13354 0.98267 0.62872 0.0
H2852 H 0.12907 0.96498 0.65274 0.0
H2853 H 0.15095 0.09009 0.68829 0.0
H2854 H 0.14799 0.07824 0.65567 0.0
H2855 H 0.12393 0.07695 0.67189 0.0
H2856 H 0.13636 0.04048 0.57551 0.0
H2857 H 0.07251 0.03436 0.60169 0.0
H2858 H 0.16225 0.01746 0.62111 0.0
H2859 H 0.1682 0.05036 0.63114 0.0
H2860 H 0.16773 0.0373 0.59905 0.0
H2861 H 0.08485 1.01116 0.65445 0.0
H2862 H 0.06686 0.02854 0.64184 0.0
H2863 H 0.09015 0.0441 0.66403 0.0
C2864 C 0.84055 0.40235 0.46388 0.0
C2865 C 0.82586 0.41839 0.46567 0.0
C2866 C 0.84225 0.38735 0.44145 0.0
C2867 C 0.82801 0.38747 0.4206 0.0
C2868 C 0.813 0.40359 0.42232 0.0
C2869 C 0.81248 0.41934 0.44481 0.0
C2870 C 0.85917 0.3713 0.44012 0.0
C2871 C 0.79705 0.40359 0.40065 0.0
C2872 C 0.84006 0.36163 0.35636 0.0
C2873 C 0.82687 0.33749 0.35203 0.0
C2874 C 0.84117 0.37787 0.37889 0.0
C2875 C 0.82828 0.37004 0.39726 0.0
C2876 C 0.81562 0.34548 0.39337 0.0
C2877 C 0.81561 0.32934 0.37107 0.0
C2878 C 0.85581 0.40352 0.38286 0.0
C2879 C 0.80137 0.33649 0.41237 0.0
H2880 H 0.85096 0.4017 0.47997 0.0
H2881 H 0.80103 0.43169 0.44634 0.0
H2882 H 0.85067 0.35146 0.43647 0.0
H2883 H 0.86931 0.37423 0.42475 0.0
H2884 H 0.87042 0.37525 0.45738 0.0
H2885 H 0.78624 0.417 0.40513 0.0
H2886 H 0.80628 0.40828 0.38512 0.0
H2887 H 0.78641 0.38477 0.39434 0.0
H2888 H 0.84925 0.36811 0.342 0.0
H2889 H 0.80635 0.3105 0.36843 0.0
H2890 H 0.86667 0.40739 0.40036 0.0
H2891 H 0.84543 0.41757 0.38425 0.0
H2892 H 0.86637 0.40587 0.3677 0.0
H2893 H 0.81156 0.33877 0.43006 0.0
H2894 H 0.79276 0.31672 0.40662 0.0
H2895 H 0.78872 0.34785 0.4157 0.0
C2896 C 0.50227 0.99074 0.22971 0.0
C2897 C 0.49393 1.01218 0.23603 0.0
C2898 C 0.5127 0.98644 0.20829 0.0
C2899 C 0.51521 1.00431 0.19314 0.0
C2900 C 0.50563 0.02529 0.19866 0.0
C2901 C 0.49486 0.02888 0.22004 0.0
C2902 C 0.5222 0.96354 0.20273 0.0
C2903 C 0.50812 0.0448 0.18297 0.0
C2904 C 0.56664 1.01026 0.15934 0.0
C2905 C 0.5578 0.99878 0.13536 0.0
C2906 C 0.55287 1.01227 0.17828 0.0
C2907 C 0.52979 1.00224 0.17309 0.0
C2908 C 0.52087 0.99002 0.14902 0.0
C2909 C 0.535 0.98856 0.13037 0.0
C2910 C 0.56297 0.02558 0.20374 0.0
C2911 C 0.49643 0.97871 0.14293 0.0
H2912 H 0.50132 0.97769 0.24202 0.0
H2913 H 0.48849 0.04551 0.22505 0.0
H2914 H 0.51766 0.95426 0.18323 0.0
H2915 H 0.54056 0.9689 0.20578 0.0
H2916 H 0.51636 0.95003 0.21451 0.0
H2917 H 0.49779 0.05856 0.18825 0.0
H2918 H 0.52573 0.05477 0.18489 0.0
H2919 H 0.5035 0.03612 0.16333 0.0
H2920 H 0.58421 0.01848 0.16309 0.0
H2921 H 0.52821 0.97962 0.11177 0.0
H2922 H 0.55975 1.01289 0.21689 0.0
H2923 H 0.55515 0.04145 0.20989 0.0
H2924 H 0.58115 0.03264 0.20461 0.0
H2925 H 0.4911 0.96504 0.15467 0.0
H2926 H 0.49224 0.96931 0.12339 0.0
H2927 H 0.48674 0.99331 0.14682 0.0
C2928 C 0.81716 0.69738 0.93612 0.0
C2929 C 0.81054 0.71086 0.95704 0.0
C2930 C 0.81926 0.70684 0.91438 0.0
C2931 C 0.81425 0.7302 0.9133 0.0
C2932 C 0.80707 0.74363 0.9342 0.0
C2933 C 0.8055 0.73393 0.95584 0.0
C2934 C 0.82726 0.69205 0.89271 0.0
C2935 C 0.80114 0.76835 0.93375 0.0
C2936 C 0.83876 0.76696 0.8662 0.0
C2937 C 0.8211 0.76164 0.84765 0.0
C2938 C 0.83687 0.75664 0.88745 0.0
C2939 C 0.81673 0.74073 0.89043 0.0
C2940 C 0.7989 0.73511 0.87162 0.0
C2941 C 0.80137 0.74542 0.85045 0.0
C2942 C 0.85644 0.76292 0.90678 0.0
C2943 C 0.77702 0.71856 0.87404 0.0
H2944 H 0.82122 0.67961 0.9369 0.0
H2945 H 0.8003 0.74444 0.97185 0.0
H2946 H 0.81484 0.68812 0.87647 0.0
H2947 H 0.84281 0.703 0.88787 0.0
H2948 H 0.83041 0.67418 0.89641 0.0
H2949 H 0.79509 0.77608 0.95119 0.0
H2950 H 0.81583 0.78184 0.93041 0.0
H2951 H 0.7881 0.7664 0.91847 0.0
H2952 H 0.85419 0.7791 0.86407 0.0
H2953 H 0.78756 0.74119 0.83632 0.0
H2954 H 0.86079 0.74567 0.91071 0.0
H2955 H 0.85207 0.77307 0.92412 0.0
H2956 H 0.87127 0.77453 0.90117 0.0
H2957 H 0.77955 0.70015 0.87665 0.0
H2958 H 0.76485 0.71587 0.85772 0.0
H2959 H 0.76984 0.72672 0.89048 0.0
C2960 C 0.84565 0.08902 0.03925 0.0
C2961 C 0.85381 0.11362 0.03709 0.0
C2962 C 0.86022 0.07346 0.04285 0.0
C2963 C 0.88339 0.08288 0.04448 0.0
C2964 C 0.89165 0.10809 0.04371 0.0
C2965 C 0.87676 0.12312 0.03994 0.0
C2966 C 0.85085 0.04665 0.04358 0.0
C2967 C 0.91624 0.11891 0.04559 0.0
C2968 C 0.92541 0.04826 0.0658 0.0
C2969 C 0.93198 0.03796 0.04336 0.0
C2970 C 0.90905 0.06236 0.06653 0.0
C2971 C 0.89902 0.066 0.04429 0.0
C2972 C 0.90515 0.05495 0.02159 0.0
C2973 C 0.92161 0.04113 0.02142 0.0
C2974 C 0.90304 0.07402 0.09106 0.0
C2975 C 0.89476 0.0583 0.99746 0.0
H2976 H 0.82791 0.08163 0.03712 0.0
H2977 H 0.88315 0.14223 0.03859 0.0
H2978 H 0.854 0.03468 0.02664 0.0
H2979 H 0.85915 0.0412 0.05934 0.0
H2980 H 0.8327 0.04295 0.04495 0.0
H2981 H 0.91995 0.13935 0.04711 0.0
H2982 H 0.92489 0.11449 0.06175 0.0
H2983 H 0.92319 0.11055 0.02906 0.0
H2984 H 0.93352 0.04587 0.08278 0.0
H2985 H 0.92645 0.03282 1.00405 0.0
H2986 H 0.88484 0.06928 0.09166 0.0
H2987 H 0.90807 0.0945 0.0937 0.0
H2988 H 0.91122 0.06797 0.10656 0.0
H2989 H 0.87644 0.05283 0.99646 0.0
H2990 H 0.9004 0.04721 0.98145 0.0
H2991 H 0.89908 0.07813 0.99606 0.0
C2992 C 0.42039 0.4252 0.04974 0.0
C2993 C 0.4 0.43112 0.04377 0.0
C2994 C 0.44053 0.44225 0.0504 0.0
C2995 C 0.4404 0.46568 0.04435 0.0
C2996 C 0.41983 0.47209 0.03907 0.0
C2997 C 0.39987 0.45484 0.03912 0.0
C2998 C 0.46199 0.43477 0.05666 0.0
C2999 C 0.41893 0.49665 0.03205 0.0
C3000 C 0.49414 0.5153 0.05841 0.0
C3001 C 0.50368 0.51144 0.03624 0.0
C3002 C 0.47342 0.50084 0.06131 0.0
C3003 C 0.46176 0.48237 0.04142 0.0
C3004 C 0.47106 0.47895 0.0188 0.0
C3005 C 0.49194 0.49328 0.01659 0.0
C3006 C 0.46436 0.50481 0.08587 0.0
C3007 C 0.45907 0.45986 0.99693 0.0
H3008 H 0.42063 0.40698 0.05357 0.0
H3009 H 0.38419 0.45947 0.03431 0.0
H3010 H 0.47097 0.43233 0.04009 0.0
H3011 H 0.47289 0.44952 0.07072 0.0
H3012 H 0.45923 0.41715 0.06361 0.0
H3013 H 0.40177 0.4997 0.03046 0.0
H3014 H 0.42938 0.51212 0.04575 0.0
H3015 H 0.42571 0.49732 0.01415 0.0
H3016 H 0.50313 0.52919 0.07374 0.0
H3017 H 0.49902 0.49024 0.99932 0.0
H3018 H 0.46365 0.48801 0.09396 0.0
H3019 H 0.44719 0.50767 0.08364 0.0
H3020 H 0.47467 0.52098 0.09895 0.0
H3021 H 0.45763 0.441 1.00098 0.0
H3022 H 0.46775 0.46079 0.98016 0.0
H3023 H 0.44201 0.46254 0.99309 0.0
C3024 C 0.39244 0.63716 0.77757 0.0
C3025 C 0.41598 0.6409 0.78093 0.0
C3026 C 0.38062 0.65702 0.77756 0.0
C3027 C 0.39184 0.68251 0.78048 0.0
C3028 C 0.41562 0.68644 0.78374 0.0
C3029 C 0.42705 0.66624 0.78417 0.0
C3030 C 0.35565 0.65056 0.77461 0.0
C3031 C 0.42928 0.71238 0.78662 0.0
C3032 C 0.36128 0.73141 0.75603 0.0
C3033 C 0.35519 0.74604 0.77705 0.0
C3034 C 0.37257 0.71131 0.75688 0.0
C3035 C 0.37893 0.70445 0.77947 0.0
C3036 C 0.37283 0.71911 0.80087 0.0
C3037 C 0.36184 0.73953 0.79951 0.0
C3038 C 0.37839 0.69776 0.73314 0.0
C3039 C 0.37819 0.71343 0.82569 0.0
H3040 H 0.38293 0.61832 0.77517 0.0
H3041 H 0.44499 0.67046 0.78686 0.0
H3042 H 0.34925 0.66109 0.79038 0.0
H3043 H 0.3493 0.65606 0.75781 0.0
H3044 H 0.34891 0.63045 0.77337 0.0
H3045 H 0.44735 0.71297 0.78822 0.0
H3046 H 0.42501 0.72051 0.77066 0.0
H3047 H 0.42538 0.72423 0.80323 0.0
H3048 H 0.35763 0.7362 0.73843 0.0
H3049 H 0.35871 0.75069 0.81635 0.0
H3050 H 0.37133 0.6776 0.73079 0.0
H3051 H 0.39666 0.70022 0.73366 0.0
H3052 H 0.3722 0.70444 0.71696 0.0
H3053 H 0.37218 0.69337 0.82539 0.0
H3054 H 0.37066 0.7242 0.84032 0.0
H3055 H 0.39642 0.71783 0.83034 0.0
C3056 C 0.23007 0.62212 0.53019 0.0
C3057 C 0.23559 0.63401 0.51065 0.0
C3058 C 0.20784 0.61346 0.53368 0.0
C3059 C 0.1908 0.61608 0.51682 0.0
C3060 C 0.19638 0.62713 0.49646 0.0
C3061 C 0.21872 0.63626 0.49377 0.0
C3062 C 0.2026 0.6021 0.55573 0.0
C3063 C 0.17874 0.62973 0.47775 0.0
C3064 C 0.1325 0.57701 0.51188 0.0
C3065 C 0.12111 0.59405 0.52387 0.0
C3066 C 0.15536 0.58356 0.5103 0.0
C3067 C 0.16709 0.60793 0.52071 0.0
C3068 C 0.1558 0.62504 0.53349 0.0
C3069 C 0.13288 0.61793 0.53475 0.0
C3070 C 0.16666 0.56473 0.49645 0.0
C3071 C 0.16778 0.65112 0.54511 0.0
H3072 H 0.24311 0.62067 0.54345 0.0
H3073 H 0.22302 0.64541 0.47861 0.0
H3074 H 0.19234 0.61273 0.5671 0.0
H3075 H 0.19282 0.58294 0.54954 0.0
H3076 H 0.21774 0.60161 0.5673 0.0
H3077 H 0.18588 0.63757 0.46231 0.0
H3078 H 0.16779 0.61133 0.47034 0.0
H3079 H 0.16827 0.64192 0.48657 0.0
H3080 H 0.12349 0.55875 0.50298 0.0
H3081 H 0.12405 0.63119 0.54386 0.0
H3082 H 0.1824 0.56436 0.5069 0.0
H3083 H 0.17079 0.56997 0.47873 0.0
H3084 H 0.15603 0.54575 0.49262 0.0
H3085 H 0.18258 0.65077 0.55727 0.0
H3086 H 0.15702 0.6615 0.556 0.0
H3087 H 0.17369 0.66132 0.53063 0.0
C3088 C 0.73004 0.9759 0.7531 0.0
C3089 C 0.73625 0.99956 0.74752 0.0
C3090 C 0.74442 0.95949 0.75073 0.0
C3091 C 0.76551 0.96705 0.74276 0.0
C3092 C 0.77099 0.98993 0.7349 0.0
C3093 C 0.75622 1.00596 0.73733 0.0
C3094 C 0.73776 0.9349 0.75862 0.0
C3095 C 0.79318 0.99838 0.72588 0.0
C3096 C 0.81204 0.94526 0.77369 0.0
C3097 C 0.8156 0.92645 0.75528 0.0
C3098 C 0.79595 0.95876 0.7696 0.0
C3099 C 0.78295 0.95305 0.7466 0.0
C3100 C 0.78639 0.93387 0.72797 0.0
C3101 C 0.80288 0.92087 0.73251 0.0
C3102 C 0.79279 0.97906 0.78998 0.0
C3103 C 0.77286 0.92711 0.70327 0.0
H3104 H 0.71444 0.97068 0.7606 0.0
H3105 H 0.761 0.02413 0.73275 0.0
H3106 H 0.74166 0.91979 0.74499 0.0
H3107 H 0.74733 0.93554 0.77636 0.0
H3108 H 0.71982 0.9303 0.76098 0.0
H3109 H 0.79373 1.01496 0.71744 0.0
H3110 H 0.80633 1.00306 0.74151 0.0
H3111 H 0.79706 0.98329 0.71222 0.0
H3112 H 0.822 0.94949 0.79126 0.0
H3113 H 0.80553 0.90599 0.71852 0.0
H3114 H 0.77567 0.97476 0.79526 0.0
H3115 H 0.79503 0.99692 0.78356 0.0
H3116 H 0.8046 0.98146 0.80655 0.0
H3117 H 0.75519 0.92749 0.70512 0.0
H3118 H 0.77382 0.90844 0.69329 0.0
H3119 H 0.77927 0.94084 0.69196 0.0
C3120 C 0.75886 0.92011 0.54047 0.0
C3121 C 0.78027 0.93245 0.55113 0.0
C3122 C 0.742 0.93321 0.53749 0.0
C3123 C 0.74656 0.95932 0.54537 0.0
C3124 C 0.76782 0.97168 0.55726 0.0
C3125 C 0.78437 0.95815 0.55996 0.0
C3126 C 0.71961 0.91921 0.5248 0.0
C3127 C 0.77346 0.99944 0.56609 0.0
C3128 C 0.71527 0.99774 0.51181 0.0
C3129 C 0.70019 1.00413 0.52831 0.0
C3130 C 0.73006 0.98286 0.51697 0.0
C3131 C 0.7299 0.97398 0.53925 0.0
C3132 C 0.71435 0.97981 0.55576 0.0
C3133 C 0.69967 0.99474 0.55008 0.0
C3134 C 0.74615 0.97701 0.49869 0.0
C3135 C 0.71359 0.97077 0.57969 0.0
H3136 H 0.75547 0.90029 0.53354 0.0
H3137 H 0.80081 0.96791 0.56824 0.0
H3138 H 0.70621 0.92436 0.53558 0.0
H3139 H 0.71711 0.92429 0.50662 0.0
H3140 H 0.71793 0.89881 0.52204 0.0
H3141 H 0.78997 1.00598 0.5769 0.0
H3142 H 0.77345 1.00873 0.5501 0.0
H3143 H 0.76076 1.00531 0.57759 0.0
H3144 H 0.71558 1.00448 0.49474 0.0
H3145 H 0.68823 0.99968 0.56305 0.0
H3146 H 0.74426 0.95665 0.49327 0.0
H3147 H 0.7634 0.98478 0.50723 0.0
H3148 H 0.74373 0.98468 0.48189 0.0
H3149 H 0.71167 0.95035 0.5763 0.0
H3150 H 0.69979 0.97573 0.58993 0.0
H3151 H 0.72944 0.97897 0.59142 0.0
C3152 C 0.41642 0.48719 0.80401 0.0
C3153 C 0.41684 0.49979 0.78418 0.0
C3154 C 0.40279 0.46321 0.80281 0.0
C3155 C 0.38939 0.45021 0.78083 0.0
C3156 C 0.38962 0.46287 0.7607 0.0
C3157 C 0.40297 0.48731 0.76267 0.0
C3158 C 0.40306 0.45158 0.82521 0.0
C3159 C 0.37638 0.45013 0.73657 0.0
C3160 C 0.3735 0.37793 0.77271 0.0
C3161 C 0.3511 0.3729 0.77757 0.0
C3162 C 0.38569 0.40247 0.77291 0.0
C3163 C 0.37586 0.42338 0.7789 0.0
C3164 C 0.3533 0.41842 0.78404 0.0
C3165 C 0.34133 0.39361 0.78306 0.0
C3166 C 0.40931 0.40597 0.76665 0.0
C3167 C 0.34185 0.43949 0.79136 0.0
H3168 H 0.42713 0.49613 0.82068 0.0
H3169 H 0.40336 0.49616 0.74688 0.0
H3170 H 0.38588 0.44503 0.82952 0.0
H3171 H 0.41064 0.43517 0.82157 0.0
H3172 H 0.41256 0.46467 0.84155 0.0
H3173 H 0.37764 0.46229 0.7228 0.0
H3174 H 0.38239 0.43323 0.72913 0.0
H3175 H 0.35868 0.44407 0.73928 0.0
H3176 H 0.38157 0.36249 0.76845 0.0
H3177 H 0.32441 0.39059 0.78752 0.0
H3178 H 0.4207 0.41642 0.78297 0.0
H3179 H 0.41162 0.41707 0.75203 0.0
H3180 H 0.41414 0.38805 0.76039 0.0
H3181 H 0.35056 0.45159 0.80864 0.0
H3182 H 0.32421 0.43288 0.79414 0.0
H3183 H 0.3426 0.45107 0.77712 0.0
C3184 C 0.21827 0.63737 0.30521 0.0
C3185 C 0.2196 0.61654 0.28779 0.0
C3186 C 0.22986 0.66116 0.30364 0.0
C3187 C 0.2427 0.66441 0.28379 0.0
C3188 C 0.24402 0.64331 0.26616 0.0
C3189 C 0.23285 0.61963 0.26865 0.0
C3190 C 0.2274 0.68267 0.32293 0.0
C3191 C 0.25644 0.64575 0.24409 0.0
C3192 C 0.2512 0.72984 0.27088 0.0
C3193 C 0.27334 0.73982 0.28016 0.0
C3194 C 0.24146 0.70492 0.27065 0.0
C3195 C 0.25385 0.68989 0.28101 0.0
C3196 C 0.27631 0.69998 0.29041 0.0
C3197 C 0.28588 0.72473 0.28954 0.0
C3198 C 0.2177 0.69488 0.25988 0.0
C3199 C 0.29003 0.68499 0.30221 0.0
H3200 H 0.20801 0.63514 0.32007 0.0
H3201 H 0.23369 0.60362 0.25491 0.0
H3202 H 0.24104 0.69906 0.32414 0.0
H3203 H 0.21153 0.68796 0.31838 0.0
H3204 H 0.22677 0.67733 0.34118 0.0
H3205 H 0.25368 0.62801 0.2306 0.0
H3206 H 0.2512 0.6599 0.23484 0.0
H3207 H 0.27442 0.65185 0.25007 0.0
H3208 H 0.2415 0.74159 0.26376 0.0
H3209 H 0.30293 0.73259 0.29708 0.0
H3210 H 0.20702 0.69241 0.27488 0.0
H3211 H 0.21592 0.67647 0.24776 0.0
H3212 H 0.21157 0.70752 0.24915 0.0
H3213 H 0.2807 0.67573 0.31561 0.0
H3214 H 0.30598 0.6966 0.31178 0.0
H3215 H 0.2938 0.67033 0.28801 0.0
C3216 C 0.51349 0.69096 0.47044 0.0
C3217 C 0.53016 0.71022 0.46584 0.0
C3218 C 0.51829 0.66892 0.47662 0.0
C3219 C 0.54057 0.66603 0.47958 0.0
C3220 C 0.55753 0.68562 0.47528 0.0
C3221 C 0.55215 0.70707 0.46812 0.0
C3222 C 0.49934 0.64857 0.47983 0.0
C3223 C 0.58157 0.68439 0.47915 0.0
C3224 C 0.55074 0.61592 0.5168 0.0
C3225 C 0.55317 0.59617 0.49841 0.0
C3226 C 0.54777 0.63897 0.51118 0.0
C3227 C 0.54588 0.6423 0.48637 0.0
C3228 C 0.54797 0.62218 0.46781 0.0
C3229 C 0.55161 0.59974 0.47402 0.0
C3230 C 0.54637 0.65971 0.5319 0.0
C3231 C 0.54532 0.62387 0.44109 0.0
H3232 H 0.49646 0.69305 0.46899 0.0
H3233 H 0.56532 0.7219 0.46526 0.0
H3234 H 0.50029 0.63085 0.46782 0.0
H3235 H 0.50049 0.64573 0.49902 0.0
H3236 H 0.48293 0.65278 0.47541 0.0
H3237 H 0.59279 0.70012 0.47364 0.0
H3238 H 0.58604 0.68475 0.49885 0.0
H3239 H 0.58443 0.66677 0.46866 0.0
H3240 H 0.55082 0.61325 0.53559 0.0
H3241 H 0.55246 0.58441 0.45947 0.0
H3242 H 0.5294 0.66329 0.53106 0.0
H3243 H 0.55792 0.67704 0.53009 0.0
H3244 H 0.55045 0.65538 0.55013 0.0
H3245 H 0.52856 0.62693 0.43625 0.0
H3246 H 0.54754 0.60686 0.42878 0.0
H3247 H 0.55752 0.63994 0.43762 0.0
C3248 C 0.67017 0.32559 0.68223 0.0
C3249 C 0.67352 0.3325 0.65942 0.0
C3250 C 0.68819 0.32435 0.69879 0.0
C3251 C 0.71037 0.33031 0.69276 0.0
C3252 C 0.71385 0.338 0.67011 0.0
C3253 C 0.69559 0.33889 0.65386 0.0
C3254 C 0.68341 0.31598 0.72254 0.0
C3255 C 0.73697 0.34481 0.6627 0.0
C3256 C 0.76 0.34444 0.74289 0.0
C3257 C 0.76725 0.32197 0.73988 0.0
C3258 C 0.74157 0.34738 0.72806 0.0
C3259 C 0.72981 0.32744 0.70942 0.0
C3260 C 0.73709 0.30475 0.7063 0.0
C3261 C 0.75549 0.30233 0.72143 0.0
C3262 C 0.73472 0.37197 0.73233 0.0
C3263 C 0.72531 0.28281 0.68694 0.0
H3264 H 0.65337 0.32045 0.68691 0.0
H3265 H 0.69869 0.34435 0.63648 0.0
H3266 H 0.68866 0.29824 0.72269 0.0
H3267 H 0.69308 0.32978 0.73827 0.0
H3268 H 0.66554 0.31327 0.72531 0.0
H3269 H 0.73714 0.3517 0.6452 0.0
H3270 H 0.74754 0.35933 0.67725 0.0
H3271 H 0.74458 0.32838 0.66056 0.0
H3272 H 0.76886 0.35993 0.75684 0.0
H3273 H 0.76029 0.28471 0.71904 0.0
H3274 H 0.71707 0.36928 0.73594 0.0
H3275 H 0.73627 0.38011 0.71561 0.0
H3276 H 0.74493 0.38538 0.74803 0.0
H3277 H 0.70758 0.27771 0.68999 0.0
H3278 H 0.73271 0.26635 0.6869 0.0
H3279 H 0.72593 0.28775 0.66853 0.0
C3280 C 0.01774 0.35239 0.98188 0.0
C3281 C 0.03403 0.34437 0.96803 0.0
C3282 C 0.01939 0.37793 0.99167 0.0
C3283 C 0.03812 0.39591 0.98825 0.0
C3284 C 0.05503 0.38757 0.97523 0.0
C3285 C 0.05258 0.36218 0.96498 0.0
C3286 C 1.00066 0.3858 1.00478 0.0
C3287 C 0.0756 0.4056 0.97153 0.0
C3288 C 0.0377 0.46331 0.98474 0.0
C3289 C 0.04842 0.47654 1.0076 0.0
C3290 C 0.03274 0.43717 0.97906 0.0
C3291 C 0.03946 0.42351 0.99622 0.0
C3292 C 0.04957 0.43678 0.01978 0.0
C3293 C 0.05375 0.46306 0.02525 0.0
C3294 C 0.02118 0.42422 0.95409 0.0
C3295 C 0.05743 0.4234 0.03867 0.0
H3296 H 1.00323 0.33884 0.98412 0.0
H3297 H 0.06528 0.35619 0.95437 0.0
H3298 H 1.00704 0.39686 0.02334 0.0
H3299 H 0.99313 0.39789 0.99458 0.0
H3300 H 0.98755 0.36972 1.00661 0.0
H3301 H 0.08824 0.39605 0.96338 0.0
H3302 H 0.07116 0.41773 0.95918 0.0
H3303 H 0.08309 0.41773 0.9893 0.0
H3304 H 0.03362 0.47356 0.97095 0.0
H3305 H 0.06241 0.47308 0.04281 0.0
H3306 H 1.00754 0.40863 0.95579 0.0
H3307 H 0.0331 0.41633 0.94276 0.0
H3308 H 0.01425 0.43701 0.94426 0.0
H3309 H 0.04472 0.40678 0.03988 0.0
H3310 H 0.06152 0.43555 0.05713 0.0
H3311 H 0.07251 0.41699 0.03308 0.0
C3312 C 0.02792 0.80587 0.14906 0.0
C3313 C 0.04924 0.80984 0.16138 0.0
C3314 C 1.00873 0.80103 0.16141 0.0
C3315 C 1.01079 0.80037 0.1868 0.0
C3316 C 0.0323 0.80472 0.19935 0.0
C3317 C 0.05114 0.80924 0.18653 0.0
C3318 C 0.98622 0.79626 0.14718 0.0
C3319 C 0.03545 0.80441 0.22639 0.0
C3320 C 0.9632 0.80736 0.22665 0.0
C3321 C 0.95528 0.7829 0.22959 0.0
C3322 C 0.9808 0.81327 0.21227 0.0
C3323 C 0.99061 0.79426 0.20021 0.0
C3324 C 0.98196 0.76942 0.20225 0.0
C3325 C 0.96458 0.7641 0.21693 0.0
C3326 C 0.9895 0.84002 0.21082 0.0
C3327 C 0.99153 0.74844 0.18952 0.0
H3328 H 0.0262 0.80627 0.12966 0.0
H3329 H 0.06747 0.81238 0.19633 0.0
H3330 H 0.97685 0.77734 0.1477 0.0
H3331 H 0.97654 0.8095 0.15577 0.0
H3332 H 0.98734 0.79799 0.12771 0.0
H3333 H 0.05322 0.80909 0.23372 0.0
H3334 H 0.02691 0.81783 0.23685 0.0
H3335 H 0.02789 0.78577 0.2297 0.0
H3336 H 0.95628 0.82205 0.23646 0.0
H3337 H 0.95843 0.7451 0.21881 0.0
H3338 H 0.99013 0.84201 0.1914 0.0
H3339 H 1.00668 0.8463 0.21995 0.0
H3340 H 0.97918 0.85239 0.21973 0.0
H3341 H 0.99193 0.74897 0.16973 0.0
H3342 H 0.98191 0.73 0.19135 0.0
H3343 H 1.00887 0.75056 0.19743 0.0
C3344 C 0.5278 0.34159 0.11333 0.0
C3345 C 0.51729 0.31656 0.10605 0.0
C3346 C 0.53354 0.35626 0.09575 0.0
C3347 C 0.52821 0.34567 0.07046 0.0
C3348 C 0.51705 0.32057 0.06312 0.0
C3349 C 0.51192 0.30627 0.081 0.0
C3350 C 0.54571 0.38291 0.10421 0.0
C3351 C 0.51067 0.30875 0.03638 0.0
C3352 C 0.52682 0.38966 0.02629 0.0
C3353 C 0.54734 0.39028 0.0169 0.0
C3354 C 0.52017 0.37486 0.04341 0.0
C3355 C 0.53459 0.36067 0.05157 0.0
C3356 C 0.55513 0.36078 0.04169 0.0
C3357 C 0.56119 0.37548 0.02428 0.0
C3358 C 0.49795 0.37484 0.05313 0.0
C3359 C 0.57101 0.34605 0.05014 0.0
H3360 H 0.53206 0.34951 0.13268 0.0
H3361 H 0.50361 0.28694 0.07533 0.0
H3362 H 0.56198 0.38582 0.09666 0.0
H3363 H 0.53618 0.39541 0.09716 0.0
H3364 H 0.54855 0.38836 0.12452 0.0
H3365 H 0.50123 0.28928 0.03381 0.0
H3366 H 0.50043 0.31953 0.02755 0.0
H3367 H 0.52576 0.30895 0.02666 0.0
H3368 H 0.51615 0.4012 0.02055 0.0
H3369 H 0.57721 0.37631 0.01728 0.0
H3370 H 0.50037 0.38262 0.0731 0.0
H3371 H 0.4881 0.35558 0.05058 0.0
H3372 H 0.48824 0.3859 0.04392 0.0
H3373 H 0.57592 0.35236 0.07014 0.0
H3374 H 0.58622 0.34796 0.04046 0.0
H3375 H 0.56282 0.32613 0.04705 0.0
C3376 C 0.05361 0.33721 0.33674 0.0
C3377 C 0.0518 0.33997 0.36204 0.0
C3378 C 0.03617 0.33946 0.3205 0.0
C3379 C 0.01643 0.34435 0.32978 0.0
C3380 C 0.01422 0.34625 0.35515 0.0
C3381 C 0.03196 0.34415 0.37097 0.0
C3382 C 0.03914 0.33748 0.29358 0.0
C3383 C 0.99328 0.3511 0.3657 0.0
C3384 C 0.97777 0.37595 0.29768 0.0
C3385 C 0.96009 0.35596 0.28802 0.0
C3386 C 0.99684 0.37226 0.31024 0.0
C3387 C 0.99813 0.34804 0.31324 0.0
C3388 C 0.9809 0.32764 0.30227 0.0
C3389 C 0.96214 0.33185 0.28968 0.0
C3390 C 0.01503 0.39445 0.32148 0.0
C3391 C 0.98166 0.30154 0.30504 0.0
H3392 H 0.06896 0.33419 0.32971 0.0
H3393 H 0.03039 0.34621 0.39047 0.0
H3394 H 0.02526 0.32352 0.28233 0.0
H3395 H 0.03885 0.35551 0.28819 0.0
H3396 H 0.055 0.33226 0.28909 0.0
H3397 H 0.99388 0.35103 0.38566 0.0
H3398 H 0.99062 0.36937 0.36276 0.0
H3399 H 0.97874 0.33685 0.35614 0.0
H3400 H 0.97624 0.39462 0.29653 0.0
H3401 H 0.94868 0.31627 0.2818 0.0
H3402 H 0.03142 0.39097 0.31683 0.0
H3403 H 0.01539 0.39771 0.34176 0.0
H3404 H 1.01265 0.41155 0.31523 0.0
H3405 H 0.99767 0.29714 0.30008 0.0
H3406 H 0.96796 0.28753 0.29349 0.0
H3407 H 0.98041 0.2999 0.32449 0.0
C3408 C 1.00018 0.67915 0.62004 0.0
C3409 C 1.01212 0.69515 0.6409 0.0
C3410 C 1.004 0.65531 0.61283 0.0
C3411 C 0.02043 0.64771 0.62672 0.0
C3412 C 0.02955 0.6622 0.64997 0.0
C3413 C 0.02538 0.68603 0.65682 0.0
C3414 C 0.99183 0.63929 0.58925 0.0
C3415 C 0.04568 0.65386 0.66633 0.0
C3416 C 0.03122 0.58734 0.59247 0.0
C3417 C 0.04856 0.59642 0.57939 0.0
C3418 C 0.02315 0.60356 0.61014 0.0
C3419 C 0.03218 0.62937 0.61386 0.0
C3420 C 0.05061 0.63823 0.60147 0.0
C3421 C 0.05879 0.62148 0.58468 0.0
C3422 C 1.00402 0.59309 0.6233 0.0
C3423 C 0.06046 0.6656 0.60413 0.0
H3424 H 0.98933 0.68609 0.60822 0.0
H3425 H 0.03435 0.69831 0.67323 0.0
H3426 H 1.00315 0.63043 0.57787 0.0
H3427 H 0.97911 0.62426 0.59376 0.0
H3428 H 0.98331 0.64993 0.57816 0.0
H3429 H 0.04439 0.66118 0.68595 0.0
H3430 H 0.04278 0.63336 0.66322 0.0
H3431 H 0.06284 0.66116 0.66243 0.0
H3432 H 0.02339 0.56777 0.5882 0.0
H3433 H 0.07222 0.62821 0.57436 0.0
H3434 H 0.98831 0.59063 0.61149 0.0
H3435 H 1.00317 0.60542 0.641 0.0
H3436 H 1.00534 0.57454 0.62682 0.0
H3437 H 0.04763 0.67518 0.59817 0.0
H3438 H 0.07463 0.66923 0.59305 0.0
H3439 H 0.06635 0.67396 0.62359 0.0
C3440 C 0.67109 0.80553 0.84029 0.0
C3441 C 0.67439 0.82354 0.86192 0.0
C3442 C 0.68918 0.79934 0.82845 0.0
C3443 C 0.71105 0.81163 0.83834 0.0
C3444 C 0.71442 0.8295 0.86043 0.0
C3445 C 0.69609 0.83516 0.87195 0.0
C3446 C 0.68483 0.78011 0.8051 0.0
C3447 C 0.73744 0.84305 0.87171 0.0
C3448 C 0.76383 0.78974 0.82503 0.0
C3449 C 0.77288 0.80568 0.80989 0.0
C3450 C 0.7426 0.78967 0.83252 0.0
C3451 C 0.73061 0.80676 0.82551 0.0
C3452 C 0.73931 0.82202 0.80914 0.0
C3453 C 0.76046 0.82141 0.80167 0.0
C3454 C 0.73382 0.77261 0.84941 0.0
C3455 C 0.72711 0.84042 0.80109 0.0
H3456 H 0.65436 0.79645 0.83243 0.0
H3457 H 0.69881 0.84907 0.88868 0.0
H3458 H 0.68857 0.78936 0.78939 0.0
H3459 H 0.69577 0.7668 0.80566 0.0
H3460 H 0.66732 0.76965 0.80183 0.0
H3461 H 0.73723 0.85613 0.88914 0.0
H3462 H 0.74747 0.82957 0.87543 0.0
H3463 H 0.74588 0.85365 0.85868 0.0
H3464 H 0.77375 0.7781 0.83189 0.0
H3465 H 0.76782 0.83422 0.79049 0.0
H3466 H 0.71603 0.76402 0.84388 0.0
H3467 H 0.73525 0.78346 0.86837 0.0
H3468 H 0.74315 0.75766 0.84956 0.0
H3469 H 0.70949 0.83151 0.79494 0.0
H3470 H 0.73463 0.84847 0.78595 0.0
H3471 H 0.72745 0.85574 0.81685 0.0
C3472 C 0.50263 0.56035 0.70959 0.0
C3473 C 0.48266 0.56866 0.71407 0.0
C3474 C 0.51167 0.55798 0.68647 0.0
C3475 C 0.50121 0.56412 0.66563 0.0
C3476 C 0.48118 0.57292 0.6697 0.0
C3477 C 0.47225 0.57501 0.69335 0.0
C3478 C 0.53275 0.54847 0.68438 0.0
C3479 C 0.46896 0.58007 0.64879 0.0
C3480 C 0.53908 0.57641 0.61227 0.0
C3481 C 0.53417 0.55385 0.59479 0.0
C3482 C 0.52825 0.58021 0.63436 0.0
C3483 C 0.51149 0.56116 0.64026 0.0
C3484 C 0.50623 0.53843 0.6225 0.0
C3485 C 0.51729 0.53517 0.60048 0.0
C3486 C 0.53508 0.6049 0.65172 0.0
C3487 C 0.48898 0.51706 0.627 0.0
H3488 H 0.51165 0.55531 0.72452 0.0
H3489 H 0.45697 0.58138 0.69542 0.0
H3490 H 0.5298 0.53139 0.67001 0.0
H3491 H 0.54578 0.56241 0.6787 0.0
H3492 H 0.53912 0.54423 0.70188 0.0
H3493 H 0.45428 0.58737 0.65443 0.0
H3494 H 0.48025 0.59435 0.64138 0.0
H3495 H 0.4634 0.5637 0.63369 0.0
H3496 H 0.55158 0.59148 0.60869 0.0
H3497 H 0.51279 0.51755 0.58774 0.0
H3498 H 0.54295 0.60244 0.6693 0.0
H3499 H 0.52027 0.61258 0.65588 0.0
H3500 H 0.54695 0.61856 0.64415 0.0
H3501 H 0.49461 0.51083 0.64368 0.0
H3502 H 0.48563 0.50107 0.61133 0.0
H3503 H 0.47326 0.52309 0.63038 0.0
C3504 C 0.8155 0.19406 0.95594 0.0
C3505 C 0.81117 0.16889 0.95713 0.0
C3506 C 0.80657 0.2022 0.93603 0.0
C3507 C 0.79305 0.18466 0.91669 0.0
C3508 C 0.79021 0.159 0.91673 0.0
C3509 C 0.7992 0.15138 0.93716 0.0
C3510 C 0.81052 0.22975 0.93649 0.0
C3511 C 0.77667 0.13953 0.89617 0.0
C3512 C 0.75207 0.21733 0.89193 0.0
C3513 C 0.76366 0.22714 0.87386 0.0
C3514 C 0.76014 0.2007 0.90423 0.0
C3515 C 0.78028 0.19395 0.89832 0.0
C3516 C 0.79045 0.20133 0.87803 0.0
C3517 C 0.78204 0.21798 0.86606 0.0
C3518 C 0.74847 0.1927 0.9254 0.0
C3519 C 0.81141 0.19365 0.87054 0.0
H3520 H 0.82511 0.20762 0.97116 0.0
H3521 H 0.79598 0.13184 0.93791 0.0
H3522 H 0.81674 0.23396 0.91914 0.0
H3523 H 0.79468 0.23598 0.93816 0.0
H3524 H 0.82267 0.24072 0.95202 0.0
H3525 H 0.77571 0.14621 0.87863 0.0
H3526 H 0.78367 0.12264 0.89331 0.0
H3527 H 0.75963 0.13409 0.90126 0.0
H3528 H 0.73768 0.22409 0.89783 0.0
H3529 H 0.79056 0.22484 0.85143 0.0
H3530 H 0.75697 0.20467 0.94284 0.0
H3531 H 0.74903 0.17326 0.92633 0.0
H3532 H 0.73088 0.19437 0.92396 0.0
H3533 H 0.82564 0.20452 0.88376 0.0
H3534 H 0.81481 0.19692 0.85192 0.0
H3535 H 0.81034 0.17375 0.8709 0.0
C3536 C 0.16326 0.51555 0.19232 0.0
C3537 C 0.15734 0.53225 0.21131 0.0
C3538 C 0.15346 0.5123 0.16803 0.0
C3539 C 0.13773 0.52636 0.16275 0.0
C3540 C 0.13204 0.54346 0.18183 0.0
C3541 C 0.14181 0.5461 0.20572 0.0
C3542 C 0.1597 0.49373 0.1481 0.0
C3543 C 0.11562 0.55915 0.17707 0.0
C3544 C 0.12376 0.54259 0.10149 0.0
C3545 C 0.10197 0.52873 0.09513 0.0
C3546 C 0.13643 0.54043 0.12247 0.0
C3547 C 0.12713 0.52394 0.13743 0.0
C3548 C 0.10577 0.50857 0.13009 0.0
C3549 C 0.09344 0.51116 0.10903 0.0
C3550 C 0.15906 0.55729 0.12965 0.0
C3551 C 0.09524 0.49066 0.14541 0.0
H3552 H 0.17522 0.50479 0.19648 0.0
H3553 H 0.13734 0.5594 0.22011 0.0
H3554 H 0.14475 0.47945 0.13971 0.0
H3555 H 0.16635 0.50304 0.13332 0.0
H3556 H 0.17228 0.48438 0.15511 0.0
H3557 H 0.11318 0.57176 0.19397 0.0
H3558 H 0.1214 0.57054 0.16342 0.0
H3559 H 0.09931 0.54708 0.16928 0.0
H3560 H 0.13066 0.55599 0.09069 0.0
H3561 H 0.07684 0.4999 0.10391 0.0
H3562 H 0.1712 0.54696 0.13573 0.0
H3563 H 0.15813 0.57223 0.1453 0.0
H3564 H 0.16531 0.56603 0.11432 0.0
H3565 H 0.10736 0.48045 0.15182 0.0
H3566 H 0.08057 0.47707 0.13513 0.0
H3567 H 0.08976 0.50113 0.16189 0.0
C3568 C 0.81272 0.869 0.45959 0.0
C3569 C 0.82953 0.86909 0.47765 0.0
C3570 C 0.81323 0.85785 0.43503 0.0
C3571 C 0.83153 0.84751 0.42809 0.0
C3572 C 0.84855 0.84747 0.44638 0.0
C3573 C 0.8471 0.85782 0.47109 0.0
C3574 C 0.79434 0.85767 0.41639 0.0
C3575 C 0.8687 0.83749 0.4397 0.0
C3576 C 0.82251 0.80772 0.36365 0.0
C3577 C 0.8285 0.82594 0.34965 0.0
C3578 C 0.8247 0.81403 0.3895 0.0
C3579 C 0.8335 0.839 0.40144 0.0
C3580 C 0.84135 0.85685 0.38721 0.0
C3581 C 0.83808 0.85028 0.36155 0.0
C3582 C 0.81563 0.79445 0.40374 0.0
C3583 C 0.85183 0.88337 0.39899 0.0
H3584 H 0.79905 0.87754 0.46476 0.0
H3585 H 0.86015 0.85803 0.4851 0.0
H3586 H 0.80018 0.87035 0.40386 0.0
H3587 H 0.78836 0.83881 0.40505 0.0
H3588 H 0.78019 0.86365 0.42514 0.0
H3589 H 0.88004 0.83787 0.45611 0.0
H3590 H 0.86366 0.81817 0.42925 0.0
H3591 H 0.87794 0.84872 0.42763 0.0
H3592 H 0.81454 0.78904 0.35442 0.0
H3593 H 0.84249 0.86441 0.35066 0.0
H3594 H 0.79907 0.79683 0.40889 0.0
H3595 H 0.8264 0.79624 0.42094 0.0
H3596 H 0.81381 0.77546 0.39275 0.0
H3597 H 0.83881 0.89306 0.40577 0.0
H3598 H 0.86061 0.8936 0.38586 0.0
H3599 H 0.86379 0.88411 0.41496 0.0
C3600 C 0.48503 0.55681 0.85063 0.0
C3601 C 0.47486 0.57715 0.84954 0.0
C3602 C 0.49568 0.5529 0.873 0.0
C3603 C 0.49789 0.57032 0.89565 0.0
C3604 C 0.48827 0.59133 0.89443 0.0
C3605 C 0.47663 0.59406 0.8721 0.0
C3606 C 0.50449 0.52967 0.87225 0.0
C3607 C 0.49076 0.6116 0.91679 0.0
C3608 C 0.50715 0.55447 0.9616 0.0
C3609 C 0.5304 0.56047 0.968 0.0
C3610 C 0.49682 0.55658 0.93842 0.0
C3611 C 0.50946 0.56638 0.92042 0.0
C3612 C 0.53308 0.57248 0.92673 0.0
C3613 C 0.54307 0.56915 0.94979 0.0
C3614 C 0.47202 0.54792 0.93319 0.0
C3615 C 0.54817 0.58289 0.90922 0.0
H3616 H 0.48424 0.54336 0.83386 0.0
H3617 H 0.46946 0.61016 0.87219 0.0
H3618 H 0.5228 0.53438 0.87291 0.0
H3619 H 0.5002 0.52123 0.88837 0.0
H3620 H 0.49789 0.51571 0.85527 0.0
H3621 H 0.4856 0.62831 0.91244 0.0
H3622 H 0.48049 0.60481 0.93078 0.0
H3623 H 0.50827 0.61698 0.92506 0.0
H3624 H 0.49673 0.54781 0.97497 0.0
H3625 H 0.56093 0.57427 0.95386 0.0
H3626 H 0.46763 0.53606 0.91462 0.0
H3627 H 0.46428 0.56411 0.93353 0.0
H3628 H 0.46478 0.53728 0.94684 0.0
H3629 H 0.55127 0.56739 0.89548 0.0
H3630 H 0.56443 0.59351 0.91888 0.0
H3631 H 0.54059 0.59516 0.8993 0.0
C3632 C 0.83785 0.22462 0.09964 0.0
C3633 C 0.82172 0.20432 0.08715 0.0
C3634 C 0.83628 0.23509 0.1241 0.0
C3635 C 0.81752 0.22578 0.13565 0.0
C3636 C 0.80145 0.20487 0.12315 0.0
C3637 C 0.804 0.19407 0.09912 0.0
C3638 C 0.85421 0.25671 0.13712 0.0
C3639 C 0.78089 0.19488 0.13454 0.0
C3640 C 0.81625 0.24237 0.20437 0.0
C3641 C 0.80633 0.26285 0.20652 0.0
C3642 C 0.82052 0.23046 0.18145 0.0
C3643 C 0.81391 0.23874 0.16017 0.0
C3644 C 0.80349 0.2592 0.16225 0.0
C3645 C 0.80026 0.27139 0.18555 0.0
C3646 C 0.83271 0.20958 0.18011 0.0
C3647 C 0.79575 0.26821 0.13991 0.0
H3648 H 0.85144 0.23252 0.09014 0.0
H3649 H 0.79135 0.17861 0.08911 0.0
H3650 H 0.84827 0.27413 0.13759 0.0
H3651 H 0.85831 0.25498 0.15634 0.0
H3652 H 0.86956 0.25824 0.1277 0.0
H3653 H 0.77028 0.17811 0.12256 0.0
H3654 H 0.78545 0.19016 0.15242 0.0
H3655 H 0.771 0.20934 0.13816 0.0
H3656 H 0.82156 0.23631 0.22074 0.0
H3657 H 0.79291 0.28752 0.18742 0.0
H3658 H 0.8485 0.21467 0.172 0.0
H3659 H 0.82277 0.19256 0.16798 0.0
H3660 H 0.83652 0.20529 0.19843 0.0
H3661 H 0.81022 0.27556 0.1306 0.0
H3662 H 0.78641 0.28305 0.14461 0.0
H3663 H 0.78499 0.25258 0.12662 0.0
C3664 C 0.2028 0.55409 0.36046 0.0
C3665 C 0.18753 0.54681 0.33941 0.0
C3666 C 0.19617 0.56341 0.38336 0.0
C3667 C 0.17397 0.56604 0.38485 0.0
C3668 C 0.15839 0.55759 0.36373 0.0
C3669 C 0.16533 0.54778 0.3415 0.0
C3670 C 0.21318 0.57084 0.40546 0.0
C3671 C 0.13442 0.55977 0.36411 0.0
C3672 C 0.13521 0.57716 0.43105 0.0
C3673 C 0.13393 0.60141 0.42884 0.0
C3674 C 0.15195 0.56639 0.42085 0.0
C3675 C 0.16676 0.57972 0.40719 0.0
C3676 C 0.16818 0.60545 0.40917 0.0
C3677 C 0.15182 0.61609 0.42028 0.0
C3678 C 0.15176 0.53974 0.42189 0.0
C3679 C 0.18501 0.62095 0.39662 0.0
H3680 H 0.21996 0.55298 0.35902 0.0
H3681 H 0.15331 0.54164 0.32544 0.0
H3682 H 0.22465 0.58844 0.40434 0.0
H3683 H 0.20564 0.57334 0.42304 0.0
H3684 H 0.22333 0.55663 0.40551 0.0
H3685 H 0.12508 0.55415 0.34557 0.0
H3686 H 0.12599 0.54776 0.37601 0.0
H3687 H 0.13341 0.57915 0.37162 0.0
H3688 H 0.12216 0.56568 0.43856 0.0
H3689 H 0.15203 0.63544 0.42033 0.0
H3690 H 0.16757 0.5346 0.41712 0.0
H3691 H 0.13792 0.52744 0.40903 0.0
H3692 H 0.14889 0.53653 0.44062 0.0
H3693 H 0.20182 0.61816 0.40154 0.0
H3694 H 0.18516 0.64104 0.40172 0.0
H3695 H 0.18122 0.61509 0.37642 0.0
C3696 C 0.83069 0.84126 0.61199 0.0
C3697 C 0.8307 0.86507 0.60729 0.0
C3698 C 0.82916 0.83603 0.63565 0.0
C3699 C 0.82774 0.85504 0.65554 0.0
C3700 C 0.82752 0.87912 0.651 0.0
C3701 C 0.82877 0.88377 0.62693 0.0
C3702 C 0.8293 0.81004 0.63937 0.0
C3703 C 0.82576 0.90001 0.67137 0.0
C3704 C 0.80553 0.83062 0.71097 0.0
C3705 C 0.82511 0.83094 0.72532 0.0
C3706 C 0.80608 0.83975 0.68897 0.0
C3707 C 0.82671 0.84929 0.68086 0.0
C3708 C 0.8465 0.85064 0.69583 0.0
C3709 C 0.84548 0.84145 0.71779 0.0
C3710 C 0.78456 0.83846 0.67397 0.0
C3711 C 0.86884 0.86118 0.68828 0.0
H3712 H 0.83197 0.82649 0.59706 0.0
H3713 H 0.8287 0.90221 0.62363 0.0
H3714 H 0.84375 0.81036 0.65238 0.0
H3715 H 0.81414 0.80253 0.64755 0.0
H3716 H 0.83013 0.79722 0.62196 0.0
H3717 H 0.83225 0.91839 0.66675 0.0
H3718 H 0.80804 0.89872 0.67423 0.0
H3719 H 0.8348 0.89893 0.68883 0.0
H3720 H 0.78968 0.8229 0.71675 0.0
H3721 H 0.86073 0.84188 0.72871 0.0
H3722 H 0.78363 0.82579 0.65602 0.0
H3723 H 0.78384 0.85704 0.6702 0.0
H3724 H 0.76987 0.83176 0.68335 0.0
H3725 H 0.88261 0.86214 0.70247 0.0
H3726 H 0.86927 0.88009 0.68472 0.0
H3727 H 0.87168 0.84954 0.67096 0.0
C3728 C 0.77079 0.49095 0.54891 0.0
C3729 C 0.79337 0.5002 0.54757 0.0
C3730 C 0.75643 0.507 0.55493 0.0
C3731 C 0.7648 0.53297 0.5595 0.0
C3732 C 0.78765 0.54244 0.55861 0.0
C3733 C 0.8017 0.52593 0.55276 0.0
C3734 C 0.73219 0.49615 0.55591 0.0
C3735 C 0.79715 0.57 0.5632 0.0
C3736 C 0.72151 0.56979 0.54778 0.0
C3737 C 0.71589 0.57733 0.5715 0.0
C3738 C 0.73815 0.55633 0.54376 0.0
C3739 C 0.74929 0.55003 0.56394 0.0
C3740 C 0.74436 0.55855 0.58805 0.0
C3741 C 0.72776 0.57223 0.59156 0.0
C3742 C 0.7431 0.54792 0.51779 0.0
C3743 C 0.7558 0.55211 0.61001 0.0
H3744 H 0.76426 0.47109 0.54508 0.0
H3745 H 0.81913 0.53321 0.55174 0.0
H3746 H 0.72691 0.50369 0.57385 0.0
H3747 H 0.72203 0.5015 0.54147 0.0
H3748 H 0.72856 0.4756 0.5532 0.0
H3749 H 0.81545 0.57438 0.56306 0.0
H3750 H 0.78969 0.5782 0.54888 0.0
H3751 H 0.79296 0.57906 0.58113 0.0
H3752 H 0.71247 0.57394 0.53228 0.0
H3753 H 0.7233 0.57789 0.60989 0.0
H3754 H 0.73792 0.52744 0.51255 0.0
H3755 H 0.76118 0.55298 0.51641 0.0
H3756 H 0.73437 0.55616 0.5044 0.0
H3757 H 0.75081 0.53187 0.60936 0.0
H3758 H 0.75159 0.56202 0.62761 0.0
H3759 H 0.77404 0.55669 0.60968 0.0
C3760 C 0.2333 0.14577 0.51331 0.0
C3761 C 0.23412 0.16701 0.50306 0.0
C3762 C 0.21294 0.13 0.51511 0.0
C3763 C 0.19287 0.13541 0.50625 0.0
C3764 C 0.1936 0.15631 0.4951 0.0
C3765 C 0.21416 0.17186 0.49372 0.0
C3766 C 0.21288 0.10797 0.5272 0.0
C3767 C 0.17262 0.1626 0.48515 0.0
C3768 C 0.1402 0.08454 0.49459 0.0
C3769 C 0.12954 0.09052 0.51566 0.0
C3770 C 0.16078 0.09888 0.49129 0.0
C3771 C 0.17106 0.1198 0.50949 0.0
C3772 C 0.16037 0.12601 0.53076 0.0
C3773 C 0.13973 0.11141 0.53351 0.0
C3774 C 0.17146 0.0917 0.46825 0.0
C3775 C 0.17076 0.14811 0.55065 0.0
H3776 H 0.24854 0.14183 0.52067 0.0
H3777 H 0.21453 0.1881 0.48564 0.0
H3778 H 0.20435 0.11023 0.54411 0.0
H3779 H 0.20355 0.09075 0.51483 0.0
H3780 H 0.2299 0.10564 0.53215 0.0
H3781 H 0.17605 0.17867 0.4758 0.0
H3782 H 0.16253 0.14642 0.47196 0.0
H3783 H 0.16245 0.16704 0.50034 0.0
H3784 H 0.13235 0.06876 0.48045 0.0
H3785 H 0.13165 0.11637 0.54977 0.0
H3786 H 0.18795 0.08795 0.47306 0.0
H3787 H 0.17415 0.10725 0.4582 0.0
H3788 H 0.16125 0.07499 0.45579 0.0
H3789 H 0.18741 0.1463 0.55769 0.0
H3790 H 0.16055 0.15018 0.56627 0.0
H3791 H 0.17306 0.16531 0.54304 0.0
C3792 C 0.24208 0.95843 0.77304 0.0
C3793 C 0.21876 0.95503 0.7741 0.0
C3794 C 0.25428 0.93899 0.77373 0.0
C3795 C 0.24365 0.91425 0.77546 0.0
C3796 C 0.22006 0.91058 0.77625 0.0
C3797 C 0.20827 0.93044 0.77571 0.0
C3798 C 0.279 0.94514 0.7728 0.0
C3799 C 0.20702 0.88529 0.77783 0.0
C3800 C 0.27278 0.85644 0.7579 0.0
C3801 C 0.28132 0.85204 0.78064 0.0
C3802 C 0.26126 0.87628 0.75591 0.0
C3803 C 0.25703 0.89287 0.77707 0.0
C3804 C 0.26566 0.88844 0.79999 0.0
C3805 C 0.27703 0.86851 0.80142 0.0
C3806 C 0.25294 0.87898 0.73077 0.0
C3807 C 0.26238 0.90457 0.82355 0.0
H3808 H 0.25115 0.97676 0.77193 0.0
H3809 H 0.19053 0.92655 0.77668 0.0
H3810 H 0.2875 0.94183 0.78966 0.0
H3811 H 0.28358 0.93276 0.75701 0.0
H3812 H 0.28523 0.96469 0.77113 0.0
H3813 H 0.1889 0.8844 0.77688 0.0
H3814 H 0.21032 0.87115 0.7627 0.0
H3815 H 0.21243 0.88033 0.79532 0.0
H3816 H 0.27456 0.84382 0.74138 0.0
H3817 H 0.28224 0.86543 0.81934 0.0
H3818 H 0.25845 0.89842 0.72844 0.0
H3819 H 0.23455 0.87455 0.72869 0.0
H3820 H 0.25883 0.86656 0.71598 0.0
H3821 H 0.26873 0.92439 0.82299 0.0
H3822 H 0.27088 0.90019 0.83987 0.0
H3823 H 0.24441 0.90207 0.82567 0.0
C3824 C 0.41475 0.99446 1.00115 0.0
C3825 C 0.41295 0.97729 0.01669 0.0
C3826 C 0.43563 1.0063 0.99583 0.0
C3827 C 0.45505 1.0016 1.00722 0.0
C3828 C 0.45318 0.98516 0.02394 0.0
C3829 C 0.43212 0.97279 0.02805 0.0
C3830 C 0.43677 0.02335 0.97766 0.0
C3831 C 0.47343 0.9802 0.03709 0.0
C3832 C 0.51045 1.00726 0.98105 0.0
C3833 C 0.52243 0.02965 0.99525 0.0
C3834 C 0.48787 0.99891 0.98334 0.0
C3835 C 0.47741 1.01277 1.00106 0.0
C3836 C 0.48929 0.03593 0.01473 0.0
C3837 C 0.51162 0.04418 0.01149 0.0
C3838 C 0.47546 0.97473 0.96755 0.0
C3839 C 0.47891 0.05123 0.03394 0.0
H3840 H 0.39981 0.99767 0.99221 0.0
H3841 H 0.4306 0.95944 0.04006 0.0
H3842 H 0.44151 0.04283 0.98772 0.0
H3843 H 0.44946 0.02023 0.96498 0.0
H3844 H 0.42059 0.02085 0.96665 0.0
H3845 H 0.46909 0.9687 0.0511 0.0
H3846 H 0.48273 0.97041 0.02365 0.0
H3847 H 0.48468 0.99794 0.04624 0.0
H3848 H 0.51885 0.99609 0.96848 0.0
H3849 H 0.52094 0.06142 0.02269 0.0
H3850 H 0.45931 0.9769 0.95938 0.0
H3851 H 0.47194 0.96041 0.979 0.0
H3852 H 0.48502 0.96797 0.95254 0.0
H3853 H 0.46326 0.05465 0.02588 0.0
H3854 H 0.49009 0.0694 0.04209 0.0
H3855 H 0.47475 0.04089 0.04885 0.0
C3856 C 0.92199 0.63285 0.78706 0.0
C3857 C 0.91436 0.60703 0.78176 0.0
C3858 C 0.91056 0.64835 0.77657 0.0
C3859 C 0.89116 0.63779 0.76023 0.0
C3860 C 0.88344 0.61171 0.75475 0.0
C3861 C 0.8951 0.59667 0.76561 0.0
C3862 C 0.9194 0.676 0.78283 0.0
C3863 C 0.86284 0.59967 0.7374 0.0
C3864 C 0.84839 0.67529 0.74763 0.0
C3865 C 0.85273 0.67995 0.72428 0.0
C3866 C 0.86125 0.66233 0.75993 0.0
C3867 C 0.87888 0.65382 0.74864 0.0
C3868 C 0.88391 0.65937 0.72554 0.0
C3869 C 0.87073 0.67227 0.71362 0.0
C3870 C 0.8555 0.65704 0.78466 0.0
C3871 C 0.90279 0.65105 0.71305 0.0
H3872 H 0.93686 0.64101 0.79951 0.0
H3873 H 0.8891 0.57673 0.76141 0.0
H3874 H 0.92588 0.68244 0.76645 0.0
H3875 H 0.90594 0.68565 0.78805 0.0
H3876 H 0.93299 0.68149 0.79807 0.0
H3877 H 0.85899 0.57915 0.73512 0.0
H3878 H 0.84844 0.60672 0.74429 0.0
H3879 H 0.86494 0.60459 0.71913 0.0
H3880 H 0.83444 0.68102 0.75595 0.0
H3881 H 0.87448 0.67626 0.69582 0.0
H3882 H 0.87039 0.66329 0.79823 0.0
H3883 H 0.84979 0.63676 0.78332 0.0
H3884 H 0.84227 0.66632 0.79166 0.0
H3885 H 0.91837 0.65733 0.72556 0.0
H3886 H 0.90543 0.65826 0.6959 0.0
H3887 H 0.89934 0.6305 0.7085 0.0
C3888 C 0.84782 0.63101 0.03598 0.0
C3889 C 0.85331 0.65627 0.03492 0.0
C3890 C 0.86418 0.61814 0.0415 0.0
C3891 C 0.88669 0.63085 0.04641 0.0
C3892 C 0.89236 0.65641 0.04549 0.0
C3893 C 0.87564 0.66877 0.03961 0.0
C3894 C 0.85736 0.59088 0.04206 0.0
C3895 C 0.91609 0.67072 0.05088 0.0
C3896 C 0.9239 0.60119 0.0836 0.0
C3897 C 0.93452 0.58873 0.06536 0.0
C3898 C 0.90888 0.61555 0.07778 0.0
C3899 C 0.90408 0.61738 0.05304 0.0
C3900 C 0.9151 0.60528 0.03458 0.0
C3901 C 0.93025 0.59122 0.04097 0.0
C3902 C 0.8978 0.6284 0.0981 0.0
C3903 C 0.91038 0.60652 1.00796 0.0
H3904 H 0.83065 0.62112 0.03225 0.0
H3905 H 0.88005 0.68828 0.03885 0.0
H3906 H 0.86639 0.58013 0.02908 0.0
H3907 H 0.86187 0.58769 0.06064 0.0
H3908 H 0.83928 0.58354 0.03716 0.0
H3909 H 0.91782 0.69045 0.04931 0.0
H3910 H 0.92261 0.67 0.0697 0.0
H3911 H 0.92658 0.66213 0.03802 0.0
H3912 H 0.92736 0.59968 0.10253 0.0
H3913 H 0.93825 0.58152 0.02674 0.0
H3914 H 0.87969 0.62056 0.09539 0.0
H3915 H 0.90024 0.64843 0.09763 0.0
H3916 H 0.9043 0.6264 0.11652 0.0
H3917 H 0.89285 0.5974 1.00148 0.0
H3918 H 0.92124 0.59732 0.99604 0.0
H3919 H 0.91269 0.6261 1.0058 0.0
C3920 C 0.21496 0.12039 0.80796 0.0
C3921 C 0.21674 0.09837 0.7921 0.0
C3922 C 0.22865 0.14397 0.80761 0.0
C3923 C 0.24461 0.14661 0.79044 0.0
C3924 C 0.24675 0.12442 0.77452 0.0
C3925 C 0.23314 0.10083 0.7757 0.0
C3926 C 0.22566 0.16631 0.82552 0.0
C3927 C 0.26293 0.12572 0.75547 0.0
C3928 C 0.26131 0.2122 0.77386 0.0
C3929 C 0.2824 0.22252 0.78696 0.0
C3930 C 0.24941 0.18772 0.77427 0.0
C3931 C 0.25814 0.17255 0.78864 0.0
C3932 C 0.27937 0.18291 0.80207 0.0
C3933 C 0.29114 0.20732 0.80092 0.0
C3934 C 0.22726 0.17807 0.75915 0.0
C3935 C 0.28957 0.16837 0.81823 0.0
H3936 H 0.2025 0.11924 0.82076 0.0
H3937 H 0.23471 0.08443 0.76294 0.0
H3938 H 0.24187 0.17656 0.83555 0.0
H3939 H 0.21913 0.17916 0.81545 0.0
H3940 H 0.21405 0.16121 0.83909 0.0
H3941 H 0.26346 0.10709 0.74502 0.0
H3942 H 0.25822 0.13704 0.74239 0.0
H3943 H 0.27982 0.13501 0.76428 0.0
H3944 H 0.25401 0.22324 0.76292 0.0
H3945 H 0.30709 0.21474 0.81155 0.0
H3946 H 0.21398 0.17484 0.7714 0.0
H3947 H 0.22708 0.16001 0.7471 0.0
H3948 H 0.22329 0.19112 0.74757 0.0
H3949 H 0.2788 0.16464 0.8329 0.0
H3950 H 0.30638 0.17835 0.82688 0.0
H3951 H 0.29074 0.15017 0.80739 0.0
C3952 C 0.42523 0.96188 0.33213 0.0
C3953 C 0.43429 0.96799 0.31112 0.0
C3954 C 0.40927 0.93983 0.33067 0.0
C3955 C 0.40268 0.92342 0.3077 0.0
C3956 C 0.41226 0.92953 0.28653 0.0
C3957 C 0.42763 0.95198 0.28845 0.0
C3958 C 0.39922 0.93476 0.35366 0.0
C3959 C 0.40671 0.91209 0.2619 0.0
C3960 C 0.38063 0.85461 0.30225 0.0
C3961 C 0.35889 0.85168 0.29174 0.0
C3962 C 0.39466 0.87812 0.30917 0.0
C3963 C 0.3867 0.89926 0.30548 0.0
C3964 C 0.36426 0.8965 0.29629 0.0
C3965 C 0.35069 0.87261 0.28901 0.0
C3966 C 0.41846 0.88011 0.31874 0.0
C3967 C 0.3549 0.91872 0.29323 0.0
H3968 H 0.43033 0.97455 0.3496 0.0
H3969 H 0.43488 0.95682 0.27228 0.0
H3970 H 0.38401 0.94229 0.35472 0.0
H3971 H 0.39466 0.91468 0.35378 0.0
H3972 H 0.41069 0.94411 0.37034 0.0
H3973 H 0.41646 0.91911 0.24758 0.0
H3974 H 0.41 0.89369 0.26351 0.0
H3975 H 0.38885 0.90929 0.25569 0.0
H3976 H 0.38702 0.83829 0.30396 0.0
H3977 H 0.33401 0.87023 0.28033 0.0
H3978 H 0.42289 0.89383 0.33621 0.0
H3979 H 0.42958 0.88674 0.30533 0.0
H3980 H 0.42163 0.86208 0.32194 0.0
H3981 H 0.35875 0.93284 0.31049 0.0
H3982 H 0.33667 0.9137 0.28832 0.0
H3983 H 0.36271 0.92737 0.27861 0.0
C3984 C 0.59088 0.37973 0.58154 0.0
C3985 C 0.60548 0.38271 0.60283 0.0
C3986 C 0.58666 0.40035 0.57179 0.0
C3987 C 0.59787 0.42501 0.58281 0.0
C3988 C 0.61312 0.428 0.60397 0.0
C3989 C 0.61624 0.40712 0.61397 0.0
C3990 C 0.56947 0.39569 0.55012 0.0
C3991 C 0.62643 0.45336 0.61602 0.0
C3992 C 0.60212 0.47481 0.54194 0.0
C3993 C 0.58756 0.4897 0.55116 0.0
C3994 C 0.60574 0.45427 0.55211 0.0
C3995 C 0.59412 0.44741 0.57191 0.0
C3996 C 0.57931 0.46238 0.58133 0.0
C3997 C 0.5769 0.48368 0.57158 0.0
C3998 C 0.62263 0.44029 0.54199 0.0
C3999 C 0.56576 0.45585 0.6017 0.0
H4000 H 0.58201 0.36117 0.57294 0.0
H4001 H 0.62747 0.4099 0.63046 0.0
H4002 H 0.55549 0.40429 0.55575 0.0
H4003 H 0.5765 0.40442 0.53518 0.0
H4004 H 0.56289 0.37561 0.5428 0.0
H4005 H 0.63942 0.45246 0.63033 0.0
H4006 H 0.63448 0.46298 0.60209 0.0
H4007 H 0.6153 0.46476 0.62469 0.0
H4008 H 0.61119 0.4796 0.52684 0.0
H4009 H 0.56636 0.49546 0.57977 0.0
H4010 H 0.61446 0.42081 0.53388 0.0
H4011 H 0.63513 0.43988 0.55703 0.0
H4012 H 0.63134 0.4487 0.52769 0.0
H4013 H 0.55826 0.43569 0.598 0.0
H4014 H 0.55233 0.46627 0.60401 0.0
H4015 H 0.57662 0.46025 0.61922 0.0
C4016 C 0.46511 0.7789 0.38362 0.0
C4017 C 0.46211 0.77434 0.40736 0.0
C4018 C 0.44711 0.78081 0.36741 0.0
C4019 C 0.42527 0.77768 0.37472 0.0
C4020 C 0.4221 0.77234 0.39837 0.0
C4021 C 0.44038 0.77098 0.41431 0.0
C4022 C 0.45159 0.78689 0.34264 0.0
C4023 C 0.39929 0.76835 0.40708 0.0
C4024 C 0.38081 0.80616 0.3454 0.0
C4025 C 0.3679 0.78591 0.32846 0.0
C4026 C 0.39962 0.80388 0.35999 0.0
C4027 C 0.40584 0.78063 0.35811 0.0
C4028 C 0.39291 0.76013 0.34092 0.0
C4029 C 0.37438 0.76305 0.32628 0.0
C4030 C 0.41294 0.82653 0.37744 0.0
C4031 C 0.39846 0.7349 0.33817 0.0
H4032 H 0.4817 0.7818 0.37794 0.0
H4033 H 0.43759 0.76737 0.43246 0.0
H4034 H 0.44098 0.77266 0.3279 0.0
H4035 H 0.4473 0.80491 0.34136 0.0
H4036 H 0.46921 0.78801 0.33923 0.0
H4037 H 0.39926 0.76304 0.42536 0.0
H4038 H 0.39291 0.78557 0.40822 0.0
H4039 H 0.38763 0.7536 0.39373 0.0
H4040 H 0.37658 0.82409 0.34691 0.0
H4041 H 0.36473 0.74721 0.31326 0.0
H4042 H 0.43058 0.8296 0.37376 0.0
H4043 H 0.41231 0.82362 0.39659 0.0
H4044 H 0.40676 0.84351 0.37592 0.0
H4045 H 0.41582 0.73602 0.3338 0.0
H4046 H 0.38732 0.72098 0.32355 0.0
H4047 H 0.39714 0.72831 0.35577 0.0
C4048 C 0.11649 0.73305 0.07989 0.0
C4049 C 0.10127 0.74561 0.09145 0.0
C4050 C 0.1125 0.70689 0.07408 0.0
C4051 C 0.09239 0.69235 0.0791 0.0
C4052 C 0.07675 0.7049 0.09045 0.0
C4053 C 0.08149 0.7312 0.09681 0.0
C4054 C 0.13008 0.69481 0.0628 0.0
C4055 C 0.05487 0.69048 0.09575 0.0
C4056 C 0.07457 0.62361 0.04589 0.0
C4057 C 0.07924 0.61099 0.06456 0.0
C4058 C 0.07874 0.64992 0.05023 0.0
C4059 C 0.08827 0.66417 0.07366 0.0
C4060 C 0.09384 0.65135 0.09213 0.0
C4061 C 0.08889 0.62516 0.08753 0.0
C4062 C 0.07218 0.66245 0.02997 0.0
C4063 C 0.10488 0.66531 0.117 0.0
H4064 H 0.13191 0.74378 0.07573 0.0
H4065 H 0.06948 0.74051 0.10553 0.0
H4066 H 0.13423 0.68126 0.07364 0.0
H4067 H 0.1237 0.6845 0.04398 0.0
H4068 H 0.14551 0.70849 0.06176 0.0
H4069 H 0.04384 0.70278 0.10307 0.0
H4070 H 0.04624 0.67775 0.07877 0.0
H4071 H 0.05771 0.67889 0.10932 0.0
H4072 H 0.06678 0.61291 0.02822 0.0
H4073 H 0.09247 0.61562 0.10211 0.0
H4074 H 0.08689 0.67513 0.02552 0.0
H4075 H 0.06015 0.67387 0.03615 0.0
H4076 H 0.06462 0.64892 0.01299 0.0
H4077 H 0.12005 0.67883 0.1149 0.0
H4078 H 0.10951 0.65277 0.12883 0.0
H4079 H 0.09358 0.67596 0.12649 0.0
C4080 C 0.10635 0.28886 0.9149 0.0
C4081 C 0.08528 0.27726 0.90268 0.0
C4082 C 0.12532 0.29226 0.90203 0.0
C4083 C 0.12332 0.2839 0.87623 0.0
C4084 C 0.10221 0.27141 0.86397 0.0
C4085 C 0.08354 0.26828 0.87727 0.0
C4086 C 0.14739 0.30562 0.91595 0.0
C4087 C 0.09917 0.26211 0.83656 0.0
C4088 C 0.16362 0.31671 0.8372 0.0
C4089 C 0.17733 0.29987 0.83102 0.0
C4090 C 0.14651 0.31202 0.85232 0.0
C4091 C 0.14279 0.28987 0.86176 0.0
C4092 C 0.15707 0.27318 0.85639 0.0
C4093 C 0.17417 0.27839 0.84117 0.0
C4094 C 0.13197 0.33053 0.85762 0.0
C4095 C 0.15383 0.2494 0.86605 0.0
H4096 H 0.10796 0.29592 0.93449 0.0
H4097 H 0.06742 0.25928 0.86758 0.0
H4098 H 0.16019 0.29473 0.91151 0.0
H4099 H 0.15282 0.3237 0.91033 0.0
H4100 H 0.14664 0.30907 0.93612 0.0
H4101 H 0.0821 0.25128 0.82997 0.0
H4102 H 0.10266 0.27806 0.82709 0.0
H4103 H 0.11108 0.25028 0.83117 0.0
H4104 H 0.16609 0.33358 0.82986 0.0
H4105 H 0.18451 0.26517 0.83646 0.0
H4106 H 0.13175 0.33624 0.87771 0.0
H4107 H 0.11467 0.32184 0.84975 0.0
H4108 H 0.1376 0.34737 0.84987 0.0
H4109 H 0.15324 0.25331 0.88621 0.0
H4110 H 0.16723 0.23928 0.86183 0.0
H4111 H 0.13773 0.23716 0.8578 0.0
C4112 C 0.62203 0.77399 0.93223 0.0
C4113 C 0.62273 0.7975 0.94641 0.0
C4114 C 0.62179 0.75331 0.94336 0.0
C4115 C 0.62239 0.75631 0.96922 0.0
C4116 C 0.62415 0.7802 0.98362 0.0
C4117 C 0.62426 0.80042 0.97207 0.0
C4118 C 0.61993 0.72812 0.92742 0.0
C4119 C 0.62509 0.7843 0.01127 0.0
C4120 C 0.59603 0.70517 1.00109 0.0
C4121 C 0.61463 0.69827 0.01124 0.0
C4122 C 0.59828 0.72302 0.98619 0.0
C4123 C 0.61968 0.73451 0.98143 0.0
C4124 C 0.63848 0.72701 0.99079 0.0
C4125 C 0.63573 0.70899 1.00555 0.0
C4126 C 0.57779 0.73053 0.97661 0.0
C4127 C 0.66157 0.73876 0.98606 0.0
H4128 H 0.62086 0.77155 0.91241 0.0
H4129 H 0.62513 0.81855 0.98325 0.0
H4130 H 0.63256 0.71877 0.93425 0.0
H4131 H 0.60342 0.7163 0.92824 0.0
H4132 H 0.62198 0.72925 0.90796 0.0
H4133 H 0.62781 0.80424 0.01986 0.0
H4134 H 0.60932 0.77441 0.01666 0.0
H4135 H 0.63861 0.77661 0.01883 0.0
H4136 H 0.57967 0.69744 1.00563 0.0
H4137 H 0.65022 0.70368 0.01304 0.0
H4138 H 0.57774 0.73039 0.95666 0.0
H4139 H 0.57778 0.74972 0.9859 0.0
H4140 H 0.5623 0.7181 0.97976 0.0
H4141 H 0.6626 0.73731 0.96607 0.0
H4142 H 0.67437 0.73004 0.99364 0.0
H4143 H 0.66546 0.75878 0.9945 0.0
C4144 C 0.09111 0.79666 0.70497 0.0
C4145 C 0.08845 0.78691 0.6797 0.0
C4146 C 0.11054 0.79687 0.71953 0.0
C4147 C 0.12754 0.78665 0.70864 0.0
C4148 C 0.12555 0.77827 0.68292 0.0
C4149 C 0.10612 0.77869 0.66873 0.0
C4150 C 0.11225 0.80655 0.74682 0.0
C4151 C 0.1432 0.76706 0.6706 0.0
C4152 C 0.18296 0.79352 0.74606 0.0
C4153 C 0.17929 0.77162 0.75538 0.0
C4154 C 0.16629 0.79883 0.73079 0.0
C4155 C 0.14574 0.78156 0.72443 0.0
C4156 C 0.14227 0.75914 0.73339 0.0
C4157 C 0.15901 0.75459 0.74896 0.0
C4158 C 0.17046 0.82314 0.72205 0.0
C4159 C 0.12079 0.73998 0.72669 0.0
H4160 H 0.07766 0.80333 0.71356 0.0
H4161 H 0.10425 0.7711 0.64922 0.0
H4162 H 0.11032 0.79077 0.75657 0.0
H4163 H 0.12879 0.8187 0.7534 0.0
H4164 H 0.09932 0.81712 0.75188 0.0
H4165 H 0.14047 0.76419 0.65029 0.0
H4166 H 0.15987 0.77905 0.67684 0.0
H4167 H 0.14317 0.74886 0.67577 0.0
H4168 H 0.19863 0.80676 0.75129 0.0
H4169 H 0.1563 0.73761 0.75613 0.0
H4170 H 0.1595 0.83487 0.73061 0.0
H4171 H 0.16639 0.81999 0.7019 0.0
H4172 H 0.18793 0.8335 0.72678 0.0
H4173 H 0.10686 0.74798 0.7336 0.0
H4174 H 0.12112 0.72311 0.7344 0.0
H4175 H 0.11731 0.73444 0.70644 0.0
C4176 C 0.118 0.4213 0.38652 0.0
C4177 C 0.11374 0.40304 0.40087 0.0
C4178 C 0.11164 0.44407 0.39319 0.0
C4179 C 0.10053 0.4484 0.41445 0.0
C4180 C 0.09525 0.42949 0.42824 0.0
C4181 C 0.10221 0.40726 0.42148 0.0
C4182 C 0.11731 0.46368 0.3779 0.0
C4183 C 0.08206 0.4324 0.45011 0.0
C4184 C 0.10768 0.50963 0.45726 0.0
C4185 C 0.0861 0.51368 0.4555 0.0
C4186 C 0.11328 0.4896 0.44216 0.0
C4187 C 0.09692 0.47347 0.42449 0.0
C4188 C 0.07583 0.47918 0.42067 0.0
C4189 C 0.0706 0.49935 0.43636 0.0
C4190 C 0.13581 0.484 0.44729 0.0
C4191 C 0.05807 0.46259 0.4018 0.0
H4192 H 0.12671 0.41801 0.3704 0.0
H4193 H 0.09846 0.39312 0.43241 0.0
H4194 H 0.10301 0.47235 0.37492 0.0
H4195 H 0.13126 0.47854 0.38776 0.0
H4196 H 0.12227 0.45601 0.3598 0.0
H4197 H 0.08452 0.41937 0.46237 0.0
H4198 H 0.08632 0.45151 0.46108 0.0
H4199 H 0.06419 0.42833 0.44345 0.0
H4200 H 0.11976 0.52091 0.47191 0.0
H4201 H 0.05388 0.50245 0.43498 0.0
H4202 H 0.14369 0.48063 0.43006 0.0
H4203 H 0.13391 0.46691 0.45509 0.0
H4204 H 0.14709 0.49926 0.46054 0.0
H4205 H 0.06522 0.45547 0.38492 0.0
H4206 H 0.04508 0.47246 0.39689 0.0
H4207 H 0.05007 0.44643 0.40939 0.0
C4208 C 0.44083 0.26217 0.17945 0.0
C4209 C 0.4625 0.27321 0.18991 0.0
C4210 C 0.42273 0.26327 0.19317 0.0
C4211 C 0.42635 0.27623 0.21784 0.0
C4212 C 0.44826 0.28705 0.22864 0.0
C4213 C 0.46613 0.28521 0.21459 0.0
C4214 C 0.39968 0.25092 0.18108 0.0
C4215 C 0.45275 0.30128 0.25472 0.0
C4216 C 0.3746 0.29718 0.23689 0.0
C4217 C 0.36542 0.27892 0.24959 0.0
C4218 C 0.39557 0.29798 0.22858 0.0
C4219 C 0.40694 0.27904 0.23169 0.0
C4220 C 0.3979 0.26082 0.24506 0.0
C4221 C 0.3772 0.26104 0.25392 0.0
C4222 C 0.40482 0.31817 0.21507 0.0
C4223 C 0.40908 0.23989 0.24821 0.0
H4224 H 0.43797 0.25268 0.16042 0.0
H4225 H 0.48288 0.29388 0.22269 0.0
H4226 H 0.39111 0.23823 0.19231 0.0
H4227 H 0.38979 0.26515 0.17977 0.0
H4228 H 0.39986 0.24017 0.16233 0.0
H4229 H 0.47075 0.3071 0.26098 0.0
H4230 H 0.4457 0.31807 0.25616 0.0
H4231 H 0.44452 0.28988 0.26725 0.0
H4232 H 0.36508 0.31043 0.23282 0.0
H4233 H 0.36959 0.24633 0.26292 0.0
H4234 H 0.40372 0.31027 0.19518 0.0
H4235 H 0.42257 0.32607 0.22156 0.0
H4236 H 0.39565 0.33339 0.2175 0.0
H4237 H 0.40733 0.22679 0.23039 0.0
H4238 H 0.40169 0.22947 0.26196 0.0
H4239 H 0.42705 0.24696 0.25391 0.0
C4240 C 0.67004 0.52183 0.36634 0.0
C4241 C 0.66015 0.52441 0.34352 0.0
C4242 C 0.65924 0.52412 0.38862 0.0
C4243 C 0.63759 0.52949 0.38924 0.0
C4244 C 0.62763 0.53231 0.36629 0.0
C4245 C 0.63869 0.52966 0.34424 0.0
C4246 C 0.67113 0.52053 0.41172 0.0
C4247 C 0.60497 0.53825 0.36494 0.0
C4248 C 0.60012 0.51411 0.44222 0.0
C4249 C 0.60279 0.53689 0.45907 0.0
C4250 C 0.61105 0.51148 0.4201 0.0
C4251 C 0.62554 0.53206 0.41349 0.0
C4252 C 0.62832 0.55513 0.43043 0.0
C4253 C 0.61729 0.55718 0.45254 0.0
C4254 C 0.60707 0.48627 0.4037 0.0
C4255 C 0.64302 0.57803 0.42513 0.0
H4256 H 0.68638 0.51769 0.36684 0.0
H4257 H 0.63035 0.53181 0.32731 0.0
H4258 H 0.67346 0.53754 0.42608 0.0
H4259 H 0.66092 0.50522 0.41885 0.0
H4260 H 0.68758 0.51618 0.40872 0.0
H4261 H 0.59934 0.54048 0.34629 0.0
H4262 H 0.59274 0.52325 0.37025 0.0
H4263 H 0.60511 0.5556 0.37815 0.0
H4264 H 0.58957 0.4979 0.44651 0.0
H4265 H 0.61996 0.57507 0.46475 0.0
H4266 H 0.62308 0.48062 0.40121 0.0
H4267 H 0.59958 0.48703 0.38529 0.0
H4268 H 0.59592 0.47189 0.41117 0.0
H4269 H 0.66016 0.57518 0.42392 0.0
H4270 H 0.64344 0.59471 0.43943 0.0
H4271 H 0.63712 0.58153 0.40712 0.0
C4272 C 0.32132 0.93198 0.09908 0.0
C4273 C 0.34199 0.92984 0.09116 0.0
C4274 C 0.31246 0.91864 0.11662 0.0
C4275 C 0.32466 0.90301 0.12619 0.0
C4276 C 0.34676 0.90369 0.1207 0.0
C4277 C 0.35512 0.91704 0.10313 0.0
C4278 C 0.28914 0.91909 0.12269 0.0
C4279 C 0.36062 0.88781 0.13091 0.0
C4280 C 0.30827 0.86181 0.17201 0.0
C4281 C 0.30082 0.83868 0.15622 0.0
C4282 C 0.31441 0.88359 0.16265 0.0
C4283 C 0.31324 0.88206 0.13695 0.0
C4284 C 0.30404 0.85905 0.12106 0.0
C4285 C 0.29795 0.83769 0.13089 0.0
C4286 C 0.3235 0.90779 0.18029 0.0
C4287 C 0.30229 0.85652 0.09349 0.0
H4288 H 0.31114 0.9419 0.0898 0.0
H4289 H 0.3712 0.91561 0.0971 0.0
H4290 H 0.27751 0.90285 0.11115 0.0
H4291 H 0.28744 0.9179 0.14217 0.0
H4292 H 0.28416 0.93615 0.11904 0.0
H4293 H 0.37831 0.89312 0.12768 0.0
H4294 H 0.3596 0.88924 0.1509 0.0
H4295 H 0.35418 0.8681 0.12196 0.0
H4296 H 0.31003 0.86278 0.19167 0.0
H4297 H 0.29228 0.81992 0.11855 0.0
H4298 H 0.31905 0.92361 0.1732 0.0
H4299 H 0.34184 0.91103 0.18281 0.0
H4300 H 0.31733 0.90745 0.19855 0.0
H4301 H 0.29391 0.87063 0.08783 0.0
H4302 H 0.29299 0.83788 0.08384 0.0
H4303 H 0.31916 0.85972 0.08735 0.0
C4304 C 0.97382 0.59503 0.89221 0.0
C4305 C 0.95756 0.57532 0.87882 0.0
C4306 C 0.9853 0.59269 0.9139 0.0
C4307 C 0.98096 0.56972 0.92176 0.0
C4308 C 0.96352 0.55025 0.90907 0.0
C4309 C 0.9518 0.55343 0.88782 0.0
C4310 C 1.00326 0.61416 0.92727 0.0
C4311 C 0.95858 0.52533 0.91657 0.0
C4312 C 0.03066 0.55367 0.95378 0.0
C4313 C 0.02601 0.55735 0.97822 0.0
C4314 C 0.01593 0.55728 0.93521 0.0
C4315 C 0.9963 0.56525 0.94136 0.0
C4316 C 0.99172 0.56938 0.96613 0.0
C4317 C 1.00654 0.56512 0.98423 0.0
C4318 C 0.02128 0.55229 0.90894 0.0
C4319 C 0.97131 0.57847 0.97356 0.0
H4320 H 0.97844 0.61182 0.88494 0.0
H4321 H 0.9395 0.53806 0.87712 0.0
H4322 H 1.0022 0.61689 0.94735 0.0
H4323 H 0.01974 0.61011 0.92389 0.0
H4324 H 1.00224 0.6317 0.92111 0.0
H4325 H 0.94288 0.51331 0.9068 0.0
H4326 H 0.97231 0.51577 0.91229 0.0
H4327 H 0.9575 0.52755 0.93661 0.0
H4328 H 0.04544 0.54722 0.94907 0.0
H4329 H 1.00301 0.56819 1.0032 0.0
H4330 H 0.0231 0.56952 0.90143 0.0
H4331 H 1.00747 0.53839 0.89749 0.0
H4332 H 0.0368 0.54536 0.90717 0.0
H4333 H 0.97135 0.59646 0.96792 0.0
H4334 H 0.97025 0.58091 0.99366 0.0
H4335 H 0.95618 0.56518 0.96402 0.0
C4336 C 0.32001 0.23562 0.60025 0.0
C4337 C 0.30125 0.23691 0.58549 0.0
C4338 C 0.32168 0.24316 0.62595 0.0
C4339 C 0.30378 0.25121 0.63721 0.0
C4340 C 0.28474 0.25226 0.62229 0.0
C4341 C 0.28388 0.24554 0.59666 0.0
C4342 C 0.34251 0.24227 0.64104 0.0
C4343 C 0.26496 0.25972 0.63339 0.0
C4344 C 0.30103 0.24326 0.70346 0.0
C4345 C 0.30869 0.2676 0.7165 0.0
C4346 C 0.29834 0.23791 0.67771 0.0
C4347 C 0.30451 0.25721 0.66459 0.0
C4348 C 0.31202 0.28196 0.67773 0.0
C4349 C 0.31374 0.2869 0.70358 0.0
C4350 C 0.28932 0.21146 0.66459 0.0
C4351 C 0.31934 0.303 0.66457 0.0
H4352 H 0.33353 0.22912 0.59167 0.0
H4353 H 0.26924 0.24633 0.58532 0.0
H4354 H 0.34851 0.25989 0.65452 0.0
H4355 H 0.33886 0.22714 0.65151 0.0
H4356 H 0.35599 0.23893 0.62949 0.0
H4357 H 0.25143 0.2597 0.61928 0.0
H4358 H 0.25841 0.24669 0.64533 0.0
H4359 H 0.26994 0.27853 0.64499 0.0
H4360 H 0.29727 0.22833 0.71351 0.0
H4361 H 0.32014 0.30566 0.71368 0.0
H4362 H 0.30252 0.20412 0.65512 0.0
H4363 H 0.27563 0.21062 0.65039 0.0
H4364 H 0.28306 0.19918 0.67736 0.0
H4365 H 0.33391 0.29995 0.6548 0.0
H4366 H 0.32388 0.32126 0.67733 0.0
H4367 H 0.30602 0.30361 0.65056 0.0
C4368 C 0.65287 0.54821 0.19941 0.0
C4369 C 0.65417 0.52518 0.20606 0.0
C4370 C 0.64272 0.55054 0.17624 0.0
C4371 C 0.63264 0.52936 0.15788 0.0
C4372 C 0.6341 0.50591 0.16414 0.0
C4373 C 0.6445 0.50409 0.18768 0.0
C4374 C 0.64221 0.57615 0.17179 0.0
C4375 C 0.62404 0.4824 0.146 0.0
C4376 C 0.58921 0.53626 0.10445 0.0
C4377 C 0.60194 0.53921 0.08448 0.0
C4378 C 0.59865 0.53308 0.1279 0.0
C4379 C 0.62158 0.53208 0.13232 0.0
C4380 C 0.63426 0.53487 0.11209 0.0
C4381 C 0.62455 0.53829 0.08916 0.0
C4382 C 0.58389 0.53085 0.14818 0.0
C4383 C 0.65852 0.53428 0.11463 0.0
H4384 H 0.65944 0.56495 0.21299 0.0
H4385 H 0.6442 0.48597 0.19199 0.0
H4386 H 0.64845 0.57861 0.15396 0.0
H4387 H 0.62485 0.57851 0.17084 0.0
H4388 H 0.65225 0.59095 0.18651 0.0
H4389 H 0.6268 0.46563 0.15265 0.0
H4390 H 0.60594 0.48094 0.14239 0.0
H4391 H 0.63118 0.48287 0.12827 0.0
H4392 H 0.57175 0.53633 0.10181 0.0
H4393 H 0.63501 0.5402 0.07444 0.0
H4394 H 0.59045 0.54612 0.16411 0.0
H4395 H 0.58386 0.51316 0.15445 0.0
H4396 H 0.56657 0.53156 0.14236 0.0
H4397 H 0.66752 0.54969 0.12942 0.0
H4398 H 0.66628 0.53595 0.09739 0.0
H4399 H 0.66066 0.51671 0.11997 0.0
C4400 C 0.33738 0.93766 0.94265 0.0
C4401 C 0.3386 0.92733 0.96369 0.0
C4402 C 0.33694 0.92314 0.91922 0.0
C4403 C 0.33778 0.89782 0.91694 0.0
C4404 C 0.33958 0.88753 0.93819 0.0
C4405 C 0.33994 0.90239 0.96128 0.0
C4406 C 0.33495 0.93468 0.8969 0.0
C4407 C 0.34047 0.86059 0.9365 0.0
C4408 C 0.31164 0.85149 0.85951 0.0
C4409 C 0.33023 0.84705 0.84803 0.0
C4410 C 0.31384 0.86846 0.88166 0.0
C4411 C 0.33524 0.88148 0.8924 0.0
C4412 C 0.35411 0.8777 0.88038 0.0
C4413 C 0.35134 0.86056 0.85813 0.0
C4414 C 0.29326 0.87214 0.89369 0.0
C4415 C 0.37717 0.89131 0.8913 0.0
H4416 H 0.3364 0.95694 0.94444 0.0
H4417 H 0.34096 0.8943 0.97747 0.0
H4418 H 0.34823 0.93137 0.8851 0.0
H4419 H 0.31887 0.92587 0.88582 0.0
H4420 H 0.33597 0.95496 0.90185 0.0
H4421 H 0.34311 0.85582 0.95483 0.0
H4422 H 0.32473 0.8486 0.92687 0.0
H4423 H 0.35404 0.85615 0.92562 0.0
H4424 H 0.2953 0.84208 0.85091 0.0
H4425 H 0.36567 0.85738 0.84884 0.0
H4426 H 0.29256 0.89203 0.89704 0.0
H4427 H 0.29379 0.86646 0.91177 0.0
H4428 H 0.27783 0.86125 0.88239 0.0
H4429 H 0.37814 0.91159 0.89524 0.0
H4430 H 0.38995 0.88734 0.87896 0.0
H4431 H 0.38111 0.88585 0.90899 0.0
C4432 C 0.01683 0.56642 0.76231 0.0
C4433 C 0.99374 0.55855 0.76106 0.0
C4434 C 0.02808 0.56207 0.74151 0.0
C4435 C 0.01597 0.54923 0.71896 0.0
C4436 C 0.99252 0.54252 0.71721 0.0
C4437 C 0.98163 0.54744 0.73833 0.0
C4438 C 0.05305 0.57003 0.74402 0.0
C4439 C 0.97908 0.52877 0.69345 0.0
C4440 C 0.0465 0.54852 0.66196 0.0
C4441 C 0.05375 0.52623 0.66034 0.0
C4442 C 0.03388 0.55615 0.68074 0.0
C4443 C 0.02811 0.54089 0.69801 0.0
C4444 C 0.03507 0.51815 0.69617 0.0
C4445 C 0.04796 0.51118 0.67744 0.0
C4446 C 0.02705 0.58066 0.68231 0.0
C4447 C 0.0291 0.50129 0.71416 0.0
H4448 H 0.02622 0.57532 0.77982 0.0
H4449 H 0.96378 0.54126 0.73733 0.0
H4450 H 0.06041 0.55341 0.74194 0.0
H4451 H 0.05852 0.58017 0.72935 0.0
H4452 H 0.05973 0.58208 0.7621 0.0
H4453 H 0.96101 0.52726 0.69444 0.0
H4454 H 0.98411 0.53815 0.67813 0.0
H4455 H 0.98226 0.5098 0.68902 0.0
H4456 H 0.05106 0.56023 0.64876 0.0
H4457 H 0.05332 0.49379 0.67598 0.0
H4458 H 0.03288 0.59256 0.70063 0.0
H4459 H 1.00871 0.57759 0.68003 0.0
H4460 H 0.03381 0.59076 0.66809 0.0
H4461 H 0.0367 0.51082 0.73286 0.0
H4462 H 0.0348 0.48366 0.70939 0.0
H4463 H 1.01088 0.49687 0.71476 0.0
C4464 C 0.30824 0.19789 0.43111 0.0
C4465 C 0.30503 0.2134 0.45269 0.0
C4466 C 0.30913 0.20617 0.4087 0.0
C4467 C 0.3066 0.23052 0.40771 0.0
C4468 C 0.30286 0.24606 0.42934 0.0
C4469 C 0.30219 0.23736 0.45154 0.0
C4470 C 0.3132 0.18899 0.38614 0.0
C4471 C 0.29987 0.27205 0.4291 0.0
C4472 C 0.33041 0.26093 0.35622 0.0
C4473 C 0.31157 0.25746 0.33951 0.0
C4474 C 0.32904 0.25218 0.37837 0.0
C4475 C 0.30829 0.23986 0.38418 0.0
C4476 C 0.28919 0.23646 0.36746 0.0
C4477 C 0.29108 0.24517 0.34534 0.0
C4478 C 0.34985 0.2561 0.39557 0.0
C4479 C 0.2667 0.22372 0.37298 0.0
H4480 H 0.3105 0.17937 0.4318 0.0
H4481 H 0.29966 0.24947 0.46809 0.0
H4482 H 0.29961 0.18652 0.37134 0.0
H4483 H 0.32881 0.19726 0.3792 0.0
H4484 H 0.31441 0.17047 0.38982 0.0
H4485 H 0.29628 0.28149 0.44722 0.0
H4486 H 0.31511 0.28324 0.42388 0.0
H4487 H 0.2861 0.27163 0.41516 0.0
H4488 H 0.34633 0.27036 0.35193 0.0
H4489 H 0.27637 0.24262 0.33278 0.0
H4490 H 0.35268 0.23797 0.39876 0.0
H4491 H 0.34794 0.26712 0.41361 0.0
H4492 H 0.36473 0.26584 0.38832 0.0
H4493 H 0.267 0.20455 0.37525 0.0
H4494 H 0.25341 0.22288 0.35827 0.0
H4495 H 0.26246 0.23364 0.39051 0.0
C4496 C 0.37262 0.61724 0.52618 0.0
C4497 C 0.35117 0.60903 0.53241 0.0
C4498 C 0.38824 0.60232 0.52583 0.0
C4499 C 0.38235 0.57875 0.5322 0.0
C4500 C 0.36125 0.57109 0.5402 0.0
C4501 C 0.3458 0.58628 0.54004 0.0
C4502 C 0.41048 0.61108 0.51696 0.0
C4503 C 0.35457 0.54627 0.5476 0.0
C4504 C 0.40879 0.52877 0.49933 0.0
C4505 C 0.4258 0.52835 0.51694 0.0
C4506 C 0.39452 0.54504 0.50419 0.0
C4507 C 0.39713 0.56102 0.52741 0.0
C4508 C 0.41419 0.56054 0.5454 0.0
C4509 C 0.42853 0.54432 0.53983 0.0
C4510 C 0.37681 0.54532 0.48434 0.0
C4511 C 0.41723 0.57705 0.57045 0.0
H4512 H 0.37695 0.63487 0.52038 0.0
H4513 H 0.32931 0.57995 0.5451 0.0
H4514 H 0.42409 0.60878 0.52968 0.0
H4515 H 0.41138 0.59963 0.49878 0.0
H4516 H 0.41333 0.63082 0.51514 0.0
H4517 H 0.33902 0.54462 0.55667 0.0
H4518 H 0.35197 0.53129 0.53108 0.0
H4519 H 0.3679 0.54323 0.56023 0.0
H4520 H 0.40685 0.51651 0.48157 0.0
H4521 H 0.44162 0.54378 0.55349 0.0
H4522 H 0.37909 0.5641 0.47987 0.0
H4523 H 0.3602 0.54098 0.4909 0.0
H4524 H 0.37709 0.53176 0.46727 0.0
H4525 H 0.42098 0.59679 0.56871 0.0
H4526 H 0.43081 0.5738 0.58264 0.0
H4527 H 0.40163 0.57383 0.57931 0.0
C4528 C 0.90088 0.94863 0.53663 0.0
C4529 C 0.90055 0.92511 0.5421 0.0
C4530 C 0.92108 0.96513 0.53563 0.0
C4531 C 0.94141 0.95819 0.5408 0.0
C4532 C 0.9411 0.93492 0.54736 0.0
C4533 C 0.92074 0.91856 0.54761 0.0
C4534 C 0.92067 0.98962 0.52821 0.0
C4535 C 0.96233 0.92704 0.5536 0.0
C4536 C 0.99347 0.98588 0.51377 0.0
C4537 C 1.00507 1.0038 0.53368 0.0
C4538 C 0.97259 0.97134 0.51571 0.0
C4539 C 0.96303 0.9746 0.53819 0.0
C4540 C 0.97464 0.9927 0.55837 0.0
C4541 C 0.99548 1.00707 0.55587 0.0
C4542 C 0.96087 0.95229 0.4937 0.0
C4543 C 0.96526 0.99656 0.58277 0.0
H4544 H 0.88535 0.95375 0.53219 0.0
H4545 H 0.92062 0.90052 0.55207 0.0
H4546 H 0.93084 1.00509 0.54213 0.0
H4547 H 0.92807 0.99015 0.51063 0.0
H4548 H 0.90358 0.99279 0.52589 0.0
H4549 H 0.95924 0.90907 0.55985 0.0
H4550 H 0.97164 0.92531 0.53724 0.0
H4551 H 0.97304 0.9413 0.56823 0.0
H4552 H 1.00064 0.98325 0.49651 0.0
H4553 H 1.00442 0.02063 0.57147 0.0
H4554 H 0.94378 0.95482 0.48969 0.0
H4555 H 0.95951 0.93342 0.49769 0.0
H4556 H 0.96971 0.95338 0.47706 0.0
H4557 H 0.94838 1.00019 0.58035 0.0
H4558 H 0.97578 1.01226 0.59624 0.0
H4559 H 0.96376 0.97947 0.59049 0.0
C4560 C 0.92348 0.16714 0.28966 0.0
C4561 C 0.91325 0.14147 0.28295 0.0
C4562 C 0.91154 0.18697 0.28949 0.0
C4563 C 0.88804 0.18226 0.28262 0.0
C4564 C 0.87764 0.15641 0.27601 0.0
C4565 C 0.88997 0.13699 0.27621 0.0
C4566 C 0.92436 0.2134 0.29666 0.0
C4567 C 0.85304 0.14905 0.26855 0.0
C4568 C 0.8529 0.23547 0.2989 0.0
C4569 C 0.85039 0.24462 0.27688 0.0
C4570 C 0.86448 0.21557 0.30101 0.0
C4571 C 0.87481 0.20385 0.28098 0.0
C4572 C 0.87225 0.21316 0.25891 0.0
C4573 C 0.86056 0.23272 0.25727 0.0
C4574 C 0.86574 0.20709 0.3251 0.0
C4575 C 0.88221 0.2025 0.23655 0.0
H4576 H 0.94117 0.17194 0.29508 0.0
H4577 H 0.88106 0.11785 0.27101 0.0
H4578 H 0.92296 0.22303 0.28106 0.0
H4579 H 0.91719 0.22338 0.31214 0.0
H4580 H 0.94218 0.21468 0.30215 0.0
H4581 H 0.84682 0.12862 0.2646 0.0
H4582 H 0.84407 0.15739 0.28333 0.0
H4583 H 0.849 0.15634 0.25195 0.0
H4584 H 0.84601 0.24401 0.31476 0.0
H4585 H 0.85962 0.23905 0.24004 0.0
H4586 H 0.88333 0.21043 0.3327 0.0
H4587 H 0.85885 0.18685 0.32223 0.0
H4588 H 0.85652 0.2168 0.33874 0.0
H4589 H 0.90035 0.20486 0.24087 0.0
H4590 H 0.87924 0.21139 0.22071 0.0
H4591 H 0.8751 0.18231 0.23107 0.0
C4592 C 0.73791 0.13159 0.01958 0.0
C4593 C 0.74519 0.15323 0.01044 0.0
C4594 C 0.71541 0.12314 0.0221 0.0
C4595 C 0.69965 0.13626 0.01483 0.0
C4596 C 0.70693 0.15819 1.00564 0.0
C4597 C 0.72954 0.16635 1.00356 0.0
C4598 C 0.70859 0.10069 0.03345 0.0
C4599 C 0.69132 0.17388 0.99865 0.0
C4600 C 0.64053 0.09879 0.99871 0.0
C4601 C 0.6295 0.11047 0.01691 0.0
C4602 C 0.66331 0.1069 0.99774 0.0
C4603 C 0.6756 0.12661 0.01617 0.0
C4604 C 0.66457 0.13779 0.03522 0.0
C4605 C 0.64147 0.13028 0.03472 0.0
C4606 C 0.6736 0.0942 0.97658 0.0
C4607 C 0.67699 0.15789 0.05599 0.0
H4608 H 0.74986 0.12153 0.02541 0.0
H4609 H 0.73494 0.18328 0.99676 0.0
H4610 H 0.69934 0.10557 0.04936 0.0
H4611 H 0.6974 0.08564 0.02 0.0
H4612 H 0.72299 0.09356 0.03979 0.0
H4613 H 0.69613 0.1812 0.98204 0.0
H4614 H 0.67379 0.16373 0.99524 0.0
H4615 H 0.69271 0.19015 0.01369 0.0
H4616 H 0.63119 0.08407 0.98433 0.0
H4617 H 0.63279 0.1396 0.04852 0.0
H4618 H 0.67451 0.07533 0.9794 0.0
H4619 H 0.69044 0.10426 0.97437 0.0
H4620 H 0.6629 0.09183 0.95916 0.0
H4621 H 0.69348 0.15448 0.06145 0.0
H4622 H 0.66757 0.15929 0.07232 0.0
H4623 H 0.67953 0.17597 0.05002 0.0
C4624 C 0.22557 0.46139 0.26833 0.0
C4625 C 0.23488 0.48532 0.26488 0.0
C4626 C 0.23897 0.4462 0.27612 0.0
C4627 C 0.26218 0.45531 0.28081 0.0
C4628 C 0.2718 0.47848 0.27514 0.0
C4629 C 0.25803 0.49315 0.26706 0.0
C4630 C 0.22809 0.42132 0.28132 0.0
C4631 C 0.29648 0.48886 0.27978 0.0
C4632 C 0.29145 0.43653 0.33419 0.0
C4633 C 0.30267 0.41926 0.32224 0.0
C4634 C 0.27821 0.44824 0.32087 0.0
C4635 C 0.2759 0.44243 0.29487 0.0
C4636 C 0.28687 0.42474 0.28266 0.0
C4637 C 0.30018 0.41348 0.2965 0.0
C4638 C 0.26678 0.46701 0.33466 0.0
C4639 C 0.28474 0.41788 0.25501 0.0
H4640 H 0.2077 0.4551 0.26648 0.0
H4641 H 0.26538 0.5116 0.26441 0.0
H4642 H 0.23733 0.40698 0.27431 0.0
H4643 H 0.22826 0.42256 0.30144 0.0
H4644 H 0.21062 0.41519 0.27297 0.0
H4645 H 0.30164 0.50522 0.27116 0.0
H4646 H 0.30128 0.49462 0.29984 0.0
H4647 H 0.30575 0.47459 0.27271 0.0
H4648 H 0.29295 0.44084 0.35407 0.0
H4649 H 0.30901 0.40053 0.28709 0.0
H4650 H 0.24859 0.46105 0.32989 0.0
H4651 H 0.27216 0.48519 0.32923 0.0
H4652 H 0.27039 0.46955 0.35486 0.0
H4653 H 0.26701 0.41145 0.24774 0.0
H4654 H 0.29366 0.40308 0.24836 0.0
H4655 H 0.29147 0.43442 0.2473 0.0
C4656 C 0.27605 0.4514 0.05938 0.0
C4657 C 0.27716 0.42996 0.04262 0.0
C4658 C 0.25904 0.46425 0.05615 0.0
C4659 C 0.24335 0.45609 0.03509 0.0
C4660 C 0.24418 0.43413 0.01843 0.0
C4661 C 0.26079 0.42113 0.02264 0.0
C4662 C 0.25825 0.48694 0.07492 0.0
C4663 C 0.22833 0.42511 0.99533 0.0
C4664 C 0.18968 0.47905 0.02741 0.0
C4665 C 0.19582 0.49798 0.01405 0.0
C4666 C 0.20517 0.46612 0.03546 0.0
C4667 C 0.22724 0.47146 0.02928 0.0
C4668 C 0.23367 0.49073 0.0162 0.0
C4669 C 0.21813 0.50405 0.00932 0.0
C4670 C 0.19777 0.44636 0.05016 0.0
C4671 C 0.25686 0.4968 1.00871 0.0
H4672 H 0.28862 0.45828 0.07488 0.0
H4673 H 0.26171 0.40476 0.00943 0.0
H4674 H 0.26333 0.5038 0.06709 0.0
H4675 H 0.2411 0.4863 0.07988 0.0
H4676 H 0.26942 0.48872 0.09187 0.0
H4677 H 0.23074 0.40734 0.9846 0.0
H4678 H 0.21095 0.4225 0.99989 0.0
H4679 H 0.23072 0.43925 0.98357 0.0
H4680 H 0.17262 0.47376 0.03113 0.0
H4681 H 0.22357 0.51913 0.99991 0.0
H4682 H 0.20985 0.44867 0.06645 0.0
H4683 H 0.19705 0.42781 0.03882 0.0
H4684 H 0.18115 0.44681 0.0564 0.0
H4685 H 0.26914 0.50232 0.02516 0.0
H4686 H 0.25916 0.51202 0.99818 0.0
H4687 H 0.26058 0.48012 0.99723 0.0
C4688 C 0.92137 0.97779 0.2672 0.0
C4689 C 0.91698 0.99983 0.28061 0.0
C4690 C 0.90768 0.95399 0.26649 0.0
C4691 C 0.88902 0.9512 0.2802 0.0
C4692 C 0.88426 0.97341 0.29358 0.0
C4693 C 0.89798 0.99722 0.29341 0.0
C4694 C 0.91358 0.93159 0.25133 0.0
C4695 C 0.86511 0.97197 0.30904 0.0
C4696 C 0.84478 0.88853 0.26525 0.0
C4697 C 0.85197 0.87459 0.2817 0.0
C4698 C 0.85627 0.9132 0.26471 0.0
C4699 C 0.87548 0.92511 0.28133 0.0
C4700 C 0.88242 0.91129 0.29837 0.0
C4701 C 0.87092 0.88653 0.29815 0.0
C4702 C 0.8481 0.92632 0.24576 0.0
C4703 C 0.90223 0.92269 0.31699 0.0
H4704 H 0.93593 0.97913 0.25729 0.0
H4705 H 0.8944 1.0137 0.30433 0.0
H4706 H 0.91881 0.91974 0.26355 0.0
H4707 H 0.89887 0.92027 0.23908 0.0
H4708 H 0.92721 0.93674 0.23993 0.0
H4709 H 0.86263 0.9906 0.31735 0.0
H4710 H 0.8496 0.96129 0.29783 0.0
H4711 H 0.86817 0.96196 0.32397 0.0
H4712 H 0.83035 0.87992 0.25227 0.0
H4713 H 0.87681 0.87655 0.31123 0.0
H4714 H 0.86091 0.92985 0.23301 0.0
H4715 H 0.84532 0.94458 0.2547 0.0
H4716 H 0.83244 0.91537 0.23493 0.0
H4717 H 0.91743 0.92616 0.3075 0.0
H4718 H 0.9046 0.91061 0.33028 0.0
H4719 H 0.90031 0.94085 0.32728 0.0
C4720 C 0.71852 0.1502 0.7994 0.0
C4721 C 0.71851 0.12962 0.78103 0.0
C4722 C 0.73092 0.17373 0.79833 0.0
C4723 C 0.74311 0.17699 0.77804 0.0
C4724 C 0.7428 0.15631 0.75921 0.0
C4725 C 0.73079 0.13281 0.76111 0.0
C4726 C 0.73073 0.19511 0.81889 0.0
C4727 C 0.75503 0.15896 0.73701 0.0
C4728 C 0.7554 0.24387 0.76998 0.0
C4729 C 0.77712 0.25235 0.78121 0.0
C4730 C 0.74467 0.21888 0.76718 0.0
C4731 C 0.75573 0.2022 0.77656 0.0
C4732 C 0.77805 0.21056 0.78708 0.0
C4733 C 0.78852 0.23559 0.7892 0.0
C4734 C 0.7211 0.21065 0.75532 0.0
C4735 C 0.79036 0.19349 0.79755 0.0
H4736 H 0.7091 0.14786 0.81488 0.0
H4737 H 0.73075 0.11697 0.74677 0.0
H4738 H 0.74749 0.20718 0.82369 0.0
H4739 H 0.71951 0.2065 0.81285 0.0
H4740 H 0.72489 0.18874 0.8356 0.0
H4741 H 0.75119 0.14169 0.7228 0.0
H4742 H 0.75072 0.17421 0.72878 0.0
H4743 H 0.77311 0.1637 0.74264 0.0
H4744 H 0.7466 0.25697 0.76395 0.0
H4745 H 0.80522 0.24233 0.79829 0.0
H4746 H 0.70973 0.20725 0.76954 0.0
H4747 H 0.71899 0.19302 0.74186 0.0
H4748 H 0.71607 0.22479 0.74582 0.0
H4749 H 0.7818 0.18688 0.8128 0.0
H4750 H 0.80779 0.20273 0.80455 0.0
H4751 H 0.79042 0.17695 0.78335 0.0
loop_
_geom_bond_atom_site_label_1
_geom_bond_atom_site_label_2
_geom_bond_distance
_geom_bond_site_symmetry_2
_ccdc_geom_bond_type
Co0 O1 2.216 . S
Co0 O2 2.091 . S
Co0 O4 2.004 . S
Co0 O10 2.021 . S
Co0 O12 2.137 . S
Co0 O13 2.244 . S
O1 Co0 2.216 . S
O1 C8 1.247 . S
O2 Co0 2.091 . S
O2 C8 1.261 . S
C3 O12 1.247 . S
C3 O13 1.272 . S
O4 Co0 2.004 . S
O4 C9 1.259 . S
Co5 O6 2.061 . S
Co5 O11 2.052 . S
Co5 O13 2.135 . S
O6 Co5 2.061 . S
O6 C9 1.235 . S
C7 O10 1.238 . S
C7 O11 1.241 . S
C8 O1 1.247 . S
C8 O2 1.261 . S
C9 O4 1.259 . S
C9 O6 1.235 . S
O10 Co0 2.021 . S
O10 C7 1.238 . S
O11 Co5 2.052 . S
O11 C7 1.241 . S
O12 Co0 2.137 . S
O12 C3 1.247 . S
O13 Co0 2.244 . S
O13 C3 1.272 . S
O13 Co5 2.135 . S
Co14 O15 2.216 . S
Co14 O16 2.091 . S
Co14 O18 2.004 1_655 S
Co14 O24 2.021 . S
Co14 O26 2.137 . S
Co14 O27 2.244 1_655 S
O15 Co14 2.216 . S
O15 C22 1.247 . S
O16 Co14 2.091 . S
O16 C22 1.261 . S
C17 O26 1.247 1_455 S
C17 O27 1.272 . S
O18 Co14 2.004 1_455 S
O18 C23 1.259 . S
Co19 O20 2.061 . S
Co19 O25 2.052 . S
Co19 O27 2.135 . S
O20 Co19 2.061 . S
O20 C23 1.235 . S
C21 O24 1.238 . S
C21 O25 1.241 1_655 S
C22 O15 1.247 . S
C22 O16 1.261 . S
C23 O18 1.259 . S
C23 O20 1.235 . S
O24 Co14 2.021 . S
O24 C21 1.238 . S
O25 Co19 2.052 . S
O25 C21 1.241 1_455 S
O26 Co14 2.137 . S
O26 C17 1.247 1_655 S
O27 Co14 2.244 1_455 S
O27 C17 1.272 . S
O27 Co19 2.135 . S
Co28 O29 2.216 . S
Co28 O30 2.091 . S
Co28 O32 2.004 . S
Co28 O38 2.021 . S
Co28 O40 2.137 . S
Co28 O41 2.244 . S
O29 Co28 2.216 . S
O29 C36 1.247 . S
O30 Co28 2.091 . S
O30 C36 1.261 . S
C31 O40 1.247 . S
C31 O41 1.272 . S
O32 Co28 2.004 . S
O32 C37 1.259 . S
Co33 O34 2.061 . S
Co33 O39 2.052 . S
Co33 O41 2.135 . S
O34 Co33 2.061 . S
O34 C37 1.235 . S
C35 O38 1.238 . S
C35 O39 1.241 . S
C36 O29 1.247 . S
C36 O30 1.261 . S
C37 O32 1.259 . S
C37 O34 1.235 . S
O38 Co28 2.021 . S
O38 C35 1.238 . S
O39 Co33 2.052 . S
O39 C35 1.241 . S
O40 Co28 2.137 . S
O40 C31 1.247 . S
O41 Co28 2.244 . S
O41 C31 1.272 . S
O41 Co33 2.135 . S
Co42 O43 2.216 . S
Co42 O44 2.091 . S
Co42 O46 2.004 . S
Co42 O52 2.021 . S
Co42 O54 2.137 . S
Co42 O55 2.244 . S
O43 Co42 2.216 . S
O43 C50 1.247 . S
O44 Co42 2.091 . S
O44 C50 1.261 . S
C45 O54 1.247 . S
C45 O55 1.272 . S
O46 Co42 2.004 . S
O46 C51 1.259 . S
Co47 O48 2.061 . S
Co47 O53 2.052 . S
Co47 O55 2.135 . S
O48 Co47 2.061 . S
O48 C51 1.235 . S
C49 O52 1.238 . S
C49 O53 1.241 . S
C50 O43 1.247 . S
C50 O44 1.261 . S
C51 O46 1.259 . S
C51 O48 1.235 . S
O52 Co42 2.021 . S
O52 C49 1.238 . S
O53 Co47 2.052 . S
O53 C49 1.241 . S
O54 Co42 2.137 . S
O54 C45 1.247 . S
O55 Co42 2.244 . S
O55 C45 1.272 . S
O55 Co47 2.135 . S
Co56 O57 2.216 . S
Co56 O58 2.091 . S
Co56 O60 2.004 . S
Co56 O66 2.021 . S
Co56 O68 2.137 . S
Co56 O69 2.244 . S
O57 Co56 2.216 . S
O57 C64 1.247 . S
O58 Co56 2.091 . S
O58 C64 1.261 . S
C59 O68 1.247 . S
C59 O69 1.272 . S
O60 Co56 2.004 . S
O60 C65 1.259 . S
Co61 O62 2.061 . S
Co61 O67 2.052 . S
Co61 O69 2.135 . S
O62 Co61 2.061 . S
O62 C65 1.235 . S
C63 O66 1.238 . S
C63 O67 1.241 . S
C64 O57 1.247 . S
C64 O58 1.261 . S
C65 O60 1.259 . S
C65 O62 1.235 . S
O66 Co56 2.021 . S
O66 C63 1.238 . S
O67 Co61 2.052 . S
O67 C63 1.241 . S
O68 Co56 2.137 . S
O68 C59 1.247 . S
O69 Co56 2.244 . S
O69 C59 1.272 . S
O69 Co61 2.135 . S
Co70 O71 2.216 . S
Co70 O72 2.091 . S
Co70 O74 2.004 . S
Co70 O80 2.021 . S
Co70 O82 2.137 . S
Co70 O83 2.244 . S
O71 Co70 2.216 . S
O71 C78 1.247 . S
O72 Co70 2.091 . S
O72 C78 1.261 . S
C73 O82 1.247 . S
C73 O83 1.272 . S
O74 Co70 2.004 . S
O74 C79 1.259 . S
Co75 O76 2.061 . S
Co75 O81 2.052 . S
Co75 O83 2.135 . S
O76 Co75 2.061 . S
O76 C79 1.235 . S
C77 O80 1.238 . S
C77 O81 1.241 . S
C78 O71 1.247 . S
C78 O72 1.261 . S
C79 O74 1.259 . S
C79 O76 1.235 . S
O80 Co70 2.021 . S
O80 C77 1.238 . S
O81 Co75 2.052 . S
O81 C77 1.241 . S
O82 Co70 2.137 . S
O82 C73 1.247 . S
O83 Co70 2.244 . S
O83 C73 1.272 . S
O83 Co75 2.135 . S
Co84 O85 2.216 . S
Co84 O86 2.091 . S
Co84 O88 2.004 . S
Co84 O94 2.021 . S
Co84 O96 2.137 . S
Co84 O97 2.244 . S
O85 Co84 2.216 . S
O85 C92 1.247 . S
O86 Co84 2.091 . S
O86 C92 1.261 . S
C87 O96 1.247 . S
C87 O97 1.272 . S
O88 Co84 2.004 . S
O88 C93 1.259 . S
Co89 O90 2.061 . S
Co89 O95 2.052 . S
Co89 O97 2.135 . S
O90 Co89 2.061 . S
O90 C93 1.235 . S
C91 O94 1.238 . S
C91 O95 1.241 . S
C92 O85 1.247 . S
C92 O86 1.261 . S
C93 O88 1.259 . S
C93 O90 1.235 . S
O94 Co84 2.021 . S
O94 C91 1.238 . S
O95 Co89 2.052 . S
O95 C91 1.241 . S
O96 Co84 2.137 . S
O96 C87 1.247 . S
O97 Co84 2.244 . S
O97 C87 1.272 . S
O97 Co89 2.135 . S
Co98 O99 2.216 . S
Co98 O100 2.091 . S
Co98 O102 2.004 1_455 S
Co98 O108 2.021 . S
Co98 O110 2.137 . S
Co98 O111 2.244 . S
O99 Co98 2.216 . S
O99 C106 1.247 . S
O100 Co98 2.091 . S
O100 C106 1.261 . S
C101 O110 1.247 . S
C101 O111 1.272 . S
O102 Co98 2.004 1_655 S
O102 C107 1.259 . S
Co103 O104 2.061 . S
Co103 O109 2.052 1_655 S
Co103 O111 2.135 1_655 S
O104 Co103 2.061 . S
O104 C107 1.235 . S
C105 O108 1.238 . S
C105 O109 1.241 . S
C106 O99 1.247 . S
C106 O100 1.261 . S
C107 O102 1.259 . S
C107 O104 1.235 . S
O108 Co98 2.021 . S
O108 C105 1.238 . S
O109 Co103 2.052 1_455 S
O109 C105 1.241 . S
O110 Co98 2.137 . S
O110 C101 1.247 . S
O111 Co98 2.244 . S
O111 C101 1.272 . S
O111 Co103 2.135 1_455 S
Co112 O113 2.216 . S
Co112 O114 2.091 . S
Co112 O116 2.004 1_545 S
Co112 O122 2.021 . S
Co112 O124 2.137 . S
Co112 O125 2.244 . S
O113 Co112 2.216 . S
O113 C120 1.247 . S
O114 Co112 2.091 . S
O114 C120 1.261 . S
C115 O124 1.247 . S
C115 O125 1.272 . S
O116 Co112 2.004 1_565 S
O116 C121 1.259 . S
Co117 O118 2.061 . S
Co117 O123 2.052 1_565 S
Co117 O125 2.135 1_565 S
O118 Co117 2.061 . S
O118 C121 1.235 . S
C119 O122 1.238 . S
C119 O123 1.241 . S
C120 O113 1.247 . S
C120 O114 1.261 . S
C121 O116 1.259 . S
C121 O118 1.235 . S
O122 Co112 2.021 . S
O122 C119 1.238 . S
O123 Co117 2.052 1_545 S
O123 C119 1.241 . S
O124 Co112 2.137 . S
O124 C115 1.247 . S
O125 Co112 2.244 . S
O125 C115 1.272 . S
O125 Co117 2.135 1_545 S
Co126 O127 2.216 . S
Co126 O128 2.091 . S
Co126 O130 2.004 . S
Co126 O136 2.021 . S
Co126 O138 2.137 . S
Co126 O139 2.244 . S
O127 Co126 2.216 . S
O127 C134 1.247 . S
O128 Co126 2.091 . S
O128 C134 1.261 . S
C129 O138 1.247 . S
C129 O139 1.272 . S
O130 Co126 2.004 . S
O130 C135 1.259 . S
Co131 O132 2.061 . S
Co131 O137 2.052 . S
Co131 O139 2.135 . S
O132 Co131 2.061 . S
O132 C135 1.235 . S
C133 O136 1.238 . S
C133 O137 1.241 . S
C134 O127 1.247 . S
C134 O128 1.261 . S
C135 O130 1.259 . S
C135 O132 1.235 . S
O136 Co126 2.021 . S
O136 C133 1.238 . S
O137 Co131 2.052 . S
O137 C133 1.241 . S
O138 Co126 2.137 . S
O138 C129 1.247 . S
O139 Co126 2.244 . S
O139 C129 1.272 . S
O139 Co131 2.135 . S
Co140 O141 2.216 . S
Co140 O142 2.091 . S
Co140 O144 2.004 1_565 S
Co140 O150 2.021 . S
Co140 O152 2.137 . S
Co140 O153 2.244 1_565 S
O141 Co140 2.216 . S
O141 C148 1.247 . S
O142 Co140 2.091 . S
O142 C148 1.261 . S
C143 O152 1.247 1_545 S
C143 O153 1.272 . S
O144 Co140 2.004 1_545 S
O144 C149 1.259 . S
Co145 O146 2.061 . S
Co145 O151 2.052 . S
Co145 O153 2.135 . S
O146 Co145 2.061 . S
O146 C149 1.235 . S
C147 O150 1.238 . S
C147 O151 1.241 1_565 S
C148 O141 1.247 . S
C148 O142 1.261 . S
C149 O144 1.259 . S
C149 O146 1.235 . S
O150 Co140 2.021 . S
O150 C147 1.238 . S
O151 Co145 2.052 . S
O151 C147 1.241 1_545 S
O152 Co140 2.137 . S
O152 C143 1.247 1_565 S
O153 Co140 2.244 1_545 S
O153 C143 1.272 . S
O153 Co145 2.135 . S
Co154 O155 2.216 . S
Co154 O156 2.091 . S
Co154 O158 2.004 . S
Co154 O164 2.021 . S
Co154 O166 2.137 1_554 S
Co154 O167 2.244 1_554 S
O155 Co154 2.216 . S
O155 C162 1.247 . S
O156 Co154 2.091 . S
O156 C162 1.261 . S
C157 O166 1.247 . S
C157 O167 1.272 . S
O158 Co154 2.004 . S
O158 C163 1.259 . S
Co159 O160 2.061 . S
Co159 O165 2.052 . S
Co159 O167 2.135 1_554 S
O160 Co159 2.061 . S
O160 C163 1.235 . S
C161 O164 1.238 . S
C161 O165 1.241 . S
C162 O155 1.247 . S
C162 O156 1.261 . S
C163 O158 1.259 . S
C163 O160 1.235 . S
O164 Co154 2.021 . S
O164 C161 1.238 . S
O165 Co159 2.052 . S
O165 C161 1.241 . S
O166 Co154 2.137 1_556 S
O166 C157 1.247 . S
O167 Co154 2.244 1_556 S
O167 C157 1.272 . S
O167 Co159 2.135 1_556 S
Co168 O169 2.216 . S
Co168 O170 2.091 . S
Co168 O172 2.004 . S
Co168 O178 2.021 . S
Co168 O180 2.137 1_554 S
Co168 O181 2.244 . S
O169 Co168 2.216 . S
O169 C176 1.247 . S
O170 Co168 2.091 . S
O170 C176 1.261 . S
C171 O180 1.247 . S
C171 O181 1.272 1_556 S
O172 Co168 2.004 . S
O172 C177 1.259 . S
Co173 O174 2.061 . S
Co173 O179 2.052 . S
Co173 O181 2.135 . S
O174 Co173 2.061 . S
O174 C177 1.235 . S
C175 O178 1.238 . S
C175 O179 1.241 . S
C176 O169 1.247 . S
C176 O170 1.261 . S
C177 O172 1.259 . S
C177 O174 1.235 . S
O178 Co168 2.021 . S
O178 C175 1.238 . S
O179 Co173 2.052 . S
O179 C175 1.241 . S
O180 Co168 2.137 1_556 S
O180 C171 1.247 . S
O181 Co168 2.244 . S
O181 C171 1.272 1_554 S
O181 Co173 2.135 . S
Co182 O183 2.216 . S
Co182 O184 2.091 . S
Co182 O186 2.004 . S
Co182 O192 2.021 . S
Co182 O194 2.137 1_554 S
Co182 O195 2.244 . S
O183 Co182 2.216 . S
O183 C190 1.247 . S
O184 Co182 2.091 . S
O184 C190 1.261 . S
C185 O194 1.247 . S
C185 O195 1.272 1_556 S
O186 Co182 2.004 . S
O186 C191 1.259 . S
Co187 O188 2.061 . S
Co187 O193 2.052 . S
Co187 O195 2.135 . S
O188 Co187 2.061 . S
O188 C191 1.235 . S
C189 O192 1.238 . S
C189 O193 1.241 . S
C190 O183 1.247 . S
C190 O184 1.261 . S
C191 O186 1.259 . S
C191 O188 1.235 . S
O192 Co182 2.021 . S
O192 C189 1.238 . S
O193 Co187 2.052 . S
O193 C189 1.241 . S
O194 Co182 2.137 1_556 S
O194 C185 1.247 . S
O195 Co182 2.244 . S
O195 C185 1.272 1_554 S
O195 Co187 2.135 . S
Co196 O197 2.216 . S
Co196 O198 2.091 . S
Co196 O200 2.004 . S
Co196 O206 2.021 . S
Co196 O208 2.137 . S
Co196 O209 2.244 . S
O197 Co196 2.216 . S
O197 C204 1.247 . S
O198 Co196 2.091 . S
O198 C204 1.261 . S
C199 O208 1.247 . S
C199 O209 1.272 . S
O200 Co196 2.004 . S
O200 C205 1.259 . S
Co201 O202 2.061 . S
Co201 O207 2.052 . S
Co201 O209 2.135 . S
O202 Co201 2.061 . S
O202 C205 1.235 . S
C203 O206 1.238 . S
C203 O207 1.241 . S
C204 O197 1.247 . S
C204 O198 1.261 . S
C205 O200 1.259 . S
C205 O202 1.235 . S
O206 Co196 2.021 . S
O206 C203 1.238 . S
O207 Co201 2.052 . S
O207 C203 1.241 . S
O208 Co196 2.137 . S
O208 C199 1.247 . S
O209 Co196 2.244 . S
O209 C199 1.272 . S
O209 Co201 2.135 . S
Co210 O211 2.216 . S
Co210 O212 2.091 . S
Co210 O214 2.004 . S
Co210 O220 2.021 . S
Co210 O222 2.137 . S
Co210 O223 2.244 . S
O211 Co210 2.216 . S
O211 C218 1.247 . S
O212 Co210 2.091 . S
O212 C218 1.261 . S
C213 O222 1.247 . S
C213 O223 1.272 . S
O214 Co210 2.004 . S
O214 C219 1.259 . S
Co215 O216 2.061 . S
Co215 O221 2.052 . S
Co215 O223 2.135 . S
O216 Co215 2.061 . S
O216 C219 1.235 . S
C217 O220 1.238 . S
C217 O221 1.241 . S
C218 O211 1.247 . S
C218 O212 1.261 . S
C219 O214 1.259 . S
C219 O216 1.235 . S
O220 Co210 2.021 . S
O220 C217 1.238 . S
O221 Co215 2.052 . S
O221 C217 1.241 . S
O222 Co210 2.137 . S
O222 C213 1.247 . S
O223 Co210 2.244 . S
O223 C213 1.272 . S
O223 Co215 2.135 . S
Co224 O225 2.216 . S
Co224 O226 2.091 . S
Co224 O228 2.004 . S
Co224 O234 2.021 . S
Co224 O236 2.137 . S
Co224 O237 2.244 . S
O225 Co224 2.216 . S
O225 C232 1.247 . S
O226 Co224 2.091 . S
O226 C232 1.261 . S
C227 O236 1.247 . S
C227 O237 1.272 . S
O228 Co224 2.004 . S
O228 C233 1.259 . S
Co229 O230 2.061 . S
Co229 O235 2.052 . S
Co229 O237 2.135 . S
O230 Co229 2.061 . S
O230 C233 1.235 . S
C231 O234 1.238 . S
C231 O235 1.241 . S
C232 O225 1.247 . S
C232 O226 1.261 . S
C233 O228 1.259 . S
C233 O230 1.235 . S
O234 Co224 2.021 . S
O234 C231 1.238 . S
O235 Co229 2.052 . S
O235 C231 1.241 . S
O236 Co224 2.137 . S
O236 C227 1.247 . S
O237 Co224 2.244 . S
O237 C227 1.272 . S
O237 Co229 2.135 . S
Co238 O239 2.216 . S
Co238 O240 2.091 . S
Co238 O242 2.004 . S
Co238 O248 2.021 . S
Co238 O250 2.137 . S
Co238 O251 2.244 . S
O239 Co238 2.216 . S
O239 C246 1.247 . S
O240 Co238 2.091 . S
O240 C246 1.261 . S
C241 O250 1.247 . S
C241 O251 1.272 . S
O242 Co238 2.004 . S
O242 C247 1.259 . S
Co243 O244 2.061 . S
Co243 O249 2.052 . S
Co243 O251 2.135 . S
O244 Co243 2.061 . S
O244 C247 1.235 . S
C245 O248 1.238 . S
C245 O249 1.241 . S
C246 O239 1.247 . S
C246 O240 1.261 . S
C247 O242 1.259 . S
C247 O244 1.235 . S
O248 Co238 2.021 . S
O248 C245 1.238 . S
O249 Co243 2.052 . S
O249 C245 1.241 . S
O250 Co238 2.137 . S
O250 C241 1.247 . S
O251 Co238 2.244 . S
O251 C241 1.272 . S
O251 Co243 2.135 . S
Co252 O253 2.216 . S
Co252 O254 2.091 . S
Co252 O256 2.004 . S
Co252 O262 2.021 . S
Co252 O264 2.137 . S
Co252 O265 2.244 . S
O253 Co252 2.216 . S
O253 C260 1.247 . S
O254 Co252 2.091 . S
O254 C260 1.261 . S
C255 O264 1.247 . S
C255 O265 1.272 . S
O256 Co252 2.004 . S
O256 C261 1.259 . S
Co257 O258 2.061 . S
Co257 O263 2.052 . S
Co257 O265 2.135 . S
O258 Co257 2.061 . S
O258 C261 1.235 . S
C259 O262 1.238 . S
C259 O263 1.241 . S
C260 O253 1.247 . S
C260 O254 1.261 . S
C261 O256 1.259 . S
C261 O258 1.235 . S
O262 Co252 2.021 . S
O262 C259 1.238 . S
O263 Co257 2.052 . S
O263 C259 1.241 . S
O264 Co252 2.137 . S
O264 C255 1.247 . S
O265 Co252 2.244 . S
O265 C255 1.272 . S
O265 Co257 2.135 . S
Co266 O267 2.216 . S
Co266 O268 2.091 . S
Co266 O270 2.004 . S
Co266 O276 2.021 . S
Co266 O278 2.137 . S
Co266 O279 2.244 . S
O267 Co266 2.216 . S
O267 C274 1.247 . S
O268 Co266 2.091 . S
O268 C274 1.261 . S
C269 O278 1.247 . S
C269 O279 1.272 . S
O270 Co266 2.004 . S
O270 C275 1.259 . S
Co271 O272 2.061 . S
Co271 O277 2.052 . S
Co271 O279 2.135 . S
O272 Co271 2.061 . S
O272 C275 1.235 . S
C273 O276 1.238 . S
C273 O277 1.241 . S
C274 O267 1.247 . S
C274 O268 1.261 . S
C275 O270 1.259 . S
C275 O272 1.235 . S
O276 Co266 2.021 . S
O276 C273 1.238 . S
O277 Co271 2.052 . S
O277 C273 1.241 . S
O278 Co266 2.137 . S
O278 C269 1.247 . S
O279 Co266 2.244 . S
O279 C269 1.272 . S
O279 Co271 2.135 . S
Co280 O281 2.216 . S
Co280 O282 2.091 . S
Co280 O284 2.004 . S
Co280 O290 2.021 1_556 S
Co280 O292 2.137 . S
Co280 O293 2.244 . S
O281 Co280 2.216 . S
O281 C288 1.246 . S
O282 Co280 2.091 . S
O282 C288 1.261 . S
C283 O292 1.247 . S
C283 O293 1.272 . S
O284 Co280 2.004 . S
O284 C289 1.259 . S
Co285 O286 2.061 . S
Co285 O291 2.052 . S
Co285 O293 2.135 1_554 S
O286 Co285 2.061 . S
O286 C289 1.235 1_554 S
C287 O290 1.238 . S
C287 O291 1.241 . S
C288 O281 1.246 . S
C288 O282 1.261 . S
C289 O284 1.259 . S
C289 O286 1.235 1_556 S
O290 Co280 2.021 1_554 S
O290 C287 1.238 . S
O291 Co285 2.052 . S
O291 C287 1.241 . S
O292 Co280 2.137 . S
O292 C283 1.247 . S
O293 Co280 2.244 . S
O293 C283 1.272 . S
O293 Co285 2.135 1_556 S
Co294 O295 2.216 . S
Co294 O296 2.091 . S
Co294 O298 2.004 . S
Co294 O304 2.021 . S
Co294 O306 2.137 . S
Co294 O307 2.244 . S
O295 Co294 2.216 . S
O295 C302 1.247 . S
O296 Co294 2.091 . S
O296 C302 1.261 . S
C297 O306 1.247 . S
C297 O307 1.272 . S
O298 Co294 2.004 . S
O298 C303 1.259 . S
Co299 O300 2.061 . S
Co299 O305 2.052 . S
Co299 O307 2.135 . S
O300 Co299 2.061 . S
O300 C303 1.235 . S
C301 O304 1.238 . S
C301 O305 1.241 . S
C302 O295 1.247 . S
C302 O296 1.261 . S
C303 O298 1.259 . S
C303 O300 1.235 . S
O304 Co294 2.021 . S
O304 C301 1.238 . S
O305 Co299 2.052 . S
O305 C301 1.241 . S
O306 Co294 2.137 . S
O306 C297 1.247 . S
O307 Co294 2.244 . S
O307 C297 1.272 . S
O307 Co299 2.135 . S
Co308 O309 2.216 . S
Co308 O310 2.091 . S
Co308 O312 2.004 . S
Co308 O318 2.021 . S
Co308 O320 2.137 . S
Co308 O321 2.244 . S
O309 Co308 2.216 . S
O309 C316 1.247 . S
O310 Co308 2.091 . S
O310 C316 1.261 . S
C311 O320 1.247 . S
C311 O321 1.272 . S
O312 Co308 2.004 . S
O312 C317 1.259 . S
Co313 O314 2.061 . S
Co313 O319 2.052 . S
Co313 O321 2.135 . S
O314 Co313 2.061 . S
O314 C317 1.235 . S
C315 O318 1.238 . S
C315 O319 1.241 . S
C316 O309 1.247 . S
C316 O310 1.261 . S
C317 O312 1.259 . S
C317 O314 1.235 . S
O318 Co308 2.021 . S
O318 C315 1.238 . S
O319 Co313 2.052 . S
O319 C315 1.241 . S
O320 Co308 2.137 . S
O320 C311 1.247 . S
O321 Co308 2.244 . S
O321 C311 1.272 . S
O321 Co313 2.135 . S
Co322 O323 2.216 . S
Co322 O324 2.091 . S
Co322 O326 2.004 . S
Co322 O332 2.021 . S
Co322 O334 2.137 . S
Co322 O335 2.244 . S
O323 Co322 2.216 . S
O323 C330 1.247 . S
O324 Co322 2.091 . S
O324 C330 1.261 . S
C325 O334 1.247 . S
C325 O335 1.272 . S
O326 Co322 2.004 . S
O326 C331 1.259 . S
Co327 O328 2.061 . S
Co327 O333 2.052 . S
Co327 O335 2.135 . S
O328 Co327 2.061 . S
O328 C331 1.235 . S
C329 O332 1.238 . S
C329 O333 1.241 . S
C330 O323 1.247 . S
C330 O324 1.261 . S
C331 O326 1.259 . S
C331 O328 1.235 . S
O332 Co322 2.021 . S
O332 C329 1.238 . S
O333 Co327 2.052 . S
O333 C329 1.241 . S
O334 Co322 2.137 . S
O334 C325 1.247 . S
O335 Co322 2.244 . S
O335 C325 1.272 . S
O335 Co327 2.135 . S
Eu336 N367 2.657 1_545 S
Eu336 N374 2.609 1_544 S
Eu336 O380 2.558 1_454 S
Eu336 O381 2.612 . S
Eu336 O383 2.339 . S
Eu336 O384 2.563 . S
Eu336 O385 2.419 1_455 S
Eu336 O387 2.380 . S
Eu336 O388 2.432 1_554 S
Eu336 C400 2.848 1_454 S
C337 C340 1.429 . S
C337 C341 1.411 . S
C337 N344 1.377 . S
C338 C340 1.420 . S
C338 C342 1.423 . S
C338 C350 1.392 . S
C339 C341 1.420 . S
C339 C342 1.351 . S
C339 H362 0.931 . S
C340 C337 1.429 . S
C340 C338 1.420 . S
C340 N348 1.362 . S
C341 C337 1.411 . S
C341 C339 1.420 . S
C341 C346 1.395 . S
C342 C338 1.423 . S
C342 C339 1.351 . S
C342 H354 0.930 . S
C343 C345 1.400 . S
C343 C346 1.386 . S
C343 H355 0.930 . S
N344 C337 1.377 . S
N344 C345 1.321 . S
N344 Eu347 2.609 . S
C345 C343 1.400 . S
C345 N344 1.321 . S
C345 H352 0.930 . S
C346 C341 1.395 . S
C346 C343 1.386 . S
C346 H365 0.930 . S
Eu347 N344 2.609 . S
Eu347 N348 2.657 . S
Eu347 O381 2.380 . S
Eu347 O382 2.432 . S
Eu347 O386 2.558 . S
Eu347 O387 2.612 . S
Eu347 O389 2.339 1_554 S
Eu347 O390 2.563 . S
Eu347 O391 2.419 . S
Eu347 C411 2.848 . S
N348 C340 1.362 . S
N348 Eu347 2.657 . S
N348 C349 1.334 1_554 S
C349 N348 1.334 1_556 S
C349 C351 1.413 . S
C349 H356 0.929 . S
C350 C338 1.392 . S
C350 C351 1.367 1_554 S
C350 H358 0.930 1_554 S
C351 C349 1.413 . S
C351 C350 1.367 1_556 S
C351 H353 0.930 . S
H352 C345 0.930 . S
H353 C351 0.930 . S
H354 C342 0.930 . S
H355 C343 0.930 . S
H356 C349 0.929 . S
H357 C371 0.930 . S
H358 C350 0.930 1_556 S
H359 C377 0.930 . S
H360 C368 0.929 . S
H361 C375 0.929 . S
H362 C339 0.931 . S
H363 C369 0.930 . S
H364 C402 0.906 1_554 S
H365 C346 0.930 . S
H366 C401 0.931 . S
N367 Eu336 2.657 1_565 S
N367 C368 1.334 . S
N367 C372 1.368 . S
C368 H360 0.929 . S
C368 N367 1.334 . S
C368 C371 1.413 . S
C369 H363 0.930 . S
C369 C370 1.392 . S
C369 C371 1.367 1_655 S
C370 C369 1.392 . S
C370 C372 1.414 1_655 S
C370 C402 1.401 1_554 S
C371 H357 0.930 . S
C371 C368 1.413 . S
C371 C369 1.367 1_455 S
C372 N367 1.368 . S
C372 C370 1.414 1_455 S
C372 C376 1.430 1_554 S
H373 C378 0.930 . S
N374 Eu336 2.609 1_566 S
N374 C376 1.377 . S
N374 C377 1.321 . S
C375 H361 0.929 . S
C375 C377 1.396 1_655 S
C375 C378 1.391 . S
C376 C372 1.430 1_556 S
C376 N374 1.377 . S
C376 C379 1.411 1_455 S
C377 H359 0.930 . S
C377 N374 1.321 . S
C377 C375 1.396 1_455 S
C378 H373 0.930 . S
C378 C375 1.391 . S
C378 C379 1.395 . S
C379 C376 1.411 1_655 S
C379 C378 1.395 . S
C379 C401 1.420 . S
O380 Eu336 2.558 1_656 S
O380 C400 1.257 . S
O381 Eu336 2.612 . S
O381 Eu347 2.380 . S
O381 C392 1.276 . S
O382 Eu347 2.432 . S
O382 C399 1.264 . S
O383 Eu336 2.339 . S
O383 C399 1.254 . S
O384 Eu336 2.563 . S
O384 C392 1.235 . S
O385 Eu336 2.419 1_655 S
O385 C400 1.249 1_554 S
O386 Eu347 2.558 . S
O386 C411 1.257 . S
O387 Eu336 2.380 . S
O387 Eu347 2.612 . S
O387 C403 1.276 1_545 S
O388 Eu336 2.432 1_556 S
O388 C410 1.264 . S
O389 Eu347 2.339 1_556 S
O389 C410 1.254 . S
O390 Eu347 2.563 . S
O390 C403 1.235 1_545 S
O391 Eu347 2.419 . S
O391 C411 1.249 . S
C392 O381 1.276 . S
C392 O384 1.235 . S
C393 C395 1.393 1_556 S
C393 C397 1.395 . S
C393 C400 1.492 . S
C394 C395 1.388 1_556 S
C394 C396 1.406 . S
C395 C393 1.393 1_554 S
C395 C394 1.388 1_554 S
C395 H412 0.930 . S
C396 C394 1.406 . S
C396 C398 1.395 . S
C396 H413 0.930 . S
C397 C393 1.395 . S
C397 C398 1.379 . S
C397 H414 0.930 . S
C398 C396 1.395 . S
C398 C397 1.379 . S
C398 H415 0.930 . S
C399 O382 1.264 . S
C399 O383 1.254 . S
C400 Eu336 2.848 1_656 S
C400 O380 1.257 . S
C400 O385 1.249 1_556 S
C400 C393 1.492 . S
C401 H366 0.931 . S
C401 C379 1.420 . S
C401 C402 1.397 . S
C402 H364 0.906 1_556 S
C402 C370 1.401 1_556 S
C402 C401 1.397 . S
C403 O387 1.276 1_565 S
C403 O390 1.235 1_565 S
C404 C405 1.393 . S
C404 C408 1.395 . S
C404 C411 1.492 . S
C405 C404 1.393 . S
C405 C406 1.392 . S
C405 H416 0.930 . S
C406 C405 1.392 . S
C406 C407 1.386 . S
C407 C406 1.386 . S
C407 C409 1.395 . S
C407 H417 0.930 . S
C408 C404 1.395 . S
C408 C409 1.379 . S
C408 H418 0.930 . S
C409 C407 1.395 . S
C409 C408 1.379 . S
C409 H419 0.930 . S
C410 O388 1.264 . S
C410 O389 1.254 . S
C411 Eu347 2.848 . S
C411 O386 1.257 . S
C411 O391 1.249 . S
C411 C404 1.492 . S
H412 C395 0.930 . S
H413 C396 0.930 . S
H414 C397 0.930 . S
H415 C398 0.930 . S
H416 C405 0.930 . S
H417 C407 0.930 . S
H418 C408 0.930 . S
H419 C409 0.930 . S
Eu420 N451 2.657 . S
Eu420 N458 2.609 . S
Eu420 O464 2.558 . S
Eu420 O465 2.612 . S
Eu420 O467 2.339 . S
Eu420 O468 2.563 . S
Eu420 O469 2.419 . S
Eu420 O471 2.380 . S
Eu420 O472 2.432 . S
Eu420 C484 2.848 . S
C421 C424 1.429 . S
C421 C425 1.411 . S
C421 N428 1.377 . S
C422 C424 1.420 . S
C422 C426 1.423 . S
C422 C434 1.392 . S
C423 C425 1.420 . S
C423 C426 1.351 . S
C423 H446 0.931 . S
C424 C421 1.429 . S
C424 C422 1.420 . S
C424 N432 1.362 . S
C425 C421 1.411 . S
C425 C423 1.420 . S
C425 C430 1.395 . S
C426 C422 1.423 . S
C426 C423 1.351 . S
C426 H438 0.930 . S
C427 C429 1.400 . S
C427 C430 1.386 . S
C427 H439 0.930 . S
N428 C421 1.377 . S
N428 C429 1.321 . S
N428 Eu431 2.609 . S
C429 C427 1.400 . S
C429 N428 1.321 . S
C429 H436 0.930 . S
C430 C425 1.395 . S
C430 C427 1.386 . S
C430 H449 0.930 . S
Eu431 N428 2.609 . S
Eu431 N432 2.657 . S
Eu431 O465 2.380 . S
Eu431 O466 2.432 . S
Eu431 O470 2.558 . S
Eu431 O471 2.612 . S
Eu431 O473 2.339 . S
Eu431 O474 2.563 . S
Eu431 O475 2.419 . S
Eu431 C495 2.848 . S
N432 C424 1.362 . S
N432 Eu431 2.657 . S
N432 C433 1.334 . S
C433 N432 1.334 . S
C433 C435 1.413 . S
C433 H440 0.929 . S
C434 C422 1.392 . S
C434 C435 1.367 . S
C434 H442 0.930 . S
C435 C433 1.413 . S
C435 C434 1.367 . S
C435 H437 0.930 . S
H436 C429 0.930 . S
H437 C435 0.930 . S
H438 C426 0.930 . S
H439 C427 0.930 . S
H440 C433 0.929 . S
H441 C455 0.930 . S
H442 C434 0.930 . S
H443 C461 0.930 . S
H444 C452 0.929 . S
H445 C459 0.930 . S
H446 C423 0.931 . S
H447 C453 0.930 . S
H448 C486 0.930 . S
H449 C430 0.930 . S
H450 C485 0.931 . S
N451 Eu420 2.657 . S
N451 C452 1.334 . S
N451 C456 1.362 . S
C452 H444 0.929 . S
C452 N451 1.334 . S
C452 C455 1.413 . S
C453 H447 0.930 . S
C453 C454 1.392 . S
C453 C455 1.367 . S
C454 C453 1.392 . S
C454 C456 1.420 . S
C454 C486 1.423 . S
C455 H441 0.930 . S
C455 C452 1.413 . S
C455 C453 1.367 . S
C456 N451 1.362 . S
C456 C454 1.420 . S
C456 C460 1.429 . S
H457 C462 0.930 . S
N458 Eu420 2.609 . S
N458 C460 1.377 . S
N458 C461 1.321 . S
C459 H445 0.930 . S
C459 C461 1.400 . S
C459 C462 1.386 . S
C460 C456 1.429 . S
C460 N458 1.377 . S
C460 C463 1.411 . S
C461 H443 0.930 . S
C461 N458 1.321 . S
C461 C459 1.400 . S
C462 H457 0.930 . S
C462 C459 1.386 . S
C462 C463 1.395 . S
C463 C460 1.411 . S
C463 C462 1.395 . S
C463 C485 1.420 . S
O464 Eu420 2.558 . S
O464 C484 1.257 . S
O465 Eu420 2.612 . S
O465 Eu431 2.380 . S
O465 C476 1.276 . S
O466 Eu431 2.432 . S
O466 C483 1.264 . S
O467 Eu420 2.339 . S
O467 C483 1.254 . S
O468 Eu420 2.563 . S
O468 C476 1.235 . S
O469 Eu420 2.419 . S
O469 C484 1.249 . S
O470 Eu431 2.558 . S
O470 C495 1.257 . S
O471 Eu420 2.380 . S
O471 Eu431 2.612 . S
O471 C487 1.276 . S
O472 Eu420 2.432 . S
O472 C494 1.264 . S
O473 Eu431 2.339 . S
O473 C494 1.254 . S
O474 Eu431 2.563 . S
O474 C487 1.235 . S
O475 Eu431 2.419 . S
O475 C495 1.249 . S
C476 O465 1.276 . S
C476 O468 1.235 . S
C477 C479 1.393 . S
C477 C481 1.395 . S
C477 C484 1.492 . S
C478 C479 1.392 . S
C478 C480 1.386 . S
C479 C477 1.393 . S
C479 C478 1.392 . S
C479 H496 0.930 . S
C480 C478 1.386 . S
C480 C482 1.395 . S
C480 H497 0.930 . S
C481 C477 1.395 . S
C481 C482 1.379 . S
C481 H498 0.930 . S
C482 C480 1.395 . S
C482 C481 1.379 . S
C482 H499 0.930 . S
C483 O466 1.264 . S
C483 O467 1.254 . S
C484 Eu420 2.848 . S
C484 O464 1.257 . S
C484 O469 1.249 . S
C484 C477 1.492 . S
C485 H450 0.931 . S
C485 C463 1.420 . S
C485 C486 1.351 . S
C486 H448 0.930 . S
C486 C454 1.423 . S
C486 C485 1.351 . S
C487 O471 1.276 . S
C487 O474 1.235 . S
C488 C489 1.393 . S
C488 C492 1.395 . S
C488 C495 1.492 . S
C489 C488 1.393 . S
C489 C490 1.392 . S
C489 H500 0.930 . S
C490 C489 1.392 . S
C490 C491 1.386 . S
C491 C490 1.386 . S
C491 C493 1.395 . S
C491 H501 0.930 . S
C492 C488 1.395 . S
C492 C493 1.379 . S
C492 H502 0.930 . S
C493 C491 1.395 . S
C493 C492 1.379 . S
C493 H503 0.930 . S
C494 O472 1.264 . S
C494 O473 1.254 . S
C495 Eu431 2.848 . S
C495 O470 1.257 . S
C495 O475 1.249 . S
C495 C488 1.492 . S
H496 C479 0.930 . S
H497 C480 0.930 . S
H498 C481 0.930 . S
H499 C482 0.930 . S
H500 C489 0.930 . S
H501 C491 0.930 . S
H502 C492 0.930 . S
H503 C493 0.930 . S
Eu504 N535 2.657 . S
Eu504 N542 2.609 . S
Eu504 O548 2.558 . S
Eu504 O549 2.612 . S
Eu504 O551 2.339 . S
Eu504 O552 2.563 1_545 S
Eu504 O553 2.419 . S
Eu504 O555 2.380 . S
Eu504 O556 2.432 . S
Eu504 C568 2.848 . S
C505 C508 1.429 . S
C505 C509 1.411 . S
C505 N512 1.377 1_565 S
C506 C508 1.420 . S
C506 C510 1.423 . S
C506 C518 1.392 . S
C507 C509 1.420 . S
C507 C510 1.351 . S
C507 H530 0.931 . S
C508 C505 1.429 . S
C508 C506 1.420 . S
C508 N516 1.362 . S
C509 C505 1.411 . S
C509 C507 1.420 . S
C509 C514 1.395 . S
C510 C506 1.423 . S
C510 C507 1.351 . S
C510 H522 0.930 . S
C511 C513 1.387 1_565 S
C511 C514 1.402 . S
C511 H523 0.927 1_565 S
N512 C505 1.377 1_545 S
N512 C513 1.321 . S
N512 Eu515 2.609 . S
C513 C511 1.387 1_545 S
C513 N512 1.321 . S
C513 H520 0.930 . S
C514 C509 1.395 . S
C514 C511 1.402 . S
C514 H533 0.930 . S
Eu515 N512 2.609 . S
Eu515 N516 2.657 1_545 S
Eu515 O549 2.380 . S
Eu515 O550 2.432 . S
Eu515 O554 2.558 . S
Eu515 O555 2.612 . S
Eu515 O557 2.339 . S
Eu515 O558 2.563 . S
Eu515 O559 2.419 . S
Eu515 C579 2.848 . S
N516 C508 1.362 . S
N516 Eu515 2.657 1_565 S
N516 C517 1.334 . S
C517 N516 1.334 . S
C517 C519 1.413 . S
C517 H524 0.929 . S
C518 C506 1.392 . S
C518 C519 1.367 . S
C518 H526 0.930 . S
C519 C517 1.413 . S
C519 C518 1.367 . S
C519 H521 0.930 . S
H520 C513 0.930 . S
H521 C519 0.930 . S
H522 C510 0.930 . S
H523 C511 0.927 1_545 S
H524 C517 0.929 . S
H525 C539 0.930 . S
H526 C518 0.930 . S
H527 C545 0.930 . S
H528 C536 0.929 . S
H529 C543 0.930 . S
H530 C507 0.931 . S
H531 C537 0.930 . S
H532 C570 0.930 . S
H533 C514 0.930 . S
H534 C569 0.931 . S
N535 Eu504 2.657 . S
N535 C536 1.334 . S
N535 C540 1.362 . S
C536 H528 0.929 . S
C536 N535 1.334 . S
C536 C539 1.413 . S
C537 H531 0.930 . S
C537 C538 1.392 . S
C537 C539 1.367 . S
C538 C537 1.392 . S
C538 C540 1.420 . S
C538 C570 1.423 . S
C539 H525 0.930 . S
C539 C536 1.413 . S
C539 C537 1.367 . S
C540 N535 1.362 . S
C540 C538 1.420 . S
C540 C544 1.429 . S
H541 C546 0.930 . S
N542 Eu504 2.609 . S
N542 C544 1.377 . S
N542 C545 1.321 . S
C543 H529 0.930 . S
C543 C545 1.400 . S
C543 C546 1.386 . S
C544 C540 1.429 . S
C544 N542 1.377 . S
C544 C547 1.411 . S
C545 H527 0.930 . S
C545 N542 1.321 . S
C545 C543 1.400 . S
C546 H541 0.930 . S
C546 C543 1.386 . S
C546 C547 1.395 . S
C547 C544 1.411 . S
C547 C546 1.395 . S
C547 C569 1.420 . S
O548 Eu504 2.558 . S
O548 C568 1.257 . S
O549 Eu504 2.612 . S
O549 Eu515 2.380 . S
O549 C560 1.276 1_545 S
O550 Eu515 2.432 . S
O550 C567 1.264 . S
O551 Eu504 2.339 . S
O551 C567 1.254 . S
O552 Eu504 2.563 1_565 S
O552 C560 1.235 . S
O553 Eu504 2.419 . S
O553 C568 1.249 . S
O554 Eu515 2.558 . S
O554 C579 1.257 . S
O555 Eu504 2.380 . S
O555 Eu515 2.612 . S
O555 C571 1.276 . S
O556 Eu504 2.432 . S
O556 C578 1.264 . S
O557 Eu515 2.339 . S
O557 C578 1.254 . S
O558 Eu515 2.563 . S
O558 C571 1.235 . S
O559 Eu515 2.419 . S
O559 C579 1.249 . S
C560 O549 1.276 1_565 S
C560 O552 1.235 . S
C561 C563 1.393 1_545 S
C561 C565 1.395 . S
C561 C568 1.492 . S
C562 C563 1.392 . S
C562 C564 1.386 . S
C563 C561 1.393 1_565 S
C563 C562 1.392 . S
C563 H580 0.930 . S
C564 C562 1.386 . S
C564 C566 1.395 . S
C564 H581 0.930 . S
C565 C561 1.395 . S
C565 C566 1.379 1_545 S
C565 H582 0.930 . S
C566 C564 1.395 . S
C566 C565 1.379 1_565 S
C566 H583 0.930 . S
C567 O550 1.264 . S
C567 O551 1.254 . S
C568 Eu504 2.848 . S
C568 O548 1.257 . S
C568 O553 1.249 . S
C568 C561 1.492 . S
C569 H534 0.931 . S
C569 C547 1.420 . S
C569 C570 1.351 . S
C570 H532 0.930 . S
C570 C538 1.423 . S
C570 C569 1.351 . S
C571 O555 1.276 . S
C571 O558 1.235 . S
C572 C573 1.393 . S
C572 C576 1.395 . S
C572 C579 1.492 . S
C573 C572 1.393 . S
C573 C574 1.392 . S
C573 H584 0.930 . S
C574 C573 1.392 . S
C574 C575 1.386 . S
C575 C574 1.386 . S
C575 C577 1.395 . S
C575 H585 0.930 . S
C576 C572 1.395 . S
C576 C577 1.379 . S
C576 H586 0.930 . S
C577 C575 1.395 . S
C577 C576 1.379 . S
C577 H587 0.930 . S
C578 O556 1.264 . S
C578 O557 1.254 . S
C579 Eu515 2.848 . S
C579 O554 1.257 . S
C579 O559 1.249 . S
C579 C572 1.492 . S
H580 C563 0.930 . S
H581 C564 0.930 . S
H582 C565 0.930 . S
H583 C566 0.930 . S
H584 C573 0.930 . S
H585 C575 0.930 . S
H586 C576 0.930 . S
H587 C577 0.930 . S
Eu588 N619 2.657 . S
Eu588 N626 2.609 . S
Eu588 O632 2.558 . S
Eu588 O633 2.612 . S
Eu588 O635 2.339 . S
Eu588 O636 2.563 . S
Eu588 O637 2.419 . S
Eu588 O639 2.380 . S
Eu588 O640 2.432 . S
Eu588 C652 2.848 . S
C589 C592 1.429 . S
C589 C593 1.411 . S
C589 N596 1.377 . S
C590 C592 1.420 . S
C590 C594 1.423 . S
C590 C602 1.392 . S
C591 C593 1.420 . S
C591 C594 1.351 . S
C591 H614 0.931 . S
C592 C589 1.429 . S
C592 C590 1.420 . S
C592 N600 1.362 . S
C593 C589 1.411 . S
C593 C591 1.420 . S
C593 C598 1.395 . S
C594 C590 1.423 . S
C594 C591 1.351 . S
C594 H606 0.930 . S
C595 C597 1.400 . S
C595 C598 1.386 . S
C595 H607 0.930 . S
N596 C589 1.377 . S
N596 C597 1.321 . S
N596 Eu599 2.609 . S
C597 C595 1.400 . S
C597 N596 1.321 . S
C597 H604 0.930 . S
C598 C593 1.395 . S
C598 C595 1.386 . S
C598 H617 0.930 . S
Eu599 N596 2.609 . S
Eu599 N600 2.657 . S
Eu599 O633 2.380 . S
Eu599 O634 2.432 . S
Eu599 O638 2.558 . S
Eu599 O639 2.612 . S
Eu599 O641 2.339 . S
Eu599 O642 2.563 . S
Eu599 O643 2.419 . S
Eu599 C663 2.848 . S
N600 C592 1.362 . S
N600 Eu599 2.657 . S
N600 C601 1.334 . S
C601 N600 1.334 . S
C601 C603 1.413 . S
C601 H608 0.929 . S
C602 C590 1.392 . S
C602 C603 1.367 . S
C602 H610 0.930 . S
C603 C601 1.413 . S
C603 C602 1.367 . S
C603 H605 0.930 . S
H604 C597 0.930 . S
H605 C603 0.930 . S
H606 C594 0.930 . S
H607 C595 0.930 . S
H608 C601 0.929 . S
H609 C623 0.930 . S
H610 C602 0.930 . S
H611 C629 0.930 . S
H612 C620 0.929 . S
H613 C627 0.930 . S
H614 C591 0.931 . S
H615 C621 0.930 . S
H616 C654 0.930 . S
H617 C598 0.930 . S
H618 C653 0.931 . S
N619 Eu588 2.657 . S
N619 C620 1.334 . S
N619 C624 1.362 . S
C620 H612 0.929 . S
C620 N619 1.334 . S
C620 C623 1.413 . S
C621 H615 0.930 . S
C621 C622 1.392 . S
C621 C623 1.367 . S
C622 C621 1.392 . S
C622 C624 1.420 . S
C622 C654 1.423 . S
C623 H609 0.930 . S
C623 C620 1.413 . S
C623 C621 1.367 . S
C624 N619 1.362 . S
C624 C622 1.420 . S
C624 C628 1.429 . S
H625 C630 0.930 . S
N626 Eu588 2.609 . S
N626 C628 1.377 . S
N626 C629 1.321 . S
C627 H613 0.930 . S
C627 C629 1.400 . S
C627 C630 1.386 . S
C628 C624 1.429 . S
C628 N626 1.377 . S
C628 C631 1.411 . S
C629 H611 0.930 . S
C629 N626 1.321 . S
C629 C627 1.400 . S
C630 H625 0.930 . S
C630 C627 1.386 . S
C630 C631 1.395 . S
C631 C628 1.411 . S
C631 C630 1.395 . S
C631 C653 1.420 . S
O632 Eu588 2.558 . S
O632 C652 1.257 . S
O633 Eu588 2.612 . S
O633 Eu599 2.380 . S
O633 C644 1.276 . S
O634 Eu599 2.432 . S
O634 C651 1.264 . S
O635 Eu588 2.339 . S
O635 C651 1.254 . S
O636 Eu588 2.563 . S
O636 C644 1.235 . S
O637 Eu588 2.419 . S
O637 C652 1.249 . S
O638 Eu599 2.558 . S
O638 C663 1.257 . S
O639 Eu588 2.380 . S
O639 Eu599 2.612 . S
O639 C655 1.276 . S
O640 Eu588 2.432 . S
O640 C662 1.264 . S
O641 Eu599 2.339 . S
O641 C662 1.254 . S
O642 Eu599 2.563 . S
O642 C655 1.235 . S
O643 Eu599 2.419 . S
O643 C663 1.249 . S
C644 O633 1.276 . S
C644 O636 1.235 . S
C645 C647 1.393 . S
C645 C649 1.395 . S
C645 C652 1.492 . S
C646 C647 1.392 . S
C646 C648 1.386 . S
C647 C645 1.393 . S
C647 C646 1.392 . S
C647 H664 0.930 . S
C648 C646 1.386 . S
C648 C650 1.395 . S
C648 H665 0.930 . S
C649 C645 1.395 . S
C649 C650 1.379 . S
C649 H666 0.930 . S
C650 C648 1.395 . S
C650 C649 1.379 . S
C650 H667 0.930 . S
C651 O634 1.264 . S
C651 O635 1.254 . S
C652 Eu588 2.848 . S
C652 O632 1.257 . S
C652 O637 1.249 . S
C652 C645 1.492 . S
C653 H618 0.931 . S
C653 C631 1.420 . S
C653 C654 1.351 . S
C654 H616 0.930 . S
C654 C622 1.423 . S
C654 C653 1.351 . S
C655 O639 1.276 . S
C655 O642 1.235 . S
C656 C657 1.393 . S
C656 C660 1.395 . S
C656 C663 1.492 . S
C657 C656 1.393 . S
C657 C658 1.392 . S
C657 H668 0.930 . S
C658 C657 1.392 . S
C658 C659 1.386 . S
C659 C658 1.386 . S
C659 C661 1.395 . S
C659 H669 0.930 . S
C660 C656 1.395 . S
C660 C661 1.379 . S
C660 H670 0.930 . S
C661 C659 1.395 . S
C661 C660 1.379 . S
C661 H671 0.930 . S
C662 O640 1.264 . S
C662 O641 1.254 . S
C663 Eu599 2.848 . S
C663 O638 1.257 . S
C663 O643 1.249 . S
C663 C656 1.492 . S
H664 C647 0.930 . S
H665 C648 0.930 . S
H666 C649 0.930 . S
H667 C650 0.930 . S
H668 C657 0.930 . S
H669 C659 0.930 . S
H670 C660 0.930 . S
H671 C661 0.930 . S
Eu672 N703 2.657 . S
Eu672 N710 2.609 . S
Eu672 O716 2.558 . S
Eu672 O717 2.612 . S
Eu672 O719 2.339 . S
Eu672 O720 2.563 . S
Eu672 O721 2.419 . S
Eu672 O723 2.380 . S
Eu672 O724 2.432 . S
Eu672 C736 2.848 . S
C673 C676 1.429 . S
C673 C677 1.411 . S
C673 N680 1.377 . S
C674 C676 1.420 . S
C674 C678 1.423 . S
C674 C686 1.392 . S
C675 C677 1.420 . S
C675 C678 1.351 . S
C675 H698 0.931 . S
C676 C673 1.429 . S
C676 C674 1.420 . S
C676 N684 1.362 . S
C677 C673 1.411 . S
C677 C675 1.420 . S
C677 C682 1.395 . S
C678 C674 1.423 . S
C678 C675 1.351 . S
C678 H690 0.930 . S
C679 C681 1.400 . S
C679 C682 1.386 . S
C679 H691 0.930 . S
N680 C673 1.377 . S
N680 C681 1.321 . S
N680 Eu683 2.609 . S
C681 C679 1.400 . S
C681 N680 1.321 . S
C681 H688 0.930 . S
C682 C677 1.395 . S
C682 C679 1.386 . S
C682 H701 0.930 . S
Eu683 N680 2.609 . S
Eu683 N684 2.657 . S
Eu683 O717 2.381 1_565 S
Eu683 O718 2.432 1_565 S
Eu683 O722 2.558 . S
Eu683 O723 2.613 1_565 S
Eu683 O725 2.338 . S
Eu683 O726 2.563 1_565 S
Eu683 O727 2.418 . S
Eu683 C747 2.847 . S
N684 C676 1.362 . S
N684 Eu683 2.657 . S
N684 C685 1.334 . S
C685 N684 1.334 . S
C685 C687 1.418 . S
C685 H692 0.929 . S
C686 C674 1.392 . S
C686 C687 1.372 . S
C686 H694 0.920 1_455 S
C687 C685 1.418 . S
C687 C686 1.372 . S
C687 H689 0.921 1_455 S
H688 C681 0.930 . S
H689 C687 0.921 1_655 S
H690 C678 0.930 . S
H691 C679 0.930 . S
H692 C685 0.929 . S
H693 C707 0.930 . S
H694 C686 0.920 1_655 S
H695 C713 0.930 . S
H696 C704 0.929 . S
H697 C711 0.930 1_655 S
H698 C675 0.931 . S
H699 C705 0.930 . S
H700 C738 0.930 . S
H701 C682 0.930 . S
H702 C737 0.931 . S
N703 Eu672 2.657 . S
N703 C704 1.334 . S
N703 C708 1.362 . S
C704 H696 0.929 . S
C704 N703 1.334 . S
C704 C707 1.413 . S
C705 H699 0.930 . S
C705 C706 1.392 . S
C705 C707 1.367 . S
C706 C705 1.392 . S
C706 C708 1.420 . S
C706 C738 1.423 . S
C707 H693 0.930 . S
C707 C704 1.413 . S
C707 C705 1.367 . S
C708 N703 1.362 . S
C708 C706 1.420 . S
C708 C712 1.429 . S
H709 C714 0.930 . S
N710 Eu672 2.609 . S
N710 C712 1.377 . S
N710 C713 1.321 . S
C711 H697 0.930 1_455 S
C711 C713 1.400 . S
C711 C714 1.386 . S
C712 C708 1.429 . S
C712 N710 1.377 . S
C712 C715 1.411 . S
C713 H695 0.930 . S
C713 N710 1.321 . S
C713 C711 1.400 . S
C714 H709 0.930 . S
C714 C711 1.386 . S
C714 C715 1.395 . S
C715 C712 1.411 . S
C715 C714 1.395 . S
C715 C737 1.420 . S
O716 Eu672 2.558 . S
O716 C736 1.257 . S
O717 Eu672 2.612 . S
O717 Eu683 2.381 1_545 S
O717 C728 1.276 . S
O718 Eu683 2.432 1_545 S
O718 C735 1.264 . S
O719 Eu672 2.339 . S
O719 C735 1.254 . S
O720 Eu672 2.563 . S
O720 C728 1.235 . S
O721 Eu672 2.419 . S
O721 C736 1.249 . S
O722 Eu683 2.558 . S
O722 C747 1.257 . S
O723 Eu672 2.380 . S
O723 Eu683 2.613 1_545 S
O723 C739 1.276 . S
O724 Eu672 2.432 . S
O724 C746 1.264 . S
O725 Eu683 2.338 . S
O725 C746 1.255 1_565 S
O726 Eu683 2.563 1_545 S
O726 C739 1.235 . S
O727 Eu683 2.418 . S
O727 C747 1.249 . S
C728 O717 1.276 . S
C728 O720 1.235 . S
C729 C731 1.393 . S
C729 C733 1.395 . S
C729 C736 1.492 . S
C730 C731 1.392 . S
C730 C732 1.386 . S
C731 C729 1.393 . S
C731 C730 1.392 . S
C731 H748 0.930 . S
C732 C730 1.386 . S
C732 C734 1.395 . S
C732 H749 0.930 . S
C733 C729 1.395 . S
C733 C734 1.379 . S
C733 H750 0.930 . S
C734 C732 1.395 . S
C734 C733 1.379 . S
C734 H751 0.930 . S
C735 O718 1.264 . S
C735 O719 1.254 . S
C736 Eu672 2.848 . S
C736 O716 1.257 . S
C736 O721 1.249 . S
C736 C729 1.492 . S
C737 H702 0.931 . S
C737 C715 1.420 . S
C737 C738 1.351 . S
C738 H700 0.930 . S
C738 C706 1.423 . S
C738 C737 1.351 . S
C739 O723 1.276 . S
C739 O726 1.235 . S
C740 C741 1.393 . S
C740 C744 1.395 . S
C740 C747 1.492 . S
C741 C740 1.393 . S
C741 C742 1.392 . S
C741 H752 0.930 . S
C742 C741 1.392 . S
C742 C743 1.386 . S
C743 C742 1.386 . S
C743 C745 1.395 . S
C743 H753 0.930 . S
C744 C740 1.395 . S
C744 C745 1.379 . S
C744 H754 0.930 . S
C745 C743 1.395 . S
C745 C744 1.379 . S
C745 H755 0.930 . S
C746 O724 1.264 . S
C746 O725 1.255 1_545 S
C747 Eu683 2.847 . S
C747 O722 1.257 . S
C747 O727 1.249 . S
C747 C740 1.492 . S
H748 C731 0.930 . S
H749 C732 0.930 . S
H750 C733 0.930 . S
H751 C734 0.930 . S
H752 C741 0.930 . S
H753 C743 0.930 . S
H754 C744 0.930 . S
H755 C745 0.930 . S
Eu756 N787 2.657 . S
Eu756 N794 2.609 . S
Eu756 O800 2.558 . S
Eu756 O801 2.612 . S
Eu756 O803 2.339 . S
Eu756 O804 2.563 . S
Eu756 O805 2.419 . S
Eu756 O807 2.380 . S
Eu756 O808 2.432 . S
Eu756 C820 2.848 . S
C757 C760 1.429 . S
C757 C761 1.411 . S
C757 N764 1.377 . S
C758 C760 1.420 . S
C758 C762 1.423 . S
C758 C770 1.392 . S
C759 C761 1.420 . S
C759 C762 1.351 . S
C759 H782 0.931 . S
C760 C757 1.429 . S
C760 C758 1.420 . S
C760 N768 1.362 . S
C761 C757 1.411 . S
C761 C759 1.420 . S
C761 C766 1.395 . S
C762 C758 1.423 . S
C762 C759 1.351 . S
C762 H774 0.930 . S
C763 C765 1.400 . S
C763 C766 1.386 . S
C763 H775 0.930 . S
N764 C757 1.377 . S
N764 C765 1.321 . S
N764 Eu767 2.609 . S
C765 C763 1.400 . S
C765 N764 1.321 . S
C765 H772 0.930 . S
C766 C761 1.395 . S
C766 C763 1.386 . S
C766 H785 0.930 . S
Eu767 N764 2.609 . S
Eu767 N768 2.657 . S
Eu767 O801 2.380 . S
Eu767 O802 2.432 . S
Eu767 O806 2.558 . S
Eu767 O807 2.612 . S
Eu767 O809 2.339 . S
Eu767 O810 2.563 . S
Eu767 O811 2.419 . S
Eu767 C831 2.848 . S
N768 C760 1.362 . S
N768 Eu767 2.657 . S
N768 C769 1.334 . S
C769 N768 1.334 . S
C769 C771 1.413 . S
C769 H776 0.929 . S
C770 C758 1.392 . S
C770 C771 1.367 . S
C770 H778 0.930 . S
C771 C769 1.413 . S
C771 C770 1.367 . S
C771 H773 0.930 . S
H772 C765 0.930 . S
H773 C771 0.930 . S
H774 C762 0.930 . S
H775 C763 0.930 . S
H776 C769 0.929 . S
H777 C791 0.930 . S
H778 C770 0.930 . S
H779 C797 0.930 . S
H780 C788 0.929 . S
H781 C795 0.930 . S
H782 C759 0.931 . S
H783 C789 0.930 . S
H784 C822 0.930 . S
H785 C766 0.930 . S
H786 C821 0.931 . S
N787 Eu756 2.657 . S
N787 C788 1.334 . S
N787 C792 1.362 . S
C788 H780 0.929 . S
C788 N787 1.334 . S
C788 C791 1.413 . S
C789 H783 0.930 . S
C789 C790 1.392 . S
C789 C791 1.367 . S
C790 C789 1.392 . S
C790 C792 1.420 . S
C790 C822 1.423 . S
C791 H777 0.930 . S
C791 C788 1.413 . S
C791 C789 1.367 . S
C792 N787 1.362 . S
C792 C790 1.420 . S
C792 C796 1.429 . S
H793 C798 0.930 . S
N794 Eu756 2.609 . S
N794 C796 1.377 . S
N794 C797 1.321 . S
C795 H781 0.930 . S
C795 C797 1.400 . S
C795 C798 1.386 . S
C796 C792 1.429 . S
C796 N794 1.377 . S
C796 C799 1.411 . S
C797 H779 0.930 . S
C797 N794 1.321 . S
C797 C795 1.400 . S
C798 H793 0.930 . S
C798 C795 1.386 . S
C798 C799 1.395 . S
C799 C796 1.411 . S
C799 C798 1.395 . S
C799 C821 1.420 . S
O800 Eu756 2.558 . S
O800 C820 1.257 . S
O801 Eu756 2.612 . S
O801 Eu767 2.380 . S
O801 C812 1.276 . S
O802 Eu767 2.432 . S
O802 C819 1.264 . S
O803 Eu756 2.339 . S
O803 C819 1.254 . S
O804 Eu756 2.563 . S
O804 C812 1.235 . S
O805 Eu756 2.419 . S
O805 C820 1.249 . S
O806 Eu767 2.558 . S
O806 C831 1.257 . S
O807 Eu756 2.380 . S
O807 Eu767 2.612 . S
O807 C823 1.276 . S
O808 Eu756 2.432 . S
O808 C830 1.264 . S
O809 Eu767 2.339 . S
O809 C830 1.254 . S
O810 Eu767 2.563 . S
O810 C823 1.235 . S
O811 Eu767 2.419 . S
O811 C831 1.249 . S
C812 O801 1.276 . S
C812 O804 1.235 . S
C813 C815 1.393 . S
C813 C817 1.395 . S
C813 C820 1.492 . S
C814 C815 1.392 . S
C814 C816 1.386 . S
C815 C813 1.393 . S
C815 C814 1.392 . S
C815 H832 0.930 . S
C816 C814 1.386 . S
C816 C818 1.395 . S
C816 H833 0.930 . S
C817 C813 1.395 . S
C817 C818 1.379 . S
C817 H834 0.930 . S
C818 C816 1.395 . S
C818 C817 1.379 . S
C818 H835 0.930 . S
C819 O802 1.264 . S
C819 O803 1.254 . S
C820 Eu756 2.848 . S
C820 O800 1.257 . S
C820 O805 1.249 . S
C820 C813 1.492 . S
C821 H786 0.931 . S
C821 C799 1.420 . S
C821 C822 1.351 . S
C822 H784 0.930 . S
C822 C790 1.423 . S
C822 C821 1.351 . S
C823 O807 1.276 . S
C823 O810 1.235 . S
C824 C825 1.393 . S
C824 C828 1.395 . S
C824 C831 1.492 . S
C825 C824 1.393 . S
C825 C826 1.392 . S
C825 H836 0.930 . S
C826 C825 1.392 . S
C826 C827 1.386 . S
C827 C826 1.386 . S
C827 C829 1.395 . S
C827 H837 0.930 . S
C828 C824 1.395 . S
C828 C829 1.379 . S
C828 H838 0.930 . S
C829 C827 1.395 . S
C829 C828 1.379 . S
C829 H839 0.930 . S
C830 O808 1.264 . S
C830 O809 1.254 . S
C831 Eu767 2.848 . S
C831 O806 1.257 . S
C831 O811 1.249 . S
C831 C824 1.492 . S
H832 C815 0.930 . S
H833 C816 0.930 . S
H834 C817 0.930 . S
H835 C818 0.930 . S
H836 C825 0.930 . S
H837 C827 0.930 . S
H838 C828 0.930 . S
H839 C829 0.930 . S
Eu840 N871 2.657 . S
Eu840 N878 2.609 . S
Eu840 O884 2.558 1_545 S
Eu840 O885 2.612 . S
Eu840 O887 2.339 . S
Eu840 O888 2.563 . S
Eu840 O889 2.419 . S
Eu840 O891 2.380 . S
Eu840 O892 2.432 1_545 S
Eu840 C904 2.848 . S
C841 C844 1.429 . S
C841 C845 1.411 . S
C841 N848 1.377 . S
C842 C844 1.420 . S
C842 C846 1.423 . S
C842 C854 1.392 1_545 S
C843 C845 1.420 . S
C843 C846 1.351 . S
C843 H866 0.931 . S
C844 C841 1.429 . S
C844 C842 1.420 . S
C844 N852 1.362 . S
C845 C841 1.411 . S
C845 C843 1.420 . S
C845 C850 1.395 . S
C846 C842 1.423 . S
C846 C843 1.351 . S
C846 H858 0.930 . S
C847 C849 1.400 . S
C847 C850 1.386 . S
C847 H859 0.930 . S
N848 C841 1.377 . S
N848 C849 1.321 . S
N848 Eu851 2.609 . S
C849 C847 1.400 . S
C849 N848 1.321 . S
C849 H856 0.930 . S
C850 C845 1.395 . S
C850 C847 1.386 . S
C850 H869 0.930 . S
Eu851 N848 2.609 . S
Eu851 N852 2.657 . S
Eu851 O885 2.380 1_556 S
Eu851 O886 2.432 1_556 S
Eu851 O890 2.558 . S
Eu851 O891 2.612 1_556 S
Eu851 O893 2.339 . S
Eu851 O894 2.563 . S
Eu851 O895 2.419 . S
Eu851 C915 2.848 . S
N852 C844 1.362 . S
N852 Eu851 2.657 . S
N852 C853 1.334 1_545 S
C853 N852 1.334 1_565 S
C853 C855 1.413 . S
C853 H860 0.929 . S
C854 C842 1.392 1_565 S
C854 C855 1.367 . S
C854 H862 0.930 . S
C855 C853 1.413 . S
C855 C854 1.367 . S
C855 H857 0.930 . S
H856 C849 0.930 . S
H857 C855 0.930 . S
H858 C846 0.930 . S
H859 C847 0.930 . S
H860 C853 0.929 . S
H861 C875 0.930 . S
H862 C854 0.930 . S
H863 C881 0.930 . S
H864 C872 0.929 . S
H865 C879 0.930 . S
H866 C843 0.931 . S
H867 C873 0.930 . S
H868 C906 0.930 . S
H869 C850 0.930 . S
H870 C905 0.931 . S
N871 Eu840 2.657 . S
N871 C872 1.334 . S
N871 C876 1.362 . S
C872 H864 0.929 . S
C872 N871 1.334 . S
C872 C875 1.413 . S
C873 H867 0.930 . S
C873 C874 1.392 . S
C873 C875 1.367 . S
C874 C873 1.392 . S
C874 C876 1.420 . S
C874 C906 1.423 . S
C875 H861 0.930 . S
C875 C872 1.413 . S
C875 C873 1.367 . S
C876 N871 1.362 . S
C876 C874 1.420 . S
C876 C880 1.429 . S
H877 C882 0.930 . S
N878 Eu840 2.609 . S
N878 C880 1.377 . S
N878 C881 1.321 1_545 S
C879 H865 0.930 . S
C879 C881 1.400 . S
C879 C882 1.386 . S
C880 C876 1.429 . S
C880 N878 1.377 . S
C880 C883 1.411 . S
C881 H863 0.930 . S
C881 N878 1.321 1_565 S
C881 C879 1.400 . S
C882 H877 0.930 . S
C882 C879 1.386 . S
C882 C883 1.395 1_565 S
C883 C880 1.411 . S
C883 C882 1.395 1_545 S
C883 C905 1.420 . S
O884 Eu840 2.558 1_565 S
O884 C904 1.257 1_565 S
O885 Eu840 2.612 . S
O885 Eu851 2.380 1_554 S
O885 C896 1.276 . S
O886 Eu851 2.432 1_554 S
O886 C903 1.264 . S
O887 Eu840 2.339 . S
O887 C903 1.254 . S
O888 Eu840 2.563 . S
O888 C896 1.235 . S
O889 Eu840 2.419 . S
O889 C904 1.249 . S
O890 Eu851 2.558 . S
O890 C915 1.257 . S
O891 Eu840 2.380 . S
O891 Eu851 2.612 1_554 S
O891 C907 1.276 . S
O892 Eu840 2.432 1_565 S
O892 C914 1.264 1_554 S
O893 Eu851 2.339 . S
O893 C914 1.254 1_545 S
O894 Eu851 2.563 . S
O894 C907 1.235 1_556 S
O895 Eu851 2.419 . S
O895 C915 1.249 . S
C896 O885 1.276 . S
C896 O888 1.235 . S
C897 C899 1.393 . S
C897 C901 1.395 1_545 S
C897 C904 1.492 . S
C898 C899 1.392 . S
C898 C900 1.386 1_545 S
C899 C897 1.393 . S
C899 C898 1.392 . S
C899 H916 0.930 . S
C900 C898 1.386 1_565 S
C900 C902 1.395 . S
C900 H917 0.930 . S
C901 C897 1.395 1_565 S
C901 C902 1.379 . S
C901 H918 0.930 . S
C902 C900 1.395 . S
C902 C901 1.379 . S
C902 H919 0.930 . S
C903 O886 1.264 . S
C903 O887 1.254 . S
C904 Eu840 2.848 . S
C904 O884 1.257 1_545 S
C904 O889 1.249 . S
C904 C897 1.492 . S
C905 H870 0.931 . S
C905 C883 1.420 . S
C905 C906 1.351 . S
C906 H868 0.930 . S
C906 C874 1.423 . S
C906 C905 1.351 . S
C907 O891 1.276 . S
C907 O894 1.235 1_554 S
C908 C909 1.393 . S
C908 C912 1.395 . S
C908 C915 1.492 . S
C909 C908 1.393 . S
C909 C910 1.392 . S
C909 H920 0.930 . S
C910 C909 1.392 . S
C910 C911 1.386 . S
C911 C910 1.386 . S
C911 C913 1.395 . S
C911 H921 0.930 . S
C912 C908 1.395 . S
C912 C913 1.379 . S
C912 H922 0.930 . S
C913 C911 1.395 . S
C913 C912 1.379 . S
C913 H923 0.930 . S
C914 O892 1.264 1_556 S
C914 O893 1.254 1_565 S
C915 Eu851 2.848 . S
C915 O890 1.257 . S
C915 O895 1.249 . S
C915 C908 1.492 . S
H916 C899 0.930 . S
H917 C900 0.930 . S
H918 C901 0.930 . S
H919 C902 0.930 . S
H920 C909 0.930 . S
H921 C911 0.930 . S
H922 C912 0.930 . S
H923 C913 0.930 . S
Eu924 N955 2.657 . S
Eu924 N962 2.609 . S
Eu924 O968 2.558 . S
Eu924 O969 2.612 . S
Eu924 O971 2.339 . S
Eu924 O972 2.563 . S
Eu924 O973 2.419 . S
Eu924 O975 2.380 . S
Eu924 O976 2.432 . S
Eu924 C988 2.848 . S
C925 C928 1.429 . S
C925 C929 1.411 . S
C925 N932 1.377 . S
C926 C928 1.420 . S
C926 C930 1.423 . S
C926 C938 1.392 . S
C927 C929 1.420 . S
C927 C930 1.351 . S
C927 H950 0.931 . S
C928 C925 1.429 . S
C928 C926 1.420 . S
C928 N936 1.362 . S
C929 C925 1.411 . S
C929 C927 1.420 . S
C929 C934 1.395 . S
C930 C926 1.423 . S
C930 C927 1.351 . S
C930 H942 0.930 . S
C931 C933 1.400 . S
C931 C934 1.386 . S
C931 H943 0.930 . S
N932 C925 1.377 . S
N932 C933 1.321 . S
N932 Eu935 2.609 . S
C933 C931 1.400 . S
C933 N932 1.321 . S
C933 H940 0.930 . S
C934 C929 1.395 . S
C934 C931 1.386 . S
C934 H953 0.930 . S
Eu935 N932 2.609 . S
Eu935 N936 2.657 . S
Eu935 O969 2.380 . S
Eu935 O970 2.432 . S
Eu935 O974 2.558 . S
Eu935 O975 2.612 . S
Eu935 O977 2.339 . S
Eu935 O978 2.563 . S
Eu935 O979 2.419 . S
Eu935 C999 2.848 . S
N936 C928 1.362 . S
N936 Eu935 2.657 . S
N936 C937 1.334 . S
C937 N936 1.334 . S
C937 C939 1.413 . S
C937 H944 0.929 . S
C938 C926 1.392 . S
C938 C939 1.367 . S
C938 H946 0.930 . S
C939 C937 1.413 . S
C939 C938 1.367 . S
C939 H941 0.930 . S
H940 C933 0.930 . S
H941 C939 0.930 . S
H942 C930 0.930 . S
H943 C931 0.930 . S
H944 C937 0.929 . S
H945 C959 0.930 . S
H946 C938 0.930 . S
H947 C965 0.930 . S
H948 C956 0.929 . S
H949 C963 0.930 . S
H950 C927 0.931 . S
H951 C957 0.930 . S
H952 C990 0.930 . S
H953 C934 0.930 . S
H954 C989 0.931 . S
N955 Eu924 2.657 . S
N955 C956 1.334 . S
N955 C960 1.362 . S
C956 H948 0.929 . S
C956 N955 1.334 . S
C956 C959 1.413 . S
C957 H951 0.930 . S
C957 C958 1.392 . S
C957 C959 1.367 . S
C958 C957 1.392 . S
C958 C960 1.420 . S
C958 C990 1.423 . S
C959 H945 0.930 . S
C959 C956 1.413 . S
C959 C957 1.367 . S
C960 N955 1.362 . S
C960 C958 1.420 . S
C960 C964 1.429 . S
H961 C966 0.930 . S
N962 Eu924 2.609 . S
N962 C964 1.377 . S
N962 C965 1.321 . S
C963 H949 0.930 . S
C963 C965 1.400 . S
C963 C966 1.386 . S
C964 C960 1.429 . S
C964 N962 1.377 . S
C964 C967 1.411 . S
C965 H947 0.930 . S
C965 N962 1.321 . S
C965 C963 1.400 . S
C966 H961 0.930 . S
C966 C963 1.386 . S
C966 C967 1.395 . S
C967 C964 1.411 . S
C967 C966 1.395 . S
C967 C989 1.420 . S
O968 Eu924 2.558 . S
O968 C988 1.257 . S
O969 Eu924 2.612 . S
O969 Eu935 2.380 . S
O969 C980 1.276 . S
O970 Eu935 2.432 . S
O970 C987 1.264 . S
O971 Eu924 2.339 . S
O971 C987 1.254 . S
O972 Eu924 2.563 . S
O972 C980 1.235 . S
O973 Eu924 2.419 . S
O973 C988 1.249 . S
O974 Eu935 2.558 . S
O974 C999 1.257 . S
O975 Eu924 2.380 . S
O975 Eu935 2.612 . S
O975 C991 1.276 . S
O976 Eu924 2.432 . S
O976 C998 1.264 . S
O977 Eu935 2.339 . S
O977 C998 1.254 . S
O978 Eu935 2.563 . S
O978 C991 1.235 . S
O979 Eu935 2.419 . S
O979 C999 1.249 . S
C980 O969 1.276 . S
C980 O972 1.235 . S
C981 C983 1.393 . S
C981 C985 1.395 . S
C981 C988 1.492 . S
C982 C983 1.392 . S
C982 C984 1.386 . S
C983 C981 1.393 . S
C983 C982 1.392 . S
C983 H1000 0.930 . S
C984 C982 1.386 . S
C984 C986 1.395 . S
C984 H1001 0.930 . S
C985 C981 1.395 . S
C985 C986 1.379 . S
C985 H1002 0.930 . S
C986 C984 1.395 . S
C986 C985 1.379 . S
C986 H1003 0.930 . S
C987 O970 1.264 . S
C987 O971 1.254 . S
C988 Eu924 2.848 . S
C988 O968 1.257 . S
C988 O973 1.249 . S
C988 C981 1.492 . S
C989 H954 0.931 . S
C989 C967 1.420 . S
C989 C990 1.351 . S
C990 H952 0.930 . S
C990 C958 1.423 . S
C990 C989 1.351 . S
C991 O975 1.276 . S
C991 O978 1.235 . S
C992 C993 1.393 . S
C992 C996 1.395 . S
C992 C999 1.492 . S
C993 C992 1.393 . S
C993 C994 1.392 . S
C993 H1004 0.930 . S
C994 C993 1.392 . S
C994 C995 1.386 . S
C995 C994 1.386 . S
C995 C997 1.395 . S
C995 H1005 0.930 . S
C996 C992 1.395 . S
C996 C997 1.379 . S
C996 H1006 0.930 . S
C997 C995 1.395 . S
C997 C996 1.379 . S
C997 H1007 0.930 . S
C998 O976 1.264 . S
C998 O977 1.254 . S
C999 Eu935 2.848 . S
C999 O974 1.257 . S
C999 O979 1.249 . S
C999 C992 1.492 . S
H1000 C983 0.930 . S
H1001 C984 0.930 . S
H1002 C985 0.930 . S
H1003 C986 0.930 . S
H1004 C993 0.930 . S
H1005 C995 0.930 . S
H1006 C996 0.930 . S
H1007 C997 0.930 . S
Eu1008 N1039 2.657 . S
Eu1008 N1046 2.609 . S
Eu1008 O1052 2.558 . S
Eu1008 O1053 2.612 1_554 S
Eu1008 O1055 2.339 . S
Eu1008 O1056 2.563 1_554 S
Eu1008 O1057 2.419 . S
Eu1008 O1059 2.380 . S
Eu1008 O1060 2.432 . S
Eu1008 C1072 2.848 . S
C1009 C1012 1.429 . S
C1009 C1013 1.411 . S
C1009 N1016 1.377 . S
C1010 C1012 1.420 . S
C1010 C1014 1.423 . S
C1010 C1022 1.392 . S
C1011 C1013 1.420 . S
C1011 C1014 1.351 . S
C1011 H1034 0.931 . S
C1012 C1009 1.429 . S
C1012 C1010 1.420 . S
C1012 N1020 1.362 . S
C1013 C1009 1.411 . S
C1013 C1011 1.420 . S
C1013 C1018 1.395 . S
C1014 C1010 1.423 . S
C1014 C1011 1.351 . S
C1014 H1026 0.930 . S
C1015 C1017 1.400 . S
C1015 C1018 1.386 . S
C1015 H1027 0.930 . S
N1016 C1009 1.377 . S
N1016 C1017 1.321 . S
N1016 Eu1019 2.609 1_556 S
C1017 C1015 1.400 . S
C1017 N1016 1.321 . S
C1017 H1024 0.930 . S
C1018 C1013 1.395 . S
C1018 C1015 1.386 . S
C1018 H1037 0.930 . S
Eu1019 N1016 2.609 1_554 S
Eu1019 N1020 2.657 1_554 S
Eu1019 O1053 2.380 1_554 S
Eu1019 O1054 2.432 . S
Eu1019 O1058 2.558 . S
Eu1019 O1059 2.612 . S
Eu1019 O1061 2.339 . S
Eu1019 O1062 2.563 . S
Eu1019 O1063 2.419 . S
Eu1019 C1083 2.848 . S
N1020 C1012 1.362 . S
N1020 Eu1019 2.657 1_556 S
N1020 C1021 1.334 . S
C1021 N1020 1.334 . S
C1021 C1023 1.413 . S
C1021 H1028 0.929 . S
C1022 C1010 1.392 . S
C1022 C1023 1.367 . S
C1022 H1030 0.930 . S
C1023 C1021 1.413 . S
C1023 C1022 1.367 . S
C1023 H1025 0.930 . S
H1024 C1017 0.930 . S
H1025 C1023 0.930 . S
H1026 C1014 0.930 . S
H1027 C1015 0.930 . S
H1028 C1021 0.929 . S
H1029 C1043 0.930 . S
H1030 C1022 0.930 . S
H1031 C1049 0.930 . S
H1032 C1040 0.929 . S
H1033 C1047 0.930 . S
H1034 C1011 0.931 . S
H1035 C1041 0.930 . S
H1036 C1074 0.930 . S
H1037 C1018 0.930 . S
H1038 C1073 0.931 . S
N1039 Eu1008 2.657 . S
N1039 C1040 1.334 . S
N1039 C1044 1.362 . S
C1040 H1032 0.929 . S
C1040 N1039 1.334 . S
C1040 C1043 1.413 . S
C1041 H1035 0.930 . S
C1041 C1042 1.392 . S
C1041 C1043 1.367 . S
C1042 C1041 1.392 . S
C1042 C1044 1.420 . S
C1042 C1074 1.423 . S
C1043 H1029 0.930 . S
C1043 C1040 1.413 . S
C1043 C1041 1.367 . S
C1044 N1039 1.362 . S
C1044 C1042 1.420 . S
C1044 C1048 1.429 . S
H1045 C1050 0.930 . S
N1046 Eu1008 2.609 . S
N1046 C1048 1.377 . S
N1046 C1049 1.321 . S
C1047 H1033 0.930 . S
C1047 C1049 1.400 . S
C1047 C1050 1.386 . S
C1048 C1044 1.429 . S
C1048 N1046 1.377 . S
C1048 C1051 1.411 . S
C1049 H1031 0.930 . S
C1049 N1046 1.321 . S
C1049 C1047 1.400 . S
C1050 H1045 0.930 . S
C1050 C1047 1.386 . S
C1050 C1051 1.395 . S
C1051 C1048 1.411 . S
C1051 C1050 1.395 . S
C1051 C1073 1.420 . S
O1052 Eu1008 2.558 . S
O1052 C1072 1.257 . S
O1053 Eu1008 2.612 1_556 S
O1053 Eu1019 2.380 1_556 S
O1053 C1064 1.276 . S
O1054 Eu1019 2.432 . S
O1054 C1071 1.264 . S
O1055 Eu1008 2.339 . S
O1055 C1071 1.254 . S
O1056 Eu1008 2.563 1_556 S
O1056 C1064 1.235 . S
O1057 Eu1008 2.419 . S
O1057 C1072 1.249 . S
O1058 Eu1019 2.558 . S
O1058 C1083 1.257 . S
O1059 Eu1008 2.380 . S
O1059 Eu1019 2.612 . S
O1059 C1075 1.276 . S
O1060 Eu1008 2.432 . S
O1060 C1082 1.264 . S
O1061 Eu1019 2.339 . S
O1061 C1082 1.254 . S
O1062 Eu1019 2.563 . S
O1062 C1075 1.235 . S
O1063 Eu1019 2.419 . S
O1063 C1083 1.249 . S
C1064 O1053 1.276 . S
C1064 O1056 1.235 . S
C1065 C1067 1.393 . S
C1065 C1069 1.395 . S
C1065 C1072 1.492 . S
C1066 C1067 1.392 1_556 S
C1066 C1068 1.386 1_556 S
C1067 C1065 1.393 . S
C1067 C1066 1.392 1_554 S
C1067 H1084 0.930 1_554 S
C1068 C1066 1.386 1_554 S
C1068 C1070 1.395 . S
C1068 H1085 0.924 1_554 S
C1069 C1065 1.395 . S
C1069 C1070 1.379 . S
C1069 H1086 0.930 . S
C1070 C1068 1.395 . S
C1070 C1069 1.379 . S
C1070 H1087 0.930 . S
C1071 O1054 1.264 . S
C1071 O1055 1.254 . S
C1072 Eu1008 2.848 . S
C1072 O1052 1.257 . S
C1072 O1057 1.249 . S
C1072 C1065 1.492 . S
C1073 H1038 0.931 . S
C1073 C1051 1.420 . S
C1073 C1074 1.351 . S
C1074 H1036 0.930 . S
C1074 C1042 1.423 . S
C1074 C1073 1.351 . S
C1075 O1059 1.276 . S
C1075 O1062 1.235 . S
C1076 C1077 1.393 . S
C1076 C1080 1.395 . S
C1076 C1083 1.492 . S
C1077 C1076 1.393 . S
C1077 C1078 1.392 . S
C1077 H1088 0.930 . S
C1078 C1077 1.392 . S
C1078 C1079 1.386 . S
C1079 C1078 1.386 . S
C1079 C1081 1.395 . S
C1079 H1089 0.930 . S
C1080 C1076 1.395 . S
C1080 C1081 1.379 . S
C1080 H1090 0.930 . S
C1081 C1079 1.395 . S
C1081 C1080 1.379 . S
C1081 H1091 0.930 . S
C1082 O1060 1.264 . S
C1082 O1061 1.254 . S
C1083 Eu1019 2.848 . S
C1083 O1058 1.257 . S
C1083 O1063 1.249 . S
C1083 C1076 1.492 . S
H1084 C1067 0.930 1_556 S
H1085 C1068 0.924 1_556 S
H1086 C1069 0.930 . S
H1087 C1070 0.930 . S
H1088 C1077 0.930 . S
H1089 C1079 0.930 . S
H1090 C1080 0.930 . S
H1091 C1081 0.930 . S
Eu1092 N1123 2.657 . S
Eu1092 N1130 2.609 . S
Eu1092 O1136 2.558 . S
Eu1092 O1137 2.612 . S
Eu1092 O1139 2.339 . S
Eu1092 O1140 2.563 . S
Eu1092 O1141 2.419 . S
Eu1092 O1143 2.380 . S
Eu1092 O1144 2.432 . S
Eu1092 C1156 2.848 . S
C1093 C1096 1.429 . S
C1093 C1097 1.411 . S
C1093 N1100 1.377 . S
C1094 C1096 1.420 . S
C1094 C1098 1.423 . S
C1094 C1106 1.392 . S
C1095 C1097 1.420 . S
C1095 C1098 1.351 . S
C1095 H1118 0.931 . S
C1096 C1093 1.429 . S
C1096 C1094 1.420 . S
C1096 N1104 1.362 . S
C1097 C1093 1.411 . S
C1097 C1095 1.420 . S
C1097 C1102 1.395 . S
C1098 C1094 1.423 . S
C1098 C1095 1.351 . S
C1098 H1110 0.930 . S
C1099 C1101 1.400 . S
C1099 C1102 1.386 . S
C1099 H1111 0.930 . S
N1100 C1093 1.377 . S
N1100 C1101 1.321 . S
N1100 Eu1103 2.609 . S
C1101 C1099 1.400 . S
C1101 N1100 1.321 . S
C1101 H1108 0.930 . S
C1102 C1097 1.395 . S
C1102 C1099 1.386 . S
C1102 H1121 0.930 . S
Eu1103 N1100 2.609 . S
Eu1103 N1104 2.657 . S
Eu1103 O1137 2.380 . S
Eu1103 O1138 2.432 . S
Eu1103 O1142 2.558 . S
Eu1103 O1143 2.612 . S
Eu1103 O1145 2.339 . S
Eu1103 O1146 2.563 . S
Eu1103 O1147 2.419 . S
Eu1103 C1167 2.848 . S
N1104 C1096 1.362 . S
N1104 Eu1103 2.657 . S
N1104 C1105 1.334 . S
C1105 N1104 1.334 . S
C1105 C1107 1.413 . S
C1105 H1112 0.929 . S
C1106 C1094 1.392 . S
C1106 C1107 1.367 . S
C1106 H1114 0.930 . S
C1107 C1105 1.413 . S
C1107 C1106 1.367 . S
C1107 H1109 0.930 . S
H1108 C1101 0.930 . S
H1109 C1107 0.930 . S
H1110 C1098 0.930 . S
H1111 C1099 0.930 . S
H1112 C1105 0.929 . S
H1113 C1127 0.930 . S
H1114 C1106 0.930 . S
H1115 C1133 0.930 . S
H1116 C1124 0.929 . S
H1117 C1131 0.930 . S
H1118 C1095 0.931 . S
H1119 C1125 0.930 . S
H1120 C1158 0.930 . S
H1121 C1102 0.930 . S
H1122 C1157 0.931 . S
N1123 Eu1092 2.657 . S
N1123 C1124 1.334 . S
N1123 C1128 1.362 . S
C1124 H1116 0.929 . S
C1124 N1123 1.334 . S
C1124 C1127 1.413 . S
C1125 H1119 0.930 . S
C1125 C1126 1.392 . S
C1125 C1127 1.367 . S
C1126 C1125 1.392 . S
C1126 C1128 1.420 . S
C1126 C1158 1.423 . S
C1127 H1113 0.930 . S
C1127 C1124 1.413 . S
C1127 C1125 1.367 . S
C1128 N1123 1.362 . S
C1128 C1126 1.420 . S
C1128 C1132 1.429 . S
H1129 C1134 0.930 . S
N1130 Eu1092 2.609 . S
N1130 C1132 1.377 . S
N1130 C1133 1.321 . S
C1131 H1117 0.930 . S
C1131 C1133 1.400 . S
C1131 C1134 1.386 . S
C1132 C1128 1.429 . S
C1132 N1130 1.377 . S
C1132 C1135 1.411 . S
C1133 H1115 0.930 . S
C1133 N1130 1.321 . S
C1133 C1131 1.400 . S
C1134 H1129 0.930 . S
C1134 C1131 1.386 . S
C1134 C1135 1.395 . S
C1135 C1132 1.411 . S
C1135 C1134 1.395 . S
C1135 C1157 1.420 . S
O1136 Eu1092 2.558 . S
O1136 C1156 1.257 . S
O1137 Eu1092 2.612 . S
O1137 Eu1103 2.380 . S
O1137 C1148 1.276 . S
O1138 Eu1103 2.432 . S
O1138 C1155 1.264 . S
O1139 Eu1092 2.339 . S
O1139 C1155 1.254 . S
O1140 Eu1092 2.563 . S
O1140 C1148 1.235 . S
O1141 Eu1092 2.419 . S
O1141 C1156 1.249 . S
O1142 Eu1103 2.558 . S
O1142 C1167 1.257 . S
O1143 Eu1092 2.380 . S
O1143 Eu1103 2.612 . S
O1143 C1159 1.276 . S
O1144 Eu1092 2.432 . S
O1144 C1166 1.264 . S
O1145 Eu1103 2.339 . S
O1145 C1166 1.254 . S
O1146 Eu1103 2.563 . S
O1146 C1159 1.235 . S
O1147 Eu1103 2.419 . S
O1147 C1167 1.249 . S
C1148 O1137 1.276 . S
C1148 O1140 1.235 . S
C1149 C1151 1.393 . S
C1149 C1153 1.395 . S
C1149 C1156 1.492 . S
C1150 C1151 1.392 . S
C1150 C1152 1.386 . S
C1151 C1149 1.393 . S
C1151 C1150 1.392 . S
C1151 H1168 0.930 . S
C1152 C1150 1.386 . S
C1152 C1154 1.395 . S
C1152 H1169 0.930 . S
C1153 C1149 1.395 . S
C1153 C1154 1.379 . S
C1153 H1170 0.930 . S
C1154 C1152 1.395 . S
C1154 C1153 1.379 . S
C1154 H1171 0.930 . S
C1155 O1138 1.264 . S
C1155 O1139 1.254 . S
C1156 Eu1092 2.848 . S
C1156 O1136 1.257 . S
C1156 O1141 1.249 . S
C1156 C1149 1.492 . S
C1157 H1122 0.931 . S
C1157 C1135 1.420 . S
C1157 C1158 1.351 . S
C1158 H1120 0.930 . S
C1158 C1126 1.423 . S
C1158 C1157 1.351 . S
C1159 O1143 1.276 . S
C1159 O1146 1.235 . S
C1160 C1161 1.393 . S
C1160 C1164 1.395 . S
C1160 C1167 1.492 . S
C1161 C1160 1.393 . S
C1161 C1162 1.392 . S
C1161 H1172 0.930 . S
C1162 C1161 1.392 . S
C1162 C1163 1.386 . S
C1163 C1162 1.386 . S
C1163 C1165 1.395 . S
C1163 H1173 0.930 . S
C1164 C1160 1.395 . S
C1164 C1165 1.379 . S
C1164 H1174 0.930 . S
C1165 C1163 1.395 . S
C1165 C1164 1.379 . S
C1165 H1175 0.930 . S
C1166 O1144 1.264 . S
C1166 O1145 1.254 . S
C1167 Eu1103 2.848 . S
C1167 O1142 1.257 . S
C1167 O1147 1.249 . S
C1167 C1160 1.492 . S
H1168 C1151 0.930 . S
H1169 C1152 0.930 . S
H1170 C1153 0.930 . S
H1171 C1154 0.930 . S
H1172 C1161 0.930 . S
H1173 C1163 0.930 . S
H1174 C1164 0.930 . S
H1175 C1165 0.930 . S
Eu1176 N1207 2.657 . S
Eu1176 N1214 2.609 . S
Eu1176 O1220 2.558 . S
Eu1176 O1221 2.612 . S
Eu1176 O1223 2.339 . S
Eu1176 O1224 2.563 . S
Eu1176 O1225 2.419 . S
Eu1176 O1227 2.380 . S
Eu1176 O1228 2.432 . S
Eu1176 C1240 2.848 . S
C1177 C1180 1.425 . S
C1177 C1181 1.411 1_455 S
C1177 N1184 1.377 . S
C1178 C1180 1.402 1_655 S
C1178 C1182 1.423 . S
C1178 C1190 1.392 . S
C1179 C1181 1.420 . S
C1179 C1182 1.351 . S
C1179 H1202 0.931 . S
C1180 C1177 1.425 . S
C1180 C1178 1.402 1_455 S
C1180 N1188 1.383 . S
C1181 C1177 1.411 1_655 S
C1181 C1179 1.420 . S
C1181 C1186 1.395 . S
C1182 C1178 1.423 . S
C1182 C1179 1.351 . S
C1182 H1194 0.930 . S
C1183 C1185 1.400 . S
C1183 C1186 1.386 1_455 S
C1183 H1195 0.930 . S
N1184 C1177 1.377 . S
N1184 C1185 1.321 . S
N1184 Eu1187 2.609 . S
C1185 C1183 1.400 . S
C1185 N1184 1.321 . S
C1185 H1192 0.930 . S
C1186 C1181 1.395 . S
C1186 C1183 1.386 1_655 S
C1186 H1205 0.930 . S
Eu1187 N1184 2.609 . S
Eu1187 N1188 2.657 . S
Eu1187 O1221 2.380 . S
Eu1187 O1222 2.432 . S
Eu1187 O1226 2.558 . S
Eu1187 O1227 2.612 . S
Eu1187 O1229 2.339 . S
Eu1187 O1230 2.563 . S
Eu1187 O1231 2.419 . S
Eu1187 C1251 2.848 . S
N1188 C1180 1.383 . S
N1188 Eu1187 2.657 . S
N1188 C1189 1.334 . S
C1189 N1188 1.334 . S
C1189 C1191 1.413 1_455 S
C1189 H1196 0.929 . S
C1190 C1178 1.392 . S
C1190 C1191 1.367 . S
C1190 H1198 0.930 . S
C1191 C1189 1.413 1_655 S
C1191 C1190 1.367 . S
C1191 H1193 0.930 . S
H1192 C1185 0.930 . S
H1193 C1191 0.930 . S
H1194 C1182 0.930 . S
H1195 C1183 0.930 . S
H1196 C1189 0.929 . S
H1197 C1211 0.930 . S
H1198 C1190 0.930 . S
H1199 C1217 0.930 . S
H1200 C1208 0.929 . S
H1201 C1215 0.930 . S
H1202 C1179 0.931 . S
H1203 C1209 0.930 . S
H1204 C1242 0.930 . S
H1205 C1186 0.930 . S
H1206 C1241 0.931 . S
N1207 Eu1176 2.657 . S
N1207 C1208 1.334 . S
N1207 C1212 1.362 . S
C1208 H1200 0.929 . S
C1208 N1207 1.334 . S
C1208 C1211 1.413 . S
C1209 H1203 0.930 . S
C1209 C1210 1.392 . S
C1209 C1211 1.367 . S
C1210 C1209 1.392 . S
C1210 C1212 1.420 . S
C1210 C1242 1.423 . S
C1211 H1197 0.930 . S
C1211 C1208 1.413 . S
C1211 C1209 1.367 . S
C1212 N1207 1.362 . S
C1212 C1210 1.420 . S
C1212 C1216 1.429 . S
H1213 C1218 0.930 . S
N1214 Eu1176 2.609 . S
N1214 C1216 1.377 . S
N1214 C1217 1.321 . S
C1215 H1201 0.930 . S
C1215 C1217 1.400 . S
C1215 C1218 1.386 . S
C1216 C1212 1.429 . S
C1216 N1214 1.377 . S
C1216 C1219 1.411 . S
C1217 H1199 0.930 . S
C1217 N1214 1.321 . S
C1217 C1215 1.400 . S
C1218 H1213 0.930 . S
C1218 C1215 1.386 . S
C1218 C1219 1.395 . S
C1219 C1216 1.411 . S
C1219 C1218 1.395 . S
C1219 C1241 1.420 . S
O1220 Eu1176 2.558 . S
O1220 C1240 1.257 . S
O1221 Eu1176 2.612 . S
O1221 Eu1187 2.380 . S
O1221 C1232 1.276 . S
O1222 Eu1187 2.432 . S
O1222 C1239 1.264 . S
O1223 Eu1176 2.339 . S
O1223 C1239 1.254 . S
O1224 Eu1176 2.563 . S
O1224 C1232 1.235 . S
O1225 Eu1176 2.419 . S
O1225 C1240 1.249 . S
O1226 Eu1187 2.558 . S
O1226 C1251 1.257 . S
O1227 Eu1176 2.380 . S
O1227 Eu1187 2.612 . S
O1227 C1243 1.276 . S
O1228 Eu1176 2.432 . S
O1228 C1250 1.264 . S
O1229 Eu1187 2.339 . S
O1229 C1250 1.254 . S
O1230 Eu1187 2.563 . S
O1230 C1243 1.235 . S
O1231 Eu1187 2.419 . S
O1231 C1251 1.249 . S
C1232 O1221 1.276 . S
C1232 O1224 1.235 . S
C1233 C1235 1.393 . S
C1233 C1237 1.395 . S
C1233 C1240 1.492 . S
C1234 C1235 1.392 . S
C1234 C1236 1.386 . S
C1235 C1233 1.393 . S
C1235 C1234 1.392 . S
C1235 H1252 0.930 . S
C1236 C1234 1.386 . S
C1236 C1238 1.395 . S
C1236 H1253 0.930 . S
C1237 C1233 1.395 . S
C1237 C1238 1.379 . S
C1237 H1254 0.930 . S
C1238 C1236 1.395 . S
C1238 C1237 1.379 . S
C1238 H1255 0.930 . S
C1239 O1222 1.264 . S
C1239 O1223 1.254 . S
C1240 Eu1176 2.848 . S
C1240 O1220 1.257 . S
C1240 O1225 1.249 . S
C1240 C1233 1.492 . S
C1241 H1206 0.931 . S
C1241 C1219 1.420 . S
C1241 C1242 1.351 . S
C1242 H1204 0.930 . S
C1242 C1210 1.423 . S
C1242 C1241 1.351 . S
C1243 O1227 1.276 . S
C1243 O1230 1.235 . S
C1244 C1245 1.393 . S
C1244 C1248 1.395 . S
C1244 C1251 1.492 . S
C1245 C1244 1.393 . S
C1245 C1246 1.392 . S
C1245 H1256 0.930 . S
C1246 C1245 1.392 . S
C1246 C1247 1.386 . S
C1247 C1246 1.386 . S
C1247 C1249 1.395 . S
C1247 H1257 0.930 . S
C1248 C1244 1.395 . S
C1248 C1249 1.379 . S
C1248 H1258 0.930 . S
C1249 C1247 1.395 . S
C1249 C1248 1.379 . S
C1249 H1259 0.930 . S
C1250 O1228 1.264 . S
C1250 O1229 1.254 . S
C1251 Eu1187 2.848 . S
C1251 O1226 1.257 . S
C1251 O1231 1.249 . S
C1251 C1244 1.492 . S
H1252 C1235 0.930 . S
H1253 C1236 0.930 . S
H1254 C1237 0.930 . S
H1255 C1238 0.930 . S
H1256 C1245 0.930 . S
H1257 C1247 0.930 . S
H1258 C1248 0.930 . S
H1259 C1249 0.930 . S
Eu1260 N1291 2.657 . S
Eu1260 N1298 2.609 . S
Eu1260 O1304 2.558 . S
Eu1260 O1305 2.612 . S
Eu1260 O1307 2.339 . S
Eu1260 O1308 2.563 . S
Eu1260 O1309 2.419 . S
Eu1260 O1311 2.380 . S
Eu1260 O1312 2.432 . S
Eu1260 C1324 2.848 . S
C1261 C1264 1.429 . S
C1261 C1265 1.411 . S
C1261 N1268 1.377 . S
C1262 C1264 1.420 . S
C1262 C1266 1.423 . S
C1262 C1274 1.392 . S
C1263 C1265 1.420 . S
C1263 C1266 1.351 . S
C1263 H1286 0.931 . S
C1264 C1261 1.429 . S
C1264 C1262 1.420 . S
C1264 N1272 1.362 . S
C1265 C1261 1.411 . S
C1265 C1263 1.420 . S
C1265 C1270 1.395 . S
C1266 C1262 1.423 . S
C1266 C1263 1.351 . S
C1266 H1278 0.930 . S
C1267 C1269 1.400 . S
C1267 C1270 1.386 . S
C1267 H1279 0.930 . S
N1268 C1261 1.377 . S
N1268 C1269 1.321 . S
N1268 Eu1271 2.609 . S
C1269 C1267 1.400 . S
C1269 N1268 1.321 . S
C1269 H1276 0.930 . S
C1270 C1265 1.395 . S
C1270 C1267 1.386 . S
C1270 H1289 0.930 . S
Eu1271 N1268 2.609 . S
Eu1271 N1272 2.657 . S
Eu1271 O1305 2.380 . S
Eu1271 O1306 2.432 . S
Eu1271 O1310 2.558 . S
Eu1271 O1311 2.612 . S
Eu1271 O1313 2.339 . S
Eu1271 O1314 2.563 . S
Eu1271 O1315 2.419 . S
Eu1271 C1335 2.848 . S
N1272 C1264 1.362 . S
N1272 Eu1271 2.657 . S
N1272 C1273 1.334 . S
C1273 N1272 1.334 . S
C1273 C1275 1.413 . S
C1273 H1280 0.929 . S
C1274 C1262 1.392 . S
C1274 C1275 1.367 . S
C1274 H1282 0.930 . S
C1275 C1273 1.413 . S
C1275 C1274 1.367 . S
C1275 H1277 0.930 . S
H1276 C1269 0.930 . S
H1277 C1275 0.930 . S
H1278 C1266 0.930 . S
H1279 C1267 0.930 . S
H1280 C1273 0.929 . S
H1281 C1295 0.930 . S
H1282 C1274 0.930 . S
H1283 C1301 0.930 . S
H1284 C1292 0.929 . S
H1285 C1299 0.930 . S
H1286 C1263 0.931 . S
H1287 C1293 0.930 . S
H1288 C1326 0.930 . S
H1289 C1270 0.930 . S
H1290 C1325 0.931 . S
N1291 Eu1260 2.657 . S
N1291 C1292 1.334 . S
N1291 C1296 1.362 . S
C1292 H1284 0.929 . S
C1292 N1291 1.334 . S
C1292 C1295 1.413 . S
C1293 H1287 0.930 . S
C1293 C1294 1.392 . S
C1293 C1295 1.367 . S
C1294 C1293 1.392 . S
C1294 C1296 1.420 . S
C1294 C1326 1.423 . S
C1295 H1281 0.930 . S
C1295 C1292 1.413 . S
C1295 C1293 1.367 . S
C1296 N1291 1.362 . S
C1296 C1294 1.420 . S
C1296 C1300 1.429 . S
H1297 C1302 0.930 . S
N1298 Eu1260 2.609 . S
N1298 C1300 1.377 . S
N1298 C1301 1.321 . S
C1299 H1285 0.930 . S
C1299 C1301 1.400 . S
C1299 C1302 1.386 . S
C1300 C1296 1.429 . S
C1300 N1298 1.377 . S
C1300 C1303 1.411 . S
C1301 H1283 0.930 . S
C1301 N1298 1.321 . S
C1301 C1299 1.400 . S
C1302 H1297 0.930 . S
C1302 C1299 1.386 . S
C1302 C1303 1.395 . S
C1303 C1300 1.411 . S
C1303 C1302 1.395 . S
C1303 C1325 1.420 . S
O1304 Eu1260 2.558 . S
O1304 C1324 1.257 . S
O1305 Eu1260 2.612 . S
O1305 Eu1271 2.380 . S
O1305 C1316 1.276 . S
O1306 Eu1271 2.432 . S
O1306 C1323 1.264 . S
O1307 Eu1260 2.339 . S
O1307 C1323 1.254 . S
O1308 Eu1260 2.563 . S
O1308 C1316 1.235 . S
O1309 Eu1260 2.419 . S
O1309 C1324 1.249 . S
O1310 Eu1271 2.558 . S
O1310 C1335 1.257 . S
O1311 Eu1260 2.380 . S
O1311 Eu1271 2.612 . S
O1311 C1327 1.276 . S
O1312 Eu1260 2.432 . S
O1312 C1334 1.264 . S
O1313 Eu1271 2.339 . S
O1313 C1334 1.254 . S
O1314 Eu1271 2.563 . S
O1314 C1327 1.235 . S
O1315 Eu1271 2.419 . S
O1315 C1335 1.249 . S
C1316 O1305 1.276 . S
C1316 O1308 1.235 . S
C1317 C1319 1.393 . S
C1317 C1321 1.395 . S
C1317 C1324 1.492 . S
C1318 C1319 1.392 . S
C1318 C1320 1.386 . S
C1319 C1317 1.393 . S
C1319 C1318 1.392 . S
C1319 H1336 0.930 . S
C1320 C1318 1.386 . S
C1320 C1322 1.395 . S
C1320 H1337 0.930 . S
C1321 C1317 1.395 . S
C1321 C1322 1.379 . S
C1321 H1338 0.930 . S
C1322 C1320 1.395 . S
C1322 C1321 1.379 . S
C1322 H1339 0.930 . S
C1323 O1306 1.264 . S
C1323 O1307 1.254 . S
C1324 Eu1260 2.848 . S
C1324 O1304 1.257 . S
C1324 O1309 1.249 . S
C1324 C1317 1.492 . S
C1325 H1290 0.931 . S
C1325 C1303 1.420 . S
C1325 C1326 1.351 . S
C1326 H1288 0.930 . S
C1326 C1294 1.423 . S
C1326 C1325 1.351 . S
C1327 O1311 1.276 . S
C1327 O1314 1.235 . S
C1328 C1329 1.393 . S
C1328 C1332 1.395 . S
C1328 C1335 1.492 . S
C1329 C1328 1.393 . S
C1329 C1330 1.392 . S
C1329 H1340 0.930 . S
C1330 C1329 1.392 . S
C1330 C1331 1.386 . S
C1331 C1330 1.386 . S
C1331 C1333 1.395 . S
C1331 H1341 0.930 . S
C1332 C1328 1.395 . S
C1332 C1333 1.379 . S
C1332 H1342 0.930 . S
C1333 C1331 1.395 . S
C1333 C1332 1.379 . S
C1333 H1343 0.930 . S
C1334 O1312 1.264 . S
C1334 O1313 1.254 . S
C1335 Eu1271 2.848 . S
C1335 O1310 1.257 . S
C1335 O1315 1.249 . S
C1335 C1328 1.492 . S
H1336 C1319 0.930 . S
H1337 C1320 0.930 . S
H1338 C1321 0.930 . S
H1339 C1322 0.930 . S
H1340 C1329 0.930 . S
H1341 C1331 0.930 . S
H1342 C1332 0.930 . S
H1343 C1333 0.930 . S
Eu1344 N1375 2.657 . S
Eu1344 N1382 2.609 . S
Eu1344 O1388 2.558 . S
Eu1344 O1389 2.612 . S
Eu1344 O1391 2.339 . S
Eu1344 O1392 2.563 . S
Eu1344 O1393 2.419 . S
Eu1344 O1395 2.380 . S
Eu1344 O1396 2.432 . S
Eu1344 C1408 2.848 . S
C1345 C1348 1.429 . S
C1345 C1349 1.411 . S
C1345 N1352 1.377 . S
C1346 C1348 1.420 . S
C1346 C1350 1.423 . S
C1346 C1358 1.392 . S
C1347 C1349 1.420 . S
C1347 C1350 1.351 . S
C1347 H1370 0.931 . S
C1348 C1345 1.429 . S
C1348 C1346 1.420 . S
C1348 N1356 1.362 . S
C1349 C1345 1.411 . S
C1349 C1347 1.420 . S
C1349 C1354 1.395 . S
C1350 C1346 1.423 . S
C1350 C1347 1.351 . S
C1350 H1362 0.930 . S
C1351 C1353 1.400 . S
C1351 C1354 1.386 . S
C1351 H1363 0.930 . S
N1352 C1345 1.377 . S
N1352 C1353 1.321 . S
N1352 Eu1355 2.609 . S
C1353 C1351 1.400 . S
C1353 N1352 1.321 . S
C1353 H1360 0.930 . S
C1354 C1349 1.395 . S
C1354 C1351 1.386 . S
C1354 H1373 0.930 . S
Eu1355 N1352 2.609 . S
Eu1355 N1356 2.657 . S
Eu1355 O1389 2.380 . S
Eu1355 O1390 2.432 . S
Eu1355 O1394 2.558 . S
Eu1355 O1395 2.612 . S
Eu1355 O1397 2.339 . S
Eu1355 O1398 2.563 . S
Eu1355 O1399 2.419 . S
Eu1355 C1419 2.848 . S
N1356 C1348 1.362 . S
N1356 Eu1355 2.657 . S
N1356 C1357 1.334 . S
C1357 N1356 1.334 . S
C1357 C1359 1.413 . S
C1357 H1364 0.929 . S
C1358 C1346 1.392 . S
C1358 C1359 1.367 . S
C1358 H1366 0.930 . S
C1359 C1357 1.413 . S
C1359 C1358 1.367 . S
C1359 H1361 0.930 . S
H1360 C1353 0.930 . S
H1361 C1359 0.930 . S
H1362 C1350 0.930 . S
H1363 C1351 0.930 . S
H1364 C1357 0.929 . S
H1365 C1379 0.930 . S
H1366 C1358 0.930 . S
H1367 C1385 0.930 . S
H1368 C1376 0.929 . S
H1369 C1383 0.930 . S
H1370 C1347 0.931 . S
H1371 C1377 0.930 . S
H1372 C1410 0.930 . S
H1373 C1354 0.930 . S
H1374 C1409 0.931 . S
N1375 Eu1344 2.657 . S
N1375 C1376 1.334 . S
N1375 C1380 1.362 . S
C1376 H1368 0.929 . S
C1376 N1375 1.334 . S
C1376 C1379 1.413 . S
C1377 H1371 0.930 . S
C1377 C1378 1.392 . S
C1377 C1379 1.367 . S
C1378 C1377 1.392 . S
C1378 C1380 1.420 . S
C1378 C1410 1.423 . S
C1379 H1365 0.930 . S
C1379 C1376 1.413 . S
C1379 C1377 1.367 . S
C1380 N1375 1.362 . S
C1380 C1378 1.420 . S
C1380 C1384 1.429 . S
H1381 C1386 0.930 . S
N1382 Eu1344 2.609 . S
N1382 C1384 1.377 . S
N1382 C1385 1.321 . S
C1383 H1369 0.930 . S
C1383 C1385 1.400 . S
C1383 C1386 1.386 . S
C1384 C1380 1.429 . S
C1384 N1382 1.377 . S
C1384 C1387 1.411 . S
C1385 H1367 0.930 . S
C1385 N1382 1.321 . S
C1385 C1383 1.400 . S
C1386 H1381 0.930 . S
C1386 C1383 1.386 . S
C1386 C1387 1.395 . S
C1387 C1384 1.411 . S
C1387 C1386 1.395 . S
C1387 C1409 1.420 . S
O1388 Eu1344 2.558 . S
O1388 C1408 1.257 . S
O1389 Eu1344 2.612 . S
O1389 Eu1355 2.380 . S
O1389 C1400 1.276 . S
O1390 Eu1355 2.432 . S
O1390 C1407 1.264 . S
O1391 Eu1344 2.339 . S
O1391 C1407 1.254 . S
O1392 Eu1344 2.563 . S
O1392 C1400 1.235 . S
O1393 Eu1344 2.419 . S
O1393 C1408 1.249 . S
O1394 Eu1355 2.558 . S
O1394 C1419 1.257 . S
O1395 Eu1344 2.380 . S
O1395 Eu1355 2.612 . S
O1395 C1411 1.276 . S
O1396 Eu1344 2.432 . S
O1396 C1418 1.264 . S
O1397 Eu1355 2.339 . S
O1397 C1418 1.254 . S
O1398 Eu1355 2.563 . S
O1398 C1411 1.235 . S
O1399 Eu1355 2.419 . S
O1399 C1419 1.249 . S
C1400 O1389 1.276 . S
C1400 O1392 1.235 . S
C1401 C1403 1.393 . S
C1401 C1405 1.395 . S
C1401 C1408 1.492 . S
C1402 C1403 1.392 . S
C1402 C1404 1.386 . S
C1403 C1401 1.393 . S
C1403 C1402 1.392 . S
C1403 H1420 0.930 . S
C1404 C1402 1.386 . S
C1404 C1406 1.395 . S
C1404 H1421 0.930 . S
C1405 C1401 1.395 . S
C1405 C1406 1.379 . S
C1405 H1422 0.930 . S
C1406 C1404 1.395 . S
C1406 C1405 1.379 . S
C1406 H1423 0.930 . S
C1407 O1390 1.264 . S
C1407 O1391 1.254 . S
C1408 Eu1344 2.848 . S
C1408 O1388 1.257 . S
C1408 O1393 1.249 . S
C1408 C1401 1.492 . S
C1409 H1374 0.931 . S
C1409 C1387 1.420 . S
C1409 C1410 1.351 . S
C1410 H1372 0.930 . S
C1410 C1378 1.423 . S
C1410 C1409 1.351 . S
C1411 O1395 1.276 . S
C1411 O1398 1.235 . S
C1412 C1413 1.393 . S
C1412 C1416 1.395 . S
C1412 C1419 1.492 . S
C1413 C1412 1.393 . S
C1413 C1414 1.392 . S
C1413 H1424 0.930 . S
C1414 C1413 1.392 . S
C1414 C1415 1.386 . S
C1415 C1414 1.386 . S
C1415 C1417 1.395 . S
C1415 H1425 0.930 . S
C1416 C1412 1.395 . S
C1416 C1417 1.379 . S
C1416 H1426 0.930 . S
C1417 C1415 1.395 . S
C1417 C1416 1.379 . S
C1417 H1427 0.930 . S
C1418 O1396 1.264 . S
C1418 O1397 1.254 . S
C1419 Eu1355 2.848 . S
C1419 O1394 1.257 . S
C1419 O1399 1.249 . S
C1419 C1412 1.492 . S
H1420 C1403 0.930 . S
H1421 C1404 0.930 . S
H1422 C1405 0.930 . S
H1423 C1406 0.930 . S
H1424 C1413 0.930 . S
H1425 C1415 0.930 . S
H1426 C1416 0.930 . S
H1427 C1417 0.930 . S
Eu1428 N1459 2.657 . S
Eu1428 N1466 2.609 . S
Eu1428 O1472 2.558 . S
Eu1428 O1473 2.612 . S
Eu1428 O1475 2.339 . S
Eu1428 O1476 2.563 . S
Eu1428 O1477 2.419 . S
Eu1428 O1479 2.380 . S
Eu1428 O1480 2.432 . S
Eu1428 C1492 2.848 . S
C1429 C1432 1.429 . S
C1429 C1433 1.411 . S
C1429 N1436 1.377 . S
C1430 C1432 1.420 . S
C1430 C1434 1.423 . S
C1430 C1442 1.392 . S
C1431 C1433 1.420 . S
C1431 C1434 1.351 . S
C1431 H1454 0.931 . S
C1432 C1429 1.429 . S
C1432 C1430 1.420 . S
C1432 N1440 1.362 . S
C1433 C1429 1.411 . S
C1433 C1431 1.420 . S
C1433 C1438 1.395 . S
C1434 C1430 1.423 . S
C1434 C1431 1.351 . S
C1434 H1446 0.930 . S
C1435 C1437 1.400 . S
C1435 C1438 1.386 . S
C1435 H1447 0.930 . S
N1436 C1429 1.377 . S
N1436 C1437 1.321 . S
N1436 Eu1439 2.609 . S
C1437 C1435 1.400 . S
C1437 N1436 1.321 . S
C1437 H1444 0.930 . S
C1438 C1433 1.395 . S
C1438 C1435 1.386 . S
C1438 H1457 0.930 . S
Eu1439 N1436 2.609 . S
Eu1439 N1440 2.657 . S
Eu1439 O1473 2.380 . S
Eu1439 O1474 2.432 . S
Eu1439 O1478 2.558 . S
Eu1439 O1479 2.612 . S
Eu1439 O1481 2.339 . S
Eu1439 O1482 2.563 . S
Eu1439 O1483 2.419 . S
Eu1439 C1503 2.848 . S
N1440 C1432 1.362 . S
N1440 Eu1439 2.657 . S
N1440 C1441 1.334 . S
C1441 N1440 1.334 . S
C1441 C1443 1.413 . S
C1441 H1448 0.929 . S
C1442 C1430 1.392 . S
C1442 C1443 1.367 . S
C1442 H1450 0.930 . S
C1443 C1441 1.413 . S
C1443 C1442 1.367 . S
C1443 H1445 0.930 . S
H1444 C1437 0.930 . S
H1445 C1443 0.930 . S
H1446 C1434 0.930 . S
H1447 C1435 0.930 . S
H1448 C1441 0.929 . S
H1449 C1463 0.930 . S
H1450 C1442 0.930 . S
H1451 C1469 0.930 . S
H1452 C1460 0.929 . S
H1453 C1467 0.930 . S
H1454 C1431 0.931 . S
H1455 C1461 0.930 . S
H1456 C1494 0.930 . S
H1457 C1438 0.930 . S
H1458 C1493 0.931 . S
N1459 Eu1428 2.657 . S
N1459 C1460 1.334 . S
N1459 C1464 1.362 . S
C1460 H1452 0.929 . S
C1460 N1459 1.334 . S
C1460 C1463 1.413 . S
C1461 H1455 0.930 . S
C1461 C1462 1.392 . S
C1461 C1463 1.367 . S
C1462 C1461 1.392 . S
C1462 C1464 1.420 . S
C1462 C1494 1.423 . S
C1463 H1449 0.930 . S
C1463 C1460 1.413 . S
C1463 C1461 1.367 . S
C1464 N1459 1.362 . S
C1464 C1462 1.420 . S
C1464 C1468 1.429 . S
H1465 C1470 0.930 . S
N1466 Eu1428 2.609 . S
N1466 C1468 1.377 . S
N1466 C1469 1.321 . S
C1467 H1453 0.930 . S
C1467 C1469 1.400 . S
C1467 C1470 1.386 . S
C1468 C1464 1.429 . S
C1468 N1466 1.377 . S
C1468 C1471 1.411 . S
C1469 H1451 0.930 . S
C1469 N1466 1.321 . S
C1469 C1467 1.400 . S
C1470 H1465 0.930 . S
C1470 C1467 1.386 . S
C1470 C1471 1.395 . S
C1471 C1468 1.411 . S
C1471 C1470 1.395 . S
C1471 C1493 1.420 . S
O1472 Eu1428 2.558 . S
O1472 C1492 1.257 . S
O1473 Eu1428 2.612 . S
O1473 Eu1439 2.380 . S
O1473 C1484 1.276 . S
O1474 Eu1439 2.432 . S
O1474 C1491 1.264 . S
O1475 Eu1428 2.339 . S
O1475 C1491 1.254 . S
O1476 Eu1428 2.563 . S
O1476 C1484 1.235 . S
O1477 Eu1428 2.419 . S
O1477 C1492 1.249 . S
O1478 Eu1439 2.558 . S
O1478 C1503 1.257 . S
O1479 Eu1428 2.380 . S
O1479 Eu1439 2.612 . S
O1479 C1495 1.276 . S
O1480 Eu1428 2.432 . S
O1480 C1502 1.264 . S
O1481 Eu1439 2.339 . S
O1481 C1502 1.254 . S
O1482 Eu1439 2.563 . S
O1482 C1495 1.235 . S
O1483 Eu1439 2.419 . S
O1483 C1503 1.249 . S
C1484 O1473 1.276 . S
C1484 O1476 1.235 . S
C1485 C1487 1.393 . S
C1485 C1489 1.395 . S
C1485 C1492 1.492 . S
C1486 C1487 1.392 . S
C1486 C1488 1.386 . S
C1487 C1485 1.393 . S
C1487 C1486 1.392 . S
C1487 H1504 0.930 . S
C1488 C1486 1.386 . S
C1488 C1490 1.395 . S
C1488 H1505 0.930 . S
C1489 C1485 1.395 . S
C1489 C1490 1.379 . S
C1489 H1506 0.930 . S
C1490 C1488 1.395 . S
C1490 C1489 1.379 . S
C1490 H1507 0.930 . S
C1491 O1474 1.264 . S
C1491 O1475 1.254 . S
C1492 Eu1428 2.848 . S
C1492 O1472 1.257 . S
C1492 O1477 1.249 . S
C1492 C1485 1.492 . S
C1493 H1458 0.931 . S
C1493 C1471 1.420 . S
C1493 C1494 1.351 . S
C1494 H1456 0.930 . S
C1494 C1462 1.423 . S
C1494 C1493 1.351 . S
C1495 O1479 1.276 . S
C1495 O1482 1.235 . S
C1496 C1497 1.393 . S
C1496 C1500 1.395 . S
C1496 C1503 1.492 . S
C1497 C1496 1.393 . S
C1497 C1498 1.392 . S
C1497 H1508 0.930 . S
C1498 C1497 1.392 . S
C1498 C1499 1.386 . S
C1499 C1498 1.386 . S
C1499 C1501 1.395 . S
C1499 H1509 0.930 . S
C1500 C1496 1.395 . S
C1500 C1501 1.379 . S
C1500 H1510 0.930 . S
C1501 C1499 1.395 . S
C1501 C1500 1.379 . S
C1501 H1511 0.930 . S
C1502 O1480 1.264 . S
C1502 O1481 1.254 . S
C1503 Eu1439 2.848 . S
C1503 O1478 1.257 . S
C1503 O1483 1.249 . S
C1503 C1496 1.492 . S
H1504 C1487 0.930 . S
H1505 C1488 0.930 . S
H1506 C1489 0.930 . S
H1507 C1490 0.930 . S
H1508 C1497 0.930 . S
H1509 C1499 0.930 . S
H1510 C1500 0.930 . S
H1511 C1501 0.930 . S
Eu1512 N1543 2.657 . S
Eu1512 N1550 2.609 . S
Eu1512 O1556 2.558 . S
Eu1512 O1557 2.612 . S
Eu1512 O1559 2.339 . S
Eu1512 O1560 2.563 . S
Eu1512 O1561 2.419 . S
Eu1512 O1563 2.380 . S
Eu1512 O1564 2.432 . S
Eu1512 C1576 2.848 . S
C1513 C1516 1.429 . S
C1513 C1517 1.411 . S
C1513 N1520 1.377 . S
C1514 C1516 1.420 . S
C1514 C1518 1.423 . S
C1514 C1526 1.392 . S
C1515 C1517 1.420 . S
C1515 C1518 1.351 . S
C1515 H1538 0.931 . S
C1516 C1513 1.429 . S
C1516 C1514 1.420 . S
C1516 N1524 1.362 . S
C1517 C1513 1.411 . S
C1517 C1515 1.420 . S
C1517 C1522 1.395 . S
C1518 C1514 1.423 . S
C1518 C1515 1.351 . S
C1518 H1530 0.930 . S
C1519 C1521 1.400 . S
C1519 C1522 1.386 . S
C1519 H1531 0.930 . S
N1520 C1513 1.377 . S
N1520 C1521 1.321 . S
N1520 Eu1523 2.609 . S
C1521 C1519 1.400 . S
C1521 N1520 1.321 . S
C1521 H1528 0.930 . S
C1522 C1517 1.395 . S
C1522 C1519 1.386 . S
C1522 H1541 0.930 . S
Eu1523 N1520 2.609 . S
Eu1523 N1524 2.657 . S
Eu1523 O1557 2.380 . S
Eu1523 O1558 2.432 . S
Eu1523 O1562 2.558 . S
Eu1523 O1563 2.612 . S
Eu1523 O1565 2.339 . S
Eu1523 O1566 2.563 . S
Eu1523 O1567 2.419 . S
Eu1523 C1587 2.848 . S
N1524 C1516 1.362 . S
N1524 Eu1523 2.657 . S
N1524 C1525 1.334 . S
C1525 N1524 1.334 . S
C1525 C1527 1.413 . S
C1525 H1532 0.929 . S
C1526 C1514 1.392 . S
C1526 C1527 1.367 . S
C1526 H1534 0.930 . S
C1527 C1525 1.413 . S
C1527 C1526 1.367 . S
C1527 H1529 0.930 . S
H1528 C1521 0.930 . S
H1529 C1527 0.930 . S
H1530 C1518 0.930 . S
H1531 C1519 0.930 . S
H1532 C1525 0.929 . S
H1533 C1547 0.930 . S
H1534 C1526 0.930 . S
H1535 C1553 0.930 . S
H1536 C1544 0.929 . S
H1537 C1551 0.930 . S
H1538 C1515 0.931 . S
H1539 C1545 0.930 . S
H1540 C1578 0.930 . S
H1541 C1522 0.930 . S
H1542 C1577 0.931 . S
N1543 Eu1512 2.657 . S
N1543 C1544 1.334 . S
N1543 C1548 1.362 . S
C1544 H1536 0.929 . S
C1544 N1543 1.334 . S
C1544 C1547 1.413 . S
C1545 H1539 0.930 . S
C1545 C1546 1.392 . S
C1545 C1547 1.367 . S
C1546 C1545 1.392 . S
C1546 C1548 1.420 . S
C1546 C1578 1.423 . S
C1547 H1533 0.930 . S
C1547 C1544 1.413 . S
C1547 C1545 1.367 . S
C1548 N1543 1.362 . S
C1548 C1546 1.420 . S
C1548 C1552 1.429 . S
H1549 C1554 0.930 . S
N1550 Eu1512 2.609 . S
N1550 C1552 1.377 . S
N1550 C1553 1.321 . S
C1551 H1537 0.930 . S
C1551 C1553 1.400 . S
C1551 C1554 1.386 . S
C1552 C1548 1.429 . S
C1552 N1550 1.377 . S
C1552 C1555 1.411 . S
C1553 H1535 0.930 . S
C1553 N1550 1.321 . S
C1553 C1551 1.400 . S
C1554 H1549 0.930 . S
C1554 C1551 1.386 . S
C1554 C1555 1.395 . S
C1555 C1552 1.411 . S
C1555 C1554 1.395 . S
C1555 C1577 1.420 . S
O1556 Eu1512 2.558 . S
O1556 C1576 1.257 . S
O1557 Eu1512 2.612 . S
O1557 Eu1523 2.380 . S
O1557 C1568 1.276 . S
O1558 Eu1523 2.432 . S
O1558 C1575 1.264 . S
O1559 Eu1512 2.339 . S
O1559 C1575 1.254 . S
O1560 Eu1512 2.563 . S
O1560 C1568 1.235 . S
O1561 Eu1512 2.419 . S
O1561 C1576 1.249 . S
O1562 Eu1523 2.558 . S
O1562 C1587 1.257 . S
O1563 Eu1512 2.380 . S
O1563 Eu1523 2.612 . S
O1563 C1579 1.276 . S
O1564 Eu1512 2.432 . S
O1564 C1586 1.264 . S
O1565 Eu1523 2.339 . S
O1565 C1586 1.254 . S
O1566 Eu1523 2.563 . S
O1566 C1579 1.235 . S
O1567 Eu1523 2.419 . S
O1567 C1587 1.249 . S
C1568 O1557 1.276 . S
C1568 O1560 1.235 . S
C1569 C1571 1.393 . S
C1569 C1573 1.395 . S
C1569 C1576 1.492 . S
C1570 C1571 1.392 . S
C1570 C1572 1.386 . S
C1571 C1569 1.393 . S
C1571 C1570 1.392 . S
C1571 H1588 0.930 . S
C1572 C1570 1.386 . S
C1572 C1574 1.395 . S
C1572 H1589 0.930 . S
C1573 C1569 1.395 . S
C1573 C1574 1.379 . S
C1573 H1590 0.930 . S
C1574 C1572 1.395 . S
C1574 C1573 1.379 . S
C1574 H1591 0.930 . S
C1575 O1558 1.264 . S
C1575 O1559 1.254 . S
C1576 Eu1512 2.848 . S
C1576 O1556 1.257 . S
C1576 O1561 1.249 . S
C1576 C1569 1.492 . S
C1577 H1542 0.931 . S
C1577 C1555 1.420 . S
C1577 C1578 1.351 . S
C1578 H1540 0.930 . S
C1578 C1546 1.423 . S
C1578 C1577 1.351 . S
C1579 O1563 1.276 . S
C1579 O1566 1.235 . S
C1580 C1581 1.393 . S
C1580 C1584 1.395 . S
C1580 C1587 1.492 . S
C1581 C1580 1.393 . S
C1581 C1582 1.392 . S
C1581 H1592 0.930 . S
C1582 C1581 1.392 . S
C1582 C1583 1.386 . S
C1583 C1582 1.386 . S
C1583 C1585 1.395 . S
C1583 H1593 0.930 . S
C1584 C1580 1.395 . S
C1584 C1585 1.379 . S
C1584 H1594 0.930 . S
C1585 C1583 1.395 . S
C1585 C1584 1.379 . S
C1585 H1595 0.930 . S
C1586 O1564 1.264 . S
C1586 O1565 1.254 . S
C1587 Eu1523 2.848 . S
C1587 O1562 1.257 . S
C1587 O1567 1.249 . S
C1587 C1580 1.492 . S
H1588 C1571 0.930 . S
H1589 C1572 0.930 . S
H1590 C1573 0.930 . S
H1591 C1574 0.930 . S
H1592 C1581 0.930 . S
H1593 C1583 0.930 . S
H1594 C1584 0.930 . S
H1595 C1585 0.930 . S
Eu1596 N1627 2.657 . S
Eu1596 N1634 2.609 1_554 S
Eu1596 O1640 2.558 1_554 S
Eu1596 O1641 2.612 . S
Eu1596 O1643 2.339 . S
Eu1596 O1644 2.563 . S
Eu1596 O1645 2.419 . S
Eu1596 O1647 2.380 . S
Eu1596 O1648 2.432 1_554 S
Eu1596 C1660 2.848 1_554 S
C1597 C1600 1.429 . S
C1597 C1601 1.411 . S
C1597 N1604 1.377 1_655 S
C1598 C1600 1.420 . S
C1598 C1602 1.423 . S
C1598 C1610 1.392 1_554 S
C1599 C1601 1.420 . S
C1599 C1602 1.351 . S
C1599 H1622 0.931 . S
C1600 C1597 1.429 . S
C1600 C1598 1.420 . S
C1600 N1608 1.364 . S
C1601 C1597 1.411 . S
C1601 C1599 1.420 . S
C1601 C1606 1.395 . S
C1602 C1598 1.423 . S
C1602 C1599 1.351 . S
C1602 H1614 0.930 . S
C1603 C1605 1.400 . S
C1603 C1606 1.386 1_455 S
C1603 H1615 0.930 . S
N1604 C1597 1.377 1_455 S
N1604 C1605 1.321 . S
N1604 Eu1607 2.609 . S
C1605 C1603 1.400 . S
C1605 N1604 1.321 . S
C1605 H1612 0.930 . S
C1606 C1601 1.395 . S
C1606 C1603 1.386 1_655 S
C1606 H1625 0.930 . S
Eu1607 N1604 2.609 . S
Eu1607 N1608 2.654 1_455 S
Eu1607 O1641 2.380 . S
Eu1607 O1642 2.432 . S
Eu1607 O1646 2.558 . S
Eu1607 O1647 2.612 . S
Eu1607 O1649 2.339 1_554 S
Eu1607 O1650 2.563 . S
Eu1607 O1651 2.419 1_455 S
Eu1607 C1671 2.848 1_455 S
N1608 C1600 1.364 . S
N1608 Eu1607 2.654 1_655 S
N1608 C1609 1.334 1_554 S
C1609 N1608 1.334 1_556 S
C1609 C1611 1.413 . S
C1609 H1616 0.914 1_655 S
C1610 C1598 1.392 1_556 S
C1610 C1611 1.367 . S
C1610 H1618 0.930 . S
C1611 C1609 1.413 . S
C1611 C1610 1.367 . S
C1611 H1613 0.930 . S
H1612 C1605 0.930 . S
H1613 C1611 0.930 . S
H1614 C1602 0.930 . S
H1615 C1603 0.930 . S
H1616 C1609 0.914 1_455 S
H1617 C1631 0.930 . S
H1618 C1610 0.930 . S
H1619 C1637 0.930 . S
H1620 C1628 0.929 . S
H1621 C1635 0.930 . S
H1622 C1599 0.931 . S
H1623 C1629 0.930 . S
H1624 C1662 0.930 . S
H1625 C1606 0.930 . S
H1626 C1661 0.931 . S
N1627 Eu1596 2.657 . S
N1627 C1628 1.334 . S
N1627 C1632 1.362 . S
C1628 H1620 0.929 . S
C1628 N1627 1.334 . S
C1628 C1631 1.413 . S
C1629 H1623 0.930 . S
C1629 C1630 1.392 . S
C1629 C1631 1.367 . S
C1630 C1629 1.392 . S
C1630 C1632 1.420 . S
C1630 C1662 1.423 . S
C1631 H1617 0.930 . S
C1631 C1628 1.413 . S
C1631 C1629 1.367 . S
C1632 N1627 1.362 . S
C1632 C1630 1.420 . S
C1632 C1636 1.429 1_554 S
H1633 C1638 0.930 . S
N1634 Eu1596 2.609 1_556 S
N1634 C1636 1.377 . S
N1634 C1637 1.321 . S
C1635 H1621 0.930 . S
C1635 C1637 1.400 . S
C1635 C1638 1.386 . S
C1636 C1632 1.429 1_556 S
C1636 N1634 1.377 . S
C1636 C1639 1.411 . S
C1637 H1619 0.930 . S
C1637 N1634 1.321 . S
C1637 C1635 1.400 . S
C1638 H1633 0.930 . S
C1638 C1635 1.386 . S
C1638 C1639 1.395 . S
C1639 C1636 1.411 . S
C1639 C1638 1.395 . S
C1639 C1661 1.420 . S
O1640 Eu1596 2.558 1_556 S
O1640 C1660 1.257 . S
O1641 Eu1596 2.612 . S
O1641 Eu1607 2.380 . S
O1641 C1652 1.276 . S
O1642 Eu1607 2.432 . S
O1642 C1659 1.264 . S
O1643 Eu1596 2.339 . S
O1643 C1659 1.254 . S
O1644 Eu1596 2.563 . S
O1644 C1652 1.235 . S
O1645 Eu1596 2.419 . S
O1645 C1660 1.249 1_554 S
O1646 Eu1607 2.558 . S
O1646 C1671 1.257 1_455 S
O1647 Eu1596 2.380 . S
O1647 Eu1607 2.612 . S
O1647 C1663 1.276 . S
O1648 Eu1596 2.432 1_556 S
O1648 C1670 1.264 . S
O1649 Eu1607 2.339 1_556 S
O1649 C1670 1.254 . S
O1650 Eu1607 2.563 . S
O1650 C1663 1.235 . S
O1651 Eu1607 2.419 1_655 S
O1651 C1671 1.249 . S
C1652 O1641 1.276 . S
C1652 O1644 1.235 . S
C1653 C1655 1.393 1_556 S
C1653 C1657 1.395 . S
C1653 C1660 1.492 . S
C1654 C1655 1.392 1_556 S
C1654 C1656 1.386 . S
C1655 C1653 1.393 1_554 S
C1655 C1654 1.392 1_554 S
C1655 H1672 0.930 . S
C1656 C1654 1.386 . S
C1656 C1658 1.395 . S
C1656 H1673 0.930 . S
C1657 C1653 1.395 . S
C1657 C1658 1.379 . S
C1657 H1674 0.930 . S
C1658 C1656 1.395 . S
C1658 C1657 1.379 . S
C1658 H1675 0.930 . S
C1659 O1642 1.264 . S
C1659 O1643 1.254 . S
C1660 Eu1596 2.848 1_556 S
C1660 O1640 1.257 . S
C1660 O1645 1.249 1_556 S
C1660 C1653 1.492 . S
C1661 H1626 0.931 . S
C1661 C1639 1.420 . S
C1661 C1662 1.351 1_556 S
C1662 H1624 0.930 . S
C1662 C1630 1.423 . S
C1662 C1661 1.351 1_554 S
C1663 O1647 1.276 . S
C1663 O1650 1.235 . S
C1664 C1665 1.393 . S
C1664 C1668 1.395 . S
C1664 C1671 1.492 . S
C1665 C1664 1.393 . S
C1665 C1666 1.392 . S
C1665 H1676 0.930 . S
C1666 C1665 1.392 . S
C1666 C1667 1.386 . S
C1667 C1666 1.386 . S
C1667 C1669 1.395 . S
C1667 H1677 0.930 . S
C1668 C1664 1.395 . S
C1668 C1669 1.379 . S
C1668 H1678 0.930 . S
C1669 C1667 1.395 . S
C1669 C1668 1.379 . S
C1669 H1679 0.930 . S
C1670 O1648 1.264 . S
C1670 O1649 1.254 . S
C1671 Eu1607 2.848 1_655 S
C1671 O1646 1.257 1_655 S
C1671 O1651 1.249 . S
C1671 C1664 1.492 . S
H1672 C1655 0.930 . S
H1673 C1656 0.930 . S
H1674 C1657 0.930 . S
H1675 C1658 0.930 . S
H1676 C1665 0.930 . S
H1677 C1667 0.930 . S
H1678 C1668 0.930 . S
H1679 C1669 0.930 . S
C1680 C1681 1.391 . S
C1680 C1682 1.394 . S
C1680 H1696 0.931 . S
C1681 C1680 1.391 . S
C1681 C1685 1.376 . S
C1682 C1680 1.394 . S
C1682 C1683 1.369 . S
C1682 C1686 1.531 . S
C1683 C1682 1.369 . S
C1683 C1684 1.410 . S
C1683 C1691 1.503 . S
C1684 C1683 1.410 . S
C1684 C1685 1.392 . S
C1684 C1687 1.511 1_556 S
C1685 C1681 1.376 . S
C1685 C1684 1.392 . S
C1685 H1697 0.931 . S
C1686 C1682 1.531 . S
C1686 H1698 0.960 . S
C1686 H1699 0.962 . S
C1686 H1700 0.960 . S
C1687 C1684 1.511 1_554 S
C1687 H1701 0.961 . S
C1687 H1702 0.961 . S
C1687 H1703 0.961 . S
C1688 C1689 1.370 . S
C1688 C1690 1.363 . S
C1688 H1704 0.931 . S
C1689 C1688 1.370 . S
C1689 C1693 1.408 . S
C1690 C1688 1.363 . S
C1690 C1691 1.370 1_554 S
C1690 C1694 1.524 . S
C1691 C1683 1.503 . S
C1691 C1690 1.370 1_556 S
C1691 C1692 1.403 . S
C1692 C1691 1.403 . S
C1692 C1693 1.404 1_556 S
C1692 C1695 1.539 . S
C1693 C1689 1.408 . S
C1693 C1692 1.404 1_554 S
C1693 H1705 0.932 . S
C1694 C1690 1.524 . S
C1694 H1706 0.956 1_454 S
C1694 H1707 0.961 . S
C1694 H1708 0.961 1_455 S
C1695 C1692 1.539 . S
C1695 H1709 0.958 . S
C1695 H1710 0.961 . S
C1695 H1711 0.960 . S
H1696 C1680 0.931 . S
H1697 C1685 0.931 . S
H1698 C1686 0.960 . S
H1699 C1686 0.962 . S
H1700 C1686 0.960 . S
H1701 C1687 0.961 . S
H1702 C1687 0.961 . S
H1703 C1687 0.961 . S
H1704 C1688 0.931 . S
H1705 C1693 0.932 . S
H1706 C1694 0.956 1_656 S
H1707 C1694 0.961 . S
H1708 C1694 0.961 1_655 S
H1709 C1695 0.958 . S
H1710 C1695 0.961 . S
H1711 C1695 0.960 . S
C1712 C1713 1.391 . S
C1712 C1714 1.394 . S
C1712 H1728 0.931 . S
C1713 C1712 1.391 . S
C1713 C1717 1.376 . S
C1714 C1712 1.394 . S
C1714 C1715 1.369 . S
C1714 C1718 1.531 . S
C1715 C1714 1.369 . S
C1715 C1716 1.410 . S
C1715 C1723 1.503 . S
C1716 C1715 1.410 . S
C1716 C1717 1.392 . S
C1716 C1719 1.511 . S
C1717 C1713 1.376 . S
C1717 C1716 1.392 . S
C1717 H1729 0.929 . S
C1718 C1714 1.531 . S
C1718 H1730 0.960 . S
C1718 H1731 0.962 . S
C1718 H1732 0.960 . S
C1719 C1716 1.511 . S
C1719 H1733 0.961 . S
C1719 H1734 0.961 . S
C1719 H1735 0.961 . S
C1720 C1721 1.370 . S
C1720 C1722 1.363 . S
C1720 H1736 0.931 . S
C1721 C1720 1.370 . S
C1721 C1725 1.408 . S
C1722 C1720 1.363 . S
C1722 C1723 1.370 . S
C1722 C1726 1.524 . S
C1723 C1715 1.503 . S
C1723 C1722 1.370 . S
C1723 C1724 1.403 . S
C1724 C1723 1.403 . S
C1724 C1725 1.404 . S
C1724 C1727 1.539 . S
C1725 C1721 1.408 . S
C1725 C1724 1.404 . S
C1725 H1737 0.930 . S
C1726 C1722 1.524 . S
C1726 H1738 0.956 . S
C1726 H1739 0.961 . S
C1726 H1740 0.961 . S
C1727 C1724 1.539 . S
C1727 H1741 0.958 . S
C1727 H1742 0.961 . S
C1727 H1743 0.960 . S
H1728 C1712 0.931 . S
H1729 C1717 0.929 . S
H1730 C1718 0.960 . S
H1731 C1718 0.962 . S
H1732 C1718 0.960 . S
H1733 C1719 0.961 . S
H1734 C1719 0.961 . S
H1735 C1719 0.961 . S
H1736 C1720 0.931 . S
H1737 C1725 0.930 . S
H1738 C1726 0.956 . S
H1739 C1726 0.961 . S
H1740 C1726 0.961 . S
H1741 C1727 0.958 . S
H1742 C1727 0.961 . S
H1743 C1727 0.960 . S
C1744 C1745 1.391 . S
C1744 C1746 1.394 . S
C1744 H1760 0.931 . S
C1745 C1744 1.391 . S
C1745 C1749 1.376 . S
C1746 C1744 1.394 . S
C1746 C1747 1.369 . S
C1746 C1750 1.531 . S
C1747 C1746 1.369 . S
C1747 C1748 1.410 . S
C1747 C1755 1.503 . S
C1748 C1747 1.410 . S
C1748 C1749 1.392 . S
C1748 C1751 1.511 . S
C1749 C1745 1.376 . S
C1749 C1748 1.392 . S
C1749 H1761 0.929 . S
C1750 C1746 1.531 . S
C1750 H1762 0.960 . S
C1750 H1763 0.962 . S
C1750 H1764 0.960 . S
C1751 C1748 1.511 . S
C1751 H1765 0.961 . S
C1751 H1766 0.961 . S
C1751 H1767 0.961 . S
C1752 C1753 1.370 . S
C1752 C1754 1.363 . S
C1752 H1768 0.931 . S
C1753 C1752 1.370 . S
C1753 C1757 1.408 . S
C1754 C1752 1.363 . S
C1754 C1755 1.370 . S
C1754 C1758 1.524 . S
C1755 C1747 1.503 . S
C1755 C1754 1.370 . S
C1755 C1756 1.403 . S
C1756 C1755 1.403 . S
C1756 C1757 1.404 . S
C1756 C1759 1.539 . S
C1757 C1753 1.408 . S
C1757 C1756 1.404 . S
C1757 H1769 0.930 . S
C1758 C1754 1.524 . S
C1758 H1770 0.956 . S
C1758 H1771 0.961 . S
C1758 H1772 0.961 . S
C1759 C1756 1.539 . S
C1759 H1773 0.958 . S
C1759 H1774 0.961 . S
C1759 H1775 0.960 . S
H1760 C1744 0.931 . S
H1761 C1749 0.929 . S
H1762 C1750 0.960 . S
H1763 C1750 0.962 . S
H1764 C1750 0.960 . S
H1765 C1751 0.961 . S
H1766 C1751 0.961 . S
H1767 C1751 0.961 . S
H1768 C1752 0.931 . S
H1769 C1757 0.930 . S
H1770 C1758 0.956 . S
H1771 C1758 0.961 . S
H1772 C1758 0.961 . S
H1773 C1759 0.958 . S
H1774 C1759 0.961 . S
H1775 C1759 0.960 . S
C1776 C1777 1.391 . S
C1776 C1778 1.394 . S
C1776 H1792 0.931 . S
C1777 C1776 1.391 . S
C1777 C1781 1.376 . S
C1778 C1776 1.394 . S
C1778 C1779 1.369 . S
C1778 C1782 1.531 . S
C1779 C1778 1.369 . S
C1779 C1780 1.410 . S
C1779 C1787 1.503 . S
C1780 C1779 1.410 . S
C1780 C1781 1.392 . S
C1780 C1783 1.511 . S
C1781 C1777 1.376 . S
C1781 C1780 1.392 . S
C1781 H1793 0.929 . S
C1782 C1778 1.531 . S
C1782 H1794 0.960 . S
C1782 H1795 0.962 . S
C1782 H1796 0.960 . S
C1783 C1780 1.511 . S
C1783 H1797 0.961 . S
C1783 H1798 0.961 . S
C1783 H1799 0.961 . S
C1784 C1785 1.370 . S
C1784 C1786 1.363 . S
C1784 H1800 0.931 . S
C1785 C1784 1.370 . S
C1785 C1789 1.408 . S
C1786 C1784 1.363 . S
C1786 C1787 1.370 . S
C1786 C1790 1.524 . S
C1787 C1779 1.503 . S
C1787 C1786 1.370 . S
C1787 C1788 1.403 . S
C1788 C1787 1.403 . S
C1788 C1789 1.404 . S
C1788 C1791 1.539 . S
C1789 C1785 1.408 . S
C1789 C1788 1.404 . S
C1789 H1801 0.930 . S
C1790 C1786 1.524 . S
C1790 H1802 0.956 . S
C1790 H1803 0.961 . S
C1790 H1804 0.961 . S
C1791 C1788 1.539 . S
C1791 H1805 0.958 . S
C1791 H1806 0.961 . S
C1791 H1807 0.960 . S
H1792 C1776 0.931 . S
H1793 C1781 0.929 . S
H1794 C1782 0.960 . S
H1795 C1782 0.962 . S
H1796 C1782 0.960 . S
H1797 C1783 0.961 . S
H1798 C1783 0.961 . S
H1799 C1783 0.961 . S
H1800 C1784 0.931 . S
H1801 C1789 0.930 . S
H1802 C1790 0.956 . S
H1803 C1790 0.961 . S
H1804 C1790 0.961 . S
H1805 C1791 0.958 . S
H1806 C1791 0.961 . S
H1807 C1791 0.960 . S
C1808 C1809 1.370 1_655 S
C1808 C1810 1.388 1_655 S
C1808 H1824 0.957 . S
C1809 C1808 1.370 1_455 S
C1809 C1813 1.376 . S
C1810 C1808 1.388 1_455 S
C1810 C1811 1.369 . S
C1810 C1814 1.531 1_455 S
C1811 C1810 1.369 . S
C1811 C1812 1.410 . S
C1811 C1819 1.503 . S
C1812 C1811 1.410 . S
C1812 C1813 1.392 . S
C1812 C1815 1.511 . S
C1813 C1809 1.376 . S
C1813 C1812 1.392 . S
C1813 H1825 0.929 . S
C1814 C1810 1.531 1_655 S
C1814 H1826 0.960 1_655 S
C1814 H1827 0.962 . S
C1814 H1828 0.960 . S
C1815 C1812 1.511 . S
C1815 H1829 0.961 . S
C1815 H1830 0.961 . S
C1815 H1831 0.961 . S
C1816 C1817 1.370 . S
C1816 C1818 1.363 . S
C1816 H1832 0.931 . S
C1817 C1816 1.370 . S
C1817 C1821 1.408 . S
C1818 C1816 1.363 . S
C1818 C1819 1.370 . S
C1818 C1822 1.524 . S
C1819 C1811 1.503 . S
C1819 C1818 1.370 . S
C1819 C1820 1.403 . S
C1820 C1819 1.403 . S
C1820 C1821 1.404 . S
C1820 C1823 1.539 . S
C1821 C1817 1.408 . S
C1821 C1820 1.404 . S
C1821 H1833 0.930 . S
C1822 C1818 1.524 . S
C1822 H1834 0.956 1_455 S
C1822 H1835 0.961 . S
C1822 H1836 0.961 . S
C1823 C1820 1.539 . S
C1823 H1837 0.958 . S
C1823 H1838 0.961 . S
C1823 H1839 0.960 . S
H1824 C1808 0.957 . S
H1825 C1813 0.929 . S
H1826 C1814 0.960 1_455 S
H1827 C1814 0.962 . S
H1828 C1814 0.960 . S
H1829 C1815 0.961 . S
H1830 C1815 0.961 . S
H1831 C1815 0.961 . S
H1832 C1816 0.931 . S
H1833 C1821 0.930 . S
H1834 C1822 0.956 1_655 S
H1835 C1822 0.961 . S
H1836 C1822 0.961 . S
H1837 C1823 0.958 . S
H1838 C1823 0.961 . S
H1839 C1823 0.960 . S
C1840 C1841 1.391 . S
C1840 C1842 1.394 . S
C1840 H1856 0.931 . S
C1841 C1840 1.391 . S
C1841 C1845 1.376 . S
C1842 C1840 1.394 . S
C1842 C1843 1.369 . S
C1842 C1846 1.531 . S
C1843 C1842 1.369 . S
C1843 C1844 1.410 . S
C1843 C1851 1.503 . S
C1844 C1843 1.410 . S
C1844 C1845 1.392 . S
C1844 C1847 1.511 . S
C1845 C1841 1.376 . S
C1845 C1844 1.392 . S
C1845 H1857 0.929 . S
C1846 C1842 1.531 . S
C1846 H1858 0.960 . S
C1846 H1859 0.962 . S
C1846 H1860 0.960 . S
C1847 C1844 1.511 . S
C1847 H1861 0.961 . S
C1847 H1862 0.961 . S
C1847 H1863 0.961 . S
C1848 C1849 1.370 . S
C1848 C1850 1.363 . S
C1848 H1864 0.931 . S
C1849 C1848 1.370 . S
C1849 C1853 1.408 . S
C1850 C1848 1.363 . S
C1850 C1851 1.370 . S
C1850 C1854 1.524 . S
C1851 C1843 1.503 . S
C1851 C1850 1.370 . S
C1851 C1852 1.403 . S
C1852 C1851 1.403 . S
C1852 C1853 1.404 . S
C1852 C1855 1.539 . S
C1853 C1849 1.408 . S
C1853 C1852 1.404 . S
C1853 H1865 0.930 . S
C1854 C1850 1.524 . S
C1854 H1866 0.956 . S
C1854 H1867 0.961 . S
C1854 H1868 0.961 . S
C1855 C1852 1.539 . S
C1855 H1869 0.958 . S
C1855 H1870 0.961 . S
C1855 H1871 0.960 . S
H1856 C1840 0.931 . S
H1857 C1845 0.929 . S
H1858 C1846 0.960 . S
H1859 C1846 0.962 . S
H1860 C1846 0.960 . S
H1861 C1847 0.961 . S
H1862 C1847 0.961 . S
H1863 C1847 0.961 . S
H1864 C1848 0.931 . S
H1865 C1853 0.930 . S
H1866 C1854 0.956 . S
H1867 C1854 0.961 . S
H1868 C1854 0.961 . S
H1869 C1855 0.958 . S
H1870 C1855 0.961 . S
H1871 C1855 0.960 . S
C1872 C1873 1.391 . S
C1872 C1874 1.394 . S
C1872 H1888 0.931 . S
C1873 C1872 1.391 . S
C1873 C1877 1.376 . S
C1874 C1872 1.394 . S
C1874 C1875 1.369 . S
C1874 C1878 1.531 . S
C1875 C1874 1.369 . S
C1875 C1876 1.410 . S
C1875 C1883 1.503 . S
C1876 C1875 1.410 . S
C1876 C1877 1.392 . S
C1876 C1879 1.511 . S
C1877 C1873 1.376 . S
C1877 C1876 1.392 . S
C1877 H1889 0.929 . S
C1878 C1874 1.531 . S
C1878 H1890 0.960 . S
C1878 H1891 0.962 . S
C1878 H1892 0.960 . S
C1879 C1876 1.511 . S
C1879 H1893 0.961 . S
C1879 H1894 0.961 . S
C1879 H1895 0.961 . S
C1880 C1881 1.370 . S
C1880 C1882 1.363 . S
C1880 H1896 0.931 . S
C1881 C1880 1.370 . S
C1881 C1885 1.408 . S
C1882 C1880 1.363 . S
C1882 C1883 1.370 . S
C1882 C1886 1.524 . S
C1883 C1875 1.503 . S
C1883 C1882 1.370 . S
C1883 C1884 1.403 . S
C1884 C1883 1.403 . S
C1884 C1885 1.404 . S
C1884 C1887 1.539 . S
C1885 C1881 1.408 . S
C1885 C1884 1.404 . S
C1885 H1897 0.930 . S
C1886 C1882 1.524 . S
C1886 H1898 0.956 . S
C1886 H1899 0.961 . S
C1886 H1900 0.961 . S
C1887 C1884 1.539 . S
C1887 H1901 0.958 . S
C1887 H1902 0.961 . S
C1887 H1903 0.960 . S
H1888 C1872 0.931 . S
H1889 C1877 0.929 . S
H1890 C1878 0.960 . S
H1891 C1878 0.962 . S
H1892 C1878 0.960 . S
H1893 C1879 0.961 . S
H1894 C1879 0.961 . S
H1895 C1879 0.961 . S
H1896 C1880 0.931 . S
H1897 C1885 0.930 . S
H1898 C1886 0.956 . S
H1899 C1886 0.961 . S
H1900 C1886 0.961 . S
H1901 C1887 0.958 . S
H1902 C1887 0.961 . S
H1903 C1887 0.960 . S
C1904 C1905 1.391 . S
C1904 C1906 1.394 . S
C1904 H1920 0.931 . S
C1905 C1904 1.391 . S
C1905 C1909 1.376 . S
C1906 C1904 1.394 . S
C1906 C1907 1.369 . S
C1906 C1910 1.531 . S
C1907 C1906 1.369 . S
C1907 C1908 1.410 . S
C1907 C1915 1.503 . S
C1908 C1907 1.410 . S
C1908 C1909 1.392 . S
C1908 C1911 1.511 . S
C1909 C1905 1.376 . S
C1909 C1908 1.392 . S
C1909 H1921 0.929 . S
C1910 C1906 1.531 . S
C1910 H1922 0.960 . S
C1910 H1923 0.962 . S
C1910 H1924 0.960 . S
C1911 C1908 1.511 . S
C1911 H1925 0.961 . S
C1911 H1926 0.961 . S
C1911 H1927 0.961 . S
C1912 C1913 1.370 . S
C1912 C1914 1.363 . S
C1912 H1928 0.931 . S
C1913 C1912 1.370 . S
C1913 C1917 1.408 . S
C1914 C1912 1.363 . S
C1914 C1915 1.370 . S
C1914 C1918 1.524 . S
C1915 C1907 1.503 . S
C1915 C1914 1.370 . S
C1915 C1916 1.403 . S
C1916 C1915 1.403 . S
C1916 C1917 1.404 . S
C1916 C1919 1.539 . S
C1917 C1913 1.408 . S
C1917 C1916 1.404 . S
C1917 H1929 0.930 . S
C1918 C1914 1.524 . S
C1918 H1930 0.956 . S
C1918 H1931 0.961 . S
C1918 H1932 0.961 . S
C1919 C1916 1.539 . S
C1919 H1933 0.958 . S
C1919 H1934 0.961 . S
C1919 H1935 0.960 . S
H1920 C1904 0.931 . S
H1921 C1909 0.929 . S
H1922 C1910 0.960 . S
H1923 C1910 0.962 . S
H1924 C1910 0.960 . S
H1925 C1911 0.961 . S
H1926 C1911 0.961 . S
H1927 C1911 0.961 . S
H1928 C1912 0.931 . S
H1929 C1917 0.930 . S
H1930 C1918 0.956 . S
H1931 C1918 0.961 . S
H1932 C1918 0.961 . S
H1933 C1919 0.958 . S
H1934 C1919 0.961 . S
H1935 C1919 0.960 . S
C1936 C1937 1.391 . S
C1936 C1938 1.371 1_655 S
C1936 H1952 0.931 . S
C1937 C1936 1.391 . S
C1937 C1941 1.376 . S
C1938 C1936 1.371 1_455 S
C1938 C1939 1.352 1_455 S
C1938 C1942 1.572 . S
C1939 C1938 1.352 1_655 S
C1939 C1940 1.410 . S
C1939 C1947 1.503 1_655 S
C1940 C1939 1.410 . S
C1940 C1941 1.392 . S
C1940 C1943 1.511 . S
C1941 C1937 1.376 . S
C1941 C1940 1.392 . S
C1941 H1953 0.929 . S
C1942 C1938 1.572 . S
C1942 H1954 0.960 . S
C1942 H1955 0.962 . S
C1942 H1956 0.960 . S
C1943 C1940 1.511 . S
C1943 H1957 0.961 . S
C1943 H1958 0.961 . S
C1943 H1959 0.961 . S
C1944 C1945 1.370 . S
C1944 C1946 1.363 . S
C1944 H1960 0.931 . S
C1945 C1944 1.370 . S
C1945 C1949 1.408 . S
C1946 C1944 1.363 . S
C1946 C1947 1.370 . S
C1946 C1950 1.524 . S
C1947 C1939 1.503 1_455 S
C1947 C1946 1.370 . S
C1947 C1948 1.403 1_455 S
C1948 C1947 1.403 1_655 S
C1948 C1949 1.404 1_655 S
C1948 C1951 1.539 . S
C1949 C1945 1.408 . S
C1949 C1948 1.404 1_455 S
C1949 H1961 0.930 . S
C1950 C1946 1.524 . S
C1950 H1962 0.956 . S
C1950 H1963 0.961 . S
C1950 H1964 0.961 . S
C1951 C1948 1.539 . S
C1951 H1965 0.958 . S
C1951 H1966 0.961 . S
C1951 H1967 0.960 . S
H1952 C1936 0.931 . S
H1953 C1941 0.929 . S
H1954 C1942 0.960 . S
H1955 C1942 0.962 . S
H1956 C1942 0.960 . S
H1957 C1943 0.961 . S
H1958 C1943 0.961 . S
H1959 C1943 0.961 . S
H1960 C1944 0.931 . S
H1961 C1949 0.930 . S
H1962 C1950 0.956 . S
H1963 C1950 0.961 . S
H1964 C1950 0.961 . S
H1965 C1951 0.958 . S
H1966 C1951 0.961 . S
H1967 C1951 0.960 . S
C1968 C1969 1.391 . S
C1968 C1970 1.394 . S
C1968 H1984 0.931 . S
C1969 C1968 1.391 . S
C1969 C1973 1.376 . S
C1970 C1968 1.394 . S
C1970 C1971 1.369 . S
C1970 C1974 1.531 . S
C1971 C1970 1.369 . S
C1971 C1972 1.410 . S
C1971 C1979 1.503 . S
C1972 C1971 1.410 . S
C1972 C1973 1.392 . S
C1972 C1975 1.511 . S
C1973 C1969 1.376 . S
C1973 C1972 1.392 . S
C1973 H1985 0.929 . S
C1974 C1970 1.531 . S
C1974 H1986 0.960 . S
C1974 H1987 0.962 . S
C1974 H1988 0.960 . S
C1975 C1972 1.511 . S
C1975 H1989 0.961 . S
C1975 H1990 0.961 . S
C1975 H1991 0.961 . S
C1976 C1977 1.370 . S
C1976 C1978 1.363 . S
C1976 H1992 0.931 . S
C1977 C1976 1.370 . S
C1977 C1981 1.408 . S
C1978 C1976 1.363 . S
C1978 C1979 1.370 . S
C1978 C1982 1.524 . S
C1979 C1971 1.503 . S
C1979 C1978 1.370 . S
C1979 C1980 1.403 . S
C1980 C1979 1.403 . S
C1980 C1981 1.404 . S
C1980 C1983 1.539 . S
C1981 C1977 1.408 . S
C1981 C1980 1.404 . S
C1981 H1993 0.930 . S
C1982 C1978 1.524 . S
C1982 H1994 0.956 . S
C1982 H1995 0.961 . S
C1982 H1996 0.961 . S
C1983 C1980 1.539 . S
C1983 H1997 0.958 . S
C1983 H1998 0.961 . S
C1983 H1999 0.960 . S
H1984 C1968 0.931 . S
H1985 C1973 0.929 . S
H1986 C1974 0.960 . S
H1987 C1974 0.962 . S
H1988 C1974 0.960 . S
H1989 C1975 0.961 . S
H1990 C1975 0.961 . S
H1991 C1975 0.961 . S
H1992 C1976 0.931 . S
H1993 C1981 0.930 . S
H1994 C1982 0.956 . S
H1995 C1982 0.961 . S
H1996 C1982 0.961 . S
H1997 C1983 0.958 . S
H1998 C1983 0.961 . S
H1999 C1983 0.960 . S
C2000 C2001 1.391 . S
C2000 C2002 1.394 . S
C2000 H2016 0.931 . S
C2001 C2000 1.391 . S
C2001 C2005 1.376 . S
C2002 C2000 1.394 . S
C2002 C2003 1.369 . S
C2002 C2006 1.531 . S
C2003 C2002 1.369 . S
C2003 C2004 1.410 . S
C2003 C2011 1.503 . S
C2004 C2003 1.410 . S
C2004 C2005 1.392 . S
C2004 C2007 1.511 . S
C2005 C2001 1.376 . S
C2005 C2004 1.392 . S
C2005 H2017 0.929 . S
C2006 C2002 1.531 . S
C2006 H2018 0.960 . S
C2006 H2019 0.962 . S
C2006 H2020 0.960 . S
C2007 C2004 1.511 . S
C2007 H2021 0.961 . S
C2007 H2022 0.961 . S
C2007 H2023 0.961 . S
C2008 C2009 1.370 . S
C2008 C2010 1.363 . S
C2008 H2024 0.931 . S
C2009 C2008 1.370 . S
C2009 C2013 1.408 . S
C2010 C2008 1.363 . S
C2010 C2011 1.370 . S
C2010 C2014 1.524 . S
C2011 C2003 1.503 . S
C2011 C2010 1.370 . S
C2011 C2012 1.403 . S
C2012 C2011 1.403 . S
C2012 C2013 1.404 . S
C2012 C2015 1.539 1_545 S
C2013 C2009 1.408 . S
C2013 C2012 1.404 . S
C2013 H2025 0.930 1_545 S
C2014 C2010 1.524 . S
C2014 H2026 0.956 . S
C2014 H2027 0.961 . S
C2014 H2028 0.961 . S
C2015 C2012 1.539 1_565 S
C2015 H2029 0.958 . S
C2015 H2030 0.961 . S
C2015 H2031 0.960 . S
H2016 C2000 0.931 . S
H2017 C2005 0.929 . S
H2018 C2006 0.960 . S
H2019 C2006 0.962 . S
H2020 C2006 0.960 . S
H2021 C2007 0.961 . S
H2022 C2007 0.961 . S
H2023 C2007 0.961 . S
H2024 C2008 0.931 . S
H2025 C2013 0.930 1_565 S
H2026 C2014 0.956 . S
H2027 C2014 0.961 . S
H2028 C2014 0.961 . S
H2029 C2015 0.958 . S
H2030 C2015 0.961 . S
H2031 C2015 0.960 . S
C2032 C2033 1.391 . S
C2032 C2034 1.394 . S
C2032 H2048 0.931 . S
C2033 C2032 1.391 . S
C2033 C2037 1.376 . S
C2034 C2032 1.394 . S
C2034 C2035 1.369 . S
C2034 C2038 1.531 . S
C2035 C2034 1.369 . S
C2035 C2036 1.410 . S
C2035 C2043 1.503 . S
C2036 C2035 1.410 . S
C2036 C2037 1.392 . S
C2036 C2039 1.511 . S
C2037 C2033 1.376 . S
C2037 C2036 1.392 . S
C2037 H2049 0.929 . S
C2038 C2034 1.531 . S
C2038 H2050 0.960 . S
C2038 H2051 0.962 . S
C2038 H2052 0.960 . S
C2039 C2036 1.511 . S
C2039 H2053 0.961 . S
C2039 H2054 0.961 . S
C2039 H2055 0.961 . S
C2040 C2041 1.370 . S
C2040 C2042 1.363 . S
C2040 H2056 0.931 . S
C2041 C2040 1.370 . S
C2041 C2045 1.408 . S
C2042 C2040 1.363 . S
C2042 C2043 1.370 . S
C2042 C2046 1.524 . S
C2043 C2035 1.503 . S
C2043 C2042 1.370 . S
C2043 C2044 1.403 . S
C2044 C2043 1.403 . S
C2044 C2045 1.404 . S
C2044 C2047 1.539 . S
C2045 C2041 1.408 . S
C2045 C2044 1.404 . S
C2045 H2057 0.930 . S
C2046 C2042 1.524 . S
C2046 H2058 0.956 . S
C2046 H2059 0.961 . S
C2046 H2060 0.961 . S
C2047 C2044 1.539 . S
C2047 H2061 0.958 . S
C2047 H2062 0.961 . S
C2047 H2063 0.960 . S
H2048 C2032 0.931 . S
H2049 C2037 0.929 . S
H2050 C2038 0.960 . S
H2051 C2038 0.962 . S
H2052 C2038 0.960 . S
H2053 C2039 0.961 . S
H2054 C2039 0.961 . S
H2055 C2039 0.961 . S
H2056 C2040 0.931 . S
H2057 C2045 0.930 . S
H2058 C2046 0.956 . S
H2059 C2046 0.961 . S
H2060 C2046 0.961 . S
H2061 C2047 0.958 . S
H2062 C2047 0.961 . S
H2063 C2047 0.960 . S
C2064 C2065 1.391 1_455 S
C2064 C2066 1.394 . S
C2064 H2080 0.931 . S
C2065 C2064 1.391 1_655 S
C2065 C2069 1.376 . S
C2066 C2064 1.394 . S
C2066 C2067 1.369 . S
C2066 C2070 1.531 . S
C2067 C2066 1.369 . S
C2067 C2068 1.410 1_455 S
C2067 C2075 1.503 . S
C2068 C2067 1.410 1_655 S
C2068 C2069 1.392 . S
C2068 C2071 1.511 . S
C2069 C2065 1.376 . S
C2069 C2068 1.392 . S
C2069 H2081 0.929 . S
C2070 C2066 1.531 . S
C2070 H2082 0.960 . S
C2070 H2083 0.962 . S
C2070 H2084 0.960 . S
C2071 C2068 1.511 . S
C2071 H2085 0.961 . S
C2071 H2086 0.961 . S
C2071 H2087 0.961 . S
C2072 C2073 1.370 . S
C2072 C2074 1.363 . S
C2072 H2088 0.931 . S
C2073 C2072 1.370 . S
C2073 C2077 1.408 . S
C2074 C2072 1.363 . S
C2074 C2075 1.370 . S
C2074 C2078 1.524 . S
C2075 C2067 1.503 . S
C2075 C2074 1.370 . S
C2075 C2076 1.403 . S
C2076 C2075 1.403 . S
C2076 C2077 1.404 . S
C2076 C2079 1.539 . S
C2077 C2073 1.408 . S
C2077 C2076 1.404 . S
C2077 H2089 0.930 . S
C2078 C2074 1.524 . S
C2078 H2090 0.956 . S
C2078 H2091 0.961 1_455 S
C2078 H2092 0.961 . S
C2079 C2076 1.539 . S
C2079 H2093 0.958 . S
C2079 H2094 0.961 . S
C2079 H2095 0.960 1_455 S
H2080 C2064 0.931 . S
H2081 C2069 0.929 . S
H2082 C2070 0.960 . S
H2083 C2070 0.962 . S
H2084 C2070 0.960 . S
H2085 C2071 0.961 . S
H2086 C2071 0.961 . S
H2087 C2071 0.961 . S
H2088 C2072 0.931 . S
H2089 C2077 0.930 . S
H2090 C2078 0.956 . S
H2091 C2078 0.961 1_655 S
H2092 C2078 0.961 . S
H2093 C2079 0.958 . S
H2094 C2079 0.961 . S
H2095 C2079 0.960 1_655 S
C2096 C2097 1.391 . S
C2096 C2098 1.394 . S
C2096 H2112 0.931 . S
C2097 C2096 1.391 . S
C2097 C2101 1.376 . S
C2098 C2096 1.394 . S
C2098 C2099 1.369 . S
C2098 C2102 1.531 . S
C2099 C2098 1.369 . S
C2099 C2100 1.410 . S
C2099 C2107 1.503 . S
C2100 C2099 1.410 . S
C2100 C2101 1.392 . S
C2100 C2103 1.511 . S
C2101 C2097 1.376 . S
C2101 C2100 1.392 . S
C2101 H2113 0.929 . S
C2102 C2098 1.531 . S
C2102 H2114 0.960 . S
C2102 H2115 0.962 . S
C2102 H2116 0.960 . S
C2103 C2100 1.511 . S
C2103 H2117 0.961 . S
C2103 H2118 0.961 . S
C2103 H2119 0.961 . S
C2104 C2105 1.370 . S
C2104 C2106 1.363 . S
C2104 H2120 0.931 . S
C2105 C2104 1.370 . S
C2105 C2109 1.408 . S
C2106 C2104 1.363 . S
C2106 C2107 1.370 . S
C2106 C2110 1.524 . S
C2107 C2099 1.503 . S
C2107 C2106 1.370 . S
C2107 C2108 1.403 . S
C2108 C2107 1.403 . S
C2108 C2109 1.404 . S
C2108 C2111 1.539 . S
C2109 C2105 1.408 . S
C2109 C2108 1.404 . S
C2109 H2121 0.930 . S
C2110 C2106 1.524 . S
C2110 H2122 0.956 . S
C2110 H2123 0.961 . S
C2110 H2124 0.961 . S
C2111 C2108 1.539 . S
C2111 H2125 0.958 . S
C2111 H2126 0.961 . S
C2111 H2127 0.960 . S
H2112 C2096 0.931 . S
H2113 C2101 0.929 . S
H2114 C2102 0.960 . S
H2115 C2102 0.962 . S
H2116 C2102 0.960 . S
H2117 C2103 0.961 . S
H2118 C2103 0.961 . S
H2119 C2103 0.961 . S
H2120 C2104 0.931 . S
H2121 C2109 0.930 . S
H2122 C2110 0.956 . S
H2123 C2110 0.961 . S
H2124 C2110 0.961 . S
H2125 C2111 0.958 . S
H2126 C2111 0.961 . S
H2127 C2111 0.960 . S
C2128 C2129 1.391 . S
C2128 C2130 1.394 . S
C2128 H2144 0.931 . S
C2129 C2128 1.391 . S
C2129 C2133 1.376 . S
C2130 C2128 1.394 . S
C2130 C2131 1.369 . S
C2130 C2134 1.531 . S
C2131 C2130 1.369 . S
C2131 C2132 1.410 . S
C2131 C2139 1.503 . S
C2132 C2131 1.410 . S
C2132 C2133 1.392 . S
C2132 C2135 1.511 . S
C2133 C2129 1.376 . S
C2133 C2132 1.392 . S
C2133 H2145 0.929 . S
C2134 C2130 1.531 . S
C2134 H2146 0.960 . S
C2134 H2147 0.962 . S
C2134 H2148 0.960 . S
C2135 C2132 1.511 . S
C2135 H2149 0.961 . S
C2135 H2150 0.961 . S
C2135 H2151 0.961 . S
C2136 C2137 1.370 . S
C2136 C2138 1.363 . S
C2136 H2152 0.931 . S
C2137 C2136 1.370 . S
C2137 C2141 1.408 . S
C2138 C2136 1.363 . S
C2138 C2139 1.370 . S
C2138 C2142 1.524 . S
C2139 C2131 1.503 . S
C2139 C2138 1.370 . S
C2139 C2140 1.403 . S
C2140 C2139 1.403 . S
C2140 C2141 1.404 . S
C2140 C2143 1.539 . S
C2141 C2137 1.408 . S
C2141 C2140 1.404 . S
C2141 H2153 0.930 . S
C2142 C2138 1.524 . S
C2142 H2154 0.956 . S
C2142 H2155 0.961 . S
C2142 H2156 0.961 . S
C2143 C2140 1.539 . S
C2143 H2157 0.958 . S
C2143 H2158 0.961 . S
C2143 H2159 0.960 . S
H2144 C2128 0.931 . S
H2145 C2133 0.929 . S
H2146 C2134 0.960 . S
H2147 C2134 0.962 . S
H2148 C2134 0.960 . S
H2149 C2135 0.961 . S
H2150 C2135 0.961 . S
H2151 C2135 0.961 . S
H2152 C2136 0.931 . S
H2153 C2141 0.930 . S
H2154 C2142 0.956 . S
H2155 C2142 0.961 . S
H2156 C2142 0.961 . S
H2157 C2143 0.958 . S
H2158 C2143 0.961 . S
H2159 C2143 0.960 . S
C2160 C2161 1.391 . S
C2160 C2162 1.394 . S
C2160 H2176 0.931 . S
C2161 C2160 1.391 . S
C2161 C2165 1.376 . S
C2162 C2160 1.394 . S
C2162 C2163 1.369 . S
C2162 C2166 1.531 . S
C2163 C2162 1.369 . S
C2163 C2164 1.410 . S
C2163 C2171 1.503 . S
C2164 C2163 1.410 . S
C2164 C2165 1.392 . S
C2164 C2167 1.511 . S
C2165 C2161 1.376 . S
C2165 C2164 1.392 . S
C2165 H2177 0.929 . S
C2166 C2162 1.531 . S
C2166 H2178 0.960 . S
C2166 H2179 0.962 . S
C2166 H2180 0.960 . S
C2167 C2164 1.511 . S
C2167 H2181 0.961 . S
C2167 H2182 0.961 . S
C2167 H2183 0.961 . S
C2168 C2169 1.370 . S
C2168 C2170 1.363 . S
C2168 H2184 0.931 . S
C2169 C2168 1.370 . S
C2169 C2173 1.408 . S
C2170 C2168 1.363 . S
C2170 C2171 1.370 . S
C2170 C2174 1.524 . S
C2171 C2163 1.503 . S
C2171 C2170 1.370 . S
C2171 C2172 1.403 . S
C2172 C2171 1.403 . S
C2172 C2173 1.404 . S
C2172 C2175 1.539 . S
C2173 C2169 1.408 . S
C2173 C2172 1.404 . S
C2173 H2185 0.930 . S
C2174 C2170 1.524 . S
C2174 H2186 0.956 . S
C2174 H2187 0.961 . S
C2174 H2188 0.961 . S
C2175 C2172 1.539 . S
C2175 H2189 0.958 . S
C2175 H2190 0.961 . S
C2175 H2191 0.960 . S
H2176 C2160 0.931 . S
H2177 C2165 0.929 . S
H2178 C2166 0.960 . S
H2179 C2166 0.962 . S
H2180 C2166 0.960 . S
H2181 C2167 0.961 . S
H2182 C2167 0.961 . S
H2183 C2167 0.961 . S
H2184 C2168 0.931 . S
H2185 C2173 0.930 . S
H2186 C2174 0.956 . S
H2187 C2174 0.961 . S
H2188 C2174 0.961 . S
H2189 C2175 0.958 . S
H2190 C2175 0.961 . S
H2191 C2175 0.960 . S
C2192 C2193 1.391 . S
C2192 C2194 1.394 . S
C2192 H2208 0.931 . S
C2193 C2192 1.391 . S
C2193 C2197 1.376 . S
C2194 C2192 1.394 . S
C2194 C2195 1.369 . S
C2194 C2198 1.531 . S
C2195 C2194 1.369 . S
C2195 C2196 1.410 . S
C2195 C2203 1.503 . S
C2196 C2195 1.410 . S
C2196 C2197 1.392 . S
C2196 C2199 1.511 1_565 S
C2197 C2193 1.376 . S
C2197 C2196 1.392 . S
C2197 H2209 0.929 . S
C2198 C2194 1.531 . S
C2198 H2210 0.960 . S
C2198 H2211 0.962 . S
C2198 H2212 0.960 . S
C2199 C2196 1.511 1_545 S
C2199 H2213 0.961 . S
C2199 H2214 0.961 . S
C2199 H2215 0.961 . S
C2200 C2201 1.370 1_565 S
C2200 C2202 1.363 . S
C2200 H2216 0.931 1_554 S
C2201 C2200 1.370 1_545 S
C2201 C2205 1.408 . S
C2202 C2200 1.363 . S
C2202 C2203 1.370 . S
C2202 C2206 1.524 1_554 S
C2203 C2195 1.503 . S
C2203 C2202 1.370 . S
C2203 C2204 1.403 1_565 S
C2204 C2203 1.403 1_545 S
C2204 C2205 1.404 . S
C2204 C2207 1.539 . S
C2205 C2201 1.408 . S
C2205 C2204 1.404 . S
C2205 H2217 0.930 . S
C2206 C2202 1.524 1_556 S
C2206 H2218 0.956 . S
C2206 H2219 0.961 . S
C2206 H2220 0.961 . S
C2207 C2204 1.539 . S
C2207 H2221 0.958 1_545 S
C2207 H2222 0.961 . S
C2207 H2223 0.960 . S
H2208 C2192 0.931 . S
H2209 C2197 0.929 . S
H2210 C2198 0.960 . S
H2211 C2198 0.962 . S
H2212 C2198 0.960 . S
H2213 C2199 0.961 . S
H2214 C2199 0.961 . S
H2215 C2199 0.961 . S
H2216 C2200 0.931 1_556 S
H2217 C2205 0.930 . S
H2218 C2206 0.956 . S
H2219 C2206 0.961 . S
H2220 C2206 0.961 . S
H2221 C2207 0.958 1_565 S
H2222 C2207 0.961 . S
H2223 C2207 0.960 . S
C2224 C2225 1.391 . S
C2224 C2226 1.394 . S
C2224 H2240 0.931 . S
C2225 C2224 1.391 . S
C2225 C2229 1.376 1_556 S
C2226 C2224 1.394 . S
C2226 C2227 1.369 1_556 S
C2226 C2230 1.531 . S
C2227 C2226 1.369 1_554 S
C2227 C2228 1.410 . S
C2227 C2235 1.498 . S
C2228 C2227 1.410 . S
C2228 C2229 1.392 . S
C2228 C2231 1.511 . S
C2229 C2225 1.376 1_554 S
C2229 C2228 1.392 . S
C2229 H2241 0.929 . S
C2230 C2226 1.531 . S
C2230 H2242 0.960 . S
C2230 H2243 0.962 . S
C2230 H2244 0.960 . S
C2231 C2228 1.511 . S
C2231 H2245 0.961 . S
C2231 H2246 0.961 . S
C2231 H2247 0.961 . S
C2232 C2233 1.367 . S
C2232 C2234 1.363 . S
C2232 H2248 0.931 . S
C2233 C2232 1.367 . S
C2233 C2237 1.411 1_556 S
C2234 C2232 1.363 . S
C2234 C2235 1.344 1_556 S
C2234 C2238 1.524 . S
C2235 C2227 1.498 . S
C2235 C2234 1.344 1_554 S
C2235 C2236 1.435 . S
C2236 C2235 1.435 . S
C2236 C2237 1.404 . S
C2236 C2239 1.539 . S
C2237 C2233 1.411 1_554 S
C2237 C2236 1.404 . S
C2237 H2249 0.930 . S
C2238 C2234 1.524 . S
C2238 H2250 0.956 . S
C2238 H2251 0.961 . S
C2238 H2252 0.961 . S
C2239 C2236 1.539 . S
C2239 H2253 0.958 . S
C2239 H2254 0.961 . S
C2239 H2255 0.960 . S
H2240 C2224 0.931 . S
H2241 C2229 0.929 . S
H2242 C2230 0.960 . S
H2243 C2230 0.962 . S
H2244 C2230 0.960 . S
H2245 C2231 0.961 . S
H2246 C2231 0.961 . S
H2247 C2231 0.961 . S
H2248 C2232 0.931 . S
H2249 C2237 0.930 . S
H2250 C2238 0.956 . S
H2251 C2238 0.961 . S
H2252 C2238 0.961 . S
H2253 C2239 0.958 . S
H2254 C2239 0.961 . S
H2255 C2239 0.960 . S
C2256 C2257 1.391 . S
C2256 C2258 1.394 . S
C2256 H2272 0.931 . S
C2257 C2256 1.391 . S
C2257 C2261 1.376 . S
C2258 C2256 1.394 . S
C2258 C2259 1.369 . S
C2258 C2262 1.531 . S
C2259 C2258 1.369 . S
C2259 C2260 1.410 . S
C2259 C2267 1.503 . S
C2260 C2259 1.410 . S
C2260 C2261 1.392 . S
C2260 C2263 1.511 . S
C2261 C2257 1.376 . S
C2261 C2260 1.392 . S
C2261 H2273 0.929 . S
C2262 C2258 1.531 . S
C2262 H2274 0.960 . S
C2262 H2275 0.962 . S
C2262 H2276 0.960 . S
C2263 C2260 1.511 . S
C2263 H2277 0.961 . S
C2263 H2278 0.961 . S
C2263 H2279 0.961 . S
C2264 C2265 1.370 . S
C2264 C2266 1.363 . S
C2264 H2280 0.931 . S
C2265 C2264 1.370 . S
C2265 C2269 1.408 . S
C2266 C2264 1.363 . S
C2266 C2267 1.370 . S
C2266 C2270 1.524 . S
C2267 C2259 1.503 . S
C2267 C2266 1.370 . S
C2267 C2268 1.403 . S
C2268 C2267 1.403 . S
C2268 C2269 1.404 . S
C2268 C2271 1.539 . S
C2269 C2265 1.408 . S
C2269 C2268 1.404 . S
C2269 H2281 0.930 . S
C2270 C2266 1.524 . S
C2270 H2282 0.956 . S
C2270 H2283 0.961 . S
C2270 H2284 0.961 . S
C2271 C2268 1.539 . S
C2271 H2285 0.958 . S
C2271 H2286 0.961 . S
C2271 H2287 0.960 . S
H2272 C2256 0.931 . S
H2273 C2261 0.929 . S
H2274 C2262 0.960 . S
H2275 C2262 0.962 . S
H2276 C2262 0.960 . S
H2277 C2263 0.961 . S
H2278 C2263 0.961 . S
H2279 C2263 0.961 . S
H2280 C2264 0.931 . S
H2281 C2269 0.930 . S
H2282 C2270 0.956 . S
H2283 C2270 0.961 . S
H2284 C2270 0.961 . S
H2285 C2271 0.958 . S
H2286 C2271 0.961 . S
H2287 C2271 0.960 . S
C2288 C2289 1.391 . S
C2288 C2290 1.394 . S
C2288 H2304 0.931 . S
C2289 C2288 1.391 . S
C2289 C2293 1.376 . S
C2290 C2288 1.394 . S
C2290 C2291 1.369 . S
C2290 C2294 1.531 . S
C2291 C2290 1.369 . S
C2291 C2292 1.410 . S
C2291 C2299 1.503 . S
C2292 C2291 1.410 . S
C2292 C2293 1.392 . S
C2292 C2295 1.511 . S
C2293 C2289 1.376 . S
C2293 C2292 1.392 . S
C2293 H2305 0.929 . S
C2294 C2290 1.531 . S
C2294 H2306 0.960 . S
C2294 H2307 0.962 . S
C2294 H2308 0.960 . S
C2295 C2292 1.511 . S
C2295 H2309 0.961 . S
C2295 H2310 0.961 . S
C2295 H2311 0.961 . S
C2296 C2297 1.370 1_655 S
C2296 C2298 1.363 . S
C2296 H2312 0.931 . S
C2297 C2296 1.370 1_455 S
C2297 C2301 1.408 1_455 S
C2298 C2296 1.363 . S
C2298 C2299 1.370 . S
C2298 C2302 1.524 . S
C2299 C2291 1.503 . S
C2299 C2298 1.370 . S
C2299 C2300 1.403 . S
C2300 C2299 1.403 . S
C2300 C2301 1.404 . S
C2300 C2303 1.539 . S
C2301 C2297 1.408 1_655 S
C2301 C2300 1.404 . S
C2301 H2313 0.930 1_655 S
C2302 C2298 1.524 . S
C2302 H2314 0.956 . S
C2302 H2315 0.961 . S
C2302 H2316 0.961 . S
C2303 C2300 1.539 . S
C2303 H2317 0.958 . S
C2303 H2318 0.961 . S
C2303 H2319 0.960 . S
H2304 C2288 0.931 . S
H2305 C2293 0.929 . S
H2306 C2294 0.960 . S
H2307 C2294 0.962 . S
H2308 C2294 0.960 . S
H2309 C2295 0.961 . S
H2310 C2295 0.961 . S
H2311 C2295 0.961 . S
H2312 C2296 0.931 . S
H2313 C2301 0.930 1_455 S
H2314 C2302 0.956 . S
H2315 C2302 0.961 . S
H2316 C2302 0.961 . S
H2317 C2303 0.958 . S
H2318 C2303 0.961 . S
H2319 C2303 0.960 . S
C2320 C2321 1.391 . S
C2320 C2322 1.394 . S
C2320 H2336 0.931 . S
C2321 C2320 1.391 . S
C2321 C2325 1.376 . S
C2322 C2320 1.394 . S
C2322 C2323 1.369 . S
C2322 C2326 1.531 . S
C2323 C2322 1.369 . S
C2323 C2324 1.410 . S
C2323 C2331 1.503 . S
C2324 C2323 1.410 . S
C2324 C2325 1.392 . S
C2324 C2327 1.511 . S
C2325 C2321 1.376 . S
C2325 C2324 1.392 . S
C2325 H2337 0.929 . S
C2326 C2322 1.531 . S
C2326 H2338 0.960 . S
C2326 H2339 0.962 . S
C2326 H2340 0.960 . S
C2327 C2324 1.511 . S
C2327 H2341 0.961 . S
C2327 H2342 0.961 . S
C2327 H2343 0.961 . S
C2328 C2329 1.370 . S
C2328 C2330 1.363 . S
C2328 H2344 0.931 . S
C2329 C2328 1.370 . S
C2329 C2333 1.408 . S
C2330 C2328 1.363 . S
C2330 C2331 1.370 . S
C2330 C2334 1.524 . S
C2331 C2323 1.503 . S
C2331 C2330 1.370 . S
C2331 C2332 1.403 . S
C2332 C2331 1.403 . S
C2332 C2333 1.404 . S
C2332 C2335 1.539 . S
C2333 C2329 1.408 . S
C2333 C2332 1.404 . S
C2333 H2345 0.930 . S
C2334 C2330 1.524 . S
C2334 H2346 0.956 . S
C2334 H2347 0.961 . S
C2334 H2348 0.961 . S
C2335 C2332 1.539 . S
C2335 H2349 0.958 . S
C2335 H2350 0.961 . S
C2335 H2351 0.960 . S
H2336 C2320 0.931 . S
H2337 C2325 0.929 . S
H2338 C2326 0.960 . S
H2339 C2326 0.962 . S
H2340 C2326 0.960 . S
H2341 C2327 0.961 . S
H2342 C2327 0.961 . S
H2343 C2327 0.961 . S
H2344 C2328 0.931 . S
H2345 C2333 0.930 . S
H2346 C2334 0.956 . S
H2347 C2334 0.961 . S
H2348 C2334 0.961 . S
H2349 C2335 0.958 . S
H2350 C2335 0.961 . S
H2351 C2335 0.960 . S
C2352 C2353 1.391 . S
C2352 C2354 1.394 . S
C2352 H2368 0.931 . S
C2353 C2352 1.391 . S
C2353 C2357 1.376 . S
C2354 C2352 1.394 . S
C2354 C2355 1.369 . S
C2354 C2358 1.531 . S
C2355 C2354 1.369 . S
C2355 C2356 1.410 . S
C2355 C2363 1.503 . S
C2356 C2355 1.410 . S
C2356 C2357 1.392 . S
C2356 C2359 1.511 . S
C2357 C2353 1.376 . S
C2357 C2356 1.392 . S
C2357 H2369 0.929 . S
C2358 C2354 1.531 . S
C2358 H2370 0.960 . S
C2358 H2371 0.962 . S
C2358 H2372 0.960 . S
C2359 C2356 1.511 . S
C2359 H2373 0.961 . S
C2359 H2374 0.961 . S
C2359 H2375 0.961 . S
C2360 C2361 1.370 . S
C2360 C2362 1.363 . S
C2360 H2376 0.931 . S
C2361 C2360 1.370 . S
C2361 C2365 1.408 . S
C2362 C2360 1.363 . S
C2362 C2363 1.370 . S
C2362 C2366 1.524 . S
C2363 C2355 1.503 . S
C2363 C2362 1.370 . S
C2363 C2364 1.403 . S
C2364 C2363 1.403 . S
C2364 C2365 1.404 . S
C2364 C2367 1.539 . S
C2365 C2361 1.408 . S
C2365 C2364 1.404 . S
C2365 H2377 0.930 . S
C2366 C2362 1.524 . S
C2366 H2378 0.956 . S
C2366 H2379 0.961 . S
C2366 H2380 0.961 . S
C2367 C2364 1.539 . S
C2367 H2381 0.958 . S
C2367 H2382 0.961 . S
C2367 H2383 0.960 . S
H2368 C2352 0.931 . S
H2369 C2357 0.929 . S
H2370 C2358 0.960 . S
H2371 C2358 0.962 . S
H2372 C2358 0.960 . S
H2373 C2359 0.961 . S
H2374 C2359 0.961 . S
H2375 C2359 0.961 . S
H2376 C2360 0.931 . S
H2377 C2365 0.930 . S
H2378 C2366 0.956 . S
H2379 C2366 0.961 . S
H2380 C2366 0.961 . S
H2381 C2367 0.958 . S
H2382 C2367 0.961 . S
H2383 C2367 0.960 . S
C2384 C2385 1.391 . S
C2384 C2386 1.394 . S
C2384 H2400 0.931 . S
C2385 C2384 1.391 . S
C2385 C2389 1.376 . S
C2386 C2384 1.394 . S
C2386 C2387 1.369 . S
C2386 C2390 1.531 . S
C2387 C2386 1.369 . S
C2387 C2388 1.410 . S
C2387 C2395 1.503 . S
C2388 C2387 1.410 . S
C2388 C2389 1.392 . S
C2388 C2391 1.511 . S
C2389 C2385 1.376 . S
C2389 C2388 1.392 . S
C2389 H2401 0.929 . S
C2390 C2386 1.531 . S
C2390 H2402 0.960 . S
C2390 H2403 0.962 . S
C2390 H2404 0.960 . S
C2391 C2388 1.511 . S
C2391 H2405 0.961 . S
C2391 H2406 0.961 . S
C2391 H2407 0.961 . S
C2392 C2393 1.370 . S
C2392 C2394 1.363 . S
C2392 H2408 0.931 . S
C2393 C2392 1.370 . S
C2393 C2397 1.408 . S
C2394 C2392 1.363 . S
C2394 C2395 1.370 . S
C2394 C2398 1.524 . S
C2395 C2387 1.503 . S
C2395 C2394 1.370 . S
C2395 C2396 1.403 . S
C2396 C2395 1.403 . S
C2396 C2397 1.404 . S
C2396 C2399 1.539 . S
C2397 C2393 1.408 . S
C2397 C2396 1.404 . S
C2397 H2409 0.930 . S
C2398 C2394 1.524 . S
C2398 H2410 0.956 . S
C2398 H2411 0.961 . S
C2398 H2412 0.961 . S
C2399 C2396 1.539 . S
C2399 H2413 0.958 . S
C2399 H2414 0.961 . S
C2399 H2415 0.960 . S
H2400 C2384 0.931 . S
H2401 C2389 0.929 . S
H2402 C2390 0.960 . S
H2403 C2390 0.962 . S
H2404 C2390 0.960 . S
H2405 C2391 0.961 . S
H2406 C2391 0.961 . S
H2407 C2391 0.961 . S
H2408 C2392 0.931 . S
H2409 C2397 0.930 . S
H2410 C2398 0.956 . S
H2411 C2398 0.961 . S
H2412 C2398 0.961 . S
H2413 C2399 0.958 . S
H2414 C2399 0.961 . S
H2415 C2399 0.960 . S
C2416 C2417 1.391 . S
C2416 C2418 1.394 . S
C2416 H2432 0.931 . S
C2417 C2416 1.391 . S
C2417 C2421 1.376 . S
C2418 C2416 1.394 . S
C2418 C2419 1.369 . S
C2418 C2422 1.531 . S
C2419 C2418 1.369 . S
C2419 C2420 1.410 . S
C2419 C2427 1.503 . S
C2420 C2419 1.410 . S
C2420 C2421 1.392 . S
C2420 C2423 1.511 . S
C2421 C2417 1.376 . S
C2421 C2420 1.392 . S
C2421 H2433 0.929 . S
C2422 C2418 1.531 . S
C2422 H2434 0.960 . S
C2422 H2435 0.962 . S
C2422 H2436 0.960 . S
C2423 C2420 1.511 . S
C2423 H2437 0.961 . S
C2423 H2438 0.961 . S
C2423 H2439 0.961 . S
C2424 C2425 1.370 . S
C2424 C2426 1.363 . S
C2424 H2440 0.931 . S
C2425 C2424 1.370 . S
C2425 C2429 1.408 . S
C2426 C2424 1.363 . S
C2426 C2427 1.370 . S
C2426 C2430 1.524 . S
C2427 C2419 1.503 . S
C2427 C2426 1.370 . S
C2427 C2428 1.403 . S
C2428 C2427 1.403 . S
C2428 C2429 1.404 . S
C2428 C2431 1.539 . S
C2429 C2425 1.408 . S
C2429 C2428 1.404 . S
C2429 H2441 0.930 . S
C2430 C2426 1.524 . S
C2430 H2442 0.956 . S
C2430 H2443 0.961 . S
C2430 H2444 0.961 . S
C2431 C2428 1.539 . S
C2431 H2445 0.958 . S
C2431 H2446 0.961 . S
C2431 H2447 0.960 . S
H2432 C2416 0.931 . S
H2433 C2421 0.929 . S
H2434 C2422 0.960 . S
H2435 C2422 0.962 . S
H2436 C2422 0.960 . S
H2437 C2423 0.961 . S
H2438 C2423 0.961 . S
H2439 C2423 0.961 . S
H2440 C2424 0.931 . S
H2441 C2429 0.930 . S
H2442 C2430 0.956 . S
H2443 C2430 0.961 . S
H2444 C2430 0.961 . S
H2445 C2431 0.958 . S
H2446 C2431 0.961 . S
H2447 C2431 0.960 . S
C2448 C2449 1.391 . S
C2448 C2450 1.394 . S
C2448 H2464 0.931 . S
C2449 C2448 1.391 . S
C2449 C2453 1.376 . S
C2450 C2448 1.394 . S
C2450 C2451 1.369 . S
C2450 C2454 1.531 . S
C2451 C2450 1.369 . S
C2451 C2452 1.410 . S
C2451 C2459 1.503 . S
C2452 C2451 1.410 . S
C2452 C2453 1.392 . S
C2452 C2455 1.511 . S
C2453 C2449 1.376 . S
C2453 C2452 1.392 . S
C2453 H2465 0.929 . S
C2454 C2450 1.531 . S
C2454 H2466 0.960 . S
C2454 H2467 0.962 . S
C2454 H2468 0.960 . S
C2455 C2452 1.511 . S
C2455 H2469 0.961 . S
C2455 H2470 0.961 . S
C2455 H2471 0.961 . S
C2456 C2457 1.370 . S
C2456 C2458 1.363 . S
C2456 H2472 0.931 . S
C2457 C2456 1.370 . S
C2457 C2461 1.408 . S
C2458 C2456 1.363 . S
C2458 C2459 1.370 . S
C2458 C2462 1.524 . S
C2459 C2451 1.503 . S
C2459 C2458 1.370 . S
C2459 C2460 1.403 . S
C2460 C2459 1.403 . S
C2460 C2461 1.404 . S
C2460 C2463 1.539 . S
C2461 C2457 1.408 . S
C2461 C2460 1.404 . S
C2461 H2473 0.930 . S
C2462 C2458 1.524 . S
C2462 H2474 0.956 . S
C2462 H2475 0.961 . S
C2462 H2476 0.961 . S
C2463 C2460 1.539 . S
C2463 H2477 0.958 . S
C2463 H2478 0.961 . S
C2463 H2479 0.960 . S
H2464 C2448 0.931 . S
H2465 C2453 0.929 . S
H2466 C2454 0.960 . S
H2467 C2454 0.962 . S
H2468 C2454 0.960 . S
H2469 C2455 0.961 . S
H2470 C2455 0.961 . S
H2471 C2455 0.961 . S
H2472 C2456 0.931 . S
H2473 C2461 0.930 . S
H2474 C2462 0.956 . S
H2475 C2462 0.961 . S
H2476 C2462 0.961 . S
H2477 C2463 0.958 . S
H2478 C2463 0.961 . S
H2479 C2463 0.960 . S
C2480 C2481 1.391 . S
C2480 C2482 1.394 . S
C2480 H2496 0.931 . S
C2481 C2480 1.391 . S
C2481 C2485 1.376 . S
C2482 C2480 1.394 . S
C2482 C2483 1.369 . S
C2482 C2486 1.531 . S
C2483 C2482 1.369 . S
C2483 C2484 1.410 . S
C2483 C2491 1.503 . S
C2484 C2483 1.410 . S
C2484 C2485 1.392 . S
C2484 C2487 1.511 . S
C2485 C2481 1.376 . S
C2485 C2484 1.392 . S
C2485 H2497 0.929 . S
C2486 C2482 1.531 . S
C2486 H2498 0.960 . S
C2486 H2499 0.962 . S
C2486 H2500 0.960 . S
C2487 C2484 1.511 . S
C2487 H2501 0.961 . S
C2487 H2502 0.961 . S
C2487 H2503 0.961 . S
C2488 C2489 1.370 . S
C2488 C2490 1.363 . S
C2488 H2504 0.931 . S
C2489 C2488 1.370 . S
C2489 C2493 1.408 . S
C2490 C2488 1.363 . S
C2490 C2491 1.370 . S
C2490 C2494 1.524 . S
C2491 C2483 1.503 . S
C2491 C2490 1.370 . S
C2491 C2492 1.403 . S
C2492 C2491 1.403 . S
C2492 C2493 1.404 . S
C2492 C2495 1.539 . S
C2493 C2489 1.408 . S
C2493 C2492 1.404 . S
C2493 H2505 0.930 . S
C2494 C2490 1.524 . S
C2494 H2506 0.956 . S
C2494 H2507 0.961 . S
C2494 H2508 0.961 . S
C2495 C2492 1.539 . S
C2495 H2509 0.958 . S
C2495 H2510 0.961 . S
C2495 H2511 0.960 . S
H2496 C2480 0.931 . S
H2497 C2485 0.929 . S
H2498 C2486 0.960 . S
H2499 C2486 0.962 . S
H2500 C2486 0.960 . S
H2501 C2487 0.961 . S
H2502 C2487 0.961 . S
H2503 C2487 0.961 . S
H2504 C2488 0.931 . S
H2505 C2493 0.930 . S
H2506 C2494 0.956 . S
H2507 C2494 0.961 . S
H2508 C2494 0.961 . S
H2509 C2495 0.958 . S
H2510 C2495 0.961 . S
H2511 C2495 0.960 . S
C2512 C2513 1.391 . S
C2512 C2514 1.394 . S
C2512 H2528 0.931 . S
C2513 C2512 1.391 . S
C2513 C2517 1.376 . S
C2514 C2512 1.394 . S
C2514 C2515 1.369 . S
C2514 C2518 1.531 . S
C2515 C2514 1.369 . S
C2515 C2516 1.410 . S
C2515 C2523 1.503 . S
C2516 C2515 1.410 . S
C2516 C2517 1.392 . S
C2516 C2519 1.511 . S
C2517 C2513 1.376 . S
C2517 C2516 1.392 . S
C2517 H2529 0.929 . S
C2518 C2514 1.531 . S
C2518 H2530 0.960 . S
C2518 H2531 0.962 . S
C2518 H2532 0.960 . S
C2519 C2516 1.511 . S
C2519 H2533 0.961 . S
C2519 H2534 0.961 . S
C2519 H2535 0.961 . S
C2520 C2521 1.370 . S
C2520 C2522 1.363 . S
C2520 H2536 0.931 . S
C2521 C2520 1.370 . S
C2521 C2525 1.408 . S
C2522 C2520 1.363 . S
C2522 C2523 1.370 . S
C2522 C2526 1.524 . S
C2523 C2515 1.503 . S
C2523 C2522 1.370 . S
C2523 C2524 1.403 . S
C2524 C2523 1.403 . S
C2524 C2525 1.404 . S
C2524 C2527 1.539 . S
C2525 C2521 1.408 . S
C2525 C2524 1.404 . S
C2525 H2537 0.930 . S
C2526 C2522 1.524 . S
C2526 H2538 0.956 . S
C2526 H2539 0.961 . S
C2526 H2540 0.961 . S
C2527 C2524 1.539 . S
C2527 H2541 0.958 . S
C2527 H2542 0.961 . S
C2527 H2543 0.960 . S
H2528 C2512 0.931 . S
H2529 C2517 0.929 . S
H2530 C2518 0.960 . S
H2531 C2518 0.962 . S
H2532 C2518 0.960 . S
H2533 C2519 0.961 . S
H2534 C2519 0.961 . S
H2535 C2519 0.961 . S
H2536 C2520 0.931 . S
H2537 C2525 0.930 . S
H2538 C2526 0.956 . S
H2539 C2526 0.961 . S
H2540 C2526 0.961 . S
H2541 C2527 0.958 . S
H2542 C2527 0.961 . S
H2543 C2527 0.960 . S
C2544 C2545 1.391 . S
C2544 C2546 1.394 . S
C2544 H2560 0.931 . S
C2545 C2544 1.391 . S
C2545 C2549 1.376 . S
C2546 C2544 1.394 . S
C2546 C2547 1.369 . S
C2546 C2550 1.531 . S
C2547 C2546 1.369 . S
C2547 C2548 1.410 . S
C2547 C2555 1.503 . S
C2548 C2547 1.410 . S
C2548 C2549 1.392 . S
C2548 C2551 1.511 . S
C2549 C2545 1.376 . S
C2549 C2548 1.392 . S
C2549 H2561 0.929 . S
C2550 C2546 1.531 . S
C2550 H2562 0.960 . S
C2550 H2563 0.962 . S
C2550 H2564 0.960 . S
C2551 C2548 1.511 . S
C2551 H2565 0.961 . S
C2551 H2566 0.961 . S
C2551 H2567 0.961 . S
C2552 C2553 1.370 . S
C2552 C2554 1.363 . S
C2552 H2568 0.931 . S
C2553 C2552 1.370 . S
C2553 C2557 1.408 . S
C2554 C2552 1.363 . S
C2554 C2555 1.370 . S
C2554 C2558 1.524 . S
C2555 C2547 1.503 . S
C2555 C2554 1.370 . S
C2555 C2556 1.403 . S
C2556 C2555 1.403 . S
C2556 C2557 1.404 . S
C2556 C2559 1.539 . S
C2557 C2553 1.408 . S
C2557 C2556 1.404 . S
C2557 H2569 0.930 . S
C2558 C2554 1.524 . S
C2558 H2570 0.956 . S
C2558 H2571 0.961 . S
C2558 H2572 0.961 . S
C2559 C2556 1.539 . S
C2559 H2573 0.958 . S
C2559 H2574 0.961 . S
C2559 H2575 0.960 . S
H2560 C2544 0.931 . S
H2561 C2549 0.929 . S
H2562 C2550 0.960 . S
H2563 C2550 0.962 . S
H2564 C2550 0.960 . S
H2565 C2551 0.961 . S
H2566 C2551 0.961 . S
H2567 C2551 0.961 . S
H2568 C2552 0.931 . S
H2569 C2557 0.930 . S
H2570 C2558 0.956 . S
H2571 C2558 0.961 . S
H2572 C2558 0.961 . S
H2573 C2559 0.958 . S
H2574 C2559 0.961 . S
H2575 C2559 0.960 . S
C2576 C2577 1.391 . S
C2576 C2578 1.394 . S
C2576 H2592 0.931 . S
C2577 C2576 1.391 . S
C2577 C2581 1.376 . S
C2578 C2576 1.394 . S
C2578 C2579 1.369 . S
C2578 C2582 1.531 . S
C2579 C2578 1.369 . S
C2579 C2580 1.410 . S
C2579 C2587 1.503 . S
C2580 C2579 1.410 . S
C2580 C2581 1.392 . S
C2580 C2583 1.511 . S
C2581 C2577 1.376 . S
C2581 C2580 1.392 . S
C2581 H2593 0.929 . S
C2582 C2578 1.531 . S
C2582 H2594 0.960 . S
C2582 H2595 0.962 . S
C2582 H2596 0.960 . S
C2583 C2580 1.511 . S
C2583 H2597 0.961 . S
C2583 H2598 0.961 . S
C2583 H2599 0.961 . S
C2584 C2585 1.370 . S
C2584 C2586 1.363 . S
C2584 H2600 0.931 . S
C2585 C2584 1.370 . S
C2585 C2589 1.408 . S
C2586 C2584 1.363 . S
C2586 C2587 1.370 . S
C2586 C2590 1.524 . S
C2587 C2579 1.503 . S
C2587 C2586 1.370 . S
C2587 C2588 1.403 . S
C2588 C2587 1.403 . S
C2588 C2589 1.404 . S
C2588 C2591 1.539 . S
C2589 C2585 1.408 . S
C2589 C2588 1.404 . S
C2589 H2601 0.930 . S
C2590 C2586 1.524 . S
C2590 H2602 0.956 . S
C2590 H2603 0.961 . S
C2590 H2604 0.961 . S
C2591 C2588 1.539 . S
C2591 H2605 0.958 . S
C2591 H2606 0.961 . S
C2591 H2607 0.960 . S
H2592 C2576 0.931 . S
H2593 C2581 0.929 . S
H2594 C2582 0.960 . S
H2595 C2582 0.962 . S
H2596 C2582 0.960 . S
H2597 C2583 0.961 . S
H2598 C2583 0.961 . S
H2599 C2583 0.961 . S
H2600 C2584 0.931 . S
H2601 C2589 0.930 . S
H2602 C2590 0.956 . S
H2603 C2590 0.961 . S
H2604 C2590 0.961 . S
H2605 C2591 0.958 . S
H2606 C2591 0.961 . S
H2607 C2591 0.960 . S
C2608 C2609 1.391 . S
C2608 C2610 1.394 . S
C2608 H2624 0.931 . S
C2609 C2608 1.391 . S
C2609 C2613 1.376 . S
C2610 C2608 1.394 . S
C2610 C2611 1.369 . S
C2610 C2614 1.531 . S
C2611 C2610 1.369 . S
C2611 C2612 1.410 . S
C2611 C2619 1.503 . S
C2612 C2611 1.410 . S
C2612 C2613 1.392 . S
C2612 C2615 1.511 . S
C2613 C2609 1.376 . S
C2613 C2612 1.392 . S
C2613 H2625 0.929 . S
C2614 C2610 1.531 . S
C2614 H2626 0.960 . S
C2614 H2627 0.962 . S
C2614 H2628 0.960 . S
C2615 C2612 1.511 . S
C2615 H2629 0.961 . S
C2615 H2630 0.961 . S
C2615 H2631 0.961 . S
C2616 C2617 1.370 . S
C2616 C2618 1.363 . S
C2616 H2632 0.931 . S
C2617 C2616 1.370 . S
C2617 C2621 1.408 . S
C2618 C2616 1.363 . S
C2618 C2619 1.370 . S
C2618 C2622 1.524 . S
C2619 C2611 1.503 . S
C2619 C2618 1.370 . S
C2619 C2620 1.403 . S
C2620 C2619 1.403 . S
C2620 C2621 1.404 . S
C2620 C2623 1.539 . S
C2621 C2617 1.408 . S
C2621 C2620 1.404 . S
C2621 H2633 0.930 . S
C2622 C2618 1.524 . S
C2622 H2634 0.956 . S
C2622 H2635 0.961 . S
C2622 H2636 0.961 . S
C2623 C2620 1.539 . S
C2623 H2637 0.958 . S
C2623 H2638 0.961 . S
C2623 H2639 0.960 . S
H2624 C2608 0.931 . S
H2625 C2613 0.929 . S
H2626 C2614 0.960 . S
H2627 C2614 0.962 . S
H2628 C2614 0.960 . S
H2629 C2615 0.961 . S
H2630 C2615 0.961 . S
H2631 C2615 0.961 . S
H2632 C2616 0.931 . S
H2633 C2621 0.930 . S
H2634 C2622 0.956 . S
H2635 C2622 0.961 . S
H2636 C2622 0.961 . S
H2637 C2623 0.958 . S
H2638 C2623 0.961 . S
H2639 C2623 0.960 . S
C2640 C2641 1.391 . S
C2640 C2642 1.394 . S
C2640 H2656 0.931 . S
C2641 C2640 1.391 . S
C2641 C2645 1.376 . S
C2642 C2640 1.394 . S
C2642 C2643 1.369 . S
C2642 C2646 1.531 . S
C2643 C2642 1.369 . S
C2643 C2644 1.410 . S
C2643 C2651 1.503 . S
C2644 C2643 1.410 . S
C2644 C2645 1.392 . S
C2644 C2647 1.511 . S
C2645 C2641 1.376 . S
C2645 C2644 1.392 . S
C2645 H2657 0.929 . S
C2646 C2642 1.531 . S
C2646 H2658 0.960 . S
C2646 H2659 0.962 . S
C2646 H2660 0.960 . S
C2647 C2644 1.511 . S
C2647 H2661 0.961 . S
C2647 H2662 0.961 . S
C2647 H2663 0.961 . S
C2648 C2649 1.370 . S
C2648 C2650 1.363 . S
C2648 H2664 0.936 . S
C2649 C2648 1.370 . S
C2649 C2653 1.408 . S
C2650 C2648 1.363 . S
C2650 C2651 1.370 . S
C2650 C2654 1.524 . S
C2651 C2643 1.503 . S
C2651 C2650 1.370 . S
C2651 C2652 1.403 . S
C2652 C2651 1.403 . S
C2652 C2653 1.404 . S
C2652 C2655 1.539 . S
C2653 C2649 1.408 . S
C2653 C2652 1.404 . S
C2653 H2665 0.930 . S
C2654 C2650 1.524 . S
C2654 H2666 0.956 . S
C2654 H2667 0.961 . S
C2654 H2668 0.961 . S
C2655 C2652 1.539 . S
C2655 H2669 0.958 . S
C2655 H2670 0.961 . S
C2655 H2671 0.960 . S
H2656 C2640 0.931 . S
H2657 C2645 0.929 . S
H2658 C2646 0.960 . S
H2659 C2646 0.962 . S
H2660 C2646 0.960 . S
H2661 C2647 0.961 . S
H2662 C2647 0.961 . S
H2663 C2647 0.961 . S
H2664 C2648 0.936 . S
H2665 C2653 0.930 . S
H2666 C2654 0.956 . S
H2667 C2654 0.961 . S
H2668 C2654 0.961 . S
H2669 C2655 0.958 . S
H2670 C2655 0.961 . S
H2671 C2655 0.960 . S
C2672 C2673 1.391 . S
C2672 C2674 1.394 . S
C2672 H2688 0.931 . S
C2673 C2672 1.391 . S
C2673 C2677 1.376 . S
C2674 C2672 1.394 . S
C2674 C2675 1.369 . S
C2674 C2678 1.531 . S
C2675 C2674 1.369 . S
C2675 C2676 1.410 . S
C2675 C2683 1.503 . S
C2676 C2675 1.410 . S
C2676 C2677 1.392 . S
C2676 C2679 1.511 . S
C2677 C2673 1.376 . S
C2677 C2676 1.392 . S
C2677 H2689 0.929 . S
C2678 C2674 1.531 . S
C2678 H2690 0.960 . S
C2678 H2691 0.962 . S
C2678 H2692 0.960 . S
C2679 C2676 1.511 . S
C2679 H2693 0.961 . S
C2679 H2694 0.961 . S
C2679 H2695 0.961 . S
C2680 C2681 1.370 . S
C2680 C2682 1.363 . S
C2680 H2696 0.931 . S
C2681 C2680 1.370 . S
C2681 C2685 1.408 . S
C2682 C2680 1.363 . S
C2682 C2683 1.370 . S
C2682 C2686 1.524 . S
C2683 C2675 1.503 . S
C2683 C2682 1.370 . S
C2683 C2684 1.403 . S
C2684 C2683 1.403 . S
C2684 C2685 1.404 . S
C2684 C2687 1.539 . S
C2685 C2681 1.408 . S
C2685 C2684 1.404 . S
C2685 H2697 0.930 . S
C2686 C2682 1.524 . S
C2686 H2698 0.956 . S
C2686 H2699 0.961 . S
C2686 H2700 0.961 . S
C2687 C2684 1.539 . S
C2687 H2701 0.958 . S
C2687 H2702 0.961 . S
C2687 H2703 0.960 . S
H2688 C2672 0.931 . S
H2689 C2677 0.929 . S
H2690 C2678 0.960 . S
H2691 C2678 0.962 . S
H2692 C2678 0.960 . S
H2693 C2679 0.961 . S
H2694 C2679 0.961 . S
H2695 C2679 0.961 . S
H2696 C2680 0.931 . S
H2697 C2685 0.930 . S
H2698 C2686 0.956 . S
H2699 C2686 0.961 . S
H2700 C2686 0.961 . S
H2701 C2687 0.958 . S
H2702 C2687 0.961 . S
H2703 C2687 0.960 . S
C2704 C2705 1.391 1_565 S
C2704 C2706 1.394 . S
C2704 H2720 0.931 . S
C2705 C2704 1.391 1_545 S
C2705 C2709 1.376 . S
C2706 C2704 1.394 . S
C2706 C2707 1.369 1_565 S
C2706 C2710 1.531 . S
C2707 C2706 1.369 1_545 S
C2707 C2708 1.410 . S
C2707 C2715 1.503 . S
C2708 C2707 1.410 . S
C2708 C2709 1.392 . S
C2708 C2711 1.511 . S
C2709 C2705 1.376 . S
C2709 C2708 1.392 . S
C2709 H2721 0.929 . S
C2710 C2706 1.531 . S
C2710 H2722 0.960 . S
C2710 H2723 0.962 . S
C2710 H2724 0.960 . S
C2711 C2708 1.511 . S
C2711 H2725 0.961 . S
C2711 H2726 0.961 . S
C2711 H2727 0.961 . S
C2712 C2713 1.370 . S
C2712 C2714 1.363 . S
C2712 H2728 0.931 . S
C2713 C2712 1.370 . S
C2713 C2717 1.408 1_545 S
C2714 C2712 1.363 . S
C2714 C2715 1.370 . S
C2714 C2718 1.524 . S
C2715 C2707 1.503 . S
C2715 C2714 1.370 . S
C2715 C2716 1.403 1_545 S
C2716 C2715 1.403 1_565 S
C2716 C2717 1.404 . S
C2716 C2719 1.539 . S
C2717 C2713 1.408 1_565 S
C2717 C2716 1.404 . S
C2717 H2729 0.930 . S
C2718 C2714 1.524 . S
C2718 H2730 0.956 . S
C2718 H2731 0.961 . S
C2718 H2732 0.961 . S
C2719 C2716 1.539 . S
C2719 H2733 0.958 . S
C2719 H2734 0.961 . S
C2719 H2735 0.960 . S
H2720 C2704 0.931 . S
H2721 C2709 0.929 . S
H2722 C2710 0.960 . S
H2723 C2710 0.962 . S
H2724 C2710 0.960 . S
H2725 C2711 0.961 . S
H2726 C2711 0.961 . S
H2727 C2711 0.961 . S
H2728 C2712 0.931 . S
H2729 C2717 0.930 . S
H2730 C2718 0.956 . S
H2731 C2718 0.961 . S
H2732 C2718 0.961 . S
H2733 C2719 0.958 . S
H2734 C2719 0.961 . S
H2735 C2719 0.960 . S
C2736 C2737 1.391 . S
C2736 C2738 1.394 . S
C2736 H2752 0.931 . S
C2737 C2736 1.391 . S
C2737 C2741 1.376 . S
C2738 C2736 1.394 . S
C2738 C2739 1.369 . S
C2738 C2742 1.531 . S
C2739 C2738 1.369 . S
C2739 C2740 1.410 . S
C2739 C2747 1.503 . S
C2740 C2739 1.410 . S
C2740 C2741 1.392 . S
C2740 C2743 1.511 . S
C2741 C2737 1.376 . S
C2741 C2740 1.392 . S
C2741 H2753 0.929 . S
C2742 C2738 1.531 . S
C2742 H2754 0.960 . S
C2742 H2755 0.962 . S
C2742 H2756 0.960 . S
C2743 C2740 1.511 . S
C2743 H2757 0.961 . S
C2743 H2758 0.961 . S
C2743 H2759 0.961 . S
C2744 C2745 1.370 . S
C2744 C2746 1.363 . S
C2744 H2760 0.931 . S
C2745 C2744 1.370 . S
C2745 C2749 1.408 . S
C2746 C2744 1.363 . S
C2746 C2747 1.370 . S
C2746 C2750 1.524 . S
C2747 C2739 1.503 . S
C2747 C2746 1.370 . S
C2747 C2748 1.403 . S
C2748 C2747 1.403 . S
C2748 C2749 1.404 . S
C2748 C2751 1.539 . S
C2749 C2745 1.408 . S
C2749 C2748 1.404 . S
C2749 H2761 0.930 . S
C2750 C2746 1.524 . S
C2750 H2762 0.956 . S
C2750 H2763 0.961 . S
C2750 H2764 0.961 . S
C2751 C2748 1.539 . S
C2751 H2765 0.958 . S
C2751 H2766 0.961 . S
C2751 H2767 0.960 . S
H2752 C2736 0.931 . S
H2753 C2741 0.929 . S
H2754 C2742 0.960 . S
H2755 C2742 0.962 . S
H2756 C2742 0.960 . S
H2757 C2743 0.961 . S
H2758 C2743 0.961 . S
H2759 C2743 0.961 . S
H2760 C2744 0.931 . S
H2761 C2749 0.930 . S
H2762 C2750 0.956 . S
H2763 C2750 0.961 . S
H2764 C2750 0.961 . S
H2765 C2751 0.958 . S
H2766 C2751 0.961 . S
H2767 C2751 0.960 . S
C2768 C2769 1.391 . S
C2768 C2770 1.394 . S
C2768 H2784 0.930 1_545 S
C2769 C2768 1.391 . S
C2769 C2773 1.376 . S
C2770 C2768 1.394 . S
C2770 C2771 1.369 . S
C2770 C2774 1.531 1_545 S
C2771 C2770 1.369 . S
C2771 C2772 1.410 . S
C2771 C2779 1.503 . S
C2772 C2771 1.410 . S
C2772 C2773 1.392 . S
C2772 C2775 1.511 . S
C2773 C2769 1.376 . S
C2773 C2772 1.392 . S
C2773 H2785 0.929 . S
C2774 C2770 1.531 1_565 S
C2774 H2786 0.960 . S
C2774 H2787 0.962 1_565 S
C2774 H2788 0.960 . S
C2775 C2772 1.511 . S
C2775 H2789 0.961 . S
C2775 H2790 0.961 . S
C2775 H2791 0.961 . S
C2776 C2777 1.370 . S
C2776 C2778 1.363 . S
C2776 H2792 0.931 . S
C2777 C2776 1.370 . S
C2777 C2781 1.408 . S
C2778 C2776 1.363 . S
C2778 C2779 1.370 . S
C2778 C2782 1.524 . S
C2779 C2771 1.503 . S
C2779 C2778 1.370 . S
C2779 C2780 1.403 . S
C2780 C2779 1.403 . S
C2780 C2781 1.404 . S
C2780 C2783 1.539 1_545 S
C2781 C2777 1.408 . S
C2781 C2780 1.404 . S
C2781 H2793 0.930 . S
C2782 C2778 1.524 . S
C2782 H2794 0.956 . S
C2782 H2795 0.961 . S
C2782 H2796 0.961 . S
C2783 C2780 1.539 1_565 S
C2783 H2797 0.958 . S
C2783 H2798 0.961 . S
C2783 H2799 0.960 1_565 S
H2784 C2768 0.930 1_565 S
H2785 C2773 0.929 . S
H2786 C2774 0.960 . S
H2787 C2774 0.962 1_545 S
H2788 C2774 0.960 . S
H2789 C2775 0.961 . S
H2790 C2775 0.961 . S
H2791 C2775 0.961 . S
H2792 C2776 0.931 . S
H2793 C2781 0.930 . S
H2794 C2782 0.956 . S
H2795 C2782 0.961 . S
H2796 C2782 0.961 . S
H2797 C2783 0.958 . S
H2798 C2783 0.961 . S
H2799 C2783 0.960 1_545 S
C2800 C2801 1.391 . S
C2800 C2802 1.394 . S
C2800 H2816 0.931 . S
C2801 C2800 1.391 . S
C2801 C2805 1.376 . S
C2802 C2800 1.394 . S
C2802 C2803 1.369 . S
C2802 C2806 1.531 . S
C2803 C2802 1.369 . S
C2803 C2804 1.410 . S
C2803 C2811 1.503 . S
C2804 C2803 1.410 . S
C2804 C2805 1.392 . S
C2804 C2807 1.511 . S
C2805 C2801 1.376 . S
C2805 C2804 1.392 . S
C2805 H2817 0.929 . S
C2806 C2802 1.531 . S
C2806 H2818 0.960 . S
C2806 H2819 0.962 . S
C2806 H2820 0.960 . S
C2807 C2804 1.511 . S
C2807 H2821 0.961 . S
C2807 H2822 0.961 . S
C2807 H2823 0.961 . S
C2808 C2809 1.370 . S
C2808 C2810 1.363 . S
C2808 H2824 0.931 . S
C2809 C2808 1.370 . S
C2809 C2813 1.408 . S
C2810 C2808 1.363 . S
C2810 C2811 1.370 . S
C2810 C2814 1.524 . S
C2811 C2803 1.503 . S
C2811 C2810 1.370 . S
C2811 C2812 1.403 . S
C2812 C2811 1.403 . S
C2812 C2813 1.404 . S
C2812 C2815 1.539 . S
C2813 C2809 1.408 . S
C2813 C2812 1.404 . S
C2813 H2825 0.930 . S
C2814 C2810 1.524 . S
C2814 H2826 0.956 . S
C2814 H2827 0.961 . S
C2814 H2828 0.961 . S
C2815 C2812 1.539 . S
C2815 H2829 0.958 . S
C2815 H2830 0.961 . S
C2815 H2831 0.960 . S
H2816 C2800 0.931 . S
H2817 C2805 0.929 . S
H2818 C2806 0.960 . S
H2819 C2806 0.962 . S
H2820 C2806 0.960 . S
H2821 C2807 0.961 . S
H2822 C2807 0.961 . S
H2823 C2807 0.961 . S
H2824 C2808 0.931 . S
H2825 C2813 0.930 . S
H2826 C2814 0.956 . S
H2827 C2814 0.961 . S
H2828 C2814 0.961 . S
H2829 C2815 0.958 . S
H2830 C2815 0.961 . S
H2831 C2815 0.960 . S
C2832 C2833 1.391 . S
C2832 C2834 1.394 . S
C2832 H2848 0.931 . S
C2833 C2832 1.391 . S
C2833 C2837 1.376 1_565 S
C2834 C2832 1.394 . S
C2834 C2835 1.369 1_565 S
C2834 C2838 1.531 . S
C2835 C2834 1.369 1_545 S
C2835 C2836 1.410 . S
C2835 C2843 1.503 . S
C2836 C2835 1.410 . S
C2836 C2837 1.392 . S
C2836 C2839 1.511 . S
C2837 C2833 1.376 1_545 S
C2837 C2836 1.392 . S
C2837 H2849 0.929 . S
C2838 C2834 1.531 . S
C2838 H2850 0.960 . S
C2838 H2851 0.962 . S
C2838 H2852 0.960 . S
C2839 C2836 1.511 . S
C2839 H2853 0.961 . S
C2839 H2854 0.961 . S
C2839 H2855 0.961 . S
C2840 C2841 1.370 . S
C2840 C2842 1.363 . S
C2840 H2856 0.931 . S
C2841 C2840 1.370 . S
C2841 C2845 1.408 . S
C2842 C2840 1.363 . S
C2842 C2843 1.370 . S
C2842 C2846 1.524 1_545 S
C2843 C2835 1.503 . S
C2843 C2842 1.370 . S
C2843 C2844 1.403 . S
C2844 C2843 1.403 . S
C2844 C2845 1.404 . S
C2844 C2847 1.539 . S
C2845 C2841 1.408 . S
C2845 C2844 1.404 . S
C2845 H2857 0.930 . S
C2846 C2842 1.524 1_565 S
C2846 H2858 0.956 . S
C2846 H2859 0.961 1_565 S
C2846 H2860 0.961 . S
C2847 C2844 1.539 . S
C2847 H2861 0.958 . S
C2847 H2862 0.961 . S
C2847 H2863 0.960 . S
H2848 C2832 0.931 . S
H2849 C2837 0.929 . S
H2850 C2838 0.960 . S
H2851 C2838 0.962 . S
H2852 C2838 0.960 . S
H2853 C2839 0.961 . S
H2854 C2839 0.961 . S
H2855 C2839 0.961 . S
H2856 C2840 0.931 . S
H2857 C2845 0.930 . S
H2858 C2846 0.956 . S
H2859 C2846 0.961 1_545 S
H2860 C2846 0.961 . S
H2861 C2847 0.958 . S
H2862 C2847 0.961 . S
H2863 C2847 0.960 . S
C2864 C2865 1.391 . S
C2864 C2866 1.394 . S
C2864 H2880 0.931 . S
C2865 C2864 1.391 . S
C2865 C2869 1.376 . S
C2866 C2864 1.394 . S
C2866 C2867 1.369 . S
C2866 C2870 1.531 . S
C2867 C2866 1.369 . S
C2867 C2868 1.410 . S
C2867 C2875 1.503 . S
C2868 C2867 1.410 . S
C2868 C2869 1.392 . S
C2868 C2871 1.511 . S
C2869 C2865 1.376 . S
C2869 C2868 1.392 . S
C2869 H2881 0.929 . S
C2870 C2866 1.531 . S
C2870 H2882 0.960 . S
C2870 H2883 0.962 . S
C2870 H2884 0.960 . S
C2871 C2868 1.511 . S
C2871 H2885 0.961 . S
C2871 H2886 0.961 . S
C2871 H2887 0.961 . S
C2872 C2873 1.370 . S
C2872 C2874 1.363 . S
C2872 H2888 0.931 . S
C2873 C2872 1.370 . S
C2873 C2877 1.408 . S
C2874 C2872 1.363 . S
C2874 C2875 1.370 . S
C2874 C2878 1.524 . S
C2875 C2867 1.503 . S
C2875 C2874 1.370 . S
C2875 C2876 1.403 . S
C2876 C2875 1.403 . S
C2876 C2877 1.404 . S
C2876 C2879 1.539 . S
C2877 C2873 1.408 . S
C2877 C2876 1.404 . S
C2877 H2889 0.930 . S
C2878 C2874 1.524 . S
C2878 H2890 0.956 . S
C2878 H2891 0.961 . S
C2878 H2892 0.961 . S
C2879 C2876 1.539 . S
C2879 H2893 0.958 . S
C2879 H2894 0.961 . S
C2879 H2895 0.960 . S
H2880 C2864 0.931 . S
H2881 C2869 0.929 . S
H2882 C2870 0.960 . S
H2883 C2870 0.962 . S
H2884 C2870 0.960 . S
H2885 C2871 0.961 . S
H2886 C2871 0.961 . S
H2887 C2871 0.961 . S
H2888 C2872 0.931 . S
H2889 C2877 0.930 . S
H2890 C2878 0.956 . S
H2891 C2878 0.961 . S
H2892 C2878 0.961 . S
H2893 C2879 0.958 . S
H2894 C2879 0.961 . S
H2895 C2879 0.960 . S
C2896 C2897 1.391 1_565 S
C2896 C2898 1.394 . S
C2896 H2912 0.931 . S
C2897 C2896 1.391 1_545 S
C2897 C2901 1.376 . S
C2898 C2896 1.394 . S
C2898 C2899 1.369 1_565 S
C2898 C2902 1.531 . S
C2899 C2898 1.369 1_545 S
C2899 C2900 1.410 . S
C2899 C2907 1.503 . S
C2900 C2899 1.410 . S
C2900 C2901 1.392 . S
C2900 C2903 1.511 . S
C2901 C2897 1.376 . S
C2901 C2900 1.392 . S
C2901 H2913 0.929 . S
C2902 C2898 1.531 . S
C2902 H2914 0.960 . S
C2902 H2915 0.962 . S
C2902 H2916 0.960 . S
C2903 C2900 1.511 . S
C2903 H2917 0.961 . S
C2903 H2918 0.961 . S
C2903 H2919 0.961 . S
C2904 C2905 1.370 . S
C2904 C2906 1.363 . S
C2904 H2920 0.931 . S
C2905 C2904 1.370 . S
C2905 C2909 1.408 . S
C2906 C2904 1.363 . S
C2906 C2907 1.370 . S
C2906 C2910 1.524 . S
C2907 C2899 1.503 . S
C2907 C2906 1.370 . S
C2907 C2908 1.403 . S
C2908 C2907 1.403 . S
C2908 C2909 1.404 . S
C2908 C2911 1.539 . S
C2909 C2905 1.408 . S
C2909 C2908 1.404 . S
C2909 H2921 0.930 . S
C2910 C2906 1.524 . S
C2910 H2922 0.956 1_545 S
C2910 H2923 0.961 . S
C2910 H2924 0.963 . S
C2911 C2908 1.539 . S
C2911 H2925 0.958 . S
C2911 H2926 0.961 . S
C2911 H2927 0.960 . S
H2912 C2896 0.931 . S
H2913 C2901 0.929 . S
H2914 C2902 0.960 . S
H2915 C2902 0.962 . S
H2916 C2902 0.960 . S
H2917 C2903 0.961 . S
H2918 C2903 0.961 . S
H2919 C2903 0.961 . S
H2920 C2904 0.931 . S
H2921 C2909 0.930 . S
H2922 C2910 0.956 1_565 S
H2923 C2910 0.961 . S
H2924 C2910 0.963 . S
H2925 C2911 0.958 . S
H2926 C2911 0.961 . S
H2927 C2911 0.960 . S
C2928 C2929 1.391 . S
C2928 C2930 1.394 . S
C2928 H2944 0.931 . S
C2929 C2928 1.391 . S
C2929 C2933 1.376 . S
C2930 C2928 1.394 . S
C2930 C2931 1.369 . S
C2930 C2934 1.531 . S
C2931 C2930 1.369 . S
C2931 C2932 1.410 . S
C2931 C2939 1.503 . S
C2932 C2931 1.410 . S
C2932 C2933 1.392 . S
C2932 C2935 1.511 . S
C2933 C2929 1.376 . S
C2933 C2932 1.392 . S
C2933 H2945 0.929 . S
C2934 C2930 1.531 . S
C2934 H2946 0.960 . S
C2934 H2947 0.962 . S
C2934 H2948 0.960 . S
C2935 C2932 1.511 . S
C2935 H2949 0.961 . S
C2935 H2950 0.961 . S
C2935 H2951 0.961 . S
C2936 C2937 1.370 . S
C2936 C2938 1.363 . S
C2936 H2952 0.931 . S
C2937 C2936 1.370 . S
C2937 C2941 1.408 . S
C2938 C2936 1.363 . S
C2938 C2939 1.370 . S
C2938 C2942 1.524 . S
C2939 C2931 1.503 . S
C2939 C2938 1.370 . S
C2939 C2940 1.403 . S
C2940 C2939 1.403 . S
C2940 C2941 1.404 . S
C2940 C2943 1.539 . S
C2941 C2937 1.408 . S
C2941 C2940 1.404 . S
C2941 H2953 0.930 . S
C2942 C2938 1.524 . S
C2942 H2954 0.956 . S
C2942 H2955 0.961 . S
C2942 H2956 0.961 . S
C2943 C2940 1.539 . S
C2943 H2957 0.958 . S
C2943 H2958 0.961 . S
C2943 H2959 0.960 . S
H2944 C2928 0.931 . S
H2945 C2933 0.929 . S
H2946 C2934 0.960 . S
H2947 C2934 0.962 . S
H2948 C2934 0.960 . S
H2949 C2935 0.961 . S
H2950 C2935 0.961 . S
H2951 C2935 0.961 . S
H2952 C2936 0.931 . S
H2953 C2941 0.930 . S
H2954 C2942 0.956 . S
H2955 C2942 0.961 . S
H2956 C2942 0.961 . S
H2957 C2943 0.958 . S
H2958 C2943 0.961 . S
H2959 C2943 0.960 . S
C2960 C2961 1.391 . S
C2960 C2962 1.394 . S
C2960 H2976 0.931 . S
C2961 C2960 1.391 . S
C2961 C2965 1.376 . S
C2962 C2960 1.394 . S
C2962 C2963 1.369 . S
C2962 C2966 1.531 . S
C2963 C2962 1.369 . S
C2963 C2964 1.410 . S
C2963 C2971 1.503 . S
C2964 C2963 1.410 . S
C2964 C2965 1.392 . S
C2964 C2967 1.511 . S
C2965 C2961 1.376 . S
C2965 C2964 1.392 . S
C2965 H2977 0.929 . S
C2966 C2962 1.531 . S
C2966 H2978 0.960 . S
C2966 H2979 0.962 . S
C2966 H2980 0.960 . S
C2967 C2964 1.511 . S
C2967 H2981 0.961 . S
C2967 H2982 0.961 . S
C2967 H2983 0.961 1_554 S
C2968 C2969 1.370 . S
C2968 C2970 1.363 . S
C2968 H2984 0.931 . S
C2969 C2968 1.370 . S
C2969 C2973 1.408 1_554 S
C2970 C2968 1.363 . S
C2970 C2971 1.370 . S
C2970 C2974 1.524 . S
C2971 C2963 1.503 . S
C2971 C2970 1.370 . S
C2971 C2972 1.403 1_554 S
C2972 C2971 1.403 1_556 S
C2972 C2973 1.404 . S
C2972 C2975 1.539 . S
C2973 C2969 1.408 1_556 S
C2973 C2972 1.404 . S
C2973 H2985 0.930 . S
C2974 C2970 1.524 . S
C2974 H2986 0.956 . S
C2974 H2987 0.961 . S
C2974 H2988 0.961 . S
C2975 C2972 1.539 . S
C2975 H2989 0.958 . S
C2975 H2990 0.961 . S
C2975 H2991 0.960 . S
H2976 C2960 0.931 . S
H2977 C2965 0.929 . S
H2978 C2966 0.960 . S
H2979 C2966 0.962 . S
H2980 C2966 0.960 . S
H2981 C2967 0.961 . S
H2982 C2967 0.961 . S
H2983 C2967 0.961 1_556 S
H2984 C2968 0.931 . S
H2985 C2973 0.930 . S
H2986 C2974 0.956 . S
H2987 C2974 0.961 . S
H2988 C2974 0.961 . S
H2989 C2975 0.958 . S
H2990 C2975 0.961 . S
H2991 C2975 0.960 . S
C2992 C2993 1.391 . S
C2992 C2994 1.394 . S
C2992 H3008 0.931 . S
C2993 C2992 1.391 . S
C2993 C2997 1.376 . S
C2994 C2992 1.394 . S
C2994 C2995 1.369 . S
C2994 C2998 1.531 . S
C2995 C2994 1.369 . S
C2995 C2996 1.410 . S
C2995 C3003 1.503 . S
C2996 C2995 1.410 . S
C2996 C2997 1.392 . S
C2996 C2999 1.511 . S
C2997 C2993 1.376 . S
C2997 C2996 1.392 . S
C2997 H3009 0.929 . S
C2998 C2994 1.531 . S
C2998 H3010 0.960 . S
C2998 H3011 0.962 . S
C2998 H3012 0.960 . S
C2999 C2996 1.511 . S
C2999 H3013 0.961 . S
C2999 H3014 0.961 . S
C2999 H3015 0.961 . S
C3000 C3001 1.370 . S
C3000 C3002 1.363 . S
C3000 H3016 0.931 . S
C3001 C3000 1.370 . S
C3001 C3005 1.408 . S
C3002 C3000 1.363 . S
C3002 C3003 1.370 . S
C3002 C3006 1.524 . S
C3003 C2995 1.503 . S
C3003 C3002 1.370 . S
C3003 C3004 1.403 . S
C3004 C3003 1.403 . S
C3004 C3005 1.404 . S
C3004 C3007 1.539 1_554 S
C3005 C3001 1.408 . S
C3005 C3004 1.404 . S
C3005 H3017 0.969 . S
C3006 C3002 1.524 . S
C3006 H3018 0.956 . S
C3006 H3019 0.961 . S
C3006 H3020 0.961 . S
C3007 C3004 1.539 1_556 S
C3007 H3021 0.958 . S
C3007 H3022 0.961 . S
C3007 H3023 0.960 . S
H3008 C2992 0.931 . S
H3009 C2997 0.929 . S
H3010 C2998 0.960 . S
H3011 C2998 0.962 . S
H3012 C2998 0.960 . S
H3013 C2999 0.961 . S
H3014 C2999 0.961 . S
H3015 C2999 0.961 . S
H3016 C3000 0.931 . S
H3017 C3005 0.969 . S
H3018 C3006 0.956 . S
H3019 C3006 0.961 . S
H3020 C3006 0.961 . S
H3021 C3007 0.958 . S
H3022 C3007 0.961 . S
H3023 C3007 0.960 . S
C3024 C3025 1.391 . S
C3024 C3026 1.394 . S
C3024 H3040 0.931 . S
C3025 C3024 1.391 . S
C3025 C3029 1.376 . S
C3026 C3024 1.394 . S
C3026 C3027 1.369 . S
C3026 C3030 1.531 . S
C3027 C3026 1.369 . S
C3027 C3028 1.410 . S
C3027 C3035 1.503 . S
C3028 C3027 1.410 . S
C3028 C3029 1.392 . S
C3028 C3031 1.511 . S
C3029 C3025 1.376 . S
C3029 C3028 1.392 . S
C3029 H3041 0.929 . S
C3030 C3026 1.531 . S
C3030 H3042 0.960 . S
C3030 H3043 0.962 . S
C3030 H3044 0.960 . S
C3031 C3028 1.511 . S
C3031 H3045 0.961 . S
C3031 H3046 0.961 . S
C3031 H3047 0.961 . S
C3032 C3033 1.370 . S
C3032 C3034 1.363 . S
C3032 H3048 0.931 . S
C3033 C3032 1.370 . S
C3033 C3037 1.408 . S
C3034 C3032 1.363 . S
C3034 C3035 1.370 . S
C3034 C3038 1.524 . S
C3035 C3027 1.503 . S
C3035 C3034 1.370 . S
C3035 C3036 1.403 . S
C3036 C3035 1.403 . S
C3036 C3037 1.404 . S
C3036 C3039 1.539 . S
C3037 C3033 1.408 . S
C3037 C3036 1.404 . S
C3037 H3049 0.930 . S
C3038 C3034 1.524 . S
C3038 H3050 0.956 . S
C3038 H3051 0.961 . S
C3038 H3052 0.961 . S
C3039 C3036 1.539 . S
C3039 H3053 0.958 . S
C3039 H3054 0.961 . S
C3039 H3055 0.960 . S
H3040 C3024 0.931 . S
H3041 C3029 0.929 . S
H3042 C3030 0.960 . S
H3043 C3030 0.962 . S
H3044 C3030 0.960 . S
H3045 C3031 0.961 . S
H3046 C3031 0.961 . S
H3047 C3031 0.961 . S
H3048 C3032 0.931 . S
H3049 C3037 0.930 . S
H3050 C3038 0.956 . S
H3051 C3038 0.961 . S
H3052 C3038 0.961 . S
H3053 C3039 0.958 . S
H3054 C3039 0.961 . S
H3055 C3039 0.960 . S
C3056 C3057 1.391 . S
C3056 C3058 1.394 . S
C3056 H3072 0.931 . S
C3057 C3056 1.391 . S
C3057 C3061 1.376 . S
C3058 C3056 1.394 . S
C3058 C3059 1.369 . S
C3058 C3062 1.531 . S
C3059 C3058 1.369 . S
C3059 C3060 1.410 . S
C3059 C3067 1.503 . S
C3060 C3059 1.410 . S
C3060 C3061 1.392 . S
C3060 C3063 1.511 . S
C3061 C3057 1.376 . S
C3061 C3060 1.392 . S
C3061 H3073 0.929 . S
C3062 C3058 1.531 . S
C3062 H3074 0.960 . S
C3062 H3075 0.962 . S
C3062 H3076 0.960 . S
C3063 C3060 1.511 . S
C3063 H3077 0.961 . S
C3063 H3078 0.961 . S
C3063 H3079 0.961 . S
C3064 C3065 1.370 . S
C3064 C3066 1.363 . S
C3064 H3080 0.931 . S
C3065 C3064 1.370 . S
C3065 C3069 1.408 . S
C3066 C3064 1.363 . S
C3066 C3067 1.370 . S
C3066 C3070 1.524 . S
C3067 C3059 1.503 . S
C3067 C3066 1.370 . S
C3067 C3068 1.403 . S
C3068 C3067 1.403 . S
C3068 C3069 1.404 . S
C3068 C3071 1.539 . S
C3069 C3065 1.408 . S
C3069 C3068 1.404 . S
C3069 H3081 0.930 . S
C3070 C3066 1.524 . S
C3070 H3082 0.956 . S
C3070 H3083 0.961 . S
C3070 H3084 0.961 . S
C3071 C3068 1.539 . S
C3071 H3085 0.958 . S
C3071 H3086 0.961 . S
C3071 H3087 0.960 . S
H3072 C3056 0.931 . S
H3073 C3061 0.929 . S
H3074 C3062 0.960 . S
H3075 C3062 0.962 . S
H3076 C3062 0.960 . S
H3077 C3063 0.961 . S
H3078 C3063 0.961 . S
H3079 C3063 0.961 . S
H3080 C3064 0.931 . S
H3081 C3069 0.930 . S
H3082 C3070 0.956 . S
H3083 C3070 0.961 . S
H3084 C3070 0.961 . S
H3085 C3071 0.958 . S
H3086 C3071 0.961 . S
H3087 C3071 0.960 . S
C3088 C3089 1.391 . S
C3088 C3090 1.394 . S
C3088 H3104 0.931 . S
C3089 C3088 1.391 . S
C3089 C3093 1.376 . S
C3090 C3088 1.394 . S
C3090 C3091 1.369 . S
C3090 C3094 1.531 . S
C3091 C3090 1.369 . S
C3091 C3092 1.410 . S
C3091 C3099 1.503 . S
C3092 C3091 1.410 . S
C3092 C3093 1.392 . S
C3092 C3095 1.511 . S
C3093 C3089 1.376 . S
C3093 C3092 1.392 . S
C3093 H3105 0.929 1_565 S
C3094 C3090 1.531 . S
C3094 H3106 0.960 . S
C3094 H3107 0.962 . S
C3094 H3108 0.960 . S
C3095 C3092 1.511 . S
C3095 H3109 0.941 1_565 S
C3095 H3110 0.961 . S
C3095 H3111 0.961 . S
C3096 C3097 1.370 . S
C3096 C3098 1.363 . S
C3096 H3112 0.931 . S
C3097 C3096 1.370 . S
C3097 C3101 1.408 . S
C3098 C3096 1.363 . S
C3098 C3099 1.370 . S
C3098 C3102 1.524 . S
C3099 C3091 1.503 . S
C3099 C3098 1.370 . S
C3099 C3100 1.403 . S
C3100 C3099 1.403 . S
C3100 C3101 1.404 . S
C3100 C3103 1.539 . S
C3101 C3097 1.408 . S
C3101 C3100 1.404 . S
C3101 H3113 0.930 . S
C3102 C3098 1.524 . S
C3102 H3114 0.956 . S
C3102 H3115 0.961 . S
C3102 H3116 0.961 . S
C3103 C3100 1.539 . S
C3103 H3117 0.958 . S
C3103 H3118 0.961 . S
C3103 H3119 0.960 . S
H3104 C3088 0.931 . S
H3105 C3093 0.929 1_545 S
H3106 C3094 0.960 . S
H3107 C3094 0.962 . S
H3108 C3094 0.960 . S
H3109 C3095 0.941 1_545 S
H3110 C3095 0.961 . S
H3111 C3095 0.961 . S
H3112 C3096 0.931 . S
H3113 C3101 0.930 . S
H3114 C3102 0.956 . S
H3115 C3102 0.961 . S
H3116 C3102 0.961 . S
H3117 C3103 0.958 . S
H3118 C3103 0.961 . S
H3119 C3103 0.960 . S
C3120 C3121 1.391 . S
C3120 C3122 1.394 . S
C3120 H3136 0.931 . S
C3121 C3120 1.391 . S
C3121 C3125 1.376 . S
C3122 C3120 1.394 . S
C3122 C3123 1.369 . S
C3122 C3126 1.531 . S
C3123 C3122 1.369 . S
C3123 C3124 1.410 . S
C3123 C3131 1.503 . S
C3124 C3123 1.410 . S
C3124 C3125 1.392 . S
C3124 C3127 1.511 . S
C3125 C3121 1.376 . S
C3125 C3124 1.392 . S
C3125 H3137 0.929 . S
C3126 C3122 1.531 . S
C3126 H3138 0.960 . S
C3126 H3139 0.962 . S
C3126 H3140 0.960 . S
C3127 C3124 1.511 . S
C3127 H3141 0.961 . S
C3127 H3142 0.961 . S
C3127 H3143 0.961 . S
C3128 C3129 1.370 . S
C3128 C3130 1.363 . S
C3128 H3144 0.931 . S
C3129 C3128 1.370 . S
C3129 C3133 1.408 . S
C3130 C3128 1.363 . S
C3130 C3131 1.370 . S
C3130 C3134 1.524 . S
C3131 C3123 1.503 . S
C3131 C3130 1.370 . S
C3131 C3132 1.403 . S
C3132 C3131 1.403 . S
C3132 C3133 1.404 . S
C3132 C3135 1.539 . S
C3133 C3129 1.408 . S
C3133 C3132 1.404 . S
C3133 H3145 0.930 . S
C3134 C3130 1.524 . S
C3134 H3146 0.956 . S
C3134 H3147 0.961 . S
C3134 H3148 0.961 . S
C3135 C3132 1.539 . S
C3135 H3149 0.958 . S
C3135 H3150 0.961 1_565 S
C3135 H3151 0.960 . S
H3136 C3120 0.931 . S
H3137 C3125 0.929 . S
H3138 C3126 0.960 . S
H3139 C3126 0.962 . S
H3140 C3126 0.960 . S
H3141 C3127 0.961 . S
H3142 C3127 0.961 . S
H3143 C3127 0.961 . S
H3144 C3128 0.931 . S
H3145 C3133 0.930 . S
H3146 C3134 0.956 . S
H3147 C3134 0.961 . S
H3148 C3134 0.961 . S
H3149 C3135 0.958 . S
H3150 C3135 0.961 1_545 S
H3151 C3135 0.960 . S
C3152 C3153 1.391 . S
C3152 C3154 1.394 . S
C3152 H3168 0.931 . S
C3153 C3152 1.391 . S
C3153 C3157 1.376 . S
C3154 C3152 1.394 . S
C3154 C3155 1.369 . S
C3154 C3158 1.531 . S
C3155 C3154 1.369 . S
C3155 C3156 1.410 . S
C3155 C3163 1.503 . S
C3156 C3155 1.410 . S
C3156 C3157 1.392 . S
C3156 C3159 1.511 . S
C3157 C3153 1.376 . S
C3157 C3156 1.392 . S
C3157 H3169 0.929 . S
C3158 C3154 1.531 . S
C3158 H3170 0.960 . S
C3158 H3171 0.962 . S
C3158 H3172 0.960 . S
C3159 C3156 1.511 . S
C3159 H3173 0.961 . S
C3159 H3174 0.961 . S
C3159 H3175 0.961 . S
C3160 C3161 1.370 . S
C3160 C3162 1.363 . S
C3160 H3176 0.931 . S
C3161 C3160 1.370 . S
C3161 C3165 1.408 . S
C3162 C3160 1.363 . S
C3162 C3163 1.370 . S
C3162 C3166 1.524 . S
C3163 C3155 1.503 . S
C3163 C3162 1.370 . S
C3163 C3164 1.403 . S
C3164 C3163 1.403 . S
C3164 C3165 1.404 . S
C3164 C3167 1.539 . S
C3165 C3161 1.408 . S
C3165 C3164 1.404 . S
C3165 H3177 0.930 . S
C3166 C3162 1.524 . S
C3166 H3178 0.956 . S
C3166 H3179 0.961 . S
C3166 H3180 0.961 . S
C3167 C3164 1.539 . S
C3167 H3181 0.958 . S
C3167 H3182 0.961 . S
C3167 H3183 0.960 . S
H3168 C3152 0.931 . S
H3169 C3157 0.929 . S
H3170 C3158 0.960 . S
H3171 C3158 0.962 . S
H3172 C3158 0.960 . S
H3173 C3159 0.961 . S
H3174 C3159 0.961 . S
H3175 C3159 0.961 . S
H3176 C3160 0.931 . S
H3177 C3165 0.930 . S
H3178 C3166 0.956 . S
H3179 C3166 0.961 . S
H3180 C3166 0.961 . S
H3181 C3167 0.958 . S
H3182 C3167 0.961 . S
H3183 C3167 0.960 . S
C3184 C3185 1.391 . S
C3184 C3186 1.394 . S
C3184 H3200 0.931 . S
C3185 C3184 1.391 . S
C3185 C3189 1.376 . S
C3186 C3184 1.394 . S
C3186 C3187 1.369 . S
C3186 C3190 1.531 . S
C3187 C3186 1.369 . S
C3187 C3188 1.410 . S
C3187 C3195 1.503 . S
C3188 C3187 1.410 . S
C3188 C3189 1.392 . S
C3188 C3191 1.511 . S
C3189 C3185 1.376 . S
C3189 C3188 1.392 . S
C3189 H3201 0.929 . S
C3190 C3186 1.531 . S
C3190 H3202 0.960 . S
C3190 H3203 0.962 . S
C3190 H3204 0.960 . S
C3191 C3188 1.511 . S
C3191 H3205 0.961 . S
C3191 H3206 0.961 . S
C3191 H3207 0.961 . S
C3192 C3193 1.370 . S
C3192 C3194 1.363 . S
C3192 H3208 0.931 . S
C3193 C3192 1.370 . S
C3193 C3197 1.408 . S
C3194 C3192 1.363 . S
C3194 C3195 1.370 . S
C3194 C3198 1.524 . S
C3195 C3187 1.503 . S
C3195 C3194 1.370 . S
C3195 C3196 1.403 . S
C3196 C3195 1.403 . S
C3196 C3197 1.404 . S
C3196 C3199 1.539 . S
C3197 C3193 1.408 . S
C3197 C3196 1.404 . S
C3197 H3209 0.930 . S
C3198 C3194 1.524 . S
C3198 H3210 0.956 . S
C3198 H3211 0.961 . S
C3198 H3212 0.961 . S
C3199 C3196 1.539 . S
C3199 H3213 0.958 . S
C3199 H3214 0.961 . S
C3199 H3215 0.960 . S
H3200 C3184 0.931 . S
H3201 C3189 0.929 . S
H3202 C3190 0.960 . S
H3203 C3190 0.962 . S
H3204 C3190 0.960 . S
H3205 C3191 0.961 . S
H3206 C3191 0.961 . S
H3207 C3191 0.961 . S
H3208 C3192 0.931 . S
H3209 C3197 0.930 . S
H3210 C3198 0.956 . S
H3211 C3198 0.961 . S
H3212 C3198 0.961 . S
H3213 C3199 0.958 . S
H3214 C3199 0.961 . S
H3215 C3199 0.960 . S
C3216 C3217 1.391 . S
C3216 C3218 1.394 . S
C3216 H3232 0.931 . S
C3217 C3216 1.391 . S
C3217 C3221 1.376 . S
C3218 C3216 1.394 . S
C3218 C3219 1.369 . S
C3218 C3222 1.531 . S
C3219 C3218 1.369 . S
C3219 C3220 1.410 . S
C3219 C3227 1.503 . S
C3220 C3219 1.410 . S
C3220 C3221 1.392 . S
C3220 C3223 1.511 . S
C3221 C3217 1.376 . S
C3221 C3220 1.392 . S
C3221 H3233 0.929 . S
C3222 C3218 1.531 . S
C3222 H3234 0.960 . S
C3222 H3235 0.962 . S
C3222 H3236 0.960 . S
C3223 C3220 1.511 . S
C3223 H3237 0.961 . S
C3223 H3238 0.961 . S
C3223 H3239 0.961 . S
C3224 C3225 1.370 . S
C3224 C3226 1.363 . S
C3224 H3240 0.931 . S
C3225 C3224 1.370 . S
C3225 C3229 1.408 . S
C3226 C3224 1.363 . S
C3226 C3227 1.370 . S
C3226 C3230 1.524 . S
C3227 C3219 1.503 . S
C3227 C3226 1.370 . S
C3227 C3228 1.403 . S
C3228 C3227 1.403 . S
C3228 C3229 1.404 . S
C3228 C3231 1.539 . S
C3229 C3225 1.408 . S
C3229 C3228 1.404 . S
C3229 H3241 0.930 . S
C3230 C3226 1.524 . S
C3230 H3242 0.956 . S
C3230 H3243 0.961 . S
C3230 H3244 0.961 . S
C3231 C3228 1.539 . S
C3231 H3245 0.958 . S
C3231 H3246 0.961 . S
C3231 H3247 0.960 . S
H3232 C3216 0.931 . S
H3233 C3221 0.929 . S
H3234 C3222 0.960 . S
H3235 C3222 0.962 . S
H3236 C3222 0.960 . S
H3237 C3223 0.961 . S
H3238 C3223 0.961 . S
H3239 C3223 0.961 . S
H3240 C3224 0.931 . S
H3241 C3229 0.930 . S
H3242 C3230 0.956 . S
H3243 C3230 0.961 . S
H3244 C3230 0.961 . S
H3245 C3231 0.958 . S
H3246 C3231 0.961 . S
H3247 C3231 0.960 . S
C3248 C3249 1.391 . S
C3248 C3250 1.394 . S
C3248 H3264 0.931 . S
C3249 C3248 1.391 . S
C3249 C3253 1.376 . S
C3250 C3248 1.394 . S
C3250 C3251 1.369 . S
C3250 C3254 1.531 . S
C3251 C3250 1.369 . S
C3251 C3252 1.410 . S
C3251 C3259 1.503 . S
C3252 C3251 1.410 . S
C3252 C3253 1.392 . S
C3252 C3255 1.511 . S
C3253 C3249 1.376 . S
C3253 C3252 1.392 . S
C3253 H3265 0.929 . S
C3254 C3250 1.531 . S
C3254 H3266 0.960 . S
C3254 H3267 0.962 . S
C3254 H3268 0.960 . S
C3255 C3252 1.511 . S
C3255 H3269 0.961 . S
C3255 H3270 0.961 . S
C3255 H3271 0.961 . S
C3256 C3257 1.370 . S
C3256 C3258 1.363 . S
C3256 H3272 0.931 . S
C3257 C3256 1.370 . S
C3257 C3261 1.408 . S
C3258 C3256 1.363 . S
C3258 C3259 1.370 . S
C3258 C3262 1.524 . S
C3259 C3251 1.503 . S
C3259 C3258 1.370 . S
C3259 C3260 1.403 . S
C3260 C3259 1.403 . S
C3260 C3261 1.404 . S
C3260 C3263 1.539 . S
C3261 C3257 1.408 . S
C3261 C3260 1.404 . S
C3261 H3273 0.930 . S
C3262 C3258 1.524 . S
C3262 H3274 0.956 . S
C3262 H3275 0.961 . S
C3262 H3276 0.961 . S
C3263 C3260 1.539 . S
C3263 H3277 0.958 . S
C3263 H3278 0.961 . S
C3263 H3279 0.960 . S
H3264 C3248 0.931 . S
H3265 C3253 0.929 . S
H3266 C3254 0.960 . S
H3267 C3254 0.962 . S
H3268 C3254 0.960 . S
H3269 C3255 0.961 . S
H3270 C3255 0.961 . S
H3271 C3255 0.961 . S
H3272 C3256 0.931 . S
H3273 C3261 0.930 . S
H3274 C3262 0.956 . S
H3275 C3262 0.961 . S
H3276 C3262 0.961 . S
H3277 C3263 0.958 . S
H3278 C3263 0.961 . S
H3279 C3263 0.960 . S
C3280 C3281 1.391 . S
C3280 C3282 1.394 . S
C3280 H3296 0.931 1_455 S
C3281 C3280 1.391 . S
C3281 C3285 1.376 . S
C3282 C3280 1.394 . S
C3282 C3283 1.369 . S
C3282 C3286 1.531 1_455 S
C3283 C3282 1.369 . S
C3283 C3284 1.410 . S
C3283 C3291 1.504 1_556 S
C3284 C3283 1.410 . S
C3284 C3285 1.392 . S
C3284 C3287 1.511 . S
C3285 C3281 1.376 . S
C3285 C3284 1.392 . S
C3285 H3297 0.929 . S
C3286 C3282 1.531 1_655 S
C3286 H3298 0.961 1_556 S
C3286 H3299 0.962 . S
C3286 H3300 0.960 . S
C3287 C3284 1.511 . S
C3287 H3301 0.961 . S
C3287 H3302 0.961 . S
C3287 H3303 0.961 1_556 S
C3288 C3289 1.370 1_556 S
C3288 C3290 1.363 . S
C3288 H3304 0.931 . S
C3289 C3288 1.370 1_554 S
C3289 C3293 1.408 . S
C3290 C3288 1.363 . S
C3290 C3291 1.374 1_556 S
C3290 C3294 1.524 . S
C3291 C3283 1.504 1_554 S
C3291 C3290 1.374 1_554 S
C3291 C3292 1.399 . S
C3292 C3291 1.399 . S
C3292 C3293 1.404 . S
C3292 C3295 1.539 . S
C3293 C3289 1.408 . S
C3293 C3292 1.404 . S
C3293 H3305 0.930 . S
C3294 C3290 1.524 . S
C3294 H3306 0.956 . S
C3294 H3307 0.961 . S
C3294 H3308 0.961 . S
C3295 C3292 1.539 . S
C3295 H3309 0.958 . S
C3295 H3310 0.961 . S
C3295 H3311 0.960 . S
H3296 C3280 0.931 1_655 S
H3297 C3285 0.929 . S
H3298 C3286 0.961 1_554 S
H3299 C3286 0.962 . S
H3300 C3286 0.960 . S
H3301 C3287 0.961 . S
H3302 C3287 0.961 . S
H3303 C3287 0.961 1_554 S
H3304 C3288 0.931 . S
H3305 C3293 0.930 . S
H3306 C3294 0.956 . S
H3307 C3294 0.961 . S
H3308 C3294 0.961 . S
H3309 C3295 0.958 . S
H3310 C3295 0.961 . S
H3311 C3295 0.960 . S
C3312 C3313 1.391 . S
C3312 C3314 1.394 . S
C3312 H3328 0.931 . S
C3313 C3312 1.391 . S
C3313 C3317 1.376 . S
C3314 C3312 1.394 . S
C3314 C3315 1.369 1_455 S
C3314 C3318 1.531 1_455 S
C3315 C3314 1.369 1_655 S
C3315 C3316 1.410 . S
C3315 C3323 1.503 . S
C3316 C3315 1.410 . S
C3316 C3317 1.392 1_655 S
C3316 C3319 1.511 . S
C3317 C3313 1.376 . S
C3317 C3316 1.392 1_455 S
C3317 H3329 0.929 . S
C3318 C3314 1.531 1_655 S
C3318 H3330 0.960 . S
C3318 H3331 0.962 1_655 S
C3318 H3332 0.957 1_655 S
C3319 C3316 1.511 . S
C3319 H3333 0.961 . S
C3319 H3334 0.961 . S
C3319 H3335 0.961 . S
C3320 C3321 1.370 . S
C3320 C3322 1.363 . S
C3320 H3336 0.931 . S
C3321 C3320 1.370 . S
C3321 C3325 1.408 . S
C3322 C3320 1.363 . S
C3322 C3323 1.370 . S
C3322 C3326 1.524 . S
C3323 C3315 1.503 . S
C3323 C3322 1.370 . S
C3323 C3324 1.403 . S
C3324 C3323 1.403 . S
C3324 C3325 1.404 . S
C3324 C3327 1.539 . S
C3325 C3321 1.408 . S
C3325 C3324 1.404 . S
C3325 H3337 0.930 . S
C3326 C3322 1.524 . S
C3326 H3338 0.956 1_655 S
C3326 H3339 0.961 1_655 S
C3326 H3340 0.961 . S
C3327 C3324 1.539 . S
C3327 H3341 0.958 . S
C3327 H3342 0.961 . S
C3327 H3343 0.960 . S
H3328 C3312 0.931 . S
H3329 C3317 0.929 . S
H3330 C3318 0.960 . S
H3331 C3318 0.962 1_455 S
H3332 C3318 0.957 1_455 S
H3333 C3319 0.961 . S
H3334 C3319 0.961 . S
H3335 C3319 0.961 . S
H3336 C3320 0.931 . S
H3337 C3325 0.930 . S
H3338 C3326 0.956 1_455 S
H3339 C3326 0.961 1_455 S
H3340 C3326 0.961 . S
H3341 C3327 0.958 . S
H3342 C3327 0.961 . S
H3343 C3327 0.960 . S
C3344 C3345 1.391 . S
C3344 C3346 1.394 . S
C3344 H3360 0.931 . S
C3345 C3344 1.391 . S
C3345 C3349 1.376 . S
C3346 C3344 1.394 . S
C3346 C3347 1.369 . S
C3346 C3350 1.531 . S
C3347 C3346 1.369 . S
C3347 C3348 1.410 . S
C3347 C3355 1.503 . S
C3348 C3347 1.410 . S
C3348 C3349 1.392 . S
C3348 C3351 1.511 . S
C3349 C3345 1.376 . S
C3349 C3348 1.392 . S
C3349 H3361 0.929 . S
C3350 C3346 1.531 . S
C3350 H3362 0.960 . S
C3350 H3363 0.962 . S
C3350 H3364 0.960 . S
C3351 C3348 1.511 . S
C3351 H3365 0.961 . S
C3351 H3366 0.961 . S
C3351 H3367 0.961 . S
C3352 C3353 1.370 . S
C3352 C3354 1.363 . S
C3352 H3368 0.931 . S
C3353 C3352 1.370 . S
C3353 C3357 1.408 . S
C3354 C3352 1.363 . S
C3354 C3355 1.370 . S
C3354 C3358 1.524 . S
C3355 C3347 1.503 . S
C3355 C3354 1.370 . S
C3355 C3356 1.403 . S
C3356 C3355 1.403 . S
C3356 C3357 1.404 . S
C3356 C3359 1.539 . S
C3357 C3353 1.408 . S
C3357 C3356 1.404 . S
C3357 H3369 0.930 . S
C3358 C3354 1.524 . S
C3358 H3370 0.956 . S
C3358 H3371 0.961 . S
C3358 H3372 0.961 . S
C3359 C3356 1.539 . S
C3359 H3373 0.958 . S
C3359 H3374 0.961 . S
C3359 H3375 0.960 . S
H3360 C3344 0.931 . S
H3361 C3349 0.929 . S
H3362 C3350 0.960 . S
H3363 C3350 0.962 . S
H3364 C3350 0.960 . S
H3365 C3351 0.961 . S
H3366 C3351 0.961 . S
H3367 C3351 0.961 . S
H3368 C3352 0.931 . S
H3369 C3357 0.930 . S
H3370 C3358 0.956 . S
H3371 C3358 0.961 . S
H3372 C3358 0.961 . S
H3373 C3359 0.958 . S
H3374 C3359 0.961 . S
H3375 C3359 0.960 . S
C3376 C3377 1.391 . S
C3376 C3378 1.394 . S
C3376 H3392 0.931 . S
C3377 C3376 1.391 . S
C3377 C3381 1.376 . S
C3378 C3376 1.394 . S
C3378 C3379 1.369 . S
C3378 C3382 1.531 . S
C3379 C3378 1.369 . S
C3379 C3380 1.410 . S
C3379 C3387 1.503 1_455 S
C3380 C3379 1.410 . S
C3380 C3381 1.392 . S
C3380 C3383 1.511 1_455 S
C3381 C3377 1.376 . S
C3381 C3380 1.392 . S
C3381 H3393 0.929 . S
C3382 C3378 1.531 . S
C3382 H3394 0.960 . S
C3382 H3395 0.962 . S
C3382 H3396 0.960 . S
C3383 C3380 1.511 1_655 S
C3383 H3397 0.960 . S
C3383 H3398 0.961 . S
C3383 H3399 0.961 . S
C3384 C3385 1.370 . S
C3384 C3386 1.363 . S
C3384 H3400 0.931 . S
C3385 C3384 1.370 . S
C3385 C3389 1.408 . S
C3386 C3384 1.363 . S
C3386 C3387 1.370 . S
C3386 C3390 1.524 . S
C3387 C3379 1.503 1_655 S
C3387 C3386 1.370 . S
C3387 C3388 1.403 . S
C3388 C3387 1.403 . S
C3388 C3389 1.404 . S
C3388 C3391 1.539 . S
C3389 C3385 1.408 . S
C3389 C3388 1.404 . S
C3389 H3401 0.930 . S
C3390 C3386 1.524 . S
C3390 H3402 0.956 1_655 S
C3390 H3403 0.961 1_655 S
C3390 H3404 0.961 . S
C3391 C3388 1.539 . S
C3391 H3405 0.958 . S
C3391 H3406 0.961 . S
C3391 H3407 0.960 . S
H3392 C3376 0.931 . S
H3393 C3381 0.929 . S
H3394 C3382 0.960 . S
H3395 C3382 0.962 . S
H3396 C3382 0.960 . S
H3397 C3383 0.960 . S
H3398 C3383 0.961 . S
H3399 C3383 0.961 . S
H3400 C3384 0.931 . S
H3401 C3389 0.930 . S
H3402 C3390 0.956 1_455 S
H3403 C3390 0.961 1_455 S
H3404 C3390 0.961 . S
H3405 C3391 0.958 . S
H3406 C3391 0.961 . S
H3407 C3391 0.960 . S
C3408 C3409 1.391 . S
C3408 C3410 1.394 1_655 S
C3408 H3424 0.931 . S
C3409 C3408 1.391 . S
C3409 C3413 1.376 1_655 S
C3410 C3408 1.394 1_455 S
C3410 C3411 1.369 . S
C3410 C3414 1.531 1_455 S
C3411 C3410 1.369 . S
C3411 C3412 1.410 . S
C3411 C3419 1.503 . S
C3412 C3411 1.410 . S
C3412 C3413 1.392 . S
C3412 C3415 1.511 . S
C3413 C3409 1.376 1_455 S
C3413 C3412 1.392 . S
C3413 H3425 0.929 . S
C3414 C3410 1.531 1_655 S
C3414 H3426 0.960 1_655 S
C3414 H3427 0.962 . S
C3414 H3428 0.960 . S
C3415 C3412 1.511 . S
C3415 H3429 0.961 . S
C3415 H3430 0.961 . S
C3415 H3431 0.961 . S
C3416 C3417 1.370 . S
C3416 C3418 1.363 . S
C3416 H3432 0.931 . S
C3417 C3416 1.370 . S
C3417 C3421 1.408 . S
C3418 C3416 1.363 . S
C3418 C3419 1.370 . S
C3418 C3422 1.524 1_455 S
C3419 C3411 1.503 . S
C3419 C3418 1.370 . S
C3419 C3420 1.403 . S
C3420 C3419 1.403 . S
C3420 C3421 1.404 . S
C3420 C3423 1.539 . S
C3421 C3417 1.408 . S
C3421 C3420 1.404 . S
C3421 H3433 0.930 . S
C3422 C3418 1.524 1_655 S
C3422 H3434 0.956 . S
C3422 H3435 0.961 . S
C3422 H3436 0.961 . S
C3423 C3420 1.539 . S
C3423 H3437 0.958 . S
C3423 H3438 0.961 . S
C3423 H3439 0.960 . S
H3424 C3408 0.931 . S
H3425 C3413 0.929 . S
H3426 C3414 0.960 1_455 S
H3427 C3414 0.962 . S
H3428 C3414 0.960 . S
H3429 C3415 0.961 . S
H3430 C3415 0.961 . S
H3431 C3415 0.961 . S
H3432 C3416 0.931 . S
H3433 C3421 0.930 . S
H3434 C3422 0.956 . S
H3435 C3422 0.961 . S
H3436 C3422 0.961 . S
H3437 C3423 0.958 . S
H3438 C3423 0.961 . S
H3439 C3423 0.960 . S
C3440 C3441 1.391 . S
C3440 C3442 1.394 . S
C3440 H3456 0.931 . S
C3441 C3440 1.391 . S
C3441 C3445 1.376 . S
C3442 C3440 1.394 . S
C3442 C3443 1.369 . S
C3442 C3446 1.531 . S
C3443 C3442 1.369 . S
C3443 C3444 1.410 . S
C3443 C3451 1.503 . S
C3444 C3443 1.410 . S
C3444 C3445 1.392 . S
C3444 C3447 1.511 . S
C3445 C3441 1.376 . S
C3445 C3444 1.392 . S
C3445 H3457 0.929 . S
C3446 C3442 1.531 . S
C3446 H3458 0.960 . S
C3446 H3459 0.962 . S
C3446 H3460 0.960 . S
C3447 C3444 1.511 . S
C3447 H3461 0.961 . S
C3447 H3462 0.961 . S
C3447 H3463 0.961 . S
C3448 C3449 1.370 . S
C3448 C3450 1.363 . S
C3448 H3464 0.931 . S
C3449 C3448 1.370 . S
C3449 C3453 1.408 . S
C3450 C3448 1.363 . S
C3450 C3451 1.370 . S
C3450 C3454 1.524 . S
C3451 C3443 1.503 . S
C3451 C3450 1.370 . S
C3451 C3452 1.403 . S
C3452 C3451 1.403 . S
C3452 C3453 1.404 . S
C3452 C3455 1.539 . S
C3453 C3449 1.408 . S
C3453 C3452 1.404 . S
C3453 H3465 0.930 . S
C3454 C3450 1.524 . S
C3454 H3466 0.956 . S
C3454 H3467 0.961 . S
C3454 H3468 0.961 . S
C3455 C3452 1.539 . S
C3455 H3469 0.958 . S
C3455 H3470 0.961 . S
C3455 H3471 0.960 . S
H3456 C3440 0.931 . S
H3457 C3445 0.929 . S
H3458 C3446 0.960 . S
H3459 C3446 0.962 . S
H3460 C3446 0.960 . S
H3461 C3447 0.961 . S
H3462 C3447 0.961 . S
H3463 C3447 0.961 . S
H3464 C3448 0.931 . S
H3465 C3453 0.930 . S
H3466 C3454 0.956 . S
H3467 C3454 0.961 . S
H3468 C3454 0.961 . S
H3469 C3455 0.958 . S
H3470 C3455 0.961 . S
H3471 C3455 0.960 . S
C3472 C3473 1.391 . S
C3472 C3474 1.394 . S
C3472 H3488 0.931 . S
C3473 C3472 1.391 . S
C3473 C3477 1.376 . S
C3474 C3472 1.394 . S
C3474 C3475 1.369 . S
C3474 C3478 1.531 . S
C3475 C3474 1.369 . S
C3475 C3476 1.410 . S
C3475 C3483 1.503 . S
C3476 C3475 1.410 . S
C3476 C3477 1.392 . S
C3476 C3479 1.511 . S
C3477 C3473 1.376 . S
C3477 C3476 1.392 . S
C3477 H3489 0.929 . S
C3478 C3474 1.531 . S
C3478 H3490 0.960 . S
C3478 H3491 0.962 . S
C3478 H3492 0.960 . S
C3479 C3476 1.511 . S
C3479 H3493 0.961 . S
C3479 H3494 0.961 . S
C3479 H3495 0.961 . S
C3480 C3481 1.370 . S
C3480 C3482 1.363 . S
C3480 H3496 0.931 . S
C3481 C3480 1.370 . S
C3481 C3485 1.408 . S
C3482 C3480 1.363 . S
C3482 C3483 1.370 . S
C3482 C3486 1.524 . S
C3483 C3475 1.503 . S
C3483 C3482 1.370 . S
C3483 C3484 1.403 . S
C3484 C3483 1.403 . S
C3484 C3485 1.404 . S
C3484 C3487 1.539 . S
C3485 C3481 1.408 . S
C3485 C3484 1.404 . S
C3485 H3497 0.930 . S
C3486 C3482 1.524 . S
C3486 H3498 0.956 . S
C3486 H3499 0.961 . S
C3486 H3500 0.961 . S
C3487 C3484 1.539 . S
C3487 H3501 0.958 . S
C3487 H3502 0.961 . S
C3487 H3503 0.960 . S
H3488 C3472 0.931 . S
H3489 C3477 0.929 . S
H3490 C3478 0.960 . S
H3491 C3478 0.962 . S
H3492 C3478 0.960 . S
H3493 C3479 0.961 . S
H3494 C3479 0.961 . S
H3495 C3479 0.961 . S
H3496 C3480 0.931 . S
H3497 C3485 0.930 . S
H3498 C3486 0.956 . S
H3499 C3486 0.961 . S
H3500 C3486 0.961 . S
H3501 C3487 0.958 . S
H3502 C3487 0.961 . S
H3503 C3487 0.960 . S
C3504 C3505 1.391 . S
C3504 C3506 1.394 . S
C3504 H3520 0.931 . S
C3505 C3504 1.391 . S
C3505 C3509 1.376 . S
C3506 C3504 1.394 . S
C3506 C3507 1.369 . S
C3506 C3510 1.531 . S
C3507 C3506 1.369 . S
C3507 C3508 1.410 . S
C3507 C3515 1.503 . S
C3508 C3507 1.410 . S
C3508 C3509 1.392 . S
C3508 C3511 1.511 . S
C3509 C3505 1.376 . S
C3509 C3508 1.392 . S
C3509 H3521 0.929 . S
C3510 C3506 1.531 . S
C3510 H3522 0.960 . S
C3510 H3523 0.962 . S
C3510 H3524 0.960 . S
C3511 C3508 1.511 . S
C3511 H3525 0.961 . S
C3511 H3526 0.961 . S
C3511 H3527 0.961 . S
C3512 C3513 1.370 . S
C3512 C3514 1.363 . S
C3512 H3528 0.931 . S
C3513 C3512 1.370 . S
C3513 C3517 1.408 . S
C3514 C3512 1.363 . S
C3514 C3515 1.370 . S
C3514 C3518 1.524 . S
C3515 C3507 1.503 . S
C3515 C3514 1.370 . S
C3515 C3516 1.403 . S
C3516 C3515 1.403 . S
C3516 C3517 1.404 . S
C3516 C3519 1.539 . S
C3517 C3513 1.408 . S
C3517 C3516 1.404 . S
C3517 H3529 0.930 . S
C3518 C3514 1.524 . S
C3518 H3530 0.956 . S
C3518 H3531 0.961 . S
C3518 H3532 0.961 . S
C3519 C3516 1.539 . S
C3519 H3533 0.958 . S
C3519 H3534 0.961 . S
C3519 H3535 0.960 . S
H3520 C3504 0.931 . S
H3521 C3509 0.929 . S
H3522 C3510 0.960 . S
H3523 C3510 0.962 . S
H3524 C3510 0.960 . S
H3525 C3511 0.961 . S
H3526 C3511 0.961 . S
H3527 C3511 0.961 . S
H3528 C3512 0.931 . S
H3529 C3517 0.930 . S
H3530 C3518 0.956 . S
H3531 C3518 0.961 . S
H3532 C3518 0.961 . S
H3533 C3519 0.958 . S
H3534 C3519 0.961 . S
H3535 C3519 0.960 . S
C3536 C3537 1.391 . S
C3536 C3538 1.394 . S
C3536 H3552 0.931 . S
C3537 C3536 1.391 . S
C3537 C3541 1.376 . S
C3538 C3536 1.394 . S
C3538 C3539 1.369 . S
C3538 C3542 1.531 . S
C3539 C3538 1.369 . S
C3539 C3540 1.410 . S
C3539 C3547 1.503 . S
C3540 C3539 1.410 . S
C3540 C3541 1.392 . S
C3540 C3543 1.511 . S
C3541 C3537 1.376 . S
C3541 C3540 1.392 . S
C3541 H3553 0.929 . S
C3542 C3538 1.531 . S
C3542 H3554 0.960 . S
C3542 H3555 0.962 . S
C3542 H3556 0.960 . S
C3543 C3540 1.511 . S
C3543 H3557 0.961 . S
C3543 H3558 0.961 . S
C3543 H3559 0.961 . S
C3544 C3545 1.370 . S
C3544 C3546 1.363 . S
C3544 H3560 0.931 . S
C3545 C3544 1.370 . S
C3545 C3549 1.408 . S
C3546 C3544 1.363 . S
C3546 C3547 1.370 . S
C3546 C3550 1.524 . S
C3547 C3539 1.503 . S
C3547 C3546 1.370 . S
C3547 C3548 1.403 . S
C3548 C3547 1.403 . S
C3548 C3549 1.404 . S
C3548 C3551 1.539 . S
C3549 C3545 1.408 . S
C3549 C3548 1.404 . S
C3549 H3561 0.930 . S
C3550 C3546 1.524 . S
C3550 H3562 0.956 . S
C3550 H3563 0.961 . S
C3550 H3564 0.961 . S
C3551 C3548 1.539 . S
C3551 H3565 0.958 . S
C3551 H3566 0.961 . S
C3551 H3567 0.960 . S
H3552 C3536 0.931 . S
H3553 C3541 0.929 . S
H3554 C3542 0.960 . S
H3555 C3542 0.962 . S
H3556 C3542 0.960 . S
H3557 C3543 0.961 . S
H3558 C3543 0.961 . S
H3559 C3543 0.961 . S
H3560 C3544 0.931 . S
H3561 C3549 0.930 . S
H3562 C3550 0.956 . S
H3563 C3550 0.961 . S
H3564 C3550 0.961 . S
H3565 C3551 0.958 . S
H3566 C3551 0.961 . S
H3567 C3551 0.960 . S
C3568 C3569 1.391 . S
C3568 C3570 1.394 . S
C3568 H3584 0.931 . S
C3569 C3568 1.391 . S
C3569 C3573 1.376 . S
C3570 C3568 1.394 . S
C3570 C3571 1.369 . S
C3570 C3574 1.531 . S
C3571 C3570 1.369 . S
C3571 C3572 1.410 . S
C3571 C3579 1.503 . S
C3572 C3571 1.410 . S
C3572 C3573 1.392 . S
C3572 C3575 1.511 . S
C3573 C3569 1.376 . S
C3573 C3572 1.392 . S
C3573 H3585 0.929 . S
C3574 C3570 1.531 . S
C3574 H3586 0.960 . S
C3574 H3587 0.962 . S
C3574 H3588 0.960 . S
C3575 C3572 1.511 . S
C3575 H3589 0.961 . S
C3575 H3590 0.961 . S
C3575 H3591 0.961 . S
C3576 C3577 1.370 . S
C3576 C3578 1.363 . S
C3576 H3592 0.931 . S
C3577 C3576 1.370 . S
C3577 C3581 1.408 . S
C3578 C3576 1.363 . S
C3578 C3579 1.370 . S
C3578 C3582 1.524 . S
C3579 C3571 1.503 . S
C3579 C3578 1.370 . S
C3579 C3580 1.403 . S
C3580 C3579 1.403 . S
C3580 C3581 1.404 . S
C3580 C3583 1.539 . S
C3581 C3577 1.408 . S
C3581 C3580 1.404 . S
C3581 H3593 0.930 . S
C3582 C3578 1.524 . S
C3582 H3594 0.956 . S
C3582 H3595 0.961 . S
C3582 H3596 0.961 . S
C3583 C3580 1.539 . S
C3583 H3597 0.958 . S
C3583 H3598 0.961 . S
C3583 H3599 0.960 . S
H3584 C3568 0.931 . S
H3585 C3573 0.929 . S
H3586 C3574 0.960 . S
H3587 C3574 0.962 . S
H3588 C3574 0.960 . S
H3589 C3575 0.961 . S
H3590 C3575 0.961 . S
H3591 C3575 0.961 . S
H3592 C3576 0.931 . S
H3593 C3581 0.930 . S
H3594 C3582 0.956 . S
H3595 C3582 0.961 . S
H3596 C3582 0.961 . S
H3597 C3583 0.958 . S
H3598 C3583 0.961 . S
H3599 C3583 0.960 . S
C3600 C3601 1.391 . S
C3600 C3602 1.394 . S
C3600 H3616 0.931 . S
C3601 C3600 1.391 . S
C3601 C3605 1.376 . S
C3602 C3600 1.394 . S
C3602 C3603 1.369 . S
C3602 C3606 1.531 . S
C3603 C3602 1.369 . S
C3603 C3604 1.410 . S
C3603 C3611 1.503 . S
C3604 C3603 1.410 . S
C3604 C3605 1.392 . S
C3604 C3607 1.511 . S
C3605 C3601 1.376 . S
C3605 C3604 1.392 . S
C3605 H3617 0.929 . S
C3606 C3602 1.531 . S
C3606 H3618 0.960 . S
C3606 H3619 0.962 . S
C3606 H3620 0.960 . S
C3607 C3604 1.511 . S
C3607 H3621 0.961 . S
C3607 H3622 0.961 . S
C3607 H3623 0.961 . S
C3608 C3609 1.370 . S
C3608 C3610 1.363 . S
C3608 H3624 0.931 . S
C3609 C3608 1.370 . S
C3609 C3613 1.408 . S
C3610 C3608 1.363 . S
C3610 C3611 1.370 . S
C3610 C3614 1.524 . S
C3611 C3603 1.503 . S
C3611 C3610 1.370 . S
C3611 C3612 1.403 . S
C3612 C3611 1.403 . S
C3612 C3613 1.404 . S
C3612 C3615 1.539 . S
C3613 C3609 1.408 . S
C3613 C3612 1.404 . S
C3613 H3625 0.930 . S
C3614 C3610 1.524 . S
C3614 H3626 0.956 . S
C3614 H3627 0.961 . S
C3614 H3628 0.961 . S
C3615 C3612 1.539 . S
C3615 H3629 0.958 . S
C3615 H3630 0.961 . S
C3615 H3631 0.960 . S
H3616 C3600 0.931 . S
H3617 C3605 0.929 . S
H3618 C3606 0.960 . S
H3619 C3606 0.962 . S
H3620 C3606 0.960 . S
H3621 C3607 0.961 . S
H3622 C3607 0.961 . S
H3623 C3607 0.961 . S
H3624 C3608 0.931 . S
H3625 C3613 0.930 . S
H3626 C3614 0.956 . S
H3627 C3614 0.961 . S
H3628 C3614 0.961 . S
H3629 C3615 0.958 . S
H3630 C3615 0.961 . S
H3631 C3615 0.960 . S
C3632 C3633 1.391 . S
C3632 C3634 1.394 . S
C3632 H3648 0.931 . S
C3633 C3632 1.391 . S
C3633 C3637 1.376 . S
C3634 C3632 1.394 . S
C3634 C3635 1.369 . S
C3634 C3638 1.531 . S
C3635 C3634 1.369 . S
C3635 C3636 1.410 . S
C3635 C3643 1.503 . S
C3636 C3635 1.410 . S
C3636 C3637 1.392 . S
C3636 C3639 1.511 . S
C3637 C3633 1.376 . S
C3637 C3636 1.392 . S
C3637 H3649 0.929 . S
C3638 C3634 1.531 . S
C3638 H3650 0.960 . S
C3638 H3651 0.962 . S
C3638 H3652 0.960 . S
C3639 C3636 1.511 . S
C3639 H3653 0.961 . S
C3639 H3654 0.961 . S
C3639 H3655 0.961 . S
C3640 C3641 1.370 . S
C3640 C3642 1.363 . S
C3640 H3656 0.931 . S
C3641 C3640 1.370 . S
C3641 C3645 1.408 . S
C3642 C3640 1.363 . S
C3642 C3643 1.370 . S
C3642 C3646 1.524 . S
C3643 C3635 1.503 . S
C3643 C3642 1.370 . S
C3643 C3644 1.403 . S
C3644 C3643 1.403 . S
C3644 C3645 1.404 . S
C3644 C3647 1.539 . S
C3645 C3641 1.408 . S
C3645 C3644 1.404 . S
C3645 H3657 0.930 . S
C3646 C3642 1.524 . S
C3646 H3658 0.956 . S
C3646 H3659 0.961 . S
C3646 H3660 0.961 . S
C3647 C3644 1.539 . S
C3647 H3661 0.958 . S
C3647 H3662 0.961 . S
C3647 H3663 0.960 . S
H3648 C3632 0.931 . S
H3649 C3637 0.929 . S
H3650 C3638 0.960 . S
H3651 C3638 0.962 . S
H3652 C3638 0.960 . S
H3653 C3639 0.961 . S
H3654 C3639 0.961 . S
H3655 C3639 0.961 . S
H3656 C3640 0.931 . S
H3657 C3645 0.930 . S
H3658 C3646 0.956 . S
H3659 C3646 0.961 . S
H3660 C3646 0.961 . S
H3661 C3647 0.958 . S
H3662 C3647 0.961 . S
H3663 C3647 0.960 . S
C3664 C3665 1.391 . S
C3664 C3666 1.394 . S
C3664 H3680 0.931 . S
C3665 C3664 1.391 . S
C3665 C3669 1.376 . S
C3666 C3664 1.394 . S
C3666 C3667 1.369 . S
C3666 C3670 1.531 . S
C3667 C3666 1.369 . S
C3667 C3668 1.410 . S
C3667 C3675 1.503 . S
C3668 C3667 1.410 . S
C3668 C3669 1.392 . S
C3668 C3671 1.511 . S
C3669 C3665 1.376 . S
C3669 C3668 1.392 . S
C3669 H3681 0.929 . S
C3670 C3666 1.531 . S
C3670 H3682 0.960 . S
C3670 H3683 0.962 . S
C3670 H3684 0.960 . S
C3671 C3668 1.511 . S
C3671 H3685 0.961 . S
C3671 H3686 0.961 . S
C3671 H3687 0.961 . S
C3672 C3673 1.370 . S
C3672 C3674 1.363 . S
C3672 H3688 0.931 . S
C3673 C3672 1.370 . S
C3673 C3677 1.408 . S
C3674 C3672 1.363 . S
C3674 C3675 1.370 . S
C3674 C3678 1.524 . S
C3675 C3667 1.503 . S
C3675 C3674 1.370 . S
C3675 C3676 1.403 . S
C3676 C3675 1.403 . S
C3676 C3677 1.404 . S
C3676 C3679 1.539 . S
C3677 C3673 1.408 . S
C3677 C3676 1.404 . S
C3677 H3689 0.930 . S
C3678 C3674 1.524 . S
C3678 H3690 0.956 . S
C3678 H3691 0.961 . S
C3678 H3692 0.961 . S
C3679 C3676 1.539 . S
C3679 H3693 0.958 . S
C3679 H3694 0.961 . S
C3679 H3695 0.960 . S
H3680 C3664 0.931 . S
H3681 C3669 0.929 . S
H3682 C3670 0.960 . S
H3683 C3670 0.962 . S
H3684 C3670 0.960 . S
H3685 C3671 0.961 . S
H3686 C3671 0.961 . S
H3687 C3671 0.961 . S
H3688 C3672 0.931 . S
H3689 C3677 0.930 . S
H3690 C3678 0.956 . S
H3691 C3678 0.961 . S
H3692 C3678 0.961 . S
H3693 C3679 0.958 . S
H3694 C3679 0.961 . S
H3695 C3679 0.960 . S
C3696 C3697 1.391 . S
C3696 C3698 1.394 . S
C3696 H3712 0.931 . S
C3697 C3696 1.391 . S
C3697 C3701 1.376 . S
C3698 C3696 1.394 . S
C3698 C3699 1.369 . S
C3698 C3702 1.531 . S
C3699 C3698 1.369 . S
C3699 C3700 1.410 . S
C3699 C3707 1.503 . S
C3700 C3699 1.410 . S
C3700 C3701 1.392 . S
C3700 C3703 1.511 . S
C3701 C3697 1.376 . S
C3701 C3700 1.392 . S
C3701 H3713 0.929 . S
C3702 C3698 1.531 . S
C3702 H3714 0.960 . S
C3702 H3715 0.962 . S
C3702 H3716 0.960 . S
C3703 C3700 1.511 . S
C3703 H3717 0.961 . S
C3703 H3718 0.961 . S
C3703 H3719 0.961 . S
C3704 C3705 1.370 . S
C3704 C3706 1.363 . S
C3704 H3720 0.931 . S
C3705 C3704 1.370 . S
C3705 C3709 1.408 . S
C3706 C3704 1.363 . S
C3706 C3707 1.370 . S
C3706 C3710 1.524 . S
C3707 C3699 1.503 . S
C3707 C3706 1.370 . S
C3707 C3708 1.403 . S
C3708 C3707 1.403 . S
C3708 C3709 1.404 . S
C3708 C3711 1.539 . S
C3709 C3705 1.408 . S
C3709 C3708 1.404 . S
C3709 H3721 0.930 . S
C3710 C3706 1.524 . S
C3710 H3722 0.956 . S
C3710 H3723 0.961 . S
C3710 H3724 0.961 . S
C3711 C3708 1.539 . S
C3711 H3725 0.958 . S
C3711 H3726 0.961 . S
C3711 H3727 0.960 . S
H3712 C3696 0.931 . S
H3713 C3701 0.929 . S
H3714 C3702 0.960 . S
H3715 C3702 0.962 . S
H3716 C3702 0.960 . S
H3717 C3703 0.961 . S
H3718 C3703 0.961 . S
H3719 C3703 0.961 . S
H3720 C3704 0.931 . S
H3721 C3709 0.930 . S
H3722 C3710 0.956 . S
H3723 C3710 0.961 . S
H3724 C3710 0.961 . S
H3725 C3711 0.958 . S
H3726 C3711 0.961 . S
H3727 C3711 0.960 . S
C3728 C3729 1.391 . S
C3728 C3730 1.394 . S
C3728 H3744 0.931 . S
C3729 C3728 1.391 . S
C3729 C3733 1.376 . S
C3730 C3728 1.394 . S
C3730 C3731 1.369 . S
C3730 C3734 1.531 . S
C3731 C3730 1.369 . S
C3731 C3732 1.410 . S
C3731 C3739 1.503 . S
C3732 C3731 1.410 . S
C3732 C3733 1.392 . S
C3732 C3735 1.511 . S
C3733 C3729 1.376 . S
C3733 C3732 1.392 . S
C3733 H3745 0.929 . S
C3734 C3730 1.531 . S
C3734 H3746 0.960 . S
C3734 H3747 0.962 . S
C3734 H3748 0.960 . S
C3735 C3732 1.511 . S
C3735 H3749 0.961 . S
C3735 H3750 0.961 . S
C3735 H3751 0.961 . S
C3736 C3737 1.370 . S
C3736 C3738 1.363 . S
C3736 H3752 0.931 . S
C3737 C3736 1.370 . S
C3737 C3741 1.408 . S
C3738 C3736 1.363 . S
C3738 C3739 1.370 . S
C3738 C3742 1.524 . S
C3739 C3731 1.503 . S
C3739 C3738 1.370 . S
C3739 C3740 1.403 . S
C3740 C3739 1.403 . S
C3740 C3741 1.404 . S
C3740 C3743 1.539 . S
C3741 C3737 1.408 . S
C3741 C3740 1.404 . S
C3741 H3753 0.930 . S
C3742 C3738 1.524 . S
C3742 H3754 0.956 . S
C3742 H3755 0.961 . S
C3742 H3756 0.961 . S
C3743 C3740 1.539 . S
C3743 H3757 0.958 . S
C3743 H3758 0.961 . S
C3743 H3759 0.960 . S
H3744 C3728 0.931 . S
H3745 C3733 0.929 . S
H3746 C3734 0.960 . S
H3747 C3734 0.962 . S
H3748 C3734 0.960 . S
H3749 C3735 0.961 . S
H3750 C3735 0.961 . S
H3751 C3735 0.961 . S
H3752 C3736 0.931 . S
H3753 C3741 0.930 . S
H3754 C3742 0.956 . S
H3755 C3742 0.961 . S
H3756 C3742 0.961 . S
H3757 C3743 0.958 . S
H3758 C3743 0.961 . S
H3759 C3743 0.960 . S
C3760 C3761 1.391 . S
C3760 C3762 1.394 . S
C3760 H3776 0.931 . S
C3761 C3760 1.391 . S
C3761 C3765 1.376 . S
C3762 C3760 1.394 . S
C3762 C3763 1.369 . S
C3762 C3766 1.531 . S
C3763 C3762 1.369 . S
C3763 C3764 1.410 . S
C3763 C3771 1.503 . S
C3764 C3763 1.410 . S
C3764 C3765 1.392 . S
C3764 C3767 1.511 . S
C3765 C3761 1.376 . S
C3765 C3764 1.392 . S
C3765 H3777 0.929 . S
C3766 C3762 1.531 . S
C3766 H3778 0.960 . S
C3766 H3779 0.962 . S
C3766 H3780 0.960 . S
C3767 C3764 1.511 . S
C3767 H3781 0.961 . S
C3767 H3782 0.961 . S
C3767 H3783 0.961 . S
C3768 C3769 1.370 . S
C3768 C3770 1.363 . S
C3768 H3784 0.931 . S
C3769 C3768 1.370 . S
C3769 C3773 1.408 . S
C3770 C3768 1.363 . S
C3770 C3771 1.370 . S
C3770 C3774 1.524 . S
C3771 C3763 1.503 . S
C3771 C3770 1.370 . S
C3771 C3772 1.403 . S
C3772 C3771 1.403 . S
C3772 C3773 1.404 . S
C3772 C3775 1.539 . S
C3773 C3769 1.408 . S
C3773 C3772 1.404 . S
C3773 H3785 0.930 . S
C3774 C3770 1.524 . S
C3774 H3786 0.956 . S
C3774 H3787 0.961 . S
C3774 H3788 0.961 . S
C3775 C3772 1.539 . S
C3775 H3789 0.958 . S
C3775 H3790 0.961 . S
C3775 H3791 0.960 . S
H3776 C3760 0.931 . S
H3777 C3765 0.929 . S
H3778 C3766 0.960 . S
H3779 C3766 0.962 . S
H3780 C3766 0.960 . S
H3781 C3767 0.961 . S
H3782 C3767 0.961 . S
H3783 C3767 0.961 . S
H3784 C3768 0.931 . S
H3785 C3773 0.930 . S
H3786 C3774 0.956 . S
H3787 C3774 0.961 . S
H3788 C3774 0.961 . S
H3789 C3775 0.958 . S
H3790 C3775 0.961 . S
H3791 C3775 0.960 . S
C3792 C3793 1.391 . S
C3792 C3794 1.394 . S
C3792 H3808 0.931 . S
C3793 C3792 1.391 . S
C3793 C3797 1.376 . S
C3794 C3792 1.394 . S
C3794 C3795 1.369 . S
C3794 C3798 1.531 . S
C3795 C3794 1.369 . S
C3795 C3796 1.410 . S
C3795 C3803 1.503 . S
C3796 C3795 1.410 . S
C3796 C3797 1.392 . S
C3796 C3799 1.511 . S
C3797 C3793 1.376 . S
C3797 C3796 1.392 . S
C3797 H3809 0.929 . S
C3798 C3794 1.531 . S
C3798 H3810 0.960 . S
C3798 H3811 0.962 . S
C3798 H3812 0.960 . S
C3799 C3796 1.511 . S
C3799 H3813 0.961 . S
C3799 H3814 0.961 . S
C3799 H3815 0.961 . S
C3800 C3801 1.370 . S
C3800 C3802 1.363 . S
C3800 H3816 0.931 . S
C3801 C3800 1.370 . S
C3801 C3805 1.408 . S
C3802 C3800 1.363 . S
C3802 C3803 1.370 . S
C3802 C3806 1.524 . S
C3803 C3795 1.503 . S
C3803 C3802 1.370 . S
C3803 C3804 1.403 . S
C3804 C3803 1.403 . S
C3804 C3805 1.404 . S
C3804 C3807 1.539 . S
C3805 C3801 1.408 . S
C3805 C3804 1.404 . S
C3805 H3817 0.930 . S
C3806 C3802 1.524 . S
C3806 H3818 0.956 . S
C3806 H3819 0.961 . S
C3806 H3820 0.961 . S
C3807 C3804 1.539 . S
C3807 H3821 0.958 . S
C3807 H3822 0.961 . S
C3807 H3823 0.960 . S
H3808 C3792 0.931 . S
H3809 C3797 0.929 . S
H3810 C3798 0.960 . S
H3811 C3798 0.962 . S
H3812 C3798 0.960 . S
H3813 C3799 0.961 . S
H3814 C3799 0.961 . S
H3815 C3799 0.961 . S
H3816 C3800 0.931 . S
H3817 C3805 0.930 . S
H3818 C3806 0.956 . S
H3819 C3806 0.961 . S
H3820 C3806 0.961 . S
H3821 C3807 0.958 . S
H3822 C3807 0.961 . S
H3823 C3807 0.960 . S
C3824 C3825 1.391 . S
C3824 C3826 1.394 . S
C3824 H3840 0.931 . S
C3825 C3824 1.391 . S
C3825 C3829 1.376 . S
C3826 C3824 1.394 . S
C3826 C3827 1.369 . S
C3826 C3830 1.531 1_565 S
C3827 C3826 1.369 . S
C3827 C3828 1.410 . S
C3827 C3835 1.503 . S
C3828 C3827 1.410 . S
C3828 C3829 1.392 . S
C3828 C3831 1.511 . S
C3829 C3825 1.376 . S
C3829 C3828 1.392 . S
C3829 H3841 0.929 . S
C3830 C3826 1.531 1_545 S
C3830 H3842 0.960 . S
C3830 H3843 0.962 1_554 S
C3830 H3844 0.960 . S
C3831 C3828 1.511 . S
C3831 H3845 0.961 . S
C3831 H3846 0.961 . S
C3831 H3847 0.961 . S
C3832 C3833 1.370 1_556 S
C3832 C3834 1.367 1_545 S
C3832 H3848 0.931 1_545 S
C3833 C3832 1.370 1_554 S
C3833 C3837 1.408 . S
C3834 C3832 1.367 1_565 S
C3834 C3835 1.355 1_556 S
C3834 C3838 1.536 . S
C3835 C3827 1.503 . S
C3835 C3834 1.355 1_554 S
C3835 C3836 1.403 1_565 S
C3836 C3835 1.403 1_545 S
C3836 C3837 1.404 . S
C3836 C3839 1.539 . S
C3837 C3833 1.408 . S
C3837 C3836 1.404 . S
C3837 H3849 0.930 . S
C3838 C3834 1.536 . S
C3838 H3850 0.956 . S
C3838 H3851 0.961 . S
C3838 H3852 0.961 . S
C3839 C3836 1.539 . S
C3839 H3853 0.958 . S
C3839 H3854 0.961 . S
C3839 H3855 0.960 . S
H3840 C3824 0.931 . S
H3841 C3829 0.929 . S
H3842 C3830 0.960 . S
H3843 C3830 0.962 1_556 S
H3844 C3830 0.960 . S
H3845 C3831 0.961 . S
H3846 C3831 0.961 . S
H3847 C3831 0.961 . S
H3848 C3832 0.931 1_565 S
H3849 C3837 0.930 . S
H3850 C3838 0.956 . S
H3851 C3838 0.961 . S
H3852 C3838 0.961 . S
H3853 C3839 0.958 . S
H3854 C3839 0.961 . S
H3855 C3839 0.960 . S
C3856 C3857 1.391 . S
C3856 C3858 1.394 . S
C3856 H3872 0.931 . S
C3857 C3856 1.391 . S
C3857 C3861 1.376 . S
C3858 C3856 1.394 . S
C3858 C3859 1.369 . S
C3858 C3862 1.531 . S
C3859 C3858 1.369 . S
C3859 C3860 1.410 . S
C3859 C3867 1.503 . S
C3860 C3859 1.410 . S
C3860 C3861 1.392 . S
C3860 C3863 1.511 . S
C3861 C3857 1.376 . S
C3861 C3860 1.392 . S
C3861 H3873 0.929 . S
C3862 C3858 1.531 . S
C3862 H3874 0.960 . S
C3862 H3875 0.962 . S
C3862 H3876 0.960 . S
C3863 C3860 1.511 . S
C3863 H3877 0.961 . S
C3863 H3878 0.961 . S
C3863 H3879 0.961 . S
C3864 C3865 1.370 . S
C3864 C3866 1.363 . S
C3864 H3880 0.931 . S
C3865 C3864 1.370 . S
C3865 C3869 1.408 . S
C3866 C3864 1.363 . S
C3866 C3867 1.370 . S
C3866 C3870 1.524 . S
C3867 C3859 1.503 . S
C3867 C3866 1.370 . S
C3867 C3868 1.403 . S
C3868 C3867 1.403 . S
C3868 C3869 1.404 . S
C3868 C3871 1.539 . S
C3869 C3865 1.408 . S
C3869 C3868 1.404 . S
C3869 H3881 0.930 . S
C3870 C3866 1.524 . S
C3870 H3882 0.956 . S
C3870 H3883 0.961 . S
C3870 H3884 0.961 . S
C3871 C3868 1.539 . S
C3871 H3885 0.958 . S
C3871 H3886 0.961 . S
C3871 H3887 0.960 . S
H3872 C3856 0.931 . S
H3873 C3861 0.929 . S
H3874 C3862 0.960 . S
H3875 C3862 0.962 . S
H3876 C3862 0.960 . S
H3877 C3863 0.961 . S
H3878 C3863 0.961 . S
H3879 C3863 0.961 . S
H3880 C3864 0.931 . S
H3881 C3869 0.930 . S
H3882 C3870 0.956 . S
H3883 C3870 0.961 . S
H3884 C3870 0.961 . S
H3885 C3871 0.958 . S
H3886 C3871 0.961 . S
H3887 C3871 0.960 . S
C3888 C3889 1.420 . S
C3888 C3890 1.394 . S
C3888 H3904 0.931 . S
C3889 C3888 1.420 . S
C3889 C3893 1.360 1_554 S
C3890 C3888 1.394 . S
C3890 C3891 1.369 . S
C3890 C3894 1.531 . S
C3891 C3890 1.369 . S
C3891 C3892 1.400 1_554 S
C3891 C3899 1.503 . S
C3892 C3891 1.400 1_556 S
C3892 C3893 1.396 . S
C3892 C3895 1.517 . S
C3893 C3889 1.360 1_556 S
C3893 C3892 1.396 . S
C3893 H3905 0.929 . S
C3894 C3890 1.531 . S
C3894 H3906 0.960 . S
C3894 H3907 0.962 . S
C3894 H3908 0.960 . S
C3895 C3892 1.517 . S
C3895 H3909 0.961 . S
C3895 H3910 0.961 1_556 S
C3895 H3911 0.961 . S
C3896 C3897 1.370 . S
C3896 C3898 1.363 . S
C3896 H3912 0.931 . S
C3897 C3896 1.370 . S
C3897 C3901 1.408 . S
C3898 C3896 1.363 . S
C3898 C3899 1.370 . S
C3898 C3902 1.524 . S
C3899 C3891 1.503 . S
C3899 C3898 1.370 . S
C3899 C3900 1.403 . S
C3900 C3899 1.403 . S
C3900 C3901 1.404 . S
C3900 C3903 1.539 1_554 S
C3901 C3897 1.408 . S
C3901 C3900 1.404 . S
C3901 H3913 0.930 1_554 S
C3902 C3898 1.524 . S
C3902 H3914 0.956 . S
C3902 H3915 0.961 . S
C3902 H3916 0.961 . S
C3903 C3900 1.539 1_556 S
C3903 H3917 0.958 . S
C3903 H3918 0.961 . S
C3903 H3919 0.960 . S
H3904 C3888 0.931 . S
H3905 C3893 0.929 . S
H3906 C3894 0.960 . S
H3907 C3894 0.962 . S
H3908 C3894 0.960 . S
H3909 C3895 0.961 . S
H3910 C3895 0.961 1_554 S
H3911 C3895 0.961 . S
H3912 C3896 0.931 . S
H3913 C3901 0.930 1_556 S
H3914 C3902 0.956 . S
H3915 C3902 0.961 . S
H3916 C3902 0.961 . S
H3917 C3903 0.958 . S
H3918 C3903 0.961 . S
H3919 C3903 0.960 . S
C3920 C3921 1.391 . S
C3920 C3922 1.394 . S
C3920 H3936 0.931 . S
C3921 C3920 1.391 . S
C3921 C3925 1.376 . S
C3922 C3920 1.394 . S
C3922 C3923 1.369 . S
C3922 C3926 1.531 . S
C3923 C3922 1.369 . S
C3923 C3924 1.410 . S
C3923 C3931 1.503 . S
C3924 C3923 1.410 . S
C3924 C3925 1.392 . S
C3924 C3927 1.511 . S
C3925 C3921 1.376 . S
C3925 C3924 1.392 . S
C3925 H3937 0.929 . S
C3926 C3922 1.531 . S
C3926 H3938 0.960 . S
C3926 H3939 0.962 . S
C3926 H3940 0.960 . S
C3927 C3924 1.511 . S
C3927 H3941 0.961 . S
C3927 H3942 0.961 . S
C3927 H3943 0.961 . S
C3928 C3929 1.370 . S
C3928 C3930 1.363 . S
C3928 H3944 0.931 . S
C3929 C3928 1.370 . S
C3929 C3933 1.408 . S
C3930 C3928 1.363 . S
C3930 C3931 1.370 . S
C3930 C3934 1.524 . S
C3931 C3923 1.503 . S
C3931 C3930 1.370 . S
C3931 C3932 1.403 . S
C3932 C3931 1.403 . S
C3932 C3933 1.404 . S
C3932 C3935 1.539 . S
C3933 C3929 1.408 . S
C3933 C3932 1.404 . S
C3933 H3945 0.930 . S
C3934 C3930 1.524 . S
C3934 H3946 0.956 . S
C3934 H3947 0.961 . S
C3934 H3948 0.961 . S
C3935 C3932 1.539 . S
C3935 H3949 0.958 . S
C3935 H3950 0.961 . S
C3935 H3951 0.960 . S
H3936 C3920 0.931 . S
H3937 C3925 0.929 . S
H3938 C3926 0.960 . S
H3939 C3926 0.962 . S
H3940 C3926 0.960 . S
H3941 C3927 0.961 . S
H3942 C3927 0.961 . S
H3943 C3927 0.961 . S
H3944 C3928 0.931 . S
H3945 C3933 0.930 . S
H3946 C3934 0.956 . S
H3947 C3934 0.961 . S
H3948 C3934 0.961 . S
H3949 C3935 0.958 . S
H3950 C3935 0.961 . S
H3951 C3935 0.960 . S
C3952 C3953 1.391 . S
C3952 C3954 1.394 . S
C3952 H3968 0.931 . S
C3953 C3952 1.391 . S
C3953 C3957 1.376 . S
C3954 C3952 1.394 . S
C3954 C3955 1.369 . S
C3954 C3958 1.531 . S
C3955 C3954 1.369 . S
C3955 C3956 1.410 . S
C3955 C3963 1.503 . S
C3956 C3955 1.410 . S
C3956 C3957 1.392 . S
C3956 C3959 1.511 . S
C3957 C3953 1.376 . S
C3957 C3956 1.392 . S
C3957 H3969 0.929 . S
C3958 C3954 1.531 . S
C3958 H3970 0.960 . S
C3958 H3971 0.962 . S
C3958 H3972 0.960 . S
C3959 C3956 1.511 . S
C3959 H3973 0.961 . S
C3959 H3974 0.961 . S
C3959 H3975 0.961 . S
C3960 C3961 1.370 . S
C3960 C3962 1.363 . S
C3960 H3976 0.931 . S
C3961 C3960 1.370 . S
C3961 C3965 1.408 . S
C3962 C3960 1.363 . S
C3962 C3963 1.370 . S
C3962 C3966 1.524 . S
C3963 C3955 1.503 . S
C3963 C3962 1.370 . S
C3963 C3964 1.403 . S
C3964 C3963 1.403 . S
C3964 C3965 1.404 . S
C3964 C3967 1.539 . S
C3965 C3961 1.408 . S
C3965 C3964 1.404 . S
C3965 H3977 0.930 . S
C3966 C3962 1.524 . S
C3966 H3978 0.956 . S
C3966 H3979 0.961 . S
C3966 H3980 0.961 . S
C3967 C3964 1.539 . S
C3967 H3981 0.958 . S
C3967 H3982 0.961 . S
C3967 H3983 0.960 . S
H3968 C3952 0.931 . S
H3969 C3957 0.929 . S
H3970 C3958 0.960 . S
H3971 C3958 0.962 . S
H3972 C3958 0.960 . S
H3973 C3959 0.961 . S
H3974 C3959 0.961 . S
H3975 C3959 0.961 . S
H3976 C3960 0.931 . S
H3977 C3965 0.930 . S
H3978 C3966 0.956 . S
H3979 C3966 0.961 . S
H3980 C3966 0.961 . S
H3981 C3967 0.958 . S
H3982 C3967 0.961 . S
H3983 C3967 0.960 . S
C3984 C3985 1.391 . S
C3984 C3986 1.394 . S
C3984 H4000 0.931 . S
C3985 C3984 1.391 . S
C3985 C3989 1.376 . S
C3986 C3984 1.394 . S
C3986 C3987 1.369 . S
C3986 C3990 1.531 . S
C3987 C3986 1.369 . S
C3987 C3988 1.410 . S
C3987 C3995 1.503 . S
C3988 C3987 1.410 . S
C3988 C3989 1.392 . S
C3988 C3991 1.511 . S
C3989 C3985 1.376 . S
C3989 C3988 1.392 . S
C3989 H4001 0.929 . S
C3990 C3986 1.531 . S
C3990 H4002 0.960 . S
C3990 H4003 0.962 . S
C3990 H4004 0.960 . S
C3991 C3988 1.511 . S
C3991 H4005 0.961 . S
C3991 H4006 0.961 . S
C3991 H4007 0.961 . S
C3992 C3993 1.370 . S
C3992 C3994 1.363 . S
C3992 H4008 0.931 . S
C3993 C3992 1.370 . S
C3993 C3997 1.408 . S
C3994 C3992 1.363 . S
C3994 C3995 1.370 . S
C3994 C3998 1.524 . S
C3995 C3987 1.503 . S
C3995 C3994 1.370 . S
C3995 C3996 1.403 . S
C3996 C3995 1.403 . S
C3996 C3997 1.404 . S
C3996 C3999 1.539 . S
C3997 C3993 1.408 . S
C3997 C3996 1.404 . S
C3997 H4009 0.930 . S
C3998 C3994 1.524 . S
C3998 H4010 0.956 . S
C3998 H4011 0.961 . S
C3998 H4012 0.961 . S
C3999 C3996 1.539 . S
C3999 H4013 0.958 . S
C3999 H4014 0.961 . S
C3999 H4015 0.960 . S
H4000 C3984 0.931 . S
H4001 C3989 0.929 . S
H4002 C3990 0.960 . S
H4003 C3990 0.962 . S
H4004 C3990 0.960 . S
H4005 C3991 0.961 . S
H4006 C3991 0.961 . S
H4007 C3991 0.961 . S
H4008 C3992 0.931 . S
H4009 C3997 0.930 . S
H4010 C3998 0.956 . S
H4011 C3998 0.961 . S
H4012 C3998 0.961 . S
H4013 C3999 0.958 . S
H4014 C3999 0.961 . S
H4015 C3999 0.960 . S
C4016 C4017 1.391 . S
C4016 C4018 1.394 . S
C4016 H4032 0.931 . S
C4017 C4016 1.391 . S
C4017 C4021 1.376 . S
C4018 C4016 1.394 . S
C4018 C4019 1.369 . S
C4018 C4022 1.531 . S
C4019 C4018 1.369 . S
C4019 C4020 1.410 . S
C4019 C4027 1.503 . S
C4020 C4019 1.410 . S
C4020 C4021 1.392 . S
C4020 C4023 1.511 . S
C4021 C4017 1.376 . S
C4021 C4020 1.392 . S
C4021 H4033 0.929 . S
C4022 C4018 1.531 . S
C4022 H4034 0.960 . S
C4022 H4035 0.962 . S
C4022 H4036 0.960 . S
C4023 C4020 1.511 . S
C4023 H4037 0.961 . S
C4023 H4038 0.961 . S
C4023 H4039 0.961 . S
C4024 C4025 1.370 . S
C4024 C4026 1.363 . S
C4024 H4040 0.931 . S
C4025 C4024 1.370 . S
C4025 C4029 1.408 . S
C4026 C4024 1.363 . S
C4026 C4027 1.370 . S
C4026 C4030 1.524 . S
C4027 C4019 1.503 . S
C4027 C4026 1.370 . S
C4027 C4028 1.403 . S
C4028 C4027 1.403 . S
C4028 C4029 1.404 . S
C4028 C4031 1.539 . S
C4029 C4025 1.408 . S
C4029 C4028 1.404 . S
C4029 H4041 0.930 . S
C4030 C4026 1.524 . S
C4030 H4042 0.956 . S
C4030 H4043 0.961 . S
C4030 H4044 0.961 . S
C4031 C4028 1.539 . S
C4031 H4045 0.958 . S
C4031 H4046 0.961 . S
C4031 H4047 0.960 . S
H4032 C4016 0.931 . S
H4033 C4021 0.929 . S
H4034 C4022 0.960 . S
H4035 C4022 0.962 . S
H4036 C4022 0.960 . S
H4037 C4023 0.961 . S
H4038 C4023 0.961 . S
H4039 C4023 0.961 . S
H4040 C4024 0.931 . S
H4041 C4029 0.930 . S
H4042 C4030 0.956 . S
H4043 C4030 0.961 . S
H4044 C4030 0.961 . S
H4045 C4031 0.958 . S
H4046 C4031 0.961 . S
H4047 C4031 0.960 . S
C4048 C4049 1.391 . S
C4048 C4050 1.394 . S
C4048 H4064 0.931 . S
C4049 C4048 1.391 . S
C4049 C4053 1.376 . S
C4050 C4048 1.394 . S
C4050 C4051 1.369 . S
C4050 C4054 1.531 . S
C4051 C4050 1.369 . S
C4051 C4052 1.410 . S
C4051 C4059 1.503 . S
C4052 C4051 1.410 . S
C4052 C4053 1.392 . S
C4052 C4055 1.511 . S
C4053 C4049 1.376 . S
C4053 C4052 1.392 . S
C4053 H4065 0.929 . S
C4054 C4050 1.531 . S
C4054 H4066 0.960 . S
C4054 H4067 0.962 . S
C4054 H4068 0.960 . S
C4055 C4052 1.511 . S
C4055 H4069 0.961 . S
C4055 H4070 0.961 . S
C4055 H4071 0.961 . S
C4056 C4057 1.370 . S
C4056 C4058 1.363 . S
C4056 H4072 0.931 . S
C4057 C4056 1.370 . S
C4057 C4061 1.408 . S
C4058 C4056 1.363 . S
C4058 C4059 1.370 . S
C4058 C4062 1.524 . S
C4059 C4051 1.503 . S
C4059 C4058 1.370 . S
C4059 C4060 1.403 . S
C4060 C4059 1.403 . S
C4060 C4061 1.404 . S
C4060 C4063 1.539 . S
C4061 C4057 1.408 . S
C4061 C4060 1.404 . S
C4061 H4073 0.930 . S
C4062 C4058 1.524 . S
C4062 H4074 0.956 . S
C4062 H4075 0.961 . S
C4062 H4076 0.961 . S
C4063 C4060 1.539 . S
C4063 H4077 0.958 . S
C4063 H4078 0.961 . S
C4063 H4079 0.960 . S
H4064 C4048 0.931 . S
H4065 C4053 0.929 . S
H4066 C4054 0.960 . S
H4067 C4054 0.962 . S
H4068 C4054 0.960 . S
H4069 C4055 0.961 . S
H4070 C4055 0.961 . S
H4071 C4055 0.961 . S
H4072 C4056 0.931 . S
H4073 C4061 0.930 . S
H4074 C4062 0.956 . S
H4075 C4062 0.961 . S
H4076 C4062 0.961 . S
H4077 C4063 0.958 . S
H4078 C4063 0.961 . S
H4079 C4063 0.960 . S
C4080 C4081 1.391 . S
C4080 C4082 1.394 . S
C4080 H4096 0.931 . S
C4081 C4080 1.391 . S
C4081 C4085 1.376 . S
C4082 C4080 1.394 . S
C4082 C4083 1.369 . S
C4082 C4086 1.531 . S
C4083 C4082 1.369 . S
C4083 C4084 1.410 . S
C4083 C4091 1.503 . S
C4084 C4083 1.410 . S
C4084 C4085 1.392 . S
C4084 C4087 1.511 . S
C4085 C4081 1.376 . S
C4085 C4084 1.392 . S
C4085 H4097 0.929 . S
C4086 C4082 1.531 . S
C4086 H4098 0.960 . S
C4086 H4099 0.962 . S
C4086 H4100 0.960 . S
C4087 C4084 1.511 . S
C4087 H4101 0.961 . S
C4087 H4102 0.961 . S
C4087 H4103 0.961 . S
C4088 C4089 1.370 . S
C4088 C4090 1.363 . S
C4088 H4104 0.931 . S
C4089 C4088 1.370 . S
C4089 C4093 1.408 . S
C4090 C4088 1.363 . S
C4090 C4091 1.370 . S
C4090 C4094 1.524 . S
C4091 C4083 1.503 . S
C4091 C4090 1.370 . S
C4091 C4092 1.403 . S
C4092 C4091 1.403 . S
C4092 C4093 1.404 . S
C4092 C4095 1.539 . S
C4093 C4089 1.408 . S
C4093 C4092 1.404 . S
C4093 H4105 0.930 . S
C4094 C4090 1.524 . S
C4094 H4106 0.956 . S
C4094 H4107 0.961 . S
C4094 H4108 0.961 . S
C4095 C4092 1.539 . S
C4095 H4109 0.958 . S
C4095 H4110 0.961 . S
C4095 H4111 0.960 . S
H4096 C4080 0.931 . S
H4097 C4085 0.929 . S
H4098 C4086 0.960 . S
H4099 C4086 0.962 . S
H4100 C4086 0.960 . S
H4101 C4087 0.961 . S
H4102 C4087 0.961 . S
H4103 C4087 0.961 . S
H4104 C4088 0.931 . S
H4105 C4093 0.930 . S
H4106 C4094 0.956 . S
H4107 C4094 0.961 . S
H4108 C4094 0.961 . S
H4109 C4095 0.958 . S
H4110 C4095 0.961 . S
H4111 C4095 0.960 . S
C4112 C4113 1.391 . S
C4112 C4114 1.394 . S
C4112 H4128 0.931 . S
C4113 C4112 1.391 . S
C4113 C4117 1.376 . S
C4114 C4112 1.394 . S
C4114 C4115 1.369 . S
C4114 C4118 1.531 . S
C4115 C4114 1.369 . S
C4115 C4116 1.410 . S
C4115 C4123 1.503 . S
C4116 C4115 1.410 . S
C4116 C4117 1.392 . S
C4116 C4119 1.511 . S
C4117 C4113 1.376 . S
C4117 C4116 1.392 . S
C4117 H4129 0.929 . S
C4118 C4114 1.531 . S
C4118 H4130 0.960 . S
C4118 H4131 0.962 . S
C4118 H4132 0.960 . S
C4119 C4116 1.511 . S
C4119 H4133 0.961 . S
C4119 H4134 0.961 . S
C4119 H4135 0.961 . S
C4120 C4121 1.370 . S
C4120 C4122 1.363 . S
C4120 H4136 0.931 . S
C4121 C4120 1.370 . S
C4121 C4125 1.408 . S
C4122 C4120 1.363 . S
C4122 C4123 1.370 . S
C4122 C4126 1.524 . S
C4123 C4115 1.503 . S
C4123 C4122 1.370 . S
C4123 C4124 1.403 . S
C4124 C4123 1.403 . S
C4124 C4125 1.404 . S
C4124 C4127 1.539 . S
C4125 C4121 1.408 . S
C4125 C4124 1.404 . S
C4125 H4137 0.930 . S
C4126 C4122 1.524 . S
C4126 H4138 0.956 . S
C4126 H4139 0.961 . S
C4126 H4140 0.961 . S
C4127 C4124 1.539 . S
C4127 H4141 0.958 . S
C4127 H4142 0.961 . S
C4127 H4143 0.960 . S
H4128 C4112 0.931 . S
H4129 C4117 0.929 . S
H4130 C4118 0.960 . S
H4131 C4118 0.962 . S
H4132 C4118 0.960 . S
H4133 C4119 0.961 . S
H4134 C4119 0.961 . S
H4135 C4119 0.961 . S
H4136 C4120 0.931 . S
H4137 C4125 0.930 . S
H4138 C4126 0.956 . S
H4139 C4126 0.961 . S
H4140 C4126 0.961 . S
H4141 C4127 0.958 . S
H4142 C4127 0.961 . S
H4143 C4127 0.960 . S
C4144 C4145 1.391 . S
C4144 C4146 1.394 . S
C4144 H4160 0.931 . S
C4145 C4144 1.391 . S
C4145 C4149 1.376 . S
C4146 C4144 1.394 . S
C4146 C4147 1.369 . S
C4146 C4150 1.531 . S
C4147 C4146 1.369 . S
C4147 C4148 1.410 . S
C4147 C4155 1.503 . S
C4148 C4147 1.410 . S
C4148 C4149 1.392 . S
C4148 C4151 1.511 . S
C4149 C4145 1.376 . S
C4149 C4148 1.392 . S
C4149 H4161 0.929 . S
C4150 C4146 1.531 . S
C4150 H4162 0.960 . S
C4150 H4163 0.962 . S
C4150 H4164 0.960 . S
C4151 C4148 1.511 . S
C4151 H4165 0.961 . S
C4151 H4166 0.961 . S
C4151 H4167 0.961 . S
C4152 C4153 1.370 . S
C4152 C4154 1.363 . S
C4152 H4168 0.931 . S
C4153 C4152 1.370 . S
C4153 C4157 1.408 . S
C4154 C4152 1.363 . S
C4154 C4155 1.370 . S
C4154 C4158 1.524 . S
C4155 C4147 1.503 . S
C4155 C4154 1.370 . S
C4155 C4156 1.403 . S
C4156 C4155 1.403 . S
C4156 C4157 1.404 . S
C4156 C4159 1.539 . S
C4157 C4153 1.408 . S
C4157 C4156 1.404 . S
C4157 H4169 0.930 . S
C4158 C4154 1.524 . S
C4158 H4170 0.956 . S
C4158 H4171 0.961 . S
C4158 H4172 0.961 . S
C4159 C4156 1.539 . S
C4159 H4173 0.958 . S
C4159 H4174 0.961 . S
C4159 H4175 0.960 . S
H4160 C4144 0.931 . S
H4161 C4149 0.929 . S
H4162 C4150 0.960 . S
H4163 C4150 0.962 . S
H4164 C4150 0.960 . S
H4165 C4151 0.961 . S
H4166 C4151 0.961 . S
H4167 C4151 0.961 . S
H4168 C4152 0.931 . S
H4169 C4157 0.930 . S
H4170 C4158 0.956 . S
H4171 C4158 0.961 . S
H4172 C4158 0.961 . S
H4173 C4159 0.958 . S
H4174 C4159 0.961 . S
H4175 C4159 0.960 . S
C4176 C4177 1.391 . S
C4176 C4178 1.394 . S
C4176 H4192 0.931 . S
C4177 C4176 1.391 . S
C4177 C4181 1.376 . S
C4178 C4176 1.394 . S
C4178 C4179 1.369 . S
C4178 C4182 1.531 . S
C4179 C4178 1.369 . S
C4179 C4180 1.410 . S
C4179 C4187 1.503 . S
C4180 C4179 1.410 . S
C4180 C4181 1.392 . S
C4180 C4183 1.511 . S
C4181 C4177 1.376 . S
C4181 C4180 1.392 . S
C4181 H4193 0.929 . S
C4182 C4178 1.531 . S
C4182 H4194 0.960 . S
C4182 H4195 0.962 . S
C4182 H4196 0.960 . S
C4183 C4180 1.511 . S
C4183 H4197 0.961 . S
C4183 H4198 0.961 . S
C4183 H4199 0.961 . S
C4184 C4185 1.370 . S
C4184 C4186 1.363 . S
C4184 H4200 0.931 . S
C4185 C4184 1.370 . S
C4185 C4189 1.408 . S
C4186 C4184 1.363 . S
C4186 C4187 1.370 . S
C4186 C4190 1.524 . S
C4187 C4179 1.503 . S
C4187 C4186 1.370 . S
C4187 C4188 1.403 . S
C4188 C4187 1.403 . S
C4188 C4189 1.404 . S
C4188 C4191 1.539 . S
C4189 C4185 1.408 . S
C4189 C4188 1.404 . S
C4189 H4201 0.930 . S
C4190 C4186 1.524 . S
C4190 H4202 0.956 . S
C4190 H4203 0.961 . S
C4190 H4204 0.961 . S
C4191 C4188 1.539 . S
C4191 H4205 0.958 . S
C4191 H4206 0.961 . S
C4191 H4207 0.960 . S
H4192 C4176 0.931 . S
H4193 C4181 0.929 . S
H4194 C4182 0.960 . S
H4195 C4182 0.962 . S
H4196 C4182 0.960 . S
H4197 C4183 0.961 . S
H4198 C4183 0.961 . S
H4199 C4183 0.961 . S
H4200 C4184 0.931 . S
H4201 C4189 0.930 . S
H4202 C4190 0.956 . S
H4203 C4190 0.961 . S
H4204 C4190 0.961 . S
H4205 C4191 0.958 . S
H4206 C4191 0.961 . S
H4207 C4191 0.960 . S
C4208 C4209 1.391 . S
C4208 C4210 1.394 . S
C4208 H4224 0.931 . S
C4209 C4208 1.391 . S
C4209 C4213 1.376 . S
C4210 C4208 1.394 . S
C4210 C4211 1.369 . S
C4210 C4214 1.531 . S
C4211 C4210 1.369 . S
C4211 C4212 1.410 . S
C4211 C4219 1.503 . S
C4212 C4211 1.410 . S
C4212 C4213 1.392 . S
C4212 C4215 1.511 . S
C4213 C4209 1.376 . S
C4213 C4212 1.392 . S
C4213 H4225 0.929 . S
C4214 C4210 1.531 . S
C4214 H4226 0.960 . S
C4214 H4227 0.962 . S
C4214 H4228 0.960 . S
C4215 C4212 1.511 . S
C4215 H4229 0.961 . S
C4215 H4230 0.961 . S
C4215 H4231 0.961 . S
C4216 C4217 1.370 . S
C4216 C4218 1.363 . S
C4216 H4232 0.931 . S
C4217 C4216 1.370 . S
C4217 C4221 1.408 . S
C4218 C4216 1.363 . S
C4218 C4219 1.370 . S
C4218 C4222 1.524 . S
C4219 C4211 1.503 . S
C4219 C4218 1.370 . S
C4219 C4220 1.403 . S
C4220 C4219 1.403 . S
C4220 C4221 1.404 . S
C4220 C4223 1.539 . S
C4221 C4217 1.408 . S
C4221 C4220 1.404 . S
C4221 H4233 0.930 . S
C4222 C4218 1.524 . S
C4222 H4234 0.956 . S
C4222 H4235 0.961 . S
C4222 H4236 0.961 . S
C4223 C4220 1.539 . S
C4223 H4237 0.958 . S
C4223 H4238 0.961 . S
C4223 H4239 0.960 . S
H4224 C4208 0.931 . S
H4225 C4213 0.929 . S
H4226 C4214 0.960 . S
H4227 C4214 0.962 . S
H4228 C4214 0.960 . S
H4229 C4215 0.961 . S
H4230 C4215 0.961 . S
H4231 C4215 0.961 . S
H4232 C4216 0.931 . S
H4233 C4221 0.930 . S
H4234 C4222 0.956 . S
H4235 C4222 0.961 . S
H4236 C4222 0.961 . S
H4237 C4223 0.958 . S
H4238 C4223 0.961 . S
H4239 C4223 0.960 . S
C4240 C4241 1.391 . S
C4240 C4242 1.394 . S
C4240 H4256 0.931 . S
C4241 C4240 1.391 . S
C4241 C4245 1.376 . S
C4242 C4240 1.394 . S
C4242 C4243 1.369 . S
C4242 C4246 1.531 . S
C4243 C4242 1.369 . S
C4243 C4244 1.410 . S
C4243 C4251 1.503 . S
C4244 C4243 1.410 . S
C4244 C4245 1.392 . S
C4244 C4247 1.511 . S
C4245 C4241 1.376 . S
C4245 C4244 1.392 . S
C4245 H4257 0.929 . S
C4246 C4242 1.531 . S
C4246 H4258 0.960 . S
C4246 H4259 0.962 . S
C4246 H4260 0.960 . S
C4247 C4244 1.511 . S
C4247 H4261 0.961 . S
C4247 H4262 0.961 . S
C4247 H4263 0.961 . S
C4248 C4249 1.370 . S
C4248 C4250 1.363 . S
C4248 H4264 0.931 . S
C4249 C4248 1.370 . S
C4249 C4253 1.408 . S
C4250 C4248 1.363 . S
C4250 C4251 1.370 . S
C4250 C4254 1.524 . S
C4251 C4243 1.503 . S
C4251 C4250 1.370 . S
C4251 C4252 1.403 . S
C4252 C4251 1.403 . S
C4252 C4253 1.404 . S
C4252 C4255 1.539 . S
C4253 C4249 1.408 . S
C4253 C4252 1.404 . S
C4253 H4265 0.930 . S
C4254 C4250 1.524 . S
C4254 H4266 0.956 . S
C4254 H4267 0.961 . S
C4254 H4268 0.961 . S
C4255 C4252 1.539 . S
C4255 H4269 0.958 . S
C4255 H4270 0.961 . S
C4255 H4271 0.960 . S
H4256 C4240 0.931 . S
H4257 C4245 0.929 . S
H4258 C4246 0.960 . S
H4259 C4246 0.962 . S
H4260 C4246 0.960 . S
H4261 C4247 0.961 . S
H4262 C4247 0.961 . S
H4263 C4247 0.961 . S
H4264 C4248 0.931 . S
H4265 C4253 0.930 . S
H4266 C4254 0.956 . S
H4267 C4254 0.961 . S
H4268 C4254 0.961 . S
H4269 C4255 0.958 . S
H4270 C4255 0.961 . S
H4271 C4255 0.960 . S
C4272 C4273 1.391 . S
C4272 C4274 1.394 . S
C4272 H4288 0.931 . S
C4273 C4272 1.391 . S
C4273 C4277 1.376 . S
C4274 C4272 1.394 . S
C4274 C4275 1.369 . S
C4274 C4278 1.531 . S
C4275 C4274 1.369 . S
C4275 C4276 1.410 . S
C4275 C4283 1.503 . S
C4276 C4275 1.410 . S
C4276 C4277 1.392 . S
C4276 C4279 1.511 . S
C4277 C4273 1.376 . S
C4277 C4276 1.392 . S
C4277 H4289 0.929 . S
C4278 C4274 1.531 . S
C4278 H4290 0.960 . S
C4278 H4291 0.962 . S
C4278 H4292 0.960 . S
C4279 C4276 1.511 . S
C4279 H4293 0.961 . S
C4279 H4294 0.961 . S
C4279 H4295 0.961 . S
C4280 C4281 1.370 . S
C4280 C4282 1.363 . S
C4280 H4296 0.931 . S
C4281 C4280 1.370 . S
C4281 C4285 1.408 . S
C4282 C4280 1.363 . S
C4282 C4283 1.370 . S
C4282 C4286 1.524 . S
C4283 C4275 1.503 . S
C4283 C4282 1.370 . S
C4283 C4284 1.403 . S
C4284 C4283 1.403 . S
C4284 C4285 1.404 . S
C4284 C4287 1.539 . S
C4285 C4281 1.408 . S
C4285 C4284 1.404 . S
C4285 H4297 0.930 . S
C4286 C4282 1.524 . S
C4286 H4298 0.956 . S
C4286 H4299 0.961 . S
C4286 H4300 0.961 . S
C4287 C4284 1.539 . S
C4287 H4301 0.958 . S
C4287 H4302 0.961 . S
C4287 H4303 0.960 . S
H4288 C4272 0.931 . S
H4289 C4277 0.929 . S
H4290 C4278 0.960 . S
H4291 C4278 0.962 . S
H4292 C4278 0.960 . S
H4293 C4279 0.961 . S
H4294 C4279 0.961 . S
H4295 C4279 0.961 . S
H4296 C4280 0.931 . S
H4297 C4285 0.930 . S
H4298 C4286 0.956 . S
H4299 C4286 0.961 . S
H4300 C4286 0.961 . S
H4301 C4287 0.958 . S
H4302 C4287 0.961 . S
H4303 C4287 0.960 . S
C4304 C4305 1.391 . S
C4304 C4306 1.394 . S
C4304 H4320 0.931 . S
C4305 C4304 1.391 . S
C4305 C4309 1.376 . S
C4306 C4304 1.394 . S
C4306 C4307 1.369 . S
C4306 C4310 1.531 . S
C4307 C4306 1.369 . S
C4307 C4308 1.410 . S
C4307 C4315 1.503 . S
C4308 C4307 1.410 . S
C4308 C4309 1.392 . S
C4308 C4311 1.511 . S
C4309 C4305 1.376 . S
C4309 C4308 1.392 . S
C4309 H4321 0.929 . S
C4310 C4306 1.531 . S
C4310 H4322 0.960 . S
C4310 H4323 0.962 1_655 S
C4310 H4324 0.960 . S
C4311 C4308 1.511 . S
C4311 H4325 0.961 . S
C4311 H4326 0.961 . S
C4311 H4327 0.961 . S
C4312 C4313 1.370 . S
C4312 C4314 1.363 . S
C4312 H4328 0.931 . S
C4313 C4312 1.370 . S
C4313 C4317 1.408 . S
C4314 C4312 1.363 . S
C4314 C4315 1.370 1_455 S
C4314 C4318 1.524 . S
C4315 C4307 1.503 . S
C4315 C4314 1.370 1_655 S
C4315 C4316 1.403 . S
C4316 C4315 1.403 . S
C4316 C4317 1.404 1_655 S
C4316 C4319 1.539 . S
C4317 C4313 1.408 . S
C4317 C4316 1.404 1_455 S
C4317 H4329 0.930 . S
C4318 C4314 1.524 . S
C4318 H4330 0.956 . S
C4318 H4331 0.961 . S
C4318 H4332 0.961 . S
C4319 C4316 1.539 . S
C4319 H4333 0.958 . S
C4319 H4334 0.961 . S
C4319 H4335 0.960 . S
H4320 C4304 0.931 . S
H4321 C4309 0.929 . S
H4322 C4310 0.960 . S
H4323 C4310 0.962 1_455 S
H4324 C4310 0.960 . S
H4325 C4311 0.961 . S
H4326 C4311 0.961 . S
H4327 C4311 0.961 . S
H4328 C4312 0.931 . S
H4329 C4317 0.930 . S
H4330 C4318 0.956 . S
H4331 C4318 0.961 . S
H4332 C4318 0.961 . S
H4333 C4319 0.958 . S
H4334 C4319 0.961 . S
H4335 C4319 0.960 . S
C4336 C4337 1.391 . S
C4336 C4338 1.394 . S
C4336 H4352 0.931 . S
C4337 C4336 1.391 . S
C4337 C4341 1.376 . S
C4338 C4336 1.394 . S
C4338 C4339 1.369 . S
C4338 C4342 1.531 . S
C4339 C4338 1.369 . S
C4339 C4340 1.410 . S
C4339 C4347 1.503 . S
C4340 C4339 1.410 . S
C4340 C4341 1.392 . S
C4340 C4343 1.511 . S
C4341 C4337 1.376 . S
C4341 C4340 1.392 . S
C4341 H4353 0.929 . S
C4342 C4338 1.531 . S
C4342 H4354 0.960 . S
C4342 H4355 0.962 . S
C4342 H4356 0.960 . S
C4343 C4340 1.511 . S
C4343 H4357 0.961 . S
C4343 H4358 0.961 . S
C4343 H4359 0.961 . S
C4344 C4345 1.370 . S
C4344 C4346 1.363 . S
C4344 H4360 0.931 . S
C4345 C4344 1.370 . S
C4345 C4349 1.408 . S
C4346 C4344 1.363 . S
C4346 C4347 1.370 . S
C4346 C4350 1.524 . S
C4347 C4339 1.503 . S
C4347 C4346 1.370 . S
C4347 C4348 1.403 . S
C4348 C4347 1.403 . S
C4348 C4349 1.404 . S
C4348 C4351 1.539 . S
C4349 C4345 1.408 . S
C4349 C4348 1.404 . S
C4349 H4361 0.930 . S
C4350 C4346 1.524 . S
C4350 H4362 0.956 . S
C4350 H4363 0.961 . S
C4350 H4364 0.961 . S
C4351 C4348 1.539 . S
C4351 H4365 0.958 . S
C4351 H4366 0.961 . S
C4351 H4367 0.960 . S
H4352 C4336 0.931 . S
H4353 C4341 0.929 . S
H4354 C4342 0.960 . S
H4355 C4342 0.962 . S
H4356 C4342 0.960 . S
H4357 C4343 0.961 . S
H4358 C4343 0.961 . S
H4359 C4343 0.961 . S
H4360 C4344 0.931 . S
H4361 C4349 0.930 . S
H4362 C4350 0.956 . S
H4363 C4350 0.961 . S
H4364 C4350 0.961 . S
H4365 C4351 0.958 . S
H4366 C4351 0.961 . S
H4367 C4351 0.960 . S
C4368 C4369 1.391 . S
C4368 C4370 1.394 . S
C4368 H4384 0.931 . S
C4369 C4368 1.391 . S
C4369 C4373 1.376 . S
C4370 C4368 1.394 . S
C4370 C4371 1.369 . S
C4370 C4374 1.531 . S
C4371 C4370 1.369 . S
C4371 C4372 1.410 . S
C4371 C4379 1.503 . S
C4372 C4371 1.410 . S
C4372 C4373 1.392 . S
C4372 C4375 1.511 . S
C4373 C4369 1.376 . S
C4373 C4372 1.392 . S
C4373 H4385 0.929 . S
C4374 C4370 1.531 . S
C4374 H4386 0.960 . S
C4374 H4387 0.962 . S
C4374 H4388 0.960 . S
C4375 C4372 1.511 . S
C4375 H4389 0.961 . S
C4375 H4390 0.961 . S
C4375 H4391 0.961 . S
C4376 C4377 1.370 . S
C4376 C4378 1.363 . S
C4376 H4392 0.931 . S
C4377 C4376 1.370 . S
C4377 C4381 1.408 . S
C4378 C4376 1.363 . S
C4378 C4379 1.370 . S
C4378 C4382 1.524 . S
C4379 C4371 1.503 . S
C4379 C4378 1.370 . S
C4379 C4380 1.403 . S
C4380 C4379 1.403 . S
C4380 C4381 1.404 . S
C4380 C4383 1.539 . S
C4381 C4377 1.408 . S
C4381 C4380 1.404 . S
C4381 H4393 0.930 . S
C4382 C4378 1.524 . S
C4382 H4394 0.956 . S
C4382 H4395 0.961 . S
C4382 H4396 0.961 . S
C4383 C4380 1.539 . S
C4383 H4397 0.958 . S
C4383 H4398 0.961 . S
C4383 H4399 0.960 . S
H4384 C4368 0.931 . S
H4385 C4373 0.929 . S
H4386 C4374 0.960 . S
H4387 C4374 0.962 . S
H4388 C4374 0.960 . S
H4389 C4375 0.961 . S
H4390 C4375 0.961 . S
H4391 C4375 0.961 . S
H4392 C4376 0.931 . S
H4393 C4381 0.930 . S
H4394 C4382 0.956 . S
H4395 C4382 0.961 . S
H4396 C4382 0.961 . S
H4397 C4383 0.958 . S
H4398 C4383 0.961 . S
H4399 C4383 0.960 . S
C4400 C4401 1.391 . S
C4400 C4402 1.394 . S
C4400 H4416 0.931 . S
C4401 C4400 1.391 . S
C4401 C4405 1.376 . S
C4402 C4400 1.394 . S
C4402 C4403 1.369 . S
C4402 C4406 1.531 . S
C4403 C4402 1.369 . S
C4403 C4404 1.410 . S
C4403 C4411 1.503 . S
C4404 C4403 1.410 . S
C4404 C4405 1.392 . S
C4404 C4407 1.511 . S
C4405 C4401 1.376 . S
C4405 C4404 1.392 . S
C4405 H4417 0.929 . S
C4406 C4402 1.531 . S
C4406 H4418 0.960 . S
C4406 H4419 0.962 . S
C4406 H4420 0.960 . S
C4407 C4404 1.511 . S
C4407 H4421 0.961 . S
C4407 H4422 0.961 . S
C4407 H4423 0.961 . S
C4408 C4409 1.370 . S
C4408 C4410 1.363 . S
C4408 H4424 0.931 . S
C4409 C4408 1.370 . S
C4409 C4413 1.408 . S
C4410 C4408 1.363 . S
C4410 C4411 1.370 . S
C4410 C4414 1.524 . S
C4411 C4403 1.503 . S
C4411 C4410 1.370 . S
C4411 C4412 1.403 . S
C4412 C4411 1.403 . S
C4412 C4413 1.404 . S
C4412 C4415 1.539 . S
C4413 C4409 1.408 . S
C4413 C4412 1.404 . S
C4413 H4425 0.930 . S
C4414 C4410 1.524 . S
C4414 H4426 0.956 . S
C4414 H4427 0.961 . S
C4414 H4428 0.961 . S
C4415 C4412 1.539 . S
C4415 H4429 0.958 . S
C4415 H4430 0.961 . S
C4415 H4431 0.960 . S
H4416 C4400 0.931 . S
H4417 C4405 0.929 . S
H4418 C4406 0.960 . S
H4419 C4406 0.962 . S
H4420 C4406 0.960 . S
H4421 C4407 0.961 . S
H4422 C4407 0.961 . S
H4423 C4407 0.961 . S
H4424 C4408 0.931 . S
H4425 C4413 0.930 . S
H4426 C4414 0.956 . S
H4427 C4414 0.961 . S
H4428 C4414 0.961 . S
H4429 C4415 0.958 . S
H4430 C4415 0.961 . S
H4431 C4415 0.960 . S
C4432 C4433 1.391 . S
C4432 C4434 1.394 . S
C4432 H4448 0.931 . S
C4433 C4432 1.391 . S
C4433 C4437 1.376 . S
C4434 C4432 1.394 . S
C4434 C4435 1.369 . S
C4434 C4438 1.531 . S
C4435 C4434 1.369 . S
C4435 C4436 1.410 . S
C4435 C4443 1.503 . S
C4436 C4435 1.410 . S
C4436 C4437 1.392 . S
C4436 C4439 1.511 . S
C4437 C4433 1.376 . S
C4437 C4436 1.392 . S
C4437 H4449 0.929 . S
C4438 C4434 1.531 . S
C4438 H4450 0.960 . S
C4438 H4451 0.962 1_655 S
C4438 H4452 0.960 . S
C4439 C4436 1.511 . S
C4439 H4453 0.961 . S
C4439 H4454 0.961 . S
C4439 H4455 0.961 . S
C4440 C4441 1.370 . S
C4440 C4442 1.363 . S
C4440 H4456 0.931 1_655 S
C4441 C4440 1.370 . S
C4441 C4445 1.408 . S
C4442 C4440 1.363 . S
C4442 C4443 1.370 . S
C4442 C4446 1.524 . S
C4443 C4435 1.503 . S
C4443 C4442 1.370 . S
C4443 C4444 1.403 . S
C4444 C4443 1.403 . S
C4444 C4445 1.404 . S
C4444 C4447 1.539 . S
C4445 C4441 1.408 . S
C4445 C4444 1.404 . S
C4445 H4457 0.930 . S
C4446 C4442 1.524 . S
C4446 H4458 0.956 . S
C4446 H4459 0.961 . S
C4446 H4460 0.961 . S
C4447 C4444 1.539 . S
C4447 H4461 0.958 . S
C4447 H4462 0.961 . S
C4447 H4463 0.960 . S
H4448 C4432 0.931 . S
H4449 C4437 0.929 . S
H4450 C4438 0.960 . S
H4451 C4438 0.962 1_455 S
H4452 C4438 0.960 . S
H4453 C4439 0.961 . S
H4454 C4439 0.961 . S
H4455 C4439 0.961 . S
H4456 C4440 0.931 1_455 S
H4457 C4445 0.930 . S
H4458 C4446 0.956 . S
H4459 C4446 0.961 . S
H4460 C4446 0.961 . S
H4461 C4447 0.958 . S
H4462 C4447 0.961 . S
H4463 C4447 0.960 . S
C4464 C4465 1.391 . S
C4464 C4466 1.394 . S
C4464 H4480 0.931 . S
C4465 C4464 1.391 . S
C4465 C4469 1.376 . S
C4466 C4464 1.394 . S
C4466 C4467 1.369 . S
C4466 C4470 1.531 . S
C4467 C4466 1.369 . S
C4467 C4468 1.410 . S
C4467 C4475 1.503 . S
C4468 C4467 1.410 . S
C4468 C4469 1.392 . S
C4468 C4471 1.511 . S
C4469 C4465 1.376 . S
C4469 C4468 1.392 . S
C4469 H4481 0.929 . S
C4470 C4466 1.531 . S
C4470 H4482 0.960 . S
C4470 H4483 0.962 . S
C4470 H4484 0.960 . S
C4471 C4468 1.511 . S
C4471 H4485 0.961 . S
C4471 H4486 0.961 . S
C4471 H4487 0.961 . S
C4472 C4473 1.370 . S
C4472 C4474 1.363 . S
C4472 H4488 0.931 . S
C4473 C4472 1.370 . S
C4473 C4477 1.408 . S
C4474 C4472 1.363 . S
C4474 C4475 1.370 . S
C4474 C4478 1.524 . S
C4475 C4467 1.503 . S
C4475 C4474 1.370 . S
C4475 C4476 1.403 . S
C4476 C4475 1.403 . S
C4476 C4477 1.404 . S
C4476 C4479 1.539 . S
C4477 C4473 1.408 . S
C4477 C4476 1.404 . S
C4477 H4489 0.930 . S
C4478 C4474 1.524 . S
C4478 H4490 0.956 . S
C4478 H4491 0.961 . S
C4478 H4492 0.961 . S
C4479 C4476 1.539 . S
C4479 H4493 0.958 . S
C4479 H4494 0.961 . S
C4479 H4495 0.960 . S
H4480 C4464 0.931 . S
H4481 C4469 0.929 . S
H4482 C4470 0.960 . S
H4483 C4470 0.962 . S
H4484 C4470 0.960 . S
H4485 C4471 0.961 . S
H4486 C4471 0.961 . S
H4487 C4471 0.961 . S
H4488 C4472 0.931 . S
H4489 C4477 0.930 . S
H4490 C4478 0.956 . S
H4491 C4478 0.961 . S
H4492 C4478 0.961 . S
H4493 C4479 0.958 . S
H4494 C4479 0.961 . S
H4495 C4479 0.960 . S
C4496 C4497 1.391 . S
C4496 C4498 1.394 . S
C4496 H4512 0.931 . S
C4497 C4496 1.391 . S
C4497 C4501 1.376 . S
C4498 C4496 1.394 . S
C4498 C4499 1.369 . S
C4498 C4502 1.531 . S
C4499 C4498 1.369 . S
C4499 C4500 1.410 . S
C4499 C4507 1.503 . S
C4500 C4499 1.410 . S
C4500 C4501 1.392 . S
C4500 C4503 1.511 . S
C4501 C4497 1.376 . S
C4501 C4500 1.392 . S
C4501 H4513 0.929 . S
C4502 C4498 1.531 . S
C4502 H4514 0.960 . S
C4502 H4515 0.962 . S
C4502 H4516 0.960 . S
C4503 C4500 1.511 . S
C4503 H4517 0.961 . S
C4503 H4518 0.961 . S
C4503 H4519 0.961 . S
C4504 C4505 1.370 . S
C4504 C4506 1.363 . S
C4504 H4520 0.931 . S
C4505 C4504 1.370 . S
C4505 C4509 1.408 . S
C4506 C4504 1.363 . S
C4506 C4507 1.370 . S
C4506 C4510 1.524 . S
C4507 C4499 1.503 . S
C4507 C4506 1.370 . S
C4507 C4508 1.403 . S
C4508 C4507 1.403 . S
C4508 C4509 1.404 . S
C4508 C4511 1.539 . S
C4509 C4505 1.408 . S
C4509 C4508 1.404 . S
C4509 H4521 0.930 . S
C4510 C4506 1.524 . S
C4510 H4522 0.956 . S
C4510 H4523 0.961 . S
C4510 H4524 0.961 . S
C4511 C4508 1.539 . S
C4511 H4525 0.958 . S
C4511 H4526 0.961 . S
C4511 H4527 0.960 . S
H4512 C4496 0.931 . S
H4513 C4501 0.929 . S
H4514 C4502 0.960 . S
H4515 C4502 0.962 . S
H4516 C4502 0.960 . S
H4517 C4503 0.961 . S
H4518 C4503 0.961 . S
H4519 C4503 0.961 . S
H4520 C4504 0.931 . S
H4521 C4509 0.930 . S
H4522 C4510 0.956 . S
H4523 C4510 0.961 . S
H4524 C4510 0.961 . S
H4525 C4511 0.958 . S
H4526 C4511 0.961 . S
H4527 C4511 0.960 . S
C4528 C4529 1.391 . S
C4528 C4530 1.394 . S
C4528 H4544 0.931 . S
C4529 C4528 1.391 . S
C4529 C4533 1.376 . S
C4530 C4528 1.394 . S
C4530 C4531 1.369 . S
C4530 C4534 1.531 . S
C4531 C4530 1.369 . S
C4531 C4532 1.410 . S
C4531 C4539 1.503 . S
C4532 C4531 1.410 . S
C4532 C4533 1.392 . S
C4532 C4535 1.511 . S
C4533 C4529 1.376 . S
C4533 C4532 1.392 . S
C4533 H4545 0.929 . S
C4534 C4530 1.531 . S
C4534 H4546 0.960 . S
C4534 H4547 0.962 . S
C4534 H4548 0.960 . S
C4535 C4532 1.511 . S
C4535 H4549 0.961 . S
C4535 H4550 0.961 . S
C4535 H4551 0.961 . S
C4536 C4537 1.370 . S
C4536 C4538 1.363 . S
C4536 H4552 0.931 . S
C4537 C4536 1.370 . S
C4537 C4541 1.408 1_565 S
C4538 C4536 1.363 . S
C4538 C4539 1.370 . S
C4538 C4542 1.524 . S
C4539 C4531 1.503 . S
C4539 C4538 1.370 . S
C4539 C4540 1.403 . S
C4540 C4539 1.403 . S
C4540 C4541 1.404 1_565 S
C4540 C4543 1.539 . S
C4541 C4537 1.408 1_545 S
C4541 C4540 1.404 1_545 S
C4541 H4553 0.930 . S
C4542 C4538 1.524 . S
C4542 H4554 0.956 . S
C4542 H4555 0.961 . S
C4542 H4556 0.961 . S
C4543 C4540 1.539 . S
C4543 H4557 0.958 1_565 S
C4543 H4558 0.961 1_565 S
C4543 H4559 0.960 . S
H4544 C4528 0.931 . S
H4545 C4533 0.929 . S
H4546 C4534 0.960 . S
H4547 C4534 0.962 . S
H4548 C4534 0.960 . S
H4549 C4535 0.961 . S
H4550 C4535 0.961 . S
H4551 C4535 0.961 . S
H4552 C4536 0.931 . S
H4553 C4541 0.930 . S
H4554 C4542 0.956 . S
H4555 C4542 0.961 . S
H4556 C4542 0.961 . S
H4557 C4543 0.958 1_545 S
H4558 C4543 0.961 1_545 S
H4559 C4543 0.960 . S
C4560 C4561 1.391 . S
C4560 C4562 1.394 . S
C4560 H4576 0.931 . S
C4561 C4560 1.391 . S
C4561 C4565 1.376 . S
C4562 C4560 1.394 . S
C4562 C4563 1.369 . S
C4562 C4566 1.531 . S
C4563 C4562 1.369 . S
C4563 C4564 1.410 . S
C4563 C4571 1.503 . S
C4564 C4563 1.410 . S
C4564 C4565 1.392 . S
C4564 C4567 1.511 . S
C4565 C4561 1.376 . S
C4565 C4564 1.392 . S
C4565 H4577 0.929 . S
C4566 C4562 1.531 . S
C4566 H4578 0.960 . S
C4566 H4579 0.962 . S
C4566 H4580 0.960 . S
C4567 C4564 1.511 . S
C4567 H4581 0.961 . S
C4567 H4582 0.961 . S
C4567 H4583 0.961 . S
C4568 C4569 1.370 . S
C4568 C4570 1.363 . S
C4568 H4584 0.931 . S
C4569 C4568 1.370 . S
C4569 C4573 1.408 . S
C4570 C4568 1.363 . S
C4570 C4571 1.370 . S
C4570 C4574 1.524 . S
C4571 C4563 1.503 . S
C4571 C4570 1.370 . S
C4571 C4572 1.403 . S
C4572 C4571 1.403 . S
C4572 C4573 1.404 . S
C4572 C4575 1.539 . S
C4573 C4569 1.408 . S
C4573 C4572 1.404 . S
C4573 H4585 0.930 . S
C4574 C4570 1.524 . S
C4574 H4586 0.956 . S
C4574 H4587 0.961 . S
C4574 H4588 0.961 . S
C4575 C4572 1.539 . S
C4575 H4589 0.958 . S
C4575 H4590 0.961 . S
C4575 H4591 0.960 . S
H4576 C4560 0.931 . S
H4577 C4565 0.929 . S
H4578 C4566 0.960 . S
H4579 C4566 0.962 . S
H4580 C4566 0.960 . S
H4581 C4567 0.961 . S
H4582 C4567 0.961 . S
H4583 C4567 0.961 . S
H4584 C4568 0.931 . S
H4585 C4573 0.930 . S
H4586 C4574 0.956 . S
H4587 C4574 0.961 . S
H4588 C4574 0.961 . S
H4589 C4575 0.958 . S
H4590 C4575 0.961 . S
H4591 C4575 0.960 . S
C4592 C4593 1.391 . S
C4592 C4594 1.394 . S
C4592 H4608 0.931 . S
C4593 C4592 1.391 . S
C4593 C4597 1.376 . S
C4594 C4592 1.394 . S
C4594 C4595 1.369 . S
C4594 C4598 1.531 . S
C4595 C4594 1.369 . S
C4595 C4596 1.410 . S
C4595 C4603 1.503 . S
C4596 C4595 1.410 . S
C4596 C4597 1.392 . S
C4596 C4599 1.511 . S
C4597 C4593 1.376 . S
C4597 C4596 1.392 . S
C4597 H4609 0.929 . S
C4598 C4594 1.531 . S
C4598 H4610 0.960 . S
C4598 H4611 0.962 . S
C4598 H4612 0.960 . S
C4599 C4596 1.511 . S
C4599 H4613 0.961 . S
C4599 H4614 0.961 . S
C4599 H4615 0.961 . S
C4600 C4601 1.408 . S
C4600 C4602 1.361 . S
C4600 H4616 0.895 1_554 S
C4601 C4600 1.408 . S
C4601 C4605 1.408 . S
C4602 C4600 1.361 . S
C4602 C4603 1.370 . S
C4602 C4606 1.524 1_554 S
C4603 C4595 1.503 . S
C4603 C4602 1.370 . S
C4603 C4604 1.403 . S
C4604 C4603 1.403 . S
C4604 C4605 1.404 . S
C4604 C4607 1.539 . S
C4605 C4601 1.408 . S
C4605 C4604 1.404 . S
C4605 H4617 0.930 . S
C4606 C4602 1.524 1_556 S
C4606 H4618 0.956 . S
C4606 H4619 0.961 . S
C4606 H4620 0.961 . S
C4607 C4604 1.539 . S
C4607 H4621 0.958 . S
C4607 H4622 0.961 . S
C4607 H4623 0.960 . S
H4608 C4592 0.931 . S
H4609 C4597 0.929 . S
H4610 C4598 0.960 . S
H4611 C4598 0.962 . S
H4612 C4598 0.960 . S
H4613 C4599 0.961 . S
H4614 C4599 0.961 . S
H4615 C4599 0.961 . S
H4616 C4600 0.895 1_556 S
H4617 C4605 0.930 . S
H4618 C4606 0.956 . S
H4619 C4606 0.961 . S
H4620 C4606 0.961 . S
H4621 C4607 0.958 . S
H4622 C4607 0.961 . S
H4623 C4607 0.960 . S
C4624 C4625 1.391 . S
C4624 C4626 1.394 . S
C4624 H4640 0.931 . S
C4625 C4624 1.391 . S
C4625 C4629 1.376 . S
C4626 C4624 1.394 . S
C4626 C4627 1.369 . S
C4626 C4630 1.531 . S
C4627 C4626 1.369 . S
C4627 C4628 1.410 . S
C4627 C4635 1.503 . S
C4628 C4627 1.410 . S
C4628 C4629 1.392 . S
C4628 C4631 1.511 . S
C4629 C4625 1.376 . S
C4629 C4628 1.392 . S
C4629 H4641 0.929 . S
C4630 C4626 1.531 . S
C4630 H4642 0.960 . S
C4630 H4643 0.962 . S
C4630 H4644 0.960 . S
C4631 C4628 1.511 . S
C4631 H4645 0.961 . S
C4631 H4646 0.961 . S
C4631 H4647 0.961 . S
C4632 C4633 1.370 . S
C4632 C4634 1.363 . S
C4632 H4648 0.931 . S
C4633 C4632 1.370 . S
C4633 C4637 1.408 . S
C4634 C4632 1.363 . S
C4634 C4635 1.370 . S
C4634 C4638 1.524 . S
C4635 C4627 1.503 . S
C4635 C4634 1.370 . S
C4635 C4636 1.403 . S
C4636 C4635 1.403 . S
C4636 C4637 1.404 . S
C4636 C4639 1.539 . S
C4637 C4633 1.408 . S
C4637 C4636 1.404 . S
C4637 H4649 0.930 . S
C4638 C4634 1.524 . S
C4638 H4650 0.956 . S
C4638 H4651 0.961 . S
C4638 H4652 0.961 . S
C4639 C4636 1.539 . S
C4639 H4653 0.958 . S
C4639 H4654 0.961 . S
C4639 H4655 0.960 . S
H4640 C4624 0.931 . S
H4641 C4629 0.929 . S
H4642 C4630 0.960 . S
H4643 C4630 0.962 . S
H4644 C4630 0.960 . S
H4645 C4631 0.961 . S
H4646 C4631 0.961 . S
H4647 C4631 0.961 . S
H4648 C4632 0.931 . S
H4649 C4637 0.930 . S
H4650 C4638 0.956 . S
H4651 C4638 0.961 . S
H4652 C4638 0.961 . S
H4653 C4639 0.958 . S
H4654 C4639 0.961 . S
H4655 C4639 0.960 . S
C4656 C4657 1.391 . S
C4656 C4658 1.394 . S
C4656 H4672 0.931 . S
C4657 C4656 1.391 . S
C4657 C4661 1.376 . S
C4658 C4656 1.394 . S
C4658 C4659 1.369 . S
C4658 C4662 1.531 . S
C4659 C4658 1.369 . S
C4659 C4660 1.410 . S
C4659 C4667 1.503 . S
C4660 C4659 1.410 . S
C4660 C4661 1.392 . S
C4660 C4663 1.511 1_554 S
C4661 C4657 1.376 . S
C4661 C4660 1.392 . S
C4661 H4673 0.929 . S
C4662 C4658 1.531 . S
C4662 H4674 0.960 . S
C4662 H4675 0.962 . S
C4662 H4676 0.960 . S
C4663 C4660 1.511 1_556 S
C4663 H4677 0.961 . S
C4663 H4678 0.961 . S
C4663 H4679 0.961 . S
C4664 C4665 1.370 . S
C4664 C4666 1.363 . S
C4664 H4680 0.931 . S
C4665 C4664 1.370 . S
C4665 C4669 1.408 . S
C4666 C4664 1.363 . S
C4666 C4667 1.370 . S
C4666 C4670 1.524 . S
C4667 C4659 1.503 . S
C4667 C4666 1.370 . S
C4667 C4668 1.403 . S
C4668 C4667 1.403 . S
C4668 C4669 1.404 . S
C4668 C4671 1.539 . S
C4669 C4665 1.408 . S
C4669 C4668 1.404 . S
C4669 H4681 0.930 . S
C4670 C4666 1.524 . S
C4670 H4682 0.956 . S
C4670 H4683 0.961 . S
C4670 H4684 0.961 . S
C4671 C4668 1.539 . S
C4671 H4685 0.958 . S
C4671 H4686 0.961 . S
C4671 H4687 0.960 . S
H4672 C4656 0.931 . S
H4673 C4661 0.929 . S
H4674 C4662 0.960 . S
H4675 C4662 0.962 . S
H4676 C4662 0.960 . S
H4677 C4663 0.961 . S
H4678 C4663 0.961 . S
H4679 C4663 0.961 . S
H4680 C4664 0.931 . S
H4681 C4669 0.930 . S
H4682 C4670 0.956 . S
H4683 C4670 0.961 . S
H4684 C4670 0.961 . S
H4685 C4671 0.958 . S
H4686 C4671 0.961 . S
H4687 C4671 0.960 . S
C4688 C4689 1.391 . S
C4688 C4690 1.394 . S
C4688 H4704 0.931 . S
C4689 C4688 1.391 . S
C4689 C4693 1.376 . S
C4690 C4688 1.394 . S
C4690 C4691 1.369 . S
C4690 C4694 1.531 . S
C4691 C4690 1.369 . S
C4691 C4692 1.410 . S
C4691 C4699 1.503 . S
C4692 C4691 1.410 . S
C4692 C4693 1.392 . S
C4692 C4695 1.511 . S
C4693 C4689 1.376 . S
C4693 C4692 1.392 . S
C4693 H4705 0.929 . S
C4694 C4690 1.531 . S
C4694 H4706 0.960 . S
C4694 H4707 0.962 . S
C4694 H4708 0.960 . S
C4695 C4692 1.511 . S
C4695 H4709 0.961 . S
C4695 H4710 0.961 . S
C4695 H4711 0.961 . S
C4696 C4697 1.370 . S
C4696 C4698 1.363 . S
C4696 H4712 0.931 . S
C4697 C4696 1.370 . S
C4697 C4701 1.408 . S
C4698 C4696 1.363 . S
C4698 C4699 1.370 . S
C4698 C4702 1.524 . S
C4699 C4691 1.503 . S
C4699 C4698 1.370 . S
C4699 C4700 1.403 . S
C4700 C4699 1.403 . S
C4700 C4701 1.404 . S
C4700 C4703 1.539 . S
C4701 C4697 1.408 . S
C4701 C4700 1.404 . S
C4701 H4713 0.930 . S
C4702 C4698 1.524 . S
C4702 H4714 0.956 . S
C4702 H4715 0.961 . S
C4702 H4716 0.961 . S
C4703 C4700 1.539 . S
C4703 H4717 0.958 . S
C4703 H4718 0.961 . S
C4703 H4719 0.960 . S
H4704 C4688 0.931 . S
H4705 C4693 0.929 . S
H4706 C4694 0.960 . S
H4707 C4694 0.962 . S
H4708 C4694 0.960 . S
H4709 C4695 0.961 . S
H4710 C4695 0.961 . S
H4711 C4695 0.961 . S
H4712 C4696 0.931 . S
H4713 C4701 0.930 . S
H4714 C4702 0.956 . S
H4715 C4702 0.961 . S
H4716 C4702 0.961 . S
H4717 C4703 0.958 . S
H4718 C4703 0.961 . S
H4719 C4703 0.960 . S
C4720 C4721 1.391 . S
C4720 C4722 1.394 . S
C4720 H4736 0.931 . S
C4721 C4720 1.391 . S
C4721 C4725 1.376 . S
C4722 C4720 1.394 . S
C4722 C4723 1.369 . S
C4722 C4726 1.531 . S
C4723 C4722 1.369 . S
C4723 C4724 1.410 . S
C4723 C4731 1.503 . S
C4724 C4723 1.410 . S
C4724 C4725 1.392 . S
C4724 C4727 1.511 . S
C4725 C4721 1.376 . S
C4725 C4724 1.392 . S
C4725 H4737 0.929 . S
C4726 C4722 1.531 . S
C4726 H4738 0.960 . S
C4726 H4739 0.962 . S
C4726 H4740 0.960 . S
C4727 C4724 1.511 . S
C4727 H4741 0.961 . S
C4727 H4742 0.961 . S
C4727 H4743 0.961 . S
C4728 C4729 1.370 . S
C4728 C4730 1.363 . S
C4728 H4744 0.931 . S
C4729 C4728 1.370 . S
C4729 C4733 1.408 . S
C4730 C4728 1.363 . S
C4730 C4731 1.370 . S
C4730 C4734 1.524 . S
C4731 C4723 1.503 . S
C4731 C4730 1.370 . S
C4731 C4732 1.403 . S
C4732 C4731 1.403 . S
C4732 C4733 1.404 . S
C4732 C4735 1.539 . S
C4733 C4729 1.408 . S
C4733 C4732 1.404 . S
C4733 H4745 0.930 . S
C4734 C4730 1.524 . S
C4734 H4746 0.956 . S
C4734 H4747 0.961 . S
C4734 H4748 0.961 . S
C4735 C4732 1.539 . S
C4735 H4749 0.958 . S
C4735 H4750 0.961 . S
C4735 H4751 0.960 . S
H4736 C4720 0.931 . S
H4737 C4725 0.929 . S
H4738 C4726 0.960 . S
H4739 C4726 0.962 . S
H4740 C4726 0.960 . S
H4741 C4727 0.961 . S
H4742 C4727 0.961 . S
H4743 C4727 0.961 . S
H4744 C4728 0.931 . S
H4745 C4733 0.930 . S
H4746 C4734 0.956 . S
H4747 C4734 0.961 . S
H4748 C4734 0.961 . S
H4749 C4735 0.958 . S
H4750 C4735 0.961 . S
H4751 C4735 0.960 . S
C1681 C105 1.855 . S
C1689 C392 1.720 . S
C1713 C65 2.241 . S
C1721 C483 2.174 . S
C1745 C73 1.594 . S
C1753 C560 1.512 . S
C1785 C658 1.455 . S
C1777 C92 1.576 . S
C1809 C17 1.599 . S
C1817 C742 1.549 . S
C1849 C814 0.933 . S
C1841 C37 0.991 . S
C1881 C903 0.930 . S
C1873 C49 0.931 . S
C1905 C8 1.514 . S
C1913 C980 1.347 . S
C1945 C399 2.026 . S
C1937 C231 2.079 . S
C1969 C241 0.714 . S
C1977 C490 0.750 . S
C2009 C567 1.233 . S
C2001 C273 1.223 . S
C2041 C644 1.541 . S
C2033 C171 1.620 . S
C2065 C227 2.136 . S
C2073 C728 1.941 . S
C2105 C830 1.131 . S
C2097 C245 1.201 . S
C2137 C910 0.757 . S
C2129 C269 0.809 . S
C2169 C987 1.496 . S
C2161 C175 1.610 . S
C2201 C406 1.384 . S
C2193 C162 1.475 . S
C2225 C289 1.985 . S
C2233 C1071 1.902 1_556 S
C2265 C1159 2.218 . S
C2257 C330 2.388 . S
C2297 C1232 0.549 . S
C2289 C317 0.543 . S
C2321 C120 0.956 . S
C2329 C994 0.955 . S
C2353 C134 1.467 . S
C2361 C574 1.437 . S
C2385 C331 2.233 . S
C2393 C1323 2.158 . S
C2425 C1400 0.732 . S
C2417 C303 0.691 . S
C2457 C403 1.726 . S
C2449 C59 1.863 . S
C2489 C1418 2.206 . S
C2481 C107 2.254 . S
C2513 C91 1.629 . S
C2521 C571 1.576 . S
C2545 C78 1.609 . S
C2553 C1318 1.489 . S
C2585 C730 1.550 . S
C2577 C7 1.500 . S
C2609 C51 1.056 . S
C2617 C1162 0.942 . S
C2649 C914 0.978 . S
C2641 C31 0.942 . S
C2681 C1495 1.379 . S
C2673 C22 1.500 . S
C2713 C410 2.076 . S
C2705 C143 2.161 . S
C2745 C1402 0.761 . S
C2737 C315 0.748 . S
C2769 C115 1.275 . S
C2777 C578 1.226 . S
C2801 C287 1.670 . S
C2809 C1327 1.565 . S
C2833 C147 2.026 . S
C2841 C739 2.009 . S
C2873 C1155 1.170 . S
C2865 C311 1.245 . S
C2897 C119 0.874 . S
C2905 C898 0.844 . S
C2929 C283 1.674 . S
C2937 C1502 1.534 . S
C2961 C190 1.473 . S
C2969 C394 1.383 1_554 S
C2993 C177 2.006 . S
C3001 C1082 1.936 . S
C3025 C260 2.431 . S
C3033 C812 2.250 . S
C3057 C247 0.548 . S
C3065 C1243 0.615 . S
C3097 C1486 0.935 . S
C3089 C274 0.959 1_565 S
C3121 C218 1.480 . S
C3129 C562 1.454 . S
C3161 C662 2.180 . S
C3153 C261 2.262 . S
C3193 C487 0.740 . S
C3185 C205 0.730 . S
C3217 C77 1.858 . S
C3225 C1568 1.716 . S
C3257 C1407 2.175 . S
C3249 C93 2.241 . S
C3281 C101 1.598 . S
C3289 C1652 1.518 . S
C3313 C64 1.597 . S
C3321 C1330 1.480 . S
C3345 C45 1.590 . S
C3353 C1078 1.539 . S
C3385 C1150 0.942 . S
C3377 C9 1.024 . S
C3417 C1239 0.913 . S
C3409 C21 0.793 . S
C3449 C1484 1.330 . S
C3441 C36 1.528 . S
C3481 C1575 2.023 . S
C3473 C259 2.072 . S
C3505 C185 0.743 . S
C3513 C1414 0.738 . S
C3545 C1659 1.225 . S
C3537 C203 1.185 . S
C3577 C1316 1.541 . S
C3569 C213 1.620 . S
C3609 C1064 1.969 . S
C3601 C255 2.111 . S
C3633 C189 1.152 . S
C3641 C1166 1.162 . S
C3673 C1246 0.756 . S
C3665 C199 0.807 . S
C3697 C217 1.642 . S
C3705 C1491 1.524 . S
C3737 C1582 1.384 . S
C3729 C316 1.474 . S
C3761 C135 1.981 . S
C3769 C735 1.905 . S
C3801 C823 2.211 . S
C3793 C148 2.410 . S
C3833 C896 0.563 . S
C3825 C163 0.557 . S
C3865 C1498 0.948 . S
C3857 C302 0.927 . S
C3889 C288 1.482 1_554 S
C3897 C1666 1.458 . S
C3929 C651 2.141 . S
C3921 C149 2.222 . S
C3961 C476 0.740 . S
C3953 C121 0.695 . S
C3985 C87 1.856 . S
C3993 C1579 1.722 . S
C4025 C494 2.222 . S
C4017 C79 2.277 . S
C4049 C63 1.647 . S
C4057 C1663 1.546 . S
C4081 C106 1.611 . S
C4089 C646 1.506 . S
C4113 C35 1.568 . S
C4121 C1066 1.574 . S
C4153 C826 0.970 . S
C4145 C23 1.019 . S
C4177 C3 0.966 . S
C4185 C1250 0.982 . S
C4209 C50 1.516 . S
C4217 C991 1.367 . S
C4249 C1586 2.055 . S
C4241 C325 2.162 . S
C4273 C161 0.704 . S
C4281 C478 0.721 . S
C4313 C1670 1.234 . S
C4305 C297 1.294 . S
C4337 C133 1.646 . S
C4345 C655 1.601 . S
C4369 C329 2.040 . S
C4377 C1075 1.994 . S
C4409 C819 1.182 . S
C4401 C157 1.254 . S
C4433 C301 0.812 . S
C4441 C1234 0.796 1_655 S
C4473 C998 1.530 . S
C4465 C129 1.670 . S
C4505 C1570 1.397 . S
C4497 C246 1.483 . S
C4537 C746 1.956 1_665 S
C4529 C219 2.024 . S
C4561 C232 2.424 . S
C4569 C1148 2.250 . S
C4601 C907 0.628 . S
C4593 C191 0.563 . S
C4625 C204 0.955 . S
C4633 C982 0.934 . S
C4657 C176 1.463 . S
C4665 C1654 1.444 1_554 S
C4697 C1334 2.186 . S
C4689 C233 2.252 1_565 S
C4729 C1411 0.720 . S
C4721 C275 0.719 . S
