# Generated by pormake.
# Topology ocu, (6,8)-cn, num edge types: 1
# Building blocks:
#     Node 0, Type 0, BuildingBlock: CUKXOW_clean_sbu_0, # of connection points: 6
#     Node 1, Type 0, BuildingBlock: CUKXOW_clean_sbu_0, # of connection points: 6
#     Node 2, Type 0, BuildingBlock: CUKXOW_clean_sbu_0, # of connection points: 6
#     Node 3, Type 0, BuildingBlock: CUKXOW_clean_sbu_0, # of connection points: 6
#     Node 4, Type 0, BuildingBlock: CUKXOW_clean_sbu_0, # of connection points: 6
#     Node 5, Type 0, BuildingBlock: CUKXOW_clean_sbu_0, # of connection points: 6
#     Node 6, Type 0, BuildingBlock: CUKXOW_clean_sbu_0, # of connection points: 6
#     Node 7, Type 0, BuildingBlock: CUKXOW_clean_sbu_0, # of connection points: 6
#     Node 8, Type 1, BuildingBlock: TAGTUT_clean_sbu_1, # of connection points: 8
#     Node 9, Type 1, BuildingBlock: TAGTUT_clean_sbu_1, # of connection points: 8
#     Node 10, Type 1, BuildingBlock: TAGTUT_clean_sbu_1, # of connection points: 8
#     Node 11, Type 1, BuildingBlock: TAGTUT_clean_sbu_1, # of connection points: 8
#     Node 12, Type 1, BuildingBlock: TAGTUT_clean_sbu_1, # of connection points: 8
#     Node 13, Type 1, BuildingBlock: TAGTUT_clean_sbu_1, # of connection points: 8
#     Edge 14, Type (0, 1), BuildingBlock: XUDNAN_clean_linker_2, # of connection points: 2
#     Edge 15, Type (0, 1), BuildingBlock: XUDNAN_clean_linker_2, # of connection points: 2
#     Edge 16, Type (0, 1), BuildingBlock: XUDNAN_clean_linker_2, # of connection points: 2
#     Edge 17, Type (0, 1), BuildingBlock: XUDNAN_clean_linker_2, # of connection points: 2
#     Edge 18, Type (0, 1), BuildingBlock: XUDNAN_clean_linker_2, # of connection points: 2
#     Edge 19, Type (0, 1), BuildingBlock: XUDNAN_clean_linker_2, # of connection points: 2
#     Edge 20, Type (0, 1), BuildingBlock: XUDNAN_clean_linker_2, # of connection points: 2
#     Edge 21, Type (0, 1), BuildingBlock: XUDNAN_clean_linker_2, # of connection points: 2
#     Edge 22, Type (0, 1), BuildingBlock: XUDNAN_clean_linker_2, # of connection points: 2
#     Edge 23, Type (0, 1), BuildingBlock: XUDNAN_clean_linker_2, # of connection points: 2
#     Edge 24, Type (0, 1), BuildingBlock: XUDNAN_clean_linker_2, # of connection points: 2
#     Edge 25, Type (0, 1), BuildingBlock: XUDNAN_clean_linker_2, # of connection points: 2
#     Edge 26, Type (0, 1), BuildingBlock: XUDNAN_clean_linker_2, # of connection points: 2
#     Edge 27, Type (0, 1), BuildingBlock: XUDNAN_clean_linker_2, # of connection points: 2
#     Edge 28, Type (0, 1), BuildingBlock: XUDNAN_clean_linker_2, # of connection points: 2
#     Edge 29, Type (0, 1), BuildingBlock: XUDNAN_clean_linker_2, # of connection points: 2
#     Edge 30, Type (0, 1), BuildingBlock: XUDNAN_clean_linker_2, # of connection points: 2
#     Edge 31, Type (0, 1), BuildingBlock: XUDNAN_clean_linker_2, # of connection points: 2
#     Edge 32, Type (0, 1), BuildingBlock: XUDNAN_clean_linker_2, # of connection points: 2
#     Edge 33, Type (0, 1), BuildingBlock: XUDNAN_clean_linker_2, # of connection points: 2
#     Edge 34, Type (0, 1), BuildingBlock: XUDNAN_clean_linker_2, # of connection points: 2
#     Edge 35, Type (0, 1), BuildingBlock: XUDNAN_clean_linker_2, # of connection points: 2
#     Edge 36, Type (0, 1), BuildingBlock: XUDNAN_clean_linker_2, # of connection points: 2
#     Edge 37, Type (0, 1), BuildingBlock: XUDNAN_clean_linker_2, # of connection points: 2
#     Edge 38, Type (0, 1), BuildingBlock: XUDNAN_clean_linker_2, # of connection points: 2
#     Edge 39, Type (0, 1), BuildingBlock: XUDNAN_clean_linker_2, # of connection points: 2
#     Edge 40, Type (0, 1), BuildingBlock: XUDNAN_clean_linker_2, # of connection points: 2
#     Edge 41, Type (0, 1), BuildingBlock: XUDNAN_clean_linker_2, # of connection points: 2
#     Edge 42, Type (0, 1), BuildingBlock: XUDNAN_clean_linker_2, # of connection points: 2
#     Edge 43, Type (0, 1), BuildingBlock: XUDNAN_clean_linker_2, # of connection points: 2
#     Edge 44, Type (0, 1), BuildingBlock: XUDNAN_clean_linker_2, # of connection points: 2
#     Edge 45, Type (0, 1), BuildingBlock: XUDNAN_clean_linker_2, # of connection points: 2
#     Edge 46, Type (0, 1), BuildingBlock: XUDNAN_clean_linker_2, # of connection points: 2
#     Edge 47, Type (0, 1), BuildingBlock: XUDNAN_clean_linker_2, # of connection points: 2
#     Edge 48, Type (0, 1), BuildingBlock: XUDNAN_clean_linker_2, # of connection points: 2
#     Edge 49, Type (0, 1), BuildingBlock: XUDNAN_clean_linker_2, # of connection points: 2
#     Edge 50, Type (0, 1), BuildingBlock: XUDNAN_clean_linker_2, # of connection points: 2
#     Edge 51, Type (0, 1), BuildingBlock: XUDNAN_clean_linker_2, # of connection points: 2
#     Edge 52, Type (0, 1), BuildingBlock: XUDNAN_clean_linker_2, # of connection points: 2
#     Edge 53, Type (0, 1), BuildingBlock: XUDNAN_clean_linker_2, # of connection points: 2
#     Edge 54, Type (0, 1), BuildingBlock: XUDNAN_clean_linker_2, # of connection points: 2
#     Edge 55, Type (0, 1), BuildingBlock: XUDNAN_clean_linker_2, # of connection points: 2
#     Edge 56, Type (0, 1), BuildingBlock: XUDNAN_clean_linker_2, # of connection points: 2
#     Edge 57, Type (0, 1), BuildingBlock: XUDNAN_clean_linker_2, # of connection points: 2
#     Edge 58, Type (0, 1), BuildingBlock: XUDNAN_clean_linker_2, # of connection points: 2
#     Edge 59, Type (0, 1), BuildingBlock: XUDNAN_clean_linker_2, # of connection points: 2
#     Edge 60, Type (0, 1), BuildingBlock: XUDNAN_clean_linker_2, # of connection points: 2
#     Edge 61, Type (0, 1), BuildingBlock: XUDNAN_clean_linker_2, # of connection points: 2
# Relax obj value: 0.096
# Max RMSD: 0.233
# Mean RMSD: 0.141
data_MOF--net-ocu--node1-CUKXOW_clean_sbu_0--node2-TAGTUT_clean_sbu_1--edge1-XUDNAN_clean_linker_2
_symmetry_space_group_name_H-M    P1
_symmetry_Int_Tables_number       1
_symmetry_cell_setting            triclinic
loop_
_symmetry_equiv_pos_as_xyz
'x, y, z'
_cell_length_a     36.585973
_cell_length_b     37.078659
_cell_length_c     39.277057
_cell_angle_alpha  92.507469
_cell_angle_beta   94.101321
_cell_angle_gamma 98.195437
loop_
_atom_site_label
_atom_site_type_symbol
_atom_site_fract_x
_atom_site_fract_y
_atom_site_fract_z
_atom_type_partial_charge
Tb0 Tb 0.26164 0.21254 0.21405 0.0
C1 C 0.32133 0.2843 0.2107 0.0
Tb2 Tb 0.26985 0.26792 0.2727 0.0
O3 O 0.24393 0.25092 0.17855 0.0
O4 O 0.23046 0.25495 0.22923 0.0
O5 O 0.30951 0.25023 0.19848 0.0
C6 C 0.26061 0.32177 0.31643 0.0
O7 O 0.30858 0.2976 0.2389 0.0
C8 C 0.31649 0.22103 0.28655 0.0
C9 C 0.21101 0.19533 0.27675 0.0
O10 O 0.25803 0.28766 0.32279 0.0
O11 O 0.26797 0.326 0.28487 0.0
O12 O 0.31338 0.24923 0.30611 0.0
O13 O 0.29485 0.2218 0.26016 0.0
O14 O 0.22323 0.22927 0.28921 0.0
O15 O 0.22276 0.18249 0.24775 0.0
C16 C 0.2684 0.15791 0.17006 0.0
O17 O 0.23803 0.17166 0.17349 0.0
O18 O 0.29395 0.17385 0.19256 0.0
C19 C 0.22974 0.27033 0.20085 0.0
Tb20 Tb 0.72938 0.21797 0.25682 0.0
C21 C 0.74558 0.20056 0.18214 0.0
Tb22 Tb 0.79288 0.26135 0.23091 0.0
O23 O 0.69039 0.23609 0.21862 0.0
O24 O 0.73776 0.27125 0.23677 0.0
O25 O 0.73334 0.18602 0.21003 0.0
C26 C 0.84391 0.30472 0.20164 0.0
O27 O 0.76697 0.23258 0.18366 0.0
C28 C 0.81202 0.21253 0.27339 0.0
C29 C 0.77531 0.28092 0.3043 0.0
O30 O 0.84354 0.27002 0.20444 0.0
O31 O 0.81495 0.31478 0.21419 0.0
O32 O 0.83111 0.24412 0.27012 0.0
O33 O 0.78462 0.20802 0.25115 0.0
O34 O 0.78796 0.29473 0.27632 0.0
O35 O 0.75533 0.24813 0.30382 0.0
C36 C 0.67908 0.17197 0.28463 0.0
O37 O 0.68142 0.20722 0.28721 0.0
O38 O 0.70585 0.1629 0.26787 0.0
C39 C 0.71015 0.2672 0.21487 0.0
Tb40 Tb 0.7487 0.78602 0.2273 0.0
C41 C 0.72426 0.71214 0.18511 0.0
Tb42 Tb 0.77072 0.71639 0.25714 0.0
O43 O 0.78324 0.78379 0.18387 0.0
O44 O 0.79579 0.75869 0.22878 0.0
O45 O 0.71951 0.74687 0.18852 0.0
C46 C 0.8073 0.66017 0.26229 0.0
O47 O 0.74283 0.6955 0.20826 0.0
C48 C 0.71692 0.74307 0.28643 0.0
C49 C 0.79612 0.78976 0.29903 0.0
O50 O 0.77181 0.65848 0.26501 0.0
O51 O 0.82193 0.69347 0.25826 0.0
O52 O 0.73861 0.72283 0.30188 0.0
O53 O 0.72348 0.74318 0.25518 0.0
O54 O 0.80227 0.75565 0.29404 0.0
O55 O 0.77548 0.80629 0.2773 0.0
C56 C 0.70941 0.84044 0.22183 0.0
O57 O 0.74543 0.84426 0.22251 0.0
O58 O 0.69607 0.80626 0.22262 0.0
C59 C 0.8027 0.76058 0.19768 0.0
Tb60 Tb 0.28377 0.7788 0.23067 0.0
C61 C 0.30365 0.77183 0.31113 0.0
Tb62 Tb 0.24799 0.71254 0.26657 0.0
O63 O 0.23108 0.8007 0.23032 0.0
O64 O 0.24576 0.76951 0.26861 0.0
O65 O 0.31096 0.7885 0.28246 0.0
C66 C 0.18753 0.67548 0.28603 0.0
O67 O 0.27932 0.74146 0.31164 0.0
C68 C 0.30388 0.69496 0.23284 0.0
C69 C 0.23725 0.71528 0.18607 0.0
O70 O 0.18849 0.70356 0.26749 0.0
O71 O 0.22086 0.66865 0.2948 0.0
O72 O 0.28386 0.67214 0.25081 0.0
O73 O 0.29241 0.72515 0.23718 0.0
O74 O 0.22177 0.70566 0.21443 0.0
O75 O 0.26541 0.74202 0.1861 0.0
C76 C 0.3298 0.83396 0.21124 0.0
O77 O 0.33968 0.80785 0.229 0.0
O78 O 0.29444 0.82805 0.20301 0.0
C79 C 0.22043 0.78701 0.25846 0.0
Tb80 Tb 0.23186 0.72133 0.75818 0.0
C81 C 0.24581 0.70647 0.68267 0.0
Tb82 Tb 0.29466 0.76517 0.73275 0.0
O83 O 0.19213 0.74025 0.72132 0.0
O84 O 0.23961 0.7754 0.73929 0.0
O85 O 0.23483 0.69066 0.71039 0.0
C86 C 0.34514 0.81216 0.70635 0.0
O87 O 0.26714 0.73863 0.68489 0.0
C88 C 0.31477 0.71492 0.77358 0.0
C89 C 0.27899 0.78198 0.80743 0.0
O90 O 0.34201 0.77697 0.7017 0.0
O91 O 0.31905 0.82062 0.72432 0.0
O92 O 0.33401 0.74635 0.77014 0.0
O93 O 0.28695 0.71106 0.75181 0.0
O94 O 0.29037 0.79695 0.77948 0.0
O95 O 0.25851 0.74938 0.8058 0.0
C96 C 0.18171 0.6749 0.78554 0.0
O97 O 0.18454 0.71012 0.78919 0.0
O98 O 0.20796 0.66602 0.76796 0.0
C99 C 0.2115 0.77161 0.71786 0.0
Tb100 Tb 0.24148 0.27288 0.72913 0.0
C101 C 0.22039 0.19237 0.70384 0.0
Tb102 Tb 0.27728 0.21646 0.76815 0.0
O103 O 0.26776 0.25986 0.68216 0.0
O104 O 0.29309 0.25287 0.72997 0.0
O105 O 0.20857 0.22445 0.70528 0.0
C106 C 0.31977 0.16531 0.77878 0.0
O107 O 0.24771 0.18425 0.7246 0.0
C108 C 0.22405 0.2425 0.79922 0.0
C109 C 0.2965 0.29674 0.79486 0.0
O110 O 0.28495 0.1622 0.78478 0.0
O111 O 0.33073 0.19764 0.76889 0.0
O112 O 0.25095 0.22886 0.81521 0.0
O113 O 0.22572 0.23653 0.76736 0.0
O114 O 0.30894 0.26493 0.79324 0.0
O115 O 0.26901 0.30457 0.77405 0.0
C116 C 0.20209 0.32527 0.71335 0.0
O117 O 0.238 0.32866 0.71489 0.0
O118 O 0.18844 0.29221 0.71948 0.0
C119 C 0.2947 0.24654 0.6982 0.0
Tb120 Tb 0.79782 0.2726 0.72524 0.0
C121 C 0.80544 0.28748 0.8046 0.0
Tb122 Tb 0.74374 0.22732 0.76718 0.0
O123 O 0.77887 0.32453 0.73869 0.0
O124 O 0.74387 0.27605 0.74151 0.0
O125 O 0.82285 0.28979 0.77619 0.0
C126 C 0.68852 0.20221 0.80328 0.0
O127 O 0.7733 0.26643 0.8066 0.0
C128 C 0.79195 0.18951 0.73984 0.0
C129 C 0.73342 0.21701 0.68698 0.0
O130 O 0.72342 0.20419 0.81325 0.0
O131 O 0.6847 0.21437 0.77303 0.0
O132 O 0.76157 0.17539 0.75228 0.0
O133 O 0.7968 0.22304 0.74965 0.0
O134 O 0.71684 0.21351 0.7159 0.0
O135 O 0.76612 0.23694 0.68515 0.0
C136 C 0.85597 0.29123 0.69054 0.0
O137 O 0.82196 0.29355 0.67982 0.0
O138 O 0.85736 0.27932 0.721 0.0
C139 C 0.74804 0.30982 0.75022 0.0
Tb140 Tb 0.75993 0.72005 0.73039 0.0
C141 C 0.81738 0.79101 0.71547 0.0
Tb142 Tb 0.77265 0.78571 0.78139 0.0
O143 O 0.72074 0.73865 0.69194 0.0
O144 O 0.74242 0.77135 0.73427 0.0
O145 O 0.80828 0.75473 0.71138 0.0
C146 C 0.75931 0.83953 0.82364 0.0
O147 O 0.80281 0.81014 0.73925 0.0
C148 C 0.81597 0.73504 0.79305 0.0
C149 C 0.7119 0.71552 0.79494 0.0
O150 O 0.79073 0.82727 0.82291 0.0
O151 O 0.73625 0.82238 0.79977 0.0
O152 O 0.82578 0.76965 0.80095 0.0
O153 O 0.7825 0.73075 0.78155 0.0
O154 O 0.72668 0.75015 0.80374 0.0
O155 O 0.72235 0.69761 0.76804 0.0
C156 C 0.77164 0.65838 0.70008 0.0
O157 O 0.73936 0.66888 0.70132 0.0
O158 O 0.79704 0.68279 0.71567 0.0
C159 C 0.72157 0.7706 0.70715 0.0
C160 C 0.91502 0.07677 0.55156 0.0
C161 C 0.93522 0.06997 0.44224 0.0
C162 C 0.95093 0.92733 0.46642 0.0
Mg163 Mg 0.98587 0.07958 0.51066 0.0
O164 O 0.97759 0.02861 0.51499 0.0
Mg165 Mg 0.92697 0.00276 0.4988 0.0
Mg166 Mg 1.01056 0.99424 0.49576 0.0
O167 O 0.04399 0.96016 0.47712 0.0
Mg168 Mg 0.03575 0.90943 0.48283 0.0
Mg169 Mg 0.09449 0.98609 0.49486 0.0
C170 C 0.07003 0.06015 0.52831 0.0
C171 C 0.06492 0.04 0.43805 0.0
O172 O 0.90329 0.04584 0.53505 0.0
O173 O 0.94721 0.09441 0.54764 0.0
O174 O 0.92119 0.03953 0.45327 0.0
O175 O 0.96247 0.0901 0.4592 0.0
O176 O 0.04655 0.08294 0.52401 0.0
O177 O 0.0608 0.02542 0.52459 0.0
C178 C 0.95815 0.95014 0.55515 0.0
O179 O 0.9904 0.95523 0.54263 0.0
O180 O 0.93187 0.9662 0.54306 0.0
O181 O 0.11833 0.94403 0.45831 0.0
O182 O 0.07409 0.89547 0.44603 0.0
O183 O 0.10047 0.94758 0.54001 0.0
C184 C 0.10615 0.91321 0.44184 0.0
O185 O 0.05958 0.8969 0.53327 0.0
O186 O 0.97509 0.90538 0.47125 0.0
C187 C 0.08697 0.91654 0.55033 0.0
O188 O 0.95935 0.96229 0.46789 0.0
O189 O 0.03154 0.03288 0.44817 0.0
O190 O 0.09124 0.02508 0.45182 0.0
C191 C 0.3939 0.067 0.98636 0.0
C192 C 0.45229 0.02915 0.90304 0.0
C193 C 0.46338 0.91351 0.97461 0.0
Mg194 Mg 0.47722 0.07046 0.9725 0.0
O195 O 0.46861 0.02629 0.99389 0.0
Mg196 Mg 0.42712 0.98811 0.97402 0.0
Mg197 Mg 0.50854 0.99549 -0.00302 0.0
O198 O 0.54838 0.96462 -1e-05 0.0
Mg199 Mg 0.5404 0.91937 0.02012 0.0
Mg200 Mg 0.58946 0.00247 0.0209 0.0
C201 C 0.55364 0.07671 0.01901 0.0
C202 C 0.56789 0.02444 0.94449 0.0
O203 O 0.38952 0.03213 0.98149 0.0
O204 O 0.42535 0.08711 0.98492 0.0
O205 O 0.43351 0.00459 0.91906 0.0
O206 O 0.4739 0.05578 0.91869 0.0
O207 O 0.53116 0.0925 8e-05 0.0
O208 O 0.5471 0.04257 0.02441 0.0
C209 C 0.45066 0.97302 0.05255 0.0
O210 O 0.48477 0.978 0.04621 0.0
O211 O 0.42448 0.97449 0.02942 0.0
O212 O 0.62749 0.95897 0.01178 0.0
O213 O 0.59179 0.90388 0.00567 0.0
O214 O 0.58233 0.98406 0.07481 0.0
C215 C 0.62312 0.92435 0.005 0.0
O216 O 0.54543 0.93075 0.07465 0.0
O217 O 0.48638 0.8975 0.99271 0.0
C218 C 0.56546 0.9582 0.09064 0.0
O219 O 0.4694 0.94793 0.9703 0.0
O220 O 0.53333 0.01556 0.94831 0.0
O221 O 0.59317 0.02062 0.96771 0.0
C222 C 0.94135 0.6078 0.05326 0.0
C223 C 0.94736 0.58232 0.94512 0.0
C224 C 0.94755 0.4389 0.97944 0.0
Mg225 Mg 1.00559 0.59214 0.00752 0.0
O226 O 0.99182 0.54417 0.0196 0.0
Mg227 Mg 0.93813 0.52373 0.01064 0.0
Mg228 Mg 0.01708 0.50238 0.00236 0.0
O229 O 0.04252 0.4605 0.98522 0.0
Mg230 Mg 0.02885 0.41149 0.99378 0.0
Mg231 Mg 0.09635 0.48079 0.99269 0.0
C232 C 0.08707 0.56561 0.02175 0.0
C233 C 0.05587 0.52508 0.93413 0.0
O234 O 0.92351 0.57585 0.04368 0.0
O235 O 0.97379 0.61845 0.04357 0.0
O236 O 0.93041 0.55569 0.96045 0.0
O237 O 0.97888 0.59909 0.95733 0.0
O238 O 0.06559 0.59001 0.01668 0.0
O239 O 0.07459 0.53119 0.02166 0.0
C240 C 0.97586 0.47828 0.06952 0.0
O241 O 1.00478 0.47777 0.05295 0.0
O242 O 0.94843 0.49377 0.05869 0.0
O243 O 0.11077 0.42992 0.95865 0.0
O244 O 0.05965 0.38792 0.95461 0.0
O245 O 0.10597 0.4474 0.04208 0.0
C246 C 0.09253 0.39917 0.94632 0.0
O247 O 0.05707 0.40377 0.0435 0.0
O248 O 0.96867 0.41401 0.98375 0.0
C249 C 0.08864 0.42009 0.0563 0.0
O250 O 0.96029 0.47332 0.98237 0.0
O251 O 0.02795 0.52692 0.95157 0.0
O252 O 0.08368 0.50994 0.94453 0.0
C253 C 0.42697 0.58146 0.04819 0.0
C254 C 0.44162 0.57052 0.94038 0.0
C255 C 0.45696 0.42955 0.96284 0.0
Mg256 Mg 0.49538 0.57767 0.0053 0.0
O257 O 0.4855 0.52848 0.01657 0.0
Mg258 Mg 0.43403 0.50408 -0.00052 0.0
Mg259 Mg 0.51778 0.49401 -0.00332 0.0
O260 O 0.54978 0.45972 0.97532 0.0
Mg261 Mg 0.54152 0.4082 0.97594 0.0
Mg262 Mg 0.60093 0.48464 0.99094 0.0
C263 C 0.57927 0.55955 0.02367 0.0
C264 C 0.56879 0.54073 0.93867 0.0
O265 O 0.41239 0.54908 0.03618 0.0
O266 O 0.45876 0.59663 0.04023 0.0
O267 O 0.42684 0.54154 0.95354 0.0
O268 O 0.47157 0.58868 0.95449 0.0
O269 O 0.55548 0.58141 0.01713 0.0
O270 O 0.5705 0.52466 0.02407 0.0
C271 C 0.46417 0.44818 0.05437 0.0
O272 O 0.4971 0.45422 0.04311 0.0
O273 O 0.43818 0.46483 0.04239 0.0
O274 O 0.62343 0.44412 0.95178 0.0
O275 O 0.57989 0.39574 0.93727 0.0
O276 O 0.6071 0.44461 0.03443 0.0
C277 C 0.61183 0.41419 0.93373 0.0
O278 O 0.56588 0.39405 0.02583 0.0
O279 O 0.48039 0.4064 0.96459 0.0
C280 C 0.59322 0.41315 0.0436 0.0
O281 O 0.46649 0.46408 0.96851 0.0
O282 O 0.53687 0.53466 0.95152 0.0
O283 O 0.5953 0.52392 0.94889 0.0
C284 C 0.88718 0.56317 0.51334 0.0
C285 C 0.93439 0.54714 0.41612 0.0
C286 C 0.96327 0.42532 0.45637 0.0
Mg287 Mg 0.96579 0.57857 0.48718 0.0
O288 O 0.96412 0.5311 0.50324 0.0
Mg289 Mg 0.92343 0.49284 0.48196 0.0
Mg290 Mg 1.00564 0.50534 0.49197 0.0
O291 O 0.04709 0.47962 0.48005 0.0
Mg292 Mg 0.04549 0.43029 0.49024 0.0
Mg293 Mg 0.08756 0.51708 0.50275 0.0
C294 C 0.0477 0.58556 0.52244 0.0
C295 C 0.04958 0.54716 0.43524 0.0
O296 O 0.88465 0.52929 0.50403 0.0
O297 O 0.91575 0.58668 0.50958 0.0
O298 O 0.92012 0.51963 0.43131 0.0
O299 O 0.95562 0.57356 0.4323 0.0
O300 O 0.02127 0.60198 0.51039 0.0
O301 O 0.04472 0.5506 0.52152 0.0
C302 C 0.96233 0.45979 0.54733 0.0
O303 O 0.99403 0.47342 0.53843 0.0
O304 O 0.93191 0.46454 0.53102 0.0
O305 O 0.1271 0.4816 0.48051 0.0
O306 O 0.0976 0.42408 0.46986 0.0
O307 O 0.08866 0.48718 0.55262 0.0
C308 C 0.12616 0.44852 0.46924 0.0
O309 O 0.05402 0.43217 0.54498 0.0
O310 O 0.99025 0.4077 0.46447 0.0
C311 C 0.07392 0.45728 0.56423 0.0
O312 O 0.96635 0.45993 0.46258 0.0
O313 O 0.01755 0.53628 0.4451 0.0
O314 O 0.07974 0.54335 0.45252 0.0
C315 C 0.43325 0.09559 0.55206 0.0
C316 C 0.44221 0.07145 0.44196 0.0
C317 C 0.44595 0.9292 0.48007 0.0
Mg318 Mg 0.49846 0.08425 0.50597 0.0
O319 O 0.48629 0.03562 0.51667 0.0
Mg320 Mg 0.43318 0.01333 0.50759 0.0
Mg321 Mg 0.51294 0.99542 0.49859 0.0
O322 O 0.54001 0.95539 0.48066 0.0
Mg323 Mg 0.5293 0.90624 0.48997 0.0
Mg324 Mg 0.59301 0.97821 0.48857 0.0
C325 C 0.58079 0.06095 0.51947 0.0
C326 C 0.55021 0.02087 0.43036 0.0
O327 O 0.41644 0.06384 0.54073 0.0
O328 O 0.46567 0.10805 0.54334 0.0
O329 O 0.42424 0.04536 0.45727 0.0
O330 O 0.47333 0.0885 0.45478 0.0
O331 O 0.55872 0.0849 0.51535 0.0
O332 O 0.56938 0.02636 0.51825 0.0
C333 C 0.4749 0.97023 0.56635 0.0
O334 O 0.50323 0.96981 0.54911 0.0
O335 O 0.44639 0.98446 0.55598 0.0
O336 O 0.60933 0.92853 0.4539 0.0
O337 O 0.55973 0.88463 0.44978 0.0
O338 O 0.60381 0.94654 0.53836 0.0
C339 C 0.59208 0.89745 0.44124 0.0
O340 O 0.55862 0.89922 0.53893 0.0
O341 O 0.46886 0.90595 0.48401 0.0
C342 C 0.58863 0.91807 0.55235 0.0
O343 O 0.45661 0.9639 0.47925 0.0
O344 O 0.52206 0.0211 0.44783 0.0
O345 O 0.57892 0.00703 0.44063 0.0
H346 H 0.20969 0.185 0.34695 0.0
H347 H 0.1483 0.14954 0.25012 0.0
H348 H 0.10152 0.1107 0.28044 0.0
H349 H 0.19545 0.09591 0.3824 0.0
H350 H 0.19259 0.11347 0.42551 0.0
H351 H 0.21929 0.14059 0.3965 0.0
H352 H 0.18154 0.19327 0.40696 0.0
H353 H 0.15453 0.1663 0.43593 0.0
H354 H 0.13176 0.18487 0.39992 0.0
H355 H 0.05883 0.07558 0.3236 0.0
H356 H 0.03238 0.04202 0.37182 0.0
H357 H 0.12464 0.09502 0.43975 0.0
C358 C 0.18622 0.16932 0.33209 0.0
C359 C 0.18275 0.17115 0.29578 0.0
C360 C 0.15187 0.14915 0.2777 0.0
C361 C 0.12489 0.12696 0.2949 0.0
C362 C 0.12903 0.12588 0.3306 0.0
C363 C 0.15951 0.14602 0.34888 0.0
C364 C 0.1592 0.13789 0.38673 0.0
C365 C 0.19367 0.12095 0.39847 0.0
C366 C 0.15661 0.17265 0.40868 0.0
C367 C 0.12383 0.11031 0.38708 0.0
C368 C 0.10628 0.10423 0.35459 0.0
C369 C 0.07271 0.08026 0.34901 0.0
C370 C 0.05745 0.06146 0.37677 0.0
C371 C 0.07577 0.06585 0.41008 0.0
C372 C 0.10939 0.09108 0.41488 0.0
H373 H 0.87454 0.22043 0.31741 0.0
H374 H 0.78076 0.14086 0.2783 0.0
H375 H 0.80474 0.09446 0.31402 0.0
H376 H 0.94279 0.15763 0.32118 0.0
H377 H 0.96702 0.17918 0.36002 0.0
H378 H 0.94318 0.20569 0.33075 0.0
H379 H 0.90657 0.22633 0.37952 0.0
H380 H 0.92906 0.19961 0.40919 0.0
H381 H 0.87918 0.19298 0.4029 0.0
H382 H 0.83876 0.05713 0.35549 0.0
H383 H 0.87682 0.03318 0.40101 0.0
H384 H 0.94883 0.13735 0.41346 0.0
C385 C 0.85906 0.19318 0.31623 0.0
C386 C 0.82572 0.18424 0.29487 0.0
C387 C 0.80631 0.14834 0.29431 0.0
C388 C 0.81985 0.1218 0.31446 0.0
C389 C 0.85295 0.13149 0.33504 0.0
C390 C 0.87223 0.16641 0.33612 0.0
C391 C 0.90664 0.17008 0.36095 0.0
C392 C 0.942 0.17865 0.34209 0.0
C393 C 0.90521 0.19894 0.38989 0.0
C394 C 0.9033 0.13214 0.37443 0.0
C395 C 0.87239 0.11014 0.35883 0.0
C396 C 0.86299 0.07423 0.36773 0.0
C397 C 0.88498 0.06085 0.39376 0.0
C398 C 0.91608 0.08328 0.41118 0.0
C399 C 0.92558 0.11927 0.40068 0.0
H400 H 0.81475 0.86309 0.31333 0.0
H401 H 0.80558 0.75842 0.35949 0.0
H402 H 0.82734 0.78912 0.41549 0.0
H403 H 0.89733 0.89662 0.35088 0.0
H404 H 0.8897 0.94333 0.3575 0.0
H405 H 0.86293 0.9147 0.32409 0.0
H406 H 0.80266 0.92853 0.34978 0.0
H407 H 0.82973 0.95681 0.38379 0.0
H408 H 0.79562 0.91947 0.39372 0.0
H409 H 0.86138 0.82703 0.46183 0.0
H410 H 0.91424 0.86711 0.49183 0.0
H411 H 0.9038 0.94873 0.41764 0.0
C412 C 0.81653 0.84692 0.33552 0.0
C413 C 0.80881 0.80856 0.33228 0.0
C414 C 0.81194 0.78792 0.36148 0.0
C415 C 0.82351 0.80517 0.39351 0.0
C416 C 0.83189 0.84308 0.39592 0.0
C417 C 0.82882 0.86378 0.36765 0.0
C418 C 0.84649 0.90296 0.37568 0.0
C419 C 0.87587 0.91505 0.35059 0.0
C420 C 0.81685 0.92845 0.37575 0.0
C421 C 0.86359 0.89996 0.41155 0.0
C422 C 0.85287 0.86569 0.42341 0.0
C423 C 0.86928 0.85422 0.45335 0.0
C424 C 0.89934 0.87707 0.47018 0.0
C425 C 0.91269 0.91072 0.45678 0.0
C426 C 0.89319 0.92342 0.42863 0.0
H427 H 0.15829 0.77314 0.29543 0.0
H428 H 0.25219 0.85476 0.28037 0.0
H429 H 0.23433 0.89462 0.32637 0.0
H430 H 0.09423 0.83807 0.31246 0.0
H431 H 0.07176 0.81147 0.34442 0.0
H432 H 0.09184 0.78911 0.31025 0.0
H433 H 0.13138 0.75852 0.35457 0.0
H434 H 0.11169 0.781 0.38894 0.0
H435 H 0.16123 0.78654 0.38695 0.0
H436 H 0.20759 0.9253 0.37467 0.0
H437 H 0.17143 0.94678 0.42 0.0
H438 H 0.09281 0.84694 0.40384 0.0
C439 C 0.1746 0.79966 0.30155 0.0
C440 C 0.2062 0.81126 0.28385 0.0
C441 C 0.2274 0.84578 0.29305 0.0
C442 C 0.21763 0.8685 0.31933 0.0
C443 C 0.18634 0.85653 0.33627 0.0
C444 C 0.16485 0.82312 0.32762 0.0
C445 C 0.13234 0.81733 0.34989 0.0
C446 C 0.09535 0.81379 0.32794 0.0
C447 C 0.13429 0.78386 0.37136 0.0
C448 C 0.13906 0.85259 0.37231 0.0
C449 C 0.17056 0.8746 0.3641 0.0
C450 C 0.18276 0.90837 0.38124 0.0
C451 C 0.162 0.92032 0.40712 0.0
C452 C 0.12907 0.89876 0.41573 0.0
C453 C 0.11775 0.86424 0.39804 0.0
H454 H 0.15378 0.76193 0.66845 0.0
H455 H 0.23918 0.84497 0.71714 0.0
H456 H 0.21486 0.89134 0.68153 0.0
H457 H 0.15582 0.79596 0.58392 0.0
H458 H 0.10659 0.78426 0.5738 0.0
H459 H 0.13033 0.75816 0.60348 0.0
H460 H 0.08555 0.77068 0.64916 0.0
H461 H 0.06162 0.79698 0.61979 0.0
H462 H 0.08038 0.81708 0.66111 0.0
H463 H 0.18004 0.92888 0.64051 0.0
H464 H 0.14157 0.95356 0.59561 0.0
H465 H 0.07888 0.84568 0.57275 0.0
C466 C 0.16734 0.78993 0.67174 0.0
C467 C 0.19829 0.79987 0.69592 0.0
C468 C 0.21546 0.83669 0.69897 0.0
C469 C 0.20169 0.86321 0.67887 0.0
C470 C 0.17083 0.85254 0.65558 0.0
C471 C 0.15409 0.81663 0.65174 0.0
C472 C 0.12193 0.81194 0.62431 0.0
C473 C 0.1291 0.78606 0.59462 0.0
C474 C 0.0852 0.79837 0.63951 0.0
C475 C 0.12291 0.85088 0.6133 0.0
C476 C 0.15124 0.87388 0.63177 0.0
C477 C 0.15786 0.91101 0.62597 0.0
C478 C 0.13563 0.92484 0.60035 0.0
C479 C 0.1068 0.90182 0.58042 0.0
C480 C 0.10025 0.8643 0.58756 0.0
H481 H 0.18493 0.20838 0.64471 0.0
H482 H 0.2286 0.12037 0.69582 0.0
H483 H 0.20958 0.07951 0.64445 0.0
H484 H 0.10644 0.1617 0.61037 0.0
H485 H 0.10516 0.18374 0.57035 0.0
H486 H 0.13038 0.20733 0.60738 0.0
H487 H 0.18934 0.21687 0.57387 0.0
H488 H 0.16422 0.19219 0.53679 0.0
H489 H 0.20625 0.17799 0.55481 0.0
H490 H 0.17579 0.04616 0.59421 0.0
H491 H 0.12267 0.02128 0.55447 0.0
H492 H 0.10234 0.131 0.53404 0.0
C493 C 0.19077 0.18057 0.645 0.0
C494 C 0.20759 0.16725 0.67426 0.0
C495 C 0.2153 0.13093 0.67363 0.0
C496 C 0.20524 0.10777 0.64439 0.0
C497 C 0.18845 0.12174 0.61589 0.0
C498 C 0.18134 0.15737 0.61599 0.0
C499 C 0.15797 0.16429 0.58442 0.0
C500 C 0.12293 0.18012 0.59371 0.0
C501 C 0.18082 0.18931 0.56109 0.0
C502 C 0.14912 0.12587 0.56866 0.0
C503 C 0.16872 0.10212 0.5861 0.0
C504 C 0.16098 0.06449 0.57976 0.0
C505 C 0.13059 0.05057 0.55712 0.0
C506 C 0.10807 0.07437 0.54176 0.0
C507 C 0.11917 0.11234 0.54557 0.0
H508 H 0.85884 0.20637 0.70704 0.0
H509 H 0.75672 0.12996 0.70334 0.0
H510 H 0.77573 0.09648 0.6543 0.0
H511 H 0.86613 0.20602 0.61379 0.0
H512 H 0.91565 0.20687 0.61635 0.0
H513 H 0.89426 0.2273 0.65079 0.0
H514 H 0.92392 0.1876 0.69392 0.0
H515 H 0.94596 0.16708 0.65998 0.0
H516 H 0.91691 0.13869 0.68641 0.0
H517 H 0.80522 0.06874 0.6072 0.0
H518 H 0.84474 0.04771 0.56472 0.0
H519 H 0.93023 0.13917 0.59648 0.0
C520 C 0.84043 0.18285 0.69565 0.0
C521 C 0.80598 0.17122 0.70938 0.0
C522 C 0.78316 0.13978 0.69377 0.0
C523 C 0.79365 0.1204 0.66559 0.0
C524 C 0.82758 0.1321 0.65291 0.0
C525 C 0.85086 0.16246 0.66729 0.0
C526 C 0.88655 0.16764 0.64887 0.0
C527 C 0.89089 0.20412 0.63139 0.0
C528 C 0.92034 0.16509 0.67379 0.0
C529 C 0.87959 0.13526 0.62247 0.0
C530 C 0.84515 0.11546 0.62533 0.0
C531 C 0.83225 0.08409 0.6046 0.0
C532 C 0.85508 0.07229 0.58041 0.0
C533 C 0.89086 0.09153 0.57679 0.0
C534 C 0.90305 0.12374 0.59821 0.0
H535 H 0.82397 0.86269 0.69443 0.0
H536 H 0.87266 0.76338 0.68315 0.0
H537 H 0.91721 0.79387 0.64515 0.0
H538 H 0.82946 0.8855 0.60642 0.0
H539 H 0.83901 0.93404 0.61614 0.0
H540 H 0.81295 0.90503 0.6442 0.0
H541 H 0.85987 0.9304 0.69501 0.0
H542 H 0.88623 0.95924 0.66697 0.0
H543 H 0.90842 0.92786 0.69218 0.0
H544 H 0.95819 0.83714 0.60699 0.0
H545 H 0.98435 0.88469 0.56907 0.0
H546 H 0.90656 0.95414 0.60243 0.0
C547 C 0.84427 0.84742 0.68431 0.0
C548 C 0.84475 0.81044 0.69252 0.0
C549 C 0.87146 0.79159 0.67772 0.0
C550 C 0.89714 0.80885 0.65604 0.0
C551 C 0.89594 0.84523 0.64849 0.0
C552 C 0.86972 0.86409 0.66192 0.0
C553 C 0.87253 0.90213 0.6481 0.0
C554 C 0.83634 0.90695 0.62749 0.0
C555 C 0.88235 0.93165 0.67731 0.0
C556 C 0.90435 0.90188 0.62496 0.0
C557 C 0.91798 0.86905 0.6258 0.0
C558 C 0.94748 0.86287 0.60631 0.0
C559 C 0.96259 0.89028 0.58495 0.0
C560 C 0.94806 0.92364 0.58259 0.0
C561 C 0.91877 0.92923 0.6035 0.0
H562 H 0.33126 0.17446 0.13977 0.0
H563 H 0.22504 0.10475 0.12776 0.0
H564 H 0.24174 0.07929 0.07215 0.0
H565 H 0.3344 0.19444 0.04922 0.0
H566 H 0.38393 0.19569 0.05095 0.0
H567 H 0.36232 0.20901 0.08841 0.0
H568 H 0.3923 0.16133 0.12323 0.0
H569 H 0.41456 0.1486 0.08619 0.0
H570 H 0.38558 0.11435 0.1072 0.0
H571 H 0.27466 0.05682 0.02201 0.0
H572 H 0.31994 0.03902 0.98302 0.0
H573 H 0.4007 0.12958 0.02592 0.0
C574 C 0.31152 0.15368 0.12551 0.0
C575 C 0.27732 0.14071 0.13807 0.0
C576 C 0.25166 0.11442 0.11847 0.0
C577 C 0.26079 0.10021 0.08687 0.0
C578 C 0.29496 0.11383 0.07509 0.0
C579 C 0.31962 0.14034 0.09377 0.0
C580 C 0.35492 0.15 0.07651 0.0
C581 C 0.35912 0.18963 0.06563 0.0
C582 C 0.38881 0.14312 0.09964 0.0
C583 C 0.34738 0.12329 0.0459 0.0
C584 C 0.31255 0.10283 0.04519 0.0
C585 C 0.30156 0.07327 0.02177 0.0
C586 C 0.32742 0.06341 -0.00032 0.0
C587 C 0.3637 0.08317 0.00124 0.0
C588 C 0.37292 0.11453 0.02343 0.0
H589 H 0.84559 0.37695 0.19288 0.0
H590 H 0.90928 0.28768 0.18162 0.0
H591 H 0.95894 0.32918 0.15805 0.0
H592 H 0.86093 0.4117 0.11667 0.0
H593 H 0.86406 0.45917 0.13037 0.0
H594 H 0.83807 0.42494 0.15343 0.0
H595 H 0.87767 0.44921 0.20934 0.0
H596 H 0.90411 0.48345 0.18617 0.0
H597 H 0.9274 0.45244 0.21089 0.0
H598 H 0.99457 0.37539 0.12658 0.0
H599 H 1.01235 0.42224 0.08594 0.0
H600 H 0.92682 0.48258 0.11815 0.0
C601 C 0.87045 0.36649 0.18618 0.0
C602 C 0.87395 0.32942 0.18894 0.0
C603 C 0.90634 0.31617 0.17955 0.0
C604 C 0.93479 0.3396 0.16659 0.0
C605 C 0.93034 0.37606 0.16361 0.0
C606 C 0.89899 0.38949 0.17316 0.0
C607 C 0.89843 0.42814 0.16266 0.0
C608 C 0.86332 0.43112 0.13939 0.0
C609 C 0.90214 0.45489 0.19415 0.0
C610 C 0.93295 0.43332 0.14342 0.0
C611 C 0.9516 0.40345 0.14532 0.0
C612 C 0.98125 0.39962 0.12588 0.0
C613 C 0.99129 0.42637 0.10296 0.0
C614 C 0.97146 0.45613 0.09942 0.0
C615 C 0.94293 0.46038 0.12089 0.0
H616 H 0.6352 0.83137 0.21213 0.0
H617 H 0.73175 0.91439 0.22508 0.0
H618 H 0.69227 0.96151 0.21189 0.0
H619 H 0.6032 0.85491 0.14102 0.0
H620 H 0.55419 0.84625 0.14636 0.0
H621 H 0.58518 0.82282 0.1711 0.0
H622 H 0.56063 0.84705 0.22665 0.0
H623 H 0.52956 0.87112 0.20165 0.0
H624 H 0.56156 0.89541 0.23471 0.0
H625 H 0.64867 0.99528 0.18254 0.0
H626 H 0.61195 0.00892 0.13154 0.0
H627 H 0.54297 0.90409 0.13279 0.0
C628 C 0.64763 0.85975 0.21351 0.0
C629 C 0.68625 0.86954 0.21946 0.0
C630 C 0.70207 0.90656 0.22055 0.0
C631 C 0.6797 0.93348 0.21359 0.0
C632 C 0.6417 0.92279 0.20569 0.0
C633 C 0.62574 0.8866 0.20573 0.0
C634 C 0.587 0.8805 0.18813 0.0
C635 C 0.58221 0.84937 0.15998 0.0
C636 C 0.55798 0.87309 0.21436 0.0
C637 C 0.58586 0.9175 0.17365 0.0
C638 C 0.61632 0.94228 0.1864 0.0
C639 C 0.62443 0.97637 0.17294 0.0
C640 C 0.6034 0.98389 0.14373 0.0
C641 C 0.57539 0.957 0.12768 0.0
C642 C 0.5644 0.92495 0.14457 0.0
H643 H 0.21091 0.7263 0.12053 0.0
H644 H 0.24374 0.64427 0.18665 0.0
H645 H 0.22422 0.59664 0.14091 0.0
H646 H 0.12989 0.67841 0.092 0.0
H647 H 0.12845 0.69247 0.04861 0.0
H648 H 0.15564 0.72121 0.08173 0.0
H649 H 0.21365 0.72073 0.04752 0.0
H650 H 0.18642 0.69136 0.01437 0.0
H651 H 0.22773 0.67784 0.03466 0.0
H652 H 0.18974 0.55686 0.09485 0.0
H653 H 0.13648 0.52838 0.05629 0.0
H654 H 0.12386 0.63443 0.01844 0.0
C655 C 0.21528 0.69848 0.12457 0.0
C656 C 0.22931 0.68882 0.15664 0.0
C657 C 0.23345 0.6521 0.16193 0.0
C658 C 0.22278 0.62491 0.13597 0.0
C659 C 0.2078 0.63477 0.10478 0.0
C660 C 0.20391 0.67072 0.09892 0.0
C661 C 0.18022 0.67294 0.06606 0.0
C662 C 0.14657 0.69235 0.07252 0.0
C663 C 0.2034 0.69183 0.03905 0.0
C664 C 0.1688 0.63265 0.05621 0.0
C665 C 0.18637 0.61114 0.07799 0.0
C666 C 0.17643 0.57329 0.07704 0.0
C667 C 0.14613 0.55725 0.05493 0.0
C668 C 0.12581 0.57922 0.03459 0.0
C669 C 0.139 0.61692 0.03361 0.0
H670 H 0.31181 0.85269 0.82071 0.0
H671 H 0.28569 0.74997 0.86871 0.0
H672 H 0.3251 0.77538 0.92032 0.0
H673 H 0.40354 0.86877 0.84713 0.0
H674 H 0.407 0.91751 0.85464 0.0
H675 H 0.37185 0.89378 0.82412 0.0
H676 H 0.32141 0.92016 0.85612 0.0
H677 H 0.35632 0.94393 0.88706 0.0
H678 H 0.31827 0.91326 0.90104 0.0
H679 H 0.37547 0.80815 0.96218 0.0
H680 H 0.42917 0.84727 0.9928 0.0
H681 H 0.42123 0.92925 0.91822 0.0
C682 C 0.31333 0.83594 0.84252 0.0
C683 C 0.29538 0.79942 0.84078 0.0
C684 C 0.29862 0.77819 0.86965 0.0
C685 C 0.32111 0.79237 0.89904 0.0
C686 C 0.33962 0.82802 0.89938 0.0
C687 C 0.33538 0.84978 0.8721 0.0
C688 C 0.36054 0.8861 0.87768 0.0
C689 C 0.38731 0.89183 0.84921 0.0
C690 C 0.33776 0.91773 0.88065 0.0
C691 C 0.38087 0.88071 0.91161 0.0
C692 C 0.36819 0.84719 0.92388 0.0
C693 C 0.38502 0.8348 0.95323 0.0
C694 C 0.41565 0.85712 0.97035 0.0
C695 C 0.42914 0.89152 0.95815 0.0
C696 C 0.41103 0.90354 0.92868 0.0
H697 H 0.23733 0.2825 0.86116 0.0
H698 H 0.15582 0.25662 0.77476 0.0
H699 H 0.11455 0.29452 0.80242 0.0
H700 H 0.17452 0.28339 0.92733 0.0
H701 H 0.201 0.32193 0.95171 0.0
H702 H 0.22404 0.2927 0.92534 0.0
H703 H 0.25235 0.34823 0.89417 0.0
H704 H 0.22932 0.37808 0.91987 0.0
H705 H 0.22264 0.37715 0.87389 0.0
H706 H 0.07997 0.3314 0.84174 0.0
H707 H 0.05716 0.36956 0.88639 0.0
H708 H 0.16276 0.37739 0.94579 0.0
C709 C 0.21072 0.28477 0.84812 0.0
C710 C 0.19962 0.26615 0.81579 0.0
C711 C 0.16491 0.27045 0.7994 0.0
C712 C 0.14125 0.2919 0.81504 0.0
C713 C 0.15284 0.30967 0.84695 0.0
C714 C 0.18704 0.30684 0.8631 0.0
C715 C 0.19316 0.32969 0.89686 0.0
C716 C 0.19849 0.30547 0.9271 0.0
C717 C 0.22632 0.36012 0.89614 0.0
C718 C 0.15679 0.3453 0.89754 0.0
C719 C 0.13384 0.33297 0.86859 0.0
C720 C 0.09797 0.34161 0.86419 0.0
C721 C 0.08517 0.36328 0.88981 0.0
C722 C 0.10815 0.377 0.91948 0.0
C723 C 0.14469 0.368 0.92316 0.0
H724 H 0.6893 0.18989 0.87013 0.0
H725 H 0.62283 0.16678 0.77379 0.0
H726 H 0.58136 0.11893 0.80008 0.0
H727 H 0.69019 0.10318 0.89105 0.0
H728 H 0.68676 0.11024 0.93634 0.0
H729 H 0.70684 0.14715 0.91232 0.0
H730 H 0.65931 0.18807 0.93204 0.0
H731 H 0.64074 0.15172 0.9576 0.0
H732 H 0.61055 0.17053 0.92704 0.0
H733 H 0.55483 0.06656 0.83445 0.0
H734 H 0.53756 0.02142 0.87791 0.0
H735 H 0.62282 0.08074 0.94998 0.0
C736 C 0.6652 0.17562 0.85502 0.0
C737 C 0.65895 0.18157 0.82024 0.0
C738 C 0.62756 0.16251 0.80077 0.0
C739 C 0.6041 0.13522 0.81537 0.0
C740 C 0.61236 0.12831 0.84942 0.0
C741 C 0.64152 0.14877 0.86924 0.0
C742 C 0.64624 0.13467 0.90438 0.0
C743 C 0.68478 0.12313 0.91138 0.0
C744 C 0.63872 0.16293 0.93188 0.0
C745 C 0.61624 0.10217 0.90079 0.0
C746 C 0.59681 0.0988 0.8691 0.0
C747 C 0.56907 0.06944 0.85975 0.0
C748 C 0.55973 0.04387 0.88424 0.0
C749 C 0.57904 0.04769 0.91691 0.0
C750 C 0.60786 0.0769 0.92495 0.0
H751 H 0.88224 0.74131 0.83325 0.0
H752 H 0.79084 0.66179 0.78903 0.0
H753 H 0.81731 0.61313 0.81911 0.0
H754 H 0.9544 0.68004 0.83135 0.0
H755 H 0.97729 0.69922 0.87158 0.0
H756 H 0.95293 0.72709 0.84411 0.0
H757 H 0.91375 0.74228 0.89385 0.0
H758 H 0.9379 0.71429 0.92123 0.0
H759 H 0.88809 0.70557 0.91474 0.0
H760 H 0.85074 0.57379 0.85854 0.0
H761 H 0.88868 0.54727 0.90284 0.0
H762 H 0.95985 0.65144 0.92056 0.0
C763 C 0.8682 0.71353 0.82937 0.0
C764 C 0.83444 0.70545 0.80852 0.0
C765 C 0.81675 0.66875 0.80461 0.0
C766 C 0.83163 0.64086 0.82165 0.0
C767 C 0.86455 0.64979 0.84247 0.0
C768 C 0.88283 0.68521 0.84616 0.0
C769 C 0.91688 0.68775 0.87131 0.0
C770 C 0.95248 0.6992 0.85351 0.0
C771 C 0.91396 0.71402 0.9021 0.0
C772 C 0.91444 0.64849 0.88177 0.0
C773 C 0.88412 0.62699 0.86471 0.0
C774 C 0.87484 0.59032 0.87164 0.0
C775 C 0.89663 0.57543 0.89691 0.0
C776 C 0.92767 0.59694 0.91508 0.0
C777 C 0.93688 0.63388 0.90676 0.0
H778 H 0.24098 0.31446 0.14806 0.0
H779 H 0.16664 0.28942 0.22758 0.0
H780 H 0.12438 0.32948 0.20182 0.0
H781 H 0.22581 0.41149 0.14131 0.0
H782 H 0.22949 0.40945 0.09577 0.0
H783 H 0.25483 0.38183 0.12266 0.0
H784 H 0.22466 0.32421 0.08592 0.0
H785 H 0.19879 0.3515 0.05932 0.0
H786 H 0.17486 0.3138 0.08022 0.0
H787 H 0.08616 0.36529 0.16177 0.0
H788 H 0.05863 0.39797 0.11539 0.0
H789 H 0.1598 0.40368 0.064 0.0
C790 C 0.21618 0.31809 0.16053 0.0
C791 C 0.20711 0.29886 0.18995 0.0
C792 C 0.17436 0.30413 0.20535 0.0
C793 C 0.15014 0.32672 0.19071 0.0
C794 C 0.15944 0.34448 0.16107 0.0
C795 C 0.19216 0.34099 0.14662 0.0
C796 C 0.1954 0.36201 0.11428 0.0
C797 C 0.22834 0.39304 0.11878 0.0
C798 C 0.1986 0.33634 0.08311 0.0
C799 C 0.15877 0.37695 0.11194 0.0
C800 C 0.13839 0.36648 0.13915 0.0
C801 C 0.10235 0.37429 0.1409 0.0
C802 C 0.08676 0.3929 0.11428 0.0
C803 C 0.10708 0.40428 0.0863 0.0
C804 C 0.14386 0.39649 0.08554 0.0
H805 H 0.13336 0.68668 0.8331 0.0
H806 H 0.16337 0.60441 0.76284 0.0
H807 H 0.11682 0.55832 0.78438 0.0
H808 H 0.13142 0.63769 0.90057 0.0
H809 H 0.09244 0.65294 0.91953 0.0
H810 H 0.11843 0.68164 0.89155 0.0
H811 H 0.05819 0.68469 0.85341 0.0
H812 H 0.032 0.65544 0.88133 0.0
H813 H 0.03007 0.64307 0.8363 0.0
H814 H 0.08217 0.51959 0.82162 0.0
H815 H 0.06391 0.49042 0.87416 0.0
H816 H 0.05326 0.59565 0.92132 0.0
C817 C 0.12897 0.65918 0.82159 0.0
C818 C 0.15163 0.6488 0.7965 0.0
C819 C 0.14618 0.61264 0.78228 0.0
C820 C 0.11943 0.58645 0.79397 0.0
C821 C 0.0983 0.59697 0.81976 0.0
C822 C 0.10251 0.63256 0.83336 0.0
C823 C 0.0817 0.63516 0.86516 0.0
C824 C 0.10756 0.65285 0.89599 0.0
C825 C 0.04852 0.65581 0.85864 0.0
C826 C 0.06876 0.59508 0.86934 0.0
C827 C 0.0772 0.57371 0.84197 0.0
C828 C 0.07408 0.53586 0.84257 0.0
C829 C 0.06392 0.51952 0.87247 0.0
C830 C 0.05678 0.54107 0.90101 0.0
C831 C 0.05742 0.5789 0.89903 0.0
H832 H 0.30218 0.09668 0.80078 0.0
H833 H 0.39028 0.1697 0.7611 0.0
H834 H 0.4331 0.12537 0.77131 0.0
H835 H 0.34639 0.07475 0.86758 0.0
H836 H 0.32823 0.0269 0.86782 0.0
H837 H 0.30198 0.05696 0.84574 0.0
H838 H 0.29957 0.01585 0.79027 0.0
H839 H 0.32675 0.98592 0.81248 0.0
H840 H 0.34199 0.00575 0.77391 0.0
H841 H 0.46918 0.08866 0.80407 0.0
H842 H 0.49368 0.06369 0.85599 0.0
H843 H 0.38526 0.00602 0.87029 0.0
C844 C 0.33017 0.10241 0.79314 0.0
C845 C 0.34326 0.13648 0.78068 0.0
C846 C 0.37993 0.14374 0.77108 0.0
C847 C 0.4043 0.11843 0.77628 0.0
C848 C 0.39139 0.08571 0.79052 0.0
C849 C 0.35486 0.07717 0.79816 0.0
C850 C 0.34977 0.04377 0.81914 0.0
C851 C 0.33055 0.0511 0.852 0.0
C852 C 0.32825 0.01088 0.79765 0.0
C853 C 0.38988 0.03861 0.82661 0.0
C854 C 0.41329 0.06193 0.80842 0.0
C855 C 0.45136 0.06889 0.81714 0.0
C856 C 0.46537 0.05432 0.84667 0.0
C857 C 0.44167 0.03216 0.86655 0.0
C858 C 0.40415 0.02183 0.85475 0.0
H859 H 0.82513 0.27927 0.87266 0.0
H860 H 0.81476 0.35979 0.79735 0.0
H861 H 0.83392 0.40926 0.84159 0.0
H862 H 0.80317 0.33447 0.95006 0.0
H863 H 0.83915 0.31893 0.97691 0.0
H864 H 0.81525 0.28958 0.94202 0.0
H865 H 0.87786 0.28277 0.9171 0.0
H866 H 0.9017 0.31123 0.95227 0.0
H867 H 0.90896 0.32323 0.90902 0.0
H868 H 0.86099 0.44978 0.89105 0.0
H869 H 0.9071 0.47732 0.93692 0.0
H870 H 0.90621 0.37153 0.98008 0.0
C871 C 0.82616 0.30739 0.86592 0.0
C872 C 0.81774 0.31593 0.83192 0.0
C873 C 0.82053 0.35284 0.82347 0.0
C874 C 0.83103 0.38112 0.8485 0.0
C875 C 0.83951 0.37209 0.88188 0.0
C876 C 0.83806 0.33611 0.89053 0.0
C877 C 0.85561 0.33397 0.92639 0.0
C878 C 0.82655 0.31831 0.95025 0.0
C879 C 0.88795 0.31151 0.92615 0.0
C880 C 0.86901 0.37412 0.93561 0.0
C881 C 0.85779 0.39572 0.91023 0.0
C882 C 0.86956 0.43328 0.91136 0.0
C883 C 0.89562 0.44881 0.93775 0.0
C884 C 0.91039 0.42654 0.96199 0.0
C885 C 0.8951 0.38924 0.96206 0.0
H886 H 0.69063 0.83027 0.84455 0.0
H887 H 0.80137 0.88771 0.87126 0.0
H888 H 0.78038 0.91207 0.92542 0.0
H889 H 0.63926 0.89568 0.87837 0.0
H890 H 0.60482 0.86153 0.89327 0.0
H891 H 0.62936 0.85097 0.85694 0.0
H892 H 0.64958 0.79545 0.8874 0.0
H893 H 0.62593 0.80652 0.92429 0.0
H894 H 0.67452 0.80245 0.92898 0.0
H895 H 0.74457 0.93294 0.97453 0.0
H896 H 0.69802 0.94821 0.01357 0.0
H897 H 0.61445 0.86939 0.95657 0.0
C898 C 0.71038 0.84849 0.8615 0.0
C899 C 0.74732 0.85797 0.85367 0.0
C900 C 0.77273 0.88082 0.87684 0.0
C901 C 0.76113 0.89441 0.90764 0.0
C902 C 0.72448 0.88376 0.91495 0.0
C903 C 0.69968 0.86108 0.89252 0.0
C904 C 0.66213 0.85277 0.90617 0.0
C905 C 0.63215 0.86605 0.88228 0.0
C906 C 0.6525 0.81187 0.91206 0.0
C907 C 0.66912 0.87522 0.93953 0.0
C908 C 0.70514 0.89305 0.94427 0.0
C909 C 0.71657 0.91849 0.97151 0.0
C910 C 0.69006 0.92687 0.9936 0.0
C911 C 0.65291 0.90939 0.98844 0.0
C912 C 0.6429 0.88227 0.96189 0.0
H913 H 0.80453 0.68601 0.18461 0.0
H914 H 0.86107 0.79361 0.16683 0.0
H915 H 0.90282 0.76572 0.1302 0.0
H916 H 0.88507 0.63677 0.18373 0.0
H917 H 0.85976 0.59684 0.16054 0.0
H918 H 0.8362 0.62455 0.18797 0.0
H919 H 0.7892 0.63249 0.13766 0.0
H920 H 0.81237 0.60486 0.10983 0.0
H921 H 0.80565 0.65023 0.09868 0.0
H922 H 0.9374 0.7273 0.09458 0.0
H923 H 0.96222 0.68122 0.06005 0.0
H924 H 0.88182 0.59634 0.09592 0.0
C925 C 0.82624 0.70362 0.17369 0.0
C926 C 0.83014 0.74221 0.17945 0.0
C927 C 0.85805 0.76415 0.16345 0.0
C928 C 0.88182 0.74848 0.14247 0.0
C929 C 0.87704 0.71059 0.13691 0.0
C930 C 0.84987 0.68831 0.15184 0.0
C931 C 0.8494 0.6485 0.13953 0.0
C932 C 0.85814 0.62529 0.16974 0.0
C933 C 0.81194 0.63312 0.12028 0.0
C934 C 0.88063 0.65199 0.11538 0.0
C935 C 0.89618 0.68818 0.11474 0.0
C936 C 0.92545 0.6989 0.09491 0.0
C937 C 0.93946 0.67223 0.07529 0.0
C938 C 0.92431 0.63472 0.0749 0.0
C939 C 0.89413 0.62461 0.09531 0.0
H940 H 0.3107 0.8876 0.17309 0.0
H941 H 0.40432 0.85004 0.2271 0.0
H942 H 0.44675 0.89809 0.20253 0.0
H943 H 0.34397 0.89227 0.10032 0.0
H944 H 0.32659 0.93249 0.08567 0.0
H945 H 0.30319 0.90638 0.11691 0.0
H946 H 0.31028 0.96375 0.15833 0.0
H947 H 0.33362 0.99037 0.12681 0.0
H948 H 0.35548 0.98958 0.16932 0.0
H949 H 0.47849 0.93691 0.16198 0.0
H950 H 0.49674 0.96014 0.1072 0.0
H951 H 0.38266 0.96982 0.07683 0.0
C952 C 0.34005 0.89061 0.18075 0.0
C953 C 0.35459 0.86548 0.20162 0.0
C954 C 0.39295 0.86934 0.21098 0.0
C955 C 0.4171 0.8968 0.19751 0.0
C956 C 0.40214 0.92009 0.17518 0.0
C957 C 0.36432 0.91749 0.16713 0.0
C958 C 0.35555 0.9397 0.1371 0.0
C959 C 0.33095 0.91628 0.10834 0.0
C960 C 0.33769 0.97283 0.14859 0.0
C961 C 0.39421 0.95145 0.12693 0.0
C962 C 0.42076 0.94168 0.15025 0.0
C963 C 0.45803 0.9454 0.14397 0.0
C964 C 0.46813 0.958 0.11251 0.0
C965 C 0.441 0.9655 0.08744 0.0
C966 C 0.40395 0.96386 0.09545 0.0
H967 H 0.71102 0.13081 0.16831 0.0
H968 H 0.73904 0.23397 0.12161 0.0
H969 H 0.69742 0.21075 0.07068 0.0
H970 H 0.69918 0.07123 0.08791 0.0
H971 H 0.66017 0.04209 0.10198 0.0
H972 H 0.69653 0.06362 0.13275 0.0
H973 H 0.64959 0.09201 0.16662 0.0
H974 H 0.61154 0.07262 0.13685 0.0
H975 H 0.6203 0.12112 0.14599 0.0
H976 H 0.64451 0.18001 0.02962 0.0
H977 H 0.58856 0.14279 0.00045 0.0
H978 H 0.5964 0.05984 0.07408 0.0
C979 C 0.70958 0.14802 0.14681 0.0
C980 C 0.7286 0.18402 0.14877 0.0
C981 C 0.72531 0.20601 0.12041 0.0
C982 C 0.70156 0.19311 0.09141 0.0
C983 C 0.68187 0.15797 0.09097 0.0
C984 C 0.68625 0.1355 0.11771 0.0
C985 C 0.65933 0.1004 0.11278 0.0
C986 C 0.68003 0.06738 0.10863 0.0
C987 C 0.63372 0.09629 0.1423 0.0
C988 C 0.63825 0.10704 0.07969 0.0
C989 C 0.6517 0.14026 0.0673 0.0
C990 C 0.63432 0.15358 0.03868 0.0
C991 C 0.60244 0.13237 0.02241 0.0
C992 C 0.58837 0.09823 0.03477 0.0
C993 C 0.60693 0.0854 0.06352 0.0
H994 H 0.69969 0.64145 0.80509 0.0
H995 H 0.66282 0.74302 0.8361 0.0
H996 H 0.61787 0.70918 0.872 0.0
H997 H 0.61167 0.58209 0.80297 0.0
H998 H 0.63154 0.54469 0.82094 0.0
H999 H 0.65884 0.57662 0.79619 0.0
H1000 H 0.70925 0.59007 0.84665 0.0
H1001 H 0.68229 0.55785 0.87132 0.0
H1002 H 0.69642 0.60416 0.88811 0.0
H1003 H 0.57508 0.66185 0.9051 0.0
H1004 H 0.54727 0.60951 0.93682 0.0
H1005 H 0.61547 0.54021 0.88694 0.0
C1006 C 0.6819 0.65663 0.81912 0.0
C1007 C 0.68464 0.69511 0.8171 0.0
C1008 C 0.66133 0.71368 0.83681 0.0
C1009 C 0.63548 0.69453 0.85725 0.0
C1010 C 0.63336 0.65658 0.85847 0.0
C1011 C 0.65655 0.63802 0.84027 0.0
C1012 C 0.651 0.59772 0.84773 0.0
C1013 C 0.63746 0.57388 0.81501 0.0
C1014 C 0.68686 0.58682 0.86445 0.0
C1015 C 0.62093 0.59623 0.87275 0.0
C1016 C 0.61056 0.63027 0.87835 0.0
C1017 C 0.58319 0.63519 0.9007 0.0
C1018 C 0.56705 0.60509 0.9184 0.0
C1019 C 0.5785 0.57031 0.91421 0.0
C1020 C 0.60553 0.56615 0.89055 0.0
H1021 H 0.37532 0.7236 0.82002 0.0
H1022 H 0.28505 0.64225 0.77692 0.0
H1023 H 0.30922 0.59599 0.8128 0.0
H1024 H 0.44613 0.66499 0.82544 0.0
H1025 H 0.46784 0.68599 0.86549 0.0
H1026 H 0.44363 0.71228 0.83631 0.0
H1027 H 0.40236 0.7288 0.88382 0.0
H1028 H 0.42663 0.70283 0.91323 0.0
H1029 H 0.37695 0.69281 0.90576 0.0
H1030 H 0.34397 0.55849 0.85433 0.0
H1031 H 0.38331 0.53402 0.89876 0.0
H1032 H 0.45143 0.64003 0.91498 0.0
C1033 C 0.36064 0.69599 0.81798 0.0
C1034 C 0.32829 0.68654 0.79534 0.0
C1035 C 0.30984 0.65019 0.79386 0.0
C1036 C 0.3235 0.62372 0.81416 0.0
C1037 C 0.35567 0.63392 0.83599 0.0
C1038 C 0.37387 0.66932 0.83809 0.0
C1039 C 0.40739 0.67363 0.86407 0.0
C1040 C 0.44338 0.68489 0.84678 0.0
C1041 C 0.40306 0.70114 0.89346 0.0
C1042 C 0.40546 0.63509 0.87633 0.0
C1043 C 0.37544 0.61258 0.85976 0.0
C1044 C 0.36752 0.57599 0.86729 0.0
C1045 C 0.39023 0.56226 0.89264 0.0
C1046 C 0.42091 0.58481 0.91052 0.0
C1047 C 0.42868 0.62172 0.90168 0.0
H1048 H 0.33214 0.28105 0.85396 0.0
H1049 H 0.28893 0.36899 0.80243 0.0
H1050 H 0.31137 0.411 0.8524 0.0
H1051 H 0.31713 0.31593 0.94491 0.0
H1052 H 0.35928 0.30063 0.96124 0.0
H1053 H 0.33115 0.27541 0.92602 0.0
H1054 H 0.38763 0.28099 0.88922 0.0
H1055 H 0.4158 0.30531 0.9243 0.0
H1056 H 0.41264 0.32559 0.88348 0.0
H1057 H 0.34945 0.44515 0.90017 0.0
H1058 H 0.40515 0.46946 0.9371 0.0
H1059 H 0.42269 0.35944 0.95929 0.0
C1060 C 0.32698 0.30906 0.85338 0.0
C1061 C 0.30953 0.32207 0.82428 0.0
C1062 C 0.30268 0.35866 0.82451 0.0
C1063 C 0.31477 0.38251 0.85296 0.0
C1064 C 0.33265 0.36896 0.88114 0.0
C1065 C 0.33847 0.33294 0.88162 0.0
C1066 C 0.36338 0.32633 0.9123 0.0
C1067 C 0.34141 0.30321 0.93762 0.0
C1068 C 0.39683 0.30859 0.90165 0.0
C1069 C 0.37454 0.36512 0.92656 0.0
C1070 C 0.35488 0.38904 0.90945 0.0
C1071 C 0.3643 0.42672 0.91443 0.0
C1072 C 0.39613 0.44031 0.93546 0.0
C1073 C 0.41837 0.41614 0.95056 0.0
C1074 C 0.40602 0.37835 0.94796 0.0
H1075 H 0.69156 0.28343 0.79262 0.0
H1076 H 0.75873 0.38229 0.76494 0.0
H1077 H 0.73239 0.41774 0.80872 0.0
H1078 H 0.60943 0.32647 0.80882 0.0
H1079 H 0.59758 0.29975 0.84476 0.0
H1080 H 0.62158 0.28114 0.81115 0.0
H1081 H 0.67337 0.2691 0.85551 0.0
H1082 H 0.64977 0.28782 0.88934 0.0
H1083 H 0.6971 0.30622 0.88354 0.0
H1084 H 0.70203 0.44302 0.85678 0.0
H1085 H 0.66459 0.45807 0.9034 0.0
H1086 H 0.61218 0.34511 0.90065 0.0
C1087 C 0.70033 0.31253 0.79553 0.0
C1088 C 0.72763 0.32983 0.77512 0.0
C1089 C 0.7382 0.36811 0.78008 0.0
C1090 C 0.72339 0.38865 0.80508 0.0
C1091 C 0.69728 0.37092 0.8251 0.0
C1092 C 0.68529 0.33384 0.82048 0.0
C1093 C 0.65632 0.32225 0.84565 0.0
C1094 C 0.61901 0.30647 0.82644 0.0
C1095 C 0.66996 0.29471 0.86995 0.0
C1096 C 0.65402 0.35864 0.86484 0.0
C1097 C 0.67841 0.38607 0.8526 0.0
C1098 C 0.68262 0.42182 0.86642 0.0
C1099 C 0.66121 0.43008 0.89318 0.0
C1100 C 0.63514 0.40301 0.90605 0.0
C1101 C 0.63159 0.36662 0.89145 0.0
H1102 H 0.65434 0.25736 0.16352 0.0
H1103 H 0.73839 0.34017 0.21457 0.0
H1104 H 0.71592 0.3866 0.17795 0.0
H1105 H 0.66044 0.29171 0.07893 0.0
H1106 H 0.61151 0.28001 0.06713 0.0
H1107 H 0.63406 0.25383 0.09762 0.0
H1108 H 0.58704 0.26629 0.14136 0.0
H1109 H 0.56453 0.2928 0.11114 0.0
H1110 H 0.58158 0.3127 0.15297 0.0
H1111 H 0.68309 0.42423 0.13619 0.0
H1112 H 0.64651 0.44942 0.09036 0.0
H1113 H 0.58403 0.34183 0.06503 0.0
C1114 C 0.66798 0.28532 0.16706 0.0
C1115 C 0.69799 0.29523 0.1922 0.0
C1116 C 0.71536 0.33197 0.19564 0.0
C1117 C 0.70266 0.35851 0.17497 0.0
C1118 C 0.67269 0.3479 0.15073 0.0
C1119 C 0.65583 0.31206 0.14645 0.0
C1120 C 0.62482 0.30756 0.11792 0.0
C1121 C 0.63321 0.28176 0.08867 0.0
C1122 C 0.58727 0.29403 0.13168 0.0
C1123 C 0.62653 0.34656 0.10692 0.0
C1124 C 0.65428 0.36937 0.1263 0.0
C1125 C 0.6614 0.40652 0.12088 0.0
C1126 C 0.64026 0.42063 0.09468 0.0
C1127 C 0.61207 0.39783 0.07381 0.0
C1128 C 0.60499 0.36024 0.08052 0.0
H1129 H 0.70795 0.63855 0.17502 0.0
H1130 H 0.71361 0.73923 0.12222 0.0
H1131 H 0.69516 0.70388 0.06752 0.0
H1132 H 0.73402 0.57883 0.10044 0.0
H1133 H 0.70146 0.54091 0.11182 0.0
H1134 H 0.72564 0.57291 0.14465 0.0
H1135 H 0.66276 0.58483 0.16639 0.0
H1136 H 0.63901 0.55256 0.13418 0.0
H1137 H 0.62809 0.59849 0.13664 0.0
H1138 H 0.66593 0.6607 0.02209 0.0
H1139 H 0.61572 0.61646 0.99324 0.0
H1140 H 0.62675 0.54267 0.07445 0.0
C1141 C 0.70603 0.65303 0.15176 0.0
C1142 C 0.71195 0.69147 0.15266 0.0
C1143 C 0.70869 0.70971 0.12201 0.0
C1144 C 0.69909 0.68982 0.09077 0.0
C1145 C 0.69305 0.6518 0.0907 0.0
C1146 C 0.69599 0.63358 0.12052 0.0
C1147 C 0.68091 0.59346 0.1148 0.0
C1148 C 0.71239 0.57015 0.11812 0.0
C1149 C 0.6509 0.58171 0.13941 0.0
C1150 C 0.6651 0.59278 0.07805 0.0
C1151 C 0.67462 0.62621 0.06402 0.0
C1152 C 0.65895 0.63423 0.03241 0.0
C1153 C 0.63043 0.60897 0.0162 0.0
C1154 C 0.61763 0.57655 0.03203 0.0
C1155 C 0.63694 0.56701 0.06175 0.0
H1156 H 0.31121 0.62579 0.20848 0.0
H1157 H 0.34563 0.74029 0.19284 0.0
H1158 H 0.37813 0.72315 0.14281 0.0
H1159 H 0.39461 0.59271 0.18438 0.0
H1160 H 0.37046 0.55131 0.16277 0.0
H1161 H 0.35046 0.57253 0.19765 0.0
H1162 H 0.29079 0.57521 0.15854 0.0
H1163 H 0.31079 0.5539 0.12368 0.0
H1164 H 0.29435 0.59704 0.11854 0.0
H1165 H 0.40685 0.69396 0.0949 0.0
H1166 H 0.43215 0.6551 0.05295 0.0
H1167 H 0.37827 0.55828 0.0974 0.0
C1168 C 0.32601 0.64722 0.19475 0.0
C1169 C 0.3262 0.6845 0.20477 0.0
C1170 C 0.34533 0.71168 0.18581 0.0
C1171 C 0.3637 0.70215 0.15725 0.0
C1172 C 0.36248 0.66524 0.14771 0.0
C1173 C 0.34419 0.63814 0.16586 0.0
C1174 C 0.34696 0.60054 0.14982 0.0
C1175 C 0.36681 0.57795 0.17517 0.0
C1176 C 0.30842 0.58049 0.13689 0.0
C1177 C 0.37026 0.61071 0.12015 0.0
C1178 C 0.37863 0.64825 0.11948 0.0
C1179 C 0.40041 0.66457 0.09517 0.0
C1180 C 0.41469 0.64213 0.0714 0.0
C1181 C 0.40727 0.6035 0.07167 0.0
C1182 C 0.38411 0.58762 0.09615 0.0
H1183 H 0.31921 0.30036 0.14176 0.0
H1184 H 0.38707 0.32476 0.23707 0.0
H1185 H 0.43347 0.36471 0.20727 0.0
H1186 H 0.39322 0.30232 0.08382 0.0
H1187 H 0.36951 0.32513 0.05125 0.0
H1188 H 0.34331 0.29627 0.07941 0.0
H1189 H 0.30905 0.34961 0.09716 0.0
H1190 H 0.33496 0.37862 0.069 0.0
H1191 H 0.33544 0.39238 0.11363 0.0
H1192 H 0.47463 0.40235 0.16486 0.0
H1193 H 0.49964 0.43949 0.11817 0.0
H1194 H 0.40217 0.39594 0.052 0.0
C1195 C 0.34406 0.31378 0.1563 0.0
C1196 C 0.34955 0.30857 0.19197 0.0
C1197 C 0.3821 0.32776 0.2099 0.0
C1198 C 0.40881 0.35055 0.19301 0.0
C1199 C 0.40267 0.35505 0.15791 0.0
C1200 C 0.37059 0.33764 0.13994 0.0
C1201 C 0.36905 0.3493 0.10307 0.0
C1202 C 0.36875 0.31629 0.0779 0.0
C1203 C 0.33512 0.36863 0.09526 0.0
C1204 C 0.40518 0.3758 0.10293 0.0
C1205 C 0.42468 0.37824 0.13459 0.0
C1206 C 0.45925 0.40057 0.14012 0.0
C1207 C 0.4736 0.42147 0.11324 0.0
C1208 C 0.45336 0.4208 0.08099 0.0
C1209 C 0.41874 0.39715 0.07612 0.0
H1210 H 0.83932 0.64405 0.68858 0.0
H1211 H 0.72292 0.61069 0.65746 0.0
H1212 H 0.73982 0.5766 0.60666 0.0
H1213 H 0.86133 0.66908 0.61198 0.0
H1214 H 0.90695 0.6559 0.61367 0.0
H1215 H 0.88726 0.66745 0.65255 0.0
H1216 H 0.89528 0.60464 0.67631 0.0
H1217 H 0.91671 0.59337 0.63812 0.0
H1218 H 0.87741 0.56341 0.65088 0.0
H1219 H 0.77029 0.55391 0.55514 0.0
H1220 H 0.81153 0.54374 0.509 0.0
H1221 H 0.90527 0.60174 0.57234 0.0
C1222 C 0.81738 0.62819 0.67193 0.0
C1223 C 0.77999 0.62963 0.67669 0.0
C1224 C 0.75185 0.60938 0.65414 0.0
C1225 C 0.7612 0.59013 0.62527 0.0
C1226 C 0.79861 0.59185 0.61971 0.0
C1227 C 0.82622 0.61014 0.64272 0.0
C1228 C 0.86371 0.61361 0.62872 0.0
C1229 C 0.88076 0.65389 0.62661 0.0
C1230 C 0.8898 0.59247 0.64975 0.0
C1231 C 0.85283 0.59557 0.59379 0.0
C1232 C 0.81548 0.58222 0.58914 0.0
C1233 C 0.79959 0.56423 0.55853 0.0
C1234 C 0.82291 0.55901 0.53244 0.0
C1235 C 0.86104 0.57307 0.53706 0.0
C1236 C 0.8759 0.59185 0.56786 0.0
H1237 H 0.39311 0.80277 0.65762 0.0
H1238 H 0.36467 0.88116 0.73273 0.0
H1239 H 0.41189 0.9282 0.71358 0.0
H1240 H 0.49668 0.84481 0.65637 0.0
H1241 H 0.49481 0.83553 0.61082 0.0
H1242 H 0.46763 0.80484 0.63686 0.0
H1243 H 0.408 0.81194 0.59939 0.0
H1244 H 0.43498 0.84209 0.57325 0.0
H1245 H 0.39646 0.85703 0.59322 0.0
H1246 H 0.44758 0.96909 0.67863 0.0
H1247 H 0.46728 0.00153 0.62811 0.0
H1248 H 0.47596 0.89878 0.57505 0.0
C1249 C 0.39795 0.82957 0.67064 0.0
C1250 C 0.37557 0.83862 0.69649 0.0
C1251 C 0.38162 0.87394 0.71269 0.0
C1252 C 0.40875 0.90066 0.70235 0.0
C1253 C 0.42966 0.89151 0.67588 0.0
C1254 C 0.42479 0.85675 0.66025 0.0
C1255 C 0.44574 0.85593 0.62839 0.0
C1256 C 0.47814 0.83398 0.63343 0.0
C1257 C 0.41973 0.84091 0.59673 0.0
C1258 C 0.45977 0.8962 0.62672 0.0
C1259 C 0.45149 0.91599 0.65518 0.0
C1260 C 0.45559 0.954 0.65685 0.0
C1261 C 0.46662 0.97222 0.62812 0.0
C1262 C 0.47369 0.95234 0.59851 0.0
C1263 C 0.47199 0.91421 0.59822 0.0
H1264 H 0.13123 0.31581 0.68648 0.0
H1265 H 0.22419 0.39867 0.71953 0.0
H1266 H 0.18906 0.44633 0.69821 0.0
H1267 H 0.11749 0.34614 0.61048 0.0
H1268 H 0.06765 0.33584 0.60555 0.0
H1269 H 0.09341 0.31058 0.63393 0.0
H1270 H 0.05563 0.32853 0.68411 0.0
H1271 H 0.02958 0.35326 0.65493 0.0
H1272 H 0.05271 0.37598 0.69374 0.0
H1273 H 0.15133 0.48225 0.66334 0.0
H1274 H 0.11983 0.50177 0.61153 0.0
H1275 H 0.05282 0.3951 0.59685 0.0
C1276 C 0.14338 0.34421 0.69042 0.0
C1277 C 0.17998 0.35395 0.70477 0.0
C1278 C 0.19596 0.39098 0.70864 0.0
C1279 C 0.17601 0.41817 0.69704 0.0
C1280 C 0.14031 0.40769 0.68155 0.0
C1281 C 0.12414 0.37146 0.6781 0.0
C1282 C 0.08964 0.36624 0.65372 0.0
C1283 C 0.09227 0.3381 0.62419 0.0
C1284 C 0.05484 0.35539 0.6728 0.0
C1285 C 0.09095 0.40449 0.64154 0.0
C1286 C 0.11911 0.42839 0.6593 0.0
C1287 C 0.12875 0.46402 0.64972 0.0
C1288 C 0.11082 0.47481 0.62006 0.0
C1289 C 0.08432 0.44969 0.59988 0.0
C1290 C 0.07285 0.41491 0.61189 0.0
H1291 H 0.68889 0.15099 0.68393 0.0
H1292 H 0.74292 0.23209 0.62055 0.0
H1293 H 0.71929 0.19296 0.56888 0.0
H1294 H 0.70589 0.07072 0.63002 0.0
H1295 H 0.66205 0.04491 0.63803 0.0
H1296 H 0.68609 0.07794 0.67004 0.0
H1297 H 0.62805 0.11093 0.67126 0.0
H1298 H 0.60396 0.07755 0.63993 0.0
H1299 H 0.60793 0.12538 0.63181 0.0
H1300 H 0.68241 0.14989 0.52454 0.0
H1301 H 0.63298 0.10749 0.49138 0.0
H1302 H 0.6084 0.05083 0.58281 0.0
C1303 C 0.69561 0.16052 0.65914 0.0
C1304 C 0.71719 0.19476 0.6561 0.0
C1305 C 0.72613 0.20602 0.62335 0.0
C1306 C 0.7132 0.18383 0.59392 0.0
C1307 C 0.69225 0.15001 0.59778 0.0
C1308 C 0.68371 0.1383 0.62959 0.0
C1309 C 0.65909 0.10171 0.62664 0.0
C1310 C 0.6795 0.07207 0.64211 0.0
C1311 C 0.6226 0.10406 0.64337 0.0
C1312 C 0.65295 0.09586 0.58811 0.0
C1313 C 0.67293 0.12372 0.5719 0.0
C1314 C 0.66763 0.12722 0.53673 0.0
C1315 C 0.63978 0.10289 0.518 0.0
C1316 C 0.61811 0.07524 0.53445 0.0
C1317 C 0.62604 0.0706 0.56949 0.0
H1318 H 0.83054 0.26508 0.3479 0.0
H1319 H 0.75544 0.3436 0.32981 0.0
H1320 H 0.79175 0.38617 0.37412 0.0
H1321 H 0.85805 0.2912 0.44379 0.0
H1322 H 0.9042 0.28247 0.43666 0.0
H1323 H 0.86462 0.25711 0.41182 0.0
H1324 H 0.89774 0.28007 0.3555 0.0
H1325 H 0.93483 0.30446 0.3838 0.0
H1326 H 0.9103 0.32833 0.35267 0.0
H1327 H 0.84198 0.42396 0.40961 0.0
H1328 H 0.90015 0.45404 0.43772 0.0
H1329 H 0.94509 0.35201 0.43516 0.0
C1330 C 0.82076 0.29045 0.35481 0.0
C1331 C 0.78952 0.30077 0.33668 0.0
C1332 C 0.77855 0.33494 0.34449 0.0
C1333 C 0.79914 0.35926 0.36943 0.0
C1334 C 0.8308 0.34898 0.38596 0.0
C1335 C 0.84145 0.31528 0.3793 0.0
C1336 C 0.87934 0.31313 0.39697 0.0
C1337 C 0.87646 0.28426 0.42391 0.0
C1338 C 0.90719 0.30602 0.37074 0.0
C1339 C 0.88891 0.35126 0.41367 0.0
C1340 C 0.86028 0.37123 0.40709 0.0
C1341 C 0.86396 0.4082 0.4161 0.0
C1342 C 0.89754 0.42521 0.4324 0.0
C1343 C 0.92736 0.40559 0.4402 0.0
C1344 C 0.92269 0.36783 0.43068 0.0
H1345 H 0.72987 0.7767 0.3513 0.0
H1346 H 0.65191 0.76436 0.26176 0.0
H1347 H 0.61332 0.80409 0.29075 0.0
H1348 H 0.66533 0.77757 0.4151 0.0
H1349 H 0.69343 0.81248 0.44274 0.0
H1350 H 0.7151 0.78349 0.41491 0.0
H1351 H 0.74901 0.8401 0.38846 0.0
H1352 H 0.72767 0.86951 0.41618 0.0
H1353 H 0.7228 0.87326 0.37052 0.0
H1354 H 0.5805 0.84107 0.33148 0.0
H1355 H 0.55855 0.87693 0.37839 0.0
H1356 H 0.65996 0.87091 0.44063 0.0
C1357 C 0.70471 0.78247 0.33779 0.0
C1358 C 0.69395 0.76738 0.30408 0.0
C1359 C 0.66093 0.7758 0.28732 0.0
C1360 C 0.63875 0.79826 0.30373 0.0
C1361 C 0.65012 0.81274 0.33689 0.0
C1362 C 0.68265 0.80564 0.35358 0.0
C1363 C 0.68894 0.82542 0.38887 0.0
C1364 C 0.6908 0.7981 0.41707 0.0
C1365 C 0.72419 0.85377 0.39114 0.0
C1366 C 0.65428 0.84384 0.38992 0.0
C1367 C 0.63225 0.83591 0.35963 0.0
C1368 C 0.59784 0.84785 0.35503 0.0
C1369 C 0.58553 0.8682 0.38189 0.0
C1370 C 0.60762 0.87726 0.41304 0.0
C1371 C 0.64272 0.8651 0.41691 0.0
H1372 H 0.17764 0.60462 0.29989 0.0
H1373 H 0.12154 0.69936 0.29174 0.0
H1374 H 0.0666 0.66585 0.31514 0.0
H1375 H 0.08541 0.53273 0.28747 0.0
H1376 H 0.10608 0.5044 0.31722 0.0
H1377 H 0.1343 0.5302 0.28828 0.0
H1378 H 0.17831 0.55977 0.33972 0.0
H1379 H 0.15045 0.53436 0.36846 0.0
H1380 H 0.15949 0.58346 0.37398 0.0
H1381 H 0.03103 0.63319 0.35663 0.0
H1382 H 0.01652 0.60242 0.40942 0.0
H1383 H 0.09102 0.5254 0.38765 0.0
C1384 C 0.15309 0.61754 0.30197 0.0
C1385 C 0.15339 0.65422 0.29476 0.0
C1386 C 0.12137 0.671 0.2974 0.0
C1387 C 0.08999 0.65206 0.31023 0.0
C1388 C 0.09102 0.6162 0.3191 0.0
C1389 C 0.12145 0.59867 0.31413 0.0
C1390 C 0.11868 0.56284 0.33118 0.0
C1391 C 0.11061 0.53064 0.30443 0.0
C1392 C 0.15376 0.56005 0.35474 0.0
C1393 C 0.08534 0.5659 0.35098 0.0
C1394 C 0.06857 0.59589 0.34244 0.0
C1395 C 0.04242 0.60856 0.36235 0.0
C1396 C 0.03429 0.59107 0.39228 0.0
C1397 C 0.0523 0.56147 0.40162 0.0
C1398 C 0.07668 0.54778 0.38016 0.0
H1399 H 0.30252 0.18452 0.34348 0.0
H1400 H 0.37262 0.18989 0.25912 0.0
H1401 H 0.41048 0.14744 0.28755 0.0
H1402 H 0.37081 0.18469 0.409 0.0
H1403 H 0.34431 0.15297 0.43455 0.0
H1404 H 0.32095 0.18035 0.40592 0.0
H1405 H 0.28229 0.12219 0.37598 0.0
H1406 H 0.30515 0.09462 0.40495 0.0
H1407 H 0.30558 0.08627 0.35943 0.0
H1408 H 0.44654 0.11254 0.33091 0.0
H1409 H 0.4722 0.08244 0.38057 0.0
H1410 H 0.37484 0.09502 0.43381 0.0
C1411 C 0.32518 0.17579 0.33051 0.0
C1412 C 0.33443 0.19002 0.29888 0.0
C1413 C 0.36467 0.1787 0.28298 0.0
C1414 C 0.38642 0.15481 0.29913 0.0
C1415 C 0.37709 0.14194 0.33085 0.0
C1416 C 0.34653 0.15142 0.3459 0.0
C1417 C 0.34281 0.13501 0.38047 0.0
C1418 C 0.34486 0.16505 0.40916 0.0
C1419 C 0.30682 0.1079 0.38018 0.0
C1420 C 0.37662 0.11555 0.38318 0.0
C1421 C 0.39632 0.12009 0.35447 0.0
C1422 C 0.43065 0.10791 0.35292 0.0
C1423 C 0.44509 0.09083 0.38125 0.0
C1424 C 0.42497 0.08529 0.41055 0.0
C1425 C 0.39012 0.09753 0.4112 0.0
H1426 H 0.66116 0.76224 0.66148 0.0
H1427 H 0.73899 0.84531 0.71955 0.0
H1428 H 0.71104 0.89332 0.68898 0.0
H1429 H 0.66072 0.80279 0.58319 0.0
H1430 H 0.61197 0.78938 0.57153 0.0
H1431 H 0.63633 0.76241 0.59978 0.0
H1432 H 0.5895 0.76915 0.64532 0.0
H1433 H 0.56485 0.79607 0.61709 0.0
H1434 H 0.58159 0.81406 0.65959 0.0
H1435 H 0.67811 0.93176 0.64606 0.0
H1436 H 0.64126 0.95644 0.59946 0.0
H1437 H 0.58243 0.84776 0.57292 0.0
C1438 C 0.67187 0.79059 0.66828 0.0
C1439 C 0.70221 0.80007 0.69301 0.0
C1440 C 0.71555 0.83744 0.70099 0.0
C1441 C 0.69988 0.86485 0.6836 0.0
C1442 C 0.67034 0.85447 0.6588 0.0
C1443 C 0.65607 0.81814 0.65173 0.0
C1444 C 0.62478 0.81376 0.62364 0.0
C1445 C 0.63402 0.79073 0.59271 0.0
C1446 C 0.588 0.79728 0.63723 0.0
C1447 C 0.62421 0.85318 0.61512 0.0
C1448 C 0.65068 0.87638 0.63555 0.0
C1449 C 0.65689 0.91378 0.63047 0.0
C1450 C 0.63581 0.9276 0.60385 0.0
C1451 C 0.60843 0.90426 0.58271 0.0
C1452 C 0.60243 0.86662 0.589 0.0
H1453 H 0.63091 0.18358 0.33247 0.0
H1454 H 0.66 0.10179 0.26118 0.0
H1455 H 0.6126 0.05589 0.28185 0.0
H1456 H 0.6276 0.13285 0.39924 0.0
H1457 H 0.58895 0.14868 0.41826 0.0
H1458 H 0.61583 0.17743 0.39092 0.0
H1459 H 0.55611 0.18246 0.35266 0.0
H1460 H 0.52908 0.15311 0.37993 0.0
H1461 H 0.52728 0.14157 0.33475 0.0
H1462 H 0.57599 0.01693 0.31783 0.0
H1463 H 0.55641 0.98695 0.36961 0.0
H1464 H 0.54878 0.09189 0.41895 0.0
C1465 C 0.62618 0.15624 0.32058 0.0
C1466 C 0.64875 0.14596 0.29537 0.0
C1467 C 0.64288 0.10996 0.28069 0.0
C1468 C 0.61564 0.08389 0.29189 0.0
C1469 C 0.5945 0.09433 0.31771 0.0
C1470 C 0.59931 0.12971 0.33192 0.0
C1471 C 0.57833 0.13208 0.36363 0.0
C1472 C 0.60424 0.14869 0.39482 0.0
C1473 C 0.54577 0.15359 0.35735 0.0
C1474 C 0.56444 0.09204 0.36701 0.0
C1475 C 0.57257 0.07098 0.3393 0.0
C1476 C 0.56819 0.03302 0.33905 0.0
C1477 C 0.5572 0.0162 0.3685 0.0
C1478 C 0.55059 0.0374 0.39747 0.0
C1479 C 0.55247 0.07544 0.39632 0.0
H1480 H 0.88084 0.66699 0.27572 0.0
H1481 H 0.78188 0.58715 0.2614 0.0
H1482 H 0.81732 0.53987 0.28271 0.0
H1483 H 0.95383 0.59655 0.27041 0.0
H1484 H 0.98256 0.62365 0.30405 0.0
H1485 H 0.9568 0.64554 0.27217 0.0
H1486 H 0.92688 0.67841 0.32009 0.0
H1487 H 0.95219 0.6567 0.35168 0.0
H1488 H 0.90233 0.65163 0.35086 0.0
H1489 H 0.85457 0.50831 0.3209 0.0
H1490 H 0.88488 0.49795 0.37641 0.0
H1491 H 0.95794 0.60045 0.37344 0.0
C1492 C 0.86731 0.63904 0.27557 0.0
C1493 C 0.82895 0.63034 0.26718 0.0
C1494 C 0.81141 0.59405 0.26782 0.0
C1495 C 0.83153 0.56702 0.27948 0.0
C1496 C 0.86892 0.57699 0.29059 0.0
C1497 C 0.88681 0.61231 0.28847 0.0
C1498 C 0.92316 0.61898 0.3104 0.0
C1499 C 0.95603 0.62129 0.28792 0.0
C1500 C 0.92619 0.65339 0.3347 0.0
C1501 C 0.91981 0.58425 0.3294 0.0
C1502 C 0.89011 0.55923 0.31554 0.0
C1503 C 0.87833 0.52729 0.33146 0.0
C1504 C 0.89554 0.52187 0.36331 0.0
C1505 C 0.92344 0.54888 0.37945 0.0
C1506 C 0.937 0.57933 0.36146 0.0
H1507 H 0.33358 0.84351 0.31921 0.0
H1508 H 0.30395 0.7477 0.37669 0.0
H1509 H 0.32454 0.78466 0.43056 0.0
H1510 H 0.41455 0.87796 0.36602 0.0
H1511 H 0.40848 0.92512 0.3626 0.0
H1512 H 0.38704 0.89163 0.33023 0.0
H1513 H 0.32332 0.91175 0.34018 0.0
H1514 H 0.34472 0.94465 0.37348 0.0
H1515 H 0.30678 0.91056 0.3823 0.0
H1516 H 0.3562 0.82979 0.47668 0.0
H1517 H 0.40244 0.87571 0.50934 0.0
H1518 H 0.40768 0.94296 0.4221 0.0
C1519 C 0.33127 0.83008 0.34306 0.0
C1520 C 0.31757 0.79249 0.34369 0.0
C1521 C 0.31463 0.77637 0.37557 0.0
C1522 C 0.3258 0.79728 0.40627 0.0
C1523 C 0.33896 0.8344 0.40461 0.0
C1524 C 0.34169 0.85055 0.37372 0.0
C1525 C 0.35973 0.88995 0.3783 0.0
C1526 C 0.39451 0.89651 0.35813 0.0
C1527 C 0.33198 0.91575 0.36796 0.0
C1528 C 0.36934 0.89291 0.41653 0.0
C1529 C 0.35609 0.8609 0.43143 0.0
C1530 C 0.36583 0.85526 0.46553 0.0
C1531 C 0.39182 0.88167 0.48405 0.0
C1532 C 0.40787 0.9131 0.46833 0.0
C1533 C 0.3946 0.91991 0.43503 0.0
H1534 H 0.23333 0.3101 0.37719 0.0
H1535 H 0.26857 0.39591 0.31006 0.0
H1536 H 0.2479 0.44122 0.35 0.0
H1537 H 0.15183 0.33735 0.39091 0.0
H1538 H 0.15041 0.32494 0.43472 0.0
H1539 H 0.17629 0.30152 0.40607 0.0
H1540 H 0.23548 0.31833 0.44727 0.0
H1541 H 0.20965 0.34177 0.47631 0.0
H1542 H 0.25118 0.36542 0.46077 0.0
H1543 H 0.21579 0.47476 0.39267 0.0
H1544 H 0.16996 0.49297 0.43072 0.0
H1545 H 0.15208 0.38345 0.46674 0.0
C1546 C 0.23781 0.33863 0.37143 0.0
C1547 C 0.25276 0.34987 0.34096 0.0
C1548 C 0.25736 0.3871 0.33361 0.0
C1549 C 0.24598 0.4129 0.35622 0.0
C1550 C 0.23022 0.40069 0.38576 0.0
C1551 C 0.22607 0.36433 0.39328 0.0
C1552 C 0.20296 0.35687 0.42322 0.0
C1553 C 0.16834 0.32853 0.41309 0.0
C1554 C 0.22622 0.3449 0.4537 0.0
C1555 C 0.19297 0.39436 0.43034 0.0
C1556 C 0.21002 0.41958 0.40935 0.0
C1557 C 0.20285 0.45546 0.40965 0.0
C1558 C 0.17684 0.46552 0.43132 0.0
C1559 C 0.15777 0.43944 0.45152 0.0
C1560 C 0.16658 0.40379 0.45161 0.0
H1561 H 0.28184 0.20376 0.63776 0.0
H1562 H 0.3654 0.23843 0.72105 0.0
H1563 H 0.40853 0.20271 0.69345 0.0
H1564 H 0.30347 0.11105 0.62722 0.0
H1565 H 0.29506 0.10814 0.58131 0.0
H1566 H 0.2706 0.13677 0.60689 0.0
H1567 H 0.29355 0.19236 0.57326 0.0
H1568 H 0.318 0.16433 0.54702 0.0
H1569 H 0.34253 0.20496 0.56967 0.0
H1570 H 0.44444 0.16715 0.65441 0.0
H1571 H 0.46863 0.12951 0.61028 0.0
H1572 H 0.36094 0.11243 0.55358 0.0
C1573 C 0.30927 0.20382 0.65014 0.0
C1574 C 0.32029 0.22413 0.68168 0.0
C1575 C 0.35622 0.22304 0.69715 0.0
C1576 C 0.38097 0.2029 0.68151 0.0
C1577 C 0.3694 0.18336 0.65042 0.0
C1578 C 0.33418 0.18318 0.6351 0.0
C1579 C 0.32853 0.15909 0.60205 0.0
C1580 C 0.29759 0.12682 0.60453 0.0
C1581 C 0.32017 0.18154 0.57118 0.0
C1582 C 0.36628 0.14624 0.60082 0.0
C1583 C 0.38946 0.16099 0.62889 0.0
C1584 C 0.42632 0.15509 0.63265 0.0
C1585 C 0.43989 0.13369 0.6073 0.0
C1586 C 0.41677 0.11753 0.57854 0.0
C1587 C 0.37923 0.12377 0.57551 0.0
H1588 H 0.85941 0.29042 0.62283 0.0
H1589 H 0.92304 0.32441 0.71871 0.0
H1590 H 0.9689 0.3637 0.68831 0.0
H1591 H 0.94495 0.30243 0.56584 0.0
H1592 H 0.91549 0.31773 0.53235 0.0
H1593 H 0.89689 0.2826 0.55935 0.0
H1594 H 0.84585 0.32125 0.57387 0.0
H1595 H 0.86475 0.35677 0.54811 0.0
H1596 H 0.8591 0.36699 0.59257 0.0
H1597 H 0.9946 0.41235 0.65144 0.0
H1598 H 1.00127 0.46118 0.61002 0.0
H1599 H 0.92065 0.39478 0.53878 0.0
C1600 C 0.88413 0.30478 0.63694 0.0
C1601 C 0.88806 0.30502 0.67265 0.0
C1602 C 0.92011 0.32399 0.69104 0.0
C1603 C 0.94628 0.3462 0.67397 0.0
C1604 C 0.9402 0.34788 0.63865 0.0
C1605 C 0.91049 0.32654 0.62014 0.0
C1606 C 0.90606 0.33765 0.5838 0.0
C1607 C 0.91649 0.30837 0.55886 0.0
C1608 C 0.86665 0.34621 0.57411 0.0
C1609 C 0.93448 0.37144 0.58607 0.0
C1610 C 0.95508 0.37625 0.61729 0.0
C1611 C 0.97951 0.40828 0.62653 0.0
C1612 C 0.98278 0.43599 0.60324 0.0
C1613 C 0.96076 0.43154 0.57195 0.0
C1614 C 0.93727 0.39869 0.56298 0.0
H1615 H 0.21438 0.63602 0.665 0.0
H1616 H 0.23112 0.74454 0.62653 0.0
H1617 H 0.18625 0.72354 0.57728 0.0
H1618 H 0.20033 0.58555 0.57846 0.0
H1619 H 0.16567 0.55119 0.59259 0.0
H1620 H 0.20309 0.57281 0.62224 0.0
H1621 H 0.15626 0.59197 0.66318 0.0
H1622 H 0.11841 0.5705 0.63417 0.0
H1623 H 0.12113 0.618 0.64756 0.0
H1624 H 0.13147 0.69378 0.5385 0.0
H1625 H 0.07601 0.65569 0.50953 0.0
H1626 H 0.09704 0.56556 0.57127 0.0
C1627 C 0.20965 0.65498 0.64551 0.0
C1628 C 0.22663 0.6918 0.64939 0.0
C1629 C 0.21913 0.71602 0.62374 0.0
C1630 C 0.19343 0.70438 0.59576 0.0
C1631 C 0.17606 0.66824 0.59341 0.0
C1632 C 0.18451 0.64364 0.61717 0.0
C1633 C 0.16031 0.60696 0.60998 0.0
C1634 C 0.18375 0.57738 0.60025 0.0
C1635 C 0.1377 0.59626 0.64053 0.0
C1636 C 0.13564 0.61531 0.57956 0.0
C1637 C 0.14528 0.65074 0.57026 0.0
C1638 C 0.12429 0.66571 0.54496 0.0
C1639 C 0.0927 0.64395 0.52879 0.0
C1640 C 0.08247 0.60753 0.53783 0.0
C1641 C 0.10464 0.59301 0.56323 0.0
loop_
_geom_bond_atom_site_label_1
_geom_bond_atom_site_label_2
_geom_bond_distance
_geom_bond_site_symmetry_2
_ccdc_geom_bond_type
Tb0 O3 2.453 . S
Tb0 O4 2.596 . S
Tb0 O5 2.374 . S
Tb0 O13 2.343 . S
Tb0 O15 2.353 . S
Tb0 O17 2.427 . S
Tb0 O18 2.513 . S
C1 O5 1.251 . S
C1 O7 1.263 . S
Tb2 O4 2.343 . S
Tb2 O7 2.353 . S
Tb2 O10 2.427 . S
Tb2 O11 2.513 . S
Tb2 O12 2.453 . S
Tb2 O13 2.596 . S
Tb2 O14 2.374 . S
O3 Tb0 2.453 . S
O3 C19 1.245 . S
O4 Tb0 2.596 . S
O4 Tb2 2.343 . S
O4 C19 1.259 . S
O5 Tb0 2.374 . S
O5 C1 1.251 . S
C6 O10 1.275 . S
C6 O11 1.246 . S
O7 C1 1.263 . S
O7 Tb2 2.353 . S
C8 O12 1.245 . S
C8 O13 1.259 . S
C9 O14 1.250 . S
C9 O15 1.263 . S
O10 Tb2 2.427 . S
O10 C6 1.275 . S
O11 Tb2 2.513 . S
O11 C6 1.246 . S
O12 Tb2 2.453 . S
O12 C8 1.245 . S
O13 Tb0 2.343 . S
O13 Tb2 2.596 . S
O13 C8 1.259 . S
O14 Tb2 2.374 . S
O14 C9 1.250 . S
O15 Tb0 2.353 . S
O15 C9 1.263 . S
C16 O17 1.275 . S
C16 O18 1.246 . S
O17 Tb0 2.427 . S
O17 C16 1.275 . S
O18 Tb0 2.513 . S
O18 C16 1.246 . S
C19 O3 1.245 . S
C19 O4 1.259 . S
Tb20 O23 2.453 . S
Tb20 O24 2.596 . S
Tb20 O25 2.374 . S
Tb20 O33 2.343 . S
Tb20 O35 2.353 . S
Tb20 O37 2.427 . S
Tb20 O38 2.513 . S
C21 O25 1.251 . S
C21 O27 1.263 . S
Tb22 O24 2.343 . S
Tb22 O27 2.353 . S
Tb22 O30 2.427 . S
Tb22 O31 2.513 . S
Tb22 O32 2.453 . S
Tb22 O33 2.596 . S
Tb22 O34 2.374 . S
O23 Tb20 2.453 . S
O23 C39 1.245 . S
O24 Tb20 2.596 . S
O24 Tb22 2.343 . S
O24 C39 1.259 . S
O25 Tb20 2.374 . S
O25 C21 1.251 . S
C26 O30 1.275 . S
C26 O31 1.246 . S
O27 C21 1.263 . S
O27 Tb22 2.353 . S
C28 O32 1.245 . S
C28 O33 1.259 . S
C29 O34 1.250 . S
C29 O35 1.263 . S
O30 Tb22 2.427 . S
O30 C26 1.275 . S
O31 Tb22 2.513 . S
O31 C26 1.246 . S
O32 Tb22 2.453 . S
O32 C28 1.245 . S
O33 Tb20 2.343 . S
O33 Tb22 2.596 . S
O33 C28 1.259 . S
O34 Tb22 2.374 . S
O34 C29 1.250 . S
O35 Tb20 2.353 . S
O35 C29 1.263 . S
C36 O37 1.275 . S
C36 O38 1.246 . S
O37 Tb20 2.427 . S
O37 C36 1.275 . S
O38 Tb20 2.513 . S
O38 C36 1.246 . S
C39 O23 1.245 . S
C39 O24 1.259 . S
Tb40 O43 2.453 . S
Tb40 O44 2.596 . S
Tb40 O45 2.374 . S
Tb40 O53 2.343 . S
Tb40 O55 2.353 . S
Tb40 O57 2.427 . S
Tb40 O58 2.513 . S
C41 O45 1.251 . S
C41 O47 1.263 . S
Tb42 O44 2.343 . S
Tb42 O47 2.353 . S
Tb42 O50 2.427 . S
Tb42 O51 2.513 . S
Tb42 O52 2.453 . S
Tb42 O53 2.596 . S
Tb42 O54 2.374 . S
O43 Tb40 2.453 . S
O43 C59 1.245 . S
O44 Tb40 2.596 . S
O44 Tb42 2.343 . S
O44 C59 1.259 . S
O45 Tb40 2.374 . S
O45 C41 1.251 . S
C46 O50 1.275 . S
C46 O51 1.246 . S
O47 C41 1.263 . S
O47 Tb42 2.353 . S
C48 O52 1.245 . S
C48 O53 1.259 . S
C49 O54 1.250 . S
C49 O55 1.263 . S
O50 Tb42 2.427 . S
O50 C46 1.275 . S
O51 Tb42 2.513 . S
O51 C46 1.246 . S
O52 Tb42 2.453 . S
O52 C48 1.245 . S
O53 Tb40 2.343 . S
O53 Tb42 2.596 . S
O53 C48 1.259 . S
O54 Tb42 2.374 . S
O54 C49 1.250 . S
O55 Tb40 2.353 . S
O55 C49 1.263 . S
C56 O57 1.275 . S
C56 O58 1.246 . S
O57 Tb40 2.427 . S
O57 C56 1.275 . S
O58 Tb40 2.513 . S
O58 C56 1.246 . S
C59 O43 1.245 . S
C59 O44 1.259 . S
Tb60 O63 2.453 . S
Tb60 O64 2.596 . S
Tb60 O65 2.374 . S
Tb60 O73 2.343 . S
Tb60 O75 2.353 . S
Tb60 O77 2.427 . S
Tb60 O78 2.513 . S
C61 O65 1.251 . S
C61 O67 1.263 . S
Tb62 O64 2.343 . S
Tb62 O67 2.353 . S
Tb62 O70 2.427 . S
Tb62 O71 2.513 . S
Tb62 O72 2.453 . S
Tb62 O73 2.596 . S
Tb62 O74 2.374 . S
O63 Tb60 2.453 . S
O63 C79 1.245 . S
O64 Tb60 2.596 . S
O64 Tb62 2.343 . S
O64 C79 1.259 . S
O65 Tb60 2.374 . S
O65 C61 1.251 . S
C66 O70 1.275 . S
C66 O71 1.246 . S
O67 C61 1.263 . S
O67 Tb62 2.353 . S
C68 O72 1.245 . S
C68 O73 1.259 . S
C69 O74 1.250 . S
C69 O75 1.263 . S
O70 Tb62 2.427 . S
O70 C66 1.275 . S
O71 Tb62 2.513 . S
O71 C66 1.246 . S
O72 Tb62 2.453 . S
O72 C68 1.245 . S
O73 Tb60 2.343 . S
O73 Tb62 2.596 . S
O73 C68 1.259 . S
O74 Tb62 2.374 . S
O74 C69 1.250 . S
O75 Tb60 2.353 . S
O75 C69 1.263 . S
C76 O77 1.275 . S
C76 O78 1.246 . S
O77 Tb60 2.427 . S
O77 C76 1.275 . S
O78 Tb60 2.513 . S
O78 C76 1.246 . S
C79 O63 1.245 . S
C79 O64 1.259 . S
Tb80 O83 2.453 . S
Tb80 O84 2.596 . S
Tb80 O85 2.374 . S
Tb80 O93 2.343 . S
Tb80 O95 2.353 . S
Tb80 O97 2.427 . S
Tb80 O98 2.513 . S
C81 O85 1.251 . S
C81 O87 1.263 . S
Tb82 O84 2.343 . S
Tb82 O87 2.353 . S
Tb82 O90 2.427 . S
Tb82 O91 2.513 . S
Tb82 O92 2.453 . S
Tb82 O93 2.596 . S
Tb82 O94 2.374 . S
O83 Tb80 2.453 . S
O83 C99 1.245 . S
O84 Tb80 2.596 . S
O84 Tb82 2.343 . S
O84 C99 1.259 . S
O85 Tb80 2.374 . S
O85 C81 1.251 . S
C86 O90 1.275 . S
C86 O91 1.246 . S
O87 C81 1.263 . S
O87 Tb82 2.353 . S
C88 O92 1.245 . S
C88 O93 1.259 . S
C89 O94 1.250 . S
C89 O95 1.263 . S
O90 Tb82 2.427 . S
O90 C86 1.275 . S
O91 Tb82 2.513 . S
O91 C86 1.246 . S
O92 Tb82 2.453 . S
O92 C88 1.245 . S
O93 Tb80 2.343 . S
O93 Tb82 2.596 . S
O93 C88 1.259 . S
O94 Tb82 2.374 . S
O94 C89 1.250 . S
O95 Tb80 2.353 . S
O95 C89 1.263 . S
C96 O97 1.275 . S
C96 O98 1.246 . S
O97 Tb80 2.427 . S
O97 C96 1.275 . S
O98 Tb80 2.513 . S
O98 C96 1.246 . S
C99 O83 1.245 . S
C99 O84 1.259 . S
Tb100 O103 2.453 . S
Tb100 O104 2.596 . S
Tb100 O105 2.374 . S
Tb100 O113 2.343 . S
Tb100 O115 2.353 . S
Tb100 O117 2.427 . S
Tb100 O118 2.513 . S
C101 O105 1.251 . S
C101 O107 1.263 . S
Tb102 O104 2.343 . S
Tb102 O107 2.353 . S
Tb102 O110 2.427 . S
Tb102 O111 2.513 . S
Tb102 O112 2.453 . S
Tb102 O113 2.596 . S
Tb102 O114 2.374 . S
O103 Tb100 2.453 . S
O103 C119 1.245 . S
O104 Tb100 2.596 . S
O104 Tb102 2.343 . S
O104 C119 1.259 . S
O105 Tb100 2.374 . S
O105 C101 1.251 . S
C106 O110 1.275 . S
C106 O111 1.246 . S
O107 C101 1.263 . S
O107 Tb102 2.353 . S
C108 O112 1.245 . S
C108 O113 1.259 . S
C109 O114 1.250 . S
C109 O115 1.263 . S
O110 Tb102 2.427 . S
O110 C106 1.275 . S
O111 Tb102 2.513 . S
O111 C106 1.246 . S
O112 Tb102 2.453 . S
O112 C108 1.245 . S
O113 Tb100 2.343 . S
O113 Tb102 2.596 . S
O113 C108 1.259 . S
O114 Tb102 2.374 . S
O114 C109 1.250 . S
O115 Tb100 2.353 . S
O115 C109 1.263 . S
C116 O117 1.275 . S
C116 O118 1.246 . S
O117 Tb100 2.427 . S
O117 C116 1.275 . S
O118 Tb100 2.513 . S
O118 C116 1.246 . S
C119 O103 1.245 . S
C119 O104 1.259 . S
Tb120 O123 2.453 . S
Tb120 O124 2.596 . S
Tb120 O125 2.374 . S
Tb120 O133 2.343 . S
Tb120 O135 2.353 . S
Tb120 O137 2.427 . S
Tb120 O138 2.513 . S
C121 O125 1.251 . S
C121 O127 1.263 . S
Tb122 O124 2.343 . S
Tb122 O127 2.353 . S
Tb122 O130 2.427 . S
Tb122 O131 2.513 . S
Tb122 O132 2.453 . S
Tb122 O133 2.596 . S
Tb122 O134 2.374 . S
O123 Tb120 2.453 . S
O123 C139 1.245 . S
O124 Tb120 2.596 . S
O124 Tb122 2.343 . S
O124 C139 1.259 . S
O125 Tb120 2.374 . S
O125 C121 1.251 . S
C126 O130 1.275 . S
C126 O131 1.246 . S
O127 C121 1.263 . S
O127 Tb122 2.353 . S
C128 O132 1.245 . S
C128 O133 1.259 . S
C129 O134 1.250 . S
C129 O135 1.263 . S
O130 Tb122 2.427 . S
O130 C126 1.275 . S
O131 Tb122 2.513 . S
O131 C126 1.246 . S
O132 Tb122 2.453 . S
O132 C128 1.245 . S
O133 Tb120 2.343 . S
O133 Tb122 2.596 . S
O133 C128 1.259 . S
O134 Tb122 2.374 . S
O134 C129 1.250 . S
O135 Tb120 2.353 . S
O135 C129 1.263 . S
C136 O137 1.275 . S
C136 O138 1.246 . S
O137 Tb120 2.427 . S
O137 C136 1.275 . S
O138 Tb120 2.513 . S
O138 C136 1.246 . S
C139 O123 1.245 . S
C139 O124 1.259 . S
Tb140 O143 2.453 . S
Tb140 O144 2.596 . S
Tb140 O145 2.374 . S
Tb140 O153 2.343 . S
Tb140 O155 2.353 . S
Tb140 O157 2.427 . S
Tb140 O158 2.513 . S
C141 O145 1.251 . S
C141 O147 1.263 . S
Tb142 O144 2.343 . S
Tb142 O147 2.353 . S
Tb142 O150 2.427 . S
Tb142 O151 2.513 . S
Tb142 O152 2.453 . S
Tb142 O153 2.596 . S
Tb142 O154 2.374 . S
O143 Tb140 2.453 . S
O143 C159 1.245 . S
O144 Tb140 2.596 . S
O144 Tb142 2.343 . S
O144 C159 1.259 . S
O145 Tb140 2.374 . S
O145 C141 1.251 . S
C146 O150 1.275 . S
C146 O151 1.246 . S
O147 C141 1.263 . S
O147 Tb142 2.353 . S
C148 O152 1.245 . S
C148 O153 1.259 . S
C149 O154 1.250 . S
C149 O155 1.263 . S
O150 Tb142 2.427 . S
O150 C146 1.275 . S
O151 Tb142 2.513 . S
O151 C146 1.246 . S
O152 Tb142 2.453 . S
O152 C148 1.245 . S
O153 Tb140 2.343 . S
O153 Tb142 2.596 . S
O153 C148 1.259 . S
O154 Tb142 2.374 . S
O154 C149 1.250 . S
O155 Tb140 2.353 . S
O155 C149 1.263 . S
C156 O157 1.275 . S
C156 O158 1.246 . S
O157 Tb140 2.427 . S
O157 C156 1.275 . S
O158 Tb140 2.513 . S
O158 C156 1.246 . S
C159 O143 1.245 . S
C159 O144 1.259 . S
C160 O172 1.241 . S
C160 O173 1.280 . S
C161 O174 1.277 . S
C161 O175 1.245 . S
C162 O186 1.247 . S
C162 O188 1.289 . S
Mg163 O164 1.926 . S
Mg163 O173 1.984 . S
Mg163 O175 1.988 . S
Mg163 O176 2.061 1_655 S
O164 Mg163 1.926 . S
O164 Mg165 1.986 . S
O164 Mg166 1.917 1_655 S
Mg165 O164 1.986 . S
Mg165 O172 2.042 . S
Mg165 O174 2.041 . S
Mg165 O180 2.038 1_545 S
Mg165 O188 2.238 1_545 S
Mg166 O164 1.917 1_455 S
Mg166 O167 1.917 1_545 S
Mg166 O177 2.106 . S
Mg166 O179 2.079 1_445 S
Mg166 O188 2.106 1_445 S
Mg166 O189 2.079 . S
O167 Mg166 1.917 1_565 S
O167 Mg168 1.926 . S
O167 Mg169 1.986 . S
Mg168 O167 1.926 . S
Mg168 O182 1.984 . S
Mg168 O185 1.988 . S
Mg168 O186 2.061 1_455 S
Mg169 O167 1.986 . S
Mg169 O177 2.238 1_565 S
Mg169 O181 2.042 . S
Mg169 O183 2.041 . S
Mg169 O190 2.038 1_565 S
C170 O176 1.247 . S
C170 O177 1.289 . S
C171 O189 1.245 . S
C171 O190 1.274 . S
O172 C160 1.241 . S
O172 Mg165 2.042 . S
O173 C160 1.280 . S
O173 Mg163 1.984 . S
O174 C161 1.277 . S
O174 Mg165 2.041 . S
O175 C161 1.245 . S
O175 Mg163 1.988 . S
O176 Mg163 2.061 1_455 S
O176 C170 1.247 . S
O177 Mg166 2.106 . S
O177 Mg169 2.238 1_545 S
O177 C170 1.289 . S
C178 O179 1.245 . S
C178 O180 1.274 . S
O179 Mg166 2.079 1_665 S
O179 C178 1.245 . S
O180 Mg165 2.038 1_565 S
O180 C178 1.274 . S
O181 Mg169 2.042 . S
O181 C184 1.241 . S
O182 Mg168 1.984 . S
O182 C184 1.280 . S
O183 Mg169 2.041 . S
O183 C187 1.277 . S
C184 O181 1.241 . S
C184 O182 1.280 . S
O185 Mg168 1.988 . S
O185 C187 1.245 . S
O186 C162 1.247 . S
O186 Mg168 2.061 1_655 S
C187 O183 1.277 . S
C187 O185 1.245 . S
O188 C162 1.289 . S
O188 Mg165 2.238 1_565 S
O188 Mg166 2.106 1_665 S
O189 Mg166 2.079 . S
O189 C171 1.245 . S
O190 Mg169 2.038 1_545 S
O190 C171 1.274 . S
C191 O203 1.241 . S
C191 O204 1.280 . S
C192 O205 1.277 . S
C192 O206 1.245 . S
C193 O217 1.247 . S
C193 O219 1.289 . S
Mg194 O195 1.926 . S
Mg194 O204 1.984 . S
Mg194 O206 1.988 1_554 S
Mg194 O207 2.061 . S
O195 Mg194 1.926 . S
O195 Mg196 1.986 1_554 S
O195 Mg197 1.917 . S
Mg196 O195 1.986 1_556 S
Mg196 O203 2.042 1_556 S
Mg196 O205 2.041 . S
Mg196 O211 2.038 1_546 S
Mg196 O219 2.238 1_545 S
Mg197 O195 1.917 . S
Mg197 O198 1.917 1_544 S
Mg197 O208 2.106 . S
Mg197 O210 2.079 1_545 S
Mg197 O219 2.106 1_544 S
Mg197 O220 2.079 1_554 S
O198 Mg197 1.917 1_566 S
O198 Mg199 1.926 . S
O198 Mg200 1.986 1_556 S
Mg199 O198 1.926 . S
Mg199 O213 1.984 . S
Mg199 O216 1.988 1_556 S
Mg199 O217 2.061 . S
Mg200 O198 1.986 1_554 S
Mg200 O208 2.238 1_565 S
Mg200 O212 2.042 1_554 S
Mg200 O214 2.041 . S
Mg200 O221 2.038 1_564 S
C201 O207 1.247 . S
C201 O208 1.289 . S
C202 O220 1.245 . S
C202 O221 1.274 . S
O203 C191 1.241 . S
O203 Mg196 2.042 1_554 S
O204 C191 1.280 . S
O204 Mg194 1.984 . S
O205 C192 1.277 . S
O205 Mg196 2.041 . S
O206 C192 1.245 . S
O206 Mg194 1.988 1_556 S
O207 Mg194 2.061 . S
O207 C201 1.247 . S
O208 Mg197 2.106 . S
O208 Mg200 2.238 1_545 S
O208 C201 1.289 . S
C209 O210 1.245 . S
C209 O211 1.274 . S
O210 Mg197 2.079 1_565 S
O210 C209 1.245 . S
O211 Mg196 2.038 1_564 S
O211 C209 1.274 . S
O212 Mg200 2.042 1_556 S
O212 C215 1.241 . S
O213 Mg199 1.984 . S
O213 C215 1.280 . S
O214 Mg200 2.041 . S
O214 C218 1.277 . S
C215 O212 1.241 . S
C215 O213 1.280 . S
O216 Mg199 1.988 1_554 S
O216 C218 1.245 . S
O217 C193 1.247 . S
O217 Mg199 2.061 . S
C218 O214 1.277 . S
C218 O216 1.245 . S
O219 C193 1.289 . S
O219 Mg196 2.238 1_565 S
O219 Mg197 2.106 1_566 S
O220 Mg197 2.079 1_556 S
O220 C202 1.245 . S
O221 Mg200 2.038 1_546 S
O221 C202 1.274 . S
C222 O234 1.241 . S
C222 O235 1.280 . S
C223 O236 1.277 . S
C223 O237 1.245 . S
C224 O248 1.247 . S
C224 O250 1.289 . S
Mg225 O226 1.926 . S
Mg225 O235 1.984 . S
Mg225 O237 1.988 1_554 S
Mg225 O238 2.061 1_655 S
O226 Mg225 1.926 . S
O226 Mg227 1.986 1_554 S
O226 Mg228 1.917 1_655 S
Mg227 O226 1.986 1_556 S
Mg227 O234 2.042 1_556 S
Mg227 O236 2.041 . S
Mg227 O242 2.038 1_556 S
Mg227 O250 2.238 . S
Mg228 O226 1.917 1_455 S
Mg228 O229 1.917 1_554 S
Mg228 O239 2.106 . S
Mg228 O241 2.079 1_455 S
Mg228 O250 2.106 1_454 S
Mg228 O251 2.079 1_554 S
O229 Mg228 1.917 1_556 S
O229 Mg230 1.926 . S
O229 Mg231 1.986 1_556 S
Mg230 O229 1.926 . S
Mg230 O244 1.984 . S
Mg230 O247 1.988 1_556 S
Mg230 O248 2.061 1_455 S
Mg231 O229 1.986 1_554 S
Mg231 O239 2.238 . S
Mg231 O243 2.042 1_554 S
Mg231 O245 2.041 . S
Mg231 O252 2.038 1_554 S
C232 O238 1.247 . S
C232 O239 1.289 . S
C233 O251 1.245 . S
C233 O252 1.274 . S
O234 C222 1.241 . S
O234 Mg227 2.042 1_554 S
O235 C222 1.280 . S
O235 Mg225 1.984 . S
O236 C223 1.277 . S
O236 Mg227 2.041 . S
O237 C223 1.245 . S
O237 Mg225 1.988 1_556 S
O238 Mg225 2.061 1_455 S
O238 C232 1.247 . S
O239 Mg228 2.106 . S
O239 Mg231 2.238 . S
O239 C232 1.289 . S
C240 O241 1.245 . S
C240 O242 1.274 . S
O241 Mg228 2.079 1_655 S
O241 C240 1.245 . S
O242 Mg227 2.038 1_554 S
O242 C240 1.274 . S
O243 Mg231 2.042 1_556 S
O243 C246 1.241 . S
O244 Mg230 1.984 . S
O244 C246 1.280 . S
O245 Mg231 2.041 . S
O245 C249 1.277 . S
C246 O243 1.241 . S
C246 O244 1.280 . S
O247 Mg230 1.988 1_554 S
O247 C249 1.245 . S
O248 C224 1.247 . S
O248 Mg230 2.061 1_655 S
C249 O245 1.277 . S
C249 O247 1.245 . S
O250 C224 1.289 . S
O250 Mg227 2.238 . S
O250 Mg228 2.106 1_656 S
O251 Mg228 2.079 1_556 S
O251 C233 1.245 . S
O252 Mg231 2.038 1_556 S
O252 C233 1.274 . S
C253 O265 1.241 . S
C253 O266 1.280 . S
C254 O267 1.277 . S
C254 O268 1.245 . S
C255 O279 1.247 . S
C255 O281 1.289 . S
Mg256 O257 1.926 . S
Mg256 O266 1.984 . S
Mg256 O268 1.988 1_554 S
Mg256 O269 2.061 . S
O257 Mg256 1.926 . S
O257 Mg258 1.986 1_554 S
O257 Mg259 1.917 . S
Mg258 O257 1.986 1_556 S
Mg258 O265 2.042 1_556 S
Mg258 O267 2.041 . S
Mg258 O273 2.038 1_556 S
Mg258 O281 2.238 . S
Mg259 O257 1.917 . S
Mg259 O260 1.917 1_554 S
Mg259 O270 2.106 . S
Mg259 O272 2.079 . S
Mg259 O281 2.106 1_554 S
Mg259 O282 2.079 1_554 S
O260 Mg259 1.917 1_556 S
O260 Mg261 1.926 . S
O260 Mg262 1.986 1_556 S
Mg261 O260 1.926 . S
Mg261 O275 1.984 . S
Mg261 O278 1.988 1_556 S
Mg261 O279 2.061 . S
Mg262 O260 1.986 1_554 S
Mg262 O270 2.238 . S
Mg262 O274 2.042 1_554 S
Mg262 O276 2.041 . S
Mg262 O283 2.038 1_554 S
C263 O269 1.247 . S
C263 O270 1.289 . S
C264 O282 1.245 . S
C264 O283 1.274 . S
O265 C253 1.241 . S
O265 Mg258 2.042 1_554 S
O266 C253 1.280 . S
O266 Mg256 1.984 . S
O267 C254 1.277 . S
O267 Mg258 2.041 . S
O268 C254 1.245 . S
O268 Mg256 1.988 1_556 S
O269 Mg256 2.061 . S
O269 C263 1.247 . S
O270 Mg259 2.106 . S
O270 Mg262 2.238 . S
O270 C263 1.289 . S
C271 O272 1.245 . S
C271 O273 1.274 . S
O272 Mg259 2.079 . S
O272 C271 1.245 . S
O273 Mg258 2.038 1_554 S
O273 C271 1.274 . S
O274 Mg262 2.042 1_556 S
O274 C277 1.241 . S
O275 Mg261 1.984 . S
O275 C277 1.280 . S
O276 Mg262 2.041 . S
O276 C280 1.277 . S
C277 O274 1.241 . S
C277 O275 1.280 . S
O278 Mg261 1.988 1_554 S
O278 C280 1.245 . S
O279 C255 1.247 . S
O279 Mg261 2.061 . S
C280 O276 1.277 . S
C280 O278 1.245 . S
O281 C255 1.289 . S
O281 Mg258 2.238 . S
O281 Mg259 2.106 1_556 S
O282 Mg259 2.079 1_556 S
O282 C264 1.245 . S
O283 Mg262 2.038 1_556 S
O283 C264 1.274 . S
C284 O296 1.241 . S
C284 O297 1.280 . S
C285 O298 1.277 . S
C285 O299 1.245 . S
C286 O310 1.247 . S
C286 O312 1.289 . S
Mg287 O288 1.926 . S
Mg287 O297 1.984 . S
Mg287 O299 1.988 . S
Mg287 O300 2.061 1_655 S
O288 Mg287 1.926 . S
O288 Mg289 1.986 . S
O288 Mg290 1.917 1_655 S
Mg289 O288 1.986 . S
Mg289 O296 2.042 . S
Mg289 O298 2.041 . S
Mg289 O304 2.038 . S
Mg289 O312 2.238 . S
Mg290 O288 1.917 1_455 S
Mg290 O291 1.917 . S
Mg290 O301 2.106 . S
Mg290 O303 2.079 1_455 S
Mg290 O312 2.106 1_455 S
Mg290 O313 2.079 . S
O291 Mg290 1.917 . S
O291 Mg292 1.926 . S
O291 Mg293 1.986 . S
Mg292 O291 1.926 . S
Mg292 O306 1.984 . S
Mg292 O309 1.988 . S
Mg292 O310 2.061 1_455 S
Mg293 O291 1.986 . S
Mg293 O301 2.238 . S
Mg293 O305 2.042 . S
Mg293 O307 2.041 . S
Mg293 O314 2.038 . S
C294 O300 1.247 . S
C294 O301 1.289 . S
C295 O313 1.245 . S
C295 O314 1.274 . S
O296 C284 1.241 . S
O296 Mg289 2.042 . S
O297 C284 1.280 . S
O297 Mg287 1.984 . S
O298 C285 1.277 . S
O298 Mg289 2.041 . S
O299 C285 1.245 . S
O299 Mg287 1.988 . S
O300 Mg287 2.061 1_455 S
O300 C294 1.247 . S
O301 Mg290 2.106 . S
O301 Mg293 2.238 . S
O301 C294 1.289 . S
C302 O303 1.245 . S
C302 O304 1.274 . S
O303 Mg290 2.079 1_655 S
O303 C302 1.245 . S
O304 Mg289 2.038 . S
O304 C302 1.274 . S
O305 Mg293 2.042 . S
O305 C308 1.241 . S
O306 Mg292 1.984 . S
O306 C308 1.280 . S
O307 Mg293 2.041 . S
O307 C311 1.277 . S
C308 O305 1.241 . S
C308 O306 1.280 . S
O309 Mg292 1.988 . S
O309 C311 1.245 . S
O310 C286 1.247 . S
O310 Mg292 2.061 1_655 S
C311 O307 1.277 . S
C311 O309 1.245 . S
O312 C286 1.289 . S
O312 Mg289 2.238 . S
O312 Mg290 2.106 1_655 S
O313 Mg290 2.079 . S
O313 C295 1.245 . S
O314 Mg293 2.038 . S
O314 C295 1.274 . S
C315 O327 1.241 . S
C315 O328 1.280 . S
C316 O329 1.277 . S
C316 O330 1.245 . S
C317 O341 1.247 . S
C317 O343 1.289 . S
Mg318 O319 1.926 . S
Mg318 O328 1.984 . S
Mg318 O330 1.988 . S
Mg318 O331 2.061 . S
O319 Mg318 1.926 . S
O319 Mg320 1.986 . S
O319 Mg321 1.917 . S
Mg320 O319 1.986 . S
Mg320 O327 2.042 . S
Mg320 O329 2.041 . S
Mg320 O335 2.038 1_545 S
Mg320 O343 2.238 1_545 S
Mg321 O319 1.917 . S
Mg321 O322 1.917 1_545 S
Mg321 O332 2.106 . S
Mg321 O334 2.079 1_545 S
Mg321 O343 2.106 1_545 S
Mg321 O344 2.079 . S
O322 Mg321 1.917 1_565 S
O322 Mg323 1.926 . S
O322 Mg324 1.986 . S
Mg323 O322 1.926 . S
Mg323 O337 1.984 . S
Mg323 O340 1.988 . S
Mg323 O341 2.061 . S
Mg324 O322 1.986 . S
Mg324 O332 2.238 1_565 S
Mg324 O336 2.042 . S
Mg324 O338 2.041 . S
Mg324 O345 2.038 1_565 S
C325 O331 1.247 . S
C325 O332 1.289 . S
C326 O344 1.245 . S
C326 O345 1.274 . S
O327 C315 1.241 . S
O327 Mg320 2.042 . S
O328 C315 1.280 . S
O328 Mg318 1.984 . S
O329 C316 1.277 . S
O329 Mg320 2.041 . S
O330 C316 1.245 . S
O330 Mg318 1.988 . S
O331 Mg318 2.061 . S
O331 C325 1.247 . S
O332 Mg321 2.106 . S
O332 Mg324 2.238 1_545 S
O332 C325 1.289 . S
C333 O334 1.245 . S
C333 O335 1.274 . S
O334 Mg321 2.079 1_565 S
O334 C333 1.245 . S
O335 Mg320 2.038 1_565 S
O335 C333 1.274 . S
O336 Mg324 2.042 . S
O336 C339 1.241 . S
O337 Mg323 1.984 . S
O337 C339 1.280 . S
O338 Mg324 2.041 . S
O338 C342 1.277 . S
C339 O336 1.241 . S
C339 O337 1.280 . S
O340 Mg323 1.988 . S
O340 C342 1.245 . S
O341 C317 1.247 . S
O341 Mg323 2.061 . S
C342 O338 1.277 . S
C342 O340 1.245 . S
O343 C317 1.289 . S
O343 Mg320 2.238 1_565 S
O343 Mg321 2.106 1_565 S
O344 Mg321 2.079 . S
O344 C326 1.245 . S
O345 Mg324 2.038 1_545 S
O345 C326 1.274 . S
H346 C358 0.930 . S
H347 C360 0.930 . S
H348 C361 0.930 . S
H349 C365 0.959 . S
H350 C365 0.959 . S
H351 C365 0.961 . S
H352 C366 0.960 . S
H353 C366 0.961 . S
H354 C366 0.959 . S
H355 C369 0.929 . S
H356 C370 0.931 . S
H357 C372 0.930 . S
C358 H346 0.930 . S
C358 C359 1.399 . S
C358 C363 1.399 . S
C359 C358 1.399 . S
C359 C360 1.376 . S
C360 H347 0.930 . S
C360 C359 1.376 . S
C360 C361 1.388 . S
C361 H348 0.930 . S
C361 C360 1.388 . S
C361 C362 1.390 . S
C362 C361 1.390 . S
C362 C363 1.394 . S
C362 C368 1.465 . S
C363 C358 1.399 . S
C363 C362 1.394 . S
C363 C364 1.516 . S
C364 C363 1.516 . S
C364 C365 1.502 . S
C364 C366 1.561 . S
C364 C367 1.526 . S
C365 H349 0.959 . S
C365 H350 0.959 . S
C365 H351 0.961 . S
C365 C364 1.502 . S
C366 H352 0.960 . S
C366 H353 0.961 . S
C366 H354 0.959 . S
C366 C364 1.561 . S
C367 C364 1.526 . S
C367 C368 1.396 . S
C367 C372 1.390 . S
C368 C362 1.465 . S
C368 C367 1.396 . S
C368 C369 1.399 . S
C369 H355 0.929 . S
C369 C368 1.399 . S
C369 C370 1.385 . S
C370 H356 0.931 . S
C370 C369 1.385 . S
C370 C371 1.389 . S
C371 C370 1.389 . S
C371 C372 1.387 . S
C372 H357 0.930 . S
C372 C367 1.390 . S
C372 C371 1.387 . S
H373 C385 0.930 . S
H374 C387 0.930 . S
H375 C388 0.930 . S
H376 C392 0.959 . S
H377 C392 0.959 . S
H378 C392 0.961 . S
H379 C393 0.960 . S
H380 C393 0.961 . S
H381 C393 0.959 . S
H382 C396 0.929 . S
H383 C397 0.931 . S
H384 C399 0.930 . S
C385 H373 0.930 . S
C385 C386 1.399 . S
C385 C390 1.399 . S
C386 C385 1.399 . S
C386 C387 1.376 . S
C387 H374 0.930 . S
C387 C386 1.376 . S
C387 C388 1.388 . S
C388 H375 0.930 . S
C388 C387 1.388 . S
C388 C389 1.390 . S
C389 C388 1.390 . S
C389 C390 1.394 . S
C389 C395 1.465 . S
C390 C385 1.399 . S
C390 C389 1.394 . S
C390 C391 1.516 . S
C391 C390 1.516 . S
C391 C392 1.502 . S
C391 C393 1.561 . S
C391 C394 1.526 . S
C392 H376 0.959 . S
C392 H377 0.959 . S
C392 H378 0.961 . S
C392 C391 1.502 . S
C393 H379 0.960 . S
C393 H380 0.961 . S
C393 H381 0.959 . S
C393 C391 1.561 . S
C394 C391 1.526 . S
C394 C395 1.396 . S
C394 C399 1.390 . S
C395 C389 1.465 . S
C395 C394 1.396 . S
C395 C396 1.399 . S
C396 H382 0.929 . S
C396 C395 1.399 . S
C396 C397 1.385 . S
C397 H383 0.931 . S
C397 C396 1.385 . S
C397 C398 1.389 . S
C398 C397 1.389 . S
C398 C399 1.387 . S
C399 H384 0.930 . S
C399 C394 1.390 . S
C399 C398 1.387 . S
H400 C412 0.930 . S
H401 C414 0.930 . S
H402 C415 0.930 . S
H403 C419 0.959 . S
H404 C419 0.959 . S
H405 C419 0.961 . S
H406 C420 0.960 . S
H407 C420 0.961 . S
H408 C420 0.959 . S
H409 C423 0.929 . S
H410 C424 0.931 . S
H411 C426 0.930 . S
C412 H400 0.930 . S
C412 C413 1.399 . S
C412 C417 1.399 . S
C413 C412 1.399 . S
C413 C414 1.376 . S
C414 H401 0.930 . S
C414 C413 1.376 . S
C414 C415 1.388 . S
C415 H402 0.930 . S
C415 C414 1.388 . S
C415 C416 1.390 . S
C416 C415 1.390 . S
C416 C417 1.394 . S
C416 C422 1.465 . S
C417 C412 1.399 . S
C417 C416 1.394 . S
C417 C418 1.516 . S
C418 C417 1.516 . S
C418 C419 1.502 . S
C418 C420 1.561 . S
C418 C421 1.526 . S
C419 H403 0.959 . S
C419 H404 0.959 . S
C419 H405 0.961 . S
C419 C418 1.502 . S
C420 H406 0.960 . S
C420 H407 0.961 . S
C420 H408 0.959 . S
C420 C418 1.561 . S
C421 C418 1.526 . S
C421 C422 1.396 . S
C421 C426 1.390 . S
C422 C416 1.465 . S
C422 C421 1.396 . S
C422 C423 1.399 . S
C423 H409 0.929 . S
C423 C422 1.399 . S
C423 C424 1.385 . S
C424 H410 0.931 . S
C424 C423 1.385 . S
C424 C425 1.389 . S
C425 C424 1.389 . S
C425 C426 1.387 . S
C426 H411 0.930 . S
C426 C421 1.390 . S
C426 C425 1.387 . S
H427 C439 0.930 . S
H428 C441 0.930 . S
H429 C442 0.930 . S
H430 C446 0.959 . S
H431 C446 0.959 . S
H432 C446 0.961 . S
H433 C447 0.960 . S
H434 C447 0.961 . S
H435 C447 0.959 . S
H436 C450 0.929 . S
H437 C451 0.931 . S
H438 C453 0.930 . S
C439 H427 0.930 . S
C439 C440 1.399 . S
C439 C444 1.399 . S
C440 C439 1.399 . S
C440 C441 1.376 . S
C441 H428 0.930 . S
C441 C440 1.376 . S
C441 C442 1.388 . S
C442 H429 0.930 . S
C442 C441 1.388 . S
C442 C443 1.390 . S
C443 C442 1.390 . S
C443 C444 1.394 . S
C443 C449 1.465 . S
C444 C439 1.399 . S
C444 C443 1.394 . S
C444 C445 1.516 . S
C445 C444 1.516 . S
C445 C446 1.502 . S
C445 C447 1.561 . S
C445 C448 1.526 . S
C446 H430 0.959 . S
C446 H431 0.959 . S
C446 H432 0.961 . S
C446 C445 1.502 . S
C447 H433 0.960 . S
C447 H434 0.961 . S
C447 H435 0.959 . S
C447 C445 1.561 . S
C448 C445 1.526 . S
C448 C449 1.396 . S
C448 C453 1.390 . S
C449 C443 1.465 . S
C449 C448 1.396 . S
C449 C450 1.399 . S
C450 H436 0.929 . S
C450 C449 1.399 . S
C450 C451 1.385 . S
C451 H437 0.931 . S
C451 C450 1.385 . S
C451 C452 1.389 . S
C452 C451 1.389 . S
C452 C453 1.387 . S
C453 H438 0.930 . S
C453 C448 1.390 . S
C453 C452 1.387 . S
H454 C466 0.930 . S
H455 C468 0.930 . S
H456 C469 0.930 . S
H457 C473 0.959 . S
H458 C473 0.959 . S
H459 C473 0.961 . S
H460 C474 0.960 . S
H461 C474 0.961 . S
H462 C474 0.959 . S
H463 C477 0.929 . S
H464 C478 0.931 . S
H465 C480 0.930 . S
C466 H454 0.930 . S
C466 C467 1.399 . S
C466 C471 1.399 . S
C467 C466 1.399 . S
C467 C468 1.376 . S
C468 H455 0.930 . S
C468 C467 1.376 . S
C468 C469 1.388 . S
C469 H456 0.930 . S
C469 C468 1.388 . S
C469 C470 1.390 . S
C470 C469 1.390 . S
C470 C471 1.394 . S
C470 C476 1.465 . S
C471 C466 1.399 . S
C471 C470 1.394 . S
C471 C472 1.516 . S
C472 C471 1.516 . S
C472 C473 1.502 . S
C472 C474 1.561 . S
C472 C475 1.526 . S
C473 H457 0.959 . S
C473 H458 0.959 . S
C473 H459 0.961 . S
C473 C472 1.502 . S
C474 H460 0.960 . S
C474 H461 0.961 . S
C474 H462 0.959 . S
C474 C472 1.561 . S
C475 C472 1.526 . S
C475 C476 1.396 . S
C475 C480 1.390 . S
C476 C470 1.465 . S
C476 C475 1.396 . S
C476 C477 1.399 . S
C477 H463 0.929 . S
C477 C476 1.399 . S
C477 C478 1.385 . S
C478 H464 0.931 . S
C478 C477 1.385 . S
C478 C479 1.389 . S
C479 C478 1.389 . S
C479 C480 1.387 . S
C480 H465 0.930 . S
C480 C475 1.390 . S
C480 C479 1.387 . S
H481 C493 0.930 . S
H482 C495 0.930 . S
H483 C496 0.930 . S
H484 C500 0.959 . S
H485 C500 0.959 . S
H486 C500 0.961 . S
H487 C501 0.960 . S
H488 C501 0.961 . S
H489 C501 0.959 . S
H490 C504 0.929 . S
H491 C505 0.931 . S
H492 C507 0.930 . S
C493 H481 0.930 . S
C493 C494 1.399 . S
C493 C498 1.399 . S
C494 C493 1.399 . S
C494 C495 1.376 . S
C495 H482 0.930 . S
C495 C494 1.376 . S
C495 C496 1.388 . S
C496 H483 0.930 . S
C496 C495 1.388 . S
C496 C497 1.390 . S
C497 C496 1.390 . S
C497 C498 1.394 . S
C497 C503 1.465 . S
C498 C493 1.399 . S
C498 C497 1.394 . S
C498 C499 1.516 . S
C499 C498 1.516 . S
C499 C500 1.502 . S
C499 C501 1.561 . S
C499 C502 1.526 . S
C500 H484 0.959 . S
C500 H485 0.959 . S
C500 H486 0.961 . S
C500 C499 1.502 . S
C501 H487 0.960 . S
C501 H488 0.961 . S
C501 H489 0.959 . S
C501 C499 1.561 . S
C502 C499 1.526 . S
C502 C503 1.396 . S
C502 C507 1.390 . S
C503 C497 1.465 . S
C503 C502 1.396 . S
C503 C504 1.399 . S
C504 H490 0.929 . S
C504 C503 1.399 . S
C504 C505 1.385 . S
C505 H491 0.931 . S
C505 C504 1.385 . S
C505 C506 1.389 . S
C506 C505 1.389 . S
C506 C507 1.387 . S
C507 H492 0.930 . S
C507 C502 1.390 . S
C507 C506 1.387 . S
H508 C520 0.930 . S
H509 C522 0.930 . S
H510 C523 0.930 . S
H511 C527 0.959 . S
H512 C527 0.959 . S
H513 C527 0.961 . S
H514 C528 0.960 . S
H515 C528 0.961 . S
H516 C528 0.959 . S
H517 C531 0.929 . S
H518 C532 0.931 . S
H519 C534 0.930 . S
C520 H508 0.930 . S
C520 C521 1.399 . S
C520 C525 1.399 . S
C521 C520 1.399 . S
C521 C522 1.376 . S
C522 H509 0.930 . S
C522 C521 1.376 . S
C522 C523 1.388 . S
C523 H510 0.930 . S
C523 C522 1.388 . S
C523 C524 1.390 . S
C524 C523 1.390 . S
C524 C525 1.394 . S
C524 C530 1.465 . S
C525 C520 1.399 . S
C525 C524 1.394 . S
C525 C526 1.516 . S
C526 C525 1.516 . S
C526 C527 1.502 . S
C526 C528 1.561 . S
C526 C529 1.526 . S
C527 H511 0.959 . S
C527 H512 0.959 . S
C527 H513 0.961 . S
C527 C526 1.502 . S
C528 H514 0.960 . S
C528 H515 0.961 . S
C528 H516 0.959 . S
C528 C526 1.561 . S
C529 C526 1.526 . S
C529 C530 1.396 . S
C529 C534 1.390 . S
C530 C524 1.465 . S
C530 C529 1.396 . S
C530 C531 1.399 . S
C531 H517 0.929 . S
C531 C530 1.399 . S
C531 C532 1.385 . S
C532 H518 0.931 . S
C532 C531 1.385 . S
C532 C533 1.389 . S
C533 C532 1.389 . S
C533 C534 1.387 . S
C534 H519 0.930 . S
C534 C529 1.390 . S
C534 C533 1.387 . S
H535 C547 0.930 . S
H536 C549 0.930 . S
H537 C550 0.930 . S
H538 C554 0.959 . S
H539 C554 0.959 . S
H540 C554 0.961 . S
H541 C555 0.960 . S
H542 C555 0.961 . S
H543 C555 0.959 . S
H544 C558 0.929 . S
H545 C559 0.931 . S
H546 C561 0.930 . S
C547 H535 0.930 . S
C547 C548 1.399 . S
C547 C552 1.399 . S
C548 C547 1.399 . S
C548 C549 1.376 . S
C549 H536 0.930 . S
C549 C548 1.376 . S
C549 C550 1.388 . S
C550 H537 0.930 . S
C550 C549 1.388 . S
C550 C551 1.390 . S
C551 C550 1.390 . S
C551 C552 1.394 . S
C551 C557 1.465 . S
C552 C547 1.399 . S
C552 C551 1.394 . S
C552 C553 1.516 . S
C553 C552 1.516 . S
C553 C554 1.502 . S
C553 C555 1.561 . S
C553 C556 1.526 . S
C554 H538 0.959 . S
C554 H539 0.959 . S
C554 H540 0.961 . S
C554 C553 1.502 . S
C555 H541 0.960 . S
C555 H542 0.961 . S
C555 H543 0.959 . S
C555 C553 1.561 . S
C556 C553 1.526 . S
C556 C557 1.396 . S
C556 C561 1.390 . S
C557 C551 1.465 . S
C557 C556 1.396 . S
C557 C558 1.399 . S
C558 H544 0.929 . S
C558 C557 1.399 . S
C558 C559 1.385 . S
C559 H545 0.931 . S
C559 C558 1.385 . S
C559 C560 1.389 . S
C560 C559 1.389 . S
C560 C561 1.387 . S
C561 H546 0.930 . S
C561 C556 1.390 . S
C561 C560 1.387 . S
H562 C574 0.930 . S
H563 C576 0.930 . S
H564 C577 0.930 . S
H565 C581 0.959 . S
H566 C581 0.959 . S
H567 C581 0.961 . S
H568 C582 0.960 . S
H569 C582 0.961 . S
H570 C582 0.959 . S
H571 C585 0.929 . S
H572 C586 0.931 . S
H573 C588 0.930 . S
C574 H562 0.930 . S
C574 C575 1.399 . S
C574 C579 1.399 . S
C575 C574 1.399 . S
C575 C576 1.376 . S
C576 H563 0.930 . S
C576 C575 1.376 . S
C576 C577 1.388 . S
C577 H564 0.930 . S
C577 C576 1.388 . S
C577 C578 1.390 . S
C578 C577 1.390 . S
C578 C579 1.394 . S
C578 C584 1.465 . S
C579 C574 1.399 . S
C579 C578 1.394 . S
C579 C580 1.516 . S
C580 C579 1.516 . S
C580 C581 1.502 . S
C580 C582 1.561 . S
C580 C583 1.526 . S
C581 H565 0.959 . S
C581 H566 0.959 . S
C581 H567 0.961 . S
C581 C580 1.502 . S
C582 H568 0.960 . S
C582 H569 0.961 . S
C582 H570 0.959 . S
C582 C580 1.561 . S
C583 C580 1.526 . S
C583 C584 1.396 . S
C583 C588 1.390 . S
C584 C578 1.465 . S
C584 C583 1.396 . S
C584 C585 1.399 . S
C585 H571 0.929 . S
C585 C584 1.399 . S
C585 C586 1.385 . S
C586 H572 0.931 . S
C586 C585 1.385 . S
C586 C587 1.389 . S
C587 C586 1.389 . S
C587 C588 1.387 . S
C588 H573 0.930 . S
C588 C583 1.390 . S
C588 C587 1.387 . S
H589 C601 0.930 . S
H590 C603 0.930 . S
H591 C604 0.930 . S
H592 C608 0.959 . S
H593 C608 0.959 . S
H594 C608 0.961 . S
H595 C609 0.960 . S
H596 C609 0.961 . S
H597 C609 0.959 . S
H598 C612 0.929 . S
H599 C613 0.931 . S
H600 C615 0.930 . S
C601 H589 0.930 . S
C601 C602 1.399 . S
C601 C606 1.399 . S
C602 C601 1.399 . S
C602 C603 1.376 . S
C603 H590 0.930 . S
C603 C602 1.376 . S
C603 C604 1.388 . S
C604 H591 0.930 . S
C604 C603 1.388 . S
C604 C605 1.390 . S
C605 C604 1.390 . S
C605 C606 1.394 . S
C605 C611 1.465 . S
C606 C601 1.399 . S
C606 C605 1.394 . S
C606 C607 1.516 . S
C607 C606 1.516 . S
C607 C608 1.502 . S
C607 C609 1.561 . S
C607 C610 1.526 . S
C608 H592 0.959 . S
C608 H593 0.959 . S
C608 H594 0.961 . S
C608 C607 1.502 . S
C609 H595 0.960 . S
C609 H596 0.961 . S
C609 H597 0.959 . S
C609 C607 1.561 . S
C610 C607 1.526 . S
C610 C611 1.396 . S
C610 C615 1.390 . S
C611 C605 1.465 . S
C611 C610 1.396 . S
C611 C612 1.399 . S
C612 H598 0.929 . S
C612 C611 1.399 . S
C612 C613 1.385 . S
C613 H599 0.931 . S
C613 C612 1.385 . S
C613 C614 1.389 . S
C614 C613 1.389 . S
C614 C615 1.387 . S
C615 H600 0.930 . S
C615 C610 1.390 . S
C615 C614 1.387 . S
H616 C628 0.930 . S
H617 C630 0.930 . S
H618 C631 0.930 . S
H619 C635 0.959 . S
H620 C635 0.959 . S
H621 C635 0.961 . S
H622 C636 0.960 . S
H623 C636 0.961 . S
H624 C636 0.959 . S
H625 C639 0.929 . S
H626 C640 0.931 . S
H627 C642 0.930 . S
C628 H616 0.930 . S
C628 C629 1.399 . S
C628 C633 1.399 . S
C629 C628 1.399 . S
C629 C630 1.376 . S
C630 H617 0.930 . S
C630 C629 1.376 . S
C630 C631 1.388 . S
C631 H618 0.930 . S
C631 C630 1.388 . S
C631 C632 1.390 . S
C632 C631 1.390 . S
C632 C633 1.394 . S
C632 C638 1.465 . S
C633 C628 1.399 . S
C633 C632 1.394 . S
C633 C634 1.516 . S
C634 C633 1.516 . S
C634 C635 1.502 . S
C634 C636 1.561 . S
C634 C637 1.526 . S
C635 H619 0.959 . S
C635 H620 0.959 . S
C635 H621 0.961 . S
C635 C634 1.502 . S
C636 H622 0.960 . S
C636 H623 0.961 . S
C636 H624 0.959 . S
C636 C634 1.561 . S
C637 C634 1.526 . S
C637 C638 1.396 . S
C637 C642 1.390 . S
C638 C632 1.465 . S
C638 C637 1.396 . S
C638 C639 1.399 . S
C639 H625 0.929 . S
C639 C638 1.399 . S
C639 C640 1.385 . S
C640 H626 0.931 . S
C640 C639 1.385 . S
C640 C641 1.389 . S
C641 C640 1.389 . S
C641 C642 1.387 . S
C642 H627 0.930 . S
C642 C637 1.390 . S
C642 C641 1.387 . S
H643 C655 0.930 . S
H644 C657 0.930 . S
H645 C658 0.930 . S
H646 C662 0.959 . S
H647 C662 0.959 . S
H648 C662 0.961 . S
H649 C663 0.960 . S
H650 C663 0.961 . S
H651 C663 0.959 . S
H652 C666 0.929 . S
H653 C667 0.931 . S
H654 C669 0.930 . S
C655 H643 0.930 . S
C655 C656 1.399 . S
C655 C660 1.399 . S
C656 C655 1.399 . S
C656 C657 1.376 . S
C657 H644 0.930 . S
C657 C656 1.376 . S
C657 C658 1.388 . S
C658 H645 0.930 . S
C658 C657 1.388 . S
C658 C659 1.390 . S
C659 C658 1.390 . S
C659 C660 1.394 . S
C659 C665 1.465 . S
C660 C655 1.399 . S
C660 C659 1.394 . S
C660 C661 1.516 . S
C661 C660 1.516 . S
C661 C662 1.502 . S
C661 C663 1.561 . S
C661 C664 1.526 . S
C662 H646 0.959 . S
C662 H647 0.959 . S
C662 H648 0.961 . S
C662 C661 1.502 . S
C663 H649 0.960 . S
C663 H650 0.961 . S
C663 H651 0.959 . S
C663 C661 1.561 . S
C664 C661 1.526 . S
C664 C665 1.396 . S
C664 C669 1.390 . S
C665 C659 1.465 . S
C665 C664 1.396 . S
C665 C666 1.399 . S
C666 H652 0.929 . S
C666 C665 1.399 . S
C666 C667 1.385 . S
C667 H653 0.931 . S
C667 C666 1.385 . S
C667 C668 1.389 . S
C668 C667 1.389 . S
C668 C669 1.387 . S
C669 H654 0.930 . S
C669 C664 1.390 . S
C669 C668 1.387 . S
H670 C682 0.930 . S
H671 C684 0.930 . S
H672 C685 0.930 . S
H673 C689 0.959 . S
H674 C689 0.959 . S
H675 C689 0.961 . S
H676 C690 0.960 . S
H677 C690 0.961 . S
H678 C690 0.959 . S
H679 C693 0.929 . S
H680 C694 0.931 . S
H681 C696 0.930 . S
C682 H670 0.930 . S
C682 C683 1.399 . S
C682 C687 1.399 . S
C683 C682 1.399 . S
C683 C684 1.376 . S
C684 H671 0.930 . S
C684 C683 1.376 . S
C684 C685 1.388 . S
C685 H672 0.930 . S
C685 C684 1.388 . S
C685 C686 1.390 . S
C686 C685 1.390 . S
C686 C687 1.394 . S
C686 C692 1.465 . S
C687 C682 1.399 . S
C687 C686 1.394 . S
C687 C688 1.516 . S
C688 C687 1.516 . S
C688 C689 1.502 . S
C688 C690 1.561 . S
C688 C691 1.526 . S
C689 H673 0.959 . S
C689 H674 0.959 . S
C689 H675 0.961 . S
C689 C688 1.502 . S
C690 H676 0.960 . S
C690 H677 0.961 . S
C690 H678 0.959 . S
C690 C688 1.561 . S
C691 C688 1.526 . S
C691 C692 1.396 . S
C691 C696 1.390 . S
C692 C686 1.465 . S
C692 C691 1.396 . S
C692 C693 1.399 . S
C693 H679 0.929 . S
C693 C692 1.399 . S
C693 C694 1.385 . S
C694 H680 0.931 . S
C694 C693 1.385 . S
C694 C695 1.389 . S
C695 C694 1.389 . S
C695 C696 1.387 . S
C696 H681 0.930 . S
C696 C691 1.390 . S
C696 C695 1.387 . S
H697 C709 0.930 . S
H698 C711 0.930 . S
H699 C712 0.930 . S
H700 C716 0.959 . S
H701 C716 0.959 . S
H702 C716 0.961 . S
H703 C717 0.960 . S
H704 C717 0.961 . S
H705 C717 0.959 . S
H706 C720 0.929 . S
H707 C721 0.931 . S
H708 C723 0.930 . S
C709 H697 0.930 . S
C709 C710 1.399 . S
C709 C714 1.399 . S
C710 C709 1.399 . S
C710 C711 1.376 . S
C711 H698 0.930 . S
C711 C710 1.376 . S
C711 C712 1.388 . S
C712 H699 0.930 . S
C712 C711 1.388 . S
C712 C713 1.390 . S
C713 C712 1.390 . S
C713 C714 1.394 . S
C713 C719 1.465 . S
C714 C709 1.399 . S
C714 C713 1.394 . S
C714 C715 1.516 . S
C715 C714 1.516 . S
C715 C716 1.502 . S
C715 C717 1.561 . S
C715 C718 1.526 . S
C716 H700 0.959 . S
C716 H701 0.959 . S
C716 H702 0.961 . S
C716 C715 1.502 . S
C717 H703 0.960 . S
C717 H704 0.961 . S
C717 H705 0.959 . S
C717 C715 1.561 . S
C718 C715 1.526 . S
C718 C719 1.396 . S
C718 C723 1.390 . S
C719 C713 1.465 . S
C719 C718 1.396 . S
C719 C720 1.399 . S
C720 H706 0.929 . S
C720 C719 1.399 . S
C720 C721 1.385 . S
C721 H707 0.931 . S
C721 C720 1.385 . S
C721 C722 1.389 . S
C722 C721 1.389 . S
C722 C723 1.387 . S
C723 H708 0.930 . S
C723 C718 1.390 . S
C723 C722 1.387 . S
H724 C736 0.930 . S
H725 C738 0.930 . S
H726 C739 0.930 . S
H727 C743 0.959 . S
H728 C743 0.959 . S
H729 C743 0.961 . S
H730 C744 0.960 . S
H731 C744 0.961 . S
H732 C744 0.959 . S
H733 C747 0.929 . S
H734 C748 0.931 . S
H735 C750 0.930 . S
C736 H724 0.930 . S
C736 C737 1.399 . S
C736 C741 1.399 . S
C737 C736 1.399 . S
C737 C738 1.376 . S
C738 H725 0.930 . S
C738 C737 1.376 . S
C738 C739 1.388 . S
C739 H726 0.930 . S
C739 C738 1.388 . S
C739 C740 1.390 . S
C740 C739 1.390 . S
C740 C741 1.394 . S
C740 C746 1.465 . S
C741 C736 1.399 . S
C741 C740 1.394 . S
C741 C742 1.516 . S
C742 C741 1.516 . S
C742 C743 1.502 . S
C742 C744 1.561 . S
C742 C745 1.526 . S
C743 H727 0.959 . S
C743 H728 0.959 . S
C743 H729 0.961 . S
C743 C742 1.502 . S
C744 H730 0.960 . S
C744 H731 0.961 . S
C744 H732 0.959 . S
C744 C742 1.561 . S
C745 C742 1.526 . S
C745 C746 1.396 . S
C745 C750 1.390 . S
C746 C740 1.465 . S
C746 C745 1.396 . S
C746 C747 1.399 . S
C747 H733 0.929 . S
C747 C746 1.399 . S
C747 C748 1.385 . S
C748 H734 0.931 . S
C748 C747 1.385 . S
C748 C749 1.389 . S
C749 C748 1.389 . S
C749 C750 1.387 . S
C750 H735 0.930 . S
C750 C745 1.390 . S
C750 C749 1.387 . S
H751 C763 0.930 . S
H752 C765 0.930 . S
H753 C766 0.930 . S
H754 C770 0.959 . S
H755 C770 0.959 . S
H756 C770 0.961 . S
H757 C771 0.960 . S
H758 C771 0.961 . S
H759 C771 0.959 . S
H760 C774 0.929 . S
H761 C775 0.931 . S
H762 C777 0.930 . S
C763 H751 0.930 . S
C763 C764 1.399 . S
C763 C768 1.399 . S
C764 C763 1.399 . S
C764 C765 1.376 . S
C765 H752 0.930 . S
C765 C764 1.376 . S
C765 C766 1.388 . S
C766 H753 0.930 . S
C766 C765 1.388 . S
C766 C767 1.390 . S
C767 C766 1.390 . S
C767 C768 1.394 . S
C767 C773 1.465 . S
C768 C763 1.399 . S
C768 C767 1.394 . S
C768 C769 1.516 . S
C769 C768 1.516 . S
C769 C770 1.502 . S
C769 C771 1.561 . S
C769 C772 1.526 . S
C770 H754 0.959 . S
C770 H755 0.959 . S
C770 H756 0.961 . S
C770 C769 1.502 . S
C771 H757 0.960 . S
C771 H758 0.961 . S
C771 H759 0.959 . S
C771 C769 1.561 . S
C772 C769 1.526 . S
C772 C773 1.396 . S
C772 C777 1.390 . S
C773 C767 1.465 . S
C773 C772 1.396 . S
C773 C774 1.399 . S
C774 H760 0.929 . S
C774 C773 1.399 . S
C774 C775 1.385 . S
C775 H761 0.931 . S
C775 C774 1.385 . S
C775 C776 1.389 . S
C776 C775 1.389 . S
C776 C777 1.387 . S
C777 H762 0.930 . S
C777 C772 1.390 . S
C777 C776 1.387 . S
H778 C790 0.930 . S
H779 C792 0.930 . S
H780 C793 0.930 . S
H781 C797 0.959 . S
H782 C797 0.959 . S
H783 C797 0.961 . S
H784 C798 0.960 . S
H785 C798 0.961 . S
H786 C798 0.959 . S
H787 C801 0.929 . S
H788 C802 0.931 . S
H789 C804 0.930 . S
C790 H778 0.930 . S
C790 C791 1.399 . S
C790 C795 1.399 . S
C791 C790 1.399 . S
C791 C792 1.376 . S
C792 H779 0.930 . S
C792 C791 1.376 . S
C792 C793 1.388 . S
C793 H780 0.930 . S
C793 C792 1.388 . S
C793 C794 1.390 . S
C794 C793 1.390 . S
C794 C795 1.394 . S
C794 C800 1.465 . S
C795 C790 1.399 . S
C795 C794 1.394 . S
C795 C796 1.516 . S
C796 C795 1.516 . S
C796 C797 1.502 . S
C796 C798 1.561 . S
C796 C799 1.526 . S
C797 H781 0.959 . S
C797 H782 0.959 . S
C797 H783 0.961 . S
C797 C796 1.502 . S
C798 H784 0.960 . S
C798 H785 0.961 . S
C798 H786 0.959 . S
C798 C796 1.561 . S
C799 C796 1.526 . S
C799 C800 1.396 . S
C799 C804 1.390 . S
C800 C794 1.465 . S
C800 C799 1.396 . S
C800 C801 1.399 . S
C801 H787 0.929 . S
C801 C800 1.399 . S
C801 C802 1.385 . S
C802 H788 0.931 . S
C802 C801 1.385 . S
C802 C803 1.389 . S
C803 C802 1.389 . S
C803 C804 1.387 . S
C804 H789 0.930 . S
C804 C799 1.390 . S
C804 C803 1.387 . S
H805 C817 0.930 . S
H806 C819 0.930 . S
H807 C820 0.930 . S
H808 C824 0.959 . S
H809 C824 0.959 . S
H810 C824 0.961 . S
H811 C825 0.960 . S
H812 C825 0.961 . S
H813 C825 0.959 . S
H814 C828 0.929 . S
H815 C829 0.931 . S
H816 C831 0.930 . S
C817 H805 0.930 . S
C817 C818 1.399 . S
C817 C822 1.399 . S
C818 C817 1.399 . S
C818 C819 1.376 . S
C819 H806 0.930 . S
C819 C818 1.376 . S
C819 C820 1.388 . S
C820 H807 0.930 . S
C820 C819 1.388 . S
C820 C821 1.390 . S
C821 C820 1.390 . S
C821 C822 1.394 . S
C821 C827 1.465 . S
C822 C817 1.399 . S
C822 C821 1.394 . S
C822 C823 1.516 . S
C823 C822 1.516 . S
C823 C824 1.502 . S
C823 C825 1.561 . S
C823 C826 1.526 . S
C824 H808 0.959 . S
C824 H809 0.959 . S
C824 H810 0.961 . S
C824 C823 1.502 . S
C825 H811 0.960 . S
C825 H812 0.961 . S
C825 H813 0.959 . S
C825 C823 1.561 . S
C826 C823 1.526 . S
C826 C827 1.396 . S
C826 C831 1.390 . S
C827 C821 1.465 . S
C827 C826 1.396 . S
C827 C828 1.399 . S
C828 H814 0.929 . S
C828 C827 1.399 . S
C828 C829 1.385 . S
C829 H815 0.931 . S
C829 C828 1.385 . S
C829 C830 1.389 . S
C830 C829 1.389 . S
C830 C831 1.387 . S
C831 H816 0.930 . S
C831 C826 1.390 . S
C831 C830 1.387 . S
H832 C844 0.930 . S
H833 C846 0.930 . S
H834 C847 0.930 . S
H835 C851 0.959 . S
H836 C851 0.959 . S
H837 C851 0.961 . S
H838 C852 0.960 . S
H839 C852 0.961 . S
H840 C852 0.959 . S
H841 C855 0.929 . S
H842 C856 0.931 . S
H843 C858 0.930 . S
C844 H832 0.930 . S
C844 C845 1.399 . S
C844 C849 1.399 . S
C845 C844 1.399 . S
C845 C846 1.376 . S
C846 H833 0.930 . S
C846 C845 1.376 . S
C846 C847 1.388 . S
C847 H834 0.930 . S
C847 C846 1.388 . S
C847 C848 1.390 . S
C848 C847 1.390 . S
C848 C849 1.394 . S
C848 C854 1.465 . S
C849 C844 1.399 . S
C849 C848 1.394 . S
C849 C850 1.516 . S
C850 C849 1.516 . S
C850 C851 1.502 . S
C850 C852 1.561 . S
C850 C853 1.526 . S
C851 H835 0.959 . S
C851 H836 0.959 . S
C851 H837 0.961 . S
C851 C850 1.502 . S
C852 H838 0.960 . S
C852 H839 0.961 . S
C852 H840 0.959 . S
C852 C850 1.561 . S
C853 C850 1.526 . S
C853 C854 1.396 . S
C853 C858 1.390 . S
C854 C848 1.465 . S
C854 C853 1.396 . S
C854 C855 1.399 . S
C855 H841 0.929 . S
C855 C854 1.399 . S
C855 C856 1.385 . S
C856 H842 0.931 . S
C856 C855 1.385 . S
C856 C857 1.389 . S
C857 C856 1.389 . S
C857 C858 1.387 . S
C858 H843 0.930 . S
C858 C853 1.390 . S
C858 C857 1.387 . S
H859 C871 0.930 . S
H860 C873 0.930 . S
H861 C874 0.930 . S
H862 C878 0.959 . S
H863 C878 0.959 . S
H864 C878 0.961 . S
H865 C879 0.960 . S
H866 C879 0.961 . S
H867 C879 0.959 . S
H868 C882 0.929 . S
H869 C883 0.931 . S
H870 C885 0.930 . S
C871 H859 0.930 . S
C871 C872 1.399 . S
C871 C876 1.399 . S
C872 C871 1.399 . S
C872 C873 1.376 . S
C873 H860 0.930 . S
C873 C872 1.376 . S
C873 C874 1.388 . S
C874 H861 0.930 . S
C874 C873 1.388 . S
C874 C875 1.390 . S
C875 C874 1.390 . S
C875 C876 1.394 . S
C875 C881 1.465 . S
C876 C871 1.399 . S
C876 C875 1.394 . S
C876 C877 1.516 . S
C877 C876 1.516 . S
C877 C878 1.502 . S
C877 C879 1.561 . S
C877 C880 1.526 . S
C878 H862 0.959 . S
C878 H863 0.959 . S
C878 H864 0.961 . S
C878 C877 1.502 . S
C879 H865 0.960 . S
C879 H866 0.961 . S
C879 H867 0.959 . S
C879 C877 1.561 . S
C880 C877 1.526 . S
C880 C881 1.396 . S
C880 C885 1.390 . S
C881 C875 1.465 . S
C881 C880 1.396 . S
C881 C882 1.399 . S
C882 H868 0.929 . S
C882 C881 1.399 . S
C882 C883 1.385 . S
C883 H869 0.931 . S
C883 C882 1.385 . S
C883 C884 1.389 . S
C884 C883 1.389 . S
C884 C885 1.387 . S
C885 H870 0.930 . S
C885 C880 1.390 . S
C885 C884 1.387 . S
H886 C898 0.930 . S
H887 C900 0.930 . S
H888 C901 0.930 . S
H889 C905 0.959 . S
H890 C905 0.959 . S
H891 C905 0.961 . S
H892 C906 0.960 . S
H893 C906 0.961 . S
H894 C906 0.959 . S
H895 C909 0.929 . S
H896 C910 0.931 . S
H897 C912 0.930 . S
C898 H886 0.930 . S
C898 C899 1.399 . S
C898 C903 1.399 . S
C899 C898 1.399 . S
C899 C900 1.376 . S
C900 H887 0.930 . S
C900 C899 1.376 . S
C900 C901 1.388 . S
C901 H888 0.930 . S
C901 C900 1.388 . S
C901 C902 1.390 . S
C902 C901 1.390 . S
C902 C903 1.394 . S
C902 C908 1.465 . S
C903 C898 1.399 . S
C903 C902 1.394 . S
C903 C904 1.516 . S
C904 C903 1.516 . S
C904 C905 1.502 . S
C904 C906 1.561 . S
C904 C907 1.526 . S
C905 H889 0.959 . S
C905 H890 0.959 . S
C905 H891 0.961 . S
C905 C904 1.502 . S
C906 H892 0.960 . S
C906 H893 0.961 . S
C906 H894 0.959 . S
C906 C904 1.561 . S
C907 C904 1.526 . S
C907 C908 1.396 . S
C907 C912 1.390 . S
C908 C902 1.465 . S
C908 C907 1.396 . S
C908 C909 1.399 . S
C909 H895 0.929 . S
C909 C908 1.399 . S
C909 C910 1.385 . S
C910 H896 0.931 . S
C910 C909 1.385 . S
C910 C911 1.389 . S
C911 C910 1.389 . S
C911 C912 1.387 . S
C912 H897 0.930 . S
C912 C907 1.390 . S
C912 C911 1.387 . S
H913 C925 0.930 . S
H914 C927 0.930 . S
H915 C928 0.930 . S
H916 C932 0.959 . S
H917 C932 0.959 . S
H918 C932 0.961 . S
H919 C933 0.960 . S
H920 C933 0.961 . S
H921 C933 0.959 . S
H922 C936 0.929 . S
H923 C937 0.931 . S
H924 C939 0.930 . S
C925 H913 0.930 . S
C925 C926 1.399 . S
C925 C930 1.399 . S
C926 C925 1.399 . S
C926 C927 1.376 . S
C927 H914 0.930 . S
C927 C926 1.376 . S
C927 C928 1.388 . S
C928 H915 0.930 . S
C928 C927 1.388 . S
C928 C929 1.390 . S
C929 C928 1.390 . S
C929 C930 1.394 . S
C929 C935 1.465 . S
C930 C925 1.399 . S
C930 C929 1.394 . S
C930 C931 1.516 . S
C931 C930 1.516 . S
C931 C932 1.502 . S
C931 C933 1.561 . S
C931 C934 1.526 . S
C932 H916 0.959 . S
C932 H917 0.959 . S
C932 H918 0.961 . S
C932 C931 1.502 . S
C933 H919 0.960 . S
C933 H920 0.961 . S
C933 H921 0.959 . S
C933 C931 1.561 . S
C934 C931 1.526 . S
C934 C935 1.396 . S
C934 C939 1.390 . S
C935 C929 1.465 . S
C935 C934 1.396 . S
C935 C936 1.399 . S
C936 H922 0.929 . S
C936 C935 1.399 . S
C936 C937 1.385 . S
C937 H923 0.931 . S
C937 C936 1.385 . S
C937 C938 1.389 . S
C938 C937 1.389 . S
C938 C939 1.387 . S
C939 H924 0.930 . S
C939 C934 1.390 . S
C939 C938 1.387 . S
H940 C952 0.930 . S
H941 C954 0.930 . S
H942 C955 0.930 . S
H943 C959 0.959 . S
H944 C959 0.959 . S
H945 C959 0.961 . S
H946 C960 0.960 . S
H947 C960 0.961 . S
H948 C960 0.959 . S
H949 C963 0.929 . S
H950 C964 0.931 . S
H951 C966 0.930 . S
C952 H940 0.930 . S
C952 C953 1.399 . S
C952 C957 1.399 . S
C953 C952 1.399 . S
C953 C954 1.376 . S
C954 H941 0.930 . S
C954 C953 1.376 . S
C954 C955 1.388 . S
C955 H942 0.930 . S
C955 C954 1.388 . S
C955 C956 1.390 . S
C956 C955 1.390 . S
C956 C957 1.394 . S
C956 C962 1.465 . S
C957 C952 1.399 . S
C957 C956 1.394 . S
C957 C958 1.516 . S
C958 C957 1.516 . S
C958 C959 1.502 . S
C958 C960 1.561 . S
C958 C961 1.526 . S
C959 H943 0.959 . S
C959 H944 0.959 . S
C959 H945 0.961 . S
C959 C958 1.502 . S
C960 H946 0.960 . S
C960 H947 0.961 . S
C960 H948 0.959 . S
C960 C958 1.561 . S
C961 C958 1.526 . S
C961 C962 1.396 . S
C961 C966 1.390 . S
C962 C956 1.465 . S
C962 C961 1.396 . S
C962 C963 1.399 . S
C963 H949 0.929 . S
C963 C962 1.399 . S
C963 C964 1.385 . S
C964 H950 0.931 . S
C964 C963 1.385 . S
C964 C965 1.389 . S
C965 C964 1.389 . S
C965 C966 1.387 . S
C966 H951 0.930 . S
C966 C961 1.390 . S
C966 C965 1.387 . S
H967 C979 0.930 . S
H968 C981 0.930 . S
H969 C982 0.930 . S
H970 C986 0.959 . S
H971 C986 0.959 . S
H972 C986 0.961 . S
H973 C987 0.960 . S
H974 C987 0.961 . S
H975 C987 0.959 . S
H976 C990 0.929 . S
H977 C991 0.931 . S
H978 C993 0.930 . S
C979 H967 0.930 . S
C979 C980 1.399 . S
C979 C984 1.399 . S
C980 C979 1.399 . S
C980 C981 1.376 . S
C981 H968 0.930 . S
C981 C980 1.376 . S
C981 C982 1.388 . S
C982 H969 0.930 . S
C982 C981 1.388 . S
C982 C983 1.390 . S
C983 C982 1.390 . S
C983 C984 1.394 . S
C983 C989 1.465 . S
C984 C979 1.399 . S
C984 C983 1.394 . S
C984 C985 1.516 . S
C985 C984 1.516 . S
C985 C986 1.502 . S
C985 C987 1.561 . S
C985 C988 1.526 . S
C986 H970 0.959 . S
C986 H971 0.959 . S
C986 H972 0.961 . S
C986 C985 1.502 . S
C987 H973 0.960 . S
C987 H974 0.961 . S
C987 H975 0.959 . S
C987 C985 1.561 . S
C988 C985 1.526 . S
C988 C989 1.396 . S
C988 C993 1.390 . S
C989 C983 1.465 . S
C989 C988 1.396 . S
C989 C990 1.399 . S
C990 H976 0.929 . S
C990 C989 1.399 . S
C990 C991 1.385 . S
C991 H977 0.931 . S
C991 C990 1.385 . S
C991 C992 1.389 . S
C992 C991 1.389 . S
C992 C993 1.387 . S
C993 H978 0.930 . S
C993 C988 1.390 . S
C993 C992 1.387 . S
H994 C1006 0.930 . S
H995 C1008 0.930 . S
H996 C1009 0.930 . S
H997 C1013 0.959 . S
H998 C1013 0.959 . S
H999 C1013 0.961 . S
H1000 C1014 0.960 . S
H1001 C1014 0.961 . S
H1002 C1014 0.959 . S
H1003 C1017 0.929 . S
H1004 C1018 0.931 . S
H1005 C1020 0.930 . S
C1006 H994 0.930 . S
C1006 C1007 1.399 . S
C1006 C1011 1.399 . S
C1007 C1006 1.399 . S
C1007 C1008 1.376 . S
C1008 H995 0.930 . S
C1008 C1007 1.376 . S
C1008 C1009 1.388 . S
C1009 H996 0.930 . S
C1009 C1008 1.388 . S
C1009 C1010 1.390 . S
C1010 C1009 1.390 . S
C1010 C1011 1.394 . S
C1010 C1016 1.465 . S
C1011 C1006 1.399 . S
C1011 C1010 1.394 . S
C1011 C1012 1.516 . S
C1012 C1011 1.516 . S
C1012 C1013 1.502 . S
C1012 C1014 1.561 . S
C1012 C1015 1.526 . S
C1013 H997 0.959 . S
C1013 H998 0.959 . S
C1013 H999 0.961 . S
C1013 C1012 1.502 . S
C1014 H1000 0.960 . S
C1014 H1001 0.961 . S
C1014 H1002 0.959 . S
C1014 C1012 1.561 . S
C1015 C1012 1.526 . S
C1015 C1016 1.396 . S
C1015 C1020 1.390 . S
C1016 C1010 1.465 . S
C1016 C1015 1.396 . S
C1016 C1017 1.399 . S
C1017 H1003 0.929 . S
C1017 C1016 1.399 . S
C1017 C1018 1.385 . S
C1018 H1004 0.931 . S
C1018 C1017 1.385 . S
C1018 C1019 1.389 . S
C1019 C1018 1.389 . S
C1019 C1020 1.387 . S
C1020 H1005 0.930 . S
C1020 C1015 1.390 . S
C1020 C1019 1.387 . S
H1021 C1033 0.930 . S
H1022 C1035 0.930 . S
H1023 C1036 0.930 . S
H1024 C1040 0.959 . S
H1025 C1040 0.959 . S
H1026 C1040 0.961 . S
H1027 C1041 0.960 . S
H1028 C1041 0.961 . S
H1029 C1041 0.959 . S
H1030 C1044 0.929 . S
H1031 C1045 0.931 . S
H1032 C1047 0.930 . S
C1033 H1021 0.930 . S
C1033 C1034 1.399 . S
C1033 C1038 1.399 . S
C1034 C1033 1.399 . S
C1034 C1035 1.376 . S
C1035 H1022 0.930 . S
C1035 C1034 1.376 . S
C1035 C1036 1.388 . S
C1036 H1023 0.930 . S
C1036 C1035 1.388 . S
C1036 C1037 1.390 . S
C1037 C1036 1.390 . S
C1037 C1038 1.394 . S
C1037 C1043 1.465 . S
C1038 C1033 1.399 . S
C1038 C1037 1.394 . S
C1038 C1039 1.516 . S
C1039 C1038 1.516 . S
C1039 C1040 1.502 . S
C1039 C1041 1.561 . S
C1039 C1042 1.526 . S
C1040 H1024 0.959 . S
C1040 H1025 0.959 . S
C1040 H1026 0.961 . S
C1040 C1039 1.502 . S
C1041 H1027 0.960 . S
C1041 H1028 0.961 . S
C1041 H1029 0.959 . S
C1041 C1039 1.561 . S
C1042 C1039 1.526 . S
C1042 C1043 1.396 . S
C1042 C1047 1.390 . S
C1043 C1037 1.465 . S
C1043 C1042 1.396 . S
C1043 C1044 1.399 . S
C1044 H1030 0.929 . S
C1044 C1043 1.399 . S
C1044 C1045 1.385 . S
C1045 H1031 0.931 . S
C1045 C1044 1.385 . S
C1045 C1046 1.389 . S
C1046 C1045 1.389 . S
C1046 C1047 1.387 . S
C1047 H1032 0.930 . S
C1047 C1042 1.390 . S
C1047 C1046 1.387 . S
H1048 C1060 0.930 . S
H1049 C1062 0.930 . S
H1050 C1063 0.930 . S
H1051 C1067 0.959 . S
H1052 C1067 0.959 . S
H1053 C1067 0.961 . S
H1054 C1068 0.960 . S
H1055 C1068 0.961 . S
H1056 C1068 0.959 . S
H1057 C1071 0.929 . S
H1058 C1072 0.931 . S
H1059 C1074 0.930 . S
C1060 H1048 0.930 . S
C1060 C1061 1.399 . S
C1060 C1065 1.399 . S
C1061 C1060 1.399 . S
C1061 C1062 1.376 . S
C1062 H1049 0.930 . S
C1062 C1061 1.376 . S
C1062 C1063 1.388 . S
C1063 H1050 0.930 . S
C1063 C1062 1.388 . S
C1063 C1064 1.390 . S
C1064 C1063 1.390 . S
C1064 C1065 1.394 . S
C1064 C1070 1.465 . S
C1065 C1060 1.399 . S
C1065 C1064 1.394 . S
C1065 C1066 1.516 . S
C1066 C1065 1.516 . S
C1066 C1067 1.502 . S
C1066 C1068 1.561 . S
C1066 C1069 1.526 . S
C1067 H1051 0.959 . S
C1067 H1052 0.959 . S
C1067 H1053 0.961 . S
C1067 C1066 1.502 . S
C1068 H1054 0.960 . S
C1068 H1055 0.961 . S
C1068 H1056 0.959 . S
C1068 C1066 1.561 . S
C1069 C1066 1.526 . S
C1069 C1070 1.396 . S
C1069 C1074 1.390 . S
C1070 C1064 1.465 . S
C1070 C1069 1.396 . S
C1070 C1071 1.399 . S
C1071 H1057 0.929 . S
C1071 C1070 1.399 . S
C1071 C1072 1.385 . S
C1072 H1058 0.931 . S
C1072 C1071 1.385 . S
C1072 C1073 1.389 . S
C1073 C1072 1.389 . S
C1073 C1074 1.387 . S
C1074 H1059 0.930 . S
C1074 C1069 1.390 . S
C1074 C1073 1.387 . S
H1075 C1087 0.930 . S
H1076 C1089 0.930 . S
H1077 C1090 0.930 . S
H1078 C1094 0.959 . S
H1079 C1094 0.959 . S
H1080 C1094 0.961 . S
H1081 C1095 0.960 . S
H1082 C1095 0.961 . S
H1083 C1095 0.959 . S
H1084 C1098 0.929 . S
H1085 C1099 0.931 . S
H1086 C1101 0.930 . S
C1087 H1075 0.930 . S
C1087 C1088 1.399 . S
C1087 C1092 1.399 . S
C1088 C1087 1.399 . S
C1088 C1089 1.376 . S
C1089 H1076 0.930 . S
C1089 C1088 1.376 . S
C1089 C1090 1.388 . S
C1090 H1077 0.930 . S
C1090 C1089 1.388 . S
C1090 C1091 1.390 . S
C1091 C1090 1.390 . S
C1091 C1092 1.394 . S
C1091 C1097 1.465 . S
C1092 C1087 1.399 . S
C1092 C1091 1.394 . S
C1092 C1093 1.516 . S
C1093 C1092 1.516 . S
C1093 C1094 1.502 . S
C1093 C1095 1.561 . S
C1093 C1096 1.526 . S
C1094 H1078 0.959 . S
C1094 H1079 0.959 . S
C1094 H1080 0.961 . S
C1094 C1093 1.502 . S
C1095 H1081 0.960 . S
C1095 H1082 0.961 . S
C1095 H1083 0.959 . S
C1095 C1093 1.561 . S
C1096 C1093 1.526 . S
C1096 C1097 1.396 . S
C1096 C1101 1.390 . S
C1097 C1091 1.465 . S
C1097 C1096 1.396 . S
C1097 C1098 1.399 . S
C1098 H1084 0.929 . S
C1098 C1097 1.399 . S
C1098 C1099 1.385 . S
C1099 H1085 0.931 . S
C1099 C1098 1.385 . S
C1099 C1100 1.389 . S
C1100 C1099 1.389 . S
C1100 C1101 1.387 . S
C1101 H1086 0.930 . S
C1101 C1096 1.390 . S
C1101 C1100 1.387 . S
H1102 C1114 0.930 . S
H1103 C1116 0.930 . S
H1104 C1117 0.930 . S
H1105 C1121 0.959 . S
H1106 C1121 0.959 . S
H1107 C1121 0.961 . S
H1108 C1122 0.960 . S
H1109 C1122 0.961 . S
H1110 C1122 0.959 . S
H1111 C1125 0.929 . S
H1112 C1126 0.931 . S
H1113 C1128 0.930 . S
C1114 H1102 0.930 . S
C1114 C1115 1.399 . S
C1114 C1119 1.399 . S
C1115 C1114 1.399 . S
C1115 C1116 1.376 . S
C1116 H1103 0.930 . S
C1116 C1115 1.376 . S
C1116 C1117 1.388 . S
C1117 H1104 0.930 . S
C1117 C1116 1.388 . S
C1117 C1118 1.390 . S
C1118 C1117 1.390 . S
C1118 C1119 1.394 . S
C1118 C1124 1.465 . S
C1119 C1114 1.399 . S
C1119 C1118 1.394 . S
C1119 C1120 1.516 . S
C1120 C1119 1.516 . S
C1120 C1121 1.502 . S
C1120 C1122 1.561 . S
C1120 C1123 1.526 . S
C1121 H1105 0.959 . S
C1121 H1106 0.959 . S
C1121 H1107 0.961 . S
C1121 C1120 1.502 . S
C1122 H1108 0.960 . S
C1122 H1109 0.961 . S
C1122 H1110 0.959 . S
C1122 C1120 1.561 . S
C1123 C1120 1.526 . S
C1123 C1124 1.396 . S
C1123 C1128 1.390 . S
C1124 C1118 1.465 . S
C1124 C1123 1.396 . S
C1124 C1125 1.399 . S
C1125 H1111 0.929 . S
C1125 C1124 1.399 . S
C1125 C1126 1.385 . S
C1126 H1112 0.931 . S
C1126 C1125 1.385 . S
C1126 C1127 1.389 . S
C1127 C1126 1.389 . S
C1127 C1128 1.387 . S
C1128 H1113 0.930 . S
C1128 C1123 1.390 . S
C1128 C1127 1.387 . S
H1129 C1141 0.930 . S
H1130 C1143 0.930 . S
H1131 C1144 0.930 . S
H1132 C1148 0.959 . S
H1133 C1148 0.959 . S
H1134 C1148 0.961 . S
H1135 C1149 0.960 . S
H1136 C1149 0.961 . S
H1137 C1149 0.959 . S
H1138 C1152 0.929 . S
H1139 C1153 0.931 . S
H1140 C1155 0.930 . S
C1141 H1129 0.930 . S
C1141 C1142 1.399 . S
C1141 C1146 1.399 . S
C1142 C1141 1.399 . S
C1142 C1143 1.376 . S
C1143 H1130 0.930 . S
C1143 C1142 1.376 . S
C1143 C1144 1.388 . S
C1144 H1131 0.930 . S
C1144 C1143 1.388 . S
C1144 C1145 1.390 . S
C1145 C1144 1.390 . S
C1145 C1146 1.394 . S
C1145 C1151 1.465 . S
C1146 C1141 1.399 . S
C1146 C1145 1.394 . S
C1146 C1147 1.516 . S
C1147 C1146 1.516 . S
C1147 C1148 1.502 . S
C1147 C1149 1.561 . S
C1147 C1150 1.526 . S
C1148 H1132 0.959 . S
C1148 H1133 0.959 . S
C1148 H1134 0.961 . S
C1148 C1147 1.502 . S
C1149 H1135 0.960 . S
C1149 H1136 0.961 . S
C1149 H1137 0.959 . S
C1149 C1147 1.561 . S
C1150 C1147 1.526 . S
C1150 C1151 1.396 . S
C1150 C1155 1.390 . S
C1151 C1145 1.465 . S
C1151 C1150 1.396 . S
C1151 C1152 1.399 . S
C1152 H1138 0.929 . S
C1152 C1151 1.399 . S
C1152 C1153 1.385 . S
C1153 H1139 0.931 . S
C1153 C1152 1.385 . S
C1153 C1154 1.389 . S
C1154 C1153 1.389 . S
C1154 C1155 1.387 . S
C1155 H1140 0.930 . S
C1155 C1150 1.390 . S
C1155 C1154 1.387 . S
H1156 C1168 0.930 . S
H1157 C1170 0.930 . S
H1158 C1171 0.930 . S
H1159 C1175 0.959 . S
H1160 C1175 0.959 . S
H1161 C1175 0.961 . S
H1162 C1176 0.960 . S
H1163 C1176 0.961 . S
H1164 C1176 0.959 . S
H1165 C1179 0.929 . S
H1166 C1180 0.931 . S
H1167 C1182 0.930 . S
C1168 H1156 0.930 . S
C1168 C1169 1.399 . S
C1168 C1173 1.399 . S
C1169 C1168 1.399 . S
C1169 C1170 1.376 . S
C1170 H1157 0.930 . S
C1170 C1169 1.376 . S
C1170 C1171 1.388 . S
C1171 H1158 0.930 . S
C1171 C1170 1.388 . S
C1171 C1172 1.390 . S
C1172 C1171 1.390 . S
C1172 C1173 1.394 . S
C1172 C1178 1.465 . S
C1173 C1168 1.399 . S
C1173 C1172 1.394 . S
C1173 C1174 1.516 . S
C1174 C1173 1.516 . S
C1174 C1175 1.502 . S
C1174 C1176 1.561 . S
C1174 C1177 1.526 . S
C1175 H1159 0.959 . S
C1175 H1160 0.959 . S
C1175 H1161 0.961 . S
C1175 C1174 1.502 . S
C1176 H1162 0.960 . S
C1176 H1163 0.961 . S
C1176 H1164 0.959 . S
C1176 C1174 1.561 . S
C1177 C1174 1.526 . S
C1177 C1178 1.396 . S
C1177 C1182 1.390 . S
C1178 C1172 1.465 . S
C1178 C1177 1.396 . S
C1178 C1179 1.399 . S
C1179 H1165 0.929 . S
C1179 C1178 1.399 . S
C1179 C1180 1.385 . S
C1180 H1166 0.931 . S
C1180 C1179 1.385 . S
C1180 C1181 1.389 . S
C1181 C1180 1.389 . S
C1181 C1182 1.387 . S
C1182 H1167 0.930 . S
C1182 C1177 1.390 . S
C1182 C1181 1.387 . S
H1183 C1195 0.930 . S
H1184 C1197 0.930 . S
H1185 C1198 0.930 . S
H1186 C1202 0.959 . S
H1187 C1202 0.959 . S
H1188 C1202 0.961 . S
H1189 C1203 0.960 . S
H1190 C1203 0.961 . S
H1191 C1203 0.959 . S
H1192 C1206 0.929 . S
H1193 C1207 0.931 . S
H1194 C1209 0.930 . S
C1195 H1183 0.930 . S
C1195 C1196 1.399 . S
C1195 C1200 1.399 . S
C1196 C1195 1.399 . S
C1196 C1197 1.376 . S
C1197 H1184 0.930 . S
C1197 C1196 1.376 . S
C1197 C1198 1.388 . S
C1198 H1185 0.930 . S
C1198 C1197 1.388 . S
C1198 C1199 1.390 . S
C1199 C1198 1.390 . S
C1199 C1200 1.394 . S
C1199 C1205 1.465 . S
C1200 C1195 1.399 . S
C1200 C1199 1.394 . S
C1200 C1201 1.516 . S
C1201 C1200 1.516 . S
C1201 C1202 1.502 . S
C1201 C1203 1.561 . S
C1201 C1204 1.526 . S
C1202 H1186 0.959 . S
C1202 H1187 0.959 . S
C1202 H1188 0.961 . S
C1202 C1201 1.502 . S
C1203 H1189 0.960 . S
C1203 H1190 0.961 . S
C1203 H1191 0.959 . S
C1203 C1201 1.561 . S
C1204 C1201 1.526 . S
C1204 C1205 1.396 . S
C1204 C1209 1.390 . S
C1205 C1199 1.465 . S
C1205 C1204 1.396 . S
C1205 C1206 1.399 . S
C1206 H1192 0.929 . S
C1206 C1205 1.399 . S
C1206 C1207 1.385 . S
C1207 H1193 0.931 . S
C1207 C1206 1.385 . S
C1207 C1208 1.389 . S
C1208 C1207 1.389 . S
C1208 C1209 1.387 . S
C1209 H1194 0.930 . S
C1209 C1204 1.390 . S
C1209 C1208 1.387 . S
H1210 C1222 0.930 . S
H1211 C1224 0.930 . S
H1212 C1225 0.930 . S
H1213 C1229 0.959 . S
H1214 C1229 0.959 . S
H1215 C1229 0.961 . S
H1216 C1230 0.960 . S
H1217 C1230 0.961 . S
H1218 C1230 0.959 . S
H1219 C1233 0.929 . S
H1220 C1234 0.931 . S
H1221 C1236 0.930 . S
C1222 H1210 0.930 . S
C1222 C1223 1.399 . S
C1222 C1227 1.399 . S
C1223 C1222 1.399 . S
C1223 C1224 1.376 . S
C1224 H1211 0.930 . S
C1224 C1223 1.376 . S
C1224 C1225 1.388 . S
C1225 H1212 0.930 . S
C1225 C1224 1.388 . S
C1225 C1226 1.390 . S
C1226 C1225 1.390 . S
C1226 C1227 1.394 . S
C1226 C1232 1.465 . S
C1227 C1222 1.399 . S
C1227 C1226 1.394 . S
C1227 C1228 1.516 . S
C1228 C1227 1.516 . S
C1228 C1229 1.502 . S
C1228 C1230 1.561 . S
C1228 C1231 1.526 . S
C1229 H1213 0.959 . S
C1229 H1214 0.959 . S
C1229 H1215 0.961 . S
C1229 C1228 1.502 . S
C1230 H1216 0.960 . S
C1230 H1217 0.961 . S
C1230 H1218 0.959 . S
C1230 C1228 1.561 . S
C1231 C1228 1.526 . S
C1231 C1232 1.396 . S
C1231 C1236 1.390 . S
C1232 C1226 1.465 . S
C1232 C1231 1.396 . S
C1232 C1233 1.399 . S
C1233 H1219 0.929 . S
C1233 C1232 1.399 . S
C1233 C1234 1.385 . S
C1234 H1220 0.931 . S
C1234 C1233 1.385 . S
C1234 C1235 1.389 . S
C1235 C1234 1.389 . S
C1235 C1236 1.387 . S
C1236 H1221 0.930 . S
C1236 C1231 1.390 . S
C1236 C1235 1.387 . S
H1237 C1249 0.930 . S
H1238 C1251 0.930 . S
H1239 C1252 0.930 . S
H1240 C1256 0.959 . S
H1241 C1256 0.959 . S
H1242 C1256 0.961 . S
H1243 C1257 0.960 . S
H1244 C1257 0.961 . S
H1245 C1257 0.959 . S
H1246 C1260 0.929 . S
H1247 C1261 0.931 . S
H1248 C1263 0.930 . S
C1249 H1237 0.930 . S
C1249 C1250 1.399 . S
C1249 C1254 1.399 . S
C1250 C1249 1.399 . S
C1250 C1251 1.376 . S
C1251 H1238 0.930 . S
C1251 C1250 1.376 . S
C1251 C1252 1.388 . S
C1252 H1239 0.930 . S
C1252 C1251 1.388 . S
C1252 C1253 1.390 . S
C1253 C1252 1.390 . S
C1253 C1254 1.394 . S
C1253 C1259 1.465 . S
C1254 C1249 1.399 . S
C1254 C1253 1.394 . S
C1254 C1255 1.516 . S
C1255 C1254 1.516 . S
C1255 C1256 1.502 . S
C1255 C1257 1.561 . S
C1255 C1258 1.526 . S
C1256 H1240 0.959 . S
C1256 H1241 0.959 . S
C1256 H1242 0.961 . S
C1256 C1255 1.502 . S
C1257 H1243 0.960 . S
C1257 H1244 0.961 . S
C1257 H1245 0.959 . S
C1257 C1255 1.561 . S
C1258 C1255 1.526 . S
C1258 C1259 1.396 . S
C1258 C1263 1.390 . S
C1259 C1253 1.465 . S
C1259 C1258 1.396 . S
C1259 C1260 1.399 . S
C1260 H1246 0.929 . S
C1260 C1259 1.399 . S
C1260 C1261 1.385 . S
C1261 H1247 0.931 . S
C1261 C1260 1.385 . S
C1261 C1262 1.389 . S
C1262 C1261 1.389 . S
C1262 C1263 1.387 . S
C1263 H1248 0.930 . S
C1263 C1258 1.390 . S
C1263 C1262 1.387 . S
H1264 C1276 0.930 . S
H1265 C1278 0.930 . S
H1266 C1279 0.930 . S
H1267 C1283 0.959 . S
H1268 C1283 0.959 . S
H1269 C1283 0.961 . S
H1270 C1284 0.960 . S
H1271 C1284 0.961 . S
H1272 C1284 0.959 . S
H1273 C1287 0.929 . S
H1274 C1288 0.931 . S
H1275 C1290 0.930 . S
C1276 H1264 0.930 . S
C1276 C1277 1.399 . S
C1276 C1281 1.399 . S
C1277 C1276 1.399 . S
C1277 C1278 1.376 . S
C1278 H1265 0.930 . S
C1278 C1277 1.376 . S
C1278 C1279 1.388 . S
C1279 H1266 0.930 . S
C1279 C1278 1.388 . S
C1279 C1280 1.390 . S
C1280 C1279 1.390 . S
C1280 C1281 1.394 . S
C1280 C1286 1.465 . S
C1281 C1276 1.399 . S
C1281 C1280 1.394 . S
C1281 C1282 1.516 . S
C1282 C1281 1.516 . S
C1282 C1283 1.502 . S
C1282 C1284 1.561 . S
C1282 C1285 1.526 . S
C1283 H1267 0.959 . S
C1283 H1268 0.959 . S
C1283 H1269 0.961 . S
C1283 C1282 1.502 . S
C1284 H1270 0.960 . S
C1284 H1271 0.961 . S
C1284 H1272 0.959 . S
C1284 C1282 1.561 . S
C1285 C1282 1.526 . S
C1285 C1286 1.396 . S
C1285 C1290 1.390 . S
C1286 C1280 1.465 . S
C1286 C1285 1.396 . S
C1286 C1287 1.399 . S
C1287 H1273 0.929 . S
C1287 C1286 1.399 . S
C1287 C1288 1.385 . S
C1288 H1274 0.931 . S
C1288 C1287 1.385 . S
C1288 C1289 1.389 . S
C1289 C1288 1.389 . S
C1289 C1290 1.387 . S
C1290 H1275 0.930 . S
C1290 C1285 1.390 . S
C1290 C1289 1.387 . S
H1291 C1303 0.930 . S
H1292 C1305 0.930 . S
H1293 C1306 0.930 . S
H1294 C1310 0.959 . S
H1295 C1310 0.959 . S
H1296 C1310 0.961 . S
H1297 C1311 0.960 . S
H1298 C1311 0.961 . S
H1299 C1311 0.959 . S
H1300 C1314 0.929 . S
H1301 C1315 0.931 . S
H1302 C1317 0.930 . S
C1303 H1291 0.930 . S
C1303 C1304 1.399 . S
C1303 C1308 1.399 . S
C1304 C1303 1.399 . S
C1304 C1305 1.376 . S
C1305 H1292 0.930 . S
C1305 C1304 1.376 . S
C1305 C1306 1.388 . S
C1306 H1293 0.930 . S
C1306 C1305 1.388 . S
C1306 C1307 1.390 . S
C1307 C1306 1.390 . S
C1307 C1308 1.394 . S
C1307 C1313 1.465 . S
C1308 C1303 1.399 . S
C1308 C1307 1.394 . S
C1308 C1309 1.516 . S
C1309 C1308 1.516 . S
C1309 C1310 1.502 . S
C1309 C1311 1.561 . S
C1309 C1312 1.526 . S
C1310 H1294 0.959 . S
C1310 H1295 0.959 . S
C1310 H1296 0.961 . S
C1310 C1309 1.502 . S
C1311 H1297 0.960 . S
C1311 H1298 0.961 . S
C1311 H1299 0.959 . S
C1311 C1309 1.561 . S
C1312 C1309 1.526 . S
C1312 C1313 1.396 . S
C1312 C1317 1.390 . S
C1313 C1307 1.465 . S
C1313 C1312 1.396 . S
C1313 C1314 1.399 . S
C1314 H1300 0.929 . S
C1314 C1313 1.399 . S
C1314 C1315 1.385 . S
C1315 H1301 0.931 . S
C1315 C1314 1.385 . S
C1315 C1316 1.389 . S
C1316 C1315 1.389 . S
C1316 C1317 1.387 . S
C1317 H1302 0.930 . S
C1317 C1312 1.390 . S
C1317 C1316 1.387 . S
H1318 C1330 0.930 . S
H1319 C1332 0.930 . S
H1320 C1333 0.930 . S
H1321 C1337 0.959 . S
H1322 C1337 0.959 . S
H1323 C1337 0.961 . S
H1324 C1338 0.960 . S
H1325 C1338 0.961 . S
H1326 C1338 0.959 . S
H1327 C1341 0.929 . S
H1328 C1342 0.931 . S
H1329 C1344 0.930 . S
C1330 H1318 0.930 . S
C1330 C1331 1.399 . S
C1330 C1335 1.399 . S
C1331 C1330 1.399 . S
C1331 C1332 1.376 . S
C1332 H1319 0.930 . S
C1332 C1331 1.376 . S
C1332 C1333 1.388 . S
C1333 H1320 0.930 . S
C1333 C1332 1.388 . S
C1333 C1334 1.390 . S
C1334 C1333 1.390 . S
C1334 C1335 1.394 . S
C1334 C1340 1.465 . S
C1335 C1330 1.399 . S
C1335 C1334 1.394 . S
C1335 C1336 1.516 . S
C1336 C1335 1.516 . S
C1336 C1337 1.502 . S
C1336 C1338 1.561 . S
C1336 C1339 1.526 . S
C1337 H1321 0.959 . S
C1337 H1322 0.959 . S
C1337 H1323 0.961 . S
C1337 C1336 1.502 . S
C1338 H1324 0.960 . S
C1338 H1325 0.961 . S
C1338 H1326 0.959 . S
C1338 C1336 1.561 . S
C1339 C1336 1.526 . S
C1339 C1340 1.396 . S
C1339 C1344 1.390 . S
C1340 C1334 1.465 . S
C1340 C1339 1.396 . S
C1340 C1341 1.399 . S
C1341 H1327 0.929 . S
C1341 C1340 1.399 . S
C1341 C1342 1.385 . S
C1342 H1328 0.931 . S
C1342 C1341 1.385 . S
C1342 C1343 1.389 . S
C1343 C1342 1.389 . S
C1343 C1344 1.387 . S
C1344 H1329 0.930 . S
C1344 C1339 1.390 . S
C1344 C1343 1.387 . S
H1345 C1357 0.930 . S
H1346 C1359 0.930 . S
H1347 C1360 0.930 . S
H1348 C1364 0.959 . S
H1349 C1364 0.959 . S
H1350 C1364 0.961 . S
H1351 C1365 0.960 . S
H1352 C1365 0.961 . S
H1353 C1365 0.959 . S
H1354 C1368 0.929 . S
H1355 C1369 0.931 . S
H1356 C1371 0.930 . S
C1357 H1345 0.930 . S
C1357 C1358 1.399 . S
C1357 C1362 1.399 . S
C1358 C1357 1.399 . S
C1358 C1359 1.376 . S
C1359 H1346 0.930 . S
C1359 C1358 1.376 . S
C1359 C1360 1.388 . S
C1360 H1347 0.930 . S
C1360 C1359 1.388 . S
C1360 C1361 1.390 . S
C1361 C1360 1.390 . S
C1361 C1362 1.394 . S
C1361 C1367 1.465 . S
C1362 C1357 1.399 . S
C1362 C1361 1.394 . S
C1362 C1363 1.516 . S
C1363 C1362 1.516 . S
C1363 C1364 1.502 . S
C1363 C1365 1.561 . S
C1363 C1366 1.526 . S
C1364 H1348 0.959 . S
C1364 H1349 0.959 . S
C1364 H1350 0.961 . S
C1364 C1363 1.502 . S
C1365 H1351 0.960 . S
C1365 H1352 0.961 . S
C1365 H1353 0.959 . S
C1365 C1363 1.561 . S
C1366 C1363 1.526 . S
C1366 C1367 1.396 . S
C1366 C1371 1.390 . S
C1367 C1361 1.465 . S
C1367 C1366 1.396 . S
C1367 C1368 1.399 . S
C1368 H1354 0.929 . S
C1368 C1367 1.399 . S
C1368 C1369 1.385 . S
C1369 H1355 0.931 . S
C1369 C1368 1.385 . S
C1369 C1370 1.389 . S
C1370 C1369 1.389 . S
C1370 C1371 1.387 . S
C1371 H1356 0.930 . S
C1371 C1366 1.390 . S
C1371 C1370 1.387 . S
H1372 C1384 0.930 . S
H1373 C1386 0.930 . S
H1374 C1387 0.930 . S
H1375 C1391 0.959 . S
H1376 C1391 0.959 . S
H1377 C1391 0.961 . S
H1378 C1392 0.960 . S
H1379 C1392 0.961 . S
H1380 C1392 0.959 . S
H1381 C1395 0.929 . S
H1382 C1396 0.931 . S
H1383 C1398 0.930 . S
C1384 H1372 0.930 . S
C1384 C1385 1.399 . S
C1384 C1389 1.399 . S
C1385 C1384 1.399 . S
C1385 C1386 1.376 . S
C1386 H1373 0.930 . S
C1386 C1385 1.376 . S
C1386 C1387 1.388 . S
C1387 H1374 0.930 . S
C1387 C1386 1.388 . S
C1387 C1388 1.390 . S
C1388 C1387 1.390 . S
C1388 C1389 1.394 . S
C1388 C1394 1.465 . S
C1389 C1384 1.399 . S
C1389 C1388 1.394 . S
C1389 C1390 1.516 . S
C1390 C1389 1.516 . S
C1390 C1391 1.502 . S
C1390 C1392 1.561 . S
C1390 C1393 1.526 . S
C1391 H1375 0.959 . S
C1391 H1376 0.959 . S
C1391 H1377 0.961 . S
C1391 C1390 1.502 . S
C1392 H1378 0.960 . S
C1392 H1379 0.961 . S
C1392 H1380 0.959 . S
C1392 C1390 1.561 . S
C1393 C1390 1.526 . S
C1393 C1394 1.396 . S
C1393 C1398 1.390 . S
C1394 C1388 1.465 . S
C1394 C1393 1.396 . S
C1394 C1395 1.399 . S
C1395 H1381 0.929 . S
C1395 C1394 1.399 . S
C1395 C1396 1.385 . S
C1396 H1382 0.931 . S
C1396 C1395 1.385 . S
C1396 C1397 1.389 . S
C1397 C1396 1.389 . S
C1397 C1398 1.387 . S
C1398 H1383 0.930 . S
C1398 C1393 1.390 . S
C1398 C1397 1.387 . S
H1399 C1411 0.930 . S
H1400 C1413 0.930 . S
H1401 C1414 0.930 . S
H1402 C1418 0.959 . S
H1403 C1418 0.959 . S
H1404 C1418 0.961 . S
H1405 C1419 0.960 . S
H1406 C1419 0.961 . S
H1407 C1419 0.959 . S
H1408 C1422 0.929 . S
H1409 C1423 0.931 . S
H1410 C1425 0.930 . S
C1411 H1399 0.930 . S
C1411 C1412 1.399 . S
C1411 C1416 1.399 . S
C1412 C1411 1.399 . S
C1412 C1413 1.376 . S
C1413 H1400 0.930 . S
C1413 C1412 1.376 . S
C1413 C1414 1.388 . S
C1414 H1401 0.930 . S
C1414 C1413 1.388 . S
C1414 C1415 1.390 . S
C1415 C1414 1.390 . S
C1415 C1416 1.394 . S
C1415 C1421 1.465 . S
C1416 C1411 1.399 . S
C1416 C1415 1.394 . S
C1416 C1417 1.516 . S
C1417 C1416 1.516 . S
C1417 C1418 1.502 . S
C1417 C1419 1.561 . S
C1417 C1420 1.526 . S
C1418 H1402 0.959 . S
C1418 H1403 0.959 . S
C1418 H1404 0.961 . S
C1418 C1417 1.502 . S
C1419 H1405 0.960 . S
C1419 H1406 0.961 . S
C1419 H1407 0.959 . S
C1419 C1417 1.561 . S
C1420 C1417 1.526 . S
C1420 C1421 1.396 . S
C1420 C1425 1.390 . S
C1421 C1415 1.465 . S
C1421 C1420 1.396 . S
C1421 C1422 1.399 . S
C1422 H1408 0.929 . S
C1422 C1421 1.399 . S
C1422 C1423 1.385 . S
C1423 H1409 0.931 . S
C1423 C1422 1.385 . S
C1423 C1424 1.389 . S
C1424 C1423 1.389 . S
C1424 C1425 1.387 . S
C1425 H1410 0.930 . S
C1425 C1420 1.390 . S
C1425 C1424 1.387 . S
H1426 C1438 0.930 . S
H1427 C1440 0.930 . S
H1428 C1441 0.930 . S
H1429 C1445 0.959 . S
H1430 C1445 0.959 . S
H1431 C1445 0.961 . S
H1432 C1446 0.960 . S
H1433 C1446 0.961 . S
H1434 C1446 0.959 . S
H1435 C1449 0.929 . S
H1436 C1450 0.931 . S
H1437 C1452 0.930 . S
C1438 H1426 0.930 . S
C1438 C1439 1.399 . S
C1438 C1443 1.399 . S
C1439 C1438 1.399 . S
C1439 C1440 1.376 . S
C1440 H1427 0.930 . S
C1440 C1439 1.376 . S
C1440 C1441 1.388 . S
C1441 H1428 0.930 . S
C1441 C1440 1.388 . S
C1441 C1442 1.390 . S
C1442 C1441 1.390 . S
C1442 C1443 1.394 . S
C1442 C1448 1.465 . S
C1443 C1438 1.399 . S
C1443 C1442 1.394 . S
C1443 C1444 1.516 . S
C1444 C1443 1.516 . S
C1444 C1445 1.502 . S
C1444 C1446 1.561 . S
C1444 C1447 1.526 . S
C1445 H1429 0.959 . S
C1445 H1430 0.959 . S
C1445 H1431 0.961 . S
C1445 C1444 1.502 . S
C1446 H1432 0.960 . S
C1446 H1433 0.961 . S
C1446 H1434 0.959 . S
C1446 C1444 1.561 . S
C1447 C1444 1.526 . S
C1447 C1448 1.396 . S
C1447 C1452 1.390 . S
C1448 C1442 1.465 . S
C1448 C1447 1.396 . S
C1448 C1449 1.399 . S
C1449 H1435 0.929 . S
C1449 C1448 1.399 . S
C1449 C1450 1.385 . S
C1450 H1436 0.931 . S
C1450 C1449 1.385 . S
C1450 C1451 1.389 . S
C1451 C1450 1.389 . S
C1451 C1452 1.387 . S
C1452 H1437 0.930 . S
C1452 C1447 1.390 . S
C1452 C1451 1.387 . S
H1453 C1465 0.930 . S
H1454 C1467 0.930 . S
H1455 C1468 0.930 . S
H1456 C1472 0.959 . S
H1457 C1472 0.959 . S
H1458 C1472 0.961 . S
H1459 C1473 0.960 . S
H1460 C1473 0.961 . S
H1461 C1473 0.959 . S
H1462 C1476 0.929 . S
H1463 C1477 0.931 . S
H1464 C1479 0.930 . S
C1465 H1453 0.930 . S
C1465 C1466 1.399 . S
C1465 C1470 1.399 . S
C1466 C1465 1.399 . S
C1466 C1467 1.376 . S
C1467 H1454 0.930 . S
C1467 C1466 1.376 . S
C1467 C1468 1.388 . S
C1468 H1455 0.930 . S
C1468 C1467 1.388 . S
C1468 C1469 1.390 . S
C1469 C1468 1.390 . S
C1469 C1470 1.394 . S
C1469 C1475 1.465 . S
C1470 C1465 1.399 . S
C1470 C1469 1.394 . S
C1470 C1471 1.516 . S
C1471 C1470 1.516 . S
C1471 C1472 1.502 . S
C1471 C1473 1.561 . S
C1471 C1474 1.526 . S
C1472 H1456 0.959 . S
C1472 H1457 0.959 . S
C1472 H1458 0.961 . S
C1472 C1471 1.502 . S
C1473 H1459 0.960 . S
C1473 H1460 0.961 . S
C1473 H1461 0.959 . S
C1473 C1471 1.561 . S
C1474 C1471 1.526 . S
C1474 C1475 1.396 . S
C1474 C1479 1.390 . S
C1475 C1469 1.465 . S
C1475 C1474 1.396 . S
C1475 C1476 1.399 . S
C1476 H1462 0.929 . S
C1476 C1475 1.399 . S
C1476 C1477 1.385 . S
C1477 H1463 0.931 . S
C1477 C1476 1.385 . S
C1477 C1478 1.389 . S
C1478 C1477 1.389 . S
C1478 C1479 1.387 . S
C1479 H1464 0.930 . S
C1479 C1474 1.390 . S
C1479 C1478 1.387 . S
H1480 C1492 0.930 . S
H1481 C1494 0.930 . S
H1482 C1495 0.930 . S
H1483 C1499 0.959 . S
H1484 C1499 0.959 . S
H1485 C1499 0.961 . S
H1486 C1500 0.960 . S
H1487 C1500 0.961 . S
H1488 C1500 0.959 . S
H1489 C1503 0.929 . S
H1490 C1504 0.931 . S
H1491 C1506 0.930 . S
C1492 H1480 0.930 . S
C1492 C1493 1.399 . S
C1492 C1497 1.399 . S
C1493 C1492 1.399 . S
C1493 C1494 1.376 . S
C1494 H1481 0.930 . S
C1494 C1493 1.376 . S
C1494 C1495 1.388 . S
C1495 H1482 0.930 . S
C1495 C1494 1.388 . S
C1495 C1496 1.390 . S
C1496 C1495 1.390 . S
C1496 C1497 1.394 . S
C1496 C1502 1.465 . S
C1497 C1492 1.399 . S
C1497 C1496 1.394 . S
C1497 C1498 1.516 . S
C1498 C1497 1.516 . S
C1498 C1499 1.502 . S
C1498 C1500 1.561 . S
C1498 C1501 1.526 . S
C1499 H1483 0.959 . S
C1499 H1484 0.959 . S
C1499 H1485 0.961 . S
C1499 C1498 1.502 . S
C1500 H1486 0.960 . S
C1500 H1487 0.961 . S
C1500 H1488 0.959 . S
C1500 C1498 1.561 . S
C1501 C1498 1.526 . S
C1501 C1502 1.396 . S
C1501 C1506 1.390 . S
C1502 C1496 1.465 . S
C1502 C1501 1.396 . S
C1502 C1503 1.399 . S
C1503 H1489 0.929 . S
C1503 C1502 1.399 . S
C1503 C1504 1.385 . S
C1504 H1490 0.931 . S
C1504 C1503 1.385 . S
C1504 C1505 1.389 . S
C1505 C1504 1.389 . S
C1505 C1506 1.387 . S
C1506 H1491 0.930 . S
C1506 C1501 1.390 . S
C1506 C1505 1.387 . S
H1507 C1519 0.930 . S
H1508 C1521 0.930 . S
H1509 C1522 0.930 . S
H1510 C1526 0.959 . S
H1511 C1526 0.959 . S
H1512 C1526 0.961 . S
H1513 C1527 0.960 . S
H1514 C1527 0.961 . S
H1515 C1527 0.959 . S
H1516 C1530 0.929 . S
H1517 C1531 0.931 . S
H1518 C1533 0.930 . S
C1519 H1507 0.930 . S
C1519 C1520 1.399 . S
C1519 C1524 1.399 . S
C1520 C1519 1.399 . S
C1520 C1521 1.376 . S
C1521 H1508 0.930 . S
C1521 C1520 1.376 . S
C1521 C1522 1.388 . S
C1522 H1509 0.930 . S
C1522 C1521 1.388 . S
C1522 C1523 1.390 . S
C1523 C1522 1.390 . S
C1523 C1524 1.394 . S
C1523 C1529 1.465 . S
C1524 C1519 1.399 . S
C1524 C1523 1.394 . S
C1524 C1525 1.516 . S
C1525 C1524 1.516 . S
C1525 C1526 1.502 . S
C1525 C1527 1.561 . S
C1525 C1528 1.526 . S
C1526 H1510 0.959 . S
C1526 H1511 0.959 . S
C1526 H1512 0.961 . S
C1526 C1525 1.502 . S
C1527 H1513 0.960 . S
C1527 H1514 0.961 . S
C1527 H1515 0.959 . S
C1527 C1525 1.561 . S
C1528 C1525 1.526 . S
C1528 C1529 1.396 . S
C1528 C1533 1.390 . S
C1529 C1523 1.465 . S
C1529 C1528 1.396 . S
C1529 C1530 1.399 . S
C1530 H1516 0.929 . S
C1530 C1529 1.399 . S
C1530 C1531 1.385 . S
C1531 H1517 0.931 . S
C1531 C1530 1.385 . S
C1531 C1532 1.389 . S
C1532 C1531 1.389 . S
C1532 C1533 1.387 . S
C1533 H1518 0.930 . S
C1533 C1528 1.390 . S
C1533 C1532 1.387 . S
H1534 C1546 0.930 . S
H1535 C1548 0.930 . S
H1536 C1549 0.930 . S
H1537 C1553 0.959 . S
H1538 C1553 0.959 . S
H1539 C1553 0.961 . S
H1540 C1554 0.960 . S
H1541 C1554 0.961 . S
H1542 C1554 0.959 . S
H1543 C1557 0.929 . S
H1544 C1558 0.931 . S
H1545 C1560 0.930 . S
C1546 H1534 0.930 . S
C1546 C1547 1.399 . S
C1546 C1551 1.399 . S
C1547 C1546 1.399 . S
C1547 C1548 1.376 . S
C1548 H1535 0.930 . S
C1548 C1547 1.376 . S
C1548 C1549 1.388 . S
C1549 H1536 0.930 . S
C1549 C1548 1.388 . S
C1549 C1550 1.390 . S
C1550 C1549 1.390 . S
C1550 C1551 1.394 . S
C1550 C1556 1.465 . S
C1551 C1546 1.399 . S
C1551 C1550 1.394 . S
C1551 C1552 1.516 . S
C1552 C1551 1.516 . S
C1552 C1553 1.502 . S
C1552 C1554 1.561 . S
C1552 C1555 1.526 . S
C1553 H1537 0.959 . S
C1553 H1538 0.959 . S
C1553 H1539 0.961 . S
C1553 C1552 1.502 . S
C1554 H1540 0.960 . S
C1554 H1541 0.961 . S
C1554 H1542 0.959 . S
C1554 C1552 1.561 . S
C1555 C1552 1.526 . S
C1555 C1556 1.396 . S
C1555 C1560 1.390 . S
C1556 C1550 1.465 . S
C1556 C1555 1.396 . S
C1556 C1557 1.399 . S
C1557 H1543 0.929 . S
C1557 C1556 1.399 . S
C1557 C1558 1.385 . S
C1558 H1544 0.931 . S
C1558 C1557 1.385 . S
C1558 C1559 1.389 . S
C1559 C1558 1.389 . S
C1559 C1560 1.387 . S
C1560 H1545 0.930 . S
C1560 C1555 1.390 . S
C1560 C1559 1.387 . S
H1561 C1573 0.930 . S
H1562 C1575 0.930 . S
H1563 C1576 0.930 . S
H1564 C1580 0.959 . S
H1565 C1580 0.959 . S
H1566 C1580 0.961 . S
H1567 C1581 0.960 . S
H1568 C1581 0.961 . S
H1569 C1581 0.959 . S
H1570 C1584 0.929 . S
H1571 C1585 0.931 . S
H1572 C1587 0.930 . S
C1573 H1561 0.930 . S
C1573 C1574 1.399 . S
C1573 C1578 1.399 . S
C1574 C1573 1.399 . S
C1574 C1575 1.376 . S
C1575 H1562 0.930 . S
C1575 C1574 1.376 . S
C1575 C1576 1.388 . S
C1576 H1563 0.930 . S
C1576 C1575 1.388 . S
C1576 C1577 1.390 . S
C1577 C1576 1.390 . S
C1577 C1578 1.394 . S
C1577 C1583 1.465 . S
C1578 C1573 1.399 . S
C1578 C1577 1.394 . S
C1578 C1579 1.516 . S
C1579 C1578 1.516 . S
C1579 C1580 1.502 . S
C1579 C1581 1.561 . S
C1579 C1582 1.526 . S
C1580 H1564 0.959 . S
C1580 H1565 0.959 . S
C1580 H1566 0.961 . S
C1580 C1579 1.502 . S
C1581 H1567 0.960 . S
C1581 H1568 0.961 . S
C1581 H1569 0.959 . S
C1581 C1579 1.561 . S
C1582 C1579 1.526 . S
C1582 C1583 1.396 . S
C1582 C1587 1.390 . S
C1583 C1577 1.465 . S
C1583 C1582 1.396 . S
C1583 C1584 1.399 . S
C1584 H1570 0.929 . S
C1584 C1583 1.399 . S
C1584 C1585 1.385 . S
C1585 H1571 0.931 . S
C1585 C1584 1.385 . S
C1585 C1586 1.389 . S
C1586 C1585 1.389 . S
C1586 C1587 1.387 . S
C1587 H1572 0.930 . S
C1587 C1582 1.390 . S
C1587 C1586 1.387 . S
H1588 C1600 0.930 . S
H1589 C1602 0.930 . S
H1590 C1603 0.930 . S
H1591 C1607 0.959 . S
H1592 C1607 0.959 . S
H1593 C1607 0.961 . S
H1594 C1608 0.960 . S
H1595 C1608 0.961 . S
H1596 C1608 0.959 . S
H1597 C1611 0.929 . S
H1598 C1612 0.931 . S
H1599 C1614 0.930 . S
C1600 H1588 0.930 . S
C1600 C1601 1.399 . S
C1600 C1605 1.399 . S
C1601 C1600 1.399 . S
C1601 C1602 1.376 . S
C1602 H1589 0.930 . S
C1602 C1601 1.376 . S
C1602 C1603 1.388 . S
C1603 H1590 0.930 . S
C1603 C1602 1.388 . S
C1603 C1604 1.390 . S
C1604 C1603 1.390 . S
C1604 C1605 1.394 . S
C1604 C1610 1.465 . S
C1605 C1600 1.399 . S
C1605 C1604 1.394 . S
C1605 C1606 1.516 . S
C1606 C1605 1.516 . S
C1606 C1607 1.502 . S
C1606 C1608 1.561 . S
C1606 C1609 1.526 . S
C1607 H1591 0.959 . S
C1607 H1592 0.959 . S
C1607 H1593 0.961 . S
C1607 C1606 1.502 . S
C1608 H1594 0.960 . S
C1608 H1595 0.961 . S
C1608 H1596 0.959 . S
C1608 C1606 1.561 . S
C1609 C1606 1.526 . S
C1609 C1610 1.396 . S
C1609 C1614 1.390 . S
C1610 C1604 1.465 . S
C1610 C1609 1.396 . S
C1610 C1611 1.399 . S
C1611 H1597 0.929 . S
C1611 C1610 1.399 . S
C1611 C1612 1.385 . S
C1612 H1598 0.931 . S
C1612 C1611 1.385 . S
C1612 C1613 1.389 . S
C1613 C1612 1.389 . S
C1613 C1614 1.387 . S
C1614 H1599 0.930 . S
C1614 C1609 1.390 . S
C1614 C1613 1.387 . S
H1615 C1627 0.930 . S
H1616 C1629 0.930 . S
H1617 C1630 0.930 . S
H1618 C1634 0.959 . S
H1619 C1634 0.959 . S
H1620 C1634 0.961 . S
H1621 C1635 0.960 . S
H1622 C1635 0.961 . S
H1623 C1635 0.959 . S
H1624 C1638 0.929 . S
H1625 C1639 0.931 . S
H1626 C1641 0.930 . S
C1627 H1615 0.930 . S
C1627 C1628 1.399 . S
C1627 C1632 1.399 . S
C1628 C1627 1.399 . S
C1628 C1629 1.376 . S
C1629 H1616 0.930 . S
C1629 C1628 1.376 . S
C1629 C1630 1.388 . S
C1630 H1617 0.930 . S
C1630 C1629 1.388 . S
C1630 C1631 1.390 . S
C1631 C1630 1.390 . S
C1631 C1632 1.394 . S
C1631 C1637 1.465 . S
C1632 C1627 1.399 . S
C1632 C1631 1.394 . S
C1632 C1633 1.516 . S
C1633 C1632 1.516 . S
C1633 C1634 1.502 . S
C1633 C1635 1.561 . S
C1633 C1636 1.526 . S
C1634 H1618 0.959 . S
C1634 H1619 0.959 . S
C1634 H1620 0.961 . S
C1634 C1633 1.502 . S
C1635 H1621 0.960 . S
C1635 H1622 0.961 . S
C1635 H1623 0.959 . S
C1635 C1633 1.561 . S
C1636 C1633 1.526 . S
C1636 C1637 1.396 . S
C1636 C1641 1.390 . S
C1637 C1631 1.465 . S
C1637 C1636 1.396 . S
C1637 C1638 1.399 . S
C1638 H1624 0.929 . S
C1638 C1637 1.399 . S
C1638 C1639 1.385 . S
C1639 H1625 0.931 . S
C1639 C1638 1.385 . S
C1639 C1640 1.389 . S
C1640 C1639 1.389 . S
C1640 C1641 1.387 . S
C1641 H1626 0.930 . S
C1641 C1636 1.390 . S
C1641 C1640 1.387 . S
C371 C171 1.772 . S
C359 C9 1.770 . S
C398 C161 2.004 . S
C386 C28 2.012 . S
C425 C162 0.810 . S
C413 C49 0.861 . S
C440 C79 1.978 . S
C452 C184 1.941 . S
C467 C99 2.000 . S
C479 C187 2.025 . S
C506 C170 0.914 . S
C494 C101 0.905 . S
C521 C128 1.928 . S
C533 C160 1.989 . S
C548 C141 1.747 . S
C560 C178 1.768 . S
C587 C191 1.325 . S
C575 C16 1.296 . S
C602 C26 1.071 . S
C614 C240 1.070 . S
C641 C218 1.359 . S
C629 C56 1.345 . S
C668 C232 0.913 . S
C656 C69 0.838 . S
C683 C89 0.877 . S
C695 C193 0.787 . S
C722 C246 1.993 . S
C710 C108 1.987 . S
C737 C126 1.042 . S
C749 C202 1.121 . S
C764 C148 2.012 . S
C776 C223 2.048 . S
C791 C19 2.027 . S
C803 C249 2.065 . S
C818 C96 1.037 . S
C830 C233 1.139 . S
C857 C192 1.319 . S
C845 C106 1.244 . S
C884 C224 0.842 . S
C872 C121 0.820 . S
C899 C146 1.213 . S
C911 C215 1.289 . S
C926 C59 1.932 . S
C938 C222 1.951 . S
C965 C209 1.134 . S
C953 C76 1.035 . S
C980 C21 0.877 . S
C992 C201 0.762 . S
C1007 C149 1.774 . S
C1019 C264 1.726 . S
C1034 C88 1.978 . S
C1046 C254 2.052 . S
C1073 C255 0.914 . S
C1061 C109 0.891 . S
C1100 C277 1.993 . S
C1088 C139 1.914 . S
C1115 C39 2.008 . S
C1127 C280 2.017 . S
C1154 C263 0.803 . S
C1142 C41 0.821 . S
C1169 C68 1.950 . S
C1181 C253 1.972 . S
C1196 C1 1.796 . S
C1208 C271 1.745 . S
C1223 C156 1.298 . S
C1235 C284 1.327 . S
C1262 C333 1.140 . S
C1250 C86 1.059 . S
C1277 C116 1.337 . S
C1289 C311 1.339 . S
C1304 C129 0.862 . S
C1316 C325 0.759 . S
C1343 C286 0.905 . S
C1331 C29 0.799 . S
C1358 C48 1.985 . S
C1370 C339 1.991 . S
C1397 C295 1.110 . S
C1385 C66 1.148 . S
C1424 C316 2.039 . S
C1412 C8 2.002 . S
C1451 C342 2.032 . S
C1439 C159 2.023 . S
C1466 C36 1.033 . S
C1478 C326 1.142 . S
C1493 C46 1.300 . S
C1505 C285 1.332 . S
C1532 C317 0.802 . S
C1520 C61 0.894 . S
C1547 C6 1.270 . S
C1559 C308 1.301 . S
C1574 C119 1.933 . S
C1586 C315 1.952 . S
C1613 C302 1.146 . S
C1601 C136 1.046 . S
C1640 C294 0.773 . S
C1628 C81 0.864 . S
