# Generated by pormake.
# Topology scu, (8,4)-cn, num edge types: 1
# Building blocks:
#     Node 0, Type 0, BuildingBlock: TAGTUT_clean_sbu_3, # of connection points: 8
#     Node 1, Type 1, BuildingBlock: KOZSID_clean_sbu_0, # of connection points: 4
#     Node 2, Type 1, BuildingBlock: KOZSID_clean_sbu_0, # of connection points: 4
#     Edge 3, Type (0, 1), BuildingBlock: XUDNAN_clean_linker_2, # of connection points: 2
#     Edge 4, Type (0, 1), BuildingBlock: XUDNAN_clean_linker_2, # of connection points: 2
#     Edge 5, Type (0, 1), BuildingBlock: XUDNAN_clean_linker_2, # of connection points: 2
#     Edge 6, Type (0, 1), BuildingBlock: XUDNAN_clean_linker_2, # of connection points: 2
#     Edge 7, Type (0, 1), BuildingBlock: XUDNAN_clean_linker_2, # of connection points: 2
#     Edge 8, Type (0, 1), BuildingBlock: XUDNAN_clean_linker_2, # of connection points: 2
#     Edge 9, Type (0, 1), BuildingBlock: XUDNAN_clean_linker_2, # of connection points: 2
#     Edge 10, Type (0, 1), BuildingBlock: XUDNAN_clean_linker_2, # of connection points: 2
# Relax obj value: 0.023
# Max RMSD: 0.101
# Mean RMSD: 0.062
data_MOF--net-scu--node1-TAGTUT_clean_sbu_3--node2-KOZSID_clean_sbu_0--edge1-XUDNAN_clean_linker_2
_symmetry_space_group_name_H-M    P1
_symmetry_Int_Tables_number       1
_symmetry_cell_setting            triclinic
loop_
_symmetry_equiv_pos_as_xyz
'x, y, z'
_cell_length_a     30.628276
_cell_length_b     25.991205
_cell_length_c     21.210853
_cell_angle_alpha  85.419039
_cell_angle_beta   87.162643
_cell_angle_gamma 89.948469
loop_
_atom_site_label
_atom_site_type_symbol
_atom_site_fract_x
_atom_site_fract_y
_atom_site_fract_z
_atom_type_partial_charge
C0 C 0.00735 0.90747 0.1151 0.0
C1 C 0.8476 0.98249 0.10908 0.0
C2 C 0.87639 0.0036 0.9061 0.0
Mg3 Mg 0.09397 0.93898 0.02589 0.0
Mg4 Mg 0.10575 0.0591 0.96565 0.0
O5 O 0.0717 -0.0016 0.96977 0.0
Mg6 Mg 0.00944 0.00114 0.00495 0.0
O7 O 0.94767 -0.00056 0.04139 0.0
Mg8 Mg 0.92823 0.92969 0.01981 0.0
Mg9 Mg 0.90938 0.0543 0.02057 0.0
C10 C 0.01817 0.09931 0.90103 0.0
O11 O 0.01928 0.07484 0.05669 0.0
O12 O 0.15876 0.94537 0.96092 0.0
O13 O 0.955 0.11561 0.03886 0.0
O14 O 0.12601 0.99006 0.09339 0.0
O15 O 0.16118 0.02716 0.91596 0.0
O16 O 0.12827 0.07325 0.0588 0.0
O17 O 0.99345 0.92929 0.95593 0.0
O18 O 0.0576 0.88814 0.96061 0.0
C19 C 0.01792 0.89093 0.94353 0.0
C20 C 0.17714 0.98154 0.92356 0.0
O21 O 0.99597 0.05901 0.92186 0.0
O22 O 0.86664 0.94242 0.08836 0.0
O23 O 0.05739 0.10818 0.91691 0.0
O24 O 0.88987 0.96154 0.93385 0.0
O25 O 0.85937 0.02879 0.09075 0.0
O26 O 0.8827 0.04698 0.92854 0.0
O27 O 0.0287 0.94389 0.08373 0.0
O28 O 0.96785 0.89732 0.10332 0.0
C29 C 0.13568 0.03679 0.10087 0.0
C30 C 0.99458 0.11499 0.05684 0.0
C31 C 0.07496 0.57738 0.42917 0.0
C32 C 0.11876 0.59182 0.42548 0.0
C33 C 0.14015 0.55609 0.46285 0.0
C34 C 0.10835 0.52234 0.48768 0.0
N35 N 0.0678 0.53427 0.46865 0.0
Co36 Co 0.01179 0.49704 0.49651 0.0
N37 N 0.04312 0.44683 0.55501 0.0
C38 C 0.08647 0.44569 0.56465 0.0
C39 C 0.099 0.40499 0.60451 0.0
C40 C 0.06143 0.37856 0.62184 0.0
C41 C 0.02774 0.4053 0.59215 0.0
N42 N 0.95586 0.45921 0.52341 0.0
C43 C 0.94838 0.41776 0.56553 0.0
C44 C 0.90427 0.40486 0.57184 0.0
C45 C 0.88324 0.43859 0.53135 0.0
C46 C 0.91542 0.47032 0.50317 0.0
N47 N 0.9803 0.54786 0.43885 0.0
C48 C 0.93694 0.54905 0.42915 0.0
C49 C 0.92508 0.58709 0.38499 0.0
C50 C 0.963 0.61222 0.36575 0.0
C51 C 0.99596 0.58839 0.40017 0.0
N52 N 0.02133 0.45114 0.42646 0.0
C53 C 0.03472 0.38981 0.32358 0.0
C54 C 0.99474 0.41391 0.33484 0.0
C55 C 0.9887 0.44371 0.38623 0.0
C56 C 0.06772 0.39568 0.36547 0.0
C57 C 0.0605 0.42671 0.41604 0.0
N58 N 1.00225 0.5433 0.56609 0.0
C59 C 0.95436 0.59787 0.62548 0.0
C60 C 0.98955 0.61718 0.65601 0.0
C61 C 0.03102 0.59676 0.64275 0.0
C62 C 0.03645 0.55966 0.59875 0.0
C63 C 0.96142 0.56177 0.58084 0.0
H64 H 0.06878 0.54553 0.59102 0.0
H65 H 0.93329 0.55007 0.55825 0.0
H66 H 0.9573 0.46042 0.39214 0.0
H67 H 0.08717 0.43062 0.44567 0.0
C68 C 0.11512 0.48131 0.53235 0.0
C69 C 0.04138 0.60625 0.39519 0.0
C70 C 0.9818 0.38965 0.60072 0.0
C71 C 0.90837 0.51243 0.45995 0.0
H72 H 0.13382 0.62516 0.39935 0.0
H73 H 0.17459 0.55552 0.47212 0.0
H74 H 0.13174 0.395 0.61811 0.0
H75 H 0.05949 0.34315 0.65228 0.0
H76 H 0.88871 0.37447 0.60283 0.0
H77 H 0.84852 0.44031 0.52406 0.0
H78 H 0.8928 0.59517 0.36818 0.0
H79 H 0.96583 0.64441 0.33017 0.0
H80 H 0.96789 0.40945 0.30427 0.0
H81 H 0.0992 0.37738 0.3585 0.0
H82 H 0.92129 0.61079 0.6353 0.0
H83 H 0.05962 0.61019 0.66464 0.0
C84 C 0.45586 0.94509 0.62369 0.0
C85 C 0.4376 0.89741 0.64504 0.0
C86 C 0.44467 0.86535 0.59756 0.0
C87 C 0.46668 0.89482 0.54988 0.0
N88 N 0.47468 0.94334 0.56469 0.0
Co89 Co 0.50303 -0.00134 0.50674 0.0
N90 N 0.52681 0.94778 0.44926 0.0
C91 C 0.51262 0.89921 0.44604 0.0
C92 C 0.53655 0.87306 0.40241 0.0
C93 C 0.56778 0.90745 0.37674 0.0
C94 C 0.56089 0.95271 0.40625 0.0
N95 N 0.53138 0.0532 0.44806 0.0
C96 C 0.56544 0.04906 0.40567 0.0
C97 C 0.57671 0.0967 0.37531 0.0
C98 C 0.5486 0.13194 0.40027 0.0
C99 C 0.52183 0.10378 0.44422 0.0
N100 N 0.47925 0.0499 0.56393 0.0
C101 C 0.47635 0.10117 0.54905 0.0
C102 C 0.45822 0.12715 0.59769 0.0
C103 C 0.44832 0.08986 0.64565 0.0
C104 C 0.46063 0.04286 0.6234 0.0
N105 N 0.55632 0.99319 0.5546 0.0
C106 C 0.63414 0.98705 0.62019 0.0
C107 C 0.61552 0.03485 0.60184 0.0
C108 C 0.57682 0.03705 0.56948 0.0
C109 C 0.6125 0.94225 0.60513 0.0
C110 C 0.5738 0.94615 0.57238 0.0
N111 N 0.44954 0.00497 0.45901 0.0
C112 C 0.37126 0.01394 0.45935 0.0
C113 C 0.37201 0.01649 0.39302 0.0
C114 C 0.41294 0.01373 0.36037 0.0
C115 C 0.45125 0.00823 0.39418 0.0
C116 C 0.40987 0.00754 0.49105 0.0
H117 H 0.48224 0.00651 0.3679 0.0
H118 H 0.40728 0.00503 0.54186 0.0
H119 H 0.56379 0.07454 0.55589 0.0
H120 H 0.5581 0.91113 0.56117 0.0
C121 C 0.48372 0.87685 0.49332 0.0
C122 C 0.44846 0.99246 0.65645 0.0
C123 C 0.58621 0.00018 0.39202 0.0
C124 C 0.49521 0.12394 0.49187 0.0
H125 H 0.41942 0.88703 0.68919 0.0
H126 H 0.43495 0.82529 0.59788 0.0
H127 H 0.53338 0.83295 0.39302 0.0
H128 H 0.59294 0.89978 0.34113 0.0
H129 H 0.60275 0.10502 0.33956 0.0
H130 H 0.54941 0.17343 0.39029 0.0
H131 H 0.45323 0.16832 0.59852 0.0
H132 H 0.43247 0.09633 0.69107 0.0
H133 H 0.6311 0.07063 0.61125 0.0
H134 H 0.62508 0.90429 0.61894 0.0
H135 H 0.34097 0.01721 0.48727 0.0
H136 H 0.41549 0.01502 0.30919 0.0
H137 H 0.0415 0.12638 0.16138 0.0
H138 H 0.98336 0.21161 0.00289 0.0
H139 H 1.00219 0.29359 0.04589 0.0
H140 H 0.99638 0.19929 0.27285 0.0
H141 H 0.04164 0.19784 0.32415 0.0
H142 H 0.03463 0.14647 0.27369 0.0
H143 H 0.11289 0.16199 0.22397 0.0
H144 H 0.12034 0.21342 0.27476 0.0
H145 H 0.12856 0.22552 0.19015 0.0
H146 H 0.0148 0.36416 0.11274 0.0
H147 H 0.01721 0.41927 0.20181 0.0
H148 H 0.0641 0.29003 0.32161 0.0
C149 C 0.0344 0.16248 0.13478 0.0
C150 C 0.01177 0.16306 0.07837 0.0
C151 C 1.00125 0.21066 0.04576 0.0
C152 C 0.012 0.25735 0.0697 0.0
C153 C 0.03289 0.25575 0.12669 0.0
C154 C 0.04402 0.20961 0.15902 0.0
C155 C 0.05981 0.21852 0.22399 0.0
C156 C 0.0314 0.18879 0.27674 0.0
C157 C 0.10829 0.20401 0.22846 0.0
C158 C 0.05341 0.27641 0.2244 0.0
C159 C 0.03908 0.29715 0.16699 0.0
C160 C 0.02682 0.34868 0.15747 0.0
C161 C 0.02803 0.37959 0.20837 0.0
C162 C 0.04099 0.35883 0.26825 0.0
C163 C 0.05505 0.30701 0.27583 0.0
H164 H 0.75905 0.97228 0.10087 0.0
H165 H 0.86105 0.98312 0.23349 0.0
H166 H 0.80511 0.98816 0.32112 0.0
H167 H 0.68719 0.06121 0.16593 0.0
H168 H 0.63761 0.0267 0.15414 0.0
H169 H 0.68527 0.01902 0.10263 0.0
H170 H 0.68283 0.92 0.1294 0.0
H171 H 0.63469 0.9273 0.18027 0.0
H172 H 0.68194 0.89453 0.21105 0.0
H173 H 0.7383 -0.00153 0.39267 0.0
H174 H 0.66457 0.00688 0.44477 0.0
H175 H 0.60569 0.98962 0.26618 0.0
C176 C 0.76934 0.97418 0.14875 0.0
C177 C 0.8141 0.97617 0.1612 0.0
C178 C 0.82676 0.98041 0.22375 0.0
C179 C 0.79527 0.9836 0.27358 0.0
C180 C 0.75126 0.98253 0.25986 0.0
C181 C 0.73821 0.97724 0.19916 0.0
C182 C 0.68879 0.97873 0.19705 0.0
C183 C 0.67386 0.02413 0.15228 0.0
C184 C 0.67102 0.92707 0.17834 0.0
C185 C 0.67621 0.98685 0.26558 0.0
C186 C 0.71275 0.98877 0.30108 0.0
C187 C 0.70945 0.99663 0.36547 0.0
C188 C 0.66766 0.00167 0.39456 0.0
C189 C 0.62998 -0.00116 0.35924 0.0
C190 C 0.63428 0.99188 0.29391 0.0
H191 H 0.98461 0.87931 0.23788 0.0
H192 H 0.07883 0.85093 0.08573 0.0
H193 H 0.10728 0.77597 0.14997 0.0
H194 H 0.05862 0.83476 0.37217 0.0
H195 H 0.01247 0.80753 0.41936 0.0
H196 H 0.00558 0.8644 0.36631 0.0
H197 H 0.94423 0.81793 0.31264 0.0
H198 H 0.95126 0.7609 0.36468 0.0
H199 H 0.95579 0.75704 0.28016 0.0
H200 H 0.11102 0.69353 0.21737 0.0
H201 H 0.09772 0.6158 0.29095 0.0
H202 H 0.00904 0.70268 0.407 0.0
C203 C 0.01242 0.8584 0.2195 0.0
C204 C 0.03008 0.87074 0.15766 0.0
C205 C 0.06569 0.84238 0.13374 0.0
C206 C 0.08192 0.79976 0.1698 0.0
C207 C 0.06285 0.78728 0.23011 0.0
C208 C 0.02976 0.8167 0.25563 0.0
C209 C 0.01244 0.79269 0.31926 0.0
C210 C 0.02293 0.82688 0.37243 0.0
C211 C 0.96303 0.78148 0.31909 0.0
C212 C 0.03877 0.74344 0.32346 0.0
C213 C 0.06773 0.74101 0.27163 0.0
C214 C 0.09003 0.69575 0.25962 0.0
C215 C 0.08225 0.65185 0.3014 0.0
C216 C 0.05317 0.654 0.35499 0.0
C217 C 0.03226 0.70074 0.36704 0.0
H218 H 0.21431 0.08624 0.10647 0.0
H219 H 0.11275 0.00256 0.2214 0.0
H220 H 0.16079 0.99497 0.31162 0.0
H221 H 0.29892 0.01015 0.15584 0.0
H222 H 0.33955 0.06007 0.15761 0.0
H223 H 0.29506 0.06913 0.10559 0.0
H224 H 0.27291 0.15361 0.15548 0.0
H225 H 0.31804 0.14559 0.2068 0.0
H226 H 0.26331 0.153 0.24008 0.0
H227 H 0.22267 0.9823 0.38142 0.0
H228 H 0.29251 0.97346 0.4327 0.0
H229 H 0.35594 0.06749 0.2757 0.0
C230 C 0.2016 0.06875 0.15171 0.0
C231 C 0.15947 0.04607 0.15773 0.0
C232 C 0.14456 0.02108 0.2165 0.0
C233 C 0.17172 0.01636 0.26783 0.0
C234 C 0.21386 0.03675 0.25964 0.0
C235 C 0.22864 0.06328 0.20354 0.0
C236 C 0.27681 0.07696 0.2057 0.0
C237 C 0.30417 0.05262 0.15306 0.0
C238 C 0.28313 0.13579 0.2018 0.0
C239 C 0.28699 0.05238 0.27074 0.0
C240 C 0.25004 0.02971 0.30093 0.0
C241 C 0.25155 0.00131 0.35919 0.0
C242 C 0.29161 0.99673 0.38814 0.0
C243 C 0.33005 0.02082 0.35945 0.0
C244 C 0.32744 0.04877 0.29947 0.0
H245 H 0.05237 0.79512 0.92791 0.0
H246 H 0.94759 0.89767 0.8689 0.0
H247 H 0.92551 0.83578 0.79381 0.0
H248 H 0.08363 0.75629 0.7793 0.0
H249 H 0.09469 0.69008 0.80544 0.0
H250 H 0.09956 0.73977 0.85908 0.0
H251 H 0.04485 0.69097 0.9397 0.0
H252 H 0.04013 0.64073 0.88655 0.0
H253 H 0.99186 0.67324 0.9148 0.0
H254 H 0.92108 0.76824 0.71627 0.0
H255 H 0.93047 0.69707 0.6473 0.0
H256 H 0.03499 0.63489 0.76196 0.0
C257 C 0.02432 0.80418 0.89996 0.0
C258 C 1.00163 0.85125 0.90421 0.0
C259 C 0.96516 0.86168 0.86677 0.0
C260 C 0.95249 0.82682 0.82387 0.0
C261 C 0.97624 0.78134 0.81975 0.0
C262 C 0.01095 0.76954 0.85749 0.0
C263 C 0.03198 0.71893 0.84225 0.0
C264 C 0.08032 0.72678 0.8202 0.0
C265 C 0.02688 0.67858 0.89922 0.0
C266 C 1.00463 0.70499 0.78854 0.0
C267 C 0.97261 0.74141 0.77644 0.0
C268 C 0.9453 0.73876 0.7263 0.0
C269 C 0.95078 0.69778 0.68755 0.0
C270 C 0.98311 0.65945 0.69929 0.0
C271 C 0.01005 0.66328 0.75107 0.0
H272 H 0.20649 0.02051 0.80585 0.0
H273 H 0.24493 0.92355 0.96953 0.0
H274 H 0.32023 0.91914 0.92164 0.0
H275 H 0.27199 0.95266 0.68984 0.0
H276 H 0.28409 0.01102 0.64035 0.0
H277 H 0.23367 0.00539 0.68782 0.0
H278 H 0.25293 0.08927 0.73899 0.0
H279 H 0.30386 0.0945 0.69267 0.0
H280 H 0.30376 0.09321 0.77777 0.0
H281 H 0.39311 0.93151 0.8583 0.0
H282 H 0.45396 0.94726 0.77717 0.0
H283 H 0.36548 0.03024 0.65265 0.0
C284 C 0.23065 -0.00219 0.83121 0.0
C285 C 0.22004 0.97236 0.89135 0.0
C286 C 0.25238 0.94287 0.92309 0.0
C287 C 0.29527 0.94059 0.89653 0.0
C288 C 0.30496 0.96726 0.83775 0.0
C289 C 0.27321 0.99421 0.80482 0.0
C290 C 0.29147 0.01809 0.74155 0.0
C291 C 0.26898 0.99542 0.68665 0.0
C292 C 0.28778 0.07727 0.73756 0.0
C293 C 0.33863 0.00109 0.74429 0.0
C294 C 0.34604 0.97242 0.80046 0.0
C295 C 0.38753 0.95356 0.81398 0.0
C296 C 0.42191 0.96298 0.76807 0.0
C297 C 0.41434 0.99028 0.70923 0.0
C298 C 0.37225 0.00993 0.6977 0.0
H299 H 0.02481 0.20343 0.89856 0.0
H300 H 0.96635 0.08045 0.80455 0.0
H301 H 0.93944 0.1447 0.72305 0.0
H302 H 0.93511 0.30005 0.86354 0.0
H303 H 0.97382 0.35265 0.85449 0.0
H304 H 0.98328 0.2975 0.9092 0.0
H305 H 0.05919 0.28456 0.85332 0.0
H306 H 0.05002 0.33926 0.79839 0.0
H307 H 0.06287 0.27746 0.76932 0.0
H308 H 0.93484 0.2191 0.64111 0.0
H309 H 0.94459 0.29969 0.57142 0.0
H310 H 0.99451 0.3764 0.7269 0.0
C311 C 1.0054 0.19032 0.86162 0.0
C312 C 0.9978 0.13738 0.85707 0.0
C313 C 0.97237 0.12112 0.80844 0.0
C314 C 0.9569 0.15726 0.76224 0.0
C315 C 0.96585 0.20935 0.76713 0.0
C316 C 0.98846 0.22595 0.81663 0.0
C317 C 0.99575 0.28365 0.80945 0.0
C318 C 0.97046 0.31001 0.86231 0.0
C319 C 0.04485 0.29696 0.80747 0.0
C320 C 0.97634 0.29652 0.746 0.0
C321 C 0.95923 0.25317 0.72226 0.0
C322 C 0.9464 0.25377 0.66004 0.0
C323 C 0.95204 0.29953 0.62083 0.0
C324 C 0.96957 0.34402 0.64451 0.0
C325 C 0.98012 0.34298 0.70846 0.0
H326 H 0.8062 0.06379 0.87122 0.0
H327 H 0.88389 0.93332 0.81743 0.0
H328 H 0.83282 0.91815 0.73446 0.0
H329 H 0.70472 0.00482 0.8577 0.0
H330 H 0.67713 0.06211 0.82716 0.0
H331 H 0.72274 0.06754 0.87658 0.0
H332 H 0.76245 0.12831 0.78938 0.0
H333 H 0.71672 0.12349 0.73984 0.0
H334 H 0.77092 0.10758 0.7106 0.0
H335 H 0.77042 0.91288 0.66263 0.0
H336 H 0.70178 0.91844 0.60644 0.0
H337 H 0.66188 0.04933 0.71055 0.0
C338 C 0.81315 0.03308 0.84061 0.0
C339 C 0.84948 0.0002 0.8502 0.0
C340 C 0.85658 0.95926 0.81063 0.0
C341 C 0.82769 0.95033 0.76333 0.0
C342 C 0.79148 0.9824 0.7563 0.0
C343 C 0.78414 0.02309 0.79367 0.0
C344 C 0.74089 0.04915 0.77963 0.0
C345 C 0.70953 0.04567 0.83878 0.0
C346 C 0.74819 0.10548 0.75328 0.0
C347 C 0.7249 0.01635 0.72925 0.0
C348 C 0.75476 0.97836 0.71613 0.0
C349 C 0.74684 0.94259 0.67241 0.0
C350 C 0.70743 0.94575 0.64114 0.0
C351 C 0.67601 0.98417 0.65391 0.0
C352 C 0.68525 0.01991 0.69871 0.0
loop_
_geom_bond_atom_site_label_1
_geom_bond_atom_site_label_2
_geom_bond_distance
_geom_bond_site_symmetry_2
_ccdc_geom_bond_type
C0 O27 1.312 1_655 S
C0 O28 1.208 . S
C1 O22 1.331 . S
C1 O25 1.244 1_565 S
C2 O24 1.264 1_545 S
C2 O26 1.273 . S
Mg3 O5 1.936 1_565 S
Mg3 O12 2.081 . S
Mg3 O14 2.023 1_556 S
Mg3 O18 2.031 . S
Mg3 O27 2.291 1_556 S
Mg4 O5 1.963 . S
Mg4 O15 1.942 . S
Mg4 O16 1.955 1_556 S
Mg4 O23 1.986 . S
O5 Mg3 1.936 1_545 S
O5 Mg4 1.963 . S
O5 Mg6 1.911 1_556 S
Mg6 O5 1.911 1_554 S
Mg6 O7 1.919 1_455 S
Mg6 O11 2.024 . S
Mg6 O17 2.104 1_444 S
Mg6 O21 2.002 1_454 S
Mg6 O27 2.122 1_545 S
O7 Mg6 1.919 1_655 S
O7 Mg8 1.936 1_545 S
O7 Mg9 1.963 . S
Mg8 O7 1.936 1_565 S
Mg8 O17 2.291 1_554 S
Mg8 O22 2.081 . S
Mg8 O24 2.023 1_554 S
Mg8 O28 2.031 . S
Mg9 O7 1.963 . S
Mg9 O13 1.986 . S
Mg9 O25 1.942 . S
Mg9 O26 1.955 1_554 S
C10 O21 1.191 1_455 S
C10 O23 1.307 . S
O11 Mg6 2.024 . S
O11 C30 1.191 1_455 S
O12 Mg3 2.081 . S
O12 C20 1.331 . S
O13 Mg9 1.986 . S
O13 C30 1.307 . S
O14 Mg3 2.023 1_554 S
O14 C29 1.264 1_565 S
O15 Mg4 1.942 . S
O15 C20 1.244 1_545 S
O16 Mg4 1.955 1_554 S
O16 C29 1.273 . S
O17 Mg6 2.104 1_666 S
O17 Mg8 2.291 1_556 S
O17 C19 1.312 1_655 S
O18 Mg3 2.031 . S
O18 C19 1.208 . S
C19 O17 1.312 1_455 S
C19 O18 1.208 . S
C20 O12 1.331 . S
C20 O15 1.244 1_565 S
O21 Mg6 2.002 1_656 S
O21 C10 1.191 1_655 S
O22 C1 1.331 . S
O22 Mg8 2.081 . S
O23 Mg4 1.986 . S
O23 C10 1.307 . S
O24 C2 1.264 1_565 S
O24 Mg8 2.023 1_556 S
O25 C1 1.244 1_545 S
O25 Mg9 1.942 . S
O26 C2 1.273 . S
O26 Mg9 1.955 1_556 S
O27 C0 1.312 1_455 S
O27 Mg3 2.291 1_554 S
O27 Mg6 2.122 1_565 S
O28 C0 1.208 . S
O28 Mg8 2.031 . S
C29 O14 1.264 1_545 S
C29 O16 1.273 . S
C30 O11 1.191 1_655 S
C30 O13 1.307 . S
C31 C32 1.443 . S
C31 N35 1.376 . S
C31 C69 1.389 . S
C32 C31 1.443 . S
C32 C33 1.340 . S
C32 H72 0.951 . S
C33 C32 1.340 . S
C33 C34 1.439 . S
C33 H73 0.950 . S
C34 C33 1.439 . S
C34 N35 1.374 . S
C34 C68 1.395 . S
N35 C31 1.376 . S
N35 C34 1.374 . S
N35 Co36 2.008 . S
Co36 N35 2.008 . S
Co36 N37 1.995 . S
Co36 N42 2.008 1_455 S
Co36 N47 1.995 1_455 S
Co36 N52 2.282 . S
Co36 N58 2.282 . S
N37 Co36 1.995 . S
N37 C38 1.376 . S
N37 C41 1.383 . S
C38 N37 1.376 . S
C38 C39 1.446 . S
C38 C68 1.391 . S
C39 C38 1.446 . S
C39 C40 1.339 . S
C39 H74 0.949 . S
C40 C39 1.339 . S
C40 C41 1.439 . S
C40 H75 0.950 . S
C41 N37 1.383 . S
C41 C40 1.439 . S
C41 C70 1.392 . S
N42 Co36 2.008 1_655 S
N42 C43 1.376 . S
N42 C46 1.374 . S
C43 N42 1.376 . S
C43 C44 1.443 . S
C43 C70 1.389 1_655 S
C44 C43 1.443 . S
C44 C45 1.340 . S
C44 H76 0.951 . S
C45 C44 1.340 . S
C45 C46 1.439 . S
C45 H77 0.950 . S
C46 N42 1.374 . S
C46 C45 1.439 . S
C46 C71 1.395 . S
N47 Co36 1.995 1_655 S
N47 C48 1.376 . S
N47 C51 1.383 . S
C48 N47 1.376 . S
C48 C49 1.446 . S
C48 C71 1.391 . S
C49 C48 1.446 . S
C49 C50 1.339 . S
C49 H78 0.949 . S
C50 C49 1.339 . S
C50 C51 1.439 . S
C50 H79 0.950 . S
C51 N47 1.383 . S
C51 C50 1.439 . S
C51 C69 1.392 1_655 S
N52 Co36 2.282 . S
N52 C55 1.332 1_455 S
N52 C57 1.332 . S
C53 C54 1.386 1_455 S
C53 C56 1.388 . S
C54 C53 1.386 1_655 S
C54 C55 1.382 . S
C54 H80 0.950 . S
C55 N52 1.332 1_655 S
C55 C54 1.382 . S
C55 H66 0.952 . S
C56 C53 1.388 . S
C56 C57 1.382 . S
C56 H81 0.950 . S
C57 N52 1.332 . S
C57 C56 1.382 . S
C57 H67 0.948 . S
N58 Co36 2.282 . S
N58 C62 1.332 . S
N58 C63 1.332 1_455 S
C59 C60 1.388 1_655 S
C59 C63 1.382 . S
C59 H82 0.950 . S
C60 C59 1.388 1_455 S
C60 C61 1.386 . S
C61 C60 1.386 . S
C61 C62 1.382 . S
C61 H83 0.950 . S
C62 N58 1.332 . S
C62 C61 1.382 . S
C62 H64 0.952 . S
C63 N58 1.332 1_655 S
C63 C59 1.382 . S
C63 H65 0.948 . S
H64 C62 0.952 . S
H65 C63 0.948 . S
H66 C55 0.952 . S
H67 C57 0.948 . S
C68 C34 1.395 . S
C68 C38 1.391 . S
C69 C31 1.389 . S
C69 C51 1.392 1_455 S
C70 C41 1.392 . S
C70 C43 1.389 1_455 S
C71 C46 1.395 . S
C71 C48 1.391 . S
H72 C32 0.951 . S
H73 C33 0.950 . S
H74 C39 0.949 . S
H75 C40 0.950 . S
H76 C44 0.951 . S
H77 C45 0.950 . S
H78 C49 0.949 . S
H79 C50 0.950 . S
H80 C54 0.950 . S
H81 C56 0.950 . S
H82 C59 0.950 . S
H83 C61 0.950 . S
C84 C85 1.443 . S
C84 N88 1.376 . S
C84 C122 1.368 1_565 S
C85 C84 1.443 . S
C85 C86 1.340 . S
C85 H125 0.951 . S
C86 C85 1.340 . S
C86 C87 1.439 . S
C86 H126 0.950 . S
C87 C86 1.439 . S
C87 N88 1.374 . S
C87 C121 1.395 . S
N88 C84 1.376 . S
N88 C87 1.374 . S
N88 Co89 2.008 1_565 S
Co89 N88 2.008 1_545 S
Co89 N90 1.995 1_545 S
Co89 N95 2.008 . S
Co89 N100 1.995 . S
Co89 N105 2.282 1_545 S
Co89 N111 2.282 . S
N90 Co89 1.995 1_565 S
N90 C91 1.376 . S
N90 C94 1.383 . S
C91 N90 1.376 . S
C91 C92 1.446 . S
C91 C121 1.391 . S
C92 C91 1.446 . S
C92 C93 1.339 . S
C92 H127 0.949 . S
C93 C92 1.339 . S
C93 C94 1.439 . S
C93 H128 0.950 . S
C94 N90 1.383 . S
C94 C93 1.439 . S
C94 C123 1.392 1_565 S
N95 Co89 2.008 . S
N95 C96 1.376 . S
N95 C99 1.374 . S
C96 N95 1.376 . S
C96 C97 1.443 . S
C96 C123 1.389 . S
C97 C96 1.443 . S
C97 C98 1.340 . S
C97 H129 0.951 . S
C98 C97 1.340 . S
C98 C99 1.439 . S
C98 H130 0.950 . S
C99 N95 1.374 . S
C99 C98 1.439 . S
C99 C124 1.395 . S
N100 Co89 1.995 . S
N100 C101 1.376 . S
N100 C104 1.383 . S
C101 N100 1.376 . S
C101 C102 1.446 . S
C101 C124 1.391 . S
C102 C101 1.446 . S
C102 C103 1.339 . S
C102 H131 0.949 . S
C103 C102 1.339 . S
C103 C104 1.439 . S
C103 H132 0.950 . S
C104 N100 1.383 . S
C104 C103 1.439 . S
C104 C122 1.412 . S
N105 Co89 2.282 1_565 S
N105 C108 1.332 1_565 S
N105 C110 1.332 . S
C106 C107 1.386 . S
C106 C109 1.388 1_545 S
C107 C106 1.386 . S
C107 C108 1.382 . S
C107 H133 0.950 . S
C108 N105 1.332 1_545 S
C108 C107 1.382 . S
C108 H119 0.952 . S
C109 C106 1.388 1_565 S
C109 C110 1.382 . S
C109 H134 0.950 . S
C110 N105 1.332 . S
C110 C109 1.382 . S
C110 H120 0.948 . S
N111 Co89 2.282 . S
N111 C115 1.332 1_545 S
N111 C116 1.332 . S
C112 C113 1.388 . S
C112 C116 1.382 . S
C112 H135 0.950 . S
C113 C112 1.388 . S
C113 C114 1.386 1_545 S
C114 C113 1.386 1_565 S
C114 C115 1.382 . S
C114 H136 0.950 . S
C115 N111 1.332 1_565 S
C115 C114 1.382 . S
C115 H117 0.952 . S
C116 N111 1.332 . S
C116 C112 1.382 . S
C116 H118 0.948 . S
H117 C115 0.952 . S
H118 C116 0.948 . S
H119 C108 0.952 . S
H120 C110 0.948 . S
C121 C87 1.395 . S
C121 C91 1.391 . S
C122 C84 1.368 1_545 S
C122 C104 1.412 . S
C123 C94 1.392 1_545 S
C123 C96 1.389 . S
C124 C99 1.395 . S
C124 C101 1.391 . S
H125 C85 0.951 . S
H126 C86 0.950 . S
H127 C92 0.949 . S
H128 C93 0.950 . S
H129 C97 0.951 . S
H130 C98 0.950 . S
H131 C102 0.949 . S
H132 C103 0.950 . S
H133 C107 0.950 . S
H134 C109 0.950 . S
H135 C112 0.950 . S
H136 C114 0.950 . S
H137 C149 0.930 . S
H138 C151 0.930 . S
H139 C152 0.930 . S
H140 C156 0.959 . S
H141 C156 0.959 . S
H142 C156 0.961 . S
H143 C157 0.960 . S
H144 C157 0.961 . S
H145 C157 0.959 . S
H146 C160 0.929 . S
H147 C161 0.931 . S
H148 C163 0.930 . S
C149 H137 0.930 . S
C149 C150 1.399 . S
C149 C154 1.399 . S
C150 C149 1.399 . S
C150 C151 1.376 . S
C151 H138 0.930 . S
C151 C150 1.376 . S
C151 C152 1.388 . S
C152 H139 0.930 . S
C152 C151 1.388 . S
C152 C153 1.390 . S
C153 C152 1.390 . S
C153 C154 1.394 . S
C153 C159 1.465 . S
C154 C149 1.399 . S
C154 C153 1.394 . S
C154 C155 1.516 . S
C155 C154 1.516 . S
C155 C156 1.502 1_455 S
C155 C157 1.561 . S
C155 C158 1.526 . S
C156 H140 0.959 . S
C156 H141 0.959 . S
C156 H142 0.961 . S
C156 C155 1.502 1_655 S
C157 H143 0.960 . S
C157 H144 0.961 . S
C157 H145 0.959 . S
C157 C155 1.561 . S
C158 C155 1.526 . S
C158 C159 1.396 . S
C158 C163 1.390 . S
C159 C153 1.465 . S
C159 C158 1.396 . S
C159 C160 1.399 . S
C160 H146 0.929 . S
C160 C159 1.399 . S
C160 C161 1.385 . S
C161 H147 0.931 . S
C161 C160 1.385 . S
C161 C162 1.389 . S
C162 C161 1.389 . S
C162 C163 1.387 . S
C163 H148 0.930 . S
C163 C158 1.390 . S
C163 C162 1.387 . S
H164 C176 0.930 . S
H165 C178 0.930 . S
H166 C179 0.930 . S
H167 C183 0.959 . S
H168 C183 0.959 . S
H169 C183 0.961 . S
H170 C184 0.960 . S
H171 C184 0.961 . S
H172 C184 0.959 . S
H173 C187 0.929 . S
H174 C188 0.931 . S
H175 C190 0.930 . S
C176 H164 0.930 . S
C176 C177 1.399 . S
C176 C181 1.399 . S
C177 C176 1.399 . S
C177 C178 1.376 1_565 S
C178 H165 0.930 . S
C178 C177 1.376 1_545 S
C178 C179 1.388 . S
C179 H166 0.930 . S
C179 C178 1.388 . S
C179 C180 1.390 . S
C180 C179 1.390 . S
C180 C181 1.394 1_545 S
C180 C186 1.465 . S
C181 C176 1.399 . S
C181 C180 1.394 1_565 S
C181 C182 1.516 . S
C182 C181 1.516 . S
C182 C183 1.502 . S
C182 C184 1.561 . S
C182 C185 1.526 . S
C183 H167 0.959 . S
C183 H168 0.959 . S
C183 H169 0.961 . S
C183 C182 1.502 . S
C184 H170 0.960 . S
C184 H171 0.961 . S
C184 H172 0.959 . S
C184 C182 1.561 . S
C185 C182 1.526 . S
C185 C186 1.396 1_565 S
C185 C190 1.390 . S
C186 C180 1.465 . S
C186 C185 1.396 1_545 S
C186 C187 1.399 . S
C187 H173 0.929 . S
C187 C186 1.399 . S
C187 C188 1.385 . S
C188 H174 0.931 . S
C188 C187 1.385 . S
C188 C189 1.389 . S
C189 C188 1.389 . S
C189 C190 1.387 1_545 S
C190 H175 0.930 . S
C190 C185 1.390 . S
C190 C189 1.387 1_565 S
H191 C203 0.930 . S
H192 C205 0.930 . S
H193 C206 0.930 . S
H194 C210 0.959 . S
H195 C210 0.959 . S
H196 C210 0.961 . S
H197 C211 0.960 . S
H198 C211 0.961 . S
H199 C211 0.959 . S
H200 C214 0.929 . S
H201 C215 0.931 . S
H202 C217 0.930 . S
C203 H191 0.930 . S
C203 C204 1.399 . S
C203 C208 1.399 . S
C204 C203 1.399 . S
C204 C205 1.376 1_455 S
C205 H192 0.930 . S
C205 C204 1.376 1_655 S
C205 C206 1.388 . S
C206 H193 0.930 . S
C206 C205 1.388 . S
C206 C207 1.390 . S
C207 C206 1.390 . S
C207 C208 1.394 1_655 S
C207 C213 1.465 . S
C208 C203 1.399 . S
C208 C207 1.394 1_455 S
C208 C209 1.516 . S
C209 C208 1.516 . S
C209 C210 1.502 . S
C209 C211 1.561 1_455 S
C209 C212 1.526 . S
C210 H194 0.959 . S
C210 H195 0.959 . S
C210 H196 0.961 . S
C210 C209 1.502 . S
C211 H197 0.960 . S
C211 H198 0.961 . S
C211 H199 0.959 . S
C211 C209 1.561 1_655 S
C212 C209 1.526 . S
C212 C213 1.396 1_455 S
C212 C217 1.390 . S
C213 C207 1.465 . S
C213 C212 1.396 1_655 S
C213 C214 1.399 . S
C214 H200 0.929 . S
C214 C213 1.399 . S
C214 C215 1.385 . S
C215 H201 0.931 . S
C215 C214 1.385 . S
C215 C216 1.389 1_655 S
C216 C215 1.389 1_455 S
C216 C217 1.387 . S
C217 H202 0.930 . S
C217 C212 1.390 . S
C217 C216 1.387 . S
H218 C230 0.930 . S
H219 C232 0.930 . S
H220 C233 0.930 . S
H221 C237 0.959 . S
H222 C237 0.959 . S
H223 C237 0.961 . S
H224 C238 0.960 . S
H225 C238 0.961 . S
H226 C238 0.959 . S
H227 C241 0.929 . S
H228 C242 0.931 . S
H229 C244 0.930 . S
C230 H218 0.930 . S
C230 C231 1.399 . S
C230 C235 1.399 . S
C231 C230 1.399 . S
C231 C232 1.376 1_545 S
C232 H219 0.930 . S
C232 C231 1.376 1_565 S
C232 C233 1.388 . S
C233 H220 0.930 . S
C233 C232 1.388 . S
C233 C234 1.390 . S
C234 C233 1.390 . S
C234 C235 1.394 1_565 S
C234 C240 1.465 . S
C235 C230 1.399 . S
C235 C234 1.394 1_545 S
C235 C236 1.516 . S
C236 C235 1.516 . S
C236 C237 1.502 . S
C236 C238 1.561 . S
C236 C239 1.526 . S
C237 H221 0.959 . S
C237 H222 0.959 . S
C237 H223 0.961 . S
C237 C236 1.502 . S
C238 H224 0.960 . S
C238 H225 0.961 . S
C238 H226 0.959 . S
C238 C236 1.561 . S
C239 C236 1.526 . S
C239 C240 1.396 1_545 S
C239 C244 1.390 . S
C240 C234 1.465 . S
C240 C239 1.396 1_565 S
C240 C241 1.399 . S
C241 H227 0.929 . S
C241 C240 1.399 . S
C241 C242 1.385 . S
C242 H228 0.931 . S
C242 C241 1.385 . S
C242 C243 1.389 . S
C243 C242 1.389 . S
C243 C244 1.387 1_565 S
C244 H229 0.930 . S
C244 C239 1.390 . S
C244 C243 1.387 1_545 S
H245 C257 0.930 . S
H246 C259 0.930 . S
H247 C260 0.930 . S
H248 C264 0.959 . S
H249 C264 0.959 . S
H250 C264 0.961 . S
H251 C265 0.962 . S
H252 C265 0.961 1_455 S
H253 C265 0.959 . S
H254 C268 0.929 . S
H255 C269 0.931 . S
H256 C271 0.930 . S
C257 H245 0.930 . S
C257 C258 1.399 . S
C257 C262 1.399 . S
C258 C257 1.399 . S
C258 C259 1.376 1_455 S
C259 H246 0.930 . S
C259 C258 1.376 1_655 S
C259 C260 1.388 . S
C260 H247 0.930 . S
C260 C259 1.388 . S
C260 C261 1.390 . S
C261 C260 1.390 . S
C261 C262 1.394 1_655 S
C261 C267 1.465 . S
C262 C257 1.399 . S
C262 C261 1.394 1_455 S
C262 C263 1.516 . S
C263 C262 1.516 . S
C263 C264 1.502 . S
C263 C265 1.561 1_455 S
C263 C266 1.526 . S
C264 H248 0.959 . S
C264 H249 0.959 . S
C264 H250 0.961 . S
C264 C263 1.502 . S
C265 H251 0.962 . S
C265 H252 0.961 1_655 S
C265 H253 0.959 . S
C265 C263 1.561 1_655 S
C266 C263 1.526 . S
C266 C267 1.396 1_455 S
C266 C271 1.390 . S
C267 C261 1.465 . S
C267 C266 1.396 1_655 S
C267 C268 1.399 . S
C268 H254 0.929 . S
C268 C267 1.399 . S
C268 C269 1.385 . S
C269 H255 0.931 . S
C269 C268 1.385 . S
C269 C270 1.389 1_655 S
C270 C269 1.389 1_455 S
C270 C271 1.387 . S
C271 H256 0.930 . S
C271 C266 1.390 . S
C271 C270 1.387 . S
H272 C284 0.930 . S
H273 C286 0.930 . S
H274 C287 0.930 . S
H275 C291 0.959 . S
H276 C291 0.959 . S
H277 C291 0.961 . S
H278 C292 0.960 . S
H279 C292 0.961 . S
H280 C292 0.959 . S
H281 C295 0.929 . S
H282 C296 0.931 . S
H283 C298 0.930 . S
C284 H272 0.930 . S
C284 C285 1.399 1_545 S
C284 C289 1.399 . S
C285 C284 1.399 1_565 S
C285 C286 1.376 . S
C286 H273 0.930 . S
C286 C285 1.376 . S
C286 C287 1.388 . S
C287 H274 0.930 . S
C287 C286 1.388 . S
C287 C288 1.390 . S
C288 C287 1.390 . S
C288 C289 1.394 1_565 S
C288 C294 1.465 . S
C289 C284 1.399 . S
C289 C288 1.394 1_545 S
C289 C290 1.516 . S
C290 C289 1.516 . S
C290 C291 1.502 . S
C290 C292 1.561 . S
C290 C293 1.526 . S
C291 H275 0.959 . S
C291 H276 0.959 . S
C291 H277 0.961 . S
C291 C290 1.502 . S
C292 H278 0.960 . S
C292 H279 0.961 . S
C292 H280 0.959 . S
C292 C290 1.561 . S
C293 C290 1.526 . S
C293 C294 1.396 1_545 S
C293 C298 1.390 . S
C294 C288 1.465 . S
C294 C293 1.396 1_565 S
C294 C295 1.399 . S
C295 H281 0.929 . S
C295 C294 1.399 . S
C295 C296 1.385 . S
C296 H282 0.931 . S
C296 C295 1.385 . S
C296 C297 1.389 . S
C297 C296 1.389 . S
C297 C298 1.387 1_565 S
C298 H283 0.930 . S
C298 C293 1.390 . S
C298 C297 1.387 1_545 S
H299 C311 0.930 . S
H300 C313 0.930 . S
H301 C314 0.930 . S
H302 C318 0.959 . S
H303 C318 0.959 . S
H304 C318 0.961 . S
H305 C319 0.964 . S
H306 C319 0.969 . S
H307 C319 0.939 1_455 S
H308 C322 0.929 . S
H309 C323 0.931 . S
H310 C325 0.930 . S
C311 H299 0.930 . S
C311 C312 1.399 1_655 S
C311 C316 1.399 . S
C312 C311 1.399 1_455 S
C312 C313 1.376 . S
C313 H300 0.930 . S
C313 C312 1.376 . S
C313 C314 1.388 . S
C314 H301 0.930 . S
C314 C313 1.388 . S
C314 C315 1.390 . S
C315 C314 1.390 . S
C315 C316 1.394 1_455 S
C315 C321 1.465 . S
C316 C311 1.399 . S
C316 C315 1.394 1_655 S
C316 C317 1.516 . S
C317 C316 1.516 . S
C317 C318 1.502 . S
C317 C319 1.570 . S
C317 C320 1.526 . S
C318 H302 0.959 . S
C318 H303 0.959 . S
C318 H304 0.961 . S
C318 C317 1.502 . S
C319 H305 0.964 . S
C319 H306 0.969 . S
C319 H307 0.939 1_655 S
C319 C317 1.570 . S
C320 C317 1.526 . S
C320 C321 1.396 1_655 S
C320 C325 1.390 . S
C321 C315 1.465 . S
C321 C320 1.396 1_455 S
C321 C322 1.399 . S
C322 H308 0.929 . S
C322 C321 1.399 . S
C322 C323 1.385 . S
C323 H309 0.931 . S
C323 C322 1.385 . S
C323 C324 1.389 . S
C324 C323 1.389 . S
C324 C325 1.387 1_455 S
C325 H310 0.930 . S
C325 C320 1.390 . S
C325 C324 1.387 1_655 S
H326 C338 0.930 . S
H327 C340 0.930 . S
H328 C341 0.930 . S
H329 C345 0.959 . S
H330 C345 0.959 . S
H331 C345 0.961 . S
H332 C346 0.960 . S
H333 C346 0.961 . S
H334 C346 0.959 . S
H335 C349 0.929 . S
H336 C350 0.931 . S
H337 C352 0.930 . S
C338 H326 0.930 . S
C338 C339 1.399 . S
C338 C343 1.399 . S
C339 C338 1.399 . S
C339 C340 1.376 1_545 S
C340 H327 0.930 . S
C340 C339 1.376 1_565 S
C340 C341 1.388 . S
C341 H328 0.930 . S
C341 C340 1.388 . S
C341 C342 1.390 . S
C342 C341 1.390 . S
C342 C343 1.394 1_565 S
C342 C348 1.465 . S
C343 C338 1.399 . S
C343 C342 1.394 1_545 S
C343 C344 1.516 . S
C344 C343 1.516 . S
C344 C345 1.502 . S
C344 C346 1.561 . S
C344 C347 1.526 . S
C345 H329 0.959 . S
C345 H330 0.959 . S
C345 H331 0.961 . S
C345 C344 1.502 . S
C346 H332 0.960 . S
C346 H333 0.961 . S
C346 H334 0.959 . S
C346 C344 1.561 . S
C347 C344 1.526 . S
C347 C348 1.396 1_545 S
C347 C352 1.390 . S
C348 C342 1.465 . S
C348 C347 1.396 1_565 S
C348 C349 1.399 . S
C349 H335 0.929 . S
C349 C348 1.399 . S
C349 C350 1.385 . S
C350 H336 0.931 . S
C350 C349 1.385 . S
C350 C351 1.389 . S
C351 C350 1.389 . S
C351 C352 1.387 1_565 S
C352 H337 0.930 . S
C352 C347 1.390 . S
C352 C351 1.387 1_545 S
C150 C30 1.278 1_455 S
C162 C53 1.316 . S
C177 C1 1.623 . S
C189 C123 1.656 . S
C204 C0 1.348 1_455 S
C216 C69 1.449 . S
C231 C29 1.520 . S
C243 C113 1.549 1_565 S
C258 C19 1.328 . S
C270 C60 1.340 . S
C285 C20 1.598 . S
C297 C122 1.637 1_565 S
C324 C70 1.450 . S
C312 C10 1.400 . S
C339 C2 1.533 . S
C351 C106 1.560 1_565 S
