# Generated by pormake.
# Topology gar, (4,6)-cn, num edge types: 1
# Building blocks:
#     Node 0, Type 0, BuildingBlock: QUQFOY_clean_sbu_3, # of connection points: 4
#     Node 1, Type 0, BuildingBlock: QUQFOY_clean_sbu_3, # of connection points: 4
#     Node 2, Type 0, BuildingBlock: QUQFOY_clean_sbu_3, # of connection points: 4
#     Node 3, Type 0, BuildingBlock: QUQFOY_clean_sbu_3, # of connection points: 4
#     Node 4, Type 0, BuildingBlock: QUQFOY_clean_sbu_3, # of connection points: 4
#     Node 5, Type 0, BuildingBlock: QUQFOY_clean_sbu_3, # of connection points: 4
#     Node 6, Type 0, BuildingBlock: QUQFOY_clean_sbu_3, # of connection points: 4
#     Node 7, Type 0, BuildingBlock: QUQFOY_clean_sbu_3, # of connection points: 4
#     Node 8, Type 0, BuildingBlock: QUQFOY_clean_sbu_3, # of connection points: 4
#     Node 9, Type 0, BuildingBlock: QUQFOY_clean_sbu_3, # of connection points: 4
#     Node 10, Type 0, BuildingBlock: QUQFOY_clean_sbu_3, # of connection points: 4
#     Node 11, Type 0, BuildingBlock: QUQFOY_clean_sbu_3, # of connection points: 4
#     Node 12, Type 0, BuildingBlock: QUQFOY_clean_sbu_3, # of connection points: 4
#     Node 13, Type 0, BuildingBlock: QUQFOY_clean_sbu_3, # of connection points: 4
#     Node 14, Type 0, BuildingBlock: QUQFOY_clean_sbu_3, # of connection points: 4
#     Node 15, Type 0, BuildingBlock: QUQFOY_clean_sbu_3, # of connection points: 4
#     Node 16, Type 0, BuildingBlock: QUQFOY_clean_sbu_3, # of connection points: 4
#     Node 17, Type 0, BuildingBlock: QUQFOY_clean_sbu_3, # of connection points: 4
#     Node 18, Type 0, BuildingBlock: QUQFOY_clean_sbu_3, # of connection points: 4
#     Node 19, Type 0, BuildingBlock: QUQFOY_clean_sbu_3, # of connection points: 4
#     Node 20, Type 0, BuildingBlock: QUQFOY_clean_sbu_3, # of connection points: 4
#     Node 21, Type 0, BuildingBlock: QUQFOY_clean_sbu_3, # of connection points: 4
#     Node 22, Type 0, BuildingBlock: QUQFOY_clean_sbu_3, # of connection points: 4
#     Node 23, Type 0, BuildingBlock: QUQFOY_clean_sbu_3, # of connection points: 4
#     Node 24, Type 1, BuildingBlock: NUHQIS_clean_sbu_0, # of connection points: 6
#     Node 25, Type 1, BuildingBlock: NUHQIS_clean_sbu_0, # of connection points: 6
#     Node 26, Type 1, BuildingBlock: NUHQIS_clean_sbu_0, # of connection points: 6
#     Node 27, Type 1, BuildingBlock: NUHQIS_clean_sbu_0, # of connection points: 6
#     Node 28, Type 1, BuildingBlock: NUHQIS_clean_sbu_0, # of connection points: 6
#     Node 29, Type 1, BuildingBlock: NUHQIS_clean_sbu_0, # of connection points: 6
#     Node 30, Type 1, BuildingBlock: NUHQIS_clean_sbu_0, # of connection points: 6
#     Node 31, Type 1, BuildingBlock: NUHQIS_clean_sbu_0, # of connection points: 6
#     Node 32, Type 1, BuildingBlock: NUHQIS_clean_sbu_0, # of connection points: 6
#     Node 33, Type 1, BuildingBlock: NUHQIS_clean_sbu_0, # of connection points: 6
#     Node 34, Type 1, BuildingBlock: NUHQIS_clean_sbu_0, # of connection points: 6
#     Node 35, Type 1, BuildingBlock: NUHQIS_clean_sbu_0, # of connection points: 6
#     Node 36, Type 1, BuildingBlock: NUHQIS_clean_sbu_0, # of connection points: 6
#     Node 37, Type 1, BuildingBlock: NUHQIS_clean_sbu_0, # of connection points: 6
#     Node 38, Type 1, BuildingBlock: NUHQIS_clean_sbu_0, # of connection points: 6
#     Node 39, Type 1, BuildingBlock: NUHQIS_clean_sbu_0, # of connection points: 6
#     Edge 40, Type (0, 1), BuildingBlock: AJUNOK_clean_linker_0, # of connection points: 2
#     Edge 41, Type (0, 1), BuildingBlock: AJUNOK_clean_linker_0, # of connection points: 2
#     Edge 42, Type (0, 1), BuildingBlock: AJUNOK_clean_linker_0, # of connection points: 2
#     Edge 43, Type (0, 1), BuildingBlock: AJUNOK_clean_linker_0, # of connection points: 2
#     Edge 44, Type (0, 1), BuildingBlock: AJUNOK_clean_linker_0, # of connection points: 2
#     Edge 45, Type (0, 1), BuildingBlock: AJUNOK_clean_linker_0, # of connection points: 2
#     Edge 46, Type (0, 1), BuildingBlock: AJUNOK_clean_linker_0, # of connection points: 2
#     Edge 47, Type (0, 1), BuildingBlock: AJUNOK_clean_linker_0, # of connection points: 2
#     Edge 48, Type (0, 1), BuildingBlock: AJUNOK_clean_linker_0, # of connection points: 2
#     Edge 49, Type (0, 1), BuildingBlock: AJUNOK_clean_linker_0, # of connection points: 2
#     Edge 50, Type (0, 1), BuildingBlock: AJUNOK_clean_linker_0, # of connection points: 2
#     Edge 51, Type (0, 1), BuildingBlock: AJUNOK_clean_linker_0, # of connection points: 2
#     Edge 52, Type (0, 1), BuildingBlock: AJUNOK_clean_linker_0, # of connection points: 2
#     Edge 53, Type (0, 1), BuildingBlock: AJUNOK_clean_linker_0, # of connection points: 2
#     Edge 54, Type (0, 1), BuildingBlock: AJUNOK_clean_linker_0, # of connection points: 2
#     Edge 55, Type (0, 1), BuildingBlock: AJUNOK_clean_linker_0, # of connection points: 2
#     Edge 56, Type (0, 1), BuildingBlock: AJUNOK_clean_linker_0, # of connection points: 2
#     Edge 57, Type (0, 1), BuildingBlock: AJUNOK_clean_linker_0, # of connection points: 2
#     Edge 58, Type (0, 1), BuildingBlock: AJUNOK_clean_linker_0, # of connection points: 2
#     Edge 59, Type (0, 1), BuildingBlock: AJUNOK_clean_linker_0, # of connection points: 2
#     Edge 60, Type (0, 1), BuildingBlock: AJUNOK_clean_linker_0, # of connection points: 2
#     Edge 61, Type (0, 1), BuildingBlock: AJUNOK_clean_linker_0, # of connection points: 2
#     Edge 62, Type (0, 1), BuildingBlock: AJUNOK_clean_linker_0, # of connection points: 2
#     Edge 63, Type (0, 1), BuildingBlock: AJUNOK_clean_linker_0, # of connection points: 2
#     Edge 64, Type (0, 1), BuildingBlock: AJUNOK_clean_linker_0, # of connection points: 2
#     Edge 65, Type (0, 1), BuildingBlock: AJUNOK_clean_linker_0, # of connection points: 2
#     Edge 66, Type (0, 1), BuildingBlock: AJUNOK_clean_linker_0, # of connection points: 2
#     Edge 67, Type (0, 1), BuildingBlock: AJUNOK_clean_linker_0, # of connection points: 2
#     Edge 68, Type (0, 1), BuildingBlock: AJUNOK_clean_linker_0, # of connection points: 2
#     Edge 69, Type (0, 1), BuildingBlock: AJUNOK_clean_linker_0, # of connection points: 2
#     Edge 70, Type (0, 1), BuildingBlock: AJUNOK_clean_linker_0, # of connection points: 2
#     Edge 71, Type (0, 1), BuildingBlock: AJUNOK_clean_linker_0, # of connection points: 2
#     Edge 72, Type (0, 1), BuildingBlock: AJUNOK_clean_linker_0, # of connection points: 2
#     Edge 73, Type (0, 1), BuildingBlock: AJUNOK_clean_linker_0, # of connection points: 2
#     Edge 74, Type (0, 1), BuildingBlock: AJUNOK_clean_linker_0, # of connection points: 2
#     Edge 75, Type (0, 1), BuildingBlock: AJUNOK_clean_linker_0, # of connection points: 2
#     Edge 76, Type (0, 1), BuildingBlock: AJUNOK_clean_linker_0, # of connection points: 2
#     Edge 77, Type (0, 1), BuildingBlock: AJUNOK_clean_linker_0, # of connection points: 2
#     Edge 78, Type (0, 1), BuildingBlock: AJUNOK_clean_linker_0, # of connection points: 2
#     Edge 79, Type (0, 1), BuildingBlock: AJUNOK_clean_linker_0, # of connection points: 2
#     Edge 80, Type (0, 1), BuildingBlock: AJUNOK_clean_linker_0, # of connection points: 2
#     Edge 81, Type (0, 1), BuildingBlock: AJUNOK_clean_linker_0, # of connection points: 2
#     Edge 82, Type (0, 1), BuildingBlock: AJUNOK_clean_linker_0, # of connection points: 2
#     Edge 83, Type (0, 1), BuildingBlock: AJUNOK_clean_linker_0, # of connection points: 2
#     Edge 84, Type (0, 1), BuildingBlock: AJUNOK_clean_linker_0, # of connection points: 2
#     Edge 85, Type (0, 1), BuildingBlock: AJUNOK_clean_linker_0, # of connection points: 2
#     Edge 86, Type (0, 1), BuildingBlock: AJUNOK_clean_linker_0, # of connection points: 2
#     Edge 87, Type (0, 1), BuildingBlock: AJUNOK_clean_linker_0, # of connection points: 2
#     Edge 88, Type (0, 1), BuildingBlock: AJUNOK_clean_linker_0, # of connection points: 2
#     Edge 89, Type (0, 1), BuildingBlock: AJUNOK_clean_linker_0, # of connection points: 2
#     Edge 90, Type (0, 1), BuildingBlock: AJUNOK_clean_linker_0, # of connection points: 2
#     Edge 91, Type (0, 1), BuildingBlock: AJUNOK_clean_linker_0, # of connection points: 2
#     Edge 92, Type (0, 1), BuildingBlock: AJUNOK_clean_linker_0, # of connection points: 2
#     Edge 93, Type (0, 1), BuildingBlock: AJUNOK_clean_linker_0, # of connection points: 2
#     Edge 94, Type (0, 1), BuildingBlock: AJUNOK_clean_linker_0, # of connection points: 2
#     Edge 95, Type (0, 1), BuildingBlock: AJUNOK_clean_linker_0, # of connection points: 2
#     Edge 96, Type (0, 1), BuildingBlock: AJUNOK_clean_linker_0, # of connection points: 2
#     Edge 97, Type (0, 1), BuildingBlock: AJUNOK_clean_linker_0, # of connection points: 2
#     Edge 98, Type (0, 1), BuildingBlock: AJUNOK_clean_linker_0, # of connection points: 2
#     Edge 99, Type (0, 1), BuildingBlock: AJUNOK_clean_linker_0, # of connection points: 2
#     Edge 100, Type (0, 1), BuildingBlock: AJUNOK_clean_linker_0, # of connection points: 2
#     Edge 101, Type (0, 1), BuildingBlock: AJUNOK_clean_linker_0, # of connection points: 2
#     Edge 102, Type (0, 1), BuildingBlock: AJUNOK_clean_linker_0, # of connection points: 2
#     Edge 103, Type (0, 1), BuildingBlock: AJUNOK_clean_linker_0, # of connection points: 2
#     Edge 104, Type (0, 1), BuildingBlock: AJUNOK_clean_linker_0, # of connection points: 2
#     Edge 105, Type (0, 1), BuildingBlock: AJUNOK_clean_linker_0, # of connection points: 2
#     Edge 106, Type (0, 1), BuildingBlock: AJUNOK_clean_linker_0, # of connection points: 2
#     Edge 107, Type (0, 1), BuildingBlock: AJUNOK_clean_linker_0, # of connection points: 2
#     Edge 108, Type (0, 1), BuildingBlock: AJUNOK_clean_linker_0, # of connection points: 2
#     Edge 109, Type (0, 1), BuildingBlock: AJUNOK_clean_linker_0, # of connection points: 2
#     Edge 110, Type (0, 1), BuildingBlock: AJUNOK_clean_linker_0, # of connection points: 2
#     Edge 111, Type (0, 1), BuildingBlock: AJUNOK_clean_linker_0, # of connection points: 2
#     Edge 112, Type (0, 1), BuildingBlock: AJUNOK_clean_linker_0, # of connection points: 2
#     Edge 113, Type (0, 1), BuildingBlock: AJUNOK_clean_linker_0, # of connection points: 2
#     Edge 114, Type (0, 1), BuildingBlock: AJUNOK_clean_linker_0, # of connection points: 2
#     Edge 115, Type (0, 1), BuildingBlock: AJUNOK_clean_linker_0, # of connection points: 2
#     Edge 116, Type (0, 1), BuildingBlock: AJUNOK_clean_linker_0, # of connection points: 2
#     Edge 117, Type (0, 1), BuildingBlock: AJUNOK_clean_linker_0, # of connection points: 2
#     Edge 118, Type (0, 1), BuildingBlock: AJUNOK_clean_linker_0, # of connection points: 2
#     Edge 119, Type (0, 1), BuildingBlock: AJUNOK_clean_linker_0, # of connection points: 2
#     Edge 120, Type (0, 1), BuildingBlock: AJUNOK_clean_linker_0, # of connection points: 2
#     Edge 121, Type (0, 1), BuildingBlock: AJUNOK_clean_linker_0, # of connection points: 2
#     Edge 122, Type (0, 1), BuildingBlock: AJUNOK_clean_linker_0, # of connection points: 2
#     Edge 123, Type (0, 1), BuildingBlock: AJUNOK_clean_linker_0, # of connection points: 2
#     Edge 124, Type (0, 1), BuildingBlock: AJUNOK_clean_linker_0, # of connection points: 2
#     Edge 125, Type (0, 1), BuildingBlock: AJUNOK_clean_linker_0, # of connection points: 2
#     Edge 126, Type (0, 1), BuildingBlock: AJUNOK_clean_linker_0, # of connection points: 2
#     Edge 127, Type (0, 1), BuildingBlock: AJUNOK_clean_linker_0, # of connection points: 2
#     Edge 128, Type (0, 1), BuildingBlock: AJUNOK_clean_linker_0, # of connection points: 2
#     Edge 129, Type (0, 1), BuildingBlock: AJUNOK_clean_linker_0, # of connection points: 2
#     Edge 130, Type (0, 1), BuildingBlock: AJUNOK_clean_linker_0, # of connection points: 2
#     Edge 131, Type (0, 1), BuildingBlock: AJUNOK_clean_linker_0, # of connection points: 2
#     Edge 132, Type (0, 1), BuildingBlock: AJUNOK_clean_linker_0, # of connection points: 2
#     Edge 133, Type (0, 1), BuildingBlock: AJUNOK_clean_linker_0, # of connection points: 2
#     Edge 134, Type (0, 1), BuildingBlock: AJUNOK_clean_linker_0, # of connection points: 2
#     Edge 135, Type (0, 1), BuildingBlock: AJUNOK_clean_linker_0, # of connection points: 2
# Relax obj value: 0.285
# Max RMSD: 0.361
# Mean RMSD: 0.146
data_MOF--net-gar--node1-QUQFOY_clean_sbu_3--node2-NUHQIS_clean_sbu_0--edge1-AJUNOK_clean_linker_0
_symmetry_space_group_name_H-M    P1
_symmetry_Int_Tables_number       1
_symmetry_cell_setting            triclinic
loop_
_symmetry_equiv_pos_as_xyz
'x, y, z'
_cell_length_a     42.954338
_cell_length_b     46.154832
_cell_length_c     42.972027
_cell_angle_alpha  93.486319
_cell_angle_beta   96.689252
_cell_angle_gamma 100.15006
loop_
_atom_site_label
_atom_site_type_symbol
_atom_site_fract_x
_atom_site_fract_y
_atom_site_fract_z
_atom_type_partial_charge
C0 C 1.03622 0.33729 0.37907 0.0
O1 O 0.05753 0.35547 0.36906 0.0
Cd2 Cd 0.1043 0.35498 0.40467 0.0
O3 O 0.04584 0.32222 0.40142 0.0
Cd4 Cd 0.10819 0.32653 0.43016 0.0
C5 C 0.11218 0.4084 0.45109 0.0
O6 O 0.13861 0.32864 0.37852 0.0
O7 O 0.16971 0.33706 0.42139 0.0
O8 O 0.09693 0.26781 0.43299 0.0
C9 C 0.1673 0.33238 0.39157 0.0
O10 O 0.11881 0.40749 0.4231 0.0
C11 C 0.10392 0.26519 0.46222 0.0
O12 O 0.10628 0.38276 0.4626 0.0
O13 O 0.11259 0.2904 0.47788 0.0
C14 C 1.01984 0.82985 0.70384 0.0
O15 O 1.03234 0.80724 0.70755 0.0
Cd16 Cd 0.07715 0.81422 0.67709 0.0
O17 O 1.03354 0.8488 0.68622 0.0
Cd18 Cd 0.08766 0.84808 0.654 0.0
C19 C 0.08425 0.76678 0.62707 0.0
O20 O 0.12592 0.84253 0.70618 0.0
O21 O 0.14808 0.85057 0.66476 0.0
O22 O 0.10099 0.90701 0.65316 0.0
C23 C 0.15186 0.84759 0.69409 0.0
O24 O 0.08535 0.76634 0.6566 0.0
C25 C 0.09389 0.91071 0.62425 0.0
O26 O 0.08214 0.79234 0.61623 0.0
O27 O 0.08355 0.88606 0.60791 0.0
C28 C 0.53614 0.83278 0.87616 0.0
O29 O 0.55777 0.84983 0.86523 0.0
Cd30 Cd 0.60387 0.85042 0.90194 0.0
O31 O 0.54555 0.81861 0.89942 0.0
Cd32 Cd 0.60828 0.82236 0.92778 0.0
C33 C 0.61089 0.90416 0.9485 0.0
O34 O 0.63912 0.8249 0.87625 0.0
O35 O 0.67001 0.83371 0.91921 0.0
O36 O 0.59734 0.76336 0.93004 0.0
C37 C 0.6678 0.82908 0.8894 0.0
O38 O 0.61628 0.90315 0.92011 0.0
C39 C 0.60408 0.76045 0.95925 0.0
O40 O 0.60641 0.87864 0.96045 0.0
O41 O 0.61246 0.78557 0.97515 0.0
C42 C 0.51823 0.32535 0.20648 0.0
O43 O 0.53113 0.30305 0.21083 0.0
Cd44 Cd 0.57559 0.30967 0.17968 0.0
O45 O 0.53158 0.34388 0.18817 0.0
Cd46 Cd 0.58603 0.34339 0.15558 0.0
C47 C 0.58342 0.26164 0.12988 0.0
O48 O 0.62471 0.33864 0.20778 0.0
O49 O 0.64645 0.34644 0.16608 0.0
O50 O 0.59709 0.40247 0.15431 0.0
C51 C 0.65052 0.34374 0.19544 0.0
O52 O 0.58363 0.26161 0.15936 0.0
C53 C 0.59207 0.40586 0.12505 0.0
O54 O 0.58162 0.2871 0.11861 0.0
O55 O 0.58382 0.38097 0.10873 0.0
C56 C 0.14669 0.90751 0.26457 0.0
O57 O 0.17157 0.90569 0.28291 0.0
Cd58 Cd 0.22198 0.90674 0.26469 0.0
O59 O 0.14842 0.91332 0.23617 0.0
Cd60 Cd 0.18329 0.92538 0.19571 0.0
C61 C 0.19408 0.85426 0.20096 0.0
O62 O 0.22768 0.94673 0.23265 0.0
O63 O 0.23881 0.94302 0.18562 0.0
O64 O 0.15037 0.96094 0.18027 0.0
C65 C 0.24891 0.9457 0.21479 0.0
O66 O 0.20928 0.86178 0.22843 0.0
C67 C 0.14539 0.95154 0.15134 0.0
O68 O 0.18211 0.87284 0.18484 0.0
O69 O 0.15929 0.93074 0.143 0.0
C70 C 0.4742 0.72685 0.34113 0.0
O71 O 0.49434 0.73691 0.32322 0.0
Cd72 Cd 0.54669 0.7648 0.33758 0.0
O73 O 0.48194 0.72887 0.3709 0.0
Cd74 Cd 0.5302 0.74668 0.40937 0.0
C75 C 0.52853 0.81683 0.39212 0.0
O76 O 0.57016 0.74081 0.37735 0.0
O77 O 0.58554 0.77164 0.41807 0.0
O78 O 0.53508 0.70179 0.43162 0.0
C79 C 0.59234 0.75952 0.39313 0.0
O80 O 0.5392 0.80997 0.36668 0.0
C81 C 0.53516 0.71143 0.45991 0.0
O82 O 0.52057 0.79757 0.41132 0.0
O83 O 0.52899 0.73716 0.46492 0.0
C84 C 0.65372 0.40894 0.77594 0.0
O85 O 0.68029 0.40637 0.79082 0.0
Cd86 Cd 0.72769 0.40768 0.76714 0.0
O87 O 0.65129 0.41437 0.74711 0.0
Cd88 Cd 0.68153 0.42437 0.70235 0.0
C89 C 0.69418 0.35374 0.7068 0.0
O90 O 0.72871 0.44733 0.73438 0.0
O91 O 0.73471 0.44096 0.68598 0.0
O92 O 0.64873 0.45973 0.68894 0.0
C93 C 0.74775 0.4457 0.71432 0.0
O94 O 0.71255 0.36165 0.73259 0.0
C95 C 0.64073 0.44972 0.66034 0.0
O96 O 0.68 0.37201 0.6924 0.0
O97 O 0.65264 0.42799 0.65082 0.0
C98 C 0.97311 0.22628 0.84714 0.0
O99 O 0.99259 0.23663 0.82872 0.0
Cd100 Cd 0.04639 0.26051 0.8399 0.0
O101 O 0.98195 0.22663 0.87667 0.0
Cd102 Cd 1.03371 0.24148 0.91195 0.0
C103 C 1.03685 0.31344 0.89727 0.0
O104 O 0.06559 0.22788 0.87358 0.0
O105 O 0.09207 0.25351 0.91411 0.0
O106 O 1.02727 0.19988 0.9436 0.0
C107 C 0.09246 0.24037 0.8875 0.0
O108 O 0.04473 0.30728 0.87024 0.0
C109 C 1.03672 0.21529 0.96962 0.0
O110 O 1.02988 0.29325 0.91554 0.0
O111 O 0.04196 0.24314 0.96903 0.0
C112 C 0.60611 0.1656 0.40199 0.0
O113 O 0.62055 0.15534 0.38086 0.0
Cd114 Cd 0.6022 0.1355 0.32822 0.0
O115 O 0.57641 0.16646 0.3967 0.0
Cd116 Cd 0.53334 0.15147 0.35278 0.0
C117 C 0.54499 0.07907 0.34601 0.0
O118 O 0.56612 0.16659 0.31403 0.0
O119 O 0.51888 0.1451 0.29548 0.0
O120 O 0.49926 0.18723 0.3609 0.0
C121 C 0.54696 0.1551 0.29028 0.0
O122 O 0.57048 0.08629 0.33349 0.0
C123 C 0.47448 0.16752 0.36121 0.0
O124 O 0.53006 0.09866 0.35565 0.0
O125 O 0.47842 0.1409 0.36122 0.0
C126 C 0.43561 0.16598 0.5557 0.0
O127 O 0.41891 0.1586 0.5773 0.0
Cd128 Cd 0.37755 0.18821 0.57024 0.0
O129 O 0.42545 0.18465 0.53737 0.0
Cd130 Cd 0.37089 0.21192 0.53729 0.0
C131 C 0.37345 0.23783 0.6199 0.0
O132 O 0.32747 0.16325 0.54054 0.0
O133 O 0.31099 0.20417 0.54187 0.0
O134 O 0.36285 0.21601 0.4762 0.0
C135 C 0.30366 0.17622 0.54098 0.0
O136 O 0.37151 0.21027 0.62143 0.0
C137 C 0.36945 0.24388 0.47488 0.0
O138 O 0.37596 0.24747 0.59246 0.0
O139 O 0.3771 0.25783 0.502 0.0
C140 C 0.20507 0.08989 0.90859 0.0
O141 O 0.18994 0.09483 0.8829 0.0
Cd142 Cd 0.2077 0.10291 0.83414 0.0
O143 O 0.23504 0.08992 0.91153 0.0
Cd144 Cd 0.27666 0.09572 0.87505 0.0
C145 C 0.26751 0.16399 0.85536 0.0
O146 O 0.24087 0.0676 0.83347 0.0
O147 O 0.2832 0.08985 0.81799 0.0
O148 O 0.30342 0.05846 0.89825 0.0
C149 C 0.25597 0.07368 0.81061 0.0
O150 O 0.24135 0.15183 0.83889 0.0
C151 C 0.33147 0.07309 0.89867 0.0
O152 O 0.28346 0.149 0.87288 0.0
O153 O 0.33368 0.09934 0.89074 0.0
C154 C 0.41668 0.98673 0.05742 0.0
O155 O 0.39485 0.99914 0.04476 0.0
Cd156 Cd 0.34021 0.97967 0.03571 0.0
O157 O 0.41013 0.96058 0.06624 0.0
Cd158 Cd 0.35897 0.92354 0.06756 0.0
C159 C 0.34157 0.91846 0.98626 0.0
O160 O 0.33589 0.96327 0.08677 0.0
O161 O 0.3013 0.92362 0.07471 0.0
O162 O 0.38668 0.91231 0.1176 0.0
C163 C 0.30813 0.9496 0.0881 0.0
O164 O 0.33462 0.94401 0.99006 0.0
C165 C 0.37275 0.88561 0.1168 0.0
O166 O 0.35182 0.90584 1.01007 0.0
O167 O 0.35418 0.87557 0.09178 0.0
C168 C 0.39941 0.50183 0.0404 0.0
O169 O 0.37974 0.50441 1.01694 0.0
Cd170 Cd 0.3302 0.47377 0.0248 0.0
O171 O 0.38825 0.48576 0.06153 0.0
Cd172 Cd 0.32701 0.45486 0.05794 0.0
C173 C 0.3233 0.42425 0.97679 0.0
O174 O 0.29716 0.5011 0.05196 0.0
O175 O 0.26611 0.45965 0.04823 0.0
O176 O 0.33841 0.45002 0.1189 0.0
C177 C 0.26849 0.48762 0.05025 0.0
O178 O 0.31087 0.44696 0.97312 0.0
C179 C 0.32645 0.4228 0.11959 0.0
O180 O 0.33365 0.42028 1.00537 0.0
O181 O 0.31509 0.41011 0.09245 0.0
C182 C 0.87201 0.18754 0.0416 0.0
O183 O 0.85567 0.17478 0.06138 0.0
Cd184 Cd 0.80822 0.1861 0.0772 0.0
O185 O 0.86505 0.21077 0.0298 0.0
Cd186 Cd 0.824 0.24375 0.03146 0.0
C187 C 0.83534 0.25726 0.11319 0.0
O188 O 0.78834 0.19829 0.02752 0.0
O189 O 0.76374 0.23469 0.02566 0.0
O190 O 0.83606 0.24501 0.97785 0.0
C191 C 0.7621 0.20693 0.0243 0.0
O192 O 0.82464 0.22975 0.1133 0.0
C193 C 0.83016 0.27031 0.97259 0.0
O194 O 0.8388 0.26893 0.08715 0.0
O195 O 0.82364 0.28545 0.99593 0.0
C196 C 1.034 0.48796 0.27268 0.0
O197 O 1.02355 0.49679 0.24663 0.0
Cd198 Cd 0.04779 0.50356 0.19928 0.0
O199 O 0.0621 0.48213 0.2774 0.0
Cd200 Cd 0.10908 0.48256 0.24912 0.0
C201 C 0.11343 0.55556 0.22762 0.0
O202 O 0.07561 0.46378 0.20193 0.0
O203 O 0.12422 0.46165 0.19939 0.0
O204 O 0.13772 0.45134 0.28203 0.0
C205 C 0.0966 0.46022 0.18464 0.0
O206 O 0.08714 0.54998 0.20932 0.0
C207 C 0.16274 0.47127 0.28866 0.0
O208 O 0.12321 0.5354 0.24289 0.0
O209 O 0.16192 0.49596 0.27742 0.0
C210 C 0.90145 1.00307 0.53547 0.0
O211 O 0.88202 1.00656 0.51219 0.0
Cd212 Cd 0.83261 0.97523 0.51964 0.0
O213 O 0.89002 0.98602 0.55579 0.0
Cd214 Cd 0.82838 0.9544 0.55224 0.0
C215 C 0.82208 0.92619 0.46925 0.0
O216 O 0.79866 1.00101 0.54759 0.0
O217 O 0.76764 0.95955 0.54486 0.0
O218 O 0.83993 0.94981 0.61324 0.0
C219 C 0.77007 0.98751 0.54683 0.0
O220 O 0.81307 0.9508 0.4673 0.0
C221 C 0.82895 0.92247 0.61458 0.0
O222 O 0.83136 0.91994 0.4974 0.0
O223 O 0.81803 0.90917 0.58759 0.0
C224 C 0.98504 1.01475 0.26997 0.0
O225 O 1.00212 1.01412 0.2478 0.0
Cd226 Cd 0.98567 1.02457 0.19638 0.0
O227 O 0.95937 1.02529 0.2668 0.0
Cd228 Cd 0.92608 0.04764 0.22682 0.0
C229 C 0.91492 0.97658 0.19951 0.0
O230 O 0.97098 0.07124 0.20674 0.0
O231 O 0.9282 0.06948 0.17506 0.0
O232 O 0.91887 0.08306 0.26805 0.0
C233 C 0.95799 0.07897 0.18157 0.0
O234 O 0.94282 0.98153 0.1914 0.0
C235 C 0.88948 0.08213 0.25889 0.0
O236 O 0.90273 0.9973 0.21107 0.0
O237 O 0.87697 0.06445 0.2351 0.0
C238 C 0.37962 0.68645 0.54521 0.0
O239 O 0.36421 0.67351 0.56554 0.0
Cd240 Cd 0.31625 0.68283 0.58202 0.0
O241 O 0.37122 0.70889 0.53288 0.0
Cd242 Cd 0.32826 0.73974 0.53485 0.0
C243 C 0.34131 0.7547 0.61633 0.0
O244 O 0.29412 0.69335 0.53246 0.0
O245 O 0.26815 0.7288 0.53021 0.0
O246 O 0.33784 0.74075 0.48045 0.0
C247 C 0.26745 0.70118 0.52965 0.0
O248 O 0.33168 0.7271 0.61707 0.0
C249 C 0.33167 0.76605 0.47559 0.0
O250 O 0.34334 0.76613 0.58999 0.0
O251 O 0.32606 0.78118 0.49938 0.0
C252 C 0.51619 0.56813 0.7546 0.0
O253 O 0.51783 0.5562 0.72743 0.0
Cd254 Cd 0.47538 0.53527 0.6846 0.0
O255 O 0.48963 0.57225 0.76279 0.0
Cd256 Cd 0.43578 0.56656 0.7365 0.0
C257 C 0.43188 0.48946 0.72581 0.0
O258 O 0.43563 0.56563 0.6818 0.0
O259 O 0.45099 0.60886 0.70576 0.0
O260 O 0.42041 0.59466 0.77932 0.0
C261 C 0.44647 0.59273 0.68011 0.0
O262 O 0.45042 0.49064 0.70474 0.0
C263 C 0.39078 0.58897 0.76935 0.0
O264 O 0.42473 0.51284 0.73809 0.0
O265 O 0.38205 0.57194 0.7443 0.0
C266 C 0.53566 0.98638 0.76882 0.0
O267 O 0.52697 0.9961 0.7427 0.0
Cd268 Cd 0.55399 1.00225 0.69682 0.0
O269 O 0.56321 0.97959 0.77464 0.0
Cd270 Cd 0.6115 0.98017 0.74867 0.0
C271 C 0.61873 0.05336 0.72933 0.0
O272 O 0.58008 0.96145 0.70013 0.0
O273 O 0.62952 0.96257 0.69875 0.0
O274 O 0.63817 0.94741 0.78135 0.0
C275 C 0.6019 0.95936 0.68341 0.0
O276 O 0.59488 0.0476 0.70787 0.0
C277 C 0.66277 0.96737 0.79015 0.0
O278 O 0.62654 0.03353 0.74635 0.0
O279 O 0.66259 0.99258 0.77999 0.0
C280 C 0.93174 0.66388 0.05158 0.0
O281 O 0.915 0.65744 0.07344 0.0
Cd282 Cd 0.87148 0.68489 0.06382 0.0
O283 O 0.92137 0.68148 0.03208 0.0
Cd284 Cd 0.86726 0.7088 0.03122 0.0
C285 C 0.86375 0.73326 0.11239 0.0
O286 O 0.8236 0.65986 0.03103 0.0
O287 O 0.80768 0.70073 0.03725 0.0
O288 O 0.8552 0.71565 0.97076 0.0
C289 C 0.79999 0.67275 0.03346 0.0
O290 O 0.85719 0.70543 0.11251 0.0
C291 C 0.86623 0.74308 0.97049 0.0
O292 O 0.87232 0.74347 0.0867 0.0
O293 O 0.87807 0.7553 0.9977 0.0
C294 C 0.09061 0.66272 0.89818 0.0
O295 O 0.10598 0.65685 0.87576 0.0
Cd296 Cd 0.09054 0.64693 0.82074 0.0
O297 O 0.06082 0.66349 0.89329 0.0
Cd298 Cd 1.0191 0.65514 0.84726 0.0
C299 C 1.03371 0.58545 0.82403 0.0
O300 O 0.05482 0.68009 0.81579 0.0
O301 O 1.00792 0.66629 0.79174 0.0
O302 O 0.98112 0.68403 0.86482 0.0
C303 C 1.03692 0.67664 0.79003 0.0
O304 O 0.06039 0.59578 0.81495 0.0
C305 C 0.95765 0.66242 0.85969 0.0
O306 O 1.01748 0.60253 0.83643 0.0
O307 O 0.9639 0.63737 0.85166 0.0
C308 C 0.91522 0.49039 0.55361 0.0
O309 O 0.89555 0.50549 0.54178 0.0
Cd310 Cd 0.84034 0.48795 0.53117 0.0
O311 O 0.90592 0.4643 0.56151 0.0
Cd312 Cd 0.85278 0.43125 0.5645 0.0
C313 C 0.83741 0.42424 0.4832 0.0
O314 O 0.83266 0.47377 0.58274 0.0
O315 O 0.79591 0.43556 0.57106 0.0
O316 O 0.87993 0.41952 0.61478 0.0
C317 C 0.80421 0.46172 0.58382 0.0
O318 O 0.83326 0.45088 0.48596 0.0
C319 C 0.86545 0.39299 0.61398 0.0
O320 O 0.84522 0.41147 0.50774 0.0
O321 O 0.84615 0.38348 0.58928 0.0
C322 C 0.71121 0.60857 0.44008 0.0
O323 O 0.69211 0.61902 0.42087 0.0
Cd324 Cd 0.68793 0.62071 0.36572 0.0
O325 O 0.73538 0.59917 0.43149 0.0
Cd326 Cd 0.75934 0.59861 0.38147 0.0
C327 C 0.75636 0.67006 0.3628 0.0
O328 O 0.70801 0.5775 0.35466 0.0
O329 O 0.74442 0.57918 0.32486 0.0
O330 O 0.78832 0.55998 0.39797 0.0
C331 C 0.71493 0.57305 0.32737 0.0
O332 O 0.72611 0.66351 0.35714 0.0
C333 C 0.81506 0.57305 0.39131 0.0
O334 O 0.77274 0.65132 0.37302 0.0
O335 O 0.81584 0.59843 0.3813 0.0
Tb336 Tb 0.05819 0.06464 0.0259 0.0
Eu337 Eu 0.11879 0.08992 0.08056 0.0
C338 C 0.12761 0.07562 1.00942 0.0
C339 C 0.09217 1.02301 0.06466 0.0
C340 C 0.9874 0.0697 0.97679 0.0
C341 C 0.93569 0.07999 0.9862 0.0
C342 C 0.95574 0.05975 0.98173 0.0
C343 C 0.99746 0.09985 0.97273 0.0
C344 C 0.97737 0.12003 0.97706 0.0
C345 C 0.94699 0.11046 0.98568 0.0
C346 C 1.01128 0.05085 0.98404 0.0
O347 O 1.03738 0.08688 0.06162 0.0
O348 O 0.0741 0.08289 0.10362 0.0
O349 O 0.09921 0.13085 0.07105 0.0
O350 O 0.07181 0.11188 0.02238 0.0
C351 C 0.04599 0.08763 0.09192 0.0
O352 O 0.14047 0.08183 0.12688 0.0
O353 O 0.16611 0.11429 0.10004 0.0
O354 O 0.13644 0.09494 0.03387 0.0
O355 O 0.10069 0.0565 1.00669 0.0
O356 O 0.06403 1.02935 0.05639 0.0
O357 O 0.1176 0.04286 0.06403 0.0
C358 C 0.08301 0.13388 0.04398 0.0
O359 O 1.04006 0.06099 0.97794 0.0
O360 O 1.01165 0.04098 1.01189 0.0
C361 C 0.19278 0.07797 0.1215 0.0
C362 C 0.22694 0.03146 0.1165 0.0
C363 C 0.22126 0.04248 0.14614 0.0
C364 C 0.20402 0.06547 0.14859 0.0
C365 C 0.19967 0.06764 0.09208 0.0
C366 C 0.21666 0.04475 0.08965 0.0
C367 C 0.16827 0.09651 0.1225 0.0
H368 H 0.91214 0.07204 0.99242 0.0
H369 H 0.94744 0.03671 0.98504 0.0
H370 H 1.02177 0.10837 0.96899 0.0
H371 H 0.98671 0.14332 0.97645 0.0
H372 H 0.22924 0.03268 0.1672 0.0
H373 H 0.19827 0.07256 0.17138 0.0
H374 H 0.19067 0.07633 0.07067 0.0
H375 H 0.22143 0.03717 0.06662 0.0
Tb376 Tb 0.3732 0.83864 0.30869 0.0
Eu377 Eu 0.30776 0.79297 0.27236 0.0
C378 C 0.31637 0.8645 0.27496 0.0
C379 C 0.3245 0.80397 0.34763 0.0
C380 C 0.44301 0.89989 0.33509 0.0
C381 C 0.44818 0.9515 0.32472 0.0
C382 C 0.42962 0.92329 0.32331 0.0
C383 C 0.47562 0.90473 0.3466 0.0
C384 C 0.49434 0.93295 0.34758 0.0
C385 C 0.48046 0.95668 0.33756 0.0
C386 C 0.42281 0.87114 0.33786 0.0
O387 O 0.37851 0.79372 0.3169 0.0
O388 O 0.34647 0.76603 0.27492 0.0
O389 O 0.33084 0.81445 0.2333 0.0
O390 O 0.38059 0.83628 0.25894 0.0
C391 C 0.36929 0.76917 0.29854 0.0
O392 O 0.28165 0.76022 0.23557 0.0
O393 O 0.25681 0.77652 0.27228 0.0
O394 O 0.29691 0.83905 0.27492 0.0
O395 O 0.347 0.86854 0.28472 0.0
O396 O 0.33983 0.83036 0.34328 0.0
O397 O 0.31352 0.78454 0.32358 0.0
C398 C 0.36003 0.82899 0.23309 0.0
O399 O 0.3939 0.87193 0.34395 0.0
O400 O 0.42342 0.84976 0.31677 0.0
C401 C 0.23678 0.72737 0.2494 0.0
C402 C 0.19658 0.67137 0.24381 0.0
C403 C 0.22685 0.67463 0.23368 0.0
C404 C 0.24668 0.7024 0.2362 0.0
C405 C 0.20729 0.72368 0.26119 0.0
C406 C 0.18725 0.69602 0.25817 0.0
C407 C 0.25505 0.75754 0.24801 0.0
H408 H 0.43715 0.96949 0.31649 0.0
H409 H 0.40459 0.92 0.31403 0.0
H410 H 0.48635 0.88691 0.35571 0.0
H411 H 0.51922 0.93652 0.35745 0.0
H412 H 0.23465 0.65588 0.22268 0.0
H413 H 0.26925 0.7044 0.22688 0.0
H414 H 0.1991 0.74249 0.2716 0.0
H415 H 0.16432 0.69395 0.2668 0.0
Tb416 Tb 0.58837 0.06104 0.52044 0.0
Eu417 Eu 0.62369 0.10173 0.5827 0.0
C418 C 0.59448 0.03336 0.58571 0.0
C419 C 0.55188 0.10825 0.55287 0.0
C420 C 0.55339 0.99997 0.45861 0.0
C421 C 0.57084 0.95301 0.45211 0.0
C422 C 0.57681 0.98252 0.46412 0.0
C423 C 0.52384 0.9874 0.44133 0.0
C424 C 0.51773 0.95776 0.42957 0.0
C425 C 0.54125 0.94036 0.4348 0.0
C426 C 0.55912 0.03106 0.47115 0.0
O427 O 0.62393 0.09606 0.5068 0.0
O428 O 0.62064 0.13159 0.54436 0.0
O429 O 0.66196 0.07735 0.56449 0.0
O430 O 0.63017 0.03953 0.53207 0.0
C431 C 0.62743 0.12395 0.51676 0.0
O432 O 0.66658 0.13079 0.60525 0.0
O433 O 0.62554 0.12141 0.6307 0.0
O434 O 0.6152 0.05646 0.59833 0.0
O435 O 0.57711 0.03301 0.55837 0.0
O436 O 0.55835 0.09547 0.52656 0.0
O437 O 0.57108 0.1078 0.57925 0.0
C438 C 0.65836 0.05142 0.5479 0.0
O439 O 0.54571 0.03649 0.496 0.0
O440 O 0.58836 0.04551 0.47352 0.0
C441 C 0.65784 0.16943 0.64008 0.0
C442 C 0.66797 0.22981 0.66085 0.0
C443 C 0.68028 0.22058 0.63387 0.0
C444 C 0.67527 0.19072 0.62356 0.0
C445 C 0.64551 0.17869 0.66708 0.0
C446 C 0.6507 0.20862 0.67751 0.0
C447 C 0.65364 0.13766 0.63005 0.0
H448 H 0.58926 0.93993 0.45661 0.0
H449 H 0.59968 0.99167 0.47769 0.0
H450 H 0.50546 1.00053 0.43705 0.0
H451 H 0.49482 0.94854 0.41614 0.0
H452 H 0.6943 0.23644 0.62103 0.0
H453 H 0.68535 0.1844 0.60278 0.0
H454 H 0.63205 0.16276 0.68027 0.0
H455 H 0.64108 0.21524 0.69847 0.0
Tb456 Tb 0.31943 0.33398 0.78504 0.0
Eu457 Eu 0.38812 0.32518 0.81665 0.0
C458 C 0.37995 0.38027 0.7763 0.0
C459 C 0.3624 0.3041 0.74207 0.0
C460 C 0.2362 0.32007 0.78125 0.0
C461 C 0.18039 0.30225 0.78493 0.0
C462 C 0.2041 0.31719 0.76884 0.0
C463 C 0.24439 0.30769 0.80938 0.0
C464 C 0.22105 0.2928 0.82518 0.0
C465 C 0.1889 0.29011 0.81329 0.0
C466 C 0.26224 0.33444 0.76533 0.0
O467 O 0.3149 0.28862 0.7977 0.0
O468 O 0.35346 0.2942 0.83938 0.0
O469 O 0.37264 0.35586 0.85322 0.0
O470 O 0.3193 0.34744 0.83587 0.0
C471 C 0.32679 0.2797 0.82408 0.0
O472 O 0.42558 0.29874 0.82271 0.0
O473 O 0.43095 0.34107 0.84941 0.0
O474 O 0.39845 0.36178 0.78527 0.0
O475 O 0.34942 0.37552 0.77899 0.0
O476 O 0.34268 0.32301 0.74351 0.0
O477 O 0.378 0.29771 0.7685 0.0
C478 C 0.34342 0.35822 0.85796 0.0
O479 O 0.281 0.35674 0.78185 0.0
O480 O 0.27845 0.31617 0.75347 0.0
C481 C 0.47658 0.32912 0.83265 0.0
C482 C 0.53515 0.35869 0.81799 0.0
C483 C 0.53149 0.35267 0.84914 0.0
C484 C 0.50232 0.33799 0.85642 0.0
C485 C 0.48042 0.33421 0.80137 0.0
C486 C 0.50963 0.34864 0.79405 0.0
C487 C 0.44481 0.31939 0.84132 0.0
H488 H 0.15555 0.3006 0.7756 0.0
H489 H 0.19746 0.32645 0.74701 0.0
H490 H 0.26899 0.30939 0.8192 0.0
H491 H 0.22816 0.2834 0.84681 0.0
H492 H 0.55086 0.36012 0.86797 0.0
H493 H 0.49946 0.33467 0.88075 0.0
H494 H 0.46057 0.32794 0.78279 0.0
H495 H 0.51212 0.35225 0.76972 0.0
Tb496 Tb 0.10554 0.07458 0.5136 0.0
Eu497 Eu 0.10324 0.10495 0.57967 0.0
C498 C 0.16997 0.11351 0.54853 0.0
C499 C 0.10573 0.03331 0.572 0.0
C500 C 0.09086 1.0269 0.43855 0.0
C501 C 0.08132 1.00607 0.3848 0.0
C502 C 0.10213 1.02126 0.41005 0.0
C503 C 0.05979 1.01402 0.44306 0.0
C504 C 1.03887 0.99861 0.41775 0.0
C505 C 0.04896 0.99629 0.38787 0.0
C506 C 0.10928 0.05087 0.46028 0.0
O507 O 0.05364 0.06244 0.5169 0.0
O508 O 0.05125 0.08201 0.56664 0.0
O509 O 0.09129 0.14173 0.54822 0.0
O510 O 0.10673 0.1224 0.50367 0.0
C511 C 1.03733 0.06586 0.54079 0.0
O512 O 0.08216 0.10952 0.62331 0.0
O513 O 0.12666 0.13735 0.61793 0.0
O514 O 0.15246 0.12483 0.56734 0.0
O515 O 0.15709 0.08936 0.53042 0.0
O516 O 0.09683 0.03516 0.54172 0.0
O517 O 0.1156 0.05855 0.58997 0.0
C518 C 0.09868 0.14518 0.51937 0.0
O519 O 0.095 0.07316 0.46489 0.0
O520 O 0.12361 0.04364 0.48627 0.0
C521 C 0.12329 0.11834 0.66628 0.0
C522 C 0.16705 0.09997 0.71118 0.0
C523 C 0.14305 0.07917 0.69299 0.0
C524 C 0.12154 0.0882 0.6705 0.0
C525 C 0.14548 0.13932 0.68623 0.0
C526 C 0.16716 0.13022 0.70862 0.0
C527 C 0.10728 0.12751 0.63752 0.0
H528 H 0.08986 1.00523 0.36209 0.0
H529 H 0.1261 0.03115 0.40636 0.0
H530 H 0.05093 1.01815 0.46519 0.0
H531 H 1.01413 0.99112 0.42076 0.0
H532 H 0.14175 0.05585 0.69524 0.0
H533 H 0.10476 0.0715 0.6553 0.0
H534 H 0.14724 0.16268 0.68326 0.0
H535 H 0.18448 0.14682 0.72337 0.0
Tb536 Tb 0.32569 0.81164 0.80665 0.0
Eu537 Eu 0.35489 0.87647 0.78726 0.0
C538 C 0.33421 0.86708 0.85625 0.0
C539 C 0.28082 0.84845 0.76618 0.0
C540 C 0.30376 0.7313 0.81429 0.0
C541 C 0.3091 0.68379 0.8334 0.0
C542 C 0.30138 0.71177 0.83803 0.0
C543 C 0.31269 0.72221 0.78542 0.0
C544 C 0.32013 0.69426 0.78072 0.0
C545 C 0.31913 0.67512 0.80491 0.0
C546 C 0.29908 0.76165 0.82063 0.0
O547 O 0.33906 0.80148 0.76038 0.0
O548 O 0.35845 0.84728 0.74431 0.0
O549 O 0.39456 0.8616 0.81854 0.0
O550 O 0.37795 0.81154 0.81501 0.0
C551 C 0.35071 0.8184 0.7393 0.0
O552 O 0.35097 0.92169 0.77843 0.0
O553 O 0.39629 0.9074 0.77686 0.0
O554 O 0.33561 0.88468 0.83333 0.0
O555 O 0.33393 0.83884 0.85083 0.0
O556 O 0.28408 0.83258 0.79063 0.0
O557 O 0.30639 0.86437 0.75756 0.0
C558 C 0.40082 0.83508 0.8226 0.0
O559 O 0.32223 0.77892 0.83869 0.0
O560 O 0.28893 0.77468 0.79644 0.0
C561 C 0.39648 0.9546 0.8012 0.0
C562 C 0.40511 0.99998 0.84971 0.0
C563 C 0.39864 1.00593 0.81808 0.0
C564 C 0.39442 0.98338 0.794 0.0
C565 C 0.4063 0.94921 0.83235 0.0
C566 C 0.41071 0.97182 0.85647 0.0
C567 C 0.38163 0.92985 0.77817 0.0
H568 H 0.30815 0.6693 0.85231 0.0
H569 H 0.29455 0.71853 0.86046 0.0
H570 H 0.31492 0.737 0.76684 0.0
H571 H 0.32823 0.68816 0.7587 0.0
H572 H 0.3936 1.02723 0.81209 0.0
H573 H 0.38662 0.98786 0.77016 0.0
H574 H 0.40778 0.927 0.8384 0.0
H575 H 0.41556 0.96664 0.8806 0.0
Tb576 Tb 0.61545 0.07816 0.06296 0.0
Eu577 Eu 0.57301 0.09161 1.00126 0.0
C578 C 0.60166 1.02701 1.00595 0.0
C579 C 0.64658 0.11855 1.01623 0.0
C580 C 0.63446 0.07887 0.14529 0.0
C581 C 0.64151 0.10303 0.19796 0.0
C582 C 0.65463 0.09326 0.17178 0.0
C583 C 0.60133 0.07363 0.14556 0.0
C584 C 0.58835 0.08364 0.17121 0.0
C585 C 0.60819 0.09866 0.19755 0.0
C586 C 0.64647 0.07415 0.11528 0.0
O587 O 0.59805 0.12014 0.07731 0.0
O588 O 0.5788 0.13617 0.03082 0.0
O589 O 0.53779 0.07627 0.03354 0.0
O590 O 0.56852 0.05242 0.06635 0.0
C591 C 0.58797 0.14151 0.0614 0.0
O592 O 0.56843 0.09797 0.95128 0.0
O593 O 0.52786 0.09859 0.97698 0.0
O594 O 0.58438 0.04408 0.99009 0.0
O595 O 0.61734 0.03717 0.03395 0.0
O596 O 0.64877 0.09493 0.03113 0.0
O597 O 0.61881 0.12377 1.00502 0.0
C598 C 0.54068 0.05742 0.0546 0.0
O599 O 0.63072 0.05136 0.09725 0.0
O600 O 0.65101 0.0976 0.09982 0.0
C601 C 0.51798 0.0781 0.9245 0.0
C602 C 0.49462 0.0354 0.87421 0.0
C603 C 0.5054 0.06502 0.86868 0.0
C604 C 0.5169 0.08622 0.89368 0.0
C605 C 0.5042 0.04932 0.93031 0.0
C606 C 0.49217 1.02811 0.9052 0.0
C607 C 0.53791 0.09828 0.94949 0.0
H608 H 0.65727 0.11478 0.21801 0.0
H609 H 0.68022 0.09805 0.17168 0.0
H610 H 0.58517 0.06325 0.12519 0.0
H611 H 0.56263 0.08092 0.16963 0.0
H612 H 0.50772 0.07135 0.84508 0.0
H613 H 0.52735 0.10836 0.88887 0.0
H614 H 0.50476 0.04272 0.95411 0.0
H615 H 0.48343 1.00557 0.91003 0.0
Tb616 Tb 0.35696 0.36232 0.31528 0.0
Eu617 Eu 0.32504 0.3009 0.27766 0.0
C618 C 0.35859 0.30348 0.35231 0.0
C619 C 0.40166 0.33025 0.27372 0.0
C620 C 0.34563 0.43132 0.34883 0.0
C621 C 0.29324 0.43174 0.36523 0.0
C622 C 0.32238 0.42195 0.36848 0.0
C623 C 0.34055 0.45335 0.32864 0.0
C624 C 0.31136 0.46301 0.32529 0.0
C625 C 0.28677 0.45103 0.34228 0.0
C626 C 0.37019 0.41331 0.34329 0.0
O627 O 0.34112 0.37559 0.26737 0.0
O628 O 0.3176 0.33204 0.23932 0.0
O629 O 0.28132 0.31536 0.29567 0.0
O630 O 0.30841 0.35291 0.33067 0.0
C631 C 0.32777 0.36076 0.24028 0.0
O632 O 0.31917 0.2688 0.23683 0.0
O633 O 0.29408 0.25775 0.27618 0.0
O634 O 0.34043 0.28854 0.32753 0.0
O635 O 0.37131 0.33164 0.3505 0.0
O636 O 0.39896 0.35327 0.29266 0.0
O637 O 0.37778 0.30728 0.26807 0.0
C638 C 0.28164 0.33434 0.32 0.0
O639 O 0.36946 0.3894 0.35791 0.0
O640 O 0.37331 0.40793 0.31392 0.0
C641 C 0.32164 0.22267 0.25698 0.0
C642 C 0.36389 0.19376 0.29208 0.0
C643 C 0.37448 0.2113 0.26854 0.0
C644 C 0.35345 0.22547 0.25085 0.0
C645 C 0.31006 0.20127 0.27687 0.0
C646 C 0.33119 0.18668 0.29429 0.0
C647 C 0.30481 0.24748 0.25149 0.0
H648 H 0.2751 0.42286 0.37938 0.0
H649 H 0.32555 0.40524 0.3846 0.0
H650 H 0.35799 0.4611 0.31327 0.0
H651 H 0.30719 0.47809 0.30756 0.0
H652 H 0.39959 0.21615 0.2658 0.0
H653 H 0.36313 0.24124 0.2352 0.0
H654 H 0.28554 0.1984 0.28167 0.0
H655 H 0.3225 0.17224 0.31157 0.0
Tb656 Tb 0.60089 0.56822 1.01023 0.0
Eu657 Eu 0.60314 0.60011 0.07779 0.0
C658 C 0.66684 0.60919 0.04129 0.0
C659 C 0.60418 0.52782 0.07073 0.0
C660 C 0.6072 0.5488 0.92543 0.0
C661 C 0.59531 0.53447 0.8697 0.0
C662 C 0.59733 0.52686 0.90063 0.0
C663 C 0.61891 0.57789 0.91911 0.0
C664 C 0.61721 0.58551 0.88802 0.0
C665 C 0.60308 0.5642 0.86325 0.0
C666 C 0.59862 0.54207 0.95645 0.0
O667 O 0.54983 0.56065 1.01731 0.0
O668 O 0.55259 0.57313 0.06987 0.0
O669 O 0.59364 0.6373 0.0455 0.0
O670 O 0.60243 0.61572 0.99872 0.0
C671 C 0.53609 0.56072 0.04326 0.0
O672 O 0.5812 0.61936 0.11567 0.0
O673 O 0.63214 0.61999 0.12092 0.0
O674 O 0.65114 0.61929 0.06273 0.0
O675 O 0.65283 0.58617 0.0218 0.0
O676 O 0.5974 0.5294 0.03997 0.0
O677 O 0.61182 0.55298 0.08904 0.0
C678 C 0.59801 0.63962 1.01555 0.0
O679 O 0.62166 0.54251 0.97913 0.0
O680 O 0.57629 0.55516 0.9654 0.0
C681 C 0.60779 0.61374 0.1658 0.0
C682 C 0.62802 0.59117 0.22199 0.0
C683 C 0.63149 0.62178 0.22022 0.0
C684 C 0.62141 0.63304 0.19217 0.0
C685 C 0.60147 0.58315 0.16852 0.0
C686 C 0.61158 0.5719 0.19663 0.0
C687 C 0.60792 0.62491 0.13474 0.0
H688 H 0.58438 0.5175 0.85119 0.0
H689 H 0.58826 0.50429 0.90521 0.0
H690 H 0.6268 0.59506 0.93814 0.0
H691 H 0.62415 0.60845 0.88361 0.0
H692 H 0.64436 0.63689 0.23965 0.0
H693 H 0.6268 0.65666 0.19029 0.0
H694 H 0.5912 0.56795 0.14823 0.0
H695 H 0.60858 0.54826 0.19791 0.0
Tb696 Tb 0.82706 0.31171 0.30718 0.0
Eu697 Eu 0.85429 0.37661 0.28676 0.0
C698 C 0.8319 0.36835 0.35514 0.0
C699 C 0.78022 0.34663 0.26681 0.0
C700 C 0.81099 0.23129 0.31411 0.0
C701 C 0.82077 0.18386 0.33028 0.0
C702 C 0.81191 0.21104 0.3371 0.0
C703 C 0.81816 0.22377 0.28396 0.0
C704 C 0.82677 0.1966 0.2771 0.0
C705 C 0.82871 0.17667 0.30034 0.0
C706 C 0.80476 0.26086 0.32236 0.0
O707 O 0.83632 0.30199 0.25909 0.0
O708 O 0.85983 0.34722 0.24481 0.0
O709 O 0.89325 0.3638 0.32076 0.0
O710 O 0.87969 0.31373 0.3139 0.0
C711 C 0.84924 0.31877 0.23851 0.0
O712 O 0.84919 0.42094 0.27533 0.0
O713 O 0.89552 0.40811 0.27692 0.0
O714 O 0.83375 0.38545 0.33182 0.0
O715 O 0.8325 0.3401 0.35068 0.0
O716 O 0.78407 0.3307 0.29116 0.0
O717 O 0.80537 0.36309 0.25795 0.0
C718 C 0.90122 0.33777 0.32354 0.0
O719 O 0.82835 0.2789 0.33895 0.0
O720 O 0.79136 0.27369 0.29965 0.0
C721 C 0.8929 0.45556 0.29866 0.0
C722 C 0.8955 0.50181 0.34485 0.0
C723 C 0.89173 0.50682 0.31274 0.0
C724 C 0.89044 0.48379 0.28978 0.0
C725 C 0.90057 0.45137 0.33056 0.0
C726 C 0.90198 0.47443 0.35356 0.0
C727 C 0.87988 0.42993 0.27622 0.0
H728 H 0.82195 0.1687 0.34847 0.0
H729 H 0.80655 0.21657 0.36052 0.0
H730 H 0.8179 0.23916 0.26593 0.0
H731 H 0.83311 0.19163 0.25394 0.0
H732 H 0.88622 0.52753 0.30526 0.0
H733 H 0.88431 0.48732 0.2653 0.0
H734 H 0.90235 0.4296 0.33788 0.0
H735 H 0.90487 0.47002 0.37811 0.0
Tb736 Tb 0.11012 0.58187 0.56625 0.0
Eu737 Eu 0.07483 0.59463 0.5009 0.0
C738 C 0.10222 0.53105 0.50825 0.0
C739 C 0.14893 0.61632 0.52003 0.0
C740 C 0.12008 0.59295 0.64756 0.0
C741 C 0.12382 0.61453 0.70103 0.0
C742 C 0.13577 0.59773 0.6784 0.0
C743 C 0.09308 0.60546 0.63961 0.0
C744 C 0.08157 0.62231 0.66165 0.0
C745 C 0.09649 0.62679 0.69261 0.0
C746 C 0.13186 0.57733 0.62198 0.0
O747 O 0.10777 0.62981 0.57403 0.0
O748 O 0.06894 0.63435 0.5349 0.0
O749 O 0.04523 0.55569 0.51786 0.0
O750 O 0.05869 0.57441 0.56785 0.0
C751 C 0.08776 0.64579 0.56107 0.0
O752 O 0.07052 0.60109 0.4509 0.0
O753 O 1.03076 0.60438 0.47737 0.0
O754 O 0.09326 0.55076 0.48916 0.0
O755 O 0.10815 0.5384 0.53909 0.0
O756 O 0.14747 0.59339 0.53678 0.0
O757 O 0.12286 0.62375 0.50677 0.0
C758 C 1.03971 0.55593 0.54682 0.0
O759 O 0.11035 0.55686 0.60558 0.0
O760 O 0.14703 0.59483 0.60381 0.0
C761 C 1.01898 0.58185 0.42599 0.0
C762 C 0.99329 0.53746 0.37801 0.0
C763 C 0.99315 0.53124 0.40956 0.0
C764 C 1.00632 0.55329 0.43348 0.0
C765 C 1.01517 0.58898 0.39484 0.0
C766 C 1.00226 0.56693 0.37094 0.0
C767 C 1.04022 0.6026 0.4496 0.0
H768 H 0.13548 0.61747 0.72505 0.0
H769 H 0.15692 0.58857 0.68489 0.0
H770 H 0.08087 0.60267 0.61606 0.0
H771 H 0.06082 0.63184 0.65439 0.0
H772 H 0.98582 0.50882 0.41559 0.0
H773 H 1.00882 0.54747 0.45757 0.0
H774 H 1.02462 0.61096 0.38876 0.0
H775 H 1.00265 0.57243 0.34681 0.0
Tb776 Tb 0.80829 0.83099 0.27689 0.0
Eu777 Eu 0.87812 0.82463 0.30596 0.0
C778 C 0.86609 0.87374 0.25873 0.0
C779 C 0.8509 0.7985 0.23399 0.0
C780 C 0.72599 0.83558 0.2765 0.0
C781 C 0.67177 0.81463 0.28302 0.0
C782 C 0.69493 0.82272 0.26338 0.0
C783 C 0.73316 0.84224 0.30913 0.0
C784 C 0.71017 0.83414 0.3287 0.0
C785 C 0.67969 0.81925 0.31585 0.0
C786 C 0.75219 0.8358 0.25779 0.0
O787 O 0.80143 0.8003 0.31267 0.0
O788 O 0.84651 0.78129 0.31065 0.0
O789 O 0.85554 0.84017 0.3483 0.0
O790 O 0.81898 0.86192 0.3206 0.0
C791 C 0.8175 0.77915 0.31793 0.0
O792 O 0.91934 0.80269 0.3089 0.0
O793 O 0.91864 0.83998 0.3418 0.0
O794 O 0.88357 0.86827 0.2841 0.0
O795 O 0.83813 0.85779 0.24899 0.0
O796 O 0.82219 0.79913 0.24224 0.0
O797 O 0.87651 0.81102 0.25341 0.0
C798 C 0.83501 0.85825 0.34795 0.0
O799 O 0.77557 0.85839 0.26422 0.0
O800 O 0.76239 0.81081 0.25636 0.0
C801 C 0.9668 0.83671 0.32334 0.0
C802 C 1.02541 0.86352 0.30656 0.0
C803 C 1.02345 0.83851 0.32383 0.0
C804 C 0.99418 0.82511 0.33215 0.0
C805 C 0.96888 0.86206 0.30673 0.0
C806 C 0.99802 0.8755 0.29858 0.0
C807 C 0.93582 0.8222 0.3306 0.0
H808 H 0.64827 0.80318 0.27273 0.0
H809 H 0.68923 0.81705 0.23827 0.0
H810 H 0.7572 0.85151 0.31974 0.0
H811 H 0.71703 0.83737 0.35392 0.0
H812 H 0.04436 0.82891 0.33012 0.0
H813 H 0.99282 0.80552 0.34497 0.0
H814 H 0.94789 0.87133 0.29983 0.0
H815 H 0.99904 0.89504 0.28572 0.0
Tb816 Tb 0.87561 0.34093 0.80331 0.0
Eu817 Eu 0.81044 0.29306 0.76849 0.0
C818 C 0.81659 0.36466 0.77081 0.0
C819 C 0.82705 0.3073 0.84428 0.0
C820 C 0.94459 0.40322 0.82144 0.0
C821 C 0.94766 0.44948 0.79695 0.0
C822 C 0.93117 0.4212 0.80052 0.0
C823 C 0.97534 0.41318 0.83742 0.0
C824 C 0.99195 0.44141 0.83368 0.0
C825 C 0.97789 0.46015 0.81409 0.0
C826 C 0.92584 0.37515 0.82855 0.0
O827 O 0.88105 0.29703 0.81511 0.0
O828 O 0.85035 0.26743 0.77378 0.0
O829 O 0.83062 0.31649 0.72914 0.0
O830 O 0.88124 0.33726 0.75307 0.0
C831 C 0.87207 0.27154 0.79847 0.0
O832 O 0.78673 0.25835 0.73251 0.0
O833 O 0.75972 0.27501 0.7671 0.0
O834 O 0.79799 0.33854 0.76941 0.0
O835 O 0.8471 0.36976 0.78111 0.0
O836 O 0.84446 0.33288 0.84 0.0
O837 O 0.81464 0.28787 0.82049 0.0
C838 C 0.8595 0.33117 0.72801 0.0
O839 O 0.89737 0.37651 0.83562 0.0
O840 O 0.92575 0.35206 0.8094 0.0
C841 C 0.74195 0.22487 0.74568 0.0
C842 C 0.70369 0.16795 0.74381 0.0
C843 C 0.72911 0.17301 0.72576 0.0
C844 C 0.74791 0.20113 0.72657 0.0
C845 C 0.71684 0.21971 0.76411 0.0
C846 C 0.69786 0.19163 0.76307 0.0
C847 C 0.75948 0.25533 0.7438 0.0
H848 H 0.93636 0.46339 0.78152 0.0
H849 H 0.90749 0.4138 0.78784 0.0
H850 H 0.98599 0.39954 0.85366 0.0
H851 H 1.01507 0.44912 0.84734 0.0
H852 H 0.73423 0.15525 0.71067 0.0
H853 H 0.7667 0.20438 0.71167 0.0
H854 H 0.7111 0.23762 0.77851 0.0
H855 H 0.67791 0.18875 0.77656 0.0
Tb856 Tb 0.85713 0.86287 0.81183 0.0
Eu857 Eu 0.82667 0.80091 0.77403 0.0
C858 C 0.85683 0.8048 0.84962 0.0
C859 C 0.90259 0.8333 0.76959 0.0
C860 C 0.8456 0.9305 0.84919 0.0
C861 C 0.79293 0.92713 0.86597 0.0
C862 C 0.82248 0.91818 0.86773 0.0
C863 C 0.84014 0.95459 0.83223 0.0
C864 C 0.81056 0.96348 0.83042 0.0
C865 C 0.78605 0.94855 0.84572 0.0
C866 C 0.87004 0.91366 0.84043 0.0
O867 O 0.84191 0.87521 0.76335 0.0
O868 O 0.82066 0.83145 0.73438 0.0
O869 O 0.78295 0.81278 0.7946 0.0
O870 O 0.80849 0.85294 0.82715 0.0
C871 C 0.83003 0.8604 0.7358 0.0
O872 O 0.83607 0.76147 0.74936 0.0
O873 O 0.78787 0.76353 0.75722 0.0
O874 O 0.83781 0.79 0.82531 0.0
O875 O 0.8716 0.83207 0.84666 0.0
O876 O 0.90003 0.85505 0.79024 0.0
O877 O 0.87846 0.81086 0.76203 0.0
C878 C 0.78257 0.83272 0.81786 0.0
O879 O 0.87216 0.88973 0.85438 0.0
O880 O 0.86985 0.90884 0.81034 0.0
C881 C 0.80774 0.71945 0.76651 0.0
C882 C 0.83749 0.6848 0.8076 0.0
C883 C 0.83883 0.68096 0.77514 0.0
C884 C 0.82387 0.69815 0.75464 0.0
C885 C 0.80203 0.71964 0.7981 0.0
C886 C 0.81668 0.70214 0.8185 0.0
C887 C 0.80758 0.74645 0.75 0.0
H888 H 0.77472 0.91589 0.87873 0.0
H889 H 0.826 0.8998 0.88139 0.0
H890 H 0.85749 0.96453 0.81777 0.0
H891 H 0.806 0.98024 0.8148 0.0
H892 H 0.85463 0.66753 0.76616 0.0
H893 H 0.82862 0.69764 0.7304 0.0
H894 H 0.78953 0.73574 0.8079 0.0
H895 H 0.81471 0.70459 0.84336 0.0
Tb896 Tb 0.55627 0.56216 0.53321 0.0
Eu897 Eu 0.61107 0.59277 0.5904 0.0
C898 C 0.62782 0.57185 0.52675 0.0
C899 C 0.57937 0.52603 0.5852 0.0
C900 C 0.48904 0.56411 0.4797 0.0
C901 C 0.48053 0.61485 0.47726 0.0
C902 C 0.49908 0.59341 0.4723 0.0
C903 C 0.45819 0.55595 0.48784 0.0
C904 C 0.43966 0.5774 0.49278 0.0
C905 C 0.45158 0.60728 0.48939 0.0
C906 C 0.51312 0.54566 0.48838 0.0
O907 O 0.53148 0.57208 0.57293 0.0
O908 O 0.56773 0.60749 0.60532 0.0
O909 O 0.60342 0.62889 0.55861 0.0
O910 O 0.55218 0.60814 0.53714 0.0
C911 C 0.53838 0.59328 0.59607 0.0
O912 O 0.63574 0.5893 0.63716 0.0
O913 O 0.65668 0.62167 0.60753 0.0
O914 O 0.63157 0.56576 0.55585 0.0
O915 O 0.60053 0.57787 0.51493 0.0
O916 O 0.57524 0.52613 0.55448 0.0
O917 O 0.58246 0.55078 0.60262 0.0
C918 C 0.57551 0.63088 0.54351 0.0
O919 O 0.54235 0.55668 0.48431 0.0
O920 O 0.512 0.53528 0.51594 0.0
C921 C 0.68865 0.58877 0.62867 0.0
C922 C 0.72575 0.54508 0.61865 0.0
C923 C 0.71616 0.55033 0.64833 0.0
C924 C 0.69749 0.57186 0.65322 0.0
C925 C 0.70023 0.58467 0.59965 0.0
C926 C 0.71837 0.56297 0.59468 0.0
C927 C 0.66208 0.60514 0.63052 0.0
H928 H 0.49022 0.63769 0.47439 0.0
H929 H 0.52269 0.60061 0.46585 0.0
H930 H 0.44979 0.53365 0.49368 0.0
H931 H 0.4171 0.57102 0.50173 0.0
H932 H 0.72188 0.53689 0.66723 0.0
H933 H 0.68851 0.57419 0.6756 0.0
H934 H 0.69379 0.59704 0.58004 0.0
H935 H 0.72604 0.55969 0.57177 0.0
Tb936 Tb 0.08618 0.55976 0.02003 0.0
Eu937 Eu 0.12158 0.60169 0.08159 0.0
C938 C 0.09142 0.53355 0.08589 0.0
C939 C 0.04916 0.6073 0.05143 0.0
C940 C 0.05475 0.49748 0.95984 0.0
C941 C 0.06836 0.44915 0.96597 0.0
C942 C 0.07239 0.47903 0.97615 0.0
C943 C 1.03296 0.48577 0.93335 0.0
C944 C 1.02875 0.45581 0.92328 0.0
C945 C 0.04637 0.43725 0.93954 0.0
C946 C 0.05855 0.52874 0.97075 0.0
O947 O 0.12145 0.59492 1.00644 0.0
O948 O 0.11658 0.63084 0.04265 0.0
O949 O 0.15998 0.57767 0.06313 0.0
O950 O 0.12802 0.53866 0.03275 0.0
C951 C 0.1229 0.62285 1.01494 0.0
O952 O 0.16421 0.63232 0.10264 0.0
O953 O 0.1249 0.62068 0.12992 0.0
O954 O 0.1127 0.55652 0.09792 0.0
O955 O 0.0741 0.53289 0.05851 0.0
O956 O 0.05519 0.59346 0.02548 0.0
O957 O 0.06897 0.60825 0.07777 0.0
C958 C 0.15643 0.55126 0.04756 0.0
O959 O 0.0444 0.53425 0.99506 0.0
O960 O 0.08748 0.54387 0.97348 0.0
C961 C 0.15655 0.66867 0.13973 0.0
C962 C 0.16785 0.72962 0.15746 0.0
C963 C 0.19042 0.71238 0.16734 0.0
C964 C 0.18482 0.68216 0.15851 0.0
C965 C 0.13378 0.6857 0.12983 0.0
C966 C 0.13936 0.71604 0.13874 0.0
C967 C 0.15263 0.63741 0.12877 0.0
H968 H 0.08255 0.43537 0.97865 0.0
H969 H 0.0892 0.48774 0.99675 0.0
H970 H 1.01904 0.49974 0.92063 0.0
H971 H 1.01138 0.44699 0.90315 0.0
H972 H 0.21269 0.72247 0.1814 0.0
H973 H 0.20284 0.66937 0.16585 0.0
H974 H 0.11193 0.67562 0.11499 0.0
H975 H 0.12144 0.72884 0.13116 0.0
C976 C 0.08244 0.19699 0.99546 0.0
C977 C 0.05108 0.20169 0.99614 0.0
C978 C 0.09493 0.17759 1.015 0.0
C979 C 0.07645 0.1626 0.03587 0.0
H980 H 0.09643 0.20648 0.9779 0.0
H981 H 0.11789 0.17211 1.01157 0.0
S982 S 0.9953 0.17157 0.05049 0.0
N983 N 1.00345 0.19322 0.02209 0.0
N984 N 1.02704 0.15645 0.05909 0.0
C985 C 0.04628 0.16939 0.03895 0.0
C986 C 1.03347 0.18907 0.01891 0.0
C987 C 0.28886 0.93614 0.25787 0.0
C988 C 0.27473 0.93017 0.22629 0.0
C989 C 0.30378 0.91535 0.27346 0.0
C990 C 0.30422 0.88777 0.25809 0.0
H991 H 0.28625 0.95604 0.27124 0.0
H992 H 0.31322 0.92013 0.2981 0.0
S993 S 0.27534 0.86289 0.17444 0.0
N994 N 0.26644 0.8961 0.17918 0.0
N995 N 0.29301 0.85678 0.20897 0.0
C996 C 0.29246 0.88243 0.22603 0.0
C997 C 0.27823 0.9038 0.20991 0.0
C998 C 0.55382 0.86967 0.39292 0.0
C999 C 0.52903 0.84835 0.40096 0.0
C1000 C 0.55718 0.89945 0.40351 0.0
C1001 C 0.53551 0.90912 0.422 0.0
H1002 H 0.57152 0.86318 0.37928 0.0
H1003 H 0.5771 0.91502 0.39747 0.0
S1004 S 0.4647 0.86264 0.44698 0.0
N1005 N 0.48134 0.83916 0.42694 0.0
N1006 N 0.48728 0.89547 0.44636 0.0
C1007 C 0.50977 0.8883 0.42905 0.0
C1008 C 0.50666 0.85781 0.41871 0.0
C1009 C 0.62329 0.37912 0.81237 0.0
C1010 C 0.62444 0.40063 0.7905 0.0
C1011 C 0.59438 0.36636 0.82199 0.0
C1012 C 0.56573 0.3749 0.81032 0.0
H1013 H 0.64452 0.37076 0.82072 0.0
H1014 H 0.59429 0.34873 0.83753 0.0
S1015 S 0.55695 0.43428 0.7573 0.0
N1016 N 0.59524 0.43249 0.76039 0.0
N1017 N 0.54086 0.40909 0.77932 0.0
C1018 C 0.56691 0.39795 0.79028 0.0
C1019 C 0.5963 0.41071 0.78019 0.0
C1020 C 0.08299 0.94694 0.5806 0.0
C1021 C 0.09756 0.94203 0.61085 0.0
C1022 C 0.08589 0.97571 0.56857 0.0
C1023 C 0.10363 1.00213 0.58566 0.0
H1024 H 0.06877 0.92828 0.56592 0.0
H1025 H 0.07363 0.9772 0.5454 0.0
S1026 S 0.14981 1.00207 0.66467 0.0
N1027 N 0.13253 0.96713 0.65654 0.0
N1028 N 0.13795 1.01978 0.63449 0.0
C1029 C 0.11886 0.99738 0.61565 0.0
C1030 C 0.11586 0.9681 0.62791 0.0
C1031 C 0.47547 0.80919 0.8662 0.0
C1032 C 0.5012 0.83218 0.86274 0.0
C1033 C 0.44333 0.80944 0.85276 0.0
C1034 C 0.4351 0.83297 0.83565 0.0
H1035 H 0.48016 0.79071 0.87919 0.0
H1036 H 0.42473 0.79129 0.85634 0.0
S1037 S 0.49292 0.89873 0.81954 0.0
N1038 N 0.51509 0.87926 0.84038 0.0
N1039 N 0.45632 0.87963 0.81596 0.0
C1040 C 0.46067 0.85592 0.83215 0.0
C1041 C 0.49303 0.85556 0.84538 0.0
C1042 C 0.57651 0.22484 0.07816 0.0
C1043 C 0.58559 0.23178 0.11107 0.0
C1044 C 0.57714 0.19629 0.06251 0.0
C1045 C 0.58698 0.17243 0.07845 0.0
H1046 H 0.56832 0.24146 0.06424 0.0
H1047 H 0.56969 0.19295 0.03741 0.0
S1048 S 0.61546 0.17857 0.16414 0.0
N1049 N 0.60638 0.21123 0.1583 0.0
N1050 N 0.60739 0.15943 0.1296 0.0
C1051 C 0.59664 0.17937 0.11109 0.0
C1052 C 0.59597 0.20816 0.12697 0.0
C1053 C 0.22746 0.34685 0.38549 0.0
C1054 C 0.19617 0.33236 0.37296 0.0
C1055 C 0.25419 0.34784 0.36825 0.0
C1056 C 0.25181 0.33399 0.33736 0.0
H1057 H 0.2314 0.35801 0.4089 0.0
H1058 H 0.27721 0.35943 0.37961 0.0
S1059 S 0.17568 0.29252 0.29317 0.0
N1060 N 0.16502 0.30368 0.32694 0.0
N1061 N 0.21445 0.30489 0.29545 0.0
C1062 C 0.22071 0.3191 0.32471 0.0
C1063 C 0.19339 0.31848 0.3421 0.0
C1064 C 0.96794 0.08031 0.12555 0.0
C1065 C 0.9783 0.08887 0.15755 0.0
C1066 C 0.98988 0.08189 0.10371 0.0
C1067 C 1.02268 0.09184 0.11343 0.0
H1068 H 0.9433 0.07027 0.11771 0.0
H1069 H 0.98136 0.07332 0.0796 0.0
S1070 S 0.06036 0.12341 0.19308 0.0
N1071 N 1.02231 0.11273 0.19674 0.0
N1072 N 0.06352 0.11527 0.15578 0.0
C1073 C 1.0327 0.10329 0.14466 0.0
C1074 C 1.01044 0.10198 0.16672 0.0
C1075 C 0.33321 0.80604 0.43761 0.0
C1076 C 0.32894 0.77591 0.44311 0.0
C1077 C 0.33115 0.81509 0.40675 0.0
C1078 C 0.32391 0.79435 0.38021 0.0
H1079 H 0.33886 0.82275 0.45725 0.0
H1080 H 0.33548 0.83852 0.4037 0.0
S1081 S 0.30876 0.71262 0.38203 0.0
N1082 N 0.3162 0.72536 0.41934 0.0
N1083 N 0.31146 0.7421 0.36197 0.0
C1084 C 0.31866 0.76414 0.38558 0.0
C1085 C 0.32142 0.75501 0.4168 0.0
C1086 C 0.6255 0.98021 0.63771 0.0
C1087 C 0.59814 0.96778 0.65068 0.0
C1088 C 0.62345 0.99944 0.61404 0.0
C1089 C 0.594 1.00643 0.6022 0.0
H1090 H 0.64901 0.97771 0.64807 0.0
H1091 H 0.64539 1.01078 0.60673 0.0
S1092 S 0.51459 0.97246 0.62099 0.0
N1093 N 0.53999 0.95805 0.64447 0.0
N1094 N 0.53646 0.99476 0.59994 0.0
C1095 C 0.5661 0.99072 0.61133 0.0
C1096 C 0.56811 0.97105 0.63556 0.0
C1097 C 0.30677 0.4034 0.91922 0.0
C1098 C 0.32736 0.40472 0.94782 0.0
C1099 C 0.31146 0.38784 0.89096 0.0
C1100 C 0.33766 0.37332 0.88911 0.0
H1101 H 0.28673 0.41478 0.91853 0.0
H1102 H 0.29477 0.38796 0.87005 0.0
S1103 S 0.3988 0.36926 0.95688 0.0
N1104 N 0.37478 0.38894 0.97205 0.0
N1105 N 0.3842 0.36095 0.91947 0.0
C1106 C 0.35833 0.37426 0.91758 0.0
C1107 C 0.35306 0.38949 0.94657 0.0
C1108 C 0.98673 1.0149 0.32809 0.0
C1109 C 0.99574 1.00372 0.30007 0.0
C1110 C 1.00148 1.00917 0.35723 0.0
C1111 C 1.0255 0.99189 0.35919 0.0
H1112 H 0.97006 1.03001 0.32761 0.0
H1113 H 0.99618 1.02076 0.37809 0.0
S1114 S 0.05143 0.95145 0.29275 0.0
N1115 N 1.0256 0.97016 0.27599 0.0
N1116 N 0.05281 0.95891 0.33099 0.0
C1117 C 1.03157 0.97751 0.33143 0.0
C1118 C 1.01691 0.98365 0.30176 0.0
C1119 C 0.34483 0.80243 0.65022 0.0
C1120 C 0.34909 0.77286 0.6472 0.0
C1121 C 0.34702 0.81773 0.68012 0.0
C1122 C 0.35343 0.80397 0.70801 0.0
H1123 H 0.3382 0.81332 0.62949 0.0
H1124 H 0.34205 0.83995 0.68139 0.0
S1125 S 0.37192 0.72875 0.71298 0.0
N1126 N 0.36418 0.7319 0.67494 0.0
N1127 N 0.36778 0.76041 0.73048 0.0
C1128 C 0.35973 0.77516 0.70519 0.0
C1129 C 0.35773 0.75972 0.67499 0.0
C1130 C 0.49116 1.00464 0.79152 0.0
C1131 C 0.51607 0.98842 0.79477 0.0
C1132 C 0.48031 1.01662 0.81798 0.0
C1133 C 0.49367 1.0124 0.84842 0.0
H1134 H 0.4824 1.01095 0.76872 0.0
H1135 H 0.46414 0.03204 0.81464 0.0
S1136 S 0.55143 0.96337 0.869 0.0
N1137 N 0.54776 0.96252 0.83029 0.0
N1138 N 0.52725 0.98498 0.88005 0.0
C1139 C 0.51439 0.99201 0.85171 0.0
C1140 C 0.52569 0.98003 0.82478 0.0
C1141 C 0.33899 0.42155 0.18015 0.0
C1142 C 0.3258 0.40681 0.15029 0.0
C1143 C 0.33892 0.40702 0.20868 0.0
C1144 C 0.32559 0.37667 0.2095 0.0
H1145 H 0.34981 0.4447 0.18159 0.0
H1146 H 0.3499 0.41981 0.23038 0.0
S1147 S 0.28726 0.32741 0.13828 0.0
N1148 N 0.2985 0.35954 0.12415 0.0
N1149 N 0.29832 0.33273 0.17661 0.0
C1150 C 0.31205 0.36178 0.1798 0.0
C1151 C 0.31215 0.37657 0.15079 0.0
C1152 C 0.29487 0.98937 0.12273 0.0
C1153 C 0.28441 0.96591 0.09924 0.0
C1154 C 0.27523 1.00939 0.12979 0.0
C1155 C 0.24463 1.0069 0.11321 0.0
H1156 H 0.319 0.99305 0.13483 0.0
H1157 H 0.2848 1.02796 0.14692 0.0
S1158 S 0.20463 0.94752 0.05214 0.0
N1159 N 0.24039 0.93963 0.06164 0.0
N1160 N 0.20353 0.97767 0.07445 0.0
C1161 C 0.23311 0.98247 0.09109 0.0
C1162 C 0.25298 0.96179 0.08425 0.0
C1163 C 0.75555 0.62612 0.02471 0.0
C1164 C 0.76583 0.65652 0.03465 0.0
C1165 C 0.7238 0.61102 0.02632 0.0
C1166 C 0.70073 0.62527 0.03872 0.0
H1167 H 0.77214 0.6138 1.01542 0.0
H1168 H 0.71748 0.58781 1.01824 0.0
S1169 S 0.71463 0.70476 0.06757 0.0
N1170 N 0.74919 0.70016 0.05678 0.0
N1171 N 0.69094 0.67219 0.06041 0.0
C1172 C 0.71077 0.65562 0.04866 0.0
C1173 C 0.74272 0.67103 0.04649 0.0
C1174 C 0.83751 0.52694 0.3939 0.0
C1175 C 0.84215 0.55733 0.38977 0.0
C1176 C 0.85788 0.50932 0.38281 0.0
C1177 C 0.88362 0.52151 0.3673 0.0
H1178 H 0.81639 0.51612 0.40303 0.0
H1179 H 0.85129 0.48562 0.38338 0.0
S1180 S 0.91186 0.60094 0.35957 0.0
N1181 N 0.87867 0.59982 0.3758 0.0
N1182 N 0.91695 0.56638 0.35497 0.0
C1183 C 0.8912 0.55233 0.36723 0.0
C1184 C 0.87044 0.57036 0.3785 0.0
C1185 C 0.95885 0.53271 0.57253 0.0
C1186 C 0.9492 0.50392 0.55775 0.0
C1187 C 0.98948 0.54884 0.57126 0.0
C1188 C 1.01087 0.53689 0.55432 0.0
H1189 H 0.94211 0.54327 0.58401 0.0
H1190 H 0.99558 0.57143 0.58164 0.0
S1191 S 0.99813 0.46166 0.51387 0.0
N1192 N 0.96429 0.46329 0.52809 0.0
N1193 N 1.02157 0.49397 0.52465 0.0
C1194 C 1.00212 0.5076 0.54088 0.0
C1195 C 0.97127 0.49096 0.54287 0.0
C1196 C 0.4176 0.1512 0.3387 0.0
C1197 C 0.44223 0.1741 0.35315 0.0
C1198 C 0.39072 0.15748 0.32052 0.0
C1199 C 0.38768 0.18678 0.31659 0.0
H1200 H 0.42035 0.12833 0.33895 0.0
H1201 H 0.37354 0.13947 0.30765 0.0
S1202 S 0.44051 0.25424 0.35651 0.0
N1203 N 0.45836 0.22689 0.36742 0.0
N1204 N 0.40763 0.23862 0.33344 0.0
C1205 C 0.40996 0.20966 0.33407 0.0
C1206 C 0.4373 0.20333 0.35245 0.0
C1207 C 0.48111 0.14181 0.58057 0.0
C1208 C 0.46628 0.15292 0.55363 0.0
C1209 C 0.50847 0.12821 0.58019 0.0
C1210 C 0.52274 0.1239 0.55262 0.0
H1211 H 0.47144 0.14366 0.60262 0.0
H1212 H 0.51817 0.12044 0.60187 0.0
S1213 S 0.4945 0.14889 0.47512 0.0
N1214 N 0.46943 0.15889 0.4983 0.0
N1215 N 0.51952 0.13286 0.49723 0.0
C1216 C 0.50831 0.13493 0.52539 0.0
C1217 C 0.48072 0.14945 0.52597 0.0
C1218 C 0.80382 0.70231 0.34664 0.0
C1219 C 0.77272 0.69908 0.35484 0.0
C1220 C 0.81839 0.7285 0.33538 0.0
C1221 C 0.80248 0.75254 0.33208 0.0
H1222 H 0.81662 0.68408 0.34779 0.0
H1223 H 0.84201 0.72956 0.32851 0.0
S1224 S 0.72212 0.75652 0.3543 0.0
N1225 N 0.7275 0.72294 0.36159 0.0
N1226 N 0.75481 0.77223 0.34072 0.0
C1227 C 0.7719 0.75007 0.34169 0.0
C1228 C 0.75704 0.72334 0.35299 0.0
C1229 C 0.98799 0.54352 0.8227 0.0
C1230 C 1.02043 0.55326 0.81983 0.0
C1231 C 0.97449 0.51348 0.81997 0.0
C1232 C 0.99281 0.49176 0.81442 0.0
H1233 H 0.97272 0.55921 0.82729 0.0
H1234 H 0.94959 0.5072 0.82306 0.0
S1235 S 0.07851 0.50513 0.80393 0.0
N1236 N 0.07042 0.53852 0.81028 0.0
N1237 N 0.04482 0.48185 0.80515 0.0
C1238 C 1.02515 0.501 0.81105 0.0
C1239 C 1.03897 0.53177 0.81365 0.0
C1240 C 0.12989 0.96222 0.09612 0.0
C1241 C 0.12576 0.96527 0.12808 0.0
C1242 C 0.11598 0.97906 0.07435 0.0
C1243 C 0.09635 0.99841 0.08359 0.0
H1244 H 0.14561 0.9482 0.08824 0.0
H1245 H 0.12219 0.97832 0.05062 0.0
S1246 S 0.07358 1.01086 0.16312 0.0
N1247 N 0.09777 0.9868 0.16711 0.0
N1248 N 0.07065 1.01756 0.12568 0.0
C1249 C 0.08952 0.99957 0.1147 0.0
C1250 C 0.10444 0.98314 0.13712 0.0
C1251 C 0.91861 0.23248 0.85466 0.0
C1252 C 0.93894 0.22216 0.835 0.0
C1253 C 0.89342 0.24534 0.84194 0.0
C1254 C 0.88741 0.24737 0.80932 0.0
H1255 H 0.92488 0.23481 0.87997 0.0
H1256 H 0.88101 0.25677 0.85792 0.0
S1257 S 0.92603 0.21324 0.74783 0.0
N1258 N 0.94576 0.20694 0.78135 0.0
N1259 N 0.89791 0.23103 0.7575 0.0
C1260 C 0.9034 0.2319 0.78935 0.0
C1261 C 0.92929 0.21902 0.80228 0.0
C1262 C 0.6939 0.30045 0.7142 0.0
C1263 C 0.68792 0.32242 0.69419 0.0
C1264 C 0.68669 0.27053 0.70335 0.0
C1265 C 0.67395 0.26149 0.67199 0.0
H1266 H 0.70372 0.30629 0.73862 0.0
H1267 H 0.69136 0.25434 0.71955 0.0
S1268 S 0.65328 0.30995 0.61006 0.0
N1269 N 0.66795 0.33288 0.64141 0.0
N1270 N 0.65477 0.27654 0.62115 0.0
C1271 C 0.66782 0.28311 0.65168 0.0
C1272 C 0.67475 0.31359 0.66275 0.0
C1273 C 0.62608 0.75954 0.3504 0.0
C1274 C 0.61803 0.77451 0.37688 0.0
C1275 C 0.64572 0.7744 0.33061 0.0
C1276 C 0.65806 0.80474 0.33664 0.0
H1277 H 0.61641 0.73629 0.34443 0.0
H1278 H 0.65143 0.762 0.31049 0.0
S1279 S 0.64481 0.85414 0.40311 0.0
N1280 N 0.62451 0.82139 0.40855 0.0
N1281 N 0.66157 0.84931 0.37097 0.0
C1282 C 0.651 0.81991 0.36345 0.0
C1283 C 0.631 0.80476 0.38374 0.0
C1284 C 0.10293 0.23109 0.50953 0.0
C1285 C 0.10227 0.23443 0.4767 0.0
C1286 C 0.10116 0.20289 0.52279 0.0
C1287 C 0.09921 0.17564 0.50445 0.0
H1288 H 0.10464 0.25059 0.52541 0.0
H1289 H 0.10183 0.20262 0.54803 0.0
S1290 S 0.09702 0.17079 0.41725 0.0
N1291 N 0.09925 0.20644 0.4264 0.0
N1292 N 0.09692 0.15504 0.45074 0.0
C1293 C 0.09879 0.17874 0.47166 0.0
C1294 C 0.10001 0.20732 0.45813 0.0
C1295 C 0.68782 0.3363 0.24483 0.0
C1296 C 0.68368 0.34539 0.21391 0.0
C1297 C 0.71857 0.33654 0.26164 0.0
C1298 C 0.74714 0.34634 0.24878 0.0
H1299 H 0.66701 0.32849 0.25611 0.0
H1300 H 0.71991 0.3291 0.28509 0.0
S1301 S 0.7503 0.3722 0.16857 0.0
N1302 N 0.71176 0.36419 0.17129 0.0
N1303 N 0.76852 0.36504 0.20244 0.0
C1304 C 0.74328 0.3556 0.21795 0.0
C1305 C 0.71206 0.35503 0.20076 0.0
C1306 C 0.60386 0.95885 0.94642 0.0
C1307 C 0.60821 0.93483 0.96489 0.0
C1308 C 0.60116 0.9876 0.95937 0.0
C1309 C 0.60365 0.99524 0.99213 0.0
H1310 H 0.60234 0.95543 0.92112 0.0
H1311 H 0.59768 1.00426 0.94328 0.0
S1312 S 0.61463 0.94155 0.05225 0.0
N1313 N 0.61393 0.92168 0.01876 0.0
N1314 N 0.61037 0.97497 0.0429 0.0
C1315 C 0.60813 0.97155 1.01108 0.0
C1316 C 0.61 0.94191 0.99773 0.0
C1317 C 0.96954 0.80654 0.72706 0.0
C1318 C 0.98965 0.83246 0.71971 0.0
C1319 C 0.94216 0.80714 0.74284 0.0
C1320 C 0.93319 0.83375 0.75352 0.0
H1321 H 0.97485 0.78514 0.72026 0.0
H1322 H 0.92798 0.78625 0.74704 0.0
S1323 S 0.97686 0.90846 0.74089 0.0
N1324 N 0.99747 0.88599 0.72453 0.0
N1325 N 0.94736 0.88721 0.75478 0.0
C1326 C 0.95312 0.85996 0.74659 0.0
C1327 C 0.9807 0.85932 0.72969 0.0
C1328 C 0.1993 0.09382 0.96573 0.0
C1329 C 0.18665 0.08306 0.93479 0.0
C1330 C 0.18022 0.09056 0.99005 0.0
C1331 C 0.14812 0.07603 0.9842 0.0
H1332 H 0.22357 0.10591 0.97092 0.0
H1333 H 0.19055 0.10002 1.01346 0.0
S1334 S 0.10514 0.04093 0.90749 0.0
N1335 N 0.14117 0.05519 0.89984 0.0
N1336 N 0.1054 0.0489 0.94547 0.0
C1337 C 0.13583 0.06376 0.95358 0.0
C1338 C 0.1551 0.06734 0.92887 0.0
C1339 C 0.84709 0.34832 0.64238 0.0
C1340 C 0.86836 0.37518 0.64176 0.0
C1341 C 0.84582 0.33333 0.66984 0.0
C1342 C 0.86594 0.34432 0.69793 0.0
H1343 H 0.83021 0.33938 0.62189 0.0
H1344 H 0.82799 0.31346 0.6693 0.0
S1345 S 0.9281 0.4124 0.70818 0.0
N1346 N 0.91174 0.41105 0.67127 0.0
N1347 N 0.9094 0.38286 0.72265 0.0
C1348 C 0.88864 0.37024 0.69715 0.0
C1349 C 0.8898 0.38566 0.66919 0.0
C1350 C 0.60319 0.17462 0.459 0.0
C1351 C 0.62135 0.16857 0.43494 0.0
C1352 C 0.60828 0.16328 0.4882 0.0
C1353 C 0.63162 0.1458 0.49381 0.0
H1354 H 0.58244 0.18477 0.45409 0.0
H1355 H 0.59134 0.16505 0.50473 0.0
S1356 S 0.69331 0.13391 0.44376 0.0
N1357 N 0.67 0.15231 0.42266 0.0
N1358 N 0.67839 0.12991 0.47728 0.0
C1359 C 0.65347 0.14431 0.47238 0.0
C1360 C 0.64879 0.15634 0.44294 0.0
C1361 C 0.83513 0.74289 0.15976 0.0
C1362 C 0.86023 0.75225 0.14184 0.0
C1363 C 0.83194 0.75814 0.18866 0.0
C1364 C 0.85432 0.7832 0.20221 0.0
H1365 H 0.81754 0.72333 0.15132 0.0
H1366 H 0.81207 0.74964 0.20093 0.0
S1367 S 0.92466 0.81753 0.16547 0.0
N1368 N 0.9076 0.78923 0.14011 0.0
N1369 N 0.90253 0.81694 0.19451 0.0
C1370 C 0.87958 0.79291 0.18458 0.0
C1371 C 0.88228 0.77782 0.15458 0.0
C1372 C 0.2052 0.05966 0.77493 0.0
C1373 C 0.23705 0.07484 0.77985 0.0
C1374 C 0.18295 0.06729 0.75203 0.0
C1375 C 0.19182 0.09 0.73271 0.0
H1376 H 0.19673 0.04329 0.79054 0.0
H1377 H 0.15828 0.05639 0.75069 0.0
S1378 S 0.2738 0.13137 0.73064 0.0
N1379 N 0.27747 0.11025 0.76002 0.0
N1380 N 0.23573 0.12375 0.71591 0.0
C1381 C 0.22427 0.10311 0.73501 0.0
C1382 C 0.24694 0.09556 0.75867 0.0
C1383 C 0.83276 0.42527 0.42415 0.0
C1384 C 0.83446 0.4089 0.45084 0.0
C1385 C 0.83137 0.41198 0.39351 0.0
C1386 C 0.83131 0.38157 0.38789 0.0
H1387 H 0.8331 0.44881 0.42688 0.0
H1388 H 0.83073 0.42589 0.37411 0.0
S1389 S 0.83411 0.32831 0.44941 0.0
N1390 N 0.83517 0.36027 0.46931 0.0
N1391 N 0.83226 0.33526 0.41209 0.0
C1392 C 0.83238 0.36478 0.41434 0.0
C1393 C 0.83403 0.37841 0.4456 0.0
C1394 C 0.58783 0.15624 0.2541 0.0
C1395 C 0.56015 0.14116 0.26455 0.0
C1396 C 0.60423 0.14194 0.23352 0.0
C1397 C 0.59345 0.11209 0.22276 0.0
H1398 H 0.59712 0.17916 0.26229 0.0
H1399 H 0.62519 0.15449 0.22565 0.0
S1400 S 0.52514 0.06152 0.2472 0.0
N1401 N 0.52439 0.09399 0.26512 0.0
N1402 N 0.55562 0.06702 0.22683 0.0
C1403 C 0.56652 0.09644 0.23405 0.0
C1404 C 0.54964 0.11104 0.25471 0.0
C1405 C 0.84284 0.74797 0.91317 0.0
C1406 C 0.86469 0.75966 0.94015 0.0
C1407 C 0.84042 0.76282 0.885 0.0
C1408 C 0.86038 0.78999 0.88106 0.0
H1409 H 0.82684 0.72715 0.91388 0.0
H1410 H 0.82234 0.75279 0.86596 0.0
S1411 S 0.92201 0.83087 0.94415 0.0
N1412 N 0.90653 0.80122 0.96072 0.0
N1413 N 0.90288 0.82805 0.90813 0.0
C1414 C 0.88234 0.80205 0.90791 0.0
C1415 C 0.88434 0.78722 0.93699 0.0
C1416 C 0.90335 0.14711 0.04356 0.0
C1417 C 0.89557 0.17174 0.0287 0.0
C1418 C 0.91977 0.12761 0.02923 0.0
C1419 C 0.92955 0.13197 0.99953 0.0
H1420 H 0.89577 0.14215 0.06613 0.0
H1421 H 0.92491 0.10889 0.04163 0.0
S1422 S 0.9184 0.19448 0.95175 0.0
N1423 N 0.90109 0.20054 0.98329 0.0
N1424 N 0.93262 0.16383 0.95657 0.0
C1425 C 0.9237 0.15732 0.98503 0.0
C1426 C 0.90663 0.17724 0.99959 0.0
C1427 C 0.45571 0.52331 0.06974 0.0
C1428 C 0.43445 0.51652 0.04148 0.0
C1429 C 0.488 0.53789 0.07025 0.0
C1430 C 0.5011 0.54605 0.04249 0.0
H1431 H 0.44727 0.51766 0.09177 0.0
H1432 H 0.50296 0.54249 0.09272 0.0
S1433 S 0.45627 0.53257 0.96199 0.0
N1434 N 0.42981 0.51902 0.98476 0.0
N1435 N 0.48947 0.54544 0.9858 0.0
C1436 C 0.48016 0.539 1.01414 0.0
C1437 C 0.44734 0.52461 1.01363 0.0
C1438 C 0.33953 0.60735 0.76525 0.0
C1439 C 0.36838 0.60512 0.78333 0.0
C1440 C 0.32191 0.62859 0.77388 0.0
C1441 C 0.33231 0.64792 0.80107 0.0
H1442 H 0.33175 0.59427 0.74302 0.0
H1443 H 0.30115 0.63121 0.75814 0.0
S1444 S 0.4029 0.64741 0.85939 0.0
N1445 N 0.40402 0.62109 0.83198 0.0
N1446 N 0.3708 0.66112 0.8481 0.0
C1447 C 0.35925 0.64391 0.821 0.0
C1448 C 0.37734 0.62242 0.81213 0.0
C1449 C 0.2081 0.68729 0.51791 0.0
C1450 C 0.2376 0.67903 0.52673 0.0
C1451 C 0.17968 0.6665 0.51457 0.0
C1452 C 0.17964 0.63673 0.52025 0.0
H1453 H 0.2069 0.70996 0.51355 0.0
H1454 H 0.15749 0.67411 0.50833 0.0
S1455 S 0.25067 0.60354 0.54305 0.0
N1456 N 0.26517 0.63873 0.5403 0.0
N1457 N 0.21166 0.5999 0.53433 0.0
C1458 C 0.20899 0.62809 0.52871 0.0
C1459 C 0.23798 0.64917 0.53186 0.0
C1460 C 0.71585 0.98554 0.82203 0.0
C1461 C 0.69176 0.96158 0.80917 0.0
C1462 C 0.74575 0.98112 0.83558 0.0
C1463 C 0.75271 0.95257 0.83688 0.0
H1464 H 0.71205 1.00803 0.82057 0.0
H1465 H 0.76395 1.00023 0.84405 0.0
S1466 S 0.69763 0.88243 0.8075 0.0
N1467 N 0.67644 0.90828 0.79991 0.0
N1468 N 0.7328 0.8999 0.82487 0.0
C1469 C 0.72837 0.92835 0.82546 0.0
C1470 C 0.69784 0.93287 0.81177 0.0
C1471 C 0.74515 0.03425 0.5553 0.0
C1472 C 0.74123 1.00341 0.54723 0.0
C1473 C 0.71879 0.04934 0.55576 0.0
C1474 C 0.68663 0.03478 0.54754 0.0
H1475 H 0.76899 0.04701 0.5616 0.0
H1476 H 0.72381 0.07287 0.56233 0.0
S1477 S 0.66226 0.95408 0.52467 0.0
N1478 N 0.70158 0.95902 0.53118 0.0
N1479 N 0.65301 0.98693 0.53135 0.0
C1480 C 0.68239 1.00397 0.53934 0.0
C1481 C 0.70918 0.98854 0.53938 0.0
C1482 C 0.39078 0.45815 0.75153 0.0
C1483 C 0.41879 0.46084 0.73711 0.0
C1484 C 0.37834 0.4319 0.76384 0.0
C1485 C 0.39367 0.40744 0.76265 0.0
H1486 H 0.37826 0.47649 0.75335 0.0
H1487 H 0.35678 0.43101 0.77485 0.0
S1488 S 0.46746 0.40279 0.72696 0.0
N1489 N 0.46133 0.43662 0.72186 0.0
N1490 N 0.438 0.38718 0.74534 0.0
C1491 C 0.42162 0.40967 0.74814 0.0
C1492 C 0.43412 0.43637 0.73522 0.0
C1493 C 0.16535 0.58949 0.2463 0.0
C1494 C 0.13381 0.58553 0.231 0.0
C1495 C 0.18545 0.61722 0.25013 0.0
C1496 C 0.17478 0.64226 0.23921 0.0
H1497 H 0.17483 0.57098 0.25535 0.0
H1498 H 0.20945 0.61913 0.2621 0.0
S1499 S 0.09497 0.64431 0.19684 0.0
N1500 N 0.09327 0.60938 0.20418 0.0
N1501 N 0.13112 0.66156 0.21179 0.0
C1502 C 0.14347 0.63882 0.22376 0.0
C1503 C 0.12301 0.61046 0.21952 0.0
C1504 C 0.57534 0.68359 0.48168 0.0
C1505 C 0.5477 0.69522 0.4853 0.0
C1506 C 0.5867 0.6653 0.50326 0.0
C1507 C 0.57041 0.65762 0.52878 0.0
H1508 H 0.5877 0.68789 0.46137 0.0
H1509 H 0.60674 0.65523 0.49843 0.0
S1510 S 0.49888 0.68453 0.55052 0.0
N1511 N 0.50618 0.70029 0.51794 0.0
N1512 N 0.52671 0.6644 0.55799 0.0
C1513 C 0.54376 0.67034 0.53368 0.0
C1514 C 0.53262 0.68964 0.51206 0.0
C1515 C 0.77457 0.40299 0.70855 0.0
C1516 C 0.7744 0.43073 0.72404 0.0
C1517 C 0.78867 0.38188 0.724 0.0
C1518 C 0.80386 0.3881 0.75499 0.0
H1519 H 0.76096 0.39631 0.68561 0.0
H1520 H 0.78677 0.36019 0.71194 0.0
S1521 S 0.81585 0.4592 0.80336 0.0
N1522 N 0.79433 0.46456 0.77047 0.0
N1523 N 0.82251 0.4251 0.79889 0.0
C1524 C 0.80717 0.41672 0.76941 0.0
C1525 C 0.79213 0.43807 0.75397 0.0
C1526 C 0.04267 0.36706 0.88742 0.0
C1527 C 1.03719 0.34472 0.90816 0.0
C1528 C 0.04495 0.39689 0.89757 0.0
C1529 C 0.04204 0.40554 0.92886 0.0
H1530 H 0.04561 0.36157 0.8632 0.0
H1531 H 0.04976 0.41338 0.88099 0.0
S1532 S 1.02541 0.35614 0.99213 0.0
N1533 N 1.02739 0.33364 0.96136 0.0
N1534 N 1.03165 0.3897 0.98008 0.0
C1535 C 1.03578 0.38357 0.94965 0.0
C1536 C 1.0333 0.35318 0.93938 0.0
C1537 C 0.11291 0.89493 0.30709 0.0
C1538 C 0.11506 0.89936 0.27522 0.0
C1539 C 0.08372 0.88362 0.31717 0.0
C1540 C 0.05572 0.8764 0.29575 0.0
H1541 H 0.134 0.89966 0.32436 0.0
H1542 H 0.08308 0.88034 0.34186 0.0
S1543 S 0.04794 0.88419 0.20997 0.0
N1544 N 0.08611 0.89628 0.22241 0.0
N1545 N 1.03149 0.87447 0.24149 0.0
C1546 C 0.05728 0.88119 0.26398 0.0
C1547 C 0.08688 0.8929 0.25369 0.0
C1548 C 0.58572 0.44104 0.07924 0.0
C1549 C 0.59577 0.43708 0.11125 0.0
C1550 C 0.58873 0.46961 0.06664 0.0
C1551 C 0.60213 0.4968 0.08487 0.0
H1552 H 0.57505 0.42174 0.0635 0.0
H1553 H 0.58007 0.47028 0.04206 0.0
S1554 S 0.63469 0.49988 0.16961 0.0
N1555 N 0.62133 0.46425 0.16038 0.0
N1556 N 0.6269 0.51644 0.13736 0.0
C1557 C 0.6127 0.49307 0.1168 0.0
C1558 C 0.60959 0.46401 0.12962 0.0
C1559 C 0.97673 0.31132 0.36441 0.0
C1560 C 1.00126 0.33653 0.36595 0.0
C1561 C 0.94475 0.31131 0.3504 0.0
C1562 C 0.93545 0.33668 0.33773 0.0
H1563 H 0.98234 0.29125 0.37359 0.0
H1564 H 0.92712 0.29132 0.34981 0.0
S1565 S 0.98993 0.40886 0.33676 0.0
N1566 N 1.01293 0.3878 0.35386 0.0
N1567 N 0.95438 0.3878 0.32839 0.0
C1568 C 0.9598 0.36196 0.3396 0.0
C1569 C 0.99205 0.36189 0.3534 0.0
C1570 C 0.06945 0.72689 0.57772 0.0
C1571 C 0.08666 0.73743 0.60781 0.0
C1572 C 0.06961 0.69789 0.56285 0.0
C1573 C 0.08728 0.67739 0.57674 0.0
H1574 H 0.05487 0.74078 0.56581 0.0
H1575 H 0.0555 0.69148 0.54014 0.0
S1576 S 0.13802 0.69398 0.65457 0.0
N1577 N 0.1227 0.72405 0.65008 0.0
N1578 N 0.12365 0.67175 0.62269 0.0
C1579 C 0.1051 0.68816 0.60641 0.0
C1580 C 0.10459 0.71721 0.62159 0.0
C1581 C 0.72795 0.84458 0.8833 0.0
C1582 C 0.69686 0.82947 0.87088 0.0
C1583 C 0.75479 0.84587 0.86612 0.0
C1584 C 0.75273 0.83178 0.83539 0.0
H1585 H 0.73166 0.85597 0.90658 0.0
H1586 H 0.77764 0.85786 0.87741 0.0
S1587 S 0.67731 0.78841 0.79165 0.0
N1588 N 0.66632 0.79979 0.82519 0.0
N1589 N 0.71593 0.80151 0.79388 0.0
C1590 C 0.72187 0.81616 0.82292 0.0
C1591 C 0.69443 0.81527 0.84021 0.0
C1592 C 0.4962 0.61824 0.66229 0.0
C1593 C 0.46553 0.60093 0.65478 0.0
C1594 C 0.51929 0.61736 0.642 0.0
C1595 C 0.51228 0.59928 0.6136 0.0
H1596 H 0.50341 0.63027 0.68518 0.0
H1597 H 0.54327 0.62928 0.64976 0.0
S1598 S 0.43279 0.55581 0.58017 0.0
N1599 N 0.42753 0.56968 0.61507 0.0
N1600 N 0.47047 0.56836 0.57637 0.0
C1601 C 0.48046 0.5849 0.60419 0.0
C1602 C 0.45714 0.58569 0.62496 0.0
C1603 C 0.83328 0.31014 0.93428 0.0
C1604 C 0.8285 0.28004 0.94003 0.0
C1605 C 0.83222 0.31898 0.90332 0.0
C1606 C 0.82543 0.29807 0.87693 0.0
H1607 H 0.83855 0.32696 0.95381 0.0
H1608 H 0.83692 0.34236 0.90007 0.0
S1609 S 0.80951 0.21638 0.87938 0.0
N1610 N 0.81595 0.22938 0.91661 0.0
N1611 N 0.81303 0.24571 0.85909 0.0
C1612 C 0.8197 0.26791 0.88254 0.0
C1613 C 0.82151 0.25899 0.91386 0.0
C1614 C 0.06348 0.47551 0.13904 0.0
C1615 C 0.09282 0.46858 0.15188 0.0
C1616 C 0.06212 0.49465 0.11497 0.0
C1617 C 0.09 0.50693 0.10299 0.0
H1618 H 0.04202 0.4685 0.14966 0.0
H1619 H 1.0399 0.50191 0.10784 0.0
S1620 S 0.17036 0.48853 0.12131 0.0
N1621 N 0.14853 0.46977 0.14516 0.0
N1622 N 0.146 0.50617 0.10058 0.0
C1623 C 0.11831 0.4968 0.11237 0.0
C1624 C 0.11968 0.47721 0.13653 0.0
C1625 C 0.8431 0.88553 0.43744 0.0
C1626 C 0.82336 0.90702 0.43881 0.0
C1627 C 0.84655 0.87004 0.40849 0.0
C1628 C 0.83039 0.87485 0.37895 0.0
H1629 H 0.85672 0.88107 0.45886 0.0
H1630 H 0.86241 0.85422 0.40937 0.0
S1631 S 0.77414 0.92737 0.369 0.0
N1632 N 0.78629 0.93105 0.40715 0.0
N1633 N 0.79271 0.90249 0.35399 0.0
C1634 C 0.81005 0.89578 0.38017 0.0
C1635 C 0.80662 0.91158 0.40951 0.0
C1636 C 0.56818 0.55656 0.77797 0.0
C1637 C 0.54459 0.57413 0.77861 0.0
C1638 C 0.59006 0.55592 0.80471 0.0
C1639 C 0.58909 0.57292 0.83281 0.0
H1640 H 0.56805 0.54131 0.75774 0.0
H1641 H 0.60607 0.54024 0.80421 0.0
S1642 S 0.53612 0.6272 0.84402 0.0
N1643 N 0.52519 0.61276 0.80748 0.0
N1644 N 0.5655 0.61099 0.85793 0.0
C1645 C 0.56799 0.59307 0.83239 0.0
C1646 C 0.54586 0.59377 0.80521 0.0
C1647 C 0.84571 0.25974 0.17195 0.0
C1648 C 0.84294 0.27489 0.14445 0.0
C1649 C 0.84898 0.27432 0.20204 0.0
C1650 C 0.84992 0.30489 0.20633 0.0
H1651 H 0.8446 0.23606 0.17035 0.0
H1652 H 0.85018 0.26129 0.22214 0.0
S1653 S 0.84499 0.35546 0.14256 0.0
N1654 N 0.84252 0.32267 0.12375 0.0
N1655 N 0.84887 0.35023 0.18041 0.0
C1656 C 0.84851 0.32069 0.17921 0.0
C1657 C 0.84501 0.3057 0.14833 0.0
C1658 C 0.98866 0.50364 0.29641 0.0
C1659 C 1.01548 0.4898 0.29951 0.0
C1660 C 0.97781 0.51564 0.32288 0.0
C1661 C 0.99313 0.51379 0.35319 0.0
H1662 H 0.97807 0.50812 0.27349 0.0
H1663 H 0.95988 0.52936 0.31944 0.0
S1664 S 0.05727 0.4713 0.37415 0.0
N1665 N 0.05171 0.46848 0.33536 0.0
N1666 N 1.03127 0.49098 0.3851 0.0
C1667 C 1.01621 0.49562 0.3567 0.0
C1668 C 1.02748 0.48364 0.32977 0.0
C1669 C 0.81751 0.87631 0.6465 0.0
C1670 C 0.8288 0.90709 0.64582 0.0
C1671 C 0.81744 0.86177 0.67508 0.0
C1672 C 0.82852 0.87689 0.70524 0.0
H1673 H 0.80871 0.86306 0.62454 0.0
H1674 H 0.80877 0.83817 0.67333 0.0
S1675 S 0.8603 0.95786 0.7177 0.0
N1676 N 0.85118 0.95206 0.67915 0.0
N1677 N 0.85098 0.92538 0.73173 0.0
C1678 C 0.83962 0.90774 0.7049 0.0
C1679 C 0.83977 0.92251 0.6758 0.0
C1680 C 0.79264 0.50138 0.62019 0.0
C1681 C 0.7817 0.4795 0.59511 0.0
C1682 C 0.77367 0.52158 0.62885 0.0
C1683 C 0.74341 0.52099 0.61224 0.0
H1684 H 0.81641 0.50338 0.63273 0.0
H1685 H 0.78334 0.53861 0.64767 0.0
S1686 S 0.70326 0.46737 0.54576 0.0
N1687 N 0.73811 0.45754 0.55488 0.0
N1688 N 0.70262 0.49596 0.57062 0.0
C1689 C 0.73174 0.49862 0.58783 0.0
C1690 C 0.75083 0.4777 0.57942 0.0
C1691 C 0.25958 0.12936 0.53475 0.0
C1692 C 0.26947 0.16017 0.54254 0.0
C1693 C 0.22778 0.11445 0.53644 0.0
C1694 C 0.20419 0.12931 0.54684 0.0
H1695 H 0.27651 0.11658 0.52697 0.0
H1696 H 0.22176 0.09093 0.52984 0.0
S1697 S 0.21703 0.20999 0.56998 0.0
N1698 N 0.25199 0.20481 0.56072 0.0
N1699 N 0.19362 0.17719 0.56459 0.0
C1700 C 0.21389 0.16005 0.55482 0.0
C1701 C 0.24593 0.17526 0.55251 0.0
C1702 C 0.35409 1.02748 0.90477 0.0
C1703 C 0.35905 0.05773 0.89986 0.0
C1704 C 0.37286 1.00896 0.89227 0.0
C1705 C 0.39711 1.02016 0.87447 0.0
H1706 H 0.33334 1.01739 0.915 0.0
H1707 H 0.36557 0.98536 0.89315 0.0
S1708 S 0.427 0.09901 0.86513 0.0
N1709 N 0.39565 0.09915 0.88401 0.0
N1710 N 0.43048 0.06405 0.85996 0.0
C1711 C 0.40582 0.05091 0.87436 0.0
C1712 C 0.3869 0.06986 0.88734 0.0
C1713 C 0.45378 0.03495 0.0619 0.0
C1714 C 0.44963 1.00399 0.06214 0.0
C1715 C 0.48383 0.05226 0.06181 0.0
C1716 C 0.51111 0.03945 0.06225 0.0
H1717 H 0.43344 0.04598 0.06064 0.0
H1718 H 0.48552 0.07581 0.06005 0.0
S1719 S 0.5141 0.9599 0.06597 0.0
N1720 N 0.47587 0.96145 0.06525 0.0
N1721 N 0.53279 0.9943 0.06523 0.0
C1722 C 0.50786 1.00882 0.06469 0.0
C1723 C 0.47699 0.991 0.06461 0.0
C1724 C 0.89973 0.6436 0.84234 0.0
C1725 C 0.92415 0.66696 0.85616 0.0
C1726 C 0.87017 0.64897 0.8289 0.0
C1727 C 0.8638 0.67776 0.82946 0.0
H1728 H 0.90432 0.62133 0.83939 0.0
H1729 H 0.85306 0.63086 0.81613 0.0
S1730 S 0.91768 0.74587 0.86685 0.0
N1731 N 0.93826 0.71933 0.87316 0.0
N1732 N 0.88297 0.72946 0.84752 0.0
C1733 C 0.88676 0.70082 0.84592 0.0
C1734 C 0.91685 0.69538 0.85952 0.0
C1735 C 0.97798 0.64126 0.07787 0.0
C1736 C 0.96263 0.65097 0.0503 0.0
C1737 C 1.00567 0.62802 0.07812 0.0
C1738 C 1.01973 0.62264 0.05063 0.0
H1739 H 0.96849 0.644 0.09991 0.0
H1740 H 1.01581 0.62137 0.10023 0.0
S1741 S 0.99005 0.64375 0.97168 0.0
N1742 N 0.96508 0.65451 0.99452 0.0
N1743 N 1.0156 0.62899 0.9946 0.0
C1744 C 1.00471 0.63223 0.0228 0.0
C1745 C 0.97686 0.64644 0.02272 0.0
C1746 C 0.26658 0.20966 0.8272 0.0
C1747 C 0.28123 0.19512 0.85112 0.0
C1748 C 0.28115 0.23729 0.81931 0.0
C1749 C 0.31091 0.25169 0.83503 0.0
H1750 H 0.24419 0.19923 0.81359 0.0
H1751 H 0.26915 0.24708 0.80015 0.0
S1752 S 0.35757 0.22485 0.90204 0.0
N1753 N 0.32597 0.19847 0.89239 0.0
N1754 N 0.3533 0.2505 0.87758 0.0
C1755 C 0.32506 0.23823 0.86019 0.0
C1756 C 0.31021 0.20995 0.86818 0.0
C1757 C 0.54154 1.02522 0.32948 0.0
C1758 C 0.53071 0.0474 0.34706 0.0
C1759 C 0.52587 0.99561 0.32725 0.0
C1760 C 0.49874 0.98725 0.3423 0.0
H1761 H 0.56159 0.03087 0.31647 0.0
H1762 H 0.53432 0.97934 0.31279 0.0
S1763 S 0.46296 0.03553 0.39429 0.0
N1764 N 0.49278 0.05792 0.38233 0.0
N1765 N 0.46331 1.0025 0.37747 0.0
C1766 C 0.48854 1.00877 0.36104 0.0
C1767 C 0.50454 0.03877 0.36361 0.0
C1768 C 0.60231 0.48356 0.65269 0.0
C1769 C 0.61939 0.46385 0.63926 0.0
C1770 C 0.58623 0.50134 0.63415 0.0
C1771 C 0.58699 0.50048 0.60147 0.0
H1772 H 0.60252 0.48634 0.67794 0.0
H1773 H 0.57497 0.51737 0.64592 0.0
S1774 S 0.62162 0.4476 0.55398 0.0
N1775 N 0.63112 0.44042 0.59072 0.0
N1776 N 0.60125 0.47471 0.55573 0.0
C1777 C 0.60094 0.47865 0.58726 0.0
C1778 C 0.61719 0.46017 0.60624 0.0
C1779 C 0.41806 0.72718 0.34858 0.0
C1780 C 0.44006 0.72164 0.32816 0.0
C1781 C 0.39158 0.73917 0.33765 0.0
C1782 C 0.38584 0.74485 0.30596 0.0
H1783 H 0.42361 0.72655 0.37375 0.0
H1784 H 0.37777 0.74723 0.35472 0.0
S1785 S 0.42881 0.7229 0.24134 0.0
N1786 N 0.44896 0.71418 0.27349 0.0
N1787 N 0.39864 0.73653 0.25305 0.0
C1788 C 0.40373 0.73375 0.28444 0.0
C1789 C 0.43099 0.72185 0.29556 0.0
C1790 C 0.19011 0.80095 0.20988 0.0
C1791 C 0.18827 0.82283 0.1887 0.0
C1792 C 0.18292 0.77098 0.19944 0.0
C1793 C 0.17412 0.7616 0.16746 0.0
H1794 H 0.19644 0.8069 0.23489 0.0
H1795 H 0.18373 0.75491 0.21656 0.0
S1796 S 0.16753 0.80979 0.10203 0.0
N1797 N 0.17779 0.83298 0.13388 0.0
N1798 N 0.165 0.77636 0.11437 0.0
C1799 C 0.17252 0.7831 0.14588 0.0
C1800 C 0.17954 0.81377 0.15648 0.0
C1801 C 0.14427 0.2722 0.88223 0.0
C1802 C 0.11896 0.24953 0.86923 0.0
C1803 C 0.16668 0.28515 0.86381 0.0
C1804 C 0.16472 0.2758 0.8318 0.0
H1805 H 0.14618 0.28088 0.90652 0.0
H1806 H 0.18532 0.30311 0.87455 0.0
S1807 S 0.10572 0.21482 0.78732 0.0
N1808 N 0.09493 0.21646 0.82295 0.0
N1809 N 0.13756 0.24098 0.7884 0.0
C1810 C 0.14053 0.25233 0.81875 0.0
C1811 C 0.11763 0.23903 0.83752 0.0
C1812 C 0.60261 0.72579 1.00618 0.0
C1813 C 0.60238 0.72947 0.97345 0.0
C1814 C 0.60074 0.69744 0.01918 0.0
C1815 C 0.59897 0.67026 1.00071 0.0
H1816 H 0.60404 0.74514 0.02221 0.0
H1817 H 0.60105 0.69699 0.04437 0.0
S1818 S 0.59879 0.66643 0.91373 0.0
N1819 N 0.60058 0.70196 0.92312 0.0
N1820 N 0.59788 0.65028 0.94694 0.0
C1821 C 0.5991 0.67372 0.968 0.0
C1822 C 0.60055 0.7025 0.95474 0.0
C1823 C 0.18855 0.83858 0.74321 0.0
C1824 C 0.18483 0.84884 0.7128 0.0
C1825 C 0.21913 0.8384 0.76019 0.0
C1826 C 0.24793 0.8489 0.74802 0.0
H1827 H 0.16756 0.83014 0.75394 0.0
H1828 H 0.22014 0.82998 0.78319 0.0
S1829 S 0.25213 0.87828 0.66946 0.0
N1830 N 0.2135 0.86973 0.67149 0.0
N1831 N 0.26995 0.86983 0.70293 0.0
C1832 C 0.24447 0.85943 0.71773 0.0
C1833 C 0.21343 0.85928 0.70037 0.0
C1834 C 0.11105 0.46441 0.44984 0.0
C1835 C 0.10988 0.43912 0.46753 0.0
C1836 C 0.10839 0.49315 0.46276 0.0
C1837 C 0.10505 0.49941 0.49478 0.0
H1838 H 0.11382 0.46206 0.42516 0.0
H1839 H 0.10929 0.51082 0.44724 0.0
S1840 S 0.09978 0.44195 0.55245 0.0
N1841 N 0.10409 0.42328 0.51966 0.0
N1842 N 0.10011 0.47642 0.54387 0.0
C1843 C 0.1039 0.47442 0.51294 0.0
C1844 C 0.10603 0.44488 0.49954 0.0
C1845 C 0.46864 0.30248 0.2315 0.0
C1846 C 0.48814 0.32815 0.22267 0.0
C1847 C 0.44145 0.30339 0.24764 0.0
C1848 C 0.43207 0.33014 0.25725 0.0
H1849 H 0.47428 0.28102 0.22562 0.0
H1850 H 0.42777 0.28264 0.25294 0.0
S1851 S 0.47406 0.40431 0.24059 0.0
N1852 N 0.49485 0.38156 0.225 0.0
N1853 N 0.44525 0.38343 0.25581 0.0
C1854 C 0.4514 0.35609 0.24881 0.0
C1855 C 0.47874 0.35509 0.23157 0.0
C1856 C 0.68299 0.62183 0.48385 0.0
C1857 C 0.7006 0.60241 0.47068 0.0
C1858 C 0.66094 0.61205 0.50403 0.0
C1859 C 0.65603 0.5827 0.51184 0.0
H1860 H 0.68402 0.64388 0.47617 0.0
H1861 H 0.64627 0.62704 0.51206 0.0
S1862 S 0.70112 0.52516 0.48953 0.0
N1863 N 0.71556 0.55394 0.47106 0.0
N1864 N 0.67407 0.53577 0.5098 0.0
C1865 C 0.67625 0.56415 0.50228 0.0
C1866 C 0.69876 0.57406 0.48149 0.0
C1867 C 0.3527 0.8421 0.14613 0.0
C1868 C 0.37456 0.86854 0.14522 0.0
C1869 C 0.34961 0.82847 0.17426 0.0
C1870 C 0.36836 0.84052 0.20277 0.0
H1871 H 0.33659 0.83259 0.1253 0.0
H1872 H 0.33134 0.80895 0.17384 0.0
S1873 S 0.4318 0.90765 0.21254 0.0
N1874 N 0.41735 0.90484 0.17493 0.0
N1875 N 0.41155 0.87929 0.22763 0.0
C1876 C 0.39181 0.86587 0.20178 0.0
C1877 C 0.39487 0.87985 0.17311 0.0
C1878 C 0.0888 0.66785 0.95595 0.0
C1879 C 0.10599 0.66289 0.93079 0.0
C1880 C 0.09727 0.65825 0.98544 0.0
C1881 C 0.12282 0.64315 0.99028 0.0
H1882 H 0.06704 0.6767 0.95219 0.0
H1883 H 0.08164 0.6597 1.00331 0.0
S1884 S 0.18087 0.63248 0.93553 0.0
N1885 N 0.15445 0.64843 0.91533 0.0
N1886 N 0.16913 0.62921 0.97058 0.0
C1887 C 0.14273 0.64178 0.96696 0.0
C1888 C 0.13465 0.65209 0.93716 0.0
C1889 C 0.38103 0.24682 0.67989 0.0
C1890 C 0.37253 0.2571 0.65018 0.0
C1891 C 0.37842 0.2623 0.70885 0.0
C1892 C 0.36642 0.2889 0.71026 0.0
H1893 H 0.38977 0.22623 0.68093 0.0
H1894 H 0.38527 0.25277 0.73045 0.0
S1895 S 0.341 0.32636 0.63978 0.0
N1896 N 0.35217 0.29664 0.62462 0.0
N1897 N 0.3465 0.32514 0.67836 0.0
C1898 C 0.35803 0.29969 0.68075 0.0
C1899 C 0.36129 0.28411 0.65113 0.0
C1900 C 0.69968 0.57229 0.26943 0.0
C1901 C 0.69037 0.57091 0.2997 0.0
C1902 C 0.67833 0.57678 0.24379 0.0
C1903 C 0.64708 0.58005 0.24761 0.0
H1904 H 0.72406 0.57155 0.26577 0.0
H1905 H 0.68682 0.57941 0.22116 0.0
S1906 S 0.60917 0.57369 0.32039 0.0
N1907 N 0.64616 0.56926 0.33092 0.0
N1908 N 0.6066 0.57869 0.28252 0.0
C1909 C 0.63666 0.57661 0.27698 0.0
C1910 C 0.65819 0.57166 0.3031 0.0
C1911 C 0.33585 0.92158 0.92752 0.0
C1912 C 0.33882 0.90437 0.95344 0.0
C1913 C 0.33404 0.90941 0.89637 0.0
C1914 C 0.33475 0.87933 0.88953 0.0
H1915 H 0.33541 0.94492 0.93125 0.0
H1916 H 0.33229 0.92386 0.87756 0.0
S1917 S 0.3415 0.82431 0.94877 0.0
N1918 N 0.34196 0.85547 0.96994 0.0
N1919 N 0.33825 0.83245 0.9118 0.0
C1920 C 0.33733 0.86175 0.91526 0.0
C1921 C 0.33945 0.87426 0.947 0.0
C1922 C 1.03334 0.64812 0.73868 0.0
C1923 C 0.05081 0.66997 0.76133 0.0
C1924 C 0.0485 0.63452 0.71654 0.0
C1925 C 0.08154 0.6426 0.71584 0.0
H1926 H 1.00822 0.63987 0.73935 0.0
H1927 H 1.03437 0.6167 0.70056 0.0
S1928 S 0.13689 0.70231 0.76624 0.0
N1929 N 0.10213 0.7017 0.77935 0.0
N1930 N 0.13053 0.6763 0.73687 0.0
C1931 C 0.09889 0.6659 0.73674 0.0
C1932 C 0.08346 0.67973 0.7595 0.0
C1933 C 0.37834 0.28975 0.44176 0.0
C1934 C 0.3678 0.25895 0.44344 0.0
C1935 C 0.37629 0.30371 0.41276 0.0
C1936 C 0.36328 0.28797 0.3833 0.0
H1937 H 0.38824 0.30343 0.46321 0.0
H1938 H 0.38451 0.32735 0.41365 0.0
S1939 S 0.33214 0.2068 0.37386 0.0
N1940 N 0.34411 0.21339 0.4119 0.0
N1941 N 0.33977 0.23893 0.35874 0.0
C1942 C 0.35285 0.25713 0.38476 0.0
C1943 C 0.35523 0.24296 0.41415 0.0
C1944 C 0.41468 0.64909 0.54904 0.0
C1945 C 0.4037 0.67139 0.53231 0.0
C1946 C 0.4306 0.62904 0.53493 0.0
C1947 C 0.4365 0.63046 0.50357 0.0
H1948 H 0.4097 0.64617 0.57292 0.0
H1949 H 0.43799 0.61197 0.54863 0.0
S1950 S 0.41729 0.68713 0.45069 0.0
N1951 N 0.40304 0.69565 0.48347 0.0
N1952 N 0.43359 0.65782 0.45711 0.0
C1953 C 0.42807 0.65396 0.4872 0.0
C1954 C 0.41157 0.67449 0.50157 0.0
C1955 C 0.95604 1.02867 0.56587 0.0
C1956 C 0.93653 1.01804 0.53723 0.0
C1957 C 0.98795 0.04443 0.56678 0.0
C1958 C 1.00254 0.04998 0.53915 0.0
H1959 H 0.9464 1.02536 0.58784 0.0
H1960 H 1.00147 0.05207 0.58955 0.0
S1961 S 0.96272 1.02561 0.45793 0.0
N1962 N 0.93516 1.01391 0.48037 0.0
N1963 N 0.99428 0.0423 0.4822 0.0
C1964 C 0.98344 0.03889 0.51047 0.0
C1965 C 0.9509 1.02338 0.5095 0.0
C1966 C 0.84287 0.10772 0.25651 0.0
C1967 C 0.87153 0.10293 0.27306 0.0
C1968 C 0.82814 0.13076 0.26644 0.0
C1969 C 0.84129 0.14951 0.2935 0.0
H1970 H 0.83255 0.0946 0.23481 0.0
H1971 H 0.80694 0.13461 0.25224 0.0
S1972 S 0.91392 0.14443 0.34709 0.0
N1973 N 0.91098 0.11733 0.31937 0.0
N1974 N 0.88315 0.16066 0.33796 0.0
C1975 C 0.86874 0.14386 0.31138 0.0
C1976 C 0.88392 0.12054 0.30116 0.0
C1977 C 0.73329 0.15501 0.02264 0.0
C1978 C 0.73193 0.1852 0.02102 0.0
C1979 C 0.70558 0.13353 0.02014 0.0
C1980 C 0.67535 0.14127 1.01557 0.0
H1981 H 0.756 0.14778 0.02628 0.0
H1982 H 0.70793 0.1107 0.02212 0.0
S1983 S 0.65848 0.2172 1.00964 0.0
N1984 N 0.69778 0.22172 1.01442 0.0
N1985 N 0.64548 0.18133 1.00957 0.0
C1986 C 0.67351 0.17134 1.01338 0.0
C1987 C 0.70185 0.1933 1.01619 0.0
C1988 C 0.21849 0.48952 0.31494 0.0
C1989 C 0.19259 0.46588 0.30661 0.0
C1990 C 0.24846 0.48475 0.32798 0.0
C1991 C 0.25377 0.45617 0.33329 0.0
H1992 H 0.21596 0.51188 0.31046 0.0
H1993 H 0.26787 0.50352 0.33311 0.0
S1994 S 0.19367 0.38689 0.31653 0.0
N1995 N 0.17394 0.41301 0.30589 0.0
N1996 N 0.23035 0.4039 0.32979 0.0
C1997 C 0.22777 0.43246 0.32624 0.0
C1998 C 0.19718 0.43735 0.31307 0.0
C1999 C 0.24322 0.53412 0.05842 0.0
C2000 C 0.23961 0.50349 0.04941 0.0
C2001 C 0.21676 0.54916 0.05786 0.0
C2002 C 0.18487 0.53479 0.04758 0.0
H2003 H 0.26685 0.54672 0.06637 0.0
H2004 H 0.22151 0.5725 0.06546 0.0
S2005 S 0.16152 0.45467 0.02108 0.0
N2006 N 0.20064 0.45949 0.03 0.0
N2007 N 0.15195 0.48735 0.028 0.0
C2008 C 0.18102 0.50421 0.03816 0.0
C2009 C 0.20786 0.4888 0.03935 0.0
C2010 C 0.92208 0.9292 0.22057 0.0
C2011 C 0.90137 0.94644 0.20617 0.0
C2012 C 0.91053 0.90549 0.23744 0.0
C2013 C 0.87787 0.89789 0.23987 0.0
H2014 H 0.94767 0.93547 0.22101 0.0
H2015 H 0.92733 0.89345 0.24916 0.0
S2016 S 0.8135 0.93384 0.20326 0.0
N2017 N 0.84663 0.95287 0.1933 0.0
N2018 N 0.82461 0.90772 0.22421 0.0
C2019 C 0.85668 0.91357 0.22364 0.0
C2020 C 0.86852 0.93796 0.20691 0.0
C2021 C 0.64923 0.09687 0.7074 0.0
C2022 C 0.63919 0.08299 0.73362 0.0
C2023 C 0.67083 0.12381 0.71112 0.0
C2024 C 0.68221 0.13853 0.74102 0.0
H2025 H 0.64113 0.0864 0.6839 0.0
H2026 H 0.67861 0.13334 0.69038 0.0
S2027 S 0.66389 0.11063 0.81728 0.0
N2028 N 0.64312 0.08507 0.79059 0.0
N2029 N 0.68272 0.13632 0.79748 0.0
C2030 C 0.67233 0.12475 0.76746 0.0
C2031 C 0.65104 0.09688 0.76375 0.0
loop_
_geom_bond_atom_site_label_1
_geom_bond_atom_site_label_2
_geom_bond_distance
_geom_bond_site_symmetry_2
_ccdc_geom_bond_type
C0 O1 1.291 1_655 S
C0 O3 1.153 1_655 S
O1 C0 1.291 1_455 S
O1 Cd2 2.228 . S
Cd2 O1 2.228 . S
Cd2 O6 2.273 . S
Cd2 O10 2.277 . S
O3 C0 1.153 1_455 S
O3 Cd4 2.203 . S
Cd4 O3 2.203 . S
Cd4 O6 2.411 . S
Cd4 O7 2.333 . S
Cd4 O8 2.352 . S
Cd4 O12 2.277 . S
Cd4 O13 2.356 . S
C5 O10 1.209 . S
C5 O12 1.226 . S
O6 Cd2 2.273 . S
O6 Cd4 2.411 . S
O6 C9 1.320 . S
O7 Cd4 2.333 . S
O7 C9 1.214 . S
O8 Cd4 2.352 . S
O8 C11 1.258 . S
C9 O6 1.320 . S
C9 O7 1.214 . S
O10 Cd2 2.277 . S
O10 C5 1.209 . S
C11 O8 1.258 . S
C11 O13 1.282 . S
O12 Cd4 2.277 . S
O12 C5 1.226 . S
O13 Cd4 2.356 . S
O13 C11 1.282 . S
C14 O15 1.306 1_655 S
C14 O17 1.160 1_655 S
O15 C14 1.306 1_455 S
O15 Cd16 2.228 . S
Cd16 O15 2.228 . S
Cd16 O20 2.273 . S
Cd16 O24 2.277 . S
O17 C14 1.160 1_455 S
O17 Cd18 2.203 . S
Cd18 O17 2.203 . S
Cd18 O20 2.411 . S
Cd18 O21 2.333 . S
Cd18 O22 2.352 . S
Cd18 O26 2.277 . S
Cd18 O27 2.356 . S
C19 O24 1.209 . S
C19 O26 1.226 . S
O20 Cd16 2.273 . S
O20 Cd18 2.411 . S
O20 C23 1.320 . S
O21 Cd18 2.333 . S
O21 C23 1.214 . S
O22 Cd18 2.352 . S
O22 C25 1.258 . S
C23 O20 1.320 . S
C23 O21 1.214 . S
O24 Cd16 2.277 . S
O24 C19 1.209 . S
C25 O22 1.258 . S
C25 O27 1.282 . S
O26 Cd18 2.277 . S
O26 C19 1.226 . S
O27 Cd18 2.356 . S
O27 C25 1.282 . S
C28 O29 1.306 . S
C28 O31 1.160 . S
O29 C28 1.306 . S
O29 Cd30 2.228 . S
Cd30 O29 2.228 . S
Cd30 O34 2.273 . S
Cd30 O38 2.277 . S
O31 C28 1.160 . S
O31 Cd32 2.203 . S
Cd32 O31 2.203 . S
Cd32 O34 2.411 . S
Cd32 O35 2.333 . S
Cd32 O36 2.352 . S
Cd32 O40 2.277 . S
Cd32 O41 2.356 . S
C33 O38 1.209 . S
C33 O40 1.226 . S
O34 Cd30 2.273 . S
O34 Cd32 2.411 . S
O34 C37 1.320 . S
O35 Cd32 2.333 . S
O35 C37 1.214 . S
O36 Cd32 2.352 . S
O36 C39 1.258 . S
C37 O34 1.320 . S
C37 O35 1.214 . S
O38 Cd30 2.277 . S
O38 C33 1.209 . S
C39 O36 1.258 . S
C39 O41 1.282 . S
O40 Cd32 2.277 . S
O40 C33 1.226 . S
O41 Cd32 2.356 . S
O41 C39 1.282 . S
C42 O43 1.306 . S
C42 O45 1.160 . S
O43 C42 1.306 . S
O43 Cd44 2.228 . S
Cd44 O43 2.228 . S
Cd44 O48 2.273 . S
Cd44 O52 2.277 . S
O45 C42 1.160 . S
O45 Cd46 2.203 . S
Cd46 O45 2.203 . S
Cd46 O48 2.411 . S
Cd46 O49 2.333 . S
Cd46 O50 2.352 . S
Cd46 O54 2.277 . S
Cd46 O55 2.356 . S
C47 O52 1.209 . S
C47 O54 1.226 . S
O48 Cd44 2.273 . S
O48 Cd46 2.411 . S
O48 C51 1.320 . S
O49 Cd46 2.333 . S
O49 C51 1.214 . S
O50 Cd46 2.352 . S
O50 C53 1.258 . S
C51 O48 1.320 . S
C51 O49 1.214 . S
O52 Cd44 2.277 . S
O52 C47 1.209 . S
C53 O50 1.258 . S
C53 O55 1.282 . S
O54 Cd46 2.277 . S
O54 C47 1.226 . S
O55 Cd46 2.356 . S
O55 C53 1.282 . S
C56 O57 1.306 . S
C56 O59 1.160 . S
O57 C56 1.306 . S
O57 Cd58 2.228 . S
Cd58 O57 2.228 . S
Cd58 O62 2.273 . S
Cd58 O66 2.277 . S
O59 C56 1.160 . S
O59 Cd60 2.203 . S
Cd60 O59 2.203 . S
Cd60 O62 2.411 . S
Cd60 O63 2.333 . S
Cd60 O64 2.352 . S
Cd60 O68 2.277 . S
Cd60 O69 2.356 . S
C61 O66 1.209 . S
C61 O68 1.226 . S
O62 Cd58 2.273 . S
O62 Cd60 2.411 . S
O62 C65 1.320 . S
O63 Cd60 2.333 . S
O63 C65 1.214 . S
O64 Cd60 2.352 . S
O64 C67 1.258 . S
C65 O62 1.320 . S
C65 O63 1.214 . S
O66 Cd58 2.277 . S
O66 C61 1.209 . S
C67 O64 1.258 . S
C67 O69 1.282 . S
O68 Cd60 2.277 . S
O68 C61 1.226 . S
O69 Cd60 2.356 . S
O69 C67 1.282 . S
C70 O71 1.306 . S
C70 O73 1.160 . S
O71 C70 1.306 . S
O71 Cd72 2.228 . S
Cd72 O71 2.228 . S
Cd72 O76 2.273 . S
Cd72 O80 2.277 . S
O73 C70 1.160 . S
O73 Cd74 2.203 . S
Cd74 O73 2.203 . S
Cd74 O76 2.411 . S
Cd74 O77 2.333 . S
Cd74 O78 2.352 . S
Cd74 O82 2.277 . S
Cd74 O83 2.356 . S
C75 O80 1.209 . S
C75 O82 1.226 . S
O76 Cd72 2.273 . S
O76 Cd74 2.411 . S
O76 C79 1.320 . S
O77 Cd74 2.333 . S
O77 C79 1.214 . S
O78 Cd74 2.352 . S
O78 C81 1.258 . S
C79 O76 1.320 . S
C79 O77 1.214 . S
O80 Cd72 2.277 . S
O80 C75 1.209 . S
C81 O78 1.258 . S
C81 O83 1.282 . S
O82 Cd74 2.277 . S
O82 C75 1.226 . S
O83 Cd74 2.356 . S
O83 C81 1.282 . S
C84 O85 1.306 . S
C84 O87 1.160 . S
O85 C84 1.306 . S
O85 Cd86 2.228 . S
Cd86 O85 2.228 . S
Cd86 O90 2.273 . S
Cd86 O94 2.277 . S
O87 C84 1.160 . S
O87 Cd88 2.203 . S
Cd88 O87 2.203 . S
Cd88 O90 2.411 . S
Cd88 O91 2.333 . S
Cd88 O92 2.352 . S
Cd88 O96 2.277 . S
Cd88 O97 2.356 . S
C89 O94 1.209 . S
C89 O96 1.226 . S
O90 Cd86 2.273 . S
O90 Cd88 2.411 . S
O90 C93 1.320 . S
O91 Cd88 2.333 . S
O91 C93 1.214 . S
O92 Cd88 2.352 . S
O92 C95 1.258 . S
C93 O90 1.320 . S
C93 O91 1.214 . S
O94 Cd86 2.277 . S
O94 C89 1.209 . S
C95 O92 1.258 . S
C95 O97 1.282 . S
O96 Cd88 2.277 . S
O96 C89 1.226 . S
O97 Cd88 2.356 . S
O97 C95 1.282 . S
C98 O99 1.306 . S
C98 O101 1.160 . S
O99 C98 1.306 . S
O99 Cd100 2.228 1_655 S
Cd100 O99 2.228 1_455 S
Cd100 O104 2.273 . S
Cd100 O108 2.277 . S
O101 C98 1.160 . S
O101 Cd102 2.203 1_655 S
Cd102 O101 2.203 1_455 S
Cd102 O104 2.411 . S
Cd102 O105 2.333 . S
Cd102 O106 2.352 1_455 S
Cd102 O110 2.277 . S
Cd102 O111 2.356 . S
C103 O108 1.209 . S
C103 O110 1.226 . S
O104 Cd100 2.273 . S
O104 Cd102 2.411 . S
O104 C107 1.320 . S
O105 Cd102 2.333 . S
O105 C107 1.214 . S
O106 Cd102 2.352 1_655 S
O106 C109 1.260 . S
C107 O104 1.320 . S
C107 O105 1.214 . S
O108 Cd100 2.277 . S
O108 C103 1.209 . S
C109 O106 1.260 . S
C109 O111 1.282 1_655 S
O110 Cd102 2.277 . S
O110 C103 1.226 . S
O111 Cd102 2.356 . S
O111 C109 1.282 1_455 S
C112 O113 1.306 . S
C112 O115 1.160 . S
O113 C112 1.306 . S
O113 Cd114 2.228 . S
Cd114 O113 2.228 . S
Cd114 O118 2.273 . S
Cd114 O122 2.277 . S
O115 C112 1.160 . S
O115 Cd116 2.203 . S
Cd116 O115 2.203 . S
Cd116 O118 2.411 . S
Cd116 O119 2.333 . S
Cd116 O120 2.352 . S
Cd116 O124 2.277 . S
Cd116 O125 2.356 . S
C117 O122 1.209 . S
C117 O124 1.226 . S
O118 Cd114 2.273 . S
O118 Cd116 2.411 . S
O118 C121 1.320 . S
O119 Cd116 2.333 . S
O119 C121 1.214 . S
O120 Cd116 2.352 . S
O120 C123 1.258 . S
C121 O118 1.320 . S
C121 O119 1.214 . S
O122 Cd114 2.277 . S
O122 C117 1.209 . S
C123 O120 1.258 . S
C123 O125 1.282 . S
O124 Cd116 2.277 . S
O124 C117 1.226 . S
O125 Cd116 2.356 . S
O125 C123 1.282 . S
C126 O127 1.306 . S
C126 O129 1.160 . S
O127 C126 1.306 . S
O127 Cd128 2.228 . S
Cd128 O127 2.228 . S
Cd128 O132 2.273 . S
Cd128 O136 2.277 . S
O129 C126 1.160 . S
O129 Cd130 2.203 . S
Cd130 O129 2.203 . S
Cd130 O132 2.411 . S
Cd130 O133 2.333 . S
Cd130 O134 2.352 . S
Cd130 O138 2.277 . S
Cd130 O139 2.356 . S
C131 O136 1.209 . S
C131 O138 1.226 . S
O132 Cd128 2.273 . S
O132 Cd130 2.411 . S
O132 C135 1.320 . S
O133 Cd130 2.333 . S
O133 C135 1.214 . S
O134 Cd130 2.352 . S
O134 C137 1.258 . S
C135 O132 1.320 . S
C135 O133 1.214 . S
O136 Cd128 2.277 . S
O136 C131 1.209 . S
C137 O134 1.258 . S
C137 O139 1.282 . S
O138 Cd130 2.277 . S
O138 C131 1.226 . S
O139 Cd130 2.356 . S
O139 C137 1.282 . S
C140 O141 1.306 . S
C140 O143 1.160 . S
O141 C140 1.306 . S
O141 Cd142 2.228 . S
Cd142 O141 2.228 . S
Cd142 O146 2.273 . S
Cd142 O150 2.277 . S
O143 C140 1.160 . S
O143 Cd144 2.203 . S
Cd144 O143 2.203 . S
Cd144 O146 2.411 . S
Cd144 O147 2.333 . S
Cd144 O148 2.352 . S
Cd144 O152 2.277 . S
Cd144 O153 2.356 . S
C145 O150 1.209 . S
C145 O152 1.226 . S
O146 Cd142 2.273 . S
O146 Cd144 2.411 . S
O146 C149 1.320 . S
O147 Cd144 2.333 . S
O147 C149 1.214 . S
O148 Cd144 2.352 . S
O148 C151 1.258 . S
C149 O146 1.320 . S
C149 O147 1.214 . S
O150 Cd142 2.277 . S
O150 C145 1.209 . S
C151 O148 1.258 . S
C151 O153 1.282 . S
O152 Cd144 2.277 . S
O152 C145 1.226 . S
O153 Cd144 2.356 . S
O153 C151 1.282 . S
C154 O155 1.306 . S
C154 O157 1.160 . S
O155 C154 1.306 . S
O155 Cd156 2.228 . S
Cd156 O155 2.228 . S
Cd156 O160 2.273 . S
Cd156 O164 2.277 . S
O157 C154 1.160 . S
O157 Cd158 2.203 . S
Cd158 O157 2.203 . S
Cd158 O160 2.411 . S
Cd158 O161 2.333 . S
Cd158 O162 2.352 . S
Cd158 O166 2.277 . S
Cd158 O167 2.356 . S
C159 O164 1.208 1_556 S
C159 O166 1.200 1_556 S
O160 Cd156 2.273 . S
O160 Cd158 2.411 . S
O160 C163 1.320 . S
O161 Cd158 2.333 . S
O161 C163 1.214 . S
O162 Cd158 2.352 . S
O162 C165 1.258 . S
C163 O160 1.320 . S
C163 O161 1.214 . S
O164 Cd156 2.277 . S
O164 C159 1.208 1_554 S
C165 O162 1.258 . S
C165 O167 1.282 . S
O166 Cd158 2.277 . S
O166 C159 1.200 1_554 S
O167 Cd158 2.356 . S
O167 C165 1.282 . S
C168 O169 1.306 . S
C168 O171 1.160 . S
O169 C168 1.306 . S
O169 Cd170 2.228 1_554 S
Cd170 O169 2.228 1_556 S
Cd170 O174 2.273 1_556 S
Cd170 O178 2.277 . S
O171 C168 1.160 . S
O171 Cd172 2.203 . S
Cd172 O171 2.203 . S
Cd172 O174 2.411 . S
Cd172 O175 2.333 . S
Cd172 O176 2.352 . S
Cd172 O180 2.277 1_554 S
Cd172 O181 2.356 . S
C173 O178 1.209 . S
C173 O180 1.226 . S
O174 Cd170 2.273 1_554 S
O174 Cd172 2.411 . S
O174 C177 1.320 . S
O175 Cd172 2.333 . S
O175 C177 1.214 . S
O176 Cd172 2.352 . S
O176 C179 1.258 . S
C177 O174 1.320 . S
C177 O175 1.214 . S
O178 Cd170 2.277 . S
O178 C173 1.209 . S
C179 O176 1.258 . S
C179 O181 1.282 . S
O180 Cd172 2.277 1_556 S
O180 C173 1.226 . S
O181 Cd172 2.356 . S
O181 C179 1.282 . S
C182 O183 1.306 . S
C182 O185 1.172 . S
O183 C182 1.306 . S
O183 Cd184 2.228 . S
Cd184 O183 2.228 . S
Cd184 O188 2.273 1_554 S
Cd184 O192 2.277 . S
O185 C182 1.172 . S
O185 Cd186 2.205 1_554 S
Cd186 O185 2.205 1_556 S
Cd186 O188 2.411 . S
Cd186 O189 2.333 . S
Cd186 O190 2.352 . S
Cd186 O194 2.277 1_556 S
Cd186 O195 2.356 . S
C187 O192 1.209 . S
C187 O194 1.226 . S
O188 Cd184 2.273 1_556 S
O188 Cd186 2.411 . S
O188 C191 1.320 . S
O189 Cd186 2.333 . S
O189 C191 1.214 . S
O190 Cd186 2.352 . S
O190 C193 1.258 . S
C191 O188 1.320 . S
C191 O189 1.214 . S
O192 Cd184 2.277 . S
O192 C187 1.209 . S
C193 O190 1.258 . S
C193 O195 1.282 . S
O194 Cd186 2.277 1_554 S
O194 C187 1.226 . S
O195 Cd186 2.356 . S
O195 C193 1.282 . S
C196 O197 1.306 . S
C196 O199 1.160 . S
O197 C196 1.306 . S
O197 Cd198 2.228 . S
Cd198 O197 2.228 . S
Cd198 O202 2.273 . S
Cd198 O206 2.277 . S
O199 C196 1.160 . S
O199 Cd200 2.203 . S
Cd200 O199 2.203 . S
Cd200 O202 2.411 . S
Cd200 O203 2.333 . S
Cd200 O204 2.352 . S
Cd200 O208 2.277 . S
Cd200 O209 2.356 . S
C201 O206 1.209 . S
C201 O208 1.226 . S
O202 Cd198 2.273 . S
O202 Cd200 2.411 . S
O202 C205 1.320 . S
O203 Cd200 2.333 . S
O203 C205 1.214 . S
O204 Cd200 2.352 . S
O204 C207 1.258 . S
C205 O202 1.320 . S
C205 O203 1.214 . S
O206 Cd198 2.277 . S
O206 C201 1.209 . S
C207 O204 1.258 . S
C207 O209 1.282 . S
O208 Cd200 2.277 . S
O208 C201 1.226 . S
O209 Cd200 2.356 . S
O209 C207 1.282 . S
C210 O211 1.306 . S
C210 O213 1.160 . S
O211 C210 1.306 . S
O211 Cd212 2.228 . S
Cd212 O211 2.228 . S
Cd212 O216 2.273 . S
Cd212 O220 2.277 . S
O213 C210 1.160 . S
O213 Cd214 2.203 . S
Cd214 O213 2.203 . S
Cd214 O216 2.411 . S
Cd214 O217 2.333 . S
Cd214 O218 2.352 . S
Cd214 O222 2.277 . S
Cd214 O223 2.356 . S
C215 O220 1.209 . S
C215 O222 1.226 . S
O216 Cd212 2.273 . S
O216 Cd214 2.411 . S
O216 C219 1.320 . S
O217 Cd214 2.333 . S
O217 C219 1.214 . S
O218 Cd214 2.352 . S
O218 C221 1.258 . S
C219 O216 1.320 . S
C219 O217 1.214 . S
O220 Cd212 2.277 . S
O220 C215 1.209 . S
C221 O218 1.258 . S
C221 O223 1.282 . S
O222 Cd214 2.277 . S
O222 C215 1.226 . S
O223 Cd214 2.356 . S
O223 C221 1.282 . S
C224 O225 1.306 1_545 S
C224 O227 1.160 . S
O225 C224 1.306 1_565 S
O225 Cd226 2.228 . S
Cd226 O225 2.228 . S
Cd226 O230 2.273 1_565 S
Cd226 O234 2.277 . S
O227 C224 1.160 . S
O227 Cd228 2.203 . S
Cd228 O227 2.203 . S
Cd228 O230 2.411 . S
Cd228 O231 2.333 . S
Cd228 O232 2.352 . S
Cd228 O236 2.277 1_545 S
Cd228 O237 2.356 . S
C229 O234 1.209 . S
C229 O236 1.226 . S
O230 Cd226 2.273 1_545 S
O230 Cd228 2.411 . S
O230 C233 1.320 . S
O231 Cd228 2.333 . S
O231 C233 1.214 . S
O232 Cd228 2.352 . S
O232 C235 1.258 . S
C233 O230 1.320 . S
C233 O231 1.214 . S
O234 Cd226 2.277 . S
O234 C229 1.209 . S
C235 O232 1.258 . S
C235 O237 1.282 . S
O236 Cd228 2.277 1_565 S
O236 C229 1.226 . S
O237 Cd228 2.356 . S
O237 C235 1.282 . S
C238 O239 1.306 . S
C238 O241 1.160 . S
O239 C238 1.306 . S
O239 Cd240 2.228 . S
Cd240 O239 2.228 . S
Cd240 O244 2.273 . S
Cd240 O248 2.277 . S
O241 C238 1.160 . S
O241 Cd242 2.203 . S
Cd242 O241 2.203 . S
Cd242 O244 2.411 . S
Cd242 O245 2.333 . S
Cd242 O246 2.352 . S
Cd242 O250 2.277 . S
Cd242 O251 2.356 . S
C243 O248 1.209 . S
C243 O250 1.226 . S
O244 Cd240 2.273 . S
O244 Cd242 2.411 . S
O244 C247 1.320 . S
O245 Cd242 2.333 . S
O245 C247 1.214 . S
O246 Cd242 2.352 . S
O246 C249 1.258 . S
C247 O244 1.320 . S
C247 O245 1.214 . S
O248 Cd240 2.277 . S
O248 C243 1.209 . S
C249 O246 1.258 . S
C249 O251 1.282 . S
O250 Cd242 2.277 . S
O250 C243 1.226 . S
O251 Cd242 2.356 . S
O251 C249 1.282 . S
C252 O253 1.306 . S
C252 O255 1.160 . S
O253 C252 1.306 . S
O253 Cd254 2.228 . S
Cd254 O253 2.228 . S
Cd254 O258 2.273 . S
Cd254 O262 2.277 . S
O255 C252 1.160 . S
O255 Cd256 2.203 . S
Cd256 O255 2.203 . S
Cd256 O258 2.411 . S
Cd256 O259 2.333 . S
Cd256 O260 2.352 . S
Cd256 O264 2.277 . S
Cd256 O265 2.356 . S
C257 O262 1.209 . S
C257 O264 1.226 . S
O258 Cd254 2.273 . S
O258 Cd256 2.411 . S
O258 C261 1.320 . S
O259 Cd256 2.333 . S
O259 C261 1.214 . S
O260 Cd256 2.352 . S
O260 C263 1.258 . S
C261 O258 1.320 . S
C261 O259 1.214 . S
O262 Cd254 2.277 . S
O262 C257 1.209 . S
C263 O260 1.258 . S
C263 O265 1.282 . S
O264 Cd256 2.277 . S
O264 C257 1.226 . S
O265 Cd256 2.356 . S
O265 C263 1.282 . S
C266 O267 1.306 . S
C266 O269 1.160 . S
O267 C266 1.306 . S
O267 Cd268 2.228 . S
Cd268 O267 2.228 . S
Cd268 O272 2.273 . S
Cd268 O276 2.277 . S
O269 C266 1.160 . S
O269 Cd270 2.203 . S
Cd270 O269 2.203 . S
Cd270 O272 2.411 . S
Cd270 O273 2.333 . S
Cd270 O274 2.352 1_545 S
Cd270 O278 2.277 . S
Cd270 O279 2.356 1_545 S
C271 O276 1.209 . S
C271 O278 1.226 . S
O272 Cd268 2.273 . S
O272 Cd270 2.411 . S
O272 C275 1.320 . S
O273 Cd270 2.333 . S
O273 C275 1.214 . S
O274 Cd270 2.352 1_565 S
O274 C277 1.258 . S
C275 O272 1.320 . S
C275 O273 1.214 . S
O276 Cd268 2.277 . S
O276 C271 1.209 . S
C277 O274 1.258 . S
C277 O279 1.282 . S
O278 Cd270 2.277 . S
O278 C271 1.226 . S
O279 Cd270 2.356 1_565 S
O279 C277 1.282 . S
C280 O281 1.306 . S
C280 O283 1.160 . S
O281 C280 1.306 . S
O281 Cd282 2.228 . S
Cd282 O281 2.228 . S
Cd282 O286 2.273 . S
Cd282 O290 2.277 . S
O283 C280 1.160 . S
O283 Cd284 2.203 . S
Cd284 O283 2.203 . S
Cd284 O286 2.411 . S
Cd284 O287 2.333 . S
Cd284 O288 2.352 1_554 S
Cd284 O292 2.277 . S
Cd284 O293 2.356 1_554 S
C285 O290 1.209 . S
C285 O292 1.226 . S
O286 Cd282 2.273 . S
O286 Cd284 2.411 . S
O286 C289 1.320 . S
O287 Cd284 2.333 . S
O287 C289 1.214 . S
O288 Cd284 2.352 1_556 S
O288 C291 1.258 . S
C289 O286 1.320 . S
C289 O287 1.214 . S
O290 Cd282 2.277 . S
O290 C285 1.209 . S
C291 O288 1.258 . S
C291 O293 1.282 . S
O292 Cd284 2.277 . S
O292 C285 1.226 . S
O293 Cd284 2.356 1_556 S
O293 C291 1.282 . S
C294 O295 1.306 . S
C294 O297 1.160 . S
O295 C294 1.306 . S
O295 Cd296 2.228 . S
Cd296 O295 2.228 . S
Cd296 O300 2.273 . S
Cd296 O304 2.272 1_455 S
O297 C294 1.160 . S
O297 Cd298 2.203 1_455 S
Cd298 O297 2.203 1_655 S
Cd298 O300 2.411 1_655 S
Cd298 O301 2.333 . S
Cd298 O302 2.352 1_655 S
Cd298 O306 2.277 . S
Cd298 O307 2.356 . S
C299 O304 1.213 . S
C299 O306 1.226 . S
O300 Cd296 2.273 . S
O300 Cd298 2.411 1_455 S
O300 C303 1.320 . S
O301 Cd298 2.333 . S
O301 C303 1.214 1_655 S
O302 Cd298 2.352 1_455 S
O302 C305 1.258 1_455 S
C303 O300 1.320 . S
C303 O301 1.214 1_455 S
O304 Cd296 2.272 1_655 S
O304 C299 1.213 . S
C305 O302 1.258 1_655 S
C305 O307 1.282 . S
O306 Cd298 2.277 . S
O306 C299 1.226 . S
O307 Cd298 2.356 . S
O307 C305 1.282 . S
C308 O309 1.306 . S
C308 O311 1.160 . S
O309 C308 1.306 . S
O309 Cd310 2.228 . S
Cd310 O309 2.228 . S
Cd310 O314 2.273 . S
Cd310 O318 2.277 . S
O311 C308 1.160 . S
O311 Cd312 2.203 . S
Cd312 O311 2.203 . S
Cd312 O314 2.411 . S
Cd312 O315 2.333 . S
Cd312 O316 2.352 . S
Cd312 O320 2.277 . S
Cd312 O321 2.356 . S
C313 O318 1.209 . S
C313 O320 1.226 . S
O314 Cd310 2.273 . S
O314 Cd312 2.411 . S
O314 C317 1.320 . S
O315 Cd312 2.333 . S
O315 C317 1.214 . S
O316 Cd312 2.352 . S
O316 C319 1.258 . S
C317 O314 1.320 . S
C317 O315 1.214 . S
O318 Cd310 2.277 . S
O318 C313 1.209 . S
C319 O316 1.258 . S
C319 O321 1.282 . S
O320 Cd312 2.277 . S
O320 C313 1.226 . S
O321 Cd312 2.356 . S
O321 C319 1.282 . S
C322 O323 1.306 . S
C322 O325 1.160 . S
O323 C322 1.306 . S
O323 Cd324 2.228 . S
Cd324 O323 2.228 . S
Cd324 O328 2.273 . S
Cd324 O332 2.277 . S
O325 C322 1.160 . S
O325 Cd326 2.203 . S
Cd326 O325 2.203 . S
Cd326 O328 2.411 . S
Cd326 O329 2.333 . S
Cd326 O330 2.352 . S
Cd326 O334 2.277 . S
Cd326 O335 2.356 . S
C327 O332 1.209 . S
C327 O334 1.226 . S
O328 Cd324 2.273 . S
O328 Cd326 2.411 . S
O328 C331 1.320 . S
O329 Cd326 2.333 . S
O329 C331 1.214 . S
O330 Cd326 2.352 . S
O330 C333 1.258 . S
C331 O328 1.320 . S
C331 O329 1.214 . S
O332 Cd324 2.277 . S
O332 C327 1.209 . S
C333 O330 1.258 . S
C333 O335 1.282 . S
O334 Cd326 2.277 . S
O334 C327 1.226 . S
O335 Cd326 2.356 . S
O335 C333 1.282 . S
Tb336 C346 2.825 1_454 S
Tb336 O347 2.347 . S
Tb336 O350 2.366 . S
Tb336 O355 2.418 1_554 S
Tb336 O356 2.384 . S
Tb336 O359 2.479 1_454 S
Tb336 O360 2.471 1_455 S
Eu337 O348 2.418 . S
Eu337 O349 2.384 . S
Eu337 O352 2.479 . S
Eu337 O353 2.471 . S
Eu337 O354 2.347 . S
Eu337 O357 2.366 . S
Eu337 C367 2.825 . S
C338 O354 1.259 1_556 S
C338 O355 1.265 . S
C339 O356 1.258 . S
C339 O357 1.271 . S
C340 C342 1.380 . S
C340 C343 1.374 . S
C340 C346 1.507 . S
C341 C342 1.384 . S
C341 C345 1.387 . S
C341 H368 0.930 . S
C342 C340 1.380 . S
C342 C341 1.384 . S
C342 H369 0.931 . S
C343 C340 1.374 . S
C343 C344 1.390 . S
C343 H370 0.930 1_556 S
C344 C343 1.390 . S
C344 C345 1.391 . S
C344 H371 0.930 . S
C345 C341 1.387 . S
C345 C344 1.391 . S
C346 Tb336 2.825 1_656 S
C346 C340 1.507 . S
C346 O359 1.238 . S
C346 O360 1.247 1_556 S
O347 Tb336 2.347 . S
O347 C351 1.259 . S
O348 Eu337 2.418 . S
O348 C351 1.265 . S
O349 Eu337 2.384 . S
O349 C358 1.255 . S
O350 Tb336 2.366 . S
O350 C358 1.265 . S
C351 O347 1.259 . S
C351 O348 1.265 . S
O352 Eu337 2.479 . S
O352 C367 1.238 . S
O353 Eu337 2.471 . S
O353 C367 1.247 . S
O354 Eu337 2.347 . S
O354 C338 1.259 1_554 S
O355 Tb336 2.418 1_556 S
O355 C338 1.265 . S
O356 Tb336 2.384 . S
O356 C339 1.258 . S
O357 Eu337 2.366 . S
O357 C339 1.271 . S
C358 O349 1.255 . S
C358 O350 1.265 . S
O359 Tb336 2.479 1_656 S
O359 C346 1.238 . S
O360 Tb336 2.471 1_655 S
O360 C346 1.247 1_554 S
C361 C364 1.380 . S
C361 C365 1.374 . S
C361 C367 1.507 . S
C362 C363 1.387 . S
C362 C366 1.391 . S
C363 C362 1.387 . S
C363 C364 1.384 . S
C363 H372 0.930 . S
C364 C361 1.380 . S
C364 C363 1.384 . S
C364 H373 0.931 . S
C365 C361 1.374 . S
C365 C366 1.390 . S
C365 H374 0.930 . S
C366 C362 1.391 . S
C366 C365 1.390 . S
C366 H375 0.930 . S
C367 Eu337 2.825 . S
C367 O352 1.238 . S
C367 O353 1.247 . S
C367 C361 1.507 . S
H368 C341 0.930 . S
H369 C342 0.931 . S
H370 C343 0.930 1_554 S
H371 C344 0.930 . S
H372 C363 0.930 . S
H373 C364 0.931 . S
H374 C365 0.930 . S
H375 C366 0.930 . S
Tb376 C386 2.825 . S
Tb376 O387 2.347 . S
Tb376 O390 2.366 . S
Tb376 O395 2.418 . S
Tb376 O396 2.384 . S
Tb376 O399 2.479 . S
Tb376 O400 2.471 . S
Eu377 O388 2.418 . S
Eu377 O389 2.384 . S
Eu377 O392 2.479 . S
Eu377 O393 2.471 . S
Eu377 O394 2.347 . S
Eu377 O397 2.366 . S
Eu377 C407 2.825 . S
C378 O394 1.259 . S
C378 O395 1.265 . S
C379 O396 1.255 . S
C379 O397 1.265 . S
C380 C382 1.380 . S
C380 C383 1.374 . S
C380 C386 1.507 . S
C381 C382 1.384 . S
C381 C385 1.387 . S
C381 H408 0.930 . S
C382 C380 1.380 . S
C382 C381 1.384 . S
C382 H409 0.931 . S
C383 C380 1.374 . S
C383 C384 1.390 . S
C383 H410 0.930 . S
C384 C383 1.390 . S
C384 C385 1.391 . S
C384 H411 0.930 . S
C385 C381 1.387 . S
C385 C384 1.391 . S
C386 Tb376 2.825 . S
C386 C380 1.507 . S
C386 O399 1.238 . S
C386 O400 1.247 . S
O387 Tb376 2.347 . S
O387 C391 1.259 . S
O388 Eu377 2.418 . S
O388 C391 1.265 . S
O389 Eu377 2.384 . S
O389 C398 1.255 . S
O390 Tb376 2.366 . S
O390 C398 1.265 . S
C391 O387 1.259 . S
C391 O388 1.265 . S
O392 Eu377 2.479 . S
O392 C407 1.238 . S
O393 Eu377 2.471 . S
O393 C407 1.247 . S
O394 Eu377 2.347 . S
O394 C378 1.259 . S
O395 Tb376 2.418 . S
O395 C378 1.265 . S
O396 Tb376 2.384 . S
O396 C379 1.255 . S
O397 Eu377 2.366 . S
O397 C379 1.265 . S
C398 O389 1.255 . S
C398 O390 1.265 . S
O399 Tb376 2.479 . S
O399 C386 1.238 . S
O400 Tb376 2.471 . S
O400 C386 1.247 . S
C401 C404 1.380 . S
C401 C405 1.374 . S
C401 C407 1.507 . S
C402 C403 1.387 . S
C402 C406 1.391 . S
C403 C402 1.387 . S
C403 C404 1.384 . S
C403 H412 0.930 . S
C404 C401 1.380 . S
C404 C403 1.384 . S
C404 H413 0.931 . S
C405 C401 1.374 . S
C405 C406 1.390 . S
C405 H414 0.930 . S
C406 C402 1.391 . S
C406 C405 1.390 . S
C406 H415 0.930 . S
C407 Eu377 2.825 . S
C407 O392 1.238 . S
C407 O393 1.247 . S
C407 C401 1.507 . S
H408 C381 0.930 . S
H409 C382 0.931 . S
H410 C383 0.930 . S
H411 C384 0.930 . S
H412 C403 0.930 . S
H413 C404 0.931 . S
H414 C405 0.930 . S
H415 C406 0.930 . S
Tb416 C426 2.825 1_545 S
Tb416 O427 2.347 . S
Tb416 O430 2.366 . S
Tb416 O435 2.418 . S
Tb416 O436 2.384 . S
Tb416 O439 2.479 1_545 S
Tb416 O440 2.471 1_545 S
Eu417 O428 2.418 . S
Eu417 O429 2.384 . S
Eu417 O432 2.479 . S
Eu417 O433 2.471 . S
Eu417 O434 2.347 . S
Eu417 O437 2.366 . S
Eu417 C447 2.825 . S
C418 O434 1.259 . S
C418 O435 1.265 . S
C419 O436 1.255 . S
C419 O437 1.265 . S
C420 C422 1.380 . S
C420 C423 1.374 . S
C420 C426 1.507 . S
C421 C422 1.384 . S
C421 C425 1.387 . S
C421 H448 0.930 . S
C422 C420 1.380 . S
C422 C421 1.384 . S
C422 H449 0.931 . S
C423 C420 1.374 . S
C423 C424 1.390 . S
C423 H450 0.930 . S
C424 C423 1.390 . S
C424 C425 1.391 . S
C424 H451 0.930 . S
C425 C421 1.387 . S
C425 C424 1.391 . S
C426 Tb416 2.825 1_565 S
C426 C420 1.507 . S
C426 O439 1.238 . S
C426 O440 1.247 . S
O427 Tb416 2.347 . S
O427 C431 1.259 . S
O428 Eu417 2.418 . S
O428 C431 1.265 . S
O429 Eu417 2.384 . S
O429 C438 1.255 . S
O430 Tb416 2.366 . S
O430 C438 1.265 . S
C431 O427 1.259 . S
C431 O428 1.265 . S
O432 Eu417 2.479 . S
O432 C447 1.238 . S
O433 Eu417 2.471 . S
O433 C447 1.247 . S
O434 Eu417 2.347 . S
O434 C418 1.259 . S
O435 Tb416 2.418 . S
O435 C418 1.265 . S
O436 Tb416 2.384 . S
O436 C419 1.255 . S
O437 Eu417 2.366 . S
O437 C419 1.265 . S
C438 O429 1.255 . S
C438 O430 1.265 . S
O439 Tb416 2.479 1_565 S
O439 C426 1.238 . S
O440 Tb416 2.471 1_565 S
O440 C426 1.247 . S
C441 C444 1.380 . S
C441 C445 1.374 . S
C441 C447 1.507 . S
C442 C443 1.387 . S
C442 C446 1.391 . S
C443 C442 1.387 . S
C443 C444 1.384 . S
C443 H452 0.930 . S
C444 C441 1.380 . S
C444 C443 1.384 . S
C444 H453 0.931 . S
C445 C441 1.374 . S
C445 C446 1.390 . S
C445 H454 0.930 . S
C446 C442 1.391 . S
C446 C445 1.390 . S
C446 H455 0.930 . S
C447 Eu417 2.825 . S
C447 O432 1.238 . S
C447 O433 1.247 . S
C447 C441 1.507 . S
H448 C421 0.930 . S
H449 C422 0.931 . S
H450 C423 0.930 . S
H451 C424 0.930 . S
H452 C443 0.930 . S
H453 C444 0.931 . S
H454 C445 0.930 . S
H455 C446 0.930 . S
Tb456 C466 2.825 . S
Tb456 O467 2.347 . S
Tb456 O470 2.366 . S
Tb456 O475 2.418 . S
Tb456 O476 2.384 . S
Tb456 O479 2.479 . S
Tb456 O480 2.471 . S
Eu457 O468 2.418 . S
Eu457 O469 2.384 . S
Eu457 O472 2.479 . S
Eu457 O473 2.471 . S
Eu457 O474 2.347 . S
Eu457 O477 2.366 . S
Eu457 C487 2.825 . S
C458 O474 1.259 . S
C458 O475 1.265 . S
C459 O476 1.255 . S
C459 O477 1.265 . S
C460 C462 1.380 . S
C460 C463 1.374 . S
C460 C466 1.507 . S
C461 C462 1.384 . S
C461 C465 1.387 . S
C461 H488 0.930 . S
C462 C460 1.380 . S
C462 C461 1.384 . S
C462 H489 0.931 . S
C463 C460 1.374 . S
C463 C464 1.390 . S
C463 H490 0.930 . S
C464 C463 1.390 . S
C464 C465 1.391 . S
C464 H491 0.930 . S
C465 C461 1.387 . S
C465 C464 1.391 . S
C466 Tb456 2.825 . S
C466 C460 1.507 . S
C466 O479 1.238 . S
C466 O480 1.247 . S
O467 Tb456 2.347 . S
O467 C471 1.259 . S
O468 Eu457 2.418 . S
O468 C471 1.265 . S
O469 Eu457 2.384 . S
O469 C478 1.255 . S
O470 Tb456 2.366 . S
O470 C478 1.265 . S
C471 O467 1.259 . S
C471 O468 1.265 . S
O472 Eu457 2.479 . S
O472 C487 1.238 . S
O473 Eu457 2.471 . S
O473 C487 1.247 . S
O474 Eu457 2.347 . S
O474 C458 1.259 . S
O475 Tb456 2.418 . S
O475 C458 1.265 . S
O476 Tb456 2.384 . S
O476 C459 1.255 . S
O477 Eu457 2.366 . S
O477 C459 1.265 . S
C478 O469 1.255 . S
C478 O470 1.265 . S
O479 Tb456 2.479 . S
O479 C466 1.238 . S
O480 Tb456 2.471 . S
O480 C466 1.247 . S
C481 C484 1.380 . S
C481 C485 1.374 . S
C481 C487 1.507 . S
C482 C483 1.387 . S
C482 C486 1.391 . S
C483 C482 1.387 . S
C483 C484 1.384 . S
C483 H492 0.930 . S
C484 C481 1.380 . S
C484 C483 1.384 . S
C484 H493 0.931 . S
C485 C481 1.374 . S
C485 C486 1.390 . S
C485 H494 0.930 . S
C486 C482 1.391 . S
C486 C485 1.390 . S
C486 H495 0.930 . S
C487 Eu457 2.825 . S
C487 O472 1.238 . S
C487 O473 1.247 . S
C487 C481 1.507 . S
H488 C461 0.930 . S
H489 C462 0.931 . S
H490 C463 0.930 . S
H491 C464 0.930 . S
H492 C483 0.930 . S
H493 C484 0.931 . S
H494 C485 0.930 . S
H495 C486 0.930 . S
Tb496 C506 2.825 . S
Tb496 O507 2.347 . S
Tb496 O510 2.366 . S
Tb496 O515 2.418 . S
Tb496 O516 2.384 . S
Tb496 O519 2.479 . S
Tb496 O520 2.471 . S
Eu497 O508 2.418 . S
Eu497 O509 2.384 . S
Eu497 O512 2.479 . S
Eu497 O513 2.471 . S
Eu497 O514 2.347 . S
Eu497 O517 2.366 . S
Eu497 C527 2.825 . S
C498 O514 1.259 . S
C498 O515 1.265 . S
C499 O516 1.255 . S
C499 O517 1.265 . S
C500 C502 1.380 . S
C500 C503 1.374 1_455 S
C500 C506 1.507 . S
C501 C502 1.384 . S
C501 C505 1.387 1_455 S
C501 H528 0.930 . S
C502 C500 1.380 . S
C502 C501 1.384 . S
C502 H529 0.931 . S
C503 C500 1.374 1_655 S
C503 C504 1.390 . S
C503 H530 0.930 . S
C504 C503 1.390 . S
C504 C505 1.391 . S
C504 H531 0.930 . S
C505 C501 1.387 1_655 S
C505 C504 1.391 . S
C506 Tb496 2.825 . S
C506 C500 1.507 . S
C506 O519 1.238 . S
C506 O520 1.247 . S
O507 Tb496 2.347 . S
O507 C511 1.259 1_455 S
O508 Eu497 2.418 . S
O508 C511 1.265 1_455 S
O509 Eu497 2.384 . S
O509 C518 1.255 . S
O510 Tb496 2.366 . S
O510 C518 1.265 . S
C511 O507 1.259 1_655 S
C511 O508 1.265 1_655 S
O512 Eu497 2.479 . S
O512 C527 1.238 . S
O513 Eu497 2.471 . S
O513 C527 1.247 . S
O514 Eu497 2.347 . S
O514 C498 1.259 . S
O515 Tb496 2.418 . S
O515 C498 1.265 . S
O516 Tb496 2.384 . S
O516 C499 1.255 . S
O517 Eu497 2.366 . S
O517 C499 1.265 . S
C518 O509 1.255 . S
C518 O510 1.265 . S
O519 Tb496 2.479 . S
O519 C506 1.238 . S
O520 Tb496 2.471 . S
O520 C506 1.247 . S
C521 C524 1.380 . S
C521 C525 1.374 . S
C521 C527 1.507 . S
C522 C523 1.387 . S
C522 C526 1.391 . S
C523 C522 1.387 . S
C523 C524 1.384 . S
C523 H532 0.930 . S
C524 C521 1.380 . S
C524 C523 1.384 . S
C524 H533 0.931 . S
C525 C521 1.374 . S
C525 C526 1.390 . S
C525 H534 0.930 . S
C526 C522 1.391 . S
C526 C525 1.390 . S
C526 H535 0.930 . S
C527 Eu497 2.825 . S
C527 O512 1.238 . S
C527 O513 1.247 . S
C527 C521 1.507 . S
H528 C501 0.930 . S
H529 C502 0.931 . S
H530 C503 0.930 . S
H531 C504 0.930 . S
H532 C523 0.930 . S
H533 C524 0.931 . S
H534 C525 0.930 . S
H535 C526 0.930 . S
Tb536 C546 2.825 . S
Tb536 O547 2.347 . S
Tb536 O550 2.366 . S
Tb536 O555 2.418 . S
Tb536 O556 2.384 . S
Tb536 O559 2.479 . S
Tb536 O560 2.471 . S
Eu537 O548 2.418 . S
Eu537 O549 2.384 . S
Eu537 O552 2.479 . S
Eu537 O553 2.471 . S
Eu537 O554 2.347 . S
Eu537 O557 2.366 . S
Eu537 C567 2.825 . S
C538 O554 1.259 . S
C538 O555 1.265 . S
C539 O556 1.255 . S
C539 O557 1.265 . S
C540 C542 1.380 . S
C540 C543 1.374 . S
C540 C546 1.507 . S
C541 C542 1.384 . S
C541 C545 1.387 . S
C541 H568 0.930 . S
C542 C540 1.380 . S
C542 C541 1.384 . S
C542 H569 0.931 . S
C543 C540 1.374 . S
C543 C544 1.390 . S
C543 H570 0.930 . S
C544 C543 1.390 . S
C544 C545 1.391 . S
C544 H571 0.930 . S
C545 C541 1.387 . S
C545 C544 1.391 . S
C546 Tb536 2.825 . S
C546 C540 1.507 . S
C546 O559 1.238 . S
C546 O560 1.247 . S
O547 Tb536 2.347 . S
O547 C551 1.259 . S
O548 Eu537 2.418 . S
O548 C551 1.265 . S
O549 Eu537 2.384 . S
O549 C558 1.255 . S
O550 Tb536 2.366 . S
O550 C558 1.265 . S
C551 O547 1.259 . S
C551 O548 1.265 . S
O552 Eu537 2.479 . S
O552 C567 1.238 . S
O553 Eu537 2.471 . S
O553 C567 1.247 . S
O554 Eu537 2.347 . S
O554 C538 1.259 . S
O555 Tb536 2.418 . S
O555 C538 1.265 . S
O556 Tb536 2.384 . S
O556 C539 1.255 . S
O557 Eu537 2.366 . S
O557 C539 1.265 . S
C558 O549 1.255 . S
C558 O550 1.265 . S
O559 Tb536 2.479 . S
O559 C546 1.238 . S
O560 Tb536 2.471 . S
O560 C546 1.247 . S
C561 C564 1.380 . S
C561 C565 1.374 . S
C561 C567 1.507 . S
C562 C563 1.387 . S
C562 C566 1.391 . S
C563 C562 1.387 . S
C563 C564 1.384 . S
C563 H572 0.930 . S
C564 C561 1.380 . S
C564 C563 1.384 . S
C564 H573 0.931 . S
C565 C561 1.374 . S
C565 C566 1.390 . S
C565 H574 0.930 . S
C566 C562 1.391 . S
C566 C565 1.390 . S
C566 H575 0.930 . S
C567 Eu537 2.825 . S
C567 O552 1.238 . S
C567 O553 1.247 . S
C567 C561 1.507 . S
H568 C541 0.930 . S
H569 C542 0.931 . S
H570 C543 0.930 . S
H571 C544 0.930 . S
H572 C563 0.930 . S
H573 C564 0.931 . S
H574 C565 0.930 . S
H575 C566 0.930 . S
Tb576 C586 2.825 . S
Tb576 O587 2.347 . S
Tb576 O590 2.366 . S
Tb576 O595 2.417 . S
Tb576 O596 2.384 . S
Tb576 O599 2.479 . S
Tb576 O600 2.471 . S
Eu577 O588 2.418 1_556 S
Eu577 O589 2.384 1_556 S
Eu577 O592 2.479 . S
Eu577 O593 2.471 . S
Eu577 O594 2.347 1_556 S
Eu577 O597 2.366 . S
Eu577 C607 2.825 . S
C578 O594 1.266 . S
C578 O595 1.263 . S
C579 O596 1.255 . S
C579 O597 1.265 1_554 S
C580 C582 1.380 . S
C580 C583 1.374 . S
C580 C586 1.507 . S
C581 C582 1.384 . S
C581 C585 1.387 . S
C581 H608 0.930 1_545 S
C582 C580 1.380 . S
C582 C581 1.384 . S
C582 H609 0.931 . S
C583 C580 1.374 . S
C583 C584 1.390 . S
C583 H610 0.930 . S
C584 C583 1.390 . S
C584 C585 1.391 . S
C584 H611 0.930 . S
C585 C581 1.387 . S
C585 C584 1.391 . S
C586 Tb576 2.825 . S
C586 C580 1.507 . S
C586 O599 1.238 . S
C586 O600 1.247 . S
O587 Tb576 2.347 . S
O587 C591 1.259 . S
O588 Eu577 2.418 1_554 S
O588 C591 1.265 . S
O589 Eu577 2.384 1_554 S
O589 C598 1.255 . S
O590 Tb576 2.366 . S
O590 C598 1.265 . S
C591 O587 1.259 . S
C591 O588 1.265 . S
O592 Eu577 2.479 . S
O592 C607 1.238 . S
O593 Eu577 2.471 . S
O593 C607 1.247 . S
O594 Eu577 2.347 1_554 S
O594 C578 1.266 . S
O595 Tb576 2.417 . S
O595 C578 1.263 . S
O596 Tb576 2.384 . S
O596 C579 1.255 . S
O597 Eu577 2.366 . S
O597 C579 1.265 1_556 S
C598 O589 1.255 . S
C598 O590 1.265 . S
O599 Tb576 2.479 . S
O599 C586 1.238 . S
O600 Tb576 2.471 . S
O600 C586 1.247 . S
C601 C604 1.380 . S
C601 C605 1.374 . S
C601 C607 1.507 . S
C602 C603 1.387 . S
C602 C606 1.391 . S
C603 C602 1.387 . S
C603 C604 1.384 . S
C603 H612 0.930 . S
C604 C601 1.380 . S
C604 C603 1.384 . S
C604 H613 0.931 . S
C605 C601 1.374 . S
C605 C606 1.390 . S
C605 H614 0.930 . S
C606 C602 1.391 . S
C606 C605 1.390 . S
C606 H615 0.930 . S
C607 Eu577 2.825 . S
C607 O592 1.238 . S
C607 O593 1.247 . S
C607 C601 1.507 . S
H608 C581 0.930 1_565 S
H609 C582 0.931 . S
H610 C583 0.930 . S
H611 C584 0.930 . S
H612 C603 0.930 . S
H613 C604 0.931 . S
H614 C605 0.930 . S
H615 C606 0.930 . S
Tb616 C626 2.825 . S
Tb616 O627 2.347 . S
Tb616 O630 2.366 . S
Tb616 O635 2.418 . S
Tb616 O636 2.384 . S
Tb616 O639 2.479 . S
Tb616 O640 2.471 . S
Eu617 O628 2.418 . S
Eu617 O629 2.384 . S
Eu617 O632 2.479 . S
Eu617 O633 2.471 . S
Eu617 O634 2.347 . S
Eu617 O637 2.366 . S
Eu617 C647 2.825 . S
C618 O634 1.259 . S
C618 O635 1.265 . S
C619 O636 1.255 . S
C619 O637 1.265 . S
C620 C622 1.380 . S
C620 C623 1.374 . S
C620 C626 1.507 . S
C621 C622 1.384 . S
C621 C625 1.387 . S
C621 H648 0.930 . S
C622 C620 1.380 . S
C622 C621 1.384 . S
C622 H649 0.931 . S
C623 C620 1.374 . S
C623 C624 1.390 . S
C623 H650 0.930 . S
C624 C623 1.390 . S
C624 C625 1.391 . S
C624 H651 0.930 . S
C625 C621 1.387 . S
C625 C624 1.391 . S
C626 Tb616 2.825 . S
C626 C620 1.507 . S
C626 O639 1.238 . S
C626 O640 1.247 . S
O627 Tb616 2.347 . S
O627 C631 1.259 . S
O628 Eu617 2.418 . S
O628 C631 1.265 . S
O629 Eu617 2.384 . S
O629 C638 1.255 . S
O630 Tb616 2.366 . S
O630 C638 1.265 . S
C631 O627 1.259 . S
C631 O628 1.265 . S
O632 Eu617 2.479 . S
O632 C647 1.238 . S
O633 Eu617 2.471 . S
O633 C647 1.247 . S
O634 Eu617 2.347 . S
O634 C618 1.259 . S
O635 Tb616 2.418 . S
O635 C618 1.265 . S
O636 Tb616 2.384 . S
O636 C619 1.255 . S
O637 Eu617 2.366 . S
O637 C619 1.265 . S
C638 O629 1.255 . S
C638 O630 1.265 . S
O639 Tb616 2.479 . S
O639 C626 1.238 . S
O640 Tb616 2.471 . S
O640 C626 1.247 . S
C641 C644 1.380 . S
C641 C645 1.374 . S
C641 C647 1.507 . S
C642 C643 1.387 . S
C642 C646 1.391 . S
C643 C642 1.387 . S
C643 C644 1.384 . S
C643 H652 0.930 . S
C644 C641 1.380 . S
C644 C643 1.384 . S
C644 H653 0.931 . S
C645 C641 1.374 . S
C645 C646 1.390 . S
C645 H654 0.930 . S
C646 C642 1.391 . S
C646 C645 1.390 . S
C646 H655 0.930 . S
C647 Eu617 2.825 . S
C647 O632 1.238 . S
C647 O633 1.247 . S
C647 C641 1.507 . S
H648 C621 0.930 . S
H649 C622 0.931 . S
H650 C623 0.930 . S
H651 C624 0.930 . S
H652 C643 0.930 . S
H653 C644 0.931 . S
H654 C645 0.930 . S
H655 C646 0.930 . S
Tb656 C666 2.825 . S
Tb656 O667 2.347 1_556 S
Tb656 O670 2.366 . S
Tb656 O675 2.418 . S
Tb656 O676 2.384 1_556 S
Tb656 O679 2.479 . S
Tb656 O680 2.471 . S
Eu657 O668 2.418 . S
Eu657 O669 2.384 . S
Eu657 O672 2.479 . S
Eu657 O673 2.471 . S
Eu657 O674 2.347 . S
Eu657 O677 2.366 . S
Eu657 C687 2.825 . S
C658 O674 1.259 . S
C658 O675 1.265 1_554 S
C659 O676 1.255 . S
C659 O677 1.265 . S
C660 C662 1.380 . S
C660 C663 1.374 . S
C660 C666 1.507 . S
C661 C662 1.384 . S
C661 C665 1.387 . S
C661 H688 0.930 . S
C662 C660 1.380 . S
C662 C661 1.384 . S
C662 H689 0.931 . S
C663 C660 1.374 . S
C663 C664 1.390 . S
C663 H690 0.930 . S
C664 C663 1.390 . S
C664 C665 1.391 . S
C664 H691 0.930 . S
C665 C661 1.387 . S
C665 C664 1.391 . S
C666 Tb656 2.825 . S
C666 C660 1.507 . S
C666 O679 1.238 . S
C666 O680 1.247 . S
O667 Tb656 2.347 1_554 S
O667 C671 1.259 . S
O668 Eu657 2.418 . S
O668 C671 1.265 . S
O669 Eu657 2.384 . S
O669 C678 1.235 1_554 S
O670 Tb656 2.366 . S
O670 C678 1.275 . S
C671 O667 1.259 . S
C671 O668 1.265 . S
O672 Eu657 2.479 . S
O672 C687 1.238 . S
O673 Eu657 2.471 . S
O673 C687 1.247 . S
O674 Eu657 2.347 . S
O674 C658 1.259 . S
O675 Tb656 2.418 . S
O675 C658 1.265 1_556 S
O676 Tb656 2.384 1_554 S
O676 C659 1.255 . S
O677 Eu657 2.366 . S
O677 C659 1.265 . S
C678 O669 1.235 1_556 S
C678 O670 1.275 . S
O679 Tb656 2.479 . S
O679 C666 1.238 . S
O680 Tb656 2.471 . S
O680 C666 1.247 . S
C681 C684 1.380 . S
C681 C685 1.374 . S
C681 C687 1.507 . S
C682 C683 1.387 . S
C682 C686 1.391 . S
C683 C682 1.387 . S
C683 C684 1.384 . S
C683 H692 0.930 . S
C684 C681 1.380 . S
C684 C683 1.384 . S
C684 H693 0.931 . S
C685 C681 1.374 . S
C685 C686 1.390 . S
C685 H694 0.930 . S
C686 C682 1.391 . S
C686 C685 1.390 . S
C686 H695 0.930 . S
C687 Eu657 2.825 . S
C687 O672 1.238 . S
C687 O673 1.247 . S
C687 C681 1.507 . S
H688 C661 0.930 . S
H689 C662 0.931 . S
H690 C663 0.930 . S
H691 C664 0.930 . S
H692 C683 0.930 . S
H693 C684 0.931 . S
H694 C685 0.930 . S
H695 C686 0.930 . S
Tb696 C706 2.825 . S
Tb696 O707 2.347 . S
Tb696 O710 2.366 . S
Tb696 O715 2.418 . S
Tb696 O716 2.384 . S
Tb696 O719 2.479 . S
Tb696 O720 2.471 . S
Eu697 O708 2.418 . S
Eu697 O709 2.384 . S
Eu697 O712 2.479 . S
Eu697 O713 2.471 . S
Eu697 O714 2.347 . S
Eu697 O717 2.366 . S
Eu697 C727 2.825 . S
C698 O714 1.259 . S
C698 O715 1.265 . S
C699 O716 1.255 . S
C699 O717 1.265 . S
C700 C702 1.380 . S
C700 C703 1.374 . S
C700 C706 1.507 . S
C701 C702 1.384 . S
C701 C705 1.387 . S
C701 H728 0.930 . S
C702 C700 1.380 . S
C702 C701 1.384 . S
C702 H729 0.931 . S
C703 C700 1.374 . S
C703 C704 1.390 . S
C703 H730 0.930 . S
C704 C703 1.390 . S
C704 C705 1.391 . S
C704 H731 0.930 . S
C705 C701 1.387 . S
C705 C704 1.391 . S
C706 Tb696 2.825 . S
C706 C700 1.507 . S
C706 O719 1.238 . S
C706 O720 1.247 . S
O707 Tb696 2.347 . S
O707 C711 1.259 . S
O708 Eu697 2.418 . S
O708 C711 1.265 . S
O709 Eu697 2.384 . S
O709 C718 1.255 . S
O710 Tb696 2.366 . S
O710 C718 1.265 . S
C711 O707 1.259 . S
C711 O708 1.265 . S
O712 Eu697 2.479 . S
O712 C727 1.238 . S
O713 Eu697 2.471 . S
O713 C727 1.247 . S
O714 Eu697 2.347 . S
O714 C698 1.259 . S
O715 Tb696 2.418 . S
O715 C698 1.265 . S
O716 Tb696 2.384 . S
O716 C699 1.255 . S
O717 Eu697 2.366 . S
O717 C699 1.265 . S
C718 O709 1.255 . S
C718 O710 1.265 . S
O719 Tb696 2.479 . S
O719 C706 1.238 . S
O720 Tb696 2.471 . S
O720 C706 1.247 . S
C721 C724 1.380 . S
C721 C725 1.374 . S
C721 C727 1.507 . S
C722 C723 1.387 . S
C722 C726 1.391 . S
C723 C722 1.387 . S
C723 C724 1.384 . S
C723 H732 0.930 . S
C724 C721 1.380 . S
C724 C723 1.384 . S
C724 H733 0.931 . S
C725 C721 1.374 . S
C725 C726 1.390 . S
C725 H734 0.930 . S
C726 C722 1.391 . S
C726 C725 1.390 . S
C726 H735 0.930 . S
C727 Eu697 2.825 . S
C727 O712 1.238 . S
C727 O713 1.247 . S
C727 C721 1.507 . S
H728 C701 0.930 . S
H729 C702 0.931 . S
H730 C703 0.930 . S
H731 C704 0.930 . S
H732 C723 0.930 . S
H733 C724 0.931 . S
H734 C725 0.930 . S
H735 C726 0.930 . S
Tb736 C746 2.825 . S
Tb736 O747 2.347 . S
Tb736 O750 2.366 . S
Tb736 O755 2.418 . S
Tb736 O756 2.384 . S
Tb736 O759 2.479 . S
Tb736 O760 2.471 . S
Eu737 O748 2.418 . S
Eu737 O749 2.384 1_455 S
Eu737 O752 2.479 . S
Eu737 O753 2.471 . S
Eu737 O754 2.347 . S
Eu737 O757 2.366 . S
Eu737 C767 2.825 . S
C738 O754 1.259 . S
C738 O755 1.265 . S
C739 O756 1.255 . S
C739 O757 1.265 . S
C740 C742 1.380 . S
C740 C743 1.374 . S
C740 C746 1.507 . S
C741 C742 1.384 . S
C741 C745 1.387 . S
C741 H768 0.930 . S
C742 C740 1.380 . S
C742 C741 1.384 . S
C742 H769 0.931 . S
C743 C740 1.374 . S
C743 C744 1.390 . S
C743 H770 0.930 . S
C744 C743 1.390 . S
C744 C745 1.391 . S
C744 H771 0.929 1_455 S
C745 C741 1.387 . S
C745 C744 1.391 . S
C746 Tb736 2.825 . S
C746 C740 1.507 . S
C746 O759 1.238 . S
C746 O760 1.247 . S
O747 Tb736 2.347 . S
O747 C751 1.259 . S
O748 Eu737 2.418 . S
O748 C751 1.265 . S
O749 Eu737 2.384 1_655 S
O749 C758 1.255 . S
O750 Tb736 2.366 . S
O750 C758 1.265 1_455 S
C751 O747 1.259 . S
C751 O748 1.265 . S
O752 Eu737 2.479 . S
O752 C767 1.238 . S
O753 Eu737 2.471 . S
O753 C767 1.247 . S
O754 Eu737 2.347 . S
O754 C738 1.259 . S
O755 Tb736 2.418 . S
O755 C738 1.265 . S
O756 Tb736 2.384 . S
O756 C739 1.255 . S
O757 Eu737 2.366 . S
O757 C739 1.265 . S
C758 O749 1.255 . S
C758 O750 1.265 1_655 S
O759 Tb736 2.479 . S
O759 C746 1.238 . S
O760 Tb736 2.471 . S
O760 C746 1.247 . S
C761 C764 1.380 . S
C761 C765 1.374 . S
C761 C767 1.507 . S
C762 C763 1.387 . S
C762 C766 1.391 . S
C763 C762 1.387 . S
C763 C764 1.384 . S
C763 H772 0.930 . S
C764 C761 1.380 . S
C764 C763 1.384 . S
C764 H773 0.931 . S
C765 C761 1.374 . S
C765 C766 1.390 . S
C765 H774 0.930 . S
C766 C762 1.391 . S
C766 C765 1.390 . S
C766 H775 0.930 . S
C767 Eu737 2.825 . S
C767 O752 1.238 . S
C767 O753 1.247 . S
C767 C761 1.507 . S
H768 C741 0.930 . S
H769 C742 0.931 . S
H770 C743 0.930 . S
H771 C744 0.929 1_655 S
H772 C763 0.930 . S
H773 C764 0.931 . S
H774 C765 0.930 . S
H775 C766 0.930 . S
Tb776 C786 2.825 . S
Tb776 O787 2.347 . S
Tb776 O790 2.366 . S
Tb776 O795 2.418 . S
Tb776 O796 2.384 . S
Tb776 O799 2.479 . S
Tb776 O800 2.471 . S
Eu777 O788 2.418 . S
Eu777 O789 2.384 . S
Eu777 O792 2.479 . S
Eu777 O793 2.471 . S
Eu777 O794 2.347 . S
Eu777 O797 2.366 . S
Eu777 C807 2.825 . S
C778 O794 1.259 . S
C778 O795 1.265 . S
C779 O796 1.255 . S
C779 O797 1.265 . S
C780 C782 1.380 . S
C780 C783 1.374 . S
C780 C786 1.507 . S
C781 C782 1.384 . S
C781 C785 1.387 . S
C781 H808 0.930 . S
C782 C780 1.380 . S
C782 C781 1.384 . S
C782 H809 0.931 . S
C783 C780 1.374 . S
C783 C784 1.390 . S
C783 H810 0.930 . S
C784 C783 1.390 . S
C784 C785 1.391 . S
C784 H811 0.930 . S
C785 C781 1.387 . S
C785 C784 1.391 . S
C786 Tb776 2.825 . S
C786 C780 1.507 . S
C786 O799 1.238 . S
C786 O800 1.247 . S
O787 Tb776 2.347 . S
O787 C791 1.259 . S
O788 Eu777 2.418 . S
O788 C791 1.265 . S
O789 Eu777 2.384 . S
O789 C798 1.255 . S
O790 Tb776 2.366 . S
O790 C798 1.265 . S
C791 O787 1.259 . S
C791 O788 1.265 . S
O792 Eu777 2.479 . S
O792 C807 1.238 . S
O793 Eu777 2.471 . S
O793 C807 1.247 . S
O794 Eu777 2.347 . S
O794 C778 1.259 . S
O795 Tb776 2.418 . S
O795 C778 1.265 . S
O796 Tb776 2.384 . S
O796 C779 1.255 . S
O797 Eu777 2.366 . S
O797 C779 1.265 . S
C798 O789 1.255 . S
C798 O790 1.265 . S
O799 Tb776 2.479 . S
O799 C786 1.238 . S
O800 Tb776 2.471 . S
O800 C786 1.247 . S
C801 C804 1.380 . S
C801 C805 1.374 . S
C801 C807 1.507 . S
C802 C803 1.387 . S
C802 C806 1.391 . S
C803 C802 1.387 . S
C803 C804 1.384 . S
C803 H812 0.930 . S
C804 C801 1.380 . S
C804 C803 1.384 . S
C804 H813 0.931 . S
C805 C801 1.374 . S
C805 C806 1.390 . S
C805 H814 0.930 . S
C806 C802 1.391 . S
C806 C805 1.390 . S
C806 H815 0.930 . S
C807 Eu777 2.825 . S
C807 O792 1.238 . S
C807 O793 1.247 . S
C807 C801 1.507 . S
H808 C781 0.930 . S
H809 C782 0.931 . S
H810 C783 0.930 . S
H811 C784 0.930 . S
H812 C803 0.930 . S
H813 C804 0.931 . S
H814 C805 0.930 . S
H815 C806 0.930 . S
Tb816 C826 2.825 . S
Tb816 O827 2.347 . S
Tb816 O830 2.366 . S
Tb816 O835 2.418 . S
Tb816 O836 2.384 . S
Tb816 O839 2.479 . S
Tb816 O840 2.471 . S
Eu817 O828 2.418 . S
Eu817 O829 2.384 . S
Eu817 O832 2.479 . S
Eu817 O833 2.471 . S
Eu817 O834 2.347 . S
Eu817 O837 2.366 . S
Eu817 C847 2.825 . S
C818 O834 1.259 . S
C818 O835 1.265 . S
C819 O836 1.255 . S
C819 O837 1.265 . S
C820 C822 1.380 . S
C820 C823 1.374 . S
C820 C826 1.507 . S
C821 C822 1.384 . S
C821 C825 1.387 . S
C821 H848 0.930 . S
C822 C820 1.380 . S
C822 C821 1.384 . S
C822 H849 0.931 . S
C823 C820 1.374 . S
C823 C824 1.390 . S
C823 H850 0.930 . S
C824 C823 1.390 . S
C824 C825 1.391 . S
C824 H851 0.930 . S
C825 C821 1.387 . S
C825 C824 1.391 . S
C826 Tb816 2.825 . S
C826 C820 1.507 . S
C826 O839 1.238 . S
C826 O840 1.247 . S
O827 Tb816 2.347 . S
O827 C831 1.259 . S
O828 Eu817 2.418 . S
O828 C831 1.265 . S
O829 Eu817 2.384 . S
O829 C838 1.255 . S
O830 Tb816 2.366 . S
O830 C838 1.265 . S
C831 O827 1.259 . S
C831 O828 1.265 . S
O832 Eu817 2.479 . S
O832 C847 1.238 . S
O833 Eu817 2.471 . S
O833 C847 1.247 . S
O834 Eu817 2.347 . S
O834 C818 1.259 . S
O835 Tb816 2.418 . S
O835 C818 1.265 . S
O836 Tb816 2.384 . S
O836 C819 1.255 . S
O837 Eu817 2.366 . S
O837 C819 1.265 . S
C838 O829 1.255 . S
C838 O830 1.265 . S
O839 Tb816 2.479 . S
O839 C826 1.238 . S
O840 Tb816 2.471 . S
O840 C826 1.247 . S
C841 C844 1.380 . S
C841 C845 1.374 . S
C841 C847 1.507 . S
C842 C843 1.387 . S
C842 C846 1.391 . S
C843 C842 1.387 . S
C843 C844 1.384 . S
C843 H852 0.930 . S
C844 C841 1.380 . S
C844 C843 1.384 . S
C844 H853 0.931 . S
C845 C841 1.374 . S
C845 C846 1.390 . S
C845 H854 0.930 . S
C846 C842 1.391 . S
C846 C845 1.390 . S
C846 H855 0.930 . S
C847 Eu817 2.825 . S
C847 O832 1.238 . S
C847 O833 1.247 . S
C847 C841 1.507 . S
H848 C821 0.930 . S
H849 C822 0.931 . S
H850 C823 0.930 . S
H851 C824 0.930 . S
H852 C843 0.930 . S
H853 C844 0.931 . S
H854 C845 0.930 . S
H855 C846 0.930 . S
Tb856 C866 2.825 . S
Tb856 O867 2.347 . S
Tb856 O870 2.366 . S
Tb856 O875 2.418 . S
Tb856 O876 2.384 . S
Tb856 O879 2.479 . S
Tb856 O880 2.471 . S
Eu857 O868 2.418 . S
Eu857 O869 2.384 . S
Eu857 O872 2.479 . S
Eu857 O873 2.471 . S
Eu857 O874 2.347 . S
Eu857 O877 2.366 . S
Eu857 C887 2.825 . S
C858 O874 1.259 . S
C858 O875 1.265 . S
C859 O876 1.255 . S
C859 O877 1.265 . S
C860 C862 1.380 . S
C860 C863 1.374 . S
C860 C866 1.507 . S
C861 C862 1.384 . S
C861 C865 1.387 . S
C861 H888 0.930 . S
C862 C860 1.380 . S
C862 C861 1.384 . S
C862 H889 0.931 . S
C863 C860 1.374 . S
C863 C864 1.390 . S
C863 H890 0.930 . S
C864 C863 1.390 . S
C864 C865 1.391 . S
C864 H891 0.930 . S
C865 C861 1.387 . S
C865 C864 1.391 . S
C866 Tb856 2.825 . S
C866 C860 1.507 . S
C866 O879 1.238 . S
C866 O880 1.247 . S
O867 Tb856 2.347 . S
O867 C871 1.259 . S
O868 Eu857 2.418 . S
O868 C871 1.265 . S
O869 Eu857 2.384 . S
O869 C878 1.255 . S
O870 Tb856 2.366 . S
O870 C878 1.265 . S
C871 O867 1.259 . S
C871 O868 1.265 . S
O872 Eu857 2.479 . S
O872 C887 1.238 . S
O873 Eu857 2.471 . S
O873 C887 1.247 . S
O874 Eu857 2.347 . S
O874 C858 1.259 . S
O875 Tb856 2.418 . S
O875 C858 1.265 . S
O876 Tb856 2.384 . S
O876 C859 1.255 . S
O877 Eu857 2.366 . S
O877 C859 1.265 . S
C878 O869 1.255 . S
C878 O870 1.265 . S
O879 Tb856 2.479 . S
O879 C866 1.238 . S
O880 Tb856 2.471 . S
O880 C866 1.247 . S
C881 C884 1.380 . S
C881 C885 1.374 . S
C881 C887 1.507 . S
C882 C883 1.387 . S
C882 C886 1.391 . S
C883 C882 1.387 . S
C883 C884 1.384 . S
C883 H892 0.930 . S
C884 C881 1.380 . S
C884 C883 1.384 . S
C884 H893 0.931 . S
C885 C881 1.374 . S
C885 C886 1.390 . S
C885 H894 0.930 . S
C886 C882 1.391 . S
C886 C885 1.390 . S
C886 H895 0.930 . S
C887 Eu857 2.825 . S
C887 O872 1.238 . S
C887 O873 1.247 . S
C887 C881 1.507 . S
H888 C861 0.930 . S
H889 C862 0.931 . S
H890 C863 0.930 . S
H891 C864 0.930 . S
H892 C883 0.930 . S
H893 C884 0.931 . S
H894 C885 0.930 . S
H895 C886 0.930 . S
Tb896 C906 2.825 . S
Tb896 O907 2.347 . S
Tb896 O910 2.366 . S
Tb896 O915 2.418 . S
Tb896 O916 2.384 . S
Tb896 O919 2.479 . S
Tb896 O920 2.471 . S
Eu897 O908 2.418 . S
Eu897 O909 2.384 . S
Eu897 O912 2.479 . S
Eu897 O913 2.471 . S
Eu897 O914 2.347 . S
Eu897 O917 2.366 . S
Eu897 C927 2.825 . S
C898 O914 1.259 . S
C898 O915 1.265 . S
C899 O916 1.255 . S
C899 O917 1.265 . S
C900 C902 1.380 . S
C900 C903 1.374 . S
C900 C906 1.507 . S
C901 C902 1.384 . S
C901 C905 1.387 . S
C901 H928 0.930 . S
C902 C900 1.380 . S
C902 C901 1.384 . S
C902 H929 0.931 . S
C903 C900 1.374 . S
C903 C904 1.390 . S
C903 H930 0.930 . S
C904 C903 1.390 . S
C904 C905 1.391 . S
C904 H931 0.930 . S
C905 C901 1.387 . S
C905 C904 1.391 . S
C906 Tb896 2.825 . S
C906 C900 1.507 . S
C906 O919 1.238 . S
C906 O920 1.247 . S
O907 Tb896 2.347 . S
O907 C911 1.259 . S
O908 Eu897 2.418 . S
O908 C911 1.265 . S
O909 Eu897 2.384 . S
O909 C918 1.255 . S
O910 Tb896 2.366 . S
O910 C918 1.265 . S
C911 O907 1.259 . S
C911 O908 1.265 . S
O912 Eu897 2.479 . S
O912 C927 1.238 . S
O913 Eu897 2.471 . S
O913 C927 1.247 . S
O914 Eu897 2.347 . S
O914 C898 1.259 . S
O915 Tb896 2.418 . S
O915 C898 1.265 . S
O916 Tb896 2.384 . S
O916 C899 1.255 . S
O917 Eu897 2.366 . S
O917 C899 1.265 . S
C918 O909 1.255 . S
C918 O910 1.265 . S
O919 Tb896 2.479 . S
O919 C906 1.238 . S
O920 Tb896 2.471 . S
O920 C906 1.247 . S
C921 C924 1.380 . S
C921 C925 1.374 . S
C921 C927 1.507 . S
C922 C923 1.387 . S
C922 C926 1.391 . S
C923 C922 1.387 . S
C923 C924 1.384 . S
C923 H932 0.930 . S
C924 C921 1.380 . S
C924 C923 1.384 . S
C924 H933 0.931 . S
C925 C921 1.374 . S
C925 C926 1.390 . S
C925 H934 0.930 . S
C926 C922 1.391 . S
C926 C925 1.390 . S
C926 H935 0.930 . S
C927 Eu897 2.825 . S
C927 O912 1.238 . S
C927 O913 1.247 . S
C927 C921 1.507 . S
H928 C901 0.930 . S
H929 C902 0.931 . S
H930 C903 0.930 . S
H931 C904 0.930 . S
H932 C923 0.930 . S
H933 C924 0.931 . S
H934 C925 0.930 . S
H935 C926 0.930 . S
Tb936 C946 2.825 1_554 S
Tb936 O947 2.347 1_554 S
Tb936 O950 2.366 . S
Tb936 O955 2.418 . S
Tb936 O956 2.384 . S
Tb936 O959 2.479 . S
Tb936 O960 2.471 1_554 S
Eu937 O948 2.418 1_554 S
Eu937 O949 2.384 . S
Eu937 O952 2.479 . S
Eu937 O953 2.471 . S
Eu937 O954 2.347 . S
Eu937 O957 2.366 . S
Eu937 C967 2.825 . S
C938 O954 1.259 . S
C938 O955 1.265 . S
C939 O956 1.255 . S
C939 O957 1.265 . S
C940 C942 1.395 . S
C940 C943 1.374 . S
C940 C946 1.507 . S
C941 C942 1.394 . S
C941 C945 1.387 . S
C941 H968 0.930 . S
C942 C940 1.395 . S
C942 C941 1.394 . S
C942 H969 0.906 1_556 S
C943 C940 1.374 . S
C943 C944 1.390 . S
C943 H970 0.930 . S
C944 C943 1.390 . S
C944 C945 1.391 . S
C944 H971 0.930 . S
C945 C941 1.387 . S
C945 C944 1.391 . S
C946 Tb936 2.825 1_556 S
C946 C940 1.507 . S
C946 O959 1.238 1_556 S
C946 O960 1.247 . S
O947 Tb936 2.347 1_556 S
O947 C951 1.259 . S
O948 Eu937 2.418 1_556 S
O948 C951 1.265 . S
O949 Eu937 2.384 . S
O949 C958 1.255 . S
O950 Tb936 2.366 . S
O950 C958 1.265 . S
C951 O947 1.259 . S
C951 O948 1.265 . S
O952 Eu937 2.479 . S
O952 C967 1.238 . S
O953 Eu937 2.471 . S
O953 C967 1.247 . S
O954 Eu937 2.347 . S
O954 C938 1.259 . S
O955 Tb936 2.418 . S
O955 C938 1.265 . S
O956 Tb936 2.384 . S
O956 C939 1.255 . S
O957 Eu937 2.366 . S
O957 C939 1.265 . S
C958 O949 1.255 . S
C958 O950 1.265 . S
O959 Tb936 2.479 . S
O959 C946 1.238 1_554 S
O960 Tb936 2.471 1_556 S
O960 C946 1.247 . S
C961 C964 1.380 . S
C961 C965 1.374 . S
C961 C967 1.507 . S
C962 C963 1.387 . S
C962 C966 1.391 . S
C963 C962 1.387 . S
C963 C964 1.384 . S
C963 H972 0.930 . S
C964 C961 1.380 . S
C964 C963 1.384 . S
C964 H973 0.931 . S
C965 C961 1.374 . S
C965 C966 1.390 . S
C965 H974 0.930 . S
C966 C962 1.391 . S
C966 C965 1.390 . S
C966 H975 0.930 . S
C967 Eu937 2.825 . S
C967 O952 1.238 . S
C967 O953 1.247 . S
C967 C961 1.507 . S
H968 C941 0.930 . S
H969 C942 0.906 1_554 S
H970 C943 0.930 . S
H971 C944 0.930 . S
H972 C963 0.930 . S
H973 C964 0.931 . S
H974 C965 0.930 . S
H975 C966 0.930 . S
C976 C977 1.369 . S
C976 C978 1.419 . S
C976 H980 0.930 . S
C977 C976 1.369 . S
C977 C986 1.429 . S
C978 C976 1.419 . S
C978 C979 1.363 1_556 S
C978 H981 0.929 . S
C979 C978 1.363 1_554 S
C979 C985 1.428 . S
H980 C976 0.930 . S
H981 C978 0.929 . S
S982 N983 1.613 1_454 S
S982 N984 1.610 . S
N983 S982 1.613 1_656 S
N983 C986 1.350 1_655 S
N984 S982 1.610 . S
N984 C985 1.351 . S
C985 C979 1.428 . S
C985 N984 1.351 . S
C985 C986 1.434 1_554 S
C986 C977 1.429 . S
C986 N983 1.350 1_455 S
C986 C985 1.434 1_556 S
C987 C988 1.369 . S
C987 C989 1.419 . S
C987 H991 0.930 . S
C988 C987 1.369 . S
C988 C997 1.429 . S
C989 C987 1.419 . S
C989 C990 1.363 . S
C989 H992 0.929 . S
C990 C989 1.363 . S
C990 C996 1.428 . S
H991 C987 0.930 . S
H992 C989 0.929 . S
S993 N994 1.613 . S
S993 N995 1.610 . S
N994 S993 1.613 . S
N994 C997 1.350 . S
N995 S993 1.610 . S
N995 C996 1.351 . S
C996 C990 1.428 . S
C996 N995 1.351 . S
C996 C997 1.434 . S
C997 C988 1.429 . S
C997 N994 1.350 . S
C997 C996 1.434 . S
C998 C999 1.369 . S
C998 C1000 1.419 . S
C998 H1002 0.930 . S
C999 C998 1.369 . S
C999 C1008 1.429 . S
C1000 C998 1.419 . S
C1000 C1001 1.363 . S
C1000 H1003 0.929 . S
C1001 C1000 1.363 . S
C1001 C1007 1.428 . S
H1002 C998 0.930 . S
H1003 C1000 0.929 . S
S1004 N1005 1.613 . S
S1004 N1006 1.610 . S
N1005 S1004 1.613 . S
N1005 C1008 1.350 . S
N1006 S1004 1.610 . S
N1006 C1007 1.351 . S
C1007 C1001 1.428 . S
C1007 N1006 1.351 . S
C1007 C1008 1.434 . S
C1008 C999 1.429 . S
C1008 N1005 1.350 . S
C1008 C1007 1.434 . S
C1009 C1010 1.369 . S
C1009 C1011 1.419 . S
C1009 H1013 0.930 . S
C1010 C1009 1.369 . S
C1010 C1019 1.429 . S
C1011 C1009 1.419 . S
C1011 C1012 1.363 . S
C1011 H1014 0.929 . S
C1012 C1011 1.363 . S
C1012 C1018 1.428 . S
H1013 C1009 0.930 . S
H1014 C1011 0.929 . S
S1015 N1016 1.613 . S
S1015 N1017 1.610 . S
N1016 S1015 1.613 . S
N1016 C1019 1.350 . S
N1017 S1015 1.610 . S
N1017 C1018 1.351 . S
C1018 C1012 1.428 . S
C1018 N1017 1.351 . S
C1018 C1019 1.434 . S
C1019 C1010 1.429 . S
C1019 N1016 1.350 . S
C1019 C1018 1.434 . S
C1020 C1021 1.369 . S
C1020 C1022 1.419 . S
C1020 H1024 0.930 . S
C1021 C1020 1.369 . S
C1021 C1030 1.429 . S
C1022 C1020 1.419 . S
C1022 C1023 1.363 . S
C1022 H1025 0.929 . S
C1023 C1022 1.363 . S
C1023 C1029 1.428 . S
H1024 C1020 0.930 . S
H1025 C1022 0.929 . S
S1026 N1027 1.613 . S
S1026 N1028 1.610 . S
N1027 S1026 1.613 . S
N1027 C1030 1.350 . S
N1028 S1026 1.610 . S
N1028 C1029 1.351 . S
C1029 C1023 1.428 . S
C1029 N1028 1.351 . S
C1029 C1030 1.434 . S
C1030 C1021 1.429 . S
C1030 N1027 1.350 . S
C1030 C1029 1.434 . S
C1031 C1032 1.369 . S
C1031 C1033 1.419 . S
C1031 H1035 0.930 . S
C1032 C1031 1.369 . S
C1032 C1041 1.429 . S
C1033 C1031 1.419 . S
C1033 C1034 1.363 . S
C1033 H1036 0.929 . S
C1034 C1033 1.363 . S
C1034 C1040 1.428 . S
H1035 C1031 0.930 . S
H1036 C1033 0.929 . S
S1037 N1038 1.613 . S
S1037 N1039 1.610 . S
N1038 S1037 1.613 . S
N1038 C1041 1.350 . S
N1039 S1037 1.610 . S
N1039 C1040 1.351 . S
C1040 C1034 1.428 . S
C1040 N1039 1.351 . S
C1040 C1041 1.434 . S
C1041 C1032 1.429 . S
C1041 N1038 1.350 . S
C1041 C1040 1.434 . S
C1042 C1043 1.369 . S
C1042 C1044 1.419 . S
C1042 H1046 0.930 . S
C1043 C1042 1.369 . S
C1043 C1052 1.429 . S
C1044 C1042 1.419 . S
C1044 C1045 1.363 . S
C1044 H1047 0.929 . S
C1045 C1044 1.363 . S
C1045 C1051 1.428 . S
H1046 C1042 0.930 . S
H1047 C1044 0.929 . S
S1048 N1049 1.613 . S
S1048 N1050 1.610 . S
N1049 S1048 1.613 . S
N1049 C1052 1.350 . S
N1050 S1048 1.610 . S
N1050 C1051 1.351 . S
C1051 C1045 1.428 . S
C1051 N1050 1.351 . S
C1051 C1052 1.434 . S
C1052 C1043 1.429 . S
C1052 N1049 1.350 . S
C1052 C1051 1.434 . S
C1053 C1054 1.369 . S
C1053 C1055 1.419 . S
C1053 H1057 0.930 . S
C1054 C1053 1.369 . S
C1054 C1063 1.429 . S
C1055 C1053 1.419 . S
C1055 C1056 1.363 . S
C1055 H1058 0.929 . S
C1056 C1055 1.363 . S
C1056 C1062 1.428 . S
H1057 C1053 0.930 . S
H1058 C1055 0.929 . S
S1059 N1060 1.613 . S
S1059 N1061 1.610 . S
N1060 S1059 1.613 . S
N1060 C1063 1.350 . S
N1061 S1059 1.610 . S
N1061 C1062 1.351 . S
C1062 C1056 1.428 . S
C1062 N1061 1.351 . S
C1062 C1063 1.434 . S
C1063 C1054 1.429 . S
C1063 N1060 1.350 . S
C1063 C1062 1.434 . S
C1064 C1065 1.369 . S
C1064 C1066 1.419 . S
C1064 H1068 0.930 1_545 S
C1065 C1064 1.369 . S
C1065 C1074 1.429 . S
C1066 C1064 1.419 . S
C1066 C1067 1.363 1_655 S
C1066 H1069 0.929 . S
C1067 C1066 1.363 1_455 S
C1067 C1073 1.428 1_455 S
H1068 C1064 0.930 1_565 S
H1069 C1066 0.929 . S
S1070 N1071 1.613 . S
S1070 N1072 1.610 1_655 S
N1071 S1070 1.613 . S
N1071 C1074 1.350 . S
N1072 S1070 1.610 1_455 S
N1072 C1073 1.351 1_455 S
C1073 C1067 1.428 1_655 S
C1073 N1072 1.351 1_655 S
C1073 C1074 1.434 . S
C1074 C1065 1.429 . S
C1074 N1071 1.350 . S
C1074 C1073 1.434 . S
C1075 C1076 1.369 . S
C1075 C1077 1.419 . S
C1075 H1079 0.930 . S
C1076 C1075 1.369 . S
C1076 C1085 1.429 . S
C1077 C1075 1.419 . S
C1077 C1078 1.363 . S
C1077 H1080 0.929 . S
C1078 C1077 1.363 . S
C1078 C1084 1.428 . S
H1079 C1075 0.930 . S
H1080 C1077 0.929 . S
S1081 N1082 1.613 . S
S1081 N1083 1.610 . S
N1082 S1081 1.613 . S
N1082 C1085 1.350 . S
N1083 S1081 1.610 . S
N1083 C1084 1.351 . S
C1084 C1078 1.428 . S
C1084 N1083 1.351 . S
C1084 C1085 1.434 . S
C1085 C1076 1.429 . S
C1085 N1082 1.350 . S
C1085 C1084 1.434 . S
C1086 C1087 1.369 1_565 S
C1086 C1088 1.419 1_565 S
C1086 H1090 0.930 . S
C1087 C1086 1.369 1_545 S
C1087 C1096 1.429 . S
C1088 C1086 1.419 1_545 S
C1088 C1089 1.363 . S
C1088 H1091 0.929 . S
C1089 C1088 1.363 . S
C1089 C1095 1.428 . S
H1090 C1086 0.930 . S
H1091 C1088 0.929 . S
S1092 N1093 1.613 . S
S1092 N1094 1.610 . S
N1093 S1092 1.613 . S
N1093 C1096 1.350 . S
N1094 S1092 1.610 . S
N1094 C1095 1.351 . S
C1095 C1089 1.428 . S
C1095 N1094 1.351 . S
C1095 C1096 1.434 . S
C1096 C1087 1.429 . S
C1096 N1093 1.350 . S
C1096 C1095 1.434 . S
C1097 C1098 1.369 . S
C1097 C1099 1.419 . S
C1097 H1101 0.930 . S
C1098 C1097 1.369 . S
C1098 C1107 1.429 . S
C1099 C1097 1.419 . S
C1099 C1100 1.363 . S
C1099 H1102 0.929 . S
C1100 C1099 1.363 . S
C1100 C1106 1.428 . S
H1101 C1097 0.930 . S
H1102 C1099 0.929 . S
S1103 N1104 1.613 . S
S1103 N1105 1.610 . S
N1104 S1103 1.613 . S
N1104 C1107 1.350 . S
N1105 S1103 1.610 . S
N1105 C1106 1.351 . S
C1106 C1100 1.428 . S
C1106 N1105 1.351 . S
C1106 C1107 1.434 . S
C1107 C1098 1.429 . S
C1107 N1104 1.350 . S
C1107 C1106 1.434 . S
C1108 C1109 1.369 . S
C1108 C1110 1.419 . S
C1108 H1112 0.930 . S
C1109 C1108 1.369 . S
C1109 C1118 1.429 1_545 S
C1110 C1108 1.419 . S
C1110 C1111 1.363 . S
C1110 H1113 0.929 . S
C1111 C1110 1.363 . S
C1111 C1117 1.428 . S
H1112 C1108 0.930 . S
H1113 C1110 0.929 . S
S1114 N1115 1.613 . S
S1114 N1116 1.610 . S
N1115 S1114 1.613 . S
N1115 C1118 1.350 . S
N1116 S1114 1.610 . S
N1116 C1117 1.351 1_565 S
C1117 C1111 1.428 . S
C1117 N1116 1.351 1_545 S
C1117 C1118 1.434 1_545 S
C1118 C1109 1.429 1_565 S
C1118 N1115 1.350 . S
C1118 C1117 1.434 1_565 S
C1119 C1120 1.369 . S
C1119 C1121 1.419 . S
C1119 H1123 0.930 . S
C1120 C1119 1.369 . S
C1120 C1129 1.429 . S
C1121 C1119 1.419 . S
C1121 C1122 1.363 . S
C1121 H1124 0.929 . S
C1122 C1121 1.363 . S
C1122 C1128 1.428 . S
H1123 C1119 0.930 . S
H1124 C1121 0.929 . S
S1125 N1126 1.613 . S
S1125 N1127 1.610 . S
N1126 S1125 1.613 . S
N1126 C1129 1.350 . S
N1127 S1125 1.610 . S
N1127 C1128 1.351 . S
C1128 C1122 1.428 . S
C1128 N1127 1.351 . S
C1128 C1129 1.434 . S
C1129 C1120 1.429 . S
C1129 N1126 1.350 . S
C1129 C1128 1.434 . S
C1130 C1131 1.369 . S
C1130 C1132 1.419 . S
C1130 H1134 0.930 . S
C1131 C1130 1.369 . S
C1131 C1140 1.429 . S
C1132 C1130 1.419 . S
C1132 C1133 1.363 . S
C1132 H1135 0.929 . S
C1133 C1132 1.363 . S
C1133 C1139 1.428 . S
H1134 C1130 0.930 . S
H1135 C1132 0.929 . S
S1136 N1137 1.613 . S
S1136 N1138 1.610 . S
N1137 S1136 1.613 . S
N1137 C1140 1.350 . S
N1138 S1136 1.610 . S
N1138 C1139 1.351 . S
C1139 C1133 1.428 . S
C1139 N1138 1.351 . S
C1139 C1140 1.434 . S
C1140 C1131 1.429 . S
C1140 N1137 1.350 . S
C1140 C1139 1.434 . S
C1141 C1142 1.369 . S
C1141 C1143 1.419 . S
C1141 H1145 0.930 . S
C1142 C1141 1.369 . S
C1142 C1151 1.429 . S
C1143 C1141 1.419 . S
C1143 C1144 1.363 . S
C1143 H1146 0.929 . S
C1144 C1143 1.363 . S
C1144 C1150 1.428 . S
H1145 C1141 0.930 . S
H1146 C1143 0.929 . S
S1147 N1148 1.613 . S
S1147 N1149 1.610 . S
N1148 S1147 1.613 . S
N1148 C1151 1.350 . S
N1149 S1147 1.610 . S
N1149 C1150 1.351 . S
C1150 C1144 1.428 . S
C1150 N1149 1.351 . S
C1150 C1151 1.434 . S
C1151 C1142 1.429 . S
C1151 N1148 1.350 . S
C1151 C1150 1.434 . S
C1152 C1153 1.369 . S
C1152 C1154 1.419 . S
C1152 H1156 0.930 . S
C1153 C1152 1.369 . S
C1153 C1162 1.429 . S
C1154 C1152 1.419 . S
C1154 C1155 1.363 . S
C1154 H1157 0.929 . S
C1155 C1154 1.363 . S
C1155 C1161 1.428 . S
H1156 C1152 0.930 . S
H1157 C1154 0.929 . S
S1158 N1159 1.613 . S
S1158 N1160 1.610 . S
N1159 S1158 1.613 . S
N1159 C1162 1.350 . S
N1160 S1158 1.610 . S
N1160 C1161 1.351 . S
C1161 C1155 1.428 . S
C1161 N1160 1.351 . S
C1161 C1162 1.434 . S
C1162 C1153 1.429 . S
C1162 N1159 1.350 . S
C1162 C1161 1.434 . S
C1163 C1164 1.369 . S
C1163 C1165 1.419 . S
C1163 H1167 0.930 1_554 S
C1164 C1163 1.369 . S
C1164 C1173 1.429 . S
C1165 C1163 1.419 . S
C1165 C1166 1.363 . S
C1165 H1168 0.929 1_554 S
C1166 C1165 1.363 . S
C1166 C1172 1.428 . S
H1167 C1163 0.930 1_556 S
H1168 C1165 0.929 1_556 S
S1169 N1170 1.613 . S
S1169 N1171 1.610 . S
N1170 S1169 1.613 . S
N1170 C1173 1.350 . S
N1171 S1169 1.610 . S
N1171 C1172 1.351 . S
C1172 C1166 1.428 . S
C1172 N1171 1.351 . S
C1172 C1173 1.434 . S
C1173 C1164 1.429 . S
C1173 N1170 1.350 . S
C1173 C1172 1.434 . S
C1174 C1175 1.369 . S
C1174 C1176 1.419 . S
C1174 H1178 0.930 . S
C1175 C1174 1.369 . S
C1175 C1184 1.429 . S
C1176 C1174 1.419 . S
C1176 C1177 1.363 . S
C1176 H1179 0.929 . S
C1177 C1176 1.363 . S
C1177 C1183 1.428 . S
H1178 C1174 0.930 . S
H1179 C1176 0.929 . S
S1180 N1181 1.613 . S
S1180 N1182 1.610 . S
N1181 S1180 1.613 . S
N1181 C1184 1.350 . S
N1182 S1180 1.610 . S
N1182 C1183 1.351 . S
C1183 C1177 1.428 . S
C1183 N1182 1.351 . S
C1183 C1184 1.434 . S
C1184 C1175 1.429 . S
C1184 N1181 1.350 . S
C1184 C1183 1.434 . S
C1185 C1186 1.369 . S
C1185 C1187 1.419 . S
C1185 H1189 0.930 . S
C1186 C1185 1.369 . S
C1186 C1195 1.429 . S
C1187 C1185 1.419 . S
C1187 C1188 1.363 . S
C1187 H1190 0.929 . S
C1188 C1187 1.363 . S
C1188 C1194 1.428 . S
H1189 C1185 0.930 . S
H1190 C1187 0.929 . S
S1191 N1192 1.613 . S
S1191 N1193 1.610 . S
N1192 S1191 1.613 . S
N1192 C1195 1.350 . S
N1193 S1191 1.610 . S
N1193 C1194 1.351 . S
C1194 C1188 1.428 . S
C1194 N1193 1.351 . S
C1194 C1195 1.434 . S
C1195 C1186 1.429 . S
C1195 N1192 1.350 . S
C1195 C1194 1.434 . S
C1196 C1197 1.369 . S
C1196 C1198 1.419 . S
C1196 H1200 0.930 . S
C1197 C1196 1.369 . S
C1197 C1206 1.429 . S
C1198 C1196 1.419 . S
C1198 C1199 1.363 . S
C1198 H1201 0.929 . S
C1199 C1198 1.363 . S
C1199 C1205 1.428 . S
H1200 C1196 0.930 . S
H1201 C1198 0.929 . S
S1202 N1203 1.613 . S
S1202 N1204 1.610 . S
N1203 S1202 1.613 . S
N1203 C1206 1.350 . S
N1204 S1202 1.610 . S
N1204 C1205 1.351 . S
C1205 C1199 1.428 . S
C1205 N1204 1.351 . S
C1205 C1206 1.434 . S
C1206 C1197 1.429 . S
C1206 N1203 1.350 . S
C1206 C1205 1.434 . S
C1207 C1208 1.369 . S
C1207 C1209 1.419 . S
C1207 H1211 0.930 . S
C1208 C1207 1.369 . S
C1208 C1217 1.429 . S
C1209 C1207 1.419 . S
C1209 C1210 1.363 . S
C1209 H1212 0.929 . S
C1210 C1209 1.363 . S
C1210 C1216 1.428 . S
H1211 C1207 0.930 . S
H1212 C1209 0.929 . S
S1213 N1214 1.613 . S
S1213 N1215 1.610 . S
N1214 S1213 1.613 . S
N1214 C1217 1.350 . S
N1215 S1213 1.610 . S
N1215 C1216 1.351 . S
C1216 C1210 1.428 . S
C1216 N1215 1.351 . S
C1216 C1217 1.434 . S
C1217 C1208 1.429 . S
C1217 N1214 1.350 . S
C1217 C1216 1.434 . S
C1218 C1219 1.369 . S
C1218 C1220 1.419 . S
C1218 H1222 0.930 . S
C1219 C1218 1.369 . S
C1219 C1228 1.429 . S
C1220 C1218 1.419 . S
C1220 C1221 1.363 . S
C1220 H1223 0.929 . S
C1221 C1220 1.363 . S
C1221 C1227 1.428 . S
H1222 C1218 0.930 . S
H1223 C1220 0.929 . S
S1224 N1225 1.613 . S
S1224 N1226 1.610 . S
N1225 S1224 1.613 . S
N1225 C1228 1.350 . S
N1226 S1224 1.610 . S
N1226 C1227 1.351 . S
C1227 C1221 1.428 . S
C1227 N1226 1.351 . S
C1227 C1228 1.434 . S
C1228 C1219 1.429 . S
C1228 N1225 1.350 . S
C1228 C1227 1.434 . S
C1229 C1230 1.369 . S
C1229 C1231 1.419 . S
C1229 H1233 0.930 . S
C1230 C1229 1.369 . S
C1230 C1239 1.429 . S
C1231 C1229 1.419 . S
C1231 C1232 1.363 . S
C1231 H1234 0.929 . S
C1232 C1231 1.363 . S
C1232 C1238 1.428 . S
H1233 C1229 0.930 . S
H1234 C1231 0.929 . S
S1235 N1236 1.613 . S
S1235 N1237 1.610 . S
N1236 S1235 1.613 . S
N1236 C1239 1.350 . S
N1237 S1235 1.610 . S
N1237 C1238 1.351 . S
C1238 C1232 1.428 . S
C1238 N1237 1.351 . S
C1238 C1239 1.434 . S
C1239 C1230 1.429 . S
C1239 N1236 1.350 . S
C1239 C1238 1.434 . S
C1240 C1241 1.369 . S
C1240 C1242 1.419 . S
C1240 H1244 0.930 . S
C1241 C1240 1.369 . S
C1241 C1250 1.429 . S
C1242 C1240 1.419 . S
C1242 C1243 1.363 . S
C1242 H1245 0.929 1_565 S
C1243 C1242 1.363 . S
C1243 C1249 1.428 . S
H1244 C1240 0.930 . S
H1245 C1242 0.929 1_545 S
S1246 N1247 1.613 . S
S1246 N1248 1.610 . S
N1247 S1246 1.613 . S
N1247 C1250 1.350 . S
N1248 S1246 1.610 . S
N1248 C1249 1.351 . S
C1249 C1243 1.428 . S
C1249 N1248 1.351 . S
C1249 C1250 1.434 . S
C1250 C1241 1.429 . S
C1250 N1247 1.350 . S
C1250 C1249 1.434 . S
C1251 C1252 1.369 . S
C1251 C1253 1.419 . S
C1251 H1255 0.930 . S
C1252 C1251 1.369 . S
C1252 C1261 1.429 . S
C1253 C1251 1.419 . S
C1253 C1254 1.363 . S
C1253 H1256 0.929 . S
C1254 C1253 1.363 . S
C1254 C1260 1.428 . S
H1255 C1251 0.930 . S
H1256 C1253 0.929 . S
S1257 N1258 1.613 . S
S1257 N1259 1.610 . S
N1258 S1257 1.613 . S
N1258 C1261 1.350 . S
N1259 S1257 1.610 . S
N1259 C1260 1.351 . S
C1260 C1254 1.428 . S
C1260 N1259 1.351 . S
C1260 C1261 1.434 . S
C1261 C1252 1.429 . S
C1261 N1258 1.350 . S
C1261 C1260 1.434 . S
C1262 C1263 1.369 . S
C1262 C1264 1.419 . S
C1262 H1266 0.930 . S
C1263 C1262 1.369 . S
C1263 C1272 1.429 . S
C1264 C1262 1.419 . S
C1264 C1265 1.363 . S
C1264 H1267 0.929 . S
C1265 C1264 1.363 . S
C1265 C1271 1.428 . S
H1266 C1262 0.930 . S
H1267 C1264 0.929 . S
S1268 N1269 1.613 . S
S1268 N1270 1.610 . S
N1269 S1268 1.613 . S
N1269 C1272 1.350 . S
N1270 S1268 1.610 . S
N1270 C1271 1.351 . S
C1271 C1265 1.428 . S
C1271 N1270 1.351 . S
C1271 C1272 1.434 . S
C1272 C1263 1.429 . S
C1272 N1269 1.350 . S
C1272 C1271 1.434 . S
C1273 C1274 1.369 . S
C1273 C1275 1.419 . S
C1273 H1277 0.930 . S
C1274 C1273 1.369 . S
C1274 C1283 1.429 . S
C1275 C1273 1.419 . S
C1275 C1276 1.363 . S
C1275 H1278 0.929 . S
C1276 C1275 1.363 . S
C1276 C1282 1.428 . S
H1277 C1273 0.930 . S
H1278 C1275 0.929 . S
S1279 N1280 1.613 . S
S1279 N1281 1.610 . S
N1280 S1279 1.613 . S
N1280 C1283 1.350 . S
N1281 S1279 1.610 . S
N1281 C1282 1.351 . S
C1282 C1276 1.428 . S
C1282 N1281 1.351 . S
C1282 C1283 1.434 . S
C1283 C1274 1.429 . S
C1283 N1280 1.350 . S
C1283 C1282 1.434 . S
C1284 C1285 1.369 . S
C1284 C1286 1.419 . S
C1284 H1288 0.930 . S
C1285 C1284 1.369 . S
C1285 C1294 1.429 . S
C1286 C1284 1.419 . S
C1286 C1287 1.363 . S
C1286 H1289 0.929 . S
C1287 C1286 1.363 . S
C1287 C1293 1.428 . S
H1288 C1284 0.930 . S
H1289 C1286 0.929 . S
S1290 N1291 1.613 . S
S1290 N1292 1.610 . S
N1291 S1290 1.613 . S
N1291 C1294 1.350 . S
N1292 S1290 1.610 . S
N1292 C1293 1.351 . S
C1293 C1287 1.428 . S
C1293 N1292 1.351 . S
C1293 C1294 1.434 . S
C1294 C1285 1.429 . S
C1294 N1291 1.350 . S
C1294 C1293 1.434 . S
C1295 C1296 1.369 . S
C1295 C1297 1.419 . S
C1295 H1299 0.930 . S
C1296 C1295 1.369 . S
C1296 C1305 1.429 . S
C1297 C1295 1.419 . S
C1297 C1298 1.363 . S
C1297 H1300 0.929 . S
C1298 C1297 1.363 . S
C1298 C1304 1.428 . S
H1299 C1295 0.930 . S
H1300 C1297 0.929 . S
S1301 N1302 1.613 . S
S1301 N1303 1.610 . S
N1302 S1301 1.613 . S
N1302 C1305 1.350 . S
N1303 S1301 1.610 . S
N1303 C1304 1.351 . S
C1304 C1298 1.428 . S
C1304 N1303 1.351 . S
C1304 C1305 1.434 . S
C1305 C1296 1.429 . S
C1305 N1302 1.350 . S
C1305 C1304 1.434 . S
C1306 C1307 1.369 . S
C1306 C1308 1.419 . S
C1306 H1310 0.930 . S
C1307 C1306 1.369 . S
C1307 C1316 1.429 . S
C1308 C1306 1.419 . S
C1308 C1309 1.363 . S
C1308 H1311 0.929 . S
C1309 C1308 1.363 . S
C1309 C1315 1.428 . S
H1310 C1306 0.930 . S
H1311 C1308 0.929 . S
S1312 N1313 1.613 . S
S1312 N1314 1.610 . S
N1313 S1312 1.613 . S
N1313 C1316 1.350 . S
N1314 S1312 1.610 . S
N1314 C1315 1.351 . S
C1315 C1309 1.428 . S
C1315 N1314 1.351 . S
C1315 C1316 1.434 . S
C1316 C1307 1.429 . S
C1316 N1313 1.350 . S
C1316 C1315 1.434 . S
C1317 C1318 1.369 . S
C1317 C1319 1.419 . S
C1317 H1321 0.930 . S
C1318 C1317 1.369 . S
C1318 C1327 1.429 . S
C1319 C1317 1.419 . S
C1319 C1320 1.363 . S
C1319 H1322 0.929 . S
C1320 C1319 1.363 . S
C1320 C1326 1.428 . S
H1321 C1317 0.930 . S
H1322 C1319 0.929 . S
S1323 N1324 1.613 . S
S1323 N1325 1.610 . S
N1324 S1323 1.613 . S
N1324 C1327 1.350 . S
N1325 S1323 1.610 . S
N1325 C1326 1.351 . S
C1326 C1320 1.428 . S
C1326 N1325 1.351 . S
C1326 C1327 1.434 . S
C1327 C1318 1.429 . S
C1327 N1324 1.350 . S
C1327 C1326 1.434 . S
C1328 C1329 1.369 . S
C1328 C1330 1.419 . S
C1328 H1332 0.930 . S
C1329 C1328 1.369 . S
C1329 C1338 1.429 . S
C1330 C1328 1.419 . S
C1330 C1331 1.363 . S
C1330 H1333 0.929 . S
C1331 C1330 1.363 . S
C1331 C1337 1.428 . S
H1332 C1328 0.930 . S
H1333 C1330 0.929 . S
S1334 N1335 1.613 . S
S1334 N1336 1.610 . S
N1335 S1334 1.613 . S
N1335 C1338 1.350 . S
N1336 S1334 1.610 . S
N1336 C1337 1.351 . S
C1337 C1331 1.428 . S
C1337 N1336 1.351 . S
C1337 C1338 1.434 . S
C1338 C1329 1.429 . S
C1338 N1335 1.350 . S
C1338 C1337 1.434 . S
C1339 C1340 1.369 . S
C1339 C1341 1.419 . S
C1339 H1343 0.930 . S
C1340 C1339 1.369 . S
C1340 C1349 1.429 . S
C1341 C1339 1.419 . S
C1341 C1342 1.363 . S
C1341 H1344 0.929 . S
C1342 C1341 1.363 . S
C1342 C1348 1.428 . S
H1343 C1339 0.930 . S
H1344 C1341 0.929 . S
S1345 N1346 1.613 . S
S1345 N1347 1.610 . S
N1346 S1345 1.613 . S
N1346 C1349 1.350 . S
N1347 S1345 1.610 . S
N1347 C1348 1.351 . S
C1348 C1342 1.428 . S
C1348 N1347 1.351 . S
C1348 C1349 1.434 . S
C1349 C1340 1.429 . S
C1349 N1346 1.350 . S
C1349 C1348 1.434 . S
C1350 C1351 1.369 . S
C1350 C1352 1.419 . S
C1350 H1354 0.930 . S
C1351 C1350 1.369 . S
C1351 C1360 1.429 . S
C1352 C1350 1.419 . S
C1352 C1353 1.363 . S
C1352 H1355 0.929 . S
C1353 C1352 1.363 . S
C1353 C1359 1.428 . S
H1354 C1350 0.930 . S
H1355 C1352 0.929 . S
S1356 N1357 1.613 . S
S1356 N1358 1.610 . S
N1357 S1356 1.613 . S
N1357 C1360 1.350 . S
N1358 S1356 1.610 . S
N1358 C1359 1.351 . S
C1359 C1353 1.428 . S
C1359 N1358 1.351 . S
C1359 C1360 1.434 . S
C1360 C1351 1.429 . S
C1360 N1357 1.350 . S
C1360 C1359 1.434 . S
C1361 C1362 1.369 . S
C1361 C1363 1.419 . S
C1361 H1365 0.930 . S
C1362 C1361 1.369 . S
C1362 C1371 1.429 . S
C1363 C1361 1.419 . S
C1363 C1364 1.363 . S
C1363 H1366 0.929 . S
C1364 C1363 1.363 . S
C1364 C1370 1.428 . S
H1365 C1361 0.930 . S
H1366 C1363 0.929 . S
S1367 N1368 1.613 . S
S1367 N1369 1.610 . S
N1368 S1367 1.613 . S
N1368 C1371 1.350 . S
N1369 S1367 1.610 . S
N1369 C1370 1.351 . S
C1370 C1364 1.428 . S
C1370 N1369 1.351 . S
C1370 C1371 1.434 . S
C1371 C1362 1.429 . S
C1371 N1368 1.350 . S
C1371 C1370 1.434 . S
C1372 C1373 1.369 . S
C1372 C1374 1.419 . S
C1372 H1376 0.930 . S
C1373 C1372 1.369 . S
C1373 C1382 1.429 . S
C1374 C1372 1.419 . S
C1374 C1375 1.363 . S
C1374 H1377 0.929 . S
C1375 C1374 1.363 . S
C1375 C1381 1.428 . S
H1376 C1372 0.930 . S
H1377 C1374 0.929 . S
S1378 N1379 1.613 . S
S1378 N1380 1.610 . S
N1379 S1378 1.613 . S
N1379 C1382 1.350 . S
N1380 S1378 1.610 . S
N1380 C1381 1.351 . S
C1381 C1375 1.428 . S
C1381 N1380 1.351 . S
C1381 C1382 1.434 . S
C1382 C1373 1.429 . S
C1382 N1379 1.350 . S
C1382 C1381 1.434 . S
C1383 C1384 1.369 . S
C1383 C1385 1.419 . S
C1383 H1387 0.930 . S
C1384 C1383 1.369 . S
C1384 C1393 1.429 . S
C1385 C1383 1.419 . S
C1385 C1386 1.363 . S
C1385 H1388 0.929 . S
C1386 C1385 1.363 . S
C1386 C1392 1.428 . S
H1387 C1383 0.930 . S
H1388 C1385 0.929 . S
S1389 N1390 1.613 . S
S1389 N1391 1.610 . S
N1390 S1389 1.613 . S
N1390 C1393 1.350 . S
N1391 S1389 1.610 . S
N1391 C1392 1.351 . S
C1392 C1386 1.428 . S
C1392 N1391 1.351 . S
C1392 C1393 1.434 . S
C1393 C1384 1.429 . S
C1393 N1390 1.350 . S
C1393 C1392 1.434 . S
C1394 C1395 1.369 . S
C1394 C1396 1.419 . S
C1394 H1398 0.930 . S
C1395 C1394 1.369 . S
C1395 C1404 1.429 . S
C1396 C1394 1.419 . S
C1396 C1397 1.363 . S
C1396 H1399 0.929 . S
C1397 C1396 1.363 . S
C1397 C1403 1.428 . S
H1398 C1394 0.930 . S
H1399 C1396 0.929 . S
S1400 N1401 1.613 . S
S1400 N1402 1.610 . S
N1401 S1400 1.613 . S
N1401 C1404 1.350 . S
N1402 S1400 1.610 . S
N1402 C1403 1.351 . S
C1403 C1397 1.428 . S
C1403 N1402 1.351 . S
C1403 C1404 1.434 . S
C1404 C1395 1.429 . S
C1404 N1401 1.350 . S
C1404 C1403 1.434 . S
C1405 C1406 1.369 . S
C1405 C1407 1.419 . S
C1405 H1409 0.930 . S
C1406 C1405 1.369 . S
C1406 C1415 1.429 . S
C1407 C1405 1.419 . S
C1407 C1408 1.363 . S
C1407 H1410 0.929 . S
C1408 C1407 1.363 . S
C1408 C1414 1.428 . S
H1409 C1405 0.930 . S
H1410 C1407 0.929 . S
S1411 N1412 1.613 . S
S1411 N1413 1.610 . S
N1412 S1411 1.613 . S
N1412 C1415 1.350 . S
N1413 S1411 1.610 . S
N1413 C1414 1.351 . S
C1414 C1408 1.428 . S
C1414 N1413 1.351 . S
C1414 C1415 1.434 . S
C1415 C1406 1.429 . S
C1415 N1412 1.350 . S
C1415 C1414 1.434 . S
C1416 C1417 1.369 . S
C1416 C1418 1.419 . S
C1416 H1420 0.930 . S
C1417 C1416 1.369 . S
C1417 C1426 1.429 . S
C1418 C1416 1.419 . S
C1418 C1419 1.363 . S
C1418 H1421 0.929 . S
C1419 C1418 1.363 . S
C1419 C1425 1.428 . S
H1420 C1416 0.930 . S
H1421 C1418 0.929 . S
S1422 N1423 1.613 . S
S1422 N1424 1.610 . S
N1423 S1422 1.613 . S
N1423 C1426 1.350 . S
N1424 S1422 1.610 . S
N1424 C1425 1.351 . S
C1425 C1419 1.428 . S
C1425 N1424 1.351 . S
C1425 C1426 1.434 . S
C1426 C1417 1.429 . S
C1426 N1423 1.350 . S
C1426 C1425 1.434 . S
C1427 C1428 1.369 . S
C1427 C1429 1.419 . S
C1427 H1431 0.930 . S
C1428 C1427 1.369 . S
C1428 C1437 1.429 . S
C1429 C1427 1.419 . S
C1429 C1430 1.363 . S
C1429 H1432 0.929 . S
C1430 C1429 1.363 . S
C1430 C1436 1.428 . S
H1431 C1427 0.930 . S
H1432 C1429 0.929 . S
S1433 N1434 1.613 . S
S1433 N1435 1.610 . S
N1434 S1433 1.613 . S
N1434 C1437 1.350 1_556 S
N1435 S1433 1.610 . S
N1435 C1436 1.351 1_556 S
C1436 C1430 1.428 . S
C1436 N1435 1.351 1_554 S
C1436 C1437 1.434 . S
C1437 C1428 1.429 . S
C1437 N1434 1.350 1_554 S
C1437 C1436 1.434 . S
C1438 C1439 1.369 . S
C1438 C1440 1.419 . S
C1438 H1442 0.930 . S
C1439 C1438 1.369 . S
C1439 C1448 1.429 . S
C1440 C1438 1.419 . S
C1440 C1441 1.363 . S
C1440 H1443 0.929 . S
C1441 C1440 1.363 . S
C1441 C1447 1.428 . S
H1442 C1438 0.930 . S
H1443 C1440 0.929 . S
S1444 N1445 1.613 . S
S1444 N1446 1.610 . S
N1445 S1444 1.613 . S
N1445 C1448 1.350 . S
N1446 S1444 1.610 . S
N1446 C1447 1.351 . S
C1447 C1441 1.428 . S
C1447 N1446 1.351 . S
C1447 C1448 1.434 . S
C1448 C1439 1.429 . S
C1448 N1445 1.350 . S
C1448 C1447 1.434 . S
C1449 C1450 1.369 . S
C1449 C1451 1.419 . S
C1449 H1453 0.930 . S
C1450 C1449 1.369 . S
C1450 C1459 1.429 . S
C1451 C1449 1.419 . S
C1451 C1452 1.363 . S
C1451 H1454 0.929 . S
C1452 C1451 1.363 . S
C1452 C1458 1.428 . S
H1453 C1449 0.930 . S
H1454 C1451 0.929 . S
S1455 N1456 1.613 . S
S1455 N1457 1.610 . S
N1456 S1455 1.613 . S
N1456 C1459 1.350 . S
N1457 S1455 1.610 . S
N1457 C1458 1.351 . S
C1458 C1452 1.428 . S
C1458 N1457 1.351 . S
C1458 C1459 1.434 . S
C1459 C1450 1.429 . S
C1459 N1456 1.350 . S
C1459 C1458 1.434 . S
C1460 C1461 1.369 . S
C1460 C1462 1.419 . S
C1460 H1464 0.930 . S
C1461 C1460 1.369 . S
C1461 C1470 1.429 . S
C1462 C1460 1.419 . S
C1462 C1463 1.363 . S
C1462 H1465 0.929 . S
C1463 C1462 1.363 . S
C1463 C1469 1.428 . S
H1464 C1460 0.930 . S
H1465 C1462 0.929 . S
S1466 N1467 1.613 . S
S1466 N1468 1.610 . S
N1467 S1466 1.613 . S
N1467 C1470 1.350 . S
N1468 S1466 1.610 . S
N1468 C1469 1.351 . S
C1469 C1463 1.428 . S
C1469 N1468 1.351 . S
C1469 C1470 1.434 . S
C1470 C1461 1.429 . S
C1470 N1467 1.350 . S
C1470 C1469 1.434 . S
C1471 C1472 1.369 . S
C1471 C1473 1.419 1_565 S
C1471 H1475 0.930 1_565 S
C1472 C1471 1.369 . S
C1472 C1481 1.429 . S
C1473 C1471 1.419 1_545 S
C1473 C1474 1.363 1_545 S
C1473 H1476 0.929 . S
C1474 C1473 1.363 1_565 S
C1474 C1480 1.428 . S
H1475 C1471 0.930 1_545 S
H1476 C1473 0.929 . S
S1477 N1478 1.613 . S
S1477 N1479 1.610 . S
N1478 S1477 1.613 . S
N1478 C1481 1.350 . S
N1479 S1477 1.610 . S
N1479 C1480 1.351 . S
C1480 C1474 1.428 . S
C1480 N1479 1.351 . S
C1480 C1481 1.434 . S
C1481 C1472 1.429 . S
C1481 N1478 1.350 . S
C1481 C1480 1.434 . S
C1482 C1483 1.369 . S
C1482 C1484 1.419 . S
C1482 H1486 0.930 . S
C1483 C1482 1.369 . S
C1483 C1492 1.429 . S
C1484 C1482 1.419 . S
C1484 C1485 1.363 . S
C1484 H1487 0.929 . S
C1485 C1484 1.363 . S
C1485 C1491 1.428 . S
H1486 C1482 0.930 . S
H1487 C1484 0.929 . S
S1488 N1489 1.613 . S
S1488 N1490 1.610 . S
N1489 S1488 1.613 . S
N1489 C1492 1.350 . S
N1490 S1488 1.610 . S
N1490 C1491 1.351 . S
C1491 C1485 1.428 . S
C1491 N1490 1.351 . S
C1491 C1492 1.434 . S
C1492 C1483 1.429 . S
C1492 N1489 1.350 . S
C1492 C1491 1.434 . S
C1493 C1494 1.369 . S
C1493 C1495 1.419 . S
C1493 H1497 0.930 . S
C1494 C1493 1.369 . S
C1494 C1503 1.429 . S
C1495 C1493 1.419 . S
C1495 C1496 1.363 . S
C1495 H1498 0.929 . S
C1496 C1495 1.363 . S
C1496 C1502 1.428 . S
H1497 C1493 0.930 . S
H1498 C1495 0.929 . S
S1499 N1500 1.613 . S
S1499 N1501 1.610 . S
N1500 S1499 1.613 . S
N1500 C1503 1.350 . S
N1501 S1499 1.610 . S
N1501 C1502 1.351 . S
C1502 C1496 1.428 . S
C1502 N1501 1.351 . S
C1502 C1503 1.434 . S
C1503 C1494 1.429 . S
C1503 N1500 1.350 . S
C1503 C1502 1.434 . S
C1504 C1505 1.369 . S
C1504 C1506 1.419 . S
C1504 H1508 0.930 . S
C1505 C1504 1.369 . S
C1505 C1514 1.429 . S
C1506 C1504 1.419 . S
C1506 C1507 1.363 . S
C1506 H1509 0.929 . S
C1507 C1506 1.363 . S
C1507 C1513 1.428 . S
H1508 C1504 0.930 . S
H1509 C1506 0.929 . S
S1510 N1511 1.613 . S
S1510 N1512 1.610 . S
N1511 S1510 1.613 . S
N1511 C1514 1.350 . S
N1512 S1510 1.610 . S
N1512 C1513 1.351 . S
C1513 C1507 1.428 . S
C1513 N1512 1.351 . S
C1513 C1514 1.434 . S
C1514 C1505 1.429 . S
C1514 N1511 1.350 . S
C1514 C1513 1.434 . S
C1515 C1516 1.369 . S
C1515 C1517 1.419 . S
C1515 H1519 0.930 . S
C1516 C1515 1.369 . S
C1516 C1525 1.429 . S
C1517 C1515 1.419 . S
C1517 C1518 1.363 . S
C1517 H1520 0.929 . S
C1518 C1517 1.363 . S
C1518 C1524 1.428 . S
H1519 C1515 0.930 . S
H1520 C1517 0.929 . S
S1521 N1522 1.613 . S
S1521 N1523 1.610 . S
N1522 S1521 1.613 . S
N1522 C1525 1.350 . S
N1523 S1521 1.610 . S
N1523 C1524 1.351 . S
C1524 C1518 1.428 . S
C1524 N1523 1.351 . S
C1524 C1525 1.434 . S
C1525 C1516 1.429 . S
C1525 N1522 1.350 . S
C1525 C1524 1.434 . S
C1526 C1527 1.369 . S
C1526 C1528 1.419 . S
C1526 H1530 0.930 . S
C1527 C1526 1.369 . S
C1527 C1536 1.429 1_455 S
C1528 C1526 1.419 . S
C1528 C1529 1.363 . S
C1528 H1531 0.929 . S
C1529 C1528 1.363 . S
C1529 C1535 1.428 1_455 S
H1530 C1526 0.930 . S
H1531 C1528 0.929 . S
S1532 N1533 1.613 . S
S1532 N1534 1.610 . S
N1533 S1532 1.613 . S
N1533 C1536 1.350 . S
N1534 S1532 1.610 . S
N1534 C1535 1.351 . S
C1535 C1529 1.428 1_655 S
C1535 N1534 1.351 . S
C1535 C1536 1.434 . S
C1536 C1527 1.429 1_655 S
C1536 N1533 1.350 . S
C1536 C1535 1.434 . S
C1537 C1538 1.369 . S
C1537 C1539 1.419 . S
C1537 H1541 0.930 . S
C1538 C1537 1.369 . S
C1538 C1547 1.429 . S
C1539 C1537 1.419 . S
C1539 C1540 1.380 . S
C1539 H1542 0.929 . S
C1540 C1539 1.380 . S
C1540 C1546 1.430 1_455 S
H1541 C1537 0.930 . S
H1542 C1539 0.929 . S
S1543 N1544 1.613 1_655 S
S1543 N1545 1.610 . S
N1544 S1543 1.613 1_455 S
N1544 C1547 1.350 . S
N1545 S1543 1.610 . S
N1545 C1546 1.372 . S
C1546 C1540 1.430 1_655 S
C1546 N1545 1.372 . S
C1546 C1547 1.413 1_655 S
C1547 C1538 1.429 . S
C1547 N1544 1.350 . S
C1547 C1546 1.413 1_455 S
C1548 C1549 1.369 . S
C1548 C1550 1.419 . S
C1548 H1552 0.930 . S
C1549 C1548 1.369 . S
C1549 C1558 1.429 . S
C1550 C1548 1.419 . S
C1550 C1551 1.363 . S
C1550 H1553 0.929 . S
C1551 C1550 1.363 . S
C1551 C1557 1.428 . S
H1552 C1548 0.930 . S
H1553 C1550 0.929 . S
S1554 N1555 1.613 . S
S1554 N1556 1.610 . S
N1555 S1554 1.613 . S
N1555 C1558 1.350 . S
N1556 S1554 1.610 . S
N1556 C1557 1.351 . S
C1557 C1551 1.428 . S
C1557 N1556 1.351 . S
C1557 C1558 1.434 . S
C1558 C1549 1.429 . S
C1558 N1555 1.350 . S
C1558 C1557 1.434 . S
C1559 C1560 1.369 . S
C1559 C1561 1.419 . S
C1559 H1563 0.930 . S
C1560 C1559 1.369 . S
C1560 C1569 1.429 . S
C1561 C1559 1.419 . S
C1561 C1562 1.363 . S
C1561 H1564 0.929 . S
C1562 C1561 1.363 . S
C1562 C1568 1.428 . S
H1563 C1559 0.930 . S
H1564 C1561 0.929 . S
S1565 N1566 1.613 . S
S1565 N1567 1.610 . S
N1566 S1565 1.613 . S
N1566 C1569 1.350 . S
N1567 S1565 1.610 . S
N1567 C1568 1.351 . S
C1568 C1562 1.428 . S
C1568 N1567 1.351 . S
C1568 C1569 1.434 . S
C1569 C1560 1.429 . S
C1569 N1566 1.350 . S
C1569 C1568 1.434 . S
C1570 C1571 1.369 . S
C1570 C1572 1.419 . S
C1570 H1574 0.930 . S
C1571 C1570 1.369 . S
C1571 C1580 1.429 . S
C1572 C1570 1.419 . S
C1572 C1573 1.363 . S
C1572 H1575 0.929 . S
C1573 C1572 1.363 . S
C1573 C1579 1.428 . S
H1574 C1570 0.930 . S
H1575 C1572 0.929 . S
S1576 N1577 1.613 . S
S1576 N1578 1.610 . S
N1577 S1576 1.613 . S
N1577 C1580 1.350 1_655 S
N1578 S1576 1.610 . S
N1578 C1579 1.351 1_655 S
C1579 C1573 1.428 . S
C1579 N1578 1.351 1_455 S
C1579 C1580 1.434 . S
C1580 C1571 1.429 . S
C1580 N1577 1.350 1_455 S
C1580 C1579 1.434 . S
C1581 C1582 1.369 . S
C1581 C1583 1.419 . S
C1581 H1585 0.930 . S
C1582 C1581 1.369 . S
C1582 C1591 1.429 . S
C1583 C1581 1.419 . S
C1583 C1584 1.363 . S
C1583 H1586 0.929 . S
C1584 C1583 1.363 . S
C1584 C1590 1.428 . S
H1585 C1581 0.930 . S
H1586 C1583 0.929 . S
S1587 N1588 1.613 . S
S1587 N1589 1.610 . S
N1588 S1587 1.613 . S
N1588 C1591 1.350 . S
N1589 S1587 1.610 . S
N1589 C1590 1.351 . S
C1590 C1584 1.428 . S
C1590 N1589 1.351 . S
C1590 C1591 1.434 . S
C1591 C1582 1.429 . S
C1591 N1588 1.350 . S
C1591 C1590 1.434 . S
C1592 C1593 1.369 . S
C1592 C1594 1.419 . S
C1592 H1596 0.930 . S
C1593 C1592 1.369 . S
C1593 C1602 1.429 . S
C1594 C1592 1.419 . S
C1594 C1595 1.363 . S
C1594 H1597 0.929 . S
C1595 C1594 1.363 . S
C1595 C1601 1.428 . S
H1596 C1592 0.930 . S
H1597 C1594 0.929 . S
S1598 N1599 1.613 . S
S1598 N1600 1.610 . S
N1599 S1598 1.613 . S
N1599 C1602 1.350 . S
N1600 S1598 1.610 . S
N1600 C1601 1.351 . S
C1601 C1595 1.428 . S
C1601 N1600 1.351 . S
C1601 C1602 1.434 . S
C1602 C1593 1.429 . S
C1602 N1599 1.350 . S
C1602 C1601 1.434 . S
C1603 C1604 1.369 . S
C1603 C1605 1.419 . S
C1603 H1607 0.930 . S
C1604 C1603 1.369 . S
C1604 C1613 1.429 . S
C1605 C1603 1.419 . S
C1605 C1606 1.363 . S
C1605 H1608 0.929 . S
C1606 C1605 1.363 . S
C1606 C1612 1.428 . S
H1607 C1603 0.930 . S
H1608 C1605 0.929 . S
S1609 N1610 1.613 . S
S1609 N1611 1.610 . S
N1610 S1609 1.613 . S
N1610 C1613 1.350 . S
N1611 S1609 1.610 . S
N1611 C1612 1.351 . S
C1612 C1606 1.428 . S
C1612 N1611 1.351 . S
C1612 C1613 1.434 . S
C1613 C1604 1.429 . S
C1613 N1610 1.350 . S
C1613 C1612 1.434 . S
C1614 C1615 1.369 . S
C1614 C1616 1.419 . S
C1614 H1618 0.930 . S
C1615 C1614 1.369 . S
C1615 C1624 1.429 . S
C1616 C1614 1.419 . S
C1616 C1617 1.363 . S
C1616 H1619 0.929 . S
C1617 C1616 1.363 . S
C1617 C1623 1.428 . S
H1618 C1614 0.930 . S
H1619 C1616 0.929 . S
S1620 N1621 1.613 . S
S1620 N1622 1.610 . S
N1621 S1620 1.613 . S
N1621 C1624 1.350 . S
N1622 S1620 1.610 . S
N1622 C1623 1.351 . S
C1623 C1617 1.428 . S
C1623 N1622 1.351 . S
C1623 C1624 1.434 . S
C1624 C1615 1.429 . S
C1624 N1621 1.350 . S
C1624 C1623 1.434 . S
C1625 C1626 1.369 . S
C1625 C1627 1.419 . S
C1625 H1629 0.930 . S
C1626 C1625 1.369 . S
C1626 C1635 1.429 . S
C1627 C1625 1.419 . S
C1627 C1628 1.363 . S
C1627 H1630 0.929 . S
C1628 C1627 1.363 . S
C1628 C1634 1.428 . S
H1629 C1625 0.930 . S
H1630 C1627 0.929 . S
S1631 N1632 1.613 . S
S1631 N1633 1.610 . S
N1632 S1631 1.613 . S
N1632 C1635 1.350 . S
N1633 S1631 1.610 . S
N1633 C1634 1.351 . S
C1634 C1628 1.428 . S
C1634 N1633 1.351 . S
C1634 C1635 1.434 . S
C1635 C1626 1.429 . S
C1635 N1632 1.350 . S
C1635 C1634 1.434 . S
C1636 C1637 1.369 . S
C1636 C1638 1.419 . S
C1636 H1640 0.930 . S
C1637 C1636 1.369 . S
C1637 C1646 1.429 . S
C1638 C1636 1.419 . S
C1638 C1639 1.363 . S
C1638 H1641 0.929 . S
C1639 C1638 1.363 . S
C1639 C1645 1.428 . S
H1640 C1636 0.930 . S
H1641 C1638 0.929 . S
S1642 N1643 1.613 . S
S1642 N1644 1.610 . S
N1643 S1642 1.613 . S
N1643 C1646 1.350 . S
N1644 S1642 1.610 . S
N1644 C1645 1.351 . S
C1645 C1639 1.428 . S
C1645 N1644 1.351 . S
C1645 C1646 1.434 . S
C1646 C1637 1.429 . S
C1646 N1643 1.350 . S
C1646 C1645 1.434 . S
C1647 C1648 1.369 . S
C1647 C1649 1.419 . S
C1647 H1651 0.930 . S
C1648 C1647 1.369 . S
C1648 C1657 1.429 . S
C1649 C1647 1.419 . S
C1649 C1650 1.363 . S
C1649 H1652 0.929 . S
C1650 C1649 1.363 . S
C1650 C1656 1.428 . S
H1651 C1647 0.930 . S
H1652 C1649 0.929 . S
S1653 N1654 1.613 . S
S1653 N1655 1.610 . S
N1654 S1653 1.613 . S
N1654 C1657 1.350 . S
N1655 S1653 1.610 . S
N1655 C1656 1.351 . S
C1656 C1650 1.428 . S
C1656 N1655 1.351 . S
C1656 C1657 1.434 . S
C1657 C1648 1.429 . S
C1657 N1654 1.350 . S
C1657 C1656 1.434 . S
C1658 C1659 1.369 . S
C1658 C1660 1.419 . S
C1658 H1662 0.930 . S
C1659 C1658 1.369 . S
C1659 C1668 1.429 . S
C1660 C1658 1.419 . S
C1660 C1661 1.363 . S
C1660 H1663 0.929 . S
C1661 C1660 1.363 . S
C1661 C1667 1.428 . S
H1662 C1658 0.930 . S
H1663 C1660 0.929 . S
S1664 N1665 1.613 . S
S1664 N1666 1.610 . S
N1665 S1664 1.613 . S
N1665 C1668 1.350 . S
N1666 S1664 1.610 . S
N1666 C1667 1.351 . S
C1667 C1661 1.428 . S
C1667 N1666 1.351 . S
C1667 C1668 1.434 . S
C1668 C1659 1.429 . S
C1668 N1665 1.350 . S
C1668 C1667 1.434 . S
C1669 C1670 1.369 . S
C1669 C1671 1.419 . S
C1669 H1673 0.930 . S
C1670 C1669 1.369 . S
C1670 C1679 1.429 . S
C1671 C1669 1.419 . S
C1671 C1672 1.363 . S
C1671 H1674 0.929 . S
C1672 C1671 1.363 . S
C1672 C1678 1.428 . S
H1673 C1669 0.930 . S
H1674 C1671 0.929 . S
S1675 N1676 1.613 . S
S1675 N1677 1.610 . S
N1676 S1675 1.613 . S
N1676 C1679 1.350 . S
N1677 S1675 1.610 . S
N1677 C1678 1.351 . S
C1678 C1672 1.428 . S
C1678 N1677 1.351 . S
C1678 C1679 1.434 . S
C1679 C1670 1.429 . S
C1679 N1676 1.350 . S
C1679 C1678 1.434 . S
C1680 C1681 1.369 . S
C1680 C1682 1.419 . S
C1680 H1684 0.930 . S
C1681 C1680 1.369 . S
C1681 C1690 1.429 . S
C1682 C1680 1.419 . S
C1682 C1683 1.363 . S
C1682 H1685 0.929 . S
C1683 C1682 1.363 . S
C1683 C1689 1.428 . S
H1684 C1680 0.930 . S
H1685 C1682 0.929 . S
S1686 N1687 1.613 . S
S1686 N1688 1.610 . S
N1687 S1686 1.613 . S
N1687 C1690 1.350 . S
N1688 S1686 1.610 . S
N1688 C1689 1.351 . S
C1689 C1683 1.428 . S
C1689 N1688 1.351 . S
C1689 C1690 1.434 . S
C1690 C1681 1.429 . S
C1690 N1687 1.350 . S
C1690 C1689 1.434 . S
C1691 C1692 1.369 . S
C1691 C1693 1.419 . S
C1691 H1695 0.930 . S
C1692 C1691 1.369 . S
C1692 C1701 1.429 . S
C1693 C1691 1.419 . S
C1693 C1694 1.363 . S
C1693 H1696 0.929 . S
C1694 C1693 1.363 . S
C1694 C1700 1.428 . S
H1695 C1691 0.930 . S
H1696 C1693 0.929 . S
S1697 N1698 1.613 . S
S1697 N1699 1.610 . S
N1698 S1697 1.613 . S
N1698 C1701 1.350 . S
N1699 S1697 1.610 . S
N1699 C1700 1.351 . S
C1700 C1694 1.428 . S
C1700 N1699 1.351 . S
C1700 C1701 1.434 . S
C1701 C1692 1.429 . S
C1701 N1698 1.350 . S
C1701 C1700 1.434 . S
C1702 C1703 1.369 . S
C1702 C1704 1.419 . S
C1702 H1706 0.930 . S
C1703 C1702 1.369 . S
C1703 C1712 1.429 1_545 S
C1704 C1702 1.419 . S
C1704 C1705 1.363 1_545 S
C1704 H1707 0.929 . S
C1705 C1704 1.363 1_565 S
C1705 C1711 1.428 . S
H1706 C1702 0.930 . S
H1707 C1704 0.929 . S
S1708 N1709 1.613 . S
S1708 N1710 1.610 . S
N1709 S1708 1.613 . S
N1709 C1712 1.350 . S
N1710 S1708 1.610 . S
N1710 C1711 1.351 . S
C1711 C1705 1.428 . S
C1711 N1710 1.351 . S
C1711 C1712 1.434 . S
C1712 C1703 1.429 1_565 S
C1712 N1709 1.350 . S
C1712 C1711 1.434 . S
C1713 C1714 1.369 . S
C1713 C1715 1.419 . S
C1713 H1717 0.930 . S
C1714 C1713 1.369 . S
C1714 C1723 1.429 . S
C1715 C1713 1.419 . S
C1715 C1716 1.362 . S
C1715 H1718 0.929 1_565 S
C1716 C1715 1.362 . S
C1716 C1722 1.463 . S
H1717 C1713 0.930 . S
H1718 C1715 0.929 1_545 S
S1719 N1720 1.613 . S
S1719 N1721 1.610 . S
N1720 S1719 1.613 . S
N1720 C1723 1.350 . S
N1721 S1719 1.610 . S
N1721 C1722 1.351 . S
C1722 C1716 1.463 . S
C1722 N1721 1.351 . S
C1722 C1723 1.434 . S
C1723 C1714 1.429 . S
C1723 N1720 1.350 . S
C1723 C1722 1.434 . S
C1724 C1725 1.369 . S
C1724 C1726 1.419 . S
C1724 H1728 0.930 . S
C1725 C1724 1.369 . S
C1725 C1734 1.429 . S
C1726 C1724 1.419 . S
C1726 C1727 1.363 . S
C1726 H1729 0.929 . S
C1727 C1726 1.363 . S
C1727 C1733 1.428 . S
H1728 C1724 0.930 . S
H1729 C1726 0.929 . S
S1730 N1731 1.613 . S
S1730 N1732 1.610 . S
N1731 S1730 1.613 . S
N1731 C1734 1.350 . S
N1732 S1730 1.610 . S
N1732 C1733 1.351 . S
C1733 C1727 1.428 . S
C1733 N1732 1.351 . S
C1733 C1734 1.434 . S
C1734 C1725 1.429 . S
C1734 N1731 1.350 . S
C1734 C1733 1.434 . S
C1735 C1736 1.369 . S
C1735 C1737 1.419 . S
C1735 H1739 0.930 . S
C1736 C1735 1.369 . S
C1736 C1745 1.429 . S
C1737 C1735 1.419 . S
C1737 C1738 1.363 . S
C1737 H1740 0.929 . S
C1738 C1737 1.363 . S
C1738 C1744 1.428 . S
H1739 C1735 0.930 . S
H1740 C1737 0.929 . S
S1741 N1742 1.613 . S
S1741 N1743 1.610 . S
N1742 S1741 1.613 . S
N1742 C1745 1.350 1_556 S
N1743 S1741 1.610 . S
N1743 C1744 1.351 1_556 S
C1744 C1738 1.428 . S
C1744 N1743 1.351 1_554 S
C1744 C1745 1.434 . S
C1745 C1736 1.429 . S
C1745 N1742 1.350 1_554 S
C1745 C1744 1.434 . S
C1746 C1747 1.369 . S
C1746 C1748 1.419 . S
C1746 H1750 0.930 . S
C1747 C1746 1.369 . S
C1747 C1756 1.429 . S
C1748 C1746 1.419 . S
C1748 C1749 1.363 . S
C1748 H1751 0.929 . S
C1749 C1748 1.363 . S
C1749 C1755 1.428 . S
H1750 C1746 0.930 . S
H1751 C1748 0.929 . S
S1752 N1753 1.613 . S
S1752 N1754 1.610 . S
N1753 S1752 1.613 . S
N1753 C1756 1.350 . S
N1754 S1752 1.610 . S
N1754 C1755 1.351 . S
C1755 C1749 1.428 . S
C1755 N1754 1.351 . S
C1755 C1756 1.434 . S
C1756 C1747 1.429 . S
C1756 N1753 1.350 . S
C1756 C1755 1.434 . S
C1757 C1758 1.369 . S
C1757 C1759 1.419 1_545 S
C1757 H1761 0.930 . S
C1758 C1757 1.369 . S
C1758 C1767 1.429 . S
C1759 C1757 1.419 1_565 S
C1759 C1760 1.363 . S
C1759 H1762 0.929 . S
C1760 C1759 1.363 . S
C1760 C1766 1.428 . S
H1761 C1757 0.930 . S
H1762 C1759 0.929 . S
S1763 N1764 1.613 . S
S1763 N1765 1.610 1_545 S
N1764 S1763 1.613 . S
N1764 C1767 1.350 . S
N1765 S1763 1.610 1_565 S
N1765 C1766 1.351 . S
C1766 C1760 1.428 . S
C1766 N1765 1.351 . S
C1766 C1767 1.434 1_565 S
C1767 C1758 1.429 . S
C1767 N1764 1.350 . S
C1767 C1766 1.434 1_545 S
C1768 C1769 1.369 . S
C1768 C1770 1.419 . S
C1768 H1772 0.930 . S
C1769 C1768 1.369 . S
C1769 C1778 1.429 . S
C1770 C1768 1.419 . S
C1770 C1771 1.363 . S
C1770 H1773 0.929 . S
C1771 C1770 1.363 . S
C1771 C1777 1.428 . S
H1772 C1768 0.930 . S
H1773 C1770 0.929 . S
S1774 N1775 1.613 . S
S1774 N1776 1.610 . S
N1775 S1774 1.613 . S
N1775 C1778 1.350 . S
N1776 S1774 1.610 . S
N1776 C1777 1.351 . S
C1777 C1771 1.428 . S
C1777 N1776 1.351 . S
C1777 C1778 1.434 . S
C1778 C1769 1.429 . S
C1778 N1775 1.350 . S
C1778 C1777 1.434 . S
C1779 C1780 1.369 . S
C1779 C1781 1.419 . S
C1779 H1783 0.930 . S
C1780 C1779 1.369 . S
C1780 C1789 1.429 . S
C1781 C1779 1.419 . S
C1781 C1782 1.363 . S
C1781 H1784 0.929 . S
C1782 C1781 1.363 . S
C1782 C1788 1.428 . S
H1783 C1779 0.930 . S
H1784 C1781 0.929 . S
S1785 N1786 1.613 . S
S1785 N1787 1.610 . S
N1786 S1785 1.613 . S
N1786 C1789 1.350 . S
N1787 S1785 1.610 . S
N1787 C1788 1.351 . S
C1788 C1782 1.428 . S
C1788 N1787 1.351 . S
C1788 C1789 1.434 . S
C1789 C1780 1.429 . S
C1789 N1786 1.350 . S
C1789 C1788 1.434 . S
C1790 C1791 1.369 . S
C1790 C1792 1.419 . S
C1790 H1794 0.930 . S
C1791 C1790 1.369 . S
C1791 C1800 1.429 . S
C1792 C1790 1.419 . S
C1792 C1793 1.363 . S
C1792 H1795 0.929 . S
C1793 C1792 1.363 . S
C1793 C1799 1.428 . S
H1794 C1790 0.930 . S
H1795 C1792 0.929 . S
S1796 N1797 1.613 . S
S1796 N1798 1.610 . S
N1797 S1796 1.613 . S
N1797 C1800 1.350 . S
N1798 S1796 1.610 . S
N1798 C1799 1.351 . S
C1799 C1793 1.428 . S
C1799 N1798 1.351 . S
C1799 C1800 1.434 . S
C1800 C1791 1.429 . S
C1800 N1797 1.350 . S
C1800 C1799 1.434 . S
C1801 C1802 1.369 . S
C1801 C1803 1.419 . S
C1801 H1805 0.930 . S
C1802 C1801 1.369 . S
C1802 C1811 1.429 . S
C1803 C1801 1.419 . S
C1803 C1804 1.363 . S
C1803 H1806 0.929 . S
C1804 C1803 1.363 . S
C1804 C1810 1.428 . S
H1805 C1801 0.930 . S
H1806 C1803 0.929 . S
S1807 N1808 1.613 . S
S1807 N1809 1.610 . S
N1808 S1807 1.613 . S
N1808 C1811 1.350 . S
N1809 S1807 1.610 . S
N1809 C1810 1.351 . S
C1810 C1804 1.428 . S
C1810 N1809 1.351 . S
C1810 C1811 1.434 . S
C1811 C1802 1.429 . S
C1811 N1808 1.350 . S
C1811 C1810 1.434 . S
C1812 C1813 1.369 . S
C1812 C1814 1.419 . S
C1812 H1816 0.930 . S
C1813 C1812 1.369 . S
C1813 C1822 1.429 . S
C1814 C1812 1.419 . S
C1814 C1815 1.363 . S
C1814 H1817 0.929 . S
C1815 C1814 1.363 . S
C1815 C1821 1.428 . S
H1816 C1812 0.930 . S
H1817 C1814 0.929 . S
S1818 N1819 1.613 . S
S1818 N1820 1.610 . S
N1819 S1818 1.613 . S
N1819 C1822 1.350 . S
N1820 S1818 1.610 . S
N1820 C1821 1.351 . S
C1821 C1815 1.428 . S
C1821 N1820 1.351 . S
C1821 C1822 1.434 . S
C1822 C1813 1.429 . S
C1822 N1819 1.350 . S
C1822 C1821 1.434 . S
C1823 C1824 1.369 . S
C1823 C1825 1.419 . S
C1823 H1827 0.930 . S
C1824 C1823 1.369 . S
C1824 C1833 1.429 . S
C1825 C1823 1.419 . S
C1825 C1826 1.363 . S
C1825 H1828 0.929 . S
C1826 C1825 1.363 . S
C1826 C1832 1.428 . S
H1827 C1823 0.930 . S
H1828 C1825 0.929 . S
S1829 N1830 1.613 . S
S1829 N1831 1.610 . S
N1830 S1829 1.613 . S
N1830 C1833 1.350 . S
N1831 S1829 1.610 . S
N1831 C1832 1.351 . S
C1832 C1826 1.428 . S
C1832 N1831 1.351 . S
C1832 C1833 1.434 . S
C1833 C1824 1.429 . S
C1833 N1830 1.350 . S
C1833 C1832 1.434 . S
C1834 C1835 1.369 . S
C1834 C1836 1.419 . S
C1834 H1838 0.930 . S
C1835 C1834 1.369 . S
C1835 C1844 1.429 . S
C1836 C1834 1.419 . S
C1836 C1837 1.363 . S
C1836 H1839 0.929 . S
C1837 C1836 1.363 . S
C1837 C1843 1.428 . S
H1838 C1834 0.930 . S
H1839 C1836 0.929 . S
S1840 N1841 1.613 . S
S1840 N1842 1.610 . S
N1841 S1840 1.613 . S
N1841 C1844 1.350 . S
N1842 S1840 1.610 . S
N1842 C1843 1.351 . S
C1843 C1837 1.428 . S
C1843 N1842 1.351 . S
C1843 C1844 1.434 . S
C1844 C1835 1.429 . S
C1844 N1841 1.350 . S
C1844 C1843 1.434 . S
C1845 C1846 1.369 . S
C1845 C1847 1.419 . S
C1845 H1849 0.930 . S
C1846 C1845 1.369 . S
C1846 C1855 1.429 . S
C1847 C1845 1.419 . S
C1847 C1848 1.363 . S
C1847 H1850 0.929 . S
C1848 C1847 1.363 . S
C1848 C1854 1.428 . S
H1849 C1845 0.930 . S
H1850 C1847 0.929 . S
S1851 N1852 1.613 . S
S1851 N1853 1.610 . S
N1852 S1851 1.613 . S
N1852 C1855 1.350 . S
N1853 S1851 1.610 . S
N1853 C1854 1.351 . S
C1854 C1848 1.428 . S
C1854 N1853 1.351 . S
C1854 C1855 1.434 . S
C1855 C1846 1.429 . S
C1855 N1852 1.350 . S
C1855 C1854 1.434 . S
C1856 C1857 1.369 . S
C1856 C1858 1.419 . S
C1856 H1860 0.930 . S
C1857 C1856 1.369 . S
C1857 C1866 1.429 . S
C1858 C1856 1.419 . S
C1858 C1859 1.363 . S
C1858 H1861 0.929 . S
C1859 C1858 1.363 . S
C1859 C1865 1.428 . S
H1860 C1856 0.930 . S
H1861 C1858 0.929 . S
S1862 N1863 1.613 . S
S1862 N1864 1.610 . S
N1863 S1862 1.613 . S
N1863 C1866 1.350 . S
N1864 S1862 1.610 . S
N1864 C1865 1.351 . S
C1865 C1859 1.428 . S
C1865 N1864 1.351 . S
C1865 C1866 1.434 . S
C1866 C1857 1.429 . S
C1866 N1863 1.350 . S
C1866 C1865 1.434 . S
C1867 C1868 1.369 . S
C1867 C1869 1.419 . S
C1867 H1871 0.930 . S
C1868 C1867 1.369 . S
C1868 C1877 1.429 . S
C1869 C1867 1.419 . S
C1869 C1870 1.363 . S
C1869 H1872 0.929 . S
C1870 C1869 1.363 . S
C1870 C1876 1.428 . S
H1871 C1867 0.930 . S
H1872 C1869 0.929 . S
S1873 N1874 1.613 . S
S1873 N1875 1.610 . S
N1874 S1873 1.613 . S
N1874 C1877 1.350 . S
N1875 S1873 1.610 . S
N1875 C1876 1.351 . S
C1876 C1870 1.428 . S
C1876 N1875 1.351 . S
C1876 C1877 1.434 . S
C1877 C1868 1.429 . S
C1877 N1874 1.350 . S
C1877 C1876 1.434 . S
C1878 C1879 1.369 . S
C1878 C1880 1.419 . S
C1878 H1882 0.930 . S
C1879 C1878 1.369 . S
C1879 C1888 1.429 . S
C1880 C1878 1.419 . S
C1880 C1881 1.363 . S
C1880 H1883 0.929 . S
C1881 C1880 1.363 . S
C1881 C1887 1.428 . S
H1882 C1878 0.930 . S
H1883 C1880 0.929 . S
S1884 N1885 1.613 . S
S1884 N1886 1.610 . S
N1885 S1884 1.613 . S
N1885 C1888 1.350 . S
N1886 S1884 1.610 . S
N1886 C1887 1.351 . S
C1887 C1881 1.428 . S
C1887 N1886 1.351 . S
C1887 C1888 1.434 . S
C1888 C1879 1.429 . S
C1888 N1885 1.350 . S
C1888 C1887 1.434 . S
C1889 C1890 1.369 . S
C1889 C1891 1.419 . S
C1889 H1893 0.930 . S
C1890 C1889 1.369 . S
C1890 C1899 1.429 . S
C1891 C1889 1.419 . S
C1891 C1892 1.363 . S
C1891 H1894 0.929 . S
C1892 C1891 1.363 . S
C1892 C1898 1.428 . S
H1893 C1889 0.930 . S
H1894 C1891 0.929 . S
S1895 N1896 1.613 . S
S1895 N1897 1.610 . S
N1896 S1895 1.613 . S
N1896 C1899 1.350 . S
N1897 S1895 1.610 . S
N1897 C1898 1.351 . S
C1898 C1892 1.428 . S
C1898 N1897 1.351 . S
C1898 C1899 1.434 . S
C1899 C1890 1.429 . S
C1899 N1896 1.350 . S
C1899 C1898 1.434 . S
C1900 C1901 1.369 . S
C1900 C1902 1.419 . S
C1900 H1904 0.930 . S
C1901 C1900 1.369 . S
C1901 C1910 1.429 . S
C1902 C1900 1.419 . S
C1902 C1903 1.363 . S
C1902 H1905 0.929 . S
C1903 C1902 1.363 . S
C1903 C1909 1.428 . S
H1904 C1900 0.930 . S
H1905 C1902 0.929 . S
S1906 N1907 1.613 . S
S1906 N1908 1.610 . S
N1907 S1906 1.613 . S
N1907 C1910 1.350 . S
N1908 S1906 1.610 . S
N1908 C1909 1.351 . S
C1909 C1903 1.428 . S
C1909 N1908 1.351 . S
C1909 C1910 1.434 . S
C1910 C1901 1.429 . S
C1910 N1907 1.350 . S
C1910 C1909 1.434 . S
C1911 C1912 1.369 . S
C1911 C1913 1.419 . S
C1911 H1915 0.930 . S
C1912 C1911 1.369 . S
C1912 C1921 1.429 . S
C1913 C1911 1.419 . S
C1913 C1914 1.363 . S
C1913 H1916 0.929 . S
C1914 C1913 1.363 . S
C1914 C1920 1.428 . S
H1915 C1911 0.930 . S
H1916 C1913 0.929 . S
S1917 N1918 1.613 . S
S1917 N1919 1.610 . S
N1918 S1917 1.613 . S
N1918 C1921 1.350 . S
N1919 S1917 1.610 . S
N1919 C1920 1.351 . S
C1920 C1914 1.428 . S
C1920 N1919 1.351 . S
C1920 C1921 1.434 . S
C1921 C1912 1.429 . S
C1921 N1918 1.350 . S
C1921 C1920 1.434 . S
C1922 C1923 1.369 . S
C1922 C1924 1.419 . S
C1922 H1926 0.930 . S
C1923 C1922 1.369 . S
C1923 C1932 1.429 . S
C1924 C1922 1.419 . S
C1924 C1925 1.363 . S
C1924 H1927 0.929 1_455 S
C1925 C1924 1.363 . S
C1925 C1931 1.428 . S
H1926 C1922 0.930 . S
H1927 C1924 0.929 1_655 S
S1928 N1929 1.613 . S
S1928 N1930 1.610 . S
N1929 S1928 1.613 . S
N1929 C1932 1.350 . S
N1930 S1928 1.610 . S
N1930 C1931 1.351 . S
C1931 C1925 1.428 . S
C1931 N1930 1.351 . S
C1931 C1932 1.434 . S
C1932 C1923 1.429 . S
C1932 N1929 1.350 . S
C1932 C1931 1.434 . S
C1933 C1934 1.369 . S
C1933 C1935 1.419 . S
C1933 H1937 0.930 . S
C1934 C1933 1.369 . S
C1934 C1943 1.429 . S
C1935 C1933 1.419 . S
C1935 C1936 1.363 . S
C1935 H1938 0.929 . S
C1936 C1935 1.363 . S
C1936 C1942 1.428 . S
H1937 C1933 0.930 . S
H1938 C1935 0.929 . S
S1939 N1940 1.613 . S
S1939 N1941 1.610 . S
N1940 S1939 1.613 . S
N1940 C1943 1.350 . S
N1941 S1939 1.610 . S
N1941 C1942 1.351 . S
C1942 C1936 1.428 . S
C1942 N1941 1.351 . S
C1942 C1943 1.434 . S
C1943 C1934 1.429 . S
C1943 N1940 1.350 . S
C1943 C1942 1.434 . S
C1944 C1945 1.369 . S
C1944 C1946 1.419 . S
C1944 H1948 0.930 . S
C1945 C1944 1.369 . S
C1945 C1954 1.429 . S
C1946 C1944 1.419 . S
C1946 C1947 1.363 . S
C1946 H1949 0.929 . S
C1947 C1946 1.363 . S
C1947 C1953 1.428 . S
H1948 C1944 0.930 . S
H1949 C1946 0.929 . S
S1950 N1951 1.613 . S
S1950 N1952 1.610 . S
N1951 S1950 1.613 . S
N1951 C1954 1.350 . S
N1952 S1950 1.610 . S
N1952 C1953 1.351 . S
C1953 C1947 1.428 . S
C1953 N1952 1.351 . S
C1953 C1954 1.434 . S
C1954 C1945 1.429 . S
C1954 N1951 1.350 . S
C1954 C1953 1.434 . S
C1955 C1956 1.369 . S
C1955 C1957 1.419 . S
C1955 H1959 0.930 . S
C1956 C1955 1.369 . S
C1956 C1965 1.429 . S
C1957 C1955 1.419 . S
C1957 C1958 1.363 1_565 S
C1957 H1960 0.929 . S
C1958 C1957 1.363 1_545 S
C1958 C1964 1.428 . S
H1959 C1955 0.930 . S
H1960 C1957 0.929 . S
S1961 N1962 1.613 1_545 S
S1961 N1963 1.610 . S
N1962 S1961 1.613 1_565 S
N1962 C1965 1.350 . S
N1963 S1961 1.610 . S
N1963 C1964 1.351 . S
C1964 C1958 1.428 . S
C1964 N1963 1.351 . S
C1964 C1965 1.434 1_545 S
C1965 C1956 1.429 . S
C1965 N1962 1.350 . S
C1965 C1964 1.434 1_565 S
C1966 C1967 1.369 . S
C1966 C1968 1.419 . S
C1966 H1970 0.930 . S
C1967 C1966 1.369 . S
C1967 C1976 1.429 . S
C1968 C1966 1.419 . S
C1968 C1969 1.363 . S
C1968 H1971 0.929 . S
C1969 C1968 1.363 . S
C1969 C1975 1.428 . S
H1970 C1966 0.930 . S
H1971 C1968 0.929 . S
S1972 N1973 1.613 . S
S1972 N1974 1.610 . S
N1973 S1972 1.613 . S
N1973 C1976 1.350 . S
N1974 S1972 1.610 . S
N1974 C1975 1.351 . S
C1975 C1969 1.428 . S
C1975 N1974 1.351 . S
C1975 C1976 1.434 . S
C1976 C1967 1.429 . S
C1976 N1973 1.350 . S
C1976 C1975 1.434 . S
C1977 C1978 1.369 1_554 S
C1977 C1979 1.419 . S
C1977 H1981 0.930 . S
C1978 C1977 1.369 1_556 S
C1978 C1987 1.429 . S
C1979 C1977 1.419 . S
C1979 C1980 1.363 . S
C1979 H1982 0.929 . S
C1980 C1979 1.363 . S
C1980 C1986 1.428 1_554 S
H1981 C1977 0.930 . S
H1982 C1979 0.929 . S
S1983 N1984 1.613 . S
S1983 N1985 1.610 . S
N1984 S1983 1.613 . S
N1984 C1987 1.350 . S
N1985 S1983 1.610 . S
N1985 C1986 1.351 . S
C1986 C1980 1.428 1_556 S
C1986 N1985 1.351 . S
C1986 C1987 1.434 . S
C1987 C1978 1.429 . S
C1987 N1984 1.350 . S
C1987 C1986 1.434 . S
C1988 C1989 1.369 . S
C1988 C1990 1.419 . S
C1988 H1992 0.930 . S
C1989 C1988 1.369 . S
C1989 C1998 1.429 . S
C1990 C1988 1.419 . S
C1990 C1991 1.363 . S
C1990 H1993 0.929 . S
C1991 C1990 1.363 . S
C1991 C1997 1.428 . S
H1992 C1988 0.930 . S
H1993 C1990 0.929 . S
S1994 N1995 1.613 . S
S1994 N1996 1.610 . S
N1995 S1994 1.613 . S
N1995 C1998 1.350 . S
N1996 S1994 1.610 . S
N1996 C1997 1.351 . S
C1997 C1991 1.428 . S
C1997 N1996 1.351 . S
C1997 C1998 1.434 . S
C1998 C1989 1.429 . S
C1998 N1995 1.350 . S
C1998 C1997 1.434 . S
C1999 C2000 1.369 . S
C1999 C2001 1.419 . S
C1999 H2003 0.930 . S
C2000 C1999 1.369 . S
C2000 C2009 1.430 . S
C2001 C1999 1.419 . S
C2001 C2002 1.363 . S
C2001 H2004 0.929 . S
C2002 C2001 1.363 . S
C2002 C2008 1.428 1_554 S
H2003 C1999 0.930 . S
H2004 C2001 0.929 . S
S2005 N2006 1.613 . S
S2005 N2007 1.610 . S
N2006 S2005 1.613 . S
N2006 C2009 1.348 1_556 S
N2007 S2005 1.610 . S
N2007 C2008 1.351 . S
C2008 C2002 1.428 1_556 S
C2008 N2007 1.351 . S
C2008 C2009 1.434 1_556 S
C2009 C2000 1.430 . S
C2009 N2006 1.348 1_554 S
C2009 C2008 1.434 1_554 S
C2010 C2011 1.369 . S
C2010 C2012 1.419 . S
C2010 H2014 0.930 . S
C2011 C2010 1.369 . S
C2011 C2020 1.429 . S
C2012 C2010 1.419 . S
C2012 C2013 1.363 . S
C2012 H2015 0.929 . S
C2013 C2012 1.363 . S
C2013 C2019 1.428 . S
H2014 C2010 0.930 . S
H2015 C2012 0.929 . S
S2016 N2017 1.613 . S
S2016 N2018 1.610 . S
N2017 S2016 1.613 . S
N2017 C2020 1.350 . S
N2018 S2016 1.610 . S
N2018 C2019 1.351 . S
C2019 C2013 1.428 . S
C2019 N2018 1.351 . S
C2019 C2020 1.434 . S
C2020 C2011 1.429 . S
C2020 N2017 1.350 . S
C2020 C2019 1.434 . S
C2021 C2022 1.369 . S
C2021 C2023 1.419 . S
C2021 H2025 0.930 . S
C2022 C2021 1.369 . S
C2022 C2031 1.429 . S
C2023 C2021 1.419 . S
C2023 C2024 1.363 . S
C2023 H2026 0.929 . S
C2024 C2023 1.363 . S
C2024 C2030 1.428 . S
H2025 C2021 0.930 . S
H2026 C2023 0.929 . S
S2027 N2028 1.613 . S
S2027 N2029 1.610 . S
N2028 S2027 1.613 . S
N2028 C2031 1.350 . S
N2029 S2027 1.610 . S
N2029 C2030 1.351 . S
C2030 C2024 1.428 . S
C2030 N2029 1.351 . S
C2030 C2031 1.434 . S
C2031 C2022 1.429 . S
C2031 N2028 1.350 . S
C2031 C2030 1.434 . S
C977 C109 1.843 1_455 S
C979 C358 1.860 . S
C988 C65 1.430 . S
C990 C378 1.408 . S
C999 C75 0.863 . S
C1001 C425 0.855 . S
C1012 C482 1.214 . S
C1010 C84 1.225 . S
C1021 C25 2.616 . S
C1023 C499 2.595 1_565 S
C1034 C558 1.891 . S
C1032 C28 1.884 . S
C1045 C591 2.752 . S
C1043 C47 2.750 . S
C1054 C9 2.595 . S
C1056 C638 2.549 . S
C1067 C351 1.938 . S
C1065 C233 1.865 . S
C1076 C249 1.569 . S
C1078 C379 1.554 . S
C1089 C418 0.695 . S
C1087 C275 0.686 . S
C1100 C478 2.272 . S
C1098 C173 2.251 . S
C1109 C224 0.701 . S
C1111 C505 0.693 . S
C1122 C551 2.254 . S
C1120 C243 2.263 . S
C1133 C602 0.904 . S
C1131 C266 0.926 . S
C1144 C631 2.340 . S
C1142 C179 2.306 . S
C1155 C362 2.118 1_565 S
C1153 C163 2.209 . S
C1164 C289 2.203 . S
C1166 C658 2.163 . S
C1177 C722 1.565 . S
C1175 C333 1.556 . S
C1188 C758 1.548 . S
C1186 C308 1.499 . S
C1197 C123 1.833 . S
C1199 C642 1.904 . S
C1208 C126 2.637 . S
C1210 C419 2.650 . S
C1219 C327 1.588 . S
C1221 C791 1.657 . S
C1232 C825 0.593 . S
C1230 C299 0.540 . S
C1243 C339 1.944 1_565 S
C1241 C67 1.942 . S
C1254 C831 1.598 . S
C1252 C98 1.557 . S
C1263 C89 0.885 . S
C1265 C442 0.883 . S
C1274 C79 1.335 . S
C1276 C785 1.287 . S
C1287 C518 2.619 . S
C1285 C11 2.641 . S
C1296 C51 1.948 . S
C1298 C699 1.926 . S
C1309 C578 2.758 1_566 S
C1307 C33 2.765 . S
C1320 C859 2.549 . S
C1318 C14 2.580 . S
C1331 C338 1.831 . S
C1329 C140 1.765 . S
C1342 C838 1.581 . S
C1340 C319 1.593 . S
C1351 C112 0.674 . S
C1353 C431 0.696 . S
C1362 C285 2.255 . S
C1364 C779 2.274 . S
C1373 C149 0.741 . S
C1375 C522 0.736 . S
C1386 C698 2.293 . S
C1384 C313 2.306 . S
C1395 C121 0.928 . S
C1397 C585 0.919 . S
C1406 C291 2.313 . S
C1408 C858 2.345 . S
C1417 C182 2.087 1_556 S
C1419 C345 2.007 . S
C1428 C168 2.152 . S
C1430 C671 2.140 . S
C1439 C263 1.597 . S
C1441 C545 1.588 . S
C1450 C247 1.627 . S
C1452 C739 1.613 . S
C1463 C865 1.851 . S
C1461 C277 1.798 . S
C1472 C219 2.662 . S
C1474 C438 2.658 1_565 S
C1485 C458 1.679 . S
C1483 C257 1.608 . S
C1496 C402 0.687 . S
C1494 C201 0.705 . S
C1505 C81 1.970 . S
C1507 C918 1.995 . S
C1518 C818 1.407 . S
C1516 C93 1.452 . S
C1527 C103 0.789 . S
C1529 C945 0.786 . S
C1538 C56 1.264 . S
C1540 C802 1.238 1_455 S
C1549 C53 2.605 . S
C1551 C659 2.584 . S
C1562 C718 1.920 . S
C1560 C0 1.940 . S
C1573 C751 2.761 . S
C1571 C19 2.760 . S
C1584 C878 2.486 . S
C1582 C37 2.537 . S
C1595 C911 1.887 . S
C1593 C261 1.820 . S
C1604 C193 1.545 . S
C1606 C819 1.532 . S
C1617 C938 0.713 . S
C1615 C205 0.688 . S
C1628 C798 2.264 . S
C1626 C215 2.249 . S
C1639 C665 0.684 . S
C1637 C252 0.690 . S
C1648 C187 2.296 . S
C1650 C711 2.285 . S
C1661 C762 0.890 . S
C1659 C196 0.924 . S
C1670 C221 2.287 . S
C1672 C871 2.316 . S
C1683 C922 2.136 . S
C1681 C317 2.227 . S
C1692 C135 2.236 . S
C1694 C498 2.194 . S
C1705 C562 1.523 . S
C1703 C151 1.525 . S
C1716 C598 1.525 1_565 S
C1714 C154 1.506 . S
C1727 C882 1.671 . S
C1725 C305 1.627 . S
C1736 C280 2.660 . S
C1738 C939 2.670 1_655 S
C1749 C471 1.685 . S
C1747 C145 1.623 . S
C1760 C385 0.675 . S
C1758 C117 0.690 . S
C1769 C95 1.977 . S
C1771 C899 1.992 . S
C1782 C391 1.412 . S
C1780 C70 1.350 . S
C1791 C61 0.893 . S
C1793 C962 0.893 . S
C1802 C107 1.227 . S
C1804 C465 1.163 . S
C1813 C39 2.633 . S
C1815 C678 2.622 . S
C1826 C539 1.948 . S
C1824 C23 1.971 . S
C1835 C5 2.794 . S
C1837 C738 2.795 . S
C1846 C42 2.537 . S
C1848 C619 2.500 . S
C1859 C898 1.867 . S
C1857 C322 1.791 . S
C1868 C165 1.577 . S
C1870 C398 1.566 . S
C1881 C951 0.635 . S
C1879 C294 0.610 . S
C1890 C131 2.272 . S
C1892 C459 2.288 . S
C1901 C331 0.711 . S
C1903 C682 0.730 . S
C1914 C538 2.323 . S
C1912 C159 2.366 . S
C1923 C303 0.905 . S
C1925 C745 0.855 . S
C1936 C618 2.337 . S
C1934 C137 2.311 . S
C1947 C905 2.068 . S
C1945 C238 2.151 . S
C1958 C511 2.186 . S
C1956 C210 2.194 . S
C1967 C235 1.563 . S
C1969 C705 1.555 . S
C1980 C579 1.570 . S
C1978 C191 1.591 . S
C1989 C207 1.803 . S
C1991 C625 1.839 . S
C2000 C177 2.698 . S
C2002 C958 2.691 . S
C2013 C778 1.698 . S
C2011 C229 1.628 . S
C2024 C842 0.723 . S
C2022 C271 0.741 . S
