# Generated by pormake.
# Topology nia, (6,6)-cn, num edge types: 1
# Building blocks:
#     Node 0, Type 0, BuildingBlock: INOVEN_clean_sbu_0, # of connection points: 6
#     Node 1, Type 0, BuildingBlock: INOVEN_clean_sbu_0, # of connection points: 6
#     Node 2, Type 1, BuildingBlock: MIDCAF_clean_sbu_0, # of connection points: 6
#     Node 3, Type 1, BuildingBlock: MIDCAF_clean_sbu_0, # of connection points: 6
#     Edge 4, Type (0, 1), BuildingBlock: TEMPAE_clean_linker_10, # of connection points: 2
#     Edge 5, Type (0, 1), BuildingBlock: TEMPAE_clean_linker_10, # of connection points: 2
#     Edge 6, Type (0, 1), BuildingBlock: TEMPAE_clean_linker_10, # of connection points: 2
#     Edge 7, Type (0, 1), BuildingBlock: TEMPAE_clean_linker_10, # of connection points: 2
#     Edge 8, Type (0, 1), BuildingBlock: TEMPAE_clean_linker_10, # of connection points: 2
#     Edge 9, Type (0, 1), BuildingBlock: TEMPAE_clean_linker_10, # of connection points: 2
#     Edge 10, Type (0, 1), BuildingBlock: TEMPAE_clean_linker_10, # of connection points: 2
#     Edge 11, Type (0, 1), BuildingBlock: TEMPAE_clean_linker_10, # of connection points: 2
#     Edge 12, Type (0, 1), BuildingBlock: TEMPAE_clean_linker_10, # of connection points: 2
#     Edge 13, Type (0, 1), BuildingBlock: TEMPAE_clean_linker_10, # of connection points: 2
#     Edge 14, Type (0, 1), BuildingBlock: TEMPAE_clean_linker_10, # of connection points: 2
#     Edge 15, Type (0, 1), BuildingBlock: TEMPAE_clean_linker_10, # of connection points: 2
# Relax obj value: 0.324
# Max RMSD: 0.269
# Mean RMSD: 0.251
data_MOF--net-nia--node1-INOVEN_clean_sbu_0--node2-MIDCAF_clean_sbu_0--edge1-TEMPAE_clean_linker_10
_symmetry_space_group_name_H-M    P1
_symmetry_Int_Tables_number       1
_symmetry_cell_setting            triclinic
loop_
_symmetry_equiv_pos_as_xyz
'x, y, z'
_cell_length_a     25.747049
_cell_length_b     28.349561
_cell_length_c     34.478971
_cell_angle_alpha  71.66589
_cell_angle_beta   100.59027
_cell_angle_gamma 126.95988
loop_
_atom_site_label
_atom_site_type_symbol
_atom_site_fract_x
_atom_site_fract_y
_atom_site_fract_z
_atom_type_partial_charge
Gd0 Gd 0.0793 0.06667 0.02441 0.0
Gd1 Gd 0.97173 0.94486 1.00061 0.0
C2 C 0.96479 0.06189 0.96486 0.0
C3 C 0.18628 0.17064 0.02723 0.0
C4 C 0.21607 0.20423 0.05848 0.0
C5 C 0.19965 0.17324 0.09982 0.0
C6 C 0.25293 0.26796 0.04631 0.0
C7 C 0.25107 0.26972 0.11602 0.0
C8 C 0.2702 0.30055 0.07481 0.0
C9 C 0.21742 0.20588 0.1285 0.0
C10 C 0.97733 -0.0043 0.07898 0.0
C11 C 0.08388 0.94726 0.06134 0.0
C12 C 0.8678 0.84578 0.98755 0.0
C13 C 0.86008 0.79748 0.97529 0.0
C14 C 0.91544 0.80027 0.97214 0.0
C15 C 0.79971 0.753 0.96223 0.0
C16 C 0.85107 0.71693 0.94011 0.0
C17 C 0.79508 0.71237 0.9449 0.0
C18 C 0.91103 0.76034 0.95439 0.0
C19 C 0.08475 0.01532 0.95767 0.0
O20 O 0.02462 0.09759 0.97771 0.0
O21 O 0.93305 0.00189 0.97357 0.0
O22 O 0.18295 0.12058 0.03497 0.0
O23 O 0.13247 0.16433 1.01243 0.0
O24 O 0.02932 0.04901 0.08139 0.0
O25 O 0.98511 0.98466 0.04889 0.0
O26 O 0.02371 0.91189 0.04855 0.0
O27 O 0.11592 0.00753 0.05219 0.0
O28 O 0.89578 0.89799 0.9596 0.0
O29 O 0.89133 0.8509 0.02428 0.0
O30 O 0.04638 0.95615 0.96544 0.0
O31 O 0.05825 0.03397 0.96964 0.0
H32 H 0.17042 0.12375 0.10956 0.0
H33 H 0.26499 0.29226 0.01436 0.0
H34 H 0.29501 0.34958 0.06398 0.0
H35 H 0.20261 0.18104 0.16007 0.0
H36 H 0.9624 0.83462 0.98219 0.0
H37 H 0.75689 0.75101 0.96423 0.0
H38 H 0.74844 0.67893 0.9339 0.0
H39 H 0.95444 0.76381 0.95131 0.0
Gd40 Gd 0.99844 0.02762 0.53098 0.0
Gd41 Gd 0.07803 -0.00361 0.50355 0.0
C42 C 0.95066 0.96793 0.45451 0.0
C43 C 0.95289 0.08622 0.53378 0.0
C44 C 0.9195 0.09003 0.56136 0.0
C45 C 0.93106 0.08018 0.60358 0.0
C46 C 0.8775 0.10691 0.54445 0.0
C47 C 0.8629 0.1095 0.6111 0.0
C48 C 0.84921 0.11638 0.56912 0.0
C49 C 0.90281 0.08988 0.62839 0.0
C50 C 0.95208 0.90903 0.57272 0.0
C51 C 0.11725 0.04287 0.5874 0.0
C52 C 0.14643 0.96214 0.49372 0.0
C53 C 0.17039 0.95851 0.45993 0.0
C54 C 0.12776 0.92516 0.43185 0.0
C55 C 0.23723 0.98742 0.4566 0.0
C56 C 0.21823 0.94512 0.39994 0.0
C57 C 0.26102 0.98116 0.42674 0.0
C58 C 0.15149 0.91837 0.40219 0.0
C59 C 0.09943 0.1052 0.45856 0.0
O60 O 0.95738 0.00869 0.46965 0.0
O61 O 0.98747 0.94804 0.46724 0.0
O62 O 0.01313 0.1052 0.54265 0.0
O63 O 0.91906 0.03676 0.52073 0.0
O64 O 0.92929 0.93748 0.57678 0.0
O65 O 0.99784 0.94534 0.54681 0.0
O66 O 0.12453 0.01828 0.56376 0.0
O67 O 0.07239 0.05322 0.58047 0.0
O68 O 0.08383 0.92429 0.50148 0.0
O69 O 0.17206 0.0172 0.49642 0.0
O70 O 0.09817 0.06791 0.44356 0.0
O71 O 0.09133 0.08358 0.49686 0.0
H72 H 0.96317 0.06668 0.61711 0.0
H73 H 0.86781 0.11421 0.51194 0.0
H74 H 0.81755 0.1303 0.5552 0.0
H75 H 0.91411 0.08435 0.66066 0.0
H76 H 0.07595 0.90284 0.43348 0.0
H77 H 0.27099 0.01378 0.47775 0.0
H78 H 0.3128 0.00318 0.42537 0.0
H79 H 0.11712 0.88978 0.38233 0.0
Zn80 Zn 0.40337 0.72278 0.17636 0.0
Zn81 Zn 0.38997 0.67266 0.33441 0.0
Zn82 Zn 0.40423 0.70083 0.25538 0.0
C83 C 0.52597 0.74777 0.31526 0.0
C84 C 0.32641 0.55993 0.32371 0.0
O85 O 0.35341 0.74919 0.22312 0.0
O86 O 0.36312 0.76704 0.15687 0.0
C87 C 0.53489 0.77845 0.199 0.0
O88 O 0.50625 0.74808 0.278 0.0
O89 O 0.48507 0.71909 0.34398 0.0
O90 O 0.33984 0.58278 0.35316 0.0
O91 O 0.34556 0.59571 0.28701 0.0
O92 O 0.4985 0.7707 0.16809 0.0
O93 O 0.50966 0.75605 0.2351 0.0
O94 O 0.35082 0.61173 0.24423 0.0
O95 O 0.34812 0.63491 0.17662 0.0
C96 C 0.33301 0.59547 0.21062 0.0
O97 O 0.36064 0.7427 0.26574 0.0
O98 O 0.34579 0.71114 0.33286 0.0
C99 C 0.34298 0.77088 0.18564 0.0
C100 C 0.34104 0.74104 0.29825 0.0
Zn101 Zn 0.66015 0.26313 0.88767 0.0
Zn102 Zn 0.6432 0.33517 0.70368 0.0
Zn103 Zn 0.6551 0.31671 0.77882 0.0
C104 C 0.73239 0.45232 0.7091 0.0
C105 C 0.52009 0.27603 0.731 0.0
O106 O 0.7033 0.26567 0.80194 0.0
O107 O 0.69318 0.22567 0.86997 0.0
C108 C 0.73663 0.38141 0.85419 0.0
O109 O 0.71624 0.42183 0.74701 0.0
O110 O 0.70982 0.42263 0.6825 0.0
O111 O 0.55332 0.30931 0.6986 0.0
O112 O 0.54857 0.27037 0.7654 0.0
O113 O 0.72805 0.34884 0.89046 0.0
O114 O 0.70532 0.35647 0.82539 0.0
O115 O 0.55666 0.26723 0.80803 0.0
O116 O 0.5695 0.23899 0.87531 0.0
C117 C 0.53414 0.24213 0.84521 0.0
O118 O 0.68507 0.27027 0.75983 0.0
O119 O 0.65597 0.27736 0.69502 0.0
C120 C 0.71239 0.23416 0.8356 0.0
C121 C 0.67835 0.25718 0.726 0.0
C122 C 0.17318 0.95109 0.1089 0.0
C123 C 0.11821 0.91917 0.08537 0.0
C124 C 0.20814 0.92686 0.12998 0.0
C125 C 0.18927 0.86976 0.12676 0.0
C126 C 0.13313 0.83684 0.10362 0.0
C127 C 0.09806 0.86147 0.08371 0.0
C128 C 0.26679 0.96407 0.1544 0.0
C129 C 0.11148 0.77648 0.09852 0.0
C130 C 0.32089 0.8432 0.13608 0.0
C131 C 0.3074 0.80022 0.17416 0.0
C132 C 0.28362 0.8664 0.12087 0.0
C133 C 0.2312 0.84709 0.14428 0.0
C134 C 0.21862 0.80539 0.18352 0.0
C135 C 0.2561 0.7818 0.19766 0.0
C136 C 0.29941 0.91049 0.079 0.0
C137 C 0.16411 0.78371 0.21014 0.0
H138 H 0.18936 -0.00447 0.11079 0.0
H139 H 0.05602 0.83632 0.06556 0.0
H140 H 0.27598 0.93488 0.18028 0.0
H141 H 0.31028 -0.00472 0.13418 0.0
H142 H 0.26101 0.99261 0.16659 0.0
H143 H 0.066 0.75555 0.0806 0.0
H144 H 0.15021 0.7832 0.08274 0.0
H145 H 0.10347 0.74401 0.12888 0.0
H146 H 0.36021 0.85792 0.11742 0.0
H147 H 0.24339 0.74713 0.22632 0.0
H148 H 0.31169 0.9543 0.08132 0.0
H149 H 0.2563 0.89158 0.05896 0.0
H150 H 0.34082 0.92014 0.06419 0.0
H151 H 0.15829 0.8205 0.20685 0.0
H152 H 0.17228 0.76722 0.24283 0.0
H153 H 0.11791 0.7452 0.20077 0.0
C154 C 0.22432 0.07254 0.62006 0.0
C155 C 0.16489 0.06409 0.62067 0.0
C156 C 0.27425 0.10104 0.64723 0.0
C157 C 0.2643 0.1206 0.67651 0.0
C158 C 0.20273 0.10799 0.67943 0.0
C159 C 0.15393 0.08054 0.65114 0.0
C160 C 0.33933 0.11418 0.64252 0.0
C161 C 0.18943 0.12571 0.7114 0.0
C162 C 0.40887 0.17777 0.74774 0.0
C163 C 0.44864 0.23955 0.72651 0.0
C164 C 0.34494 0.13891 0.73464 0.0
C165 C 0.32153 0.16231 0.69893 0.0
C166 C 0.3595 0.22589 0.68007 0.0
C167 C 0.42223 0.26367 0.69437 0.0
C168 C 0.30486 0.07203 0.75689 0.0
C169 C 0.33703 0.25326 0.64194 0.0
H170 H 0.23338 0.05994 0.5968 0.0
H171 H 0.10779 0.07332 0.65229 0.0
H172 H 0.37637 0.16432 0.6323 0.0
H173 H 0.35545 0.09719 0.67226 0.0
H174 H 0.33798 0.09281 0.61996 0.0
H175 H 0.13781 0.10894 0.71158 0.0
H176 H 0.20178 0.10696 0.74212 0.0
H177 H 0.22065 0.17616 0.70582 0.0
H178 H 0.42906 0.15893 0.77268 0.0
H179 H 0.45274 0.31164 0.67818 0.0
H180 H 0.30747 0.0459 0.74013 0.0
H181 H 0.25306 0.05389 0.75846 0.0
H182 H 0.32289 0.06391 0.7884 0.0
H183 H 0.33655 0.23763 0.61604 0.0
H184 H 0.36923 0.30405 0.63359 0.0
H185 H 0.28685 0.23785 0.64598 0.0
C186 C 0.31626 0.36321 0.14153 0.0
C187 C 0.25993 0.30393 0.14423 0.0
C188 C 0.31961 0.40157 0.16074 0.0
C189 C 0.26609 0.37917 0.18447 0.0
C190 C 0.21152 0.31751 0.19054 0.0
C191 C 0.20874 0.28068 0.16989 0.0
C192 C 0.37855 0.46739 0.15307 0.0
C193 C 0.15389 0.29091 0.21631 0.0
C194 C 0.31919 0.49648 0.23929 0.0
C195 C 0.30079 0.53166 0.21092 0.0
C196 C 0.30127 0.44161 0.23384 0.0
C197 C 0.26572 0.42293 0.19872 0.0
C198 C 0.24129 0.45499 0.17244 0.0
C199 C 0.25927 0.50926 0.17891 0.0
C200 C 0.32666 0.40777 0.26325 0.0
C201 C 0.20201 0.43566 0.1351 0.0
H202 H 0.35652 0.38073 0.12253 0.0
H203 H 0.16475 0.23491 0.17204 0.0
H204 H 0.36363 0.4983 0.13783 0.0
H205 H 0.40154 0.47835 0.18243 0.0
H206 H 0.4156 0.47741 0.13354 0.0
H207 H 0.13536 0.24343 0.23424 0.0
H208 H 0.16541 0.31824 0.2376 0.0
H209 H 0.11402 0.28852 0.19597 0.0
H210 H 0.3523 0.51424 0.26365 0.0
H211 H 0.24441 0.53629 0.15734 0.0
H212 H 0.37738 0.42951 0.25474 0.0
H213 H 0.29712 0.35905 0.26292 0.0
H214 H 0.32747 0.41039 0.29481 0.0
H215 H 0.23295 0.44136 0.11299 0.0
H216 H 0.18266 0.4629 0.11964 0.0
H217 H 0.16064 0.38668 0.14362 0.0
C218 C 0.84278 0.1807 0.62008 0.0
C219 C 0.83839 0.12647 0.63583 0.0
C220 C 0.81646 0.19647 0.64128 0.0
C221 C 0.78564 0.15729 0.67948 0.0
C222 C 0.78354 0.10378 0.69654 0.0
C223 C 0.80981 0.08875 0.67431 0.0
C224 C 0.8202 0.25433 0.62221 0.0
C225 C 0.75121 0.06098 0.73722 0.0
C226 C 0.76295 0.23904 0.73466 0.0
C227 C 0.70066 0.22234 0.72181 0.0
C228 C 0.78953 0.2137 0.72423 0.0
C229 C 0.75297 0.17176 0.69982 0.0
C230 C 0.68839 0.15201 0.68896 0.0
C231 C 0.66302 0.17787 0.70002 0.0
C232 C 0.85813 0.2348 0.73681 0.0
C233 C 0.64811 0.10756 0.66278 0.0
H234 H 0.8664 0.21069 0.5908 0.0
H235 H 0.80634 0.04672 0.6865 0.0
H236 H 0.77045 0.24292 0.61692 0.0
H237 H 0.84482 0.2846 0.64321 0.0
H238 H 0.84694 0.28018 0.5926 0.0
H239 H 0.77133 0.0342 0.7518 0.0
H240 H 0.75668 0.08599 0.7585 0.0
H241 H 0.69848 0.02829 0.73239 0.0
H242 H 0.7925 0.27515 0.75017 0.0
H243 H 0.61479 0.16543 0.69006 0.0
H244 H 0.88015 0.26811 0.75547 0.0
H245 H 0.88921 0.25656 0.70942 0.0
H246 H 0.85824 0.19478 0.75461 0.0
H247 H 0.66883 0.12988 0.63139 0.0
H248 H 0.59666 0.09186 0.6609 0.0
H249 H 0.64935 0.0671 0.67506 0.0
C250 C 0.91462 0.98041 0.13502 0.0
C251 C 0.91677 0.95965 0.10377 0.0
C252 C 0.85645 0.95048 0.15641 0.0
C253 C 0.79864 0.89789 0.14671 0.0
C254 C 0.80135 0.87526 0.11631 0.0
C255 C 0.86013 0.90648 0.09516 0.0
C256 C 0.85662 0.97617 0.18871 0.0
C257 C 0.74138 0.81938 0.10487 0.0
C258 C 0.64404 0.79454 0.2136 0.0
C259 C 0.60602 0.81419 0.19132 0.0
C260 C 0.70783 0.82255 0.20053 0.0
C261 C 0.73407 0.8712 0.16432 0.0
C262 C 0.69681 0.893 0.14318 0.0
C263 C 0.6336 0.86418 0.15674 0.0
C264 C 0.74577 0.79808 0.22436 0.0
C265 C 0.72277 0.94559 0.10515 0.0
H266 H 0.95827 0.02123 0.14212 0.0
H267 H 0.86123 0.89012 0.07108 0.0
H268 H 0.81823 0.98408 0.18249 0.0
H269 H 0.84574 0.94265 0.21887 0.0
H270 H 0.90417 0.01982 0.19059 0.0
H271 H 0.75261 0.80402 0.08371 0.0
H272 H 0.71744 0.78127 0.13268 0.0
H273 H 0.70605 0.82967 0.08984 0.0
H274 H 0.6229 0.75553 0.24005 0.0
H275 H 0.60462 0.87976 0.13936 0.0
H276 H 0.79598 0.83602 0.22983 0.0
H277 H 0.7494 0.77391 0.20633 0.0
H278 H 0.72246 0.76576 0.25426 0.0
H279 H 0.77077 0.98566 0.11137 0.0
H280 H 0.68949 0.9596 0.09371 0.0
H281 H 0.72998 0.93237 0.08062 0.0
C282 C 0.86008 0.80268 0.60729 0.0
C283 C 0.92551 0.84371 0.59469 0.0
C284 C 0.83276 0.74082 0.62821 0.0
C285 C 0.87205 0.71898 0.63849 0.0
C286 C 0.93889 0.76087 0.62692 0.0
C287 C 0.96444 0.82219 0.60456 0.0
C288 C 0.76106 0.69833 0.63831 0.0
C289 C 0.9835 0.74085 0.63813 0.0
C290 C 0.79926 0.56185 0.71807 0.0
C291 C 0.7733 0.52157 0.69322 0.0
C292 C 0.83315 0.62613 0.70106 0.0
C293 C 0.84156 0.65145 0.65799 0.0
C294 C 0.8171 0.61121 0.63293 0.0
C295 C 0.78406 0.54778 0.65061 0.0
C296 C 0.85932 0.66698 0.72919 0.0
C297 C 0.82386 0.6349 0.58697 0.0
H298 H 0.8295 0.81871 0.59986 0.0
H299 H 0.01524 0.85363 0.59555 0.0
H300 H 0.73661 0.66121 0.62265 0.0
H301 H 0.75349 0.67654 0.67162 0.0
H302 H 0.73722 0.72231 0.62892 0.0
H303 H 0.03506 0.77971 0.63033 0.0
H304 H 0.97972 0.71868 0.67136 0.0
H305 H 0.96866 0.70648 0.62182 0.0
H306 H 0.79273 0.54327 0.75067 0.0
H307 H 0.7653 0.51839 0.63036 0.0
H308 H 0.83338 0.68853 0.7241 0.0
H309 H 0.91161 0.7043 0.72267 0.0
H310 H 0.85358 0.64125 0.76168 0.0
H311 H 0.79818 0.65698 0.57533 0.0
H312 H 0.80371 0.59811 0.5716 0.0
H313 H 0.87576 0.67018 0.57811 0.0
C314 C 0.28627 0.91514 0.38844 0.0
C315 C 0.24191 0.92972 0.37307 0.0
C316 C 0.30251 0.89191 0.36634 0.0
C317 C 0.27317 0.88238 0.32797 0.0
C318 C 0.23159 0.90063 0.311 0.0
C319 C 0.21629 0.92404 0.33385 0.0
C320 C 0.34758 0.87349 0.38552 0.0
C321 C 0.19976 0.8919 0.2701 0.0
C322 C 0.35056 0.83826 0.27744 0.0
C323 C 0.31481 0.77547 0.29622 0.0
C324 C 0.33373 0.874 0.28398 0.0
C325 C 0.27969 0.84562 0.30932 0.0
C326 C 0.23916 0.78116 0.32397 0.0
C327 C 0.25797 0.74689 0.31788 0.0
C328 C 0.37732 0.94245 0.2672 0.0
C329 C 0.17923 0.74884 0.34936 0.0
H330 H 0.30567 0.91852 0.41891 0.0
H331 H 0.18273 0.93614 0.32149 0.0
H332 H 0.31953 0.8229 0.39434 0.0
H333 H 0.38563 0.89168 0.36333 0.0
H334 H 0.37172 0.89009 0.41324 0.0
H335 H 0.18769 0.92516 0.25561 0.0
H336 H 0.23125 0.89673 0.24898 0.0
H337 H 0.15383 0.8452 0.27451 0.0
H338 H 0.39432 0.86001 0.26038 0.0
H339 H 0.22985 0.698 0.33167 0.0
H340 H 0.40878 0.96359 0.29203 0.0
H341 H 0.34825 0.96108 0.2557 0.0
H342 H 0.40902 0.95609 0.24209 0.0
H343 H 0.19393 0.75682 0.38029 0.0
H344 H 0.14777 0.69875 0.3527 0.0
H345 H 0.15037 0.76719 0.3354 0.0
C346 C 0.16137 0.02857 0.91299 0.0
C347 C 0.14612 0.05446 0.93352 0.0
C348 C 0.22088 0.06345 0.89208 0.0
C349 C 0.26737 0.12557 0.89246 0.0
C350 C 0.25105 0.15263 0.91172 0.0
C351 C 0.19038 0.1169 0.93166 0.0
C352 C 0.23536 0.03287 0.87132 0.0
C353 C 0.2992 0.21829 0.91354 0.0
C354 C 0.44187 0.17649 0.89519 0.0
C355 C 0.46531 0.21374 0.85544 0.0
C356 C 0.37886 0.1498 0.90757 0.0
C357 C 0.33604 0.15819 0.87927 0.0
C358 C 0.35873 0.19551 0.83897 0.0
C359 C 0.42372 0.22432 0.82797 0.0
C360 C 0.35802 0.11187 0.95115 0.0
C361 C 0.31423 0.20427 0.80739 0.0
H362 H 0.12707 0.98051 0.91379 0.0
H363 H 0.17867 0.13731 0.94715 0.0
H364 H 0.25569 0.06193 0.84028 0.0
H365 H 0.27242 0.02676 0.88902 0.0
H366 H 0.19137 0.98733 0.86874 0.0
H367 H 0.27661 0.2347 0.92497 0.0
H368 H 0.33952 0.22267 0.93426 0.0
H369 H 0.32073 0.24844 0.88293 0.0
H370 H 0.47306 0.168 0.91726 0.0
H371 H 0.44194 0.25538 0.79811 0.0
H372 H 0.31851 0.06353 0.95153 0.0
H373 H 0.33863 0.12833 0.96556 0.0
H374 H 0.39858 0.11336 0.97015 0.0
H375 H 0.27178 0.15929 0.80287 0.0
H376 H 0.33903 0.23438 0.77745 0.0
H377 H 0.29525 0.22423 0.81819 0.0
C378 C 0.13866 0.21279 0.45525 0.0
C379 C 0.12662 0.17043 0.43577 0.0
C380 C 0.16829 0.27514 0.43415 0.0
C381 C 0.18682 0.29631 0.3924 0.0
C382 C 0.17308 0.25316 0.37245 0.0
C383 C 0.14348 0.19129 0.39424 0.0
C384 C 0.18096 0.31873 0.45684 0.0
C385 C 0.19227 0.27212 0.32851 0.0
C386 C 0.22416 0.45299 0.32999 0.0
C387 C 0.29187 0.4923 0.33367 0.0
C388 C 0.1895 0.3892 0.34809 0.0
C389 C 0.22314 0.36373 0.37046 0.0
C390 C 0.2919 0.40325 0.37259 0.0
C391 C 0.32508 0.46676 0.35479 0.0
C392 C 0.11655 0.34916 0.34432 0.0
C393 C 0.33051 0.37853 0.39435 0.0
H394 H 0.12591 0.19744 0.48727 0.0
H395 H 0.13471 0.15929 0.37871 0.0
H396 H 0.23409 0.35337 0.45861 0.0
H397 H 0.15946 0.34357 0.44005 0.0
H398 H 0.16059 0.29496 0.48836 0.0
H399 H 0.15962 0.23381 0.31383 0.0
H400 H 0.19178 0.31178 0.31032 0.0
H401 H 0.24227 0.28513 0.3277 0.0
H402 H 0.19796 0.47247 0.31453 0.0
H403 H 0.37728 0.49694 0.3583 0.0
H404 H 0.09384 0.32667 0.37514 0.0
H405 H 0.10164 0.31246 0.33028 0.0
H406 H 0.09741 0.37535 0.32552 0.0
H407 H 0.31661 0.35753 0.42716 0.0
H408 H 0.38374 0.41458 0.3919 0.0
H409 H 0.31921 0.34218 0.38131 0.0
C410 C 0.92002 0.12252 0.95535 0.0
C411 C 0.93165 0.08969 0.93967 0.0
C412 C 0.88496 0.14579 0.93281 0.0
C413 C 0.86303 0.13821 0.89282 0.0
C414 C 0.8764 0.10635 0.8765 0.0
C415 C 0.9096 0.08172 0.90035 0.0
C416 C 0.86958 0.17685 0.9524 0.0
C417 C 0.85709 0.09923 0.83357 0.0
C418 C 0.71819 0.14551 0.85639 0.0
C419 C 0.74837 0.20785 0.83721 0.0
C420 C 0.75462 0.12167 0.87266 0.0
C421 C 0.82337 0.16094 0.86944 0.0
C422 C 0.85382 0.22307 0.84724 0.0
C423 C 0.81615 0.24607 0.83213 0.0
C424 C 0.71967 0.05527 0.89603 0.0
C425 C 0.92657 0.26593 0.84132 0.0
H426 H 0.9365 0.12819 0.98591 0.0
H427 H 0.91908 0.05677 0.88802 0.0
H428 H 0.89083 0.22455 0.93397 0.0
H429 H 0.81615 0.15276 0.95331 0.0
H430 H 0.8885 0.17767 0.98403 0.0
H431 H 0.85623 0.06168 0.829 0.0
H432 H 0.80875 0.09035 0.82571 0.0
H433 H 0.89314 0.14241 0.81192 0.0
H434 H 0.66605 0.11612 0.86144 0.0
H435 H 0.84011 0.29466 0.81856 0.0
H436 H 0.73422 0.05191 0.92861 0.0
H437 H 0.73357 0.03235 0.88391 0.0
H438 H 0.66598 0.03018 0.89437 0.0
H439 H 0.95072 0.27338 0.87111 0.0
H440 H 0.94225 0.31101 0.82 0.0
H441 H 0.94354 0.24535 0.82922 0.0
C442 C 0.89103 0.90251 0.40444 0.0
C443 C 0.89878 0.94322 0.42375 0.0
C444 C 0.83752 0.87438 0.37879 0.0
C445 C 0.79001 0.88622 0.37303 0.0
C446 C 0.79975 0.92992 0.39057 0.0
C447 C 0.854 0.95804 0.41537 0.0
C448 C 0.83005 0.82958 0.35961 0.0
C449 C 0.75034 0.9438 0.38565 0.0
C450 C 0.64579 0.83103 0.3 0.0
C451 C 0.59579 0.77943 0.32663 0.0
C452 C 0.71065 0.86425 0.31365 0.0
C453 C 0.72527 0.84618 0.35507 0.0
C454 C 0.67526 0.79246 0.38135 0.0
C455 C 0.61168 0.75972 0.36674 0.0
C456 C 0.76267 0.92025 0.28426 0.0
C457 C 0.68791 0.77137 0.4258 0.0
H458 H 0.92574 0.89132 0.41017 0.0
H459 H 0.8595 0.98974 0.42974 0.0
H460 H 0.79204 0.78228 0.3763 0.0
H461 H 0.81424 0.83652 0.32737 0.0
H462 H 0.87603 0.83382 0.36053 0.0
H463 H 0.76785 0.98283 0.39799 0.0
H464 H 0.73818 0.95449 0.35297 0.0
H465 H 0.70482 0.90297 0.402 0.0
H466 H 0.63397 0.84707 0.26918 0.0
H467 H 0.5736 0.71937 0.38749 0.0
H468 H 0.8084 0.92349 0.28886 0.0
H469 H 0.77327 0.96172 0.28982 0.0
H470 H 0.74711 0.9201 0.25201 0.0
H471 H 0.72828 0.76667 0.42858 0.0
H472 H 0.64443 0.72689 0.44159 0.0
H473 H 0.70277 0.80598 0.44193 0.0
C474 C 0.88812 0.70289 0.88595 0.0
C475 C 0.84732 0.67736 0.91935 0.0
C476 C 0.884 0.66558 0.86528 0.0
C477 C 0.83801 0.60167 0.87875 0.0
C478 C 0.7981 0.57571 0.91341 0.0
C479 C 0.80283 0.61421 0.93302 0.0
C480 C 0.92831 0.69563 0.829 0.0
C481 C 0.75031 0.50731 0.92991 0.0
C482 C 0.7479 0.47732 0.82711 0.0
C483 C 0.77625 0.44688 0.84653 0.0
C484 C 0.77442 0.53475 0.83194 0.0
C485 C 0.82943 0.56043 0.85717 0.0
C486 C 0.86372 0.53381 0.87122 0.0
C487 C 0.83595 0.47624 0.86605 0.0
C488 C 0.7379 0.56302 0.81513 0.0
C489 C 0.92376 0.56126 0.89707 0.0
H490 H 0.9225 0.75213 0.87555 0.0
H491 H 0.7722 0.59504 0.95932 0.0
H492 H 0.97871 0.73085 0.83671 0.0
H493 H 0.9292 0.66309 0.81834 0.0
H494 H 0.91237 0.71962 0.80347 0.0
H495 H 0.72811 0.49507 0.9594 0.0
H496 H 0.71064 0.48865 0.90764 0.0
H497 H 0.77477 0.48442 0.93461 0.0
H498 H 0.70155 0.45388 0.81185 0.0
H499 H 0.85761 0.45194 0.88045 0.0
H500 H 0.77076 0.61353 0.80934 0.0
H501 H 0.70025 0.54499 0.83759 0.0
H502 H 0.71285 0.55098 0.78628 0.0
H503 H 0.95732 0.61131 0.88398 0.0
H504 H 0.95 0.54044 0.8998 0.0
H505 H 0.90953 0.55348 0.9282 0.0
loop_
_geom_bond_atom_site_label_1
_geom_bond_atom_site_label_2
_geom_bond_distance
_geom_bond_site_symmetry_2
_ccdc_geom_bond_type
Gd0 C3 2.818 . S
Gd0 O20 2.377 . S
Gd0 O22 2.448 . S
Gd0 O23 2.506 . S
Gd0 O24 2.435 1_445 S
Gd0 O25 2.717 1_445 S
Gd0 O27 2.395 1_545 S
Gd0 O31 2.327 1_554 S
Gd1 C12 2.818 . S
Gd1 O21 2.395 1_565 S
Gd1 O25 2.327 1_556 S
Gd1 O26 2.377 1_656 S
Gd1 O28 2.448 . S
Gd1 O29 2.506 . S
Gd1 O30 2.435 1_665 S
Gd1 O31 2.717 1_665 S
C2 O20 1.240 1_656 S
C2 O21 1.240 . S
C3 Gd0 2.818 . S
C3 C4 1.510 . S
C3 O22 1.249 . S
C3 O23 1.252 . S
C4 C3 1.510 . S
C4 C5 1.404 . S
C4 C6 1.352 . S
C5 C4 1.404 . S
C5 C9 1.389 . S
C5 H32 0.930 . S
C6 C4 1.352 . S
C6 C8 1.374 . S
C6 H33 0.931 . S
C7 C8 1.359 . S
C7 C9 1.364 . S
C8 C6 1.374 . S
C8 C7 1.359 . S
C8 H34 0.931 . S
C9 C5 1.389 . S
C9 C7 1.364 . S
C9 H35 0.931 . S
C10 O24 1.256 . S
C10 O25 1.257 . S
C11 O26 1.240 . S
C11 O27 1.240 . S
C12 Gd1 2.818 . S
C12 C13 1.510 . S
C12 O28 1.249 . S
C12 O29 1.252 . S
C13 C12 1.510 . S
C13 C14 1.404 . S
C13 C15 1.352 . S
C14 C13 1.404 . S
C14 C18 1.389 . S
C14 H36 0.930 . S
C15 C13 1.352 . S
C15 C17 1.374 . S
C15 H37 0.931 1_556 S
C16 C17 1.359 . S
C16 C18 1.364 . S
C17 C15 1.374 . S
C17 C16 1.359 . S
C17 H38 0.931 . S
C18 C14 1.389 . S
C18 C16 1.364 . S
C18 H39 0.931 . S
C19 O30 1.256 . S
C19 O31 1.257 . S
O20 Gd0 2.377 . S
O20 C2 1.240 1_454 S
O21 Gd1 2.395 1_545 S
O21 C2 1.240 . S
O22 Gd0 2.448 . S
O22 C3 1.249 . S
O23 Gd0 2.506 . S
O23 C3 1.252 . S
O24 Gd0 2.435 1_665 S
O24 C10 1.256 . S
O25 Gd0 2.717 1_665 S
O25 Gd1 2.327 1_554 S
O25 C10 1.257 . S
O26 Gd1 2.377 1_454 S
O26 C11 1.240 . S
O27 Gd0 2.395 1_565 S
O27 C11 1.240 . S
O28 Gd1 2.448 . S
O28 C12 1.249 . S
O29 Gd1 2.506 . S
O29 C12 1.252 . S
O30 Gd1 2.435 1_445 S
O30 C19 1.256 . S
O31 Gd0 2.327 1_556 S
O31 Gd1 2.717 1_445 S
O31 C19 1.257 . S
H32 C5 0.930 . S
H33 C6 0.931 . S
H34 C8 0.931 . S
H35 C9 0.931 . S
H36 C14 0.930 . S
H37 C15 0.931 1_554 S
H38 C17 0.931 . S
H39 C18 0.931 . S
Gd40 C43 2.818 1_455 S
Gd40 O60 2.377 1_445 S
Gd40 O62 2.448 1_455 S
Gd40 O63 2.506 1_455 S
Gd40 O64 2.435 1_445 S
Gd40 O65 2.717 1_545 S
Gd40 O67 2.395 . S
Gd40 O71 2.327 . S
Gd41 C52 2.818 . S
Gd41 O61 2.395 1_455 S
Gd41 O65 2.327 . S
Gd41 O66 2.377 1_565 S
Gd41 O68 2.448 1_565 S
Gd41 O69 2.506 . S
Gd41 O70 2.435 1_565 S
Gd41 O71 2.717 1_565 S
C42 O60 1.240 . S
C42 O61 1.240 . S
C43 Gd40 2.818 1_655 S
C43 C44 1.510 . S
C43 O62 1.249 . S
C43 O63 1.252 . S
C44 C43 1.510 . S
C44 C45 1.404 . S
C44 C46 1.352 . S
C45 C44 1.404 . S
C45 C49 1.389 . S
C45 H72 0.930 . S
C46 C44 1.352 . S
C46 C48 1.374 . S
C46 H73 0.931 . S
C47 C48 1.359 . S
C47 C49 1.364 . S
C48 C46 1.374 . S
C48 C47 1.359 . S
C48 H74 0.931 . S
C49 C45 1.389 . S
C49 C47 1.364 . S
C49 H75 0.931 . S
C50 O64 1.256 . S
C50 O65 1.257 1_655 S
C51 O66 1.240 . S
C51 O67 1.240 . S
C52 Gd41 2.818 . S
C52 C53 1.510 . S
C52 O68 1.249 1_565 S
C52 O69 1.252 . S
C53 C52 1.510 . S
C53 C54 1.404 . S
C53 C55 1.352 . S
C54 C53 1.404 . S
C54 C58 1.389 . S
C54 H76 0.930 1_565 S
C55 C53 1.352 . S
C55 C57 1.374 . S
C55 H77 0.931 . S
C56 C57 1.359 . S
C56 C58 1.364 . S
C57 C55 1.374 . S
C57 C56 1.359 . S
C57 H78 0.931 . S
C58 C54 1.389 . S
C58 C56 1.364 . S
C58 H79 0.931 1_565 S
C59 O70 1.256 . S
C59 O71 1.257 . S
O60 Gd40 2.377 1_665 S
O60 C42 1.240 . S
O61 Gd41 2.395 1_655 S
O61 C42 1.240 . S
O62 Gd40 2.448 1_655 S
O62 C43 1.249 . S
O63 Gd40 2.506 1_655 S
O63 C43 1.252 . S
O64 Gd40 2.435 1_665 S
O64 C50 1.256 . S
O65 Gd40 2.717 1_565 S
O65 Gd41 2.327 . S
O65 C50 1.257 1_455 S
O66 Gd41 2.377 1_545 S
O66 C51 1.240 . S
O67 Gd40 2.395 . S
O67 C51 1.240 . S
O68 Gd41 2.448 1_545 S
O68 C52 1.249 1_545 S
O69 Gd41 2.506 . S
O69 C52 1.252 . S
O70 Gd41 2.435 1_545 S
O70 C59 1.256 . S
O71 Gd40 2.327 . S
O71 Gd41 2.717 1_545 S
O71 C59 1.257 . S
H72 C45 0.930 . S
H73 C46 0.931 . S
H74 C48 0.931 . S
H75 C49 0.931 . S
H76 C54 0.930 1_545 S
H77 C55 0.931 . S
H78 C57 0.931 . S
H79 C58 0.931 1_545 S
Zn80 O86 1.920 . S
Zn80 O92 1.898 . S
Zn80 O95 1.905 . S
Zn81 O89 1.905 . S
Zn81 O90 1.898 . S
Zn81 O98 1.920 . S
Zn82 O85 2.080 . S
Zn82 O88 2.114 . S
Zn82 O91 2.120 . S
Zn82 O93 2.120 . S
Zn82 O94 2.114 . S
Zn82 O97 2.080 . S
C83 O88 1.166 . S
C83 O89 1.182 . S
C84 O90 1.167 . S
C84 O91 1.299 . S
O85 Zn82 2.080 . S
O85 C99 1.305 . S
O86 Zn80 1.920 . S
O86 C99 1.234 . S
C87 O92 1.167 . S
C87 O93 1.299 . S
O88 Zn82 2.114 . S
O88 C83 1.166 . S
O89 Zn81 1.905 . S
O89 C83 1.182 . S
O90 Zn81 1.898 . S
O90 C84 1.167 . S
O91 Zn82 2.120 . S
O91 C84 1.299 . S
O92 Zn80 1.898 . S
O92 C87 1.167 . S
O93 Zn82 2.120 . S
O93 C87 1.299 . S
O94 Zn82 2.114 . S
O94 C96 1.166 . S
O95 Zn80 1.905 . S
O95 C96 1.182 . S
C96 O94 1.166 . S
C96 O95 1.182 . S
O97 Zn82 2.080 . S
O97 C100 1.305 . S
O98 Zn81 1.920 . S
O98 C100 1.234 . S
C99 O85 1.305 . S
C99 O86 1.234 . S
C100 O97 1.305 . S
C100 O98 1.234 . S
Zn101 O107 1.920 . S
Zn101 O113 1.898 . S
Zn101 O116 1.905 . S
Zn102 O110 1.905 . S
Zn102 O111 1.898 . S
Zn102 O119 1.920 . S
Zn103 O106 2.080 . S
Zn103 O109 2.114 . S
Zn103 O112 2.120 . S
Zn103 O114 2.120 . S
Zn103 O115 2.114 . S
Zn103 O118 2.080 . S
C104 O109 1.166 . S
C104 O110 1.182 . S
C105 O111 1.167 . S
C105 O112 1.299 . S
O106 Zn103 2.080 . S
O106 C120 1.305 . S
O107 Zn101 1.920 . S
O107 C120 1.234 . S
C108 O113 1.167 . S
C108 O114 1.299 . S
O109 Zn103 2.114 . S
O109 C104 1.166 . S
O110 Zn102 1.905 . S
O110 C104 1.182 . S
O111 Zn102 1.898 . S
O111 C105 1.167 . S
O112 Zn103 2.120 . S
O112 C105 1.299 . S
O113 Zn101 1.898 . S
O113 C108 1.167 . S
O114 Zn103 2.120 . S
O114 C108 1.299 . S
O115 Zn103 2.114 . S
O115 C117 1.166 . S
O116 Zn101 1.905 . S
O116 C117 1.182 . S
C117 O115 1.166 . S
C117 O116 1.182 . S
O118 Zn103 2.080 . S
O118 C121 1.305 . S
O119 Zn102 1.920 . S
O119 C121 1.234 . S
C120 O106 1.305 . S
C120 O107 1.234 . S
C121 O118 1.305 . S
C121 O119 1.234 . S
C122 C123 1.391 . S
C122 C124 1.394 . S
C122 H138 0.931 . S
C123 C122 1.391 . S
C123 C127 1.376 . S
C124 C122 1.394 . S
C124 C125 1.369 . S
C124 C128 1.531 . S
C125 C124 1.369 . S
C125 C126 1.410 . S
C125 C133 1.503 . S
C126 C125 1.410 . S
C126 C127 1.392 . S
C126 C129 1.511 . S
C127 C123 1.376 . S
C127 C126 1.392 . S
C127 H139 0.929 . S
C128 C124 1.531 . S
C128 H140 0.960 . S
C128 H141 0.962 . S
C128 H142 0.960 . S
C129 C126 1.511 . S
C129 H143 0.961 . S
C129 H144 0.961 . S
C129 H145 0.961 . S
C130 C131 1.370 . S
C130 C132 1.363 . S
C130 H146 0.931 . S
C131 C130 1.370 . S
C131 C135 1.408 . S
C132 C130 1.363 . S
C132 C133 1.370 . S
C132 C136 1.524 . S
C133 C125 1.503 . S
C133 C132 1.370 . S
C133 C134 1.403 . S
C134 C133 1.403 . S
C134 C135 1.404 . S
C134 C137 1.539 . S
C135 C131 1.408 . S
C135 C134 1.404 . S
C135 H147 0.930 . S
C136 C132 1.524 . S
C136 H148 0.956 . S
C136 H149 0.961 . S
C136 H150 0.961 . S
C137 C134 1.539 . S
C137 H151 0.958 . S
C137 H152 0.961 . S
C137 H153 0.960 . S
H138 C122 0.931 . S
H139 C127 0.929 . S
H140 C128 0.960 . S
H141 C128 0.962 . S
H142 C128 0.960 . S
H143 C129 0.961 . S
H144 C129 0.961 . S
H145 C129 0.961 . S
H146 C130 0.931 . S
H147 C135 0.930 . S
H148 C136 0.956 . S
H149 C136 0.961 . S
H150 C136 0.961 . S
H151 C137 0.958 . S
H152 C137 0.961 . S
H153 C137 0.960 . S
C154 C155 1.391 . S
C154 C156 1.394 . S
C154 H170 0.931 . S
C155 C154 1.391 . S
C155 C159 1.376 . S
C156 C154 1.394 . S
C156 C157 1.369 . S
C156 C160 1.531 . S
C157 C156 1.369 . S
C157 C158 1.410 . S
C157 C165 1.503 . S
C158 C157 1.410 . S
C158 C159 1.392 . S
C158 C161 1.511 . S
C159 C155 1.376 . S
C159 C158 1.392 . S
C159 H171 0.929 . S
C160 C156 1.531 . S
C160 H172 0.960 . S
C160 H173 0.962 . S
C160 H174 0.960 . S
C161 C158 1.511 . S
C161 H175 0.961 . S
C161 H176 0.961 . S
C161 H177 0.961 . S
C162 C163 1.370 . S
C162 C164 1.363 . S
C162 H178 0.931 . S
C163 C162 1.370 . S
C163 C167 1.408 . S
C164 C162 1.363 . S
C164 C165 1.370 . S
C164 C168 1.524 . S
C165 C157 1.503 . S
C165 C164 1.370 . S
C165 C166 1.403 . S
C166 C165 1.403 . S
C166 C167 1.404 . S
C166 C169 1.539 . S
C167 C163 1.408 . S
C167 C166 1.404 . S
C167 H179 0.930 . S
C168 C164 1.524 . S
C168 H180 0.956 . S
C168 H181 0.961 . S
C168 H182 0.961 . S
C169 C166 1.539 . S
C169 H183 0.958 . S
C169 H184 0.961 . S
C169 H185 0.960 . S
H170 C154 0.931 . S
H171 C159 0.929 . S
H172 C160 0.960 . S
H173 C160 0.962 . S
H174 C160 0.960 . S
H175 C161 0.961 . S
H176 C161 0.961 . S
H177 C161 0.961 . S
H178 C162 0.931 . S
H179 C167 0.930 . S
H180 C168 0.956 . S
H181 C168 0.961 . S
H182 C168 0.961 . S
H183 C169 0.958 . S
H184 C169 0.961 . S
H185 C169 0.960 . S
C186 C187 1.391 . S
C186 C188 1.394 . S
C186 H202 0.931 . S
C187 C186 1.391 . S
C187 C191 1.376 . S
C188 C186 1.394 . S
C188 C189 1.369 . S
C188 C192 1.531 . S
C189 C188 1.369 . S
C189 C190 1.410 . S
C189 C197 1.503 . S
C190 C189 1.410 . S
C190 C191 1.392 . S
C190 C193 1.511 . S
C191 C187 1.376 . S
C191 C190 1.392 . S
C191 H203 0.929 . S
C192 C188 1.531 . S
C192 H204 0.960 . S
C192 H205 0.962 . S
C192 H206 0.960 . S
C193 C190 1.511 . S
C193 H207 0.961 . S
C193 H208 0.961 . S
C193 H209 0.961 . S
C194 C195 1.370 . S
C194 C196 1.363 . S
C194 H210 0.931 . S
C195 C194 1.370 . S
C195 C199 1.408 . S
C196 C194 1.363 . S
C196 C197 1.370 . S
C196 C200 1.524 . S
C197 C189 1.503 . S
C197 C196 1.370 . S
C197 C198 1.403 . S
C198 C197 1.403 . S
C198 C199 1.404 . S
C198 C201 1.539 . S
C199 C195 1.408 . S
C199 C198 1.404 . S
C199 H211 0.930 . S
C200 C196 1.524 . S
C200 H212 0.956 . S
C200 H213 0.961 . S
C200 H214 0.961 . S
C201 C198 1.539 . S
C201 H215 0.958 . S
C201 H216 0.961 . S
C201 H217 0.960 . S
H202 C186 0.931 . S
H203 C191 0.929 . S
H204 C192 0.960 . S
H205 C192 0.962 . S
H206 C192 0.960 . S
H207 C193 0.961 . S
H208 C193 0.961 . S
H209 C193 0.961 . S
H210 C194 0.931 . S
H211 C199 0.930 . S
H212 C200 0.956 . S
H213 C200 0.961 . S
H214 C200 0.961 . S
H215 C201 0.958 . S
H216 C201 0.961 . S
H217 C201 0.960 . S
C218 C219 1.391 . S
C218 C220 1.394 . S
C218 H234 0.931 . S
C219 C218 1.391 . S
C219 C223 1.376 . S
C220 C218 1.394 . S
C220 C221 1.369 . S
C220 C224 1.531 . S
C221 C220 1.369 . S
C221 C222 1.410 . S
C221 C229 1.503 . S
C222 C221 1.410 . S
C222 C223 1.392 . S
C222 C225 1.511 . S
C223 C219 1.376 . S
C223 C222 1.392 . S
C223 H235 0.929 . S
C224 C220 1.531 . S
C224 H236 0.960 . S
C224 H237 0.962 . S
C224 H238 0.960 . S
C225 C222 1.511 . S
C225 H239 0.961 . S
C225 H240 0.961 . S
C225 H241 0.961 . S
C226 C227 1.370 . S
C226 C228 1.363 . S
C226 H242 0.931 . S
C227 C226 1.370 . S
C227 C231 1.408 . S
C228 C226 1.363 . S
C228 C229 1.370 . S
C228 C232 1.524 . S
C229 C221 1.503 . S
C229 C228 1.370 . S
C229 C230 1.403 . S
C230 C229 1.403 . S
C230 C231 1.404 . S
C230 C233 1.539 . S
C231 C227 1.408 . S
C231 C230 1.404 . S
C231 H243 0.930 . S
C232 C228 1.524 . S
C232 H244 0.956 . S
C232 H245 0.961 . S
C232 H246 0.961 . S
C233 C230 1.539 . S
C233 H247 0.958 . S
C233 H248 0.961 . S
C233 H249 0.960 . S
H234 C218 0.931 . S
H235 C223 0.929 . S
H236 C224 0.960 . S
H237 C224 0.962 . S
H238 C224 0.960 . S
H239 C225 0.961 . S
H240 C225 0.961 . S
H241 C225 0.961 . S
H242 C226 0.931 . S
H243 C231 0.930 . S
H244 C232 0.956 . S
H245 C232 0.961 . S
H246 C232 0.961 . S
H247 C233 0.958 . S
H248 C233 0.961 . S
H249 C233 0.960 . S
C250 C251 1.391 . S
C250 C252 1.394 . S
C250 H266 0.931 . S
C251 C250 1.391 . S
C251 C255 1.376 . S
C252 C250 1.394 . S
C252 C253 1.369 . S
C252 C256 1.531 . S
C253 C252 1.369 . S
C253 C254 1.410 . S
C253 C261 1.503 . S
C254 C253 1.410 . S
C254 C255 1.392 . S
C254 C257 1.511 . S
C255 C251 1.376 . S
C255 C254 1.392 . S
C255 H267 0.929 . S
C256 C252 1.531 . S
C256 H268 0.960 . S
C256 H269 0.962 . S
C256 H270 0.960 1_565 S
C257 C254 1.511 . S
C257 H271 0.961 . S
C257 H272 0.961 . S
C257 H273 0.961 . S
C258 C259 1.370 . S
C258 C260 1.363 . S
C258 H274 0.931 . S
C259 C258 1.370 . S
C259 C263 1.408 . S
C260 C258 1.363 . S
C260 C261 1.370 . S
C260 C264 1.524 . S
C261 C253 1.503 . S
C261 C260 1.370 . S
C261 C262 1.403 . S
C262 C261 1.403 . S
C262 C263 1.404 . S
C262 C265 1.539 . S
C263 C259 1.408 . S
C263 C262 1.404 . S
C263 H275 0.930 . S
C264 C260 1.524 . S
C264 H276 0.956 . S
C264 H277 0.961 . S
C264 H278 0.961 . S
C265 C262 1.539 . S
C265 H279 0.958 . S
C265 H280 0.961 . S
C265 H281 0.960 . S
H266 C250 0.931 . S
H267 C255 0.929 . S
H268 C256 0.960 . S
H269 C256 0.962 . S
H270 C256 0.960 1_545 S
H271 C257 0.961 . S
H272 C257 0.961 . S
H273 C257 0.961 . S
H274 C258 0.931 . S
H275 C263 0.930 . S
H276 C264 0.956 . S
H277 C264 0.961 . S
H278 C264 0.961 . S
H279 C265 0.958 . S
H280 C265 0.961 . S
H281 C265 0.960 . S
C282 C283 1.391 . S
C282 C284 1.394 . S
C282 H298 0.931 . S
C283 C282 1.391 . S
C283 C287 1.376 . S
C284 C282 1.394 . S
C284 C285 1.369 . S
C284 C288 1.531 . S
C285 C284 1.369 . S
C285 C286 1.410 . S
C285 C293 1.503 . S
C286 C285 1.410 . S
C286 C287 1.392 . S
C286 C289 1.511 . S
C287 C283 1.376 . S
C287 C286 1.392 . S
C287 H299 0.934 . S
C288 C284 1.531 . S
C288 H300 0.960 . S
C288 H301 0.962 . S
C288 H302 0.960 . S
C289 C286 1.511 . S
C289 H303 0.961 . S
C289 H304 0.961 . S
C289 H305 0.961 . S
C290 C291 1.370 . S
C290 C292 1.363 . S
C290 H306 0.931 . S
C291 C290 1.370 . S
C291 C295 1.408 . S
C292 C290 1.363 . S
C292 C293 1.370 . S
C292 C296 1.524 . S
C293 C285 1.503 . S
C293 C292 1.370 . S
C293 C294 1.403 . S
C294 C293 1.403 . S
C294 C295 1.404 . S
C294 C297 1.539 . S
C295 C291 1.408 . S
C295 C294 1.404 . S
C295 H307 0.930 . S
C296 C292 1.524 . S
C296 H308 0.956 . S
C296 H309 0.961 . S
C296 H310 0.961 . S
C297 C294 1.539 . S
C297 H311 0.958 . S
C297 H312 0.961 . S
C297 H313 0.960 . S
H298 C282 0.931 . S
H299 C287 0.934 . S
H300 C288 0.960 . S
H301 C288 0.962 . S
H302 C288 0.960 . S
H303 C289 0.961 . S
H304 C289 0.961 . S
H305 C289 0.961 . S
H306 C290 0.931 . S
H307 C295 0.930 . S
H308 C296 0.956 . S
H309 C296 0.961 . S
H310 C296 0.961 . S
H311 C297 0.958 . S
H312 C297 0.961 . S
H313 C297 0.960 . S
C314 C315 1.391 . S
C314 C316 1.394 . S
C314 H330 0.931 . S
C315 C314 1.391 . S
C315 C319 1.376 . S
C316 C314 1.394 . S
C316 C317 1.369 . S
C316 C320 1.531 . S
C317 C316 1.369 . S
C317 C318 1.410 . S
C317 C325 1.503 . S
C318 C317 1.410 . S
C318 C319 1.392 . S
C318 C321 1.511 . S
C319 C315 1.376 . S
C319 C318 1.392 . S
C319 H331 0.929 1_565 S
C320 C316 1.531 . S
C320 H332 0.960 . S
C320 H333 0.962 . S
C320 H334 0.960 . S
C321 C318 1.511 . S
C321 H335 0.961 1_565 S
C321 H336 0.961 . S
C321 H337 0.961 . S
C322 C323 1.370 . S
C322 C324 1.363 . S
C322 H338 0.931 . S
C323 C322 1.370 . S
C323 C327 1.408 . S
C324 C322 1.363 . S
C324 C325 1.370 . S
C324 C328 1.524 . S
C325 C317 1.503 . S
C325 C324 1.370 . S
C325 C326 1.403 . S
C326 C325 1.403 . S
C326 C327 1.404 . S
C326 C329 1.539 . S
C327 C323 1.408 . S
C327 C326 1.404 . S
C327 H339 0.930 . S
C328 C324 1.524 . S
C328 H340 0.956 . S
C328 H341 0.961 . S
C328 H342 0.961 . S
C329 C326 1.539 . S
C329 H343 0.958 . S
C329 H344 0.961 . S
C329 H345 0.960 . S
H330 C314 0.931 . S
H331 C319 0.929 1_545 S
H332 C320 0.960 . S
H333 C320 0.962 . S
H334 C320 0.960 . S
H335 C321 0.961 1_545 S
H336 C321 0.961 . S
H337 C321 0.961 . S
H338 C322 0.931 . S
H339 C327 0.930 . S
H340 C328 0.956 . S
H341 C328 0.961 . S
H342 C328 0.961 . S
H343 C329 0.958 . S
H344 C329 0.961 . S
H345 C329 0.960 . S
C346 C347 1.391 . S
C346 C348 1.394 . S
C346 H362 0.931 . S
C347 C346 1.391 . S
C347 C351 1.376 . S
C348 C346 1.394 . S
C348 C349 1.369 . S
C348 C352 1.531 . S
C349 C348 1.369 . S
C349 C350 1.410 . S
C349 C357 1.503 . S
C350 C349 1.410 . S
C350 C351 1.392 . S
C350 C353 1.511 . S
C351 C347 1.376 . S
C351 C350 1.392 . S
C351 H363 0.929 . S
C352 C348 1.531 . S
C352 H364 0.960 . S
C352 H365 0.962 . S
C352 H366 0.960 . S
C353 C350 1.511 . S
C353 H367 0.961 . S
C353 H368 0.961 . S
C353 H369 0.961 . S
C354 C355 1.370 . S
C354 C356 1.363 . S
C354 H370 0.931 . S
C355 C354 1.370 . S
C355 C359 1.408 . S
C356 C354 1.363 . S
C356 C357 1.370 . S
C356 C360 1.524 . S
C357 C349 1.503 . S
C357 C356 1.370 . S
C357 C358 1.403 . S
C358 C357 1.403 . S
C358 C359 1.404 . S
C358 C361 1.539 . S
C359 C355 1.408 . S
C359 C358 1.404 . S
C359 H371 0.930 . S
C360 C356 1.524 . S
C360 H372 0.956 . S
C360 H373 0.961 . S
C360 H374 0.961 . S
C361 C358 1.539 . S
C361 H375 0.958 . S
C361 H376 0.961 . S
C361 H377 0.960 . S
H362 C346 0.931 . S
H363 C351 0.929 . S
H364 C352 0.960 . S
H365 C352 0.962 . S
H366 C352 0.960 . S
H367 C353 0.961 . S
H368 C353 0.961 . S
H369 C353 0.961 . S
H370 C354 0.931 . S
H371 C359 0.930 . S
H372 C360 0.956 . S
H373 C360 0.961 . S
H374 C360 0.961 . S
H375 C361 0.958 . S
H376 C361 0.961 . S
H377 C361 0.960 . S
C378 C379 1.391 . S
C378 C380 1.394 . S
C378 H394 0.931 . S
C379 C378 1.391 . S
C379 C383 1.376 . S
C380 C378 1.394 . S
C380 C381 1.369 . S
C380 C384 1.531 . S
C381 C380 1.369 . S
C381 C382 1.410 . S
C381 C389 1.503 . S
C382 C381 1.410 . S
C382 C383 1.392 . S
C382 C385 1.511 . S
C383 C379 1.376 . S
C383 C382 1.392 . S
C383 H395 0.929 . S
C384 C380 1.531 . S
C384 H396 0.960 . S
C384 H397 0.962 . S
C384 H398 0.960 . S
C385 C382 1.511 . S
C385 H399 0.961 . S
C385 H400 0.961 . S
C385 H401 0.961 . S
C386 C387 1.370 . S
C386 C388 1.363 . S
C386 H402 0.931 . S
C387 C386 1.370 . S
C387 C391 1.408 . S
C388 C386 1.363 . S
C388 C389 1.370 . S
C388 C392 1.524 . S
C389 C381 1.503 . S
C389 C388 1.370 . S
C389 C390 1.403 . S
C390 C389 1.403 . S
C390 C391 1.404 . S
C390 C393 1.539 . S
C391 C387 1.408 . S
C391 C390 1.404 . S
C391 H403 0.930 . S
C392 C388 1.524 . S
C392 H404 0.956 . S
C392 H405 0.961 . S
C392 H406 0.961 . S
C393 C390 1.539 . S
C393 H407 0.958 . S
C393 H408 0.961 . S
C393 H409 0.960 . S
H394 C378 0.931 . S
H395 C383 0.929 . S
H396 C384 0.960 . S
H397 C384 0.962 . S
H398 C384 0.960 . S
H399 C385 0.961 . S
H400 C385 0.961 . S
H401 C385 0.961 . S
H402 C386 0.931 . S
H403 C391 0.930 . S
H404 C392 0.956 . S
H405 C392 0.961 . S
H406 C392 0.961 . S
H407 C393 0.958 . S
H408 C393 0.961 . S
H409 C393 0.960 . S
C410 C411 1.391 . S
C410 C412 1.394 . S
C410 H426 0.931 . S
C411 C410 1.391 . S
C411 C415 1.376 . S
C412 C410 1.394 . S
C412 C413 1.369 . S
C412 C416 1.531 . S
C413 C412 1.369 . S
C413 C414 1.410 . S
C413 C421 1.503 . S
C414 C413 1.410 . S
C414 C415 1.392 . S
C414 C417 1.511 . S
C415 C411 1.376 . S
C415 C414 1.392 . S
C415 H427 0.929 . S
C416 C412 1.531 . S
C416 H428 0.960 . S
C416 H429 0.962 . S
C416 H430 0.960 . S
C417 C414 1.511 . S
C417 H431 0.961 . S
C417 H432 0.961 . S
C417 H433 0.961 . S
C418 C419 1.370 . S
C418 C420 1.363 . S
C418 H434 0.931 . S
C419 C418 1.370 . S
C419 C423 1.408 . S
C420 C418 1.363 . S
C420 C421 1.370 . S
C420 C424 1.524 . S
C421 C413 1.503 . S
C421 C420 1.370 . S
C421 C422 1.403 . S
C422 C421 1.403 . S
C422 C423 1.404 . S
C422 C425 1.539 . S
C423 C419 1.408 . S
C423 C422 1.404 . S
C423 H435 0.930 . S
C424 C420 1.524 . S
C424 H436 0.956 . S
C424 H437 0.961 . S
C424 H438 0.961 . S
C425 C422 1.539 . S
C425 H439 0.958 . S
C425 H440 0.961 . S
C425 H441 0.960 . S
H426 C410 0.931 . S
H427 C415 0.929 . S
H428 C416 0.960 . S
H429 C416 0.962 . S
H430 C416 0.960 . S
H431 C417 0.961 . S
H432 C417 0.961 . S
H433 C417 0.961 . S
H434 C418 0.931 . S
H435 C423 0.930 . S
H436 C424 0.956 . S
H437 C424 0.961 . S
H438 C424 0.961 . S
H439 C425 0.958 . S
H440 C425 0.961 . S
H441 C425 0.960 . S
C442 C443 1.391 . S
C442 C444 1.394 . S
C442 H458 0.931 . S
C443 C442 1.391 . S
C443 C447 1.376 . S
C444 C442 1.394 . S
C444 C445 1.369 . S
C444 C448 1.531 . S
C445 C444 1.369 . S
C445 C446 1.410 . S
C445 C453 1.503 . S
C446 C445 1.410 . S
C446 C447 1.392 . S
C446 C449 1.511 . S
C447 C443 1.376 . S
C447 C446 1.392 . S
C447 H459 0.929 1_565 S
C448 C444 1.531 . S
C448 H460 0.960 . S
C448 H461 0.962 . S
C448 H462 0.960 . S
C449 C446 1.511 . S
C449 H463 0.961 1_565 S
C449 H464 0.961 . S
C449 H465 0.961 . S
C450 C451 1.370 . S
C450 C452 1.363 . S
C450 H466 0.931 . S
C451 C450 1.370 . S
C451 C455 1.408 . S
C452 C450 1.363 . S
C452 C453 1.370 . S
C452 C456 1.524 . S
C453 C445 1.503 . S
C453 C452 1.370 . S
C453 C454 1.403 . S
C454 C453 1.403 . S
C454 C455 1.404 . S
C454 C457 1.539 . S
C455 C451 1.408 . S
C455 C454 1.404 . S
C455 H467 0.930 . S
C456 C452 1.524 . S
C456 H468 0.956 . S
C456 H469 0.961 . S
C456 H470 0.961 . S
C457 C454 1.539 . S
C457 H471 0.958 . S
C457 H472 0.961 . S
C457 H473 0.960 . S
H458 C442 0.931 . S
H459 C447 0.929 1_545 S
H460 C448 0.960 . S
H461 C448 0.962 . S
H462 C448 0.960 . S
H463 C449 0.961 1_545 S
H464 C449 0.961 . S
H465 C449 0.961 . S
H466 C450 0.931 . S
H467 C455 0.930 . S
H468 C456 0.956 . S
H469 C456 0.961 . S
H470 C456 0.961 . S
H471 C457 0.958 . S
H472 C457 0.961 . S
H473 C457 0.960 . S
C474 C475 1.391 . S
C474 C476 1.394 . S
C474 H490 0.931 . S
C475 C474 1.391 . S
C475 C479 1.376 . S
C476 C474 1.394 . S
C476 C477 1.369 . S
C476 C480 1.531 . S
C477 C476 1.369 . S
C477 C478 1.410 . S
C477 C485 1.503 . S
C478 C477 1.410 . S
C478 C479 1.392 . S
C478 C481 1.511 . S
C479 C475 1.376 . S
C479 C478 1.392 . S
C479 H491 0.929 . S
C480 C476 1.531 . S
C480 H492 0.960 . S
C480 H493 0.962 . S
C480 H494 0.960 . S
C481 C478 1.511 . S
C481 H495 0.961 . S
C481 H496 0.961 . S
C481 H497 0.961 . S
C482 C483 1.370 . S
C482 C484 1.363 . S
C482 H498 0.931 . S
C483 C482 1.370 . S
C483 C487 1.408 . S
C484 C482 1.363 . S
C484 C485 1.370 . S
C484 C488 1.524 . S
C485 C477 1.503 . S
C485 C484 1.370 . S
C485 C486 1.403 . S
C486 C485 1.403 . S
C486 C487 1.404 . S
C486 C489 1.539 . S
C487 C483 1.408 . S
C487 C486 1.404 . S
C487 H499 0.930 . S
C488 C484 1.524 . S
C488 H500 0.956 . S
C488 H501 0.961 . S
C488 H502 0.961 . S
C489 C486 1.539 . S
C489 H503 0.958 . S
C489 H504 0.961 . S
C489 H505 0.960 . S
H490 C474 0.931 . S
H491 C479 0.929 . S
H492 C480 0.960 . S
H493 C480 0.962 . S
H494 C480 0.960 . S
H495 C481 0.961 . S
H496 C481 0.961 . S
H497 C481 0.961 . S
H498 C482 0.931 . S
H499 C487 0.930 . S
H500 C488 0.956 . S
H501 C488 0.961 . S
H502 C488 0.961 . S
H503 C489 0.958 . S
H504 C489 0.961 . S
H505 C489 0.960 . S
C123 C11 1.945 . S
C131 C99 1.871 . S
C155 C51 1.209 . S
C163 C105 1.137 . S
C187 C7 0.944 . S
C195 C96 0.813 . S
C219 C47 1.394 . S
C227 C121 1.222 . S
C251 C10 2.061 . S
C259 C87 1.977 . S
C291 C104 2.273 . S
C283 C50 2.361 . S
C315 C56 1.188 . S
C323 C100 1.170 . S
C355 C117 1.756 . S
C347 C19 1.779 . S
C387 C84 2.110 . S
C379 C59 2.184 . S
C419 C120 2.075 . S
C411 C2 2.147 . S
C451 C83 1.380 . S
C443 C42 1.508 . S
C483 C108 0.845 . S
C475 C16 0.908 . S
