# Generated by pormake.
# Topology apo, (3,6)-cn, num edge types: 1
# Building blocks:
#     Node 0, Type 0, BuildingBlock: WUSLED_clean_sbu_0, # of connection points: 3
#     Node 1, Type 0, BuildingBlock: WUSLED_clean_sbu_0, # of connection points: 3
#     Node 2, Type 0, BuildingBlock: WUSLED_clean_sbu_0, # of connection points: 3
#     Node 3, Type 0, BuildingBlock: WUSLED_clean_sbu_0, # of connection points: 3
#     Node 4, Type 0, BuildingBlock: WUSLED_clean_sbu_0, # of connection points: 3
#     Node 5, Type 0, BuildingBlock: WUSLED_clean_sbu_0, # of connection points: 3
#     Node 6, Type 0, BuildingBlock: WUSLED_clean_sbu_0, # of connection points: 3
#     Node 7, Type 0, BuildingBlock: WUSLED_clean_sbu_0, # of connection points: 3
#     Node 8, Type 1, BuildingBlock: KUMBUR_clean_sbu_1, # of connection points: 6
#     Node 9, Type 1, BuildingBlock: KUMBUR_clean_sbu_1, # of connection points: 6
#     Node 10, Type 1, BuildingBlock: KUMBUR_clean_sbu_1, # of connection points: 6
#     Node 11, Type 1, BuildingBlock: KUMBUR_clean_sbu_1, # of connection points: 6
#     Edge 12, Type (0, 1), BuildingBlock: ZUJKAS_clean_linker_0, # of connection points: 2
#     Edge 13, Type (0, 1), BuildingBlock: ZUJKAS_clean_linker_0, # of connection points: 2
#     Edge 14, Type (0, 1), BuildingBlock: ZUJKAS_clean_linker_0, # of connection points: 2
#     Edge 15, Type (0, 1), BuildingBlock: ZUJKAS_clean_linker_0, # of connection points: 2
#     Edge 16, Type (0, 1), BuildingBlock: ZUJKAS_clean_linker_0, # of connection points: 2
#     Edge 17, Type (0, 1), BuildingBlock: ZUJKAS_clean_linker_0, # of connection points: 2
#     Edge 18, Type (0, 1), BuildingBlock: ZUJKAS_clean_linker_0, # of connection points: 2
#     Edge 19, Type (0, 1), BuildingBlock: ZUJKAS_clean_linker_0, # of connection points: 2
#     Edge 20, Type (0, 1), BuildingBlock: ZUJKAS_clean_linker_0, # of connection points: 2
#     Edge 21, Type (0, 1), BuildingBlock: ZUJKAS_clean_linker_0, # of connection points: 2
#     Edge 22, Type (0, 1), BuildingBlock: ZUJKAS_clean_linker_0, # of connection points: 2
#     Edge 23, Type (0, 1), BuildingBlock: ZUJKAS_clean_linker_0, # of connection points: 2
#     Edge 24, Type (0, 1), BuildingBlock: ZUJKAS_clean_linker_0, # of connection points: 2
#     Edge 25, Type (0, 1), BuildingBlock: ZUJKAS_clean_linker_0, # of connection points: 2
#     Edge 26, Type (0, 1), BuildingBlock: ZUJKAS_clean_linker_0, # of connection points: 2
#     Edge 27, Type (0, 1), BuildingBlock: ZUJKAS_clean_linker_0, # of connection points: 2
#     Edge 28, Type (0, 1), BuildingBlock: ZUJKAS_clean_linker_0, # of connection points: 2
#     Edge 29, Type (0, 1), BuildingBlock: ZUJKAS_clean_linker_0, # of connection points: 2
#     Edge 30, Type (0, 1), BuildingBlock: ZUJKAS_clean_linker_0, # of connection points: 2
#     Edge 31, Type (0, 1), BuildingBlock: ZUJKAS_clean_linker_0, # of connection points: 2
#     Edge 32, Type (0, 1), BuildingBlock: ZUJKAS_clean_linker_0, # of connection points: 2
#     Edge 33, Type (0, 1), BuildingBlock: ZUJKAS_clean_linker_0, # of connection points: 2
#     Edge 34, Type (0, 1), BuildingBlock: ZUJKAS_clean_linker_0, # of connection points: 2
#     Edge 35, Type (0, 1), BuildingBlock: ZUJKAS_clean_linker_0, # of connection points: 2
# Relax obj value: 0.010
# Max RMSD: 0.089
# Mean RMSD: 0.068
data_MOF--net-apo--node1-WUSLED_clean_sbu_0--node2-KUMBUR_clean_sbu_1--edge1-ZUJKAS_clean_linker_0
_symmetry_space_group_name_H-M    P1
_symmetry_Int_Tables_number       1
_symmetry_cell_setting            triclinic
loop_
_symmetry_equiv_pos_as_xyz
'x, y, z'
_cell_length_a     38.414876
_cell_length_b     67.697272
_cell_length_c     79.087563
_cell_angle_alpha  90.319508
_cell_angle_beta   90.140718
_cell_angle_gamma 90.476569
loop_
_atom_site_label
_atom_site_type_symbol
_atom_site_fract_x
_atom_site_fract_y
_atom_site_fract_z
_atom_type_partial_charge
C0 C 0.30969 0.42784 0.38943 0.0
C1 C 0.33349 0.43983 0.39834 0.0
C2 C 0.33835 0.46185 0.37411 0.0
C3 C 0.34772 0.4567 0.39074 0.0
C4 C 0.31413 0.44984 0.36538 0.0
C5 C 0.3 0.433 0.37297 0.0
U6 U 0.29192 0.39357 0.42702 0.0
O7 O 0.24412 0.37674 0.43294 0.0
O8 O 0.29306 0.36115 0.42825 0.0
C9 C 0.25915 0.35964 0.43022 0.0
C10 C 0.29483 0.40984 0.39696 0.0
C11 C 0.24062 0.34608 0.41846 0.0
C12 C 0.23712 0.32784 0.39186 0.0
C13 C 0.25493 0.34084 0.40272 0.0
C14 C 0.19002 0.32545 0.41205 0.0
C15 C 0.20448 0.31998 0.3964 0.0
C16 C 0.208 0.3383 0.42299 0.0
C17 C 0.32767 0.40905 0.47109 0.0
C18 C 0.33095 0.38872 0.49632 0.0
C19 C 0.34694 0.42337 0.49776 0.0
C20 C 0.33923 0.42535 0.48059 0.0
C21 C 0.34332 0.405 0.50583 0.0
C22 C 0.32324 0.39072 0.47906 0.0
C23 C 0.32169 0.41163 0.45284 0.0
O24 O 0.31741 0.39678 0.40231 0.0
O25 O 0.26893 0.41257 0.40751 0.0
O26 O 0.28942 0.4149 0.44812 0.0
O27 O 0.33817 0.3994 0.44274 0.0
H28 H 0.34122 0.43606 0.4111 0.0
H29 H 0.36651 0.46551 0.39777 0.0
H30 H 0.30582 0.45352 0.3527 0.0
H31 H 0.2815 0.42397 0.36595 0.0
H32 H 0.24875 0.3241 0.37981 0.0
H33 H 0.27988 0.34677 0.39879 0.0
H34 H 0.16506 0.31952 0.41598 0.0
H35 H 0.19643 0.34215 0.43504 0.0
H36 H 0.32801 0.37435 0.50212 0.0
H37 H 0.35571 0.43631 0.50474 0.0
H38 H 0.34266 0.43963 0.47468 0.0
H39 H 0.31432 0.37796 0.4719 0.0
C40 C 0.20514 0.15939 0.97612 0.0
C41 C 0.18512 0.14292 0.98088 0.0
C42 C 0.18207 0.15542 1.00983 0.0
C43 C 0.17366 0.14095 0.99758 0.0
C44 C 0.20219 0.17189 1.00494 0.0
C45 C 0.2136 0.17384 0.98823 0.0
U46 U 0.21243 0.14009 0.93097 0.0
O47 O 0.20828 0.15539 0.90663 0.0
O48 O 0.25689 0.14046 0.91339 0.0
C49 C 0.24088 0.15197 0.90258 0.0
C50 C 0.21745 0.16159 0.95863 0.0
C51 C 0.26131 0.16884 0.89606 0.0
C52 C 0.27042 0.20413 0.89195 0.0
C53 C 0.25205 0.18851 0.89944 0.0
C54 C 0.30817 0.18065 0.87805 0.0
C55 C 0.29843 0.20037 0.88096 0.0
C56 C 0.28973 0.16509 0.88548 0.0
C57 C 0.1704 0.09053 0.91934 0.0
C58 C 0.17627 0.07577 0.89141 0.0
C59 C 0.13993 0.05997 0.91246 0.0
C60 C 0.14811 0.07504 0.92399 0.0
C61 C 0.15397 0.0601 0.89603 0.0
C62 C 0.18441 0.09087 0.90297 0.0
C63 C 0.17867 0.10622 0.93167 0.0
O64 O 0.24134 0.14894 0.95387 0.0
O65 O 0.19298 0.16406 0.9472 0.0
O66 O 0.16337 0.12321 0.92902 0.0
O67 O 0.21174 0.10811 0.93571 0.0
H68 H 0.17847 0.13157 0.97169 0.0
H69 H 0.15862 0.12797 1.00095 0.0
H70 H 0.20877 0.18342 1.01396 0.0
H71 H 0.22898 0.18667 0.98476 0.0
H72 H 0.262 0.2191 0.89437 0.0
H73 H 0.23023 0.19183 0.9076 0.0
H74 H 0.32999 0.1772 0.86995 0.0
H75 H 0.29739 0.15004 0.88273 0.0
H76 H 0.18781 0.07624 0.87894 0.0
H77 H 0.12222 0.04834 0.91636 0.0
H78 H 0.13692 0.07462 0.93655 0.0
H79 H 0.2017 0.10276 0.89918 0.0
C80 C 0.81356 0.10385 0.65071 0.0
C81 C 0.83867 0.09221 0.64265 0.0
C82 C 0.83838 0.06934 0.6664 0.0
C83 C 0.85106 0.0751 0.65045 0.0
C84 C 0.81291 0.08101 0.67427 0.0
C85 C 0.80066 0.09808 0.66649 0.0
U86 U 0.80015 0.13984 0.61365 0.0
O87 O 0.75414 0.15793 0.60806 0.0
O88 O 0.80437 0.17224 0.61367 0.0
C89 C 0.7707 0.17456 0.61145 0.0
C90 C 0.80089 0.12228 0.64319 0.0
C91 C 0.75311 0.18789 0.62349 0.0
C92 C 0.74907 0.20382 0.65108 0.0
C93 C 0.76619 0.19112 0.63989 0.0
C94 C 0.70516 0.20995 0.62978 0.0
C95 C 0.71831 0.21343 0.64618 0.0
C96 C 0.72245 0.19738 0.61856 0.0
C97 C 0.83313 0.12773 0.5689 0.0
C98 C 0.8499 0.15045 0.54654 0.0
C99 C 0.83536 0.11648 0.53965 0.0
C100 C 0.82897 0.11272 0.55675 0.0
C101 C 0.84629 0.13533 0.53436 0.0
C102 C 0.84325 0.14672 0.56364 0.0
C103 C 0.82794 0.12302 0.58695 0.0
O104 O 0.82494 0.13494 0.63833 0.0
O105 O 0.7751 0.1204 0.63235 0.0
O106 O 0.79562 0.11977 0.59167 0.0
O107 O 0.84589 0.13371 0.5979 0.0
H108 H 0.84883 0.09642 0.6304 0.0
H109 H 0.8704 0.06634 0.64397 0.0
H110 H 0.80294 0.07719 0.68664 0.0
H111 H 0.78134 0.10694 0.67292 0.0
H112 H 0.76025 0.20629 0.6635 0.0
H113 H 0.7897 0.18387 0.64408 0.0
H114 H 0.68123 0.21676 0.62563 0.0
H115 H 0.71175 0.19498 0.60602 0.0
H116 H 0.85783 0.1652 0.54285 0.0
H117 H 0.83265 0.10446 0.53063 0.0
H118 H 0.82125 0.09796 0.56053 0.0
H119 H 0.84638 0.15862 0.57274 0.0
C120 C 0.70639 0.36707 0.06277 0.0
C121 C 0.68904 0.38386 0.05686 0.0
C122 C 0.68518 0.36934 0.02858 0.0
C123 C 0.67856 0.385 0.0399 0.0
C124 C 0.70269 0.35261 0.03464 0.0
C125 C 0.71316 0.3515 0.05155 0.0
U126 U 0.71248 0.3873 0.10799 0.0
O127 O 0.70708 0.37209 0.13233 0.0
O128 O 0.75635 0.38696 0.12602 0.0
C129 C 0.73954 0.37568 0.13679 0.0
C130 C 0.71769 0.36553 0.08052 0.0
C131 C 0.75914 0.359 0.1439 0.0
C132 C 0.76999 0.32381 0.14691 0.0
C133 C 0.75263 0.33935 0.13894 0.0
C134 C 0.80119 0.34741 0.16452 0.0
C135 C 0.79417 0.32765 0.15998 0.0
C136 C 0.78381 0.36288 0.15659 0.0
C137 C 0.67212 0.43689 0.11933 0.0
C138 C 0.67853 0.45159 0.1473 0.0
C139 C 0.64242 0.46738 0.12626 0.0
C140 C 0.65016 0.45236 0.1147 0.0
C141 C 0.65658 0.46724 0.1427 0.0
C142 C 0.68622 0.43654 0.13571 0.0
C143 C 0.67996 0.42124 0.10698 0.0
O144 O 0.74172 0.37829 0.08538 0.0
O145 O 0.69264 0.36328 0.09165 0.0
O146 O 0.66396 0.40428 0.10947 0.0
O147 O 0.71303 0.41926 0.10315 0.0
H148 H 0.68354 0.39603 0.06538 0.0
H149 H 0.66486 0.39802 0.03572 0.0
H150 H 0.70875 0.34042 0.02625 0.0
H151 H 0.72665 0.33847 0.05587 0.0
H152 H 0.76376 0.30878 0.14316 0.0
H153 H 0.73371 0.33599 0.12914 0.0
H154 H 0.82011 0.35097 0.17427 0.0
H155 H 0.7893 0.37793 0.16057 0.0
H156 H 0.69016 0.4511 0.15978 0.0
H157 H 0.62496 0.47899 0.12236 0.0
H158 H 0.6389 0.45279 0.10213 0.0
H159 H 0.70325 0.42466 0.1395 0.0
C160 C 0.70376 0.60345 0.64918 0.0
C161 C 0.68033 0.59125 0.64024 0.0
C162 C 0.67633 0.56904 0.66439 0.0
C163 C 0.66672 0.57417 0.64778 0.0
C164 C 0.70027 0.58123 0.67312 0.0
C165 C 0.71378 0.59825 0.66559 0.0
U166 U 0.72017 0.63918 0.61225 0.0
O167 O 0.71762 0.67169 0.61231 0.0
O168 O 0.76693 0.65693 0.60674 0.0
C169 C 0.75132 0.67374 0.60997 0.0
C170 C 0.71764 0.62182 0.64187 0.0
C171 C 0.76941 0.68697 0.62204 0.0
C172 C 0.80033 0.69247 0.64856 0.0
C173 C 0.78287 0.67976 0.63731 0.0
C174 C 0.7905 0.71982 0.62957 0.0
C175 C 0.8044 0.71266 0.64482 0.0
C176 C 0.77323 0.70708 0.61829 0.0
C177 C 0.68769 0.62548 0.56723 0.0
C178 C 0.66822 0.64554 0.54357 0.0
C179 C 0.68879 0.61232 0.53854 0.0
C180 C 0.69496 0.6101 0.55585 0.0
C181 C 0.675 0.62998 0.53218 0.0
C182 C 0.67459 0.64334 0.56093 0.0
C183 C 0.69228 0.62197 0.58554 0.0
O184 O 0.74378 0.61982 0.63133 0.0
O185 O 0.69436 0.63458 0.63671 0.0
O186 O 0.6747 0.63333 0.59597 0.0
O187 O 0.72425 0.61859 0.59066 0.0
H188 H 0.67232 0.59506 0.62753 0.0
H189 H 0.64816 0.56521 0.64075 0.0
H190 H 0.70875 0.57756 0.68578 0.0
H191 H 0.73198 0.60745 0.67264 0.0
H192 H 0.81032 0.68652 0.66028 0.0
H193 H 0.7799 0.66429 0.64052 0.0
H194 H 0.79347 0.73523 0.62622 0.0
H195 H 0.76298 0.71292 0.60658 0.0
H196 H 0.65794 0.6594 0.53908 0.0
H197 H 0.69386 0.59994 0.53019 0.0
H198 H 0.70485 0.59616 0.56041 0.0
H199 H 0.66884 0.65549 0.5694 0.0
C200 C 0.80331 0.87272 0.05989 0.0
C201 C 0.81246 0.8914 0.05361 0.0
C202 C 0.82264 0.87718 0.02565 0.0
C203 C 0.82193 0.89362 0.03662 0.0
C204 C 0.81383 0.85847 0.03211 0.0
C205 C 0.80422 0.85628 0.04906 0.0
U206 U 0.79856 0.89073 0.10574 0.0
O207 O 0.75529 0.88933 0.12396 0.0
O208 O 0.80458 0.8745 0.12955 0.0
C209 C 0.77228 0.87765 0.13425 0.0
C210 C 0.79253 0.87012 0.07762 0.0
C211 C 0.7527 0.86044 0.14065 0.0
C212 C 0.7386 0.82532 0.14055 0.0
C213 C 0.75642 0.84149 0.13359 0.0
C214 C 0.71266 0.84694 0.16143 0.0
C215 C 0.71662 0.82785 0.15462 0.0
C216 C 0.73053 0.86303 0.15452 0.0
C217 C 0.83993 0.94035 0.11802 0.0
C218 C 0.84069 0.95263 0.14697 0.0
C219 C 0.86627 0.97221 0.12459 0.0
C220 C 0.85716 0.95756 0.11281 0.0
C221 C 0.85832 0.9699 0.14183 0.0
C222 C 0.8316 0.93796 0.13516 0.0
C223 C 0.83119 0.92499 0.10545 0.0
O224 O 0.81791 0.86759 0.08855 0.0
O225 O 0.76853 0.88232 0.08308 0.0
O226 O 0.79791 0.92291 0.10191 0.0
O227 O 0.84714 0.90805 0.1074 0.0
H228 H 0.81215 0.90427 0.06182 0.0
H229 H 0.82896 0.9082 0.03212 0.0
H230 H 0.81368 0.84553 0.02399 0.0
H231 H 0.79724 0.84175 0.05369 0.0
H232 H 0.74194 0.81086 0.13489 0.0
H233 H 0.77328 0.83918 0.12281 0.0
H234 H 0.69637 0.84941 0.17238 0.0
H235 H 0.72741 0.87753 0.16018 0.0
H236 H 0.83447 0.95028 0.16016 0.0
H237 H 0.87929 0.98544 0.12014 0.0
H238 H 0.86366 0.95967 0.09962 0.0
H239 H 0.81831 0.92471 0.13939 0.0
C240 C 0.20164 0.92334 0.3888 0.0
C241 C 0.17945 0.93546 0.39826 0.0
C242 C 0.1758 0.95856 0.37476 0.0
C243 C 0.16658 0.95293 0.39128 0.0
C244 C 0.19827 0.94635 0.36543 0.0
C245 C 0.21103 0.92892 0.3724 0.0
U246 U 0.21426 0.88574 0.42451 0.0
O247 O 0.21141 0.85332 0.42325 0.0
O248 O 0.26044 0.86796 0.43041 0.0
C249 C 0.24482 0.85126 0.42629 0.0
C250 C 0.21493 0.9047 0.39562 0.0
C251 C 0.26358 0.83875 0.41415 0.0
C252 C 0.2819 0.8313 0.38542 0.0
C253 C 0.26448 0.84351 0.3969 0.0
C254 C 0.298 0.80958 0.40834 0.0
C255 C 0.29879 0.81412 0.39098 0.0
C256 C 0.28053 0.82178 0.41979 0.0
C257 C 0.17628 0.89525 0.46881 0.0
C258 C 0.19513 0.88221 0.49594 0.0
C259 C 0.13633 0.89423 0.49261 0.0
C260 C 0.14338 0.89889 0.47575 0.0
C261 C 0.16215 0.88592 0.50294 0.0
C262 C 0.2021 0.88674 0.479 0.0
C263 C 0.183 0.9008 0.45106 0.0
O264 O 0.23981 0.90639 0.40698 0.0
O265 O 0.19123 0.8914 0.39955 0.0
O266 O 0.16667 0.89016 0.43952 0.0
O267 O 0.21547 0.90491 0.44705 0.0
H268 H 0.17202 0.93137 0.41099 0.0
H269 H 0.14963 0.96209 0.39887 0.0
H270 H 0.20548 0.95005 0.3526 0.0
H271 H 0.22806 0.91968 0.3649 0.0
H272 H 0.28164 0.83515 0.37215 0.0
H273 H 0.25149 0.85659 0.39233 0.0
H274 H 0.31117 0.79667 0.41312 0.0
H275 H 0.28022 0.81794 0.43307 0.0
H276 H 0.21545 0.87561 0.5035 0.0
H277 H 0.11081 0.89749 0.49764 0.0
H278 H 0.12313 0.90549 0.46813 0.0
H279 H 0.22766 0.88366 0.47393 0.0
C280 C 0.30974 0.65894 0.97567 0.0
C281 C 0.32302 0.64119 0.98199 0.0
C282 C 0.32869 0.65592 1.01013 0.0
C283 C 0.33241 0.63968 0.99907 0.0
C284 C 0.31567 0.67372 1.0036 0.0
C285 C 0.30627 0.67518 0.98656 0.0
U286 U 0.30558 0.63918 0.93032 0.0
O287 O 0.26273 0.63958 0.91176 0.0
O288 O 0.31226 0.65454 0.90611 0.0
C289 C 0.28017 0.65075 0.90116 0.0
C290 C 0.29929 0.66079 0.95782 0.0
C291 C 0.26086 0.66721 0.89358 0.0
C292 C 0.24566 0.70196 0.89183 0.0
C293 C 0.26323 0.68658 0.89994 0.0
C294 C 0.22282 0.67866 0.87117 0.0
C295 C 0.22533 0.69817 0.87729 0.0
C296 C 0.2404 0.66338 0.87924 0.0
C297 C 0.34511 0.58969 0.91874 0.0
C298 C 0.35512 0.5796 0.88961 0.0
C299 C 0.35718 0.55537 0.91202 0.0
C300 C 0.34985 0.57013 0.92391 0.0
C301 C 0.36006 0.55995 0.89474 0.0
C302 C 0.34752 0.59432 0.9015 0.0
C303 C 0.33727 0.60503 0.93141 0.0
O304 O 0.3249 0.66304 0.94699 0.0
O305 O 0.27526 0.64823 0.95257 0.0
O306 O 0.30412 0.60713 0.93498 0.0
O307 O 0.3538 0.62196 0.9295 0.0
H308 H 0.32591 0.62848 0.97374 0.0
H309 H 0.34203 0.62571 1.00367 0.0
H310 H 0.31304 0.68663 1.01162 0.0
H311 H 0.29626 0.68904 0.98188 0.0
H312 H 0.24785 0.71677 0.89697 0.0
H313 H 0.27882 0.68983 0.91106 0.0
H314 H 0.20789 0.67522 0.85988 0.0
H315 H 0.23839 0.64853 0.8741 0.0
H316 H 0.35677 0.58355 0.87638 0.0
H317 H 0.36119 0.54043 0.91639 0.0
H318 H 0.34797 0.56628 0.93715 0.0
H319 H 0.34356 0.60932 0.89723 0.0
Tb320 Tb 0.04436 0.15344 0.25509 0.0
C321 C 0.88751 0.13853 0.27438 0.0
N322 N 0.90649 0.15533 0.27687 0.0
C323 C 0.85831 0.17482 0.26754 0.0
C324 C 0.85326 0.1392 0.26801 0.0
C325 C 0.8922 0.17339 0.2739 0.0
C326 C 0.8388 0.15765 0.26449 0.0
C327 C 0.88421 0.10276 0.27543 0.0
C328 C 0.90278 0.12055 0.27803 0.0
C329 C 0.8501 0.10332 0.26902 0.0
C330 C 0.83466 0.1215 0.26532 0.0
Tb331 Tb 0.96199 0.15105 0.2865 0.0
N332 N 0.93637 0.12057 0.28356 0.0
C333 C 0.90058 0.08495 0.27929 0.0
C334 C 0.95174 0.10331 0.28819 0.0
C335 C 0.93434 0.08526 0.28588 0.0
H336 H 0.90661 0.18672 0.27682 0.0
H337 H 0.94692 0.07159 0.28931 0.0
H338 H 0.10431 0.12291 0.26966 0.0
H339 H 0.0447 0.23282 0.24619 0.0
H340 H 0.97716 0.1033 0.29383 0.0
H341 H 0.88724 0.07093 0.27746 0.0
H342 H 0.02218 0.1991 0.2426 0.0
H343 H 0.84719 0.18917 0.26511 0.0
H344 H 0.83544 0.08979 0.26688 0.0
H345 H 0.80833 0.1217 0.26038 0.0
H346 H 0.16271 0.12553 0.28256 0.0
H347 H 0.81256 0.15881 0.25956 0.0
H348 H 0.10146 0.23856 0.26028 0.0
N349 N 0.09894 0.15391 0.26649 0.0
C350 C 0.11423 0.172 0.26809 0.0
C351 C 0.14928 0.13873 0.27863 0.0
C352 C 0.14757 0.1742 0.27537 0.0
C353 C 0.11602 0.13731 0.27147 0.0
C354 C 0.16509 0.15725 0.28065 0.0
N355 N 0.06306 0.18568 0.25651 0.0
C356 C 0.04565 0.20128 0.24976 0.0
C357 C 0.11025 0.2075 0.26482 0.0
C358 C 0.09563 0.18843 0.26301 0.0
C359 C 0.09117 0.22367 0.25913 0.0
C360 C 0.05899 0.22049 0.25131 0.0
H361 H 0.19077 0.15831 0.28629 0.0
H362 H 0.1876 0.19519 0.28298 0.0
H363 H 0.155 0.22434 0.27368 0.0
O364 O 0.04523 0.1603 0.22914 0.0
O365 O 0.04934 0.16464 0.2812 0.0
O366 O 0.99575 0.17729 0.28781 0.0
O367 O 0.08165 0.13985 0.23951 0.0
O368 O 0.99442 0.16637 0.24717 0.0
O369 O 0.96879 0.1779 0.27165 0.0
O370 O 0.96644 0.14317 0.31215 0.0
O371 O 0.95674 0.13708 0.26131 0.0
O372 O 0.0116 0.12695 0.25327 0.0
O373 O 0.92685 0.16317 0.304 0.0
O374 O 0.01015 0.13574 0.29384 0.0
O375 O 0.0397 0.12608 0.26955 0.0
C376 C 0.02983 0.17734 0.28934 0.0
C377 C 0.06268 0.13413 0.2115 0.0
C378 C 0.0651 0.12672 0.1812 0.0
C379 C 0.04749 0.10877 0.18423 0.0
C380 C 0.04564 0.11603 0.21418 0.0
C381 C 0.0379 0.1035 0.20061 0.0
C382 C 0.0725 0.13941 0.19499 0.0
C383 C 0.97239 0.17803 0.25511 0.0
C384 C 0.06967 0.14772 0.22576 0.0
C385 C 0.16206 0.19319 0.27736 0.0
C386 C 0.14345 0.20979 0.2721 0.0
C387 C 0.9775 0.12536 0.25278 0.0
C388 C 0.94911 0.16769 0.33156 0.0
C389 C 0.94701 0.17374 0.36208 0.0
C390 C 0.96378 0.19205 0.35952 0.0
C391 C 0.96546 0.18606 0.32934 0.0
C392 C 0.93989 0.16157 0.34792 0.0
C393 C 0.97295 0.19811 0.34326 0.0
C394 C 0.03228 0.12423 0.28577 0.0
C395 C 0.94149 0.15483 0.31691 0.0
H396 H 0.04176 0.09857 0.17398 0.0
H397 H 0.03854 0.11154 0.22678 0.0
H398 H 0.02465 0.08957 0.20282 0.0
H399 H 0.08555 0.15343 0.19289 0.0
H400 H 0.96923 0.20192 0.37004 0.0
H401 H 0.97211 0.19112 0.31684 0.0
H402 H 0.92743 0.14729 0.3496 0.0
H403 H 0.9856 0.21229 0.34144 0.0
Tb404 Tb 0.46497 0.37533 0.75304 0.0
C405 C 0.60344 0.40862 0.7776 0.0
N406 N 0.59465 0.38943 0.77483 0.0
C407 C 0.647 0.3847 0.75893 0.0
C408 C 0.63358 0.41697 0.77039 0.0
C409 C 0.61657 0.37716 0.76626 0.0
C410 C 0.65529 0.40477 0.76078 0.0
C411 C 0.59073 0.43955 0.79162 0.0
C412 C 0.58226 0.41968 0.78799 0.0
C413 C 0.61978 0.44834 0.7838 0.0
C414 C 0.64122 0.43705 0.77322 0.0
Tb415 Tb 0.54415 0.37857 0.78685 0.0
N416 N 0.55477 0.41051 0.79544 0.0
C417 C 0.57058 0.4497 0.80348 0.0
C418 C 0.53743 0.41976 0.80827 0.0
C419 C 0.54427 0.43961 0.81212 0.0
H420 H 0.61022 0.36167 0.76486 0.0
H421 H 0.52969 0.447 0.82196 0.0
H422 H 0.40712 0.40842 0.76764 0.0
H423 H 0.44683 0.29898 0.73573 0.0
H424 H 0.51874 0.41178 0.81581 0.0
H425 H 0.57615 0.465 0.80664 0.0
H426 H 0.47682 0.33152 0.73609 0.0
H427 H 0.66397 0.37507 0.75182 0.0
H428 H 0.62648 0.46367 0.78626 0.0
H429 H 0.664 0.44386 0.7676 0.0
H430 H 0.35157 0.40755 0.78291 0.0
H431 H 0.67876 0.41059 0.75503 0.0
H432 H 0.39154 0.29449 0.75135 0.0
N433 N 0.41167 0.37705 0.76607 0.0
C434 C 0.3943 0.35958 0.76761 0.0
C435 C 0.3636 0.39389 0.77895 0.0
C436 C 0.36151 0.35845 0.77553 0.0
C437 C 0.3957 0.39426 0.77064 0.0
C438 C 0.3467 0.37586 0.78169 0.0
N439 N 0.43957 0.34484 0.75228 0.0
C440 C 0.45287 0.32956 0.74303 0.0
C441 C 0.39026 0.3248 0.76023 0.0
C442 C 0.40837 0.34298 0.76012 0.0
C443 C 0.40464 0.30873 0.75157 0.0
C444 C 0.43588 0.3112 0.74275 0.0
H445 H 0.32157 0.37564 0.78789 0.0
H446 H 0.31886 0.33899 0.78253 0.0
H447 H 0.34395 0.30955 0.76899 0.0
O448 O 0.47504 0.37422 0.72691 0.0
O449 O 0.47594 0.35106 0.77067 0.0
O450 O 0.49408 0.36636 0.79503 0.0
O451 O 0.42579 0.38412 0.73606 0.0
O452 O 0.51473 0.36252 0.74519 0.0
O453 O 0.54412 0.35293 0.76961 0.0
O454 O 0.56947 0.37968 0.81079 0.0
O455 O 0.54942 0.39031 0.76101 0.0
O456 O 0.49567 0.40259 0.75465 0.0
O457 O 0.56798 0.35272 0.79566 0.0
O458 O 0.4932 0.39042 0.7945 0.0
O459 O 0.4673 0.40148 0.76984 0.0
C460 C 0.47645 0.35233 0.78723 0.0
C461 C 0.44644 0.39821 0.7108 0.0
C462 C 0.4394 0.41051 0.68197 0.0
C463 C 0.45008 0.42937 0.68766 0.0
C464 C 0.45671 0.41715 0.71618 0.0
C465 C 0.45865 0.43261 0.70463 0.0
C466 C 0.43774 0.39494 0.69373 0.0
C467 C 0.5375 0.35142 0.75323 0.0
C468 C 0.44521 0.38172 0.72281 0.0
C469 C 0.34396 0.34018 0.77638 0.0
C470 C 0.35822 0.32341 0.76866 0.0
C471 C 0.52975 0.40374 0.75397 0.0
C472 C 0.5985 0.35071 0.82258 0.0
C473 C 0.61753 0.34645 0.8519 0.0
C474 C 0.63498 0.32915 0.847 0.0
C475 C 0.61604 0.33335 0.81809 0.0
C476 C 0.59966 0.35738 0.83951 0.0
C477 C 0.63432 0.32274 0.83022 0.0
C478 C 0.47231 0.40249 0.78635 0.0
C479 C 0.57824 0.36125 0.80959 0.0
H480 H 0.45124 0.44175 0.67905 0.0
H481 H 0.46308 0.41996 0.7293 0.0
H482 H 0.46662 0.4472 0.70887 0.0
H483 H 0.43012 0.38023 0.6896 0.0
H484 H 0.64938 0.32061 0.85617 0.0
H485 H 0.61566 0.32795 0.80517 0.0
H486 H 0.58581 0.37062 0.84313 0.0
H487 H 0.64787 0.30941 0.82662 0.0
Tb488 Tb 0.05499 0.87798 0.75069 0.0
C489 C 0.91713 0.8467 0.77779 0.0
N490 N 0.9272 0.86581 0.77582 0.0
C491 C 0.87332 0.8729 0.7618 0.0
C492 C 0.88519 0.8397 0.77124 0.0
C493 C 0.90547 0.87909 0.76839 0.0
C494 C 0.86329 0.85306 0.76307 0.0
C495 C 0.92958 0.81436 0.78902 0.0
C496 C 0.93912 0.83427 0.78645 0.0
C497 C 0.89834 0.80703 0.78202 0.0
C498 C 0.87614 0.81969 0.77318 0.0
Tb499 Tb 0.98022 0.87448 0.78679 0.0
N500 N 0.96892 0.84199 0.79313 0.0
C501 C 0.95111 0.80263 0.79904 0.0
C502 C 0.98813 0.83108 0.80419 0.0
C503 C 0.98015 0.81115 0.80693 0.0
H504 H 0.91309 0.89443 0.76742 0.0
H505 H 0.99602 0.8025 0.81539 0.0
H506 H 0.11212 0.84247 0.76067 0.0
H507 H 0.07981 0.9546 0.73691 0.0
H508 H 0.00916 0.83774 0.8113 0.0
H509 H 0.94474 0.78726 0.80133 0.0
H510 H 0.04723 0.92283 0.73557 0.0
H511 H 0.85637 0.8834 0.75572 0.0
H512 H 0.89073 0.79172 0.78371 0.0
H513 H 0.85185 0.81395 0.7681 0.0
H514 H 0.16884 0.84055 0.77505 0.0
H515 H 0.83848 0.84827 0.75786 0.0
H516 H 0.1353 0.95677 0.75287 0.0
N517 N 0.10947 0.87389 0.7622 0.0
C518 C 0.12813 0.89075 0.76491 0.0
C519 C 0.15741 0.85481 0.77257 0.0
C520 C 0.16146 0.8904 0.77239 0.0
C521 C 0.12475 0.85597 0.76478 0.0
C522 C 0.17554 0.87212 0.77675 0.0
N523 N 0.0835 0.90767 0.751 0.0
C524 C 0.07145 0.92378 0.74251 0.0
C525 C 0.13441 0.92592 0.75996 0.0
C526 C 0.11501 0.90823 0.75877 0.0
C527 C 0.12115 0.94288 0.75228 0.0
C528 C 0.08983 0.9417 0.74325 0.0
H529 H 0.20106 0.87118 0.78254 0.0
H530 H 0.20571 0.90823 0.78044 0.0
H531 H 0.18194 0.93939 0.76956 0.0
O532 O 0.04135 0.88085 0.72505 0.0
O533 O 0.04808 0.90226 0.76906 0.0
O534 O 0.03226 0.88565 0.79282 0.0
O535 O 0.09107 0.86951 0.73203 0.0
O536 O 0.00514 0.89242 0.74531 0.0
O537 O 0.97861 0.90107 0.77087 0.0
O538 O 0.96195 0.87156 0.81174 0.0
O539 O 0.97067 0.86448 0.76062 0.0
O540 O 0.02239 0.85133 0.75194 0.0
O541 O 0.95864 0.89931 0.79893 0.0
O542 O 0.03195 0.86205 0.7921 0.0
O543 O 0.05312 0.85107 0.76638 0.0
C544 C 0.04633 0.90107 0.78557 0.0
C545 C 0.06659 0.85792 0.70646 0.0
C546 C 0.07205 0.84791 0.67683 0.0
C547 C 0.05827 0.82924 0.68102 0.0
C548 C 0.05321 0.83918 0.71038 0.0
C549 C 0.04898 0.82495 0.69769 0.0
C550 C 0.07608 0.86222 0.68973 0.0
C551 C 0.98438 0.90367 0.75451 0.0
C552 C 0.07015 0.87327 0.71959 0.0
C553 C 0.18023 0.90816 0.77454 0.0
C554 C 0.16674 0.9259 0.76831 0.0
C555 C 0.98821 0.85104 0.75229 0.0
C556 C 0.91685 0.89265 0.82044 0.0
C557 C 0.88126 0.8938 0.84609 0.0
C558 C 0.85226 0.89865 0.83608 0.0
C559 C 0.88764 0.89773 0.81077 0.0
C560 C 0.91351 0.89072 0.83807 0.0
C561 C 0.85551 0.90059 0.81857 0.0
C562 C 0.05088 0.8498 0.78299 0.0
C563 C 0.95127 0.88965 0.81266 0.0
H564 H 0.05514 0.81784 0.67147 0.0
H565 H 0.0461 0.8356 0.72323 0.0
H566 H 0.03854 0.81051 0.70079 0.0
H567 H 0.08609 0.8768 0.68672 0.0
H568 H 0.82694 0.90081 0.84176 0.0
H569 H 0.88962 0.89963 0.79726 0.0
H570 H 0.93628 0.88719 0.84556 0.0
H571 H 0.83302 0.9044 0.81102 0.0
Tb572 Tb 0.47551 0.64956 0.25106 0.0
C573 C 0.62677 0.66692 0.26878 0.0
N574 N 0.60869 0.64983 0.27118 0.0
C575 C 0.65553 0.63154 0.25871 0.0
C576 C 0.6593 0.66709 0.26057 0.0
C577 C 0.62372 0.63214 0.26727 0.0
C578 C 0.67311 0.64913 0.25504 0.0
C579 C 0.63281 0.70193 0.27485 0.0
C580 C 0.61383 0.68408 0.27576 0.0
C581 C 0.66449 0.70239 0.26603 0.0
C582 C 0.67763 0.68502 0.25882 0.0
Tb583 Tb 0.55572 0.65307 0.2843 0.0
N584 N 0.58298 0.68307 0.28402 0.0
C585 C 0.6197 0.7186 0.28316 0.0
C586 C 0.571 0.69893 0.29297 0.0
C587 C 0.5889 0.71701 0.29247 0.0
H588 H 0.61165 0.61835 0.27091 0.0
H589 H 0.57896 0.72968 0.29925 0.0
H590 H 0.40974 0.66688 0.27298 0.0
H591 H 0.4897 0.58013 0.21734 0.0
H592 H 0.5473 0.69766 0.30023 0.0
H593 H 0.6335 0.73261 0.28276 0.0
H594 H 0.50036 0.61556 0.22259 0.0
H595 H 0.66679 0.61749 0.25525 0.0
H596 H 0.67939 0.716 0.26505 0.0
H597 H 0.70252 0.68549 0.25241 0.0
H598 H 0.35645 0.65372 0.28663 0.0
H599 H 0.69801 0.64861 0.24866 0.0
H600 H 0.44404 0.56241 0.23345 0.0
N601 N 0.42543 0.63888 0.2636 0.0
C602 C 0.41683 0.61957 0.26134 0.0
C603 C 0.37338 0.64392 0.27967 0.0
C604 C 0.38698 0.61135 0.26893 0.0
C605 C 0.40353 0.65133 0.27199 0.0
C606 C 0.36533 0.62377 0.27836 0.0
N607 N 0.46501 0.61732 0.24323 0.0
C608 C 0.482 0.60776 0.23046 0.0
C609 C 0.42958 0.58826 0.24798 0.0
C610 C 0.43788 0.60827 0.25109 0.0
C611 C 0.44949 0.57783 0.2362 0.0
C612 C 0.47533 0.58776 0.22712 0.0
H613 H 0.34209 0.61804 0.28439 0.0
H614 H 0.35705 0.58442 0.27259 0.0
H615 H 0.39435 0.56417 0.25417 0.0
O616 O 0.44942 0.64777 0.22733 0.0
O617 O 0.47084 0.63883 0.27725 0.0
O618 O 0.52431 0.62606 0.28325 0.0
O619 O 0.45103 0.67507 0.242 0.0
O620 O 0.52625 0.63762 0.24321 0.0
O621 O 0.55195 0.62663 0.26789 0.0
O622 O 0.54553 0.65501 0.31039 0.0
O623 O 0.5448 0.67713 0.26643 0.0
O624 O 0.5253 0.66167 0.24234 0.0
O625 O 0.59453 0.64439 0.30155 0.0
O626 O 0.50681 0.66697 0.29213 0.0
O627 O 0.47622 0.67566 0.26777 0.0
C628 C 0.49029 0.62537 0.28438 0.0
C629 C 0.41933 0.67633 0.21541 0.0
C630 C 0.39913 0.68005 0.1862 0.0
C631 C 0.38017 0.69676 0.19127 0.0
C632 C 0.40041 0.69315 0.22003 0.0
C633 C 0.38082 0.7032 0.20804 0.0
C634 C 0.41838 0.66968 0.19848 0.0
C635 C 0.54713 0.62558 0.25138 0.0
C636 C 0.44032 0.66616 0.22833 0.0
C637 C 0.37958 0.59114 0.26665 0.0
C638 C 0.40089 0.5796 0.25621 0.0
C639 C 0.54356 0.67566 0.24988 0.0
C640 C 0.57302 0.6311 0.327 0.0
C641 C 0.57805 0.61952 0.35615 0.0
C642 C 0.56699 0.60063 0.35071 0.0
C643 C 0.56241 0.61213 0.32187 0.0
C644 C 0.58093 0.63474 0.34411 0.0
C645 C 0.55928 0.59701 0.3337 0.0
C646 C 0.48365 0.67777 0.28403 0.0
C647 C 0.57505 0.6473 0.3147 0.0
H648 H 0.36454 0.70482 0.18226 0.0
H649 H 0.4006 0.6985 0.23297 0.0
H650 H 0.36611 0.71609 0.21175 0.0
H651 H 0.43334 0.65686 0.19478 0.0
H652 H 0.56485 0.58854 0.35957 0.0
H653 H 0.55661 0.60902 0.30873 0.0
H654 H 0.58884 0.64947 0.34805 0.0
H655 H 0.55101 0.58241 0.32965 0.0
H656 H 0.21009 0.9856 0.35506 0.0
H657 H 0.18591 0.01447 0.34098 0.0
H658 H 0.08562 1.00213 0.36309 0.0
H659 H 0.10934 0.97283 0.37681 0.0
H660 H 0.08205 1.00937 0.32877 0.0
H661 H 0.15947 0.06786 0.36119 0.0
H662 H 0.1855 0.04879 0.35186 0.0
H663 H 0.1566 0.04288 0.36899 0.0
C664 C 0.18287 0.989 0.35693 0.0
C665 C 0.16165 0.97686 0.36706 0.0
C666 C 0.16919 1.00566 0.34902 0.0
C667 C 0.13407 1.01062 0.35116 0.0
C668 C 0.11286 0.99865 0.36136 0.0
H669 H 0.03485 0.11961 0.32008 0.0
H670 H 0.05924 0.09202 0.33588 0.0
C671 C 0.12652 0.98198 0.36929 0.0
C672 C 0.1191 0.02774 0.34212 0.0
H673 H 0.12726 0.07763 0.3369 0.0
C674 C 0.09182 0.02431 0.3306 0.0
C675 C 0.13164 0.04726 0.34465 0.0
C676 C 0.15968 0.05201 0.35746 0.0
C677 C 0.07715 0.0398 0.32131 0.0
C678 C 0.09053 0.0592 0.3234 0.0
C679 C 0.11734 0.06271 0.33516 0.0
C680 C 0.07658 0.0761 0.31371 0.0
C681 C 0.04712 0.03531 0.30953 0.0
C682 C 0.07872 0.07645 0.29599 0.0
C683 C 0.06471 0.09218 0.2869 0.0
C684 C 0.04852 0.10793 0.29537 0.0
C685 C 0.04701 0.10769 0.31314 0.0
C686 C 0.06102 0.09196 0.32221 0.0
H687 H 0.03435 0.02098 0.31257 0.0
H688 H 0.0273 0.04714 0.3101 0.0
H689 H 0.05693 0.03441 0.29636 0.0
H690 H 0.09114 0.06451 0.28919 0.0
H691 H 0.06617 0.09183 0.27322 0.0
H692 H 0.33304 0.52249 0.89245 0.0
H693 H 0.34931 0.49629 0.87254 0.0
H694 H 0.42241 0.53586 0.84868 0.0
H695 H 0.40658 0.56209 0.86864 0.0
H696 H 0.34924 0.49714 0.83467 0.0
H697 H 0.47935 0.48591 0.86409 0.0
H698 H 0.44433 0.49815 0.87505 0.0
H699 H 0.4681 0.51091 0.85888 0.0
C700 C 0.35263 0.52559 0.88299 0.0
C701 C 0.36868 0.54432 0.88219 0.0
C702 C 0.3617 0.51067 0.87156 0.0
C703 C 0.38721 0.51413 0.85925 0.0
C704 C 0.40281 0.53289 0.85818 0.0
H705 H 0.45293 0.43898 0.7753 0.0
H706 H 0.42971 0.46623 0.79236 0.0
C707 C 0.39359 0.54787 0.86952 0.0
C708 C 0.39829 0.4979 0.84789 0.0
H709 H 0.4662 0.46711 0.83968 0.0
C710 C 0.37481 0.49058 0.8357 0.0
C711 C 0.43156 0.48933 0.84941 0.0
C712 C 0.45733 0.49631 0.86262 0.0
C713 C 0.38392 0.4749 0.82489 0.0
C714 C 0.41729 0.46643 0.82635 0.0
C715 C 0.44067 0.47372 0.83858 0.0
C716 C 0.42833 0.44961 0.81564 0.0
C717 C 0.35767 0.46723 0.8122 0.0
C718 C 0.43496 0.43126 0.82307 0.0
C719 C 0.44798 0.4157 0.81337 0.0
C720 C 0.45512 0.41832 0.79611 0.0
C721 C 0.44752 0.43654 0.78856 0.0
C722 C 0.43429 0.45209 0.79827 0.0
H723 H 0.33116 0.47299 0.81466 0.0
H724 H 0.36565 0.47184 0.79933 0.0
H725 H 0.35665 0.45083 0.81237 0.0
H726 H 0.4305 0.42907 0.83646 0.0
H727 H 0.45326 0.40175 0.81947 0.0
H728 H 0.6545 0.56546 0.69715 0.0
H729 H 0.63144 0.53612 0.71118 0.0
H730 H 0.64015 0.50299 0.66469 0.0
H731 H 0.66367 0.53231 0.65053 0.0
H732 H 0.57628 0.49736 0.68135 0.0
H733 H 0.68748 0.48752 0.72526 0.0
H734 H 0.66932 0.51187 0.72592 0.0
H735 H 0.68994 0.50322 0.70691 0.0
C736 C 0.65193 0.55189 0.68992 0.0
C737 C 0.66131 0.55122 0.67274 0.0
C738 C 0.63871 0.53512 0.69798 0.0
C739 C 0.63468 0.51727 0.68907 0.0
C740 C 0.64325 0.5166 0.67183 0.0
H741 H 0.59205 0.40366 0.73736 0.0
H742 H 0.61816 0.4306 0.72099 0.0
C743 C 0.65653 0.5334 0.66374 0.0
C744 C 0.62099 0.49944 0.69776 0.0
H745 H 0.63608 0.46883 0.73115 0.0
C746 C 0.58946 0.49102 0.69216 0.0
C747 C 0.63847 0.49101 0.71171 0.0
C748 C 0.67335 0.49873 0.71773 0.0
C749 C 0.57438 0.4748 0.70049 0.0
C750 C 0.59106 0.46699 0.71494 0.0
C751 C 0.62315 0.47499 0.72019 0.0
C752 C 0.57539 0.45072 0.72494 0.0
C753 C 0.54077 0.46613 0.69372 0.0
C754 C 0.54305 0.45322 0.73285 0.0
C755 C 0.52837 0.43795 0.74236 0.0
C756 C 0.54581 0.41993 0.74418 0.0
C757 C 0.57831 0.41749 0.73638 0.0
C758 C 0.5931 0.43281 0.72693 0.0
H759 H 0.53675 0.4699 0.68021 0.0
H760 H 0.54021 0.4498 0.69501 0.0
H761 H 0.51865 0.47224 0.70102 0.0
H762 H 0.52929 0.46705 0.7318 0.0
H763 H 0.50347 0.44033 0.74841 0.0
H764 H 0.91945 0.99094 0.14328 0.0
H765 H 0.93607 0.0169 0.16337 0.0
H766 H 0.83769 1.01003 0.18889 0.0
H767 H 0.82069 0.98407 0.16873 0.0
H768 H 0.90318 0.05259 0.16967 0.0
H769 H 0.90852 1.0067 0.22764 0.0
H770 H 0.90737 0.99609 0.20665 0.0
H771 H 0.86817 1.00521 0.21615 0.0
C772 C 0.90122 0.99499 0.1531 0.0
C773 C 0.86869 0.98541 0.15436 0.0
C774 C 0.91085 1.00978 0.16463 0.0
C775 C 0.88831 0.01527 0.17774 0.0
C776 C 0.8558 1.00577 0.17907 0.0
H777 H 0.91332 0.12382 0.23776 0.0
H778 H 0.88901 0.09697 0.22026 0.0
C779 C 0.84613 0.99093 0.16754 0.0
C780 C 0.89865 0.0313 0.18969 0.0
H781 H 0.91657 0.04119 0.23126 0.0
C782 C 0.90597 0.05012 0.18315 0.0
C783 C 0.90262 0.02799 0.20724 0.0
C784 C 0.89658 1.00788 0.21488 0.0
C785 C 0.91719 0.06571 0.19367 0.0
C786 C 0.9207 0.06246 0.21123 0.0
C787 C 0.91341 0.04367 0.2178 0.0
C788 C 0.93396 0.07814 0.22277 0.0
C789 C 0.92622 0.08539 0.18587 0.0
C790 C 0.96673 0.07615 0.23038 0.0
C791 C 0.98058 0.09139 0.24036 0.0
C792 C 0.9619 0.10891 0.24291 0.0
C793 C 0.92844 0.11057 0.23585 0.0
C794 C 0.91461 0.0953 0.22582 0.0
H795 H 0.92802 0.08445 0.17187 0.0
H796 H 0.90579 0.09624 0.18915 0.0
H797 H 0.95139 0.09107 0.19094 0.0
H798 H 0.98194 0.06295 0.22829 0.0
H799 H 0.00604 0.0895 0.24601 0.0
H800 H 0.80169 0.04142 0.68408 0.0
H801 H 0.8246 1.01323 0.69968 0.0
H802 H 0.92856 0.02831 0.68356 0.0
H803 H 0.90601 0.05688 0.66832 0.0
H804 H 0.86218 0.98077 0.68828 0.0
H805 H 0.93829 0.02471 0.73512 0.0
H806 H 0.9056 0.03552 0.72168 0.0
H807 H 0.94822 0.0304 0.71349 0.0
C808 C 0.82948 0.03884 0.68396 0.0
C809 C 0.85205 0.05152 0.67505 0.0
C810 C 0.84249 0.02266 0.6928 0.0
C811 C 0.87833 0.01887 0.69302 0.0
C812 C 0.90087 0.03118 0.68382 0.0
H813 H 0.98494 0.91214 0.72071 0.0
H814 H 0.95745 0.93972 0.7064 0.0
C815 C 0.88788 0.04737 0.67495 0.0
C816 C 0.89206 1.00195 0.70278 0.0
H817 H 0.94759 0.99001 0.73488 0.0
C818 C 0.88074 0.98279 0.69852 0.0
C819 C 0.91583 1.00463 0.71632 0.0
C820 C 0.9275 0.02493 0.72207 0.0
C821 C 0.89326 0.96619 0.70713 0.0
C822 C 0.91811 0.96883 0.72021 0.0
C823 C 0.92874 0.98802 0.72477 0.0
C824 C 0.93409 0.95184 0.72901 0.0
C825 C 0.87955 0.946 0.70225 0.0
C826 C 0.9307 0.94967 0.74658 0.0
C827 C 0.94662 0.93391 0.75489 0.0
C828 C 0.96649 0.92011 0.74579 0.0
C829 C 0.96979 0.9224 0.72818 0.0
C830 C 0.95389 0.93812 0.71991 0.0
H831 H 0.85413 0.9469 0.69558 0.0
H832 H 0.89832 0.9388 0.69359 0.0
H833 H 0.87635 0.93648 0.71354 0.0
H834 H 0.9157 0.96018 0.75385 0.0
H835 H 0.9436 0.93268 0.76846 0.0
H836 H 0.64305 0.4642 0.17671 0.0
H837 H 0.62743 0.49071 0.19643 0.0
H838 H 0.63551 0.53315 0.15617 0.0
H839 H 0.65163 0.50688 0.13645 0.0
H840 H 0.66414 0.5269 0.20511 0.0
H841 H 0.53588 0.54049 0.17502 0.0
H842 H 0.5605 0.51831 0.17117 0.0
H843 H 0.57209 0.54091 0.16069 0.0
C844 C 0.64189 0.4792 0.17208 0.0
C845 C 0.6483 0.48336 0.15493 0.0
C846 C 0.63283 0.49431 0.18336 0.0
C847 C 0.62979 0.51383 0.17769 0.0
C848 C 0.63703 0.51812 0.16072 0.0
H849 H 0.56796 0.62644 0.21856 0.0
H850 H 0.59024 0.59899 0.20158 0.0
C851 C 0.64614 0.50306 0.14946 0.0
C852 C 0.61864 0.52974 0.18941 0.0
H853 H 0.55472 0.56372 0.1957 0.0
C854 C 0.64013 0.5349 0.20315 0.0
C855 C 0.58725 0.54008 0.18682 0.0
C856 C 0.56238 0.5346 0.17272 0.0
C857 C 0.63157 0.55059 0.21408 0.0
C858 C 0.60043 0.56112 0.21131 0.0
C859 C 0.5787 0.55572 0.19773 0.0
C860 C 0.58989 0.57802 0.22213 0.0
C861 C 0.65637 0.55613 0.22818 0.0
C862 C 0.58264 0.5754 0.23938 0.0
C863 C 0.56996 0.5911 0.24911 0.0
C864 C 0.56397 0.60958 0.24169 0.0
C865 C 0.57214 0.6123 0.22456 0.0
C866 C 0.58485 0.59665 0.21486 0.0
H867 H 0.68269 0.54988 0.22611 0.0
H868 H 0.65879 0.57243 0.22945 0.0
H869 H 0.64622 0.55024 0.24028 0.0
H870 H 0.58571 0.56107 0.24518 0.0
H871 H 0.5636 0.58857 0.26227 0.0
H872 H 0.35209 0.49843 0.388 0.0
H873 H 0.37662 0.52752 0.37391 0.0
H874 H 0.38417 0.49444 0.32735 0.0
H875 H 0.36016 0.46529 0.34131 0.0
H876 H 0.44091 0.53226 0.35721 0.0
H877 H 0.32991 0.5439 0.31351 0.0
H878 H 0.32684 0.52822 0.33185 0.0
H879 H 0.34696 0.5193 0.31281 0.0
C880 C 0.3592 0.49729 0.37479 0.0
C881 C 0.35385 0.47954 0.36576 0.0
C882 C 0.37305 0.51396 0.36674 0.0
C883 C 0.38162 0.51324 0.34951 0.0
C884 C 0.37695 0.49547 0.34055 0.0
H885 H 0.51515 0.58844 0.28986 0.0
H886 H 0.48853 0.56208 0.30662 0.0
C887 C 0.36317 0.47882 0.34857 0.0
C888 C 0.39601 0.53092 0.34088 0.0
H889 H 0.382 0.56197 0.30768 0.0
C890 C 0.42793 0.53886 0.34646 0.0
C891 C 0.37879 0.53969 0.327 0.0
C892 C 0.34356 0.53249 0.32102 0.0
C893 C 0.44366 0.55492 0.33817 0.0
C894 C 0.4272 0.56306 0.32381 0.0
C895 C 0.39474 0.55556 0.31858 0.0
C896 C 0.44351 0.57916 0.31386 0.0
C897 C 0.4777 0.56306 0.3449 0.0
C898 C 0.42671 0.59737 0.31208 0.0
C899 C 0.44197 0.61247 0.30256 0.0
C900 C 0.474 0.6095 0.29445 0.0
C901 C 0.49061 0.5912 0.29613 0.0
C902 C 0.47546 0.57616 0.30571 0.0
H903 H 0.4818 0.55906 0.35835 0.0
H904 H 0.49944 0.55679 0.33744 0.0
H905 H 0.47887 0.5794 0.34376 0.0
H906 H 0.40196 0.59997 0.31821 0.0
H907 H 0.42891 0.62653 0.3017 0.0
H908 H 0.14805 0.02046 0.90232 0.0
H909 H 0.13142 0.99412 0.88257 0.0
H910 H 0.12363 0.0366 0.84236 0.0
H911 H 0.13981 0.06314 0.86209 0.0
H912 H 0.0689 0.99163 0.86367 0.0
H913 H 0.18508 0.99286 0.82191 0.0
H914 H 0.18494 1.00429 0.8426 0.0
H915 H 0.16431 0.01628 0.82508 0.0
C916 C 0.14269 0.02425 0.8893 0.0
C917 C 0.14522 0.04395 0.88382 0.0
C918 C 0.13339 1.00914 0.878 0.0
C919 C 0.12668 1.01336 0.86096 0.0
C920 C 0.12937 0.03296 0.85538 0.0
H921 H 0.05768 0.9395 0.77639 0.0
H922 H 0.07763 0.9669 0.79438 0.0
C923 C 0.13864 0.04811 0.86669 0.0
C924 C 0.11536 0.99732 0.84928 0.0
H925 H 0.13838 0.97187 0.81364 0.0
C926 C 0.08412 0.98727 0.85275 0.0
C927 C 0.13516 0.99177 0.83498 0.0
C928 C 0.16939 1.00172 0.83093 0.0
C929 C 0.07199 0.97188 0.84227 0.0
C930 C 0.09206 0.96609 0.82813 0.0
C931 C 0.12311 0.9763 0.82452 0.0
C932 C 0.08136 0.94932 0.81706 0.0
C933 C 0.03747 0.96219 0.84627 0.0
C934 C 0.07755 0.93026 0.82375 0.0
C935 C 0.06635 0.91458 0.81348 0.0
C936 C 0.05913 0.91761 0.79626 0.0
C937 C 0.06361 0.93662 0.78952 0.0
C938 C 0.0748 0.95232 0.79981 0.0
H939 H 0.02113 0.97177 0.85443 0.0
H940 H 0.02274 0.95862 0.83454 0.0
H941 H 0.04214 0.94822 0.85316 0.0
H942 H 0.08319 0.92751 0.83695 0.0
H943 H 0.06344 0.90007 0.81903 0.0
H944 H 0.11835 0.14246 0.021 0.0
H945 H 0.09863 0.13896 0.05024 0.0
H946 H 0.19831 0.1601 0.06819 0.0
H947 H 0.21834 0.16354 0.03901 0.0
H948 H 0.12677 0.11586 0.07585 0.0
H949 H 0.13004 0.19523 0.09389 0.0
H950 H 0.13194 0.18697 0.07216 0.0
H951 H 0.17012 0.18613 0.08532 0.0
C952 C 0.13616 0.14629 0.03116 0.0
C953 C 0.16991 0.15336 0.02763 0.0
C954 C 0.12477 0.14437 0.04787 0.0
C955 C 0.14678 0.14957 0.0614 0.0
C956 C 0.18057 0.15646 0.05795 0.0
H957 H 0.12733 0.14277 0.17096 0.0
H958 H 0.1469 0.14872 0.14194 0.0
C959 C 0.19199 0.1584 0.04125 0.0
C960 C 0.13471 0.14716 0.07911 0.0
H961 H 0.11971 0.1723 0.11595 0.0
C962 C 0.12506 0.12821 0.08459 0.0
C963 C 0.13266 0.16328 0.09053 0.0
C964 C 0.14143 0.18409 0.08518 0.0
C965 C 0.11388 0.12488 0.10124 0.0
C966 C 0.11163 0.14102 0.11264 0.0
C967 C 0.12143 0.15996 0.10719 0.0
C968 C 0.09902 0.13847 0.13025 0.0
C969 C 0.10528 0.10404 0.10657 0.0
C970 C 0.06528 0.13129 0.13333 0.0
C971 C 0.05401 0.12792 0.14987 0.0
C972 C 0.07619 0.13181 0.16371 0.0
C973 C 0.10954 0.13973 0.16061 0.0
C974 C 0.12082 0.14305 0.14403 0.0
H975 H 0.11705 0.09295 0.09795 0.0
H976 H 0.11451 0.1012 0.11964 0.0
H977 H 0.07663 0.10185 0.10627 0.0
H978 H 0.04769 0.12813 0.12292 0.0
H979 H 0.02793 0.1222 0.15183 0.0
H980 H 0.30903 0.38437 0.53076 0.0
H981 H 0.32375 0.38302 0.56097 0.0
H982 H 0.41409 0.41968 0.55214 0.0
H983 H 0.39984 0.42099 0.52208 0.0
H984 H 0.38562 0.37047 0.57814 0.0
H985 H 0.35992 0.45006 0.5887 0.0
H986 H 0.34521 0.43697 0.57002 0.0
H987 H 0.38966 0.44532 0.5717 0.0
C988 C 0.33222 0.39198 0.53523 0.0
C989 C 0.35296 0.40303 0.52402 0.0
C990 C 0.34052 0.39124 0.5525 0.0
C991 C 0.36962 0.40159 0.55885 0.0
C992 C 0.39104 0.41199 0.54759 0.0
H993 H 0.47159 0.42541 0.65385 0.0
H994 H 0.45364 0.42185 0.62432 0.0
C995 C 0.38279 0.41275 0.5304 0.0
C996 C 0.37758 0.40187 0.57725 0.0
H997 H 0.38921 0.43323 0.61081 0.0
C998 C 0.3861 0.38414 0.58535 0.0
C999 C 0.37806 0.41972 0.58665 0.0
C1000 C 0.3674 0.43908 0.57889 0.0
C1001 C 0.39641 0.38392 0.60245 0.0
C1002 C 0.39773 0.40187 0.6117 0.0
C1003 C 0.38844 0.41951 0.60367 0.0
C1004 C 0.40941 0.40291 0.62962 0.0
C1005 C 0.4069 0.36461 0.61032 0.0
C1006 C 0.39053 0.39343 0.64246 0.0
C1007 C 0.40063 0.39554 0.65942 0.0
C1008 C 0.4297 0.40728 0.66388 0.0
C1009 C 0.44879 0.4165 0.65092 0.0
C1010 C 0.43868 0.4144 0.63401 0.0
H1011 H 0.41188 0.35305 0.60062 0.0
H1012 H 0.43064 0.36657 0.61821 0.0
H1013 H 0.3856 0.35927 0.61862 0.0
H1014 H 0.36746 0.38481 0.63941 0.0
H1015 H 0.38503 0.38846 0.66906 0.0
H1016 H 0.65676 0.33977 1.00906 0.0
H1017 H 0.64136 0.34078 0.9791 0.0
H1018 H 0.67139 0.40223 0.97723 0.0
H1019 H 0.688 0.40119 1.00715 0.0
H1020 H 0.59342 0.3642 0.96185 0.0
H1021 H 0.72826 0.37774 0.93886 0.0
H1022 H 0.71917 0.36999 0.96021 0.0
H1023 H 0.7123 0.39518 0.95414 0.0
C1024 C 0.66043 0.35348 1.00227 0.0
C1025 C 0.67403 0.37034 1.01051 0.0
C1026 C 0.65133 0.35406 0.98515 0.0
C1027 C 0.65569 0.37149 0.97584 0.0
C1028 C 0.66836 0.38852 0.98408 0.0
H1029 H 0.63051 0.38331 0.86536 0.0
H1030 H 0.63622 0.39222 0.89545 0.0
C1031 C 0.6775 0.38795 1.00124 0.0
C1032 C 0.64728 0.37154 0.95746 0.0
H1033 H 0.68412 0.37516 0.91828 0.0
C1034 C 0.6132 0.36675 0.95233 0.0
C1035 C 0.67305 0.37499 0.94502 0.0
C1036 C 0.71033 0.37962 0.94975 0.0
C1037 C 0.60438 0.36489 0.93513 0.0
C1038 C 0.63043 0.36758 0.92273 0.0
C1039 C 0.66417 0.37313 0.92781 0.0
C1040 C 0.6241 0.36289 0.90459 0.0
C1041 C 0.56727 0.35988 0.9304 0.0
C1042 C 0.61532 0.34351 0.89975 0.0
C1043 C 0.61217 0.33841 0.88268 0.0
C1044 C 0.61783 0.35257 0.87001 0.0
C1045 C 0.62574 0.37213 0.87484 0.0
C1046 C 0.62916 0.3772 0.892 0.0
H1047 H 0.54885 0.36434 0.94051 0.0
H1048 H 0.55962 0.36719 0.91843 0.0
H1049 H 0.56472 0.34367 0.92858 0.0
H1050 H 0.61187 0.33213 0.90919 0.0
H1051 H 0.60577 0.32326 0.87937 0.0
H1052 H 0.90213 0.15565 0.52162 0.0
H1053 H 0.91716 0.16091 0.4919 0.0
H1054 H 0.82556 0.12825 0.47647 0.0
H1055 H 0.81007 0.12311 0.50619 0.0
H1056 H 0.92779 0.12994 0.46657 0.0
H1057 H 0.82098 0.18132 0.44975 0.0
H1058 H 0.83406 0.17701 0.47137 0.0
H1059 H 0.80841 0.15886 0.46023 0.0
C1060 C 0.88492 0.14981 0.51191 0.0
C1061 C 0.85482 0.13903 0.51628 0.0
C1062 C 0.89367 0.15272 0.49494 0.0
C1063 C 0.87233 0.14512 0.48199 0.0
C1064 C 0.84218 0.13443 0.48627 0.0
H1065 H 0.8865 0.15529 0.372 0.0
H1066 H 0.86862 0.14663 0.40074 0.0
C1067 C 0.83352 0.13138 0.50325 0.0
C1068 C 0.88221 0.14796 0.46403 0.0
H1069 H 0.85831 0.17136 0.42771 0.0
C1070 C 0.91263 0.13899 0.45805 0.0
C1071 C 0.8622 0.15962 0.45293 0.0
C1072 C 0.82969 0.16991 0.45884 0.0
C1073 C 0.92358 0.14135 0.44123 0.0
C1074 C 0.90405 0.15342 0.43021 0.0
C1075 C 0.8733 0.16214 0.43615 0.0
C1076 C 0.91565 0.15775 0.41268 0.0
C1077 C 0.9557 0.13063 0.43538 0.0
C1078 C 0.948 0.16691 0.4098 0.0
C1079 C 0.95843 0.17169 0.39339 0.0
C1080 C 0.93658 0.16763 0.37946 0.0
C1081 C 0.90421 0.15837 0.38238 0.0
C1082 C 0.89382 0.15355 0.39882 0.0
H1083 H 0.96109 0.11755 0.44337 0.0
H1084 H 0.95307 0.12568 0.42203 0.0
H1085 H 0.9785 0.14075 0.43633 0.0
H1086 H 0.96501 0.17067 0.42029 0.0
H1087 H 0.98365 0.17864 0.39163 0.0
H1088 H 0.86379 0.85323 1.00617 0.0
H1089 H 0.87721 0.85646 0.97607 0.0
H1090 H 0.81563 0.90934 0.9738 0.0
H1091 H 0.80216 0.90625 1.00388 0.0
H1092 H 0.83223 0.85615 0.94922 0.0
H1093 H 0.90493 0.92718 0.95108 0.0
H1094 H 0.89543 0.91319 0.9699 0.0
H1095 H 0.86267 0.92859 0.96061 0.0
C1096 C 0.85312 0.86557 0.99927 0.0
C1097 C 0.83196 0.87951 1.00747 0.0
C1098 C 0.86094 0.86743 0.98207 0.0
C1099 C 0.84789 0.88331 0.9727 0.0
C1100 C 0.82676 0.89725 0.98084 0.0
H1101 H 0.84433 0.91762 0.86755 0.0
H1102 H 0.83731 0.91442 0.89814 0.0
C1103 C 0.81903 0.89544 0.99805 0.0
C1104 C 0.85502 0.88475 0.95426 0.0
H1105 H 0.88786 0.91531 0.92383 0.0
C1106 C 0.84468 0.86901 0.94369 0.0
C1107 C 0.87125 0.90154 0.94702 0.0
C1108 C 0.88453 0.91851 0.95775 0.0
C1109 C 0.8492 0.86983 0.92607 0.0
C1110 C 0.865 0.88673 0.91882 0.0
C1111 C 0.87568 0.90238 0.9294 0.0
C1112 C 0.86989 0.88864 0.90026 0.0
C1113 C 0.83607 0.85284 0.91532 0.0
C1114 C 0.89094 0.87537 0.89128 0.0
C1115 C 0.89482 0.87707 0.87374 0.0
C1116 C 0.87783 0.89215 0.86482 0.0
C1117 C 0.85729 0.90563 0.87394 0.0
C1118 C 0.85345 0.90391 0.89146 0.0
H1119 H 0.81735 0.84332 0.9223 0.0
H1120 H 0.82318 0.85829 0.90368 0.0
H1121 H 0.8584 0.84356 0.91147 0.0
H1122 H 0.90437 0.86367 0.89785 0.0
H1123 H 0.91069 0.86638 0.86714 0.0
H1124 H 0.61711 0.64632 0.51766 0.0
H1125 H 0.60121 0.64667 0.48765 0.0
H1126 H 0.69764 0.61796 0.47518 0.0
H1127 H 0.71375 0.61757 0.50512 0.0
H1128 H 0.63351 0.66245 0.45888 0.0
H1129 H 0.62397 0.5807 0.45494 0.0
H1130 H 0.62673 0.59381 0.47483 0.0
H1131 H 0.66528 0.58976 0.46248 0.0
C1132 C 0.63517 0.64033 0.50851 0.0
C1133 C 0.66657 0.63174 0.51383 0.0
C1134 C 0.62597 0.64047 0.49136 0.0
C1135 C 0.64792 0.632 0.4792 0.0
C1136 C 0.67991 0.62416 0.48438 0.0
H1137 H 0.63308 0.64075 0.36929 0.0
H1138 H 0.6492 0.64497 0.39907 0.0
C1139 C 0.68908 0.62395 0.50151 0.0
C1140 C 0.63692 0.63085 0.46117 0.0
H1141 H 0.61915 0.59815 0.42918 0.0
C1142 C 0.63032 0.6484 0.45237 0.0
C1143 C 0.63225 0.6125 0.45276 0.0
C1144 C 0.63709 0.5931 0.46175 0.0
C1145 C 0.61971 0.64809 0.43532 0.0
C1146 C 0.61605 0.62975 0.42679 0.0
C1147 C 0.62221 0.61222 0.43567 0.0
C1148 C 0.60535 0.62826 0.40872 0.0
C1149 C 0.61186 0.66738 0.42671 0.0
C1150 C 0.57557 0.61728 0.40418 0.0
C1151 C 0.56637 0.61478 0.38717 0.0
C1152 C 0.58686 0.62314 0.37429 0.0
C1153 C 0.61644 0.63436 0.37888 0.0
C1154 C 0.62568 0.63681 0.39592 0.0
H1155 H 0.60692 0.67939 0.43601 0.0
H1156 H 0.63454 0.67184 0.41891 0.0
H1157 H 0.58885 0.66588 0.41826 0.0
H1158 H 0.55948 0.61053 0.41382 0.0
H1159 H 0.54319 0.60627 0.38412 0.0
H1160 H 0.38469 0.63707 0.02435 0.0
H1161 H 0.40059 0.63544 0.05433 0.0
H1162 H 0.31101 0.67041 0.0671 0.0
H1163 H 0.29423 0.67146 0.03736 0.0
H1164 H 0.41752 0.66541 0.07569 0.0
H1165 H 0.30241 0.62586 0.10063 0.0
H1166 H 0.31196 0.62697 0.07831 0.0
H1167 H 0.29011 0.64712 0.08866 0.0
C1168 C 0.36801 0.6441 0.03357 0.0
C1169 C 0.33814 0.65439 0.02839 0.0
C1170 C 0.37726 0.64326 0.0507 0.0
C1171 C 0.35671 0.65253 0.06303 0.0
C1172 C 0.32688 0.66275 0.0579 0.0
H1173 H 0.40441 0.70366 0.15846 0.0
H1174 H 0.39794 0.69432 0.12881 0.0
C1175 C 0.31759 0.66359 0.04082 0.0
C1176 C 0.36731 0.65258 0.08115 0.0
H1177 H 0.33637 0.64444 0.12099 0.0
C1178 C 0.39997 0.66054 0.08558 0.0
C1179 C 0.34482 0.64585 0.09409 0.0
C1180 C 0.31054 0.63577 0.09018 0.0
C1181 C 0.40984 0.66303 0.10259 0.0
C1182 C 0.38615 0.65778 0.11554 0.0
C1183 C 0.35438 0.64873 0.1111 0.0
C1184 C 0.39256 0.66299 0.13359 0.0
C1185 C 0.44545 0.67146 0.10651 0.0
C1186 C 0.39122 0.64854 0.14628 0.0
C1187 C 0.39451 0.6539 0.16337 0.0
C1188 C 0.39875 0.67385 0.16809 0.0
C1189 C 0.40078 0.68819 0.1553 0.0
C1190 C 0.39753 0.68283 0.13829 0.0
H1191 H 0.46412 0.66822 0.09618 0.0
H1192 H 0.44364 0.68775 0.10776 0.0
H1193 H 0.45595 0.66548 0.11852 0.0
H1194 H 0.38713 0.63315 0.14296 0.0
H1195 H 0.39255 0.64253 0.17291 0.0
H1196 H 0.20349 0.89309 0.53065 0.0
H1197 H 0.19021 0.88624 0.56038 0.0
H1198 H 0.0904 0.86202 0.54575 0.0
H1199 H 0.10363 0.86853 0.51604 0.0
H1200 H 0.13154 0.90077 0.57938 0.0
H1201 H 0.13375 0.81884 0.57608 0.0
H1202 H 0.15341 0.83427 0.56011 0.0
H1203 H 0.10708 0.83045 0.56036 0.0
C1204 C 0.1789 0.88607 0.53375 0.0
C1205 C 0.15464 0.88131 0.52096 0.0
C1206 C 0.17128 0.88228 0.55074 0.0
C1207 C 0.13948 0.87344 0.55525 0.0
C1208 C 0.11528 0.86861 0.54253 0.0
H1209 H 0.0368 0.83833 0.64773 0.0
H1210 H 0.05399 0.84511 0.61856 0.0
C1211 C 0.12277 0.8725 0.52557 0.0
C1212 C 0.13108 0.86976 0.57328 0.0
H1213 H 0.11201 0.8331 0.60136 0.0
C1214 C 0.1275 0.88599 0.58425 0.0
C1215 C 0.12573 0.85045 0.57956 0.0
C1216 C 0.13045 0.83246 0.56849 0.0
C1217 C 0.11776 0.88346 0.60123 0.0
C1218 C 0.11221 0.86413 0.6075 0.0
C1219 C 0.11617 0.8479 0.59655 0.0
C1220 C 0.10178 0.86039 0.62531 0.0
C1221 C 0.11243 0.90154 0.61214 0.0
C1222 C 0.12305 0.86656 0.63885 0.0
C1223 C 0.11326 0.86271 0.65556 0.0
C1224 C 0.08217 0.8524 0.65908 0.0
C1225 C 0.06106 0.84613 0.64547 0.0
C1226 C 0.0708 0.85006 0.62879 0.0
H1227 H 0.10851 0.91499 0.6044 0.0
H1228 H 0.08964 0.8996 0.62059 0.0
H1229 H 0.13586 0.904 0.62013 0.0
H1230 H 0.14749 0.87412 0.63649 0.0
H1231 H 0.1304 0.86745 0.66571 0.0
H1232 H 0.23127 0.28841 0.37921 0.0
H1233 H 0.20031 0.26507 0.3606 0.0
H1234 H 0.10458 0.29631 0.36911 0.0
H1235 H 0.13534 0.31977 0.38773 0.0
H1236 H 0.13403 0.24191 0.37135 0.0
H1237 H 0.11993 0.29055 0.3152 0.0
H1238 H 0.15424 0.2942 0.33061 0.0
H1239 H 0.11039 0.3007 0.33577 0.0
C1240 C 0.20369 0.29042 0.377 0.0
C1241 C 0.18576 0.30596 0.38493 0.0
C1242 C 0.18604 0.27703 0.36644 0.0
C1243 C 0.15026 0.27907 0.36342 0.0
C1244 C 0.13227 0.29458 0.37121 0.0
H1245 H 0.00534 0.21374 0.29846 0.0
H1246 H 0.03375 0.23834 0.31683 0.0
C1247 C 0.14982 0.30788 0.38192 0.0
C1248 C 0.13162 0.26461 0.35247 0.0
H1249 H 0.09479 0.25873 0.3134 0.0
C1250 C 0.12544 0.24554 0.35867 0.0
C1251 C 0.12019 0.26951 0.33604 0.0
C1252 C 0.12654 0.28981 0.32886 0.0
C1253 C 0.1079 0.23121 0.34887 0.0
C1254 C 0.09721 0.23591 0.33223 0.0
C1255 C 0.10311 0.2551 0.32611 0.0
C1256 C 0.08014 0.22107 0.32095 0.0
C1257 C 0.10029 0.21131 0.35661 0.0
C1258 C 0.09697 0.20333 0.31692 0.0
C1259 C 0.08051 0.18912 0.30673 0.0
C1260 C 0.0471 0.19249 0.30011 0.0
C1261 C 0.03075 0.21053 0.30369 0.0
C1262 C 0.04708 0.22466 0.31405 0.0
H1263 H 0.10068 0.21204 0.37065 0.0
H1264 H 0.07451 0.20549 0.35246 0.0
H1265 H 0.12053 0.20069 0.35257 0.0
H1266 H 0.12287 0.20043 0.32168 0.0
H1267 H 0.09386 0.17541 0.30416 0.0
H1268 H 0.32144 0.20114 0.84823 0.0
H1269 H 0.35176 0.22789 0.83369 0.0
H1270 H 0.34566 0.2641 0.87859 0.0
H1271 H 0.31649 0.23706 0.89351 0.0
H1272 H 0.32877 0.26544 0.82709 0.0
H1273 H 0.4485 0.26835 0.86661 0.0
H1274 H 0.41794 0.24798 0.86744 0.0
H1275 H 0.40858 0.2708 0.87817 0.0
C1276 C 0.32705 0.21465 0.85515 0.0
C1277 C 0.31679 0.21683 0.87213 0.0
C1278 C 0.34414 0.23 0.84675 0.0
C1279 C 0.35145 0.2479 0.8551 0.0
C1280 C 0.34092 0.25028 0.87198 0.0
H1281 H 0.45144 0.35637 0.81931 0.0
H1282 H 0.42002 0.33162 0.83606 0.0
C1283 C 0.32386 0.23488 0.88044 0.0
C1284 C 0.36929 0.26415 0.84591 0.0
H1285 H 0.44281 0.29294 0.84564 0.0
C1286 C 0.35372 0.27143 0.83114 0.0
C1287 C 0.40179 0.27202 0.85125 0.0
C1288 C 0.42041 0.26431 0.86664 0.0
C1289 C 0.36973 0.28636 0.82158 0.0
C1290 C 0.40241 0.29402 0.82678 0.0
C1291 C 0.41775 0.28701 0.84169 0.0
C1292 C 0.42145 0.30898 0.81667 0.0
C1293 C 0.35139 0.294 0.80609 0.0
C1294 C 0.43319 0.30433 0.80034 0.0
C1295 C 0.45134 0.31836 0.79083 0.0
C1296 C 0.45789 0.33734 0.79742 0.0
C1297 C 0.44666 0.34187 0.81388 0.0
C1298 C 0.42865 0.32778 0.82344 0.0
H1299 H 0.32329 0.28997 0.806 0.0
H1300 H 0.35394 0.31032 0.80534 0.0
H1301 H 0.36349 0.28752 0.79463 0.0
H1302 H 0.42861 0.28976 0.79501 0.0
H1303 H 0.4606 0.31427 0.7784 0.0
H1304 H 0.70999 0.20974 0.68058 0.0
H1305 H 0.68009 0.23228 0.69991 0.0
H1306 H 0.65457 0.27016 0.65816 0.0
H1307 H 0.68533 0.24818 0.6388 0.0
H1308 H 0.69364 0.27624 0.70391 0.0
H1309 H 0.55963 0.25603 0.68301 0.0
H1310 H 0.59643 0.24001 0.67976 0.0
H1311 H 0.59059 0.26119 0.66654 0.0
C1312 C 0.69841 0.22298 0.6755 0.0
C1313 C 0.70005 0.22705 0.65806 0.0
C1314 C 0.68115 0.23576 0.68657 0.0
C1315 C 0.66487 0.25274 0.68042 0.0
C1316 C 0.66659 0.25697 0.6631 0.0
H1317 H 0.53944 0.34746 0.71881 0.0
H1318 H 0.57133 0.32322 0.70217 0.0
C1319 C 0.68404 0.2443 0.65204 0.0
C1320 C 0.64622 0.26619 0.69205 0.0
H1321 H 0.56529 0.2834 0.70155 0.0
C1322 C 0.66556 0.27775 0.70353 0.0
C1323 C 0.60964 0.26809 0.69144 0.0
C1324 C 0.58767 0.2556 0.67963 0.0
C1325 C 0.64934 0.29169 0.71407 0.0
C1326 C 0.61268 0.29373 0.71337 0.0
C1327 C 0.59336 0.28186 0.70207 0.0
C1328 C 0.59387 0.30855 0.72377 0.0
C1329 C 0.67173 0.3046 0.72538 0.0
C1330 C 0.59566 0.30831 0.74151 0.0
C1331 C 0.57758 0.32229 0.75112 0.0
C1332 C 0.55698 0.33663 0.74316 0.0
C1333 C 0.55498 0.33665 0.7254 0.0
C1334 C 0.57321 0.32278 0.71583 0.0
H1335 H 0.69931 0.30484 0.72119 0.0
H1336 H 0.66202 0.32 0.72569 0.0
H1337 H 0.67101 0.29872 0.73844 0.0
H1338 H 0.61075 0.29719 0.74795 0.0
H1339 H 0.57951 0.32173 0.76477 0.0
H1340 H 0.80746 0.32499 0.19392 0.0
H1341 H 0.83711 0.29858 0.20897 0.0
H1342 H 0.84821 0.26615 0.16225 0.0
H1343 H 0.81964 0.29289 0.14694 0.0
H1344 H 0.81909 0.25908 0.212 0.0
H1345 H 0.94758 0.26734 0.18061 0.0
H1346 H 0.91407 0.28577 0.17904 0.0
H1347 H 0.91152 0.26364 0.16642 0.0
C1348 C 0.81662 0.31239 0.18677 0.0
C1349 C 0.81148 0.31121 0.16915 0.0
C1350 C 0.83332 0.29721 0.19543 0.0
C1351 C 0.84537 0.28052 0.18672 0.0
C1352 C 0.83973 0.27906 0.1692 0.0
H1353 H 0.95653 0.17621 0.22145 0.0
H1354 H 0.92457 0.20043 0.20469 0.0
C1355 C 0.82304 0.29428 0.16049 0.0
C1356 C 0.86349 0.26463 0.1961 0.0
H1357 H 0.94107 0.2406 0.19949 0.0
C1358 C 0.84576 0.25504 0.20927 0.0
C1359 C 0.89829 0.25935 0.19251 0.0
C1360 C 0.91917 0.26965 0.17898 0.0
C1361 C 0.86181 0.24027 0.21888 0.0
C1362 C 0.89672 0.23516 0.21541 0.0
C1363 C 0.91431 0.24454 0.20211 0.0
C1364 C 0.91568 0.22039 0.22566 0.0
C1365 C 0.84115 0.23008 0.23255 0.0
C1366 C 0.92173 0.22372 0.24296 0.0
C1367 C 0.94006 0.20995 0.25255 0.0
C1368 C 0.95264 0.19256 0.24502 0.0
C1369 C 0.94699 0.18941 0.22764 0.0
C1370 C 0.92871 0.20321 0.21805 0.0
H1371 H 0.81268 0.23188 0.23069 0.0
H1372 H 0.84707 0.21406 0.23295 0.0
H1373 H 0.84818 0.23664 0.245 0.0
H1374 H 0.91266 0.23711 0.24901 0.0
H1375 H 0.94479 0.21306 0.26581 0.0
H1376 H 0.78642 0.75015 0.65449 0.0
H1377 H 0.81834 0.77266 0.67342 0.0
H1378 H 0.89649 0.72828 0.68118 0.0
H1379 H 0.86506 0.70577 0.66206 0.0
H1380 H 0.83862 0.76625 0.70839 0.0
H1381 H 0.95193 0.77815 0.66589 0.0
H1382 H 0.91089 0.76821 0.6584 0.0
H1383 H 0.94035 0.75282 0.66994 0.0
C1384 C 0.81054 0.74522 0.66012 0.0
C1385 C 0.82328 0.72619 0.65668 0.0
C1386 C 0.82862 0.75806 0.67102 0.0
C1387 C 0.85997 0.75222 0.67855 0.0
C1388 C 0.87257 0.73317 0.67533 0.0
H1389 H 0.00974 0.81408 0.74347 0.0
H1390 H 0.97839 0.7895 0.72621 0.0
C1391 C 0.8544 0.72027 0.66452 0.0
C1392 C 0.87942 0.76608 0.68979 0.0
H1393 H 0.95514 0.79269 0.69307 0.0
C1394 C 0.86407 0.77207 0.70505 0.0
C1395 C 0.9127 0.77354 0.68543 0.0
C1396 C 0.92996 0.76802 0.66897 0.0
C1397 C 0.88125 0.78522 0.71615 0.0
C1398 C 0.91431 0.79292 0.71167 0.0
C1399 C 0.92979 0.78678 0.69647 0.0
C1400 C 0.93299 0.80767 0.72239 0.0
C1401 C 0.86425 0.79041 0.73275 0.0
C1402 C 0.91812 0.82615 0.72577 0.0
C1403 C 0.93607 0.84022 0.7355 0.0
C1404 C 0.96924 0.83611 0.74204 0.0
C1405 C 0.98424 0.81767 0.73854 0.0
C1406 C 0.96632 0.80361 0.72875 0.0
H1407 H 0.84376 0.7795 0.73623 0.0
H1408 H 0.88382 0.79119 0.74309 0.0
H1409 H 0.85182 0.8051 0.73171 0.0
H1410 H 0.89285 0.82983 0.72064 0.0
H1411 H 0.92423 0.85446 0.73765 0.0
H1412 H 0.74258 0.79096 0.16082 0.0
H1413 H 0.71365 0.76341 0.17519 0.0
H1414 H 0.62145 0.7986 0.18133 0.0
H1415 H 0.64976 0.82596 0.16657 0.0
H1416 H 0.68856 0.76298 0.20785 0.0
H1417 H 0.582 0.74694 0.16232 0.0
H1418 H 0.61947 0.76189 0.15694 0.0
H1419 H 0.58411 0.77241 0.16873 0.0
C1420 C 0.71591 0.79271 0.16493 0.0
C1421 C 0.69849 0.81068 0.16251 0.0
C1422 C 0.69949 0.77699 0.17325 0.0
C1423 C 0.66524 0.77884 0.17917 0.0
C1424 C 0.64766 0.79668 0.17662 0.0
H1425 H 0.55961 0.71391 0.25801 0.0
H1426 H 0.59094 0.7381 0.24078 0.0
C1427 C 0.66405 0.8124 0.16834 0.0
C1428 C 0.64846 0.76254 0.18876 0.0
H1429 H 0.57664 0.73243 0.18967 0.0
C1430 C 0.6642 0.75621 0.20382 0.0
C1431 C 0.61693 0.75351 0.18339 0.0
C1432 C 0.59978 0.75887 0.16688 0.0
C1433 C 0.64876 0.74152 0.21387 0.0
C1434 C 0.61644 0.73315 0.20888 0.0
C1435 C 0.60121 0.73904 0.19358 0.0
C1436 C 0.59792 0.71837 0.21945 0.0
C1437 C 0.66736 0.73486 0.22963 0.0
C1438 C 0.59073 0.69937 0.21307 0.0
C1439 C 0.57297 0.68549 0.22295 0.0
C1440 C 0.56202 0.6904 0.23938 0.0
C1441 C 0.56865 0.70953 0.24561 0.0
C1442 C 0.58648 0.72338 0.23575 0.0
H1443 H 0.6953 0.73924 0.22957 0.0
H1444 H 0.65503 0.74172 0.24087 0.0
H1445 H 0.66545 0.71857 0.23095 0.0
H1446 H 0.59911 0.69523 0.20048 0.0
H1447 H 0.56815 0.67086 0.2178 0.0
H1448 H 0.29962 0.77364 0.39044 0.0
H1449 H 0.33098 0.75201 0.371 0.0
H1450 H 0.36927 0.80284 0.34397 0.0
H1451 H 0.33903 0.82466 0.36375 0.0
H1452 H 0.3254 0.74772 0.33625 0.0
H1453 H 0.45834 0.77281 0.35459 0.0
H1454 H 0.4203 0.77875 0.3669 0.0
H1455 H 0.42985 0.79217 0.3479 0.0
C1456 C 0.31505 0.78027 0.3805 0.0
C1457 C 0.31704 0.80093 0.37879 0.0
C1458 C 0.33272 0.76786 0.3693 0.0
C1459 C 0.35287 0.77581 0.35618 0.0
C1460 C 0.35438 0.79639 0.35418 0.0
H1461 H 0.43613 0.70475 0.27254 0.0
H1462 H 0.40418 0.72917 0.28918 0.0
C1463 C 0.33674 0.80884 0.3654 0.0
C1464 C 0.37226 0.76245 0.34465 0.0
H1465 H 0.45416 0.75007 0.33187 0.0
C1466 C 0.35355 0.74826 0.33524 0.0
C1467 C 0.40901 0.76306 0.34349 0.0
C1468 C 0.43067 0.77738 0.35385 0.0
C1469 C 0.37058 0.73461 0.32474 0.0
C1470 C 0.4073 0.73537 0.32343 0.0
C1471 C 0.42599 0.74962 0.33279 0.0
C1472 C 0.427 0.72088 0.31313 0.0
C1473 C 0.34921 0.7191 0.31556 0.0
C1474 C 0.45109 0.70844 0.32098 0.0
C1475 C 0.46954 0.69455 0.31152 0.0
C1476 C 0.46441 0.69283 0.29394 0.0
C1477 C 0.44059 0.70554 0.28606 0.0
C1478 C 0.42214 0.71946 0.29556 0.0
H1479 H 0.32262 0.71765 0.32093 0.0
H1480 H 0.34662 0.7233 0.30208 0.0
H1481 H 0.36206 0.70448 0.31609 0.0
H1482 H 0.45534 0.70932 0.33451 0.0
H1483 H 0.48766 0.68508 0.31807 0.0
H1484 H 0.15985 0.69767 0.86349 0.0
H1485 H 0.13178 0.72348 0.84697 0.0
H1486 H 0.22116 0.76151 0.85445 0.0
H1487 H 0.24997 0.73549 0.87054 0.0
H1488 H 0.11369 0.76132 0.85582 0.0
H1489 H 0.20881 0.76212 0.80312 0.0
H1490 H 0.20733 0.74267 0.81863 0.0
H1491 H 0.22797 0.76591 0.82364 0.0
C1492 C 0.17371 0.71145 0.86151 0.0
C1493 C 0.20733 0.71442 0.86822 0.0
C1494 C 0.15752 0.72624 0.85214 0.0
C1495 C 0.17461 0.74429 0.8492 0.0
C1496 C 0.20777 0.74754 0.85626 0.0
H1497 H 0.07753 0.85215 0.81481 0.0
H1498 H 0.108 0.8265 0.83052 0.0
C1499 C 0.22402 0.73274 0.86564 0.0
C1500 C 0.15743 0.75973 0.83892 0.0
H1501 H 0.16618 0.78736 0.8031 0.0
C1502 C 0.12514 0.767 0.84428 0.0
C1503 C 0.17213 0.76689 0.82371 0.0
C1504 C 0.2058 0.75889 0.81681 0.0
C1505 C 0.10744 0.78145 0.83502 0.0
C1506 C 0.12272 0.7891 0.82014 0.0
C1507 C 0.15469 0.7816 0.8146 0.0
C1508 C 0.10584 0.80495 0.81023 0.0
C1509 C 0.07223 0.78815 0.84111 0.0
C1510 C 0.09564 0.80161 0.79338 0.0
C1511 C 0.07835 0.81632 0.78432 0.0
C1512 C 0.07111 0.83459 0.79198 0.0
C1513 C 0.08235 0.83809 0.80867 0.0
C1514 C 0.09965 0.82344 0.81767 0.0
H1515 H 0.06021 0.7773 0.84987 0.0
H1516 H 0.07526 0.80237 0.84803 0.0
H1517 H 0.0542 0.79049 0.83033 0.0
H1518 H 0.10037 0.78747 0.78736 0.0
H1519 H 0.06991 0.81324 0.77148 0.0
loop_
_geom_bond_atom_site_label_1
_geom_bond_atom_site_label_2
_geom_bond_distance
_geom_bond_site_symmetry_2
_ccdc_geom_bond_type
C0 C1 1.264 . S
C0 C5 1.479 . S
C0 C10 1.465 . S
C1 C0 1.264 . S
C1 C3 1.339 . S
C1 H28 0.931 . S
C2 C3 1.395 . S
C2 C4 1.320 . S
C3 C1 1.339 . S
C3 C2 1.395 . S
C3 H29 0.929 . S
C4 C2 1.320 . S
C4 C5 1.405 . S
C4 H30 0.930 . S
C5 C0 1.479 . S
C5 C4 1.405 . S
C5 H31 0.931 . S
U6 O7 2.454 . S
U6 O8 2.458 . S
U6 C9 2.984 . S
U6 C10 2.847 . S
U6 C23 2.882 . S
U6 O24 2.441 . S
U6 O25 2.420 . S
U6 O26 2.455 . S
U6 O27 2.449 . S
O7 U6 2.454 . S
O7 C9 1.353 . S
O8 U6 2.458 . S
O8 C9 1.286 . S
C9 U6 2.984 . S
C9 O7 1.353 . S
C9 O8 1.286 . S
C9 C11 1.363 . S
C10 C0 1.465 . S
C10 U6 2.847 . S
C10 O24 1.249 . S
C10 O25 1.202 . S
C11 C9 1.363 . S
C11 C13 1.408 . S
C11 C16 1.342 . S
C12 C13 1.310 . S
C12 C15 1.461 . S
C12 H32 0.932 . S
C13 C11 1.408 . S
C13 C12 1.310 . S
C13 H33 0.930 . S
C14 C15 1.474 . S
C14 C16 1.285 . S
C14 H34 0.929 . S
C15 C12 1.461 . S
C15 C14 1.474 . S
C16 C11 1.342 . S
C16 C14 1.285 . S
C16 H35 0.930 . S
C17 C20 1.424 . S
C17 C22 1.245 . S
C17 C23 1.428 . S
C18 C21 1.260 . S
C18 C22 1.477 . S
C18 H36 0.932 . S
C19 C20 1.384 . S
C19 C21 1.479 . S
C19 H37 0.929 . S
C20 C17 1.424 . S
C20 C19 1.384 . S
C20 H38 0.928 . S
C21 C18 1.260 . S
C21 C19 1.479 . S
C22 C17 1.245 . S
C22 C18 1.477 . S
C22 H39 0.932 . S
C23 U6 2.882 . S
C23 C17 1.428 . S
C23 O26 1.301 . S
C23 O27 1.282 . S
O24 U6 2.441 . S
O24 C10 1.249 . S
O25 U6 2.420 . S
O25 C10 1.202 . S
O26 U6 2.455 . S
O26 C23 1.301 . S
O27 U6 2.449 . S
O27 C23 1.282 . S
H28 C1 0.931 . S
H29 C3 0.929 . S
H30 C4 0.930 . S
H31 C5 0.931 . S
H32 C12 0.932 . S
H33 C13 0.930 . S
H34 C14 0.929 . S
H35 C16 0.930 . S
H36 C18 0.932 . S
H37 C19 0.929 . S
H38 C20 0.928 . S
H39 C22 0.932 . S
C40 C41 1.264 . S
C40 C45 1.479 . S
C40 C50 1.465 . S
C41 C40 1.264 . S
C41 C43 1.339 . S
C41 H68 0.931 . S
C42 C43 1.395 . S
C42 C44 1.320 . S
C43 C41 1.339 . S
C43 C42 1.395 . S
C43 H69 0.929 . S
C44 C42 1.320 . S
C44 C45 1.405 . S
C44 H70 0.930 . S
C45 C40 1.479 . S
C45 C44 1.405 . S
C45 H71 0.931 . S
U46 O47 2.454 . S
U46 O48 2.458 . S
U46 C49 2.984 . S
U46 C50 2.847 . S
U46 C63 2.882 . S
U46 O64 2.441 . S
U46 O65 2.420 . S
U46 O66 2.455 . S
U46 O67 2.449 . S
O47 U46 2.454 . S
O47 C49 1.353 . S
O48 U46 2.458 . S
O48 C49 1.286 . S
C49 U46 2.984 . S
C49 O47 1.353 . S
C49 O48 1.286 . S
C49 C51 1.363 . S
C50 C40 1.465 . S
C50 U46 2.847 . S
C50 O64 1.249 . S
C50 O65 1.202 . S
C51 C49 1.363 . S
C51 C53 1.408 . S
C51 C56 1.342 . S
C52 C53 1.310 . S
C52 C55 1.461 . S
C52 H72 0.932 . S
C53 C51 1.408 . S
C53 C52 1.310 . S
C53 H73 0.930 . S
C54 C55 1.474 . S
C54 C56 1.285 . S
C54 H74 0.929 . S
C55 C52 1.461 . S
C55 C54 1.474 . S
C56 C51 1.342 . S
C56 C54 1.285 . S
C56 H75 0.930 . S
C57 C60 1.424 . S
C57 C62 1.245 . S
C57 C63 1.428 . S
C58 C61 1.260 . S
C58 C62 1.477 . S
C58 H76 0.932 . S
C59 C60 1.384 . S
C59 C61 1.479 . S
C59 H77 0.929 . S
C60 C57 1.424 . S
C60 C59 1.384 . S
C60 H78 0.928 . S
C61 C58 1.260 . S
C61 C59 1.479 . S
C62 C57 1.245 . S
C62 C58 1.477 . S
C62 H79 0.932 . S
C63 U46 2.882 . S
C63 C57 1.428 . S
C63 O66 1.301 . S
C63 O67 1.282 . S
O64 U46 2.441 . S
O64 C50 1.249 . S
O65 U46 2.420 . S
O65 C50 1.202 . S
O66 U46 2.455 . S
O66 C63 1.301 . S
O67 U46 2.449 . S
O67 C63 1.282 . S
H68 C41 0.931 . S
H69 C43 0.929 . S
H70 C44 0.930 . S
H71 C45 0.931 . S
H72 C52 0.932 . S
H73 C53 0.930 . S
H74 C54 0.929 . S
H75 C56 0.930 . S
H76 C58 0.932 . S
H77 C59 0.929 . S
H78 C60 0.928 . S
H79 C62 0.932 . S
C80 C81 1.264 . S
C80 C85 1.479 . S
C80 C90 1.465 . S
C81 C80 1.264 . S
C81 C83 1.339 . S
C81 H108 0.931 . S
C82 C83 1.395 . S
C82 C84 1.320 . S
C83 C81 1.339 . S
C83 C82 1.395 . S
C83 H109 0.929 . S
C84 C82 1.320 . S
C84 C85 1.405 . S
C84 H110 0.930 . S
C85 C80 1.479 . S
C85 C84 1.405 . S
C85 H111 0.931 . S
U86 O87 2.454 . S
U86 O88 2.458 . S
U86 C89 2.984 . S
U86 C90 2.847 . S
U86 C103 2.882 . S
U86 O104 2.441 . S
U86 O105 2.420 . S
U86 O106 2.455 . S
U86 O107 2.449 . S
O87 U86 2.454 . S
O87 C89 1.353 . S
O88 U86 2.458 . S
O88 C89 1.286 . S
C89 U86 2.984 . S
C89 O87 1.353 . S
C89 O88 1.286 . S
C89 C91 1.363 . S
C90 C80 1.465 . S
C90 U86 2.847 . S
C90 O104 1.249 . S
C90 O105 1.202 . S
C91 C89 1.363 . S
C91 C93 1.408 . S
C91 C96 1.342 . S
C92 C93 1.310 . S
C92 C95 1.461 . S
C92 H112 0.932 . S
C93 C91 1.408 . S
C93 C92 1.310 . S
C93 H113 0.930 . S
C94 C95 1.474 . S
C94 C96 1.285 . S
C94 H114 0.929 . S
C95 C92 1.461 . S
C95 C94 1.474 . S
C96 C91 1.342 . S
C96 C94 1.285 . S
C96 H115 0.930 . S
C97 C100 1.424 . S
C97 C102 1.245 . S
C97 C103 1.428 . S
C98 C101 1.260 . S
C98 C102 1.477 . S
C98 H116 0.932 . S
C99 C100 1.384 . S
C99 C101 1.479 . S
C99 H117 0.929 . S
C100 C97 1.424 . S
C100 C99 1.384 . S
C100 H118 0.928 . S
C101 C98 1.260 . S
C101 C99 1.479 . S
C102 C97 1.245 . S
C102 C98 1.477 . S
C102 H119 0.932 . S
C103 U86 2.882 . S
C103 C97 1.428 . S
C103 O106 1.301 . S
C103 O107 1.282 . S
O104 U86 2.441 . S
O104 C90 1.249 . S
O105 U86 2.420 . S
O105 C90 1.202 . S
O106 U86 2.455 . S
O106 C103 1.301 . S
O107 U86 2.449 . S
O107 C103 1.282 . S
H108 C81 0.931 . S
H109 C83 0.929 . S
H110 C84 0.930 . S
H111 C85 0.931 . S
H112 C92 0.932 . S
H113 C93 0.930 . S
H114 C94 0.929 . S
H115 C96 0.930 . S
H116 C98 0.932 . S
H117 C99 0.929 . S
H118 C100 0.928 . S
H119 C102 0.932 . S
C120 C121 1.264 . S
C120 C125 1.479 . S
C120 C130 1.465 . S
C121 C120 1.264 . S
C121 C123 1.339 . S
C121 H148 0.931 . S
C122 C123 1.395 . S
C122 C124 1.320 . S
C123 C121 1.339 . S
C123 C122 1.395 . S
C123 H149 0.929 . S
C124 C122 1.320 . S
C124 C125 1.405 . S
C124 H150 0.930 . S
C125 C120 1.479 . S
C125 C124 1.405 . S
C125 H151 0.931 . S
U126 O127 2.454 . S
U126 O128 2.458 . S
U126 C129 2.984 . S
U126 C130 2.847 . S
U126 C143 2.882 . S
U126 O144 2.441 . S
U126 O145 2.420 . S
U126 O146 2.455 . S
U126 O147 2.449 . S
O127 U126 2.454 . S
O127 C129 1.353 . S
O128 U126 2.458 . S
O128 C129 1.286 . S
C129 U126 2.984 . S
C129 O127 1.353 . S
C129 O128 1.286 . S
C129 C131 1.363 . S
C130 C120 1.465 . S
C130 U126 2.847 . S
C130 O144 1.249 . S
C130 O145 1.202 . S
C131 C129 1.363 . S
C131 C133 1.408 . S
C131 C136 1.342 . S
C132 C133 1.310 . S
C132 C135 1.461 . S
C132 H152 0.932 . S
C133 C131 1.408 . S
C133 C132 1.310 . S
C133 H153 0.930 . S
C134 C135 1.474 . S
C134 C136 1.285 . S
C134 H154 0.929 . S
C135 C132 1.461 . S
C135 C134 1.474 . S
C136 C131 1.342 . S
C136 C134 1.285 . S
C136 H155 0.930 . S
C137 C140 1.424 . S
C137 C142 1.245 . S
C137 C143 1.428 . S
C138 C141 1.260 . S
C138 C142 1.477 . S
C138 H156 0.932 . S
C139 C140 1.384 . S
C139 C141 1.479 . S
C139 H157 0.929 . S
C140 C137 1.424 . S
C140 C139 1.384 . S
C140 H158 0.928 . S
C141 C138 1.260 . S
C141 C139 1.479 . S
C142 C137 1.245 . S
C142 C138 1.477 . S
C142 H159 0.932 . S
C143 U126 2.882 . S
C143 C137 1.428 . S
C143 O146 1.301 . S
C143 O147 1.282 . S
O144 U126 2.441 . S
O144 C130 1.249 . S
O145 U126 2.420 . S
O145 C130 1.202 . S
O146 U126 2.455 . S
O146 C143 1.301 . S
O147 U126 2.449 . S
O147 C143 1.282 . S
H148 C121 0.931 . S
H149 C123 0.929 . S
H150 C124 0.930 . S
H151 C125 0.931 . S
H152 C132 0.932 . S
H153 C133 0.930 . S
H154 C134 0.929 . S
H155 C136 0.930 . S
H156 C138 0.932 . S
H157 C139 0.929 . S
H158 C140 0.928 . S
H159 C142 0.932 . S
C160 C161 1.264 . S
C160 C165 1.479 . S
C160 C170 1.465 . S
C161 C160 1.264 . S
C161 C163 1.339 . S
C161 H188 0.931 . S
C162 C163 1.395 . S
C162 C164 1.320 . S
C163 C161 1.339 . S
C163 C162 1.395 . S
C163 H189 0.929 . S
C164 C162 1.320 . S
C164 C165 1.405 . S
C164 H190 0.930 . S
C165 C160 1.479 . S
C165 C164 1.405 . S
C165 H191 0.931 . S
U166 O167 2.454 . S
U166 O168 2.458 . S
U166 C169 2.984 . S
U166 C170 2.847 . S
U166 C183 2.882 . S
U166 O184 2.441 . S
U166 O185 2.420 . S
U166 O186 2.455 . S
U166 O187 2.449 . S
O167 U166 2.454 . S
O167 C169 1.353 . S
O168 U166 2.458 . S
O168 C169 1.286 . S
C169 U166 2.984 . S
C169 O167 1.353 . S
C169 O168 1.286 . S
C169 C171 1.363 . S
C170 C160 1.465 . S
C170 U166 2.847 . S
C170 O184 1.249 . S
C170 O185 1.202 . S
C171 C169 1.363 . S
C171 C173 1.408 . S
C171 C176 1.342 . S
C172 C173 1.310 . S
C172 C175 1.461 . S
C172 H192 0.932 . S
C173 C171 1.408 . S
C173 C172 1.310 . S
C173 H193 0.930 . S
C174 C175 1.474 . S
C174 C176 1.285 . S
C174 H194 0.929 . S
C175 C172 1.461 . S
C175 C174 1.474 . S
C176 C171 1.342 . S
C176 C174 1.285 . S
C176 H195 0.930 . S
C177 C180 1.424 . S
C177 C182 1.245 . S
C177 C183 1.428 . S
C178 C181 1.260 . S
C178 C182 1.477 . S
C178 H196 0.932 . S
C179 C180 1.384 . S
C179 C181 1.479 . S
C179 H197 0.929 . S
C180 C177 1.424 . S
C180 C179 1.384 . S
C180 H198 0.928 . S
C181 C178 1.260 . S
C181 C179 1.479 . S
C182 C177 1.245 . S
C182 C178 1.477 . S
C182 H199 0.932 . S
C183 U166 2.882 . S
C183 C177 1.428 . S
C183 O186 1.301 . S
C183 O187 1.282 . S
O184 U166 2.441 . S
O184 C170 1.249 . S
O185 U166 2.420 . S
O185 C170 1.202 . S
O186 U166 2.455 . S
O186 C183 1.301 . S
O187 U166 2.449 . S
O187 C183 1.282 . S
H188 C161 0.931 . S
H189 C163 0.929 . S
H190 C164 0.930 . S
H191 C165 0.931 . S
H192 C172 0.932 . S
H193 C173 0.930 . S
H194 C174 0.929 . S
H195 C176 0.930 . S
H196 C178 0.932 . S
H197 C179 0.929 . S
H198 C180 0.928 . S
H199 C182 0.932 . S
C200 C201 1.264 . S
C200 C205 1.479 . S
C200 C210 1.465 . S
C201 C200 1.264 . S
C201 C203 1.339 . S
C201 H228 0.931 . S
C202 C203 1.400 . S
C202 C204 1.324 . S
C203 C201 1.339 . S
C203 C202 1.400 . S
C203 H229 0.929 . S
C204 C202 1.324 . S
C204 C205 1.405 . S
C204 H230 0.943 . S
C205 C200 1.479 . S
C205 C204 1.405 . S
C205 H231 0.931 . S
U206 O207 2.454 . S
U206 O208 2.458 . S
U206 C209 2.984 . S
U206 C210 2.847 . S
U206 C223 2.882 . S
U206 O224 2.441 . S
U206 O225 2.420 . S
U206 O226 2.455 . S
U206 O227 2.449 . S
O207 U206 2.454 . S
O207 C209 1.353 . S
O208 U206 2.458 . S
O208 C209 1.286 . S
C209 U206 2.984 . S
C209 O207 1.353 . S
C209 O208 1.286 . S
C209 C211 1.363 . S
C210 C200 1.465 . S
C210 U206 2.847 . S
C210 O224 1.249 . S
C210 O225 1.202 . S
C211 C209 1.363 . S
C211 C213 1.408 . S
C211 C216 1.342 . S
C212 C213 1.310 . S
C212 C215 1.461 . S
C212 H232 0.932 . S
C213 C211 1.408 . S
C213 C212 1.310 . S
C213 H233 0.930 . S
C214 C215 1.474 . S
C214 C216 1.285 . S
C214 H234 0.929 . S
C215 C212 1.461 . S
C215 C214 1.474 . S
C216 C211 1.342 . S
C216 C214 1.285 . S
C216 H235 0.930 . S
C217 C220 1.424 . S
C217 C222 1.245 . S
C217 C223 1.428 . S
C218 C221 1.260 . S
C218 C222 1.477 . S
C218 H236 0.932 . S
C219 C220 1.384 . S
C219 C221 1.479 . S
C219 H237 0.929 . S
C220 C217 1.424 . S
C220 C219 1.384 . S
C220 H238 0.928 . S
C221 C218 1.260 . S
C221 C219 1.479 . S
C222 C217 1.245 . S
C222 C218 1.477 . S
C222 H239 0.932 . S
C223 U206 2.882 . S
C223 C217 1.428 . S
C223 O226 1.301 . S
C223 O227 1.282 . S
O224 U206 2.441 . S
O224 C210 1.249 . S
O225 U206 2.420 . S
O225 C210 1.202 . S
O226 U206 2.455 . S
O226 C223 1.301 . S
O227 U206 2.449 . S
O227 C223 1.282 . S
H228 C201 0.931 . S
H229 C203 0.929 . S
H230 C204 0.943 . S
H231 C205 0.931 . S
H232 C212 0.932 . S
H233 C213 0.930 . S
H234 C214 0.929 . S
H235 C216 0.930 . S
H236 C218 0.932 . S
H237 C219 0.929 . S
H238 C220 0.928 . S
H239 C222 0.932 . S
C240 C241 1.264 . S
C240 C245 1.479 . S
C240 C250 1.465 . S
C241 C240 1.264 . S
C241 C243 1.339 . S
C241 H268 0.931 . S
C242 C243 1.395 . S
C242 C244 1.320 . S
C243 C241 1.339 . S
C243 C242 1.395 . S
C243 H269 0.929 . S
C244 C242 1.320 . S
C244 C245 1.405 . S
C244 H270 0.930 . S
C245 C240 1.479 . S
C245 C244 1.405 . S
C245 H271 0.931 . S
U246 O247 2.454 . S
U246 O248 2.458 . S
U246 C249 2.984 . S
U246 C250 2.847 . S
U246 C263 2.882 . S
U246 O264 2.441 . S
U246 O265 2.420 . S
U246 O266 2.455 . S
U246 O267 2.449 . S
O247 U246 2.454 . S
O247 C249 1.353 . S
O248 U246 2.458 . S
O248 C249 1.286 . S
C249 U246 2.984 . S
C249 O247 1.353 . S
C249 O248 1.286 . S
C249 C251 1.363 . S
C250 C240 1.465 . S
C250 U246 2.847 . S
C250 O264 1.249 . S
C250 O265 1.202 . S
C251 C249 1.363 . S
C251 C253 1.408 . S
C251 C256 1.342 . S
C252 C253 1.310 . S
C252 C255 1.461 . S
C252 H272 0.932 . S
C253 C251 1.408 . S
C253 C252 1.310 . S
C253 H273 0.930 . S
C254 C255 1.474 . S
C254 C256 1.285 . S
C254 H274 0.929 . S
C255 C252 1.461 . S
C255 C254 1.474 . S
C256 C251 1.342 . S
C256 C254 1.285 . S
C256 H275 0.930 . S
C257 C260 1.424 . S
C257 C262 1.245 . S
C257 C263 1.428 . S
C258 C261 1.260 . S
C258 C262 1.477 . S
C258 H276 0.932 . S
C259 C260 1.384 . S
C259 C261 1.479 . S
C259 H277 0.929 . S
C260 C257 1.424 . S
C260 C259 1.384 . S
C260 H278 0.928 . S
C261 C258 1.260 . S
C261 C259 1.479 . S
C262 C257 1.245 . S
C262 C258 1.477 . S
C262 H279 0.932 . S
C263 U246 2.882 . S
C263 C257 1.428 . S
C263 O266 1.301 . S
C263 O267 1.282 . S
O264 U246 2.441 . S
O264 C250 1.249 . S
O265 U246 2.420 . S
O265 C250 1.202 . S
O266 U246 2.455 . S
O266 C263 1.301 . S
O267 U246 2.449 . S
O267 C263 1.282 . S
H268 C241 0.931 . S
H269 C243 0.929 . S
H270 C244 0.930 . S
H271 C245 0.931 . S
H272 C252 0.932 . S
H273 C253 0.930 . S
H274 C254 0.929 . S
H275 C256 0.930 . S
H276 C258 0.932 . S
H277 C259 0.929 . S
H278 C260 0.928 . S
H279 C262 0.932 . S
C280 C281 1.264 . S
C280 C285 1.479 . S
C280 C290 1.465 . S
C281 C280 1.264 . S
C281 C283 1.339 . S
C281 H308 0.931 . S
C282 C283 1.395 . S
C282 C284 1.320 . S
C283 C281 1.339 . S
C283 C282 1.395 . S
C283 H309 0.929 . S
C284 C282 1.320 . S
C284 C285 1.405 . S
C284 H310 0.930 . S
C285 C280 1.479 . S
C285 C284 1.405 . S
C285 H311 0.931 . S
U286 O287 2.454 . S
U286 O288 2.458 . S
U286 C289 2.984 . S
U286 C290 2.847 . S
U286 C303 2.882 . S
U286 O304 2.441 . S
U286 O305 2.420 . S
U286 O306 2.455 . S
U286 O307 2.449 . S
O287 U286 2.454 . S
O287 C289 1.353 . S
O288 U286 2.458 . S
O288 C289 1.286 . S
C289 U286 2.984 . S
C289 O287 1.353 . S
C289 O288 1.286 . S
C289 C291 1.363 . S
C290 C280 1.465 . S
C290 U286 2.847 . S
C290 O304 1.249 . S
C290 O305 1.202 . S
C291 C289 1.363 . S
C291 C293 1.408 . S
C291 C296 1.342 . S
C292 C293 1.310 . S
C292 C295 1.461 . S
C292 H312 0.932 . S
C293 C291 1.408 . S
C293 C292 1.310 . S
C293 H313 0.930 . S
C294 C295 1.474 . S
C294 C296 1.285 . S
C294 H314 0.929 . S
C295 C292 1.461 . S
C295 C294 1.474 . S
C296 C291 1.342 . S
C296 C294 1.285 . S
C296 H315 0.930 . S
C297 C300 1.424 . S
C297 C302 1.245 . S
C297 C303 1.428 . S
C298 C301 1.260 . S
C298 C302 1.477 . S
C298 H316 0.932 . S
C299 C300 1.384 . S
C299 C301 1.479 . S
C299 H317 0.929 . S
C300 C297 1.424 . S
C300 C299 1.384 . S
C300 H318 0.928 . S
C301 C298 1.260 . S
C301 C299 1.479 . S
C302 C297 1.245 . S
C302 C298 1.477 . S
C302 H319 0.932 . S
C303 U286 2.882 . S
C303 C297 1.428 . S
C303 O306 1.301 . S
C303 O307 1.282 . S
O304 U286 2.441 . S
O304 C290 1.249 . S
O305 U286 2.420 . S
O305 C290 1.202 . S
O306 U286 2.455 . S
O306 C303 1.301 . S
O307 U286 2.449 . S
O307 C303 1.282 . S
H308 C281 0.931 . S
H309 C283 0.929 . S
H310 C284 0.930 . S
H311 C285 0.931 . S
H312 C292 0.932 . S
H313 C293 0.930 . S
H314 C294 0.929 . S
H315 C296 0.930 . S
H316 C298 0.932 . S
H317 C299 0.929 . S
H318 C300 0.928 . S
H319 C302 0.932 . S
Tb320 N349 2.617 . S
Tb320 N355 2.572 . S
Tb320 O364 2.465 . S
Tb320 O365 2.387 . S
Tb320 O367 2.428 . S
Tb320 O368 2.328 . S
Tb320 O372 2.349 . S
Tb320 O375 2.393 . S
Tb320 C384 2.802 . S
C321 N322 1.379 . S
C321 C324 1.416 . S
C321 C328 1.424 . S
N322 C321 1.379 . S
N322 C325 1.334 . S
N322 Tb331 2.617 . S
C323 C325 1.390 . S
C323 C326 1.339 . S
C323 H343 0.930 . S
C324 C321 1.416 . S
C324 C326 1.416 . S
C324 C330 1.448 . S
C325 N322 1.334 . S
C325 C323 1.390 . S
C325 H336 0.930 . S
C326 C323 1.339 . S
C326 C324 1.416 . S
C326 H347 0.930 . S
C327 C328 1.413 . S
C327 C329 1.427 . S
C327 C333 1.416 . S
C328 C321 1.424 . S
C328 C327 1.413 . S
C328 N332 1.361 . S
C329 C327 1.427 . S
C329 C330 1.328 . S
C329 H344 0.929 . S
C330 C324 1.448 . S
C330 C329 1.328 . S
C330 H345 0.930 . S
Tb331 N322 2.617 . S
Tb331 N332 2.572 . S
Tb331 O366 2.349 . S
Tb331 O369 2.393 . S
Tb331 O370 2.465 . S
Tb331 O371 2.387 . S
Tb331 O373 2.428 . S
Tb331 O374 2.308 1_655 S
Tb331 C395 2.802 . S
N332 C328 1.361 . S
N332 Tb331 2.572 . S
N332 C334 1.340 . S
C333 C327 1.416 . S
C333 C335 1.332 . S
C333 H341 0.931 . S
C334 N332 1.340 . S
C334 C335 1.407 . S
C334 H340 0.930 . S
C335 C333 1.332 . S
C335 C334 1.407 . S
C335 H337 0.929 . S
H336 C325 0.930 . S
H337 C335 0.929 . S
H338 C353 0.930 . S
H339 C360 0.929 . S
H340 C334 0.930 . S
H341 C333 0.931 . S
H342 C356 0.930 . S
H343 C323 0.930 . S
H344 C329 0.929 . S
H345 C330 0.930 . S
H346 C351 0.930 . S
H347 C326 0.930 . S
H348 C359 0.931 . S
N349 Tb320 2.617 . S
N349 C350 1.379 . S
N349 C353 1.334 . S
C350 N349 1.379 . S
C350 C352 1.416 . S
C350 C358 1.424 . S
C351 H346 0.930 . S
C351 C353 1.390 . S
C351 C354 1.339 . S
C352 C350 1.416 . S
C352 C354 1.416 . S
C352 C385 1.448 . S
C353 H338 0.930 . S
C353 N349 1.334 . S
C353 C351 1.390 . S
C354 C351 1.339 . S
C354 C352 1.416 . S
C354 H361 0.930 . S
N355 Tb320 2.572 . S
N355 C356 1.340 . S
N355 C358 1.361 . S
C356 H342 0.930 . S
C356 N355 1.340 . S
C356 C360 1.407 . S
C357 C358 1.413 . S
C357 C359 1.416 . S
C357 C386 1.427 . S
C358 C350 1.424 . S
C358 N355 1.361 . S
C358 C357 1.413 . S
C359 H348 0.931 . S
C359 C357 1.416 . S
C359 C360 1.332 . S
C360 H339 0.929 . S
C360 C356 1.407 . S
C360 C359 1.332 . S
H361 C354 0.930 . S
H362 C385 0.930 . S
H363 C386 0.929 . S
O364 Tb320 2.465 . S
O364 C384 1.264 . S
O365 Tb320 2.387 . S
O365 C376 1.264 . S
O366 Tb331 2.349 . S
O366 C376 1.243 1_655 S
O367 Tb320 2.428 . S
O367 C384 1.256 . S
O368 Tb320 2.328 . S
O368 C383 1.243 1_455 S
O369 Tb331 2.393 . S
O369 C383 1.248 . S
O370 Tb331 2.465 . S
O370 C395 1.264 . S
O371 Tb331 2.387 . S
O371 C387 1.264 . S
O372 Tb320 2.349 . S
O372 C387 1.243 1_455 S
O373 Tb331 2.428 . S
O373 C395 1.256 . S
O374 Tb331 2.308 1_455 S
O374 C394 1.266 . S
O375 Tb320 2.393 . S
O375 C394 1.248 . S
C376 O365 1.264 . S
C376 O366 1.243 1_455 S
C377 C380 1.399 . S
C377 C382 1.383 . S
C377 C384 1.496 . S
C378 C379 1.399 . S
C378 C382 1.389 . S
C379 C378 1.399 . S
C379 C381 1.380 . S
C379 H396 0.929 . S
C380 C377 1.399 . S
C380 C381 1.392 . S
C380 H397 0.929 . S
C381 C379 1.380 . S
C381 C380 1.392 . S
C381 H398 0.929 . S
C382 C377 1.383 . S
C382 C378 1.389 . S
C382 H399 0.931 . S
C383 O368 1.243 1_655 S
C383 O369 1.248 . S
C384 Tb320 2.802 . S
C384 O364 1.264 . S
C384 O367 1.256 . S
C384 C377 1.496 . S
C385 C352 1.448 . S
C385 H362 0.930 . S
C385 C386 1.328 . S
C386 C357 1.427 . S
C386 H363 0.929 . S
C386 C385 1.328 . S
C387 O371 1.264 . S
C387 O372 1.243 1_655 S
C388 C391 1.399 . S
C388 C392 1.383 . S
C388 C395 1.496 . S
C389 C390 1.399 . S
C389 C392 1.389 . S
C390 C389 1.399 . S
C390 C393 1.380 . S
C390 H400 0.929 . S
C391 C388 1.399 . S
C391 C393 1.392 . S
C391 H401 0.929 . S
C392 C388 1.383 . S
C392 C389 1.389 . S
C392 H402 0.931 . S
C393 C390 1.380 . S
C393 C391 1.392 . S
C393 H403 0.929 . S
C394 O374 1.266 . S
C394 O375 1.248 . S
C395 Tb331 2.802 . S
C395 O370 1.264 . S
C395 O373 1.256 . S
C395 C388 1.496 . S
H396 C379 0.929 . S
H397 C380 0.929 . S
H398 C381 0.929 . S
H399 C382 0.931 . S
H400 C390 0.929 . S
H401 C391 0.929 . S
H402 C392 0.931 . S
H403 C393 0.929 . S
Tb404 N433 2.617 . S
Tb404 N439 2.572 . S
Tb404 O448 2.465 . S
Tb404 O449 2.387 . S
Tb404 O451 2.428 . S
Tb404 O452 2.308 . S
Tb404 O456 2.349 . S
Tb404 O459 2.393 . S
Tb404 C468 2.802 . S
C405 N406 1.379 . S
C405 C408 1.416 . S
C405 C412 1.424 . S
N406 C405 1.379 . S
N406 C409 1.334 . S
N406 Tb415 2.617 . S
C407 C409 1.390 . S
C407 C410 1.339 . S
C407 H427 0.930 . S
C408 C405 1.416 . S
C408 C410 1.416 . S
C408 C414 1.448 . S
C409 N406 1.334 . S
C409 C407 1.390 . S
C409 H420 0.930 . S
C410 C407 1.339 . S
C410 C408 1.416 . S
C410 H431 0.930 . S
C411 C412 1.413 . S
C411 C413 1.427 . S
C411 C417 1.416 . S
C412 C405 1.424 . S
C412 C411 1.413 . S
C412 N416 1.361 . S
C413 C411 1.427 . S
C413 C414 1.328 . S
C413 H428 0.929 . S
C414 C408 1.448 . S
C414 C413 1.328 . S
C414 H429 0.930 . S
Tb415 N406 2.617 . S
Tb415 N416 2.572 . S
Tb415 O450 2.349 . S
Tb415 O453 2.393 . S
Tb415 O454 2.465 . S
Tb415 O455 2.387 . S
Tb415 O457 2.428 . S
Tb415 O458 2.308 . S
Tb415 C479 2.802 . S
N416 C412 1.361 . S
N416 Tb415 2.572 . S
N416 C418 1.340 . S
C417 C411 1.416 . S
C417 C419 1.332 . S
C417 H425 0.931 . S
C418 N416 1.340 . S
C418 C419 1.407 . S
C418 H424 0.930 . S
C419 C417 1.332 . S
C419 C418 1.407 . S
C419 H421 0.929 . S
H420 C409 0.930 . S
H421 C419 0.929 . S
H422 C437 0.930 . S
H423 C444 0.929 . S
H424 C418 0.930 . S
H425 C417 0.931 . S
H426 C440 0.930 . S
H427 C407 0.930 . S
H428 C413 0.929 . S
H429 C414 0.930 . S
H430 C435 0.930 . S
H431 C410 0.930 . S
H432 C443 0.931 . S
N433 Tb404 2.617 . S
N433 C434 1.379 . S
N433 C437 1.334 . S
C434 N433 1.379 . S
C434 C436 1.416 . S
C434 C442 1.424 . S
C435 H430 0.930 . S
C435 C437 1.390 . S
C435 C438 1.339 . S
C436 C434 1.416 . S
C436 C438 1.416 . S
C436 C469 1.448 . S
C437 H422 0.930 . S
C437 N433 1.334 . S
C437 C435 1.390 . S
C438 C435 1.339 . S
C438 C436 1.416 . S
C438 H445 0.930 . S
N439 Tb404 2.572 . S
N439 C440 1.340 . S
N439 C442 1.361 . S
C440 H426 0.930 . S
C440 N439 1.340 . S
C440 C444 1.407 . S
C441 C442 1.413 . S
C441 C443 1.416 . S
C441 C470 1.427 . S
C442 C434 1.424 . S
C442 N439 1.361 . S
C442 C441 1.413 . S
C443 H432 0.931 . S
C443 C441 1.416 . S
C443 C444 1.332 . S
C444 H423 0.929 . S
C444 C440 1.407 . S
C444 C443 1.332 . S
H445 C438 0.930 . S
H446 C469 0.930 . S
H447 C470 0.929 . S
O448 Tb404 2.465 . S
O448 C468 1.264 . S
O449 Tb404 2.387 . S
O449 C460 1.264 . S
O450 Tb415 2.349 . S
O450 C460 1.243 . S
O451 Tb404 2.428 . S
O451 C468 1.256 . S
O452 Tb404 2.308 . S
O452 C467 1.266 . S
O453 Tb415 2.393 . S
O453 C467 1.248 . S
O454 Tb415 2.465 . S
O454 C479 1.264 . S
O455 Tb415 2.387 . S
O455 C471 1.264 . S
O456 Tb404 2.349 . S
O456 C471 1.243 . S
O457 Tb415 2.428 . S
O457 C479 1.256 . S
O458 Tb415 2.308 . S
O458 C478 1.266 . S
O459 Tb404 2.393 . S
O459 C478 1.248 . S
C460 O449 1.264 . S
C460 O450 1.243 . S
C461 C464 1.399 . S
C461 C466 1.383 . S
C461 C468 1.496 . S
C462 C463 1.399 . S
C462 C466 1.389 . S
C463 C462 1.399 . S
C463 C465 1.380 . S
C463 H480 0.929 . S
C464 C461 1.399 . S
C464 C465 1.392 . S
C464 H481 0.929 . S
C465 C463 1.380 . S
C465 C464 1.392 . S
C465 H482 0.929 . S
C466 C461 1.383 . S
C466 C462 1.389 . S
C466 H483 0.931 . S
C467 O452 1.266 . S
C467 O453 1.248 . S
C468 Tb404 2.802 . S
C468 O448 1.264 . S
C468 O451 1.256 . S
C468 C461 1.496 . S
C469 C436 1.448 . S
C469 H446 0.930 . S
C469 C470 1.328 . S
C470 C441 1.427 . S
C470 H447 0.929 . S
C470 C469 1.328 . S
C471 O455 1.264 . S
C471 O456 1.243 . S
C472 C475 1.399 . S
C472 C476 1.383 . S
C472 C479 1.496 . S
C473 C474 1.399 . S
C473 C476 1.389 . S
C474 C473 1.399 . S
C474 C477 1.380 . S
C474 H484 0.929 . S
C475 C472 1.399 . S
C475 C477 1.392 . S
C475 H485 0.929 . S
C476 C472 1.383 . S
C476 C473 1.389 . S
C476 H486 0.931 . S
C477 C474 1.380 . S
C477 C475 1.392 . S
C477 H487 0.929 . S
C478 O458 1.266 . S
C478 O459 1.248 . S
C479 Tb415 2.802 . S
C479 O454 1.264 . S
C479 O457 1.256 . S
C479 C472 1.496 . S
H480 C463 0.929 . S
H481 C464 0.929 . S
H482 C465 0.929 . S
H483 C466 0.931 . S
H484 C474 0.929 . S
H485 C475 0.929 . S
H486 C476 0.931 . S
H487 C477 0.929 . S
Tb488 N517 2.617 . S
Tb488 N523 2.572 . S
Tb488 O532 2.465 . S
Tb488 O533 2.387 . S
Tb488 O535 2.428 . S
Tb488 O536 2.308 . S
Tb488 O540 2.349 . S
Tb488 O543 2.393 . S
Tb488 C552 2.802 . S
C489 N490 1.379 . S
C489 C492 1.416 . S
C489 C496 1.424 . S
N490 C489 1.379 . S
N490 C493 1.334 . S
N490 Tb499 2.617 . S
C491 C493 1.390 . S
C491 C494 1.339 . S
C491 H511 0.930 . S
C492 C489 1.416 . S
C492 C494 1.416 . S
C492 C498 1.448 . S
C493 N490 1.334 . S
C493 C491 1.390 . S
C493 H504 0.930 . S
C494 C491 1.339 . S
C494 C492 1.416 . S
C494 H515 0.930 . S
C495 C496 1.413 . S
C495 C497 1.427 . S
C495 C501 1.416 . S
C496 C489 1.424 . S
C496 C495 1.413 . S
C496 N500 1.361 . S
C497 C495 1.427 . S
C497 C498 1.328 . S
C497 H512 0.929 . S
C498 C492 1.448 . S
C498 C497 1.328 . S
C498 H513 0.930 . S
Tb499 N490 2.617 . S
Tb499 N500 2.572 . S
Tb499 O534 2.349 1_655 S
Tb499 O537 2.393 . S
Tb499 O538 2.465 . S
Tb499 O539 2.387 . S
Tb499 O541 2.428 . S
Tb499 O542 2.308 1_655 S
Tb499 C563 2.802 . S
N500 C496 1.361 . S
N500 Tb499 2.572 . S
N500 C502 1.340 . S
C501 C495 1.416 . S
C501 C503 1.332 . S
C501 H509 0.931 . S
C502 N500 1.340 . S
C502 C503 1.407 . S
C502 H508 0.930 . S
C503 C501 1.332 . S
C503 C502 1.407 . S
C503 H505 0.929 . S
H504 C493 0.930 . S
H505 C503 0.929 . S
H506 C521 0.930 . S
H507 C528 0.929 . S
H508 C502 0.930 . S
H509 C501 0.931 . S
H510 C524 0.930 . S
H511 C491 0.930 . S
H512 C497 0.929 . S
H513 C498 0.930 . S
H514 C519 0.930 . S
H515 C494 0.930 . S
H516 C527 0.931 . S
N517 Tb488 2.617 . S
N517 C518 1.379 . S
N517 C521 1.334 . S
C518 N517 1.379 . S
C518 C520 1.416 . S
C518 C526 1.424 . S
C519 H514 0.930 . S
C519 C521 1.390 . S
C519 C522 1.339 . S
C520 C518 1.416 . S
C520 C522 1.416 . S
C520 C553 1.448 . S
C521 H506 0.930 . S
C521 N517 1.334 . S
C521 C519 1.390 . S
C522 C519 1.339 . S
C522 C520 1.416 . S
C522 H529 0.930 . S
N523 Tb488 2.572 . S
N523 C524 1.340 . S
N523 C526 1.361 . S
C524 H510 0.930 . S
C524 N523 1.340 . S
C524 C528 1.407 . S
C525 C526 1.413 . S
C525 C527 1.416 . S
C525 C554 1.427 . S
C526 C518 1.424 . S
C526 N523 1.361 . S
C526 C525 1.413 . S
C527 H516 0.931 . S
C527 C525 1.416 . S
C527 C528 1.332 . S
C528 H507 0.929 . S
C528 C524 1.407 . S
C528 C527 1.332 . S
H529 C522 0.930 . S
H530 C553 0.930 . S
H531 C554 0.929 . S
O532 Tb488 2.465 . S
O532 C552 1.264 . S
O533 Tb488 2.387 . S
O533 C544 1.264 . S
O534 Tb499 2.349 1_455 S
O534 C544 1.243 . S
O535 Tb488 2.428 . S
O535 C552 1.256 . S
O536 Tb488 2.308 . S
O536 C551 1.266 1_455 S
O537 Tb499 2.393 . S
O537 C551 1.248 . S
O538 Tb499 2.465 . S
O538 C563 1.264 . S
O539 Tb499 2.387 . S
O539 C555 1.264 . S
O540 Tb488 2.349 . S
O540 C555 1.243 1_455 S
O541 Tb499 2.428 . S
O541 C563 1.256 . S
O542 Tb499 2.308 1_455 S
O542 C562 1.266 . S
O543 Tb488 2.393 . S
O543 C562 1.248 . S
C544 O533 1.264 . S
C544 O534 1.243 . S
C545 C548 1.399 . S
C545 C550 1.383 . S
C545 C552 1.496 . S
C546 C547 1.399 . S
C546 C550 1.389 . S
C547 C546 1.399 . S
C547 C549 1.380 . S
C547 H564 0.929 . S
C548 C545 1.399 . S
C548 C549 1.392 . S
C548 H565 0.929 . S
C549 C547 1.380 . S
C549 C548 1.392 . S
C549 H566 0.929 . S
C550 C545 1.383 . S
C550 C546 1.389 . S
C550 H567 0.931 . S
C551 O536 1.266 1_655 S
C551 O537 1.248 . S
C552 Tb488 2.802 . S
C552 O532 1.264 . S
C552 O535 1.256 . S
C552 C545 1.496 . S
C553 C520 1.448 . S
C553 H530 0.930 . S
C553 C554 1.328 . S
C554 C525 1.427 . S
C554 H531 0.929 . S
C554 C553 1.328 . S
C555 O539 1.264 . S
C555 O540 1.243 1_655 S
C556 C559 1.399 . S
C556 C560 1.383 . S
C556 C563 1.496 . S
C557 C558 1.399 . S
C557 C560 1.389 . S
C558 C557 1.399 . S
C558 C561 1.380 . S
C558 H568 0.929 . S
C559 C556 1.399 . S
C559 C561 1.392 . S
C559 H569 0.929 . S
C560 C556 1.383 . S
C560 C557 1.389 . S
C560 H570 0.931 . S
C561 C558 1.380 . S
C561 C559 1.392 . S
C561 H571 0.929 . S
C562 O542 1.266 . S
C562 O543 1.248 . S
C563 Tb499 2.802 . S
C563 O538 1.264 . S
C563 O541 1.256 . S
C563 C556 1.496 . S
H564 C547 0.929 . S
H565 C548 0.929 . S
H566 C549 0.929 . S
H567 C550 0.931 . S
H568 C558 0.929 . S
H569 C559 0.929 . S
H570 C560 0.931 . S
H571 C561 0.929 . S
Tb572 N601 2.617 . S
Tb572 N607 2.572 . S
Tb572 O616 2.465 . S
Tb572 O617 2.387 . S
Tb572 O619 2.428 . S
Tb572 O620 2.308 . S
Tb572 O624 2.349 . S
Tb572 O627 2.393 . S
Tb572 C636 2.802 . S
C573 N574 1.379 . S
C573 C576 1.416 . S
C573 C580 1.424 . S
N574 C573 1.379 . S
N574 C577 1.334 . S
N574 Tb583 2.617 . S
C575 C577 1.390 . S
C575 C578 1.339 . S
C575 H595 0.930 . S
C576 C573 1.416 . S
C576 C578 1.416 . S
C576 C582 1.448 . S
C577 N574 1.334 . S
C577 C575 1.390 . S
C577 H588 0.930 . S
C578 C575 1.339 . S
C578 C576 1.416 . S
C578 H599 0.930 . S
C579 C580 1.413 . S
C579 C581 1.427 . S
C579 C585 1.416 . S
C580 C573 1.424 . S
C580 C579 1.413 . S
C580 N584 1.361 . S
C581 C579 1.427 . S
C581 C582 1.328 . S
C581 H596 0.929 . S
C582 C576 1.448 . S
C582 C581 1.328 . S
C582 H597 0.930 . S
Tb583 N574 2.617 . S
Tb583 N584 2.572 . S
Tb583 O618 2.349 . S
Tb583 O621 2.393 . S
Tb583 O622 2.465 . S
Tb583 O623 2.387 . S
Tb583 O625 2.428 . S
Tb583 O626 2.308 . S
Tb583 C647 2.802 . S
N584 C580 1.361 . S
N584 Tb583 2.572 . S
N584 C586 1.340 . S
C585 C579 1.416 . S
C585 C587 1.332 . S
C585 H593 0.931 . S
C586 N584 1.340 . S
C586 C587 1.407 . S
C586 H592 0.930 . S
C587 C585 1.332 . S
C587 C586 1.407 . S
C587 H589 0.929 . S
H588 C577 0.930 . S
H589 C587 0.929 . S
H590 C605 0.930 . S
H591 C612 0.929 . S
H592 C586 0.930 . S
H593 C585 0.931 . S
H594 C608 0.930 . S
H595 C575 0.930 . S
H596 C581 0.929 . S
H597 C582 0.930 . S
H598 C603 0.930 . S
H599 C578 0.930 . S
H600 C611 0.931 . S
N601 Tb572 2.617 . S
N601 C602 1.379 . S
N601 C605 1.334 . S
C602 N601 1.379 . S
C602 C604 1.416 . S
C602 C610 1.424 . S
C603 H598 0.930 . S
C603 C605 1.390 . S
C603 C606 1.339 . S
C604 C602 1.416 . S
C604 C606 1.416 . S
C604 C637 1.448 . S
C605 H590 0.930 . S
C605 N601 1.334 . S
C605 C603 1.390 . S
C606 C603 1.339 . S
C606 C604 1.416 . S
C606 H613 0.930 . S
N607 Tb572 2.572 . S
N607 C608 1.340 . S
N607 C610 1.361 . S
C608 H594 0.930 . S
C608 N607 1.340 . S
C608 C612 1.407 . S
C609 C610 1.413 . S
C609 C611 1.416 . S
C609 C638 1.427 . S
C610 C602 1.424 . S
C610 N607 1.361 . S
C610 C609 1.413 . S
C611 H600 0.931 . S
C611 C609 1.416 . S
C611 C612 1.332 . S
C612 H591 0.929 . S
C612 C608 1.407 . S
C612 C611 1.332 . S
H613 C606 0.930 . S
H614 C637 0.930 . S
H615 C638 0.929 . S
O616 Tb572 2.465 . S
O616 C636 1.264 . S
O617 Tb572 2.387 . S
O617 C628 1.264 . S
O618 Tb583 2.349 . S
O618 C628 1.243 . S
O619 Tb572 2.428 . S
O619 C636 1.256 . S
O620 Tb572 2.308 . S
O620 C635 1.266 . S
O621 Tb583 2.393 . S
O621 C635 1.248 . S
O622 Tb583 2.465 . S
O622 C647 1.264 . S
O623 Tb583 2.387 . S
O623 C639 1.264 . S
O624 Tb572 2.349 . S
O624 C639 1.243 . S
O625 Tb583 2.428 . S
O625 C647 1.256 . S
O626 Tb583 2.308 . S
O626 C646 1.266 . S
O627 Tb572 2.393 . S
O627 C646 1.248 . S
C628 O617 1.264 . S
C628 O618 1.243 . S
C629 C632 1.399 . S
C629 C634 1.383 . S
C629 C636 1.496 . S
C630 C631 1.399 . S
C630 C634 1.389 . S
C631 C630 1.399 . S
C631 C633 1.380 . S
C631 H648 0.929 . S
C632 C629 1.399 . S
C632 C633 1.392 . S
C632 H649 0.929 . S
C633 C631 1.380 . S
C633 C632 1.392 . S
C633 H650 0.929 . S
C634 C629 1.383 . S
C634 C630 1.389 . S
C634 H651 0.931 . S
C635 O620 1.266 . S
C635 O621 1.248 . S
C636 Tb572 2.802 . S
C636 O616 1.264 . S
C636 O619 1.256 . S
C636 C629 1.496 . S
C637 C604 1.448 . S
C637 H614 0.930 . S
C637 C638 1.328 . S
C638 C609 1.427 . S
C638 H615 0.929 . S
C638 C637 1.328 . S
C639 O623 1.264 . S
C639 O624 1.243 . S
C640 C643 1.399 . S
C640 C644 1.383 . S
C640 C647 1.496 . S
C641 C642 1.399 . S
C641 C644 1.389 . S
C642 C641 1.399 . S
C642 C645 1.380 . S
C642 H652 0.929 . S
C643 C640 1.399 . S
C643 C645 1.392 . S
C643 H653 0.929 . S
C644 C640 1.383 . S
C644 C641 1.389 . S
C644 H654 0.931 . S
C645 C642 1.380 . S
C645 C643 1.392 . S
C645 H655 0.929 . S
C646 O626 1.266 . S
C646 O627 1.248 . S
C647 Tb583 2.802 . S
C647 O622 1.264 . S
C647 O625 1.256 . S
C647 C640 1.496 . S
H648 C631 0.929 . S
H649 C632 0.929 . S
H650 C633 0.929 . S
H651 C634 0.931 . S
H652 C642 0.929 . S
H653 C643 0.929 . S
H654 C644 0.931 . S
H655 C645 0.929 . S
H656 C664 0.929 . S
H657 C666 0.930 . S
H658 C668 0.930 . S
H659 C671 0.929 . S
H660 C674 0.930 . S
H661 C676 0.960 . S
H662 C676 0.960 . S
H663 C676 0.960 . S
C664 H656 0.929 . S
C664 C665 1.377 . S
C664 C666 1.384 . S
C665 C664 1.377 . S
C665 C671 1.390 . S
C666 H657 0.930 . S
C666 C664 1.384 . S
C666 C667 1.372 1_565 S
C667 C666 1.372 1_545 S
C667 C668 1.400 . S
C667 C672 1.490 . S
C668 H658 0.930 . S
C668 C667 1.400 . S
C668 C671 1.386 1_545 S
H669 C685 0.930 . S
H670 C686 0.931 . S
C671 H659 0.929 . S
C671 C665 1.390 . S
C671 C668 1.386 1_565 S
C672 C667 1.490 . S
C672 C674 1.395 . S
C672 C675 1.403 . S
H673 C679 0.930 . S
C674 H660 0.930 . S
C674 C672 1.395 . S
C674 C677 1.403 . S
C675 C672 1.403 . S
C675 C676 1.524 . S
C675 C679 1.400 . S
C676 H661 0.960 . S
C676 H662 0.960 . S
C676 H663 0.960 . S
C676 C675 1.524 . S
C677 C674 1.403 . S
C677 C678 1.392 . S
C677 C681 1.495 . S
C678 C677 1.392 . S
C678 C679 1.385 . S
C678 C680 1.478 . S
C679 H673 0.930 . S
C679 C675 1.400 . S
C679 C678 1.385 . S
C680 C678 1.478 . S
C680 C682 1.381 . S
C680 C686 1.383 . S
C681 C677 1.495 . S
C681 H687 0.959 . S
C681 H688 0.961 . S
C681 H689 0.960 . S
C682 C680 1.381 . S
C682 C683 1.394 . S
C682 H690 0.930 . S
C683 C682 1.394 . S
C683 C684 1.383 . S
C683 H691 0.929 . S
C684 C683 1.383 . S
C684 C685 1.377 . S
C685 H669 0.930 . S
C685 C684 1.377 . S
C685 C686 1.379 . S
C686 H670 0.931 . S
C686 C680 1.383 . S
C686 C685 1.379 . S
H687 C681 0.959 . S
H688 C681 0.961 . S
H689 C681 0.960 . S
H690 C682 0.930 . S
H691 C683 0.929 . S
H692 C700 0.929 . S
H693 C702 0.930 . S
H694 C704 0.930 . S
H695 C707 0.929 . S
H696 C710 0.930 . S
H697 C712 0.960 . S
H698 C712 0.960 . S
H699 C712 0.960 . S
C700 H692 0.929 . S
C700 C701 1.377 . S
C700 C702 1.384 . S
C701 C700 1.377 . S
C701 C707 1.390 . S
C702 H693 0.930 . S
C702 C700 1.384 . S
C702 C703 1.372 . S
C703 C702 1.372 . S
C703 C704 1.400 . S
C703 C708 1.490 . S
C704 H694 0.930 . S
C704 C703 1.400 . S
C704 C707 1.386 . S
H705 C721 0.930 . S
H706 C722 0.931 . S
C707 H695 0.929 . S
C707 C701 1.390 . S
C707 C704 1.386 . S
C708 C703 1.490 . S
C708 C710 1.395 . S
C708 C711 1.403 . S
H709 C715 0.930 . S
C710 H696 0.930 . S
C710 C708 1.395 . S
C710 C713 1.403 . S
C711 C708 1.403 . S
C711 C712 1.524 . S
C711 C715 1.400 . S
C712 H697 0.960 . S
C712 H698 0.960 . S
C712 H699 0.960 . S
C712 C711 1.524 . S
C713 C710 1.403 . S
C713 C714 1.392 . S
C713 C717 1.495 . S
C714 C713 1.392 . S
C714 C715 1.385 . S
C714 C716 1.478 . S
C715 H709 0.930 . S
C715 C711 1.400 . S
C715 C714 1.385 . S
C716 C714 1.478 . S
C716 C718 1.381 . S
C716 C722 1.383 . S
C717 C713 1.495 . S
C717 H723 0.959 . S
C717 H724 0.961 . S
C717 H725 0.960 . S
C718 C716 1.381 . S
C718 C719 1.394 . S
C718 H726 0.930 . S
C719 C718 1.394 . S
C719 C720 1.383 . S
C719 H727 0.929 . S
C720 C719 1.383 . S
C720 C721 1.377 . S
C721 H705 0.930 . S
C721 C720 1.377 . S
C721 C722 1.379 . S
C722 H706 0.931 . S
C722 C716 1.383 . S
C722 C721 1.379 . S
H723 C717 0.959 . S
H724 C717 0.961 . S
H725 C717 0.960 . S
H726 C718 0.930 . S
H727 C719 0.929 . S
H728 C736 0.929 . S
H729 C738 0.930 . S
H730 C740 0.930 . S
H731 C743 0.929 . S
H732 C746 0.930 . S
H733 C748 0.960 . S
H734 C748 0.960 . S
H735 C748 0.960 . S
C736 H728 0.929 . S
C736 C737 1.377 . S
C736 C738 1.384 . S
C737 C736 1.377 . S
C737 C743 1.390 . S
C738 H729 0.930 . S
C738 C736 1.384 . S
C738 C739 1.372 . S
C739 C738 1.372 . S
C739 C740 1.400 . S
C739 C744 1.490 . S
C740 H730 0.930 . S
C740 C739 1.400 . S
C740 C743 1.386 . S
H741 C757 0.930 . S
H742 C758 0.931 . S
C743 H731 0.929 . S
C743 C737 1.390 . S
C743 C740 1.386 . S
C744 C739 1.490 . S
C744 C746 1.395 . S
C744 C747 1.403 . S
H745 C751 0.930 . S
C746 H732 0.930 . S
C746 C744 1.395 . S
C746 C749 1.403 . S
C747 C744 1.403 . S
C747 C748 1.524 . S
C747 C751 1.400 . S
C748 H733 0.960 . S
C748 H734 0.960 . S
C748 H735 0.960 . S
C748 C747 1.524 . S
C749 C746 1.403 . S
C749 C750 1.392 . S
C749 C753 1.495 . S
C750 C749 1.392 . S
C750 C751 1.385 . S
C750 C752 1.478 . S
C751 H745 0.930 . S
C751 C747 1.400 . S
C751 C750 1.385 . S
C752 C750 1.478 . S
C752 C754 1.381 . S
C752 C758 1.383 . S
C753 C749 1.495 . S
C753 H759 0.959 . S
C753 H760 0.961 . S
C753 H761 0.960 . S
C754 C752 1.381 . S
C754 C755 1.394 . S
C754 H762 0.930 . S
C755 C754 1.394 . S
C755 C756 1.383 . S
C755 H763 0.929 . S
C756 C755 1.383 . S
C756 C757 1.377 . S
C757 H741 0.930 . S
C757 C756 1.377 . S
C757 C758 1.379 . S
C758 H742 0.931 . S
C758 C752 1.383 . S
C758 C757 1.379 . S
H759 C753 0.959 . S
H760 C753 0.961 . S
H761 C753 0.960 . S
H762 C754 0.930 . S
H763 C755 0.929 . S
H764 C772 0.929 . S
H765 C774 0.930 . S
H766 C776 0.930 1_545 S
H767 C779 0.929 . S
H768 C782 0.930 . S
H769 C784 0.959 1_545 S
H770 C784 0.980 . S
H771 C784 0.971 . S
C772 H764 0.929 . S
C772 C773 1.377 . S
C772 C774 1.384 1_565 S
C773 C772 1.377 . S
C773 C779 1.390 . S
C774 H765 0.930 . S
C774 C772 1.384 1_545 S
C774 C775 1.372 . S
C775 C774 1.372 . S
C775 C776 1.400 1_545 S
C775 C780 1.490 . S
C776 H766 0.930 1_565 S
C776 C775 1.400 1_565 S
C776 C779 1.386 . S
H777 C793 0.930 . S
H778 C794 0.931 . S
C779 H767 0.929 . S
C779 C773 1.390 . S
C779 C776 1.386 . S
C780 C775 1.490 . S
C780 C782 1.395 . S
C780 C783 1.403 . S
H781 C787 0.930 . S
C782 H768 0.930 . S
C782 C780 1.395 . S
C782 C785 1.403 . S
C783 C780 1.403 . S
C783 C784 1.495 1_545 S
C783 C787 1.400 . S
C784 H769 0.959 1_565 S
C784 H770 0.980 . S
C784 H771 0.971 . S
C784 C783 1.495 1_565 S
C785 C782 1.403 . S
C785 C786 1.392 . S
C785 C789 1.495 . S
C786 C785 1.392 . S
C786 C787 1.385 . S
C786 C788 1.478 . S
C787 H781 0.930 . S
C787 C783 1.400 . S
C787 C786 1.385 . S
C788 C786 1.478 . S
C788 C790 1.381 . S
C788 C794 1.383 . S
C789 C785 1.495 . S
C789 H795 0.959 . S
C789 H796 0.961 . S
C789 H797 0.960 . S
C790 C788 1.381 . S
C790 C791 1.394 . S
C790 H798 0.930 . S
C791 C790 1.394 . S
C791 C792 1.383 . S
C791 H799 0.929 . S
C792 C791 1.383 . S
C792 C793 1.377 . S
C793 H777 0.930 . S
C793 C792 1.377 . S
C793 C794 1.379 . S
C794 H778 0.931 . S
C794 C788 1.383 . S
C794 C793 1.379 . S
H795 C789 0.959 . S
H796 C789 0.961 . S
H797 C789 0.960 . S
H798 C790 0.930 . S
H799 C791 0.929 . S
H800 C808 0.929 . S
H801 C810 0.930 1_565 S
H802 C812 0.930 . S
H803 C815 0.929 . S
H804 C818 0.930 . S
H805 C820 0.960 . S
H806 C820 0.960 1_545 S
H807 C820 0.960 . S
C808 H800 0.929 . S
C808 C809 1.377 . S
C808 C810 1.384 . S
C809 C808 1.377 . S
C809 C815 1.390 . S
C810 H801 0.930 1_545 S
C810 C808 1.384 . S
C810 C811 1.372 1_545 S
C811 C810 1.372 1_565 S
C811 C812 1.400 . S
C811 C816 1.490 . S
C812 H802 0.930 . S
C812 C811 1.400 . S
C812 C815 1.386 1_565 S
H813 C829 0.930 . S
H814 C830 0.931 . S
C815 H803 0.929 . S
C815 C809 1.390 . S
C815 C812 1.386 1_545 S
C816 C811 1.490 . S
C816 C818 1.395 . S
C816 C819 1.403 . S
H817 C823 0.930 . S
C818 H804 0.930 . S
C818 C816 1.395 . S
C818 C821 1.403 . S
C819 C816 1.403 . S
C819 C820 1.524 . S
C819 C823 1.400 . S
C820 H805 0.960 . S
C820 H806 0.960 1_565 S
C820 H807 0.960 . S
C820 C819 1.524 . S
C821 C818 1.403 . S
C821 C822 1.392 . S
C821 C825 1.495 . S
C822 C821 1.392 . S
C822 C823 1.385 . S
C822 C824 1.478 . S
C823 H817 0.930 . S
C823 C819 1.400 . S
C823 C822 1.385 . S
C824 C822 1.478 . S
C824 C826 1.381 . S
C824 C830 1.383 . S
C825 C821 1.495 . S
C825 H831 0.959 . S
C825 H832 0.961 . S
C825 H833 0.960 . S
C826 C824 1.381 . S
C826 C827 1.394 . S
C826 H834 0.930 . S
C827 C826 1.394 . S
C827 C828 1.383 . S
C827 H835 0.929 . S
C828 C827 1.383 . S
C828 C829 1.377 . S
C829 H813 0.930 . S
C829 C828 1.377 . S
C829 C830 1.379 . S
C830 H814 0.931 . S
C830 C824 1.383 . S
C830 C829 1.379 . S
H831 C825 0.959 . S
H832 C825 0.961 . S
H833 C825 0.960 . S
H834 C826 0.930 . S
H835 C827 0.929 . S
H836 C844 0.929 . S
H837 C846 0.930 . S
H838 C848 0.930 . S
H839 C851 0.929 . S
H840 C854 0.930 . S
H841 C856 0.960 . S
H842 C856 0.960 . S
H843 C856 0.960 . S
C844 H836 0.929 . S
C844 C845 1.377 . S
C844 C846 1.384 . S
C845 C844 1.377 . S
C845 C851 1.390 . S
C846 H837 0.930 . S
C846 C844 1.384 . S
C846 C847 1.372 . S
C847 C846 1.372 . S
C847 C848 1.400 . S
C847 C852 1.490 . S
C848 H838 0.930 . S
C848 C847 1.400 . S
C848 C851 1.386 . S
H849 C865 0.930 . S
H850 C866 0.931 . S
C851 H839 0.929 . S
C851 C845 1.390 . S
C851 C848 1.386 . S
C852 C847 1.490 . S
C852 C854 1.395 . S
C852 C855 1.403 . S
H853 C859 0.930 . S
C854 H840 0.930 . S
C854 C852 1.395 . S
C854 C857 1.403 . S
C855 C852 1.403 . S
C855 C856 1.524 . S
C855 C859 1.400 . S
C856 H841 0.960 . S
C856 H842 0.960 . S
C856 H843 0.960 . S
C856 C855 1.524 . S
C857 C854 1.403 . S
C857 C858 1.392 . S
C857 C861 1.495 . S
C858 C857 1.392 . S
C858 C859 1.385 . S
C858 C860 1.478 . S
C859 H853 0.930 . S
C859 C855 1.400 . S
C859 C858 1.385 . S
C860 C858 1.478 . S
C860 C862 1.381 . S
C860 C866 1.383 . S
C861 C857 1.495 . S
C861 H867 0.959 . S
C861 H868 0.961 . S
C861 H869 0.960 . S
C862 C860 1.381 . S
C862 C863 1.394 . S
C862 H870 0.930 . S
C863 C862 1.394 . S
C863 C864 1.383 . S
C863 H871 0.929 . S
C864 C863 1.383 . S
C864 C865 1.377 . S
C865 H849 0.930 . S
C865 C864 1.377 . S
C865 C866 1.379 . S
C866 H850 0.931 . S
C866 C860 1.383 . S
C866 C865 1.379 . S
H867 C861 0.959 . S
H868 C861 0.961 . S
H869 C861 0.960 . S
H870 C862 0.930 . S
H871 C863 0.929 . S
H872 C880 0.929 . S
H873 C882 0.930 . S
H874 C884 0.930 . S
H875 C887 0.929 . S
H876 C890 0.930 . S
H877 C892 0.960 . S
H878 C892 0.960 . S
H879 C892 0.960 . S
C880 H872 0.929 . S
C880 C881 1.377 . S
C880 C882 1.384 . S
C881 C880 1.377 . S
C881 C887 1.390 . S
C882 H873 0.930 . S
C882 C880 1.384 . S
C882 C883 1.372 . S
C883 C882 1.372 . S
C883 C884 1.400 . S
C883 C888 1.490 . S
C884 H874 0.930 . S
C884 C883 1.400 . S
C884 C887 1.386 . S
H885 C901 0.930 . S
H886 C902 0.931 . S
C887 H875 0.929 . S
C887 C881 1.390 . S
C887 C884 1.386 . S
C888 C883 1.490 . S
C888 C890 1.395 . S
C888 C891 1.403 . S
H889 C895 0.930 . S
C890 H876 0.930 . S
C890 C888 1.395 . S
C890 C893 1.403 . S
C891 C888 1.403 . S
C891 C892 1.524 . S
C891 C895 1.400 . S
C892 H877 0.960 . S
C892 H878 0.960 . S
C892 H879 0.960 . S
C892 C891 1.524 . S
C893 C890 1.403 . S
C893 C894 1.392 . S
C893 C897 1.495 . S
C894 C893 1.392 . S
C894 C895 1.385 . S
C894 C896 1.478 . S
C895 H889 0.930 . S
C895 C891 1.400 . S
C895 C894 1.385 . S
C896 C894 1.478 . S
C896 C898 1.381 . S
C896 C902 1.383 . S
C897 C893 1.495 . S
C897 H903 0.959 . S
C897 H904 0.961 . S
C897 H905 0.960 . S
C898 C896 1.381 . S
C898 C899 1.394 . S
C898 H906 0.930 . S
C899 C898 1.394 . S
C899 C900 1.383 . S
C899 H907 0.929 . S
C900 C899 1.383 . S
C900 C901 1.377 . S
C901 H885 0.930 . S
C901 C900 1.377 . S
C901 C902 1.379 . S
C902 H886 0.931 . S
C902 C896 1.383 . S
C902 C901 1.379 . S
H903 C897 0.959 . S
H904 C897 0.961 . S
H905 C897 0.960 . S
H906 C898 0.930 . S
H907 C899 0.929 . S
H908 C916 0.939 . S
H909 C918 0.930 . S
H910 C920 0.930 . S
H911 C923 0.929 . S
H912 C926 0.930 . S
H913 C928 0.960 . S
H914 C928 0.960 . S
H915 C928 0.960 . S
C916 H908 0.939 . S
C916 C917 1.377 . S
C916 C918 1.384 1_545 S
C917 C916 1.377 . S
C917 C923 1.390 . S
C918 H909 0.930 . S
C918 C916 1.384 1_565 S
C918 C919 1.372 . S
C919 C918 1.372 . S
C919 C920 1.400 1_565 S
C919 C924 1.490 . S
C920 H910 0.930 . S
C920 C919 1.400 1_545 S
C920 C923 1.386 . S
H921 C937 0.930 . S
H922 C938 0.931 . S
C923 H911 0.929 . S
C923 C917 1.390 . S
C923 C920 1.386 . S
C924 C919 1.490 . S
C924 C926 1.395 . S
C924 C927 1.403 . S
H925 C931 0.930 . S
C926 H912 0.930 . S
C926 C924 1.395 . S
C926 C929 1.403 . S
C927 C924 1.403 . S
C927 C928 1.524 . S
C927 C931 1.400 . S
C928 H913 0.960 . S
C928 H914 0.960 . S
C928 H915 0.960 . S
C928 C927 1.524 . S
C929 C926 1.403 . S
C929 C930 1.392 . S
C929 C933 1.495 . S
C930 C929 1.392 . S
C930 C931 1.385 . S
C930 C932 1.478 . S
C931 H925 0.930 . S
C931 C927 1.400 . S
C931 C930 1.385 . S
C932 C930 1.478 . S
C932 C934 1.381 . S
C932 C938 1.383 . S
C933 C929 1.495 . S
C933 H939 0.959 . S
C933 H940 0.961 . S
C933 H941 0.960 . S
C934 C932 1.381 . S
C934 C935 1.394 . S
C934 H942 0.930 . S
C935 C934 1.394 . S
C935 C936 1.383 . S
C935 H943 0.929 . S
C936 C935 1.383 . S
C936 C937 1.377 . S
C937 H921 0.930 . S
C937 C936 1.377 . S
C937 C938 1.379 . S
C938 H922 0.931 . S
C938 C932 1.383 . S
C938 C937 1.379 . S
H939 C933 0.959 . S
H940 C933 0.961 . S
H941 C933 0.960 . S
H942 C934 0.930 . S
H943 C935 0.929 . S
H944 C952 0.929 . S
H945 C954 0.930 . S
H946 C956 0.930 . S
H947 C959 0.929 . S
H948 C962 0.930 . S
H949 C964 0.960 . S
H950 C964 0.960 . S
H951 C964 0.960 . S
C952 H944 0.929 . S
C952 C953 1.377 . S
C952 C954 1.384 . S
C953 C952 1.377 . S
C953 C959 1.390 . S
C954 H945 0.930 . S
C954 C952 1.384 . S
C954 C955 1.372 . S
C955 C954 1.372 . S
C955 C956 1.400 . S
C955 C960 1.490 . S
C956 H946 0.930 . S
C956 C955 1.400 . S
C956 C959 1.386 . S
H957 C973 0.930 . S
H958 C974 0.931 . S
C959 H947 0.929 . S
C959 C953 1.390 . S
C959 C956 1.386 . S
C960 C955 1.490 . S
C960 C962 1.395 . S
C960 C963 1.403 . S
H961 C967 0.930 . S
C962 H948 0.930 . S
C962 C960 1.395 . S
C962 C965 1.403 . S
C963 C960 1.403 . S
C963 C964 1.524 . S
C963 C967 1.400 . S
C964 H949 0.960 . S
C964 H950 0.960 . S
C964 H951 0.960 . S
C964 C963 1.524 . S
C965 C962 1.403 . S
C965 C966 1.392 . S
C965 C969 1.495 . S
C966 C965 1.392 . S
C966 C967 1.385 . S
C966 C968 1.478 . S
C967 H961 0.930 . S
C967 C963 1.400 . S
C967 C966 1.385 . S
C968 C966 1.478 . S
C968 C970 1.381 . S
C968 C974 1.383 . S
C969 C965 1.495 . S
C969 H975 0.959 . S
C969 H976 0.961 . S
C969 H977 0.960 . S
C970 C968 1.381 . S
C970 C971 1.394 . S
C970 H978 0.930 . S
C971 C970 1.394 . S
C971 C972 1.383 . S
C971 H979 0.929 . S
C972 C971 1.383 . S
C972 C973 1.377 . S
C973 H957 0.930 . S
C973 C972 1.377 . S
C973 C974 1.379 . S
C974 H958 0.931 . S
C974 C968 1.383 . S
C974 C973 1.379 . S
H975 C969 0.959 . S
H976 C969 0.961 . S
H977 C969 0.960 . S
H978 C970 0.930 . S
H979 C971 0.929 . S
H980 C988 0.929 . S
H981 C990 0.930 . S
H982 C992 0.930 . S
H983 C995 0.929 . S
H984 C998 0.930 . S
H985 C1000 0.960 . S
H986 C1000 0.960 . S
H987 C1000 0.960 . S
C988 H980 0.929 . S
C988 C989 1.377 . S
C988 C990 1.384 . S
C989 C988 1.377 . S
C989 C995 1.390 . S
C990 H981 0.930 . S
C990 C988 1.384 . S
C990 C991 1.372 . S
C991 C990 1.372 . S
C991 C992 1.400 . S
C991 C996 1.490 . S
C992 H982 0.930 . S
C992 C991 1.400 . S
C992 C995 1.386 . S
H993 C1009 0.930 . S
H994 C1010 0.931 . S
C995 H983 0.929 . S
C995 C989 1.390 . S
C995 C992 1.386 . S
C996 C991 1.490 . S
C996 C998 1.395 . S
C996 C999 1.403 . S
H997 C1003 0.930 . S
C998 H984 0.930 . S
C998 C996 1.395 . S
C998 C1001 1.403 . S
C999 C996 1.403 . S
C999 C1000 1.524 . S
C999 C1003 1.400 . S
C1000 H985 0.960 . S
C1000 H986 0.960 . S
C1000 H987 0.960 . S
C1000 C999 1.524 . S
C1001 C998 1.403 . S
C1001 C1002 1.392 . S
C1001 C1005 1.495 . S
C1002 C1001 1.392 . S
C1002 C1003 1.385 . S
C1002 C1004 1.478 . S
C1003 H997 0.930 . S
C1003 C999 1.400 . S
C1003 C1002 1.385 . S
C1004 C1002 1.478 . S
C1004 C1006 1.381 . S
C1004 C1010 1.383 . S
C1005 C1001 1.495 . S
C1005 H1011 0.959 . S
C1005 H1012 0.961 . S
C1005 H1013 0.960 . S
C1006 C1004 1.381 . S
C1006 C1007 1.394 . S
C1006 H1014 0.930 . S
C1007 C1006 1.394 . S
C1007 C1008 1.383 . S
C1007 H1015 0.929 . S
C1008 C1007 1.383 . S
C1008 C1009 1.377 . S
C1009 H993 0.930 . S
C1009 C1008 1.377 . S
C1009 C1010 1.379 . S
C1010 H994 0.931 . S
C1010 C1004 1.383 . S
C1010 C1009 1.379 . S
H1011 C1005 0.959 . S
H1012 C1005 0.961 . S
H1013 C1005 0.960 . S
H1014 C1006 0.930 . S
H1015 C1007 0.929 . S
H1016 C1024 0.929 . S
H1017 C1026 0.930 . S
H1018 C1028 0.930 . S
H1019 C1031 0.929 . S
H1020 C1034 0.930 . S
H1021 C1036 0.960 . S
H1022 C1036 0.960 . S
H1023 C1036 0.960 . S
C1024 H1016 0.929 . S
C1024 C1025 1.377 . S
C1024 C1026 1.384 . S
C1025 C1024 1.377 . S
C1025 C1031 1.390 . S
C1026 H1017 0.930 . S
C1026 C1024 1.384 . S
C1026 C1027 1.372 . S
C1027 C1026 1.372 . S
C1027 C1028 1.400 . S
C1027 C1032 1.490 . S
C1028 H1018 0.930 . S
C1028 C1027 1.400 . S
C1028 C1031 1.386 . S
H1029 C1045 0.930 . S
H1030 C1046 0.931 . S
C1031 H1019 0.929 . S
C1031 C1025 1.390 . S
C1031 C1028 1.386 . S
C1032 C1027 1.490 . S
C1032 C1034 1.395 . S
C1032 C1035 1.403 . S
H1033 C1039 0.930 . S
C1034 H1020 0.930 . S
C1034 C1032 1.395 . S
C1034 C1037 1.403 . S
C1035 C1032 1.403 . S
C1035 C1036 1.524 . S
C1035 C1039 1.400 . S
C1036 H1021 0.960 . S
C1036 H1022 0.960 . S
C1036 H1023 0.960 . S
C1036 C1035 1.524 . S
C1037 C1034 1.403 . S
C1037 C1038 1.392 . S
C1037 C1041 1.495 . S
C1038 C1037 1.392 . S
C1038 C1039 1.385 . S
C1038 C1040 1.478 . S
C1039 H1033 0.930 . S
C1039 C1035 1.400 . S
C1039 C1038 1.385 . S
C1040 C1038 1.478 . S
C1040 C1042 1.381 . S
C1040 C1046 1.383 . S
C1041 C1037 1.495 . S
C1041 H1047 0.959 . S
C1041 H1048 0.961 . S
C1041 H1049 0.960 . S
C1042 C1040 1.381 . S
C1042 C1043 1.394 . S
C1042 H1050 0.930 . S
C1043 C1042 1.394 . S
C1043 C1044 1.383 . S
C1043 H1051 0.929 . S
C1044 C1043 1.383 . S
C1044 C1045 1.377 . S
C1045 H1029 0.930 . S
C1045 C1044 1.377 . S
C1045 C1046 1.379 . S
C1046 H1030 0.931 . S
C1046 C1040 1.383 . S
C1046 C1045 1.379 . S
H1047 C1041 0.959 . S
H1048 C1041 0.961 . S
H1049 C1041 0.960 . S
H1050 C1042 0.930 . S
H1051 C1043 0.929 . S
H1052 C1060 0.929 . S
H1053 C1062 0.930 . S
H1054 C1064 0.930 . S
H1055 C1067 0.929 . S
H1056 C1070 0.930 . S
H1057 C1072 0.960 . S
H1058 C1072 0.960 . S
H1059 C1072 0.960 . S
C1060 H1052 0.929 . S
C1060 C1061 1.377 . S
C1060 C1062 1.384 . S
C1061 C1060 1.377 . S
C1061 C1067 1.390 . S
C1062 H1053 0.930 . S
C1062 C1060 1.384 . S
C1062 C1063 1.372 . S
C1063 C1062 1.372 . S
C1063 C1064 1.400 . S
C1063 C1068 1.490 . S
C1064 H1054 0.930 . S
C1064 C1063 1.400 . S
C1064 C1067 1.386 . S
H1065 C1081 0.930 . S
H1066 C1082 0.931 . S
C1067 H1055 0.929 . S
C1067 C1061 1.390 . S
C1067 C1064 1.386 . S
C1068 C1063 1.490 . S
C1068 C1070 1.395 . S
C1068 C1071 1.403 . S
H1069 C1075 0.930 . S
C1070 H1056 0.930 . S
C1070 C1068 1.395 . S
C1070 C1073 1.403 . S
C1071 C1068 1.403 . S
C1071 C1072 1.524 . S
C1071 C1075 1.400 . S
C1072 H1057 0.960 . S
C1072 H1058 0.960 . S
C1072 H1059 0.960 . S
C1072 C1071 1.524 . S
C1073 C1070 1.403 . S
C1073 C1074 1.392 . S
C1073 C1077 1.495 . S
C1074 C1073 1.392 . S
C1074 C1075 1.385 . S
C1074 C1076 1.478 . S
C1075 H1069 0.930 . S
C1075 C1071 1.400 . S
C1075 C1074 1.385 . S
C1076 C1074 1.478 . S
C1076 C1078 1.381 . S
C1076 C1082 1.383 . S
C1077 C1073 1.495 . S
C1077 H1083 0.959 . S
C1077 H1084 0.961 . S
C1077 H1085 0.960 . S
C1078 C1076 1.381 . S
C1078 C1079 1.394 . S
C1078 H1086 0.930 . S
C1079 C1078 1.394 . S
C1079 C1080 1.383 . S
C1079 H1087 0.929 . S
C1080 C1079 1.383 . S
C1080 C1081 1.377 . S
C1081 H1065 0.930 . S
C1081 C1080 1.377 . S
C1081 C1082 1.379 . S
C1082 H1066 0.931 . S
C1082 C1076 1.383 . S
C1082 C1081 1.379 . S
H1083 C1077 0.959 . S
H1084 C1077 0.961 . S
H1085 C1077 0.960 . S
H1086 C1078 0.930 . S
H1087 C1079 0.929 . S
H1088 C1096 0.929 . S
H1089 C1098 0.930 . S
H1090 C1100 0.930 . S
H1091 C1103 0.929 . S
H1092 C1106 0.930 . S
H1093 C1108 0.960 . S
H1094 C1108 0.960 . S
H1095 C1108 0.960 . S
C1096 H1088 0.929 . S
C1096 C1097 1.377 . S
C1096 C1098 1.384 . S
C1097 C1096 1.377 . S
C1097 C1103 1.390 . S
C1098 H1089 0.930 . S
C1098 C1096 1.384 . S
C1098 C1099 1.372 . S
C1099 C1098 1.372 . S
C1099 C1100 1.400 . S
C1099 C1104 1.490 . S
C1100 H1090 0.930 . S
C1100 C1099 1.400 . S
C1100 C1103 1.386 . S
H1101 C1117 0.930 . S
H1102 C1118 0.931 . S
C1103 H1091 0.929 . S
C1103 C1097 1.390 . S
C1103 C1100 1.386 . S
C1104 C1099 1.490 . S
C1104 C1106 1.395 . S
C1104 C1107 1.403 . S
H1105 C1111 0.930 . S
C1106 H1092 0.930 . S
C1106 C1104 1.395 . S
C1106 C1109 1.403 . S
C1107 C1104 1.403 . S
C1107 C1108 1.524 . S
C1107 C1111 1.400 . S
C1108 H1093 0.960 . S
C1108 H1094 0.960 . S
C1108 H1095 0.960 . S
C1108 C1107 1.524 . S
C1109 C1106 1.403 . S
C1109 C1110 1.392 . S
C1109 C1113 1.495 . S
C1110 C1109 1.392 . S
C1110 C1111 1.385 . S
C1110 C1112 1.478 . S
C1111 H1105 0.930 . S
C1111 C1107 1.400 . S
C1111 C1110 1.385 . S
C1112 C1110 1.478 . S
C1112 C1114 1.381 . S
C1112 C1118 1.383 . S
C1113 C1109 1.495 . S
C1113 H1119 0.959 . S
C1113 H1120 0.961 . S
C1113 H1121 0.960 . S
C1114 C1112 1.381 . S
C1114 C1115 1.394 . S
C1114 H1122 0.930 . S
C1115 C1114 1.394 . S
C1115 C1116 1.383 . S
C1115 H1123 0.929 . S
C1116 C1115 1.383 . S
C1116 C1117 1.377 . S
C1117 H1101 0.930 . S
C1117 C1116 1.377 . S
C1117 C1118 1.379 . S
C1118 H1102 0.931 . S
C1118 C1112 1.383 . S
C1118 C1117 1.379 . S
H1119 C1113 0.959 . S
H1120 C1113 0.961 . S
H1121 C1113 0.960 . S
H1122 C1114 0.930 . S
H1123 C1115 0.929 . S
H1124 C1132 0.929 . S
H1125 C1134 0.930 . S
H1126 C1136 0.930 . S
H1127 C1139 0.929 . S
H1128 C1142 0.930 . S
H1129 C1144 0.960 . S
H1130 C1144 0.960 . S
H1131 C1144 0.960 . S
C1132 H1124 0.929 . S
C1132 C1133 1.377 . S
C1132 C1134 1.384 . S
C1133 C1132 1.377 . S
C1133 C1139 1.390 . S
C1134 H1125 0.930 . S
C1134 C1132 1.384 . S
C1134 C1135 1.372 . S
C1135 C1134 1.372 . S
C1135 C1136 1.400 . S
C1135 C1140 1.490 . S
C1136 H1126 0.930 . S
C1136 C1135 1.400 . S
C1136 C1139 1.386 . S
H1137 C1153 0.930 . S
H1138 C1154 0.931 . S
C1139 H1127 0.929 . S
C1139 C1133 1.390 . S
C1139 C1136 1.386 . S
C1140 C1135 1.490 . S
C1140 C1142 1.395 . S
C1140 C1143 1.403 . S
H1141 C1147 0.930 . S
C1142 H1128 0.930 . S
C1142 C1140 1.395 . S
C1142 C1145 1.403 . S
C1143 C1140 1.403 . S
C1143 C1144 1.524 . S
C1143 C1147 1.400 . S
C1144 H1129 0.960 . S
C1144 H1130 0.960 . S
C1144 H1131 0.960 . S
C1144 C1143 1.524 . S
C1145 C1142 1.403 . S
C1145 C1146 1.392 . S
C1145 C1149 1.495 . S
C1146 C1145 1.392 . S
C1146 C1147 1.385 . S
C1146 C1148 1.478 . S
C1147 H1141 0.930 . S
C1147 C1143 1.400 . S
C1147 C1146 1.385 . S
C1148 C1146 1.478 . S
C1148 C1150 1.381 . S
C1148 C1154 1.383 . S
C1149 C1145 1.495 . S
C1149 H1155 0.959 . S
C1149 H1156 0.961 . S
C1149 H1157 0.960 . S
C1150 C1148 1.381 . S
C1150 C1151 1.394 . S
C1150 H1158 0.930 . S
C1151 C1150 1.394 . S
C1151 C1152 1.383 . S
C1151 H1159 0.929 . S
C1152 C1151 1.383 . S
C1152 C1153 1.377 . S
C1153 H1137 0.930 . S
C1153 C1152 1.377 . S
C1153 C1154 1.379 . S
C1154 H1138 0.931 . S
C1154 C1148 1.383 . S
C1154 C1153 1.379 . S
H1155 C1149 0.959 . S
H1156 C1149 0.961 . S
H1157 C1149 0.960 . S
H1158 C1150 0.930 . S
H1159 C1151 0.929 . S
H1160 C1168 0.929 . S
H1161 C1170 0.930 . S
H1162 C1172 0.930 . S
H1163 C1175 0.929 . S
H1164 C1178 0.930 . S
H1165 C1180 0.960 . S
H1166 C1180 0.960 . S
H1167 C1180 0.960 . S
C1168 H1160 0.929 . S
C1168 C1169 1.377 . S
C1168 C1170 1.384 . S
C1169 C1168 1.377 . S
C1169 C1175 1.390 . S
C1170 H1161 0.930 . S
C1170 C1168 1.384 . S
C1170 C1171 1.372 . S
C1171 C1170 1.372 . S
C1171 C1172 1.400 . S
C1171 C1176 1.490 . S
C1172 H1162 0.930 . S
C1172 C1171 1.400 . S
C1172 C1175 1.386 . S
H1173 C1189 0.930 . S
H1174 C1190 0.931 . S
C1175 H1163 0.929 . S
C1175 C1169 1.390 . S
C1175 C1172 1.386 . S
C1176 C1171 1.490 . S
C1176 C1178 1.395 . S
C1176 C1179 1.403 . S
H1177 C1183 0.930 . S
C1178 H1164 0.930 . S
C1178 C1176 1.395 . S
C1178 C1181 1.403 . S
C1179 C1176 1.403 . S
C1179 C1180 1.524 . S
C1179 C1183 1.400 . S
C1180 H1165 0.960 . S
C1180 H1166 0.960 . S
C1180 H1167 0.960 . S
C1180 C1179 1.524 . S
C1181 C1178 1.403 . S
C1181 C1182 1.392 . S
C1181 C1185 1.495 . S
C1182 C1181 1.392 . S
C1182 C1183 1.385 . S
C1182 C1184 1.478 . S
C1183 H1177 0.930 . S
C1183 C1179 1.400 . S
C1183 C1182 1.385 . S
C1184 C1182 1.478 . S
C1184 C1186 1.381 . S
C1184 C1190 1.383 . S
C1185 C1181 1.495 . S
C1185 H1191 0.959 . S
C1185 H1192 0.961 . S
C1185 H1193 0.960 . S
C1186 C1184 1.381 . S
C1186 C1187 1.394 . S
C1186 H1194 0.930 . S
C1187 C1186 1.394 . S
C1187 C1188 1.383 . S
C1187 H1195 0.929 . S
C1188 C1187 1.383 . S
C1188 C1189 1.377 . S
C1189 H1173 0.930 . S
C1189 C1188 1.377 . S
C1189 C1190 1.379 . S
C1190 H1174 0.931 . S
C1190 C1184 1.383 . S
C1190 C1189 1.379 . S
H1191 C1185 0.959 . S
H1192 C1185 0.961 . S
H1193 C1185 0.960 . S
H1194 C1186 0.930 . S
H1195 C1187 0.929 . S
H1196 C1204 0.929 . S
H1197 C1206 0.930 . S
H1198 C1208 0.930 . S
H1199 C1211 0.929 . S
H1200 C1214 0.930 . S
H1201 C1216 0.960 . S
H1202 C1216 0.960 . S
H1203 C1216 0.960 . S
C1204 H1196 0.929 . S
C1204 C1205 1.377 . S
C1204 C1206 1.384 . S
C1205 C1204 1.377 . S
C1205 C1211 1.390 . S
C1206 H1197 0.930 . S
C1206 C1204 1.384 . S
C1206 C1207 1.372 . S
C1207 C1206 1.372 . S
C1207 C1208 1.400 . S
C1207 C1212 1.490 . S
C1208 H1198 0.930 . S
C1208 C1207 1.400 . S
C1208 C1211 1.386 . S
H1209 C1225 0.930 . S
H1210 C1226 0.931 . S
C1211 H1199 0.929 . S
C1211 C1205 1.390 . S
C1211 C1208 1.386 . S
C1212 C1207 1.490 . S
C1212 C1214 1.395 . S
C1212 C1215 1.403 . S
H1213 C1219 0.930 . S
C1214 H1200 0.930 . S
C1214 C1212 1.395 . S
C1214 C1217 1.403 . S
C1215 C1212 1.403 . S
C1215 C1216 1.524 . S
C1215 C1219 1.400 . S
C1216 H1201 0.960 . S
C1216 H1202 0.960 . S
C1216 H1203 0.960 . S
C1216 C1215 1.524 . S
C1217 C1214 1.403 . S
C1217 C1218 1.392 . S
C1217 C1221 1.495 . S
C1218 C1217 1.392 . S
C1218 C1219 1.385 . S
C1218 C1220 1.478 . S
C1219 H1213 0.930 . S
C1219 C1215 1.400 . S
C1219 C1218 1.385 . S
C1220 C1218 1.478 . S
C1220 C1222 1.381 . S
C1220 C1226 1.383 . S
C1221 C1217 1.495 . S
C1221 H1227 0.959 . S
C1221 H1228 0.961 . S
C1221 H1229 0.960 . S
C1222 C1220 1.381 . S
C1222 C1223 1.394 . S
C1222 H1230 0.930 . S
C1223 C1222 1.394 . S
C1223 C1224 1.383 . S
C1223 H1231 0.929 . S
C1224 C1223 1.383 . S
C1224 C1225 1.377 . S
C1225 H1209 0.930 . S
C1225 C1224 1.377 . S
C1225 C1226 1.379 . S
C1226 H1210 0.931 . S
C1226 C1220 1.383 . S
C1226 C1225 1.379 . S
H1227 C1221 0.959 . S
H1228 C1221 0.961 . S
H1229 C1221 0.960 . S
H1230 C1222 0.930 . S
H1231 C1223 0.929 . S
H1232 C1240 0.929 . S
H1233 C1242 0.930 . S
H1234 C1244 0.930 . S
H1235 C1247 0.929 . S
H1236 C1250 0.930 . S
H1237 C1252 0.960 . S
H1238 C1252 0.960 . S
H1239 C1252 0.960 . S
C1240 H1232 0.929 . S
C1240 C1241 1.377 . S
C1240 C1242 1.384 . S
C1241 C1240 1.377 . S
C1241 C1247 1.390 . S
C1242 H1233 0.930 . S
C1242 C1240 1.384 . S
C1242 C1243 1.372 . S
C1243 C1242 1.372 . S
C1243 C1244 1.400 . S
C1243 C1248 1.490 . S
C1244 H1234 0.930 . S
C1244 C1243 1.400 . S
C1244 C1247 1.386 . S
H1245 C1261 0.930 . S
H1246 C1262 0.931 . S
C1247 H1235 0.929 . S
C1247 C1241 1.390 . S
C1247 C1244 1.386 . S
C1248 C1243 1.490 . S
C1248 C1250 1.395 . S
C1248 C1251 1.403 . S
H1249 C1255 0.930 . S
C1250 H1236 0.930 . S
C1250 C1248 1.395 . S
C1250 C1253 1.403 . S
C1251 C1248 1.403 . S
C1251 C1252 1.524 . S
C1251 C1255 1.400 . S
C1252 H1237 0.960 . S
C1252 H1238 0.960 . S
C1252 H1239 0.960 . S
C1252 C1251 1.524 . S
C1253 C1250 1.403 . S
C1253 C1254 1.392 . S
C1253 C1257 1.495 . S
C1254 C1253 1.392 . S
C1254 C1255 1.385 . S
C1254 C1256 1.478 . S
C1255 H1249 0.930 . S
C1255 C1251 1.400 . S
C1255 C1254 1.385 . S
C1256 C1254 1.478 . S
C1256 C1258 1.381 . S
C1256 C1262 1.383 . S
C1257 C1253 1.495 . S
C1257 H1263 0.959 . S
C1257 H1264 0.961 . S
C1257 H1265 0.960 . S
C1258 C1256 1.381 . S
C1258 C1259 1.394 . S
C1258 H1266 0.930 . S
C1259 C1258 1.394 . S
C1259 C1260 1.383 . S
C1259 H1267 0.929 . S
C1260 C1259 1.383 . S
C1260 C1261 1.377 . S
C1261 H1245 0.930 . S
C1261 C1260 1.377 . S
C1261 C1262 1.379 . S
C1262 H1246 0.931 . S
C1262 C1256 1.383 . S
C1262 C1261 1.379 . S
H1263 C1257 0.959 . S
H1264 C1257 0.961 . S
H1265 C1257 0.960 . S
H1266 C1258 0.930 . S
H1267 C1259 0.929 . S
H1268 C1276 0.929 . S
H1269 C1278 0.930 . S
H1270 C1280 0.930 . S
H1271 C1283 0.929 . S
H1272 C1286 0.930 . S
H1273 C1288 0.960 . S
H1274 C1288 0.960 . S
H1275 C1288 0.960 . S
C1276 H1268 0.929 . S
C1276 C1277 1.377 . S
C1276 C1278 1.384 . S
C1277 C1276 1.377 . S
C1277 C1283 1.390 . S
C1278 H1269 0.930 . S
C1278 C1276 1.384 . S
C1278 C1279 1.372 . S
C1279 C1278 1.372 . S
C1279 C1280 1.400 . S
C1279 C1284 1.490 . S
C1280 H1270 0.930 . S
C1280 C1279 1.400 . S
C1280 C1283 1.386 . S
H1281 C1297 0.930 . S
H1282 C1298 0.931 . S
C1283 H1271 0.929 . S
C1283 C1277 1.390 . S
C1283 C1280 1.386 . S
C1284 C1279 1.490 . S
C1284 C1286 1.395 . S
C1284 C1287 1.403 . S
H1285 C1291 0.930 . S
C1286 H1272 0.930 . S
C1286 C1284 1.395 . S
C1286 C1289 1.403 . S
C1287 C1284 1.403 . S
C1287 C1288 1.524 . S
C1287 C1291 1.400 . S
C1288 H1273 0.960 . S
C1288 H1274 0.960 . S
C1288 H1275 0.960 . S
C1288 C1287 1.524 . S
C1289 C1286 1.403 . S
C1289 C1290 1.392 . S
C1289 C1293 1.495 . S
C1290 C1289 1.392 . S
C1290 C1291 1.385 . S
C1290 C1292 1.478 . S
C1291 H1285 0.930 . S
C1291 C1287 1.400 . S
C1291 C1290 1.385 . S
C1292 C1290 1.478 . S
C1292 C1294 1.381 . S
C1292 C1298 1.383 . S
C1293 C1289 1.495 . S
C1293 H1299 0.959 . S
C1293 H1300 0.961 . S
C1293 H1301 0.960 . S
C1294 C1292 1.381 . S
C1294 C1295 1.394 . S
C1294 H1302 0.930 . S
C1295 C1294 1.394 . S
C1295 C1296 1.383 . S
C1295 H1303 0.929 . S
C1296 C1295 1.383 . S
C1296 C1297 1.377 . S
C1297 H1281 0.930 . S
C1297 C1296 1.377 . S
C1297 C1298 1.379 . S
C1298 H1282 0.931 . S
C1298 C1292 1.383 . S
C1298 C1297 1.379 . S
H1299 C1293 0.959 . S
H1300 C1293 0.961 . S
H1301 C1293 0.960 . S
H1302 C1294 0.930 . S
H1303 C1295 0.929 . S
H1304 C1312 0.929 . S
H1305 C1314 0.930 . S
H1306 C1316 0.930 . S
H1307 C1319 0.929 . S
H1308 C1322 0.930 . S
H1309 C1324 0.960 . S
H1310 C1324 0.960 . S
H1311 C1324 0.960 . S
C1312 H1304 0.929 . S
C1312 C1313 1.377 . S
C1312 C1314 1.384 . S
C1313 C1312 1.377 . S
C1313 C1319 1.390 . S
C1314 H1305 0.930 . S
C1314 C1312 1.384 . S
C1314 C1315 1.372 . S
C1315 C1314 1.372 . S
C1315 C1316 1.400 . S
C1315 C1320 1.490 . S
C1316 H1306 0.930 . S
C1316 C1315 1.400 . S
C1316 C1319 1.386 . S
H1317 C1333 0.930 . S
H1318 C1334 0.931 . S
C1319 H1307 0.929 . S
C1319 C1313 1.390 . S
C1319 C1316 1.386 . S
C1320 C1315 1.490 . S
C1320 C1322 1.395 . S
C1320 C1323 1.403 . S
H1321 C1327 0.930 . S
C1322 H1308 0.930 . S
C1322 C1320 1.395 . S
C1322 C1325 1.403 . S
C1323 C1320 1.403 . S
C1323 C1324 1.524 . S
C1323 C1327 1.400 . S
C1324 H1309 0.960 . S
C1324 H1310 0.960 . S
C1324 H1311 0.960 . S
C1324 C1323 1.524 . S
C1325 C1322 1.403 . S
C1325 C1326 1.392 . S
C1325 C1329 1.495 . S
C1326 C1325 1.392 . S
C1326 C1327 1.385 . S
C1326 C1328 1.478 . S
C1327 H1321 0.930 . S
C1327 C1323 1.400 . S
C1327 C1326 1.385 . S
C1328 C1326 1.478 . S
C1328 C1330 1.381 . S
C1328 C1334 1.383 . S
C1329 C1325 1.495 . S
C1329 H1335 0.959 . S
C1329 H1336 0.961 . S
C1329 H1337 0.960 . S
C1330 C1328 1.381 . S
C1330 C1331 1.394 . S
C1330 H1338 0.930 . S
C1331 C1330 1.394 . S
C1331 C1332 1.383 . S
C1331 H1339 0.929 . S
C1332 C1331 1.383 . S
C1332 C1333 1.377 . S
C1333 H1317 0.930 . S
C1333 C1332 1.377 . S
C1333 C1334 1.379 . S
C1334 H1318 0.931 . S
C1334 C1328 1.383 . S
C1334 C1333 1.379 . S
H1335 C1329 0.959 . S
H1336 C1329 0.961 . S
H1337 C1329 0.960 . S
H1338 C1330 0.930 . S
H1339 C1331 0.929 . S
H1340 C1348 0.929 . S
H1341 C1350 0.930 . S
H1342 C1352 0.930 . S
H1343 C1355 0.929 . S
H1344 C1358 0.930 . S
H1345 C1360 0.960 . S
H1346 C1360 0.960 . S
H1347 C1360 0.960 . S
C1348 H1340 0.929 . S
C1348 C1349 1.377 . S
C1348 C1350 1.384 . S
C1349 C1348 1.377 . S
C1349 C1355 1.390 . S
C1350 H1341 0.930 . S
C1350 C1348 1.384 . S
C1350 C1351 1.372 . S
C1351 C1350 1.372 . S
C1351 C1352 1.400 . S
C1351 C1356 1.490 . S
C1352 H1342 0.930 . S
C1352 C1351 1.400 . S
C1352 C1355 1.386 . S
H1353 C1369 0.930 . S
H1354 C1370 0.931 . S
C1355 H1343 0.929 . S
C1355 C1349 1.390 . S
C1355 C1352 1.386 . S
C1356 C1351 1.490 . S
C1356 C1358 1.395 . S
C1356 C1359 1.403 . S
H1357 C1363 0.930 . S
C1358 H1344 0.930 . S
C1358 C1356 1.395 . S
C1358 C1361 1.403 . S
C1359 C1356 1.403 . S
C1359 C1360 1.524 . S
C1359 C1363 1.400 . S
C1360 H1345 0.960 . S
C1360 H1346 0.960 . S
C1360 H1347 0.960 . S
C1360 C1359 1.524 . S
C1361 C1358 1.403 . S
C1361 C1362 1.392 . S
C1361 C1365 1.495 . S
C1362 C1361 1.392 . S
C1362 C1363 1.385 . S
C1362 C1364 1.478 . S
C1363 H1357 0.930 . S
C1363 C1359 1.400 . S
C1363 C1362 1.385 . S
C1364 C1362 1.478 . S
C1364 C1366 1.381 . S
C1364 C1370 1.383 . S
C1365 C1361 1.495 . S
C1365 H1371 0.959 . S
C1365 H1372 0.961 . S
C1365 H1373 0.960 . S
C1366 C1364 1.381 . S
C1366 C1367 1.394 . S
C1366 H1374 0.930 . S
C1367 C1366 1.394 . S
C1367 C1368 1.383 . S
C1367 H1375 0.929 . S
C1368 C1367 1.383 . S
C1368 C1369 1.377 . S
C1369 H1353 0.930 . S
C1369 C1368 1.377 . S
C1369 C1370 1.379 . S
C1370 H1354 0.931 . S
C1370 C1364 1.383 . S
C1370 C1369 1.379 . S
H1371 C1365 0.959 . S
H1372 C1365 0.961 . S
H1373 C1365 0.960 . S
H1374 C1366 0.930 . S
H1375 C1367 0.929 . S
H1376 C1384 0.929 . S
H1377 C1386 0.930 . S
H1378 C1388 0.930 . S
H1379 C1391 0.929 . S
H1380 C1394 0.930 . S
H1381 C1396 0.960 . S
H1382 C1396 0.960 . S
H1383 C1396 0.960 . S
C1384 H1376 0.929 . S
C1384 C1385 1.377 . S
C1384 C1386 1.384 . S
C1385 C1384 1.377 . S
C1385 C1391 1.390 . S
C1386 H1377 0.930 . S
C1386 C1384 1.384 . S
C1386 C1387 1.372 . S
C1387 C1386 1.372 . S
C1387 C1388 1.400 . S
C1387 C1392 1.490 . S
C1388 H1378 0.930 . S
C1388 C1387 1.400 . S
C1388 C1391 1.386 . S
H1389 C1405 0.930 1_455 S
H1390 C1406 0.931 . S
C1391 H1379 0.929 . S
C1391 C1385 1.390 . S
C1391 C1388 1.386 . S
C1392 C1387 1.490 . S
C1392 C1394 1.395 . S
C1392 C1395 1.403 . S
H1393 C1399 0.930 . S
C1394 H1380 0.930 . S
C1394 C1392 1.395 . S
C1394 C1397 1.403 . S
C1395 C1392 1.403 . S
C1395 C1396 1.524 . S
C1395 C1399 1.400 . S
C1396 H1381 0.960 . S
C1396 H1382 0.960 . S
C1396 H1383 0.960 . S
C1396 C1395 1.524 . S
C1397 C1394 1.403 . S
C1397 C1398 1.392 . S
C1397 C1401 1.495 . S
C1398 C1397 1.392 . S
C1398 C1399 1.385 . S
C1398 C1400 1.478 . S
C1399 H1393 0.930 . S
C1399 C1395 1.400 . S
C1399 C1398 1.385 . S
C1400 C1398 1.478 . S
C1400 C1402 1.381 . S
C1400 C1406 1.383 . S
C1401 C1397 1.495 . S
C1401 H1407 0.959 . S
C1401 H1408 0.961 . S
C1401 H1409 0.960 . S
C1402 C1400 1.381 . S
C1402 C1403 1.394 . S
C1402 H1410 0.930 . S
C1403 C1402 1.394 . S
C1403 C1404 1.383 . S
C1403 H1411 0.929 . S
C1404 C1403 1.383 . S
C1404 C1405 1.377 . S
C1405 H1389 0.930 1_655 S
C1405 C1404 1.377 . S
C1405 C1406 1.379 . S
C1406 H1390 0.931 . S
C1406 C1400 1.383 . S
C1406 C1405 1.379 . S
H1407 C1401 0.959 . S
H1408 C1401 0.961 . S
H1409 C1401 0.960 . S
H1410 C1402 0.930 . S
H1411 C1403 0.929 . S
H1412 C1420 0.929 . S
H1413 C1422 0.930 . S
H1414 C1424 0.930 . S
H1415 C1427 0.929 . S
H1416 C1430 0.930 . S
H1417 C1432 0.960 . S
H1418 C1432 0.960 . S
H1419 C1432 0.960 . S
C1420 H1412 0.929 . S
C1420 C1421 1.377 . S
C1420 C1422 1.384 . S
C1421 C1420 1.377 . S
C1421 C1427 1.390 . S
C1422 H1413 0.930 . S
C1422 C1420 1.384 . S
C1422 C1423 1.372 . S
C1423 C1422 1.372 . S
C1423 C1424 1.400 . S
C1423 C1428 1.490 . S
C1424 H1414 0.930 . S
C1424 C1423 1.400 . S
C1424 C1427 1.386 . S
H1425 C1441 0.930 . S
H1426 C1442 0.931 . S
C1427 H1415 0.929 . S
C1427 C1421 1.390 . S
C1427 C1424 1.386 . S
C1428 C1423 1.490 . S
C1428 C1430 1.395 . S
C1428 C1431 1.403 . S
H1429 C1435 0.930 . S
C1430 H1416 0.930 . S
C1430 C1428 1.395 . S
C1430 C1433 1.403 . S
C1431 C1428 1.403 . S
C1431 C1432 1.524 . S
C1431 C1435 1.400 . S
C1432 H1417 0.960 . S
C1432 H1418 0.960 . S
C1432 H1419 0.960 . S
C1432 C1431 1.524 . S
C1433 C1430 1.403 . S
C1433 C1434 1.392 . S
C1433 C1437 1.495 . S
C1434 C1433 1.392 . S
C1434 C1435 1.385 . S
C1434 C1436 1.478 . S
C1435 H1429 0.930 . S
C1435 C1431 1.400 . S
C1435 C1434 1.385 . S
C1436 C1434 1.478 . S
C1436 C1438 1.381 . S
C1436 C1442 1.383 . S
C1437 C1433 1.495 . S
C1437 H1443 0.959 . S
C1437 H1444 0.961 . S
C1437 H1445 0.960 . S
C1438 C1436 1.381 . S
C1438 C1439 1.394 . S
C1438 H1446 0.930 . S
C1439 C1438 1.394 . S
C1439 C1440 1.383 . S
C1439 H1447 0.929 . S
C1440 C1439 1.383 . S
C1440 C1441 1.377 . S
C1441 H1425 0.930 . S
C1441 C1440 1.377 . S
C1441 C1442 1.379 . S
C1442 H1426 0.931 . S
C1442 C1436 1.383 . S
C1442 C1441 1.379 . S
H1443 C1437 0.959 . S
H1444 C1437 0.961 . S
H1445 C1437 0.960 . S
H1446 C1438 0.930 . S
H1447 C1439 0.929 . S
H1448 C1456 0.929 . S
H1449 C1458 0.930 . S
H1450 C1460 0.930 . S
H1451 C1463 0.929 . S
H1452 C1466 0.930 . S
H1453 C1468 0.960 . S
H1454 C1468 0.960 . S
H1455 C1468 0.960 . S
C1456 H1448 0.929 . S
C1456 C1457 1.377 . S
C1456 C1458 1.384 . S
C1457 C1456 1.377 . S
C1457 C1463 1.390 . S
C1458 H1449 0.930 . S
C1458 C1456 1.384 . S
C1458 C1459 1.372 . S
C1459 C1458 1.372 . S
C1459 C1460 1.400 . S
C1459 C1464 1.490 . S
C1460 H1450 0.930 . S
C1460 C1459 1.400 . S
C1460 C1463 1.386 . S
H1461 C1477 0.930 . S
H1462 C1478 0.931 . S
C1463 H1451 0.929 . S
C1463 C1457 1.390 . S
C1463 C1460 1.386 . S
C1464 C1459 1.490 . S
C1464 C1466 1.395 . S
C1464 C1467 1.403 . S
H1465 C1471 0.930 . S
C1466 H1452 0.930 . S
C1466 C1464 1.395 . S
C1466 C1469 1.403 . S
C1467 C1464 1.403 . S
C1467 C1468 1.524 . S
C1467 C1471 1.400 . S
C1468 H1453 0.960 . S
C1468 H1454 0.960 . S
C1468 H1455 0.960 . S
C1468 C1467 1.524 . S
C1469 C1466 1.403 . S
C1469 C1470 1.392 . S
C1469 C1473 1.495 . S
C1470 C1469 1.392 . S
C1470 C1471 1.385 . S
C1470 C1472 1.478 . S
C1471 H1465 0.930 . S
C1471 C1467 1.400 . S
C1471 C1470 1.385 . S
C1472 C1470 1.478 . S
C1472 C1474 1.381 . S
C1472 C1478 1.383 . S
C1473 C1469 1.495 . S
C1473 H1479 0.959 . S
C1473 H1480 0.961 . S
C1473 H1481 0.960 . S
C1474 C1472 1.381 . S
C1474 C1475 1.394 . S
C1474 H1482 0.930 . S
C1475 C1474 1.394 . S
C1475 C1476 1.383 . S
C1475 H1483 0.929 . S
C1476 C1475 1.383 . S
C1476 C1477 1.377 . S
C1477 H1461 0.930 . S
C1477 C1476 1.377 . S
C1477 C1478 1.379 . S
C1478 H1462 0.931 . S
C1478 C1472 1.383 . S
C1478 C1477 1.379 . S
H1479 C1473 0.959 . S
H1480 C1473 0.961 . S
H1481 C1473 0.960 . S
H1482 C1474 0.930 . S
H1483 C1475 0.929 . S
H1484 C1492 0.929 . S
H1485 C1494 0.930 . S
H1486 C1496 0.930 . S
H1487 C1499 0.929 . S
H1488 C1502 0.930 . S
H1489 C1504 0.960 . S
H1490 C1504 0.960 . S
H1491 C1504 0.960 . S
C1492 H1484 0.929 . S
C1492 C1493 1.377 . S
C1492 C1494 1.384 . S
C1493 C1492 1.377 . S
C1493 C1499 1.390 . S
C1494 H1485 0.930 . S
C1494 C1492 1.384 . S
C1494 C1495 1.372 . S
C1495 C1494 1.372 . S
C1495 C1496 1.400 . S
C1495 C1500 1.490 . S
C1496 H1486 0.930 . S
C1496 C1495 1.400 . S
C1496 C1499 1.386 . S
H1497 C1513 0.930 . S
H1498 C1514 0.931 . S
C1499 H1487 0.929 . S
C1499 C1493 1.390 . S
C1499 C1496 1.386 . S
C1500 C1495 1.490 . S
C1500 C1502 1.395 . S
C1500 C1503 1.403 . S
H1501 C1507 0.930 . S
C1502 H1488 0.930 . S
C1502 C1500 1.395 . S
C1502 C1505 1.403 . S
C1503 C1500 1.403 . S
C1503 C1504 1.524 . S
C1503 C1507 1.400 . S
C1504 H1489 0.960 . S
C1504 H1490 0.960 . S
C1504 H1491 0.960 . S
C1504 C1503 1.524 . S
C1505 C1502 1.403 . S
C1505 C1506 1.392 . S
C1505 C1509 1.495 . S
C1506 C1505 1.392 . S
C1506 C1507 1.385 . S
C1506 C1508 1.478 . S
C1507 H1501 0.930 . S
C1507 C1503 1.400 . S
C1507 C1506 1.385 . S
C1508 C1506 1.478 . S
C1508 C1510 1.381 . S
C1508 C1514 1.383 . S
C1509 C1505 1.495 . S
C1509 H1515 0.959 . S
C1509 H1516 0.961 . S
C1509 H1517 0.960 . S
C1510 C1508 1.381 . S
C1510 C1511 1.394 . S
C1510 H1518 0.930 . S
C1511 C1510 1.394 . S
C1511 C1512 1.383 . S
C1511 H1519 0.929 . S
C1512 C1511 1.383 . S
C1512 C1513 1.377 . S
C1513 H1497 0.930 . S
C1513 C1512 1.377 . S
C1513 C1514 1.379 . S
C1514 H1498 0.931 . S
C1514 C1508 1.383 . S
C1514 C1513 1.379 . S
H1515 C1509 0.959 . S
H1516 C1509 0.961 . S
H1517 C1509 0.960 . S
H1518 C1510 0.930 . S
H1519 C1511 0.929 . S
C665 C242 1.461 . S
C684 C394 1.457 . S
C720 C478 1.459 . S
C701 C301 1.487 . S
C756 C471 1.483 . S
C737 C162 1.449 . S
C773 C221 1.479 . S
C792 C387 1.464 . S
C828 C551 1.471 . S
C809 C82 1.482 . S
C864 C635 1.450 . S
C845 C141 1.461 . S
C881 C2 1.474 . S
C900 C628 1.472 . S
C917 C61 1.456 . S
C936 C544 1.472 . S
C972 C378 1.306 . S
C953 C42 1.499 1_554 S
C1008 C462 1.381 . S
C989 C21 1.528 . S
C1044 C473 1.437 . S
C1025 C122 1.527 1_556 S
C1080 C389 1.444 . S
C1061 C101 1.553 . S
C1116 C557 1.352 . S
C1097 C202 1.521 1_556 S
C1133 C181 1.495 . S
C1152 C641 1.368 . S
C1188 C630 1.432 . S
C1169 C282 1.551 1_554 S
C1205 C261 1.526 . S
C1224 C546 1.415 . S
C1260 C376 1.613 . S
C1241 C15 1.614 . S
C1296 C460 1.604 . S
C1277 C55 1.601 . S
C1313 C95 1.601 . S
C1332 C467 1.578 . S
C1368 C383 1.575 . S
C1349 C135 1.587 . S
C1404 C555 1.623 . S
C1385 C175 1.613 . S
C1421 C215 1.605 . S
C1440 C639 1.606 . S
C1457 C255 1.600 . S
C1476 C646 1.586 . S
C1493 C295 1.590 . S
C1512 C562 1.588 . S
