# Generated by pormake.
# Topology ctn, (3,4)-cn, num edge types: 1
# Building blocks:
#     Node 0, Type 0, BuildingBlock: WUSLED_clean_sbu_0, # of connection points: 3
#     Node 1, Type 0, BuildingBlock: WUSLED_clean_sbu_0, # of connection points: 3
#     Node 2, Type 0, BuildingBlock: WUSLED_clean_sbu_0, # of connection points: 3
#     Node 3, Type 0, BuildingBlock: WUSLED_clean_sbu_0, # of connection points: 3
#     Node 4, Type 0, BuildingBlock: WUSLED_clean_sbu_0, # of connection points: 3
#     Node 5, Type 0, BuildingBlock: WUSLED_clean_sbu_0, # of connection points: 3
#     Node 6, Type 0, BuildingBlock: WUSLED_clean_sbu_0, # of connection points: 3
#     Node 7, Type 0, BuildingBlock: WUSLED_clean_sbu_0, # of connection points: 3
#     Node 8, Type 0, BuildingBlock: WUSLED_clean_sbu_0, # of connection points: 3
#     Node 9, Type 0, BuildingBlock: WUSLED_clean_sbu_0, # of connection points: 3
#     Node 10, Type 0, BuildingBlock: WUSLED_clean_sbu_0, # of connection points: 3
#     Node 11, Type 0, BuildingBlock: WUSLED_clean_sbu_0, # of connection points: 3
#     Node 12, Type 0, BuildingBlock: WUSLED_clean_sbu_0, # of connection points: 3
#     Node 13, Type 0, BuildingBlock: WUSLED_clean_sbu_0, # of connection points: 3
#     Node 14, Type 0, BuildingBlock: WUSLED_clean_sbu_0, # of connection points: 3
#     Node 15, Type 0, BuildingBlock: WUSLED_clean_sbu_0, # of connection points: 3
#     Node 16, Type 1, BuildingBlock: AZAVOO_clean_sbu_0, # of connection points: 4
#     Node 17, Type 1, BuildingBlock: AZAVOO_clean_sbu_0, # of connection points: 4
#     Node 18, Type 1, BuildingBlock: AZAVOO_clean_sbu_0, # of connection points: 4
#     Node 19, Type 1, BuildingBlock: AZAVOO_clean_sbu_0, # of connection points: 4
#     Node 20, Type 1, BuildingBlock: AZAVOO_clean_sbu_0, # of connection points: 4
#     Node 21, Type 1, BuildingBlock: AZAVOO_clean_sbu_0, # of connection points: 4
#     Node 22, Type 1, BuildingBlock: AZAVOO_clean_sbu_0, # of connection points: 4
#     Node 23, Type 1, BuildingBlock: AZAVOO_clean_sbu_0, # of connection points: 4
#     Node 24, Type 1, BuildingBlock: AZAVOO_clean_sbu_0, # of connection points: 4
#     Node 25, Type 1, BuildingBlock: AZAVOO_clean_sbu_0, # of connection points: 4
#     Node 26, Type 1, BuildingBlock: AZAVOO_clean_sbu_0, # of connection points: 4
#     Node 27, Type 1, BuildingBlock: AZAVOO_clean_sbu_0, # of connection points: 4
#     Edge 28, Type (0, 1), BuildingBlock: MIFKUJ_clean_linker_0, # of connection points: 2
#     Edge 29, Type (0, 1), BuildingBlock: MIFKUJ_clean_linker_0, # of connection points: 2
#     Edge 30, Type (0, 1), BuildingBlock: MIFKUJ_clean_linker_0, # of connection points: 2
#     Edge 31, Type (0, 1), BuildingBlock: MIFKUJ_clean_linker_0, # of connection points: 2
#     Edge 32, Type (0, 1), BuildingBlock: MIFKUJ_clean_linker_0, # of connection points: 2
#     Edge 33, Type (0, 1), BuildingBlock: MIFKUJ_clean_linker_0, # of connection points: 2
#     Edge 34, Type (0, 1), BuildingBlock: MIFKUJ_clean_linker_0, # of connection points: 2
#     Edge 35, Type (0, 1), BuildingBlock: MIFKUJ_clean_linker_0, # of connection points: 2
#     Edge 36, Type (0, 1), BuildingBlock: MIFKUJ_clean_linker_0, # of connection points: 2
#     Edge 37, Type (0, 1), BuildingBlock: MIFKUJ_clean_linker_0, # of connection points: 2
#     Edge 38, Type (0, 1), BuildingBlock: MIFKUJ_clean_linker_0, # of connection points: 2
#     Edge 39, Type (0, 1), BuildingBlock: MIFKUJ_clean_linker_0, # of connection points: 2
#     Edge 40, Type (0, 1), BuildingBlock: MIFKUJ_clean_linker_0, # of connection points: 2
#     Edge 41, Type (0, 1), BuildingBlock: MIFKUJ_clean_linker_0, # of connection points: 2
#     Edge 42, Type (0, 1), BuildingBlock: MIFKUJ_clean_linker_0, # of connection points: 2
#     Edge 43, Type (0, 1), BuildingBlock: MIFKUJ_clean_linker_0, # of connection points: 2
#     Edge 44, Type (0, 1), BuildingBlock: MIFKUJ_clean_linker_0, # of connection points: 2
#     Edge 45, Type (0, 1), BuildingBlock: MIFKUJ_clean_linker_0, # of connection points: 2
#     Edge 46, Type (0, 1), BuildingBlock: MIFKUJ_clean_linker_0, # of connection points: 2
#     Edge 47, Type (0, 1), BuildingBlock: MIFKUJ_clean_linker_0, # of connection points: 2
#     Edge 48, Type (0, 1), BuildingBlock: MIFKUJ_clean_linker_0, # of connection points: 2
#     Edge 49, Type (0, 1), BuildingBlock: MIFKUJ_clean_linker_0, # of connection points: 2
#     Edge 50, Type (0, 1), BuildingBlock: MIFKUJ_clean_linker_0, # of connection points: 2
#     Edge 51, Type (0, 1), BuildingBlock: MIFKUJ_clean_linker_0, # of connection points: 2
#     Edge 52, Type (0, 1), BuildingBlock: MIFKUJ_clean_linker_0, # of connection points: 2
#     Edge 53, Type (0, 1), BuildingBlock: MIFKUJ_clean_linker_0, # of connection points: 2
#     Edge 54, Type (0, 1), BuildingBlock: MIFKUJ_clean_linker_0, # of connection points: 2
#     Edge 55, Type (0, 1), BuildingBlock: MIFKUJ_clean_linker_0, # of connection points: 2
#     Edge 56, Type (0, 1), BuildingBlock: MIFKUJ_clean_linker_0, # of connection points: 2
#     Edge 57, Type (0, 1), BuildingBlock: MIFKUJ_clean_linker_0, # of connection points: 2
#     Edge 58, Type (0, 1), BuildingBlock: MIFKUJ_clean_linker_0, # of connection points: 2
#     Edge 59, Type (0, 1), BuildingBlock: MIFKUJ_clean_linker_0, # of connection points: 2
#     Edge 60, Type (0, 1), BuildingBlock: MIFKUJ_clean_linker_0, # of connection points: 2
#     Edge 61, Type (0, 1), BuildingBlock: MIFKUJ_clean_linker_0, # of connection points: 2
#     Edge 62, Type (0, 1), BuildingBlock: MIFKUJ_clean_linker_0, # of connection points: 2
#     Edge 63, Type (0, 1), BuildingBlock: MIFKUJ_clean_linker_0, # of connection points: 2
#     Edge 64, Type (0, 1), BuildingBlock: MIFKUJ_clean_linker_0, # of connection points: 2
#     Edge 65, Type (0, 1), BuildingBlock: MIFKUJ_clean_linker_0, # of connection points: 2
#     Edge 66, Type (0, 1), BuildingBlock: MIFKUJ_clean_linker_0, # of connection points: 2
#     Edge 67, Type (0, 1), BuildingBlock: MIFKUJ_clean_linker_0, # of connection points: 2
#     Edge 68, Type (0, 1), BuildingBlock: MIFKUJ_clean_linker_0, # of connection points: 2
#     Edge 69, Type (0, 1), BuildingBlock: MIFKUJ_clean_linker_0, # of connection points: 2
#     Edge 70, Type (0, 1), BuildingBlock: MIFKUJ_clean_linker_0, # of connection points: 2
#     Edge 71, Type (0, 1), BuildingBlock: MIFKUJ_clean_linker_0, # of connection points: 2
#     Edge 72, Type (0, 1), BuildingBlock: MIFKUJ_clean_linker_0, # of connection points: 2
#     Edge 73, Type (0, 1), BuildingBlock: MIFKUJ_clean_linker_0, # of connection points: 2
#     Edge 74, Type (0, 1), BuildingBlock: MIFKUJ_clean_linker_0, # of connection points: 2
#     Edge 75, Type (0, 1), BuildingBlock: MIFKUJ_clean_linker_0, # of connection points: 2
# Relax obj value: 0.002
# Max RMSD: 0.044
# Mean RMSD: 0.027
data_MOF--net-ctn--node1-WUSLED_clean_sbu_0--node2-AZAVOO_clean_sbu_0--edge1-MIFKUJ_clean_linker_0
_symmetry_space_group_name_H-M    P1
_symmetry_Int_Tables_number       1
_symmetry_cell_setting            triclinic
loop_
_symmetry_equiv_pos_as_xyz
'x, y, z'
_cell_length_a     86.633491
_cell_length_b     88.383251
_cell_length_c     88.054998
_cell_angle_alpha  90.791772
_cell_angle_beta   92.297875
_cell_angle_gamma 92.510634
loop_
_atom_site_label
_atom_site_type_symbol
_atom_site_fract_x
_atom_site_fract_y
_atom_site_fract_z
_atom_type_partial_charge
C0 C 0.01902 0.0503 0.0677 0.0
C1 C 0.02137 0.03707 0.07596 0.0
C2 C 1.00177 0.04407 0.09367 0.0
C3 C 0.01279 0.03396 0.08883 0.0
C4 C 0.99949 0.05727 0.08525 0.0
C5 C 1.00803 0.06033 0.07243 0.0
U6 U 0.0508 0.04386 0.03889 0.0
O7 O 0.04929 0.04649 0.01402 0.0
O8 O 0.06583 0.0608 0.02794 0.0
C9 C 0.05917 0.05824 0.01441 0.0
C10 C 0.02773 0.05395 0.0541 0.0
C11 C 0.05442 0.07166 1.00571 0.0
C12 C 0.0445 0.08226 0.98203 0.0
C13 C 0.04831 0.06973 0.99076 0.0
C14 C 0.05283 0.09898 1.00305 0.0
C15 C 0.04683 0.09708 0.98801 0.0
C16 C 0.05657 0.08644 0.01179 0.0
C17 C 0.07811 0.0108 0.04303 0.0
C18 C 0.10132 0.0078 0.02877 0.0
C19 C 0.09176 0.98738 0.04439 0.0
C20 C 0.07956 0.99616 0.04864 0.0
C21 C 0.10282 0.99307 0.0344 0.0
C22 C 0.08904 0.01658 0.03301 0.0
C23 C 0.06522 0.01981 0.04796 0.0
O24 O 0.04218 0.05884 0.05654 0.0
O25 O 0.02586 0.04429 0.04263 0.0
O26 O 0.05268 0.01907 0.03903 0.0
O27 O 0.06896 0.03361 0.053 0.0
H28 H 0.02984 0.02919 0.07248 0.0
H29 H 0.01494 0.02377 0.09512 0.0
H30 H 0.99095 0.06518 0.08845 0.0
H31 H 1.006 0.07056 0.06615 0.0
H32 H 0.03971 0.08031 0.97059 0.0
H33 H 0.04659 0.05849 0.98574 0.0
H34 H 0.05502 0.1102 0.00798 0.0
H35 H 0.06135 0.08839 0.02324 0.0
H36 H 0.10954 0.01248 0.02095 0.0
H37 H 0.09266 0.9762 0.04913 0.0
H38 H 0.07127 0.99152 0.05643 0.0
H39 H 0.08808 0.02785 0.0285 0.0
C40 C 0.29512 0.742 0.18689 0.0
C41 C 0.30303 0.7561 0.18924 0.0
C42 C 0.29459 0.76399 0.16388 0.0
C43 C 0.30272 0.76703 0.17785 0.0
C44 C 0.28679 0.74979 0.16161 0.0
C45 C 0.28705 0.73893 0.17301 0.0
U46 U 0.31203 0.72347 0.2228 0.0
O47 O 0.30004 0.7134 0.24203 0.0
O48 O 0.31396 0.69924 0.22775 0.0
C49 C 0.30424 0.69964 0.23881 0.0
C50 C 0.295 0.73035 0.19871 0.0
C51 C 0.29187 0.68762 0.23836 0.0
C52 C 0.26573 0.67815 0.23123 0.0
C53 C 0.27734 0.68972 0.23123 0.0
C54 C 0.28313 0.66221 0.24525 0.0
C55 C 0.26849 0.66424 0.23824 0.0
C56 C 0.29467 0.67378 0.24531 0.0
C57 C 0.34937 0.7405 0.24255 0.0
C58 C 0.36162 0.73008 0.2652 0.0
C59 C 0.37317 0.7523 0.25359 0.0
C60 C 0.3612 0.75182 0.24244 0.0
C61 C 0.37357 0.74143 0.26512 0.0
C62 C 0.34963 0.72961 0.25399 0.0
C63 C 0.33697 0.74027 0.2306 0.0
O64 O 0.30613 0.72075 0.19832 0.0
O65 O 0.29229 0.73503 0.21255 0.0
O66 O 0.32311 0.74316 0.23513 0.0
O67 O 0.33688 0.72896 0.22075 0.0
H68 H 0.30941 0.75866 0.19986 0.0
H69 H 0.30896 0.77779 0.1799 0.0
H70 H 0.28024 0.74714 0.15111 0.0
H71 H 0.28085 0.72812 0.171 0.0
H72 H 0.25465 0.68003 0.2256 0.0
H73 H 0.27498 0.70029 0.22571 0.0
H74 H 0.2856 0.65175 0.25093 0.0
H75 H 0.30579 0.67195 0.2509 0.0
H76 H 0.36163 0.72144 0.2738 0.0
H77 H 0.382 0.76133 0.2533 0.0
H78 H 0.36116 0.76035 0.23371 0.0
H79 H 0.3406 0.72075 0.25423 0.0
C80 C 0.98028 0.45092 0.01386 0.0
C81 C 0.98787 0.43908 0.02104 0.0
C82 C 0.98961 0.42589 0.99664 0.0
C83 C 0.99245 0.42666 0.01251 0.0
C84 C 0.98225 0.43794 0.98951 0.0
C85 C 0.97762 0.4503 0.99805 0.0
U86 U 0.98179 0.47818 0.04849 0.0
O87 O 0.97867 0.50283 0.04916 0.0
O88 O 0.96273 0.48744 0.06093 0.0
C89 C 0.96596 0.50142 0.05677 0.0
C90 C 0.97475 0.46385 0.02259 0.0
C91 C 0.95277 0.51013 0.05117 0.0
C92 C 0.92747 0.51174 0.03831 0.0
C93 C 0.94033 0.50335 0.04244 0.0
C94 C 0.93954 0.53384 0.05118 0.0
C95 C 0.92681 0.52705 0.04284 0.0
C96 C 0.95233 0.52547 0.05532 0.0
C97 C 0.01269 0.4738 0.08095 0.0
C98 C 0.02698 0.49222 0.0976 0.0
C99 C 0.02399 0.46611 0.10528 0.0
C100 C 0.01547 0.46259 0.09175 0.0
C101 C 0.03006 0.48092 0.10828 0.0
C102 C 0.01835 0.48872 0.0841 0.0
C103 C 1.00477 0.46941 0.06621 0.0
O104 O 0.96809 0.46059 0.03538 0.0
O105 O 0.98419 0.4759 0.02374 0.0
O106 O 1.0066 0.47878 0.05488 0.0
O107 O 0.99057 0.46363 0.06679 0.0
H108 H 0.99014 0.43938 0.03323 0.0
H109 H 0.99826 0.41768 0.01833 0.0
H110 H 0.97973 0.43766 0.97736 0.0
H111 H 0.97177 0.45932 0.9923 0.0
H112 H 0.91786 0.5061 0.03196 0.0
H113 H 0.94042 0.49152 0.03908 0.0
H114 H 0.93961 0.54566 0.05461 0.0
H115 H 0.96183 0.53094 0.06199 0.0
H116 H 0.03131 0.50378 0.09964 0.0
H117 H 0.02628 0.4571 0.11316 0.0
H118 H 0.01131 0.45099 0.08956 0.0
H119 H 0.01635 0.49764 0.07604 0.0
C120 C 0.71981 0.77631 0.19163 0.0
C121 C 0.72855 0.78205 0.17973 0.0
C122 C 0.72743 0.75711 0.16733 0.0
C123 C 0.73228 0.77254 0.16766 0.0
C124 C 0.71878 0.75144 0.17937 0.0
C125 C 0.71501 0.76096 0.19136 0.0
U126 U 0.72539 0.81172 0.21758 0.0
O127 O 0.70794 0.82618 0.22697 0.0
O128 O 0.7232 0.81376 0.24235 0.0
C129 C 0.71126 0.82238 0.24107 0.0
C130 C 0.71544 0.78607 0.20435 0.0
C131 C 0.69801 0.81803 0.25032 0.0
C132 C 0.67461 0.80271 0.25468 0.0
C133 C 0.68704 0.80661 0.24555 0.0
C134 C 0.68405 0.82158 0.2734 0.0
C135 C 0.67301 0.8101 0.26877 0.0
C136 C 0.6964 0.82548 0.26427 0.0
C137 C 0.75919 0.84048 0.21151 0.0
C138 C 0.76496 0.86292 0.22741 0.0
C139 C 0.78157 0.85704 0.20685 0.0
C140 C 0.77218 0.84415 0.20311 0.0
C141 C 0.77817 0.86656 0.21912 0.0
C142 C 0.75556 0.84996 0.22365 0.0
C143 C 0.74983 0.82655 0.20755 0.0
O144 O 0.72513 0.78679 0.21623 0.0
O145 O 0.71012 0.7993 0.20068 0.0
O146 O 0.73567 0.82844 0.20218 0.0
O147 O 0.75065 0.8156 0.21744 0.0
H148 H 0.73246 0.79386 0.17977 0.0
H149 H 0.7391 0.77723 0.15867 0.0
H150 H 0.71469 0.73969 0.1794 0.0
H151 H 0.70824 0.75632 0.20043 0.0
H152 H 0.66641 0.79373 0.25083 0.0
H153 H 0.68814 0.80068 0.23481 0.0
H154 H 0.68307 0.82766 0.28406 0.0
H155 H 0.70472 0.83436 0.26813 0.0
H156 H 0.76207 0.86991 0.237 0.0
H157 H 0.79148 0.8596 0.20006 0.0
H158 H 0.77513 0.83699 0.19367 0.0
H159 H 0.74558 0.84727 0.2303 0.0
C160 C 0.01886 0.97762 0.44955 0.0
C161 C 0.02621 0.98461 0.43738 0.0
C162 C 1.00139 0.98618 0.42344 0.0
C163 C 0.01756 0.98879 0.42443 0.0
C164 C 0.99408 0.97944 0.4358 0.0
C165 C 1.00274 0.97518 0.44869 0.0
U166 U 0.05356 0.98066 0.47832 0.0
O167 O 0.05404 0.97748 0.50314 0.0
O168 O 0.06713 0.96275 0.48864 0.0
C169 C 0.06237 0.96544 0.50237 0.0
C170 C 0.02773 0.97253 0.46308 0.0
C171 C 0.05676 0.95209 0.51082 0.0
C172 C 0.04355 0.92724 0.51166 0.0
C173 C 0.04802 0.94013 0.50354 0.0
C174 C 0.05611 0.93826 0.53452 0.0
C175 C 0.04764 0.92609 0.52724 0.0
C176 C 0.06064 0.9511 0.52638 0.0
C177 C 0.08464 0.01299 0.47342 0.0
C178 C 0.10818 0.01763 0.48916 0.0
C179 C 0.10184 0.03477 0.46885 0.0
C180 C 0.08838 0.02597 0.46515 0.0
C181 C 0.11189 0.03079 0.48096 0.0
C182 C 0.09463 0.00881 0.48545 0.0
C183 C 0.07023 1.00418 0.46921 0.0
O184 O 0.04109 0.96663 0.46058 0.0
O185 O 0.02827 0.98171 0.47497 0.0
O186 O 0.05888 1.00526 0.47857 0.0
O187 O 0.07176 0.99031 0.4641 0.0
H188 H 0.03863 0.98673 0.43784 0.0
H189 H 0.02354 0.99414 0.41521 0.0
H190 H 0.98169 0.97711 0.43537 0.0
H191 H 0.99685 0.9698 0.45795 0.0
H192 H 0.03686 0.91817 0.50574 0.0
H193 H 0.04479 0.94069 0.49155 0.0
H194 H 0.05959 0.93771 0.54644 0.0
H195 H 0.0674 0.96018 0.5322 0.0
H196 H 0.11559 0.01429 0.49861 0.0
H197 H 0.10443 0.04464 0.4621 0.0
H198 H 0.08086 0.02934 0.45579 0.0
H199 H 0.09191 0.99881 0.49197 0.0
C200 C 0.21392 0.74962 0.81997 0.0
C201 C 0.20548 0.74813 0.83322 0.0
C202 C 0.22128 0.76852 0.84582 0.0
C203 C 0.20914 0.75741 0.84599 0.0
C204 C 0.22977 0.76995 0.83258 0.0
C205 C 0.22612 0.76066 0.81982 0.0
U206 U 0.21783 0.71639 0.79139 0.0
O207 O 0.19959 0.70184 0.77984 0.0
O208 O 0.21498 0.71622 0.76641 0.0
C209 C 0.2026 0.70707 0.76632 0.0
C210 C 0.20915 0.74047 0.80613 0.0
C211 C 0.18919 0.71192 0.75704 0.0
C212 C 0.16608 0.72645 0.75375 0.0
C213 C 0.17877 0.72207 0.7628 0.0
C214 C 0.1742 0.7107 0.73308 0.0
C215 C 0.16366 0.72084 0.73875 0.0
C216 C 0.18681 0.70629 0.74214 0.0
C217 C 0.25118 0.68901 0.79849 0.0
C218 C 0.25846 0.66867 0.78163 0.0
C219 C 0.27223 0.673 0.80588 0.0
C220 C 0.26277 0.68497 0.80902 0.0
C221 C 0.27033 0.66476 0.79209 0.0
C222 C 0.24898 0.68073 0.78479 0.0
C223 C 0.24189 0.70209 0.80206 0.0
O224 O 0.21845 0.74113 0.79469 0.0
O225 O 0.20326 0.72673 0.80829 0.0
O226 O 0.22769 0.69902 0.80616 0.0
O227 O 0.24297 0.71361 0.79282 0.0
H228 H 0.19589 0.73989 0.83368 0.0
H229 H 0.20247 0.75583 0.85604 0.0
H230 H 0.23904 0.77852 0.83193 0.0
H231 H 0.23273 0.76233 0.80975 0.0
H232 H 0.1583 0.7344 0.75842 0.0
H233 H 0.18045 0.72661 0.77427 0.0
H234 H 0.1726 0.70599 0.72168 0.0
H235 H 0.19472 0.69843 0.7375 0.0
H236 H 0.25674 0.66265 0.77086 0.0
H237 H 0.28103 0.67016 0.81432 0.0
H238 H 0.2646 0.69118 0.81968 0.0
H239 H 0.24008 0.68369 0.7765 0.0
C240 C 0.97306 0.56619 0.50266 0.0
C241 C 0.97663 0.58014 0.49585 0.0
C242 C 0.98163 0.59217 0.52082 0.0
C243 C 0.98086 0.59299 0.50484 0.0
C244 C 0.9785 0.57806 0.52753 0.0
C245 C 0.97422 0.56525 0.51855 0.0
U246 U 0.97384 0.53709 0.46935 0.0
O247 O 0.96862 0.51252 0.46935 0.0
O248 O 0.9542 0.52713 0.45531 0.0
C249 C 0.956 0.51348 0.46067 0.0
C250 C 0.96713 0.55273 0.49365 0.0
C251 C 0.94186 0.50545 0.46588 0.0
C252 C 0.92686 0.49371 0.48574 0.0
C253 C 0.94001 0.50202 0.48127 0.0
C254 C 0.91697 0.49252 0.45963 0.0
C255 C 0.91522 0.48877 0.47496 0.0
C256 C 0.93017 0.50073 0.45515 0.0
C257 C 1.00651 0.54058 0.44064 0.0
C258 C 0.00894 0.52461 0.41817 0.0
C259 C 0.02844 0.5444 0.42454 0.0
C260 C 0.02037 0.54836 0.43733 0.0
C261 C 0.0228 0.53255 0.4147 0.0
C262 C 1.00084 0.52862 0.43103 0.0
C263 C 0.99827 0.54531 0.45412 0.0
O264 O 0.96117 0.55518 0.47998 0.0
O265 O 0.9756 0.54076 0.49422 0.0
O266 O 0.99879 0.53617 0.46576 0.0
O267 O 0.98455 0.55075 0.45154 0.0
H268 H 0.97583 0.58122 0.48361 0.0
H269 H 0.98303 0.60367 0.49926 0.0
H270 H 0.97925 0.57689 0.53975 0.0
H271 H 0.97154 0.55463 0.52407 0.0
H272 H 0.92578 0.49116 0.49766 0.0
H273 H 0.94879 0.50562 0.48982 0.0
H274 H 0.90832 0.48876 0.45101 0.0
H275 H 0.93135 0.50321 0.44322 0.0
H276 H 1.00421 0.5155 0.4108 0.0
H277 H 0.03919 0.55058 0.42243 0.0
H278 H 0.02498 0.55757 0.44466 0.0
H279 H 0.99014 0.52247 0.43341 0.0
C280 C 0.79055 0.77714 0.83079 0.0
C281 C 0.80235 0.76677 0.83197 0.0
C282 C 0.78967 0.75443 0.8531 0.0
C283 C 0.80193 0.75551 0.84307 0.0
C284 C 0.77797 0.76495 0.85185 0.0
C285 C 0.77841 0.77615 0.84081 0.0
U286 U 0.8068 0.79816 0.79626 0.0
O287 O 0.79387 0.80764 0.7768 0.0
O288 O 0.8083 0.82265 0.79211 0.0
C289 C 0.79818 0.82168 0.78057 0.0
C290 C 0.79049 0.78906 0.81926 0.0
C291 C 0.78578 0.83259 0.78072 0.0
C292 C 0.76514 0.84505 0.79329 0.0
C293 C 0.77637 0.83408 0.79323 0.0
C294 C 0.77241 0.85289 0.76822 0.0
C295 C 0.76315 0.85473 0.78084 0.0
C296 C 0.7836 0.84196 0.76819 0.0
C297 C 0.84348 0.78505 0.77749 0.0
C298 C 0.85262 0.7937 0.75317 0.0
C299 C 0.86862 0.77802 0.76905 0.0
C300 C 0.85725 0.77753 0.77991 0.0
C301 C 0.86643 0.78603 0.75548 0.0
C302 C 0.84126 0.79324 0.76409 0.0
C303 C 0.83154 0.78391 0.78896 0.0
O304 O 0.80179 0.79947 0.82055 0.0
O305 O 0.78743 0.78448 0.80516 0.0
O306 O 0.81748 0.77984 0.78383 0.0
O307 O 0.83183 0.79493 0.79914 0.0
H308 H 0.81182 0.76736 0.82429 0.0
H309 H 0.81108 0.74755 0.84365 0.0
H310 H 0.76852 0.76468 0.85954 0.0
H311 H 0.76924 0.7841 0.84013 0.0
H312 H 0.7583 0.84621 0.80323 0.0
H313 H 0.77787 0.82692 0.80302 0.0
H314 H 0.77103 0.85992 0.75833 0.0
H315 H 0.79068 0.84092 0.75839 0.0
H316 H 0.85063 0.80012 0.74294 0.0
H317 H 0.87897 0.77181 0.77115 0.0
H318 H 0.85916 0.77112 0.79017 0.0
H319 H 0.83073 0.79919 0.76203 0.0
C320 C 0.29094 0.27655 0.33119 0.0
C321 C 0.30323 0.26679 0.33297 0.0
C322 C 0.29094 0.25493 0.35458 0.0
C323 C 0.30321 0.25604 0.34456 0.0
C324 C 0.27854 0.26457 0.35246 0.0
C325 C 0.27857 0.27525 0.34092 0.0
U326 U 0.30726 0.29731 0.2966 0.0
O327 O 0.29462 0.30714 0.27721 0.0
O328 O 0.30932 0.32185 0.29258 0.0
C329 C 0.29925 0.32109 0.281 0.0
C330 C 0.29086 0.28843 0.31961 0.0
C331 C 0.28718 0.33237 0.28102 0.0
C332 C 0.26214 0.3409 0.28837 0.0
C333 C 0.27352 0.33005 0.2889 0.0
C334 C 0.27811 0.35651 0.2723 0.0
C335 C 0.26424 0.35422 0.27994 0.0
C336 C 0.28941 0.34569 0.27282 0.0
C337 C 0.34366 0.28354 0.27783 0.0
C338 C 0.35532 0.29551 0.25609 0.0
C339 C 0.3665 0.27332 0.26707 0.0
C340 C 0.35505 0.27277 0.27784 0.0
C341 C 0.36681 0.28469 0.25603 0.0
C342 C 0.34385 0.29494 0.2669 0.0
C343 C 0.3317 0.28256 0.28927 0.0
O344 O 0.30223 0.29877 0.32085 0.0
O345 O 0.28771 0.28385 0.30552 0.0
O346 O 0.3176 0.27882 0.28406 0.0
O347 O 0.33216 0.29357 0.29949 0.0
H348 H 0.31289 0.26764 0.32555 0.0
H349 H 0.31298 0.24887 0.34592 0.0
H350 H 0.26878 0.26386 0.35977 0.0
H351 H 0.26895 0.28264 0.33967 0.0
H352 H 0.25159 0.33871 0.29432 0.0
H353 H 0.2716 0.31983 0.29534 0.0
H354 H 0.28031 0.36674 0.26596 0.0
H355 H 0.29992 0.34774 0.26676 0.0
H356 H 0.35527 0.30451 0.24786 0.0
H357 H 0.37496 0.26466 0.26725 0.0
H358 H 0.35505 0.26385 0.28616 0.0
H359 H 0.33515 0.30338 0.26674 0.0
C360 C 0.47735 0.94903 0.51591 0.0
C361 C 0.49288 0.94507 0.51578 0.0
C362 C 0.48587 0.92382 0.49846 0.0
C363 C 0.49711 0.9326 0.50708 0.0
C364 C 0.47036 0.92787 0.49869 0.0
C365 C 0.46617 0.94034 0.5073 0.0
U366 U 0.48083 0.97726 0.5499 0.0
O367 O 0.47725 1.00176 0.55033 0.0
O368 O 0.46229 0.98643 0.56325 0.0
C369 C 0.46504 1.00034 0.55868 0.0
C370 C 0.47246 0.96221 0.52471 0.0
C371 C 0.45136 0.00871 0.55376 0.0
C372 C 0.4344 0.01913 0.53417 0.0
C373 C 0.44705 0.01046 0.53834 0.0
C374 C 0.43006 0.02406 0.56073 0.0
C375 C 0.42586 0.0262 0.54533 0.0
C376 C 0.44267 0.01545 0.56487 0.0
C377 C 0.5132 0.97372 0.58117 0.0
C378 C 0.53031 0.99137 0.59613 0.0
C379 C 0.52291 0.96701 0.60646 0.0
C380 C 0.51402 0.96342 0.59316 0.0
C381 C 0.53134 0.98095 0.60804 0.0
C382 C 0.52133 0.98782 0.58286 0.0
C383 C 0.50472 0.96908 0.56673 0.0
O384 O 0.46658 0.9592 0.53792 0.0
O385 O 0.48184 0.97433 0.5251 0.0
O386 O 0.5059 0.97828 0.55518 0.0
O387 O 0.49067 0.96308 0.56795 0.0
H388 H 0.50171 0.95158 0.52241 0.0
H389 H 0.50913 0.9297 0.50729 0.0
H390 H 0.46143 0.9215 0.49205 0.0
H391 H 0.45414 0.94323 0.50719 0.0
H392 H 0.43156 0.02058 0.5222 0.0
H393 H 0.45358 1.0053 0.52955 0.0
H394 H 0.42359 0.02904 0.56965 0.0
H395 H 0.44573 0.01417 0.57682 0.0
H396 H 0.5365 1.00228 0.59705 0.0
H397 H 0.52359 0.95864 0.6153 0.0
H398 H 0.50802 0.95242 0.59212 0.0
H399 H 0.52098 0.99604 0.57386 0.0
C400 C 0.22039 0.27706 0.69217 0.0
C401 C 0.23591 0.27441 0.68939 0.0
C402 C 0.22788 0.25757 0.66804 0.0
C403 C 0.23961 0.2647 0.67748 0.0
C404 C 0.21238 0.26047 0.67074 0.0
C405 C 0.20869 0.27007 0.6827 0.0
U406 U 0.22647 0.31199 0.7187 0.0
O407 O 0.20926 0.32687 0.72793 0.0
O408 O 0.22398 0.31399 0.74341 0.0
C409 C 0.21232 0.32297 0.74204 0.0
C410 C 0.21606 0.28674 0.70502 0.0
C411 C 0.19886 0.31899 0.75114 0.0
C412 C 0.1773 0.30198 0.7575 0.0
C413 C 0.18978 0.30562 0.74835 0.0
C414 C 0.18281 0.3251 0.77218 0.0
C415 C 0.17375 0.31163 0.76963 0.0
C416 C 0.19523 0.32872 0.76304 0.0
C417 C 0.26095 0.34008 0.71291 0.0
C418 C 0.26743 0.3622 0.72906 0.0
C419 C 0.28311 0.35672 0.70767 0.0
C420 C 0.27356 0.3439 0.70405 0.0
C421 C 0.28024 0.366 0.72028 0.0
C422 C 0.25787 0.34933 0.72542 0.0
C423 C 0.25132 0.32633 0.70894 0.0
O424 O 0.22545 0.28712 0.71714 0.0
O425 O 0.21106 0.30011 0.70144 0.0
O426 O 0.23728 0.32853 0.70346 0.0
O427 O 0.2518 0.31536 0.71885 0.0
H428 H 0.24517 0.27976 0.69647 0.0
H429 H 0.25167 0.26287 0.67559 0.0
H430 H 0.20306 0.25505 0.66379 0.0
H431 H 0.19664 0.27193 0.68466 0.0
H432 H 0.17065 0.29146 0.7553 0.0
H433 H 0.19244 0.29796 0.7392 0.0
H434 H 0.18028 0.33292 0.78123 0.0
H435 H 0.20207 0.33912 0.76532 0.0
H436 H 0.26496 0.36901 0.73892 0.0
H437 H 0.29269 0.35941 0.7005 0.0
H438 H 0.27608 0.33693 0.69431 0.0
H439 H 0.24817 0.34653 0.73241 0.0
C440 C 0.79121 0.24791 0.69291 0.0
C441 C 0.80456 0.25203 0.6851 0.0
C442 C 0.79007 0.26976 0.66975 0.0
C443 C 0.80397 0.2628 0.67359 0.0
C444 C 0.77682 0.26579 0.6778 0.0
C445 C 0.77739 0.25496 0.68922 0.0
U446 U 0.80898 0.22814 0.72778 0.0
O447 O 0.79749 0.21853 0.74754 0.0
O448 O 0.81008 0.20383 0.73254 0.0
C449 C 0.80105 0.20461 0.74415 0.0
C450 C 0.79122 0.23604 0.70459 0.0
C451 C 0.78829 0.19305 0.74437 0.0
C452 C 0.76403 0.18153 0.73397 0.0
C453 C 0.77594 0.19278 0.73354 0.0
C454 C 0.77672 0.1708 0.75607 0.0
C455 C 0.76427 0.1704 0.74528 0.0
C456 C 0.78858 0.18201 0.75561 0.0
C457 C 0.84756 0.2437 0.74619 0.0
C458 C 0.8593 0.23384 0.76936 0.0
C459 C 0.87254 0.25398 0.75596 0.0
C460 C 0.86036 0.25381 0.74504 0.0
C461 C 0.87218 0.24403 0.76829 0.0
C462 C 0.84711 0.23367 0.75839 0.0
C463 C 0.83479 0.24398 0.73466 0.0
O464 O 0.80175 0.22583 0.70361 0.0
O465 O 0.7893 0.24066 0.71861 0.0
O466 O 0.82128 0.2474 0.73971 0.0
O467 O 0.83386 0.23268 0.72475 0.0
H468 H 0.81542 0.24684 0.68779 0.0
H469 H 0.81441 0.26573 0.66772 0.0
H470 H 0.76589 0.2708 0.67503 0.0
H471 H 0.76695 0.25193 0.69505 0.0
H472 H 0.75457 0.18164 0.72556 0.0
H473 H 0.77553 0.20125 0.72476 0.0
H474 H 0.77747 0.16228 0.76476 0.0
H475 H 0.79806 0.182 0.76402 0.0
H476 H 0.85871 0.22591 0.77861 0.0
H477 H 0.88213 0.26213 0.75487 0.0
H478 H 0.86088 0.26167 0.73572 0.0
H479 H 0.83732 0.22575 0.75944 0.0
C480 C 0.51981 0.5496 0.56724 0.0
C481 C 0.52223 0.53632 0.5754 0.0
C482 C 0.5025 0.54302 0.59309 0.0
C483 C 0.51362 0.53304 0.58821 0.0
C484 C 0.50015 0.55626 0.58477 0.0
C485 C 0.50871 0.5595 0.57201 0.0
U486 U 0.55152 0.54348 0.53825 0.0
O487 O 0.55 0.54658 0.51345 0.0
O488 O 0.56661 0.56058 0.52759 0.0
C489 C 0.55992 0.55829 0.51403 0.0
C490 C 0.52856 0.55344 0.55371 0.0
C491 C 0.55522 0.5719 0.50558 0.0
C492 C 0.54432 0.58286 0.4825 0.0
C493 C 0.5481 0.57019 0.491 0.0
C494 C 0.55471 0.59931 0.50296 0.0
C495 C 0.54768 0.59761 0.4883 0.0
C496 C 0.55844 0.58663 0.51149 0.0
C497 C 0.57855 0.51011 0.54153 0.0
C498 C 0.60233 0.50756 0.52805 0.0
C499 C 0.59129 0.48615 0.54137 0.0
C500 C 0.57921 0.49496 0.54587 0.0
C501 C 0.60305 0.49232 0.53242 0.0
C502 C 0.59016 0.51636 0.53252 0.0
C503 C 0.56577 0.51914 0.54673 0.0
O504 O 0.54304 0.55817 0.55623 0.0
O505 O 0.5266 0.54401 0.54206 0.0
O506 O 0.55317 0.51866 0.53788 0.0
O507 O 0.56963 0.53281 0.55207 0.0
H508 H 0.53078 0.52854 0.57188 0.0
H509 H 0.51584 0.52282 0.59442 0.0
H510 H 0.49153 0.56408 0.58801 0.0
H511 H 0.50663 0.56977 0.56581 0.0
H512 H 0.53873 0.58109 0.47136 0.0
H513 H 0.54557 0.559 0.48609 0.0
H514 H 0.55769 0.61046 0.50773 0.0
H515 H 0.56405 0.58841 0.52262 0.0
H516 H 0.61109 0.51263 0.52104 0.0
H517 H 0.59157 0.47455 0.54514 0.0
H518 H 0.57039 0.48994 0.55285 0.0
H519 H 0.58983 0.52804 0.52898 0.0
C520 C 0.51795 0.47683 0.94933 0.0
C521 C 0.52432 0.48717 0.93909 0.0
C522 C 0.50034 0.48571 0.92345 0.0
C523 C 0.51561 0.49154 0.92625 0.0
C524 C 0.49401 0.47545 0.93386 0.0
C525 C 0.50274 0.47107 0.94664 0.0
U526 U 0.5527 0.48019 0.97803 0.0
O527 O 0.55313 0.47701 1.00286 0.0
O528 O 0.56633 0.46234 0.98839 0.0
C529 C 0.56148 0.46498 1.0021 0.0
C530 C 0.52692 0.47183 0.96279 0.0
C531 C 0.55585 0.45162 0.01052 0.0
C532 C 0.54343 0.4264 0.01121 0.0
C533 C 0.54792 0.43926 1.00306 0.0
C534 C 0.55429 0.43823 0.03443 0.0
C535 C 0.54666 0.42567 0.02698 0.0
C536 C 0.55887 0.45104 0.02626 0.0
C537 C 0.5837 0.51256 0.97343 0.0
C538 C 0.60731 0.51682 0.98916 0.0
C539 C 0.60089 0.53445 0.96931 0.0
C540 C 0.58741 0.52575 0.96547 0.0
C541 C 0.611 0.53018 0.98126 0.0
C542 C 0.59374 0.50809 0.98529 0.0
C543 C 0.56931 0.50379 0.96904 0.0
O544 O 0.54036 0.46616 0.96019 0.0
O545 O 0.52741 0.48104 0.97466 0.0
O546 O 0.55789 0.50481 0.97833 0.0
O547 O 0.57089 0.48994 0.96389 0.0
H548 H 0.53603 0.49182 0.94101 0.0
H549 H 0.52078 0.49959 0.91857 0.0
H550 H 0.4824 0.47057 0.93198 0.0
H551 H 0.49763 0.46306 0.9544 0.0
H552 H 0.53739 0.41701 1.00515 0.0
H553 H 0.54534 0.43948 0.99093 0.0
H554 H 0.5571 0.43801 0.04652 0.0
H555 H 0.56498 0.46044 0.03223 0.0
H556 H 0.61477 0.51324 0.99847 0.0
H557 H 0.60347 0.54449 0.96279 0.0
H558 H 0.57986 0.52933 0.95622 0.0
H559 H 0.59105 0.49793 0.99158 0.0
C560 C 0.71475 0.25134 0.31831 0.0
C561 C 0.72272 0.24513 0.33077 0.0
C562 C 0.72284 0.26938 0.34448 0.0
C563 C 0.72671 0.25406 0.34374 0.0
C564 C 0.71506 0.27554 0.33183 0.0
C565 C 0.71104 0.26661 0.31891 0.0
U566 U 0.71877 0.21806 0.29009 0.0
O567 O 0.70053 0.20335 0.27871 0.0
O568 O 0.71568 0.21783 0.26514 0.0
C569 C 0.70343 0.20852 0.26514 0.0
C570 C 0.70991 0.24214 0.30468 0.0
C571 C 0.68992 0.21314 0.25589 0.0
C572 C 0.66799 0.22908 0.25158 0.0
C573 C 0.6807 0.22484 0.26068 0.0
C574 C 0.67363 0.21 0.23284 0.0
C575 C 0.66434 0.22175 0.23749 0.0
C576 C 0.68627 0.20576 0.24194 0.0
C577 C 0.75237 0.19091 0.2961 0.0
C578 C 0.75477 0.16534 0.28602 0.0
C579 C 0.77749 0.17962 0.29605 0.0
C580 C 0.76836 0.1918 0.29939 0.0
C581 C 0.77084 0.16621 0.28934 0.0
C582 C 0.74562 0.1776 0.28932 0.0
C583 C 0.74313 0.20392 0.30023 0.0
O584 O 0.7193 0.24285 0.29334 0.0
O585 O 0.70434 0.22834 0.30707 0.0
O586 O 0.72905 0.20083 0.30469 0.0
O587 O 0.74401 0.21563 0.29121 0.0
H588 H 0.72573 0.23336 0.33053 0.0
H589 H 0.73255 0.24887 0.3533 0.0
H590 H 0.71214 0.28733 0.33183 0.0
H591 H 0.70496 0.27163 0.30938 0.0
H592 H 0.6612 0.23827 0.25545 0.0
H593 H 0.68338 0.23071 0.27141 0.0
H594 H 0.67104 0.20394 0.2222 0.0
H595 H 0.69322 0.19668 0.23808 0.0
H596 H 0.74929 0.15524 0.28072 0.0
H597 H 0.78976 0.18064 0.29897 0.0
H598 H 0.7738 0.20193 0.30469 0.0
H599 H 0.73331 0.17666 0.28662 0.0
C600 C 0.47283 0.06659 1.00123 0.0
C601 C 0.47938 0.06515 0.01597 0.0
C602 C 0.48132 0.09262 0.01946 0.0
C603 C 0.48363 0.07797 0.02494 0.0
C604 C 0.47496 0.09407 1.0046 0.0
C605 C 0.47074 0.08123 0.99561 0.0
U606 U 0.47478 0.03635 0.96906 0.0
O607 O 0.47003 0.01171 0.97003 0.0
O608 O 0.45587 0.02544 0.95484 0.0
C609 C 0.4579 0.012 0.9606 0.0
C610 C 0.46711 0.05283 0.99246 0.0
C611 C 0.44388 1.00362 0.96539 0.0
C612 C 0.42107 1.00123 0.98062 0.0
C613 C 0.43428 0.00958 0.97625 0.0
C614 C 0.42699 0.98094 0.96333 0.0
C615 C 0.41731 0.98675 0.97426 0.0
C616 C 0.44011 0.98928 0.95896 0.0
C617 C 0.5086 0.0386 0.9416 0.0
C618 C 0.51021 0.02632 0.91679 0.0
C619 C 0.53343 0.03683 0.92989 0.0
C620 C 0.52465 0.04145 0.94196 0.0
C621 C 0.52634 0.02922 0.91712 0.0
C622 C 0.50141 0.03091 0.92895 0.0
C623 C 0.49975 0.04406 0.95443 0.0
O624 O 0.46158 0.05474 0.97852 0.0
O625 O 0.47548 0.04082 0.99376 0.0
O626 O 0.49997 0.03566 0.96663 0.0
O627 O 0.48606 0.04928 0.95107 0.0
H628 H 0.481 0.05405 0.0207 0.0
H629 H 0.48868 0.07639 0.03622 0.0
H630 H 0.4728 0.10513 1.00006 0.0
H631 H 0.46554 0.08281 0.98439 0.0
H632 H 0.41395 1.00599 0.98914 0.0
H633 H 0.43704 0.02063 0.98138 0.0
H634 H 0.42434 0.96996 0.95799 0.0
H635 H 0.44735 0.98452 0.95052 0.0
H636 H 0.5044 0.02038 0.9072 0.0
H637 H 0.54576 0.03948 0.93046 0.0
H638 H 0.53041 0.04741 0.95157 0.0
H639 H 0.48903 0.02852 0.92844 0.0
Mg640 Mg 0.25342 0.87317 0.0145 0.0
O641 O 0.27634 0.88702 0.01039 0.0
O642 O 0.29468 0.87005 0.00951 0.0
Mg643 Mg 0.28437 0.84621 0.01305 0.0
C644 C 0.29044 0.88369 0.00883 0.0
C645 C 0.224 0.89034 0.00863 0.0
O646 O 0.21931 0.87602 0.00915 0.0
O647 O 0.25197 0.8645 0.98962 0.0
O648 O 0.2706 0.8477 0.99027 0.0
O649 O 0.25785 0.87431 0.03987 0.0
O650 O 0.26551 0.856 0.02516 0.0
C651 C 0.25973 0.85439 0.9832 0.0
C652 C 0.26498 0.86182 0.03858 0.0
O653 O 0.23848 0.89357 0.00958 0.0
Mg654 Mg 0.15154 0.51228 0.27093 0.0
O655 O 0.1371 0.50866 0.24819 0.0
O656 O 0.15405 0.50967 0.22969 0.0
Mg657 Mg 0.17867 0.51275 0.23986 0.0
C658 C 0.1402 0.50828 0.23409 0.0
C659 C 0.12742 0.51729 0.29453 0.0
O660 O 0.13646 0.52963 0.29478 0.0
O661 O 0.15946 0.4876 0.27005 0.0
O662 O 0.17623 0.48965 0.25142 0.0
O663 O 0.15148 0.53772 0.26854 0.0
O664 O 0.16957 0.52371 0.2598 0.0
C665 C 0.16944 0.48189 0.26154 0.0
C666 C 0.16417 0.53692 0.26141 0.0
O667 O 0.1303 0.50661 0.28533 0.0
Mg668 Mg 0.7762 0.64906 0.01783 0.0
O669 O 0.7534 0.63443 0.01327 0.0
O670 O 0.73455 0.65084 0.01117 0.0
Mg671 Mg 0.74442 0.67509 0.01436 0.0
C672 C 0.73912 0.63729 0.01107 0.0
C673 C 0.80212 0.62786 0.02439 0.0
O674 O 0.8031 0.63829 0.03521 0.0
O675 O 0.77647 0.65632 0.99272 0.0
O676 O 0.75732 0.67256 0.99221 0.0
O677 O 0.77272 0.64934 0.04307 0.0
O678 O 0.76411 0.6666 0.02751 0.0
C679 C 0.7681 0.66582 0.98573 0.0
C680 C 0.76528 0.66159 0.04113 0.0
O681 O 0.79141 0.62863 0.01412 0.0
Mg682 Mg 0.90117 0.02689 0.25366 0.0
O683 O 0.88664 1.00443 0.24929 0.0
O684 O 0.90355 0.98698 0.24379 0.0
Mg685 Mg 0.92807 0.99774 0.24367 0.0
C686 C 0.88974 0.99079 0.24589 0.0
C687 C 0.88169 0.05319 0.26154 0.0
O688 O 0.89419 0.05888 0.25536 0.0
O689 O 0.91024 0.01852 0.27707 0.0
O690 O 0.92766 1.00244 0.26936 0.0
O691 O 0.89977 0.03265 0.22876 0.0
O692 O 0.91833 0.01974 0.23935 0.0
C693 C 0.92112 0.00948 0.27995 0.0
C694 C 0.91234 0.02548 0.22727 0.0
O695 O 0.88053 0.03891 0.26336 0.0
Mg696 Mg 0.27679 0.14963 0.51905 0.0
O697 O 0.25415 0.13492 0.51423 0.0
O698 O 0.2353 0.15137 0.51255 0.0
Mg699 Mg 0.24484 0.17557 0.51742 0.0
C700 C 0.2399 0.13784 0.51198 0.0
C701 C 0.30471 0.13073 0.52266 0.0
O702 O 0.30688 0.14255 0.53185 0.0
O703 O 0.27652 0.15803 0.49422 0.0
O704 O 0.25841 0.17521 0.49559 0.0
O705 O 0.27414 0.14881 0.54444 0.0
O706 O 0.26452 0.16638 0.52992 0.0
C707 C 0.26886 0.16873 0.48837 0.0
C708 C 0.2663 0.16089 0.54329 0.0
O709 O 0.29234 0.12973 0.51431 0.0
Mg710 Mg 0.40173 0.52754 0.75306 0.0
O711 O 0.38782 0.50476 0.7488 0.0
O712 O 0.40519 0.48757 0.74389 0.0
Mg713 Mg 0.42951 0.49885 0.74403 0.0
C714 C 0.39124 0.49115 0.74568 0.0
C715 C 0.38312 0.5525 0.7674 0.0
O716 O 0.39745 0.55808 0.76816 0.0
O717 O 0.41058 0.51963 0.77673 0.0
O718 O 0.42868 0.504 0.7696 0.0
O719 O 0.40069 0.53291 0.72803 0.0
O720 O 0.41933 0.52056 0.7392 0.0
C721 C 0.42174 0.51101 0.77994 0.0
C722 C 0.41344 0.52596 0.72691 0.0
O723 O 0.38057 0.53903 0.7623 0.0
Mg724 Mg 0.75308 0.37238 0.51395 0.0
O725 O 0.77601 0.38642 0.51065 0.0
O726 O 0.79482 0.36988 0.5117 0.0
Mg727 Mg 0.78459 0.34596 0.51517 0.0
C728 C 0.7903 0.38336 0.51024 0.0
C729 C 0.72375 0.38931 0.50596 0.0
O730 O 0.71895 0.375 0.50615 0.0
O731 O 0.75321 0.36313 0.48935 0.0
O732 O 0.77179 0.34643 0.49175 0.0
O733 O 0.75591 0.3743 0.53941 0.0
O734 O 0.76489 0.35574 0.52592 0.0
C735 C 0.76128 0.35275 0.48379 0.0
C736 C 0.76339 0.36195 0.53904 0.0
O737 O 0.73818 0.3925 0.50777 0.0
Mg738 Mg 0.65169 0.01353 0.77103 0.0
O739 O 0.63775 0.00975 0.74808 0.0
O740 O 0.65516 0.01094 0.73002 0.0
Mg741 Mg 0.67947 0.01561 0.74061 0.0
C742 C 0.64121 0.00918 0.73408 0.0
C743 C 0.63335 1.00497 0.79912 0.0
O744 O 0.64784 1.0053 0.80419 0.0
O745 O 0.66066 0.98919 0.76995 0.0
O746 O 0.67854 0.99271 0.75257 0.0
O747 O 0.65073 0.03901 0.76938 0.0
O748 O 0.66933 0.02584 0.76037 0.0
C749 C 0.67178 0.98439 0.76227 0.0
C750 C 0.66354 0.03882 0.76233 0.0
O751 O 0.63057 1.0069 0.78499 0.0
Mg752 Mg 0.03178 0.26215 0.89561 0.0
O753 O 0.00869 0.2582 0.8817 0.0
O754 O 0.99089 0.25126 0.89822 0.0
Mg755 Mg 1.0023 0.24983 0.92207 0.0
C756 C 0.99475 0.25433 0.88472 0.0
C757 C 0.0573 0.27865 0.87833 0.0
O758 O 0.06288 0.27831 0.89241 0.0
O759 O 0.02354 0.28465 0.90551 0.0
O760 O 1.00721 0.27561 0.92258 0.0
O761 O 0.03729 0.23762 0.89296 0.0
O762 O 0.02464 0.24667 0.91201 0.0
C763 C 0.01443 0.2867 0.9164 0.0
C764 C 0.03016 0.23515 0.90539 0.0
O765 O 0.04353 0.27347 0.87547 0.0
Mg766 Mg 0.53075 0.76227 0.39528 0.0
O767 O 0.5079 0.75792 0.38097 0.0
O768 O 0.48993 0.75059 0.39716 0.0
Mg769 Mg 0.50084 0.74992 0.42125 0.0
C770 C 0.49399 0.75369 0.38373 0.0
C771 C 0.5573 0.77576 0.37767 0.0
O772 O 0.56325 0.77269 0.39118 0.0
O773 O 0.52215 0.78478 0.40477 0.0
O774 O 0.50504 0.7758 0.42114 0.0
O775 O 0.53652 0.7378 0.39301 0.0
O776 O 0.52352 0.74695 0.41178 0.0
C777 C 0.51239 0.78687 0.41507 0.0
C778 C 0.52925 0.73542 0.40537 0.0
O779 O 0.5428 0.77345 0.37522 0.0
Mg780 Mg 1.00292 0.75746 0.62032 0.0
O781 O 0.02562 0.75374 0.63442 0.0
O782 O 0.04323 0.74828 0.61753 0.0
Mg783 Mg 0.0321 0.74709 0.59347 0.0
C784 C 0.03942 0.7506 0.63121 0.0
C785 C 0.97667 0.76873 0.63862 0.0
O786 O 0.97052 0.76479 0.62518 0.0
O787 O 0.01253 0.78056 0.61187 0.0
O788 O 0.02835 0.7727 0.59423 0.0
O789 O 0.99575 0.73275 0.62136 0.0
O790 O 0.00951 0.74255 0.60318 0.0
C791 C 0.02167 0.7833 0.60106 0.0
C792 C 1.00304 0.73073 0.60901 0.0
O793 O 0.99122 0.76783 0.6408 0.0
Mg794 Mg 0.50235 0.25702 0.12037 0.0
O795 O 0.52542 0.25343 0.13388 0.0
O796 O 0.54259 0.2478 0.11662 0.0
Mg797 Mg 0.53094 0.24696 0.09278 0.0
C798 C 0.5391 0.25016 0.13039 0.0
C799 C 0.47738 0.27119 0.13888 0.0
O800 O 0.4715 0.27044 0.12488 0.0
O801 O 0.51156 0.28026 0.11187 0.0
O802 O 0.52726 0.27255 0.09405 0.0
O803 O 0.49564 0.23214 0.12137 0.0
O804 O 0.50856 0.24243 0.10286 0.0
C805 C 0.52063 0.2831 0.10102 0.0
C806 C 0.50254 0.23044 0.10873 0.0
O807 O 0.49119 0.26715 0.14129 0.0
H808 H 0.24986 0.77846 0.85752 0.0
H809 H 0.25583 0.79494 0.87966 0.0
H810 H 0.20715 0.79773 0.88719 0.0
H811 H 0.20104 0.78169 0.8647 0.0
H812 H 0.22206 0.82514 0.89142 0.0
H813 H 0.22946 0.77436 0.9084 0.0
H814 H 0.2402 0.74899 0.90758 0.0
H815 H 0.28623 0.76894 0.91281 0.0
H816 H 0.27576 0.79445 0.91346 0.0
H817 H 0.23107 0.85268 0.96867 0.0
H818 H 0.22398 0.83988 0.94436 0.0
H819 H 0.27204 0.83175 0.93778 0.0
H820 H 0.27902 0.84387 0.9623 0.0
H821 H 0.25658 0.80701 0.93293 0.0
H822 H 0.24957 0.85787 0.916 0.0
H823 H 0.23904 0.88334 0.9166 0.0
H824 H 0.19288 0.86376 0.91111 0.0
H825 H 0.20312 0.83815 0.91067 0.0
C826 C 0.24039 0.7827 0.86376 0.0
C827 C 0.22496 0.77864 0.85933 0.0
C828 C 0.24383 0.79204 0.87652 0.0
C829 C 0.23194 0.79744 0.88524 0.0
C830 C 0.21652 0.79367 0.88069 0.0
C831 C 0.21306 0.78435 0.86791 0.0
C832 C 0.23563 0.80675 0.89926 0.0
C833 C 0.22948 0.82113 0.90059 0.0
C834 C 0.24552 0.80166 0.91112 0.0
C835 C 0.25183 0.78632 0.91084 0.0
C836 C 0.24187 0.77334 0.90927 0.0
C837 C 0.24791 0.75893 0.90885 0.0
C838 C 0.26389 0.75736 0.91011 0.0
C839 C 0.27386 0.77018 0.91182 0.0
C840 C 0.26788 0.78461 0.91223 0.0
C841 C 0.24013 0.84844 0.96186 0.0
C842 C 0.25559 0.84924 0.96741 0.0
C843 C 0.23607 0.84112 0.94793 0.0
C844 C 0.24747 0.83482 0.93912 0.0
C845 C 0.263 0.83636 0.94436 0.0
C846 C 0.26699 0.84337 0.95836 0.0
C847 C 0.24327 0.82563 0.92506 0.0
C848 C 0.24924 0.81115 0.92377 0.0
C849 C 0.23328 0.8307 0.91324 0.0
C850 C 0.22711 0.84609 0.91345 0.0
C851 C 0.23717 0.85899 0.91503 0.0
C852 C 0.23125 0.87345 0.91532 0.0
C853 C 0.2153 0.87516 0.91393 0.0
C854 C 0.20523 0.86242 0.9122 0.0
C855 C 0.21109 0.84793 0.91191 0.0
H856 H 0.21075 0.88637 0.91417 0.0
H857 H 0.26855 0.7462 0.90978 0.0
H858 H 0.02814 0.50436 0.40274 0.0
H859 H 0.04314 0.4984 0.38056 0.0
H860 H 0.05219 0.54611 0.37348 0.0
H861 H 0.03685 0.55212 0.3952 0.0
H862 H 0.04564 0.53214 0.34712 0.0
H863 H 0.07909 0.52332 0.39116 0.0
H864 H 0.08637 0.51134 0.41539 0.0
H865 H 0.08248 0.46749 0.3936 0.0
H866 H 0.07499 0.47921 0.36927 0.0
H867 H 0.115 0.54047 0.30963 0.0
H868 H 0.09463 0.53937 0.32785 0.0
H869 H 0.08984 0.49087 0.32183 0.0
H870 H 0.11042 0.49189 0.30328 0.0
H871 H 0.09155 0.50074 0.35278 0.0
H872 H 0.06199 0.51074 0.3076 0.0
H873 H 0.05567 0.52349 0.28356 0.0
H874 H 0.05287 0.56579 0.30764 0.0
H875 H 0.0594 0.55335 0.33182 0.0
C876 C 0.03316 0.51358 0.39634 0.0
C877 C 0.03138 0.52873 0.40087 0.0
C878 C 0.04186 0.51015 0.38373 0.0
C879 C 0.04899 0.5218 0.37542 0.0
C880 C 0.04687 0.5369 0.3797 0.0
C881 C 0.0382 0.54033 0.39225 0.0
C882 C 0.0589 0.51846 0.36241 0.0
C883 C 0.0557 0.52531 0.3484 0.0
C884 C 0.07179 0.50916 0.36385 0.0
C885 C 0.07629 0.50212 0.37845 0.0
C886 C 0.07966 0.51111 0.39157 0.0
C887 C 0.08385 0.50437 0.40531 0.0
C888 C 0.08483 0.48866 0.40605 0.0
C889 C 0.08168 0.47965 0.39303 0.0
C890 C 0.07747 0.48634 0.37926 0.0
C891 C 0.1096 0.52953 0.31206 0.0
C892 C 0.11437 0.51625 0.30497 0.0
C893 C 0.09788 0.52894 0.32247 0.0
C894 C 0.0906 0.51507 0.32614 0.0
C895 C 0.09527 0.50172 0.31912 0.0
C896 C 0.10697 0.50232 0.30849 0.0
C897 C 0.0785 0.51478 0.33769 0.0
C898 C 0.08129 0.50729 0.35142 0.0
C899 C 0.06527 0.52357 0.33604 0.0
C900 C 0.06127 0.53111 0.32153 0.0
C901 C 0.06014 0.52279 0.30777 0.0
C902 C 0.0565 0.52995 0.29411 0.0
C903 C 0.05389 0.54544 0.29407 0.0
C904 C 0.05489 0.55379 0.30769 0.0
C905 C 0.05854 0.54668 0.32138 0.0
H906 H 0.05108 0.55097 0.28349 0.0
H907 H 0.08808 0.48346 0.4167 0.0
H908 H 0.76428 0.73767 0.86172 0.0
H909 H 0.76248 0.72015 0.88282 0.0
H910 H 0.81155 0.72635 0.89241 0.0
H911 H 0.81345 0.74414 0.87134 0.0
H912 H 0.80019 0.69579 0.89548 0.0
H913 H 0.78882 0.74571 0.91296 0.0
H914 H 0.7756 0.76984 0.91194 0.0
H915 H 0.73171 0.74591 0.91553 0.0
H916 H 0.74466 0.72161 0.91634 0.0
H917 H 0.79625 0.66893 0.97259 0.0
H918 H 0.80162 0.68141 0.94852 0.0
H919 H 0.75264 0.68525 0.93936 0.0
H920 H 0.74735 0.67345 0.96359 0.0
H921 H 0.76595 0.71119 0.93622 0.0
H922 H 0.77677 0.66116 0.91845 0.0
H923 H 0.78961 0.63681 0.91888 0.0
H924 H 0.83381 0.6602 0.91556 0.0
H925 H 0.82125 0.68472 0.9153 0.0
C926 C 0.77472 0.73534 0.86829 0.0
C927 C 0.78897 0.74254 0.86496 0.0
C928 C 0.77368 0.72524 0.8803 0.0
C929 C 0.78684 0.72209 0.88932 0.0
C930 C 0.80124 0.72862 0.88559 0.0
C931 C 0.8023 0.73878 0.87354 0.0
C932 C 0.78524 0.71286 0.90322 0.0
C933 C 0.79286 0.6992 0.9045 0.0
C934 C 0.7755 0.71721 0.91488 0.0
C935 C 0.7677 0.73183 0.91458 0.0
C936 C 0.77634 0.74558 0.91343 0.0
C937 C 0.7689 0.75929 0.9129 0.0
C938 C 0.75282 0.75941 0.91364 0.0
C939 C 0.74416 0.74581 0.91495 0.0
C940 C 0.75155 0.73206 0.91545 0.0
C941 C 0.78665 0.67211 0.96523 0.0
C942 C 0.77139 0.67028 0.96999 0.0
C943 C 0.78972 0.67925 0.95145 0.0
C944 C 0.77754 0.68435 0.94205 0.0
C945 C 0.76226 0.6816 0.94643 0.0
C946 C 0.75924 0.67477 0.96026 0.0
C947 C 0.78053 0.69376 0.92842 0.0
C948 C 0.77326 0.70763 0.92724 0.0
C949 C 0.79051 0.68951 0.91687 0.0
C950 C 0.79808 0.67478 0.91702 0.0
C951 C 0.78924 0.66112 0.91794 0.0
C952 C 0.79646 0.64728 0.91812 0.0
C953 C 0.81252 0.64696 0.91729 0.0
C954 C 0.82138 0.66047 0.91623 0.0
C955 C 0.81421 0.67434 0.91605 0.0
H956 H 0.81809 0.63623 0.91744 0.0
H957 H 0.74708 0.77003 0.91322 0.0
H958 H 0.0086 0.98156 0.39381 0.0
H959 H 0.99343 0.98744 0.37086 0.0
H960 H 0.95817 1.00547 0.39829 0.0
H961 H 0.97328 0.99943 0.42136 0.0
H962 H 0.94495 0.98893 0.37591 0.0
H963 H 0.98339 0.02902 0.37883 0.0
H964 H 0.00961 0.041 0.38163 0.0
H965 H 0.02265 0.01802 0.34114 0.0
H966 H 0.99657 1.00572 0.3382 0.0
H967 H 0.91005 0.02044 0.30689 0.0
H968 H 0.92184 0.01824 0.33264 0.0
H969 H 0.95818 0.9925 0.31446 0.0
H970 H 0.94659 0.99442 0.28905 0.0
H971 H 0.96914 0.01646 0.33362 0.0
H972 H 0.93069 0.97475 0.3327 0.0
H973 H 0.90413 0.96351 0.33016 0.0
H974 H 0.89067 0.9913 0.36733 0.0
H975 H 0.91712 1.00286 0.36995 0.0
C976 C 0.99771 0.98694 0.39498 0.0
C977 C 0.99222 0.99011 0.40945 0.0
C978 C 0.98901 0.9903 0.38183 0.0
C979 C 0.97472 0.99714 0.38278 0.0
C980 C 0.96915 1.00022 0.39722 0.0
C981 C 0.9778 0.99675 0.41041 0.0
C982 C 0.96559 1.00082 0.36868 0.0
C983 C 0.95018 0.99521 0.36679 0.0
C984 C 0.97233 0.00896 0.35668 0.0
C985 C 0.98804 0.01636 0.35836 0.0
C986 C 0.99188 0.02643 0.37058 0.0
C987 C 1.00671 0.03329 0.37218 0.0
C988 C 0.01779 0.03025 0.36159 0.0
C989 C 0.01405 0.02036 0.34935 0.0
C990 C 0.99924 0.01346 0.34769 0.0
C991 C 0.92048 0.01421 0.30842 0.0
C992 C 0.92733 0.00763 0.29583 0.0
C993 C 0.9272 0.01296 0.32313 0.0
C994 C 0.94094 1.00525 0.32545 0.0
C995 C 0.94764 0.99857 0.31294 0.0
C996 C 0.9409 0.99965 0.29837 0.0
C997 C 0.94873 1.00423 0.34075 0.0
C998 C 0.96389 0.01038 0.34285 0.0
C999 C 0.94169 0.99675 0.35296 0.0
C1000 C 0.92582 0.98981 0.35139 0.0
C1001 C 0.92203 0.97857 0.34023 0.0
C1002 C 0.90701 0.97212 0.3388 0.0
C1003 C 0.89571 0.97673 0.34855 0.0
C1004 C 0.89943 0.98777 0.35977 0.0
C1005 C 0.91443 0.99427 0.36124 0.0
H1006 H 0.88409 0.97172 0.34743 0.0
H1007 H 0.02927 0.03557 0.36285 0.0
H1008 H 0.24906 0.23542 0.66882 0.0
H1009 H 0.25498 0.21779 0.64843 0.0
H1010 H 0.22142 0.23822 0.61855 0.0
H1011 H 0.21531 0.25574 0.63897 0.0
H1012 H 0.2186 0.20882 0.61525 0.0
H1013 H 0.26125 0.24515 0.61586 0.0
H1014 H 0.28331 0.26066 0.62704 0.0
H1015 H 0.30643 0.22035 0.63935 0.0
H1016 H 0.2844 0.20459 0.62842 0.0
H1017 H 0.24593 0.18375 0.54408 0.0
H1018 H 0.23861 0.19831 0.5662 0.0
H1019 H 0.26668 0.17086 0.59537 0.0
H1020 H 0.27389 0.156 0.57323 0.0
H1021 H 0.27238 0.20255 0.5997 0.0
H1022 H 0.22939 0.16642 0.59716 0.0
H1023 H 0.20741 0.15182 0.5847 0.0
H1024 H 0.185 0.19306 0.5745 0.0
H1025 H 0.20697 0.20794 0.58672 0.0
C1026 C 0.24304 0.23625 0.65786 0.0
C1027 C 0.23175 0.24703 0.65552 0.0
C1028 C 0.24643 0.22614 0.6462 0.0
C1029 C 0.23879 0.22674 0.63184 0.0
C1030 C 0.22747 0.23747 0.62951 0.0
C1031 C 0.22398 0.24749 0.64121 0.0
C1032 C 0.24249 0.21615 0.61929 0.0
C1033 C 0.23035 0.2076 0.61176 0.0
C1034 C 0.25785 0.21426 0.61487 0.0
C1035 C 0.2711 0.2237 0.62148 0.0
C1036 C 0.27098 0.2396 0.62107 0.0
C1037 C 0.28349 0.24843 0.62734 0.0
C1038 C 0.29624 0.24149 0.63394 0.0
C1039 C 0.29653 0.2257 0.63425 0.0
C1040 C 0.28404 0.21682 0.62802 0.0
C1041 C 0.25036 0.1806 0.55519 0.0
C1042 C 0.26046 0.16864 0.55685 0.0
C1043 C 0.24616 0.18897 0.56785 0.0
C1044 C 0.25208 0.18567 0.58244 0.0
C1045 C 0.26197 0.17359 0.5842 0.0
C1046 C 0.266 0.16506 0.57155 0.0
C1047 C 0.24851 0.19534 0.59569 0.0
C1048 C 0.26066 0.20373 0.6033 0.0
C1049 C 0.23316 0.19722 0.60005 0.0
C1050 C 0.2199 0.18831 0.59274 0.0
C1051 C 0.21984 0.17239 0.59215 0.0
C1052 C 0.20737 0.16406 0.58515 0.0
C1053 C 0.19483 0.17151 0.57878 0.0
C1054 C 0.19473 0.18731 0.57943 0.0
C1055 C 0.20718 0.1957 0.5864 0.0
H1056 H 0.18518 0.16504 0.57336 0.0
H1057 H 0.30592 0.24835 0.63878 0.0
H1058 H 0.49473 0.563 0.61528 0.0
H1059 H 0.47921 0.55797 0.63733 0.0
H1060 H 0.47435 0.51072 0.62439 0.0
H1061 H 0.48952 0.51575 0.60196 0.0
H1062 H 0.44715 0.52091 0.63325 0.0
H1063 H 0.4993 0.52229 0.65329 0.0
H1064 H 0.52592 0.53288 0.65782 0.0
H1065 H 0.50863 0.57177 0.68017 0.0
H1066 H 0.48187 0.56152 0.67558 0.0
H1067 H 0.44075 0.51277 0.72176 0.0
H1068 H 0.45519 0.51307 0.69857 0.0
H1069 H 0.41923 0.53766 0.67596 0.0
H1070 H 0.4045 0.53709 0.69912 0.0
H1071 H 0.46752 0.53635 0.68488 0.0
H1072 H 0.41894 0.53029 0.63763 0.0
H1073 H 0.39313 0.51764 0.63342 0.0
H1074 H 0.40476 0.48409 0.66626 0.0
H1075 H 0.43069 0.4964 0.67051 0.0
C1076 C 0.49027 0.55154 0.61702 0.0
C1077 C 0.49339 0.53978 0.6068 0.0
C1078 C 0.48149 0.54866 0.62973 0.0
C1079 C 0.47571 0.53394 0.63263 0.0
C1080 C 0.4787 0.52217 0.62242 0.0
C1081 C 0.48751 0.52504 0.60968 0.0
C1082 C 0.46662 0.5309 0.64636 0.0
C1083 C 0.45161 0.52427 0.64455 0.0
C1084 C 0.47249 0.53501 0.66115 0.0
C1085 C 0.48857 0.54119 0.66398 0.0
C1086 C 0.50116 0.53316 0.65907 0.0
C1087 C 0.51628 0.53909 0.66166 0.0
C1088 C 0.51896 0.553 0.66925 0.0
C1089 C 0.50653 0.561 0.67428 0.0
C1090 C 0.49139 0.55513 0.6717 0.0
C1091 C 0.43573 0.51799 0.7118 0.0
C1092 C 0.4214 0.52484 0.71232 0.0
C1093 C 0.44408 0.51825 0.69854 0.0
C1094 C 0.43833 0.52535 0.68545 0.0
C1095 C 0.42385 0.53192 0.68581 0.0
C1096 C 0.41544 0.53162 0.6991 0.0
C1097 C 0.44791 0.5266 0.67179 0.0
C1098 C 0.46303 0.53294 0.6736 0.0
C1099 C 0.44222 0.52196 0.65707 0.0
C1100 C 0.42671 0.51437 0.65448 0.0
C1101 C 0.41601 0.52018 0.64391 0.0
C1102 C 0.40135 0.51307 0.64152 0.0
C1103 C 0.39729 0.5001 0.64961 0.0
C1104 C 0.40789 0.49417 0.66005 0.0
C1105 C 0.42257 0.50122 0.66247 0.0
H1106 H 0.38594 0.49462 0.64776 0.0
H1107 H 0.53067 0.55758 0.67124 0.0
H1108 H 0.80246 0.26776 0.6417 0.0
H1109 H 0.79989 0.28525 0.62058 0.0
H1110 H 0.77317 0.31428 0.64813 0.0
H1111 H 0.77555 0.29669 0.66923 0.0
H1112 H 0.7596 0.31078 0.62134 0.0
H1113 H 0.81136 0.32377 0.63901 0.0
H1114 H 0.83838 0.31925 0.6469 0.0
H1115 H 0.84633 0.30114 0.60254 0.0
H1116 H 0.81929 0.30536 0.59444 0.0
H1117 H 0.75897 0.37063 0.56846 0.0
H1118 H 0.76548 0.35682 0.59159 0.0
H1119 H 0.78693 0.32298 0.56486 0.0
H1120 H 0.78039 0.33661 0.5417 0.0
H1121 H 0.8037 0.3304 0.59199 0.0
H1122 H 0.75125 0.31623 0.57523 0.0
H1123 H 0.72427 0.32114 0.56755 0.0
H1124 H 0.7179 0.34222 0.61095 0.0
H1125 H 0.74494 0.33763 0.6188 0.0
C1126 C 0.79622 0.27798 0.64334 0.0
C1127 C 0.78922 0.28083 0.65717 0.0
C1128 C 0.79477 0.288 0.63124 0.0
C1129 C 0.78648 0.30122 0.63277 0.0
C1130 C 0.77961 0.30416 0.64663 0.0
C1131 C 0.78095 0.29409 0.65869 0.0
C1132 C 0.78439 0.31162 0.61972 0.0
C1133 C 0.7693 0.31528 0.61513 0.0
C1134 C 0.79697 0.31729 0.61135 0.0
C1135 C 0.81325 0.31476 0.61616 0.0
C1136 C 0.81884 0.31872 0.63097 0.0
C1137 C 0.83416 0.31622 0.63548 0.0
C1138 C 0.84405 0.30988 0.62524 0.0
C1139 C 0.83865 0.30604 0.61046 0.0
C1140 C 0.82333 0.30849 0.6059 0.0
C1141 C 0.76528 0.36037 0.5675 0.0
C1142 C 0.76911 0.35472 0.55319 0.0
C1143 C 0.76894 0.35247 0.58075 0.0
C1144 C 0.77655 0.33878 0.57994 0.0
C1145 C 0.78106 0.33351 0.56576 0.0
C1146 C 0.7773 0.34134 0.5525 0.0
C1147 C 0.77898 0.32948 0.59371 0.0
C1148 C 0.79408 0.326 0.59836 0.0
C1149 C 0.76643 0.32403 0.60221 0.0
C1150 C 0.75016 0.32674 0.59753 0.0
C1151 C 0.74414 0.32203 0.58308 0.0
C1152 C 0.72883 0.32473 0.57871 0.0
C1153 C 0.71939 0.33203 0.58874 0.0
C1154 C 0.72523 0.3366 0.60318 0.0
C1155 C 0.74055 0.33394 0.6076 0.0
H1156 H 0.70754 0.33411 0.58533 0.0
H1157 H 0.85592 0.30796 0.62875 0.0
H1158 H 0.52548 0.97541 0.63796 0.0
H1159 H 0.54297 0.97996 0.66028 0.0
H1160 H 0.57795 0.99865 0.63157 0.0
H1161 H 0.56065 0.99391 0.60922 0.0
H1162 H 0.58957 0.97823 0.65149 0.0
H1163 H 0.55751 0.02149 0.65374 0.0
H1164 H 0.5328 0.03422 0.65478 0.0
H1165 H 0.52284 0.01164 0.69636 0.0
H1166 H 0.54741 0.99861 0.69545 0.0
H1167 H 0.64348 0.01294 0.70353 0.0
H1168 H 0.62373 0.00791 0.68347 0.0
H1169 H 0.5911 0.9939 0.71681 0.0
H1170 H 0.61084 0.99934 0.73716 0.0
H1171 H 0.57714 0.01021 0.69572 0.0
H1172 H 0.60901 0.96769 0.69454 0.0
H1173 H 0.63332 0.95423 0.69387 0.0
H1174 H 0.64301 0.97399 0.65082 0.0
H1175 H 0.61886 0.98774 0.65132 0.0
C1176 C 0.5369 0.98048 0.6364 0.0
C1177 C 0.54164 0.98433 0.62178 0.0
C1178 C 0.54685 0.98318 0.64919 0.0
C1179 C 0.56176 0.98974 0.64763 0.0
C1180 C 0.56649 0.9936 0.63307 0.0
C1181 C 0.55654 0.991 0.6203 0.0
C1182 C 0.57262 0.99224 0.66107 0.0
C1183 C 0.58692 0.98536 0.66108 0.0
C1184 C 0.56896 1.00109 0.67387 0.0
C1185 C 0.55422 0.00895 0.67444 0.0
C1186 C 0.54999 0.01914 0.66304 0.0
C1187 C 0.53602 0.02643 0.66362 0.0
C1188 C 0.52624 0.02371 0.67561 0.0
C1189 C 0.53042 0.01372 0.68707 0.0
C1190 C 0.54437 1.00639 0.68653 0.0
C1191 C 0.63212 0.00877 0.70667 0.0
C1192 C 0.62883 1.00642 0.72201 0.0
C1193 C 0.62082 1.00584 0.69513 0.0
C1194 C 0.60597 1.00019 0.69854 0.0
C1195 C 0.60249 0.99816 0.71386 0.0
C1196 C 0.6138 1.00125 0.72549 0.0
C1197 C 0.59425 0.99643 0.68601 0.0
C1198 C 0.57978 1.00301 0.68618 0.0
C1199 C 0.59767 0.98716 0.67342 0.0
C1200 C 0.61218 0.97884 0.67303 0.0
C1201 C 0.61638 0.96925 0.68497 0.0
C1202 C 0.63012 0.96155 0.68462 0.0
C1203 C 0.63972 0.96328 0.67233 0.0
C1204 C 0.63557 0.97267 0.66034 0.0
C1205 C 0.62185 0.98041 0.66065 0.0
H1206 H 0.65036 0.95732 0.67208 0.0
H1207 H 0.51543 0.02937 0.67604 0.0
H1208 H 0.90334 0.24741 0.76401 0.0
H1209 H 0.92441 0.24919 0.78334 0.0
H1210 H 0.89153 0.24312 0.81849 0.0
H1211 H 0.87033 0.24181 0.79924 0.0
H1212 H 0.91221 0.26564 0.82594 0.0
H1213 H 0.91442 0.2144 0.80776 0.0
H1214 H 0.91602 0.19406 0.78851 0.0
H1215 H 0.95986 0.213 0.77529 0.0
H1216 H 0.95843 0.23358 0.79434 0.0
H1217 H 0.9636 0.24906 0.88725 0.0
H1218 H 0.94352 0.24749 0.86702 0.0
H1219 H 0.9779 0.25583 0.8337 0.0
H1220 H 0.9982 0.25736 0.85394 0.0
H1221 H 0.95708 0.23269 0.82483 0.0
H1222 H 0.95506 0.28363 0.84348 0.0
H1223 H 0.95348 0.3038 0.86291 0.0
H1224 H 0.90918 0.28529 0.87534 0.0
H1225 H 0.91061 0.26486 0.85613 0.0
C1226 C 0.90056 0.24653 0.77586 0.0
C1227 C 0.8851 0.24447 0.78004 0.0
C1228 C 0.91265 0.24741 0.7869 0.0
C1229 C 0.9096 0.24615 0.80239 0.0
C1230 C 0.89419 0.24408 0.80661 0.0
C1231 C 0.88209 0.2432 0.79557 0.0
C1232 C 0.92243 0.24729 0.8142 0.0
C1233 C 0.92191 0.25829 0.8258 0.0
C1234 C 0.93533 0.23799 0.81382 0.0
C1235 C 0.93624 0.22562 0.80237 0.0
C1236 C 0.92434 0.2143 0.80067 0.0
C1237 C 0.92523 0.20272 0.78981 0.0
C1238 C 0.93801 0.20227 0.78065 0.0
C1239 C 0.94996 0.21338 0.78237 0.0
C1240 C 0.94912 0.225 0.79321 0.0
C1241 C 0.96696 0.25058 0.87564 0.0
C1242 C 0.98258 0.25339 0.87228 0.0
C1243 C 0.95542 0.24973 0.86407 0.0
C1244 C 0.95916 0.2517 0.84884 0.0
C1245 C 0.97473 0.25431 0.84538 0.0
C1246 C 0.98632 0.25523 0.85698 0.0
C1247 C 0.94677 0.25096 0.83661 0.0
C1248 C 0.94738 0.24005 0.82493 0.0
C1249 C 0.93394 0.26033 0.83692 0.0
C1250 C 0.93301 0.27263 0.84846 0.0
C1251 C 0.94504 0.28378 0.85044 0.0
C1252 C 0.94416 0.29528 0.8614 0.0
C1253 C 0.93125 0.2958 0.87038 0.0
C1254 C 0.91918 0.28486 0.86839 0.0
C1255 C 0.92001 0.27333 0.85746 0.0
H1256 H 0.93059 0.30471 0.87886 0.0
H1257 H 0.93868 0.19329 0.77225 0.0
H1258 H 0.47062 0.8961 0.49586 0.0
H1259 H 0.47717 0.87423 0.48058 0.0
H1260 H 0.5175 0.89897 0.46526 0.0
H1261 H 0.51081 0.92112 0.48037 0.0
H1262 H 0.50172 0.88324 0.44174 0.0
H1263 H 0.52206 0.87237 0.49126 0.0
H1264 H 0.52186 0.86961 0.51907 0.0
H1265 H 0.48554 0.83506 0.51389 0.0
H1266 H 0.48536 0.83776 0.48604 0.0
H1267 H 0.53012 0.81321 0.41124 0.0
H1268 H 0.5275 0.83775 0.42411 0.0
H1269 H 0.48674 0.82001 0.44549 0.0
H1270 H 0.48932 0.79564 0.43292 0.0
H1271 H 0.50649 0.83327 0.46601 0.0
H1272 H 0.48493 0.84575 0.41646 0.0
H1273 H 0.48525 0.84864 0.38865 0.0
H1274 H 0.52438 0.88008 0.39392 0.0
H1275 H 0.5244 0.87722 0.42176 0.0
C1276 C 0.48083 0.89696 0.48918 0.0
C1277 C 0.49018 0.91039 0.48936 0.0
C1278 C 0.48464 0.88439 0.48052 0.0
C1279 C 0.49791 0.88489 0.47186 0.0
C1280 C 0.50723 0.8983 0.47188 0.0
C1281 C 0.50346 0.91091 0.48062 0.0
C1282 C 0.50196 0.8713 0.4629 0.0
C1283 C 0.50303 0.87236 0.44706 0.0
C1284 C 0.50354 0.85706 0.4698 0.0
C1285 C 0.50362 0.85536 0.48656 0.0
C1286 C 0.51395 0.86426 0.49605 0.0
C1287 C 0.51392 0.86269 0.51183 0.0
C1288 C 0.50367 0.85219 0.51825 0.0
C1289 C 0.49346 0.8432 0.5089 0.0
C1290 C 0.49343 0.84474 0.49312 0.0
C1291 C 0.52047 0.81462 0.4185 0.0
C1292 C 0.51001 0.80238 0.42111 0.0
C1293 C 0.51899 0.82867 0.42586 0.0
C1294 C 0.50695 0.83073 0.43585 0.0
C1295 C 0.49621 0.81868 0.43797 0.0
C1296 C 0.4977 0.80473 0.43071 0.0
C1297 C 0.50576 0.84507 0.44477 0.0
C1298 C 0.50531 0.84416 0.46066 0.0
C1299 C 0.5048 0.85941 0.43789 0.0
C1300 C 0.50478 0.86113 0.42117 0.0
C1301 C 0.49368 0.85317 0.41168 0.0
C1302 C 0.49379 0.85483 0.39591 0.0
C1303 C 0.50486 0.8645 0.38952 0.0
C1304 C 0.51583 0.87257 0.39889 0.0
C1305 C 0.51578 0.87094 0.41466 0.0
H1306 H 0.50492 0.86577 0.37732 0.0
H1307 H 0.50367 0.85098 0.53046 0.0
H1308 H 0.17359 0.31495 0.80056 0.0
H1309 H 0.15251 0.30898 0.81733 0.0
H1310 H 0.12372 0.29289 0.77886 0.0
H1311 H 0.14473 0.29927 0.76186 0.0
H1312 H 0.10771 0.31031 0.79801 0.0
H1313 H 0.13962 0.26787 0.80274 0.0
H1314 H 0.16389 0.25466 0.80681 0.0
H1315 H 0.16974 0.27414 0.85173 0.0
H1316 H 0.14561 0.28764 0.84785 0.0
H1317 H 0.05185 0.27591 0.84734 0.0
H1318 H 0.07026 0.28122 0.82744 0.0
H1319 H 0.10448 0.29724 0.86154 0.0
H1320 H 0.08633 0.29178 0.88139 0.0
H1321 H 0.1166 0.27785 0.84274 0.0
H1322 H 0.08535 0.3215 0.83721 0.0
H1323 H 0.06108 0.33468 0.83295 0.0
H1324 H 0.05382 0.31255 0.78937 0.0
H1325 H 0.07796 0.29908 0.79347 0.0
C1326 C 0.16275 0.31026 0.79561 0.0
C1327 C 0.16088 0.30762 0.77983 0.0
C1328 C 0.15073 0.30672 0.80525 0.0
C1329 C 0.13656 0.30033 0.7994 0.0
C1330 C 0.13457 0.29777 0.78365 0.0
C1331 C 0.14663 0.3013 0.77396 0.0
C1332 C 0.12392 0.2964 0.80983 0.0
C1333 C 0.10956 0.30301 0.80765 0.0
C1334 C 0.12636 0.28703 0.82254 0.0
C1335 C 0.14086 0.27887 0.82495 0.0
C1336 C 0.14614 0.26943 0.81345 0.0
C1337 C 0.15986 0.26187 0.81573 0.0
C1338 C 0.16837 0.26358 0.82951 0.0
C1339 C 0.16314 0.27283 0.84105 0.0
C1340 C 0.14943 0.28043 0.83883 0.0
C1341 C 0.06323 0.28075 0.85057 0.0
C1342 C 0.06761 0.28336 0.86599 0.0
C1343 C 0.07375 0.2838 0.83917 0.0
C1344 C 0.0888 0.28965 0.84296 0.0
C1345 C 0.09299 0.29265 0.85831 0.0
C1346 C 0.08255 0.28956 0.86966 0.0
C1347 C 0.1005 0.29206 0.83116 0.0
C1348 C 0.11469 0.28509 0.83305 0.0
C1349 C 0.09786 0.30106 0.81819 0.0
C1350 C 0.08336 0.30915 0.81572 0.0
C1351 C 0.07851 0.31935 0.82678 0.0
C1352 C 0.06479 0.32689 0.82438 0.0
C1353 C 0.05589 0.32442 0.81092 0.0
C1354 C 0.06071 0.31443 0.7998 0.0
C1355 C 0.07441 0.30684 0.80215 0.0
H1356 H 0.04527 0.33027 0.80908 0.0
H1357 H 0.17899 0.25772 0.83125 0.0
H1358 H 0.53682 0.6248 0.4978 0.0
H1359 H 0.53213 0.64719 0.48263 0.0
H1360 H 0.54549 0.62343 0.44246 0.0
H1361 H 0.55086 0.60122 0.45765 0.0
H1362 H 0.55858 0.65105 0.44371 0.0
H1363 H 0.50701 0.63011 0.44919 0.0
H1364 H 0.4848 0.6202 0.46327 0.0
H1365 H 0.48302 0.66272 0.48717 0.0
H1366 H 0.50536 0.67283 0.47338 0.0
H1367 H 0.5363 0.70813 0.39283 0.0
H1368 H 0.53728 0.68369 0.40549 0.0
H1369 H 0.52191 0.70421 0.44666 0.0
H1370 H 0.52033 0.72846 0.4339 0.0
H1371 H 0.50912 0.67729 0.44381 0.0
H1372 H 0.56135 0.69772 0.44013 0.0
H1373 H 0.58398 0.70794 0.42686 0.0
H1374 H 0.58498 0.66675 0.40055 0.0
H1375 H 0.56222 0.65636 0.41354 0.0
C1376 C 0.53886 0.62434 0.48576 0.0
C1377 C 0.54421 0.61114 0.47898 0.0
C1378 C 0.53599 0.63712 0.47705 0.0
C1379 C 0.53824 0.63697 0.46133 0.0
C1380 C 0.54358 0.62382 0.45454 0.0
C1381 C 0.54651 0.61106 0.46324 0.0
C1382 C 0.53554 0.65066 0.45206 0.0
C1383 C 0.54767 0.65664 0.44354 0.0
C1384 C 0.52145 0.65821 0.4521 0.0
C1385 C 0.50794 0.65218 0.46033 0.0
C1386 C 0.50195 0.63731 0.45752 0.0
C1387 C 0.48933 0.63167 0.46544 0.0
C1388 C 0.48253 0.64081 0.47613 0.0
C1389 C 0.48831 0.65565 0.4789 0.0
C1390 C 0.50094 0.66134 0.47102 0.0
C1391 C 0.53294 0.70738 0.40452 0.0
C1392 C 0.52832 0.72026 0.41238 0.0
C1393 C 0.53361 0.69341 0.41179 0.0
C1394 C 0.53002 0.69213 0.42718 0.0
C1395 C 0.5248 0.70487 0.43482 0.0
C1396 C 0.52391 0.71876 0.4275 0.0
C1397 C 0.5322 0.67774 0.43552 0.0
C1398 C 0.52 0.67164 0.44389 0.0
C1399 C 0.54627 0.67013 0.43545 0.0
C1400 C 0.56 0.67633 0.42769 0.0
C1401 C 0.56634 0.69089 0.43145 0.0
C1402 C 0.5792 0.69671 0.42399 0.0
C1403 C 0.58589 0.68802 0.41284 0.0
C1404 C 0.57977 0.67348 0.40917 0.0
C1405 C 0.5669 0.66762 0.41658 0.0
H1406 H 0.59584 0.69254 0.40708 0.0
H1407 H 0.47276 0.63642 0.48226 0.0
H1408 H 0.89805 0.78845 0.75969 0.0
H1409 H 0.91753 0.78685 0.74045 0.0
H1410 H 0.88142 0.78219 0.70532 0.0
H1411 H 0.86188 0.78334 0.72454 0.0
H1412 H 0.90266 0.76159 0.70155 0.0
H1413 H 0.90348 0.8153 0.71072 0.0
H1414 H 0.90575 0.83878 0.72624 0.0
H1415 H 0.95183 0.82833 0.74111 0.0
H1416 H 0.94975 0.80467 0.72583 0.0
H1417 H 0.94557 0.77218 0.63655 0.0
H1418 H 0.92811 0.77644 0.65702 0.0
H1419 H 0.96671 0.77843 0.68956 0.0
H1420 H 0.98445 0.77425 0.66896 0.0
H1421 H 0.94534 0.80008 0.69557 0.0
H1422 H 0.94466 0.74663 0.68606 0.0
H1423 H 0.94241 0.72319 0.67046 0.0
H1424 H 0.89598 0.73316 0.65637 0.0
H1425 H 0.89802 0.75678 0.67172 0.0
C1426 C 0.89424 0.78706 0.74787 0.0
C1427 C 0.87836 0.786 0.74369 0.0
C1428 C 0.90541 0.78629 0.73685 0.0
C1429 C 0.90098 0.78452 0.72139 0.0
C1430 C 0.88515 0.78359 0.71717 0.0
C1431 C 0.87397 0.78438 0.72817 0.0
C1432 C 0.91279 0.78303 0.70965 0.0
C1433 C 0.91185 0.77013 0.70013 0.0
C1434 C 0.92512 0.79391 0.70806 0.0
C1435 C 0.9264 0.80813 0.71725 0.0
C1436 C 0.91405 0.81794 0.7174 0.0
C1437 C 0.91531 0.8313 0.72614 0.0
C1438 C 0.92891 0.83502 0.7347 0.0
C1439 C 0.94129 0.82542 0.7345 0.0
C1440 C 0.94009 0.81204 0.72579 0.0
C1441 C 0.95044 0.77363 0.64803 0.0
C1442 C 0.96644 0.77273 0.6511 0.0
C1443 C 0.94039 0.77602 0.65975 0.0
C1444 C 0.94604 0.7775 0.67488 0.0
C1445 C 0.96208 0.77725 0.67798 0.0
C1446 C 0.9722 0.77484 0.6662 0.0
C1447 C 0.93504 0.77875 0.68737 0.0
C1448 C 0.93615 0.79155 0.69704 0.0
C1449 C 0.92285 0.76778 0.68914 0.0
C1450 C 0.92155 0.75354 0.67993 0.0
C1451 C 0.93401 0.74388 0.67954 0.0
C1452 C 0.93276 0.73056 0.67076 0.0
C1453 C 0.91907 0.72671 0.6624 0.0
C1454 C 0.90658 0.73616 0.66283 0.0
C1455 C 0.90777 0.74952 0.67159 0.0
H1456 H 0.91813 0.71638 0.65561 0.0
H1457 H 0.92987 0.84537 0.74145 0.0
H1458 H 0.04931 0.8966 0.51778 0.0
H1459 H 0.04322 0.87366 0.53187 0.0
H1460 H 0.03061 0.90081 0.57014 0.0
H1461 H 0.03687 0.92387 0.5561 0.0
H1462 H 0.04707 0.87843 0.57999 0.0
H1463 H 1.00288 0.88163 0.54666 0.0
H1464 H 0.98827 0.88456 0.52235 0.0
H1465 H 1.0073 0.84417 0.50473 0.0
H1466 H 0.0222 0.8411 0.52887 0.0
H1467 H 0.01324 0.81033 0.61392 0.0
H1468 H 0.01622 0.83582 0.6032 0.0
H1469 H 0.03785 0.81708 0.56437 0.0
H1470 H 0.03518 0.79188 0.57493 0.0
H1471 H 0.01382 0.8365 0.55673 0.0
H1472 H 0.05963 0.83519 0.59016 0.0
H1473 H 0.07347 0.83257 0.61494 0.0
H1474 H 0.0496 0.86993 0.63306 0.0
H1475 H 0.03546 0.87263 0.60842 0.0
C1476 C 0.04506 0.89771 0.52912 0.0
C1477 C 0.04349 0.9121 0.53575 0.0
C1478 C 0.04157 0.88456 0.5372 0.0
C1479 C 0.0362 0.88544 0.55203 0.0
C1480 C 0.03471 0.89979 0.55873 0.0
C1481 C 0.0383 0.91298 0.55068 0.0
C1482 C 0.03246 0.87134 0.56055 0.0
C1483 C 0.03956 0.86939 0.575 0.0
C1484 C 0.02272 0.85944 0.55409 0.0
C1485 C 0.01376 0.86121 0.53955 0.0
C1486 C 1.00404 0.87343 0.53757 0.0
C1487 C 0.99569 0.8751 0.52382 0.0
C1488 C 0.99688 0.86457 0.51199 0.0
C1489 C 1.0064 0.85232 0.5139 0.0
C1490 C 0.01479 0.8506 0.52762 0.0
C1491 C 0.01873 0.81167 0.60316 0.0
C1492 C 0.02398 0.799 0.59534 0.0
C1493 C 0.02042 0.82623 0.59705 0.0
C1494 C 0.02722 0.82833 0.58295 0.0
C1495 C 0.03252 0.81573 0.57522 0.0
C1496 C 0.03103 0.8013 0.58136 0.0
C1497 C 0.02871 0.84351 0.57592 0.0
C1498 C 0.02116 0.84565 0.56176 0.0
C1499 C 0.03786 0.85561 0.58272 0.0
C1500 C 0.04634 0.85398 0.59752 0.0
C1501 C 0.05722 0.84274 0.59947 0.0
C1502 C 0.06514 0.84127 0.61348 0.0
C1503 C 0.06238 0.85104 0.62558 0.0
C1504 C 0.05171 0.86234 0.62369 0.0
C1505 C 0.04374 0.86385 0.6097 0.0
H1506 H 0.06853 0.84988 0.63642 0.0
H1507 H 0.9904 0.86589 0.50136 0.0
H1508 H 0.16328 0.72797 0.70856 0.0
H1509 H 0.14122 0.73466 0.69228 0.0
H1510 H 0.11161 0.7313 0.73043 0.0
H1511 H 0.13363 0.72418 0.74675 0.0
H1512 H 0.09802 0.71745 0.70563 0.0
H1513 H 0.12259 0.76577 0.71679 0.0
H1514 H 0.14411 0.78495 0.71927 0.0
H1515 H 0.15099 0.78146 0.67135 0.0
H1516 H 0.12965 0.76209 0.66861 0.0
H1517 H 0.03564 0.74911 0.6621 0.0
H1518 H 0.05567 0.74577 0.68213 0.0
H1519 H 0.09041 0.74568 0.64841 0.0
H1520 H 0.07061 0.74902 0.62843 0.0
H1521 H 0.09992 0.76295 0.67328 0.0
H1522 H 0.07683 0.71293 0.66288 0.0
H1523 H 0.05528 0.69376 0.66052 0.0
H1524 H 0.04547 0.70084 0.70743 0.0
H1525 H 0.06684 0.72022 0.71002 0.0
C1526 C 0.15207 0.72858 0.7135 0.0
C1527 C 0.15025 0.7255 0.72898 0.0
C1528 C 0.13947 0.73256 0.7042 0.0
C1529 C 0.12474 0.73366 0.71014 0.0
C1530 C 0.12286 0.73059 0.72558 0.0
C1531 C 0.13549 0.72664 0.73493 0.0
C1532 C 0.11132 0.73764 0.70007 0.0
C1533 C 0.09832 0.72755 0.69878 0.0
C1534 C 0.11174 0.75071 0.69094 0.0
C1535 C 0.12459 0.76237 0.69252 0.0
C1536 C 0.12877 0.769 0.7068 0.0
C1537 C 0.14092 0.77992 0.70825 0.0
C1538 C 0.14894 0.7844 0.69548 0.0
C1539 C 0.14479 0.77797 0.68123 0.0
C1540 C 0.13265 0.76703 0.67972 0.0
C1541 C 0.04755 0.74847 0.65896 0.0
C1542 C 0.05146 0.74926 0.64361 0.0
C1543 C 0.05899 0.7465 0.67042 0.0
C1544 C 0.07455 0.74536 0.66677 0.0
C1545 C 0.0785 0.74653 0.65152 0.0
C1546 C 0.06711 0.74837 0.64009 0.0
C1547 C 0.08679 0.74263 0.67867 0.0
C1548 C 0.09956 0.75295 0.68028 0.0
C1549 C 0.08613 0.72981 0.68813 0.0
C1550 C 0.07331 0.71815 0.68659 0.0
C1551 C 0.06999 0.7105 0.67266 0.0
C1552 C 0.05783 0.69957 0.67128 0.0
C1553 C 0.04898 0.69612 0.6838 0.0
C1554 C 0.05231 0.70355 0.69774 0.0
C1555 C 0.06445 0.7145 0.69917 0.0
H1556 H 0.03957 0.68765 0.68272 0.0
H1557 H 0.15834 0.79286 0.69663 0.0
H1558 H 0.96859 0.59997 0.54755 0.0
H1559 H 0.97382 0.62274 0.56316 0.0
H1560 H 1.00715 0.63906 0.53147 0.0
H1561 H 1.00246 0.61592 0.51606 0.0
H1562 H 0.0178 0.64469 0.55998 0.0
H1563 H 0.9707 0.65281 0.53172 0.0
H1564 H 0.94406 0.64689 0.5218 0.0
H1565 H 0.92804 0.64605 0.56732 0.0
H1566 H 0.95463 0.65176 0.57752 0.0
H1567 H 0.01822 0.72278 0.58353 0.0
H1568 H 0.01616 0.69859 0.56965 0.0
H1569 H 0.98567 0.68035 0.60302 0.0
H1570 H 0.98775 0.7045 0.61705 0.0
H1571 H 0.97397 0.67576 0.5737 0.0
H1572 H 0.02165 0.66843 0.60169 0.0
H1573 H 0.04835 0.67509 0.61094 0.0
H1574 H 0.06334 0.67541 0.56505 0.0
H1575 H 0.03667 0.66896 0.5555 0.0
C1576 C 0.97722 0.60826 0.54397 0.0
C1577 C 0.98509 0.60604 0.53048 0.0
C1578 C 0.98007 0.62139 0.55285 0.0
C1579 C 0.99072 0.63277 0.54841 0.0
C1580 C 0.99882 0.6305 0.53512 0.0
C1581 C 0.99602 0.61731 0.52623 0.0
C1582 C 0.99318 0.64707 0.55753 0.0
C1583 C 1.00823 0.65158 0.56281 0.0
C1584 C 0.9807 0.65599 0.56147 0.0
C1585 C 0.96469 0.65256 0.55538 0.0
C1586 C 0.96152 0.65124 0.53962 0.0
C1587 C 0.94642 0.64794 0.53395 0.0
C1588 C 0.93437 0.64605 0.54393 0.0
C1589 C 0.93739 0.64749 0.5596 0.0
C1590 C 0.95247 0.65077 0.56533 0.0
C1591 C 0.01129 0.71357 0.58809 0.0
C1592 C 1.00319 0.7156 0.60145 0.0
C1593 C 0.01012 0.69972 0.58012 0.0
C1594 C 1.00079 0.68763 0.58531 0.0
C1595 C 0.99294 0.68952 0.5988 0.0
C1596 C 0.9942 0.70333 0.60684 0.0
C1597 C 0.99854 0.67331 0.57623 0.0
C1598 C 0.98352 0.66884 0.57091 0.0
C1599 C 0.01106 0.66453 0.57215 0.0
C1600 C 0.02712 0.66836 0.57787 0.0
C1601 C 0.03061 0.67005 0.59356 0.0
C1602 C 0.04575 0.67376 0.59886 0.0
C1603 C 0.05753 0.67571 0.58859 0.0
C1604 C 0.0542 0.67391 0.57299 0.0
C1605 C 0.03908 0.67022 0.56763 0.0
H1606 H 0.06924 0.67858 0.59272 0.0
H1607 H 0.9227 0.6435 0.53951 0.0
H1608 H 0.80981 0.86856 0.21993 0.0
H1609 H 0.82688 0.89066 0.22605 0.0
H1610 H 0.78736 0.91716 0.23431 0.0
H1611 H 0.77009 0.8951 0.22775 0.0
H1612 H 0.80817 0.93278 0.21773 0.0
H1613 H 0.80979 0.90524 0.26388 0.0
H1614 H 0.81268 0.88292 0.28006 0.0
H1615 H 0.8594 0.87919 0.2664 0.0
H1616 H 0.85673 0.90137 0.24996 0.0
H1617 H 0.85836 0.99372 0.24858 0.0
H1618 H 0.83782 0.97378 0.24572 0.0
H1619 H 0.87183 0.94101 0.23652 0.0
H1620 H 0.89232 0.96067 0.2395 0.0
H1621 H 0.85157 0.92989 0.25592 0.0
H1622 H 0.84895 0.9559 0.20798 0.0
H1623 H 0.84601 0.97808 0.1916 0.0
H1624 H 0.80107 0.98469 0.20878 0.0
H1625 H 0.80383 0.96265 0.22543 0.0
C1626 C 0.8047 0.8791 0.22294 0.0
C1627 C 0.78854 0.88003 0.22331 0.0
C1628 C 0.81451 0.89171 0.22659 0.0
C1629 C 0.80844 0.90556 0.23082 0.0
C1630 C 0.79232 0.90659 0.23115 0.0
C1631 C 0.78247 0.89393 0.22751 0.0
C1632 C 0.81902 0.91895 0.23465 0.0
C1633 C 0.81748 0.93225 0.22628 0.0
C1634 C 0.83133 0.91823 0.24566 0.0
C1635 C 0.83301 0.90491 0.25559 0.0
C1636 C 0.82065 0.8996 0.26424 0.0
C1637 C 0.82225 0.88698 0.27347 0.0
C1638 C 0.8362 0.87962 0.27424 0.0
C1639 C 0.84859 0.88489 0.26579 0.0
C1640 C 0.84705 0.8975 0.25653 0.0
C1641 C 0.86147 0.98227 0.24595 0.0
C1642 C 0.87705 0.97887 0.24425 0.0
C1643 C 0.84969 0.97088 0.24427 0.0
C1644 C 0.85325 0.95588 0.24079 0.0
C1645 C 0.86877 0.95247 0.23923 0.0
C1646 C 0.8805 0.96379 0.24089 0.0
C1647 C 0.84095 0.9436 0.23875 0.0
C1648 C 0.84215 0.93049 0.24748 0.0
C1649 C 0.82835 0.94452 0.22809 0.0
C1650 C 0.82667 0.95775 0.21808 0.0
C1651 C 0.83849 0.96217 0.20836 0.0
C1652 C 0.83685 0.9747 0.19901 0.0
C1653 C 0.82338 0.98282 0.19919 0.0
C1654 C 0.81151 0.97841 0.20868 0.0
C1655 C 0.8131 0.9659 0.21807 0.0
H1656 H 0.82213 0.99252 0.19193 0.0
H1657 H 0.83742 0.86985 0.2814 0.0
H1658 H 0.76457 0.13579 0.29356 0.0
H1659 H 0.78135 0.11477 0.2887 0.0
H1660 H 0.81632 0.14631 0.27286 0.0
H1661 H 0.79952 0.16726 0.27732 0.0
H1662 H 0.81309 0.12184 0.2545 0.0
H1663 H 0.8188 0.13129 0.30865 0.0
H1664 H 0.80952 0.13392 0.33463 0.0
H1665 H 0.79095 0.08805 0.33243 0.0
H1666 H 0.79994 0.08523 0.30634 0.0
H1667 H 0.88197 0.08386 0.25919 0.0
H1668 H 0.86123 0.10078 0.26386 0.0
H1669 H 0.83194 0.0629 0.27702 0.0
H1670 H 0.8529 0.04569 0.27245 0.0
H1671 H 0.82956 0.0879 0.29597 0.0
H1672 H 0.82607 0.07774 0.24263 0.0
H1673 H 0.83564 0.07514 0.21677 0.0
H1674 H 0.84996 0.12228 0.21736 0.0
H1675 H 0.84068 0.12512 0.24332 0.0
C1676 C 0.77577 0.13823 0.28889 0.0
C1677 C 0.78072 0.15325 0.28592 0.0
C1678 C 0.78541 0.12621 0.28624 0.0
C1679 C 0.8002 0.12894 0.28057 0.0
C1680 C 0.805 0.14388 0.27729 0.0
C1681 C 0.79541 0.15588 0.27996 0.0
C1682 C 0.8108 0.11637 0.27807 0.0
C1683 C 0.81677 0.1145 0.26361 0.0
C1684 C 0.81525 0.10643 0.2898 0.0
C1685 C 0.80987 0.10811 0.30548 0.0
C1686 C 0.81262 0.12181 0.31366 0.0
C1687 C 0.80744 0.12333 0.32841 0.0
C1688 C 0.79961 0.11118 0.33516 0.0
C1689 C 0.79698 0.09747 0.32718 0.0
C1690 C 0.80213 0.0959 0.31241 0.0
C1691 C 0.87116 0.07904 0.26313 0.0
C1692 C 0.8691 0.06335 0.26534 0.0
C1693 C 0.85926 0.08878 0.26574 0.0
C1694 C 0.8449 0.08312 0.27053 0.0
C1695 C 0.84289 0.06752 0.27324 0.0
C1696 C 0.85487 0.0577 0.2706 0.0
C1697 C 0.83212 0.09365 0.2725 0.0
C1698 C 0.82573 0.09512 0.28682 0.0
C1699 C 0.82724 0.10324 0.26064 0.0
C1700 C 0.83277 0.10161 0.24498 0.0
C1701 C 0.83136 0.08753 0.23729 0.0
C1702 C 0.83672 0.08601 0.22261 0.0
C1703 C 0.84343 0.09853 0.21544 0.0
C1704 C 0.84476 0.11259 0.22293 0.0
C1705 C 0.83944 0.11416 0.23763 0.0
H1706 H 0.84757 0.09733 0.20407 0.0
H1707 H 0.79561 0.11237 0.34658 0.0
H1708 H 0.41508 0.95637 0.97979 0.0
H1709 H 0.39212 0.94098 0.98577 0.0
H1710 H 0.36512 0.98082 0.98553 0.0
H1711 H 0.38815 0.99638 0.97945 0.0
H1712 H 0.35753 0.96208 0.00889 0.0
H1713 H 0.36253 0.95709 0.95532 0.0
H1714 H 0.37596 0.95244 0.93166 0.0
H1715 H 0.38466 0.90716 0.94572 0.0
H1716 H 0.37148 0.91162 0.96959 0.0
H1717 H 0.28706 0.91455 1.00646 0.0
H1718 H 0.30707 0.93398 1.00085 0.0
H1719 H 0.34084 0.89966 0.99895 0.0
H1720 H 0.32112 0.88031 1.00438 0.0
H1721 H 0.34273 0.91798 0.97511 0.0
H1722 H 0.33941 0.92388 0.02958 0.0
H1723 H 0.32608 0.9287 0.05327 0.0
H1724 H 0.31383 0.97241 0.0372 0.0
H1725 H 0.32693 0.96776 0.01331 0.0
C1726 C 0.40426 0.96189 0.98093 0.0
C1727 C 0.40344 0.97761 0.97892 0.0
C1728 C 0.39113 0.95306 0.98439 0.0
C1729 C 0.3768 0.95969 0.98584 0.0
C1730 C 0.37603 0.97545 0.98442 0.0
C1731 C 0.38921 0.98433 0.98097 0.0
C1732 C 0.36268 0.94998 0.98844 0.0
C1733 C 0.35413 0.95258 1.00136 0.0
C1734 C 0.35827 0.9375 0.9787 0.0
C1735 C 0.36611 0.93473 0.9643 0.0
C1736 C 0.3674 0.94617 0.95342 0.0
C1737 C 0.37496 0.94357 0.93996 0.0
C1738 C 0.38119 0.92952 0.9372 0.0
C1739 C 0.37984 0.91804 0.94788 0.0
C1740 C 0.37231 0.92059 0.96137 0.0
C1741 C 0.29876 0.91115 1.0049 0.0
C1742 C 0.30241 0.89581 1.00587 0.0
C1743 C 0.3102 0.92229 1.00174 0.0
C1744 C 0.3255 0.9183 0.99952 0.0
C1745 C 0.32913 0.90303 1.00055 0.0
C1746 C 0.31778 0.89195 1.00372 0.0
C1747 C 0.33783 0.9298 0.99579 0.0
C1748 C 0.34602 0.92755 0.98257 0.0
C1749 C 0.34184 0.94259 1.00523 0.0
C1750 C 0.33398 0.94539 0.01959 0.0
C1751 C 0.33375 0.93446 0.03104 0.0
C1752 C 0.32627 0.93718 0.04452 0.0
C1753 C 0.31907 0.95083 0.04672 0.0
C1754 C 0.31938 0.96182 0.03547 0.0
C1755 C 0.32684 0.95916 0.02196 0.0
H1756 H 0.31328 0.95291 0.05717 0.0
H1757 H 0.38704 0.92753 0.92677 0.0
H1758 H 0.24593 0.36436 0.30254 0.0
H1759 H 0.2272 0.38436 0.30094 0.0
H1760 H 0.23652 0.39022 0.25359 0.0
H1761 H 0.255 0.37021 0.25503 0.0
H1762 H 0.23814 0.41687 0.26878 0.0
H1763 H 0.20274 0.37315 0.26477 0.0
H1764 H 0.19082 0.34902 0.27321 0.0
H1765 H 0.17694 0.37079 0.31405 0.0
H1766 H 0.18898 0.39502 0.30594 0.0
H1767 H 0.18208 0.46341 0.24099 0.0
H1768 H 0.19539 0.44015 0.24588 0.0
H1769 H 0.18269 0.44182 0.2927 0.0
H1770 H 0.16902 0.4652 0.28779 0.0
H1771 H 0.18269 0.41192 0.28084 0.0
H1772 H 0.21708 0.45567 0.28469 0.0
H1773 H 0.22891 0.47993 0.2765 0.0
H1774 H 0.24507 0.45811 0.23665 0.0
H1775 H 0.23313 0.43375 0.24449 0.0
C1776 C 0.24382 0.36974 0.29173 0.0
C1777 C 0.25212 0.36573 0.27895 0.0
C1778 C 0.23311 0.3812 0.29084 0.0
C1779 C 0.23043 0.38882 0.27714 0.0
C1780 C 0.23845 0.3846 0.26432 0.0
C1781 C 0.2491 0.37318 0.26519 0.0
C1782 C 0.21991 0.40171 0.27617 0.0
C1783 C 0.22598 0.4157 0.27128 0.0
C1784 C 0.20416 0.4004 0.27996 0.0
C1785 C 0.19692 0.38585 0.28483 0.0
C1786 C 0.19727 0.37276 0.27561 0.0
C1787 C 0.19047 0.35907 0.28032 0.0
C1788 C 0.18317 0.35836 0.29418 0.0
C1789 C 0.18262 0.37135 0.30333 0.0
C1790 C 0.18943 0.38507 0.29868 0.0
C1791 C 0.18183 0.45871 0.25228 0.0
C1792 C 0.17465 0.46629 0.26405 0.0
C1793 C 0.18949 0.44541 0.25507 0.0
C1794 C 0.19036 0.43942 0.26974 0.0
C1795 C 0.18225 0.44629 0.28131 0.0
C1796 C 0.17442 0.45963 0.27848 0.0
C1797 C 0.20088 0.42688 0.27304 0.0
C1798 C 0.19487 0.41305 0.27844 0.0
C1799 C 0.21677 0.4283 0.26981 0.0
C1800 C 0.22411 0.44291 0.26512 0.0
C1801 C 0.22307 0.45607 0.27413 0.0
C1802 C 0.2298 0.46983 0.26955 0.0
C1803 C 0.23771 0.47057 0.25604 0.0
C1804 C 0.23893 0.45753 0.2471 0.0
C1805 C 0.2322 0.44373 0.25161 0.0
H1806 H 0.24292 0.48124 0.25252 0.0
H1807 H 0.1779 0.34775 0.2978 0.0
H1808 H 0.14116 0.02191 0.489 0.0
H1809 H 0.16452 0.0381 0.49427 0.0
H1810 H 0.13806 0.07778 0.48708 0.0
H1811 H 0.11476 0.06174 0.4819 0.0
H1812 H 0.16419 0.0799 0.47213 0.0
H1813 H 0.15008 0.06651 0.52294 0.0
H1814 H 0.14405 0.04886 0.54355 0.0
H1815 H 0.18887 0.03033 0.54075 0.0
H1816 H 0.19509 0.04775 0.51998 0.0
H1817 H 0.20917 0.14032 0.50472 0.0
H1818 H 0.18962 0.1202 0.49928 0.0
H1819 H 0.22385 0.08671 0.50609 0.0
H1820 H 0.24371 0.10695 0.51172 0.0
H1821 H 0.19646 0.07896 0.51991 0.0
H1822 H 0.21147 0.09401 0.47074 0.0
H1823 H 0.21761 0.11186 0.45034 0.0
H1824 H 0.17122 0.12712 0.44989 0.0
H1825 H 0.16486 0.10952 0.47045 0.0
C1826 C 0.14028 0.03409 0.48873 0.0
C1827 C 0.12606 0.0405 0.48494 0.0
C1828 C 0.15367 0.04334 0.49172 0.0
C1829 C 0.15309 0.0592 0.4911 0.0
C1830 C 0.13887 0.06559 0.48752 0.0
C1831 C 0.12553 0.05638 0.48452 0.0
C1832 C 0.16723 0.06926 0.49383 0.0
C1833 C 0.17115 0.07976 0.48264 0.0
C1834 C 0.1767 0.06875 0.5073 0.0
C1835 C 0.17298 0.05831 0.51979 0.0
C1836 C 0.1586 0.05859 0.52664 0.0
C1837 C 0.15516 0.04864 0.53836 0.0
C1838 C 0.16605 0.03845 0.54343 0.0
C1839 C 0.18043 0.03821 0.5368 0.0
C1840 C 0.18392 0.04812 0.52506 0.0
C1841 C 0.21266 0.12871 0.50507 0.0
C1842 C 0.22811 0.12532 0.50862 0.0
C1843 C 0.20141 0.11718 0.50189 0.0
C1844 C 0.20527 0.10193 0.50208 0.0
C1845 C 0.22061 0.09841 0.50582 0.0
C1846 C 0.23196 0.11 0.50898 0.0
C1847 C 0.19311 0.08985 0.49838 0.0
C1848 C 0.18959 0.07897 0.50934 0.0
C1849 C 0.18399 0.08996 0.48467 0.0
C1850 C 0.18772 0.10051 0.47222 0.0
C1851 C 0.20261 0.10125 0.46637 0.0
C1852 C 0.20612 0.11131 0.45477 0.0
C1853 C 0.19482 0.12064 0.44884 0.0
C1854 C 0.17996 0.1199 0.45449 0.0
C1855 C 0.17639 0.10986 0.46611 0.0
H1856 H 0.19756 0.12843 0.43986 0.0
H1857 H 0.16336 0.03076 0.55251 0.0
H1858 H 0.75057 0.15873 0.77035 0.0
H1859 H 0.73184 0.13734 0.7714 0.0
H1860 H 0.73074 0.13313 0.72253 0.0
H1861 H 0.74966 0.15447 0.72137 0.0
H1862 H 0.70161 0.12864 0.73397 0.0
H1863 H 0.75256 0.11037 0.74289 0.0
H1864 H 0.77848 0.10996 0.75549 0.0
H1865 H 0.75802 0.10136 0.79831 0.0
H1866 H 0.73196 0.10194 0.786 0.0
H1867 H 0.69117 0.04139 0.74853 0.0
H1868 H 0.70637 0.06443 0.74334 0.0
H1869 H 0.67048 0.09137 0.76068 0.0
H1870 H 0.65498 0.06823 0.76571 0.0
H1871 H 0.7182 0.08441 0.76359 0.0
H1872 H 0.67259 0.12649 0.74343 0.0
H1873 H 0.64743 0.12618 0.72924 0.0
H1874 H 0.65845 0.08534 0.70583 0.0
H1875 H 0.68375 0.08553 0.71971 0.0
C1876 C 0.74638 0.15327 0.7598 0.0
C1877 C 0.75181 0.15823 0.74578 0.0
C1878 C 0.7356 0.14107 0.76043 0.0
C1879 C 0.73002 0.1335 0.74706 0.0
C1880 C 0.73487 0.13881 0.73299 0.0
C1881 C 0.74568 0.15103 0.73235 0.0
C1882 C 0.71989 0.11953 0.74788 0.0
C1883 C 0.7052 0.11897 0.74047 0.0
C1884 C 0.72466 0.1068 0.75614 0.0
C1885 C 0.74031 0.10633 0.76355 0.0
C1886 C 0.75359 0.1085 0.75501 0.0
C1887 C 0.7683 0.10822 0.7621 0.0
C1888 C 0.76989 0.10567 0.7777 0.0
C1889 C 0.75677 0.10335 0.78624 0.0
C1890 C 0.74202 0.10364 0.77921 0.0
C1891 C 0.68631 0.05218 0.75097 0.0
C1892 C 0.6718 0.05292 0.75751 0.0
C1893 C 0.6951 0.06538 0.74808 0.0
C1894 C 0.68961 0.07966 0.75161 0.0
C1895 C 0.67491 0.0805 0.7577 0.0
C1896 C 0.66607 0.06725 0.76059 0.0
C1897 C 0.69978 0.09351 0.74983 0.0
C1898 C 0.71452 0.09406 0.75712 0.0
C1899 C 0.69511 0.10609 0.74127 0.0
C1900 C 0.67999 0.10595 0.73274 0.0
C1901 C 0.66966 0.11747 0.73521 0.0
C1902 C 0.65537 0.11731 0.72723 0.0
C1903 C 0.65132 0.10572 0.71668 0.0
C1904 C 0.66158 0.09429 0.71405 0.0
C1905 C 0.67588 0.0944 0.72199 0.0
H1906 H 0.64025 0.10561 0.71052 0.0
H1907 H 0.78129 0.10547 0.78316 0.0
H1908 H 0.40337 0.02175 0.52243 0.0
H1909 H 0.38155 0.03769 0.51633 0.0
H1910 H 0.39697 0.06874 0.55257 0.0
H1911 H 0.41877 0.05306 0.5586 0.0
H1912 H 0.36662 0.0621 0.55372 0.0
H1913 H 0.40204 0.07692 0.515 0.0
H1914 H 0.41853 0.07253 0.49332 0.0
H1915 H 0.37908 0.05456 0.46679 0.0
H1916 H 0.36239 0.05867 0.4884 0.0
H1917 H 0.33091 0.12993 0.54064 0.0
H1918 H 0.3496 0.11023 0.54215 0.0
H1919 H 0.32388 0.08457 0.50684 0.0
H1920 H 0.30486 0.10446 0.5052 0.0
H1921 H 0.35648 0.08529 0.50351 0.0
H1922 H 0.32064 0.07298 0.54158 0.0
H1923 H 0.30428 0.07782 0.56324 0.0
H1924 H 0.34458 0.09107 0.59105 0.0
H1925 H 0.36118 0.08652 0.56948 0.0
C1926 C 0.40221 0.03207 0.52898 0.0
C1927 C 0.4128 0.03603 0.54109 0.0
C1928 C 0.3897 0.04116 0.52549 0.0
C1929 C 0.38759 0.05445 0.53398 0.0
C1930 C 0.39825 0.05849 0.54593 0.0
C1931 C 0.41071 0.04945 0.5494 0.0
C1932 C 0.37416 0.06408 0.5308 0.0
C1933 C 0.36449 0.06724 0.54276 0.0
C1934 C 0.37098 0.07038 0.51635 0.0
C1935 C 0.381 0.06792 0.50337 0.0
C1936 C 0.39691 0.07191 0.50459 0.0
C1937 C 0.40628 0.0695 0.49231 0.0
C1938 C 0.39987 0.06323 0.4787 0.0
C1939 C 0.38405 0.05939 0.47734 0.0
C1940 C 0.37462 0.06176 0.4896 0.0
C1941 C 0.32915 0.12015 0.53311 0.0
C1942 C 0.31628 0.11877 0.52285 0.0
C1943 C 0.33989 0.10885 0.53404 0.0
C1944 C 0.33807 0.09582 0.52476 0.0
C1945 C 0.32548 0.09451 0.51416 0.0
C1946 C 0.31461 0.10586 0.51326 0.0
C1947 C 0.34929 0.08362 0.52656 0.0
C1948 C 0.3585 0.07996 0.51439 0.0
C1949 C 0.35208 0.07682 0.54082 0.0
C1950 C 0.34215 0.0795 0.55387 0.0
C1951 C 0.32601 0.07703 0.55228 0.0
C1952 C 0.31669 0.0797 0.56455 0.0
C1953 C 0.32339 0.08477 0.5785 0.0
C1954 C 0.33942 0.08715 0.58023 0.0
C1955 C 0.34879 0.0845 0.56799 0.0
H1956 H 0.31615 0.08684 0.58799 0.0
H1957 H 0.40714 0.06137 0.46921 0.0
H1958 H 0.63403 0.50041 0.53195 0.0
H1959 H 0.6553 0.48431 0.52583 0.0
H1960 H 0.62268 0.44673 0.51656 0.0
H1961 H 0.60142 0.46272 0.52266 0.0
H1962 H 0.64592 0.43814 0.53427 0.0
H1963 H 0.64131 0.46608 0.48789 0.0
H1964 H 0.64049 0.48907 0.47236 0.0
H1965 H 0.68644 0.50271 0.48869 0.0
H1966 H 0.68745 0.4799 0.50448 0.0
H1967 H 0.69259 0.38581 0.50052 0.0
H1968 H 0.67317 0.40468 0.50344 0.0
H1969 H 0.70912 0.43886 0.51427 0.0
H1970 H 0.72876 0.41998 0.51117 0.0
H1971 H 0.68546 0.45015 0.49649 0.0
H1972 H 0.69027 0.42222 0.54249 0.0
H1973 H 0.69124 0.39933 0.55813 0.0
H1974 H 0.6449 0.38595 0.5428 0.0
H1975 H 0.64374 0.40867 0.52688 0.0
C1976 C 0.63137 0.48877 0.52839 0.0
C1977 C 0.61599 0.48285 0.52786 0.0
C1978 C 0.64356 0.47957 0.52489 0.0
C1979 C 0.64063 0.46429 0.52064 0.0
C1980 C 0.62527 0.45845 0.51988 0.0
C1981 C 0.61311 0.4676 0.52341 0.0
C1982 C 0.65352 0.45415 0.51761 0.0
C1983 C 0.65442 0.4407 0.52585 0.0
C1984 C 0.66497 0.45767 0.50699 0.0
C1985 C 0.66439 0.47136 0.49748 0.0
C1986 C 0.65119 0.47405 0.48826 0.0
C1987 C 0.6507 0.48703 0.4794 0.0
C1988 C 0.66339 0.49736 0.47957 0.0
C1989 C 0.67661 0.49471 0.48858 0.0
C1990 C 0.67716 0.48175 0.49748 0.0
C1991 C 0.69643 0.39737 0.50334 0.0
C1992 C 0.71226 0.40133 0.50576 0.0
C1993 C 0.68528 0.40815 0.50506 0.0
C1994 C 0.68965 0.42313 0.50938 0.0
C1995 C 0.70546 0.42735 0.51101 0.0
C1996 C 0.71668 0.41654 0.50924 0.0
C1997 C 0.67761 0.43406 0.51293 0.0
C1998 C 0.67693 0.44764 0.50489 0.0
C1999 C 0.66635 0.43071 0.52377 0.0
C2000 C 0.66697 0.41708 0.53339 0.0
C2001 C 0.68033 0.41434 0.54236 0.0
C2002 C 0.68091 0.40141 0.55129 0.0
C2003 C 0.66815 0.39117 0.55143 0.0
C2004 C 0.65478 0.39388 0.54266 0.0
C2005 C 0.65415 0.40679 0.5337 0.0
H2006 H 0.66862 0.38117 0.55835 0.0
H2007 H 0.66299 0.50741 0.4727 0.0
H2008 H 0.70536 0.29077 0.35766 0.0
H2009 H 0.71182 0.30636 0.38035 0.0
H2010 H 0.75546 0.28501 0.38578 0.0
H2011 H 0.74921 0.26952 0.36295 0.0
H2012 H 0.74108 0.28656 0.41235 0.0
H2013 H 0.7536 0.32092 0.3724 0.0
H2014 H 0.74862 0.33515 0.34895 0.0
H2015 H 0.71185 0.35761 0.36997 0.0
H2016 H 0.71647 0.34335 0.39349 0.0
H2017 H 0.77884 0.33442 0.46704 0.0
H2018 H 0.77193 0.32191 0.44277 0.0
H2019 H 0.72888 0.34462 0.4405 0.0
H2020 H 0.73581 0.35744 0.4649 0.0
H2021 H 0.74174 0.34274 0.41246 0.0
H2022 H 0.72926 0.30874 0.45239 0.0
H2023 H 0.73405 0.29456 0.4759 0.0
H2024 H 0.77029 0.27129 0.45488 0.0
H2025 H 0.76587 0.28551 0.4313 0.0
C2026 C 0.71643 0.28951 0.36354 0.0
C2027 C 0.72678 0.27888 0.35839 0.0
C2028 C 0.7201 0.29843 0.37655 0.0
C2029 C 0.7342 0.29698 0.38471 0.0
C2030 C 0.7445 0.28632 0.37969 0.0
C2031 C 0.74087 0.27741 0.36665 0.0
C2032 C 0.73808 0.3063 0.39868 0.0
C2033 C 0.74142 0.29885 0.41231 0.0
C2034 C 0.73806 0.32234 0.39877 0.0
C2035 C 0.73528 0.33095 0.38465 0.0
C2036 C 0.74436 0.3288 0.37198 0.0
C2037 C 0.74162 0.33688 0.35868 0.0
C2038 C 0.72989 0.34724 0.35796 0.0
C2039 C 0.72091 0.34956 0.37054 0.0
C2040 C 0.7236 0.34149 0.38386 0.0
C2041 C 0.76795 0.33693 0.46136 0.0
C2042 C 0.7578 0.34684 0.46806 0.0
C2043 C 0.764 0.3297 0.44747 0.0
C2044 C 0.74973 0.33205 0.43995 0.0
C2045 C 0.7399 0.34255 0.44615 0.0
C2046 C 0.74389 0.34988 0.46009 0.0
C2047 C 0.74493 0.32298 0.42604 0.0
C2048 C 0.74137 0.33046 0.41247 0.0
C2049 C 0.74468 0.30693 0.42598 0.0
C2050 C 0.74732 0.29829 0.44012 0.0
C2051 C 0.73833 0.30069 0.45281 0.0
C2052 C 0.74097 0.29263 0.46615 0.0
C2053 C 0.75249 0.28206 0.4669 0.0
C2054 C 0.76138 0.2795 0.45429 0.0
C2055 C 0.7588 0.28754 0.44093 0.0
H2056 H 0.75451 0.27583 0.47723 0.0
H2057 H 0.72779 0.3535 0.34765 0.0
H2058 H 0.55475 0.01676 0.91848 0.0
H2059 H 0.57127 0.01112 0.8975 0.0
H2060 H 0.53616 0.02549 0.86543 0.0
H2061 H 0.5195 0.03121 0.88644 0.0
H2062 H 0.54991 1.0003 0.85499 0.0
H2063 H 0.56667 0.04907 0.8753 0.0
H2064 H 0.57519 0.06766 0.89538 0.0
H2065 H 0.6149 0.04182 0.90616 0.0
H2066 H 0.6065 0.02295 0.88628 0.0
H2067 H 0.6025 0.01034 0.79396 0.0
H2068 H 0.58283 0.0127 0.813 0.0
H2069 H 0.61604 1.00092 0.84819 0.0
H2070 H 0.63573 0.99879 0.82935 0.0
H2071 H 0.60223 0.02555 0.85617 0.0
H2072 H 0.5852 0.97653 0.83586 0.0
H2073 H 0.5765 0.95802 0.81577 0.0
H2074 H 0.53734 0.9845 0.80467 0.0
H2075 H 0.54592 1.00328 0.82459 0.0
C2076 C 0.55052 0.01876 0.90697 0.0
C2077 C 0.53585 0.02463 0.90419 0.0
C2078 C 0.55998 0.01548 0.89497 0.0
C2079 C 0.55509 0.01811 0.87987 0.0
C2080 C 0.54021 0.02339 0.87697 0.0
C2081 C 0.53069 0.02664 0.88901 0.0
C2082 C 0.56579 0.01591 0.86725 0.0
C2083 C 0.56128 1.00597 0.85513 0.0
C2084 C 0.58072 0.02314 0.86749 0.0
C2085 C 0.58588 0.03453 0.87939 0.0
C2086 C 0.57716 0.0473 0.88202 0.0
C2087 C 0.58198 0.05789 0.89336 0.0
C2088 C 0.59556 0.0559 0.90207 0.0
C2089 C 0.60438 0.04334 0.89942 0.0
C2090 C 0.5996 0.0327 0.88811 0.0
C2091 C 0.60554 0.00801 0.80572 0.0
C2092 C 0.62074 1.00444 0.81011 0.0
C2093 C 0.59426 0.00935 0.81661 0.0
C2094 C 0.59791 0.00699 0.83209 0.0
C2095 C 0.61293 1.00289 0.83637 0.0
C2096 C 0.62418 1.00163 0.82554 0.0
C2097 C 0.58651 0.00968 0.84401 0.0
C2098 C 0.59088 0.01984 0.85599 0.0
C2099 C 0.57147 1.00267 0.84357 0.0
C2100 C 0.56629 0.99139 0.83161 0.0
C2101 C 0.5748 0.97847 0.82905 0.0
C2102 C 0.56988 0.96792 0.81771 0.0
C2103 C 0.5564 0.97011 0.80892 0.0
C2104 C 0.54779 0.98284 0.81148 0.0
C2105 C 0.55267 0.99343 0.8228 0.0
H2106 H 0.5526 0.96192 0.80015 0.0
H2107 H 0.59927 0.06412 0.91084 0.0
H2108 H 0.28254 0.26013 0.38369 0.0
H2109 H 0.28207 0.24258 0.40475 0.0
H2110 H 0.29972 0.20782 0.3762 0.0
H2111 H 0.29979 0.22533 0.35477 0.0
H2112 H 0.27649 0.19639 0.39307 0.0
H2113 H 0.3233 0.22494 0.40324 0.0
H2114 H 0.34073 0.24768 0.40618 0.0
H2115 H 0.31436 0.26359 0.44297 0.0
H2116 H 0.29662 0.24106 0.4401 0.0
H2117 H 0.28561 0.1559 0.46568 0.0
H2118 H 0.29248 0.16742 0.44136 0.0
H2119 H 0.26827 0.20722 0.45313 0.0
H2120 H 0.26113 0.1959 0.47696 0.0
H2121 H 0.29999 0.21244 0.44337 0.0
H2122 H 0.25107 0.18514 0.42945 0.0
H2123 H 0.23426 0.16196 0.42635 0.0
H2124 H 0.2665 0.14285 0.39649 0.0
H2125 H 0.28362 0.16586 0.39961 0.0
C2126 C 0.28622 0.24873 0.3818 0.0
C2127 C 0.29115 0.24415 0.36748 0.0
C2128 C 0.28611 0.23873 0.39393 0.0
C2129 C 0.29105 0.22391 0.39216 0.0
C2130 C 0.29592 0.21922 0.37788 0.0
C2131 C 0.29606 0.22928 0.36568 0.0
C2132 C 0.29081 0.21344 0.40529 0.0
C2133 C 0.28194 0.19974 0.40398 0.0
C2134 C 0.29791 0.21773 0.41956 0.0
C2135 C 0.30857 0.23133 0.42139 0.0
C2136 C 0.32114 0.23334 0.41189 0.0
C2137 C 0.33109 0.24619 0.41355 0.0
C2138 C 0.32864 0.25709 0.42474 0.0
C2139 C 0.31625 0.25514 0.4343 0.0
C2140 C 0.30625 0.24232 0.43268 0.0
C2141 C 0.28168 0.16706 0.46301 0.0
C2142 C 0.27277 0.17492 0.47329 0.0
C2143 C 0.28561 0.17361 0.44913 0.0
C2144 C 0.28092 0.1882 0.4455 0.0
C2145 C 0.27205 0.19599 0.45573 0.0
C2146 C 0.26791 0.18941 0.46935 0.0
C2147 C 0.28524 0.19577 0.43123 0.0
C2148 C 0.29489 0.20894 0.43235 0.0
C2149 C 0.27901 0.19089 0.41681 0.0
C2150 C 0.26872 0.17711 0.41494 0.0
C2151 C 0.25466 0.17592 0.42236 0.0
C2152 C 0.24505 0.16284 0.42057 0.0
C2153 C 0.24934 0.15091 0.41128 0.0
C2154 C 0.26322 0.15208 0.40372 0.0
C2155 C 0.27287 0.16514 0.4055 0.0
H2156 H 0.24189 0.1408 0.40989 0.0
H2157 H 0.33636 0.26703 0.42601 0.0
H2158 H 0.46961 0.49218 0.92116 0.0
H2159 H 0.4543 0.49831 0.89829 0.0
H2160 H 0.49473 0.49512 0.87158 0.0
H2161 H 0.5101 0.48903 0.89439 0.0
H2162 H 0.47923 0.51883 0.86312 0.0
H2163 H 0.46615 0.46637 0.87205 0.0
H2164 H 0.45693 0.44451 0.88682 0.0
H2165 H 0.41298 0.46447 0.89111 0.0
H2166 H 0.42202 0.48656 0.87654 0.0
H2167 H 0.44977 0.50116 0.78933 0.0
H2168 H 0.46054 0.49928 0.81512 0.0
H2169 H 0.41857 0.51554 0.83284 0.0
H2170 H 0.4076 0.51776 0.80672 0.0
H2171 H 0.43206 0.48776 0.84732 0.0
H2172 H 0.44529 0.53926 0.83531 0.0
H2173 H 0.45521 0.55988 0.8193 0.0
H2174 H 0.49973 0.54034 0.8197 0.0
H2175 H 0.49001 0.51945 0.83552 0.0
C2176 C 0.47524 0.49271 0.9104 0.0
C2177 C 0.4911 0.49004 0.90963 0.0
C2178 C 0.46646 0.49624 0.89732 0.0
C2179 C 0.47329 0.49701 0.88313 0.0
C2180 C 0.48917 0.49463 0.88238 0.0
C2181 C 0.49797 0.49118 0.89546 0.0
C2182 C 0.46393 0.50014 0.86901 0.0
C2183 C 0.46896 0.51197 0.85967 0.0
C2184 C 0.45028 0.49146 0.8646 0.0
C2185 C 0.44483 0.4782 0.87337 0.0
C2186 C 0.45457 0.46616 0.87626 0.0
C2187 C 0.44936 0.45371 0.88457 0.0
C2188 C 0.43439 0.45312 0.88995 0.0
C2189 C 0.42458 0.46496 0.88698 0.0
C2190 C 0.42974 0.47744 0.87869 0.0
C2191 C 0.4427 0.5043 0.79864 0.0
C2192 C 0.42776 0.5096 0.7959 0.0
C2193 C 0.44895 0.50326 0.81341 0.0
C2194 C 0.4404 0.50733 0.82588 0.0
C2195 C 0.42535 0.51236 0.82333 0.0
C2196 C 0.41913 0.51366 0.80843 0.0
C2197 C 0.44752 0.50627 0.84144 0.0
C2198 C 0.44214 0.49478 0.85098 0.0
C2199 C 0.46095 0.51514 0.84597 0.0
C2200 C 0.46688 0.52772 0.83651 0.0
C2201 C 0.45716 0.53928 0.83188 0.0
C2202 C 0.46276 0.55103 0.82286 0.0
C2203 C 0.47808 0.5514 0.81846 0.0
C2204 C 0.48786 0.54003 0.82311 0.0
C2205 C 0.48232 0.52824 0.83212 0.0
H2206 H 0.48239 0.56051 0.81148 0.0
H2207 H 0.43038 0.44347 0.89637 0.0
H2208 H 0.72653 0.76323 0.13684 0.0
H2209 H 0.73212 0.74628 0.11574 0.0
H2210 H 0.74211 0.71093 0.14747 0.0
H2211 H 0.73688 0.72793 0.16864 0.0
H2212 H 0.76338 0.71282 0.12577 0.0
H2213 H 0.70799 0.71014 0.12712 0.0
H2214 H 0.68198 0.72039 0.12725 0.0
H2215 H 0.68879 0.74014 0.08361 0.0
H2216 H 0.71495 0.73018 0.08332 0.0
H2217 H 0.76504 0.65342 0.07105 0.0
H2218 H 0.75746 0.66868 0.09271 0.0
H2219 H 0.74471 0.70434 0.06233 0.0
H2220 H 0.75195 0.68906 0.04066 0.0
H2221 H 0.7244 0.70167 0.08384 0.0
H2222 H 0.77984 0.70549 0.08267 0.0
H2223 H 0.8061 0.69582 0.08233 0.0
H2224 H 0.79952 0.67462 0.12532 0.0
H2225 H 0.77313 0.68401 0.12582 0.0
C2226 C 0.73006 0.7519 0.13935 0.0
C2227 C 0.7312 0.74694 0.15446 0.0
C2228 C 0.73312 0.74217 0.12726 0.0
C2229 C 0.73735 0.72725 0.12999 0.0
C2230 C 0.73879 0.72236 0.14506 0.0
C2231 C 0.73568 0.73206 0.15715 0.0
C2232 C 0.74032 0.71675 0.11715 0.0
C2233 C 0.75477 0.71021 0.11672 0.0
C2234 C 0.72923 0.71359 0.10514 0.0
C2235 C 0.71349 0.71954 0.10527 0.0
C2236 C 0.70399 0.71677 0.11761 0.0
C2237 C 0.68921 0.72251 0.1177 0.0
C2238 C 0.68375 0.73094 0.10546 0.0
C2239 C 0.69305 0.73362 0.09309 0.0
C2240 C 0.70785 0.72792 0.09295 0.0
C2241 C 0.76043 0.66443 0.06896 0.0
C2242 C 0.75915 0.67002 0.05411 0.0
C2243 C 0.7562 0.6732 0.08137 0.0
C2244 C 0.75077 0.68781 0.07921 0.0
C2245 C 0.7489 0.69314 0.06433 0.0
C2246 C 0.75305 0.68436 0.05192 0.0
C2247 C 0.74749 0.69776 0.09241 0.0
C2248 C 0.73299 0.70422 0.09292 0.0
C2249 C 0.75858 0.70092 0.10445 0.0
C2250 C 0.77445 0.69532 0.1042 0.0
C2251 C 0.78395 0.69867 0.092 0.0
C2252 C 0.79887 0.69326 0.09179 0.0
C2253 C 0.80446 0.68458 0.10378 0.0
C2254 C 0.79516 0.68133 0.11603 0.0
C2255 C 0.78023 0.6867 0.11629 0.0
H2256 H 0.81601 0.6804 0.10359 0.0
H2257 H 0.67231 0.73538 0.10556 0.0
H2258 H 0.98863 0.01697 0.10284 0.0
H2259 H 0.97308 0.01236 0.12509 0.0
H2260 H 0.9784 0.05971 0.13761 0.0
H2261 H 0.9943 0.06429 0.11575 0.0
H2262 H 0.98199 0.04305 0.16194 0.0
H2263 H 0.9448 0.04463 0.12018 0.0
H2264 H 0.93287 0.03715 0.09514 0.0
H2265 H 0.92511 0.99165 0.11051 0.0
H2266 H 0.93719 0.99882 0.13559 0.0
H2267 H 0.90308 0.0374 0.19997 0.0
H2268 H 0.9177 0.03897 0.17676 0.0
H2269 H 0.95373 0.01347 0.19803 0.0
H2270 H 0.93938 0.0121 0.22129 0.0
H2271 H 0.92903 0.01931 0.1566 0.0
H2272 H 0.98858 0.02843 0.18812 0.0
H2273 H 0.99953 0.03827 0.21281 0.0
H2274 H 0.96086 0.06657 0.21716 0.0
H2275 H 0.9498 0.05706 0.19242 0.0
C2276 C 0.98663 0.02637 0.11042 0.0
C2277 C 0.99266 0.04103 0.10742 0.0
C2278 C 0.9776 0.02375 0.12306 0.0
C2279 C 0.97438 0.03572 0.13295 0.0
C2280 C 0.98065 0.05029 0.13014 0.0
C2281 C 0.98965 0.05291 0.11754 0.0
C2282 C 0.96452 0.03319 0.14625 0.0
C2283 C 0.97044 0.03779 0.16075 0.0
C2284 C 0.94933 0.02655 0.14475 0.0
C2285 C 0.94204 0.02222 0.1297 0.0
C2286 C 0.94066 0.033 0.11818 0.0
C2287 C 0.93385 0.02882 0.10399 0.0
C2288 C 0.92827 0.01393 0.10122 0.0
C2289 C 0.92945 1.00318 0.11266 0.0
C2290 C 0.93627 0.0073 0.12686 0.0
C2291 C 0.91402 0.03194 0.19964 0.0
C2292 C 0.92007 0.02469 0.21254 0.0
C2293 C 0.92236 0.03283 0.18634 0.0
C2294 C 0.93694 0.02654 0.1857 0.0
C2295 C 0.94263 0.01862 0.19831 0.0
C2296 C 0.93433 0.01777 0.2116 0.0
C2297 C 0.94659 0.02901 0.17226 0.0
C2298 C 0.94063 0.02443 0.15777 0.0
C2299 C 0.96165 0.03595 0.1737 0.0
C2300 C 0.9683 0.0419 0.1885 0.0
C2301 C 0.98245 0.03679 0.19433 0.0
C2302 C 0.98867 0.04231 0.20833 0.0
C2303 C 0.98086 0.053 0.21657 0.0
C2304 C 0.96686 0.05825 0.2108 0.0
C2305 C 0.96061 0.05279 0.19679 0.0
H2306 H 0.98569 0.05724 0.22741 0.0
H2307 H 0.923 0.01071 0.09023 0.0
H2308 H 0.29063 0.79452 0.16701 0.0
H2309 H 0.28837 0.8132 0.14684 0.0
H2310 H 0.29462 0.77835 0.11316 0.0
H2311 H 0.29724 0.7597 0.13325 0.0
H2312 H 0.31075 0.80442 0.1067 0.0
H2313 H 0.25881 0.78989 0.12044 0.0
H2314 H 0.23761 0.78627 0.13809 0.0
H2315 H 0.24055 0.83375 0.14941 0.0
H2316 H 0.26193 0.83761 0.13197 0.0
H2317 H 0.2776 0.83405 0.0394 0.0
H2318 H 0.28534 0.8198 0.06172 0.0
H2319 H 0.27463 0.85734 0.09072 0.0
H2320 H 0.26651 0.87159 0.06833 0.0
H2321 H 0.26231 0.83211 0.10111 0.0
H2322 H 0.31264 0.84721 0.08549 0.0
H2323 H 0.33372 0.85087 0.06773 0.0
H2324 H 0.33412 0.80282 0.05999 0.0
H2325 H 0.31288 0.79887 0.07755 0.0
C2326 C 0.29174 0.79087 0.15532 0.0
C2327 C 0.29401 0.77558 0.15175 0.0
C2328 C 0.29033 0.80155 0.1438 0.0
C2329 C 0.29114 0.79715 0.12846 0.0
C2330 C 0.2939 0.782 0.1249 0.0
C2331 C 0.29526 0.77133 0.1364 0.0
C2332 C 0.28864 0.80816 0.11605 0.0
C2333 C 0.30012 0.81041 0.1054 0.0
C2334 C 0.27495 0.8163 0.11459 0.0
C2335 C 0.26208 0.814 0.12504 0.0
C2336 C 0.25502 0.79953 0.12679 0.0
C2337 C 0.24296 0.79744 0.13674 0.0
C2338 C 0.23777 0.80977 0.1449 0.0
C2339 C 0.2446 0.82421 0.1431 0.0
C2340 C 0.25668 0.82636 0.13318 0.0
C2341 C 0.27714 0.83942 0.05049 0.0
C2342 C 0.27148 0.854 0.05205 0.0
C2343 C 0.28163 0.83124 0.06328 0.0
C2344 C 0.28074 0.83752 0.07796 0.0
C2345 C 0.27544 0.85224 0.07954 0.0
C2346 C 0.27087 0.86041 0.06672 0.0
C2347 C 0.28437 0.82829 0.09159 0.0
C2348 C 0.27306 0.82633 0.10248 0.0
C2349 C 0.29824 0.82045 0.09328 0.0
C2350 C 0.31108 0.82276 0.08276 0.0
C2351 C 0.31714 0.83743 0.07992 0.0
C2352 C 0.32913 0.83955 0.0699 0.0
C2353 C 0.33523 0.82709 0.06271 0.0
C2354 C 0.32938 0.81247 0.06556 0.0
C2355 C 0.31737 0.81028 0.07556 0.0
H2356 H 0.34452 0.82876 0.05496 0.0
H2357 H 0.22843 0.80813 0.1526 0.0
H2358 H 0.02597 0.47137 0.13749 0.0
H2359 H 0.04337 0.47603 0.15987 0.0
H2360 H 0.07432 0.50288 0.13284 0.0
H2361 H 0.05713 0.49811 0.11043 0.0
H2362 H 0.08947 0.482 0.14997 0.0
H2363 H 0.05162 0.51963 0.15784 0.0
H2364 H 0.02528 0.52841 0.16091 0.0
H2365 H 0.0202 0.50021 0.19988 0.0
H2366 H 0.04645 0.4911 0.19691 0.0
H2367 H 0.1409 0.51616 0.20434 0.0
H2368 H 0.12095 0.51162 0.18436 0.0
H2369 H 0.09094 0.49057 0.21663 0.0
H2370 H 0.11081 0.49566 0.23697 0.0
H2371 H 0.07438 0.50665 0.19778 0.0
H2372 H 0.11162 0.4693 0.19102 0.0
H2373 H 0.13755 0.45939 0.18831 0.0
H2374 H 0.14322 0.48506 0.1477 0.0
H2375 H 0.1174 0.49529 0.15028 0.0
C2376 C 0.03648 0.47828 0.13632 0.0
C2377 C 0.04013 0.48439 0.12215 0.0
C2378 C 0.04636 0.48102 0.14915 0.0
C2379 C 0.06013 0.48988 0.14807 0.0
C2380 C 0.06375 0.49604 0.13397 0.0
C2381 C 0.05384 0.4934 0.12118 0.0
C2382 C 0.07107 0.49234 0.16145 0.0
C2383 C 0.08622 0.48756 0.16036 0.0
C2384 C 0.06668 0.49905 0.17524 0.0
C2385 C 0.05093 0.50456 0.17706 0.0
C2386 C 0.04484 0.5152 0.16699 0.0
C2387 C 0.02994 0.52026 0.16872 0.0
C2388 C 0.02106 0.51484 0.18056 0.0
C2389 C 0.02708 0.50438 0.1907 0.0
C2390 C 0.04197 0.49928 0.18901 0.0
C2391 C 0.13005 0.51059 0.20725 0.0
C2392 C 0.12754 0.50612 0.22225 0.0
C2393 C 0.11864 0.50793 0.19575 0.0
C2394 C 0.10454 0.50036 0.19883 0.0
C2395 C 0.10176 0.49632 0.21391 0.0
C2396 C 0.11313 0.49922 0.22554 0.0
C2397 C 0.09293 0.49659 0.1862 0.0
C2398 C 0.07764 0.50104 0.18743 0.0
C2399 C 0.09711 0.48936 0.17257 0.0
C2400 C 0.11262 0.48315 0.17092 0.0
C2401 C 0.11843 0.47291 0.18157 0.0
C2402 C 0.13311 0.46722 0.18005 0.0
C2403 C 0.14204 0.47161 0.16786 0.0
C2404 C 0.13629 0.48167 0.15714 0.0
C2405 C 0.12163 0.4874 0.15862 0.0
H2406 H 0.1534 0.4672 0.16671 0.0
H2407 H 0.00952 0.51877 0.18188 0.0
H2408 H 0.37167 0.73639 0.29571 0.0
H2409 H 0.39254 0.73819 0.31527 0.0
H2410 H 0.42519 0.75016 0.28124 0.0
H2411 H 0.40447 0.74789 0.26155 0.0
H2412 H 0.43725 0.73049 0.3008 0.0
H2413 H 0.41142 0.77714 0.30468 0.0
H2414 H 0.38914 0.79326 0.30736 0.0
H2415 H 0.38033 0.77377 0.35074 0.0
H2416 H 0.40244 0.75737 0.34822 0.0
H2417 H 0.49761 0.75837 0.35318 0.0
H2418 H 0.47769 0.75619 0.33263 0.0
H2419 H 0.4435 0.74372 0.365 0.0
H2420 H 0.46318 0.746 0.38556 0.0
H2421 H 0.43269 0.76423 0.34574 0.0
H2422 H 0.45835 0.71726 0.34157 0.0
H2423 H 0.48067 0.7012 0.3388 0.0
H2424 H 0.48994 0.72153 0.29591 0.0
H2425 H 0.46778 0.73786 0.29852 0.0
C2426 C 0.38331 0.73923 0.29234 0.0
C2427 C 0.38634 0.74208 0.27704 0.0
C2428 C 0.39523 0.7404 0.30357 0.0
C2429 C 0.41043 0.74454 0.29978 0.0
C2430 C 0.41356 0.74704 0.28447 0.0
C2431 C 0.40165 0.74586 0.27324 0.0
C2432 C 0.42302 0.7464 0.31177 0.0
C2433 C 0.43634 0.73803 0.31052 0.0
C2434 C 0.42177 0.75604 0.32461 0.0
C2435 C 0.4085 0.76592 0.32619 0.0
C2436 C 0.40466 0.77621 0.31474 0.0
C2437 C 0.39207 0.78541 0.31624 0.0
C2438 C 0.3833 0.78451 0.3292 0.0
C2439 C 0.38712 0.77443 0.3407 0.0
C2440 C 0.39969 0.76519 0.33924 0.0
C2441 C 0.48586 0.75515 0.35594 0.0
C2442 C 0.48206 0.75234 0.37107 0.0
C2443 C 0.47448 0.75385 0.34415 0.0
C2444 C 0.45909 0.74967 0.34723 0.0
C2445 C 0.45527 0.74697 0.36232 0.0
C2446 C 0.4666 0.74824 0.37408 0.0
C2447 C 0.44686 0.74823 0.33484 0.0
C2448 C 0.43362 0.75671 0.33601 0.0
C2449 C 0.44821 0.73872 0.32193 0.0
C2450 C 0.46151 0.7289 0.32032 0.0
C2451 C 0.46523 0.7184 0.33161 0.0
C2452 C 0.47783 0.70923 0.33005 0.0
C2453 C 0.48674 0.71038 0.31721 0.0
C2454 C 0.48304 0.72067 0.30587 0.0
C2455 C 0.47045 0.72988 0.30737 0.0
H2456 H 0.49649 0.70326 0.31602 0.0
H2457 H 0.37356 0.79165 0.33034 0.0
H2458 H 0.9861 0.39598 1.00396 0.0
H2459 H 0.99243 0.37387 0.98891 0.0
H2460 H 0.00905 0.40304 0.95367 0.0
H2461 H 1.00261 0.42528 0.96868 0.0
H2462 H 0.99223 0.38018 0.94124 0.0
H2463 H 0.03432 0.38444 0.97753 0.0
H2464 H 0.04739 0.38728 1.00287 0.0
H2465 H 0.02561 0.34537 0.01659 0.0
H2466 H 0.01223 0.34237 0.9914 0.0
H2467 H 0.02475 0.3144 0.90544 0.0
H2468 H 0.02244 0.3395 0.91737 0.0
H2469 H 0.99814 0.31888 0.95409 0.0
H2470 H 1.0002 0.29405 0.94236 0.0
H2471 H 0.02231 0.33909 0.964 0.0
H2472 H 0.97849 0.33672 0.92776 0.0
H2473 H 0.96621 0.33415 0.90204 0.0
H2474 H 0.99298 0.37304 0.88772 0.0
H2475 H 1.00559 0.3757 0.91332 0.0
C2476 C 0.99128 0.39772 0.9931 0.0
C2477 C 0.99392 0.41243 0.98759 0.0
C2478 C 0.9949 0.38505 0.98448 0.0
C2479 C 1.00144 0.38674 0.97021 0.0
C2480 C 1.00403 0.40141 0.96463 0.0
C2481 C 1.00032 0.41411 0.97323 0.0
C2482 C 1.00528 0.37315 0.96109 0.0
C2483 C 0.99906 0.37133 0.94614 0.0
C2484 C 0.01413 0.36152 0.96743 0.0
C2485 C 0.02218 0.36325 0.9826 0.0
C2486 C 0.03223 0.37588 0.98599 0.0
C2487 C 0.03971 0.37751 1.00032 0.0
C2488 C 0.03731 0.36653 0.01134 0.0
C2489 C 0.02745 0.35387 0.00804 0.0
C2490 C 0.01993 0.35219 0.99373 0.0
C2491 C 0.01884 0.31524 0.916 0.0
C2492 C 0.01266 0.30215 0.92289 0.0
C2493 C 0.01752 0.32958 0.9228 0.0
C2494 C 0.01015 0.33104 0.93665 0.0
C2495 C 1.00394 0.31802 0.94345 0.0
C2496 C 1.00508 0.3038 0.93664 0.0
C2497 C 0.00893 0.34599 0.94438 0.0
C2498 C 0.01567 0.34806 0.95907 0.0
C2499 C 1.00072 0.35787 0.93774 0.0
C2500 C 0.99312 0.35629 0.92239 0.0
C2501 C 0.98187 0.34463 0.91909 0.0
C2502 C 0.97482 0.34318 0.90454 0.0
C2503 C 0.97885 0.3534 0.89324 0.0
C2504 C 0.9899 0.36512 0.89647 0.0
C2505 C 0.99699 0.36661 0.911 0.0
H2506 H 0.97338 0.35226 0.88199 0.0
H2507 H 0.04311 0.36781 0.02243 0.0
H2508 H 0.67425 0.80684 0.29964 0.0
H2509 H 0.65305 0.80064 0.31619 0.0
H2510 H 0.6212 0.79717 0.27726 0.0
H2511 H 0.6424 0.80379 0.26057 0.0
H2512 H 0.60916 0.8128 0.30065 0.0
H2513 H 0.63263 0.76549 0.29433 0.0
H2514 H 0.65394 0.74792 0.29384 0.0
H2515 H 0.6644 0.75679 0.34129 0.0
H2516 H 0.64328 0.77459 0.34202 0.0
H2517 H 0.55012 0.77903 0.34712 0.0
H2518 H 0.56817 0.78456 0.32691 0.0
H2519 H 0.60598 0.78851 0.36032 0.0
H2520 H 0.58818 0.78287 0.3804 0.0
H2521 H 0.61317 0.77083 0.33722 0.0
H2522 H 0.59088 0.81971 0.34282 0.0
H2523 H 0.5696 0.83733 0.34313 0.0
H2524 H 0.55669 0.82519 0.29682 0.0
H2525 H 0.5778 0.80734 0.2963 0.0
C2526 C 0.66273 0.80487 0.29457 0.0
C2527 C 0.66005 0.80584 0.27875 0.0
C2528 C 0.65062 0.80118 0.30405 0.0
C2529 C 0.63552 0.79828 0.29798 0.0
C2530 C 0.63275 0.79931 0.28221 0.0
C2531 C 0.64491 0.80297 0.27267 0.0
C2532 C 0.62274 0.79429 0.30822 0.0
C2533 C 0.60989 0.80346 0.30847 0.0
C2534 C 0.62375 0.78221 0.31856 0.0
C2535 C 0.63644 0.77147 0.31819 0.0
C2536 C 0.63954 0.76378 0.30463 0.0
C2537 C 0.65158 0.75377 0.30432 0.0
C2538 C 0.66053 0.75126 0.31752 0.0
C2539 C 0.65745 0.75875 0.33107 0.0
C2540 C 0.64544 0.76879 0.33145 0.0
C2541 C 0.56226 0.78124 0.35015 0.0
C2542 C 0.56769 0.78046 0.36539 0.0
C2543 C 0.57257 0.78442 0.33859 0.0
C2544 C 0.58847 0.78696 0.34207 0.0
C2545 C 0.5938 0.7865 0.35731 0.0
C2546 C 0.58356 0.78332 0.36881 0.0
C2547 C 0.59979 0.78959 0.32996 0.0
C2548 C 0.61235 0.7801 0.32932 0.0
C2549 C 0.59847 0.80134 0.31927 0.0
C2550 C 0.5858 0.81206 0.31958 0.0
C2551 C 0.58342 0.8207 0.33274 0.0
C2552 C 0.57141 0.83075 0.33295 0.0
C2553 C 0.56177 0.83234 0.32002 0.0
C2554 C 0.56415 0.82392 0.30684 0.0
C2555 C 0.57614 0.81384 0.30658 0.0
H2556 H 0.55247 0.84013 0.3202 0.0
H2557 H 0.66985 0.7435 0.31725 0.0
H2558 H 0.05164 0.10092 0.95762 0.0
H2559 H 0.04667 0.12309 0.94225 0.0
H2560 H 0.02997 0.1461 0.98143 0.0
H2561 H 0.03425 0.1237 0.99676 0.0
H2562 H 0.01211 0.15138 0.95681 0.0
H2563 H 0.06695 0.15326 0.96893 0.0
H2564 H 0.09312 0.14332 0.97003 0.0
H2565 H 0.09174 0.13858 0.92139 0.0
H2566 H 0.06546 0.14832 0.92001 0.0
H2567 H 0.01983 0.22767 0.93332 0.0
H2568 H 0.02073 0.20322 0.94572 0.0
H2569 H 0.03895 0.18355 0.90544 0.0
H2570 H 0.03848 0.20819 0.89308 0.0
H2571 H 0.05527 0.17558 0.92926 0.0
H2572 H 1.001 0.17526 0.91693 0.0
H2573 H 0.9749 0.18536 0.91584 0.0
H2574 H 0.97505 0.18721 0.9646 0.0
H2575 H 1.00124 0.17732 0.96599 0.0
C2576 C 0.04668 0.11059 0.96296 0.0
C2577 C 0.04342 0.11049 0.9785 0.0
C2578 C 0.044 0.12335 0.95416 0.0
C2579 C 0.03816 0.13639 0.96071 0.0
C2580 C 0.03455 0.13622 0.97612 0.0
C2581 C 0.03716 0.12343 0.98491 0.0
C2582 C 0.03612 0.15031 0.95162 0.0
C2583 C 0.02159 0.15677 0.9509 0.0
C2584 C 0.04836 0.15714 0.94357 0.0
C2585 C 0.06419 0.15138 0.94438 0.0
C2586 C 0.07219 0.15 0.95848 0.0
C2587 C 0.08704 0.14442 0.95915 0.0
C2588 C 0.09407 0.14028 0.94579 0.0
C2589 C 0.08627 0.14177 0.93173 0.0
C2590 C 0.0714 0.14733 0.93099 0.0
C2591 C 0.0238 0.2181 0.92698 0.0
C2592 C 0.02904 0.21989 0.91217 0.0
C2593 C 0.02426 0.20407 0.93409 0.0
C2594 C 0.02975 0.19142 0.92649 0.0
C2595 C 0.03466 0.1931 0.91156 0.0
C2596 C 0.03432 0.20719 0.90447 0.0
C2597 C 0.03126 0.17675 0.93447 0.0
C2598 C 0.04573 0.17015 0.93503 0.0
C2599 C 0.01895 0.1698 0.94235 0.0
C2600 C 1.00314 0.17565 0.94156 0.0
C2601 C 0.99551 0.17792 0.92742 0.0
C2602 C 0.98069 0.18359 0.92675 0.0
C2603 C 0.97333 0.18695 0.94014 0.0
C2604 C 0.98076 0.18461 0.95424 0.0
C2605 C 0.99559 0.17895 0.95497 0.0
H2606 H 0.96186 0.19134 0.9396 0.0
H2607 H 0.10558 0.13596 0.94634 0.0
H2608 H 0.3635 0.29105 0.22565 0.0
H2609 H 0.38312 0.29048 0.20648 0.0
H2610 H 0.41706 0.27804 0.24069 0.0
H2611 H 0.39764 0.27911 0.26004 0.0
H2612 H 0.42954 0.29826 0.2217 0.0
H2613 H 0.39958 0.25144 0.21644 0.0
H2614 H 0.37575 0.23523 0.21309 0.0
H2615 H 0.36559 0.2557 0.17011 0.0
H2616 H 0.38926 0.2722 0.1733 0.0
H2617 H 0.48371 0.26949 0.16972 0.0
H2618 H 0.46586 0.2734 0.19019 0.0
H2619 H 0.43055 0.28549 0.15719 0.0
H2620 H 0.44816 0.28144 0.13676 0.0
H2621 H 0.41918 0.26528 0.17608 0.0
H2622 H 0.44947 0.31206 0.18137 0.0
H2623 H 0.47341 0.32808 0.18485 0.0
H2624 H 0.48323 0.3074 0.2278 0.0
H2625 H 0.45944 0.2911 0.22448 0.0
C2626 C 0.37518 0.28841 0.22917 0.0
C2627 C 0.37892 0.28502 0.24441 0.0
C2628 C 0.38637 0.28794 0.21815 0.0
C2629 C 0.40154 0.28398 0.22207 0.0
C2630 C 0.40544 0.28104 0.23735 0.0
C2631 C 0.39426 0.28152 0.24838 0.0
C2632 C 0.41322 0.28251 0.2102 0.0
C2633 C 0.42736 0.29092 0.21181 0.0
C2634 C 0.41032 0.2731 0.19716 0.0
C2635 C 0.39611 0.26316 0.19518 0.0
C2636 C 0.3922 0.25257 0.20633 0.0
C2637 C 0.37874 0.24331 0.20445 0.0
C2638 C 0.36915 0.24446 0.19141 0.0
C2639 C 0.37302 0.25484 0.18021 0.0
C2640 C 0.38647 0.26414 0.18204 0.0
C2641 C 0.47221 0.27318 0.16685 0.0
C2642 C 0.46738 0.2751 0.15157 0.0
C2643 C 0.46201 0.27544 0.17858 0.0
C2644 C 0.44682 0.27977 0.17527 0.0
C2645 C 0.44216 0.28208 0.16006 0.0
C2646 C 0.4523 0.2798 0.14837 0.0
C2647 C 0.43546 0.28117 0.18746 0.0
C2648 C 0.42139 0.27267 0.18594 0.0
C2649 C 0.43846 0.29046 0.20058 0.0
C2650 C 0.45276 0.30025 0.2026 0.0
C2651 C 0.4568 0.31084 0.1915 0.0
C2652 C 0.47033 0.31999 0.19345 0.0
C2653 C 0.47986 0.31873 0.20652 0.0
C2654 C 0.47586 0.30834 0.21767 0.0
C2655 C 0.46234 0.29916 0.21577 0.0
H2656 H 0.49033 0.32582 0.20801 0.0
H2657 H 0.35873 0.23728 0.18998 0.0
H2658 H 0.55012 0.39619 0.01841 0.0
H2659 H 0.54392 0.37332 0.03257 0.0
H2660 H 0.52771 0.40056 0.06919 0.0
H2661 H 0.5341 0.42356 0.05509 0.0
H2662 H 0.54422 0.37891 0.08061 0.0
H2663 H 0.50221 0.38012 0.04435 0.0
H2664 H 0.4892 0.38223 0.0191 0.0
H2665 H 0.51092 0.34239 1.00367 0.0
H2666 H 0.52424 0.34016 0.02877 0.0
H2667 H 0.51082 0.3099 0.11328 0.0
H2668 H 0.51366 0.3354 0.10257 0.0
H2669 H 0.53812 0.31724 0.06525 0.0
H2670 H 0.53556 0.29204 0.07577 0.0
H2671 H 0.51408 0.33561 0.05599 0.0
H2672 H 0.5577 0.3364 0.09242 0.0
H2673 H 0.56989 0.33459 0.11808 0.0
H2674 H 0.54327 0.37113 0.13376 0.0
H2675 H 0.53076 0.37301 0.10821 0.0
C2676 C 0.54506 0.39733 0.02939 0.0
C2677 C 0.54251 0.41173 0.03555 0.0
C2678 C 0.54152 0.38422 0.03751 0.0
C2679 C 0.53509 0.38514 0.05188 0.0
C2680 C 0.53262 0.39951 0.05812 0.0
C2681 C 0.5363 0.41266 0.05005 0.0
C2682 C 0.53121 0.37108 0.06041 0.0
C2683 C 0.53738 0.36956 0.0753 0.0
C2684 C 0.52234 0.35878 0.05355 0.0
C2685 C 0.51432 0.36004 0.03842 0.0
C2686 C 0.5043 0.37187 0.03554 0.0
C2687 C 0.49685 0.37308 0.02126 0.0
C2688 C 0.49925 0.36247 0.00978 0.0
C2689 C 0.50908 0.35061 0.01257 0.0
C2690 C 0.51657 0.34936 0.02683 0.0
C2691 C 0.51691 0.31137 0.10287 0.0
C2692 C 0.52294 0.29885 0.09543 0.0
C2693 C 0.51853 0.32595 0.09676 0.0
C2694 C 0.52607 0.32821 0.08307 0.0
C2695 C 0.5322 0.31577 0.07577 0.0
C2696 C 0.53076 0.30133 0.0819 0.0
C2697 C 0.52742 0.34336 0.07596 0.0
C2698 C 0.52074 0.34507 0.06133 0.0
C2699 C 0.53564 0.35585 0.08313 0.0
C2700 C 0.54315 0.35471 0.09847 0.0
C2701 C 0.55434 0.34394 0.10137 0.0
C2702 C 0.56133 0.34293 0.11589 0.0
C2703 C 0.55732 0.3527 0.12756 0.0
C2704 C 0.54634 0.36354 0.12472 0.0
C2705 C 0.5393 0.36459 0.11022 0.0
H2706 H 0.56275 0.3519 0.13878 0.0
H2707 H 0.49348 0.36342 0.99873 0.0
H2708 H 0.66302 0.22464 0.20653 0.0
H2709 H 0.641 0.23119 0.19017 0.0
H2710 H 0.61341 0.23617 0.22947 0.0
H2711 H 0.63535 0.22915 0.24596 0.0
H2712 H 0.59734 0.22053 0.20718 0.0
H2713 H 0.62696 0.26724 0.21078 0.0
H2714 H 0.65027 0.28419 0.20987 0.0
H2715 H 0.65417 0.27325 0.16255 0.0
H2716 H 0.631 0.25606 0.16323 0.0
H2717 H 0.53645 0.25196 0.16147 0.0
H2718 H 0.55682 0.249 0.18122 0.0
H2719 H 0.58983 0.24218 0.14667 0.0
H2720 H 0.56973 0.24525 0.12696 0.0
H2721 H 0.60198 0.26082 0.16875 0.0
H2722 H 0.57372 0.21241 0.166 0.0
H2723 H 0.55046 0.19539 0.167 0.0
H2724 H 0.54396 0.20986 0.21297 0.0
H2725 H 0.56709 0.22712 0.21217 0.0
C2726 C 0.65226 0.22704 0.21173 0.0
C2727 C 0.65099 0.22632 0.22759 0.0
C2728 C 0.63969 0.23095 0.20235 0.0
C2729 C 0.62555 0.23436 0.20857 0.0
C2730 C 0.6242 0.23365 0.2244 0.0
C2731 C 0.63681 0.22975 0.23382 0.0
C2732 C 0.61215 0.2383 0.19845 0.0
C2733 C 0.59827 0.22954 0.19897 0.0
C2734 C 0.61338 0.24991 0.18757 0.0
C2735 C 0.6273 0.26026 0.18709 0.0
C2736 C 0.63285 0.26836 0.20021 0.0
C2737 C 0.64603 0.27802 0.19973 0.0
C2738 C 0.65371 0.27977 0.18617 0.0
C2739 C 0.64821 0.27188 0.17305 0.0
C2740 C 0.63504 0.26218 0.17347 0.0
C2741 C 0.54806 0.24988 0.15807 0.0
C2742 C 0.55138 0.2488 0.14258 0.0
C2743 C 0.55969 0.24813 0.16939 0.0
C2744 C 0.57486 0.24523 0.16545 0.0
C2745 C 0.57824 0.24441 0.15002 0.0
C2746 C 0.56666 0.24612 0.13874 0.0
C2747 C 0.5873 0.24286 0.17727 0.0
C2748 C 0.601 0.25193 0.17708 0.0
C2749 C 0.58589 0.23157 0.18846 0.0
C2750 C 0.57202 0.22118 0.18896 0.0
C2751 C 0.56726 0.21205 0.17628 0.0
C2752 C 0.55411 0.20235 0.17682 0.0
C2753 C 0.54571 0.20158 0.19002 0.0
C2754 C 0.55046 0.21049 0.20274 0.0
C2755 C 0.56359 0.22023 0.20225 0.0
H2756 H 0.53554 0.19406 0.19042 0.0
H2757 H 0.66391 0.28726 0.18582 0.0
H2758 H 0.47679 0.09602 0.04997 0.0
H2759 H 0.48223 0.11849 0.06605 0.0
H2760 H 0.49904 0.14288 0.02753 0.0
H2761 H 0.49418 0.12023 0.01145 0.0
H2762 H 0.51735 0.14902 0.0525 0.0
H2763 H 0.46262 0.14779 0.04032 0.0
H2764 H 0.43611 0.13636 0.03868 0.0
H2765 H 0.43712 0.13118 0.08712 0.0
H2766 H 0.46373 0.1424 0.08902 0.0
H2767 H 0.51243 0.22436 0.08031 0.0
H2768 H 0.5105 0.20026 0.0664 0.0
H2769 H 0.49149 0.17841 0.10543 0.0
H2770 H 0.49301 0.20267 0.11931 0.0
H2771 H 0.47489 0.17025 0.0811 0.0
H2772 H 0.52919 0.17256 0.09359 0.0
H2773 H 0.55567 0.18404 0.09532 0.0
H2774 H 0.55569 0.18714 0.0467 0.0
H2775 H 0.52912 0.17586 0.04469 0.0
C2776 C 0.48186 0.10607 0.04493 0.0
C2777 C 0.485 0.10627 0.02936 0.0
C2778 C 0.48481 0.11899 0.05413 0.0
C2779 C 0.49085 0.13248 0.04798 0.0
C2780 C 0.49432 0.13264 0.03254 0.0
C2781 C 0.49139 0.11971 0.02332 0.0
C2782 C 0.49328 0.14647 0.05758 0.0
C2783 C 0.50803 0.15376 0.05863 0.0
C2784 C 0.48124 0.15247 0.06591 0.0
C2785 C 0.46522 0.14579 0.06479 0.0
C2786 C 0.45723 0.14411 0.05061 0.0
C2787 C 0.44218 0.13769 0.04963 0.0
C2788 C 0.43495 0.13301 0.06278 0.0
C2789 C 0.44274 0.13479 0.07694 0.0
C2790 C 0.4578 0.14119 0.07798 0.0
C2791 C 0.50806 0.2144 0.08604 0.0
C2792 C 0.50292 0.21545 0.10096 0.0
C2793 C 0.507 0.20057 0.07806 0.0
C2794 C 0.50101 0.1874 0.08488 0.0
C2795 C 0.49617 0.18837 0.0999 0.0
C2796 C 0.4971 0.20225 0.10785 0.0
C2797 C 0.49898 0.17287 0.07604 0.0
C2798 C 0.48428 0.16548 0.07509 0.0
C2799 C 0.51108 0.16677 0.06784 0.0
C2800 C 0.52711 0.17347 0.069 0.0
C2801 C 0.5348 0.17578 0.08327 0.0
C2802 C 0.54983 0.18224 0.0843 0.0
C2803 C 0.55735 0.18634 0.07113 0.0
C2804 C 0.54985 0.18396 0.0569 0.0
C2805 C 0.53481 0.17752 0.0558 0.0
H2806 H 0.56898 0.19135 0.07195 0.0
H2807 H 0.4233 0.12804 0.062 0.0
H2808 H 0.31183 0.36817 0.71959 0.0
H2809 H 0.32905 0.39026 0.72531 0.0
H2810 H 0.28992 0.41636 0.7361 0.0
H2811 H 0.27249 0.39433 0.72991 0.0
H2812 H 0.30969 0.43242 0.71885 0.0
H2813 H 0.31395 0.40381 0.76429 0.0
H2814 H 0.31793 0.38111 0.77968 0.0
H2815 H 0.36382 0.37829 0.76347 0.0
H2816 H 0.36004 0.40085 0.7478 0.0
H2817 H 0.35991 0.49337 0.7492 0.0
H2818 H 0.33973 0.47309 0.74644 0.0
H2819 H 0.3741 0.44129 0.73543 0.0
H2820 H 0.39427 0.46128 0.73838 0.0
H2821 H 0.35483 0.4292 0.75496 0.0
H2822 H 0.34972 0.45639 0.70794 0.0
H2823 H 0.34575 0.47891 0.69226 0.0
H2824 H 0.30149 0.48432 0.71143 0.0
H2825 H 0.30529 0.46194 0.72738 0.0
C2826 C 0.30684 0.37862 0.72307 0.0
C2827 C 0.29074 0.37945 0.72425 0.0
C2828 C 0.31673 0.39123 0.7265 0.0
C2829 C 0.31083 0.40496 0.73132 0.0
C2830 C 0.29477 0.40588 0.73247 0.0
C2831 C 0.28483 0.39323 0.72904 0.0
C2832 C 0.32149 0.41834 0.73491 0.0
C2833 C 0.3194 0.43181 0.72695 0.0
C2834 C 0.33431 0.4175 0.74531 0.0
C2835 C 0.33666 0.40397 0.75478 0.0
C2836 C 0.32485 0.39829 0.76392 0.0
C2837 C 0.32708 0.38545 0.77271 0.0
C2838 C 0.3411 0.37824 0.77253 0.0
C2839 C 0.35295 0.38388 0.76359 0.0
C2840 C 0.35078 0.3967 0.75477 0.0
C2841 C 0.36318 0.48206 0.74619 0.0
C2842 C 0.37877 0.47902 0.744 0.0
C2843 C 0.3516 0.47048 0.74456 0.0
C2844 C 0.35535 0.45565 0.7406 0.0
C2845 C 0.37089 0.4526 0.73851 0.0
C2846 C 0.38244 0.46411 0.74017 0.0
C2847 C 0.34324 0.44318 0.73866 0.0
C2848 C 0.34503 0.42987 0.74696 0.0
C2849 C 0.33017 0.44418 0.72858 0.0
C2850 C 0.32787 0.45761 0.71898 0.0
C2851 C 0.33919 0.46246 0.7089 0.0
C2852 C 0.33697 0.47518 0.69995 0.0
C2853 C 0.3234 0.48307 0.70088 0.0
C2854 C 0.31201 0.47822 0.71074 0.0
C2855 C 0.31419 0.46551 0.71973 0.0
H2856 H 0.32169 0.49291 0.69394 0.0
H2857 H 0.3428 0.36831 0.77934 0.0
H2858 H 0.30162 0.66469 0.7977 0.0
H2859 H 0.31904 0.6444 0.79285 0.0
H2860 H 0.28087 0.61659 0.77351 0.0
H2861 H 0.26318 0.63682 0.77873 0.0
H2862 H 0.29945 0.6003 0.79236 0.0
H2863 H 0.3066 0.63329 0.75054 0.0
H2864 H 0.31146 0.65765 0.73788 0.0
H2865 H 0.35599 0.66287 0.76102 0.0
H2866 H 0.35131 0.63864 0.774 0.0
H2867 H 0.35177 0.54702 0.76216 0.0
H2868 H 0.33117 0.56477 0.76575 0.0
H2869 H 0.36486 0.59818 0.78418 0.0
H2870 H 0.3854 0.58071 0.78041 0.0
H2871 H 0.34673 0.61058 0.76357 0.0
H2872 H 0.33878 0.57837 0.80664 0.0
H2873 H 0.33381 0.55409 0.81944 0.0
H2874 H 0.29078 0.54732 0.79381 0.0
H2875 H 0.2956 0.57148 0.78071 0.0
C2876 C 0.29686 0.65423 0.79252 0.0
C2877 C 0.28095 0.65241 0.78865 0.0
C2878 C 0.30688 0.64266 0.78962 0.0
C2879 C 0.30133 0.62899 0.78266 0.0
C2880 C 0.28545 0.62705 0.77884 0.0
C2881 C 0.27537 0.63867 0.78172 0.0
C2882 C 0.3122 0.6168 0.77949 0.0
C2883 C 0.30966 0.60246 0.78585 0.0
C2884 C 0.32565 0.61964 0.77118 0.0
C2885 C 0.32854 0.6342 0.76333 0.0
C2886 C 0.31738 0.63968 0.75302 0.0
C2887 C 0.32011 0.65346 0.74577 0.0
C2888 C 0.33401 0.66181 0.74866 0.0
C2889 C 0.34522 0.65639 0.75879 0.0
C2890 C 0.34255 0.64262 0.76609 0.0
C2891 C 0.35475 0.55808 0.76715 0.0
C2892 C 0.37027 0.56243 0.77095 0.0
C2893 C 0.34295 0.56823 0.76922 0.0
C2894 C 0.34642 0.58286 0.77527 0.0
C2895 C 0.36186 0.58703 0.77941 0.0
C2896 C 0.37361 0.57696 0.7773 0.0
C2897 C 0.33422 0.59415 0.77676 0.0
C2898 C 0.33648 0.60835 0.77002 0.0
C2899 C 0.32054 0.59115 0.7847 0.0
C2900 C 0.31763 0.57664 0.79257 0.0
C2901 C 0.32832 0.57164 0.80364 0.0
C2902 C 0.32552 0.55792 0.81097 0.0
C2903 C 0.31201 0.54915 0.8074 0.0
C2904 C 0.30126 0.55411 0.79654 0.0
C2905 C 0.30401 0.56782 0.78916 0.0
H2906 H 0.30987 0.53853 0.81309 0.0
H2907 H 0.3361 0.67248 0.74304 0.0
H2908 H 0.9148 0.46488 0.49441 0.0
H2909 H 0.89266 0.44844 0.5009 0.0
H2910 H 0.86263 0.47448 0.47225 0.0
H2911 H 0.88475 0.49111 0.46582 0.0
H2912 H 0.84968 0.46674 0.50017 0.0
H2913 H 0.87399 0.44222 0.45887 0.0
H2914 H 0.89589 0.43188 0.4457 0.0
H2915 H 0.90326 0.40073 0.48201 0.0
H2916 H 0.88152 0.41104 0.49551 0.0
H2917 H 0.78646 0.41123 0.49735 0.0
H2918 H 0.80669 0.43037 0.49171 0.0
H2919 H 0.84114 0.40247 0.51235 0.0
H2920 H 0.82116 0.38318 0.51744 0.0
H2921 H 0.85125 0.41202 0.48737 0.0
H2922 H 0.82797 0.43644 0.52929 0.0
H2923 H 0.80671 0.44689 0.54338 0.0
H2924 H 0.79798 0.47806 0.50738 0.0
H2925 H 0.81907 0.46766 0.49299 0.0
C2926 C 0.90346 0.46725 0.48965 0.0
C2927 C 0.90157 0.47929 0.47955 0.0
C2928 C 0.89082 0.45778 0.49329 0.0
C2929 C 0.876 0.46014 0.48695 0.0
C2930 C 0.87396 0.47242 0.47725 0.0
C2931 C 0.88663 0.48184 0.4735 0.0
C2932 C 0.8628 0.44942 0.49002 0.0
C2933 C 0.8499 0.4548 0.49721 0.0
C2934 C 0.86322 0.4338 0.48642 0.0
C2935 C 0.87622 0.4275 0.47826 0.0
C2936 C 0.88035 0.43324 0.4641 0.0
C2937 C 0.89272 0.42738 0.45657 0.0
C2938 C 0.90098 0.41568 0.46303 0.0
C2939 C 0.89686 0.4098 0.47702 0.0
C2940 C 0.8845 0.41564 0.48461 0.0
C2941 C 0.79834 0.40926 0.50079 0.0
C2942 C 0.80219 0.39564 0.50779 0.0
C2943 C 0.80991 0.42025 0.49762 0.0
C2944 C 0.82552 0.41798 0.50169 0.0
C2945 C 0.82926 0.40452 0.50899 0.0
C2946 C 0.81778 0.39347 0.51193 0.0
C2947 C 0.83812 0.4292 0.49785 0.0
C2948 C 0.85094 0.42394 0.49039 0.0
C2949 C 0.83766 0.44489 0.50136 0.0
C2950 C 0.82499 0.45116 0.51 0.0
C2951 C 0.82144 0.44545 0.52433 0.0
C2952 C 0.80943 0.45137 0.53237 0.0
C2953 C 0.80097 0.4631 0.52625 0.0
C2954 C 0.80453 0.46896 0.51209 0.0
C2955 C 0.81651 0.46306 0.50399 0.0
H2956 H 0.79168 0.46768 0.5325 0.0
H2957 H 0.91056 0.41115 0.45718 0.0
H2958 H 0.76714 0.8837 0.77076 0.0
H2959 H 0.74881 0.90381 0.77063 0.0
H2960 H 0.71537 0.87425 0.7918 0.0
H2961 H 0.73361 0.85375 0.79151 0.0
H2962 H 0.70163 0.89016 0.76935 0.0
H2963 H 0.73419 0.90227 0.8126 0.0
H2964 H 0.7586 0.90647 0.82772 0.0
H2965 H 0.77188 0.94327 0.79899 0.0
H2966 H 0.74764 0.93915 0.78354 0.0
H2967 H 0.66019 0.96104 0.77992 0.0
H2968 H 0.67263 0.93715 0.78597 0.0
H2969 H 0.7106 0.95024 0.75812 0.0
H2970 H 0.69837 0.97363 0.7518 0.0
H2971 H 0.71881 0.94121 0.78922 0.0
H2972 H 0.68716 0.92553 0.74406 0.0
H2973 H 0.66229 0.92112 0.72974 0.0
H2974 H 0.64649 0.89091 0.76419 0.0
H2975 H 0.67122 0.89532 0.77883 0.0
C2976 C 0.75585 0.88137 0.77527 0.0
C2977 C 0.75187 0.86704 0.7811 0.0
C2978 C 0.74541 0.89297 0.77534 0.0
C2979 C 0.73075 0.89065 0.7814 0.0
C2980 C 0.72664 0.87634 0.78713 0.0
C2981 C 0.73713 0.86467 0.78707 0.0
C2982 C 0.71987 0.90326 0.78149 0.0
C2983 C 0.70526 0.90123 0.77401 0.0
C2984 C 0.72451 0.91775 0.78758 0.0
C2985 C 0.73911 0.92033 0.79685 0.0
C2986 C 0.74236 0.91119 0.80944 0.0
C2987 C 0.75616 0.91356 0.81808 0.0
C2988 C 0.76679 0.92511 0.81431 0.0
C2989 C 0.76363 0.93432 0.8019 0.0
C2990 C 0.74985 0.93199 0.79321 0.0
C2991 C 0.6711 0.95873 0.77497 0.0
C2992 C 0.67823 0.96933 0.76537 0.0
C2993 C 0.67819 0.9451 0.77844 0.0
C2994 C 0.69258 0.942 0.77255 0.0
C2995 C 0.69954 0.95244 0.76284 0.0
C2996 C 0.69243 0.96583 0.7592 0.0
C2997 C 0.70092 0.9282 0.77661 0.0
C2998 C 0.71506 0.93003 0.7849 0.0
C2999 C 0.69576 0.91355 0.77143 0.0
C3000 C 0.68093 0.91092 0.76264 0.0
C3001 C 0.67832 0.91808 0.74867 0.0
C3002 C 0.66426 0.91555 0.74047 0.0
C3003 C 0.65279 0.90579 0.74608 0.0
C3004 C 0.65537 0.8985 0.75988 0.0
C3005 C 0.6694 0.90101 0.76812 0.0
H3006 H 0.64192 0.90384 0.73972 0.0
H3007 H 0.77747 0.92694 0.82102 0.0
H3008 H 0.61395 0.5611 0.98301 0.0
H3009 H 0.63738 0.57696 0.98801 0.0
H3010 H 0.6638 0.53711 0.99404 0.0
H3011 H 0.64027 0.52105 0.98893 0.0
H3012 H 0.67256 0.55916 0.01525 0.0
H3013 H 0.66576 0.55602 0.96136 0.0
H3014 H 0.65165 0.55708 0.93655 0.0
H3015 H 0.64386 0.60416 0.94425 0.0
H3016 H 0.65773 0.60334 0.96922 0.0
H3017 H 0.74286 0.60639 0.0117 0.0
H3018 H 0.72294 0.58609 1.00672 0.0
H3019 H 0.68878 0.61948 0.999 0.0
H3020 H 0.7084 0.63966 1.0038 0.0
H3021 H 0.68646 0.59782 0.97723 0.0
H3022 H 0.69128 0.59995 0.03226 0.0
H3023 H 0.70538 0.59866 0.05707 0.0
H3024 H 0.7174 0.55312 0.04683 0.0
H3025 H 0.70352 0.55421 0.02186 0.0
C3026 C 0.62473 0.55566 0.98531 0.0
C3027 C 0.62522 0.53976 0.98535 0.0
C3028 C 0.63815 0.56476 0.98821 0.0
C3029 C 0.65244 0.55825 0.99113 0.0
C3030 C 0.65293 0.5424 0.99175 0.0
C3031 C 0.63945 0.53323 0.98886 0.0
C3032 C 0.66679 0.56812 0.99322 0.0
C3033 C 0.67577 0.56743 1.00682 0.0
C3034 C 0.67097 0.579 0.98229 0.0
C3035 C 0.66269 0.57958 0.96722 0.0
C3036 C 0.66095 0.56658 0.95781 0.0
C3037 C 0.653 0.56714 0.94371 0.0
C3038 C 0.64684 0.58067 0.93884 0.0
C3039 C 0.64863 0.59368 0.94804 0.0
C3040 C 0.65655 0.59318 0.96217 0.0
C3041 C 0.7311 0.6094 0.00895 0.0
C3042 C 0.72729 0.62471 0.00818 0.0
C3043 C 0.71971 0.59777 1.00616 0.0
C3044 C 0.70431 0.60125 1.00255 0.0
C3045 C 0.70055 0.61649 1.00172 0.0
C3046 C 0.71185 0.62805 1.00454 0.0
C3047 C 0.69196 0.58919 0.99945 0.0
C3048 C 0.68338 0.58943 0.9856 0.0
C3049 C 0.68822 0.57789 0.01013 0.0
C3050 C 0.69653 0.57723 0.02513 0.0
C3051 C 0.69704 0.58971 0.03525 0.0
C3052 C 0.70497 0.589 0.04935 0.0
C3053 C 0.71232 0.57583 0.0535 0.0
C3054 C 0.71172 0.56332 0.04358 0.0
C3055 C 0.70382 0.56398 0.02946 0.0
H3056 H 0.71845 0.57531 0.06443 0.0
H3057 H 0.64069 0.58108 0.92791 0.0
H3058 H 0.23766 0.6667 0.24346 0.0
H3059 H 0.21782 0.64622 0.24498 0.0
H3060 H 0.25168 0.61343 0.23535 0.0
H3061 H 0.27147 0.63384 0.23348 0.0
H3062 H 0.22436 0.60676 0.21984 0.0
H3063 H 0.24124 0.61997 0.27147 0.0
H3064 H 0.24627 0.6373 0.29348 0.0
H3065 H 0.19827 0.64762 0.29292 0.0
H3066 H 0.193 0.63049 0.27076 0.0
H3067 H 0.19237 0.53862 0.24859 0.0
H3068 H 0.20763 0.5613 0.24227 0.0
H3069 H 0.17073 0.58913 0.25583 0.0
H3070 H 0.15543 0.56637 0.26246 0.0
H3071 H 0.19729 0.59989 0.26802 0.0
H3072 H 0.17977 0.58482 0.21791 0.0
H3073 H 0.17463 0.56737 0.19602 0.0
H3074 H 0.22324 0.56063 0.19343 0.0
H3075 H 0.22867 0.57787 0.21545 0.0
C3076 C 0.24084 0.65515 0.24147 0.0
C3077 C 0.25619 0.65191 0.23845 0.0
C3078 C 0.22951 0.64344 0.24245 0.0
C3079 C 0.23329 0.62826 0.24045 0.0
C3080 C 0.24849 0.62504 0.23699 0.0
C3081 C 0.25982 0.63672 0.23605 0.0
C3082 C 0.22159 0.61565 0.2424 0.0
C3083 C 0.21851 0.60518 0.2304 0.0
C3084 C 0.21362 0.61383 0.25602 0.0
C3085 C 0.21677 0.62409 0.26936 0.0
C3086 C 0.23179 0.62603 0.27596 0.0
C3087 C 0.23467 0.6358 0.28847 0.0
C3088 C 0.2226 0.64359 0.29456 0.0
C3089 C 0.20761 0.6416 0.28817 0.0
C3090 C 0.20467 0.63186 0.27564 0.0
C3091 C 0.18734 0.54953 0.24998 0.0
C3092 C 0.17262 0.55065 0.25597 0.0
C3093 C 0.1961 0.56253 0.24632 0.0
C3094 C 0.1903 0.57698 0.2484 0.0
C3095 C 0.17546 0.57813 0.25409 0.0
C3096 C 0.16669 0.56509 0.25782 0.0
C3097 C 0.20015 0.59082 0.24551 0.0
C3098 C 0.20294 0.60153 0.25735 0.0
C3099 C 0.20781 0.59288 0.23172 0.0
C3100 C 0.20461 0.58256 0.21841 0.0
C3101 C 0.18936 0.57953 0.21274 0.0
C3102 C 0.18639 0.56969 0.2003 0.0
C3103 C 0.1986 0.56287 0.19336 0.0
C3104 C 0.2138 0.56591 0.19882 0.0
C3105 C 0.21683 0.57573 0.21127 0.0
H3106 H 0.19628 0.55525 0.18373 0.0
H3107 H 0.22486 0.65115 0.30425 0.0
H3108 H 0.90843 0.52678 0.01651 0.0
H3109 H 0.88546 0.54139 0.01118 0.0
H3110 H 0.89068 0.56199 0.05589 0.0
H3111 H 0.91319 0.54711 0.06146 0.0
H3112 H 0.86129 0.55397 0.04964 0.0
H3113 H 0.90198 0.5806 0.02332 0.0
H3114 H 0.92266 0.58301 1.00494 0.0
H3115 H 0.89013 0.57012 0.96847 0.0
H3116 H 0.86929 0.56744 0.98669 0.0
H3117 H 0.82333 0.62198 0.04688 0.0
H3118 H 0.84229 0.60249 0.04752 0.0
H3119 H 0.82589 0.58645 1.00304 0.0
H3120 H 0.80665 0.60616 1.00228 0.0
H3121 H 0.8583 0.58906 1.00623 0.0
H3122 H 0.8169 0.56574 0.03262 0.0
H3123 H 0.79642 0.56402 0.05124 0.0
H3124 H 0.83039 0.57102 0.0878 0.0
H3125 H 0.85107 0.573 0.06938 0.0
C3126 C 0.9046 0.53433 0.02525 0.0
C3127 C 0.91277 0.53583 0.03939 0.0
C3128 C 0.89154 0.54278 0.02214 0.0
C3129 C 0.8864 0.55294 0.03307 0.0
C3130 C 0.89441 0.55427 0.04724 0.0
C3131 C 0.90741 0.54585 0.05035 0.0
C3132 C 0.87271 0.56227 0.02994 0.0
C3133 C 0.8607 0.56169 0.04019 0.0
C3134 C 0.87162 0.57201 0.01732 0.0
C3135 C 0.88413 0.57364 1.00638 0.0
C3136 C 0.89927 0.57815 0.0114 0.0
C3137 C 0.91101 0.57959 1.00101 0.0
C3138 C 0.90772 0.57667 0.98555 0.0
C3139 C 0.89267 0.57235 0.98045 0.0
C3140 C 0.88089 0.57087 0.9908 0.0
C3141 C 0.82365 0.61432 0.0372 0.0
C3142 C 0.8134 0.61564 0.02453 0.0
C3143 C 0.8345 0.60312 0.03762 0.0
C3144 C 0.83543 0.59288 0.02541 0.0
C3145 C 0.82534 0.59419 0.01263 0.0
C3146 C 0.81433 0.60542 0.01223 0.0
C3147 C 0.84715 0.58105 0.02619 0.0
C3148 C 0.85878 0.58114 0.01552 0.0
C3149 C 0.84793 0.57087 0.03845 0.0
C3150 C 0.83553 0.56961 0.0496 0.0
C3151 C 0.82 0.56702 0.04462 0.0
C3152 C 0.80835 0.56598 0.05514 0.0
C3153 C 0.8121 0.56744 0.07069 0.0
C3154 C 0.82751 0.5699 0.07575 0.0
C3155 C 0.8392 0.57096 0.06527 0.0
H3156 H 0.80306 0.56663 0.07882 0.0
H3157 H 0.91683 0.5778 0.97752 0.0
H3158 H 0.13342 1.0019 0.0317 0.0
H3159 H 0.15492 0.98595 0.02593 0.0
H3160 H 0.12328 0.94693 0.02158 0.0
H3161 H 0.1018 0.96277 0.02731 0.0
H3162 H 0.14779 0.94066 0.0389 0.0
H3163 H 0.13945 0.96409 0.99038 0.0
H3164 H 0.13692 0.98549 0.97291 0.0
H3165 H 0.18322 1.0016 0.98547 0.0
H3166 H 0.18595 0.98039 1.00317 0.0
H3167 H 0.19264 0.88648 1.00571 0.0
H3168 H 0.17336 0.90542 0.00883 0.0
H3169 H 0.20955 0.94025 0.01526 0.0
H3170 H 0.22908 0.92125 0.01203 0.0
H3171 H 0.18441 0.94999 0.9978 0.0
H3172 H 0.19303 0.92618 0.04564 0.0
H3173 H 0.19563 0.90479 0.0631 0.0
H3174 H 0.14872 0.88961 0.05198 0.0
H3175 H 0.14592 0.9108 0.03428 0.0
C3176 C 0.13101 0.98997 0.0293 0.0
C3177 C 0.11587 0.98362 0.03005 0.0
C3178 C 0.14333 0.98085 0.02601 0.0
C3179 C 0.14075 0.96522 0.02325 0.0
C3180 C 0.12561 0.95893 0.02375 0.0
C3181 C 0.11333 0.96801 0.02708 0.0
C3182 C 0.15381 0.95522 0.02043 0.0
C3183 C 0.15565 0.94263 0.02978 0.0
C3184 C 0.16445 0.95801 0.00887 0.0
C3185 C 0.16284 0.97075 0.99822 0.0
C3186 C 0.14904 0.97227 0.98951 0.0
C3187 C 0.14758 0.98435 0.97955 0.0
C3188 C 0.15989 0.99492 0.97811 0.0
C3189 C 0.17369 0.99341 0.98661 0.0
C3190 C 0.17521 0.98136 0.9966 0.0
C3191 C 0.19657 0.89818 0.00764 0.0
C3192 C 0.21245 0.9023 0.00876 0.0
C3193 C 0.18549 0.90901 0.00946 0.0
C3194 C 0.18999 0.92422 0.01256 0.0
C3195 C 0.20581 0.92856 0.01296 0.0
C3196 C 0.21696 0.91768 0.01112 0.0
C3197 C 0.17811 0.93531 0.01606 0.0
C3198 C 0.17654 0.94809 1.00693 0.0
C3199 C 0.16769 0.93274 0.02784 0.0
C3200 C 0.16931 0.92001 0.03853 0.0
C3201 C 0.18331 0.91822 0.04683 0.0
C3202 C 0.18481 0.90614 0.05678 0.0
C3203 C 0.17236 0.89583 0.05862 0.0
C3204 C 0.15837 0.8976 0.05053 0.0
C3205 C 0.15681 0.90965 0.04055 0.0
H3206 H 0.17355 0.88648 0.06634 0.0
H3207 H 0.15874 1.00427 0.97039 0.0
loop_
_geom_bond_atom_site_label_1
_geom_bond_atom_site_label_2
_geom_bond_distance
_geom_bond_site_symmetry_2
_ccdc_geom_bond_type
C0 C1 1.264 . S
C0 C5 1.479 1_455 S
C0 C10 1.465 . S
C1 C0 1.264 . S
C1 C3 1.339 1_455 S
C1 H28 0.931 . S
C2 C3 1.395 . S
C2 C4 1.320 . S
C3 C1 1.339 1_655 S
C3 C2 1.395 . S
C3 H29 0.929 . S
C4 C2 1.320 . S
C4 C5 1.405 . S
C4 H30 0.930 . S
C5 C0 1.479 1_655 S
C5 C4 1.405 . S
C5 H31 0.931 . S
U6 O7 2.454 . S
U6 O8 2.458 . S
U6 C9 2.984 . S
U6 C10 2.847 . S
U6 C23 2.882 . S
U6 O24 2.441 . S
U6 O25 2.420 . S
U6 O26 2.455 . S
U6 O27 2.449 . S
O7 U6 2.454 . S
O7 C9 1.353 . S
O8 U6 2.458 . S
O8 C9 1.286 . S
C9 U6 2.984 . S
C9 O7 1.353 . S
C9 O8 1.286 . S
C9 C11 1.363 1_554 S
C10 C0 1.465 . S
C10 U6 2.847 . S
C10 O24 1.249 . S
C10 O25 1.202 . S
C11 C9 1.363 1_556 S
C11 C13 1.414 . S
C11 C16 1.342 . S
C12 C13 1.332 . S
C12 C15 1.461 . S
C12 H32 0.932 . S
C13 C11 1.414 . S
C13 C12 1.332 . S
C13 H33 0.903 1_556 S
C14 C15 1.474 . S
C14 C16 1.285 . S
C14 H34 0.929 . S
C15 C12 1.461 . S
C15 C14 1.474 . S
C16 C11 1.342 . S
C16 C14 1.285 . S
C16 H35 0.930 . S
C17 C20 1.424 1_545 S
C17 C22 1.245 . S
C17 C23 1.428 . S
C18 C21 1.260 . S
C18 C22 1.477 1_565 S
C18 H36 0.903 1_554 S
C19 C20 1.384 . S
C19 C21 1.479 . S
C19 H37 0.929 . S
C20 C17 1.424 1_565 S
C20 C19 1.384 . S
C20 H38 0.928 . S
C21 C18 1.260 . S
C21 C19 1.479 . S
C22 C17 1.245 . S
C22 C18 1.477 1_545 S
C22 H39 0.932 . S
C23 U6 2.882 . S
C23 C17 1.428 . S
C23 O26 1.301 . S
C23 O27 1.282 . S
O24 U6 2.441 . S
O24 C10 1.249 . S
O25 U6 2.420 . S
O25 C10 1.202 . S
O26 U6 2.455 . S
O26 C23 1.301 . S
O27 U6 2.449 . S
O27 C23 1.282 . S
H28 C1 0.931 . S
H29 C3 0.929 . S
H30 C4 0.930 . S
H31 C5 0.931 . S
H32 C12 0.932 . S
H33 C13 0.903 1_554 S
H34 C14 0.929 . S
H35 C16 0.930 . S
H36 C18 0.903 1_556 S
H37 C19 0.929 . S
H38 C20 0.928 . S
H39 C22 0.932 . S
C40 C41 1.264 . S
C40 C45 1.479 . S
C40 C50 1.465 . S
C41 C40 1.264 . S
C41 C43 1.339 . S
C41 H68 0.931 . S
C42 C43 1.395 . S
C42 C44 1.320 . S
C43 C41 1.339 . S
C43 C42 1.395 . S
C43 H69 0.929 . S
C44 C42 1.320 . S
C44 C45 1.405 . S
C44 H70 0.930 . S
C45 C40 1.479 . S
C45 C44 1.405 . S
C45 H71 0.931 . S
U46 O47 2.454 . S
U46 O48 2.458 . S
U46 C49 2.984 . S
U46 C50 2.847 . S
U46 C63 2.882 . S
U46 O64 2.441 . S
U46 O65 2.420 . S
U46 O66 2.455 . S
U46 O67 2.449 . S
O47 U46 2.454 . S
O47 C49 1.353 . S
O48 U46 2.458 . S
O48 C49 1.286 . S
C49 U46 2.984 . S
C49 O47 1.353 . S
C49 O48 1.286 . S
C49 C51 1.363 . S
C50 C40 1.465 . S
C50 U46 2.847 . S
C50 O64 1.249 . S
C50 O65 1.202 . S
C51 C49 1.363 . S
C51 C53 1.408 . S
C51 C56 1.342 . S
C52 C53 1.310 . S
C52 C55 1.461 . S
C52 H72 0.932 . S
C53 C51 1.408 . S
C53 C52 1.310 . S
C53 H73 0.930 . S
C54 C55 1.474 . S
C54 C56 1.285 . S
C54 H74 0.929 . S
C55 C52 1.461 . S
C55 C54 1.474 . S
C56 C51 1.342 . S
C56 C54 1.285 . S
C56 H75 0.930 . S
C57 C60 1.424 . S
C57 C62 1.245 . S
C57 C63 1.428 . S
C58 C61 1.260 . S
C58 C62 1.477 . S
C58 H76 0.932 . S
C59 C60 1.384 . S
C59 C61 1.479 . S
C59 H77 0.929 . S
C60 C57 1.424 . S
C60 C59 1.384 . S
C60 H78 0.928 . S
C61 C58 1.260 . S
C61 C59 1.479 . S
C62 C57 1.245 . S
C62 C58 1.477 . S
C62 H79 0.932 . S
C63 U46 2.882 . S
C63 C57 1.428 . S
C63 O66 1.301 . S
C63 O67 1.282 . S
O64 U46 2.441 . S
O64 C50 1.249 . S
O65 U46 2.420 . S
O65 C50 1.202 . S
O66 U46 2.455 . S
O66 C63 1.301 . S
O67 U46 2.449 . S
O67 C63 1.282 . S
H68 C41 0.931 . S
H69 C43 0.929 . S
H70 C44 0.930 . S
H71 C45 0.931 . S
H72 C52 0.932 . S
H73 C53 0.930 . S
H74 C54 0.929 . S
H75 C56 0.930 . S
H76 C58 0.932 . S
H77 C59 0.929 . S
H78 C60 0.928 . S
H79 C62 0.932 . S
C80 C81 1.264 1_655 S
C80 C85 1.479 1_554 S
C80 C90 1.465 . S
C81 C80 1.264 1_455 S
C81 C83 1.339 . S
C81 H108 0.931 . S
C82 C83 1.395 1_656 S
C82 C84 1.320 . S
C83 C81 1.339 . S
C83 C82 1.395 1_454 S
C83 H109 0.929 . S
C84 C82 1.320 . S
C84 C85 1.405 . S
C84 H110 0.930 . S
C85 C80 1.479 1_556 S
C85 C84 1.405 . S
C85 H111 0.931 . S
U86 O87 2.454 . S
U86 O88 2.458 . S
U86 C89 2.984 . S
U86 C90 2.847 . S
U86 C103 2.882 1_655 S
U86 O104 2.441 . S
U86 O105 2.420 . S
U86 O106 2.455 . S
U86 O107 2.449 1_655 S
O87 U86 2.454 . S
O87 C89 1.353 . S
O88 U86 2.458 . S
O88 C89 1.286 . S
C89 U86 2.984 . S
C89 O87 1.353 . S
C89 O88 1.286 . S
C89 C91 1.363 . S
C90 C80 1.465 . S
C90 U86 2.847 . S
C90 O104 1.249 . S
C90 O105 1.202 . S
C91 C89 1.363 . S
C91 C93 1.408 . S
C91 C96 1.342 . S
C92 C93 1.310 . S
C92 C95 1.461 . S
C92 H112 0.932 . S
C93 C91 1.408 . S
C93 C92 1.310 . S
C93 H113 0.930 . S
C94 C95 1.474 . S
C94 C96 1.285 . S
C94 H114 0.929 . S
C95 C92 1.461 . S
C95 C94 1.474 . S
C96 C91 1.342 . S
C96 C94 1.285 . S
C96 H115 0.930 . S
C97 C100 1.424 . S
C97 C102 1.245 . S
C97 C103 1.428 . S
C98 C101 1.260 . S
C98 C102 1.477 . S
C98 H116 0.932 . S
C99 C100 1.384 . S
C99 C101 1.479 . S
C99 H117 0.929 . S
C100 C97 1.424 . S
C100 C99 1.384 . S
C100 H118 0.928 . S
C101 C98 1.260 . S
C101 C99 1.479 . S
C102 C97 1.245 . S
C102 C98 1.477 . S
C102 H119 0.952 . S
C103 U86 2.882 1_455 S
C103 C97 1.428 . S
C103 O106 1.301 1_455 S
C103 O107 1.282 . S
O104 U86 2.441 . S
O104 C90 1.249 . S
O105 U86 2.420 . S
O105 C90 1.202 . S
O106 U86 2.455 . S
O106 C103 1.301 1_655 S
O107 U86 2.449 1_455 S
O107 C103 1.282 . S
H108 C81 0.931 . S
H109 C83 0.929 . S
H110 C84 0.930 . S
H111 C85 0.931 . S
H112 C92 0.932 . S
H113 C93 0.930 . S
H114 C94 0.929 . S
H115 C96 0.930 . S
H116 C98 0.932 . S
H117 C99 0.929 . S
H118 C100 0.928 . S
H119 C102 0.952 . S
C120 C121 1.264 . S
C120 C125 1.479 . S
C120 C130 1.465 . S
C121 C120 1.264 . S
C121 C123 1.339 . S
C121 H148 0.931 . S
C122 C123 1.395 . S
C122 C124 1.320 . S
C123 C121 1.339 . S
C123 C122 1.395 . S
C123 H149 0.929 . S
C124 C122 1.320 . S
C124 C125 1.405 . S
C124 H150 0.930 . S
C125 C120 1.479 . S
C125 C124 1.405 . S
C125 H151 0.931 . S
U126 O127 2.454 . S
U126 O128 2.458 . S
U126 C129 2.984 . S
U126 C130 2.847 . S
U126 C143 2.882 . S
U126 O144 2.441 . S
U126 O145 2.420 . S
U126 O146 2.455 . S
U126 O147 2.449 . S
O127 U126 2.454 . S
O127 C129 1.353 . S
O128 U126 2.458 . S
O128 C129 1.286 . S
C129 U126 2.984 . S
C129 O127 1.353 . S
C129 O128 1.286 . S
C129 C131 1.363 . S
C130 C120 1.465 . S
C130 U126 2.847 . S
C130 O144 1.249 . S
C130 O145 1.202 . S
C131 C129 1.363 . S
C131 C133 1.408 . S
C131 C136 1.342 . S
C132 C133 1.310 . S
C132 C135 1.461 . S
C132 H152 0.932 . S
C133 C131 1.408 . S
C133 C132 1.310 . S
C133 H153 0.930 . S
C134 C135 1.474 . S
C134 C136 1.285 . S
C134 H154 0.929 . S
C135 C132 1.461 . S
C135 C134 1.474 . S
C136 C131 1.342 . S
C136 C134 1.285 . S
C136 H155 0.930 . S
C137 C140 1.424 . S
C137 C142 1.245 . S
C137 C143 1.428 . S
C138 C141 1.260 . S
C138 C142 1.477 . S
C138 H156 0.932 . S
C139 C140 1.384 . S
C139 C141 1.479 . S
C139 H157 0.929 . S
C140 C137 1.424 . S
C140 C139 1.384 . S
C140 H158 0.928 . S
C141 C138 1.260 . S
C141 C139 1.479 . S
C142 C137 1.245 . S
C142 C138 1.477 . S
C142 H159 0.932 . S
C143 U126 2.882 . S
C143 C137 1.428 . S
C143 O146 1.301 . S
C143 O147 1.282 . S
O144 U126 2.441 . S
O144 C130 1.249 . S
O145 U126 2.420 . S
O145 C130 1.202 . S
O146 U126 2.455 . S
O146 C143 1.301 . S
O147 U126 2.449 . S
O147 C143 1.282 . S
H148 C121 0.931 . S
H149 C123 0.929 . S
H150 C124 0.930 . S
H151 C125 0.931 . S
H152 C132 0.932 . S
H153 C133 0.930 . S
H154 C134 0.929 . S
H155 C136 0.930 . S
H156 C138 0.932 . S
H157 C139 0.929 . S
H158 C140 0.928 . S
H159 C142 0.932 . S
C160 C161 1.264 . S
C160 C165 1.479 . S
C160 C170 1.465 . S
C161 C160 1.264 . S
C161 C163 1.339 . S
C161 H188 0.931 1_565 S
C162 C163 1.442 . S
C162 C164 1.306 1_455 S
C163 C161 1.339 . S
C163 C162 1.442 . S
C163 H189 0.929 1_565 S
C164 C162 1.306 1_655 S
C164 C165 1.405 1_655 S
C164 H190 0.930 . S
C165 C160 1.479 . S
C165 C164 1.405 1_455 S
C165 H191 0.931 . S
U166 O167 2.454 . S
U166 O168 2.458 . S
U166 C169 2.984 . S
U166 C170 2.847 . S
U166 C183 2.882 . S
U166 O184 2.441 . S
U166 O185 2.420 . S
U166 O186 2.455 . S
U166 O187 2.513 . S
O167 U166 2.454 . S
O167 C169 1.353 . S
O168 U166 2.458 . S
O168 C169 1.286 . S
C169 U166 2.984 . S
C169 O167 1.353 . S
C169 O168 1.286 . S
C169 C171 1.363 . S
C170 C160 1.465 . S
C170 U166 2.847 . S
C170 O184 1.249 . S
C170 O185 1.202 . S
C171 C169 1.363 . S
C171 C173 1.408 . S
C171 C176 1.342 . S
C172 C173 1.310 . S
C172 C175 1.461 . S
C172 H192 0.932 . S
C173 C171 1.408 . S
C173 C172 1.310 . S
C173 H193 0.930 . S
C174 C175 1.474 . S
C174 C176 1.285 . S
C174 H194 0.929 . S
C175 C172 1.461 . S
C175 C174 1.474 . S
C176 C171 1.342 . S
C176 C174 1.285 . S
C176 H195 0.930 . S
C177 C180 1.424 . S
C177 C182 1.245 . S
C177 C183 1.428 1_545 S
C178 C181 1.260 . S
C178 C182 1.477 . S
C178 H196 0.932 . S
C179 C180 1.384 . S
C179 C181 1.479 . S
C179 H197 0.929 . S
C180 C177 1.424 . S
C180 C179 1.384 . S
C180 H198 0.928 . S
C181 C178 1.260 . S
C181 C179 1.479 . S
C182 C177 1.245 . S
C182 C178 1.477 . S
C182 H199 0.932 1_545 S
C183 U166 2.882 . S
C183 C177 1.428 1_565 S
C183 O186 1.301 . S
C183 O187 1.303 . S
O184 U166 2.441 . S
O184 C170 1.249 . S
O185 U166 2.420 . S
O185 C170 1.202 . S
O186 U166 2.455 . S
O186 C183 1.301 . S
O187 U166 2.513 . S
O187 C183 1.303 . S
H188 C161 0.931 1_545 S
H189 C163 0.929 1_545 S
H190 C164 0.930 . S
H191 C165 0.931 . S
H192 C172 0.932 . S
H193 C173 0.930 . S
H194 C174 0.929 . S
H195 C176 0.930 . S
H196 C178 0.932 . S
H197 C179 0.929 . S
H198 C180 0.928 . S
H199 C182 0.932 1_565 S
C200 C201 1.264 . S
C200 C205 1.479 . S
C200 C210 1.465 . S
C201 C200 1.264 . S
C201 C203 1.339 . S
C201 H228 0.931 . S
C202 C203 1.395 . S
C202 C204 1.320 . S
C203 C201 1.339 . S
C203 C202 1.395 . S
C203 H229 0.929 . S
C204 C202 1.320 . S
C204 C205 1.405 . S
C204 H230 0.930 . S
C205 C200 1.479 . S
C205 C204 1.405 . S
C205 H231 0.931 . S
U206 O207 2.454 . S
U206 O208 2.458 . S
U206 C209 2.984 . S
U206 C210 2.847 . S
U206 C223 2.882 . S
U206 O224 2.441 . S
U206 O225 2.420 . S
U206 O226 2.455 . S
U206 O227 2.449 . S
O207 U206 2.454 . S
O207 C209 1.353 . S
O208 U206 2.458 . S
O208 C209 1.286 . S
C209 U206 2.984 . S
C209 O207 1.353 . S
C209 O208 1.286 . S
C209 C211 1.363 . S
C210 C200 1.465 . S
C210 U206 2.847 . S
C210 O224 1.249 . S
C210 O225 1.202 . S
C211 C209 1.363 . S
C211 C213 1.408 . S
C211 C216 1.342 . S
C212 C213 1.310 . S
C212 C215 1.461 . S
C212 H232 0.932 . S
C213 C211 1.408 . S
C213 C212 1.310 . S
C213 H233 0.930 . S
C214 C215 1.474 . S
C214 C216 1.285 . S
C214 H234 0.929 . S
C215 C212 1.461 . S
C215 C214 1.474 . S
C216 C211 1.342 . S
C216 C214 1.285 . S
C216 H235 0.930 . S
C217 C220 1.424 . S
C217 C222 1.245 . S
C217 C223 1.428 . S
C218 C221 1.260 . S
C218 C222 1.477 . S
C218 H236 0.932 . S
C219 C220 1.384 . S
C219 C221 1.479 . S
C219 H237 0.929 . S
C220 C217 1.424 . S
C220 C219 1.384 . S
C220 H238 0.928 . S
C221 C218 1.260 . S
C221 C219 1.479 . S
C222 C217 1.245 . S
C222 C218 1.477 . S
C222 H239 0.932 . S
C223 U206 2.882 . S
C223 C217 1.428 . S
C223 O226 1.301 . S
C223 O227 1.282 . S
O224 U206 2.441 . S
O224 C210 1.249 . S
O225 U206 2.420 . S
O225 C210 1.202 . S
O226 U206 2.455 . S
O226 C223 1.301 . S
O227 U206 2.449 . S
O227 C223 1.282 . S
H228 C201 0.931 . S
H229 C203 0.929 . S
H230 C204 0.930 . S
H231 C205 0.931 . S
H232 C212 0.932 . S
H233 C213 0.930 . S
H234 C214 0.929 . S
H235 C216 0.930 . S
H236 C218 0.932 . S
H237 C219 0.929 . S
H238 C220 0.928 . S
H239 C222 0.932 . S
C240 C241 1.264 . S
C240 C245 1.479 . S
C240 C250 1.465 . S
C241 C240 1.264 . S
C241 C243 1.339 . S
C241 H268 0.931 . S
C242 C243 1.395 . S
C242 C244 1.320 . S
C243 C241 1.339 . S
C243 C242 1.395 . S
C243 H269 0.885 1_655 S
C244 C242 1.320 . S
C244 C245 1.405 . S
C244 H270 0.930 . S
C245 C240 1.479 . S
C245 C244 1.405 . S
C245 H271 0.931 . S
U246 O247 2.454 . S
U246 O248 2.458 . S
U246 C249 2.984 . S
U246 C250 2.847 . S
U246 C263 2.882 . S
U246 O264 2.441 . S
U246 O265 2.420 . S
U246 O266 2.455 . S
U246 O267 2.449 . S
O247 U246 2.454 . S
O247 C249 1.353 . S
O248 U246 2.458 . S
O248 C249 1.286 . S
C249 U246 2.984 . S
C249 O247 1.353 . S
C249 O248 1.286 . S
C249 C251 1.363 . S
C250 C240 1.465 . S
C250 U246 2.847 . S
C250 O264 1.249 . S
C250 O265 1.202 . S
C251 C249 1.363 . S
C251 C253 1.408 . S
C251 C256 1.342 . S
C252 C253 1.310 . S
C252 C255 1.461 . S
C252 H272 0.932 . S
C253 C251 1.408 . S
C253 C252 1.310 . S
C253 H273 0.930 . S
C254 C255 1.474 . S
C254 C256 1.285 . S
C254 H274 0.929 . S
C255 C252 1.461 . S
C255 C254 1.474 . S
C256 C251 1.342 . S
C256 C254 1.285 . S
C256 H275 0.930 . S
C257 C260 1.455 . S
C257 C262 1.239 1_455 S
C257 C263 1.400 1_455 S
C258 C261 1.260 . S
C258 C262 1.477 1_455 S
C258 H276 0.932 . S
C259 C260 1.384 . S
C259 C261 1.479 . S
C259 H277 0.929 . S
C260 C257 1.455 . S
C260 C259 1.384 . S
C260 H278 0.928 . S
C261 C258 1.260 . S
C261 C259 1.479 . S
C262 C257 1.239 1_655 S
C262 C258 1.477 1_655 S
C262 H279 0.932 . S
C263 U246 2.882 . S
C263 C257 1.400 1_655 S
C263 O266 1.301 . S
C263 O267 1.282 . S
O264 U246 2.441 . S
O264 C250 1.249 . S
O265 U246 2.420 . S
O265 C250 1.202 . S
O266 U246 2.455 . S
O266 C263 1.301 . S
O267 U246 2.449 . S
O267 C263 1.282 . S
H268 C241 0.931 . S
H269 C243 0.885 1_455 S
H270 C244 0.930 . S
H271 C245 0.931 . S
H272 C252 0.932 . S
H273 C253 0.930 . S
H274 C254 0.929 . S
H275 C256 0.930 . S
H276 C258 0.932 . S
H277 C259 0.929 . S
H278 C260 0.928 . S
H279 C262 0.932 . S
C280 C281 1.264 . S
C280 C285 1.479 . S
C280 C290 1.465 . S
C281 C280 1.264 . S
C281 C283 1.339 . S
C281 H308 0.931 . S
C282 C283 1.395 . S
C282 C284 1.320 . S
C283 C281 1.339 . S
C283 C282 1.395 . S
C283 H309 0.929 . S
C284 C282 1.320 . S
C284 C285 1.405 . S
C284 H310 0.930 . S
C285 C280 1.479 . S
C285 C284 1.405 . S
C285 H311 0.931 . S
U286 O287 2.454 . S
U286 O288 2.458 . S
U286 C289 2.984 . S
U286 C290 2.847 . S
U286 C303 2.882 . S
U286 O304 2.441 . S
U286 O305 2.420 . S
U286 O306 2.455 . S
U286 O307 2.449 . S
O287 U286 2.454 . S
O287 C289 1.353 . S
O288 U286 2.458 . S
O288 C289 1.286 . S
C289 U286 2.984 . S
C289 O287 1.353 . S
C289 O288 1.286 . S
C289 C291 1.363 . S
C290 C280 1.465 . S
C290 U286 2.847 . S
C290 O304 1.249 . S
C290 O305 1.202 . S
C291 C289 1.363 . S
C291 C293 1.408 . S
C291 C296 1.342 . S
C292 C293 1.310 . S
C292 C295 1.461 . S
C292 H312 0.932 . S
C293 C291 1.408 . S
C293 C292 1.310 . S
C293 H313 0.930 . S
C294 C295 1.474 . S
C294 C296 1.285 . S
C294 H314 0.929 . S
C295 C292 1.461 . S
C295 C294 1.474 . S
C296 C291 1.342 . S
C296 C294 1.285 . S
C296 H315 0.930 . S
C297 C300 1.424 . S
C297 C302 1.245 . S
C297 C303 1.428 . S
C298 C301 1.260 . S
C298 C302 1.477 . S
C298 H316 0.932 . S
C299 C300 1.384 . S
C299 C301 1.479 . S
C299 H317 0.929 . S
C300 C297 1.424 . S
C300 C299 1.384 . S
C300 H318 0.928 . S
C301 C298 1.260 . S
C301 C299 1.479 . S
C302 C297 1.245 . S
C302 C298 1.477 . S
C302 H319 0.932 . S
C303 U286 2.882 . S
C303 C297 1.428 . S
C303 O306 1.301 . S
C303 O307 1.282 . S
O304 U286 2.441 . S
O304 C290 1.249 . S
O305 U286 2.420 . S
O305 C290 1.202 . S
O306 U286 2.455 . S
O306 C303 1.301 . S
O307 U286 2.449 . S
O307 C303 1.282 . S
H308 C281 0.931 . S
H309 C283 0.929 . S
H310 C284 0.930 . S
H311 C285 0.931 . S
H312 C292 0.932 . S
H313 C293 0.930 . S
H314 C294 0.929 . S
H315 C296 0.930 . S
H316 C298 0.932 . S
H317 C299 0.929 . S
H318 C300 0.928 . S
H319 C302 0.932 . S
C320 C321 1.264 . S
C320 C325 1.479 . S
C320 C330 1.465 . S
C321 C320 1.264 . S
C321 C323 1.339 . S
C321 H348 0.931 . S
C322 C323 1.395 . S
C322 C324 1.320 . S
C323 C321 1.339 . S
C323 C322 1.395 . S
C323 H349 0.929 . S
C324 C322 1.320 . S
C324 C325 1.405 . S
C324 H350 0.930 . S
C325 C320 1.479 . S
C325 C324 1.405 . S
C325 H351 0.931 . S
U326 O327 2.454 . S
U326 O328 2.458 . S
U326 C329 2.984 . S
U326 C330 2.847 . S
U326 C343 2.882 . S
U326 O344 2.441 . S
U326 O345 2.420 . S
U326 O346 2.455 . S
U326 O347 2.449 . S
O327 U326 2.454 . S
O327 C329 1.353 . S
O328 U326 2.458 . S
O328 C329 1.286 . S
C329 U326 2.984 . S
C329 O327 1.353 . S
C329 O328 1.286 . S
C329 C331 1.363 . S
C330 C320 1.465 . S
C330 U326 2.847 . S
C330 O344 1.249 . S
C330 O345 1.202 . S
C331 C329 1.363 . S
C331 C333 1.408 . S
C331 C336 1.342 . S
C332 C333 1.310 . S
C332 C335 1.461 . S
C332 H352 0.932 . S
C333 C331 1.408 . S
C333 C332 1.310 . S
C333 H353 0.930 . S
C334 C335 1.474 . S
C334 C336 1.285 . S
C334 H354 0.929 . S
C335 C332 1.461 . S
C335 C334 1.474 . S
C336 C331 1.342 . S
C336 C334 1.285 . S
C336 H355 0.930 . S
C337 C340 1.424 . S
C337 C342 1.245 . S
C337 C343 1.428 . S
C338 C341 1.260 . S
C338 C342 1.477 . S
C338 H356 0.932 . S
C339 C340 1.384 . S
C339 C341 1.479 . S
C339 H357 0.929 . S
C340 C337 1.424 . S
C340 C339 1.384 . S
C340 H358 0.928 . S
C341 C338 1.260 . S
C341 C339 1.479 . S
C342 C337 1.245 . S
C342 C338 1.477 . S
C342 H359 0.932 . S
C343 U326 2.882 . S
C343 C337 1.428 . S
C343 O346 1.301 . S
C343 O347 1.282 . S
O344 U326 2.441 . S
O344 C330 1.249 . S
O345 U326 2.420 . S
O345 C330 1.202 . S
O346 U326 2.455 . S
O346 C343 1.301 . S
O347 U326 2.449 . S
O347 C343 1.282 . S
H348 C321 0.931 . S
H349 C323 0.929 . S
H350 C324 0.930 . S
H351 C325 0.931 . S
H352 C332 0.932 . S
H353 C333 0.930 . S
H354 C334 0.929 . S
H355 C336 0.930 . S
H356 C338 0.932 . S
H357 C339 0.929 . S
H358 C340 0.928 . S
H359 C342 0.932 . S
C360 C361 1.264 . S
C360 C365 1.479 . S
C360 C370 1.465 . S
C361 C360 1.264 . S
C361 C363 1.339 . S
C361 H388 0.931 . S
C362 C363 1.395 . S
C362 C364 1.320 . S
C363 C361 1.339 . S
C363 C362 1.395 . S
C363 H389 0.929 . S
C364 C362 1.320 . S
C364 C365 1.405 . S
C364 H390 0.930 . S
C365 C360 1.479 . S
C365 C364 1.405 . S
C365 H391 0.931 . S
U366 O367 2.454 . S
U366 O368 2.458 . S
U366 C369 2.984 . S
U366 C370 2.847 . S
U366 C383 2.882 . S
U366 O384 2.441 . S
U366 O385 2.420 . S
U366 O386 2.455 . S
U366 O387 2.449 . S
O367 U366 2.454 . S
O367 C369 1.353 . S
O368 U366 2.458 . S
O368 C369 1.286 . S
C369 U366 2.984 . S
C369 O367 1.353 . S
C369 O368 1.286 . S
C369 C371 1.363 . S
C370 C360 1.465 . S
C370 U366 2.847 . S
C370 O384 1.249 . S
C370 O385 1.202 . S
C371 C369 1.363 . S
C371 C373 1.408 . S
C371 C376 1.342 1_565 S
C372 C373 1.310 1_545 S
C372 C375 1.461 . S
C372 H392 0.932 . S
C373 C371 1.408 . S
C373 C372 1.310 1_565 S
C373 H393 0.930 . S
C374 C375 1.474 . S
C374 C376 1.285 . S
C374 H394 0.929 . S
C375 C372 1.461 . S
C375 C374 1.474 . S
C376 C371 1.342 1_545 S
C376 C374 1.285 . S
C376 H395 0.930 . S
C377 C380 1.424 . S
C377 C382 1.245 . S
C377 C383 1.428 . S
C378 C381 1.260 . S
C378 C382 1.477 . S
C378 H396 0.932 . S
C379 C380 1.384 . S
C379 C381 1.479 . S
C379 H397 0.929 . S
C380 C377 1.424 . S
C380 C379 1.384 . S
C380 H398 0.928 . S
C381 C378 1.260 . S
C381 C379 1.479 . S
C382 C377 1.245 . S
C382 C378 1.477 . S
C382 H399 0.932 . S
C383 U366 2.882 . S
C383 C377 1.428 . S
C383 O386 1.301 . S
C383 O387 1.282 . S
O384 U366 2.441 . S
O384 C370 1.249 . S
O385 U366 2.420 . S
O385 C370 1.202 . S
O386 U366 2.455 . S
O386 C383 1.301 . S
O387 U366 2.449 . S
O387 C383 1.282 . S
H388 C361 0.931 . S
H389 C363 0.929 . S
H390 C364 0.930 . S
H391 C365 0.931 . S
H392 C372 0.932 . S
H393 C373 0.930 . S
H394 C374 0.929 . S
H395 C376 0.930 . S
H396 C378 0.932 . S
H397 C379 0.929 . S
H398 C380 0.928 . S
H399 C382 0.932 . S
C400 C401 1.264 . S
C400 C405 1.479 . S
C400 C410 1.465 . S
C401 C400 1.264 . S
C401 C403 1.339 . S
C401 H428 0.931 . S
C402 C403 1.395 . S
C402 C404 1.320 . S
C403 C401 1.339 . S
C403 C402 1.395 . S
C403 H429 0.929 . S
C404 C402 1.320 . S
C404 C405 1.405 . S
C404 H430 0.930 . S
C405 C400 1.479 . S
C405 C404 1.405 . S
C405 H431 0.931 . S
U406 O407 2.454 . S
U406 O408 2.458 . S
U406 C409 2.984 . S
U406 C410 2.847 . S
U406 C423 2.882 . S
U406 O424 2.441 . S
U406 O425 2.420 . S
U406 O426 2.455 . S
U406 O427 2.449 . S
O407 U406 2.454 . S
O407 C409 1.353 . S
O408 U406 2.458 . S
O408 C409 1.286 . S
C409 U406 2.984 . S
C409 O407 1.353 . S
C409 O408 1.286 . S
C409 C411 1.363 . S
C410 C400 1.465 . S
C410 U406 2.847 . S
C410 O424 1.249 . S
C410 O425 1.202 . S
C411 C409 1.363 . S
C411 C413 1.408 . S
C411 C416 1.342 . S
C412 C413 1.310 . S
C412 C415 1.461 . S
C412 H432 0.932 . S
C413 C411 1.408 . S
C413 C412 1.310 . S
C413 H433 0.930 . S
C414 C415 1.474 . S
C414 C416 1.285 . S
C414 H434 0.929 . S
C415 C412 1.461 . S
C415 C414 1.474 . S
C416 C411 1.342 . S
C416 C414 1.285 . S
C416 H435 0.930 . S
C417 C420 1.424 . S
C417 C422 1.245 . S
C417 C423 1.428 . S
C418 C421 1.260 . S
C418 C422 1.477 . S
C418 H436 0.932 . S
C419 C420 1.384 . S
C419 C421 1.479 . S
C419 H437 0.929 . S
C420 C417 1.424 . S
C420 C419 1.384 . S
C420 H438 0.928 . S
C421 C418 1.260 . S
C421 C419 1.479 . S
C422 C417 1.245 . S
C422 C418 1.477 . S
C422 H439 0.932 . S
C423 U406 2.882 . S
C423 C417 1.428 . S
C423 O426 1.301 . S
C423 O427 1.282 . S
O424 U406 2.441 . S
O424 C410 1.249 . S
O425 U406 2.420 . S
O425 C410 1.202 . S
O426 U406 2.455 . S
O426 C423 1.301 . S
O427 U406 2.449 . S
O427 C423 1.282 . S
H428 C401 0.931 . S
H429 C403 0.929 . S
H430 C404 0.930 . S
H431 C405 0.931 . S
H432 C412 0.932 . S
H433 C413 0.930 . S
H434 C414 0.929 . S
H435 C416 0.930 . S
H436 C418 0.932 . S
H437 C419 0.929 . S
H438 C420 0.928 . S
H439 C422 0.932 . S
C440 C441 1.264 . S
C440 C445 1.479 . S
C440 C450 1.465 . S
C441 C440 1.264 . S
C441 C443 1.339 . S
C441 H468 0.931 . S
C442 C443 1.395 . S
C442 C444 1.320 . S
C443 C441 1.339 . S
C443 C442 1.395 . S
C443 H469 0.929 . S
C444 C442 1.320 . S
C444 C445 1.405 . S
C444 H470 0.930 . S
C445 C440 1.479 . S
C445 C444 1.405 . S
C445 H471 0.931 . S
U446 O447 2.454 . S
U446 O448 2.458 . S
U446 C449 2.984 . S
U446 C450 2.847 . S
U446 C463 2.882 . S
U446 O464 2.441 . S
U446 O465 2.420 . S
U446 O466 2.455 . S
U446 O467 2.449 . S
O447 U446 2.454 . S
O447 C449 1.353 . S
O448 U446 2.458 . S
O448 C449 1.286 . S
C449 U446 2.984 . S
C449 O447 1.353 . S
C449 O448 1.286 . S
C449 C451 1.363 . S
C450 C440 1.465 . S
C450 U446 2.847 . S
C450 O464 1.249 . S
C450 O465 1.202 . S
C451 C449 1.363 . S
C451 C453 1.408 . S
C451 C456 1.342 . S
C452 C453 1.310 . S
C452 C455 1.461 . S
C452 H472 0.932 . S
C453 C451 1.408 . S
C453 C452 1.310 . S
C453 H473 0.930 . S
C454 C455 1.474 . S
C454 C456 1.285 . S
C454 H474 0.929 . S
C455 C452 1.461 . S
C455 C454 1.474 . S
C456 C451 1.342 . S
C456 C454 1.285 . S
C456 H475 0.930 . S
C457 C460 1.424 . S
C457 C462 1.245 . S
C457 C463 1.428 . S
C458 C461 1.260 . S
C458 C462 1.477 . S
C458 H476 0.932 . S
C459 C460 1.384 . S
C459 C461 1.479 . S
C459 H477 0.929 . S
C460 C457 1.424 . S
C460 C459 1.384 . S
C460 H478 0.928 . S
C461 C458 1.260 . S
C461 C459 1.479 . S
C462 C457 1.245 . S
C462 C458 1.477 . S
C462 H479 0.932 . S
C463 U446 2.882 . S
C463 C457 1.428 . S
C463 O466 1.301 . S
C463 O467 1.282 . S
O464 U446 2.441 . S
O464 C450 1.249 . S
O465 U446 2.420 . S
O465 C450 1.202 . S
O466 U446 2.455 . S
O466 C463 1.301 . S
O467 U446 2.449 . S
O467 C463 1.282 . S
H468 C441 0.931 . S
H469 C443 0.929 . S
H470 C444 0.930 . S
H471 C445 0.931 . S
H472 C452 0.932 . S
H473 C453 0.930 . S
H474 C454 0.929 . S
H475 C456 0.930 . S
H476 C458 0.932 . S
H477 C459 0.929 . S
H478 C460 0.928 . S
H479 C462 0.932 . S
C480 C481 1.264 . S
C480 C485 1.479 . S
C480 C490 1.465 . S
C481 C480 1.264 . S
C481 C483 1.339 . S
C481 H508 0.931 . S
C482 C483 1.395 . S
C482 C484 1.320 . S
C483 C481 1.339 . S
C483 C482 1.395 . S
C483 H509 0.929 . S
C484 C482 1.320 . S
C484 C485 1.405 . S
C484 H510 0.930 . S
C485 C480 1.479 . S
C485 C484 1.405 . S
C485 H511 0.931 . S
U486 O487 2.454 . S
U486 O488 2.458 . S
U486 C489 2.984 . S
U486 C490 2.847 . S
U486 C503 2.882 . S
U486 O504 2.441 . S
U486 O505 2.420 . S
U486 O506 2.455 . S
U486 O507 2.449 . S
O487 U486 2.454 . S
O487 C489 1.353 . S
O488 U486 2.458 . S
O488 C489 1.286 . S
C489 U486 2.984 . S
C489 O487 1.353 . S
C489 O488 1.286 . S
C489 C491 1.363 . S
C490 C480 1.465 . S
C490 U486 2.847 . S
C490 O504 1.249 . S
C490 O505 1.202 . S
C491 C489 1.363 . S
C491 C493 1.408 . S
C491 C496 1.342 . S
C492 C493 1.310 . S
C492 C495 1.461 . S
C492 H512 0.932 . S
C493 C491 1.408 . S
C493 C492 1.310 . S
C493 H513 0.930 . S
C494 C495 1.474 . S
C494 C496 1.285 . S
C494 H514 0.929 . S
C495 C492 1.461 . S
C495 C494 1.474 . S
C496 C491 1.342 . S
C496 C494 1.285 . S
C496 H515 0.930 . S
C497 C500 1.424 . S
C497 C502 1.245 . S
C497 C503 1.428 . S
C498 C501 1.260 . S
C498 C502 1.477 . S
C498 H516 0.932 . S
C499 C500 1.384 . S
C499 C501 1.479 . S
C499 H517 0.929 . S
C500 C497 1.424 . S
C500 C499 1.384 . S
C500 H518 0.928 . S
C501 C498 1.260 . S
C501 C499 1.479 . S
C502 C497 1.245 . S
C502 C498 1.477 . S
C502 H519 0.932 . S
C503 U486 2.882 . S
C503 C497 1.428 . S
C503 O506 1.301 . S
C503 O507 1.282 . S
O504 U486 2.441 . S
O504 C490 1.249 . S
O505 U486 2.420 . S
O505 C490 1.202 . S
O506 U486 2.455 . S
O506 C503 1.301 . S
O507 U486 2.449 . S
O507 C503 1.282 . S
H508 C481 0.931 . S
H509 C483 0.929 . S
H510 C484 0.930 . S
H511 C485 0.931 . S
H512 C492 0.932 . S
H513 C493 0.930 . S
H514 C494 0.929 . S
H515 C496 0.930 . S
H516 C498 0.932 . S
H517 C499 0.929 . S
H518 C500 0.928 . S
H519 C502 0.932 . S
C520 C521 1.264 . S
C520 C525 1.479 . S
C520 C530 1.465 . S
C521 C520 1.264 . S
C521 C523 1.339 . S
C521 H548 0.931 . S
C522 C523 1.395 . S
C522 C524 1.320 . S
C523 C521 1.339 . S
C523 C522 1.395 . S
C523 H549 0.929 . S
C524 C522 1.320 . S
C524 C525 1.405 . S
C524 H550 0.930 . S
C525 C520 1.479 . S
C525 C524 1.405 . S
C525 H551 0.931 . S
U526 O527 2.454 . S
U526 O528 2.458 . S
U526 C529 2.984 . S
U526 C530 2.847 . S
U526 C543 2.882 . S
U526 O544 2.441 . S
U526 O545 2.420 . S
U526 O546 2.455 . S
U526 O547 2.449 . S
O527 U526 2.454 . S
O527 C529 1.353 . S
O528 U526 2.458 . S
O528 C529 1.286 . S
C529 U526 2.984 . S
C529 O527 1.353 . S
C529 O528 1.286 . S
C529 C531 1.363 . S
C530 C520 1.465 . S
C530 U526 2.847 . S
C530 O544 1.249 . S
C530 O545 1.202 . S
C531 C529 1.363 . S
C531 C533 1.408 . S
C531 C536 1.342 1_556 S
C532 C533 1.291 1_554 S
C532 C535 1.485 . S
C532 H552 0.928 1_554 S
C533 C531 1.408 . S
C533 C532 1.291 1_556 S
C533 H553 0.930 . S
C534 C535 1.474 . S
C534 C536 1.285 . S
C534 H554 0.929 . S
C535 C532 1.485 . S
C535 C534 1.474 . S
C536 C531 1.342 1_554 S
C536 C534 1.285 . S
C536 H555 0.930 . S
C537 C540 1.424 . S
C537 C542 1.245 . S
C537 C543 1.428 . S
C538 C541 1.260 . S
C538 C542 1.477 . S
C538 H556 0.932 . S
C539 C540 1.384 . S
C539 C541 1.479 . S
C539 H557 0.929 . S
C540 C537 1.424 . S
C540 C539 1.384 . S
C540 H558 0.928 . S
C541 C538 1.260 . S
C541 C539 1.479 . S
C542 C537 1.245 . S
C542 C538 1.477 . S
C542 H559 0.932 . S
C543 U526 2.882 . S
C543 C537 1.428 . S
C543 O546 1.301 . S
C543 O547 1.282 . S
O544 U526 2.441 . S
O544 C530 1.249 . S
O545 U526 2.420 . S
O545 C530 1.202 . S
O546 U526 2.455 . S
O546 C543 1.301 . S
O547 U526 2.449 . S
O547 C543 1.282 . S
H548 C521 0.931 . S
H549 C523 0.929 . S
H550 C524 0.930 . S
H551 C525 0.931 . S
H552 C532 0.928 1_556 S
H553 C533 0.930 . S
H554 C534 0.929 . S
H555 C536 0.930 . S
H556 C538 0.932 . S
H557 C539 0.929 . S
H558 C540 0.928 . S
H559 C542 0.932 . S
C560 C561 1.264 . S
C560 C565 1.479 . S
C560 C570 1.465 . S
C561 C560 1.264 . S
C561 C563 1.339 . S
C561 H588 0.931 . S
C562 C563 1.395 . S
C562 C564 1.320 . S
C563 C561 1.339 . S
C563 C562 1.395 . S
C563 H589 0.929 . S
C564 C562 1.320 . S
C564 C565 1.405 . S
C564 H590 0.930 . S
C565 C560 1.479 . S
C565 C564 1.405 . S
C565 H591 0.931 . S
U566 O567 2.454 . S
U566 O568 2.458 . S
U566 C569 2.984 . S
U566 C570 2.847 . S
U566 C583 2.882 . S
U566 O584 2.441 . S
U566 O585 2.420 . S
U566 O586 2.455 . S
U566 O587 2.449 . S
O567 U566 2.454 . S
O567 C569 1.353 . S
O568 U566 2.458 . S
O568 C569 1.286 . S
C569 U566 2.984 . S
C569 O567 1.353 . S
C569 O568 1.286 . S
C569 C571 1.363 . S
C570 C560 1.465 . S
C570 U566 2.847 . S
C570 O584 1.249 . S
C570 O585 1.202 . S
C571 C569 1.363 . S
C571 C573 1.408 . S
C571 C576 1.342 . S
C572 C573 1.310 . S
C572 C575 1.461 . S
C572 H592 0.932 . S
C573 C571 1.408 . S
C573 C572 1.310 . S
C573 H593 0.930 . S
C574 C575 1.474 . S
C574 C576 1.285 . S
C574 H594 0.929 . S
C575 C572 1.461 . S
C575 C574 1.474 . S
C576 C571 1.342 . S
C576 C574 1.285 . S
C576 H595 0.930 . S
C577 C580 1.424 . S
C577 C582 1.245 . S
C577 C583 1.428 . S
C578 C581 1.260 . S
C578 C582 1.477 . S
C578 H596 0.932 . S
C579 C580 1.384 . S
C579 C581 1.479 . S
C579 H597 0.929 . S
C580 C577 1.424 . S
C580 C579 1.384 . S
C580 H598 0.928 . S
C581 C578 1.260 . S
C581 C579 1.479 . S
C582 C577 1.245 . S
C582 C578 1.477 . S
C582 H599 0.932 . S
C583 U566 2.882 . S
C583 C577 1.428 . S
C583 O586 1.301 . S
C583 O587 1.282 . S
O584 U566 2.441 . S
O584 C570 1.249 . S
O585 U566 2.420 . S
O585 C570 1.202 . S
O586 U566 2.455 . S
O586 C583 1.301 . S
O587 U566 2.449 . S
O587 C583 1.282 . S
H588 C561 0.931 . S
H589 C563 0.929 . S
H590 C564 0.930 . S
H591 C565 0.931 . S
H592 C572 0.932 . S
H593 C573 0.930 . S
H594 C574 0.929 . S
H595 C576 0.930 . S
H596 C578 0.932 . S
H597 C579 0.929 . S
H598 C580 0.928 . S
H599 C582 0.932 . S
C600 C601 1.264 . S
C600 C605 1.479 . S
C600 C610 1.465 1_554 S
C601 C600 1.264 . S
C601 C603 1.339 . S
C601 H628 0.931 1_554 S
C602 C603 1.395 . S
C602 C604 1.320 . S
C603 C601 1.339 . S
C603 C602 1.395 . S
C603 H629 0.929 . S
C604 C602 1.320 . S
C604 C605 1.405 . S
C604 H630 0.930 . S
C605 C600 1.479 . S
C605 C604 1.405 . S
C605 H631 0.931 . S
U606 O607 2.454 . S
U606 O608 2.458 . S
U606 C609 2.984 . S
U606 C610 2.847 . S
U606 C623 2.882 . S
U606 O624 2.490 . S
U606 O625 2.420 . S
U606 O626 2.455 . S
U606 O627 2.449 . S
O607 U606 2.454 . S
O607 C609 1.353 . S
O608 U606 2.458 . S
O608 C609 1.286 . S
C609 U606 2.984 . S
C609 O607 1.353 . S
C609 O608 1.286 . S
C609 C611 1.327 1_545 S
C610 C600 1.465 1_556 S
C610 U606 2.847 . S
C610 O624 1.257 . S
C610 O625 1.202 . S
C611 C609 1.327 1_565 S
C611 C613 1.397 1_565 S
C611 C616 1.389 . S
C612 C613 1.310 1_565 S
C612 C615 1.461 . S
C612 H632 0.899 1_556 S
C613 C611 1.397 1_545 S
C613 C612 1.310 1_545 S
C613 H633 0.979 . S
C614 C615 1.474 . S
C614 C616 1.285 . S
C614 H634 0.929 . S
C615 C612 1.461 . S
C615 C614 1.474 . S
C616 C611 1.389 . S
C616 C614 1.285 . S
C616 H635 0.930 . S
C617 C620 1.424 . S
C617 C622 1.245 . S
C617 C623 1.428 . S
C618 C621 1.260 . S
C618 C622 1.477 . S
C618 H636 0.983 . S
C619 C620 1.384 . S
C619 C621 1.479 . S
C619 H637 0.929 . S
C620 C617 1.424 . S
C620 C619 1.384 . S
C620 H638 0.928 . S
C621 C618 1.260 . S
C621 C619 1.479 . S
C622 C617 1.245 . S
C622 C618 1.477 . S
C622 H639 0.932 . S
C623 U606 2.882 . S
C623 C617 1.428 . S
C623 O626 1.301 . S
C623 O627 1.282 . S
O624 U606 2.490 . S
O624 C610 1.257 . S
O625 U606 2.420 . S
O625 C610 1.202 . S
O626 U606 2.455 . S
O626 C623 1.301 . S
O627 U606 2.449 . S
O627 C623 1.282 . S
H628 C601 0.931 1_556 S
H629 C603 0.929 . S
H630 C604 0.930 . S
H631 C605 0.931 . S
H632 C612 0.899 1_554 S
H633 C613 0.979 . S
H634 C614 0.929 . S
H635 C616 0.930 . S
H636 C618 0.983 . S
H637 C619 0.929 . S
H638 C620 0.928 . S
H639 C622 0.932 . S
Mg640 O641 2.028 . S
Mg640 O647 1.986 1_554 S
Mg640 O649 2.114 . S
Mg640 O650 2.251 . S
Mg640 O653 2.010 . S
O641 Mg640 2.028 . S
O641 C644 1.250 . S
O642 Mg643 2.028 1_554 S
O642 C644 1.251 . S
Mg643 O642 2.028 1_556 S
Mg643 O648 2.040 . S
Mg643 O650 2.072 1_556 S
C644 O641 1.250 . S
C644 O642 1.251 . S
C645 O646 1.264 . S
C645 O653 1.249 . S
O646 C645 1.264 . S
O647 Mg640 1.986 1_556 S
O647 C651 1.246 . S
O648 Mg643 2.040 . S
O648 C651 1.259 . S
O649 Mg640 2.114 . S
O649 C652 1.252 . S
O650 Mg640 2.251 . S
O650 Mg643 2.072 1_554 S
O650 C652 1.273 . S
C651 O647 1.246 . S
C651 O648 1.259 . S
C652 O649 1.252 . S
C652 O650 1.273 . S
O653 Mg640 2.010 . S
O653 C645 1.249 . S
Mg654 O655 2.028 . S
Mg654 O661 1.986 . S
Mg654 O663 2.114 . S
Mg654 O664 2.251 . S
Mg654 O667 2.010 . S
O655 Mg654 2.028 . S
O655 C658 1.250 . S
O656 Mg657 2.028 . S
O656 C658 1.248 . S
Mg657 O656 2.028 . S
Mg657 O662 2.032 . S
Mg657 O664 2.079 . S
C658 O655 1.250 . S
C658 O656 1.248 . S
C659 O660 1.264 . S
C659 O667 1.249 . S
O660 C659 1.264 . S
O661 Mg654 1.986 . S
O661 C665 1.246 . S
O662 Mg657 2.032 . S
O662 C665 1.259 . S
O663 Mg654 2.114 . S
O663 C666 1.252 . S
O664 Mg654 2.251 . S
O664 Mg657 2.079 . S
O664 C666 1.273 . S
C665 O661 1.246 . S
C665 O662 1.259 . S
C666 O663 1.252 . S
C666 O664 1.273 . S
O667 Mg654 2.010 . S
O667 C659 1.249 . S
Mg668 O669 2.028 . S
Mg668 O675 1.986 1_554 S
Mg668 O677 2.114 . S
Mg668 O678 2.251 . S
Mg668 O681 2.010 . S
O669 Mg668 2.028 . S
O669 C672 1.243 1_554 S
O670 Mg671 2.028 . S
O670 C672 1.255 . S
Mg671 O670 2.028 . S
Mg671 O676 2.032 . S
Mg671 O678 2.079 1_556 S
C672 O669 1.243 1_556 S
C672 O670 1.255 . S
C673 O674 1.264 . S
C673 O681 1.249 . S
O674 C673 1.264 . S
O675 Mg668 1.986 1_556 S
O675 C679 1.246 . S
O676 Mg671 2.032 . S
O676 C679 1.259 . S
O677 Mg668 2.114 . S
O677 C680 1.252 . S
O678 Mg668 2.251 . S
O678 Mg671 2.079 1_554 S
O678 C680 1.273 . S
C679 O675 1.246 . S
C679 O676 1.259 . S
C680 O677 1.252 . S
C680 O678 1.273 . S
O681 Mg668 2.010 . S
O681 C673 1.249 . S
Mg682 O683 2.028 . S
Mg682 O689 1.986 . S
Mg682 O691 2.114 . S
Mg682 O692 2.251 . S
Mg682 O695 2.010 . S
O683 Mg682 2.028 . S
O683 C686 1.250 1_545 S
O684 Mg685 2.028 . S
O684 C686 1.248 . S
Mg685 O684 2.028 . S
Mg685 O690 2.032 . S
Mg685 O692 2.079 1_565 S
C686 O683 1.250 1_565 S
C686 O684 1.248 . S
C687 O688 1.264 . S
C687 O695 1.249 . S
O688 C687 1.264 . S
O689 Mg682 1.986 . S
O689 C693 1.246 . S
O690 Mg685 2.032 . S
O690 C693 1.259 1_565 S
O691 Mg682 2.114 . S
O691 C694 1.252 . S
O692 Mg682 2.251 . S
O692 Mg685 2.079 1_545 S
O692 C694 1.273 . S
C693 O689 1.246 . S
C693 O690 1.259 1_545 S
C694 O691 1.252 . S
C694 O692 1.273 . S
O695 Mg682 2.010 . S
O695 C687 1.249 . S
Mg696 O697 2.028 . S
Mg696 O703 1.986 . S
Mg696 O705 2.114 . S
Mg696 O706 2.251 . S
Mg696 O709 2.010 . S
O697 Mg696 2.028 . S
O697 C700 1.250 . S
O698 Mg699 2.028 . S
O698 C700 1.248 . S
Mg699 O698 2.028 . S
Mg699 O704 2.032 . S
Mg699 O706 2.079 . S
C700 O697 1.250 . S
C700 O698 1.248 . S
C701 O702 1.264 . S
C701 O709 1.249 . S
O702 C701 1.264 . S
O703 Mg696 1.986 . S
O703 C707 1.246 . S
O704 Mg699 2.032 . S
O704 C707 1.259 . S
O705 Mg696 2.114 . S
O705 C708 1.252 . S
O706 Mg696 2.251 . S
O706 Mg699 2.079 . S
O706 C708 1.273 . S
C707 O703 1.246 . S
C707 O704 1.259 . S
C708 O705 1.252 . S
C708 O706 1.273 . S
O709 Mg696 2.010 . S
O709 C701 1.249 . S
Mg710 O711 2.028 . S
Mg710 O717 1.986 . S
Mg710 O719 2.114 . S
Mg710 O720 2.251 . S
Mg710 O723 2.010 . S
O711 Mg710 2.028 . S
O711 C714 1.250 . S
O712 Mg713 2.028 . S
O712 C714 1.248 . S
Mg713 O712 2.028 . S
Mg713 O718 2.032 . S
Mg713 O720 2.079 . S
C714 O711 1.250 . S
C714 O712 1.248 . S
C715 O716 1.264 . S
C715 O723 1.249 . S
O716 C715 1.264 . S
O717 Mg710 1.986 . S
O717 C721 1.246 . S
O718 Mg713 2.032 . S
O718 C721 1.259 . S
O719 Mg710 2.114 . S
O719 C722 1.252 . S
O720 Mg710 2.251 . S
O720 Mg713 2.079 . S
O720 C722 1.273 . S
C721 O717 1.246 . S
C721 O718 1.259 . S
C722 O719 1.252 . S
C722 O720 1.273 . S
O723 Mg710 2.010 . S
O723 C715 1.249 . S
Mg724 O725 2.028 . S
Mg724 O731 1.986 . S
Mg724 O733 2.114 . S
Mg724 O734 2.251 . S
Mg724 O737 2.010 . S
O725 Mg724 2.028 . S
O725 C728 1.250 . S
O726 Mg727 2.028 . S
O726 C728 1.248 . S
Mg727 O726 2.028 . S
Mg727 O732 2.032 . S
Mg727 O734 2.079 . S
C728 O725 1.250 . S
C728 O726 1.248 . S
C729 O730 1.264 . S
C729 O737 1.249 . S
O730 C729 1.264 . S
O731 Mg724 1.986 . S
O731 C735 1.246 . S
O732 Mg727 2.032 . S
O732 C735 1.259 . S
O733 Mg724 2.114 . S
O733 C736 1.252 . S
O734 Mg724 2.251 . S
O734 Mg727 2.079 . S
O734 C736 1.273 . S
C735 O731 1.246 . S
C735 O732 1.259 . S
C736 O733 1.252 . S
C736 O734 1.273 . S
O737 Mg724 2.010 . S
O737 C729 1.249 . S
Mg738 O739 2.022 1_545 S
Mg738 O745 1.986 1_545 S
Mg738 O747 2.114 . S
Mg738 O748 2.251 . S
Mg738 O751 2.010 . S
O739 Mg738 2.022 1_565 S
O739 C742 1.259 . S
O740 Mg741 2.028 . S
O740 C742 1.248 . S
Mg741 O740 2.028 . S
Mg741 O746 2.032 . S
Mg741 O748 2.079 1_565 S
C742 O739 1.259 . S
C742 O740 1.248 . S
C743 O744 1.264 . S
C743 O751 1.249 . S
O744 C743 1.264 . S
O745 Mg738 1.986 1_565 S
O745 C749 1.246 . S
O746 Mg741 2.032 . S
O746 C749 1.259 . S
O747 Mg738 2.114 . S
O747 C750 1.252 . S
O748 Mg738 2.251 . S
O748 Mg741 2.079 1_545 S
O748 C750 1.273 . S
C749 O745 1.246 . S
C749 O746 1.259 . S
C750 O747 1.252 . S
C750 O748 1.273 . S
O751 Mg738 2.010 . S
O751 C743 1.249 . S
Mg752 O753 2.028 . S
Mg752 O759 1.986 . S
Mg752 O761 2.114 . S
Mg752 O762 2.251 . S
Mg752 O765 2.010 . S
O753 Mg752 2.028 . S
O753 C756 1.250 1_455 S
O754 Mg755 2.028 . S
O754 C756 1.248 . S
Mg755 O754 2.028 . S
Mg755 O760 2.032 . S
Mg755 O762 2.079 1_655 S
C756 O753 1.250 1_655 S
C756 O754 1.248 . S
C757 O758 1.264 . S
C757 O765 1.249 . S
O758 C757 1.264 . S
O759 Mg752 1.986 . S
O759 C763 1.246 . S
O760 Mg755 2.032 . S
O760 C763 1.259 1_655 S
O761 Mg752 2.114 . S
O761 C764 1.252 . S
O762 Mg752 2.251 . S
O762 Mg755 2.079 1_455 S
O762 C764 1.273 . S
C763 O759 1.246 . S
C763 O760 1.259 1_455 S
C764 O761 1.252 . S
C764 O762 1.273 . S
O765 Mg752 2.010 . S
O765 C757 1.249 . S
Mg766 O767 2.028 . S
Mg766 O773 1.986 . S
Mg766 O775 2.114 . S
Mg766 O776 2.251 . S
Mg766 O779 2.010 . S
O767 Mg766 2.028 . S
O767 C770 1.250 . S
O768 Mg769 2.028 . S
O768 C770 1.248 . S
Mg769 O768 2.028 . S
Mg769 O774 2.032 . S
Mg769 O776 2.079 . S
C770 O767 1.250 . S
C770 O768 1.248 . S
C771 O772 1.264 . S
C771 O779 1.249 . S
O772 C771 1.264 . S
O773 Mg766 1.986 . S
O773 C777 1.246 . S
O774 Mg769 2.032 . S
O774 C777 1.259 . S
O775 Mg766 2.114 . S
O775 C778 1.252 . S
O776 Mg766 2.251 . S
O776 Mg769 2.079 . S
O776 C778 1.273 . S
C777 O773 1.246 . S
C777 O774 1.259 . S
C778 O775 1.252 . S
C778 O776 1.273 . S
O779 Mg766 2.010 . S
O779 C771 1.249 . S
Mg780 O781 2.028 1_655 S
Mg780 O787 1.999 . S
Mg780 O789 2.114 . S
Mg780 O790 2.251 1_655 S
Mg780 O793 2.010 . S
O781 Mg780 2.028 1_455 S
O781 C784 1.250 . S
O782 Mg783 2.028 . S
O782 C784 1.248 . S
Mg783 O782 2.028 . S
Mg783 O788 2.032 . S
Mg783 O790 2.079 . S
C784 O781 1.250 . S
C784 O782 1.248 . S
C785 O786 1.264 . S
C785 O793 1.249 . S
O786 C785 1.264 . S
O787 Mg780 1.999 . S
O787 C791 1.211 1_655 S
O788 Mg783 2.032 . S
O788 C791 1.259 . S
O789 Mg780 2.114 . S
O789 C792 1.252 . S
O790 Mg780 2.251 1_455 S
O790 Mg783 2.079 . S
O790 C792 1.273 1_455 S
C791 O787 1.211 1_455 S
C791 O788 1.259 . S
C792 O789 1.252 . S
C792 O790 1.273 1_655 S
O793 Mg780 2.010 . S
O793 C785 1.249 . S
Mg794 O795 2.028 . S
Mg794 O801 1.986 . S
Mg794 O803 2.114 . S
Mg794 O804 2.251 . S
Mg794 O807 2.010 . S
O795 Mg794 2.028 . S
O795 C798 1.250 . S
O796 Mg797 2.028 . S
O796 C798 1.248 . S
Mg797 O796 2.028 . S
Mg797 O802 2.032 . S
Mg797 O804 2.079 . S
C798 O795 1.250 . S
C798 O796 1.248 . S
C799 O800 1.264 . S
C799 O807 1.249 . S
O800 C799 1.264 . S
O801 Mg794 1.986 . S
O801 C805 1.246 . S
O802 Mg797 2.032 . S
O802 C805 1.259 . S
O803 Mg794 2.114 . S
O803 C806 1.252 . S
O804 Mg794 2.251 . S
O804 Mg797 2.079 . S
O804 C806 1.273 . S
C805 O801 1.246 . S
C805 O802 1.259 . S
C806 O803 1.252 . S
C806 O804 1.273 . S
O807 Mg794 2.010 . S
O807 C799 1.249 . S
H808 C826 0.951 . S
H809 C828 0.951 . S
H810 C830 0.950 . S
H811 C831 0.950 . S
H812 C833 0.950 . S
H813 C836 0.950 . S
H814 C837 0.950 . S
H815 C839 0.950 . S
H816 C840 0.950 . S
H817 C841 0.951 . S
H818 C843 0.951 . S
H819 C845 0.950 . S
H820 C846 0.950 . S
H821 C848 0.950 . S
H822 C851 0.950 . S
H823 C852 0.950 . S
H824 C854 0.950 . S
H825 C855 0.950 . S
C826 H808 0.951 . S
C826 C827 1.366 . S
C826 C828 1.388 . S
C827 C826 1.366 . S
C827 C831 1.385 . S
C828 H809 0.951 . S
C828 C826 1.388 . S
C828 C829 1.366 . S
C829 C828 1.366 . S
C829 C830 1.414 . S
C829 C832 1.499 . S
C830 H810 0.950 . S
C830 C829 1.414 . S
C830 C831 1.374 . S
C831 H811 0.950 . S
C831 C827 1.385 . S
C831 C830 1.374 . S
C832 C829 1.499 . S
C832 C833 1.373 . S
C832 C834 1.389 . S
C833 H812 0.950 . S
C833 C832 1.373 . S
C833 C849 1.377 . S
C834 C832 1.389 . S
C834 C835 1.524 . S
C834 C848 1.377 . S
C835 C834 1.524 . S
C835 C836 1.397 . S
C835 C840 1.363 . S
C836 H813 0.950 . S
C836 C835 1.397 . S
C836 C837 1.334 . S
C837 H814 0.950 . S
C837 C836 1.334 . S
C837 C838 1.287 . S
C838 C837 1.287 . S
C838 C839 1.524 . S
C838 H857 0.913 . S
C839 H815 0.950 . S
C839 C838 1.524 . S
C839 C840 1.415 . S
C840 H816 0.950 . S
C840 C835 1.363 . S
C840 C839 1.415 . S
C841 H817 0.951 . S
C841 C842 1.366 . S
C841 C843 1.388 . S
C842 C841 1.366 . S
C842 C846 1.385 . S
C843 H818 0.951 . S
C843 C841 1.388 . S
C843 C844 1.366 . S
C844 C843 1.366 . S
C844 C845 1.414 . S
C844 C847 1.499 . S
C845 H819 0.950 . S
C845 C844 1.414 . S
C845 C846 1.374 . S
C846 H820 0.950 . S
C846 C842 1.385 . S
C846 C845 1.374 . S
C847 C844 1.499 . S
C847 C848 1.373 . S
C847 C849 1.389 . S
C848 H821 0.950 . S
C848 C834 1.377 . S
C848 C847 1.373 . S
C849 C833 1.377 . S
C849 C847 1.389 . S
C849 C850 1.524 . S
C850 C849 1.524 . S
C850 C851 1.397 . S
C850 C855 1.363 . S
C851 H822 0.950 . S
C851 C850 1.397 . S
C851 C852 1.334 . S
C852 H823 0.950 . S
C852 C851 1.334 . S
C852 C853 1.287 . S
C853 C852 1.287 . S
C853 C854 1.524 . S
C853 H856 0.999 . S
C854 H824 0.950 . S
C854 C853 1.524 . S
C854 C855 1.415 . S
C855 H825 0.950 . S
C855 C850 1.363 . S
C855 C854 1.415 . S
H856 C853 0.999 . S
H857 C838 0.913 . S
H858 C876 0.951 . S
H859 C878 0.951 . S
H860 C880 0.950 . S
H861 C881 0.950 . S
H862 C883 0.950 . S
H863 C886 0.950 . S
H864 C887 0.950 . S
H865 C889 0.950 . S
H866 C890 0.950 . S
H867 C891 0.951 . S
H868 C893 0.951 . S
H869 C895 0.950 . S
H870 C896 0.950 . S
H871 C898 0.950 . S
H872 C901 0.950 . S
H873 C902 0.950 . S
H874 C904 0.950 . S
H875 C905 0.950 . S
C876 H858 0.951 . S
C876 C877 1.366 . S
C876 C878 1.388 . S
C877 C876 1.366 . S
C877 C881 1.385 . S
C878 H859 0.951 . S
C878 C876 1.388 . S
C878 C879 1.366 . S
C879 C878 1.366 . S
C879 C880 1.414 . S
C879 C882 1.499 . S
C880 H860 0.950 . S
C880 C879 1.414 . S
C880 C881 1.374 . S
C881 H861 0.950 . S
C881 C877 1.385 . S
C881 C880 1.374 . S
C882 C879 1.499 . S
C882 C883 1.373 . S
C882 C884 1.389 . S
C883 H862 0.950 . S
C883 C882 1.373 . S
C883 C899 1.377 . S
C884 C882 1.389 . S
C884 C885 1.524 . S
C884 C898 1.377 . S
C885 C884 1.524 . S
C885 C886 1.397 . S
C885 C890 1.363 . S
C886 H863 0.950 . S
C886 C885 1.397 . S
C886 C887 1.334 . S
C887 H864 0.950 . S
C887 C886 1.334 . S
C887 C888 1.287 . S
C888 C887 1.287 . S
C888 C889 1.524 . S
C888 H907 0.913 . S
C889 H865 0.950 . S
C889 C888 1.524 . S
C889 C890 1.415 . S
C890 H866 0.950 . S
C890 C885 1.363 . S
C890 C889 1.415 . S
C891 H867 0.951 . S
C891 C892 1.366 . S
C891 C893 1.388 . S
C892 C891 1.366 . S
C892 C896 1.385 . S
C893 H868 0.951 . S
C893 C891 1.388 . S
C893 C894 1.366 . S
C894 C893 1.366 . S
C894 C895 1.414 . S
C894 C897 1.499 . S
C895 H869 0.950 . S
C895 C894 1.414 . S
C895 C896 1.374 . S
C896 H870 0.950 . S
C896 C892 1.385 . S
C896 C895 1.374 . S
C897 C894 1.499 . S
C897 C898 1.373 . S
C897 C899 1.389 . S
C898 H871 0.950 . S
C898 C884 1.377 . S
C898 C897 1.373 . S
C899 C883 1.377 . S
C899 C897 1.389 . S
C899 C900 1.524 . S
C900 C899 1.524 . S
C900 C901 1.397 . S
C900 C905 1.363 . S
C901 H872 0.950 . S
C901 C900 1.397 . S
C901 C902 1.334 . S
C902 H873 0.950 . S
C902 C901 1.334 . S
C902 C903 1.287 . S
C903 C902 1.287 . S
C903 C904 1.524 . S
C903 H906 0.999 . S
C904 H874 0.950 . S
C904 C903 1.524 . S
C904 C905 1.415 . S
C905 H875 0.950 . S
C905 C900 1.363 . S
C905 C904 1.415 . S
H906 C903 0.999 . S
H907 C888 0.913 . S
H908 C926 0.951 . S
H909 C928 0.951 . S
H910 C930 0.950 . S
H911 C931 0.950 . S
H912 C933 0.950 . S
H913 C936 0.950 . S
H914 C937 0.950 . S
H915 C939 0.950 . S
H916 C940 0.950 . S
H917 C941 0.951 . S
H918 C943 0.951 . S
H919 C945 0.950 . S
H920 C946 0.950 . S
H921 C948 0.950 . S
H922 C951 0.950 . S
H923 C952 0.950 . S
H924 C954 0.950 . S
H925 C955 0.950 . S
C926 H908 0.951 . S
C926 C927 1.366 . S
C926 C928 1.388 . S
C927 C926 1.366 . S
C927 C931 1.385 . S
C928 H909 0.951 . S
C928 C926 1.388 . S
C928 C929 1.366 . S
C929 C928 1.366 . S
C929 C930 1.414 . S
C929 C932 1.499 . S
C930 H910 0.950 . S
C930 C929 1.414 . S
C930 C931 1.374 . S
C931 H911 0.950 . S
C931 C927 1.385 . S
C931 C930 1.374 . S
C932 C929 1.499 . S
C932 C933 1.373 . S
C932 C934 1.389 . S
C933 H912 0.950 . S
C933 C932 1.373 . S
C933 C949 1.377 . S
C934 C932 1.389 . S
C934 C935 1.524 . S
C934 C948 1.377 . S
C935 C934 1.524 . S
C935 C936 1.397 . S
C935 C940 1.363 . S
C936 H913 0.950 . S
C936 C935 1.397 . S
C936 C937 1.334 . S
C937 H914 0.950 . S
C937 C936 1.334 . S
C937 C938 1.287 . S
C938 C937 1.287 . S
C938 C939 1.524 . S
C938 H957 0.913 . S
C939 H915 0.950 . S
C939 C938 1.524 . S
C939 C940 1.415 . S
C940 H916 0.950 . S
C940 C935 1.363 . S
C940 C939 1.415 . S
C941 H917 0.951 . S
C941 C942 1.366 . S
C941 C943 1.388 . S
C942 C941 1.366 . S
C942 C946 1.385 . S
C943 H918 0.951 . S
C943 C941 1.388 . S
C943 C944 1.366 . S
C944 C943 1.366 . S
C944 C945 1.414 . S
C944 C947 1.499 . S
C945 H919 0.950 . S
C945 C944 1.414 . S
C945 C946 1.374 . S
C946 H920 0.950 . S
C946 C942 1.385 . S
C946 C945 1.374 . S
C947 C944 1.499 . S
C947 C948 1.373 . S
C947 C949 1.389 . S
C948 H921 0.950 . S
C948 C934 1.377 . S
C948 C947 1.373 . S
C949 C933 1.377 . S
C949 C947 1.389 . S
C949 C950 1.524 . S
C950 C949 1.524 . S
C950 C951 1.397 . S
C950 C955 1.363 . S
C951 H922 0.950 . S
C951 C950 1.397 . S
C951 C952 1.334 . S
C952 H923 0.950 . S
C952 C951 1.334 . S
C952 C953 1.287 . S
C953 C952 1.287 . S
C953 C954 1.524 . S
C953 H956 0.999 . S
C954 H924 0.950 . S
C954 C953 1.524 . S
C954 C955 1.415 . S
C955 H925 0.950 . S
C955 C950 1.363 . S
C955 C954 1.415 . S
H956 C953 0.999 . S
H957 C938 0.913 . S
H958 C976 0.951 1_455 S
H959 C978 0.951 . S
H960 C980 0.950 . S
H961 C981 0.950 . S
H962 C983 0.950 . S
H963 C986 0.950 . S
H964 C987 0.950 . S
H965 C989 0.950 . S
H966 C990 0.950 . S
H967 C991 0.951 . S
H968 C993 0.951 . S
H969 C995 0.950 . S
H970 C996 0.950 . S
H971 C998 0.950 . S
H972 C1001 0.950 . S
H973 C1002 0.950 . S
H974 C1004 0.950 . S
H975 C1005 0.950 . S
C976 H958 0.951 1_655 S
C976 C977 1.366 . S
C976 C978 1.388 . S
C977 C976 1.366 . S
C977 C981 1.385 . S
C978 H959 0.951 . S
C978 C976 1.388 . S
C978 C979 1.366 . S
C979 C978 1.366 . S
C979 C980 1.414 . S
C979 C982 1.499 . S
C980 H960 0.950 . S
C980 C979 1.414 . S
C980 C981 1.374 . S
C981 H961 0.950 . S
C981 C977 1.385 . S
C981 C980 1.374 . S
C982 C979 1.499 . S
C982 C983 1.373 . S
C982 C984 1.389 1_565 S
C983 H962 0.950 . S
C983 C982 1.373 . S
C983 C999 1.377 . S
C984 C982 1.389 1_545 S
C984 C985 1.524 . S
C984 C998 1.377 . S
C985 C984 1.524 . S
C985 C986 1.397 . S
C985 C990 1.363 . S
C986 H963 0.950 . S
C986 C985 1.397 . S
C986 C987 1.334 . S
C987 H964 0.950 . S
C987 C986 1.334 . S
C987 C988 1.287 1_655 S
C988 C987 1.287 1_455 S
C988 C989 1.524 . S
C988 H1007 0.913 . S
C989 H965 0.950 . S
C989 C988 1.524 . S
C989 C990 1.415 1_455 S
C990 H966 0.950 . S
C990 C985 1.363 . S
C990 C989 1.415 1_655 S
C991 H967 0.951 . S
C991 C992 1.366 . S
C991 C993 1.388 . S
C992 C991 1.366 . S
C992 C996 1.385 . S
C993 H968 0.951 . S
C993 C991 1.388 . S
C993 C994 1.366 . S
C994 C993 1.366 . S
C994 C995 1.414 . S
C994 C997 1.499 . S
C995 H969 0.950 . S
C995 C994 1.414 . S
C995 C996 1.374 . S
C996 H970 0.950 . S
C996 C992 1.385 . S
C996 C995 1.374 . S
C997 C994 1.499 . S
C997 C998 1.376 . S
C997 C999 1.386 1_545 S
C998 H971 0.950 . S
C998 C984 1.377 . S
C998 C997 1.376 . S
C999 C983 1.377 . S
C999 C997 1.386 1_565 S
C999 C1000 1.524 . S
C1000 C999 1.524 . S
C1000 C1001 1.397 . S
C1000 C1005 1.363 . S
C1001 H972 0.950 . S
C1001 C1000 1.397 . S
C1001 C1002 1.334 . S
C1002 H973 0.950 . S
C1002 C1001 1.334 . S
C1002 C1003 1.287 . S
C1003 C1002 1.287 . S
C1003 C1004 1.524 . S
C1003 H1006 0.999 . S
C1004 H974 0.950 . S
C1004 C1003 1.524 . S
C1004 C1005 1.415 . S
C1005 H975 0.950 . S
C1005 C1000 1.363 . S
C1005 C1004 1.415 . S
H1006 C1003 0.999 . S
H1007 C988 0.913 . S
H1008 C1026 0.951 . S
H1009 C1028 0.951 . S
H1010 C1030 0.950 . S
H1011 C1031 0.950 . S
H1012 C1033 0.950 . S
H1013 C1036 0.950 . S
H1014 C1037 0.950 . S
H1015 C1039 0.950 . S
H1016 C1040 0.950 . S
H1017 C1041 0.951 . S
H1018 C1043 0.951 . S
H1019 C1045 0.950 . S
H1020 C1046 0.950 . S
H1021 C1048 0.950 . S
H1022 C1051 0.950 . S
H1023 C1052 0.950 . S
H1024 C1054 0.950 . S
H1025 C1055 0.950 . S
C1026 H1008 0.951 . S
C1026 C1027 1.366 . S
C1026 C1028 1.388 . S
C1027 C1026 1.366 . S
C1027 C1031 1.385 . S
C1028 H1009 0.951 . S
C1028 C1026 1.388 . S
C1028 C1029 1.366 . S
C1029 C1028 1.366 . S
C1029 C1030 1.414 . S
C1029 C1032 1.499 . S
C1030 H1010 0.950 . S
C1030 C1029 1.414 . S
C1030 C1031 1.374 . S
C1031 H1011 0.950 . S
C1031 C1027 1.385 . S
C1031 C1030 1.374 . S
C1032 C1029 1.499 . S
C1032 C1033 1.373 . S
C1032 C1034 1.389 . S
C1033 H1012 0.950 . S
C1033 C1032 1.373 . S
C1033 C1049 1.377 . S
C1034 C1032 1.389 . S
C1034 C1035 1.524 . S
C1034 C1048 1.377 . S
C1035 C1034 1.524 . S
C1035 C1036 1.397 . S
C1035 C1040 1.363 . S
C1036 H1013 0.950 . S
C1036 C1035 1.397 . S
C1036 C1037 1.334 . S
C1037 H1014 0.950 . S
C1037 C1036 1.334 . S
C1037 C1038 1.287 . S
C1038 C1037 1.287 . S
C1038 C1039 1.524 . S
C1038 H1057 0.913 . S
C1039 H1015 0.950 . S
C1039 C1038 1.524 . S
C1039 C1040 1.415 . S
C1040 H1016 0.950 . S
C1040 C1035 1.363 . S
C1040 C1039 1.415 . S
C1041 H1017 0.951 . S
C1041 C1042 1.366 . S
C1041 C1043 1.388 . S
C1042 C1041 1.366 . S
C1042 C1046 1.385 . S
C1043 H1018 0.951 . S
C1043 C1041 1.388 . S
C1043 C1044 1.366 . S
C1044 C1043 1.366 . S
C1044 C1045 1.414 . S
C1044 C1047 1.499 . S
C1045 H1019 0.950 . S
C1045 C1044 1.414 . S
C1045 C1046 1.374 . S
C1046 H1020 0.950 . S
C1046 C1042 1.385 . S
C1046 C1045 1.374 . S
C1047 C1044 1.499 . S
C1047 C1048 1.373 . S
C1047 C1049 1.389 . S
C1048 H1021 0.950 . S
C1048 C1034 1.377 . S
C1048 C1047 1.373 . S
C1049 C1033 1.377 . S
C1049 C1047 1.389 . S
C1049 C1050 1.524 . S
C1050 C1049 1.524 . S
C1050 C1051 1.397 . S
C1050 C1055 1.363 . S
C1051 H1022 0.950 . S
C1051 C1050 1.397 . S
C1051 C1052 1.334 . S
C1052 H1023 0.950 . S
C1052 C1051 1.334 . S
C1052 C1053 1.287 . S
C1053 C1052 1.287 . S
C1053 C1054 1.524 . S
C1053 H1056 0.999 . S
C1054 H1024 0.950 . S
C1054 C1053 1.524 . S
C1054 C1055 1.415 . S
C1055 H1025 0.950 . S
C1055 C1050 1.363 . S
C1055 C1054 1.415 . S
H1056 C1053 0.999 . S
H1057 C1038 0.913 . S
H1058 C1076 0.951 . S
H1059 C1078 0.951 . S
H1060 C1080 0.950 . S
H1061 C1081 0.950 . S
H1062 C1083 0.950 . S
H1063 C1086 0.950 . S
H1064 C1087 0.950 . S
H1065 C1089 0.950 . S
H1066 C1090 0.950 . S
H1067 C1091 0.951 . S
H1068 C1093 0.951 . S
H1069 C1095 0.950 . S
H1070 C1096 0.950 . S
H1071 C1098 0.950 . S
H1072 C1101 0.950 . S
H1073 C1102 0.950 . S
H1074 C1104 0.950 . S
H1075 C1105 0.950 . S
C1076 H1058 0.951 . S
C1076 C1077 1.366 . S
C1076 C1078 1.388 . S
C1077 C1076 1.366 . S
C1077 C1081 1.385 . S
C1078 H1059 0.951 . S
C1078 C1076 1.388 . S
C1078 C1079 1.366 . S
C1079 C1078 1.366 . S
C1079 C1080 1.414 . S
C1079 C1082 1.499 . S
C1080 H1060 0.950 . S
C1080 C1079 1.414 . S
C1080 C1081 1.374 . S
C1081 H1061 0.950 . S
C1081 C1077 1.385 . S
C1081 C1080 1.374 . S
C1082 C1079 1.499 . S
C1082 C1083 1.373 . S
C1082 C1084 1.389 . S
C1083 H1062 0.950 . S
C1083 C1082 1.373 . S
C1083 C1099 1.377 . S
C1084 C1082 1.389 . S
C1084 C1085 1.524 . S
C1084 C1098 1.377 . S
C1085 C1084 1.524 . S
C1085 C1086 1.397 . S
C1085 C1090 1.363 . S
C1086 H1063 0.950 . S
C1086 C1085 1.397 . S
C1086 C1087 1.334 . S
C1087 H1064 0.950 . S
C1087 C1086 1.334 . S
C1087 C1088 1.287 . S
C1088 C1087 1.287 . S
C1088 C1089 1.524 . S
C1088 H1107 0.913 . S
C1089 H1065 0.950 . S
C1089 C1088 1.524 . S
C1089 C1090 1.415 . S
C1090 H1066 0.950 . S
C1090 C1085 1.363 . S
C1090 C1089 1.415 . S
C1091 H1067 0.951 . S
C1091 C1092 1.366 . S
C1091 C1093 1.388 . S
C1092 C1091 1.366 . S
C1092 C1096 1.385 . S
C1093 H1068 0.951 . S
C1093 C1091 1.388 . S
C1093 C1094 1.366 . S
C1094 C1093 1.366 . S
C1094 C1095 1.414 . S
C1094 C1097 1.499 . S
C1095 H1069 0.950 . S
C1095 C1094 1.414 . S
C1095 C1096 1.374 . S
C1096 H1070 0.950 . S
C1096 C1092 1.385 . S
C1096 C1095 1.374 . S
C1097 C1094 1.499 . S
C1097 C1098 1.373 . S
C1097 C1099 1.389 . S
C1098 H1071 0.950 . S
C1098 C1084 1.377 . S
C1098 C1097 1.373 . S
C1099 C1083 1.377 . S
C1099 C1097 1.389 . S
C1099 C1100 1.524 . S
C1100 C1099 1.524 . S
C1100 C1101 1.397 . S
C1100 C1105 1.363 . S
C1101 H1072 0.950 . S
C1101 C1100 1.397 . S
C1101 C1102 1.334 . S
C1102 H1073 0.950 . S
C1102 C1101 1.334 . S
C1102 C1103 1.287 . S
C1103 C1102 1.287 . S
C1103 C1104 1.524 . S
C1103 H1106 0.999 . S
C1104 H1074 0.950 . S
C1104 C1103 1.524 . S
C1104 C1105 1.415 . S
C1105 H1075 0.950 . S
C1105 C1100 1.363 . S
C1105 C1104 1.415 . S
H1106 C1103 0.999 . S
H1107 C1088 0.913 . S
H1108 C1126 0.951 . S
H1109 C1128 0.951 . S
H1110 C1130 0.950 . S
H1111 C1131 0.950 . S
H1112 C1133 0.950 . S
H1113 C1136 0.950 . S
H1114 C1137 0.950 . S
H1115 C1139 0.950 . S
H1116 C1140 0.950 . S
H1117 C1141 0.951 . S
H1118 C1143 0.951 . S
H1119 C1145 0.950 . S
H1120 C1146 0.950 . S
H1121 C1148 0.950 . S
H1122 C1151 0.950 . S
H1123 C1152 0.950 . S
H1124 C1154 0.950 . S
H1125 C1155 0.950 . S
C1126 H1108 0.951 . S
C1126 C1127 1.366 . S
C1126 C1128 1.388 . S
C1127 C1126 1.366 . S
C1127 C1131 1.385 . S
C1128 H1109 0.951 . S
C1128 C1126 1.388 . S
C1128 C1129 1.366 . S
C1129 C1128 1.366 . S
C1129 C1130 1.414 . S
C1129 C1132 1.499 . S
C1130 H1110 0.950 . S
C1130 C1129 1.414 . S
C1130 C1131 1.374 . S
C1131 H1111 0.950 . S
C1131 C1127 1.385 . S
C1131 C1130 1.374 . S
C1132 C1129 1.499 . S
C1132 C1133 1.373 . S
C1132 C1134 1.389 . S
C1133 H1112 0.950 . S
C1133 C1132 1.373 . S
C1133 C1149 1.377 . S
C1134 C1132 1.389 . S
C1134 C1135 1.524 . S
C1134 C1148 1.377 . S
C1135 C1134 1.524 . S
C1135 C1136 1.397 . S
C1135 C1140 1.363 . S
C1136 H1113 0.950 . S
C1136 C1135 1.397 . S
C1136 C1137 1.334 . S
C1137 H1114 0.950 . S
C1137 C1136 1.334 . S
C1137 C1138 1.287 . S
C1138 C1137 1.287 . S
C1138 C1139 1.524 . S
C1138 H1157 0.913 . S
C1139 H1115 0.950 . S
C1139 C1138 1.524 . S
C1139 C1140 1.415 . S
C1140 H1116 0.950 . S
C1140 C1135 1.363 . S
C1140 C1139 1.415 . S
C1141 H1117 0.951 . S
C1141 C1142 1.366 . S
C1141 C1143 1.388 . S
C1142 C1141 1.366 . S
C1142 C1146 1.385 . S
C1143 H1118 0.951 . S
C1143 C1141 1.388 . S
C1143 C1144 1.366 . S
C1144 C1143 1.366 . S
C1144 C1145 1.414 . S
C1144 C1147 1.499 . S
C1145 H1119 0.950 . S
C1145 C1144 1.414 . S
C1145 C1146 1.374 . S
C1146 H1120 0.950 . S
C1146 C1142 1.385 . S
C1146 C1145 1.374 . S
C1147 C1144 1.499 . S
C1147 C1148 1.373 . S
C1147 C1149 1.389 . S
C1148 H1121 0.950 . S
C1148 C1134 1.377 . S
C1148 C1147 1.373 . S
C1149 C1133 1.377 . S
C1149 C1147 1.389 . S
C1149 C1150 1.524 . S
C1150 C1149 1.524 . S
C1150 C1151 1.397 . S
C1150 C1155 1.363 . S
C1151 H1122 0.950 . S
C1151 C1150 1.397 . S
C1151 C1152 1.334 . S
C1152 H1123 0.950 . S
C1152 C1151 1.334 . S
C1152 C1153 1.287 . S
C1153 C1152 1.287 . S
C1153 C1154 1.524 . S
C1153 H1156 0.999 . S
C1154 H1124 0.950 . S
C1154 C1153 1.524 . S
C1154 C1155 1.415 . S
C1155 H1125 0.950 . S
C1155 C1150 1.363 . S
C1155 C1154 1.415 . S
H1156 C1153 0.999 . S
H1157 C1138 0.913 . S
H1158 C1176 0.951 . S
H1159 C1178 0.951 . S
H1160 C1180 0.944 1_545 S
H1161 C1181 0.950 . S
H1162 C1183 0.950 . S
H1163 C1186 0.950 1_545 S
H1164 C1187 0.935 1_545 S
H1165 C1189 0.950 . S
H1166 C1190 0.950 . S
H1167 C1191 0.951 . S
H1168 C1193 0.951 . S
H1169 C1195 0.950 . S
H1170 C1196 0.950 . S
H1171 C1198 0.950 . S
H1172 C1201 0.950 . S
H1173 C1202 0.950 . S
H1174 C1204 0.950 1_545 S
H1175 C1205 0.950 1_545 S
C1176 H1158 0.951 . S
C1176 C1177 1.366 . S
C1176 C1178 1.388 . S
C1177 C1176 1.366 . S
C1177 C1181 1.385 . S
C1178 H1159 0.951 . S
C1178 C1176 1.388 . S
C1178 C1179 1.366 . S
C1179 C1178 1.366 . S
C1179 C1180 1.414 . S
C1179 C1182 1.499 . S
C1180 H1160 0.944 1_565 S
C1180 C1179 1.414 . S
C1180 C1181 1.374 . S
C1181 H1161 0.950 . S
C1181 C1177 1.385 . S
C1181 C1180 1.374 . S
C1182 C1179 1.499 . S
C1182 C1183 1.373 . S
C1182 C1184 1.389 . S
C1183 H1162 0.950 . S
C1183 C1182 1.373 . S
C1183 C1199 1.377 . S
C1184 C1182 1.389 . S
C1184 C1185 1.524 . S
C1184 C1198 1.377 . S
C1185 C1184 1.524 . S
C1185 C1186 1.397 . S
C1185 C1190 1.363 . S
C1186 H1163 0.950 1_565 S
C1186 C1185 1.397 . S
C1186 C1187 1.338 . S
C1187 H1164 0.935 1_565 S
C1187 C1186 1.338 . S
C1187 C1188 1.299 . S
C1188 C1187 1.299 . S
C1188 C1189 1.524 . S
C1188 H1207 0.913 . S
C1189 H1165 0.950 . S
C1189 C1188 1.524 . S
C1189 C1190 1.415 . S
C1190 H1166 0.950 . S
C1190 C1185 1.363 . S
C1190 C1189 1.415 . S
C1191 H1167 0.951 . S
C1191 C1192 1.366 1_545 S
C1191 C1193 1.388 . S
C1192 C1191 1.366 1_565 S
C1192 C1196 1.385 . S
C1193 H1168 0.951 . S
C1193 C1191 1.388 . S
C1193 C1194 1.366 1_545 S
C1194 C1193 1.366 1_565 S
C1194 C1195 1.414 . S
C1194 C1197 1.499 . S
C1195 H1169 0.950 . S
C1195 C1194 1.414 . S
C1195 C1196 1.374 . S
C1196 H1170 0.950 . S
C1196 C1192 1.385 . S
C1196 C1195 1.374 . S
C1197 C1194 1.499 . S
C1197 C1198 1.373 . S
C1197 C1199 1.389 . S
C1198 H1171 0.950 . S
C1198 C1184 1.377 . S
C1198 C1197 1.373 . S
C1199 C1183 1.377 . S
C1199 C1197 1.389 . S
C1199 C1200 1.524 . S
C1200 C1199 1.524 . S
C1200 C1201 1.397 . S
C1200 C1205 1.363 . S
C1201 H1172 0.950 . S
C1201 C1200 1.397 . S
C1201 C1202 1.334 . S
C1202 H1173 0.950 . S
C1202 C1201 1.334 . S
C1202 C1203 1.287 . S
C1203 C1202 1.287 . S
C1203 C1204 1.524 . S
C1203 H1206 0.999 . S
C1204 H1174 0.950 1_565 S
C1204 C1203 1.524 . S
C1204 C1205 1.415 . S
C1205 H1175 0.950 1_565 S
C1205 C1200 1.363 . S
C1205 C1204 1.415 . S
H1206 C1203 0.999 . S
H1207 C1188 0.913 . S
H1208 C1226 0.951 . S
H1209 C1228 0.951 . S
H1210 C1230 0.950 . S
H1211 C1231 0.950 . S
H1212 C1233 0.950 . S
H1213 C1236 0.950 . S
H1214 C1237 0.950 . S
H1215 C1239 0.950 . S
H1216 C1240 0.950 . S
H1217 C1241 0.951 . S
H1218 C1243 0.951 . S
H1219 C1245 0.950 . S
H1220 C1246 0.950 . S
H1221 C1248 0.950 . S
H1222 C1251 0.950 . S
H1223 C1252 0.950 . S
H1224 C1254 0.950 . S
H1225 C1255 0.950 . S
C1226 H1208 0.951 . S
C1226 C1227 1.366 . S
C1226 C1228 1.388 . S
C1227 C1226 1.366 . S
C1227 C1231 1.385 . S
C1228 H1209 0.951 . S
C1228 C1226 1.388 . S
C1228 C1229 1.366 . S
C1229 C1228 1.366 . S
C1229 C1230 1.414 . S
C1229 C1232 1.499 . S
C1230 H1210 0.950 . S
C1230 C1229 1.414 . S
C1230 C1231 1.374 . S
C1231 H1211 0.950 . S
C1231 C1227 1.385 . S
C1231 C1230 1.374 . S
C1232 C1229 1.499 . S
C1232 C1233 1.373 . S
C1232 C1234 1.389 . S
C1233 H1212 0.950 . S
C1233 C1232 1.373 . S
C1233 C1249 1.377 . S
C1234 C1232 1.389 . S
C1234 C1235 1.524 . S
C1234 C1248 1.377 . S
C1235 C1234 1.524 . S
C1235 C1236 1.397 . S
C1235 C1240 1.363 . S
C1236 H1213 0.950 . S
C1236 C1235 1.397 . S
C1236 C1237 1.334 . S
C1237 H1214 0.950 . S
C1237 C1236 1.334 . S
C1237 C1238 1.287 . S
C1238 C1237 1.287 . S
C1238 C1239 1.524 . S
C1238 H1257 0.913 . S
C1239 H1215 0.950 . S
C1239 C1238 1.524 . S
C1239 C1240 1.415 . S
C1240 H1216 0.950 . S
C1240 C1235 1.363 . S
C1240 C1239 1.415 . S
C1241 H1217 0.951 . S
C1241 C1242 1.366 . S
C1241 C1243 1.388 . S
C1242 C1241 1.366 . S
C1242 C1246 1.385 . S
C1243 H1218 0.951 . S
C1243 C1241 1.388 . S
C1243 C1244 1.366 . S
C1244 C1243 1.366 . S
C1244 C1245 1.414 . S
C1244 C1247 1.499 . S
C1245 H1219 0.950 . S
C1245 C1244 1.414 . S
C1245 C1246 1.374 . S
C1246 H1220 0.950 . S
C1246 C1242 1.385 . S
C1246 C1245 1.374 . S
C1247 C1244 1.499 . S
C1247 C1248 1.373 . S
C1247 C1249 1.389 . S
C1248 H1221 0.950 . S
C1248 C1234 1.377 . S
C1248 C1247 1.373 . S
C1249 C1233 1.377 . S
C1249 C1247 1.389 . S
C1249 C1250 1.524 . S
C1250 C1249 1.524 . S
C1250 C1251 1.397 . S
C1250 C1255 1.363 . S
C1251 H1222 0.950 . S
C1251 C1250 1.397 . S
C1251 C1252 1.334 . S
C1252 H1223 0.950 . S
C1252 C1251 1.334 . S
C1252 C1253 1.287 . S
C1253 C1252 1.287 . S
C1253 C1254 1.524 . S
C1253 H1256 0.999 . S
C1254 H1224 0.950 . S
C1254 C1253 1.524 . S
C1254 C1255 1.415 . S
C1255 H1225 0.950 . S
C1255 C1250 1.363 . S
C1255 C1254 1.415 . S
H1256 C1253 0.999 . S
H1257 C1238 0.913 . S
H1258 C1276 0.951 . S
H1259 C1278 0.951 . S
H1260 C1280 0.950 . S
H1261 C1281 0.950 . S
H1262 C1283 0.950 . S
H1263 C1286 0.950 . S
H1264 C1287 0.950 . S
H1265 C1289 0.950 . S
H1266 C1290 0.950 . S
H1267 C1291 0.951 . S
H1268 C1293 0.951 . S
H1269 C1295 0.950 . S
H1270 C1296 0.950 . S
H1271 C1298 0.950 . S
H1272 C1301 0.950 . S
H1273 C1302 0.950 . S
H1274 C1304 0.950 . S
H1275 C1305 0.950 . S
C1276 H1258 0.951 . S
C1276 C1277 1.366 . S
C1276 C1278 1.388 . S
C1277 C1276 1.366 . S
C1277 C1281 1.385 . S
C1278 H1259 0.951 . S
C1278 C1276 1.388 . S
C1278 C1279 1.366 . S
C1279 C1278 1.366 . S
C1279 C1280 1.414 . S
C1279 C1282 1.499 . S
C1280 H1260 0.950 . S
C1280 C1279 1.414 . S
C1280 C1281 1.374 . S
C1281 H1261 0.950 . S
C1281 C1277 1.385 . S
C1281 C1280 1.374 . S
C1282 C1279 1.499 . S
C1282 C1283 1.373 . S
C1282 C1284 1.389 . S
C1283 H1262 0.950 . S
C1283 C1282 1.373 . S
C1283 C1299 1.377 . S
C1284 C1282 1.389 . S
C1284 C1285 1.524 . S
C1284 C1298 1.377 . S
C1285 C1284 1.524 . S
C1285 C1286 1.397 . S
C1285 C1290 1.363 . S
C1286 H1263 0.950 . S
C1286 C1285 1.397 . S
C1286 C1287 1.334 . S
C1287 H1264 0.950 . S
C1287 C1286 1.334 . S
C1287 C1288 1.287 . S
C1288 C1287 1.287 . S
C1288 C1289 1.524 . S
C1288 H1307 0.913 . S
C1289 H1265 0.950 . S
C1289 C1288 1.524 . S
C1289 C1290 1.415 . S
C1290 H1266 0.950 . S
C1290 C1285 1.363 . S
C1290 C1289 1.415 . S
C1291 H1267 0.951 . S
C1291 C1292 1.366 . S
C1291 C1293 1.388 . S
C1292 C1291 1.366 . S
C1292 C1296 1.385 . S
C1293 H1268 0.951 . S
C1293 C1291 1.388 . S
C1293 C1294 1.366 . S
C1294 C1293 1.366 . S
C1294 C1295 1.414 . S
C1294 C1297 1.499 . S
C1295 H1269 0.950 . S
C1295 C1294 1.414 . S
C1295 C1296 1.374 . S
C1296 H1270 0.950 . S
C1296 C1292 1.385 . S
C1296 C1295 1.374 . S
C1297 C1294 1.499 . S
C1297 C1298 1.373 . S
C1297 C1299 1.389 . S
C1298 H1271 0.950 . S
C1298 C1284 1.377 . S
C1298 C1297 1.373 . S
C1299 C1283 1.377 . S
C1299 C1297 1.389 . S
C1299 C1300 1.524 . S
C1300 C1299 1.524 . S
C1300 C1301 1.397 . S
C1300 C1305 1.363 . S
C1301 H1272 0.950 . S
C1301 C1300 1.397 . S
C1301 C1302 1.334 . S
C1302 H1273 0.950 . S
C1302 C1301 1.334 . S
C1302 C1303 1.287 . S
C1303 C1302 1.287 . S
C1303 C1304 1.524 . S
C1303 H1306 0.999 . S
C1304 H1274 0.950 . S
C1304 C1303 1.524 . S
C1304 C1305 1.415 . S
C1305 H1275 0.950 . S
C1305 C1300 1.363 . S
C1305 C1304 1.415 . S
H1306 C1303 0.999 . S
H1307 C1288 0.913 . S
H1308 C1326 0.951 . S
H1309 C1328 0.951 . S
H1310 C1330 0.950 . S
H1311 C1331 0.950 . S
H1312 C1333 0.950 . S
H1313 C1336 0.950 . S
H1314 C1337 0.950 . S
H1315 C1339 0.950 . S
H1316 C1340 0.950 . S
H1317 C1341 0.951 . S
H1318 C1343 0.951 . S
H1319 C1345 0.950 . S
H1320 C1346 0.950 . S
H1321 C1348 0.950 . S
H1322 C1351 0.950 . S
H1323 C1352 0.950 . S
H1324 C1354 0.950 . S
H1325 C1355 0.950 . S
C1326 H1308 0.951 . S
C1326 C1327 1.366 . S
C1326 C1328 1.388 . S
C1327 C1326 1.366 . S
C1327 C1331 1.385 . S
C1328 H1309 0.951 . S
C1328 C1326 1.388 . S
C1328 C1329 1.366 . S
C1329 C1328 1.366 . S
C1329 C1330 1.414 . S
C1329 C1332 1.499 . S
C1330 H1310 0.950 . S
C1330 C1329 1.414 . S
C1330 C1331 1.374 . S
C1331 H1311 0.950 . S
C1331 C1327 1.385 . S
C1331 C1330 1.374 . S
C1332 C1329 1.499 . S
C1332 C1333 1.373 . S
C1332 C1334 1.389 . S
C1333 H1312 0.950 . S
C1333 C1332 1.373 . S
C1333 C1349 1.377 . S
C1334 C1332 1.389 . S
C1334 C1335 1.524 . S
C1334 C1348 1.377 . S
C1335 C1334 1.524 . S
C1335 C1336 1.397 . S
C1335 C1340 1.363 . S
C1336 H1313 0.950 . S
C1336 C1335 1.397 . S
C1336 C1337 1.334 . S
C1337 H1314 0.950 . S
C1337 C1336 1.334 . S
C1337 C1338 1.287 . S
C1338 C1337 1.287 . S
C1338 C1339 1.524 . S
C1338 H1357 0.913 . S
C1339 H1315 0.950 . S
C1339 C1338 1.524 . S
C1339 C1340 1.415 . S
C1340 H1316 0.950 . S
C1340 C1335 1.363 . S
C1340 C1339 1.415 . S
C1341 H1317 0.951 . S
C1341 C1342 1.366 . S
C1341 C1343 1.388 . S
C1342 C1341 1.366 . S
C1342 C1346 1.385 . S
C1343 H1318 0.951 . S
C1343 C1341 1.388 . S
C1343 C1344 1.366 . S
C1344 C1343 1.366 . S
C1344 C1345 1.414 . S
C1344 C1347 1.499 . S
C1345 H1319 0.950 . S
C1345 C1344 1.414 . S
C1345 C1346 1.374 . S
C1346 H1320 0.950 . S
C1346 C1342 1.385 . S
C1346 C1345 1.374 . S
C1347 C1344 1.499 . S
C1347 C1348 1.373 . S
C1347 C1349 1.389 . S
C1348 H1321 0.950 . S
C1348 C1334 1.377 . S
C1348 C1347 1.373 . S
C1349 C1333 1.377 . S
C1349 C1347 1.389 . S
C1349 C1350 1.524 . S
C1350 C1349 1.524 . S
C1350 C1351 1.397 . S
C1350 C1355 1.363 . S
C1351 H1322 0.950 . S
C1351 C1350 1.397 . S
C1351 C1352 1.334 . S
C1352 H1323 0.950 . S
C1352 C1351 1.334 . S
C1352 C1353 1.287 . S
C1353 C1352 1.287 . S
C1353 C1354 1.524 . S
C1353 H1356 0.999 . S
C1354 H1324 0.950 . S
C1354 C1353 1.524 . S
C1354 C1355 1.415 . S
C1355 H1325 0.950 . S
C1355 C1350 1.363 . S
C1355 C1354 1.415 . S
H1356 C1353 0.999 . S
H1357 C1338 0.913 . S
H1358 C1376 0.951 . S
H1359 C1378 0.951 . S
H1360 C1380 0.950 . S
H1361 C1381 0.950 . S
H1362 C1383 0.950 . S
H1363 C1386 0.950 . S
H1364 C1387 0.950 . S
H1365 C1389 0.950 . S
H1366 C1390 0.950 . S
H1367 C1391 0.951 . S
H1368 C1393 0.951 . S
H1369 C1395 0.950 . S
H1370 C1396 0.950 . S
H1371 C1398 0.950 . S
H1372 C1401 0.950 . S
H1373 C1402 0.950 . S
H1374 C1404 0.950 . S
H1375 C1405 0.950 . S
C1376 H1358 0.951 . S
C1376 C1377 1.366 . S
C1376 C1378 1.388 . S
C1377 C1376 1.366 . S
C1377 C1381 1.385 . S
C1378 H1359 0.951 . S
C1378 C1376 1.388 . S
C1378 C1379 1.366 . S
C1379 C1378 1.366 . S
C1379 C1380 1.414 . S
C1379 C1382 1.499 . S
C1380 H1360 0.950 . S
C1380 C1379 1.414 . S
C1380 C1381 1.374 . S
C1381 H1361 0.950 . S
C1381 C1377 1.385 . S
C1381 C1380 1.374 . S
C1382 C1379 1.499 . S
C1382 C1383 1.373 . S
C1382 C1384 1.389 . S
C1383 H1362 0.950 . S
C1383 C1382 1.373 . S
C1383 C1399 1.377 . S
C1384 C1382 1.389 . S
C1384 C1385 1.524 . S
C1384 C1398 1.377 . S
C1385 C1384 1.524 . S
C1385 C1386 1.397 . S
C1385 C1390 1.363 . S
C1386 H1363 0.950 . S
C1386 C1385 1.397 . S
C1386 C1387 1.334 . S
C1387 H1364 0.950 . S
C1387 C1386 1.334 . S
C1387 C1388 1.287 . S
C1388 C1387 1.287 . S
C1388 C1389 1.524 . S
C1388 H1407 0.913 . S
C1389 H1365 0.950 . S
C1389 C1388 1.524 . S
C1389 C1390 1.415 . S
C1390 H1366 0.950 . S
C1390 C1385 1.363 . S
C1390 C1389 1.415 . S
C1391 H1367 0.951 . S
C1391 C1392 1.366 . S
C1391 C1393 1.388 . S
C1392 C1391 1.366 . S
C1392 C1396 1.385 . S
C1393 H1368 0.951 . S
C1393 C1391 1.388 . S
C1393 C1394 1.366 . S
C1394 C1393 1.366 . S
C1394 C1395 1.414 . S
C1394 C1397 1.499 . S
C1395 H1369 0.950 . S
C1395 C1394 1.414 . S
C1395 C1396 1.374 . S
C1396 H1370 0.950 . S
C1396 C1392 1.385 . S
C1396 C1395 1.374 . S
C1397 C1394 1.499 . S
C1397 C1398 1.373 . S
C1397 C1399 1.389 . S
C1398 H1371 0.950 . S
C1398 C1384 1.377 . S
C1398 C1397 1.373 . S
C1399 C1383 1.377 . S
C1399 C1397 1.389 . S
C1399 C1400 1.524 . S
C1400 C1399 1.524 . S
C1400 C1401 1.397 . S
C1400 C1405 1.363 . S
C1401 H1372 0.950 . S
C1401 C1400 1.397 . S
C1401 C1402 1.334 . S
C1402 H1373 0.950 . S
C1402 C1401 1.334 . S
C1402 C1403 1.287 . S
C1403 C1402 1.287 . S
C1403 C1404 1.524 . S
C1403 H1406 0.999 . S
C1404 H1374 0.950 . S
C1404 C1403 1.524 . S
C1404 C1405 1.415 . S
C1405 H1375 0.950 . S
C1405 C1400 1.363 . S
C1405 C1404 1.415 . S
H1406 C1403 0.999 . S
H1407 C1388 0.913 . S
H1408 C1426 0.951 . S
H1409 C1428 0.951 . S
H1410 C1430 0.950 . S
H1411 C1431 0.950 . S
H1412 C1433 0.950 . S
H1413 C1436 0.950 . S
H1414 C1437 0.950 . S
H1415 C1439 0.950 . S
H1416 C1440 0.950 . S
H1417 C1441 0.951 . S
H1418 C1443 0.951 . S
H1419 C1445 0.950 . S
H1420 C1446 0.950 . S
H1421 C1448 0.950 . S
H1422 C1451 0.950 . S
H1423 C1452 0.950 . S
H1424 C1454 0.950 . S
H1425 C1455 0.950 . S
C1426 H1408 0.951 . S
C1426 C1427 1.366 . S
C1426 C1428 1.388 . S
C1427 C1426 1.366 . S
C1427 C1431 1.385 . S
C1428 H1409 0.951 . S
C1428 C1426 1.388 . S
C1428 C1429 1.366 . S
C1429 C1428 1.366 . S
C1429 C1430 1.414 . S
C1429 C1432 1.499 . S
C1430 H1410 0.950 . S
C1430 C1429 1.414 . S
C1430 C1431 1.374 . S
C1431 H1411 0.950 . S
C1431 C1427 1.385 . S
C1431 C1430 1.374 . S
C1432 C1429 1.499 . S
C1432 C1433 1.373 . S
C1432 C1434 1.389 . S
C1433 H1412 0.950 . S
C1433 C1432 1.373 . S
C1433 C1449 1.377 . S
C1434 C1432 1.389 . S
C1434 C1435 1.524 . S
C1434 C1448 1.377 . S
C1435 C1434 1.524 . S
C1435 C1436 1.397 . S
C1435 C1440 1.363 . S
C1436 H1413 0.950 . S
C1436 C1435 1.397 . S
C1436 C1437 1.334 . S
C1437 H1414 0.950 . S
C1437 C1436 1.334 . S
C1437 C1438 1.287 . S
C1438 C1437 1.287 . S
C1438 C1439 1.524 . S
C1438 H1457 0.913 . S
C1439 H1415 0.950 . S
C1439 C1438 1.524 . S
C1439 C1440 1.415 . S
C1440 H1416 0.950 . S
C1440 C1435 1.363 . S
C1440 C1439 1.415 . S
C1441 H1417 0.951 . S
C1441 C1442 1.366 . S
C1441 C1443 1.388 . S
C1442 C1441 1.366 . S
C1442 C1446 1.385 . S
C1443 H1418 0.951 . S
C1443 C1441 1.388 . S
C1443 C1444 1.366 . S
C1444 C1443 1.366 . S
C1444 C1445 1.414 . S
C1444 C1447 1.499 . S
C1445 H1419 0.950 . S
C1445 C1444 1.414 . S
C1445 C1446 1.374 . S
C1446 H1420 0.950 . S
C1446 C1442 1.385 . S
C1446 C1445 1.374 . S
C1447 C1444 1.499 . S
C1447 C1448 1.373 . S
C1447 C1449 1.389 . S
C1448 H1421 0.950 . S
C1448 C1434 1.377 . S
C1448 C1447 1.373 . S
C1449 C1433 1.377 . S
C1449 C1447 1.389 . S
C1449 C1450 1.524 . S
C1450 C1449 1.524 . S
C1450 C1451 1.397 . S
C1450 C1455 1.363 . S
C1451 H1422 0.950 . S
C1451 C1450 1.397 . S
C1451 C1452 1.334 . S
C1452 H1423 0.950 . S
C1452 C1451 1.334 . S
C1452 C1453 1.287 . S
C1453 C1452 1.287 . S
C1453 C1454 1.524 . S
C1453 H1456 0.999 . S
C1454 H1424 0.950 . S
C1454 C1453 1.524 . S
C1454 C1455 1.415 . S
C1455 H1425 0.950 . S
C1455 C1450 1.363 . S
C1455 C1454 1.415 . S
H1456 C1453 0.999 . S
H1457 C1438 0.913 . S
H1458 C1476 0.951 . S
H1459 C1478 0.951 . S
H1460 C1480 0.950 . S
H1461 C1481 0.950 . S
H1462 C1483 0.950 . S
H1463 C1486 0.950 . S
H1464 C1487 0.950 . S
H1465 C1489 0.950 . S
H1466 C1490 0.950 . S
H1467 C1491 0.951 . S
H1468 C1493 0.951 . S
H1469 C1495 0.950 . S
H1470 C1496 0.950 . S
H1471 C1498 0.950 1_655 S
H1472 C1501 0.950 . S
H1473 C1502 0.950 . S
H1474 C1504 0.950 . S
H1475 C1505 0.950 . S
C1476 H1458 0.951 . S
C1476 C1477 1.366 . S
C1476 C1478 1.388 . S
C1477 C1476 1.366 . S
C1477 C1481 1.385 . S
C1478 H1459 0.951 . S
C1478 C1476 1.388 . S
C1478 C1479 1.366 . S
C1479 C1478 1.366 . S
C1479 C1480 1.414 . S
C1479 C1482 1.499 . S
C1480 H1460 0.950 . S
C1480 C1479 1.414 . S
C1480 C1481 1.374 . S
C1481 H1461 0.950 . S
C1481 C1477 1.385 . S
C1481 C1480 1.374 . S
C1482 C1479 1.499 . S
C1482 C1483 1.373 . S
C1482 C1484 1.389 . S
C1483 H1462 0.950 . S
C1483 C1482 1.373 . S
C1483 C1499 1.377 . S
C1484 C1482 1.389 . S
C1484 C1485 1.524 1_455 S
C1484 C1498 1.377 . S
C1485 C1484 1.524 1_655 S
C1485 C1486 1.397 . S
C1485 C1490 1.363 . S
C1486 H1463 0.950 . S
C1486 C1485 1.397 . S
C1486 C1487 1.334 . S
C1487 H1464 0.950 . S
C1487 C1486 1.334 . S
C1487 C1488 1.287 . S
C1488 C1487 1.287 . S
C1488 C1489 1.524 . S
C1488 H1507 0.913 . S
C1489 H1465 0.950 . S
C1489 C1488 1.524 . S
C1489 C1490 1.415 . S
C1490 H1466 0.950 . S
C1490 C1485 1.363 . S
C1490 C1489 1.415 . S
C1491 H1467 0.951 . S
C1491 C1492 1.366 . S
C1491 C1493 1.388 . S
C1492 C1491 1.366 . S
C1492 C1496 1.385 . S
C1493 H1468 0.951 . S
C1493 C1491 1.388 . S
C1493 C1494 1.366 . S
C1494 C1493 1.366 . S
C1494 C1495 1.414 . S
C1494 C1497 1.499 . S
C1495 H1469 0.950 . S
C1495 C1494 1.414 . S
C1495 C1496 1.374 . S
C1496 H1470 0.950 . S
C1496 C1492 1.385 . S
C1496 C1495 1.374 . S
C1497 C1494 1.499 . S
C1497 C1498 1.373 . S
C1497 C1499 1.389 . S
C1498 H1471 0.950 1_455 S
C1498 C1484 1.377 . S
C1498 C1497 1.373 . S
C1499 C1483 1.377 . S
C1499 C1497 1.389 . S
C1499 C1500 1.524 . S
C1500 C1499 1.524 . S
C1500 C1501 1.397 . S
C1500 C1505 1.363 . S
C1501 H1472 0.950 . S
C1501 C1500 1.397 . S
C1501 C1502 1.334 . S
C1502 H1473 0.950 . S
C1502 C1501 1.334 . S
C1502 C1503 1.287 . S
C1503 C1502 1.287 . S
C1503 C1504 1.524 . S
C1503 H1506 0.999 . S
C1504 H1474 0.950 . S
C1504 C1503 1.524 . S
C1504 C1505 1.415 . S
C1505 H1475 0.950 . S
C1505 C1500 1.363 . S
C1505 C1504 1.415 . S
H1506 C1503 0.999 . S
H1507 C1488 0.913 . S
H1508 C1526 0.951 . S
H1509 C1528 0.951 . S
H1510 C1530 0.950 . S
H1511 C1531 0.950 . S
H1512 C1533 0.950 . S
H1513 C1536 0.950 . S
H1514 C1537 0.950 . S
H1515 C1539 0.950 . S
H1516 C1540 0.950 . S
H1517 C1541 0.951 . S
H1518 C1543 0.951 . S
H1519 C1545 0.950 . S
H1520 C1546 0.950 . S
H1521 C1548 0.950 . S
H1522 C1551 0.950 . S
H1523 C1552 0.950 . S
H1524 C1554 0.950 . S
H1525 C1555 0.950 . S
C1526 H1508 0.951 . S
C1526 C1527 1.366 . S
C1526 C1528 1.388 . S
C1527 C1526 1.366 . S
C1527 C1531 1.385 . S
C1528 H1509 0.951 . S
C1528 C1526 1.388 . S
C1528 C1529 1.366 . S
C1529 C1528 1.366 . S
C1529 C1530 1.414 . S
C1529 C1532 1.499 . S
C1530 H1510 0.950 . S
C1530 C1529 1.414 . S
C1530 C1531 1.374 . S
C1531 H1511 0.950 . S
C1531 C1527 1.385 . S
C1531 C1530 1.374 . S
C1532 C1529 1.499 . S
C1532 C1533 1.373 . S
C1532 C1534 1.389 . S
C1533 H1512 0.950 . S
C1533 C1532 1.373 . S
C1533 C1549 1.377 . S
C1534 C1532 1.389 . S
C1534 C1535 1.524 . S
C1534 C1548 1.377 . S
C1535 C1534 1.524 . S
C1535 C1536 1.397 . S
C1535 C1540 1.363 . S
C1536 H1513 0.950 . S
C1536 C1535 1.397 . S
C1536 C1537 1.334 . S
C1537 H1514 0.950 . S
C1537 C1536 1.334 . S
C1537 C1538 1.287 . S
C1538 C1537 1.287 . S
C1538 C1539 1.524 . S
C1538 H1557 0.913 . S
C1539 H1515 0.950 . S
C1539 C1538 1.524 . S
C1539 C1540 1.415 . S
C1540 H1516 0.950 . S
C1540 C1535 1.363 . S
C1540 C1539 1.415 . S
C1541 H1517 0.951 . S
C1541 C1542 1.366 . S
C1541 C1543 1.388 . S
C1542 C1541 1.366 . S
C1542 C1546 1.385 . S
C1543 H1518 0.951 . S
C1543 C1541 1.388 . S
C1543 C1544 1.366 . S
C1544 C1543 1.366 . S
C1544 C1545 1.414 . S
C1544 C1547 1.499 . S
C1545 H1519 0.950 . S
C1545 C1544 1.414 . S
C1545 C1546 1.374 . S
C1546 H1520 0.950 . S
C1546 C1542 1.385 . S
C1546 C1545 1.374 . S
C1547 C1544 1.499 . S
C1547 C1548 1.373 . S
C1547 C1549 1.389 . S
C1548 H1521 0.950 . S
C1548 C1534 1.377 . S
C1548 C1547 1.373 . S
C1549 C1533 1.377 . S
C1549 C1547 1.389 . S
C1549 C1550 1.524 . S
C1550 C1549 1.524 . S
C1550 C1551 1.397 . S
C1550 C1555 1.363 . S
C1551 H1522 0.950 . S
C1551 C1550 1.397 . S
C1551 C1552 1.334 . S
C1552 H1523 0.950 . S
C1552 C1551 1.334 . S
C1552 C1553 1.287 . S
C1553 C1552 1.287 . S
C1553 C1554 1.524 . S
C1553 H1556 0.999 . S
C1554 H1524 0.950 . S
C1554 C1553 1.524 . S
C1554 C1555 1.415 . S
C1555 H1525 0.950 . S
C1555 C1550 1.363 . S
C1555 C1554 1.415 . S
H1556 C1553 0.999 . S
H1557 C1538 0.913 . S
H1558 C1576 0.951 . S
H1559 C1578 0.951 . S
H1560 C1580 0.950 1_455 S
H1561 C1581 0.950 1_455 S
H1562 C1583 0.936 1_455 S
H1563 C1586 0.950 . S
H1564 C1587 0.950 . S
H1565 C1589 0.950 . S
H1566 C1590 0.950 . S
H1567 C1591 0.951 . S
H1568 C1593 0.951 . S
H1569 C1595 0.950 . S
H1570 C1596 0.950 . S
H1571 C1598 0.950 . S
H1572 C1601 0.950 1_655 S
H1573 C1602 0.950 . S
H1574 C1604 0.950 . S
H1575 C1605 0.950 . S
C1576 H1558 0.951 . S
C1576 C1577 1.366 . S
C1576 C1578 1.388 . S
C1577 C1576 1.366 . S
C1577 C1581 1.385 . S
C1578 H1559 0.951 . S
C1578 C1576 1.388 . S
C1578 C1579 1.366 . S
C1579 C1578 1.366 . S
C1579 C1580 1.414 . S
C1579 C1582 1.499 . S
C1580 H1560 0.950 1_655 S
C1580 C1579 1.414 . S
C1580 C1581 1.374 . S
C1581 H1561 0.950 1_655 S
C1581 C1577 1.385 . S
C1581 C1580 1.374 . S
C1582 C1579 1.499 . S
C1582 C1583 1.388 . S
C1582 C1584 1.389 . S
C1583 H1562 0.936 1_655 S
C1583 C1582 1.388 . S
C1583 C1599 1.378 1_655 S
C1584 C1582 1.389 . S
C1584 C1585 1.524 . S
C1584 C1598 1.377 . S
C1585 C1584 1.524 . S
C1585 C1586 1.397 . S
C1585 C1590 1.363 . S
C1586 H1563 0.950 . S
C1586 C1585 1.397 . S
C1586 C1587 1.334 . S
C1587 H1564 0.950 . S
C1587 C1586 1.334 . S
C1587 C1588 1.287 . S
C1588 C1587 1.287 . S
C1588 C1589 1.524 . S
C1588 H1607 0.913 . S
C1589 H1565 0.950 . S
C1589 C1588 1.524 . S
C1589 C1590 1.415 . S
C1590 H1566 0.950 . S
C1590 C1585 1.363 . S
C1590 C1589 1.415 . S
C1591 H1567 0.951 . S
C1591 C1592 1.366 1_455 S
C1591 C1593 1.388 . S
C1592 C1591 1.366 1_655 S
C1592 C1596 1.385 . S
C1593 H1568 0.951 . S
C1593 C1591 1.388 . S
C1593 C1594 1.366 1_455 S
C1594 C1593 1.366 1_655 S
C1594 C1595 1.414 . S
C1594 C1597 1.499 . S
C1595 H1569 0.950 . S
C1595 C1594 1.414 . S
C1595 C1596 1.374 . S
C1596 H1570 0.950 . S
C1596 C1592 1.385 . S
C1596 C1595 1.374 . S
C1597 C1594 1.499 . S
C1597 C1598 1.373 . S
C1597 C1599 1.346 1_655 S
C1598 H1571 0.950 . S
C1598 C1584 1.377 . S
C1598 C1597 1.373 . S
C1599 C1583 1.378 1_455 S
C1599 C1597 1.346 1_455 S
C1599 C1600 1.570 . S
C1600 C1599 1.570 . S
C1600 C1601 1.397 . S
C1600 C1605 1.363 . S
C1601 H1572 0.950 1_455 S
C1601 C1600 1.397 . S
C1601 C1602 1.334 . S
C1602 H1573 0.950 . S
C1602 C1601 1.334 . S
C1602 C1603 1.287 . S
C1603 C1602 1.287 . S
C1603 C1604 1.524 . S
C1603 H1606 0.999 . S
C1604 H1574 0.950 . S
C1604 C1603 1.524 . S
C1604 C1605 1.415 . S
C1605 H1575 0.950 . S
C1605 C1600 1.363 . S
C1605 C1604 1.415 . S
H1606 C1603 0.999 . S
H1607 C1588 0.913 . S
H1608 C1626 0.951 . S
H1609 C1628 0.951 . S
H1610 C1630 0.950 . S
H1611 C1631 0.950 . S
H1612 C1633 0.950 . S
H1613 C1636 0.950 . S
H1614 C1637 0.950 . S
H1615 C1639 0.950 . S
H1616 C1640 0.950 . S
H1617 C1641 0.951 . S
H1618 C1643 0.951 . S
H1619 C1645 0.950 . S
H1620 C1646 0.950 . S
H1621 C1648 0.950 . S
H1622 C1651 0.950 . S
H1623 C1652 0.950 . S
H1624 C1654 0.950 . S
H1625 C1655 0.950 . S
C1626 H1608 0.951 . S
C1626 C1627 1.366 . S
C1626 C1628 1.388 . S
C1627 C1626 1.366 . S
C1627 C1631 1.385 . S
C1628 H1609 0.951 . S
C1628 C1626 1.388 . S
C1628 C1629 1.366 . S
C1629 C1628 1.366 . S
C1629 C1630 1.414 . S
C1629 C1632 1.499 . S
C1630 H1610 0.950 . S
C1630 C1629 1.414 . S
C1630 C1631 1.374 . S
C1631 H1611 0.950 . S
C1631 C1627 1.385 . S
C1631 C1630 1.374 . S
C1632 C1629 1.499 . S
C1632 C1633 1.373 . S
C1632 C1634 1.389 . S
C1633 H1612 0.950 . S
C1633 C1632 1.373 . S
C1633 C1649 1.377 . S
C1634 C1632 1.389 . S
C1634 C1635 1.524 . S
C1634 C1648 1.377 . S
C1635 C1634 1.524 . S
C1635 C1636 1.397 . S
C1635 C1640 1.363 . S
C1636 H1613 0.950 . S
C1636 C1635 1.397 . S
C1636 C1637 1.334 . S
C1637 H1614 0.950 . S
C1637 C1636 1.334 . S
C1637 C1638 1.287 . S
C1638 C1637 1.287 . S
C1638 C1639 1.524 . S
C1638 H1657 0.913 . S
C1639 H1615 0.950 . S
C1639 C1638 1.524 . S
C1639 C1640 1.415 . S
C1640 H1616 0.950 . S
C1640 C1635 1.363 . S
C1640 C1639 1.415 . S
C1641 H1617 0.951 . S
C1641 C1642 1.366 . S
C1641 C1643 1.388 . S
C1642 C1641 1.366 . S
C1642 C1646 1.385 . S
C1643 H1618 0.951 . S
C1643 C1641 1.388 . S
C1643 C1644 1.366 . S
C1644 C1643 1.366 . S
C1644 C1645 1.414 . S
C1644 C1647 1.499 . S
C1645 H1619 0.950 . S
C1645 C1644 1.414 . S
C1645 C1646 1.374 . S
C1646 H1620 0.950 . S
C1646 C1642 1.385 . S
C1646 C1645 1.374 . S
C1647 C1644 1.499 . S
C1647 C1648 1.373 . S
C1647 C1649 1.389 . S
C1648 H1621 0.950 . S
C1648 C1634 1.377 . S
C1648 C1647 1.373 . S
C1649 C1633 1.377 . S
C1649 C1647 1.389 . S
C1649 C1650 1.524 . S
C1650 C1649 1.524 . S
C1650 C1651 1.397 . S
C1650 C1655 1.363 . S
C1651 H1622 0.950 . S
C1651 C1650 1.397 . S
C1651 C1652 1.334 . S
C1652 H1623 0.950 . S
C1652 C1651 1.334 . S
C1652 C1653 1.287 . S
C1653 C1652 1.287 . S
C1653 C1654 1.524 . S
C1653 H1656 0.999 . S
C1654 H1624 0.950 . S
C1654 C1653 1.524 . S
C1654 C1655 1.415 . S
C1655 H1625 0.950 . S
C1655 C1650 1.363 . S
C1655 C1654 1.415 . S
H1656 C1653 0.999 . S
H1657 C1638 0.913 . S
H1658 C1676 0.951 . S
H1659 C1678 0.951 . S
H1660 C1680 0.950 . S
H1661 C1681 0.950 . S
H1662 C1683 0.950 . S
H1663 C1686 0.950 . S
H1664 C1687 0.950 . S
H1665 C1689 0.950 . S
H1666 C1690 0.950 . S
H1667 C1691 0.951 . S
H1668 C1693 0.951 . S
H1669 C1695 0.950 . S
H1670 C1696 0.950 . S
H1671 C1698 0.950 . S
H1672 C1701 0.950 . S
H1673 C1702 0.950 . S
H1674 C1704 0.950 . S
H1675 C1705 0.950 . S
C1676 H1658 0.951 . S
C1676 C1677 1.366 . S
C1676 C1678 1.388 . S
C1677 C1676 1.366 . S
C1677 C1681 1.385 . S
C1678 H1659 0.951 . S
C1678 C1676 1.388 . S
C1678 C1679 1.366 . S
C1679 C1678 1.366 . S
C1679 C1680 1.414 . S
C1679 C1682 1.499 . S
C1680 H1660 0.950 . S
C1680 C1679 1.414 . S
C1680 C1681 1.374 . S
C1681 H1661 0.950 . S
C1681 C1677 1.385 . S
C1681 C1680 1.374 . S
C1682 C1679 1.499 . S
C1682 C1683 1.373 . S
C1682 C1684 1.389 . S
C1683 H1662 0.950 . S
C1683 C1682 1.373 . S
C1683 C1699 1.377 . S
C1684 C1682 1.389 . S
C1684 C1685 1.524 . S
C1684 C1698 1.377 . S
C1685 C1684 1.524 . S
C1685 C1686 1.397 . S
C1685 C1690 1.363 . S
C1686 H1663 0.950 . S
C1686 C1685 1.397 . S
C1686 C1687 1.334 . S
C1687 H1664 0.950 . S
C1687 C1686 1.334 . S
C1687 C1688 1.287 . S
C1688 C1687 1.287 . S
C1688 C1689 1.524 . S
C1688 H1707 0.913 . S
C1689 H1665 0.950 . S
C1689 C1688 1.524 . S
C1689 C1690 1.415 . S
C1690 H1666 0.950 . S
C1690 C1685 1.363 . S
C1690 C1689 1.415 . S
C1691 H1667 0.951 . S
C1691 C1692 1.366 . S
C1691 C1693 1.388 . S
C1692 C1691 1.366 . S
C1692 C1696 1.385 . S
C1693 H1668 0.951 . S
C1693 C1691 1.388 . S
C1693 C1694 1.366 . S
C1694 C1693 1.366 . S
C1694 C1695 1.414 . S
C1694 C1697 1.499 . S
C1695 H1669 0.950 . S
C1695 C1694 1.414 . S
C1695 C1696 1.374 . S
C1696 H1670 0.950 . S
C1696 C1692 1.385 . S
C1696 C1695 1.374 . S
C1697 C1694 1.499 . S
C1697 C1698 1.373 . S
C1697 C1699 1.389 . S
C1698 H1671 0.950 . S
C1698 C1684 1.377 . S
C1698 C1697 1.373 . S
C1699 C1683 1.377 . S
C1699 C1697 1.389 . S
C1699 C1700 1.524 . S
C1700 C1699 1.524 . S
C1700 C1701 1.397 . S
C1700 C1705 1.363 . S
C1701 H1672 0.950 . S
C1701 C1700 1.397 . S
C1701 C1702 1.334 . S
C1702 H1673 0.950 . S
C1702 C1701 1.334 . S
C1702 C1703 1.287 . S
C1703 C1702 1.287 . S
C1703 C1704 1.524 . S
C1703 H1706 0.999 . S
C1704 H1674 0.950 . S
C1704 C1703 1.524 . S
C1704 C1705 1.415 . S
C1705 H1675 0.950 . S
C1705 C1700 1.363 . S
C1705 C1704 1.415 . S
H1706 C1703 0.999 . S
H1707 C1688 0.913 . S
H1708 C1726 0.951 . S
H1709 C1728 0.951 . S
H1710 C1730 0.950 . S
H1711 C1731 0.950 . S
H1712 C1733 0.950 . S
H1713 C1736 0.950 . S
H1714 C1737 0.950 . S
H1715 C1739 0.950 . S
H1716 C1740 0.950 . S
H1717 C1741 0.954 . S
H1718 C1743 0.954 . S
H1719 C1745 0.950 . S
H1720 C1746 0.950 . S
H1721 C1748 0.950 . S
H1722 C1751 0.950 . S
H1723 C1752 0.950 . S
H1724 C1754 0.950 . S
H1725 C1755 0.950 . S
C1726 H1708 0.951 . S
C1726 C1727 1.366 . S
C1726 C1728 1.388 . S
C1727 C1726 1.366 . S
C1727 C1731 1.385 . S
C1728 H1709 0.951 . S
C1728 C1726 1.388 . S
C1728 C1729 1.366 . S
C1729 C1728 1.366 . S
C1729 C1730 1.414 . S
C1729 C1732 1.499 . S
C1730 H1710 0.950 . S
C1730 C1729 1.414 . S
C1730 C1731 1.374 . S
C1731 H1711 0.950 . S
C1731 C1727 1.385 . S
C1731 C1730 1.374 . S
C1732 C1729 1.499 . S
C1732 C1733 1.373 1_556 S
C1732 C1734 1.389 . S
C1733 H1712 0.950 . S
C1733 C1732 1.373 1_554 S
C1733 C1749 1.377 . S
C1734 C1732 1.389 . S
C1734 C1735 1.524 . S
C1734 C1748 1.377 . S
C1735 C1734 1.524 . S
C1735 C1736 1.397 . S
C1735 C1740 1.363 . S
C1736 H1713 0.950 . S
C1736 C1735 1.397 . S
C1736 C1737 1.334 . S
C1737 H1714 0.950 . S
C1737 C1736 1.334 . S
C1737 C1738 1.287 . S
C1738 C1737 1.287 . S
C1738 C1739 1.524 . S
C1738 H1757 0.913 . S
C1739 H1715 0.950 . S
C1739 C1738 1.524 . S
C1739 C1740 1.415 . S
C1740 H1716 0.950 . S
C1740 C1735 1.363 . S
C1740 C1739 1.415 . S
C1741 H1717 0.954 . S
C1741 C1742 1.366 1_554 S
C1741 C1743 1.385 1_554 S
C1742 C1741 1.366 1_556 S
C1742 C1746 1.385 . S
C1743 H1718 0.954 . S
C1743 C1741 1.385 1_556 S
C1743 C1744 1.366 . S
C1744 C1743 1.366 . S
C1744 C1745 1.414 . S
C1744 C1747 1.499 . S
C1745 H1719 0.950 . S
C1745 C1744 1.414 . S
C1745 C1746 1.374 . S
C1746 H1720 0.950 . S
C1746 C1742 1.385 . S
C1746 C1745 1.374 . S
C1747 C1744 1.499 . S
C1747 C1748 1.373 . S
C1747 C1749 1.389 1_556 S
C1748 H1721 0.950 . S
C1748 C1734 1.377 . S
C1748 C1747 1.373 . S
C1749 C1733 1.377 . S
C1749 C1747 1.389 1_554 S
C1749 C1750 1.524 . S
C1750 C1749 1.524 . S
C1750 C1751 1.397 . S
C1750 C1755 1.363 . S
C1751 H1722 0.950 . S
C1751 C1750 1.397 . S
C1751 C1752 1.334 . S
C1752 H1723 0.950 . S
C1752 C1751 1.334 . S
C1752 C1753 1.287 . S
C1753 C1752 1.287 . S
C1753 C1754 1.524 . S
C1753 H1756 0.999 . S
C1754 H1724 0.950 . S
C1754 C1753 1.524 . S
C1754 C1755 1.415 . S
C1755 H1725 0.950 . S
C1755 C1750 1.363 . S
C1755 C1754 1.415 . S
H1756 C1753 0.999 . S
H1757 C1738 0.913 . S
H1758 C1776 0.951 . S
H1759 C1778 0.951 . S
H1760 C1780 0.950 . S
H1761 C1781 0.950 . S
H1762 C1783 0.950 . S
H1763 C1786 0.950 . S
H1764 C1787 0.950 . S
H1765 C1789 0.950 . S
H1766 C1790 0.950 . S
H1767 C1791 0.951 . S
H1768 C1793 0.951 . S
H1769 C1795 0.950 . S
H1770 C1796 0.950 . S
H1771 C1798 0.950 . S
H1772 C1801 0.950 . S
H1773 C1802 0.950 . S
H1774 C1804 0.950 . S
H1775 C1805 0.950 . S
C1776 H1758 0.951 . S
C1776 C1777 1.366 . S
C1776 C1778 1.388 . S
C1777 C1776 1.366 . S
C1777 C1781 1.385 . S
C1778 H1759 0.951 . S
C1778 C1776 1.388 . S
C1778 C1779 1.366 . S
C1779 C1778 1.366 . S
C1779 C1780 1.414 . S
C1779 C1782 1.499 . S
C1780 H1760 0.950 . S
C1780 C1779 1.414 . S
C1780 C1781 1.374 . S
C1781 H1761 0.950 . S
C1781 C1777 1.385 . S
C1781 C1780 1.374 . S
C1782 C1779 1.499 . S
C1782 C1783 1.373 . S
C1782 C1784 1.389 . S
C1783 H1762 0.950 . S
C1783 C1782 1.373 . S
C1783 C1799 1.377 . S
C1784 C1782 1.389 . S
C1784 C1785 1.524 . S
C1784 C1798 1.377 . S
C1785 C1784 1.524 . S
C1785 C1786 1.397 . S
C1785 C1790 1.363 . S
C1786 H1763 0.950 . S
C1786 C1785 1.397 . S
C1786 C1787 1.334 . S
C1787 H1764 0.950 . S
C1787 C1786 1.334 . S
C1787 C1788 1.287 . S
C1788 C1787 1.287 . S
C1788 C1789 1.524 . S
C1788 H1807 0.913 . S
C1789 H1765 0.950 . S
C1789 C1788 1.524 . S
C1789 C1790 1.415 . S
C1790 H1766 0.950 . S
C1790 C1785 1.363 . S
C1790 C1789 1.415 . S
C1791 H1767 0.951 . S
C1791 C1792 1.366 . S
C1791 C1793 1.388 . S
C1792 C1791 1.366 . S
C1792 C1796 1.385 . S
C1793 H1768 0.951 . S
C1793 C1791 1.388 . S
C1793 C1794 1.366 . S
C1794 C1793 1.366 . S
C1794 C1795 1.414 . S
C1794 C1797 1.499 . S
C1795 H1769 0.950 . S
C1795 C1794 1.414 . S
C1795 C1796 1.374 . S
C1796 H1770 0.950 . S
C1796 C1792 1.385 . S
C1796 C1795 1.374 . S
C1797 C1794 1.499 . S
C1797 C1798 1.373 . S
C1797 C1799 1.389 . S
C1798 H1771 0.950 . S
C1798 C1784 1.377 . S
C1798 C1797 1.373 . S
C1799 C1783 1.377 . S
C1799 C1797 1.389 . S
C1799 C1800 1.524 . S
C1800 C1799 1.524 . S
C1800 C1801 1.397 . S
C1800 C1805 1.363 . S
C1801 H1772 0.950 . S
C1801 C1800 1.397 . S
C1801 C1802 1.334 . S
C1802 H1773 0.950 . S
C1802 C1801 1.334 . S
C1802 C1803 1.287 . S
C1803 C1802 1.287 . S
C1803 C1804 1.524 . S
C1803 H1806 0.999 . S
C1804 H1774 0.950 . S
C1804 C1803 1.524 . S
C1804 C1805 1.415 . S
C1805 H1775 0.950 . S
C1805 C1800 1.363 . S
C1805 C1804 1.415 . S
H1806 C1803 0.999 . S
H1807 C1788 0.913 . S
H1808 C1826 0.951 . S
H1809 C1828 0.951 . S
H1810 C1830 0.950 . S
H1811 C1831 0.950 . S
H1812 C1833 0.950 . S
H1813 C1836 0.950 . S
H1814 C1837 0.950 . S
H1815 C1839 0.950 . S
H1816 C1840 0.950 . S
H1817 C1841 0.951 . S
H1818 C1843 0.951 . S
H1819 C1845 0.950 . S
H1820 C1846 0.950 . S
H1821 C1848 0.950 . S
H1822 C1851 0.950 . S
H1823 C1852 0.950 . S
H1824 C1854 0.950 . S
H1825 C1855 0.950 . S
C1826 H1808 0.951 . S
C1826 C1827 1.366 . S
C1826 C1828 1.388 . S
C1827 C1826 1.366 . S
C1827 C1831 1.385 . S
C1828 H1809 0.951 . S
C1828 C1826 1.388 . S
C1828 C1829 1.366 . S
C1829 C1828 1.366 . S
C1829 C1830 1.414 . S
C1829 C1832 1.499 . S
C1830 H1810 0.950 . S
C1830 C1829 1.414 . S
C1830 C1831 1.374 . S
C1831 H1811 0.950 . S
C1831 C1827 1.385 . S
C1831 C1830 1.374 . S
C1832 C1829 1.499 . S
C1832 C1833 1.373 . S
C1832 C1834 1.389 . S
C1833 H1812 0.950 . S
C1833 C1832 1.373 . S
C1833 C1849 1.377 . S
C1834 C1832 1.389 . S
C1834 C1835 1.524 . S
C1834 C1848 1.377 . S
C1835 C1834 1.524 . S
C1835 C1836 1.397 . S
C1835 C1840 1.363 . S
C1836 H1813 0.950 . S
C1836 C1835 1.397 . S
C1836 C1837 1.334 . S
C1837 H1814 0.950 . S
C1837 C1836 1.334 . S
C1837 C1838 1.287 . S
C1838 C1837 1.287 . S
C1838 C1839 1.524 . S
C1838 H1857 0.913 . S
C1839 H1815 0.950 . S
C1839 C1838 1.524 . S
C1839 C1840 1.415 . S
C1840 H1816 0.950 . S
C1840 C1835 1.363 . S
C1840 C1839 1.415 . S
C1841 H1817 0.951 . S
C1841 C1842 1.366 . S
C1841 C1843 1.388 . S
C1842 C1841 1.366 . S
C1842 C1846 1.385 . S
C1843 H1818 0.951 . S
C1843 C1841 1.388 . S
C1843 C1844 1.366 . S
C1844 C1843 1.366 . S
C1844 C1845 1.414 . S
C1844 C1847 1.499 . S
C1845 H1819 0.950 . S
C1845 C1844 1.414 . S
C1845 C1846 1.374 . S
C1846 H1820 0.950 . S
C1846 C1842 1.385 . S
C1846 C1845 1.374 . S
C1847 C1844 1.499 . S
C1847 C1848 1.373 . S
C1847 C1849 1.389 . S
C1848 H1821 0.950 . S
C1848 C1834 1.377 . S
C1848 C1847 1.373 . S
C1849 C1833 1.377 . S
C1849 C1847 1.389 . S
C1849 C1850 1.524 . S
C1850 C1849 1.524 . S
C1850 C1851 1.397 . S
C1850 C1855 1.363 . S
C1851 H1822 0.950 . S
C1851 C1850 1.397 . S
C1851 C1852 1.334 . S
C1852 H1823 0.950 . S
C1852 C1851 1.334 . S
C1852 C1853 1.287 . S
C1853 C1852 1.287 . S
C1853 C1854 1.524 . S
C1853 H1856 0.999 . S
C1854 H1824 0.950 . S
C1854 C1853 1.524 . S
C1854 C1855 1.415 . S
C1855 H1825 0.950 . S
C1855 C1850 1.363 . S
C1855 C1854 1.415 . S
H1856 C1853 0.999 . S
H1857 C1838 0.913 . S
H1858 C1876 0.951 . S
H1859 C1878 0.951 . S
H1860 C1880 0.950 . S
H1861 C1881 0.950 . S
H1862 C1883 0.950 . S
H1863 C1886 0.950 . S
H1864 C1887 0.950 . S
H1865 C1889 0.950 . S
H1866 C1890 0.950 . S
H1867 C1891 0.951 . S
H1868 C1893 0.951 . S
H1869 C1895 0.950 . S
H1870 C1896 0.950 . S
H1871 C1898 0.950 . S
H1872 C1901 0.950 . S
H1873 C1902 0.950 . S
H1874 C1904 0.950 . S
H1875 C1905 0.950 . S
C1876 H1858 0.951 . S
C1876 C1877 1.366 . S
C1876 C1878 1.388 . S
C1877 C1876 1.366 . S
C1877 C1881 1.385 . S
C1878 H1859 0.951 . S
C1878 C1876 1.388 . S
C1878 C1879 1.366 . S
C1879 C1878 1.366 . S
C1879 C1880 1.414 . S
C1879 C1882 1.499 . S
C1880 H1860 0.950 . S
C1880 C1879 1.414 . S
C1880 C1881 1.374 . S
C1881 H1861 0.950 . S
C1881 C1877 1.385 . S
C1881 C1880 1.374 . S
C1882 C1879 1.499 . S
C1882 C1883 1.373 . S
C1882 C1884 1.389 . S
C1883 H1862 0.950 . S
C1883 C1882 1.373 . S
C1883 C1899 1.377 . S
C1884 C1882 1.389 . S
C1884 C1885 1.524 . S
C1884 C1898 1.377 . S
C1885 C1884 1.524 . S
C1885 C1886 1.397 . S
C1885 C1890 1.363 . S
C1886 H1863 0.950 . S
C1886 C1885 1.397 . S
C1886 C1887 1.334 . S
C1887 H1864 0.950 . S
C1887 C1886 1.334 . S
C1887 C1888 1.287 . S
C1888 C1887 1.287 . S
C1888 C1889 1.524 . S
C1888 H1907 0.913 . S
C1889 H1865 0.950 . S
C1889 C1888 1.524 . S
C1889 C1890 1.415 . S
C1890 H1866 0.950 . S
C1890 C1885 1.363 . S
C1890 C1889 1.415 . S
C1891 H1867 0.951 . S
C1891 C1892 1.366 . S
C1891 C1893 1.388 . S
C1892 C1891 1.366 . S
C1892 C1896 1.385 . S
C1893 H1868 0.951 . S
C1893 C1891 1.388 . S
C1893 C1894 1.366 . S
C1894 C1893 1.366 . S
C1894 C1895 1.414 . S
C1894 C1897 1.499 . S
C1895 H1869 0.950 . S
C1895 C1894 1.414 . S
C1895 C1896 1.374 . S
C1896 H1870 0.950 . S
C1896 C1892 1.385 . S
C1896 C1895 1.374 . S
C1897 C1894 1.499 . S
C1897 C1898 1.373 . S
C1897 C1899 1.389 . S
C1898 H1871 0.950 . S
C1898 C1884 1.377 . S
C1898 C1897 1.373 . S
C1899 C1883 1.377 . S
C1899 C1897 1.389 . S
C1899 C1900 1.524 . S
C1900 C1899 1.524 . S
C1900 C1901 1.397 . S
C1900 C1905 1.363 . S
C1901 H1872 0.950 . S
C1901 C1900 1.397 . S
C1901 C1902 1.334 . S
C1902 H1873 0.950 . S
C1902 C1901 1.334 . S
C1902 C1903 1.287 . S
C1903 C1902 1.287 . S
C1903 C1904 1.524 . S
C1903 H1906 0.999 . S
C1904 H1874 0.950 . S
C1904 C1903 1.524 . S
C1904 C1905 1.415 . S
C1905 H1875 0.950 . S
C1905 C1900 1.363 . S
C1905 C1904 1.415 . S
H1906 C1903 0.999 . S
H1907 C1888 0.913 . S
H1908 C1926 0.951 . S
H1909 C1928 0.951 . S
H1910 C1930 0.950 . S
H1911 C1931 0.950 . S
H1912 C1933 0.950 . S
H1913 C1936 0.950 . S
H1914 C1937 0.950 . S
H1915 C1939 0.950 . S
H1916 C1940 0.950 . S
H1917 C1941 0.951 . S
H1918 C1943 0.951 . S
H1919 C1945 0.950 . S
H1920 C1946 0.950 . S
H1921 C1948 0.950 . S
H1922 C1951 0.950 . S
H1923 C1952 0.950 . S
H1924 C1954 0.950 . S
H1925 C1955 0.950 . S
C1926 H1908 0.951 . S
C1926 C1927 1.366 . S
C1926 C1928 1.388 . S
C1927 C1926 1.366 . S
C1927 C1931 1.385 . S
C1928 H1909 0.951 . S
C1928 C1926 1.388 . S
C1928 C1929 1.366 . S
C1929 C1928 1.366 . S
C1929 C1930 1.414 . S
C1929 C1932 1.499 . S
C1930 H1910 0.950 . S
C1930 C1929 1.414 . S
C1930 C1931 1.374 . S
C1931 H1911 0.950 . S
C1931 C1927 1.385 . S
C1931 C1930 1.374 . S
C1932 C1929 1.499 . S
C1932 C1933 1.373 . S
C1932 C1934 1.389 . S
C1933 H1912 0.950 . S
C1933 C1932 1.373 . S
C1933 C1949 1.377 . S
C1934 C1932 1.389 . S
C1934 C1935 1.524 . S
C1934 C1948 1.377 . S
C1935 C1934 1.524 . S
C1935 C1936 1.397 . S
C1935 C1940 1.363 . S
C1936 H1913 0.950 . S
C1936 C1935 1.397 . S
C1936 C1937 1.334 . S
C1937 H1914 0.950 . S
C1937 C1936 1.334 . S
C1937 C1938 1.287 . S
C1938 C1937 1.287 . S
C1938 C1939 1.524 . S
C1938 H1957 0.913 . S
C1939 H1915 0.950 . S
C1939 C1938 1.524 . S
C1939 C1940 1.415 . S
C1940 H1916 0.950 . S
C1940 C1935 1.363 . S
C1940 C1939 1.415 . S
C1941 H1917 0.951 . S
C1941 C1942 1.366 . S
C1941 C1943 1.388 . S
C1942 C1941 1.366 . S
C1942 C1946 1.385 . S
C1943 H1918 0.951 . S
C1943 C1941 1.388 . S
C1943 C1944 1.366 . S
C1944 C1943 1.366 . S
C1944 C1945 1.414 . S
C1944 C1947 1.499 . S
C1945 H1919 0.950 . S
C1945 C1944 1.414 . S
C1945 C1946 1.374 . S
C1946 H1920 0.950 . S
C1946 C1942 1.385 . S
C1946 C1945 1.374 . S
C1947 C1944 1.499 . S
C1947 C1948 1.373 . S
C1947 C1949 1.389 . S
C1948 H1921 0.950 . S
C1948 C1934 1.377 . S
C1948 C1947 1.373 . S
C1949 C1933 1.377 . S
C1949 C1947 1.389 . S
C1949 C1950 1.524 . S
C1950 C1949 1.524 . S
C1950 C1951 1.397 . S
C1950 C1955 1.363 . S
C1951 H1922 0.950 . S
C1951 C1950 1.397 . S
C1951 C1952 1.334 . S
C1952 H1923 0.950 . S
C1952 C1951 1.334 . S
C1952 C1953 1.287 . S
C1953 C1952 1.287 . S
C1953 C1954 1.524 . S
C1953 H1956 0.999 . S
C1954 H1924 0.950 . S
C1954 C1953 1.524 . S
C1954 C1955 1.415 . S
C1955 H1925 0.950 . S
C1955 C1950 1.363 . S
C1955 C1954 1.415 . S
H1956 C1953 0.999 . S
H1957 C1938 0.913 . S
H1958 C1976 0.951 . S
H1959 C1978 0.951 . S
H1960 C1980 0.950 . S
H1961 C1981 0.950 . S
H1962 C1983 0.950 . S
H1963 C1986 0.950 . S
H1964 C1987 0.950 . S
H1965 C1989 0.950 . S
H1966 C1990 0.950 . S
H1967 C1991 0.951 . S
H1968 C1993 0.951 . S
H1969 C1995 0.950 . S
H1970 C1996 0.950 . S
H1971 C1998 0.950 . S
H1972 C2001 0.950 . S
H1973 C2002 0.950 . S
H1974 C2004 0.950 . S
H1975 C2005 0.950 . S
C1976 H1958 0.951 . S
C1976 C1977 1.366 . S
C1976 C1978 1.388 . S
C1977 C1976 1.366 . S
C1977 C1981 1.385 . S
C1978 H1959 0.951 . S
C1978 C1976 1.388 . S
C1978 C1979 1.366 . S
C1979 C1978 1.366 . S
C1979 C1980 1.414 . S
C1979 C1982 1.499 . S
C1980 H1960 0.950 . S
C1980 C1979 1.414 . S
C1980 C1981 1.374 . S
C1981 H1961 0.950 . S
C1981 C1977 1.385 . S
C1981 C1980 1.374 . S
C1982 C1979 1.499 . S
C1982 C1983 1.373 . S
C1982 C1984 1.389 . S
C1983 H1962 0.950 . S
C1983 C1982 1.373 . S
C1983 C1999 1.377 . S
C1984 C1982 1.389 . S
C1984 C1985 1.524 . S
C1984 C1998 1.377 . S
C1985 C1984 1.524 . S
C1985 C1986 1.397 . S
C1985 C1990 1.363 . S
C1986 H1963 0.950 . S
C1986 C1985 1.397 . S
C1986 C1987 1.334 . S
C1987 H1964 0.950 . S
C1987 C1986 1.334 . S
C1987 C1988 1.287 . S
C1988 C1987 1.287 . S
C1988 C1989 1.524 . S
C1988 H2007 0.913 . S
C1989 H1965 0.950 . S
C1989 C1988 1.524 . S
C1989 C1990 1.415 . S
C1990 H1966 0.950 . S
C1990 C1985 1.363 . S
C1990 C1989 1.415 . S
C1991 H1967 0.951 . S
C1991 C1992 1.366 . S
C1991 C1993 1.388 . S
C1992 C1991 1.366 . S
C1992 C1996 1.385 . S
C1993 H1968 0.951 . S
C1993 C1991 1.388 . S
C1993 C1994 1.366 . S
C1994 C1993 1.366 . S
C1994 C1995 1.414 . S
C1994 C1997 1.499 . S
C1995 H1969 0.950 . S
C1995 C1994 1.414 . S
C1995 C1996 1.374 . S
C1996 H1970 0.950 . S
C1996 C1992 1.385 . S
C1996 C1995 1.374 . S
C1997 C1994 1.499 . S
C1997 C1998 1.373 . S
C1997 C1999 1.389 . S
C1998 H1971 0.950 . S
C1998 C1984 1.377 . S
C1998 C1997 1.373 . S
C1999 C1983 1.377 . S
C1999 C1997 1.389 . S
C1999 C2000 1.524 . S
C2000 C1999 1.524 . S
C2000 C2001 1.397 . S
C2000 C2005 1.363 . S
C2001 H1972 0.950 . S
C2001 C2000 1.397 . S
C2001 C2002 1.334 . S
C2002 H1973 0.950 . S
C2002 C2001 1.334 . S
C2002 C2003 1.287 . S
C2003 C2002 1.287 . S
C2003 C2004 1.524 . S
C2003 H2006 0.999 . S
C2004 H1974 0.950 . S
C2004 C2003 1.524 . S
C2004 C2005 1.415 . S
C2005 H1975 0.950 . S
C2005 C2000 1.363 . S
C2005 C2004 1.415 . S
H2006 C2003 0.999 . S
H2007 C1988 0.913 . S
H2008 C2026 0.951 . S
H2009 C2028 0.951 . S
H2010 C2030 0.950 . S
H2011 C2031 0.950 . S
H2012 C2033 0.950 . S
H2013 C2036 0.950 . S
H2014 C2037 0.950 . S
H2015 C2039 0.950 . S
H2016 C2040 0.950 . S
H2017 C2041 0.951 . S
H2018 C2043 0.951 . S
H2019 C2045 0.950 . S
H2020 C2046 0.950 . S
H2021 C2048 0.950 . S
H2022 C2051 0.950 . S
H2023 C2052 0.950 . S
H2024 C2054 0.950 . S
H2025 C2055 0.950 . S
C2026 H2008 0.951 . S
C2026 C2027 1.366 . S
C2026 C2028 1.388 . S
C2027 C2026 1.366 . S
C2027 C2031 1.385 . S
C2028 H2009 0.951 . S
C2028 C2026 1.388 . S
C2028 C2029 1.366 . S
C2029 C2028 1.366 . S
C2029 C2030 1.414 . S
C2029 C2032 1.499 . S
C2030 H2010 0.950 . S
C2030 C2029 1.414 . S
C2030 C2031 1.374 . S
C2031 H2011 0.950 . S
C2031 C2027 1.385 . S
C2031 C2030 1.374 . S
C2032 C2029 1.499 . S
C2032 C2033 1.373 . S
C2032 C2034 1.389 . S
C2033 H2012 0.950 . S
C2033 C2032 1.373 . S
C2033 C2049 1.377 . S
C2034 C2032 1.389 . S
C2034 C2035 1.524 . S
C2034 C2048 1.377 . S
C2035 C2034 1.524 . S
C2035 C2036 1.397 . S
C2035 C2040 1.363 . S
C2036 H2013 0.950 . S
C2036 C2035 1.397 . S
C2036 C2037 1.334 . S
C2037 H2014 0.950 . S
C2037 C2036 1.334 . S
C2037 C2038 1.287 . S
C2038 C2037 1.287 . S
C2038 C2039 1.524 . S
C2038 H2057 0.913 . S
C2039 H2015 0.950 . S
C2039 C2038 1.524 . S
C2039 C2040 1.415 . S
C2040 H2016 0.950 . S
C2040 C2035 1.363 . S
C2040 C2039 1.415 . S
C2041 H2017 0.951 . S
C2041 C2042 1.366 . S
C2041 C2043 1.388 . S
C2042 C2041 1.366 . S
C2042 C2046 1.385 . S
C2043 H2018 0.951 . S
C2043 C2041 1.388 . S
C2043 C2044 1.366 . S
C2044 C2043 1.366 . S
C2044 C2045 1.414 . S
C2044 C2047 1.499 . S
C2045 H2019 0.950 . S
C2045 C2044 1.414 . S
C2045 C2046 1.374 . S
C2046 H2020 0.950 . S
C2046 C2042 1.385 . S
C2046 C2045 1.374 . S
C2047 C2044 1.499 . S
C2047 C2048 1.373 . S
C2047 C2049 1.389 . S
C2048 H2021 0.950 . S
C2048 C2034 1.377 . S
C2048 C2047 1.373 . S
C2049 C2033 1.377 . S
C2049 C2047 1.389 . S
C2049 C2050 1.524 . S
C2050 C2049 1.524 . S
C2050 C2051 1.397 . S
C2050 C2055 1.363 . S
C2051 H2022 0.950 . S
C2051 C2050 1.397 . S
C2051 C2052 1.334 . S
C2052 H2023 0.950 . S
C2052 C2051 1.334 . S
C2052 C2053 1.287 . S
C2053 C2052 1.287 . S
C2053 C2054 1.524 . S
C2053 H2056 0.999 . S
C2054 H2024 0.950 . S
C2054 C2053 1.524 . S
C2054 C2055 1.415 . S
C2055 H2025 0.950 . S
C2055 C2050 1.363 . S
C2055 C2054 1.415 . S
H2056 C2053 0.999 . S
H2057 C2038 0.913 . S
H2058 C2076 0.951 . S
H2059 C2078 0.951 . S
H2060 C2080 0.950 . S
H2061 C2081 0.950 . S
H2062 C2083 0.950 . S
H2063 C2086 0.950 . S
H2064 C2087 0.950 . S
H2065 C2089 0.950 . S
H2066 C2090 0.950 . S
H2067 C2091 0.951 . S
H2068 C2093 0.951 . S
H2069 C2095 0.950 . S
H2070 C2096 0.924 1_565 S
H2071 C2098 0.950 . S
H2072 C2101 0.950 . S
H2073 C2102 0.950 . S
H2074 C2104 0.950 . S
H2075 C2105 0.950 1_545 S
C2076 H2058 0.951 . S
C2076 C2077 1.366 . S
C2076 C2078 1.388 . S
C2077 C2076 1.366 . S
C2077 C2081 1.385 . S
C2078 H2059 0.951 . S
C2078 C2076 1.388 . S
C2078 C2079 1.366 . S
C2079 C2078 1.366 . S
C2079 C2080 1.414 . S
C2079 C2082 1.499 . S
C2080 H2060 0.950 . S
C2080 C2079 1.414 . S
C2080 C2081 1.374 . S
C2081 H2061 0.950 . S
C2081 C2077 1.385 . S
C2081 C2080 1.374 . S
C2082 C2079 1.499 . S
C2082 C2083 1.373 . S
C2082 C2084 1.389 . S
C2083 H2062 0.950 . S
C2083 C2082 1.373 . S
C2083 C2099 1.377 . S
C2084 C2082 1.389 . S
C2084 C2085 1.524 . S
C2084 C2098 1.377 . S
C2085 C2084 1.524 . S
C2085 C2086 1.397 . S
C2085 C2090 1.363 . S
C2086 H2063 0.950 . S
C2086 C2085 1.397 . S
C2086 C2087 1.334 . S
C2087 H2064 0.950 . S
C2087 C2086 1.334 . S
C2087 C2088 1.287 . S
C2088 C2087 1.287 . S
C2088 C2089 1.524 . S
C2088 H2107 0.913 . S
C2089 H2065 0.950 . S
C2089 C2088 1.524 . S
C2089 C2090 1.415 . S
C2090 H2066 0.950 . S
C2090 C2085 1.363 . S
C2090 C2089 1.415 . S
C2091 H2067 0.951 . S
C2091 C2092 1.366 . S
C2091 C2093 1.388 . S
C2092 C2091 1.366 . S
C2092 C2096 1.385 . S
C2093 H2068 0.951 . S
C2093 C2091 1.388 . S
C2093 C2094 1.366 . S
C2094 C2093 1.366 . S
C2094 C2095 1.414 . S
C2094 C2097 1.499 . S
C2095 H2069 0.950 . S
C2095 C2094 1.414 . S
C2095 C2096 1.374 . S
C2096 H2070 0.924 1_545 S
C2096 C2092 1.385 . S
C2096 C2095 1.374 . S
C2097 C2094 1.499 . S
C2097 C2098 1.373 . S
C2097 C2099 1.389 . S
C2098 H2071 0.950 . S
C2098 C2084 1.377 . S
C2098 C2097 1.373 . S
C2099 C2083 1.377 . S
C2099 C2097 1.389 . S
C2099 C2100 1.524 1_545 S
C2100 C2099 1.524 1_565 S
C2100 C2101 1.397 . S
C2100 C2105 1.363 . S
C2101 H2072 0.950 . S
C2101 C2100 1.397 . S
C2101 C2102 1.334 . S
C2102 H2073 0.950 . S
C2102 C2101 1.334 . S
C2102 C2103 1.287 . S
C2103 C2102 1.287 . S
C2103 C2104 1.524 . S
C2103 H2106 0.999 . S
C2104 H2074 0.950 . S
C2104 C2103 1.524 . S
C2104 C2105 1.415 . S
C2105 H2075 0.950 1_565 S
C2105 C2100 1.363 . S
C2105 C2104 1.415 . S
H2106 C2103 0.999 . S
H2107 C2088 0.913 . S
H2108 C2126 0.951 . S
H2109 C2128 0.951 . S
H2110 C2130 0.950 . S
H2111 C2131 0.950 . S
H2112 C2133 0.950 . S
H2113 C2136 0.950 . S
H2114 C2137 0.950 . S
H2115 C2139 0.950 . S
H2116 C2140 0.950 . S
H2117 C2141 0.951 . S
H2118 C2143 0.951 . S
H2119 C2145 0.950 . S
H2120 C2146 0.950 . S
H2121 C2148 0.950 . S
H2122 C2151 0.950 . S
H2123 C2152 0.950 . S
H2124 C2154 0.950 . S
H2125 C2155 0.950 . S
C2126 H2108 0.951 . S
C2126 C2127 1.366 . S
C2126 C2128 1.388 . S
C2127 C2126 1.366 . S
C2127 C2131 1.385 . S
C2128 H2109 0.951 . S
C2128 C2126 1.388 . S
C2128 C2129 1.366 . S
C2129 C2128 1.366 . S
C2129 C2130 1.414 . S
C2129 C2132 1.499 . S
C2130 H2110 0.950 . S
C2130 C2129 1.414 . S
C2130 C2131 1.374 . S
C2131 H2111 0.950 . S
C2131 C2127 1.385 . S
C2131 C2130 1.374 . S
C2132 C2129 1.499 . S
C2132 C2133 1.373 . S
C2132 C2134 1.389 . S
C2133 H2112 0.950 . S
C2133 C2132 1.373 . S
C2133 C2149 1.377 . S
C2134 C2132 1.389 . S
C2134 C2135 1.524 . S
C2134 C2148 1.377 . S
C2135 C2134 1.524 . S
C2135 C2136 1.397 . S
C2135 C2140 1.363 . S
C2136 H2113 0.950 . S
C2136 C2135 1.397 . S
C2136 C2137 1.334 . S
C2137 H2114 0.950 . S
C2137 C2136 1.334 . S
C2137 C2138 1.287 . S
C2138 C2137 1.287 . S
C2138 C2139 1.524 . S
C2138 H2157 0.913 . S
C2139 H2115 0.950 . S
C2139 C2138 1.524 . S
C2139 C2140 1.415 . S
C2140 H2116 0.950 . S
C2140 C2135 1.363 . S
C2140 C2139 1.415 . S
C2141 H2117 0.951 . S
C2141 C2142 1.366 . S
C2141 C2143 1.388 . S
C2142 C2141 1.366 . S
C2142 C2146 1.385 . S
C2143 H2118 0.951 . S
C2143 C2141 1.388 . S
C2143 C2144 1.366 . S
C2144 C2143 1.366 . S
C2144 C2145 1.414 . S
C2144 C2147 1.499 . S
C2145 H2119 0.950 . S
C2145 C2144 1.414 . S
C2145 C2146 1.374 . S
C2146 H2120 0.950 . S
C2146 C2142 1.385 . S
C2146 C2145 1.374 . S
C2147 C2144 1.499 . S
C2147 C2148 1.373 . S
C2147 C2149 1.389 . S
C2148 H2121 0.950 . S
C2148 C2134 1.377 . S
C2148 C2147 1.373 . S
C2149 C2133 1.377 . S
C2149 C2147 1.389 . S
C2149 C2150 1.524 . S
C2150 C2149 1.524 . S
C2150 C2151 1.397 . S
C2150 C2155 1.363 . S
C2151 H2122 0.950 . S
C2151 C2150 1.397 . S
C2151 C2152 1.334 . S
C2152 H2123 0.950 . S
C2152 C2151 1.334 . S
C2152 C2153 1.287 . S
C2153 C2152 1.287 . S
C2153 C2154 1.524 . S
C2153 H2156 0.999 . S
C2154 H2124 0.950 . S
C2154 C2153 1.524 . S
C2154 C2155 1.415 . S
C2155 H2125 0.950 . S
C2155 C2150 1.363 . S
C2155 C2154 1.415 . S
H2156 C2153 0.999 . S
H2157 C2138 0.913 . S
H2158 C2176 0.951 . S
H2159 C2178 0.951 . S
H2160 C2180 0.950 . S
H2161 C2181 0.950 . S
H2162 C2183 0.950 . S
H2163 C2186 0.950 . S
H2164 C2187 0.950 . S
H2165 C2189 0.950 . S
H2166 C2190 0.950 . S
H2167 C2191 0.951 . S
H2168 C2193 0.951 . S
H2169 C2195 0.950 . S
H2170 C2196 0.950 . S
H2171 C2198 0.950 . S
H2172 C2201 0.950 . S
H2173 C2202 0.950 . S
H2174 C2204 0.950 . S
H2175 C2205 0.950 . S
C2176 H2158 0.951 . S
C2176 C2177 1.366 . S
C2176 C2178 1.388 . S
C2177 C2176 1.366 . S
C2177 C2181 1.385 . S
C2178 H2159 0.951 . S
C2178 C2176 1.388 . S
C2178 C2179 1.366 . S
C2179 C2178 1.366 . S
C2179 C2180 1.414 . S
C2179 C2182 1.499 . S
C2180 H2160 0.950 . S
C2180 C2179 1.414 . S
C2180 C2181 1.374 . S
C2181 H2161 0.950 . S
C2181 C2177 1.385 . S
C2181 C2180 1.374 . S
C2182 C2179 1.499 . S
C2182 C2183 1.373 . S
C2182 C2184 1.389 . S
C2183 H2162 0.950 . S
C2183 C2182 1.373 . S
C2183 C2199 1.377 . S
C2184 C2182 1.389 . S
C2184 C2185 1.524 . S
C2184 C2198 1.377 . S
C2185 C2184 1.524 . S
C2185 C2186 1.397 . S
C2185 C2190 1.363 . S
C2186 H2163 0.950 . S
C2186 C2185 1.397 . S
C2186 C2187 1.334 . S
C2187 H2164 0.950 . S
C2187 C2186 1.334 . S
C2187 C2188 1.287 . S
C2188 C2187 1.287 . S
C2188 C2189 1.524 . S
C2188 H2207 0.913 . S
C2189 H2165 0.950 . S
C2189 C2188 1.524 . S
C2189 C2190 1.415 . S
C2190 H2166 0.950 . S
C2190 C2185 1.363 . S
C2190 C2189 1.415 . S
C2191 H2167 0.951 . S
C2191 C2192 1.366 . S
C2191 C2193 1.388 . S
C2192 C2191 1.366 . S
C2192 C2196 1.385 . S
C2193 H2168 0.951 . S
C2193 C2191 1.388 . S
C2193 C2194 1.366 . S
C2194 C2193 1.366 . S
C2194 C2195 1.414 . S
C2194 C2197 1.499 . S
C2195 H2169 0.950 . S
C2195 C2194 1.414 . S
C2195 C2196 1.374 . S
C2196 H2170 0.950 . S
C2196 C2192 1.385 . S
C2196 C2195 1.374 . S
C2197 C2194 1.499 . S
C2197 C2198 1.373 . S
C2197 C2199 1.389 . S
C2198 H2171 0.950 . S
C2198 C2184 1.377 . S
C2198 C2197 1.373 . S
C2199 C2183 1.377 . S
C2199 C2197 1.389 . S
C2199 C2200 1.524 . S
C2200 C2199 1.524 . S
C2200 C2201 1.397 . S
C2200 C2205 1.363 . S
C2201 H2172 0.950 . S
C2201 C2200 1.397 . S
C2201 C2202 1.334 . S
C2202 H2173 0.950 . S
C2202 C2201 1.334 . S
C2202 C2203 1.287 . S
C2203 C2202 1.287 . S
C2203 C2204 1.524 . S
C2203 H2206 0.999 . S
C2204 H2174 0.950 . S
C2204 C2203 1.524 . S
C2204 C2205 1.415 . S
C2205 H2175 0.950 . S
C2205 C2200 1.363 . S
C2205 C2204 1.415 . S
H2206 C2203 0.999 . S
H2207 C2188 0.913 . S
H2208 C2226 0.951 . S
H2209 C2228 0.951 . S
H2210 C2230 0.950 . S
H2211 C2231 0.950 . S
H2212 C2233 0.950 . S
H2213 C2236 0.950 . S
H2214 C2237 0.950 . S
H2215 C2239 0.950 . S
H2216 C2240 0.950 . S
H2217 C2241 0.951 . S
H2218 C2243 0.951 . S
H2219 C2245 0.950 . S
H2220 C2246 0.950 . S
H2221 C2248 0.950 . S
H2222 C2251 0.950 . S
H2223 C2252 0.950 . S
H2224 C2254 0.950 . S
H2225 C2255 0.950 . S
C2226 H2208 0.951 . S
C2226 C2227 1.366 . S
C2226 C2228 1.388 . S
C2227 C2226 1.366 . S
C2227 C2231 1.385 . S
C2228 H2209 0.951 . S
C2228 C2226 1.388 . S
C2228 C2229 1.366 . S
C2229 C2228 1.366 . S
C2229 C2230 1.414 . S
C2229 C2232 1.499 . S
C2230 H2210 0.950 . S
C2230 C2229 1.414 . S
C2230 C2231 1.374 . S
C2231 H2211 0.950 . S
C2231 C2227 1.385 . S
C2231 C2230 1.374 . S
C2232 C2229 1.499 . S
C2232 C2233 1.373 . S
C2232 C2234 1.389 . S
C2233 H2212 0.950 . S
C2233 C2232 1.373 . S
C2233 C2249 1.377 . S
C2234 C2232 1.389 . S
C2234 C2235 1.524 . S
C2234 C2248 1.377 . S
C2235 C2234 1.524 . S
C2235 C2236 1.397 . S
C2235 C2240 1.363 . S
C2236 H2213 0.950 . S
C2236 C2235 1.397 . S
C2236 C2237 1.334 . S
C2237 H2214 0.950 . S
C2237 C2236 1.334 . S
C2237 C2238 1.287 . S
C2238 C2237 1.287 . S
C2238 C2239 1.524 . S
C2238 H2257 0.913 . S
C2239 H2215 0.950 . S
C2239 C2238 1.524 . S
C2239 C2240 1.415 . S
C2240 H2216 0.950 . S
C2240 C2235 1.363 . S
C2240 C2239 1.415 . S
C2241 H2217 0.951 . S
C2241 C2242 1.366 . S
C2241 C2243 1.388 . S
C2242 C2241 1.366 . S
C2242 C2246 1.385 . S
C2243 H2218 0.951 . S
C2243 C2241 1.388 . S
C2243 C2244 1.366 . S
C2244 C2243 1.366 . S
C2244 C2245 1.414 . S
C2244 C2247 1.499 . S
C2245 H2219 0.950 . S
C2245 C2244 1.414 . S
C2245 C2246 1.374 . S
C2246 H2220 0.950 . S
C2246 C2242 1.385 . S
C2246 C2245 1.374 . S
C2247 C2244 1.499 . S
C2247 C2248 1.373 . S
C2247 C2249 1.389 . S
C2248 H2221 0.950 . S
C2248 C2234 1.377 . S
C2248 C2247 1.373 . S
C2249 C2233 1.377 . S
C2249 C2247 1.389 . S
C2249 C2250 1.524 . S
C2250 C2249 1.524 . S
C2250 C2251 1.397 . S
C2250 C2255 1.363 . S
C2251 H2222 0.950 . S
C2251 C2250 1.397 . S
C2251 C2252 1.334 . S
C2252 H2223 0.950 . S
C2252 C2251 1.334 . S
C2252 C2253 1.287 . S
C2253 C2252 1.287 . S
C2253 C2254 1.524 . S
C2253 H2256 0.999 . S
C2254 H2224 0.950 . S
C2254 C2253 1.524 . S
C2254 C2255 1.415 . S
C2255 H2225 0.950 . S
C2255 C2250 1.363 . S
C2255 C2254 1.415 . S
H2256 C2253 0.999 . S
H2257 C2238 0.913 . S
H2258 C2276 0.951 . S
H2259 C2278 0.951 . S
H2260 C2280 0.950 . S
H2261 C2281 0.950 . S
H2262 C2283 0.950 . S
H2263 C2286 0.950 . S
H2264 C2287 0.950 . S
H2265 C2289 0.950 . S
H2266 C2290 0.950 . S
H2267 C2291 0.951 . S
H2268 C2293 0.951 . S
H2269 C2295 0.950 1_565 S
H2270 C2296 0.950 1_565 S
H2271 C2298 0.950 . S
H2272 C2301 0.950 . S
H2273 C2302 0.950 . S
H2274 C2304 0.950 . S
H2275 C2305 0.950 . S
C2276 H2258 0.951 . S
C2276 C2277 1.366 . S
C2276 C2278 1.388 . S
C2277 C2276 1.366 . S
C2277 C2281 1.385 . S
C2278 H2259 0.951 . S
C2278 C2276 1.388 . S
C2278 C2279 1.366 . S
C2279 C2278 1.366 . S
C2279 C2280 1.414 . S
C2279 C2282 1.499 . S
C2280 H2260 0.950 . S
C2280 C2279 1.414 . S
C2280 C2281 1.374 . S
C2281 H2261 0.950 . S
C2281 C2277 1.385 . S
C2281 C2280 1.374 . S
C2282 C2279 1.499 . S
C2282 C2283 1.373 . S
C2282 C2284 1.389 . S
C2283 H2262 0.950 . S
C2283 C2282 1.373 . S
C2283 C2299 1.377 . S
C2284 C2282 1.389 . S
C2284 C2285 1.524 . S
C2284 C2298 1.377 . S
C2285 C2284 1.524 . S
C2285 C2286 1.397 . S
C2285 C2290 1.363 1_545 S
C2286 H2263 0.950 . S
C2286 C2285 1.397 . S
C2286 C2287 1.334 . S
C2287 H2264 0.950 . S
C2287 C2286 1.334 . S
C2287 C2288 1.287 . S
C2288 C2287 1.287 . S
C2288 C2289 1.524 1_545 S
C2288 H2307 0.913 . S
C2289 H2265 0.950 . S
C2289 C2288 1.524 1_565 S
C2289 C2290 1.415 . S
C2290 H2266 0.950 . S
C2290 C2285 1.363 1_565 S
C2290 C2289 1.415 . S
C2291 H2267 0.951 . S
C2291 C2292 1.366 . S
C2291 C2293 1.388 . S
C2292 C2291 1.366 . S
C2292 C2296 1.385 . S
C2293 H2268 0.951 . S
C2293 C2291 1.388 . S
C2293 C2294 1.366 . S
C2294 C2293 1.366 . S
C2294 C2295 1.414 . S
C2294 C2297 1.499 . S
C2295 H2269 0.950 1_545 S
C2295 C2294 1.414 . S
C2295 C2296 1.374 . S
C2296 H2270 0.950 1_545 S
C2296 C2292 1.385 . S
C2296 C2295 1.374 . S
C2297 C2294 1.499 . S
C2297 C2298 1.373 . S
C2297 C2299 1.389 . S
C2298 H2271 0.950 . S
C2298 C2284 1.377 . S
C2298 C2297 1.373 . S
C2299 C2283 1.377 . S
C2299 C2297 1.389 . S
C2299 C2300 1.524 . S
C2300 C2299 1.524 . S
C2300 C2301 1.397 . S
C2300 C2305 1.363 . S
C2301 H2272 0.950 . S
C2301 C2300 1.397 . S
C2301 C2302 1.334 . S
C2302 H2273 0.950 . S
C2302 C2301 1.334 . S
C2302 C2303 1.287 . S
C2303 C2302 1.287 . S
C2303 C2304 1.524 . S
C2303 H2306 0.999 . S
C2304 H2274 0.950 . S
C2304 C2303 1.524 . S
C2304 C2305 1.415 . S
C2305 H2275 0.950 . S
C2305 C2300 1.363 . S
C2305 C2304 1.415 . S
H2306 C2303 0.999 . S
H2307 C2288 0.913 . S
H2308 C2326 0.951 . S
H2309 C2328 0.951 . S
H2310 C2330 0.950 . S
H2311 C2331 0.950 . S
H2312 C2333 0.950 . S
H2313 C2336 0.950 . S
H2314 C2337 0.950 . S
H2315 C2339 0.950 . S
H2316 C2340 0.950 . S
H2317 C2341 0.951 . S
H2318 C2343 0.951 . S
H2319 C2345 0.950 . S
H2320 C2346 0.950 . S
H2321 C2348 0.950 . S
H2322 C2351 0.950 . S
H2323 C2352 0.950 . S
H2324 C2354 0.950 . S
H2325 C2355 0.950 . S
C2326 H2308 0.951 . S
C2326 C2327 1.366 . S
C2326 C2328 1.388 . S
C2327 C2326 1.366 . S
C2327 C2331 1.385 . S
C2328 H2309 0.951 . S
C2328 C2326 1.388 . S
C2328 C2329 1.366 . S
C2329 C2328 1.366 . S
C2329 C2330 1.414 . S
C2329 C2332 1.499 . S
C2330 H2310 0.950 . S
C2330 C2329 1.414 . S
C2330 C2331 1.374 . S
C2331 H2311 0.950 . S
C2331 C2327 1.385 . S
C2331 C2330 1.374 . S
C2332 C2329 1.499 . S
C2332 C2333 1.373 . S
C2332 C2334 1.389 . S
C2333 H2312 0.950 . S
C2333 C2332 1.373 . S
C2333 C2349 1.377 . S
C2334 C2332 1.389 . S
C2334 C2335 1.524 . S
C2334 C2348 1.377 . S
C2335 C2334 1.524 . S
C2335 C2336 1.397 . S
C2335 C2340 1.363 . S
C2336 H2313 0.950 . S
C2336 C2335 1.397 . S
C2336 C2337 1.334 . S
C2337 H2314 0.950 . S
C2337 C2336 1.334 . S
C2337 C2338 1.287 . S
C2338 C2337 1.287 . S
C2338 C2339 1.524 . S
C2338 H2357 0.913 . S
C2339 H2315 0.950 . S
C2339 C2338 1.524 . S
C2339 C2340 1.415 . S
C2340 H2316 0.950 . S
C2340 C2335 1.363 . S
C2340 C2339 1.415 . S
C2341 H2317 0.951 . S
C2341 C2342 1.366 . S
C2341 C2343 1.388 . S
C2342 C2341 1.366 . S
C2342 C2346 1.385 . S
C2343 H2318 0.951 . S
C2343 C2341 1.388 . S
C2343 C2344 1.366 . S
C2344 C2343 1.366 . S
C2344 C2345 1.414 . S
C2344 C2347 1.499 . S
C2345 H2319 0.950 . S
C2345 C2344 1.414 . S
C2345 C2346 1.374 . S
C2346 H2320 0.950 . S
C2346 C2342 1.385 . S
C2346 C2345 1.374 . S
C2347 C2344 1.499 . S
C2347 C2348 1.373 . S
C2347 C2349 1.389 . S
C2348 H2321 0.950 . S
C2348 C2334 1.377 . S
C2348 C2347 1.373 . S
C2349 C2333 1.377 . S
C2349 C2347 1.389 . S
C2349 C2350 1.524 . S
C2350 C2349 1.524 . S
C2350 C2351 1.397 . S
C2350 C2355 1.363 . S
C2351 H2322 0.950 . S
C2351 C2350 1.397 . S
C2351 C2352 1.334 . S
C2352 H2323 0.950 . S
C2352 C2351 1.334 . S
C2352 C2353 1.287 . S
C2353 C2352 1.287 . S
C2353 C2354 1.524 . S
C2353 H2356 0.999 . S
C2354 H2324 0.950 . S
C2354 C2353 1.524 . S
C2354 C2355 1.415 . S
C2355 H2325 0.950 . S
C2355 C2350 1.363 . S
C2355 C2354 1.415 . S
H2356 C2353 0.999 . S
H2357 C2338 0.913 . S
H2358 C2376 0.951 . S
H2359 C2378 0.951 . S
H2360 C2380 0.950 . S
H2361 C2381 0.950 . S
H2362 C2383 0.950 . S
H2363 C2386 0.950 . S
H2364 C2387 0.950 . S
H2365 C2389 0.950 . S
H2366 C2390 0.950 . S
H2367 C2391 0.951 . S
H2368 C2393 0.951 . S
H2369 C2395 0.950 . S
H2370 C2396 0.950 . S
H2371 C2398 0.950 . S
H2372 C2401 0.950 . S
H2373 C2402 0.950 . S
H2374 C2404 0.950 . S
H2375 C2405 0.950 . S
C2376 H2358 0.951 . S
C2376 C2377 1.366 . S
C2376 C2378 1.388 . S
C2377 C2376 1.366 . S
C2377 C2381 1.385 . S
C2378 H2359 0.951 . S
C2378 C2376 1.388 . S
C2378 C2379 1.366 . S
C2379 C2378 1.366 . S
C2379 C2380 1.414 . S
C2379 C2382 1.499 . S
C2380 H2360 0.950 . S
C2380 C2379 1.414 . S
C2380 C2381 1.374 . S
C2381 H2361 0.950 . S
C2381 C2377 1.385 . S
C2381 C2380 1.374 . S
C2382 C2379 1.499 . S
C2382 C2383 1.373 . S
C2382 C2384 1.389 . S
C2383 H2362 0.950 . S
C2383 C2382 1.373 . S
C2383 C2399 1.377 . S
C2384 C2382 1.389 . S
C2384 C2385 1.524 . S
C2384 C2398 1.377 . S
C2385 C2384 1.524 . S
C2385 C2386 1.397 . S
C2385 C2390 1.363 . S
C2386 H2363 0.950 . S
C2386 C2385 1.397 . S
C2386 C2387 1.334 . S
C2387 H2364 0.950 . S
C2387 C2386 1.334 . S
C2387 C2388 1.287 . S
C2388 C2387 1.287 . S
C2388 C2389 1.524 . S
C2388 H2407 0.913 . S
C2389 H2365 0.950 . S
C2389 C2388 1.524 . S
C2389 C2390 1.415 . S
C2390 H2366 0.950 . S
C2390 C2385 1.363 . S
C2390 C2389 1.415 . S
C2391 H2367 0.951 . S
C2391 C2392 1.366 . S
C2391 C2393 1.388 . S
C2392 C2391 1.366 . S
C2392 C2396 1.385 . S
C2393 H2368 0.951 . S
C2393 C2391 1.388 . S
C2393 C2394 1.366 . S
C2394 C2393 1.366 . S
C2394 C2395 1.414 . S
C2394 C2397 1.499 . S
C2395 H2369 0.950 . S
C2395 C2394 1.414 . S
C2395 C2396 1.374 . S
C2396 H2370 0.950 . S
C2396 C2392 1.385 . S
C2396 C2395 1.374 . S
C2397 C2394 1.499 . S
C2397 C2398 1.373 . S
C2397 C2399 1.389 . S
C2398 H2371 0.950 . S
C2398 C2384 1.377 . S
C2398 C2397 1.373 . S
C2399 C2383 1.377 . S
C2399 C2397 1.389 . S
C2399 C2400 1.524 . S
C2400 C2399 1.524 . S
C2400 C2401 1.397 . S
C2400 C2405 1.363 . S
C2401 H2372 0.950 . S
C2401 C2400 1.397 . S
C2401 C2402 1.334 . S
C2402 H2373 0.950 . S
C2402 C2401 1.334 . S
C2402 C2403 1.287 . S
C2403 C2402 1.287 . S
C2403 C2404 1.524 . S
C2403 H2406 0.999 . S
C2404 H2374 0.950 . S
C2404 C2403 1.524 . S
C2404 C2405 1.415 . S
C2405 H2375 0.950 . S
C2405 C2400 1.363 . S
C2405 C2404 1.415 . S
H2406 C2403 0.999 . S
H2407 C2388 0.913 . S
H2408 C2426 0.951 . S
H2409 C2428 0.951 . S
H2410 C2430 0.950 . S
H2411 C2431 0.950 . S
H2412 C2433 0.950 . S
H2413 C2436 0.950 . S
H2414 C2437 0.950 . S
H2415 C2439 0.950 . S
H2416 C2440 0.950 . S
H2417 C2441 0.951 . S
H2418 C2443 0.951 . S
H2419 C2445 0.950 . S
H2420 C2446 0.950 . S
H2421 C2448 0.950 . S
H2422 C2451 0.950 . S
H2423 C2452 0.950 . S
H2424 C2454 0.950 . S
H2425 C2455 0.950 . S
C2426 H2408 0.951 . S
C2426 C2427 1.366 . S
C2426 C2428 1.388 . S
C2427 C2426 1.366 . S
C2427 C2431 1.385 . S
C2428 H2409 0.951 . S
C2428 C2426 1.388 . S
C2428 C2429 1.366 . S
C2429 C2428 1.366 . S
C2429 C2430 1.414 . S
C2429 C2432 1.499 . S
C2430 H2410 0.950 . S
C2430 C2429 1.414 . S
C2430 C2431 1.374 . S
C2431 H2411 0.950 . S
C2431 C2427 1.385 . S
C2431 C2430 1.374 . S
C2432 C2429 1.499 . S
C2432 C2433 1.373 . S
C2432 C2434 1.389 . S
C2433 H2412 0.950 . S
C2433 C2432 1.373 . S
C2433 C2449 1.377 . S
C2434 C2432 1.389 . S
C2434 C2435 1.524 . S
C2434 C2448 1.377 . S
C2435 C2434 1.524 . S
C2435 C2436 1.397 . S
C2435 C2440 1.363 . S
C2436 H2413 0.950 . S
C2436 C2435 1.397 . S
C2436 C2437 1.334 . S
C2437 H2414 0.950 . S
C2437 C2436 1.334 . S
C2437 C2438 1.287 . S
C2438 C2437 1.287 . S
C2438 C2439 1.524 . S
C2438 H2457 0.913 . S
C2439 H2415 0.950 . S
C2439 C2438 1.524 . S
C2439 C2440 1.415 . S
C2440 H2416 0.950 . S
C2440 C2435 1.363 . S
C2440 C2439 1.415 . S
C2441 H2417 0.951 . S
C2441 C2442 1.366 . S
C2441 C2443 1.388 . S
C2442 C2441 1.366 . S
C2442 C2446 1.385 . S
C2443 H2418 0.951 . S
C2443 C2441 1.388 . S
C2443 C2444 1.366 . S
C2444 C2443 1.366 . S
C2444 C2445 1.414 . S
C2444 C2447 1.499 . S
C2445 H2419 0.950 . S
C2445 C2444 1.414 . S
C2445 C2446 1.374 . S
C2446 H2420 0.950 . S
C2446 C2442 1.385 . S
C2446 C2445 1.374 . S
C2447 C2444 1.499 . S
C2447 C2448 1.373 . S
C2447 C2449 1.389 . S
C2448 H2421 0.950 . S
C2448 C2434 1.377 . S
C2448 C2447 1.373 . S
C2449 C2433 1.377 . S
C2449 C2447 1.389 . S
C2449 C2450 1.524 . S
C2450 C2449 1.524 . S
C2450 C2451 1.397 . S
C2450 C2455 1.363 . S
C2451 H2422 0.950 . S
C2451 C2450 1.397 . S
C2451 C2452 1.334 . S
C2452 H2423 0.950 . S
C2452 C2451 1.334 . S
C2452 C2453 1.287 . S
C2453 C2452 1.287 . S
C2453 C2454 1.524 . S
C2453 H2456 0.999 . S
C2454 H2424 0.950 . S
C2454 C2453 1.524 . S
C2454 C2455 1.415 . S
C2455 H2425 0.950 . S
C2455 C2450 1.363 . S
C2455 C2454 1.415 . S
H2456 C2453 0.999 . S
H2457 C2438 0.913 . S
H2458 C2476 0.951 1_554 S
H2459 C2478 0.951 . S
H2460 C2480 0.950 . S
H2461 C2481 0.950 . S
H2462 C2483 0.950 . S
H2463 C2486 0.950 . S
H2464 C2487 0.950 . S
H2465 C2489 0.992 . S
H2466 C2490 0.950 . S
H2467 C2491 0.951 . S
H2468 C2493 0.951 . S
H2469 C2495 0.950 . S
H2470 C2496 0.950 . S
H2471 C2498 0.950 . S
H2472 C2501 0.950 . S
H2473 C2502 0.950 . S
H2474 C2504 0.950 . S
H2475 C2505 0.950 . S
C2476 H2458 0.951 1_556 S
C2476 C2477 1.366 . S
C2476 C2478 1.388 . S
C2477 C2476 1.366 . S
C2477 C2481 1.385 . S
C2478 H2459 0.951 . S
C2478 C2476 1.388 . S
C2478 C2479 1.377 . S
C2479 C2478 1.377 . S
C2479 C2480 1.423 . S
C2479 C2482 1.487 1_655 S
C2480 H2460 0.950 . S
C2480 C2479 1.423 . S
C2480 C2481 1.374 . S
C2481 H2461 0.950 . S
C2481 C2477 1.385 . S
C2481 C2480 1.374 . S
C2482 C2479 1.487 1_455 S
C2482 C2483 1.373 1_455 S
C2482 C2484 1.389 . S
C2483 H2462 0.950 . S
C2483 C2482 1.373 1_655 S
C2483 C2499 1.377 . S
C2484 C2482 1.389 . S
C2484 C2485 1.524 . S
C2484 C2498 1.377 . S
C2485 C2484 1.524 . S
C2485 C2486 1.397 . S
C2485 C2490 1.363 . S
C2486 H2463 0.950 . S
C2486 C2485 1.397 . S
C2486 C2487 1.334 . S
C2487 H2464 0.950 . S
C2487 C2486 1.334 . S
C2487 C2488 1.287 . S
C2488 C2487 1.287 . S
C2488 C2489 1.524 . S
C2488 H2507 0.963 . S
C2489 H2465 0.992 . S
C2489 C2488 1.524 . S
C2489 C2490 1.415 . S
C2490 H2466 0.950 . S
C2490 C2485 1.363 . S
C2490 C2489 1.415 . S
C2491 H2467 0.951 . S
C2491 C2492 1.366 . S
C2491 C2493 1.388 . S
C2492 C2491 1.366 . S
C2492 C2496 1.385 . S
C2493 H2468 0.951 . S
C2493 C2491 1.388 . S
C2493 C2494 1.366 . S
C2494 C2493 1.366 . S
C2494 C2495 1.414 . S
C2494 C2497 1.499 . S
C2495 H2469 0.950 . S
C2495 C2494 1.414 . S
C2495 C2496 1.374 . S
C2496 H2470 0.950 . S
C2496 C2492 1.385 . S
C2496 C2495 1.374 . S
C2497 C2494 1.499 . S
C2497 C2498 1.373 . S
C2497 C2499 1.389 1_455 S
C2498 H2471 0.950 . S
C2498 C2484 1.377 . S
C2498 C2497 1.373 . S
C2499 C2483 1.377 . S
C2499 C2497 1.389 1_655 S
C2499 C2500 1.524 . S
C2500 C2499 1.524 . S
C2500 C2501 1.397 . S
C2500 C2505 1.363 . S
C2501 H2472 0.950 . S
C2501 C2500 1.397 . S
C2501 C2502 1.334 . S
C2502 H2473 0.950 . S
C2502 C2501 1.334 . S
C2502 C2503 1.287 . S
C2503 C2502 1.287 . S
C2503 C2504 1.524 . S
C2503 H2506 0.999 . S
C2504 H2474 0.950 . S
C2504 C2503 1.524 . S
C2504 C2505 1.415 . S
C2505 H2475 0.950 . S
C2505 C2500 1.363 . S
C2505 C2504 1.415 . S
H2506 C2503 0.999 . S
H2507 C2488 0.963 . S
H2508 C2526 0.951 . S
H2509 C2528 0.951 . S
H2510 C2530 0.950 . S
H2511 C2531 0.950 . S
H2512 C2533 0.950 . S
H2513 C2536 0.950 . S
H2514 C2537 0.950 . S
H2515 C2539 0.950 . S
H2516 C2540 0.950 . S
H2517 C2541 0.951 . S
H2518 C2543 0.951 . S
H2519 C2545 0.950 . S
H2520 C2546 0.950 . S
H2521 C2548 0.950 . S
H2522 C2551 0.950 . S
H2523 C2552 0.950 . S
H2524 C2554 0.950 . S
H2525 C2555 0.950 . S
C2526 H2508 0.951 . S
C2526 C2527 1.366 . S
C2526 C2528 1.388 . S
C2527 C2526 1.366 . S
C2527 C2531 1.385 . S
C2528 H2509 0.951 . S
C2528 C2526 1.388 . S
C2528 C2529 1.366 . S
C2529 C2528 1.366 . S
C2529 C2530 1.414 . S
C2529 C2532 1.499 . S
C2530 H2510 0.950 . S
C2530 C2529 1.414 . S
C2530 C2531 1.374 . S
C2531 H2511 0.950 . S
C2531 C2527 1.385 . S
C2531 C2530 1.374 . S
C2532 C2529 1.499 . S
C2532 C2533 1.373 . S
C2532 C2534 1.389 . S
C2533 H2512 0.950 . S
C2533 C2532 1.373 . S
C2533 C2549 1.377 . S
C2534 C2532 1.389 . S
C2534 C2535 1.524 . S
C2534 C2548 1.377 . S
C2535 C2534 1.524 . S
C2535 C2536 1.397 . S
C2535 C2540 1.363 . S
C2536 H2513 0.950 . S
C2536 C2535 1.397 . S
C2536 C2537 1.334 . S
C2537 H2514 0.950 . S
C2537 C2536 1.334 . S
C2537 C2538 1.287 . S
C2538 C2537 1.287 . S
C2538 C2539 1.524 . S
C2538 H2557 0.913 . S
C2539 H2515 0.950 . S
C2539 C2538 1.524 . S
C2539 C2540 1.415 . S
C2540 H2516 0.950 . S
C2540 C2535 1.363 . S
C2540 C2539 1.415 . S
C2541 H2517 0.951 . S
C2541 C2542 1.366 . S
C2541 C2543 1.388 . S
C2542 C2541 1.366 . S
C2542 C2546 1.385 . S
C2543 H2518 0.951 . S
C2543 C2541 1.388 . S
C2543 C2544 1.366 . S
C2544 C2543 1.366 . S
C2544 C2545 1.414 . S
C2544 C2547 1.499 . S
C2545 H2519 0.950 . S
C2545 C2544 1.414 . S
C2545 C2546 1.374 . S
C2546 H2520 0.950 . S
C2546 C2542 1.385 . S
C2546 C2545 1.374 . S
C2547 C2544 1.499 . S
C2547 C2548 1.373 . S
C2547 C2549 1.389 . S
C2548 H2521 0.950 . S
C2548 C2534 1.377 . S
C2548 C2547 1.373 . S
C2549 C2533 1.377 . S
C2549 C2547 1.389 . S
C2549 C2550 1.524 . S
C2550 C2549 1.524 . S
C2550 C2551 1.397 . S
C2550 C2555 1.363 . S
C2551 H2522 0.950 . S
C2551 C2550 1.397 . S
C2551 C2552 1.334 . S
C2552 H2523 0.950 . S
C2552 C2551 1.334 . S
C2552 C2553 1.287 . S
C2553 C2552 1.287 . S
C2553 C2554 1.524 . S
C2553 H2556 0.999 . S
C2554 H2524 0.950 . S
C2554 C2553 1.524 . S
C2554 C2555 1.415 . S
C2555 H2525 0.950 . S
C2555 C2550 1.363 . S
C2555 C2554 1.415 . S
H2556 C2553 0.999 . S
H2557 C2538 0.913 . S
H2558 C2576 0.951 . S
H2559 C2578 0.951 . S
H2560 C2580 0.950 . S
H2561 C2581 0.950 . S
H2562 C2583 0.950 . S
H2563 C2586 0.950 . S
H2564 C2587 0.950 . S
H2565 C2589 0.950 . S
H2566 C2590 0.950 . S
H2567 C2591 0.951 . S
H2568 C2593 0.951 . S
H2569 C2595 0.950 . S
H2570 C2596 0.950 . S
H2571 C2598 0.950 . S
H2572 C2601 0.950 1_655 S
H2573 C2602 0.952 1_655 S
H2574 C2604 0.950 . S
H2575 C2605 0.950 . S
C2576 H2558 0.951 . S
C2576 C2577 1.366 . S
C2576 C2578 1.388 . S
C2577 C2576 1.366 . S
C2577 C2581 1.385 . S
C2578 H2559 0.951 . S
C2578 C2576 1.388 . S
C2578 C2579 1.366 . S
C2579 C2578 1.366 . S
C2579 C2580 1.414 . S
C2579 C2582 1.499 . S
C2580 H2560 0.950 . S
C2580 C2579 1.414 . S
C2580 C2581 1.374 . S
C2581 H2561 0.950 . S
C2581 C2577 1.385 . S
C2581 C2580 1.374 . S
C2582 C2579 1.499 . S
C2582 C2583 1.373 . S
C2582 C2584 1.389 . S
C2583 H2562 0.950 . S
C2583 C2582 1.373 . S
C2583 C2599 1.377 . S
C2584 C2582 1.389 . S
C2584 C2585 1.524 . S
C2584 C2598 1.377 . S
C2585 C2584 1.524 . S
C2585 C2586 1.397 . S
C2585 C2590 1.363 . S
C2586 H2563 0.950 . S
C2586 C2585 1.397 . S
C2586 C2587 1.334 . S
C2587 H2564 0.950 . S
C2587 C2586 1.334 . S
C2587 C2588 1.287 . S
C2588 C2587 1.287 . S
C2588 C2589 1.524 . S
C2588 H2607 0.913 . S
C2589 H2565 0.950 . S
C2589 C2588 1.524 . S
C2589 C2590 1.415 . S
C2590 H2566 0.950 . S
C2590 C2585 1.363 . S
C2590 C2589 1.415 . S
C2591 H2567 0.951 . S
C2591 C2592 1.366 . S
C2591 C2593 1.388 . S
C2592 C2591 1.366 . S
C2592 C2596 1.385 . S
C2593 H2568 0.951 . S
C2593 C2591 1.388 . S
C2593 C2594 1.366 . S
C2594 C2593 1.366 . S
C2594 C2595 1.414 . S
C2594 C2597 1.499 . S
C2595 H2569 0.950 . S
C2595 C2594 1.414 . S
C2595 C2596 1.374 . S
C2596 H2570 0.950 . S
C2596 C2592 1.385 . S
C2596 C2595 1.374 . S
C2597 C2594 1.499 . S
C2597 C2598 1.373 . S
C2597 C2599 1.389 . S
C2598 H2571 0.950 . S
C2598 C2584 1.377 . S
C2598 C2597 1.373 . S
C2599 C2583 1.377 . S
C2599 C2597 1.389 . S
C2599 C2600 1.524 . S
C2600 C2599 1.524 . S
C2600 C2601 1.397 . S
C2600 C2605 1.363 . S
C2601 H2572 0.950 1_455 S
C2601 C2600 1.397 . S
C2601 C2602 1.333 . S
C2602 H2573 0.952 1_455 S
C2602 C2601 1.333 . S
C2602 C2603 1.286 . S
C2603 C2602 1.286 . S
C2603 C2604 1.524 . S
C2603 H2606 0.999 . S
C2604 H2574 0.950 . S
C2604 C2603 1.524 . S
C2604 C2605 1.415 . S
C2605 H2575 0.950 . S
C2605 C2600 1.363 . S
C2605 C2604 1.415 . S
H2606 C2603 0.999 . S
H2607 C2588 0.913 . S
H2608 C2626 0.951 . S
H2609 C2628 0.951 . S
H2610 C2630 0.950 . S
H2611 C2631 0.950 . S
H2612 C2633 0.950 . S
H2613 C2636 0.950 . S
H2614 C2637 0.950 . S
H2615 C2639 0.950 . S
H2616 C2640 0.950 . S
H2617 C2641 0.951 . S
H2618 C2643 0.951 . S
H2619 C2645 0.950 . S
H2620 C2646 0.950 . S
H2621 C2648 0.950 . S
H2622 C2651 0.950 . S
H2623 C2652 0.950 . S
H2624 C2654 0.950 . S
H2625 C2655 0.950 . S
C2626 H2608 0.951 . S
C2626 C2627 1.366 . S
C2626 C2628 1.388 . S
C2627 C2626 1.366 . S
C2627 C2631 1.385 . S
C2628 H2609 0.951 . S
C2628 C2626 1.388 . S
C2628 C2629 1.366 . S
C2629 C2628 1.366 . S
C2629 C2630 1.414 . S
C2629 C2632 1.499 . S
C2630 H2610 0.950 . S
C2630 C2629 1.414 . S
C2630 C2631 1.374 . S
C2631 H2611 0.950 . S
C2631 C2627 1.385 . S
C2631 C2630 1.374 . S
C2632 C2629 1.499 . S
C2632 C2633 1.373 . S
C2632 C2634 1.389 . S
C2633 H2612 0.950 . S
C2633 C2632 1.373 . S
C2633 C2649 1.377 . S
C2634 C2632 1.389 . S
C2634 C2635 1.524 . S
C2634 C2648 1.377 . S
C2635 C2634 1.524 . S
C2635 C2636 1.397 . S
C2635 C2640 1.363 . S
C2636 H2613 0.950 . S
C2636 C2635 1.397 . S
C2636 C2637 1.334 . S
C2637 H2614 0.950 . S
C2637 C2636 1.334 . S
C2637 C2638 1.287 . S
C2638 C2637 1.287 . S
C2638 C2639 1.524 . S
C2638 H2657 0.913 . S
C2639 H2615 0.950 . S
C2639 C2638 1.524 . S
C2639 C2640 1.415 . S
C2640 H2616 0.950 . S
C2640 C2635 1.363 . S
C2640 C2639 1.415 . S
C2641 H2617 0.951 . S
C2641 C2642 1.366 . S
C2641 C2643 1.388 . S
C2642 C2641 1.366 . S
C2642 C2646 1.385 . S
C2643 H2618 0.951 . S
C2643 C2641 1.388 . S
C2643 C2644 1.366 . S
C2644 C2643 1.366 . S
C2644 C2645 1.414 . S
C2644 C2647 1.499 . S
C2645 H2619 0.950 . S
C2645 C2644 1.414 . S
C2645 C2646 1.374 . S
C2646 H2620 0.950 . S
C2646 C2642 1.385 . S
C2646 C2645 1.374 . S
C2647 C2644 1.499 . S
C2647 C2648 1.373 . S
C2647 C2649 1.389 . S
C2648 H2621 0.950 . S
C2648 C2634 1.377 . S
C2648 C2647 1.373 . S
C2649 C2633 1.377 . S
C2649 C2647 1.389 . S
C2649 C2650 1.524 . S
C2650 C2649 1.524 . S
C2650 C2651 1.397 . S
C2650 C2655 1.363 . S
C2651 H2622 0.950 . S
C2651 C2650 1.397 . S
C2651 C2652 1.334 . S
C2652 H2623 0.950 . S
C2652 C2651 1.334 . S
C2652 C2653 1.287 . S
C2653 C2652 1.287 . S
C2653 C2654 1.524 . S
C2653 H2656 0.999 . S
C2654 H2624 0.950 . S
C2654 C2653 1.524 . S
C2654 C2655 1.415 . S
C2655 H2625 0.950 . S
C2655 C2650 1.363 . S
C2655 C2654 1.415 . S
H2656 C2653 0.999 . S
H2657 C2638 0.913 . S
H2658 C2676 0.951 . S
H2659 C2678 0.951 . S
H2660 C2680 0.950 . S
H2661 C2681 0.950 . S
H2662 C2683 0.950 . S
H2663 C2686 0.950 . S
H2664 C2687 0.950 . S
H2665 C2689 0.950 . S
H2666 C2690 0.950 . S
H2667 C2691 0.951 . S
H2668 C2693 0.951 . S
H2669 C2695 0.950 . S
H2670 C2696 0.950 . S
H2671 C2698 0.950 . S
H2672 C2701 0.950 . S
H2673 C2702 0.950 . S
H2674 C2704 0.950 . S
H2675 C2705 0.950 . S
C2676 H2658 0.951 . S
C2676 C2677 1.366 . S
C2676 C2678 1.388 . S
C2677 C2676 1.366 . S
C2677 C2681 1.385 . S
C2678 H2659 0.951 . S
C2678 C2676 1.388 . S
C2678 C2679 1.366 . S
C2679 C2678 1.366 . S
C2679 C2680 1.414 . S
C2679 C2682 1.499 . S
C2680 H2660 0.950 . S
C2680 C2679 1.414 . S
C2680 C2681 1.374 . S
C2681 H2661 0.950 . S
C2681 C2677 1.385 . S
C2681 C2680 1.374 . S
C2682 C2679 1.499 . S
C2682 C2683 1.373 . S
C2682 C2684 1.389 . S
C2683 H2662 0.950 . S
C2683 C2682 1.373 . S
C2683 C2699 1.377 . S
C2684 C2682 1.389 . S
C2684 C2685 1.524 . S
C2684 C2698 1.377 . S
C2685 C2684 1.524 . S
C2685 C2686 1.397 . S
C2685 C2690 1.363 . S
C2686 H2663 0.950 . S
C2686 C2685 1.397 . S
C2686 C2687 1.334 . S
C2687 H2664 0.950 . S
C2687 C2686 1.334 . S
C2687 C2688 1.287 . S
C2688 C2687 1.287 . S
C2688 C2689 1.524 . S
C2688 H2707 0.913 . S
C2689 H2665 0.950 . S
C2689 C2688 1.524 . S
C2689 C2690 1.415 . S
C2690 H2666 0.950 . S
C2690 C2685 1.363 . S
C2690 C2689 1.415 . S
C2691 H2667 0.951 . S
C2691 C2692 1.366 . S
C2691 C2693 1.388 . S
C2692 C2691 1.366 . S
C2692 C2696 1.385 . S
C2693 H2668 0.951 . S
C2693 C2691 1.388 . S
C2693 C2694 1.366 . S
C2694 C2693 1.366 . S
C2694 C2695 1.414 . S
C2694 C2697 1.499 . S
C2695 H2669 0.950 . S
C2695 C2694 1.414 . S
C2695 C2696 1.374 . S
C2696 H2670 0.950 . S
C2696 C2692 1.385 . S
C2696 C2695 1.374 . S
C2697 C2694 1.499 . S
C2697 C2698 1.373 . S
C2697 C2699 1.389 . S
C2698 H2671 0.950 . S
C2698 C2684 1.377 . S
C2698 C2697 1.373 . S
C2699 C2683 1.377 . S
C2699 C2697 1.389 . S
C2699 C2700 1.524 . S
C2700 C2699 1.524 . S
C2700 C2701 1.397 . S
C2700 C2705 1.363 . S
C2701 H2672 0.950 . S
C2701 C2700 1.397 . S
C2701 C2702 1.334 . S
C2702 H2673 0.950 . S
C2702 C2701 1.334 . S
C2702 C2703 1.287 . S
C2703 C2702 1.287 . S
C2703 C2704 1.524 . S
C2703 H2706 0.999 . S
C2704 H2674 0.950 . S
C2704 C2703 1.524 . S
C2704 C2705 1.415 . S
C2705 H2675 0.950 . S
C2705 C2700 1.363 . S
C2705 C2704 1.415 . S
H2706 C2703 0.999 . S
H2707 C2688 0.913 . S
H2708 C2726 0.951 . S
H2709 C2728 0.951 . S
H2710 C2730 0.950 . S
H2711 C2731 0.950 . S
H2712 C2733 0.950 . S
H2713 C2736 0.950 . S
H2714 C2737 0.950 . S
H2715 C2739 0.950 . S
H2716 C2740 0.950 . S
H2717 C2741 0.951 . S
H2718 C2743 0.951 . S
H2719 C2745 0.950 . S
H2720 C2746 0.950 . S
H2721 C2748 0.950 . S
H2722 C2751 0.950 . S
H2723 C2752 0.950 . S
H2724 C2754 0.950 . S
H2725 C2755 0.950 . S
C2726 H2708 0.951 . S
C2726 C2727 1.366 . S
C2726 C2728 1.388 . S
C2727 C2726 1.366 . S
C2727 C2731 1.385 . S
C2728 H2709 0.951 . S
C2728 C2726 1.388 . S
C2728 C2729 1.366 . S
C2729 C2728 1.366 . S
C2729 C2730 1.414 . S
C2729 C2732 1.499 . S
C2730 H2710 0.950 . S
C2730 C2729 1.414 . S
C2730 C2731 1.374 . S
C2731 H2711 0.950 . S
C2731 C2727 1.385 . S
C2731 C2730 1.374 . S
C2732 C2729 1.499 . S
C2732 C2733 1.373 . S
C2732 C2734 1.389 . S
C2733 H2712 0.950 . S
C2733 C2732 1.373 . S
C2733 C2749 1.377 . S
C2734 C2732 1.389 . S
C2734 C2735 1.524 . S
C2734 C2748 1.377 . S
C2735 C2734 1.524 . S
C2735 C2736 1.397 . S
C2735 C2740 1.363 . S
C2736 H2713 0.950 . S
C2736 C2735 1.397 . S
C2736 C2737 1.334 . S
C2737 H2714 0.950 . S
C2737 C2736 1.334 . S
C2737 C2738 1.287 . S
C2738 C2737 1.287 . S
C2738 C2739 1.524 . S
C2738 H2757 0.913 . S
C2739 H2715 0.950 . S
C2739 C2738 1.524 . S
C2739 C2740 1.415 . S
C2740 H2716 0.950 . S
C2740 C2735 1.363 . S
C2740 C2739 1.415 . S
C2741 H2717 0.951 . S
C2741 C2742 1.366 . S
C2741 C2743 1.388 . S
C2742 C2741 1.366 . S
C2742 C2746 1.385 . S
C2743 H2718 0.951 . S
C2743 C2741 1.388 . S
C2743 C2744 1.366 . S
C2744 C2743 1.366 . S
C2744 C2745 1.414 . S
C2744 C2747 1.499 . S
C2745 H2719 0.950 . S
C2745 C2744 1.414 . S
C2745 C2746 1.374 . S
C2746 H2720 0.950 . S
C2746 C2742 1.385 . S
C2746 C2745 1.374 . S
C2747 C2744 1.499 . S
C2747 C2748 1.373 . S
C2747 C2749 1.389 . S
C2748 H2721 0.950 . S
C2748 C2734 1.377 . S
C2748 C2747 1.373 . S
C2749 C2733 1.377 . S
C2749 C2747 1.389 . S
C2749 C2750 1.524 . S
C2750 C2749 1.524 . S
C2750 C2751 1.397 . S
C2750 C2755 1.363 . S
C2751 H2722 0.950 . S
C2751 C2750 1.397 . S
C2751 C2752 1.334 . S
C2752 H2723 0.950 . S
C2752 C2751 1.334 . S
C2752 C2753 1.287 . S
C2753 C2752 1.287 . S
C2753 C2754 1.524 . S
C2753 H2756 0.999 . S
C2754 H2724 0.950 . S
C2754 C2753 1.524 . S
C2754 C2755 1.415 . S
C2755 H2725 0.950 . S
C2755 C2750 1.363 . S
C2755 C2754 1.415 . S
H2756 C2753 0.999 . S
H2757 C2738 0.913 . S
H2758 C2776 0.951 . S
H2759 C2778 0.951 . S
H2760 C2780 0.950 . S
H2761 C2781 0.950 . S
H2762 C2783 0.950 . S
H2763 C2786 0.950 . S
H2764 C2787 0.950 . S
H2765 C2789 0.950 . S
H2766 C2790 0.950 . S
H2767 C2791 0.951 . S
H2768 C2793 0.951 . S
H2769 C2795 0.950 . S
H2770 C2796 0.950 . S
H2771 C2798 0.950 . S
H2772 C2801 0.950 . S
H2773 C2802 0.950 . S
H2774 C2804 0.950 . S
H2775 C2805 0.950 . S
C2776 H2758 0.951 . S
C2776 C2777 1.366 . S
C2776 C2778 1.388 . S
C2777 C2776 1.366 . S
C2777 C2781 1.385 . S
C2778 H2759 0.951 . S
C2778 C2776 1.388 . S
C2778 C2779 1.366 . S
C2779 C2778 1.366 . S
C2779 C2780 1.414 . S
C2779 C2782 1.499 . S
C2780 H2760 0.950 . S
C2780 C2779 1.414 . S
C2780 C2781 1.374 . S
C2781 H2761 0.950 . S
C2781 C2777 1.385 . S
C2781 C2780 1.374 . S
C2782 C2779 1.499 . S
C2782 C2783 1.373 . S
C2782 C2784 1.389 . S
C2783 H2762 0.950 . S
C2783 C2782 1.373 . S
C2783 C2799 1.377 . S
C2784 C2782 1.389 . S
C2784 C2785 1.524 . S
C2784 C2798 1.377 . S
C2785 C2784 1.524 . S
C2785 C2786 1.397 . S
C2785 C2790 1.363 . S
C2786 H2763 0.950 . S
C2786 C2785 1.397 . S
C2786 C2787 1.334 . S
C2787 H2764 0.950 . S
C2787 C2786 1.334 . S
C2787 C2788 1.287 . S
C2788 C2787 1.287 . S
C2788 C2789 1.524 . S
C2788 H2807 0.913 . S
C2789 H2765 0.950 . S
C2789 C2788 1.524 . S
C2789 C2790 1.415 . S
C2790 H2766 0.950 . S
C2790 C2785 1.363 . S
C2790 C2789 1.415 . S
C2791 H2767 0.951 . S
C2791 C2792 1.366 . S
C2791 C2793 1.388 . S
C2792 C2791 1.366 . S
C2792 C2796 1.385 . S
C2793 H2768 0.951 . S
C2793 C2791 1.388 . S
C2793 C2794 1.366 . S
C2794 C2793 1.366 . S
C2794 C2795 1.414 . S
C2794 C2797 1.499 . S
C2795 H2769 0.950 . S
C2795 C2794 1.414 . S
C2795 C2796 1.374 . S
C2796 H2770 0.950 . S
C2796 C2792 1.385 . S
C2796 C2795 1.374 . S
C2797 C2794 1.499 . S
C2797 C2798 1.373 . S
C2797 C2799 1.389 . S
C2798 H2771 0.950 . S
C2798 C2784 1.377 . S
C2798 C2797 1.373 . S
C2799 C2783 1.377 . S
C2799 C2797 1.389 . S
C2799 C2800 1.524 . S
C2800 C2799 1.524 . S
C2800 C2801 1.397 . S
C2800 C2805 1.363 . S
C2801 H2772 0.950 . S
C2801 C2800 1.397 . S
C2801 C2802 1.334 . S
C2802 H2773 0.950 . S
C2802 C2801 1.334 . S
C2802 C2803 1.287 . S
C2803 C2802 1.287 . S
C2803 C2804 1.524 . S
C2803 H2806 0.999 . S
C2804 H2774 0.950 . S
C2804 C2803 1.524 . S
C2804 C2805 1.415 . S
C2805 H2775 0.950 . S
C2805 C2800 1.363 . S
C2805 C2804 1.415 . S
H2806 C2803 0.999 . S
H2807 C2788 0.913 . S
H2808 C2826 0.951 . S
H2809 C2828 0.951 . S
H2810 C2830 0.950 . S
H2811 C2831 0.950 . S
H2812 C2833 0.950 . S
H2813 C2836 0.950 . S
H2814 C2837 0.950 . S
H2815 C2839 0.950 . S
H2816 C2840 0.950 . S
H2817 C2841 0.951 . S
H2818 C2843 0.951 . S
H2819 C2845 0.950 . S
H2820 C2846 0.950 . S
H2821 C2848 0.950 . S
H2822 C2851 0.950 . S
H2823 C2852 0.950 . S
H2824 C2854 0.950 . S
H2825 C2855 0.950 . S
C2826 H2808 0.951 . S
C2826 C2827 1.366 . S
C2826 C2828 1.388 . S
C2827 C2826 1.366 . S
C2827 C2831 1.385 . S
C2828 H2809 0.951 . S
C2828 C2826 1.388 . S
C2828 C2829 1.366 . S
C2829 C2828 1.366 . S
C2829 C2830 1.414 . S
C2829 C2832 1.499 . S
C2830 H2810 0.950 . S
C2830 C2829 1.414 . S
C2830 C2831 1.374 . S
C2831 H2811 0.950 . S
C2831 C2827 1.385 . S
C2831 C2830 1.374 . S
C2832 C2829 1.499 . S
C2832 C2833 1.373 . S
C2832 C2834 1.389 . S
C2833 H2812 0.950 . S
C2833 C2832 1.373 . S
C2833 C2849 1.377 . S
C2834 C2832 1.389 . S
C2834 C2835 1.524 . S
C2834 C2848 1.377 . S
C2835 C2834 1.524 . S
C2835 C2836 1.397 . S
C2835 C2840 1.363 . S
C2836 H2813 0.950 . S
C2836 C2835 1.397 . S
C2836 C2837 1.334 . S
C2837 H2814 0.950 . S
C2837 C2836 1.334 . S
C2837 C2838 1.287 . S
C2838 C2837 1.287 . S
C2838 C2839 1.524 . S
C2838 H2857 0.913 . S
C2839 H2815 0.950 . S
C2839 C2838 1.524 . S
C2839 C2840 1.415 . S
C2840 H2816 0.950 . S
C2840 C2835 1.363 . S
C2840 C2839 1.415 . S
C2841 H2817 0.951 . S
C2841 C2842 1.366 . S
C2841 C2843 1.388 . S
C2842 C2841 1.366 . S
C2842 C2846 1.385 . S
C2843 H2818 0.951 . S
C2843 C2841 1.388 . S
C2843 C2844 1.366 . S
C2844 C2843 1.366 . S
C2844 C2845 1.414 . S
C2844 C2847 1.499 . S
C2845 H2819 0.950 . S
C2845 C2844 1.414 . S
C2845 C2846 1.374 . S
C2846 H2820 0.950 . S
C2846 C2842 1.385 . S
C2846 C2845 1.374 . S
C2847 C2844 1.499 . S
C2847 C2848 1.373 . S
C2847 C2849 1.389 . S
C2848 H2821 0.950 . S
C2848 C2834 1.377 . S
C2848 C2847 1.373 . S
C2849 C2833 1.377 . S
C2849 C2847 1.389 . S
C2849 C2850 1.524 . S
C2850 C2849 1.524 . S
C2850 C2851 1.397 . S
C2850 C2855 1.363 . S
C2851 H2822 0.950 . S
C2851 C2850 1.397 . S
C2851 C2852 1.334 . S
C2852 H2823 0.950 . S
C2852 C2851 1.334 . S
C2852 C2853 1.287 . S
C2853 C2852 1.287 . S
C2853 C2854 1.524 . S
C2853 H2856 0.999 . S
C2854 H2824 0.950 . S
C2854 C2853 1.524 . S
C2854 C2855 1.415 . S
C2855 H2825 0.950 . S
C2855 C2850 1.363 . S
C2855 C2854 1.415 . S
H2856 C2853 0.999 . S
H2857 C2838 0.913 . S
H2858 C2876 0.951 . S
H2859 C2878 0.951 . S
H2860 C2880 0.950 . S
H2861 C2881 0.950 . S
H2862 C2883 0.950 . S
H2863 C2886 0.950 . S
H2864 C2887 0.950 . S
H2865 C2889 0.950 . S
H2866 C2890 0.950 . S
H2867 C2891 0.951 . S
H2868 C2893 0.951 . S
H2869 C2895 0.950 . S
H2870 C2896 0.950 . S
H2871 C2898 0.950 . S
H2872 C2901 0.950 . S
H2873 C2902 0.950 . S
H2874 C2904 0.950 . S
H2875 C2905 0.950 . S
C2876 H2858 0.951 . S
C2876 C2877 1.366 . S
C2876 C2878 1.388 . S
C2877 C2876 1.366 . S
C2877 C2881 1.385 . S
C2878 H2859 0.951 . S
C2878 C2876 1.388 . S
C2878 C2879 1.366 . S
C2879 C2878 1.366 . S
C2879 C2880 1.414 . S
C2879 C2882 1.499 . S
C2880 H2860 0.950 . S
C2880 C2879 1.414 . S
C2880 C2881 1.374 . S
C2881 H2861 0.950 . S
C2881 C2877 1.385 . S
C2881 C2880 1.374 . S
C2882 C2879 1.499 . S
C2882 C2883 1.373 . S
C2882 C2884 1.389 . S
C2883 H2862 0.950 . S
C2883 C2882 1.373 . S
C2883 C2899 1.377 . S
C2884 C2882 1.389 . S
C2884 C2885 1.524 . S
C2884 C2898 1.377 . S
C2885 C2884 1.524 . S
C2885 C2886 1.397 . S
C2885 C2890 1.363 . S
C2886 H2863 0.950 . S
C2886 C2885 1.397 . S
C2886 C2887 1.334 . S
C2887 H2864 0.950 . S
C2887 C2886 1.334 . S
C2887 C2888 1.287 . S
C2888 C2887 1.287 . S
C2888 C2889 1.524 . S
C2888 H2907 0.913 . S
C2889 H2865 0.950 . S
C2889 C2888 1.524 . S
C2889 C2890 1.415 . S
C2890 H2866 0.950 . S
C2890 C2885 1.363 . S
C2890 C2889 1.415 . S
C2891 H2867 0.951 . S
C2891 C2892 1.366 . S
C2891 C2893 1.388 . S
C2892 C2891 1.366 . S
C2892 C2896 1.385 . S
C2893 H2868 0.951 . S
C2893 C2891 1.388 . S
C2893 C2894 1.366 . S
C2894 C2893 1.366 . S
C2894 C2895 1.414 . S
C2894 C2897 1.499 . S
C2895 H2869 0.950 . S
C2895 C2894 1.414 . S
C2895 C2896 1.374 . S
C2896 H2870 0.950 . S
C2896 C2892 1.385 . S
C2896 C2895 1.374 . S
C2897 C2894 1.499 . S
C2897 C2898 1.373 . S
C2897 C2899 1.389 . S
C2898 H2871 0.950 . S
C2898 C2884 1.377 . S
C2898 C2897 1.373 . S
C2899 C2883 1.377 . S
C2899 C2897 1.389 . S
C2899 C2900 1.524 . S
C2900 C2899 1.524 . S
C2900 C2901 1.397 . S
C2900 C2905 1.363 . S
C2901 H2872 0.950 . S
C2901 C2900 1.397 . S
C2901 C2902 1.334 . S
C2902 H2873 0.950 . S
C2902 C2901 1.334 . S
C2902 C2903 1.287 . S
C2903 C2902 1.287 . S
C2903 C2904 1.524 . S
C2903 H2906 0.999 . S
C2904 H2874 0.950 . S
C2904 C2903 1.524 . S
C2904 C2905 1.415 . S
C2905 H2875 0.950 . S
C2905 C2900 1.363 . S
C2905 C2904 1.415 . S
H2906 C2903 0.999 . S
H2907 C2888 0.913 . S
H2908 C2926 0.951 . S
H2909 C2928 0.951 . S
H2910 C2930 0.950 . S
H2911 C2931 0.950 . S
H2912 C2933 0.950 . S
H2913 C2936 0.950 . S
H2914 C2937 0.950 . S
H2915 C2939 0.950 . S
H2916 C2940 0.950 . S
H2917 C2941 0.951 . S
H2918 C2943 0.951 . S
H2919 C2945 0.950 . S
H2920 C2946 0.950 . S
H2921 C2948 0.950 . S
H2922 C2951 0.950 . S
H2923 C2952 0.950 . S
H2924 C2954 0.950 . S
H2925 C2955 0.950 . S
C2926 H2908 0.951 . S
C2926 C2927 1.366 . S
C2926 C2928 1.388 . S
C2927 C2926 1.366 . S
C2927 C2931 1.385 . S
C2928 H2909 0.951 . S
C2928 C2926 1.388 . S
C2928 C2929 1.366 . S
C2929 C2928 1.366 . S
C2929 C2930 1.414 . S
C2929 C2932 1.499 . S
C2930 H2910 0.950 . S
C2930 C2929 1.414 . S
C2930 C2931 1.374 . S
C2931 H2911 0.950 . S
C2931 C2927 1.385 . S
C2931 C2930 1.374 . S
C2932 C2929 1.499 . S
C2932 C2933 1.373 . S
C2932 C2934 1.389 . S
C2933 H2912 0.950 . S
C2933 C2932 1.373 . S
C2933 C2949 1.377 . S
C2934 C2932 1.389 . S
C2934 C2935 1.524 . S
C2934 C2948 1.377 . S
C2935 C2934 1.524 . S
C2935 C2936 1.397 . S
C2935 C2940 1.363 . S
C2936 H2913 0.950 . S
C2936 C2935 1.397 . S
C2936 C2937 1.334 . S
C2937 H2914 0.950 . S
C2937 C2936 1.334 . S
C2937 C2938 1.287 . S
C2938 C2937 1.287 . S
C2938 C2939 1.524 . S
C2938 H2957 0.913 . S
C2939 H2915 0.950 . S
C2939 C2938 1.524 . S
C2939 C2940 1.415 . S
C2940 H2916 0.950 . S
C2940 C2935 1.363 . S
C2940 C2939 1.415 . S
C2941 H2917 0.951 . S
C2941 C2942 1.366 . S
C2941 C2943 1.388 . S
C2942 C2941 1.366 . S
C2942 C2946 1.385 . S
C2943 H2918 0.951 . S
C2943 C2941 1.388 . S
C2943 C2944 1.366 . S
C2944 C2943 1.366 . S
C2944 C2945 1.414 . S
C2944 C2947 1.499 . S
C2945 H2919 0.950 . S
C2945 C2944 1.414 . S
C2945 C2946 1.374 . S
C2946 H2920 0.950 . S
C2946 C2942 1.385 . S
C2946 C2945 1.374 . S
C2947 C2944 1.499 . S
C2947 C2948 1.373 . S
C2947 C2949 1.389 . S
C2948 H2921 0.950 . S
C2948 C2934 1.377 . S
C2948 C2947 1.373 . S
C2949 C2933 1.377 . S
C2949 C2947 1.389 . S
C2949 C2950 1.524 . S
C2950 C2949 1.524 . S
C2950 C2951 1.397 . S
C2950 C2955 1.363 . S
C2951 H2922 0.950 . S
C2951 C2950 1.397 . S
C2951 C2952 1.334 . S
C2952 H2923 0.950 . S
C2952 C2951 1.334 . S
C2952 C2953 1.287 . S
C2953 C2952 1.287 . S
C2953 C2954 1.524 . S
C2953 H2956 0.999 . S
C2954 H2924 0.950 . S
C2954 C2953 1.524 . S
C2954 C2955 1.415 . S
C2955 H2925 0.950 . S
C2955 C2950 1.363 . S
C2955 C2954 1.415 . S
H2956 C2953 0.999 . S
H2957 C2938 0.913 . S
H2958 C2976 0.951 . S
H2959 C2978 0.951 . S
H2960 C2980 0.950 . S
H2961 C2981 0.950 . S
H2962 C2983 0.950 . S
H2963 C2986 0.950 . S
H2964 C2987 0.950 . S
H2965 C2989 0.950 . S
H2966 C2990 0.950 . S
H2967 C2991 0.951 . S
H2968 C2993 0.951 . S
H2969 C2995 0.950 . S
H2970 C2996 0.950 . S
H2971 C2998 0.950 . S
H2972 C3001 0.950 . S
H2973 C3002 0.950 . S
H2974 C3004 0.950 . S
H2975 C3005 0.950 . S
C2976 H2958 0.951 . S
C2976 C2977 1.366 . S
C2976 C2978 1.388 . S
C2977 C2976 1.366 . S
C2977 C2981 1.385 . S
C2978 H2959 0.951 . S
C2978 C2976 1.388 . S
C2978 C2979 1.366 . S
C2979 C2978 1.366 . S
C2979 C2980 1.414 . S
C2979 C2982 1.499 . S
C2980 H2960 0.950 . S
C2980 C2979 1.414 . S
C2980 C2981 1.374 . S
C2981 H2961 0.950 . S
C2981 C2977 1.385 . S
C2981 C2980 1.374 . S
C2982 C2979 1.499 . S
C2982 C2983 1.373 . S
C2982 C2984 1.389 . S
C2983 H2962 0.950 . S
C2983 C2982 1.373 . S
C2983 C2999 1.377 . S
C2984 C2982 1.389 . S
C2984 C2985 1.524 . S
C2984 C2998 1.377 . S
C2985 C2984 1.524 . S
C2985 C2986 1.397 . S
C2985 C2990 1.363 . S
C2986 H2963 0.950 . S
C2986 C2985 1.397 . S
C2986 C2987 1.334 . S
C2987 H2964 0.950 . S
C2987 C2986 1.334 . S
C2987 C2988 1.287 . S
C2988 C2987 1.287 . S
C2988 C2989 1.524 . S
C2988 H3007 0.913 . S
C2989 H2965 0.950 . S
C2989 C2988 1.524 . S
C2989 C2990 1.415 . S
C2990 H2966 0.950 . S
C2990 C2985 1.363 . S
C2990 C2989 1.415 . S
C2991 H2967 0.951 . S
C2991 C2992 1.366 . S
C2991 C2993 1.388 . S
C2992 C2991 1.366 . S
C2992 C2996 1.385 . S
C2993 H2968 0.951 . S
C2993 C2991 1.388 . S
C2993 C2994 1.366 . S
C2994 C2993 1.366 . S
C2994 C2995 1.414 . S
C2994 C2997 1.499 . S
C2995 H2969 0.950 . S
C2995 C2994 1.414 . S
C2995 C2996 1.374 . S
C2996 H2970 0.950 . S
C2996 C2992 1.385 . S
C2996 C2995 1.374 . S
C2997 C2994 1.499 . S
C2997 C2998 1.373 . S
C2997 C2999 1.389 . S
C2998 H2971 0.950 . S
C2998 C2984 1.377 . S
C2998 C2997 1.373 . S
C2999 C2983 1.377 . S
C2999 C2997 1.389 . S
C2999 C3000 1.524 . S
C3000 C2999 1.524 . S
C3000 C3001 1.397 . S
C3000 C3005 1.363 . S
C3001 H2972 0.950 . S
C3001 C3000 1.397 . S
C3001 C3002 1.334 . S
C3002 H2973 0.950 . S
C3002 C3001 1.334 . S
C3002 C3003 1.287 . S
C3003 C3002 1.287 . S
C3003 C3004 1.524 . S
C3003 H3006 0.999 . S
C3004 H2974 0.950 . S
C3004 C3003 1.524 . S
C3004 C3005 1.415 . S
C3005 H2975 0.950 . S
C3005 C3000 1.363 . S
C3005 C3004 1.415 . S
H3006 C3003 0.999 . S
H3007 C2988 0.913 . S
H3008 C3026 0.951 . S
H3009 C3028 0.951 . S
H3010 C3030 0.950 . S
H3011 C3031 0.950 . S
H3012 C3033 0.912 1_554 S
H3013 C3036 0.950 . S
H3014 C3037 0.950 . S
H3015 C3039 0.950 . S
H3016 C3040 0.950 . S
H3017 C3041 0.952 . S
H3018 C3043 0.947 1_554 S
H3019 C3045 0.950 . S
H3020 C3046 0.950 . S
H3021 C3048 0.950 . S
H3022 C3051 0.950 . S
H3023 C3052 0.950 . S
H3024 C3054 0.950 . S
H3025 C3055 0.950 . S
C3026 H3008 0.951 . S
C3026 C3027 1.366 . S
C3026 C3028 1.388 . S
C3027 C3026 1.366 . S
C3027 C3031 1.385 . S
C3028 H3009 0.951 . S
C3028 C3026 1.388 . S
C3028 C3029 1.366 . S
C3029 C3028 1.366 . S
C3029 C3030 1.414 . S
C3029 C3032 1.499 . S
C3030 H3010 0.950 . S
C3030 C3029 1.414 . S
C3030 C3031 1.374 . S
C3031 H3011 0.950 . S
C3031 C3027 1.385 . S
C3031 C3030 1.374 . S
C3032 C3029 1.499 . S
C3032 C3033 1.421 . S
C3032 C3034 1.389 . S
C3033 H3012 0.912 1_556 S
C3033 C3032 1.421 . S
C3033 C3049 1.370 1_556 S
C3034 C3032 1.389 . S
C3034 C3035 1.524 . S
C3034 C3048 1.377 . S
C3035 C3034 1.524 . S
C3035 C3036 1.397 . S
C3035 C3040 1.363 . S
C3036 H3013 0.950 . S
C3036 C3035 1.397 . S
C3036 C3037 1.334 . S
C3037 H3014 0.950 . S
C3037 C3036 1.334 . S
C3037 C3038 1.287 . S
C3038 C3037 1.287 . S
C3038 C3039 1.524 . S
C3038 H3057 0.913 . S
C3039 H3015 0.950 . S
C3039 C3038 1.524 . S
C3039 C3040 1.415 . S
C3040 H3016 0.950 . S
C3040 C3035 1.363 . S
C3040 C3039 1.415 . S
C3041 H3017 0.952 . S
C3041 C3042 1.365 1_554 S
C3041 C3043 1.387 1_554 S
C3042 C3041 1.365 1_556 S
C3042 C3046 1.385 . S
C3043 H3018 0.947 1_556 S
C3043 C3041 1.387 1_556 S
C3043 C3044 1.366 . S
C3044 C3043 1.366 . S
C3044 C3045 1.414 . S
C3044 C3047 1.499 . S
C3045 H3019 0.950 . S
C3045 C3044 1.414 . S
C3045 C3046 1.374 . S
C3046 H3020 0.950 . S
C3046 C3042 1.385 . S
C3046 C3045 1.374 . S
C3047 C3044 1.499 . S
C3047 C3048 1.373 . S
C3047 C3049 1.389 1_556 S
C3048 H3021 0.950 . S
C3048 C3034 1.377 . S
C3048 C3047 1.373 . S
C3049 C3033 1.370 1_554 S
C3049 C3047 1.389 1_554 S
C3049 C3050 1.524 . S
C3050 C3049 1.524 . S
C3050 C3051 1.397 . S
C3050 C3055 1.363 . S
C3051 H3022 0.950 . S
C3051 C3050 1.397 . S
C3051 C3052 1.334 . S
C3052 H3023 0.950 . S
C3052 C3051 1.334 . S
C3052 C3053 1.287 . S
C3053 C3052 1.287 . S
C3053 C3054 1.524 . S
C3053 H3056 0.999 . S
C3054 H3024 0.950 . S
C3054 C3053 1.524 . S
C3054 C3055 1.415 . S
C3055 H3025 0.950 . S
C3055 C3050 1.363 . S
C3055 C3054 1.415 . S
H3056 C3053 0.999 . S
H3057 C3038 0.913 . S
H3058 C3076 0.951 . S
H3059 C3078 0.951 . S
H3060 C3080 0.950 . S
H3061 C3081 0.950 . S
H3062 C3083 0.950 . S
H3063 C3086 0.950 . S
H3064 C3087 0.950 . S
H3065 C3089 0.950 . S
H3066 C3090 0.950 . S
H3067 C3091 0.951 . S
H3068 C3093 0.951 . S
H3069 C3095 0.950 . S
H3070 C3096 0.950 . S
H3071 C3098 0.950 . S
H3072 C3101 0.950 . S
H3073 C3102 0.950 . S
H3074 C3104 0.950 . S
H3075 C3105 0.950 . S
C3076 H3058 0.951 . S
C3076 C3077 1.366 . S
C3076 C3078 1.388 . S
C3077 C3076 1.366 . S
C3077 C3081 1.385 . S
C3078 H3059 0.951 . S
C3078 C3076 1.388 . S
C3078 C3079 1.366 . S
C3079 C3078 1.366 . S
C3079 C3080 1.414 . S
C3079 C3082 1.499 . S
C3080 H3060 0.950 . S
C3080 C3079 1.414 . S
C3080 C3081 1.374 . S
C3081 H3061 0.950 . S
C3081 C3077 1.385 . S
C3081 C3080 1.374 . S
C3082 C3079 1.499 . S
C3082 C3083 1.373 . S
C3082 C3084 1.389 . S
C3083 H3062 0.950 . S
C3083 C3082 1.373 . S
C3083 C3099 1.377 . S
C3084 C3082 1.389 . S
C3084 C3085 1.524 . S
C3084 C3098 1.377 . S
C3085 C3084 1.524 . S
C3085 C3086 1.397 . S
C3085 C3090 1.363 . S
C3086 H3063 0.950 . S
C3086 C3085 1.397 . S
C3086 C3087 1.334 . S
C3087 H3064 0.950 . S
C3087 C3086 1.334 . S
C3087 C3088 1.287 . S
C3088 C3087 1.287 . S
C3088 C3089 1.524 . S
C3088 H3107 0.913 . S
C3089 H3065 0.950 . S
C3089 C3088 1.524 . S
C3089 C3090 1.415 . S
C3090 H3066 0.950 . S
C3090 C3085 1.363 . S
C3090 C3089 1.415 . S
C3091 H3067 0.951 . S
C3091 C3092 1.366 . S
C3091 C3093 1.388 . S
C3092 C3091 1.366 . S
C3092 C3096 1.385 . S
C3093 H3068 0.951 . S
C3093 C3091 1.388 . S
C3093 C3094 1.366 . S
C3094 C3093 1.366 . S
C3094 C3095 1.414 . S
C3094 C3097 1.499 . S
C3095 H3069 0.950 . S
C3095 C3094 1.414 . S
C3095 C3096 1.374 . S
C3096 H3070 0.950 . S
C3096 C3092 1.385 . S
C3096 C3095 1.374 . S
C3097 C3094 1.499 . S
C3097 C3098 1.373 . S
C3097 C3099 1.389 . S
C3098 H3071 0.950 . S
C3098 C3084 1.377 . S
C3098 C3097 1.373 . S
C3099 C3083 1.377 . S
C3099 C3097 1.389 . S
C3099 C3100 1.524 . S
C3100 C3099 1.524 . S
C3100 C3101 1.397 . S
C3100 C3105 1.363 . S
C3101 H3072 0.950 . S
C3101 C3100 1.397 . S
C3101 C3102 1.334 . S
C3102 H3073 0.950 . S
C3102 C3101 1.334 . S
C3102 C3103 1.287 . S
C3103 C3102 1.287 . S
C3103 C3104 1.524 . S
C3103 H3106 0.999 . S
C3104 H3074 0.950 . S
C3104 C3103 1.524 . S
C3104 C3105 1.415 . S
C3105 H3075 0.950 . S
C3105 C3100 1.363 . S
C3105 C3104 1.415 . S
H3106 C3103 0.999 . S
H3107 C3088 0.913 . S
H3108 C3126 0.951 . S
H3109 C3128 0.951 . S
H3110 C3130 0.950 . S
H3111 C3131 0.950 . S
H3112 C3133 0.950 . S
H3113 C3136 0.950 . S
H3114 C3137 0.950 . S
H3115 C3139 0.950 . S
H3116 C3140 0.950 . S
H3117 C3141 0.951 . S
H3118 C3143 0.951 . S
H3119 C3145 0.950 1_556 S
H3120 C3146 0.987 . S
H3121 C3148 0.950 1_556 S
H3122 C3151 0.950 . S
H3123 C3152 0.950 . S
H3124 C3154 0.950 . S
H3125 C3155 0.950 . S
C3126 H3108 0.951 . S
C3126 C3127 1.366 . S
C3126 C3128 1.388 . S
C3127 C3126 1.366 . S
C3127 C3131 1.385 . S
C3128 H3109 0.951 . S
C3128 C3126 1.388 . S
C3128 C3129 1.366 . S
C3129 C3128 1.366 . S
C3129 C3130 1.414 . S
C3129 C3132 1.499 . S
C3130 H3110 0.950 . S
C3130 C3129 1.414 . S
C3130 C3131 1.374 . S
C3131 H3111 0.950 . S
C3131 C3127 1.385 . S
C3131 C3130 1.374 . S
C3132 C3129 1.499 . S
C3132 C3133 1.373 . S
C3132 C3134 1.389 . S
C3133 H3112 0.950 . S
C3133 C3132 1.373 . S
C3133 C3149 1.377 . S
C3134 C3132 1.389 . S
C3134 C3135 1.524 1_554 S
C3134 C3148 1.377 . S
C3135 C3134 1.524 1_556 S
C3135 C3136 1.397 1_556 S
C3135 C3140 1.363 . S
C3136 H3113 0.950 . S
C3136 C3135 1.397 1_554 S
C3136 C3137 1.334 1_554 S
C3137 H3114 0.950 . S
C3137 C3136 1.334 1_556 S
C3137 C3138 1.287 . S
C3138 C3137 1.287 . S
C3138 C3139 1.524 . S
C3138 H3157 0.913 . S
C3139 H3115 0.950 . S
C3139 C3138 1.524 . S
C3139 C3140 1.415 . S
C3140 H3116 0.950 . S
C3140 C3135 1.363 . S
C3140 C3139 1.415 . S
C3141 H3117 0.951 . S
C3141 C3142 1.366 . S
C3141 C3143 1.388 . S
C3142 C3141 1.366 . S
C3142 C3146 1.353 1_554 S
C3143 H3118 0.951 . S
C3143 C3141 1.388 . S
C3143 C3144 1.366 . S
C3144 C3143 1.366 . S
C3144 C3145 1.414 . S
C3144 C3147 1.499 . S
C3145 H3119 0.950 1_554 S
C3145 C3144 1.414 . S
C3145 C3146 1.369 1_554 S
C3146 H3120 0.987 . S
C3146 C3142 1.353 1_556 S
C3146 C3145 1.369 1_556 S
C3147 C3144 1.499 . S
C3147 C3148 1.373 . S
C3147 C3149 1.389 . S
C3148 H3121 0.950 1_554 S
C3148 C3134 1.377 . S
C3148 C3147 1.373 . S
C3149 C3133 1.377 . S
C3149 C3147 1.389 . S
C3149 C3150 1.524 . S
C3150 C3149 1.524 . S
C3150 C3151 1.397 . S
C3150 C3155 1.363 . S
C3151 H3122 0.950 . S
C3151 C3150 1.397 . S
C3151 C3152 1.334 . S
C3152 H3123 0.950 . S
C3152 C3151 1.334 . S
C3152 C3153 1.287 . S
C3153 C3152 1.287 . S
C3153 C3154 1.524 . S
C3153 H3156 0.999 . S
C3154 H3124 0.950 . S
C3154 C3153 1.524 . S
C3154 C3155 1.415 . S
C3155 H3125 0.950 . S
C3155 C3150 1.363 . S
C3155 C3154 1.415 . S
H3156 C3153 0.999 . S
H3157 C3138 0.913 . S
H3158 C3176 0.951 . S
H3159 C3178 0.951 . S
H3160 C3180 0.950 . S
H3161 C3181 0.950 . S
H3162 C3183 0.950 . S
H3163 C3186 0.950 . S
H3164 C3187 0.950 . S
H3165 C3189 0.950 . S
H3166 C3190 0.950 . S
H3167 C3191 0.951 . S
H3168 C3193 0.951 . S
H3169 C3195 0.950 . S
H3170 C3196 0.950 . S
H3171 C3198 0.950 1_556 S
H3172 C3201 0.950 . S
H3173 C3202 0.950 . S
H3174 C3204 0.950 . S
H3175 C3205 0.950 . S
C3176 H3158 0.951 . S
C3176 C3177 1.366 . S
C3176 C3178 1.388 . S
C3177 C3176 1.366 . S
C3177 C3181 1.385 . S
C3178 H3159 0.951 . S
C3178 C3176 1.388 . S
C3178 C3179 1.366 . S
C3179 C3178 1.366 . S
C3179 C3180 1.414 . S
C3179 C3182 1.499 . S
C3180 H3160 0.950 . S
C3180 C3179 1.414 . S
C3180 C3181 1.374 . S
C3181 H3161 0.950 . S
C3181 C3177 1.385 . S
C3181 C3180 1.374 . S
C3182 C3179 1.499 . S
C3182 C3183 1.373 . S
C3182 C3184 1.389 . S
C3183 H3162 0.950 . S
C3183 C3182 1.373 . S
C3183 C3199 1.377 . S
C3184 C3182 1.389 . S
C3184 C3185 1.524 1_554 S
C3184 C3198 1.377 . S
C3185 C3184 1.524 1_556 S
C3185 C3186 1.397 . S
C3185 C3190 1.363 . S
C3186 H3163 0.950 . S
C3186 C3185 1.397 . S
C3186 C3187 1.334 . S
C3187 H3164 0.950 . S
C3187 C3186 1.334 . S
C3187 C3188 1.287 . S
C3188 C3187 1.287 . S
C3188 C3189 1.524 . S
C3188 H3207 0.913 . S
C3189 H3165 0.950 . S
C3189 C3188 1.524 . S
C3189 C3190 1.415 . S
C3190 H3166 0.950 . S
C3190 C3185 1.363 . S
C3190 C3189 1.415 . S
C3191 H3167 0.951 . S
C3191 C3192 1.366 . S
C3191 C3193 1.388 . S
C3192 C3191 1.366 . S
C3192 C3196 1.385 . S
C3193 H3168 0.951 . S
C3193 C3191 1.388 . S
C3193 C3194 1.366 . S
C3194 C3193 1.366 . S
C3194 C3195 1.414 . S
C3194 C3197 1.499 . S
C3195 H3169 0.950 . S
C3195 C3194 1.414 . S
C3195 C3196 1.374 . S
C3196 H3170 0.950 . S
C3196 C3192 1.385 . S
C3196 C3195 1.374 . S
C3197 C3194 1.499 . S
C3197 C3198 1.373 . S
C3197 C3199 1.389 . S
C3198 H3171 0.950 1_554 S
C3198 C3184 1.377 . S
C3198 C3197 1.373 . S
C3199 C3183 1.377 . S
C3199 C3197 1.389 . S
C3199 C3200 1.524 . S
C3200 C3199 1.524 . S
C3200 C3201 1.397 . S
C3200 C3205 1.363 . S
C3201 H3172 0.950 . S
C3201 C3200 1.397 . S
C3201 C3202 1.334 . S
C3202 H3173 0.950 . S
C3202 C3201 1.334 . S
C3202 C3203 1.287 . S
C3203 C3202 1.287 . S
C3203 C3204 1.524 . S
C3203 H3206 0.999 . S
C3204 H3174 0.950 . S
C3204 C3203 1.524 . S
C3204 C3205 1.415 . S
C3205 H3175 0.950 . S
C3205 C3200 1.363 . S
C3205 C3204 1.415 . S
H3206 C3203 0.999 . S
H3207 C3188 0.913 . S
C842 C651 1.415 . S
C827 C202 1.418 . S
C892 C659 1.301 . S
C877 C261 1.567 . S
C927 C282 1.427 . S
C942 C679 1.410 . S
C992 C693 1.507 . S
C977 C162 1.486 1_655 S
C1042 C708 1.516 . S
C1027 C402 1.502 . S
C1092 C722 1.521 . S
C1077 C482 1.514 . S
C1127 C442 1.576 . S
C1142 C736 1.588 . S
C1192 C742 1.453 . S
C1177 C381 1.489 . S
C1227 C461 1.568 . S
C1242 C756 1.537 . S
C1292 C777 1.517 . S
C1277 C362 1.529 . S
C1327 C415 1.408 . S
C1342 C757 1.185 . S
C1392 C778 1.567 . S
C1377 C495 1.565 . S
C1427 C301 1.521 . S
C1442 C785 1.265 . S
C1477 C175 1.537 . S
C1492 C791 1.517 . S
C1527 C215 1.459 . S
C1542 C784 1.416 . S
C1577 C242 1.439 . S
C1592 C792 1.447 . S
C1627 C141 1.528 . S
C1642 C686 1.499 . S
C1677 C581 1.517 . S
C1692 C687 1.283 . S
C1742 C644 1.471 1_556 S
C1727 C615 1.515 . S
C1792 C665 1.415 . S
C1777 C335 1.439 . S
C1827 C181 1.544 . S
C1842 C700 1.515 . S
C1892 C750 1.517 . S
C1877 C455 1.517 . S
C1942 C701 1.158 . S
C1927 C375 1.380 . S
C1992 C729 1.349 . S
C1977 C501 1.628 . S
C2042 C735 1.416 . S
C2027 C562 1.418 . S
C2077 C621 1.567 . S
C2092 C743 1.301 . S
C2127 C322 1.427 . S
C2142 C707 1.411 . S
C2192 C721 1.507 . S
C2177 C522 1.518 . S
C2227 C122 1.502 . S
C2242 C680 1.516 . S
C2292 C694 1.521 . S
C2277 C2 1.515 . S
C2342 C652 1.588 . S
C2327 C42 1.576 . S
C2392 C658 1.453 . S
C2377 C101 1.489 . S
C2427 C61 1.568 . S
C2442 C770 1.537 . S
C2477 C82 1.529 . S
C2492 C763 1.517 . S
C2527 C135 1.408 . S
C2542 C771 1.185 . S
C2577 C15 1.565 . S
C2592 C764 1.567 . S
C2642 C799 1.263 . S
C2627 C341 1.521 . S
C2692 C805 1.517 . S
C2677 C535 1.537 . S
C2742 C798 1.418 . S
C2727 C575 1.458 . S
C2777 C602 1.440 . S
C2792 C806 1.447 . S
C2827 C421 1.528 . S
C2842 C714 1.499 . S
C2892 C715 1.283 . S
C2877 C221 1.516 . S
C2942 C728 1.471 . S
C2927 C255 1.515 . S
C2992 C749 1.415 . S
C2977 C295 1.440 . S
C3027 C541 1.544 . S
C3042 C672 1.520 . S
C3092 C666 1.516 . S
C3077 C55 1.517 . S
C3127 C95 1.380 . S
C3142 C673 1.157 . S
C3192 C645 1.349 . S
C3177 C21 1.628 . S
