# Generated by pormake.
# Topology zzz, (3,6)-cn, num edge types: 1
# Building blocks:
#     Node 0, Type 0, BuildingBlock: OLANEW_clean_sbu_2, # of connection points: 3
#     Node 1, Type 0, BuildingBlock: OLANEW_clean_sbu_2, # of connection points: 3
#     Node 2, Type 0, BuildingBlock: OLANEW_clean_sbu_2, # of connection points: 3
#     Node 3, Type 0, BuildingBlock: OLANEW_clean_sbu_2, # of connection points: 3
#     Node 4, Type 0, BuildingBlock: OLANEW_clean_sbu_2, # of connection points: 3
#     Node 5, Type 0, BuildingBlock: OLANEW_clean_sbu_2, # of connection points: 3
#     Node 6, Type 0, BuildingBlock: OLANEW_clean_sbu_2, # of connection points: 3
#     Node 7, Type 0, BuildingBlock: OLANEW_clean_sbu_2, # of connection points: 3
#     Node 8, Type 1, BuildingBlock: BETDEL_clean_sbu_0, # of connection points: 6
#     Node 9, Type 1, BuildingBlock: BETDEL_clean_sbu_0, # of connection points: 6
#     Node 10, Type 1, BuildingBlock: BETDEL_clean_sbu_0, # of connection points: 6
#     Node 11, Type 1, BuildingBlock: BETDEL_clean_sbu_0, # of connection points: 6
#     Edge 12, Type (0, 1), BuildingBlock: TEMPAE_clean_linker_10, # of connection points: 2
#     Edge 13, Type (0, 1), BuildingBlock: TEMPAE_clean_linker_10, # of connection points: 2
#     Edge 14, Type (0, 1), BuildingBlock: TEMPAE_clean_linker_10, # of connection points: 2
#     Edge 15, Type (0, 1), BuildingBlock: TEMPAE_clean_linker_10, # of connection points: 2
#     Edge 16, Type (0, 1), BuildingBlock: TEMPAE_clean_linker_10, # of connection points: 2
#     Edge 17, Type (0, 1), BuildingBlock: TEMPAE_clean_linker_10, # of connection points: 2
#     Edge 18, Type (0, 1), BuildingBlock: TEMPAE_clean_linker_10, # of connection points: 2
#     Edge 19, Type (0, 1), BuildingBlock: TEMPAE_clean_linker_10, # of connection points: 2
#     Edge 20, Type (0, 1), BuildingBlock: TEMPAE_clean_linker_10, # of connection points: 2
#     Edge 21, Type (0, 1), BuildingBlock: TEMPAE_clean_linker_10, # of connection points: 2
#     Edge 22, Type (0, 1), BuildingBlock: TEMPAE_clean_linker_10, # of connection points: 2
#     Edge 23, Type (0, 1), BuildingBlock: TEMPAE_clean_linker_10, # of connection points: 2
#     Edge 24, Type (0, 1), BuildingBlock: TEMPAE_clean_linker_10, # of connection points: 2
#     Edge 25, Type (0, 1), BuildingBlock: TEMPAE_clean_linker_10, # of connection points: 2
#     Edge 26, Type (0, 1), BuildingBlock: TEMPAE_clean_linker_10, # of connection points: 2
#     Edge 27, Type (0, 1), BuildingBlock: TEMPAE_clean_linker_10, # of connection points: 2
#     Edge 28, Type (0, 1), BuildingBlock: TEMPAE_clean_linker_10, # of connection points: 2
#     Edge 29, Type (0, 1), BuildingBlock: TEMPAE_clean_linker_10, # of connection points: 2
#     Edge 30, Type (0, 1), BuildingBlock: TEMPAE_clean_linker_10, # of connection points: 2
#     Edge 31, Type (0, 1), BuildingBlock: TEMPAE_clean_linker_10, # of connection points: 2
#     Edge 32, Type (0, 1), BuildingBlock: TEMPAE_clean_linker_10, # of connection points: 2
#     Edge 33, Type (0, 1), BuildingBlock: TEMPAE_clean_linker_10, # of connection points: 2
#     Edge 34, Type (0, 1), BuildingBlock: TEMPAE_clean_linker_10, # of connection points: 2
#     Edge 35, Type (0, 1), BuildingBlock: TEMPAE_clean_linker_10, # of connection points: 2
# Relax obj value: 0.150
# Max RMSD: 0.173
# Mean RMSD: 0.121
data_MOF--net-zzz--node1-OLANEW_clean_sbu_2--node2-BETDEL_clean_sbu_0--edge1-TEMPAE_clean_linker_10
_symmetry_space_group_name_H-M    P1
_symmetry_Int_Tables_number       1
_symmetry_cell_setting            triclinic
loop_
_symmetry_equiv_pos_as_xyz
'x, y, z'
_cell_length_a     54.522806
_cell_length_b     53.890679
_cell_length_c     17.050972
_cell_angle_alpha  91.531406
_cell_angle_beta   89.008594
_cell_angle_gamma 95.721279
loop_
_atom_site_label
_atom_site_type_symbol
_atom_site_fract_x
_atom_site_fract_y
_atom_site_fract_z
_atom_type_partial_charge
O0 O 0.76815 0.51413 0.02399 0.0
Cd1 Cd 0.73317 0.52179 0.10963 0.0
O2 O 0.76223 0.47328 0.03259 0.0
Cd3 Cd 0.73963 0.47775 0.13691 0.0
O4 O 0.77363 0.49124 0.19615 0.0
C5 C 0.78919 0.47546 0.20416 0.0
O6 O 0.78289 0.45192 0.1853 0.0
C7 C 0.77373 0.49255 0.00284 0.0
C8 C 0.68969 0.51379 0.02522 0.0
O9 O 0.70127 0.53563 0.03165 0.0
O10 O 0.6985 0.49587 0.05976 0.0
O11 O 0.93382 0.76664 0.01871 0.0
Cd12 Cd 0.92975 0.72257 0.05545 0.0
O13 O 0.96937 0.77218 0.07839 0.0
Cd14 Cd 0.00302 0.79542 0.11108 0.0
O15 O 0.04325 0.81199 0.10943 0.0
C16 C 0.0538 0.83021 0.15028 0.0
O17 O 0.04374 0.81163 0.10776 0.0
C18 C 0.95286 0.78084 0.03842 0.0
C19 C 0.94305 0.68854 0.93833 0.0
O20 O 0.92076 0.69402 0.94592 0.0
O21 O 0.95911 0.69951 0.98492 0.0
O22 O 0.71521 0.93279 0.79733 0.0
Cd23 Cd 0.74267 0.90706 0.86274 0.0
O24 O 0.71887 0.95594 0.90461 0.0
Cd25 Cd 0.70521 0.98322 0.98679 0.0
O26 O 0.67817 0.99281 0.07492 0.0
C27 C 0.66931 0.97481 0.11675 0.0
O28 O 0.67769 0.95292 0.10567 0.0
C29 C 0.70976 0.95184 0.83682 0.0
C30 C 0.79127 0.924 0.82783 0.0
O31 O 0.78039 0.90522 0.79038 0.0
O32 O 0.77931 0.93443 0.88275 0.0
O33 O 0.5748 0.73781 0.89326 0.0
Cd34 Cd 0.59502 0.78023 0.90794 0.0
O35 O 0.5913 0.72998 0.00507 0.0
Cd36 Cd 0.59992 0.70527 0.09801 0.0
O37 O 0.59595 0.67572 0.18326 0.0
C38 C 0.57706 0.67493 0.22812 0.0
O39 O 0.56199 0.69237 0.22311 0.0
C40 C 0.57793 0.72256 0.94693 0.0
C41 C 0.56876 0.81729 0.84832 0.0
O42 O 0.58385 0.8061 0.80488 0.0
O43 O 0.56573 0.81061 0.91972 0.0
O44 O 0.24551 0.56233 0.26484 0.0
Cd45 Cd 0.28753 0.57059 0.21364 0.0
O46 O 0.24132 0.5366 0.16388 0.0
Cd47 Cd 0.22024 0.51327 0.07789 0.0
O48 O 0.18718 0.50155 0.01288 0.0
C49 C 0.17107 0.51703 0.01521 0.0
O50 O 0.17572 0.53813 0.05512 0.0
C51 C 0.23184 0.54672 0.22392 0.0
C52 C 0.32263 0.5519 0.30601 0.0
O53 O 0.3173 0.57445 0.31521 0.0
O54 O 0.31114 0.53807 0.25342 0.0
O55 O 0.02333 0.23587 0.1408 0.0
Cd56 Cd 0.03362 0.27416 0.0675 0.0
O57 O 0.06164 0.23418 0.17584 0.0
Cd58 Cd 0.07244 0.25152 0.06555 0.0
O59 O 0.06295 0.21914 0.98758 0.0
C60 C 0.07025 0.19869 0.00907 0.0
O61 O 0.08452 0.19895 0.07046 0.0
C62 C 0.03897 0.2263 0.18216 0.0
C63 C 0.027 0.31681 0.15985 0.0
O64 O 0.00927 0.30557 0.12018 0.0
O65 O 0.04796 0.30794 0.15575 0.0
O66 O 0.25166 0.96084 0.19678 0.0
Cd67 Cd 0.2164 0.96495 0.11372 0.0
O68 O 0.26602 0.99586 0.14359 0.0
Cd69 Cd 0.29321 0.02742 0.1205 0.0
O70 O 0.32714 0.04141 0.06097 0.0
C71 C 0.32633 0.04598 0.98843 0.0
O72 O 0.3048 0.04414 0.95411 0.0
C73 C 0.26891 0.97831 0.19001 0.0
C74 C 0.17615 0.97559 0.20586 0.0
O75 O 0.17886 0.95318 0.18277 0.0
O76 O 0.19235 0.99305 0.18429 0.0
O77 O 0.45879 0.27546 0.08732 0.0
Cd78 Cd 0.44965 0.23524 0.0193 0.0
O79 O 0.42629 0.26861 0.16481 0.0
Cd80 Cd 0.40906 0.24518 0.07124 0.0
O81 O 0.41356 0.27511 0.98684 0.0
C82 C 0.40479 0.2953 0.0079 0.0
O83 O 0.39095 0.29558 0.07172 0.0
C84 C 0.44637 0.28154 0.14744 0.0
C85 C 0.46153 0.19755 0.11686 0.0
O86 O 0.47685 0.2064 0.0644 0.0
O87 O 0.44051 0.20622 0.12219 0.0
Dy88 Dy -0.00317 0.98221 0.67786 0.0
C89 C -0.00165 0.06307 0.45094 0.0
C90 C 0.98035 0.94583 0.77879 0.0
Dy91 Dy -0.00642 0.02156 0.53929 0.0
O92 O -0.00206 0.96343 0.7942 0.0
O93 O 0.97172 0.9485 0.70932 0.0
O94 O 0.03723 0.97595 0.65751 0.0
O95 O 0.02 0.00065 0.59221 0.0
C96 C 0.03995 0.99138 0.59961 0.0
C97 C 0.95117 0.00186 0.60399 0.0
O98 O -0.00248 0.98694 0.46793 0.0
O99 O 0.98746 0.95876 0.5684 0.0
O100 O 0.9859 0.06065 0.51631 0.0
O101 O 0.00799 0.04249 0.43243 0.0
O102 O 0.953 0.00902 0.53174 0.0
O103 O 0.97118 0.00752 0.63849 0.0
O104 O 0.002 0.01862 0.7456 0.0
O105 O 0.01327 0.04326 0.63739 0.0
C106 C -0.00784 0.96388 0.49322 0.0
C107 C 0.01152 0.03989 0.71429 0.0
Dy108 Dy 0.47626 0.00119 0.52391 0.0
C109 C 0.56947 0.03896 0.65691 0.0
C110 C 0.4283 0.98996 0.48189 0.0
Dy111 Dy 0.52342 0.02931 0.59588 0.0
O112 O 0.44616 0.97649 0.46381 0.0
O113 O 0.4366 0.00933 0.52397 0.0
O114 O 0.49797 0.97683 0.44611 0.0
O115 O 0.51348 0.01243 0.48243 0.0
C116 C 0.51801 0.99201 0.45047 0.0
C117 C 0.48095 0.03793 0.66612 0.0
O118 O 0.5164 0.05806 0.50923 0.0
O119 O 0.47801 0.03905 0.46991 0.0
O120 O 0.54918 0.03456 0.6972 0.0
O121 O 0.5644 0.0395 0.58276 0.0
O122 O 0.49989 0.05462 0.66298 0.0
O123 O 0.48644 0.01728 0.63813 0.0
O124 O 0.48412 0.97378 0.61381 0.0
O125 O 0.52526 0.98905 0.62385 0.0
C126 C 0.49572 0.05791 0.46899 0.0
C127 C 0.50691 0.97151 0.6365 0.0
Dy128 Dy 0.49831 0.50868 0.72945 0.0
C129 C 0.49371 0.43575 0.47594 0.0
C130 C 0.51048 0.54604 0.83757 0.0
Dy131 Dy 0.50171 0.4719 0.58999 0.0
O132 O 0.48863 0.5403 0.80925 0.0
O133 O 0.52539 0.53064 0.80912 0.0
O134 O 0.45744 0.50717 0.71499 0.0
O135 O 0.48044 0.50325 0.61618 0.0
C136 C 0.45835 0.50243 0.63985 0.0
C137 C 0.54161 0.47943 0.67949 0.0
O138 O 0.51448 0.50631 0.52624 0.0
O139 O 0.52075 0.53132 0.63866 0.0
O140 O 0.51066 0.43654 0.52864 0.0
O141 O 0.48114 0.4549 0.48493 0.0
O142 O 0.54285 0.47526 0.60417 0.0
O143 O 0.51952 0.47766 0.70285 0.0
O144 O 0.48602 0.47337 0.79105 0.0
O145 O 0.47588 0.45114 0.67541 0.0
C146 C 0.52303 0.52751 0.56164 0.0
C147 C 0.47504 0.45358 0.75307 0.0
Dy148 Dy 0.97262 0.49857 0.59876 0.0
C149 C 0.05277 0.51734 0.38434 0.0
C150 C 0.93187 0.49136 0.69324 0.0
Dy151 Dy 0.01098 0.51724 0.47492 0.0
O152 O 0.93464 0.48053 0.6253 0.0
O153 O 0.95154 0.50598 0.71039 0.0
O154 O 0.98452 0.45998 0.58495 0.0
O155 O 0.98636 0.48335 0.48812 0.0
C156 C -0.00827 0.46272 0.51241 0.0
C157 C -0.00672 0.55363 0.56271 0.0
O158 O 0.97687 0.51192 0.40219 0.0
O159 O 0.95181 0.5177 0.51034 0.0
O160 O 0.03706 0.53397 0.3812 0.0
O161 O 0.0451 0.50056 0.43453 0.0
O162 O 0.00177 0.55695 0.49153 0.0
O163 O -0.00251 0.53239 0.58501 0.0
O164 O 0.00498 0.49952 0.67612 0.0
O165 O 0.034 0.5073 0.57605 0.0
C166 C 0.95522 0.51642 0.43337 0.0
C167 C 0.02806 0.50196 0.65001 0.0
C168 C 0.15657 0.00317 0.30348 0.0
C169 C 0.15542 0.98094 0.25838 0.0
C170 C 0.13793 0.00748 0.3585 0.0
C171 C 0.11755 0.98931 0.36747 0.0
C172 C 0.1158 0.96736 0.31959 0.0
C173 C 0.13489 0.96332 0.26615 0.0
C174 C 0.14047 0.03102 0.40897 0.0
C175 C 0.09414 0.94776 0.32657 0.0
C176 C 0.08232 0.98249 0.56029 0.0
C177 C 0.06091 0.99358 0.54395 0.0
C178 C 0.10141 0.98194 0.50434 0.0
C179 C 0.09874 0.99239 0.42999 0.0
C180 C 0.07745 0.00433 0.4142 0.0
C181 C 0.05886 0.00497 0.47184 0.0
C182 C 0.12402 0.96938 0.52379 0.0
C183 C 0.07373 0.01533 0.33526 0.0
H184 H 0.17245 0.01683 0.29774 0.0
H185 H 0.13383 0.94621 0.23088 0.0
H186 H 0.12366 0.04093 0.40526 0.0
H187 H 0.14239 0.02617 0.47126 0.0
H188 H 0.15671 0.04393 0.39165 0.0
H189 H 0.09445 0.93286 0.28034 0.0
H190 H 0.09434 0.93904 0.38472 0.0
H191 H 0.07656 0.95638 0.32279 0.0
H192 H 0.08393 0.97375 0.61627 0.0
H193 H 0.04229 0.01352 0.45926 0.0
H194 H 0.14095 0.9819 0.51113 0.0
H195 H 0.12479 0.95228 0.48646 0.0
H196 H 0.12414 0.96407 0.58628 0.0
H197 H 0.09026 0.02771 0.31755 0.0
H198 H 0.05741 0.02614 0.33519 0.0
H199 H 0.0711 8e-05 0.29024 0.0
C200 C 0.45404 0.17305 0.23888 0.0
C201 C 0.46793 0.17799 0.17008 0.0
C202 C 0.45973 0.15446 0.28974 0.0
C203 C 0.47952 0.14016 0.27063 0.0
C204 C 0.49373 0.14517 0.20153 0.0
C205 C 0.48789 0.16418 0.15239 0.0
C206 C 0.44434 0.14989 0.36341 0.0
C207 C 0.51469 0.13003 0.17848 0.0
C208 C 0.50528 0.10252 0.43042 0.0
C209 C 0.49227 0.07901 0.41778 0.0
C210 C 0.50137 0.12267 0.38296 0.0
C211 C 0.4844 0.11904 0.32068 0.0
C212 C 0.47161 0.09521 0.30681 0.0
C213 C 0.47555 0.07558 0.35586 0.0
C214 C 0.51505 0.14792 0.40019 0.0
C215 C 0.45366 0.09044 0.24027 0.0
H216 H 0.43873 0.18381 0.25326 0.0
H217 H 0.49867 0.16789 0.09922 0.0
H218 H 0.43434 0.13094 0.36034 0.0
H219 H 0.45639 0.15073 0.41538 0.0
H220 H 0.43064 0.16369 0.37235 0.0
H221 H 0.52446 0.13681 0.12427 0.0
H222 H 0.52819 0.13062 0.2266 0.0
H223 H 0.50751 0.11021 0.16864 0.0
H224 H 0.51814 0.1053 0.47838 0.0
H225 H 0.4656 0.05741 0.34511 0.0
H226 H 0.50169 0.16172 0.41394 0.0
H227 H 0.52587 0.1545 0.34775 0.0
H228 H 0.52777 0.14761 0.45028 0.0
H229 H 0.43821 0.10221 0.24883 0.0
H230 H 0.4459 0.07061 0.23565 0.0
H231 H 0.46293 0.09566 0.18379 0.0
C232 C 0.35752 0.55884 0.39943 0.0
C233 C 0.34181 0.5423 0.3539 0.0
C234 C 0.37615 0.55021 0.44398 0.0
C235 C 0.37892 0.52436 0.44385 0.0
C236 C 0.363 0.50752 0.39855 0.0
C237 C 0.34471 0.51672 0.35364 0.0
C238 C 0.39296 0.5688 0.49088 0.0
C239 C 0.36526 0.47981 0.39778 0.0
C240 C 0.44161 0.5083 0.50728 0.0
C241 C 0.43745 0.50453 0.5876 0.0
C242 C 0.42244 0.5138 0.45883 0.0
C243 C 0.39855 0.51519 0.49151 0.0
C244 C 0.39398 0.50988 0.57163 0.0
C245 C 0.41357 0.50476 0.61891 0.0
C246 C 0.42809 0.51948 0.37379 0.0
C247 C 0.36866 0.51077 0.60826 0.0
H248 H 0.35548 0.57864 0.39957 0.0
H249 H 0.33256 0.50383 0.31874 0.0
H250 H 0.39142 0.56444 0.5541 0.0
H251 H 0.41242 0.56749 0.47247 0.0
H252 H 0.3886 0.5883 0.48364 0.0
H253 H 0.35127 0.46918 0.36007 0.0
H254 H 0.38387 0.47602 0.37624 0.0
H255 H 0.36311 0.47276 0.45831 0.0
H256 H 0.46009 0.50806 0.4829 0.0
H257 H 0.41031 0.50161 0.68094 0.0
H258 H 0.42623 0.53947 0.36388 0.0
H259 H 0.41472 0.5084 0.33517 0.0
H260 H 0.44703 0.51551 0.35597 0.0
H261 H 0.36385 0.5303 0.6105 0.0
H262 H 0.3676 0.50358 0.66882 0.0
H263 H 0.3546 0.49966 0.57213 0.0
C264 C -0.00039 0.34703 0.21982 0.0
C265 C 0.02326 0.33921 0.20951 0.0
C266 C -0.00439 0.36778 0.26819 0.0
C267 C 0.01576 0.38118 0.30689 0.0
C268 C 0.03975 0.37365 0.29579 0.0
C269 C 0.0432 0.35269 0.24748 0.0
C270 C 0.96972 0.37514 0.27881 0.0
C271 C 0.06172 0.38758 0.33553 0.0
C272 C 0.0057 0.44658 0.38199 0.0
C273 C -0.00037 0.44238 0.46106 0.0
C274 C 0.01174 0.42699 0.33152 0.0
C275 C 0.01147 0.4026 0.36081 0.0
C276 C 0.00595 0.39843 0.44115 0.0
C277 C 0.0002 0.41841 0.49038 0.0
C278 C 0.01781 0.43226 0.2465 0.0
C279 C 0.00541 0.37272 0.47466 0.0
H280 H 0.98409 0.33674 0.19079 0.0
H281 H 0.06156 0.34684 0.23961 0.0
H282 H 0.96409 0.37399 0.34157 0.0
H283 H 0.96903 0.39476 0.26159 0.0
H284 H 0.95612 0.36304 0.24356 0.0
H285 H 0.07929 0.37994 0.31846 0.0
H286 H 0.06312 0.40759 0.32052 0.0
H287 H 0.05934 0.38661 0.40015 0.0
H288 H 0.0054 0.46515 0.35925 0.0
H289 H -0.00441 0.41511 0.55157 0.0
H290 H 0.00346 0.42232 0.20867 0.0
H291 H 0.03564 0.4252 0.22956 0.0
H292 H 0.01895 0.4525 0.23432 0.0
H293 H 0.99084 0.36 0.44571 0.0
H294 H 0.00176 0.37279 0.53897 0.0
H295 H 0.02322 0.36494 0.4628 0.0
C296 C 0.82405 0.95952 0.81953 0.0
C297 C 0.81642 0.93422 0.80526 0.0
C298 C 0.84687 0.9702 0.79113 0.0
C299 C 0.86264 0.95503 0.74928 0.0
C300 C 0.85559 0.92919 0.73845 0.0
C301 C 0.83236 0.91914 0.76559 0.0
C302 C 0.85357 0.99792 0.80268 0.0
C303 C 0.87228 0.91231 0.69625 0.0
C304 C 0.90681 0.9859 0.59881 0.0
C305 C 0.92868 0.98973 0.6411 0.0
C306 C 0.88514 0.9747 0.63362 0.0
C307 C 0.88562 0.96658 0.71187 0.0
C308 C 0.9078 0.97007 0.75443 0.0
C309 C 0.92895 0.98216 0.71902 0.0
C310 C 0.86169 0.97183 0.58696 0.0
C311 C 0.90922 0.96099 0.8371 0.0
H312 H 0.8117 0.97123 0.84993 0.0
H313 H 0.82657 0.89951 0.75525 0.0
H314 H 0.87184 0.00156 0.83061 0.0
H315 H 0.85498 0.00694 0.74479 0.0
H316 H 0.83976 0.00687 0.83953 0.0
H317 H 0.86519 0.89231 0.69982 0.0
H318 H 0.87407 0.91721 0.6335 0.0
H319 H 0.89104 0.91493 0.72134 0.0
H320 H 0.90654 0.99195 0.53873 0.0
H321 H 0.94576 0.98558 0.75226 0.0
H322 H 0.8472 0.98146 0.61836 0.0
H323 H 0.85475 0.95182 0.58096 0.0
H324 H 0.86435 0.97958 0.52736 0.0
H325 H 0.89673 0.97079 0.87648 0.0
H326 H 0.9282 0.96405 0.86053 0.0
H327 H 0.90297 0.94077 0.83879 0.0
C328 C 0.54108 0.85148 0.86751 0.0
C329 C 0.55611 0.83809 0.81788 0.0
C330 C 0.53063 0.87248 0.84102 0.0
C331 C 0.5353 0.88024 0.76304 0.0
C332 C 0.54975 0.86629 0.71191 0.0
C333 C 0.55998 0.8454 0.73993 0.0
C334 C 0.51547 0.88698 0.89741 0.0
C335 C 0.55514 0.87394 0.62831 0.0
C336 C 0.49692 0.92641 0.66922 0.0
C337 C 0.5128 0.9485 0.67459 0.0
C338 C 0.5037 0.90408 0.69943 0.0
C339 C 0.52676 0.90397 0.73643 0.0
C340 C 0.54238 0.92645 0.74477 0.0
C341 C 0.53529 0.94835 0.71336 0.0
C342 C 0.48658 0.88045 0.68944 0.0
C343 C 0.56704 0.92729 0.78443 0.0
H344 H 0.53795 0.84595 0.92779 0.0
H345 H 0.57149 0.83513 0.70107 0.0
H346 H 0.5253 0.90569 0.90954 0.0
H347 H 0.49755 0.88988 0.87106 0.0
H348 H 0.5119 0.87742 0.954 0.0
H349 H 0.56511 0.86009 0.59441 0.0
H350 H 0.53774 0.87636 0.59792 0.0
H351 H 0.56656 0.89218 0.62803 0.0
H352 H 0.47955 0.92638 0.63922 0.0
H353 H 0.54762 0.96537 0.71846 0.0
H354 H 0.48303 0.87142 0.74679 0.0
H355 H 0.4954 0.86706 0.65026 0.0
H356 H 0.46866 0.88396 0.664 0.0
H357 H 0.56525 0.91733 0.84064 0.0
H358 H 0.57517 0.94672 0.79653 0.0
H359 H 0.58005 0.91779 0.7461 0.0
C360 C 0.65597 0.52922 0.94762 0.0
C361 C 0.66716 0.50922 0.97768 0.0
C362 C 0.63504 0.52504 0.90044 0.0
C363 C 0.62529 0.50026 0.88223 0.0
C364 C 0.63636 0.48001 0.91297 0.0
C365 C 0.6571 0.48474 0.96063 0.0
C366 C 0.62352 0.5471 0.86938 0.0
C367 C 0.6265 0.45333 0.89463 0.0
C368 C 0.55946 0.48731 0.81237 0.0
C369 C 0.56297 0.4849 0.73104 0.0
C370 C 0.57956 0.49278 0.86225 0.0
C371 C 0.60374 0.49544 0.82995 0.0
C372 C 0.60738 0.49291 0.74778 0.0
C373 C 0.58689 0.48774 0.6992 0.0
C374 C 0.57493 0.49563 0.94944 0.0
C375 C 0.63291 0.49548 0.71129 0.0
H376 H 0.66359 0.5482 0.9608 0.0
H377 H 0.66567 0.46918 0.98349 0.0
H378 H 0.62513 0.54705 0.80443 0.0
H379 H 0.60358 0.54573 0.88466 0.0
H380 H 0.63238 0.56516 0.89292 0.0
H381 H 0.63706 0.4397 0.92391 0.0
H382 H 0.60689 0.45012 0.91353 0.0
H383 H 0.62724 0.44964 0.83034 0.0
H384 H 0.54096 0.48492 0.83713 0.0
H385 H 0.58961 0.48585 0.63627 0.0
H386 H 0.58305 0.51422 0.97088 0.0
H387 H 0.58404 0.48142 0.98105 0.0
H388 H 0.55496 0.49359 0.96487 0.0
H389 H 0.64247 0.51408 0.72658 0.0
H390 H 0.63255 0.49319 0.64637 0.0
H391 H 0.64398 0.48129 0.73511 0.0
C392 C 0.9746 0.66478 0.86876 0.0
C393 C 0.9499 0.66955 0.87923 0.0
C394 C 0.98127 0.6462 0.81539 0.0
C395 C 0.96281 0.6319 0.77156 0.0
C396 C 0.93787 0.63677 0.78123 0.0
C397 C 0.93173 0.65557 0.83473 0.0
C398 C 0.00809 0.64169 0.80654 0.0
C399 C 0.91763 0.62185 0.73594 0.0
C400 C 0.98309 0.59744 0.58729 0.0
C401 C 0.98461 0.5734 0.61501 0.0
C402 C 0.97575 0.61661 0.63732 0.0
C403 C 0.96962 0.61154 0.71679 0.0
C404 C 0.97067 0.58712 0.74454 0.0
C405 C 0.97829 0.56841 0.69344 0.0
C406 C 0.97493 0.64238 0.60547 0.0
C407 C 0.96408 0.58083 0.82856 0.0
H408 H 0.98878 0.67549 0.90271 0.0
H409 H 0.91259 0.65905 0.84249 0.0
H410 H 0.01058 0.62237 0.82343 0.0
H411 H 0.0141 0.64358 0.74431 0.0
H412 H 0.02028 0.65487 0.84325 0.0
H413 H 0.89922 0.62829 0.74886 0.0
H414 H 0.92145 0.62319 0.672 0.0
H415 H 0.91704 0.60186 0.75056 0.0
H416 H 0.98794 0.60137 0.52665 0.0
H417 H 0.97957 0.54989 0.71522 0.0
H418 H 0.98806 0.65587 0.63768 0.0
H419 H 0.95628 0.64858 0.61469 0.0
H420 H 0.97967 0.64313 0.54188 0.0
H421 H 0.97712 0.59176 0.86862 0.0
H422 H 0.96462 0.56068 0.83979 0.0
H423 H 0.94534 0.58601 0.84348 0.0
C424 C 0.04801 0.19439 0.27861 0.0
C425 C 0.03147 0.20371 0.22751 0.0
C426 C 0.04219 0.17144 0.31487 0.0
C427 C 0.01943 0.15736 0.29879 0.0
C428 C 0.00249 0.16682 0.24821 0.0
C429 C 0.00864 0.18998 0.21362 0.0
C430 C 0.06055 0.16209 0.3695 0.0
C431 C 0.97814 0.15222 0.22916 0.0
C432 C 0.01516 0.08785 0.3366 0.0
C433 C 0.00273 0.08671 0.40915 0.0
C434 C 0.02033 0.11072 0.299 0.0
C435 C 0.01321 0.13285 0.33577 0.0
C436 C 0.00048 0.13167 0.40877 0.0
C437 C -0.00475 0.10858 0.44428 0.0
C438 C 0.03359 0.11125 0.22046 0.0
C439 C -0.00719 0.15488 0.45012 0.0
H440 H 0.0657 0.20487 0.28944 0.0
H441 H -0.00413 0.19691 0.17348 0.0
H442 H 0.05179 0.15837 0.4278 0.0
H443 H 0.06651 0.14421 0.3461 0.0
H444 H 0.07713 0.1756 0.37745 0.0
H445 H 0.96692 0.16232 0.18925 0.0
H446 H 0.98141 0.13402 0.20097 0.0
H447 H 0.96732 0.14819 0.28383 0.0
H448 H 0.02093 0.07092 0.30947 0.0
H449 H 0.98572 0.10774 0.50064 0.0
H450 H 0.05151 0.12286 0.2252 0.0
H451 H 0.0226 0.11992 0.17643 0.0
H452 H 0.03708 0.0923 0.19852 0.0
H453 H 0.00932 0.16807 0.46253 0.0
H454 H 0.98283 0.1507 0.50631 0.0
H455 H 0.98074 0.1645 0.4118 0.0
C456 C 0.29068 0.96845 0.31131 0.0
C457 C 0.2917 0.97817 0.23574 0.0
C458 C 0.31203 0.9689 0.35652 0.0
C459 C 0.33487 0.97938 0.3253 0.0
C460 C 0.33604 0.98871 0.24832 0.0
C461 C 0.31449 0.98765 0.20413 0.0
C462 C 0.31013 0.9584 0.43785 0.0
C463 C 0.36003 -1e-05 0.21272 0.0
C464 C 0.38702 0.00431 0.45931 0.0
C465 C 0.40323 0.98582 0.44989 0.0
C466 C 0.36431 0.0021 0.42094 0.0
C467 C 0.35761 0.98075 0.37285 0.0
C468 C 0.37343 0.96146 0.36634 0.0
C469 C 0.39616 0.96431 0.40462 0.0
C470 C 0.34803 0.02314 0.42901 0.0
C471 C 0.36675 0.93824 0.31667 0.0
H472 H 0.2731 0.96085 0.33559 0.0
H473 H 0.31561 0.99386 0.14426 0.0
H474 H 0.32297 0.94381 0.44303 0.0
H475 H 0.31566 0.97333 0.48194 0.0
H476 H 0.29117 0.95016 0.45248 0.0
H477 H 0.35772 0.00674 0.15254 0.0
H478 H 0.36788 0.0159 0.25009 0.0
H479 H 0.37365 0.986 0.21016 0.0
H480 H 0.39248 0.02098 0.49433 0.0
H481 H 0.40866 0.94996 0.39755 0.0
H482 H 0.32906 0.01585 0.44678 0.0
H483 H 0.3468 0.03202 0.37142 0.0
H484 H 0.35511 0.03765 0.4727 0.0
H485 H 0.34797 0.92981 0.33241 0.0
H486 H 0.37996 0.92405 0.32349 0.0
H487 H 0.36656 0.94316 0.25394 0.0
C488 C 0.47132 0.32284 0.16037 0.0
C489 C 0.45411 0.30467 0.19263 0.0
C490 C 0.47806 0.3454 0.20093 0.0
C491 C 0.46753 0.34972 0.27586 0.0
C492 C 0.45007 0.33151 0.30856 0.0
C493 C 0.44346 0.30924 0.26632 0.0
C494 C 0.49648 0.36455 0.16379 0.0
C495 C 0.43851 0.33546 0.3885 0.0
C496 C 0.50167 0.39404 0.42187 0.0
C497 C 0.48825 0.41484 0.41958 0.0
C498 C 0.4955 0.37295 0.37375 0.0
C499 C 0.4755 0.37278 0.32189 0.0
C500 C 0.46244 0.39412 0.31723 0.0
C501 C 0.46893 0.41494 0.36655 0.0
C502 C 0.50988 0.35056 0.38028 0.0
C503 C 0.44118 0.39466 0.26188 0.0
H504 H 0.4793 0.3196 0.10278 0.0
H505 H 0.43006 0.29532 0.29129 0.0
H506 H 0.48852 0.38264 0.16043 0.0
H507 H 0.51313 0.36774 0.2006 0.0
H508 H 0.50218 0.35871 0.10376 0.0
H509 H 0.42484 0.31969 0.40479 0.0
H510 H 0.45304 0.3377 0.43364 0.0
H511 H 0.42919 0.35285 0.38984 0.0
H512 H 0.51666 0.39397 0.46281 0.0
H513 H 0.45859 0.43108 0.36468 0.0
H514 H 0.51706 0.34508 0.32174 0.0
H515 H 0.49754 0.33447 0.40185 0.0
H516 H 0.52563 0.35415 0.42088 0.0
H517 H 0.44694 0.38962 0.20127 0.0
H518 H 0.43404 0.41326 0.26152 0.0
H519 H 0.42593 0.38062 0.27936 0.0
C520 C 0.19282 0.56021 0.28269 0.0
C521 C 0.20517 0.54187 0.24315 0.0
C522 C 0.16754 0.55612 0.30093 0.0
C523 C 0.15415 0.5333 0.27773 0.0
C524 C 0.16647 0.51479 0.23732 0.0
C525 C 0.19195 0.51902 0.22261 0.0
C526 C 0.15528 0.57602 0.34648 0.0
C527 C 0.1528 0.49042 0.21011 0.0
C528 C 0.09695 0.51158 0.39644 0.0
C529 C 0.07816 0.5201 0.35241 0.0
C530 C 0.1217 0.51584 0.37279 0.0
C531 C 0.12777 0.52805 0.30155 0.0
C532 C 0.10873 0.53579 0.25503 0.0
C533 C 0.0841 0.53223 0.28202 0.0
C534 C 0.1414 0.50796 0.42545 0.0
C535 C 0.11443 0.54791 0.17716 0.0
H536 H 0.20296 0.57783 0.29954 0.0
H537 H 0.20152 0.50418 0.19639 0.0
H538 H 0.13966 0.5818 0.31288 0.0
H539 H 0.1476 0.56842 0.40262 0.0
H540 H 0.16824 0.59278 0.35975 0.0
H541 H 0.16459 0.47896 0.17324 0.0
H542 H 0.14597 0.47944 0.26152 0.0
H543 H 0.13648 0.49402 0.17568 0.0
H544 H 0.09238 0.50246 0.45148 0.0
H545 H 0.06951 0.53874 0.24797 0.0
H546 H 0.15427 0.52442 0.44239 0.0
H547 H 0.15237 0.49453 0.39368 0.0
H548 H 0.13357 0.49914 0.47976 0.0
H549 H 0.12541 0.56617 0.18644 0.0
H550 H 0.09746 0.55092 0.14504 0.0
H551 H 0.12574 0.53612 0.13986 0.0
C552 C 0.97886 0.81609 0.97835 0.0
C553 C 0.95632 0.8068 0.01201 0.0
C554 C 0.98212 0.84018 0.94837 0.0
C555 C 0.96243 0.85547 0.95317 0.0
C556 C 0.93995 0.84653 -0.00971 0.0
C557 C 0.93701 0.82207 0.01814 0.0
C558 C 0.00629 0.84885 0.90842 0.0
C559 C 0.91886 0.86257 -0.00102 0.0
C560 C 0.9805 0.92352 0.90559 0.0
C561 C 0.9735 0.92388 0.82707 0.0
C562 C 0.97593 0.90168 0.949 0.0
C563 C 0.96467 0.87965 0.91213 0.0
C564 C 0.95705 0.88021 0.83328 0.0
C565 C 0.96122 0.90244 0.79217 0.0
C566 C 0.98319 0.90215 0.03398 0.0
C567 C 0.94558 0.85704 0.79093 0.0
H568 H -0.00635 0.8041 0.97254 0.0
H569 H 0.91964 0.81488 0.04482 0.0
H570 H 0.0031 0.85212 0.84557 0.0
H571 H 0.0142 0.86679 0.93518 0.0
H572 H 0.02004 0.83506 0.91229 0.0
H573 H 0.90371 0.85392 0.03671 0.0
H574 H 0.92547 0.88113 0.02462 0.0
H575 H 0.91131 0.86569 0.94048 0.0
H576 H 0.98974 0.94024 0.93278 0.0
H577 H 0.95582 0.90268 0.7313 0.0
H578 H -0.0049 0.88712 0.04514 0.0
H579 H 0.96634 0.89869 0.07101 0.0
H580 H -0.00695 0.92033 0.05254 0.0
H581 H 0.95881 0.84265 0.78858 0.0
H582 H 0.94031 0.86077 0.73002 0.0
H583 H 0.92891 0.84911 0.82317 0.0
C584 C 0.69456 0.99368 0.82264 0.0
C585 C 0.69177 0.96789 0.80697 0.0
C586 C 0.67708 0.00903 0.7972 0.0
C587 C 0.65621 0.99822 0.75597 0.0
C588 C 0.65363 0.97224 0.73837 0.0
C589 C 0.67162 0.95743 0.76335 0.0
C590 C 0.68071 0.0367 0.81554 0.0
C591 C 0.63153 0.95998 0.69494 0.0
C592 C 0.59547 0.02662 0.76435 0.0
C593 C 0.59382 0.0347 0.68736 0.0
C594 C 0.61635 0.01591 0.78887 0.0
C595 C 0.63618 0.0136 0.73531 0.0
C596 C 0.63548 0.02375 0.65967 0.0
C597 C 0.6142 0.03415 0.63644 0.0
C598 C 0.61623 0.00516 0.86982 0.0
C599 C 0.65642 0.02207 0.60135 0.0
H600 H 0.71053 0.00189 0.85447 0.0
H601 H 0.66953 0.9375 0.75089 0.0
H602 H 0.67939 0.04731 0.76113 0.0
H603 H 0.66591 0.04201 0.85621 0.0
H604 H 0.69881 0.04243 0.84291 0.0
H605 H 0.63186 0.93945 0.68832 0.0
H606 H 0.61431 0.96383 0.72652 0.0
H607 H 0.63087 0.9679 0.63573 0.0
H608 H 0.57974 0.02702 0.80395 0.0
H609 H 0.61297 0.04047 0.57693 0.0
H610 H 0.63374 0.01118 0.90009 0.0
H611 H 0.61461 0.98448 0.86463 0.0
H612 H 0.60066 0.01075 0.90695 0.0
H613 H 0.67443 0.02712 0.62986 0.0
H614 H 0.6549 0.0344 0.55084 0.0
H615 H 0.65626 0.00259 0.57848 0.0
C616 C 0.5653 0.6843 0.86621 0.0
C617 C 0.5669 0.69639 0.93993 0.0
C618 C 0.55556 0.65927 0.8584 0.0
C619 C 0.54703 0.64606 0.92599 0.0
C620 C 0.54803 0.65838 0.00042 0.0
C621 C 0.55792 0.68344 0.00638 0.0
C622 C 0.55449 0.64691 0.77776 0.0
C623 C 0.53916 0.64513 0.07413 0.0
C624 C 0.5026 0.58889 0.88212 0.0
C625 C 0.51865 0.57016 0.87638 0.0
C626 C 0.51139 0.61356 0.90222 0.0
C627 C 0.53676 0.6195 0.91764 0.0
C628 C 0.55263 0.60024 0.91809 0.0
C629 C 0.54341 0.57576 0.89686 0.0
C630 C 0.49382 0.63352 0.90259 0.0
C631 C 0.57961 0.60571 0.93667 0.0
H632 H 0.57207 0.69433 0.81465 0.0
H633 H 0.55821 0.69302 0.06297 0.0
H634 H 0.56544 0.63061 0.77634 0.0
H635 H 0.53518 0.63985 0.76403 0.0
H636 H 0.56166 0.65982 0.73112 0.0
H637 H 0.53446 0.65851 0.12134 0.0
H638 H 0.52275 0.63166 0.06333 0.0
H639 H 0.55405 0.63454 0.09558 0.0
H640 H 0.48343 0.5846 0.86647 0.0
H641 H 0.55583 0.56125 0.89282 0.0
H642 H 0.49883 0.64651 0.85415 0.0
H643 H 0.49526 0.64461 0.95837 0.0
H644 H 0.47436 0.62559 0.89525 0.0
H645 H 0.58913 0.61656 0.88865 0.0
H646 H 0.58877 0.5884 0.94356 0.0
H647 H 0.58191 0.61724 -0.00856 0.0
C648 C 0.8041 0.50958 0.90209 0.0
C649 C 0.7954 0.49012 0.95126 0.0
C650 C 0.82612 0.50866 0.85895 0.0
C651 C 0.83997 0.488 0.86652 0.0
C652 C 0.8311 0.46812 0.91525 0.0
C653 C 0.80877 0.46932 0.95656 0.0
C654 C 0.83482 0.53 0.80643 0.0
C655 C 0.84559 0.446 0.92571 0.0
C656 C 0.88728 0.47723 0.70706 0.0
C657 C 0.90886 0.48909 0.73997 0.0
C658 C 0.86474 0.47643 0.74808 0.0
C659 C 0.86393 0.48746 0.82421 0.0
C660 C 0.88585 0.4988 0.85871 0.0
C661 C 0.90809 0.49969 0.81571 0.0
C662 C 0.84171 0.46443 0.70911 0.0
C663 C 0.88573 0.51037 0.94039 0.0
H664 H 0.79379 0.52568 0.89795 0.0
H665 H 0.80229 0.4544 -0.00451 0.0
H666 H 0.85258 0.53938 0.82781 0.0
H667 H 0.83813 0.52286 0.74592 0.0
H668 H 0.82131 0.54409 0.80421 0.0
H669 H 0.83577 0.43176 0.964 0.0
H670 H 0.84935 0.43709 0.86794 0.0
H671 H 0.86368 0.45234 0.95207 0.0
H672 H 0.88788 0.46912 0.64826 0.0
H673 H 0.92483 0.50883 0.84112 0.0
H674 H 0.82846 0.47855 0.70211 0.0
H675 H 0.83254 0.44961 0.74645 0.0
H676 H 0.84562 0.45613 0.65044 0.0
H677 H 0.87437 0.52635 0.94182 0.0
H678 H 0.90457 0.5171 0.96041 0.0
H679 H 0.87726 0.49661 0.98269 0.0
C680 C 0.0725 0.15292 0.98648 0.0
C681 C 0.06157 0.17464 0.96969 0.0
C682 C 0.06433 0.12986 0.95081 0.0
C683 C 0.04451 0.1284 0.89781 0.0
C684 C 0.03303 0.15015 0.88198 0.0
C685 C 0.04181 0.17304 0.91765 0.0
C686 C 0.0773 0.1072 0.96836 0.0
C687 C 0.01164 0.14929 0.82654 0.0
C688 C 0.03965 0.07856 0.73635 0.0
C689 C 0.0211 0.06115 0.76548 0.0
C690 C 0.04788 0.10008 0.77993 0.0
C691 C 0.03702 0.10461 0.85421 0.0
C692 C 0.01867 0.08684 0.88503 0.0
C693 C 0.01105 0.06513 0.84045 0.0
C694 C 0.06787 0.11823 0.74558 0.0
C695 C 0.00652 0.09119 0.96374 0.0
H696 H 0.08772 0.15396 0.02689 0.0
H697 H 0.03305 0.18967 0.90519 0.0
H698 H 0.06383 0.09195 0.98944 0.0
H699 H 0.086 0.10023 0.91386 0.0
H700 H 0.09177 0.11126 0.01325 0.0
H701 H 0.0036 0.16741 0.82489 0.0
H702 H 0.01784 0.14432 0.76635 0.0
H703 H -0.00302 0.13465 0.84422 0.0
H704 H 0.04772 0.07543 0.67879 0.0
H705 H -0.00338 0.05179 0.86296 0.0
H706 H 0.08322 0.12198 0.78748 0.0
H707 H 0.06044 0.13627 0.7352 0.0
H708 H 0.07539 0.11122 0.68917 0.0
H709 H 0.02063 0.09478 0.00983 0.0
H710 H -0.0066 0.07509 0.98102 0.0
H711 H -0.00363 0.10801 0.96173 0.0
C712 C 0.37208 0.04647 0.97488 0.0
C713 C 0.34935 0.04966 0.94115 0.0
C714 C 0.39362 0.04662 0.92872 0.0
C715 C 0.39243 0.05027 0.84701 0.0
C716 C 0.36981 0.05477 0.81325 0.0
C717 C 0.3485 0.05433 0.86074 0.0
C718 C 0.41741 0.0417 0.96684 0.0
C719 C 0.36793 0.05903 0.72647 0.0
C720 C 0.45332 0.06506 0.73861 0.0
C721 C 0.4577 0.04148 0.70819 0.0
C722 C 0.43181 0.06839 0.7824 0.0
C723 C 0.41448 0.04758 0.79633 0.0
C724 C 0.41861 0.02382 0.76416 0.0
C725 C 0.44017 0.02108 0.72019 0.0
C726 C 0.42785 0.09404 0.81496 0.0
C727 C 0.40056 0.00116 0.77784 0.0
H728 H 0.37292 0.04288 0.03699 0.0
H729 H 0.33104 0.05697 0.83433 0.0
H730 H 0.4233 0.02373 0.94389 0.0
H731 H 0.43227 0.0565 0.95211 0.0
H732 H 0.41556 0.04081 0.03172 0.0
H733 H 0.34959 0.06458 0.71073 0.0
H734 H 0.38234 0.07375 0.70756 0.0
H735 H 0.37111 0.04169 0.69291 0.0
H736 H 0.46684 0.08088 0.72891 0.0
H737 H 0.44352 0.00284 0.69652 0.0
H738 H 0.42781 0.09397 0.88002 0.0
H739 H 0.40963 0.09928 0.7971 0.0
H740 H 0.44236 0.10852 0.79487 0.0
H741 H 0.39893 0.99756 0.84159 0.0
H742 H 0.40622 0.98418 0.747 0.0
H743 H 0.382 0.00454 0.75746 0.0
C744 C 0.43394 0.32054 0.91929 0.0
C745 C 0.4132 0.319 0.96935 0.0
C746 C 0.44346 0.3434 0.88804 0.0
C747 C 0.43177 0.36518 0.90644 0.0
C748 C 0.41064 0.3637 0.95612 0.0
C749 C 0.4017 0.34064 0.98737 0.0
C750 C 0.46618 0.34428 0.83583 0.0
C751 C 0.3975 0.38646 0.97625 0.0
C752 C 0.46942 0.42744 0.87279 0.0
C753 C 0.46221 0.43272 0.797 0.0
C754 C 0.45925 0.40574 0.91022 0.0
C755 C 0.44122 0.3893 0.87123 0.0
C756 C 0.43308 0.39525 0.79634 0.0
C757 C 0.4438 0.41676 0.75996 0.0
C758 C 0.46854 0.39985 -0.01011 0.0
C759 C 0.41359 0.37846 0.75342 0.0
H760 H 0.44314 0.30397 0.90595 0.0
H761 H 0.38571 0.3396 0.02627 0.0
H762 H 0.46188 0.35075 0.77687 0.0
H763 H 0.48086 0.35785 0.8605 0.0
H764 H 0.47347 0.3258 0.82896 0.0
H765 H 0.38117 0.38211 0.01517 0.0
H766 H 0.4103 0.40089 0.0059 0.0
H767 H 0.39138 0.39466 0.92179 0.0
H768 H 0.48375 0.43965 0.90139 0.0
H769 H 0.43797 0.42092 0.70167 0.0
H770 H 0.47808 0.38261 0.98541 0.0
H771 H 0.4529 0.39627 0.03186 0.0
H772 H 0.48157 0.41519 0.01423 0.0
H773 H 0.42069 0.36029 0.73864 0.0
H774 H 0.40799 0.38672 0.69829 0.0
H775 H 0.39702 0.37462 0.79151 0.0
C776 C 0.14211 0.48893 0.93273 0.0
C777 C 0.14821 0.51222 0.96981 0.0
C778 C 0.1214 0.48484 0.88468 0.0
C779 C 0.10669 0.50458 0.87304 0.0
C780 C 0.11224 0.52781 0.91267 0.0
C781 C 0.13289 0.53131 0.96089 0.0
C782 C 0.11577 0.45969 0.8443 0.0
C783 C 0.09701 0.54935 0.90148 0.0
C784 C 0.07275 0.50707 0.6823 0.0
C785 C 0.04824 0.50056 0.70604 0.0
C786 C 0.092 0.50783 0.73581 0.0
C787 C 0.08665 0.5017 0.81485 0.0
C788 C 0.06211 0.49418 0.83869 0.0
C789 C 0.04313 0.49381 0.78399 0.0
C790 C 0.11796 0.51607 0.70823 0.0
C791 C 0.05585 0.48715 0.92233 0.0
H792 H 0.15374 0.47401 0.94014 0.0
H793 H 0.13744 0.54932 -0.01032 0.0
H794 H 0.09613 0.45271 0.85378 0.0
H795 H 0.11883 0.46148 0.78013 0.0
H796 H 0.1275 0.44562 0.86556 0.0
H797 H 0.10286 0.56565 0.94042 0.0
H798 H 0.09873 0.55531 0.83966 0.0
H799 H 0.07724 0.5435 0.91325 0.0
H800 H 0.07693 0.51225 0.62218 0.0
H801 H 0.02427 0.48857 0.80269 0.0
H802 H 0.1305 0.5019 0.7225 0.0
H803 H 0.12478 0.5337 0.73932 0.0
H804 H 0.11913 0.51915 0.64404 0.0
H805 H 0.06759 0.47282 0.9413 0.0
H806 H 0.03619 0.47985 0.92992 0.0
H807 H 0.05966 0.50372 0.96189 0.0
C808 C 0.0524 0.86013 0.26072 0.0
C809 C 0.03965 0.84649 0.20078 0.0
C810 C 0.04106 0.87757 0.30754 0.0
C811 C 0.01631 0.88177 0.29332 0.0
C812 C 0.00306 0.86764 0.23364 0.0
C813 C 0.01491 0.85012 0.18776 0.0
C814 C 0.05568 0.89152 0.37221 0.0
C815 C 0.9765 0.87118 0.21789 0.0
C816 C 0.9885 0.91794 0.46083 0.0
C817 C -0.00605 0.94263 0.43671 0.0
C818 C -0.006 0.89767 0.41231 0.0
C819 C 0.00527 0.90218 0.33799 0.0
C820 C 0.00928 0.92694 0.31123 0.0
C821 C 0.00356 0.94684 0.3608 0.0
C822 C 0.98924 0.87159 0.44293 0.0
C823 C 0.02144 0.9326 0.23264 0.0
H824 H 0.07151 0.85728 0.27066 0.0
H825 H 0.00509 0.84003 0.14027 0.0
H826 H 0.05374 0.91178 0.37072 0.0
H827 H 0.04838 0.88488 0.42989 0.0
H828 H 0.07559 0.88875 0.36835 0.0
H829 H 0.96962 0.86078 0.1642 0.0
H830 H 0.96483 0.86451 0.26846 0.0
H831 H 0.97423 0.89126 0.21172 0.0
H832 H 0.98088 0.91439 0.51905 0.0
H833 H 0.00785 0.96578 0.34128 0.0
H834 H 0.00695 0.86501 0.46048 0.0
H835 H 0.98126 0.85849 0.39671 0.0
H836 H 0.97658 0.87079 0.49476 0.0
H837 H 0.04123 0.92947 0.23517 0.0
H838 H 0.02014 0.95218 0.21572 0.0
H839 H 0.01295 0.91988 0.18625 0.0
C840 C 0.63884 0.95748 0.21717 0.0
C841 C 0.64876 0.97778 0.17296 0.0
C842 C 0.6183 0.95939 0.26676 0.0
C843 C 0.60739 0.98211 0.27215 0.0
C844 C 0.61776 0.00292 0.22973 0.0
C845 C 0.63833 0.00051 0.18051 0.0
C846 C 0.60803 0.93698 0.3125 0.0
C847 C 0.60678 0.02756 0.23507 0.0
C848 C 0.5396 0.97978 0.32832 0.0
C849 C 0.54076 0.98849 0.40624 0.0
C850 C 0.56123 0.9776 0.28402 0.0
C851 C 0.58445 0.98378 0.31939 0.0
C852 C 0.58561 0.99164 0.39928 0.0
C853 C 0.56365 0.99415 0.44151 0.0
C854 C 0.55923 0.96908 0.19906 0.0
C855 C 0.60987 0.99791 0.44016 0.0
H856 H 0.64689 0.9399 0.21218 0.0
H857 H 0.64596 0.01632 0.14688 0.0
H858 H 0.60718 0.94197 0.37599 0.0
H859 H 0.58892 0.93096 0.29375 0.0
H860 H 0.61926 0.92098 0.30429 0.0
H861 H 0.61742 0.04213 0.19996 0.0
H862 H 0.58753 0.02511 0.21396 0.0
H863 H 0.60615 0.03422 0.29715 0.0
H864 H 0.52177 0.97533 0.30145 0.0
H865 H 0.56436 4e-05 0.5026 0.0
H866 H 0.56903 0.95217 0.189 0.0
H867 H 0.56823 0.98379 0.16091 0.0
H868 H 0.53979 0.96478 0.18072 0.0
H869 H 0.62383 0.98542 0.42003 0.0
H870 H 0.60765 0.99654 0.50483 0.0
H871 H 0.61713 0.01733 0.42678 0.0
C872 C 0.5477 0.65023 0.31695 0.0
C873 C 0.57103 0.65372 0.28068 0.0
C874 C 0.54112 0.62956 0.36377 0.0
C875 C 0.55837 0.61208 0.37525 0.0
C876 C 0.5821 0.6157 0.34001 0.0
C877 C 0.58812 0.63643 0.29271 0.0
C878 C 0.51553 0.62619 0.39976 0.0
C879 C 0.60103 0.59754 0.35156 0.0
C880 C 0.54548 0.57008 0.54936 0.0
C881 C 0.53389 0.54838 0.51343 0.0
C882 C 0.55424 0.59072 0.50484 0.0
C883 C 0.55119 0.58967 0.42251 0.0
C884 C 0.54008 0.56762 0.38567 0.0
C885 C 0.53165 0.54719 0.43155 0.0
C886 C 0.56617 0.61386 0.54614 0.0
C887 C 0.53633 0.56589 0.29804 0.0
H888 H 0.53434 0.66341 0.30755 0.0
H889 H 0.60619 0.63904 0.26494 0.0
H890 H 0.50568 0.60841 0.37786 0.0
H891 H 0.51665 0.62504 0.46443 0.0
H892 H 0.50442 0.64168 0.38602 0.0
H893 H 0.61898 0.60358 0.32273 0.0
H894 H 0.60407 0.59541 0.4151 0.0
H895 H 0.59416 0.57889 0.32722 0.0
H896 H 0.54743 0.57111 0.61255 0.0
H897 H 0.52268 0.53054 0.40326 0.0
H898 H 0.55468 0.62951 0.53941 0.0
H899 H 0.58447 0.61952 0.51914 0.0
H900 H 0.56859 0.61109 0.60979 0.0
H901 H 0.52378 0.57973 0.28085 0.0
H902 H 0.52836 0.54705 0.2781 0.0
H903 H 0.55412 0.57044 0.26659 0.0
C904 C 0.82851 0.46717 0.26581 0.0
C905 C 0.81467 0.48364 0.2278 0.0
C906 C 0.85271 0.47463 0.28918 0.0
C907 C 0.86352 0.49894 0.27216 0.0
C908 C 0.84999 0.51526 0.23048 0.0
C909 C 0.82554 0.50753 0.20975 0.0
C910 C 0.86636 0.45681 0.33477 0.0
C911 C 0.86116 0.541 0.20919 0.0
C912 C 0.91124 0.52365 0.41973 0.0
C913 C 0.93311 0.51684 0.38437 0.0
C914 C 0.88863 0.51912 0.3819 0.0
C915 C 0.88786 0.50797 0.30587 0.0
C916 C 0.91011 0.5031 0.26682 0.0
C917 C 0.93256 0.50744 0.30686 0.0
C918 C 0.86538 0.5245 0.426 0.0
C919 C 0.91004 0.49186 0.18478 0.0
H920 H 0.82016 0.44864 0.27925 0.0
H921 H 0.81502 0.52008 0.1786 0.0
H922 H 0.88433 0.45425 0.30581 0.0
H923 H 0.87026 0.46472 0.39456 0.0
H924 H 0.85572 0.43824 0.34031 0.0
H925 H 0.84925 0.55028 0.16921 0.0
H926 H 0.86404 0.5528 0.26317 0.0
H927 H 0.87947 0.53997 0.18055 0.0
H928 H 0.9115 0.53132 0.47918 0.0
H929 H 0.94939 0.50224 0.27897 0.0
H930 H 0.85424 0.50667 0.43905 0.0
H931 H 0.85396 0.53551 0.38972 0.0
H932 H 0.86933 0.53489 0.48226 0.0
H933 H 0.90314 0.47181 0.18668 0.0
H934 H 0.92879 0.49344 0.15768 0.0
H935 H 0.89752 0.50105 0.14674 0.0
loop_
_geom_bond_atom_site_label_1
_geom_bond_atom_site_label_2
_geom_bond_distance
_geom_bond_site_symmetry_2
_ccdc_geom_bond_type
O0 Cd1 2.300 1_556 S
O0 C7 1.275 . S
Cd1 O0 2.300 1_554 S
Cd1 O9 2.381 1_554 S
Cd1 O10 2.378 . S
O2 Cd3 2.385 . S
O2 C7 1.255 1_554 S
Cd3 O2 2.385 . S
Cd3 O4 2.317 . S
O4 Cd3 2.317 . S
O4 C5 1.232 . S
C5 O4 1.232 . S
C5 O6 1.218 . S
O6 C5 1.218 . S
C7 O0 1.275 . S
C7 O2 1.255 1_556 S
C8 O9 1.258 . S
C8 O10 1.256 1_556 S
O9 Cd1 2.381 1_556 S
O9 C8 1.258 . S
O10 Cd1 2.378 . S
O10 C8 1.256 1_554 S
O11 Cd12 2.300 . S
O11 C18 1.275 . S
Cd12 O11 2.300 . S
Cd12 O20 2.381 . S
Cd12 O21 2.378 1_556 S
O13 Cd14 2.385 1_656 S
O13 C18 1.255 . S
Cd14 O13 2.385 1_454 S
Cd14 O15 2.317 1_455 S
O15 Cd14 2.317 1_655 S
O15 C16 1.232 . S
C16 O15 1.232 . S
C16 O17 1.218 . S
O17 C16 1.218 . S
C18 O11 1.275 . S
C18 O13 1.255 . S
C19 O20 1.258 . S
C19 O21 1.256 1_556 S
O20 Cd12 2.381 . S
O20 C19 1.258 . S
O21 Cd12 2.378 1_554 S
O21 C19 1.256 1_554 S
O22 Cd23 2.300 1_565 S
O22 C29 1.275 . S
Cd23 O22 2.300 1_545 S
Cd23 O31 2.381 1_545 S
Cd23 O32 2.378 1_556 S
O24 Cd25 2.385 1_556 S
O24 C29 1.255 1_545 S
Cd25 O24 2.385 1_554 S
Cd25 O26 2.317 . S
O26 Cd25 2.317 . S
O26 C27 1.232 1_545 S
C27 O26 1.232 1_565 S
C27 O28 1.218 1_565 S
O28 C27 1.218 1_545 S
C29 O22 1.275 . S
C29 O24 1.255 1_565 S
C30 O31 1.258 . S
C30 O32 1.256 1_566 S
O31 Cd23 2.381 1_565 S
O31 C30 1.258 . S
O32 Cd23 2.378 1_554 S
O32 C30 1.256 1_544 S
O33 Cd34 2.300 1_556 S
O33 C40 1.275 . S
Cd34 O33 2.300 1_554 S
Cd34 O42 2.381 1_554 S
Cd34 O43 2.378 . S
O35 Cd36 2.385 . S
O35 C40 1.255 1_554 S
Cd36 O35 2.385 . S
Cd36 O37 2.317 . S
O37 Cd36 2.317 . S
O37 C38 1.232 . S
C38 O37 1.232 . S
C38 O39 1.218 . S
O39 C38 1.218 . S
C40 O33 1.275 . S
C40 O35 1.255 1_556 S
C41 O42 1.258 1_554 S
C41 O43 1.256 . S
O42 Cd34 2.381 1_556 S
O42 C41 1.258 1_556 S
O43 Cd34 2.378 . S
O43 C41 1.256 . S
O44 Cd45 2.300 . S
O44 C51 1.275 . S
Cd45 O44 2.300 . S
Cd45 O53 2.381 . S
Cd45 O54 2.378 . S
O46 Cd47 2.385 . S
O46 C51 1.255 . S
Cd47 O46 2.385 . S
Cd47 O48 2.317 1_554 S
O48 Cd47 2.317 1_556 S
O48 C49 1.232 . S
C49 O48 1.232 . S
C49 O50 1.218 . S
O50 C49 1.218 . S
C51 O44 1.275 . S
C51 O46 1.255 . S
C52 O53 1.258 . S
C52 O54 1.256 . S
O53 Cd45 2.381 . S
O53 C52 1.258 . S
O54 Cd45 2.378 . S
O54 C52 1.256 . S
O55 Cd56 2.300 . S
O55 C62 1.275 . S
Cd56 O55 2.300 . S
Cd56 O64 2.381 . S
Cd56 O65 2.378 . S
O57 Cd58 2.385 . S
O57 C62 1.255 . S
Cd58 O57 2.385 . S
Cd58 O59 2.317 . S
O59 Cd58 2.317 . S
O59 C60 1.232 1_554 S
C60 O59 1.232 1_556 S
C60 O61 1.218 . S
O61 C60 1.218 . S
C62 O55 1.275 . S
C62 O57 1.255 . S
C63 O64 1.258 . S
C63 O65 1.256 . S
O64 Cd56 2.381 . S
O64 C63 1.258 . S
O65 Cd56 2.378 . S
O65 C63 1.256 . S
O66 Cd67 2.300 . S
O66 C73 1.275 . S
Cd67 O66 2.300 . S
Cd67 O75 2.381 . S
Cd67 O76 2.378 . S
O68 Cd69 2.385 . S
O68 C73 1.255 . S
Cd69 O68 2.385 . S
Cd69 O70 2.317 . S
O70 Cd69 2.317 . S
O70 C71 1.232 1_554 S
C71 O70 1.232 1_556 S
C71 O72 1.218 . S
O72 C71 1.218 . S
C73 O66 1.275 . S
C73 O68 1.255 . S
C74 O75 1.258 . S
C74 O76 1.256 . S
O75 Cd67 2.381 . S
O75 C74 1.258 . S
O76 Cd67 2.378 . S
O76 C74 1.256 . S
O77 Cd78 2.300 . S
O77 C84 1.275 . S
Cd78 O77 2.300 . S
Cd78 O86 2.381 . S
Cd78 O87 2.378 . S
O79 Cd80 2.385 . S
O79 C84 1.255 . S
Cd80 O79 2.385 . S
Cd80 O81 2.317 1_554 S
O81 Cd80 2.317 1_556 S
O81 C82 1.232 . S
C82 O81 1.232 . S
C82 O83 1.218 . S
O83 C82 1.218 . S
C84 O77 1.275 . S
C84 O79 1.255 . S
C85 O86 1.258 . S
C85 O87 1.256 . S
O86 Cd78 2.381 . S
O86 C85 1.258 . S
O87 Cd78 2.378 . S
O87 C85 1.256 . S
Dy88 O92 2.398 . S
Dy88 O93 2.491 1_455 S
Dy88 O94 2.403 . S
Dy88 O95 2.664 1_565 S
Dy88 O99 2.326 . S
Dy88 O103 2.310 1_455 S
Dy88 O104 2.351 1_565 S
C89 O100 1.185 1_455 S
C89 O101 1.355 . S
C90 O92 1.185 . S
C90 O93 1.355 1_455 S
Dy91 O95 2.310 1_655 S
Dy91 O98 2.351 1_545 S
Dy91 O100 2.398 . S
Dy91 O101 2.491 1_655 S
Dy91 O102 2.403 . S
Dy91 O103 2.664 1_545 S
Dy91 O105 2.326 1_655 S
O92 Dy88 2.398 . S
O92 C90 1.185 . S
O93 Dy88 2.491 1_655 S
O93 C90 1.355 1_655 S
O94 Dy88 2.403 . S
O94 C96 1.225 1_565 S
O95 Dy88 2.664 1_545 S
O95 Dy91 2.310 1_455 S
O95 C96 1.287 . S
C96 O94 1.225 1_545 S
C96 O95 1.287 . S
C97 O102 1.254 . S
C97 O103 1.268 1_545 S
O98 Dy91 2.351 1_565 S
O98 C106 1.249 . S
O99 Dy88 2.326 . S
O99 C106 1.267 1_455 S
O100 C89 1.185 1_655 S
O100 Dy91 2.398 . S
O101 C89 1.355 . S
O101 Dy91 2.491 1_455 S
O102 Dy91 2.403 . S
O102 C97 1.254 . S
O103 Dy88 2.310 1_655 S
O103 Dy91 2.664 1_565 S
O103 C97 1.268 1_565 S
O104 Dy88 2.351 1_545 S
O104 C107 1.249 . S
O105 Dy91 2.326 1_455 S
O105 C107 1.267 . S
C106 O98 1.249 . S
C106 O99 1.267 1_655 S
C107 O104 1.249 . S
C107 O105 1.267 . S
Dy108 O112 2.398 . S
Dy108 O113 2.491 1_565 S
Dy108 O114 2.403 . S
Dy108 O115 2.672 . S
Dy108 O119 2.326 1_565 S
Dy108 O123 2.310 1_565 S
Dy108 O124 2.351 . S
C109 O120 1.185 . S
C109 O121 1.355 . S
C110 O112 1.185 . S
C110 O113 1.355 1_565 S
Dy111 O115 2.291 1_545 S
Dy111 O118 2.351 . S
Dy111 O120 2.398 . S
Dy111 O121 2.491 . S
Dy111 O122 2.403 . S
Dy111 O123 2.664 . S
Dy111 O125 2.326 1_545 S
O112 Dy108 2.398 . S
O112 C110 1.185 . S
O113 Dy108 2.491 1_545 S
O113 C110 1.355 1_545 S
O114 Dy108 2.403 . S
O114 C116 1.254 . S
O115 Dy108 2.672 . S
O115 Dy111 2.291 1_565 S
O115 C116 1.278 . S
C116 O114 1.254 . S
C116 O115 1.278 . S
C117 O122 1.254 . S
C117 O123 1.268 . S
O118 Dy111 2.351 . S
O118 C126 1.249 . S
O119 Dy108 2.326 1_545 S
O119 C126 1.267 . S
O120 C109 1.185 . S
O120 Dy111 2.398 . S
O121 C109 1.355 . S
O121 Dy111 2.491 . S
O122 Dy111 2.403 . S
O122 C117 1.254 . S
O123 Dy108 2.310 1_545 S
O123 Dy111 2.664 . S
O123 C117 1.268 . S
O124 Dy108 2.351 . S
O124 C127 1.249 . S
O125 Dy111 2.326 1_565 S
O125 C127 1.267 . S
C126 O118 1.249 . S
C126 O119 1.267 . S
C127 O124 1.249 . S
C127 O125 1.267 . S
Dy128 O132 2.398 . S
Dy128 O133 2.491 . S
Dy128 O134 2.403 . S
Dy128 O135 2.664 . S
Dy128 O139 2.326 . S
Dy128 O143 2.310 . S
Dy128 O144 2.351 . S
C129 O140 1.185 . S
C129 O141 1.355 . S
C130 O132 1.185 . S
C130 O133 1.355 . S
Dy131 O135 2.310 . S
Dy131 O138 2.351 . S
Dy131 O140 2.398 . S
Dy131 O141 2.491 . S
Dy131 O142 2.403 . S
Dy131 O143 2.664 . S
Dy131 O145 2.326 . S
O132 Dy128 2.398 . S
O132 C130 1.185 . S
O133 Dy128 2.491 . S
O133 C130 1.355 . S
O134 Dy128 2.403 . S
O134 C136 1.254 . S
O135 Dy128 2.664 . S
O135 Dy131 2.310 . S
O135 C136 1.268 . S
C136 O134 1.254 . S
C136 O135 1.268 . S
C137 O142 1.254 . S
C137 O143 1.268 . S
O138 Dy131 2.351 . S
O138 C146 1.249 . S
O139 Dy128 2.326 . S
O139 C146 1.267 . S
O140 C129 1.185 . S
O140 Dy131 2.398 . S
O141 C129 1.355 . S
O141 Dy131 2.491 . S
O142 Dy131 2.403 . S
O142 C137 1.254 . S
O143 Dy128 2.310 . S
O143 Dy131 2.664 . S
O143 C137 1.268 . S
O144 Dy128 2.351 . S
O144 C147 1.249 . S
O145 Dy131 2.326 . S
O145 C147 1.267 . S
C146 O138 1.249 . S
C146 O139 1.267 . S
C147 O144 1.249 . S
C147 O145 1.267 . S
Dy148 O152 2.398 . S
Dy148 O153 2.491 . S
Dy148 O154 2.403 . S
Dy148 O155 2.664 1_655 S
Dy148 O159 2.326 . S
Dy148 O163 2.310 . S
Dy148 O164 2.351 1_655 S
C149 O160 1.185 . S
C149 O161 1.355 . S
C150 O152 1.185 . S
C150 O153 1.355 . S
Dy151 O155 2.310 . S
Dy151 O158 2.351 1_455 S
Dy151 O160 2.398 . S
Dy151 O161 2.491 . S
Dy151 O162 2.403 . S
Dy151 O163 2.664 1_455 S
Dy151 O165 2.326 . S
O152 Dy148 2.398 . S
O152 C150 1.185 . S
O153 Dy148 2.491 . S
O153 C150 1.355 . S
O154 Dy148 2.403 . S
O154 C156 1.254 1_655 S
O155 Dy148 2.664 1_455 S
O155 Dy151 2.310 . S
O155 C156 1.268 . S
C156 O154 1.254 1_455 S
C156 O155 1.268 . S
C157 O162 1.254 . S
C157 O163 1.268 1_455 S
O158 Dy151 2.351 1_655 S
O158 C166 1.249 . S
O159 Dy148 2.326 . S
O159 C166 1.267 . S
O160 C149 1.185 . S
O160 Dy151 2.398 . S
O161 C149 1.355 . S
O161 Dy151 2.491 . S
O162 Dy151 2.403 . S
O162 C157 1.254 . S
O163 Dy148 2.310 . S
O163 Dy151 2.664 1_655 S
O163 C157 1.268 1_655 S
O164 Dy148 2.351 1_455 S
O164 C167 1.249 . S
O165 Dy151 2.326 . S
O165 C167 1.267 . S
C166 O158 1.249 . S
C166 O159 1.267 . S
C167 O164 1.249 . S
C167 O165 1.267 . S
C168 C169 1.391 . S
C168 C170 1.394 . S
C168 H184 0.931 . S
C169 C168 1.391 . S
C169 C173 1.376 . S
C170 C168 1.394 . S
C170 C171 1.369 . S
C170 C174 1.531 . S
C171 C170 1.369 . S
C171 C172 1.410 . S
C171 C179 1.503 . S
C172 C171 1.410 . S
C172 C173 1.392 . S
C172 C175 1.511 . S
C173 C169 1.376 . S
C173 C172 1.392 . S
C173 H185 0.929 . S
C174 C170 1.531 . S
C174 H186 0.960 . S
C174 H187 0.962 . S
C174 H188 0.960 . S
C175 C172 1.511 . S
C175 H189 0.961 1_545 S
C175 H190 0.961 1_545 S
C175 H191 0.961 . S
C176 C177 1.370 1_565 S
C176 C178 1.363 . S
C176 H192 0.931 . S
C177 C176 1.370 1_545 S
C177 C181 1.408 . S
C178 C176 1.363 . S
C178 C179 1.370 1_565 S
C178 C182 1.524 . S
C179 C171 1.503 . S
C179 C178 1.370 1_545 S
C179 C180 1.403 . S
C180 C179 1.403 . S
C180 C181 1.404 . S
C180 C183 1.539 . S
C181 C177 1.408 . S
C181 C180 1.404 . S
C181 H193 0.930 . S
C182 C178 1.524 . S
C182 H194 0.956 . S
C182 H195 0.961 . S
C182 H196 0.961 . S
C183 C180 1.539 . S
C183 H197 0.958 . S
C183 H198 0.961 . S
C183 H199 0.960 . S
H184 C168 0.931 . S
H185 C173 0.929 . S
H186 C174 0.960 . S
H187 C174 0.962 . S
H188 C174 0.960 . S
H189 C175 0.961 1_565 S
H190 C175 0.961 1_565 S
H191 C175 0.961 . S
H192 C176 0.931 . S
H193 C181 0.930 . S
H194 C182 0.956 . S
H195 C182 0.961 . S
H196 C182 0.961 . S
H197 C183 0.958 . S
H198 C183 0.961 . S
H199 C183 0.960 . S
C200 C201 1.391 . S
C200 C202 1.394 . S
C200 H216 0.931 . S
C201 C200 1.391 . S
C201 C205 1.376 . S
C202 C200 1.394 . S
C202 C203 1.369 . S
C202 C206 1.531 . S
C203 C202 1.369 . S
C203 C204 1.410 . S
C203 C211 1.503 . S
C204 C203 1.410 . S
C204 C205 1.392 . S
C204 C207 1.511 . S
C205 C201 1.376 . S
C205 C204 1.392 . S
C205 H217 0.929 . S
C206 C202 1.531 . S
C206 H218 0.960 . S
C206 H219 0.962 . S
C206 H220 0.960 . S
C207 C204 1.511 . S
C207 H221 0.961 . S
C207 H222 0.961 . S
C207 H223 0.961 . S
C208 C209 1.370 . S
C208 C210 1.363 . S
C208 H224 0.931 . S
C209 C208 1.370 . S
C209 C213 1.408 . S
C210 C208 1.363 . S
C210 C211 1.370 . S
C210 C214 1.524 . S
C211 C203 1.503 . S
C211 C210 1.370 . S
C211 C212 1.403 . S
C212 C211 1.403 . S
C212 C213 1.404 . S
C212 C215 1.539 . S
C213 C209 1.408 . S
C213 C212 1.404 . S
C213 H225 0.930 . S
C214 C210 1.524 . S
C214 H226 0.956 . S
C214 H227 0.961 . S
C214 H228 0.961 . S
C215 C212 1.539 . S
C215 H229 0.958 . S
C215 H230 0.961 . S
C215 H231 0.960 . S
H216 C200 0.931 . S
H217 C205 0.929 . S
H218 C206 0.960 . S
H219 C206 0.962 . S
H220 C206 0.960 . S
H221 C207 0.961 . S
H222 C207 0.961 . S
H223 C207 0.961 . S
H224 C208 0.931 . S
H225 C213 0.930 . S
H226 C214 0.956 . S
H227 C214 0.961 . S
H228 C214 0.961 . S
H229 C215 0.958 . S
H230 C215 0.961 . S
H231 C215 0.960 . S
C232 C233 1.391 . S
C232 C234 1.394 . S
C232 H248 0.931 . S
C233 C232 1.391 . S
C233 C237 1.376 . S
C234 C232 1.394 . S
C234 C235 1.369 . S
C234 C238 1.531 . S
C235 C234 1.369 . S
C235 C236 1.410 . S
C235 C243 1.503 . S
C236 C235 1.410 . S
C236 C237 1.392 . S
C236 C239 1.511 . S
C237 C233 1.376 . S
C237 C236 1.392 . S
C237 H249 0.929 . S
C238 C234 1.531 . S
C238 H250 0.960 . S
C238 H251 0.962 . S
C238 H252 0.960 . S
C239 C236 1.511 . S
C239 H253 0.961 . S
C239 H254 0.961 . S
C239 H255 0.961 . S
C240 C241 1.370 . S
C240 C242 1.363 . S
C240 H256 0.931 . S
C241 C240 1.370 . S
C241 C245 1.408 . S
C242 C240 1.363 . S
C242 C243 1.370 . S
C242 C246 1.524 . S
C243 C235 1.503 . S
C243 C242 1.370 . S
C243 C244 1.403 . S
C244 C243 1.403 . S
C244 C245 1.404 . S
C244 C247 1.539 . S
C245 C241 1.408 . S
C245 C244 1.404 . S
C245 H257 0.930 . S
C246 C242 1.524 . S
C246 H258 0.956 . S
C246 H259 0.961 . S
C246 H260 0.961 . S
C247 C244 1.539 . S
C247 H261 0.958 . S
C247 H262 0.961 . S
C247 H263 0.960 . S
H248 C232 0.931 . S
H249 C237 0.929 . S
H250 C238 0.960 . S
H251 C238 0.962 . S
H252 C238 0.960 . S
H253 C239 0.961 . S
H254 C239 0.961 . S
H255 C239 0.961 . S
H256 C240 0.931 . S
H257 C245 0.930 . S
H258 C246 0.956 . S
H259 C246 0.961 . S
H260 C246 0.961 . S
H261 C247 0.958 . S
H262 C247 0.961 . S
H263 C247 0.960 . S
C264 C265 1.391 . S
C264 C266 1.394 . S
C264 H280 0.931 . S
C265 C264 1.391 . S
C265 C269 1.376 . S
C266 C264 1.394 . S
C266 C267 1.369 . S
C266 C270 1.531 . S
C267 C266 1.369 . S
C267 C268 1.410 . S
C267 C275 1.503 . S
C268 C267 1.410 . S
C268 C269 1.392 . S
C268 C271 1.511 . S
C269 C265 1.376 . S
C269 C268 1.392 . S
C269 H281 0.929 . S
C270 C266 1.531 . S
C270 H282 0.960 . S
C270 H283 0.962 1_455 S
C270 H284 0.960 . S
C271 C268 1.511 . S
C271 H285 0.961 . S
C271 H286 0.961 . S
C271 H287 0.961 . S
C272 C273 1.370 . S
C272 C274 1.363 . S
C272 H288 0.931 1_455 S
C273 C272 1.370 . S
C273 C277 1.408 . S
C274 C272 1.363 . S
C274 C275 1.370 . S
C274 C278 1.524 . S
C275 C267 1.503 . S
C275 C274 1.370 . S
C275 C276 1.403 . S
C276 C275 1.403 . S
C276 C277 1.404 . S
C276 C279 1.539 . S
C277 C273 1.408 . S
C277 C276 1.404 . S
C277 H289 0.930 . S
C278 C274 1.524 . S
C278 H290 0.956 1_455 S
C278 H291 0.961 . S
C278 H292 0.961 1_455 S
C279 C276 1.539 . S
C279 H293 0.958 . S
C279 H294 0.961 . S
C279 H295 0.960 . S
H280 C264 0.931 . S
H281 C269 0.929 . S
H282 C270 0.960 . S
H283 C270 0.962 1_655 S
H284 C270 0.960 . S
H285 C271 0.961 . S
H286 C271 0.961 . S
H287 C271 0.961 . S
H288 C272 0.931 1_655 S
H289 C277 0.930 . S
H290 C278 0.956 1_655 S
H291 C278 0.961 . S
H292 C278 0.961 1_655 S
H293 C279 0.958 . S
H294 C279 0.961 . S
H295 C279 0.960 . S
C296 C297 1.391 1_545 S
C296 C298 1.394 . S
C296 H312 0.931 . S
C297 C296 1.391 1_565 S
C297 C301 1.376 . S
C298 C296 1.394 . S
C298 C299 1.369 1_545 S
C298 C302 1.531 . S
C299 C298 1.369 1_565 S
C299 C300 1.410 . S
C299 C307 1.503 . S
C300 C299 1.410 . S
C300 C301 1.392 . S
C300 C303 1.511 . S
C301 C297 1.376 . S
C301 C300 1.392 . S
C301 H313 0.929 . S
C302 C298 1.531 . S
C302 H314 0.960 . S
C302 H315 0.962 . S
C302 H316 0.960 . S
C303 C300 1.511 . S
C303 H317 0.961 . S
C303 H318 0.961 . S
C303 H319 0.961 . S
C304 C305 1.370 . S
C304 C306 1.363 . S
C304 H320 0.931 . S
C305 C304 1.370 . S
C305 C309 1.408 1_565 S
C306 C304 1.363 . S
C306 C307 1.370 . S
C306 C310 1.524 . S
C307 C299 1.503 . S
C307 C306 1.370 . S
C307 C308 1.405 . S
C308 C307 1.405 . S
C308 C309 1.404 1_565 S
C308 C311 1.543 . S
C309 C305 1.408 1_545 S
C309 C308 1.404 1_545 S
C309 H321 0.930 . S
C310 C306 1.524 . S
C310 H322 0.956 1_565 S
C310 H323 0.961 . S
C310 H324 0.961 . S
C311 C308 1.543 . S
C311 H325 0.958 1_565 S
C311 H326 0.961 . S
C311 H327 0.960 . S
H312 C296 0.931 . S
H313 C301 0.929 . S
H314 C302 0.960 . S
H315 C302 0.962 . S
H316 C302 0.960 . S
H317 C303 0.961 . S
H318 C303 0.961 . S
H319 C303 0.961 . S
H320 C304 0.931 . S
H321 C309 0.930 . S
H322 C310 0.956 1_545 S
H323 C310 0.961 . S
H324 C310 0.961 . S
H325 C311 0.958 1_545 S
H326 C311 0.961 . S
H327 C311 0.960 . S
C328 C329 1.391 . S
C328 C330 1.394 . S
C328 H344 0.931 . S
C329 C328 1.391 . S
C329 C333 1.376 . S
C330 C328 1.394 . S
C330 C331 1.369 . S
C330 C334 1.531 . S
C331 C330 1.369 . S
C331 C332 1.410 . S
C331 C339 1.503 . S
C332 C331 1.410 . S
C332 C333 1.392 . S
C332 C335 1.511 . S
C333 C329 1.376 . S
C333 C332 1.392 . S
C333 H345 0.929 . S
C334 C330 1.531 . S
C334 H346 0.960 . S
C334 H347 0.962 . S
C334 H348 0.960 . S
C335 C332 1.511 . S
C335 H349 0.961 . S
C335 H350 0.961 . S
C335 H351 0.961 . S
C336 C337 1.370 . S
C336 C338 1.363 . S
C336 H352 0.931 . S
C337 C336 1.370 . S
C337 C341 1.408 . S
C338 C336 1.363 . S
C338 C339 1.370 . S
C338 C342 1.524 . S
C339 C331 1.503 . S
C339 C338 1.370 . S
C339 C340 1.403 . S
C340 C339 1.403 . S
C340 C341 1.404 . S
C340 C343 1.539 . S
C341 C337 1.408 . S
C341 C340 1.404 . S
C341 H353 0.930 . S
C342 C338 1.524 . S
C342 H354 0.956 . S
C342 H355 0.961 . S
C342 H356 0.961 . S
C343 C340 1.539 . S
C343 H357 0.958 . S
C343 H358 0.961 . S
C343 H359 0.960 . S
H344 C328 0.931 . S
H345 C333 0.929 . S
H346 C334 0.960 . S
H347 C334 0.962 . S
H348 C334 0.960 . S
H349 C335 0.961 . S
H350 C335 0.961 . S
H351 C335 0.961 . S
H352 C336 0.931 . S
H353 C341 0.930 . S
H354 C342 0.956 . S
H355 C342 0.961 . S
H356 C342 0.961 . S
H357 C343 0.958 . S
H358 C343 0.961 . S
H359 C343 0.960 . S
C360 C361 1.391 . S
C360 C362 1.394 . S
C360 H376 0.931 1_556 S
C361 C360 1.391 . S
C361 C365 1.376 . S
C362 C360 1.394 . S
C362 C363 1.369 . S
C362 C366 1.531 . S
C363 C362 1.369 . S
C363 C364 1.410 . S
C363 C371 1.503 . S
C364 C363 1.410 . S
C364 C365 1.392 . S
C364 C367 1.511 . S
C365 C361 1.376 . S
C365 C364 1.392 . S
C365 H377 0.929 . S
C366 C362 1.531 . S
C366 H378 0.960 . S
C366 H379 0.962 . S
C366 H380 0.960 . S
C367 C364 1.511 . S
C367 H381 0.961 . S
C367 H382 0.961 . S
C367 H383 0.961 . S
C368 C369 1.370 . S
C368 C370 1.363 . S
C368 H384 0.931 . S
C369 C368 1.370 . S
C369 C373 1.408 . S
C370 C368 1.363 . S
C370 C371 1.370 . S
C370 C374 1.524 . S
C371 C363 1.503 . S
C371 C370 1.370 . S
C371 C372 1.403 . S
C372 C371 1.403 . S
C372 C373 1.404 . S
C372 C375 1.539 . S
C373 C369 1.408 . S
C373 C372 1.404 . S
C373 H385 0.930 . S
C374 C370 1.524 . S
C374 H386 0.956 . S
C374 H387 0.961 . S
C374 H388 0.961 . S
C375 C372 1.539 . S
C375 H389 0.958 . S
C375 H390 0.961 . S
C375 H391 0.960 . S
H376 C360 0.931 1_554 S
H377 C365 0.929 . S
H378 C366 0.960 . S
H379 C366 0.962 . S
H380 C366 0.960 . S
H381 C367 0.961 . S
H382 C367 0.961 . S
H383 C367 0.961 . S
H384 C368 0.931 . S
H385 C373 0.930 . S
H386 C374 0.956 . S
H387 C374 0.961 . S
H388 C374 0.961 . S
H389 C375 0.958 . S
H390 C375 0.961 . S
H391 C375 0.960 . S
C392 C393 1.391 . S
C392 C394 1.394 . S
C392 H408 0.931 . S
C393 C392 1.391 . S
C393 C397 1.376 . S
C394 C392 1.394 . S
C394 C395 1.369 . S
C394 C398 1.531 1_655 S
C395 C394 1.369 . S
C395 C396 1.410 . S
C395 C403 1.503 . S
C396 C395 1.410 . S
C396 C397 1.392 . S
C396 C399 1.511 . S
C397 C393 1.376 . S
C397 C396 1.392 . S
C397 H409 0.929 . S
C398 C394 1.531 1_455 S
C398 H410 0.960 . S
C398 H411 0.962 . S
C398 H412 0.960 . S
C399 C396 1.511 . S
C399 H413 0.961 . S
C399 H414 0.961 . S
C399 H415 0.961 . S
C400 C401 1.370 1_455 S
C400 C402 1.369 . S
C400 H416 0.931 . S
C401 C400 1.370 1_655 S
C401 C405 1.408 . S
C402 C400 1.369 . S
C402 C403 1.360 1_455 S
C402 C406 1.529 . S
C403 C395 1.503 . S
C403 C402 1.360 1_655 S
C403 C404 1.403 . S
C404 C403 1.403 . S
C404 C405 1.404 . S
C404 C407 1.539 . S
C405 C401 1.408 . S
C405 C404 1.404 . S
C405 H417 0.930 . S
C406 C402 1.529 . S
C406 H418 0.956 . S
C406 H419 0.961 1_455 S
C406 H420 0.961 . S
C407 C404 1.539 . S
C407 H421 0.958 . S
C407 H422 0.961 . S
C407 H423 0.960 . S
H408 C392 0.931 . S
H409 C397 0.929 . S
H410 C398 0.960 . S
H411 C398 0.962 . S
H412 C398 0.960 . S
H413 C399 0.961 . S
H414 C399 0.961 . S
H415 C399 0.961 . S
H416 C400 0.931 . S
H417 C405 0.930 . S
H418 C406 0.956 . S
H419 C406 0.961 1_655 S
H420 C406 0.961 . S
H421 C407 0.958 . S
H422 C407 0.961 . S
H423 C407 0.960 . S
C424 C425 1.391 . S
C424 C426 1.394 . S
C424 H440 0.931 . S
C425 C424 1.391 . S
C425 C429 1.376 . S
C426 C424 1.394 . S
C426 C427 1.369 . S
C426 C430 1.531 . S
C427 C426 1.369 . S
C427 C428 1.410 . S
C427 C435 1.503 . S
C428 C427 1.410 . S
C428 C429 1.392 . S
C428 C431 1.511 1_455 S
C429 C425 1.376 . S
C429 C428 1.392 . S
C429 H441 0.929 . S
C430 C426 1.531 . S
C430 H442 0.960 . S
C430 H443 0.962 . S
C430 H444 0.960 . S
C431 C428 1.511 1_655 S
C431 H445 0.961 . S
C431 H446 0.961 . S
C431 H447 0.961 . S
C432 C433 1.370 . S
C432 C434 1.363 . S
C432 H448 0.931 . S
C433 C432 1.370 . S
C433 C437 1.408 . S
C434 C432 1.363 . S
C434 C435 1.370 . S
C434 C438 1.524 . S
C435 C427 1.503 . S
C435 C434 1.370 . S
C435 C436 1.403 . S
C436 C435 1.403 . S
C436 C437 1.404 . S
C436 C439 1.539 . S
C437 C433 1.408 . S
C437 C436 1.404 . S
C437 H449 0.930 1_455 S
C438 C434 1.524 . S
C438 H450 0.956 . S
C438 H451 0.961 . S
C438 H452 0.961 . S
C439 C436 1.539 . S
C439 H453 0.958 . S
C439 H454 0.961 1_455 S
C439 H455 0.958 1_455 S
H440 C424 0.931 . S
H441 C429 0.929 . S
H442 C430 0.960 . S
H443 C430 0.962 . S
H444 C430 0.960 . S
H445 C431 0.961 . S
H446 C431 0.961 . S
H447 C431 0.961 . S
H448 C432 0.931 . S
H449 C437 0.930 1_655 S
H450 C438 0.956 . S
H451 C438 0.961 . S
H452 C438 0.961 . S
H453 C439 0.958 . S
H454 C439 0.961 1_655 S
H455 C439 0.958 1_655 S
C456 C457 1.391 . S
C456 C458 1.394 . S
C456 H472 0.931 . S
C457 C456 1.391 . S
C457 C461 1.376 . S
C458 C456 1.394 . S
C458 C459 1.369 . S
C458 C462 1.531 1_545 S
C459 C458 1.369 . S
C459 C460 1.410 . S
C459 C467 1.503 . S
C460 C459 1.410 . S
C460 C461 1.392 . S
C460 C463 1.511 . S
C461 C457 1.376 . S
C461 C460 1.392 . S
C461 H473 0.929 . S
C462 C458 1.531 1_565 S
C462 H474 0.960 . S
C462 H475 0.962 1_565 S
C462 H476 0.960 . S
C463 C460 1.511 . S
C463 H477 0.961 . S
C463 H478 0.961 . S
C463 H479 0.961 . S
C464 C465 1.370 1_545 S
C464 C466 1.363 . S
C464 H480 0.931 . S
C465 C464 1.370 1_565 S
C465 C469 1.408 . S
C466 C464 1.363 . S
C466 C467 1.370 . S
C466 C470 1.524 . S
C467 C459 1.503 . S
C467 C466 1.370 . S
C467 C468 1.403 1_545 S
C468 C467 1.403 1_565 S
C468 C469 1.404 . S
C468 C471 1.539 . S
C469 C465 1.408 . S
C469 C468 1.404 . S
C469 H481 0.930 . S
C470 C466 1.524 . S
C470 H482 0.956 . S
C470 H483 0.961 . S
C470 H484 0.961 . S
C471 C468 1.539 . S
C471 H485 0.958 . S
C471 H486 0.961 . S
C471 H487 0.960 . S
H472 C456 0.931 . S
H473 C461 0.929 . S
H474 C462 0.960 . S
H475 C462 0.962 1_545 S
H476 C462 0.960 . S
H477 C463 0.961 . S
H478 C463 0.961 . S
H479 C463 0.961 . S
H480 C464 0.931 . S
H481 C469 0.930 . S
H482 C470 0.956 . S
H483 C470 0.961 . S
H484 C470 0.961 . S
H485 C471 0.958 . S
H486 C471 0.961 . S
H487 C471 0.960 . S
C488 C489 1.391 . S
C488 C490 1.394 . S
C488 H504 0.931 . S
C489 C488 1.391 . S
C489 C493 1.376 . S
C490 C488 1.394 . S
C490 C491 1.369 . S
C490 C494 1.531 . S
C491 C490 1.369 . S
C491 C492 1.410 . S
C491 C499 1.503 . S
C492 C491 1.410 . S
C492 C493 1.392 . S
C492 C495 1.511 . S
C493 C489 1.376 . S
C493 C492 1.392 . S
C493 H505 0.929 . S
C494 C490 1.531 . S
C494 H506 0.960 . S
C494 H507 0.962 . S
C494 H508 0.960 . S
C495 C492 1.511 . S
C495 H509 0.961 . S
C495 H510 0.961 . S
C495 H511 0.961 . S
C496 C497 1.370 . S
C496 C498 1.363 . S
C496 H512 0.931 . S
C497 C496 1.370 . S
C497 C501 1.408 . S
C498 C496 1.363 . S
C498 C499 1.370 . S
C498 C502 1.524 . S
C499 C491 1.503 . S
C499 C498 1.370 . S
C499 C500 1.403 . S
C500 C499 1.403 . S
C500 C501 1.404 . S
C500 C503 1.539 . S
C501 C497 1.408 . S
C501 C500 1.404 . S
C501 H513 0.930 . S
C502 C498 1.524 . S
C502 H514 0.956 . S
C502 H515 0.961 . S
C502 H516 0.961 . S
C503 C500 1.539 . S
C503 H517 0.958 . S
C503 H518 0.961 . S
C503 H519 0.960 . S
H504 C488 0.931 . S
H505 C493 0.929 . S
H506 C494 0.960 . S
H507 C494 0.962 . S
H508 C494 0.960 . S
H509 C495 0.961 . S
H510 C495 0.961 . S
H511 C495 0.961 . S
H512 C496 0.931 . S
H513 C501 0.930 . S
H514 C502 0.956 . S
H515 C502 0.961 . S
H516 C502 0.961 . S
H517 C503 0.958 . S
H518 C503 0.961 . S
H519 C503 0.960 . S
C520 C521 1.391 . S
C520 C522 1.394 . S
C520 H536 0.931 . S
C521 C520 1.391 . S
C521 C525 1.376 . S
C522 C520 1.394 . S
C522 C523 1.369 . S
C522 C526 1.531 . S
C523 C522 1.369 . S
C523 C524 1.410 . S
C523 C531 1.503 . S
C524 C523 1.410 . S
C524 C525 1.392 . S
C524 C527 1.511 . S
C525 C521 1.376 . S
C525 C524 1.392 . S
C525 H537 0.929 . S
C526 C522 1.531 . S
C526 H538 0.960 . S
C526 H539 0.962 . S
C526 H540 0.960 . S
C527 C524 1.511 . S
C527 H541 0.961 . S
C527 H542 0.961 . S
C527 H543 0.961 . S
C528 C529 1.370 . S
C528 C530 1.363 . S
C528 H544 0.931 . S
C529 C528 1.370 . S
C529 C533 1.408 . S
C530 C528 1.363 . S
C530 C531 1.370 . S
C530 C534 1.524 . S
C531 C523 1.503 . S
C531 C530 1.370 . S
C531 C532 1.403 . S
C532 C531 1.403 . S
C532 C533 1.404 . S
C532 C535 1.539 . S
C533 C529 1.408 . S
C533 C532 1.404 . S
C533 H545 0.930 . S
C534 C530 1.524 . S
C534 H546 0.956 . S
C534 H547 0.961 . S
C534 H548 0.961 . S
C535 C532 1.539 . S
C535 H549 0.958 . S
C535 H550 0.961 . S
C535 H551 0.960 . S
H536 C520 0.931 . S
H537 C525 0.929 . S
H538 C526 0.960 . S
H539 C526 0.962 . S
H540 C526 0.960 . S
H541 C527 0.961 . S
H542 C527 0.961 . S
H543 C527 0.961 . S
H544 C528 0.931 . S
H545 C533 0.930 . S
H546 C534 0.956 . S
H547 C534 0.961 . S
H548 C534 0.961 . S
H549 C535 0.958 . S
H550 C535 0.961 . S
H551 C535 0.960 . S
C552 C553 1.391 . S
C552 C554 1.394 . S
C552 H568 0.899 1_655 S
C553 C552 1.391 . S
C553 C557 1.376 . S
C554 C552 1.394 . S
C554 C555 1.369 . S
C554 C558 1.531 1_655 S
C555 C554 1.369 . S
C555 C556 1.410 . S
C555 C563 1.503 . S
C556 C555 1.410 . S
C556 C557 1.392 . S
C556 C559 1.511 . S
C557 C553 1.376 . S
C557 C556 1.392 . S
C557 H569 0.929 . S
C558 C554 1.531 1_455 S
C558 H570 0.960 . S
C558 H571 0.962 . S
C558 H572 0.960 . S
C559 C556 1.511 . S
C559 H573 0.961 . S
C559 H574 0.961 . S
C559 H575 0.961 . S
C560 C561 1.370 1_655 S
C560 C562 1.363 . S
C560 H576 0.931 . S
C561 C560 1.370 1_455 S
C561 C565 1.408 . S
C562 C560 1.363 . S
C562 C563 1.370 . S
C562 C566 1.524 . S
C563 C555 1.503 . S
C563 C562 1.370 . S
C563 C564 1.403 1_655 S
C564 C563 1.403 1_455 S
C564 C565 1.404 . S
C564 C567 1.539 . S
C565 C561 1.408 . S
C565 C564 1.404 . S
C565 H577 0.930 . S
C566 C562 1.524 . S
C566 H578 0.956 . S
C566 H579 0.961 . S
C566 H580 0.961 . S
C567 C564 1.539 . S
C567 H581 0.958 . S
C567 H582 0.961 . S
C567 H583 0.960 1_455 S
H568 C552 0.899 1_455 S
H569 C557 0.929 . S
H570 C558 0.960 . S
H571 C558 0.962 . S
H572 C558 0.960 . S
H573 C559 0.961 . S
H574 C559 0.961 . S
H575 C559 0.961 . S
H576 C560 0.931 . S
H577 C565 0.930 . S
H578 C566 0.956 . S
H579 C566 0.961 . S
H580 C566 0.961 . S
H581 C567 0.958 . S
H582 C567 0.961 . S
H583 C567 0.960 1_655 S
C584 C585 1.391 . S
C584 C586 1.394 . S
C584 H600 0.931 . S
C585 C584 1.391 . S
C585 C589 1.376 . S
C586 C584 1.394 . S
C586 C587 1.369 . S
C586 C590 1.545 . S
C587 C586 1.369 . S
C587 C588 1.410 . S
C587 C595 1.503 . S
C588 C587 1.410 . S
C588 C589 1.392 . S
C588 C591 1.511 1_556 S
C589 C585 1.376 . S
C589 C588 1.392 . S
C589 H601 0.929 1_556 S
C590 C586 1.545 . S
C590 H602 0.975 . S
C590 H603 0.914 1_565 S
C590 H604 0.981 . S
C591 C588 1.511 1_554 S
C591 H605 0.961 . S
C591 H606 0.961 1_554 S
C591 H607 0.961 1_554 S
C592 C593 1.370 . S
C592 C594 1.363 . S
C592 H608 0.931 . S
C593 C592 1.370 . S
C593 C597 1.408 1_545 S
C594 C592 1.363 . S
C594 C595 1.370 1_545 S
C594 C598 1.524 . S
C595 C587 1.503 . S
C595 C594 1.370 1_565 S
C595 C596 1.403 . S
C596 C595 1.403 . S
C596 C597 1.404 . S
C596 C599 1.539 . S
C597 C593 1.408 1_565 S
C597 C596 1.404 . S
C597 H609 0.930 . S
C598 C594 1.524 . S
C598 H610 0.956 . S
C598 H611 0.961 . S
C598 H612 0.961 . S
C599 C596 1.539 . S
C599 H613 0.958 . S
C599 H614 0.961 . S
C599 H615 0.960 . S
H600 C584 0.931 . S
H601 C589 0.929 1_554 S
H602 C590 0.975 . S
H603 C590 0.914 1_545 S
H604 C590 0.981 . S
H605 C591 0.961 . S
H606 C591 0.961 1_556 S
H607 C591 0.961 1_556 S
H608 C592 0.931 . S
H609 C597 0.930 . S
H610 C598 0.956 . S
H611 C598 0.961 . S
H612 C598 0.961 . S
H613 C599 0.958 . S
H614 C599 0.961 . S
H615 C599 0.960 . S
C616 C617 1.391 . S
C616 C618 1.394 . S
C616 H632 0.931 . S
C617 C616 1.391 . S
C617 C621 1.376 1_556 S
C618 C616 1.394 . S
C618 C619 1.369 . S
C618 C622 1.531 . S
C619 C618 1.369 . S
C619 C620 1.410 . S
C619 C627 1.503 . S
C620 C619 1.410 . S
C620 C621 1.392 1_556 S
C620 C623 1.511 1_556 S
C621 C617 1.376 1_554 S
C621 C620 1.392 1_554 S
C621 H633 0.929 . S
C622 C618 1.531 . S
C622 H634 0.960 . S
C622 H635 0.962 . S
C622 H636 0.960 . S
C623 C620 1.511 1_554 S
C623 H637 0.961 . S
C623 H638 0.961 1_554 S
C623 H639 0.961 . S
C624 C625 1.370 . S
C624 C626 1.363 . S
C624 H640 0.931 . S
C625 C624 1.370 . S
C625 C629 1.408 . S
C626 C624 1.363 . S
C626 C627 1.370 . S
C626 C630 1.524 . S
C627 C619 1.503 . S
C627 C626 1.370 . S
C627 C628 1.403 . S
C628 C627 1.403 . S
C628 C629 1.404 . S
C628 C631 1.539 . S
C629 C625 1.408 . S
C629 C628 1.404 . S
C629 H641 0.930 . S
C630 C626 1.524 . S
C630 H642 0.956 . S
C630 H643 0.961 . S
C630 H644 0.961 . S
C631 C628 1.539 . S
C631 H645 0.958 . S
C631 H646 0.961 . S
C631 H647 0.960 . S
H632 C616 0.931 . S
H633 C621 0.929 . S
H634 C622 0.960 . S
H635 C622 0.962 . S
H636 C622 0.960 . S
H637 C623 0.961 . S
H638 C623 0.961 1_556 S
H639 C623 0.961 . S
H640 C624 0.931 . S
H641 C629 0.930 . S
H642 C630 0.956 . S
H643 C630 0.961 . S
H644 C630 0.961 . S
H645 C631 0.958 . S
H646 C631 0.961 . S
H647 C631 0.960 . S
C648 C649 1.391 . S
C648 C650 1.394 . S
C648 H664 0.931 . S
C649 C648 1.391 . S
C649 C653 1.376 . S
C650 C648 1.394 . S
C650 C651 1.369 . S
C650 C654 1.531 . S
C651 C650 1.369 . S
C651 C652 1.410 . S
C651 C659 1.503 . S
C652 C651 1.410 . S
C652 C653 1.392 . S
C652 C655 1.511 . S
C653 C649 1.376 . S
C653 C652 1.392 . S
C653 H665 0.929 1_556 S
C654 C650 1.531 . S
C654 H666 0.960 . S
C654 H667 0.962 . S
C654 H668 0.960 . S
C655 C652 1.511 . S
C655 H669 0.961 1_556 S
C655 H670 0.961 . S
C655 H671 0.961 1_556 S
C656 C657 1.370 . S
C656 C658 1.363 . S
C656 H672 0.931 . S
C657 C656 1.370 . S
C657 C661 1.408 . S
C658 C656 1.363 . S
C658 C659 1.370 . S
C658 C662 1.524 . S
C659 C651 1.503 . S
C659 C658 1.370 . S
C659 C660 1.403 . S
C660 C659 1.403 . S
C660 C661 1.404 . S
C660 C663 1.539 . S
C661 C657 1.408 . S
C661 C660 1.404 . S
C661 H673 0.930 . S
C662 C658 1.524 . S
C662 H674 0.956 . S
C662 H675 0.961 . S
C662 H676 0.961 . S
C663 C660 1.539 . S
C663 H677 0.958 . S
C663 H678 0.961 . S
C663 H679 0.960 . S
H664 C648 0.931 . S
H665 C653 0.929 1_554 S
H666 C654 0.960 . S
H667 C654 0.962 . S
H668 C654 0.960 . S
H669 C655 0.961 1_554 S
H670 C655 0.961 . S
H671 C655 0.961 1_554 S
H672 C656 0.931 . S
H673 C661 0.930 . S
H674 C662 0.956 . S
H675 C662 0.961 . S
H676 C662 0.961 . S
H677 C663 0.958 . S
H678 C663 0.961 . S
H679 C663 0.960 . S
C680 C681 1.391 . S
C680 C682 1.394 . S
C680 H696 0.931 1_556 S
C681 C680 1.391 . S
C681 C685 1.376 . S
C682 C680 1.394 . S
C682 C683 1.369 . S
C682 C686 1.531 . S
C683 C682 1.369 . S
C683 C684 1.410 . S
C683 C691 1.503 . S
C684 C683 1.410 . S
C684 C685 1.392 . S
C684 C687 1.511 . S
C685 C681 1.376 . S
C685 C684 1.392 . S
C685 H697 0.929 . S
C686 C682 1.531 . S
C686 H698 0.960 . S
C686 H699 0.962 . S
C686 H700 0.960 1_556 S
C687 C684 1.511 . S
C687 H701 0.961 . S
C687 H702 0.961 . S
C687 H703 0.961 1_455 S
C688 C689 1.370 . S
C688 C690 1.363 . S
C688 H704 0.931 . S
C689 C688 1.370 . S
C689 C693 1.408 . S
C690 C688 1.363 . S
C690 C691 1.370 . S
C690 C694 1.524 . S
C691 C683 1.503 . S
C691 C690 1.370 . S
C691 C692 1.403 . S
C692 C691 1.403 . S
C692 C693 1.404 . S
C692 C695 1.539 1_455 S
C693 C689 1.408 . S
C693 C692 1.404 . S
C693 H705 0.930 1_455 S
C694 C690 1.524 . S
C694 H706 0.956 . S
C694 H707 0.961 . S
C694 H708 0.961 . S
C695 C692 1.539 1_655 S
C695 H709 0.972 . S
C695 H710 0.961 . S
C695 H711 0.960 . S
H696 C680 0.931 1_554 S
H697 C685 0.929 . S
H698 C686 0.960 . S
H699 C686 0.962 . S
H700 C686 0.960 1_554 S
H701 C687 0.961 . S
H702 C687 0.961 . S
H703 C687 0.961 1_655 S
H704 C688 0.931 . S
H705 C693 0.930 1_655 S
H706 C694 0.956 . S
H707 C694 0.961 . S
H708 C694 0.961 . S
H709 C695 0.972 . S
H710 C695 0.961 . S
H711 C695 0.960 . S
C712 C713 1.391 . S
C712 C714 1.394 . S
C712 H728 0.931 1_556 S
C713 C712 1.391 . S
C713 C717 1.376 . S
C714 C712 1.394 . S
C714 C715 1.369 . S
C714 C718 1.531 . S
C715 C714 1.369 . S
C715 C716 1.410 . S
C715 C723 1.503 . S
C716 C715 1.410 . S
C716 C717 1.392 . S
C716 C719 1.511 . S
C717 C713 1.376 . S
C717 C716 1.392 . S
C717 H729 0.929 . S
C718 C714 1.531 . S
C718 H730 0.960 1_545 S
C718 H731 0.962 1_556 S
C718 H732 0.960 1_546 S
C719 C716 1.511 . S
C719 H733 0.961 . S
C719 H734 0.961 . S
C719 H735 0.961 1_545 S
C720 C721 1.370 . S
C720 C722 1.363 . S
C720 H736 0.931 . S
C721 C720 1.370 . S
C721 C725 1.408 1_545 S
C722 C720 1.363 . S
C722 C723 1.370 . S
C722 C726 1.524 . S
C723 C715 1.503 . S
C723 C722 1.370 . S
C723 C724 1.403 1_545 S
C724 C723 1.403 1_565 S
C724 C725 1.404 . S
C724 C727 1.539 . S
C725 C721 1.408 1_565 S
C725 C724 1.404 . S
C725 H737 0.930 . S
C726 C722 1.524 . S
C726 H738 0.956 . S
C726 H739 0.961 . S
C726 H740 0.961 . S
C727 C724 1.539 . S
C727 H741 0.958 . S
C727 H742 0.961 . S
C727 H743 0.960 . S
H728 C712 0.931 1_554 S
H729 C717 0.929 . S
H730 C718 0.960 1_565 S
H731 C718 0.962 1_554 S
H732 C718 0.960 1_564 S
H733 C719 0.961 . S
H734 C719 0.961 . S
H735 C719 0.961 1_565 S
H736 C720 0.931 . S
H737 C725 0.930 . S
H738 C726 0.956 . S
H739 C726 0.961 . S
H740 C726 0.961 . S
H741 C727 0.958 . S
H742 C727 0.961 . S
H743 C727 0.960 . S
C744 C745 1.391 . S
C744 C746 1.394 . S
C744 H760 0.931 . S
C745 C744 1.391 . S
C745 C749 1.376 . S
C746 C744 1.394 . S
C746 C747 1.369 . S
C746 C750 1.531 . S
C747 C746 1.369 . S
C747 C748 1.410 . S
C747 C755 1.503 . S
C748 C747 1.410 . S
C748 C749 1.392 . S
C748 C751 1.511 . S
C749 C745 1.376 . S
C749 C748 1.392 . S
C749 H761 0.929 . S
C750 C746 1.531 . S
C750 H762 0.960 . S
C750 H763 0.962 . S
C750 H764 0.960 . S
C751 C748 1.511 . S
C751 H765 0.961 . S
C751 H766 0.961 . S
C751 H767 0.961 . S
C752 C753 1.370 . S
C752 C754 1.363 . S
C752 H768 0.931 . S
C753 C752 1.370 . S
C753 C757 1.408 . S
C754 C752 1.363 . S
C754 C755 1.370 . S
C754 C758 1.524 . S
C755 C747 1.503 . S
C755 C754 1.370 . S
C755 C756 1.403 . S
C756 C755 1.403 . S
C756 C757 1.404 . S
C756 C759 1.539 . S
C757 C753 1.408 . S
C757 C756 1.404 . S
C757 H769 0.930 . S
C758 C754 1.524 . S
C758 H770 0.956 . S
C758 H771 0.961 . S
C758 H772 0.961 . S
C759 C756 1.539 . S
C759 H773 0.958 . S
C759 H774 0.961 . S
C759 H775 0.960 . S
H760 C744 0.931 . S
H761 C749 0.929 . S
H762 C750 0.960 . S
H763 C750 0.962 . S
H764 C750 0.960 . S
H765 C751 0.961 . S
H766 C751 0.961 . S
H767 C751 0.961 . S
H768 C752 0.931 . S
H769 C757 0.930 . S
H770 C758 0.956 . S
H771 C758 0.961 . S
H772 C758 0.961 . S
H773 C759 0.958 . S
H774 C759 0.961 . S
H775 C759 0.960 . S
C776 C777 1.391 . S
C776 C778 1.394 . S
C776 H792 0.931 . S
C777 C776 1.391 . S
C777 C781 1.376 . S
C778 C776 1.394 . S
C778 C779 1.369 . S
C778 C782 1.531 . S
C779 C778 1.369 . S
C779 C780 1.410 . S
C779 C787 1.503 . S
C780 C779 1.410 . S
C780 C781 1.392 . S
C780 C783 1.511 . S
C781 C777 1.376 . S
C781 C780 1.392 . S
C781 H793 0.929 . S
C782 C778 1.531 . S
C782 H794 0.960 . S
C782 H795 0.962 . S
C782 H796 0.960 . S
C783 C780 1.511 . S
C783 H797 0.961 . S
C783 H798 0.961 . S
C783 H799 0.961 . S
C784 C785 1.370 . S
C784 C786 1.363 . S
C784 H800 0.931 . S
C785 C784 1.370 . S
C785 C789 1.408 . S
C786 C784 1.363 . S
C786 C787 1.370 . S
C786 C790 1.524 . S
C787 C779 1.503 . S
C787 C786 1.370 . S
C787 C788 1.403 . S
C788 C787 1.403 . S
C788 C789 1.404 . S
C788 C791 1.539 . S
C789 C785 1.408 . S
C789 C788 1.404 . S
C789 H801 0.930 . S
C790 C786 1.524 . S
C790 H802 0.956 . S
C790 H803 0.961 . S
C790 H804 0.961 . S
C791 C788 1.539 . S
C791 H805 0.958 . S
C791 H806 0.961 . S
C791 H807 0.960 . S
H792 C776 0.931 . S
H793 C781 0.929 . S
H794 C782 0.960 . S
H795 C782 0.962 . S
H796 C782 0.960 . S
H797 C783 0.961 . S
H798 C783 0.961 . S
H799 C783 0.961 . S
H800 C784 0.931 . S
H801 C789 0.930 . S
H802 C790 0.956 . S
H803 C790 0.961 . S
H804 C790 0.961 . S
H805 C791 0.958 . S
H806 C791 0.961 . S
H807 C791 0.960 . S
C808 C809 1.391 . S
C808 C810 1.394 . S
C808 H824 0.931 . S
C809 C808 1.391 . S
C809 C813 1.376 . S
C810 C808 1.394 . S
C810 C811 1.369 . S
C810 C814 1.531 . S
C811 C810 1.369 . S
C811 C812 1.410 . S
C811 C819 1.503 . S
C812 C811 1.410 . S
C812 C813 1.392 . S
C812 C815 1.511 1_655 S
C813 C809 1.376 . S
C813 C812 1.392 . S
C813 H825 0.929 . S
C814 C810 1.531 . S
C814 H826 0.960 . S
C814 H827 0.962 . S
C814 H828 0.960 . S
C815 C812 1.511 1_455 S
C815 H829 0.961 . S
C815 H830 0.975 . S
C815 H831 0.961 . S
C816 C817 1.370 . S
C816 C818 1.363 . S
C816 H832 0.931 . S
C817 C816 1.370 . S
C817 C821 1.408 1_655 S
C818 C816 1.363 . S
C818 C819 1.370 . S
C818 C822 1.524 . S
C819 C811 1.503 . S
C819 C818 1.370 . S
C819 C820 1.403 1_655 S
C820 C819 1.403 1_455 S
C820 C821 1.404 . S
C820 C823 1.539 . S
C821 C817 1.408 1_455 S
C821 C820 1.404 . S
C821 H833 0.930 . S
C822 C818 1.524 . S
C822 H834 0.956 . S
C822 H835 0.961 . S
C822 H836 0.961 . S
C823 C820 1.539 . S
C823 H837 0.958 . S
C823 H838 0.961 . S
C823 H839 0.960 . S
H824 C808 0.931 . S
H825 C813 0.929 . S
H826 C814 0.960 . S
H827 C814 0.962 . S
H828 C814 0.960 . S
H829 C815 0.961 . S
H830 C815 0.975 . S
H831 C815 0.961 . S
H832 C816 0.931 . S
H833 C821 0.930 . S
H834 C822 0.956 . S
H835 C822 0.961 . S
H836 C822 0.961 . S
H837 C823 0.958 . S
H838 C823 0.961 . S
H839 C823 0.960 . S
C840 C841 1.391 . S
C840 C842 1.394 . S
C840 H856 0.931 . S
C841 C840 1.391 . S
C841 C845 1.376 1_565 S
C842 C840 1.394 . S
C842 C843 1.369 . S
C842 C846 1.531 . S
C843 C842 1.369 . S
C843 C844 1.410 1_565 S
C843 C851 1.503 . S
C844 C843 1.410 1_545 S
C844 C845 1.392 . S
C844 C847 1.511 . S
C845 C841 1.376 1_545 S
C845 C844 1.392 . S
C845 H857 0.929 . S
C846 C842 1.531 . S
C846 H858 0.960 . S
C846 H859 0.962 . S
C846 H860 0.960 . S
C847 C844 1.511 . S
C847 H861 0.961 . S
C847 H862 0.961 . S
C847 H863 0.961 . S
C848 C849 1.363 1_545 S
C848 C850 1.359 1_545 S
C848 H864 0.942 . S
C849 C848 1.363 1_565 S
C849 C853 1.408 . S
C850 C848 1.359 1_565 S
C850 C851 1.370 . S
C850 C854 1.524 1_565 S
C851 C843 1.503 . S
C851 C850 1.370 . S
C851 C852 1.403 . S
C852 C851 1.403 . S
C852 C853 1.404 . S
C852 C855 1.539 . S
C853 C849 1.408 . S
C853 C852 1.404 . S
C853 H865 0.930 . S
C854 C850 1.524 1_545 S
C854 H866 0.956 1_545 S
C854 H867 0.961 . S
C854 H868 0.961 . S
C855 C852 1.539 . S
C855 H869 0.958 . S
C855 H870 0.961 . S
C855 H871 0.960 . S
H856 C840 0.931 . S
H857 C845 0.929 . S
H858 C846 0.960 . S
H859 C846 0.962 . S
H860 C846 0.960 . S
H861 C847 0.961 . S
H862 C847 0.961 . S
H863 C847 0.961 . S
H864 C848 0.942 . S
H865 C853 0.930 . S
H866 C854 0.956 1_565 S
H867 C854 0.961 . S
H868 C854 0.961 . S
H869 C855 0.958 . S
H870 C855 0.961 . S
H871 C855 0.960 . S
C872 C873 1.391 . S
C872 C874 1.394 . S
C872 H888 0.931 . S
C873 C872 1.391 . S
C873 C877 1.376 . S
C874 C872 1.394 . S
C874 C875 1.369 . S
C874 C878 1.531 . S
C875 C874 1.369 . S
C875 C876 1.410 . S
C875 C883 1.503 . S
C876 C875 1.410 . S
C876 C877 1.392 . S
C876 C879 1.511 . S
C877 C873 1.376 . S
C877 C876 1.392 . S
C877 H889 0.929 . S
C878 C874 1.531 . S
C878 H890 0.960 . S
C878 H891 0.962 . S
C878 H892 0.960 . S
C879 C876 1.511 . S
C879 H893 0.961 . S
C879 H894 0.961 . S
C879 H895 0.961 . S
C880 C881 1.370 . S
C880 C882 1.363 . S
C880 H896 0.931 . S
C881 C880 1.370 . S
C881 C885 1.408 . S
C882 C880 1.363 . S
C882 C883 1.370 . S
C882 C886 1.524 . S
C883 C875 1.503 . S
C883 C882 1.370 . S
C883 C884 1.403 . S
C884 C883 1.403 . S
C884 C885 1.404 . S
C884 C887 1.539 . S
C885 C881 1.408 . S
C885 C884 1.404 . S
C885 H897 0.930 . S
C886 C882 1.524 . S
C886 H898 0.956 . S
C886 H899 0.961 . S
C886 H900 0.961 . S
C887 C884 1.539 . S
C887 H901 0.958 . S
C887 H902 0.961 . S
C887 H903 0.960 . S
H888 C872 0.931 . S
H889 C877 0.929 . S
H890 C878 0.960 . S
H891 C878 0.962 . S
H892 C878 0.960 . S
H893 C879 0.961 . S
H894 C879 0.961 . S
H895 C879 0.961 . S
H896 C880 0.931 . S
H897 C885 0.930 . S
H898 C886 0.956 . S
H899 C886 0.961 . S
H900 C886 0.961 . S
H901 C887 0.958 . S
H902 C887 0.961 . S
H903 C887 0.960 . S
C904 C905 1.391 . S
C904 C906 1.394 . S
C904 H920 0.931 . S
C905 C904 1.391 . S
C905 C909 1.376 . S
C906 C904 1.394 . S
C906 C907 1.369 . S
C906 C910 1.531 . S
C907 C906 1.369 . S
C907 C908 1.410 . S
C907 C915 1.503 . S
C908 C907 1.410 . S
C908 C909 1.392 . S
C908 C911 1.511 . S
C909 C905 1.376 . S
C909 C908 1.392 . S
C909 H921 0.929 . S
C910 C906 1.531 . S
C910 H922 0.960 . S
C910 H923 0.962 . S
C910 H924 0.960 . S
C911 C908 1.511 . S
C911 H925 0.961 . S
C911 H926 0.961 . S
C911 H927 0.961 . S
C912 C913 1.370 . S
C912 C914 1.363 . S
C912 H928 0.931 . S
C913 C912 1.370 . S
C913 C917 1.408 . S
C914 C912 1.363 . S
C914 C915 1.370 . S
C914 C918 1.524 . S
C915 C907 1.503 . S
C915 C914 1.370 . S
C915 C916 1.403 . S
C916 C915 1.403 . S
C916 C917 1.404 . S
C916 C919 1.539 . S
C917 C913 1.408 . S
C917 C916 1.404 . S
C917 H929 0.930 . S
C918 C914 1.524 . S
C918 H930 0.956 . S
C918 H931 0.961 . S
C918 H932 0.961 . S
C919 C916 1.539 . S
C919 H933 0.958 . S
C919 H934 0.961 . S
C919 H935 0.960 . S
H920 C904 0.931 . S
H921 C909 0.929 . S
H922 C910 0.960 . S
H923 C910 0.962 . S
H924 C910 0.960 . S
H925 C911 0.961 . S
H926 C911 0.961 . S
H927 C911 0.961 . S
H928 C912 0.931 . S
H929 C917 0.930 . S
H930 C918 0.956 . S
H931 C918 0.961 . S
H932 C918 0.961 . S
H933 C919 0.958 . S
H934 C919 0.961 . S
H935 C919 0.960 . S
C169 C74 1.567 . S
C177 C96 1.600 . S
C209 C126 1.878 . S
C201 C85 1.883 . S
C241 C136 1.471 . S
C233 C52 1.447 . S
C273 C156 1.381 . S
C265 C63 1.342 . S
C305 C97 1.593 1_565 S
C297 C30 1.570 . S
C329 C41 1.812 1_556 S
C337 C127 1.878 . S
C361 C8 1.451 . S
C369 C137 1.484 . S
C393 C19 1.361 . S
C401 C157 1.385 1_655 S
C433 C89 0.919 . S
C425 C62 0.900 . S
C465 C110 0.542 . S
C457 C73 0.559 . S
C497 C129 1.140 . S
C489 C84 1.172 . S
C521 C51 0.812 . S
C529 C149 0.777 . S
C553 C18 0.850 . S
C561 C90 0.919 . S
C593 C109 0.547 . S
C585 C29 0.634 . S
C625 C130 1.140 . S
C617 C40 1.131 . S
C649 C7 0.823 . S
C657 C150 0.784 . S
C681 C60 1.446 . S
C689 C107 1.674 . S
C713 C71 1.212 . S
C721 C117 1.420 . S
C753 C147 1.881 . S
C745 C82 1.612 . S
C785 C167 1.816 . S
C777 C49 1.326 . S
C809 C16 1.261 . S
C817 C106 1.674 . S
C849 C116 1.414 . S
C841 C27 1.170 . S
C881 C146 1.869 . S
C873 C38 1.323 . S
C905 C5 1.537 . S
C913 C166 1.813 . S
