# Generated by pormake.
# Topology ssb, (4,4)-cn, num edge types: 1
# Building blocks:
#     Node 0, Type 0, BuildingBlock: ESEHIV_clean_sbu_0, # of connection points: 4
#     Node 1, Type 0, BuildingBlock: ESEHIV_clean_sbu_0, # of connection points: 4
#     Node 2, Type 0, BuildingBlock: ESEHIV_clean_sbu_0, # of connection points: 4
#     Node 3, Type 0, BuildingBlock: ESEHIV_clean_sbu_0, # of connection points: 4
#     Node 4, Type 0, BuildingBlock: ESEHIV_clean_sbu_0, # of connection points: 4
#     Node 5, Type 0, BuildingBlock: ESEHIV_clean_sbu_0, # of connection points: 4
#     Node 6, Type 0, BuildingBlock: ESEHIV_clean_sbu_0, # of connection points: 4
#     Node 7, Type 0, BuildingBlock: ESEHIV_clean_sbu_0, # of connection points: 4
#     Node 8, Type 1, BuildingBlock: NAWXER_clean_sbu_0, # of connection points: 4
#     Node 9, Type 1, BuildingBlock: NAWXER_clean_sbu_0, # of connection points: 4
#     Node 10, Type 1, BuildingBlock: NAWXER_clean_sbu_0, # of connection points: 4
#     Node 11, Type 1, BuildingBlock: NAWXER_clean_sbu_0, # of connection points: 4
#     Node 12, Type 1, BuildingBlock: NAWXER_clean_sbu_0, # of connection points: 4
#     Node 13, Type 1, BuildingBlock: NAWXER_clean_sbu_0, # of connection points: 4
#     Node 14, Type 1, BuildingBlock: NAWXER_clean_sbu_0, # of connection points: 4
#     Node 15, Type 1, BuildingBlock: NAWXER_clean_sbu_0, # of connection points: 4
#     Edge 16, Type (0, 1), BuildingBlock: KIFKEQ_clean_linker_1, # of connection points: 2
#     Edge 17, Type (0, 1), BuildingBlock: KIFKEQ_clean_linker_1, # of connection points: 2
#     Edge 18, Type (0, 1), BuildingBlock: KIFKEQ_clean_linker_1, # of connection points: 2
#     Edge 19, Type (0, 1), BuildingBlock: KIFKEQ_clean_linker_1, # of connection points: 2
#     Edge 20, Type (0, 1), BuildingBlock: KIFKEQ_clean_linker_1, # of connection points: 2
#     Edge 21, Type (0, 1), BuildingBlock: KIFKEQ_clean_linker_1, # of connection points: 2
#     Edge 22, Type (0, 1), BuildingBlock: KIFKEQ_clean_linker_1, # of connection points: 2
#     Edge 23, Type (0, 1), BuildingBlock: KIFKEQ_clean_linker_1, # of connection points: 2
#     Edge 24, Type (0, 1), BuildingBlock: KIFKEQ_clean_linker_1, # of connection points: 2
#     Edge 25, Type (0, 1), BuildingBlock: KIFKEQ_clean_linker_1, # of connection points: 2
#     Edge 26, Type (0, 1), BuildingBlock: KIFKEQ_clean_linker_1, # of connection points: 2
#     Edge 27, Type (0, 1), BuildingBlock: KIFKEQ_clean_linker_1, # of connection points: 2
#     Edge 28, Type (0, 1), BuildingBlock: KIFKEQ_clean_linker_1, # of connection points: 2
#     Edge 29, Type (0, 1), BuildingBlock: KIFKEQ_clean_linker_1, # of connection points: 2
#     Edge 30, Type (0, 1), BuildingBlock: KIFKEQ_clean_linker_1, # of connection points: 2
#     Edge 31, Type (0, 1), BuildingBlock: KIFKEQ_clean_linker_1, # of connection points: 2
#     Edge 32, Type (0, 1), BuildingBlock: KIFKEQ_clean_linker_1, # of connection points: 2
#     Edge 33, Type (0, 1), BuildingBlock: KIFKEQ_clean_linker_1, # of connection points: 2
#     Edge 34, Type (0, 1), BuildingBlock: KIFKEQ_clean_linker_1, # of connection points: 2
#     Edge 35, Type (0, 1), BuildingBlock: KIFKEQ_clean_linker_1, # of connection points: 2
#     Edge 36, Type (0, 1), BuildingBlock: KIFKEQ_clean_linker_1, # of connection points: 2
#     Edge 37, Type (0, 1), BuildingBlock: KIFKEQ_clean_linker_1, # of connection points: 2
#     Edge 38, Type (0, 1), BuildingBlock: KIFKEQ_clean_linker_1, # of connection points: 2
#     Edge 39, Type (0, 1), BuildingBlock: KIFKEQ_clean_linker_1, # of connection points: 2
#     Edge 40, Type (0, 1), BuildingBlock: KIFKEQ_clean_linker_1, # of connection points: 2
#     Edge 41, Type (0, 1), BuildingBlock: KIFKEQ_clean_linker_1, # of connection points: 2
#     Edge 42, Type (0, 1), BuildingBlock: KIFKEQ_clean_linker_1, # of connection points: 2
#     Edge 43, Type (0, 1), BuildingBlock: KIFKEQ_clean_linker_1, # of connection points: 2
#     Edge 44, Type (0, 1), BuildingBlock: KIFKEQ_clean_linker_1, # of connection points: 2
#     Edge 45, Type (0, 1), BuildingBlock: KIFKEQ_clean_linker_1, # of connection points: 2
#     Edge 46, Type (0, 1), BuildingBlock: KIFKEQ_clean_linker_1, # of connection points: 2
#     Edge 47, Type (0, 1), BuildingBlock: KIFKEQ_clean_linker_1, # of connection points: 2
# Relax obj value: 0.002
# Max RMSD: 0.102
# Mean RMSD: 0.051
data_MOF--net-ssb--node1-ESEHIV_clean_sbu_0--node2-NAWXER_clean_sbu_0--edge1-KIFKEQ_clean_linker_1
_symmetry_space_group_name_H-M    P1
_symmetry_Int_Tables_number       1
_symmetry_cell_setting            triclinic
loop_
_symmetry_equiv_pos_as_xyz
'x, y, z'
_cell_length_a     46.665919
_cell_length_b     46.877676
_cell_length_c     39.961626
_cell_angle_alpha  89.78812
_cell_angle_beta   89.557747
_cell_angle_gamma 89.961463
loop_
_atom_site_label
_atom_site_type_symbol
_atom_site_fract_x
_atom_site_fract_y
_atom_site_fract_z
_atom_type_partial_charge
Cu0 Cu 0.30332 0.28786 0.30419 0.0
N1 N 0.32123 0.27625 0.3437 0.0
N2 N 0.33792 0.24741 0.38389 0.0
C3 C 0.32818 0.24925 0.35218 0.0
C4 C 0.33722 0.27439 0.39564 0.0
C5 C 0.32696 0.2921 0.37081 0.0
O6 O 0.2621 0.28951 0.3132 0.0
C7 C 0.31573 0.26757 0.23791 0.0
O8 O 0.29871 0.28803 0.22752 0.0
H9 H 0.32459 0.23111 0.33606 0.0
H10 H 0.32297 0.31477 0.37275 0.0
N11 N 0.31467 0.32479 0.29233 0.0
N12 N 0.31546 0.3671 0.26608 0.0
C13 C 0.30045 0.34292 0.27212 0.0
C14 C 0.33949 0.33786 0.29948 0.0
C15 C 0.34002 0.36395 0.28343 0.0
C16 C 0.24839 0.27037 0.32936 0.0
O17 O 0.26109 0.24598 0.3359 0.0
H18 H 0.27969 0.33816 0.26164 0.0
H19 H 0.35638 0.32867 0.31447 0.0
O20 O 0.31749 0.26247 0.26915 0.0
H21 H 0.34301 0.28079 0.42069 0.0
H22 H 0.3577 0.37888 0.28351 0.0
Cu23 Cu 0.76263 0.29235 0.29392 0.0
N24 N 0.72601 0.30835 0.2896 0.0
N25 N 0.68629 0.31866 0.26078 0.0
C26 C 0.7069 0.29916 0.26701 0.0
C27 C 0.69225 0.34083 0.28102 0.0
C28 C 0.71694 0.33452 0.29854 0.0
O29 O 0.78435 0.30825 0.25664 0.0
C30 C 0.74003 0.2391 0.31106 0.0
O31 O 0.71851 0.25487 0.32148 0.0
H32 H 0.70926 0.27924 0.2537 0.0
H33 H 0.7288 0.34903 0.31419 0.0
N34 N 0.7815 0.30183 0.33333 0.0
N35 N 0.81579 0.29839 0.3721 0.0
C36 C 0.80792 0.29214 0.3405 0.0
C37 C 0.77204 0.31464 0.36137 0.0
C38 C 0.79323 0.31267 0.38531 0.0
C39 C 0.77623 0.30482 0.2266 0.0
O40 O 0.75692 0.28527 0.22022 0.0
H41 H 0.82049 0.27949 0.3232 0.0
H42 H 0.75095 0.32382 0.36462 0.0
O43 O 0.76073 0.25092 0.29532 0.0
H44 H 0.6811 0.36109 0.28102 0.0
H45 H 0.79189 0.32084 0.41056 0.0
Cu46 Cu 0.8234 0.76715 0.26185 0.0
N47 N 0.84682 0.75046 0.2292 0.0
N48 N 0.86117 0.71907 0.19055 0.0
C49 C 0.83885 0.72936 0.20852 0.0
C50 C 0.8841 0.73443 0.20025 0.0
C51 C 0.87515 0.75385 0.22406 0.0
O52 O 0.78368 0.76409 0.24708 0.0
C53 C 0.84765 0.72867 0.3098 0.0
O54 O 0.85551 0.71339 0.28383 0.0
H55 H 0.81736 0.72069 0.20807 0.0
H56 H 0.88852 0.7686 0.23764 0.0
N57 N 0.83223 0.80571 0.26731 0.0
N58 N 0.83495 0.84818 0.29251 0.0
C59 C 0.825 0.82115 0.29441 0.0
C60 C 0.84739 0.82344 0.24744 0.0
C61 C 0.8491 0.84969 0.26292 0.0
C62 C 0.77777 0.77786 0.22044 0.0
O63 O 0.79825 0.79267 0.20581 0.0
H64 H 0.81317 0.81238 0.31544 0.0
H65 H 0.85662 0.81767 0.2235 0.0
O66 O 0.83125 0.7501 0.30546 0.0
H67 H 0.90584 0.73148 0.19127 0.0
H68 H 0.85971 0.86844 0.25297 0.0
Cu69 Cu 0.28273 0.82225 0.27379 0.0
N70 N 0.30021 0.8412 0.23795 0.0
N71 N 0.33508 0.84961 0.20041 0.0
C72 C 0.32757 0.83618 0.22912 0.0
C73 C 0.31131 0.86403 0.19108 0.0
C74 C 0.28978 0.85874 0.21428 0.0
O75 O 0.29433 0.78237 0.26829 0.0
C76 C 0.285 0.86664 0.31728 0.0
O77 O 0.27218 0.87781 0.29115 0.0
H78 H 0.3414 0.8223 0.24341 0.0
H79 H 0.26793 0.86638 0.21334 0.0
N80 N 0.24264 0.8244 0.27408 0.0
N81 N 0.19875 0.82475 0.29685 0.0
C82 C 0.2271 0.82276 0.3025 0.0
C83 C 0.22341 0.82764 0.24937 0.0
C84 C 0.1962 0.82762 0.26339 0.0
C85 C 0.28427 0.77078 0.24204 0.0
O86 O 0.26679 0.78563 0.22318 0.0
H87 H 0.23651 0.81976 0.32694 0.0
H88 H 0.22871 0.82976 0.2231 0.0
O89 O 0.29394 0.84096 0.31525 0.0
H90 H 0.30917 0.87658 0.16846 0.0
H91 H 0.17619 0.82985 0.25011 0.0
Cu92 Cu 0.30792 0.76693 0.77508 0.0
N93 N 0.34601 0.75524 0.78013 0.0
N94 N 0.38821 0.74842 0.8052 0.0
C95 C 0.35989 0.7533 0.80951 0.0
C96 C 0.39221 0.747 0.77173 0.0
C97 C 0.36614 0.75119 0.75634 0.0
O98 O 0.28796 0.75597 0.81661 0.0
C99 C 0.32855 0.82434 0.7653 0.0
O100 O 0.35225 0.81529 0.77931 0.0
H101 H 0.34969 0.75726 0.83348 0.0
H102 H 0.36237 0.75255 0.72972 0.0
N103 N 0.29047 0.74886 0.73881 0.0
N104 N 0.25661 0.73804 0.70143 0.0
C105 C 0.26443 0.75547 0.72669 0.0
C106 C 0.29968 0.72657 0.72057 0.0
C107 C 0.27888 0.71985 0.69753 0.0
C108 C 0.27708 0.73103 0.81885 0.0
O109 O 0.27751 0.71451 0.79241 0.0
H110 H 0.25155 0.77278 0.73644 0.0
H111 H 0.31978 0.71556 0.72429 0.0
O112 O 0.30689 0.80775 0.76415 0.0
H113 H 0.41263 0.74398 0.75921 0.0
H114 H 0.2799 0.70241 0.67989 0.0
Cu115 Cu 0.28023 0.32304 0.78039 0.0
N116 N 0.29367 0.36065 0.78243 0.0
N117 N 0.30691 0.40078 0.8084 0.0
C118 C 0.28973 0.37761 0.80924 0.0
C119 C 0.32222 0.39841 0.77974 0.0
C120 C 0.31399 0.37364 0.76375 0.0
O121 O 0.28707 0.30906 0.82552 0.0
C122 C 0.23596 0.33277 0.73696 0.0
O123 O 0.25694 0.34683 0.72227 0.0
H124 H 0.27616 0.37184 0.8303 0.0
H125 H 0.32343 0.36486 0.74123 0.0
N126 N 0.30131 0.30086 0.7502 0.0
N127 N 0.31179 0.26281 0.71882 0.0
C128 C 0.29083 0.2782 0.73361 0.0
C129 C 0.32986 0.30003 0.74543 0.0
C130 C 0.3364 0.27655 0.72606 0.0
C131 C 0.30072 0.28616 0.83168 0.0
O132 O 0.30328 0.26685 0.80812 0.0
H133 H 0.26853 0.27188 0.73464 0.0
H134 H 0.34496 0.3144 0.75694 0.0
O135 O 0.24061 0.32135 0.76539 0.0
H136 H 0.33889 0.41295 0.77157 0.0
H137 H 0.35769 0.2695 0.71901 0.0
Cu138 Cu 0.76975 0.28251 0.75424 0.0
N139 N 0.783 0.30885 0.72206 0.0
N140 N 0.81464 0.32893 0.68657 0.0
C141 C 0.80871 0.30648 0.70678 0.0
C142 C 0.79168 0.34634 0.68952 0.0
C143 C 0.77223 0.33393 0.71147 0.0
O144 O 0.77998 0.24458 0.73766 0.0
C145 C 0.77902 0.31739 0.807 0.0
O146 O 0.75811 0.33033 0.79119 0.0
H147 H 0.82318 0.28888 0.71141 0.0
H148 H 0.75207 0.34296 0.71974 0.0
N149 N 0.72993 0.2839 0.76247 0.0
N150 N 0.68863 0.28211 0.79149 0.0
C151 C 0.71658 0.27456 0.79061 0.0
C152 C 0.70955 0.29743 0.74479 0.0
C153 C 0.68414 0.29655 0.76274 0.0
C154 C 0.77483 0.24017 0.7068 0.0
O155 O 0.76216 0.26029 0.68935 0.0
H156 H 0.72753 0.26389 0.8109 0.0
H157 H 0.71312 0.30809 0.72109 0.0
O158 O 0.78858 0.29392 0.79541 0.0
H159 H 0.78912 0.36665 0.67694 0.0
H160 H 0.66404 0.30626 0.75554 0.0
Cu161 Cu 0.77457 0.77388 0.77052 0.0
N162 N 0.76677 0.73493 0.77424 0.0
N163 N 0.76425 0.69154 0.79765 0.0
C164 C 0.77289 0.71886 0.80123 0.0
C165 C 0.75215 0.69047 0.76707 0.0
C166 C 0.7538 0.71727 0.75265 0.0
O167 O 0.76642 0.78979 0.81447 0.0
C168 C 0.81878 0.77293 0.72468 0.0
O169 O 0.79768 0.76291 0.70659 0.0
H170 H 0.78305 0.72729 0.82335 0.0
H171 H 0.74606 0.72345 0.72824 0.0
N172 N 0.75093 0.79184 0.7392 0.0
N173 N 0.73675 0.82498 0.70248 0.0
C174 C 0.75825 0.81545 0.72194 0.0
C175 C 0.72381 0.78601 0.73033 0.0
C176 C 0.71502 0.80639 0.70747 0.0
C177 C 0.75505 0.81418 0.81909 0.0
O178 O 0.75279 0.83192 0.79375 0.0
H179 H 0.77902 0.82554 0.72393 0.0
H180 H 0.71116 0.76855 0.74024 0.0
O181 O 0.81404 0.77887 0.75531 0.0
H182 H 0.74308 0.67163 0.75573 0.0
H183 H 0.69406 0.80785 0.6962 0.0
C184 C 0.99983 0.33653 0.55988 0.0
C185 C 0.07814 0.31308 0.48017 0.0
O186 O 1.01136 0.3543 0.53963 0.0
Zn187 Zn 0.03905 0.32725 0.51951 0.0
O188 O 1.00844 0.31061 0.56021 0.0
Zn189 Zn 0.03772 0.28291 0.53561 0.0
O190 O 0.06181 0.27093 0.57311 0.0
O191 O 0.0657 0.3168 0.56118 0.0
O192 O 0.06891 0.29199 0.49768 0.0
O193 O 0.06685 0.3376 0.48422 0.0
O194 O 1.01 0.30123 0.49316 0.0
O195 O 1.01017 0.25741 0.51351 0.0
C196 C 0.07262 0.29528 0.57933 0.0
C197 C 1.00028 0.27574 0.49298 0.0
C198 C 0.79597 0.07123 0.55682 0.0
C199 C 0.80383 1.00031 0.46709 0.0
O200 O 0.81864 0.06163 0.54307 0.0
Zn201 Zn 0.80055 0.03589 0.51147 0.0
O202 O 0.77151 0.06263 0.54653 0.0
Zn203 Zn 0.75521 0.03436 0.50906 0.0
O204 O 0.73354 1.0071 0.53533 0.0
O205 O 0.78023 1.00418 0.54299 0.0
O206 O 0.77784 1.00682 0.47459 0.0
O207 O 0.82425 1.01217 0.48272 0.0
O208 O 0.78178 0.06443 0.47549 0.0
O209 O 0.73483 0.05988 0.47939 0.0
C210 C 0.75477 0.9953 0.54956 0.0
C211 C 0.75661 0.07151 0.46583 0.0
C212 C 0.99516 0.78573 0.58245 0.0
C213 C 0.05874 0.79374 0.48519 0.0
O214 O 1.00403 0.80815 0.56777 0.0
Zn215 Zn 0.0278 0.78985 0.53453 0.0
O216 O 1.00379 0.76124 0.57217 0.0
Zn217 Zn 0.03122 0.74497 0.53276 0.0
O218 O 0.06169 0.72569 0.55662 0.0
O219 O 0.06269 0.77233 0.56302 0.0
O220 O 0.0543 0.76771 0.49385 0.0
O221 O 0.04755 0.8137 0.50231 0.0
O222 O 0.99644 0.76866 0.5039 0.0
O223 O 1.00461 0.72239 0.5068 0.0
C224 C 0.07337 0.74764 0.56914 0.0
C225 C 0.9899 0.74309 0.4955 0.0
C226 C 0.29908 0.07306 0.60145 0.0
C227 C 0.29456 0.99482 0.51935 0.0
O228 O 0.32328 0.0622 0.59304 0.0
Zn229 Zn 0.34089 0.02961 0.56199 0.0
O230 O 0.27607 0.06211 0.59026 0.0
Zn231 Zn 0.29453 0.03295 0.56213 0.0
O232 O 0.31119 1.00381 0.59804 0.0
O233 O 0.35833 1.00318 0.59425 0.0
O234 O 0.27321 1.00804 0.53193 0.0
O235 O 0.31991 1.00124 0.52879 0.0
O236 O 0.36317 0.05381 0.53066 0.0
O237 O 0.31643 0.06014 0.52771 0.0
C238 C 0.33534 0.9941 0.60801 0.0
C239 C 0.34178 0.06681 0.51801 0.0
C240 C 0.51988 0.82188 0.07167 0.0
C241 C 0.6034 0.81689 0.99738 0.0
O242 O 0.53378 0.84241 0.05858 0.0
Zn243 Zn 0.56224 0.81979 0.03513 0.0
O244 O 0.52843 0.7962 0.06676 0.0
Zn245 Zn 0.56208 0.77469 0.03983 0.0
O246 O 0.58482 0.7564 0.07459 0.0
O247 O 0.58886 0.8032 0.07437 0.0
O248 O 0.59487 0.79225 1.00746 0.0
O249 O 0.59028 0.83912 1.00732 0.0
O250 O 0.53705 0.79744 0.99843 0.0
O251 O 0.54015 0.75135 1.00916 0.0
C252 C 0.59585 0.77887 0.08667 0.0
C253 C 0.53033 0.77162 0.99136 0.0
C254 C 0.32101 0.60158 0.09992 0.0
C255 C 0.32181 0.53364 1.00546 0.0
O256 O 0.34313 0.59476 0.08281 0.0
Zn257 Zn 0.32361 0.56853 0.05205 0.0
O258 O 0.29656 0.59119 0.09217 0.0
Zn259 Zn 0.27756 0.56317 0.05669 0.0
O260 O 0.26231 0.53354 0.08647 0.0
O261 O 0.3096 0.53551 0.08569 0.0
O262 O 0.29719 0.53802 1.01881 0.0
O263 O 0.34351 0.54717 1.01626 0.0
O264 O 0.29903 0.59792 0.02391 0.0
O265 O 0.25297 0.58906 0.03053 0.0
C266 C 0.28635 0.52425 0.09686 0.0
C267 C 0.27292 0.60398 1.01739 0.0
C268 C 0.54567 0.26119 0.98241 0.0
C269 C 0.47647 0.24784 0.07546 0.0
O270 O 0.53451 0.28451 0.99298 0.0
Zn271 Zn 0.50547 0.29834 0.03157 0.0
O272 O 0.53901 0.23782 0.99676 0.0
Zn273 Zn 0.51167 0.25299 0.02982 0.0
O274 O 0.47716 0.26899 1.00036 0.0
O275 O 0.47467 0.31577 1.00572 0.0
O276 O 0.48961 0.22801 0.05991 0.0
O277 O 0.48098 0.27395 0.06739 0.0
O278 O 0.52945 0.32111 0.06116 0.0
O279 O 0.53871 0.27505 0.06404 0.0
C280 C 0.46485 0.29273 0.99352 0.0
C281 C 0.54354 0.30057 0.07392 0.0
C282 C 0.8423 0.54228 0.05032 0.0
C283 C 0.83347 0.45992 0.97573 0.0
O284 O 0.86265 0.52925 0.03549 0.0
Zn285 Zn 0.83911 0.50169 1.01162 0.0
O286 O 0.8164 0.53422 0.04565 0.0
Zn287 Zn 0.79355 0.50303 1.01775 0.0
O288 O 0.7748 0.48092 0.0524 0.0
O289 O 0.82178 0.47518 0.05138 0.0
O290 O 0.80957 0.46938 0.98711 0.0
O291 O 0.85664 0.47295 0.98237 0.0
O292 O 0.81719 0.52857 0.97658 0.0
O293 O 0.77086 0.52604 0.98716 0.0
C294 C 0.79714 0.46893 0.06394 0.0
C295 C 0.79145 0.53613 0.9698 0.0
H296 H 0.2256 0.32313 0.34263 0.0
H297 H 0.20831 0.23319 0.35401 0.0
H298 H 0.18384 0.33422 0.37723 0.0
H299 H 0.16571 0.24412 0.38703 0.0
H300 H 0.11515 0.26834 0.47909 0.0
H301 H 0.15408 0.25892 0.44039 0.0
H302 H 0.13414 0.33644 0.38639 0.0
H303 H 0.09563 0.34654 0.42665 0.0
C304 C 0.21246 0.30571 0.35184 0.0
C305 C 0.22047 0.27723 0.34574 0.0
C306 C 0.18836 0.31208 0.3717 0.0
C307 C 0.17138 0.29014 0.38565 0.0
C308 C 0.1786 0.2617 0.37779 0.0
C309 C 0.20293 0.25535 0.35846 0.0
C310 C 0.11897 0.28345 0.45897 0.0
C311 C 0.10211 0.30819 0.456 0.0
C312 C 0.14127 0.27787 0.43639 0.0
C313 C 0.14728 0.2966 0.40963 0.0
C314 C 0.13047 0.32154 0.40672 0.0
C315 C 0.10827 0.32734 0.42975 0.0
H316 H 0.69736 0.2013 0.3248 0.0
H317 H 0.78901 0.21197 0.32987 0.0
H318 H 0.70082 0.15749 0.3575 0.0
H319 H 0.79255 0.16937 0.36442 0.0
H320 H 0.79493 0.08477 0.41649 0.0
H321 H 0.79055 0.12094 0.37301 0.0
H322 H 0.70714 0.1442 0.41243 0.0
H323 H 0.71098 0.10669 0.45442 0.0
C324 C 0.71832 0.19398 0.33259 0.0
C325 C 0.74291 0.20994 0.32474 0.0
C326 C 0.72031 0.16908 0.3518 0.0
C327 C 0.7469 0.15995 0.36442 0.0
C328 C 0.77169 0.17529 0.355 0.0
C329 C 0.76973 0.19983 0.3351 0.0
C330 C 0.77558 0.09753 0.41562 0.0
C331 C 0.75334 0.09301 0.43893 0.0
C332 C 0.7731 0.11844 0.39077 0.0
C333 C 0.74856 0.13586 0.38903 0.0
C334 C 0.72616 0.13097 0.41227 0.0
C335 C 0.7284 0.1096 0.43666 0.0
H336 H 0.89106 0.69148 0.3244 0.0
H337 H 0.83953 0.75855 0.368 0.0
H338 H 0.92261 0.69262 0.37252 0.0
H339 H 0.87063 0.75906 0.41671 0.0
H340 H 0.9694 0.69212 0.47149 0.0
H341 H 0.93094 0.685 0.43115 0.0
H342 H 0.91807 0.7762 0.42581 0.0
H343 H 0.95571 0.78319 0.46646 0.0
C344 C 0.88599 0.70597 0.34464 0.0
C345 C 0.86293 0.7252 0.34205 0.0
C346 C 0.90409 0.70655 0.37239 0.0
C347 C 0.89952 0.72627 0.39834 0.0
C348 C 0.87524 0.74407 0.39683 0.0
C349 C 0.85721 0.74359 0.369 0.0
C350 C 0.95816 0.7106 0.46189 0.0
C351 C 0.96577 0.73823 0.47216 0.0
C352 C 0.93617 0.70654 0.43866 0.0
C353 C 0.92128 0.73001 0.42517 0.0
C354 C 0.9286 0.75754 0.43603 0.0
C355 C 0.95047 0.76159 0.4592 0.0
H356 H 0.26223 0.91912 0.32852 0.0
H357 H 0.30974 0.85199 0.37757 0.0
H358 H 0.26258 0.94696 0.37948 0.0
H359 H 0.3099 0.88016 0.42923 0.0
H360 H 0.33507 0.95784 0.49611 0.0
H361 H 0.33163 0.92472 0.44966 0.0
H362 H 0.24288 0.94807 0.43651 0.0
H363 H 0.24641 0.98171 0.48304 0.0
C364 C 0.27277 0.91021 0.35023 0.0
C365 C 0.28614 0.8833 0.34881 0.0
C366 C 0.27267 0.92614 0.37965 0.0
C367 C 0.28604 0.91576 0.40858 0.0
C368 C 0.29949 0.88883 0.40731 0.0
C369 C 0.29942 0.87269 0.37775 0.0
C370 C 0.31469 0.95581 0.48355 0.0
C371 C 0.29107 0.97271 0.49313 0.0
C372 C 0.3127 0.93658 0.45703 0.0
C373 C 0.28706 0.93382 0.43919 0.0
C374 C 0.26308 0.94996 0.44948 0.0
C375 C 0.26503 0.96913 0.47625 0.0
H376 H 0.20611 0.7626 0.72039 0.0
H377 H 0.24584 0.71417 0.64069 0.0
H378 H 0.16162 0.76404 0.68924 0.0
H379 H 0.20102 0.71529 0.60986 0.0
H380 H 0.10683 0.70028 0.57984 0.0
H381 H 0.15086 0.69708 0.6125 0.0
H382 H 0.14333 0.7863 0.63756 0.0
H383 H 0.09941 0.78951 0.60523 0.0
C384 C 0.20557 0.75241 0.69619 0.0
C385 C 0.22991 0.73842 0.68314 0.0
C386 C 0.17991 0.75318 0.67833 0.0
C387 C 0.17775 0.73983 0.64702 0.0
C388 C 0.20186 0.7255 0.6341 0.0
C389 C 0.22762 0.72488 0.65186 0.0
C390 C 0.11449 0.71917 0.59246 0.0
C391 C 0.09955 0.74515 0.58989 0.0
C392 C 0.13983 0.71738 0.61099 0.0
C393 C 0.15063 0.74144 0.62764 0.0
C394 C 0.13546 0.76729 0.62537 0.0
C395 C 0.11032 0.76914 0.60666 0.0
H396 H 0.34844 0.21838 0.7228 0.0
H397 H 0.26791 0.24459 0.68035 0.0
H398 H 0.34335 0.17162 0.69757 0.0
H399 H 0.26312 0.19793 0.65363 0.0
H400 H 0.25329 0.10236 0.62965 0.0
H401 H 0.25505 0.1478 0.65991 0.0
H402 H 0.34693 0.15032 0.64554 0.0
H403 H 0.34531 0.10512 0.61725 0.0
C404 C 0.32984 0.21424 0.70757 0.0
C405 C 0.30879 0.23529 0.70318 0.0
C406 C 0.32684 0.18738 0.69301 0.0
C407 C 0.30296 0.1809 0.67306 0.0
C408 C 0.28165 0.20191 0.66905 0.0
C409 C 0.28447 0.22873 0.68413 0.0
C410 C 0.27383 0.11255 0.63342 0.0
C411 C 0.29914 0.09984 0.62129 0.0
C412 C 0.27486 0.13872 0.65051 0.0
C413 C 0.30119 0.15281 0.65553 0.0
C414 C 0.32632 0.13997 0.64315 0.0
C415 C 0.32533 0.1139 0.6266 0.0
H416 H 0.85122 0.2884 0.66381 0.0
H417 H 0.8373 0.37952 0.66469 0.0
H418 H 0.89662 0.29544 0.63503 0.0
H419 H 0.88301 0.38649 0.63503 0.0
H420 H 0.95489 0.37347 0.54774 0.0
H421 H 0.90908 0.37488 0.57876 0.0
H422 H 0.94347 0.31637 0.65183 0.0
H423 H 0.98855 0.31479 0.62105 0.0
C424 C 0.85786 0.31 0.65811 0.0
C425 C 0.84067 0.33338 0.66725 0.0
C426 C 0.88396 0.31404 0.64148 0.0
C427 C 0.8937 0.34158 0.63326 0.0
C428 C 0.87611 0.36502 0.64109 0.0
C429 C 0.84989 0.36098 0.65803 0.0
C430 C 0.95284 0.36167 0.57098 0.0
C431 C 0.97518 0.34382 0.58183 0.0
C432 C 0.9266 0.36234 0.58863 0.0
C433 C 0.92246 0.34517 0.61729 0.0
C434 C 0.94571 0.32926 0.6294 0.0
C435 C 0.97163 0.32854 0.61188 0.0
H436 H 0.70618 0.83478 0.64598 0.0
H437 H 0.76775 0.87295 0.71229 0.0
H438 H 0.70897 0.87678 0.60955 0.0
H439 H 0.77049 0.91469 0.67621 0.0
H440 H 0.79581 0.96645 0.58413 0.0
H441 H 0.78976 0.92581 0.62135 0.0
H442 H 0.69828 0.92825 0.60584 0.0
H443 H 0.70439 0.96889 0.56785 0.0
C444 C 0.72006 0.85222 0.65296 0.0
C445 C 0.73705 0.8503 0.6818 0.0
C446 C 0.72164 0.8763 0.63213 0.0
C447 C 0.7402 0.89897 0.63976 0.0
C448 C 0.75648 0.89735 0.66915 0.0
C449 C 0.75494 0.87335 0.68985 0.0
C450 C 0.77435 0.95845 0.58865 0.0
C451 C 0.75058 0.97101 0.573 0.0
C452 C 0.77087 0.93519 0.6102 0.0
C453 C 0.74351 0.92383 0.61675 0.0
C454 C 0.71967 0.93634 0.60111 0.0
C455 C 0.72316 0.95973 0.57951 0.0
H456 H 0.82746 0.78972 0.66073 0.0
H457 H 0.8728 0.76915 0.75145 0.0
H458 H 0.87289 0.7964 0.63125 0.0
H459 H 0.91872 0.77512 0.72134 0.0
H460 H 0.98105 0.74499 0.6289 0.0
H461 H 0.94057 0.74554 0.66824 0.0
H462 H 0.91846 0.83041 0.63527 0.0
H463 H 0.9592 0.83022 0.5964 0.0
C464 C 0.84721 0.78676 0.6744 0.0
C465 C 0.84666 0.77881 0.70832 0.0
C466 C 0.87319 0.79077 0.65757 0.0
C467 C 0.89925 0.78633 0.67406 0.0
C468 C 0.89885 0.7787 0.70814 0.0
C469 C 0.87269 0.77538 0.72532 0.0
C470 C 0.96789 0.76399 0.63051 0.0
C471 C 0.9732 0.78748 0.60936 0.0
C472 C 0.94486 0.76434 0.65317 0.0
C473 C 0.92642 0.78798 0.65466 0.0
C474 C 0.93238 0.81192 0.63454 0.0
C475 C 0.95572 0.8118 0.61235 0.0
H476 H 0.28636 0.84632 0.7253 0.0
H477 H 0.37129 0.86435 0.76185 0.0
H478 H 0.28889 0.88832 0.68942 0.0
H479 H 0.37356 0.90683 0.72652 0.0
H480 H 0.3801 0.95971 0.62814 0.0
H481 H 0.37824 0.9203 0.66846 0.0
H482 H 0.28911 0.939 0.68859 0.0
H483 H 0.29078 0.97758 0.64796 0.0
C484 C 0.30539 0.85951 0.72616 0.0
C485 C 0.32861 0.85185 0.74653 0.0
C486 C 0.30685 0.88373 0.70557 0.0
C487 C 0.33151 0.90107 0.70485 0.0
C488 C 0.35442 0.89381 0.72593 0.0
C489 C 0.35298 0.86954 0.74648 0.0
C490 C 0.3602 0.95551 0.6414 0.0
C491 C 0.33556 0.97171 0.63454 0.0
C492 C 0.35912 0.93296 0.66464 0.0
C493 C 0.33341 0.92617 0.68167 0.0
C494 C 0.30911 0.94307 0.67551 0.0
C495 C 0.31015 0.9654 0.65227 0.0
H496 H 0.1937 0.29272 0.749 0.0
H497 H 0.2176 0.36137 0.68207 0.0
H498 H 0.15179 0.28264 0.71411 0.0
H499 H 0.17652 0.35117 0.64739 0.0
H500 H 0.08871 0.34571 0.60649 0.0
H501 H 0.125 0.35447 0.64827 0.0
H502 H 0.14038 0.26391 0.65692 0.0
H503 H 0.10315 0.25496 0.61512 0.0
C504 C 0.18984 0.30586 0.72715 0.0
C505 C 0.20894 0.32794 0.71842 0.0
C506 C 0.16602 0.2999 0.70699 0.0
C507 C 0.1607 0.31613 0.67796 0.0
C508 C 0.1796 0.33849 0.66978 0.0
C509 C 0.20332 0.34428 0.68966 0.0
C510 C 0.09964 0.32754 0.61733 0.0
C511 C 0.09327 0.29962 0.60701 0.0
C512 C 0.12057 0.33261 0.64131 0.0
C513 C 0.136 0.30996 0.6556 0.0
C514 C 0.12883 0.28185 0.64648 0.0
C515 C 0.10761 0.27672 0.62243 0.0
H516 H 0.77404 0.18498 0.73051 0.0
H517 H 0.79519 0.23591 0.64363 0.0
H518 H 0.78294 0.14133 0.69787 0.0
H519 H 0.80474 0.19272 0.61155 0.0
H520 H 0.83931 0.10895 0.56994 0.0
H521 H 0.83868 0.14813 0.61044 0.0
H522 H 0.75507 0.12148 0.64509 0.0
H523 H 0.75537 0.08276 0.60429 0.0
C524 C 0.78118 0.18681 0.70474 0.0
C525 C 0.78378 0.21374 0.6895 0.0
C526 C 0.78615 0.16193 0.68606 0.0
C527 C 0.79457 0.16368 0.65219 0.0
C528 C 0.79854 0.19069 0.63763 0.0
C529 C 0.7929 0.2154 0.65596 0.0
C530 C 0.821 0.11122 0.58654 0.0
C531 C 0.79729 0.09292 0.58372 0.0
C532 C 0.82063 0.13364 0.60966 0.0
C533 C 0.79684 0.1378 0.63093 0.0
C534 C 0.77379 0.11863 0.62926 0.0
C535 C 0.7739 0.09661 0.6057 0.0
H536 H 0.82549 0.29253 0.43896 0.0
H537 H 0.86664 0.28574 0.3421 0.0
H538 H 0.87077 0.28072 0.4659 0.0
H539 H 0.91139 0.27289 0.36893 0.0
H540 H 0.99105 0.29753 0.43142 0.0
H541 H 0.94616 0.29877 0.40114 0.0
H542 H 0.90757 0.24347 0.47552 0.0
H543 H 0.95299 0.2425 0.50621 0.0
C544 C 0.84407 0.28842 0.42336 0.0
C545 C 0.84229 0.29037 0.38827 0.0
C546 C 0.86997 0.28119 0.43883 0.0
C547 C 0.89478 0.27582 0.41961 0.0
C548 C 0.8928 0.2771 0.38454 0.0
C549 C 0.86698 0.2843 0.36911 0.0
C550 C 0.97323 0.28496 0.44083 0.0
C551 C 0.97555 0.26985 0.47112 0.0
C552 C 0.94743 0.28565 0.42344 0.0
C553 C 0.9231 0.27143 0.43599 0.0
C554 C 0.92583 0.25493 0.46537 0.0
C555 C 0.95192 0.254 0.48269 0.0
H556 H 0.79261 0.85237 0.33914 0.0
H557 H 0.86869 0.89479 0.30205 0.0
H558 H 0.78653 0.88912 0.3812 0.0
H559 H 0.86188 0.93241 0.3435 0.0
H560 H 0.85561 0.97796 0.44648 0.0
H561 H 0.86387 0.94143 0.40386 0.0
H562 H 0.77296 0.93844 0.38456 0.0
H563 H 0.76468 0.97422 0.4273 0.0
C564 C 0.80812 0.86948 0.33993 0.0
C565 C 0.8312 0.87046 0.31711 0.0
C566 C 0.80442 0.89082 0.36388 0.0
C567 C 0.82362 0.91387 0.36568 0.0
C568 C 0.84681 0.91486 0.343 0.0
C569 C 0.85052 0.89345 0.31895 0.0
C570 C 0.83742 0.9695 0.43308 0.0
C571 C 0.80947 0.97891 0.44052 0.0
C572 C 0.84217 0.94868 0.40852 0.0
C573 C 0.81905 0.9368 0.39093 0.0
C574 C 0.79122 0.94665 0.39804 0.0
C575 C 0.78649 0.96735 0.4225 0.0
H576 H 0.14626 0.80078 0.2906 0.0
H577 H 0.20061 0.84555 0.35966 0.0
H578 H 0.10989 0.79511 0.33476 0.0
H579 H 0.1645 0.83984 0.40372 0.0
H580 H 0.08232 0.84508 0.46687 0.0
H581 H 0.11413 0.85487 0.41924 0.0
H582 H 0.10808 0.7668 0.38894 0.0
H583 H 0.07645 0.75693 0.43646 0.0
C584 C 0.15023 0.80971 0.31507 0.0
C585 C 0.17631 0.82341 0.32179 0.0
C586 C 0.12957 0.8063 0.34038 0.0
C587 C 0.13441 0.81695 0.37272 0.0
C588 C 0.16006 0.83156 0.37902 0.0
C589 C 0.18083 0.83461 0.3539 0.0
C590 C 0.08764 0.82786 0.44992 0.0
C591 C 0.07698 0.8002 0.45558 0.0
C592 C 0.10591 0.83345 0.42273 0.0
C593 C 0.11358 0.8116 0.40036 0.0
C594 C 0.10233 0.78413 0.40554 0.0
C595 C 0.08439 0.77846 0.43293 0.0
H596 H 0.32847 0.23839 0.44997 0.0
H597 H 0.36021 0.19778 0.36025 0.0
H598 H 0.3338 0.19357 0.48062 0.0
H599 H 0.36573 0.15274 0.39135 0.0
H600 H 0.39137 0.09041 0.49061 0.0
H601 H 0.39483 0.13435 0.45654 0.0
H602 H 0.30291 0.14306 0.46005 0.0
H603 H 0.29913 0.09963 0.4928 0.0
C604 C 0.33721 0.22011 0.43695 0.0
C605 C 0.34381 0.22166 0.40261 0.0
C606 C 0.34021 0.19446 0.45452 0.0
C607 C 0.35034 0.16986 0.43833 0.0
C608 C 0.35817 0.17153 0.4044 0.0
C609 C 0.35474 0.19718 0.38661 0.0
C610 C 0.37193 0.1015 0.48365 0.0
C611 C 0.34502 0.09145 0.49466 0.0
C612 C 0.37393 0.12657 0.46422 0.0
C613 C 0.3491 0.14207 0.45605 0.0
C614 C 0.32235 0.13159 0.46625 0.0
C615 C 0.32029 0.10658 0.48502 0.0
H616 H 0.75605 0.78334 0.87736 0.0
H617 H 0.71652 0.85692 0.8314 0.0
H618 H 0.72255 0.78675 0.92423 0.0
H619 H 0.68241 0.85971 0.87759 0.0
H620 H 0.63056 0.86516 0.97403 0.0
H621 H 0.67152 0.86777 0.93559 0.0
H622 H 0.67298 0.77572 0.92982 0.0
H623 H 0.63292 0.77313 0.96864 0.0
C624 C 0.74049 0.8005 0.87747 0.0
C625 C 0.73875 0.81962 0.8504 0.0
C626 C 0.72109 0.80231 0.90421 0.0
C627 C 0.69933 0.82312 0.90438 0.0
C628 C 0.6989 0.84347 0.87844 0.0
C629 C 0.71847 0.8418 0.85182 0.0
C630 C 0.63977 0.84551 0.96465 0.0
C631 C 0.62839 0.81895 0.97436 0.0
C632 C 0.66321 0.847 0.94257 0.0
C633 C 0.67572 0.82196 0.92969 0.0
C634 C 0.66439 0.79546 0.93973 0.0
C635 C 0.64114 0.79397 0.96181 0.0
H636 H 0.28822 0.75047 0.88239 0.0
H637 H 0.24591 0.68273 0.82905 0.0
H638 H 0.28097 0.72435 0.93493 0.0
H639 H 0.2393 0.65649 0.88102 0.0
H640 H 0.30913 0.64688 1.0002 0.0
H641 H 0.30387 0.682 0.95612 0.0
H642 H 0.21851 0.65092 0.9365 0.0
H643 H 0.22408 0.61499 0.98083 0.0
C644 C 0.27683 0.73035 0.88194 0.0
C645 C 0.268 0.71853 0.85146 0.0
C646 C 0.27286 0.71524 0.91201 0.0
C647 C 0.25988 0.68807 0.91223 0.0
C648 C 0.24919 0.67736 0.882 0.0
C649 C 0.25322 0.69237 0.85205 0.0
C650 C 0.28902 0.64768 0.98685 0.0
C651 C 0.26715 0.62782 0.99377 0.0
C652 C 0.28589 0.66814 0.9617 0.0
C653 C 0.2608 0.66935 0.94255 0.0
C654 C 0.23826 0.65041 0.95055 0.0
C655 C 0.24135 0.62992 0.97604 0.0
H656 H 0.30713 0.326 0.88133 0.0
H657 H 0.33912 0.24442 0.84753 0.0
H658 H 0.34487 0.32783 0.92322 0.0
H659 H 0.37719 0.2467 0.88834 0.0
H660 H 0.43174 0.24684 0.97944 0.0
H661 H 0.38917 0.2447 0.94525 0.0
H662 H 0.39582 0.33522 0.92571 0.0
H663 H 0.4382 0.33752 0.96137 0.0
C664 C 0.32191 0.30824 0.88315 0.0
C665 C 0.32005 0.28504 0.86099 0.0
C666 C 0.3438 0.30948 0.9069 0.0
C667 C 0.36434 0.28759 0.90904 0.0
C668 C 0.36164 0.26385 0.88782 0.0
C669 C 0.33973 0.26253 0.86426 0.0
C670 C 0.42419 0.26636 0.96789 0.0
C671 C 0.43862 0.29233 0.97282 0.0
C672 C 0.39973 0.26509 0.94814 0.0
C673 C 0.38911 0.28969 0.93232 0.0
C674 C 0.40318 0.31586 0.93777 0.0
C675 C 0.42761 0.31719 0.95797 0.0
H676 H 0.74932 0.34711 0.85282 0.0
H677 H 0.83515 0.31975 0.82787 0.0
H678 H 0.7678 0.37684 0.89717 0.0
H679 H 0.85408 0.35005 0.87296 0.0
H680 H 0.86547 0.44534 0.92003 0.0
H681 H 0.85638 0.40469 0.88275 0.0
H682 H 0.79172 0.37366 0.95166 0.0
H683 H 0.80015 0.41427 0.98791 0.0
C684 C 0.7722 0.34707 0.85734 0.0
C685 C 0.7908 0.3311 0.83705 0.0
C686 C 0.78282 0.36404 0.88287 0.0
C687 C 0.81242 0.36574 0.88869 0.0
C688 C 0.83116 0.34914 0.86899 0.0
C689 C 0.82037 0.33165 0.84351 0.0
C690 C 0.84985 0.42939 0.92741 0.0
C691 C 0.83306 0.43317 0.95637 0.0
C692 C 0.84471 0.4061 0.90622 0.0
C693 C 0.82295 0.38629 0.91403 0.0
C694 C 0.80818 0.38888 0.94461 0.0
C695 C 0.813 0.41214 0.96535 0.0
H696 H 0.69242 0.29147 0.20146 0.0
H697 H 0.6345 0.34513 0.25778 0.0
H698 H 0.65831 0.28927 0.15612 0.0
H699 H 0.59993 0.34291 0.21188 0.0
H700 H 0.55689 0.35054 0.1068 0.0
H701 H 0.59158 0.35674 0.15208 0.0
H702 H 0.61217 0.26702 0.14739 0.0
H703 H 0.57831 0.26091 0.10237 0.0
C704 C 0.67221 0.30251 0.20443 0.0
C705 C 0.66597 0.31797 0.23369 0.0
C706 C 0.65264 0.30136 0.17825 0.0
C707 C 0.62619 0.31561 0.18048 0.0
C708 C 0.62017 0.3318 0.20929 0.0
C709 C 0.63989 0.33298 0.23563 0.0
C710 C 0.56898 0.33222 0.11536 0.0
C711 C 0.56488 0.30527 0.10076 0.0
C712 C 0.58868 0.33573 0.14145 0.0
C713 C 0.60479 0.31241 0.15324 0.0
C714 C 0.60054 0.28555 0.1386 0.0
C715 C 0.58093 0.28204 0.11279 0.0
H716 H 0.81732 0.70259 0.15151 0.0
H717 H 0.90385 0.68078 0.17905 0.0
H718 H 0.81468 0.65997 0.1171 0.0
H719 H 0.90115 0.63766 0.14497 0.0
H720 H 0.89153 0.57436 0.05607 0.0
H721 H 0.89772 0.61814 0.08862 0.0
H722 H 0.81114 0.60984 0.12648 0.0
H723 H 0.80479 0.567 0.09365 0.0
C724 C 0.83576 0.6886 0.15027 0.0
C725 C 0.86066 0.69494 0.16826 0.0
C726 C 0.83426 0.66409 0.13063 0.0
C727 C 0.85755 0.64506 0.12865 0.0
C728 C 0.88287 0.65188 0.14574 0.0
C729 C 0.88442 0.6766 0.16529 0.0
C730 C 0.87394 0.58187 0.07155 0.0
C731 C 0.84759 0.56732 0.072 0.0
C732 C 0.87748 0.60692 0.09023 0.0
C733 C 0.85476 0.61782 0.10978 0.0
C734 C 0.82884 0.60259 0.11102 0.0
C735 C 0.82528 0.57782 0.09233 0.0
H736 H 0.37537 0.80807 0.20793 0.0
H737 H 0.35653 0.88473 0.1517 0.0
H738 H 0.42035 0.80331 0.17839 0.0
H739 H 0.40128 0.87885 0.12045 0.0
H740 H 0.49735 0.87313 0.09256 0.0
H741 H 0.45295 0.88096 0.12417 0.0
H742 H 0.43728 0.7901 0.12492 0.0
H743 H 0.48176 0.78229 0.09458 0.0
C744 C 0.38072 0.82408 0.1894 0.0
C745 C 0.36204 0.84693 0.1825 0.0
C746 C 0.40654 0.82105 0.17197 0.0
C747 C 0.41446 0.84051 0.14674 0.0
C748 C 0.39601 0.86355 0.13991 0.0
C749 C 0.37013 0.86673 0.15759 0.0
C750 C 0.48446 0.85486 0.09968 0.0
C751 C 0.49326 0.82707 0.09126 0.0
C752 C 0.45889 0.85935 0.11758 0.0
C753 C 0.44153 0.83617 0.12731 0.0
C754 C 0.45033 0.80846 0.11855 0.0
C755 C 0.47586 0.80397 0.10095 0.0
H756 H 0.33528 0.42145 0.26804 0.0
H757 H 0.27876 0.36591 0.21328 0.0
H758 H 0.32596 0.45965 0.22822 0.0
H759 H 0.26925 0.40439 0.17354 0.0
H760 H 0.243 0.49094 0.12389 0.0
H761 H 0.24763 0.4533 0.16645 0.0
H762 H 0.33894 0.46776 0.1694 0.0
H763 H 0.33444 0.50502 0.12761 0.0
C764 C 0.32089 0.41731 0.24754 0.0
C765 C 0.30809 0.39037 0.24381 0.0
C766 C 0.31548 0.43928 0.22469 0.0
C767 C 0.29706 0.43501 0.19748 0.0
C768 C 0.28337 0.40846 0.19436 0.0
C769 C 0.28886 0.38637 0.21721 0.0
C770 C 0.26402 0.48605 0.1337 0.0
C771 C 0.28831 0.5011 0.12231 0.0
C772 C 0.26668 0.46444 0.15797 0.0
C773 C 0.29363 0.4577 0.17155 0.0
C774 C 0.3178 0.47271 0.15998 0.0
C775 C 0.31519 0.49401 0.13573 0.0
H776 H 0.31455 0.26646 0.16931 0.0
H777 H 0.3666 0.24189 0.25358 0.0
H778 H 0.35409 0.25436 0.13123 0.0
H779 H 0.40619 0.23055 0.2155 0.0
H780 H 0.47375 0.27136 0.137 0.0
H781 H 0.43408 0.26884 0.17725 0.0
H782 H 0.38949 0.21064 0.11248 0.0
H783 H 0.42996 0.21241 0.07254 0.0
C784 C 0.33416 0.25792 0.17967 0.0
C785 C 0.33739 0.25527 0.21453 0.0
C786 C 0.35675 0.25091 0.15784 0.0
C787 C 0.38323 0.24164 0.17045 0.0
C788 C 0.38602 0.23768 0.20513 0.0
C789 C 0.36326 0.2441 0.2269 0.0
C790 C 0.45586 0.25735 0.13187 0.0
C791 C 0.45502 0.24179 0.10195 0.0
C792 C 0.43317 0.25592 0.15486 0.0
C793 C 0.40871 0.23955 0.14798 0.0
C794 C 0.40813 0.22336 0.1184 0.0
C795 C 0.43132 0.22417 0.09575 0.0
H796 H 0.75281 0.31115 0.16455 0.0
H797 H 0.8145 0.34902 0.23114 0.0
H798 H 0.75857 0.35122 0.12608 0.0
H799 H 0.82008 0.38924 0.1926 0.0
H800 H 0.84076 0.44272 0.09749 0.0
H801 H 0.83763 0.4022 0.1358 0.0
H802 H 0.74549 0.40255 0.12673 0.0
H803 H 0.74856 0.44299 0.08818 0.0
C804 C 0.76794 0.32778 0.17078 0.0
C805 C 0.78318 0.32684 0.20101 0.0
C806 C 0.77098 0.35093 0.14888 0.0
C807 C 0.78948 0.37361 0.15649 0.0
C808 C 0.80569 0.37208 0.18597 0.0
C809 C 0.8025 0.34901 0.20804 0.0
C810 C 0.81978 0.43433 0.10385 0.0
C811 C 0.7949 0.44612 0.08969 0.0
C812 C 0.81802 0.41113 0.12588 0.0
C813 C 0.79135 0.39898 0.13407 0.0
C814 C 0.76641 0.41113 0.12048 0.0
C815 C 0.76815 0.4345 0.09864 0.0
H816 H 0.75777 0.81317 0.17208 0.0
H817 H 0.73231 0.74161 0.23387 0.0
H818 H 0.71175 0.81229 0.14445 0.0
H819 H 0.68553 0.74083 0.20588 0.0
H820 H 0.62354 0.73141 0.11154 0.0
H821 H 0.66549 0.73054 0.14807 0.0
H822 H 0.6612 0.82219 0.15695 0.0
H823 H 0.6198 0.82317 0.12043 0.0
C824 C 0.74226 0.79728 0.17996 0.0
C825 C 0.7488 0.77746 0.20525 0.0
C826 C 0.7157 0.79692 0.16421 0.0
C827 C 0.69482 0.77663 0.17309 0.0
C828 C 0.70121 0.7567 0.19843 0.0
C829 C 0.72789 0.75724 0.21456 0.0
C830 C 0.63128 0.75131 0.12175 0.0
C831 C 0.61849 0.77739 0.11263 0.0
C832 C 0.65527 0.75079 0.14278 0.0
C833 C 0.66696 0.77634 0.15503 0.0
C834 C 0.6531 0.80217 0.14742 0.0
C835 C 0.62925 0.8027 0.12652 0.0
H836 H 0.33761 0.7454 0.24225 0.0
H837 H 0.24959 0.73198 0.21422 0.0
H838 H 0.35131 0.70113 0.21296 0.0
H839 H 0.2629 0.68837 0.18552 0.0
H840 H 0.28604 0.60245 0.1541 0.0
H841 H 0.28084 0.63992 0.19555 0.0
H842 H 0.35241 0.68499 0.15129 0.0
H843 H 0.35805 0.64674 0.10975 0.0
C844 C 0.32114 0.73256 0.2307 0.0
C845 C 0.29249 0.74189 0.23074 0.0
C846 C 0.32899 0.70749 0.21362 0.0
C847 C 0.30819 0.69115 0.19697 0.0
C848 C 0.27945 0.70009 0.19844 0.0
C849 C 0.27177 0.72515 0.21487 0.0
C850 C 0.30106 0.62007 0.1535 0.0
C851 C 0.32216 0.62188 0.12829 0.0
C852 C 0.29804 0.64158 0.17728 0.0
C853 C 0.31583 0.66574 0.17636 0.0
C854 C 0.3384 0.66662 0.15272 0.0
C855 C 0.3416 0.64478 0.12889 0.0
H856 H 0.44305 0.76693 0.79917 0.0
H857 H 0.38254 0.73057 0.86951 0.0
H858 H 0.47869 0.77022 0.84339 0.0
H859 H 0.4182 0.73409 0.91392 0.0
H860 H 0.50049 0.72256 0.97737 0.0
H861 H 0.46692 0.71463 0.93142 0.0
H862 H 0.48274 0.80009 0.89519 0.0
H863 H 0.51598 0.80807 0.94091 0.0
C864 C 0.43747 0.75928 0.82396 0.0
C865 C 0.4099 0.74854 0.83081 0.0
C866 C 0.45782 0.7614 0.84937 0.0
C867 C 0.45123 0.75253 0.88219 0.0
C868 C 0.42399 0.74094 0.88886 0.0
C869 C 0.40349 0.73915 0.8635 0.0
C870 C 0.49691 0.73956 0.95947 0.0
C871 C 0.5109 0.76596 0.96286 0.0
C872 C 0.47758 0.73508 0.93328 0.0
C873 C 0.47222 0.75672 0.90964 0.0
C874 C 0.48662 0.78288 0.91276 0.0
C875 C 0.50556 0.7875 0.93912 0.0
H876 H 0.26555 0.42181 0.84873 0.0
H877 H 0.35625 0.42621 0.82827 0.0
H878 H 0.27123 0.45412 0.89568 0.0
H879 H 0.36245 0.45779 0.8763 0.0
H880 H 0.35767 0.53443 0.95015 0.0
H881 H 0.35504 0.50327 0.90103 0.0
H882 H 0.28818 0.45436 0.94998 0.0
H883 H 0.28995 0.48612 0.99763 0.0
C884 C 0.28677 0.42962 0.85447 0.0
C885 C 0.31041 0.42136 0.83489 0.0
C886 C 0.29016 0.44802 0.88161 0.0
C887 C 0.31745 0.45832 0.89046 0.0
C888 C 0.34108 0.45056 0.87028 0.0
C889 C 0.33756 0.43241 0.84272 0.0
C890 C 0.34268 0.5168 0.95036 0.0
C891 C 0.32383 0.51289 0.97758 0.0
C892 C 0.34112 0.49889 0.92223 0.0
C893 C 0.32092 0.4765 0.92099 0.0
C894 C 0.30329 0.47187 0.94922 0.0
C895 C 0.30451 0.48994 0.97684 0.0
H896 H 0.67889 0.23396 0.82739 0.0
H897 H 0.6532 0.32173 0.81756 0.0
H898 H 0.64361 0.22709 0.87223 0.0
H899 H 0.61963 0.31608 0.86385 0.0
H900 H 0.54373 0.29648 0.92851 0.0
H901 H 0.57713 0.29996 0.88193 0.0
H902 H 0.62867 0.23299 0.92595 0.0
H903 H 0.59349 0.22817 0.97117 0.0
C904 C 0.66584 0.25187 0.83524 0.0
C905 C 0.66853 0.27827 0.81882 0.0
C906 C 0.64567 0.2481 0.8612 0.0
C907 C 0.62814 0.2709 0.87207 0.0
C908 C 0.63167 0.29755 0.85592 0.0
C909 C 0.6512 0.30101 0.82942 0.0
C910 C 0.56211 0.28235 0.92803 0.0
C911 C 0.56596 0.26208 0.95354 0.0
C912 C 0.58166 0.28455 0.90138 0.0
C913 C 0.60635 0.26717 0.89988 0.0
C914 C 0.60996 0.24661 0.92549 0.0
C915 C 0.58983 0.24386 0.9517 0.0
H916 H 0.73079 0.64437 0.80469 0.0
H917 H 0.80513 0.68641 0.84508 0.0
H918 H 0.7366 0.60558 0.84521 0.0
H919 H 0.81043 0.64828 0.88596 0.0
H920 H 0.83139 0.56165 0.92954 0.0
H921 H 0.82409 0.59816 0.88714 0.0
H922 H 0.73292 0.59592 0.9063 0.0
H923 H 0.74017 0.55887 0.94876 0.0
C924 C 0.74839 0.64533 0.82211 0.0
C925 C 0.76749 0.66856 0.82155 0.0
C926 C 0.75154 0.62325 0.84557 0.0
C927 C 0.77403 0.62376 0.8688 0.0
C928 C 0.79307 0.647 0.8682 0.0
C929 C 0.78984 0.66908 0.84494 0.0
C930 C 0.80972 0.56877 0.9247 0.0
C931 C 0.78637 0.55735 0.94275 0.0
C932 C 0.80557 0.58988 0.90046 0.0
C933 C 0.77796 0.60019 0.8935 0.0
C934 C 0.75446 0.58832 0.91091 0.0
C935 C 0.75863 0.56718 0.93535 0.0
loop_
_geom_bond_atom_site_label_1
_geom_bond_atom_site_label_2
_geom_bond_distance
_geom_bond_site_symmetry_2
_ccdc_geom_bond_type
Cu0 N1 1.999 . S
Cu0 O6 1.974 . S
Cu0 N11 1.985 . S
Cu0 O20 1.959 . S
N1 Cu0 1.999 . S
N1 C3 1.263 . S
N1 C5 1.389 . S
N2 C3 1.358 . S
N2 C4 1.400 . S
C3 N1 1.263 . S
C3 N2 1.358 . S
C3 H9 0.930 . S
C4 N2 1.400 . S
C4 C5 1.351 . S
C4 H21 0.930 . S
C5 N1 1.389 . S
C5 C4 1.351 . S
C5 H10 0.930 . S
O6 Cu0 1.974 . S
O6 C16 1.282 . S
C7 O8 1.261 . S
C7 O20 1.251 . S
O8 C7 1.261 . S
H9 C3 0.930 . S
H10 C5 0.930 . S
N11 Cu0 1.985 . S
N11 C13 1.335 . S
N11 C14 1.390 . S
N12 C13 1.345 . S
N12 C15 1.336 . S
C13 N11 1.335 . S
C13 N12 1.345 . S
C13 H18 0.930 . S
C14 N11 1.390 . S
C14 C15 1.346 . S
C14 H19 0.930 . S
C15 N12 1.336 . S
C15 C14 1.346 . S
C15 H22 0.929 . S
C16 O6 1.282 . S
C16 O17 1.216 . S
O17 C16 1.216 . S
H18 C13 0.930 . S
H19 C14 0.930 . S
O20 Cu0 1.959 . S
O20 C7 1.251 . S
H21 C4 0.930 . S
H22 C15 0.929 . S
Cu23 N24 1.999 . S
Cu23 O29 1.974 . S
Cu23 N34 1.985 . S
Cu23 O43 1.959 . S
N24 Cu23 1.999 . S
N24 C26 1.263 . S
N24 C28 1.389 . S
N25 C26 1.358 . S
N25 C27 1.400 . S
C26 N24 1.263 . S
C26 N25 1.358 . S
C26 H32 0.930 . S
C27 N25 1.400 . S
C27 C28 1.351 . S
C27 H44 0.930 . S
C28 N24 1.389 . S
C28 C27 1.351 . S
C28 H33 0.930 . S
O29 Cu23 1.974 . S
O29 C39 1.282 . S
C30 O31 1.261 . S
C30 O43 1.251 . S
O31 C30 1.261 . S
H32 C26 0.930 . S
H33 C28 0.930 . S
N34 Cu23 1.985 . S
N34 C36 1.335 . S
N34 C37 1.390 . S
N35 C36 1.345 . S
N35 C38 1.336 . S
C36 N34 1.335 . S
C36 N35 1.345 . S
C36 H41 0.930 . S
C37 N34 1.390 . S
C37 C38 1.346 . S
C37 H42 0.930 . S
C38 N35 1.336 . S
C38 C37 1.346 . S
C38 H45 0.929 . S
C39 O29 1.282 . S
C39 O40 1.216 . S
O40 C39 1.216 . S
H41 C36 0.930 . S
H42 C37 0.930 . S
O43 Cu23 1.959 . S
O43 C30 1.251 . S
H44 C27 0.930 . S
H45 C38 0.929 . S
Cu46 N47 1.999 . S
Cu46 O52 1.974 . S
Cu46 N57 1.985 . S
Cu46 O66 1.959 . S
N47 Cu46 1.999 . S
N47 C49 1.263 . S
N47 C51 1.389 . S
N48 C49 1.358 . S
N48 C50 1.400 . S
C49 N47 1.263 . S
C49 N48 1.358 . S
C49 H55 0.930 . S
C50 N48 1.400 . S
C50 C51 1.351 . S
C50 H67 0.930 . S
C51 N47 1.389 . S
C51 C50 1.351 . S
C51 H56 0.930 . S
O52 Cu46 1.974 . S
O52 C62 1.282 . S
C53 O54 1.261 . S
C53 O66 1.251 . S
O54 C53 1.261 . S
H55 C49 0.930 . S
H56 C51 0.930 . S
N57 Cu46 1.985 . S
N57 C59 1.335 . S
N57 C60 1.390 . S
N58 C59 1.345 . S
N58 C61 1.336 . S
C59 N57 1.335 . S
C59 N58 1.345 . S
C59 H64 0.930 . S
C60 N57 1.390 . S
C60 C61 1.346 . S
C60 H65 0.930 . S
C61 N58 1.336 . S
C61 C60 1.346 . S
C61 H68 0.929 . S
C62 O52 1.282 . S
C62 O63 1.216 . S
O63 C62 1.216 . S
H64 C59 0.930 . S
H65 C60 0.930 . S
O66 Cu46 1.959 . S
O66 C53 1.251 . S
H67 C50 0.930 . S
H68 C61 0.929 . S
Cu69 N70 1.999 . S
Cu69 O75 1.974 . S
Cu69 N80 1.985 . S
Cu69 O89 1.959 . S
N70 Cu69 1.999 . S
N70 C72 1.263 . S
N70 C74 1.389 . S
N71 C72 1.358 . S
N71 C73 1.400 . S
C72 N70 1.263 . S
C72 N71 1.358 . S
C72 H78 0.930 . S
C73 N71 1.400 . S
C73 C74 1.351 . S
C73 H90 0.930 . S
C74 N70 1.389 . S
C74 C73 1.351 . S
C74 H79 0.930 . S
O75 Cu69 1.974 . S
O75 C85 1.282 . S
C76 O77 1.261 . S
C76 O89 1.251 . S
O77 C76 1.261 . S
H78 C72 0.930 . S
H79 C74 0.930 . S
N80 Cu69 1.985 . S
N80 C82 1.335 . S
N80 C83 1.390 . S
N81 C82 1.345 . S
N81 C84 1.336 . S
C82 N80 1.335 . S
C82 N81 1.345 . S
C82 H87 0.930 . S
C83 N80 1.390 . S
C83 C84 1.346 . S
C83 H88 0.930 . S
C84 N81 1.336 . S
C84 C83 1.346 . S
C84 H91 0.929 . S
C85 O75 1.282 . S
C85 O86 1.216 . S
O86 C85 1.216 . S
H87 C82 0.930 . S
H88 C83 0.930 . S
O89 Cu69 1.959 . S
O89 C76 1.251 . S
H90 C73 0.930 . S
H91 C84 0.929 . S
Cu92 N93 1.999 . S
Cu92 O98 1.974 . S
Cu92 N103 1.985 . S
Cu92 O112 1.959 . S
N93 Cu92 1.999 . S
N93 C95 1.263 . S
N93 C97 1.389 . S
N94 C95 1.358 . S
N94 C96 1.400 . S
C95 N93 1.263 . S
C95 N94 1.358 . S
C95 H101 0.930 . S
C96 N94 1.400 . S
C96 C97 1.351 . S
C96 H113 0.930 . S
C97 N93 1.389 . S
C97 C96 1.351 . S
C97 H102 0.930 . S
O98 Cu92 1.974 . S
O98 C108 1.282 . S
C99 O100 1.261 . S
C99 O112 1.251 . S
O100 C99 1.261 . S
H101 C95 0.930 . S
H102 C97 0.930 . S
N103 Cu92 1.985 . S
N103 C105 1.335 . S
N103 C106 1.390 . S
N104 C105 1.345 . S
N104 C107 1.336 . S
C105 N103 1.335 . S
C105 N104 1.345 . S
C105 H110 0.930 . S
C106 N103 1.390 . S
C106 C107 1.346 . S
C106 H111 0.930 . S
C107 N104 1.336 . S
C107 C106 1.346 . S
C107 H114 0.929 . S
C108 O98 1.282 . S
C108 O109 1.216 . S
O109 C108 1.216 . S
H110 C105 0.930 . S
H111 C106 0.930 . S
O112 Cu92 1.959 . S
O112 C99 1.251 . S
H113 C96 0.930 . S
H114 C107 0.929 . S
Cu115 N116 1.999 . S
Cu115 O121 1.974 . S
Cu115 N126 1.985 . S
Cu115 O135 1.959 . S
N116 Cu115 1.999 . S
N116 C118 1.263 . S
N116 C120 1.389 . S
N117 C118 1.358 . S
N117 C119 1.400 . S
C118 N116 1.263 . S
C118 N117 1.358 . S
C118 H124 0.930 . S
C119 N117 1.400 . S
C119 C120 1.351 . S
C119 H136 0.930 . S
C120 N116 1.389 . S
C120 C119 1.351 . S
C120 H125 0.930 . S
O121 Cu115 1.974 . S
O121 C131 1.282 . S
C122 O123 1.261 . S
C122 O135 1.251 . S
O123 C122 1.261 . S
H124 C118 0.930 . S
H125 C120 0.930 . S
N126 Cu115 1.985 . S
N126 C128 1.335 . S
N126 C129 1.390 . S
N127 C128 1.345 . S
N127 C130 1.336 . S
C128 N126 1.335 . S
C128 N127 1.345 . S
C128 H133 0.930 . S
C129 N126 1.390 . S
C129 C130 1.346 . S
C129 H134 0.930 . S
C130 N127 1.336 . S
C130 C129 1.346 . S
C130 H137 0.929 . S
C131 O121 1.282 . S
C131 O132 1.216 . S
O132 C131 1.216 . S
H133 C128 0.930 . S
H134 C129 0.930 . S
O135 Cu115 1.959 . S
O135 C122 1.251 . S
H136 C119 0.930 . S
H137 C130 0.929 . S
Cu138 N139 1.999 . S
Cu138 O144 1.974 . S
Cu138 N149 1.985 . S
Cu138 O158 1.959 . S
N139 Cu138 1.999 . S
N139 C141 1.263 . S
N139 C143 1.389 . S
N140 C141 1.358 . S
N140 C142 1.400 . S
C141 N139 1.263 . S
C141 N140 1.358 . S
C141 H147 0.930 . S
C142 N140 1.400 . S
C142 C143 1.351 . S
C142 H159 0.930 . S
C143 N139 1.389 . S
C143 C142 1.351 . S
C143 H148 0.930 . S
O144 Cu138 1.974 . S
O144 C154 1.282 . S
C145 O146 1.261 . S
C145 O158 1.251 . S
O146 C145 1.261 . S
H147 C141 0.930 . S
H148 C143 0.930 . S
N149 Cu138 1.985 . S
N149 C151 1.335 . S
N149 C152 1.390 . S
N150 C151 1.345 . S
N150 C153 1.336 . S
C151 N149 1.335 . S
C151 N150 1.345 . S
C151 H156 0.930 . S
C152 N149 1.390 . S
C152 C153 1.346 . S
C152 H157 0.930 . S
C153 N150 1.336 . S
C153 C152 1.346 . S
C153 H160 0.929 . S
C154 O144 1.282 . S
C154 O155 1.216 . S
O155 C154 1.216 . S
H156 C151 0.930 . S
H157 C152 0.930 . S
O158 Cu138 1.959 . S
O158 C145 1.251 . S
H159 C142 0.930 . S
H160 C153 0.929 . S
Cu161 N162 1.999 . S
Cu161 O167 1.974 . S
Cu161 N172 1.985 . S
Cu161 O181 1.959 . S
N162 Cu161 1.999 . S
N162 C164 1.263 . S
N162 C166 1.389 . S
N163 C164 1.358 . S
N163 C165 1.400 . S
C164 N162 1.263 . S
C164 N163 1.358 . S
C164 H170 0.930 . S
C165 N163 1.400 . S
C165 C166 1.351 . S
C165 H182 0.930 . S
C166 N162 1.389 . S
C166 C165 1.351 . S
C166 H171 0.930 . S
O167 Cu161 1.974 . S
O167 C177 1.282 . S
C168 O169 1.261 . S
C168 O181 1.251 . S
O169 C168 1.261 . S
H170 C164 0.930 . S
H171 C166 0.930 . S
N172 Cu161 1.985 . S
N172 C174 1.335 . S
N172 C175 1.390 . S
N173 C174 1.345 . S
N173 C176 1.336 . S
C174 N172 1.335 . S
C174 N173 1.345 . S
C174 H179 0.930 . S
C175 N172 1.390 . S
C175 C176 1.346 . S
C175 H180 0.930 . S
C176 N173 1.336 . S
C176 C175 1.346 . S
C176 H183 0.929 . S
C177 O167 1.282 . S
C177 O178 1.216 . S
O178 C177 1.216 . S
H179 C174 0.930 . S
H180 C175 0.930 . S
O181 Cu161 1.959 . S
O181 C168 1.251 . S
H182 C165 0.930 . S
H183 C176 0.929 . S
C184 O186 1.247 . S
C184 O188 1.258 . S
C185 O192 1.247 . S
C185 O193 1.258 . S
O186 C184 1.247 . S
O186 Zn187 2.028 . S
Zn187 O186 2.028 . S
Zn187 O191 2.035 . S
Zn187 O193 2.035 . S
Zn187 O194 2.028 . S
O188 C184 1.258 . S
O188 Zn189 2.035 . S
Zn189 O188 2.035 . S
Zn189 O190 2.028 . S
Zn189 O192 2.028 . S
Zn189 O195 2.035 . S
O190 Zn189 2.028 . S
O190 C196 1.247 . S
O191 Zn187 2.035 . S
O191 C196 1.258 . S
O192 C185 1.247 . S
O192 Zn189 2.028 . S
O193 C185 1.258 . S
O193 Zn187 2.035 . S
O194 Zn187 2.028 . S
O194 C197 1.247 . S
O195 Zn189 2.035 . S
O195 C197 1.258 . S
C196 O190 1.247 . S
C196 O191 1.258 . S
C197 O194 1.247 . S
C197 O195 1.258 . S
C198 O200 1.247 . S
C198 O202 1.258 . S
C199 O206 1.247 . S
C199 O207 1.258 . S
O200 C198 1.247 . S
O200 Zn201 2.028 . S
Zn201 O200 2.028 . S
Zn201 O205 2.035 . S
Zn201 O207 2.035 . S
Zn201 O208 2.028 . S
O202 C198 1.258 . S
O202 Zn203 2.035 . S
Zn203 O202 2.035 . S
Zn203 O204 2.028 . S
Zn203 O206 2.028 . S
Zn203 O209 2.035 . S
O204 Zn203 2.028 . S
O204 C210 1.247 . S
O205 Zn201 2.035 . S
O205 C210 1.258 . S
O206 C199 1.247 . S
O206 Zn203 2.028 . S
O207 C199 1.258 . S
O207 Zn201 2.035 . S
O208 Zn201 2.028 . S
O208 C211 1.247 . S
O209 Zn203 2.035 . S
O209 C211 1.258 . S
C210 O204 1.247 . S
C210 O205 1.258 . S
C211 O208 1.247 . S
C211 O209 1.258 . S
C212 O214 1.247 . S
C212 O216 1.258 . S
C213 O220 1.247 . S
C213 O221 1.258 . S
O214 C212 1.247 . S
O214 Zn215 2.028 1_655 S
Zn215 O214 2.028 1_455 S
Zn215 O219 2.035 . S
Zn215 O221 2.035 . S
Zn215 O222 2.028 1_455 S
O216 C212 1.258 . S
O216 Zn217 2.035 1_655 S
Zn217 O216 2.035 1_455 S
Zn217 O218 2.028 . S
Zn217 O220 2.028 . S
Zn217 O223 2.035 1_455 S
O218 Zn217 2.028 . S
O218 C224 1.247 . S
O219 Zn215 2.035 . S
O219 C224 1.258 . S
O220 C213 1.247 . S
O220 Zn217 2.028 . S
O221 C213 1.258 . S
O221 Zn215 2.035 . S
O222 Zn215 2.028 1_655 S
O222 C225 1.247 . S
O223 Zn217 2.035 1_655 S
O223 C225 1.258 . S
C224 O218 1.247 . S
C224 O219 1.258 . S
C225 O222 1.247 . S
C225 O223 1.258 . S
C226 O228 1.247 . S
C226 O230 1.258 . S
C227 O234 1.247 . S
C227 O235 1.258 . S
O228 C226 1.247 . S
O228 Zn229 2.028 . S
Zn229 O228 2.028 . S
Zn229 O233 2.035 1_545 S
Zn229 O235 2.035 1_545 S
Zn229 O236 2.028 . S
O230 C226 1.258 . S
O230 Zn231 2.035 . S
Zn231 O230 2.035 . S
Zn231 O232 2.028 1_545 S
Zn231 O234 2.028 1_545 S
Zn231 O237 2.035 . S
O232 Zn231 2.028 1_565 S
O232 C238 1.247 . S
O233 Zn229 2.035 1_565 S
O233 C238 1.258 . S
O234 C227 1.247 . S
O234 Zn231 2.028 1_565 S
O235 C227 1.258 . S
O235 Zn229 2.035 1_565 S
O236 Zn229 2.028 . S
O236 C239 1.247 . S
O237 Zn231 2.035 . S
O237 C239 1.258 . S
C238 O232 1.247 . S
C238 O233 1.258 . S
C239 O236 1.247 . S
C239 O237 1.258 . S
C240 O242 1.247 . S
C240 O244 1.258 . S
C241 O248 1.247 . S
C241 O249 1.258 . S
O242 C240 1.247 . S
O242 Zn243 2.052 . S
Zn243 O242 2.052 . S
Zn243 O247 2.059 . S
Zn243 O249 2.012 1_554 S
Zn243 O250 2.004 1_554 S
O244 C240 1.258 . S
O244 Zn245 2.035 . S
Zn245 O244 2.035 . S
Zn245 O246 2.028 . S
Zn245 O248 2.028 1_554 S
Zn245 O251 2.035 1_554 S
O246 Zn245 2.028 . S
O246 C252 1.247 . S
O247 Zn243 2.059 . S
O247 C252 1.258 . S
O248 C241 1.247 . S
O248 Zn245 2.028 1_556 S
O249 C241 1.258 . S
O249 Zn243 2.012 1_556 S
O250 Zn243 2.004 1_556 S
O250 C253 1.247 . S
O251 Zn245 2.035 1_556 S
O251 C253 1.258 . S
C252 O246 1.247 . S
C252 O247 1.258 . S
C253 O250 1.247 . S
C253 O251 1.258 . S
C254 O256 1.247 . S
C254 O258 1.258 . S
C255 O262 1.247 . S
C255 O263 1.258 . S
O256 C254 1.247 . S
O256 Zn257 2.028 . S
Zn257 O256 2.028 . S
Zn257 O261 2.035 . S
Zn257 O263 2.035 1_554 S
Zn257 O264 2.028 1_554 S
O258 C254 1.258 . S
O258 Zn259 2.035 . S
Zn259 O258 2.035 . S
Zn259 O260 2.028 . S
Zn259 O262 2.028 1_554 S
Zn259 O265 2.035 1_554 S
O260 Zn259 2.028 . S
O260 C266 1.247 . S
O261 Zn257 2.035 . S
O261 C266 1.258 . S
O262 C255 1.247 . S
O262 Zn259 2.028 1_556 S
O263 C255 1.258 . S
O263 Zn257 2.035 1_556 S
O264 Zn257 2.028 1_556 S
O264 C267 1.247 . S
O265 Zn259 2.035 1_556 S
O265 C267 1.258 . S
C266 O260 1.247 . S
C266 O261 1.258 . S
C267 O264 1.247 . S
C267 O265 1.258 . S
C268 O270 1.247 . S
C268 O272 1.258 . S
C269 O276 1.247 . S
C269 O277 1.258 . S
O270 C268 1.247 . S
O270 Zn271 2.028 1_556 S
Zn271 O270 2.028 1_554 S
Zn271 O275 2.035 1_554 S
Zn271 O277 2.035 . S
Zn271 O278 2.028 . S
O272 C268 1.258 . S
O272 Zn273 2.035 1_556 S
Zn273 O272 2.035 1_554 S
Zn273 O274 2.028 1_554 S
Zn273 O276 2.028 . S
Zn273 O279 2.035 . S
O274 Zn273 2.028 1_556 S
O274 C280 1.247 . S
O275 Zn271 2.035 1_556 S
O275 C280 1.258 . S
O276 C269 1.247 . S
O276 Zn273 2.028 . S
O277 C269 1.258 . S
O277 Zn271 2.035 . S
O278 Zn271 2.028 . S
O278 C281 1.247 . S
O279 Zn273 2.035 . S
O279 C281 1.258 . S
C280 O274 1.247 . S
C280 O275 1.258 . S
C281 O278 1.247 . S
C281 O279 1.258 . S
C282 O284 1.247 . S
C282 O286 1.258 . S
C283 O290 1.247 . S
C283 O291 1.258 . S
O284 C282 1.247 . S
O284 Zn285 2.028 . S
Zn285 O284 2.028 . S
Zn285 O289 2.035 . S
Zn285 O291 2.035 1_554 S
Zn285 O292 2.028 1_554 S
O286 C282 1.258 . S
O286 Zn287 2.035 . S
Zn287 O286 2.035 . S
Zn287 O288 2.028 . S
Zn287 O290 2.028 1_554 S
Zn287 O293 2.035 1_554 S
O288 Zn287 2.028 . S
O288 C294 1.247 . S
O289 Zn285 2.035 . S
O289 C294 1.258 . S
O290 C283 1.247 . S
O290 Zn287 2.028 1_556 S
O291 C283 1.258 . S
O291 Zn285 2.035 1_556 S
O292 Zn285 2.028 1_556 S
O292 C295 1.247 . S
O293 Zn287 2.035 1_556 S
O293 C295 1.258 . S
C294 O288 1.247 . S
C294 O289 1.258 . S
C295 O292 1.247 . S
C295 O293 1.258 . S
H296 C304 0.950 . S
H297 C309 0.950 . S
H298 C306 0.950 . S
H299 C308 0.950 . S
H300 C310 0.950 . S
H301 C312 0.950 . S
H302 C314 0.950 . S
H303 C315 0.950 . S
C304 H296 0.950 . S
C304 C305 1.386 . S
C304 C306 1.391 . S
C305 C304 1.386 . S
C305 C309 1.393 . S
C306 H298 0.950 . S
C306 C304 1.391 . S
C306 C307 1.400 . S
C307 C306 1.400 . S
C307 C308 1.398 . S
C307 C313 1.491 . S
C308 H299 0.950 . S
C308 C307 1.398 . S
C308 C309 1.391 . S
C309 H297 0.950 . S
C309 C305 1.393 . S
C309 C308 1.391 . S
C310 H300 0.950 . S
C310 C311 1.386 . S
C310 C312 1.391 . S
C311 C310 1.386 . S
C311 C315 1.393 . S
C312 H301 0.950 . S
C312 C310 1.391 . S
C312 C313 1.400 . S
C313 C307 1.491 . S
C313 C312 1.400 . S
C313 C314 1.398 . S
C314 H302 0.950 . S
C314 C313 1.398 . S
C314 C315 1.391 . S
C315 H303 0.950 . S
C315 C311 1.393 . S
C315 C314 1.391 . S
H316 C324 0.950 . S
H317 C329 0.950 . S
H318 C326 0.950 . S
H319 C328 0.950 . S
H320 C330 0.950 . S
H321 C332 0.950 . S
H322 C334 0.950 . S
H323 C335 0.950 . S
C324 H316 0.950 . S
C324 C325 1.386 . S
C324 C326 1.391 . S
C325 C324 1.386 . S
C325 C329 1.393 . S
C326 H318 0.950 . S
C326 C324 1.391 . S
C326 C327 1.400 . S
C327 C326 1.400 . S
C327 C328 1.398 . S
C327 C333 1.491 . S
C328 H319 0.950 . S
C328 C327 1.398 . S
C328 C329 1.391 . S
C329 H317 0.950 . S
C329 C325 1.393 . S
C329 C328 1.391 . S
C330 H320 0.950 . S
C330 C331 1.386 . S
C330 C332 1.391 . S
C331 C330 1.386 . S
C331 C335 1.393 . S
C332 H321 0.950 . S
C332 C330 1.391 . S
C332 C333 1.400 . S
C333 C327 1.491 . S
C333 C332 1.400 . S
C333 C334 1.398 . S
C334 H322 0.950 . S
C334 C333 1.398 . S
C334 C335 1.391 . S
C335 H323 0.950 . S
C335 C331 1.393 . S
C335 C334 1.391 . S
H336 C344 0.950 . S
H337 C349 0.950 . S
H338 C346 0.950 . S
H339 C348 0.950 . S
H340 C350 0.950 . S
H341 C352 0.950 . S
H342 C354 0.950 . S
H343 C355 0.950 . S
C344 H336 0.950 . S
C344 C345 1.386 . S
C344 C346 1.391 . S
C345 C344 1.386 . S
C345 C349 1.393 . S
C346 H338 0.950 . S
C346 C344 1.391 . S
C346 C347 1.400 . S
C347 C346 1.400 . S
C347 C348 1.398 . S
C347 C353 1.491 . S
C348 H339 0.950 . S
C348 C347 1.398 . S
C348 C349 1.391 . S
C349 H337 0.950 . S
C349 C345 1.393 . S
C349 C348 1.391 . S
C350 H340 0.950 . S
C350 C351 1.386 . S
C350 C352 1.391 . S
C351 C350 1.386 . S
C351 C355 1.393 . S
C352 H341 0.950 . S
C352 C350 1.391 . S
C352 C353 1.400 . S
C353 C347 1.491 . S
C353 C352 1.400 . S
C353 C354 1.398 . S
C354 H342 0.950 . S
C354 C353 1.398 . S
C354 C355 1.391 . S
C355 H343 0.950 . S
C355 C351 1.393 . S
C355 C354 1.391 . S
H356 C364 0.950 . S
H357 C369 0.950 . S
H358 C366 0.950 . S
H359 C368 0.950 . S
H360 C370 0.950 . S
H361 C372 0.950 . S
H362 C374 0.950 . S
H363 C375 0.950 . S
C364 H356 0.950 . S
C364 C365 1.386 . S
C364 C366 1.391 . S
C365 C364 1.386 . S
C365 C369 1.393 . S
C366 H358 0.950 . S
C366 C364 1.391 . S
C366 C367 1.400 . S
C367 C366 1.400 . S
C367 C368 1.398 . S
C367 C373 1.491 . S
C368 H359 0.950 . S
C368 C367 1.398 . S
C368 C369 1.391 . S
C369 H357 0.950 . S
C369 C365 1.393 . S
C369 C368 1.391 . S
C370 H360 0.950 . S
C370 C371 1.386 . S
C370 C372 1.391 . S
C371 C370 1.386 . S
C371 C375 1.393 . S
C372 H361 0.950 . S
C372 C370 1.391 . S
C372 C373 1.400 . S
C373 C367 1.491 . S
C373 C372 1.400 . S
C373 C374 1.398 . S
C374 H362 0.950 . S
C374 C373 1.398 . S
C374 C375 1.391 . S
C375 H363 0.950 . S
C375 C371 1.393 . S
C375 C374 1.391 . S
H376 C384 0.950 . S
H377 C389 0.950 . S
H378 C386 0.950 . S
H379 C388 0.950 . S
H380 C390 0.950 . S
H381 C392 0.950 . S
H382 C394 0.950 . S
H383 C395 0.950 . S
C384 H376 0.950 . S
C384 C385 1.386 . S
C384 C386 1.391 . S
C385 C384 1.386 . S
C385 C389 1.393 . S
C386 H378 0.950 . S
C386 C384 1.391 . S
C386 C387 1.400 . S
C387 C386 1.400 . S
C387 C388 1.398 . S
C387 C393 1.491 . S
C388 H379 0.950 . S
C388 C387 1.398 . S
C388 C389 1.391 . S
C389 H377 0.950 . S
C389 C385 1.393 . S
C389 C388 1.391 . S
C390 H380 0.950 . S
C390 C391 1.386 . S
C390 C392 1.391 . S
C391 C390 1.386 . S
C391 C395 1.393 . S
C392 H381 0.950 . S
C392 C390 1.391 . S
C392 C393 1.400 . S
C393 C387 1.491 . S
C393 C392 1.400 . S
C393 C394 1.398 . S
C394 H382 0.950 . S
C394 C393 1.398 . S
C394 C395 1.391 . S
C395 H383 0.950 . S
C395 C391 1.393 . S
C395 C394 1.391 . S
H396 C404 0.950 . S
H397 C409 0.950 . S
H398 C406 0.950 . S
H399 C408 0.950 . S
H400 C410 0.950 . S
H401 C412 0.950 . S
H402 C414 0.950 . S
H403 C415 0.950 . S
C404 H396 0.950 . S
C404 C405 1.386 . S
C404 C406 1.391 . S
C405 C404 1.386 . S
C405 C409 1.393 . S
C406 H398 0.950 . S
C406 C404 1.391 . S
C406 C407 1.400 . S
C407 C406 1.400 . S
C407 C408 1.398 . S
C407 C413 1.491 . S
C408 H399 0.950 . S
C408 C407 1.398 . S
C408 C409 1.391 . S
C409 H397 0.950 . S
C409 C405 1.393 . S
C409 C408 1.391 . S
C410 H400 0.950 . S
C410 C411 1.386 . S
C410 C412 1.391 . S
C411 C410 1.386 . S
C411 C415 1.393 . S
C412 H401 0.950 . S
C412 C410 1.391 . S
C412 C413 1.400 . S
C413 C407 1.491 . S
C413 C412 1.400 . S
C413 C414 1.398 . S
C414 H402 0.950 . S
C414 C413 1.398 . S
C414 C415 1.391 . S
C415 H403 0.950 . S
C415 C411 1.393 . S
C415 C414 1.391 . S
H416 C424 0.950 . S
H417 C429 0.950 . S
H418 C426 0.950 . S
H419 C428 0.950 . S
H420 C430 0.950 . S
H421 C432 0.950 . S
H422 C434 0.950 . S
H423 C435 0.950 1_455 S
C424 H416 0.950 . S
C424 C425 1.386 . S
C424 C426 1.391 . S
C425 C424 1.386 . S
C425 C429 1.393 . S
C426 H418 0.950 . S
C426 C424 1.391 . S
C426 C427 1.400 . S
C427 C426 1.400 . S
C427 C428 1.398 . S
C427 C433 1.491 . S
C428 H419 0.950 . S
C428 C427 1.398 . S
C428 C429 1.391 . S
C429 H417 0.950 . S
C429 C425 1.393 . S
C429 C428 1.391 . S
C430 H420 0.950 . S
C430 C431 1.386 . S
C430 C432 1.391 . S
C431 C430 1.386 . S
C431 C435 1.393 . S
C432 H421 0.950 . S
C432 C430 1.391 . S
C432 C433 1.400 . S
C433 C427 1.491 . S
C433 C432 1.400 . S
C433 C434 1.398 . S
C434 H422 0.950 . S
C434 C433 1.398 . S
C434 C435 1.391 . S
C435 H423 0.950 1_655 S
C435 C431 1.393 . S
C435 C434 1.391 . S
H436 C444 0.950 . S
H437 C449 0.950 . S
H438 C446 0.950 . S
H439 C448 0.950 . S
H440 C450 0.950 . S
H441 C452 0.950 . S
H442 C454 0.950 . S
H443 C455 0.950 . S
C444 H436 0.950 . S
C444 C445 1.386 . S
C444 C446 1.391 . S
C445 C444 1.386 . S
C445 C449 1.393 . S
C446 H438 0.950 . S
C446 C444 1.391 . S
C446 C447 1.400 . S
C447 C446 1.400 . S
C447 C448 1.398 . S
C447 C453 1.491 . S
C448 H439 0.950 . S
C448 C447 1.398 . S
C448 C449 1.391 . S
C449 H437 0.950 . S
C449 C445 1.393 . S
C449 C448 1.391 . S
C450 H440 0.950 . S
C450 C451 1.386 . S
C450 C452 1.391 . S
C451 C450 1.386 . S
C451 C455 1.393 . S
C452 H441 0.950 . S
C452 C450 1.391 . S
C452 C453 1.400 . S
C453 C447 1.491 . S
C453 C452 1.400 . S
C453 C454 1.398 . S
C454 H442 0.950 . S
C454 C453 1.398 . S
C454 C455 1.391 . S
C455 H443 0.950 . S
C455 C451 1.393 . S
C455 C454 1.391 . S
H456 C464 0.950 . S
H457 C469 0.950 . S
H458 C466 0.950 . S
H459 C468 0.950 . S
H460 C470 0.950 . S
H461 C472 0.950 . S
H462 C474 0.950 . S
H463 C475 0.950 . S
C464 H456 0.950 . S
C464 C465 1.386 . S
C464 C466 1.391 . S
C465 C464 1.386 . S
C465 C469 1.393 . S
C466 H458 0.950 . S
C466 C464 1.391 . S
C466 C467 1.400 . S
C467 C466 1.400 . S
C467 C468 1.398 . S
C467 C473 1.491 . S
C468 H459 0.950 . S
C468 C467 1.398 . S
C468 C469 1.391 . S
C469 H457 0.950 . S
C469 C465 1.393 . S
C469 C468 1.391 . S
C470 H460 0.950 . S
C470 C471 1.386 . S
C470 C472 1.391 . S
C471 C470 1.386 . S
C471 C475 1.393 . S
C472 H461 0.950 . S
C472 C470 1.391 . S
C472 C473 1.400 . S
C473 C467 1.491 . S
C473 C472 1.400 . S
C473 C474 1.398 . S
C474 H462 0.950 . S
C474 C473 1.398 . S
C474 C475 1.391 . S
C475 H463 0.950 . S
C475 C471 1.393 . S
C475 C474 1.391 . S
H476 C484 0.950 . S
H477 C489 0.950 . S
H478 C486 0.950 . S
H479 C488 0.950 . S
H480 C490 0.950 . S
H481 C492 0.950 . S
H482 C494 0.950 . S
H483 C495 0.950 . S
C484 H476 0.950 . S
C484 C485 1.386 . S
C484 C486 1.391 . S
C485 C484 1.386 . S
C485 C489 1.393 . S
C486 H478 0.950 . S
C486 C484 1.391 . S
C486 C487 1.400 . S
C487 C486 1.400 . S
C487 C488 1.398 . S
C487 C493 1.491 . S
C488 H479 0.950 . S
C488 C487 1.398 . S
C488 C489 1.391 . S
C489 H477 0.950 . S
C489 C485 1.393 . S
C489 C488 1.391 . S
C490 H480 0.950 . S
C490 C491 1.386 . S
C490 C492 1.391 . S
C491 C490 1.386 . S
C491 C495 1.393 . S
C492 H481 0.950 . S
C492 C490 1.391 . S
C492 C493 1.400 . S
C493 C487 1.491 . S
C493 C492 1.400 . S
C493 C494 1.398 . S
C494 H482 0.950 . S
C494 C493 1.398 . S
C494 C495 1.391 . S
C495 H483 0.950 . S
C495 C491 1.393 . S
C495 C494 1.391 . S
H496 C504 0.950 . S
H497 C509 0.950 . S
H498 C506 0.950 . S
H499 C508 0.950 . S
H500 C510 0.950 . S
H501 C512 0.950 . S
H502 C514 0.950 . S
H503 C515 0.950 . S
C504 H496 0.950 . S
C504 C505 1.386 . S
C504 C506 1.391 . S
C505 C504 1.386 . S
C505 C509 1.393 . S
C506 H498 0.950 . S
C506 C504 1.391 . S
C506 C507 1.400 . S
C507 C506 1.400 . S
C507 C508 1.398 . S
C507 C513 1.491 . S
C508 H499 0.950 . S
C508 C507 1.398 . S
C508 C509 1.391 . S
C509 H497 0.950 . S
C509 C505 1.393 . S
C509 C508 1.391 . S
C510 H500 0.950 . S
C510 C511 1.386 . S
C510 C512 1.391 . S
C511 C510 1.386 . S
C511 C515 1.393 . S
C512 H501 0.950 . S
C512 C510 1.391 . S
C512 C513 1.400 . S
C513 C507 1.491 . S
C513 C512 1.400 . S
C513 C514 1.398 . S
C514 H502 0.950 . S
C514 C513 1.398 . S
C514 C515 1.391 . S
C515 H503 0.950 . S
C515 C511 1.393 . S
C515 C514 1.391 . S
H516 C524 0.950 . S
H517 C529 0.950 . S
H518 C526 0.950 . S
H519 C528 0.950 . S
H520 C530 0.950 . S
H521 C532 0.950 . S
H522 C534 0.950 . S
H523 C535 0.950 . S
C524 H516 0.950 . S
C524 C525 1.386 . S
C524 C526 1.391 . S
C525 C524 1.386 . S
C525 C529 1.393 . S
C526 H518 0.950 . S
C526 C524 1.391 . S
C526 C527 1.400 . S
C527 C526 1.400 . S
C527 C528 1.398 . S
C527 C533 1.491 . S
C528 H519 0.950 . S
C528 C527 1.398 . S
C528 C529 1.391 . S
C529 H517 0.950 . S
C529 C525 1.393 . S
C529 C528 1.391 . S
C530 H520 0.950 . S
C530 C531 1.386 . S
C530 C532 1.391 . S
C531 C530 1.386 . S
C531 C535 1.393 . S
C532 H521 0.950 . S
C532 C530 1.391 . S
C532 C533 1.400 . S
C533 C527 1.491 . S
C533 C532 1.400 . S
C533 C534 1.398 . S
C534 H522 0.950 . S
C534 C533 1.398 . S
C534 C535 1.391 . S
C535 H523 0.950 . S
C535 C531 1.393 . S
C535 C534 1.391 . S
H536 C544 0.950 . S
H537 C549 0.950 . S
H538 C546 0.950 . S
H539 C548 0.950 . S
H540 C550 0.950 1_455 S
H541 C552 0.950 . S
H542 C554 0.950 . S
H543 C555 0.950 . S
C544 H536 0.950 . S
C544 C545 1.386 . S
C544 C546 1.391 . S
C545 C544 1.386 . S
C545 C549 1.393 . S
C546 H538 0.950 . S
C546 C544 1.391 . S
C546 C547 1.400 . S
C547 C546 1.400 . S
C547 C548 1.398 . S
C547 C553 1.491 . S
C548 H539 0.950 . S
C548 C547 1.398 . S
C548 C549 1.391 . S
C549 H537 0.950 . S
C549 C545 1.393 . S
C549 C548 1.391 . S
C550 H540 0.950 1_655 S
C550 C551 1.386 . S
C550 C552 1.391 . S
C551 C550 1.386 . S
C551 C555 1.393 . S
C552 H541 0.950 . S
C552 C550 1.391 . S
C552 C553 1.400 . S
C553 C547 1.491 . S
C553 C552 1.400 . S
C553 C554 1.398 . S
C554 H542 0.950 . S
C554 C553 1.398 . S
C554 C555 1.391 . S
C555 H543 0.950 . S
C555 C551 1.393 . S
C555 C554 1.391 . S
H556 C564 0.950 . S
H557 C569 0.950 . S
H558 C566 0.950 . S
H559 C568 0.950 . S
H560 C570 0.950 . S
H561 C572 0.950 . S
H562 C574 0.950 . S
H563 C575 0.950 . S
C564 H556 0.950 . S
C564 C565 1.386 . S
C564 C566 1.391 . S
C565 C564 1.386 . S
C565 C569 1.393 . S
C566 H558 0.950 . S
C566 C564 1.391 . S
C566 C567 1.400 . S
C567 C566 1.400 . S
C567 C568 1.398 . S
C567 C573 1.491 . S
C568 H559 0.950 . S
C568 C567 1.398 . S
C568 C569 1.391 . S
C569 H557 0.950 . S
C569 C565 1.393 . S
C569 C568 1.391 . S
C570 H560 0.950 . S
C570 C571 1.386 . S
C570 C572 1.391 . S
C571 C570 1.386 . S
C571 C575 1.393 . S
C572 H561 0.950 . S
C572 C570 1.391 . S
C572 C573 1.400 . S
C573 C567 1.491 . S
C573 C572 1.400 . S
C573 C574 1.398 . S
C574 H562 0.950 . S
C574 C573 1.398 . S
C574 C575 1.391 . S
C575 H563 0.950 . S
C575 C571 1.393 . S
C575 C574 1.391 . S
H576 C584 0.950 . S
H577 C589 0.950 . S
H578 C586 0.950 . S
H579 C588 0.950 . S
H580 C590 0.950 . S
H581 C592 0.950 . S
H582 C594 0.950 . S
H583 C595 0.950 . S
C584 H576 0.950 . S
C584 C585 1.386 . S
C584 C586 1.391 . S
C585 C584 1.386 . S
C585 C589 1.393 . S
C586 H578 0.950 . S
C586 C584 1.391 . S
C586 C587 1.400 . S
C587 C586 1.400 . S
C587 C588 1.398 . S
C587 C593 1.491 . S
C588 H579 0.950 . S
C588 C587 1.398 . S
C588 C589 1.391 . S
C589 H577 0.950 . S
C589 C585 1.393 . S
C589 C588 1.391 . S
C590 H580 0.950 . S
C590 C591 1.386 . S
C590 C592 1.391 . S
C591 C590 1.386 . S
C591 C595 1.393 . S
C592 H581 0.950 . S
C592 C590 1.391 . S
C592 C593 1.400 . S
C593 C587 1.491 . S
C593 C592 1.400 . S
C593 C594 1.398 . S
C594 H582 0.950 . S
C594 C593 1.398 . S
C594 C595 1.391 . S
C595 H583 0.950 . S
C595 C591 1.393 . S
C595 C594 1.391 . S
H596 C604 0.950 . S
H597 C609 0.950 . S
H598 C606 0.950 . S
H599 C608 0.950 . S
H600 C610 0.950 . S
H601 C612 0.950 . S
H602 C614 0.950 . S
H603 C615 0.950 . S
C604 H596 0.950 . S
C604 C605 1.386 . S
C604 C606 1.391 . S
C605 C604 1.386 . S
C605 C609 1.393 . S
C606 H598 0.950 . S
C606 C604 1.391 . S
C606 C607 1.400 . S
C607 C606 1.400 . S
C607 C608 1.398 . S
C607 C613 1.491 . S
C608 H599 0.950 . S
C608 C607 1.398 . S
C608 C609 1.391 . S
C609 H597 0.950 . S
C609 C605 1.393 . S
C609 C608 1.391 . S
C610 H600 0.950 . S
C610 C611 1.386 . S
C610 C612 1.391 . S
C611 C610 1.386 . S
C611 C615 1.393 . S
C612 H601 0.950 . S
C612 C610 1.391 . S
C612 C613 1.400 . S
C613 C607 1.491 . S
C613 C612 1.400 . S
C613 C614 1.398 . S
C614 H602 0.950 . S
C614 C613 1.398 . S
C614 C615 1.391 . S
C615 H603 0.950 . S
C615 C611 1.393 . S
C615 C614 1.391 . S
H616 C624 0.950 . S
H617 C629 0.950 . S
H618 C626 0.950 . S
H619 C628 0.950 . S
H620 C630 0.950 . S
H621 C632 0.950 . S
H622 C634 0.950 . S
H623 C635 0.950 . S
C624 H616 0.950 . S
C624 C625 1.386 . S
C624 C626 1.391 . S
C625 C624 1.386 . S
C625 C629 1.393 . S
C626 H618 0.950 . S
C626 C624 1.391 . S
C626 C627 1.400 . S
C627 C626 1.400 . S
C627 C628 1.398 . S
C627 C633 1.491 . S
C628 H619 0.950 . S
C628 C627 1.398 . S
C628 C629 1.391 . S
C629 H617 0.950 . S
C629 C625 1.393 . S
C629 C628 1.391 . S
C630 H620 0.950 . S
C630 C631 1.386 . S
C630 C632 1.391 . S
C631 C630 1.386 . S
C631 C635 1.393 . S
C632 H621 0.950 . S
C632 C630 1.391 . S
C632 C633 1.400 . S
C633 C627 1.491 . S
C633 C632 1.400 . S
C633 C634 1.398 . S
C634 H622 0.950 . S
C634 C633 1.398 . S
C634 C635 1.391 . S
C635 H623 0.950 . S
C635 C631 1.393 . S
C635 C634 1.391 . S
H636 C644 0.950 . S
H637 C649 0.950 . S
H638 C646 0.950 . S
H639 C648 0.950 . S
H640 C650 0.950 . S
H641 C652 0.950 . S
H642 C654 0.950 . S
H643 C655 0.950 . S
C644 H636 0.950 . S
C644 C645 1.386 . S
C644 C646 1.391 . S
C645 C644 1.386 . S
C645 C649 1.393 . S
C646 H638 0.950 . S
C646 C644 1.391 . S
C646 C647 1.400 . S
C647 C646 1.400 . S
C647 C648 1.398 . S
C647 C653 1.491 . S
C648 H639 0.950 . S
C648 C647 1.398 . S
C648 C649 1.391 . S
C649 H637 0.950 . S
C649 C645 1.393 . S
C649 C648 1.391 . S
C650 H640 0.950 . S
C650 C651 1.386 . S
C650 C652 1.391 . S
C651 C650 1.386 . S
C651 C655 1.393 . S
C652 H641 0.950 . S
C652 C650 1.391 . S
C652 C653 1.400 . S
C653 C647 1.491 . S
C653 C652 1.400 . S
C653 C654 1.398 . S
C654 H642 0.950 . S
C654 C653 1.398 . S
C654 C655 1.391 . S
C655 H643 0.950 . S
C655 C651 1.393 . S
C655 C654 1.391 . S
H656 C664 0.950 . S
H657 C669 0.950 . S
H658 C666 0.950 . S
H659 C668 0.950 . S
H660 C670 0.950 . S
H661 C672 0.950 . S
H662 C674 0.950 . S
H663 C675 0.950 . S
C664 H656 0.950 . S
C664 C665 1.386 . S
C664 C666 1.391 . S
C665 C664 1.386 . S
C665 C669 1.393 . S
C666 H658 0.950 . S
C666 C664 1.391 . S
C666 C667 1.400 . S
C667 C666 1.400 . S
C667 C668 1.398 . S
C667 C673 1.491 . S
C668 H659 0.950 . S
C668 C667 1.398 . S
C668 C669 1.391 . S
C669 H657 0.950 . S
C669 C665 1.393 . S
C669 C668 1.391 . S
C670 H660 0.950 . S
C670 C671 1.386 . S
C670 C672 1.391 . S
C671 C670 1.386 . S
C671 C675 1.393 . S
C672 H661 0.950 . S
C672 C670 1.391 . S
C672 C673 1.400 . S
C673 C667 1.491 . S
C673 C672 1.400 . S
C673 C674 1.398 . S
C674 H662 0.950 . S
C674 C673 1.398 . S
C674 C675 1.391 . S
C675 H663 0.950 . S
C675 C671 1.393 . S
C675 C674 1.391 . S
H676 C684 0.950 . S
H677 C689 0.950 . S
H678 C686 0.950 . S
H679 C688 0.950 . S
H680 C690 0.950 . S
H681 C692 0.950 . S
H682 C694 0.950 . S
H683 C695 0.950 . S
C684 H676 0.950 . S
C684 C685 1.386 . S
C684 C686 1.391 . S
C685 C684 1.386 . S
C685 C689 1.393 . S
C686 H678 0.950 . S
C686 C684 1.391 . S
C686 C687 1.400 . S
C687 C686 1.400 . S
C687 C688 1.398 . S
C687 C693 1.491 . S
C688 H679 0.950 . S
C688 C687 1.398 . S
C688 C689 1.391 . S
C689 H677 0.950 . S
C689 C685 1.393 . S
C689 C688 1.391 . S
C690 H680 0.950 . S
C690 C691 1.386 . S
C690 C692 1.391 . S
C691 C690 1.386 . S
C691 C695 1.393 . S
C692 H681 0.950 . S
C692 C690 1.391 . S
C692 C693 1.400 . S
C693 C687 1.491 . S
C693 C692 1.400 . S
C693 C694 1.398 . S
C694 H682 0.950 . S
C694 C693 1.398 . S
C694 C695 1.391 . S
C695 H683 0.950 . S
C695 C691 1.393 . S
C695 C694 1.391 . S
H696 C704 0.950 . S
H697 C709 0.950 . S
H698 C706 0.950 . S
H699 C708 0.950 . S
H700 C710 0.950 . S
H701 C712 0.950 . S
H702 C714 0.950 . S
H703 C715 0.950 . S
C704 H696 0.950 . S
C704 C705 1.386 . S
C704 C706 1.391 . S
C705 C704 1.386 . S
C705 C709 1.393 . S
C706 H698 0.950 . S
C706 C704 1.391 . S
C706 C707 1.400 . S
C707 C706 1.400 . S
C707 C708 1.398 . S
C707 C713 1.491 . S
C708 H699 0.950 . S
C708 C707 1.398 . S
C708 C709 1.391 . S
C709 H697 0.950 . S
C709 C705 1.393 . S
C709 C708 1.391 . S
C710 H700 0.950 . S
C710 C711 1.386 . S
C710 C712 1.391 . S
C711 C710 1.386 . S
C711 C715 1.393 . S
C712 H701 0.950 . S
C712 C710 1.391 . S
C712 C713 1.400 . S
C713 C707 1.491 . S
C713 C712 1.400 . S
C713 C714 1.398 . S
C714 H702 0.950 . S
C714 C713 1.398 . S
C714 C715 1.391 . S
C715 H703 0.950 . S
C715 C711 1.393 . S
C715 C714 1.391 . S
H716 C724 0.950 . S
H717 C729 0.950 . S
H718 C726 0.950 . S
H719 C728 0.950 . S
H720 C730 0.950 . S
H721 C732 0.950 . S
H722 C734 0.950 . S
H723 C735 0.950 . S
C724 H716 0.950 . S
C724 C725 1.386 . S
C724 C726 1.391 . S
C725 C724 1.386 . S
C725 C729 1.393 . S
C726 H718 0.950 . S
C726 C724 1.391 . S
C726 C727 1.400 . S
C727 C726 1.400 . S
C727 C728 1.398 . S
C727 C733 1.491 . S
C728 H719 0.950 . S
C728 C727 1.398 . S
C728 C729 1.391 . S
C729 H717 0.950 . S
C729 C725 1.393 . S
C729 C728 1.391 . S
C730 H720 0.950 . S
C730 C731 1.386 . S
C730 C732 1.391 . S
C731 C730 1.386 . S
C731 C735 1.393 . S
C732 H721 0.950 . S
C732 C730 1.391 . S
C732 C733 1.400 . S
C733 C727 1.491 . S
C733 C732 1.400 . S
C733 C734 1.398 . S
C734 H722 0.950 . S
C734 C733 1.398 . S
C734 C735 1.391 . S
C735 H723 0.950 . S
C735 C731 1.393 . S
C735 C734 1.391 . S
H736 C744 0.950 . S
H737 C749 0.950 . S
H738 C746 0.950 . S
H739 C748 0.950 . S
H740 C750 0.950 . S
H741 C752 0.950 . S
H742 C754 0.950 . S
H743 C755 0.950 . S
C744 H736 0.950 . S
C744 C745 1.386 . S
C744 C746 1.391 . S
C745 C744 1.386 . S
C745 C749 1.393 . S
C746 H738 0.950 . S
C746 C744 1.391 . S
C746 C747 1.400 . S
C747 C746 1.400 . S
C747 C748 1.398 . S
C747 C753 1.491 . S
C748 H739 0.950 . S
C748 C747 1.398 . S
C748 C749 1.391 . S
C749 H737 0.950 . S
C749 C745 1.393 . S
C749 C748 1.391 . S
C750 H740 0.950 . S
C750 C751 1.386 . S
C750 C752 1.391 . S
C751 C750 1.386 . S
C751 C755 1.393 . S
C752 H741 0.950 . S
C752 C750 1.391 . S
C752 C753 1.400 . S
C753 C747 1.491 . S
C753 C752 1.400 . S
C753 C754 1.398 . S
C754 H742 0.950 . S
C754 C753 1.398 . S
C754 C755 1.391 . S
C755 H743 0.950 . S
C755 C751 1.393 . S
C755 C754 1.391 . S
H756 C764 0.950 . S
H757 C769 0.950 . S
H758 C766 0.950 . S
H759 C768 0.950 . S
H760 C770 0.950 . S
H761 C772 0.950 . S
H762 C774 0.950 . S
H763 C775 0.950 . S
C764 H756 0.950 . S
C764 C765 1.386 . S
C764 C766 1.391 . S
C765 C764 1.386 . S
C765 C769 1.393 . S
C766 H758 0.950 . S
C766 C764 1.391 . S
C766 C767 1.400 . S
C767 C766 1.400 . S
C767 C768 1.398 . S
C767 C773 1.491 . S
C768 H759 0.950 . S
C768 C767 1.398 . S
C768 C769 1.391 . S
C769 H757 0.950 . S
C769 C765 1.393 . S
C769 C768 1.391 . S
C770 H760 0.950 . S
C770 C771 1.386 . S
C770 C772 1.391 . S
C771 C770 1.386 . S
C771 C775 1.393 . S
C772 H761 0.950 . S
C772 C770 1.391 . S
C772 C773 1.400 . S
C773 C767 1.491 . S
C773 C772 1.400 . S
C773 C774 1.398 . S
C774 H762 0.950 . S
C774 C773 1.398 . S
C774 C775 1.391 . S
C775 H763 0.950 . S
C775 C771 1.393 . S
C775 C774 1.391 . S
H776 C784 0.950 . S
H777 C789 0.950 . S
H778 C786 0.950 . S
H779 C788 0.950 . S
H780 C790 0.950 . S
H781 C792 0.950 . S
H782 C794 0.950 . S
H783 C795 0.950 . S
C784 H776 0.950 . S
C784 C785 1.386 . S
C784 C786 1.391 . S
C785 C784 1.386 . S
C785 C789 1.393 . S
C786 H778 0.950 . S
C786 C784 1.391 . S
C786 C787 1.400 . S
C787 C786 1.400 . S
C787 C788 1.398 . S
C787 C793 1.491 . S
C788 H779 0.950 . S
C788 C787 1.398 . S
C788 C789 1.391 . S
C789 H777 0.950 . S
C789 C785 1.393 . S
C789 C788 1.391 . S
C790 H780 0.950 . S
C790 C791 1.386 . S
C790 C792 1.391 . S
C791 C790 1.386 . S
C791 C795 1.393 . S
C792 H781 0.950 . S
C792 C790 1.391 . S
C792 C793 1.400 . S
C793 C787 1.491 . S
C793 C792 1.400 . S
C793 C794 1.398 . S
C794 H782 0.950 . S
C794 C793 1.398 . S
C794 C795 1.391 . S
C795 H783 0.950 . S
C795 C791 1.393 . S
C795 C794 1.391 . S
H796 C804 0.950 . S
H797 C809 0.950 . S
H798 C806 0.950 . S
H799 C808 0.950 . S
H800 C810 0.950 . S
H801 C812 0.950 . S
H802 C814 0.950 . S
H803 C815 0.950 . S
C804 H796 0.950 . S
C804 C805 1.386 . S
C804 C806 1.391 . S
C805 C804 1.386 . S
C805 C809 1.393 . S
C806 H798 0.950 . S
C806 C804 1.391 . S
C806 C807 1.400 . S
C807 C806 1.400 . S
C807 C808 1.398 . S
C807 C813 1.491 . S
C808 H799 0.950 . S
C808 C807 1.398 . S
C808 C809 1.391 . S
C809 H797 0.950 . S
C809 C805 1.393 . S
C809 C808 1.391 . S
C810 H800 0.950 . S
C810 C811 1.386 . S
C810 C812 1.391 . S
C811 C810 1.386 . S
C811 C815 1.393 . S
C812 H801 0.950 . S
C812 C810 1.391 . S
C812 C813 1.400 . S
C813 C807 1.491 . S
C813 C812 1.400 . S
C813 C814 1.398 . S
C814 H802 0.950 . S
C814 C813 1.398 . S
C814 C815 1.391 . S
C815 H803 0.950 . S
C815 C811 1.393 . S
C815 C814 1.391 . S
H816 C824 0.950 . S
H817 C829 0.950 . S
H818 C826 0.950 . S
H819 C828 0.950 . S
H820 C830 0.950 . S
H821 C832 0.950 . S
H822 C834 0.950 . S
H823 C835 0.950 . S
C824 H816 0.950 . S
C824 C825 1.386 . S
C824 C826 1.391 . S
C825 C824 1.386 . S
C825 C829 1.393 . S
C826 H818 0.950 . S
C826 C824 1.391 . S
C826 C827 1.400 . S
C827 C826 1.400 . S
C827 C828 1.398 . S
C827 C833 1.491 . S
C828 H819 0.950 . S
C828 C827 1.398 . S
C828 C829 1.391 . S
C829 H817 0.950 . S
C829 C825 1.393 . S
C829 C828 1.391 . S
C830 H820 0.950 . S
C830 C831 1.386 . S
C830 C832 1.391 . S
C831 C830 1.386 . S
C831 C835 1.393 . S
C832 H821 0.950 . S
C832 C830 1.391 . S
C832 C833 1.400 . S
C833 C827 1.491 . S
C833 C832 1.400 . S
C833 C834 1.398 . S
C834 H822 0.950 . S
C834 C833 1.398 . S
C834 C835 1.391 . S
C835 H823 0.950 . S
C835 C831 1.393 . S
C835 C834 1.391 . S
H836 C844 0.950 . S
H837 C849 0.950 . S
H838 C846 0.950 . S
H839 C848 0.950 . S
H840 C850 0.950 . S
H841 C852 0.950 . S
H842 C854 0.950 . S
H843 C855 0.950 . S
C844 H836 0.950 . S
C844 C845 1.386 . S
C844 C846 1.391 . S
C845 C844 1.386 . S
C845 C849 1.393 . S
C846 H838 0.950 . S
C846 C844 1.391 . S
C846 C847 1.400 . S
C847 C846 1.400 . S
C847 C848 1.398 . S
C847 C853 1.491 . S
C848 H839 0.950 . S
C848 C847 1.398 . S
C848 C849 1.391 . S
C849 H837 0.950 . S
C849 C845 1.393 . S
C849 C848 1.391 . S
C850 H840 0.950 . S
C850 C851 1.386 . S
C850 C852 1.391 . S
C851 C850 1.386 . S
C851 C855 1.393 . S
C852 H841 0.950 . S
C852 C850 1.391 . S
C852 C853 1.400 . S
C853 C847 1.491 . S
C853 C852 1.400 . S
C853 C854 1.398 . S
C854 H842 0.950 . S
C854 C853 1.398 . S
C854 C855 1.391 . S
C855 H843 0.950 . S
C855 C851 1.393 . S
C855 C854 1.391 . S
H856 C864 0.950 . S
H857 C869 0.950 . S
H858 C866 0.950 . S
H859 C868 0.950 . S
H860 C870 0.950 . S
H861 C872 0.950 . S
H862 C874 0.950 . S
H863 C875 0.950 . S
C864 H856 0.950 . S
C864 C865 1.386 . S
C864 C866 1.391 . S
C865 C864 1.386 . S
C865 C869 1.393 . S
C866 H858 0.950 . S
C866 C864 1.391 . S
C866 C867 1.400 . S
C867 C866 1.400 . S
C867 C868 1.398 . S
C867 C873 1.491 . S
C868 H859 0.950 . S
C868 C867 1.398 . S
C868 C869 1.391 . S
C869 H857 0.950 . S
C869 C865 1.393 . S
C869 C868 1.391 . S
C870 H860 0.950 . S
C870 C871 1.386 . S
C870 C872 1.391 . S
C871 C870 1.386 . S
C871 C875 1.393 . S
C872 H861 0.950 . S
C872 C870 1.391 . S
C872 C873 1.400 . S
C873 C867 1.491 . S
C873 C872 1.400 . S
C873 C874 1.398 . S
C874 H862 0.950 . S
C874 C873 1.398 . S
C874 C875 1.391 . S
C875 H863 0.950 . S
C875 C871 1.393 . S
C875 C874 1.391 . S
H876 C884 0.950 . S
H877 C889 0.950 . S
H878 C886 0.950 . S
H879 C888 0.950 . S
H880 C890 0.950 . S
H881 C892 0.950 . S
H882 C894 0.950 . S
H883 C895 0.950 . S
C884 H876 0.950 . S
C884 C885 1.386 . S
C884 C886 1.391 . S
C885 C884 1.386 . S
C885 C889 1.393 . S
C886 H878 0.950 . S
C886 C884 1.391 . S
C886 C887 1.400 . S
C887 C886 1.400 . S
C887 C888 1.398 . S
C887 C893 1.491 . S
C888 H879 0.950 . S
C888 C887 1.398 . S
C888 C889 1.391 . S
C889 H877 0.950 . S
C889 C885 1.393 . S
C889 C888 1.391 . S
C890 H880 0.950 . S
C890 C891 1.386 . S
C890 C892 1.391 . S
C891 C890 1.386 . S
C891 C895 1.393 . S
C892 H881 0.950 . S
C892 C890 1.391 . S
C892 C893 1.400 . S
C893 C887 1.491 . S
C893 C892 1.400 . S
C893 C894 1.398 . S
C894 H882 0.950 . S
C894 C893 1.398 . S
C894 C895 1.391 . S
C895 H883 0.950 . S
C895 C891 1.393 . S
C895 C894 1.391 . S
H896 C904 0.950 . S
H897 C909 0.950 . S
H898 C906 0.950 . S
H899 C908 0.950 . S
H900 C910 0.950 . S
H901 C912 0.950 . S
H902 C914 0.950 . S
H903 C915 0.950 . S
C904 H896 0.950 . S
C904 C905 1.386 . S
C904 C906 1.391 . S
C905 C904 1.386 . S
C905 C909 1.393 . S
C906 H898 0.950 . S
C906 C904 1.391 . S
C906 C907 1.400 . S
C907 C906 1.400 . S
C907 C908 1.398 . S
C907 C913 1.491 . S
C908 H899 0.950 . S
C908 C907 1.398 . S
C908 C909 1.391 . S
C909 H897 0.950 . S
C909 C905 1.393 . S
C909 C908 1.391 . S
C910 H900 0.950 . S
C910 C911 1.386 . S
C910 C912 1.391 . S
C911 C910 1.386 . S
C911 C915 1.393 . S
C912 H901 0.950 . S
C912 C910 1.391 . S
C912 C913 1.400 . S
C913 C907 1.491 . S
C913 C912 1.400 . S
C913 C914 1.398 . S
C914 H902 0.950 . S
C914 C913 1.398 . S
C914 C915 1.391 . S
C915 H903 0.950 . S
C915 C911 1.393 . S
C915 C914 1.391 . S
H916 C924 0.950 . S
H917 C929 0.950 . S
H918 C926 0.950 . S
H919 C928 0.950 . S
H920 C930 0.950 . S
H921 C932 0.950 . S
H922 C934 0.950 . S
H923 C935 0.950 . S
C924 H916 0.950 . S
C924 C925 1.386 . S
C924 C926 1.391 . S
C925 C924 1.386 . S
C925 C929 1.393 . S
C926 H918 0.950 . S
C926 C924 1.391 . S
C926 C927 1.400 . S
C927 C926 1.400 . S
C927 C928 1.398 . S
C927 C933 1.491 . S
C928 H919 0.950 . S
C928 C927 1.398 . S
C928 C929 1.391 . S
C929 H917 0.950 . S
C929 C925 1.393 . S
C929 C928 1.391 . S
C930 H920 0.950 . S
C930 C931 1.386 . S
C930 C932 1.391 . S
C931 C930 1.386 . S
C931 C935 1.393 . S
C932 H921 0.950 . S
C932 C930 1.391 . S
C932 C933 1.400 . S
C933 C927 1.491 . S
C933 C932 1.400 . S
C933 C934 1.398 . S
C934 H922 0.950 . S
C934 C933 1.398 . S
C934 C935 1.391 . S
C935 H923 0.950 . S
C935 C931 1.393 . S
C935 C934 1.391 . S
C311 C185 1.574 . S
C305 C16 1.571 . S
C331 C211 1.581 . S
C325 C30 1.587 . S
C351 C225 1.581 . S
C345 C53 1.591 . S
C371 C227 1.612 . S
C365 C76 1.624 . S
C385 N104 1.440 . S
C391 C224 1.467 . S
C411 C226 1.501 . S
C405 N127 1.467 . S
C431 C184 1.469 1_655 S
C425 N140 1.442 . S
C451 C210 1.464 1_565 S
C445 N173 1.420 . S
C471 C212 1.586 . S
C465 C168 1.589 . S
C491 C238 1.591 . S
C485 C99 1.590 . S
C511 C196 1.579 . S
C505 C122 1.580 . S
C531 C198 1.555 . S
C525 C154 1.551 . S
C551 C197 1.477 1_655 S
C545 N35 1.448 . S
C571 C199 1.463 1_565 S
C565 N58 1.431 . S
C591 C213 1.467 . S
C585 N81 1.433 . S
C611 C239 1.490 . S
C605 N2 1.465 . S
C631 C241 1.560 . S
C625 C177 1.569 . S
C645 C108 1.580 . S
C651 C267 1.579 . S
C665 C131 1.579 . S
C671 C280 1.568 . S
C685 C145 1.606 . S
C691 C283 1.592 . S
C705 N25 1.425 . S
C711 C281 1.470 . S
C725 N48 1.475 . S
C731 C282 1.499 . S
C745 N71 1.451 . S
C751 C240 1.474 . S
C771 C266 1.479 . S
C765 N12 1.445 . S
C791 C269 1.583 . S
C785 C7 1.587 . S
C805 C39 1.582 . S
C811 C294 1.585 . S
C825 C62 1.573 . S
C831 C252 1.575 . S
C845 C85 1.558 . S
C851 C254 1.561 . S
C871 C253 1.472 . S
C865 N94 1.425 . S
C891 C255 1.470 . S
C885 N117 1.445 . S
C905 N150 1.447 . S
C911 C268 1.474 . S
C931 C295 1.481 . S
C925 N163 1.437 . S
