# Generated by pormake.
# Topology gar, (4,6)-cn, num edge types: 1
# Building blocks:
#     Node 0, Type 0, BuildingBlock: QUQFOY_clean_sbu_3, # of connection points: 4
#     Node 1, Type 0, BuildingBlock: QUQFOY_clean_sbu_3, # of connection points: 4
#     Node 2, Type 0, BuildingBlock: QUQFOY_clean_sbu_3, # of connection points: 4
#     Node 3, Type 0, BuildingBlock: QUQFOY_clean_sbu_3, # of connection points: 4
#     Node 4, Type 0, BuildingBlock: QUQFOY_clean_sbu_3, # of connection points: 4
#     Node 5, Type 0, BuildingBlock: QUQFOY_clean_sbu_3, # of connection points: 4
#     Node 6, Type 0, BuildingBlock: QUQFOY_clean_sbu_3, # of connection points: 4
#     Node 7, Type 0, BuildingBlock: QUQFOY_clean_sbu_3, # of connection points: 4
#     Node 8, Type 0, BuildingBlock: QUQFOY_clean_sbu_3, # of connection points: 4
#     Node 9, Type 0, BuildingBlock: QUQFOY_clean_sbu_3, # of connection points: 4
#     Node 10, Type 0, BuildingBlock: QUQFOY_clean_sbu_3, # of connection points: 4
#     Node 11, Type 0, BuildingBlock: QUQFOY_clean_sbu_3, # of connection points: 4
#     Node 12, Type 0, BuildingBlock: QUQFOY_clean_sbu_3, # of connection points: 4
#     Node 13, Type 0, BuildingBlock: QUQFOY_clean_sbu_3, # of connection points: 4
#     Node 14, Type 0, BuildingBlock: QUQFOY_clean_sbu_3, # of connection points: 4
#     Node 15, Type 0, BuildingBlock: QUQFOY_clean_sbu_3, # of connection points: 4
#     Node 16, Type 0, BuildingBlock: QUQFOY_clean_sbu_3, # of connection points: 4
#     Node 17, Type 0, BuildingBlock: QUQFOY_clean_sbu_3, # of connection points: 4
#     Node 18, Type 0, BuildingBlock: QUQFOY_clean_sbu_3, # of connection points: 4
#     Node 19, Type 0, BuildingBlock: QUQFOY_clean_sbu_3, # of connection points: 4
#     Node 20, Type 0, BuildingBlock: QUQFOY_clean_sbu_3, # of connection points: 4
#     Node 21, Type 0, BuildingBlock: QUQFOY_clean_sbu_3, # of connection points: 4
#     Node 22, Type 0, BuildingBlock: QUQFOY_clean_sbu_3, # of connection points: 4
#     Node 23, Type 0, BuildingBlock: QUQFOY_clean_sbu_3, # of connection points: 4
#     Node 24, Type 1, BuildingBlock: KUMBUR_clean_sbu_1, # of connection points: 6
#     Node 25, Type 1, BuildingBlock: KUMBUR_clean_sbu_1, # of connection points: 6
#     Node 26, Type 1, BuildingBlock: KUMBUR_clean_sbu_1, # of connection points: 6
#     Node 27, Type 1, BuildingBlock: KUMBUR_clean_sbu_1, # of connection points: 6
#     Node 28, Type 1, BuildingBlock: KUMBUR_clean_sbu_1, # of connection points: 6
#     Node 29, Type 1, BuildingBlock: KUMBUR_clean_sbu_1, # of connection points: 6
#     Node 30, Type 1, BuildingBlock: KUMBUR_clean_sbu_1, # of connection points: 6
#     Node 31, Type 1, BuildingBlock: KUMBUR_clean_sbu_1, # of connection points: 6
#     Node 32, Type 1, BuildingBlock: KUMBUR_clean_sbu_1, # of connection points: 6
#     Node 33, Type 1, BuildingBlock: KUMBUR_clean_sbu_1, # of connection points: 6
#     Node 34, Type 1, BuildingBlock: KUMBUR_clean_sbu_1, # of connection points: 6
#     Node 35, Type 1, BuildingBlock: KUMBUR_clean_sbu_1, # of connection points: 6
#     Node 36, Type 1, BuildingBlock: KUMBUR_clean_sbu_1, # of connection points: 6
#     Node 37, Type 1, BuildingBlock: KUMBUR_clean_sbu_1, # of connection points: 6
#     Node 38, Type 1, BuildingBlock: KUMBUR_clean_sbu_1, # of connection points: 6
#     Node 39, Type 1, BuildingBlock: KUMBUR_clean_sbu_1, # of connection points: 6
#     Edge 40, Type (0, 1), BuildingBlock: CIFDUS_clean_linker_0, # of connection points: 2
#     Edge 41, Type (0, 1), BuildingBlock: CIFDUS_clean_linker_0, # of connection points: 2
#     Edge 42, Type (0, 1), BuildingBlock: CIFDUS_clean_linker_0, # of connection points: 2
#     Edge 43, Type (0, 1), BuildingBlock: CIFDUS_clean_linker_0, # of connection points: 2
#     Edge 44, Type (0, 1), BuildingBlock: CIFDUS_clean_linker_0, # of connection points: 2
#     Edge 45, Type (0, 1), BuildingBlock: CIFDUS_clean_linker_0, # of connection points: 2
#     Edge 46, Type (0, 1), BuildingBlock: CIFDUS_clean_linker_0, # of connection points: 2
#     Edge 47, Type (0, 1), BuildingBlock: CIFDUS_clean_linker_0, # of connection points: 2
#     Edge 48, Type (0, 1), BuildingBlock: CIFDUS_clean_linker_0, # of connection points: 2
#     Edge 49, Type (0, 1), BuildingBlock: CIFDUS_clean_linker_0, # of connection points: 2
#     Edge 50, Type (0, 1), BuildingBlock: CIFDUS_clean_linker_0, # of connection points: 2
#     Edge 51, Type (0, 1), BuildingBlock: CIFDUS_clean_linker_0, # of connection points: 2
#     Edge 52, Type (0, 1), BuildingBlock: CIFDUS_clean_linker_0, # of connection points: 2
#     Edge 53, Type (0, 1), BuildingBlock: CIFDUS_clean_linker_0, # of connection points: 2
#     Edge 54, Type (0, 1), BuildingBlock: CIFDUS_clean_linker_0, # of connection points: 2
#     Edge 55, Type (0, 1), BuildingBlock: CIFDUS_clean_linker_0, # of connection points: 2
#     Edge 56, Type (0, 1), BuildingBlock: CIFDUS_clean_linker_0, # of connection points: 2
#     Edge 57, Type (0, 1), BuildingBlock: CIFDUS_clean_linker_0, # of connection points: 2
#     Edge 58, Type (0, 1), BuildingBlock: CIFDUS_clean_linker_0, # of connection points: 2
#     Edge 59, Type (0, 1), BuildingBlock: CIFDUS_clean_linker_0, # of connection points: 2
#     Edge 60, Type (0, 1), BuildingBlock: CIFDUS_clean_linker_0, # of connection points: 2
#     Edge 61, Type (0, 1), BuildingBlock: CIFDUS_clean_linker_0, # of connection points: 2
#     Edge 62, Type (0, 1), BuildingBlock: CIFDUS_clean_linker_0, # of connection points: 2
#     Edge 63, Type (0, 1), BuildingBlock: CIFDUS_clean_linker_0, # of connection points: 2
#     Edge 64, Type (0, 1), BuildingBlock: CIFDUS_clean_linker_0, # of connection points: 2
#     Edge 65, Type (0, 1), BuildingBlock: CIFDUS_clean_linker_0, # of connection points: 2
#     Edge 66, Type (0, 1), BuildingBlock: CIFDUS_clean_linker_0, # of connection points: 2
#     Edge 67, Type (0, 1), BuildingBlock: CIFDUS_clean_linker_0, # of connection points: 2
#     Edge 68, Type (0, 1), BuildingBlock: CIFDUS_clean_linker_0, # of connection points: 2
#     Edge 69, Type (0, 1), BuildingBlock: CIFDUS_clean_linker_0, # of connection points: 2
#     Edge 70, Type (0, 1), BuildingBlock: CIFDUS_clean_linker_0, # of connection points: 2
#     Edge 71, Type (0, 1), BuildingBlock: CIFDUS_clean_linker_0, # of connection points: 2
#     Edge 72, Type (0, 1), BuildingBlock: CIFDUS_clean_linker_0, # of connection points: 2
#     Edge 73, Type (0, 1), BuildingBlock: CIFDUS_clean_linker_0, # of connection points: 2
#     Edge 74, Type (0, 1), BuildingBlock: CIFDUS_clean_linker_0, # of connection points: 2
#     Edge 75, Type (0, 1), BuildingBlock: CIFDUS_clean_linker_0, # of connection points: 2
#     Edge 76, Type (0, 1), BuildingBlock: CIFDUS_clean_linker_0, # of connection points: 2
#     Edge 77, Type (0, 1), BuildingBlock: CIFDUS_clean_linker_0, # of connection points: 2
#     Edge 78, Type (0, 1), BuildingBlock: CIFDUS_clean_linker_0, # of connection points: 2
#     Edge 79, Type (0, 1), BuildingBlock: CIFDUS_clean_linker_0, # of connection points: 2
#     Edge 80, Type (0, 1), BuildingBlock: CIFDUS_clean_linker_0, # of connection points: 2
#     Edge 81, Type (0, 1), BuildingBlock: CIFDUS_clean_linker_0, # of connection points: 2
#     Edge 82, Type (0, 1), BuildingBlock: CIFDUS_clean_linker_0, # of connection points: 2
#     Edge 83, Type (0, 1), BuildingBlock: CIFDUS_clean_linker_0, # of connection points: 2
#     Edge 84, Type (0, 1), BuildingBlock: CIFDUS_clean_linker_0, # of connection points: 2
#     Edge 85, Type (0, 1), BuildingBlock: CIFDUS_clean_linker_0, # of connection points: 2
#     Edge 86, Type (0, 1), BuildingBlock: CIFDUS_clean_linker_0, # of connection points: 2
#     Edge 87, Type (0, 1), BuildingBlock: CIFDUS_clean_linker_0, # of connection points: 2
#     Edge 88, Type (0, 1), BuildingBlock: CIFDUS_clean_linker_0, # of connection points: 2
#     Edge 89, Type (0, 1), BuildingBlock: CIFDUS_clean_linker_0, # of connection points: 2
#     Edge 90, Type (0, 1), BuildingBlock: CIFDUS_clean_linker_0, # of connection points: 2
#     Edge 91, Type (0, 1), BuildingBlock: CIFDUS_clean_linker_0, # of connection points: 2
#     Edge 92, Type (0, 1), BuildingBlock: CIFDUS_clean_linker_0, # of connection points: 2
#     Edge 93, Type (0, 1), BuildingBlock: CIFDUS_clean_linker_0, # of connection points: 2
#     Edge 94, Type (0, 1), BuildingBlock: CIFDUS_clean_linker_0, # of connection points: 2
#     Edge 95, Type (0, 1), BuildingBlock: CIFDUS_clean_linker_0, # of connection points: 2
#     Edge 96, Type (0, 1), BuildingBlock: CIFDUS_clean_linker_0, # of connection points: 2
#     Edge 97, Type (0, 1), BuildingBlock: CIFDUS_clean_linker_0, # of connection points: 2
#     Edge 98, Type (0, 1), BuildingBlock: CIFDUS_clean_linker_0, # of connection points: 2
#     Edge 99, Type (0, 1), BuildingBlock: CIFDUS_clean_linker_0, # of connection points: 2
#     Edge 100, Type (0, 1), BuildingBlock: CIFDUS_clean_linker_0, # of connection points: 2
#     Edge 101, Type (0, 1), BuildingBlock: CIFDUS_clean_linker_0, # of connection points: 2
#     Edge 102, Type (0, 1), BuildingBlock: CIFDUS_clean_linker_0, # of connection points: 2
#     Edge 103, Type (0, 1), BuildingBlock: CIFDUS_clean_linker_0, # of connection points: 2
#     Edge 104, Type (0, 1), BuildingBlock: CIFDUS_clean_linker_0, # of connection points: 2
#     Edge 105, Type (0, 1), BuildingBlock: CIFDUS_clean_linker_0, # of connection points: 2
#     Edge 106, Type (0, 1), BuildingBlock: CIFDUS_clean_linker_0, # of connection points: 2
#     Edge 107, Type (0, 1), BuildingBlock: CIFDUS_clean_linker_0, # of connection points: 2
#     Edge 108, Type (0, 1), BuildingBlock: CIFDUS_clean_linker_0, # of connection points: 2
#     Edge 109, Type (0, 1), BuildingBlock: CIFDUS_clean_linker_0, # of connection points: 2
#     Edge 110, Type (0, 1), BuildingBlock: CIFDUS_clean_linker_0, # of connection points: 2
#     Edge 111, Type (0, 1), BuildingBlock: CIFDUS_clean_linker_0, # of connection points: 2
#     Edge 112, Type (0, 1), BuildingBlock: CIFDUS_clean_linker_0, # of connection points: 2
#     Edge 113, Type (0, 1), BuildingBlock: CIFDUS_clean_linker_0, # of connection points: 2
#     Edge 114, Type (0, 1), BuildingBlock: CIFDUS_clean_linker_0, # of connection points: 2
#     Edge 115, Type (0, 1), BuildingBlock: CIFDUS_clean_linker_0, # of connection points: 2
#     Edge 116, Type (0, 1), BuildingBlock: CIFDUS_clean_linker_0, # of connection points: 2
#     Edge 117, Type (0, 1), BuildingBlock: CIFDUS_clean_linker_0, # of connection points: 2
#     Edge 118, Type (0, 1), BuildingBlock: CIFDUS_clean_linker_0, # of connection points: 2
#     Edge 119, Type (0, 1), BuildingBlock: CIFDUS_clean_linker_0, # of connection points: 2
#     Edge 120, Type (0, 1), BuildingBlock: CIFDUS_clean_linker_0, # of connection points: 2
#     Edge 121, Type (0, 1), BuildingBlock: CIFDUS_clean_linker_0, # of connection points: 2
#     Edge 122, Type (0, 1), BuildingBlock: CIFDUS_clean_linker_0, # of connection points: 2
#     Edge 123, Type (0, 1), BuildingBlock: CIFDUS_clean_linker_0, # of connection points: 2
#     Edge 124, Type (0, 1), BuildingBlock: CIFDUS_clean_linker_0, # of connection points: 2
#     Edge 125, Type (0, 1), BuildingBlock: CIFDUS_clean_linker_0, # of connection points: 2
#     Edge 126, Type (0, 1), BuildingBlock: CIFDUS_clean_linker_0, # of connection points: 2
#     Edge 127, Type (0, 1), BuildingBlock: CIFDUS_clean_linker_0, # of connection points: 2
#     Edge 128, Type (0, 1), BuildingBlock: CIFDUS_clean_linker_0, # of connection points: 2
#     Edge 129, Type (0, 1), BuildingBlock: CIFDUS_clean_linker_0, # of connection points: 2
#     Edge 130, Type (0, 1), BuildingBlock: CIFDUS_clean_linker_0, # of connection points: 2
#     Edge 131, Type (0, 1), BuildingBlock: CIFDUS_clean_linker_0, # of connection points: 2
#     Edge 132, Type (0, 1), BuildingBlock: CIFDUS_clean_linker_0, # of connection points: 2
#     Edge 133, Type (0, 1), BuildingBlock: CIFDUS_clean_linker_0, # of connection points: 2
#     Edge 134, Type (0, 1), BuildingBlock: CIFDUS_clean_linker_0, # of connection points: 2
#     Edge 135, Type (0, 1), BuildingBlock: CIFDUS_clean_linker_0, # of connection points: 2
# Relax obj value: 0.077
# Max RMSD: 0.186
# Mean RMSD: 0.110
data_MOF--net-gar--node1-QUQFOY_clean_sbu_3--node2-KUMBUR_clean_sbu_1--edge1-CIFDUS_clean_linker_0
_symmetry_space_group_name_H-M    P1
_symmetry_Int_Tables_number       1
_symmetry_cell_setting            triclinic
loop_
_symmetry_equiv_pos_as_xyz
'x, y, z'
_cell_length_a     53.638713
_cell_length_b     54.669893
_cell_length_c     50.416745
_cell_angle_alpha  97.27169
_cell_angle_beta   96.586303
_cell_angle_gamma 101.61903
loop_
_atom_site_label
_atom_site_type_symbol
_atom_site_fract_x
_atom_site_fract_y
_atom_site_fract_z
_atom_type_partial_charge
C0 C 0.99918 0.32187 0.32565 0.0
O1 O 0.01453 0.33245 0.31113 0.0
Cd2 Cd 0.05528 0.34001 0.34016 0.0
O3 O 0.00953 0.31562 0.34735 0.0
Cd4 Cd 0.06069 0.32093 0.36597 0.0
C5 C 0.06065 0.3826 0.39118 0.0
O6 O 0.08635 0.31612 0.32447 0.0
O7 O 0.10972 0.3275 0.36296 0.0
O8 O 0.04687 0.27563 0.37156 0.0
C9 C 0.10868 0.31933 0.33803 0.0
O10 O 0.06093 0.38288 0.36607 0.0
C11 C 0.05832 0.27829 0.39558 0.0
O12 O 0.06089 0.36154 0.3995 0.0
O13 O 0.07027 0.30056 0.40588 0.0
C14 C 0.97369 0.75641 0.73252 0.0
O15 O 0.98375 0.74231 0.74662 0.0
Cd16 Cd 0.02237 0.73606 0.72479 0.0
O17 O 0.98639 0.76505 0.71442 0.0
Cd18 Cd 0.03268 0.7624 0.70125 0.0
C19 C 0.0233 0.70153 0.66883 0.0
O20 O 0.06672 0.76028 0.74303 0.0
O21 O 0.08011 0.76636 0.70525 0.0
O22 O 0.03815 0.80806 0.69732 0.0
C23 C 0.0859 0.76468 0.72994 0.0
O24 O 0.01989 0.69676 0.69235 0.0
C25 C 0.03388 0.80411 0.67163 0.0
O26 O 0.02714 0.72454 0.66527 0.0
O27 O 0.03014 0.78133 0.66032 0.0
C28 C 0.49682 0.81755 0.83083 0.0
O29 O 0.50871 0.82577 0.81236 0.0
Cd30 Cd 0.55182 0.83937 0.83798 0.0
O31 O 0.51062 0.81499 0.85247 0.0
Cd32 Cd 0.56173 0.8213 0.86726 0.0
C33 C 0.55843 0.88188 0.89079 0.0
O34 O 0.58637 0.81914 0.82444 0.0
O35 O 0.6094 0.82578 0.86341 0.0
O36 O 0.55061 0.77602 0.87344 0.0
C37 C 0.60844 0.82055 0.83799 0.0
O38 O 0.55365 0.88068 0.86535 0.0
C39 C 0.56026 0.77983 0.89824 0.0
O40 O 0.56378 0.86245 0.89969 0.0
O41 O 0.57033 0.80264 0.90844 0.0
C42 C 0.47401 0.25193 0.23222 0.0
O43 O 0.48331 0.23362 0.23878 0.0
Cd44 Cd 0.52387 0.23672 0.21882 0.0
O45 O 0.48755 0.26673 0.21893 0.0
Cd46 Cd 0.53246 0.2631 0.20092 0.0
C47 C 0.52446 0.20273 0.16552 0.0
O48 O 0.56772 0.25855 0.24052 0.0
O49 O 0.58022 0.26883 0.20365 0.0
O50 O 0.53988 0.30928 0.20343 0.0
C51 C 0.58662 0.26523 0.22759 0.0
O52 O 0.52448 0.19798 0.18948 0.0
C53 C 0.53584 0.30929 0.1781 0.0
O54 O 0.52521 0.22557 0.16194 0.0
O55 O 0.53016 0.28782 0.16323 0.0
C56 C 0.03925 0.79986 0.15602 0.0
O57 O 0.05446 0.79203 0.1725 0.0
Cd58 Cd 0.09457 0.78204 0.16649 0.0
O59 O 0.04542 0.80519 0.13326 0.0
Cd60 Cd 0.08344 0.80956 0.1064 0.0
C61 C 0.0771 0.74088 0.10331 0.0
O62 O 0.11386 0.81665 0.1483 0.0
O63 O 0.13298 0.81441 0.11353 0.0
O64 O 0.08339 0.85729 0.10618 0.0
C65 C 0.13476 0.81616 0.13915 0.0
O66 O 0.0839 0.74784 0.12864 0.0
C67 C 0.07347 0.85666 0.0819 0.0
O68 O 0.07416 0.75799 0.08817 0.0
O69 O 0.06873 0.83462 0.06784 0.0
C70 C 0.46239 0.78124 0.4036 0.0
O71 O 0.48113 0.79701 0.39803 0.0
Cd72 Cd 0.52494 0.80848 0.41445 0.0
O73 O 0.46592 0.76862 0.42332 0.0
Cd74 Cd 0.50923 0.76989 0.45835 0.0
C75 C 0.52006 0.83961 0.47658 0.0
O76 O 0.53209 0.76825 0.42021 0.0
O77 O 0.55818 0.7807 0.45683 0.0
O78 O 0.50966 0.72203 0.45755 0.0
C79 C 0.55502 0.77297 0.43156 0.0
O80 O 0.52774 0.83996 0.45367 0.0
C81 C 0.50998 0.72033 0.48247 0.0
O82 O 0.51127 0.81795 0.48399 0.0
O83 O 0.508 0.74073 0.49675 0.0
C84 C 0.5385 0.29664 0.65418 0.0
O85 O 0.55226 0.28528 0.66837 0.0
Cd86 Cd 0.59168 0.27427 0.65975 0.0
O87 O 0.54562 0.30501 0.63305 0.0
Cd88 Cd 0.58306 0.3108 0.60635 0.0
C89 C 0.57046 0.24101 0.59399 0.0
O90 O 0.61186 0.31306 0.64878 0.0
O91 O 0.63282 0.31791 0.61582 0.0
O92 O 0.56454 0.35083 0.60673 0.0
C93 C 0.63352 0.31569 0.64067 0.0
O94 O 0.57879 0.24239 0.61897 0.0
C95 C 0.57246 0.35914 0.58607 0.0
O96 O 0.56876 0.26138 0.58374 0.0
O97 O 0.58531 0.34528 0.57358 0.0
C98 C 0.95725 0.27892 0.90912 0.0
O99 O 0.97302 0.29225 0.8969 0.0
Cd100 Cd 0.01799 0.30742 0.90891 0.0
O101 O 0.96518 0.27031 0.93062 0.0
Cd102 Cd 0.01078 0.27094 0.95967 0.0
C103 C 0.01865 0.34053 0.97309 0.0
O104 O 0.03022 0.27035 0.91933 0.0
O105 O 0.05863 0.28024 0.95453 0.0
O106 O 0.01055 0.22307 0.9583 0.0
C107 C 0.05372 0.27481 0.92894 0.0
O108 O 0.02133 0.34002 0.94826 0.0
C109 C 0.01154 0.22141 0.98328 0.0
O110 O 0.01404 0.31951 0.983 0.0
O111 O 0.0106 0.24199 0.99797 0.0
C112 C 0.42581 0.01065 0.36778 0.0
O113 O 0.42872 0.99334 0.34991 0.0
Cd114 Cd 0.4292 0.99849 0.30415 0.0
O115 O 0.41316 0.02688 0.36179 0.0
Cd116 Cd 0.38808 0.02969 0.32048 0.0
C117 C 0.36827 0.96928 0.29353 0.0
O118 O 0.42674 0.04057 0.30189 0.0
O119 O 0.39301 0.03587 0.27304 0.0
O120 O 0.38324 0.07059 0.34037 0.0
C121 C 0.41739 0.04114 0.27796 0.0
O122 O 0.38972 0.97102 0.28478 0.0
C123 C 0.3592 0.06557 0.33243 0.0
O124 O 0.36372 0.98682 0.31004 0.0
O125 O 0.34881 0.04309 0.32141 0.0
C126 C 0.30456 0.14828 0.52363 0.0
O127 O 0.28825 0.1363 0.5364 0.0
Cd128 Cd 0.24976 0.14579 0.54888 0.0
O129 O 0.30168 0.16874 0.51511 0.0
Cd130 Cd 0.26709 0.19407 0.51257 0.0
C131 C 0.27115 0.20819 0.58222 0.0
O132 O 0.23496 0.15586 0.5073 0.0
O133 O 0.21873 0.18846 0.50661 0.0
O134 O 0.2774 0.19685 0.46635 0.0
C135 C 0.21504 0.16472 0.50583 0.0
O136 O 0.26163 0.1847 0.58121 0.0
C137 C 0.27727 0.2201 0.46696 0.0
O138 O 0.27651 0.21714 0.56074 0.0
O139 O 0.27295 0.23156 0.48897 0.0
C140 C 0.11001 0.06305 0.8487 0.0
O141 O 0.09487 0.07349 0.83516 0.0
Cd142 Cd 0.10354 0.08533 0.79206 0.0
O143 O 0.12913 0.05734 0.83848 0.0
Cd144 Cd 0.14499 0.0597 0.79302 0.0
C145 C 0.16323 0.12341 0.802 0.0
O146 O 0.10533 0.04999 0.75831 0.0
O147 O 0.14106 0.06516 0.74466 0.0
O148 O 0.14976 0.01606 0.79141 0.0
C149 C 0.11723 0.05533 0.73863 0.0
O150 O 0.13918 0.12246 0.79808 0.0
C151 C 0.17414 0.02129 0.79424 0.0
O152 O 0.17143 0.10315 0.80238 0.0
O153 O 0.18507 0.04442 0.79593 0.0
C154 C 0.36254 0.97708 0.99815 0.0
O155 O 0.35513 0.99259 0.98399 0.0
Cd156 Cd 0.3133 0.98603 0.96046 0.0
O157 O 0.34727 0.95798 0.00324 0.0
Cd158 Cd 0.30305 0.93818 0.99652 0.0
C159 C 0.31406 0.9261 0.93411 0.0
O160 O 0.28829 0.97514 0.99441 0.0
O161 O 0.25988 0.94066 0.97885 0.0
O162 O 0.3082 0.93574 0.0441 0.0
C163 C 0.26514 0.96452 0.9855 0.0
O164 O 0.31264 0.94822 0.92976 0.0
C165 C 0.29854 0.91219 0.04126 0.0
O166 O 0.31196 0.91873 0.9567 0.0
O167 O 0.29027 0.90074 0.01732 0.0
C168 C 0.35758 0.44158 0.03849 0.0
O169 O 0.33932 0.44852 0.02532 0.0
Cd170 Cd 0.29485 0.43457 0.01719 0.0
O171 O 0.35296 0.4222 0.05071 0.0
Cd172 Cd 0.30982 0.39102 0.05437 0.0
C173 C 0.29491 0.37475 0.98408 0.0
O174 O 0.28935 0.42649 0.06053 0.0
O175 O 0.26281 0.39111 0.05585 0.0
O176 O 0.32924 0.38759 0.10101 0.0
C177 C 0.26651 0.41496 0.0602 0.0
O178 O 0.28951 0.39645 0.98542 0.0
C179 C 0.31513 0.36632 0.10263 0.0
O180 O 0.30445 0.36737 0.00546 0.0
O181 O 0.30011 0.35535 0.08124 0.0
C182 C 0.80416 0.09018 0.0819 0.0
O183 O 0.786 0.07713 0.09149 0.0
Cd184 Cd 0.74951 0.09433 0.09926 0.0
O185 O 0.802 0.1106 0.07337 0.0
Cd186 Cd 0.77307 0.13772 0.06591 0.0
C187 C 0.77964 0.15315 0.13214 0.0
O188 O 0.73434 0.10694 0.05746 0.0
O189 O 0.73095 0.14593 0.06763 0.0
O190 O 0.77732 0.13487 0.01881 0.0
C191 C 0.72031 0.12308 0.05843 0.0
O192 O 0.76611 0.13145 0.13331 0.0
C193 C 0.7833 0.15855 0.01899 0.0
O194 O 0.78564 0.15977 0.11007 0.0
O195 O 0.78665 0.17267 0.04176 0.0
C196 C 0.15266 0.55952 0.27826 0.0
O197 O 0.13967 0.56428 0.25762 0.0
Cd198 Cd 0.15215 0.57227 0.2165 0.0
O199 O 0.17602 0.55755 0.27823 0.0
Cd200 Cd 0.20532 0.55723 0.2426 0.0
C201 C 0.207 0.61668 0.24606 0.0
O202 O 0.17328 0.53963 0.21022 0.0
O203 O 0.20604 0.5572 0.19336 0.0
O204 O 0.20504 0.51804 0.25197 0.0
C205 C 0.18349 0.54347 0.18954 0.0
O206 O 0.18459 0.60996 0.23247 0.0
C207 C 0.22746 0.51749 0.24676 0.0
O208 O 0.21962 0.60081 0.25349 0.0
O209 O 0.24214 0.53807 0.24366 0.0
C210 C 0.8649 0.93506 0.54559 0.0
O211 O 0.84894 0.94327 0.53042 0.0
Cd212 Cd 0.80427 0.92829 0.51689 0.0
O213 O 0.85727 0.91583 0.55701 0.0
Cd214 Cd 0.81276 0.88749 0.55465 0.0
C215 C 0.80849 0.86962 0.48628 0.0
O216 O 0.78689 0.91966 0.55645 0.0
O217 O 0.76608 0.88188 0.54065 0.0
O218 O 0.81599 0.8857 0.60354 0.0
C219 C 0.76532 0.90461 0.54873 0.0
O220 O 0.80146 0.89036 0.48465 0.0
C221 C 0.80985 0.86178 0.60121 0.0
O222 O 0.81601 0.86397 0.50928 0.0
O223 O 0.80696 0.84969 0.5774 0.0
C224 C 0.97865 0.02086 0.32469 0.0
O225 O 0.98339 1.00115 0.31201 0.0
Cd226 Cd 0.96948 0.98948 0.26359 0.0
O227 O 0.96502 0.0336 0.3122 0.0
Cd228 Cd 0.93988 0.0243 0.26467 0.0
C229 C 0.90913 0.96252 0.26362 0.0
O230 O 0.97618 0.02366 0.23631 0.0
O231 O 0.93774 0.0186 0.21532 0.0
O232 O 0.93802 0.06899 0.2759 0.0
C233 C 0.96165 0.02279 0.21423 0.0
O234 O 0.92957 0.95762 0.25596 0.0
C235 C 0.91462 0.06578 0.26563 0.0
O236 O 0.90809 0.98546 0.27061 0.0
O237 O 0.90312 0.04343 0.25526 0.0
C238 C 0.31439 0.60141 0.59055 0.0
O239 O 0.29522 0.58729 0.59761 0.0
Cd240 Cd 0.25244 0.59554 0.59356 0.0
O241 O 0.31172 0.61975 0.57825 0.0
Cd242 Cd 0.27947 0.64031 0.56169 0.0
C243 C 0.26905 0.65596 0.6242 0.0
O244 O 0.243 0.60653 0.54986 0.0
O245 O 0.23594 0.64452 0.55394 0.0
O246 O 0.29157 0.6408 0.51763 0.0
C247 C 0.22721 0.62091 0.54786 0.0
O248 O 0.25512 0.63412 0.62389 0.0
C249 C 0.29383 0.6645 0.51858 0.0
O250 O 0.28167 0.66165 0.60522 0.0
O251 O 0.29243 0.67724 0.5411 0.0
C252 C 0.48373 0.51707 0.82397 0.0
O253 O 0.4932 0.50295 0.80785 0.0
Cd254 Cd 0.47328 0.48952 0.76155 0.0
O255 O 0.46481 0.52609 0.81482 0.0
Cd256 Cd 0.44106 0.5238 0.7664 0.0
C257 C 0.41086 0.46275 0.76388 0.0
O258 O 0.47584 0.5246 0.73628 0.0
O259 O 0.43682 0.51648 0.71623 0.0
O260 O 0.44337 0.56925 0.77561 0.0
C261 C 0.4606 0.5221 0.71438 0.0
O262 O 0.43256 0.45868 0.75907 0.0
C263 C 0.41934 0.56765 0.77003 0.0
O264 O 0.40811 0.48539 0.76866 0.0
O265 O 0.40529 0.54558 0.76349 0.0
C266 C 0.64514 0.05439 0.7771 0.0
O267 O 0.63167 0.05908 0.75677 0.0
Cd268 Cd 0.64755 0.07465 0.71982 0.0
O269 O 0.6688 0.05388 0.77689 0.0
Cd270 Cd 0.6978 0.05322 0.74159 0.0
C271 C 0.70318 0.1132 0.75783 0.0
O272 O 0.66796 0.04292 0.70589 0.0
O273 O 0.70386 0.0615 0.69489 0.0
O274 O 0.68804 0.01117 0.74479 0.0
C275 C 0.68071 0.04954 0.68761 0.0
O276 O 0.68083 0.10967 0.74434 0.0
C277 C 0.71098 0.00837 0.74655 0.0
O278 O 0.7149 0.09543 0.76029 0.0
O279 O 0.72904 0.02769 0.74682 0.0
C280 C 0.80641 0.65057 0.02418 0.0
O281 O 0.79023 0.63527 0.03408 0.0
Cd282 Cd 0.75146 0.64378 0.04736 0.0
O283 O 0.80153 0.67115 0.01776 0.0
Cd284 Cd 0.76554 0.69387 0.01255 0.0
C285 C 0.77595 0.70565 0.08233 0.0
O286 O 0.73383 0.65499 0.00716 0.0
O287 O 0.71728 0.6875 0.00676 0.0
O288 O 0.78359 0.69436 0.96983 0.0
C289 C 0.71376 0.66378 0.00616 0.0
O290 O 0.76765 0.6819 0.08086 0.0
C291 C 0.77865 0.71514 0.9647 0.0
O292 O 0.77729 0.71608 0.06098 0.0
O293 O 0.76782 0.72671 0.982 0.0
C294 C 0.92347 0.50848 0.86465 0.0
O295 O 0.9365 0.49886 0.84831 0.0
Cd296 Cd 0.93266 0.49793 0.80142 0.0
O297 O 0.90577 0.51925 0.85681 0.0
Cd298 Cd 0.8867 0.52913 0.81548 0.0
C299 C 0.86836 0.46827 0.79209 0.0
O300 O 0.92632 0.53877 0.79943 0.0
O301 O 0.89413 0.53721 0.76942 0.0
O302 O 0.888 0.57033 0.83962 0.0
C303 C 0.91836 0.54085 0.77553 0.0
O304 O 0.89184 0.46935 0.78947 0.0
C305 C 0.86431 0.56904 0.83217 0.0
O306 O 0.86067 0.48742 0.80219 0.0
O307 O 0.8512 0.54838 0.81848 0.0
C308 C 0.86424 0.47509 0.48968 0.0
O309 O 0.85646 0.48945 0.47426 0.0
Cd310 Cd 0.81234 0.48272 0.45706 0.0
O311 O 0.84902 0.45924 0.49966 0.0
Cd312 Cd 0.80495 0.44411 0.50077 0.0
C313 C 0.80787 0.41927 0.43948 0.0
O314 O 0.7894 0.48122 0.49443 0.0
O315 O 0.76215 0.44512 0.48327 0.0
O316 O 0.8137 0.44872 0.5495 0.0
C317 C 0.76633 0.46909 0.48738 0.0
O318 O 0.80643 0.44061 0.43258 0.0
C319 C 0.80362 0.42579 0.55045 0.0
O320 O 0.80921 0.41563 0.46386 0.0
O321 O 0.79337 0.41179 0.52822 0.0
C322 C 0.60136 0.56373 0.34613 0.0
O323 O 0.59007 0.57608 0.33076 0.0
Cd324 Cd 0.60296 0.5874 0.28887 0.0
O325 O 0.62094 0.55595 0.33911 0.0
Cd326 Cd 0.64351 0.55958 0.29654 0.0
C327 C 0.66256 0.62423 0.30346 0.0
O328 O 0.60651 0.5513 0.25752 0.0
O329 O 0.64522 0.5591 0.24803 0.0
O330 O 0.65137 0.51705 0.29864 0.0
C331 C 0.62136 0.55299 0.23955 0.0
O332 O 0.6389 0.62381 0.29673 0.0
C333 C 0.67564 0.52364 0.29998 0.0
O334 O 0.66984 0.60378 0.30615 0.0
O335 O 0.68497 0.54702 0.30078 0.0
Tb336 Tb 0.07855 0.05844 0.05285 0.0
C337 C 0.9888 0.96863 0.98971 0.0
N338 N 1.00173 0.99118 0.98428 0.0
C339 C 0.99847 0.97307 0.93764 0.0
C340 C 0.98012 0.94751 0.96918 0.0
C341 C 1.00623 0.99365 0.95846 0.0
C342 C 0.98537 0.9499 0.94299 0.0
C343 C 0.9683 0.94456 0.0217 0.0
C344 C 0.98293 0.96715 0.01568 0.0
C345 C 0.95986 0.92348 0.00136 0.0
C346 C 0.96574 0.92494 0.97518 0.0
Tb347 Tb 0.00855 0.02413 0.01926 0.0
N348 N 0.99075 0.98815 0.03476 0.0
C349 C 0.9618 0.94412 0.04775 0.0
C350 C 0.98314 0.98811 0.05963 0.0
C351 C 0.96913 0.96607 0.06675 0.0
H352 H 0.01442 0.01164 0.95322 0.0
H353 H 0.96325 0.96627 0.08659 0.0
H354 H 0.0712 0.06916 0.11873 0.0
H355 H 0.12192 0.11945 0.98694 0.0
H356 H 0.98648 1.00525 0.07353 0.0
H357 H 0.95043 0.92721 0.05311 0.0
H358 H 0.09891 0.07968 0.99833 0.0
H359 H 1.00192 0.97532 0.91726 0.0
H360 H 0.94837 0.90607 0.00555 0.0
H361 H 0.95869 0.90864 0.95959 0.0
H362 H 0.08314 0.10469 0.15552 0.0
H363 H 0.97885 0.93417 0.92665 0.0
H364 H 0.13478 0.15747 0.0218 0.0
N365 N 0.08368 0.09066 0.08831 0.0
C366 C 0.09641 0.11356 0.08352 0.0
C367 C 0.08658 0.10756 0.13528 0.0
C368 C 0.10498 0.1342 0.10465 0.0
C369 C 0.079 0.08746 0.11394 0.0
C370 C 0.09967 0.13101 0.13066 0.0
N371 N 0.09502 0.09522 0.038 0.0
C372 C 0.10242 0.09628 0.01309 0.0
C373 C 0.11696 0.13882 0.05246 0.0
C374 C 0.1024 0.11584 0.05767 0.0
C375 C 0.1235 0.14021 0.02654 0.0
C376 C 0.1162 0.11883 0.00679 0.0
H377 H 0.10615 0.14634 0.14744 0.0
H378 H 0.12648 0.17296 0.11554 0.0
H379 H 0.13691 0.17702 0.06988 0.0
O380 O 0.11346 0.05133 0.04188 0.0
O381 O 0.05236 0.08479 0.04446 0.0
O382 O 0.0207 0.0633 0.00952 0.0
O383 O 0.11039 0.06573 0.08286 0.0
O384 O 0.07469 0.0406 0.01004 0.0
O385 O 0.03336 0.04105 0.99234 0.0
O386 O 0.97564 0.03457 0.03189 0.0
O387 O 0.03255 0.99616 0.02956 0.0
O388 O 0.06909 0.01809 0.05884 0.0
O389 O 0.97546 0.01781 0.99082 0.0
O390 O 0.01472 0.04388 0.0613 0.0
O391 O 0.05431 0.03942 0.0792 0.0
C392 C 0.03421 0.08478 0.02424 0.0
C393 C 0.13984 0.04012 0.0771 0.0
C394 C 0.17551 0.02009 0.07291 0.0
C395 C 0.17304 0.01132 0.0976 0.0
C396 C 0.13699 0.0312 0.10186 0.0
C397 C 0.15355 0.01672 0.11195 0.0
C398 C 0.15895 0.03427 0.0627 0.0
C399 C 0.05737 0.04112 0.98947 0.0
C400 C 0.12488 0.05731 0.06681 0.0
C401 C 0.11943 0.15706 0.09945 0.0
C402 C 0.12538 0.15937 0.07345 0.0
C403 C 0.05351 0.99651 0.04659 0.0
C404 C 0.94867 0.0465 0.9975 0.0
C405 C 0.91827 0.07282 0.00556 0.0
C406 C 0.91476 0.07525 0.97813 0.0
C407 C 0.94538 0.04913 0.96995 0.0
C408 C 0.93544 0.05888 0.0152 0.0
C409 C 0.92862 0.06367 0.96042 0.0
C410 C 0.03054 0.04051 0.08175 0.0
C411 C 0.96278 0.02838 0.00756 0.0
H412 H 0.18597 1.00025 0.10553 0.0
H413 H 0.12227 0.03558 0.1135 0.0
H414 H 0.15143 0.00992 0.13099 0.0
H415 H 0.16139 0.04129 0.04373 0.0
H416 H 0.9007 0.08525 0.97036 0.0
H417 H 0.95503 0.03937 0.95564 0.0
H418 H 0.93701 0.05615 0.03624 0.0
H419 H 0.92565 0.06515 0.93914 0.0
Tb420 Tb 0.26676 0.79699 0.31996 0.0
C421 C 0.3263 0.7445 0.22003 0.0
N422 N 0.33597 0.76489 0.23928 0.0
C423 C 0.37617 0.75192 0.24557 0.0
C424 C 0.34105 0.72663 0.21302 0.0
C425 C 0.36075 0.76907 0.25171 0.0
C426 C 0.3662 0.73045 0.22629 0.0
C427 C 0.29112 0.72137 0.18609 0.0
C428 C 0.30174 0.74192 0.20695 0.0
C429 C 0.3054 0.70314 0.17942 0.0
C430 C 0.33033 0.70576 0.19289 0.0
Tb431 Tb 0.30871 0.79036 0.25087 0.0
N432 N 0.28861 0.75997 0.21415 0.0
C433 C 0.26669 0.71998 0.17224 0.0
C434 C 0.26517 0.75912 0.19957 0.0
C435 C 0.25384 0.73914 0.17878 0.0
H436 H 0.36881 0.78583 0.26616 0.0
H437 H 0.23519 0.73866 0.16766 0.0
H438 H 0.20822 0.80543 0.30045 0.0
H439 H 0.34368 0.85131 0.39782 0.0
H440 H 0.25481 0.77368 0.20307 0.0
H441 H 0.25788 0.70457 0.15608 0.0
H442 H 0.32401 0.81705 0.36142 0.0
H443 H 0.39575 0.75531 0.25567 0.0
H444 H 0.29747 0.68717 0.16362 0.0
H445 H 0.34127 0.69175 0.18733 0.0
H446 H 0.18196 0.83623 0.31191 0.0
H447 H 0.37816 0.71718 0.22153 0.0
H448 H 0.31955 0.88314 0.41313 0.0
N449 N 0.24057 0.82429 0.32924 0.0
C450 C 0.24999 0.84353 0.35006 0.0
C451 C 0.20117 0.83866 0.32265 0.0
C452 C 0.23549 0.86145 0.35763 0.0
C453 C 0.21631 0.82144 0.31583 0.0
C454 C 0.21084 0.85884 0.34355 0.0
N455 N 0.2883 0.82857 0.35462 0.0
C456 C 0.31278 0.83037 0.3672 0.0
C457 C 0.28538 0.86585 0.38449 0.0
C458 C 0.27454 0.84562 0.36342 0.0
C459 C 0.31053 0.86786 0.39692 0.0
C460 C 0.32422 0.84999 0.38826 0.0
H461 H 0.19908 0.87219 0.34877 0.0
H462 H 0.23524 0.89539 0.38487 0.0
H463 H 0.279 0.8993 0.40832 0.0
O464 O 0.26931 0.77382 0.34976 0.0
O465 O 0.2859 0.83405 0.31373 0.0
O466 O 0.29683 0.80807 0.28458 0.0
O467 O 0.23197 0.77849 0.33152 0.0
O468 O 0.30456 0.78524 0.32611 0.0
O469 O 0.33146 0.79246 0.2919 0.0
O470 O 0.30726 0.81825 0.22625 0.0
O471 O 0.29647 0.75502 0.26537 0.0
O472 O 0.26547 0.76991 0.28398 0.0
O473 O 0.34332 0.81534 0.24775 0.0
O474 O 0.26981 0.79951 0.24302 0.0
O475 O 0.24431 0.79498 0.27867 0.0
C476 C 0.2988 0.83135 0.29425 0.0
C477 C 0.2321 0.75207 0.36695 0.0
C478 C 0.23568 0.73077 0.40607 0.0
C479 C 0.20884 0.7228 0.40288 0.0
C480 C 0.20519 0.74419 0.36387 0.0
C481 C 0.19365 0.72956 0.38181 0.0
C482 C 0.24724 0.74526 0.38812 0.0
C483 C 0.32698 0.78656 0.31636 0.0
C484 C 0.24451 0.76863 0.34937 0.0
C485 C 0.24608 0.88144 0.37881 0.0
C486 C 0.27097 0.88364 0.39219 0.0
C487 C 0.27959 0.75312 0.28217 0.0
C488 C 0.34369 0.83089 0.20581 0.0
C489 C 0.34418 0.85106 0.16565 0.0
C490 C 0.364 0.83956 0.15825 0.0
C491 C 0.36357 0.8194 0.19835 0.0
C492 C 0.33423 0.84688 0.18947 0.0
C493 C 0.37373 0.82387 0.17465 0.0
C494 C 0.24777 0.79897 0.25335 0.0
C495 C 0.33206 0.82655 0.23018 0.0
H496 H 0.19973 0.71155 0.41677 0.0
H497 H 0.19312 0.74949 0.34782 0.0
H498 H 0.17292 0.72358 0.37948 0.0
H499 H 0.26803 0.75142 0.39091 0.0
H500 H 0.37186 0.84269 0.1398 0.0
H501 H 0.37115 0.80696 0.21065 0.0
H502 H 0.31884 0.85578 0.19507 0.0
H503 H 0.38904 0.81503 0.16889 0.0
Tb504 Tb 0.50732 0.03601 0.5532 0.0
C505 C 0.60546 0.08922 0.488 0.0
N506 N 0.58981 0.06592 0.48149 0.0
C507 C 0.58571 0.07103 0.4346 0.0
C508 C 0.61047 0.10512 0.46842 0.0
C509 C 0.58192 0.05583 0.45479 0.0
C510 C 0.59944 0.09607 0.44157 0.0
C511 C 0.63718 0.11875 0.52113 0.0
C512 C 0.61861 0.09592 0.51382 0.0
C513 C 0.6408 0.13566 0.50242 0.0
C514 C 0.62737 0.12889 0.47607 0.0
Tb515 Tb 0.58063 0.04547 0.51777 0.0
N516 N 0.61459 0.07902 0.53113 0.0
C517 C 0.6521 0.12339 0.54665 0.0
C518 C 0.62982 0.08286 0.55554 0.0
C519 C 0.64877 0.10509 0.5637 0.0
H520 H 0.57146 0.0364 0.4492 0.0
H521 H 0.66077 0.10813 0.58309 0.0
H522 H 0.5191 0.04185 0.62158 0.0
H523 H 0.44141 0.96645 0.47813 0.0
H524 H 0.62746 0.06869 0.56861 0.0
H525 H 0.66672 0.14062 0.55302 0.0
H526 H 0.47431 1.0059 0.49416 0.0
H527 H 0.57812 0.06341 0.41371 0.0
H528 H 0.65461 0.15356 0.50779 0.0
H529 H 0.63109 0.14162 0.46147 0.0
H530 H 0.50699 0.01537 0.65586 0.0
H531 H 0.60259 0.10775 0.42591 0.0
H532 H 0.42681 0.93822 0.51058 0.0
N533 N 0.4988 0.01419 0.58815 0.0
C534 C 0.48087 0.99209 0.58056 0.0
C535 C 0.49986 0.00841 0.63472 0.0
C536 C 0.47287 0.97669 0.59983 0.0
C537 C 0.50708 0.02317 0.61503 0.0
C538 C 0.48302 0.9849 0.62707 0.0
N539 N 0.47753 1.00032 0.53516 0.0
C540 C 0.46758 0.99399 0.50844 0.0
C541 C 0.4513 0.96227 0.54514 0.0
C542 C 0.46974 0.9851 0.55346 0.0
C543 C 0.44099 0.95564 0.51775 0.0
C544 C 0.44917 0.97155 0.49935 0.0
H545 H 0.47733 0.97361 0.64244 0.0
H546 H 0.44838 0.94181 0.60603 0.0
H547 H 0.42979 0.92905 0.5582 0.0
O548 O 0.4711 0.04468 0.54057 0.0
O549 O 0.5165 0.99892 0.53741 0.0
O550 O 0.55459 0.00844 0.51866 0.0
O551 O 0.49417 0.06033 0.5803 0.0
O552 O 0.52856 0.04363 0.52168 0.0
O553 O 0.54952 0.04872 0.48877 0.0
O554 O 0.61312 0.03136 0.5311 0.0
O555 O 0.57226 0.0794 0.54184 0.0
O556 O 0.52865 0.0757 0.54968 0.0
O557 O 0.59017 0.01668 0.4922 0.0
O558 O 0.57654 0.04486 0.56002 0.0
O559 O 0.54024 0.04145 0.58286 0.0
C560 C 0.53483 0.99194 0.52441 0.0
C561 C 0.45396 0.07249 0.57292 0.0
C562 C 0.4247 0.10039 0.56594 0.0
C563 C 0.42199 0.10256 0.59346 0.0
C564 C 0.45087 0.07466 0.60038 0.0
C565 C 0.43487 0.08956 0.61053 0.0
C566 C 0.44039 0.08499 0.55552 0.0
C567 C 0.52767 0.04788 0.49697 0.0
C568 C 0.47351 0.05958 0.56358 0.0
C569 C 0.45459 0.9539 0.59149 0.0
C570 C 0.44389 0.94669 0.56426 0.0
C571 C 0.55248 0.08922 0.54875 0.0
C572 C 0.63228 0.00863 0.49822 0.0
C573 C 0.66703 0.98608 0.50276 0.0
C574 C 0.66947 0.9868 0.47542 0.0
C575 C 0.63523 0.00951 0.47099 0.0
C576 C 0.64862 0.99732 0.51417 0.0
C577 C 0.65385 0.99871 0.45975 0.0
C578 C 0.56479 0.04413 0.58158 0.0
C579 C 0.60977 0.01511 0.50917 0.0
H580 H 0.40965 0.11414 0.60165 0.0
H581 H 0.46121 0.06516 0.61411 0.0
H582 H 0.43265 0.09126 0.63171 0.0
H583 H 0.44273 0.08349 0.53434 0.0
H584 H 0.68351 0.97814 0.46623 0.0
H585 H 0.62265 0.01778 0.45818 0.0
H586 H 0.64609 0.99604 0.53503 0.0
H587 H 0.65581 0.99907 0.43866 0.0
Tb588 Tb 0.32684 0.27602 0.7897 0.0
C589 C 0.23526 0.31649 0.72999 0.0
N590 N 0.25196 0.32809 0.75248 0.0
C591 C 0.25423 0.36811 0.73688 0.0
C592 C 0.2277 0.33022 0.70978 0.0
C593 C 0.26112 0.35367 0.75637 0.0
C594 C 0.23757 0.35632 0.71338 0.0
C595 C 0.20798 0.27792 0.70451 0.0
C596 C 0.22553 0.29073 0.7274 0.0
C597 C 0.20058 0.29144 0.68416 0.0
C598 C 0.21041 0.31754 0.6868 0.0
Tb599 Tb 0.26184 0.3026 0.78304 0.0
N600 N 0.23351 0.27822 0.74732 0.0
C601 C 0.19819 0.25198 0.7029 0.0
C602 C 0.22283 0.25322 0.74646 0.0
C603 C 0.20543 0.23965 0.72414 0.0
H604 H 0.27286 0.36311 0.77505 0.0
H605 H 0.19741 0.21973 0.7235 0.0
H606 H 0.31532 0.21588 0.79887 0.0
H607 H 0.38644 0.3608 0.85111 0.0
H608 H 0.22716 0.24363 0.76297 0.0
H609 H 0.18465 0.24144 0.68567 0.0
H610 H 0.35578 0.33682 0.81253 0.0
H611 H 0.26151 0.38837 0.74016 0.0
H612 H 0.18713 0.28193 0.66641 0.0
H613 H 0.20439 0.32776 0.67104 0.0
H614 H 0.32879 0.1909 0.83305 0.0
H615 H 0.23217 0.36756 0.69836 0.0
H616 H 0.40372 0.33863 0.88637 0.0
N617 N 0.33779 0.25088 0.81993 0.0
C618 C 0.35541 0.26269 0.8416 0.0
C619 C 0.3363 0.21111 0.83582 0.0
C620 C 0.36407 0.2491 0.86145 0.0
C621 C 0.32831 0.22539 0.81669 0.0
C622 C 0.35424 0.22302 0.85833 0.0
N623 N 0.35446 0.30119 0.82535 0.0
C624 C 0.3626 0.32676 0.82752 0.0
C625 C 0.38213 0.30166 0.86685 0.0
C626 C 0.36429 0.28863 0.84425 0.0
C627 C 0.39009 0.32792 0.8693 0.0
C628 C 0.3803 0.34049 0.84951 0.0
H629 H 0.36042 0.21191 0.87313 0.0
H630 H 0.38897 0.25184 0.89923 0.0
H631 H 0.40478 0.29788 0.90396 0.0
O632 O 0.35851 0.28808 0.76883 0.0
O633 O 0.31217 0.28651 0.82779 0.0
O634 O 0.29197 0.31796 0.8176 0.0
O635 O 0.34621 0.24893 0.77479 0.0
O636 O 0.32432 0.30852 0.76878 0.0
O637 O 0.29796 0.33185 0.78822 0.0
O638 O 0.23117 0.29107 0.80575 0.0
O639 O 0.27525 0.28972 0.74464 0.0
O640 O 0.29706 0.25917 0.75525 0.0
O641 O 0.2412 0.32918 0.7963 0.0
O642 O 0.26137 0.26737 0.8008 0.0
O643 O 0.2912 0.24712 0.78295 0.0
C644 C 0.30079 0.30494 0.83528 0.0
C645 C 0.38146 0.25693 0.74903 0.0
C646 C 0.41747 0.26586 0.72358 0.0
C647 C 0.41505 0.2398 0.71598 0.0
C648 C 0.3797 0.23091 0.74136 0.0
C649 C 0.3964 0.22247 0.72497 0.0
C650 C 0.40071 0.2745 0.74031 0.0
C651 C 0.31815 0.33029 0.77579 0.0
C652 C 0.3618 0.26503 0.76423 0.0
C653 C 0.38206 0.26197 0.8838 0.0
C654 C 0.39108 0.28818 0.88648 0.0
C655 C 0.28575 0.27053 0.73747 0.0
C656 C 0.20511 0.32144 0.82114 0.0
C657 C 0.17039 0.31485 0.84896 0.0
C658 C 0.16504 0.33815 0.84422 0.0
C659 C 0.19919 0.34472 0.81697 0.0
C660 C 0.19063 0.30643 0.83743 0.0
C661 C 0.17937 0.35295 0.82844 0.0
C662 C 0.27014 0.2468 0.79418 0.0
C663 C 0.22601 0.31345 0.80762 0.0
H664 H 0.42805 0.23283 0.70348 0.0
H665 H 0.36508 0.21697 0.74763 0.0
H666 H 0.39483 0.20241 0.71915 0.0
H667 H 0.40247 0.29461 0.74616 0.0
H668 H 0.14965 0.34494 0.85287 0.0
H669 H 0.20977 0.35663 0.80455 0.0
H670 H 0.19479 0.2884 0.84083 0.0
H671 H 0.17501 0.37087 0.82496 0.0
Tb672 Tb 0.05757 0.00815 0.53039 0.0
C673 C 0.02032 0.09901 0.58876 0.0
N674 N 0.00895 0.08263 0.56596 0.0
C675 C 0.96814 0.07818 0.58212 0.0
C676 C 1.006 0.10516 0.60944 0.0
C677 C 0.98303 0.07292 0.56199 0.0
C678 C 0.97969 0.09421 0.60603 0.0
C679 C 0.05882 0.12696 0.61458 0.0
C680 C 0.04649 0.10972 0.59137 0.0
C681 C 0.04461 0.13306 0.63524 0.0
C682 C 0.01831 0.12213 0.63272 0.0
Tb683 Tb 0.03585 0.07547 0.53527 0.0
N684 N 0.05986 0.10296 0.57126 0.0
C685 C 0.08504 0.1377 0.61623 0.0
C686 C 0.08523 0.1139 0.57246 0.0
C687 C 0.09823 0.13131 0.59497 0.0
H688 H 0.97354 0.06148 0.54317 0.0
H689 H 0.11841 0.13985 0.59586 0.0
H690 H 0.11844 0.0213 0.51713 0.0
H691 H 0.97748 0.93381 0.48229 0.0
H692 H 0.0954 0.10966 0.556 0.0
H693 H 0.0952 0.15114 0.63366 0.0
H694 H 1.00212 0.96729 0.51898 0.0
H695 H 0.94767 0.07011 0.57902 0.0
H696 H 0.05377 0.14628 0.65322 0.0
H697 H 1.0076 0.12708 0.6488 0.0
H698 H 0.14159 0.01287 0.47905 0.0
H699 H 0.96804 0.09838 0.6215 0.0
H700 H 0.99619 0.92407 0.44055 0.0
N701 N 0.08171 1.00152 0.49634 0.0
C702 C 0.06941 0.98426 0.47457 0.0
C703 C 0.12111 1.00521 0.47718 0.0
C704 C 0.08221 0.97775 0.45265 0.0
C705 C 0.10766 0.01074 0.49853 0.0
C706 C 0.10823 0.98902 0.45389 0.0
N707 N 0.03333 0.97752 0.49733 0.0
C708 C 0.01002 0.96359 0.50055 0.0
C709 C 0.0315 0.95228 0.45406 0.0
C710 C 0.04453 0.97149 0.47529 0.0
C711 C 1.00687 0.93896 0.45644 0.0
C712 C 0.99622 0.94443 0.47995 0.0
H713 H 0.11881 0.98439 0.43759 0.0
H714 H 0.07848 0.95424 0.41378 0.0
H715 H 0.03394 0.93209 0.4149 0.0
O716 O 0.04871 0.98276 0.55899 0.0
O717 O 0.03077 0.01421 0.4965 0.0
O718 O 0.04123 0.05684 0.49537 0.0
O719 O 0.08126 0.98315 0.53693 0.0
O720 O 0.02274 0.01236 0.54849 0.0
O721 O 1.00564 0.0412 0.52623 0.0
O722 O 0.04599 0.1122 0.52493 0.0
O723 O 0.04585 0.06009 0.5732 0.0
O724 O 0.07656 0.0375 0.56411 0.0
O725 O 1.00702 0.08947 0.51395 0.0
O726 O 0.07068 0.07335 0.51779 0.0
O727 O 0.08874 0.04266 0.53536 0.0
C728 C 0.03106 0.03358 0.48338 0.0
C729 C 0.07632 0.95219 0.56695 0.0
C730 C 0.07061 0.91944 0.59585 0.0
C731 C 0.0929 0.91233 0.58853 0.0
C732 C 0.09863 0.9446 0.56004 0.0
C733 C 0.1068 0.92486 0.57077 0.0
C734 C 0.06222 0.93949 0.58508 0.0
C735 C 1.00297 0.02074 0.53791 0.0
C736 C 0.0682 0.97285 0.55424 0.0
C737 C 0.06901 0.95934 0.43087 0.0
C738 C 0.04368 0.94666 0.43155 0.0
C739 C 0.06498 0.04961 0.58125 0.0
C740 C 0.01398 0.13255 0.50491 0.0
C741 C 0.01534 0.16619 0.47695 0.0
C742 C 0.99419 0.17263 0.48788 0.0
C743 C 0.99297 0.13941 0.51567 0.0
C744 C 0.02537 0.14621 0.48572 0.0
C745 C 0.98322 0.15945 0.5072 0.0
C746 C 0.09058 0.06396 0.52505 0.0
C747 C 0.02322 0.11014 0.51167 0.0
H748 H 0.09951 0.89691 0.59658 0.0
H749 H 0.10986 0.95385 0.54614 0.0
H750 H 0.12394 0.91919 0.56522 0.0
H751 H 0.0449 0.94488 0.59052 0.0
H752 H 0.98608 0.18785 0.48131 0.0
H753 H 0.98393 0.1291 0.53029 0.0
H754 H 0.04144 0.14082 0.47707 0.0
H755 H 0.96687 0.1646 0.51538 0.0
Tb756 Tb 0.29368 0.82293 0.76246 0.0
C757 C 0.24276 0.73648 0.82451 0.0
N758 N 0.2649 0.7545 0.83153 0.0
C759 C 0.25606 0.76131 0.87711 0.0
C760 C 0.22615 0.73039 0.84355 0.0
C761 C 0.27198 0.76663 0.85752 0.0
C762 C 0.233 0.74318 0.87009 0.0
C763 C 0.21412 0.70517 0.78992 0.0
C764 C 0.23679 0.724 0.79803 0.0
C765 C 0.19744 0.69909 0.80881 0.0
C766 C 0.20344 0.71167 0.83554 0.0
Tb767 Tb 0.28954 0.75993 0.79791 0.0
N768 N 0.25314 0.73071 0.78015 0.0
C769 C 0.2091 0.69288 0.76312 0.0
C770 C 0.2491 0.71795 0.75452 0.0
C771 C 0.2268 0.69915 0.74541 0.0
H772 H 0.2903 0.77982 0.86338 0.0
H773 H 0.22351 0.6892 0.72492 0.0
H774 H 0.29423 0.80355 0.69717 0.0
H775 H 0.35877 0.8935 0.83662 0.0
H776 H 0.26342 0.72173 0.74148 0.0
H777 H 0.19191 0.67822 0.75606 0.0
H778 H 0.31875 0.86134 0.81906 0.0
H779 H 0.26173 0.77094 0.89769 0.0
H780 H 0.17991 0.68463 0.80299 0.0
H781 H 0.19043 0.70669 0.8499 0.0
H782 H 0.32384 0.8121 0.66379 0.0
H783 H 0.22079 0.739 0.88536 0.0
H784 H 0.39153 0.90395 0.80658 0.0
N785 N 0.31913 0.82871 0.72953 0.0
C786 C 0.34144 0.84641 0.7371 0.0
C787 C 0.32911 0.82172 0.6844 0.0
C788 C 0.35869 0.85226 0.71859 0.0
C789 C 0.31255 0.81663 0.70348 0.0
C790 C 0.35232 0.83955 0.692 0.0
N791 N 0.33014 0.8519 0.78106 0.0
C792 C 0.33361 0.86479 0.80659 0.0
C793 C 0.36982 0.87717 0.77234 0.0
C794 C 0.34702 0.8586 0.76367 0.0
C795 C 0.3743 0.88944 0.79912 0.0
C796 C 0.35594 0.88344 0.81621 0.0
H797 H 0.36505 0.84352 0.67713 0.0
H798 H 0.39511 0.87538 0.71325 0.0
H799 H 0.40479 0.89728 0.76025 0.0
O800 O 0.27713 0.85422 0.77383 0.0
O801 O 0.3306 0.81072 0.77249 0.0
O802 O 0.32753 0.78714 0.80766 0.0
O803 O 0.28005 0.8412 0.73169 0.0
O804 O 0.27986 0.82248 0.80129 0.0
O805 O 0.30264 0.79685 0.82056 0.0
O806 O 0.30534 0.72805 0.7866 0.0
O807 O 0.25159 0.77119 0.78669 0.0
O808 O 0.2572 0.79439 0.75155 0.0
O809 O 0.30406 0.74235 0.82881 0.0
O810 O 0.30274 0.75982 0.75874 0.0
O811 O 0.2811 0.78623 0.73866 0.0
C812 C 0.3413 0.79997 0.79163 0.0
C813 C 0.26126 0.87757 0.73936 0.0
C814 C 0.23578 0.90932 0.74613 0.0
C815 C 0.23825 0.91475 0.71998 0.0
C816 C 0.2636 0.88332 0.71323 0.0
C817 C 0.25217 0.90185 0.70366 0.0
C818 C 0.24743 0.89081 0.75596 0.0
C819 C 0.28731 0.81231 0.82206 0.0
C820 C 0.27297 0.85747 0.74864 0.0
C821 C 0.3816 0.8706 0.72719 0.0
C822 C 0.38713 0.88306 0.75398 0.0
C823 C 0.24207 0.78188 0.76665 0.0
C824 C 0.32327 0.70616 0.82151 0.0
C825 C 0.34341 0.67035 0.81317 0.0
C826 C 0.34948 0.67116 0.84113 0.0
C827 C 0.32943 0.70655 0.84948 0.0
C828 C 0.33018 0.68779 0.80328 0.0
C829 C 0.34243 0.68912 0.85916 0.0
C830 C 0.29573 0.76996 0.73772 0.0
C831 C 0.31076 0.72572 0.81194 0.0
H832 H 0.22936 0.92903 0.71222 0.0
H833 H 0.27428 0.87349 0.70013 0.0
H834 H 0.25403 0.90616 0.68351 0.0
H835 H 0.24542 0.88657 0.77614 0.0
H836 H 0.35976 0.65785 0.84899 0.0
H837 H 0.32446 0.72052 0.86396 0.0
H838 H 0.32576 0.68731 0.78167 0.0
H839 H 0.34722 0.68966 0.8807 0.0
Tb840 Tb 0.54187 0.06003 0.00042 0.0
C841 C 0.59406 1.00208 0.10083 0.0
N842 N 0.57432 0.99259 0.08038 0.0
C843 C 0.58726 0.95291 0.07519 0.0
C844 C 0.61133 0.98728 0.1092 0.0
C845 C 0.57066 0.96831 0.06755 0.0
C846 C 0.60766 0.96241 0.09613 0.0
C847 C 0.61886 0.03803 0.13281 0.0
C848 C 0.59774 0.02713 0.11249 0.0
C849 C 0.63571 0.02318 0.14168 0.0
C850 C 0.63197 0.99788 0.12988 0.0
Tb851 Tb 0.54849 0.01932 0.06944 0.0
N852 N 0.58173 0.04124 0.10245 0.0
C853 C 0.62294 0.06371 0.14303 0.0
C854 C 0.58614 0.06654 0.11216 0.0
C855 C 0.60657 0.07802 0.13254 0.0
H856 H 0.55473 0.96059 0.05158 0.0
H857 H 0.60984 0.09804 0.13993 0.0
H858 H 0.53498 0.11869 0.01618 0.0
H859 H 0.49947 0.9938 0.90912 0.0
H860 H 0.57468 0.07851 0.10424 0.0
H861 H 0.63895 0.07278 0.15859 0.0
H862 H 0.53475 0.0159 0.945 0.0
H863 H 0.58429 0.93371 0.06493 0.0
H864 H 0.65199 0.03123 0.15726 0.0
H865 H 0.64541 0.98679 0.13659 0.0
H866 H 0.50163 0.14303 0.00736 0.0
H867 H 0.62057 0.95047 0.1019 0.0
H868 H 0.45955 0.00983 0.9025 0.0
N869 N 0.51453 0.08569 0.98965 0.0
C870 C 0.49369 0.07529 0.97093 0.0
C871 C 0.499 0.12386 0.99712 0.0
C872 C 0.47412 0.08837 0.96503 0.0
C873 C 0.5178 0.10995 0.00225 0.0
C874 C 0.47683 0.11288 0.97872 0.0
N875 N 0.51364 0.0417 0.96166 0.0
C876 C 0.51687 0.02208 0.94368 0.0
C877 C 0.47288 0.04109 0.93529 0.0
C878 C 0.49307 0.05215 0.95649 0.0
C879 C 0.47466 0.01905 0.91895 0.0
C880 C 0.49713 0.00992 0.92268 0.0
H881 H 0.46232 0.12368 0.97472 0.0
H882 H 0.43757 0.08637 0.94052 0.0
H883 H 0.43645 0.04477 0.91439 0.0
O884 O 0.57192 0.05894 0.97763 0.0
O885 O 0.50622 0.04841 0.01598 0.0
O886 O 0.52058 0.01744 0.03401 0.0
O887 O 0.56723 0.09431 0.99813 0.0
O888 O 0.5472 0.01999 0.99165 0.0
O889 O 0.54876 0.99701 0.02897 0.0
O890 O 0.52588 0.02317 0.10057 0.0
O891 O 0.58623 0.0347 0.0603 0.0
O892 O 0.55998 0.04848 0.03391 0.0
O893 O 0.52701 0.98598 0.07966 0.0
O894 O 0.53775 0.05686 0.07538 0.0
O895 O 0.54342 0.08318 0.04121 0.0
C896 C 0.50393 0.03172 0.03247 0.0
C897 C 0.58721 0.09494 0.95834 0.0
C898 C 0.60717 0.09292 0.91755 0.0
C899 C 0.60233 0.11662 0.91374 0.0
C900 C 0.58254 0.11872 0.95445 0.0
C901 C 0.59022 0.12951 0.93224 0.0
C902 C 0.59996 0.08231 0.94 0.0
C903 C 0.54967 0.99939 0.00288 0.0
C904 C 0.58013 0.08333 0.98184 0.0
C905 C 0.45301 0.07682 0.94515 0.0
C906 C 0.45235 0.05312 0.93032 0.0
C907 C 0.58353 0.04754 0.04107 0.0
C908 C 0.50011 0.98677 0.11522 0.0
C909 C 0.47193 0.99014 0.14925 0.0
C910 C 0.46747 0.96393 0.14889 0.0
C911 C 0.49535 0.96049 0.11483 0.0
C912 C 0.48818 1.00156 0.1324 0.0
C913 C 0.47907 0.94916 0.13163 0.0
C914 C 0.5381 0.07872 0.06585 0.0
C915 C 0.51797 0.99878 0.09831 0.0
H916 H 0.60757 0.12491 0.8962 0.0
H917 H 0.57302 0.12895 0.9685 0.0
H918 H 0.58651 0.14776 0.92917 0.0
H919 H 0.60362 0.06391 0.94273 0.0
H920 H 0.45521 0.95498 0.16218 0.0
H921 H 0.50444 0.94874 0.10183 0.0
H922 H 0.49182 0.0219 0.13309 0.0
H923 H 0.47566 0.92895 0.13148 0.0
Tb924 Tb 0.27429 0.25435 0.26207 0.0
C925 C 0.36302 0.34234 0.33213 0.0
N926 N 0.3407 0.3278 0.33683 0.0
C927 C 0.36017 0.32705 0.38206 0.0
C928 C 0.38502 0.34919 0.35201 0.0
C929 C 0.33887 0.32088 0.36179 0.0
C930 C 0.38346 0.341 0.37706 0.0
C931 C 0.38531 0.36865 0.30311 0.0
C932 C 0.36315 0.35208 0.30811 0.0
C933 C 0.40763 0.37458 0.32229 0.0
C934 C 0.40745 0.36494 0.34674 0.0
Tb935 Tb 0.30649 0.32135 0.30291 0.0
N936 N 0.34105 0.34643 0.2903 0.0
C937 C 0.38404 0.37954 0.27946 0.0
C938 C 0.33912 0.3587 0.26849 0.0
C939 C 0.3607 0.37484 0.26229 0.0
H940 H 0.32076 0.31194 0.36687 0.0
H941 H 0.35914 0.3841 0.24461 0.0
H942 H 0.26439 0.2578 0.19554 0.0
H943 H 0.21026 0.22051 0.33125 0.0
H944 H 0.32083 0.35669 0.25619 0.0
H945 H 0.40062 0.39237 0.27486 0.0
H946 H 0.25098 0.24199 0.31906 0.0
H947 H 0.3584 0.3216 0.40178 0.0
H948 H 0.42485 0.38722 0.31878 0.0
H949 H 0.42453 0.37034 0.36175 0.0
H950 H 0.2285 0.24311 0.15842 0.0
H951 H 0.3998 0.34614 0.39298 0.0
H952 H 0.17252 0.20404 0.29597 0.0
N953 N 0.24206 0.24669 0.22616 0.0
C954 C 0.21879 0.23453 0.23146 0.0
C955 C 0.22541 0.24092 0.17891 0.0
C956 C 0.19801 0.22483 0.21047 0.0
C957 C 0.2456 0.24991 0.20023 0.0
C958 C 0.20156 0.22827 0.18402 0.0
N959 N 0.23662 0.2398 0.27766 0.0
C960 C 0.23474 0.23592 0.30364 0.0
C961 C 0.19241 0.21759 0.26386 0.0
C962 C 0.21605 0.23078 0.2579 0.0
C963 C 0.19033 0.21412 0.29059 0.0
C964 C 0.21156 0.22342 0.31057 0.0
H965 H 0.18614 0.22086 0.16734 0.0
H966 H 0.15856 0.20359 0.20043 0.0
H967 H 0.15362 0.19741 0.24714 0.0
O968 O 0.27945 0.21954 0.27307 0.0
O969 O 0.24701 0.27967 0.27293 0.0
O970 O 0.26896 0.30276 0.31244 0.0
O971 O 0.27004 0.22371 0.23151 0.0
O972 O 0.29683 0.25559 0.30189 0.0
O973 O 0.29261 0.29209 0.32666 0.0
O974 O 0.28768 0.35014 0.29526 0.0
O975 O 0.33549 0.30207 0.28671 0.0
O976 O 0.31571 0.26528 0.25671 0.0
O977 O 0.30952 0.35085 0.33509 0.0
O978 O 0.28918 0.31899 0.26011 0.0
O979 O 0.29108 0.2806 0.23639 0.0
C980 C 0.24734 0.29512 0.2956 0.0
C981 C 0.29578 0.19501 0.23988 0.0
C982 C 0.31656 0.16047 0.24603 0.0
C983 C 0.32708 0.16287 0.22205 0.0
C984 C 0.30677 0.19785 0.21605 0.0
C985 C 0.32242 0.18182 0.20728 0.0
C986 C 0.3012 0.17662 0.25499 0.0
C987 C 0.29651 0.2691 0.32523 0.0
C988 C 0.2766 0.20903 0.24789 0.0
C989 C 0.17459 0.21144 0.21636 0.0
C990 C 0.17179 0.20789 0.24296 0.0
C991 C 0.33653 0.28228 0.26906 0.0
C992 C 0.28848 0.38529 0.32978 0.0
C993 C 0.26598 0.41757 0.32029 0.0
C994 C 0.27237 0.42932 0.34726 0.0
C995 C 0.29519 0.39682 0.35692 0.0
C996 C 0.27403 0.39584 0.31164 0.0
C997 C 0.2871 0.41889 0.3656 0.0
C998 C 0.29179 0.30486 0.23773 0.0
C999 C 0.29522 0.36171 0.32006 0.0
H1000 H 0.33871 0.1501 0.21482 0.0
H1001 H 0.30282 0.21196 0.20387 0.0
H1002 H 0.3305 0.18377 0.18875 0.0
H1003 H 0.29251 0.17408 0.27315 0.0
H1004 H 0.26642 0.44662 0.35387 0.0
H1005 H 0.30642 0.38875 0.37132 0.0
H1006 H 0.26894 0.38725 0.29055 0.0
H1007 H 0.29227 0.4279 0.38644 0.0
Tb1008 Tb 0.55835 0.50858 0.02989 0.0
C1009 C 0.5169 0.59906 0.08975 0.0
N1010 N 0.50565 0.58181 0.06768 0.0
C1011 C 0.46481 0.57813 0.08373 0.0
C1012 C 0.50256 0.60632 0.10996 0.0
C1013 C 0.47983 0.57164 0.06419 0.0
C1014 C 0.47624 0.59546 0.1068 0.0
C1015 C 0.55545 0.62744 0.11466 0.0
C1016 C 0.543 0.60936 0.09214 0.0
C1017 C 0.54128 0.63472 0.13488 0.0
C1018 C 0.5149 0.62415 0.13257 0.0
Tb1019 Tb 0.53215 0.57265 0.03718 0.0
N1020 N 0.55623 0.60122 0.07257 0.0
C1021 C 0.58173 0.6377 0.1161 0.0
C1022 C 0.58154 0.61216 0.07327 0.0
C1023 C 0.59476 0.63022 0.09514 0.0
H1024 H 0.4706 0.55924 0.0459 0.0
H1025 H 0.61493 0.6386 0.09563 0.0
H1026 H 0.61915 0.52161 0.01838 0.0
H1027 H 0.47259 0.44667 0.97203 0.0
H1028 H 0.59152 0.60766 0.05682 0.0
H1029 H 0.59201 0.65172 0.133 0.0
H1030 H 0.49781 0.47569 0.01139 0.0
H1031 H 0.44437 0.57 0.08082 0.0
H1032 H 0.55052 0.64855 0.15236 0.0
H1033 H 0.50421 0.62996 0.14831 0.0
H1034 H 0.64367 0.51087 0.98183 0.0
H1035 H 0.46454 0.60053 0.12187 0.0
H1036 H 0.49371 0.43417 0.93295 0.0
N1037 N 0.58321 0.50038 0.9974 0.0
C1038 C 0.57084 0.48392 0.97508 0.0
C1039 C 0.62313 0.50336 0.97953 0.0
C1040 C 0.58416 0.47675 0.95389 0.0
C1041 C 0.6091 0.50986 4e-05 0.0
C1042 C 0.61061 0.48681 0.9563 0.0
N1043 N 0.53243 0.48186 0.99427 0.0
C1044 C 0.50706 0.47154 0.99422 0.0
C1045 C 0.53112 0.45706 0.95073 0.0
C1046 C 0.54465 0.47422 0.97352 0.0
C1047 C 0.5048 0.44744 0.95005 0.0
C1048 C 0.49278 0.45456 0.97201 0.0
H1049 H 0.62156 0.4817 0.9405 0.0
H1050 H 0.58067 0.45395 0.91465 0.0
H1051 H 0.53423 0.43671 0.91189 0.0
O1052 O 0.54658 0.47621 0.04883 0.0
O1053 O 0.54644 0.52393 0.99243 0.0
O1054 O 0.5139 0.54304 0.00342 0.0
O1055 O 0.58594 0.48813 0.04094 0.0
O1056 O 0.52456 0.50909 0.05067 0.0
O1057 O 0.50348 0.53676 0.03134 0.0
O1058 O 0.54369 0.6016 0.01309 0.0
O1059 O 0.54468 0.55989 0.07542 0.0
O1060 O 0.57431 0.53526 0.06735 0.0
O1061 O 0.50573 0.59378 0.02545 0.0
O1062 O 0.56764 0.57152 0.01918 0.0
O1063 O 0.58802 0.54354 0.03897 0.0
C1064 C 0.52589 0.53278 0.98526 0.0
C1065 C 0.57759 0.4508 0.06278 0.0
C1066 C 0.56991 0.41557 0.0885 0.0
C1067 C 0.59536 0.41313 0.08763 0.0
C1068 C 0.60292 0.44769 0.06212 0.0
C1069 C 0.61166 0.42898 0.07441 0.0
C1070 C 0.56086 0.43436 0.07582 0.0
C1071 C 0.50361 0.51739 0.04459 0.0
C1072 C 0.56972 0.47198 0.0508 0.0
C1073 C 0.57075 0.45972 0.93111 0.0
C1074 C 0.5443 0.44991 0.92954 0.0
C1075 C 0.56253 0.54808 0.08396 0.0
C1076 C 0.5131 0.62803 0.99932 0.0
C1077 C 0.51928 0.66167 0.9712 0.0
C1078 C 0.49529 0.66646 0.97579 0.0
C1079 C 0.48913 0.63345 0.00341 0.0
C1080 C 0.52833 0.64233 0.98301 0.0
C1081 C 0.48037 0.65246 0.99175 0.0
C1082 C 0.58866 0.56409 0.02772 0.0
C1083 C 0.52135 0.60764 0.01272 0.0
H1084 H 0.6026 0.39874 0.09712 0.0
H1085 H 0.61619 0.45991 0.05226 0.0
H1086 H 0.63123 0.42685 0.07383 0.0
H1087 H 0.54128 0.43645 0.07659 0.0
H1088 H 0.48805 0.68117 0.96691 0.0
H1089 H 0.47701 0.62303 0.01583 0.0
H1090 H 0.54686 0.63854 0.97958 0.0
H1091 H 0.4619 0.65637 0.99514 0.0
Tb1092 Tb 0.80055 0.32913 0.26202 0.0
C1093 C 0.74365 0.23282 0.32614 0.0
N1094 N 0.76743 0.24828 0.33235 0.0
C1095 C 0.76495 0.24869 0.37969 0.0
C1096 C 0.7291 0.22555 0.34657 0.0
C1097 C 0.77885 0.25493 0.35873 0.0
C1098 C 0.73979 0.2343 0.37358 0.0
C1099 C 0.71068 0.20545 0.29217 0.0
C1100 C 0.73449 0.22295 0.29929 0.0
C1101 C 0.69566 0.199 0.31234 0.0
C1102 C 0.70479 0.20912 0.33947 0.0
Tb1103 Tb 0.78679 0.25894 0.29589 0.0
N1104 N 0.74946 0.2296 0.28027 0.0
C1105 C 0.70296 0.19447 0.26509 0.0
C1106 C 0.74229 0.2184 0.25393 0.0
C1107 C 0.71899 0.20079 0.24594 0.0
H1108 H 0.79842 0.26588 0.36358 0.0
H1109 H 0.71343 0.19211 0.22501 0.0
H1110 H 0.79976 0.31262 0.19429 0.0
H1111 H 0.86887 0.39381 0.33854 0.0
H1112 H 0.75436 0.22317 0.23906 0.0
H1113 H 0.68492 0.18078 0.25886 0.0
H1114 H 0.82789 0.36327 0.32082 0.0
H1115 H 0.77368 0.25487 0.40053 0.0
H1116 H 0.67721 0.18578 0.30722 0.0
H1117 H 0.69323 0.20353 0.35486 0.0
H1118 H 0.83024 0.32063 0.16233 0.0
H1119 H 0.72914 0.22932 0.38984 0.0
H1120 H 0.90162 0.40369 0.30841 0.0
N1121 N 0.82629 0.33266 0.22898 0.0
C1122 C 0.84955 0.34895 0.23759 0.0
C1123 C 0.83606 0.32834 0.1835 0.0
C1124 C 0.86714 0.35494 0.21937 0.0
C1125 C 0.81898 0.32329 0.20206 0.0
C1126 C 0.8603 0.34402 0.1922 0.0
N1127 N 0.83815 0.35496 0.28187 0.0
C1128 C 0.84237 0.36697 0.30789 0.0
C1129 C 0.87891 0.37827 0.27369 0.0
C1130 C 0.85544 0.36072 0.26457 0.0
C1131 C 0.88384 0.39001 0.3007 0.0
C1132 C 0.86544 0.38443 0.31781 0.0
H1133 H 0.87328 0.34822 0.17761 0.0
H1134 H 0.90433 0.37702 0.21479 0.0
H1135 H 0.91463 0.39732 0.26222 0.0
O1136 O 0.7861 0.35981 0.27945 0.0
O1137 O 0.83523 0.31654 0.28062 0.0
O1138 O 0.8252 0.28586 0.3094 0.0
O1139 O 0.79316 0.35581 0.23805 0.0
O1140 O 0.78947 0.3082 0.29269 0.0
O1141 O 0.78311 0.28902 0.32652 0.0
O1142 O 0.79452 0.22403 0.2792 0.0
O1143 O 0.75148 0.26923 0.27483 0.0
O1144 O 0.75906 0.30823 0.25696 0.0
O1145 O 0.81559 0.24534 0.31673 0.0
O1146 O 0.80232 0.27368 0.2613 0.0
O1147 O 0.78688 0.29636 0.23186 0.0
C1148 C 0.8419 0.30212 0.29867 0.0
C1149 C 0.76032 0.37697 0.24738 0.0
C1150 C 0.73074 0.40489 0.25441 0.0
C1151 C 0.71952 0.39775 0.22728 0.0
C1152 C 0.74854 0.36988 0.22022 0.0
C1153 C 0.7284 0.38033 0.21031 0.0
C1154 C 0.75125 0.39461 0.26446 0.0
C1155 C 0.78527 0.31021 0.31749 0.0
C1156 C 0.78403 0.3687 0.25665 0.0
C1157 C 0.89067 0.3722 0.22856 0.0
C1158 C 0.89652 0.38382 0.25559 0.0
C1159 C 0.74357 0.28733 0.26248 0.0
C1160 C 0.8156 0.20222 0.31022 0.0
C1161 C 0.84109 0.17039 0.31434 0.0
C1162 C 0.83084 0.16509 0.3379 0.0
C1163 C 0.80511 0.19642 0.33354 0.0
C1164 C 0.83318 0.18875 0.30036 0.0
C1165 C 0.8127 0.17785 0.34724 0.0
C1166 C 0.78955 0.27438 0.23779 0.0
C1167 C 0.81273 0.22518 0.29905 0.0
H1168 H 0.70401 0.4059 0.21918 0.0
H1169 H 0.75527 0.35674 0.20632 0.0
H1170 H 0.71986 0.37514 0.18931 0.0
H1171 H 0.76037 0.40064 0.28524 0.0
H1172 H 0.83687 0.15104 0.34899 0.0
H1173 H 0.79188 0.20686 0.34171 0.0
H1174 H 0.84175 0.19348 0.28268 0.0
H1175 H 0.80495 0.17374 0.36548 0.0
Tb1176 Tb 0.04131 0.56117 0.50173 0.0
C1177 C 0.08763 0.50274 0.60129 0.0
N1178 N 0.06682 0.49216 0.58257 0.0
C1179 C 0.08049 0.45284 0.5782 0.0
C1180 C 0.10614 0.48894 0.60889 0.0
C1181 C 0.06288 0.46745 0.5711 0.0
C1182 C 0.10233 0.46368 0.59704 0.0
C1183 C 0.11188 0.53946 0.63218 0.0
C1184 C 0.09038 0.52754 0.61267 0.0
C1185 C 0.13071 0.52607 0.63944 0.0
C1186 C 0.12783 0.50082 0.62785 0.0
Tb1187 Tb 0.04139 0.51816 0.56848 0.0
N1188 N 0.07189 0.53986 0.60469 0.0
C1189 C 0.11376 0.56441 0.64392 0.0
C1190 C 0.07324 0.56394 0.61731 0.0
C1191 C 0.09414 0.57655 0.63672 0.0
H1192 H 0.04642 0.45903 0.55597 0.0
H1193 H 0.09503 0.59569 0.64616 0.0
H1194 H 0.03388 0.61977 0.5227 0.0
H1195 H 1.00023 0.50008 0.40752 0.0
H1196 H 0.05854 0.57402 0.61323 0.0
H1197 H 0.12996 0.57426 0.65891 0.0
H1198 H 0.03498 0.52043 0.44526 0.0
H1199 H 0.07737 0.43332 0.56885 0.0
H1200 H 0.14744 0.53499 0.65419 0.0
H1201 H 0.14239 0.49062 0.63375 0.0
H1202 H 1.00066 0.64447 0.51547 0.0
H1203 H 0.1161 0.45242 0.6023 0.0
H1204 H 0.96109 0.51745 0.40077 0.0
N1205 N 0.01421 0.58819 0.49362 0.0
C1206 C 0.9943 0.57947 0.47319 0.0
C1207 C 0.99838 0.62597 0.50371 0.0
C1208 C 0.9748 0.59284 0.4682 0.0
C1209 C 0.01703 0.61172 0.50808 0.0
C1210 C 0.97687 0.61626 0.48406 0.0
N1211 N 0.01406 0.54603 0.46181 0.0
C1212 C 0.01729 0.52687 0.44339 0.0
C1213 C 0.97434 0.54753 0.43482 0.0
C1214 C 0.9942 0.55747 0.45662 0.0
C1215 C 0.97601 0.52589 0.41767 0.0
C1216 C 0.99799 0.51594 0.42153 0.0
H1217 H 0.96243 0.62728 0.48079 0.0
H1218 H 0.93881 0.59235 0.44335 0.0
H1219 H 0.93824 0.55235 0.41427 0.0
O1220 O 0.07251 0.5597 0.48038 0.0
O1221 O 1.00268 0.5411 0.504 0.0
O1222 O 0.02729 0.5316 0.53509 0.0
O1223 O 0.0614 0.59489 0.49179 0.0
O1224 O 0.04726 0.5208 0.49308 0.0
O1225 O 0.04048 0.49534 0.52811 0.0
O1226 O 0.01194 0.51955 0.59167 0.0
O1227 O 0.07731 0.52829 0.55387 0.0
O1228 O 0.06756 0.56312 0.5392 0.0
O1229 O 0.01467 0.48418 0.56924 0.0
O1230 O 0.03054 0.55531 0.57541 0.0
O1231 O 0.03912 0.5824 0.54262 0.0
C1232 C 1.00411 0.52931 0.5241 0.0
C1233 C 0.08361 0.59231 0.45403 0.0
C1234 C 0.10515 0.58742 0.41467 0.0
C1235 C 0.10233 0.61145 0.40957 0.0
C1236 C 0.08083 0.61635 0.44869 0.0
C1237 C 0.09019 0.62582 0.42652 0.0
C1238 C 0.0959 0.57787 0.43689 0.0
C1239 C 0.04533 0.4988 0.50309 0.0
C1240 C 0.07689 0.58383 0.47922 0.0
C1241 C 0.95425 0.5826 0.44723 0.0
C1242 C 0.95393 0.55986 0.43065 0.0
C1243 C 0.08374 0.54823 0.54228 0.0
C1244 C 0.99705 0.48378 0.61054 0.0
C1245 C 0.97878 0.48701 0.65231 0.0
C1246 C 0.98758 0.46565 0.65869 0.0
C1247 C 1.00561 0.46227 0.61678 0.0
C1248 C 0.9832 0.49568 0.62809 0.0
C1249 C 1.00069 0.45319 0.6408 0.0
C1250 C 0.03184 0.57743 0.56636 0.0
C1251 C 1.00286 0.49528 0.58669 0.0
H1252 H 0.10934 0.61893 0.39225 0.0
H1253 H 0.07194 0.62809 0.46193 0.0
H1254 H 0.08813 0.64436 0.42253 0.0
H1255 H 0.09834 0.55937 0.44077 0.0
H1256 H 0.98418 0.45858 0.67738 0.0
H1257 H 0.01625 0.45273 0.60341 0.0
H1258 H 0.97665 0.51237 0.62333 0.0
H1259 H 1.00731 0.43665 0.64571 0.0
Tb1260 Tb 0.82424 0.77707 0.28746 0.0
C1261 C 0.73057 0.81655 0.22888 0.0
N1262 N 0.74848 0.82811 0.25043 0.0
C1263 C 0.75185 0.86762 0.23356 0.0
C1264 C 0.72279 0.83008 0.20857 0.0
C1265 C 0.75887 0.85344 0.25325 0.0
C1266 C 0.73382 0.85589 0.21106 0.0
C1267 C 0.70177 0.77815 0.20484 0.0
C1268 C 0.72032 0.7909 0.22695 0.0
C1269 C 0.69387 0.79156 0.18461 0.0
C1270 C 0.70441 0.81744 0.18643 0.0
Tb1271 Tb 0.75844 0.80283 0.28105 0.0
N1272 N 0.72929 0.77832 0.24631 0.0
C1273 C 0.69182 0.75228 0.20366 0.0
C1274 C 0.71867 0.75338 0.24586 0.0
C1275 C 0.70014 0.73991 0.22443 0.0
H1276 H 0.772 0.86298 0.27105 0.0
H1277 H 0.69205 0.72006 0.22413 0.0
H1278 H 0.81198 0.71753 0.29888 0.0
H1279 H 0.88778 0.862 0.3436 0.0
H1280 H 0.72377 0.74382 0.26216 0.0
H1281 H 0.6775 0.74179 0.18705 0.0
H1282 H 0.85668 0.83701 0.30555 0.0
H1283 H 0.7602 0.88766 0.23589 0.0
H1284 H 0.6797 0.78206 0.16742 0.0
H1285 H 0.69822 0.82752 0.17061 0.0
H1286 H 0.82438 0.6938 0.3348 0.0
H1287 H 0.7284 0.86694 0.19586 0.0
H1288 H 0.90272 0.84145 0.38155 0.0
N1289 N 0.83429 0.75291 0.31911 0.0
C1290 C 0.85168 0.76527 0.3408 0.0
C1291 C 0.83204 0.71395 0.33686 0.0
C1292 C 0.85978 0.7524 0.36159 0.0
C1293 C 0.82467 0.72752 0.31671 0.0
C1294 C 0.84961 0.72645 0.35945 0.0
N1295 N 0.85228 0.8029 0.32215 0.0
C1296 C 0.86212 0.82793 0.32219 0.0
C1297 C 0.87934 0.80452 0.36436 0.0
C1298 C 0.86121 0.79103 0.34223 0.0
C1299 C 0.8887 0.83041 0.36496 0.0
C1300 C 0.8802 0.8421 0.34366 0.0
H1301 H 0.85535 0.71586 0.37499 0.0
H1302 H 0.88419 0.75623 0.39991 0.0
H1303 H 0.9014 0.80184 0.40229 0.0
O1304 O 0.85603 0.78907 0.26654 0.0
O1305 O 0.80977 0.7886 0.32586 0.0
O1306 O 0.7901 0.81922 0.31312 0.0
O1307 O 0.8445 0.75026 0.27413 0.0
O1308 O 0.82201 0.80959 0.26667 0.0
O1309 O 0.79472 0.832 0.28592 0.0
O1310 O 0.7294 0.7918 0.30593 0.0
O1311 O 0.77112 0.79006 0.24258 0.0
O1312 O 0.79574 0.76096 0.25123 0.0
O1313 O 0.73698 0.8289 0.29344 0.0
O1314 O 0.75925 0.76775 0.29871 0.0
O1315 O 0.78876 0.74795 0.27963 0.0
C1316 C 0.79798 0.80706 0.33192 0.0
C1317 C 0.8795 0.75769 0.248 0.0
C1318 C 0.91599 0.76622 0.22299 0.0
C1319 C 0.91273 0.74014 0.21469 0.0
C1320 C 0.87692 0.73167 0.23958 0.0
C1321 C 0.89345 0.72302 0.2231 0.0
C1322 C 0.89941 0.77505 0.23989 0.0
C1323 C 0.81447 0.83081 0.27261 0.0
C1324 C 0.85984 0.76615 0.26299 0.0
C1325 C 0.87772 0.7658 0.38375 0.0
C1326 C 0.88752 0.79178 0.3851 0.0
C1327 C 0.78355 0.77268 0.23433 0.0
C1328 C 0.70168 0.82134 0.31931 0.0
C1329 C 0.66871 0.81598 0.34935 0.0
C1330 C 0.66073 0.83723 0.34147 0.0
C1331 C 0.69315 0.84259 0.31198 0.0
C1332 C 0.68927 0.80788 0.33817 0.0
C1333 C 0.67287 0.8504 0.32296 0.0
C1334 C 0.76793 0.74729 0.29129 0.0
C1335 C 0.72282 0.81349 0.30608 0.0
H1336 H 0.92552 0.73297 0.20207 0.0
H1337 H 0.86175 0.7179 0.24529 0.0
H1338 H 0.89122 0.70295 0.2167 0.0
H1339 H 0.90176 0.79517 0.24625 0.0
H1340 H 0.64497 0.84365 0.34974 0.0
H1341 H 0.70199 0.85315 0.29742 0.0
H1342 H 0.69543 0.79139 0.34399 0.0
H1343 H 0.66648 0.86673 0.31702 0.0
Tb1344 Tb 0.76717 0.29153 0.81821 0.0
C1345 C 0.82788 0.24842 0.71632 0.0
N1346 N 0.83751 0.26872 0.73571 0.0
C1347 C 0.87813 0.25645 0.74095 0.0
C1348 C 0.84279 0.23086 0.70886 0.0
C1349 C 0.86245 0.27314 0.74784 0.0
C1350 C 0.86819 0.23506 0.72153 0.0
C1351 C 0.79208 0.22455 0.68355 0.0
C1352 C 0.80296 0.24535 0.704 0.0
C1353 C 0.80652 0.20657 0.67647 0.0
C1354 C 0.83186 0.20974 0.6891 0.0
Tb1355 Tb 0.80958 0.29285 0.74895 0.0
N1356 N 0.78959 0.26302 0.71179 0.0
C1357 C 0.76717 0.22259 0.67059 0.0
C1358 C 0.76576 0.26177 0.6979 0.0
C1359 C 0.75415 0.24154 0.6775 0.0
H1360 H 0.87026 0.28928 0.76335 0.0
H1361 H 0.73514 0.24067 0.66701 0.0
H1362 H 0.70865 0.30132 0.79841 0.0
H1363 H 0.83251 0.33125 0.91035 0.0
H1364 H 0.75533 0.27621 0.70171 0.0
H1365 H 0.7581 0.20692 0.65481 0.0
H1366 H 0.81108 0.29762 0.87242 0.0
H1367 H 0.89778 0.25992 0.75088 0.0
H1368 H 0.79838 0.19035 0.66103 0.0
H1369 H 0.84289 0.19588 0.68328 0.0
H1370 H 0.6849 0.33497 0.80684 0.0
H1371 H 0.88029 0.22202 0.71641 0.0
H1372 H 0.8152 0.36977 0.91921 0.0
N1373 N 0.74109 0.31939 0.82735 0.0
C1374 C 0.75042 0.33844 0.84838 0.0
C1375 C 0.70359 0.33646 0.81837 0.0
C1376 C 0.73766 0.35822 0.85408 0.0
C1377 C 0.71734 0.31757 0.81323 0.0
C1378 C 0.71406 0.3572 0.83849 0.0
N1379 N 0.78421 0.31822 0.85799 0.0
C1380 C 0.80429 0.31487 0.87528 0.0
C1381 C 0.78371 0.35719 0.88622 0.0
C1382 C 0.77282 0.33781 0.8644 0.0
C1383 C 0.80604 0.35521 0.90233 0.0
C1384 C 0.81597 0.33359 0.89726 0.0
H1385 H 0.7035 0.37191 0.84228 0.0
H1386 H 0.73951 0.39376 0.87965 0.0
H1387 H 0.78011 0.39302 0.90763 0.0
O1388 O 0.76841 0.26186 0.84064 0.0
O1389 O 0.78761 0.32973 0.81668 0.0
O1390 O 0.79608 0.30714 0.78308 0.0
O1391 O 0.73267 0.27242 0.82894 0.0
O1392 O 0.80759 0.28501 0.82453 0.0
O1393 O 0.83272 0.29328 0.78897 0.0
O1394 O 0.80792 0.32172 0.72579 0.0
O1395 O 0.80062 0.25676 0.76197 0.0
O1396 O 0.76692 0.26617 0.78065 0.0
O1397 O 0.84388 0.31905 0.74748 0.0
O1398 O 0.77021 0.30097 0.74259 0.0
O1399 O 0.74481 0.29144 0.77735 0.0
C1400 C 0.79926 0.3295 0.7961 0.0
C1401 C 0.73672 0.2554 0.86974 0.0
C1402 C 0.74422 0.24041 0.91262 0.0
C1403 C 0.7202 0.24411 0.91846 0.0
C1404 C 0.71265 0.2591 0.8758 0.0
C1405 C 0.70453 0.25355 0.90012 0.0
C1406 C 0.75248 0.24608 0.88838 0.0
C1407 C 0.82958 0.2876 0.81373 0.0
C1408 C 0.74407 0.25839 0.84291 0.0
C1409 C 0.74876 0.37813 0.87526 0.0
C1410 C 0.77185 0.37769 0.89122 0.0
C1411 C 0.78271 0.25095 0.77699 0.0
C1412 C 0.84429 0.33308 0.70488 0.0
C1413 C 0.84078 0.34484 0.66007 0.0
C1414 C 0.8639 0.33767 0.65613 0.0
C1415 C 0.86763 0.32613 0.70101 0.0
C1416 C 0.8312 0.34279 0.68442 0.0
C1417 C 0.87735 0.32848 0.67667 0.0
C1418 C 0.74797 0.29774 0.75277 0.0
C1419 C 0.83272 0.32995 0.72958 0.0
H1420 H 0.71346 0.2393 0.93699 0.0
H1421 H 0.69985 0.26572 0.86153 0.0
H1422 H 0.68586 0.25611 0.90452 0.0
H1423 H 0.77078 0.24243 0.88378 0.0
H1424 H 0.87166 0.33957 0.6374 0.0
H1425 H 0.87827 0.3188 0.71659 0.0
H1426 H 0.81339 0.34862 0.68732 0.0
H1427 H 0.89534 0.32318 0.67371 0.0
Tb1428 Tb 0.77722 0.75796 0.76348 0.0
C1429 C 0.86568 0.83866 0.8361 0.0
N1430 N 0.84242 0.82537 0.84011 0.0
C1431 C 0.85876 0.82599 0.88661 0.0
C1432 C 0.88621 0.84671 0.85756 0.0
C1433 C 0.83875 0.81886 0.86494 0.0
C1434 C 0.88249 0.84019 0.883 0.0
C1435 C 0.89238 0.85925 0.80594 0.0
C1436 C 0.86871 0.84497 0.8105 0.0
C1437 C 0.91263 0.86775 0.82746 0.0
C1438 C 0.90954 0.86153 0.85318 0.0
Tb1439 Tb 0.81047 0.82406 0.8058 0.0
N1440 N 0.84831 0.83761 0.79033 0.0
C1441 C 0.89485 0.86506 0.77999 0.0
C1442 C 0.85072 0.84314 0.76499 0.0
C1443 C 0.87403 0.85666 0.75936 0.0
H1444 H 0.82007 0.80977 0.86885 0.0
H1445 H 0.87569 0.8612 0.73927 0.0
H1446 H 0.76415 0.76172 0.69809 0.0
H1447 H 0.72151 0.70359 0.82734 0.0
H1448 H 0.83475 0.83797 0.7492 0.0
H1449 H 0.91268 0.87611 0.77571 0.0
H1450 H 0.76082 0.72644 0.81339 0.0
H1451 H 0.85557 0.82128 0.90635 0.0
H1452 H 0.93075 0.87922 0.82445 0.0
H1453 H 0.92532 0.86835 0.86959 0.0
H1454 H 0.72707 0.74945 0.66208 0.0
H1455 H 0.89772 0.84626 0.90006 0.0
H1456 H 0.68038 0.69459 0.79646 0.0
N1457 N 0.74334 0.74921 0.72886 0.0
C1458 C 0.72066 0.73597 0.73428 0.0
C1459 C 0.72479 0.74609 0.68246 0.0
C1460 C 0.69894 0.72783 0.71411 0.0
C1461 C 0.74572 0.75381 0.70315 0.0
C1462 C 0.7012 0.73328 0.68802 0.0
N1463 N 0.74177 0.73527 0.77767 0.0
C1464 C 0.7428 0.72505 0.801 0.0
C1465 C 0.69705 0.71408 0.76572 0.0
C1466 C 0.7198 0.72889 0.75959 0.0
C1467 C 0.69745 0.70592 0.79093 0.0
C1468 C 0.72058 0.71109 0.80847 0.0
H1469 H 0.68512 0.72696 0.67185 0.0
H1470 H 0.65919 0.70724 0.70507 0.0
H1471 H 0.65742 0.69553 0.75044 0.0
O1472 O 0.79397 0.72787 0.77306 0.0
O1473 O 0.74745 0.77799 0.77845 0.0
O1474 O 0.76825 0.81621 0.80557 0.0
O1475 O 0.77638 0.72871 0.73188 0.0
O1476 O 0.79463 0.76104 0.80624 0.0
O1477 O 0.78907 0.79829 0.82852 0.0
O1478 O 0.81647 0.86234 0.80211 0.0
O1479 O 0.8341 0.79553 0.79788 0.0
O1480 O 0.8163 0.77575 0.75553 0.0
O1481 O 0.81147 0.85013 0.84047 0.0
O1482 O 0.79035 0.82541 0.76558 0.0
O1483 O 0.79 0.78746 0.73936 0.0
C1484 C 0.74705 0.79923 0.79442 0.0
C1485 C 0.79505 0.69302 0.73837 0.0
C1486 C 0.80635 0.65436 0.74841 0.0
C1487 C 0.80622 0.64631 0.72086 0.0
C1488 C 0.79501 0.68515 0.71071 0.0
C1489 C 0.80074 0.66186 0.70204 0.0
C1490 C 0.80108 0.6777 0.75711 0.0
C1491 C 0.78898 0.7743 0.82753 0.0
C1492 C 0.78852 0.7169 0.74792 0.0
C1493 C 0.67605 0.71364 0.7203 0.0
C1494 C 0.67504 0.70694 0.74612 0.0
C1495 C 0.83661 0.78336 0.77435 0.0
C1496 C 0.79979 0.88808 0.83353 0.0
C1497 C 0.77627 0.91827 0.81875 0.0
C1498 C 0.77417 0.92688 0.84568 0.0
C1499 C 0.79791 0.89679 0.86051 0.0
C1500 C 0.78887 0.89889 0.81273 0.0
C1501 C 0.785 0.9161 0.86652 0.0
C1502 C 0.78878 0.81143 0.7419 0.0
C1503 C 0.81489 0.86923 0.82745 0.0
H1504 H 0.81041 0.62817 0.71403 0.0
H1505 H 0.79059 0.69694 0.69589 0.0
H1506 H 0.80076 0.65581 0.68076 0.0
H1507 H 0.80105 0.68358 0.7785 0.0
H1508 H 0.76456 0.94216 0.85055 0.0
H1509 H 0.80669 0.8889 0.8769 0.0
H1510 H 0.79027 0.89248 0.79179 0.0
H1511 H 0.78368 0.92291 0.88731 0.0
Tb1512 Tb 0.5801 0.5601 0.55508 0.0
C1513 C 0.49112 0.47144 0.48558 0.0
N1514 N 0.5032 0.49491 0.48182 0.0
C1515 C 0.49886 0.48037 0.43408 0.0
C1516 C 0.48245 0.45155 0.46365 0.0
C1517 C 0.5063 0.49971 0.45625 0.0
C1518 C 0.48698 0.45616 0.43779 0.0
C1519 C 0.47084 0.4446 0.51546 0.0
C1520 C 0.48534 0.46795 0.51112 0.0
C1521 C 0.46267 0.42464 0.49382 0.0
C1522 C 0.46847 0.4281 0.46798 0.0
Tb1523 Tb 0.51089 0.52563 0.51926 0.0
N1524 N 0.49274 0.48794 0.53141 0.0
C1525 C 0.46409 0.44233 0.54118 0.0
C1526 C 0.48487 0.48616 0.55604 0.0
C1527 C 0.47102 0.46328 0.56153 0.0
H1528 H 0.51309 0.51863 0.45243 0.0
H1529 H 0.46518 0.462 0.58125 0.0
H1530 H 0.56854 0.5747 0.61883 0.0
H1531 H 0.6199 0.61779 0.48395 0.0
H1532 H 0.48877 0.50243 0.57129 0.0
H1533 H 0.45288 0.42476 0.5453 0.0
H1534 H 0.59751 0.57891 0.4974 0.0
H1535 H 0.50145 0.4844 0.41398 0.0
H1536 H 0.45132 0.40665 0.49671 0.0
H1537 H 0.46147 0.41272 0.45133 0.0
H1538 H 0.58196 0.61137 0.65439 0.0
H1539 H 0.48054 0.44142 0.42044 0.0
H1540 H 0.63439 0.65658 0.51759 0.0
N1541 N 0.58353 0.59389 0.58796 0.0
C1542 C 0.59722 0.61591 0.58217 0.0
C1543 C 0.58603 0.61304 0.63408 0.0
C1544 C 0.60617 0.63726 0.60241 0.0
C1545 C 0.5778 0.59228 0.61352 0.0
C1546 C 0.60044 0.63556 0.62858 0.0
N1547 N 0.59548 0.59555 0.53726 0.0
C1548 C 0.60164 0.59577 0.51175 0.0
C1549 C 0.61765 0.63931 0.54964 0.0
C1550 C 0.60315 0.61684 0.55605 0.0
C1551 C 0.62329 0.6397 0.52329 0.0
C1552 C 0.61508 0.61787 0.50423 0.0
H1553 H 0.60731 0.65141 0.64474 0.0
H1554 H 0.62852 0.67578 0.61157 0.0
H1555 H 0.63832 0.67767 0.56536 0.0
O1556 O 0.6192 0.56448 0.55106 0.0
O1557 O 0.55172 0.58468 0.54689 0.0
O1558 O 0.52606 0.56338 0.50794 0.0
O1559 O 0.60638 0.56091 0.58952 0.0
O1560 O 0.57871 0.53935 0.5142 0.0
O1561 O 0.53863 0.54021 0.49313 0.0
O1562 O 0.48092 0.54103 0.53312 0.0
O1563 O 0.53194 0.49838 0.53657 0.0
O1564 O 0.57489 0.51823 0.5508 0.0
O1565 O 0.47613 0.51918 0.4934 0.0
O1566 O 0.51563 0.54428 0.56164 0.0
O1567 O 0.55524 0.54082 0.58091 0.0
C1568 C 0.53643 0.58488 0.52428 0.0
C1569 C 0.6423 0.54458 0.5815 0.0
C1570 C 0.66665 0.51433 0.56573 0.0
C1571 C 0.67462 0.51163 0.59245 0.0
C1572 C 0.65055 0.54205 0.6083 0.0
C1573 C 0.66656 0.52552 0.61371 0.0
C1574 C 0.65052 0.53067 0.56024 0.0
C1575 C 0.56239 0.53768 0.4921 0.0
C1576 C 0.62575 0.56224 0.57618 0.0
C1577 C 0.62111 0.65939 0.59615 0.0
C1578 C 0.62671 0.66046 0.56983 0.0
C1579 C 0.55594 0.4977 0.54578 0.0
C1580 C 0.45068 0.54915 0.49917 0.0
C1581 C 0.4135 0.56729 0.50256 0.0
C1582 C 0.41371 0.57287 0.4762 0.0
C1583 C 0.45139 0.55514 0.47288 0.0
C1584 C 0.43218 0.55589 0.51403 0.0
C1585 C 0.43299 0.56718 0.46157 0.0
C1586 C 0.53101 0.54086 0.58247 0.0
C1587 C 0.46581 0.53245 0.51029 0.0
H1588 H 0.68766 0.49941 0.59684 0.0
H1589 H 0.6447 0.55295 0.62503 0.0
H1590 H 0.67303 0.52378 0.63438 0.0
H1591 H 0.64484 0.53274 0.53943 0.0
H1592 H 0.39892 0.58128 0.46698 0.0
H1593 H 0.46548 0.5498 0.46086 0.0
H1594 H 0.43119 0.55067 0.53404 0.0
H1595 H 0.43318 0.57136 0.44116 0.0
Tb1596 Tb 0.01226 0.53809 0.05534 0.0
C1597 C 0.10289 0.58405 0.98797 0.0
N1598 N 0.08466 0.56225 0.98092 0.0
C1599 C 0.08419 0.56635 0.93403 0.0
C1600 C 0.11218 0.59814 0.96819 0.0
C1601 C 0.07545 0.55311 0.95434 0.0
C1602 C 0.10256 0.58902 0.94098 0.0
C1603 C 0.13047 0.61545 0.02322 0.0
C1604 C 0.11211 0.59248 0.01517 0.0
C1605 C 0.1398 0.62946 0.00357 0.0
C1606 C 0.13071 0.62082 0.97614 0.0
Tb1607 Tb 0.0737 0.5414 0.01575 0.0
N1608 N 0.10218 0.57875 0.03374 0.0
C1609 C 0.13863 0.62388 0.05081 0.0
C1610 C 0.10991 0.58722 0.06071 0.0
C1611 C 0.12818 0.60975 0.06962 0.0
H1612 H 0.06135 0.53546 0.94879 0.0
H1613 H 0.13394 0.61638 0.09103 0.0
H1614 H 0.0226 0.54248 0.12232 0.0
H1615 H 0.94926 0.46849 0.97772 0.0
H1616 H 0.10123 0.57753 0.07554 0.0
H1617 H 0.15265 0.64144 0.0578 0.0
H1618 H 0.98441 0.50554 0.99495 0.0
H1619 H 0.07675 0.55906 0.91303 0.0
H1620 H 0.15393 0.64712 0.00939 0.0
H1621 H 0.13803 0.6319 0.96122 0.0
H1622 H 1.00766 0.51686 0.15676 0.0
H1623 H 0.10925 0.59928 0.92519 0.0
H1624 H 0.93047 0.44148 0.00945 0.0
N1625 N 1.001 0.51586 0.08916 0.0
C1626 C 0.9828 0.49414 0.0812 0.0
C1627 C 1.00076 0.51007 0.13556 0.0
C1628 C 0.9731 0.47929 0.1002 0.0
C1629 C 0.00965 0.52424 0.11598 0.0
C1630 C 0.98252 0.4874 0.12764 0.0
N1631 N 0.98385 0.50141 0.03609 0.0
C1632 C 0.97542 0.49491 0.00905 0.0
C1633 C 0.95435 0.46475 0.04486 0.0
C1634 C 0.97357 0.48692 0.05387 0.0
C1635 C 0.94531 0.4583 0.01717 0.0
C1636 C 0.95579 0.47355 0.99922 0.0
H1637 H 0.97551 0.47656 0.14287 0.0
H1638 H 0.94646 0.4454 0.1056 0.0
H1639 H 0.93001 0.43271 0.05716 0.0
O1640 O 0.97935 0.55191 0.04226 0.0
O1641 O 0.02394 0.50108 0.04416 0.0
O1642 O 0.0437 0.50578 0.00612 0.0
O1643 O 0.99534 0.55662 0.08489 0.0
O1644 O 0.01071 0.55284 0.01765 0.0
O1645 O 0.03649 0.53452 0.99113 0.0
O1646 O 0.10786 0.52836 0.02777 0.0
O1647 O 0.06205 0.57829 0.0258 0.0
O1648 O 0.04204 0.57424 0.06385 0.0
O1649 O 0.08843 0.52075 0.98629 0.0
O1650 O 0.0724 0.5269 0.05368 0.0
O1651 O 0.04903 0.54762 0.08095 0.0
C1652 C 0.03347 0.49132 0.02301 0.0
C1653 C 0.95793 0.57398 0.07525 0.0
C1654 C 0.92306 0.59494 0.0641 0.0
C1655 C 0.92326 0.60284 0.09175 0.0
C1656 C 0.95762 0.58182 0.10286 0.0
C1657 C 0.94034 0.59613 0.11099 0.0
C1658 C 0.94025 0.58026 0.05582 0.0
C1659 C 0.01882 0.54764 0.99464 0.0
C1660 C 0.97774 0.56066 0.06716 0.0
C1661 C 0.95413 0.45705 0.09129 0.0
C1662 C 0.94474 0.44984 0.06371 0.0
C1663 C 0.05235 0.58832 0.0466 0.0
C1664 C 0.12625 0.5037 0.99308 0.0
C1665 C 0.1639 0.48528 -3e-05 0.0
C1666 C 0.16016 0.47579 0.97229 0.0
C1667 C 0.123 0.49393 0.96538 0.0
C1668 C 0.14684 0.49921 0.01051 0.0
C1669 C 0.13979 0.48006 0.95514 0.0
C1670 C 0.06865 0.53735 0.07716 0.0
C1671 C 0.10752 0.51793 0.00293 0.0
H1672 H 0.90983 0.61385 0.09845 0.0
H1673 H 0.97095 0.57715 0.11823 0.0
H1674 H 0.94024 0.60213 0.13227 0.0
H1675 H 0.94014 0.57424 0.03447 0.0
H1676 H 0.17304 0.46493 0.96395 0.0
H1677 H 0.10735 0.49691 0.95145 0.0
H1678 H 0.14965 0.50651 0.0319 0.0
H1679 H 0.137 0.47258 0.93383 0.0
H1680 H 0.03622 0.18327 0.96497 0.0
H1681 H 0.99201 0.20325 0.0272 0.0
H1682 H 0.99451 0.16392 0.04503 0.0
H1683 H 0.00953 0.12296 0.04358 0.0
H1684 H 0.05478 0.10388 0.98205 0.0
H1685 H 0.0523 0.14317 0.96433 0.0
C1686 C 0.02707 0.17912 0.98246 0.0
C1687 C 0.01374 0.1968 0.99444 0.0
C1688 C 0.02909 0.15631 0.99316 0.0
C1689 C 1.00247 0.1906 0.01736 0.0
C1690 C 1.0039 0.16785 0.02765 0.0
C1691 C 0.01889 0.12736 0.0263 0.0
C1692 C 0.03237 0.10987 0.01428 0.0
C1693 C 0.01722 0.15043 0.01587 0.0
C1694 C 0.04421 0.11644 0.99183 0.0
C1695 C 0.04273 0.13913 0.98158 0.0
H1696 H 0.13843 0.80101 0.18917 0.0
H1697 H 0.1852 0.82638 0.12975 0.0
H1698 H 0.22401 0.82424 0.15957 0.0
H1699 H 0.24499 0.81592 0.20337 0.0
H1700 H 0.19673 0.78421 0.25886 0.0
H1701 H 0.1587 0.78854 0.23025 0.0
C1702 C 0.15703 0.80601 0.18254 0.0
C1703 C 0.15862 0.81411 0.15708 0.0
C1704 C 0.17929 0.80395 0.1995 0.0
C1705 C 0.18316 0.8202 0.14912 0.0
C1706 C 0.20545 0.819 0.16627 0.0
C1707 C 0.22619 0.80985 0.20927 0.0
C1708 C 0.22431 0.80076 0.23433 0.0
C1709 C 0.20384 0.81101 0.19166 0.0
C1710 C 0.19941 0.79266 0.24088 0.0
C1711 C 0.17738 0.79468 0.2241 0.0
H1712 H 0.55326 0.88403 0.4755 0.0
H1713 H 0.48731 0.85495 0.51247 0.0
H1714 H 0.48528 0.89862 0.53048 0.0
H1715 H 0.50161 0.94648 0.53383 0.0
H1716 H 0.56753 0.97225 0.4947 0.0
H1717 H 0.56989 0.92938 0.47996 0.0
C1718 C 0.5385 0.88696 0.4878 0.0
C1719 C 0.5206 0.86558 0.49253 0.0
C1720 C 0.53724 0.91216 0.49771 0.0
C1721 C 0.50174 0.87052 0.50863 0.0
C1722 C 0.50042 0.89575 0.51872 0.0
C1723 C 0.51648 0.94281 0.52205 0.0
C1724 C 0.5344 0.96374 0.51568 0.0
C1725 C 0.51789 0.917 0.51309 0.0
C1726 C 0.55341 0.95762 0.50041 0.0
C1727 C 0.55485 0.93264 0.49173 0.0
H1728 H 0.52835 0.30835 0.70473 0.0
H1729 H 0.49246 0.28982 0.62165 0.0
H1730 H 0.44983 0.28349 0.63622 0.0
H1731 H 0.42376 0.27494 0.6729 0.0
H1732 H 0.46008 0.29375 0.75577 0.0
H1733 H 0.50161 0.30897 0.74113 0.0
C1734 C 0.51115 0.30352 0.68984 0.0
C1735 C 0.51338 0.29896 0.66224 0.0
C1736 C 0.48687 0.29987 0.69838 0.0
C1737 C 0.49111 0.29321 0.64303 0.0
C1738 C 0.46678 0.28946 0.65137 0.0
C1739 C 0.44064 0.28335 0.68767 0.0
C1740 C 0.4391 0.28314 0.71532 0.0
C1741 C 0.4645 0.29156 0.67902 0.0
C1742 C 0.46092 0.29393 0.73443 0.0
C1743 C 0.48468 0.3023 0.72602 0.0
H1744 H 0.05167 0.85511 0.68763 0.0
H1745 H 0.01462 0.79938 0.61862 0.0
H1746 H 0.01758 0.832 0.58968 0.0
H1747 H 0.0367 0.87495 0.5826 0.0
H1748 H 0.07606 0.9304 0.65049 0.0
H1749 H 0.06576 0.89972 0.68131 0.0
C1750 C 0.04394 0.85021 0.66634 0.0
C1751 C 0.03345 0.82475 0.65522 0.0
C1752 C 0.04611 0.8691 0.64959 0.0
C1753 C 0.02331 0.81873 0.62762 0.0
C1754 C 0.02489 0.8374 0.61103 0.0
C1755 C 0.04203 0.88051 0.60428 0.0
C1756 C 0.05675 0.90486 0.61443 0.0
C1757 C 0.03702 0.86246 0.62159 0.0
C1758 C 0.06423 0.91185 0.64241 0.0
C1759 C 0.0587 0.89418 0.65993 0.0
H1760 H 0.46209 0.81686 0.78554 0.0
H1761 H 0.46503 0.80752 0.86938 0.0
H1762 H 0.41811 0.80133 0.86519 0.0
H1763 H 0.37538 0.79853 0.83755 0.0
H1764 H 0.37336 0.80892 0.754 0.0
H1765 H 0.41997 0.81439 0.75826 0.0
C1766 C 0.45257 0.81333 0.80295 0.0
C1767 C 0.46759 0.81248 0.82776 0.0
C1768 C 0.42531 0.80988 0.80043 0.0
C1769 C 0.45439 0.80801 0.84992 0.0
C1770 C 0.42736 0.80453 0.84755 0.0
C1771 C 0.3851 0.80194 0.82024 0.0
C1772 C 0.37037 0.80335 0.79541 0.0
C1773 C 0.41247 0.80538 0.82288 0.0
C1774 C 0.38376 0.80798 0.77343 0.0
C1775 C 0.41064 0.81104 0.77582 0.0
H1776 H 0.52161 0.15256 0.16743 0.0
H1777 H 0.52889 0.20662 0.11199 0.0
H1778 H 0.53326 0.17365 0.07605 0.0
H1779 H 0.53748 0.12945 0.06105 0.0
H1780 H 0.52773 0.07601 0.11736 0.0
H1781 H 0.52245 0.10864 0.15178 0.0
C1782 C 0.524 0.15724 0.14747 0.0
C1783 C 0.52509 0.1823 0.14273 0.0
C1784 C 0.52646 0.13817 0.12685 0.0
C1785 C 0.52807 0.18764 0.11649 0.0
C1786 C 0.53066 0.16872 0.09586 0.0
C1787 C 0.53389 0.12473 0.08061 0.0
C1788 C 0.53337 0.0998 0.086 0.0
C1789 C 0.53025 0.14387 0.10085 0.0
C1790 C 0.52863 0.09468 0.11199 0.0
C1791 C 0.5255 0.11349 0.13203 0.0
H1792 H 0.16122 0.33851 0.35493 0.0
H1793 H 0.10924 0.28406 0.29369 0.0
H1794 H 0.14589 0.27128 0.27516 0.0
H1795 H 0.19386 0.27544 0.27597 0.0
H1796 H 0.24492 0.33157 0.33681 0.0
H1797 H 0.20832 0.34373 0.35475 0.0
C1798 C 0.15776 0.32392 0.33742 0.0
C1799 C 0.13191 0.3125 0.32591 0.0
C1800 C 0.17924 0.31687 0.32636 0.0
C1801 C 0.1285 0.29361 0.30308 0.0
C1802 C 0.14969 0.28617 0.29242 0.0
C1803 C 0.1971 0.29036 0.29311 0.0
C1804 C 0.22293 0.3022 0.30486 0.0
C1805 C 0.17535 0.29765 0.30376 0.0
C1806 C 0.22587 0.32161 0.32713 0.0
C1807 C 0.20468 0.32875 0.3376 0.0
H1808 H 1.00746 0.01652 0.19797 0.0
H1809 H 0.93839 0.04149 0.17289 0.0
H1810 H 0.95394 0.05068 0.13077 0.0
H1811 H 0.9868 0.05085 0.10022 0.0
H1812 H 0.05416 0.02238 0.12363 0.0
H1813 H 0.03985 0.01565 0.16682 0.0
C1814 C 0.99588 0.02405 0.18331 0.0
C1815 C 0.97178 0.02832 0.18873 0.0
C1816 C 1.00468 0.02875 0.15864 0.0
C1817 C 0.95693 0.03786 0.1693 0.0
C1818 C 0.96585 0.04321 0.14515 0.0
C1819 C 0.9984 0.04326 0.1148 0.0
C1820 C 0.02169 0.03738 0.10853 0.0
C1821 C 0.98964 0.03861 0.13948 0.0
C1822 C 0.0363 0.02739 0.12779 0.0
C1823 C 0.02807 0.02338 0.15257 0.0
H1824 H 0.29493 0.71351 0.51382 0.0
H1825 H 0.28615 0.63964 0.46708 0.0
H1826 H 0.26865 0.65454 0.42698 0.0
H1827 H 0.24983 0.68663 0.40707 0.0
H1828 H 0.25772 0.76014 0.45358 0.0
H1829 H 0.28163 0.74741 0.49207 0.0
C1830 C 0.28994 0.7009 0.49467 0.0
C1831 C 0.29155 0.67547 0.49349 0.0
C1832 C 0.27918 0.70937 0.47187 0.0
C1833 C 0.2851 0.65934 0.46853 0.0
C1834 C 0.27479 0.66774 0.44564 0.0
C1835 C 0.25708 0.69979 0.42563 0.0
C1836 C 0.25177 0.72392 0.42813 0.0
C1837 C 0.27071 0.69235 0.44741 0.0
C1838 C 0.26142 0.74127 0.45177 0.0
C1839 C 0.27509 0.73404 0.47359 0.0
H1840 H 0.64034 0.01515 0.66482 0.0
H1841 H 0.68628 0.08743 0.65641 0.0
H1842 H 0.65057 0.09482 0.62555 0.0
H1843 H 0.60552 0.08084 0.6031 0.0
H1844 H 0.55995 0.00971 0.61503 0.0
H1845 H 0.59543 1.00333 0.64641 0.0
C1846 C 0.64273 0.03227 0.65562 0.0
C1847 C 0.66568 0.05059 0.66227 0.0
C1848 C 0.62177 0.03729 0.64049 0.0
C1849 C 0.66884 0.07283 0.65076 0.0
C1850 C 0.64828 0.07733 0.6339 0.0
C1851 C 0.6037 0.06402 0.61272 0.0
C1852 C 0.58118 0.04518 0.60641 0.0
C1853 C 0.62454 0.05988 0.62919 0.0
C1854 C 0.57758 0.02415 0.61976 0.0
C1855 C 0.59794 0.02024 0.63698 0.0
H1856 H 0.31941 0.33751 0.96341 0.0
H1857 H 0.26075 0.3781 0.94179 0.0
H1858 H 0.25742 0.3604 0.89462 0.0
H1859 H 0.27288 0.33592 0.85853 0.0
H1860 H 0.32887 0.29231 0.87895 0.0
H1861 H 0.33166 0.30869 0.9268 0.0
C1862 C 0.30558 0.34207 0.94845 0.0
C1863 C 0.29062 0.35949 0.95642 0.0
C1864 C 0.30362 0.3317 0.92078 0.0
C1865 C 0.27283 0.3651 0.93648 0.0
C1866 C 0.27089 0.35502 0.90931 0.0
C1867 C 0.28573 0.32996 0.87339 0.0
C1868 C 0.30132 0.31355 0.86478 0.0
C1869 C 0.28659 0.33881 0.90108 0.0
C1870 C 0.31723 0.30554 0.88463 0.0
C1871 C 0.31868 0.31477 0.91221 0.0
H1872 H 0.97618 0.99067 0.36335 0.0
H1873 H 1.00276 0.06786 0.35212 0.0
H1874 H 0.02153 0.07912 0.40006 0.0
H1875 H 0.03186 0.06628 0.44525 0.0
H1876 H 0.99973 0.99001 0.4563 0.0
H1877 H 0.98199 0.97918 0.40888 0.0
C1878 C 0.98605 0.00998 0.37144 0.0
C1879 C 0.98842 0.02832 0.35411 0.0
C1880 C 0.99612 0.01642 0.39912 0.0
C1881 C 1.00075 0.05337 0.36502 0.0
C1882 C 0.01155 0.05978 0.39244 0.0
C1883 C 0.02096 0.04731 0.4373 0.0
C1884 C 0.01846 0.0286 0.45443 0.0
C1885 C 0.00961 0.04138 0.40974 0.0
C1886 C 1.00347 1.00441 0.44363 0.0
C1887 C 0.99287 0.99825 0.41639 0.0
H1888 H 0.31092 0.68806 0.64995 0.0
H1889 H 0.22833 0.66883 0.64495 0.0
H1890 H 0.22944 0.70791 0.67535 0.0
H1891 H 0.25426 0.74622 0.70402 0.0
H1892 H 0.33706 0.7607 0.71594 0.0
H1893 H 0.33585 0.72572 0.67984 0.0
C1894 C 0.29328 0.69246 0.65583 0.0
C1895 C 0.26965 0.67608 0.64577 0.0
C1896 C 0.29418 0.71442 0.67327 0.0
C1897 C 0.24669 0.68137 0.65316 0.0
C1898 C 0.24731 0.70375 0.66996 0.0
C1899 C 0.27193 0.74194 0.69806 0.0
C1900 C 0.29567 0.75531 0.71207 0.0
C1901 C 0.27095 0.72038 0.67995 0.0
C1902 C 0.31869 0.75011 0.70498 0.0
C1903 C 0.31795 0.73005 0.68487 0.0
H1904 H 0.66861 0.05516 0.82884 0.0
H1905 H 0.59473 0.04914 0.78098 0.0
H1906 H 0.57569 0.05702 0.82146 0.0
H1907 H 0.58142 0.07307 0.86921 0.0
H1908 H 0.65399 0.07962 0.91873 0.0
H1909 H 0.67197 0.06309 0.8791 0.0
C1910 C 0.64822 0.05489 0.82738 0.0
C1911 C 0.63331 0.05242 0.8019 0.0
C1912 C 0.6372 0.0597 0.85098 0.0
C1913 C 0.60682 0.05164 0.8003 0.0
C1914 C 0.59582 0.05614 0.82345 0.0
C1915 C 0.60103 0.0704 0.87129 0.0
C1916 C 0.61675 0.07819 0.89617 0.0
C1917 C 0.61108 0.06143 0.84868 0.0
C1918 C 0.64189 0.07418 0.89929 0.0
C1919 C 0.65211 0.06486 0.8767 0.0
H1920 H 0.27547 0.33513 0.12002 0.0
H1921 H 0.35438 0.37487 0.14465 0.0
H1922 H 0.35446 0.359 0.18794 0.0
H1923 H 0.33251 0.33231 0.2183 0.0
H1924 H 0.25139 0.30016 0.19781 0.0
H1925 H 0.25202 0.31298 0.153 0.0
C1926 C 0.29276 0.34013 0.13476 0.0
C1927 C 0.31513 0.35573 0.12867 0.0
C1928 C 0.29231 0.33188 0.1603 0.0
C1929 C 0.33706 0.36258 0.14847 0.0
C1930 C 0.3371 0.35353 0.17332 0.0
C1931 C 0.31472 0.32905 0.20457 0.0
C1932 C 0.29186 0.31543 0.21173 0.0
C1933 C 0.31485 0.33815 0.1795 0.0
C1934 C 0.26932 0.31028 0.19285 0.0
C1935 C 0.26965 0.31784 0.16724 0.0
H1936 H 0.27154 0.00731 0.01964 0.0
H1937 H 0.21409 0.95104 0.96492 0.0
H1938 H 0.18003 0.96609 0.98624 0.0
H1939 H 0.16781 0.98963 0.02577 0.0
H1940 H 0.22641 0.04001 0.08462 0.0
H1941 H 0.25948 0.03221 0.05691 0.0
C1942 C 0.25154 0.99867 0.01191 0.0
C1943 C 0.24508 0.97782 0.99126 0.0
C1944 C 0.23261 1.00569 0.02575 0.0
C1945 C 0.21925 0.96697 0.98113 0.0
C1946 C 0.19993 0.97533 0.9935 0.0
C1947 C 0.1879 0.99873 0.03234 0.0
C1948 C 0.19524 0.0147 0.05716 0.0
C1949 C 0.20657 0.99359 0.01679 0.0
C1950 C 0.22091 0.02706 0.06575 0.0
C1951 C 0.23956 0.02287 0.04984 0.0
H1952 H 0.70415 0.61971 0.02648 0.0
H1953 H 0.66625 0.67211 0.98977 0.0
H1954 H 0.62422 0.6452 0.99178 0.0
H1955 H 0.59837 0.6067 0.00389 0.0
H1956 H 0.63674 0.55806 0.04692 0.0
H1957 H 0.67835 0.58319 0.04189 0.0
C1958 C 0.6867 0.62521 0.01882 0.0
C1959 C 0.68831 0.64772 0.00766 0.0
C1960 C 0.66266 0.61009 0.02083 0.0
C1961 C 0.66551 0.65481 0.99832 0.0
C1962 C 0.6415 0.63941 0.99943 0.0
C1963 C 0.61579 0.60145 0.01205 0.0
C1964 C 0.61417 0.57972 0.02477 0.0
C1965 C 0.63984 0.61695 0.01059 0.0
C1966 C 0.63713 0.57384 0.03589 0.0
C1967 C 0.66107 0.58848 0.03341 0.0
H1968 H 0.66172 0.47336 0.30207 0.0
H1969 H 0.72617 0.53156 0.29273 0.0
H1970 H 0.75087 0.49965 0.28169 0.0
H1971 H 0.75184 0.45476 0.26859 0.0
H1972 H 0.68682 0.39682 0.27636 0.0
H1973 H 0.66483 0.42892 0.29466 0.0
C1974 C 0.68132 0.4791 0.29808 0.0
C1975 C 0.69193 0.50477 0.29787 0.0
C1976 C 0.69531 0.46062 0.29143 0.0
C1977 C 0.71746 0.51191 0.29289 0.0
C1978 C 0.7316 0.49366 0.28648 0.0
C1979 C 0.73321 0.4493 0.27513 0.0
C1980 C 0.72088 0.42366 0.27142 0.0
C1981 C 0.72043 0.46791 0.28486 0.0
C1982 C 0.69659 0.41655 0.27937 0.0
C1983 C 0.68398 0.43488 0.28958 0.0
H1984 H 0.89168 0.51098 0.52765 0.0
H1985 H 0.89517 0.44487 0.4731 0.0
H1986 H 0.94155 0.45153 0.48803 0.0
H1987 H 0.98112 0.48153 0.50893 0.0
H1988 H 0.97729 0.55016 0.55899 0.0
H1989 H 0.93073 0.53644 0.55546 0.0
C1990 C 0.90279 0.49808 0.51935 0.0
C1991 C 0.89113 0.47829 0.49877 0.0
C1992 C 0.92899 0.50213 0.52789 0.0
C1993 C 0.90468 0.46079 0.48841 0.0
C1994 C 0.93086 0.4644 0.49713 0.0
C1995 C 0.96998 0.49266 0.52008 0.0
C1996 C 0.98178 0.51662 0.53384 0.0
C1997 C 0.94333 0.48568 0.51592 0.0
C1998 C 0.96801 0.53147 0.54839 0.0
C1999 C 0.94149 0.52389 0.5459 0.0
H2000 H 0.31879 0.06209 0.29512 0.0
H2001 H 0.37202 0.1149 0.35722 0.0
H2002 H 0.36147 0.15024 0.33615 0.0
H2003 H 0.34282 0.16512 0.29569 0.0
H2004 H 0.29637 0.1109 0.23014 0.0
H2005 H 0.29944 0.0766 0.2563 0.0
C2006 C 0.32753 0.08134 0.30459 0.0
C2007 C 0.34626 0.08601 0.32749 0.0
C2008 C 0.32346 0.10109 0.29098 0.0
C2009 C 0.35746 0.11099 0.33955 0.0
C2010 C 0.35182 0.13109 0.32724 0.0
C2011 C 0.33351 0.14572 0.28734 0.0
C2012 C 0.31983 0.14007 0.26114 0.0
C2013 C 0.33596 0.12621 0.30217 0.0
C2014 C 0.30744 0.11521 0.25018 0.0
C2015 C 0.30892 0.0958 0.2652 0.0
H2016 H 0.35514 0.17197 0.53329 0.0
H2017 H 0.30343 0.09992 0.50415 0.0
H2018 H 0.3391 0.07852 0.50838 0.0
H2019 H 0.38247 0.07949 0.53036 0.0
H2020 H 0.43324 0.15078 0.56435 0.0
H2021 H 0.40111 0.17344 0.54765 0.0
C2022 C 0.35199 0.15174 0.52697 0.0
C2023 C 0.32685 0.13741 0.51879 0.0
C2024 C 0.37246 0.13942 0.53071 0.0
C2025 C 0.32273 0.11119 0.51079 0.0
C2026 C 0.34307 0.09895 0.5133 0.0
C2027 C 0.38675 0.1 0.53306 0.0
C2028 C 0.40986 0.1136 0.54852 0.0
C2029 C 0.3677 0.1127 0.52472 0.0
C2030 C 0.41539 0.14011 0.55241 0.0
C2031 C 0.39695 0.15299 0.5431 0.0
H2032 H 0.70974 0.63317 0.28688 0.0
H2033 H 0.65716 0.67019 0.32632 0.0
H2034 H 0.68612 0.71131 0.3282 0.0
H2035 H 0.72523 0.73703 0.31647 0.0
H2036 H 0.77442 0.70031 0.27085 0.0
H2037 H 0.7485 0.65913 0.27408 0.0
C2038 C 0.70489 0.65024 0.29628 0.0
C2039 C 0.6815 0.64864 0.30677 0.0
C2040 C 0.72114 0.67398 0.29624 0.0
C2041 C 0.67512 0.67094 0.31826 0.0
C2042 C 0.69165 0.69447 0.31928 0.0
C2043 C 0.73047 0.72005 0.30744 0.0
C2044 C 0.75239 0.72204 0.29419 0.0
C2045 C 0.71456 0.69628 0.30799 0.0
C2046 C 0.75839 0.69964 0.28214 0.0
C2047 C 0.74329 0.67593 0.28362 0.0
H2048 H 0.88276 0.42479 0.7945 0.0
H2049 H 0.81568 0.4564 0.78088 0.0
H2050 H 0.78782 0.41419 0.77708 0.0
H2051 H 0.78317 0.36913 0.78128 0.0
H2052 H 0.85089 0.34025 0.80114 0.0
H2053 H 0.87834 0.38078 0.79826 0.0
C2054 C 0.86206 0.42244 0.79005 0.0
C2055 C 0.85115 0.44337 0.78741 0.0
C2056 C 0.84651 0.39869 0.78886 0.0
C2057 C 0.82433 0.4403 0.78267 0.0
C2058 C 0.80852 0.41631 0.78055 0.0
C2059 C 0.80397 0.37181 0.78423 0.0
C2060 C 0.81532 0.35189 0.79008 0.0
C2061 C 0.81947 0.39549 0.78401 0.0
C2062 C 0.84204 0.3552 0.79518 0.0
C2063 C 0.85765 0.3784 0.79396 0.0
H2064 H 0.09663 0.9078 0.09818 0.0
H2065 H 0.03469 0.85956 0.04161 0.0
H2066 H 0.02228 0.89688 0.02614 0.0
H2067 H 0.0289 0.94442 0.02835 0.0
H2068 H 0.09276 0.9915 0.08388 0.0
H2069 H 0.1043 0.95436 0.09903 0.0
C2070 C 0.08046 0.90527 0.08233 0.0
C2071 C 0.06683 0.88022 0.07127 0.0
C2072 C 0.07364 0.92714 0.07295 0.0
C2073 C 0.04596 0.8781 0.0506 0.0
C2074 C 0.03872 0.8997 0.04172 0.0
C2075 C 0.04536 0.94671 0.04377 0.0
C2076 C 0.0597 0.97171 0.05473 0.0
C2077 C 0.05238 0.92454 0.05265 0.0
C2078 C 0.08102 0.97327 0.07469 0.0
C2079 C 0.08777 0.9517 0.0836 0.0
H2080 H 0.9315 0.25478 0.86014 0.0
H2081 H 0.9218 0.3002 0.93281 0.0
H2082 H 0.88174 0.30777 0.90992 0.0
H2083 H 0.85213 0.30535 0.86735 0.0
H2084 H 0.85952 0.25624 0.79628 0.0
H2085 H 0.89821 0.24714 0.81981 0.0
C2086 C 0.92007 0.2655 0.87131 0.0
C2087 C 0.92943 0.27629 0.89852 0.0
C2088 C 0.89703 0.26988 0.85787 0.0
C2089 C 0.91473 0.29089 0.91227 0.0
C2090 C 0.89199 0.29561 0.89895 0.0
C2091 C 0.86141 0.29186 0.85726 0.0
C2092 C 0.85259 0.28165 0.82973 0.0
C2093 C 0.88322 0.2857 0.87151 0.0
C2094 C 0.86614 0.26514 0.81697 0.0
C2095 C 0.88813 0.25957 0.83065 0.0
H2096 H 0.60067 0.20813 0.58049 0.0
H2097 H 0.52126 0.21272 0.57551 0.0
H2098 H 0.50794 0.16661 0.5617 0.0
H2099 H 0.51922 0.12364 0.5535 0.0
H2100 H 0.59958 0.12124 0.56004 0.0
H2101 H 0.61171 0.16677 0.56985 0.0
C2102 C 0.58039 0.19922 0.57548 0.0
C2103 C 0.56212 0.21445 0.57822 0.0
C2104 C 0.57288 0.17249 0.56796 0.0
C2105 C 0.53592 0.202 0.57261 0.0
C2106 C 0.52827 0.17537 0.5651 0.0
C2107 C 0.53939 0.13301 0.55708 0.0
C2108 C 0.55836 0.11811 0.55565 0.0
C2109 C 0.5466 0.16015 0.56315 0.0
C2110 C 0.58431 0.13136 0.56039 0.0
C2111 C 0.59142 0.1578 0.56625 0.0
H2112 H 0.60649 0.7966 0.44543 0.0
H2113 H 0.55106 0.75213 0.3793 0.0
H2114 H 0.58288 0.75789 0.34868 0.0
H2115 H 0.62472 0.78005 0.33908 0.0
H2116 H 0.6802 0.82554 0.40406 0.0
H2117 H 0.65065 0.81462 0.43659 0.0
C2118 C 0.60156 0.78784 0.42444 0.0
C2119 C 0.57622 0.77428 0.4147 0.0
C2120 C 0.62008 0.79142 0.4066 0.0
C2121 C 0.57024 0.763 0.38738 0.0
C2122 C 0.58848 0.76623 0.36975 0.0
C2123 C 0.63065 0.78673 0.36052 0.0
C2124 C 0.65475 0.80314 0.36929 0.0
C2125 C 0.61323 0.78097 0.37891 0.0
C2126 C 0.66196 0.81237 0.39699 0.0
C2127 C 0.6449 0.8064 0.41552 0.0
H2128 H 0.02684 0.23103 0.38334 0.0
H2129 H 0.08778 0.27709 0.4431 0.0
H2130 H 0.08319 0.24402 0.47168 0.0
H2131 H 0.05748 0.20469 0.48278 0.0
H2132 H 0.99529 0.15968 0.42408 0.0
H2133 H 1.00494 0.18915 0.39196 0.0
C2134 C 0.03931 0.23372 0.40248 0.0
C2135 C 0.05722 0.25683 0.41129 0.0
C2136 C 0.03622 0.21475 0.41914 0.0
C2137 C 0.07343 0.25978 0.43603 0.0
C2138 C 0.07086 0.24082 0.45241 0.0
C2139 C 0.04657 0.20106 0.46266 0.0
C2140 C 0.02569 0.18014 0.45574 0.0
C2141 C 0.0517 0.21861 0.44465 0.0
C2142 C 0.0115 0.17565 0.42974 0.0
C2143 C 0.01688 0.19263 0.41149 0.0
H2144 H 0.62959 0.28269 0.20438 0.0
H2145 H 0.60838 0.25442 0.27649 0.0
H2146 H 0.654 0.25756 0.29324 0.0
H2147 H 0.70091 0.26812 0.28722 0.0
H2148 H 0.72097 0.29885 0.2159 0.0
H2149 H 0.67551 0.29462 0.19923 0.0
C2150 C 0.63477 0.27722 0.22385 0.0
C2151 C 0.61495 0.26817 0.23892 0.0
C2152 C 0.66128 0.27935 0.23355 0.0
C2153 C 0.62271 0.26141 0.26419 0.0
C2154 C 0.64902 0.26316 0.2738 0.0
C2155 C 0.69535 0.27383 0.26798 0.0
C2156 C 0.7149 0.28378 0.25286 0.0
C2157 C 0.66864 0.272 0.25863 0.0
C2158 C 0.70684 0.29126 0.22815 0.0
C2159 C 0.68063 0.28883 0.21853 0.0
H2160 H 0.58366 0.90381 0.94239 0.0
H2161 H 0.52339 0.91029 0.88102 0.0
H2162 H 0.5144 0.94578 0.90998 0.0
H2163 H 0.52308 0.97509 0.95312 0.0
H2164 H 0.58568 0.9718 0.01311 0.0
H2165 H 0.59385 0.93507 0.98503 0.0
C2166 C 0.56867 0.91308 0.93531 0.0
C2167 C 0.5544 0.90427 0.90925 0.0
C2168 C 0.5639 0.93421 0.95202 0.0
C2169 C 0.535 0.91669 0.90066 0.0
C2170 C 0.52972 0.93703 0.91733 0.0
C2171 C 0.53907 0.96699 0.95969 0.0
C2172 C 0.55409 0.97684 0.98509 0.0
C2173 C 0.54411 0.94613 0.943 0.0
C2174 C 0.5737 0.96474 0.99378 0.0
C2175 C 0.57849 0.94373 0.97759 0.0
H2176 H 0.95129 0.76335 0.77942 0.0
H2177 H 0.93578 0.76182 0.69345 0.0
H2178 H 0.8925 0.76863 0.69778 0.0
H2179 H 0.85799 0.77504 0.72623 0.0
H2180 H 0.87591 0.78099 0.8127 0.0
H2181 H 0.91836 0.77286 0.80792 0.0
C2182 C 0.93851 0.76452 0.76157 0.0
C2183 C 0.94723 0.76177 0.73601 0.0
C2184 C 0.91357 0.76932 0.76432 0.0
C2185 C 0.93006 0.76382 0.71339 0.0
C2186 C 0.90506 0.76768 0.71588 0.0
C2187 C 0.87109 0.77443 0.74405 0.0
C2188 C 0.86299 0.77828 0.76991 0.0
C2189 C 0.89639 0.77042 0.74125 0.0
C2190 C 0.88096 0.77793 0.79254 0.0
C2191 C 0.90552 0.77324 0.78983 0.0
H2192 H 0.06727 0.06601 0.87154 0.0
H2193 H 0.14134 0.04746 0.88786 0.0
H2194 H 0.13215 0.03872 0.93281 0.0
H2195 H 0.10228 0.03624 0.96783 0.0
H2196 H 0.02919 0.0569 0.94958 0.0
H2197 H 0.03874 0.06436 0.90539 0.0
C2198 C 0.08153 0.06008 0.88483 0.0
C2199 C 0.10495 0.05741 0.87612 0.0
C2200 C 0.07616 0.05515 0.91052 0.0
C2201 C 0.12304 0.04958 0.89384 0.0
C2202 C 0.11779 0.0446 0.91963 0.0
C2203 C 0.08848 0.04232 0.95415 0.0
C2204 C 0.06478 0.04547 0.96231 0.0
C2205 C 0.09429 0.04726 0.92827 0.0
C2206 C 0.04736 0.05371 0.94415 0.0
C2207 C 0.05283 0.05822 0.91868 0.0
H2208 H 0.78848 0.37689 0.55681 0.0
H2209 H 0.82553 0.45078 0.60065 0.0
H2210 H 0.83754 0.43189 0.64022 0.0
H2211 H 0.84276 0.39401 0.65987 0.0
H2212 H 0.80866 0.32018 0.61491 0.0
H2213 H 0.78983 0.33931 0.57819 0.0
C2214 C 0.79877 0.38891 0.57518 0.0
C2215 C 0.80642 0.41512 0.57572 0.0
C2216 C 0.80638 0.37787 0.59744 0.0
C2217 C 0.81959 0.4305 0.5997 0.0
C2218 C 0.82658 0.41972 0.62227 0.0
C2219 C 0.83098 0.38228 0.64205 0.0
C2220 C 0.82737 0.35597 0.63942 0.0
C2221 C 0.82095 0.3934 0.62096 0.0
C2222 C 0.81191 0.34058 0.61675 0.0
C2223 C 0.80118 0.35149 0.59594 0.0
H2224 H 0.4228 0.02877 0.42033 0.0
H2225 H 0.47492 0.01406 0.36387 0.0
H2226 H 0.51131 0.02973 0.39872 0.0
H2227 H 0.52735 0.04065 0.44473 0.0
H2228 H 0.48045 0.06157 0.50309 0.0
H2229 H 0.442 0.04925 0.46817 0.0
C2230 C 0.44215 0.02865 0.41612 0.0
C2231 C 0.4463 0.01878 0.3903 0.0
C2232 C 0.46332 0.03767 0.43645 0.0
C2233 C 0.47134 0.02001 0.38417 0.0
C2234 C 0.49215 0.02934 0.40386 0.0
C2235 C 0.50884 0.04257 0.45026 0.0
C2236 C 0.50552 0.048 0.47722 0.0
C2237 C 0.48818 0.03707 0.43009 0.0
C2238 C 0.48204 0.05296 0.48327 0.0
C2239 C 0.46056 0.047 0.46302 0.0
H2240 H 0.75795 0.74503 0.10638 0.0
H2241 H 0.81218 0.69807 0.12026 0.0
H2242 H 0.82036 0.71519 0.16846 0.0
H2243 H 0.80869 0.74024 0.20752 0.0
H2244 H 0.75546 0.78829 0.19324 0.0
H2245 H 0.74974 0.77359 0.14505 0.0
C2246 C 0.772 0.73907 0.1199 0.0
C2247 C 0.78453 0.7204 0.10979 0.0
C2248 C 0.77608 0.7485 0.14784 0.0
C2249 C 0.80236 0.71249 0.12761 0.0
C2250 C 0.80688 0.72211 0.15522 0.0
C2251 C 0.79581 0.74751 0.19392 0.0
C2252 C 0.78161 0.76457 0.20451 0.0
C2253 C 0.79322 0.73952 0.16576 0.0
C2254 C 0.76574 0.7743 0.1862 0.0
C2255 C 0.76272 0.76616 0.15835 0.0
H2256 H 0.13246 0.07925 0.69694 0.0
H2257 H 0.07208 0.02218 0.71615 0.0
H2258 H 0.05014 0.01568 0.66957 0.0
H2259 H 0.04788 0.02654 0.62292 0.0
H2260 H 0.10919 0.08258 0.60391 0.0
H2261 H 0.13043 0.08981 0.65071 0.0
C2262 C 0.11448 0.0654 0.69096 0.0
C2263 C 0.10391 0.05132 0.71018 0.0
C2264 C 0.1018 0.06197 0.66416 0.0
C2265 C 0.08055 0.03348 0.70196 0.0
C2266 C 0.06798 0.02975 0.67526 0.0
C2267 C 0.06571 0.04056 0.62923 0.0
C2268 C 0.07654 0.05467 0.6102 0.0
C2269 C 0.07829 0.04402 0.65617 0.0
C2270 C 0.10007 0.07213 0.61837 0.0
C2271 C 0.11238 0.07604 0.64509 0.0
H2272 H 0.78239 0.41054 0.38941 0.0
H2273 H 0.83285 0.38131 0.44411 0.0
H2274 H 0.83186 0.34552 0.40933 0.0
H2275 H 0.81558 0.3224 0.36409 0.0
H2276 H 0.75866 0.34709 0.31292 0.0
H2277 H 0.76384 0.38584 0.34526 0.0
C2278 C 0.79333 0.39641 0.39349 0.0
C2279 C 0.80779 0.39832 0.41881 0.0
C2280 C 0.79185 0.37564 0.37397 0.0
C2281 C 0.82158 0.3799 0.42449 0.0
C2282 C 0.82107 0.35961 0.40473 0.0
C2283 C 0.80454 0.33649 0.36008 0.0
C2284 C 0.78817 0.33336 0.33572 0.0
C2285 C 0.80613 0.35729 0.37953 0.0
C2286 C 0.77295 0.35066 0.33077 0.0
C2287 C 0.77545 0.3723 0.34946 0.0
H2288 H 0.40319 0.03801 0.22374 0.0
H2289 H 0.4671 0.03659 0.28363 0.0
H2290 H 0.49081 0.02305 0.24837 0.0
H2291 H 0.49134 1.00657 0.20104 0.0
H2292 H 0.42807 0.00748 0.14069 0.0
H2293 H 0.40633 0.02682 0.17542 0.0
C2294 C 0.42251 0.03527 0.22896 0.0
C2295 C 0.43319 0.03803 0.25623 0.0
C2296 C 0.4361 0.02727 0.20853 0.0
C2297 C 0.45834 0.03455 0.26278 0.0
C2298 C 0.47194 0.02667 0.24264 0.0
C2299 C 0.47301 0.0115 0.1956 0.0
C2300 C 0.46098 1.00554 0.16878 0.0
C2301 C 0.46069 0.02223 0.21557 0.0
C2302 C 0.43738 0.01192 0.16148 0.0
C2303 C 0.425 0.02284 0.18127 0.0
H2304 H 0.75172 0.74173 0.93477 0.0
H2305 H 0.81858 0.70925 0.93715 0.0
H2306 H 0.82782 0.72387 0.89454 0.0
H2307 H 0.81673 0.74637 0.8562 0.0
H2308 H 0.74842 0.77646 0.85354 0.0
H2309 H 0.7396 0.76201 0.89597 0.0
C2310 C 0.7684 0.73802 0.92604 0.0
C2311 C 0.78459 0.72471 0.93928 0.0
C2312 C 0.7732 0.74589 0.90119 0.0
C2313 C 0.80585 0.71956 0.92739 0.0
C2314 C 0.81112 0.72787 0.90298 0.0
C2315 C 0.79986 0.74953 0.86492 0.0
C2316 C 0.78345 0.76295 0.85205 0.0
C2317 C 0.79487 0.74102 0.88957 0.0
C2318 C 0.76169 0.76691 0.86351 0.0
C2319 C 0.75656 0.7585 0.88772 0.0
H2320 H 0.85332 0.11506 0.08852 0.0
H2321 H 0.80217 0.04313 0.0571 0.0
H2322 H 0.83377 0.03159 0.02945 0.0
H2323 H 0.8734 0.04436 0.01025 0.0
H2324 H 0.9251 0.11586 0.04164 0.0
H2325 H 0.89568 0.12565 0.07345 0.0
C2326 C 0.84968 0.09649 0.0764 0.0
C2327 C 0.82578 0.07982 0.07471 0.0
C2328 C 0.86753 0.09043 0.06005 0.0
C2329 C 0.82079 0.0559 0.05896 0.0
C2330 C 0.83858 0.04957 0.04278 0.0
C2331 C 0.87795 0.06213 0.024 0.0
C2332 C 0.90049 0.07991 0.02328 0.0
C2333 C 0.86145 0.06713 0.04239 0.0
C2334 C 0.90716 0.1025 0.04153 0.0
C2335 C 0.89061 0.10785 0.0598 0.0
H2336 H 0.40561 0.43722 0.06391 0.0
H2337 H 0.36914 0.48258 0.01381 0.0
H2338 H 0.40998 0.50939 0.01214 0.0
H2339 H 0.45601 0.51966 0.02226 0.0
H2340 H 0.49498 0.47789 0.074 0.0
H2341 H 0.45371 0.44992 0.07682 0.0
C2342 C 0.40666 0.45296 0.05269 0.0
C2343 C 0.38391 0.45738 0.03888 0.0
C2344 C 0.4308 0.46908 0.0518 0.0
C2345 C 0.38592 0.47815 0.02458 0.0
C2346 C 0.40945 0.49379 0.02352 0.0
C2347 C 0.4556 0.50508 0.035 0.0
C2348 C 0.47861 0.50149 0.04844 0.0
C2349 C 0.43196 0.48941 0.03686 0.0
C2350 C 0.47752 0.48143 0.06366 0.0
C2351 C 0.45388 0.46534 0.06524 0.0
H2352 H 0.36864 0.5696 0.76422 0.0
H2353 H 0.44522 0.61688 0.78024 0.0
H2354 H 0.42752 0.65425 0.78979 0.0
H2355 H 0.39099 0.6724 0.8008 0.0
H2356 H 0.31467 0.62531 0.78698 0.0
H2357 H 0.33134 0.589 0.7688 0.0
C2358 C 0.38143 0.58812 0.76946 0.0
C2359 C 0.40825 0.59038 0.77223 0.0
C2360 C 0.37113 0.60953 0.77536 0.0
C2361 C 0.42454 0.61455 0.77857 0.0
C2362 C 0.41444 0.63595 0.78397 0.0
C2363 C 0.37801 0.65434 0.79292 0.0
C2364 C 0.35178 0.65129 0.79506 0.0
C2365 C 0.38788 0.63354 0.78346 0.0
C2366 C 0.33494 0.62793 0.78518 0.0
C2367 C 0.34453 0.60718 0.77513 0.0
H2368 H 0.20371 0.57811 0.5626 0.0
H2369 H 0.18967 0.64157 0.52496 0.0
H2370 H 0.14316 0.62439 0.51945 0.0
H2371 H 0.10707 0.59188 0.527 0.0
H2372 H 0.12238 0.52774 0.56305 0.0
H2373 H 0.16807 0.54541 0.56882 0.0
C2374 C 0.19044 0.58798 0.55291 0.0
C2375 C 0.19968 0.61069 0.54383 0.0
C2376 C 0.16414 0.57819 0.55004 0.0
C2377 C 0.18258 0.62388 0.53197 0.0
C2378 C 0.15617 0.61413 0.52887 0.0
C2379 C 0.1204 0.58141 0.53528 0.0
C2380 C 0.11131 0.55832 0.54389 0.0
C2381 C 0.14678 0.59129 0.53791 0.0
C2382 C 0.12881 0.54544 0.55581 0.0
C2383 C 0.155 0.55548 0.55918 0.0
H2384 H 0.75311 0.99001 0.7382 0.0
H2385 H 0.6798 0.97308 0.76726 0.0
H2386 H 0.69258 0.93965 0.78911 0.0
H2387 H 0.72766 0.92226 0.80805 0.0
H2388 H 0.80128 0.93877 0.78009 0.0
H2389 H 0.78511 0.96478 0.74886 0.0
C2390 C 0.73983 0.97849 0.74875 0.0
C2391 C 0.71616 0.98441 0.75223 0.0
C2392 C 0.74739 0.95949 0.7616 0.0
C2393 C 0.69846 0.96902 0.76492 0.0
C2394 C 0.70573 0.95 0.77753 0.0
C2395 C 0.73992 0.93131 0.79477 0.0
C2396 C 0.76564 0.92979 0.79683 0.0
C2397 C 0.73067 0.94624 0.77739 0.0
C2398 C 0.78144 0.94053 0.77907 0.0
C2399 C 0.77227 0.95531 0.76133 0.0
H2400 H 0.75588 0.95003 0.56855 0.0
H2401 H 0.72227 0.88095 0.5137 0.0
H2402 H 0.68703 0.89939 0.49663 0.0
H2403 H 0.66892 0.93691 0.49309 0.0
H2404 H 0.70137 1.00574 0.54833 0.0
H2405 H 0.73365 0.98559 0.56987 0.0
C2406 C 0.74061 0.93892 0.55315 0.0
C2407 C 0.74194 0.91434 0.54203 0.0
C2408 C 0.72034 0.94967 0.54339 0.0
C2409 C 0.72182 0.89997 0.52245 0.0
C2410 C 0.7017 0.91054 0.51258 0.0
C2411 C 0.68289 0.9473 0.5101 0.0
C2412 C 0.68332 0.97282 0.51881 0.0
C2413 C 0.70127 0.93563 0.52223 0.0
C2414 C 0.70099 0.9861 0.5412 0.0
C2415 C 0.71946 0.97463 0.55338 0.0
H2416 H 0.41112 0.41296 0.7542 0.0
H2417 H 0.36202 0.46342 0.77619 0.0
H2418 H 0.32847 0.42728 0.78148 0.0
H2419 H 0.31462 0.38114 0.7831 0.0
H2420 H 0.36362 0.33193 0.75647 0.0
H2421 H 0.39577 0.36777 0.75106 0.0
C2422 C 0.39307 0.4162 0.76004 0.0
C2423 C 0.38939 0.441 0.76516 0.0
C2424 C 0.37387 0.39545 0.76281 0.0
C2425 C 0.36562 0.44458 0.7724 0.0
C2426 C 0.3464 0.42388 0.77549 0.0
C2427 C 0.3319 0.37809 0.77542 0.0
C2428 C 0.33617 0.35335 0.77031 0.0
C2429 C 0.35046 0.39914 0.77118 0.0
C2430 C 0.3593 0.35035 0.76082 0.0
C2431 C 0.37797 0.371 0.75759 0.0
H2432 H 0.25565 0.639 0.26835 0.0
H2433 H 0.18004 0.65353 0.24745 0.0
H2434 H 0.19561 0.69756 0.26719 0.0
H2435 H 0.23115 0.73224 0.28449 0.0
H2436 H 0.30827 0.71992 0.29625 0.0
H2437 H 0.2914 0.67411 0.2887 0.0
C2438 C 0.2426 0.65181 0.26834 0.0
C2439 C 0.21689 0.64327 0.25644 0.0
C2440 C 0.25177 0.67716 0.27904 0.0
C2441 C 0.20007 0.65989 0.25627 0.0
C2442 C 0.20879 0.68492 0.26788 0.0
C2443 C 0.24417 0.71949 0.28628 0.0
C2444 C 0.27066 0.72879 0.29 0.0
C2445 C 0.23465 0.69378 0.27875 0.0
C2446 C 0.28764 0.71258 0.29286 0.0
C2447 C 0.27806 0.68659 0.28806 0.0
H2448 H 0.53238 0.68099 0.46229 0.0
H2449 H 0.49494 0.70407 0.52932 0.0
H2450 H 0.49979 0.6658 0.54829 0.0
H2451 H 0.51504 0.62482 0.54646 0.0
H2452 H 0.55221 0.60207 0.47909 0.0
H2453 H 0.54794 0.64064 0.46069 0.0
C2454 C 0.52518 0.67776 0.48106 0.0
C2455 C 0.5131 0.69606 0.49405 0.0
C2456 C 0.52842 0.65546 0.49228 0.0
C2457 C 0.50436 0.69095 0.51859 0.0
C2458 C 0.50718 0.66881 0.52957 0.0
C2459 C 0.52236 0.62831 0.52782 0.0
C2460 C 0.53418 0.61 0.51443 0.0
C2461 C 0.51931 0.65081 0.51678 0.0
C2462 C 0.54307 0.6153 0.49006 0.0
C2463 C 0.54054 0.63757 0.47939 0.0
H2464 H 0.63742 0.29797 0.68941 0.0
H2465 H 0.68394 0.32856 0.63207 0.0
H2466 H 0.723 0.32678 0.66156 0.0
H2467 H 0.74434 0.3176 0.70456 0.0
H2468 H 0.69697 0.28021 0.75752 0.0
H2469 H 0.65848 0.28468 0.72979 0.0
C2470 C 0.65607 0.30432 0.68329 0.0
C2471 C 0.65748 0.3138 0.6585 0.0
C2472 C 0.6786 0.3026 0.70011 0.0
C2473 C 0.68203 0.32142 0.65099 0.0
C2474 C 0.70448 0.32043 0.66795 0.0
C2475 C 0.72565 0.3103 0.71012 0.0
C2476 C 0.72414 0.29968 0.73436 0.0
C2477 C 0.70309 0.31123 0.69273 0.0
C2478 C 0.69936 0.29001 0.74038 0.0
C2479 C 0.67706 0.29201 0.724 0.0
H2480 H 0.05574 0.37908 0.00676 0.0
H2481 H 0.97675 0.36089 0.96903 0.0
H2482 H 0.97385 0.40493 0.98072 0.0
H2483 H 0.99463 0.44985 0.99837 0.0
H2484 H 0.07313 0.46873 0.03719 0.0
H2485 H 0.07529 0.42399 0.02875 0.0
C2486 C 0.0376 0.38452 0.00197 0.0
C2487 C 0.01617 0.36592 0.98766 0.0
C2488 C 0.0361 0.41048 0.00863 0.0
C2489 C 0.9933 0.37413 0.98079 0.0
C2490 C 0.99173 0.3996 0.98718 0.0
C2491 C 0.01206 0.44428 0.0055 0.0
C2492 C 0.03365 0.46319 0.01859 0.0
C2493 C 0.0131 0.41816 0.00064 0.0
C2494 C 0.05618 0.45501 0.02699 0.0
C2495 C 0.05741 0.42921 0.02216 0.0
H2496 H 0.02771 0.8103 0.20631 0.0
H2497 H 0.99321 0.79235 0.1227 0.0
H2498 H 0.95025 0.7849 0.1365 0.0
H2499 H 0.9235 0.77556 0.17256 0.0
H2500 H 0.95861 0.79327 0.25589 0.0
H2501 H 1.0004 0.80911 0.2421 0.0
C2502 C 0.01077 0.80524 0.19108 0.0
C2503 C 0.0136 0.80126 0.16354 0.0
C2504 C 0.9863 0.80075 0.19918 0.0
C2505 C 0.99153 0.79529 0.14401 0.0
C2506 C 0.96699 0.79087 0.15193 0.0
C2507 C 0.94018 0.7838 0.18763 0.0
C2508 C 0.93815 0.78323 0.21518 0.0
C2509 C 0.96423 0.79241 0.17946 0.0
C2510 C 0.95976 0.79377 0.23464 0.0
C2511 C 0.98368 0.80253 0.22672 0.0
H2512 H 0.5178 0.31633 0.12727 0.0
H2513 H 0.56159 0.3561 0.20305 0.0
H2514 H 0.57234 0.39447 0.18287 0.0
H2515 H 0.57435 0.41486 0.14215 0.0
H2516 H 0.53073 0.3757 0.06635 0.0
H2517 H 0.51417 0.33926 0.08812 0.0
C2518 C 0.52942 0.3335 0.13943 0.0
C2519 C 0.5393 0.3332 0.1665 0.0
C2520 C 0.53545 0.35564 0.12769 0.0
C2521 C 0.55393 0.35572 0.18213 0.0
C2522 C 0.56012 0.3777 0.17059 0.0
C2523 C 0.56051 0.39865 0.13068 0.0
C2524 C 0.55368 0.39786 0.10277 0.0
C2525 C 0.55164 0.37766 0.14321 0.0
C2526 C 0.53598 0.37676 0.08793 0.0
C2527 C 0.52683 0.35582 0.10032 0.0
H2528 H 0.95735 0.30206 0.35181 0.0
H2529 H 0.97473 0.33466 0.28066 0.0
H2530 H 0.92931 0.33248 0.26683 0.0
H2531 H 0.88386 0.32142 0.2741 0.0
H2532 H 0.8653 0.28774 0.34417 0.0
H2533 H 0.911 0.29019 0.3587 0.0
C2534 C 0.95127 0.30858 0.33321 0.0
C2535 C 0.97019 0.31858 0.31751 0.0
C2536 C 0.92444 0.30719 0.32497 0.0
C2537 C 0.96125 0.32686 0.29345 0.0
C2538 C 0.93499 0.32568 0.28539 0.0
C2539 C 0.88967 0.31485 0.29275 0.0
C2540 C 0.87053 0.30464 0.308 0.0
C2541 C 0.9163 0.316 0.30096 0.0
C2542 C 0.87909 0.29578 0.33181 0.0
C2543 C 0.90547 0.29717 0.34021 0.0
H2544 H 0.00815 0.6498 0.66541 0.0
H2545 H 0.04176 0.70737 0.62102 0.0
H2546 H 0.047 0.67493 0.58534 0.0
H2547 H 0.0445 0.62982 0.56778 0.0
H2548 H 1.00709 0.5725 0.61045 0.0
H2549 H 1.00157 0.60492 0.6455 0.0
C2550 C 0.01647 0.65529 0.64787 0.0
C2551 C 0.02465 0.6812 0.64625 0.0
C2552 C 0.01908 0.63641 0.62698 0.0
C2553 C 0.03524 0.68772 0.62308 0.0
C2554 C 0.03834 0.66908 0.60256 0.0
C2555 C 0.03442 0.62429 0.58418 0.0
C2556 C 0.02631 0.59834 0.58597 0.0
C2557 C 0.03056 0.64328 0.60433 0.0
C2558 C 0.01388 0.59207 0.60822 0.0
C2559 C 0.01062 0.61071 0.62848 0.0
H2560 H 0.65836 0.82384 0.86238 0.0
H2561 H 0.61191 0.80522 0.78405 0.0
H2562 H 0.6489 0.79558 0.76354 0.0
H2563 H 0.69566 0.79215 0.76765 0.0
H2564 H 0.74202 0.81607 0.84593 0.0
H2565 H 0.70446 0.82276 0.86611 0.0
C2566 C 0.65615 0.81772 0.84078 0.0
C2567 C 0.63177 0.81529 0.82508 0.0
C2568 C 0.67787 0.81259 0.82887 0.0
C2569 C 0.63001 0.80733 0.79701 0.0
C2570 C 0.65136 0.80171 0.78515 0.0
C2571 C 0.69757 0.79878 0.78912 0.0
C2572 C 0.72221 0.80298 0.80512 0.0
C2573 C 0.67558 0.80416 0.80081 0.0
C2574 C 0.72374 0.81212 0.83287 0.0
C2575 C 0.70207 0.8162 0.84458 0.0
H2576 H 0.50895 0.52371 0.70103 0.0
H2577 H 0.43311 0.53015 0.66828 0.0
H2578 H 0.44811 0.53796 0.62544 0.0
H2579 H 0.48299 0.54292 0.59686 0.0
H2580 H 0.55734 0.53141 0.62849 0.0
H2581 H 0.54294 0.52635 0.67186 0.0
C2582 C 0.49569 0.52685 0.68455 0.0
C2583 C 0.46993 0.52643 0.6881 0.0
C2584 C 0.5043 0.53072 0.6596 0.0
C2585 C 0.45304 0.53033 0.66627 0.0
C2586 C 0.46163 0.53487 0.64169 0.0
C2587 C 0.49607 0.53928 0.61319 0.0
C2588 C 0.52145 0.53791 0.60911 0.0
C2589 C 0.48726 0.53511 0.63805 0.0
C2590 C 0.53785 0.53293 0.63074 0.0
C2591 C 0.52958 0.52986 0.6557 0.0
H2592 H 0.80106 0.20697 0.01195 0.0
H2593 H 0.76071 0.13366 0.96925 0.0
H2594 H 0.74757 0.15271 0.93031 0.0
H2595 H 0.74167 0.19091 0.91163 0.0
H2596 H 0.78082 0.26423 0.95451 0.0
H2597 H 0.80086 0.24457 0.99 0.0
C2598 C 0.78999 0.19514 0.99383 0.0
C2599 C 0.78158 0.16909 0.99358 0.0
C2600 C 0.78208 0.20627 0.9717 0.0
C2601 C 0.76743 0.15383 0.96994 0.0
C2602 C 0.7597 0.16471 0.94772 0.0
C2603 C 0.75503 0.2024 0.92854 0.0
C2604 C 0.75965 0.22877 0.93106 0.0
C2605 C 0.76599 0.19099 0.94888 0.0
C2606 C 0.77697 0.24381 0.95267 0.0
C2607 C 0.78831 0.2326 0.97285 0.0
H2608 H 0.13268 0.53052 0.18451 0.0
H2609 H 0.19549 0.55002 0.13889 0.0
H2610 H 0.16415 0.54758 0.09843 0.0
H2611 H 0.11933 0.54149 0.07795 0.0
H2612 H 0.05883 0.52946 0.12733 0.0
H2613 H 0.08957 0.52805 0.1657 0.0
C2614 C 0.13987 0.53431 0.16583 0.0
C2615 C 0.1663 0.54038 0.16442 0.0
C2616 C 0.12231 0.53458 0.14391 0.0
C2617 C 0.17511 0.54518 0.14012 0.0
C2618 C 0.15732 0.54392 0.11726 0.0
C2619 C 0.11291 0.53865 0.09711 0.0
C2620 C 0.08689 0.53611 0.10013 0.0
C2621 C 0.13091 0.53889 0.11919 0.0
C2622 C 0.0787 0.53227 0.12486 0.0
C2623 C 0.09628 0.53117 0.14666 0.0
H2624 H 0.77603 0.86436 0.44019 0.0
H2625 H 0.84096 0.83765 0.47442 0.0
H2626 H 0.84303 0.81439 0.42988 0.0
H2627 H 0.82732 0.80363 0.38013 0.0
H2628 H 0.76308 0.83269 0.34776 0.0
H2629 H 0.75941 0.85231 0.39248 0.0
C2630 C 0.79052 0.85325 0.43803 0.0
C2631 C 0.8083 0.85277 0.4606 0.0
C2632 C 0.79164 0.84018 0.41253 0.0
C2633 C 0.82684 0.83813 0.45743 0.0
C2634 C 0.82812 0.82496 0.4319 0.0
C2635 C 0.81246 0.81409 0.38294 0.0
C2636 C 0.79557 0.8167 0.36032 0.0
C2637 C 0.81076 0.82609 0.40912 0.0
C2638 C 0.7764 0.83035 0.36453 0.0
C2639 C 0.77429 0.84172 0.39022 0.0
H2640 H 0.45931 0.52062 0.86928 0.0
H2641 H 0.53416 0.5253 0.84443 0.0
H2642 H 0.55386 0.52999 0.89145 0.0
H2643 H 0.54999 0.53119 0.94 0.0
H2644 H 0.47527 0.52654 0.96515 0.0
H2645 H 0.45554 0.52274 0.91822 0.0
C2646 C 0.47995 0.52297 0.87422 0.0
C2647 C 0.4952 0.52259 0.85319 0.0
C2648 C 0.49124 0.52515 0.90154 0.0
C2649 C 0.52191 0.52536 0.86008 0.0
C2650 C 0.53323 0.52797 0.88704 0.0
C2651 C 0.52939 0.52924 0.93518 0.0
C2652 C 0.51423 0.52919 0.95622 0.0
C2653 C 0.51811 0.52748 0.90798 0.0
C2654 C 0.48753 0.52684 0.94949 0.0
C2655 C 0.47617 0.52469 0.92256 0.0
H2656 H 0.76217 0.1947 0.13299 0.0
H2657 H 0.80577 0.15463 0.18231 0.0
H2658 H 0.81424 0.1902 0.21972 0.0
H2659 H 0.81054 0.2333 0.23656 0.0
H2660 H 0.76072 0.2696 0.18916 0.0
H2661 H 0.75444 0.23523 0.15161 0.0
C2662 C 0.77352 0.19389 0.15201 0.0
C2663 C 0.78385 0.1728 0.15523 0.0
C2664 C 0.77748 0.21371 0.17319 0.0
C2665 C 0.79799 0.17114 0.17978 0.0
C2666 C 0.80284 0.19136 0.20091 0.0
C2667 C 0.79766 0.23327 0.21838 0.0
C2668 C 0.78562 0.2535 0.21573 0.0
C2669 C 0.79282 0.2128 0.19764 0.0
C2670 C 0.77003 0.25401 0.19158 0.0
C2671 C 0.76631 0.23439 0.17023 0.0
H2672 H 0.17398 0.55953 0.33071 0.0
H2673 H 0.1017 0.55255 0.27941 0.0
H2674 H 0.07948 0.55421 0.3183 0.0
H2675 H 0.0814 0.56528 0.3664 0.0
H2676 H 0.15289 0.57627 0.41919 0.0
H2677 H 0.17432 0.56386 0.38059 0.0
C2678 C 0.15332 0.55783 0.32812 0.0
C2679 C 0.13967 0.55653 0.30223 0.0
C2680 C 0.14044 0.55928 0.35087 0.0
C2681 C 0.11284 0.55411 0.29911 0.0
C2682 C 0.09997 0.5549 0.32135 0.0
C2683 C 0.10148 0.56412 0.36941 0.0
C2684 C 0.11584 0.572 0.39499 0.0
C2685 C 0.1137 0.55856 0.34724 0.0
C2686 C 0.14173 0.57041 0.39927 0.0
C2687 C 0.15396 0.56365 0.37722 0.0
H2688 H 0.80553 0.88272 0.65227 0.0
H2689 H 0.80212 0.81118 0.6031 0.0
H2690 H 0.79466 0.78942 0.64184 0.0
H2691 H 0.79344 0.79141 0.69034 0.0
H2692 H 0.79024 0.86153 0.73844 0.0
H2693 H 0.79766 0.88346 0.6998 0.0
C2694 C 0.80326 0.86238 0.65005 0.0
C2695 C 0.80513 0.8487 0.62491 0.0
C2696 C 0.79826 0.84983 0.6723 0.0
C2697 C 0.8014 0.82227 0.62228 0.0
C2698 C 0.79707 0.80979 0.64444 0.0
C2699 C 0.7927 0.8111 0.69226 0.0
C2700 C 0.79024 0.82434 0.7174 0.0
C2701 C 0.79582 0.82342 0.66962 0.0
C2702 C 0.7916 0.85054 0.71943 0.0
C2703 C 0.79594 0.86318 0.69728 0.0
H2704 H 0.71746 0.44718 0.49021 0.0
H2705 H 0.76843 0.5196 0.49216 0.0
H2706 H 0.73812 0.54089 0.51305 0.0
H2707 H 0.70243 0.53777 0.53966 0.0
H2708 H 0.65537 0.46488 0.54352 0.0
H2709 H 0.67882 0.44458 0.51141 0.0
C2710 C 0.72154 0.46767 0.49443 0.0
C2711 C 0.74525 0.48187 0.49048 0.0
C2712 C 0.705 0.47951 0.50806 0.0
C2713 C 0.75032 0.50837 0.49556 0.0
C2714 C 0.73316 0.52049 0.5077 0.0
C2715 C 0.69709 0.51752 0.53286 0.0
C2716 C 0.6777 0.50254 0.54376 0.0
C2717 C 0.7113 0.5061 0.51553 0.0
C2718 C 0.67058 0.47642 0.53529 0.0
C2719 C 0.68389 0.46495 0.51702 0.0
H2720 H 0.20586 0.12045 0.52568 0.0
H2721 H 0.16749 0.17325 0.49023 0.0
H2722 H 0.12567 0.14574 0.49164 0.0
H2723 H 0.10044 0.10668 0.50222 0.0
H2724 H 0.13865 0.05742 0.54451 0.0
H2725 H 0.18034 0.08329 0.54039 0.0
C2726 C 0.18836 0.12596 0.51825 0.0
C2727 C 0.18972 0.1487 0.5075 0.0
C2728 C 0.16449 0.11047 0.51989 0.0
C2729 C 0.16689 0.15578 0.49841 0.0
C2730 C 0.14304 0.14004 0.49917 0.0
C2731 C 0.11782 0.10138 0.51047 0.0
C2732 C 0.11624 0.07932 0.52263 0.0
C2733 C 0.14166 0.11728 0.50969 0.0
C2734 C 0.13911 0.07342 0.53382 0.0
C2735 C 0.16301 0.08851 0.53191 0.0
H2736 H 0.15592 0.97099 0.77821 0.0
H2737 H 0.22564 0.02666 0.80992 0.0
H2738 H 0.25098 0.99448 0.80324 0.0
H2739 H 0.25375 0.95254 0.78084 0.0
H2740 H 0.18435 0.8981 0.74593 0.0
H2741 H 0.15831 0.92748 0.76172 0.0
C2742 C 0.17662 0.97599 0.78406 0.0
C2743 C 0.18897 1.00126 0.79392 0.0
C2744 C 0.19109 0.95758 0.77942 0.0
C2745 C 0.21576 0.00743 0.80169 0.0
C2746 C 0.23025 0.98904 0.79793 0.0
C2747 C 0.23291 0.94694 0.77763 0.0
C2748 C 0.22079 0.92338 0.76247 0.0
C2749 C 0.21822 0.96433 0.78573 0.0
C2750 C 0.19387 0.91616 0.75787 0.0
C2751 C 0.17907 0.93303 0.76662 0.0
H2752 H 0.38985 0.02111 0.02417 0.0
H2753 H 0.39309 0.94344 9e-05 0.0
H2754 H 0.43885 0.95282 0.01847 0.0
H2755 H 0.47841 0.98478 0.03306 0.0
H2756 H 0.47532 0.06315 0.05197 0.0
H2757 H 0.42842 0.05169 0.04626 0.0
C2758 C 0.40067 1.00632 0.02336 0.0
C2759 C 0.38896 0.98197 0.01051 0.0
C2760 C 0.42657 0.01187 0.03377 0.0
C2761 C 0.40238 0.96246 0.0098 0.0
C2762 C 0.42829 0.96775 0.02039 0.0
C2763 C 0.46738 0.99911 0.03708 0.0
C2764 C 0.47958 0.02464 0.042 0.0
C2765 C 0.44072 0.9926 0.03148 0.0
C2766 C 0.46571 0.04334 0.04764 0.0
C2767 C 0.43907 0.03686 0.04395 0.0
H2768 H 0.815 0.57133 0.82009 0.0
H2769 H 0.8914 0.61807 0.84294 0.0
H2770 H 0.87844 0.65138 0.82038 0.0
H2771 H 0.84857 0.66223 0.78508 0.0
H2772 H 0.77476 0.61209 0.75694 0.0
H2773 H 0.78353 0.58456 0.78995 0.0
C2774 C 0.82852 0.58919 0.82093 0.0
C2775 C 0.85423 0.59198 0.83211 0.0
C2776 C 0.82164 0.60708 0.80588 0.0
C2777 C 0.8715 0.61539 0.83399 0.0
C2778 C 0.86426 0.63423 0.82062 0.0
C2779 C 0.83449 0.64531 0.78649 0.0
C2780 C 0.81147 0.63843 0.76849 0.0
C2781 C 0.84 0.6294 0.80488 0.0
C2782 C 0.7929 0.61698 0.77035 0.0
C2783 C 0.79779 0.60154 0.78932 0.0
H2784 H 0.8172 0.60494 0.01083 0.0
H2785 H 0.85271 0.68402 0.03416 0.0
H2786 H 0.89484 0.6736 0.04343 0.0
H2787 H 0.91908 0.64142 0.05423 0.0
H2788 H 0.88326 0.56243 0.0316 0.0
H2789 H 0.84378 0.57326 0.0119 0.0
C2790 C 0.83431 0.61988 0.01726 0.0
C2791 C 0.83197 0.64509 0.02251 0.0
C2792 C 0.85828 0.61371 0.02282 0.0
C2793 C 0.85416 0.66444 0.03024 0.0
C2794 C 0.87817 0.65848 0.03571 0.0
C2795 C 0.90287 0.6267 0.04407 0.0
C2796 C 0.90365 0.60125 0.04461 0.0
C2797 C 0.88016 0.63311 0.03345 0.0
C2798 C 0.88286 0.58214 0.03136 0.0
C2799 C 0.86026 0.58834 0.02039 0.0
H2800 H 0.21082 0.13291 0.7867 0.0
H2801 H 0.15631 0.16956 0.82305 0.0
H2802 H 0.1854 0.21079 0.82593 0.0
H2803 H 0.22575 0.23661 0.81673 0.0
H2804 H 0.27675 0.19997 0.77381 0.0
H2805 H 0.25019 0.15886 0.77561 0.0
C2806 C 0.20548 0.14991 0.79555 0.0
C2807 C 0.18157 0.14816 0.80494 0.0
C2808 C 0.22188 0.17365 0.79623 0.0
C2809 C 0.17465 0.1704 0.81578 0.0
C2810 C 0.19128 0.19399 0.81744 0.0
C2811 C 0.23124 0.21965 0.80803 0.0
C2812 C 0.25398 0.22163 0.79619 0.0
C2813 C 0.21489 0.19589 0.80754 0.0
C2814 C 0.26022 0.1993 0.78433 0.0
C2815 C 0.24471 0.17561 0.78489 0.0
H2816 H 0.38267 0.92685 0.29955 0.0
H2817 H 0.31614 0.95727 0.27868 0.0
H2818 H 0.28848 0.91456 0.2716 0.0
H2819 H 0.28364 0.86946 0.2749 0.0
H2820 H 0.35016 0.84096 0.30083 0.0
H2821 H 0.3781 0.88221 0.30166 0.0
C2822 C 0.36215 0.92397 0.29291 0.0
C2823 C 0.3512 0.94457 0.28894 0.0
C2824 C 0.34675 0.89989 0.28949 0.0
C2825 C 0.32465 0.94126 0.28151 0.0
C2826 C 0.30903 0.91703 0.2774 0.0
C2827 C 0.30438 0.87233 0.27966 0.0
C2828 C 0.3153 0.85252 0.28668 0.0
C2829 C 0.31993 0.8963 0.28154 0.0
C2830 C 0.34184 0.85597 0.29405 0.0
C2831 C 0.35764 0.87957 0.29507 0.0
H2832 H 0.60397 0.40242 0.57297 0.0
H2833 H 0.52501 0.37063 0.57914 0.0
H2834 H 0.51242 0.40869 0.56623 0.0
H2835 H 0.52371 0.45234 0.55415 0.0
H2836 H 0.6034 0.48552 0.5522 0.0
H2837 H 0.61539 0.44665 0.56261 0.0
C2838 C 0.58395 0.40365 0.57127 0.0
C2839 C 0.5655 0.38294 0.57678 0.0
C2840 C 0.57682 0.42641 0.5647 0.0
C2841 C 0.53978 0.38575 0.57496 0.0
C2842 C 0.53251 0.40775 0.56757 0.0
C2843 C 0.54371 0.45117 0.55575 0.0
C2844 C 0.56242 0.47254 0.55189 0.0
C2845 C 0.55081 0.42844 0.56249 0.0
C2846 C 0.58827 0.46997 0.55476 0.0
C2847 C 0.59526 0.44745 0.56075 0.0
H2848 H 0.40966 0.76851 0.41116 0.0
H2849 H 0.4592 0.7865 0.35128 0.0
H2850 H 0.42312 0.79042 0.32017 0.0
H2851 H 0.37825 0.79254 0.31038 0.0
H2852 H 0.32603 0.76993 0.36605 0.0
H2853 H 0.36186 0.76457 0.3978 0.0
C2854 C 0.41247 0.77271 0.39114 0.0
C2855 C 0.4377 0.77766 0.38422 0.0
C2856 C 0.39101 0.77466 0.37238 0.0
C2857 C 0.44044 0.78305 0.35785 0.0
C2858 C 0.41967 0.78537 0.33975 0.0
C2859 C 0.37431 0.78574 0.32896 0.0
C2860 C 0.34904 0.78177 0.33526 0.0
C2861 C 0.39495 0.78182 0.3469 0.0
C2862 C 0.34511 0.77354 0.36028 0.0
C2863 C 0.36574 0.77033 0.37863 0.0
H2864 H 0.06199 0.70911 0.05064 0.0
H2865 H 0.08317 0.70575 0.1354 0.0
H2866 H 0.07717 0.66082 0.12605 0.0
H2867 H 0.06555 0.62068 0.09511 0.0
H2868 H 0.04721 0.62116 0.00996 0.0
H2869 H 0.052 0.66734 0.01821 0.0
C2870 C 0.06529 0.69866 0.0671 0.0
C2871 C 0.0729 0.71209 0.09399 0.0
C2872 C 0.06207 0.67148 0.06164 0.0
C2873 C 0.07711 0.69717 0.11449 0.0
C2874 C 0.07368 0.67087 0.10927 0.0
C2875 C 0.06248 0.63079 0.07828 0.0
C2876 C 0.05572 0.61697 0.05193 0.0
C2877 C 0.06603 0.65764 0.0831 0.0
C2878 C 0.05242 0.63096 0.03053 0.0
C2879 C 0.05516 0.6576 0.03529 0.0
H2880 H 0.10684 0.28527 0.94166 0.0
H2881 H 0.04543 0.26971 0.87436 0.0
H2882 H 0.0765 0.27641 0.84318 0.0
H2883 H 0.1207 0.29132 0.83507 0.0
H2884 H 0.18281 0.30779 0.90116 0.0
H2885 H 0.15225 0.29549 0.93245 0.0
C2886 C 0.10032 0.28318 0.92017 0.0
C2887 C 0.0737 0.27742 0.91057 0.0
C2888 C 0.11849 0.28705 0.90198 0.0
C2889 C 0.06568 0.27444 0.88253 0.0
C2890 C 0.08347 0.2782 0.86454 0.0
C2891 C 0.12758 0.29137 0.85619 0.0
C2892 C 0.15392 0.30017 0.8658 0.0
C2893 C 0.10985 0.28505 0.87404 0.0
C2894 C 0.16264 0.30063 0.89325 0.0
C2895 C 0.1451 0.29397 0.91119 0.0
H2896 H 0.54208 0.72884 0.88181 0.0
H2897 H 0.57601 0.78398 0.95232 0.0
H2898 H 0.57072 0.75099 0.98084 0.0
H2899 H 0.5514 0.70743 0.98665 0.0
H2900 H 0.51674 0.65236 0.91671 0.0
H2901 H 0.52784 0.68398 0.88711 0.0
C2902 C 0.54857 0.7336 0.90337 0.0
C2903 C 0.55905 0.75902 0.91488 0.0
C2904 C 0.54545 0.71442 0.91981 0.0
C2905 C 0.56761 0.7647 0.94286 0.0
C2906 C 0.56463 0.7458 0.95926 0.0
C2907 C 0.54727 0.70218 0.96486 0.0
C2908 C 0.53373 0.67753 0.9538 0.0
C2909 C 0.55299 0.72071 0.94808 0.0
C2910 C 0.52773 0.67106 0.92559 0.0
C2911 C 0.53371 0.68927 0.90872 0.0
H2912 H 0.12866 0.7701 0.70412 0.0
H2913 H 0.10715 0.7649 0.78327 0.0
H2914 H 0.15246 0.7684 0.8018 0.0
H2915 H 0.19944 0.7735 0.79551 0.0
H2916 H 0.21887 0.77889 0.71537 0.0
H2917 H 0.17391 0.77447 0.69776 0.0
C2918 C 0.13368 0.76975 0.7255 0.0
C2919 C 0.11393 0.76726 0.74208 0.0
C2920 C 0.15991 0.77168 0.73604 0.0
C2921 C 0.12148 0.76679 0.76975 0.0
C2922 C 0.14761 0.76877 0.78041 0.0
C2923 C 0.19382 0.77349 0.77417 0.0
C2924 C 0.21321 0.7767 0.757 0.0
C2925 C 0.1672 0.77121 0.76378 0.0
C2926 C 0.205 0.77674 0.7294 0.0
C2927 C 0.17901 0.77419 0.71913 0.0
H2928 H 0.07474 0.39792 0.44705 0.0
H2929 H 0.03713 0.41928 0.37605 0.0
H2930 H 0.02791 0.45551 0.40353 0.0
H2931 H 0.0291 0.48075 0.44801 0.0
H2932 H 0.0717 0.46368 0.51825 0.0
H2933 H 0.07923 0.42607 0.49148 0.0
C2934 C 0.06468 0.41058 0.43754 0.0
C2935 C 0.05678 0.40555 0.40918 0.0
C2936 C 0.05995 0.43221 0.45358 0.0
C2937 C 0.04377 0.42248 0.39757 0.0
C2938 C 0.03832 0.4433 0.41339 0.0
C2939 C 0.04097 0.46969 0.45743 0.0
C2940 C 0.05003 0.47588 0.48547 0.0
C2941 C 0.04633 0.44849 0.44143 0.0
C2942 C 0.06392 0.45956 0.49705 0.0
C2943 C 0.06855 0.43802 0.48155 0.0
H2944 H 0.4535 0.29505 0.24392 0.0
H2945 H 0.43285 0.21372 0.2335 0.0
H2946 H 0.38917 0.21525 0.24194 0.0
H2947 H 0.35602 0.23953 0.25352 0.0
H2948 H 0.3775 0.32082 0.26694 0.0
H2949 H 0.42059 0.3194 0.25674 0.0
C2950 C 0.4395 0.27762 0.24347 0.0
C2951 C 0.44705 0.25421 0.23791 0.0
C2952 C 0.41408 0.2786 0.24924 0.0
C2953 C 0.42817 0.23205 0.23779 0.0
C2954 C 0.40291 0.23289 0.24262 0.0
C2955 C 0.37005 0.25698 0.25413 0.0
C2956 C 0.36297 0.28037 0.26141 0.0
C2957 C 0.3955 0.25603 0.24854 0.0
C2958 C 0.38197 0.30254 0.26206 0.0
C2959 C 0.40687 0.30173 0.25596 0.0
H2960 H 0.62182 0.54265 0.38915 0.0
H2961 H 0.55718 0.57367 0.36168 0.0
H2962 H 0.53955 0.56766 0.40311 0.0
H2963 H 0.54261 0.55541 0.44793 0.0
H2964 H 0.60611 0.52389 0.47696 0.0
H2965 H 0.624 0.52864 0.43471 0.0
C2966 C 0.60383 0.54797 0.39217 0.0
C2967 C 0.59106 0.55875 0.37195 0.0
C2968 C 0.59349 0.54448 0.41653 0.0
C2969 C 0.56773 0.5655 0.37658 0.0
C2970 C 0.55748 0.56205 0.40042 0.0
C2971 C 0.56 0.54887 0.44487 0.0
C2972 C 0.57255 0.53868 0.46557 0.0
C2973 C 0.57018 0.5517 0.42058 0.0
C2974 C 0.59575 0.53147 0.46137 0.0
C2975 C 0.60605 0.53426 0.43716 0.0
H2976 H 0.32266 0.93043 0.09218 0.0
H2977 H 0.27614 0.86295 0.04243 0.0
H2978 H 0.2835 0.83844 0.07872 0.0
H2979 H 0.30835 0.83516 0.12183 0.0
H2980 H 0.35629 0.90212 0.17058 0.0
H2981 H 0.34314 0.92808 0.13753 0.0
C2982 C 0.31377 0.91045 0.08943 0.0
C2983 C 0.29926 0.89839 0.06452 0.0
C2984 C 0.31867 0.89638 0.11004 0.0
C2985 C 0.28769 0.87256 0.06131 0.0
C2986 C 0.29194 0.85853 0.082 0.0
C2987 C 0.31554 0.8555 0.12521 0.0
C2988 C 0.33349 0.86691 0.14802 0.0
C2989 C 0.30823 0.87005 0.10598 0.0
C2990 C 0.34262 0.89317 0.15281 0.0
C2991 C 0.33515 0.9079 0.13396 0.0
H2992 H 0.97024 0.53479 0.87773 0.0
H2993 H 0.90294 0.50329 0.91168 0.0
H2994 H 0.92605 0.52015 0.9576 0.0
H2995 H 0.96709 0.53899 0.98658 0.0
H2996 H 0.03392 0.56864 0.95147 0.0
H2997 H 0.00865 0.55901 0.90651 0.0
C2998 C 0.96078 0.53135 0.89526 0.0
C2999 C 0.93581 0.51674 0.89208 0.0
C3000 C 0.9738 0.54118 0.92075 0.0
C3001 C 0.92276 0.51362 0.91434 0.0
C3002 C 0.93575 0.52351 0.94026 0.0
C3003 C 0.97606 0.54321 0.96902 0.0
C3004 C 1.00279 0.55145 0.97113 0.0
C3005 C 0.96155 0.53661 0.94356 0.0
C3006 C 0.01394 0.5594 0.94916 0.0
C3007 C 0.99942 0.55433 0.92381 0.0
H3008 H 0.25683 0.19446 0.62886 0.0
H3009 H 0.29468 0.25909 0.59642 0.0
H3010 H 0.30113 0.28492 0.6413 0.0
H3011 H 0.29683 0.28855 0.69065 0.0
H3012 H 0.26057 0.22236 0.72155 0.0
H3013 H 0.25221 0.19789 0.6763 0.0
C3014 C 0.26652 0.21421 0.63137 0.0
C3015 C 0.2753 0.22469 0.60908 0.0
C3016 C 0.27022 0.22876 0.65708 0.0
C3017 C 0.28769 0.25042 0.61308 0.0
C3018 C 0.29136 0.26521 0.63879 0.0
C3019 C 0.28686 0.26884 0.68725 0.0
C3020 C 0.27915 0.25722 0.70932 0.0
C3021 C 0.28276 0.25455 0.66104 0.0
C3022 C 0.26661 0.23164 0.70486 0.0
C3023 C 0.2619 0.21764 0.67901 0.0
H3024 H 0.58096 0.56769 0.21273 0.0
H3025 H 0.64097 0.52757 0.19994 0.0
H3026 H 0.62802 0.52184 0.15097 0.0
H3027 H 0.6007 0.52982 0.11139 0.0
H3028 H 0.54133 0.57094 0.12463 0.0
H3029 H 0.55342 0.57533 0.17318 0.0
C3030 C 0.59099 0.55747 0.19919 0.0
C3031 C 0.61181 0.54795 0.21001 0.0
C3032 C 0.58393 0.55492 0.1709 0.0
C3033 C 0.6249 0.53512 0.19215 0.0
C3034 C 0.61754 0.53189 0.1641 0.0
C3035 C 0.59039 0.53978 0.12484 0.0
C3036 C 0.57034 0.55044 0.11391 0.0
C3037 C 0.59729 0.54203 0.15315 0.0
C3038 C 0.5572 0.56302 0.13201 0.0
C3039 C 0.56394 0.56534 0.16002 0.0
H3040 H 0.27238 0.89465 0.90887 0.0
H3041 H 0.35485 0.9139 0.91348 0.0
H3042 H 0.35379 0.87437 0.88377 0.0
H3043 H 0.32893 0.83587 0.85562 0.0
H3044 H 0.2461 0.8206 0.84487 0.0
H3045 H 0.24743 0.85592 0.88065 0.0
C3046 C 0.28994 0.89025 0.90271 0.0
C3047 C 0.31354 0.90682 0.91208 0.0
C3048 C 0.28905 0.86782 0.88615 0.0
C3049 C 0.33652 0.90127 0.9053 0.0
C3050 C 0.33592 0.87864 0.88902 0.0
C3051 C 0.31127 0.84007 0.86172 0.0
C3052 C 0.28749 0.82661 0.84793 0.0
C3053 C 0.31228 0.86184 0.87947 0.0
C3054 C 0.2645 0.83147 0.85547 0.0
C3055 C 0.26531 0.85172 0.87536 0.0
H3056 H 0.90532 0.53478 0.72098 0.0
H3057 H 0.96905 0.54011 0.78372 0.0
H3058 H 0.99423 0.52539 0.75044 0.0
H3059 H 0.99602 0.50568 0.70456 0.0
H3060 H 0.93287 0.5004 0.6415 0.0
H3061 H 0.90968 0.52078 0.67377 0.0
C3062 C 0.9249 0.53325 0.72724 0.0
C3063 C 0.93508 0.53798 0.75474 0.0
C3064 C 0.93922 0.5244 0.70805 0.0
C3065 C 0.96063 0.53626 0.76263 0.0
C3066 C 0.97504 0.5277 0.74366 0.0
C3067 C 0.97717 0.50902 0.69801 0.0
C3068 C 0.96565 0.50087 0.67117 0.0
C3069 C 0.96411 0.52073 0.71653 0.0
C3070 C 0.94173 0.50611 0.66238 0.0
C3071 C 0.92854 0.51775 0.68074 0.0
H3072 H 0.29031 0.20116 0.41875 0.0
H3073 H 0.27285 0.26804 0.46094 0.0
H3074 H 0.27712 0.28876 0.42105 0.0
H3075 H 0.2837 0.28724 0.37375 0.0
H3076 H 0.30464 0.22204 0.33211 0.0
H3077 H 0.30008 0.20095 0.37189 0.0
C3078 C 0.28757 0.22032 0.41928 0.0
C3079 C 0.28115 0.23295 0.4429 0.0
C3080 C 0.29039 0.23233 0.39626 0.0
C3081 C 0.27775 0.2578 0.44314 0.0
C3082 C 0.28014 0.26967 0.42027 0.0
C3083 C 0.28826 0.26879 0.37351 0.0
C3084 C 0.29538 0.25668 0.35001 0.0
C3085 C 0.28632 0.25708 0.3967 0.0
C3086 C 0.29961 0.2321 0.34993 0.0
C3087 C 0.29698 0.22 0.37272 0.0
H3088 H 0.31588 0.55954 0.55986 0.0
H3089 H 0.36376 0.62521 0.61082 0.0
H3090 H 0.40034 0.61989 0.58733 0.0
H3091 H 0.41613 0.60023 0.54758 0.0
H3092 H 0.36509 0.53947 0.49219 0.0
H3093 H 0.33156 0.53971 0.52125 0.0
C3094 C 0.33472 0.57188 0.56659 0.0
C3095 C 0.33758 0.59226 0.58727 0.0
C3096 C 0.35444 0.57041 0.55113 0.0
C3097 C 0.3616 0.60893 0.59538 0.0
C3098 C 0.38219 0.60629 0.58149 0.0
C3099 C 0.39747 0.58738 0.54189 0.0
C3100 C 0.39247 0.57034 0.51771 0.0
C3101 C 0.37835 0.58789 0.55846 0.0
C3102 C 0.36872 0.55323 0.51043 0.0
C3103 C 0.34986 0.55307 0.52721 0.0
H3104 H 0.88528 0.97048 0.51718 0.0
H3105 H 0.90688 0.9284 0.57965 0.0
H3106 H 0.95201 0.95098 0.58287 0.0
H3107 H 0.98513 0.98369 0.56799 0.0
H3108 H 0.96104 0.02355 0.50424 0.0
H3109 H 0.91704 1.00079 0.50172 0.0
C3110 C 0.89968 0.96614 0.5317 0.0
C3111 C 0.89252 0.94791 0.54836 0.0
C3112 C 0.92523 0.97892 0.53327 0.0
C3113 C 0.91176 0.94246 0.56667 0.0
C3114 C 0.93756 0.95537 0.56849 0.0
C3115 C 0.97019 0.98731 0.55357 0.0
C3116 C 0.97644 1.00571 0.53668 0.0
C3117 C 0.94452 0.9738 0.55192 0.0
C3118 C 0.95689 0.00996 0.5179 0.0
C3119 C 0.93163 0.99684 0.5163 0.0
H3120 H 0.92766 0.11 0.30032 0.0
H3121 H 0.87037 0.06802 0.23453 0.0
H3122 H 0.84414 0.09941 0.24124 0.0
H3123 H 0.8348 0.13554 0.26982 0.0
H3124 H 0.89015 0.17504 0.33817 0.0
H3125 H 0.92004 0.14825 0.32637 0.0
C3126 C 0.90963 0.10796 0.2872 0.0
C3127 C 0.90077 0.08658 0.26724 0.0
C3128 C 0.89421 0.12556 0.29185 0.0
C3129 C 0.8774 0.08416 0.25032 0.0
C3130 C 0.86239 0.10208 0.25414 0.0
C3131 C 0.85361 0.13844 0.28175 0.0
C3132 C 0.86037 0.15691 0.30485 0.0
C3133 C 0.87016 0.12234 0.27546 0.0
C3134 C 0.88465 0.16069 0.32038 0.0
C3135 C 0.90164 0.14538 0.31369 0.0
H3136 H 0.69574 0.07872 0.02948 0.0
H3137 H 0.68348 0.15019 0.06647 0.0
H3138 H 0.63692 0.13399 0.0565 0.0
H3139 H 0.60127 0.09682 0.04651 0.0
H3140 H 0.61452 0.02474 0.01359 0.0
H3141 H 0.6595 0.04396 0.01206 0.0
C3142 C 0.68288 0.09087 0.03506 0.0
C3143 C 0.69272 0.11519 0.04943 0.0
C3144 C 0.65651 0.08134 0.02982 0.0
C3145 C 0.67608 0.13111 0.0559 0.0
C3146 C 0.64958 0.12193 0.05016 0.0
C3147 C 0.61386 0.0858 0.03776 0.0
C3148 C 0.60525 0.05978 0.02992 0.0
C3149 C 0.63972 0.09671 0.03835 0.0
C3150 C 0.62125 0.04501 0.01927 0.0
C3151 C 0.64685 0.0559 0.01874 0.0
H3152 H 0.19921 0.47387 0.25491 0.0
H3153 H 0.27404 0.50758 0.23667 0.0
H3154 H 0.29113 0.47257 0.25185 0.0
H3155 H 0.28763 0.44191 0.28367 0.0
H3156 H 0.21516 0.41633 0.31137 0.0
H3157 H 0.19402 0.43917 0.28003 0.0
C3158 C 0.21927 0.47351 0.25402 0.0
C3159 C 0.23603 0.49395 0.24681 0.0
C3160 C 0.22934 0.4553 0.26546 0.0
C3161 C 0.26132 0.4925 0.24371 0.0
C3162 C 0.27102 0.47267 0.25247 0.0
C3163 C 0.26716 0.44129 0.28241 0.0
C3164 C 0.25282 0.42881 0.30011 0.0
C3165 C 0.25579 0.45555 0.26576 0.0
C3166 C 0.22631 0.42691 0.2983 0.0
C3167 C 0.21436 0.43963 0.28032 0.0
H3168 H 0.26815 0.45949 0.04156 0.0
H3169 H 0.21687 0.39998 0.06958 0.0
H3170 H 0.18066 0.41972 0.05798 0.0
H3171 H 0.16286 0.45074 0.0341 0.0
H3172 H 0.214 0.5068 0.0015 0.0
H3173 H 0.25105 0.49152 0.02032 0.0
C3174 C 0.2491 0.45087 0.04534 0.0
C3175 C 0.2451 0.42809 0.05609 0.0
C3176 C 0.22835 0.46169 0.03754 0.0
C3177 C 0.22032 0.41733 0.06099 0.0
C3178 C 0.19966 0.42861 0.05435 0.0
C3179 C 0.18224 0.46004 0.032 0.0
C3180 C 0.18593 0.48014 0.01701 0.0
C3181 C 0.20331 0.45037 0.04185 0.0
C3182 C 0.21093 0.49168 0.01354 0.0
C3183 C 0.23203 0.48277 0.02404 0.0
H3184 H 0.90262 0.9132 0.24254 0.0
H3185 H 0.8666 0.96404 0.28938 0.0
H3186 H 0.83317 0.92821 0.29565 0.0
H3187 H 0.81582 0.88157 0.29012 0.0
H3188 H 0.85193 0.83237 0.24072 0.0
H3189 H 0.88363 0.86823 0.23378 0.0
C3190 C 0.8874 0.91658 0.25401 0.0
C3191 C 0.88736 0.94133 0.26564 0.0
C3192 C 0.86823 0.896 0.25737 0.0
C3193 C 0.86723 0.9452 0.28021 0.0
C3194 C 0.84811 0.92467 0.28388 0.0
C3195 C 0.8302 0.87875 0.2773 0.0
C3196 C 0.83123 0.85401 0.26609 0.0
C3197 C 0.84856 0.89984 0.27282 0.0
C3198 C 0.85046 0.85094 0.24988 0.0
C3199 C 0.86878 0.87154 0.24579 0.0
H3200 H 0.75124 0.134 0.75307 0.0
H3201 H 0.68441 0.14881 0.78662 0.0
H3202 H 0.70568 0.19348 0.80018 0.0
H3203 H 0.74008 0.22839 0.79538 0.0
H3204 H 0.80661 0.21342 0.76085 0.0
H3205 H 0.78815 0.16839 0.75379 0.0
C3206 C 0.74168 0.14702 0.76389 0.0
C3207 C 0.71656 0.13874 0.76888 0.0
C3208 C 0.75361 0.17242 0.77076 0.0
C3209 C 0.70382 0.15535 0.78247 0.0
C3210 C 0.7159 0.18067 0.79016 0.0
C3211 C 0.75107 0.21529 0.7875 0.0
C3212 C 0.7745 0.22418 0.77868 0.0
C3213 C 0.74041 0.1895 0.7835 0.0
C3214 C 0.78834 0.20699 0.76774 0.0
C3215 C 0.77785 0.18124 0.76363 0.0
loop_
_geom_bond_atom_site_label_1
_geom_bond_atom_site_label_2
_geom_bond_distance
_geom_bond_site_symmetry_2
_ccdc_geom_bond_type
C0 O1 1.306 1_655 S
C0 O3 1.160 1_655 S
O1 C0 1.306 1_455 S
O1 Cd2 2.228 . S
Cd2 O1 2.228 . S
Cd2 O6 2.273 . S
Cd2 O10 2.277 . S
O3 C0 1.160 1_455 S
O3 Cd4 2.203 . S
Cd4 O3 2.203 . S
Cd4 O6 2.411 . S
Cd4 O7 2.333 . S
Cd4 O8 2.352 . S
Cd4 O12 2.277 . S
Cd4 O13 2.356 . S
C5 O10 1.209 . S
C5 O12 1.226 . S
O6 Cd2 2.273 . S
O6 Cd4 2.411 . S
O6 C9 1.320 . S
O7 Cd4 2.333 . S
O7 C9 1.214 . S
O8 Cd4 2.352 . S
O8 C11 1.258 . S
C9 O6 1.320 . S
C9 O7 1.214 . S
O10 Cd2 2.277 . S
O10 C5 1.209 . S
C11 O8 1.258 . S
C11 O13 1.282 . S
O12 Cd4 2.277 . S
O12 C5 1.226 . S
O13 Cd4 2.356 . S
O13 C11 1.282 . S
C14 O15 1.306 . S
C14 O17 1.160 . S
O15 C14 1.306 . S
O15 Cd16 2.228 1_655 S
Cd16 O15 2.228 1_455 S
Cd16 O20 2.273 . S
Cd16 O24 2.277 . S
O17 C14 1.160 . S
O17 Cd18 2.203 1_655 S
Cd18 O17 2.203 1_455 S
Cd18 O20 2.411 . S
Cd18 O21 2.333 . S
Cd18 O22 2.352 . S
Cd18 O26 2.277 . S
Cd18 O27 2.356 . S
C19 O24 1.209 . S
C19 O26 1.226 . S
O20 Cd16 2.273 . S
O20 Cd18 2.411 . S
O20 C23 1.320 . S
O21 Cd18 2.333 . S
O21 C23 1.214 . S
O22 Cd18 2.352 . S
O22 C25 1.258 . S
C23 O20 1.320 . S
C23 O21 1.214 . S
O24 Cd16 2.277 . S
O24 C19 1.209 . S
C25 O22 1.258 . S
C25 O27 1.282 . S
O26 Cd18 2.277 . S
O26 C19 1.226 . S
O27 Cd18 2.356 . S
O27 C25 1.282 . S
C28 O29 1.306 . S
C28 O31 1.160 . S
O29 C28 1.306 . S
O29 Cd30 2.228 . S
Cd30 O29 2.228 . S
Cd30 O34 2.273 . S
Cd30 O38 2.277 . S
O31 C28 1.160 . S
O31 Cd32 2.203 . S
Cd32 O31 2.203 . S
Cd32 O34 2.411 . S
Cd32 O35 2.333 . S
Cd32 O36 2.352 . S
Cd32 O40 2.277 . S
Cd32 O41 2.356 . S
C33 O38 1.209 . S
C33 O40 1.226 . S
O34 Cd30 2.273 . S
O34 Cd32 2.411 . S
O34 C37 1.320 . S
O35 Cd32 2.333 . S
O35 C37 1.214 . S
O36 Cd32 2.352 . S
O36 C39 1.258 . S
C37 O34 1.320 . S
C37 O35 1.214 . S
O38 Cd30 2.277 . S
O38 C33 1.209 . S
C39 O36 1.258 . S
C39 O41 1.282 . S
O40 Cd32 2.277 . S
O40 C33 1.226 . S
O41 Cd32 2.356 . S
O41 C39 1.282 . S
C42 O43 1.306 . S
C42 O45 1.160 . S
O43 C42 1.306 . S
O43 Cd44 2.228 . S
Cd44 O43 2.228 . S
Cd44 O48 2.273 . S
Cd44 O52 2.277 . S
O45 C42 1.160 . S
O45 Cd46 2.203 . S
Cd46 O45 2.203 . S
Cd46 O48 2.411 . S
Cd46 O49 2.333 . S
Cd46 O50 2.352 . S
Cd46 O54 2.277 . S
Cd46 O55 2.356 . S
C47 O52 1.209 . S
C47 O54 1.226 . S
O48 Cd44 2.273 . S
O48 Cd46 2.411 . S
O48 C51 1.320 . S
O49 Cd46 2.333 . S
O49 C51 1.214 . S
O50 Cd46 2.352 . S
O50 C53 1.258 . S
C51 O48 1.320 . S
C51 O49 1.214 . S
O52 Cd44 2.277 . S
O52 C47 1.209 . S
C53 O50 1.258 . S
C53 O55 1.282 . S
O54 Cd46 2.277 . S
O54 C47 1.226 . S
O55 Cd46 2.356 . S
O55 C53 1.282 . S
C56 O57 1.306 . S
C56 O59 1.160 . S
O57 C56 1.306 . S
O57 Cd58 2.228 . S
Cd58 O57 2.228 . S
Cd58 O62 2.273 . S
Cd58 O66 2.277 . S
O59 C56 1.160 . S
O59 Cd60 2.203 . S
Cd60 O59 2.203 . S
Cd60 O62 2.411 . S
Cd60 O63 2.333 . S
Cd60 O64 2.352 . S
Cd60 O68 2.277 . S
Cd60 O69 2.356 . S
C61 O66 1.209 . S
C61 O68 1.226 . S
O62 Cd58 2.273 . S
O62 Cd60 2.411 . S
O62 C65 1.320 . S
O63 Cd60 2.333 . S
O63 C65 1.214 . S
O64 Cd60 2.352 . S
O64 C67 1.258 . S
C65 O62 1.320 . S
C65 O63 1.214 . S
O66 Cd58 2.277 . S
O66 C61 1.209 . S
C67 O64 1.258 . S
C67 O69 1.282 . S
O68 Cd60 2.277 . S
O68 C61 1.226 . S
O69 Cd60 2.356 . S
O69 C67 1.282 . S
C70 O71 1.306 . S
C70 O73 1.160 . S
O71 C70 1.306 . S
O71 Cd72 2.228 . S
Cd72 O71 2.228 . S
Cd72 O76 2.273 . S
Cd72 O80 2.277 . S
O73 C70 1.160 . S
O73 Cd74 2.203 . S
Cd74 O73 2.203 . S
Cd74 O76 2.411 . S
Cd74 O77 2.333 . S
Cd74 O78 2.352 . S
Cd74 O82 2.277 . S
Cd74 O83 2.356 . S
C75 O80 1.209 . S
C75 O82 1.226 . S
O76 Cd72 2.273 . S
O76 Cd74 2.411 . S
O76 C79 1.320 . S
O77 Cd74 2.333 . S
O77 C79 1.214 . S
O78 Cd74 2.352 . S
O78 C81 1.258 . S
C79 O76 1.320 . S
C79 O77 1.214 . S
O80 Cd72 2.277 . S
O80 C75 1.209 . S
C81 O78 1.258 . S
C81 O83 1.282 . S
O82 Cd74 2.277 . S
O82 C75 1.226 . S
O83 Cd74 2.356 . S
O83 C81 1.282 . S
C84 O85 1.306 . S
C84 O87 1.160 . S
O85 C84 1.306 . S
O85 Cd86 2.228 . S
Cd86 O85 2.228 . S
Cd86 O90 2.273 . S
Cd86 O94 2.277 . S
O87 C84 1.160 . S
O87 Cd88 2.203 . S
Cd88 O87 2.203 . S
Cd88 O90 2.411 . S
Cd88 O91 2.333 . S
Cd88 O92 2.352 . S
Cd88 O96 2.277 . S
Cd88 O97 2.356 . S
C89 O94 1.209 . S
C89 O96 1.226 . S
O90 Cd86 2.273 . S
O90 Cd88 2.411 . S
O90 C93 1.320 . S
O91 Cd88 2.333 . S
O91 C93 1.214 . S
O92 Cd88 2.352 . S
O92 C95 1.258 . S
C93 O90 1.320 . S
C93 O91 1.214 . S
O94 Cd86 2.277 . S
O94 C89 1.209 . S
C95 O92 1.258 . S
C95 O97 1.282 . S
O96 Cd88 2.277 . S
O96 C89 1.226 . S
O97 Cd88 2.356 . S
O97 C95 1.282 . S
C98 O99 1.306 . S
C98 O101 1.160 . S
O99 C98 1.306 . S
O99 Cd100 2.228 1_655 S
Cd100 O99 2.228 1_455 S
Cd100 O104 2.273 . S
Cd100 O108 2.277 . S
O101 C98 1.160 . S
O101 Cd102 2.203 1_655 S
Cd102 O101 2.203 1_455 S
Cd102 O104 2.411 . S
Cd102 O105 2.333 . S
Cd102 O106 2.352 1_455 S
Cd102 O110 2.277 . S
Cd102 O111 2.356 . S
C103 O108 1.209 . S
C103 O110 1.226 . S
O104 Cd100 2.273 . S
O104 Cd102 2.411 . S
O104 C107 1.320 . S
O105 Cd102 2.333 . S
O105 C107 1.214 . S
O106 Cd102 2.352 1_655 S
O106 C109 1.259 . S
C107 O104 1.320 . S
C107 O105 1.214 . S
O108 Cd100 2.277 . S
O108 C103 1.209 . S
C109 O106 1.259 . S
C109 O111 1.282 1_655 S
O110 Cd102 2.277 . S
O110 C103 1.226 . S
O111 Cd102 2.356 . S
O111 C109 1.282 1_455 S
C112 O113 1.307 . S
C112 O115 1.160 . S
O113 C112 1.307 . S
O113 Cd114 2.227 1_545 S
Cd114 O113 2.227 1_565 S
Cd114 O118 2.273 1_565 S
Cd114 O122 2.277 . S
O115 C112 1.160 . S
O115 Cd116 2.203 . S
Cd116 O115 2.203 . S
Cd116 O118 2.411 . S
Cd116 O119 2.333 . S
Cd116 O120 2.352 . S
Cd116 O124 2.277 1_545 S
Cd116 O125 2.356 . S
C117 O122 1.209 . S
C117 O124 1.226 . S
O118 Cd114 2.273 1_545 S
O118 Cd116 2.411 . S
O118 C121 1.320 . S
O119 Cd116 2.333 . S
O119 C121 1.214 . S
O120 Cd116 2.352 . S
O120 C123 1.258 . S
C121 O118 1.320 . S
C121 O119 1.214 . S
O122 Cd114 2.277 . S
O122 C117 1.209 . S
C123 O120 1.258 . S
C123 O125 1.282 . S
O124 Cd116 2.277 1_565 S
O124 C117 1.226 . S
O125 Cd116 2.356 . S
O125 C123 1.282 . S
C126 O127 1.306 . S
C126 O129 1.160 . S
O127 C126 1.306 . S
O127 Cd128 2.228 . S
Cd128 O127 2.228 . S
Cd128 O132 2.273 . S
Cd128 O136 2.277 . S
O129 C126 1.160 . S
O129 Cd130 2.203 . S
Cd130 O129 2.203 . S
Cd130 O132 2.411 . S
Cd130 O133 2.333 . S
Cd130 O134 2.352 . S
Cd130 O138 2.277 . S
Cd130 O139 2.356 . S
C131 O136 1.209 . S
C131 O138 1.226 . S
O132 Cd128 2.273 . S
O132 Cd130 2.411 . S
O132 C135 1.320 . S
O133 Cd130 2.333 . S
O133 C135 1.214 . S
O134 Cd130 2.352 . S
O134 C137 1.258 . S
C135 O132 1.320 . S
C135 O133 1.214 . S
O136 Cd128 2.277 . S
O136 C131 1.209 . S
C137 O134 1.258 . S
C137 O139 1.282 . S
O138 Cd130 2.277 . S
O138 C131 1.226 . S
O139 Cd130 2.356 . S
O139 C137 1.282 . S
C140 O141 1.306 . S
C140 O143 1.160 . S
O141 C140 1.306 . S
O141 Cd142 2.228 . S
Cd142 O141 2.228 . S
Cd142 O146 2.273 . S
Cd142 O150 2.277 . S
O143 C140 1.160 . S
O143 Cd144 2.203 . S
Cd144 O143 2.203 . S
Cd144 O146 2.411 . S
Cd144 O147 2.333 . S
Cd144 O148 2.352 . S
Cd144 O152 2.277 . S
Cd144 O153 2.356 . S
C145 O150 1.209 . S
C145 O152 1.226 . S
O146 Cd142 2.273 . S
O146 Cd144 2.411 . S
O146 C149 1.320 . S
O147 Cd144 2.333 . S
O147 C149 1.214 . S
O148 Cd144 2.352 . S
O148 C151 1.258 . S
C149 O146 1.320 . S
C149 O147 1.214 . S
O150 Cd142 2.277 . S
O150 C145 1.209 . S
C151 O148 1.258 . S
C151 O153 1.282 . S
O152 Cd144 2.277 . S
O152 C145 1.226 . S
O153 Cd144 2.356 . S
O153 C151 1.282 . S
C154 O155 1.306 1_554 S
C154 O157 1.160 . S
O155 C154 1.306 1_556 S
O155 Cd156 2.228 . S
Cd156 O155 2.228 . S
Cd156 O160 2.275 . S
Cd156 O164 2.277 . S
O157 C154 1.160 . S
O157 Cd158 2.203 . S
Cd158 O157 2.203 . S
Cd158 O160 2.411 1_554 S
Cd158 O161 2.332 . S
Cd158 O162 2.352 . S
Cd158 O166 2.277 1_554 S
Cd158 O167 2.356 . S
C159 O164 1.209 . S
C159 O166 1.226 . S
O160 Cd156 2.275 . S
O160 Cd158 2.411 1_556 S
O160 C163 1.325 . S
O161 Cd158 2.332 . S
O161 C163 1.204 1_554 S
O162 Cd158 2.352 . S
O162 C165 1.258 . S
C163 O160 1.325 . S
C163 O161 1.204 1_556 S
O164 Cd156 2.277 . S
O164 C159 1.209 . S
C165 O162 1.258 . S
C165 O167 1.282 . S
O166 Cd158 2.277 1_556 S
O166 C159 1.226 . S
O167 Cd158 2.356 . S
O167 C165 1.282 . S
C168 O169 1.306 . S
C168 O171 1.160 . S
O169 C168 1.306 . S
O169 Cd170 2.228 . S
Cd170 O169 2.228 . S
Cd170 O174 2.273 . S
Cd170 O178 2.276 1_554 S
O171 C168 1.160 . S
O171 Cd172 2.203 . S
Cd172 O171 2.203 . S
Cd172 O174 2.411 . S
Cd172 O175 2.333 . S
Cd172 O176 2.352 . S
Cd172 O180 2.277 . S
Cd172 O181 2.356 . S
C173 O178 1.209 . S
C173 O180 1.226 1_556 S
O174 Cd170 2.273 . S
O174 Cd172 2.411 . S
O174 C177 1.320 . S
O175 Cd172 2.333 . S
O175 C177 1.214 . S
O176 Cd172 2.352 . S
O176 C179 1.258 . S
C177 O174 1.320 . S
C177 O175 1.214 . S
O178 Cd170 2.276 1_556 S
O178 C173 1.209 . S
C179 O176 1.258 . S
C179 O181 1.282 . S
O180 Cd172 2.277 . S
O180 C173 1.226 1_554 S
O181 Cd172 2.356 . S
O181 C179 1.282 . S
C182 O183 1.306 . S
C182 O185 1.160 . S
O183 C182 1.306 . S
O183 Cd184 2.228 . S
Cd184 O183 2.228 . S
Cd184 O188 2.273 . S
Cd184 O192 2.277 . S
O185 C182 1.160 . S
O185 Cd186 2.203 . S
Cd186 O185 2.203 . S
Cd186 O188 2.411 . S
Cd186 O189 2.333 . S
Cd186 O190 2.352 . S
Cd186 O194 2.277 . S
Cd186 O195 2.356 . S
C187 O192 1.209 . S
C187 O194 1.226 . S
O188 Cd184 2.273 . S
O188 Cd186 2.411 . S
O188 C191 1.320 . S
O189 Cd186 2.333 . S
O189 C191 1.214 . S
O190 Cd186 2.352 . S
O190 C193 1.258 . S
C191 O188 1.320 . S
C191 O189 1.214 . S
O192 Cd184 2.277 . S
O192 C187 1.209 . S
C193 O190 1.258 . S
C193 O195 1.282 . S
O194 Cd186 2.277 . S
O194 C187 1.226 . S
O195 Cd186 2.356 . S
O195 C193 1.282 . S
C196 O197 1.306 . S
C196 O199 1.160 . S
O197 C196 1.306 . S
O197 Cd198 2.228 . S
Cd198 O197 2.228 . S
Cd198 O202 2.273 . S
Cd198 O206 2.277 . S
O199 C196 1.160 . S
O199 Cd200 2.203 . S
Cd200 O199 2.203 . S
Cd200 O202 2.411 . S
Cd200 O203 2.333 . S
Cd200 O204 2.352 . S
Cd200 O208 2.277 . S
Cd200 O209 2.356 . S
C201 O206 1.209 . S
C201 O208 1.226 . S
O202 Cd198 2.273 . S
O202 Cd200 2.411 . S
O202 C205 1.320 . S
O203 Cd200 2.333 . S
O203 C205 1.214 . S
O204 Cd200 2.352 . S
O204 C207 1.258 . S
C205 O202 1.320 . S
C205 O203 1.214 . S
O206 Cd198 2.277 . S
O206 C201 1.209 . S
C207 O204 1.258 . S
C207 O209 1.282 . S
O208 Cd200 2.277 . S
O208 C201 1.226 . S
O209 Cd200 2.356 . S
O209 C207 1.282 . S
C210 O211 1.306 . S
C210 O213 1.160 . S
O211 C210 1.306 . S
O211 Cd212 2.228 . S
Cd212 O211 2.228 . S
Cd212 O216 2.273 . S
Cd212 O220 2.277 . S
O213 C210 1.160 . S
O213 Cd214 2.203 . S
Cd214 O213 2.203 . S
Cd214 O216 2.411 . S
Cd214 O217 2.333 . S
Cd214 O218 2.352 . S
Cd214 O222 2.277 . S
Cd214 O223 2.356 . S
C215 O220 1.209 . S
C215 O222 1.226 . S
O216 Cd212 2.273 . S
O216 Cd214 2.411 . S
O216 C219 1.320 . S
O217 Cd214 2.333 . S
O217 C219 1.214 . S
O218 Cd214 2.352 . S
O218 C221 1.258 . S
C219 O216 1.320 . S
C219 O217 1.214 . S
O220 Cd212 2.277 . S
O220 C215 1.209 . S
C221 O218 1.258 . S
C221 O223 1.282 . S
O222 Cd214 2.277 . S
O222 C215 1.226 . S
O223 Cd214 2.356 . S
O223 C221 1.282 . S
C224 O225 1.306 . S
C224 O227 1.160 . S
O225 C224 1.306 . S
O225 Cd226 2.228 1_545 S
Cd226 O225 2.228 1_565 S
Cd226 O230 2.273 1_565 S
Cd226 O234 2.277 . S
O227 C224 1.160 . S
O227 Cd228 2.203 . S
Cd228 O227 2.203 . S
Cd228 O230 2.411 . S
Cd228 O231 2.333 . S
Cd228 O232 2.352 . S
Cd228 O236 2.277 1_545 S
Cd228 O237 2.356 . S
C229 O234 1.209 . S
C229 O236 1.226 . S
O230 Cd226 2.273 1_545 S
O230 Cd228 2.411 . S
O230 C233 1.320 . S
O231 Cd228 2.333 . S
O231 C233 1.214 . S
O232 Cd228 2.352 . S
O232 C235 1.258 . S
C233 O230 1.320 . S
C233 O231 1.214 . S
O234 Cd226 2.277 . S
O234 C229 1.209 . S
C235 O232 1.258 . S
C235 O237 1.282 . S
O236 Cd228 2.277 1_565 S
O236 C229 1.226 . S
O237 Cd228 2.356 . S
O237 C235 1.282 . S
C238 O239 1.306 . S
C238 O241 1.160 . S
O239 C238 1.306 . S
O239 Cd240 2.228 . S
Cd240 O239 2.228 . S
Cd240 O244 2.273 . S
Cd240 O248 2.277 . S
O241 C238 1.160 . S
O241 Cd242 2.203 . S
Cd242 O241 2.203 . S
Cd242 O244 2.411 . S
Cd242 O245 2.333 . S
Cd242 O246 2.352 . S
Cd242 O250 2.277 . S
Cd242 O251 2.356 . S
C243 O248 1.209 . S
C243 O250 1.226 . S
O244 Cd240 2.273 . S
O244 Cd242 2.411 . S
O244 C247 1.320 . S
O245 Cd242 2.333 . S
O245 C247 1.214 . S
O246 Cd242 2.352 . S
O246 C249 1.258 . S
C247 O244 1.320 . S
C247 O245 1.214 . S
O248 Cd240 2.277 . S
O248 C243 1.209 . S
C249 O246 1.258 . S
C249 O251 1.282 . S
O250 Cd242 2.277 . S
O250 C243 1.226 . S
O251 Cd242 2.356 . S
O251 C249 1.282 . S
C252 O253 1.306 . S
C252 O255 1.160 . S
O253 C252 1.306 . S
O253 Cd254 2.228 . S
Cd254 O253 2.228 . S
Cd254 O258 2.273 . S
Cd254 O262 2.277 . S
O255 C252 1.160 . S
O255 Cd256 2.203 . S
Cd256 O255 2.203 . S
Cd256 O258 2.411 . S
Cd256 O259 2.333 . S
Cd256 O260 2.352 . S
Cd256 O264 2.277 . S
Cd256 O265 2.356 . S
C257 O262 1.209 . S
C257 O264 1.226 . S
O258 Cd254 2.273 . S
O258 Cd256 2.411 . S
O258 C261 1.320 . S
O259 Cd256 2.333 . S
O259 C261 1.214 . S
O260 Cd256 2.352 . S
O260 C263 1.258 . S
C261 O258 1.320 . S
C261 O259 1.214 . S
O262 Cd254 2.277 . S
O262 C257 1.209 . S
C263 O260 1.258 . S
C263 O265 1.282 . S
O264 Cd256 2.277 . S
O264 C257 1.226 . S
O265 Cd256 2.356 . S
O265 C263 1.282 . S
C266 O267 1.306 . S
C266 O269 1.160 . S
O267 C266 1.306 . S
O267 Cd268 2.228 . S
Cd268 O267 2.228 . S
Cd268 O272 2.273 . S
Cd268 O276 2.277 . S
O269 C266 1.160 . S
O269 Cd270 2.203 . S
Cd270 O269 2.203 . S
Cd270 O272 2.411 . S
Cd270 O273 2.333 . S
Cd270 O274 2.352 . S
Cd270 O278 2.277 . S
Cd270 O279 2.356 . S
C271 O276 1.209 . S
C271 O278 1.226 . S
O272 Cd268 2.273 . S
O272 Cd270 2.411 . S
O272 C275 1.320 . S
O273 Cd270 2.333 . S
O273 C275 1.214 . S
O274 Cd270 2.352 . S
O274 C277 1.258 . S
C275 O272 1.320 . S
C275 O273 1.214 . S
O276 Cd268 2.277 . S
O276 C271 1.209 . S
C277 O274 1.258 . S
C277 O279 1.282 . S
O278 Cd270 2.277 . S
O278 C271 1.226 . S
O279 Cd270 2.356 . S
O279 C277 1.282 . S
C280 O281 1.306 . S
C280 O283 1.160 . S
O281 C280 1.306 . S
O281 Cd282 2.228 . S
Cd282 O281 2.228 . S
Cd282 O286 2.273 . S
Cd282 O290 2.277 . S
O283 C280 1.160 . S
O283 Cd284 2.203 . S
Cd284 O283 2.203 . S
Cd284 O286 2.411 . S
Cd284 O287 2.333 . S
Cd284 O288 2.352 1_554 S
Cd284 O292 2.277 . S
Cd284 O293 2.356 1_554 S
C285 O290 1.209 . S
C285 O292 1.226 . S
O286 Cd282 2.273 . S
O286 Cd284 2.411 . S
O286 C289 1.320 . S
O287 Cd284 2.333 . S
O287 C289 1.214 . S
O288 Cd284 2.352 1_556 S
O288 C291 1.258 . S
C289 O286 1.320 . S
C289 O287 1.214 . S
O290 Cd282 2.277 . S
O290 C285 1.209 . S
C291 O288 1.258 . S
C291 O293 1.282 . S
O292 Cd284 2.277 . S
O292 C285 1.226 . S
O293 Cd284 2.356 1_556 S
O293 C291 1.282 . S
C294 O295 1.306 . S
C294 O297 1.160 . S
O295 C294 1.306 . S
O295 Cd296 2.228 . S
Cd296 O295 2.228 . S
Cd296 O300 2.273 . S
Cd296 O304 2.277 . S
O297 C294 1.160 . S
O297 Cd298 2.203 . S
Cd298 O297 2.203 . S
Cd298 O300 2.411 . S
Cd298 O301 2.333 . S
Cd298 O302 2.352 . S
Cd298 O306 2.277 . S
Cd298 O307 2.356 . S
C299 O304 1.209 . S
C299 O306 1.226 . S
O300 Cd296 2.273 . S
O300 Cd298 2.411 . S
O300 C303 1.320 . S
O301 Cd298 2.333 . S
O301 C303 1.214 . S
O302 Cd298 2.352 . S
O302 C305 1.258 . S
C303 O300 1.320 . S
C303 O301 1.214 . S
O304 Cd296 2.277 . S
O304 C299 1.209 . S
C305 O302 1.258 . S
C305 O307 1.282 . S
O306 Cd298 2.277 . S
O306 C299 1.226 . S
O307 Cd298 2.356 . S
O307 C305 1.282 . S
C308 O309 1.306 . S
C308 O311 1.160 . S
O309 C308 1.306 . S
O309 Cd310 2.228 . S
Cd310 O309 2.228 . S
Cd310 O314 2.273 . S
Cd310 O318 2.277 . S
O311 C308 1.160 . S
O311 Cd312 2.203 . S
Cd312 O311 2.203 . S
Cd312 O314 2.411 . S
Cd312 O315 2.333 . S
Cd312 O316 2.352 . S
Cd312 O320 2.277 . S
Cd312 O321 2.356 . S
C313 O318 1.209 . S
C313 O320 1.226 . S
O314 Cd310 2.273 . S
O314 Cd312 2.411 . S
O314 C317 1.320 . S
O315 Cd312 2.333 . S
O315 C317 1.214 . S
O316 Cd312 2.352 . S
O316 C319 1.258 . S
C317 O314 1.320 . S
C317 O315 1.214 . S
O318 Cd310 2.277 . S
O318 C313 1.209 . S
C319 O316 1.258 . S
C319 O321 1.282 . S
O320 Cd312 2.277 . S
O320 C313 1.226 . S
O321 Cd312 2.356 . S
O321 C319 1.282 . S
C322 O323 1.306 . S
C322 O325 1.160 . S
O323 C322 1.306 . S
O323 Cd324 2.228 . S
Cd324 O323 2.228 . S
Cd324 O328 2.273 . S
Cd324 O332 2.277 . S
O325 C322 1.160 . S
O325 Cd326 2.203 . S
Cd326 O325 2.203 . S
Cd326 O328 2.411 . S
Cd326 O329 2.333 . S
Cd326 O330 2.352 . S
Cd326 O334 2.277 . S
Cd326 O335 2.356 . S
C327 O332 1.209 . S
C327 O334 1.226 . S
O328 Cd324 2.273 . S
O328 Cd326 2.411 . S
O328 C331 1.320 . S
O329 Cd326 2.333 . S
O329 C331 1.214 . S
O330 Cd326 2.352 . S
O330 C333 1.258 . S
C331 O328 1.320 . S
C331 O329 1.214 . S
O332 Cd324 2.277 . S
O332 C327 1.209 . S
C333 O330 1.258 . S
C333 O335 1.282 . S
O334 Cd326 2.277 . S
O334 C327 1.226 . S
O335 Cd326 2.356 . S
O335 C333 1.282 . S
Tb336 N365 2.617 . S
Tb336 N371 2.572 . S
Tb336 O380 2.465 . S
Tb336 O381 2.387 . S
Tb336 O383 2.428 . S
Tb336 O384 2.308 . S
Tb336 O388 2.349 . S
Tb336 O391 2.393 . S
Tb336 C400 2.802 . S
C337 N338 1.379 . S
C337 C340 1.416 . S
C337 C344 1.424 1_556 S
N338 C337 1.379 . S
N338 C341 1.334 . S
N338 Tb347 2.617 1_566 S
C339 C341 1.390 . S
C339 C342 1.339 . S
C339 H359 0.930 . S
C340 C337 1.416 . S
C340 C342 1.416 . S
C340 C346 1.448 . S
C341 N338 1.334 . S
C341 C339 1.390 . S
C341 H352 0.938 . S
C342 C339 1.339 . S
C342 C340 1.416 . S
C342 H363 0.930 . S
C343 C344 1.413 . S
C343 C345 1.427 1_554 S
C343 C349 1.416 . S
C344 C337 1.424 1_554 S
C344 C343 1.413 . S
C344 N348 1.361 . S
C345 C343 1.427 1_556 S
C345 C346 1.328 . S
C345 H360 0.929 . S
C346 C340 1.448 . S
C346 C345 1.328 . S
C346 H361 0.930 . S
Tb347 N338 2.617 1_544 S
Tb347 N348 2.572 1_545 S
Tb347 O382 2.349 1_655 S
Tb347 O385 2.393 1_654 S
Tb347 O386 2.465 . S
Tb347 O387 2.387 1_645 S
Tb347 O389 2.428 1_554 S
Tb347 O390 2.308 1_655 S
Tb347 C411 2.802 . S
N348 C344 1.361 . S
N348 Tb347 2.572 1_565 S
N348 C350 1.340 . S
C349 C343 1.416 . S
C349 C351 1.332 . S
C349 H357 0.931 . S
C350 N348 1.340 . S
C350 C351 1.407 . S
C350 H356 0.930 . S
C351 C349 1.332 . S
C351 C350 1.407 . S
C351 H353 0.929 . S
H352 C341 0.938 . S
H353 C351 0.929 . S
H354 C369 0.930 . S
H355 C376 0.929 1_556 S
H356 C350 0.930 . S
H357 C349 0.931 . S
H358 C372 0.930 . S
H359 C339 0.930 . S
H360 C345 0.929 . S
H361 C346 0.930 . S
H362 C367 0.930 . S
H363 C342 0.930 . S
H364 C375 0.931 . S
N365 Tb336 2.617 . S
N365 C366 1.379 . S
N365 C369 1.334 . S
C366 N365 1.379 . S
C366 C368 1.416 . S
C366 C374 1.424 . S
C367 H362 0.930 . S
C367 C369 1.390 . S
C367 C370 1.339 . S
C368 C366 1.416 . S
C368 C370 1.416 . S
C368 C401 1.448 . S
C369 H354 0.930 . S
C369 N365 1.334 . S
C369 C367 1.390 . S
C370 C367 1.339 . S
C370 C368 1.416 . S
C370 H377 0.930 . S
N371 Tb336 2.572 . S
N371 C372 1.340 . S
N371 C374 1.361 . S
C372 H358 0.930 . S
C372 N371 1.340 . S
C372 C376 1.407 . S
C373 C374 1.413 . S
C373 C375 1.416 . S
C373 C402 1.427 . S
C374 C366 1.424 . S
C374 N371 1.361 . S
C374 C373 1.413 . S
C375 H364 0.931 . S
C375 C373 1.416 . S
C375 C376 1.332 . S
C376 H355 0.929 1_554 S
C376 C372 1.407 . S
C376 C375 1.332 . S
H377 C370 0.930 . S
H378 C401 0.930 . S
H379 C402 0.929 . S
O380 Tb336 2.465 . S
O380 C400 1.264 . S
O381 Tb336 2.387 . S
O381 C392 1.264 . S
O382 Tb347 2.349 1_455 S
O382 C392 1.243 . S
O383 Tb336 2.428 . S
O383 C400 1.256 . S
O384 Tb336 2.308 . S
O384 C399 1.266 1_554 S
O385 Tb347 2.393 1_456 S
O385 C399 1.248 . S
O386 Tb347 2.465 . S
O386 C411 1.264 . S
O387 Tb347 2.387 1_465 S
O387 C403 1.264 . S
O388 Tb336 2.349 . S
O388 C403 1.243 1_545 S
O389 Tb347 2.428 1_556 S
O389 C411 1.256 1_556 S
O390 Tb347 2.308 1_455 S
O390 C410 1.266 . S
O391 Tb336 2.393 . S
O391 C410 1.248 . S
C392 O381 1.264 . S
C392 O382 1.243 . S
C393 C396 1.399 . S
C393 C398 1.383 . S
C393 C400 1.496 . S
C394 C395 1.399 . S
C394 C398 1.389 . S
C395 C394 1.399 . S
C395 C397 1.380 . S
C395 H412 0.929 . S
C396 C393 1.399 . S
C396 C397 1.392 . S
C396 H413 0.929 . S
C397 C395 1.380 . S
C397 C396 1.392 . S
C397 H414 0.929 . S
C398 C393 1.383 . S
C398 C394 1.389 . S
C398 H415 0.931 . S
C399 O384 1.266 1_556 S
C399 O385 1.248 . S
C400 Tb336 2.802 . S
C400 O380 1.264 . S
C400 O383 1.256 . S
C400 C393 1.496 . S
C401 C368 1.448 . S
C401 H378 0.930 . S
C401 C402 1.328 . S
C402 C373 1.427 . S
C402 H379 0.929 . S
C402 C401 1.328 . S
C403 O387 1.264 . S
C403 O388 1.243 1_565 S
C404 C407 1.399 1_554 S
C404 C408 1.383 . S
C404 C411 1.496 . S
C405 C406 1.399 1_554 S
C405 C408 1.389 . S
C406 C405 1.399 1_556 S
C406 C409 1.380 . S
C406 H416 0.929 . S
C407 C404 1.399 1_556 S
C407 C409 1.392 . S
C407 H417 0.929 . S
C408 C404 1.383 . S
C408 C405 1.389 . S
C408 H418 0.931 . S
C409 C406 1.380 . S
C409 C407 1.392 . S
C409 H419 0.929 . S
C410 O390 1.266 . S
C410 O391 1.248 . S
C411 Tb347 2.802 . S
C411 O386 1.264 . S
C411 O389 1.256 1_554 S
C411 C404 1.496 . S
H412 C395 0.929 . S
H413 C396 0.929 . S
H414 C397 0.929 . S
H415 C398 0.931 . S
H416 C406 0.929 . S
H417 C407 0.929 . S
H418 C408 0.931 . S
H419 C409 0.929 . S
Tb420 N449 2.617 . S
Tb420 N455 2.572 . S
Tb420 O464 2.465 . S
Tb420 O465 2.387 . S
Tb420 O467 2.428 . S
Tb420 O468 2.308 . S
Tb420 O472 2.349 . S
Tb420 O475 2.393 . S
Tb420 C484 2.802 . S
C421 N422 1.379 . S
C421 C424 1.416 . S
C421 C428 1.424 . S
N422 C421 1.379 . S
N422 C425 1.334 . S
N422 Tb431 2.617 . S
C423 C425 1.390 . S
C423 C426 1.339 . S
C423 H443 0.930 . S
C424 C421 1.416 . S
C424 C426 1.416 . S
C424 C430 1.448 . S
C425 N422 1.334 . S
C425 C423 1.390 . S
C425 H436 0.930 . S
C426 C423 1.339 . S
C426 C424 1.416 . S
C426 H447 0.930 . S
C427 C428 1.413 . S
C427 C429 1.427 . S
C427 C433 1.416 . S
C428 C421 1.424 . S
C428 C427 1.413 . S
C428 N432 1.361 . S
C429 C427 1.427 . S
C429 C430 1.328 . S
C429 H444 0.929 . S
C430 C424 1.448 . S
C430 C429 1.328 . S
C430 H445 0.930 . S
Tb431 N422 2.617 . S
Tb431 N432 2.572 . S
Tb431 O466 2.349 . S
Tb431 O469 2.393 . S
Tb431 O470 2.465 . S
Tb431 O471 2.387 . S
Tb431 O473 2.428 . S
Tb431 O474 2.308 . S
Tb431 C495 2.802 . S
N432 C428 1.361 . S
N432 Tb431 2.572 . S
N432 C434 1.340 . S
C433 C427 1.416 . S
C433 C435 1.332 . S
C433 H441 0.931 . S
C434 N432 1.340 . S
C434 C435 1.407 . S
C434 H440 0.930 . S
C435 C433 1.332 . S
C435 C434 1.407 . S
C435 H437 0.929 . S
H436 C425 0.930 . S
H437 C435 0.929 . S
H438 C453 0.930 . S
H439 C460 0.929 . S
H440 C434 0.930 . S
H441 C433 0.931 . S
H442 C456 0.930 . S
H443 C423 0.930 . S
H444 C429 0.929 . S
H445 C430 0.930 . S
H446 C451 0.930 . S
H447 C426 0.930 . S
H448 C459 0.931 . S
N449 Tb420 2.617 . S
N449 C450 1.379 . S
N449 C453 1.334 . S
C450 N449 1.379 . S
C450 C452 1.416 . S
C450 C458 1.424 . S
C451 H446 0.930 . S
C451 C453 1.390 . S
C451 C454 1.339 . S
C452 C450 1.416 . S
C452 C454 1.416 . S
C452 C485 1.448 . S
C453 H438 0.930 . S
C453 N449 1.334 . S
C453 C451 1.390 . S
C454 C451 1.339 . S
C454 C452 1.416 . S
C454 H461 0.930 . S
N455 Tb420 2.572 . S
N455 C456 1.340 . S
N455 C458 1.361 . S
C456 H442 0.930 . S
C456 N455 1.340 . S
C456 C460 1.407 . S
C457 C458 1.413 . S
C457 C459 1.416 . S
C457 C486 1.427 . S
C458 C450 1.424 . S
C458 N455 1.361 . S
C458 C457 1.413 . S
C459 H448 0.931 . S
C459 C457 1.416 . S
C459 C460 1.332 . S
C460 H439 0.929 . S
C460 C456 1.407 . S
C460 C459 1.332 . S
H461 C454 0.930 . S
H462 C485 0.930 . S
H463 C486 0.929 . S
O464 Tb420 2.465 . S
O464 C484 1.264 . S
O465 Tb420 2.387 . S
O465 C476 1.264 . S
O466 Tb431 2.349 . S
O466 C476 1.243 . S
O467 Tb420 2.428 . S
O467 C484 1.256 . S
O468 Tb420 2.308 . S
O468 C483 1.266 . S
O469 Tb431 2.393 . S
O469 C483 1.248 . S
O470 Tb431 2.465 . S
O470 C495 1.264 . S
O471 Tb431 2.387 . S
O471 C487 1.264 . S
O472 Tb420 2.349 . S
O472 C487 1.243 . S
O473 Tb431 2.428 . S
O473 C495 1.256 . S
O474 Tb431 2.308 . S
O474 C494 1.266 . S
O475 Tb420 2.393 . S
O475 C494 1.248 . S
C476 O465 1.264 . S
C476 O466 1.243 . S
C477 C480 1.399 . S
C477 C482 1.383 . S
C477 C484 1.496 . S
C478 C479 1.399 . S
C478 C482 1.389 . S
C479 C478 1.399 . S
C479 C481 1.380 . S
C479 H496 0.929 . S
C480 C477 1.399 . S
C480 C481 1.392 . S
C480 H497 0.929 . S
C481 C479 1.380 . S
C481 C480 1.392 . S
C481 H498 0.929 . S
C482 C477 1.383 . S
C482 C478 1.389 . S
C482 H499 0.931 . S
C483 O468 1.266 . S
C483 O469 1.248 . S
C484 Tb420 2.802 . S
C484 O464 1.264 . S
C484 O467 1.256 . S
C484 C477 1.496 . S
C485 C452 1.448 . S
C485 H462 0.930 . S
C485 C486 1.328 . S
C486 C457 1.427 . S
C486 H463 0.929 . S
C486 C485 1.328 . S
C487 O471 1.264 . S
C487 O472 1.243 . S
C488 C491 1.399 . S
C488 C492 1.383 . S
C488 C495 1.496 . S
C489 C490 1.399 . S
C489 C492 1.389 . S
C490 C489 1.399 . S
C490 C493 1.380 . S
C490 H500 0.929 . S
C491 C488 1.399 . S
C491 C493 1.392 . S
C491 H501 0.929 . S
C492 C488 1.383 . S
C492 C489 1.389 . S
C492 H502 0.931 . S
C493 C490 1.380 . S
C493 C491 1.392 . S
C493 H503 0.929 . S
C494 O474 1.266 . S
C494 O475 1.248 . S
C495 Tb431 2.802 . S
C495 O470 1.264 . S
C495 O473 1.256 . S
C495 C488 1.496 . S
H496 C479 0.929 . S
H497 C480 0.929 . S
H498 C481 0.929 . S
H499 C482 0.931 . S
H500 C490 0.929 . S
H501 C491 0.929 . S
H502 C492 0.931 . S
H503 C493 0.929 . S
Tb504 N533 2.617 . S
Tb504 N539 2.572 1_545 S
Tb504 O548 2.465 . S
Tb504 O549 2.387 1_545 S
Tb504 O551 2.428 . S
Tb504 O552 2.308 . S
Tb504 O556 2.349 . S
Tb504 O559 2.393 . S
Tb504 C568 2.802 . S
C505 N506 1.379 . S
C505 C508 1.416 . S
C505 C512 1.424 . S
N506 C505 1.379 . S
N506 C509 1.334 . S
N506 Tb515 2.617 . S
C507 C509 1.390 . S
C507 C510 1.339 . S
C507 H527 0.930 . S
C508 C505 1.416 . S
C508 C510 1.416 . S
C508 C514 1.448 . S
C509 N506 1.334 . S
C509 C507 1.390 . S
C509 H520 0.930 . S
C510 C507 1.339 . S
C510 C508 1.416 . S
C510 H531 0.930 . S
C511 C512 1.413 . S
C511 C513 1.427 . S
C511 C517 1.416 . S
C512 C505 1.424 . S
C512 C511 1.413 . S
C512 N516 1.361 . S
C513 C511 1.427 . S
C513 C514 1.328 . S
C513 H528 0.929 . S
C514 C508 1.448 . S
C514 C513 1.328 . S
C514 H529 0.930 . S
Tb515 N506 2.617 . S
Tb515 N516 2.572 . S
Tb515 O550 2.349 1_545 S
Tb515 O553 2.393 . S
Tb515 O554 2.465 . S
Tb515 O555 2.387 . S
Tb515 O557 2.428 . S
Tb515 O558 2.308 . S
Tb515 C579 2.802 . S
N516 C512 1.361 . S
N516 Tb515 2.572 . S
N516 C518 1.340 . S
C517 C511 1.416 . S
C517 C519 1.332 . S
C517 H525 0.931 . S
C518 N516 1.340 . S
C518 C519 1.407 . S
C518 H524 0.930 . S
C519 C517 1.332 . S
C519 C518 1.407 . S
C519 H521 0.929 . S
H520 C509 0.930 . S
H521 C519 0.929 . S
H522 C537 0.930 . S
H523 C544 0.929 . S
H524 C518 0.930 . S
H525 C517 0.931 . S
H526 C540 0.930 . S
H527 C507 0.930 . S
H528 C513 0.929 . S
H529 C514 0.930 . S
H530 C535 0.930 . S
H531 C510 0.930 . S
H532 C543 0.931 . S
N533 Tb504 2.617 . S
N533 C534 1.379 1_545 S
N533 C537 1.334 . S
C534 N533 1.379 1_565 S
C534 C536 1.416 . S
C534 C542 1.424 . S
C535 H530 0.930 . S
C535 C537 1.390 1_565 S
C535 C538 1.339 . S
C536 C534 1.416 . S
C536 C538 1.416 . S
C536 C569 1.448 . S
C537 H522 0.930 . S
C537 N533 1.334 . S
C537 C535 1.390 1_545 S
C538 C535 1.339 . S
C538 C536 1.416 . S
C538 H545 0.930 . S
N539 Tb504 2.572 1_565 S
N539 C540 1.340 . S
N539 C542 1.361 . S
C540 H526 0.930 . S
C540 N539 1.340 . S
C540 C544 1.407 . S
C541 C542 1.413 . S
C541 C543 1.416 . S
C541 C570 1.427 . S
C542 C534 1.424 . S
C542 N539 1.361 . S
C542 C541 1.413 . S
C543 H532 0.931 . S
C543 C541 1.416 . S
C543 C544 1.332 . S
C544 H523 0.929 . S
C544 C540 1.407 . S
C544 C543 1.332 . S
H545 C538 0.930 . S
H546 C569 0.930 . S
H547 C570 0.929 . S
O548 Tb504 2.465 . S
O548 C568 1.264 . S
O549 Tb504 2.387 1_565 S
O549 C560 1.264 . S
O550 Tb515 2.349 1_565 S
O550 C560 1.243 . S
O551 Tb504 2.428 . S
O551 C568 1.256 . S
O552 Tb504 2.308 . S
O552 C567 1.266 . S
O553 Tb515 2.393 . S
O553 C567 1.248 . S
O554 Tb515 2.465 . S
O554 C579 1.264 . S
O555 Tb515 2.387 . S
O555 C571 1.264 . S
O556 Tb504 2.349 . S
O556 C571 1.243 . S
O557 Tb515 2.428 . S
O557 C579 1.256 . S
O558 Tb515 2.308 . S
O558 C578 1.266 . S
O559 Tb504 2.393 . S
O559 C578 1.248 . S
C560 O549 1.264 . S
C560 O550 1.243 . S
C561 C564 1.399 . S
C561 C566 1.383 . S
C561 C568 1.496 . S
C562 C563 1.399 . S
C562 C566 1.389 . S
C563 C562 1.399 . S
C563 C565 1.380 . S
C563 H580 0.929 . S
C564 C561 1.399 . S
C564 C565 1.392 . S
C564 H581 0.929 . S
C565 C563 1.380 . S
C565 C564 1.392 . S
C565 H582 0.929 . S
C566 C561 1.383 . S
C566 C562 1.389 . S
C566 H583 0.931 . S
C567 O552 1.266 . S
C567 O553 1.248 . S
C568 Tb504 2.802 . S
C568 O548 1.264 . S
C568 O551 1.256 . S
C568 C561 1.496 . S
C569 C536 1.448 . S
C569 H546 0.930 . S
C569 C570 1.328 . S
C570 C541 1.427 . S
C570 H547 0.929 . S
C570 C569 1.328 . S
C571 O555 1.264 . S
C571 O556 1.243 . S
C572 C575 1.399 . S
C572 C576 1.383 . S
C572 C579 1.496 1_565 S
C573 C574 1.399 . S
C573 C576 1.389 . S
C574 C573 1.399 . S
C574 C577 1.380 . S
C574 H584 0.929 . S
C575 C572 1.399 . S
C575 C577 1.392 . S
C575 H585 0.929 . S
C576 C572 1.383 . S
C576 C573 1.389 . S
C576 H586 0.931 . S
C577 C574 1.380 . S
C577 C575 1.392 . S
C577 H587 0.929 . S
C578 O558 1.266 . S
C578 O559 1.248 . S
C579 Tb515 2.802 . S
C579 O554 1.264 . S
C579 O557 1.256 . S
C579 C572 1.496 1_545 S
H580 C563 0.929 . S
H581 C564 0.929 . S
H582 C565 0.929 . S
H583 C566 0.931 . S
H584 C574 0.929 . S
H585 C575 0.929 . S
H586 C576 0.931 . S
H587 C577 0.929 . S
Tb588 N617 2.617 . S
Tb588 N623 2.572 . S
Tb588 O632 2.465 . S
Tb588 O633 2.387 . S
Tb588 O635 2.428 . S
Tb588 O636 2.308 . S
Tb588 O640 2.349 . S
Tb588 O643 2.393 . S
Tb588 C652 2.802 . S
C589 N590 1.379 . S
C589 C592 1.416 . S
C589 C596 1.424 . S
N590 C589 1.379 . S
N590 C593 1.334 . S
N590 Tb599 2.617 . S
C591 C593 1.390 . S
C591 C594 1.339 . S
C591 H611 0.930 . S
C592 C589 1.416 . S
C592 C594 1.416 . S
C592 C598 1.448 . S
C593 N590 1.334 . S
C593 C591 1.390 . S
C593 H604 0.930 . S
C594 C591 1.339 . S
C594 C592 1.416 . S
C594 H615 0.930 . S
C595 C596 1.413 . S
C595 C597 1.427 . S
C595 C601 1.416 . S
C596 C589 1.424 . S
C596 C595 1.413 . S
C596 N600 1.361 . S
C597 C595 1.427 . S
C597 C598 1.328 . S
C597 H612 0.929 . S
C598 C592 1.448 . S
C598 C597 1.328 . S
C598 H613 0.930 . S
Tb599 N590 2.617 . S
Tb599 N600 2.572 . S
Tb599 O634 2.349 . S
Tb599 O637 2.393 . S
Tb599 O638 2.465 . S
Tb599 O639 2.387 . S
Tb599 O641 2.428 . S
Tb599 O642 2.308 . S
Tb599 C663 2.802 . S
N600 C596 1.361 . S
N600 Tb599 2.572 . S
N600 C602 1.340 . S
C601 C595 1.416 . S
C601 C603 1.332 . S
C601 H609 0.931 . S
C602 N600 1.340 . S
C602 C603 1.407 . S
C602 H608 0.930 . S
C603 C601 1.332 . S
C603 C602 1.407 . S
C603 H605 0.929 . S
H604 C593 0.930 . S
H605 C603 0.929 . S
H606 C621 0.930 . S
H607 C628 0.929 . S
H608 C602 0.930 . S
H609 C601 0.931 . S
H610 C624 0.930 . S
H611 C591 0.930 . S
H612 C597 0.929 . S
H613 C598 0.930 . S
H614 C619 0.930 . S
H615 C594 0.930 . S
H616 C627 0.931 . S
N617 Tb588 2.617 . S
N617 C618 1.379 . S
N617 C621 1.334 . S
C618 N617 1.379 . S
C618 C620 1.416 . S
C618 C626 1.424 . S
C619 H614 0.930 . S
C619 C621 1.390 . S
C619 C622 1.339 . S
C620 C618 1.416 . S
C620 C622 1.416 . S
C620 C653 1.448 . S
C621 H606 0.930 . S
C621 N617 1.334 . S
C621 C619 1.390 . S
C622 C619 1.339 . S
C622 C620 1.416 . S
C622 H629 0.930 . S
N623 Tb588 2.572 . S
N623 C624 1.340 . S
N623 C626 1.361 . S
C624 H610 0.930 . S
C624 N623 1.340 . S
C624 C628 1.407 . S
C625 C626 1.413 . S
C625 C627 1.416 . S
C625 C654 1.427 . S
C626 C618 1.424 . S
C626 N623 1.361 . S
C626 C625 1.413 . S
C627 H616 0.931 . S
C627 C625 1.416 . S
C627 C628 1.332 . S
C628 H607 0.929 . S
C628 C624 1.407 . S
C628 C627 1.332 . S
H629 C622 0.930 . S
H630 C653 0.930 . S
H631 C654 0.929 . S
O632 Tb588 2.465 . S
O632 C652 1.264 . S
O633 Tb588 2.387 . S
O633 C644 1.264 . S
O634 Tb599 2.349 . S
O634 C644 1.243 . S
O635 Tb588 2.428 . S
O635 C652 1.256 . S
O636 Tb588 2.308 . S
O636 C651 1.266 . S
O637 Tb599 2.393 . S
O637 C651 1.248 . S
O638 Tb599 2.465 . S
O638 C663 1.264 . S
O639 Tb599 2.387 . S
O639 C655 1.264 . S
O640 Tb588 2.349 . S
O640 C655 1.243 . S
O641 Tb599 2.428 . S
O641 C663 1.256 . S
O642 Tb599 2.308 . S
O642 C662 1.266 . S
O643 Tb588 2.393 . S
O643 C662 1.248 . S
C644 O633 1.264 . S
C644 O634 1.243 . S
C645 C648 1.399 . S
C645 C650 1.383 . S
C645 C652 1.496 . S
C646 C647 1.399 . S
C646 C650 1.389 . S
C647 C646 1.399 . S
C647 C649 1.380 . S
C647 H664 0.929 . S
C648 C645 1.399 . S
C648 C649 1.392 . S
C648 H665 0.929 . S
C649 C647 1.380 . S
C649 C648 1.392 . S
C649 H666 0.929 . S
C650 C645 1.383 . S
C650 C646 1.389 . S
C650 H667 0.931 . S
C651 O636 1.266 . S
C651 O637 1.248 . S
C652 Tb588 2.802 . S
C652 O632 1.264 . S
C652 O635 1.256 . S
C652 C645 1.496 . S
C653 C620 1.448 . S
C653 H630 0.930 . S
C653 C654 1.328 . S
C654 C625 1.427 . S
C654 H631 0.929 . S
C654 C653 1.328 . S
C655 O639 1.264 . S
C655 O640 1.243 . S
C656 C659 1.399 . S
C656 C660 1.383 . S
C656 C663 1.496 . S
C657 C658 1.399 . S
C657 C660 1.389 . S
C658 C657 1.399 . S
C658 C661 1.380 . S
C658 H668 0.929 . S
C659 C656 1.399 . S
C659 C661 1.392 . S
C659 H669 0.929 . S
C660 C656 1.383 . S
C660 C657 1.389 . S
C660 H670 0.931 . S
C661 C658 1.380 . S
C661 C659 1.392 . S
C661 H671 0.929 . S
C662 O642 1.266 . S
C662 O643 1.248 . S
C663 Tb599 2.802 . S
C663 O638 1.264 . S
C663 O641 1.256 . S
C663 C656 1.496 . S
H664 C647 0.929 . S
H665 C648 0.929 . S
H666 C649 0.929 . S
H667 C650 0.931 . S
H668 C658 0.929 . S
H669 C659 0.929 . S
H670 C660 0.931 . S
H671 C661 0.929 . S
Tb672 N701 2.618 1_545 S
Tb672 N707 2.573 1_545 S
Tb672 O716 2.466 1_545 S
Tb672 O717 2.386 . S
Tb672 O719 2.429 1_545 S
Tb672 O720 2.307 . S
Tb672 O724 2.349 . S
Tb672 O727 2.392 . S
Tb672 C736 2.803 1_545 S
C673 N674 1.379 1_455 S
C673 C676 1.416 1_455 S
C673 C680 1.424 . S
N674 C673 1.379 1_655 S
N674 C677 1.334 . S
N674 Tb683 2.617 1_655 S
C675 C677 1.390 . S
C675 C678 1.339 . S
C675 H695 0.930 . S
C676 C673 1.416 1_655 S
C676 C678 1.416 . S
C676 C682 1.448 1_655 S
C677 N674 1.334 . S
C677 C675 1.390 . S
C677 H688 0.930 . S
C678 C675 1.339 . S
C678 C676 1.416 . S
C678 H699 0.930 . S
C679 C680 1.413 . S
C679 C681 1.427 . S
C679 C685 1.416 . S
C680 C673 1.424 . S
C680 C679 1.413 . S
C680 N684 1.361 . S
C681 C679 1.427 . S
C681 C682 1.328 . S
C681 H696 0.929 . S
C682 C676 1.448 1_455 S
C682 C681 1.328 . S
C682 H697 0.905 1_455 S
Tb683 N674 2.617 1_455 S
Tb683 N684 2.572 . S
Tb683 O718 2.349 . S
Tb683 O721 2.393 1_455 S
Tb683 O722 2.465 . S
Tb683 O723 2.387 . S
Tb683 O725 2.428 1_455 S
Tb683 O726 2.308 . S
Tb683 C747 2.802 . S
N684 C680 1.361 . S
N684 Tb683 2.572 . S
N684 C686 1.340 . S
C685 C679 1.416 . S
C685 C687 1.332 . S
C685 H693 0.931 . S
C686 N684 1.340 . S
C686 C687 1.407 . S
C686 H692 0.930 . S
C687 C685 1.332 . S
C687 C686 1.407 . S
C687 H689 0.929 . S
H688 C677 0.930 . S
H689 C687 0.929 . S
H690 C705 0.930 1_545 S
H691 C712 0.929 . S
H692 C686 0.930 . S
H693 C685 0.931 . S
H694 C708 0.930 1_655 S
H695 C675 0.930 . S
H696 C681 0.929 . S
H697 C682 0.905 1_655 S
H698 C703 0.941 . S
H699 C678 0.930 . S
H700 C711 0.920 1_655 S
N701 Tb672 2.618 1_565 S
N701 C702 1.379 . S
N701 C705 1.334 . S
C702 N701 1.379 . S
C702 C704 1.416 . S
C702 C710 1.424 . S
C703 H698 0.941 . S
C703 C705 1.390 . S
C703 C706 1.339 . S
C704 C702 1.416 . S
C704 C706 1.416 . S
C704 C737 1.448 . S
C705 H690 0.930 1_565 S
C705 N701 1.334 . S
C705 C703 1.390 . S
C706 C703 1.339 . S
C706 C704 1.416 . S
C706 H713 0.930 . S
N707 Tb672 2.573 1_565 S
N707 C708 1.340 . S
N707 C710 1.361 . S
C708 H694 0.930 1_455 S
C708 N707 1.340 . S
C708 C712 1.407 1_455 S
C709 C710 1.413 . S
C709 C711 1.453 . S
C709 C738 1.427 . S
C710 C702 1.424 . S
C710 N707 1.361 . S
C710 C709 1.413 . S
C711 H700 0.920 1_455 S
C711 C709 1.453 . S
C711 C712 1.307 1_455 S
C712 H691 0.929 . S
C712 C708 1.407 1_655 S
C712 C711 1.307 1_655 S
H713 C706 0.930 . S
H714 C737 0.930 . S
H715 C738 0.929 . S
O716 Tb672 2.466 1_565 S
O716 C736 1.264 . S
O717 Tb672 2.386 . S
O717 C728 1.264 . S
O718 Tb683 2.349 . S
O718 C728 1.243 . S
O719 Tb672 2.429 1_565 S
O719 C736 1.256 . S
O720 Tb672 2.307 . S
O720 C735 1.266 1_455 S
O721 Tb683 2.393 1_655 S
O721 C735 1.248 . S
O722 Tb683 2.465 . S
O722 C747 1.264 . S
O723 Tb683 2.387 . S
O723 C739 1.264 . S
O724 Tb672 2.349 . S
O724 C739 1.243 . S
O725 Tb683 2.428 1_655 S
O725 C747 1.256 1_655 S
O726 Tb683 2.308 . S
O726 C746 1.266 . S
O727 Tb672 2.392 . S
O727 C746 1.248 . S
C728 O717 1.264 . S
C728 O718 1.243 . S
C729 C732 1.399 . S
C729 C734 1.383 . S
C729 C736 1.496 . S
C730 C731 1.399 . S
C730 C734 1.389 . S
C731 C730 1.399 . S
C731 C733 1.380 . S
C731 H748 0.929 . S
C732 C729 1.399 . S
C732 C733 1.392 . S
C732 H749 0.929 . S
C733 C731 1.380 . S
C733 C732 1.392 . S
C733 H750 0.929 . S
C734 C729 1.383 . S
C734 C730 1.389 . S
C734 H751 0.931 . S
C735 O720 1.266 1_655 S
C735 O721 1.248 . S
C736 Tb672 2.803 1_565 S
C736 O716 1.264 . S
C736 O719 1.256 . S
C736 C729 1.496 . S
C737 C704 1.448 . S
C737 H714 0.930 . S
C737 C738 1.328 . S
C738 C709 1.427 . S
C738 H715 0.929 . S
C738 C737 1.328 . S
C739 O723 1.264 . S
C739 O724 1.243 . S
C740 C743 1.399 1_455 S
C740 C744 1.383 . S
C740 C747 1.496 . S
C741 C742 1.399 1_455 S
C741 C744 1.389 . S
C742 C741 1.399 1_655 S
C742 C745 1.380 . S
C742 H752 0.929 . S
C743 C740 1.399 1_655 S
C743 C745 1.392 . S
C743 H753 0.929 . S
C744 C740 1.383 . S
C744 C741 1.389 . S
C744 H754 0.931 . S
C745 C742 1.380 . S
C745 C743 1.392 . S
C745 H755 0.929 . S
C746 O726 1.266 . S
C746 O727 1.248 . S
C747 Tb683 2.802 . S
C747 O722 1.264 . S
C747 O725 1.256 1_455 S
C747 C740 1.496 . S
H748 C731 0.929 . S
H749 C732 0.929 . S
H750 C733 0.929 . S
H751 C734 0.931 . S
H752 C742 0.929 . S
H753 C743 0.929 . S
H754 C744 0.931 . S
H755 C745 0.929 . S
Tb756 N785 2.617 . S
Tb756 N791 2.572 . S
Tb756 O800 2.465 . S
Tb756 O801 2.387 . S
Tb756 O803 2.428 . S
Tb756 O804 2.308 . S
Tb756 O808 2.349 . S
Tb756 O811 2.393 . S
Tb756 C820 2.802 . S
C757 N758 1.379 . S
C757 C760 1.416 . S
C757 C764 1.424 . S
N758 C757 1.379 . S
N758 C761 1.334 . S
N758 Tb767 2.617 . S
C759 C761 1.390 . S
C759 C762 1.339 . S
C759 H779 0.930 . S
C760 C757 1.416 . S
C760 C762 1.416 . S
C760 C766 1.448 . S
C761 N758 1.334 . S
C761 C759 1.390 . S
C761 H772 0.930 . S
C762 C759 1.339 . S
C762 C760 1.416 . S
C762 H783 0.930 . S
C763 C764 1.413 . S
C763 C765 1.427 . S
C763 C769 1.416 . S
C764 C757 1.424 . S
C764 C763 1.413 . S
C764 N768 1.361 . S
C765 C763 1.427 . S
C765 C766 1.328 . S
C765 H780 0.929 . S
C766 C760 1.448 . S
C766 C765 1.328 . S
C766 H781 0.930 . S
Tb767 N758 2.617 . S
Tb767 N768 2.572 . S
Tb767 O802 2.349 . S
Tb767 O805 2.393 . S
Tb767 O806 2.465 . S
Tb767 O807 2.387 . S
Tb767 O809 2.428 . S
Tb767 O810 2.308 . S
Tb767 C831 2.802 . S
N768 C764 1.361 . S
N768 Tb767 2.572 . S
N768 C770 1.340 . S
C769 C763 1.416 . S
C769 C771 1.332 . S
C769 H777 0.931 . S
C770 N768 1.340 . S
C770 C771 1.407 . S
C770 H776 0.930 . S
C771 C769 1.332 . S
C771 C770 1.407 . S
C771 H773 0.929 . S
H772 C761 0.930 . S
H773 C771 0.929 . S
H774 C789 0.930 . S
H775 C796 0.929 . S
H776 C770 0.930 . S
H777 C769 0.931 . S
H778 C792 0.930 . S
H779 C759 0.930 . S
H780 C765 0.929 . S
H781 C766 0.930 . S
H782 C787 0.930 . S
H783 C762 0.930 . S
H784 C795 0.931 . S
N785 Tb756 2.617 . S
N785 C786 1.379 . S
N785 C789 1.334 . S
C786 N785 1.379 . S
C786 C788 1.416 . S
C786 C794 1.424 . S
C787 H782 0.930 . S
C787 C789 1.390 . S
C787 C790 1.339 . S
C788 C786 1.416 . S
C788 C790 1.416 . S
C788 C821 1.448 . S
C789 H774 0.930 . S
C789 N785 1.334 . S
C789 C787 1.390 . S
C790 C787 1.339 . S
C790 C788 1.416 . S
C790 H797 0.930 . S
N791 Tb756 2.572 . S
N791 C792 1.340 . S
N791 C794 1.361 . S
C792 H778 0.930 . S
C792 N791 1.340 . S
C792 C796 1.407 . S
C793 C794 1.413 . S
C793 C795 1.416 . S
C793 C822 1.427 . S
C794 C786 1.424 . S
C794 N791 1.361 . S
C794 C793 1.413 . S
C795 H784 0.931 . S
C795 C793 1.416 . S
C795 C796 1.332 . S
C796 H775 0.929 . S
C796 C792 1.407 . S
C796 C795 1.332 . S
H797 C790 0.930 . S
H798 C821 0.930 . S
H799 C822 0.929 . S
O800 Tb756 2.465 . S
O800 C820 1.264 . S
O801 Tb756 2.387 . S
O801 C812 1.264 . S
O802 Tb767 2.349 . S
O802 C812 1.243 . S
O803 Tb756 2.428 . S
O803 C820 1.256 . S
O804 Tb756 2.308 . S
O804 C819 1.266 . S
O805 Tb767 2.393 . S
O805 C819 1.248 . S
O806 Tb767 2.465 . S
O806 C831 1.264 . S
O807 Tb767 2.387 . S
O807 C823 1.264 . S
O808 Tb756 2.349 . S
O808 C823 1.243 . S
O809 Tb767 2.428 . S
O809 C831 1.256 . S
O810 Tb767 2.308 . S
O810 C830 1.266 . S
O811 Tb756 2.393 . S
O811 C830 1.248 . S
C812 O801 1.264 . S
C812 O802 1.243 . S
C813 C816 1.399 . S
C813 C818 1.383 . S
C813 C820 1.496 . S
C814 C815 1.399 . S
C814 C818 1.389 . S
C815 C814 1.399 . S
C815 C817 1.380 . S
C815 H832 0.929 . S
C816 C813 1.399 . S
C816 C817 1.392 . S
C816 H833 0.929 . S
C817 C815 1.380 . S
C817 C816 1.392 . S
C817 H834 0.929 . S
C818 C813 1.383 . S
C818 C814 1.389 . S
C818 H835 0.931 . S
C819 O804 1.266 . S
C819 O805 1.248 . S
C820 Tb756 2.802 . S
C820 O800 1.264 . S
C820 O803 1.256 . S
C820 C813 1.496 . S
C821 C788 1.448 . S
C821 H798 0.930 . S
C821 C822 1.328 . S
C822 C793 1.427 . S
C822 H799 0.929 . S
C822 C821 1.328 . S
C823 O807 1.264 . S
C823 O808 1.243 . S
C824 C827 1.399 . S
C824 C828 1.383 . S
C824 C831 1.496 . S
C825 C826 1.399 . S
C825 C828 1.389 . S
C826 C825 1.399 . S
C826 C829 1.380 . S
C826 H836 0.929 . S
C827 C824 1.399 . S
C827 C829 1.392 . S
C827 H837 0.929 . S
C828 C824 1.383 . S
C828 C825 1.389 . S
C828 H838 0.931 . S
C829 C826 1.380 . S
C829 C827 1.392 . S
C829 H839 0.929 . S
C830 O810 1.266 . S
C830 O811 1.248 . S
C831 Tb767 2.802 . S
C831 O806 1.264 . S
C831 O809 1.256 . S
C831 C824 1.496 . S
H832 C815 0.929 . S
H833 C816 0.929 . S
H834 C817 0.929 . S
H835 C818 0.931 . S
H836 C826 0.929 . S
H837 C827 0.929 . S
H838 C828 0.931 . S
H839 C829 0.929 . S
Tb840 N869 2.617 . S
Tb840 N875 2.572 . S
Tb840 O884 2.465 . S
Tb840 O885 2.387 1_556 S
Tb840 O887 2.428 . S
Tb840 O888 2.307 . S
Tb840 O892 2.349 1_556 S
Tb840 O895 2.393 1_556 S
Tb840 C904 2.802 . S
C841 N842 1.379 1_545 S
C841 C844 1.416 1_545 S
C841 C848 1.424 . S
N842 C841 1.379 1_565 S
N842 C845 1.334 . S
N842 Tb851 2.617 1_565 S
C843 C845 1.390 . S
C843 C846 1.339 . S
C843 H863 0.930 . S
C844 C841 1.416 1_565 S
C844 C846 1.416 . S
C844 C850 1.448 1_565 S
C845 N842 1.334 . S
C845 C843 1.390 . S
C845 H856 0.930 . S
C846 C843 1.339 . S
C846 C844 1.416 . S
C846 H867 0.930 . S
C847 C848 1.413 . S
C847 C849 1.427 . S
C847 C853 1.416 . S
C848 C841 1.424 . S
C848 C847 1.413 . S
C848 N852 1.361 . S
C849 C847 1.427 . S
C849 C850 1.328 . S
C849 H864 0.929 . S
C850 C844 1.448 1_545 S
C850 C849 1.328 . S
C850 H865 0.930 1_545 S
Tb851 N842 2.617 1_545 S
Tb851 N852 2.572 . S
Tb851 O886 2.349 . S
Tb851 O889 2.393 1_545 S
Tb851 O890 2.465 . S
Tb851 O891 2.387 . S
Tb851 O893 2.428 1_545 S
Tb851 O894 2.308 . S
Tb851 C915 2.802 . S
N852 C848 1.361 . S
N852 Tb851 2.572 . S
N852 C854 1.340 . S
C853 C847 1.416 . S
C853 C855 1.332 . S
C853 H861 0.931 . S
C854 N852 1.340 . S
C854 C855 1.407 . S
C854 H860 0.930 . S
C855 C853 1.332 . S
C855 C854 1.407 . S
C855 H857 0.929 . S
H856 C845 0.930 . S
H857 C855 0.929 . S
H858 C873 0.930 1_554 S
H859 C880 0.929 . S
H860 C854 0.930 . S
H861 C853 0.931 . S
H862 C876 0.930 . S
H863 C843 0.930 . S
H864 C849 0.929 . S
H865 C850 0.930 1_565 S
H866 C871 0.930 . S
H867 C846 0.930 . S
H868 C879 0.923 1_565 S
N869 Tb840 2.617 . S
N869 C870 1.379 . S
N869 C873 1.334 . S
C870 N869 1.379 . S
C870 C872 1.416 . S
C870 C878 1.424 . S
C871 H866 0.930 . S
C871 C873 1.390 . S
C871 C874 1.339 . S
C872 C870 1.416 . S
C872 C874 1.416 . S
C872 C905 1.448 . S
C873 H858 0.930 1_556 S
C873 N869 1.334 . S
C873 C871 1.390 . S
C874 C871 1.339 . S
C874 C872 1.416 . S
C874 H881 0.930 . S
N875 Tb840 2.572 . S
N875 C876 1.340 . S
N875 C878 1.361 . S
C876 H862 0.930 . S
C876 N875 1.340 . S
C876 C880 1.407 1_545 S
C877 C878 1.413 . S
C877 C879 1.416 . S
C877 C906 1.427 . S
C878 C870 1.424 . S
C878 N875 1.361 . S
C878 C877 1.413 . S
C879 H868 0.923 1_545 S
C879 C877 1.416 . S
C879 C880 1.332 1_545 S
C880 H859 0.929 . S
C880 C876 1.407 1_565 S
C880 C879 1.332 1_565 S
H881 C874 0.930 . S
H882 C905 0.930 . S
H883 C906 0.929 . S
O884 Tb840 2.465 . S
O884 C904 1.264 . S
O885 Tb840 2.387 1_554 S
O885 C896 1.264 . S
O886 Tb851 2.349 . S
O886 C896 1.243 . S
O887 Tb840 2.428 . S
O887 C904 1.256 . S
O888 Tb840 2.307 . S
O888 C903 1.268 1_546 S
O889 Tb851 2.393 1_565 S
O889 C903 1.248 . S
O890 Tb851 2.465 . S
O890 C915 1.264 . S
O891 Tb851 2.387 . S
O891 C907 1.264 . S
O892 Tb840 2.349 1_554 S
O892 C907 1.243 . S
O893 Tb851 2.428 1_565 S
O893 C915 1.256 1_565 S
O894 Tb851 2.308 . S
O894 C914 1.266 . S
O895 Tb840 2.393 1_554 S
O895 C914 1.248 . S
C896 O885 1.264 . S
C896 O886 1.243 . S
C897 C900 1.399 . S
C897 C902 1.383 . S
C897 C904 1.496 . S
C898 C899 1.399 . S
C898 C902 1.389 . S
C899 C898 1.399 . S
C899 C901 1.380 . S
C899 H916 0.929 . S
C900 C897 1.399 . S
C900 C901 1.392 . S
C900 H917 0.929 . S
C901 C899 1.380 . S
C901 C900 1.392 . S
C901 H918 0.929 . S
C902 C897 1.383 . S
C902 C898 1.389 . S
C902 H919 0.931 . S
C903 O888 1.268 1_564 S
C903 O889 1.248 . S
C904 Tb840 2.802 . S
C904 O884 1.264 . S
C904 O887 1.256 . S
C904 C897 1.496 . S
C905 C872 1.448 . S
C905 H882 0.930 . S
C905 C906 1.328 . S
C906 C877 1.427 . S
C906 H883 0.929 . S
C906 C905 1.328 . S
C907 O891 1.264 . S
C907 O892 1.243 . S
C908 C911 1.399 . S
C908 C912 1.383 1_565 S
C908 C915 1.496 1_565 S
C909 C910 1.399 1_545 S
C909 C912 1.389 . S
C910 C909 1.399 1_565 S
C910 C913 1.380 . S
C910 H920 0.929 . S
C911 C908 1.399 . S
C911 C913 1.392 . S
C911 H921 0.929 . S
C912 C908 1.383 1_545 S
C912 C909 1.389 . S
C912 H922 0.931 . S
C913 C910 1.380 . S
C913 C911 1.392 . S
C913 H923 0.929 . S
C914 O894 1.266 . S
C914 O895 1.248 . S
C915 Tb851 2.802 . S
C915 O890 1.264 . S
C915 O893 1.256 1_545 S
C915 C908 1.496 1_545 S
H916 C899 0.929 . S
H917 C900 0.929 . S
H918 C901 0.929 . S
H919 C902 0.931 . S
H920 C910 0.929 . S
H921 C911 0.929 . S
H922 C912 0.931 . S
H923 C913 0.929 . S
Tb924 N953 2.617 . S
Tb924 N959 2.572 . S
Tb924 O968 2.465 . S
Tb924 O969 2.387 . S
Tb924 O971 2.428 . S
Tb924 O972 2.308 . S
Tb924 O976 2.349 . S
Tb924 O979 2.393 . S
Tb924 C988 2.802 . S
C925 N926 1.379 . S
C925 C928 1.416 . S
C925 C932 1.424 . S
N926 C925 1.379 . S
N926 C929 1.334 . S
N926 Tb935 2.617 . S
C927 C929 1.390 . S
C927 C930 1.339 . S
C927 H947 0.930 . S
C928 C925 1.416 . S
C928 C930 1.416 . S
C928 C934 1.448 . S
C929 N926 1.334 . S
C929 C927 1.390 . S
C929 H940 0.930 . S
C930 C927 1.339 . S
C930 C928 1.416 . S
C930 H951 0.930 . S
C931 C932 1.413 . S
C931 C933 1.427 . S
C931 C937 1.416 . S
C932 C925 1.424 . S
C932 C931 1.413 . S
C932 N936 1.361 . S
C933 C931 1.427 . S
C933 C934 1.328 . S
C933 H948 0.929 . S
C934 C928 1.448 . S
C934 C933 1.328 . S
C934 H949 0.930 . S
Tb935 N926 2.617 . S
Tb935 N936 2.572 . S
Tb935 O970 2.349 . S
Tb935 O973 2.393 . S
Tb935 O974 2.465 . S
Tb935 O975 2.387 . S
Tb935 O977 2.428 . S
Tb935 O978 2.308 . S
Tb935 C999 2.802 . S
N936 C932 1.361 . S
N936 Tb935 2.572 . S
N936 C938 1.340 . S
C937 C931 1.416 . S
C937 C939 1.332 . S
C937 H945 0.931 . S
C938 N936 1.340 . S
C938 C939 1.407 . S
C938 H944 0.930 . S
C939 C937 1.332 . S
C939 C938 1.407 . S
C939 H941 0.929 . S
H940 C929 0.930 . S
H941 C939 0.929 . S
H942 C957 0.930 . S
H943 C964 0.929 . S
H944 C938 0.930 . S
H945 C937 0.931 . S
H946 C960 0.930 . S
H947 C927 0.930 . S
H948 C933 0.929 . S
H949 C934 0.930 . S
H950 C955 0.930 . S
H951 C930 0.930 . S
H952 C963 0.931 . S
N953 Tb924 2.617 . S
N953 C954 1.379 . S
N953 C957 1.334 . S
C954 N953 1.379 . S
C954 C956 1.416 . S
C954 C962 1.424 . S
C955 H950 0.930 . S
C955 C957 1.390 . S
C955 C958 1.339 . S
C956 C954 1.416 . S
C956 C958 1.416 . S
C956 C989 1.448 . S
C957 H942 0.930 . S
C957 N953 1.334 . S
C957 C955 1.390 . S
C958 C955 1.339 . S
C958 C956 1.416 . S
C958 H965 0.930 . S
N959 Tb924 2.572 . S
N959 C960 1.340 . S
N959 C962 1.361 . S
C960 H946 0.930 . S
C960 N959 1.340 . S
C960 C964 1.407 . S
C961 C962 1.413 . S
C961 C963 1.416 . S
C961 C990 1.427 . S
C962 C954 1.424 . S
C962 N959 1.361 . S
C962 C961 1.413 . S
C963 H952 0.931 . S
C963 C961 1.416 . S
C963 C964 1.332 . S
C964 H943 0.929 . S
C964 C960 1.407 . S
C964 C963 1.332 . S
H965 C958 0.930 . S
H966 C989 0.930 . S
H967 C990 0.929 . S
O968 Tb924 2.465 . S
O968 C988 1.264 . S
O969 Tb924 2.387 . S
O969 C980 1.264 . S
O970 Tb935 2.349 . S
O970 C980 1.243 . S
O971 Tb924 2.428 . S
O971 C988 1.256 . S
O972 Tb924 2.308 . S
O972 C987 1.266 . S
O973 Tb935 2.393 . S
O973 C987 1.248 . S
O974 Tb935 2.465 . S
O974 C999 1.264 . S
O975 Tb935 2.387 . S
O975 C991 1.264 . S
O976 Tb924 2.349 . S
O976 C991 1.243 . S
O977 Tb935 2.428 . S
O977 C999 1.256 . S
O978 Tb935 2.308 . S
O978 C998 1.266 . S
O979 Tb924 2.393 . S
O979 C998 1.248 . S
C980 O969 1.264 . S
C980 O970 1.243 . S
C981 C984 1.399 . S
C981 C986 1.383 . S
C981 C988 1.496 . S
C982 C983 1.399 . S
C982 C986 1.389 . S
C983 C982 1.399 . S
C983 C985 1.380 . S
C983 H1000 0.929 . S
C984 C981 1.399 . S
C984 C985 1.392 . S
C984 H1001 0.929 . S
C985 C983 1.380 . S
C985 C984 1.392 . S
C985 H1002 0.929 . S
C986 C981 1.383 . S
C986 C982 1.389 . S
C986 H1003 0.931 . S
C987 O972 1.266 . S
C987 O973 1.248 . S
C988 Tb924 2.802 . S
C988 O968 1.264 . S
C988 O971 1.256 . S
C988 C981 1.496 . S
C989 C956 1.448 . S
C989 H966 0.930 . S
C989 C990 1.328 . S
C990 C961 1.427 . S
C990 H967 0.929 . S
C990 C989 1.328 . S
C991 O975 1.264 . S
C991 O976 1.243 . S
C992 C995 1.399 . S
C992 C996 1.383 . S
C992 C999 1.496 . S
C993 C994 1.399 . S
C993 C996 1.389 . S
C994 C993 1.399 . S
C994 C997 1.380 . S
C994 H1004 0.929 . S
C995 C992 1.399 . S
C995 C997 1.392 . S
C995 H1005 0.929 . S
C996 C992 1.383 . S
C996 C993 1.389 . S
C996 H1006 0.931 . S
C997 C994 1.380 . S
C997 C995 1.392 . S
C997 H1007 0.929 . S
C998 O978 1.266 . S
C998 O979 1.248 . S
C999 Tb935 2.802 . S
C999 O974 1.264 . S
C999 O977 1.256 . S
C999 C992 1.496 . S
H1000 C983 0.929 . S
H1001 C984 0.929 . S
H1002 C985 0.929 . S
H1003 C986 0.931 . S
H1004 C994 0.929 . S
H1005 C995 0.929 . S
H1006 C996 0.931 . S
H1007 C997 0.929 . S
Tb1008 N1037 2.617 1_554 S
Tb1008 N1043 2.572 1_554 S
Tb1008 O1052 2.465 . S
Tb1008 O1053 2.387 1_554 S
Tb1008 O1055 2.428 . S
Tb1008 O1056 2.308 . S
Tb1008 O1060 2.349 . S
Tb1008 O1063 2.393 . S
Tb1008 C1072 2.802 . S
C1009 N1010 1.379 . S
C1009 C1012 1.416 . S
C1009 C1016 1.424 . S
N1010 C1009 1.379 . S
N1010 C1013 1.334 . S
N1010 Tb1019 2.617 . S
C1011 C1013 1.390 . S
C1011 C1014 1.339 . S
C1011 H1031 0.930 . S
C1012 C1009 1.416 . S
C1012 C1014 1.416 . S
C1012 C1018 1.448 . S
C1013 N1010 1.334 . S
C1013 C1011 1.390 . S
C1013 H1024 0.930 . S
C1014 C1011 1.339 . S
C1014 C1012 1.416 . S
C1014 H1035 0.930 . S
C1015 C1016 1.413 . S
C1015 C1017 1.427 . S
C1015 C1021 1.416 . S
C1016 C1009 1.424 . S
C1016 C1015 1.413 . S
C1016 N1020 1.361 . S
C1017 C1015 1.427 . S
C1017 C1018 1.328 . S
C1017 H1032 0.929 . S
C1018 C1012 1.448 . S
C1018 C1017 1.328 . S
C1018 H1033 0.930 . S
Tb1019 N1010 2.617 . S
Tb1019 N1020 2.572 . S
Tb1019 O1054 2.349 1_554 S
Tb1019 O1057 2.393 . S
Tb1019 O1058 2.465 . S
Tb1019 O1059 2.387 . S
Tb1019 O1061 2.428 . S
Tb1019 O1062 2.308 . S
Tb1019 C1083 2.802 . S
N1020 C1016 1.361 . S
N1020 Tb1019 2.572 . S
N1020 C1022 1.340 . S
C1021 C1015 1.416 . S
C1021 C1023 1.332 . S
C1021 H1029 0.931 . S
C1022 N1020 1.340 . S
C1022 C1023 1.407 . S
C1022 H1028 0.930 . S
C1023 C1021 1.332 . S
C1023 C1022 1.407 . S
C1023 H1025 0.929 . S
H1024 C1013 0.930 . S
H1025 C1023 0.929 . S
H1026 C1041 0.930 1_554 S
H1027 C1048 0.929 . S
H1028 C1022 0.930 . S
H1029 C1021 0.931 . S
H1030 C1044 0.930 1_554 S
H1031 C1011 0.930 . S
H1032 C1017 0.929 . S
H1033 C1018 0.930 . S
H1034 C1039 0.930 . S
H1035 C1014 0.930 . S
H1036 C1047 0.931 . S
N1037 Tb1008 2.617 1_556 S
N1037 C1038 1.379 . S
N1037 C1041 1.334 . S
C1038 N1037 1.379 . S
C1038 C1040 1.416 . S
C1038 C1046 1.424 . S
C1039 H1034 0.930 . S
C1039 C1041 1.390 . S
C1039 C1042 1.339 . S
C1040 C1038 1.416 . S
C1040 C1042 1.416 . S
C1040 C1073 1.448 . S
C1041 H1026 0.930 1_556 S
C1041 N1037 1.334 . S
C1041 C1039 1.390 . S
C1042 C1039 1.339 . S
C1042 C1040 1.416 . S
C1042 H1049 0.930 . S
N1043 Tb1008 2.572 1_556 S
N1043 C1044 1.340 . S
N1043 C1046 1.361 . S
C1044 H1030 0.930 1_556 S
C1044 N1043 1.340 . S
C1044 C1048 1.407 . S
C1045 C1046 1.413 . S
C1045 C1047 1.416 . S
C1045 C1074 1.427 . S
C1046 C1038 1.424 . S
C1046 N1043 1.361 . S
C1046 C1045 1.413 . S
C1047 H1036 0.931 . S
C1047 C1045 1.416 . S
C1047 C1048 1.332 . S
C1048 H1027 0.929 . S
C1048 C1044 1.407 . S
C1048 C1047 1.332 . S
H1049 C1042 0.930 . S
H1050 C1073 0.930 . S
H1051 C1074 0.929 . S
O1052 Tb1008 2.465 . S
O1052 C1072 1.264 . S
O1053 Tb1008 2.387 1_556 S
O1053 C1064 1.264 . S
O1054 Tb1019 2.349 1_556 S
O1054 C1064 1.243 . S
O1055 Tb1008 2.428 . S
O1055 C1072 1.256 . S
O1056 Tb1008 2.308 . S
O1056 C1071 1.266 . S
O1057 Tb1019 2.393 . S
O1057 C1071 1.248 . S
O1058 Tb1019 2.465 . S
O1058 C1083 1.264 . S
O1059 Tb1019 2.387 . S
O1059 C1075 1.264 . S
O1060 Tb1008 2.349 . S
O1060 C1075 1.243 . S
O1061 Tb1019 2.428 . S
O1061 C1083 1.256 . S
O1062 Tb1019 2.308 . S
O1062 C1082 1.266 . S
O1063 Tb1008 2.393 . S
O1063 C1082 1.248 . S
C1064 O1053 1.264 . S
C1064 O1054 1.243 . S
C1065 C1068 1.399 . S
C1065 C1070 1.383 . S
C1065 C1072 1.496 . S
C1066 C1067 1.399 . S
C1066 C1070 1.389 . S
C1067 C1066 1.399 . S
C1067 C1069 1.380 . S
C1067 H1084 0.929 . S
C1068 C1065 1.399 . S
C1068 C1069 1.392 . S
C1068 H1085 0.929 . S
C1069 C1067 1.380 . S
C1069 C1068 1.392 . S
C1069 H1086 0.929 . S
C1070 C1065 1.383 . S
C1070 C1066 1.389 . S
C1070 H1087 0.931 . S
C1071 O1056 1.266 . S
C1071 O1057 1.248 . S
C1072 Tb1008 2.802 . S
C1072 O1052 1.264 . S
C1072 O1055 1.256 . S
C1072 C1065 1.496 . S
C1073 C1040 1.448 . S
C1073 H1050 0.930 . S
C1073 C1074 1.328 . S
C1074 C1045 1.427 . S
C1074 H1051 0.929 . S
C1074 C1073 1.328 . S
C1075 O1059 1.264 . S
C1075 O1060 1.243 . S
C1076 C1079 1.399 . S
C1076 C1080 1.383 . S
C1076 C1083 1.496 1_556 S
C1077 C1078 1.399 . S
C1077 C1080 1.389 . S
C1078 C1077 1.399 . S
C1078 C1081 1.380 . S
C1078 H1088 0.929 . S
C1079 C1076 1.399 . S
C1079 C1081 1.392 . S
C1079 H1089 0.930 1_556 S
C1080 C1076 1.383 . S
C1080 C1077 1.389 . S
C1080 H1090 0.931 . S
C1081 C1078 1.380 . S
C1081 C1079 1.392 . S
C1081 H1091 0.929 . S
C1082 O1062 1.266 . S
C1082 O1063 1.248 . S
C1083 Tb1019 2.802 . S
C1083 O1058 1.264 . S
C1083 O1061 1.256 . S
C1083 C1076 1.496 1_554 S
H1084 C1067 0.929 . S
H1085 C1068 0.929 . S
H1086 C1069 0.929 . S
H1087 C1070 0.931 . S
H1088 C1078 0.929 . S
H1089 C1079 0.930 1_554 S
H1090 C1080 0.931 . S
H1091 C1081 0.929 . S
Tb1092 N1121 2.617 . S
Tb1092 N1127 2.572 . S
Tb1092 O1136 2.465 . S
Tb1092 O1137 2.387 . S
Tb1092 O1139 2.428 . S
Tb1092 O1140 2.308 . S
Tb1092 O1144 2.349 . S
Tb1092 O1147 2.393 . S
Tb1092 C1156 2.802 . S
C1093 N1094 1.379 . S
C1093 C1096 1.416 . S
C1093 C1100 1.424 . S
N1094 C1093 1.379 . S
N1094 C1097 1.334 . S
N1094 Tb1103 2.617 . S
C1095 C1097 1.390 . S
C1095 C1098 1.339 . S
C1095 H1115 0.930 . S
C1096 C1093 1.416 . S
C1096 C1098 1.416 . S
C1096 C1102 1.448 . S
C1097 N1094 1.334 . S
C1097 C1095 1.390 . S
C1097 H1108 0.930 . S
C1098 C1095 1.339 . S
C1098 C1096 1.416 . S
C1098 H1119 0.930 . S
C1099 C1100 1.413 . S
C1099 C1101 1.427 . S
C1099 C1105 1.416 . S
C1100 C1093 1.424 . S
C1100 C1099 1.413 . S
C1100 N1104 1.361 . S
C1101 C1099 1.427 . S
C1101 C1102 1.328 . S
C1101 H1116 0.929 . S
C1102 C1096 1.448 . S
C1102 C1101 1.328 . S
C1102 H1117 0.930 . S
Tb1103 N1094 2.617 . S
Tb1103 N1104 2.572 . S
Tb1103 O1138 2.349 . S
Tb1103 O1141 2.393 . S
Tb1103 O1142 2.465 . S
Tb1103 O1143 2.387 . S
Tb1103 O1145 2.428 . S
Tb1103 O1146 2.308 . S
Tb1103 C1167 2.802 . S
N1104 C1100 1.361 . S
N1104 Tb1103 2.572 . S
N1104 C1106 1.340 . S
C1105 C1099 1.416 . S
C1105 C1107 1.332 . S
C1105 H1113 0.931 . S
C1106 N1104 1.340 . S
C1106 C1107 1.407 . S
C1106 H1112 0.930 . S
C1107 C1105 1.332 . S
C1107 C1106 1.407 . S
C1107 H1109 0.929 . S
H1108 C1097 0.930 . S
H1109 C1107 0.929 . S
H1110 C1125 0.930 . S
H1111 C1132 0.929 . S
H1112 C1106 0.930 . S
H1113 C1105 0.931 . S
H1114 C1128 0.930 . S
H1115 C1095 0.930 . S
H1116 C1101 0.929 . S
H1117 C1102 0.930 . S
H1118 C1123 0.930 . S
H1119 C1098 0.930 . S
H1120 C1131 0.931 . S
N1121 Tb1092 2.617 . S
N1121 C1122 1.379 . S
N1121 C1125 1.334 . S
C1122 N1121 1.379 . S
C1122 C1124 1.416 . S
C1122 C1130 1.424 . S
C1123 H1118 0.930 . S
C1123 C1125 1.390 . S
C1123 C1126 1.339 . S
C1124 C1122 1.416 . S
C1124 C1126 1.416 . S
C1124 C1157 1.448 . S
C1125 H1110 0.930 . S
C1125 N1121 1.334 . S
C1125 C1123 1.390 . S
C1126 C1123 1.339 . S
C1126 C1124 1.416 . S
C1126 H1133 0.930 . S
N1127 Tb1092 2.572 . S
N1127 C1128 1.340 . S
N1127 C1130 1.361 . S
C1128 H1114 0.930 . S
C1128 N1127 1.340 . S
C1128 C1132 1.407 . S
C1129 C1130 1.413 . S
C1129 C1131 1.416 . S
C1129 C1158 1.427 . S
C1130 C1122 1.424 . S
C1130 N1127 1.361 . S
C1130 C1129 1.413 . S
C1131 H1120 0.931 . S
C1131 C1129 1.416 . S
C1131 C1132 1.332 . S
C1132 H1111 0.929 . S
C1132 C1128 1.407 . S
C1132 C1131 1.332 . S
H1133 C1126 0.930 . S
H1134 C1157 0.930 . S
H1135 C1158 0.929 . S
O1136 Tb1092 2.465 . S
O1136 C1156 1.264 . S
O1137 Tb1092 2.387 . S
O1137 C1148 1.264 . S
O1138 Tb1103 2.349 . S
O1138 C1148 1.243 . S
O1139 Tb1092 2.428 . S
O1139 C1156 1.256 . S
O1140 Tb1092 2.308 . S
O1140 C1155 1.266 . S
O1141 Tb1103 2.393 . S
O1141 C1155 1.248 . S
O1142 Tb1103 2.465 . S
O1142 C1167 1.264 . S
O1143 Tb1103 2.387 . S
O1143 C1159 1.264 . S
O1144 Tb1092 2.349 . S
O1144 C1159 1.243 . S
O1145 Tb1103 2.428 . S
O1145 C1167 1.256 . S
O1146 Tb1103 2.308 . S
O1146 C1166 1.266 . S
O1147 Tb1092 2.393 . S
O1147 C1166 1.248 . S
C1148 O1137 1.264 . S
C1148 O1138 1.243 . S
C1149 C1152 1.399 . S
C1149 C1154 1.383 . S
C1149 C1156 1.496 . S
C1150 C1151 1.399 . S
C1150 C1154 1.389 . S
C1151 C1150 1.399 . S
C1151 C1153 1.380 . S
C1151 H1168 0.929 . S
C1152 C1149 1.399 . S
C1152 C1153 1.392 . S
C1152 H1169 0.929 . S
C1153 C1151 1.380 . S
C1153 C1152 1.392 . S
C1153 H1170 0.929 . S
C1154 C1149 1.383 . S
C1154 C1150 1.389 . S
C1154 H1171 0.931 . S
C1155 O1140 1.266 . S
C1155 O1141 1.248 . S
C1156 Tb1092 2.802 . S
C1156 O1136 1.264 . S
C1156 O1139 1.256 . S
C1156 C1149 1.496 . S
C1157 C1124 1.448 . S
C1157 H1134 0.930 . S
C1157 C1158 1.328 . S
C1158 C1129 1.427 . S
C1158 H1135 0.929 . S
C1158 C1157 1.328 . S
C1159 O1143 1.264 . S
C1159 O1144 1.243 . S
C1160 C1163 1.399 . S
C1160 C1164 1.383 . S
C1160 C1167 1.496 . S
C1161 C1162 1.399 . S
C1161 C1164 1.389 . S
C1162 C1161 1.399 . S
C1162 C1165 1.380 . S
C1162 H1172 0.929 . S
C1163 C1160 1.399 . S
C1163 C1165 1.392 . S
C1163 H1173 0.929 . S
C1164 C1160 1.383 . S
C1164 C1161 1.389 . S
C1164 H1174 0.931 . S
C1165 C1162 1.380 . S
C1165 C1163 1.392 . S
C1165 H1175 0.929 . S
C1166 O1146 1.266 . S
C1166 O1147 1.248 . S
C1167 Tb1103 2.802 . S
C1167 O1142 1.264 . S
C1167 O1145 1.256 . S
C1167 C1160 1.496 . S
H1168 C1151 0.929 . S
H1169 C1152 0.929 . S
H1170 C1153 0.929 . S
H1171 C1154 0.931 . S
H1172 C1162 0.929 . S
H1173 C1163 0.929 . S
H1174 C1164 0.931 . S
H1175 C1165 0.929 . S
Tb1176 N1205 2.617 1_455 S
Tb1176 N1211 2.572 1_455 S
Tb1176 O1220 2.465 . S
Tb1176 O1221 2.387 1_455 S
Tb1176 O1223 2.428 . S
Tb1176 O1224 2.308 . S
Tb1176 O1228 2.349 . S
Tb1176 O1231 2.393 . S
Tb1176 C1240 2.802 . S
C1177 N1178 1.379 . S
C1177 C1180 1.416 . S
C1177 C1184 1.424 . S
N1178 C1177 1.379 . S
N1178 C1181 1.334 . S
N1178 Tb1187 2.617 . S
C1179 C1181 1.390 . S
C1179 C1182 1.339 . S
C1179 H1199 0.930 . S
C1180 C1177 1.416 . S
C1180 C1182 1.416 . S
C1180 C1186 1.448 . S
C1181 N1178 1.334 . S
C1181 C1179 1.390 . S
C1181 H1192 0.930 . S
C1182 C1179 1.339 . S
C1182 C1180 1.416 . S
C1182 H1203 0.930 . S
C1183 C1184 1.413 . S
C1183 C1185 1.427 . S
C1183 C1189 1.416 . S
C1184 C1177 1.424 . S
C1184 C1183 1.413 . S
C1184 N1188 1.361 . S
C1185 C1183 1.427 . S
C1185 C1186 1.328 . S
C1185 H1200 0.929 . S
C1186 C1180 1.448 . S
C1186 C1185 1.328 . S
C1186 H1201 0.930 . S
Tb1187 N1178 2.617 . S
Tb1187 N1188 2.572 . S
Tb1187 O1222 2.349 1_455 S
Tb1187 O1225 2.393 . S
Tb1187 O1226 2.465 . S
Tb1187 O1227 2.387 . S
Tb1187 O1229 2.428 . S
Tb1187 O1230 2.308 . S
Tb1187 C1251 2.802 . S
N1188 C1184 1.361 . S
N1188 Tb1187 2.572 . S
N1188 C1190 1.340 . S
C1189 C1183 1.416 . S
C1189 C1191 1.332 . S
C1189 H1197 0.931 . S
C1190 N1188 1.340 . S
C1190 C1191 1.407 . S
C1190 H1196 0.930 . S
C1191 C1189 1.332 . S
C1191 C1190 1.407 . S
C1191 H1193 0.929 . S
H1192 C1181 0.930 . S
H1193 C1191 0.929 . S
H1194 C1209 0.928 1_455 S
H1195 C1216 0.929 . S
H1196 C1190 0.930 . S
H1197 C1189 0.931 . S
H1198 C1212 0.930 1_455 S
H1199 C1179 0.930 . S
H1200 C1185 0.929 . S
H1201 C1186 0.930 . S
H1202 C1207 0.930 . S
H1203 C1182 0.930 . S
H1204 C1215 0.931 . S
N1205 Tb1176 2.617 1_655 S
N1205 C1206 1.379 . S
N1205 C1209 1.334 . S
C1206 N1205 1.379 . S
C1206 C1208 1.416 . S
C1206 C1214 1.424 . S
C1207 H1202 0.930 . S
C1207 C1209 1.392 . S
C1207 C1210 1.339 . S
C1208 C1206 1.416 . S
C1208 C1210 1.416 . S
C1208 C1241 1.448 . S
C1209 H1194 0.928 1_655 S
C1209 N1205 1.334 . S
C1209 C1207 1.392 . S
C1210 C1207 1.339 . S
C1210 C1208 1.416 . S
C1210 H1217 0.930 . S
N1211 Tb1176 2.572 1_655 S
N1211 C1212 1.340 . S
N1211 C1214 1.361 . S
C1212 H1198 0.930 1_655 S
C1212 N1211 1.340 . S
C1212 C1216 1.407 . S
C1213 C1214 1.413 . S
C1213 C1215 1.416 . S
C1213 C1242 1.427 . S
C1214 C1206 1.424 . S
C1214 N1211 1.361 . S
C1214 C1213 1.413 . S
C1215 H1204 0.931 . S
C1215 C1213 1.416 . S
C1215 C1216 1.332 . S
C1216 H1195 0.929 . S
C1216 C1212 1.407 . S
C1216 C1215 1.332 . S
H1217 C1210 0.930 . S
H1218 C1241 0.930 . S
H1219 C1242 0.929 . S
O1220 Tb1176 2.465 . S
O1220 C1240 1.264 . S
O1221 Tb1176 2.387 1_655 S
O1221 C1232 1.264 . S
O1222 Tb1187 2.349 1_655 S
O1222 C1232 1.243 . S
O1223 Tb1176 2.428 . S
O1223 C1240 1.256 . S
O1224 Tb1176 2.308 . S
O1224 C1239 1.266 . S
O1225 Tb1187 2.393 . S
O1225 C1239 1.248 . S
O1226 Tb1187 2.465 . S
O1226 C1251 1.264 . S
O1227 Tb1187 2.387 . S
O1227 C1243 1.264 . S
O1228 Tb1176 2.349 . S
O1228 C1243 1.243 . S
O1229 Tb1187 2.428 . S
O1229 C1251 1.256 . S
O1230 Tb1187 2.308 . S
O1230 C1250 1.266 . S
O1231 Tb1176 2.393 . S
O1231 C1250 1.248 . S
C1232 O1221 1.264 . S
C1232 O1222 1.243 . S
C1233 C1236 1.399 . S
C1233 C1238 1.383 . S
C1233 C1240 1.496 . S
C1234 C1235 1.399 . S
C1234 C1238 1.389 . S
C1235 C1234 1.399 . S
C1235 C1237 1.380 . S
C1235 H1252 0.929 . S
C1236 C1233 1.399 . S
C1236 C1237 1.392 . S
C1236 H1253 0.929 . S
C1237 C1235 1.380 . S
C1237 C1236 1.392 . S
C1237 H1254 0.929 . S
C1238 C1233 1.383 . S
C1238 C1234 1.389 . S
C1238 H1255 0.931 . S
C1239 O1224 1.266 . S
C1239 O1225 1.248 . S
C1240 Tb1176 2.802 . S
C1240 O1220 1.264 . S
C1240 O1223 1.256 . S
C1240 C1233 1.496 . S
C1241 C1208 1.448 . S
C1241 H1218 0.930 . S
C1241 C1242 1.328 . S
C1242 C1213 1.427 . S
C1242 H1219 0.929 . S
C1242 C1241 1.328 . S
C1243 O1227 1.264 . S
C1243 O1228 1.243 . S
C1244 C1247 1.399 . S
C1244 C1248 1.383 . S
C1244 C1251 1.496 1_655 S
C1245 C1246 1.399 . S
C1245 C1248 1.389 . S
C1246 C1245 1.399 . S
C1246 C1249 1.380 . S
C1246 H1256 0.929 . S
C1247 C1244 1.399 . S
C1247 C1249 1.392 . S
C1247 H1257 0.929 . S
C1248 C1244 1.383 . S
C1248 C1245 1.389 . S
C1248 H1258 0.931 . S
C1249 C1246 1.380 . S
C1249 C1247 1.392 . S
C1249 H1259 0.929 . S
C1250 O1230 1.266 . S
C1250 O1231 1.248 . S
C1251 Tb1187 2.802 . S
C1251 O1226 1.264 . S
C1251 O1229 1.256 . S
C1251 C1244 1.496 1_455 S
H1252 C1235 0.929 . S
H1253 C1236 0.929 . S
H1254 C1237 0.929 . S
H1255 C1238 0.931 . S
H1256 C1246 0.929 . S
H1257 C1247 0.929 . S
H1258 C1248 0.931 . S
H1259 C1249 0.929 . S
Tb1260 N1289 2.617 . S
Tb1260 N1295 2.572 . S
Tb1260 O1304 2.465 . S
Tb1260 O1305 2.387 . S
Tb1260 O1307 2.428 . S
Tb1260 O1308 2.308 . S
Tb1260 O1312 2.349 . S
Tb1260 O1315 2.393 . S
Tb1260 C1324 2.802 . S
C1261 N1262 1.379 . S
C1261 C1264 1.416 . S
C1261 C1268 1.424 . S
N1262 C1261 1.379 . S
N1262 C1265 1.334 . S
N1262 Tb1271 2.617 . S
C1263 C1265 1.390 . S
C1263 C1266 1.339 . S
C1263 H1283 0.930 . S
C1264 C1261 1.416 . S
C1264 C1266 1.416 . S
C1264 C1270 1.448 . S
C1265 N1262 1.334 . S
C1265 C1263 1.390 . S
C1265 H1276 0.930 . S
C1266 C1263 1.339 . S
C1266 C1264 1.416 . S
C1266 H1287 0.930 . S
C1267 C1268 1.413 . S
C1267 C1269 1.427 . S
C1267 C1273 1.416 . S
C1268 C1261 1.424 . S
C1268 C1267 1.413 . S
C1268 N1272 1.361 . S
C1269 C1267 1.427 . S
C1269 C1270 1.328 . S
C1269 H1284 0.929 . S
C1270 C1264 1.448 . S
C1270 C1269 1.328 . S
C1270 H1285 0.930 . S
Tb1271 N1262 2.617 . S
Tb1271 N1272 2.572 . S
Tb1271 O1306 2.349 . S
Tb1271 O1309 2.393 . S
Tb1271 O1310 2.465 . S
Tb1271 O1311 2.387 . S
Tb1271 O1313 2.428 . S
Tb1271 O1314 2.308 . S
Tb1271 C1335 2.802 . S
N1272 C1268 1.361 . S
N1272 Tb1271 2.572 . S
N1272 C1274 1.340 . S
C1273 C1267 1.416 . S
C1273 C1275 1.332 . S
C1273 H1281 0.931 . S
C1274 N1272 1.340 . S
C1274 C1275 1.407 . S
C1274 H1280 0.930 . S
C1275 C1273 1.332 . S
C1275 C1274 1.407 . S
C1275 H1277 0.929 . S
H1276 C1265 0.930 . S
H1277 C1275 0.929 . S
H1278 C1293 0.930 . S
H1279 C1300 0.929 . S
H1280 C1274 0.930 . S
H1281 C1273 0.931 . S
H1282 C1296 0.930 . S
H1283 C1263 0.930 . S
H1284 C1269 0.929 . S
H1285 C1270 0.930 . S
H1286 C1291 0.930 . S
H1287 C1266 0.930 . S
H1288 C1299 0.931 . S
N1289 Tb1260 2.617 . S
N1289 C1290 1.379 . S
N1289 C1293 1.334 . S
C1290 N1289 1.379 . S
C1290 C1292 1.416 . S
C1290 C1298 1.424 . S
C1291 H1286 0.930 . S
C1291 C1293 1.390 . S
C1291 C1294 1.339 . S
C1292 C1290 1.416 . S
C1292 C1294 1.416 . S
C1292 C1325 1.448 . S
C1293 H1278 0.930 . S
C1293 N1289 1.334 . S
C1293 C1291 1.390 . S
C1294 C1291 1.339 . S
C1294 C1292 1.416 . S
C1294 H1301 0.930 . S
N1295 Tb1260 2.572 . S
N1295 C1296 1.340 . S
N1295 C1298 1.361 . S
C1296 H1282 0.930 . S
C1296 N1295 1.340 . S
C1296 C1300 1.407 . S
C1297 C1298 1.413 . S
C1297 C1299 1.416 . S
C1297 C1326 1.427 . S
C1298 C1290 1.424 . S
C1298 N1295 1.361 . S
C1298 C1297 1.413 . S
C1299 H1288 0.931 . S
C1299 C1297 1.416 . S
C1299 C1300 1.332 . S
C1300 H1279 0.929 . S
C1300 C1296 1.407 . S
C1300 C1299 1.332 . S
H1301 C1294 0.930 . S
H1302 C1325 0.930 . S
H1303 C1326 0.929 . S
O1304 Tb1260 2.465 . S
O1304 C1324 1.264 . S
O1305 Tb1260 2.387 . S
O1305 C1316 1.264 . S
O1306 Tb1271 2.349 . S
O1306 C1316 1.243 . S
O1307 Tb1260 2.428 . S
O1307 C1324 1.256 . S
O1308 Tb1260 2.308 . S
O1308 C1323 1.266 . S
O1309 Tb1271 2.393 . S
O1309 C1323 1.248 . S
O1310 Tb1271 2.465 . S
O1310 C1335 1.264 . S
O1311 Tb1271 2.387 . S
O1311 C1327 1.264 . S
O1312 Tb1260 2.349 . S
O1312 C1327 1.243 . S
O1313 Tb1271 2.428 . S
O1313 C1335 1.256 . S
O1314 Tb1271 2.308 . S
O1314 C1334 1.266 . S
O1315 Tb1260 2.393 . S
O1315 C1334 1.248 . S
C1316 O1305 1.264 . S
C1316 O1306 1.243 . S
C1317 C1320 1.399 . S
C1317 C1322 1.383 . S
C1317 C1324 1.496 . S
C1318 C1319 1.399 . S
C1318 C1322 1.389 . S
C1319 C1318 1.399 . S
C1319 C1321 1.380 . S
C1319 H1336 0.929 . S
C1320 C1317 1.399 . S
C1320 C1321 1.392 . S
C1320 H1337 0.929 . S
C1321 C1319 1.380 . S
C1321 C1320 1.392 . S
C1321 H1338 0.929 . S
C1322 C1317 1.383 . S
C1322 C1318 1.389 . S
C1322 H1339 0.931 . S
C1323 O1308 1.266 . S
C1323 O1309 1.248 . S
C1324 Tb1260 2.802 . S
C1324 O1304 1.264 . S
C1324 O1307 1.256 . S
C1324 C1317 1.496 . S
C1325 C1292 1.448 . S
C1325 H1302 0.930 . S
C1325 C1326 1.328 . S
C1326 C1297 1.427 . S
C1326 H1303 0.929 . S
C1326 C1325 1.328 . S
C1327 O1311 1.264 . S
C1327 O1312 1.243 . S
C1328 C1331 1.399 . S
C1328 C1332 1.383 . S
C1328 C1335 1.496 . S
C1329 C1330 1.399 . S
C1329 C1332 1.389 . S
C1330 C1329 1.399 . S
C1330 C1333 1.380 . S
C1330 H1340 0.929 . S
C1331 C1328 1.399 . S
C1331 C1333 1.392 . S
C1331 H1341 0.929 . S
C1332 C1328 1.383 . S
C1332 C1329 1.389 . S
C1332 H1342 0.931 . S
C1333 C1330 1.380 . S
C1333 C1331 1.392 . S
C1333 H1343 0.929 . S
C1334 O1314 1.266 . S
C1334 O1315 1.248 . S
C1335 Tb1271 2.802 . S
C1335 O1310 1.264 . S
C1335 O1313 1.256 . S
C1335 C1328 1.496 . S
H1336 C1319 0.929 . S
H1337 C1320 0.929 . S
H1338 C1321 0.929 . S
H1339 C1322 0.931 . S
H1340 C1330 0.929 . S
H1341 C1331 0.929 . S
H1342 C1332 0.931 . S
H1343 C1333 0.929 . S
Tb1344 N1373 2.617 . S
Tb1344 N1379 2.572 . S
Tb1344 O1388 2.465 . S
Tb1344 O1389 2.387 . S
Tb1344 O1391 2.428 . S
Tb1344 O1392 2.308 . S
Tb1344 O1396 2.349 . S
Tb1344 O1399 2.393 . S
Tb1344 C1408 2.802 . S
C1345 N1346 1.379 . S
C1345 C1348 1.416 . S
C1345 C1352 1.424 . S
N1346 C1345 1.379 . S
N1346 C1349 1.334 . S
N1346 Tb1355 2.617 . S
C1347 C1349 1.390 . S
C1347 C1350 1.339 . S
C1347 H1367 0.930 . S
C1348 C1345 1.416 . S
C1348 C1350 1.416 . S
C1348 C1354 1.448 . S
C1349 N1346 1.334 . S
C1349 C1347 1.390 . S
C1349 H1360 0.930 . S
C1350 C1347 1.339 . S
C1350 C1348 1.416 . S
C1350 H1371 0.930 . S
C1351 C1352 1.413 . S
C1351 C1353 1.427 . S
C1351 C1357 1.416 . S
C1352 C1345 1.424 . S
C1352 C1351 1.413 . S
C1352 N1356 1.361 . S
C1353 C1351 1.427 . S
C1353 C1354 1.328 . S
C1353 H1368 0.929 . S
C1354 C1348 1.448 . S
C1354 C1353 1.328 . S
C1354 H1369 0.930 . S
Tb1355 N1346 2.617 . S
Tb1355 N1356 2.572 . S
Tb1355 O1390 2.349 . S
Tb1355 O1393 2.393 . S
Tb1355 O1394 2.465 . S
Tb1355 O1395 2.387 . S
Tb1355 O1397 2.428 . S
Tb1355 O1398 2.308 . S
Tb1355 C1419 2.802 . S
N1356 C1352 1.361 . S
N1356 Tb1355 2.572 . S
N1356 C1358 1.340 . S
C1357 C1351 1.416 . S
C1357 C1359 1.332 . S
C1357 H1365 0.931 . S
C1358 N1356 1.340 . S
C1358 C1359 1.407 . S
C1358 H1364 0.930 . S
C1359 C1357 1.332 . S
C1359 C1358 1.407 . S
C1359 H1361 0.929 . S
H1360 C1349 0.930 . S
H1361 C1359 0.929 . S
H1362 C1377 0.930 . S
H1363 C1384 0.929 . S
H1364 C1358 0.930 . S
H1365 C1357 0.931 . S
H1366 C1380 0.930 . S
H1367 C1347 0.930 . S
H1368 C1353 0.929 . S
H1369 C1354 0.930 . S
H1370 C1375 0.930 . S
H1371 C1350 0.930 . S
H1372 C1383 0.931 . S
N1373 Tb1344 2.617 . S
N1373 C1374 1.379 . S
N1373 C1377 1.334 . S
C1374 N1373 1.379 . S
C1374 C1376 1.416 . S
C1374 C1382 1.424 . S
C1375 H1370 0.930 . S
C1375 C1377 1.390 . S
C1375 C1378 1.339 . S
C1376 C1374 1.416 . S
C1376 C1378 1.416 . S
C1376 C1409 1.448 . S
C1377 H1362 0.930 . S
C1377 N1373 1.334 . S
C1377 C1375 1.390 . S
C1378 C1375 1.339 . S
C1378 C1376 1.416 . S
C1378 H1385 0.930 . S
N1379 Tb1344 2.572 . S
N1379 C1380 1.340 . S
N1379 C1382 1.361 . S
C1380 H1366 0.930 . S
C1380 N1379 1.340 . S
C1380 C1384 1.407 . S
C1381 C1382 1.413 . S
C1381 C1383 1.416 . S
C1381 C1410 1.427 . S
C1382 C1374 1.424 . S
C1382 N1379 1.361 . S
C1382 C1381 1.413 . S
C1383 H1372 0.931 . S
C1383 C1381 1.416 . S
C1383 C1384 1.332 . S
C1384 H1363 0.929 . S
C1384 C1380 1.407 . S
C1384 C1383 1.332 . S
H1385 C1378 0.930 . S
H1386 C1409 0.930 . S
H1387 C1410 0.929 . S
O1388 Tb1344 2.465 . S
O1388 C1408 1.264 . S
O1389 Tb1344 2.387 . S
O1389 C1400 1.264 . S
O1390 Tb1355 2.349 . S
O1390 C1400 1.243 . S
O1391 Tb1344 2.428 . S
O1391 C1408 1.256 . S
O1392 Tb1344 2.308 . S
O1392 C1407 1.266 . S
O1393 Tb1355 2.393 . S
O1393 C1407 1.248 . S
O1394 Tb1355 2.465 . S
O1394 C1419 1.264 . S
O1395 Tb1355 2.387 . S
O1395 C1411 1.264 . S
O1396 Tb1344 2.349 . S
O1396 C1411 1.243 . S
O1397 Tb1355 2.428 . S
O1397 C1419 1.256 . S
O1398 Tb1355 2.308 . S
O1398 C1418 1.266 . S
O1399 Tb1344 2.393 . S
O1399 C1418 1.248 . S
C1400 O1389 1.264 . S
C1400 O1390 1.243 . S
C1401 C1404 1.399 . S
C1401 C1406 1.383 . S
C1401 C1408 1.496 . S
C1402 C1403 1.399 . S
C1402 C1406 1.389 . S
C1403 C1402 1.399 . S
C1403 C1405 1.380 . S
C1403 H1420 0.929 . S
C1404 C1401 1.399 . S
C1404 C1405 1.392 . S
C1404 H1421 0.929 . S
C1405 C1403 1.380 . S
C1405 C1404 1.392 . S
C1405 H1422 0.929 . S
C1406 C1401 1.383 . S
C1406 C1402 1.389 . S
C1406 H1423 0.931 . S
C1407 O1392 1.266 . S
C1407 O1393 1.248 . S
C1408 Tb1344 2.802 . S
C1408 O1388 1.264 . S
C1408 O1391 1.256 . S
C1408 C1401 1.496 . S
C1409 C1376 1.448 . S
C1409 H1386 0.930 . S
C1409 C1410 1.328 . S
C1410 C1381 1.427 . S
C1410 H1387 0.929 . S
C1410 C1409 1.328 . S
C1411 O1395 1.264 . S
C1411 O1396 1.243 . S
C1412 C1415 1.399 . S
C1412 C1416 1.383 . S
C1412 C1419 1.496 . S
C1413 C1414 1.399 . S
C1413 C1416 1.389 . S
C1414 C1413 1.399 . S
C1414 C1417 1.380 . S
C1414 H1424 0.929 . S
C1415 C1412 1.399 . S
C1415 C1417 1.392 . S
C1415 H1425 0.929 . S
C1416 C1412 1.383 . S
C1416 C1413 1.389 . S
C1416 H1426 0.931 . S
C1417 C1414 1.380 . S
C1417 C1415 1.392 . S
C1417 H1427 0.929 . S
C1418 O1398 1.266 . S
C1418 O1399 1.248 . S
C1419 Tb1355 2.802 . S
C1419 O1394 1.264 . S
C1419 O1397 1.256 . S
C1419 C1412 1.496 . S
H1420 C1403 0.929 . S
H1421 C1404 0.929 . S
H1422 C1405 0.929 . S
H1423 C1406 0.931 . S
H1424 C1414 0.929 . S
H1425 C1415 0.929 . S
H1426 C1416 0.931 . S
H1427 C1417 0.929 . S
Tb1428 N1457 2.617 . S
Tb1428 N1463 2.572 . S
Tb1428 O1472 2.465 . S
Tb1428 O1473 2.387 . S
Tb1428 O1475 2.428 . S
Tb1428 O1476 2.308 . S
Tb1428 O1480 2.349 . S
Tb1428 O1483 2.393 . S
Tb1428 C1492 2.802 . S
C1429 N1430 1.379 . S
C1429 C1432 1.416 . S
C1429 C1436 1.424 . S
N1430 C1429 1.379 . S
N1430 C1433 1.334 . S
N1430 Tb1439 2.617 . S
C1431 C1433 1.390 . S
C1431 C1434 1.339 . S
C1431 H1451 0.930 . S
C1432 C1429 1.416 . S
C1432 C1434 1.416 . S
C1432 C1438 1.448 . S
C1433 N1430 1.334 . S
C1433 C1431 1.390 . S
C1433 H1444 0.930 . S
C1434 C1431 1.339 . S
C1434 C1432 1.416 . S
C1434 H1455 0.930 . S
C1435 C1436 1.413 . S
C1435 C1437 1.427 . S
C1435 C1441 1.416 . S
C1436 C1429 1.424 . S
C1436 C1435 1.413 . S
C1436 N1440 1.361 . S
C1437 C1435 1.427 . S
C1437 C1438 1.328 . S
C1437 H1452 0.929 . S
C1438 C1432 1.448 . S
C1438 C1437 1.328 . S
C1438 H1453 0.930 . S
Tb1439 N1430 2.617 . S
Tb1439 N1440 2.572 . S
Tb1439 O1474 2.349 . S
Tb1439 O1477 2.393 . S
Tb1439 O1478 2.465 . S
Tb1439 O1479 2.387 . S
Tb1439 O1481 2.428 . S
Tb1439 O1482 2.308 . S
Tb1439 C1503 2.802 . S
N1440 C1436 1.361 . S
N1440 Tb1439 2.572 . S
N1440 C1442 1.340 . S
C1441 C1435 1.416 . S
C1441 C1443 1.332 . S
C1441 H1449 0.931 . S
C1442 N1440 1.340 . S
C1442 C1443 1.407 . S
C1442 H1448 0.930 . S
C1443 C1441 1.332 . S
C1443 C1442 1.407 . S
C1443 H1445 0.929 . S
H1444 C1433 0.930 . S
H1445 C1443 0.929 . S
H1446 C1461 0.930 . S
H1447 C1468 0.929 . S
H1448 C1442 0.930 . S
H1449 C1441 0.931 . S
H1450 C1464 0.930 . S
H1451 C1431 0.930 . S
H1452 C1437 0.929 . S
H1453 C1438 0.930 . S
H1454 C1459 0.930 . S
H1455 C1434 0.930 . S
H1456 C1467 0.931 . S
N1457 Tb1428 2.617 . S
N1457 C1458 1.379 . S
N1457 C1461 1.334 . S
C1458 N1457 1.379 . S
C1458 C1460 1.416 . S
C1458 C1466 1.424 . S
C1459 H1454 0.930 . S
C1459 C1461 1.390 . S
C1459 C1462 1.339 . S
C1460 C1458 1.416 . S
C1460 C1462 1.416 . S
C1460 C1493 1.448 . S
C1461 H1446 0.930 . S
C1461 N1457 1.334 . S
C1461 C1459 1.390 . S
C1462 C1459 1.339 . S
C1462 C1460 1.416 . S
C1462 H1469 0.930 . S
N1463 Tb1428 2.572 . S
N1463 C1464 1.340 . S
N1463 C1466 1.361 . S
C1464 H1450 0.930 . S
C1464 N1463 1.340 . S
C1464 C1468 1.407 . S
C1465 C1466 1.413 . S
C1465 C1467 1.416 . S
C1465 C1494 1.427 . S
C1466 C1458 1.424 . S
C1466 N1463 1.361 . S
C1466 C1465 1.413 . S
C1467 H1456 0.931 . S
C1467 C1465 1.416 . S
C1467 C1468 1.332 . S
C1468 H1447 0.929 . S
C1468 C1464 1.407 . S
C1468 C1467 1.332 . S
H1469 C1462 0.930 . S
H1470 C1493 0.930 . S
H1471 C1494 0.929 . S
O1472 Tb1428 2.465 . S
O1472 C1492 1.264 . S
O1473 Tb1428 2.387 . S
O1473 C1484 1.264 . S
O1474 Tb1439 2.349 . S
O1474 C1484 1.243 . S
O1475 Tb1428 2.428 . S
O1475 C1492 1.256 . S
O1476 Tb1428 2.308 . S
O1476 C1491 1.266 . S
O1477 Tb1439 2.393 . S
O1477 C1491 1.248 . S
O1478 Tb1439 2.465 . S
O1478 C1503 1.264 . S
O1479 Tb1439 2.387 . S
O1479 C1495 1.264 . S
O1480 Tb1428 2.349 . S
O1480 C1495 1.243 . S
O1481 Tb1439 2.428 . S
O1481 C1503 1.256 . S
O1482 Tb1439 2.308 . S
O1482 C1502 1.266 . S
O1483 Tb1428 2.393 . S
O1483 C1502 1.248 . S
C1484 O1473 1.264 . S
C1484 O1474 1.243 . S
C1485 C1488 1.399 . S
C1485 C1490 1.383 . S
C1485 C1492 1.496 . S
C1486 C1487 1.399 . S
C1486 C1490 1.389 . S
C1487 C1486 1.399 . S
C1487 C1489 1.380 . S
C1487 H1504 0.929 . S
C1488 C1485 1.399 . S
C1488 C1489 1.392 . S
C1488 H1505 0.929 . S
C1489 C1487 1.380 . S
C1489 C1488 1.392 . S
C1489 H1506 0.929 . S
C1490 C1485 1.383 . S
C1490 C1486 1.389 . S
C1490 H1507 0.931 . S
C1491 O1476 1.266 . S
C1491 O1477 1.248 . S
C1492 Tb1428 2.802 . S
C1492 O1472 1.264 . S
C1492 O1475 1.256 . S
C1492 C1485 1.496 . S
C1493 C1460 1.448 . S
C1493 H1470 0.930 . S
C1493 C1494 1.328 . S
C1494 C1465 1.427 . S
C1494 H1471 0.929 . S
C1494 C1493 1.328 . S
C1495 O1479 1.264 . S
C1495 O1480 1.243 . S
C1496 C1499 1.399 . S
C1496 C1500 1.383 . S
C1496 C1503 1.496 . S
C1497 C1498 1.399 . S
C1497 C1500 1.389 . S
C1498 C1497 1.399 . S
C1498 C1501 1.380 . S
C1498 H1508 0.929 . S
C1499 C1496 1.399 . S
C1499 C1501 1.392 . S
C1499 H1509 0.929 . S
C1500 C1496 1.383 . S
C1500 C1497 1.389 . S
C1500 H1510 0.931 . S
C1501 C1498 1.380 . S
C1501 C1499 1.392 . S
C1501 H1511 0.929 . S
C1502 O1482 1.266 . S
C1502 O1483 1.248 . S
C1503 Tb1439 2.802 . S
C1503 O1478 1.264 . S
C1503 O1481 1.256 . S
C1503 C1496 1.496 . S
H1504 C1487 0.929 . S
H1505 C1488 0.929 . S
H1506 C1489 0.929 . S
H1507 C1490 0.931 . S
H1508 C1498 0.929 . S
H1509 C1499 0.929 . S
H1510 C1500 0.931 . S
H1511 C1501 0.929 . S
Tb1512 N1541 2.617 . S
Tb1512 N1547 2.572 . S
Tb1512 O1556 2.465 . S
Tb1512 O1557 2.387 . S
Tb1512 O1559 2.428 . S
Tb1512 O1560 2.308 . S
Tb1512 O1564 2.349 . S
Tb1512 O1567 2.393 . S
Tb1512 C1576 2.802 . S
C1513 N1514 1.379 . S
C1513 C1516 1.416 . S
C1513 C1520 1.424 . S
N1514 C1513 1.379 . S
N1514 C1517 1.334 . S
N1514 Tb1523 2.617 . S
C1515 C1517 1.390 . S
C1515 C1518 1.339 . S
C1515 H1535 0.930 . S
C1516 C1513 1.416 . S
C1516 C1518 1.416 . S
C1516 C1522 1.448 . S
C1517 N1514 1.334 . S
C1517 C1515 1.390 . S
C1517 H1528 0.930 . S
C1518 C1515 1.339 . S
C1518 C1516 1.416 . S
C1518 H1539 0.930 . S
C1519 C1520 1.413 . S
C1519 C1521 1.427 . S
C1519 C1525 1.416 . S
C1520 C1513 1.424 . S
C1520 C1519 1.413 . S
C1520 N1524 1.361 . S
C1521 C1519 1.427 . S
C1521 C1522 1.328 . S
C1521 H1536 0.929 . S
C1522 C1516 1.448 . S
C1522 C1521 1.328 . S
C1522 H1537 0.930 . S
Tb1523 N1514 2.617 . S
Tb1523 N1524 2.572 . S
Tb1523 O1558 2.349 . S
Tb1523 O1561 2.393 . S
Tb1523 O1562 2.465 . S
Tb1523 O1563 2.387 . S
Tb1523 O1565 2.428 . S
Tb1523 O1566 2.308 . S
Tb1523 C1587 2.802 . S
N1524 C1520 1.361 . S
N1524 Tb1523 2.572 . S
N1524 C1526 1.340 . S
C1525 C1519 1.416 . S
C1525 C1527 1.332 . S
C1525 H1533 0.931 . S
C1526 N1524 1.340 . S
C1526 C1527 1.407 . S
C1526 H1532 0.930 . S
C1527 C1525 1.332 . S
C1527 C1526 1.407 . S
C1527 H1529 0.929 . S
H1528 C1517 0.930 . S
H1529 C1527 0.929 . S
H1530 C1545 0.930 . S
H1531 C1552 0.929 . S
H1532 C1526 0.930 . S
H1533 C1525 0.931 . S
H1534 C1548 0.930 . S
H1535 C1515 0.930 . S
H1536 C1521 0.929 . S
H1537 C1522 0.930 . S
H1538 C1543 0.930 . S
H1539 C1518 0.930 . S
H1540 C1551 0.931 . S
N1541 Tb1512 2.617 . S
N1541 C1542 1.379 . S
N1541 C1545 1.334 . S
C1542 N1541 1.379 . S
C1542 C1544 1.416 . S
C1542 C1550 1.424 . S
C1543 H1538 0.930 . S
C1543 C1545 1.390 . S
C1543 C1546 1.339 . S
C1544 C1542 1.416 . S
C1544 C1546 1.416 . S
C1544 C1577 1.448 . S
C1545 H1530 0.930 . S
C1545 N1541 1.334 . S
C1545 C1543 1.390 . S
C1546 C1543 1.339 . S
C1546 C1544 1.416 . S
C1546 H1553 0.930 . S
N1547 Tb1512 2.572 . S
N1547 C1548 1.340 . S
N1547 C1550 1.361 . S
C1548 H1534 0.930 . S
C1548 N1547 1.340 . S
C1548 C1552 1.407 . S
C1549 C1550 1.413 . S
C1549 C1551 1.416 . S
C1549 C1578 1.427 . S
C1550 C1542 1.424 . S
C1550 N1547 1.361 . S
C1550 C1549 1.413 . S
C1551 H1540 0.931 . S
C1551 C1549 1.416 . S
C1551 C1552 1.332 . S
C1552 H1531 0.929 . S
C1552 C1548 1.407 . S
C1552 C1551 1.332 . S
H1553 C1546 0.930 . S
H1554 C1577 0.930 . S
H1555 C1578 0.929 . S
O1556 Tb1512 2.465 . S
O1556 C1576 1.264 . S
O1557 Tb1512 2.387 . S
O1557 C1568 1.264 . S
O1558 Tb1523 2.349 . S
O1558 C1568 1.243 . S
O1559 Tb1512 2.428 . S
O1559 C1576 1.256 . S
O1560 Tb1512 2.308 . S
O1560 C1575 1.266 . S
O1561 Tb1523 2.393 . S
O1561 C1575 1.248 . S
O1562 Tb1523 2.465 . S
O1562 C1587 1.264 . S
O1563 Tb1523 2.387 . S
O1563 C1579 1.264 . S
O1564 Tb1512 2.349 . S
O1564 C1579 1.243 . S
O1565 Tb1523 2.428 . S
O1565 C1587 1.256 . S
O1566 Tb1523 2.308 . S
O1566 C1586 1.266 . S
O1567 Tb1512 2.393 . S
O1567 C1586 1.248 . S
C1568 O1557 1.264 . S
C1568 O1558 1.243 . S
C1569 C1572 1.399 . S
C1569 C1574 1.383 . S
C1569 C1576 1.496 . S
C1570 C1571 1.399 . S
C1570 C1574 1.389 . S
C1571 C1570 1.399 . S
C1571 C1573 1.380 . S
C1571 H1588 0.929 . S
C1572 C1569 1.399 . S
C1572 C1573 1.392 . S
C1572 H1589 0.929 . S
C1573 C1571 1.380 . S
C1573 C1572 1.392 . S
C1573 H1590 0.929 . S
C1574 C1569 1.383 . S
C1574 C1570 1.389 . S
C1574 H1591 0.931 . S
C1575 O1560 1.266 . S
C1575 O1561 1.248 . S
C1576 Tb1512 2.802 . S
C1576 O1556 1.264 . S
C1576 O1559 1.256 . S
C1576 C1569 1.496 . S
C1577 C1544 1.448 . S
C1577 H1554 0.930 . S
C1577 C1578 1.328 . S
C1578 C1549 1.427 . S
C1578 H1555 0.929 . S
C1578 C1577 1.328 . S
C1579 O1563 1.264 . S
C1579 O1564 1.243 . S
C1580 C1583 1.399 . S
C1580 C1584 1.383 . S
C1580 C1587 1.496 . S
C1581 C1582 1.399 . S
C1581 C1584 1.389 . S
C1582 C1581 1.399 . S
C1582 C1585 1.380 . S
C1582 H1592 0.929 . S
C1583 C1580 1.399 . S
C1583 C1585 1.392 . S
C1583 H1593 0.929 . S
C1584 C1580 1.383 . S
C1584 C1581 1.389 . S
C1584 H1594 0.931 . S
C1585 C1582 1.380 . S
C1585 C1583 1.392 . S
C1585 H1595 0.929 . S
C1586 O1566 1.266 . S
C1586 O1567 1.248 . S
C1587 Tb1523 2.802 . S
C1587 O1562 1.264 . S
C1587 O1565 1.256 . S
C1587 C1580 1.496 . S
H1588 C1571 0.929 . S
H1589 C1572 0.929 . S
H1590 C1573 0.929 . S
H1591 C1574 0.931 . S
H1592 C1582 0.929 . S
H1593 C1583 0.929 . S
H1594 C1584 0.931 . S
H1595 C1585 0.929 . S
Tb1596 N1625 2.617 1_455 S
Tb1596 N1631 2.572 1_455 S
Tb1596 O1640 2.465 1_455 S
Tb1596 O1641 2.387 . S
Tb1596 O1643 2.428 1_455 S
Tb1596 O1644 2.308 . S
Tb1596 O1648 2.349 . S
Tb1596 O1651 2.393 . S
Tb1596 C1660 2.802 1_455 S
C1597 N1598 1.379 . S
C1597 C1600 1.416 . S
C1597 C1604 1.424 1_556 S
N1598 C1597 1.379 . S
N1598 C1601 1.334 . S
N1598 Tb1607 2.617 1_556 S
C1599 C1601 1.390 . S
C1599 C1602 1.339 . S
C1599 H1619 0.930 . S
C1600 C1597 1.416 . S
C1600 C1602 1.416 . S
C1600 C1606 1.448 . S
C1601 N1598 1.334 . S
C1601 C1599 1.390 . S
C1601 H1612 0.930 . S
C1602 C1599 1.339 . S
C1602 C1600 1.416 . S
C1602 H1623 0.930 . S
C1603 C1604 1.413 . S
C1603 C1605 1.427 . S
C1603 C1609 1.416 . S
C1604 C1597 1.424 1_554 S
C1604 C1603 1.413 . S
C1604 N1608 1.361 . S
C1605 C1603 1.427 . S
C1605 C1606 1.328 1_554 S
C1605 H1620 0.929 . S
C1606 C1600 1.448 . S
C1606 C1605 1.328 1_556 S
C1606 H1621 0.930 . S
Tb1607 N1598 2.617 1_554 S
Tb1607 N1608 2.572 . S
Tb1607 O1642 2.349 . S
Tb1607 O1645 2.393 1_554 S
Tb1607 O1646 2.465 . S
Tb1607 O1647 2.387 . S
Tb1607 O1649 2.428 1_554 S
Tb1607 O1650 2.308 . S
Tb1607 C1671 2.802 . S
N1608 C1604 1.361 . S
N1608 Tb1607 2.572 . S
N1608 C1610 1.340 . S
C1609 C1603 1.416 . S
C1609 C1611 1.332 . S
C1609 H1617 0.931 . S
C1610 N1608 1.340 . S
C1610 C1611 1.407 . S
C1610 H1616 0.930 . S
C1611 C1609 1.332 . S
C1611 C1610 1.407 . S
C1611 H1613 0.929 . S
H1612 C1601 0.930 . S
H1613 C1611 0.929 . S
H1614 C1629 0.926 1_455 S
H1615 C1636 0.929 1_556 S
H1616 C1610 0.930 . S
H1617 C1609 0.931 . S
H1618 C1632 0.930 . S
H1619 C1599 0.930 . S
H1620 C1605 0.929 . S
H1621 C1606 0.930 . S
H1622 C1627 0.930 1_455 S
H1623 C1602 0.930 . S
H1624 C1635 0.931 . S
N1625 Tb1596 2.617 1_655 S
N1625 C1626 1.379 . S
N1625 C1629 1.337 . S
C1626 N1625 1.379 . S
C1626 C1628 1.416 . S
C1626 C1634 1.424 . S
C1627 H1622 0.930 1_655 S
C1627 C1629 1.391 . S
C1627 C1630 1.339 . S
C1628 C1626 1.416 . S
C1628 C1630 1.416 . S
C1628 C1661 1.448 . S
C1629 H1614 0.926 1_655 S
C1629 N1625 1.337 . S
C1629 C1627 1.391 . S
C1630 C1627 1.339 . S
C1630 C1628 1.416 . S
C1630 H1637 0.930 . S
N1631 Tb1596 2.572 1_655 S
N1631 C1632 1.340 . S
N1631 C1634 1.361 . S
C1632 H1618 0.930 . S
C1632 N1631 1.340 . S
C1632 C1636 1.407 . S
C1633 C1634 1.413 . S
C1633 C1635 1.416 . S
C1633 C1662 1.427 . S
C1634 C1626 1.424 . S
C1634 N1631 1.361 . S
C1634 C1633 1.413 . S
C1635 H1624 0.931 . S
C1635 C1633 1.416 . S
C1635 C1636 1.332 . S
C1636 H1615 0.929 1_554 S
C1636 C1632 1.407 . S
C1636 C1635 1.332 . S
H1637 C1630 0.930 . S
H1638 C1661 0.930 . S
H1639 C1662 0.929 . S
O1640 Tb1596 2.465 1_655 S
O1640 C1660 1.264 . S
O1641 Tb1596 2.387 . S
O1641 C1652 1.264 . S
O1642 Tb1607 2.349 . S
O1642 C1652 1.243 . S
O1643 Tb1596 2.428 1_655 S
O1643 C1660 1.256 . S
O1644 Tb1596 2.308 . S
O1644 C1659 1.266 1_554 S
O1645 Tb1607 2.393 1_556 S
O1645 C1659 1.248 . S
O1646 Tb1607 2.465 . S
O1646 C1671 1.264 . S
O1647 Tb1607 2.387 . S
O1647 C1663 1.264 . S
O1648 Tb1596 2.349 . S
O1648 C1663 1.243 . S
O1649 Tb1607 2.428 1_556 S
O1649 C1671 1.256 1_556 S
O1650 Tb1607 2.308 . S
O1650 C1670 1.266 . S
O1651 Tb1596 2.393 . S
O1651 C1670 1.248 . S
C1652 O1641 1.264 . S
C1652 O1642 1.243 . S
C1653 C1656 1.399 . S
C1653 C1658 1.383 . S
C1653 C1660 1.496 . S
C1654 C1655 1.399 . S
C1654 C1658 1.389 . S
C1655 C1654 1.399 . S
C1655 C1657 1.380 . S
C1655 H1672 0.929 . S
C1656 C1653 1.399 . S
C1656 C1657 1.392 . S
C1656 H1673 0.929 . S
C1657 C1655 1.380 . S
C1657 C1656 1.392 . S
C1657 H1674 0.929 . S
C1658 C1653 1.383 . S
C1658 C1654 1.389 . S
C1658 H1675 0.931 . S
C1659 O1644 1.266 1_556 S
C1659 O1645 1.248 . S
C1660 Tb1596 2.802 1_655 S
C1660 O1640 1.264 . S
C1660 O1643 1.256 . S
C1660 C1653 1.496 . S
C1661 C1628 1.448 . S
C1661 H1638 0.930 . S
C1661 C1662 1.328 . S
C1662 C1633 1.427 . S
C1662 H1639 0.929 . S
C1662 C1661 1.328 . S
C1663 O1647 1.264 . S
C1663 O1648 1.243 . S
C1664 C1667 1.396 . S
C1664 C1668 1.386 1_556 S
C1664 C1671 1.497 1_556 S
C1665 C1666 1.399 1_554 S
C1665 C1668 1.389 . S
C1666 C1665 1.399 1_556 S
C1666 C1669 1.380 . S
C1666 H1676 0.929 . S
C1667 C1664 1.396 . S
C1667 C1669 1.392 . S
C1667 H1677 0.929 . S
C1668 C1664 1.386 1_554 S
C1668 C1665 1.389 . S
C1668 H1678 0.931 . S
C1669 C1666 1.380 . S
C1669 C1667 1.392 . S
C1669 H1679 0.929 . S
C1670 O1650 1.266 . S
C1670 O1651 1.248 . S
C1671 Tb1607 2.802 . S
C1671 O1646 1.264 . S
C1671 O1649 1.256 1_554 S
C1671 C1664 1.497 1_554 S
H1672 C1655 0.929 . S
H1673 C1656 0.929 . S
H1674 C1657 0.929 . S
H1675 C1658 0.931 . S
H1676 C1666 0.929 . S
H1677 C1667 0.929 . S
H1678 C1668 0.931 . S
H1679 C1669 0.929 . S
H1680 C1686 0.930 . S
H1681 C1689 0.930 . S
H1682 C1690 0.930 . S
H1683 C1691 0.930 . S
H1684 C1694 0.924 1_556 S
H1685 C1695 0.930 . S
C1686 H1680 0.930 . S
C1686 C1687 1.355 . S
C1686 C1688 1.415 . S
C1687 C1686 1.355 . S
C1687 C1689 1.419 1_456 S
C1688 C1686 1.415 . S
C1688 C1693 1.425 1_556 S
C1688 C1695 1.409 . S
C1689 H1681 0.930 . S
C1689 C1687 1.419 1_654 S
C1689 C1690 1.362 . S
C1690 H1682 0.930 . S
C1690 C1689 1.362 . S
C1690 C1693 1.409 1_655 S
C1691 H1683 0.930 . S
C1691 C1692 1.355 . S
C1691 C1693 1.415 . S
C1692 C1691 1.355 . S
C1692 C1694 1.436 . S
C1693 C1688 1.425 1_554 S
C1693 C1690 1.409 1_455 S
C1693 C1691 1.415 . S
C1694 H1684 0.924 1_554 S
C1694 C1692 1.436 . S
C1694 C1695 1.351 1_554 S
C1695 H1685 0.930 . S
C1695 C1688 1.409 . S
C1695 C1694 1.351 1_556 S
H1696 C1702 0.930 . S
H1697 C1705 0.930 . S
H1698 C1706 0.930 . S
H1699 C1707 0.930 . S
H1700 C1710 0.930 . S
H1701 C1711 0.930 . S
C1702 H1696 0.930 . S
C1702 C1703 1.355 . S
C1702 C1704 1.415 . S
C1703 C1702 1.355 . S
C1703 C1705 1.419 . S
C1704 C1702 1.415 . S
C1704 C1709 1.425 . S
C1704 C1711 1.409 . S
C1705 H1697 0.930 . S
C1705 C1703 1.419 . S
C1705 C1706 1.362 . S
C1706 H1698 0.930 . S
C1706 C1705 1.362 . S
C1706 C1709 1.409 . S
C1707 H1699 0.930 . S
C1707 C1708 1.355 . S
C1707 C1709 1.415 . S
C1708 C1707 1.355 . S
C1708 C1710 1.419 . S
C1709 C1704 1.425 . S
C1709 C1706 1.409 . S
C1709 C1707 1.415 . S
C1710 H1700 0.930 . S
C1710 C1708 1.419 . S
C1710 C1711 1.362 . S
C1711 H1701 0.930 . S
C1711 C1704 1.409 . S
C1711 C1710 1.362 . S
H1712 C1718 0.930 . S
H1713 C1721 0.930 . S
H1714 C1722 0.930 . S
H1715 C1723 0.930 . S
H1716 C1726 0.930 . S
H1717 C1727 0.930 . S
C1718 H1712 0.930 . S
C1718 C1719 1.355 . S
C1718 C1720 1.415 . S
C1719 C1718 1.355 . S
C1719 C1721 1.419 . S
C1720 C1718 1.415 . S
C1720 C1725 1.425 . S
C1720 C1727 1.409 . S
C1721 H1713 0.930 . S
C1721 C1719 1.419 . S
C1721 C1722 1.362 . S
C1722 H1714 0.930 . S
C1722 C1721 1.362 . S
C1722 C1725 1.409 . S
C1723 H1715 0.930 . S
C1723 C1724 1.355 . S
C1723 C1725 1.415 . S
C1724 C1723 1.355 . S
C1724 C1726 1.419 . S
C1725 C1720 1.425 . S
C1725 C1722 1.409 . S
C1725 C1723 1.415 . S
C1726 H1716 0.930 . S
C1726 C1724 1.419 . S
C1726 C1727 1.362 . S
C1727 H1717 0.930 . S
C1727 C1720 1.409 . S
C1727 C1726 1.362 . S
H1728 C1734 0.930 . S
H1729 C1737 0.930 . S
H1730 C1738 0.930 . S
H1731 C1739 0.930 . S
H1732 C1742 0.930 . S
H1733 C1743 0.930 . S
C1734 H1728 0.930 . S
C1734 C1735 1.355 . S
C1734 C1736 1.415 . S
C1735 C1734 1.355 . S
C1735 C1737 1.419 . S
C1736 C1734 1.415 . S
C1736 C1741 1.425 . S
C1736 C1743 1.409 . S
C1737 H1729 0.930 . S
C1737 C1735 1.419 . S
C1737 C1738 1.362 . S
C1738 H1730 0.930 . S
C1738 C1737 1.362 . S
C1738 C1741 1.409 . S
C1739 H1731 0.930 . S
C1739 C1740 1.355 . S
C1739 C1741 1.415 . S
C1740 C1739 1.355 . S
C1740 C1742 1.419 . S
C1741 C1736 1.425 . S
C1741 C1738 1.409 . S
C1741 C1739 1.415 . S
C1742 H1732 0.930 . S
C1742 C1740 1.419 . S
C1742 C1743 1.362 . S
C1743 H1733 0.930 . S
C1743 C1736 1.409 . S
C1743 C1742 1.362 . S
H1744 C1750 0.930 . S
H1745 C1753 0.945 . S
H1746 C1754 0.930 1_655 S
H1747 C1755 0.930 . S
H1748 C1758 0.930 . S
H1749 C1759 0.930 . S
C1750 H1744 0.930 . S
C1750 C1751 1.355 . S
C1750 C1752 1.415 . S
C1751 C1750 1.355 . S
C1751 C1753 1.419 . S
C1752 C1750 1.415 . S
C1752 C1757 1.425 . S
C1752 C1759 1.409 . S
C1753 H1745 0.945 . S
C1753 C1751 1.419 . S
C1753 C1754 1.362 . S
C1754 H1746 0.930 1_455 S
C1754 C1753 1.362 . S
C1754 C1757 1.409 . S
C1755 H1747 0.930 . S
C1755 C1756 1.355 . S
C1755 C1757 1.415 . S
C1756 C1755 1.355 . S
C1756 C1758 1.419 . S
C1757 C1752 1.425 . S
C1757 C1754 1.409 . S
C1757 C1755 1.415 . S
C1758 H1748 0.930 . S
C1758 C1756 1.419 . S
C1758 C1759 1.362 . S
C1759 H1749 0.930 . S
C1759 C1752 1.409 . S
C1759 C1758 1.362 . S
H1760 C1766 0.930 . S
H1761 C1769 0.930 . S
H1762 C1770 0.930 . S
H1763 C1771 0.930 . S
H1764 C1774 0.930 . S
H1765 C1775 0.930 . S
C1766 H1760 0.930 . S
C1766 C1767 1.355 . S
C1766 C1768 1.415 . S
C1767 C1766 1.355 . S
C1767 C1769 1.419 . S
C1768 C1766 1.415 . S
C1768 C1773 1.425 . S
C1768 C1775 1.409 . S
C1769 H1761 0.930 . S
C1769 C1767 1.419 . S
C1769 C1770 1.362 . S
C1770 H1762 0.930 . S
C1770 C1769 1.362 . S
C1770 C1773 1.409 . S
C1771 H1763 0.930 . S
C1771 C1772 1.355 . S
C1771 C1773 1.415 . S
C1772 C1771 1.355 . S
C1772 C1774 1.419 . S
C1773 C1768 1.425 . S
C1773 C1770 1.409 . S
C1773 C1771 1.415 . S
C1774 H1764 0.930 . S
C1774 C1772 1.419 . S
C1774 C1775 1.362 . S
C1775 H1765 0.930 . S
C1775 C1768 1.409 . S
C1775 C1774 1.362 . S
H1776 C1782 0.930 . S
H1777 C1785 0.930 . S
H1778 C1786 0.930 . S
H1779 C1787 0.930 . S
H1780 C1790 0.930 . S
H1781 C1791 0.930 . S
C1782 H1776 0.930 . S
C1782 C1783 1.355 . S
C1782 C1784 1.415 . S
C1783 C1782 1.355 . S
C1783 C1785 1.419 . S
C1784 C1782 1.415 . S
C1784 C1789 1.425 . S
C1784 C1791 1.409 . S
C1785 H1777 0.930 . S
C1785 C1783 1.419 . S
C1785 C1786 1.362 . S
C1786 H1778 0.930 . S
C1786 C1785 1.362 . S
C1786 C1789 1.409 . S
C1787 H1779 0.930 . S
C1787 C1788 1.355 . S
C1787 C1789 1.415 . S
C1788 C1787 1.355 . S
C1788 C1790 1.419 . S
C1789 C1784 1.425 . S
C1789 C1786 1.409 . S
C1789 C1787 1.415 . S
C1790 H1780 0.930 . S
C1790 C1788 1.419 . S
C1790 C1791 1.362 . S
C1791 H1781 0.930 . S
C1791 C1784 1.409 . S
C1791 C1790 1.362 . S
H1792 C1798 0.930 . S
H1793 C1801 0.930 . S
H1794 C1802 0.930 . S
H1795 C1803 0.930 . S
H1796 C1806 0.930 . S
H1797 C1807 0.930 . S
C1798 H1792 0.930 . S
C1798 C1799 1.355 . S
C1798 C1800 1.415 . S
C1799 C1798 1.355 . S
C1799 C1801 1.419 . S
C1800 C1798 1.415 . S
C1800 C1805 1.425 . S
C1800 C1807 1.409 . S
C1801 H1793 0.930 . S
C1801 C1799 1.419 . S
C1801 C1802 1.362 . S
C1802 H1794 0.930 . S
C1802 C1801 1.362 . S
C1802 C1805 1.409 . S
C1803 H1795 0.930 . S
C1803 C1804 1.355 . S
C1803 C1805 1.415 . S
C1804 C1803 1.355 . S
C1804 C1806 1.419 . S
C1805 C1800 1.425 . S
C1805 C1802 1.409 . S
C1805 C1803 1.415 . S
C1806 H1796 0.930 . S
C1806 C1804 1.419 . S
C1806 C1807 1.362 . S
C1807 H1797 0.930 . S
C1807 C1800 1.409 . S
C1807 C1806 1.362 . S
H1808 C1814 0.930 . S
H1809 C1817 0.930 . S
H1810 C1818 0.930 . S
H1811 C1819 0.930 . S
H1812 C1822 0.930 . S
H1813 C1823 0.930 . S
C1814 H1808 0.930 . S
C1814 C1815 1.355 . S
C1814 C1816 1.415 . S
C1815 C1814 1.355 . S
C1815 C1817 1.419 . S
C1816 C1814 1.415 . S
C1816 C1821 1.425 . S
C1816 C1823 1.409 1_655 S
C1817 H1809 0.930 . S
C1817 C1815 1.419 . S
C1817 C1818 1.362 . S
C1818 H1810 0.930 . S
C1818 C1817 1.362 . S
C1818 C1821 1.409 . S
C1819 H1811 0.930 . S
C1819 C1820 1.355 1_655 S
C1819 C1821 1.415 . S
C1820 C1819 1.355 1_455 S
C1820 C1822 1.419 . S
C1821 C1816 1.425 . S
C1821 C1818 1.409 . S
C1821 C1819 1.415 . S
C1822 H1812 0.930 . S
C1822 C1820 1.419 . S
C1822 C1823 1.362 . S
C1823 H1813 0.930 . S
C1823 C1816 1.409 1_455 S
C1823 C1822 1.362 . S
H1824 C1830 0.930 . S
H1825 C1833 0.930 . S
H1826 C1834 0.930 . S
H1827 C1835 0.930 . S
H1828 C1838 0.930 . S
H1829 C1839 0.930 . S
C1830 H1824 0.930 . S
C1830 C1831 1.355 . S
C1830 C1832 1.415 . S
C1831 C1830 1.355 . S
C1831 C1833 1.419 . S
C1832 C1830 1.415 . S
C1832 C1837 1.425 . S
C1832 C1839 1.409 . S
C1833 H1825 0.930 . S
C1833 C1831 1.419 . S
C1833 C1834 1.362 . S
C1834 H1826 0.930 . S
C1834 C1833 1.362 . S
C1834 C1837 1.409 . S
C1835 H1827 0.930 . S
C1835 C1836 1.355 . S
C1835 C1837 1.415 . S
C1836 C1835 1.355 . S
C1836 C1838 1.419 . S
C1837 C1832 1.425 . S
C1837 C1834 1.409 . S
C1837 C1835 1.415 . S
C1838 H1828 0.930 . S
C1838 C1836 1.419 . S
C1838 C1839 1.362 . S
C1839 H1829 0.930 . S
C1839 C1832 1.409 . S
C1839 C1838 1.362 . S
H1840 C1846 0.930 . S
H1841 C1849 0.930 . S
H1842 C1850 0.930 . S
H1843 C1851 0.930 . S
H1844 C1854 0.930 . S
H1845 C1855 0.930 . S
C1846 H1840 0.930 . S
C1846 C1847 1.355 . S
C1846 C1848 1.415 . S
C1847 C1846 1.355 . S
C1847 C1849 1.419 . S
C1848 C1846 1.415 . S
C1848 C1853 1.425 . S
C1848 C1855 1.409 . S
C1849 H1841 0.930 . S
C1849 C1847 1.419 . S
C1849 C1850 1.362 . S
C1850 H1842 0.930 . S
C1850 C1849 1.362 . S
C1850 C1853 1.409 . S
C1851 H1843 0.930 . S
C1851 C1852 1.355 . S
C1851 C1853 1.415 . S
C1852 C1851 1.355 . S
C1852 C1854 1.419 . S
C1853 C1848 1.425 . S
C1853 C1850 1.409 . S
C1853 C1851 1.415 . S
C1854 H1844 0.930 . S
C1854 C1852 1.419 . S
C1854 C1855 1.362 . S
C1855 H1845 0.930 . S
C1855 C1848 1.409 . S
C1855 C1854 1.362 . S
H1856 C1862 0.930 . S
H1857 C1865 0.930 . S
H1858 C1866 0.930 . S
H1859 C1867 0.930 . S
H1860 C1870 0.930 . S
H1861 C1871 0.930 . S
C1862 H1856 0.930 . S
C1862 C1863 1.355 . S
C1862 C1864 1.415 . S
C1863 C1862 1.355 . S
C1863 C1865 1.419 . S
C1864 C1862 1.415 . S
C1864 C1869 1.425 . S
C1864 C1871 1.409 . S
C1865 H1857 0.930 . S
C1865 C1863 1.419 . S
C1865 C1866 1.362 . S
C1866 H1858 0.930 . S
C1866 C1865 1.362 . S
C1866 C1869 1.409 . S
C1867 H1859 0.930 . S
C1867 C1868 1.355 . S
C1867 C1869 1.415 . S
C1868 C1867 1.355 . S
C1868 C1870 1.419 . S
C1869 C1864 1.425 . S
C1869 C1866 1.409 . S
C1869 C1867 1.415 . S
C1870 H1860 0.930 . S
C1870 C1868 1.419 . S
C1870 C1871 1.362 . S
C1871 H1861 0.930 . S
C1871 C1864 1.409 . S
C1871 C1870 1.362 . S
H1872 C1878 0.930 1_565 S
H1873 C1881 0.930 . S
H1874 C1882 0.930 . S
H1875 C1883 0.930 . S
H1876 C1886 0.897 1_565 S
H1877 C1887 0.930 . S
C1878 H1872 0.930 1_545 S
C1878 C1879 1.355 . S
C1878 C1880 1.415 . S
C1879 C1878 1.355 . S
C1879 C1881 1.419 . S
C1880 C1878 1.415 . S
C1880 C1885 1.425 . S
C1880 C1887 1.409 1_545 S
C1881 H1873 0.930 . S
C1881 C1879 1.419 . S
C1881 C1882 1.362 1_655 S
C1882 H1874 0.930 . S
C1882 C1881 1.362 1_455 S
C1882 C1885 1.409 1_455 S
C1883 H1875 0.930 . S
C1883 C1884 1.355 . S
C1883 C1885 1.415 1_455 S
C1884 C1883 1.355 . S
C1884 C1886 1.452 1_455 S
C1885 C1880 1.425 . S
C1885 C1882 1.409 1_655 S
C1885 C1883 1.415 1_655 S
C1886 H1876 0.897 1_545 S
C1886 C1884 1.452 1_655 S
C1886 C1887 1.364 1_545 S
C1887 H1877 0.930 . S
C1887 C1880 1.409 1_565 S
C1887 C1886 1.364 1_565 S
H1888 C1894 0.930 . S
H1889 C1897 0.930 . S
H1890 C1898 0.930 . S
H1891 C1899 0.930 . S
H1892 C1902 0.930 . S
H1893 C1903 0.930 . S
C1894 H1888 0.930 . S
C1894 C1895 1.355 . S
C1894 C1896 1.415 . S
C1895 C1894 1.355 . S
C1895 C1897 1.419 . S
C1896 C1894 1.415 . S
C1896 C1901 1.425 . S
C1896 C1903 1.409 . S
C1897 H1889 0.930 . S
C1897 C1895 1.419 . S
C1897 C1898 1.362 . S
C1898 H1890 0.930 . S
C1898 C1897 1.362 . S
C1898 C1901 1.409 . S
C1899 H1891 0.930 . S
C1899 C1900 1.355 . S
C1899 C1901 1.415 . S
C1900 C1899 1.355 . S
C1900 C1902 1.419 . S
C1901 C1896 1.425 . S
C1901 C1898 1.409 . S
C1901 C1899 1.415 . S
C1902 H1892 0.930 . S
C1902 C1900 1.419 . S
C1902 C1903 1.362 . S
C1903 H1893 0.930 . S
C1903 C1896 1.409 . S
C1903 C1902 1.362 . S
H1904 C1910 0.930 . S
H1905 C1913 0.930 . S
H1906 C1914 0.930 . S
H1907 C1915 0.930 . S
H1908 C1918 0.930 . S
H1909 C1919 0.930 . S
C1910 H1904 0.930 . S
C1910 C1911 1.355 . S
C1910 C1912 1.415 . S
C1911 C1910 1.355 . S
C1911 C1913 1.419 . S
C1912 C1910 1.415 . S
C1912 C1917 1.425 . S
C1912 C1919 1.409 . S
C1913 H1905 0.930 . S
C1913 C1911 1.419 . S
C1913 C1914 1.362 . S
C1914 H1906 0.930 . S
C1914 C1913 1.362 . S
C1914 C1917 1.409 . S
C1915 H1907 0.930 . S
C1915 C1916 1.355 . S
C1915 C1917 1.415 . S
C1916 C1915 1.355 . S
C1916 C1918 1.419 . S
C1917 C1912 1.425 . S
C1917 C1914 1.409 . S
C1917 C1915 1.415 . S
C1918 H1908 0.930 . S
C1918 C1916 1.419 . S
C1918 C1919 1.362 . S
C1919 H1909 0.930 . S
C1919 C1912 1.409 . S
C1919 C1918 1.362 . S
H1920 C1926 0.930 . S
H1921 C1929 0.930 . S
H1922 C1930 0.930 . S
H1923 C1931 0.930 . S
H1924 C1934 0.930 . S
H1925 C1935 0.930 . S
C1926 H1920 0.930 . S
C1926 C1927 1.355 . S
C1926 C1928 1.415 . S
C1927 C1926 1.355 . S
C1927 C1929 1.419 . S
C1928 C1926 1.415 . S
C1928 C1933 1.425 . S
C1928 C1935 1.409 . S
C1929 H1921 0.930 . S
C1929 C1927 1.419 . S
C1929 C1930 1.362 . S
C1930 H1922 0.930 . S
C1930 C1929 1.362 . S
C1930 C1933 1.409 . S
C1931 H1923 0.930 . S
C1931 C1932 1.355 . S
C1931 C1933 1.415 . S
C1932 C1931 1.355 . S
C1932 C1934 1.419 . S
C1933 C1928 1.425 . S
C1933 C1930 1.409 . S
C1933 C1931 1.415 . S
C1934 H1924 0.930 . S
C1934 C1932 1.419 . S
C1934 C1935 1.362 . S
C1935 H1925 0.930 . S
C1935 C1928 1.409 . S
C1935 C1934 1.362 . S
H1936 C1942 0.930 . S
H1937 C1945 0.930 . S
H1938 C1946 0.930 . S
H1939 C1947 0.933 . S
H1940 C1950 0.930 . S
H1941 C1951 0.930 1_545 S
C1942 H1936 0.930 . S
C1942 C1943 1.355 1_554 S
C1942 C1944 1.415 . S
C1943 C1942 1.355 1_556 S
C1943 C1945 1.419 . S
C1944 C1942 1.415 . S
C1944 C1949 1.425 . S
C1944 C1951 1.409 . S
C1945 H1937 0.930 . S
C1945 C1943 1.419 . S
C1945 C1946 1.362 . S
C1946 H1938 0.930 . S
C1946 C1945 1.362 . S
C1946 C1949 1.409 1_556 S
C1947 H1939 0.933 . S
C1947 C1948 1.355 1_565 S
C1947 C1949 1.415 . S
C1948 C1947 1.355 1_545 S
C1948 C1950 1.419 . S
C1949 C1944 1.425 . S
C1949 C1946 1.409 1_554 S
C1949 C1947 1.415 . S
C1950 H1940 0.930 . S
C1950 C1948 1.419 . S
C1950 C1951 1.362 1_545 S
C1951 H1941 0.930 1_565 S
C1951 C1944 1.409 . S
C1951 C1950 1.362 1_565 S
H1952 C1958 0.930 . S
H1953 C1961 0.930 . S
H1954 C1962 0.930 . S
H1955 C1963 0.930 . S
H1956 C1966 0.930 . S
H1957 C1967 0.930 . S
C1958 H1952 0.930 . S
C1958 C1959 1.355 . S
C1958 C1960 1.415 . S
C1959 C1958 1.355 . S
C1959 C1961 1.419 . S
C1960 C1958 1.415 . S
C1960 C1965 1.425 . S
C1960 C1967 1.409 . S
C1961 H1953 0.930 . S
C1961 C1959 1.419 . S
C1961 C1962 1.362 . S
C1962 H1954 0.930 . S
C1962 C1961 1.362 . S
C1962 C1965 1.409 . S
C1963 H1955 0.930 . S
C1963 C1964 1.355 . S
C1963 C1965 1.415 . S
C1964 C1963 1.355 . S
C1964 C1966 1.419 . S
C1965 C1960 1.425 . S
C1965 C1962 1.409 . S
C1965 C1963 1.415 . S
C1966 H1956 0.930 . S
C1966 C1964 1.419 . S
C1966 C1967 1.362 . S
C1967 H1957 0.930 . S
C1967 C1960 1.409 . S
C1967 C1966 1.362 . S
H1968 C1974 0.930 . S
H1969 C1977 0.930 . S
H1970 C1978 0.930 . S
H1971 C1979 0.930 . S
H1972 C1982 0.930 . S
H1973 C1983 0.930 . S
C1974 H1968 0.930 . S
C1974 C1975 1.355 . S
C1974 C1976 1.415 . S
C1975 C1974 1.355 . S
C1975 C1977 1.419 . S
C1976 C1974 1.415 . S
C1976 C1981 1.425 . S
C1976 C1983 1.409 . S
C1977 H1969 0.930 . S
C1977 C1975 1.419 . S
C1977 C1978 1.362 . S
C1978 H1970 0.930 . S
C1978 C1977 1.362 . S
C1978 C1981 1.409 . S
C1979 H1971 0.930 . S
C1979 C1980 1.355 . S
C1979 C1981 1.415 . S
C1980 C1979 1.355 . S
C1980 C1982 1.419 . S
C1981 C1976 1.425 . S
C1981 C1978 1.409 . S
C1981 C1979 1.415 . S
C1982 H1972 0.930 . S
C1982 C1980 1.419 . S
C1982 C1983 1.362 . S
C1983 H1973 0.930 . S
C1983 C1976 1.409 . S
C1983 C1982 1.362 . S
H1984 C1990 0.930 . S
H1985 C1993 0.930 . S
H1986 C1994 0.930 . S
H1987 C1995 0.930 . S
H1988 C1998 0.930 . S
H1989 C1999 0.930 . S
C1990 H1984 0.930 . S
C1990 C1991 1.355 . S
C1990 C1992 1.415 . S
C1991 C1990 1.355 . S
C1991 C1993 1.419 . S
C1992 C1990 1.415 . S
C1992 C1997 1.425 . S
C1992 C1999 1.409 . S
C1993 H1985 0.930 . S
C1993 C1991 1.419 . S
C1993 C1994 1.362 . S
C1994 H1986 0.930 . S
C1994 C1993 1.362 . S
C1994 C1997 1.409 . S
C1995 H1987 0.930 . S
C1995 C1996 1.355 . S
C1995 C1997 1.415 . S
C1996 C1995 1.355 . S
C1996 C1998 1.419 . S
C1997 C1992 1.425 . S
C1997 C1994 1.409 . S
C1997 C1995 1.415 . S
C1998 H1988 0.930 . S
C1998 C1996 1.419 . S
C1998 C1999 1.362 . S
C1999 H1989 0.930 . S
C1999 C1992 1.409 . S
C1999 C1998 1.362 . S
H2000 C2006 0.930 . S
H2001 C2009 0.930 . S
H2002 C2010 0.930 . S
H2003 C2011 0.930 . S
H2004 C2014 0.930 . S
H2005 C2015 0.930 . S
C2006 H2000 0.930 . S
C2006 C2007 1.355 . S
C2006 C2008 1.415 . S
C2007 C2006 1.355 . S
C2007 C2009 1.419 . S
C2008 C2006 1.415 . S
C2008 C2013 1.425 . S
C2008 C2015 1.409 . S
C2009 H2001 0.930 . S
C2009 C2007 1.419 . S
C2009 C2010 1.362 . S
C2010 H2002 0.930 . S
C2010 C2009 1.362 . S
C2010 C2013 1.409 . S
C2011 H2003 0.930 . S
C2011 C2012 1.355 . S
C2011 C2013 1.415 . S
C2012 C2011 1.355 . S
C2012 C2014 1.419 . S
C2013 C2008 1.425 . S
C2013 C2010 1.409 . S
C2013 C2011 1.415 . S
C2014 H2004 0.930 . S
C2014 C2012 1.419 . S
C2014 C2015 1.362 . S
C2015 H2005 0.930 . S
C2015 C2008 1.409 . S
C2015 C2014 1.362 . S
H2016 C2022 0.930 . S
H2017 C2025 0.930 . S
H2018 C2026 0.930 . S
H2019 C2027 0.930 . S
H2020 C2030 0.930 . S
H2021 C2031 0.930 . S
C2022 H2016 0.930 . S
C2022 C2023 1.355 . S
C2022 C2024 1.415 . S
C2023 C2022 1.355 . S
C2023 C2025 1.419 . S
C2024 C2022 1.415 . S
C2024 C2029 1.425 . S
C2024 C2031 1.409 . S
C2025 H2017 0.930 . S
C2025 C2023 1.419 . S
C2025 C2026 1.362 . S
C2026 H2018 0.930 . S
C2026 C2025 1.362 . S
C2026 C2029 1.409 . S
C2027 H2019 0.930 . S
C2027 C2028 1.355 . S
C2027 C2029 1.415 . S
C2028 C2027 1.355 . S
C2028 C2030 1.419 . S
C2029 C2024 1.425 . S
C2029 C2026 1.409 . S
C2029 C2027 1.415 . S
C2030 H2020 0.930 . S
C2030 C2028 1.419 . S
C2030 C2031 1.362 . S
C2031 H2021 0.930 . S
C2031 C2024 1.409 . S
C2031 C2030 1.362 . S
H2032 C2038 0.930 . S
H2033 C2041 0.930 . S
H2034 C2042 0.930 . S
H2035 C2043 0.930 . S
H2036 C2046 0.930 . S
H2037 C2047 0.930 . S
C2038 H2032 0.930 . S
C2038 C2039 1.355 . S
C2038 C2040 1.415 . S
C2039 C2038 1.355 . S
C2039 C2041 1.419 . S
C2040 C2038 1.415 . S
C2040 C2045 1.425 . S
C2040 C2047 1.409 . S
C2041 H2033 0.930 . S
C2041 C2039 1.419 . S
C2041 C2042 1.362 . S
C2042 H2034 0.930 . S
C2042 C2041 1.362 . S
C2042 C2045 1.409 . S
C2043 H2035 0.930 . S
C2043 C2044 1.355 . S
C2043 C2045 1.415 . S
C2044 C2043 1.355 . S
C2044 C2046 1.419 . S
C2045 C2040 1.425 . S
C2045 C2042 1.409 . S
C2045 C2043 1.415 . S
C2046 H2036 0.930 . S
C2046 C2044 1.419 . S
C2046 C2047 1.362 . S
C2047 H2037 0.930 . S
C2047 C2040 1.409 . S
C2047 C2046 1.362 . S
H2048 C2054 0.930 . S
H2049 C2057 0.930 . S
H2050 C2058 0.930 . S
H2051 C2059 0.930 . S
H2052 C2062 0.930 . S
H2053 C2063 0.930 . S
C2054 H2048 0.930 . S
C2054 C2055 1.355 . S
C2054 C2056 1.415 . S
C2055 C2054 1.355 . S
C2055 C2057 1.419 . S
C2056 C2054 1.415 . S
C2056 C2061 1.425 . S
C2056 C2063 1.409 . S
C2057 H2049 0.930 . S
C2057 C2055 1.419 . S
C2057 C2058 1.362 . S
C2058 H2050 0.930 . S
C2058 C2057 1.362 . S
C2058 C2061 1.409 . S
C2059 H2051 0.930 . S
C2059 C2060 1.355 . S
C2059 C2061 1.415 . S
C2060 C2059 1.355 . S
C2060 C2062 1.419 . S
C2061 C2056 1.425 . S
C2061 C2058 1.409 . S
C2061 C2059 1.415 . S
C2062 H2052 0.930 . S
C2062 C2060 1.419 . S
C2062 C2063 1.362 . S
C2063 H2053 0.930 . S
C2063 C2056 1.409 . S
C2063 C2062 1.362 . S
H2064 C2070 0.930 . S
H2065 C2073 0.930 . S
H2066 C2074 0.930 . S
H2067 C2075 0.930 . S
H2068 C2078 0.930 . S
H2069 C2079 0.930 . S
C2070 H2064 0.930 . S
C2070 C2071 1.355 . S
C2070 C2072 1.415 . S
C2071 C2070 1.355 . S
C2071 C2073 1.419 . S
C2072 C2070 1.415 . S
C2072 C2077 1.425 . S
C2072 C2079 1.409 . S
C2073 H2065 0.930 . S
C2073 C2071 1.419 . S
C2073 C2074 1.362 . S
C2074 H2066 0.930 . S
C2074 C2073 1.362 . S
C2074 C2077 1.409 . S
C2075 H2067 0.930 . S
C2075 C2076 1.355 . S
C2075 C2077 1.415 . S
C2076 C2075 1.355 . S
C2076 C2078 1.419 . S
C2077 C2072 1.425 . S
C2077 C2074 1.409 . S
C2077 C2075 1.415 . S
C2078 H2068 0.930 . S
C2078 C2076 1.419 . S
C2078 C2079 1.362 . S
C2079 H2069 0.930 . S
C2079 C2072 1.409 . S
C2079 C2078 1.362 . S
H2080 C2086 0.930 . S
H2081 C2089 0.930 . S
H2082 C2090 0.930 . S
H2083 C2091 0.930 . S
H2084 C2094 0.930 . S
H2085 C2095 0.930 . S
C2086 H2080 0.930 . S
C2086 C2087 1.355 . S
C2086 C2088 1.415 . S
C2087 C2086 1.355 . S
C2087 C2089 1.419 . S
C2088 C2086 1.415 . S
C2088 C2093 1.425 . S
C2088 C2095 1.409 . S
C2089 H2081 0.930 . S
C2089 C2087 1.419 . S
C2089 C2090 1.362 . S
C2090 H2082 0.930 . S
C2090 C2089 1.362 . S
C2090 C2093 1.409 . S
C2091 H2083 0.930 . S
C2091 C2092 1.355 . S
C2091 C2093 1.415 . S
C2092 C2091 1.355 . S
C2092 C2094 1.419 . S
C2093 C2088 1.425 . S
C2093 C2090 1.409 . S
C2093 C2091 1.415 . S
C2094 H2084 0.930 . S
C2094 C2092 1.419 . S
C2094 C2095 1.362 . S
C2095 H2085 0.930 . S
C2095 C2088 1.409 . S
C2095 C2094 1.362 . S
H2096 C2102 0.930 . S
H2097 C2105 0.930 . S
H2098 C2106 0.930 . S
H2099 C2107 0.930 . S
H2100 C2110 0.930 . S
H2101 C2111 0.930 . S
C2102 H2096 0.930 . S
C2102 C2103 1.355 . S
C2102 C2104 1.415 . S
C2103 C2102 1.355 . S
C2103 C2105 1.419 . S
C2104 C2102 1.415 . S
C2104 C2109 1.425 . S
C2104 C2111 1.409 . S
C2105 H2097 0.930 . S
C2105 C2103 1.419 . S
C2105 C2106 1.362 . S
C2106 H2098 0.930 . S
C2106 C2105 1.362 . S
C2106 C2109 1.409 . S
C2107 H2099 0.930 . S
C2107 C2108 1.355 . S
C2107 C2109 1.415 . S
C2108 C2107 1.355 . S
C2108 C2110 1.419 . S
C2109 C2104 1.425 . S
C2109 C2106 1.409 . S
C2109 C2107 1.415 . S
C2110 H2100 0.930 . S
C2110 C2108 1.419 . S
C2110 C2111 1.362 . S
C2111 H2101 0.930 . S
C2111 C2104 1.409 . S
C2111 C2110 1.362 . S
H2112 C2118 0.930 . S
H2113 C2121 0.930 . S
H2114 C2122 0.930 . S
H2115 C2123 0.930 . S
H2116 C2126 0.930 . S
H2117 C2127 0.930 . S
C2118 H2112 0.930 . S
C2118 C2119 1.355 . S
C2118 C2120 1.415 . S
C2119 C2118 1.355 . S
C2119 C2121 1.419 . S
C2120 C2118 1.415 . S
C2120 C2125 1.425 . S
C2120 C2127 1.409 . S
C2121 H2113 0.930 . S
C2121 C2119 1.419 . S
C2121 C2122 1.362 . S
C2122 H2114 0.930 . S
C2122 C2121 1.362 . S
C2122 C2125 1.409 . S
C2123 H2115 0.930 . S
C2123 C2124 1.355 . S
C2123 C2125 1.415 . S
C2124 C2123 1.355 . S
C2124 C2126 1.419 . S
C2125 C2120 1.425 . S
C2125 C2122 1.409 . S
C2125 C2123 1.415 . S
C2126 H2116 0.930 . S
C2126 C2124 1.419 . S
C2126 C2127 1.362 . S
C2127 H2117 0.930 . S
C2127 C2120 1.409 . S
C2127 C2126 1.362 . S
H2128 C2134 0.930 . S
H2129 C2137 0.930 . S
H2130 C2138 0.930 . S
H2131 C2139 0.930 . S
H2132 C2142 0.930 1_655 S
H2133 C2143 0.930 1_655 S
C2134 H2128 0.930 . S
C2134 C2135 1.355 . S
C2134 C2136 1.415 . S
C2135 C2134 1.355 . S
C2135 C2137 1.419 . S
C2136 C2134 1.415 . S
C2136 C2141 1.425 . S
C2136 C2143 1.409 . S
C2137 H2129 0.930 . S
C2137 C2135 1.419 . S
C2137 C2138 1.362 . S
C2138 H2130 0.930 . S
C2138 C2137 1.362 . S
C2138 C2141 1.409 . S
C2139 H2131 0.930 . S
C2139 C2140 1.355 . S
C2139 C2141 1.415 . S
C2140 C2139 1.355 . S
C2140 C2142 1.419 . S
C2141 C2136 1.425 . S
C2141 C2138 1.409 . S
C2141 C2139 1.415 . S
C2142 H2132 0.930 1_455 S
C2142 C2140 1.419 . S
C2142 C2143 1.362 . S
C2143 H2133 0.930 1_455 S
C2143 C2136 1.409 . S
C2143 C2142 1.362 . S
H2144 C2150 0.930 . S
H2145 C2153 0.930 . S
H2146 C2154 0.930 . S
H2147 C2155 0.930 . S
H2148 C2158 0.930 . S
H2149 C2159 0.930 . S
C2150 H2144 0.930 . S
C2150 C2151 1.355 . S
C2150 C2152 1.415 . S
C2151 C2150 1.355 . S
C2151 C2153 1.419 . S
C2152 C2150 1.415 . S
C2152 C2157 1.425 . S
C2152 C2159 1.409 . S
C2153 H2145 0.930 . S
C2153 C2151 1.419 . S
C2153 C2154 1.362 . S
C2154 H2146 0.930 . S
C2154 C2153 1.362 . S
C2154 C2157 1.409 . S
C2155 H2147 0.930 . S
C2155 C2156 1.355 . S
C2155 C2157 1.415 . S
C2156 C2155 1.355 . S
C2156 C2158 1.419 . S
C2157 C2152 1.425 . S
C2157 C2154 1.409 . S
C2157 C2155 1.415 . S
C2158 H2148 0.930 . S
C2158 C2156 1.419 . S
C2158 C2159 1.362 . S
C2159 H2149 0.930 . S
C2159 C2152 1.409 . S
C2159 C2158 1.362 . S
H2160 C2166 0.930 . S
H2161 C2169 0.930 . S
H2162 C2170 0.930 . S
H2163 C2171 0.930 . S
H2164 C2174 0.930 1_554 S
H2165 C2175 0.930 . S
C2166 H2160 0.930 . S
C2166 C2167 1.355 . S
C2166 C2168 1.415 . S
C2167 C2166 1.355 . S
C2167 C2169 1.419 . S
C2168 C2166 1.415 . S
C2168 C2173 1.425 . S
C2168 C2175 1.409 . S
C2169 H2161 0.930 . S
C2169 C2167 1.419 . S
C2169 C2170 1.362 . S
C2170 H2162 0.930 . S
C2170 C2169 1.362 . S
C2170 C2173 1.409 . S
C2171 H2163 0.930 . S
C2171 C2172 1.355 . S
C2171 C2173 1.415 . S
C2172 C2171 1.355 . S
C2172 C2174 1.419 . S
C2173 C2168 1.425 . S
C2173 C2170 1.409 . S
C2173 C2171 1.415 . S
C2174 H2164 0.930 1_556 S
C2174 C2172 1.419 . S
C2174 C2175 1.362 . S
C2175 H2165 0.930 . S
C2175 C2168 1.409 . S
C2175 C2174 1.362 . S
H2176 C2182 0.930 . S
H2177 C2185 0.930 . S
H2178 C2186 0.930 . S
H2179 C2187 0.930 . S
H2180 C2190 0.930 . S
H2181 C2191 0.930 . S
C2182 H2176 0.930 . S
C2182 C2183 1.355 . S
C2182 C2184 1.415 . S
C2183 C2182 1.355 . S
C2183 C2185 1.419 . S
C2184 C2182 1.415 . S
C2184 C2189 1.425 . S
C2184 C2191 1.409 . S
C2185 H2177 0.930 . S
C2185 C2183 1.419 . S
C2185 C2186 1.362 . S
C2186 H2178 0.930 . S
C2186 C2185 1.362 . S
C2186 C2189 1.409 . S
C2187 H2179 0.930 . S
C2187 C2188 1.355 . S
C2187 C2189 1.415 . S
C2188 C2187 1.355 . S
C2188 C2190 1.419 . S
C2189 C2184 1.425 . S
C2189 C2186 1.409 . S
C2189 C2187 1.415 . S
C2190 H2180 0.930 . S
C2190 C2188 1.419 . S
C2190 C2191 1.362 . S
C2191 H2181 0.930 . S
C2191 C2184 1.409 . S
C2191 C2190 1.362 . S
H2192 C2198 0.930 . S
H2193 C2201 0.930 . S
H2194 C2202 0.930 . S
H2195 C2203 0.930 . S
H2196 C2206 0.930 . S
H2197 C2207 0.930 . S
C2198 H2192 0.930 . S
C2198 C2199 1.355 . S
C2198 C2200 1.415 . S
C2199 C2198 1.355 . S
C2199 C2201 1.419 . S
C2200 C2198 1.415 . S
C2200 C2205 1.425 . S
C2200 C2207 1.409 . S
C2201 H2193 0.930 . S
C2201 C2199 1.419 . S
C2201 C2202 1.362 . S
C2202 H2194 0.930 . S
C2202 C2201 1.362 . S
C2202 C2205 1.409 . S
C2203 H2195 0.930 . S
C2203 C2204 1.355 . S
C2203 C2205 1.415 . S
C2204 C2203 1.355 . S
C2204 C2206 1.419 . S
C2205 C2200 1.425 . S
C2205 C2202 1.409 . S
C2205 C2203 1.415 . S
C2206 H2196 0.930 . S
C2206 C2204 1.419 . S
C2206 C2207 1.362 . S
C2207 H2197 0.930 . S
C2207 C2200 1.409 . S
C2207 C2206 1.362 . S
H2208 C2214 0.930 . S
H2209 C2217 0.930 . S
H2210 C2218 0.930 . S
H2211 C2219 0.930 . S
H2212 C2222 0.930 . S
H2213 C2223 0.930 . S
C2214 H2208 0.930 . S
C2214 C2215 1.355 . S
C2214 C2216 1.415 . S
C2215 C2214 1.355 . S
C2215 C2217 1.419 . S
C2216 C2214 1.415 . S
C2216 C2221 1.425 . S
C2216 C2223 1.409 . S
C2217 H2209 0.930 . S
C2217 C2215 1.419 . S
C2217 C2218 1.362 . S
C2218 H2210 0.930 . S
C2218 C2217 1.362 . S
C2218 C2221 1.409 . S
C2219 H2211 0.930 . S
C2219 C2220 1.355 . S
C2219 C2221 1.415 . S
C2220 C2219 1.355 . S
C2220 C2222 1.419 . S
C2221 C2216 1.425 . S
C2221 C2218 1.409 . S
C2221 C2219 1.415 . S
C2222 H2212 0.930 . S
C2222 C2220 1.419 . S
C2222 C2223 1.362 . S
C2223 H2213 0.930 . S
C2223 C2216 1.409 . S
C2223 C2222 1.362 . S
H2224 C2230 0.930 . S
H2225 C2233 0.930 . S
H2226 C2234 0.930 . S
H2227 C2235 0.930 . S
H2228 C2238 0.930 . S
H2229 C2239 0.930 . S
C2230 H2224 0.930 . S
C2230 C2231 1.355 . S
C2230 C2232 1.415 . S
C2231 C2230 1.355 . S
C2231 C2233 1.419 . S
C2232 C2230 1.415 . S
C2232 C2237 1.425 . S
C2232 C2239 1.409 . S
C2233 H2225 0.930 . S
C2233 C2231 1.419 . S
C2233 C2234 1.362 . S
C2234 H2226 0.930 . S
C2234 C2233 1.362 . S
C2234 C2237 1.409 . S
C2235 H2227 0.930 . S
C2235 C2236 1.355 . S
C2235 C2237 1.415 . S
C2236 C2235 1.355 . S
C2236 C2238 1.419 . S
C2237 C2232 1.425 . S
C2237 C2234 1.409 . S
C2237 C2235 1.415 . S
C2238 H2228 0.930 . S
C2238 C2236 1.419 . S
C2238 C2239 1.362 . S
C2239 H2229 0.930 . S
C2239 C2232 1.409 . S
C2239 C2238 1.362 . S
H2240 C2246 0.930 . S
H2241 C2249 0.930 . S
H2242 C2250 0.930 . S
H2243 C2251 0.930 . S
H2244 C2254 0.930 . S
H2245 C2255 0.930 . S
C2246 H2240 0.930 . S
C2246 C2247 1.355 . S
C2246 C2248 1.415 . S
C2247 C2246 1.355 . S
C2247 C2249 1.419 . S
C2248 C2246 1.415 . S
C2248 C2253 1.425 . S
C2248 C2255 1.409 . S
C2249 H2241 0.930 . S
C2249 C2247 1.419 . S
C2249 C2250 1.362 . S
C2250 H2242 0.930 . S
C2250 C2249 1.362 . S
C2250 C2253 1.409 . S
C2251 H2243 0.930 . S
C2251 C2252 1.355 . S
C2251 C2253 1.415 . S
C2252 C2251 1.355 . S
C2252 C2254 1.419 . S
C2253 C2248 1.425 . S
C2253 C2250 1.409 . S
C2253 C2251 1.415 . S
C2254 H2244 0.930 . S
C2254 C2252 1.419 . S
C2254 C2255 1.362 . S
C2255 H2245 0.930 . S
C2255 C2248 1.409 . S
C2255 C2254 1.362 . S
H2256 C2262 0.930 . S
H2257 C2265 0.930 . S
H2258 C2266 0.930 . S
H2259 C2267 0.930 . S
H2260 C2270 0.930 . S
H2261 C2271 0.930 . S
C2262 H2256 0.930 . S
C2262 C2263 1.355 . S
C2262 C2264 1.415 . S
C2263 C2262 1.355 . S
C2263 C2265 1.419 . S
C2264 C2262 1.415 . S
C2264 C2269 1.425 . S
C2264 C2271 1.409 . S
C2265 H2257 0.930 . S
C2265 C2263 1.419 . S
C2265 C2266 1.362 . S
C2266 H2258 0.930 . S
C2266 C2265 1.362 . S
C2266 C2269 1.409 . S
C2267 H2259 0.930 . S
C2267 C2268 1.355 . S
C2267 C2269 1.415 . S
C2268 C2267 1.355 . S
C2268 C2270 1.419 . S
C2269 C2264 1.425 . S
C2269 C2266 1.409 . S
C2269 C2267 1.415 . S
C2270 H2260 0.930 . S
C2270 C2268 1.419 . S
C2270 C2271 1.362 . S
C2271 H2261 0.930 . S
C2271 C2264 1.409 . S
C2271 C2270 1.362 . S
H2272 C2278 0.930 . S
H2273 C2281 0.930 . S
H2274 C2282 0.930 . S
H2275 C2283 0.930 . S
H2276 C2286 0.930 . S
H2277 C2287 0.930 . S
C2278 H2272 0.930 . S
C2278 C2279 1.355 . S
C2278 C2280 1.415 . S
C2279 C2278 1.355 . S
C2279 C2281 1.419 . S
C2280 C2278 1.415 . S
C2280 C2285 1.425 . S
C2280 C2287 1.409 . S
C2281 H2273 0.930 . S
C2281 C2279 1.419 . S
C2281 C2282 1.362 . S
C2282 H2274 0.930 . S
C2282 C2281 1.362 . S
C2282 C2285 1.409 . S
C2283 H2275 0.930 . S
C2283 C2284 1.355 . S
C2283 C2285 1.415 . S
C2284 C2283 1.355 . S
C2284 C2286 1.419 . S
C2285 C2280 1.425 . S
C2285 C2282 1.409 . S
C2285 C2283 1.415 . S
C2286 H2276 0.930 . S
C2286 C2284 1.419 . S
C2286 C2287 1.362 . S
C2287 H2277 0.930 . S
C2287 C2280 1.409 . S
C2287 C2286 1.362 . S
H2288 C2294 0.930 . S
H2289 C2297 0.931 . S
H2290 C2298 0.930 . S
H2291 C2299 0.930 . S
H2292 C2302 0.930 . S
H2293 C2303 0.930 . S
C2294 H2288 0.930 . S
C2294 C2295 1.355 . S
C2294 C2296 1.415 . S
C2295 C2294 1.355 . S
C2295 C2297 1.419 . S
C2296 C2294 1.415 . S
C2296 C2301 1.425 . S
C2296 C2303 1.409 . S
C2297 H2289 0.931 . S
C2297 C2295 1.419 . S
C2297 C2298 1.362 . S
C2298 H2290 0.930 . S
C2298 C2297 1.362 . S
C2298 C2301 1.409 . S
C2299 H2291 0.930 . S
C2299 C2300 1.355 . S
C2299 C2301 1.415 . S
C2300 C2299 1.355 . S
C2300 C2302 1.419 . S
C2301 C2296 1.425 . S
C2301 C2298 1.409 . S
C2301 C2299 1.415 . S
C2302 H2292 0.930 . S
C2302 C2300 1.419 . S
C2302 C2303 1.362 . S
C2303 H2293 0.930 . S
C2303 C2296 1.409 . S
C2303 C2302 1.362 . S
H2304 C2310 0.930 . S
H2305 C2313 0.930 . S
H2306 C2314 0.930 . S
H2307 C2315 0.930 . S
H2308 C2318 0.930 . S
H2309 C2319 0.930 . S
C2310 H2304 0.930 . S
C2310 C2311 1.355 . S
C2310 C2312 1.415 . S
C2311 C2310 1.355 . S
C2311 C2313 1.419 . S
C2312 C2310 1.415 . S
C2312 C2317 1.425 . S
C2312 C2319 1.409 . S
C2313 H2305 0.930 . S
C2313 C2311 1.419 . S
C2313 C2314 1.362 . S
C2314 H2306 0.930 . S
C2314 C2313 1.362 . S
C2314 C2317 1.409 . S
C2315 H2307 0.930 . S
C2315 C2316 1.355 . S
C2315 C2317 1.415 . S
C2316 C2315 1.355 . S
C2316 C2318 1.419 . S
C2317 C2312 1.425 . S
C2317 C2314 1.409 . S
C2317 C2315 1.415 . S
C2318 H2308 0.930 . S
C2318 C2316 1.419 . S
C2318 C2319 1.362 . S
C2319 H2309 0.930 . S
C2319 C2312 1.409 . S
C2319 C2318 1.362 . S
H2320 C2326 0.930 . S
H2321 C2329 0.930 . S
H2322 C2330 0.930 . S
H2323 C2331 0.930 . S
H2324 C2334 0.930 . S
H2325 C2335 0.930 . S
C2326 H2320 0.930 . S
C2326 C2327 1.355 . S
C2326 C2328 1.415 . S
C2327 C2326 1.355 . S
C2327 C2329 1.419 . S
C2328 C2326 1.415 . S
C2328 C2333 1.425 . S
C2328 C2335 1.409 . S
C2329 H2321 0.930 . S
C2329 C2327 1.419 . S
C2329 C2330 1.362 . S
C2330 H2322 0.930 . S
C2330 C2329 1.362 . S
C2330 C2333 1.409 . S
C2331 H2323 0.930 . S
C2331 C2332 1.355 . S
C2331 C2333 1.415 . S
C2332 C2331 1.355 . S
C2332 C2334 1.419 . S
C2333 C2328 1.425 . S
C2333 C2330 1.409 . S
C2333 C2331 1.415 . S
C2334 H2324 0.930 . S
C2334 C2332 1.419 . S
C2334 C2335 1.362 . S
C2335 H2325 0.930 . S
C2335 C2328 1.409 . S
C2335 C2334 1.362 . S
H2336 C2342 0.930 . S
H2337 C2345 0.930 . S
H2338 C2346 0.930 . S
H2339 C2347 0.930 . S
H2340 C2350 0.930 . S
H2341 C2351 0.930 . S
C2342 H2336 0.930 . S
C2342 C2343 1.355 . S
C2342 C2344 1.415 . S
C2343 C2342 1.355 . S
C2343 C2345 1.419 . S
C2344 C2342 1.415 . S
C2344 C2349 1.425 . S
C2344 C2351 1.409 . S
C2345 H2337 0.930 . S
C2345 C2343 1.419 . S
C2345 C2346 1.362 . S
C2346 H2338 0.930 . S
C2346 C2345 1.362 . S
C2346 C2349 1.409 . S
C2347 H2339 0.930 . S
C2347 C2348 1.355 . S
C2347 C2349 1.415 . S
C2348 C2347 1.355 . S
C2348 C2350 1.419 . S
C2349 C2344 1.425 . S
C2349 C2346 1.409 . S
C2349 C2347 1.415 . S
C2350 H2340 0.930 . S
C2350 C2348 1.419 . S
C2350 C2351 1.362 . S
C2351 H2341 0.930 . S
C2351 C2344 1.409 . S
C2351 C2350 1.362 . S
H2352 C2358 0.930 . S
H2353 C2361 0.930 . S
H2354 C2362 0.930 . S
H2355 C2363 0.930 . S
H2356 C2366 0.930 . S
H2357 C2367 0.930 . S
C2358 H2352 0.930 . S
C2358 C2359 1.355 . S
C2358 C2360 1.415 . S
C2359 C2358 1.355 . S
C2359 C2361 1.419 . S
C2360 C2358 1.415 . S
C2360 C2365 1.425 . S
C2360 C2367 1.409 . S
C2361 H2353 0.930 . S
C2361 C2359 1.419 . S
C2361 C2362 1.362 . S
C2362 H2354 0.930 . S
C2362 C2361 1.362 . S
C2362 C2365 1.409 . S
C2363 H2355 0.930 . S
C2363 C2364 1.355 . S
C2363 C2365 1.415 . S
C2364 C2363 1.355 . S
C2364 C2366 1.419 . S
C2365 C2360 1.425 . S
C2365 C2362 1.409 . S
C2365 C2363 1.415 . S
C2366 H2356 0.930 . S
C2366 C2364 1.419 . S
C2366 C2367 1.362 . S
C2367 H2357 0.930 . S
C2367 C2360 1.409 . S
C2367 C2366 1.362 . S
H2368 C2374 0.930 . S
H2369 C2377 0.930 . S
H2370 C2378 0.930 . S
H2371 C2379 0.930 . S
H2372 C2382 0.930 . S
H2373 C2383 0.930 . S
C2374 H2368 0.930 . S
C2374 C2375 1.355 . S
C2374 C2376 1.415 . S
C2375 C2374 1.355 . S
C2375 C2377 1.419 . S
C2376 C2374 1.415 . S
C2376 C2381 1.425 . S
C2376 C2383 1.409 . S
C2377 H2369 0.930 . S
C2377 C2375 1.419 . S
C2377 C2378 1.362 . S
C2378 H2370 0.930 . S
C2378 C2377 1.362 . S
C2378 C2381 1.409 . S
C2379 H2371 0.930 . S
C2379 C2380 1.355 . S
C2379 C2381 1.415 . S
C2380 C2379 1.355 . S
C2380 C2382 1.419 . S
C2381 C2376 1.425 . S
C2381 C2378 1.409 . S
C2381 C2379 1.415 . S
C2382 H2372 0.930 . S
C2382 C2380 1.419 . S
C2382 C2383 1.362 . S
C2383 H2373 0.930 . S
C2383 C2376 1.409 . S
C2383 C2382 1.362 . S
H2384 C2390 0.930 . S
H2385 C2393 0.927 1_545 S
H2386 C2394 0.930 . S
H2387 C2395 0.930 . S
H2388 C2398 0.930 . S
H2389 C2399 0.930 . S
C2390 H2384 0.930 . S
C2390 C2391 1.355 . S
C2390 C2392 1.415 . S
C2391 C2390 1.355 . S
C2391 C2393 1.419 . S
C2392 C2390 1.415 . S
C2392 C2397 1.425 . S
C2392 C2399 1.409 . S
C2393 H2385 0.927 1_565 S
C2393 C2391 1.419 . S
C2393 C2394 1.362 . S
C2394 H2386 0.930 . S
C2394 C2393 1.362 . S
C2394 C2397 1.409 . S
C2395 H2387 0.930 . S
C2395 C2396 1.355 . S
C2395 C2397 1.415 . S
C2396 C2395 1.355 . S
C2396 C2398 1.419 . S
C2397 C2392 1.425 . S
C2397 C2394 1.409 . S
C2397 C2395 1.415 . S
C2398 H2388 0.930 . S
C2398 C2396 1.419 . S
C2398 C2399 1.362 . S
C2399 H2389 0.930 . S
C2399 C2392 1.409 . S
C2399 C2398 1.362 . S
H2400 C2406 0.930 . S
H2401 C2409 0.930 . S
H2402 C2410 0.930 . S
H2403 C2411 0.930 . S
H2404 C2414 0.930 . S
H2405 C2415 0.930 . S
C2406 H2400 0.930 . S
C2406 C2407 1.355 . S
C2406 C2408 1.415 . S
C2407 C2406 1.355 . S
C2407 C2409 1.419 . S
C2408 C2406 1.415 . S
C2408 C2413 1.425 . S
C2408 C2415 1.409 . S
C2409 H2401 0.930 . S
C2409 C2407 1.419 . S
C2409 C2410 1.362 . S
C2410 H2402 0.930 . S
C2410 C2409 1.362 . S
C2410 C2413 1.409 . S
C2411 H2403 0.930 . S
C2411 C2412 1.355 . S
C2411 C2413 1.415 . S
C2412 C2411 1.355 . S
C2412 C2414 1.419 . S
C2413 C2408 1.425 . S
C2413 C2410 1.409 . S
C2413 C2411 1.415 . S
C2414 H2404 0.930 . S
C2414 C2412 1.419 . S
C2414 C2415 1.362 . S
C2415 H2405 0.930 . S
C2415 C2408 1.409 . S
C2415 C2414 1.362 . S
H2416 C2422 0.930 . S
H2417 C2425 0.930 . S
H2418 C2426 0.930 . S
H2419 C2427 0.930 . S
H2420 C2430 0.930 . S
H2421 C2431 0.930 . S
C2422 H2416 0.930 . S
C2422 C2423 1.355 . S
C2422 C2424 1.415 . S
C2423 C2422 1.355 . S
C2423 C2425 1.419 . S
C2424 C2422 1.415 . S
C2424 C2429 1.425 . S
C2424 C2431 1.409 . S
C2425 H2417 0.930 . S
C2425 C2423 1.419 . S
C2425 C2426 1.362 . S
C2426 H2418 0.930 . S
C2426 C2425 1.362 . S
C2426 C2429 1.409 . S
C2427 H2419 0.930 . S
C2427 C2428 1.355 . S
C2427 C2429 1.415 . S
C2428 C2427 1.355 . S
C2428 C2430 1.419 . S
C2429 C2424 1.425 . S
C2429 C2426 1.409 . S
C2429 C2427 1.415 . S
C2430 H2420 0.930 . S
C2430 C2428 1.419 . S
C2430 C2431 1.362 . S
C2431 H2421 0.930 . S
C2431 C2424 1.409 . S
C2431 C2430 1.362 . S
H2432 C2438 0.930 . S
H2433 C2441 0.930 . S
H2434 C2442 0.930 . S
H2435 C2443 0.930 . S
H2436 C2446 0.930 . S
H2437 C2447 0.930 . S
C2438 H2432 0.930 . S
C2438 C2439 1.355 . S
C2438 C2440 1.415 . S
C2439 C2438 1.355 . S
C2439 C2441 1.419 . S
C2440 C2438 1.415 . S
C2440 C2445 1.425 . S
C2440 C2447 1.409 . S
C2441 H2433 0.930 . S
C2441 C2439 1.419 . S
C2441 C2442 1.362 . S
C2442 H2434 0.930 . S
C2442 C2441 1.362 . S
C2442 C2445 1.409 . S
C2443 H2435 0.930 . S
C2443 C2444 1.355 . S
C2443 C2445 1.415 . S
C2444 C2443 1.355 . S
C2444 C2446 1.419 . S
C2445 C2440 1.425 . S
C2445 C2442 1.409 . S
C2445 C2443 1.415 . S
C2446 H2436 0.930 . S
C2446 C2444 1.419 . S
C2446 C2447 1.362 . S
C2447 H2437 0.930 . S
C2447 C2440 1.409 . S
C2447 C2446 1.362 . S
H2448 C2454 0.930 . S
H2449 C2457 0.930 . S
H2450 C2458 0.930 . S
H2451 C2459 0.930 . S
H2452 C2462 0.930 . S
H2453 C2463 0.930 . S
C2454 H2448 0.930 . S
C2454 C2455 1.355 . S
C2454 C2456 1.415 . S
C2455 C2454 1.355 . S
C2455 C2457 1.419 . S
C2456 C2454 1.415 . S
C2456 C2461 1.425 . S
C2456 C2463 1.409 . S
C2457 H2449 0.930 . S
C2457 C2455 1.419 . S
C2457 C2458 1.362 . S
C2458 H2450 0.930 . S
C2458 C2457 1.362 . S
C2458 C2461 1.409 . S
C2459 H2451 0.930 . S
C2459 C2460 1.355 . S
C2459 C2461 1.415 . S
C2460 C2459 1.355 . S
C2460 C2462 1.419 . S
C2461 C2456 1.425 . S
C2461 C2458 1.409 . S
C2461 C2459 1.415 . S
C2462 H2452 0.930 . S
C2462 C2460 1.419 . S
C2462 C2463 1.362 . S
C2463 H2453 0.930 . S
C2463 C2456 1.409 . S
C2463 C2462 1.362 . S
H2464 C2470 0.930 . S
H2465 C2473 0.930 . S
H2466 C2474 0.930 . S
H2467 C2475 0.930 . S
H2468 C2478 0.930 . S
H2469 C2479 0.930 . S
C2470 H2464 0.930 . S
C2470 C2471 1.355 . S
C2470 C2472 1.415 . S
C2471 C2470 1.355 . S
C2471 C2473 1.419 . S
C2472 C2470 1.415 . S
C2472 C2477 1.425 . S
C2472 C2479 1.409 . S
C2473 H2465 0.930 . S
C2473 C2471 1.419 . S
C2473 C2474 1.362 . S
C2474 H2466 0.930 . S
C2474 C2473 1.362 . S
C2474 C2477 1.409 . S
C2475 H2467 0.930 . S
C2475 C2476 1.355 . S
C2475 C2477 1.415 . S
C2476 C2475 1.355 . S
C2476 C2478 1.419 . S
C2477 C2472 1.425 . S
C2477 C2474 1.409 . S
C2477 C2475 1.415 . S
C2478 H2468 0.930 . S
C2478 C2476 1.419 . S
C2478 C2479 1.362 . S
C2479 H2469 0.930 . S
C2479 C2472 1.409 . S
C2479 C2478 1.362 . S
H2480 C2486 0.930 . S
H2481 C2489 0.930 . S
H2482 C2490 0.930 . S
H2483 C2491 0.921 1_656 S
H2484 C2494 0.930 . S
H2485 C2495 0.930 . S
C2486 H2480 0.930 . S
C2486 C2487 1.355 1_554 S
C2486 C2488 1.415 . S
C2487 C2486 1.355 1_556 S
C2487 C2489 1.419 1_455 S
C2488 C2486 1.415 . S
C2488 C2493 1.425 1_554 S
C2488 C2495 1.409 . S
C2489 H2481 0.930 . S
C2489 C2487 1.419 1_655 S
C2489 C2490 1.362 . S
C2490 H2482 0.930 . S
C2490 C2489 1.362 . S
C2490 C2493 1.409 1_655 S
C2491 H2483 0.921 1_454 S
C2491 C2492 1.363 . S
C2491 C2493 1.415 1_554 S
C2492 C2491 1.363 . S
C2492 C2494 1.419 . S
C2493 C2488 1.425 1_556 S
C2493 C2490 1.409 1_455 S
C2493 C2491 1.415 1_556 S
C2494 H2484 0.930 . S
C2494 C2492 1.419 . S
C2494 C2495 1.362 . S
C2495 H2485 0.930 . S
C2495 C2488 1.409 . S
C2495 C2494 1.362 . S
H2496 C2502 0.919 1_455 S
H2497 C2505 0.930 . S
H2498 C2506 0.930 . S
H2499 C2507 0.930 . S
H2500 C2510 0.930 . S
H2501 C2511 0.930 . S
C2502 H2496 0.919 1_655 S
C2502 C2503 1.354 . S
C2502 C2504 1.426 . S
C2503 C2502 1.354 . S
C2503 C2505 1.426 . S
C2504 C2502 1.426 . S
C2504 C2509 1.425 . S
C2504 C2511 1.409 . S
C2505 H2497 0.930 . S
C2505 C2503 1.426 . S
C2505 C2506 1.362 . S
C2506 H2498 0.930 . S
C2506 C2505 1.362 . S
C2506 C2509 1.409 . S
C2507 H2499 0.930 . S
C2507 C2508 1.355 . S
C2507 C2509 1.415 . S
C2508 C2507 1.355 . S
C2508 C2510 1.419 . S
C2509 C2504 1.425 . S
C2509 C2506 1.409 . S
C2509 C2507 1.415 . S
C2510 H2500 0.930 . S
C2510 C2508 1.419 . S
C2510 C2511 1.362 . S
C2511 H2501 0.930 . S
C2511 C2504 1.409 . S
C2511 C2510 1.362 . S
H2512 C2518 0.930 . S
H2513 C2521 0.930 . S
H2514 C2522 0.930 . S
H2515 C2523 0.930 . S
H2516 C2526 0.930 . S
H2517 C2527 0.930 . S
C2518 H2512 0.930 . S
C2518 C2519 1.355 . S
C2518 C2520 1.415 . S
C2519 C2518 1.355 . S
C2519 C2521 1.419 . S
C2520 C2518 1.415 . S
C2520 C2525 1.425 . S
C2520 C2527 1.409 . S
C2521 H2513 0.930 . S
C2521 C2519 1.419 . S
C2521 C2522 1.362 . S
C2522 H2514 0.930 . S
C2522 C2521 1.362 . S
C2522 C2525 1.409 . S
C2523 H2515 0.930 . S
C2523 C2524 1.355 . S
C2523 C2525 1.415 . S
C2524 C2523 1.355 . S
C2524 C2526 1.419 . S
C2525 C2520 1.425 . S
C2525 C2522 1.409 . S
C2525 C2523 1.415 . S
C2526 H2516 0.930 . S
C2526 C2524 1.419 . S
C2526 C2527 1.362 . S
C2527 H2517 0.930 . S
C2527 C2520 1.409 . S
C2527 C2526 1.362 . S
H2528 C2534 0.930 . S
H2529 C2537 0.930 . S
H2530 C2538 0.930 . S
H2531 C2539 0.930 . S
H2532 C2542 0.930 . S
H2533 C2543 0.930 . S
C2534 H2528 0.930 . S
C2534 C2535 1.355 . S
C2534 C2536 1.415 . S
C2535 C2534 1.355 . S
C2535 C2537 1.419 . S
C2536 C2534 1.415 . S
C2536 C2541 1.425 . S
C2536 C2543 1.409 . S
C2537 H2529 0.930 . S
C2537 C2535 1.419 . S
C2537 C2538 1.362 . S
C2538 H2530 0.930 . S
C2538 C2537 1.362 . S
C2538 C2541 1.409 . S
C2539 H2531 0.930 . S
C2539 C2540 1.355 . S
C2539 C2541 1.415 . S
C2540 C2539 1.355 . S
C2540 C2542 1.419 . S
C2541 C2536 1.425 . S
C2541 C2538 1.409 . S
C2541 C2539 1.415 . S
C2542 H2532 0.930 . S
C2542 C2540 1.419 . S
C2542 C2543 1.362 . S
C2543 H2533 0.930 . S
C2543 C2536 1.409 . S
C2543 C2542 1.362 . S
H2544 C2550 0.930 . S
H2545 C2553 0.930 . S
H2546 C2554 0.930 . S
H2547 C2555 0.930 . S
H2548 C2558 0.930 . S
H2549 C2559 0.930 . S
C2550 H2544 0.930 . S
C2550 C2551 1.355 . S
C2550 C2552 1.415 . S
C2551 C2550 1.355 . S
C2551 C2553 1.419 . S
C2552 C2550 1.415 . S
C2552 C2557 1.425 . S
C2552 C2559 1.409 . S
C2553 H2545 0.930 . S
C2553 C2551 1.419 . S
C2553 C2554 1.362 . S
C2554 H2546 0.930 . S
C2554 C2553 1.362 . S
C2554 C2557 1.409 . S
C2555 H2547 0.930 . S
C2555 C2556 1.355 . S
C2555 C2557 1.415 . S
C2556 C2555 1.355 . S
C2556 C2558 1.419 . S
C2557 C2552 1.425 . S
C2557 C2554 1.409 . S
C2557 C2555 1.415 . S
C2558 H2548 0.930 . S
C2558 C2556 1.419 . S
C2558 C2559 1.362 . S
C2559 H2549 0.930 . S
C2559 C2552 1.409 . S
C2559 C2558 1.362 . S
H2560 C2566 0.930 . S
H2561 C2569 0.930 . S
H2562 C2570 0.930 . S
H2563 C2571 0.930 . S
H2564 C2574 0.930 . S
H2565 C2575 0.930 . S
C2566 H2560 0.930 . S
C2566 C2567 1.355 . S
C2566 C2568 1.415 . S
C2567 C2566 1.355 . S
C2567 C2569 1.419 . S
C2568 C2566 1.415 . S
C2568 C2573 1.425 . S
C2568 C2575 1.409 . S
C2569 H2561 0.930 . S
C2569 C2567 1.419 . S
C2569 C2570 1.362 . S
C2570 H2562 0.930 . S
C2570 C2569 1.362 . S
C2570 C2573 1.409 . S
C2571 H2563 0.930 . S
C2571 C2572 1.355 . S
C2571 C2573 1.415 . S
C2572 C2571 1.355 . S
C2572 C2574 1.419 . S
C2573 C2568 1.425 . S
C2573 C2570 1.409 . S
C2573 C2571 1.415 . S
C2574 H2564 0.930 . S
C2574 C2572 1.419 . S
C2574 C2575 1.362 . S
C2575 H2565 0.930 . S
C2575 C2568 1.409 . S
C2575 C2574 1.362 . S
H2576 C2582 0.930 . S
H2577 C2585 0.930 . S
H2578 C2586 0.930 . S
H2579 C2587 0.930 . S
H2580 C2590 0.930 . S
H2581 C2591 0.930 . S
C2582 H2576 0.930 . S
C2582 C2583 1.355 . S
C2582 C2584 1.415 . S
C2583 C2582 1.355 . S
C2583 C2585 1.419 . S
C2584 C2582 1.415 . S
C2584 C2589 1.425 . S
C2584 C2591 1.409 . S
C2585 H2577 0.930 . S
C2585 C2583 1.419 . S
C2585 C2586 1.362 . S
C2586 H2578 0.930 . S
C2586 C2585 1.362 . S
C2586 C2589 1.409 . S
C2587 H2579 0.930 . S
C2587 C2588 1.355 . S
C2587 C2589 1.415 . S
C2588 C2587 1.355 . S
C2588 C2590 1.419 . S
C2589 C2584 1.425 . S
C2589 C2586 1.409 . S
C2589 C2587 1.415 . S
C2590 H2580 0.930 . S
C2590 C2588 1.419 . S
C2590 C2591 1.362 . S
C2591 H2581 0.930 . S
C2591 C2584 1.409 . S
C2591 C2590 1.362 . S
H2592 C2598 0.899 1_554 S
H2593 C2601 0.930 . S
H2594 C2602 0.930 . S
H2595 C2603 0.930 . S
H2596 C2606 0.930 . S
H2597 C2607 0.930 . S
C2598 H2592 0.899 1_556 S
C2598 C2599 1.350 . S
C2598 C2600 1.450 . S
C2599 C2598 1.350 . S
C2599 C2601 1.419 . S
C2600 C2598 1.450 . S
C2600 C2605 1.425 . S
C2600 C2607 1.409 . S
C2601 H2593 0.930 . S
C2601 C2599 1.419 . S
C2601 C2602 1.362 . S
C2602 H2594 0.930 . S
C2602 C2601 1.362 . S
C2602 C2605 1.409 . S
C2603 H2595 0.930 . S
C2603 C2604 1.355 . S
C2603 C2605 1.415 . S
C2604 C2603 1.355 . S
C2604 C2606 1.419 . S
C2605 C2600 1.425 . S
C2605 C2602 1.409 . S
C2605 C2603 1.415 . S
C2606 H2596 0.930 . S
C2606 C2604 1.419 . S
C2606 C2607 1.362 . S
C2607 H2597 0.930 . S
C2607 C2600 1.409 . S
C2607 C2606 1.362 . S
H2608 C2614 0.930 . S
H2609 C2617 0.930 . S
H2610 C2618 0.930 . S
H2611 C2619 0.930 . S
H2612 C2622 0.930 . S
H2613 C2623 0.930 . S
C2614 H2608 0.930 . S
C2614 C2615 1.355 . S
C2614 C2616 1.415 . S
C2615 C2614 1.355 . S
C2615 C2617 1.419 . S
C2616 C2614 1.415 . S
C2616 C2621 1.425 . S
C2616 C2623 1.409 . S
C2617 H2609 0.930 . S
C2617 C2615 1.419 . S
C2617 C2618 1.362 . S
C2618 H2610 0.930 . S
C2618 C2617 1.362 . S
C2618 C2621 1.409 . S
C2619 H2611 0.930 . S
C2619 C2620 1.355 . S
C2619 C2621 1.415 . S
C2620 C2619 1.355 . S
C2620 C2622 1.419 . S
C2621 C2616 1.425 . S
C2621 C2618 1.409 . S
C2621 C2619 1.415 . S
C2622 H2612 0.930 . S
C2622 C2620 1.419 . S
C2622 C2623 1.362 . S
C2623 H2613 0.930 . S
C2623 C2616 1.409 . S
C2623 C2622 1.362 . S
H2624 C2630 0.930 . S
H2625 C2633 0.930 . S
H2626 C2634 0.930 . S
H2627 C2635 0.930 . S
H2628 C2638 0.930 . S
H2629 C2639 0.930 . S
C2630 H2624 0.930 . S
C2630 C2631 1.355 . S
C2630 C2632 1.415 . S
C2631 C2630 1.355 . S
C2631 C2633 1.419 . S
C2632 C2630 1.415 . S
C2632 C2637 1.425 . S
C2632 C2639 1.409 . S
C2633 H2625 0.930 . S
C2633 C2631 1.419 . S
C2633 C2634 1.362 . S
C2634 H2626 0.930 . S
C2634 C2633 1.362 . S
C2634 C2637 1.409 . S
C2635 H2627 0.930 . S
C2635 C2636 1.355 . S
C2635 C2637 1.415 . S
C2636 C2635 1.355 . S
C2636 C2638 1.419 . S
C2637 C2632 1.425 . S
C2637 C2634 1.409 . S
C2637 C2635 1.415 . S
C2638 H2628 0.930 . S
C2638 C2636 1.419 . S
C2638 C2639 1.362 . S
C2639 H2629 0.930 . S
C2639 C2632 1.409 . S
C2639 C2638 1.362 . S
H2640 C2646 0.930 . S
H2641 C2649 0.930 . S
H2642 C2650 0.930 . S
H2643 C2651 0.930 . S
H2644 C2654 0.930 . S
H2645 C2655 0.930 . S
C2646 H2640 0.930 . S
C2646 C2647 1.355 . S
C2646 C2648 1.415 . S
C2647 C2646 1.355 . S
C2647 C2649 1.419 . S
C2648 C2646 1.415 . S
C2648 C2653 1.425 . S
C2648 C2655 1.409 . S
C2649 H2641 0.930 . S
C2649 C2647 1.419 . S
C2649 C2650 1.362 . S
C2650 H2642 0.930 . S
C2650 C2649 1.362 . S
C2650 C2653 1.409 . S
C2651 H2643 0.930 . S
C2651 C2652 1.355 . S
C2651 C2653 1.415 . S
C2652 C2651 1.355 . S
C2652 C2654 1.419 . S
C2653 C2648 1.425 . S
C2653 C2650 1.409 . S
C2653 C2651 1.415 . S
C2654 H2644 0.930 . S
C2654 C2652 1.419 . S
C2654 C2655 1.362 . S
C2655 H2645 0.930 . S
C2655 C2648 1.409 . S
C2655 C2654 1.362 . S
H2656 C2662 0.930 . S
H2657 C2665 0.930 . S
H2658 C2666 0.930 . S
H2659 C2667 0.930 . S
H2660 C2670 0.930 . S
H2661 C2671 0.930 . S
C2662 H2656 0.930 . S
C2662 C2663 1.355 . S
C2662 C2664 1.415 . S
C2663 C2662 1.355 . S
C2663 C2665 1.419 . S
C2664 C2662 1.415 . S
C2664 C2669 1.425 . S
C2664 C2671 1.409 . S
C2665 H2657 0.930 . S
C2665 C2663 1.419 . S
C2665 C2666 1.362 . S
C2666 H2658 0.930 . S
C2666 C2665 1.362 . S
C2666 C2669 1.409 . S
C2667 H2659 0.930 . S
C2667 C2668 1.355 . S
C2667 C2669 1.415 . S
C2668 C2667 1.355 . S
C2668 C2670 1.419 . S
C2669 C2664 1.425 . S
C2669 C2666 1.409 . S
C2669 C2667 1.415 . S
C2670 H2660 0.930 . S
C2670 C2668 1.419 . S
C2670 C2671 1.362 . S
C2671 H2661 0.930 . S
C2671 C2664 1.409 . S
C2671 C2670 1.362 . S
H2672 C2678 0.930 . S
H2673 C2681 0.930 . S
H2674 C2682 0.930 . S
H2675 C2683 0.930 . S
H2676 C2686 0.930 . S
H2677 C2687 0.930 . S
C2678 H2672 0.930 . S
C2678 C2679 1.355 . S
C2678 C2680 1.415 . S
C2679 C2678 1.355 . S
C2679 C2681 1.419 . S
C2680 C2678 1.415 . S
C2680 C2685 1.425 . S
C2680 C2687 1.409 . S
C2681 H2673 0.930 . S
C2681 C2679 1.419 . S
C2681 C2682 1.362 . S
C2682 H2674 0.930 . S
C2682 C2681 1.362 . S
C2682 C2685 1.409 . S
C2683 H2675 0.930 . S
C2683 C2684 1.355 . S
C2683 C2685 1.415 . S
C2684 C2683 1.355 . S
C2684 C2686 1.419 . S
C2685 C2680 1.425 . S
C2685 C2682 1.409 . S
C2685 C2683 1.415 . S
C2686 H2676 0.930 . S
C2686 C2684 1.419 . S
C2686 C2687 1.362 . S
C2687 H2677 0.930 . S
C2687 C2680 1.409 . S
C2687 C2686 1.362 . S
H2688 C2694 0.930 . S
H2689 C2697 0.930 . S
H2690 C2698 0.930 . S
H2691 C2699 0.930 . S
H2692 C2702 0.930 . S
H2693 C2703 0.930 . S
C2694 H2688 0.930 . S
C2694 C2695 1.355 . S
C2694 C2696 1.415 . S
C2695 C2694 1.355 . S
C2695 C2697 1.419 . S
C2696 C2694 1.415 . S
C2696 C2701 1.425 . S
C2696 C2703 1.409 . S
C2697 H2689 0.930 . S
C2697 C2695 1.419 . S
C2697 C2698 1.362 . S
C2698 H2690 0.930 . S
C2698 C2697 1.362 . S
C2698 C2701 1.409 . S
C2699 H2691 0.930 . S
C2699 C2700 1.355 . S
C2699 C2701 1.415 . S
C2700 C2699 1.355 . S
C2700 C2702 1.419 . S
C2701 C2696 1.425 . S
C2701 C2698 1.409 . S
C2701 C2699 1.415 . S
C2702 H2692 0.930 . S
C2702 C2700 1.419 . S
C2702 C2703 1.362 . S
C2703 H2693 0.930 . S
C2703 C2696 1.409 . S
C2703 C2702 1.362 . S
H2704 C2710 0.930 . S
H2705 C2713 0.930 . S
H2706 C2714 0.930 . S
H2707 C2715 0.930 . S
H2708 C2718 0.930 . S
H2709 C2719 0.930 . S
C2710 H2704 0.930 . S
C2710 C2711 1.355 . S
C2710 C2712 1.415 . S
C2711 C2710 1.355 . S
C2711 C2713 1.419 . S
C2712 C2710 1.415 . S
C2712 C2717 1.425 . S
C2712 C2719 1.409 . S
C2713 H2705 0.930 . S
C2713 C2711 1.419 . S
C2713 C2714 1.362 . S
C2714 H2706 0.930 . S
C2714 C2713 1.362 . S
C2714 C2717 1.409 . S
C2715 H2707 0.930 . S
C2715 C2716 1.355 . S
C2715 C2717 1.415 . S
C2716 C2715 1.355 . S
C2716 C2718 1.419 . S
C2717 C2712 1.425 . S
C2717 C2714 1.409 . S
C2717 C2715 1.415 . S
C2718 H2708 0.930 . S
C2718 C2716 1.419 . S
C2718 C2719 1.362 . S
C2719 H2709 0.930 . S
C2719 C2712 1.409 . S
C2719 C2718 1.362 . S
H2720 C2726 0.930 . S
H2721 C2729 0.930 . S
H2722 C2730 0.930 . S
H2723 C2731 0.930 . S
H2724 C2734 0.930 . S
H2725 C2735 0.930 . S
C2726 H2720 0.930 . S
C2726 C2727 1.355 . S
C2726 C2728 1.415 . S
C2727 C2726 1.355 . S
C2727 C2729 1.419 . S
C2728 C2726 1.415 . S
C2728 C2733 1.425 . S
C2728 C2735 1.409 . S
C2729 H2721 0.930 . S
C2729 C2727 1.419 . S
C2729 C2730 1.362 . S
C2730 H2722 0.930 . S
C2730 C2729 1.362 . S
C2730 C2733 1.409 . S
C2731 H2723 0.930 . S
C2731 C2732 1.355 . S
C2731 C2733 1.415 . S
C2732 C2731 1.355 . S
C2732 C2734 1.419 . S
C2733 C2728 1.425 . S
C2733 C2730 1.409 . S
C2733 C2731 1.415 . S
C2734 H2724 0.930 . S
C2734 C2732 1.419 . S
C2734 C2735 1.362 . S
C2735 H2725 0.930 . S
C2735 C2728 1.409 . S
C2735 C2734 1.362 . S
H2736 C2742 0.930 . S
H2737 C2745 0.930 1_545 S
H2738 C2746 0.930 . S
H2739 C2747 0.930 . S
H2740 C2750 0.930 . S
H2741 C2751 0.930 . S
C2742 H2736 0.930 . S
C2742 C2743 1.355 . S
C2742 C2744 1.415 . S
C2743 C2742 1.355 . S
C2743 C2745 1.419 . S
C2744 C2742 1.415 . S
C2744 C2749 1.425 . S
C2744 C2751 1.409 . S
C2745 H2737 0.930 1_565 S
C2745 C2743 1.419 . S
C2745 C2746 1.362 . S
C2746 H2738 0.930 . S
C2746 C2745 1.362 . S
C2746 C2749 1.409 . S
C2747 H2739 0.930 . S
C2747 C2748 1.355 . S
C2747 C2749 1.415 . S
C2748 C2747 1.355 . S
C2748 C2750 1.419 . S
C2749 C2744 1.425 . S
C2749 C2746 1.409 . S
C2749 C2747 1.415 . S
C2750 H2740 0.930 . S
C2750 C2748 1.419 . S
C2750 C2751 1.362 . S
C2751 H2741 0.930 . S
C2751 C2744 1.409 . S
C2751 C2750 1.362 . S
H2752 C2758 0.930 1_545 S
H2753 C2761 0.930 1_556 S
H2754 C2762 0.930 . S
H2755 C2763 0.930 . S
H2756 C2766 0.930 . S
H2757 C2767 0.930 . S
C2758 H2752 0.930 1_565 S
C2758 C2759 1.355 . S
C2758 C2760 1.415 . S
C2759 C2758 1.355 . S
C2759 C2761 1.419 . S
C2760 C2758 1.415 . S
C2760 C2765 1.425 . S
C2760 C2767 1.409 1_565 S
C2761 H2753 0.930 1_554 S
C2761 C2759 1.419 . S
C2761 C2762 1.362 . S
C2762 H2754 0.930 . S
C2762 C2761 1.362 . S
C2762 C2765 1.409 . S
C2763 H2755 0.930 . S
C2763 C2764 1.355 1_565 S
C2763 C2765 1.415 . S
C2764 C2763 1.355 1_545 S
C2764 C2766 1.419 . S
C2765 C2760 1.425 . S
C2765 C2762 1.409 . S
C2765 C2763 1.415 . S
C2766 H2756 0.930 . S
C2766 C2764 1.419 . S
C2766 C2767 1.362 . S
C2767 H2757 0.930 . S
C2767 C2760 1.409 1_545 S
C2767 C2766 1.362 . S
H2768 C2774 0.930 . S
H2769 C2777 0.930 . S
H2770 C2778 0.930 . S
H2771 C2779 0.930 . S
H2772 C2782 0.930 . S
H2773 C2783 0.930 . S
C2774 H2768 0.930 . S
C2774 C2775 1.355 . S
C2774 C2776 1.415 . S
C2775 C2774 1.355 . S
C2775 C2777 1.419 . S
C2776 C2774 1.415 . S
C2776 C2781 1.425 . S
C2776 C2783 1.409 . S
C2777 H2769 0.930 . S
C2777 C2775 1.419 . S
C2777 C2778 1.362 . S
C2778 H2770 0.930 . S
C2778 C2777 1.362 . S
C2778 C2781 1.409 . S
C2779 H2771 0.930 . S
C2779 C2780 1.355 . S
C2779 C2781 1.415 . S
C2780 C2779 1.355 . S
C2780 C2782 1.419 . S
C2781 C2776 1.425 . S
C2781 C2778 1.409 . S
C2781 C2779 1.415 . S
C2782 H2772 0.930 . S
C2782 C2780 1.419 . S
C2782 C2783 1.362 . S
C2783 H2773 0.930 . S
C2783 C2776 1.409 . S
C2783 C2782 1.362 . S
H2784 C2790 0.930 . S
H2785 C2793 0.930 . S
H2786 C2794 0.930 . S
H2787 C2795 0.930 . S
H2788 C2798 0.930 . S
H2789 C2799 0.930 . S
C2790 H2784 0.930 . S
C2790 C2791 1.355 . S
C2790 C2792 1.415 . S
C2791 C2790 1.355 . S
C2791 C2793 1.419 . S
C2792 C2790 1.415 . S
C2792 C2797 1.425 . S
C2792 C2799 1.409 . S
C2793 H2785 0.930 . S
C2793 C2791 1.419 . S
C2793 C2794 1.362 . S
C2794 H2786 0.930 . S
C2794 C2793 1.362 . S
C2794 C2797 1.409 . S
C2795 H2787 0.930 . S
C2795 C2796 1.355 . S
C2795 C2797 1.415 . S
C2796 C2795 1.355 . S
C2796 C2798 1.419 . S
C2797 C2792 1.425 . S
C2797 C2794 1.409 . S
C2797 C2795 1.415 . S
C2798 H2788 0.930 . S
C2798 C2796 1.419 . S
C2798 C2799 1.362 . S
C2799 H2789 0.930 . S
C2799 C2792 1.409 . S
C2799 C2798 1.362 . S
H2800 C2806 0.930 . S
H2801 C2809 0.930 . S
H2802 C2810 0.930 . S
H2803 C2811 0.930 . S
H2804 C2814 0.930 . S
H2805 C2815 0.930 . S
C2806 H2800 0.930 . S
C2806 C2807 1.355 . S
C2806 C2808 1.415 . S
C2807 C2806 1.355 . S
C2807 C2809 1.419 . S
C2808 C2806 1.415 . S
C2808 C2813 1.425 . S
C2808 C2815 1.409 . S
C2809 H2801 0.930 . S
C2809 C2807 1.419 . S
C2809 C2810 1.362 . S
C2810 H2802 0.930 . S
C2810 C2809 1.362 . S
C2810 C2813 1.409 . S
C2811 H2803 0.930 . S
C2811 C2812 1.355 . S
C2811 C2813 1.415 . S
C2812 C2811 1.355 . S
C2812 C2814 1.419 . S
C2813 C2808 1.425 . S
C2813 C2810 1.409 . S
C2813 C2811 1.415 . S
C2814 H2804 0.930 . S
C2814 C2812 1.419 . S
C2814 C2815 1.362 . S
C2815 H2805 0.930 . S
C2815 C2808 1.409 . S
C2815 C2814 1.362 . S
H2816 C2822 0.930 . S
H2817 C2825 0.930 . S
H2818 C2826 0.930 . S
H2819 C2827 0.930 . S
H2820 C2830 0.930 . S
H2821 C2831 0.930 . S
C2822 H2816 0.930 . S
C2822 C2823 1.355 . S
C2822 C2824 1.415 . S
C2823 C2822 1.355 . S
C2823 C2825 1.419 . S
C2824 C2822 1.415 . S
C2824 C2829 1.425 . S
C2824 C2831 1.409 . S
C2825 H2817 0.930 . S
C2825 C2823 1.419 . S
C2825 C2826 1.362 . S
C2826 H2818 0.930 . S
C2826 C2825 1.362 . S
C2826 C2829 1.409 . S
C2827 H2819 0.930 . S
C2827 C2828 1.355 . S
C2827 C2829 1.415 . S
C2828 C2827 1.355 . S
C2828 C2830 1.419 . S
C2829 C2824 1.425 . S
C2829 C2826 1.409 . S
C2829 C2827 1.415 . S
C2830 H2820 0.930 . S
C2830 C2828 1.419 . S
C2830 C2831 1.362 . S
C2831 H2821 0.930 . S
C2831 C2824 1.409 . S
C2831 C2830 1.362 . S
H2832 C2838 0.930 . S
H2833 C2841 0.930 . S
H2834 C2842 0.930 . S
H2835 C2843 0.930 . S
H2836 C2846 0.930 . S
H2837 C2847 0.930 . S
C2838 H2832 0.930 . S
C2838 C2839 1.355 . S
C2838 C2840 1.415 . S
C2839 C2838 1.355 . S
C2839 C2841 1.419 . S
C2840 C2838 1.415 . S
C2840 C2845 1.425 . S
C2840 C2847 1.409 . S
C2841 H2833 0.930 . S
C2841 C2839 1.419 . S
C2841 C2842 1.362 . S
C2842 H2834 0.930 . S
C2842 C2841 1.362 . S
C2842 C2845 1.409 . S
C2843 H2835 0.930 . S
C2843 C2844 1.355 . S
C2843 C2845 1.415 . S
C2844 C2843 1.355 . S
C2844 C2846 1.419 . S
C2845 C2840 1.425 . S
C2845 C2842 1.409 . S
C2845 C2843 1.415 . S
C2846 H2836 0.930 . S
C2846 C2844 1.419 . S
C2846 C2847 1.362 . S
C2847 H2837 0.930 . S
C2847 C2840 1.409 . S
C2847 C2846 1.362 . S
H2848 C2854 0.930 . S
H2849 C2857 0.930 . S
H2850 C2858 0.930 . S
H2851 C2859 0.930 . S
H2852 C2862 0.930 . S
H2853 C2863 0.930 . S
C2854 H2848 0.930 . S
C2854 C2855 1.355 . S
C2854 C2856 1.415 . S
C2855 C2854 1.355 . S
C2855 C2857 1.419 . S
C2856 C2854 1.415 . S
C2856 C2861 1.425 . S
C2856 C2863 1.409 . S
C2857 H2849 0.930 . S
C2857 C2855 1.419 . S
C2857 C2858 1.362 . S
C2858 H2850 0.930 . S
C2858 C2857 1.362 . S
C2858 C2861 1.409 . S
C2859 H2851 0.930 . S
C2859 C2860 1.355 . S
C2859 C2861 1.415 . S
C2860 C2859 1.355 . S
C2860 C2862 1.419 . S
C2861 C2856 1.425 . S
C2861 C2858 1.409 . S
C2861 C2859 1.415 . S
C2862 H2852 0.930 . S
C2862 C2860 1.419 . S
C2862 C2863 1.362 . S
C2863 H2853 0.930 . S
C2863 C2856 1.409 . S
C2863 C2862 1.362 . S
H2864 C2870 0.930 . S
H2865 C2873 0.930 . S
H2866 C2874 0.930 . S
H2867 C2875 0.930 . S
H2868 C2878 0.930 . S
H2869 C2879 0.930 . S
C2870 H2864 0.930 . S
C2870 C2871 1.355 . S
C2870 C2872 1.415 . S
C2871 C2870 1.355 . S
C2871 C2873 1.419 . S
C2872 C2870 1.415 . S
C2872 C2877 1.425 . S
C2872 C2879 1.409 . S
C2873 H2865 0.930 . S
C2873 C2871 1.419 . S
C2873 C2874 1.362 . S
C2874 H2866 0.930 . S
C2874 C2873 1.362 . S
C2874 C2877 1.409 . S
C2875 H2867 0.930 . S
C2875 C2876 1.355 . S
C2875 C2877 1.415 . S
C2876 C2875 1.355 . S
C2876 C2878 1.419 . S
C2877 C2872 1.425 . S
C2877 C2874 1.409 . S
C2877 C2875 1.415 . S
C2878 H2868 0.930 . S
C2878 C2876 1.419 . S
C2878 C2879 1.362 . S
C2879 H2869 0.930 . S
C2879 C2872 1.409 . S
C2879 C2878 1.362 . S
H2880 C2886 0.930 . S
H2881 C2889 0.930 . S
H2882 C2890 0.930 . S
H2883 C2891 0.930 . S
H2884 C2894 0.930 . S
H2885 C2895 0.930 . S
C2886 H2880 0.930 . S
C2886 C2887 1.355 . S
C2886 C2888 1.415 . S
C2887 C2886 1.355 . S
C2887 C2889 1.419 . S
C2888 C2886 1.415 . S
C2888 C2893 1.425 . S
C2888 C2895 1.409 . S
C2889 H2881 0.930 . S
C2889 C2887 1.419 . S
C2889 C2890 1.362 . S
C2890 H2882 0.930 . S
C2890 C2889 1.362 . S
C2890 C2893 1.409 . S
C2891 H2883 0.930 . S
C2891 C2892 1.355 . S
C2891 C2893 1.415 . S
C2892 C2891 1.355 . S
C2892 C2894 1.419 . S
C2893 C2888 1.425 . S
C2893 C2890 1.409 . S
C2893 C2891 1.415 . S
C2894 H2884 0.930 . S
C2894 C2892 1.419 . S
C2894 C2895 1.362 . S
C2895 H2885 0.930 . S
C2895 C2888 1.409 . S
C2895 C2894 1.362 . S
H2896 C2902 0.930 . S
H2897 C2905 0.930 . S
H2898 C2906 0.930 . S
H2899 C2907 0.930 . S
H2900 C2910 0.930 . S
H2901 C2911 0.930 . S
C2902 H2896 0.930 . S
C2902 C2903 1.355 . S
C2902 C2904 1.415 . S
C2903 C2902 1.355 . S
C2903 C2905 1.419 . S
C2904 C2902 1.415 . S
C2904 C2909 1.425 . S
C2904 C2911 1.409 . S
C2905 H2897 0.930 . S
C2905 C2903 1.419 . S
C2905 C2906 1.362 . S
C2906 H2898 0.930 . S
C2906 C2905 1.362 . S
C2906 C2909 1.409 . S
C2907 H2899 0.930 . S
C2907 C2908 1.355 . S
C2907 C2909 1.415 . S
C2908 C2907 1.355 . S
C2908 C2910 1.419 . S
C2909 C2904 1.425 . S
C2909 C2906 1.409 . S
C2909 C2907 1.415 . S
C2910 H2900 0.930 . S
C2910 C2908 1.419 . S
C2910 C2911 1.362 . S
C2911 H2901 0.930 . S
C2911 C2904 1.409 . S
C2911 C2910 1.362 . S
H2912 C2918 0.930 . S
H2913 C2921 0.930 . S
H2914 C2922 0.930 . S
H2915 C2923 0.930 . S
H2916 C2926 0.930 . S
H2917 C2927 0.930 . S
C2918 H2912 0.930 . S
C2918 C2919 1.355 . S
C2918 C2920 1.415 . S
C2919 C2918 1.355 . S
C2919 C2921 1.419 . S
C2920 C2918 1.415 . S
C2920 C2925 1.425 . S
C2920 C2927 1.409 . S
C2921 H2913 0.930 . S
C2921 C2919 1.419 . S
C2921 C2922 1.362 . S
C2922 H2914 0.930 . S
C2922 C2921 1.362 . S
C2922 C2925 1.409 . S
C2923 H2915 0.930 . S
C2923 C2924 1.355 . S
C2923 C2925 1.415 . S
C2924 C2923 1.355 . S
C2924 C2926 1.419 . S
C2925 C2920 1.425 . S
C2925 C2922 1.409 . S
C2925 C2923 1.415 . S
C2926 H2916 0.930 . S
C2926 C2924 1.419 . S
C2926 C2927 1.362 . S
C2927 H2917 0.930 . S
C2927 C2920 1.409 . S
C2927 C2926 1.362 . S
H2928 C2934 0.930 . S
H2929 C2937 0.930 . S
H2930 C2938 0.930 . S
H2931 C2939 0.930 . S
H2932 C2942 0.930 . S
H2933 C2943 0.930 . S
C2934 H2928 0.930 . S
C2934 C2935 1.355 . S
C2934 C2936 1.415 . S
C2935 C2934 1.355 . S
C2935 C2937 1.419 . S
C2936 C2934 1.415 . S
C2936 C2941 1.425 . S
C2936 C2943 1.409 . S
C2937 H2929 0.930 . S
C2937 C2935 1.419 . S
C2937 C2938 1.362 . S
C2938 H2930 0.930 . S
C2938 C2937 1.362 . S
C2938 C2941 1.409 . S
C2939 H2931 0.930 . S
C2939 C2940 1.355 . S
C2939 C2941 1.415 . S
C2940 C2939 1.355 . S
C2940 C2942 1.419 . S
C2941 C2936 1.425 . S
C2941 C2938 1.409 . S
C2941 C2939 1.415 . S
C2942 H2932 0.930 . S
C2942 C2940 1.419 . S
C2942 C2943 1.362 . S
C2943 H2933 0.930 . S
C2943 C2936 1.409 . S
C2943 C2942 1.362 . S
H2944 C2950 0.930 . S
H2945 C2953 0.930 . S
H2946 C2954 0.930 . S
H2947 C2955 0.930 . S
H2948 C2958 0.930 . S
H2949 C2959 0.930 . S
C2950 H2944 0.930 . S
C2950 C2951 1.355 . S
C2950 C2952 1.415 . S
C2951 C2950 1.355 . S
C2951 C2953 1.419 . S
C2952 C2950 1.415 . S
C2952 C2957 1.425 . S
C2952 C2959 1.409 . S
C2953 H2945 0.930 . S
C2953 C2951 1.419 . S
C2953 C2954 1.362 . S
C2954 H2946 0.930 . S
C2954 C2953 1.362 . S
C2954 C2957 1.409 . S
C2955 H2947 0.930 . S
C2955 C2956 1.355 . S
C2955 C2957 1.415 . S
C2956 C2955 1.355 . S
C2956 C2958 1.419 . S
C2957 C2952 1.425 . S
C2957 C2954 1.409 . S
C2957 C2955 1.415 . S
C2958 H2948 0.930 . S
C2958 C2956 1.419 . S
C2958 C2959 1.362 . S
C2959 H2949 0.930 . S
C2959 C2952 1.409 . S
C2959 C2958 1.362 . S
H2960 C2966 0.930 . S
H2961 C2969 0.930 . S
H2962 C2970 0.930 . S
H2963 C2971 0.930 . S
H2964 C2974 0.930 . S
H2965 C2975 0.930 . S
C2966 H2960 0.930 . S
C2966 C2967 1.355 . S
C2966 C2968 1.415 . S
C2967 C2966 1.355 . S
C2967 C2969 1.419 . S
C2968 C2966 1.415 . S
C2968 C2973 1.425 . S
C2968 C2975 1.409 . S
C2969 H2961 0.930 . S
C2969 C2967 1.419 . S
C2969 C2970 1.362 . S
C2970 H2962 0.930 . S
C2970 C2969 1.362 . S
C2970 C2973 1.409 . S
C2971 H2963 0.930 . S
C2971 C2972 1.355 . S
C2971 C2973 1.415 . S
C2972 C2971 1.355 . S
C2972 C2974 1.419 . S
C2973 C2968 1.425 . S
C2973 C2970 1.409 . S
C2973 C2971 1.415 . S
C2974 H2964 0.930 . S
C2974 C2972 1.419 . S
C2974 C2975 1.362 . S
C2975 H2965 0.930 . S
C2975 C2968 1.409 . S
C2975 C2974 1.362 . S
H2976 C2982 0.930 . S
H2977 C2985 0.930 . S
H2978 C2986 0.930 . S
H2979 C2987 0.930 . S
H2980 C2990 0.930 . S
H2981 C2991 0.930 . S
C2982 H2976 0.930 . S
C2982 C2983 1.355 . S
C2982 C2984 1.415 . S
C2983 C2982 1.355 . S
C2983 C2985 1.419 . S
C2984 C2982 1.415 . S
C2984 C2989 1.425 . S
C2984 C2991 1.409 . S
C2985 H2977 0.930 . S
C2985 C2983 1.419 . S
C2985 C2986 1.362 . S
C2986 H2978 0.930 . S
C2986 C2985 1.362 . S
C2986 C2989 1.409 . S
C2987 H2979 0.930 . S
C2987 C2988 1.355 . S
C2987 C2989 1.415 . S
C2988 C2987 1.355 . S
C2988 C2990 1.419 . S
C2989 C2984 1.425 . S
C2989 C2986 1.409 . S
C2989 C2987 1.415 . S
C2990 H2980 0.930 . S
C2990 C2988 1.419 . S
C2990 C2991 1.362 . S
C2991 H2981 0.930 . S
C2991 C2984 1.409 . S
C2991 C2990 1.362 . S
H2992 C2998 0.930 . S
H2993 C3001 0.930 . S
H2994 C3002 0.930 . S
H2995 C3003 0.930 . S
H2996 C3006 0.930 . S
H2997 C3007 0.930 . S
C2998 H2992 0.930 . S
C2998 C2999 1.355 . S
C2998 C3000 1.415 . S
C2999 C2998 1.355 . S
C2999 C3001 1.419 . S
C3000 C2998 1.415 . S
C3000 C3005 1.425 . S
C3000 C3007 1.409 . S
C3001 H2993 0.930 . S
C3001 C2999 1.419 . S
C3001 C3002 1.362 . S
C3002 H2994 0.930 . S
C3002 C3001 1.362 . S
C3002 C3005 1.409 . S
C3003 H2995 0.930 . S
C3003 C3004 1.355 . S
C3003 C3005 1.415 . S
C3004 C3003 1.355 . S
C3004 C3006 1.419 1_655 S
C3005 C3000 1.425 . S
C3005 C3002 1.409 . S
C3005 C3003 1.415 . S
C3006 H2996 0.930 . S
C3006 C3004 1.419 1_455 S
C3006 C3007 1.362 1_455 S
C3007 H2997 0.930 . S
C3007 C3000 1.409 . S
C3007 C3006 1.362 1_655 S
H3008 C3014 0.930 . S
H3009 C3017 0.930 . S
H3010 C3018 0.930 . S
H3011 C3019 0.930 . S
H3012 C3022 0.930 . S
H3013 C3023 0.930 . S
C3014 H3008 0.930 . S
C3014 C3015 1.355 . S
C3014 C3016 1.415 . S
C3015 C3014 1.355 . S
C3015 C3017 1.419 . S
C3016 C3014 1.415 . S
C3016 C3021 1.425 . S
C3016 C3023 1.409 . S
C3017 H3009 0.930 . S
C3017 C3015 1.419 . S
C3017 C3018 1.362 . S
C3018 H3010 0.930 . S
C3018 C3017 1.362 . S
C3018 C3021 1.409 . S
C3019 H3011 0.930 . S
C3019 C3020 1.355 . S
C3019 C3021 1.415 . S
C3020 C3019 1.355 . S
C3020 C3022 1.419 . S
C3021 C3016 1.425 . S
C3021 C3018 1.409 . S
C3021 C3019 1.415 . S
C3022 H3012 0.930 . S
C3022 C3020 1.419 . S
C3022 C3023 1.362 . S
C3023 H3013 0.930 . S
C3023 C3016 1.409 . S
C3023 C3022 1.362 . S
H3024 C3030 0.930 . S
H3025 C3033 0.930 . S
H3026 C3034 0.930 . S
H3027 C3035 0.930 . S
H3028 C3038 0.930 . S
H3029 C3039 0.930 . S
C3030 H3024 0.930 . S
C3030 C3031 1.355 . S
C3030 C3032 1.415 . S
C3031 C3030 1.355 . S
C3031 C3033 1.419 . S
C3032 C3030 1.415 . S
C3032 C3037 1.425 . S
C3032 C3039 1.409 . S
C3033 H3025 0.930 . S
C3033 C3031 1.419 . S
C3033 C3034 1.362 . S
C3034 H3026 0.930 . S
C3034 C3033 1.362 . S
C3034 C3037 1.409 . S
C3035 H3027 0.930 . S
C3035 C3036 1.355 . S
C3035 C3037 1.415 . S
C3036 C3035 1.355 . S
C3036 C3038 1.419 . S
C3037 C3032 1.425 . S
C3037 C3034 1.409 . S
C3037 C3035 1.415 . S
C3038 H3028 0.930 . S
C3038 C3036 1.419 . S
C3038 C3039 1.362 . S
C3039 H3029 0.930 . S
C3039 C3032 1.409 . S
C3039 C3038 1.362 . S
H3040 C3046 0.930 . S
H3041 C3049 0.930 . S
H3042 C3050 0.930 . S
H3043 C3051 0.930 . S
H3044 C3054 0.930 . S
H3045 C3055 0.930 . S
C3046 H3040 0.930 . S
C3046 C3047 1.355 . S
C3046 C3048 1.415 . S
C3047 C3046 1.355 . S
C3047 C3049 1.419 . S
C3048 C3046 1.415 . S
C3048 C3053 1.425 . S
C3048 C3055 1.409 . S
C3049 H3041 0.930 . S
C3049 C3047 1.419 . S
C3049 C3050 1.362 . S
C3050 H3042 0.930 . S
C3050 C3049 1.362 . S
C3050 C3053 1.409 . S
C3051 H3043 0.930 . S
C3051 C3052 1.355 . S
C3051 C3053 1.415 . S
C3052 C3051 1.355 . S
C3052 C3054 1.419 . S
C3053 C3048 1.425 . S
C3053 C3050 1.409 . S
C3053 C3051 1.415 . S
C3054 H3044 0.930 . S
C3054 C3052 1.419 . S
C3054 C3055 1.362 . S
C3055 H3045 0.930 . S
C3055 C3048 1.409 . S
C3055 C3054 1.362 . S
H3056 C3062 0.930 . S
H3057 C3065 0.930 . S
H3058 C3066 0.930 . S
H3059 C3067 0.930 . S
H3060 C3070 0.930 . S
H3061 C3071 0.930 . S
C3062 H3056 0.930 . S
C3062 C3063 1.355 . S
C3062 C3064 1.415 . S
C3063 C3062 1.355 . S
C3063 C3065 1.419 . S
C3064 C3062 1.415 . S
C3064 C3069 1.425 . S
C3064 C3071 1.409 . S
C3065 H3057 0.930 . S
C3065 C3063 1.419 . S
C3065 C3066 1.362 . S
C3066 H3058 0.930 . S
C3066 C3065 1.362 . S
C3066 C3069 1.409 . S
C3067 H3059 0.930 . S
C3067 C3068 1.355 . S
C3067 C3069 1.415 . S
C3068 C3067 1.355 . S
C3068 C3070 1.419 . S
C3069 C3064 1.425 . S
C3069 C3066 1.409 . S
C3069 C3067 1.415 . S
C3070 H3060 0.930 . S
C3070 C3068 1.419 . S
C3070 C3071 1.362 . S
C3071 H3061 0.930 . S
C3071 C3064 1.409 . S
C3071 C3070 1.362 . S
H3072 C3078 0.930 . S
H3073 C3081 0.930 . S
H3074 C3082 0.930 . S
H3075 C3083 0.930 . S
H3076 C3086 0.930 . S
H3077 C3087 0.930 . S
C3078 H3072 0.930 . S
C3078 C3079 1.355 . S
C3078 C3080 1.415 . S
C3079 C3078 1.355 . S
C3079 C3081 1.419 . S
C3080 C3078 1.415 . S
C3080 C3085 1.425 . S
C3080 C3087 1.409 . S
C3081 H3073 0.930 . S
C3081 C3079 1.419 . S
C3081 C3082 1.362 . S
C3082 H3074 0.930 . S
C3082 C3081 1.362 . S
C3082 C3085 1.409 . S
C3083 H3075 0.930 . S
C3083 C3084 1.355 . S
C3083 C3085 1.415 . S
C3084 C3083 1.355 . S
C3084 C3086 1.419 . S
C3085 C3080 1.425 . S
C3085 C3082 1.409 . S
C3085 C3083 1.415 . S
C3086 H3076 0.930 . S
C3086 C3084 1.419 . S
C3086 C3087 1.362 . S
C3087 H3077 0.930 . S
C3087 C3080 1.409 . S
C3087 C3086 1.362 . S
H3088 C3094 0.930 . S
H3089 C3097 0.930 . S
H3090 C3098 0.930 . S
H3091 C3099 0.930 . S
H3092 C3102 0.930 . S
H3093 C3103 0.930 . S
C3094 H3088 0.930 . S
C3094 C3095 1.355 . S
C3094 C3096 1.415 . S
C3095 C3094 1.355 . S
C3095 C3097 1.419 . S
C3096 C3094 1.415 . S
C3096 C3101 1.425 . S
C3096 C3103 1.409 . S
C3097 H3089 0.930 . S
C3097 C3095 1.419 . S
C3097 C3098 1.362 . S
C3098 H3090 0.930 . S
C3098 C3097 1.362 . S
C3098 C3101 1.409 . S
C3099 H3091 0.930 . S
C3099 C3100 1.355 . S
C3099 C3101 1.415 . S
C3100 C3099 1.355 . S
C3100 C3102 1.419 . S
C3101 C3096 1.425 . S
C3101 C3098 1.409 . S
C3101 C3099 1.415 . S
C3102 H3092 0.930 . S
C3102 C3100 1.419 . S
C3102 C3103 1.362 . S
C3103 H3093 0.930 . S
C3103 C3096 1.409 . S
C3103 C3102 1.362 . S
H3104 C3110 0.930 . S
H3105 C3113 0.930 . S
H3106 C3114 0.930 . S
H3107 C3115 0.930 . S
H3108 C3118 0.930 1_545 S
H3109 C3119 0.930 . S
C3110 H3104 0.930 . S
C3110 C3111 1.355 . S
C3110 C3112 1.415 . S
C3111 C3110 1.355 . S
C3111 C3113 1.419 . S
C3112 C3110 1.415 . S
C3112 C3117 1.425 . S
C3112 C3119 1.409 . S
C3113 H3105 0.930 . S
C3113 C3111 1.419 . S
C3113 C3114 1.362 . S
C3114 H3106 0.930 . S
C3114 C3113 1.362 . S
C3114 C3117 1.409 . S
C3115 H3107 0.930 . S
C3115 C3116 1.355 . S
C3115 C3117 1.415 . S
C3116 C3115 1.355 . S
C3116 C3118 1.419 . S
C3117 C3112 1.425 . S
C3117 C3114 1.409 . S
C3117 C3115 1.415 . S
C3118 H3108 0.930 1_565 S
C3118 C3116 1.419 . S
C3118 C3119 1.362 . S
C3119 H3109 0.930 . S
C3119 C3112 1.409 . S
C3119 C3118 1.362 . S
H3120 C3126 0.930 . S
H3121 C3129 0.930 . S
H3122 C3130 0.930 . S
H3123 C3131 0.930 . S
H3124 C3134 0.930 . S
H3125 C3135 0.930 . S
C3126 H3120 0.930 . S
C3126 C3127 1.355 . S
C3126 C3128 1.415 . S
C3127 C3126 1.355 . S
C3127 C3129 1.419 . S
C3128 C3126 1.415 . S
C3128 C3133 1.425 . S
C3128 C3135 1.409 . S
C3129 H3121 0.930 . S
C3129 C3127 1.419 . S
C3129 C3130 1.362 . S
C3130 H3122 0.930 . S
C3130 C3129 1.362 . S
C3130 C3133 1.409 . S
C3131 H3123 0.930 . S
C3131 C3132 1.355 . S
C3131 C3133 1.415 . S
C3132 C3131 1.355 . S
C3132 C3134 1.419 . S
C3133 C3128 1.425 . S
C3133 C3130 1.409 . S
C3133 C3131 1.415 . S
C3134 H3124 0.930 . S
C3134 C3132 1.419 . S
C3134 C3135 1.362 . S
C3135 H3125 0.930 . S
C3135 C3128 1.409 . S
C3135 C3134 1.362 . S
H3136 C3142 0.930 . S
H3137 C3145 0.930 . S
H3138 C3146 0.930 . S
H3139 C3147 0.930 . S
H3140 C3150 0.930 . S
H3141 C3151 0.930 . S
C3142 H3136 0.930 . S
C3142 C3143 1.355 . S
C3142 C3144 1.415 . S
C3143 C3142 1.355 . S
C3143 C3145 1.419 . S
C3144 C3142 1.415 . S
C3144 C3149 1.425 . S
C3144 C3151 1.409 . S
C3145 H3137 0.930 . S
C3145 C3143 1.419 . S
C3145 C3146 1.362 . S
C3146 H3138 0.930 . S
C3146 C3145 1.362 . S
C3146 C3149 1.409 . S
C3147 H3139 0.930 . S
C3147 C3148 1.355 . S
C3147 C3149 1.415 . S
C3148 C3147 1.355 . S
C3148 C3150 1.419 . S
C3149 C3144 1.425 . S
C3149 C3146 1.409 . S
C3149 C3147 1.415 . S
C3150 H3140 0.930 . S
C3150 C3148 1.419 . S
C3150 C3151 1.362 . S
C3151 H3141 0.930 . S
C3151 C3144 1.409 . S
C3151 C3150 1.362 . S
H3152 C3158 0.930 . S
H3153 C3161 0.930 . S
H3154 C3162 0.930 . S
H3155 C3163 0.930 . S
H3156 C3166 0.930 . S
H3157 C3167 0.930 . S
C3158 H3152 0.930 . S
C3158 C3159 1.355 . S
C3158 C3160 1.415 . S
C3159 C3158 1.355 . S
C3159 C3161 1.419 . S
C3160 C3158 1.415 . S
C3160 C3165 1.425 . S
C3160 C3167 1.409 . S
C3161 H3153 0.930 . S
C3161 C3159 1.419 . S
C3161 C3162 1.362 . S
C3162 H3154 0.930 . S
C3162 C3161 1.362 . S
C3162 C3165 1.409 . S
C3163 H3155 0.930 . S
C3163 C3164 1.355 . S
C3163 C3165 1.415 . S
C3164 C3163 1.355 . S
C3164 C3166 1.419 . S
C3165 C3160 1.425 . S
C3165 C3162 1.409 . S
C3165 C3163 1.415 . S
C3166 H3156 0.930 . S
C3166 C3164 1.419 . S
C3166 C3167 1.362 . S
C3167 H3157 0.930 . S
C3167 C3160 1.409 . S
C3167 C3166 1.362 . S
H3168 C3174 0.930 . S
H3169 C3177 0.930 . S
H3170 C3178 0.930 . S
H3171 C3179 0.930 . S
H3172 C3182 0.930 1_556 S
H3173 C3183 0.930 1_556 S
C3174 H3168 0.930 . S
C3174 C3175 1.355 . S
C3174 C3176 1.415 . S
C3175 C3174 1.355 . S
C3175 C3177 1.419 . S
C3176 C3174 1.415 . S
C3176 C3181 1.425 . S
C3176 C3183 1.409 . S
C3177 H3169 0.930 . S
C3177 C3175 1.419 . S
C3177 C3178 1.362 . S
C3178 H3170 0.930 . S
C3178 C3177 1.362 . S
C3178 C3181 1.409 . S
C3179 H3171 0.930 . S
C3179 C3180 1.355 . S
C3179 C3181 1.415 . S
C3180 C3179 1.355 . S
C3180 C3182 1.419 . S
C3181 C3176 1.425 . S
C3181 C3178 1.409 . S
C3181 C3179 1.415 . S
C3182 H3172 0.930 1_554 S
C3182 C3180 1.419 . S
C3182 C3183 1.362 . S
C3183 H3173 0.930 1_554 S
C3183 C3176 1.409 . S
C3183 C3182 1.362 . S
H3184 C3190 0.930 . S
H3185 C3193 0.930 . S
H3186 C3194 0.930 . S
H3187 C3195 0.930 . S
H3188 C3198 0.930 . S
H3189 C3199 0.930 . S
C3190 H3184 0.930 . S
C3190 C3191 1.355 . S
C3190 C3192 1.415 . S
C3191 C3190 1.355 . S
C3191 C3193 1.419 . S
C3192 C3190 1.415 . S
C3192 C3197 1.425 . S
C3192 C3199 1.409 . S
C3193 H3185 0.930 . S
C3193 C3191 1.419 . S
C3193 C3194 1.362 . S
C3194 H3186 0.930 . S
C3194 C3193 1.362 . S
C3194 C3197 1.409 . S
C3195 H3187 0.930 . S
C3195 C3196 1.355 . S
C3195 C3197 1.415 . S
C3196 C3195 1.355 . S
C3196 C3198 1.419 . S
C3197 C3192 1.425 . S
C3197 C3194 1.409 . S
C3197 C3195 1.415 . S
C3198 H3188 0.930 . S
C3198 C3196 1.419 . S
C3198 C3199 1.362 . S
C3199 H3189 0.930 . S
C3199 C3192 1.409 . S
C3199 C3198 1.362 . S
H3200 C3206 0.930 . S
H3201 C3209 0.930 . S
H3202 C3210 0.930 . S
H3203 C3211 0.930 . S
H3204 C3214 0.930 . S
H3205 C3215 0.930 . S
C3206 H3200 0.930 . S
C3206 C3207 1.355 . S
C3206 C3208 1.415 . S
C3207 C3206 1.355 . S
C3207 C3209 1.419 . S
C3208 C3206 1.415 . S
C3208 C3213 1.425 . S
C3208 C3215 1.409 . S
C3209 H3201 0.930 . S
C3209 C3207 1.419 . S
C3209 C3210 1.362 . S
C3210 H3202 0.930 . S
C3210 C3209 1.362 . S
C3210 C3213 1.409 . S
C3211 H3203 0.930 . S
C3211 C3212 1.355 . S
C3211 C3213 1.415 . S
C3212 C3211 1.355 . S
C3212 C3214 1.419 . S
C3213 C3208 1.425 . S
C3213 C3210 1.409 . S
C3213 C3211 1.415 . S
C3214 H3204 0.930 . S
C3214 C3212 1.419 . S
C3214 C3215 1.362 . S
C3215 H3205 0.930 . S
C3215 C3208 1.409 . S
C3215 C3214 1.362 . S
C1687 C109 2.157 1_455 S
C1692 C392 2.167 . S
C1703 C65 1.918 . S
C1708 C494 1.893 . S
C1719 C75 1.903 . S
C1724 C560 1.899 . S
C1740 C646 1.384 . S
C1735 C84 1.481 . S
C1751 C25 1.437 . S
C1756 C730 1.327 . S
C1772 C812 1.855 . S
C1767 C28 1.844 . S
C1788 C914 1.928 . S
C1783 C47 1.889 . S
C1799 C9 2.135 . S
C1804 C980 2.163 . S
C1820 C410 1.790 . S
C1815 C233 1.835 . S
C1831 C249 0.963 . S
C1836 C478 0.921 . S
C1852 C578 1.216 . S
C1847 C275 1.239 . S
C1868 C644 1.644 . S
C1863 C173 1.642 . S
C1879 C224 1.694 . S
C1884 C728 1.696 . S
C1900 C830 1.255 . S
C1895 C243 1.237 . S
C1916 C898 0.921 . S
C1911 C266 0.922 . S
C1932 C998 1.692 . S
C1927 C179 1.734 . S
C1948 C394 1.076 . S
C1943 C163 1.134 . S
C1959 C289 1.680 . S
C1964 C1082 1.645 . S
C1980 C1150 1.295 . S
C1975 C333 1.331 . S
C1996 C1232 0.798 . S
C1991 C308 0.803 . S
C2007 C123 1.125 . S
C2012 C982 1.055 . S
C2023 C126 1.399 . S
C2028 C562 1.338 . S
C2039 C327 1.716 . S
C2044 C1334 1.685 . S
C2060 C1400 0.907 . S
C2055 C299 0.903 . S
C2076 C403 2.166 . S
C2071 C67 2.161 . S
C2092 C1407 1.942 . S
C2087 C98 1.882 . S
C2103 C89 1.927 . S
C2108 C571 1.941 . S
C2119 C79 1.508 . S
C2124 C1329 1.387 . S
C2140 C741 1.343 . S
C2135 C11 1.452 . S
C2151 C51 1.887 . S
C2156 C1159 1.895 . S
C2172 C903 1.979 1_556 S
C2167 C33 1.947 . S
C2188 C1495 2.179 . S
C2183 C14 2.178 . S
C2204 C399 1.809 . S
C2199 C140 1.873 . S
C2220 C1413 0.911 . S
C2215 C319 0.971 . S
C2231 C112 1.189 . S
C2236 C567 1.211 . S
C2247 C285 1.666 . S
C2252 C1327 1.668 . S
C2263 C149 1.728 . S
C2268 C739 1.730 . S
C2284 C1155 1.254 . S
C2279 C313 1.230 . S
C2295 C121 1.012 . S
C2300 C909 0.994 . S
C2311 C291 1.761 . S
C2316 C1491 1.696 . S
C2327 C182 1.084 . S
C2332 C405 1.109 . S
C2343 C168 1.639 . S
C2348 C1071 1.687 . S
C2359 C263 1.406 . S
C2364 C825 1.321 . S
C2375 C247 0.817 . S
C2380 C1243 0.851 . S
C2396 C1497 1.104 . S
C2391 C277 1.077 1_565 S
C2407 C219 1.456 . S
C2412 C573 1.408 . S
C2428 C651 1.737 . S
C2423 C257 1.737 . S
C2444 C487 0.910 . S
C2439 C201 0.904 . S
C2455 C81 2.158 . S
C2460 C1568 2.166 . S
C2476 C1418 1.894 . S
C2471 C93 1.918 . S
C2487 C103 1.890 . S
C2492 C1652 1.896 . S
C2503 C56 1.475 1_655 S
C2508 C1318 1.377 . S
C2519 C53 1.454 . S
C2524 C1066 1.410 . S
C2540 C1148 1.859 . S
C2535 C0 1.859 . S
C2556 C1250 1.934 . S
C2551 C19 1.886 . S
C2572 C1484 2.174 . S
C2567 C37 2.155 . S
C2588 C1586 1.803 . S
C2583 C261 1.844 . S
C2599 C193 0.950 1_556 S
C2604 C1402 0.956 . S
C2620 C1670 1.208 . S
C2615 C205 1.237 . S
C2636 C1316 1.632 . S
C2631 C215 1.640 . S
C2652 C1064 1.692 . S
C2647 C252 1.686 . S
C2663 C187 1.248 . S
C2668 C1166 1.211 . S
C2684 C1234 0.918 . S
C2679 C196 0.922 . S
C2695 C221 1.702 . S
C2700 C1502 1.687 . S
C2716 C1570 1.078 . S
C2711 C317 1.127 . S
C2727 C135 1.680 . S
C2732 C746 1.645 . S
C2748 C814 1.267 . S
C2743 C151 1.353 1_565 S
C2764 C896 0.800 . S
C2759 C154 0.806 . S
C2780 C1486 1.095 . S
C2775 C305 1.098 . S
C2791 C280 1.423 . S
C2796 C1654 1.396 . S
C2812 C662 1.687 . S
C2807 C145 1.715 . S
C2828 C476 0.909 . S
C2823 C117 0.901 . S
C2839 C95 2.162 . S
C2844 C1579 2.168 . S
C2860 C483 1.940 . S
C2855 C70 1.865 . S
C2871 C61 1.911 . S
C2876 C1663 1.931 . S
C2887 C107 1.511 . S
C2892 C657 1.416 . S
C2903 C39 1.445 . S
C2908 C1077 1.374 . S
C2924 C823 1.896 . S
C2919 C23 1.888 . S
C2935 C5 1.955 . S
C2940 C1239 1.975 . S
C2951 C42 2.185 . S
C2956 C991 2.182 . S
C2972 C1575 1.821 . S
C2967 C322 1.859 . S
C2983 C165 0.898 . S
C2988 C489 0.870 . S
C3004 C1659 1.242 1_655 S
C2999 C294 1.237 . S
C3015 C131 1.665 . S
C3020 C655 1.661 . S
C3031 C331 1.712 . S
C3036 C1075 1.730 . S
C3052 C819 1.289 . S
C3047 C159 1.265 . S
C3063 C303 1.009 . S
C3068 C1245 0.982 . S
C3084 C987 1.720 . S
C3079 C137 1.748 . S
C3100 C1581 1.041 . S
C3095 C238 1.133 . S
C3116 C735 1.662 1_565 S
C3111 C210 1.681 . S
C3127 C235 1.373 . S
C3132 C1161 1.284 . S
C3148 C907 0.845 . S
C3143 C191 0.815 . S
C3159 C207 1.086 . S
C3164 C993 1.049 . S
C3175 C177 1.458 . S
C3180 C1665 1.331 . S
C3196 C1323 1.746 . S
C3191 C229 1.729 . S
C3212 C1411 0.920 . S
C3207 C271 0.905 . S
