# Generated by pormake.
# Topology gar, (4,6)-cn, num edge types: 1
# Building blocks:
#     Node 0, Type 0, BuildingBlock: TATPOV_clean_sbu_0, # of connection points: 4
#     Node 1, Type 0, BuildingBlock: TATPOV_clean_sbu_0, # of connection points: 4
#     Node 2, Type 0, BuildingBlock: TATPOV_clean_sbu_0, # of connection points: 4
#     Node 3, Type 0, BuildingBlock: TATPOV_clean_sbu_0, # of connection points: 4
#     Node 4, Type 0, BuildingBlock: TATPOV_clean_sbu_0, # of connection points: 4
#     Node 5, Type 0, BuildingBlock: TATPOV_clean_sbu_0, # of connection points: 4
#     Node 6, Type 0, BuildingBlock: TATPOV_clean_sbu_0, # of connection points: 4
#     Node 7, Type 0, BuildingBlock: TATPOV_clean_sbu_0, # of connection points: 4
#     Node 8, Type 0, BuildingBlock: TATPOV_clean_sbu_0, # of connection points: 4
#     Node 9, Type 0, BuildingBlock: TATPOV_clean_sbu_0, # of connection points: 4
#     Node 10, Type 0, BuildingBlock: TATPOV_clean_sbu_0, # of connection points: 4
#     Node 11, Type 0, BuildingBlock: TATPOV_clean_sbu_0, # of connection points: 4
#     Node 12, Type 0, BuildingBlock: TATPOV_clean_sbu_0, # of connection points: 4
#     Node 13, Type 0, BuildingBlock: TATPOV_clean_sbu_0, # of connection points: 4
#     Node 14, Type 0, BuildingBlock: TATPOV_clean_sbu_0, # of connection points: 4
#     Node 15, Type 0, BuildingBlock: TATPOV_clean_sbu_0, # of connection points: 4
#     Node 16, Type 0, BuildingBlock: TATPOV_clean_sbu_0, # of connection points: 4
#     Node 17, Type 0, BuildingBlock: TATPOV_clean_sbu_0, # of connection points: 4
#     Node 18, Type 0, BuildingBlock: TATPOV_clean_sbu_0, # of connection points: 4
#     Node 19, Type 0, BuildingBlock: TATPOV_clean_sbu_0, # of connection points: 4
#     Node 20, Type 0, BuildingBlock: TATPOV_clean_sbu_0, # of connection points: 4
#     Node 21, Type 0, BuildingBlock: TATPOV_clean_sbu_0, # of connection points: 4
#     Node 22, Type 0, BuildingBlock: TATPOV_clean_sbu_0, # of connection points: 4
#     Node 23, Type 0, BuildingBlock: TATPOV_clean_sbu_0, # of connection points: 4
#     Node 24, Type 1, BuildingBlock: HISSIN_clean_sbu_0, # of connection points: 6
#     Node 25, Type 1, BuildingBlock: HISSIN_clean_sbu_0, # of connection points: 6
#     Node 26, Type 1, BuildingBlock: HISSIN_clean_sbu_0, # of connection points: 6
#     Node 27, Type 1, BuildingBlock: HISSIN_clean_sbu_0, # of connection points: 6
#     Node 28, Type 1, BuildingBlock: HISSIN_clean_sbu_0, # of connection points: 6
#     Node 29, Type 1, BuildingBlock: HISSIN_clean_sbu_0, # of connection points: 6
#     Node 30, Type 1, BuildingBlock: HISSIN_clean_sbu_0, # of connection points: 6
#     Node 31, Type 1, BuildingBlock: HISSIN_clean_sbu_0, # of connection points: 6
#     Node 32, Type 1, BuildingBlock: HISSIN_clean_sbu_0, # of connection points: 6
#     Node 33, Type 1, BuildingBlock: HISSIN_clean_sbu_0, # of connection points: 6
#     Node 34, Type 1, BuildingBlock: HISSIN_clean_sbu_0, # of connection points: 6
#     Node 35, Type 1, BuildingBlock: HISSIN_clean_sbu_0, # of connection points: 6
#     Node 36, Type 1, BuildingBlock: HISSIN_clean_sbu_0, # of connection points: 6
#     Node 37, Type 1, BuildingBlock: HISSIN_clean_sbu_0, # of connection points: 6
#     Node 38, Type 1, BuildingBlock: HISSIN_clean_sbu_0, # of connection points: 6
#     Node 39, Type 1, BuildingBlock: HISSIN_clean_sbu_0, # of connection points: 6
#     Edge 40, Type (0, 1), BuildingBlock: XUDNAN_clean_linker_2, # of connection points: 2
#     Edge 41, Type (0, 1), BuildingBlock: XUDNAN_clean_linker_2, # of connection points: 2
#     Edge 42, Type (0, 1), BuildingBlock: XUDNAN_clean_linker_2, # of connection points: 2
#     Edge 43, Type (0, 1), BuildingBlock: XUDNAN_clean_linker_2, # of connection points: 2
#     Edge 44, Type (0, 1), BuildingBlock: XUDNAN_clean_linker_2, # of connection points: 2
#     Edge 45, Type (0, 1), BuildingBlock: XUDNAN_clean_linker_2, # of connection points: 2
#     Edge 46, Type (0, 1), BuildingBlock: XUDNAN_clean_linker_2, # of connection points: 2
#     Edge 47, Type (0, 1), BuildingBlock: XUDNAN_clean_linker_2, # of connection points: 2
#     Edge 48, Type (0, 1), BuildingBlock: XUDNAN_clean_linker_2, # of connection points: 2
#     Edge 49, Type (0, 1), BuildingBlock: XUDNAN_clean_linker_2, # of connection points: 2
#     Edge 50, Type (0, 1), BuildingBlock: XUDNAN_clean_linker_2, # of connection points: 2
#     Edge 51, Type (0, 1), BuildingBlock: XUDNAN_clean_linker_2, # of connection points: 2
#     Edge 52, Type (0, 1), BuildingBlock: XUDNAN_clean_linker_2, # of connection points: 2
#     Edge 53, Type (0, 1), BuildingBlock: XUDNAN_clean_linker_2, # of connection points: 2
#     Edge 54, Type (0, 1), BuildingBlock: XUDNAN_clean_linker_2, # of connection points: 2
#     Edge 55, Type (0, 1), BuildingBlock: XUDNAN_clean_linker_2, # of connection points: 2
#     Edge 56, Type (0, 1), BuildingBlock: XUDNAN_clean_linker_2, # of connection points: 2
#     Edge 57, Type (0, 1), BuildingBlock: XUDNAN_clean_linker_2, # of connection points: 2
#     Edge 58, Type (0, 1), BuildingBlock: XUDNAN_clean_linker_2, # of connection points: 2
#     Edge 59, Type (0, 1), BuildingBlock: XUDNAN_clean_linker_2, # of connection points: 2
#     Edge 60, Type (0, 1), BuildingBlock: XUDNAN_clean_linker_2, # of connection points: 2
#     Edge 61, Type (0, 1), BuildingBlock: XUDNAN_clean_linker_2, # of connection points: 2
#     Edge 62, Type (0, 1), BuildingBlock: XUDNAN_clean_linker_2, # of connection points: 2
#     Edge 63, Type (0, 1), BuildingBlock: XUDNAN_clean_linker_2, # of connection points: 2
#     Edge 64, Type (0, 1), BuildingBlock: XUDNAN_clean_linker_2, # of connection points: 2
#     Edge 65, Type (0, 1), BuildingBlock: XUDNAN_clean_linker_2, # of connection points: 2
#     Edge 66, Type (0, 1), BuildingBlock: XUDNAN_clean_linker_2, # of connection points: 2
#     Edge 67, Type (0, 1), BuildingBlock: XUDNAN_clean_linker_2, # of connection points: 2
#     Edge 68, Type (0, 1), BuildingBlock: XUDNAN_clean_linker_2, # of connection points: 2
#     Edge 69, Type (0, 1), BuildingBlock: XUDNAN_clean_linker_2, # of connection points: 2
#     Edge 70, Type (0, 1), BuildingBlock: XUDNAN_clean_linker_2, # of connection points: 2
#     Edge 71, Type (0, 1), BuildingBlock: XUDNAN_clean_linker_2, # of connection points: 2
#     Edge 72, Type (0, 1), BuildingBlock: XUDNAN_clean_linker_2, # of connection points: 2
#     Edge 73, Type (0, 1), BuildingBlock: XUDNAN_clean_linker_2, # of connection points: 2
#     Edge 74, Type (0, 1), BuildingBlock: XUDNAN_clean_linker_2, # of connection points: 2
#     Edge 75, Type (0, 1), BuildingBlock: XUDNAN_clean_linker_2, # of connection points: 2
#     Edge 76, Type (0, 1), BuildingBlock: XUDNAN_clean_linker_2, # of connection points: 2
#     Edge 77, Type (0, 1), BuildingBlock: XUDNAN_clean_linker_2, # of connection points: 2
#     Edge 78, Type (0, 1), BuildingBlock: XUDNAN_clean_linker_2, # of connection points: 2
#     Edge 79, Type (0, 1), BuildingBlock: XUDNAN_clean_linker_2, # of connection points: 2
#     Edge 80, Type (0, 1), BuildingBlock: XUDNAN_clean_linker_2, # of connection points: 2
#     Edge 81, Type (0, 1), BuildingBlock: XUDNAN_clean_linker_2, # of connection points: 2
#     Edge 82, Type (0, 1), BuildingBlock: XUDNAN_clean_linker_2, # of connection points: 2
#     Edge 83, Type (0, 1), BuildingBlock: XUDNAN_clean_linker_2, # of connection points: 2
#     Edge 84, Type (0, 1), BuildingBlock: XUDNAN_clean_linker_2, # of connection points: 2
#     Edge 85, Type (0, 1), BuildingBlock: XUDNAN_clean_linker_2, # of connection points: 2
#     Edge 86, Type (0, 1), BuildingBlock: XUDNAN_clean_linker_2, # of connection points: 2
#     Edge 87, Type (0, 1), BuildingBlock: XUDNAN_clean_linker_2, # of connection points: 2
#     Edge 88, Type (0, 1), BuildingBlock: XUDNAN_clean_linker_2, # of connection points: 2
#     Edge 89, Type (0, 1), BuildingBlock: XUDNAN_clean_linker_2, # of connection points: 2
#     Edge 90, Type (0, 1), BuildingBlock: XUDNAN_clean_linker_2, # of connection points: 2
#     Edge 91, Type (0, 1), BuildingBlock: XUDNAN_clean_linker_2, # of connection points: 2
#     Edge 92, Type (0, 1), BuildingBlock: XUDNAN_clean_linker_2, # of connection points: 2
#     Edge 93, Type (0, 1), BuildingBlock: XUDNAN_clean_linker_2, # of connection points: 2
#     Edge 94, Type (0, 1), BuildingBlock: XUDNAN_clean_linker_2, # of connection points: 2
#     Edge 95, Type (0, 1), BuildingBlock: XUDNAN_clean_linker_2, # of connection points: 2
#     Edge 96, Type (0, 1), BuildingBlock: XUDNAN_clean_linker_2, # of connection points: 2
#     Edge 97, Type (0, 1), BuildingBlock: XUDNAN_clean_linker_2, # of connection points: 2
#     Edge 98, Type (0, 1), BuildingBlock: XUDNAN_clean_linker_2, # of connection points: 2
#     Edge 99, Type (0, 1), BuildingBlock: XUDNAN_clean_linker_2, # of connection points: 2
#     Edge 100, Type (0, 1), BuildingBlock: XUDNAN_clean_linker_2, # of connection points: 2
#     Edge 101, Type (0, 1), BuildingBlock: XUDNAN_clean_linker_2, # of connection points: 2
#     Edge 102, Type (0, 1), BuildingBlock: XUDNAN_clean_linker_2, # of connection points: 2
#     Edge 103, Type (0, 1), BuildingBlock: XUDNAN_clean_linker_2, # of connection points: 2
#     Edge 104, Type (0, 1), BuildingBlock: XUDNAN_clean_linker_2, # of connection points: 2
#     Edge 105, Type (0, 1), BuildingBlock: XUDNAN_clean_linker_2, # of connection points: 2
#     Edge 106, Type (0, 1), BuildingBlock: XUDNAN_clean_linker_2, # of connection points: 2
#     Edge 107, Type (0, 1), BuildingBlock: XUDNAN_clean_linker_2, # of connection points: 2
#     Edge 108, Type (0, 1), BuildingBlock: XUDNAN_clean_linker_2, # of connection points: 2
#     Edge 109, Type (0, 1), BuildingBlock: XUDNAN_clean_linker_2, # of connection points: 2
#     Edge 110, Type (0, 1), BuildingBlock: XUDNAN_clean_linker_2, # of connection points: 2
#     Edge 111, Type (0, 1), BuildingBlock: XUDNAN_clean_linker_2, # of connection points: 2
#     Edge 112, Type (0, 1), BuildingBlock: XUDNAN_clean_linker_2, # of connection points: 2
#     Edge 113, Type (0, 1), BuildingBlock: XUDNAN_clean_linker_2, # of connection points: 2
#     Edge 114, Type (0, 1), BuildingBlock: XUDNAN_clean_linker_2, # of connection points: 2
#     Edge 115, Type (0, 1), BuildingBlock: XUDNAN_clean_linker_2, # of connection points: 2
#     Edge 116, Type (0, 1), BuildingBlock: XUDNAN_clean_linker_2, # of connection points: 2
#     Edge 117, Type (0, 1), BuildingBlock: XUDNAN_clean_linker_2, # of connection points: 2
#     Edge 118, Type (0, 1), BuildingBlock: XUDNAN_clean_linker_2, # of connection points: 2
#     Edge 119, Type (0, 1), BuildingBlock: XUDNAN_clean_linker_2, # of connection points: 2
#     Edge 120, Type (0, 1), BuildingBlock: XUDNAN_clean_linker_2, # of connection points: 2
#     Edge 121, Type (0, 1), BuildingBlock: XUDNAN_clean_linker_2, # of connection points: 2
#     Edge 122, Type (0, 1), BuildingBlock: XUDNAN_clean_linker_2, # of connection points: 2
#     Edge 123, Type (0, 1), BuildingBlock: XUDNAN_clean_linker_2, # of connection points: 2
#     Edge 124, Type (0, 1), BuildingBlock: XUDNAN_clean_linker_2, # of connection points: 2
#     Edge 125, Type (0, 1), BuildingBlock: XUDNAN_clean_linker_2, # of connection points: 2
#     Edge 126, Type (0, 1), BuildingBlock: XUDNAN_clean_linker_2, # of connection points: 2
#     Edge 127, Type (0, 1), BuildingBlock: XUDNAN_clean_linker_2, # of connection points: 2
#     Edge 128, Type (0, 1), BuildingBlock: XUDNAN_clean_linker_2, # of connection points: 2
#     Edge 129, Type (0, 1), BuildingBlock: XUDNAN_clean_linker_2, # of connection points: 2
#     Edge 130, Type (0, 1), BuildingBlock: XUDNAN_clean_linker_2, # of connection points: 2
#     Edge 131, Type (0, 1), BuildingBlock: XUDNAN_clean_linker_2, # of connection points: 2
#     Edge 132, Type (0, 1), BuildingBlock: XUDNAN_clean_linker_2, # of connection points: 2
#     Edge 133, Type (0, 1), BuildingBlock: XUDNAN_clean_linker_2, # of connection points: 2
#     Edge 134, Type (0, 1), BuildingBlock: XUDNAN_clean_linker_2, # of connection points: 2
#     Edge 135, Type (0, 1), BuildingBlock: XUDNAN_clean_linker_2, # of connection points: 2
# Relax obj value: 0.197
# Max RMSD: 0.294
# Mean RMSD: 0.163
data_MOF--net-gar--node1-TATPOV_clean_sbu_0--node2-HISSIN_clean_sbu_0--edge1-XUDNAN_clean_linker_2
_symmetry_space_group_name_H-M    P1
_symmetry_Int_Tables_number       1
_symmetry_cell_setting            triclinic
loop_
_symmetry_equiv_pos_as_xyz
'x, y, z'
_cell_length_a     59.685493
_cell_length_b     59.715532
_cell_length_c     58.265329
_cell_angle_alpha  100.55725
_cell_angle_beta   93.293225
_cell_angle_gamma 102.67906
loop_
_atom_site_label
_atom_site_type_symbol
_atom_site_fract_x
_atom_site_fract_y
_atom_site_fract_z
_atom_type_partial_charge
Zn0 Zn 0.0884 0.32608 0.4253 0.0
Zn1 Zn 0.12515 0.33379 0.41375 0.0
O2 O 0.12874 0.3661 0.43482 0.0
O3 O 0.09102 0.35999 0.43393 0.0
O4 O 0.15498 0.33348 0.40082 0.0
O5 O 0.09077 0.30883 0.45 0.0
O6 O 0.11945 0.30426 0.429 0.0
C7 C 0.1108 0.37368 0.43905 0.0
C8 C 0.08251 0.31827 0.37936 0.0
O9 O 0.1027 0.33136 0.38489 0.0
O10 O 0.07269 0.30794 0.39437 0.0
C11 C 0.16026 0.34138 0.38257 0.0
O12 O 0.14664 0.35245 0.37302 0.0
C13 C 0.10572 0.29762 0.44374 0.0
Zn14 Zn 0.98211 0.72809 0.66559 0.0
Zn15 Zn 0.99915 0.7586 0.6392 0.0
O16 O 0.97114 0.76632 0.65467 0.0
O17 O 0.95321 0.73009 0.64679 0.0
O18 O 1.00959 0.78321 0.62036 0.0
O19 O 1.00507 0.7517 0.69124 0.0
O20 O 0.02538 0.76411 0.6638 0.0
C21 C 0.95272 0.75097 0.65442 0.0
C22 C 1.00112 0.70812 0.62762 0.0
O23 O 0.99845 0.72592 0.61942 0.0
O24 O 0.99701 0.70629 0.64825 0.0
C25 C 1.00783 0.77854 0.59813 0.0
O26 O 0.99825 0.75705 0.58696 0.0
C27 C 0.02423 0.76135 0.68481 0.0
Zn28 Zn 0.58588 0.82568 0.92363 0.0
Zn29 Zn 0.62292 0.82929 0.91169 0.0
O30 O 0.62846 0.85939 0.93557 0.0
O31 O 0.59195 0.86042 0.9312 0.0
O32 O 0.65254 0.82774 0.89979 0.0
O33 O 0.58941 0.80846 0.94866 0.0
O34 O 0.61566 0.80002 0.92585 0.0
C35 C 0.61264 0.87034 0.93887 0.0
C36 C 0.58198 0.81451 0.87664 0.0
O37 O 0.60201 0.82796 0.8818 0.0
O38 O 0.57126 0.80678 0.89262 0.0
C39 C 0.6605 0.83889 0.8844 0.0
O40 O 0.65108 0.85548 0.87916 0.0
C41 C 0.60283 0.79551 0.94189 0.0
Zn42 Zn 0.49067 0.22266 0.16358 0.0
Zn43 Zn 0.49703 0.25865 0.14075 0.0
O44 O 0.46981 0.26156 0.15812 0.0
O45 O 0.4672 0.23511 0.18035 0.0
O46 O 0.50185 0.28589 0.12576 0.0
O47 O 0.52442 0.23366 0.17513 0.0
O48 O 0.52708 0.26555 0.16054 0.0
C49 C 0.46028 0.2516 0.17365 0.0
C50 C 0.48489 0.20919 0.11422 0.0
O51 O 0.49307 0.23075 0.11477 0.0
O52 O 0.48044 0.20169 0.13274 0.0
C53 C 0.51589 0.28785 0.11036 0.0
O54 O 0.5254 0.27042 0.10258 0.0
C55 C 0.53598 0.25326 0.17228 0.0
Zn56 Zn 0.12716 0.77034 0.08566 0.0
Zn57 Zn 0.09408 0.76536 0.12403 0.0
O58 O 0.09704 0.79911 0.12482 0.0
O59 O 0.11268 0.79866 0.09101 0.0
O60 O 0.06689 0.755 0.14124 0.0
O61 O 0.10936 0.73761 0.06874 0.0
O62 O 0.08668 0.75294 0.09041 0.0
C63 C 0.10323 0.80873 0.10772 0.0
C64 C 0.14423 0.76581 0.13364 0.0
O65 O 0.12368 0.76172 0.13941 0.0
O66 O 0.14864 0.77022 0.11364 0.0
C67 C 0.06743 0.76803 0.16114 0.0
O68 O 0.08644 0.78396 0.16963 0.0
C69 C 0.09185 0.73473 0.07998 0.0
Zn70 Zn 0.47336 0.79652 0.42855 0.0
Zn71 Zn 0.52142 0.79649 0.40086 0.0
O72 O 0.5365 0.82809 0.42063 0.0
O73 O 0.50297 0.81807 0.4324 0.0
O74 O 0.54681 0.79139 0.38143 0.0
O75 O 0.48178 0.7705 0.4401 0.0
O76 O 0.51488 0.77386 0.42326 0.0
C77 C 0.5222 0.8321 0.43493 0.0
C78 C 0.47263 0.79609 0.37856 0.0
O79 O 0.4943 0.79792 0.37931 0.0
O80 O 0.46115 0.79329 0.39591 0.0
C81 C 0.55282 0.80867 0.37141 0.0
O82 O 0.53939 0.8234 0.37128 0.0
C83 C 0.50093 0.76512 0.43692 0.0
Zn84 Zn 0.62376 0.26404 0.60186 0.0
Zn85 Zn 0.59405 0.28079 0.63233 0.0
O86 O 0.59933 0.30383 0.61144 0.0
O87 O 0.62355 0.29194 0.5873 0.0
O88 O 0.57398 0.29123 0.65545 0.0
O89 O 0.59733 0.23612 0.59206 0.0
O90 O 0.57437 0.24949 0.61678 0.0
C91 C 0.61156 0.30634 0.59454 0.0
C92 C 0.64093 0.27605 0.65003 0.0
O93 O 0.62204 0.28199 0.65261 0.0
O94 O 0.64597 0.26724 0.63014 0.0
C95 C 0.56825 0.27694 0.6689 0.0
O96 O 0.57648 0.25808 0.66693 0.0
C97 C 0.57815 0.23398 0.60062 0.0
Zn98 Zn 0.99186 0.3054 0.93853 0.0
Zn99 Zn 0.01662 0.29493 0.90422 0.0
O100 O 0.03518 0.32463 0.92541 0.0
O101 O 0.01886 0.3279 0.95814 0.0
O102 O 0.04076 0.28865 0.88394 0.0
O103 O 0.98379 0.27296 0.94391 0.0
O104 O 1.00881 0.26643 0.9186 0.0
C105 C 0.03532 0.33486 0.94652 0.0
C106 C 0.97521 0.3108 0.89231 0.0
O107 O 0.9904 0.30034 0.88447 0.0
O108 O 0.97361 0.31588 0.91414 0.0
C109 C 0.05138 0.3055 0.87533 0.0
O110 O 0.04257 0.32381 0.87525 0.0
C111 C 0.99508 0.25958 0.93309 0.0
Zn112 Zn 0.47405 0.99027 0.29196 0.0
Zn113 Zn 0.44402 0.02512 0.28765 0.0
O114 O 0.44445 0.02655 0.3218 0.0
O115 O 0.47249 1.00772 0.32547 0.0
O116 O 0.42934 0.05017 0.28014 0.0
O117 O 0.49434 1.0037 0.26788 0.0
O118 O 0.47672 0.02958 0.28272 0.0
C119 C 0.45841 0.01932 0.33423 0.0
C120 C 0.42439 0.9734 0.27149 0.0
O121 O 0.42327 0.99452 0.27232 0.0
O122 O 0.44289 0.96836 0.27859 0.0
C123 C 0.41093 0.05007 0.29004 0.0
O124 O 0.4044 0.03468 0.30325 0.0
C125 C 0.48355 0.01902 0.26469 0.0
Zn126 Zn 0.26169 0.22941 0.50966 0.0
Zn127 Zn 0.2912 0.20174 0.50445 0.0
O128 O 0.29715 0.21851 0.4763 0.0
O129 O 0.2741 0.24269 0.48229 0.0
O130 O 0.31694 0.18541 0.50668 0.0
O131 O 0.27401 0.24536 0.54335 0.0
O132 O 0.29557 0.21979 0.53844 0.0
C133 C 0.28868 0.23465 0.4703 0.0
C134 C 0.24025 0.17875 0.4993 0.0
O135 O 0.26088 0.17621 0.49885 0.0
O136 O 0.23626 0.19905 0.5032 0.0
C137 C 0.31536 0.1649 0.49514 0.0
O138 O 0.29721 0.15488 0.47996 0.0
C139 C 0.28883 0.23595 0.5516 0.0
Zn140 Zn 0.15511 0.0484 0.77719 0.0
Zn141 Zn 0.1827 0.01848 0.77419 0.0
O142 O 0.16374 0.01947 0.80863 0.0
O143 O 0.13892 0.04145 0.8062 0.0
O144 O 0.20433 0.98811 0.77359 0.0
O145 O 0.1391 0.03957 0.74416 0.0
O146 O 0.16119 0.01431 0.73795 0.0
C147 C 0.14737 0.02865 0.81771 0.0
C148 C 0.20227 0.07598 0.77998 0.0
O149 O 0.20677 0.05523 0.77789 0.0
O150 O 0.18151 0.07744 0.78121 0.0
C151 C 0.20152 0.9654 0.76483 0.0
O152 O 0.18196 0.95481 0.75199 0.0
C153 C 0.14606 0.02464 0.72973 0.0
Zn154 Zn 0.31986 0.93863 1.00556 0.0
Zn155 Zn 0.29033 0.95597 1.00112 0.0
O156 O 0.28666 0.92749 0.97064 0.0
O157 O 0.32342 0.92768 0.97249 0.0
O158 O 0.26145 0.97202 0.99977 0.0
O159 O 0.30665 0.91505 0.02332 0.0
O160 O 0.28743 0.94237 0.03217 0.0
C161 C 0.30353 0.92004 0.96165 0.0
C162 C 0.34213 0.98213 0.01467 0.0
O163 O 0.32284 0.98189 1.00336 0.0
O164 O 0.34416 0.96451 0.02285 0.0
C165 C 0.24892 0.97549 0.01679 0.0
O166 O 0.25442 0.96951 0.03658 0.0
C167 C 0.29389 0.92443 0.03654 0.0
Zn168 Zn 0.35059 0.34799 0.03185 0.0
Zn169 Zn 0.32075 0.37574 0.03848 0.0
O170 O 0.31564 0.35765 1.00452 0.0
O171 O 0.33581 0.33083 0.99921 0.0
O172 O 0.29337 0.39045 0.03948 0.0
O173 O 0.34235 0.33565 0.06149 0.0
O174 O 0.3183 0.35886 0.06662 0.0
C175 C 0.3216 0.34105 0.99114 0.0
C176 C 0.37025 0.39972 0.03866 0.0
O177 O 0.34995 0.40203 0.04234 0.0
O178 O 0.37427 0.37941 0.03389 0.0
C179 C 0.2884 0.40166 0.02408 0.0
O180 O 0.30257 0.40566 0.00807 0.0
C181 C 0.32759 0.34354 0.07329 0.0
Zn182 Zn 0.79644 0.13382 0.05905 0.0
Zn183 Zn 0.82703 0.12846 0.03889 0.0
O184 O 0.8231 0.14663 0.01404 0.0
O185 O 0.79109 0.14943 0.03023 0.0
O186 O 0.85847 0.11661 0.03315 0.0
O187 O 0.80526 0.15401 0.0896 0.0
O188 O 0.83547 0.15783 0.06959 0.0
C189 C 0.80411 0.15304 0.01402 0.0
C190 C 0.77517 0.09547 0.038 0.0
O191 O 0.79286 0.10293 0.02732 0.0
O192 O 0.77612 0.10312 0.05973 0.0
C193 C 0.86443 0.09711 0.02661 0.0
O194 O 0.84827 0.07759 0.02144 0.0
C195 C 0.82543 0.16475 0.08767 0.0
Zn196 Zn 0.16488 0.58684 0.24099 0.0
Zn197 Zn 0.18494 0.55273 0.23502 0.0
O198 O 0.1668 0.54938 0.26257 0.0
O199 O 0.14058 0.56879 0.25664 0.0
O200 O 0.20056 0.52705 0.23412 0.0
O201 O 0.16013 0.58214 0.20646 0.0
O202 O 0.16671 0.54698 0.20478 0.0
C203 C 0.14802 0.55486 0.26724 0.0
C204 C 0.21256 0.60088 0.25164 0.0
O205 O 0.21096 0.58096 0.23885 0.0
O206 O 0.19473 0.60691 0.25882 0.0
C207 C 0.21634 0.53142 0.25088 0.0
O208 O 0.22115 0.55185 0.26532 0.0
C209 C 0.15998 0.56195 0.19502 0.0
Zn210 Zn 0.85257 0.84996 0.53297 0.0
Zn211 Zn 0.82113 0.87666 0.53769 0.0
O212 O 0.81407 0.85758 0.50402 0.0
O213 O 0.83898 0.83535 0.49902 0.0
O214 O 0.79544 0.89373 0.54018 0.0
O215 O 0.84092 0.83555 0.56053 0.0
O216 O 0.81693 0.85894 0.56515 0.0
C217 C 0.82236 0.84259 0.49084 0.0
C218 C 0.87201 0.90066 0.54033 0.0
O219 O 0.85101 0.90204 0.54047 0.0
O220 O 0.8771 0.88089 0.53844 0.0
C221 C 0.78801 0.90153 0.52307 0.0
O222 O 0.79825 0.89978 0.50368 0.0
C223 C 0.8257 0.84325 0.57173 0.0
Zn224 Zn 0.95817 0.02954 0.26288 0.0
Zn225 Zn 0.93523 0.06184 0.27022 0.0
O226 O 0.95707 0.06443 0.30625 0.0
O227 O 0.97792 0.0396 0.29379 0.0
O228 O 0.91755 0.09521 0.27075 0.0
O229 O 0.97211 0.03244 0.23213 0.0
O230 O 0.95553 0.06214 0.2363 0.0
C231 C 0.97288 0.05331 0.31098 0.0
C232 C 0.91218 1.00426 0.26518 0.0
O233 O 0.90905 0.02557 0.26664 0.0
O234 O 0.93241 1.00141 0.26334 0.0
C235 C 0.90537 0.10805 0.28346 0.0
O236 O 0.89959 0.10199 0.30325 0.0
C237 C 0.96799 0.04958 0.22411 0.0
Zn238 Zn 0.298 0.64331 0.54543 0.0
Zn239 Zn 0.3274 0.62466 0.54161 0.0
O240 O 0.32982 0.64532 0.51613 0.0
O241 O 0.29238 0.63934 0.5101 0.0
O242 O 0.35586 0.60724 0.5382 0.0
O243 O 0.31577 0.67397 0.56358 0.0
O244 O 0.33371 0.649 0.57523 0.0
C245 C 0.31201 0.64639 0.5035 0.0
C246 C 0.27579 0.60356 0.54616 0.0
O247 O 0.29245 0.60144 0.53345 0.0
O248 O 0.28027 0.62046 0.56348 0.0
C249 C 0.36668 0.60565 0.5197 0.0
O250 O 0.35916 0.61382 0.50204 0.0
C251 C 0.32919 0.6694 0.57864 0.0
Zn252 Zn 0.4585 0.52857 0.76281 0.0
Zn253 Zn 0.43499 0.56272 0.77065 0.0
O254 O 0.4579 0.5657 0.80503 0.0
O255 O 0.47687 0.53808 0.7956 0.0
O256 O 0.4182 0.59697 0.77545 0.0
O257 O 0.47281 0.53461 0.73284 0.0
O258 O 0.45451 0.56313 0.73638 0.0
C259 C 0.47245 0.55388 0.81125 0.0
C260 C 0.41168 0.50471 0.76477 0.0
O261 O 0.40974 0.52655 0.76967 0.0
O262 O 0.43096 0.50096 0.75942 0.0
C263 C 0.40055 0.60393 0.76651 0.0
O264 O 0.38623 0.5884 0.75027 0.0
C265 C 0.46768 0.55121 0.72452 0.0
Zn266 Zn 0.65997 0.08327 0.72674 0.0
Zn267 Zn 0.67953 0.0468 0.73559 0.0
O268 O 0.6612 0.0524 0.76294 0.0
O269 O 0.66706 0.0899 0.76274 0.0
O270 O 0.69516 0.02303 0.74327 0.0
O271 O 0.67274 0.06861 0.6973 0.0
O272 O 0.66153 0.03369 0.70482 0.0
C273 C 0.66309 0.07326 0.77376 0.0
C274 C 0.7073 0.09528 0.74528 0.0
O275 O 0.70651 0.07427 0.73554 0.0
O276 O 0.68877 0.10214 0.7488 0.0
C277 C 0.70769 0.03024 0.7627 0.0
O278 O 0.70876 0.0514 0.77469 0.0
C279 C 0.66541 0.04679 0.69008 0.0
Zn280 Zn 0.7612 0.72837 1.00541 0.0
Zn281 Zn 0.79266 0.70472 1.00295 0.0
O282 O 0.79654 0.72102 0.97375 0.0
O283 O 0.77016 0.74162 0.97707 0.0
O284 O 0.81944 0.68947 1.00191 0.0
O285 O 0.77385 0.74653 0.03788 0.0
O286 O 0.79925 0.72486 0.03727 0.0
C287 C 0.78612 0.73516 0.96617 0.0
C288 C 0.74233 0.67857 0.99995 0.0
O289 O 0.76347 0.67768 0.99947 0.0
O290 O 0.73693 0.69817 1.00211 0.0
C291 C 0.82105 0.67383 0.01362 0.0
O292 O 0.80401 0.66628 0.02566 0.0
C293 C 0.79024 0.74068 0.04822 0.0
Zn294 Zn 0.96069 0.49538 0.81997 0.0
Zn295 Zn 0.94306 0.53045 0.79415 0.0
O296 O 0.94879 0.54853 0.82684 0.0
O297 O 0.93798 0.514 0.83384 0.0
O298 O 0.9302 0.54958 0.77531 0.0
O299 O 0.96783 0.48952 0.78526 0.0
O300 O 0.97309 0.52659 0.78351 0.0
C301 C 0.9468 0.53544 0.84162 0.0
C302 C 0.9208 0.47818 0.7857 0.0
O303 O 0.91944 0.49944 0.78807 0.0
O304 O 0.93914 0.47273 0.79279 0.0
C305 C 0.91284 0.55573 0.78362 0.0
O306 O 0.90584 0.54929 0.80291 0.0
C307 C 0.97418 0.50599 0.77434 0.0
Zn308 Zn 0.81544 0.43396 0.50172 0.0
Zn309 Zn 0.78924 0.455 0.50486 0.0
O310 O 0.78224 0.4276 0.47331 0.0
O311 O 0.8181 0.42706 0.46768 0.0
O312 O 0.75865 0.46807 0.50769 0.0
O313 O 0.79802 0.40857 0.51564 0.0
O314 O 0.78955 0.44014 0.53486 0.0
C315 C 0.797 0.42054 0.46025 0.0
C316 C 0.84131 0.47642 0.51585 0.0
O317 O 0.82252 0.4799 0.50655 0.0
O318 O 0.84059 0.45697 0.52164 0.0
C319 C 0.75293 0.48779 0.51273 0.0
O320 O 0.76919 0.50724 0.51681 0.0
C321 C 0.79117 0.41905 0.53372 0.0
Zn322 Zn 0.65519 0.54717 0.27798 0.0
Zn323 Zn 0.67978 0.51584 0.27223 0.0
O324 O 0.66112 0.51661 0.30742 0.0
O325 O 0.63958 0.54206 0.30752 0.0
O326 O 0.70114 0.48527 0.27209 0.0
O327 O 0.63709 0.53805 0.24631 0.0
O328 O 0.65743 0.51216 0.2357 0.0
C329 C 0.6463 0.5274 0.31777 0.0
C330 C 0.70162 0.57338 0.27789 0.0
O331 O 0.70494 0.55213 0.27563 0.0
O332 O 0.68134 0.57603 0.28002 0.0
C333 C 0.69998 0.46331 0.2615 0.0
O334 O 0.68271 0.45363 0.24519 0.0
C335 C 0.64199 0.52338 0.22992 0.0
Eu336 Eu 0.07544 0.07049 0.03082 0.0
Eu337 Eu 0.04642 0.01818 0.01436 0.0
C338 C 0.07618 0.04259 0.97505 0.0
C339 C 0.09254 0.13298 0.02936 0.0
C340 C 0.09273 0.13063 1.00491 0.0
C341 C 0.07139 0.16331 0.02986 0.0
C342 C 0.08146 0.14374 0.99297 0.0
C343 C 0.08278 0.15023 0.04186 0.0
C344 C 0.06979 0.15932 1.00525 0.0
C345 C 0.09741 0.11436 0.04076 0.0
O346 O 0.08365 0.01493 0.02008 0.0
O347 O 0.10168 0.05098 0.04144 0.0
C348 C 0.10232 0.0296 0.03148 0.0
O349 O 0.05712 0.06538 0.06378 0.0
O350 O 0.04173 0.98339 0.99223 0.0
O351 O 0.01855 0.98913 0.01842 0.0
O352 O 0.04145 0.02604 0.05479 0.0
C353 C 0.04473 0.04653 0.06973 0.0
O354 O 0.04037 0.07514 0.01728 0.0
O355 O 0.01824 0.03753 0.00894 0.0
O356 O 0.05953 0.02509 0.97854 0.0
O357 O 0.08114 0.10548 0.05266 0.0
O358 O 0.10513 0.09814 0.02777 0.0
O359 O 0.08368 0.061 0.99243 0.0
C360 C 0.03382 0.95635 0.01626 0.0
C361 C 0.04777 0.96428 0.03771 0.0
C362 C 0.03533 0.91648 0.01765 0.0
C363 C 0.0548 0.94843 0.04942 0.0
C364 C 0.02799 0.93246 1.00595 0.0
C365 C 0.0483 0.92451 0.03963 0.0
C366 C 0.02663 0.97367 1.00475 0.0
C367 C 0.01998 0.06026 0.01221 0.0
H368 H 0.10013 0.11752 0.9947 0.0
H369 H 0.06252 0.17532 0.03969 0.0
H370 H 0.08091 0.14084 0.97401 0.0
H371 H 0.08233 0.15225 0.06068 0.0
H372 H 0.05299 0.98278 0.04558 0.0
H373 H 0.0304 0.89793 0.00995 0.0
H374 H 0.06507 0.95478 0.06627 0.0
H375 H 0.01769 0.92624 0.98914 0.0
Eu376 Eu 0.30048 0.80125 0.25576 0.0
Eu377 Eu 0.28636 0.79883 0.31035 0.0
C378 C 0.25112 0.79638 0.26888 0.0
C379 C 0.31757 0.82235 0.19944 0.0
C380 C 0.31123 0.84388 0.20447 0.0
C381 C 0.33061 0.83116 0.16283 0.0
C382 C 0.31342 0.85838 0.18803 0.0
C383 C 0.32849 0.81673 0.17926 0.0
C384 C 0.32191 0.85137 0.16658 0.0
C385 C 0.31045 0.80436 0.2133 0.0
O386 O 0.28118 0.7621 0.29019 0.0
O387 O 0.30415 0.76587 0.25997 0.0
C388 C 0.29297 0.75344 0.27383 0.0
O389 O 0.33268 0.81336 0.27964 0.0
O390 O 0.25922 0.78578 0.33134 0.0
O391 O 0.29285 0.80568 0.34846 0.0
O392 O 0.32179 0.79223 0.30813 0.0
C393 C 0.33744 0.80257 0.29614 0.0
O394 O 0.29531 0.83648 0.27259 0.0
O395 O 0.30475 0.83606 0.31131 0.0
O396 O 0.25901 0.80927 0.28952 0.0
O397 O 0.32552 0.80327 0.22988 0.0
O398 O 0.28954 0.80167 0.21963 0.0
O399 O 0.26391 0.78358 0.25804 0.0
C400 C 0.27315 0.7747 0.36507 0.0
C401 C 0.28763 0.75905 0.36075 0.0
C402 C 0.26072 0.75808 0.39845 0.0
C403 C 0.28915 0.74346 0.37573 0.0
C404 C 0.25916 0.77355 0.38347 0.0
C405 C 0.27627 0.74346 0.39517 0.0
C406 C 0.27281 0.79261 0.3509 0.0
C407 C 0.30295 0.84735 0.29423 0.0
H408 H 0.303 0.8486 0.22016 0.0
H409 H 0.33695 0.8254 0.14623 0.0
H410 H 0.30632 0.87376 0.19102 0.0
H411 H 0.33372 0.80028 0.17532 0.0
H412 H 0.29832 0.75947 0.34635 0.0
H413 H 0.25051 0.75825 0.41323 0.0
H414 H 0.30137 0.73247 0.37295 0.0
H415 H 0.2476 0.78521 0.38676 0.0
Eu416 Eu 0.58156 0.03681 0.50335 0.0
Eu417 Eu 0.52204 0.03755 0.52764 0.0
C418 C 0.55861 0.02938 0.55481 0.0
C419 C 0.63466 0.01063 0.50155 0.0
C420 C 0.6247 0.99069 0.51022 0.0
C421 C 0.66888 0.99565 0.49525 0.0
C422 C 0.63725 0.97384 0.51242 0.0
C423 C 0.65649 0.01264 0.49345 0.0
C424 C 0.65968 0.97644 0.5054 0.0
C425 C 0.62285 0.02968 0.50095 0.0
O426 O 0.54729 0.07257 0.53759 0.0
O427 O 0.58147 0.07431 0.5177 0.0
C428 C 0.56737 0.08333 0.53148 0.0
O429 O 0.56386 0.04233 0.47002 0.0
O430 O 0.49164 0.03943 0.546 0.0
O431 O 0.49231 0.04503 0.50992 0.0
O432 O 0.54325 0.04137 0.49868 0.0
C433 C 0.54361 0.04258 0.4769 0.0
O434 O 0.55834 1.00106 0.49992 0.0
O435 O 0.52109 1.00003 0.51283 0.0
O436 O 0.53825 0.03102 0.56065 0.0
O437 O 0.60819 0.02693 0.48248 0.0
O438 O 0.61544 0.03855 0.52058 0.0
O439 O 0.5613 0.03181 0.53345 0.0
C440 C 0.47035 0.06575 0.5353 0.0
C441 C 0.47088 0.08274 0.52139 0.0
C442 C 0.44178 0.08096 0.55731 0.0
C443 C 0.456 0.0979 0.52468 0.0
C444 C 0.45664 0.06588 0.55408 0.0
C445 C 0.44045 0.09609 0.54178 0.0
C446 C 0.48133 0.04597 0.52879 0.0
C447 C 0.53737 0.99024 0.50382 0.0
H448 H 0.60744 0.98831 0.51558 0.0
H449 H 0.68615 0.99818 0.48977 0.0
H450 H 0.6296 0.95899 0.51993 0.0
H451 H 0.66424 0.0277 0.48629 0.0
H452 H 0.48144 0.08321 0.5069 0.0
H453 H 0.42967 0.07914 0.57039 0.0
H454 H 0.45493 0.10922 0.51229 0.0
H455 H 0.45604 0.05304 0.56513 0.0
Eu456 Eu 0.2838 0.29678 0.76815 0.0
Eu457 Eu 0.3298 0.28197 0.7733 0.0
C458 C 0.28236 0.24356 0.77516 0.0
C459 C 0.22975 0.31263 0.7854 0.0
C460 C 0.22213 0.29484 0.79788 0.0
C461 C 0.21111 0.33829 0.8106 0.0
C462 C 0.20852 0.29854 0.81613 0.0
C463 C 0.2245 0.33448 0.79214 0.0
C464 C 0.20259 0.32018 0.8224 0.0
C465 C 0.24497 0.3094 0.76691 0.0
O466 O 0.32572 0.28591 0.73559 0.0
O467 O 0.28664 0.2766 0.73257 0.0
C468 C 0.30586 0.27849 0.72277 0.0
O469 O 0.30985 0.32806 0.7588 0.0
O470 O 0.34669 0.2531 0.76605 0.0
O471 O 0.36645 0.28733 0.78416 0.0
O472 O 0.34107 0.32276 0.77939 0.0
C473 C 0.3311 0.33673 0.76917 0.0
O474 O 0.29785 0.31175 0.80554 0.0
O475 O 0.3199 0.28607 0.81041 0.0
O476 O 0.30218 0.24695 0.76602 0.0
O477 O 0.26493 0.32428 0.77076 0.0
O478 O 0.24659 0.28801 0.75886 0.0
O479 O 0.27417 0.26226 0.78242 0.0
C480 C 0.38356 0.26522 0.75593 0.0
C481 C 0.38551 0.28037 0.74 0.0
C482 C 0.41406 0.24891 0.73948 0.0
C483 C 0.40261 0.28071 0.7248 0.0
C484 C 0.39704 0.24871 0.75487 0.0
C485 C 0.41762 0.26576 0.72533 0.0
C486 C 0.36711 0.26637 0.77327 0.0
C487 C 0.30941 0.30228 0.81921 0.0
H488 H 0.22647 0.27798 0.79344 0.0
H489 H 0.20699 0.35522 0.8153 0.0
H490 H 0.20191 0.28412 0.82464 0.0
H491 H 0.2308 0.3486 0.78311 0.0
H492 H 0.37464 0.29273 0.74018 0.0
H493 H 0.42571 0.2374 0.74016 0.0
H494 H 0.40531 0.29384 0.71399 0.0
H495 H 0.39512 0.23648 0.76665 0.0
Eu496 Eu 0.05281 0.06285 0.53248 0.0
Eu497 Eu 0.06477 0.01448 0.51029 0.0
C498 C 0.09985 0.0623 0.50889 0.0
C499 C 0.04805 0.12112 0.52877 0.0
C500 C 0.0593 0.11592 0.50867 0.0
C501 C 0.04536 0.15802 0.51853 0.0
C502 C 0.06377 0.13158 0.49378 0.0
C503 C 0.0404 0.1419 0.53332 0.0
C504 C 0.05781 0.15319 0.49913 0.0
C505 C 0.04482 0.10427 0.54431 0.0
O506 O 0.08129 0.02299 0.54843 0.0
O507 O 0.06304 0.05014 0.56657 0.0
C508 C 0.07641 0.03518 0.56803 0.0
O509 O 0.019 0.03721 0.53099 0.0
O510 O 0.09114 0.99425 0.50747 0.0
O511 O 0.0561 0.9781 0.49177 0.0
O512 O 0.0313 1.00314 0.52559 0.0
C513 C 0.01511 0.01459 0.52957 0.0
O514 O 0.04385 0.0594 0.49196 0.0
O515 O 0.04617 0.02173 0.47762 0.0
O516 O 0.08986 0.04163 0.49638 0.0
O517 O 0.02854 0.08554 0.5364 0.0
O518 O 0.06376 0.09913 0.55162 0.0
O519 O 0.09062 0.07157 0.52695 0.0
C520 C 0.07531 0.95591 0.51185 0.0
C521 C 0.06017 0.95338 0.52933 0.0
C522 C 0.08742 0.92122 0.51813 0.0
C523 C 0.05797 0.93427 0.54043 0.0
C524 C 0.08956 0.94029 0.50701 0.0
C525 C 0.07095 0.91754 0.53422 0.0
C526 C 0.0761 0.97471 0.49861 0.0
C527 C 0.04068 0.04127 0.47408 0.0
H528 H 0.06564 0.10017 0.505 0.0
H529 H 0.0407 0.17471 0.52297 0.0
H530 H 0.07318 0.12742 0.47882 0.0
H531 H 0.03145 0.146 0.54863 0.0
H532 H 0.04938 0.96565 0.53372 0.0
H533 H 0.09781 0.90866 0.51329 0.0
H534 H 0.04508 0.93178 0.55267 0.0
H535 H 0.10173 0.94234 0.49402 0.0
Eu536 Eu 0.33643 0.8097 0.77283 0.0
Eu537 Eu 0.28805 0.77606 0.76721 0.0
C538 C 0.30909 0.80745 0.81758 0.0
C539 C 0.3999 0.83441 0.78649 0.0
C540 C 0.40187 0.82671 0.80777 0.0
C541 C 0.4391 0.83193 0.78059 0.0
C542 C 0.42237 0.82156 0.81534 0.0
C543 C 0.41868 0.83721 0.77309 0.0
C544 C 0.44085 0.82388 0.80155 0.0
C545 C 0.37766 0.83663 0.77657 0.0
O546 O 0.27867 0.81116 0.76026 0.0
O547 O 0.31302 0.83648 0.7744 0.0
C548 C 0.29076 0.83329 0.76746 0.0
O549 O 0.3264 0.79806 0.73349 0.0
O550 O 0.25731 0.75409 0.77726 0.0
O551 O 0.26018 0.75745 0.74076 0.0
O552 O 0.3067 0.76274 0.73739 0.0
C553 C 0.31838 0.77575 0.72459 0.0
O554 O 0.34678 0.7744 0.77585 0.0
O555 O 0.31119 0.75049 0.77633 0.0
O556 O 0.29019 0.79853 0.80334 0.0
O557 O 0.36862 0.82086 0.75792 0.0
O558 O 0.36257 0.84021 0.79128 0.0
O559 O 0.3293 0.80719 0.81003 0.0
C560 C 0.2237 0.75477 0.75328 0.0
C561 C 0.21138 0.74813 0.73091 0.0
C562 C 0.19313 0.77234 0.76818 0.0
C563 C 0.19009 0.75344 0.72718 0.0
C564 C 0.21464 0.7673 0.77185 0.0
C565 C 0.18061 0.76519 0.74587 0.0
C566 C 0.24669 0.75007 0.75603 0.0
C567 C 0.33415 0.75325 0.77692 0.0
H568 H 0.38742 0.82405 0.81821 0.0
H569 H 0.45341 0.83377 0.7699 0.0
H570 H 0.42371 0.81542 0.83163 0.0
H571 H 0.41729 0.84276 0.75647 0.0
H572 H 0.21827 0.73879 0.71627 0.0
H573 H 0.18611 0.78154 0.7828 0.0
H574 H 0.18064 0.74756 0.70989 0.0
H575 H 0.22407 0.77312 0.78914 0.0
Eu576 Eu 0.56226 0.04432 0.04546 0.0
Eu577 Eu 0.55193 0.05025 0.99219 0.0
C578 C 0.5501 0.0891 0.03503 0.0
C579 C 0.54456 0.03542 0.10195 0.0
C580 C 0.52499 0.04345 0.09599 0.0
C581 C 0.52331 0.01449 0.12859 0.0
C582 C 0.50457 0.03666 0.10585 0.0
C583 C 0.54363 0.02087 0.11825 0.0
C584 C 0.50347 0.02214 0.12229 0.0
C585 C 0.5646 0.03988 0.08877 0.0
O586 O 0.59062 0.06626 1.00263 0.0
O587 O 0.59749 0.04759 0.03245 0.0
C588 C 0.60511 0.05965 0.01658 0.0
O589 O 0.55177 0.00853 0.02281 0.0
O590 O 0.55014 0.07577 0.97051 0.0
O591 O 0.54269 0.03861 0.95448 0.0
O592 O 0.56604 0.01877 0.98993 0.0
C593 C 0.56022 1.00323 1.00291 0.0
O594 O 0.52353 0.04036 0.03957 0.0
O595 O 0.51707 0.02972 0.99947 0.0
O596 O 0.53859 0.07603 0.01591 0.0
O597 O 0.56518 0.02281 0.07148 0.0
O598 O 0.56908 0.06021 0.08267 0.0
O599 O 0.56674 0.08254 0.04537 0.0
C600 C 0.5687 0.06535 0.93852 0.0
C601 C 0.58767 0.05613 0.94371 0.0
C602 C 0.59196 0.0907 0.91675 0.0
C603 C 0.60853 0.06385 0.93516 0.0
C604 C 0.57098 0.08297 0.9254 0.0
C605 C 0.61069 0.08093 0.92142 0.0
C606 C 0.54874 0.06019 0.9513 0.0
C607 C 0.50929 0.03166 0.02029 0.0
H608 H 0.5254 0.05483 0.08349 0.0
H609 H 0.52337 1.00394 0.14185 0.0
H610 H 0.48969 0.0429 0.10069 0.0
H611 H 0.55851 0.01436 0.12285 0.0
H612 H 0.5865 0.04319 0.95469 0.0
H613 H 0.59327 0.10352 0.90563 0.0
H614 H 0.62278 0.05596 0.9386 0.0
H615 H 0.5567 0.09084 0.92211 0.0
Eu616 Eu 0.30437 0.31101 0.28314 0.0
Eu617 Eu 0.29598 0.25588 0.25533 0.0
C618 C 0.30349 0.30031 0.22723 0.0
C619 C 0.29865 0.37221 0.30464 0.0
C620 C 0.28943 0.37275 0.28215 0.0
C621 C 0.2894 0.40887 0.32029 0.0
C622 C 0.28015 0.39136 0.27875 0.0
C623 C 0.29892 0.39034 0.32364 0.0
C624 C 0.27985 0.40926 0.29788 0.0
C625 C 0.3068 0.35208 0.30846 0.0
O626 O 0.33285 0.26796 0.27116 0.0
O627 O 0.33899 0.30771 0.27483 0.0
C628 C 0.34658 0.28869 0.2726 0.0
O629 O 0.31015 0.29085 0.31044 0.0
O630 O 0.30726 0.23295 0.22719 0.0
O631 O 0.27909 0.2186 0.24594 0.0
O632 O 0.29659 0.25185 0.2936 0.0
C633 C 0.30339 0.26894 0.31215 0.0
O634 O 0.26892 0.29763 0.2641 0.0
O635 O 0.26166 0.25963 0.26644 0.0
O636 O 0.29513 0.27778 0.22678 0.0
O637 O 0.29051 0.33369 0.30917 0.0
O638 O 0.32289 0.34719 0.29554 0.0
O639 O 0.30887 0.31602 0.24681 0.0
C640 C 0.30599 0.19626 0.23583 0.0
C641 C 0.3239 0.20232 0.2541 0.0
C642 C 0.31057 0.15633 0.22822 0.0
C643 C 0.33476 0.18543 0.25971 0.0
C644 C 0.29959 0.17333 0.22261 0.0
C645 C 0.32784 0.16229 0.24713 0.0
C646 C 0.29391 0.21398 0.23124 0.0
C647 C 0.25505 0.27925 0.26871 0.0
H648 H 0.28902 0.35857 0.26743 0.0
H649 H 0.28919 0.4227 0.33513 0.0
H650 H 0.27252 0.39141 0.26142 0.0
H651 H 0.306 0.38989 0.34105 0.0
H652 H 0.32908 0.21999 0.26441 0.0
H653 H 0.30495 0.13843 0.21853 0.0
H654 H 0.34807 0.19023 0.27436 0.0
H655 H 0.28581 0.16851 0.20842 0.0
Eu656 Eu 0.55009 0.56018 0.02871 0.0
Eu657 Eu 0.56418 0.5131 0.00797 0.0
C658 C 0.60066 0.56154 0.00968 0.0
C659 C 0.5418 0.61722 0.0244 0.0
C660 C 0.55004 0.61128 1.00255 0.0
C661 C 0.54359 0.65631 0.01779 0.0
C662 C 0.55558 0.62783 0.98869 0.0
C663 C 0.53801 0.63959 0.03177 0.0
C664 C 0.55311 0.65066 0.99654 0.0
C665 C 0.53913 0.60014 0.03957 0.0
O666 O 0.57308 0.51609 0.04817 0.0
O667 O 0.56676 0.55231 0.06247 0.0
C668 C 0.57406 0.53364 0.06615 0.0
O669 O 0.52322 0.5337 0.04073 0.0
O670 O 0.588 0.49006 1.00501 0.0
O671 O 0.55414 0.47818 0.98568 0.0
O672 O 0.52607 0.50303 0.0124 0.0
C673 C 0.51463 0.51264 0.02843 0.0
O674 O 0.53314 0.54999 0.99008 0.0
O675 O 0.55729 0.528 0.97471 0.0
O676 O 0.59745 0.53899 0.00835 0.0
O677 O 0.52396 0.58064 0.03094 0.0
O678 O 0.5586 0.59649 0.04762 0.0
O679 O 0.5841 0.57241 0.01433 0.0
C680 C 0.56746 0.45277 0.00646 0.0
C681 C 0.54925 0.4512 0.02075 0.0
C682 C 0.58074 0.42306 0.02302 0.0
C683 C 0.54686 0.43581 0.0361 0.0
C684 C 0.58311 0.43853 0.00752 0.0
C685 C 0.56281 0.42193 0.0377 0.0
C686 C 0.5722 0.47208 0.99391 0.0
C687 C 0.54147 0.53993 0.9714 0.0
H688 H 0.55313 0.59408 0.99663 0.0
H689 H 0.54171 0.67394 0.0242 0.0
H690 H 0.56271 0.62307 0.97229 0.0
H691 H 0.53166 0.64435 0.04859 0.0
H692 H 0.53726 0.46242 0.02064 0.0
H693 H 0.59327 0.41252 0.02402 0.0
H694 H 0.53259 0.43492 0.04684 0.0
H695 H 0.59758 0.44001 0.99704 0.0
Eu696 Eu 0.83431 0.30905 0.27038 0.0
Eu697 Eu 0.78959 0.27509 0.27506 0.0
C698 C 0.81354 0.3096 0.32068 0.0
C699 C 0.898 0.33131 0.28056 0.0
C700 C 0.89958 0.32107 0.30033 0.0
C701 C 0.93921 0.33813 0.2797 0.0
C702 C 0.92106 0.32003 0.31017 0.0
C703 C 0.91778 0.33921 0.26992 0.0
C704 C 0.94099 0.32916 0.3002 0.0
C705 C 0.87585 0.33424 0.27132 0.0
O706 O 0.77758 0.31011 0.2707 0.0
O707 O 0.81116 0.33482 0.26599 0.0
C708 C 0.78869 0.33138 0.26781 0.0
O709 O 0.81887 0.29796 0.2328 0.0
O710 O 0.75789 0.26582 0.29159 0.0
O711 O 0.76256 0.24457 0.25872 0.0
O712 O 0.80095 0.26274 0.23939 0.0
C713 C 0.80988 0.2757 0.22487 0.0
O714 O 0.84533 0.27333 0.27227 0.0
O715 O 0.81323 0.25016 0.28219 0.0
O716 O 0.80343 0.28756 0.313 0.0
O717 O 0.86545 0.31871 0.25298 0.0
O718 O 0.86196 0.33865 0.28703 0.0
O719 O 0.82399 0.32186 0.30633 0.0
C720 C 0.72785 0.2556 0.26184 0.0
C721 C 0.73104 0.26945 0.24465 0.0
C722 C 0.68717 0.25427 0.25837 0.0
C723 C 0.71234 0.27548 0.2342 0.0
C724 C 0.70596 0.24837 0.26899 0.0
C725 C 0.69033 0.2676 0.24078 0.0
C726 C 0.7479 0.25034 0.27306 0.0
C727 C 0.83505 0.25283 0.27749 0.0
H728 H 0.8843 0.3145 0.30853 0.0
H729 H 0.95451 0.34487 0.27164 0.0
H730 H 0.92221 0.31303 0.32598 0.0
H731 H 0.9167 0.34673 0.25444 0.0
H732 H 0.74799 0.27543 0.23916 0.0
H733 H 0.67013 0.24819 0.26361 0.0
H734 H 0.71493 0.28559 0.2205 0.0
H735 H 0.70342 0.23813 0.28258 0.0
Eu736 Eu 0.05935 0.54329 0.54863 0.0
Eu737 Eu 0.05451 0.55553 0.48865 0.0
C738 C 0.06001 0.59247 0.52629 0.0
C739 C 0.03847 0.53789 0.60446 0.0
C740 C 0.01599 0.54091 0.59995 0.0
C741 C 0.02326 0.50708 0.62499 0.0
C742 C 0.99738 0.52736 0.60826 0.0
C743 C 0.04189 0.52073 0.61686 0.0
C744 C 1.00093 0.51049 0.62098 0.0
C745 C 0.05759 0.54967 0.59307 0.0
O746 O 0.09295 0.56604 0.50265 0.0
O747 O 0.09644 0.55342 0.53861 0.0
C748 C 0.10532 0.56237 0.5208 0.0
O749 O 0.05845 0.50591 0.5322 0.0
O750 O 0.04211 0.5642 0.45637 0.0
O751 O 0.05855 0.53456 0.45508 0.0
O752 O 0.05416 0.52732 0.5077 0.0
C753 C 0.05782 0.50735 0.51029 0.0
O754 O 0.0209 0.53279 0.53482 0.0
O755 O 0.01841 0.54824 0.50045 0.0
O756 O 0.0582 0.59344 0.50435 0.0
O757 O 0.06953 0.53574 0.58224 0.0
O758 O 0.05278 0.56458 0.58076 0.0
O759 O 0.06052 0.57157 0.52915 0.0
C760 C 0.07494 0.56558 0.43755 0.0
C761 C 0.09657 0.56788 0.44993 0.0
C762 C 0.09274 0.59389 0.41567 0.0
C763 C 0.11611 0.58246 0.4446 0.0
C764 C 0.07281 0.58034 0.42193 0.0
C765 C 0.11439 0.5914 0.42429 0.0
C766 C 0.05468 0.55146 0.44491 0.0
C767 C 1.0091 0.53845 0.51748 0.0
H768 H 0.01266 0.55364 0.58993 0.0
H769 H 0.02654 0.49466 0.63543 0.0
H770 H 0.98034 0.53055 0.60542 0.0
H771 H 0.05896 0.51777 0.6201 0.0
H772 H 0.0988 0.55714 0.46246 0.0
H773 H 0.09116 0.60237 0.40091 0.0
H774 H 0.13279 0.58144 0.45218 0.0
H775 H 0.05606 0.58039 0.41374 0.0
Eu776 Eu 0.78179 0.79143 0.26502 0.0
Eu777 Eu 0.83188 0.7828 0.27333 0.0
C778 C 0.7864 0.73965 0.27265 0.0
C779 C 0.72807 0.80736 0.28326 0.0
C780 C 0.72955 0.79938 0.30442 0.0
C781 C 0.70345 0.83204 0.29945 0.0
C782 C 0.71737 0.80714 0.32274 0.0
C783 C 0.7155 0.82415 0.2811 0.0
C784 C 0.70385 0.82316 0.32018 0.0
C785 C 0.7408 0.79944 0.26396 0.0
O786 O 0.82484 0.77659 0.23338 0.0
O787 O 0.78957 0.78533 0.22805 0.0
C788 C 0.80774 0.77941 0.21977 0.0
O789 O 0.80526 0.82715 0.26241 0.0
O790 O 0.85113 0.75569 0.26765 0.0
O791 O 0.86882 0.79123 0.28422 0.0
O792 O 0.84142 0.82278 0.27276 0.0
C793 C 0.82779 0.8362 0.26711 0.0
O794 O 0.78966 0.80057 0.30429 0.0
O795 O 0.82586 0.79434 0.31092 0.0
O796 O 0.80711 0.75096 0.28299 0.0
O797 O 0.75906 0.81475 0.26117 0.0
O798 O 0.74449 0.77855 0.26248 0.0
O799 O 0.77485 0.75092 0.26058 0.0
C800 C 0.88807 0.76938 0.25802 0.0
C801 C 0.8865 0.77956 0.23832 0.0
C802 C 0.92181 0.75669 0.24502 0.0
C803 C 0.90281 0.77872 0.22225 0.0
C804 C 0.90543 0.75753 0.26109 0.0
C805 C 0.92088 0.76772 0.22575 0.0
C806 C 0.87097 0.77033 0.27478 0.0
C807 C 0.80748 0.80059 0.31852 0.0
H808 H 0.73979 0.78688 0.30667 0.0
H809 H 0.69286 0.84414 0.2969 0.0
H810 H 0.71794 0.80012 0.33859 0.0
H811 H 0.71467 0.83085 0.26508 0.0
H812 H 0.87287 0.78843 0.23555 0.0
H813 H 0.93573 0.74833 0.24823 0.0
H814 H 0.90164 0.78716 0.20742 0.0
H815 H 0.90653 0.7493 0.27609 0.0
Eu816 Eu 0.80826 0.29582 0.74886 0.0
Eu817 Eu 0.79284 0.29877 0.81254 0.0
C818 C 0.75942 0.29476 0.77586 0.0
C819 C 0.81448 0.31833 0.69385 0.0
C820 C 0.80524 0.33828 0.69615 0.0
C821 C 0.83953 0.33351 0.66616 0.0
C822 C 0.81196 0.35481 0.68226 0.0
C823 C 0.8327 0.31688 0.67988 0.0
C824 C 0.82782 0.35145 0.66586 0.0
C825 C 0.80507 0.29876 0.70539 0.0
O826 O 0.78789 0.26083 0.79406 0.0
O827 O 0.79805 0.25903 0.75491 0.0
C828 C 0.79132 0.24955 0.77306 0.0
O829 O 0.84494 0.29971 0.76387 0.0
O830 O 0.77961 0.3016 0.84664 0.0
O831 O 0.81518 0.29853 0.84329 0.0
O832 O 0.82039 0.29878 0.78917 0.0
C833 C 0.84183 0.30054 0.78578 0.0
O834 O 0.81215 0.3331 0.76702 0.0
O835 O 0.80099 0.33585 0.80586 0.0
O836 O 0.75628 0.29584 0.79779 0.0
O837 O 0.82039 0.28925 0.71441 0.0
O838 O 0.78841 0.30119 0.7187 0.0
O839 O 0.7804 0.29423 0.77204 0.0
C840 C 0.79362 0.27783 0.86894 0.0
C841 C 0.80005 0.25678 0.86042 0.0
C842 C 0.77622 0.26099 0.90032 0.0
C843 C 0.79508 0.23817 0.87217 0.0
C844 C 0.78139 0.27965 0.88873 0.0
C845 C 0.78328 0.24021 0.89234 0.0
C846 C 0.79809 0.2974 0.85654 0.0
C847 C 0.80741 0.34461 0.78718 0.0
H848 H 0.79172 0.34034 0.70744 0.0
H849 H 0.85185 0.33066 0.65362 0.0
H850 H 0.80269 0.36852 0.68229 0.0
H851 H 0.84062 0.30206 0.67833 0.0
H852 H 0.80894 0.25472 0.84474 0.0
H853 H 0.7673 0.2631 0.91597 0.0
H854 H 0.80051 0.22223 0.86558 0.0
H855 H 0.7759 0.29557 0.89526 0.0
Eu856 Eu 0.81205 0.8132 0.77606 0.0
Eu857 Eu 0.79493 0.75669 0.75561 0.0
C858 C 0.8006 0.79293 0.72152 0.0
C859 C 0.81061 0.87631 0.79386 0.0
C860 C 0.78775 0.87089 0.78359 0.0
C861 C 0.80887 0.91653 0.80696 0.0
C862 C 0.77551 0.8883 0.78486 0.0
C863 C 0.82106 0.89905 0.80574 0.0
C864 C 0.78606 0.91133 0.79639 0.0
C865 C 0.82368 0.85832 0.79171 0.0
O866 O 0.83263 0.76652 0.75276 0.0
O867 O 0.84454 0.8011 0.77979 0.0
C868 C 0.84874 0.783 0.766 0.0
O869 O 0.80218 0.79623 0.80643 0.0
O870 O 0.79272 0.72825 0.72569 0.0
O871 O 0.77722 0.72108 0.7571 0.0
O872 O 0.80785 0.75949 0.79388 0.0
C873 C 0.80555 0.77642 0.81094 0.0
O874 O 0.7736 0.80608 0.76724 0.0
O875 O 0.76458 0.76738 0.7698 0.0
O876 O 0.78609 0.77518 0.72692 0.0
O877 O 0.81852 0.84321 0.80521 0.0
O878 O 0.82541 0.84839 0.77026 0.0
O879 O 0.81623 0.80692 0.73752 0.0
C880 C 0.79709 0.69473 0.73819 0.0
C881 C 0.81597 0.69973 0.75529 0.0
C882 C 0.80609 0.65794 0.72177 0.0
C883 C 0.82963 0.68377 0.75586 0.0
C884 C 0.79227 0.67393 0.7213 0.0
C885 C 0.82471 0.66274 0.73918 0.0
C886 C 0.78378 0.71224 0.73715 0.0
C887 C 0.75889 0.78739 0.7706 0.0
H888 H 0.77954 0.85328 0.77434 0.0
H889 H 0.81754 0.93422 0.81561 0.0
H890 H 0.75787 0.88378 0.7768 0.0
H891 H 0.83872 0.90336 0.8137 0.0
H892 H 0.82021 0.71606 0.7681 0.0
H893 H 0.80205 0.64173 0.70882 0.0
H894 H 0.84413 0.68791 0.76923 0.0
H895 H 0.77798 0.67016 0.70777 0.0
Eu896 Eu 0.57184 0.56682 0.52895 0.0
Eu897 Eu 0.54348 0.51501 0.51461 0.0
C898 C 0.57323 0.53812 0.47454 0.0
C899 C 0.58781 0.6302 0.5303 0.0
C900 C 0.5714 0.6258 0.51083 0.0
C901 C 0.58819 0.67136 0.53687 0.0
C902 C 0.56353 0.64408 0.50432 0.0
C903 C 0.59624 0.65297 0.54331 0.0
C904 C 0.57182 0.66692 0.51735 0.0
C905 C 0.59446 0.61053 0.53779 0.0
O906 O 0.57825 0.51022 0.52842 0.0
O907 O 0.60023 0.54741 0.53251 0.0
C908 C 0.59861 0.52496 0.53136 0.0
O909 O 0.56013 0.56147 0.56501 0.0
O910 O 0.53412 0.48027 0.49184 0.0
O911 O 0.51643 0.48737 0.52261 0.0
O912 O 0.53381 0.5267 0.55283 0.0
C913 C 0.54283 0.54539 0.56957 0.0
O914 O 0.53425 0.57027 0.52414 0.0
O915 O 0.51838 0.53439 0.50123 0.0
O916 O 0.56343 0.5186 0.4814 0.0
O917 O 0.5814 0.60122 0.55227 0.0
O918 O 0.59833 0.59483 0.52089 0.0
O919 O 0.57344 0.55838 0.48861 0.0
C920 C 0.52929 0.45296 0.51589 0.0
C921 C 0.54481 0.4593 0.53633 0.0
C922 C 0.53527 0.41371 0.50986 0.0
C923 C 0.55583 0.44311 0.54323 0.0
C924 C 0.52423 0.43003 0.50289 0.0
C925 C 0.55152 0.42036 0.52975 0.0
C926 C 0.52134 0.47131 0.50675 0.0
C927 C 0.51634 0.55525 0.5115 0.0
H928 H 0.56438 0.60815 0.5009 0.0
H929 H 0.59468 0.68898 0.54704 0.0
H930 H 0.55058 0.64031 0.48943 0.0
H931 H 0.60868 0.65641 0.55856 0.0
H932 H 0.54918 0.47708 0.54645 0.0
H933 H 0.53153 0.39609 0.49943 0.0
H934 H 0.56848 0.44869 0.55848 0.0
H935 H 0.51246 0.42502 0.48698 0.0
Eu936 Eu 0.07396 0.5301 0.01403 0.0
Eu937 Eu 0.01967 0.53296 0.02734 0.0
C938 C 0.05484 0.51571 0.05724 0.0
C939 C 0.12886 0.50586 0.00841 0.0
C940 C 0.13299 0.49787 0.02912 0.0
C941 C 0.15275 0.48146 0.98892 0.0
C942 C 0.1469 0.48197 0.02976 0.0
C943 C 0.13882 0.49745 0.98831 0.0
C944 C 0.15701 0.47358 0.0097 0.0
C945 C 0.11544 0.52391 0.00788 0.0
O946 O 0.04119 0.56891 0.02956 0.0
O947 O 0.07627 0.5627 0.04097 0.0
C948 C 0.06173 0.57627 0.04114 0.0
O949 O 0.06336 0.552 0.99026 0.0
O950 O 0.99918 0.54609 0.05418 0.0
O951 O 0.98242 0.52729 0.01986 0.0
O952 O 0.02382 0.53845 0.99072 0.0
C953 C 0.04197 0.54793 0.98093 0.0
O954 O 0.04736 0.50277 0.9893 0.0
O955 O 0.01804 0.49504 0.01286 0.0
O956 O 0.04096 0.52986 0.05872 0.0
O957 O 0.09911 0.5199 0.99072 0.0
O958 O 0.10949 0.53364 0.02784 0.0
O959 O 0.05871 0.50582 0.03657 0.0
C960 C 0.96879 0.55966 0.03867 0.0
C961 C 0.96921 0.57001 0.01888 0.0
C962 C 0.94683 0.58652 0.05707 0.0
C963 C 0.95794 0.58799 0.01791 0.0
C964 C 0.95793 0.56833 0.05792 0.0
C965 C 0.94634 0.59626 0.03686 0.0
C966 C 0.98037 0.5405 0.0398 0.0
C967 C 0.02905 0.48881 0.99471 0.0
H968 H 0.12587 0.50421 0.045 0.0
H969 H 0.16014 0.47527 0.97311 0.0
H970 H 0.1502 0.47674 0.04624 0.0
H971 H 0.13605 0.50349 0.97217 0.0
H972 H 0.97794 0.56396 1.004 0.0
H973 H 0.93846 0.59278 0.07214 0.0
H974 H 0.95771 0.59484 1.00195 0.0
H975 H 0.95793 0.56093 0.07357 0.0
H976 H 0.01831 0.26218 0.97381 0.0
H977 H 0.98124 0.21343 0.91204 0.0
H978 H 0.99393 0.18089 0.92608 0.0
H979 H 0.06672 0.23933 0.97124 0.0
H980 H 0.07397 0.2447 1.00253 0.0
H981 H 0.05845 0.263 0.99012 0.0
H982 H 0.02578 0.25355 0.01671 0.0
H983 H 0.04127 0.23536 0.02947 0.0
H984 H 0.01193 0.22344 0.01643 0.0
H985 H 0.0134 0.15522 0.94506 0.0
H986 H 0.03906 0.13753 0.96707 0.0
H987 H 0.06595 0.20463 0.01439 0.0
C988 C 0.0121 0.24441 0.96386 0.0
C989 C 0.99817 0.23967 0.94251 0.0
C990 C 0.99134 0.2168 0.92888 0.0
C991 C 0.99852 0.19844 0.93668 0.0
C992 C 0.0128 0.20375 0.95769 0.0
C993 C 0.01964 0.22622 0.97101 0.0
C994 C 0.0375 0.22806 0.99106 0.0
C995 C 0.06051 0.24475 0.98857 0.0
C996 C 0.02857 0.23553 0.01483 0.0
C997 C 0.03954 0.20301 0.98712 0.0
C998 C 0.0251 0.18926 0.96789 0.0
C999 C 0.02471 0.16573 0.96022 0.0
C1000 C 0.03947 0.15596 0.97264 0.0
C1001 C 0.0545 0.16987 0.99226 0.0
C1002 C 0.05443 0.19361 0.99961 0.0
H1003 H 0.1432 0.755 0.1775 0.0
H1004 H 0.18876 0.78784 0.13128 0.0
H1005 H 0.21816 0.80546 0.16463 0.0
H1006 H 0.15826 0.80091 0.22794 0.0
H1007 H 0.15845 0.78212 0.24886 0.0
H1008 H 0.13998 0.7717 0.22165 0.0
H1009 H 0.1583 0.73601 0.21096 0.0
H1010 H 0.17575 0.74561 0.23873 0.0
H1011 H 0.18928 0.74085 0.21195 0.0
H1012 H 0.24045 0.82317 0.20263 0.0
H1013 H 0.26209 0.82709 0.24078 0.0
H1014 H 0.20489 0.77933 0.26174 0.0
C1015 C 0.15951 0.76559 0.17434 0.0
C1016 C 0.16348 0.77056 0.15196 0.0
C1017 C 0.1852 0.78405 0.14836 0.0
C1018 C 0.20188 0.79447 0.16723 0.0
C1019 C 0.19669 0.79079 0.18935 0.0
C1020 C 0.17664 0.77575 0.19289 0.0
C1021 C 0.17657 0.77304 0.21818 0.0
C1022 C 0.15715 0.78251 0.22983 0.0
C1023 C 0.1749 0.74736 0.22006 0.0
C1024 C 0.19994 0.78859 0.22807 0.0
C1025 C 0.21064 0.79953 0.2113 0.0
C1026 C 0.23239 0.81461 0.21592 0.0
C1027 C 0.24443 0.81694 0.23771 0.0
C1028 C 0.23497 0.8034 0.25385 0.0
C1029 C 0.21208 0.79015 0.24968 0.0
H1030 H 0.55679 0.87114 0.44046 0.0
H1031 H 0.4964 0.83851 0.47093 0.0
H1032 H 0.49793 0.87554 0.49774 0.0
H1033 H 0.58528 0.91641 0.4962 0.0
H1034 H 0.594 0.93828 0.47884 0.0
H1035 H 0.59305 0.90796 0.46695 0.0
H1036 H 0.56583 0.90927 0.43096 0.0
H1037 H 0.56677 0.9394 0.44271 0.0
H1038 H 0.53935 0.91845 0.43584 0.0
H1039 H 0.49927 0.91626 0.51317 0.0
H1040 H 0.50348 0.9591 0.51946 0.0
H1041 H 0.56246 0.96452 0.47855 0.0
C1042 C 0.54471 0.87163 0.45362 0.0
C1043 C 0.52659 0.85235 0.45378 0.0
C1044 C 0.51048 0.85339 0.47064 0.0
C1045 C 0.51129 0.87421 0.48611 0.0
C1046 C 0.52854 0.89348 0.48467 0.0
C1047 C 0.54527 0.89235 0.46917 0.0
C1048 C 0.55917 0.91629 0.46804 0.0
C1049 C 0.58437 0.91994 0.47813 0.0
C1050 C 0.55765 0.9211 0.44291 0.0
C1051 C 0.54652 0.9308 0.48392 0.0
C1052 C 0.52925 0.91749 0.49375 0.0
C1053 C 0.51328 0.9271 0.50635 0.0
C1054 C 0.51549 0.95124 0.50941 0.0
C1055 C 0.53332 0.96496 0.49953 0.0
C1056 C 0.54889 0.95454 0.48671 0.0
H1057 H 0.52755 0.24529 0.66148 0.0
H1058 H 0.56437 0.31225 0.70374 0.0
H1059 H 0.52865 0.31674 0.72186 0.0
H1060 H 0.4756 0.26366 0.64959 0.0
H1061 H 0.45659 0.23583 0.65015 0.0
H1062 H 0.48526 0.237 0.64152 0.0
H1063 H 0.49403 0.21449 0.67373 0.0
H1064 H 0.46523 0.2129 0.68204 0.0
H1065 H 0.48971 0.22542 0.70372 0.0
H1066 H 0.48964 0.31519 0.7331 0.0
H1067 H 0.44902 0.30576 0.7413 0.0
H1068 H 0.43696 0.23953 0.69175 0.0
C1069 C 0.52804 0.2606 0.67494 0.0
C1070 C 0.54838 0.27835 0.68172 0.0
C1071 C 0.54872 0.29854 0.69872 0.0
C1072 C 0.52861 0.30123 0.7089 0.0
C1073 C 0.50855 0.28375 0.70133 0.0
C1074 C 0.50806 0.26374 0.6849 0.0
C1075 C 0.48398 0.24806 0.67935 0.0
C1076 C 0.47483 0.24603 0.65363 0.0
C1077 C 0.48321 0.22379 0.68508 0.0
C1078 C 0.47122 0.26206 0.69592 0.0
C1079 C 0.48571 0.28281 0.70795 0.0
C1080 C 0.47807 0.29904 0.72389 0.0
C1081 C 0.45504 0.29364 0.72825 0.0
C1082 C 0.44019 0.27212 0.71691 0.0
C1083 C 0.44817 0.25616 0.70038 0.0
H1084 H 0.0269 0.82552 0.61563 0.0
H1085 H 0.01062 0.77286 0.55103 0.0
H1086 H 0.0276 0.80263 0.52892 0.0
H1087 H 0.0135 0.87241 0.59157 0.0
H1088 H 0.03686 0.89472 0.60868 0.0
H1089 H 0.02452 0.86909 0.61992 0.0
H1090 H 0.06506 0.86066 0.62513 0.0
H1091 H 0.07741 0.88619 0.61367 0.0
H1092 H 0.08167 0.85793 0.60032 0.0
H1093 H 0.04595 0.8368 0.51368 0.0
H1094 H 0.06134 0.87555 0.50476 0.0
H1095 H 0.06476 0.9076 0.57845 0.0
C1096 C 0.02697 0.82026 0.59683 0.0
C1097 C 0.01752 0.79679 0.58504 0.0
C1098 C 0.01779 0.79065 0.56045 0.0
C1099 C 0.0275 0.80741 0.54774 0.0
C1100 C 0.03683 0.83023 0.55986 0.0
C1101 C 0.03652 0.83685 0.58379 0.0
C1102 C 0.04698 0.86293 0.59213 0.0
C1103 C 0.02941 0.87552 0.60375 0.0
C1104 C 0.06909 0.86717 0.6088 0.0
C1105 C 0.05247 0.86992 0.56894 0.0
C1106 C 0.04696 0.85056 0.55077 0.0
C1107 C 0.05041 0.85214 0.5277 0.0
C1108 C 0.05932 0.87419 0.52285 0.0
C1109 C 0.06442 0.89446 0.54092 0.0
C1110 C 0.06109 0.89231 0.56434 0.0
H1111 H 0.56634 0.8497 0.86523 0.0
H1112 H 0.56402 0.77602 0.84283 0.0
H1113 H 0.5279 0.77097 0.8174 0.0
H1114 H 0.51108 0.84018 0.87492 0.0
H1115 H 0.50474 0.86593 0.86663 0.0
H1116 H 0.53376 0.8662 0.87699 0.0
H1117 H 0.54924 0.87742 0.83903 0.0
H1118 H 0.52047 0.87856 0.82894 0.0
H1119 H 0.53579 0.86037 0.81086 0.0
H1120 H 0.48882 0.77237 0.80122 0.0
H1121 H 0.45112 0.78139 0.79157 0.0
H1122 H 0.47798 0.85341 0.8276 0.0
C1123 C 0.55907 0.83296 0.85359 0.0
C1124 C 0.56818 0.81343 0.85499 0.0
C1125 C 0.55754 0.79127 0.84104 0.0
C1126 C 0.53694 0.78823 0.82686 0.0
C1127 C 0.5273 0.80751 0.82729 0.0
C1128 C 0.53818 0.82955 0.84006 0.0
C1129 C 0.52256 0.84639 0.84098 0.0
C1130 C 0.51776 0.85517 0.86638 0.0
C1131 C 0.53261 0.86689 0.82924 0.0
C1132 C 0.50124 0.83042 0.82679 0.0
C1133 C 0.50426 0.80807 0.81904 0.0
C1134 C 0.4864 0.78992 0.80675 0.0
C1135 C 0.46513 0.79507 0.80154 0.0
C1136 C 0.46217 0.81801 0.80887 0.0
C1137 C 0.48021 0.83579 0.82181 0.0
H1138 H 0.52459 0.20884 0.09595 0.0
H1139 H 0.45337 0.17043 0.09208 0.0
H1140 H 0.46375 0.13457 0.07201 0.0
H1141 H 0.54089 0.17683 0.04097 0.0
H1142 H 0.56894 0.17763 0.05483 0.0
H1143 H 0.55484 0.20095 0.06439 0.0
H1144 H 0.55943 0.19388 0.10684 0.0
H1145 H 0.57256 0.16983 0.09718 0.0
H1146 H 0.5472 0.16534 0.11269 0.0
H1147 H 0.48158 0.10344 0.0571 0.0
H1148 H 0.50566 0.07769 0.04077 0.0
H1149 H 0.5667 0.13473 0.05798 0.0
C1150 C 0.51101 0.1932 0.08946 0.0
C1151 C 0.48808 0.19218 0.09455 0.0
C1152 C 0.4708 0.17134 0.08736 0.0
C1153 C 0.47664 0.15097 0.07644 0.0
C1154 C 0.49976 0.1521 0.0734 0.0
C1155 C 0.51668 0.17262 0.07925 0.0
C1156 C 0.54051 0.16842 0.07607 0.0
C1157 C 0.55196 0.18173 0.05797 0.0
C1158 C 0.55581 0.17474 0.0996 0.0
C1159 C 0.53414 0.14231 0.06691 0.0
C1160 C 0.51055 0.13343 0.06598 0.0
C1161 C 0.50005 0.11007 0.05774 0.0
C1162 C 0.51389 0.09552 0.04884 0.0
C1163 C 0.53785 0.10429 0.04861 0.0
C1164 C 0.5484 0.12776 0.05841 0.0
H1165 H 0.17079 0.34641 0.33822 0.0
H1166 H 0.19053 0.31789 0.39778 0.0
H1167 H 0.21569 0.2978 0.37401 0.0
H1168 H 0.16809 0.2965 0.29499 0.0
H1169 H 0.18028 0.3118 0.27301 0.0
H1170 H 0.16484 0.32579 0.29482 0.0
H1171 H 0.20047 0.36089 0.3077 0.0
H1172 H 0.21572 0.3473 0.28543 0.0
H1173 H 0.22812 0.35534 0.31556 0.0
H1174 H 0.2341 0.27682 0.34327 0.0
H1175 H 0.25258 0.2625 0.30876 0.0
H1176 H 0.22404 0.30682 0.26962 0.0
C1177 C 0.18085 0.33643 0.34643 0.0
C1178 C 0.17856 0.33352 0.36977 0.0
C1179 C 0.1919 0.32022 0.37987 0.0
C1180 C 0.20615 0.30865 0.36652 0.0
C1181 C 0.20708 0.31087 0.34326 0.0
C1182 C 0.19539 0.32491 0.33341 0.0
C1183 C 0.19949 0.32405 0.30789 0.0
C1184 C 0.17682 0.31394 0.29173 0.0
C1185 C 0.21168 0.34834 0.30392 0.0
C1186 C 0.21517 0.30722 0.30504 0.0
C1187 C 0.21885 0.29949 0.32557 0.0
C1188 C 0.23166 0.28293 0.32714 0.0
C1189 C 0.24182 0.2747 0.30735 0.0
C1190 C 0.23953 0.28353 0.2866 0.0
C1191 C 0.22581 0.29975 0.2853 0.0
H1192 H 0.98747 0.01984 0.19183 0.0
H1193 H 0.9725 0.08856 0.20187 0.0
H1194 H 0.99028 0.09478 0.16525 0.0
H1195 H 0.04265 0.03539 0.16768 0.0
H1196 H 0.03831 1.00799 0.14704 0.0
H1197 H 0.02486 0.00914 0.17403 0.0
H1198 H 0.98489 0.99116 0.15053 0.0
H1199 H 0.99822 0.98991 0.12348 0.0
H1200 H 0.97534 1.00507 0.12806 0.0
H1201 H 0.01208 0.09394 0.12664 0.0
H1202 H 0.03132 0.08563 0.09084 0.0
H1203 H 0.03051 0.01595 0.10281 0.0
C1204 C 0.98775 0.0363 0.18646 0.0
C1205 C 0.97815 0.05372 0.20062 0.0
C1206 C 0.97931 0.07475 0.19208 0.0
C1207 C 0.9896 0.07845 0.17103 0.0
C1208 C 0.99883 0.06097 0.15779 0.0
C1209 C 0.99774 0.04015 0.16519 0.0
C1210 C 1.00857 0.02394 0.14761 0.0
C1211 C 0.02985 0.01879 0.15982 0.0
C1212 C 0.99069 1.00116 0.13678 0.0
C1213 C 0.01572 0.03855 0.12883 0.0
C1214 C 0.01027 0.06008 0.1354 0.0
C1215 C 0.01604 0.07699 0.12158 0.0
C1216 C 0.02724 0.07202 0.10095 0.0
C1217 C 0.03279 0.04999 0.09298 0.0
C1218 C 0.02662 0.03296 0.10757 0.0
H1219 H 0.30041 0.63919 0.45574 0.0
H1220 H 0.32439 0.69258 0.51874 0.0
H1221 H 0.31628 0.72267 0.49778 0.0
H1222 H 0.32571 0.6781 0.41507 0.0
H1223 H 0.30223 0.66509 0.39238 0.0
H1224 H 0.31093 0.64779 0.41203 0.0
H1225 H 0.26897 0.63749 0.42292 0.0
H1226 H 0.2603 0.65524 0.40377 0.0
H1227 H 0.25535 0.66075 0.43431 0.0
H1228 H 0.30099 0.74556 0.47257 0.0
H1229 H 0.28778 0.76325 0.44093 0.0
H1230 H 0.27751 0.69683 0.39191 0.0
C1231 C 0.3048 0.65738 0.46469 0.0
C1232 C 0.31356 0.66383 0.48863 0.0
C1233 C 0.31839 0.68757 0.5002 0.0
C1234 C 0.31352 0.70467 0.48855 0.0
C1235 C 0.30436 0.69778 0.46518 0.0
C1236 C 0.30081 0.67494 0.45301 0.0
C1237 C 0.2914 0.67273 0.42768 0.0
C1238 C 0.3086 0.6655 0.41079 0.0
C1239 C 0.26759 0.65553 0.42184 0.0
C1240 C 0.28966 0.69776 0.42787 0.0
C1241 C 0.29683 0.71167 0.44989 0.0
C1242 C 0.2958 0.73506 0.45509 0.0
C1243 C 0.28809 0.74487 0.43707 0.0
C1244 C 0.28179 0.73144 0.41404 0.0
C1245 C 0.28242 0.70749 0.40937 0.0
H1246 H 0.62825 0.06094 0.6786 0.0
H1247 H 0.67328 0.0167 0.65152 0.0
H1248 H 0.65057 1.0072 0.61228 0.0
H1249 H 0.57574 0.02462 0.64778 0.0
H1250 H 0.56416 0.04913 0.64333 0.0
H1251 H 0.58415 0.05205 0.66863 0.0
H1252 H 0.61089 0.08785 0.65686 0.0
H1253 H 0.59106 0.08498 0.63145 0.0
H1254 H 0.62084 0.08475 0.62807 0.0
H1255 H 0.62367 1.0046 0.57612 0.0
H1256 H 0.59241 1.00617 0.54676 0.0
H1257 H 0.56557 0.05104 0.59975 0.0
C1258 C 0.63322 0.04918 0.66435 0.0
C1259 C 0.65225 0.03951 0.66744 0.0
C1260 C 0.65853 0.02409 0.64893 0.0
C1261 C 0.64588 0.01877 0.62682 0.0
C1262 C 0.62723 0.02897 0.62418 0.0
C1263 C 0.62084 0.04364 0.64257 0.0
C1264 C 0.60011 0.05221 0.63568 0.0
C1265 C 0.57985 0.044 0.64968 0.0
C1266 C 0.6061 0.07903 0.63816 0.0
C1267 C 0.5956 0.03995 0.61044 0.0
C1268 C 0.61153 0.02688 0.60392 0.0
C1269 C 0.61103 0.01464 0.58106 0.0
C1270 C 0.59353 0.01571 0.56457 0.0
C1271 C 0.57704 0.0286 0.57141 0.0
C1272 C 0.57802 0.04082 0.59444 0.0
H1273 H 0.31845 0.30116 0.95702 0.0
H1274 H 0.31276 0.37354 0.96744 0.0
H1275 H 0.30932 0.37099 0.92482 0.0
H1276 H 0.35108 0.30008 0.90948 0.0
H1277 H 0.33575 0.27175 0.89291 0.0
H1278 H 0.33617 0.27815 0.92438 0.0
H1279 H 0.29142 0.26772 0.92082 0.0
H1280 H 0.29087 0.26086 0.8893 0.0
H1281 H 0.2758 0.282 0.90291 0.0
H1282 H 0.30984 0.36238 0.88218 0.0
H1283 H 0.30953 0.34645 0.84014 0.0
H1284 H 0.31333 0.27886 0.85558 0.0
C1285 C 0.31601 0.31626 0.95023 0.0
C1286 C 0.3158 0.33752 0.96555 0.0
C1287 C 0.31266 0.35697 0.95608 0.0
C1288 C 0.31085 0.35578 0.93188 0.0
C1289 C 0.31164 0.33483 0.91729 0.0
C1290 C 0.31351 0.31519 0.92591 0.0
C1291 C 0.31344 0.29481 0.90599 0.0
C1292 C 0.33543 0.28567 0.90834 0.0
C1293 C 0.29159 0.27518 0.90468 0.0
C1294 C 0.31275 0.30659 0.88506 0.0
C1295 C 0.31142 0.32961 0.89213 0.0
C1296 C 0.31055 0.34429 0.87634 0.0
C1297 C 0.3104 0.33507 0.85251 0.0
C1298 C 0.31131 0.31143 0.84467 0.0
C1299 C 0.31281 0.29705 0.86118 0.0
H1300 H 0.97127 0.07684 0.36102 0.0
H1301 H 1.00379 0.02761 0.3183 0.0
H1302 H 0.02241 0.02054 0.35316 0.0
H1303 H 0.02388 0.10031 0.40577 0.0
H1304 H 1.0077 0.10391 0.43082 0.0
H1305 H 0.99567 0.10628 0.40247 0.0
H1306 H 0.9596 0.07411 0.40507 0.0
H1307 H 0.97157 0.07165 0.4334 0.0
H1308 H 0.96314 0.04611 0.41009 0.0
H1309 H 0.03684 0.01519 0.39211 0.0
H1310 H 0.04902 0.01555 0.43313 0.0
H1311 H 0.01267 0.0699 0.45595 0.0
C1312 C 0.98243 0.06473 0.35886 0.0
C1313 C 0.98517 0.05281 0.33551 0.0
C1314 C 1.00041 0.03725 0.33484 0.0
C1315 C 0.01144 0.03286 0.355 0.0
C1316 C 1.0082 0.04428 0.37712 0.0
C1317 C 0.9945 0.06031 0.3795 0.0
C1318 C 0.99529 0.07038 0.40619 0.0
C1319 C 1.00627 0.0968 0.41164 0.0
C1320 C 0.97094 0.06527 0.41417 0.0
C1321 C 0.01088 0.05703 0.41792 0.0
C1322 C 0.01788 0.04201 0.4004 0.0
C1323 C 0.0316 0.02712 0.40593 0.0
C1324 C 0.03847 0.02742 0.42966 0.0
C1325 C 0.03228 0.0427 0.44867 0.0
C1326 C 0.01818 0.05796 0.44234 0.0
H1327 H 0.31971 0.66557 0.6235 0.0
H1328 H 0.35216 0.71442 0.58207 0.0
H1329 H 0.35451 0.74741 0.61539 0.0
H1330 H 0.28408 0.69982 0.64844 0.0
H1331 H 0.28558 0.69218 0.67693 0.0
H1332 H 0.28985 0.67205 0.65146 0.0
H1333 H 0.32939 0.67097 0.67125 0.0
H1334 H 0.32537 0.69135 0.69676 0.0
H1335 H 0.35083 0.69797 0.68176 0.0
H1336 H 0.35003 0.77572 0.65243 0.0
H1337 H 0.34031 0.79615 0.69032 0.0
H1338 H 0.30929 0.72874 0.7065 0.0
C1339 C 0.3284 0.68308 0.62193 0.0
C1340 C 0.33668 0.68734 0.60053 0.0
C1341 C 0.34654 0.71071 0.59861 0.0
C1342 C 0.34772 0.72959 0.61738 0.0
C1343 C 0.33873 0.72494 0.638 0.0
C1344 C 0.32943 0.70222 0.64046 0.0
C1345 C 0.31921 0.70214 0.66367 0.0
C1346 C 0.29314 0.69089 0.65989 0.0
C1347 C 0.33199 0.68985 0.67926 0.0
C1348 C 0.32393 0.72823 0.67368 0.0
C1349 C 0.33534 0.74117 0.65876 0.0
C1350 C 0.34125 0.76569 0.66434 0.0
C1351 C 0.33562 0.77719 0.68586 0.0
C1352 C 0.324 0.76418 0.70144 0.0
C1353 C 0.3181 0.73936 0.69504 0.0
H1354 H 0.64921 0.0424 0.80179 0.0
H1355 H 0.67797 0.11601 0.80299 0.0
H1356 H 0.67694 0.12496 0.84582 0.0
H1357 H 0.60908 0.05201 0.83828 0.0
H1358 H 0.60969 0.02768 0.85241 0.0
H1359 H 0.6179 0.02668 0.82323 0.0
H1360 H 0.65737 0.01934 0.83702 0.0
H1361 H 0.64929 0.02083 0.86651 0.0
H1362 H 0.67559 0.03977 0.86109 0.0
H1363 H 0.66427 0.12722 0.88523 0.0
H1364 H 0.63997 0.12218 0.91779 0.0
H1365 H 0.62247 0.04714 0.89204 0.0
C1366 C 0.6559 0.06029 0.81118 0.0
C1367 C 0.66357 0.0785 0.79927 0.0
C1368 C 0.67181 0.1018 0.81192 0.0
C1369 C 0.67163 0.10701 0.83625 0.0
C1370 C 0.6634 0.08868 0.84751 0.0
C1371 C 0.65572 0.06576 0.83536 0.0
C1372 C 0.64398 0.04992 0.85059 0.0
C1373 C 0.61869 0.03844 0.84054 0.0
C1374 C 0.65738 0.03137 0.85401 0.0
C1375 C 0.64546 0.06766 0.87295 0.0
C1376 C 0.65694 0.08994 0.87101 0.0
C1377 C 0.65613 0.10981 0.88751 0.0
C1378 C 0.64235 0.10688 0.90586 0.0
C1379 C 0.63011 0.08425 0.90743 0.0
C1380 C 0.63266 0.06446 0.89161 0.0
H1381 H 0.29713 0.30905 0.08979 0.0
H1382 H 0.35475 0.36946 0.11105 0.0
H1383 H 0.35445 0.36419 0.15203 0.0
H1384 H 0.26744 0.32008 0.14249 0.0
H1385 H 0.25795 0.28959 0.14388 0.0
H1386 H 0.26229 0.29793 0.11597 0.0
H1387 H 0.29037 0.27069 0.10807 0.0
H1388 H 0.2862 0.26233 0.13599 0.0
H1389 H 0.3149 0.27422 0.12908 0.0
H1390 H 0.34853 0.35332 0.18978 0.0
H1391 H 0.33739 0.33729 0.22425 0.0
H1392 H 0.28333 0.28262 0.18071 0.0
C1393 C 0.30954 0.32111 0.10321 0.0
C1394 C 0.32597 0.33976 0.09748 0.0
C1395 C 0.34204 0.3552 0.11527 0.0
C1396 C 0.34201 0.35232 0.13853 0.0
C1397 C 0.32574 0.33386 0.14375 0.0
C1398 C 0.30973 0.31847 0.12678 0.0
C1399 C 0.29423 0.3002 0.13768 0.0
C1400 C 0.26898 0.30207 0.13483 0.0
C1401 C 0.29658 0.27539 0.12707 0.0
C1402 C 0.30428 0.30772 0.16332 0.0
C1403 C 0.32235 0.32729 0.16615 0.0
C1404 C 0.33438 0.33805 0.18787 0.0
C1405 C 0.32777 0.32881 0.20741 0.0
C1406 C 0.30929 0.30881 0.20536 0.0
C1407 C 0.29751 0.29791 0.18287 0.0
H1408 H 0.21676 0.97983 0.04877 0.0
H1409 H 0.23303 0.99427 0.98055 0.0
H1410 H 0.19837 0.01057 0.97781 0.0
H1411 H 0.15526 0.96172 0.03489 0.0
H1412 H 0.14881 0.97474 0.06343 0.0
H1413 H 0.17522 0.96505 0.06039 0.0
H1414 H 0.19888 1.00651 0.08053 0.0
H1415 H 0.17254 0.01634 0.08373 0.0
H1416 H 0.19497 0.03151 0.06888 0.0
H1417 H 0.16107 0.02497 0.98242 0.0
H1418 H 0.12459 0.03523 0.99327 0.0
H1419 H 0.1317 0.01099 0.05837 0.0
C1420 C 0.21318 0.98648 0.03321 0.0
C1421 C 0.22795 0.98567 0.01482 0.0
C1422 C 0.22224 0.99455 0.99486 0.0
C1423 C 0.20251 1.00391 0.99319 0.0
C1424 C 0.18837 1.00431 0.01158 0.0
C1425 C 0.19347 0.99576 0.03121 0.0
C1426 C 0.17523 0.99772 0.04833 0.0
C1427 C 0.1629 0.97336 0.05198 0.0
C1428 C 0.18605 0.01399 0.07176 0.0
C1429 C 0.15889 0.0086 0.03531 0.0
C1430 C 0.16692 0.01237 0.01417 0.0
C1431 C 0.15478 0.02208 0.99894 0.0
C1432 C 0.13402 0.0279 1.00529 0.0
C1433 C 0.12523 0.02411 0.02672 0.0
C1434 C 0.13798 0.01433 0.04197 0.0
H1435 H 0.69663 0.6761 1.00459 0.0
H1436 H 0.74623 0.63268 0.99418 0.0
H1437 H 0.71514 0.59761 0.99459 0.0
H1438 H 0.66541 0.64616 0.04455 0.0
H1439 H 0.63788 0.64977 0.03345 0.0
H1440 H 0.66391 0.67097 0.03145 0.0
H1441 H 0.65342 0.66458 0.98665 0.0
H1442 H 0.62768 0.64273 0.98815 0.0
H1443 H 0.64868 0.63553 0.96886 0.0
H1444 H 0.67823 0.56741 0.99676 0.0
H1445 H 0.63934 0.54487 1.00112 0.0
H1446 H 0.61457 0.60881 0.01062 0.0
C1447 C 0.70105 0.65924 1.00219 0.0
C1448 C 0.7239 0.65716 0.99918 0.0
C1449 C 0.72884 0.63471 0.99638 0.0
C1450 C 0.7113 0.61471 0.99661 0.0
C1451 C 0.68898 0.6175 0.99972 0.0
C1452 C 0.6839 0.63924 1.0025 0.0
C1453 C 0.65878 0.63778 1.00615 0.0
C1454 C 0.65636 0.65201 0.03034 0.0
C1455 C 0.64643 0.64565 0.98626 0.0
C1456 C 0.65035 0.61179 1.00499 0.0
C1457 C 0.66799 0.60033 1.00122 0.0
C1458 C 0.66432 0.57623 0.99967 0.0
C1459 C 0.64211 0.56358 1.00215 0.0
C1460 C 0.6238 0.57503 0.00619 0.0
C1461 C 0.6281 0.59947 0.00751 0.0
H1462 H 0.70188 0.41778 0.23719 0.0
H1463 H 0.73715 0.47008 0.29743 0.0
H1464 H 0.762 0.44325 0.30517 0.0
H1465 H 0.70194 0.36554 0.26069 0.0
H1466 H 0.70762 0.34848 0.23371 0.0
H1467 H 0.69306 0.37179 0.23289 0.0
H1468 H 0.72387 0.3906 0.20846 0.0
H1469 H 0.73848 0.36729 0.20932 0.0
H1470 H 0.75393 0.39737 0.21948 0.0
H1471 H 0.78494 0.40846 0.30582 0.0
H1472 H 0.80075 0.3731 0.30015 0.0
H1473 H 0.75011 0.34113 0.24041 0.0
C1474 C 0.71481 0.42391 0.25214 0.0
C1475 C 0.71686 0.44706 0.26658 0.0
C1476 C 0.73454 0.45322 0.28572 0.0
C1477 C 0.74895 0.43769 0.29031 0.0
C1478 C 0.74627 0.41527 0.27578 0.0
C1479 C 0.72948 0.4085 0.25693 0.0
C1480 C 0.7302 0.38364 0.24361 0.0
C1481 C 0.7068 0.36634 0.24268 0.0
C1482 C 0.73701 0.38478 0.21873 0.0
C1483 C 0.74925 0.37677 0.25821 0.0
C1484 C 0.75864 0.39559 0.27647 0.0
C1485 C 0.77722 0.39392 0.29158 0.0
C1486 C 0.78625 0.37329 0.28821 0.0
C1487 C 0.777 0.35312 0.27013 0.0
C1488 C 0.75786 0.3554 0.25489 0.0
H1489 H 0.88199 0.46408 0.52244 0.0
H1490 H 0.85476 0.52285 0.50954 0.0
H1491 H 0.89505 0.54563 0.50893 0.0
H1492 H 0.93234 0.49457 0.55972 0.0
H1493 H 0.94961 0.47521 0.54694 0.0
H1494 H 0.91896 0.46442 0.54669 0.0
H1495 H 0.91534 0.45078 0.50149 0.0
H1496 H 0.946 0.46156 0.50155 0.0
H1497 H 0.92619 0.47159 0.48361 0.0
H1498 H 0.93936 0.5611 0.50864 0.0
H1499 H 0.98195 0.56807 0.50977 0.0
H1500 H 0.97865 0.49867 0.52365 0.0
C1501 C 0.88419 0.48188 0.51978 0.0
C1502 C 0.86493 0.49175 0.51639 0.0
C1503 C 0.86907 0.51492 0.51238 0.0
C1504 C 0.89193 0.52791 0.51196 0.0
C1505 C 0.91037 0.51738 0.51527 0.0
C1506 C 0.90656 0.49479 0.51903 0.0
C1507 C 0.92883 0.48674 0.52125 0.0
C1508 C 0.93265 0.47984 0.54508 0.0
C1509 C 0.92911 0.46647 0.50076 0.0
C1510 C 0.94622 0.50874 0.51932 0.0
C1511 C 0.9353 0.52611 0.51536 0.0
C1512 C 0.94792 0.54762 0.5119 0.0
C1513 C 0.97211 0.55142 0.51254 0.0
C1514 C 0.98358 0.53402 0.51708 0.0
C1515 C 0.97039 0.51245 0.52059 0.0
H1516 H 0.40611 0.07058 0.25215 0.0
H1517 H 0.38407 0.06692 0.32139 0.0
H1518 H 0.35929 0.09412 0.3168 0.0
H1519 H 0.40765 0.13113 0.25404 0.0
H1520 H 0.396 0.12684 0.2239 0.0
H1521 H 0.41222 0.10711 0.23256 0.0
H1522 H 0.37775 0.07192 0.21562 0.0
H1523 H 0.36137 0.09159 0.20706 0.0
H1524 H 0.34974 0.07185 0.2257 0.0
H1525 H 0.33841 0.12209 0.30596 0.0
H1526 H 0.32135 0.15008 0.28872 0.0
H1527 H 0.35476 0.13464 0.22549 0.0
C1528 C 0.39614 0.07568 0.26634 0.0
C1529 C 0.39696 0.06686 0.28717 0.0
C1530 C 0.38354 0.07352 0.30529 0.0
C1531 C 0.36944 0.08891 0.30286 0.0
C1532 C 0.36876 0.0971 0.28206 0.0
C1533 C 0.38158 0.09072 0.26402 0.0
C1534 C 0.37721 0.10193 0.2434 0.0
C1535 C 0.39961 0.11769 0.23818 0.0
C1536 C 0.36584 0.0832 0.22165 0.0
C1537 C 0.3605 0.11614 0.25305 0.0
C1538 C 0.35586 0.11291 0.27535 0.0
C1539 C 0.34167 0.12467 0.28844 0.0
C1540 C 0.33211 0.14046 0.27858 0.0
C1541 C 0.33674 0.14417 0.2559 0.0
C1542 C 0.35083 0.13171 0.24278 0.0
H1543 H 0.35838 0.18133 0.52043 0.0
H1544 H 0.30946 0.11776 0.48403 0.0
H1545 H 0.33499 0.09416 0.49645 0.0
H1546 H 0.4092 0.16285 0.50465 0.0
H1547 H 0.42606 0.17609 0.53243 0.0
H1548 H 0.40321 0.18844 0.5226 0.0
H1549 H 0.38477 0.1848 0.56128 0.0
H1550 H 0.40747 0.17211 0.57099 0.0
H1551 H 0.37773 0.15667 0.56965 0.0
H1552 H 0.36409 0.07722 0.51238 0.0
H1553 H 0.39987 0.06716 0.52534 0.0
H1554 H 0.43273 0.14093 0.54897 0.0
C1555 C 0.35309 0.16243 0.51513 0.0
C1556 C 0.33184 0.15131 0.50134 0.0
C1557 C 0.32561 0.12663 0.49454 0.0
C1558 C 0.33987 0.11305 0.50171 0.0
C1559 C 0.36042 0.12442 0.51551 0.0
C1560 C 0.36739 0.14851 0.52187 0.0
C1561 C 0.39129 0.15599 0.53537 0.0
C1562 C 0.40845 0.17176 0.523 0.0
C1563 C 0.39024 0.16811 0.56083 0.0
C1564 C 0.39691 0.13227 0.53448 0.0
C1565 C 0.37834 0.11442 0.52376 0.0
C1566 C 0.3788 0.09094 0.5208 0.0
C1567 C 0.3991 0.08541 0.5283 0.0
C1568 C 0.41876 0.10329 0.53818 0.0
C1569 C 0.41772 0.12705 0.5416 0.0
H1570 H 0.71453 0.60055 0.24368 0.0
H1571 H 0.72879 0.60034 0.31725 0.0
H1572 H 0.75122 0.64152 0.32361 0.0
H1573 H 0.77319 0.63945 0.23903 0.0
H1574 H 0.76144 0.65381 0.2182 0.0
H1575 H 0.74814 0.62381 0.21908 0.0
H1576 H 0.70916 0.635 0.22469 0.0
H1577 H 0.72232 0.66505 0.22411 0.0
H1578 H 0.70729 0.65803 0.24879 0.0
H1579 H 0.77156 0.6848 0.32245 0.0
H1580 H 0.78775 0.72386 0.31388 0.0
H1581 H 0.76039 0.69816 0.24102 0.0
C1582 C 0.72315 0.60881 0.26098 0.0
C1583 C 0.72047 0.5961 0.27976 0.0
C1584 C 0.73121 0.60864 0.30225 0.0
C1585 C 0.74385 0.63242 0.30609 0.0
C1586 C 0.74606 0.6443 0.28734 0.0
C1587 C 0.73625 0.63272 0.26507 0.0
C1588 C 0.74119 0.64968 0.24797 0.0
C1589 C 0.75691 0.64118 0.22999 0.0
C1590 C 0.71864 0.65208 0.23567 0.0
C1591 C 0.75405 0.67293 0.26418 0.0
C1592 C 0.7571 0.66918 0.28679 0.0
C1593 C 0.76915 0.68762 0.30474 0.0
C1594 C 0.77841 0.71002 0.29967 0.0
C1595 C 0.77551 0.71486 0.27681 0.0
C1596 C 0.76287 0.69567 0.25884 0.0
H1597 H 0.90535 0.45277 0.81673 0.0
H1598 H 0.88801 0.4654 0.7478 0.0
H1599 H 0.84988 0.4374 0.74512 0.0
H1600 H 0.88283 0.39402 0.80699 0.0
H1601 H 0.87237 0.39419 0.83544 0.0
H1602 H 0.89627 0.41687 0.83176 0.0
H1603 H 0.87386 0.44789 0.84865 0.0
H1604 H 0.84944 0.42503 0.85153 0.0
H1605 H 0.84574 0.44682 0.83486 0.0
H1606 H 0.81702 0.40492 0.74829 0.0
H1607 H 0.79482 0.36687 0.7541 0.0
H1608 H 0.83266 0.37772 0.82237 0.0
C1609 C 0.89346 0.4495 0.80106 0.0
C1610 C 0.89935 0.46049 0.78224 0.0
C1611 C 0.88353 0.45662 0.76218 0.0
C1612 C 0.86186 0.44116 0.76074 0.0
C1613 C 0.85634 0.4308 0.77996 0.0
C1614 C 0.87175 0.43483 0.79969 0.0
C1615 C 0.86268 0.4203 0.81718 0.0
C1616 C 0.87952 0.40546 0.82314 0.0
C1617 C 0.85763 0.43594 0.83937 0.0
C1618 C 0.84063 0.40557 0.80324 0.0
C1619 C 0.83678 0.41261 0.78222 0.0
C1620 C 0.81941 0.39966 0.7649 0.0
C1621 C 0.80683 0.37815 0.7684 0.0
C1622 C 0.81213 0.36982 0.7888 0.0
C1623 C 0.82793 0.38429 0.80709 0.0
H1624 H 0.11537 0.83398 0.07449 0.0
H1625 H 0.07544 0.83151 0.13445 0.0
H1626 H 0.05829 0.86292 0.12425 0.0
H1627 H 0.1244 0.89712 0.07517 0.0
H1628 H 0.12102 0.89197 0.04356 0.0
H1629 H 0.13285 0.87245 0.05825 0.0
H1630 H 0.10134 0.83734 0.03467 0.0
H1631 H 0.089 0.8567 0.02034 0.0
H1632 H 0.07134 0.83763 0.03632 0.0
H1633 H 0.04263 0.89093 0.10517 0.0
H1634 H 0.03079 0.91592 0.07949 0.0
H1635 H 0.07928 0.8976 0.0309 0.0
C1636 C 0.1035 0.84043 0.08592 0.0
C1637 C 0.09669 0.8304 0.10523 0.0
C1638 C 0.081 0.83917 0.11965 0.0
C1639 C 0.07112 0.85688 0.11395 0.0
C1640 C 0.0773 0.86544 0.09396 0.0
C1641 C 0.0933 0.85768 0.08032 0.0
C1642 C 0.09547 0.868 0.05858 0.0
C1643 C 0.11988 0.88331 0.05892 0.0
C1644 C 0.08889 0.84877 0.03617 0.0
C1645 C 0.07779 0.88253 0.06183 0.0
C1646 C 0.06767 0.88096 0.08245 0.0
C1647 C 0.0505 0.89247 0.08909 0.0
C1648 C 0.04381 0.90638 0.07442 0.0
C1649 C 0.05407 0.9082 0.0534 0.0
C1650 C 0.07111 0.89608 0.04686 0.0
H1651 H 0.9559 0.28423 0.84977 0.0
H1652 H 0.95546 0.3477 0.8997 0.0
H1653 H 0.92121 0.35219 0.8769 0.0
H1654 H 0.9348 0.30211 0.79624 0.0
H1655 H 0.91725 0.27311 0.78455 0.0
H1656 H 0.94357 0.27683 0.80305 0.0
H1657 H 0.92019 0.25279 0.83028 0.0
H1658 H 0.89373 0.24986 0.81231 0.0
H1659 H 0.89635 0.2625 0.84318 0.0
H1660 H 0.88465 0.34689 0.85288 0.0
H1661 H 0.85022 0.33557 0.82376 0.0
H1662 H 0.87481 0.27643 0.78861 0.0
C1663 C 0.94901 0.29946 0.85536 0.0
C1664 C 0.95809 0.31568 0.87632 0.0
C1665 C 0.94849 0.33512 0.88363 0.0
C1666 C 0.92911 0.33779 0.87088 0.0
C1667 C 0.91973 0.32083 0.85099 0.0
C1668 C 0.92951 0.30227 0.84293 0.0
C1669 C 0.91501 0.28576 0.82187 0.0
C1670 C 0.92847 0.28439 0.80014 0.0
C1671 C 0.90578 0.26129 0.82725 0.0
C1672 C 0.89578 0.29814 0.81936 0.0
C1673 C 0.89864 0.31806 0.83662 0.0
C1674 C 0.88235 0.3316 0.83896 0.0
C1675 C 0.86289 0.325 0.82261 0.0
C1676 C 0.86044 0.30543 0.80421 0.0
C1677 C 0.8768 0.29167 0.80257 0.0
H1678 H 0.56945 0.19653 0.62023 0.0
H1679 H 0.55102 0.22411 0.56016 0.0
H1680 H 0.54143 0.18457 0.53572 0.0
H1681 H 0.60103 0.16798 0.59867 0.0
H1682 H 0.59446 0.14092 0.60914 0.0
H1683 H 0.58786 0.16664 0.62567 0.0
H1684 H 0.54461 0.14631 0.62396 0.0
H1685 H 0.55131 0.11967 0.60911 0.0
H1686 H 0.52893 0.13078 0.59618 0.0
H1687 H 0.551 0.14942 0.51582 0.0
H1688 H 0.56359 0.11279 0.50288 0.0
H1689 H 0.57738 0.10788 0.57535 0.0
C1690 C 0.56135 0.19366 0.60248 0.0
C1691 C 0.5607 0.21275 0.59179 0.0
C1692 C 0.55114 0.20928 0.56841 0.0
C1693 C 0.54583 0.18692 0.55442 0.0
C1694 C 0.55006 0.16866 0.56446 0.0
C1695 C 0.55632 0.17136 0.58833 0.0
C1696 C 0.56419 0.1503 0.59375 0.0
C1697 C 0.58831 0.1569 0.6076 0.0
C1698 C 0.54618 0.13591 0.60649 0.0
C1699 C 0.5647 0.13741 0.56918 0.0
C1700 C 0.556 0.14792 0.55258 0.0
C1701 C 0.55693 0.14043 0.52864 0.0
C1702 C 0.56491 0.12026 0.52147 0.0
C1703 C 0.57167 0.10822 0.53832 0.0
C1704 C 0.57264 0.11736 0.56236 0.0
H1705 H 0.58358 0.78095 0.3633 0.0
H1706 H 0.57604 0.85223 0.36739 0.0
H1707 H 0.6173 0.86512 0.36264 0.0
H1708 H 0.64224 0.79541 0.39294 0.0
H1709 H 0.65082 0.77238 0.37342 0.0
H1710 H 0.62116 0.7689 0.37971 0.0
H1711 H 0.60739 0.76121 0.33521 0.0
H1712 H 0.63685 0.76371 0.32893 0.0
H1713 H 0.62012 0.78195 0.31797 0.0
H1714 H 0.65833 0.87012 0.35553 0.0
H1715 H 0.69423 0.86519 0.33836 0.0
H1716 H 0.67485 0.79076 0.33808 0.0
C1717 C 0.59067 0.79928 0.3633 0.0
C1718 C 0.57673 0.8156 0.36588 0.0
C1719 C 0.58645 0.83938 0.36539 0.0
C1720 C 0.60993 0.84697 0.36308 0.0
C1721 C 0.62336 0.83056 0.36119 0.0
C1722 C 0.61401 0.80713 0.36073 0.0
C1723 C 0.63156 0.79262 0.35568 0.0
C1724 C 0.63675 0.78168 0.3767 0.0
C1725 C 0.6235 0.77378 0.33311 0.0
C1726 C 0.65198 0.81145 0.35252 0.0
C1727 C 0.64711 0.83334 0.35651 0.0
C1728 C 0.66249 0.85314 0.35258 0.0
C1729 C 0.68279 0.85021 0.34287 0.0
C1730 C 0.68714 0.82763 0.33697 0.0
C1731 C 0.67217 0.8083 0.343 0.0
H1732 H 0.06592 0.26834 0.44863 0.0
H1733 H 0.13989 0.27475 0.45068 0.0
H1734 H 0.13455 0.23539 0.46071 0.0
H1735 H 0.05492 0.24258 0.49553 0.0
H1736 H 0.02806 0.22262 0.48258 0.0
H1737 H 0.03749 0.24968 0.47281 0.0
H1738 H 0.03482 0.22682 0.43 0.0
H1739 H 0.02526 0.1996 0.43969 0.0
H1740 H 0.05014 0.20393 0.42347 0.0
H1741 H 0.12168 0.19839 0.4744 0.0
H1742 H 0.10262 0.16552 0.49165 0.0
H1743 H 0.03657 0.18294 0.47992 0.0
C1744 C 0.08102 0.26143 0.45118 0.0
C1745 C 0.1034 0.27451 0.44946 0.0
C1746 C 0.12269 0.26487 0.45221 0.0
C1747 C 0.11977 0.24259 0.45769 0.0
C1748 C 0.09741 0.23025 0.45955 0.0
C1749 C 0.07834 0.2392 0.45611 0.0
C1750 C 0.05631 0.22292 0.46013 0.0
C1751 C 0.04347 0.23519 0.47889 0.0
C1752 C 0.04071 0.21271 0.43695 0.0
C1753 C 0.06624 0.20435 0.46855 0.0
C1754 C 0.08986 0.20855 0.46724 0.0
C1755 C 0.10318 0.19461 0.47508 0.0
C1756 C 0.09218 0.17602 0.48483 0.0
C1757 C 0.06815 0.17171 0.48686 0.0
C1758 C 0.05494 0.18589 0.47841 0.0
H1759 H 0.56463 0.22538 0.17874 0.0
H1760 H 0.56224 0.29823 0.18425 0.0
H1761 H 0.60386 0.31046 0.19864 0.0
H1762 H 0.59986 0.23139 0.22911 0.0
H1763 H 0.61563 0.21029 0.21687 0.0
H1764 H 0.58657 0.2078 0.20493 0.0
H1765 H 0.60045 0.20844 0.1636 0.0
H1766 H 0.6297 0.21108 0.17544 0.0
H1767 H 0.62311 0.23241 0.15951 0.0
H1768 H 0.64464 0.31432 0.21603 0.0
H1769 H 0.68079 0.30923 0.23557 0.0
H1770 H 0.65532 0.23386 0.217 0.0
C1771 C 0.57287 0.24391 0.18295 0.0
C1772 C 0.56042 0.26093 0.18082 0.0
C1773 C 0.57171 0.285 0.18599 0.0
C1774 C 0.59526 0.29206 0.19397 0.0
C1775 C 0.60707 0.27473 0.19604 0.0
C1776 C 0.59623 0.25116 0.19045 0.0
C1777 C 0.61224 0.23592 0.1951 0.0
C1778 C 0.60302 0.22047 0.21255 0.0
C1779 C 0.61664 0.22109 0.17204 0.0
C1780 C 0.63339 0.25461 0.20569 0.0
C1781 C 0.6304 0.27692 0.20562 0.0
C1782 C 0.64731 0.29695 0.2159 0.0
C1783 C 0.66762 0.29397 0.22694 0.0
C1784 C 0.6703 0.2712 0.22777 0.0
C1785 C 0.65333 0.2514 0.21659 0.0
H1786 H 0.62074 0.91383 0.93011 0.0
H1787 H 0.60935 0.87342 0.98461 0.0
H1788 H 0.59616 0.90528 0.00909 0.0
H1789 H 0.63686 0.97508 0.97317 0.0
H1790 H 0.6227 0.98715 0.95189 0.0
H1791 H 0.6377 0.96453 0.94226 0.0
H1792 H 0.60011 0.94026 0.91679 0.0
H1793 H 0.58456 0.96196 0.92738 0.0
H1794 H 0.57417 0.93216 0.93078 0.0
H1795 H 0.57496 0.93544 0.02211 0.0
H1796 H 0.55589 0.96849 0.02835 0.0
H1797 H 0.58154 0.98899 0.96509 0.0
C1798 C 0.61717 0.91265 0.94793 0.0
C1799 C 0.61645 0.89183 0.95599 0.0
C1800 C 0.61058 0.88983 0.97876 0.0
C1801 C 0.60284 0.90765 0.9926 0.0
C1802 C 0.60181 0.92732 0.98341 0.0
C1803 C 0.60976 0.93046 0.96206 0.0
C1804 C 0.60442 0.95199 0.95512 0.0
C1805 C 0.62675 0.9708 0.95565 0.0
C1806 C 0.58995 0.94621 0.93111 0.0
C1807 C 0.59063 0.95914 0.97481 0.0
C1808 C 0.5895 0.94491 0.99108 0.0
C1809 C 0.57639 0.9473 0.00999 0.0
C1810 C 0.56539 0.96584 0.01319 0.0
C1811 C 0.56761 0.98139 0.99738 0.0
C1812 C 0.57976 0.97751 0.97762 0.0
H1813 H 0.92664 0.7835 0.66433 0.0
H1814 H 0.94884 0.72673 0.68908 0.0
H1815 H 0.9297 0.73426 0.72479 0.0
H1816 H 0.93026 0.82274 0.71956 0.0
H1817 H 0.90352 0.83089 0.71339 0.0
H1818 H 0.91992 0.8222 0.68971 0.0
H1819 H 0.88454 0.78959 0.66897 0.0
H1820 H 0.86785 0.79891 0.69206 0.0
H1821 H 0.86995 0.76881 0.68524 0.0
H1822 H 0.90748 0.74594 0.75641 0.0
H1823 H 0.87698 0.75736 0.77963 0.0
H1824 H 0.86925 0.80693 0.7358 0.0
C1825 C 0.92741 0.77281 0.67737 0.0
C1826 C 0.93923 0.75475 0.6742 0.0
C1827 C 0.93974 0.74068 0.69127 0.0
C1828 C 0.92918 0.74494 0.71173 0.0
C1829 C 0.91807 0.76319 0.71471 0.0
C1830 C 0.91647 0.77648 0.69782 0.0
C1831 C 0.90122 0.79322 0.70447 0.0
C1832 C 0.91454 0.81879 0.70694 0.0
C1833 C 0.87962 0.78728 0.68664 0.0
C1834 C 0.89517 0.78763 0.72799 0.0
C1835 C 0.90518 0.77028 0.73354 0.0
C1836 C 0.89995 0.75999 0.75278 0.0
C1837 C 0.88295 0.76674 0.76605 0.0
C1838 C 0.87189 0.78367 0.75996 0.0
C1839 C 0.87865 0.79495 0.74143 0.0
H1840 H 0.11637 0.99739 0.84164 0.0
H1841 H 0.16285 0.06612 0.853 0.0
H1842 H 0.14946 0.07617 0.89193 0.0
H1843 H 0.06932 0.01415 0.87082 0.0
H1844 H 0.06215 0.98968 0.88532 0.0
H1845 H 0.07578 0.98658 0.85846 0.0
H1846 H 0.10853 0.97324 0.87892 0.0
H1847 H 0.09488 0.97611 0.90579 0.0
H1848 H 0.12442 0.99145 0.90555 0.0
H1849 H 0.12936 0.08085 0.92932 0.0
H1850 H 0.10737 0.07866 0.96338 0.0
H1851 H 0.07333 1.0064 0.93263 0.0
C1852 C 0.12436 0.01428 0.85261 0.0
C1853 C 0.1417 0.03065 0.84371 0.0
C1854 C 0.15041 0.05281 0.85894 0.0
C1855 C 0.14261 0.05885 0.8813 0.0
C1856 C 0.12569 0.04269 0.88935 0.0
C1857 C 0.1169 0.0206 0.87573 0.0
C1858 C 0.09894 1.00674 0.88938 0.0
C1859 C 0.07513 0.99881 0.87513 0.0
C1860 C 0.10717 0.98562 0.89525 0.0
C1861 C 0.09848 0.02472 0.91218 0.0
C1862 C 0.11425 0.04529 0.9115 0.0
C1863 C 0.11718 0.06467 0.92994 0.0
C1864 C 0.1043 0.0632 0.94954 0.0
C1865 C 0.08802 0.04247 0.95169 0.0
C1866 C 0.08523 0.02281 0.93219 0.0
H1867 H 0.8081 0.43776 0.57998 0.0
H1868 H 0.77168 0.37394 0.53187 0.0
H1869 H 0.77971 0.3507 0.56063 0.0
H1870 H 0.85243 0.41571 0.60177 0.0
H1871 H 0.85421 0.43003 0.63209 0.0
H1872 H 0.84388 0.44306 0.60929 0.0
H1873 H 0.80585 0.44385 0.62834 0.0
H1874 H 0.81658 0.43169 0.65164 0.0
H1875 H 0.78908 0.4173 0.63517 0.0
H1876 H 0.79724 0.3341 0.58918 0.0
H1877 H 0.81259 0.32348 0.62439 0.0
H1878 H 0.83477 0.39706 0.658 0.0
C1879 C 0.80088 0.41902 0.57611 0.0
C1880 C 0.78914 0.40749 0.55383 0.0
C1881 C 0.78054 0.38294 0.54892 0.0
C1882 C 0.78525 0.36961 0.565 0.0
C1883 C 0.79824 0.38119 0.58602 0.0
C1884 C 0.80518 0.4053 0.59227 0.0
C1885 C 0.81903 0.41274 0.61632 0.0
C1886 C 0.84386 0.42618 0.61475 0.0
C1887 C 0.80689 0.42725 0.63391 0.0
C1888 C 0.81868 0.38891 0.62223 0.0
C1889 C 0.80725 0.37118 0.60395 0.0
C1890 C 0.80575 0.3477 0.60394 0.0
C1891 C 0.81486 0.34189 0.62389 0.0
C1892 C 0.82485 0.35946 0.64377 0.0
C1893 C 0.82726 0.38338 0.6429 0.0
H1894 H 0.48652 0.05712 0.36031 0.0
H1895 H 0.43542 0.99444 0.36351 0.0
H1896 H 0.44657 1.0002 0.4061 0.0
H1897 H 0.52766 0.04371 0.38889 0.0
H1898 H 0.54256 0.07249 0.40473 0.0
H1899 H 0.52513 0.06944 0.3778 0.0
H1900 H 0.5009 0.0967 0.39871 0.0
H1901 H 0.51871 0.10026 0.42581 0.0
H1902 H 0.48781 0.09028 0.42461 0.0
H1903 H 0.46919 1.00665 0.44408 0.0
H1904 H 0.50209 0.01232 0.47395 0.0
H1905 H 0.54042 0.06908 0.44496 0.0
C1906 C 0.47684 0.04559 0.3705 0.0
C1907 C 0.4598 0.0259 0.35943 0.0
C1908 C 0.44807 0.01005 0.37234 0.0
C1909 C 0.45426 0.01326 0.39642 0.0
C1910 C 0.47219 0.03231 0.40689 0.0
C1911 C 0.48324 0.04835 0.39432 0.0
C1912 C 0.50523 0.06384 0.40774 0.0
C1913 C 0.52636 0.06223 0.39397 0.0
C1914 C 0.50302 0.08928 0.41464 0.0
C1915 C 0.50588 0.05281 0.42891 0.0
C1916 C 0.48624 0.03534 0.42864 0.0
C1917 C 0.48426 0.0208 0.44494 0.0
C1918 C 0.50298 0.02404 0.46171 0.0
C1919 C 0.5233 0.04129 0.46152 0.0
C1920 C 0.5247 0.05606 0.44535 0.0
H1921 H 0.80734 0.72177 0.08385 0.0
H1922 H 0.7888 0.7845 0.06935 0.0
H1923 H 0.79541 0.80214 0.11144 0.0
H1924 H 0.77897 0.71981 0.1345 0.0
H1925 H 0.80018 0.71003 0.15093 0.0
H1926 H 0.79737 0.7031 0.11935 0.0
H1927 H 0.84071 0.72248 0.11941 0.0
H1928 H 0.84368 0.72941 0.15106 0.0
H1929 H 0.85196 0.75233 0.13479 0.0
H1930 H 0.7991 0.81145 0.15425 0.0
H1931 H 0.80076 0.81252 0.19673 0.0
H1932 H 0.81765 0.74456 0.18582 0.0
C1933 C 0.80541 0.73949 0.08954 0.0
C1934 C 0.79777 0.75188 0.07323 0.0
C1935 C 0.79472 0.77473 0.08144 0.0
C1936 C 0.79849 0.78494 0.10534 0.0
C1937 C 0.80535 0.77216 0.12102 0.0
C1938 C 0.80896 0.75001 0.11361 0.0
C1939 C 0.81459 0.73961 0.13465 0.0
C1940 C 0.79671 0.71679 0.13486 0.0
C1941 C 0.8392 0.73572 0.13499 0.0
C1942 C 0.81282 0.7591 0.15487 0.0
C1943 C 0.80768 0.77773 0.14639 0.0
C1944 C 0.80355 0.79719 0.16116 0.0
C1945 C 0.80447 0.7976 0.18525 0.0
C1946 C 0.8096 0.7788 0.19451 0.0
C1947 C 0.81422 0.7594 0.17918 0.0
H1948 H 0.12839 0.05579 0.70738 0.0
H1949 H 0.14201 0.98655 0.69151 0.0
H1950 H 0.12512 0.98196 0.65036 0.0
H1951 H 0.07445 0.04416 0.671 0.0
H1952 H 0.0805 0.07179 0.66155 0.0
H1953 H 0.09342 0.06955 0.68951 0.0
H1954 H 0.13397 0.08545 0.67759 0.0
H1955 H 0.12117 0.08788 0.64963 0.0
H1956 H 0.14276 0.07112 0.6508 0.0
H1957 H 0.1056 0.98495 0.60964 0.0
H1958 H 0.08829 0.99507 0.57478 0.0
H1959 H 0.08729 0.0633 0.61549 0.0
C1960 C 0.1279 0.03952 0.69536 0.0
C1961 C 0.1368 0.02143 0.70351 0.0
C1962 C 0.1357 1.00079 0.68646 0.0
C1963 C 0.12593 0.99804 0.66281 0.0
C1964 C 0.11733 0.01614 0.65563 0.0
C1965 C 0.11851 0.03665 0.6715 0.0
C1966 C 0.10878 0.05383 0.65921 0.0
C1967 C 0.08805 0.06021 0.67103 0.0
C1968 C 0.12779 0.07589 0.65932 0.0
C1969 C 0.10128 0.03972 0.63401 0.0
C1970 C 0.10654 0.01802 0.63242 0.0
C1971 C 0.10164 1.00196 0.61102 0.0
C1972 C 0.09166 1.00802 0.591 0.0
C1973 C 0.08603 0.03012 0.59151 0.0
C1974 C 0.09091 0.04613 0.61386 0.0
H1975 H 0.79583 0.41943 0.41294 0.0
H1976 H 0.78763 0.37547 0.46465 0.0
H1977 H 0.79019 0.34137 0.43444 0.0
H1978 H 0.76224 0.37131 0.36273 0.0
H1979 H 0.78062 0.38242 0.3419 0.0
H1980 H 0.77479 0.40229 0.36686 0.0
H1981 H 0.81881 0.41789 0.3787 0.0
H1982 H 0.82475 0.39787 0.35405 0.0
H1983 H 0.83617 0.3976 0.38331 0.0
H1984 H 0.79773 0.31287 0.39906 0.0
H1985 H 0.80663 0.29209 0.36094 0.0
H1986 H 0.81036 0.35501 0.33282 0.0
C1987 C 0.79336 0.40235 0.41753 0.0
C1988 C 0.79058 0.39984 0.44088 0.0
C1989 C 0.78871 0.37748 0.44661 0.0
C1990 C 0.79046 0.35809 0.42962 0.0
C1991 C 0.79381 0.36124 0.40684 0.0
C1992 C 0.79466 0.38269 0.40064 0.0
C1993 C 0.79915 0.38161 0.37517 0.0
C1994 C 0.77795 0.38459 0.36081 0.0
C1995 C 0.82103 0.39982 0.37268 0.0
C1996 C 0.8023 0.35682 0.36851 0.0
C1997 C 0.79865 0.34511 0.3868 0.0
C1998 C 0.80042 0.32186 0.38456 0.0
C1999 C 0.80559 0.31021 0.36293 0.0
C2000 C 0.80947 0.32198 0.34403 0.0
C2001 C 0.80789 0.34563 0.34705 0.0
H2002 H 0.47602 0.98148 0.22855 0.0
H2003 H 0.46189 0.0499 0.24961 0.0
H2004 H 0.44718 0.04856 0.20909 0.0
H2005 H 0.5032 0.99008 0.18779 0.0
H2006 H 0.49301 0.96324 0.16627 0.0
H2007 H 0.48994 0.96309 0.19644 0.0
H2008 H 0.4459 0.94638 0.1868 0.0
H2009 H 0.44893 0.9464 0.15616 0.0
H2010 H 0.42894 0.9612 0.17094 0.0
H2011 H 0.45165 0.04894 0.16915 0.0
H2012 H 0.47578 0.05177 0.13705 0.0
H2013 H 0.48514 0.98189 0.13682 0.0
C2014 C 0.46889 0.99568 0.22461 0.0
C2015 C 0.47032 0.01592 0.24188 0.0
C2016 C 0.46086 0.03421 0.2365 0.0
C2017 C 0.45223 0.03342 0.21351 0.0
C2018 C 0.45306 0.01415 0.19619 0.0
C2019 C 0.46056 0.99515 0.20161 0.0
C2020 C 0.4654 0.97956 0.17984 0.0
C2021 C 0.4893 0.97375 0.18278 0.0
C2022 C 0.44613 0.95706 0.17303 0.0
C2023 C 0.4643 0.99527 0.16239 0.0
C2024 C 0.45539 0.01423 0.17164 0.0
C2025 C 0.45781 0.03383 0.16135 0.0
C2026 C 0.47168 0.03533 0.14296 0.0
C2027 C 0.48273 0.01715 0.1349 0.0
C2028 C 0.47707 0.99608 0.14312 0.0
H2029 H 0.79915 0.7139 0.92371 0.0
H2030 H 0.78718 0.77926 0.96152 0.0
H2031 H 0.79383 0.79668 0.92679 0.0
H2032 H 0.84381 0.74146 0.88798 0.0
H2033 H 0.83353 0.71914 0.86194 0.0
H2034 H 0.83056 0.71196 0.89054 0.0
H2035 H 0.78655 0.69596 0.87946 0.0
H2036 H 0.78938 0.70317 0.85091 0.0
H2037 H 0.7697 0.71462 0.86951 0.0
H2038 H 0.79902 0.80677 0.88891 0.0
H2039 H 0.80161 0.80955 0.84799 0.0
H2040 H 0.80908 0.73763 0.83113 0.0
C2041 C 0.7985 0.73203 0.92472 0.0
C2042 C 0.79284 0.74534 0.94546 0.0
C2043 C 0.79155 0.76879 0.94593 0.0
C2044 C 0.79536 0.77888 0.92629 0.0
C2045 C 0.80037 0.76532 0.90605 0.0
C2046 C 0.80199 0.74244 0.90489 0.0
C2047 C 0.80618 0.73171 0.88009 0.0
C2048 C 0.82993 0.7257 0.88014 0.0
C2049 C 0.78679 0.71008 0.86936 0.0
C2050 C 0.80575 0.75192 0.86751 0.0
C2051 C 0.80283 0.77114 0.88321 0.0
C2052 C 0.80144 0.79191 0.87641 0.0
C2053 C 0.80289 0.79321 0.85289 0.0
C2054 C 0.80548 0.77379 0.83596 0.0
C2055 C 0.80715 0.75282 0.84351 0.0
H2056 H 0.88324 0.05803 0.01525 0.0
H2057 H 0.90311 0.13395 0.03372 0.0
H2058 H 0.94397 0.13257 0.03051 0.0
H2059 H 0.93241 0.04771 0.04725 0.0
H2060 H 0.93489 0.02285 0.02559 0.0
H2061 H 0.90721 0.02982 0.02877 0.0
H2062 H 0.90285 0.03156 0.9848 0.0
H2063 H 0.93055 0.02465 0.98145 0.0
H2064 H 0.92503 0.05069 0.97308 0.0
H2065 H 0.98331 0.12298 0.02502 0.0
H2066 H 0.01741 0.10636 0.02003 0.0
H2067 H 0.97307 0.0362 1.00596 0.0
C2068 C 0.89612 0.07444 0.0186 0.0
C2069 C 0.88953 0.0962 0.02472 0.0
C2070 C 0.90731 0.11706 0.02899 0.0
C2071 C 0.93071 0.11644 0.02716 0.0
C2072 C 0.9365 0.09479 0.02104 0.0
C2073 C 0.91969 0.07413 0.01693 0.0
C2074 C 0.93063 0.05316 0.01106 0.0
C2075 C 0.92602 0.03746 0.02926 0.0
C2076 C 0.92173 0.03919 0.98612 0.0
C2077 C 0.95626 0.06519 0.01264 0.0
C2078 C 0.95916 0.08924 0.01824 0.0
C2079 C 0.98111 0.10417 0.02064 0.0
C2080 C 1.00053 0.09445 0.01764 0.0
C2081 C 0.99838 0.06983 0.01235 0.0
C2082 C 0.97565 0.05508 0.00971 0.0
H2083 H 0.40967 0.4012 0.01679 0.0
H2084 H 0.3735 0.44536 0.06068 0.0
H2085 H 0.4059 0.47967 0.06169 0.0
H2086 H 0.46597 0.42675 0.04326 0.0
H2087 H 0.47933 0.42471 0.01622 0.0
H2088 H 0.45292 0.40406 0.01823 0.0
H2089 H 0.43341 0.41515 0.98236 0.0
H2090 H 0.45981 0.43582 0.98017 0.0
H2091 H 0.43329 0.44539 0.98284 0.0
H2092 H 0.44383 0.50852 0.06008 0.0
H2093 H 0.48289 0.52979 0.05435 0.0
H2094 H 0.49314 0.4667 0.01011 0.0
C2095 C 0.40854 0.41808 0.02665 0.0
C2096 C 0.3892 0.42056 0.03894 0.0
C2097 C 0.3882 0.44304 0.05123 0.0
C2098 C 0.4065 0.46261 0.05188 0.0
C2099 C 0.42545 0.45946 0.03977 0.0
C2100 C 0.42639 0.43779 0.02712 0.0
C2101 C 0.44855 0.43901 0.0155 0.0
C2102 C 0.46251 0.42266 0.02381 0.0
C2103 C 0.44346 0.43352 0.98862 0.0
C2104 C 0.46049 0.4645 0.02448 0.0
C2105 C 0.44683 0.4761 0.03828 0.0
C2106 C 0.45458 0.49962 0.04916 0.0
C2107 C 0.47686 0.51152 0.0459 0.0
C2108 C 0.49117 0.49991 0.03187 0.0
C2109 C 0.48267 0.47612 0.02091 0.0
H2110 H 0.36249 0.61999 0.74957 0.0
H2111 H 0.42468 0.64688 0.79764 0.0
H2112 H 0.41488 0.68589 0.80559 0.0
H2113 H 0.36408 0.67348 0.72581 0.0
H2114 H 0.33304 0.6685 0.72318 0.0
H2115 H 0.34639 0.6441 0.72158 0.0
H2116 H 0.32262 0.63193 0.75503 0.0
H2117 H 0.31045 0.65721 0.75693 0.0
H2118 H 0.32556 0.65236 0.78258 0.0
H2119 H 0.39737 0.72531 0.80673 0.0
H2120 H 0.37558 0.75548 0.80281 0.0
H2121 H 0.323 0.70323 0.75559 0.0
C2122 C 0.37428 0.6339 0.76193 0.0
C2123 C 0.39482 0.62912 0.7728 0.0
C2124 C 0.40902 0.64887 0.78875 0.0
C2125 C 0.40342 0.67154 0.79339 0.0
C2126 C 0.38321 0.67536 0.78224 0.0
C2127 C 0.36883 0.65672 0.76686 0.0
C2128 C 0.34803 0.66499 0.75699 0.0
C2129 C 0.34791 0.66263 0.73029 0.0
C2130 C 0.32531 0.65077 0.76325 0.0
C2131 C 0.35239 0.69111 0.76923 0.0
C2132 C 0.37306 0.69689 0.78353 0.0
C2133 C 0.38117 0.72031 0.79568 0.0
C2134 C 0.36839 0.73772 0.79332 0.0
C2135 C 0.34674 0.73271 0.7793 0.0
C2136 C 0.33893 0.70846 0.76709 0.0
H2137 H 0.24098 0.56121 0.53808 0.0
H2138 H 0.25441 0.63415 0.53191 0.0
H2139 H 0.21306 0.63072 0.52312 0.0
H2140 H 0.18967 0.54289 0.48917 0.0
H2141 H 0.174 0.5209 0.50346 0.0
H2142 H 0.20514 0.52763 0.50607 0.0
H2143 H 0.20581 0.53609 0.55136 0.0
H2144 H 0.17475 0.52968 0.54884 0.0
H2145 H 0.19123 0.55756 0.5654 0.0
H2146 H 0.1704 0.62148 0.519 0.0
H2147 H 0.12836 0.60574 0.51748 0.0
H2148 H 0.14001 0.53852 0.52624 0.0
C2149 C 0.23523 0.57612 0.53395 0.0
C2150 C 0.25129 0.5979 0.53525 0.0
C2151 C 0.24278 0.61715 0.53045 0.0
C2152 C 0.21915 0.61545 0.52559 0.0
C2153 C 0.20377 0.59417 0.5251 0.0
C2154 C 0.21131 0.5746 0.52854 0.0
C2155 C 0.1905 0.55407 0.52729 0.0
C2156 C 0.1898 0.53524 0.5052 0.0
C2157 C 0.19059 0.54375 0.54957 0.0
C2158 C 0.17043 0.56587 0.52506 0.0
C2159 C 0.17864 0.58883 0.52301 0.0
C2160 C 0.16376 0.60345 0.52039 0.0
C2161 C 0.13988 0.59439 0.51962 0.0
C2162 C 0.13088 0.57105 0.52201 0.0
C2163 C 0.14642 0.55657 0.52477 0.0
H2164 H 0.71362 0.98798 0.74008 0.0
H2165 H 0.73046 0.03824 0.8063 0.0
H2166 H 0.75093 0.01213 0.82254 0.0
H2167 H 0.70399 0.936 0.76418 0.0
H2168 H 0.71719 0.91987 0.74173 0.0
H2169 H 0.70352 0.94231 0.73508 0.0
H2170 H 0.74131 0.96353 0.72094 0.0
H2171 H 0.75499 0.94097 0.72716 0.0
H2172 H 0.76778 0.97124 0.74017 0.0
H2173 H 0.76856 0.98089 0.83189 0.0
H2174 H 0.78582 0.94714 0.83288 0.0
H2175 H 0.75892 0.91809 0.76006 0.0
C2176 C 0.72155 0.99345 0.75802 0.0
C2177 C 0.72035 0.01497 0.77205 0.0
C2178 C 0.73116 0.02174 0.79532 0.0
C2179 C 0.74273 1.00704 0.80472 0.0
C2180 C 0.74333 0.98581 0.79054 0.0
C2181 C 0.73329 0.97909 0.76764 0.0
C2182 C 0.73713 0.95567 0.75597 0.0
C2183 C 0.71408 0.93738 0.74883 0.0
C2184 C 0.75115 0.95801 0.73482 0.0
C2185 C 0.75096 0.95037 0.77599 0.0
C2186 C 0.75412 0.96789 0.79579 0.0
C2187 C 0.76639 0.96706 0.8165 0.0
C2188 C 0.77619 0.94794 0.81685 0.0
C2189 C 0.77381 0.93017 0.79653 0.0
C2190 C 0.76076 0.93128 0.77596 0.0
H2191 H 0.76474 0.91513 0.48802 0.0
H2192 H 0.76405 0.90949 0.56126 0.0
H2193 H 0.72873 0.92452 0.56336 0.0
H2194 H 0.74692 0.96832 0.49353 0.0
H2195 H 0.72919 0.96005 0.46584 0.0
H2196 H 0.75362 0.94758 0.46985 0.0
H2197 H 0.72676 0.90589 0.45787 0.0
H2198 H 0.70217 0.9183 0.45417 0.0
H2199 H 0.70206 0.89807 0.47365 0.0
H2200 H 0.69441 0.94121 0.558 0.0
H2201 H 0.66531 0.96183 0.54653 0.0
H2202 H 0.68819 0.95663 0.47679 0.0
C2203 C 0.75715 0.91699 0.5045 0.0
C2204 C 0.76716 0.9111 0.52448 0.0
C2205 C 0.75668 0.91383 0.54571 0.0
C2206 C 0.73654 0.92223 0.54705 0.0
C2207 C 0.72703 0.92767 0.52698 0.0
C2208 C 0.73701 0.92527 0.50614 0.0
C2209 C 0.72382 0.93327 0.48743 0.0
C2210 C 0.73931 0.95351 0.47866 0.0
C2211 C 0.71307 0.91265 0.46708 0.0
C2212 C 0.7054 0.94141 0.50131 0.0
C2213 C 0.70727 0.93753 0.52393 0.0
C2214 C 0.69263 0.94418 0.54028 0.0
C2215 C 0.67606 0.95573 0.53356 0.0
C2216 C 0.67447 0.96075 0.51077 0.0
C2217 C 0.68903 0.95301 0.49433 0.0
H2218 H 0.38708 0.46366 0.73279 0.0
H2219 H 0.39926 0.49431 0.80697 0.0
H2220 H 0.38122 0.45578 0.81591 0.0
H2221 H 0.32907 0.42393 0.73698 0.0
H2222 H 0.33338 0.40072 0.71438 0.0
H2223 H 0.34644 0.43082 0.71376 0.0
H2224 H 0.3864 0.42088 0.71259 0.0
H2225 H 0.37348 0.39084 0.71351 0.0
H2226 H 0.39665 0.40762 0.73528 0.0
H2227 H 0.36569 0.4111 0.81692 0.0
H2228 H 0.34846 0.36844 0.81007 0.0
H2229 H 0.34081 0.36599 0.73525 0.0
C2230 C 0.38507 0.4626 0.75094 0.0
C2231 C 0.39411 0.48305 0.76912 0.0
C2232 C 0.39185 0.47983 0.79253 0.0
C2233 C 0.38184 0.45762 0.79781 0.0
C2234 C 0.37341 0.43799 0.7796 0.0
C2235 C 0.37425 0.44048 0.75652 0.0
C2236 C 0.36336 0.4166 0.74021 0.0
C2237 C 0.34178 0.41811 0.72545 0.0
C2238 C 0.38103 0.40851 0.72446 0.0
C2239 C 0.35676 0.40018 0.75753 0.0
C2240 C 0.36314 0.41289 0.78021 0.0
C2241 C 0.36028 0.40136 0.79917 0.0
C2242 C 0.35046 0.37681 0.79507 0.0
C2243 C 0.34271 0.36317 0.77217 0.0
C2244 C 0.34603 0.37546 0.75312 0.0
H2245 H 0.22906 0.6338 0.29063 0.0
H2246 H 0.24435 0.6066 0.22069 0.0
H2247 H 0.27647 0.64113 0.22346 0.0
H2248 H 0.2318 0.68615 0.28513 0.0
H2249 H 0.24546 0.70193 0.31367 0.0
H2250 H 0.22984 0.67213 0.31011 0.0
H2251 H 0.26605 0.66094 0.32709 0.0
H2252 H 0.28183 0.69106 0.33103 0.0
H2253 H 0.29293 0.66805 0.31442 0.0
H2254 H 0.29612 0.68217 0.22797 0.0
H2255 H 0.30438 0.72532 0.23569 0.0
H2256 H 0.27939 0.72548 0.30416 0.0
C2257 C 0.24003 0.63474 0.27649 0.0
C2258 C 0.23456 0.61794 0.25555 0.0
C2259 C 0.24868 0.61941 0.23701 0.0
C2260 C 0.267 0.63886 0.23848 0.0
C2261 C 0.27124 0.65607 0.25891 0.0
C2262 C 0.25859 0.65384 0.27795 0.0
C2263 C 0.26363 0.67634 0.29602 0.0
C2264 C 0.24137 0.68461 0.3015 0.0
C2265 C 0.27691 0.67394 0.31846 0.0
C2266 C 0.27888 0.69216 0.28296 0.0
C2267 C 0.28368 0.68013 0.26189 0.0
C2268 C 0.2935 0.69173 0.24487 0.0
C2269 C 0.29797 0.71621 0.24929 0.0
C2270 C 0.29237 0.7285 0.27046 0.0
C2271 C 0.28387 0.7164 0.28785 0.0
H2272 H 0.52551 0.73259 0.42633 0.0
H2273 H 0.49615 0.77016 0.48337 0.0
H2274 H 0.51405 0.75118 0.51146 0.0
H2275 H 0.51528 0.67912 0.4464 0.0
H2276 H 0.54134 0.67171 0.43664 0.0
H2277 H 0.52744 0.6896 0.42166 0.0
H2278 H 0.56535 0.72222 0.42859 0.0
H2279 H 0.57953 0.70442 0.44347 0.0
H2280 H 0.57918 0.7337 0.45802 0.0
H2281 H 0.53478 0.72795 0.53273 0.0
H2282 H 0.55418 0.69902 0.54552 0.0
H2283 H 0.56858 0.67642 0.4739 0.0
C2284 C 0.52277 0.7366 0.44471 0.0
C2285 C 0.50933 0.75224 0.45285 0.0
C2286 C 0.50605 0.75754 0.47695 0.0
C2287 C 0.51635 0.74718 0.49299 0.0
C2288 C 0.52955 0.73165 0.48436 0.0
C2289 C 0.53254 0.72621 0.4608 0.0
C2290 C 0.54626 0.70794 0.45574 0.0
C2291 C 0.53172 0.68577 0.43914 0.0
C2292 C 0.56893 0.71766 0.44588 0.0
C2293 C 0.55057 0.7039 0.48018 0.0
C2294 C 0.54106 0.71794 0.49652 0.0
C2295 C 0.54244 0.71692 0.5202 0.0
C2296 C 0.55355 0.70066 0.5273 0.0
C2297 C 0.56278 0.6858 0.5106 0.0
C2298 C 0.56159 0.6877 0.48691 0.0
H2299 H 0.65565 0.24833 0.67655 0.0
H2300 H 0.66423 0.32004 0.6675 0.0
H2301 H 0.69476 0.33336 0.70085 0.0
H2302 H 0.66524 0.26316 0.7415 0.0
H2303 H 0.68007 0.2401 0.74273 0.0
H2304 H 0.65781 0.23669 0.71926 0.0
H2305 H 0.68659 0.22853 0.68896 0.0
H2306 H 0.70914 0.23236 0.71218 0.0
H2307 H 0.71342 0.24981 0.68992 0.0
H2308 H 0.72655 0.33804 0.73152 0.0
H2309 H 0.7562 0.33431 0.76129 0.0
H2310 H 0.72535 0.26003 0.75177 0.0
C2311 C 0.664 0.26678 0.68182 0.0
C2312 C 0.65834 0.28331 0.66972 0.0
C2313 C 0.66895 0.30736 0.67682 0.0
C2314 C 0.68607 0.31502 0.69565 0.0
C2315 C 0.69173 0.29831 0.70718 0.0
C2316 C 0.6808 0.27477 0.70086 0.0
C2317 C 0.69054 0.26043 0.71585 0.0
C2318 C 0.67233 0.24946 0.73072 0.0
C2319 C 0.70052 0.24169 0.70083 0.0
C2320 C 0.70926 0.27947 0.73088 0.0
C2321 C 0.70959 0.30121 0.72565 0.0
C2322 C 0.72626 0.32127 0.73619 0.0
C2323 C 0.74296 0.31902 0.75283 0.0
C2324 C 0.74242 0.29697 0.75851 0.0
C2325 C 0.72555 0.27702 0.7476 0.0
H2326 H 0.04176 0.36109 0.99075 0.0
H2327 H 0.06025 0.36248 0.92003 0.0
H2328 H 0.06146 0.40438 0.92646 0.0
H2329 H 1.00323 0.38853 0.99033 0.0
H2330 H 1.00808 0.40725 0.01905 0.0
H2331 H 0.01796 0.38062 0.01445 0.0
H2332 H 0.06033 0.40256 0.02892 0.0
H2333 H 0.05031 0.42915 0.03583 0.0
H2334 H 0.07335 0.42778 0.0173 0.0
H2335 H 0.04444 0.43807 0.93343 0.0
H2336 H 0.02959 0.47261 0.94875 0.0
H2337 H 0.02363 0.45125 0.01584 0.0
C2338 C 0.0477 0.37063 0.97728 0.0
C2339 C 0.04981 0.35857 0.95463 0.0
C2340 C 0.05796 0.37136 0.93739 0.0
C2341 C 0.0585 0.39518 0.94079 0.0
C2342 C 0.05204 0.40573 0.96187 0.0
C2343 C 0.04836 0.39446 0.98052 0.0
C2344 C 0.03895 0.40893 1.00015 0.0
C2345 C 0.01568 0.39551 0.00633 0.0
C2346 C 0.0568 0.41764 0.02183 0.0
C2347 C 0.03583 0.42881 0.98858 0.0
C2348 C 0.04332 0.42643 0.96646 0.0
C2349 C 0.03968 0.44091 0.95119 0.0
C2350 C 0.03059 0.45999 0.95976 0.0
C2351 C 0.02587 0.46449 0.98343 0.0
C2352 C 0.0271 0.44804 0.99762 0.0
H2353 H 0.03086 0.73437 0.16967 0.0
H2354 H 0.05488 0.80881 0.17146 0.0
H2355 H 0.01743 0.81526 0.18297 0.0
H2356 H 0.96994 0.72858 0.14941 0.0
H2357 H 0.95888 0.70909 0.16849 0.0
H2358 H 0.98666 0.70911 0.15786 0.0
H2359 H 1.00584 0.71726 0.2006 0.0
H2360 H 0.97803 0.71674 0.21119 0.0
H2361 H 1.00163 0.74193 0.22146 0.0
H2362 H 0.97895 0.81444 0.19464 0.0
H2363 H 0.94278 0.80766 0.21312 0.0
H2364 H 0.94328 0.73415 0.20666 0.0
C2365 C 0.02805 0.75194 0.17248 0.0
C2366 C 0.04557 0.77117 0.16978 0.0
C2367 C 0.04163 0.79398 0.17374 0.0
C2368 C 0.02037 0.79776 0.17995 0.0
C2369 C 1.00337 0.77857 0.18239 0.0
C2370 C 1.00698 0.75616 0.17933 0.0
C2371 C 0.98641 0.73924 0.18559 0.0
C2372 C 0.97479 0.72039 0.16405 0.0
C2373 C 0.9934 0.72815 0.20592 0.0
C2374 C 0.97113 0.75587 0.19312 0.0
C2375 C 0.98105 0.77827 0.19039 0.0
C2376 C 0.97083 0.79697 0.19678 0.0
C2377 C 0.95023 0.79291 0.20711 0.0
C2378 C 0.94029 0.77039 0.21121 0.0
C2379 C 0.95058 0.75151 0.20365 0.0
H2380 H 0.53703 0.29712 0.07159 0.0
H2381 H 0.51234 0.33001 0.13489 0.0
H2382 H 0.52662 0.36875 0.12534 0.0
H2383 H 0.5886 0.34381 0.07189 0.0
H2384 H 0.58538 0.34113 0.04049 0.0
H2385 H 0.57537 0.31585 0.05323 0.0
H2386 H 0.53434 0.3093 0.03198 0.0
H2387 H 0.54429 0.33422 0.01884 0.0
H2388 H 0.51984 0.33303 0.03574 0.0
H2389 H 0.54194 0.40334 0.10871 0.0
H2390 H 0.55304 0.43168 0.08311 0.0
H2391 H 0.56604 0.37634 0.02967 0.0
C2392 C 0.53486 0.31252 0.08351 0.0
C2393 C 0.52374 0.31068 0.10398 0.0
C2394 C 0.52079 0.3311 0.11903 0.0
C2395 C 0.52905 0.35318 0.11393 0.0
C2396 C 0.54007 0.35445 0.09369 0.0
C2397 C 0.54273 0.33472 0.07853 0.0
C2398 C 0.55328 0.34086 0.05689 0.0
C2399 C 0.57707 0.33506 0.05555 0.0
C2400 C 0.53696 0.32864 0.03455 0.0
C2401 C 0.55547 0.36703 0.06198 0.0
C2402 C 0.54828 0.37454 0.08358 0.0
C2403 C 0.54769 0.39776 0.09178 0.0
C2404 C 0.55388 0.41364 0.07709 0.0
C2405 C 0.56016 0.40604 0.0544 0.0
C2406 C 0.56161 0.38262 0.04706 0.0
H2407 H 0.04557 0.28646 0.35427 0.0
H2408 H 0.08496 0.35837 0.36348 0.0
H2409 H 0.05226 0.36863 0.3437 0.0
H2410 H 0.01361 0.28524 0.29522 0.0
H2411 H 0.98795 0.26672 0.30246 0.0
H2412 H 0.01601 0.2644 0.31351 0.0
H2413 H 1.00353 0.27116 0.35562 0.0
H2414 H 0.97591 0.27463 0.3448 0.0
H2415 H 0.99429 0.29753 0.36676 0.0
H2416 H 0.01413 0.37277 0.3302 0.0
H2417 H 0.97397 0.36893 0.31434 0.0
H2418 H 0.95901 0.29415 0.31261 0.0
C2419 C 0.04766 0.30402 0.35093 0.0
C2420 C 0.06773 0.32158 0.36007 0.0
C2421 C 0.06989 0.34458 0.35607 0.0
C2422 C 0.05129 0.35065 0.34518 0.0
C2423 C 0.03113 0.33332 0.33789 0.0
C2424 C 0.0294 0.31028 0.33973 0.0
C2425 C 1.00534 0.29538 0.33129 0.0
C2426 C 1.00576 0.27684 0.30931 0.0
C2427 C 0.99412 0.28403 0.35079 0.0
C2428 C 0.99364 0.31393 0.32542 0.0
C2429 C 1.0089 0.33566 0.32946 0.0
C2430 C 1.00215 0.35578 0.32625 0.0
C2431 C 0.97941 0.35346 0.31737 0.0
C2432 C 0.96387 0.33122 0.31191 0.0
C2433 C 0.9708 0.31128 0.31654 0.0
H2434 H 0.99975 0.6925 0.57998 0.0
H2435 H 0.02897 0.68624 0.64798 0.0
H2436 H 0.04945 0.65791 0.62888 0.0
H2437 H 0.98994 0.63154 0.55457 0.0
H2438 H 0.99709 0.63599 0.52585 0.0
H2439 H 0.98555 0.65725 0.54457 0.0
H2440 H 0.02115 0.68994 0.54099 0.0
H2441 H 0.03278 0.6687 0.52225 0.0
H2442 H 0.04975 0.68647 0.54852 0.0
H2443 H 0.06636 0.63053 0.60373 0.0
H2444 H 0.07678 0.60203 0.57212 0.0
H2445 H 0.03551 0.62417 0.52073 0.0
C2446 C 0.01062 0.68524 0.59067 0.0
C2447 C 0.01282 0.69138 0.61528 0.0
C2448 C 0.02692 0.68148 0.62898 0.0
C2449 C 0.0388 0.66555 0.61839 0.0
C2450 C 0.03627 0.6597 0.59415 0.0
C2451 C 0.02242 0.66892 0.58036 0.0
C2452 C 0.02178 0.65829 0.55471 0.0
C2453 C 0.99713 0.64498 0.54433 0.0
C2454 C 0.03198 0.67697 0.5408 0.0
C2455 C 0.03733 0.64175 0.55652 0.0
C2456 C 0.04566 0.64306 0.57941 0.0
C2457 C 0.05995 0.62914 0.58565 0.0
C2458 C 0.06554 0.61295 0.56781 0.0
C2459 C 0.05648 0.61088 0.54448 0.0
C2460 C 0.04268 0.6257 0.53862 0.0
H2461 H 0.68698 0.85877 0.85285 0.0
H2462 H 0.66578 0.79441 0.87904 0.0
H2463 H 0.68388 0.77368 0.84798 0.0
H2464 H 0.68119 0.83256 0.79096 0.0
H2465 H 0.70717 0.85143 0.78478 0.0
H2466 H 0.69118 0.86186 0.80815 0.0
H2467 H 0.72777 0.87167 0.83786 0.0
H2468 H 0.74387 0.8618 0.81446 0.0
H2469 H 0.74311 0.84921 0.84032 0.0
H2470 H 0.7011 0.75903 0.81367 0.0
H2471 H 0.72798 0.75305 0.7844 0.0
H2472 H 0.74261 0.82727 0.78217 0.0
C2473 C 0.68632 0.84037 0.85205 0.0
C2474 C 0.67472 0.82814 0.8681 0.0
C2475 C 0.67449 0.80416 0.86687 0.0
C2476 C 0.68443 0.79209 0.8491 0.0
C2477 C 0.69485 0.80433 0.833 0.0
C2478 C 0.69675 0.82806 0.83471 0.0
C2479 C 0.7112 0.83719 0.81638 0.0
C2480 C 0.69681 0.84631 0.79905 0.0
C2481 C 0.73277 0.85607 0.82796 0.0
C2482 C 0.71732 0.81487 0.80457 0.0
C2483 C 0.70684 0.79607 0.81394 0.0
C2484 C 0.70965 0.77358 0.80624 0.0
C2485 C 0.72491 0.77041 0.78948 0.0
C2486 C 0.73775 0.78984 0.78133 0.0
C2487 C 0.73307 0.81214 0.7881 0.0
H2488 H 0.4824 0.51981 0.68977 0.0
H2489 H 0.47655 0.59194 0.70474 0.0
H2490 H 0.49521 0.59824 0.66856 0.0
H2491 H 0.53757 0.52966 0.66542 0.0
H2492 H 0.53 0.5032 0.64318 0.0
H2493 H 0.51668 0.50461 0.67025 0.0
H2494 H 0.47628 0.49299 0.64695 0.0
H2495 H 0.48947 0.49144 0.61981 0.0
H2496 H 0.46958 0.51 0.62604 0.0
H2497 H 0.51788 0.59682 0.62986 0.0
H2498 H 0.53618 0.5873 0.59342 0.0
H2499 H 0.52424 0.51484 0.60056 0.0
C2500 C 0.48482 0.53703 0.68553 0.0
C2501 C 0.47755 0.55538 0.70094 0.0
C2502 C 0.48143 0.57739 0.69388 0.0
C2503 C 0.4923 0.58114 0.67312 0.0
C2504 C 0.49925 0.56272 0.65863 0.0
C2505 C 0.49523 0.54093 0.66451 0.0
C2506 C 0.50369 0.52373 0.64576 0.0
C2507 C 0.52313 0.51475 0.65681 0.0
C2508 C 0.48355 0.50332 0.63394 0.0
C2509 C 0.51298 0.53893 0.62814 0.0
C2510 C 0.51072 0.56157 0.63621 0.0
C2511 C 0.51925 0.57901 0.62361 0.0
C2512 C 0.52988 0.57336 0.60265 0.0
C2513 C 0.5319 0.55019 0.5932 0.0
C2514 C 0.52303 0.53274 0.60655 0.0
H2515 H 0.82873 0.16881 0.97911 0.0
H2516 H 0.76118 0.16004 1.00507 0.0
H2517 H 0.74702 0.17644 0.97289 0.0
H2518 H 0.83045 0.2234 0.96432 0.0
H2519 H 0.84473 0.21781 0.93816 0.0
H2520 H 0.84889 0.20305 0.96177 0.0
H2521 H 0.83532 0.16302 0.93268 0.0
H2522 H 0.83067 0.17779 0.90909 0.0
H2523 H 0.80745 0.15591 0.91593 0.0
H2524 H 0.74076 0.19638 0.94024 0.0
H2525 H 0.74403 0.22173 0.91093 0.0
H2526 H 0.81536 0.21785 0.906 0.0
C2527 C 0.8109 0.17012 0.97787 0.0
C2528 C 0.79609 0.16315 0.99463 0.0
C2529 C 0.77293 0.16536 0.99252 0.0
C2530 C 0.76461 0.17444 0.97416 0.0
C2531 C 0.77961 0.18117 0.95796 0.0
C2532 C 0.8023 0.17926 0.95964 0.0
C2533 C 0.81523 0.18952 0.94094 0.0
C2534 C 0.83604 0.20964 0.95196 0.0
C2535 C 0.8226 0.17042 0.92364 0.0
C2536 C 0.79656 0.1984 0.92927 0.0
C2537 C 0.776 0.1929 0.93901 0.0
C2538 C 0.75669 0.2006 0.93227 0.0
C2539 C 0.75871 0.21502 0.91572 0.0
C2540 C 0.77992 0.22166 0.90628 0.0
C2541 C 0.79882 0.21263 0.91261 0.0
H2542 H 0.13321 0.58356 0.17204 0.0
H2543 H 0.16589 0.52473 0.16377 0.0
H2544 H 0.14661 0.5104 0.12382 0.0
H2545 H 0.08083 0.55359 0.14869 0.0
H2546 H 0.0735 0.57519 0.13357 0.0
H2547 H 0.09425 0.58428 0.15896 0.0
H2548 H 0.12545 0.60489 0.13501 0.0
H2549 H 0.10321 0.59697 0.11099 0.0
H2550 H 0.13043 0.58899 0.10707 0.0
H2551 H 0.11889 0.49789 0.09038 0.0
H2552 H 0.08398 0.48809 0.06261 0.0
H2553 H 0.06872 0.55482 0.09196 0.0
C2554 C 0.13697 0.56819 0.16142 0.0
C2555 C 0.15108 0.55531 0.17058 0.0
C2556 C 0.15516 0.53485 0.15675 0.0
C2557 C 0.14451 0.52672 0.13404 0.0
C2558 C 0.13006 0.53937 0.12567 0.0
C2559 C 0.12629 0.5597 0.13882 0.0
C2560 C 0.1073 0.56789 0.12715 0.0
C2561 C 0.08784 0.57034 0.14306 0.0
C2562 C 0.11725 0.59103 0.11953 0.0
C2563 C 0.09954 0.54765 0.10651 0.0
C2564 C 0.11342 0.53186 0.10568 0.0
C2565 C 0.10815 0.5103 0.09029 0.0
C2566 C 0.08814 0.5047 0.07499 0.0
C2567 C 0.0737 0.52053 0.07554 0.0
C2568 C 0.07945 0.5423 0.0914 0.0
H2569 H 0.83413 0.80945 0.45686 0.0
H2570 H 0.7936 0.86203 0.4668 0.0
H2571 H 0.78494 0.85611 0.42408 0.0
H2572 H 0.85969 0.82356 0.40777 0.0
H2573 H 0.85743 0.79393 0.39239 0.0
H2574 H 0.85886 0.8004 0.42393 0.0
H2575 H 0.82048 0.76954 0.42257 0.0
H2576 H 0.81905 0.76269 0.39098 0.0
H2577 H 0.79528 0.77129 0.40504 0.0
H2578 H 0.7825 0.84663 0.38063 0.0
H2579 H 0.78513 0.83285 0.33857 0.0
H2580 H 0.82752 0.78656 0.35579 0.0
C2581 C 0.82308 0.8194 0.45007 0.0
C2582 C 0.81458 0.83624 0.46532 0.0
C2583 C 0.80026 0.84896 0.45564 0.0
C2584 C 0.79526 0.84576 0.43132 0.0
C2585 C 0.80436 0.82951 0.41682 0.0
C2586 C 0.81765 0.81624 0.42574 0.0
C2587 C 0.82547 0.80019 0.40607 0.0
C2588 C 0.85194 0.80481 0.40764 0.0
C2589 C 0.81442 0.7744 0.40618 0.0
C2590 C 0.81567 0.80756 0.38479 0.0
C2591 C 0.80313 0.82414 0.39147 0.0
C2592 C 0.79213 0.83353 0.37515 0.0
C2593 C 0.79375 0.8256 0.3513 0.0
C2594 C 0.80659 0.80873 0.34394 0.0
C2595 C 0.8178 0.79967 0.36095 0.0
H2596 H 0.45685 0.54893 0.8565 0.0
H2597 H 0.51906 0.56486 0.82198 0.0
H2598 H 0.54242 0.5632 0.85771 0.0
H2599 H 0.48232 0.58214 0.91665 0.0
H2600 H 0.46653 0.56052 0.93133 0.0
H2601 H 0.45454 0.56426 0.90354 0.0
H2602 H 0.45043 0.52027 0.88655 0.0
H2603 H 0.46262 0.51645 0.9142 0.0
H2604 H 0.47547 0.50811 0.88767 0.0
H2605 H 0.55978 0.55606 0.897 0.0
H2606 H 0.56921 0.54862 0.9364 0.0
H2607 H 0.49724 0.5396 0.94888 0.0
C2608 C 0.47545 0.55297 0.85668 0.0
C2609 C 0.48583 0.55796 0.83589 0.0
C2610 C 0.51032 0.56174 0.83728 0.0
C2611 C 0.52389 0.56058 0.8577 0.0
C2612 C 0.51324 0.55537 0.87752 0.0
C2613 C 0.48953 0.55192 0.87734 0.0
C2614 C 0.48259 0.54598 0.90105 0.0
C2615 C 0.47078 0.56432 0.91391 0.0
C2616 C 0.46683 0.52124 0.89714 0.0
C2617 C 0.50593 0.54697 0.91461 0.0
C2618 C 0.52333 0.55198 0.90037 0.0
C2619 C 0.54616 0.55247 0.90822 0.0
C2620 C 0.55143 0.54807 0.93088 0.0
C2621 C 0.53434 0.54362 0.94654 0.0
C2622 C 0.51109 0.5432 0.93792 0.0
H2623 H 0.83807 0.17121 0.1343 0.0
H2624 H 0.82787 0.20818 0.07881 0.0
H2625 H 0.82485 0.24267 0.10832 0.0
H2626 H 0.79887 0.18688 0.16775 0.0
H2627 H 0.81464 0.19118 0.19617 0.0
H2628 H 0.82141 0.17171 0.1716 0.0
H2629 H 0.86419 0.19499 0.17755 0.0
H2630 H 0.85766 0.21404 0.20275 0.0
H2631 H 0.87074 0.22624 0.1793 0.0
H2632 H 0.81688 0.27091 0.14428 0.0
H2633 H 0.8083 0.29092 0.183 0.0
H2634 H 0.82263 0.23437 0.21416 0.0
C2635 C 0.83673 0.18714 0.12851 0.0
C2636 C 0.83414 0.18735 0.10431 0.0
C2637 C 0.831 0.20803 0.09727 0.0
C2638 C 0.82888 0.22759 0.11396 0.0
C2639 C 0.83032 0.22634 0.13768 0.0
C2640 C 0.83486 0.20684 0.14496 0.0
C2641 C 0.83395 0.20902 0.1712 0.0
C2642 C 0.81615 0.18848 0.17699 0.0
C2643 C 0.85807 0.2112 0.18342 0.0
C2644 C 0.82651 0.23186 0.17732 0.0
C2645 C 0.82505 0.242 0.15796 0.0
C2646 C 0.8183 0.2632 0.15957 0.0
C2647 C 0.81335 0.27441 0.18156 0.0
C2648 C 0.81455 0.26407 0.20145 0.0
C2649 C 0.8212 0.24252 0.19915 0.0
H2650 H 0.14892 0.59216 0.29934 0.0
H2651 H 0.13457 0.51631 0.28721 0.0
H2652 H 0.12933 0.51802 0.32958 0.0
H2653 H 0.1825 0.60191 0.35502 0.0
H2654 H 0.17241 0.62761 0.36663 0.0
H2655 H 0.17468 0.61986 0.3356 0.0
H2656 H 0.13127 0.61949 0.32665 0.0
H2657 H 0.12917 0.62769 0.35755 0.0
H2658 H 0.10982 0.60168 0.34046 0.0
H2659 H 0.12543 0.52883 0.37219 0.0
H2660 H 0.11801 0.54667 0.41127 0.0
H2661 H 0.13732 0.6159 0.3947 0.0
C2662 C 0.14415 0.57587 0.30553 0.0
C2663 C 0.14134 0.55409 0.29044 0.0
C2664 C 0.13618 0.53306 0.29889 0.0
C2665 C 0.13353 0.53394 0.32274 0.0
C2666 C 0.13712 0.55599 0.33735 0.0
C2667 C 0.14225 0.57649 0.32901 0.0
C2668 C 0.14518 0.59798 0.34793 0.0
C2669 C 0.17018 0.61271 0.35148 0.0
C2670 C 0.12781 0.61255 0.34286 0.0
C2671 C 0.13979 0.58646 0.36834 0.0
C2672 C 0.13577 0.56226 0.362 0.0
C2673 C 0.12905 0.54771 0.37753 0.0
C2674 C 0.12526 0.55815 0.39982 0.0
C2675 C 0.12778 0.58285 0.40601 0.0
C2676 C 0.13612 0.5972 0.39051 0.0
H2677 H 0.83796 0.8615 0.6186 0.0
H2678 H 0.79544 0.80176 0.56969 0.0
H2679 H 0.78276 0.78306 0.60286 0.0
H2680 H 0.85769 0.82886 0.65766 0.0
H2681 H 0.85741 0.84999 0.68399 0.0
H2682 H 0.86175 0.85949 0.65665 0.0
H2683 H 0.8271 0.87901 0.66123 0.0
H2684 H 0.82273 0.86957 0.68862 0.0
H2685 H 0.79938 0.86179 0.66547 0.0
H2686 H 0.77569 0.77037 0.64123 0.0
H2687 H 0.77568 0.76395 0.68196 0.0
H2688 H 0.82395 0.83139 0.70592 0.0
C2689 C 0.82574 0.84463 0.61502 0.0
C2690 C 0.81738 0.83305 0.59174 0.0
C2691 C 0.80179 0.81086 0.5875 0.0
C2692 C 0.79453 0.80016 0.6062 0.0
C2693 C 0.80319 0.81186 0.62901 0.0
C2694 C 0.81851 0.83359 0.63352 0.0
C2695 C 0.82604 0.84185 0.6596 0.0
C2696 C 0.85228 0.84523 0.66476 0.0
C2697 C 0.81835 0.86439 0.6693 0.0
C2698 C 0.81283 0.82126 0.66895 0.0
C2699 C 0.79955 0.80427 0.65107 0.0
C2700 C 0.78598 0.78358 0.6554 0.0
C2701 C 0.78606 0.78009 0.6786 0.0
C2702 C 0.7998 0.79711 0.69717 0.0
C2703 C 0.81326 0.81798 0.69216 0.0
H2704 H 0.73368 0.52676 0.5188 0.0
H2705 H 0.71541 0.45134 0.51286 0.0
H2706 H 0.67503 0.453 0.5186 0.0
H2707 H 0.69645 0.54102 0.56325 0.0
H2708 H 0.68871 0.56417 0.55089 0.0
H2709 H 0.71621 0.55714 0.5465 0.0
H2710 H 0.70694 0.55081 0.50156 0.0
H2711 H 0.67946 0.55794 0.50577 0.0
H2712 H 0.68071 0.53049 0.4875 0.0
H2713 H 0.63609 0.46289 0.52547 0.0
H2714 H 0.60193 0.47958 0.53023 0.0
H2715 H 0.64458 0.54874 0.53097 0.0
C2716 C 0.72123 0.51053 0.51868 0.0
C2717 C 0.72807 0.48884 0.51536 0.0
C2718 C 0.71091 0.46816 0.51527 0.0
C2719 C 0.68782 0.46895 0.51862 0.0
C2720 C 0.68176 0.49056 0.52196 0.0
C2721 C 0.69796 0.51097 0.52182 0.0
C2722 C 0.68677 0.53186 0.52525 0.0
C2723 C 0.69769 0.5496 0.54782 0.0
C2724 C 0.68858 0.54346 0.50374 0.0
C2725 C 0.66177 0.52006 0.52744 0.0
C2726 C 0.65933 0.49622 0.5256 0.0
C2727 C 0.6379 0.48154 0.5269 0.0
C2728 C 0.61848 0.49127 0.52973 0.0
C2729 C 0.62022 0.5156 0.53123 0.0
C2730 C 0.64243 0.53013 0.53023 0.0
H2731 H 0.22535 0.14881 0.5286 0.0
H2732 H 0.21002 0.16387 0.46029 0.0
H2733 H 0.17401 0.13263 0.45383 0.0
H2734 H 0.19927 0.08413 0.51281 0.0
H2735 H 0.18809 0.08374 0.54085 0.0
H2736 H 0.21434 0.10461 0.53859 0.0
H2737 H 0.19663 0.13849 0.55759 0.0
H2738 H 0.17031 0.11784 0.55981 0.0
H2739 H 0.16952 0.14145 0.54464 0.0
H2740 H 0.13881 0.10144 0.45557 0.0
H2741 H 0.10519 0.07458 0.4667 0.0
H2742 H 0.14136 0.08207 0.53531 0.0
C2743 C 0.21466 0.14496 0.51205 0.0
C2744 C 0.22055 0.15821 0.49463 0.0
C2745 C 0.20588 0.15348 0.47355 0.0
C2746 C 0.18546 0.1358 0.46976 0.0
C2747 C 0.17986 0.12318 0.48736 0.0
C2748 C 0.19397 0.12756 0.50815 0.0
C2749 C 0.18282 0.11298 0.52505 0.0
C2750 C 0.19698 0.09531 0.52959 0.0
C2751 C 0.17962 0.12863 0.54813 0.0
C2752 C 0.15984 0.10057 0.51093 0.0
C2753 C 0.15884 0.10615 0.48895 0.0
C2754 C 0.13944 0.09684 0.47267 0.0
C2755 C 0.12048 0.08158 0.47907 0.0
C2756 C 0.12086 0.0763 0.50173 0.0
C2757 C 0.14078 0.08586 0.51784 0.0
H2758 H 0.19841 0.91716 0.74524 0.0
H2759 H 0.24509 0.97526 0.79252 0.0
H2760 H 0.27126 0.949 0.79793 0.0
H2761 H 0.20611 0.87073 0.77582 0.0
H2762 H 0.205 0.8491 0.7495 0.0
H2763 H 0.19016 0.87229 0.74916 0.0
H2764 H 0.21216 0.88422 0.71486 0.0
H2765 H 0.22703 0.86102 0.71509 0.0
H2766 H 0.24327 0.8908 0.71785 0.0
H2767 H 0.29383 0.91415 0.79794 0.0
H2768 H 0.30847 0.87823 0.79316 0.0
H2769 H 0.24748 0.84072 0.74627 0.0
C2770 C 0.21414 0.92469 0.75683 0.0
C2771 C 0.21899 0.9493 0.76837 0.0
C2772 C 0.24021 0.95721 0.7832 0.0
C2773 C 0.2554 0.94204 0.78641 0.0
C2774 C 0.24994 0.9182 0.77481 0.0
C2775 C 0.22963 0.90963 0.76021 0.0
C2776 C 0.2277 0.88332 0.74956 0.0
C2777 C 0.20594 0.86795 0.75642 0.0
C2778 C 0.22751 0.87962 0.72274 0.0
C2779 C 0.24978 0.87804 0.76057 0.0
C2780 C 0.26247 0.89859 0.77495 0.0
C2781 C 0.28367 0.89831 0.78663 0.0
C2782 C 0.29206 0.87733 0.78367 0.0
C2783 C 0.2798 0.85553 0.76923 0.0
C2784 C 0.25791 0.8564 0.75761 0.0
H2785 H 0.37299 0.98031 0.98268 0.0
H2786 H 0.36168 0.01971 0.04929 0.0
H2787 H 0.40364 0.03734 0.05738 0.0
H2788 H 0.42202 0.96586 1.00403 0.0
H2789 H 0.43712 0.96716 0.97821 0.0
H2790 H 0.40605 0.96062 0.9756 0.0
H2791 H 0.40595 0.99534 0.95482 0.0
H2792 H 0.43703 1.00168 0.95673 0.0
H2793 H 0.42265 0.02421 0.96851 0.0
H2794 H 0.44683 0.04415 0.06159 0.0
H2795 H 0.48808 0.04701 0.05839 0.0
H2796 H 0.47251 1.0055 0.98756 0.0
C2797 C 0.37923 0.99385 0.99823 0.0
C2798 C 0.36391 0.99961 0.01484 0.0
C2799 C 0.37291 0.01598 0.03586 0.0
C2800 C 0.39679 0.02572 0.04076 0.0
C2801 C 0.41151 0.01878 0.02451 0.0
C2802 C 0.40306 1.00364 1.0034 0.0
C2803 C 0.42269 0.99758 0.98983 0.0
C2804 C 0.42191 0.97125 0.98673 0.0
C2805 C 0.42205 1.00517 0.96606 0.0
C2806 C 0.44356 0.01209 0.00635 0.0
C2807 C 0.4366 0.02359 0.02654 0.0
C2808 C 0.45245 0.03592 0.04552 0.0
C2809 C 0.47599 0.03733 0.04352 0.0
C2810 C 0.48387 0.02725 0.02241 0.0
C2811 C 0.46723 0.01409 1.00368 0.0
H2812 H 0.8867 0.58414 0.80382 0.0
H2813 H 0.91255 0.56017 0.73783 0.0
H2814 H 0.89226 0.58491 0.71874 0.0
H2815 H 0.83098 0.58695 0.78055 0.0
H2816 H 0.83054 0.61331 0.80116 0.0
H2817 H 0.84667 0.59328 0.80926 0.0
H2818 H 0.88364 0.62702 0.81917 0.0
H2819 H 0.86769 0.64716 0.81097 0.0
H2820 H 0.89328 0.64356 0.79716 0.0
H2821 H 0.86856 0.61152 0.70695 0.0
H2822 H 0.84456 0.64004 0.70376 0.0
H2823 H 0.83591 0.64702 0.77796 0.0
C2824 C 0.88798 0.58399 0.78532 0.0
C2825 C 0.90096 0.57027 0.77216 0.0
C2826 C 0.90262 0.57071 0.74812 0.0
C2827 C 0.89116 0.58459 0.73716 0.0
C2828 C 0.87848 0.598 0.75067 0.0
C2829 C 0.87701 0.59796 0.77425 0.0
C2830 C 0.86293 0.61446 0.78505 0.0
C2831 C 0.84151 0.6012 0.79456 0.0
C2832 C 0.87778 0.63422 0.80421 0.0
C2833 C 0.85644 0.62355 0.76375 0.0
C2834 C 0.86547 0.61382 0.74407 0.0
C2835 C 0.86142 0.61934 0.72223 0.0
C2836 C 0.84776 0.63536 0.72055 0.0
C2837 C 0.83862 0.6456 0.74064 0.0
C2838 C 0.84299 0.63957 0.76243 0.0
H2839 H 0.83057 0.64111 0.03767 0.0
H2840 H 0.86052 0.68847 0.99331 0.0
H2841 H 0.89727 0.6764 0.99758 0.0
H2842 H 0.88255 0.65025 0.07724 0.0
H2843 H 0.87703 0.62009 0.08034 0.0
H2844 H 0.85327 0.63315 0.07472 0.0
H2845 H 0.83768 0.60044 0.03778 0.0
H2846 H 0.86103 0.58704 0.04363 0.0
H2847 H 0.85662 0.59479 0.01551 0.0
H2848 H 0.93056 0.65894 0.00638 0.0
H2849 H 0.95664 0.63422 0.01552 0.0
H2850 H 0.90417 0.59739 0.05281 0.0
C2851 C 0.84484 0.64899 0.02886 0.0
C2852 C 0.84269 0.6658 0.01524 0.0
C2853 C 0.86177 0.67558 1.0039 0.0
C2854 C 0.88276 0.66896 0.00633 0.0
C2855 C 0.88438 0.65259 0.02017 0.0
C2856 C 0.86588 0.64258 0.03106 0.0
C2857 C 0.87182 0.62467 0.04414 0.0
C2858 C 0.87112 0.63251 0.07068 0.0
C2859 C 0.85585 0.60029 0.03469 0.0
C2860 C 0.89628 0.62555 0.0382 0.0
C2861 C 0.90339 0.64214 0.0248 0.0
C2862 C 0.92517 0.64582 0.01679 0.0
C2863 C 0.93979 0.63159 0.02195 0.0
C2864 C 0.93239 0.61365 0.03466 0.0
C2865 C 0.91054 0.6111 0.04334 0.0
H2866 H 0.22447 0.10072 0.7467 0.0
H2867 H 0.21764 0.10717 0.82102 0.0
H2868 H 0.23645 0.14933 0.82753 0.0
H2869 H 0.28241 0.14385 0.75385 0.0
H2870 H 0.27566 0.15534 0.72844 0.0
H2871 H 0.26285 0.12532 0.72962 0.0
H2872 H 0.22232 0.13266 0.72195 0.0
H2873 H 0.23494 0.16277 0.72101 0.0
H2874 H 0.21384 0.15597 0.74117 0.0
H2875 H 0.25211 0.1931 0.82561 0.0
H2876 H 0.26844 0.23194 0.81644 0.0
H2877 H 0.26986 0.19883 0.74407 0.0
C2878 C 0.22787 0.11071 0.76453 0.0
C2879 C 0.22015 0.09962 0.78354 0.0
C2880 C 0.22398 0.11435 0.80621 0.0
C2881 C 0.23447 0.13869 0.81005 0.0
C2882 C 0.24151 0.14901 0.79111 0.0
C2883 C 0.23889 0.13534 0.76879 0.0
C2884 C 0.24804 0.15111 0.75153 0.0
C2885 C 0.26845 0.14345 0.74018 0.0
C2886 C 0.22863 0.15059 0.73279 0.0
C2887 C 0.25597 0.17566 0.76749 0.0
C2888 C 0.25158 0.17398 0.79023 0.0
C2889 C 0.25591 0.19431 0.80788 0.0
C2890 C 0.26517 0.21657 0.80246 0.0
C2891 C 0.27086 0.2191 0.77959 0.0
C2892 C 0.26611 0.19795 0.76188 0.0
H2893 H 0.41888 0.92806 0.27621 0.0
H2894 H 0.38058 0.97884 0.26176 0.0
H2895 H 0.34469 0.95312 0.26956 0.0
H2896 H 0.3723 0.87515 0.2523 0.0
H2897 H 0.38071 0.86058 0.27473 0.0
H2898 H 0.40206 0.88169 0.26433 0.0
H2899 H 0.41359 0.9043 0.30749 0.0
H2900 H 0.39142 0.8839 0.3177 0.0
H2901 H 0.39206 0.91476 0.32409 0.0
H2902 H 0.31326 0.92227 0.28028 0.0
H2903 H 0.2883 0.88636 0.28903 0.0
H2904 H 0.3487 0.85958 0.30154 0.0
C2905 C 0.40288 0.93352 0.27391 0.0
C2906 C 0.40258 0.95548 0.26847 0.0
C2907 C 0.38124 0.96199 0.26581 0.0
C2908 C 0.36079 0.94765 0.27046 0.0
C2909 C 0.36209 0.92695 0.27761 0.0
C2910 C 0.38249 0.91969 0.27885 0.0
C2911 C 0.37955 0.89715 0.2877 0.0
C2912 C 0.38391 0.87748 0.26864 0.0
C2913 C 0.39508 0.90024 0.31061 0.0
C2914 C 0.35442 0.89315 0.29185 0.0
C2915 C 0.34449 0.9103 0.2856 0.0
C2916 C 0.32086 0.90892 0.2856 0.0
C2917 C 0.30689 0.88876 0.29087 0.0
C2918 C 0.31688 0.87096 0.29671 0.0
C2919 C 0.34092 0.87358 0.29812 0.0
H2920 H 0.59807 0.34597 0.61162 0.0
H2921 H 0.62111 0.30859 0.54972 0.0
H2922 H 0.61218 0.33727 0.5272 0.0
H2923 H 0.5508 0.35582 0.58479 0.0
H2924 H 0.55272 0.38476 0.60175 0.0
H2925 H 0.56516 0.36433 0.61421 0.0
H2926 H 0.60497 0.39393 0.62229 0.0
H2927 H 0.59266 0.41475 0.61014 0.0
H2928 H 0.6176 0.40617 0.59863 0.0
H2929 H 0.59485 0.36508 0.51022 0.0
H2930 H 0.57253 0.39274 0.50005 0.0
H2931 H 0.56064 0.41158 0.57314 0.0
C2932 C 0.60186 0.34423 0.5935 0.0
C2933 C 0.61026 0.32526 0.58229 0.0
C2934 C 0.61489 0.32328 0.55858 0.0
C2935 C 0.60988 0.33942 0.5457 0.0
C2936 C 0.60072 0.35746 0.55704 0.0
C2937 C 0.5971 0.36019 0.5805 0.0
C2938 C 0.58507 0.37964 0.58798 0.0
C2939 C 0.56208 0.37058 0.59774 0.0
C2940 C 0.60103 0.39983 0.60581 0.0
C2941 C 0.58124 0.38649 0.56468 0.0
C2942 C 0.59071 0.37375 0.54717 0.0
C2943 C 0.58774 0.37556 0.52379 0.0
C2944 C 0.57481 0.39099 0.51816 0.0
C2945 C 0.56494 0.40411 0.53585 0.0
C2946 C 0.56835 0.40196 0.55939 0.0
H2947 H 0.44795 0.82792 0.38089 0.0
H2948 H 0.47002 0.77481 0.33257 0.0
H2949 H 0.44081 0.77704 0.30158 0.0
H2950 H 0.39388 0.80363 0.36987 0.0
H2951 H 0.38243 0.82942 0.3726 0.0
H2952 H 0.40985 0.83104 0.38781 0.0
H2953 H 0.42987 0.86434 0.36768 0.0
H2954 H 0.4022 0.86361 0.35303 0.0
H2955 H 0.42611 0.86048 0.33615 0.0
H2956 H 0.40381 0.77733 0.28058 0.0
H2957 H 0.3629 0.77739 0.27023 0.0
H2958 H 0.36432 0.82821 0.33393 0.0
C2959 C 0.44727 0.81766 0.36336 0.0
C2960 C 0.46077 0.80123 0.35864 0.0
C2961 C 0.45967 0.78763 0.336 0.0
C2962 C 0.44326 0.78888 0.31845 0.0
C2963 C 0.42873 0.80403 0.32415 0.0
C2964 C 0.4309 0.81853 0.34604 0.0
C2965 C 0.41055 0.82937 0.3498 0.0
C2966 C 0.39849 0.82295 0.37126 0.0
C2967 C 0.41762 0.85604 0.35176 0.0
C2968 C 0.39587 0.81758 0.32728 0.0
C2969 C 0.40678 0.80352 0.31238 0.0
C2970 C 0.39537 0.78882 0.29171 0.0
C2971 C 0.37227 0.78872 0.28614 0.0
C2972 C 0.36118 0.80276 0.30159 0.0
C2973 C 0.37295 0.81749 0.32208 0.0
H2974 H 0.05125 0.70402 0.0742 0.0
H2975 H 0.12134 0.71868 0.10622 0.0
H2976 H 0.11615 0.67772 0.1103 0.0
H2977 H 0.02605 0.64725 0.10136 0.0
H2978 H 1.00962 0.63418 0.07334 0.0
H2979 H 0.01392 0.66518 0.0847 0.0
H2980 H 0.02995 0.6726 0.04574 0.0
H2981 H 0.02725 0.64203 0.03492 0.0
H2982 H 0.05499 0.66216 0.03709 0.0
H2983 H 0.11081 0.63679 0.09478 0.0
H2984 H 0.10184 0.59765 0.06911 0.0
H2985 H 0.03509 0.60782 0.04584 0.0
C2986 C 0.06478 0.69862 0.08343 0.0
C2987 C 0.08656 0.71384 0.08981 0.0
C2988 C 0.10451 0.70685 0.1013 0.0
C2989 C 0.10162 0.68368 0.10377 0.0
C2990 C 0.0808 0.66801 0.09445 0.0
C2991 C 0.06223 0.67527 0.08521 0.0
C2992 C 0.04425 0.65477 0.07097 0.0
C2993 C 0.02216 0.65007 0.08335 0.0
C2994 C 0.03885 0.65811 0.04571 0.0
C2995 C 0.05687 0.6356 0.07127 0.0
C2996 C 0.07756 0.64334 0.08538 0.0
C2997 C 0.09408 0.63004 0.08475 0.0
C2998 C 0.08901 0.60801 0.06989 0.0
C2999 C 0.0676 0.59963 0.05599 0.0
C3000 C 0.05138 0.61357 0.0568 0.0
H3001 H 0.07657 0.32915 0.84589 0.0
H3002 H 0.08129 0.28661 0.8981 0.0
H3003 H 0.1231 0.29214 0.89524 0.0
H3004 H 0.11357 0.30483 0.80966 0.0
H3005 H 0.12624 0.33166 0.80053 0.0
H3006 H 0.09745 0.32703 0.80923 0.0
H3007 H 0.10979 0.36602 0.84017 0.0
H3008 H 0.13883 0.37035 0.83184 0.0
H3009 H 0.13377 0.36998 0.86199 0.0
H3010 H 0.16338 0.29979 0.88496 0.0
H3011 H 0.19816 0.30422 0.86363 0.0
H3012 H 0.16653 0.34013 0.81708 0.0
C3013 C 0.0865 0.32118 0.8568 0.0
C3014 C 0.07584 0.30743 0.87211 0.0
C3015 C 0.08918 0.29698 0.886 0.0
C3016 C 0.11296 0.30032 0.8848 0.0
C3017 C 0.12303 0.31405 0.86958 0.0
C3018 C 0.11019 0.32401 0.85555 0.0
C3019 C 0.12465 0.33542 0.83855 0.0
C3020 C 0.1149 0.32405 0.81299 0.0
C3021 C 0.12688 0.36203 0.84344 0.0
C3022 C 0.14736 0.32972 0.84479 0.0
C3023 C 0.14627 0.31794 0.86314 0.0
C3024 C 0.16458 0.30922 0.87073 0.0
C3025 C 0.18417 0.31173 0.85849 0.0
C3026 C 0.18497 0.32253 0.83876 0.0
C3027 C 0.16669 0.33237 0.83247 0.0
H3028 H 0.56423 0.77099 0.95566 0.0
H3029 H 0.63495 0.76939 0.9433 0.0
H3030 H 0.6286 0.72981 0.95275 0.0
H3031 H 0.55938 0.74307 1.00337 0.0
H3032 H 0.53015 0.72655 0.99403 0.0
H3033 H 0.54038 0.75419 0.98553 0.0
H3034 H 0.52891 0.73392 0.94179 0.0
H3035 H 0.51893 0.70608 0.95013 0.0
H3036 H 0.54037 0.70928 0.92967 0.0
H3037 H 0.61496 0.69188 0.96506 0.0
H3038 H 0.59569 0.65839 0.98155 0.0
H3039 H 0.5335 0.68465 0.9844 0.0
C3040 C 0.57848 0.76243 0.95522 0.0
C3041 C 0.6002 0.77315 0.94922 0.0
C3042 C 0.61828 0.76132 0.94813 0.0
C3043 C 0.61476 0.73889 0.95325 0.0
C3044 C 0.59297 0.72868 0.95882 0.0
C3045 C 0.57514 0.74002 0.95974 0.0
C3046 C 0.55344 0.72536 0.96633 0.0
C3047 C 0.54538 0.73805 0.98865 0.0
C3048 C 0.53428 0.71824 0.94575 0.0
C3049 C 0.56229 0.70455 0.97054 0.0
C3050 C 0.58494 0.70655 0.96548 0.0
C3051 C 0.59716 0.68993 0.9688 0.0
C3052 C 0.58609 0.671 0.97808 0.0
C3053 C 0.56319 0.66908 0.98411 0.0
C3054 C 0.55102 0.68582 0.9799 0.0
H3055 H 0.06825 0.77985 0.67548 0.0
H3056 H 0.02934 0.749 0.72736 0.0
H3057 H 0.06574 0.74921 0.74963 0.0
H3058 H 0.11088 0.74708 0.675 0.0
H3059 H 0.13423 0.77072 0.67155 0.0
H3060 H 0.10517 0.7698 0.66058 0.0
H3061 H 0.10894 0.81155 0.68517 0.0
H3062 H 0.13791 0.81233 0.6965 0.0
H3063 H 0.11665 0.81719 0.71641 0.0
H3064 H 0.10534 0.75093 0.76533 0.0
H3065 H 0.14672 0.75245 0.77296 0.0
H3066 H 0.1604 0.78158 0.71079 0.0
C3067 C 0.06736 0.77371 0.69185 0.0
C3068 C 0.04589 0.76491 0.69998 0.0
C3069 C 0.04553 0.75639 0.72111 0.0
C3070 C 0.0661 0.7563 0.73381 0.0
C3071 C 0.08686 0.76491 0.72523 0.0
C3072 C 0.08773 0.77344 0.70475 0.0
C3073 C 0.11238 0.78053 0.69884 0.0
C3074 C 0.11585 0.76616 0.67509 0.0
C3075 C 0.11938 0.80697 0.69926 0.0
C3076 C 0.12511 0.77425 0.71907 0.0
C3077 C 0.11001 0.76553 0.73417 0.0
C3078 C 0.11742 0.75797 0.75384 0.0
C3079 C 0.14092 0.75905 0.75812 0.0
C3080 C 0.15662 0.76738 0.74263 0.0
C3081 C 0.14867 0.77529 0.72297 0.0
H3082 H 0.08409 0.3856 0.47141 0.0
H3083 H 0.13811 0.41524 0.43164 0.0
H3084 H 0.13 0.45465 0.44452 0.0
H3085 H 0.04526 0.41523 0.45309 0.0
H3086 H 0.03205 0.41815 0.4802 0.0
H3087 H 0.04497 0.39382 0.4713 0.0
H3088 H 0.07189 0.40497 0.51038 0.0
H3089 H 0.05829 0.42864 0.51993 0.0
H3090 H 0.0892 0.43448 0.51958 0.0
H3091 H 0.11251 0.49032 0.46037 0.0
H3092 H 0.09079 0.51811 0.48034 0.0
H3093 H 0.04667 0.46131 0.50468 0.0
C3094 C 0.09472 0.4005 0.46592 0.0
C3095 C 0.11172 0.39769 0.45076 0.0
C3096 C 0.12521 0.41736 0.44367 0.0
C3097 C 0.12048 0.43961 0.45062 0.0
C3098 C 0.10222 0.44134 0.46432 0.0
C3099 C 0.08982 0.42218 0.47199 0.0
C3100 C 0.06989 0.42735 0.48479 0.0
C3101 C 0.04669 0.41277 0.47155 0.0
C3102 C 0.07249 0.42366 0.51018 0.0
C3103 C 0.07307 0.45271 0.48378 0.0
C3104 C 0.09164 0.46073 0.47187 0.0
C3105 C 0.09787 0.48409 0.46954 0.0
C3106 C 0.08528 0.49964 0.48056 0.0
C3107 C 0.0669 0.49142 0.49346 0.0
C3108 C 0.06043 0.46772 0.49449 0.0
H3109 H 0.42933 0.22901 0.1986 0.0
H3110 H 0.45242 0.29512 0.17619 0.0
H3111 H 0.42842 0.3132 0.2036 0.0
H3112 H 0.37014 0.23468 0.20565 0.0
H3113 H 0.36869 0.22046 0.23045 0.0
H3114 H 0.38654 0.213 0.20777 0.0
H3115 H 0.42141 0.22272 0.23967 0.0
H3116 H 0.40387 0.23142 0.26225 0.0
H3117 H 0.42986 0.2516 0.25801 0.0
H3118 H 0.4055 0.3247 0.23542 0.0
H3119 H 0.37585 0.32683 0.26261 0.0
H3120 H 0.36822 0.25296 0.26407 0.0
C3121 C 0.42906 0.2472 0.19924 0.0
C3122 C 0.44286 0.26092 0.18583 0.0
C3123 C 0.44192 0.28449 0.1866 0.0
C3124 C 0.42862 0.29493 0.2022 0.0
C3125 C 0.41644 0.28132 0.21641 0.0
C3126 C 0.41587 0.25781 0.21451 0.0
C3127 C 0.40086 0.24695 0.23133 0.0
C3128 C 0.38034 0.22765 0.218 0.0
C3129 C 0.41485 0.23763 0.24885 0.0
C3130 C 0.3933 0.26821 0.24321 0.0
C3131 C 0.40279 0.28789 0.2346 0.0
C3132 C 0.39779 0.30945 0.2423 0.0
C3133 C 0.38115 0.3105 0.25797 0.0
C3134 C 0.36955 0.28989 0.26509 0.0
C3135 C 0.37682 0.26894 0.25889 0.0
H3136 H 0.61593 0.49482 0.34148 0.0
H3137 H 0.66076 0.56447 0.35353 0.0
H3138 H 0.64698 0.57371 0.39232 0.0
H3139 H 0.56817 0.51033 0.37084 0.0
H3140 H 0.56145 0.48558 0.38501 0.0
H3141 H 0.57515 0.48312 0.35817 0.0
H3142 H 0.60829 0.47018 0.3784 0.0
H3143 H 0.59457 0.47242 0.40525 0.0
H3144 H 0.62396 0.4883 0.40518 0.0
H3145 H 0.62605 0.57781 0.4293 0.0
H3146 H 0.60366 0.57488 0.4631 0.0
H3147 H 0.57259 0.50187 0.43262 0.0
C3148 C 0.62353 0.51175 0.35257 0.0
C3149 C 0.64049 0.52864 0.34378 0.0
C3150 C 0.64859 0.55079 0.35926 0.0
C3151 C 0.64055 0.55638 0.38158 0.0
C3152 C 0.62398 0.53978 0.38947 0.0
C3153 C 0.61581 0.51764 0.37572 0.0
C3154 C 0.59809 0.50328 0.38925 0.0
C3155 C 0.5743 0.49509 0.37496 0.0
C3156 C 0.60674 0.48229 0.39484 0.0
C3157 C 0.59726 0.52094 0.41224 0.0
C3158 C 0.61237 0.54192 0.41159 0.0
C3159 C 0.61444 0.56128 0.42992 0.0
C3160 C 0.60131 0.55942 0.44935 0.0
C3161 C 0.58584 0.53824 0.45157 0.0
C3162 C 0.58403 0.51855 0.43225 0.0
H3163 H 0.32104 0.93845 0.0776 0.0
H3164 H 0.2593 0.88888 0.04185 0.0
H3165 H 0.25987 0.8654 0.07257 0.0
H3166 H 0.34897 0.89765 0.09193 0.0
H3167 H 0.3623 0.91378 0.12046 0.0
H3168 H 0.35531 0.92922 0.09827 0.0
H3169 H 0.33077 0.95053 0.12588 0.0
H3170 H 0.33839 0.93575 0.14844 0.0
H3171 H 0.30844 0.93364 0.13954 0.0
H3172 H 0.27037 0.84445 0.10227 0.0
H3173 H 0.2864 0.82958 0.13477 0.0
H3174 H 0.34111 0.89292 0.15298 0.0
C3175 C 0.30695 0.92337 0.07711 0.0
C3176 C 0.28953 0.91579 0.05806 0.0
C3177 C 0.27213 0.89528 0.05691 0.0
C3178 C 0.27255 0.88175 0.07406 0.0
C3179 C 0.2905 0.8891 0.09211 0.0
C3180 C 0.30713 0.90969 0.09417 0.0
C3181 C 0.32543 0.91257 0.11442 0.0
C3182 C 0.34941 0.91334 0.10573 0.0
C3183 C 0.32576 0.93442 0.13319 0.0
C3184 C 0.31649 0.89024 0.12323 0.0
C3185 C 0.29651 0.87692 0.10979 0.0
C3186 C 0.28567 0.85489 0.11328 0.0
C3187 C 0.29497 0.84654 0.13157 0.0
C3188 C 0.31475 0.86025 0.1462 0.0
C3189 C 0.32584 0.88231 0.14199 0.0
H3190 H 0.95726 0.50676 0.86958 0.0
H3191 H 0.97709 0.57793 0.85778 0.0
H3192 H 0.01032 0.58637 0.88775 0.0
H3193 H 0.96795 0.52041 0.92925 0.0
H3194 H 0.97864 0.49488 0.93178 0.0
H3195 H 0.95866 0.49389 0.90723 0.0
H3196 H 0.98752 0.48112 0.87894 0.0
H3197 H 1.00785 0.48251 0.90358 0.0
H3198 H 0.01645 0.49899 0.88124 0.0
H3199 H 0.03832 0.58845 0.92123 0.0
H3200 H 0.05538 0.58533 0.96002 0.0
H3201 H 0.01801 0.51267 0.94824 0.0
C3202 C 0.96866 0.52411 0.87313 0.0
C3203 C 0.9648 0.54165 0.86127 0.0
C3204 C 0.97988 0.56421 0.86666 0.0
C3205 C 0.99896 0.56905 0.88332 0.0
C3206 C 1.00269 0.55109 0.89412 0.0
C3207 C 0.98781 0.52913 0.8894 0.0
C3208 C 0.99395 0.5137 0.90528 0.0
C3209 C 0.97361 0.50527 0.91922 0.0
C3210 C 1.00193 0.49286 0.89142 0.0
C3211 C 0.01374 0.53101 0.92066 0.0
C3212 C 0.01907 0.55224 0.91352 0.0
C3213 C 0.0348 0.57181 0.9268 0.0
C3214 C 0.04441 0.56997 0.94864 0.0
C3215 C 0.03776 0.54885 0.95656 0.0
C3216 C 0.02333 0.5289 0.94206 0.0
H3217 H 0.30779 0.27621 0.58521 0.0
H3218 H 0.27897 0.20139 0.57525 0.0
H3219 H 0.2821 0.20415 0.61804 0.0
H3220 H 0.34958 0.27795 0.63649 0.0
H3221 H 0.34708 0.30645 0.65125 0.0
H3222 H 0.34359 0.29882 0.61964 0.0
H3223 H 0.30348 0.30882 0.61932 0.0
H3224 H 0.30687 0.31636 0.65089 0.0
H3225 H 0.28198 0.2946 0.63582 0.0
H3226 H 0.28383 0.2151 0.6608 0.0
H3227 H 0.28836 0.23339 0.7029 0.0
H3228 H 0.32 0.30058 0.68686 0.0
C3229 C 0.3025 0.26047 0.59219 0.0
C3230 C 0.29318 0.23855 0.57713 0.0
C3231 C 0.28636 0.21825 0.58664 0.0
C3232 C 0.28801 0.21965 0.61086 0.0
C3233 C 0.29712 0.24141 0.62534 0.0
C3234 C 0.30477 0.26143 0.61653 0.0
C3235 C 0.31408 0.28247 0.63636 0.0
C3236 C 0.34013 0.29198 0.6359 0.0
C3237 C 0.3008 0.30169 0.63554 0.0
C3238 C 0.30932 0.27126 0.6575 0.0
C3239 C 0.29953 0.24754 0.65058 0.0
C3240 C 0.29198 0.23353 0.66655 0.0
C3241 C 0.29455 0.24402 0.69033 0.0
C3242 C 0.30487 0.26813 0.69786 0.0
C3243 C 0.31256 0.28195 0.68137 0.0
H3244 H 0.64914 0.50537 0.17978 0.0
H3245 H 0.60353 0.53903 0.22228 0.0
H3246 H 0.58384 0.54519 0.1873 0.0
H3247 H 0.65239 0.54058 0.13466 0.0
H3248 H 0.6498 0.51703 0.10968 0.0
H3249 H 0.66166 0.51449 0.13801 0.0
H3250 H 0.63106 0.47587 0.13582 0.0
H3251 H 0.61921 0.47829 0.10742 0.0
H3252 H 0.60089 0.47556 0.13077 0.0
H3253 H 0.5698 0.55202 0.1481 0.0
H3254 H 0.55902 0.55302 0.10694 0.0
H3255 H 0.60787 0.51134 0.08471 0.0
C3256 C 0.63479 0.51366 0.18185 0.0
C3257 C 0.62883 0.52192 0.20519 0.0
C3258 C 0.60957 0.53266 0.20572 0.0
C3259 C 0.59787 0.53639 0.18552 0.0
C3260 C 0.60442 0.52888 0.16342 0.0
C3261 C 0.62197 0.5171 0.16113 0.0
C3262 C 0.62418 0.51016 0.13445 0.0
C3263 C 0.64847 0.52121 0.12886 0.0
C3264 C 0.61852 0.48337 0.12665 0.0
C3265 C 0.60577 0.52041 0.12265 0.0
C3266 C 0.59487 0.53134 0.14007 0.0
C3267 C 0.57807 0.54312 0.13437 0.0
C3268 C 0.57201 0.54367 0.11059 0.0
C3269 C 0.58203 0.53215 0.0917 0.0
C3270 C 0.59932 0.52019 0.09821 0.0
H3271 H 0.28027 0.90792 0.91579 0.0
H3272 H 0.32163 0.88376 0.96553 0.0
H3273 H 0.32592 0.85155 0.93471 0.0
H3274 H 0.25097 0.84685 0.8823 0.0
H3275 H 0.25084 0.85586 0.85442 0.0
H3276 H 0.24898 0.87626 0.88082 0.0
H3277 H 0.28471 0.90554 0.87167 0.0
H3278 H 0.28679 0.88512 0.84543 0.0
H3279 H 0.31119 0.8962 0.86739 0.0
H3280 H 0.33136 0.82594 0.89817 0.0
H3281 H 0.33206 0.80382 0.85799 0.0
H3282 H 0.28431 0.84039 0.83122 0.0
C3283 C 0.28953 0.89537 0.92026 0.0
C3284 C 0.30067 0.8985 0.94316 0.0
C3285 C 0.31304 0.88188 0.94814 0.0
C3286 C 0.31564 0.86345 0.93074 0.0
C3287 C 0.30538 0.86131 0.90822 0.0
C3288 C 0.29206 0.87633 0.90291 0.0
C3289 C 0.28342 0.86987 0.87688 0.0
C3290 C 0.25697 0.86173 0.87341 0.0
C3291 C 0.29204 0.89041 0.86463 0.0
C3292 C 0.29459 0.84957 0.86859 0.0
C3293 C 0.30732 0.84512 0.88703 0.0
C3294 C 0.3209 0.82872 0.88364 0.0
C3295 C 0.32126 0.81628 0.8608 0.0
C3296 C 0.30775 0.81989 0.84172 0.0
C3297 C 0.29419 0.83673 0.8457 0.0
H3298 H 0.97197 0.53506 0.74414 0.0
H3299 H 0.97557 0.46376 0.74701 0.0
H3300 H 0.97108 0.45368 0.70362 0.0
H3301 H 0.92986 0.52021 0.69126 0.0
H3302 H 0.94404 0.54589 0.68099 0.0
H3303 H 0.94417 0.54644 0.71205 0.0
H3304 H 0.98902 0.55889 0.71761 0.0
H3305 H 0.98879 0.55949 0.68701 0.0
H3306 H 1.00519 0.54179 0.69943 0.0
H3307 H 0.97258 0.45339 0.66138 0.0
H3308 H 0.98655 0.46475 0.62518 0.0
H3309 H 0.97786 0.53491 0.64978 0.0
C3310 C 0.97172 0.51724 0.73575 0.0
C3311 C 0.9742 0.50018 0.74885 0.0
C3312 C 0.97378 0.47711 0.73718 0.0
C3313 C 0.97081 0.47114 0.71263 0.0
C3314 C 0.96777 0.48833 0.70027 0.0
C3315 C 0.96837 0.51094 0.71152 0.0
C3316 C 0.96766 0.52704 0.69459 0.0
C3317 C 0.94507 0.53537 0.69473 0.0
C3318 C 0.98892 0.54799 0.69996 0.0
C3319 C 0.96831 0.51035 0.67197 0.0
C3320 C 0.9676 0.48786 0.67546 0.0
C3321 C 0.97244 0.47064 0.65815 0.0
C3322 C 0.98024 0.47715 0.63762 0.0
C3323 C 0.9831 0.50062 0.63495 0.0
C3324 C 0.97509 0.5167 0.65124 0.0
H3325 H 0.30282 0.21263 0.42888 0.0
H3326 H 0.28735 0.27765 0.46335 0.0
H3327 H 0.29076 0.29242 0.42691 0.0
H3328 H 0.34459 0.24124 0.39047 0.0
H3329 H 0.33555 0.21713 0.36575 0.0
H3330 H 0.33444 0.21188 0.39523 0.0
H3331 H 0.29104 0.19147 0.3855 0.0
H3332 H 0.29194 0.19689 0.35611 0.0
H3333 H 0.27148 0.20708 0.37452 0.0
H3334 H 0.29048 0.29868 0.38766 0.0
H3335 H 0.29164 0.29925 0.34619 0.0
H3336 H 0.30909 0.2313 0.33374 0.0
C3337 C 0.30078 0.23019 0.4288 0.0
C3338 C 0.29474 0.244 0.44902 0.0
C3339 C 0.29184 0.26672 0.44815 0.0
C3340 C 0.29375 0.2753 0.4275 0.0
C3341 C 0.29875 0.26107 0.40774 0.0
C3342 C 0.30267 0.2392 0.40805 0.0
C3343 C 0.30711 0.22768 0.3836 0.0
C3344 C 0.3319 0.22428 0.38377 0.0
C3345 C 0.28933 0.20439 0.3744 0.0
C3346 C 0.30395 0.24613 0.36953 0.0
C3347 C 0.2993 0.26517 0.38421 0.0
C3348 C 0.29467 0.28419 0.37604 0.0
C3349 C 0.29541 0.28425 0.35229 0.0
C3350 C 0.30099 0.26556 0.3366 0.0
C3351 C 0.30495 0.2459 0.34526 0.0
H3352 H 0.4044 0.60515 0.55195 0.0
H3353 H 0.37552 0.58041 0.47929 0.0
H3354 H 0.40951 0.56491 0.47004 0.0
H3355 H 0.46302 0.62409 0.54055 0.0
H3356 H 0.47592 0.61425 0.56444 0.0
H3357 H 0.44842 0.62187 0.56659 0.0
H3358 H 0.4303 0.58091 0.57466 0.0
H3359 H 0.45784 0.57328 0.57268 0.0
H3360 H 0.43271 0.55511 0.5543 0.0
H3361 H 0.4469 0.55231 0.46759 0.0
H3362 H 0.48571 0.54448 0.47227 0.0
H3363 H 0.4936 0.57885 0.54553 0.0
C3364 C 0.40502 0.59602 0.53423 0.0
C3365 C 0.38676 0.59392 0.51641 0.0
C3366 C 0.38888 0.58228 0.49337 0.0
C3367 C 0.40828 0.57335 0.48786 0.0
C3368 C 0.42606 0.5761 0.50546 0.0
C3369 C 0.42472 0.58708 0.52824 0.0
C3370 C 0.44697 0.58817 0.54343 0.0
C3371 C 0.45931 0.61362 0.5544 0.0
C3372 C 0.44164 0.5735 0.5624 0.0
C3373 C 0.46114 0.577 0.52543 0.0
C3374 C 0.44837 0.5697 0.50377 0.0
C3375 C 0.45709 0.55812 0.48447 0.0
C3376 C 0.47929 0.55378 0.48726 0.0
C3377 C 0.49317 0.56143 0.50904 0.0
C3378 C 0.4838 0.57328 0.52842 0.0
H3379 H 0.91859 0.90708 0.55126 0.0
H3380 H 0.86714 0.94158 0.52802 0.0
H3381 H 0.89817 0.97506 0.52358 0.0
H3382 H 0.95825 0.96113 0.58431 0.0
H3383 H 0.98356 0.95078 0.57671 0.0
H3384 H 0.95722 0.93021 0.57927 0.0
H3385 H 0.95829 0.90772 0.53689 0.0
H3386 H 0.98453 0.92831 0.53421 0.0
H3387 H 0.95977 0.92333 0.51308 0.0
H3388 H 0.93506 1.00411 0.52025 0.0
H3389 H 0.97483 0.02664 0.51888 0.0
H3390 H 1.00202 0.97286 0.54397 0.0
C3391 C 0.91383 0.9218 0.54552 0.0
C3392 C 0.89043 0.92177 0.54011 0.0
C3393 C 0.88493 0.94135 0.53257 0.0
C3394 C 0.90244 0.9604 0.52989 0.0
C3395 C 0.92534 0.95973 0.53512 0.0
C3396 C 0.93105 0.94105 0.54301 0.0
C3397 C 0.95697 0.94454 0.54726 0.0
C3398 C 0.96444 0.94679 0.57345 0.0
C3399 C 0.96538 0.9248 0.53194 0.0
C3400 C 0.96499 0.96765 0.53969 0.0
C3401 C 0.9465 0.97632 0.53307 0.0
C3402 C 0.94965 0.99755 0.52557 0.0
C3403 C 0.97229 0.01025 0.52494 0.0
C3404 C 0.99146 1.00152 0.53145 0.0
C3405 C 0.98768 0.97992 0.53886 0.0
H3406 H 0.87694 0.13516 0.30777 0.0
H3407 H 0.91413 0.13315 0.24606 0.0
H3408 H 0.90124 0.16833 0.23853 0.0
H3409 H 0.82737 0.15319 0.28414 0.0
H3410 H 0.82438 0.17203 0.31118 0.0
H3411 H 0.83696 0.1473 0.31187 0.0
H3412 H 0.87339 0.17475 0.33631 0.0
H3413 H 0.86092 0.19957 0.33568 0.0
H3414 H 0.88878 0.19946 0.32533 0.0
H3415 H 0.88426 0.20754 0.23893 0.0
H3416 H 0.86463 0.24033 0.24504 0.0
H3417 H 0.83538 0.21628 0.30493 0.0
C3418 C 0.88252 0.14187 0.29249 0.0
C3419 C 0.89706 0.13022 0.27761 0.0
C3420 C 0.90331 0.14069 0.25803 0.0
C3421 C 0.89592 0.16112 0.25362 0.0
C3422 C 0.8818 0.1719 0.26867 0.0
C3423 C 0.87508 0.1623 0.28773 0.0
C3424 C 0.85968 0.17692 0.30128 0.0
C3425 C 0.83567 0.16143 0.30218 0.0
C3426 C 0.87138 0.18834 0.32614 0.0
C3427 C 0.85812 0.19598 0.28683 0.0
C3428 C 0.8715 0.19308 0.26832 0.0
C3429 C 0.87372 0.20934 0.25336 0.0
C3430 C 0.86234 0.22836 0.25707 0.0
C3431 C 0.84779 0.23186 0.2754 0.0
C3432 C 0.84586 0.2148 0.29043 0.0
H3433 H 0.73878 0.06746 0.05324 0.0
H3434 H 0.75671 0.10416 0.99687 0.0
H3435 H 0.71507 0.09851 0.98427 0.0
H3436 H 0.68624 0.02474 0.02154 0.0
H3437 H 0.67147 0.02594 0.0477 0.0
H3438 H 0.70245 0.03049 0.04992 0.0
H3439 H 0.70612 0.07043 0.0782 0.0
H3440 H 0.67521 0.06616 0.07569 0.0
H3441 H 0.69299 0.09211 0.06875 0.0
H3442 H 0.67014 0.09226 0.98089 0.0
H3443 H 0.62819 0.08314 0.98491 0.0
H3444 H 0.64034 0.05033 0.04349 0.0
C3445 C 0.73401 0.0734 0.03758 0.0
C3446 C 0.75128 0.08561 0.02564 0.0
C3447 C 0.74406 0.09394 1.00581 0.0
C3448 C 0.72032 0.09113 0.99876 0.0
C3449 C 0.70382 0.07976 0.01155 0.0
C3450 C 0.71049 0.07067 0.0303 0.0
C3451 C 0.68969 0.0602 0.042 0.0
C3452 C 0.68732 0.03377 0.04018 0.0
C3453 C 0.6911 0.07299 0.06768 0.0
C3454 C 0.67017 0.06489 0.02715 0.0
C3455 C 0.67854 0.07626 0.00966 0.0
C3456 C 0.66357 0.08306 0.99437 0.0
C3457 C 0.63965 0.07781 0.99681 0.0
C3458 C 0.63064 0.06578 0.01438 0.0
C3459 C 0.64638 0.05938 0.02972 0.0
H3460 H 0.25151 0.51076 0.23908 0.0
H3461 H 0.19416 0.50934 0.28164 0.0
H3462 H 0.20467 0.4777 0.29878 0.0
H3463 H 0.24732 0.44797 0.22706 0.0
H3464 H 0.27814 0.45108 0.22895 0.0
H3465 H 0.26578 0.47323 0.21951 0.0
H3466 H 0.29205 0.50486 0.25243 0.0
H3467 H 0.30433 0.48279 0.26215 0.0
H3468 H 0.29125 0.50137 0.28248 0.0
H3469 H 0.22183 0.44838 0.31236 0.0
H3470 H 0.24378 0.41943 0.31995 0.0
H3471 H 0.28961 0.43915 0.26813 0.0
C3472 C 0.24117 0.50347 0.25183 0.0
C3473 C 0.22213 0.51198 0.25925 0.0
C3474 C 0.20882 0.50261 0.27598 0.0
C3475 C 0.21464 0.48482 0.28575 0.0
C3476 C 0.23375 0.47688 0.27844 0.0
C3477 C 0.24675 0.48566 0.26176 0.0
C3478 C 0.26653 0.474 0.25728 0.0
C3479 C 0.26429 0.46078 0.23168 0.0
C3480 C 0.28992 0.49182 0.26399 0.0
C3481 C 0.26247 0.45735 0.27402 0.0
C3482 C 0.24361 0.4595 0.28618 0.0
C3483 C 0.23661 0.44637 0.30297 0.0
C3484 C 0.24917 0.43021 0.30726 0.0
C3485 C 0.26817 0.42747 0.29461 0.0
C3486 C 0.27502 0.44116 0.27789 0.0
H3487 H 0.27473 0.43154 0.99837 0.0
H3488 H 0.25134 0.38691 0.04748 0.0
H3489 H 0.21367 0.39738 0.0455 0.0
H3490 H 0.24939 0.47743 0.02173 0.0
H3491 H 0.24143 0.48403 0.99383 0.0
H3492 H 0.2657 0.47118 0.99721 0.0
H3493 H 0.24728 0.43715 0.96231 0.0
H3494 H 0.22278 0.44979 0.95896 0.0
H3495 H 0.21853 0.42002 0.96309 0.0
H3496 H 0.17929 0.41345 0.03952 0.0
H3497 H 0.15147 0.43714 0.03296 0.0
H3498 H 0.19765 0.47314 0.98938 0.0
C3499 C 0.26162 0.42384 0.00856 0.0
C3500 C 0.26599 0.40839 0.02308 0.0
C3501 C 0.24845 0.39885 0.03631 0.0
C3502 C 0.22691 0.40453 0.03515 0.0
C3503 C 0.22317 0.4198 0.02072 0.0
C3504 C 0.24004 0.42947 0.00778 0.0
C3505 C 0.23203 0.44668 0.99495 0.0
C3506 C 0.24809 0.47129 1.00239 0.0
C3507 C 0.23004 0.43788 0.96824 0.0
C3508 C 0.20842 0.44587 1.00354 0.0
C3509 C 0.20347 0.42977 0.01787 0.0
C3510 C 0.18297 0.42617 0.02837 0.0
C3511 C 0.16736 0.43986 0.02468 0.0
C3512 C 0.17246 0.45727 0.01094 0.0
C3513 C 0.19309 0.45987 0.9998 0.0
H3514 H 0.91436 0.96884 0.28996 0.0
H3515 H 0.8684 0.98647 0.23958 0.0
H3516 H 0.8428 0.94658 0.2348 0.0
H3517 H 0.91055 0.90999 0.2641 0.0
H3518 H 0.90982 0.89892 0.29091 0.0
H3519 H 0.92351 0.9291 0.2915 0.0
H3520 H 0.89745 0.94268 0.32234 0.0
H3521 H 0.88379 0.91253 0.32213 0.0
H3522 H 0.86655 0.93256 0.31641 0.0
H3523 H 0.82251 0.90214 0.23414 0.0
H3524 H 0.80943 0.86121 0.23886 0.0
H3525 H 0.86817 0.87114 0.29004 0.0
C3526 C 0.8986 0.96461 0.27827 0.0
C3527 C 0.89354 0.98172 0.2655 0.0
C3528 C 0.87277 0.97462 0.25016 0.0
C3529 C 0.85813 0.95161 0.24716 0.0
C3530 C 0.86389 0.93528 0.25977 0.0
C3531 C 0.88352 0.94178 0.27542 0.0
C3532 C 0.88573 0.92117 0.28723 0.0
C3533 C 0.90878 0.91439 0.28318 0.0
C3534 C 0.88325 0.92761 0.31359 0.0
C3535 C 0.86513 0.90142 0.27485 0.0
C3536 C 0.8525 0.91016 0.25937 0.0
C3537 C 0.83245 0.89551 0.24633 0.0
C3538 C 0.82504 0.87193 0.24918 0.0
C3539 C 0.83745 0.86203 0.26474 0.0
C3540 C 0.85807 0.87744 0.2777 0.0
H3541 H 0.71929 0.1284 0.78466 0.0
H3542 H 0.74346 0.10046 0.71931 0.0
H3543 H 0.77516 0.13583 0.72456 0.0
H3544 H 0.72198 0.17987 0.77738 0.0
H3545 H 0.73276 0.19682 0.80635 0.0
H3546 H 0.71782 0.16675 0.80283 0.0
H3547 H 0.75271 0.15732 0.82439 0.0
H3548 H 0.76772 0.18773 0.82866 0.0
H3549 H 0.781 0.16517 0.81468 0.0
H3550 H 0.79415 0.17697 0.72953 0.0
H3551 H 0.80384 0.21996 0.73707 0.0
H3552 H 0.76867 0.22147 0.80039 0.0
C3553 C 0.73212 0.12937 0.77223 0.0
C3554 C 0.7293 0.11214 0.75166 0.0
C3555 C 0.74579 0.1136 0.73531 0.0
C3556 C 0.76381 0.13356 0.73821 0.0
C3557 C 0.76528 0.15124 0.7579 0.0
C3558 C 0.75038 0.14899 0.77516 0.0
C3559 C 0.75317 0.17182 0.79251 0.0
C3560 C 0.73007 0.17924 0.79485 0.0
C3561 C 0.76432 0.17042 0.81648 0.0
C3562 C 0.76969 0.18778 0.78061 0.0
C3563 C 0.77704 0.1755 0.76113 0.0
C3564 C 0.78943 0.18676 0.74531 0.0
C3565 C 0.79455 0.21119 0.74958 0.0
C3566 C 0.78711 0.224 0.76943 0.0
C3567 C 0.77499 0.21212 0.78534 0.0
loop_
_geom_bond_atom_site_label_1
_geom_bond_atom_site_label_2
_geom_bond_distance
_geom_bond_site_symmetry_2
_ccdc_geom_bond_type
Zn0 O3 2.031 . S
Zn0 O5 2.049 . S
Zn0 O10 2.067 . S
Zn1 O2 1.962 . S
Zn1 O4 1.986 . S
Zn1 O6 1.996 . S
Zn1 O9 1.943 . S
O2 Zn1 1.962 . S
O2 C7 1.254 . S
O3 Zn0 2.031 . S
O3 C7 1.269 . S
O4 Zn1 1.986 . S
O4 C11 1.262 . S
O5 Zn0 2.049 . S
O5 C13 1.260 . S
O6 Zn1 1.996 . S
O6 C13 1.257 . S
C7 O2 1.254 . S
C7 O3 1.269 . S
C8 O9 1.249 . S
C8 O10 1.270 . S
O9 Zn1 1.943 . S
O9 C8 1.249 . S
O10 Zn0 2.067 . S
O10 C8 1.270 . S
C11 O4 1.262 . S
C11 O12 1.232 . S
O12 C11 1.232 . S
C13 O5 1.260 . S
C13 O6 1.257 . S
Zn14 O17 2.031 1_455 S
Zn14 O19 2.049 . S
Zn14 O24 2.067 . S
Zn15 O16 1.958 1_455 S
Zn15 O18 1.987 . S
Zn15 O20 1.999 . S
Zn15 O23 1.944 1_455 S
O16 Zn15 1.958 1_655 S
O16 C21 1.254 . S
O17 Zn14 2.031 1_655 S
O17 C21 1.269 . S
O18 Zn15 1.987 . S
O18 C25 1.262 . S
O19 Zn14 2.049 . S
O19 C27 1.260 . S
O20 Zn15 1.999 . S
O20 C27 1.257 . S
C21 O16 1.254 . S
C21 O17 1.269 . S
C22 O23 1.249 . S
C22 O24 1.270 1_655 S
O23 Zn15 1.944 1_655 S
O23 C22 1.249 . S
O24 Zn14 2.067 . S
O24 C22 1.270 1_455 S
C25 O18 1.262 . S
C25 O26 1.232 1_455 S
O26 C25 1.232 1_655 S
C27 O19 1.260 . S
C27 O20 1.257 . S
Zn28 O31 2.031 . S
Zn28 O33 2.049 . S
Zn28 O38 2.067 . S
Zn29 O30 1.962 . S
Zn29 O32 1.986 . S
Zn29 O34 1.996 . S
Zn29 O37 1.943 . S
O30 Zn29 1.962 . S
O30 C35 1.254 . S
O31 Zn28 2.031 . S
O31 C35 1.269 . S
O32 Zn29 1.986 . S
O32 C39 1.262 . S
O33 Zn28 2.049 . S
O33 C41 1.260 . S
O34 Zn29 1.996 . S
O34 C41 1.257 . S
C35 O30 1.254 . S
C35 O31 1.269 . S
C36 O37 1.249 . S
C36 O38 1.270 . S
O37 Zn29 1.943 . S
O37 C36 1.249 . S
O38 Zn28 2.067 . S
O38 C36 1.270 . S
C39 O32 1.262 . S
C39 O40 1.232 . S
O40 C39 1.232 . S
C41 O33 1.260 . S
C41 O34 1.257 . S
Zn42 O45 2.031 . S
Zn42 O47 2.049 . S
Zn42 O52 2.067 . S
Zn43 O44 1.962 . S
Zn43 O46 1.986 . S
Zn43 O48 1.996 . S
Zn43 O51 1.943 . S
O44 Zn43 1.962 . S
O44 C49 1.254 . S
O45 Zn42 2.031 . S
O45 C49 1.269 . S
O46 Zn43 1.986 . S
O46 C53 1.262 . S
O47 Zn42 2.049 . S
O47 C55 1.260 . S
O48 Zn43 1.996 . S
O48 C55 1.257 . S
C49 O44 1.254 . S
C49 O45 1.269 . S
C50 O51 1.249 . S
C50 O52 1.270 . S
O51 Zn43 1.943 . S
O51 C50 1.249 . S
O52 Zn42 2.067 . S
O52 C50 1.270 . S
C53 O46 1.262 . S
C53 O54 1.232 . S
O54 C53 1.232 . S
C55 O47 1.260 . S
C55 O48 1.257 . S
Zn56 O59 2.031 . S
Zn56 O61 2.049 . S
Zn56 O66 2.067 . S
Zn57 O58 1.962 . S
Zn57 O60 1.986 . S
Zn57 O62 1.996 . S
Zn57 O65 1.943 . S
O58 Zn57 1.962 . S
O58 C63 1.254 . S
O59 Zn56 2.031 . S
O59 C63 1.269 . S
O60 Zn57 1.986 . S
O60 C67 1.262 . S
O61 Zn56 2.049 . S
O61 C69 1.260 . S
O62 Zn57 1.996 . S
O62 C69 1.257 . S
C63 O58 1.254 . S
C63 O59 1.269 . S
C64 O65 1.249 . S
C64 O66 1.270 . S
O65 Zn57 1.943 . S
O65 C64 1.249 . S
O66 Zn56 2.067 . S
O66 C64 1.270 . S
C67 O60 1.262 . S
C67 O68 1.232 . S
O68 C67 1.232 . S
C69 O61 1.260 . S
C69 O62 1.257 . S
Zn70 O73 2.031 . S
Zn70 O75 2.049 . S
Zn70 O80 2.067 . S
Zn71 O72 1.962 . S
Zn71 O74 1.986 . S
Zn71 O76 1.996 . S
Zn71 O79 1.943 . S
O72 Zn71 1.962 . S
O72 C77 1.254 . S
O73 Zn70 2.031 . S
O73 C77 1.269 . S
O74 Zn71 1.986 . S
O74 C81 1.262 . S
O75 Zn70 2.049 . S
O75 C83 1.260 . S
O76 Zn71 1.996 . S
O76 C83 1.257 . S
C77 O72 1.254 . S
C77 O73 1.269 . S
C78 O79 1.249 . S
C78 O80 1.270 . S
O79 Zn71 1.943 . S
O79 C78 1.249 . S
O80 Zn70 2.067 . S
O80 C78 1.270 . S
C81 O74 1.262 . S
C81 O82 1.232 . S
O82 C81 1.232 . S
C83 O75 1.260 . S
C83 O76 1.257 . S
Zn84 O87 2.031 . S
Zn84 O89 2.049 . S
Zn84 O94 2.067 . S
Zn85 O86 1.962 . S
Zn85 O88 1.986 . S
Zn85 O90 1.996 . S
Zn85 O93 1.943 . S
O86 Zn85 1.962 . S
O86 C91 1.254 . S
O87 Zn84 2.031 . S
O87 C91 1.269 . S
O88 Zn85 1.986 . S
O88 C95 1.262 . S
O89 Zn84 2.049 . S
O89 C97 1.260 . S
O90 Zn85 1.996 . S
O90 C97 1.257 . S
C91 O86 1.254 . S
C91 O87 1.269 . S
C92 O93 1.249 . S
C92 O94 1.270 . S
O93 Zn85 1.943 . S
O93 C92 1.249 . S
O94 Zn84 2.067 . S
O94 C92 1.270 . S
C95 O88 1.262 . S
C95 O96 1.232 . S
O96 C95 1.232 . S
C97 O89 1.260 . S
C97 O90 1.257 . S
Zn98 O101 2.031 . S
Zn98 O103 2.049 . S
Zn98 O108 2.067 . S
Zn99 O100 1.962 . S
Zn99 O102 1.986 . S
Zn99 O104 1.996 . S
Zn99 O107 1.943 1_455 S
O100 Zn99 1.962 . S
O100 C105 1.254 . S
O101 Zn98 2.031 . S
O101 C105 1.269 1_655 S
O102 Zn99 1.986 . S
O102 C109 1.262 . S
O103 Zn98 2.049 . S
O103 C111 1.260 1_655 S
O104 Zn99 1.996 . S
O104 C111 1.257 . S
C105 O100 1.254 . S
C105 O101 1.269 1_455 S
C106 O107 1.249 . S
C106 O108 1.270 . S
O107 Zn99 1.943 1_655 S
O107 C106 1.249 . S
O108 Zn98 2.067 . S
O108 C106 1.270 . S
C109 O102 1.262 . S
C109 O110 1.232 . S
O110 C109 1.232 . S
C111 O103 1.260 1_455 S
C111 O104 1.257 . S
Zn112 O115 2.031 . S
Zn112 O117 2.049 . S
Zn112 O122 2.067 . S
Zn113 O114 1.962 . S
Zn113 O116 1.986 . S
Zn113 O118 1.996 . S
Zn113 O121 1.943 1_545 S
O114 Zn113 1.962 . S
O114 C119 1.254 . S
O115 Zn112 2.031 . S
O115 C119 1.269 1_565 S
O116 Zn113 1.986 . S
O116 C123 1.262 . S
O117 Zn112 2.049 . S
O117 C125 1.260 . S
O118 Zn113 1.996 . S
O118 C125 1.257 1_545 S
C119 O114 1.254 . S
C119 O115 1.269 1_545 S
C120 O121 1.249 . S
C120 O122 1.270 . S
O121 Zn113 1.943 1_565 S
O121 C120 1.249 . S
O122 Zn112 2.067 . S
O122 C120 1.270 . S
C123 O116 1.262 . S
C123 O124 1.232 . S
O124 C123 1.232 . S
C125 O117 1.260 . S
C125 O118 1.257 1_565 S
Zn126 O129 2.031 . S
Zn126 O131 2.049 . S
Zn126 O136 2.067 . S
Zn127 O128 1.962 . S
Zn127 O130 1.986 . S
Zn127 O132 1.996 . S
Zn127 O135 1.943 . S
O128 Zn127 1.962 . S
O128 C133 1.254 . S
O129 Zn126 2.031 . S
O129 C133 1.269 . S
O130 Zn127 1.986 . S
O130 C137 1.262 . S
O131 Zn126 2.049 . S
O131 C139 1.260 . S
O132 Zn127 1.996 . S
O132 C139 1.257 . S
C133 O128 1.254 . S
C133 O129 1.269 . S
C134 O135 1.249 . S
C134 O136 1.270 . S
O135 Zn127 1.943 . S
O135 C134 1.249 . S
O136 Zn126 2.067 . S
O136 C134 1.270 . S
C137 O130 1.262 . S
C137 O138 1.232 . S
O138 C137 1.232 . S
C139 O131 1.260 . S
C139 O132 1.257 . S
Zn140 O143 2.031 . S
Zn140 O145 2.049 . S
Zn140 O150 2.067 . S
Zn141 O142 1.962 . S
Zn141 O144 1.986 . S
Zn141 O146 2.004 . S
Zn141 O149 1.943 1_565 S
O142 Zn141 1.962 . S
O142 C147 1.254 1_565 S
O143 Zn140 2.031 . S
O143 C147 1.269 . S
O144 Zn141 1.986 . S
O144 C151 1.262 . S
O145 Zn140 2.049 . S
O145 C153 1.260 . S
O146 Zn141 2.004 . S
O146 C153 1.244 1_565 S
C147 O142 1.254 1_545 S
C147 O143 1.269 . S
C148 O149 1.249 . S
C148 O150 1.270 . S
O149 Zn141 1.943 1_545 S
O149 C148 1.249 . S
O150 Zn140 2.067 . S
O150 C148 1.270 . S
C151 O144 1.262 . S
C151 O152 1.232 . S
O152 C151 1.232 . S
C153 O145 1.260 . S
C153 O146 1.244 1_545 S
Zn154 O157 2.031 1_554 S
Zn154 O159 2.049 . S
Zn154 O164 2.067 . S
Zn155 O156 1.962 1_554 S
Zn155 O158 1.986 . S
Zn155 O160 1.996 . S
Zn155 O163 1.943 . S
O156 Zn155 1.962 1_556 S
O156 C161 1.254 . S
O157 Zn154 2.031 1_556 S
O157 C161 1.269 . S
O158 Zn155 1.986 . S
O158 C165 1.262 . S
O159 Zn154 2.049 . S
O159 C167 1.260 . S
O160 Zn155 1.996 . S
O160 C167 1.257 . S
C161 O156 1.254 . S
C161 O157 1.269 . S
C162 O163 1.249 . S
C162 O164 1.270 . S
O163 Zn155 1.943 . S
O163 C162 1.249 . S
O164 Zn154 2.067 . S
O164 C162 1.270 . S
C165 O158 1.262 . S
C165 O166 1.232 1_554 S
O166 C165 1.232 1_556 S
C167 O159 1.260 . S
C167 O160 1.257 . S
Zn168 O171 2.031 1_554 S
Zn168 O173 2.049 . S
Zn168 O178 2.067 . S
Zn169 O170 1.962 1_554 S
Zn169 O172 1.986 . S
Zn169 O174 1.996 . S
Zn169 O177 1.943 . S
O170 Zn169 1.962 1_556 S
O170 C175 1.254 . S
O171 Zn168 2.031 1_556 S
O171 C175 1.269 . S
O172 Zn169 1.986 . S
O172 C179 1.262 . S
O173 Zn168 2.049 . S
O173 C181 1.260 . S
O174 Zn169 1.996 . S
O174 C181 1.257 . S
C175 O170 1.254 . S
C175 O171 1.269 . S
C176 O177 1.249 . S
C176 O178 1.270 . S
O177 Zn169 1.943 . S
O177 C176 1.249 . S
O178 Zn168 2.067 . S
O178 C176 1.270 . S
C179 O172 1.262 . S
C179 O180 1.232 . S
O180 C179 1.232 . S
C181 O173 1.260 . S
C181 O174 1.257 . S
Zn182 O185 2.031 1_554 S
Zn182 O187 2.049 . S
Zn182 O192 2.067 . S
Zn183 O184 1.950 1_554 S
Zn183 O186 1.986 . S
Zn183 O188 1.996 . S
Zn183 O191 1.943 . S
O184 Zn183 1.950 1_556 S
O184 C189 1.260 . S
O185 Zn182 2.031 1_556 S
O185 C189 1.269 . S
O186 Zn183 1.986 . S
O186 C193 1.262 . S
O187 Zn182 2.049 . S
O187 C195 1.260 . S
O188 Zn183 1.996 . S
O188 C195 1.257 . S
C189 O184 1.260 . S
C189 O185 1.269 . S
C190 O191 1.249 . S
C190 O192 1.270 . S
O191 Zn183 1.943 . S
O191 C190 1.249 . S
O192 Zn182 2.067 . S
O192 C190 1.270 . S
C193 O186 1.262 . S
C193 O194 1.232 . S
O194 C193 1.232 . S
C195 O187 1.260 . S
C195 O188 1.257 . S
Zn196 O199 2.031 . S
Zn196 O201 2.049 . S
Zn196 O206 2.067 . S
Zn197 O198 1.962 . S
Zn197 O200 1.986 . S
Zn197 O202 1.996 . S
Zn197 O205 1.943 . S
O198 Zn197 1.962 . S
O198 C203 1.254 . S
O199 Zn196 2.031 . S
O199 C203 1.269 . S
O200 Zn197 1.986 . S
O200 C207 1.262 . S
O201 Zn196 2.049 . S
O201 C209 1.260 . S
O202 Zn197 1.996 . S
O202 C209 1.257 . S
C203 O198 1.254 . S
C203 O199 1.269 . S
C204 O205 1.249 . S
C204 O206 1.270 . S
O205 Zn197 1.943 . S
O205 C204 1.249 . S
O206 Zn196 2.067 . S
O206 C204 1.270 . S
C207 O200 1.262 . S
C207 O208 1.232 . S
O208 C207 1.232 . S
C209 O201 1.260 . S
C209 O202 1.257 . S
Zn210 O213 2.031 . S
Zn210 O215 2.049 . S
Zn210 O220 2.067 . S
Zn211 O212 1.962 . S
Zn211 O214 1.986 . S
Zn211 O216 1.996 . S
Zn211 O219 1.943 . S
O212 Zn211 1.962 . S
O212 C217 1.254 . S
O213 Zn210 2.031 . S
O213 C217 1.269 . S
O214 Zn211 1.986 . S
O214 C221 1.262 . S
O215 Zn210 2.049 . S
O215 C223 1.260 . S
O216 Zn211 1.996 . S
O216 C223 1.257 . S
C217 O212 1.254 . S
C217 O213 1.269 . S
C218 O219 1.249 . S
C218 O220 1.270 . S
O219 Zn211 1.943 . S
O219 C218 1.249 . S
O220 Zn210 2.067 . S
O220 C218 1.270 . S
C221 O214 1.262 . S
C221 O222 1.232 . S
O222 C221 1.232 . S
C223 O215 1.260 . S
C223 O216 1.257 . S
Zn224 O227 2.031 . S
Zn224 O229 2.049 . S
Zn224 O234 2.067 . S
Zn225 O226 1.962 . S
Zn225 O228 1.986 . S
Zn225 O230 1.996 . S
Zn225 O233 1.943 . S
O226 Zn225 1.962 . S
O226 C231 1.254 . S
O227 Zn224 2.031 . S
O227 C231 1.269 . S
O228 Zn225 1.986 . S
O228 C235 1.262 . S
O229 Zn224 2.049 . S
O229 C237 1.260 . S
O230 Zn225 1.996 . S
O230 C237 1.257 . S
C231 O226 1.254 . S
C231 O227 1.269 . S
C232 O233 1.249 . S
C232 O234 1.270 . S
O233 Zn225 1.943 . S
O233 C232 1.249 . S
O234 Zn224 2.067 . S
O234 C232 1.270 . S
C235 O228 1.262 . S
C235 O236 1.232 . S
O236 C235 1.232 . S
C237 O229 1.260 . S
C237 O230 1.257 . S
Zn238 O241 2.031 . S
Zn238 O243 2.049 . S
Zn238 O248 2.067 . S
Zn239 O240 1.962 . S
Zn239 O242 1.986 . S
Zn239 O244 1.996 . S
Zn239 O247 1.943 . S
O240 Zn239 1.962 . S
O240 C245 1.254 . S
O241 Zn238 2.031 . S
O241 C245 1.269 . S
O242 Zn239 1.986 . S
O242 C249 1.262 . S
O243 Zn238 2.049 . S
O243 C251 1.260 . S
O244 Zn239 1.996 . S
O244 C251 1.257 . S
C245 O240 1.254 . S
C245 O241 1.269 . S
C246 O247 1.249 . S
C246 O248 1.270 . S
O247 Zn239 1.943 . S
O247 C246 1.249 . S
O248 Zn238 2.067 . S
O248 C246 1.270 . S
C249 O242 1.262 . S
C249 O250 1.232 . S
O250 C249 1.232 . S
C251 O243 1.260 . S
C251 O244 1.257 . S
Zn252 O255 2.031 . S
Zn252 O257 2.049 . S
Zn252 O262 2.067 . S
Zn253 O254 1.962 . S
Zn253 O256 1.986 . S
Zn253 O258 1.996 . S
Zn253 O261 1.943 . S
O254 Zn253 1.962 . S
O254 C259 1.254 . S
O255 Zn252 2.031 . S
O255 C259 1.269 . S
O256 Zn253 1.986 . S
O256 C263 1.262 . S
O257 Zn252 2.049 . S
O257 C265 1.260 . S
O258 Zn253 1.996 . S
O258 C265 1.257 . S
C259 O254 1.254 . S
C259 O255 1.269 . S
C260 O261 1.249 . S
C260 O262 1.270 . S
O261 Zn253 1.943 . S
O261 C260 1.249 . S
O262 Zn252 2.067 . S
O262 C260 1.270 . S
C263 O256 1.262 . S
C263 O264 1.232 . S
O264 C263 1.232 . S
C265 O257 1.260 . S
C265 O258 1.257 . S
Zn266 O269 2.031 . S
Zn266 O271 2.049 . S
Zn266 O276 2.067 . S
Zn267 O268 1.962 . S
Zn267 O270 1.986 . S
Zn267 O272 1.996 . S
Zn267 O275 1.943 . S
O268 Zn267 1.962 . S
O268 C273 1.254 . S
O269 Zn266 2.031 . S
O269 C273 1.269 . S
O270 Zn267 1.986 . S
O270 C277 1.262 . S
O271 Zn266 2.049 . S
O271 C279 1.260 . S
O272 Zn267 1.996 . S
O272 C279 1.257 . S
C273 O268 1.254 . S
C273 O269 1.269 . S
C274 O275 1.249 . S
C274 O276 1.270 . S
O275 Zn267 1.943 . S
O275 C274 1.249 . S
O276 Zn266 2.067 . S
O276 C274 1.270 . S
C277 O270 1.262 . S
C277 O278 1.232 . S
O278 C277 1.232 . S
C279 O271 1.260 . S
C279 O272 1.257 . S
Zn280 O283 2.031 1_554 S
Zn280 O285 2.049 . S
Zn280 O290 2.067 . S
Zn281 O282 1.962 1_554 S
Zn281 O284 1.986 . S
Zn281 O286 1.996 . S
Zn281 O289 1.943 . S
O282 Zn281 1.962 1_556 S
O282 C287 1.254 . S
O283 Zn280 2.031 1_556 S
O283 C287 1.269 . S
O284 Zn281 1.986 . S
O284 C291 1.262 . S
O285 Zn280 2.049 . S
O285 C293 1.260 . S
O286 Zn281 1.996 . S
O286 C293 1.257 . S
C287 O282 1.254 . S
C287 O283 1.269 . S
C288 O289 1.249 . S
C288 O290 1.270 . S
O289 Zn281 1.943 . S
O289 C288 1.249 . S
O290 Zn280 2.067 . S
O290 C288 1.270 . S
C291 O284 1.262 . S
C291 O292 1.232 1_554 S
O292 C291 1.232 1_556 S
C293 O285 1.260 . S
C293 O286 1.257 . S
Zn294 O297 2.031 . S
Zn294 O299 2.049 . S
Zn294 O304 2.067 . S
Zn295 O296 1.962 . S
Zn295 O298 1.986 . S
Zn295 O300 1.996 . S
Zn295 O303 1.943 . S
O296 Zn295 1.962 . S
O296 C301 1.254 . S
O297 Zn294 2.031 . S
O297 C301 1.269 . S
O298 Zn295 1.986 . S
O298 C305 1.262 . S
O299 Zn294 2.049 . S
O299 C307 1.260 . S
O300 Zn295 1.996 . S
O300 C307 1.257 . S
C301 O296 1.254 . S
C301 O297 1.269 . S
C302 O303 1.249 . S
C302 O304 1.270 . S
O303 Zn295 1.943 . S
O303 C302 1.249 . S
O304 Zn294 2.067 . S
O304 C302 1.270 . S
C305 O298 1.262 . S
C305 O306 1.232 . S
O306 C305 1.232 . S
C307 O299 1.260 . S
C307 O300 1.257 . S
Zn308 O311 2.031 . S
Zn308 O313 2.049 . S
Zn308 O318 2.067 . S
Zn309 O310 1.962 . S
Zn309 O312 1.986 . S
Zn309 O314 1.996 . S
Zn309 O317 1.943 . S
O310 Zn309 1.962 . S
O310 C315 1.254 . S
O311 Zn308 2.031 . S
O311 C315 1.269 . S
O312 Zn309 1.986 . S
O312 C319 1.262 . S
O313 Zn308 2.049 . S
O313 C321 1.260 . S
O314 Zn309 1.996 . S
O314 C321 1.257 . S
C315 O310 1.254 . S
C315 O311 1.269 . S
C316 O317 1.249 . S
C316 O318 1.270 . S
O317 Zn309 1.943 . S
O317 C316 1.249 . S
O318 Zn308 2.067 . S
O318 C316 1.270 . S
C319 O312 1.262 . S
C319 O320 1.232 . S
O320 C319 1.232 . S
C321 O313 1.260 . S
C321 O314 1.257 . S
Zn322 O325 2.031 . S
Zn322 O327 2.049 . S
Zn322 O332 2.067 . S
Zn323 O324 1.962 . S
Zn323 O326 1.986 . S
Zn323 O328 1.996 . S
Zn323 O331 1.943 . S
O324 Zn323 1.962 . S
O324 C329 1.254 . S
O325 Zn322 2.031 . S
O325 C329 1.269 . S
O326 Zn323 1.986 . S
O326 C333 1.262 . S
O327 Zn322 2.049 . S
O327 C335 1.260 . S
O328 Zn323 1.996 . S
O328 C335 1.257 . S
C329 O324 1.254 . S
C329 O325 1.269 . S
C330 O331 1.249 . S
C330 O332 1.270 . S
O331 Zn323 1.943 . S
O331 C330 1.249 . S
O332 Zn322 2.067 . S
O332 C330 1.270 . S
C333 O326 1.262 . S
C333 O334 1.232 . S
O334 C333 1.232 . S
C335 O327 1.260 . S
C335 O328 1.257 . S
Eu336 C345 2.828 . S
Eu336 O347 2.392 . S
Eu336 O349 2.418 . S
Eu336 O354 2.373 . S
Eu336 O357 2.488 . S
Eu336 O358 2.471 1_554 S
Eu336 O359 2.349 1_554 S
Eu337 O346 2.369 . S
Eu337 O350 2.453 1_545 S
Eu337 O351 2.444 1_545 S
Eu337 O352 2.370 . S
Eu337 O355 2.428 . S
Eu337 O356 2.422 1_554 S
Eu337 C366 2.793 1_545 S
C338 O356 1.244 . S
C338 O359 1.265 . S
C339 C340 1.379 1_554 S
C339 C343 1.373 . S
C339 C345 1.505 . S
C340 C339 1.379 1_556 S
C340 C342 1.369 . S
C340 H368 0.930 . S
C341 C343 1.383 . S
C341 C344 1.382 1_554 S
C341 H369 0.930 . S
C342 C340 1.369 . S
C342 C344 1.392 . S
C342 H370 0.930 . S
C343 C339 1.373 . S
C343 C341 1.383 . S
C343 H371 0.931 . S
C344 C341 1.382 1_556 S
C344 C342 1.392 . S
C345 Eu336 2.828 . S
C345 C339 1.505 . S
C345 O357 1.249 . S
C345 O358 1.244 1_554 S
O346 Eu337 2.369 . S
O346 C348 1.258 . S
O347 Eu336 2.392 . S
O347 C348 1.242 . S
C348 O346 1.258 . S
C348 O347 1.242 . S
O349 Eu336 2.418 . S
O349 C353 1.244 . S
O350 Eu337 2.453 1_565 S
O350 C366 1.249 . S
O351 Eu337 2.444 1_565 S
O351 C366 1.244 . S
O352 Eu337 2.370 . S
O352 C353 1.265 . S
C353 O349 1.244 . S
C353 O352 1.265 . S
O354 Eu336 2.373 . S
O354 C367 1.258 . S
O355 Eu337 2.428 . S
O355 C367 1.243 . S
O356 Eu337 2.422 1_556 S
O356 C338 1.244 . S
O357 Eu336 2.488 . S
O357 C345 1.249 . S
O358 Eu336 2.471 1_556 S
O358 C345 1.244 1_556 S
O359 Eu336 2.349 1_556 S
O359 C338 1.265 . S
C360 C361 1.379 . S
C360 C364 1.373 . S
C360 C366 1.505 . S
C361 C360 1.379 . S
C361 C363 1.369 . S
C361 H372 0.930 . S
C362 C364 1.383 . S
C362 C365 1.382 . S
C362 H373 0.930 . S
C363 C361 1.369 . S
C363 C365 1.392 . S
C363 H374 0.930 . S
C364 C360 1.373 . S
C364 C362 1.383 . S
C364 H375 0.931 1_554 S
C365 C362 1.382 . S
C365 C363 1.392 . S
C366 Eu337 2.793 1_565 S
C366 O350 1.249 . S
C366 O351 1.244 . S
C366 C360 1.505 . S
C367 O354 1.258 . S
C367 O355 1.243 . S
H368 C340 0.930 . S
H369 C341 0.930 . S
H370 C342 0.930 . S
H371 C343 0.931 . S
H372 C361 0.930 . S
H373 C362 0.930 . S
H374 C363 0.930 . S
H375 C364 0.931 1_556 S
Eu376 C385 2.828 . S
Eu376 O387 2.392 . S
Eu376 O389 2.418 . S
Eu376 O394 2.373 . S
Eu376 O397 2.488 . S
Eu376 O398 2.471 . S
Eu376 O399 2.349 . S
Eu377 O386 2.373 . S
Eu377 O390 2.488 . S
Eu377 O391 2.471 . S
Eu377 O392 2.349 . S
Eu377 O395 2.392 . S
Eu377 O396 2.418 . S
Eu377 C406 2.828 . S
C378 O396 1.244 . S
C378 O399 1.265 . S
C379 C380 1.379 . S
C379 C383 1.373 . S
C379 C385 1.505 . S
C380 C379 1.379 . S
C380 C382 1.369 . S
C380 H408 0.930 . S
C381 C383 1.383 . S
C381 C384 1.382 . S
C381 H409 0.930 . S
C382 C380 1.369 . S
C382 C384 1.392 . S
C382 H410 0.930 . S
C383 C379 1.373 . S
C383 C381 1.383 . S
C383 H411 0.931 . S
C384 C381 1.382 . S
C384 C382 1.392 . S
C385 Eu376 2.828 . S
C385 C379 1.505 . S
C385 O397 1.249 . S
C385 O398 1.244 . S
O386 Eu377 2.373 . S
O386 C388 1.258 . S
O387 Eu376 2.392 . S
O387 C388 1.242 . S
C388 O386 1.258 . S
C388 O387 1.242 . S
O389 Eu376 2.418 . S
O389 C393 1.244 . S
O390 Eu377 2.488 . S
O390 C406 1.249 . S
O391 Eu377 2.471 . S
O391 C406 1.244 . S
O392 Eu377 2.349 . S
O392 C393 1.265 . S
C393 O389 1.244 . S
C393 O392 1.265 . S
O394 Eu376 2.373 . S
O394 C407 1.258 . S
O395 Eu377 2.392 . S
O395 C407 1.242 . S
O396 Eu377 2.418 . S
O396 C378 1.244 . S
O397 Eu376 2.488 . S
O397 C385 1.249 . S
O398 Eu376 2.471 . S
O398 C385 1.244 . S
O399 Eu376 2.349 . S
O399 C378 1.265 . S
C400 C401 1.379 . S
C400 C404 1.373 . S
C400 C406 1.505 . S
C401 C400 1.379 . S
C401 C403 1.369 . S
C401 H412 0.930 . S
C402 C404 1.383 . S
C402 C405 1.382 . S
C402 H413 0.930 . S
C403 C401 1.369 . S
C403 C405 1.392 . S
C403 H414 0.930 . S
C404 C400 1.373 . S
C404 C402 1.383 . S
C404 H415 0.931 . S
C405 C402 1.382 . S
C405 C403 1.392 . S
C406 Eu377 2.828 . S
C406 O390 1.249 . S
C406 O391 1.244 . S
C406 C400 1.505 . S
C407 O394 1.258 . S
C407 O395 1.242 . S
H408 C380 0.930 . S
H409 C381 0.930 . S
H410 C382 0.930 . S
H411 C383 0.931 . S
H412 C401 0.930 . S
H413 C402 0.930 . S
H414 C403 0.930 . S
H415 C404 0.931 . S
Eu416 C425 2.828 . S
Eu416 O427 2.392 . S
Eu416 O429 2.418 . S
Eu416 O434 2.373 1_545 S
Eu416 O437 2.488 . S
Eu416 O438 2.471 . S
Eu416 O439 2.349 . S
Eu417 O426 2.373 . S
Eu417 O430 2.488 . S
Eu417 O431 2.471 . S
Eu417 O432 2.349 . S
Eu417 O435 2.392 1_545 S
Eu417 O436 2.418 . S
Eu417 C446 2.828 . S
C418 O436 1.244 . S
C418 O439 1.265 . S
C419 C420 1.379 . S
C419 C423 1.373 . S
C419 C425 1.505 1_565 S
C420 C419 1.379 . S
C420 C422 1.369 . S
C420 H448 0.930 . S
C421 C423 1.383 . S
C421 C424 1.382 . S
C421 H449 0.930 . S
C422 C420 1.369 . S
C422 C424 1.392 . S
C422 H450 0.930 . S
C423 C419 1.373 . S
C423 C421 1.383 . S
C423 H451 0.931 . S
C424 C421 1.382 . S
C424 C422 1.392 . S
C425 Eu416 2.828 . S
C425 C419 1.505 1_545 S
C425 O437 1.249 . S
C425 O438 1.244 . S
O426 Eu417 2.373 . S
O426 C428 1.258 . S
O427 Eu416 2.392 . S
O427 C428 1.242 . S
C428 O426 1.258 . S
C428 O427 1.242 . S
O429 Eu416 2.418 . S
O429 C433 1.244 . S
O430 Eu417 2.488 . S
O430 C446 1.249 . S
O431 Eu417 2.471 . S
O431 C446 1.244 . S
O432 Eu417 2.349 . S
O432 C433 1.265 . S
C433 O429 1.244 . S
C433 O432 1.265 . S
O434 Eu416 2.373 1_565 S
O434 C447 1.258 . S
O435 Eu417 2.392 1_565 S
O435 C447 1.242 . S
O436 Eu417 2.418 . S
O436 C418 1.244 . S
O437 Eu416 2.488 . S
O437 C425 1.249 . S
O438 Eu416 2.471 . S
O438 C425 1.244 . S
O439 Eu416 2.349 . S
O439 C418 1.265 . S
C440 C441 1.379 . S
C440 C444 1.373 . S
C440 C446 1.505 . S
C441 C440 1.379 . S
C441 C443 1.369 . S
C441 H452 0.930 . S
C442 C444 1.383 . S
C442 C445 1.382 . S
C442 H453 0.930 . S
C443 C441 1.369 . S
C443 C445 1.392 . S
C443 H454 0.930 . S
C444 C440 1.373 . S
C444 C442 1.383 . S
C444 H455 0.931 . S
C445 C442 1.382 . S
C445 C443 1.392 . S
C446 Eu417 2.828 . S
C446 O430 1.249 . S
C446 O431 1.244 . S
C446 C440 1.505 . S
C447 O434 1.258 . S
C447 O435 1.242 . S
H448 C420 0.930 . S
H449 C421 0.930 . S
H450 C422 0.930 . S
H451 C423 0.931 . S
H452 C441 0.930 . S
H453 C442 0.930 . S
H454 C443 0.930 . S
H455 C444 0.931 . S
Eu456 C465 2.828 . S
Eu456 O467 2.392 . S
Eu456 O469 2.418 . S
Eu456 O474 2.373 . S
Eu456 O477 2.488 . S
Eu456 O478 2.471 . S
Eu456 O479 2.349 . S
Eu457 O466 2.373 . S
Eu457 O470 2.488 . S
Eu457 O471 2.471 . S
Eu457 O472 2.349 . S
Eu457 O475 2.392 . S
Eu457 O476 2.418 . S
Eu457 C486 2.828 . S
C458 O476 1.244 . S
C458 O479 1.265 . S
C459 C460 1.379 . S
C459 C463 1.373 . S
C459 C465 1.505 . S
C460 C459 1.379 . S
C460 C462 1.369 . S
C460 H488 0.930 . S
C461 C463 1.383 . S
C461 C464 1.382 . S
C461 H489 0.930 . S
C462 C460 1.369 . S
C462 C464 1.392 . S
C462 H490 0.930 . S
C463 C459 1.373 . S
C463 C461 1.383 . S
C463 H491 0.931 . S
C464 C461 1.382 . S
C464 C462 1.392 . S
C465 Eu456 2.828 . S
C465 C459 1.505 . S
C465 O477 1.249 . S
C465 O478 1.244 . S
O466 Eu457 2.373 . S
O466 C468 1.258 . S
O467 Eu456 2.392 . S
O467 C468 1.242 . S
C468 O466 1.258 . S
C468 O467 1.242 . S
O469 Eu456 2.418 . S
O469 C473 1.244 . S
O470 Eu457 2.488 . S
O470 C486 1.249 . S
O471 Eu457 2.471 . S
O471 C486 1.244 . S
O472 Eu457 2.349 . S
O472 C473 1.265 . S
C473 O469 1.244 . S
C473 O472 1.265 . S
O474 Eu456 2.373 . S
O474 C487 1.258 . S
O475 Eu457 2.392 . S
O475 C487 1.242 . S
O476 Eu457 2.418 . S
O476 C458 1.244 . S
O477 Eu456 2.488 . S
O477 C465 1.249 . S
O478 Eu456 2.471 . S
O478 C465 1.244 . S
O479 Eu456 2.349 . S
O479 C458 1.265 . S
C480 C481 1.379 . S
C480 C484 1.373 . S
C480 C486 1.505 . S
C481 C480 1.379 . S
C481 C483 1.369 . S
C481 H492 0.930 . S
C482 C484 1.383 . S
C482 C485 1.382 . S
C482 H493 0.930 . S
C483 C481 1.369 . S
C483 C485 1.392 . S
C483 H494 0.930 . S
C484 C480 1.373 . S
C484 C482 1.383 . S
C484 H495 0.931 . S
C485 C482 1.382 . S
C485 C483 1.392 . S
C486 Eu457 2.828 . S
C486 O470 1.249 . S
C486 O471 1.244 . S
C486 C480 1.505 . S
C487 O474 1.258 . S
C487 O475 1.242 . S
H488 C460 0.930 . S
H489 C461 0.930 . S
H490 C462 0.930 . S
H491 C463 0.931 . S
H492 C481 0.930 . S
H493 C482 0.930 . S
H494 C483 0.930 . S
H495 C484 0.931 . S
Eu496 C505 2.828 . S
Eu496 O507 2.392 . S
Eu496 O509 2.418 . S
Eu496 O514 2.373 . S
Eu496 O517 2.488 . S
Eu496 O518 2.471 . S
Eu496 O519 2.349 . S
Eu497 O506 2.376 . S
Eu497 O510 2.465 1_545 S
Eu497 O511 2.449 1_545 S
Eu497 O512 2.361 . S
Eu497 O515 2.411 . S
Eu497 O516 2.428 . S
Eu497 C526 2.803 1_545 S
C498 O516 1.244 . S
C498 O519 1.265 . S
C499 C500 1.379 . S
C499 C503 1.373 . S
C499 C505 1.505 . S
C500 C499 1.379 . S
C500 C502 1.369 . S
C500 H528 0.930 . S
C501 C503 1.383 . S
C501 C504 1.382 . S
C501 H529 0.930 . S
C502 C500 1.369 . S
C502 C504 1.392 . S
C502 H530 0.930 . S
C503 C499 1.373 . S
C503 C501 1.383 . S
C503 H531 0.931 . S
C504 C501 1.382 . S
C504 C502 1.392 . S
C505 Eu496 2.828 . S
C505 C499 1.505 . S
C505 O517 1.249 . S
C505 O518 1.244 . S
O506 Eu497 2.376 . S
O506 C508 1.258 . S
O507 Eu496 2.392 . S
O507 C508 1.242 . S
C508 O506 1.258 . S
C508 O507 1.242 . S
O509 Eu496 2.418 . S
O509 C513 1.244 . S
O510 Eu497 2.465 1_565 S
O510 C526 1.249 . S
O511 Eu497 2.449 1_565 S
O511 C526 1.244 . S
O512 Eu497 2.361 . S
O512 C513 1.265 . S
C513 O509 1.244 . S
C513 O512 1.265 . S
O514 Eu496 2.373 . S
O514 C527 1.258 . S
O515 Eu497 2.411 . S
O515 C527 1.242 . S
O516 Eu497 2.428 . S
O516 C498 1.244 . S
O517 Eu496 2.488 . S
O517 C505 1.249 . S
O518 Eu496 2.471 . S
O518 C505 1.244 . S
O519 Eu496 2.349 . S
O519 C498 1.265 . S
C520 C521 1.379 . S
C520 C524 1.373 . S
C520 C526 1.505 . S
C521 C520 1.379 . S
C521 C523 1.369 . S
C521 H532 0.930 . S
C522 C524 1.383 . S
C522 C525 1.382 . S
C522 H533 0.930 . S
C523 C521 1.369 . S
C523 C525 1.392 . S
C523 H534 0.930 . S
C524 C520 1.373 . S
C524 C522 1.383 . S
C524 H535 0.931 . S
C525 C522 1.382 . S
C525 C523 1.392 . S
C526 Eu497 2.803 1_565 S
C526 O510 1.249 . S
C526 O511 1.244 . S
C526 C520 1.505 . S
C527 O514 1.258 . S
C527 O515 1.242 . S
H528 C500 0.930 . S
H529 C501 0.930 . S
H530 C502 0.930 . S
H531 C503 0.931 . S
H532 C521 0.930 . S
H533 C522 0.930 . S
H534 C523 0.930 . S
H535 C524 0.931 . S
Eu536 C545 2.828 . S
Eu536 O547 2.392 . S
Eu536 O549 2.418 . S
Eu536 O554 2.373 . S
Eu536 O557 2.488 . S
Eu536 O558 2.471 . S
Eu536 O559 2.349 . S
Eu537 O546 2.373 . S
Eu537 O550 2.488 . S
Eu537 O551 2.471 . S
Eu537 O552 2.349 . S
Eu537 O555 2.392 . S
Eu537 O556 2.418 . S
Eu537 C566 2.828 . S
C538 O556 1.244 . S
C538 O559 1.265 . S
C539 C540 1.379 . S
C539 C543 1.373 . S
C539 C545 1.505 . S
C540 C539 1.379 . S
C540 C542 1.369 . S
C540 H568 0.930 . S
C541 C543 1.383 . S
C541 C544 1.382 . S
C541 H569 0.930 . S
C542 C540 1.369 . S
C542 C544 1.392 . S
C542 H570 0.930 . S
C543 C539 1.373 . S
C543 C541 1.383 . S
C543 H571 0.931 . S
C544 C541 1.382 . S
C544 C542 1.392 . S
C545 Eu536 2.828 . S
C545 C539 1.505 . S
C545 O557 1.249 . S
C545 O558 1.244 . S
O546 Eu537 2.373 . S
O546 C548 1.258 . S
O547 Eu536 2.392 . S
O547 C548 1.242 . S
C548 O546 1.258 . S
C548 O547 1.242 . S
O549 Eu536 2.418 . S
O549 C553 1.244 . S
O550 Eu537 2.488 . S
O550 C566 1.249 . S
O551 Eu537 2.471 . S
O551 C566 1.244 . S
O552 Eu537 2.349 . S
O552 C553 1.265 . S
C553 O549 1.244 . S
C553 O552 1.265 . S
O554 Eu536 2.373 . S
O554 C567 1.258 . S
O555 Eu537 2.392 . S
O555 C567 1.242 . S
O556 Eu537 2.418 . S
O556 C538 1.244 . S
O557 Eu536 2.488 . S
O557 C545 1.249 . S
O558 Eu536 2.471 . S
O558 C545 1.244 . S
O559 Eu536 2.349 . S
O559 C538 1.265 . S
C560 C561 1.379 . S
C560 C564 1.373 . S
C560 C566 1.505 . S
C561 C560 1.379 . S
C561 C563 1.369 . S
C561 H572 0.930 . S
C562 C564 1.383 . S
C562 C565 1.382 . S
C562 H573 0.930 . S
C563 C561 1.369 . S
C563 C565 1.392 . S
C563 H574 0.930 . S
C564 C560 1.373 . S
C564 C562 1.383 . S
C564 H575 0.931 . S
C565 C562 1.382 . S
C565 C563 1.392 . S
C566 Eu537 2.828 . S
C566 O550 1.249 . S
C566 O551 1.244 . S
C566 C560 1.505 . S
C567 O554 1.258 . S
C567 O555 1.242 . S
H568 C540 0.930 . S
H569 C541 0.930 . S
H570 C542 0.930 . S
H571 C543 0.931 . S
H572 C561 0.930 . S
H573 C562 0.930 . S
H574 C563 0.930 . S
H575 C564 0.931 . S
Eu576 C585 2.828 . S
Eu576 O587 2.392 . S
Eu576 O589 2.418 1_545 S
Eu576 O594 2.373 . S
Eu576 O597 2.488 . S
Eu576 O598 2.471 . S
Eu576 O599 2.349 . S
Eu577 O586 2.373 . S
Eu577 O590 2.488 . S
Eu577 O591 2.471 . S
Eu577 O592 2.349 . S
Eu577 O595 2.392 . S
Eu577 O596 2.418 1_556 S
Eu577 C606 2.828 . S
C578 O596 1.244 . S
C578 O599 1.265 . S
C579 C580 1.379 . S
C579 C583 1.373 1_545 S
C579 C585 1.505 . S
C580 C579 1.379 . S
C580 C582 1.369 . S
C580 H608 0.930 . S
C581 C583 1.383 . S
C581 C584 1.382 1_565 S
C581 H609 0.930 . S
C582 C580 1.369 . S
C582 C584 1.392 . S
C582 H610 0.930 . S
C583 C579 1.373 1_565 S
C583 C581 1.383 . S
C583 H611 0.931 . S
C584 C581 1.382 1_545 S
C584 C582 1.392 . S
C585 Eu576 2.828 . S
C585 C579 1.505 . S
C585 O597 1.249 . S
C585 O598 1.244 . S
O586 Eu577 2.373 . S
O586 C588 1.258 1_556 S
O587 Eu576 2.392 . S
O587 C588 1.242 . S
C588 O586 1.258 1_554 S
C588 O587 1.242 . S
O589 Eu576 2.418 1_565 S
O589 C593 1.200 1_554 S
O590 Eu577 2.488 . S
O590 C606 1.249 . S
O591 Eu577 2.471 . S
O591 C606 1.244 . S
O592 Eu577 2.349 . S
O592 C593 1.283 1_545 S
C593 O589 1.200 1_556 S
C593 O592 1.283 1_565 S
O594 Eu576 2.373 . S
O594 C607 1.258 . S
O595 Eu577 2.392 . S
O595 C607 1.242 1_556 S
O596 Eu577 2.418 1_554 S
O596 C578 1.244 . S
O597 Eu576 2.488 . S
O597 C585 1.249 . S
O598 Eu576 2.471 . S
O598 C585 1.244 . S
O599 Eu576 2.349 . S
O599 C578 1.265 . S
C600 C601 1.379 . S
C600 C604 1.373 . S
C600 C606 1.505 . S
C601 C600 1.379 . S
C601 C603 1.369 . S
C601 H612 0.930 . S
C602 C604 1.383 . S
C602 C605 1.382 . S
C602 H613 0.930 . S
C603 C601 1.369 . S
C603 C605 1.392 . S
C603 H614 0.930 . S
C604 C600 1.373 . S
C604 C602 1.383 . S
C604 H615 0.931 . S
C605 C602 1.382 . S
C605 C603 1.392 . S
C606 Eu577 2.828 . S
C606 O590 1.249 . S
C606 O591 1.244 . S
C606 C600 1.505 . S
C607 O594 1.258 . S
C607 O595 1.242 1_554 S
H608 C580 0.930 . S
H609 C581 0.930 . S
H610 C582 0.930 . S
H611 C583 0.931 . S
H612 C601 0.930 . S
H613 C602 0.930 . S
H614 C603 0.930 . S
H615 C604 0.931 . S
Eu616 C625 2.828 . S
Eu616 O627 2.392 . S
Eu616 O629 2.418 . S
Eu616 O634 2.373 . S
Eu616 O637 2.488 . S
Eu616 O638 2.471 . S
Eu616 O639 2.349 . S
Eu617 O626 2.373 . S
Eu617 O630 2.488 . S
Eu617 O631 2.471 . S
Eu617 O632 2.349 . S
Eu617 O635 2.392 . S
Eu617 O636 2.418 . S
Eu617 C646 2.828 . S
C618 O636 1.244 . S
C618 O639 1.265 . S
C619 C620 1.379 . S
C619 C623 1.373 . S
C619 C625 1.505 . S
C620 C619 1.379 . S
C620 C622 1.369 . S
C620 H648 0.930 . S
C621 C623 1.383 . S
C621 C624 1.382 . S
C621 H649 0.930 . S
C622 C620 1.369 . S
C622 C624 1.392 . S
C622 H650 0.930 . S
C623 C619 1.373 . S
C623 C621 1.383 . S
C623 H651 0.931 . S
C624 C621 1.382 . S
C624 C622 1.392 . S
C625 Eu616 2.828 . S
C625 C619 1.505 . S
C625 O637 1.249 . S
C625 O638 1.244 . S
O626 Eu617 2.373 . S
O626 C628 1.258 . S
O627 Eu616 2.392 . S
O627 C628 1.242 . S
C628 O626 1.258 . S
C628 O627 1.242 . S
O629 Eu616 2.418 . S
O629 C633 1.244 . S
O630 Eu617 2.488 . S
O630 C646 1.249 . S
O631 Eu617 2.471 . S
O631 C646 1.244 . S
O632 Eu617 2.349 . S
O632 C633 1.265 . S
C633 O629 1.244 . S
C633 O632 1.265 . S
O634 Eu616 2.373 . S
O634 C647 1.258 . S
O635 Eu617 2.392 . S
O635 C647 1.242 . S
O636 Eu617 2.418 . S
O636 C618 1.244 . S
O637 Eu616 2.488 . S
O637 C625 1.249 . S
O638 Eu616 2.471 . S
O638 C625 1.244 . S
O639 Eu616 2.349 . S
O639 C618 1.265 . S
C640 C641 1.379 . S
C640 C644 1.373 . S
C640 C646 1.505 . S
C641 C640 1.379 . S
C641 C643 1.369 . S
C641 H652 0.930 . S
C642 C644 1.383 . S
C642 C645 1.382 . S
C642 H653 0.930 . S
C643 C641 1.369 . S
C643 C645 1.392 . S
C643 H654 0.930 . S
C644 C640 1.373 . S
C644 C642 1.383 . S
C644 H655 0.931 . S
C645 C642 1.382 . S
C645 C643 1.392 . S
C646 Eu617 2.828 . S
C646 O630 1.249 . S
C646 O631 1.244 . S
C646 C640 1.505 . S
C647 O634 1.258 . S
C647 O635 1.242 . S
H648 C620 0.930 . S
H649 C621 0.930 . S
H650 C622 0.930 . S
H651 C623 0.931 . S
H652 C641 0.930 . S
H653 C642 0.930 . S
H654 C643 0.930 . S
H655 C644 0.931 . S
Eu656 C665 2.828 . S
Eu656 O667 2.392 . S
Eu656 O669 2.418 . S
Eu656 O674 2.373 1_554 S
Eu656 O677 2.488 . S
Eu656 O678 2.471 . S
Eu656 O679 2.349 . S
Eu657 O666 2.373 1_556 S
Eu657 O670 2.488 1_556 S
Eu657 O671 2.471 1_556 S
Eu657 O672 2.349 1_556 S
Eu657 O675 2.392 . S
Eu657 O676 2.418 1_556 S
Eu657 C686 2.828 1_556 S
C658 O676 1.244 . S
C658 O679 1.265 . S
C659 C660 1.379 . S
C659 C663 1.373 . S
C659 C665 1.505 1_556 S
C660 C659 1.379 . S
C660 C662 1.369 . S
C660 H688 0.930 . S
C661 C663 1.383 . S
C661 C664 1.382 . S
C661 H689 0.930 . S
C662 C660 1.369 . S
C662 C664 1.392 . S
C662 H690 0.930 . S
C663 C659 1.373 . S
C663 C661 1.383 . S
C663 H691 0.931 1_556 S
C664 C661 1.382 . S
C664 C662 1.392 . S
C665 Eu656 2.828 . S
C665 C659 1.505 1_554 S
C665 O677 1.249 . S
C665 O678 1.244 . S
O666 Eu657 2.373 1_554 S
O666 C668 1.258 . S
O667 Eu656 2.392 . S
O667 C668 1.242 . S
C668 O666 1.258 . S
C668 O667 1.242 . S
O669 Eu656 2.418 . S
O669 C673 1.244 . S
O670 Eu657 2.488 1_554 S
O670 C686 1.249 . S
O671 Eu657 2.471 1_554 S
O671 C686 1.244 . S
O672 Eu657 2.349 1_554 S
O672 C673 1.265 . S
C673 O669 1.244 . S
C673 O672 1.265 . S
O674 Eu656 2.373 1_556 S
O674 C687 1.258 . S
O675 Eu657 2.392 . S
O675 C687 1.242 . S
O676 Eu657 2.418 1_554 S
O676 C658 1.244 . S
O677 Eu656 2.488 . S
O677 C665 1.249 . S
O678 Eu656 2.471 . S
O678 C665 1.244 . S
O679 Eu656 2.349 . S
O679 C658 1.265 . S
C680 C681 1.379 . S
C680 C684 1.373 . S
C680 C686 1.505 . S
C681 C680 1.379 . S
C681 C683 1.369 . S
C681 H692 0.930 . S
C682 C684 1.383 . S
C682 C685 1.382 . S
C682 H693 0.930 . S
C683 C681 1.369 . S
C683 C685 1.392 . S
C683 H694 0.930 . S
C684 C680 1.373 . S
C684 C682 1.383 . S
C684 H695 0.931 . S
C685 C682 1.382 . S
C685 C683 1.392 . S
C686 Eu657 2.828 1_554 S
C686 O670 1.249 . S
C686 O671 1.244 . S
C686 C680 1.505 . S
C687 O674 1.258 . S
C687 O675 1.242 . S
H688 C660 0.930 . S
H689 C661 0.930 . S
H690 C662 0.930 . S
H691 C663 0.931 1_554 S
H692 C681 0.930 . S
H693 C682 0.930 . S
H694 C683 0.930 . S
H695 C684 0.931 . S
Eu696 C705 2.828 . S
Eu696 O707 2.392 . S
Eu696 O709 2.418 . S
Eu696 O714 2.373 . S
Eu696 O717 2.488 . S
Eu696 O718 2.471 . S
Eu696 O719 2.349 . S
Eu697 O706 2.373 . S
Eu697 O710 2.488 . S
Eu697 O711 2.471 . S
Eu697 O712 2.349 . S
Eu697 O715 2.392 . S
Eu697 O716 2.418 . S
Eu697 C726 2.828 . S
C698 O716 1.244 . S
C698 O719 1.265 . S
C699 C700 1.379 . S
C699 C703 1.373 . S
C699 C705 1.505 . S
C700 C699 1.379 . S
C700 C702 1.369 . S
C700 H728 0.930 . S
C701 C703 1.383 . S
C701 C704 1.382 . S
C701 H729 0.930 . S
C702 C700 1.369 . S
C702 C704 1.392 . S
C702 H730 0.930 . S
C703 C699 1.373 . S
C703 C701 1.383 . S
C703 H731 0.931 . S
C704 C701 1.382 . S
C704 C702 1.392 . S
C705 Eu696 2.828 . S
C705 C699 1.505 . S
C705 O717 1.249 . S
C705 O718 1.244 . S
O706 Eu697 2.373 . S
O706 C708 1.258 . S
O707 Eu696 2.392 . S
O707 C708 1.242 . S
C708 O706 1.258 . S
C708 O707 1.242 . S
O709 Eu696 2.418 . S
O709 C713 1.244 . S
O710 Eu697 2.488 . S
O710 C726 1.249 . S
O711 Eu697 2.471 . S
O711 C726 1.244 . S
O712 Eu697 2.349 . S
O712 C713 1.265 . S
C713 O709 1.244 . S
C713 O712 1.265 . S
O714 Eu696 2.373 . S
O714 C727 1.258 . S
O715 Eu697 2.392 . S
O715 C727 1.242 . S
O716 Eu697 2.418 . S
O716 C698 1.244 . S
O717 Eu696 2.488 . S
O717 C705 1.249 . S
O718 Eu696 2.471 . S
O718 C705 1.244 . S
O719 Eu696 2.349 . S
O719 C698 1.265 . S
C720 C721 1.379 . S
C720 C724 1.373 . S
C720 C726 1.505 . S
C721 C720 1.379 . S
C721 C723 1.369 . S
C721 H732 0.930 . S
C722 C724 1.383 . S
C722 C725 1.382 . S
C722 H733 0.930 . S
C723 C721 1.369 . S
C723 C725 1.392 . S
C723 H734 0.930 . S
C724 C720 1.373 . S
C724 C722 1.383 . S
C724 H735 0.931 . S
C725 C722 1.382 . S
C725 C723 1.392 . S
C726 Eu697 2.828 . S
C726 O710 1.249 . S
C726 O711 1.244 . S
C726 C720 1.505 . S
C727 O714 1.258 . S
C727 O715 1.242 . S
H728 C700 0.930 . S
H729 C701 0.930 . S
H730 C702 0.930 . S
H731 C703 0.931 . S
H732 C721 0.930 . S
H733 C722 0.930 . S
H734 C723 0.930 . S
H735 C724 0.931 . S
Eu736 C745 2.828 . S
Eu736 O747 2.392 . S
Eu736 O749 2.418 . S
Eu736 O754 2.373 . S
Eu736 O757 2.488 . S
Eu736 O758 2.471 . S
Eu736 O759 2.349 . S
Eu737 O746 2.373 . S
Eu737 O750 2.488 . S
Eu737 O751 2.471 . S
Eu737 O752 2.349 . S
Eu737 O755 2.392 . S
Eu737 O756 2.418 . S
Eu737 C766 2.828 . S
C738 O756 1.244 . S
C738 O759 1.265 . S
C739 C740 1.379 1_455 S
C739 C743 1.373 . S
C739 C745 1.505 . S
C740 C739 1.379 1_655 S
C740 C742 1.369 . S
C740 H768 0.930 . S
C741 C743 1.383 1_655 S
C741 C744 1.382 . S
C741 H769 0.930 . S
C742 C740 1.369 . S
C742 C744 1.392 . S
C742 H770 0.930 . S
C743 C739 1.373 . S
C743 C741 1.383 1_455 S
C743 H771 0.931 . S
C744 C741 1.382 . S
C744 C742 1.392 . S
C745 Eu736 2.828 . S
C745 C739 1.505 . S
C745 O757 1.249 . S
C745 O758 1.244 . S
O746 Eu737 2.373 . S
O746 C748 1.258 . S
O747 Eu736 2.392 . S
O747 C748 1.242 . S
C748 O746 1.258 . S
C748 O747 1.242 . S
O749 Eu736 2.418 . S
O749 C753 1.244 . S
O750 Eu737 2.488 . S
O750 C766 1.249 . S
O751 Eu737 2.471 . S
O751 C766 1.244 . S
O752 Eu737 2.349 . S
O752 C753 1.265 . S
C753 O749 1.244 . S
C753 O752 1.265 . S
O754 Eu736 2.373 . S
O754 C767 1.258 1_455 S
O755 Eu737 2.392 . S
O755 C767 1.242 1_455 S
O756 Eu737 2.418 . S
O756 C738 1.244 . S
O757 Eu736 2.488 . S
O757 C745 1.249 . S
O758 Eu736 2.471 . S
O758 C745 1.244 . S
O759 Eu736 2.349 . S
O759 C738 1.265 . S
C760 C761 1.379 . S
C760 C764 1.373 . S
C760 C766 1.505 . S
C761 C760 1.379 . S
C761 C763 1.369 . S
C761 H772 0.930 . S
C762 C764 1.383 . S
C762 C765 1.382 . S
C762 H773 0.930 . S
C763 C761 1.369 . S
C763 C765 1.392 . S
C763 H774 0.930 . S
C764 C760 1.373 . S
C764 C762 1.383 . S
C764 H775 0.931 . S
C765 C762 1.382 . S
C765 C763 1.392 . S
C766 Eu737 2.828 . S
C766 O750 1.249 . S
C766 O751 1.244 . S
C766 C760 1.505 . S
C767 O754 1.258 1_655 S
C767 O755 1.242 1_655 S
H768 C740 0.930 . S
H769 C741 0.930 . S
H770 C742 0.930 . S
H771 C743 0.931 . S
H772 C761 0.930 . S
H773 C762 0.930 . S
H774 C763 0.930 . S
H775 C764 0.931 . S
Eu776 C785 2.828 . S
Eu776 O787 2.392 . S
Eu776 O789 2.418 . S
Eu776 O794 2.373 . S
Eu776 O797 2.488 . S
Eu776 O798 2.471 . S
Eu776 O799 2.349 . S
Eu777 O786 2.373 . S
Eu777 O790 2.488 . S
Eu777 O791 2.471 . S
Eu777 O792 2.349 . S
Eu777 O795 2.392 . S
Eu777 O796 2.418 . S
Eu777 C806 2.828 . S
C778 O796 1.244 . S
C778 O799 1.265 . S
C779 C780 1.379 . S
C779 C783 1.373 . S
C779 C785 1.505 . S
C780 C779 1.379 . S
C780 C782 1.369 . S
C780 H808 0.930 . S
C781 C783 1.383 . S
C781 C784 1.382 . S
C781 H809 0.930 . S
C782 C780 1.369 . S
C782 C784 1.392 . S
C782 H810 0.930 . S
C783 C779 1.373 . S
C783 C781 1.383 . S
C783 H811 0.931 . S
C784 C781 1.382 . S
C784 C782 1.392 . S
C785 Eu776 2.828 . S
C785 C779 1.505 . S
C785 O797 1.249 . S
C785 O798 1.244 . S
O786 Eu777 2.373 . S
O786 C788 1.258 . S
O787 Eu776 2.392 . S
O787 C788 1.242 . S
C788 O786 1.258 . S
C788 O787 1.242 . S
O789 Eu776 2.418 . S
O789 C793 1.244 . S
O790 Eu777 2.488 . S
O790 C806 1.249 . S
O791 Eu777 2.471 . S
O791 C806 1.244 . S
O792 Eu777 2.349 . S
O792 C793 1.265 . S
C793 O789 1.244 . S
C793 O792 1.265 . S
O794 Eu776 2.373 . S
O794 C807 1.258 . S
O795 Eu777 2.392 . S
O795 C807 1.242 . S
O796 Eu777 2.418 . S
O796 C778 1.244 . S
O797 Eu776 2.488 . S
O797 C785 1.249 . S
O798 Eu776 2.471 . S
O798 C785 1.244 . S
O799 Eu776 2.349 . S
O799 C778 1.265 . S
C800 C801 1.379 . S
C800 C804 1.373 . S
C800 C806 1.505 . S
C801 C800 1.379 . S
C801 C803 1.369 . S
C801 H812 0.930 . S
C802 C804 1.383 . S
C802 C805 1.382 . S
C802 H813 0.930 . S
C803 C801 1.369 . S
C803 C805 1.392 . S
C803 H814 0.930 . S
C804 C800 1.373 . S
C804 C802 1.383 . S
C804 H815 0.931 . S
C805 C802 1.382 . S
C805 C803 1.392 . S
C806 Eu777 2.828 . S
C806 O790 1.249 . S
C806 O791 1.244 . S
C806 C800 1.505 . S
C807 O794 1.258 . S
C807 O795 1.242 . S
H808 C780 0.930 . S
H809 C781 0.930 . S
H810 C782 0.930 . S
H811 C783 0.931 . S
H812 C801 0.930 . S
H813 C802 0.930 . S
H814 C803 0.930 . S
H815 C804 0.931 . S
Eu816 C825 2.828 . S
Eu816 O827 2.392 . S
Eu816 O829 2.418 . S
Eu816 O834 2.373 . S
Eu816 O837 2.488 . S
Eu816 O838 2.471 . S
Eu816 O839 2.349 . S
Eu817 O826 2.373 . S
Eu817 O830 2.488 . S
Eu817 O831 2.471 . S
Eu817 O832 2.349 . S
Eu817 O835 2.392 . S
Eu817 O836 2.418 . S
Eu817 C846 2.828 . S
C818 O836 1.244 . S
C818 O839 1.265 . S
C819 C820 1.379 . S
C819 C823 1.373 . S
C819 C825 1.505 . S
C820 C819 1.379 . S
C820 C822 1.369 . S
C820 H848 0.930 . S
C821 C823 1.383 . S
C821 C824 1.382 . S
C821 H849 0.930 . S
C822 C820 1.369 . S
C822 C824 1.392 . S
C822 H850 0.930 . S
C823 C819 1.373 . S
C823 C821 1.383 . S
C823 H851 0.931 . S
C824 C821 1.382 . S
C824 C822 1.392 . S
C825 Eu816 2.828 . S
C825 C819 1.505 . S
C825 O837 1.249 . S
C825 O838 1.244 . S
O826 Eu817 2.373 . S
O826 C828 1.258 . S
O827 Eu816 2.392 . S
O827 C828 1.242 . S
C828 O826 1.258 . S
C828 O827 1.242 . S
O829 Eu816 2.418 . S
O829 C833 1.244 . S
O830 Eu817 2.488 . S
O830 C846 1.249 . S
O831 Eu817 2.471 . S
O831 C846 1.244 . S
O832 Eu817 2.349 . S
O832 C833 1.265 . S
C833 O829 1.244 . S
C833 O832 1.265 . S
O834 Eu816 2.373 . S
O834 C847 1.258 . S
O835 Eu817 2.392 . S
O835 C847 1.242 . S
O836 Eu817 2.418 . S
O836 C818 1.244 . S
O837 Eu816 2.488 . S
O837 C825 1.249 . S
O838 Eu816 2.471 . S
O838 C825 1.244 . S
O839 Eu816 2.349 . S
O839 C818 1.265 . S
C840 C841 1.379 . S
C840 C844 1.373 . S
C840 C846 1.505 . S
C841 C840 1.379 . S
C841 C843 1.369 . S
C841 H852 0.930 . S
C842 C844 1.383 . S
C842 C845 1.382 . S
C842 H853 0.930 . S
C843 C841 1.369 . S
C843 C845 1.392 . S
C843 H854 0.930 . S
C844 C840 1.373 . S
C844 C842 1.383 . S
C844 H855 0.931 . S
C845 C842 1.382 . S
C845 C843 1.392 . S
C846 Eu817 2.828 . S
C846 O830 1.249 . S
C846 O831 1.244 . S
C846 C840 1.505 . S
C847 O834 1.258 . S
C847 O835 1.242 . S
H848 C820 0.930 . S
H849 C821 0.930 . S
H850 C822 0.930 . S
H851 C823 0.931 . S
H852 C841 0.930 . S
H853 C842 0.930 . S
H854 C843 0.930 . S
H855 C844 0.931 . S
Eu856 C865 2.828 . S
Eu856 O867 2.392 . S
Eu856 O869 2.418 . S
Eu856 O874 2.373 . S
Eu856 O877 2.488 . S
Eu856 O878 2.471 . S
Eu856 O879 2.349 . S
Eu857 O866 2.373 . S
Eu857 O870 2.488 . S
Eu857 O871 2.471 . S
Eu857 O872 2.349 . S
Eu857 O875 2.392 . S
Eu857 O876 2.418 . S
Eu857 C886 2.828 . S
C858 O876 1.244 . S
C858 O879 1.265 . S
C859 C860 1.379 . S
C859 C863 1.373 . S
C859 C865 1.505 . S
C860 C859 1.379 . S
C860 C862 1.369 . S
C860 H888 0.930 . S
C861 C863 1.383 . S
C861 C864 1.382 . S
C861 H889 0.930 . S
C862 C860 1.369 . S
C862 C864 1.392 . S
C862 H890 0.930 . S
C863 C859 1.373 . S
C863 C861 1.383 . S
C863 H891 0.931 . S
C864 C861 1.382 . S
C864 C862 1.392 . S
C865 Eu856 2.828 . S
C865 C859 1.505 . S
C865 O877 1.249 . S
C865 O878 1.244 . S
O866 Eu857 2.373 . S
O866 C868 1.258 . S
O867 Eu856 2.392 . S
O867 C868 1.242 . S
C868 O866 1.258 . S
C868 O867 1.242 . S
O869 Eu856 2.418 . S
O869 C873 1.244 . S
O870 Eu857 2.488 . S
O870 C886 1.249 . S
O871 Eu857 2.471 . S
O871 C886 1.244 . S
O872 Eu857 2.349 . S
O872 C873 1.265 . S
C873 O869 1.244 . S
C873 O872 1.265 . S
O874 Eu856 2.373 . S
O874 C887 1.258 . S
O875 Eu857 2.392 . S
O875 C887 1.242 . S
O876 Eu857 2.418 . S
O876 C858 1.244 . S
O877 Eu856 2.488 . S
O877 C865 1.249 . S
O878 Eu856 2.471 . S
O878 C865 1.244 . S
O879 Eu856 2.349 . S
O879 C858 1.265 . S
C880 C881 1.379 . S
C880 C884 1.373 . S
C880 C886 1.505 . S
C881 C880 1.379 . S
C881 C883 1.369 . S
C881 H892 0.930 . S
C882 C884 1.383 . S
C882 C885 1.382 . S
C882 H893 0.930 . S
C883 C881 1.369 . S
C883 C885 1.392 . S
C883 H894 0.930 . S
C884 C880 1.373 . S
C884 C882 1.383 . S
C884 H895 0.931 . S
C885 C882 1.382 . S
C885 C883 1.392 . S
C886 Eu857 2.828 . S
C886 O870 1.249 . S
C886 O871 1.244 . S
C886 C880 1.505 . S
C887 O874 1.258 . S
C887 O875 1.242 . S
H888 C860 0.930 . S
H889 C861 0.930 . S
H890 C862 0.930 . S
H891 C863 0.931 . S
H892 C881 0.930 . S
H893 C882 0.930 . S
H894 C883 0.930 . S
H895 C884 0.931 . S
Eu896 C905 2.828 . S
Eu896 O907 2.392 . S
Eu896 O909 2.418 . S
Eu896 O914 2.373 . S
Eu896 O917 2.488 . S
Eu896 O918 2.471 . S
Eu896 O919 2.349 . S
Eu897 O906 2.373 . S
Eu897 O910 2.488 . S
Eu897 O911 2.471 . S
Eu897 O912 2.349 . S
Eu897 O915 2.392 . S
Eu897 O916 2.418 . S
Eu897 C926 2.828 . S
C898 O916 1.244 . S
C898 O919 1.265 . S
C899 C900 1.379 . S
C899 C903 1.373 . S
C899 C905 1.505 . S
C900 C899 1.379 . S
C900 C902 1.369 . S
C900 H928 0.930 . S
C901 C903 1.383 . S
C901 C904 1.382 . S
C901 H929 0.930 . S
C902 C900 1.369 . S
C902 C904 1.392 . S
C902 H930 0.930 . S
C903 C899 1.373 . S
C903 C901 1.383 . S
C903 H931 0.931 . S
C904 C901 1.382 . S
C904 C902 1.392 . S
C905 Eu896 2.828 . S
C905 C899 1.505 . S
C905 O917 1.249 . S
C905 O918 1.244 . S
O906 Eu897 2.373 . S
O906 C908 1.258 . S
O907 Eu896 2.392 . S
O907 C908 1.242 . S
C908 O906 1.258 . S
C908 O907 1.242 . S
O909 Eu896 2.418 . S
O909 C913 1.244 . S
O910 Eu897 2.488 . S
O910 C926 1.249 . S
O911 Eu897 2.471 . S
O911 C926 1.244 . S
O912 Eu897 2.349 . S
O912 C913 1.265 . S
C913 O909 1.244 . S
C913 O912 1.265 . S
O914 Eu896 2.373 . S
O914 C927 1.258 . S
O915 Eu897 2.392 . S
O915 C927 1.242 . S
O916 Eu897 2.418 . S
O916 C898 1.244 . S
O917 Eu896 2.488 . S
O917 C905 1.249 . S
O918 Eu896 2.471 . S
O918 C905 1.244 . S
O919 Eu896 2.349 . S
O919 C898 1.265 . S
C920 C921 1.379 . S
C920 C924 1.373 . S
C920 C926 1.505 . S
C921 C920 1.379 . S
C921 C923 1.369 . S
C921 H932 0.930 . S
C922 C924 1.383 . S
C922 C925 1.382 . S
C922 H933 0.930 . S
C923 C921 1.369 . S
C923 C925 1.392 . S
C923 H934 0.930 . S
C924 C920 1.373 . S
C924 C922 1.383 . S
C924 H935 0.931 . S
C925 C922 1.382 . S
C925 C923 1.392 . S
C926 Eu897 2.828 . S
C926 O910 1.249 . S
C926 O911 1.244 . S
C926 C920 1.505 . S
C927 O914 1.258 . S
C927 O915 1.242 . S
H928 C900 0.930 . S
H929 C901 0.930 . S
H930 C902 0.930 . S
H931 C903 0.931 . S
H932 C921 0.930 . S
H933 C922 0.930 . S
H934 C923 0.930 . S
H935 C924 0.931 . S
Eu936 C945 2.828 1_554 S
Eu936 O947 2.392 . S
Eu936 O949 2.418 1_554 S
Eu936 O954 2.373 1_554 S
Eu936 O957 2.488 1_554 S
Eu936 O958 2.471 . S
Eu936 O959 2.349 . S
Eu937 O946 2.373 . S
Eu937 O950 2.488 1_455 S
Eu937 O951 2.471 1_455 S
Eu937 O952 2.349 1_554 S
Eu937 O955 2.392 . S
Eu937 O956 2.418 . S
Eu937 C966 2.828 1_455 S
C938 O956 1.244 . S
C938 O959 1.265 . S
C939 C940 1.379 1_556 S
C939 C943 1.373 . S
C939 C945 1.505 . S
C940 C939 1.379 1_554 S
C940 C942 1.369 . S
C940 H968 0.930 . S
C941 C943 1.383 . S
C941 C944 1.382 . S
C941 H969 0.930 . S
C942 C940 1.369 . S
C942 C944 1.392 1_554 S
C942 H970 0.930 . S
C943 C939 1.373 . S
C943 C941 1.383 . S
C943 H971 0.931 . S
C944 C941 1.382 . S
C944 C942 1.392 1_556 S
C945 Eu936 2.828 1_556 S
C945 C939 1.505 . S
C945 O957 1.249 . S
C945 O958 1.244 1_556 S
O946 Eu937 2.373 . S
O946 C948 1.258 . S
O947 Eu936 2.392 . S
O947 C948 1.242 . S
C948 O946 1.258 . S
C948 O947 1.242 . S
O949 Eu936 2.418 1_556 S
O949 C953 1.244 . S
O950 Eu937 2.488 1_655 S
O950 C966 1.249 . S
O951 Eu937 2.471 1_655 S
O951 C966 1.244 . S
O952 Eu937 2.349 1_556 S
O952 C953 1.265 . S
C953 O949 1.244 . S
C953 O952 1.265 . S
O954 Eu936 2.373 1_556 S
O954 C967 1.258 1_556 S
O955 Eu937 2.392 . S
O955 C967 1.242 . S
O956 Eu937 2.418 . S
O956 C938 1.244 . S
O957 Eu936 2.488 1_556 S
O957 C945 1.249 . S
O958 Eu936 2.471 . S
O958 C945 1.244 1_554 S
O959 Eu936 2.349 . S
O959 C938 1.265 . S
C960 C961 1.379 . S
C960 C964 1.373 . S
C960 C966 1.505 . S
C961 C960 1.379 . S
C961 C963 1.369 . S
C961 H972 0.930 . S
C962 C964 1.383 . S
C962 C965 1.382 . S
C962 H973 0.930 . S
C963 C961 1.369 . S
C963 C965 1.392 . S
C963 H974 0.930 . S
C964 C960 1.373 . S
C964 C962 1.383 . S
C964 H975 0.931 . S
C965 C962 1.382 . S
C965 C963 1.392 . S
C966 Eu937 2.828 1_655 S
C966 O950 1.249 . S
C966 O951 1.244 . S
C966 C960 1.505 . S
C967 O954 1.258 1_554 S
C967 O955 1.242 . S
H968 C940 0.930 . S
H969 C941 0.930 . S
H970 C942 0.930 . S
H971 C943 0.931 . S
H972 C961 0.930 . S
H973 C962 0.930 . S
H974 C963 0.930 . S
H975 C964 0.931 . S
H976 C988 0.930 . S
H977 C990 0.933 . S
H978 C991 0.930 1_655 S
H979 C995 0.959 . S
H980 C995 0.959 1_554 S
H981 C995 0.961 . S
H982 C996 0.960 . S
H983 C996 0.961 . S
H984 C996 0.959 1_556 S
H985 C999 0.929 . S
H986 C1000 0.931 . S
H987 C1002 0.930 1_554 S
C988 H976 0.930 . S
C988 C989 1.399 . S
C988 C993 1.399 . S
C989 C988 1.399 . S
C989 C990 1.376 1_455 S
C990 H977 0.933 . S
C990 C989 1.376 1_655 S
C990 C991 1.386 1_655 S
C991 H978 0.930 1_455 S
C991 C990 1.386 1_455 S
C991 C992 1.390 . S
C992 C991 1.390 . S
C992 C993 1.394 . S
C992 C998 1.465 . S
C993 C988 1.399 . S
C993 C992 1.394 . S
C993 C994 1.516 . S
C994 C993 1.516 . S
C994 C995 1.502 . S
C994 C996 1.561 1_556 S
C994 C997 1.526 . S
C995 H979 0.959 . S
C995 H980 0.959 1_556 S
C995 H981 0.961 . S
C995 C994 1.502 . S
C996 H982 0.960 . S
C996 H983 0.961 . S
C996 H984 0.959 1_554 S
C996 C994 1.561 1_554 S
C997 C994 1.526 . S
C997 C998 1.396 . S
C997 C1002 1.390 . S
C998 C992 1.465 . S
C998 C997 1.396 . S
C998 C999 1.399 . S
C999 H985 0.929 . S
C999 C998 1.399 . S
C999 C1000 1.385 . S
C1000 H986 0.931 . S
C1000 C999 1.385 . S
C1000 C1001 1.389 . S
C1001 C1000 1.389 . S
C1001 C1002 1.387 . S
C1002 H987 0.930 1_556 S
C1002 C997 1.390 . S
C1002 C1001 1.387 . S
H1003 C1015 0.930 . S
H1004 C1017 0.930 . S
H1005 C1018 0.930 . S
H1006 C1022 0.959 . S
H1007 C1022 0.959 . S
H1008 C1022 0.961 . S
H1009 C1023 0.960 . S
H1010 C1023 0.961 . S
H1011 C1023 0.959 . S
H1012 C1026 0.929 . S
H1013 C1027 0.931 . S
H1014 C1029 0.930 . S
C1015 H1003 0.930 . S
C1015 C1016 1.399 . S
C1015 C1020 1.399 . S
C1016 C1015 1.399 . S
C1016 C1017 1.376 . S
C1017 H1004 0.930 . S
C1017 C1016 1.376 . S
C1017 C1018 1.388 . S
C1018 H1005 0.930 . S
C1018 C1017 1.388 . S
C1018 C1019 1.390 . S
C1019 C1018 1.390 . S
C1019 C1020 1.394 . S
C1019 C1025 1.465 . S
C1020 C1015 1.399 . S
C1020 C1019 1.394 . S
C1020 C1021 1.516 . S
C1021 C1020 1.516 . S
C1021 C1022 1.502 . S
C1021 C1023 1.561 . S
C1021 C1024 1.526 . S
C1022 H1006 0.959 . S
C1022 H1007 0.959 . S
C1022 H1008 0.961 . S
C1022 C1021 1.502 . S
C1023 H1009 0.960 . S
C1023 H1010 0.961 . S
C1023 H1011 0.959 . S
C1023 C1021 1.561 . S
C1024 C1021 1.526 . S
C1024 C1025 1.396 . S
C1024 C1029 1.390 . S
C1025 C1019 1.465 . S
C1025 C1024 1.396 . S
C1025 C1026 1.399 . S
C1026 H1012 0.929 . S
C1026 C1025 1.399 . S
C1026 C1027 1.385 . S
C1027 H1013 0.931 . S
C1027 C1026 1.385 . S
C1027 C1028 1.389 . S
C1028 C1027 1.389 . S
C1028 C1029 1.387 . S
C1029 H1014 0.930 . S
C1029 C1024 1.390 . S
C1029 C1028 1.387 . S
H1030 C1042 0.930 . S
H1031 C1044 0.930 . S
H1032 C1045 0.930 . S
H1033 C1049 0.959 . S
H1034 C1049 0.959 . S
H1035 C1049 0.961 . S
H1036 C1050 0.960 . S
H1037 C1050 0.961 . S
H1038 C1050 0.959 . S
H1039 C1053 0.929 . S
H1040 C1054 0.931 . S
H1041 C1056 0.930 . S
C1042 H1030 0.930 . S
C1042 C1043 1.399 . S
C1042 C1047 1.399 . S
C1043 C1042 1.399 . S
C1043 C1044 1.376 . S
C1044 H1031 0.930 . S
C1044 C1043 1.376 . S
C1044 C1045 1.388 . S
C1045 H1032 0.930 . S
C1045 C1044 1.388 . S
C1045 C1046 1.390 . S
C1046 C1045 1.390 . S
C1046 C1047 1.394 . S
C1046 C1052 1.465 . S
C1047 C1042 1.399 . S
C1047 C1046 1.394 . S
C1047 C1048 1.516 . S
C1048 C1047 1.516 . S
C1048 C1049 1.502 . S
C1048 C1050 1.561 . S
C1048 C1051 1.526 . S
C1049 H1033 0.959 . S
C1049 H1034 0.959 . S
C1049 H1035 0.961 . S
C1049 C1048 1.502 . S
C1050 H1036 0.960 . S
C1050 H1037 0.961 . S
C1050 H1038 0.959 . S
C1050 C1048 1.561 . S
C1051 C1048 1.526 . S
C1051 C1052 1.396 . S
C1051 C1056 1.390 . S
C1052 C1046 1.465 . S
C1052 C1051 1.396 . S
C1052 C1053 1.399 . S
C1053 H1039 0.929 . S
C1053 C1052 1.399 . S
C1053 C1054 1.385 . S
C1054 H1040 0.931 . S
C1054 C1053 1.385 . S
C1054 C1055 1.389 . S
C1055 C1054 1.389 . S
C1055 C1056 1.387 . S
C1056 H1041 0.930 . S
C1056 C1051 1.390 . S
C1056 C1055 1.387 . S
H1057 C1069 0.930 . S
H1058 C1071 0.930 . S
H1059 C1072 0.930 . S
H1060 C1076 0.959 . S
H1061 C1076 0.959 . S
H1062 C1076 0.961 . S
H1063 C1077 0.960 . S
H1064 C1077 0.961 . S
H1065 C1077 0.959 . S
H1066 C1080 0.929 . S
H1067 C1081 0.931 . S
H1068 C1083 0.930 . S
C1069 H1057 0.930 . S
C1069 C1070 1.399 . S
C1069 C1074 1.399 . S
C1070 C1069 1.399 . S
C1070 C1071 1.376 . S
C1071 H1058 0.930 . S
C1071 C1070 1.376 . S
C1071 C1072 1.388 . S
C1072 H1059 0.930 . S
C1072 C1071 1.388 . S
C1072 C1073 1.390 . S
C1073 C1072 1.390 . S
C1073 C1074 1.394 . S
C1073 C1079 1.465 . S
C1074 C1069 1.399 . S
C1074 C1073 1.394 . S
C1074 C1075 1.516 . S
C1075 C1074 1.516 . S
C1075 C1076 1.502 . S
C1075 C1077 1.561 . S
C1075 C1078 1.526 . S
C1076 H1060 0.959 . S
C1076 H1061 0.959 . S
C1076 H1062 0.961 . S
C1076 C1075 1.502 . S
C1077 H1063 0.960 . S
C1077 H1064 0.961 . S
C1077 H1065 0.959 . S
C1077 C1075 1.561 . S
C1078 C1075 1.526 . S
C1078 C1079 1.396 . S
C1078 C1083 1.390 . S
C1079 C1073 1.465 . S
C1079 C1078 1.396 . S
C1079 C1080 1.399 . S
C1080 H1066 0.929 . S
C1080 C1079 1.399 . S
C1080 C1081 1.385 . S
C1081 H1067 0.931 . S
C1081 C1080 1.385 . S
C1081 C1082 1.389 . S
C1082 C1081 1.389 . S
C1082 C1083 1.387 . S
C1083 H1068 0.930 . S
C1083 C1078 1.390 . S
C1083 C1082 1.387 . S
H1084 C1096 0.930 . S
H1085 C1098 0.925 1_655 S
H1086 C1099 0.930 . S
H1087 C1103 0.959 . S
H1088 C1103 0.959 . S
H1089 C1103 0.961 . S
H1090 C1104 0.960 . S
H1091 C1104 0.961 . S
H1092 C1104 0.959 . S
H1093 C1107 0.929 . S
H1094 C1108 0.931 . S
H1095 C1110 0.930 . S
C1096 H1084 0.930 . S
C1096 C1097 1.399 . S
C1096 C1101 1.399 . S
C1097 C1096 1.399 . S
C1097 C1098 1.376 . S
C1098 H1085 0.925 1_455 S
C1098 C1097 1.376 . S
C1098 C1099 1.388 . S
C1099 H1086 0.930 . S
C1099 C1098 1.388 . S
C1099 C1100 1.390 . S
C1100 C1099 1.390 . S
C1100 C1101 1.394 . S
C1100 C1106 1.465 . S
C1101 C1096 1.399 . S
C1101 C1100 1.394 . S
C1101 C1102 1.516 . S
C1102 C1101 1.516 . S
C1102 C1103 1.502 . S
C1102 C1104 1.561 . S
C1102 C1105 1.526 . S
C1103 H1087 0.959 . S
C1103 H1088 0.959 . S
C1103 H1089 0.961 . S
C1103 C1102 1.502 . S
C1104 H1090 0.960 . S
C1104 H1091 0.961 . S
C1104 H1092 0.959 . S
C1104 C1102 1.561 . S
C1105 C1102 1.526 . S
C1105 C1106 1.396 . S
C1105 C1110 1.390 . S
C1106 C1100 1.465 . S
C1106 C1105 1.396 . S
C1106 C1107 1.399 . S
C1107 H1093 0.929 . S
C1107 C1106 1.399 . S
C1107 C1108 1.385 . S
C1108 H1094 0.931 . S
C1108 C1107 1.385 . S
C1108 C1109 1.389 . S
C1109 C1108 1.389 . S
C1109 C1110 1.387 . S
C1110 H1095 0.930 . S
C1110 C1105 1.390 . S
C1110 C1109 1.387 . S
H1111 C1123 0.930 . S
H1112 C1125 0.930 . S
H1113 C1126 0.930 . S
H1114 C1130 0.959 . S
H1115 C1130 0.959 . S
H1116 C1130 0.961 . S
H1117 C1131 0.960 . S
H1118 C1131 0.961 . S
H1119 C1131 0.959 . S
H1120 C1134 0.929 . S
H1121 C1135 0.931 . S
H1122 C1137 0.930 . S
C1123 H1111 0.930 . S
C1123 C1124 1.399 . S
C1123 C1128 1.399 . S
C1124 C1123 1.399 . S
C1124 C1125 1.376 . S
C1125 H1112 0.930 . S
C1125 C1124 1.376 . S
C1125 C1126 1.388 . S
C1126 H1113 0.930 . S
C1126 C1125 1.388 . S
C1126 C1127 1.390 . S
C1127 C1126 1.390 . S
C1127 C1128 1.394 . S
C1127 C1133 1.465 . S
C1128 C1123 1.399 . S
C1128 C1127 1.394 . S
C1128 C1129 1.516 . S
C1129 C1128 1.516 . S
C1129 C1130 1.502 . S
C1129 C1131 1.561 . S
C1129 C1132 1.526 . S
C1130 H1114 0.959 . S
C1130 H1115 0.959 . S
C1130 H1116 0.961 . S
C1130 C1129 1.502 . S
C1131 H1117 0.960 . S
C1131 H1118 0.961 . S
C1131 H1119 0.959 . S
C1131 C1129 1.561 . S
C1132 C1129 1.526 . S
C1132 C1133 1.396 . S
C1132 C1137 1.390 . S
C1133 C1127 1.465 . S
C1133 C1132 1.396 . S
C1133 C1134 1.399 . S
C1134 H1120 0.929 . S
C1134 C1133 1.399 . S
C1134 C1135 1.385 . S
C1135 H1121 0.931 . S
C1135 C1134 1.385 . S
C1135 C1136 1.389 . S
C1136 C1135 1.389 . S
C1136 C1137 1.387 . S
C1137 H1122 0.930 . S
C1137 C1132 1.390 . S
C1137 C1136 1.387 . S
H1138 C1150 0.930 . S
H1139 C1152 0.930 . S
H1140 C1153 0.930 . S
H1141 C1157 0.959 . S
H1142 C1157 0.959 . S
H1143 C1157 0.961 . S
H1144 C1158 0.960 . S
H1145 C1158 0.961 . S
H1146 C1158 0.959 . S
H1147 C1161 0.929 . S
H1148 C1162 0.931 . S
H1149 C1164 0.930 . S
C1150 H1138 0.930 . S
C1150 C1151 1.399 . S
C1150 C1155 1.399 . S
C1151 C1150 1.399 . S
C1151 C1152 1.376 . S
C1152 H1139 0.930 . S
C1152 C1151 1.376 . S
C1152 C1153 1.388 . S
C1153 H1140 0.930 . S
C1153 C1152 1.388 . S
C1153 C1154 1.390 . S
C1154 C1153 1.390 . S
C1154 C1155 1.394 . S
C1154 C1160 1.465 . S
C1155 C1150 1.399 . S
C1155 C1154 1.394 . S
C1155 C1156 1.516 . S
C1156 C1155 1.516 . S
C1156 C1157 1.502 . S
C1156 C1158 1.561 . S
C1156 C1159 1.526 . S
C1157 H1141 0.959 . S
C1157 H1142 0.959 . S
C1157 H1143 0.961 . S
C1157 C1156 1.502 . S
C1158 H1144 0.960 . S
C1158 H1145 0.961 . S
C1158 H1146 0.959 . S
C1158 C1156 1.561 . S
C1159 C1156 1.526 . S
C1159 C1160 1.396 . S
C1159 C1164 1.390 . S
C1160 C1154 1.465 . S
C1160 C1159 1.396 . S
C1160 C1161 1.399 . S
C1161 H1147 0.929 . S
C1161 C1160 1.399 . S
C1161 C1162 1.385 . S
C1162 H1148 0.931 . S
C1162 C1161 1.385 . S
C1162 C1163 1.389 . S
C1163 C1162 1.389 . S
C1163 C1164 1.387 . S
C1164 H1149 0.930 . S
C1164 C1159 1.390 . S
C1164 C1163 1.387 . S
H1165 C1177 0.930 . S
H1166 C1179 0.930 . S
H1167 C1180 0.930 . S
H1168 C1184 0.959 . S
H1169 C1184 0.959 . S
H1170 C1184 0.961 . S
H1171 C1185 0.960 . S
H1172 C1185 0.961 . S
H1173 C1185 0.959 . S
H1174 C1188 0.929 . S
H1175 C1189 0.931 . S
H1176 C1191 0.930 . S
C1177 H1165 0.930 . S
C1177 C1178 1.399 . S
C1177 C1182 1.399 . S
C1178 C1177 1.399 . S
C1178 C1179 1.376 . S
C1179 H1166 0.930 . S
C1179 C1178 1.376 . S
C1179 C1180 1.388 . S
C1180 H1167 0.930 . S
C1180 C1179 1.388 . S
C1180 C1181 1.390 . S
C1181 C1180 1.390 . S
C1181 C1182 1.394 . S
C1181 C1187 1.465 . S
C1182 C1177 1.399 . S
C1182 C1181 1.394 . S
C1182 C1183 1.516 . S
C1183 C1182 1.516 . S
C1183 C1184 1.502 . S
C1183 C1185 1.561 . S
C1183 C1186 1.526 . S
C1184 H1168 0.959 . S
C1184 H1169 0.959 . S
C1184 H1170 0.961 . S
C1184 C1183 1.502 . S
C1185 H1171 0.960 . S
C1185 H1172 0.961 . S
C1185 H1173 0.959 . S
C1185 C1183 1.561 . S
C1186 C1183 1.526 . S
C1186 C1187 1.396 . S
C1186 C1191 1.390 . S
C1187 C1181 1.465 . S
C1187 C1186 1.396 . S
C1187 C1188 1.399 . S
C1188 H1174 0.929 . S
C1188 C1187 1.399 . S
C1188 C1189 1.385 . S
C1189 H1175 0.931 . S
C1189 C1188 1.385 . S
C1189 C1190 1.389 . S
C1190 C1189 1.389 . S
C1190 C1191 1.387 . S
C1191 H1176 0.930 . S
C1191 C1186 1.390 . S
C1191 C1190 1.387 . S
H1192 C1204 0.930 . S
H1193 C1206 0.930 . S
H1194 C1207 0.930 . S
H1195 C1211 0.959 . S
H1196 C1211 0.959 . S
H1197 C1211 0.961 . S
H1198 C1212 0.940 1_565 S
H1199 C1212 0.936 1_565 S
H1200 C1212 0.981 . S
H1201 C1215 0.929 . S
H1202 C1216 0.931 . S
H1203 C1218 0.930 . S
C1204 H1192 0.930 . S
C1204 C1205 1.399 . S
C1204 C1209 1.399 . S
C1205 C1204 1.399 . S
C1205 C1206 1.376 . S
C1206 H1193 0.930 . S
C1206 C1205 1.376 . S
C1206 C1207 1.388 . S
C1207 H1194 0.930 . S
C1207 C1206 1.388 . S
C1207 C1208 1.390 . S
C1208 C1207 1.390 . S
C1208 C1209 1.394 . S
C1208 C1214 1.465 1_655 S
C1209 C1204 1.399 . S
C1209 C1208 1.394 . S
C1209 C1210 1.516 1_655 S
C1210 C1209 1.516 1_455 S
C1210 C1211 1.502 . S
C1210 C1212 1.586 1_455 S
C1210 C1213 1.526 . S
C1211 H1195 0.959 . S
C1211 H1196 0.959 . S
C1211 H1197 0.961 . S
C1211 C1210 1.502 . S
C1212 H1198 0.940 1_545 S
C1212 H1199 0.936 1_545 S
C1212 H1200 0.981 . S
C1212 C1210 1.586 1_655 S
C1213 C1210 1.526 . S
C1213 C1214 1.396 . S
C1213 C1218 1.390 . S
C1214 C1208 1.465 1_455 S
C1214 C1213 1.396 . S
C1214 C1215 1.399 . S
C1215 H1201 0.929 . S
C1215 C1214 1.399 . S
C1215 C1216 1.385 . S
C1216 H1202 0.931 . S
C1216 C1215 1.385 . S
C1216 C1217 1.389 . S
C1217 C1216 1.389 . S
C1217 C1218 1.387 . S
C1218 H1203 0.930 . S
C1218 C1213 1.390 . S
C1218 C1217 1.387 . S
H1219 C1231 0.930 . S
H1220 C1233 0.930 . S
H1221 C1234 0.930 . S
H1222 C1238 0.959 . S
H1223 C1238 0.959 . S
H1224 C1238 0.961 . S
H1225 C1239 0.960 . S
H1226 C1239 0.961 . S
H1227 C1239 0.959 . S
H1228 C1242 0.929 . S
H1229 C1243 0.931 . S
H1230 C1245 0.930 . S
C1231 H1219 0.930 . S
C1231 C1232 1.399 . S
C1231 C1236 1.399 . S
C1232 C1231 1.399 . S
C1232 C1233 1.376 . S
C1233 H1220 0.930 . S
C1233 C1232 1.376 . S
C1233 C1234 1.388 . S
C1234 H1221 0.930 . S
C1234 C1233 1.388 . S
C1234 C1235 1.390 . S
C1235 C1234 1.390 . S
C1235 C1236 1.394 . S
C1235 C1241 1.465 . S
C1236 C1231 1.399 . S
C1236 C1235 1.394 . S
C1236 C1237 1.516 . S
C1237 C1236 1.516 . S
C1237 C1238 1.502 . S
C1237 C1239 1.561 . S
C1237 C1240 1.526 . S
C1238 H1222 0.959 . S
C1238 H1223 0.959 . S
C1238 H1224 0.961 . S
C1238 C1237 1.502 . S
C1239 H1225 0.960 . S
C1239 H1226 0.961 . S
C1239 H1227 0.959 . S
C1239 C1237 1.561 . S
C1240 C1237 1.526 . S
C1240 C1241 1.396 . S
C1240 C1245 1.390 . S
C1241 C1235 1.465 . S
C1241 C1240 1.396 . S
C1241 C1242 1.399 . S
C1242 H1228 0.929 . S
C1242 C1241 1.399 . S
C1242 C1243 1.385 . S
C1243 H1229 0.931 . S
C1243 C1242 1.385 . S
C1243 C1244 1.389 . S
C1244 C1243 1.389 . S
C1244 C1245 1.387 . S
C1245 H1230 0.930 . S
C1245 C1240 1.390 . S
C1245 C1244 1.387 . S
H1246 C1258 0.930 . S
H1247 C1260 0.930 . S
H1248 C1261 0.930 . S
H1249 C1265 0.959 . S
H1250 C1265 0.959 . S
H1251 C1265 0.961 . S
H1252 C1266 0.960 . S
H1253 C1266 0.961 . S
H1254 C1266 0.959 . S
H1255 C1269 0.929 . S
H1256 C1270 0.931 . S
H1257 C1272 0.930 . S
C1258 H1246 0.930 . S
C1258 C1259 1.399 . S
C1258 C1263 1.399 . S
C1259 C1258 1.399 . S
C1259 C1260 1.376 . S
C1260 H1247 0.930 . S
C1260 C1259 1.376 . S
C1260 C1261 1.388 . S
C1261 H1248 0.930 . S
C1261 C1260 1.388 . S
C1261 C1262 1.390 . S
C1262 C1261 1.390 . S
C1262 C1263 1.394 . S
C1262 C1268 1.465 . S
C1263 C1258 1.399 . S
C1263 C1262 1.394 . S
C1263 C1264 1.516 . S
C1264 C1263 1.516 . S
C1264 C1265 1.502 . S
C1264 C1266 1.561 . S
C1264 C1267 1.526 . S
C1265 H1249 0.959 . S
C1265 H1250 0.959 . S
C1265 H1251 0.961 . S
C1265 C1264 1.502 . S
C1266 H1252 0.960 . S
C1266 H1253 0.961 . S
C1266 H1254 0.959 . S
C1266 C1264 1.561 . S
C1267 C1264 1.526 . S
C1267 C1268 1.396 . S
C1267 C1272 1.390 . S
C1268 C1262 1.465 . S
C1268 C1267 1.396 . S
C1268 C1269 1.399 . S
C1269 H1255 0.929 . S
C1269 C1268 1.399 . S
C1269 C1270 1.385 . S
C1270 H1256 0.931 . S
C1270 C1269 1.385 . S
C1270 C1271 1.389 . S
C1271 C1270 1.389 . S
C1271 C1272 1.387 . S
C1272 H1257 0.930 . S
C1272 C1267 1.390 . S
C1272 C1271 1.387 . S
H1273 C1285 0.930 . S
H1274 C1287 0.930 . S
H1275 C1288 0.930 . S
H1276 C1292 0.959 . S
H1277 C1292 0.959 . S
H1278 C1292 0.961 . S
H1279 C1293 0.960 . S
H1280 C1293 0.961 . S
H1281 C1293 0.959 . S
H1282 C1296 0.929 . S
H1283 C1297 0.931 . S
H1284 C1299 0.930 . S
C1285 H1273 0.930 . S
C1285 C1286 1.399 . S
C1285 C1290 1.399 . S
C1286 C1285 1.399 . S
C1286 C1287 1.376 . S
C1287 H1274 0.930 . S
C1287 C1286 1.376 . S
C1287 C1288 1.388 . S
C1288 H1275 0.930 . S
C1288 C1287 1.388 . S
C1288 C1289 1.390 . S
C1289 C1288 1.390 . S
C1289 C1290 1.394 . S
C1289 C1295 1.465 . S
C1290 C1285 1.399 . S
C1290 C1289 1.394 . S
C1290 C1291 1.516 . S
C1291 C1290 1.516 . S
C1291 C1292 1.502 . S
C1291 C1293 1.561 . S
C1291 C1294 1.526 . S
C1292 H1276 0.959 . S
C1292 H1277 0.959 . S
C1292 H1278 0.961 . S
C1292 C1291 1.502 . S
C1293 H1279 0.960 . S
C1293 H1280 0.961 . S
C1293 H1281 0.959 . S
C1293 C1291 1.561 . S
C1294 C1291 1.526 . S
C1294 C1295 1.396 . S
C1294 C1299 1.390 . S
C1295 C1289 1.465 . S
C1295 C1294 1.396 . S
C1295 C1296 1.399 . S
C1296 H1282 0.929 . S
C1296 C1295 1.399 . S
C1296 C1297 1.385 . S
C1297 H1283 0.931 . S
C1297 C1296 1.385 . S
C1297 C1298 1.389 . S
C1298 C1297 1.389 . S
C1298 C1299 1.387 . S
C1299 H1284 0.930 . S
C1299 C1294 1.390 . S
C1299 C1298 1.387 . S
H1300 C1312 0.930 . S
H1301 C1314 0.930 . S
H1302 C1315 0.930 1_455 S
H1303 C1319 0.959 1_455 S
H1304 C1319 0.959 . S
H1305 C1319 0.961 . S
H1306 C1320 0.960 . S
H1307 C1320 0.961 . S
H1308 C1320 0.959 . S
H1309 C1323 0.929 . S
H1310 C1324 0.931 . S
H1311 C1326 0.930 . S
C1312 H1300 0.930 . S
C1312 C1313 1.399 . S
C1312 C1317 1.399 . S
C1313 C1312 1.399 . S
C1313 C1314 1.376 . S
C1314 H1301 0.930 . S
C1314 C1313 1.376 . S
C1314 C1315 1.388 . S
C1315 H1302 0.930 1_655 S
C1315 C1314 1.388 . S
C1315 C1316 1.390 . S
C1316 C1315 1.390 . S
C1316 C1317 1.394 . S
C1316 C1322 1.465 1_655 S
C1317 C1312 1.399 . S
C1317 C1316 1.394 . S
C1317 C1318 1.516 . S
C1318 C1317 1.516 . S
C1318 C1319 1.502 . S
C1318 C1320 1.561 . S
C1318 C1321 1.526 1_655 S
C1319 H1303 0.959 1_655 S
C1319 H1304 0.959 . S
C1319 H1305 0.961 . S
C1319 C1318 1.502 . S
C1320 H1306 0.960 . S
C1320 H1307 0.961 . S
C1320 H1308 0.959 . S
C1320 C1318 1.561 . S
C1321 C1318 1.526 1_455 S
C1321 C1322 1.396 . S
C1321 C1326 1.390 . S
C1322 C1316 1.465 1_455 S
C1322 C1321 1.396 . S
C1322 C1323 1.399 . S
C1323 H1309 0.929 . S
C1323 C1322 1.399 . S
C1323 C1324 1.385 . S
C1324 H1310 0.931 . S
C1324 C1323 1.385 . S
C1324 C1325 1.389 . S
C1325 C1324 1.389 . S
C1325 C1326 1.387 . S
C1326 H1311 0.930 . S
C1326 C1321 1.390 . S
C1326 C1325 1.387 . S
H1327 C1339 0.930 . S
H1328 C1341 0.930 . S
H1329 C1342 0.930 . S
H1330 C1346 0.959 . S
H1331 C1346 0.959 . S
H1332 C1346 0.961 . S
H1333 C1347 0.960 . S
H1334 C1347 0.961 . S
H1335 C1347 0.959 . S
H1336 C1350 0.929 . S
H1337 C1351 0.931 . S
H1338 C1353 0.930 . S
C1339 H1327 0.930 . S
C1339 C1340 1.399 . S
C1339 C1344 1.399 . S
C1340 C1339 1.399 . S
C1340 C1341 1.376 . S
C1341 H1328 0.930 . S
C1341 C1340 1.376 . S
C1341 C1342 1.388 . S
C1342 H1329 0.930 . S
C1342 C1341 1.388 . S
C1342 C1343 1.390 . S
C1343 C1342 1.390 . S
C1343 C1344 1.394 . S
C1343 C1349 1.465 . S
C1344 C1339 1.399 . S
C1344 C1343 1.394 . S
C1344 C1345 1.516 . S
C1345 C1344 1.516 . S
C1345 C1346 1.502 . S
C1345 C1347 1.561 . S
C1345 C1348 1.526 . S
C1346 H1330 0.959 . S
C1346 H1331 0.959 . S
C1346 H1332 0.961 . S
C1346 C1345 1.502 . S
C1347 H1333 0.960 . S
C1347 H1334 0.961 . S
C1347 H1335 0.959 . S
C1347 C1345 1.561 . S
C1348 C1345 1.526 . S
C1348 C1349 1.396 . S
C1348 C1353 1.390 . S
C1349 C1343 1.465 . S
C1349 C1348 1.396 . S
C1349 C1350 1.399 . S
C1350 H1336 0.929 . S
C1350 C1349 1.399 . S
C1350 C1351 1.385 . S
C1351 H1337 0.931 . S
C1351 C1350 1.385 . S
C1351 C1352 1.389 . S
C1352 C1351 1.389 . S
C1352 C1353 1.387 . S
C1353 H1338 0.930 . S
C1353 C1348 1.390 . S
C1353 C1352 1.387 . S
H1354 C1366 0.930 . S
H1355 C1368 0.930 . S
H1356 C1369 0.930 . S
H1357 C1373 0.959 . S
H1358 C1373 0.959 . S
H1359 C1373 0.961 . S
H1360 C1374 0.960 . S
H1361 C1374 0.961 . S
H1362 C1374 0.959 . S
H1363 C1377 0.929 . S
H1364 C1378 0.931 . S
H1365 C1380 0.930 . S
C1366 H1354 0.930 . S
C1366 C1367 1.399 . S
C1366 C1371 1.399 . S
C1367 C1366 1.399 . S
C1367 C1368 1.376 . S
C1368 H1355 0.930 . S
C1368 C1367 1.376 . S
C1368 C1369 1.388 . S
C1369 H1356 0.930 . S
C1369 C1368 1.388 . S
C1369 C1370 1.390 . S
C1370 C1369 1.390 . S
C1370 C1371 1.394 . S
C1370 C1376 1.465 . S
C1371 C1366 1.399 . S
C1371 C1370 1.394 . S
C1371 C1372 1.516 . S
C1372 C1371 1.516 . S
C1372 C1373 1.502 . S
C1372 C1374 1.561 . S
C1372 C1375 1.526 . S
C1373 H1357 0.959 . S
C1373 H1358 0.959 . S
C1373 H1359 0.961 . S
C1373 C1372 1.502 . S
C1374 H1360 0.960 . S
C1374 H1361 0.961 . S
C1374 H1362 0.959 . S
C1374 C1372 1.561 . S
C1375 C1372 1.526 . S
C1375 C1376 1.396 . S
C1375 C1380 1.390 . S
C1376 C1370 1.465 . S
C1376 C1375 1.396 . S
C1376 C1377 1.399 . S
C1377 H1363 0.929 . S
C1377 C1376 1.399 . S
C1377 C1378 1.385 . S
C1378 H1364 0.931 . S
C1378 C1377 1.385 . S
C1378 C1379 1.389 . S
C1379 C1378 1.389 . S
C1379 C1380 1.387 . S
C1380 H1365 0.930 . S
C1380 C1375 1.390 . S
C1380 C1379 1.387 . S
H1381 C1393 0.930 . S
H1382 C1395 0.930 . S
H1383 C1396 0.930 . S
H1384 C1400 0.959 . S
H1385 C1400 0.959 . S
H1386 C1400 0.961 . S
H1387 C1401 0.960 . S
H1388 C1401 0.961 . S
H1389 C1401 0.959 . S
H1390 C1404 0.929 . S
H1391 C1405 0.931 . S
H1392 C1407 0.930 . S
C1393 H1381 0.930 . S
C1393 C1394 1.399 . S
C1393 C1398 1.399 . S
C1394 C1393 1.399 . S
C1394 C1395 1.376 . S
C1395 H1382 0.930 . S
C1395 C1394 1.376 . S
C1395 C1396 1.388 . S
C1396 H1383 0.930 . S
C1396 C1395 1.388 . S
C1396 C1397 1.390 . S
C1397 C1396 1.390 . S
C1397 C1398 1.394 . S
C1397 C1403 1.465 . S
C1398 C1393 1.399 . S
C1398 C1397 1.394 . S
C1398 C1399 1.516 . S
C1399 C1398 1.516 . S
C1399 C1400 1.502 . S
C1399 C1401 1.561 . S
C1399 C1402 1.526 . S
C1400 H1384 0.959 . S
C1400 H1385 0.959 . S
C1400 H1386 0.961 . S
C1400 C1399 1.502 . S
C1401 H1387 0.960 . S
C1401 H1388 0.961 . S
C1401 H1389 0.959 . S
C1401 C1399 1.561 . S
C1402 C1399 1.526 . S
C1402 C1403 1.396 . S
C1402 C1407 1.390 . S
C1403 C1397 1.465 . S
C1403 C1402 1.396 . S
C1403 C1404 1.399 . S
C1404 H1390 0.929 . S
C1404 C1403 1.399 . S
C1404 C1405 1.385 . S
C1405 H1391 0.931 . S
C1405 C1404 1.385 . S
C1405 C1406 1.389 . S
C1406 C1405 1.389 . S
C1406 C1407 1.387 . S
C1407 H1392 0.930 . S
C1407 C1402 1.390 . S
C1407 C1406 1.387 . S
H1408 C1420 0.930 . S
H1409 C1422 0.930 . S
H1410 C1423 0.930 1_545 S
H1411 C1427 0.959 . S
H1412 C1427 0.959 . S
H1413 C1427 0.961 . S
H1414 C1428 0.960 . S
H1415 C1428 0.961 . S
H1416 C1428 0.959 . S
H1417 C1431 0.935 1_556 S
H1418 C1432 0.931 1_556 S
H1419 C1434 0.942 . S
C1420 H1408 0.930 . S
C1420 C1421 1.399 . S
C1420 C1425 1.399 . S
C1421 C1420 1.399 . S
C1421 C1422 1.376 1_554 S
C1422 H1409 0.930 . S
C1422 C1421 1.376 1_556 S
C1422 C1423 1.388 . S
C1423 H1410 0.930 1_565 S
C1423 C1422 1.388 . S
C1423 C1424 1.390 1_556 S
C1424 C1423 1.390 1_554 S
C1424 C1425 1.394 . S
C1424 C1430 1.465 1_565 S
C1425 C1420 1.399 . S
C1425 C1424 1.394 . S
C1425 C1426 1.516 . S
C1426 C1425 1.516 . S
C1426 C1427 1.502 . S
C1426 C1428 1.561 1_565 S
C1426 C1429 1.548 . S
C1427 H1411 0.959 . S
C1427 H1412 0.959 . S
C1427 H1413 0.961 . S
C1427 C1426 1.502 . S
C1428 H1414 0.960 . S
C1428 H1415 0.961 . S
C1428 H1416 0.959 . S
C1428 C1426 1.561 1_545 S
C1429 C1426 1.548 . S
C1429 C1430 1.386 1_565 S
C1429 C1434 1.378 1_565 S
C1430 C1424 1.465 1_545 S
C1430 C1429 1.386 1_545 S
C1430 C1431 1.395 . S
C1431 H1417 0.935 1_554 S
C1431 C1430 1.395 . S
C1431 C1432 1.383 . S
C1432 H1418 0.931 1_554 S
C1432 C1431 1.383 . S
C1432 C1433 1.389 . S
C1433 C1432 1.389 . S
C1433 C1434 1.387 . S
C1434 H1419 0.942 . S
C1434 C1429 1.378 1_545 S
C1434 C1433 1.387 . S
H1435 C1447 0.930 . S
H1436 C1449 0.930 . S
H1437 C1450 0.930 . S
H1438 C1454 0.959 . S
H1439 C1454 0.959 . S
H1440 C1454 0.961 . S
H1441 C1455 0.960 . S
H1442 C1455 0.961 . S
H1443 C1455 0.959 . S
H1444 C1458 0.929 . S
H1445 C1459 0.938 1_556 S
H1446 C1461 0.930 . S
C1447 H1435 0.930 . S
C1447 C1448 1.390 1_554 S
C1447 C1452 1.399 . S
C1448 C1447 1.390 1_556 S
C1448 C1449 1.378 . S
C1449 H1436 0.930 . S
C1449 C1448 1.378 . S
C1449 C1450 1.388 . S
C1450 H1437 0.930 . S
C1450 C1449 1.388 . S
C1450 C1451 1.390 . S
C1451 C1450 1.390 . S
C1451 C1452 1.394 1_556 S
C1451 C1457 1.469 . S
C1452 C1447 1.399 . S
C1452 C1451 1.394 1_554 S
C1452 C1453 1.516 . S
C1453 C1452 1.516 . S
C1453 C1454 1.502 . S
C1453 C1455 1.561 1_554 S
C1453 C1456 1.526 . S
C1454 H1438 0.959 . S
C1454 H1439 0.959 . S
C1454 H1440 0.961 . S
C1454 C1453 1.502 . S
C1455 H1441 0.960 . S
C1455 H1442 0.961 . S
C1455 H1443 0.959 . S
C1455 C1453 1.561 1_556 S
C1456 C1453 1.526 . S
C1456 C1457 1.394 1_554 S
C1456 C1461 1.390 . S
C1457 C1451 1.469 . S
C1457 C1456 1.394 1_556 S
C1457 C1458 1.397 . S
C1458 H1444 0.929 . S
C1458 C1457 1.397 . S
C1458 C1459 1.375 1_556 S
C1459 H1445 0.938 1_554 S
C1459 C1458 1.375 1_554 S
C1459 C1460 1.395 . S
C1460 C1459 1.395 . S
C1460 C1461 1.387 . S
C1461 H1446 0.930 . S
C1461 C1456 1.390 . S
C1461 C1460 1.387 . S
H1462 C1474 0.930 . S
H1463 C1476 0.930 . S
H1464 C1477 0.930 . S
H1465 C1481 0.959 . S
H1466 C1481 0.959 . S
H1467 C1481 0.961 . S
H1468 C1482 0.960 . S
H1469 C1482 0.961 . S
H1470 C1482 0.959 . S
H1471 C1485 0.929 . S
H1472 C1486 0.931 . S
H1473 C1488 0.930 . S
C1474 H1462 0.930 . S
C1474 C1475 1.399 . S
C1474 C1479 1.399 . S
C1475 C1474 1.399 . S
C1475 C1476 1.376 . S
C1476 H1463 0.930 . S
C1476 C1475 1.376 . S
C1476 C1477 1.388 . S
C1477 H1464 0.930 . S
C1477 C1476 1.388 . S
C1477 C1478 1.390 . S
C1478 C1477 1.390 . S
C1478 C1479 1.394 . S
C1478 C1484 1.465 . S
C1479 C1474 1.399 . S
C1479 C1478 1.394 . S
C1479 C1480 1.516 . S
C1480 C1479 1.516 . S
C1480 C1481 1.502 . S
C1480 C1482 1.561 . S
C1480 C1483 1.526 . S
C1481 H1465 0.959 . S
C1481 H1466 0.959 . S
C1481 H1467 0.961 . S
C1481 C1480 1.502 . S
C1482 H1468 0.960 . S
C1482 H1469 0.961 . S
C1482 H1470 0.959 . S
C1482 C1480 1.561 . S
C1483 C1480 1.526 . S
C1483 C1484 1.396 . S
C1483 C1488 1.390 . S
C1484 C1478 1.465 . S
C1484 C1483 1.396 . S
C1484 C1485 1.399 . S
C1485 H1471 0.929 . S
C1485 C1484 1.399 . S
C1485 C1486 1.385 . S
C1486 H1472 0.931 . S
C1486 C1485 1.385 . S
C1486 C1487 1.389 . S
C1487 C1486 1.389 . S
C1487 C1488 1.387 . S
C1488 H1473 0.930 . S
C1488 C1483 1.390 . S
C1488 C1487 1.387 . S
H1489 C1501 0.930 . S
H1490 C1503 0.930 . S
H1491 C1504 0.930 . S
H1492 C1508 0.959 . S
H1493 C1508 0.959 . S
H1494 C1508 0.961 . S
H1495 C1509 0.960 . S
H1496 C1509 0.961 . S
H1497 C1509 0.959 . S
H1498 C1512 0.929 . S
H1499 C1513 0.931 . S
H1500 C1515 0.930 . S
C1501 H1489 0.930 . S
C1501 C1502 1.399 . S
C1501 C1506 1.399 . S
C1502 C1501 1.399 . S
C1502 C1503 1.376 . S
C1503 H1490 0.930 . S
C1503 C1502 1.376 . S
C1503 C1504 1.388 . S
C1504 H1491 0.930 . S
C1504 C1503 1.388 . S
C1504 C1505 1.390 . S
C1505 C1504 1.390 . S
C1505 C1506 1.394 . S
C1505 C1511 1.465 . S
C1506 C1501 1.399 . S
C1506 C1505 1.394 . S
C1506 C1507 1.516 . S
C1507 C1506 1.516 . S
C1507 C1508 1.502 . S
C1507 C1509 1.561 . S
C1507 C1510 1.526 . S
C1508 H1492 0.959 . S
C1508 H1493 0.959 . S
C1508 H1494 0.961 . S
C1508 C1507 1.502 . S
C1509 H1495 0.960 . S
C1509 H1496 0.961 . S
C1509 H1497 0.959 . S
C1509 C1507 1.561 . S
C1510 C1507 1.526 . S
C1510 C1511 1.396 . S
C1510 C1515 1.390 . S
C1511 C1505 1.465 . S
C1511 C1510 1.396 . S
C1511 C1512 1.399 . S
C1512 H1498 0.929 . S
C1512 C1511 1.399 . S
C1512 C1513 1.385 . S
C1513 H1499 0.931 . S
C1513 C1512 1.385 . S
C1513 C1514 1.389 . S
C1514 C1513 1.389 . S
C1514 C1515 1.387 . S
C1515 H1500 0.930 . S
C1515 C1510 1.390 . S
C1515 C1514 1.387 . S
H1516 C1528 0.930 . S
H1517 C1530 0.930 . S
H1518 C1531 0.930 . S
H1519 C1535 0.959 . S
H1520 C1535 0.959 . S
H1521 C1535 0.961 . S
H1522 C1536 0.960 . S
H1523 C1536 0.961 . S
H1524 C1536 0.959 . S
H1525 C1539 0.929 . S
H1526 C1540 0.931 . S
H1527 C1542 0.930 . S
C1528 H1516 0.930 . S
C1528 C1529 1.399 . S
C1528 C1533 1.399 . S
C1529 C1528 1.399 . S
C1529 C1530 1.376 . S
C1530 H1517 0.930 . S
C1530 C1529 1.376 . S
C1530 C1531 1.388 . S
C1531 H1518 0.930 . S
C1531 C1530 1.388 . S
C1531 C1532 1.390 . S
C1532 C1531 1.390 . S
C1532 C1533 1.394 . S
C1532 C1538 1.465 . S
C1533 C1528 1.399 . S
C1533 C1532 1.394 . S
C1533 C1534 1.516 . S
C1534 C1533 1.516 . S
C1534 C1535 1.502 . S
C1534 C1536 1.561 . S
C1534 C1537 1.526 . S
C1535 H1519 0.959 . S
C1535 H1520 0.959 . S
C1535 H1521 0.961 . S
C1535 C1534 1.502 . S
C1536 H1522 0.960 . S
C1536 H1523 0.961 . S
C1536 H1524 0.959 . S
C1536 C1534 1.561 . S
C1537 C1534 1.526 . S
C1537 C1538 1.396 . S
C1537 C1542 1.390 . S
C1538 C1532 1.465 . S
C1538 C1537 1.396 . S
C1538 C1539 1.399 . S
C1539 H1525 0.929 . S
C1539 C1538 1.399 . S
C1539 C1540 1.385 . S
C1540 H1526 0.931 . S
C1540 C1539 1.385 . S
C1540 C1541 1.389 . S
C1541 C1540 1.389 . S
C1541 C1542 1.387 . S
C1542 H1527 0.930 . S
C1542 C1537 1.390 . S
C1542 C1541 1.387 . S
H1543 C1555 0.930 . S
H1544 C1557 0.930 . S
H1545 C1558 0.930 . S
H1546 C1562 0.959 . S
H1547 C1562 0.959 . S
H1548 C1562 0.961 . S
H1549 C1563 0.960 . S
H1550 C1563 0.961 . S
H1551 C1563 0.959 . S
H1552 C1566 0.929 . S
H1553 C1567 0.931 . S
H1554 C1569 0.930 . S
C1555 H1543 0.930 . S
C1555 C1556 1.399 . S
C1555 C1560 1.399 . S
C1556 C1555 1.399 . S
C1556 C1557 1.376 . S
C1557 H1544 0.930 . S
C1557 C1556 1.376 . S
C1557 C1558 1.388 . S
C1558 H1545 0.930 . S
C1558 C1557 1.388 . S
C1558 C1559 1.390 . S
C1559 C1558 1.390 . S
C1559 C1560 1.394 . S
C1559 C1565 1.465 . S
C1560 C1555 1.399 . S
C1560 C1559 1.394 . S
C1560 C1561 1.516 . S
C1561 C1560 1.516 . S
C1561 C1562 1.502 . S
C1561 C1563 1.561 . S
C1561 C1564 1.526 . S
C1562 H1546 0.959 . S
C1562 H1547 0.959 . S
C1562 H1548 0.961 . S
C1562 C1561 1.502 . S
C1563 H1549 0.960 . S
C1563 H1550 0.961 . S
C1563 H1551 0.959 . S
C1563 C1561 1.561 . S
C1564 C1561 1.526 . S
C1564 C1565 1.396 . S
C1564 C1569 1.390 . S
C1565 C1559 1.465 . S
C1565 C1564 1.396 . S
C1565 C1566 1.399 . S
C1566 H1552 0.929 . S
C1566 C1565 1.399 . S
C1566 C1567 1.385 . S
C1567 H1553 0.931 . S
C1567 C1566 1.385 . S
C1567 C1568 1.389 . S
C1568 C1567 1.389 . S
C1568 C1569 1.387 . S
C1569 H1554 0.930 . S
C1569 C1564 1.390 . S
C1569 C1568 1.387 . S
H1570 C1582 0.930 . S
H1571 C1584 0.930 . S
H1572 C1585 0.930 . S
H1573 C1589 0.959 . S
H1574 C1589 0.959 . S
H1575 C1589 0.961 . S
H1576 C1590 0.960 . S
H1577 C1590 0.961 . S
H1578 C1590 0.959 . S
H1579 C1593 0.929 . S
H1580 C1594 0.931 . S
H1581 C1596 0.930 . S
C1582 H1570 0.930 . S
C1582 C1583 1.399 . S
C1582 C1587 1.399 . S
C1583 C1582 1.399 . S
C1583 C1584 1.376 . S
C1584 H1571 0.930 . S
C1584 C1583 1.376 . S
C1584 C1585 1.388 . S
C1585 H1572 0.930 . S
C1585 C1584 1.388 . S
C1585 C1586 1.390 . S
C1586 C1585 1.390 . S
C1586 C1587 1.394 . S
C1586 C1592 1.465 . S
C1587 C1582 1.399 . S
C1587 C1586 1.394 . S
C1587 C1588 1.516 . S
C1588 C1587 1.516 . S
C1588 C1589 1.502 . S
C1588 C1590 1.561 . S
C1588 C1591 1.526 . S
C1589 H1573 0.959 . S
C1589 H1574 0.959 . S
C1589 H1575 0.961 . S
C1589 C1588 1.502 . S
C1590 H1576 0.960 . S
C1590 H1577 0.961 . S
C1590 H1578 0.959 . S
C1590 C1588 1.561 . S
C1591 C1588 1.526 . S
C1591 C1592 1.396 . S
C1591 C1596 1.390 . S
C1592 C1586 1.465 . S
C1592 C1591 1.396 . S
C1592 C1593 1.399 . S
C1593 H1579 0.929 . S
C1593 C1592 1.399 . S
C1593 C1594 1.385 . S
C1594 H1580 0.931 . S
C1594 C1593 1.385 . S
C1594 C1595 1.389 . S
C1595 C1594 1.389 . S
C1595 C1596 1.387 . S
C1596 H1581 0.930 . S
C1596 C1591 1.390 . S
C1596 C1595 1.387 . S
H1597 C1609 0.930 . S
H1598 C1611 0.930 . S
H1599 C1612 0.930 . S
H1600 C1616 0.959 . S
H1601 C1616 0.959 . S
H1602 C1616 0.961 . S
H1603 C1617 0.960 . S
H1604 C1617 0.961 . S
H1605 C1617 0.959 . S
H1606 C1620 0.929 . S
H1607 C1621 0.931 . S
H1608 C1623 0.930 . S
C1609 H1597 0.930 . S
C1609 C1610 1.399 . S
C1609 C1614 1.399 . S
C1610 C1609 1.399 . S
C1610 C1611 1.376 . S
C1611 H1598 0.930 . S
C1611 C1610 1.376 . S
C1611 C1612 1.388 . S
C1612 H1599 0.930 . S
C1612 C1611 1.388 . S
C1612 C1613 1.390 . S
C1613 C1612 1.390 . S
C1613 C1614 1.394 . S
C1613 C1619 1.465 . S
C1614 C1609 1.399 . S
C1614 C1613 1.394 . S
C1614 C1615 1.516 . S
C1615 C1614 1.516 . S
C1615 C1616 1.502 . S
C1615 C1617 1.561 . S
C1615 C1618 1.526 . S
C1616 H1600 0.959 . S
C1616 H1601 0.959 . S
C1616 H1602 0.961 . S
C1616 C1615 1.502 . S
C1617 H1603 0.960 . S
C1617 H1604 0.961 . S
C1617 H1605 0.959 . S
C1617 C1615 1.561 . S
C1618 C1615 1.526 . S
C1618 C1619 1.396 . S
C1618 C1623 1.390 . S
C1619 C1613 1.465 . S
C1619 C1618 1.396 . S
C1619 C1620 1.399 . S
C1620 H1606 0.929 . S
C1620 C1619 1.399 . S
C1620 C1621 1.385 . S
C1621 H1607 0.931 . S
C1621 C1620 1.385 . S
C1621 C1622 1.389 . S
C1622 C1621 1.389 . S
C1622 C1623 1.387 . S
C1623 H1608 0.930 . S
C1623 C1618 1.390 . S
C1623 C1622 1.387 . S
H1624 C1636 0.930 . S
H1625 C1638 0.930 . S
H1626 C1639 0.930 . S
H1627 C1643 0.959 . S
H1628 C1643 0.959 . S
H1629 C1643 0.961 . S
H1630 C1644 0.960 . S
H1631 C1644 0.961 . S
H1632 C1644 0.959 . S
H1633 C1647 0.929 . S
H1634 C1648 0.931 . S
H1635 C1650 0.930 . S
C1636 H1624 0.930 . S
C1636 C1637 1.399 . S
C1636 C1641 1.399 . S
C1637 C1636 1.399 . S
C1637 C1638 1.376 . S
C1638 H1625 0.930 . S
C1638 C1637 1.376 . S
C1638 C1639 1.388 . S
C1639 H1626 0.930 . S
C1639 C1638 1.388 . S
C1639 C1640 1.390 . S
C1640 C1639 1.390 . S
C1640 C1641 1.394 . S
C1640 C1646 1.465 . S
C1641 C1636 1.399 . S
C1641 C1640 1.394 . S
C1641 C1642 1.516 . S
C1642 C1641 1.516 . S
C1642 C1643 1.502 . S
C1642 C1644 1.561 . S
C1642 C1645 1.526 . S
C1643 H1627 0.959 . S
C1643 H1628 0.959 . S
C1643 H1629 0.961 . S
C1643 C1642 1.502 . S
C1644 H1630 0.960 . S
C1644 H1631 0.961 . S
C1644 H1632 0.959 . S
C1644 C1642 1.561 . S
C1645 C1642 1.526 . S
C1645 C1646 1.396 . S
C1645 C1650 1.390 . S
C1646 C1640 1.465 . S
C1646 C1645 1.396 . S
C1646 C1647 1.399 . S
C1647 H1633 0.929 . S
C1647 C1646 1.399 . S
C1647 C1648 1.385 . S
C1648 H1634 0.931 . S
C1648 C1647 1.385 . S
C1648 C1649 1.389 . S
C1649 C1648 1.389 . S
C1649 C1650 1.387 . S
C1650 H1635 0.930 . S
C1650 C1645 1.390 . S
C1650 C1649 1.387 . S
H1651 C1663 0.930 . S
H1652 C1665 0.930 . S
H1653 C1666 0.930 . S
H1654 C1670 0.959 . S
H1655 C1670 0.959 . S
H1656 C1670 0.961 . S
H1657 C1671 0.960 . S
H1658 C1671 0.961 . S
H1659 C1671 0.959 . S
H1660 C1674 0.929 . S
H1661 C1675 0.931 . S
H1662 C1677 0.930 . S
C1663 H1651 0.930 . S
C1663 C1664 1.399 . S
C1663 C1668 1.399 . S
C1664 C1663 1.399 . S
C1664 C1665 1.376 . S
C1665 H1652 0.930 . S
C1665 C1664 1.376 . S
C1665 C1666 1.388 . S
C1666 H1653 0.930 . S
C1666 C1665 1.388 . S
C1666 C1667 1.390 . S
C1667 C1666 1.390 . S
C1667 C1668 1.394 . S
C1667 C1673 1.465 . S
C1668 C1663 1.399 . S
C1668 C1667 1.394 . S
C1668 C1669 1.516 . S
C1669 C1668 1.516 . S
C1669 C1670 1.502 . S
C1669 C1671 1.561 . S
C1669 C1672 1.526 . S
C1670 H1654 0.959 . S
C1670 H1655 0.959 . S
C1670 H1656 0.961 . S
C1670 C1669 1.502 . S
C1671 H1657 0.960 . S
C1671 H1658 0.961 . S
C1671 H1659 0.959 . S
C1671 C1669 1.561 . S
C1672 C1669 1.526 . S
C1672 C1673 1.396 . S
C1672 C1677 1.390 . S
C1673 C1667 1.465 . S
C1673 C1672 1.396 . S
C1673 C1674 1.399 . S
C1674 H1660 0.929 . S
C1674 C1673 1.399 . S
C1674 C1675 1.385 . S
C1675 H1661 0.931 . S
C1675 C1674 1.385 . S
C1675 C1676 1.389 . S
C1676 C1675 1.389 . S
C1676 C1677 1.387 . S
C1677 H1662 0.930 . S
C1677 C1672 1.390 . S
C1677 C1676 1.387 . S
H1678 C1690 0.930 . S
H1679 C1692 0.930 . S
H1680 C1693 0.930 . S
H1681 C1697 0.959 . S
H1682 C1697 0.959 . S
H1683 C1697 0.961 . S
H1684 C1698 0.960 . S
H1685 C1698 0.961 . S
H1686 C1698 0.959 . S
H1687 C1701 0.929 . S
H1688 C1702 0.931 . S
H1689 C1704 0.930 . S
C1690 H1678 0.930 . S
C1690 C1691 1.399 . S
C1690 C1695 1.399 . S
C1691 C1690 1.399 . S
C1691 C1692 1.376 . S
C1692 H1679 0.930 . S
C1692 C1691 1.376 . S
C1692 C1693 1.388 . S
C1693 H1680 0.930 . S
C1693 C1692 1.388 . S
C1693 C1694 1.390 . S
C1694 C1693 1.390 . S
C1694 C1695 1.394 . S
C1694 C1700 1.465 . S
C1695 C1690 1.399 . S
C1695 C1694 1.394 . S
C1695 C1696 1.516 . S
C1696 C1695 1.516 . S
C1696 C1697 1.502 . S
C1696 C1698 1.561 . S
C1696 C1699 1.526 . S
C1697 H1681 0.959 . S
C1697 H1682 0.959 . S
C1697 H1683 0.961 . S
C1697 C1696 1.502 . S
C1698 H1684 0.960 . S
C1698 H1685 0.961 . S
C1698 H1686 0.959 . S
C1698 C1696 1.561 . S
C1699 C1696 1.526 . S
C1699 C1700 1.396 . S
C1699 C1704 1.390 . S
C1700 C1694 1.465 . S
C1700 C1699 1.396 . S
C1700 C1701 1.399 . S
C1701 H1687 0.929 . S
C1701 C1700 1.399 . S
C1701 C1702 1.385 . S
C1702 H1688 0.931 . S
C1702 C1701 1.385 . S
C1702 C1703 1.389 . S
C1703 C1702 1.389 . S
C1703 C1704 1.387 . S
C1704 H1689 0.930 . S
C1704 C1699 1.390 . S
C1704 C1703 1.387 . S
H1705 C1717 0.930 . S
H1706 C1719 0.930 . S
H1707 C1720 0.930 . S
H1708 C1724 0.959 . S
H1709 C1724 0.959 . S
H1710 C1724 0.961 . S
H1711 C1725 0.960 . S
H1712 C1725 0.961 . S
H1713 C1725 0.959 . S
H1714 C1728 0.929 . S
H1715 C1729 0.931 . S
H1716 C1731 0.930 . S
C1717 H1705 0.930 . S
C1717 C1718 1.399 . S
C1717 C1722 1.399 . S
C1718 C1717 1.399 . S
C1718 C1719 1.376 . S
C1719 H1706 0.930 . S
C1719 C1718 1.376 . S
C1719 C1720 1.388 . S
C1720 H1707 0.930 . S
C1720 C1719 1.388 . S
C1720 C1721 1.390 . S
C1721 C1720 1.390 . S
C1721 C1722 1.394 . S
C1721 C1727 1.465 . S
C1722 C1717 1.399 . S
C1722 C1721 1.394 . S
C1722 C1723 1.516 . S
C1723 C1722 1.516 . S
C1723 C1724 1.502 . S
C1723 C1725 1.561 . S
C1723 C1726 1.526 . S
C1724 H1708 0.959 . S
C1724 H1709 0.959 . S
C1724 H1710 0.961 . S
C1724 C1723 1.502 . S
C1725 H1711 0.960 . S
C1725 H1712 0.961 . S
C1725 H1713 0.959 . S
C1725 C1723 1.561 . S
C1726 C1723 1.526 . S
C1726 C1727 1.396 . S
C1726 C1731 1.390 . S
C1727 C1721 1.465 . S
C1727 C1726 1.396 . S
C1727 C1728 1.399 . S
C1728 H1714 0.929 . S
C1728 C1727 1.399 . S
C1728 C1729 1.385 . S
C1729 H1715 0.931 . S
C1729 C1728 1.385 . S
C1729 C1730 1.389 . S
C1730 C1729 1.389 . S
C1730 C1731 1.387 . S
C1731 H1716 0.930 . S
C1731 C1726 1.390 . S
C1731 C1730 1.387 . S
H1732 C1744 0.930 . S
H1733 C1746 0.930 . S
H1734 C1747 0.930 . S
H1735 C1751 0.959 . S
H1736 C1751 0.959 . S
H1737 C1751 0.961 . S
H1738 C1752 0.960 . S
H1739 C1752 0.961 . S
H1740 C1752 0.959 . S
H1741 C1755 0.929 . S
H1742 C1756 0.931 . S
H1743 C1758 0.930 . S
C1744 H1732 0.930 . S
C1744 C1745 1.399 . S
C1744 C1749 1.399 . S
C1745 C1744 1.399 . S
C1745 C1746 1.376 . S
C1746 H1733 0.930 . S
C1746 C1745 1.376 . S
C1746 C1747 1.388 . S
C1747 H1734 0.930 . S
C1747 C1746 1.388 . S
C1747 C1748 1.390 . S
C1748 C1747 1.390 . S
C1748 C1749 1.394 . S
C1748 C1754 1.465 . S
C1749 C1744 1.399 . S
C1749 C1748 1.394 . S
C1749 C1750 1.516 . S
C1750 C1749 1.516 . S
C1750 C1751 1.502 . S
C1750 C1752 1.561 . S
C1750 C1753 1.526 . S
C1751 H1735 0.959 . S
C1751 H1736 0.959 . S
C1751 H1737 0.961 . S
C1751 C1750 1.502 . S
C1752 H1738 0.960 . S
C1752 H1739 0.961 . S
C1752 H1740 0.959 . S
C1752 C1750 1.561 . S
C1753 C1750 1.526 . S
C1753 C1754 1.396 . S
C1753 C1758 1.390 . S
C1754 C1748 1.465 . S
C1754 C1753 1.396 . S
C1754 C1755 1.399 . S
C1755 H1741 0.929 . S
C1755 C1754 1.399 . S
C1755 C1756 1.385 . S
C1756 H1742 0.931 . S
C1756 C1755 1.385 . S
C1756 C1757 1.389 . S
C1757 C1756 1.389 . S
C1757 C1758 1.387 . S
C1758 H1743 0.930 . S
C1758 C1753 1.390 . S
C1758 C1757 1.387 . S
H1759 C1771 0.930 . S
H1760 C1773 0.930 . S
H1761 C1774 0.930 . S
H1762 C1778 0.959 . S
H1763 C1778 0.959 . S
H1764 C1778 0.961 . S
H1765 C1779 0.960 . S
H1766 C1779 0.961 . S
H1767 C1779 0.959 . S
H1768 C1782 0.929 . S
H1769 C1783 0.931 . S
H1770 C1785 0.930 . S
C1771 H1759 0.930 . S
C1771 C1772 1.399 . S
C1771 C1776 1.399 . S
C1772 C1771 1.399 . S
C1772 C1773 1.376 . S
C1773 H1760 0.930 . S
C1773 C1772 1.376 . S
C1773 C1774 1.388 . S
C1774 H1761 0.930 . S
C1774 C1773 1.388 . S
C1774 C1775 1.390 . S
C1775 C1774 1.390 . S
C1775 C1776 1.394 . S
C1775 C1781 1.465 . S
C1776 C1771 1.399 . S
C1776 C1775 1.394 . S
C1776 C1777 1.516 . S
C1777 C1776 1.516 . S
C1777 C1778 1.502 . S
C1777 C1779 1.561 . S
C1777 C1780 1.526 . S
C1778 H1762 0.959 . S
C1778 H1763 0.959 . S
C1778 H1764 0.961 . S
C1778 C1777 1.502 . S
C1779 H1765 0.960 . S
C1779 H1766 0.961 . S
C1779 H1767 0.959 . S
C1779 C1777 1.561 . S
C1780 C1777 1.526 . S
C1780 C1781 1.396 . S
C1780 C1785 1.390 . S
C1781 C1775 1.465 . S
C1781 C1780 1.396 . S
C1781 C1782 1.399 . S
C1782 H1768 0.929 . S
C1782 C1781 1.399 . S
C1782 C1783 1.385 . S
C1783 H1769 0.931 . S
C1783 C1782 1.385 . S
C1783 C1784 1.389 . S
C1784 C1783 1.389 . S
C1784 C1785 1.387 . S
C1785 H1770 0.930 . S
C1785 C1780 1.390 . S
C1785 C1784 1.387 . S
H1786 C1798 0.930 . S
H1787 C1800 0.930 . S
H1788 C1801 0.930 . S
H1789 C1805 0.959 . S
H1790 C1805 0.959 . S
H1791 C1805 0.961 . S
H1792 C1806 0.960 . S
H1793 C1806 0.961 . S
H1794 C1806 0.959 . S
H1795 C1809 0.929 . S
H1796 C1810 0.931 1_554 S
H1797 C1812 0.930 . S
C1798 H1786 0.930 . S
C1798 C1799 1.399 . S
C1798 C1803 1.399 . S
C1799 C1798 1.399 . S
C1799 C1800 1.376 . S
C1800 H1787 0.930 . S
C1800 C1799 1.376 . S
C1800 C1801 1.388 . S
C1801 H1788 0.930 . S
C1801 C1800 1.388 . S
C1801 C1802 1.390 . S
C1802 C1801 1.390 . S
C1802 C1803 1.394 . S
C1802 C1808 1.465 . S
C1803 C1798 1.399 . S
C1803 C1802 1.394 . S
C1803 C1804 1.516 . S
C1804 C1803 1.516 . S
C1804 C1805 1.502 . S
C1804 C1806 1.561 . S
C1804 C1807 1.526 . S
C1805 H1789 0.959 . S
C1805 H1790 0.959 . S
C1805 H1791 0.961 . S
C1805 C1804 1.502 . S
C1806 H1792 0.960 . S
C1806 H1793 0.961 . S
C1806 H1794 0.959 . S
C1806 C1804 1.561 . S
C1807 C1804 1.526 . S
C1807 C1808 1.396 . S
C1807 C1812 1.390 . S
C1808 C1802 1.465 . S
C1808 C1807 1.396 . S
C1808 C1809 1.399 . S
C1809 H1795 0.929 . S
C1809 C1808 1.399 . S
C1809 C1810 1.385 . S
C1810 H1796 0.931 1_556 S
C1810 C1809 1.385 . S
C1810 C1811 1.389 . S
C1811 C1810 1.389 . S
C1811 C1812 1.387 . S
C1812 H1797 0.930 . S
C1812 C1807 1.390 . S
C1812 C1811 1.387 . S
H1813 C1825 0.930 . S
H1814 C1827 0.930 . S
H1815 C1828 0.930 . S
H1816 C1832 0.959 . S
H1817 C1832 0.959 . S
H1818 C1832 0.961 . S
H1819 C1833 0.960 . S
H1820 C1833 0.961 . S
H1821 C1833 0.959 . S
H1822 C1836 0.929 . S
H1823 C1837 0.931 . S
H1824 C1839 0.930 . S
C1825 H1813 0.930 . S
C1825 C1826 1.399 . S
C1825 C1830 1.399 . S
C1826 C1825 1.399 . S
C1826 C1827 1.376 . S
C1827 H1814 0.930 . S
C1827 C1826 1.376 . S
C1827 C1828 1.388 . S
C1828 H1815 0.930 . S
C1828 C1827 1.388 . S
C1828 C1829 1.390 . S
C1829 C1828 1.390 . S
C1829 C1830 1.394 . S
C1829 C1835 1.465 . S
C1830 C1825 1.399 . S
C1830 C1829 1.394 . S
C1830 C1831 1.516 . S
C1831 C1830 1.516 . S
C1831 C1832 1.502 . S
C1831 C1833 1.561 . S
C1831 C1834 1.526 . S
C1832 H1816 0.959 . S
C1832 H1817 0.959 . S
C1832 H1818 0.961 . S
C1832 C1831 1.502 . S
C1833 H1819 0.960 . S
C1833 H1820 0.961 . S
C1833 H1821 0.959 . S
C1833 C1831 1.561 . S
C1834 C1831 1.526 . S
C1834 C1835 1.396 . S
C1834 C1839 1.390 . S
C1835 C1829 1.465 . S
C1835 C1834 1.396 . S
C1835 C1836 1.399 . S
C1836 H1822 0.929 . S
C1836 C1835 1.399 . S
C1836 C1837 1.385 . S
C1837 H1823 0.931 . S
C1837 C1836 1.385 . S
C1837 C1838 1.389 . S
C1838 C1837 1.389 . S
C1838 C1839 1.387 . S
C1839 H1824 0.930 . S
C1839 C1834 1.390 . S
C1839 C1838 1.387 . S
H1840 C1852 0.930 1_565 S
H1841 C1854 0.930 . S
H1842 C1855 0.930 . S
H1843 C1859 0.959 . S
H1844 C1859 0.959 . S
H1845 C1859 0.961 . S
H1846 C1860 0.960 . S
H1847 C1860 0.961 . S
H1848 C1860 0.959 . S
H1849 C1863 0.929 . S
H1850 C1864 0.931 . S
H1851 C1866 0.930 1_565 S
C1852 H1840 0.930 1_545 S
C1852 C1853 1.399 . S
C1852 C1857 1.399 . S
C1853 C1852 1.399 . S
C1853 C1854 1.376 . S
C1854 H1841 0.930 . S
C1854 C1853 1.376 . S
C1854 C1855 1.388 . S
C1855 H1842 0.930 . S
C1855 C1854 1.388 . S
C1855 C1856 1.390 . S
C1856 C1855 1.390 . S
C1856 C1857 1.394 . S
C1856 C1862 1.465 . S
C1857 C1852 1.399 . S
C1857 C1856 1.394 . S
C1857 C1858 1.516 1_545 S
C1858 C1857 1.516 1_565 S
C1858 C1859 1.502 . S
C1858 C1860 1.561 . S
C1858 C1861 1.526 1_565 S
C1859 H1843 0.959 . S
C1859 H1844 0.959 . S
C1859 H1845 0.961 . S
C1859 C1858 1.502 . S
C1860 H1846 0.960 . S
C1860 H1847 0.961 . S
C1860 H1848 0.959 . S
C1860 C1858 1.561 . S
C1861 C1858 1.526 1_545 S
C1861 C1862 1.396 . S
C1861 C1866 1.390 . S
C1862 C1856 1.465 . S
C1862 C1861 1.396 . S
C1862 C1863 1.399 . S
C1863 H1849 0.929 . S
C1863 C1862 1.399 . S
C1863 C1864 1.385 . S
C1864 H1850 0.931 . S
C1864 C1863 1.385 . S
C1864 C1865 1.389 . S
C1865 C1864 1.389 . S
C1865 C1866 1.387 . S
C1866 H1851 0.930 1_545 S
C1866 C1861 1.390 . S
C1866 C1865 1.387 . S
H1867 C1879 0.930 . S
H1868 C1881 0.930 . S
H1869 C1882 0.930 . S
H1870 C1886 0.959 . S
H1871 C1886 0.959 . S
H1872 C1886 0.961 . S
H1873 C1887 0.960 . S
H1874 C1887 0.961 . S
H1875 C1887 0.959 . S
H1876 C1890 0.929 . S
H1877 C1891 0.931 . S
H1878 C1893 0.930 . S
C1879 H1867 0.930 . S
C1879 C1880 1.399 . S
C1879 C1884 1.399 . S
C1880 C1879 1.399 . S
C1880 C1881 1.376 . S
C1881 H1868 0.930 . S
C1881 C1880 1.376 . S
C1881 C1882 1.388 . S
C1882 H1869 0.930 . S
C1882 C1881 1.388 . S
C1882 C1883 1.390 . S
C1883 C1882 1.390 . S
C1883 C1884 1.394 . S
C1883 C1889 1.465 . S
C1884 C1879 1.399 . S
C1884 C1883 1.394 . S
C1884 C1885 1.516 . S
C1885 C1884 1.516 . S
C1885 C1886 1.502 . S
C1885 C1887 1.561 . S
C1885 C1888 1.526 . S
C1886 H1870 0.959 . S
C1886 H1871 0.959 . S
C1886 H1872 0.961 . S
C1886 C1885 1.502 . S
C1887 H1873 0.960 . S
C1887 H1874 0.961 . S
C1887 H1875 0.959 . S
C1887 C1885 1.561 . S
C1888 C1885 1.526 . S
C1888 C1889 1.396 . S
C1888 C1893 1.390 . S
C1889 C1883 1.465 . S
C1889 C1888 1.396 . S
C1889 C1890 1.399 . S
C1890 H1876 0.929 . S
C1890 C1889 1.399 . S
C1890 C1891 1.385 . S
C1891 H1877 0.931 . S
C1891 C1890 1.385 . S
C1891 C1892 1.389 . S
C1892 C1891 1.389 . S
C1892 C1893 1.387 . S
C1893 H1878 0.930 . S
C1893 C1888 1.390 . S
C1893 C1892 1.387 . S
H1894 C1906 0.930 . S
H1895 C1908 0.930 . S
H1896 C1909 0.930 . S
H1897 C1913 0.959 . S
H1898 C1913 0.959 . S
H1899 C1913 0.961 . S
H1900 C1914 0.960 . S
H1901 C1914 0.961 . S
H1902 C1914 0.959 . S
H1903 C1917 0.929 . S
H1904 C1918 0.931 1_565 S
H1905 C1920 0.930 . S
C1906 H1894 0.930 . S
C1906 C1907 1.399 . S
C1906 C1911 1.399 . S
C1907 C1906 1.399 . S
C1907 C1908 1.376 1_545 S
C1908 H1895 0.930 . S
C1908 C1907 1.376 1_565 S
C1908 C1909 1.388 . S
C1909 H1896 0.930 . S
C1909 C1908 1.388 . S
C1909 C1910 1.390 1_565 S
C1910 C1909 1.390 1_545 S
C1910 C1911 1.394 . S
C1910 C1916 1.465 . S
C1911 C1906 1.399 . S
C1911 C1910 1.394 . S
C1911 C1912 1.516 . S
C1912 C1911 1.516 . S
C1912 C1913 1.502 . S
C1912 C1914 1.561 . S
C1912 C1915 1.526 . S
C1913 H1897 0.959 . S
C1913 H1898 0.959 . S
C1913 H1899 0.961 . S
C1913 C1912 1.502 . S
C1914 H1900 0.960 . S
C1914 H1901 0.961 . S
C1914 H1902 0.959 . S
C1914 C1912 1.561 . S
C1915 C1912 1.526 . S
C1915 C1916 1.396 . S
C1915 C1920 1.390 . S
C1916 C1910 1.465 . S
C1916 C1915 1.396 . S
C1916 C1917 1.399 1_545 S
C1917 H1903 0.929 . S
C1917 C1916 1.399 1_565 S
C1917 C1918 1.385 1_565 S
C1918 H1904 0.931 1_545 S
C1918 C1917 1.385 1_545 S
C1918 C1919 1.389 . S
C1919 C1918 1.389 . S
C1919 C1920 1.387 . S
C1920 H1905 0.930 . S
C1920 C1915 1.390 . S
C1920 C1919 1.387 . S
H1921 C1933 0.930 . S
H1922 C1935 0.930 . S
H1923 C1936 0.930 . S
H1924 C1940 0.959 . S
H1925 C1940 0.959 . S
H1926 C1940 0.961 . S
H1927 C1941 0.960 . S
H1928 C1941 0.961 . S
H1929 C1941 0.959 . S
H1930 C1944 0.929 . S
H1931 C1945 0.931 . S
H1932 C1947 0.930 . S
C1933 H1921 0.930 . S
C1933 C1934 1.399 . S
C1933 C1938 1.399 . S
C1934 C1933 1.399 . S
C1934 C1935 1.376 . S
C1935 H1922 0.930 . S
C1935 C1934 1.376 . S
C1935 C1936 1.388 . S
C1936 H1923 0.930 . S
C1936 C1935 1.388 . S
C1936 C1937 1.390 . S
C1937 C1936 1.390 . S
C1937 C1938 1.394 . S
C1937 C1943 1.465 . S
C1938 C1933 1.399 . S
C1938 C1937 1.394 . S
C1938 C1939 1.516 . S
C1939 C1938 1.516 . S
C1939 C1940 1.502 . S
C1939 C1941 1.561 . S
C1939 C1942 1.526 . S
C1940 H1924 0.959 . S
C1940 H1925 0.959 . S
C1940 H1926 0.961 . S
C1940 C1939 1.502 . S
C1941 H1927 0.960 . S
C1941 H1928 0.961 . S
C1941 H1929 0.959 . S
C1941 C1939 1.561 . S
C1942 C1939 1.526 . S
C1942 C1943 1.396 . S
C1942 C1947 1.390 . S
C1943 C1937 1.465 . S
C1943 C1942 1.396 . S
C1943 C1944 1.399 . S
C1944 H1930 0.929 . S
C1944 C1943 1.399 . S
C1944 C1945 1.385 . S
C1945 H1931 0.931 . S
C1945 C1944 1.385 . S
C1945 C1946 1.389 . S
C1946 C1945 1.389 . S
C1946 C1947 1.387 . S
C1947 H1932 0.930 . S
C1947 C1942 1.390 . S
C1947 C1946 1.387 . S
H1948 C1960 0.930 . S
H1949 C1962 0.930 . S
H1950 C1963 0.930 . S
H1951 C1967 0.959 . S
H1952 C1967 0.959 . S
H1953 C1967 0.961 . S
H1954 C1968 0.960 . S
H1955 C1968 0.961 . S
H1956 C1968 0.959 . S
H1957 C1971 0.929 . S
H1958 C1972 0.931 . S
H1959 C1974 0.930 . S
C1960 H1948 0.930 . S
C1960 C1961 1.399 . S
C1960 C1965 1.399 . S
C1961 C1960 1.399 . S
C1961 C1962 1.376 1_545 S
C1962 H1949 0.930 . S
C1962 C1961 1.376 1_565 S
C1962 C1963 1.388 . S
C1963 H1950 0.930 . S
C1963 C1962 1.388 . S
C1963 C1964 1.355 1_565 S
C1964 C1963 1.355 1_545 S
C1964 C1965 1.420 . S
C1964 C1970 1.482 . S
C1965 C1960 1.399 . S
C1965 C1964 1.420 . S
C1965 C1966 1.516 . S
C1966 C1965 1.516 . S
C1966 C1967 1.502 . S
C1966 C1968 1.561 . S
C1966 C1969 1.526 . S
C1967 H1951 0.959 . S
C1967 H1952 0.959 . S
C1967 H1953 0.961 . S
C1967 C1966 1.502 . S
C1968 H1954 0.960 . S
C1968 H1955 0.961 . S
C1968 H1956 0.959 . S
C1968 C1966 1.561 . S
C1969 C1966 1.526 . S
C1969 C1970 1.396 . S
C1969 C1974 1.390 . S
C1970 C1964 1.482 . S
C1970 C1969 1.396 . S
C1970 C1971 1.399 1_545 S
C1971 H1957 0.929 . S
C1971 C1970 1.399 1_565 S
C1971 C1972 1.385 . S
C1972 H1958 0.931 . S
C1972 C1971 1.385 . S
C1972 C1973 1.389 1_565 S
C1973 C1972 1.389 1_545 S
C1973 C1974 1.387 . S
C1974 H1959 0.930 . S
C1974 C1969 1.390 . S
C1974 C1973 1.387 . S
H1975 C1987 0.930 . S
H1976 C1989 0.930 . S
H1977 C1990 0.930 . S
H1978 C1994 0.959 . S
H1979 C1994 0.959 . S
H1980 C1994 0.961 . S
H1981 C1995 0.960 . S
H1982 C1995 0.961 . S
H1983 C1995 0.959 . S
H1984 C1998 0.929 . S
H1985 C1999 0.931 . S
H1986 C2001 0.930 . S
C1987 H1975 0.930 . S
C1987 C1988 1.399 . S
C1987 C1992 1.399 . S
C1988 C1987 1.399 . S
C1988 C1989 1.376 . S
C1989 H1976 0.930 . S
C1989 C1988 1.376 . S
C1989 C1990 1.388 . S
C1990 H1977 0.930 . S
C1990 C1989 1.388 . S
C1990 C1991 1.390 . S
C1991 C1990 1.390 . S
C1991 C1992 1.394 . S
C1991 C1997 1.465 . S
C1992 C1987 1.399 . S
C1992 C1991 1.394 . S
C1992 C1993 1.516 . S
C1993 C1992 1.516 . S
C1993 C1994 1.502 . S
C1993 C1995 1.561 . S
C1993 C1996 1.526 . S
C1994 H1978 0.959 . S
C1994 H1979 0.959 . S
C1994 H1980 0.961 . S
C1994 C1993 1.502 . S
C1995 H1981 0.960 . S
C1995 H1982 0.961 . S
C1995 H1983 0.959 . S
C1995 C1993 1.561 . S
C1996 C1993 1.526 . S
C1996 C1997 1.396 . S
C1996 C2001 1.390 . S
C1997 C1991 1.465 . S
C1997 C1996 1.396 . S
C1997 C1998 1.399 . S
C1998 H1984 0.929 . S
C1998 C1997 1.399 . S
C1998 C1999 1.385 . S
C1999 H1985 0.931 . S
C1999 C1998 1.385 . S
C1999 C2000 1.389 . S
C2000 C1999 1.389 . S
C2000 C2001 1.387 . S
C2001 H1986 0.930 . S
C2001 C1996 1.390 . S
C2001 C2000 1.387 . S
H2002 C2014 0.930 . S
H2003 C2016 0.930 . S
H2004 C2017 0.930 . S
H2005 C2021 0.959 . S
H2006 C2021 0.959 . S
H2007 C2021 0.961 . S
H2008 C2022 0.960 . S
H2009 C2022 0.961 . S
H2010 C2022 0.959 . S
H2011 C2025 0.929 . S
H2012 C2026 0.931 . S
H2013 C2028 0.930 . S
C2014 H2002 0.930 . S
C2014 C2015 1.399 1_565 S
C2014 C2019 1.399 . S
C2015 C2014 1.399 1_545 S
C2015 C2016 1.376 . S
C2016 H2003 0.930 . S
C2016 C2015 1.376 . S
C2016 C2017 1.388 . S
C2017 H2004 0.930 . S
C2017 C2016 1.388 . S
C2017 C2018 1.390 . S
C2018 C2017 1.390 . S
C2018 C2019 1.394 1_545 S
C2018 C2024 1.465 . S
C2019 C2014 1.399 . S
C2019 C2018 1.394 1_565 S
C2019 C2020 1.516 . S
C2020 C2019 1.516 . S
C2020 C2021 1.502 . S
C2020 C2022 1.561 . S
C2020 C2023 1.526 . S
C2021 H2005 0.959 . S
C2021 H2006 0.959 . S
C2021 H2007 0.961 . S
C2021 C2020 1.502 . S
C2022 H2008 0.960 . S
C2022 H2009 0.961 . S
C2022 H2010 0.959 . S
C2022 C2020 1.561 . S
C2023 C2020 1.526 . S
C2023 C2024 1.396 1_565 S
C2023 C2028 1.390 . S
C2024 C2018 1.465 . S
C2024 C2023 1.396 1_545 S
C2024 C2025 1.399 . S
C2025 H2011 0.929 . S
C2025 C2024 1.399 . S
C2025 C2026 1.385 . S
C2026 H2012 0.931 . S
C2026 C2025 1.385 . S
C2026 C2027 1.389 . S
C2027 C2026 1.389 . S
C2027 C2028 1.387 1_545 S
C2028 H2013 0.930 . S
C2028 C2023 1.390 . S
C2028 C2027 1.387 1_565 S
H2029 C2041 0.930 . S
H2030 C2043 0.930 . S
H2031 C2044 0.930 . S
H2032 C2048 0.959 . S
H2033 C2048 0.959 . S
H2034 C2048 0.961 . S
H2035 C2049 0.960 . S
H2036 C2049 0.961 . S
H2037 C2049 0.959 . S
H2038 C2052 0.929 . S
H2039 C2053 0.931 . S
H2040 C2055 0.930 . S
C2041 H2029 0.930 . S
C2041 C2042 1.399 . S
C2041 C2046 1.399 . S
C2042 C2041 1.399 . S
C2042 C2043 1.376 . S
C2043 H2030 0.930 . S
C2043 C2042 1.376 . S
C2043 C2044 1.388 . S
C2044 H2031 0.930 . S
C2044 C2043 1.388 . S
C2044 C2045 1.390 . S
C2045 C2044 1.390 . S
C2045 C2046 1.394 . S
C2045 C2051 1.465 . S
C2046 C2041 1.399 . S
C2046 C2045 1.394 . S
C2046 C2047 1.516 . S
C2047 C2046 1.516 . S
C2047 C2048 1.502 . S
C2047 C2049 1.561 . S
C2047 C2050 1.526 . S
C2048 H2032 0.959 . S
C2048 H2033 0.959 . S
C2048 H2034 0.961 . S
C2048 C2047 1.502 . S
C2049 H2035 0.960 . S
C2049 H2036 0.961 . S
C2049 H2037 0.959 . S
C2049 C2047 1.561 . S
C2050 C2047 1.526 . S
C2050 C2051 1.396 . S
C2050 C2055 1.390 . S
C2051 C2045 1.465 . S
C2051 C2050 1.396 . S
C2051 C2052 1.399 . S
C2052 H2038 0.929 . S
C2052 C2051 1.399 . S
C2052 C2053 1.385 . S
C2053 H2039 0.931 . S
C2053 C2052 1.385 . S
C2053 C2054 1.389 . S
C2054 C2053 1.389 . S
C2054 C2055 1.387 . S
C2055 H2040 0.930 . S
C2055 C2050 1.390 . S
C2055 C2054 1.387 . S
H2056 C2068 0.930 . S
H2057 C2070 0.930 . S
H2058 C2071 0.930 . S
H2059 C2075 0.959 . S
H2060 C2075 0.959 . S
H2061 C2075 0.961 . S
H2062 C2076 0.960 . S
H2063 C2076 0.961 . S
H2064 C2076 0.959 . S
H2065 C2079 0.929 . S
H2066 C2080 0.931 . S
H2067 C2082 0.930 1_556 S
C2068 H2056 0.930 . S
C2068 C2069 1.399 . S
C2068 C2073 1.399 . S
C2069 C2068 1.399 . S
C2069 C2070 1.376 . S
C2070 H2057 0.930 . S
C2070 C2069 1.376 . S
C2070 C2071 1.388 . S
C2071 H2058 0.930 . S
C2071 C2070 1.388 . S
C2071 C2072 1.390 . S
C2072 C2071 1.390 . S
C2072 C2073 1.394 . S
C2072 C2078 1.465 . S
C2073 C2068 1.399 . S
C2073 C2072 1.394 . S
C2073 C2074 1.516 . S
C2074 C2073 1.516 . S
C2074 C2075 1.502 . S
C2074 C2076 1.561 1_554 S
C2074 C2077 1.526 . S
C2075 H2059 0.959 . S
C2075 H2060 0.959 . S
C2075 H2061 0.961 . S
C2075 C2074 1.502 . S
C2076 H2062 0.960 . S
C2076 H2063 0.961 . S
C2076 H2064 0.959 . S
C2076 C2074 1.561 1_556 S
C2077 C2074 1.526 . S
C2077 C2078 1.396 . S
C2077 C2082 1.390 . S
C2078 C2072 1.465 . S
C2078 C2077 1.396 . S
C2078 C2079 1.399 . S
C2079 H2065 0.929 . S
C2079 C2078 1.399 . S
C2079 C2080 1.385 . S
C2080 H2066 0.931 . S
C2080 C2079 1.385 . S
C2080 C2081 1.389 . S
C2081 C2080 1.389 . S
C2081 C2082 1.387 . S
C2082 H2067 0.930 1_554 S
C2082 C2077 1.390 . S
C2082 C2081 1.387 . S
H2083 C2095 0.930 . S
H2084 C2097 0.930 . S
H2085 C2098 0.930 . S
H2086 C2102 0.959 . S
H2087 C2102 0.951 1_556 S
H2088 C2102 0.961 . S
H2089 C2103 0.960 . S
H2090 C2103 0.961 . S
H2091 C2103 0.959 . S
H2092 C2106 0.929 . S
H2093 C2107 0.931 . S
H2094 C2109 0.915 1_556 S
C2095 H2083 0.930 . S
C2095 C2096 1.399 . S
C2095 C2100 1.399 . S
C2096 C2095 1.399 . S
C2096 C2097 1.376 . S
C2097 H2084 0.930 . S
C2097 C2096 1.376 . S
C2097 C2098 1.388 . S
C2098 H2085 0.930 . S
C2098 C2097 1.388 . S
C2098 C2099 1.390 . S
C2099 C2098 1.390 . S
C2099 C2100 1.394 . S
C2099 C2105 1.465 . S
C2100 C2095 1.399 . S
C2100 C2099 1.394 . S
C2100 C2101 1.516 . S
C2101 C2100 1.516 . S
C2101 C2102 1.502 . S
C2101 C2103 1.561 1_554 S
C2101 C2104 1.526 . S
C2102 H2086 0.959 . S
C2102 H2087 0.951 1_554 S
C2102 H2088 0.961 . S
C2102 C2101 1.502 . S
C2103 H2089 0.960 . S
C2103 H2090 0.961 . S
C2103 H2091 0.959 . S
C2103 C2101 1.561 1_556 S
C2104 C2101 1.526 . S
C2104 C2105 1.396 . S
C2104 C2109 1.390 . S
C2105 C2099 1.465 . S
C2105 C2104 1.396 . S
C2105 C2106 1.399 . S
C2106 H2092 0.929 . S
C2106 C2105 1.399 . S
C2106 C2107 1.385 . S
C2107 H2093 0.931 . S
C2107 C2106 1.385 . S
C2107 C2108 1.389 . S
C2108 C2107 1.389 . S
C2108 C2109 1.387 . S
C2109 H2094 0.915 1_554 S
C2109 C2104 1.390 . S
C2109 C2108 1.387 . S
H2110 C2122 0.930 . S
H2111 C2124 0.930 . S
H2112 C2125 0.930 . S
H2113 C2129 0.959 . S
H2114 C2129 0.959 . S
H2115 C2129 0.961 . S
H2116 C2130 0.960 . S
H2117 C2130 0.961 . S
H2118 C2130 0.959 . S
H2119 C2133 0.929 . S
H2120 C2134 0.931 . S
H2121 C2136 0.930 . S
C2122 H2110 0.930 . S
C2122 C2123 1.399 . S
C2122 C2127 1.399 . S
C2123 C2122 1.399 . S
C2123 C2124 1.376 . S
C2124 H2111 0.930 . S
C2124 C2123 1.376 . S
C2124 C2125 1.388 . S
C2125 H2112 0.930 . S
C2125 C2124 1.388 . S
C2125 C2126 1.390 . S
C2126 C2125 1.390 . S
C2126 C2127 1.394 . S
C2126 C2132 1.465 . S
C2127 C2122 1.399 . S
C2127 C2126 1.394 . S
C2127 C2128 1.516 . S
C2128 C2127 1.516 . S
C2128 C2129 1.502 . S
C2128 C2130 1.561 . S
C2128 C2131 1.526 . S
C2129 H2113 0.959 . S
C2129 H2114 0.959 . S
C2129 H2115 0.961 . S
C2129 C2128 1.502 . S
C2130 H2116 0.960 . S
C2130 H2117 0.961 . S
C2130 H2118 0.959 . S
C2130 C2128 1.561 . S
C2131 C2128 1.526 . S
C2131 C2132 1.396 . S
C2131 C2136 1.390 . S
C2132 C2126 1.465 . S
C2132 C2131 1.396 . S
C2132 C2133 1.399 . S
C2133 H2119 0.929 . S
C2133 C2132 1.399 . S
C2133 C2134 1.385 . S
C2134 H2120 0.931 . S
C2134 C2133 1.385 . S
C2134 C2135 1.389 . S
C2135 C2134 1.389 . S
C2135 C2136 1.387 . S
C2136 H2121 0.930 . S
C2136 C2131 1.390 . S
C2136 C2135 1.387 . S
H2137 C2149 0.930 . S
H2138 C2151 0.930 . S
H2139 C2152 0.930 . S
H2140 C2156 0.959 . S
H2141 C2156 0.959 . S
H2142 C2156 0.961 . S
H2143 C2157 0.960 . S
H2144 C2157 0.961 . S
H2145 C2157 0.959 . S
H2146 C2160 0.929 . S
H2147 C2161 0.931 . S
H2148 C2163 0.930 . S
C2149 H2137 0.930 . S
C2149 C2150 1.399 . S
C2149 C2154 1.399 . S
C2150 C2149 1.399 . S
C2150 C2151 1.376 . S
C2151 H2138 0.930 . S
C2151 C2150 1.376 . S
C2151 C2152 1.388 . S
C2152 H2139 0.930 . S
C2152 C2151 1.388 . S
C2152 C2153 1.390 . S
C2153 C2152 1.390 . S
C2153 C2154 1.394 . S
C2153 C2159 1.465 . S
C2154 C2149 1.399 . S
C2154 C2153 1.394 . S
C2154 C2155 1.516 . S
C2155 C2154 1.516 . S
C2155 C2156 1.502 . S
C2155 C2157 1.561 . S
C2155 C2158 1.526 . S
C2156 H2140 0.959 . S
C2156 H2141 0.959 . S
C2156 H2142 0.961 . S
C2156 C2155 1.502 . S
C2157 H2143 0.960 . S
C2157 H2144 0.961 . S
C2157 H2145 0.959 . S
C2157 C2155 1.561 . S
C2158 C2155 1.526 . S
C2158 C2159 1.396 . S
C2158 C2163 1.390 . S
C2159 C2153 1.465 . S
C2159 C2158 1.396 . S
C2159 C2160 1.399 . S
C2160 H2146 0.929 . S
C2160 C2159 1.399 . S
C2160 C2161 1.385 . S
C2161 H2147 0.931 . S
C2161 C2160 1.385 . S
C2161 C2162 1.389 . S
C2162 C2161 1.389 . S
C2162 C2163 1.387 . S
C2163 H2148 0.930 . S
C2163 C2158 1.390 . S
C2163 C2162 1.387 . S
H2164 C2176 0.930 . S
H2165 C2178 0.930 . S
H2166 C2179 0.930 . S
H2167 C2183 0.959 . S
H2168 C2183 0.959 . S
H2169 C2183 0.961 . S
H2170 C2184 0.960 . S
H2171 C2184 0.961 . S
H2172 C2184 0.959 . S
H2173 C2187 0.929 . S
H2174 C2188 0.931 . S
H2175 C2190 0.930 . S
C2176 H2164 0.930 . S
C2176 C2177 1.399 1_565 S
C2176 C2181 1.399 . S
C2177 C2176 1.399 1_545 S
C2177 C2178 1.376 . S
C2178 H2165 0.930 . S
C2178 C2177 1.376 . S
C2178 C2179 1.388 . S
C2179 H2166 0.930 . S
C2179 C2178 1.388 . S
C2179 C2180 1.390 1_545 S
C2180 C2179 1.390 1_565 S
C2180 C2181 1.394 . S
C2180 C2186 1.465 . S
C2181 C2176 1.399 . S
C2181 C2180 1.394 . S
C2181 C2182 1.516 . S
C2182 C2181 1.516 . S
C2182 C2183 1.502 . S
C2182 C2184 1.561 . S
C2182 C2185 1.526 . S
C2183 H2167 0.959 . S
C2183 H2168 0.959 . S
C2183 H2169 0.961 . S
C2183 C2182 1.502 . S
C2184 H2170 0.960 . S
C2184 H2171 0.961 . S
C2184 H2172 0.959 . S
C2184 C2182 1.561 . S
C2185 C2182 1.526 . S
C2185 C2186 1.396 . S
C2185 C2190 1.390 . S
C2186 C2180 1.465 . S
C2186 C2185 1.396 . S
C2186 C2187 1.399 . S
C2187 H2173 0.929 . S
C2187 C2186 1.399 . S
C2187 C2188 1.385 . S
C2188 H2174 0.931 . S
C2188 C2187 1.385 . S
C2188 C2189 1.389 . S
C2189 C2188 1.389 . S
C2189 C2190 1.387 . S
C2190 H2175 0.930 . S
C2190 C2185 1.390 . S
C2190 C2189 1.387 . S
H2191 C2203 0.930 . S
H2192 C2205 0.930 . S
H2193 C2206 0.930 . S
H2194 C2210 0.959 . S
H2195 C2210 0.959 . S
H2196 C2210 0.961 . S
H2197 C2211 0.960 . S
H2198 C2211 0.961 . S
H2199 C2211 0.959 . S
H2200 C2214 0.929 . S
H2201 C2215 0.931 . S
H2202 C2217 0.930 . S
C2203 H2191 0.930 . S
C2203 C2204 1.399 . S
C2203 C2208 1.399 . S
C2204 C2203 1.399 . S
C2204 C2205 1.376 . S
C2205 H2192 0.930 . S
C2205 C2204 1.376 . S
C2205 C2206 1.388 . S
C2206 H2193 0.930 . S
C2206 C2205 1.388 . S
C2206 C2207 1.390 . S
C2207 C2206 1.390 . S
C2207 C2208 1.394 . S
C2207 C2213 1.465 . S
C2208 C2203 1.399 . S
C2208 C2207 1.394 . S
C2208 C2209 1.516 . S
C2209 C2208 1.516 . S
C2209 C2210 1.502 . S
C2209 C2211 1.561 . S
C2209 C2212 1.526 . S
C2210 H2194 0.959 . S
C2210 H2195 0.959 . S
C2210 H2196 0.961 . S
C2210 C2209 1.502 . S
C2211 H2197 0.960 . S
C2211 H2198 0.961 . S
C2211 H2199 0.959 . S
C2211 C2209 1.561 . S
C2212 C2209 1.526 . S
C2212 C2213 1.396 . S
C2212 C2217 1.390 . S
C2213 C2207 1.465 . S
C2213 C2212 1.396 . S
C2213 C2214 1.399 . S
C2214 H2200 0.929 . S
C2214 C2213 1.399 . S
C2214 C2215 1.385 . S
C2215 H2201 0.931 . S
C2215 C2214 1.385 . S
C2215 C2216 1.389 . S
C2216 C2215 1.389 . S
C2216 C2217 1.387 . S
C2217 H2202 0.930 . S
C2217 C2212 1.390 . S
C2217 C2216 1.387 . S
H2218 C2230 0.930 . S
H2219 C2232 0.930 . S
H2220 C2233 0.930 . S
H2221 C2237 0.959 . S
H2222 C2237 0.959 . S
H2223 C2237 0.961 . S
H2224 C2238 0.960 . S
H2225 C2238 0.961 . S
H2226 C2238 0.959 . S
H2227 C2241 0.929 . S
H2228 C2242 0.931 . S
H2229 C2244 0.930 . S
C2230 H2218 0.930 . S
C2230 C2231 1.399 . S
C2230 C2235 1.399 . S
C2231 C2230 1.399 . S
C2231 C2232 1.376 . S
C2232 H2219 0.930 . S
C2232 C2231 1.376 . S
C2232 C2233 1.388 . S
C2233 H2220 0.930 . S
C2233 C2232 1.388 . S
C2233 C2234 1.390 . S
C2234 C2233 1.390 . S
C2234 C2235 1.394 . S
C2234 C2240 1.465 . S
C2235 C2230 1.399 . S
C2235 C2234 1.394 . S
C2235 C2236 1.516 . S
C2236 C2235 1.516 . S
C2236 C2237 1.502 . S
C2236 C2238 1.561 . S
C2236 C2239 1.526 . S
C2237 H2221 0.959 . S
C2237 H2222 0.959 . S
C2237 H2223 0.961 . S
C2237 C2236 1.502 . S
C2238 H2224 0.960 . S
C2238 H2225 0.961 . S
C2238 H2226 0.959 . S
C2238 C2236 1.561 . S
C2239 C2236 1.526 . S
C2239 C2240 1.396 . S
C2239 C2244 1.390 . S
C2240 C2234 1.465 . S
C2240 C2239 1.396 . S
C2240 C2241 1.399 . S
C2241 H2227 0.929 . S
C2241 C2240 1.399 . S
C2241 C2242 1.385 . S
C2242 H2228 0.931 . S
C2242 C2241 1.385 . S
C2242 C2243 1.389 . S
C2243 C2242 1.389 . S
C2243 C2244 1.387 . S
C2244 H2229 0.930 . S
C2244 C2239 1.390 . S
C2244 C2243 1.387 . S
H2245 C2257 0.930 . S
H2246 C2259 0.930 . S
H2247 C2260 0.930 . S
H2248 C2264 0.959 . S
H2249 C2264 0.959 . S
H2250 C2264 0.961 . S
H2251 C2265 0.960 . S
H2252 C2265 0.961 . S
H2253 C2265 0.959 . S
H2254 C2268 0.929 . S
H2255 C2269 0.931 . S
H2256 C2271 0.930 . S
C2257 H2245 0.930 . S
C2257 C2258 1.399 . S
C2257 C2262 1.399 . S
C2258 C2257 1.399 . S
C2258 C2259 1.376 . S
C2259 H2246 0.930 . S
C2259 C2258 1.376 . S
C2259 C2260 1.388 . S
C2260 H2247 0.930 . S
C2260 C2259 1.388 . S
C2260 C2261 1.390 . S
C2261 C2260 1.390 . S
C2261 C2262 1.394 . S
C2261 C2267 1.465 . S
C2262 C2257 1.399 . S
C2262 C2261 1.394 . S
C2262 C2263 1.516 . S
C2263 C2262 1.516 . S
C2263 C2264 1.502 . S
C2263 C2265 1.561 . S
C2263 C2266 1.526 . S
C2264 H2248 0.959 . S
C2264 H2249 0.959 . S
C2264 H2250 0.961 . S
C2264 C2263 1.502 . S
C2265 H2251 0.960 . S
C2265 H2252 0.961 . S
C2265 H2253 0.959 . S
C2265 C2263 1.561 . S
C2266 C2263 1.526 . S
C2266 C2267 1.396 . S
C2266 C2271 1.390 . S
C2267 C2261 1.465 . S
C2267 C2266 1.396 . S
C2267 C2268 1.399 . S
C2268 H2254 0.929 . S
C2268 C2267 1.399 . S
C2268 C2269 1.385 . S
C2269 H2255 0.931 . S
C2269 C2268 1.385 . S
C2269 C2270 1.389 . S
C2270 C2269 1.389 . S
C2270 C2271 1.387 . S
C2271 H2256 0.930 . S
C2271 C2266 1.390 . S
C2271 C2270 1.387 . S
H2272 C2284 0.930 . S
H2273 C2286 0.930 . S
H2274 C2287 0.930 . S
H2275 C2291 0.959 . S
H2276 C2291 0.959 . S
H2277 C2291 0.961 . S
H2278 C2292 0.960 . S
H2279 C2292 0.961 . S
H2280 C2292 0.959 . S
H2281 C2295 0.929 . S
H2282 C2296 0.931 . S
H2283 C2298 0.930 . S
C2284 H2272 0.930 . S
C2284 C2285 1.399 . S
C2284 C2289 1.399 . S
C2285 C2284 1.399 . S
C2285 C2286 1.376 . S
C2286 H2273 0.930 . S
C2286 C2285 1.376 . S
C2286 C2287 1.388 . S
C2287 H2274 0.930 . S
C2287 C2286 1.388 . S
C2287 C2288 1.390 . S
C2288 C2287 1.390 . S
C2288 C2289 1.394 . S
C2288 C2294 1.465 . S
C2289 C2284 1.399 . S
C2289 C2288 1.394 . S
C2289 C2290 1.516 . S
C2290 C2289 1.516 . S
C2290 C2291 1.502 . S
C2290 C2292 1.561 . S
C2290 C2293 1.526 . S
C2291 H2275 0.959 . S
C2291 H2276 0.959 . S
C2291 H2277 0.961 . S
C2291 C2290 1.502 . S
C2292 H2278 0.960 . S
C2292 H2279 0.961 . S
C2292 H2280 0.959 . S
C2292 C2290 1.561 . S
C2293 C2290 1.526 . S
C2293 C2294 1.396 . S
C2293 C2298 1.390 . S
C2294 C2288 1.465 . S
C2294 C2293 1.396 . S
C2294 C2295 1.399 . S
C2295 H2281 0.929 . S
C2295 C2294 1.399 . S
C2295 C2296 1.385 . S
C2296 H2282 0.931 . S
C2296 C2295 1.385 . S
C2296 C2297 1.389 . S
C2297 C2296 1.389 . S
C2297 C2298 1.387 . S
C2298 H2283 0.930 . S
C2298 C2293 1.390 . S
C2298 C2297 1.387 . S
H2299 C2311 0.930 . S
H2300 C2313 0.930 . S
H2301 C2314 0.930 . S
H2302 C2318 0.959 . S
H2303 C2318 0.959 . S
H2304 C2318 0.961 . S
H2305 C2319 0.960 . S
H2306 C2319 0.961 . S
H2307 C2319 0.959 . S
H2308 C2322 0.929 . S
H2309 C2323 0.931 . S
H2310 C2325 0.930 . S
C2311 H2299 0.930 . S
C2311 C2312 1.399 . S
C2311 C2316 1.399 . S
C2312 C2311 1.399 . S
C2312 C2313 1.376 . S
C2313 H2300 0.930 . S
C2313 C2312 1.376 . S
C2313 C2314 1.388 . S
C2314 H2301 0.930 . S
C2314 C2313 1.388 . S
C2314 C2315 1.390 . S
C2315 C2314 1.390 . S
C2315 C2316 1.394 . S
C2315 C2321 1.465 . S
C2316 C2311 1.399 . S
C2316 C2315 1.394 . S
C2316 C2317 1.516 . S
C2317 C2316 1.516 . S
C2317 C2318 1.502 . S
C2317 C2319 1.561 . S
C2317 C2320 1.526 . S
C2318 H2302 0.959 . S
C2318 H2303 0.959 . S
C2318 H2304 0.961 . S
C2318 C2317 1.502 . S
C2319 H2305 0.960 . S
C2319 H2306 0.961 . S
C2319 H2307 0.959 . S
C2319 C2317 1.561 . S
C2320 C2317 1.526 . S
C2320 C2321 1.396 . S
C2320 C2325 1.390 . S
C2321 C2315 1.465 . S
C2321 C2320 1.396 . S
C2321 C2322 1.399 . S
C2322 H2308 0.929 . S
C2322 C2321 1.399 . S
C2322 C2323 1.385 . S
C2323 H2309 0.931 . S
C2323 C2322 1.385 . S
C2323 C2324 1.389 . S
C2324 C2323 1.389 . S
C2324 C2325 1.387 . S
C2325 H2310 0.930 . S
C2325 C2320 1.390 . S
C2325 C2324 1.387 . S
H2326 C2338 0.930 . S
H2327 C2340 0.930 . S
H2328 C2341 0.930 . S
H2329 C2345 0.959 . S
H2330 C2345 0.959 1_554 S
H2331 C2345 0.961 . S
H2332 C2346 0.960 . S
H2333 C2346 0.961 . S
H2334 C2346 0.959 . S
H2335 C2349 0.929 . S
H2336 C2350 0.931 . S
H2337 C2352 0.930 . S
C2338 H2326 0.930 . S
C2338 C2339 1.399 . S
C2338 C2343 1.399 . S
C2339 C2338 1.399 . S
C2339 C2340 1.376 . S
C2340 H2327 0.930 . S
C2340 C2339 1.376 . S
C2340 C2341 1.388 . S
C2341 H2328 0.930 . S
C2341 C2340 1.388 . S
C2341 C2342 1.390 . S
C2342 C2341 1.390 . S
C2342 C2343 1.394 . S
C2342 C2348 1.465 . S
C2343 C2338 1.399 . S
C2343 C2342 1.394 . S
C2343 C2344 1.516 . S
C2344 C2343 1.516 . S
C2344 C2345 1.502 1_455 S
C2344 C2346 1.561 1_556 S
C2344 C2347 1.526 . S
C2345 H2329 0.959 . S
C2345 H2330 0.959 1_556 S
C2345 H2331 0.961 . S
C2345 C2344 1.502 1_655 S
C2346 H2332 0.960 . S
C2346 H2333 0.961 . S
C2346 H2334 0.959 . S
C2346 C2344 1.561 1_554 S
C2347 C2344 1.526 . S
C2347 C2348 1.396 . S
C2347 C2352 1.390 1_556 S
C2348 C2342 1.465 . S
C2348 C2347 1.396 . S
C2348 C2349 1.399 . S
C2349 H2335 0.929 . S
C2349 C2348 1.399 . S
C2349 C2350 1.385 . S
C2350 H2336 0.931 . S
C2350 C2349 1.385 . S
C2350 C2351 1.395 . S
C2351 C2350 1.395 . S
C2351 C2352 1.384 1_556 S
C2352 H2337 0.930 . S
C2352 C2347 1.390 1_554 S
C2352 C2351 1.384 1_554 S
H2353 C2365 0.930 . S
H2354 C2367 0.930 . S
H2355 C2368 0.930 . S
H2356 C2372 0.959 . S
H2357 C2372 0.959 . S
H2358 C2372 0.961 . S
H2359 C2373 0.960 . S
H2360 C2373 0.961 . S
H2361 C2373 0.959 . S
H2362 C2376 0.929 . S
H2363 C2377 0.931 . S
H2364 C2379 0.930 . S
C2365 H2353 0.930 . S
C2365 C2366 1.399 . S
C2365 C2370 1.399 1_455 S
C2366 C2365 1.399 . S
C2366 C2367 1.376 . S
C2367 H2354 0.930 . S
C2367 C2366 1.376 . S
C2367 C2368 1.388 . S
C2368 H2355 0.930 . S
C2368 C2367 1.388 . S
C2368 C2369 1.390 1_455 S
C2369 C2368 1.390 1_655 S
C2369 C2370 1.394 . S
C2369 C2375 1.465 . S
C2370 C2365 1.399 1_655 S
C2370 C2369 1.394 . S
C2370 C2371 1.516 . S
C2371 C2370 1.516 . S
C2371 C2372 1.502 . S
C2371 C2373 1.561 . S
C2371 C2374 1.526 . S
C2372 H2356 0.959 . S
C2372 H2357 0.959 . S
C2372 H2358 0.961 . S
C2372 C2371 1.502 . S
C2373 H2359 0.960 . S
C2373 H2360 0.961 . S
C2373 H2361 0.959 . S
C2373 C2371 1.561 . S
C2374 C2371 1.526 . S
C2374 C2375 1.396 . S
C2374 C2379 1.390 . S
C2375 C2369 1.465 . S
C2375 C2374 1.396 . S
C2375 C2376 1.399 . S
C2376 H2362 0.929 . S
C2376 C2375 1.399 . S
C2376 C2377 1.385 . S
C2377 H2363 0.931 . S
C2377 C2376 1.385 . S
C2377 C2378 1.389 . S
C2378 C2377 1.389 . S
C2378 C2379 1.387 . S
C2379 H2364 0.930 . S
C2379 C2374 1.390 . S
C2379 C2378 1.387 . S
H2380 C2392 0.930 . S
H2381 C2394 0.930 . S
H2382 C2395 0.930 . S
H2383 C2399 0.959 . S
H2384 C2399 0.959 . S
H2385 C2399 0.961 . S
H2386 C2400 0.960 . S
H2387 C2400 0.961 . S
H2388 C2400 0.959 . S
H2389 C2403 0.929 . S
H2390 C2404 0.931 . S
H2391 C2406 0.930 . S
C2392 H2380 0.930 . S
C2392 C2393 1.399 . S
C2392 C2397 1.399 . S
C2393 C2392 1.399 . S
C2393 C2394 1.376 . S
C2394 H2381 0.930 . S
C2394 C2393 1.376 . S
C2394 C2395 1.388 . S
C2395 H2382 0.930 . S
C2395 C2394 1.388 . S
C2395 C2396 1.390 . S
C2396 C2395 1.390 . S
C2396 C2397 1.394 . S
C2396 C2402 1.465 . S
C2397 C2392 1.399 . S
C2397 C2396 1.394 . S
C2397 C2398 1.516 . S
C2398 C2397 1.516 . S
C2398 C2399 1.502 . S
C2398 C2400 1.561 . S
C2398 C2401 1.526 . S
C2399 H2383 0.959 . S
C2399 H2384 0.959 . S
C2399 H2385 0.961 . S
C2399 C2398 1.502 . S
C2400 H2386 0.960 . S
C2400 H2387 0.961 . S
C2400 H2388 0.959 . S
C2400 C2398 1.561 . S
C2401 C2398 1.526 . S
C2401 C2402 1.396 . S
C2401 C2406 1.390 . S
C2402 C2396 1.465 . S
C2402 C2401 1.396 . S
C2402 C2403 1.399 . S
C2403 H2389 0.929 . S
C2403 C2402 1.399 . S
C2403 C2404 1.385 . S
C2404 H2390 0.931 . S
C2404 C2403 1.385 . S
C2404 C2405 1.389 . S
C2405 C2404 1.389 . S
C2405 C2406 1.387 . S
C2406 H2391 0.930 . S
C2406 C2401 1.390 . S
C2406 C2405 1.387 . S
H2407 C2419 0.930 . S
H2408 C2421 0.930 . S
H2409 C2422 0.930 . S
H2410 C2426 0.959 . S
H2411 C2426 0.959 1_655 S
H2412 C2426 0.961 . S
H2413 C2427 0.960 1_455 S
H2414 C2427 0.961 . S
H2415 C2427 0.959 . S
H2416 C2430 0.929 . S
H2417 C2431 0.931 . S
H2418 C2433 0.930 . S
C2419 H2407 0.930 . S
C2419 C2420 1.399 . S
C2419 C2424 1.399 . S
C2420 C2419 1.399 . S
C2420 C2421 1.376 . S
C2421 H2408 0.930 . S
C2421 C2420 1.376 . S
C2421 C2422 1.388 . S
C2422 H2409 0.930 . S
C2422 C2421 1.388 . S
C2422 C2423 1.390 . S
C2423 C2422 1.390 . S
C2423 C2424 1.394 . S
C2423 C2429 1.465 1_455 S
C2424 C2419 1.399 . S
C2424 C2423 1.394 . S
C2424 C2425 1.544 . S
C2425 C2424 1.544 . S
C2425 C2426 1.522 . S
C2425 C2427 1.547 1_455 S
C2425 C2428 1.491 1_455 S
C2426 H2410 0.959 . S
C2426 H2411 0.959 1_455 S
C2426 H2412 0.961 . S
C2426 C2425 1.522 . S
C2427 H2413 0.960 1_655 S
C2427 H2414 0.961 . S
C2427 H2415 0.959 . S
C2427 C2425 1.547 1_655 S
C2428 C2425 1.491 1_655 S
C2428 C2429 1.396 . S
C2428 C2433 1.390 . S
C2429 C2423 1.465 1_655 S
C2429 C2428 1.396 . S
C2429 C2430 1.399 . S
C2430 H2416 0.929 . S
C2430 C2429 1.399 . S
C2430 C2431 1.385 . S
C2431 H2417 0.931 . S
C2431 C2430 1.385 . S
C2431 C2432 1.389 . S
C2432 C2431 1.389 . S
C2432 C2433 1.387 . S
C2433 H2418 0.930 . S
C2433 C2428 1.390 . S
C2433 C2432 1.387 . S
H2434 C2446 0.930 . S
H2435 C2448 0.930 . S
H2436 C2449 0.930 . S
H2437 C2453 0.959 . S
H2438 C2453 0.959 . S
H2439 C2453 0.961 . S
H2440 C2454 0.960 . S
H2441 C2454 0.961 . S
H2442 C2454 0.959 . S
H2443 C2457 0.929 . S
H2444 C2458 0.931 . S
H2445 C2460 0.930 . S
C2446 H2434 0.930 . S
C2446 C2447 1.399 . S
C2446 C2451 1.399 1_655 S
C2447 C2446 1.399 . S
C2447 C2448 1.376 1_655 S
C2448 H2435 0.930 . S
C2448 C2447 1.376 1_455 S
C2448 C2449 1.388 . S
C2449 H2436 0.930 . S
C2449 C2448 1.388 . S
C2449 C2450 1.390 . S
C2450 C2449 1.390 . S
C2450 C2451 1.394 . S
C2450 C2456 1.465 . S
C2451 C2446 1.399 1_455 S
C2451 C2450 1.394 . S
C2451 C2452 1.516 . S
C2452 C2451 1.516 . S
C2452 C2453 1.502 1_455 S
C2452 C2454 1.561 . S
C2452 C2455 1.526 . S
C2453 H2437 0.959 . S
C2453 H2438 0.959 . S
C2453 H2439 0.961 . S
C2453 C2452 1.502 1_655 S
C2454 H2440 0.960 . S
C2454 H2441 0.961 . S
C2454 H2442 0.959 . S
C2454 C2452 1.561 . S
C2455 C2452 1.526 . S
C2455 C2456 1.396 . S
C2455 C2460 1.390 . S
C2456 C2450 1.465 . S
C2456 C2455 1.396 . S
C2456 C2457 1.399 . S
C2457 H2443 0.929 . S
C2457 C2456 1.399 . S
C2457 C2458 1.385 . S
C2458 H2444 0.931 . S
C2458 C2457 1.385 . S
C2458 C2459 1.389 . S
C2459 C2458 1.389 . S
C2459 C2460 1.387 . S
C2460 H2445 0.930 . S
C2460 C2455 1.390 . S
C2460 C2459 1.387 . S
H2461 C2473 0.930 . S
H2462 C2475 0.930 . S
H2463 C2476 0.930 . S
H2464 C2480 0.959 . S
H2465 C2480 0.959 . S
H2466 C2480 0.961 . S
H2467 C2481 0.960 . S
H2468 C2481 0.961 . S
H2469 C2481 0.959 . S
H2470 C2484 0.929 . S
H2471 C2485 0.931 . S
H2472 C2487 0.930 . S
C2473 H2461 0.930 . S
C2473 C2474 1.399 . S
C2473 C2478 1.399 . S
C2474 C2473 1.399 . S
C2474 C2475 1.376 . S
C2475 H2462 0.930 . S
C2475 C2474 1.376 . S
C2475 C2476 1.388 . S
C2476 H2463 0.930 . S
C2476 C2475 1.388 . S
C2476 C2477 1.390 . S
C2477 C2476 1.390 . S
C2477 C2478 1.394 . S
C2477 C2483 1.465 . S
C2478 C2473 1.399 . S
C2478 C2477 1.394 . S
C2478 C2479 1.516 . S
C2479 C2478 1.516 . S
C2479 C2480 1.502 . S
C2479 C2481 1.561 . S
C2479 C2482 1.526 . S
C2480 H2464 0.959 . S
C2480 H2465 0.959 . S
C2480 H2466 0.961 . S
C2480 C2479 1.502 . S
C2481 H2467 0.960 . S
C2481 H2468 0.961 . S
C2481 H2469 0.959 . S
C2481 C2479 1.561 . S
C2482 C2479 1.526 . S
C2482 C2483 1.396 . S
C2482 C2487 1.390 . S
C2483 C2477 1.465 . S
C2483 C2482 1.396 . S
C2483 C2484 1.399 . S
C2484 H2470 0.929 . S
C2484 C2483 1.399 . S
C2484 C2485 1.385 . S
C2485 H2471 0.931 . S
C2485 C2484 1.385 . S
C2485 C2486 1.389 . S
C2486 C2485 1.389 . S
C2486 C2487 1.387 . S
C2487 H2472 0.930 . S
C2487 C2482 1.390 . S
C2487 C2486 1.387 . S
H2488 C2500 0.930 . S
H2489 C2502 0.930 . S
H2490 C2503 0.930 . S
H2491 C2507 0.959 . S
H2492 C2507 0.959 . S
H2493 C2507 0.961 . S
H2494 C2508 0.960 . S
H2495 C2508 0.961 . S
H2496 C2508 0.959 . S
H2497 C2511 0.929 . S
H2498 C2512 0.931 . S
H2499 C2514 0.930 . S
C2500 H2488 0.930 . S
C2500 C2501 1.399 . S
C2500 C2505 1.399 . S
C2501 C2500 1.399 . S
C2501 C2502 1.376 . S
C2502 H2489 0.930 . S
C2502 C2501 1.376 . S
C2502 C2503 1.388 . S
C2503 H2490 0.930 . S
C2503 C2502 1.388 . S
C2503 C2504 1.390 . S
C2504 C2503 1.390 . S
C2504 C2505 1.394 . S
C2504 C2510 1.465 . S
C2505 C2500 1.399 . S
C2505 C2504 1.394 . S
C2505 C2506 1.516 . S
C2506 C2505 1.516 . S
C2506 C2507 1.502 . S
C2506 C2508 1.561 . S
C2506 C2509 1.526 . S
C2507 H2491 0.959 . S
C2507 H2492 0.959 . S
C2507 H2493 0.961 . S
C2507 C2506 1.502 . S
C2508 H2494 0.960 . S
C2508 H2495 0.961 . S
C2508 H2496 0.959 . S
C2508 C2506 1.561 . S
C2509 C2506 1.526 . S
C2509 C2510 1.396 . S
C2509 C2514 1.390 . S
C2510 C2504 1.465 . S
C2510 C2509 1.396 . S
C2510 C2511 1.399 . S
C2511 H2497 0.929 . S
C2511 C2510 1.399 . S
C2511 C2512 1.385 . S
C2512 H2498 0.931 . S
C2512 C2511 1.385 . S
C2512 C2513 1.389 . S
C2513 C2512 1.389 . S
C2513 C2514 1.387 . S
C2514 H2499 0.930 . S
C2514 C2509 1.390 . S
C2514 C2513 1.387 . S
H2515 C2527 0.930 . S
H2516 C2529 0.930 . S
H2517 C2530 0.930 . S
H2518 C2534 0.959 . S
H2519 C2534 0.959 . S
H2520 C2534 0.961 . S
H2521 C2535 0.960 . S
H2522 C2535 0.961 . S
H2523 C2535 0.959 . S
H2524 C2538 0.929 . S
H2525 C2539 0.931 . S
H2526 C2541 0.930 . S
C2527 H2515 0.930 . S
C2527 C2528 1.399 . S
C2527 C2532 1.399 . S
C2528 C2527 1.399 . S
C2528 C2529 1.376 . S
C2529 H2516 0.930 . S
C2529 C2528 1.376 . S
C2529 C2530 1.388 . S
C2530 H2517 0.930 . S
C2530 C2529 1.388 . S
C2530 C2531 1.390 . S
C2531 C2530 1.390 . S
C2531 C2532 1.394 . S
C2531 C2537 1.465 . S
C2532 C2527 1.399 . S
C2532 C2531 1.394 . S
C2532 C2533 1.516 . S
C2533 C2532 1.516 . S
C2533 C2534 1.502 . S
C2533 C2535 1.561 . S
C2533 C2536 1.526 . S
C2534 H2518 0.959 . S
C2534 H2519 0.959 . S
C2534 H2520 0.961 . S
C2534 C2533 1.502 . S
C2535 H2521 0.960 . S
C2535 H2522 0.961 . S
C2535 H2523 0.959 . S
C2535 C2533 1.561 . S
C2536 C2533 1.526 . S
C2536 C2537 1.396 . S
C2536 C2541 1.390 . S
C2537 C2531 1.465 . S
C2537 C2536 1.396 . S
C2537 C2538 1.399 . S
C2538 H2524 0.929 . S
C2538 C2537 1.399 . S
C2538 C2539 1.385 . S
C2539 H2525 0.931 . S
C2539 C2538 1.385 . S
C2539 C2540 1.389 . S
C2540 C2539 1.389 . S
C2540 C2541 1.387 . S
C2541 H2526 0.930 . S
C2541 C2536 1.390 . S
C2541 C2540 1.387 . S
H2542 C2554 0.930 . S
H2543 C2556 0.930 . S
H2544 C2557 0.930 . S
H2545 C2561 0.959 . S
H2546 C2561 0.959 . S
H2547 C2561 0.961 . S
H2548 C2562 0.960 . S
H2549 C2562 0.961 . S
H2550 C2562 0.959 . S
H2551 C2565 0.929 . S
H2552 C2566 0.931 . S
H2553 C2568 0.930 . S
C2554 H2542 0.930 . S
C2554 C2555 1.399 . S
C2554 C2559 1.399 . S
C2555 C2554 1.399 . S
C2555 C2556 1.376 . S
C2556 H2543 0.930 . S
C2556 C2555 1.376 . S
C2556 C2557 1.388 . S
C2557 H2544 0.930 . S
C2557 C2556 1.388 . S
C2557 C2558 1.390 . S
C2558 C2557 1.390 . S
C2558 C2559 1.394 . S
C2558 C2564 1.465 . S
C2559 C2554 1.399 . S
C2559 C2558 1.394 . S
C2559 C2560 1.516 . S
C2560 C2559 1.516 . S
C2560 C2561 1.502 . S
C2560 C2562 1.561 . S
C2560 C2563 1.526 . S
C2561 H2545 0.959 . S
C2561 H2546 0.959 . S
C2561 H2547 0.961 . S
C2561 C2560 1.502 . S
C2562 H2548 0.960 . S
C2562 H2549 0.961 . S
C2562 H2550 0.959 . S
C2562 C2560 1.561 . S
C2563 C2560 1.526 . S
C2563 C2564 1.396 . S
C2563 C2568 1.390 . S
C2564 C2558 1.465 . S
C2564 C2563 1.396 . S
C2564 C2565 1.399 . S
C2565 H2551 0.929 . S
C2565 C2564 1.399 . S
C2565 C2566 1.385 . S
C2566 H2552 0.931 . S
C2566 C2565 1.385 . S
C2566 C2567 1.389 . S
C2567 C2566 1.389 . S
C2567 C2568 1.387 . S
C2568 H2553 0.930 . S
C2568 C2563 1.390 . S
C2568 C2567 1.387 . S
H2569 C2581 0.930 . S
H2570 C2583 0.930 . S
H2571 C2584 0.930 . S
H2572 C2588 0.959 . S
H2573 C2588 0.959 . S
H2574 C2588 0.961 . S
H2575 C2589 0.960 . S
H2576 C2589 0.961 . S
H2577 C2589 0.959 . S
H2578 C2592 0.929 . S
H2579 C2593 0.931 . S
H2580 C2595 0.930 . S
C2581 H2569 0.930 . S
C2581 C2582 1.399 . S
C2581 C2586 1.399 . S
C2582 C2581 1.399 . S
C2582 C2583 1.376 . S
C2583 H2570 0.930 . S
C2583 C2582 1.376 . S
C2583 C2584 1.388 . S
C2584 H2571 0.930 . S
C2584 C2583 1.388 . S
C2584 C2585 1.390 . S
C2585 C2584 1.390 . S
C2585 C2586 1.394 . S
C2585 C2591 1.465 . S
C2586 C2581 1.399 . S
C2586 C2585 1.394 . S
C2586 C2587 1.516 . S
C2587 C2586 1.516 . S
C2587 C2588 1.502 . S
C2587 C2589 1.561 . S
C2587 C2590 1.526 . S
C2588 H2572 0.959 . S
C2588 H2573 0.959 . S
C2588 H2574 0.961 . S
C2588 C2587 1.502 . S
C2589 H2575 0.960 . S
C2589 H2576 0.961 . S
C2589 H2577 0.959 . S
C2589 C2587 1.561 . S
C2590 C2587 1.526 . S
C2590 C2591 1.396 . S
C2590 C2595 1.390 . S
C2591 C2585 1.465 . S
C2591 C2590 1.396 . S
C2591 C2592 1.399 . S
C2592 H2578 0.929 . S
C2592 C2591 1.399 . S
C2592 C2593 1.385 . S
C2593 H2579 0.931 . S
C2593 C2592 1.385 . S
C2593 C2594 1.389 . S
C2594 C2593 1.389 . S
C2594 C2595 1.387 . S
C2595 H2580 0.930 . S
C2595 C2590 1.390 . S
C2595 C2594 1.387 . S
H2596 C2608 0.930 . S
H2597 C2610 0.930 . S
H2598 C2611 0.930 . S
H2599 C2615 0.959 . S
H2600 C2615 0.959 . S
H2601 C2615 0.961 . S
H2602 C2616 0.960 . S
H2603 C2616 0.961 . S
H2604 C2616 0.959 . S
H2605 C2619 0.929 . S
H2606 C2620 0.931 . S
H2607 C2622 0.930 . S
C2608 H2596 0.930 . S
C2608 C2609 1.399 . S
C2608 C2613 1.399 . S
C2609 C2608 1.399 . S
C2609 C2610 1.376 . S
C2610 H2597 0.930 . S
C2610 C2609 1.376 . S
C2610 C2611 1.388 . S
C2611 H2598 0.930 . S
C2611 C2610 1.388 . S
C2611 C2612 1.390 . S
C2612 C2611 1.390 . S
C2612 C2613 1.394 . S
C2612 C2618 1.465 . S
C2613 C2608 1.399 . S
C2613 C2612 1.394 . S
C2613 C2614 1.516 . S
C2614 C2613 1.516 . S
C2614 C2615 1.502 . S
C2614 C2616 1.561 . S
C2614 C2617 1.526 . S
C2615 H2599 0.959 . S
C2615 H2600 0.959 . S
C2615 H2601 0.961 . S
C2615 C2614 1.502 . S
C2616 H2602 0.960 . S
C2616 H2603 0.961 . S
C2616 H2604 0.959 . S
C2616 C2614 1.561 . S
C2617 C2614 1.526 . S
C2617 C2618 1.396 . S
C2617 C2622 1.390 . S
C2618 C2612 1.465 . S
C2618 C2617 1.396 . S
C2618 C2619 1.399 . S
C2619 H2605 0.929 . S
C2619 C2618 1.399 . S
C2619 C2620 1.385 . S
C2620 H2606 0.931 . S
C2620 C2619 1.385 . S
C2620 C2621 1.389 . S
C2621 C2620 1.389 . S
C2621 C2622 1.387 . S
C2622 H2607 0.930 . S
C2622 C2617 1.390 . S
C2622 C2621 1.387 . S
H2623 C2635 0.930 . S
H2624 C2637 0.930 . S
H2625 C2638 0.930 . S
H2626 C2642 0.959 . S
H2627 C2642 0.959 . S
H2628 C2642 0.961 . S
H2629 C2643 0.960 . S
H2630 C2643 0.961 . S
H2631 C2643 0.959 . S
H2632 C2646 0.929 . S
H2633 C2647 0.931 . S
H2634 C2649 0.930 . S
C2635 H2623 0.930 . S
C2635 C2636 1.399 . S
C2635 C2640 1.399 . S
C2636 C2635 1.399 . S
C2636 C2637 1.376 . S
C2637 H2624 0.930 . S
C2637 C2636 1.376 . S
C2637 C2638 1.388 . S
C2638 H2625 0.930 . S
C2638 C2637 1.388 . S
C2638 C2639 1.390 . S
C2639 C2638 1.390 . S
C2639 C2640 1.394 . S
C2639 C2645 1.465 . S
C2640 C2635 1.399 . S
C2640 C2639 1.394 . S
C2640 C2641 1.516 . S
C2641 C2640 1.516 . S
C2641 C2642 1.502 . S
C2641 C2643 1.561 . S
C2641 C2644 1.526 . S
C2642 H2626 0.959 . S
C2642 H2627 0.959 . S
C2642 H2628 0.961 . S
C2642 C2641 1.502 . S
C2643 H2629 0.960 . S
C2643 H2630 0.961 . S
C2643 H2631 0.959 . S
C2643 C2641 1.561 . S
C2644 C2641 1.526 . S
C2644 C2645 1.396 . S
C2644 C2649 1.390 . S
C2645 C2639 1.465 . S
C2645 C2644 1.396 . S
C2645 C2646 1.399 . S
C2646 H2632 0.929 . S
C2646 C2645 1.399 . S
C2646 C2647 1.385 . S
C2647 H2633 0.931 . S
C2647 C2646 1.385 . S
C2647 C2648 1.389 . S
C2648 C2647 1.389 . S
C2648 C2649 1.387 . S
C2649 H2634 0.930 . S
C2649 C2644 1.390 . S
C2649 C2648 1.387 . S
H2650 C2662 0.930 . S
H2651 C2664 0.930 . S
H2652 C2665 0.930 . S
H2653 C2669 0.959 . S
H2654 C2669 0.959 . S
H2655 C2669 0.961 . S
H2656 C2670 0.960 . S
H2657 C2670 0.961 . S
H2658 C2670 0.959 . S
H2659 C2673 0.929 . S
H2660 C2674 0.931 . S
H2661 C2676 0.930 . S
C2662 H2650 0.930 . S
C2662 C2663 1.399 . S
C2662 C2667 1.399 . S
C2663 C2662 1.399 . S
C2663 C2664 1.376 . S
C2664 H2651 0.930 . S
C2664 C2663 1.376 . S
C2664 C2665 1.388 . S
C2665 H2652 0.930 . S
C2665 C2664 1.388 . S
C2665 C2666 1.390 . S
C2666 C2665 1.390 . S
C2666 C2667 1.394 . S
C2666 C2672 1.465 . S
C2667 C2662 1.399 . S
C2667 C2666 1.394 . S
C2667 C2668 1.516 . S
C2668 C2667 1.516 . S
C2668 C2669 1.502 . S
C2668 C2670 1.561 . S
C2668 C2671 1.526 . S
C2669 H2653 0.959 . S
C2669 H2654 0.959 . S
C2669 H2655 0.961 . S
C2669 C2668 1.502 . S
C2670 H2656 0.960 . S
C2670 H2657 0.961 . S
C2670 H2658 0.959 . S
C2670 C2668 1.561 . S
C2671 C2668 1.526 . S
C2671 C2672 1.396 . S
C2671 C2676 1.390 . S
C2672 C2666 1.465 . S
C2672 C2671 1.396 . S
C2672 C2673 1.399 . S
C2673 H2659 0.929 . S
C2673 C2672 1.399 . S
C2673 C2674 1.385 . S
C2674 H2660 0.931 . S
C2674 C2673 1.385 . S
C2674 C2675 1.389 . S
C2675 C2674 1.389 . S
C2675 C2676 1.387 . S
C2676 H2661 0.930 . S
C2676 C2671 1.390 . S
C2676 C2675 1.387 . S
H2677 C2689 0.930 . S
H2678 C2691 0.930 . S
H2679 C2692 0.930 . S
H2680 C2696 0.959 . S
H2681 C2696 0.959 . S
H2682 C2696 0.961 . S
H2683 C2697 0.960 . S
H2684 C2697 0.961 . S
H2685 C2697 0.959 . S
H2686 C2700 0.929 . S
H2687 C2701 0.931 . S
H2688 C2703 0.930 . S
C2689 H2677 0.930 . S
C2689 C2690 1.399 . S
C2689 C2694 1.399 . S
C2690 C2689 1.399 . S
C2690 C2691 1.376 . S
C2691 H2678 0.930 . S
C2691 C2690 1.376 . S
C2691 C2692 1.388 . S
C2692 H2679 0.930 . S
C2692 C2691 1.388 . S
C2692 C2693 1.390 . S
C2693 C2692 1.390 . S
C2693 C2694 1.394 . S
C2693 C2699 1.465 . S
C2694 C2689 1.399 . S
C2694 C2693 1.394 . S
C2694 C2695 1.516 . S
C2695 C2694 1.516 . S
C2695 C2696 1.502 . S
C2695 C2697 1.561 . S
C2695 C2698 1.526 . S
C2696 H2680 0.959 . S
C2696 H2681 0.959 . S
C2696 H2682 0.961 . S
C2696 C2695 1.502 . S
C2697 H2683 0.960 . S
C2697 H2684 0.961 . S
C2697 H2685 0.959 . S
C2697 C2695 1.561 . S
C2698 C2695 1.526 . S
C2698 C2699 1.396 . S
C2698 C2703 1.390 . S
C2699 C2693 1.465 . S
C2699 C2698 1.396 . S
C2699 C2700 1.399 . S
C2700 H2686 0.929 . S
C2700 C2699 1.399 . S
C2700 C2701 1.385 . S
C2701 H2687 0.931 . S
C2701 C2700 1.385 . S
C2701 C2702 1.389 . S
C2702 C2701 1.389 . S
C2702 C2703 1.387 . S
C2703 H2688 0.930 . S
C2703 C2698 1.390 . S
C2703 C2702 1.387 . S
H2704 C2716 0.930 . S
H2705 C2718 0.930 . S
H2706 C2719 0.930 . S
H2707 C2723 0.959 . S
H2708 C2723 0.959 . S
H2709 C2723 0.961 . S
H2710 C2724 0.960 . S
H2711 C2724 0.961 . S
H2712 C2724 0.959 . S
H2713 C2727 0.929 . S
H2714 C2728 0.931 . S
H2715 C2730 0.930 . S
C2716 H2704 0.930 . S
C2716 C2717 1.399 . S
C2716 C2721 1.399 . S
C2717 C2716 1.399 . S
C2717 C2718 1.376 . S
C2718 H2705 0.930 . S
C2718 C2717 1.376 . S
C2718 C2719 1.388 . S
C2719 H2706 0.930 . S
C2719 C2718 1.388 . S
C2719 C2720 1.390 . S
C2720 C2719 1.390 . S
C2720 C2721 1.394 . S
C2720 C2726 1.465 . S
C2721 C2716 1.399 . S
C2721 C2720 1.394 . S
C2721 C2722 1.516 . S
C2722 C2721 1.516 . S
C2722 C2723 1.502 . S
C2722 C2724 1.561 . S
C2722 C2725 1.526 . S
C2723 H2707 0.959 . S
C2723 H2708 0.959 . S
C2723 H2709 0.961 . S
C2723 C2722 1.502 . S
C2724 H2710 0.960 . S
C2724 H2711 0.961 . S
C2724 H2712 0.959 . S
C2724 C2722 1.561 . S
C2725 C2722 1.526 . S
C2725 C2726 1.396 . S
C2725 C2730 1.390 . S
C2726 C2720 1.465 . S
C2726 C2725 1.396 . S
C2726 C2727 1.399 . S
C2727 H2713 0.929 . S
C2727 C2726 1.399 . S
C2727 C2728 1.385 . S
C2728 H2714 0.931 . S
C2728 C2727 1.385 . S
C2728 C2729 1.389 . S
C2729 C2728 1.389 . S
C2729 C2730 1.387 . S
C2730 H2715 0.930 . S
C2730 C2725 1.390 . S
C2730 C2729 1.387 . S
H2731 C2743 0.930 . S
H2732 C2745 0.930 . S
H2733 C2746 0.930 . S
H2734 C2750 0.959 . S
H2735 C2750 0.959 . S
H2736 C2750 0.961 . S
H2737 C2751 0.960 . S
H2738 C2751 0.961 . S
H2739 C2751 0.959 . S
H2740 C2754 0.929 . S
H2741 C2755 0.931 . S
H2742 C2757 0.930 . S
C2743 H2731 0.930 . S
C2743 C2744 1.399 . S
C2743 C2748 1.399 . S
C2744 C2743 1.399 . S
C2744 C2745 1.376 . S
C2745 H2732 0.930 . S
C2745 C2744 1.376 . S
C2745 C2746 1.388 . S
C2746 H2733 0.930 . S
C2746 C2745 1.388 . S
C2746 C2747 1.390 . S
C2747 C2746 1.390 . S
C2747 C2748 1.394 . S
C2747 C2753 1.465 . S
C2748 C2743 1.399 . S
C2748 C2747 1.394 . S
C2748 C2749 1.516 . S
C2749 C2748 1.516 . S
C2749 C2750 1.502 . S
C2749 C2751 1.561 . S
C2749 C2752 1.526 . S
C2750 H2734 0.959 . S
C2750 H2735 0.959 . S
C2750 H2736 0.961 . S
C2750 C2749 1.502 . S
C2751 H2737 0.960 . S
C2751 H2738 0.961 . S
C2751 H2739 0.959 . S
C2751 C2749 1.561 . S
C2752 C2749 1.526 . S
C2752 C2753 1.396 . S
C2752 C2757 1.390 . S
C2753 C2747 1.465 . S
C2753 C2752 1.396 . S
C2753 C2754 1.399 . S
C2754 H2740 0.929 . S
C2754 C2753 1.399 . S
C2754 C2755 1.385 . S
C2755 H2741 0.931 . S
C2755 C2754 1.385 . S
C2755 C2756 1.389 . S
C2756 C2755 1.389 . S
C2756 C2757 1.387 . S
C2757 H2742 0.930 . S
C2757 C2752 1.390 . S
C2757 C2756 1.387 . S
H2758 C2770 0.930 . S
H2759 C2772 0.930 . S
H2760 C2773 0.930 . S
H2761 C2777 0.959 . S
H2762 C2777 0.959 . S
H2763 C2777 0.961 . S
H2764 C2778 0.960 . S
H2765 C2778 0.961 . S
H2766 C2778 0.959 . S
H2767 C2781 0.929 . S
H2768 C2782 0.931 . S
H2769 C2784 0.930 . S
C2770 H2758 0.930 . S
C2770 C2771 1.399 . S
C2770 C2775 1.399 . S
C2771 C2770 1.399 . S
C2771 C2772 1.376 . S
C2772 H2759 0.930 . S
C2772 C2771 1.376 . S
C2772 C2773 1.388 . S
C2773 H2760 0.930 . S
C2773 C2772 1.388 . S
C2773 C2774 1.390 . S
C2774 C2773 1.390 . S
C2774 C2775 1.394 . S
C2774 C2780 1.465 . S
C2775 C2770 1.399 . S
C2775 C2774 1.394 . S
C2775 C2776 1.516 . S
C2776 C2775 1.516 . S
C2776 C2777 1.502 . S
C2776 C2778 1.561 . S
C2776 C2779 1.526 . S
C2777 H2761 0.959 . S
C2777 H2762 0.959 . S
C2777 H2763 0.961 . S
C2777 C2776 1.502 . S
C2778 H2764 0.960 . S
C2778 H2765 0.961 . S
C2778 H2766 0.959 . S
C2778 C2776 1.561 . S
C2779 C2776 1.526 . S
C2779 C2780 1.396 . S
C2779 C2784 1.390 . S
C2780 C2774 1.465 . S
C2780 C2779 1.396 . S
C2780 C2781 1.399 . S
C2781 H2767 0.929 . S
C2781 C2780 1.399 . S
C2781 C2782 1.385 . S
C2782 H2768 0.931 . S
C2782 C2781 1.385 . S
C2782 C2783 1.389 . S
C2783 C2782 1.389 . S
C2783 C2784 1.387 . S
C2784 H2769 0.930 . S
C2784 C2779 1.390 . S
C2784 C2783 1.387 . S
H2785 C2797 0.930 . S
H2786 C2799 0.921 1_545 S
H2787 C2800 0.930 . S
H2788 C2804 0.959 . S
H2789 C2804 0.959 . S
H2790 C2804 0.961 . S
H2791 C2805 0.960 . S
H2792 C2805 0.961 . S
H2793 C2805 0.959 . S
H2794 C2808 0.929 . S
H2795 C2809 0.931 . S
H2796 C2811 0.930 . S
C2797 H2785 0.930 . S
C2797 C2798 1.399 1_556 S
C2797 C2802 1.399 1_556 S
C2798 C2797 1.399 1_554 S
C2798 C2799 1.376 . S
C2799 H2786 0.921 1_565 S
C2799 C2798 1.376 . S
C2799 C2800 1.388 1_565 S
C2800 H2787 0.930 . S
C2800 C2799 1.388 1_545 S
C2800 C2801 1.390 1_545 S
C2801 C2800 1.390 1_565 S
C2801 C2802 1.394 . S
C2801 C2807 1.465 1_565 S
C2802 C2797 1.399 1_554 S
C2802 C2801 1.394 . S
C2802 C2803 1.516 1_554 S
C2803 C2802 1.516 1_556 S
C2803 C2804 1.502 . S
C2803 C2805 1.561 . S
C2803 C2806 1.526 1_556 S
C2804 H2788 0.959 . S
C2804 H2789 0.959 . S
C2804 H2790 0.961 . S
C2804 C2803 1.502 . S
C2805 H2791 0.960 . S
C2805 H2792 0.961 . S
C2805 H2793 0.959 . S
C2805 C2803 1.561 . S
C2806 C2803 1.526 1_554 S
C2806 C2807 1.396 1_565 S
C2806 C2811 1.390 1_554 S
C2807 C2801 1.465 1_545 S
C2807 C2806 1.396 1_545 S
C2807 C2808 1.399 . S
C2808 H2794 0.929 . S
C2808 C2807 1.399 . S
C2808 C2809 1.385 . S
C2809 H2795 0.931 . S
C2809 C2808 1.385 . S
C2809 C2810 1.389 . S
C2810 C2809 1.389 . S
C2810 C2811 1.387 1_544 S
C2811 H2796 0.930 . S
C2811 C2806 1.390 1_556 S
C2811 C2810 1.387 1_566 S
H2812 C2824 0.930 . S
H2813 C2826 0.930 . S
H2814 C2827 0.930 . S
H2815 C2831 0.959 . S
H2816 C2831 0.959 . S
H2817 C2831 0.961 . S
H2818 C2832 0.960 . S
H2819 C2832 0.961 . S
H2820 C2832 0.959 . S
H2821 C2835 0.929 . S
H2822 C2836 0.931 . S
H2823 C2838 0.930 . S
C2824 H2812 0.930 . S
C2824 C2825 1.399 . S
C2824 C2829 1.399 . S
C2825 C2824 1.399 . S
C2825 C2826 1.376 . S
C2826 H2813 0.930 . S
C2826 C2825 1.376 . S
C2826 C2827 1.388 . S
C2827 H2814 0.930 . S
C2827 C2826 1.388 . S
C2827 C2828 1.390 . S
C2828 C2827 1.390 . S
C2828 C2829 1.394 . S
C2828 C2834 1.465 . S
C2829 C2824 1.399 . S
C2829 C2828 1.394 . S
C2829 C2830 1.516 . S
C2830 C2829 1.516 . S
C2830 C2831 1.502 . S
C2830 C2832 1.561 . S
C2830 C2833 1.526 . S
C2831 H2815 0.959 . S
C2831 H2816 0.959 . S
C2831 H2817 0.961 . S
C2831 C2830 1.502 . S
C2832 H2818 0.960 . S
C2832 H2819 0.961 . S
C2832 H2820 0.959 . S
C2832 C2830 1.561 . S
C2833 C2830 1.526 . S
C2833 C2834 1.396 . S
C2833 C2838 1.390 . S
C2834 C2828 1.465 . S
C2834 C2833 1.396 . S
C2834 C2835 1.399 . S
C2835 H2821 0.929 . S
C2835 C2834 1.399 . S
C2835 C2836 1.385 . S
C2836 H2822 0.931 . S
C2836 C2835 1.385 . S
C2836 C2837 1.389 . S
C2837 C2836 1.389 . S
C2837 C2838 1.387 . S
C2838 H2823 0.930 . S
C2838 C2833 1.390 . S
C2838 C2837 1.387 . S
H2839 C2851 0.930 . S
H2840 C2853 0.930 . S
H2841 C2854 0.930 . S
H2842 C2858 0.959 . S
H2843 C2858 0.959 . S
H2844 C2858 0.961 . S
H2845 C2859 0.960 . S
H2846 C2859 0.961 . S
H2847 C2859 0.959 . S
H2848 C2862 0.957 . S
H2849 C2863 0.931 . S
H2850 C2865 0.930 . S
C2851 H2839 0.930 . S
C2851 C2852 1.399 . S
C2851 C2856 1.399 . S
C2852 C2851 1.399 . S
C2852 C2853 1.376 1_554 S
C2853 H2840 0.930 . S
C2853 C2852 1.376 1_556 S
C2853 C2854 1.388 . S
C2854 H2841 0.930 . S
C2854 C2853 1.388 . S
C2854 C2855 1.390 1_556 S
C2855 C2854 1.390 1_554 S
C2855 C2856 1.394 . S
C2855 C2861 1.465 . S
C2856 C2851 1.399 . S
C2856 C2855 1.394 . S
C2856 C2857 1.516 . S
C2857 C2856 1.516 . S
C2857 C2858 1.502 . S
C2857 C2859 1.561 . S
C2857 C2860 1.526 . S
C2858 H2842 0.959 . S
C2858 H2843 0.959 . S
C2858 H2844 0.961 . S
C2858 C2857 1.502 . S
C2859 H2845 0.960 . S
C2859 H2846 0.961 . S
C2859 H2847 0.959 . S
C2859 C2857 1.561 . S
C2860 C2857 1.526 . S
C2860 C2861 1.396 . S
C2860 C2865 1.390 . S
C2861 C2855 1.465 . S
C2861 C2860 1.396 . S
C2861 C2862 1.399 . S
C2862 H2848 0.957 . S
C2862 C2861 1.399 . S
C2862 C2863 1.385 . S
C2863 H2849 0.931 . S
C2863 C2862 1.385 . S
C2863 C2864 1.389 . S
C2864 C2863 1.389 . S
C2864 C2865 1.387 . S
C2865 H2850 0.930 . S
C2865 C2860 1.390 . S
C2865 C2864 1.387 . S
H2866 C2878 0.930 . S
H2867 C2880 0.930 . S
H2868 C2881 0.930 . S
H2869 C2885 0.959 . S
H2870 C2885 0.959 . S
H2871 C2885 0.961 . S
H2872 C2886 0.960 . S
H2873 C2886 0.961 . S
H2874 C2886 0.959 . S
H2875 C2889 0.929 . S
H2876 C2890 0.931 . S
H2877 C2892 0.930 . S
C2878 H2866 0.930 . S
C2878 C2879 1.399 . S
C2878 C2883 1.399 . S
C2879 C2878 1.399 . S
C2879 C2880 1.376 . S
C2880 H2867 0.930 . S
C2880 C2879 1.376 . S
C2880 C2881 1.388 . S
C2881 H2868 0.930 . S
C2881 C2880 1.388 . S
C2881 C2882 1.390 . S
C2882 C2881 1.390 . S
C2882 C2883 1.394 . S
C2882 C2888 1.465 . S
C2883 C2878 1.399 . S
C2883 C2882 1.394 . S
C2883 C2884 1.516 . S
C2884 C2883 1.516 . S
C2884 C2885 1.502 . S
C2884 C2886 1.561 . S
C2884 C2887 1.526 . S
C2885 H2869 0.959 . S
C2885 H2870 0.959 . S
C2885 H2871 0.961 . S
C2885 C2884 1.502 . S
C2886 H2872 0.960 . S
C2886 H2873 0.961 . S
C2886 H2874 0.959 . S
C2886 C2884 1.561 . S
C2887 C2884 1.526 . S
C2887 C2888 1.396 . S
C2887 C2892 1.390 . S
C2888 C2882 1.465 . S
C2888 C2887 1.396 . S
C2888 C2889 1.399 . S
C2889 H2875 0.929 . S
C2889 C2888 1.399 . S
C2889 C2890 1.385 . S
C2890 H2876 0.931 . S
C2890 C2889 1.385 . S
C2890 C2891 1.389 . S
C2891 C2890 1.389 . S
C2891 C2892 1.387 . S
C2892 H2877 0.930 . S
C2892 C2887 1.390 . S
C2892 C2891 1.387 . S
H2893 C2905 0.930 . S
H2894 C2907 0.930 . S
H2895 C2908 0.930 . S
H2896 C2912 0.959 . S
H2897 C2912 0.959 . S
H2898 C2912 0.961 . S
H2899 C2913 0.960 . S
H2900 C2913 0.961 . S
H2901 C2913 0.959 . S
H2902 C2916 0.929 . S
H2903 C2917 0.931 . S
H2904 C2919 0.930 . S
C2905 H2893 0.930 . S
C2905 C2906 1.399 . S
C2905 C2910 1.399 . S
C2906 C2905 1.399 . S
C2906 C2907 1.376 . S
C2907 H2894 0.930 . S
C2907 C2906 1.376 . S
C2907 C2908 1.388 . S
C2908 H2895 0.930 . S
C2908 C2907 1.388 . S
C2908 C2909 1.390 . S
C2909 C2908 1.390 . S
C2909 C2910 1.394 . S
C2909 C2915 1.465 . S
C2910 C2905 1.399 . S
C2910 C2909 1.394 . S
C2910 C2911 1.516 . S
C2911 C2910 1.516 . S
C2911 C2912 1.502 . S
C2911 C2913 1.561 . S
C2911 C2914 1.526 . S
C2912 H2896 0.959 . S
C2912 H2897 0.959 . S
C2912 H2898 0.961 . S
C2912 C2911 1.502 . S
C2913 H2899 0.960 . S
C2913 H2900 0.961 . S
C2913 H2901 0.959 . S
C2913 C2911 1.561 . S
C2914 C2911 1.526 . S
C2914 C2915 1.396 . S
C2914 C2919 1.390 . S
C2915 C2909 1.465 . S
C2915 C2914 1.396 . S
C2915 C2916 1.399 . S
C2916 H2902 0.929 . S
C2916 C2915 1.399 . S
C2916 C2917 1.385 . S
C2917 H2903 0.931 . S
C2917 C2916 1.385 . S
C2917 C2918 1.389 . S
C2918 C2917 1.389 . S
C2918 C2919 1.387 . S
C2919 H2904 0.930 . S
C2919 C2914 1.390 . S
C2919 C2918 1.387 . S
H2920 C2932 0.930 . S
H2921 C2934 0.930 . S
H2922 C2935 0.930 . S
H2923 C2939 0.959 . S
H2924 C2939 0.959 . S
H2925 C2939 0.961 . S
H2926 C2940 0.960 . S
H2927 C2940 0.961 . S
H2928 C2940 0.959 . S
H2929 C2943 0.929 . S
H2930 C2944 0.931 . S
H2931 C2946 0.930 . S
C2932 H2920 0.930 . S
C2932 C2933 1.399 . S
C2932 C2937 1.399 . S
C2933 C2932 1.399 . S
C2933 C2934 1.376 . S
C2934 H2921 0.930 . S
C2934 C2933 1.376 . S
C2934 C2935 1.388 . S
C2935 H2922 0.930 . S
C2935 C2934 1.388 . S
C2935 C2936 1.390 . S
C2936 C2935 1.390 . S
C2936 C2937 1.394 . S
C2936 C2942 1.465 . S
C2937 C2932 1.399 . S
C2937 C2936 1.394 . S
C2937 C2938 1.516 . S
C2938 C2937 1.516 . S
C2938 C2939 1.502 . S
C2938 C2940 1.561 . S
C2938 C2941 1.526 . S
C2939 H2923 0.959 . S
C2939 H2924 0.959 . S
C2939 H2925 0.961 . S
C2939 C2938 1.502 . S
C2940 H2926 0.960 . S
C2940 H2927 0.961 . S
C2940 H2928 0.959 . S
C2940 C2938 1.561 . S
C2941 C2938 1.526 . S
C2941 C2942 1.396 . S
C2941 C2946 1.390 . S
C2942 C2936 1.465 . S
C2942 C2941 1.396 . S
C2942 C2943 1.399 . S
C2943 H2929 0.929 . S
C2943 C2942 1.399 . S
C2943 C2944 1.385 . S
C2944 H2930 0.931 . S
C2944 C2943 1.385 . S
C2944 C2945 1.389 . S
C2945 C2944 1.389 . S
C2945 C2946 1.387 . S
C2946 H2931 0.930 . S
C2946 C2941 1.390 . S
C2946 C2945 1.387 . S
H2947 C2959 0.930 . S
H2948 C2961 0.930 . S
H2949 C2962 0.930 . S
H2950 C2966 0.959 . S
H2951 C2966 0.959 . S
H2952 C2966 0.961 . S
H2953 C2967 0.960 . S
H2954 C2967 0.961 . S
H2955 C2967 0.959 . S
H2956 C2970 0.929 . S
H2957 C2971 0.931 . S
H2958 C2973 0.930 . S
C2959 H2947 0.930 . S
C2959 C2960 1.399 . S
C2959 C2964 1.399 . S
C2960 C2959 1.399 . S
C2960 C2961 1.376 . S
C2961 H2948 0.930 . S
C2961 C2960 1.376 . S
C2961 C2962 1.388 . S
C2962 H2949 0.930 . S
C2962 C2961 1.388 . S
C2962 C2963 1.390 . S
C2963 C2962 1.390 . S
C2963 C2964 1.394 . S
C2963 C2969 1.465 . S
C2964 C2959 1.399 . S
C2964 C2963 1.394 . S
C2964 C2965 1.516 . S
C2965 C2964 1.516 . S
C2965 C2966 1.502 . S
C2965 C2967 1.561 . S
C2965 C2968 1.526 . S
C2966 H2950 0.959 . S
C2966 H2951 0.959 . S
C2966 H2952 0.961 . S
C2966 C2965 1.502 . S
C2967 H2953 0.960 . S
C2967 H2954 0.961 . S
C2967 H2955 0.959 . S
C2967 C2965 1.561 . S
C2968 C2965 1.526 . S
C2968 C2969 1.396 . S
C2968 C2973 1.390 . S
C2969 C2963 1.465 . S
C2969 C2968 1.396 . S
C2969 C2970 1.399 . S
C2970 H2956 0.929 . S
C2970 C2969 1.399 . S
C2970 C2971 1.385 . S
C2971 H2957 0.931 . S
C2971 C2970 1.385 . S
C2971 C2972 1.389 . S
C2972 C2971 1.389 . S
C2972 C2973 1.387 . S
C2973 H2958 0.930 . S
C2973 C2968 1.390 . S
C2973 C2972 1.387 . S
H2974 C2986 0.930 . S
H2975 C2988 0.930 . S
H2976 C2989 0.930 . S
H2977 C2993 0.959 . S
H2978 C2993 0.959 . S
H2979 C2993 0.961 . S
H2980 C2994 0.960 . S
H2981 C2994 0.961 . S
H2982 C2994 0.959 . S
H2983 C2997 0.929 . S
H2984 C2998 0.931 . S
H2985 C3000 0.930 . S
C2986 H2974 0.930 . S
C2986 C2987 1.399 . S
C2986 C2991 1.399 . S
C2987 C2986 1.399 . S
C2987 C2988 1.376 . S
C2988 H2975 0.930 . S
C2988 C2987 1.376 . S
C2988 C2989 1.388 . S
C2989 H2976 0.930 . S
C2989 C2988 1.388 . S
C2989 C2990 1.390 . S
C2990 C2989 1.390 . S
C2990 C2991 1.394 . S
C2990 C2996 1.465 . S
C2991 C2986 1.399 . S
C2991 C2990 1.394 . S
C2991 C2992 1.516 . S
C2992 C2991 1.516 . S
C2992 C2993 1.502 . S
C2992 C2994 1.561 . S
C2992 C2995 1.526 . S
C2993 H2977 0.959 . S
C2993 H2978 0.959 . S
C2993 H2979 0.961 . S
C2993 C2992 1.502 . S
C2994 H2980 0.960 . S
C2994 H2981 0.961 . S
C2994 H2982 0.959 . S
C2994 C2992 1.561 . S
C2995 C2992 1.526 . S
C2995 C2996 1.396 . S
C2995 C3000 1.390 . S
C2996 C2990 1.465 . S
C2996 C2995 1.396 . S
C2996 C2997 1.399 . S
C2997 H2983 0.929 . S
C2997 C2996 1.399 . S
C2997 C2998 1.385 . S
C2998 H2984 0.931 . S
C2998 C2997 1.385 . S
C2998 C2999 1.389 . S
C2999 C2998 1.389 . S
C2999 C3000 1.387 . S
C3000 H2985 0.930 . S
C3000 C2995 1.390 . S
C3000 C2999 1.387 . S
H3001 C3013 0.930 . S
H3002 C3015 0.930 . S
H3003 C3016 0.930 . S
H3004 C3020 0.959 . S
H3005 C3020 0.959 . S
H3006 C3020 0.961 . S
H3007 C3021 0.960 . S
H3008 C3021 0.961 . S
H3009 C3021 0.959 . S
H3010 C3024 0.929 . S
H3011 C3025 0.931 . S
H3012 C3027 0.930 . S
C3013 H3001 0.930 . S
C3013 C3014 1.399 . S
C3013 C3018 1.399 . S
C3014 C3013 1.399 . S
C3014 C3015 1.376 . S
C3015 H3002 0.930 . S
C3015 C3014 1.376 . S
C3015 C3016 1.388 . S
C3016 H3003 0.930 . S
C3016 C3015 1.388 . S
C3016 C3017 1.390 . S
C3017 C3016 1.390 . S
C3017 C3018 1.394 . S
C3017 C3023 1.465 . S
C3018 C3013 1.399 . S
C3018 C3017 1.394 . S
C3018 C3019 1.516 . S
C3019 C3018 1.516 . S
C3019 C3020 1.502 . S
C3019 C3021 1.561 . S
C3019 C3022 1.526 . S
C3020 H3004 0.959 . S
C3020 H3005 0.959 . S
C3020 H3006 0.961 . S
C3020 C3019 1.502 . S
C3021 H3007 0.960 . S
C3021 H3008 0.961 . S
C3021 H3009 0.959 . S
C3021 C3019 1.561 . S
C3022 C3019 1.526 . S
C3022 C3023 1.396 . S
C3022 C3027 1.390 . S
C3023 C3017 1.465 . S
C3023 C3022 1.396 . S
C3023 C3024 1.399 . S
C3024 H3010 0.929 . S
C3024 C3023 1.399 . S
C3024 C3025 1.385 . S
C3025 H3011 0.931 . S
C3025 C3024 1.385 . S
C3025 C3026 1.389 . S
C3026 C3025 1.389 . S
C3026 C3027 1.387 . S
C3027 H3012 0.930 . S
C3027 C3022 1.390 . S
C3027 C3026 1.387 . S
H3028 C3040 0.930 . S
H3029 C3042 0.930 . S
H3030 C3043 0.930 . S
H3031 C3047 0.959 . S
H3032 C3047 0.959 . S
H3033 C3047 0.961 . S
H3034 C3048 0.960 . S
H3035 C3048 0.961 . S
H3036 C3048 0.959 . S
H3037 C3051 0.929 . S
H3038 C3052 0.931 . S
H3039 C3054 0.930 . S
C3040 H3028 0.930 . S
C3040 C3041 1.399 . S
C3040 C3045 1.399 . S
C3041 C3040 1.399 . S
C3041 C3042 1.376 . S
C3042 H3029 0.930 . S
C3042 C3041 1.376 . S
C3042 C3043 1.388 . S
C3043 H3030 0.930 . S
C3043 C3042 1.388 . S
C3043 C3044 1.390 . S
C3044 C3043 1.390 . S
C3044 C3045 1.394 . S
C3044 C3050 1.465 . S
C3045 C3040 1.399 . S
C3045 C3044 1.394 . S
C3045 C3046 1.516 . S
C3046 C3045 1.516 . S
C3046 C3047 1.502 . S
C3046 C3048 1.561 . S
C3046 C3049 1.526 . S
C3047 H3031 0.959 . S
C3047 H3032 0.959 . S
C3047 H3033 0.961 . S
C3047 C3046 1.502 . S
C3048 H3034 0.960 . S
C3048 H3035 0.961 . S
C3048 H3036 0.959 . S
C3048 C3046 1.561 . S
C3049 C3046 1.526 . S
C3049 C3050 1.396 . S
C3049 C3054 1.390 . S
C3050 C3044 1.465 . S
C3050 C3049 1.396 . S
C3050 C3051 1.399 . S
C3051 H3037 0.929 . S
C3051 C3050 1.399 . S
C3051 C3052 1.385 . S
C3052 H3038 0.931 . S
C3052 C3051 1.385 . S
C3052 C3053 1.389 . S
C3053 C3052 1.389 . S
C3053 C3054 1.387 . S
C3054 H3039 0.930 . S
C3054 C3049 1.390 . S
C3054 C3053 1.387 . S
H3055 C3067 0.930 . S
H3056 C3069 0.930 . S
H3057 C3070 0.930 . S
H3058 C3074 0.959 . S
H3059 C3074 0.959 . S
H3060 C3074 0.961 . S
H3061 C3075 0.960 . S
H3062 C3075 0.961 . S
H3063 C3075 0.959 . S
H3064 C3078 0.929 . S
H3065 C3079 0.931 . S
H3066 C3081 0.930 . S
C3067 H3055 0.930 . S
C3067 C3068 1.399 . S
C3067 C3072 1.399 . S
C3068 C3067 1.399 . S
C3068 C3069 1.376 . S
C3069 H3056 0.930 . S
C3069 C3068 1.376 . S
C3069 C3070 1.388 . S
C3070 H3057 0.930 . S
C3070 C3069 1.388 . S
C3070 C3071 1.390 . S
C3071 C3070 1.390 . S
C3071 C3072 1.394 . S
C3071 C3077 1.465 . S
C3072 C3067 1.399 . S
C3072 C3071 1.394 . S
C3072 C3073 1.516 . S
C3073 C3072 1.516 . S
C3073 C3074 1.502 . S
C3073 C3075 1.561 . S
C3073 C3076 1.526 . S
C3074 H3058 0.959 . S
C3074 H3059 0.959 . S
C3074 H3060 0.961 . S
C3074 C3073 1.502 . S
C3075 H3061 0.960 . S
C3075 H3062 0.961 . S
C3075 H3063 0.959 . S
C3075 C3073 1.561 . S
C3076 C3073 1.526 . S
C3076 C3077 1.396 . S
C3076 C3081 1.390 . S
C3077 C3071 1.465 . S
C3077 C3076 1.396 . S
C3077 C3078 1.399 . S
C3078 H3064 0.929 . S
C3078 C3077 1.399 . S
C3078 C3079 1.385 . S
C3079 H3065 0.931 . S
C3079 C3078 1.385 . S
C3079 C3080 1.389 . S
C3080 C3079 1.389 . S
C3080 C3081 1.387 . S
C3081 H3066 0.930 . S
C3081 C3076 1.390 . S
C3081 C3080 1.387 . S
H3082 C3094 0.930 . S
H3083 C3096 0.930 . S
H3084 C3097 0.930 . S
H3085 C3101 0.959 . S
H3086 C3101 0.959 . S
H3087 C3101 0.961 . S
H3088 C3102 0.960 . S
H3089 C3102 0.961 . S
H3090 C3102 0.959 . S
H3091 C3105 0.929 . S
H3092 C3106 0.931 . S
H3093 C3108 0.930 . S
C3094 H3082 0.930 . S
C3094 C3095 1.399 . S
C3094 C3099 1.399 . S
C3095 C3094 1.399 . S
C3095 C3096 1.376 . S
C3096 H3083 0.930 . S
C3096 C3095 1.376 . S
C3096 C3097 1.388 . S
C3097 H3084 0.930 . S
C3097 C3096 1.388 . S
C3097 C3098 1.390 . S
C3098 C3097 1.390 . S
C3098 C3099 1.394 . S
C3098 C3104 1.465 . S
C3099 C3094 1.399 . S
C3099 C3098 1.394 . S
C3099 C3100 1.516 . S
C3100 C3099 1.516 . S
C3100 C3101 1.502 . S
C3100 C3102 1.561 . S
C3100 C3103 1.526 . S
C3101 H3085 0.959 . S
C3101 H3086 0.959 . S
C3101 H3087 0.961 . S
C3101 C3100 1.502 . S
C3102 H3088 0.960 . S
C3102 H3089 0.961 . S
C3102 H3090 0.959 . S
C3102 C3100 1.561 . S
C3103 C3100 1.526 . S
C3103 C3104 1.396 . S
C3103 C3108 1.390 . S
C3104 C3098 1.465 . S
C3104 C3103 1.396 . S
C3104 C3105 1.399 . S
C3105 H3091 0.929 . S
C3105 C3104 1.399 . S
C3105 C3106 1.385 . S
C3106 H3092 0.931 . S
C3106 C3105 1.385 . S
C3106 C3107 1.389 . S
C3107 C3106 1.389 . S
C3107 C3108 1.387 . S
C3108 H3093 0.930 . S
C3108 C3103 1.390 . S
C3108 C3107 1.387 . S
H3109 C3121 0.930 . S
H3110 C3123 0.930 . S
H3111 C3124 0.930 . S
H3112 C3128 0.959 . S
H3113 C3128 0.959 . S
H3114 C3128 0.961 . S
H3115 C3129 0.960 . S
H3116 C3129 0.961 . S
H3117 C3129 0.959 . S
H3118 C3132 0.929 . S
H3119 C3133 0.931 . S
H3120 C3135 0.930 . S
C3121 H3109 0.930 . S
C3121 C3122 1.399 . S
C3121 C3126 1.399 . S
C3122 C3121 1.399 . S
C3122 C3123 1.376 . S
C3123 H3110 0.930 . S
C3123 C3122 1.376 . S
C3123 C3124 1.388 . S
C3124 H3111 0.930 . S
C3124 C3123 1.388 . S
C3124 C3125 1.390 . S
C3125 C3124 1.390 . S
C3125 C3126 1.394 . S
C3125 C3131 1.465 . S
C3126 C3121 1.399 . S
C3126 C3125 1.394 . S
C3126 C3127 1.516 . S
C3127 C3126 1.516 . S
C3127 C3128 1.502 . S
C3127 C3129 1.561 . S
C3127 C3130 1.526 . S
C3128 H3112 0.959 . S
C3128 H3113 0.959 . S
C3128 H3114 0.961 . S
C3128 C3127 1.502 . S
C3129 H3115 0.960 . S
C3129 H3116 0.961 . S
C3129 H3117 0.959 . S
C3129 C3127 1.561 . S
C3130 C3127 1.526 . S
C3130 C3131 1.396 . S
C3130 C3135 1.390 . S
C3131 C3125 1.465 . S
C3131 C3130 1.396 . S
C3131 C3132 1.399 . S
C3132 H3118 0.929 . S
C3132 C3131 1.399 . S
C3132 C3133 1.385 . S
C3133 H3119 0.931 . S
C3133 C3132 1.385 . S
C3133 C3134 1.389 . S
C3134 C3133 1.389 . S
C3134 C3135 1.387 . S
C3135 H3120 0.930 . S
C3135 C3130 1.390 . S
C3135 C3134 1.387 . S
H3136 C3148 0.930 . S
H3137 C3150 0.930 . S
H3138 C3151 0.930 . S
H3139 C3155 0.959 . S
H3140 C3155 0.959 . S
H3141 C3155 0.961 . S
H3142 C3156 0.960 . S
H3143 C3156 0.961 . S
H3144 C3156 0.959 . S
H3145 C3159 0.929 . S
H3146 C3160 0.931 . S
H3147 C3162 0.930 . S
C3148 H3136 0.930 . S
C3148 C3149 1.399 . S
C3148 C3153 1.399 . S
C3149 C3148 1.399 . S
C3149 C3150 1.376 . S
C3150 H3137 0.930 . S
C3150 C3149 1.376 . S
C3150 C3151 1.388 . S
C3151 H3138 0.930 . S
C3151 C3150 1.388 . S
C3151 C3152 1.390 . S
C3152 C3151 1.390 . S
C3152 C3153 1.394 . S
C3152 C3158 1.465 . S
C3153 C3148 1.399 . S
C3153 C3152 1.394 . S
C3153 C3154 1.516 . S
C3154 C3153 1.516 . S
C3154 C3155 1.502 . S
C3154 C3156 1.561 . S
C3154 C3157 1.526 . S
C3155 H3139 0.959 . S
C3155 H3140 0.959 . S
C3155 H3141 0.961 . S
C3155 C3154 1.502 . S
C3156 H3142 0.960 . S
C3156 H3143 0.961 . S
C3156 H3144 0.959 . S
C3156 C3154 1.561 . S
C3157 C3154 1.526 . S
C3157 C3158 1.396 . S
C3157 C3162 1.390 . S
C3158 C3152 1.465 . S
C3158 C3157 1.396 . S
C3158 C3159 1.399 . S
C3159 H3145 0.929 . S
C3159 C3158 1.399 . S
C3159 C3160 1.385 . S
C3160 H3146 0.931 . S
C3160 C3159 1.385 . S
C3160 C3161 1.389 . S
C3161 C3160 1.389 . S
C3161 C3162 1.387 . S
C3162 H3147 0.930 . S
C3162 C3157 1.390 . S
C3162 C3161 1.387 . S
H3163 C3175 0.930 . S
H3164 C3177 0.930 . S
H3165 C3178 0.930 . S
H3166 C3182 0.959 . S
H3167 C3182 0.959 . S
H3168 C3182 0.961 . S
H3169 C3183 0.960 . S
H3170 C3183 0.961 . S
H3171 C3183 0.959 . S
H3172 C3186 0.929 . S
H3173 C3187 0.931 . S
H3174 C3189 0.930 . S
C3175 H3163 0.930 . S
C3175 C3176 1.399 . S
C3175 C3180 1.399 . S
C3176 C3175 1.399 . S
C3176 C3177 1.376 . S
C3177 H3164 0.930 . S
C3177 C3176 1.376 . S
C3177 C3178 1.388 . S
C3178 H3165 0.930 . S
C3178 C3177 1.388 . S
C3178 C3179 1.390 . S
C3179 C3178 1.390 . S
C3179 C3180 1.394 . S
C3179 C3185 1.465 . S
C3180 C3175 1.399 . S
C3180 C3179 1.394 . S
C3180 C3181 1.516 . S
C3181 C3180 1.516 . S
C3181 C3182 1.502 . S
C3181 C3183 1.561 . S
C3181 C3184 1.526 . S
C3182 H3166 0.959 . S
C3182 H3167 0.959 . S
C3182 H3168 0.961 . S
C3182 C3181 1.502 . S
C3183 H3169 0.960 . S
C3183 H3170 0.961 . S
C3183 H3171 0.959 . S
C3183 C3181 1.561 . S
C3184 C3181 1.526 . S
C3184 C3185 1.396 . S
C3184 C3189 1.390 . S
C3185 C3179 1.465 . S
C3185 C3184 1.396 . S
C3185 C3186 1.399 . S
C3186 H3172 0.929 . S
C3186 C3185 1.399 . S
C3186 C3187 1.385 . S
C3187 H3173 0.931 . S
C3187 C3186 1.385 . S
C3187 C3188 1.389 . S
C3188 C3187 1.389 . S
C3188 C3189 1.387 . S
C3189 H3174 0.930 . S
C3189 C3184 1.390 . S
C3189 C3188 1.387 . S
H3190 C3202 0.930 . S
H3191 C3204 0.930 . S
H3192 C3205 0.930 . S
H3193 C3209 0.959 . S
H3194 C3209 0.959 . S
H3195 C3209 0.961 . S
H3196 C3210 0.960 . S
H3197 C3210 0.961 . S
H3198 C3210 0.959 1_455 S
H3199 C3213 0.929 . S
H3200 C3214 0.931 . S
H3201 C3216 0.930 . S
C3202 H3190 0.930 . S
C3202 C3203 1.399 . S
C3202 C3207 1.399 . S
C3203 C3202 1.399 . S
C3203 C3204 1.376 . S
C3204 H3191 0.930 . S
C3204 C3203 1.376 . S
C3204 C3205 1.388 . S
C3205 H3192 0.930 . S
C3205 C3204 1.388 . S
C3205 C3206 1.390 . S
C3206 C3205 1.390 . S
C3206 C3207 1.394 . S
C3206 C3212 1.465 1_655 S
C3207 C3202 1.399 . S
C3207 C3206 1.394 . S
C3207 C3208 1.516 . S
C3208 C3207 1.516 . S
C3208 C3209 1.502 . S
C3208 C3210 1.561 . S
C3208 C3211 1.526 . S
C3209 H3193 0.959 . S
C3209 H3194 0.959 . S
C3209 H3195 0.961 . S
C3209 C3208 1.502 . S
C3210 H3196 0.960 . S
C3210 H3197 0.961 . S
C3210 H3198 0.959 1_655 S
C3210 C3208 1.561 . S
C3211 C3208 1.526 . S
C3211 C3212 1.396 1_655 S
C3211 C3216 1.390 1_655 S
C3212 C3206 1.465 1_455 S
C3212 C3211 1.396 1_455 S
C3212 C3213 1.399 . S
C3213 H3199 0.929 . S
C3213 C3212 1.399 . S
C3213 C3214 1.385 . S
C3214 H3200 0.931 . S
C3214 C3213 1.385 . S
C3214 C3215 1.389 . S
C3215 C3214 1.389 . S
C3215 C3216 1.387 . S
C3216 H3201 0.930 . S
C3216 C3211 1.390 1_455 S
C3216 C3215 1.387 . S
H3217 C3229 0.930 . S
H3218 C3231 0.930 . S
H3219 C3232 0.930 . S
H3220 C3236 0.959 . S
H3221 C3236 0.959 . S
H3222 C3236 0.961 . S
H3223 C3237 0.960 . S
H3224 C3237 0.961 . S
H3225 C3237 0.959 . S
H3226 C3240 0.929 . S
H3227 C3241 0.931 . S
H3228 C3243 0.930 . S
C3229 H3217 0.930 . S
C3229 C3230 1.399 . S
C3229 C3234 1.399 . S
C3230 C3229 1.399 . S
C3230 C3231 1.376 . S
C3231 H3218 0.930 . S
C3231 C3230 1.376 . S
C3231 C3232 1.388 . S
C3232 H3219 0.930 . S
C3232 C3231 1.388 . S
C3232 C3233 1.390 . S
C3233 C3232 1.390 . S
C3233 C3234 1.394 . S
C3233 C3239 1.465 . S
C3234 C3229 1.399 . S
C3234 C3233 1.394 . S
C3234 C3235 1.516 . S
C3235 C3234 1.516 . S
C3235 C3236 1.502 . S
C3235 C3237 1.561 . S
C3235 C3238 1.526 . S
C3236 H3220 0.959 . S
C3236 H3221 0.959 . S
C3236 H3222 0.961 . S
C3236 C3235 1.502 . S
C3237 H3223 0.960 . S
C3237 H3224 0.961 . S
C3237 H3225 0.959 . S
C3237 C3235 1.561 . S
C3238 C3235 1.526 . S
C3238 C3239 1.396 . S
C3238 C3243 1.390 . S
C3239 C3233 1.465 . S
C3239 C3238 1.396 . S
C3239 C3240 1.399 . S
C3240 H3226 0.929 . S
C3240 C3239 1.399 . S
C3240 C3241 1.385 . S
C3241 H3227 0.931 . S
C3241 C3240 1.385 . S
C3241 C3242 1.389 . S
C3242 C3241 1.389 . S
C3242 C3243 1.387 . S
C3243 H3228 0.930 . S
C3243 C3238 1.390 . S
C3243 C3242 1.387 . S
H3244 C3256 0.930 . S
H3245 C3258 0.930 . S
H3246 C3259 0.930 . S
H3247 C3263 0.959 . S
H3248 C3263 0.959 . S
H3249 C3263 0.961 . S
H3250 C3264 0.960 . S
H3251 C3264 0.961 . S
H3252 C3264 0.959 . S
H3253 C3267 0.929 . S
H3254 C3268 0.931 . S
H3255 C3270 0.930 . S
C3256 H3244 0.930 . S
C3256 C3257 1.399 . S
C3256 C3261 1.399 . S
C3257 C3256 1.399 . S
C3257 C3258 1.376 . S
C3258 H3245 0.930 . S
C3258 C3257 1.376 . S
C3258 C3259 1.388 . S
C3259 H3246 0.930 . S
C3259 C3258 1.388 . S
C3259 C3260 1.390 . S
C3260 C3259 1.390 . S
C3260 C3261 1.394 . S
C3260 C3266 1.465 . S
C3261 C3256 1.399 . S
C3261 C3260 1.394 . S
C3261 C3262 1.516 . S
C3262 C3261 1.516 . S
C3262 C3263 1.502 . S
C3262 C3264 1.561 . S
C3262 C3265 1.526 . S
C3263 H3247 0.959 . S
C3263 H3248 0.959 . S
C3263 H3249 0.961 . S
C3263 C3262 1.502 . S
C3264 H3250 0.960 . S
C3264 H3251 0.961 . S
C3264 H3252 0.959 . S
C3264 C3262 1.561 . S
C3265 C3262 1.526 . S
C3265 C3266 1.396 . S
C3265 C3270 1.390 . S
C3266 C3260 1.465 . S
C3266 C3265 1.396 . S
C3266 C3267 1.399 . S
C3267 H3253 0.929 . S
C3267 C3266 1.399 . S
C3267 C3268 1.385 . S
C3268 H3254 0.931 . S
C3268 C3267 1.385 . S
C3268 C3269 1.389 . S
C3269 C3268 1.389 . S
C3269 C3270 1.387 . S
C3270 H3255 0.930 . S
C3270 C3265 1.390 . S
C3270 C3269 1.387 . S
H3271 C3283 0.930 . S
H3272 C3285 0.930 . S
H3273 C3286 0.930 . S
H3274 C3290 0.959 . S
H3275 C3290 0.959 . S
H3276 C3290 0.961 . S
H3277 C3291 0.960 . S
H3278 C3291 0.961 . S
H3279 C3291 0.959 . S
H3280 C3294 0.929 . S
H3281 C3295 0.931 . S
H3282 C3297 0.930 . S
C3283 H3271 0.930 . S
C3283 C3284 1.399 . S
C3283 C3288 1.399 . S
C3284 C3283 1.399 . S
C3284 C3285 1.376 . S
C3285 H3272 0.930 . S
C3285 C3284 1.376 . S
C3285 C3286 1.388 . S
C3286 H3273 0.930 . S
C3286 C3285 1.388 . S
C3286 C3287 1.390 . S
C3287 C3286 1.390 . S
C3287 C3288 1.394 . S
C3287 C3293 1.465 . S
C3288 C3283 1.399 . S
C3288 C3287 1.394 . S
C3288 C3289 1.516 . S
C3289 C3288 1.516 . S
C3289 C3290 1.502 . S
C3289 C3291 1.561 . S
C3289 C3292 1.526 . S
C3290 H3274 0.959 . S
C3290 H3275 0.959 . S
C3290 H3276 0.961 . S
C3290 C3289 1.502 . S
C3291 H3277 0.960 . S
C3291 H3278 0.961 . S
C3291 H3279 0.959 . S
C3291 C3289 1.561 . S
C3292 C3289 1.526 . S
C3292 C3293 1.396 . S
C3292 C3297 1.390 . S
C3293 C3287 1.465 . S
C3293 C3292 1.396 . S
C3293 C3294 1.399 . S
C3294 H3280 0.929 . S
C3294 C3293 1.399 . S
C3294 C3295 1.385 . S
C3295 H3281 0.931 . S
C3295 C3294 1.385 . S
C3295 C3296 1.389 . S
C3296 C3295 1.389 . S
C3296 C3297 1.387 . S
C3297 H3282 0.930 . S
C3297 C3292 1.390 . S
C3297 C3296 1.387 . S
H3298 C3310 0.930 . S
H3299 C3312 0.930 . S
H3300 C3313 0.930 . S
H3301 C3317 0.959 . S
H3302 C3317 0.959 . S
H3303 C3317 0.961 . S
H3304 C3318 0.960 . S
H3305 C3318 0.961 . S
H3306 C3318 0.959 . S
H3307 C3321 0.929 . S
H3308 C3322 0.931 . S
H3309 C3324 0.930 . S
C3310 H3298 0.930 . S
C3310 C3311 1.399 . S
C3310 C3315 1.399 . S
C3311 C3310 1.399 . S
C3311 C3312 1.376 . S
C3312 H3299 0.930 . S
C3312 C3311 1.376 . S
C3312 C3313 1.388 . S
C3313 H3300 0.930 . S
C3313 C3312 1.388 . S
C3313 C3314 1.390 . S
C3314 C3313 1.390 . S
C3314 C3315 1.394 . S
C3314 C3320 1.465 . S
C3315 C3310 1.399 . S
C3315 C3314 1.394 . S
C3315 C3316 1.516 . S
C3316 C3315 1.516 . S
C3316 C3317 1.502 . S
C3316 C3318 1.561 . S
C3316 C3319 1.526 . S
C3317 H3301 0.959 . S
C3317 H3302 0.959 . S
C3317 H3303 0.961 . S
C3317 C3316 1.502 . S
C3318 H3304 0.960 . S
C3318 H3305 0.961 . S
C3318 H3306 0.959 . S
C3318 C3316 1.561 . S
C3319 C3316 1.526 . S
C3319 C3320 1.396 . S
C3319 C3324 1.390 . S
C3320 C3314 1.465 . S
C3320 C3319 1.396 . S
C3320 C3321 1.399 . S
C3321 H3307 0.929 . S
C3321 C3320 1.399 . S
C3321 C3322 1.385 . S
C3322 H3308 0.931 . S
C3322 C3321 1.385 . S
C3322 C3323 1.389 . S
C3323 C3322 1.389 . S
C3323 C3324 1.387 . S
C3324 H3309 0.930 . S
C3324 C3319 1.390 . S
C3324 C3323 1.387 . S
H3325 C3337 0.930 . S
H3326 C3339 0.930 . S
H3327 C3340 0.930 . S
H3328 C3344 0.959 . S
H3329 C3344 0.959 . S
H3330 C3344 0.961 . S
H3331 C3345 0.960 . S
H3332 C3345 0.961 . S
H3333 C3345 0.959 . S
H3334 C3348 0.929 . S
H3335 C3349 0.931 . S
H3336 C3351 0.930 . S
C3337 H3325 0.930 . S
C3337 C3338 1.399 . S
C3337 C3342 1.399 . S
C3338 C3337 1.399 . S
C3338 C3339 1.376 . S
C3339 H3326 0.930 . S
C3339 C3338 1.376 . S
C3339 C3340 1.388 . S
C3340 H3327 0.930 . S
C3340 C3339 1.388 . S
C3340 C3341 1.390 . S
C3341 C3340 1.390 . S
C3341 C3342 1.394 . S
C3341 C3347 1.465 . S
C3342 C3337 1.399 . S
C3342 C3341 1.394 . S
C3342 C3343 1.516 . S
C3343 C3342 1.516 . S
C3343 C3344 1.502 . S
C3343 C3345 1.561 . S
C3343 C3346 1.526 . S
C3344 H3328 0.959 . S
C3344 H3329 0.959 . S
C3344 H3330 0.961 . S
C3344 C3343 1.502 . S
C3345 H3331 0.960 . S
C3345 H3332 0.961 . S
C3345 H3333 0.959 . S
C3345 C3343 1.561 . S
C3346 C3343 1.526 . S
C3346 C3347 1.396 . S
C3346 C3351 1.390 . S
C3347 C3341 1.465 . S
C3347 C3346 1.396 . S
C3347 C3348 1.399 . S
C3348 H3334 0.929 . S
C3348 C3347 1.399 . S
C3348 C3349 1.385 . S
C3349 H3335 0.931 . S
C3349 C3348 1.385 . S
C3349 C3350 1.389 . S
C3350 C3349 1.389 . S
C3350 C3351 1.387 . S
C3351 H3336 0.930 . S
C3351 C3346 1.390 . S
C3351 C3350 1.387 . S
H3352 C3364 0.930 . S
H3353 C3366 0.930 . S
H3354 C3367 0.930 . S
H3355 C3371 0.959 . S
H3356 C3371 0.959 . S
H3357 C3371 0.961 . S
H3358 C3372 0.960 . S
H3359 C3372 0.961 . S
H3360 C3372 0.959 . S
H3361 C3375 0.929 . S
H3362 C3376 0.931 . S
H3363 C3378 0.930 . S
C3364 H3352 0.930 . S
C3364 C3365 1.399 . S
C3364 C3369 1.399 . S
C3365 C3364 1.399 . S
C3365 C3366 1.376 . S
C3366 H3353 0.930 . S
C3366 C3365 1.376 . S
C3366 C3367 1.388 . S
C3367 H3354 0.930 . S
C3367 C3366 1.388 . S
C3367 C3368 1.390 . S
C3368 C3367 1.390 . S
C3368 C3369 1.394 . S
C3368 C3374 1.465 . S
C3369 C3364 1.399 . S
C3369 C3368 1.394 . S
C3369 C3370 1.516 . S
C3370 C3369 1.516 . S
C3370 C3371 1.502 . S
C3370 C3372 1.561 . S
C3370 C3373 1.526 . S
C3371 H3355 0.959 . S
C3371 H3356 0.959 . S
C3371 H3357 0.961 . S
C3371 C3370 1.502 . S
C3372 H3358 0.960 . S
C3372 H3359 0.961 . S
C3372 H3360 0.959 . S
C3372 C3370 1.561 . S
C3373 C3370 1.526 . S
C3373 C3374 1.396 . S
C3373 C3378 1.390 . S
C3374 C3368 1.465 . S
C3374 C3373 1.396 . S
C3374 C3375 1.399 . S
C3375 H3361 0.929 . S
C3375 C3374 1.399 . S
C3375 C3376 1.385 . S
C3376 H3362 0.931 . S
C3376 C3375 1.385 . S
C3376 C3377 1.389 . S
C3377 C3376 1.389 . S
C3377 C3378 1.387 . S
C3378 H3363 0.930 . S
C3378 C3373 1.390 . S
C3378 C3377 1.387 . S
H3379 C3391 0.930 . S
H3380 C3393 0.930 . S
H3381 C3394 0.930 . S
H3382 C3398 0.959 . S
H3383 C3398 0.959 . S
H3384 C3398 0.961 . S
H3385 C3399 0.960 . S
H3386 C3399 0.961 . S
H3387 C3399 0.959 . S
H3388 C3402 0.929 . S
H3389 C3403 0.931 1_545 S
H3390 C3405 0.930 . S
C3391 H3379 0.930 . S
C3391 C3392 1.399 . S
C3391 C3396 1.399 . S
C3392 C3391 1.399 . S
C3392 C3393 1.376 . S
C3393 H3380 0.930 . S
C3393 C3392 1.376 . S
C3393 C3394 1.388 . S
C3394 H3381 0.930 . S
C3394 C3393 1.388 . S
C3394 C3395 1.390 . S
C3395 C3394 1.390 . S
C3395 C3396 1.394 . S
C3395 C3401 1.465 . S
C3396 C3391 1.399 . S
C3396 C3395 1.394 . S
C3396 C3397 1.516 . S
C3397 C3396 1.516 . S
C3397 C3398 1.502 . S
C3397 C3399 1.561 . S
C3397 C3400 1.526 . S
C3398 H3382 0.959 . S
C3398 H3383 0.959 . S
C3398 H3384 0.961 . S
C3398 C3397 1.502 . S
C3399 H3385 0.960 . S
C3399 H3386 0.961 . S
C3399 H3387 0.959 . S
C3399 C3397 1.561 . S
C3400 C3397 1.526 . S
C3400 C3401 1.396 . S
C3400 C3405 1.390 . S
C3401 C3395 1.465 . S
C3401 C3400 1.396 . S
C3401 C3402 1.399 . S
C3402 H3388 0.929 . S
C3402 C3401 1.399 . S
C3402 C3403 1.385 . S
C3403 H3389 0.931 1_565 S
C3403 C3402 1.385 . S
C3403 C3404 1.389 . S
C3404 C3403 1.389 . S
C3404 C3405 1.387 . S
C3405 H3390 0.930 . S
C3405 C3400 1.390 . S
C3405 C3404 1.387 . S
H3406 C3418 0.930 . S
H3407 C3420 0.930 . S
H3408 C3421 0.930 . S
H3409 C3425 0.959 . S
H3410 C3425 0.959 . S
H3411 C3425 0.961 . S
H3412 C3426 0.960 . S
H3413 C3426 0.961 . S
H3414 C3426 0.959 . S
H3415 C3429 0.929 . S
H3416 C3430 0.931 . S
H3417 C3432 0.930 . S
C3418 H3406 0.930 . S
C3418 C3419 1.399 . S
C3418 C3423 1.399 . S
C3419 C3418 1.399 . S
C3419 C3420 1.376 . S
C3420 H3407 0.930 . S
C3420 C3419 1.376 . S
C3420 C3421 1.388 . S
C3421 H3408 0.930 . S
C3421 C3420 1.388 . S
C3421 C3422 1.390 . S
C3422 C3421 1.390 . S
C3422 C3423 1.394 . S
C3422 C3428 1.465 . S
C3423 C3418 1.399 . S
C3423 C3422 1.394 . S
C3423 C3424 1.516 . S
C3424 C3423 1.516 . S
C3424 C3425 1.502 . S
C3424 C3426 1.561 . S
C3424 C3427 1.526 . S
C3425 H3409 0.959 . S
C3425 H3410 0.959 . S
C3425 H3411 0.961 . S
C3425 C3424 1.502 . S
C3426 H3412 0.960 . S
C3426 H3413 0.961 . S
C3426 H3414 0.959 . S
C3426 C3424 1.561 . S
C3427 C3424 1.526 . S
C3427 C3428 1.396 . S
C3427 C3432 1.390 . S
C3428 C3422 1.465 . S
C3428 C3427 1.396 . S
C3428 C3429 1.399 . S
C3429 H3415 0.929 . S
C3429 C3428 1.399 . S
C3429 C3430 1.385 . S
C3430 H3416 0.931 . S
C3430 C3429 1.385 . S
C3430 C3431 1.389 . S
C3431 C3430 1.389 . S
C3431 C3432 1.387 . S
C3432 H3417 0.930 . S
C3432 C3427 1.390 . S
C3432 C3431 1.387 . S
H3433 C3445 0.930 . S
H3434 C3447 0.930 1_556 S
H3435 C3448 0.919 1_556 S
H3436 C3452 0.959 . S
H3437 C3452 0.959 . S
H3438 C3452 0.961 . S
H3439 C3453 0.960 . S
H3440 C3453 0.961 . S
H3441 C3453 0.959 . S
H3442 C3456 0.929 . S
H3443 C3457 0.934 . S
H3444 C3459 0.930 . S
C3445 H3433 0.930 . S
C3445 C3446 1.399 . S
C3445 C3450 1.399 . S
C3446 C3445 1.399 . S
C3446 C3447 1.376 . S
C3447 H3434 0.930 1_554 S
C3447 C3446 1.376 . S
C3447 C3448 1.389 . S
C3448 H3435 0.919 1_554 S
C3448 C3447 1.389 . S
C3448 C3449 1.401 . S
C3449 C3448 1.401 . S
C3449 C3450 1.394 . S
C3449 C3455 1.465 . S
C3450 C3445 1.399 . S
C3450 C3449 1.394 . S
C3450 C3451 1.516 . S
C3451 C3450 1.516 . S
C3451 C3452 1.502 . S
C3451 C3453 1.561 . S
C3451 C3454 1.526 . S
C3452 H3436 0.959 . S
C3452 H3437 0.959 . S
C3452 H3438 0.961 . S
C3452 C3451 1.502 . S
C3453 H3439 0.960 . S
C3453 H3440 0.961 . S
C3453 H3441 0.959 . S
C3453 C3451 1.561 . S
C3454 C3451 1.526 . S
C3454 C3455 1.396 . S
C3454 C3459 1.390 . S
C3455 C3449 1.465 . S
C3455 C3454 1.396 . S
C3455 C3456 1.399 1_554 S
C3456 H3442 0.929 . S
C3456 C3455 1.399 1_556 S
C3456 C3457 1.387 . S
C3457 H3443 0.934 . S
C3457 C3456 1.387 . S
C3457 C3458 1.384 1_556 S
C3458 C3457 1.384 1_554 S
C3458 C3459 1.387 . S
C3459 H3444 0.930 . S
C3459 C3454 1.390 . S
C3459 C3458 1.387 . S
H3460 C3472 0.930 . S
H3461 C3474 0.930 . S
H3462 C3475 0.930 . S
H3463 C3479 0.959 . S
H3464 C3479 0.959 . S
H3465 C3479 0.961 . S
H3466 C3480 0.960 . S
H3467 C3480 0.961 . S
H3468 C3480 0.959 . S
H3469 C3483 0.929 . S
H3470 C3484 0.931 . S
H3471 C3486 0.930 . S
C3472 H3460 0.930 . S
C3472 C3473 1.399 . S
C3472 C3477 1.399 . S
C3473 C3472 1.399 . S
C3473 C3474 1.376 . S
C3474 H3461 0.930 . S
C3474 C3473 1.376 . S
C3474 C3475 1.388 . S
C3475 H3462 0.930 . S
C3475 C3474 1.388 . S
C3475 C3476 1.390 . S
C3476 C3475 1.390 . S
C3476 C3477 1.394 . S
C3476 C3482 1.465 . S
C3477 C3472 1.399 . S
C3477 C3476 1.394 . S
C3477 C3478 1.516 . S
C3478 C3477 1.516 . S
C3478 C3479 1.502 . S
C3478 C3480 1.561 . S
C3478 C3481 1.526 . S
C3479 H3463 0.959 . S
C3479 H3464 0.959 . S
C3479 H3465 0.961 . S
C3479 C3478 1.502 . S
C3480 H3466 0.960 . S
C3480 H3467 0.961 . S
C3480 H3468 0.959 . S
C3480 C3478 1.561 . S
C3481 C3478 1.526 . S
C3481 C3482 1.396 . S
C3481 C3486 1.390 . S
C3482 C3476 1.465 . S
C3482 C3481 1.396 . S
C3482 C3483 1.399 . S
C3483 H3469 0.929 . S
C3483 C3482 1.399 . S
C3483 C3484 1.385 . S
C3484 H3470 0.931 . S
C3484 C3483 1.385 . S
C3484 C3485 1.389 . S
C3485 C3484 1.389 . S
C3485 C3486 1.387 . S
C3486 H3471 0.930 . S
C3486 C3481 1.390 . S
C3486 C3485 1.387 . S
H3487 C3499 0.930 1_556 S
H3488 C3501 0.930 . S
H3489 C3502 0.930 . S
H3490 C3506 0.989 . S
H3491 C3506 0.959 . S
H3492 C3506 0.961 . S
H3493 C3507 0.960 . S
H3494 C3507 0.961 . S
H3495 C3507 0.959 . S
H3496 C3510 0.929 . S
H3497 C3511 0.931 . S
H3498 C3513 0.930 . S
C3499 H3487 0.930 1_554 S
C3499 C3500 1.399 . S
C3499 C3504 1.402 . S
C3500 C3499 1.399 . S
C3500 C3501 1.376 . S
C3501 H3488 0.930 . S
C3501 C3500 1.376 . S
C3501 C3502 1.388 . S
C3502 H3489 0.930 . S
C3502 C3501 1.388 . S
C3502 C3503 1.390 . S
C3503 C3502 1.390 . S
C3503 C3504 1.407 . S
C3503 C3509 1.465 . S
C3504 C3499 1.402 . S
C3504 C3503 1.407 . S
C3504 C3505 1.501 1_554 S
C3505 C3504 1.501 1_556 S
C3505 C3506 1.502 . S
C3505 C3507 1.561 . S
C3505 C3508 1.526 . S
C3506 H3490 0.989 . S
C3506 H3491 0.959 . S
C3506 H3492 0.961 . S
C3506 C3505 1.502 . S
C3507 H3493 0.960 . S
C3507 H3494 0.961 . S
C3507 H3495 0.959 . S
C3507 C3505 1.561 . S
C3508 C3505 1.526 . S
C3508 C3509 1.396 1_556 S
C3508 C3513 1.390 . S
C3509 C3503 1.465 . S
C3509 C3508 1.396 1_554 S
C3509 C3510 1.399 . S
C3510 H3496 0.929 . S
C3510 C3509 1.399 . S
C3510 C3511 1.385 . S
C3511 H3497 0.931 . S
C3511 C3510 1.385 . S
C3511 C3512 1.389 1_554 S
C3512 C3511 1.389 1_556 S
C3512 C3513 1.387 . S
C3513 H3498 0.930 . S
C3513 C3508 1.390 . S
C3513 C3512 1.387 . S
H3514 C3526 0.930 . S
H3515 C3528 0.930 . S
H3516 C3529 0.930 . S
H3517 C3533 0.959 . S
H3518 C3533 0.959 . S
H3519 C3533 0.961 . S
H3520 C3534 0.960 . S
H3521 C3534 0.961 . S
H3522 C3534 0.959 . S
H3523 C3537 0.929 . S
H3524 C3538 0.931 . S
H3525 C3540 0.930 . S
C3526 H3514 0.930 . S
C3526 C3527 1.399 . S
C3526 C3531 1.399 . S
C3527 C3526 1.399 . S
C3527 C3528 1.376 . S
C3528 H3515 0.930 . S
C3528 C3527 1.376 . S
C3528 C3529 1.388 . S
C3529 H3516 0.930 . S
C3529 C3528 1.388 . S
C3529 C3530 1.390 . S
C3530 C3529 1.390 . S
C3530 C3531 1.394 . S
C3530 C3536 1.465 . S
C3531 C3526 1.399 . S
C3531 C3530 1.394 . S
C3531 C3532 1.516 . S
C3532 C3531 1.516 . S
C3532 C3533 1.502 . S
C3532 C3534 1.561 . S
C3532 C3535 1.526 . S
C3533 H3517 0.959 . S
C3533 H3518 0.959 . S
C3533 H3519 0.961 . S
C3533 C3532 1.502 . S
C3534 H3520 0.960 . S
C3534 H3521 0.961 . S
C3534 H3522 0.959 . S
C3534 C3532 1.561 . S
C3535 C3532 1.526 . S
C3535 C3536 1.396 . S
C3535 C3540 1.390 . S
C3536 C3530 1.465 . S
C3536 C3535 1.396 . S
C3536 C3537 1.399 . S
C3537 H3523 0.929 . S
C3537 C3536 1.399 . S
C3537 C3538 1.385 . S
C3538 H3524 0.931 . S
C3538 C3537 1.385 . S
C3538 C3539 1.389 . S
C3539 C3538 1.389 . S
C3539 C3540 1.387 . S
C3540 H3525 0.930 . S
C3540 C3535 1.390 . S
C3540 C3539 1.387 . S
H3541 C3553 0.930 . S
H3542 C3555 0.930 . S
H3543 C3556 0.930 . S
H3544 C3560 0.959 . S
H3545 C3560 0.959 . S
H3546 C3560 0.961 . S
H3547 C3561 0.960 . S
H3548 C3561 0.961 . S
H3549 C3561 0.959 . S
H3550 C3564 0.929 . S
H3551 C3565 0.931 . S
H3552 C3567 0.930 . S
C3553 H3541 0.930 . S
C3553 C3554 1.399 . S
C3553 C3558 1.399 . S
C3554 C3553 1.399 . S
C3554 C3555 1.376 . S
C3555 H3542 0.930 . S
C3555 C3554 1.376 . S
C3555 C3556 1.388 . S
C3556 H3543 0.930 . S
C3556 C3555 1.388 . S
C3556 C3557 1.390 . S
C3557 C3556 1.390 . S
C3557 C3558 1.394 . S
C3557 C3563 1.465 . S
C3558 C3553 1.399 . S
C3558 C3557 1.394 . S
C3558 C3559 1.516 . S
C3559 C3558 1.516 . S
C3559 C3560 1.502 . S
C3559 C3561 1.561 . S
C3559 C3562 1.526 . S
C3560 H3544 0.959 . S
C3560 H3545 0.959 . S
C3560 H3546 0.961 . S
C3560 C3559 1.502 . S
C3561 H3547 0.960 . S
C3561 H3548 0.961 . S
C3561 H3549 0.959 . S
C3561 C3559 1.561 . S
C3562 C3559 1.526 . S
C3562 C3563 1.396 . S
C3562 C3567 1.390 . S
C3563 C3557 1.465 . S
C3563 C3562 1.396 . S
C3563 C3564 1.399 . S
C3564 H3550 0.929 . S
C3564 C3563 1.399 . S
C3564 C3565 1.385 . S
C3565 H3551 0.931 . S
C3565 C3564 1.385 . S
C3565 C3566 1.389 . S
C3566 C3565 1.389 . S
C3566 C3567 1.387 . S
C3567 H3552 0.930 . S
C3567 C3562 1.390 . S
C3567 C3566 1.387 . S
C989 C111 1.031 . S
C1001 C344 1.014 . S
C1016 C64 1.391 . S
C1028 C378 1.439 . S
C1043 C77 0.492 . S
C1055 C447 0.538 . S
C1082 C485 0.702 . S
C1070 C95 0.756 . S
C1097 C25 1.268 . S
C1109 C525 1.218 . S
C1136 C544 0.399 . S
C1124 C36 0.457 . S
C1163 C578 1.243 . S
C1151 C50 1.192 . S
C1178 C11 1.639 . S
C1190 C647 1.569 . S
C1217 C353 2.395 . S
C1205 C237 2.354 . S
C1232 C245 0.980 . S
C1244 C405 1.045 . S
C1271 C418 1.274 . S
C1259 C279 1.236 . S
C1298 C487 1.346 . S
C1286 C175 1.328 . S
C1313 C231 1.770 . S
C1325 C527 1.824 . S
C1352 C553 1.769 . S
C1340 C251 1.636 . S
C1379 C605 0.457 . S
C1367 C273 0.275 . S
C1406 C618 2.175 . S
C1394 C181 2.128 . S
C1433 C348 2.314 . S
C1421 C165 2.352 . S
C1448 C288 1.935 1_556 S
C1460 C658 1.965 . S
C1487 C708 2.627 . S
C1475 C333 2.644 . S
C1514 C767 1.522 . S
C1502 C316 1.490 . S
C1529 C123 1.425 . S
C1541 C645 1.317 . S
C1556 C137 1.343 . S
C1568 C445 1.294 . S
C1583 C330 2.380 . S
C1595 C778 2.448 . S
C1622 C847 0.838 . S
C1610 C302 0.818 . S
C1649 C365 1.110 . S
C1637 C63 1.091 . S
C1676 C833 1.444 . S
C1664 C106 1.409 . S
C1691 C97 0.636 . S
C1703 C428 0.668 . S
C1718 C81 0.847 . S
C1730 C784 0.813 . S
C1757 C504 1.284 . S
C1745 C13 1.300 . S
C1772 C55 0.633 . S
C1784 C725 0.373 . S
C1811 C593 1.300 . S
C1799 C35 1.211 . S
C1838 C868 1.776 . S
C1826 C21 1.784 . S
C1865 C338 2.511 . S
C1853 C147 2.532 . S
C1892 C824 0.929 . S
C1880 C321 0.923 . S
C1907 C119 1.338 . S
C1919 C433 1.328 . S
C1934 C293 1.424 . S
C1946 C788 1.473 . S
C1961 C153 1.873 . S
C1973 C508 2.003 . S
C2000 C698 1.822 . S
C1988 C315 1.806 . S
C2015 C125 0.532 1_545 S
C2027 C584 0.405 . S
C2042 C287 2.308 . S
C2054 C873 2.263 . S
C2069 C193 2.401 . S
C2081 C367 2.428 1_655 S
C2096 C176 1.998 . S
C2108 C673 1.991 . S
C2123 C263 2.619 . S
C2135 C567 2.623 . S
C2150 C246 1.555 . S
C2162 C748 1.744 . S
C2189 C864 1.427 . S
C2177 C277 1.359 . S
C2204 C221 1.349 . S
C2216 C424 1.301 . S
C2243 C473 2.522 . S
C2231 C260 2.486 . S
C2270 C388 0.956 . S
C2258 C204 0.939 . S
C2285 C83 0.965 . S
C2297 C904 1.049 . S
C2324 C818 1.443 . S
C2312 C92 1.419 . S
C2339 C105 0.528 . S
C2351 C967 0.472 1_556 S
C2366 C67 0.713 . S
C2378 C805 0.730 . S
C2393 C53 1.268 . S
C2405 C685 1.197 . S
C2432 C704 0.321 . S
C2420 C8 0.438 . S
C2459 C738 1.288 . S
C2447 C22 1.090 . S
C2486 C887 1.587 . S
C2474 C39 1.631 . S
C2513 C913 2.395 . S
C2501 C265 2.354 . S
C2528 C189 0.994 . S
C2540 C845 1.085 . S
C2567 C938 1.275 . S
C2555 C209 1.248 . S
C2594 C807 1.350 . S
C2582 C217 1.335 . S
C2621 C687 1.824 . S
C2609 C259 1.783 . S
C2636 C195 1.600 . S
C2648 C713 1.788 . S
C2675 C765 0.257 . S
C2663 C203 0.318 . S
C2690 C223 2.145 . S
C2702 C858 2.177 . S
C2729 C908 2.328 . S
C2717 C319 2.333 . S
C2744 C134 1.915 . S
C2756 C498 1.970 . S
C2783 C548 2.630 . S
C2771 C151 2.647 . S
C2810 C607 1.526 . S
C2798 C162 1.476 . S
C2837 C885 1.400 . S
C2825 C305 1.378 . S
C2852 C291 1.355 . S
C2864 C965 1.283 . S
C2891 C458 2.449 . S
C2879 C148 2.379 . S
C2918 C407 0.869 . S
C2906 C120 0.864 . S
C2933 C91 1.117 . S
C2945 C925 1.135 . S
C2972 C393 1.430 . S
C2960 C78 1.438 . S
C2987 C69 0.567 . S
C2999 C948 0.596 . S
C3014 C109 0.781 . S
C3026 C464 0.866 . S
C3041 C41 1.298 . S
C3053 C664 1.289 . S
C3080 C565 0.346 . S
C3068 C27 0.395 . S
C3095 C7 1.305 . S
C3107 C753 1.269 . S
C3122 C49 1.750 . S
C3134 C628 1.764 . S
C3161 C898 2.511 . S
C3149 C329 2.532 . S
C3176 C167 0.967 . S
C3188 C384 0.914 . S
C3215 C953 1.323 . S
C3203 C301 1.328 . S
C3230 C139 1.408 . S
C3242 C468 1.480 . S
C3257 C335 1.800 . S
C3269 C668 2.018 . S
C3296 C538 1.829 . S
C3284 C161 1.809 . S
C3311 C307 0.293 . S
C3323 C744 0.390 . S
C3350 C633 2.263 . S
C3338 C133 2.308 . S
C3377 C927 2.440 . S
C3365 C249 2.416 . S
C3404 C513 1.998 1_665 S
C3392 C218 1.998 . S
C3419 C235 2.629 . S
C3431 C727 2.601 . S
C3458 C588 1.746 . S
C3446 C190 1.570 . S
C3473 C207 1.326 . S
C3485 C624 1.430 . S
C3500 C179 1.333 . S
C3512 C944 1.315 . S
C3539 C793 2.504 . S
C3527 C232 2.502 1_565 S
C3566 C828 0.956 . S
C3554 C274 0.937 . S
