# Generated by pormake.
# Topology ctn, (3,4)-cn, num edge types: 1
# Building blocks:
#     Node 0, Type 0, BuildingBlock: WUSLED_clean_sbu_0, # of connection points: 3
#     Node 1, Type 0, BuildingBlock: WUSLED_clean_sbu_0, # of connection points: 3
#     Node 2, Type 0, BuildingBlock: WUSLED_clean_sbu_0, # of connection points: 3
#     Node 3, Type 0, BuildingBlock: WUSLED_clean_sbu_0, # of connection points: 3
#     Node 4, Type 0, BuildingBlock: WUSLED_clean_sbu_0, # of connection points: 3
#     Node 5, Type 0, BuildingBlock: WUSLED_clean_sbu_0, # of connection points: 3
#     Node 6, Type 0, BuildingBlock: WUSLED_clean_sbu_0, # of connection points: 3
#     Node 7, Type 0, BuildingBlock: WUSLED_clean_sbu_0, # of connection points: 3
#     Node 8, Type 0, BuildingBlock: WUSLED_clean_sbu_0, # of connection points: 3
#     Node 9, Type 0, BuildingBlock: WUSLED_clean_sbu_0, # of connection points: 3
#     Node 10, Type 0, BuildingBlock: WUSLED_clean_sbu_0, # of connection points: 3
#     Node 11, Type 0, BuildingBlock: WUSLED_clean_sbu_0, # of connection points: 3
#     Node 12, Type 0, BuildingBlock: WUSLED_clean_sbu_0, # of connection points: 3
#     Node 13, Type 0, BuildingBlock: WUSLED_clean_sbu_0, # of connection points: 3
#     Node 14, Type 0, BuildingBlock: WUSLED_clean_sbu_0, # of connection points: 3
#     Node 15, Type 0, BuildingBlock: WUSLED_clean_sbu_0, # of connection points: 3
#     Node 16, Type 1, BuildingBlock: AZAVOO_clean_sbu_0, # of connection points: 4
#     Node 17, Type 1, BuildingBlock: AZAVOO_clean_sbu_0, # of connection points: 4
#     Node 18, Type 1, BuildingBlock: AZAVOO_clean_sbu_0, # of connection points: 4
#     Node 19, Type 1, BuildingBlock: AZAVOO_clean_sbu_0, # of connection points: 4
#     Node 20, Type 1, BuildingBlock: AZAVOO_clean_sbu_0, # of connection points: 4
#     Node 21, Type 1, BuildingBlock: AZAVOO_clean_sbu_0, # of connection points: 4
#     Node 22, Type 1, BuildingBlock: AZAVOO_clean_sbu_0, # of connection points: 4
#     Node 23, Type 1, BuildingBlock: AZAVOO_clean_sbu_0, # of connection points: 4
#     Node 24, Type 1, BuildingBlock: AZAVOO_clean_sbu_0, # of connection points: 4
#     Node 25, Type 1, BuildingBlock: AZAVOO_clean_sbu_0, # of connection points: 4
#     Node 26, Type 1, BuildingBlock: AZAVOO_clean_sbu_0, # of connection points: 4
#     Node 27, Type 1, BuildingBlock: AZAVOO_clean_sbu_0, # of connection points: 4
#     Edge 28, Type (0, 1), BuildingBlock: KIFKEQ_clean_linker_1, # of connection points: 2
#     Edge 29, Type (0, 1), BuildingBlock: KIFKEQ_clean_linker_1, # of connection points: 2
#     Edge 30, Type (0, 1), BuildingBlock: KIFKEQ_clean_linker_1, # of connection points: 2
#     Edge 31, Type (0, 1), BuildingBlock: KIFKEQ_clean_linker_1, # of connection points: 2
#     Edge 32, Type (0, 1), BuildingBlock: KIFKEQ_clean_linker_1, # of connection points: 2
#     Edge 33, Type (0, 1), BuildingBlock: KIFKEQ_clean_linker_1, # of connection points: 2
#     Edge 34, Type (0, 1), BuildingBlock: KIFKEQ_clean_linker_1, # of connection points: 2
#     Edge 35, Type (0, 1), BuildingBlock: KIFKEQ_clean_linker_1, # of connection points: 2
#     Edge 36, Type (0, 1), BuildingBlock: KIFKEQ_clean_linker_1, # of connection points: 2
#     Edge 37, Type (0, 1), BuildingBlock: KIFKEQ_clean_linker_1, # of connection points: 2
#     Edge 38, Type (0, 1), BuildingBlock: KIFKEQ_clean_linker_1, # of connection points: 2
#     Edge 39, Type (0, 1), BuildingBlock: KIFKEQ_clean_linker_1, # of connection points: 2
#     Edge 40, Type (0, 1), BuildingBlock: KIFKEQ_clean_linker_1, # of connection points: 2
#     Edge 41, Type (0, 1), BuildingBlock: KIFKEQ_clean_linker_1, # of connection points: 2
#     Edge 42, Type (0, 1), BuildingBlock: KIFKEQ_clean_linker_1, # of connection points: 2
#     Edge 43, Type (0, 1), BuildingBlock: KIFKEQ_clean_linker_1, # of connection points: 2
#     Edge 44, Type (0, 1), BuildingBlock: KIFKEQ_clean_linker_1, # of connection points: 2
#     Edge 45, Type (0, 1), BuildingBlock: KIFKEQ_clean_linker_1, # of connection points: 2
#     Edge 46, Type (0, 1), BuildingBlock: KIFKEQ_clean_linker_1, # of connection points: 2
#     Edge 47, Type (0, 1), BuildingBlock: KIFKEQ_clean_linker_1, # of connection points: 2
#     Edge 48, Type (0, 1), BuildingBlock: KIFKEQ_clean_linker_1, # of connection points: 2
#     Edge 49, Type (0, 1), BuildingBlock: KIFKEQ_clean_linker_1, # of connection points: 2
#     Edge 50, Type (0, 1), BuildingBlock: KIFKEQ_clean_linker_1, # of connection points: 2
#     Edge 51, Type (0, 1), BuildingBlock: KIFKEQ_clean_linker_1, # of connection points: 2
#     Edge 52, Type (0, 1), BuildingBlock: KIFKEQ_clean_linker_1, # of connection points: 2
#     Edge 53, Type (0, 1), BuildingBlock: KIFKEQ_clean_linker_1, # of connection points: 2
#     Edge 54, Type (0, 1), BuildingBlock: KIFKEQ_clean_linker_1, # of connection points: 2
#     Edge 55, Type (0, 1), BuildingBlock: KIFKEQ_clean_linker_1, # of connection points: 2
#     Edge 56, Type (0, 1), BuildingBlock: KIFKEQ_clean_linker_1, # of connection points: 2
#     Edge 57, Type (0, 1), BuildingBlock: KIFKEQ_clean_linker_1, # of connection points: 2
#     Edge 58, Type (0, 1), BuildingBlock: KIFKEQ_clean_linker_1, # of connection points: 2
#     Edge 59, Type (0, 1), BuildingBlock: KIFKEQ_clean_linker_1, # of connection points: 2
#     Edge 60, Type (0, 1), BuildingBlock: KIFKEQ_clean_linker_1, # of connection points: 2
#     Edge 61, Type (0, 1), BuildingBlock: KIFKEQ_clean_linker_1, # of connection points: 2
#     Edge 62, Type (0, 1), BuildingBlock: KIFKEQ_clean_linker_1, # of connection points: 2
#     Edge 63, Type (0, 1), BuildingBlock: KIFKEQ_clean_linker_1, # of connection points: 2
#     Edge 64, Type (0, 1), BuildingBlock: KIFKEQ_clean_linker_1, # of connection points: 2
#     Edge 65, Type (0, 1), BuildingBlock: KIFKEQ_clean_linker_1, # of connection points: 2
#     Edge 66, Type (0, 1), BuildingBlock: KIFKEQ_clean_linker_1, # of connection points: 2
#     Edge 67, Type (0, 1), BuildingBlock: KIFKEQ_clean_linker_1, # of connection points: 2
#     Edge 68, Type (0, 1), BuildingBlock: KIFKEQ_clean_linker_1, # of connection points: 2
#     Edge 69, Type (0, 1), BuildingBlock: KIFKEQ_clean_linker_1, # of connection points: 2
#     Edge 70, Type (0, 1), BuildingBlock: KIFKEQ_clean_linker_1, # of connection points: 2
#     Edge 71, Type (0, 1), BuildingBlock: KIFKEQ_clean_linker_1, # of connection points: 2
#     Edge 72, Type (0, 1), BuildingBlock: KIFKEQ_clean_linker_1, # of connection points: 2
#     Edge 73, Type (0, 1), BuildingBlock: KIFKEQ_clean_linker_1, # of connection points: 2
#     Edge 74, Type (0, 1), BuildingBlock: KIFKEQ_clean_linker_1, # of connection points: 2
#     Edge 75, Type (0, 1), BuildingBlock: KIFKEQ_clean_linker_1, # of connection points: 2
# Relax obj value: 0.002
# Max RMSD: 0.044
# Mean RMSD: 0.026
data_MOF--net-ctn--node1-WUSLED_clean_sbu_0--node2-AZAVOO_clean_sbu_0--edge1-KIFKEQ_clean_linker_1
_symmetry_space_group_name_H-M    P1
_symmetry_Int_Tables_number       1
_symmetry_cell_setting            triclinic
loop_
_symmetry_equiv_pos_as_xyz
'x, y, z'
_cell_length_a     71.295832
_cell_length_b     72.703516
_cell_length_c     72.644138
_cell_angle_alpha  90.817531
_cell_angle_beta   92.546183
_cell_angle_gamma 92.678826
loop_
_atom_site_label
_atom_site_type_symbol
_atom_site_fract_x
_atom_site_fract_y
_atom_site_fract_z
_atom_type_partial_charge
C0 C 0.012 0.04742 0.07461 0.0
C1 C 0.01993 0.03864 0.09 0.0
C2 C 0.99014 0.03943 0.10542 0.0
C3 C 0.00907 0.03464 0.10526 0.0
C4 C 0.98222 0.04777 0.08973 0.0
C5 C 0.99303 0.05171 0.07455 0.0
U6 U 0.05186 0.04431 0.03957 0.0
O7 O 0.04993 0.05023 0.00993 0.0
O8 O 0.06898 0.06721 0.0284 0.0
C9 C 0.06118 0.06507 0.01171 0.0
C10 C 0.02317 0.05333 0.05887 0.0
C11 C 0.0549 0.08199 1.0024 0.0
C12 C 0.03539 0.09687 0.97905 0.0
C13 C 0.0402 0.08113 0.98877 0.0
C14 C 0.05978 0.11477 0.99639 0.0
C15 C 0.0452 0.11389 0.98264 0.0
C16 C 0.06461 0.09902 1.00606 0.0
C17 C 0.08674 1.00489 0.04042 0.0
C18 C 0.11977 1.00305 0.03331 0.0
C19 C 0.099 0.97578 0.03056 0.0
C20 C 0.08406 0.98603 0.03616 0.0
C21 C 0.1171 0.98409 0.02917 0.0
C22 C 0.10475 0.01335 0.03883 0.0
C23 C 0.07077 0.01497 0.0474 0.0
O24 O 0.04053 0.0596 0.06263 0.0
O25 O 0.02139 0.04291 0.04391 0.0
O26 O 0.05531 0.01442 0.03681 0.0
O27 O 0.07466 0.03122 0.05522 0.0
H28 H 0.03456 0.0352 0.09037 0.0
H29 H 0.01567 0.0283 0.11713 0.0
H30 H 0.96764 0.05135 0.08919 0.0
H31 H 0.9866 0.05846 0.06282 0.0
H32 H 0.02398 0.0957 0.9687 0.0
H33 H 0.03253 0.06823 0.9854 0.0
H34 H 0.06785 0.12754 0.99933 0.0
H35 H 0.07624 0.10014 0.0162 0.0
H36 H 0.13346 0.00994 0.03224 0.0
H37 H 0.09644 0.96118 0.02779 0.0
H38 H 0.0704 0.97911 0.03744 0.0
H39 H 0.10731 0.02787 0.04202 0.0
C40 C 0.29138 0.75033 0.18025 0.0
C41 C 0.30528 0.76463 0.17985 0.0
C42 C 0.29074 0.77605 0.15138 0.0
C43 C 0.30494 0.77744 0.16554 0.0
C44 C 0.2768 0.76175 0.15207 0.0
C45 C 0.27714 0.74905 0.16632 0.0
U46 U 0.31153 0.72709 0.22412 0.0
O47 O 0.29597 0.71559 0.24722 0.0
O48 O 0.31199 0.69752 0.23003 0.0
C49 C 0.30017 0.6986 0.24335 0.0
C50 C 0.29128 0.73647 0.19487 0.0
C51 C 0.28438 0.68469 0.24288 0.0
C52 C 0.25948 0.66617 0.22642 0.0
C53 C 0.27399 0.67991 0.22648 0.0
C54 C 0.26539 0.66212 0.25916 0.0
C55 C 0.25503 0.65706 0.24277 0.0
C56 C 0.27989 0.67577 0.25918 0.0
C57 C 0.35757 0.74543 0.24927 0.0
C58 C 0.37768 0.72879 0.27058 0.0
C59 C 0.38075 0.76205 0.26964 0.0
C60 C 0.3664 0.76202 0.25584 0.0
C61 C 0.38668 0.74544 0.27717 0.0
C62 C 0.36325 0.72879 0.25682 0.0
C63 C 0.34274 0.7459 0.2344 0.0
O64 O 0.30437 0.72435 0.19438 0.0
O65 O 0.2885 0.74252 0.21161 0.0
O66 O 0.32607 0.75037 0.23949 0.0
O67 O 0.34202 0.7323 0.22222 0.0
H68 H 0.31641 0.76583 0.19052 0.0
H69 H 0.31596 0.78819 0.16539 0.0
H70 H 0.26546 0.76043 0.14164 0.0
H71 H 0.26623 0.73817 0.16645 0.0
H72 H 0.25168 0.66276 0.2136 0.0
H73 H 0.27717 0.6867 0.21374 0.0
H74 H 0.26258 0.65525 0.27194 0.0
H75 H 0.28776 0.67922 0.27197 0.0
H76 H 0.38196 0.71571 0.27587 0.0
H77 H 0.38702 0.77516 0.27454 0.0
H78 H 0.36218 0.77503 0.25027 0.0
H79 H 0.35662 0.71579 0.252 0.0
C80 C 0.97274 0.44312 0.01135 0.0
C81 C 0.98962 0.4431 1.00198 0.0
C82 C 0.98225 0.41159 0.99085 0.0
C83 C 0.9943 0.42751 0.99183 0.0
C84 C 0.9654 0.4117 1.00023 0.0
C85 C 0.9607 0.42726 0.01026 0.0
U86 U 0.97629 0.47914 0.05147 0.0
O87 O 0.97124 0.50881 0.05105 0.0
O88 O 0.95353 0.49024 0.06723 0.0
C89 C 0.95647 0.50704 0.06122 0.0
C90 C 0.96677 0.45971 0.02136 0.0
C91 C 0.93951 0.51673 0.05517 0.0
C92 C 0.91847 0.52906 0.03147 0.0
C93 C 0.93442 0.51927 0.03648 0.0
C94 C 0.91248 0.53365 0.06371 0.0
C95 C 0.90727 0.53637 0.04505 0.0
C96 C 0.92836 0.52397 0.06866 0.0
C97 C 0.01576 0.47454 0.08992 0.0
C98 C 0.03126 0.497 0.11152 0.0
C99 C 0.03438 0.46442 0.11647 0.0
C100 C 0.02294 0.46038 0.10065 0.0
C101 C 0.03901 0.48277 0.12196 0.0
C102 C 0.01978 0.49293 0.09562 0.0
C103 C 1.00519 0.46953 0.07241 0.0
O104 O 0.95918 0.45678 0.03728 0.0
O105 O 0.97804 0.47458 0.02153 0.0
O106 O 1.00665 0.48106 0.0587 0.0
O107 O 0.98808 0.46231 0.0738 0.0
H108 H 0.99918 0.45514 1.00237 0.0
H109 H 1.00744 0.42788 0.98488 0.0
H110 H 0.9556 0.39985 0.99953 0.0
H111 H 0.94746 0.42693 0.01704 0.0
H112 H 0.91483 0.53077 0.01699 0.0
H113 H 0.94278 0.51376 0.02579 0.0
H114 H 0.90447 0.53934 0.07457 0.0
H115 H 0.93207 0.52228 0.08315 0.0
H116 H 0.03461 0.51128 0.11527 0.0
H117 H 0.03977 0.4531 0.12431 0.0
H118 H 0.01999 0.44611 0.09658 0.0
H119 H 0.0144 0.50412 0.08758 0.0
C120 C 0.71533 0.77336 0.18498 0.0
C121 C 0.73396 0.77341 0.17943 0.0
C122 C 0.72491 0.7508 0.15502 0.0
C123 C 0.73871 0.7622 0.16462 0.0
C124 C 0.70626 0.75098 0.16059 0.0
C125 C 0.70156 0.76211 0.1754 0.0
U126 U 0.72207 0.81422 0.21973 0.0
O127 O 0.70062 0.83143 0.23121 0.0
O128 O 0.71774 0.81457 0.24953 0.0
C129 C 0.70361 0.82552 0.24805 0.0
C130 C 0.70992 0.78447 0.20091 0.0
C131 C 0.68675 0.81994 0.25806 0.0
C132 C 0.66188 0.7975 0.26544 0.0
C133 C 0.6775 0.80259 0.25522 0.0
C134 C 0.66447 0.82713 0.28123 0.0
C135 C 0.65524 0.80967 0.27871 0.0
C136 C 0.68004 0.83218 0.27103 0.0
C137 C 0.7649 0.8489 0.21644 0.0
C138 C 0.76955 0.88139 0.22516 0.0
C139 C 0.79647 0.86275 0.22178 0.0
C140 C 0.78446 0.84745 0.21716 0.0
C141 C 0.78921 0.87997 0.22575 0.0
C142 C 0.7575 0.866 0.2206 0.0
C143 C 0.75282 0.83257 0.21043 0.0
O144 O 0.72104 0.78412 0.21582 0.0
O145 O 0.7042 0.80101 0.19725 0.0
O146 O 0.736 0.83557 0.20323 0.0
O147 O 0.75294 0.81839 0.22145 0.0
H148 H 0.74482 0.78205 0.18659 0.0
H149 H 0.75316 0.76259 0.16058 0.0
H150 H 0.69531 0.74223 0.15371 0.0
H151 H 0.68712 0.76181 0.1795 0.0
H152 H 0.65526 0.78389 0.26323 0.0
H153 H 0.68249 0.79294 0.24526 0.0
H154 H 0.65961 0.83698 0.29105 0.0
H155 H 0.68693 0.84566 0.27337 0.0
H156 H 0.76346 0.89437 0.2283 0.0
H157 H 0.81149 0.86115 0.22178 0.0
H158 H 0.79052 0.83447 0.21387 0.0
H159 H 0.74245 0.86752 0.22017 0.0
C160 C 0.01222 0.97878 0.44159 0.0
C161 C 0.02105 0.98973 0.42844 0.0
C162 C 0.99192 0.98931 0.40929 0.0
C163 C 0.01101 0.99492 0.41244 0.0
C164 C 0.98305 0.97878 0.42282 0.0
C165 C 0.99311 0.97357 0.43876 0.0
U166 U 0.05433 0.9803 0.47702 0.0
O167 O 0.05489 0.97448 0.50673 0.0
O168 O 0.07038 0.95741 0.48804 0.0
C169 C 0.06483 0.95981 0.50488 0.0
C170 C 0.02278 0.97192 0.45786 0.0
C171 C 0.05881 0.94291 0.51472 0.0
C172 C 0.06683 0.91299 0.52667 0.0
C173 C 0.07122 0.92854 0.51629 0.0
C174 C 0.03725 0.92565 0.53405 0.0
C175 C 0.04991 0.9114 0.53592 0.0
C176 C 0.04166 0.94126 0.5236 0.0
C177 C 0.09375 0.01886 0.47292 0.0
C178 C 0.11554 0.0343 0.49564 0.0
C179 C 0.12137 0.03644 0.46317 0.0
C180 C 0.10515 0.02535 0.45893 0.0
C181 C 0.12661 0.04139 0.48154 0.0
C182 C 0.09924 0.02317 0.49138 0.0
C183 C 0.07569 0.00885 0.46762 0.0
O184 O 0.03885 0.9646 0.45463 0.0
O185 O 0.02368 0.98256 0.47269 0.0
O186 O 0.06195 0.00997 0.47903 0.0
O187 O 0.07674 0.99233 0.46026 0.0
H188 H 0.03578 0.994 0.43039 0.0
H189 H 0.01825 1.00323 0.40247 0.0
H190 H 0.96847 0.97401 0.42082 0.0
H191 H 0.98604 0.96509 0.44872 0.0
H192 H 0.07678 0.90218 0.52744 0.0
H193 H 0.08455 0.92945 0.50967 0.0
H194 H 0.02415 0.92498 0.54104 0.0
H195 H 0.0318 0.95213 0.52275 0.0
H196 H 0.11906 0.03791 0.50993 0.0
H197 H 0.1297 0.04134 0.45197 0.0
H198 H 0.10124 0.02219 0.44461 0.0
H199 H 0.09072 0.01833 0.50246 0.0
C200 C 0.215 0.75792 0.82694 0.0
C201 C 0.21064 0.75245 0.84482 0.0
C202 C 0.225 0.78114 0.85798 0.0
C203 C 0.21561 0.76389 0.86013 0.0
C204 C 0.22946 0.78654 0.84011 0.0
C205 C 0.22445 0.77513 0.8248 0.0
U206 U 0.2177 0.71777 0.79125 0.0
O207 O 0.1945 0.70033 0.77817 0.0
O208 O 0.21224 0.71809 0.76123 0.0
C209 C 0.19709 0.7071 0.76174 0.0
C210 C 0.20833 0.7467 0.81042 0.0
C211 C 0.18009 0.71301 0.75139 0.0
C212 C 0.16128 0.73684 0.73762 0.0
C213 C 0.17687 0.73171 0.74851 0.0
C214 C 0.15154 0.70473 0.73284 0.0
C215 C 0.14849 0.7234 0.72949 0.0
C216 C 0.16718 0.69962 0.74362 0.0
C217 C 0.25956 0.68506 0.79681 0.0
C218 C 0.26456 0.65615 0.7807 0.0
C219 C 0.28977 0.67088 0.79979 0.0
C220 C 0.27807 0.68506 0.80415 0.0
C221 C 0.28327 0.65627 0.7879 0.0
C222 C 0.25281 0.67047 0.78508 0.0
C223 C 0.24788 0.70047 0.80191 0.0
O224 O 0.2187 0.74782 0.79592 0.0
O225 O 0.20155 0.72987 0.81317 0.0
O226 O 0.23101 0.69623 0.80764 0.0
O227 O 0.24831 0.71477 0.79106 0.0
H228 H 0.20317 0.73941 0.84703 0.0
H229 H 0.21215 0.75917 0.87369 0.0
H230 H 0.23644 0.79982 0.83787 0.0
H231 H 0.22768 0.77996 0.81122 0.0
H232 H 0.15925 0.75134 0.73554 0.0
H233 H 0.18652 0.74235 0.75445 0.0
H234 H 0.14215 0.694 0.72666 0.0
H235 H 0.16938 0.68512 0.74561 0.0
H236 H 0.25912 0.64521 0.77139 0.0
H237 H 0.30394 0.67132 0.80587 0.0
H238 H 0.28354 0.69612 0.81333 0.0
H239 H 0.23855 0.67019 0.77924 0.0
C240 C 0.97146 0.57572 0.50676 0.0
C241 C 0.98303 0.58968 0.49941 0.0
C242 C 0.98294 0.60742 0.52829 0.0
C243 C 0.9887 0.6054 0.51007 0.0
C244 C 0.97158 0.5932 0.53559 0.0
C245 C 0.96592 0.57756 0.52494 0.0
U246 U 0.97266 0.54064 0.46613 0.0
O247 O 0.96633 0.51073 0.46612 0.0
O248 O 0.94878 0.52841 0.44904 0.0
C249 C 0.95117 0.51175 0.45525 0.0
C250 C 0.96438 0.55943 0.4957 0.0
C251 C 0.93411 0.50139 0.46094 0.0
C252 C 0.91342 0.48984 0.48445 0.0
C253 C 0.92902 0.50085 0.4794 0.0
C254 C 0.90751 0.48028 0.45259 0.0
C255 C 0.90263 0.47917 0.47112 0.0
C256 C 0.92306 0.49123 0.44759 0.0
C257 C 0.01253 0.54539 0.43132 0.0
C258 C 0.02376 0.5223 0.4103 0.0
C259 C 0.03457 0.5542 0.40802 0.0
C260 C 0.0234 0.55891 0.42255 0.0
C261 C 0.03519 0.53579 0.40188 0.0
C262 C 0.01255 0.52704 0.42493 0.0
C263 C 1.00225 0.55081 0.44765 0.0
O264 O 0.95736 0.56262 0.47907 0.0
O265 O 0.97483 0.54502 0.49629 0.0
O266 O 1.00294 0.53972 0.46179 0.0
O267 O 0.98556 0.55736 0.44449 0.0
H268 H 0.98754 0.5885 0.48541 0.0
H269 H 0.99762 0.61595 0.50405 0.0
H270 H 0.96661 0.59433 0.54941 0.0
H271 H 0.95692 0.56698 0.53084 0.0
H272 H 0.91018 0.48925 0.49885 0.0
H273 H 0.93732 0.50863 0.48995 0.0
H274 H 0.89936 0.47256 0.44189 0.0
H275 H 0.92665 0.49154 0.43325 0.0
H276 H 0.02394 0.50799 0.40601 0.0
H277 H 0.04288 0.56502 0.40167 0.0
H278 H 0.02355 0.57315 0.4272 0.0
H279 H 1.00425 0.51636 0.43149 0.0
C280 C 0.7882 0.77245 0.8377 0.0
C281 C 0.8049 0.76506 0.84466 0.0
C282 C 0.7871 0.74524 0.86526 0.0
C283 C 0.80436 0.75162 0.85837 0.0
C284 C 0.77046 0.75262 0.85804 0.0
C285 C 0.77103 0.76603 0.84445 0.0
U286 U 0.80733 0.79833 0.79561 0.0
O287 O 0.79123 0.80933 0.77194 0.0
O288 O 0.80858 0.82809 0.79031 0.0
C289 C 0.79621 0.82652 0.77634 0.0
C290 C 0.7881 0.78709 0.82378 0.0
C291 C 0.781 0.83973 0.77578 0.0
C292 C 0.75975 0.86006 0.79067 0.0
C293 C 0.77331 0.84663 0.79183 0.0
C294 C 0.76108 0.85944 0.75744 0.0
C295 C 0.75369 0.86687 0.77344 0.0
C296 C 0.77456 0.84609 0.75862 0.0
C297 C 0.85165 0.78042 0.77278 0.0
C298 C 0.86927 0.79436 0.74811 0.0
C299 C 0.87628 0.76388 0.7586 0.0
C300 C 0.86233 0.76481 0.77145 0.0
C301 C 0.87992 0.77857 0.74664 0.0
C302 C 0.85521 0.79526 0.76105 0.0
C303 C 0.83705 0.78059 0.78658 0.0
O304 O 0.80183 0.79982 0.82518 0.0
O305 O 0.78391 0.78169 0.80669 0.0
O306 O 0.81984 0.77574 0.7806 0.0
O307 O 0.83782 0.79456 0.79833 0.0
H308 H 0.81834 0.76974 0.8396 0.0
H309 H 0.81743 0.74616 0.86349 0.0
H310 H 0.75694 0.74834 0.86319 0.0
H311 H 0.75798 0.77159 0.83934 0.0
H312 H 0.75445 0.86551 0.80327 0.0
H313 H 0.77799 0.84189 0.80526 0.0
H314 H 0.75651 0.86402 0.74392 0.0
H315 H 0.7802 0.8409 0.74604 0.0
H316 H 0.87159 0.80588 0.73907 0.0
H317 H 0.88438 0.75166 0.75818 0.0
H318 H 0.85989 0.75325 0.78044 0.0
H319 H 0.84709 0.80745 0.76184 0.0
C320 C 0.29427 0.27309 0.33907 0.0
C321 C 0.2888 0.2547 0.33437 0.0
C322 C 0.29314 0.24564 0.36649 0.0
C323 C 0.28826 0.24115 0.34791 0.0
C324 C 0.29917 0.26391 0.37104 0.0
C325 C 0.29964 0.27745 0.35753 0.0
U326 U 0.30874 0.30193 0.29662 0.0
O327 O 0.2905 0.31374 0.27504 0.0
O328 O 0.30845 0.33203 0.29332 0.0
C329 C 0.29494 0.33082 0.28037 0.0
C330 C 0.29243 0.28815 0.32553 0.0
C331 C 0.27929 0.34352 0.28215 0.0
C332 C 0.24634 0.35066 0.27714 0.0
C333 C 0.26053 0.33792 0.27729 0.0
C334 C 0.2692 0.37475 0.28718 0.0
C335 C 0.25052 0.36931 0.28185 0.0
C336 C 0.28339 0.36204 0.28725 0.0
C337 C 0.35246 0.28911 0.26956 0.0
C338 C 0.38516 0.2907 0.26089 0.0
C339 C 0.36021 0.28854 0.23718 0.0
C340 C 0.3468 0.28836 0.25076 0.0
C341 C 0.3796 0.28946 0.24206 0.0
C342 C 0.37177 0.29047 0.27444 0.0
C343 C 0.33877 0.28692 0.28431 0.0
O344 O 0.30537 0.30166 0.32665 0.0
O345 O 0.28725 0.28346 0.30843 0.0
O346 O 0.32148 0.28127 0.27929 0.0
O347 O 0.33955 0.29972 0.29733 0.0
H348 H 0.28443 0.25082 0.32033 0.0
H349 H 0.28374 0.22719 0.34387 0.0
H350 H 0.30275 0.26797 0.38521 0.0
H351 H 0.30363 0.29152 0.36166 0.0
H352 H 0.23209 0.34592 0.27315 0.0
H353 H 0.25682 0.3238 0.27319 0.0
H354 H 0.27304 0.38901 0.29062 0.0
H355 H 0.29772 0.36686 0.29081 0.0
H356 H 0.39991 0.29172 0.26521 0.0
H357 H 0.35533 0.28735 0.22287 0.0
H358 H 0.33204 0.2872 0.2465 0.0
H359 H 0.37654 0.29099 0.28881 0.0
C360 C 0.47605 0.94346 0.50865 0.0
C361 C 0.4869 0.93021 0.51736 0.0
C362 C 0.48692 0.91226 0.48861 0.0
C363 C 0.49226 0.91475 0.50745 0.0
C364 C 0.47647 0.92588 0.4799 0.0
C365 C 0.47109 0.94128 0.48982 0.0
U366 U 0.47756 0.97908 0.54898 0.0
O367 O 0.47111 0.0084 0.5482 0.0
O368 O 0.45401 0.98924 0.56431 0.0
C369 C 0.45606 1.00601 0.55791 0.0
C370 C 0.46898 0.95921 0.51893 0.0
C371 C 0.43864 0.01472 0.55113 0.0
C372 C 0.42193 0.03458 0.52979 0.0
C373 C 0.43801 0.02511 0.53491 0.0
C374 C 0.40666 0.02322 0.55673 0.0
C375 C 0.40609 0.03389 0.54071 0.0
C376 C 0.42273 0.01383 0.56188 0.0
C377 C 0.51815 0.97889 0.58682 0.0
C378 C 0.5218 0.98253 0.6203 0.0
C379 C 0.54797 0.9904 0.60138 0.0
C380 C 0.53689 0.98543 0.58554 0.0
C381 C 0.54066 0.9889 0.61901 0.0
C382 C 0.51066 0.97759 0.60439 0.0
C383 C 0.50748 0.97211 0.56981 0.0
O384 O 0.46211 0.95555 0.53505 0.0
O385 O 0.47936 0.97462 0.519 0.0
O386 O 0.508 0.9829 0.55546 0.0
O387 O 0.49087 0.96386 0.57168 0.0
H388 H 0.49098 0.93167 0.53187 0.0
H389 H 0.50052 0.90469 0.51457 0.0
H390 H 0.47188 0.92437 0.46552 0.0
H391 H 0.46268 0.95132 0.48284 0.0
H392 H 0.42194 0.0425 0.51727 0.0
H393 H 0.45002 0.02619 0.52631 0.0
H394 H 0.39489 0.02258 0.56565 0.0
H395 H 0.42287 1.00618 0.57457 0.0
H396 H 0.51563 0.98133 0.63361 0.0
H397 H 0.56249 0.99491 0.59979 0.0
H398 H 0.54316 0.9863 0.57225 0.0
H399 H 0.49631 0.9725 0.60592 0.0
C400 C 0.22059 0.27199 0.68545 0.0
C401 C 0.21917 0.27823 0.66721 0.0
C402 C 0.22966 0.2489 0.65559 0.0
C403 C 0.22364 0.26681 0.65247 0.0
C404 C 0.23138 0.24283 0.67386 0.0
C405 C 0.22682 0.2542 0.68857 0.0
U406 U 0.22337 0.31423 0.71906 0.0
O407 O 0.20027 0.32924 0.73053 0.0
O408 O 0.21972 0.31497 0.74898 0.0
C409 C 0.20412 0.32391 0.74746 0.0
C410 C 0.21435 0.28308 0.7012 0.0
C411 C 0.18802 0.3169 0.75818 0.0
C412 C 0.15501 0.31788 0.76568 0.0
C413 C 0.16984 0.3231 0.75453 0.0
C414 C 0.17613 0.30006 0.7844 0.0
C415 C 0.15798 0.3064 0.78087 0.0
C416 C 0.19095 0.30528 0.77326 0.0
C417 C 0.26222 0.35289 0.71405 0.0
C418 C 0.27948 0.37284 0.73684 0.0
C419 C 0.27917 0.38082 0.70461 0.0
C420 C 0.26773 0.36504 0.70024 0.0
C421 C 0.28549 0.38477 0.72293 0.0
C422 C 0.26794 0.35709 0.73246 0.0
C423 C 0.25183 0.33537 0.70866 0.0
O424 O 0.22569 0.28421 0.71599 0.0
O425 O 0.20653 0.2987 0.69741 0.0
O426 O 0.23457 0.33658 0.70176 0.0
O427 O 0.25366 0.32151 0.71993 0.0
H428 H 0.21437 0.29183 0.66425 0.0
H429 H 0.22238 0.27204 0.63861 0.0
H430 H 0.23574 0.22906 0.67679 0.0
H431 H 0.22783 0.24892 0.70244 0.0
H432 H 0.14121 0.3229 0.76242 0.0
H433 H 0.16711 0.33228 0.74321 0.0
H434 H 0.17909 0.29149 0.79614 0.0
H435 H 0.2048 0.3005 0.77676 0.0
H436 H 0.28387 0.37558 0.75112 0.0
H437 H 0.28367 0.38953 0.69351 0.0
H438 H 0.26359 0.36205 0.68593 0.0
H439 H 0.26385 0.34802 0.74343 0.0
C440 C 0.79275 0.24804 0.67968 0.0
C441 C 0.80708 0.2619 0.6789 0.0
C442 C 0.7923 0.27365 0.65069 0.0
C443 C 0.80683 0.27463 0.66454 0.0
C444 C 0.77793 0.2598 0.65176 0.0
C445 C 0.77818 0.24716 0.66608 0.0
U446 U 0.81288 0.22554 0.72383 0.0
O447 O 0.79748 0.21396 0.74696 0.0
O448 O 0.81406 0.19609 0.73012 0.0
C449 C 0.80231 0.19708 0.74349 0.0
C450 C 0.7926 0.23425 0.69436 0.0
C451 C 0.78712 0.18259 0.74338 0.0
C452 C 0.7587 0.16711 0.72972 0.0
C453 C 0.77257 0.18149 0.72967 0.0
C454 C 0.77375 0.155 0.75721 0.0
C455 C 0.75924 0.15357 0.7434 0.0
C456 C 0.78751 0.16933 0.75717 0.0
C457 C 0.85859 0.24446 0.74878 0.0
C458 C 0.86907 0.23654 0.7799 0.0
C459 C 0.89048 0.25293 0.76024 0.0
C460 C 0.87643 0.2527 0.74613 0.0
C461 C 0.88695 0.24498 0.77737 0.0
C462 C 0.85505 0.23623 0.76573 0.0
C463 C 0.84389 0.24484 0.73383 0.0
O464 O 0.80586 0.2223 0.6941 0.0
O465 O 0.78959 0.24041 0.71102 0.0
O466 O 0.8271 0.24916 0.73877 0.0
O467 O 0.8434 0.23108 0.72186 0.0
H468 H 0.81846 0.26279 0.68931 0.0
H469 H 0.81818 0.28502 0.66408 0.0
H470 H 0.76633 0.2588 0.64159 0.0
H471 H 0.76694 0.23663 0.6665 0.0
H472 H 0.74781 0.16637 0.71882 0.0
H473 H 0.77206 0.1916 0.71888 0.0
H474 H 0.77445 0.14505 0.76814 0.0
H475 H 0.79859 0.17 0.76791 0.0
H476 H 0.86595 0.23006 0.79282 0.0
H477 H 0.90398 0.25971 0.75785 0.0
H478 H 0.87944 0.25912 0.73315 0.0
H479 H 0.84142 0.22966 0.76804 0.0
C480 C 0.51258 0.54734 0.57176 0.0
C481 C 0.52041 0.53708 0.58616 0.0
C482 C 0.49133 0.53832 0.60274 0.0
C483 C 0.50989 0.53263 0.60152 0.0
C484 C 0.48356 0.54838 0.58809 0.0
C485 C 0.49406 0.55281 0.57281 0.0
U486 U 0.55344 0.54472 0.53818 0.0
O487 O 0.55239 0.54901 0.50816 0.0
O488 O 0.56992 0.56766 0.52643 0.0
C489 C 0.56321 0.56414 0.50954 0.0
C490 C 0.52346 0.5532 0.55584 0.0
C491 C 0.55663 0.58007 0.4991 0.0
C492 C 0.53913 0.60797 0.49664 0.0
C493 C 0.54446 0.59252 0.50662 0.0
C494 C 0.55778 0.59848 0.47144 0.0
C495 C 0.54581 0.61121 0.47894 0.0
C496 C 0.56312 0.58311 0.48142 0.0
C497 C 0.59104 0.50814 0.54384 0.0
C498 C 0.61162 0.49597 0.52111 0.0
C499 C 0.61889 0.49211 0.55364 0.0
C500 C 0.60289 0.50147 0.55787 0.0
C501 C 0.62348 0.48914 0.53521 0.0
C502 C 0.59558 0.50543 0.52538 0.0
C503 C 0.57382 0.51726 0.54898 0.0
O504 O 0.54032 0.56079 0.5596 0.0
O505 O 0.52285 0.54182 0.54158 0.0
O506 O 0.55907 0.51521 0.53748 0.0
O507 O 0.57629 0.53406 0.55588 0.0
H508 H 0.53469 0.53267 0.58561 0.0
H509 H 0.51628 0.52469 0.61241 0.0
H510 H 0.46947 0.55328 0.5886 0.0
H511 H 0.48778 0.56083 0.5619 0.0
H512 H 0.52974 0.61735 0.50277 0.0
H513 H 0.53923 0.59038 0.52023 0.0
H514 H 0.56343 0.60061 0.458 0.0
H515 H 0.57256 0.57369 0.4754 0.0
H516 H 0.61478 0.49409 0.50678 0.0
H517 H 0.62745 0.48682 0.56487 0.0
H518 H 0.59963 0.5033 0.57219 0.0
H519 H 0.5867 0.5105 0.51427 0.0
C520 C 0.51189 0.47976 0.93977 0.0
C521 C 0.52108 0.49004 0.92634 0.0
C522 C 0.49202 0.48999 0.9071 0.0
C523 C 0.51125 0.49508 0.91015 0.0
C524 C 0.48282 0.48008 0.92085 0.0
C525 C 0.49266 0.47502 0.93697 0.0
U526 U 0.55222 0.48282 0.9773 0.0
O527 O 0.55085 0.47752 1.00707 0.0
O528 O 0.56811 0.46065 0.9899 0.0
C529 C 0.5614 0.46321 1.00627 0.0
C530 C 0.52206 0.47328 0.95647 0.0
C531 C 0.55465 0.44649 0.01579 0.0
C532 C 0.5385 0.41621 0.01566 0.0
C533 C 0.54358 0.43247 1.00655 0.0
C534 C 0.55504 0.42801 0.04349 0.0
C535 C 0.54435 0.41366 0.03422 0.0
C536 C 0.56014 0.4442 0.03436 0.0
C537 C 0.58994 0.52347 0.97586 0.0
C538 C 0.60445 0.55395 0.98259 0.0
C539 C 0.62372 0.52744 0.9829 0.0
C540 C 0.60769 0.51596 0.97848 0.0
C541 C 0.62234 0.54665 0.98466 0.0
C542 C 0.58851 0.54253 0.9782 0.0
C543 C 0.57296 0.51226 0.96923 0.0
O544 O 0.53866 0.46669 0.9541 0.0
O545 O 0.52167 0.48381 0.97128 0.0
O546 O 0.55818 0.51284 0.97937 0.0
O547 O 0.57541 0.49577 0.96232 0.0
H548 H 0.53589 0.49397 0.92825 0.0
H549 H 0.51875 0.50291 0.9 0.0
H550 H 0.46813 0.47572 0.91893 0.0
H551 H 0.4853 0.46707 0.94714 0.0
H552 H 0.53004 0.4056 0.00814 0.0
H553 H 0.5391 0.43397 0.99222 0.0
H554 H 0.56002 0.4265 0.05767 0.0
H555 H 0.56873 0.45482 0.04174 0.0
H556 H 0.60274 0.5686 0.9842 0.0
H557 H 0.63727 0.52134 0.98432 0.0
H558 H 0.60928 0.50131 0.97671 0.0
H559 H 0.57503 0.54869 0.97623 0.0
C560 C 0.71237 0.25717 0.327 0.0
C561 C 0.73067 0.25693 0.33494 0.0
C562 C 0.72289 0.27939 0.35848 0.0
C563 C 0.73588 0.26795 0.35052 0.0
C564 C 0.70451 0.27933 0.35055 0.0
C565 C 0.69935 0.26835 0.33499 0.0
U566 U 0.71652 0.21811 0.2905 0.0
O567 O 0.69369 0.20199 0.27542 0.0
O568 O 0.71295 0.21999 0.26028 0.0
C569 C 0.69753 0.2093 0.25948 0.0
C570 C 0.70666 0.24663 0.30997 0.0
C571 C 0.68153 0.21591 0.24806 0.0
C572 C 0.64933 0.22571 0.2442 0.0
C573 C 0.66447 0.22039 0.25564 0.0
C574 C 0.66818 0.22248 0.21756 0.0
C575 C 0.65098 0.22678 0.22498 0.0
C576 C 0.68321 0.21709 0.22895 0.0
C577 C 0.75595 0.18286 0.29525 0.0
C578 C 0.76503 0.15115 0.29961 0.0
C579 C 0.78095 0.17029 0.27767 0.0
C580 C 0.76967 0.18489 0.28199 0.0
C581 C 0.77893 0.15324 0.28651 0.0
C582 C 0.75376 0.16577 0.30395 0.0
C583 C 0.74529 0.19885 0.30138 0.0
O584 O 0.71825 0.2479 0.29642 0.0
O585 O 0.69952 0.22983 0.31204 0.0
O586 O 0.72806 0.19536 0.30659 0.0
O587 O 0.74694 0.21404 0.29183 0.0
H588 H 0.74095 0.24836 0.32901 0.0
H589 H 0.75007 0.26743 0.3564 0.0
H590 H 0.69419 0.28808 0.35611 0.0
H591 H 0.68518 0.26882 0.32901 0.0
H592 H 0.63637 0.22909 0.25042 0.0
H593 H 0.66276 0.21966 0.27035 0.0
H594 H 0.66991 0.22285 0.20283 0.0
H595 H 0.69616 0.21359 0.22276 0.0
H596 H 0.76289 0.13821 0.30658 0.0
H597 H 0.79168 0.17261 0.26776 0.0
H598 H 0.77205 0.1979 0.2752 0.0
H599 H 0.74352 0.16379 0.31441 0.0
C600 C 0.47277 0.07497 1.00533 0.0
C601 C 0.48262 0.09008 0.99785 0.0
C602 C 0.48271 0.10673 0.02737 0.0
C603 C 0.48758 0.10581 0.00878 0.0
C604 C 0.4733 0.09131 0.03484 0.0
C605 C 0.46839 0.07566 0.02394 0.0
U606 U 0.47454 0.03865 0.96547 0.0
O607 O 0.4672 0.00898 0.96639 0.0
O608 O 0.45073 0.02654 0.94817 0.0
C609 C 0.4524 0.01006 0.95508 0.0
C610 C 0.46591 0.05873 0.99405 0.0
C611 C 0.43489 1.00042 0.96068 0.0
C612 C 0.41363 0.98984 0.98412 0.0
C613 C 0.42953 1.0004 0.97907 0.0
C614 C 0.40794 0.97972 0.95239 0.0
C615 C 0.40282 0.97908 0.97088 0.0
C616 C 0.42379 0.99024 0.94738 0.0
C617 C 0.51564 0.03935 0.93198 0.0
C618 C 0.51823 0.03156 0.8994 0.0
C619 C 0.54542 0.03013 0.92037 0.0
C620 C 0.53469 0.03573 0.93494 0.0
C621 C 0.53741 0.02809 0.90235 0.0
C622 C 0.50745 0.0371 0.91405 0.0
C623 C 0.50516 0.0465 0.9476 0.0
O624 O 0.45981 0.06178 0.97706 0.0
O625 O 0.47575 0.04395 0.99549 0.0
O626 O 0.50499 0.03638 0.96245 0.0
O627 O 0.48894 0.05379 0.9437 0.0
H628 H 0.48617 0.08987 0.9835 0.0
H629 H 0.49471 0.11745 1.00253 0.0
H630 H 0.46962 0.09134 0.04914 0.0
H631 H 0.46084 0.06415 0.03002 0.0
H632 H 0.4102 0.98961 0.99849 0.0
H633 H 0.43787 0.00821 0.98957 0.0
H634 H 0.39978 0.97192 0.94176 0.0
H635 H 0.42759 0.99013 0.93311 0.0
H636 H 0.51154 0.02998 0.88576 0.0
H637 H 0.56017 0.0279 0.92318 0.0
H638 H 0.54142 0.03754 0.94856 0.0
H639 H 0.4928 0.0398 0.91127 0.0
Mg640 Mg 0.25521 0.87382 0.01431 0.0
O641 O 0.28304 0.89091 0.00918 0.0
O642 O 0.30514 0.87017 0.0078 0.0
Mg643 Mg 0.29288 0.84113 0.01251 0.0
C644 C 0.3001 0.88679 1.00702 0.0
C645 C 0.21901 0.89446 0.00935 0.0
O646 O 0.21359 0.87714 0.01156 0.0
O647 O 0.2533 0.86315 0.984 0.0
O648 O 0.27559 0.84246 0.98515 0.0
O649 O 0.26049 0.87482 0.04526 0.0
O650 O 0.27014 0.85302 0.02724 0.0
C651 C 0.26243 0.85051 0.97642 0.0
C652 C 0.26922 0.85971 0.04362 0.0
O653 O 0.23656 0.89847 0.00865 0.0
Mg654 Mg 0.15118 0.51668 0.27007 0.0
O655 O 0.1334 0.51196 0.24243 0.0
O656 O 0.15431 0.51169 0.22041 0.0
Mg657 Mg 0.18421 0.51677 0.23267 0.0
C658 C 0.13737 0.51041 0.22545 0.0
C659 C 0.12962 0.5113 0.30521 0.0
O660 O 0.14733 0.51415 0.31075 0.0
O661 O 0.16107 0.48667 0.26944 0.0
O662 O 0.18192 0.48901 0.24733 0.0
O663 O 0.15123 0.54759 0.2674 0.0
O664 O 0.17294 0.53053 0.25647 0.0
C665 C 0.17358 0.47973 0.25964 0.0
C666 C 0.1666 0.54664 0.25869 0.0
O667 O 0.12569 0.51015 0.28793 0.0
Mg668 Mg 0.77522 0.6548 0.02016 0.0
O669 O 0.7471 0.63731 0.0144 0.0
O670 O 0.72474 0.6578 0.01184 0.0
Mg671 Mg 0.73719 0.68718 0.01564 0.0
C672 C 0.72983 0.64118 0.01173 0.0
C673 C 0.80398 0.62612 0.03016 0.0
O674 O 0.80304 0.63663 0.04491 0.0
O675 O 0.77581 0.66366 0.98958 0.0
O676 O 0.75303 0.68385 0.98904 0.0
O677 O 0.77077 0.65564 0.05086 0.0
O678 O 0.76081 0.67654 0.03176 0.0
C679 C 0.76594 0.67549 0.98115 0.0
C680 C 0.76208 0.67067 0.04834 0.0
O681 O 0.79356 0.62956 0.01602 0.0
Mg682 Mg 0.90193 0.02884 0.25271 0.0
O683 O 0.88398 1.00145 0.24738 0.0
O684 O 0.90447 0.98029 0.24062 0.0
Mg685 Mg 0.93437 0.99317 0.24076 0.0
C686 C 0.88769 0.98487 0.24317 0.0
C687 C 0.87652 0.06047 0.25868 0.0
O688 O 0.88997 0.06646 0.24817 0.0
O689 O 0.91297 0.01868 0.28126 0.0
O690 O 0.93349 0.99853 0.27194 0.0
O691 O 0.90048 0.03565 0.22241 0.0
O692 O 0.92292 0.02005 0.2355 0.0
C693 C 0.92574 1.0072 0.28479 0.0
C694 C 0.91577 0.027 0.22077 0.0
O695 O 0.87686 0.04391 0.26421 0.0
Mg696 Mg 0.2759 0.15318 0.51918 0.0
O697 O 0.24802 0.1354 0.51359 0.0
O698 O 0.22535 0.15555 0.51097 0.0
Mg699 Mg 0.23741 0.18503 0.5155 0.0
C700 C 0.23071 0.13903 0.51077 0.0
C701 C 0.29578 0.11612 0.52622 0.0
O702 O 0.28505 0.11686 0.54043 0.0
O703 O 0.27591 0.16253 0.48878 0.0
O704 O 0.25315 0.18273 0.4887 0.0
O705 O 0.27216 0.1536 0.54999 0.0
O706 O 0.26136 0.17443 0.53121 0.0
C707 C 0.26606 0.17455 0.48061 0.0
C708 C 0.26311 0.16847 0.54774 0.0
O709 O 0.29447 0.12849 0.51403 0.0
Mg710 Mg 0.40304 0.52982 0.74997 0.0
O711 O 0.38446 0.50284 0.74486 0.0
O712 O 0.40428 0.48092 0.73855 0.0
Mg713 Mg 0.43448 0.49306 0.73853 0.0
C714 C 0.38766 0.48607 0.74096 0.0
C715 C 0.3769 0.56138 0.75422 0.0
O716 O 0.38928 0.56657 0.74223 0.0
O717 O 0.41378 0.5197 0.77868 0.0
O718 O 0.43373 0.49888 0.76964 0.0
O719 O 0.40192 0.53631 0.71956 0.0
O720 O 0.42385 0.52026 0.73292 0.0
C721 C 0.42623 0.50794 0.78237 0.0
C722 C 0.41698 0.52726 0.71809 0.0
O723 O 0.37823 0.54551 0.7613 0.0
Mg724 Mg 0.75614 0.37228 0.5145 0.0
O725 O 0.7838 0.38942 0.50887 0.0
O726 O 0.80596 0.36881 0.50704 0.0
Mg727 Mg 0.79391 0.33967 0.51172 0.0
C728 C 0.80084 0.3854 0.50643 0.0
C729 C 0.72758 0.40078 0.52328 0.0
O730 O 0.72935 0.39055 0.53795 0.0
O731 O 0.75353 0.36168 0.48411 0.0
O732 O 0.77599 0.34116 0.4848 0.0
O733 O 0.7625 0.37304 0.54537 0.0
O734 O 0.77137 0.35125 0.52695 0.0
C735 C 0.76261 0.34912 0.47631 0.0
C736 C 0.77098 0.35786 0.54342 0.0
O737 O 0.73734 0.39718 0.50949 0.0
Mg738 Mg 0.65295 0.01404 0.76867 0.0
O739 O 0.63465 0.01046 0.74118 0.0
O740 O 0.65504 0.01085 0.71869 0.0
Mg741 Mg 0.6852 0.01447 0.73054 0.0
C742 C 0.63822 0.00966 0.72405 0.0
C743 C 0.63118 0.00935 0.80391 0.0
O744 O 0.64874 0.01291 0.80962 0.0
O745 O 0.66217 0.98378 0.76711 0.0
O746 O 0.68235 0.98638 0.74442 0.0
O747 O 0.65387 0.04513 0.76683 0.0
O748 O 0.67481 0.02774 0.75505 0.0
C749 C 0.6742 0.97689 0.75669 0.0
C750 C 0.66903 0.04398 0.75781 0.0
O751 O 0.6275 1.00761 0.78662 0.0
Mg752 Mg 0.02958 0.2639 0.89926 0.0
O753 O 1.00268 0.25804 0.88041 0.0
O754 O 0.98007 0.24843 0.89883 0.0
Mg755 Mg 0.99178 0.24795 0.92866 0.0
C756 C 0.9857 0.25241 0.88285 0.0
C757 C 0.06277 0.27364 0.87628 0.0
O758 O 0.0689 0.26363 0.89001 0.0
O759 O 0.01795 0.29107 0.91012 0.0
O760 O 0.99629 0.27951 0.92869 0.0
O761 O 0.03753 0.23431 0.89731 0.0
O762 O 0.02012 0.24498 0.91889 0.0
C763 C 1.00533 0.29324 0.9219 0.0
C764 C 0.02805 0.23119 0.9118 0.0
O765 O 0.04551 0.27755 0.87563 0.0
Mg766 Mg 0.53043 0.76265 0.39798 0.0
O767 O 0.5034 0.75698 0.37931 0.0
O768 O 0.48079 0.74787 0.39795 0.0
Mg769 Mg 0.49286 0.74654 0.42764 0.0
C770 C 0.48633 0.75177 0.38192 0.0
C771 C 0.55073 0.7674 0.3609 0.0
O772 O 0.54513 0.74993 0.35996 0.0
O773 O 0.51891 0.78964 0.40942 0.0
O774 O 0.49771 0.77807 0.42845 0.0
O775 O 0.53841 0.73305 0.39572 0.0
O776 O 0.52103 0.7435 0.41742 0.0
C777 C 0.50671 0.7918 0.42162 0.0
C778 C 0.52893 0.72977 0.41018 0.0
O779 O 0.54591 0.77713 0.37449 0.0
Mg780 Mg 1.00159 0.75735 0.6193 0.0
O781 O 0.02895 0.75205 0.6369 0.0
O782 O 0.05056 0.74566 0.61667 0.0
Mg783 Mg 0.03777 0.74568 0.58721 0.0
C784 C 0.04571 0.74804 0.63322 0.0
C785 C 0.9826 0.75834 0.6572 0.0
O786 O 0.98868 0.74156 0.65661 0.0
O787 O 0.0137 0.7858 0.61014 0.0
O788 O 0.03418 0.7769 0.58972 0.0
O789 O 0.99268 0.72715 0.61898 0.0
O790 O 0.00986 0.74003 0.5979 0.0
C791 C 0.02579 0.78955 0.59803 0.0
C792 C 1.00176 0.72535 0.60409 0.0
O793 O 0.98682 0.76928 0.64431 0.0
Mg794 Mg 0.50164 0.25758 0.11695 0.0
O795 O 0.52946 0.25282 0.13398 0.0
O796 O 0.55045 0.24594 0.11331 0.0
Mg797 Mg 0.5369 0.24541 0.08413 0.0
C798 C 0.54608 0.24869 0.12996 0.0
C799 C 0.46962 0.2697 0.14003 0.0
O800 O 0.46181 0.26398 0.12411 0.0
O801 O 0.51325 0.28593 0.10697 0.0
O802 O 0.53301 0.27662 0.08606 0.0
O803 O 0.49306 0.22735 0.11755 0.0
O804 O 0.50937 0.23991 0.09564 0.0
C805 C 0.52484 0.28944 0.09434 0.0
C806 C 0.50164 0.22532 0.10239 0.0
O807 O 0.48747 0.26971 0.14213 0.0
H808 H 0.25754 0.80219 0.86505 0.0
H809 H 0.20391 0.78812 0.88783 0.0
H810 H 0.26615 0.82171 0.89197 0.0
H811 H 0.21277 0.80721 0.91504 0.0
H812 H 0.22906 0.85397 0.95631 0.0
H813 H 0.21961 0.83913 0.92657 0.0
H814 H 0.2744 0.81651 0.92416 0.0
H815 H 0.28383 0.83136 0.95346 0.0
C816 C 0.24752 0.80335 0.87573 0.0
C817 C 0.23006 0.79346 0.87427 0.0
C818 C 0.25252 0.81444 0.89125 0.0
C819 C 0.24019 0.81601 0.90574 0.0
C820 C 0.22255 0.80648 0.90409 0.0
C821 C 0.21757 0.79532 0.88859 0.0
C822 C 0.23917 0.8461 0.94924 0.0
C823 C 0.25718 0.84381 0.95734 0.0
C824 C 0.2337 0.83745 0.93229 0.0
C825 C 0.24621 0.82653 0.92299 0.0
C826 C 0.26444 0.82493 0.93078 0.0
C827 C 0.26982 0.8334 0.9477 0.0
H828 H 0.02901 0.51137 0.37251 0.0
H829 H 0.0714 0.54879 0.39837 0.0
H830 H 0.05104 0.50346 0.34895 0.0
H831 H 0.09303 0.54132 0.37477 0.0
H832 H 0.13448 0.51138 0.34259 0.0
H833 H 0.11122 0.51571 0.36549 0.0
H834 H 0.06767 0.51701 0.32236 0.0
H835 H 0.09112 0.5124 0.29921 0.0
C836 C 0.043 0.51788 0.3732 0.0
C837 C 0.04837 0.53078 0.38735 0.0
C838 C 0.05557 0.51347 0.3596 0.0
C839 C 0.07387 0.52168 0.35997 0.0
C840 C 0.07917 0.53452 0.37414 0.0
C841 C 0.06664 0.53899 0.3876 0.0
C842 C 0.11994 0.5124 0.3379 0.0
C843 C 0.11475 0.5117 0.31898 0.0
C844 C 0.10658 0.51501 0.35109 0.0
C845 C 0.08758 0.51703 0.34581 0.0
C846 C 0.08217 0.51547 0.32693 0.0
C847 C 0.09562 0.51286 0.31365 0.0
H848 H 0.76154 0.71623 0.86854 0.0
H849 H 0.81065 0.74284 0.89612 0.0
H850 H 0.75768 0.69605 0.89473 0.0
H851 H 0.80683 0.72249 0.92233 0.0
H852 H 0.79967 0.67609 0.96395 0.0
H853 H 0.80649 0.69021 0.93428 0.0
H854 H 0.74793 0.70198 0.92604 0.0
H855 H 0.74121 0.688 0.95534 0.0
C856 C 0.77159 0.71774 0.88015 0.0
C857 C 0.78624 0.73141 0.88029 0.0
C858 C 0.7694 0.70611 0.89516 0.0
C859 C 0.78182 0.70776 0.91075 0.0
C860 C 0.79709 0.72073 0.9105 0.0
C861 C 0.79927 0.73243 0.89546 0.0
C862 C 0.78823 0.68133 0.95556 0.0
C863 C 0.76991 0.68096 0.96202 0.0
C864 C 0.79216 0.68958 0.93867 0.0
C865 C 0.77777 0.6973 0.92779 0.0
C866 C 0.75933 0.69603 0.93391 0.0
C867 C 0.75549 0.68807 0.95079 0.0
H868 H 0.95528 0.9994 0.40386 0.0
H869 H 1.00503 0.9885 0.37446 0.0
H870 H 0.93795 1.0039 0.37452 0.0
H871 H 0.98795 0.9935 0.34538 0.0
H872 H 0.94804 0.98009 0.29695 0.0
H873 H 0.96307 0.97673 0.32719 0.0
H874 H 0.93553 0.0243 0.34701 0.0
H875 H 0.92012 0.02766 0.3164 0.0
C876 C 0.96256 0.99805 0.39117 0.0
C877 C 0.98158 0.99349 0.39158 0.0
C878 C 0.95265 1.0008 0.37437 0.0
C879 C 0.96148 0.99889 0.35755 0.0
C880 C 0.9806 0.9948 0.35803 0.0
C881 C 0.99049 0.99215 0.37477 0.0
C882 C 0.94502 0.98985 0.3077 0.0
C883 C 0.93296 1.00429 0.30408 0.0
C884 C 0.95379 0.98797 0.32508 0.0
C885 C 0.95084 1.00045 0.33948 0.0
C886 C 0.93813 0.01445 0.33621 0.0
C887 C 0.92929 0.01637 0.31867 0.0
H888 H 0.20983 0.24393 0.62253 0.0
H889 H 0.25865 0.22555 0.65303 0.0
H890 H 0.21633 0.22354 0.5969 0.0
H891 H 0.26531 0.2053 0.62732 0.0
H892 H 0.26402 0.15922 0.58427 0.0
H893 H 0.25495 0.17782 0.61041 0.0
H894 H 0.23792 0.22033 0.5731 0.0
H895 H 0.24654 0.20162 0.5471 0.0
C896 C 0.22207 0.23566 0.62371 0.0
C897 C 0.23375 0.23647 0.63986 0.0
C898 C 0.2258 0.22393 0.60899 0.0
C899 C 0.24138 0.21271 0.60995 0.0
C900 C 0.253 0.21346 0.62615 0.0
C901 C 0.24922 0.22514 0.64091 0.0
C902 C 0.25811 0.17243 0.58165 0.0
C903 C 0.25596 0.17886 0.56355 0.0
C904 C 0.25306 0.1832 0.59666 0.0
C905 C 0.24577 0.20069 0.59395 0.0
C906 C 0.24322 0.20687 0.57578 0.0
C907 C 0.24822 0.19611 0.56081 0.0
H908 H 0.45368 0.52859 0.60415 0.0
H909 H 0.5037 0.53919 0.63913 0.0
H910 H 0.43521 0.52407 0.63132 0.0
H911 H 0.48525 0.53461 0.66628 0.0
H912 H 0.45017 0.51128 0.71168 0.0
H913 H 0.46768 0.51205 0.68362 0.0
H914 H 0.42369 0.54196 0.6565 0.0
H915 H 0.406 0.54086 0.6845 0.0
C916 C 0.46076 0.53001 0.61762 0.0
C917 C 0.48023 0.53435 0.61937 0.0
C918 C 0.45014 0.52741 0.63323 0.0
C919 C 0.45867 0.52902 0.65106 0.0
C920 C 0.4782 0.53298 0.6528 0.0
C921 C 0.48882 0.53561 0.63719 0.0
C922 C 0.44407 0.51777 0.69966 0.0
C923 C 0.42663 0.52599 0.70039 0.0
C924 C 0.45422 0.51837 0.68359 0.0
C925 C 0.44722 0.5272 0.66777 0.0
C926 C 0.42948 0.53489 0.66832 0.0
C927 C 0.41933 0.53431 0.68442 0.0
H928 H 0.80094 0.311 0.65154 0.0
H929 H 0.78299 0.26607 0.61436 0.0
H930 H 0.79902 0.33246 0.62596 0.0
H931 H 0.78035 0.28746 0.58912 0.0
H932 H 0.79001 0.32603 0.54321 0.0
H933 H 0.79794 0.30677 0.56924 0.0
H934 H 0.7755 0.34638 0.60622 0.0
H935 H 0.7681 0.36599 0.58013 0.0
C936 C 0.79671 0.30567 0.63791 0.0
C937 C 0.79201 0.28679 0.63507 0.0
C938 C 0.79542 0.31801 0.62327 0.0
C939 C 0.78952 0.31175 0.60541 0.0
C940 C 0.7852 0.29281 0.60257 0.0
C941 C 0.78646 0.28053 0.61715 0.0
C942 C 0.7871 0.33086 0.5569 0.0
C943 C 0.77834 0.34756 0.55952 0.0
C944 C 0.79148 0.31969 0.57186 0.0
C945 C 0.7871 0.32482 0.58986 0.0
C946 C 0.7792 0.34199 0.5926 0.0
C947 C 0.7749 0.35323 0.57761 0.0
H948 H 0.56688 0.0175 0.6243 0.0
H949 H 0.54242 0.97062 0.65197 0.0
H950 H 0.58903 0.02331 0.65044 0.0
H951 H 0.56462 0.97653 0.67826 0.0
H952 H 0.60025 1.00211 0.72839 0.0
H953 H 0.57527 0.99815 0.70409 0.0
H954 H 0.61623 1.00791 0.66288 0.0
H955 H 0.64088 0.012 0.68681 0.0
C956 C 0.5662 0.00841 0.63595 0.0
C957 C 0.55296 0.99343 0.63585 0.0
C958 C 0.57892 0.01176 0.65098 0.0
C959 C 0.5788 1.00026 0.6664 0.0
C960 C 0.56505 0.98574 0.66669 0.0
C961 C 0.5523 0.98236 0.65159 0.0
C962 C 0.60388 1.00348 0.71414 0.0
C963 C 0.62264 1.0074 0.70965 0.0
C964 C 0.58958 1.00112 0.70021 0.0
C965 C 0.59369 1.00284 0.6815 0.0
C966 C 0.61243 1.00681 0.6771 0.0
C967 C 0.62665 0.00902 0.69092 0.0
H968 H 0.92471 0.23962 0.77528 0.0
H969 H 0.88277 0.25233 0.814 0.0
H970 H 0.94884 0.2411 0.80025 0.0
H971 H 0.90683 0.25404 0.83888 0.0
H972 H 0.94981 0.23737 0.88237 0.0
H973 H 0.92662 0.23516 0.85686 0.0
H974 H 0.96646 0.26172 0.82152 0.0
H975 H 0.98998 0.2635 0.84708 0.0
C976 C 0.92066 0.24287 0.7891 0.0
C977 C 0.90175 0.24577 0.79261 0.0
C978 C 0.93452 0.24376 0.80344 0.0
C979 C 0.92986 0.24763 0.82167 0.0
C980 C 0.91095 0.25065 0.82512 0.0
C981 C 0.89711 0.24968 0.81082 0.0
C982 C 0.95372 0.24273 0.86918 0.0
C983 C 0.97183 0.25069 0.86688 0.0
C984 C 0.94031 0.24157 0.85452 0.0
C985 C 0.94452 0.24841 0.83709 0.0
C986 C 0.96273 0.25614 0.83467 0.0
C987 C 0.97622 0.25725 0.84938 0.0
H988 H 0.48572 0.87682 0.50093 0.0
H989 H 0.49789 0.90879 0.45286 0.0
H990 H 0.49109 0.84868 0.48384 0.0
H991 H 0.50267 0.88042 0.43552 0.0
H992 H 0.52722 0.82454 0.41705 0.0
H993 H 0.52335 0.8541 0.43279 0.0
H994 H 0.47487 0.83071 0.45917 0.0
H995 H 0.47878 0.80142 0.4438 0.0
C996 C 0.48971 0.87789 0.48676 0.0
C997 C 0.49132 0.89514 0.47832 0.0
C998 C 0.49255 0.86169 0.47685 0.0
C999 C 0.49709 0.86222 0.4582 0.0
C1000 C 0.49923 0.87949 0.44986 0.0
C1001 C 0.49632 0.89574 0.45977 0.0
C1002 C 0.51562 0.82579 0.42605 0.0
C1003 C 0.50344 0.81047 0.42925 0.0
C1004 C 0.5134 0.84274 0.43509 0.0
C1005 C 0.49899 0.84472 0.44753 0.0
C1006 C 0.48642 0.8296 0.45008 0.0
C1007 C 0.48861 0.81277 0.44112 0.0
H1008 H 0.15025 0.27321 0.79706 0.0
H1009 H 0.13041 0.3283 0.79304 0.0
H1010 H 0.12647 0.26567 0.81913 0.0
H1011 H 0.10646 0.32067 0.8151 0.0
H1012 H 0.05558 0.29366 0.84484 0.0
H1013 H 0.07746 0.30149 0.82067 0.0
H1014 H 0.12133 0.27417 0.85091 0.0
H1015 H 0.0997 0.26627 0.87469 0.0
C1016 C 0.14086 0.28375 0.8009 0.0
C1017 C 0.14245 0.30144 0.79335 0.0
C1018 C 0.12717 0.27942 0.81356 0.0
C1019 C 0.11464 0.29262 0.81907 0.0
C1020 C 0.11577 0.31012 0.81108 0.0
C1021 C 0.12952 0.31449 0.7984 0.0
C1022 C 0.06991 0.28938 0.84631 0.0
C1023 C 0.07582 0.27927 0.86171 0.0
C1024 C 0.08246 0.29391 0.83249 0.0
C1025 C 0.10113 0.28829 0.83373 0.0
C1026 C 0.10699 0.27841 0.84926 0.0
C1027 C 0.09456 0.27398 0.86302 0.0
H1028 H 0.54335 0.64648 0.49228 0.0
H1029 H 0.53718 0.61411 0.44188 0.0
H1030 H 0.53718 0.6742 0.47502 0.0
H1031 H 0.53096 0.64186 0.42459 0.0
H1032 H 0.54514 0.69847 0.39859 0.0
H1033 H 0.54748 0.66949 0.41483 0.0
H1034 H 0.51369 0.69032 0.45768 0.0
H1035 H 0.51174 0.71944 0.44165 0.0
C1036 C 0.54038 0.64521 0.47755 0.0
C1037 C 0.54085 0.62801 0.4685 0.0
C1038 C 0.53682 0.66115 0.46762 0.0
C1039 C 0.53361 0.66035 0.44835 0.0
C1040 C 0.53369 0.64309 0.43935 0.0
C1041 C 0.53726 0.62715 0.44929 0.0
C1042 C 0.538 0.69679 0.41135 0.0
C1043 C 0.52828 0.71133 0.4188 0.0
C1044 C 0.53929 0.68011 0.42066 0.0
C1045 C 0.5309 0.67754 0.43769 0.0
C1046 C 0.52061 0.69189 0.44478 0.0
C1047 C 0.51932 0.70855 0.43548 0.0
H1048 H 0.90592 0.80527 0.73602 0.0
H1049 H 0.88741 0.74852 0.72559 0.0
H1050 H 0.93136 0.80179 0.71481 0.0
H1051 H 0.91272 0.74506 0.70467 0.0
H1052 H 0.97121 0.73761 0.68599 0.0
H1053 H 0.94681 0.74372 0.70724 0.0
H1054 H 0.93841 0.79619 0.68182 0.0
H1055 H 0.96317 0.79014 0.66046 0.0
C1056 C 0.90712 0.79212 0.72909 0.0
C1057 C 0.89471 0.77711 0.73277 0.0
C1058 C 0.92174 0.79013 0.71695 0.0
C1059 C 0.92431 0.77305 0.70824 0.0
C1060 C 0.91151 0.75827 0.71148 0.0
C1061 C 0.89694 0.76027 0.72352 0.0
C1062 C 0.96433 0.75055 0.68496 0.0
C1063 C 0.96912 0.76331 0.67136 0.0
C1064 C 0.95019 0.75399 0.6971 0.0
C1065 C 0.94038 0.77031 0.69608 0.0
C1066 C 0.94568 0.78348 0.68302 0.0
C1067 C 0.95986 0.78 0.67075 0.0
H1068 H 0.07436 0.89366 0.55894 0.0
H1069 H 0.01611 0.89204 0.53966 0.0
H1070 H 0.06848 0.86574 0.57627 0.0
H1071 H 0.0102 0.86405 0.55723 0.0
H1072 H 1.00388 0.81962 0.60168 0.0
H1073 H 0.00925 0.85031 0.58865 0.0
H1074 H 0.06171 0.83346 0.56787 0.0
H1075 H 0.05648 0.80318 0.58085 0.0
C1076 C 0.06028 0.88734 0.55833 0.0
C1077 C 0.04579 0.89502 0.5476 0.0
C1078 C 0.0569 0.87133 0.56835 0.0
C1079 C 0.0389 0.86251 0.56804 0.0
C1080 C 0.0242 0.87056 0.55792 0.0
C1081 C 0.0276 0.8866 0.54781 0.0
C1082 C 0.01669 0.82261 0.59459 0.0
C1083 C 0.02972 0.80889 0.5923 0.0
C1084 C 0.01969 0.84013 0.58697 0.0
C1085 C 0.0359 0.84437 0.57716 0.0
C1086 C 0.04917 0.83081 0.57549 0.0
C1087 C 0.0461 0.81335 0.58288 0.0
H1088 H 0.1488 0.74979 0.70294 0.0
H1089 H 0.11206 0.70899 0.72738 0.0
H1090 H 0.12346 0.75719 0.68103 0.0
H1091 H 0.08679 0.71614 0.70512 0.0
H1092 H 0.04085 0.74507 0.67061 0.0
H1093 H 0.06503 0.74044 0.69497 0.0
H1094 H 0.10746 0.74132 0.65436 0.0
H1095 H 0.08359 0.74601 0.63023 0.0
C1096 C 0.13526 0.74253 0.70379 0.0
C1097 C 0.13254 0.72873 0.71692 0.0
C1098 C 0.12076 0.74666 0.69109 0.0
C1099 C 0.1031 0.73717 0.6912 0.0
C1100 C 0.10016 0.72379 0.7047 0.0
C1101 C 0.11473 0.71956 0.71734 0.0
C1102 C 0.05536 0.74439 0.66691 0.0
C1103 C 0.0602 0.74589 0.6484 0.0
C1104 C 0.0692 0.74163 0.68086 0.0
C1105 C 0.08823 0.74056 0.67665 0.0
C1106 C 0.09302 0.74232 0.65818 0.0
C1107 C 0.07924 0.74489 0.64428 0.0
H1108 H 0.98449 0.64331 0.51694 0.0
H1109 H 0.99319 0.61019 0.56518 0.0
H1110 H 0.99103 0.67116 0.53564 0.0
H1111 H 0.99973 0.63805 0.5839 0.0
H1112 H 0.98596 0.69209 0.61395 0.0
H1113 H 0.98312 0.66352 0.59585 0.0
H1114 H 0.01501 0.68931 0.55324 0.0
H1115 H 0.01749 0.718 0.57118 0.0
C1116 C 0.98809 0.64193 0.53148 0.0
C1117 C 0.9882 0.62444 0.53952 0.0
C1118 C 0.99185 0.65794 0.54224 0.0
C1119 C 0.99585 0.65693 0.56135 0.0
C1120 C 0.99639 0.63942 0.56931 0.0
C1121 C 0.99263 0.62341 0.55855 0.0
C1122 C 0.99256 0.69162 0.60082 0.0
C1123 C 1.00194 0.70739 0.59404 0.0
C1124 C 0.991 0.67517 0.59044 0.0
C1125 C 0.99874 0.67406 0.57298 0.0
C1126 C 1.00861 0.6897 0.56647 0.0
C1127 C 0.01019 0.70614 0.57687 0.0
H1128 H 0.82181 0.88137 0.24726 0.0
H1129 H 0.78625 0.91567 0.21416 0.0
H1130 H 0.84452 0.90718 0.25232 0.0
H1131 H 0.80908 0.94162 0.21928 0.0
H1132 H 0.84933 0.98821 0.24522 0.0
H1133 H 0.8246 0.96361 0.24226 0.0
H1134 H 0.86664 0.92389 0.23365 0.0
H1135 H 0.89114 0.94811 0.23679 0.0
C1136 C 0.81883 0.89442 0.24102 0.0
C1137 C 0.80226 0.89631 0.2301 0.0
C1138 C 0.83188 0.90925 0.24393 0.0
C1139 C 0.82878 0.92647 0.23602 0.0
C1140 C 0.81188 0.92861 0.22568 0.0
C1141 C 0.79878 0.91372 0.22275 0.0
C1142 C 0.85328 0.97421 0.24273 0.0
C1143 C 0.8723 0.97022 0.2413 0.0
C1144 C 0.83908 0.96012 0.24095 0.0
C1145 C 0.84361 0.94171 0.23786 0.0
C1146 C 0.86261 0.93781 0.23637 0.0
C1147 C 0.87671 0.95182 0.23805 0.0
H1148 H 0.7946 0.12864 0.31059 0.0
H1149 H 0.79218 0.1431 0.25309 0.0
H1150 H 0.81695 0.10517 0.30409 0.0
H1151 H 0.81459 0.11984 0.24669 0.0
H1152 H 0.87219 0.09534 0.24666 0.0
H1153 H 0.84787 0.11627 0.25347 0.0
H1154 H 0.82174 0.0754 0.28784 0.0
H1155 H 0.8465 0.05421 0.28109 0.0
C1156 C 0.79859 0.12668 0.29652 0.0
C1157 C 0.79164 0.13799 0.28241 0.0
C1158 C 0.81144 0.11319 0.2928 0.0
C1159 C 0.81776 0.1107 0.2749 0.0
C1160 C 0.81036 0.12161 0.26072 0.0
C1161 C 0.7975 0.13501 0.26441 0.0
C1162 C 0.8613 0.09068 0.25568 0.0
C1163 C 0.86136 0.07299 0.26329 0.0
C1164 C 0.84721 0.10272 0.25948 0.0
C1165 C 0.83268 0.09753 0.27106 0.0
C1166 C 0.83276 0.07989 0.2789 0.0
C1167 C 0.8469 0.06772 0.27499 0.0
H1168 H 0.39396 0.94401 0.95831 0.0
H1169 H 0.37569 0.98538 0.99593 0.0
H1170 H 0.3686 0.92299 0.96723 0.0
H1171 H 0.35044 0.96394 1.00532 0.0
H1172 H 0.29612 0.92417 1.00227 0.0
H1173 H 0.32036 0.94725 0.99386 0.0
H1174 H 0.36133 0.90536 0.99438 0.0
H1175 H 0.33744 0.8825 1.00249 0.0
C1176 C 0.38445 0.94871 0.96841 0.0
C1177 C 0.38692 0.96647 0.97634 0.0
C1178 C 0.37 0.93653 0.9737 0.0
C1179 C 0.35753 0.94169 0.98712 0.0
C1180 C 0.35973 0.95955 0.99489 0.0
C1181 C 0.37432 0.97176 0.98963 0.0
C1182 C 0.31032 0.91993 1.00066 0.0
C1183 C 0.3147 0.90138 1.00293 0.0
C1184 C 0.32423 0.93317 0.99591 0.0
C1185 C 0.34276 0.92812 0.99321 0.0
C1186 C 0.34715 0.9097 0.99594 0.0
C1187 C 0.33338 0.89656 1.00072 0.0
H1188 H 0.2448 0.39856 0.30508 0.0
H1189 H 0.22295 0.37189 0.25459 0.0
H1190 H 0.22297 0.42317 0.30036 0.0
H1191 H 0.20082 0.39618 0.25016 0.0
H1192 H 0.18898 0.45671 0.23535 0.0
H1193 H 0.20477 0.42847 0.2418 0.0
H1194 H 0.18952 0.43186 0.29857 0.0
H1195 H 0.17362 0.46046 0.29206 0.0
C1196 C 0.23522 0.39783 0.29307 0.0
C1197 C 0.2358 0.38327 0.28014 0.0
C1198 C 0.22253 0.41184 0.29048 0.0
C1199 C 0.21018 0.41174 0.27483 0.0
C1200 C 0.21026 0.39681 0.26228 0.0
C1201 C 0.22286 0.38277 0.26491 0.0
C1202 C 0.18866 0.4513 0.24916 0.0
C1203 C 0.18007 0.46091 0.2632 0.0
C1204 C 0.19767 0.435 0.25284 0.0
C1205 C 0.19853 0.42788 0.27073 0.0
C1206 C 0.18927 0.43706 0.28467 0.0
C1207 C 0.18 0.45334 0.28091 0.0
H1208 H 0.15373 0.04071 0.50985 0.0
H1209 H 0.13634 0.07252 0.46287 0.0
H1210 H 0.17954 0.06352 0.51708 0.0
H1211 H 0.16222 0.09486 0.46978 0.0
H1212 H 0.19376 0.14236 0.5005 0.0
H1213 H 0.1697 0.11826 0.49379 0.0
H1214 H 0.21 0.07696 0.50526 0.0
H1215 H 0.23441 0.10133 0.51221 0.0
C1216 C 0.15543 0.0525 0.50104 0.0
C1217 C 0.1429 0.05474 0.48577 0.0
C1218 C 0.17033 0.06547 0.50507 0.0
C1219 C 0.17292 0.08108 0.49406 0.0
C1220 C 0.16054 0.08313 0.47869 0.0
C1221 C 0.14578 0.07018 0.4746 0.0
C1222 C 0.19764 0.12818 0.50165 0.0
C1223 C 0.21616 0.12387 0.50687 0.0
C1224 C 0.18378 0.11431 0.49766 0.0
C1225 C 0.18791 0.09564 0.49882 0.0
C1226 C 0.20633 0.09122 0.50431 0.0
C1227 C 0.22034 0.10518 0.50819 0.0
H1228 H 0.76545 0.11747 0.75034 0.0
H1229 H 0.72098 0.15375 0.73611 0.0
H1230 H 0.74256 0.09179 0.75179 0.0
H1231 H 0.69795 0.12774 0.73696 0.0
H1232 H 0.66249 0.08034 0.7646 0.0
H1233 H 0.68345 0.10713 0.75925 0.0
H1234 H 0.72172 0.07195 0.73281 0.0
H1235 H 0.70115 0.04528 0.73859 0.0
C1236 C 0.75076 0.11998 0.74747 0.0
C1237 C 0.74508 0.13775 0.74325 0.0
C1238 C 0.73761 0.10515 0.74807 0.0
C1239 C 0.71835 0.10761 0.74442 0.0
C1240 C 0.71264 0.12535 0.73997 0.0
C1241 C 0.72586 0.14024 0.73932 0.0
C1242 C 0.67524 0.07837 0.75739 0.0
C1243 C 0.68014 0.0606 0.75212 0.0
C1244 C 0.68725 0.09376 0.75427 0.0
C1245 C 0.70444 0.09171 0.74581 0.0
C1246 C 0.70881 0.07404 0.73972 0.0
C1247 C 0.69688 0.0587 0.74288 0.0
H1248 H 0.40528 0.06911 0.52756 0.0
H1249 H 0.36877 0.02344 0.54313 0.0
H1250 H 0.37804 0.08767 0.52204 0.0
H1251 H 0.34151 0.04194 0.53751 0.0
H1252 H 0.30152 0.088 0.55002 0.0
H1253 H 0.3275 0.06755 0.55165 0.0
H1254 H 0.34991 0.09237 0.5031 0.0
H1255 H 0.32395 0.11324 0.5017 0.0
C1256 C 0.39143 0.0629 0.5295 0.0
C1257 C 0.3893 0.04478 0.53593 0.0
C1258 C 0.37575 0.07356 0.52631 0.0
C1259 C 0.3575 0.0664 0.52943 0.0
C1260 C 0.35534 0.04808 0.5353 0.0
C1261 C 0.371 0.03744 0.53852 0.0
C1262 C 0.31186 0.08903 0.53955 0.0
C1263 C 0.31062 0.10237 0.52577 0.0
C1264 C 0.32676 0.07717 0.54043 0.0
C1265 C 0.34092 0.07827 0.52755 0.0
C1266 C 0.33942 0.09128 0.51342 0.0
C1267 C 0.32444 0.10315 0.51252 0.0
H1268 H 0.65827 0.49126 0.55295 0.0
H1269 H 0.62702 0.46308 0.5078 0.0
H1270 H 0.68463 0.47182 0.54839 0.0
H1271 H 0.65358 0.44363 0.50317 0.0
H1272 H 0.7116 0.41901 0.4937 0.0
H1273 H 0.68754 0.44217 0.49471 0.0
H1274 H 0.68903 0.43917 0.55407 0.0
H1275 H 0.71275 0.4164 0.55309 0.0
C1276 C 0.65701 0.48094 0.54201 0.0
C1277 C 0.64033 0.47859 0.53095 0.0
C1278 C 0.67217 0.46981 0.53936 0.0
C1279 C 0.67117 0.45599 0.52555 0.0
C1280 C 0.65489 0.45421 0.51385 0.0
C1281 C 0.63964 0.46537 0.51653 0.0
C1282 C 0.70689 0.42349 0.50693 0.0
C1283 C 0.71409 0.41581 0.5233 0.0
C1284 C 0.69304 0.43665 0.50752 0.0
C1285 C 0.68638 0.4426 0.52449 0.0
C1286 C 0.69397 0.43516 0.54078 0.0
C1287 C 0.70753 0.42195 0.54019 0.0
H1288 H 0.75603 0.29956 0.36537 0.0
H1289 H 0.70234 0.28684 0.38863 0.0
H1290 H 0.76536 0.31889 0.39222 0.0
H1291 H 0.71167 0.30618 0.4155 0.0
H1292 H 0.72905 0.35272 0.45648 0.0
H1293 H 0.71917 0.3377 0.42695 0.0
H1294 H 0.77368 0.31452 0.42422 0.0
H1295 H 0.78356 0.32963 0.45323 0.0
C1296 C 0.74624 0.30078 0.37625 0.0
C1297 C 0.72847 0.29148 0.37483 0.0
C1298 C 0.75157 0.31194 0.39165 0.0
C1299 C 0.73929 0.31412 0.4061 0.0
C1300 C 0.72139 0.30509 0.40453 0.0
C1301 C 0.71606 0.29393 0.38912 0.0
C1302 C 0.73901 0.3447 0.44937 0.0
C1303 C 0.75707 0.34234 0.45731 0.0
C1304 C 0.73329 0.33593 0.43254 0.0
C1305 C 0.74558 0.32477 0.42321 0.0
C1306 C 0.76387 0.32311 0.43084 0.0
C1307 C 0.76951 0.33173 0.44761 0.0
H1308 H 0.5646 1.00261 0.90214 0.0
H1309 H 0.53718 0.04172 0.86718 0.0
H1310 H 0.58579 0.99595 0.87777 0.0
H1311 H 0.55844 0.03506 0.84274 0.0
H1312 H 0.59272 0.00979 0.79746 0.0
H1313 H 0.5687 0.01238 0.82038 0.0
H1314 H 0.61185 0.01184 0.86399 0.0
H1315 H 0.63558 0.009 0.84132 0.0
C1316 C 0.56308 0.00981 0.88925 0.0
C1317 C 0.54926 0.02287 0.88677 0.0
C1318 C 0.57525 1.00598 0.87524 0.0
C1319 C 0.57401 0.01509 0.85828 0.0
C1320 C 0.55973 0.02764 0.85552 0.0
C1321 C 0.54752 0.03147 0.86957 0.0
C1322 C 0.59701 0.00997 0.81195 0.0
C1323 C 0.61612 0.0092 0.81751 0.0
C1324 C 0.58326 0.01161 0.8251 0.0
C1325 C 0.58828 0.01234 0.8441 0.0
C1326 C 0.60735 0.01107 0.84956 0.0
C1327 C 0.62103 0.00955 0.83648 0.0
H1328 H 0.26429 0.21976 0.36962 0.0
H1329 H 0.31631 0.24011 0.39703 0.0
H1330 H 0.25862 0.19915 0.39515 0.0
H1331 H 0.31033 0.21981 0.42286 0.0
H1332 H 0.29934 0.17301 0.46284 0.0
H1333 H 0.30698 0.18745 0.43359 0.0
H1334 H 0.24993 0.20456 0.42682 0.0
H1335 H 0.24235 0.1902 0.45571 0.0
C1336 C 0.27469 0.21965 0.38094 0.0
C1337 C 0.29071 0.23173 0.38127 0.0
C1338 C 0.27133 0.20793 0.39569 0.0
C1339 C 0.28393 0.2079 0.41115 0.0
C1340 C 0.30039 0.21936 0.41113 0.0
C1341 C 0.30371 0.23117 0.3964 0.0
C1342 C 0.28837 0.17952 0.45488 0.0
C1343 C 0.27026 0.18051 0.46167 0.0
C1344 C 0.29278 0.18794 0.43822 0.0
C1345 C 0.2791 0.19726 0.42787 0.0
C1346 C 0.26079 0.19739 0.43427 0.0
C1347 C 0.25646 0.18921 0.45094 0.0
H1348 H 0.50497 0.48803 0.87224 0.0
H1349 H 0.4558 0.50123 0.90153 0.0
H1350 H 0.48801 0.49308 0.84308 0.0
H1351 H 0.43859 0.50577 0.87215 0.0
H1352 H 0.42138 0.5291 0.8137 0.0
H1353 H 0.43674 0.52573 0.84434 0.0
H1354 H 0.46258 0.47691 0.82515 0.0
H1355 H 0.44758 0.48026 0.79489 0.0
C1356 C 0.49059 0.49219 0.8725 0.0
C1357 C 0.48179 0.49416 0.88931 0.0
C1358 C 0.48076 0.49486 0.85572 0.0
C1359 C 0.46183 0.49962 0.85521 0.0
C1360 C 0.45314 0.50215 0.87202 0.0
C1361 C 0.46298 0.49937 0.88885 0.0
C1362 C 0.43016 0.51754 0.81612 0.0
C1363 C 0.43336 0.50509 0.8017 0.0
C1364 C 0.43898 0.51561 0.83368 0.0
C1365 C 0.45121 0.50124 0.83713 0.0
C1366 C 0.45369 0.48842 0.8229 0.0
C1367 C 0.44493 0.49031 0.80551 0.0
H1368 H 0.70503 0.74389 0.12224 0.0
H1369 H 0.75598 0.73011 0.15224 0.0
H1370 H 0.71267 0.72357 0.09694 0.0
H1371 H 0.76394 0.71023 0.12665 0.0
H1372 H 0.76377 0.66238 0.08508 0.0
H1373 H 0.75423 0.68119 0.11088 0.0
H1374 H 0.73493 0.72202 0.07276 0.0
H1375 H 0.74426 0.7032 0.04706 0.0
C1376 C 0.71785 0.7365 0.12348 0.0
C1377 C 0.72987 0.73867 0.13934 0.0
C1378 C 0.72233 0.72497 0.10886 0.0
C1379 C 0.73892 0.71521 0.10971 0.0
C1380 C 0.75093 0.71734 0.12559 0.0
C1381 C 0.74649 0.72895 0.14018 0.0
C1382 C 0.75729 0.67527 0.08219 0.0
C1383 C 0.75471 0.6812 0.06395 0.0
C1384 C 0.75196 0.68614 0.09701 0.0
C1385 C 0.74387 0.70319 0.09395 0.0
C1386 C 0.74091 0.70889 0.07566 0.0
C1387 C 0.74629 0.69807 0.06088 0.0
H1388 H 0.9656 0.06263 0.12045 0.0
H1389 H 0.98894 0.00939 0.12812 0.0
H1390 H 0.94695 0.05797 0.14734 0.0
H1391 H 0.97008 1.0046 0.15508 0.0
H1392 H 0.94997 0.01313 0.21432 0.0
H1393 H 0.96736 0.01509 0.18625 0.0
H1394 H 0.92069 0.04086 0.15878 0.0
H1395 H 0.90349 0.03931 0.18705 0.0
C1396 C 0.96658 0.04979 0.12774 0.0
C1397 C 0.97875 0.03635 0.122 0.0
C1398 C 0.95581 0.04708 0.14319 0.0
C1399 C 0.95682 0.03083 0.15341 0.0
C1400 C 0.96903 0.01738 0.14771 0.0
C1401 C 0.97988 0.02012 0.13224 0.0
C1402 C 0.94329 0.01899 0.20223 0.0
C1403 C 0.92532 0.02611 0.203 0.0
C1404 C 0.95328 0.02007 0.18606 0.0
C1405 C 0.94556 0.02829 0.17019 0.0
C1406 C 0.92728 0.03478 0.17079 0.0
C1407 C 0.91732 0.03374 0.18698 0.0
H1408 H 0.29799 0.81364 0.15248 0.0
H1409 H 0.28263 0.76834 0.11488 0.0
H1410 H 0.29587 0.83511 0.1269 0.0
H1411 H 0.27978 0.78968 0.08963 0.0
H1412 H 0.28932 0.82856 0.04405 0.0
H1413 H 0.29723 0.80959 0.07027 0.0
H1414 H 0.27234 0.84827 0.10651 0.0
H1415 H 0.26495 0.86764 0.08021 0.0
C1416 C 0.29428 0.80824 0.13876 0.0
C1417 C 0.29037 0.78924 0.13579 0.0
C1418 C 0.29288 0.82057 0.12412 0.0
C1419 C 0.28765 0.81419 0.10614 0.0
C1420 C 0.2841 0.79515 0.10319 0.0
C1421 C 0.28548 0.78288 0.11776 0.0
C1422 C 0.28585 0.83326 0.05762 0.0
C1423 C 0.27642 0.84963 0.05995 0.0
C1424 C 0.29023 0.82225 0.07269 0.0
C1425 C 0.28516 0.82719 0.09054 0.0
C1426 C 0.27657 0.84404 0.09302 0.0
C1427 C 0.27227 0.85514 0.0779 0.0
H1428 H 0.07141 0.46558 0.13072 0.0
H1429 H 0.03759 0.50933 0.14935 0.0
H1430 H 0.09395 0.4721 0.15633 0.0
H1431 H 0.0606 0.51621 0.17493 0.0
H1432 H 0.09878 0.50955 0.22872 0.0
H1433 H 0.07433 0.50307 0.20432 0.0
H1434 H 0.1172 0.4968 0.16488 0.0
H1435 H 0.14139 0.50305 0.18893 0.0
C1436 C 0.06868 0.47653 0.14036 0.0
C1437 C 0.0526 0.48689 0.13793 0.0
C1438 C 0.08175 0.4804 0.15497 0.0
C1439 C 0.07918 0.49476 0.16767 0.0
C1440 C 0.06296 0.50499 0.16547 0.0
C1441 C 0.04988 0.50117 0.15071 0.0
C1442 C 0.10296 0.50678 0.21484 0.0
C1443 C 0.12213 0.50676 0.2109 0.0
C1444 C 0.08894 0.50317 0.20084 0.0
C1445 C 0.09379 0.49927 0.18265 0.0
C1446 C 0.11292 0.49944 0.17876 0.0
C1447 C 0.12685 0.50314 0.19262 0.0
H1448 H 0.41887 0.76788 0.28044 0.0
H1449 H 0.38948 0.72326 0.30742 0.0
H1450 H 0.44302 0.76914 0.30527 0.0
H1451 H 0.41415 0.72385 0.33169 0.0
H1452 H 0.44845 0.7442 0.3829 0.0
H1453 H 0.42522 0.74233 0.35744 0.0
H1454 H 0.46888 0.75375 0.31925 0.0
H1455 H 0.49222 0.75616 0.34495 0.0
C1456 C 0.41754 0.7583 0.29163 0.0
C1457 C 0.40205 0.74556 0.29191 0.0
C1458 C 0.43158 0.75885 0.30578 0.0
C1459 C 0.43059 0.74665 0.3206 0.0
C1460 C 0.41529 0.73367 0.32069 0.0
C1461 C 0.40122 0.73316 0.30658 0.0
C1462 C 0.4532 0.74629 0.36909 0.0
C1463 C 0.4723 0.75034 0.36606 0.0
C1464 C 0.43981 0.74508 0.35441 0.0
C1465 C 0.44509 0.74778 0.33618 0.0
C1466 C 0.46422 0.75179 0.33309 0.0
C1467 C 0.47765 0.75308 0.34784 0.0
H1468 H 0.97777 0.37555 1.00064 0.0
H1469 H 0.9976 0.40971 0.95672 0.0
H1470 H 0.98354 0.34812 0.98264 0.0
H1471 H 1.00336 0.38206 0.93854 0.0
H1472 H 0.02738 0.32547 0.9205 0.0
H1473 H 0.02262 0.35471 0.93653 0.0
H1474 H 0.96991 0.33231 0.95561 0.0
H1475 H 0.97476 0.30331 0.94006 0.0
C1476 C 0.98326 0.37722 0.98707 0.0
C1477 C 0.98699 0.39489 0.98009 0.0
C1478 C 0.98656 0.36146 0.9767 0.0
C1479 C 0.99365 0.36282 0.95896 0.0
C1480 C 0.99796 0.38048 0.95215 0.0
C1481 C 0.99466 0.39633 0.96259 0.0
C1482 C 0.01467 0.32692 0.92792 0.0
C1483 C 1.00158 0.31192 0.92915 0.0
C1484 C 0.01194 0.34368 0.93712 0.0
C1485 C 0.99606 0.34578 0.94771 0.0
C1486 C 0.98257 0.33107 0.94806 0.0
C1487 C 0.98531 0.31442 0.93899 0.0
H1488 H 0.62254 0.79012 0.26786 0.0
H1489 H 0.65109 0.81667 0.31547 0.0
H1490 H 0.59619 0.78107 0.28662 0.0
H1491 H 0.62484 0.80761 0.3342 0.0
H1492 H 0.56823 0.80194 0.36033 0.0
H1493 H 0.5924 0.81291 0.33976 0.0
H1494 H 0.58839 0.7604 0.31093 0.0
H1495 H 0.56404 0.74964 0.33112 0.0
C1496 C 0.62327 0.79394 0.28235 0.0
C1497 C 0.63899 0.80416 0.2901 0.0
C1498 C 0.60812 0.78877 0.29313 0.0
C1499 C 0.60829 0.79363 0.31197 0.0
C1500 C 0.62399 0.80391 0.31969 0.0
C1501 C 0.63911 0.80909 0.30892 0.0
C1502 C 0.57235 0.79282 0.34946 0.0
C1503 C 0.56419 0.77487 0.34746 0.0
C1504 C 0.58634 0.79905 0.33774 0.0
C1505 C 0.59251 0.78752 0.32371 0.0
C1506 C 0.58391 0.76977 0.32141 0.0
C1507 C 0.56996 0.76355 0.3331 0.0
H1508 H 0.03658 0.11608 0.94552 0.0
H1509 H 0.04352 0.14953 0.99518 0.0
H1510 H 0.03007 0.14347 0.92773 0.0
H1511 H 0.03767 0.17696 0.97732 0.0
H1512 H 0.01121 0.22134 0.94359 0.0
H1513 H 0.01347 0.19252 0.96009 0.0
H1514 H 0.04669 0.17098 0.91714 0.0
H1515 H 0.0441 0.1997 0.90045 0.0
C1516 C 0.03659 0.12925 0.95269 0.0
C1517 C 0.04061 0.13055 0.97182 0.0
C1518 C 0.03305 0.145 0.94243 0.0
C1519 C 0.03336 0.16248 0.95104 0.0
C1520 C 0.03709 0.16373 0.97022 0.0
C1521 C 0.04068 0.148 0.98046 0.0
C1522 C 0.01874 0.21037 0.93749 0.0
C1523 C 0.02749 0.21288 0.92068 0.0
C1524 C 0.02019 0.19387 0.94706 0.0
C1525 C 0.03043 0.17944 0.94008 0.0
C1526 C 0.03857 0.1817 0.9229 0.0
C1527 C 0.03713 0.19822 0.91333 0.0
H1528 H 0.3791 0.30532 0.20788 0.0
H1529 H 0.41261 0.2713 0.24337 0.0
H1530 H 0.40159 0.30236 0.18382 0.0
H1531 H 0.43513 0.26843 0.21934 0.0
H1532 H 0.4798 0.27802 0.17644 0.0
H1533 H 0.45895 0.28448 0.20145 0.0
H1534 H 0.41098 0.27875 0.16301 0.0
H1535 H 0.43164 0.27266 0.1382 0.0
C1536 C 0.39122 0.29717 0.21057 0.0
C1537 C 0.3939 0.28849 0.22762 0.0
C1538 C 0.40417 0.29549 0.19675 0.0
C1539 C 0.42019 0.28508 0.19955 0.0
C1540 C 0.42312 0.27676 0.21674 0.0
C1541 C 0.41015 0.27842 0.23056 0.0
C1542 C 0.46482 0.27833 0.17333 0.0
C1543 C 0.45744 0.2748 0.15528 0.0
C1544 C 0.45284 0.2819 0.18769 0.0
C1545 C 0.43323 0.28215 0.1843 0.0
C1546 C 0.42598 0.27896 0.16616 0.0
C1547 C 0.43789 0.27533 0.1519 0.0
H1548 H 0.53446 0.40816 0.07007 0.0
H1549 H 0.54491 0.37868 0.0198 0.0
H1550 H 0.5299 0.37889 0.08585 0.0
H1551 H 0.53974 0.34958 0.03533 0.0
H1552 H 0.55224 0.30199 0.07203 0.0
H1553 H 0.55621 0.33208 0.0584 0.0
H1554 H 0.50909 0.35083 0.08766 0.0
H1555 H 0.50519 0.32047 0.10166 0.0
C1556 C 0.53571 0.39546 0.06235 0.0
C1557 C 0.54016 0.39585 0.04364 0.0
C1558 C 0.53292 0.37867 0.07137 0.0
C1559 C 0.53462 0.36183 0.06195 0.0
C1560 C 0.53862 0.36225 0.04314 0.0
C1561 C 0.54135 0.37899 0.03413 0.0
C1562 C 0.54273 0.31249 0.07572 0.0
C1563 C 0.52826 0.30865 0.08788 0.0
C1564 C 0.54495 0.32978 0.06775 0.0
C1565 C 0.53277 0.34384 0.07161 0.0
C1566 C 0.51875 0.34033 0.08436 0.0
C1567 C 0.51651 0.32292 0.0924 0.0
H1568 H 0.61354 0.21612 0.22668 0.0
H1569 H 0.65184 0.24929 0.19508 0.0
H1570 H 0.58777 0.22266 0.20475 0.0
H1571 H 0.62619 0.25584 0.17327 0.0
H1572 H 0.58325 0.24279 0.12599 0.0
H1573 H 0.60762 0.23877 0.14972 0.0
H1574 H 0.56754 0.24627 0.19172 0.0
H1575 H 0.54279 0.25007 0.16774 0.0
C1576 C 0.61643 0.22504 0.21523 0.0
C1577 C 0.63486 0.23199 0.21256 0.0
C1578 C 0.60163 0.2288 0.20264 0.0
C1579 C 0.6049 0.2396 0.18708 0.0
C1580 C 0.6232 0.24711 0.18484 0.0
C1581 C 0.63794 0.24335 0.19737 0.0
C1582 C 0.57951 0.24365 0.14025 0.0
C1583 C 0.56094 0.24677 0.14486 0.0
C1584 C 0.59361 0.24147 0.15392 0.0
C1585 C 0.58964 0.24231 0.17269 0.0
C1586 C 0.57108 0.24542 0.1774 0.0
C1587 C 0.55691 0.2477 0.16365 0.0
H1588 H 0.45997 0.12256 0.05185 0.0
H1589 H 0.51457 0.12977 0.02881 0.0
H1590 H 0.46623 0.15031 0.07059 0.0
H1591 H 0.52094 0.15763 0.04773 0.0
H1592 H 0.51515 0.21773 0.06852 0.0
H1593 H 0.51169 0.18888 0.05094 0.0
H1594 H 0.48458 0.1629 0.09651 0.0
H1595 H 0.48766 0.19191 0.1139 0.0
C1596 C 0.47344 0.12993 0.05095 0.0
C1597 C 0.48679 0.12381 0.03884 0.0
C1598 C 0.47706 0.14589 0.06177 0.0
C1599 C 0.49416 0.15623 0.06085 0.0
C1600 C 0.50753 0.15015 0.0487 0.0
C1601 C 0.50388 0.13416 0.03782 0.0
C1602 C 0.50868 0.20581 0.0749 0.0
C1603 C 0.50162 0.20719 0.09263 0.0
C1604 C 0.50673 0.1892 0.06481 0.0
C1605 C 0.49769 0.17352 0.07217 0.0
C1606 C 0.49128 0.17475 0.0902 0.0
C1607 C 0.49319 0.19137 0.10027 0.0
H1608 H 0.28562 0.41975 0.70889 0.0
H1609 H 0.31646 0.38573 0.74667 0.0
H1610 H 0.30953 0.44472 0.71411 0.0
H1611 H 0.34003 0.41079 0.75223 0.0
H1612 H 0.38996 0.4488 0.73743 0.0
H1613 H 0.3646 0.42537 0.73421 0.0
H1614 H 0.32389 0.46729 0.73745 0.0
H1615 H 0.34946 0.49102 0.74056 0.0
C1616 C 0.29742 0.41763 0.7184 0.0
C1617 C 0.29912 0.40065 0.72728 0.0
C1618 C 0.31104 0.43202 0.72153 0.0
C1619 C 0.32679 0.42975 0.7335 0.0
C1620 C 0.32821 0.41295 0.74274 0.0
C1621 C 0.31456 0.39863 0.73971 0.0
C1622 C 0.37564 0.45314 0.73749 0.0
C1623 C 0.37184 0.4719 0.73925 0.0
C1624 C 0.36105 0.43961 0.73578 0.0
C1625 C 0.34217 0.44439 0.73568 0.0
C1626 C 0.33828 0.46314 0.73738 0.0
C1627 C 0.35294 0.47673 0.73924 0.0
H1628 H 0.32032 0.66055 0.77994 0.0
H1629 H 0.2758 0.61872 0.78439 0.0
H1630 H 0.34201 0.63703 0.77259 0.0
H1631 H 0.29756 0.59501 0.77637 0.0
H1632 H 0.34937 0.55708 0.77981 0.0
H1633 H 0.32606 0.57932 0.78797 0.0
H1634 H 0.34751 0.61659 0.74732 0.0
H1635 H 0.37069 0.59482 0.73949 0.0
C1636 C 0.31513 0.6463 0.7794 0.0
C1637 C 0.29626 0.64159 0.78284 0.0
C1638 C 0.32757 0.63277 0.77497 0.0
C1639 C 0.32157 0.61406 0.77377 0.0
C1640 C 0.30271 0.60926 0.77729 0.0
C1641 C 0.29018 0.62288 0.78168 0.0
C1642 C 0.34905 0.57002 0.77264 0.0
C1643 C 0.36207 0.57418 0.75911 0.0
C1644 C 0.33563 0.58273 0.77724 0.0
C1645 C 0.335 0.59989 0.76846 0.0
C1646 C 0.34778 0.60375 0.75468 0.0
C1647 C 0.36108 0.59114 0.75011 0.0
H1648 H 0.87574 0.48459 0.49663 0.0
H1649 H 0.89398 0.44428 0.45787 0.0
H1650 H 0.85075 0.46274 0.50575 0.0
H1651 H 0.86885 0.42285 0.46651 0.0
H1652 H 0.83805 0.3813 0.50097 0.0
H1653 H 0.86176 0.40444 0.49308 0.0
H1654 H 0.82072 0.44621 0.49432 0.0
H1655 H 0.7967 0.42286 0.50254 0.0
C1656 C 0.87442 0.47112 0.49003 0.0
C1657 C 0.88693 0.46624 0.4765 0.0
C1658 C 0.85997 0.45866 0.49513 0.0
C1659 C 0.85781 0.44098 0.48694 0.0
C1660 C 0.87021 0.43624 0.4733 0.0
C1661 C 0.88453 0.44865 0.46817 0.0
C1662 C 0.83394 0.39539 0.49963 0.0
C1663 C 0.8153 0.4001 0.5023 0.0
C1664 C 0.8476 0.40869 0.49498 0.0
C1665 C 0.84315 0.42718 0.49282 0.0
C1666 C 0.82466 0.43209 0.49593 0.0
C1667 C 0.81086 0.41869 0.50056 0.0
H1668 H 0.7554 0.8964 0.75071 0.0
H1669 H 0.72192 0.87223 0.79301 0.0
H1670 H 0.73364 0.92088 0.74722 0.0
H1671 H 0.69986 0.89699 0.78946 0.0
H1672 H 0.67859 0.95815 0.7892 0.0
H1673 H 0.69643 0.9304 0.794 0.0
H1674 H 0.70245 0.92543 0.73525 0.0
H1675 H 0.68526 0.95321 0.73063 0.0
C1676 C 0.74324 0.89616 0.75913 0.0
C1677 C 0.74033 0.88212 0.77195 0.0
C1678 C 0.73068 0.91025 0.75711 0.0
C1679 C 0.71472 0.9108 0.76781 0.0
C1680 C 0.71198 0.89702 0.78099 0.0
C1681 C 0.72464 0.88284 0.78303 0.0
C1682 C 0.68333 0.95081 0.77732 0.0
C1683 C 0.68067 0.95797 0.75956 0.0
C1684 C 0.69362 0.93494 0.78006 0.0
C1685 C 0.70134 0.9259 0.76505 0.0
C1686 C 0.69727 0.93231 0.7472 0.0
C1687 C 0.68723 0.94816 0.74452 0.0
H1688 H 0.6534 0.54206 0.008 0.0
H1689 H 0.63014 0.57972 0.96864 0.0
H1690 H 0.68024 0.56387 0.01446 0.0
H1691 H 0.65674 0.60131 0.97503 0.0
H1692 H 0.69206 0.64497 1.0069 0.0
H1693 H 0.66747 0.62143 1.00041 0.0
H1694 H 0.70859 0.57967 1.00171 0.0
H1695 H 0.73358 0.60349 0.00858 0.0
C1696 C 0.65408 0.55488 1.00059 0.0
C1697 C 0.63939 0.55924 0.98803 0.0
C1698 C 0.66949 0.56738 1.00428 0.0
C1699 C 0.67055 0.5845 0.99548 0.0
C1700 C 0.65619 0.58849 0.98244 0.0
C1701 C 0.64088 0.57608 0.97878 0.0
C1702 C 0.69603 0.63081 1.00583 0.0
C1703 C 0.71495 0.62624 0.00817 0.0
C1704 C 0.68183 0.61726 1.00197 0.0
C1705 C 0.686 0.59863 1.00027 0.0
C1706 C 0.70486 0.59388 1.00297 0.0
C1707 C 0.71919 0.60755 1.00684 0.0
H1708 H 0.24726 0.62936 0.21705 0.0
H1709 H 0.22875 0.65061 0.26866 0.0
H1710 H 0.22404 0.60367 0.21825 0.0
H1711 H 0.20606 0.62465 0.27019 0.0
H1712 H 0.15762 0.58269 0.26279 0.0
H1713 H 0.17725 0.61021 0.2568 0.0
H1714 H 0.21982 0.57604 0.23606 0.0
H1715 H 0.20015 0.54866 0.24177 0.0
C1716 C 0.23812 0.62867 0.22856 0.0
C1717 C 0.24 0.64203 0.24282 0.0
C1718 C 0.22493 0.61382 0.22935 0.0
C1719 C 0.21319 0.61198 0.24437 0.0
C1720 C 0.21469 0.62566 0.25832 0.0
C1721 C 0.2279 0.64046 0.25756 0.0
C1722 C 0.17103 0.58107 0.25666 0.0
C1723 C 0.17729 0.56343 0.25279 0.0
C1724 C 0.18237 0.59686 0.25336 0.0
C1725 C 0.20023 0.5954 0.24608 0.0
C1726 C 0.2061 0.57776 0.24149 0.0
C1727 C 0.19479 0.562 0.24482 0.0
H1728 H 0.903 0.56208 0.0178 0.0
H1729 H 0.87318 0.53499 0.06105 0.0
H1730 H 0.87658 0.58196 0.0123 0.0
H1731 H 0.84701 0.55487 0.05567 0.0
H1732 H 0.8204 0.61099 0.06033 0.0
H1733 H 0.84387 0.58791 0.06184 0.0
H1734 H 0.84196 0.58373 1.00244 0.0
H1735 H 0.81813 0.60718 1.00089 0.0
C1736 C 0.89071 0.56012 0.02592 0.0
C1737 C 0.89041 0.5471 0.0401 0.0
C1738 C 0.87555 0.57152 0.02275 0.0
C1739 C 0.85977 0.5702 0.03372 0.0
C1740 C 0.8591 0.55654 0.04722 0.0
C1741 C 0.87416 0.54516 0.05034 0.0
C1742 C 0.82482 0.60512 0.04753 0.0
C1743 C 0.81735 0.61099 0.03047 0.0
C1744 C 0.83824 0.59175 0.04842 0.0
C1745 C 0.84478 0.58387 0.03228 0.0
C1746 C 0.83726 0.58958 0.01514 0.0
C1747 C 0.82354 0.60291 0.01424 0.0
H1748 H 0.15342 0.98556 0.04381 0.0
H1749 H 0.11709 0.95695 1.00257 0.0
H1750 H 0.17863 0.96524 0.03698 0.0
H1751 H 0.14225 0.93674 0.99568 0.0
H1752 H 0.18092 0.88923 0.00762 0.0
H1753 H 0.15737 0.91194 0.0108 0.0
H1754 H 0.20098 0.95527 0.01464 0.0
H1755 H 0.22481 0.93227 0.01175 0.0
C1756 C 0.15089 0.97515 0.03307 0.0
C1757 C 0.1331 0.9728 0.0239 0.0
C1758 C 0.16539 0.96349 0.02913 0.0
C1759 C 0.16248 0.94918 0.0159 0.0
C1760 C 0.14492 0.94732 1.00624 0.0
C1761 C 0.13045 0.95893 0.01019 0.0
C1762 C 0.18557 0.9036 0.00897 0.0
C1763 C 0.20482 0.90887 0.00946 0.0
C1764 C 0.17198 0.9167 0.01068 0.0
C1765 C 0.17719 0.93552 0.01297 0.0
C1766 C 0.19645 0.94089 0.01309 0.0
C1767 C 0.21011 0.92772 0.01128 0.0
loop_
_geom_bond_atom_site_label_1
_geom_bond_atom_site_label_2
_geom_bond_distance
_geom_bond_site_symmetry_2
_ccdc_geom_bond_type
C0 C1 1.264 . S
C0 C5 1.479 . S
C0 C10 1.465 1_655 S
C1 C0 1.264 . S
C1 C3 1.339 . S
C1 H28 0.931 1_655 S
C2 C3 1.395 . S
C2 C4 1.320 . S
C3 C1 1.339 . S
C3 C2 1.395 . S
C3 H29 0.915 1_545 S
C4 C2 1.320 . S
C4 C5 1.405 . S
C4 H30 0.930 . S
C5 C0 1.479 . S
C5 C4 1.405 . S
C5 H31 0.931 . S
U6 O7 2.454 . S
U6 O8 2.429 1_554 S
U6 C9 2.995 . S
U6 C10 2.847 . S
U6 C23 2.882 . S
U6 O24 2.441 . S
U6 O25 2.420 . S
U6 O26 2.455 . S
U6 O27 2.449 . S
O7 U6 2.454 . S
O7 C9 1.369 . S
O8 U6 2.429 1_556 S
O8 C9 1.283 1_556 S
C9 U6 2.995 . S
C9 O7 1.369 . S
C9 O8 1.283 1_554 S
C9 C11 1.352 1_554 S
C10 C0 1.465 1_455 S
C10 U6 2.847 . S
C10 O24 1.249 . S
C10 O25 1.202 . S
C11 C9 1.352 1_556 S
C11 C13 1.408 . S
C11 C16 1.342 . S
C12 C13 1.310 . S
C12 C15 1.461 . S
C12 H32 0.932 . S
C13 C11 1.408 . S
C13 C12 1.310 . S
C13 H33 0.930 1_556 S
C14 C15 1.474 . S
C14 C16 1.285 . S
C14 H34 0.929 . S
C15 C12 1.461 . S
C15 C14 1.474 . S
C16 C11 1.342 . S
C16 C14 1.285 . S
C16 H35 0.930 . S
C17 C20 1.424 . S
C17 C22 1.251 . S
C17 C23 1.428 1_565 S
C18 C21 1.260 . S
C18 C22 1.501 . S
C18 H36 0.932 1_554 S
C19 C20 1.384 . S
C19 C21 1.479 . S
C19 H37 0.929 . S
C20 C17 1.424 . S
C20 C19 1.384 . S
C20 H38 0.928 . S
C21 C18 1.260 . S
C21 C19 1.479 . S
C22 C17 1.251 . S
C22 C18 1.501 . S
C22 H39 0.905 1_564 S
C23 U6 2.882 . S
C23 C17 1.428 1_545 S
C23 O26 1.301 . S
C23 O27 1.282 . S
O24 U6 2.441 . S
O24 C10 1.249 . S
O25 U6 2.420 . S
O25 C10 1.202 . S
O26 U6 2.455 . S
O26 C23 1.301 . S
O27 U6 2.449 . S
O27 C23 1.282 . S
H28 C1 0.931 1_455 S
H29 C3 0.915 1_565 S
H30 C4 0.930 . S
H31 C5 0.931 . S
H32 C12 0.932 . S
H33 C13 0.930 1_554 S
H34 C14 0.929 . S
H35 C16 0.930 . S
H36 C18 0.932 1_556 S
H37 C19 0.929 . S
H38 C20 0.928 . S
H39 C22 0.905 1_546 S
C40 C41 1.264 . S
C40 C45 1.479 . S
C40 C50 1.465 . S
C41 C40 1.264 . S
C41 C43 1.339 . S
C41 H68 0.931 . S
C42 C43 1.395 . S
C42 C44 1.320 . S
C43 C41 1.339 . S
C43 C42 1.395 . S
C43 H69 0.929 . S
C44 C42 1.320 . S
C44 C45 1.405 . S
C44 H70 0.930 . S
C45 C40 1.479 . S
C45 C44 1.405 . S
C45 H71 0.931 . S
U46 O47 2.454 . S
U46 O48 2.458 . S
U46 C49 2.984 . S
U46 C50 2.847 . S
U46 C63 2.882 . S
U46 O64 2.441 . S
U46 O65 2.420 . S
U46 O66 2.455 . S
U46 O67 2.449 . S
O47 U46 2.454 . S
O47 C49 1.353 . S
O48 U46 2.458 . S
O48 C49 1.286 . S
C49 U46 2.984 . S
C49 O47 1.353 . S
C49 O48 1.286 . S
C49 C51 1.363 . S
C50 C40 1.465 . S
C50 U46 2.847 . S
C50 O64 1.249 . S
C50 O65 1.202 . S
C51 C49 1.363 . S
C51 C53 1.408 . S
C51 C56 1.342 . S
C52 C53 1.310 . S
C52 C55 1.461 . S
C52 H72 0.932 . S
C53 C51 1.408 . S
C53 C52 1.310 . S
C53 H73 0.930 . S
C54 C55 1.474 . S
C54 C56 1.285 . S
C54 H74 0.929 . S
C55 C52 1.461 . S
C55 C54 1.474 . S
C56 C51 1.342 . S
C56 C54 1.285 . S
C56 H75 0.930 . S
C57 C60 1.424 . S
C57 C62 1.245 . S
C57 C63 1.428 . S
C58 C61 1.260 . S
C58 C62 1.477 . S
C58 H76 0.932 . S
C59 C60 1.384 . S
C59 C61 1.479 . S
C59 H77 0.929 . S
C60 C57 1.424 . S
C60 C59 1.384 . S
C60 H78 0.928 . S
C61 C58 1.260 . S
C61 C59 1.479 . S
C62 C57 1.245 . S
C62 C58 1.477 . S
C62 H79 0.932 . S
C63 U46 2.882 . S
C63 C57 1.428 . S
C63 O66 1.301 . S
C63 O67 1.282 . S
O64 U46 2.441 . S
O64 C50 1.249 . S
O65 U46 2.420 . S
O65 C50 1.202 . S
O66 U46 2.455 . S
O66 C63 1.301 . S
O67 U46 2.449 . S
O67 C63 1.282 . S
H68 C41 0.931 . S
H69 C43 0.929 . S
H70 C44 0.930 . S
H71 C45 0.931 . S
H72 C52 0.932 . S
H73 C53 0.930 . S
H74 C54 0.929 . S
H75 C56 0.930 . S
H76 C58 0.932 . S
H77 C59 0.929 . S
H78 C60 0.928 . S
H79 C62 0.932 . S
C80 C81 1.264 1_655 S
C80 C85 1.479 1_554 S
C80 C90 1.465 . S
C81 C80 1.264 1_455 S
C81 C83 1.339 1_554 S
C81 H108 0.931 . S
C82 C83 1.395 1_655 S
C82 C84 1.320 . S
C83 C81 1.339 1_556 S
C83 C82 1.395 1_455 S
C83 H109 0.930 1_556 S
C84 C82 1.320 . S
C84 C85 1.405 . S
C84 H110 0.930 . S
C85 C80 1.479 1_556 S
C85 C84 1.405 . S
C85 H111 0.931 . S
U86 O87 2.454 . S
U86 O88 2.458 . S
U86 C89 2.984 . S
U86 C90 2.847 . S
U86 C103 2.882 1_655 S
U86 O104 2.441 . S
U86 O105 2.392 1_655 S
U86 O106 2.455 . S
U86 O107 2.449 1_655 S
O87 U86 2.454 . S
O87 C89 1.353 . S
O88 U86 2.458 . S
O88 C89 1.286 . S
C89 U86 2.984 . S
C89 O87 1.353 . S
C89 O88 1.286 . S
C89 C91 1.363 . S
C90 C80 1.465 . S
C90 U86 2.847 . S
C90 O104 1.249 . S
C90 O105 1.171 1_655 S
C91 C89 1.363 . S
C91 C93 1.408 . S
C91 C96 1.342 . S
C92 C93 1.310 . S
C92 C95 1.461 . S
C92 H112 0.932 . S
C93 C91 1.408 . S
C93 C92 1.310 . S
C93 H113 0.930 . S
C94 C95 1.474 . S
C94 C96 1.285 . S
C94 H114 0.929 . S
C95 C92 1.461 . S
C95 C94 1.474 . S
C96 C91 1.342 . S
C96 C94 1.285 . S
C96 H115 0.930 . S
C97 C100 1.424 . S
C97 C102 1.245 . S
C97 C103 1.428 . S
C98 C101 1.260 . S
C98 C102 1.477 . S
C98 H116 0.932 . S
C99 C100 1.384 . S
C99 C101 1.479 . S
C99 H117 0.929 . S
C100 C97 1.424 . S
C100 C99 1.384 . S
C100 H118 0.928 . S
C101 C98 1.260 . S
C101 C99 1.479 . S
C102 C97 1.245 . S
C102 C98 1.477 . S
C102 H119 0.932 . S
C103 U86 2.882 1_455 S
C103 C97 1.428 . S
C103 O106 1.301 1_455 S
C103 O107 1.282 . S
O104 U86 2.441 . S
O104 C90 1.249 . S
O105 U86 2.392 1_455 S
O105 C90 1.171 1_455 S
O106 U86 2.455 . S
O106 C103 1.301 1_655 S
O107 U86 2.449 1_455 S
O107 C103 1.282 . S
H108 C81 0.931 . S
H109 C83 0.930 1_554 S
H110 C84 0.930 . S
H111 C85 0.931 . S
H112 C92 0.932 . S
H113 C93 0.930 . S
H114 C94 0.929 . S
H115 C96 0.930 . S
H116 C98 0.932 . S
H117 C99 0.929 . S
H118 C100 0.928 . S
H119 C102 0.932 . S
C120 C121 1.264 . S
C120 C125 1.479 . S
C120 C130 1.465 . S
C121 C120 1.264 . S
C121 C123 1.339 . S
C121 H148 0.931 . S
C122 C123 1.395 . S
C122 C124 1.320 . S
C123 C121 1.339 . S
C123 C122 1.395 . S
C123 H149 0.929 . S
C124 C122 1.320 . S
C124 C125 1.405 . S
C124 H150 0.930 . S
C125 C120 1.479 . S
C125 C124 1.405 . S
C125 H151 0.931 . S
U126 O127 2.454 . S
U126 O128 2.458 . S
U126 C129 2.984 . S
U126 C130 2.847 . S
U126 C143 2.882 . S
U126 O144 2.441 . S
U126 O145 2.420 . S
U126 O146 2.455 . S
U126 O147 2.449 . S
O127 U126 2.454 . S
O127 C129 1.353 . S
O128 U126 2.458 . S
O128 C129 1.286 . S
C129 U126 2.984 . S
C129 O127 1.353 . S
C129 O128 1.286 . S
C129 C131 1.363 . S
C130 C120 1.465 . S
C130 U126 2.847 . S
C130 O144 1.249 . S
C130 O145 1.202 . S
C131 C129 1.363 . S
C131 C133 1.408 . S
C131 C136 1.342 . S
C132 C133 1.310 . S
C132 C135 1.461 . S
C132 H152 0.932 . S
C133 C131 1.408 . S
C133 C132 1.310 . S
C133 H153 0.930 . S
C134 C135 1.474 . S
C134 C136 1.285 . S
C134 H154 0.929 . S
C135 C132 1.461 . S
C135 C134 1.474 . S
C136 C131 1.342 . S
C136 C134 1.285 . S
C136 H155 0.930 . S
C137 C140 1.424 . S
C137 C142 1.245 . S
C137 C143 1.428 . S
C138 C141 1.260 . S
C138 C142 1.477 . S
C138 H156 0.932 . S
C139 C140 1.384 . S
C139 C141 1.479 . S
C139 H157 0.929 . S
C140 C137 1.424 . S
C140 C139 1.384 . S
C140 H158 0.928 . S
C141 C138 1.260 . S
C141 C139 1.479 . S
C142 C137 1.245 . S
C142 C138 1.477 . S
C142 H159 0.932 . S
C143 U126 2.882 . S
C143 C137 1.428 . S
C143 O146 1.301 . S
C143 O147 1.282 . S
O144 U126 2.441 . S
O144 C130 1.249 . S
O145 U126 2.420 . S
O145 C130 1.202 . S
O146 U126 2.455 . S
O146 C143 1.301 . S
O147 U126 2.449 . S
O147 C143 1.282 . S
H148 C121 0.931 . S
H149 C123 0.929 . S
H150 C124 0.930 . S
H151 C125 0.931 . S
H152 C132 0.932 . S
H153 C133 0.930 . S
H154 C134 0.929 . S
H155 C136 0.930 . S
H156 C138 0.932 . S
H157 C139 0.929 . S
H158 C140 0.928 . S
H159 C142 0.932 . S
C160 C161 1.251 1_565 S
C160 C165 1.479 1_455 S
C160 C170 1.465 . S
C161 C160 1.251 1_545 S
C161 C163 1.341 . S
C161 H188 0.942 . S
C162 C163 1.395 1_665 S
C162 C164 1.320 . S
C163 C161 1.341 . S
C163 C162 1.395 1_445 S
C163 H189 0.929 . S
C164 C162 1.320 . S
C164 C165 1.405 . S
C164 H190 0.930 . S
C165 C160 1.479 1_655 S
C165 C164 1.405 . S
C165 H191 0.931 . S
U166 O167 2.454 . S
U166 O168 2.458 . S
U166 C169 2.984 . S
U166 C170 2.847 . S
U166 C183 2.882 1_565 S
U166 O184 2.441 . S
U166 O185 2.420 . S
U166 O186 2.455 . S
U166 O187 2.449 1_565 S
O167 U166 2.454 . S
O167 C169 1.353 . S
O168 U166 2.458 . S
O168 C169 1.286 . S
C169 U166 2.984 . S
C169 O167 1.353 . S
C169 O168 1.286 . S
C169 C171 1.363 . S
C170 C160 1.465 . S
C170 U166 2.847 . S
C170 O184 1.249 . S
C170 O185 1.202 . S
C171 C169 1.363 . S
C171 C173 1.408 . S
C171 C176 1.342 . S
C172 C173 1.310 . S
C172 C175 1.461 . S
C172 H192 0.932 . S
C173 C171 1.408 . S
C173 C172 1.310 . S
C173 H193 0.930 . S
C174 C175 1.474 . S
C174 C176 1.285 . S
C174 H194 0.929 . S
C175 C172 1.461 . S
C175 C174 1.474 . S
C176 C171 1.342 . S
C176 C174 1.285 . S
C176 H195 0.930 . S
C177 C180 1.424 . S
C177 C182 1.245 . S
C177 C183 1.428 . S
C178 C181 1.260 . S
C178 C182 1.477 . S
C178 H196 0.932 . S
C179 C180 1.384 . S
C179 C181 1.479 . S
C179 H197 0.929 . S
C180 C177 1.424 . S
C180 C179 1.384 . S
C180 H198 0.928 . S
C181 C178 1.260 . S
C181 C179 1.479 . S
C182 C177 1.245 . S
C182 C178 1.477 . S
C182 H199 0.932 1_545 S
C183 U166 2.882 1_545 S
C183 C177 1.428 . S
C183 O186 1.301 1_545 S
C183 O187 1.282 . S
O184 U166 2.441 . S
O184 C170 1.249 . S
O185 U166 2.420 . S
O185 C170 1.202 . S
O186 U166 2.455 . S
O186 C183 1.301 1_565 S
O187 U166 2.449 1_545 S
O187 C183 1.282 . S
H188 C161 0.942 . S
H189 C163 0.929 . S
H190 C164 0.930 . S
H191 C165 0.931 . S
H192 C172 0.932 . S
H193 C173 0.930 . S
H194 C174 0.929 . S
H195 C176 0.930 . S
H196 C178 0.932 . S
H197 C179 0.929 . S
H198 C180 0.928 . S
H199 C182 0.932 1_565 S
C200 C201 1.264 . S
C200 C205 1.479 . S
C200 C210 1.465 . S
C201 C200 1.264 . S
C201 C203 1.339 . S
C201 H228 0.931 . S
C202 C203 1.395 . S
C202 C204 1.320 . S
C203 C201 1.339 . S
C203 C202 1.395 . S
C203 H229 0.929 . S
C204 C202 1.320 . S
C204 C205 1.405 . S
C204 H230 0.930 . S
C205 C200 1.479 . S
C205 C204 1.405 . S
C205 H231 0.931 . S
U206 O207 2.454 . S
U206 O208 2.458 . S
U206 C209 2.984 . S
U206 C210 2.847 . S
U206 C223 2.882 . S
U206 O224 2.441 . S
U206 O225 2.420 . S
U206 O226 2.455 . S
U206 O227 2.449 . S
O207 U206 2.454 . S
O207 C209 1.353 . S
O208 U206 2.458 . S
O208 C209 1.286 . S
C209 U206 2.984 . S
C209 O207 1.353 . S
C209 O208 1.286 . S
C209 C211 1.363 . S
C210 C200 1.465 . S
C210 U206 2.847 . S
C210 O224 1.249 . S
C210 O225 1.202 . S
C211 C209 1.363 . S
C211 C213 1.408 . S
C211 C216 1.342 . S
C212 C213 1.310 . S
C212 C215 1.461 . S
C212 H232 0.932 . S
C213 C211 1.408 . S
C213 C212 1.310 . S
C213 H233 0.930 . S
C214 C215 1.474 . S
C214 C216 1.285 . S
C214 H234 0.929 . S
C215 C212 1.461 . S
C215 C214 1.474 . S
C216 C211 1.342 . S
C216 C214 1.285 . S
C216 H235 0.930 . S
C217 C220 1.424 . S
C217 C222 1.245 . S
C217 C223 1.428 . S
C218 C221 1.260 . S
C218 C222 1.477 . S
C218 H236 0.932 . S
C219 C220 1.384 . S
C219 C221 1.479 . S
C219 H237 0.929 . S
C220 C217 1.424 . S
C220 C219 1.384 . S
C220 H238 0.928 . S
C221 C218 1.260 . S
C221 C219 1.479 . S
C222 C217 1.245 . S
C222 C218 1.477 . S
C222 H239 0.932 . S
C223 U206 2.882 . S
C223 C217 1.428 . S
C223 O226 1.301 . S
C223 O227 1.282 . S
O224 U206 2.441 . S
O224 C210 1.249 . S
O225 U206 2.420 . S
O225 C210 1.202 . S
O226 U206 2.455 . S
O226 C223 1.301 . S
O227 U206 2.449 . S
O227 C223 1.282 . S
H228 C201 0.931 . S
H229 C203 0.929 . S
H230 C204 0.930 . S
H231 C205 0.931 . S
H232 C212 0.932 . S
H233 C213 0.930 . S
H234 C214 0.929 . S
H235 C216 0.930 . S
H236 C218 0.932 . S
H237 C219 0.929 . S
H238 C220 0.928 . S
H239 C222 0.932 . S
C240 C241 1.264 . S
C240 C245 1.479 . S
C240 C250 1.465 . S
C241 C240 1.264 . S
C241 C243 1.339 . S
C241 H268 0.931 1_655 S
C242 C243 1.395 . S
C242 C244 1.320 . S
C243 C241 1.339 . S
C243 C242 1.395 . S
C243 H269 0.929 1_655 S
C244 C242 1.320 . S
C244 C245 1.405 . S
C244 H270 0.930 . S
C245 C240 1.479 . S
C245 C244 1.405 . S
C245 H271 0.931 . S
U246 O247 2.454 . S
U246 O248 2.458 . S
U246 C249 2.984 . S
U246 C250 2.847 . S
U246 C263 2.882 . S
U246 O264 2.441 . S
U246 O265 2.420 . S
U246 O266 2.455 . S
U246 O267 2.449 1_655 S
O247 U246 2.454 . S
O247 C249 1.353 . S
O248 U246 2.458 . S
O248 C249 1.286 . S
C249 U246 2.984 . S
C249 O247 1.353 . S
C249 O248 1.286 . S
C249 C251 1.363 . S
C250 C240 1.465 . S
C250 U246 2.847 . S
C250 O264 1.249 . S
C250 O265 1.202 . S
C251 C249 1.363 . S
C251 C253 1.408 . S
C251 C256 1.342 . S
C252 C253 1.310 . S
C252 C255 1.461 . S
C252 H272 0.932 . S
C253 C251 1.408 . S
C253 C252 1.310 . S
C253 H273 0.930 . S
C254 C255 1.474 . S
C254 C256 1.285 . S
C254 H274 0.929 . S
C255 C252 1.461 . S
C255 C254 1.474 . S
C256 C251 1.342 . S
C256 C254 1.285 . S
C256 H275 0.930 . S
C257 C260 1.424 . S
C257 C262 1.245 . S
C257 C263 1.428 1_455 S
C258 C261 1.260 . S
C258 C262 1.477 . S
C258 H276 0.932 . S
C259 C260 1.384 . S
C259 C261 1.479 . S
C259 H277 0.929 . S
C260 C257 1.424 . S
C260 C259 1.384 . S
C260 H278 0.928 . S
C261 C258 1.260 . S
C261 C259 1.479 . S
C262 C257 1.245 . S
C262 C258 1.477 . S
C262 H279 0.932 1_455 S
C263 U246 2.882 . S
C263 C257 1.428 1_655 S
C263 O266 1.301 . S
C263 O267 1.282 1_655 S
O264 U246 2.441 . S
O264 C250 1.249 . S
O265 U246 2.420 . S
O265 C250 1.202 . S
O266 U246 2.455 . S
O266 C263 1.301 . S
O267 U246 2.449 1_455 S
O267 C263 1.282 1_455 S
H268 C241 0.931 1_455 S
H269 C243 0.929 1_455 S
H270 C244 0.930 . S
H271 C245 0.931 . S
H272 C252 0.932 . S
H273 C253 0.930 . S
H274 C254 0.929 . S
H275 C256 0.930 . S
H276 C258 0.932 . S
H277 C259 0.929 . S
H278 C260 0.928 . S
H279 C262 0.932 1_655 S
C280 C281 1.264 . S
C280 C285 1.479 . S
C280 C290 1.465 . S
C281 C280 1.264 . S
C281 C283 1.339 . S
C281 H308 0.931 . S
C282 C283 1.395 . S
C282 C284 1.320 . S
C283 C281 1.339 . S
C283 C282 1.395 . S
C283 H309 0.929 . S
C284 C282 1.320 . S
C284 C285 1.405 . S
C284 H310 0.930 . S
C285 C280 1.479 . S
C285 C284 1.405 . S
C285 H311 0.931 . S
U286 O287 2.454 . S
U286 O288 2.458 . S
U286 C289 2.984 . S
U286 C290 2.847 . S
U286 C303 2.882 . S
U286 O304 2.441 . S
U286 O305 2.420 . S
U286 O306 2.455 . S
U286 O307 2.449 . S
O287 U286 2.454 . S
O287 C289 1.353 . S
O288 U286 2.458 . S
O288 C289 1.286 . S
C289 U286 2.984 . S
C289 O287 1.353 . S
C289 O288 1.286 . S
C289 C291 1.363 . S
C290 C280 1.465 . S
C290 U286 2.847 . S
C290 O304 1.249 . S
C290 O305 1.202 . S
C291 C289 1.363 . S
C291 C293 1.408 . S
C291 C296 1.342 . S
C292 C293 1.310 . S
C292 C295 1.461 . S
C292 H312 0.932 . S
C293 C291 1.408 . S
C293 C292 1.310 . S
C293 H313 0.930 . S
C294 C295 1.474 . S
C294 C296 1.285 . S
C294 H314 0.929 . S
C295 C292 1.461 . S
C295 C294 1.474 . S
C296 C291 1.342 . S
C296 C294 1.285 . S
C296 H315 0.930 . S
C297 C300 1.424 . S
C297 C302 1.245 . S
C297 C303 1.428 . S
C298 C301 1.260 . S
C298 C302 1.477 . S
C298 H316 0.932 . S
C299 C300 1.384 . S
C299 C301 1.479 . S
C299 H317 0.929 . S
C300 C297 1.424 . S
C300 C299 1.384 . S
C300 H318 0.928 . S
C301 C298 1.260 . S
C301 C299 1.479 . S
C302 C297 1.245 . S
C302 C298 1.477 . S
C302 H319 0.932 . S
C303 U286 2.882 . S
C303 C297 1.428 . S
C303 O306 1.301 . S
C303 O307 1.282 . S
O304 U286 2.441 . S
O304 C290 1.249 . S
O305 U286 2.420 . S
O305 C290 1.202 . S
O306 U286 2.455 . S
O306 C303 1.301 . S
O307 U286 2.449 . S
O307 C303 1.282 . S
H308 C281 0.931 . S
H309 C283 0.929 . S
H310 C284 0.930 . S
H311 C285 0.931 . S
H312 C292 0.932 . S
H313 C293 0.930 . S
H314 C294 0.929 . S
H315 C296 0.930 . S
H316 C298 0.932 . S
H317 C299 0.929 . S
H318 C300 0.928 . S
H319 C302 0.932 . S
C320 C321 1.264 . S
C320 C325 1.479 . S
C320 C330 1.465 . S
C321 C320 1.264 . S
C321 C323 1.339 . S
C321 H348 0.931 . S
C322 C323 1.395 . S
C322 C324 1.320 . S
C323 C321 1.339 . S
C323 C322 1.395 . S
C323 H349 0.929 . S
C324 C322 1.320 . S
C324 C325 1.405 . S
C324 H350 0.930 . S
C325 C320 1.479 . S
C325 C324 1.405 . S
C325 H351 0.931 . S
U326 O327 2.454 . S
U326 O328 2.458 . S
U326 C329 2.984 . S
U326 C330 2.847 . S
U326 C343 2.882 . S
U326 O344 2.441 . S
U326 O345 2.420 . S
U326 O346 2.455 . S
U326 O347 2.449 . S
O327 U326 2.454 . S
O327 C329 1.353 . S
O328 U326 2.458 . S
O328 C329 1.286 . S
C329 U326 2.984 . S
C329 O327 1.353 . S
C329 O328 1.286 . S
C329 C331 1.363 . S
C330 C320 1.465 . S
C330 U326 2.847 . S
C330 O344 1.249 . S
C330 O345 1.202 . S
C331 C329 1.363 . S
C331 C333 1.408 . S
C331 C336 1.342 . S
C332 C333 1.310 . S
C332 C335 1.461 . S
C332 H352 0.932 . S
C333 C331 1.408 . S
C333 C332 1.310 . S
C333 H353 0.930 . S
C334 C335 1.474 . S
C334 C336 1.285 . S
C334 H354 0.929 . S
C335 C332 1.461 . S
C335 C334 1.474 . S
C336 C331 1.342 . S
C336 C334 1.285 . S
C336 H355 0.930 . S
C337 C340 1.424 . S
C337 C342 1.245 . S
C337 C343 1.428 . S
C338 C341 1.260 . S
C338 C342 1.477 . S
C338 H356 0.932 . S
C339 C340 1.384 . S
C339 C341 1.479 . S
C339 H357 0.929 . S
C340 C337 1.424 . S
C340 C339 1.384 . S
C340 H358 0.928 . S
C341 C338 1.260 . S
C341 C339 1.479 . S
C342 C337 1.245 . S
C342 C338 1.477 . S
C342 H359 0.932 . S
C343 U326 2.882 . S
C343 C337 1.428 . S
C343 O346 1.301 . S
C343 O347 1.282 . S
O344 U326 2.441 . S
O344 C330 1.249 . S
O345 U326 2.420 . S
O345 C330 1.202 . S
O346 U326 2.455 . S
O346 C343 1.301 . S
O347 U326 2.449 . S
O347 C343 1.282 . S
H348 C321 0.931 . S
H349 C323 0.929 . S
H350 C324 0.930 . S
H351 C325 0.931 . S
H352 C332 0.932 . S
H353 C333 0.930 . S
H354 C334 0.929 . S
H355 C336 0.930 . S
H356 C338 0.932 . S
H357 C339 0.929 . S
H358 C340 0.928 . S
H359 C342 0.932 . S
C360 C361 1.264 . S
C360 C365 1.479 . S
C360 C370 1.465 . S
C361 C360 1.264 . S
C361 C363 1.339 . S
C361 H388 0.931 . S
C362 C363 1.395 . S
C362 C364 1.320 . S
C363 C361 1.339 . S
C363 C362 1.395 . S
C363 H389 0.929 . S
C364 C362 1.320 . S
C364 C365 1.405 . S
C364 H390 0.930 . S
C365 C360 1.479 . S
C365 C364 1.405 . S
C365 H391 0.931 . S
U366 O367 2.454 . S
U366 O368 2.458 . S
U366 C369 2.984 . S
U366 C370 2.847 . S
U366 C383 2.882 . S
U366 O384 2.441 . S
U366 O385 2.420 . S
U366 O386 2.455 . S
U366 O387 2.449 . S
O367 U366 2.454 . S
O367 C369 1.353 . S
O368 U366 2.458 . S
O368 C369 1.286 . S
C369 U366 2.984 . S
C369 O367 1.353 . S
C369 O368 1.286 . S
C369 C371 1.363 1_565 S
C370 C360 1.465 . S
C370 U366 2.847 . S
C370 O384 1.249 . S
C370 O385 1.202 . S
C371 C369 1.363 1_545 S
C371 C373 1.408 . S
C371 C376 1.342 . S
C372 C373 1.310 . S
C372 C375 1.461 . S
C372 H392 0.932 . S
C373 C371 1.408 . S
C373 C372 1.310 . S
C373 H393 0.930 1_545 S
C374 C375 1.474 . S
C374 C376 1.285 . S
C374 H394 0.929 . S
C375 C372 1.461 . S
C375 C374 1.474 . S
C376 C371 1.342 . S
C376 C374 1.285 . S
C376 H395 0.930 . S
C377 C380 1.424 . S
C377 C382 1.245 . S
C377 C383 1.428 . S
C378 C381 1.260 . S
C378 C382 1.477 . S
C378 H396 0.932 1_565 S
C379 C380 1.384 . S
C379 C381 1.479 . S
C379 H397 0.929 . S
C380 C377 1.424 . S
C380 C379 1.384 . S
C380 H398 0.928 . S
C381 C378 1.260 . S
C381 C379 1.479 . S
C382 C377 1.245 . S
C382 C378 1.477 . S
C382 H399 0.939 . S
C383 U366 2.882 . S
C383 C377 1.428 . S
C383 O386 1.301 . S
C383 O387 1.282 . S
O384 U366 2.441 . S
O384 C370 1.249 . S
O385 U366 2.420 . S
O385 C370 1.202 . S
O386 U366 2.455 . S
O386 C383 1.301 . S
O387 U366 2.449 . S
O387 C383 1.282 . S
H388 C361 0.931 . S
H389 C363 0.929 . S
H390 C364 0.930 . S
H391 C365 0.931 . S
H392 C372 0.932 . S
H393 C373 0.930 1_565 S
H394 C374 0.929 . S
H395 C376 0.930 . S
H396 C378 0.932 1_545 S
H397 C379 0.929 . S
H398 C380 0.928 . S
H399 C382 0.939 . S
C400 C401 1.264 . S
C400 C405 1.479 . S
C400 C410 1.465 . S
C401 C400 1.264 . S
C401 C403 1.339 . S
C401 H428 0.931 . S
C402 C403 1.395 . S
C402 C404 1.320 . S
C403 C401 1.339 . S
C403 C402 1.395 . S
C403 H429 0.929 . S
C404 C402 1.320 . S
C404 C405 1.405 . S
C404 H430 0.930 . S
C405 C400 1.479 . S
C405 C404 1.405 . S
C405 H431 0.931 . S
U406 O407 2.454 . S
U406 O408 2.458 . S
U406 C409 2.984 . S
U406 C410 2.847 . S
U406 C423 2.882 . S
U406 O424 2.441 . S
U406 O425 2.420 . S
U406 O426 2.455 . S
U406 O427 2.449 . S
O407 U406 2.454 . S
O407 C409 1.353 . S
O408 U406 2.458 . S
O408 C409 1.286 . S
C409 U406 2.984 . S
C409 O407 1.353 . S
C409 O408 1.286 . S
C409 C411 1.363 . S
C410 C400 1.465 . S
C410 U406 2.847 . S
C410 O424 1.249 . S
C410 O425 1.202 . S
C411 C409 1.363 . S
C411 C413 1.408 . S
C411 C416 1.342 . S
C412 C413 1.310 . S
C412 C415 1.461 . S
C412 H432 0.932 . S
C413 C411 1.408 . S
C413 C412 1.310 . S
C413 H433 0.930 . S
C414 C415 1.474 . S
C414 C416 1.285 . S
C414 H434 0.929 . S
C415 C412 1.461 . S
C415 C414 1.474 . S
C416 C411 1.342 . S
C416 C414 1.285 . S
C416 H435 0.930 . S
C417 C420 1.424 . S
C417 C422 1.245 . S
C417 C423 1.428 . S
C418 C421 1.260 . S
C418 C422 1.477 . S
C418 H436 0.932 . S
C419 C420 1.384 . S
C419 C421 1.479 . S
C419 H437 0.929 . S
C420 C417 1.424 . S
C420 C419 1.384 . S
C420 H438 0.928 . S
C421 C418 1.260 . S
C421 C419 1.479 . S
C422 C417 1.245 . S
C422 C418 1.477 . S
C422 H439 0.932 . S
C423 U406 2.882 . S
C423 C417 1.428 . S
C423 O426 1.301 . S
C423 O427 1.282 . S
O424 U406 2.441 . S
O424 C410 1.249 . S
O425 U406 2.420 . S
O425 C410 1.202 . S
O426 U406 2.455 . S
O426 C423 1.301 . S
O427 U406 2.449 . S
O427 C423 1.282 . S
H428 C401 0.931 . S
H429 C403 0.929 . S
H430 C404 0.930 . S
H431 C405 0.931 . S
H432 C412 0.932 . S
H433 C413 0.930 . S
H434 C414 0.929 . S
H435 C416 0.930 . S
H436 C418 0.932 . S
H437 C419 0.929 . S
H438 C420 0.928 . S
H439 C422 0.932 . S
C440 C441 1.264 . S
C440 C445 1.479 . S
C440 C450 1.465 . S
C441 C440 1.264 . S
C441 C443 1.339 . S
C441 H468 0.931 . S
C442 C443 1.395 . S
C442 C444 1.320 . S
C443 C441 1.339 . S
C443 C442 1.395 . S
C443 H469 0.929 . S
C444 C442 1.320 . S
C444 C445 1.405 . S
C444 H470 0.930 . S
C445 C440 1.479 . S
C445 C444 1.405 . S
C445 H471 0.931 . S
U446 O447 2.454 . S
U446 O448 2.458 . S
U446 C449 2.984 . S
U446 C450 2.847 . S
U446 C463 2.882 . S
U446 O464 2.441 . S
U446 O465 2.420 . S
U446 O466 2.455 . S
U446 O467 2.449 . S
O447 U446 2.454 . S
O447 C449 1.353 . S
O448 U446 2.458 . S
O448 C449 1.286 . S
C449 U446 2.984 . S
C449 O447 1.353 . S
C449 O448 1.286 . S
C449 C451 1.363 . S
C450 C440 1.465 . S
C450 U446 2.847 . S
C450 O464 1.249 . S
C450 O465 1.202 . S
C451 C449 1.363 . S
C451 C453 1.408 . S
C451 C456 1.342 . S
C452 C453 1.310 . S
C452 C455 1.461 . S
C452 H472 0.932 . S
C453 C451 1.408 . S
C453 C452 1.310 . S
C453 H473 0.930 . S
C454 C455 1.474 . S
C454 C456 1.285 . S
C454 H474 0.929 . S
C455 C452 1.461 . S
C455 C454 1.474 . S
C456 C451 1.342 . S
C456 C454 1.285 . S
C456 H475 0.930 . S
C457 C460 1.424 . S
C457 C462 1.245 . S
C457 C463 1.428 . S
C458 C461 1.260 . S
C458 C462 1.477 . S
C458 H476 0.932 . S
C459 C460 1.384 . S
C459 C461 1.479 . S
C459 H477 0.929 . S
C460 C457 1.424 . S
C460 C459 1.384 . S
C460 H478 0.928 . S
C461 C458 1.260 . S
C461 C459 1.479 . S
C462 C457 1.245 . S
C462 C458 1.477 . S
C462 H479 0.932 . S
C463 U446 2.882 . S
C463 C457 1.428 . S
C463 O466 1.301 . S
C463 O467 1.282 . S
O464 U446 2.441 . S
O464 C450 1.249 . S
O465 U446 2.420 . S
O465 C450 1.202 . S
O466 U446 2.455 . S
O466 C463 1.301 . S
O467 U446 2.449 . S
O467 C463 1.282 . S
H468 C441 0.931 . S
H469 C443 0.929 . S
H470 C444 0.930 . S
H471 C445 0.931 . S
H472 C452 0.932 . S
H473 C453 0.930 . S
H474 C454 0.929 . S
H475 C456 0.930 . S
H476 C458 0.932 . S
H477 C459 0.929 . S
H478 C460 0.928 . S
H479 C462 0.932 . S
C480 C481 1.264 . S
C480 C485 1.479 . S
C480 C490 1.465 . S
C481 C480 1.264 . S
C481 C483 1.339 . S
C481 H508 0.931 . S
C482 C483 1.395 . S
C482 C484 1.320 . S
C483 C481 1.339 . S
C483 C482 1.395 . S
C483 H509 0.929 . S
C484 C482 1.320 . S
C484 C485 1.405 . S
C484 H510 0.930 . S
C485 C480 1.479 . S
C485 C484 1.405 . S
C485 H511 0.931 . S
U486 O487 2.454 . S
U486 O488 2.458 . S
U486 C489 2.984 . S
U486 C490 2.847 . S
U486 C503 2.882 . S
U486 O504 2.441 . S
U486 O505 2.420 . S
U486 O506 2.455 . S
U486 O507 2.449 . S
O487 U486 2.454 . S
O487 C489 1.353 . S
O488 U486 2.458 . S
O488 C489 1.286 . S
C489 U486 2.984 . S
C489 O487 1.353 . S
C489 O488 1.286 . S
C489 C491 1.363 . S
C490 C480 1.465 . S
C490 U486 2.847 . S
C490 O504 1.249 . S
C490 O505 1.202 . S
C491 C489 1.363 . S
C491 C493 1.408 . S
C491 C496 1.342 . S
C492 C493 1.310 . S
C492 C495 1.461 . S
C492 H512 0.932 . S
C493 C491 1.408 . S
C493 C492 1.310 . S
C493 H513 0.930 . S
C494 C495 1.474 . S
C494 C496 1.285 . S
C494 H514 0.929 . S
C495 C492 1.461 . S
C495 C494 1.474 . S
C496 C491 1.342 . S
C496 C494 1.285 . S
C496 H515 0.930 . S
C497 C500 1.424 . S
C497 C502 1.245 . S
C497 C503 1.428 . S
C498 C501 1.260 . S
C498 C502 1.477 . S
C498 H516 0.932 . S
C499 C500 1.384 . S
C499 C501 1.479 . S
C499 H517 0.929 . S
C500 C497 1.424 . S
C500 C499 1.384 . S
C500 H518 0.928 . S
C501 C498 1.260 . S
C501 C499 1.479 . S
C502 C497 1.245 . S
C502 C498 1.477 . S
C502 H519 0.932 . S
C503 U486 2.882 . S
C503 C497 1.428 . S
C503 O506 1.301 . S
C503 O507 1.282 . S
O504 U486 2.441 . S
O504 C490 1.249 . S
O505 U486 2.420 . S
O505 C490 1.202 . S
O506 U486 2.455 . S
O506 C503 1.301 . S
O507 U486 2.449 . S
O507 C503 1.282 . S
H508 C481 0.931 . S
H509 C483 0.929 . S
H510 C484 0.930 . S
H511 C485 0.931 . S
H512 C492 0.932 . S
H513 C493 0.930 . S
H514 C494 0.929 . S
H515 C496 0.930 . S
H516 C498 0.932 . S
H517 C499 0.929 . S
H518 C500 0.928 . S
H519 C502 0.932 . S
C520 C521 1.264 . S
C520 C525 1.479 . S
C520 C530 1.465 . S
C521 C520 1.264 . S
C521 C523 1.339 . S
C521 H548 0.931 . S
C522 C523 1.395 . S
C522 C524 1.320 . S
C523 C521 1.339 . S
C523 C522 1.395 . S
C523 H549 0.929 . S
C524 C522 1.320 . S
C524 C525 1.405 . S
C524 H550 0.930 . S
C525 C520 1.479 . S
C525 C524 1.405 . S
C525 H551 0.931 . S
U526 O527 2.454 . S
U526 O528 2.458 . S
U526 C529 2.984 . S
U526 C530 2.847 . S
U526 C543 2.882 . S
U526 O544 2.441 . S
U526 O545 2.420 . S
U526 O546 2.455 . S
U526 O547 2.449 . S
O527 U526 2.454 . S
O527 C529 1.353 . S
O528 U526 2.458 . S
O528 C529 1.286 . S
C529 U526 2.984 . S
C529 O527 1.353 . S
C529 O528 1.286 . S
C529 C531 1.363 1_556 S
C530 C520 1.465 . S
C530 U526 2.847 . S
C530 O544 1.249 . S
C530 O545 1.202 . S
C531 C529 1.363 1_554 S
C531 C533 1.408 1_554 S
C531 C536 1.342 . S
C532 C533 1.310 1_554 S
C532 C535 1.461 . S
C532 H552 0.932 . S
C533 C531 1.408 1_556 S
C533 C532 1.310 1_556 S
C533 H553 0.930 . S
C534 C535 1.474 . S
C534 C536 1.285 . S
C534 H554 0.929 . S
C535 C532 1.461 . S
C535 C534 1.474 . S
C536 C531 1.342 . S
C536 C534 1.285 . S
C536 H555 0.930 . S
C537 C540 1.424 . S
C537 C542 1.245 . S
C537 C543 1.428 . S
C538 C541 1.260 . S
C538 C542 1.477 . S
C538 H556 0.932 1_556 S
C539 C540 1.384 . S
C539 C541 1.479 . S
C539 H557 0.929 . S
C540 C537 1.424 . S
C540 C539 1.384 . S
C540 H558 0.928 . S
C541 C538 1.260 . S
C541 C539 1.479 . S
C542 C537 1.245 . S
C542 C538 1.477 . S
C542 H559 0.931 . S
C543 U526 2.882 . S
C543 C537 1.428 . S
C543 O546 1.301 . S
C543 O547 1.282 . S
O544 U526 2.441 . S
O544 C530 1.249 . S
O545 U526 2.420 . S
O545 C530 1.202 . S
O546 U526 2.455 . S
O546 C543 1.301 . S
O547 U526 2.449 . S
O547 C543 1.282 . S
H548 C521 0.931 . S
H549 C523 0.929 . S
H550 C524 0.930 . S
H551 C525 0.931 . S
H552 C532 0.932 . S
H553 C533 0.930 . S
H554 C534 0.929 . S
H555 C536 0.930 . S
H556 C538 0.932 1_554 S
H557 C539 0.929 . S
H558 C540 0.928 . S
H559 C542 0.931 . S
C560 C561 1.264 . S
C560 C565 1.479 . S
C560 C570 1.465 . S
C561 C560 1.264 . S
C561 C563 1.339 . S
C561 H588 0.931 . S
C562 C563 1.395 . S
C562 C564 1.320 . S
C563 C561 1.339 . S
C563 C562 1.395 . S
C563 H589 0.929 . S
C564 C562 1.320 . S
C564 C565 1.405 . S
C564 H590 0.930 . S
C565 C560 1.479 . S
C565 C564 1.405 . S
C565 H591 0.931 . S
U566 O567 2.454 . S
U566 O568 2.458 . S
U566 C569 2.984 . S
U566 C570 2.847 . S
U566 C583 2.882 . S
U566 O584 2.441 . S
U566 O585 2.420 . S
U566 O586 2.455 . S
U566 O587 2.449 . S
O567 U566 2.454 . S
O567 C569 1.353 . S
O568 U566 2.458 . S
O568 C569 1.286 . S
C569 U566 2.984 . S
C569 O567 1.353 . S
C569 O568 1.286 . S
C569 C571 1.363 . S
C570 C560 1.465 . S
C570 U566 2.847 . S
C570 O584 1.249 . S
C570 O585 1.202 . S
C571 C569 1.363 . S
C571 C573 1.408 . S
C571 C576 1.342 . S
C572 C573 1.310 . S
C572 C575 1.461 . S
C572 H592 0.932 . S
C573 C571 1.408 . S
C573 C572 1.310 . S
C573 H593 0.930 . S
C574 C575 1.474 . S
C574 C576 1.285 . S
C574 H594 0.929 . S
C575 C572 1.461 . S
C575 C574 1.474 . S
C576 C571 1.342 . S
C576 C574 1.285 . S
C576 H595 0.930 . S
C577 C580 1.424 . S
C577 C582 1.245 . S
C577 C583 1.428 . S
C578 C581 1.260 . S
C578 C582 1.477 . S
C578 H596 0.932 . S
C579 C580 1.384 . S
C579 C581 1.479 . S
C579 H597 0.929 . S
C580 C577 1.424 . S
C580 C579 1.384 . S
C580 H598 0.928 . S
C581 C578 1.260 . S
C581 C579 1.479 . S
C582 C577 1.245 . S
C582 C578 1.477 . S
C582 H599 0.932 . S
C583 U566 2.882 . S
C583 C577 1.428 . S
C583 O586 1.301 . S
C583 O587 1.282 . S
O584 U566 2.441 . S
O584 C570 1.249 . S
O585 U566 2.420 . S
O585 C570 1.202 . S
O586 U566 2.455 . S
O586 C583 1.301 . S
O587 U566 2.449 . S
O587 C583 1.282 . S
H588 C561 0.931 . S
H589 C563 0.929 . S
H590 C564 0.930 . S
H591 C565 0.931 . S
H592 C572 0.932 . S
H593 C573 0.930 . S
H594 C574 0.929 . S
H595 C576 0.930 . S
H596 C578 0.932 . S
H597 C579 0.929 . S
H598 C580 0.928 . S
H599 C582 0.932 . S
C600 C601 1.264 . S
C600 C605 1.479 . S
C600 C610 1.465 . S
C601 C600 1.264 . S
C601 C603 1.339 . S
C601 H628 0.931 . S
C602 C603 1.395 . S
C602 C604 1.320 . S
C603 C601 1.339 . S
C603 C602 1.395 . S
C603 H629 0.929 . S
C604 C602 1.320 . S
C604 C605 1.405 . S
C604 H630 0.930 . S
C605 C600 1.479 . S
C605 C604 1.405 . S
C605 H631 0.931 . S
U606 O607 2.454 . S
U606 O608 2.458 . S
U606 C609 2.984 . S
U606 C610 2.847 1_556 S
U606 C623 2.882 . S
U606 O624 2.441 1_556 S
U606 O625 2.420 . S
U606 O626 2.455 . S
U606 O627 2.449 . S
O607 U606 2.454 . S
O607 C609 1.353 . S
O608 U606 2.458 . S
O608 C609 1.286 . S
C609 U606 2.984 . S
C609 O607 1.353 . S
C609 O608 1.286 . S
C609 C611 1.363 1_545 S
C610 C600 1.465 . S
C610 U606 2.847 1_554 S
C610 O624 1.249 . S
C610 O625 1.202 1_554 S
C611 C609 1.363 1_565 S
C611 C613 1.408 . S
C611 C616 1.342 . S
C612 C613 1.310 . S
C612 C615 1.461 . S
C612 H632 0.932 1_556 S
C613 C611 1.408 . S
C613 C612 1.310 . S
C613 H633 0.930 1_566 S
C614 C615 1.474 . S
C614 C616 1.285 . S
C614 H634 0.929 . S
C615 C612 1.461 . S
C615 C614 1.474 . S
C616 C611 1.342 . S
C616 C614 1.285 . S
C616 H635 0.930 . S
C617 C620 1.424 . S
C617 C622 1.245 . S
C617 C623 1.428 . S
C618 C621 1.260 . S
C618 C622 1.477 . S
C618 H636 0.932 1_545 S
C619 C620 1.384 . S
C619 C621 1.479 . S
C619 H637 0.929 . S
C620 C617 1.424 . S
C620 C619 1.384 . S
C620 H638 0.928 . S
C621 C618 1.260 . S
C621 C619 1.479 . S
C622 C617 1.245 . S
C622 C618 1.477 . S
C622 H639 0.932 1_545 S
C623 U606 2.882 . S
C623 C617 1.428 . S
C623 O626 1.301 . S
C623 O627 1.282 . S
O624 U606 2.441 1_554 S
O624 C610 1.249 . S
O625 U606 2.420 . S
O625 C610 1.202 1_556 S
O626 U606 2.455 . S
O626 C623 1.301 . S
O627 U606 2.449 . S
O627 C623 1.282 . S
H628 C601 0.931 . S
H629 C603 0.929 . S
H630 C604 0.930 . S
H631 C605 0.931 . S
H632 C612 0.932 1_554 S
H633 C613 0.930 1_544 S
H634 C614 0.929 . S
H635 C616 0.930 . S
H636 C618 0.932 1_565 S
H637 C619 0.929 . S
H638 C620 0.928 . S
H639 C622 0.932 1_565 S
Mg640 O641 2.028 . S
Mg640 O647 1.986 1_554 S
Mg640 O649 2.114 . S
Mg640 O650 2.251 . S
Mg640 O653 2.010 . S
O641 Mg640 2.028 . S
O641 C644 1.259 . S
O642 Mg643 2.029 . S
O642 C644 1.244 1_556 S
Mg643 O642 2.029 . S
Mg643 O648 2.032 . S
Mg643 O650 2.079 1_556 S
C644 O641 1.259 . S
C644 O642 1.244 1_554 S
C645 O646 1.264 . S
C645 O653 1.249 . S
O646 C645 1.264 . S
O647 Mg640 1.986 1_556 S
O647 C651 1.246 . S
O648 Mg643 2.032 . S
O648 C651 1.259 . S
O649 Mg640 2.114 . S
O649 C652 1.252 . S
O650 Mg640 2.251 . S
O650 Mg643 2.079 1_554 S
O650 C652 1.273 . S
C651 O647 1.246 . S
C651 O648 1.259 . S
C652 O649 1.252 . S
C652 O650 1.273 . S
O653 Mg640 2.010 . S
O653 C645 1.249 . S
Mg654 O655 2.028 . S
Mg654 O661 1.986 . S
Mg654 O663 2.114 . S
Mg654 O664 2.251 . S
Mg654 O667 2.010 . S
O655 Mg654 2.028 . S
O655 C658 1.250 . S
O656 Mg657 2.028 . S
O656 C658 1.248 . S
Mg657 O656 2.028 . S
Mg657 O662 2.032 . S
Mg657 O664 2.079 . S
C658 O655 1.250 . S
C658 O656 1.248 . S
C659 O660 1.264 . S
C659 O667 1.249 . S
O660 C659 1.264 . S
O661 Mg654 1.986 . S
O661 C665 1.246 . S
O662 Mg657 2.032 . S
O662 C665 1.259 . S
O663 Mg654 2.114 . S
O663 C666 1.252 . S
O664 Mg654 2.251 . S
O664 Mg657 2.079 . S
O664 C666 1.273 . S
C665 O661 1.246 . S
C665 O662 1.259 . S
C666 O663 1.252 . S
C666 O664 1.273 . S
O667 Mg654 2.010 . S
O667 C659 1.249 . S
Mg668 O669 2.028 . S
Mg668 O675 1.986 1_554 S
Mg668 O677 2.114 . S
Mg668 O678 2.251 . S
Mg668 O681 2.010 . S
O669 Mg668 2.028 . S
O669 C672 1.250 1_554 S
O670 Mg671 2.028 . S
O670 C672 1.248 . S
Mg671 O670 2.028 . S
Mg671 O676 2.032 . S
Mg671 O678 2.079 1_556 S
C672 O669 1.250 1_556 S
C672 O670 1.248 . S
C673 O674 1.264 . S
C673 O681 1.249 . S
O674 C673 1.264 . S
O675 Mg668 1.986 1_556 S
O675 C679 1.246 . S
O676 Mg671 2.032 . S
O676 C679 1.259 . S
O677 Mg668 2.114 . S
O677 C680 1.252 . S
O678 Mg668 2.251 . S
O678 Mg671 2.079 1_554 S
O678 C680 1.273 . S
C679 O675 1.246 . S
C679 O676 1.259 . S
C680 O677 1.252 . S
C680 O678 1.273 . S
O681 Mg668 2.010 . S
O681 C673 1.249 . S
Mg682 O683 2.028 . S
Mg682 O689 1.986 . S
Mg682 O691 2.114 . S
Mg682 O692 2.251 . S
Mg682 O695 2.010 . S
O683 Mg682 2.028 . S
O683 C686 1.250 1_545 S
O684 Mg685 2.028 . S
O684 C686 1.248 . S
Mg685 O684 2.028 . S
Mg685 O690 2.032 . S
Mg685 O692 2.079 1_565 S
C686 O683 1.250 1_565 S
C686 O684 1.248 . S
C687 O688 1.264 . S
C687 O695 1.249 . S
O688 C687 1.264 . S
O689 Mg682 1.986 . S
O689 C693 1.246 . S
O690 Mg685 2.032 . S
O690 C693 1.259 1_565 S
O691 Mg682 2.114 . S
O691 C694 1.252 . S
O692 Mg682 2.251 . S
O692 Mg685 2.079 1_545 S
O692 C694 1.273 . S
C693 O689 1.246 . S
C693 O690 1.259 1_545 S
C694 O691 1.252 . S
C694 O692 1.273 . S
O695 Mg682 2.010 . S
O695 C687 1.249 . S
Mg696 O697 2.028 . S
Mg696 O703 1.986 . S
Mg696 O705 2.114 . S
Mg696 O706 2.251 . S
Mg696 O709 2.010 . S
O697 Mg696 2.028 . S
O697 C700 1.250 . S
O698 Mg699 2.028 . S
O698 C700 1.248 . S
Mg699 O698 2.028 . S
Mg699 O704 2.032 . S
Mg699 O706 2.079 . S
C700 O697 1.250 . S
C700 O698 1.248 . S
C701 O702 1.264 . S
C701 O709 1.249 . S
O702 C701 1.264 . S
O703 Mg696 1.986 . S
O703 C707 1.246 . S
O704 Mg699 2.032 . S
O704 C707 1.259 . S
O705 Mg696 2.114 . S
O705 C708 1.252 . S
O706 Mg696 2.251 . S
O706 Mg699 2.079 . S
O706 C708 1.273 . S
C707 O703 1.246 . S
C707 O704 1.259 . S
C708 O705 1.252 . S
C708 O706 1.273 . S
O709 Mg696 2.010 . S
O709 C701 1.249 . S
Mg710 O711 2.028 . S
Mg710 O717 1.986 . S
Mg710 O719 2.114 . S
Mg710 O720 2.251 . S
Mg710 O723 2.010 . S
O711 Mg710 2.028 . S
O711 C714 1.250 . S
O712 Mg713 2.028 . S
O712 C714 1.248 . S
Mg713 O712 2.028 . S
Mg713 O718 2.032 . S
Mg713 O720 2.079 . S
C714 O711 1.250 . S
C714 O712 1.248 . S
C715 O716 1.264 . S
C715 O723 1.249 . S
O716 C715 1.264 . S
O717 Mg710 1.986 . S
O717 C721 1.246 . S
O718 Mg713 2.032 . S
O718 C721 1.259 . S
O719 Mg710 2.114 . S
O719 C722 1.252 . S
O720 Mg710 2.251 . S
O720 Mg713 2.079 . S
O720 C722 1.273 . S
C721 O717 1.246 . S
C721 O718 1.259 . S
C722 O719 1.252 . S
C722 O720 1.273 . S
O723 Mg710 2.010 . S
O723 C715 1.249 . S
Mg724 O725 2.028 . S
Mg724 O731 1.986 . S
Mg724 O733 2.114 . S
Mg724 O734 2.251 . S
Mg724 O737 2.010 . S
O725 Mg724 2.028 . S
O725 C728 1.250 . S
O726 Mg727 2.028 . S
O726 C728 1.248 . S
Mg727 O726 2.028 . S
Mg727 O732 2.032 . S
Mg727 O734 2.079 . S
C728 O725 1.250 . S
C728 O726 1.248 . S
C729 O730 1.264 . S
C729 O737 1.249 . S
O730 C729 1.264 . S
O731 Mg724 1.986 . S
O731 C735 1.246 . S
O732 Mg727 2.032 . S
O732 C735 1.259 . S
O733 Mg724 2.114 . S
O733 C736 1.252 . S
O734 Mg724 2.251 . S
O734 Mg727 2.079 . S
O734 C736 1.273 . S
C735 O731 1.246 . S
C735 O732 1.259 . S
C736 O733 1.252 . S
C736 O734 1.273 . S
O737 Mg724 2.010 . S
O737 C729 1.249 . S
Mg738 O739 2.028 1_545 S
Mg738 O745 1.986 1_545 S
Mg738 O747 2.114 . S
Mg738 O748 2.251 . S
Mg738 O751 2.010 . S
O739 Mg738 2.028 1_565 S
O739 C742 1.250 . S
O740 Mg741 2.028 . S
O740 C742 1.248 . S
Mg741 O740 2.028 . S
Mg741 O746 2.032 . S
Mg741 O748 2.079 1_565 S
C742 O739 1.250 . S
C742 O740 1.248 . S
C743 O744 1.264 . S
C743 O751 1.249 . S
O744 C743 1.264 . S
O745 Mg738 1.986 1_565 S
O745 C749 1.246 . S
O746 Mg741 2.032 . S
O746 C749 1.259 . S
O747 Mg738 2.114 . S
O747 C750 1.252 . S
O748 Mg738 2.251 . S
O748 Mg741 2.079 1_545 S
O748 C750 1.273 . S
C749 O745 1.246 . S
C749 O746 1.259 . S
C750 O747 1.252 . S
C750 O748 1.273 . S
O751 Mg738 2.010 . S
O751 C743 1.249 . S
Mg752 O753 2.028 . S
Mg752 O759 1.986 . S
Mg752 O761 2.114 . S
Mg752 O762 2.251 . S
Mg752 O765 2.010 . S
O753 Mg752 2.028 . S
O753 C756 1.250 1_455 S
O754 Mg755 2.028 . S
O754 C756 1.248 . S
Mg755 O754 2.028 . S
Mg755 O760 2.032 . S
Mg755 O762 2.079 1_655 S
C756 O753 1.250 1_655 S
C756 O754 1.248 . S
C757 O758 1.264 . S
C757 O765 1.249 . S
O758 C757 1.264 . S
O759 Mg752 1.986 . S
O759 C763 1.246 . S
O760 Mg755 2.032 . S
O760 C763 1.259 1_655 S
O761 Mg752 2.114 . S
O761 C764 1.252 . S
O762 Mg752 2.251 . S
O762 Mg755 2.079 1_455 S
O762 C764 1.273 . S
C763 O759 1.246 . S
C763 O760 1.259 1_455 S
C764 O761 1.252 . S
C764 O762 1.273 . S
O765 Mg752 2.010 . S
O765 C757 1.249 . S
Mg766 O767 2.028 . S
Mg766 O773 1.986 . S
Mg766 O775 2.114 . S
Mg766 O776 2.251 . S
Mg766 O779 2.010 . S
O767 Mg766 2.028 . S
O767 C770 1.250 . S
O768 Mg769 2.028 . S
O768 C770 1.248 . S
Mg769 O768 2.028 . S
Mg769 O774 2.032 . S
Mg769 O776 2.079 . S
C770 O767 1.250 . S
C770 O768 1.248 . S
C771 O772 1.264 . S
C771 O779 1.249 . S
O772 C771 1.264 . S
O773 Mg766 1.986 . S
O773 C777 1.246 . S
O774 Mg769 2.032 . S
O774 C777 1.259 . S
O775 Mg766 2.114 . S
O775 C778 1.252 . S
O776 Mg766 2.251 . S
O776 Mg769 2.079 . S
O776 C778 1.273 . S
C777 O773 1.246 . S
C777 O774 1.259 . S
C778 O775 1.252 . S
C778 O776 1.273 . S
O779 Mg766 2.010 . S
O779 C771 1.249 . S
Mg780 O781 2.028 1_655 S
Mg780 O787 1.999 . S
Mg780 O789 2.114 . S
Mg780 O790 2.251 1_655 S
Mg780 O793 2.010 . S
O781 Mg780 2.028 1_455 S
O781 C784 1.250 . S
O782 Mg783 2.028 . S
O782 C784 1.248 . S
Mg783 O782 2.028 . S
Mg783 O788 2.032 . S
Mg783 O790 2.079 . S
C784 O781 1.250 . S
C784 O782 1.248 . S
C785 O786 1.264 . S
C785 O793 1.249 . S
O786 C785 1.264 . S
O787 Mg780 1.999 . S
O787 C791 1.211 1_655 S
O788 Mg783 2.032 . S
O788 C791 1.259 . S
O789 Mg780 2.114 . S
O789 C792 1.252 . S
O790 Mg780 2.251 1_455 S
O790 Mg783 2.079 . S
O790 C792 1.273 1_455 S
C791 O787 1.211 1_455 S
C791 O788 1.259 . S
C792 O789 1.252 . S
C792 O790 1.273 1_655 S
O793 Mg780 2.010 . S
O793 C785 1.249 . S
Mg794 O795 2.028 . S
Mg794 O801 1.986 . S
Mg794 O803 2.114 . S
Mg794 O804 2.251 . S
Mg794 O807 2.010 . S
O795 Mg794 2.028 . S
O795 C798 1.250 . S
O796 Mg797 2.028 . S
O796 C798 1.248 . S
Mg797 O796 2.028 . S
Mg797 O802 2.032 . S
Mg797 O804 2.079 . S
C798 O795 1.250 . S
C798 O796 1.248 . S
C799 O800 1.264 . S
C799 O807 1.249 . S
O800 C799 1.264 . S
O801 Mg794 1.986 . S
O801 C805 1.246 . S
O802 Mg797 2.032 . S
O802 C805 1.259 . S
O803 Mg794 2.114 . S
O803 C806 1.252 . S
O804 Mg794 2.251 . S
O804 Mg797 2.079 . S
O804 C806 1.273 . S
C805 O801 1.246 . S
C805 O802 1.259 . S
C806 O803 1.252 . S
C806 O804 1.273 . S
O807 Mg794 2.010 . S
O807 C799 1.249 . S
H808 C816 0.950 . S
H809 C821 0.950 . S
H810 C818 0.950 . S
H811 C820 0.950 . S
H812 C822 0.950 . S
H813 C824 0.950 . S
H814 C826 0.950 . S
H815 C827 0.950 . S
C816 H808 0.950 . S
C816 C817 1.386 . S
C816 C818 1.391 . S
C817 C816 1.386 . S
C817 C821 1.393 . S
C818 H810 0.950 . S
C818 C816 1.391 . S
C818 C819 1.400 . S
C819 C818 1.400 . S
C819 C820 1.398 . S
C819 C825 1.491 . S
C820 H811 0.950 . S
C820 C819 1.398 . S
C820 C821 1.391 . S
C821 H809 0.950 . S
C821 C817 1.393 . S
C821 C820 1.391 . S
C822 H812 0.950 . S
C822 C823 1.386 . S
C822 C824 1.391 . S
C823 C822 1.386 . S
C823 C827 1.393 . S
C824 H813 0.950 . S
C824 C822 1.391 . S
C824 C825 1.400 . S
C825 C819 1.491 . S
C825 C824 1.400 . S
C825 C826 1.398 . S
C826 H814 0.950 . S
C826 C825 1.398 . S
C826 C827 1.391 . S
C827 H815 0.950 . S
C827 C823 1.393 . S
C827 C826 1.391 . S
H828 C836 0.950 . S
H829 C841 0.950 . S
H830 C838 0.950 . S
H831 C840 0.950 . S
H832 C842 0.950 . S
H833 C844 0.950 . S
H834 C846 0.950 . S
H835 C847 0.950 . S
C836 H828 0.950 . S
C836 C837 1.386 . S
C836 C838 1.391 . S
C837 C836 1.386 . S
C837 C841 1.393 . S
C838 H830 0.950 . S
C838 C836 1.391 . S
C838 C839 1.400 . S
C839 C838 1.400 . S
C839 C840 1.398 . S
C839 C845 1.491 . S
C840 H831 0.950 . S
C840 C839 1.398 . S
C840 C841 1.391 . S
C841 H829 0.950 . S
C841 C837 1.393 . S
C841 C840 1.391 . S
C842 H832 0.950 . S
C842 C843 1.386 . S
C842 C844 1.391 . S
C843 C842 1.386 . S
C843 C847 1.393 . S
C844 H833 0.950 . S
C844 C842 1.391 . S
C844 C845 1.400 . S
C845 C839 1.491 . S
C845 C844 1.400 . S
C845 C846 1.398 . S
C846 H834 0.950 . S
C846 C845 1.398 . S
C846 C847 1.391 . S
C847 H835 0.950 . S
C847 C843 1.393 . S
C847 C846 1.391 . S
H848 C856 0.950 . S
H849 C861 0.950 . S
H850 C858 0.950 . S
H851 C860 0.950 . S
H852 C862 0.950 . S
H853 C864 0.950 . S
H854 C866 0.950 . S
H855 C867 0.950 . S
C856 H848 0.950 . S
C856 C857 1.386 . S
C856 C858 1.391 . S
C857 C856 1.386 . S
C857 C861 1.393 . S
C858 H850 0.950 . S
C858 C856 1.391 . S
C858 C859 1.400 . S
C859 C858 1.400 . S
C859 C860 1.398 . S
C859 C865 1.491 . S
C860 H851 0.950 . S
C860 C859 1.398 . S
C860 C861 1.391 . S
C861 H849 0.950 . S
C861 C857 1.393 . S
C861 C860 1.391 . S
C862 H852 0.950 . S
C862 C863 1.386 . S
C862 C864 1.391 . S
C863 C862 1.386 . S
C863 C867 1.393 . S
C864 H853 0.950 . S
C864 C862 1.391 . S
C864 C865 1.400 . S
C865 C859 1.491 . S
C865 C864 1.400 . S
C865 C866 1.398 . S
C866 H854 0.950 . S
C866 C865 1.398 . S
C866 C867 1.391 . S
C867 H855 0.950 . S
C867 C863 1.393 . S
C867 C866 1.391 . S
H868 C876 0.953 . S
H869 C881 0.950 . S
H870 C878 0.950 . S
H871 C880 0.950 . S
H872 C882 0.950 . S
H873 C884 0.950 . S
H874 C886 0.950 . S
H875 C887 0.950 . S
C876 H868 0.953 . S
C876 C877 1.380 1_545 S
C876 C878 1.394 . S
C877 C876 1.380 1_565 S
C877 C881 1.393 . S
C878 H870 0.950 . S
C878 C876 1.394 . S
C878 C879 1.400 1_545 S
C879 C878 1.400 1_565 S
C879 C880 1.398 . S
C879 C885 1.486 1_565 S
C880 H871 0.950 . S
C880 C879 1.398 . S
C880 C881 1.391 . S
C881 H869 0.950 . S
C881 C877 1.393 . S
C881 C880 1.391 . S
C882 H872 0.950 . S
C882 C883 1.386 1_565 S
C882 C884 1.391 . S
C883 C882 1.386 1_545 S
C883 C887 1.393 . S
C884 H873 0.950 . S
C884 C882 1.391 . S
C884 C885 1.393 1_565 S
C885 C879 1.486 1_545 S
C885 C884 1.393 1_545 S
C885 C886 1.411 . S
C886 H874 0.950 . S
C886 C885 1.411 . S
C886 C887 1.391 . S
C887 H875 0.950 . S
C887 C883 1.393 . S
C887 C886 1.391 . S
H888 C896 0.950 . S
H889 C901 0.950 . S
H890 C898 0.950 . S
H891 C900 0.950 . S
H892 C902 0.950 . S
H893 C904 0.950 . S
H894 C906 0.950 . S
H895 C907 0.950 . S
C896 H888 0.950 . S
C896 C897 1.386 . S
C896 C898 1.391 . S
C897 C896 1.386 . S
C897 C901 1.393 . S
C898 H890 0.950 . S
C898 C896 1.391 . S
C898 C899 1.400 . S
C899 C898 1.400 . S
C899 C900 1.398 . S
C899 C905 1.491 . S
C900 H891 0.950 . S
C900 C899 1.398 . S
C900 C901 1.391 . S
C901 H889 0.950 . S
C901 C897 1.393 . S
C901 C900 1.391 . S
C902 H892 0.950 . S
C902 C903 1.386 . S
C902 C904 1.391 . S
C903 C902 1.386 . S
C903 C907 1.393 . S
C904 H893 0.950 . S
C904 C902 1.391 . S
C904 C905 1.400 . S
C905 C899 1.491 . S
C905 C904 1.400 . S
C905 C906 1.398 . S
C906 H894 0.950 . S
C906 C905 1.398 . S
C906 C907 1.391 . S
C907 H895 0.950 . S
C907 C903 1.393 . S
C907 C906 1.391 . S
H908 C916 0.950 . S
H909 C921 0.950 . S
H910 C918 0.950 . S
H911 C920 0.950 . S
H912 C922 0.950 . S
H913 C924 0.950 . S
H914 C926 0.950 . S
H915 C927 0.950 . S
C916 H908 0.950 . S
C916 C917 1.386 . S
C916 C918 1.391 . S
C917 C916 1.386 . S
C917 C921 1.393 . S
C918 H910 0.950 . S
C918 C916 1.391 . S
C918 C919 1.400 . S
C919 C918 1.400 . S
C919 C920 1.398 . S
C919 C925 1.491 . S
C920 H911 0.950 . S
C920 C919 1.398 . S
C920 C921 1.391 . S
C921 H909 0.950 . S
C921 C917 1.393 . S
C921 C920 1.391 . S
C922 H912 0.950 . S
C922 C923 1.386 . S
C922 C924 1.391 . S
C923 C922 1.386 . S
C923 C927 1.393 . S
C924 H913 0.950 . S
C924 C922 1.391 . S
C924 C925 1.400 . S
C925 C919 1.491 . S
C925 C924 1.400 . S
C925 C926 1.398 . S
C926 H914 0.950 . S
C926 C925 1.398 . S
C926 C927 1.391 . S
C927 H915 0.950 . S
C927 C923 1.393 . S
C927 C926 1.391 . S
H928 C936 0.950 . S
H929 C941 0.950 . S
H930 C938 0.950 . S
H931 C940 0.950 . S
H932 C942 0.950 . S
H933 C944 0.950 . S
H934 C946 0.950 . S
H935 C947 0.950 . S
C936 H928 0.950 . S
C936 C937 1.386 . S
C936 C938 1.391 . S
C937 C936 1.386 . S
C937 C941 1.393 . S
C938 H930 0.950 . S
C938 C936 1.391 . S
C938 C939 1.400 . S
C939 C938 1.400 . S
C939 C940 1.398 . S
C939 C945 1.491 . S
C940 H931 0.950 . S
C940 C939 1.398 . S
C940 C941 1.391 . S
C941 H929 0.950 . S
C941 C937 1.393 . S
C941 C940 1.391 . S
C942 H932 0.950 . S
C942 C943 1.386 . S
C942 C944 1.391 . S
C943 C942 1.386 . S
C943 C947 1.393 . S
C944 H933 0.950 . S
C944 C942 1.391 . S
C944 C945 1.400 . S
C945 C939 1.491 . S
C945 C944 1.400 . S
C945 C946 1.398 . S
C946 H934 0.950 . S
C946 C945 1.398 . S
C946 C947 1.391 . S
C947 H935 0.950 . S
C947 C943 1.393 . S
C947 C946 1.391 . S
H948 C956 0.950 . S
H949 C961 0.950 . S
H950 C958 0.950 . S
H951 C960 0.950 . S
H952 C962 0.950 1_545 S
H953 C964 0.960 . S
H954 C966 0.950 . S
H955 C967 0.950 . S
C956 H948 0.950 . S
C956 C957 1.386 . S
C956 C958 1.391 . S
C957 C956 1.386 . S
C957 C961 1.393 . S
C958 H950 0.950 . S
C958 C956 1.391 . S
C958 C959 1.400 . S
C959 C958 1.400 . S
C959 C960 1.398 . S
C959 C965 1.491 . S
C960 H951 0.950 . S
C960 C959 1.398 . S
C960 C961 1.391 . S
C961 H949 0.950 . S
C961 C957 1.393 . S
C961 C960 1.391 . S
C962 H952 0.950 1_565 S
C962 C963 1.386 . S
C962 C964 1.391 . S
C963 C962 1.386 . S
C963 C967 1.393 . S
C964 H953 0.960 . S
C964 C962 1.391 . S
C964 C965 1.400 . S
C965 C959 1.491 . S
C965 C964 1.400 . S
C965 C966 1.398 . S
C966 H954 0.950 . S
C966 C965 1.398 . S
C966 C967 1.391 . S
C967 H955 0.950 . S
C967 C963 1.393 . S
C967 C966 1.391 . S
H968 C976 0.950 . S
H969 C981 0.950 . S
H970 C978 0.950 . S
H971 C980 0.950 . S
H972 C982 0.950 . S
H973 C984 0.950 . S
H974 C986 0.950 . S
H975 C987 0.950 . S
C976 H968 0.950 . S
C976 C977 1.386 . S
C976 C978 1.391 . S
C977 C976 1.386 . S
C977 C981 1.393 . S
C978 H970 0.950 . S
C978 C976 1.391 . S
C978 C979 1.400 . S
C979 C978 1.400 . S
C979 C980 1.398 . S
C979 C985 1.491 . S
C980 H971 0.950 . S
C980 C979 1.398 . S
C980 C981 1.391 . S
C981 H969 0.950 . S
C981 C977 1.393 . S
C981 C980 1.391 . S
C982 H972 0.950 . S
C982 C983 1.386 . S
C982 C984 1.391 . S
C983 C982 1.386 . S
C983 C987 1.393 . S
C984 H973 0.950 . S
C984 C982 1.391 . S
C984 C985 1.400 . S
C985 C979 1.491 . S
C985 C984 1.400 . S
C985 C986 1.398 . S
C986 H974 0.950 . S
C986 C985 1.398 . S
C986 C987 1.391 . S
C987 H975 0.950 . S
C987 C983 1.393 . S
C987 C986 1.391 . S
H988 C996 0.950 . S
H989 C1001 0.950 . S
H990 C998 0.950 . S
H991 C1000 0.950 . S
H992 C1002 0.950 . S
H993 C1004 0.950 . S
H994 C1006 0.950 . S
H995 C1007 0.950 . S
C996 H988 0.950 . S
C996 C997 1.386 . S
C996 C998 1.391 . S
C997 C996 1.386 . S
C997 C1001 1.393 . S
C998 H990 0.950 . S
C998 C996 1.391 . S
C998 C999 1.400 . S
C999 C998 1.400 . S
C999 C1000 1.398 . S
C999 C1005 1.491 . S
C1000 H991 0.950 . S
C1000 C999 1.398 . S
C1000 C1001 1.391 . S
C1001 H989 0.950 . S
C1001 C997 1.393 . S
C1001 C1000 1.391 . S
C1002 H992 0.950 . S
C1002 C1003 1.386 . S
C1002 C1004 1.391 . S
C1003 C1002 1.386 . S
C1003 C1007 1.393 . S
C1004 H993 0.950 . S
C1004 C1002 1.391 . S
C1004 C1005 1.400 . S
C1005 C999 1.491 . S
C1005 C1004 1.400 . S
C1005 C1006 1.398 . S
C1006 H994 0.950 . S
C1006 C1005 1.398 . S
C1006 C1007 1.391 . S
C1007 H995 0.950 . S
C1007 C1003 1.393 . S
C1007 C1006 1.391 . S
H1008 C1016 0.950 . S
H1009 C1021 0.950 . S
H1010 C1018 0.950 . S
H1011 C1020 0.950 . S
H1012 C1022 0.950 . S
H1013 C1024 0.950 . S
H1014 C1026 0.950 . S
H1015 C1027 0.950 . S
C1016 H1008 0.950 . S
C1016 C1017 1.386 . S
C1016 C1018 1.391 . S
C1017 C1016 1.386 . S
C1017 C1021 1.393 . S
C1018 H1010 0.950 . S
C1018 C1016 1.391 . S
C1018 C1019 1.400 . S
C1019 C1018 1.400 . S
C1019 C1020 1.398 . S
C1019 C1025 1.491 . S
C1020 H1011 0.950 . S
C1020 C1019 1.398 . S
C1020 C1021 1.391 . S
C1021 H1009 0.950 . S
C1021 C1017 1.393 . S
C1021 C1020 1.391 . S
C1022 H1012 0.950 . S
C1022 C1023 1.386 . S
C1022 C1024 1.391 . S
C1023 C1022 1.386 . S
C1023 C1027 1.393 . S
C1024 H1013 0.950 . S
C1024 C1022 1.391 . S
C1024 C1025 1.400 . S
C1025 C1019 1.491 . S
C1025 C1024 1.400 . S
C1025 C1026 1.398 . S
C1026 H1014 0.950 . S
C1026 C1025 1.398 . S
C1026 C1027 1.391 . S
C1027 H1015 0.950 . S
C1027 C1023 1.393 . S
C1027 C1026 1.391 . S
H1028 C1036 0.950 . S
H1029 C1041 0.950 . S
H1030 C1038 0.950 . S
H1031 C1040 0.950 . S
H1032 C1042 0.950 . S
H1033 C1044 0.950 . S
H1034 C1046 0.950 . S
H1035 C1047 0.950 . S
C1036 H1028 0.950 . S
C1036 C1037 1.386 . S
C1036 C1038 1.391 . S
C1037 C1036 1.386 . S
C1037 C1041 1.393 . S
C1038 H1030 0.950 . S
C1038 C1036 1.391 . S
C1038 C1039 1.400 . S
C1039 C1038 1.400 . S
C1039 C1040 1.398 . S
C1039 C1045 1.491 . S
C1040 H1031 0.950 . S
C1040 C1039 1.398 . S
C1040 C1041 1.391 . S
C1041 H1029 0.950 . S
C1041 C1037 1.393 . S
C1041 C1040 1.391 . S
C1042 H1032 0.950 . S
C1042 C1043 1.386 . S
C1042 C1044 1.391 . S
C1043 C1042 1.386 . S
C1043 C1047 1.393 . S
C1044 H1033 0.950 . S
C1044 C1042 1.391 . S
C1044 C1045 1.400 . S
C1045 C1039 1.491 . S
C1045 C1044 1.400 . S
C1045 C1046 1.398 . S
C1046 H1034 0.950 . S
C1046 C1045 1.398 . S
C1046 C1047 1.391 . S
C1047 H1035 0.950 . S
C1047 C1043 1.393 . S
C1047 C1046 1.391 . S
H1048 C1056 0.950 . S
H1049 C1061 0.950 . S
H1050 C1058 0.950 . S
H1051 C1060 0.950 . S
H1052 C1062 0.950 . S
H1053 C1064 0.950 . S
H1054 C1066 0.950 . S
H1055 C1067 0.950 . S
C1056 H1048 0.950 . S
C1056 C1057 1.386 . S
C1056 C1058 1.391 . S
C1057 C1056 1.386 . S
C1057 C1061 1.393 . S
C1058 H1050 0.950 . S
C1058 C1056 1.391 . S
C1058 C1059 1.400 . S
C1059 C1058 1.400 . S
C1059 C1060 1.398 . S
C1059 C1065 1.491 . S
C1060 H1051 0.950 . S
C1060 C1059 1.398 . S
C1060 C1061 1.391 . S
C1061 H1049 0.950 . S
C1061 C1057 1.393 . S
C1061 C1060 1.391 . S
C1062 H1052 0.950 . S
C1062 C1063 1.386 . S
C1062 C1064 1.391 . S
C1063 C1062 1.386 . S
C1063 C1067 1.393 . S
C1064 H1053 0.950 . S
C1064 C1062 1.391 . S
C1064 C1065 1.400 . S
C1065 C1059 1.491 . S
C1065 C1064 1.400 . S
C1065 C1066 1.398 . S
C1066 H1054 0.950 . S
C1066 C1065 1.398 . S
C1066 C1067 1.391 . S
C1067 H1055 0.950 . S
C1067 C1063 1.393 . S
C1067 C1066 1.391 . S
H1068 C1076 0.950 . S
H1069 C1081 0.950 . S
H1070 C1078 0.950 . S
H1071 C1080 0.950 . S
H1072 C1082 0.950 . S
H1073 C1084 0.950 . S
H1074 C1086 0.950 . S
H1075 C1087 0.950 . S
C1076 H1068 0.950 . S
C1076 C1077 1.386 . S
C1076 C1078 1.391 . S
C1077 C1076 1.386 . S
C1077 C1081 1.393 . S
C1078 H1070 0.950 . S
C1078 C1076 1.391 . S
C1078 C1079 1.400 . S
C1079 C1078 1.400 . S
C1079 C1080 1.398 . S
C1079 C1085 1.491 . S
C1080 H1071 0.950 . S
C1080 C1079 1.398 . S
C1080 C1081 1.391 . S
C1081 H1069 0.950 . S
C1081 C1077 1.393 . S
C1081 C1080 1.391 . S
C1082 H1072 0.950 . S
C1082 C1083 1.386 . S
C1082 C1084 1.391 . S
C1083 C1082 1.386 . S
C1083 C1087 1.393 . S
C1084 H1073 0.950 . S
C1084 C1082 1.391 . S
C1084 C1085 1.400 . S
C1085 C1079 1.491 . S
C1085 C1084 1.400 . S
C1085 C1086 1.398 . S
C1086 H1074 0.950 . S
C1086 C1085 1.398 . S
C1086 C1087 1.391 . S
C1087 H1075 0.950 . S
C1087 C1083 1.393 . S
C1087 C1086 1.391 . S
H1088 C1096 0.950 . S
H1089 C1101 0.950 . S
H1090 C1098 0.950 . S
H1091 C1100 0.950 . S
H1092 C1102 0.950 . S
H1093 C1104 0.950 . S
H1094 C1106 0.950 . S
H1095 C1107 0.950 . S
C1096 H1088 0.950 . S
C1096 C1097 1.386 . S
C1096 C1098 1.391 . S
C1097 C1096 1.386 . S
C1097 C1101 1.393 . S
C1098 H1090 0.950 . S
C1098 C1096 1.391 . S
C1098 C1099 1.400 . S
C1099 C1098 1.400 . S
C1099 C1100 1.398 . S
C1099 C1105 1.491 . S
C1100 H1091 0.950 . S
C1100 C1099 1.398 . S
C1100 C1101 1.391 . S
C1101 H1089 0.950 . S
C1101 C1097 1.393 . S
C1101 C1100 1.391 . S
C1102 H1092 0.950 . S
C1102 C1103 1.386 . S
C1102 C1104 1.391 . S
C1103 C1102 1.386 . S
C1103 C1107 1.393 . S
C1104 H1093 0.950 . S
C1104 C1102 1.391 . S
C1104 C1105 1.400 . S
C1105 C1099 1.491 . S
C1105 C1104 1.400 . S
C1105 C1106 1.398 . S
C1106 H1094 0.950 . S
C1106 C1105 1.398 . S
C1106 C1107 1.391 . S
C1107 H1095 0.950 . S
C1107 C1103 1.393 . S
C1107 C1106 1.391 . S
H1108 C1116 0.938 1_455 S
H1109 C1121 0.950 . S
H1110 C1118 0.950 1_455 S
H1111 C1120 0.950 . S
H1112 C1122 0.950 . S
H1113 C1124 0.950 . S
H1114 C1126 0.950 . S
H1115 C1127 0.950 . S
C1116 H1108 0.938 1_655 S
C1116 C1117 1.386 . S
C1116 C1118 1.391 . S
C1117 C1116 1.386 . S
C1117 C1121 1.393 . S
C1118 H1110 0.950 1_655 S
C1118 C1116 1.391 . S
C1118 C1119 1.400 . S
C1119 C1118 1.400 . S
C1119 C1120 1.398 . S
C1119 C1125 1.491 . S
C1120 H1111 0.950 . S
C1120 C1119 1.398 . S
C1120 C1121 1.391 . S
C1121 H1109 0.950 . S
C1121 C1117 1.393 . S
C1121 C1120 1.391 . S
C1122 H1112 0.950 . S
C1122 C1123 1.386 . S
C1122 C1124 1.391 . S
C1123 C1122 1.386 . S
C1123 C1127 1.393 1_655 S
C1124 H1113 0.950 . S
C1124 C1122 1.391 . S
C1124 C1125 1.400 . S
C1125 C1119 1.491 . S
C1125 C1124 1.400 . S
C1125 C1126 1.398 1_655 S
C1126 H1114 0.950 . S
C1126 C1125 1.398 1_455 S
C1126 C1127 1.391 . S
C1127 H1115 0.950 . S
C1127 C1123 1.393 1_455 S
C1127 C1126 1.391 . S
H1128 C1136 0.950 . S
H1129 C1141 0.950 . S
H1130 C1138 0.950 . S
H1131 C1140 0.950 . S
H1132 C1142 0.950 . S
H1133 C1144 0.950 . S
H1134 C1146 0.950 . S
H1135 C1147 0.950 . S
C1136 H1128 0.950 . S
C1136 C1137 1.386 . S
C1136 C1138 1.391 . S
C1137 C1136 1.386 . S
C1137 C1141 1.393 . S
C1138 H1130 0.950 . S
C1138 C1136 1.391 . S
C1138 C1139 1.400 . S
C1139 C1138 1.400 . S
C1139 C1140 1.398 . S
C1139 C1145 1.491 . S
C1140 H1131 0.950 . S
C1140 C1139 1.398 . S
C1140 C1141 1.391 . S
C1141 H1129 0.950 . S
C1141 C1137 1.393 . S
C1141 C1140 1.391 . S
C1142 H1132 0.950 . S
C1142 C1143 1.386 . S
C1142 C1144 1.391 . S
C1143 C1142 1.386 . S
C1143 C1147 1.393 . S
C1144 H1133 0.950 . S
C1144 C1142 1.391 . S
C1144 C1145 1.400 . S
C1145 C1139 1.491 . S
C1145 C1144 1.400 . S
C1145 C1146 1.398 . S
C1146 H1134 0.950 . S
C1146 C1145 1.398 . S
C1146 C1147 1.391 . S
C1147 H1135 0.950 . S
C1147 C1143 1.393 . S
C1147 C1146 1.391 . S
H1148 C1156 0.950 . S
H1149 C1161 0.950 . S
H1150 C1158 0.950 . S
H1151 C1160 0.950 . S
H1152 C1162 0.950 . S
H1153 C1164 0.950 . S
H1154 C1166 0.950 . S
H1155 C1167 0.950 . S
C1156 H1148 0.950 . S
C1156 C1157 1.386 . S
C1156 C1158 1.391 . S
C1157 C1156 1.386 . S
C1157 C1161 1.393 . S
C1158 H1150 0.950 . S
C1158 C1156 1.391 . S
C1158 C1159 1.400 . S
C1159 C1158 1.400 . S
C1159 C1160 1.398 . S
C1159 C1165 1.491 . S
C1160 H1151 0.950 . S
C1160 C1159 1.398 . S
C1160 C1161 1.391 . S
C1161 H1149 0.950 . S
C1161 C1157 1.393 . S
C1161 C1160 1.391 . S
C1162 H1152 0.950 . S
C1162 C1163 1.386 . S
C1162 C1164 1.391 . S
C1163 C1162 1.386 . S
C1163 C1167 1.393 . S
C1164 H1153 0.950 . S
C1164 C1162 1.391 . S
C1164 C1165 1.400 . S
C1165 C1159 1.491 . S
C1165 C1164 1.400 . S
C1165 C1166 1.398 . S
C1166 H1154 0.950 . S
C1166 C1165 1.398 . S
C1166 C1167 1.391 . S
C1167 H1155 0.950 . S
C1167 C1163 1.393 . S
C1167 C1166 1.391 . S
H1168 C1176 0.950 1_554 S
H1169 C1181 0.950 . S
H1170 C1178 0.922 1_554 S
H1171 C1180 0.950 . S
H1172 C1182 0.950 . S
H1173 C1184 0.950 . S
H1174 C1186 0.950 . S
H1175 C1187 0.950 . S
C1176 H1168 0.950 1_556 S
C1176 C1177 1.386 . S
C1176 C1178 1.401 . S
C1177 C1176 1.386 . S
C1177 C1181 1.393 . S
C1178 H1170 0.922 1_556 S
C1178 C1176 1.401 . S
C1178 C1179 1.421 . S
C1179 C1178 1.421 . S
C1179 C1180 1.398 . S
C1179 C1185 1.491 . S
C1180 H1171 0.950 . S
C1180 C1179 1.398 . S
C1180 C1181 1.391 . S
C1181 H1169 0.950 . S
C1181 C1177 1.393 . S
C1181 C1180 1.391 . S
C1182 H1172 0.950 . S
C1182 C1183 1.386 . S
C1182 C1184 1.391 . S
C1183 C1182 1.386 . S
C1183 C1187 1.393 1_556 S
C1184 H1173 0.950 . S
C1184 C1182 1.391 . S
C1184 C1185 1.400 . S
C1185 C1179 1.491 . S
C1185 C1184 1.400 . S
C1185 C1186 1.398 1_556 S
C1186 H1174 0.950 . S
C1186 C1185 1.398 1_554 S
C1186 C1187 1.391 . S
C1187 H1175 0.950 . S
C1187 C1183 1.393 1_554 S
C1187 C1186 1.391 . S
H1188 C1196 0.950 . S
H1189 C1201 0.950 . S
H1190 C1198 0.950 . S
H1191 C1200 0.950 . S
H1192 C1202 0.950 . S
H1193 C1204 0.950 . S
H1194 C1206 0.950 . S
H1195 C1207 0.950 . S
C1196 H1188 0.950 . S
C1196 C1197 1.386 . S
C1196 C1198 1.391 . S
C1197 C1196 1.386 . S
C1197 C1201 1.393 . S
C1198 H1190 0.950 . S
C1198 C1196 1.391 . S
C1198 C1199 1.400 . S
C1199 C1198 1.400 . S
C1199 C1200 1.398 . S
C1199 C1205 1.491 . S
C1200 H1191 0.950 . S
C1200 C1199 1.398 . S
C1200 C1201 1.391 . S
C1201 H1189 0.950 . S
C1201 C1197 1.393 . S
C1201 C1200 1.391 . S
C1202 H1192 0.950 . S
C1202 C1203 1.386 . S
C1202 C1204 1.391 . S
C1203 C1202 1.386 . S
C1203 C1207 1.393 . S
C1204 H1193 0.950 . S
C1204 C1202 1.391 . S
C1204 C1205 1.400 . S
C1205 C1199 1.491 . S
C1205 C1204 1.400 . S
C1205 C1206 1.398 . S
C1206 H1194 0.950 . S
C1206 C1205 1.398 . S
C1206 C1207 1.391 . S
C1207 H1195 0.950 . S
C1207 C1203 1.393 . S
C1207 C1206 1.391 . S
H1208 C1216 0.950 . S
H1209 C1221 0.950 . S
H1210 C1218 0.950 . S
H1211 C1220 0.950 . S
H1212 C1222 0.950 . S
H1213 C1224 0.950 . S
H1214 C1226 0.950 . S
H1215 C1227 0.950 . S
C1216 H1208 0.950 . S
C1216 C1217 1.386 . S
C1216 C1218 1.391 . S
C1217 C1216 1.386 . S
C1217 C1221 1.393 . S
C1218 H1210 0.950 . S
C1218 C1216 1.391 . S
C1218 C1219 1.400 . S
C1219 C1218 1.400 . S
C1219 C1220 1.398 . S
C1219 C1225 1.491 . S
C1220 H1211 0.950 . S
C1220 C1219 1.398 . S
C1220 C1221 1.391 . S
C1221 H1209 0.950 . S
C1221 C1217 1.393 . S
C1221 C1220 1.391 . S
C1222 H1212 0.950 . S
C1222 C1223 1.386 . S
C1222 C1224 1.391 . S
C1223 C1222 1.386 . S
C1223 C1227 1.393 . S
C1224 H1213 0.950 . S
C1224 C1222 1.391 . S
C1224 C1225 1.400 . S
C1225 C1219 1.491 . S
C1225 C1224 1.400 . S
C1225 C1226 1.398 . S
C1226 H1214 0.950 . S
C1226 C1225 1.398 . S
C1226 C1227 1.391 . S
C1227 H1215 0.950 . S
C1227 C1223 1.393 . S
C1227 C1226 1.391 . S
H1228 C1236 0.950 . S
H1229 C1241 0.950 . S
H1230 C1238 0.950 . S
H1231 C1240 0.950 . S
H1232 C1242 0.950 . S
H1233 C1244 0.950 . S
H1234 C1246 0.950 . S
H1235 C1247 0.950 . S
C1236 H1228 0.950 . S
C1236 C1237 1.386 . S
C1236 C1238 1.391 . S
C1237 C1236 1.386 . S
C1237 C1241 1.393 . S
C1238 H1230 0.950 . S
C1238 C1236 1.391 . S
C1238 C1239 1.400 . S
C1239 C1238 1.400 . S
C1239 C1240 1.398 . S
C1239 C1245 1.491 . S
C1240 H1231 0.950 . S
C1240 C1239 1.398 . S
C1240 C1241 1.391 . S
C1241 H1229 0.950 . S
C1241 C1237 1.393 . S
C1241 C1240 1.391 . S
C1242 H1232 0.950 . S
C1242 C1243 1.386 . S
C1242 C1244 1.391 . S
C1243 C1242 1.386 . S
C1243 C1247 1.393 . S
C1244 H1233 0.950 . S
C1244 C1242 1.391 . S
C1244 C1245 1.400 . S
C1245 C1239 1.491 . S
C1245 C1244 1.400 . S
C1245 C1246 1.398 . S
C1246 H1234 0.950 . S
C1246 C1245 1.398 . S
C1246 C1247 1.391 . S
C1247 H1235 0.950 . S
C1247 C1243 1.393 . S
C1247 C1246 1.391 . S
H1248 C1256 0.950 . S
H1249 C1261 0.950 . S
H1250 C1258 0.950 . S
H1251 C1260 0.950 . S
H1252 C1262 0.950 . S
H1253 C1264 0.950 . S
H1254 C1266 0.950 . S
H1255 C1267 0.950 . S
C1256 H1248 0.950 . S
C1256 C1257 1.386 . S
C1256 C1258 1.391 . S
C1257 C1256 1.386 . S
C1257 C1261 1.393 . S
C1258 H1250 0.950 . S
C1258 C1256 1.391 . S
C1258 C1259 1.400 . S
C1259 C1258 1.400 . S
C1259 C1260 1.398 . S
C1259 C1265 1.491 . S
C1260 H1251 0.950 . S
C1260 C1259 1.398 . S
C1260 C1261 1.391 . S
C1261 H1249 0.950 . S
C1261 C1257 1.393 . S
C1261 C1260 1.391 . S
C1262 H1252 0.950 . S
C1262 C1263 1.386 . S
C1262 C1264 1.391 . S
C1263 C1262 1.386 . S
C1263 C1267 1.393 . S
C1264 H1253 0.950 . S
C1264 C1262 1.391 . S
C1264 C1265 1.400 . S
C1265 C1259 1.491 . S
C1265 C1264 1.400 . S
C1265 C1266 1.398 . S
C1266 H1254 0.950 . S
C1266 C1265 1.398 . S
C1266 C1267 1.391 . S
C1267 H1255 0.950 . S
C1267 C1263 1.393 . S
C1267 C1266 1.391 . S
H1268 C1276 0.950 . S
H1269 C1281 0.950 . S
H1270 C1278 0.950 . S
H1271 C1280 0.950 . S
H1272 C1282 0.950 . S
H1273 C1284 0.950 . S
H1274 C1286 0.950 . S
H1275 C1287 0.950 . S
C1276 H1268 0.950 . S
C1276 C1277 1.386 . S
C1276 C1278 1.391 . S
C1277 C1276 1.386 . S
C1277 C1281 1.393 . S
C1278 H1270 0.950 . S
C1278 C1276 1.391 . S
C1278 C1279 1.400 . S
C1279 C1278 1.400 . S
C1279 C1280 1.398 . S
C1279 C1285 1.491 . S
C1280 H1271 0.950 . S
C1280 C1279 1.398 . S
C1280 C1281 1.391 . S
C1281 H1269 0.950 . S
C1281 C1277 1.393 . S
C1281 C1280 1.391 . S
C1282 H1272 0.950 . S
C1282 C1283 1.386 . S
C1282 C1284 1.391 . S
C1283 C1282 1.386 . S
C1283 C1287 1.393 . S
C1284 H1273 0.950 . S
C1284 C1282 1.391 . S
C1284 C1285 1.400 . S
C1285 C1279 1.491 . S
C1285 C1284 1.400 . S
C1285 C1286 1.398 . S
C1286 H1274 0.950 . S
C1286 C1285 1.398 . S
C1286 C1287 1.391 . S
C1287 H1275 0.950 . S
C1287 C1283 1.393 . S
C1287 C1286 1.391 . S
H1288 C1296 0.950 . S
H1289 C1301 0.950 . S
H1290 C1298 0.950 . S
H1291 C1300 0.950 . S
H1292 C1302 0.950 . S
H1293 C1304 0.950 . S
H1294 C1306 0.950 . S
H1295 C1307 0.950 . S
C1296 H1288 0.950 . S
C1296 C1297 1.386 . S
C1296 C1298 1.391 . S
C1297 C1296 1.386 . S
C1297 C1301 1.393 . S
C1298 H1290 0.950 . S
C1298 C1296 1.391 . S
C1298 C1299 1.400 . S
C1299 C1298 1.400 . S
C1299 C1300 1.398 . S
C1299 C1305 1.491 . S
C1300 H1291 0.950 . S
C1300 C1299 1.398 . S
C1300 C1301 1.391 . S
C1301 H1289 0.950 . S
C1301 C1297 1.393 . S
C1301 C1300 1.391 . S
C1302 H1292 0.950 . S
C1302 C1303 1.386 . S
C1302 C1304 1.391 . S
C1303 C1302 1.386 . S
C1303 C1307 1.393 . S
C1304 H1293 0.950 . S
C1304 C1302 1.391 . S
C1304 C1305 1.400 . S
C1305 C1299 1.491 . S
C1305 C1304 1.400 . S
C1305 C1306 1.398 . S
C1306 H1294 0.950 . S
C1306 C1305 1.398 . S
C1306 C1307 1.391 . S
C1307 H1295 0.950 . S
C1307 C1303 1.393 . S
C1307 C1306 1.391 . S
H1308 C1316 0.950 . S
H1309 C1321 0.950 . S
H1310 C1318 0.950 . S
H1311 C1320 0.950 . S
H1312 C1322 0.950 . S
H1313 C1324 0.950 . S
H1314 C1326 0.950 . S
H1315 C1327 0.950 . S
C1316 H1308 0.950 . S
C1316 C1317 1.386 . S
C1316 C1318 1.391 . S
C1317 C1316 1.386 . S
C1317 C1321 1.393 . S
C1318 H1310 0.950 . S
C1318 C1316 1.391 . S
C1318 C1319 1.400 . S
C1319 C1318 1.400 . S
C1319 C1320 1.398 . S
C1319 C1325 1.491 . S
C1320 H1311 0.950 . S
C1320 C1319 1.398 . S
C1320 C1321 1.391 . S
C1321 H1309 0.950 . S
C1321 C1317 1.393 . S
C1321 C1320 1.391 . S
C1322 H1312 0.950 . S
C1322 C1323 1.386 . S
C1322 C1324 1.391 . S
C1323 C1322 1.386 . S
C1323 C1327 1.393 . S
C1324 H1313 0.950 . S
C1324 C1322 1.391 . S
C1324 C1325 1.400 . S
C1325 C1319 1.491 . S
C1325 C1324 1.400 . S
C1325 C1326 1.398 . S
C1326 H1314 0.950 . S
C1326 C1325 1.398 . S
C1326 C1327 1.391 . S
C1327 H1315 0.950 . S
C1327 C1323 1.393 . S
C1327 C1326 1.391 . S
H1328 C1336 0.950 . S
H1329 C1341 0.950 . S
H1330 C1338 0.950 . S
H1331 C1340 0.950 . S
H1332 C1342 0.950 . S
H1333 C1344 0.950 . S
H1334 C1346 0.950 . S
H1335 C1347 0.950 . S
C1336 H1328 0.950 . S
C1336 C1337 1.386 . S
C1336 C1338 1.391 . S
C1337 C1336 1.386 . S
C1337 C1341 1.393 . S
C1338 H1330 0.950 . S
C1338 C1336 1.391 . S
C1338 C1339 1.400 . S
C1339 C1338 1.400 . S
C1339 C1340 1.398 . S
C1339 C1345 1.491 . S
C1340 H1331 0.950 . S
C1340 C1339 1.398 . S
C1340 C1341 1.391 . S
C1341 H1329 0.950 . S
C1341 C1337 1.393 . S
C1341 C1340 1.391 . S
C1342 H1332 0.950 . S
C1342 C1343 1.386 . S
C1342 C1344 1.391 . S
C1343 C1342 1.386 . S
C1343 C1347 1.393 . S
C1344 H1333 0.950 . S
C1344 C1342 1.391 . S
C1344 C1345 1.400 . S
C1345 C1339 1.491 . S
C1345 C1344 1.400 . S
C1345 C1346 1.398 . S
C1346 H1334 0.950 . S
C1346 C1345 1.398 . S
C1346 C1347 1.391 . S
C1347 H1335 0.950 . S
C1347 C1343 1.393 . S
C1347 C1346 1.391 . S
H1348 C1356 0.950 . S
H1349 C1361 0.950 . S
H1350 C1358 0.950 . S
H1351 C1360 0.950 . S
H1352 C1362 0.950 . S
H1353 C1364 0.950 . S
H1354 C1366 0.950 . S
H1355 C1367 0.950 . S
C1356 H1348 0.950 . S
C1356 C1357 1.386 . S
C1356 C1358 1.391 . S
C1357 C1356 1.386 . S
C1357 C1361 1.393 . S
C1358 H1350 0.950 . S
C1358 C1356 1.391 . S
C1358 C1359 1.400 . S
C1359 C1358 1.400 . S
C1359 C1360 1.398 . S
C1359 C1365 1.491 . S
C1360 H1351 0.950 . S
C1360 C1359 1.398 . S
C1360 C1361 1.391 . S
C1361 H1349 0.950 . S
C1361 C1357 1.393 . S
C1361 C1360 1.391 . S
C1362 H1352 0.950 . S
C1362 C1363 1.386 . S
C1362 C1364 1.391 . S
C1363 C1362 1.386 . S
C1363 C1367 1.393 . S
C1364 H1353 0.950 . S
C1364 C1362 1.391 . S
C1364 C1365 1.400 . S
C1365 C1359 1.491 . S
C1365 C1364 1.400 . S
C1365 C1366 1.398 . S
C1366 H1354 0.950 . S
C1366 C1365 1.398 . S
C1366 C1367 1.391 . S
C1367 H1355 0.950 . S
C1367 C1363 1.393 . S
C1367 C1366 1.391 . S
H1368 C1376 0.950 . S
H1369 C1381 0.950 . S
H1370 C1378 0.950 . S
H1371 C1380 0.950 . S
H1372 C1382 0.950 . S
H1373 C1384 0.950 . S
H1374 C1386 0.950 . S
H1375 C1387 0.950 . S
C1376 H1368 0.950 . S
C1376 C1377 1.386 . S
C1376 C1378 1.391 . S
C1377 C1376 1.386 . S
C1377 C1381 1.393 . S
C1378 H1370 0.950 . S
C1378 C1376 1.391 . S
C1378 C1379 1.400 . S
C1379 C1378 1.400 . S
C1379 C1380 1.398 . S
C1379 C1385 1.491 . S
C1380 H1371 0.950 . S
C1380 C1379 1.398 . S
C1380 C1381 1.391 . S
C1381 H1369 0.950 . S
C1381 C1377 1.393 . S
C1381 C1380 1.391 . S
C1382 H1372 0.950 . S
C1382 C1383 1.386 . S
C1382 C1384 1.391 . S
C1383 C1382 1.386 . S
C1383 C1387 1.393 . S
C1384 H1373 0.950 . S
C1384 C1382 1.391 . S
C1384 C1385 1.400 . S
C1385 C1379 1.491 . S
C1385 C1384 1.400 . S
C1385 C1386 1.398 . S
C1386 H1374 0.950 . S
C1386 C1385 1.398 . S
C1386 C1387 1.391 . S
C1387 H1375 0.950 . S
C1387 C1383 1.393 . S
C1387 C1386 1.391 . S
H1388 C1396 0.950 . S
H1389 C1401 0.950 1_565 S
H1390 C1398 0.950 . S
H1391 C1400 0.950 1_565 S
H1392 C1402 0.950 1_565 S
H1393 C1404 0.950 1_565 S
H1394 C1406 0.950 . S
H1395 C1407 0.950 . S
C1396 H1388 0.950 . S
C1396 C1397 1.386 . S
C1396 C1398 1.391 . S
C1397 C1396 1.386 . S
C1397 C1401 1.393 . S
C1398 H1390 0.950 . S
C1398 C1396 1.391 . S
C1398 C1399 1.400 . S
C1399 C1398 1.400 . S
C1399 C1400 1.398 . S
C1399 C1405 1.491 . S
C1400 H1391 0.950 1_545 S
C1400 C1399 1.398 . S
C1400 C1401 1.391 . S
C1401 H1389 0.950 1_545 S
C1401 C1397 1.393 . S
C1401 C1400 1.391 . S
C1402 H1392 0.950 1_545 S
C1402 C1403 1.386 . S
C1402 C1404 1.391 . S
C1403 C1402 1.386 . S
C1403 C1407 1.393 . S
C1404 H1393 0.950 1_545 S
C1404 C1402 1.391 . S
C1404 C1405 1.400 . S
C1405 C1399 1.491 . S
C1405 C1404 1.400 . S
C1405 C1406 1.398 . S
C1406 H1394 0.950 . S
C1406 C1405 1.398 . S
C1406 C1407 1.391 . S
C1407 H1395 0.950 . S
C1407 C1403 1.393 . S
C1407 C1406 1.391 . S
H1408 C1416 0.950 . S
H1409 C1421 0.950 . S
H1410 C1418 0.950 . S
H1411 C1420 0.950 . S
H1412 C1422 0.950 . S
H1413 C1424 0.950 . S
H1414 C1426 0.950 . S
H1415 C1427 0.950 . S
C1416 H1408 0.950 . S
C1416 C1417 1.386 . S
C1416 C1418 1.391 . S
C1417 C1416 1.386 . S
C1417 C1421 1.393 . S
C1418 H1410 0.950 . S
C1418 C1416 1.391 . S
C1418 C1419 1.400 . S
C1419 C1418 1.400 . S
C1419 C1420 1.398 . S
C1419 C1425 1.491 . S
C1420 H1411 0.950 . S
C1420 C1419 1.398 . S
C1420 C1421 1.391 . S
C1421 H1409 0.950 . S
C1421 C1417 1.393 . S
C1421 C1420 1.391 . S
C1422 H1412 0.950 . S
C1422 C1423 1.386 . S
C1422 C1424 1.391 . S
C1423 C1422 1.386 . S
C1423 C1427 1.393 . S
C1424 H1413 0.950 . S
C1424 C1422 1.391 . S
C1424 C1425 1.400 . S
C1425 C1419 1.491 . S
C1425 C1424 1.400 . S
C1425 C1426 1.398 . S
C1426 H1414 0.950 . S
C1426 C1425 1.398 . S
C1426 C1427 1.391 . S
C1427 H1415 0.950 . S
C1427 C1423 1.393 . S
C1427 C1426 1.391 . S
H1428 C1436 0.950 . S
H1429 C1441 0.950 . S
H1430 C1438 0.950 . S
H1431 C1440 0.950 . S
H1432 C1442 0.950 . S
H1433 C1444 0.950 . S
H1434 C1446 0.950 . S
H1435 C1447 0.950 . S
C1436 H1428 0.950 . S
C1436 C1437 1.386 . S
C1436 C1438 1.391 . S
C1437 C1436 1.386 . S
C1437 C1441 1.393 . S
C1438 H1430 0.950 . S
C1438 C1436 1.391 . S
C1438 C1439 1.400 . S
C1439 C1438 1.400 . S
C1439 C1440 1.398 . S
C1439 C1445 1.491 . S
C1440 H1431 0.950 . S
C1440 C1439 1.398 . S
C1440 C1441 1.391 . S
C1441 H1429 0.950 . S
C1441 C1437 1.393 . S
C1441 C1440 1.391 . S
C1442 H1432 0.950 . S
C1442 C1443 1.386 . S
C1442 C1444 1.391 . S
C1443 C1442 1.386 . S
C1443 C1447 1.393 . S
C1444 H1433 0.950 . S
C1444 C1442 1.391 . S
C1444 C1445 1.400 . S
C1445 C1439 1.491 . S
C1445 C1444 1.400 . S
C1445 C1446 1.398 . S
C1446 H1434 0.950 . S
C1446 C1445 1.398 . S
C1446 C1447 1.391 . S
C1447 H1435 0.950 . S
C1447 C1443 1.393 . S
C1447 C1446 1.391 . S
H1448 C1456 0.950 . S
H1449 C1461 0.950 . S
H1450 C1458 0.950 . S
H1451 C1460 0.950 . S
H1452 C1462 0.950 . S
H1453 C1464 0.950 . S
H1454 C1466 0.950 . S
H1455 C1467 0.950 . S
C1456 H1448 0.950 . S
C1456 C1457 1.386 . S
C1456 C1458 1.391 . S
C1457 C1456 1.386 . S
C1457 C1461 1.393 . S
C1458 H1450 0.950 . S
C1458 C1456 1.391 . S
C1458 C1459 1.400 . S
C1459 C1458 1.400 . S
C1459 C1460 1.398 . S
C1459 C1465 1.491 . S
C1460 H1451 0.950 . S
C1460 C1459 1.398 . S
C1460 C1461 1.391 . S
C1461 H1449 0.950 . S
C1461 C1457 1.393 . S
C1461 C1460 1.391 . S
C1462 H1452 0.950 . S
C1462 C1463 1.386 . S
C1462 C1464 1.391 . S
C1463 C1462 1.386 . S
C1463 C1467 1.393 . S
C1464 H1453 0.950 . S
C1464 C1462 1.391 . S
C1464 C1465 1.400 . S
C1465 C1459 1.491 . S
C1465 C1464 1.400 . S
C1465 C1466 1.398 . S
C1466 H1454 0.950 . S
C1466 C1465 1.398 . S
C1466 C1467 1.391 . S
C1467 H1455 0.950 . S
C1467 C1463 1.393 . S
C1467 C1466 1.391 . S
H1468 C1476 0.950 . S
H1469 C1481 0.950 . S
H1470 C1478 0.950 . S
H1471 C1480 0.950 . S
H1472 C1482 0.950 . S
H1473 C1484 0.950 . S
H1474 C1486 0.950 . S
H1475 C1487 0.950 . S
C1476 H1468 0.950 . S
C1476 C1477 1.386 . S
C1476 C1478 1.391 . S
C1477 C1476 1.386 . S
C1477 C1481 1.393 1_655 S
C1478 H1470 0.950 . S
C1478 C1476 1.391 . S
C1478 C1479 1.400 1_655 S
C1479 C1478 1.400 1_455 S
C1479 C1480 1.398 . S
C1479 C1485 1.491 . S
C1480 H1471 0.950 . S
C1480 C1479 1.398 . S
C1480 C1481 1.391 . S
C1481 H1469 0.950 . S
C1481 C1477 1.393 1_455 S
C1481 C1480 1.391 . S
C1482 H1472 0.950 . S
C1482 C1483 1.386 . S
C1482 C1484 1.391 . S
C1483 C1482 1.386 . S
C1483 C1487 1.393 1_455 S
C1484 H1473 0.950 . S
C1484 C1482 1.391 . S
C1484 C1485 1.400 . S
C1485 C1479 1.491 . S
C1485 C1484 1.400 . S
C1485 C1486 1.398 1_455 S
C1486 H1474 0.950 . S
C1486 C1485 1.398 1_655 S
C1486 C1487 1.391 . S
C1487 H1475 0.950 . S
C1487 C1483 1.393 1_655 S
C1487 C1486 1.391 . S
H1488 C1496 0.950 . S
H1489 C1501 0.950 . S
H1490 C1498 0.950 . S
H1491 C1500 0.950 . S
H1492 C1502 0.950 . S
H1493 C1504 0.950 . S
H1494 C1506 0.950 . S
H1495 C1507 0.950 . S
C1496 H1488 0.950 . S
C1496 C1497 1.386 . S
C1496 C1498 1.391 . S
C1497 C1496 1.386 . S
C1497 C1501 1.393 . S
C1498 H1490 0.950 . S
C1498 C1496 1.391 . S
C1498 C1499 1.400 . S
C1499 C1498 1.400 . S
C1499 C1500 1.398 . S
C1499 C1505 1.491 . S
C1500 H1491 0.950 . S
C1500 C1499 1.398 . S
C1500 C1501 1.391 . S
C1501 H1489 0.950 . S
C1501 C1497 1.393 . S
C1501 C1500 1.391 . S
C1502 H1492 0.950 . S
C1502 C1503 1.386 . S
C1502 C1504 1.391 . S
C1503 C1502 1.386 . S
C1503 C1507 1.393 . S
C1504 H1493 0.950 . S
C1504 C1502 1.391 . S
C1504 C1505 1.400 . S
C1505 C1499 1.491 . S
C1505 C1504 1.400 . S
C1505 C1506 1.398 . S
C1506 H1494 0.950 . S
C1506 C1505 1.398 . S
C1506 C1507 1.391 . S
C1507 H1495 0.950 . S
C1507 C1503 1.393 . S
C1507 C1506 1.391 . S
H1508 C1516 0.950 1_655 S
H1509 C1521 0.950 . S
H1510 C1518 0.950 1_655 S
H1511 C1520 0.950 . S
H1512 C1522 0.950 . S
H1513 C1524 0.950 . S
H1514 C1526 0.950 1_655 S
H1515 C1527 0.950 1_655 S
C1516 H1508 0.950 1_455 S
C1516 C1517 1.386 . S
C1516 C1518 1.391 . S
C1517 C1516 1.386 . S
C1517 C1521 1.393 . S
C1518 H1510 0.950 1_455 S
C1518 C1516 1.391 . S
C1518 C1519 1.400 . S
C1519 C1518 1.400 . S
C1519 C1520 1.398 . S
C1519 C1525 1.491 . S
C1520 H1511 0.950 . S
C1520 C1519 1.398 . S
C1520 C1521 1.391 . S
C1521 H1509 0.950 . S
C1521 C1517 1.393 . S
C1521 C1520 1.391 . S
C1522 H1512 0.950 . S
C1522 C1523 1.386 . S
C1522 C1524 1.391 . S
C1523 C1522 1.386 . S
C1523 C1527 1.393 . S
C1524 H1513 0.950 . S
C1524 C1522 1.391 . S
C1524 C1525 1.400 . S
C1525 C1519 1.491 . S
C1525 C1524 1.400 . S
C1525 C1526 1.398 . S
C1526 H1514 0.950 1_455 S
C1526 C1525 1.398 . S
C1526 C1527 1.391 . S
C1527 H1515 0.950 1_455 S
C1527 C1523 1.393 . S
C1527 C1526 1.391 . S
H1528 C1536 0.950 . S
H1529 C1541 0.950 . S
H1530 C1538 0.950 . S
H1531 C1540 0.950 . S
H1532 C1542 0.950 . S
H1533 C1544 0.950 . S
H1534 C1546 0.950 . S
H1535 C1547 0.950 . S
C1536 H1528 0.950 . S
C1536 C1537 1.386 . S
C1536 C1538 1.391 . S
C1537 C1536 1.386 . S
C1537 C1541 1.393 . S
C1538 H1530 0.950 . S
C1538 C1536 1.391 . S
C1538 C1539 1.400 . S
C1539 C1538 1.400 . S
C1539 C1540 1.398 . S
C1539 C1545 1.491 . S
C1540 H1531 0.950 . S
C1540 C1539 1.398 . S
C1540 C1541 1.391 . S
C1541 H1529 0.950 . S
C1541 C1537 1.393 . S
C1541 C1540 1.391 . S
C1542 H1532 0.950 . S
C1542 C1543 1.386 . S
C1542 C1544 1.391 . S
C1543 C1542 1.386 . S
C1543 C1547 1.393 . S
C1544 H1533 0.950 . S
C1544 C1542 1.391 . S
C1544 C1545 1.400 . S
C1545 C1539 1.491 . S
C1545 C1544 1.400 . S
C1545 C1546 1.398 . S
C1546 H1534 0.950 . S
C1546 C1545 1.398 . S
C1546 C1547 1.391 . S
C1547 H1535 0.950 . S
C1547 C1543 1.393 . S
C1547 C1546 1.391 . S
H1548 C1556 0.950 . S
H1549 C1561 0.950 . S
H1550 C1558 0.950 . S
H1551 C1560 0.950 . S
H1552 C1562 0.950 . S
H1553 C1564 0.950 . S
H1554 C1566 0.950 . S
H1555 C1567 0.950 . S
C1556 H1548 0.950 . S
C1556 C1557 1.386 . S
C1556 C1558 1.391 . S
C1557 C1556 1.386 . S
C1557 C1561 1.393 . S
C1558 H1550 0.950 . S
C1558 C1556 1.391 . S
C1558 C1559 1.400 . S
C1559 C1558 1.400 . S
C1559 C1560 1.398 . S
C1559 C1565 1.491 . S
C1560 H1551 0.950 . S
C1560 C1559 1.398 . S
C1560 C1561 1.391 . S
C1561 H1549 0.950 . S
C1561 C1557 1.393 . S
C1561 C1560 1.391 . S
C1562 H1552 0.950 . S
C1562 C1563 1.386 . S
C1562 C1564 1.391 . S
C1563 C1562 1.386 . S
C1563 C1567 1.393 . S
C1564 H1553 0.950 . S
C1564 C1562 1.391 . S
C1564 C1565 1.400 . S
C1565 C1559 1.491 . S
C1565 C1564 1.400 . S
C1565 C1566 1.398 . S
C1566 H1554 0.950 . S
C1566 C1565 1.398 . S
C1566 C1567 1.391 . S
C1567 H1555 0.950 . S
C1567 C1563 1.393 . S
C1567 C1566 1.391 . S
H1568 C1576 0.950 . S
H1569 C1581 0.950 . S
H1570 C1578 0.950 . S
H1571 C1580 0.950 . S
H1572 C1582 0.950 . S
H1573 C1584 0.950 . S
H1574 C1586 0.950 . S
H1575 C1587 0.950 . S
C1576 H1568 0.950 . S
C1576 C1577 1.386 . S
C1576 C1578 1.391 . S
C1577 C1576 1.386 . S
C1577 C1581 1.393 . S
C1578 H1570 0.950 . S
C1578 C1576 1.391 . S
C1578 C1579 1.400 . S
C1579 C1578 1.400 . S
C1579 C1580 1.398 . S
C1579 C1585 1.491 . S
C1580 H1571 0.950 . S
C1580 C1579 1.398 . S
C1580 C1581 1.391 . S
C1581 H1569 0.950 . S
C1581 C1577 1.393 . S
C1581 C1580 1.391 . S
C1582 H1572 0.950 . S
C1582 C1583 1.386 . S
C1582 C1584 1.391 . S
C1583 C1582 1.386 . S
C1583 C1587 1.393 . S
C1584 H1573 0.950 . S
C1584 C1582 1.391 . S
C1584 C1585 1.400 . S
C1585 C1579 1.491 . S
C1585 C1584 1.400 . S
C1585 C1586 1.398 . S
C1586 H1574 0.950 . S
C1586 C1585 1.398 . S
C1586 C1587 1.391 . S
C1587 H1575 0.950 . S
C1587 C1583 1.393 . S
C1587 C1586 1.391 . S
H1588 C1596 0.950 . S
H1589 C1601 0.950 . S
H1590 C1598 0.950 . S
H1591 C1600 0.950 . S
H1592 C1602 0.950 . S
H1593 C1604 0.950 . S
H1594 C1606 0.950 . S
H1595 C1607 0.950 . S
C1596 H1588 0.950 . S
C1596 C1597 1.386 . S
C1596 C1598 1.391 . S
C1597 C1596 1.386 . S
C1597 C1601 1.393 . S
C1598 H1590 0.950 . S
C1598 C1596 1.391 . S
C1598 C1599 1.400 . S
C1599 C1598 1.400 . S
C1599 C1600 1.398 . S
C1599 C1605 1.491 . S
C1600 H1591 0.950 . S
C1600 C1599 1.398 . S
C1600 C1601 1.391 . S
C1601 H1589 0.950 . S
C1601 C1597 1.393 . S
C1601 C1600 1.391 . S
C1602 H1592 0.950 . S
C1602 C1603 1.386 . S
C1602 C1604 1.391 . S
C1603 C1602 1.386 . S
C1603 C1607 1.393 . S
C1604 H1593 0.950 . S
C1604 C1602 1.391 . S
C1604 C1605 1.400 . S
C1605 C1599 1.491 . S
C1605 C1604 1.400 . S
C1605 C1606 1.398 . S
C1606 H1594 0.950 . S
C1606 C1605 1.398 . S
C1606 C1607 1.391 . S
C1607 H1595 0.950 . S
C1607 C1603 1.393 . S
C1607 C1606 1.391 . S
H1608 C1616 0.950 . S
H1609 C1621 0.950 . S
H1610 C1618 0.950 . S
H1611 C1620 0.950 . S
H1612 C1622 0.950 . S
H1613 C1624 0.950 . S
H1614 C1626 0.950 . S
H1615 C1627 0.950 . S
C1616 H1608 0.950 . S
C1616 C1617 1.386 . S
C1616 C1618 1.391 . S
C1617 C1616 1.386 . S
C1617 C1621 1.393 . S
C1618 H1610 0.950 . S
C1618 C1616 1.391 . S
C1618 C1619 1.400 . S
C1619 C1618 1.400 . S
C1619 C1620 1.398 . S
C1619 C1625 1.491 . S
C1620 H1611 0.950 . S
C1620 C1619 1.398 . S
C1620 C1621 1.391 . S
C1621 H1609 0.950 . S
C1621 C1617 1.393 . S
C1621 C1620 1.391 . S
C1622 H1612 0.950 . S
C1622 C1623 1.386 . S
C1622 C1624 1.391 . S
C1623 C1622 1.386 . S
C1623 C1627 1.393 . S
C1624 H1613 0.950 . S
C1624 C1622 1.391 . S
C1624 C1625 1.400 . S
C1625 C1619 1.491 . S
C1625 C1624 1.400 . S
C1625 C1626 1.398 . S
C1626 H1614 0.950 . S
C1626 C1625 1.398 . S
C1626 C1627 1.391 . S
C1627 H1615 0.950 . S
C1627 C1623 1.393 . S
C1627 C1626 1.391 . S
H1628 C1636 0.950 . S
H1629 C1641 0.950 . S
H1630 C1638 0.950 . S
H1631 C1640 0.950 . S
H1632 C1642 0.950 . S
H1633 C1644 0.950 . S
H1634 C1646 0.950 . S
H1635 C1647 0.950 . S
C1636 H1628 0.950 . S
C1636 C1637 1.386 . S
C1636 C1638 1.391 . S
C1637 C1636 1.386 . S
C1637 C1641 1.393 . S
C1638 H1630 0.950 . S
C1638 C1636 1.391 . S
C1638 C1639 1.400 . S
C1639 C1638 1.400 . S
C1639 C1640 1.398 . S
C1639 C1645 1.491 . S
C1640 H1631 0.950 . S
C1640 C1639 1.398 . S
C1640 C1641 1.391 . S
C1641 H1629 0.950 . S
C1641 C1637 1.393 . S
C1641 C1640 1.391 . S
C1642 H1632 0.950 . S
C1642 C1643 1.386 . S
C1642 C1644 1.391 . S
C1643 C1642 1.386 . S
C1643 C1647 1.393 . S
C1644 H1633 0.950 . S
C1644 C1642 1.391 . S
C1644 C1645 1.400 . S
C1645 C1639 1.491 . S
C1645 C1644 1.400 . S
C1645 C1646 1.398 . S
C1646 H1634 0.950 . S
C1646 C1645 1.398 . S
C1646 C1647 1.391 . S
C1647 H1635 0.950 . S
C1647 C1643 1.393 . S
C1647 C1646 1.391 . S
H1648 C1656 0.950 . S
H1649 C1661 0.950 . S
H1650 C1658 0.950 . S
H1651 C1660 0.950 . S
H1652 C1662 0.950 . S
H1653 C1664 0.950 . S
H1654 C1666 0.950 . S
H1655 C1667 0.950 . S
C1656 H1648 0.950 . S
C1656 C1657 1.386 . S
C1656 C1658 1.391 . S
C1657 C1656 1.386 . S
C1657 C1661 1.393 . S
C1658 H1650 0.950 . S
C1658 C1656 1.391 . S
C1658 C1659 1.400 . S
C1659 C1658 1.400 . S
C1659 C1660 1.398 . S
C1659 C1665 1.491 . S
C1660 H1651 0.950 . S
C1660 C1659 1.398 . S
C1660 C1661 1.391 . S
C1661 H1649 0.950 . S
C1661 C1657 1.393 . S
C1661 C1660 1.391 . S
C1662 H1652 0.950 . S
C1662 C1663 1.386 . S
C1662 C1664 1.391 . S
C1663 C1662 1.386 . S
C1663 C1667 1.393 . S
C1664 H1653 0.950 . S
C1664 C1662 1.391 . S
C1664 C1665 1.400 . S
C1665 C1659 1.491 . S
C1665 C1664 1.400 . S
C1665 C1666 1.398 . S
C1666 H1654 0.950 . S
C1666 C1665 1.398 . S
C1666 C1667 1.391 . S
C1667 H1655 0.950 . S
C1667 C1663 1.393 . S
C1667 C1666 1.391 . S
H1668 C1676 0.950 . S
H1669 C1681 0.950 . S
H1670 C1678 0.950 . S
H1671 C1680 0.950 . S
H1672 C1682 0.950 . S
H1673 C1684 0.950 . S
H1674 C1686 0.950 . S
H1675 C1687 0.950 . S
C1676 H1668 0.950 . S
C1676 C1677 1.386 . S
C1676 C1678 1.391 . S
C1677 C1676 1.386 . S
C1677 C1681 1.393 . S
C1678 H1670 0.950 . S
C1678 C1676 1.391 . S
C1678 C1679 1.400 . S
C1679 C1678 1.400 . S
C1679 C1680 1.398 . S
C1679 C1685 1.491 . S
C1680 H1671 0.950 . S
C1680 C1679 1.398 . S
C1680 C1681 1.391 . S
C1681 H1669 0.950 . S
C1681 C1677 1.393 . S
C1681 C1680 1.391 . S
C1682 H1672 0.950 . S
C1682 C1683 1.386 . S
C1682 C1684 1.391 . S
C1683 C1682 1.386 . S
C1683 C1687 1.393 . S
C1684 H1673 0.950 . S
C1684 C1682 1.391 . S
C1684 C1685 1.400 . S
C1685 C1679 1.491 . S
C1685 C1684 1.400 . S
C1685 C1686 1.398 . S
C1686 H1674 0.950 . S
C1686 C1685 1.398 . S
C1686 C1687 1.391 . S
C1687 H1675 0.950 . S
C1687 C1683 1.393 . S
C1687 C1686 1.391 . S
H1688 C1696 0.950 . S
H1689 C1701 0.950 1_554 S
H1690 C1698 0.950 . S
H1691 C1700 0.950 1_554 S
H1692 C1702 0.950 . S
H1693 C1704 0.950 . S
H1694 C1706 0.950 . S
H1695 C1707 0.950 . S
C1696 H1688 0.950 . S
C1696 C1697 1.386 . S
C1696 C1698 1.391 . S
C1697 C1696 1.386 . S
C1697 C1701 1.393 . S
C1698 H1690 0.950 . S
C1698 C1696 1.391 . S
C1698 C1699 1.400 . S
C1699 C1698 1.400 . S
C1699 C1700 1.398 . S
C1699 C1705 1.491 . S
C1700 H1691 0.950 1_556 S
C1700 C1699 1.398 . S
C1700 C1701 1.391 . S
C1701 H1689 0.950 1_556 S
C1701 C1697 1.393 . S
C1701 C1700 1.391 . S
C1702 H1692 0.950 . S
C1702 C1703 1.386 1_554 S
C1702 C1704 1.391 . S
C1703 C1702 1.386 1_556 S
C1703 C1707 1.393 . S
C1704 H1693 0.950 . S
C1704 C1702 1.391 . S
C1704 C1705 1.400 1_554 S
C1705 C1699 1.491 . S
C1705 C1704 1.400 1_556 S
C1705 C1706 1.398 . S
C1706 H1694 0.950 . S
C1706 C1705 1.398 . S
C1706 C1707 1.391 . S
C1707 H1695 0.950 . S
C1707 C1703 1.393 . S
C1707 C1706 1.391 . S
H1708 C1716 0.950 . S
H1709 C1721 0.950 . S
H1710 C1718 0.950 . S
H1711 C1720 0.950 . S
H1712 C1722 0.950 . S
H1713 C1724 0.950 . S
H1714 C1726 0.950 . S
H1715 C1727 0.950 . S
C1716 H1708 0.950 . S
C1716 C1717 1.386 . S
C1716 C1718 1.391 . S
C1717 C1716 1.386 . S
C1717 C1721 1.393 . S
C1718 H1710 0.950 . S
C1718 C1716 1.391 . S
C1718 C1719 1.400 . S
C1719 C1718 1.400 . S
C1719 C1720 1.398 . S
C1719 C1725 1.491 . S
C1720 H1711 0.950 . S
C1720 C1719 1.398 . S
C1720 C1721 1.391 . S
C1721 H1709 0.950 . S
C1721 C1717 1.393 . S
C1721 C1720 1.391 . S
C1722 H1712 0.950 . S
C1722 C1723 1.386 . S
C1722 C1724 1.391 . S
C1723 C1722 1.386 . S
C1723 C1727 1.393 . S
C1724 H1713 0.950 . S
C1724 C1722 1.391 . S
C1724 C1725 1.400 . S
C1725 C1719 1.491 . S
C1725 C1724 1.400 . S
C1725 C1726 1.398 . S
C1726 H1714 0.950 . S
C1726 C1725 1.398 . S
C1726 C1727 1.391 . S
C1727 H1715 0.950 . S
C1727 C1723 1.393 . S
C1727 C1726 1.391 . S
H1728 C1736 0.950 1_556 S
H1729 C1741 0.950 . S
H1730 C1738 0.950 1_556 S
H1731 C1740 0.950 . S
H1732 C1742 0.950 . S
H1733 C1744 0.950 . S
H1734 C1746 0.944 1_556 S
H1735 C1747 0.950 . S
C1736 H1728 0.950 1_554 S
C1736 C1737 1.386 . S
C1736 C1738 1.391 . S
C1737 C1736 1.386 . S
C1737 C1741 1.393 . S
C1738 H1730 0.950 1_554 S
C1738 C1736 1.391 . S
C1738 C1739 1.400 . S
C1739 C1738 1.400 . S
C1739 C1740 1.398 . S
C1739 C1745 1.491 . S
C1740 H1731 0.950 . S
C1740 C1739 1.398 . S
C1740 C1741 1.391 . S
C1741 H1729 0.950 . S
C1741 C1737 1.393 . S
C1741 C1740 1.391 . S
C1742 H1732 0.950 . S
C1742 C1743 1.386 . S
C1742 C1744 1.391 . S
C1743 C1742 1.386 . S
C1743 C1747 1.393 1_554 S
C1744 H1733 0.950 . S
C1744 C1742 1.391 . S
C1744 C1745 1.400 . S
C1745 C1739 1.491 . S
C1745 C1744 1.400 . S
C1745 C1746 1.405 . S
C1746 H1734 0.944 1_554 S
C1746 C1745 1.405 . S
C1746 C1747 1.390 1_554 S
C1747 H1735 0.950 . S
C1747 C1743 1.393 1_556 S
C1747 C1746 1.390 1_556 S
H1748 C1756 0.961 . S
H1749 C1761 0.950 . S
H1750 C1758 0.950 1_556 S
H1751 C1760 0.950 . S
H1752 C1762 0.950 . S
H1753 C1764 0.950 . S
H1754 C1766 0.950 1_556 S
H1755 C1767 0.950 1_556 S
C1756 H1748 0.961 . S
C1756 C1757 1.386 . S
C1756 C1758 1.391 . S
C1757 C1756 1.386 . S
C1757 C1761 1.393 . S
C1758 H1750 0.950 1_554 S
C1758 C1756 1.391 . S
C1758 C1759 1.400 . S
C1759 C1758 1.400 . S
C1759 C1760 1.398 . S
C1759 C1765 1.491 . S
C1760 H1751 0.950 . S
C1760 C1759 1.398 . S
C1760 C1761 1.391 . S
C1761 H1749 0.950 . S
C1761 C1757 1.393 . S
C1761 C1760 1.391 . S
C1762 H1752 0.950 . S
C1762 C1763 1.386 . S
C1762 C1764 1.391 . S
C1763 C1762 1.386 . S
C1763 C1767 1.393 . S
C1764 H1753 0.950 . S
C1764 C1762 1.391 . S
C1764 C1765 1.400 . S
C1765 C1759 1.491 . S
C1765 C1764 1.400 . S
C1765 C1766 1.398 . S
C1766 H1754 0.950 1_554 S
C1766 C1765 1.398 . S
C1766 C1767 1.391 . S
C1767 H1755 0.950 1_554 S
C1767 C1763 1.393 . S
C1767 C1766 1.391 . S
C823 C651 1.416 . S
C817 C202 1.422 . S
C843 C659 1.299 . S
C837 C261 1.561 . S
C857 C282 1.443 . S
C863 C679 1.416 . S
C883 C693 1.500 . S
C877 C162 1.517 . S
C903 C708 1.512 . S
C897 C402 1.503 . S
C923 C722 1.525 . S
C917 C482 1.522 . S
C937 C442 1.572 . S
C943 C736 1.578 . S
C963 C742 1.452 . S
C957 C381 1.485 . S
C977 C461 1.558 . S
C983 C756 1.536 . S
C1003 C777 1.515 . S
C997 C362 1.519 . S
C1017 C415 1.418 . S
C1023 C757 1.183 . S
C1043 C778 1.563 . S
C1037 C495 1.558 . S
C1057 C301 1.527 . S
C1063 C785 1.233 . S
C1077 C175 1.532 . S
C1083 C791 1.521 . S
C1097 C215 1.468 . S
C1103 C784 1.434 . S
C1117 C242 1.449 . S
C1123 C792 1.455 . S
C1137 C141 1.516 . S
C1143 C686 1.485 . S
C1157 C581 1.519 . S
C1163 C687 1.284 . S
C1183 C644 1.452 1_556 S
C1177 C615 1.512 . S
C1203 C665 1.436 . S
C1197 C335 1.455 . S
C1217 C181 1.536 . S
C1223 C700 1.515 . S
C1243 C750 1.516 . S
C1237 C455 1.514 . S
C1263 C701 1.140 . S
C1257 C375 1.394 . S
C1283 C729 1.357 . S
C1277 C501 1.618 . S
C1303 C735 1.427 . S
C1297 C562 1.434 . S
C1317 C621 1.560 . S
C1323 C743 1.290 . S
C1337 C322 1.445 . S
C1343 C707 1.414 . S
C1363 C721 1.510 . S
C1357 C522 1.513 . S
C1377 C122 1.500 . S
C1383 C680 1.513 . S
C1403 C694 1.526 . S
C1397 C2 1.517 . S
C1423 C652 1.578 . S
C1417 C42 1.572 . S
C1443 C658 1.441 . S
C1437 C101 1.490 . S
C1457 C61 1.560 . S
C1463 C770 1.529 . S
C1477 C82 1.513 . S
C1483 C763 1.505 . S
C1497 C135 1.420 . S
C1503 C771 1.217 . S
C1517 C15 1.557 . S
C1523 C764 1.562 . S
C1543 C799 1.282 . S
C1537 C341 1.524 . S
C1563 C805 1.511 . S
C1557 C535 1.531 . S
C1583 C798 1.429 . S
C1577 C575 1.466 . S
C1597 C602 1.445 . S
C1603 C806 1.456 . S
C1617 C421 1.519 . S
C1623 C714 1.482 . S
C1643 C715 1.275 . S
C1637 C221 1.507 . S
C1663 C728 1.469 . S
C1657 C255 1.514 . S
C1683 C749 1.430 . S
C1677 C295 1.456 . S
C1697 C541 1.535 . S
C1703 C672 1.517 . S
C1723 C666 1.515 . S
C1717 C55 1.515 . S
C1737 C95 1.394 . S
C1743 C673 1.140 . S
C1763 C645 1.323 . S
C1757 C21 1.621 . S
