# Generated by pormake.
# Topology dag, (6,3)-cn, num edge types: 1
# Building blocks:
#     Node 0, Type 0, BuildingBlock: MIDCAF_clean_sbu_0, # of connection points: 6
#     Node 1, Type 0, BuildingBlock: MIDCAF_clean_sbu_0, # of connection points: 6
#     Node 2, Type 0, BuildingBlock: MIDCAF_clean_sbu_0, # of connection points: 6
#     Node 3, Type 0, BuildingBlock: MIDCAF_clean_sbu_0, # of connection points: 6
#     Node 4, Type 1, BuildingBlock: WUSLED_clean_sbu_0, # of connection points: 3
#     Node 5, Type 1, BuildingBlock: WUSLED_clean_sbu_0, # of connection points: 3
#     Node 6, Type 1, BuildingBlock: WUSLED_clean_sbu_0, # of connection points: 3
#     Node 7, Type 1, BuildingBlock: WUSLED_clean_sbu_0, # of connection points: 3
#     Node 8, Type 1, BuildingBlock: WUSLED_clean_sbu_0, # of connection points: 3
#     Node 9, Type 1, BuildingBlock: WUSLED_clean_sbu_0, # of connection points: 3
#     Node 10, Type 1, BuildingBlock: WUSLED_clean_sbu_0, # of connection points: 3
#     Node 11, Type 1, BuildingBlock: WUSLED_clean_sbu_0, # of connection points: 3
#     Edge 12, Type (0, 1), BuildingBlock: OJICUG_clean_linker_0, # of connection points: 2
#     Edge 13, Type (0, 1), BuildingBlock: OJICUG_clean_linker_0, # of connection points: 2
#     Edge 14, Type (0, 1), BuildingBlock: OJICUG_clean_linker_0, # of connection points: 2
#     Edge 15, Type (0, 1), BuildingBlock: OJICUG_clean_linker_0, # of connection points: 2
#     Edge 16, Type (0, 1), BuildingBlock: OJICUG_clean_linker_0, # of connection points: 2
#     Edge 17, Type (0, 1), BuildingBlock: OJICUG_clean_linker_0, # of connection points: 2
#     Edge 18, Type (0, 1), BuildingBlock: OJICUG_clean_linker_0, # of connection points: 2
#     Edge 19, Type (0, 1), BuildingBlock: OJICUG_clean_linker_0, # of connection points: 2
#     Edge 20, Type (0, 1), BuildingBlock: OJICUG_clean_linker_0, # of connection points: 2
#     Edge 21, Type (0, 1), BuildingBlock: OJICUG_clean_linker_0, # of connection points: 2
#     Edge 22, Type (0, 1), BuildingBlock: OJICUG_clean_linker_0, # of connection points: 2
#     Edge 23, Type (0, 1), BuildingBlock: OJICUG_clean_linker_0, # of connection points: 2
#     Edge 24, Type (0, 1), BuildingBlock: OJICUG_clean_linker_0, # of connection points: 2
#     Edge 25, Type (0, 1), BuildingBlock: OJICUG_clean_linker_0, # of connection points: 2
#     Edge 26, Type (0, 1), BuildingBlock: OJICUG_clean_linker_0, # of connection points: 2
#     Edge 27, Type (0, 1), BuildingBlock: OJICUG_clean_linker_0, # of connection points: 2
#     Edge 28, Type (0, 1), BuildingBlock: OJICUG_clean_linker_0, # of connection points: 2
#     Edge 29, Type (0, 1), BuildingBlock: OJICUG_clean_linker_0, # of connection points: 2
#     Edge 30, Type (0, 1), BuildingBlock: OJICUG_clean_linker_0, # of connection points: 2
#     Edge 31, Type (0, 1), BuildingBlock: OJICUG_clean_linker_0, # of connection points: 2
#     Edge 32, Type (0, 1), BuildingBlock: OJICUG_clean_linker_0, # of connection points: 2
#     Edge 33, Type (0, 1), BuildingBlock: OJICUG_clean_linker_0, # of connection points: 2
#     Edge 34, Type (0, 1), BuildingBlock: OJICUG_clean_linker_0, # of connection points: 2
#     Edge 35, Type (0, 1), BuildingBlock: OJICUG_clean_linker_0, # of connection points: 2
# Relax obj value: 0.295
# Max RMSD: 0.191
# Mean RMSD: 0.179
data_MOF--net-dag--node1-MIDCAF_clean_sbu_0--node2-WUSLED_clean_sbu_0--edge1-OJICUG_clean_linker_0
_symmetry_space_group_name_H-M    P1
_symmetry_Int_Tables_number       1
_symmetry_cell_setting            triclinic
loop_
_symmetry_equiv_pos_as_xyz
'x, y, z'
_cell_length_a     42.203204
_cell_length_b     41.203155
_cell_length_c     30.906616
_cell_angle_alpha  90.309729
_cell_angle_beta   93.397448
_cell_angle_gamma 90.543268
loop_
_atom_site_label
_atom_site_type_symbol
_atom_site_fract_x
_atom_site_fract_y
_atom_site_fract_z
_atom_type_partial_charge
Zn0 Zn 0.16074 0.79538 0.07921 0.0
Zn1 Zn 0.18684 0.84787 0.93564 0.0
Zn2 Zn 0.17189 0.8229 1.00748 0.0
C3 C 0.19264 0.89822 0.99393 0.0
C4 C 0.12291 0.82936 0.92475 0.0
O5 O 0.20138 0.77793 0.01577 0.0
O6 O 0.1828 0.75444 0.07338 0.0
C7 C 0.18643 0.85599 0.10133 0.0
O8 O 0.1855 0.87491 0.01949 0.0
O9 O 0.19524 0.89271 0.95417 0.0
O10 O 0.14552 0.8394 0.90321 0.0
O11 O 0.12786 0.82249 0.96522 0.0
O12 O 0.17937 0.82947 0.11884 0.0
O13 O 0.18429 0.85855 0.05968 0.0
O14 O 0.1198 0.81337 1.00725 0.0
O15 O 0.11432 0.79309 0.07253 0.0
C16 C 0.10204 0.80267 0.03674 0.0
O17 O 0.20924 0.79296 0.97767 0.0
O18 O 0.22359 0.82229 0.92224 0.0
C19 C 0.20074 0.75384 0.04227 0.0
C20 C 0.22722 0.79763 0.94584 0.0
Zn21 Zn 0.64271 0.67281 0.41236 0.0
Zn22 Zn 0.64888 0.70054 0.57722 0.0
Zn23 Zn 0.64535 0.68619 0.49559 0.0
C24 C 0.6589 0.63487 0.57376 0.0
C25 C 0.58666 0.71265 0.5487 0.0
O26 O 0.68276 0.71554 0.46441 0.0
O27 O 0.67454 0.70402 0.39449 0.0
C28 C 0.65935 0.61547 0.45542 0.0
O29 O 0.65329 0.64098 0.53317 0.0
O30 O 0.66122 0.6577 0.60117 0.0
O31 O 0.60457 0.71293 0.58284 0.0
O32 O 0.59772 0.70413 0.51228 0.0
O33 O 0.65464 0.62658 0.41762 0.0
O34 O 0.65656 0.63406 0.48865 0.0
O35 O 0.59654 0.69575 0.46776 0.0
O36 O 0.598 0.68292 0.39813 0.0
C37 C 0.58282 0.69267 0.42951 0.0
O38 O 0.68336 0.7241 0.5084 0.0
O39 O 0.67984 0.73588 0.57791 0.0
C40 C 0.68966 0.71936 0.42458 0.0
C41 C 0.69219 0.74094 0.54242 0.0
Zn42 Zn 0.82758 0.18918 0.9812 0.0
Zn43 Zn 0.83301 0.15248 0.13764 0.0
Zn44 Zn 0.83049 0.17126 0.06085 0.0
C45 C 0.89477 0.1624 0.12021 0.0
C46 C 0.80254 0.10309 0.09376 0.0
O47 O 0.79438 0.21008 0.0545 0.0
O48 O 0.78801 0.21414 0.98322 0.0
C49 C 0.88842 0.20458 0.01193 0.0
O50 O 0.88046 0.17628 0.08735 0.0
O51 O 0.87922 0.14558 0.14568 0.0
O52 O 0.80489 0.11403 0.13201 0.0
O53 O 0.81324 0.11996 0.06264 0.0
O54 O 0.86913 0.21227 0.98097 0.0
O55 O 0.87866 0.18785 0.04382 0.0
O56 O 0.81624 0.12851 0.01935 0.0
O57 O 0.82446 0.14587 0.95323 0.0
C58 C 0.81709 0.1233 0.97822 0.0
O59 O 0.80033 0.20422 0.09834 0.0
O60 O 0.81656 0.19148 0.16536 0.0
C61 C 0.77951 0.22159 0.02042 0.0
C62 C 0.80064 0.20944 0.13955 0.0
Zn63 Zn 0.34618 0.35072 0.69356 0.0
Zn64 Zn 0.3514 0.27675 0.4836 0.0
Zn65 Zn 0.34843 0.30341 0.55519 0.0
C66 C 0.41105 0.26898 0.52441 0.0
C67 C 0.3386 0.34344 0.46889 0.0
O68 O 0.31569 0.27893 0.59736 0.0
O69 O 0.33223 0.31587 0.64423 0.0
C70 C 0.39453 0.31667 0.62916 0.0
O71 O 0.39824 0.28788 0.55156 0.0
O72 O 0.39463 0.25769 0.49219 0.0
O73 O 0.34653 0.31788 0.4496 0.0
O74 O 0.3362 0.34323 0.51022 0.0
O75 O 0.3678 0.32641 0.64162 0.0
O76 O 0.39425 0.30322 0.59169 0.0
O77 O 0.33481 0.35426 0.55396 0.0
O78 O 0.34062 0.34846 0.62414 0.0
C79 C 0.33346 0.3668 0.5918 0.0
O80 O 0.3116 0.26517 0.55593 0.0
O81 O 0.31345 0.24862 0.48796 0.0
C82 C 0.31478 0.29075 0.63572 0.0
C83 C 0.30089 0.24737 0.52397 0.0
C84 C 0.07784 0.17109 0.24531 0.0
C85 C 0.07522 0.15277 0.20682 0.0
C86 C 0.02353 0.17611 0.18837 0.0
C87 C 0.04831 0.15528 0.17857 0.0
C88 C 0.02723 0.19612 0.2254 0.0
C89 C 0.05417 0.19348 0.25385 0.0
U90 U 0.13876 0.11183 0.28515 0.0
O91 O 0.18653 0.11545 0.31732 0.0
O92 O 0.1484 0.09014 0.34941 0.0
C93 C 0.1778 0.10113 0.35269 0.0
C94 C 0.10249 0.163 0.27899 0.0
C95 C 0.18787 0.11784 0.39332 0.0
C96 C 0.18104 0.16004 0.44705 0.0
C97 C 0.16898 0.14153 0.41158 0.0
C98 C 0.23027 0.13026 0.44734 0.0
C99 C 0.21233 0.15548 0.46433 0.0
C100 C 0.21811 0.11165 0.41226 0.0
C101 C 0.14782 0.03781 0.21051 0.0
C102 C 0.19211 0.0036 0.19289 0.0
C103 C 0.13876 0.98122 0.19132 0.0
C104 C 0.12718 0.01126 0.20335 0.0
C105 C 0.17132 0.977 0.18594 0.0
C106 C 0.18048 0.03379 0.2053 0.0
C107 C 0.13423 0.06946 0.22148 0.0
O108 O 0.09556 0.13727 0.30163 0.0
O109 O 0.13179 0.16297 0.26662 0.0
O110 O 0.15332 0.09487 0.22183 0.0
O111 O 0.11525 0.06932 0.25371 0.0
H112 H 0.09315 0.13515 0.19984 0.0
H113 H 0.04613 0.13971 0.15017 0.0
H114 H 0.00834 0.21211 0.23399 0.0
H115 H 0.05568 0.20755 0.28362 0.0
H116 H 0.16639 0.17893 0.45961 0.0
H117 H 0.14546 0.14657 0.39739 0.0
H118 H 0.25461 0.12626 0.45898 0.0
H119 H 0.23299 0.09344 0.39852 0.0
H120 H 0.21728 0.00103 0.18883 0.0
H121 H 0.122 0.96143 0.18515 0.0
H122 H 0.10189 0.01386 0.20655 0.0
H123 H 0.19698 0.05391 0.21041 0.0
C124 C 0.29948 0.56538 0.65393 0.0
C125 C 0.32267 0.55691 0.62533 0.0
C126 C 0.30332 0.50109 0.62342 0.0
C127 C 0.32472 0.52503 0.61043 0.0
C128 C 0.27857 0.51041 0.64944 0.0
C129 C 0.27687 0.54228 0.6649 0.0
U130 U 0.33692 0.64824 0.66483 0.0
O131 O 0.32133 0.69536 0.68893 0.0
O132 O 0.36158 0.67057 0.72243 0.0
C133 C 0.34133 0.69455 0.72327 0.0
C134 C 0.3019 0.59665 0.6768 0.0
C135 C 0.32796 0.70065 0.7655 0.0
C136 C 0.28291 0.70451 0.81068 0.0
C137 C 0.2956 0.69546 0.77168 0.0
C138 C 0.33515 0.72173 0.83902 0.0
C139 C 0.30237 0.71871 0.84435 0.0
C140 C 0.34776 0.71294 0.79988 0.0
C141 C 0.39566 0.67252 0.58184 0.0
C142 C 0.43606 0.71337 0.59975 0.0
C143 C 0.43812 0.68173 0.53362 0.0
C144 C 0.41006 0.66568 0.54316 0.0
C145 C 0.45219 0.70451 0.56302 0.0
C146 C 0.40795 0.69747 0.60911 0.0
C147 C 0.37102 0.65059 0.5966 0.0
O148 O 0.3298 0.60177 0.69687 0.0
O149 O 0.29107 0.62208 0.65525 0.0
O150 O 0.37948 0.63456 0.632 0.0
O151 O 0.34221 0.66242 0.59689 0.0
H152 H 0.3404 0.57451 0.61662 0.0
H153 H 0.34429 0.51891 0.5909 0.0
H154 H 0.26118 0.49284 0.6592 0.0
H155 H 0.25877 0.54849 0.68689 0.0
H156 H 0.25753 0.70215 0.81334 0.0
H157 H 0.27987 0.68555 0.74584 0.0
H158 H 0.35089 0.73211 0.86449 0.0
H159 H 0.37288 0.71669 0.79598 0.0
H160 H 0.4464 0.73096 0.62279 0.0
H161 H 0.45021 0.67426 0.50529 0.0
H162 H 0.40081 0.64644 0.5218 0.0
H163 H 0.39702 0.70308 0.63908 0.0
C164 C 0.78141 0.90505 0.13234 0.0
C165 C 0.8054 0.91796 0.1079 0.0
C166 C 0.77487 0.96718 0.0955 0.0
C167 C 0.80231 0.94878 0.08995 0.0
C168 C 0.74942 0.95244 0.11594 0.0
C169 C 0.75287 0.92176 0.13478 0.0
U170 U 0.83822 0.83939 0.16346 0.0
O171 O 0.86021 0.82626 0.22705 0.0
O172 O 0.83265 0.78974 0.18849 0.0
C173 C 0.84646 0.79748 0.22651 0.0
C174 C 0.78849 0.87696 0.16007 0.0
C175 C 0.82768 0.79055 0.26415 0.0
C176 C 0.78854 0.80727 0.31427 0.0
C177 C 0.8078 0.81435 0.28024 0.0
C178 C 0.80912 0.7526 0.3172 0.0
C179 C 0.78842 0.77609 0.33262 0.0
C180 C 0.82857 0.7598 0.28327 0.0
C181 C 0.91088 0.83946 0.09036 0.0
C182 C 0.94621 0.80022 0.05984 0.0
C183 C 0.96407 0.85566 0.07259 0.0
C184 C 0.93472 0.86326 0.08829 0.0
C185 C 0.97024 0.82406 0.05817 0.0
C186 C 0.91678 0.80785 0.07574 0.0
C187 C 0.87956 0.84927 0.10451 0.0
O188 O 0.78865 0.84863 0.14032 0.0
O189 O 0.81324 0.88165 0.18725 0.0
O190 O 0.85592 0.82826 0.09954 0.0
O191 O 0.87957 0.86585 0.14097 0.0
H192 H 0.82759 0.90524 0.10554 0.0
H193 H 0.82265 0.95896 0.07496 0.0
H194 H 0.72751 0.96534 0.11967 0.0
H195 H 0.73398 0.91194 0.15321 0.0
H196 H 0.77319 0.82603 0.32556 0.0
H197 H 0.80671 0.83829 0.26592 0.0
H198 H 0.80929 0.72818 0.32999 0.0
H199 H 0.84369 0.7411 0.27122 0.0
H200 H 0.9501 0.7757 0.0487 0.0
H201 H 0.98216 0.87449 0.07266 0.0
H202 H 0.9306 0.88793 0.09879 0.0
H203 H 0.89868 0.78907 0.07632 0.0
C204 C 0.65175 0.46813 0.72856 0.0
C205 C 0.62508 0.48754 0.71884 0.0
C206 C 0.6517 0.51229 0.65932 0.0
C207 C 0.62499 0.50934 0.68419 0.0
C208 C 0.67709 0.49095 0.6668 0.0
C209 C 0.67704 0.469 0.701 0.0
U210 U 0.64239 0.40842 0.82767 0.0
O211 O 0.68499 0.38961 0.8624 0.0
O212 O 0.65292 0.42097 0.89665 0.0
C213 C 0.67836 0.40276 0.89952 0.0
C214 C 0.65724 0.45241 0.77111 0.0
C215 C 0.68196 0.38068 0.93647 0.0
C216 C 0.71856 0.3569 0.99048 0.0
C217 C 0.71002 0.38245 0.96289 0.0
C218 C 0.66921 0.32912 0.96907 0.0
C219 C 0.69909 0.32904 0.99207 0.0
C220 C 0.66084 0.35463 0.94106 0.0
C221 C 0.56795 0.3617 0.77919 0.0
C222 C 0.53224 0.32181 0.74367 0.0
C223 C 0.52226 0.37917 0.73386 0.0
C224 C 0.54954 0.38665 0.76013 0.0
C225 C 0.51299 0.34666 0.72598 0.0
C226 C 0.55938 0.3293 0.77012 0.0
C227 C 0.59413 0.36856 0.81182 0.0
O228 O 0.63745 0.4579 0.80166 0.0
O229 O 0.66885 0.42293 0.77163 0.0
O230 O 0.59231 0.39575 0.83399 0.0
O231 O 0.62304 0.36206 0.80084 0.0
H232 H 0.60532 0.48753 0.73966 0.0
H233 H 0.60523 0.52577 0.67918 0.0
H234 H 0.6979 0.4928 0.64801 0.0
H235 H 0.69801 0.45451 0.70799 0.0
H236 H 0.74182 0.35778 1.00723 0.0
H237 H 0.72662 0.4024 0.95959 0.0
H238 H 0.65334 0.30838 0.97019 0.0
H239 H 0.63902 0.35293 0.92083 0.0
H240 H 0.52565 0.29656 0.7385 0.0
H241 H 0.50818 0.39885 0.72014 0.0
H242 H 0.55572 0.41187 0.76647 0.0
H243 H 0.57314 0.3097 0.78471 0.0
C244 C 0.59837 0.26666 0.44659 0.0
C245 C 0.5954 0.28096 0.48749 0.0
C246 C 0.54209 0.25808 0.49043 0.0
C247 C 0.56761 0.27649 0.50939 0.0
C248 C 0.54606 0.24239 0.45049 0.0
C249 C 0.57394 0.24661 0.42891 0.0
U250 U 0.65654 0.33097 0.41575 0.0
O251 O 0.70433 0.3302 0.39098 0.0
O252 O 0.66471 0.35119 0.35162 0.0
C253 C 0.69477 0.34303 0.35363 0.0
C254 C 0.62391 0.27677 0.41908 0.0
C255 C 0.70599 0.32706 0.31488 0.0
C256 C 0.70763 0.28073 0.26613 0.0
C257 C 0.69487 0.29618 0.30156 0.0
C258 C 0.74186 0.32735 0.25638 0.0
C259 C 0.73178 0.2959 0.24378 0.0
C260 C 0.72906 0.34277 0.2916 0.0
C261 C 0.65971 0.4102 0.47736 0.0
C262 C 0.68219 0.45727 0.44334 0.0
C263 C 0.65743 0.46316 0.51177 0.0
C264 C 0.65121 0.42973 0.51203 0.0
C265 C 0.67184 0.47729 0.47651 0.0
C266 C 0.67628 0.42393 0.44386 0.0
C267 C 0.64813 0.37662 0.47329 0.0
O268 O 0.61588 0.30067 0.39288 0.0
O269 O 0.65244 0.28047 0.43826 0.0
O270 O 0.66977 0.35404 0.47888 0.0
O271 O 0.62863 0.37135 0.4392 0.0
H272 H 0.61389 0.29687 0.50152 0.0
H273 H 0.56565 0.28854 0.54032 0.0
H274 H 0.52689 0.22851 0.43433 0.0
H275 H 0.57561 0.23578 0.3971 0.0
H276 H 0.69968 0.25634 0.25752 0.0
H277 H 0.67699 0.28375 0.31923 0.0
H278 H 0.76026 0.33972 0.23962 0.0
H279 H 0.73774 0.36671 0.30132 0.0
H280 H 0.69344 0.46767 0.41594 0.0
H281 H 0.64907 0.47821 0.53751 0.0
H282 H 0.63835 0.41944 0.53808 0.0
H283 H 0.68307 0.40912 0.4169 0.0
C284 C 0.07917 0.22331 0.93591 0.0
C285 C 0.06561 0.19403 0.9491 0.0
C286 C 0.01963 0.22263 0.97348 0.0
C287 C 0.03615 0.19363 0.96722 0.0
C288 C 0.03389 0.25217 0.96166 0.0
C289 C 0.06337 0.25247 0.94286 0.0
U290 U 0.15246 0.17728 0.91922 0.0
O291 O 0.17478 0.16119 0.86034 0.0
O292 O 0.20245 0.1898 0.90977 0.0
C293 C 0.20175 0.17616 0.87109 0.0
C294 C 0.10948 0.22263 0.91453 0.0
C295 C 0.21585 0.19463 0.83609 0.0
C296 C 0.22746 0.24502 0.79912 0.0
C297 C 0.21313 0.22848 0.83254 0.0
C298 C 0.24683 0.19406 0.77221 0.0
C299 C 0.24454 0.22799 0.76855 0.0
C300 C 0.23266 0.17764 0.80559 0.0
C301 C 0.15316 0.0975 0.98624 0.0
C302 C 0.19566 0.05945 1.0034 0.0
C303 C 0.14081 0.04175 1.00437 0.0
C304 C 0.13092 0.07296 0.99332 0.0
C305 C 0.17331 0.03436 1.00893 0.0
C306 C 0.18566 0.09076 0.99194 0.0
C307 C 0.14124 0.12942 0.97222 0.0
O308 O 0.13519 0.22484 0.94063 0.0
O309 O 0.11107 0.19954 0.88526 0.0
O310 O 0.12913 0.13072 0.93214 0.0
O311 O 0.15839 0.15516 0.98391 0.0
H312 H 0.07747 0.1712 0.94436 0.0
H313 H 0.02595 0.17031 0.97484 0.0
H314 H 0.02219 0.27505 0.96656 0.0
H315 H 0.07362 0.27536 0.93335 0.0
H316 H 0.22498 0.27111 0.79703 0.0
H317 H 0.20007 0.24208 0.85558 0.0
H318 H 0.26017 0.18019 0.74977 0.0
H319 H 0.23508 0.15153 0.80779 0.0
H320 H 0.22087 0.05476 1.00709 0.0
H321 H 0.12282 0.02312 1.00736 0.0
H322 H 0.10571 0.07774 0.98914 0.0
H323 H 0.20326 0.10944 0.98684 0.0
C324 C 0.35235 0.52897 0.34716 0.0
C325 C 0.37733 0.50695 0.35296 0.0
C326 C 0.34159 0.46639 0.38071 0.0
C327 C 0.37205 0.47606 0.36942 0.0
C328 C 0.31638 0.4883 0.37449 0.0
C329 C 0.32169 0.51933 0.35782 0.0
U330 U 0.34846 0.60442 0.27161 0.0
O331 O 0.30088 0.60119 0.2388 0.0
O332 O 0.34201 0.58293 0.20626 0.0
C333 C 0.31191 0.59087 0.20229 0.0
C334 C 0.3598 0.56255 0.33421 0.0
C335 C 0.30294 0.61083 0.16434 0.0
C336 C 0.27266 0.61804 0.0959 0.0
C337 C 0.28418 0.59785 0.12945 0.0
C338 C 0.30009 0.66394 0.1308 0.0
C339 C 0.27947 0.65162 0.09703 0.0
C340 C 0.31173 0.64373 0.16405 0.0
C341 C 0.40093 0.67582 0.30819 0.0
C342 C 0.45216 0.7027 0.31844 0.0
C343 C 0.42833 0.67778 0.37962 0.0
C344 C 0.40198 0.66849 0.35258 0.0
C345 C 0.45433 0.69395 0.36253 0.0
C346 C 0.42569 0.69387 0.29171 0.0
C347 C 0.37688 0.66124 0.27748 0.0
O348 O 0.33686 0.58394 0.33435 0.0
O349 O 0.37791 0.56577 0.30126 0.0
O350 O 0.34854 0.65585 0.29171 0.0
O351 O 0.38741 0.63683 0.25513 0.0
H352 H 0.40128 0.51394 0.34579 0.0
H353 H 0.39214 0.4601 0.37459 0.0
H354 H 0.29262 0.48151 0.38265 0.0
H355 H 0.30195 0.53588 0.35408 0.0
H356 H 0.25723 0.60763 0.0701 0.0
H357 H 0.27749 0.57239 0.12895 0.0
H358 H 0.30556 0.68964 0.13331 0.0
H359 H 0.32641 0.65411 0.19067 0.0
H360 H 0.47175 0.71455 0.30362 0.0
H361 H 0.42885 0.67113 0.4135 0.0
H362 H 0.38316 0.65438 0.36597 0.0
H363 H 0.42542 0.69947 0.25746 0.0
C364 C 0.79938 0.94824 0.83035 0.0
C365 C 0.82121 0.94922 0.86642 0.0
C366 C 0.79978 0.00066 0.8894 0.0
C367 C 0.8214 0.97515 0.89567 0.0
C368 C 0.77672 0.99871 0.85463 0.0
C369 C 0.77665 0.97273 0.82513 0.0
U370 U 0.85237 0.8872 0.78436 0.0
O371 O 0.84582 0.8387 0.75485 0.0
O372 O 0.86674 0.87821 0.71813 0.0
C373 C 0.85604 0.84811 0.7175 0.0
C374 C 0.80334 0.92404 0.79593 0.0
C375 C 0.83634 0.83779 0.67885 0.0
C376 C 0.79667 0.84822 0.62043 0.0
C377 C 0.8167 0.85948 0.65516 0.0
C378 C 0.81646 0.79377 0.63194 0.0
C379 C 0.79565 0.81502 0.60913 0.0
C380 C 0.83661 0.80509 0.6663 0.0
C381 C 0.93199 0.8784 0.85088 0.0
C382 C 0.96916 0.83359 0.85665 0.0
C383 C 0.98749 0.8887 0.87134 0.0
C384 C 0.95679 0.90002 0.86289 0.0
C385 C 0.99407 0.85543 0.86811 0.0
C386 C 0.93829 0.84502 0.84781 0.0
C387 C 0.89997 0.89164 0.84263 0.0
O388 O 0.82559 0.93172 0.7697 0.0
O389 O 0.80481 0.89367 0.80878 0.0
O390 O 0.8759 0.87151 0.84598 0.0
O391 O 0.89648 0.91129 0.80938 0.0
H392 H 0.8391 0.93066 0.87088 0.0
H393 H 0.83926 0.97589 0.92233 0.0
H394 H 0.75997 0.01819 0.84881 0.0
H395 H 0.75983 0.97252 0.79726 0.0
H396 H 0.78125 0.86535 0.60334 0.0
H397 H 0.81622 0.88491 0.66413 0.0
H398 H 0.81603 0.76799 0.62497 0.0
H399 H 0.85168 0.788 0.68411 0.0
H400 H 0.97365 0.80784 0.85392 0.0
H401 H 0.00611 0.90602 0.8809 0.0
H402 H 0.95237 0.92579 0.86582 0.0
H403 H 0.91948 0.82784 0.83858 0.0
C404 C 0.20659 0.91291 0.11559 0.0
C405 C 0.19045 0.88518 0.12913 0.0
H406 H 0.21297 0.96442 0.12291 0.0
C407 C 0.17386 0.88686 0.16716 0.0
H408 H 0.22071 0.91184 0.08754 0.0
C409 C 0.16997 0.91651 0.18785 0.0
C410 C 0.18258 0.9451 0.17099 0.0
H411 H 0.16167 0.86575 0.17905 0.0
H412 H 0.15534 0.91738 0.21548 0.0
C413 C 0.20252 0.94283 0.13624 0.0
C414 C 0.5315 0.72597 0.51834 0.0
C415 C 0.55225 0.71686 0.5532 0.0
H416 H 0.4829 0.72872 0.49342 0.0
C417 C 0.53959 0.70893 0.59288 0.0
H418 H 0.54078 0.73452 0.48868 0.0
C419 C 0.50694 0.70728 0.59648 0.0
C420 C 0.48609 0.71328 0.56044 0.0
H421 H 0.55486 0.70213 0.6207 0.0
H422 H 0.49808 0.69912 0.62682 0.0
C423 C 0.49855 0.72346 0.52151 0.0
C424 C 0.80212 0.04918 0.05598 0.0
C425 C 0.78975 0.06992 0.0867 0.0
H426 H 0.80524 0.00064 0.0321 0.0
C427 C 0.76827 0.05734 0.11539 0.0
H428 H 0.81963 0.05792 0.03466 0.0
C429 C 0.76131 0.02421 0.11578 0.0
C430 C 0.77541 0.00282 0.08707 0.0
H431 H 0.75836 0.07283 0.1395 0.0
H432 H 0.74684 0.01532 0.14101 0.0
C433 C 0.79447 0.01607 0.05547 0.0
C434 C 0.42616 0.3482 0.68624 0.0
C435 C 0.42451 0.32323 0.65505 0.0
H436 H 0.45536 0.37523 0.73287 0.0
C437 C 0.45206 0.30572 0.64756 0.0
H438 H 0.40536 0.36225 0.69259 0.0
C439 C 0.48082 0.31331 0.67042 0.0
C440 C 0.48262 0.33867 0.70114 0.0
H441 H 0.45135 0.28605 0.62418 0.0
H442 H 0.50174 0.29957 0.66366 0.0
C443 C 0.45491 0.35592 0.7089 0.0
C444 C 0.65347 0.5589 0.42773 0.0
C445 C 0.66519 0.58036 0.46044 0.0
H446 H 0.64658 0.50957 0.40746 0.0
C447 C 0.6815 0.56776 0.49747 0.0
H448 H 0.64095 0.56781 0.39863 0.0
C449 C 0.68406 0.53413 0.50305 0.0
C450 C 0.67149 0.51282 0.47069 0.0
H451 H 0.6923 0.58385 0.52192 0.0
H452 H 0.69587 0.5248 0.53242 0.0
C453 C 0.6567 0.52554 0.43273 0.0
C454 C 0.94605 0.19211 0.02661 0.0
C455 C 0.92249 0.21248 1.0084 0.0
H456 H 0.99528 0.1804 0.03232 0.0
C457 C 0.93155 0.23819 0.98193 0.0
H458 H 0.93975 0.17126 0.04542 0.0
C459 C 0.96328 0.24252 0.97232 0.0
C460 C 0.98682 0.22137 0.98924 0.0
H461 H 0.91388 0.25419 0.96708 0.0
H462 H 0.96892 0.26141 0.94974 0.0
C463 C 0.97789 0.19686 0.01789 0.0
C464 C 0.31766 0.40002 0.45781 0.0
C465 C 0.33558 0.37386 0.44383 0.0
H466 H 0.30575 0.45018 0.44922 0.0
C467 C 0.35225 0.37731 0.40607 0.0
H468 H 0.30356 0.39755 0.48576 0.0
C469 C 0.35287 0.40692 0.38454 0.0
C470 C 0.3369 0.43391 0.40023 0.0
H471 H 0.36592 0.35745 0.39397 0.0
H472 H 0.3666 0.4089 0.35613 0.0
C473 C 0.31848 0.42992 0.4364 0.0
C474 C 0.0655 0.81181 0.91915 0.0
C475 C 0.09033 0.8311 0.90476 0.0
H476 H 0.01502 0.80454 0.91903 0.0
C477 C 0.08341 0.85494 0.87338 0.0
H478 H 0.07038 0.79254 0.94216 0.0
C479 C 0.05212 0.86145 0.85973 0.0
C480 C 0.02702 0.84421 0.87699 0.0
H481 H 0.10205 0.86998 0.86116 0.0
H482 H 0.04748 0.88096 0.83692 0.0
C483 C 0.03396 0.8184 0.90549 0.0
C484 C 0.7822 0.07606 0.95523 0.0
C485 C 0.81244 0.0906 0.95976 0.0
H486 H 0.75434 0.03576 0.92912 0.0
C487 C 0.83835 0.0749 0.94299 0.0
H488 H 0.7619 0.08805 0.96774 0.0
C489 C 0.8342 0.04517 0.92157 0.0
C490 C 0.8039 0.03078 0.91579 0.0
H491 H 0.86179 0.08596 0.94585 0.0
H492 H 0.85459 0.03401 0.90807 0.0
C493 C 0.77791 0.04637 0.93309 0.0
C494 C 0.46663 0.28959 0.53595 0.0
C495 C 0.44558 0.26361 0.52657 0.0
H496 H 0.51359 0.30846 0.53143 0.0
C497 C 0.45753 0.23418 0.51171 0.0
H498 H 0.45789 0.3127 0.54685 0.0
C499 C 0.48959 0.23143 0.50352 0.0
C500 C 0.51024 0.25836 0.50898 0.0
H501 H 0.44173 0.21374 0.50441 0.0
H502 H 0.4978 0.20868 0.49078 0.0
C503 C 0.49864 0.28706 0.52709 0.0
C504 C 0.17004 0.94441 0.03419 0.0
C505 C 0.19339 0.93247 1.00802 0.0
H506 H 0.14641 0.98631 0.05709 0.0
C507 C 0.21322 0.95454 0.9878 0.0
H508 H 0.15414 0.9279 0.04964 0.0
C509 C 0.20825 0.98788 0.99087 0.0
C510 C 0.1833 -7e-05 0.01433 0.0
H511 H 0.23122 0.9459 0.96708 0.0
H512 H 0.22244 0.00391 0.97202 0.0
C513 C 0.16533 0.97787 0.03782 0.0
C514 C 0.53763 0.72311 0.39565 0.0
C515 C 0.54868 0.69741 0.42163 0.0
H516 H 0.49832 0.74353 0.35894 0.0
C517 C 0.52744 0.67323 0.43365 0.0
H518 H 0.55382 0.74197 0.38608 0.0
C519 C 0.49592 0.6734 0.41706 0.0
C520 C 0.48512 0.69793 0.38835 0.0
H521 H 0.53577 0.65303 0.45341 0.0
H522 H 0.48085 0.65296 0.42424 0.0
C523 C 0.50596 0.72373 0.37983 0.0
C524 C 0.33008 0.42452 0.56745 0.0
C525 C 0.32455 0.40084 0.59856 0.0
H526 H 0.32634 0.47445 0.54963 0.0
C527 C 0.31105 0.41002 0.63711 0.0
H528 H 0.34174 0.41828 0.53838 0.0
C529 C 0.30334 0.44234 0.64454 0.0
C530 C 0.30876 0.46626 0.61341 0.0
H531 H 0.30664 0.39222 0.66177 0.0
H532 H 0.29407 0.44863 0.67537 0.0
C533 C 0.32188 0.45683 0.57446 0.0
C534 C 0.04882 0.78134 0.05262 0.0
C535 C 0.06718 0.80476 0.03241 0.0
H536 H 0.0039 0.76907 0.07672 0.0
C537 C 0.0525 0.83283 0.01584 0.0
H538 H 0.05972 0.75962 0.06606 0.0
C539 C 0.02032 0.83818 0.02154 0.0
C540 C 0.00243 0.81577 0.04457 0.0
H541 H 0.06628 0.85149 1.00076 0.0
H542 H 0.00981 0.86052 1.00958 0.0
C543 C 0.01678 0.78673 0.05857 0.0
C544 C 0.63486 0.57947 0.57805 0.0
C545 C 0.65968 0.60136 0.58984 0.0
H546 H 0.61263 0.53367 0.59131 0.0
C547 C 0.68312 0.5924 0.62138 0.0
H548 H 0.61637 0.58612 0.55401 0.0
C549 C 0.68136 0.56241 0.64182 0.0
C550 C 0.65566 0.54119 0.63191 0.0
H551 H 0.70231 0.60903 0.63112 0.0
H552 H 0.6992 0.55657 0.66718 0.0
C553 C 0.63266 0.54966 0.59935 0.0
C554 C 0.94321 0.19723 0.13428 0.0
C555 C 0.92909 0.16628 0.13012 0.0
H556 H 0.98466 0.22478 0.15627 0.0
C557 C 0.9471 0.13884 0.14122 0.0
H558 H 0.92954 0.21871 0.12623 0.0
C559 C 0.97842 0.1422 0.15765 0.0
C560 C 0.99221 0.17315 0.16419 0.0
H561 H 0.93656 0.11478 0.13853 0.0
H562 H 0.99125 0.12058 0.16759 0.0
C563 C 0.97454 0.20067 0.15158 0.0
C564 C 0.25467 0.72976 0.04117 0.0
C565 C 0.22161 0.72566 0.03933 0.0
H566 H 0.29963 0.70874 0.06017 0.0
C567 C 0.2087 0.69483 0.0466 0.0
H568 H 0.2651 0.75341 0.03576 0.0
C569 C 0.22816 0.66948 0.06086 0.0
C570 C 0.26101 0.67453 0.06842 0.0
H571 H 0.18318 0.69118 0.04531 0.0
H572 H 0.2169 0.64709 0.07027 0.0
C573 C 0.27431 0.70429 0.05567 0.0
C574 C 0.71318 0.79507 0.56302 0.0
C575 C 0.718 0.7651 0.54283 0.0
H576 H 0.73394 0.83444 0.59985 0.0
C577 C 0.74902 0.75534 0.53596 0.0
H578 H 0.68937 0.80288 0.56899 0.0
C579 C 0.7749 0.77355 0.55364 0.0
C580 C 0.76998 0.80154 0.57878 0.0
H581 H 0.75327 0.73201 0.52122 0.0
H582 H 0.7986 0.7643 0.55061 0.0
C583 C 0.73888 0.81317 0.58077 0.0
C584 C 0.74982 0.23755 0.15279 0.0
C585 C 0.78302 0.23614 0.15826 0.0
H586 H 0.70718 0.25778 0.17601 0.0
C587 C 0.79914 0.25681 0.18845 0.0
H588 H 0.73695 0.22142 0.13004 0.0
C589 C 0.78238 0.27752 0.21434 0.0
C590 C 0.74904 0.27762 0.21113 0.0
H591 H 0.82475 0.25578 0.19349 0.0
H592 H 0.79554 0.292 0.23878 0.0
C593 C 0.73288 0.25803 0.17933 0.0
C594 C 0.27784 0.24708 0.65956 0.0
C595 C 0.2952 0.27581 0.66882 0.0
H596 H 0.24787 0.2098 0.68337 0.0
C597 C 0.29446 0.28956 0.7105 0.0
H598 H 0.27773 0.23591 0.62776 0.0
C599 C 0.27741 0.27454 0.74248 0.0
C600 C 0.26073 0.24531 0.73362 0.0
H601 H 0.30748 0.3117 0.71876 0.0
H602 H 0.27811 0.28532 0.77456 0.0
C603 C 0.26084 0.23201 0.69156 0.0
C604 C 0.70879 0.76436 0.38061 0.0
C605 C 0.71561 0.74069 0.41211 0.0
H606 H 0.7263 0.794 0.33082 0.0
C607 C 0.74727 0.73198 0.42178 0.0
H608 H 0.68441 0.77088 0.372 0.0
C609 C 0.77153 0.74509 0.39792 0.0
C610 C 0.76438 0.76702 0.36397 0.0
H611 H 0.75293 0.71305 0.44508 0.0
H612 H 0.79559 0.73678 0.40452 0.0
C613 C 0.73288 0.77752 0.35694 0.0
C614 C 0.7283 0.24329 0.99135 0.0
C615 C 0.75341 0.2448 0.0231 0.0
H616 H 0.69115 0.26851 0.95698 0.0
C617 C 0.75608 0.27167 0.05116 0.0
H618 H 0.72568 0.22265 0.96949 0.0
C619 C 0.7359 0.29823 0.04432 0.0
C620 C 0.713 0.29822 1.00915 0.0
H621 H 0.77541 0.27344 0.07574 0.0
H622 H 0.73981 0.31964 0.06446 0.0
C623 C 0.70825 0.26962 0.98449 0.0
C624 C 0.24509 0.23646 0.50224 0.0
C625 C 0.27254 0.22692 0.52634 0.0
H626 H 0.20419 0.22122 0.46362 0.0
C627 C 0.27575 0.19451 0.5391 0.0
H628 H 0.24248 0.26138 0.49162 0.0
C629 C 0.25358 0.1712 0.5233 0.0
C630 C 0.22839 0.18007 0.49384 0.0
H631 H 0.29698 0.18668 0.55739 0.0
H632 H 0.25784 0.14594 0.53091 0.0
C633 C 0.22313 0.21327 0.48612 0.0
C634 C 0.27982 0.78557 0.91956 0.0
C635 C 0.25088 0.77388 0.93358 0.0
H636 H 0.31883 0.77727 0.88052 0.0
C637 C 0.24216 0.74139 0.92549 0.0
H638 H 0.28695 0.81063 0.92542 0.0
C639 C 0.26047 0.72203 0.89932 0.0
C640 C 0.28775 0.73496 0.88128 0.0
H641 H 0.21979 0.73196 0.93581 0.0
H642 H 0.25215 0.69774 0.89087 0.0
C643 C 0.29814 0.76632 0.89383 0.0
loop_
_geom_bond_atom_site_label_1
_geom_bond_atom_site_label_2
_geom_bond_distance
_geom_bond_site_symmetry_2
_ccdc_geom_bond_type
Zn0 O6 1.920 . S
Zn0 O12 1.898 . S
Zn0 O15 1.905 . S
Zn1 O9 1.905 . S
Zn1 O10 1.898 . S
Zn1 O18 1.920 . S
Zn2 O5 2.080 . S
Zn2 O8 2.114 1_554 S
Zn2 O11 2.120 1_554 S
Zn2 O13 2.120 . S
Zn2 O14 2.114 . S
Zn2 O17 2.080 1_554 S
C3 O8 1.166 . S
C3 O9 1.182 . S
C4 O10 1.167 . S
C4 O11 1.299 . S
O5 Zn2 2.080 . S
O5 C19 1.305 . S
O6 Zn0 1.920 . S
O6 C19 1.234 . S
C7 O12 1.167 . S
C7 O13 1.299 . S
O8 Zn2 2.114 1_556 S
O8 C3 1.166 . S
O9 Zn1 1.905 . S
O9 C3 1.182 . S
O10 Zn1 1.898 . S
O10 C4 1.167 . S
O11 Zn2 2.120 1_556 S
O11 C4 1.299 . S
O12 Zn0 1.898 . S
O12 C7 1.167 . S
O13 Zn2 2.120 . S
O13 C7 1.299 . S
O14 Zn2 2.114 . S
O14 C16 1.166 . S
O15 Zn0 1.905 . S
O15 C16 1.182 . S
C16 O14 1.166 . S
C16 O15 1.182 . S
O17 Zn2 2.080 1_556 S
O17 C20 1.305 . S
O18 Zn1 1.920 . S
O18 C20 1.234 . S
C19 O5 1.305 . S
C19 O6 1.234 . S
C20 O17 1.305 . S
C20 O18 1.234 . S
Zn21 O27 1.920 . S
Zn21 O33 1.898 . S
Zn21 O36 1.905 . S
Zn22 O30 1.905 . S
Zn22 O31 1.898 . S
Zn22 O39 1.920 . S
Zn23 O26 2.080 . S
Zn23 O29 2.114 . S
Zn23 O32 2.120 . S
Zn23 O34 2.120 . S
Zn23 O35 2.114 . S
Zn23 O38 2.080 . S
C24 O29 1.166 . S
C24 O30 1.182 . S
C25 O31 1.167 . S
C25 O32 1.299 . S
O26 Zn23 2.080 . S
O26 C40 1.305 . S
O27 Zn21 1.920 . S
O27 C40 1.234 . S
C28 O33 1.167 . S
C28 O34 1.299 . S
O29 Zn23 2.114 . S
O29 C24 1.166 . S
O30 Zn22 1.905 . S
O30 C24 1.182 . S
O31 Zn22 1.898 . S
O31 C25 1.167 . S
O32 Zn23 2.120 . S
O32 C25 1.299 . S
O33 Zn21 1.898 . S
O33 C28 1.167 . S
O34 Zn23 2.120 . S
O34 C28 1.299 . S
O35 Zn23 2.114 . S
O35 C37 1.166 . S
O36 Zn21 1.905 . S
O36 C37 1.182 . S
C37 O35 1.166 . S
C37 O36 1.182 . S
O38 Zn23 2.080 . S
O38 C41 1.305 . S
O39 Zn22 1.920 . S
O39 C41 1.234 . S
C40 O26 1.305 . S
C40 O27 1.234 . S
C41 O38 1.305 . S
C41 O39 1.234 . S
Zn42 O48 1.920 . S
Zn42 O54 1.898 . S
Zn42 O57 1.905 . S
Zn43 O51 1.905 . S
Zn43 O52 1.898 . S
Zn43 O60 1.920 . S
Zn44 O47 2.080 . S
Zn44 O50 2.114 . S
Zn44 O53 2.120 . S
Zn44 O55 2.120 . S
Zn44 O56 2.114 . S
Zn44 O59 2.080 . S
C45 O50 1.166 . S
C45 O51 1.182 . S
C46 O52 1.167 . S
C46 O53 1.299 . S
O47 Zn44 2.080 . S
O47 C61 1.305 1_554 S
O48 Zn42 1.920 . S
O48 C61 1.234 . S
C49 O54 1.167 1_554 S
C49 O55 1.299 . S
O50 Zn44 2.114 . S
O50 C45 1.166 . S
O51 Zn43 1.905 . S
O51 C45 1.182 . S
O52 Zn43 1.898 . S
O52 C46 1.167 . S
O53 Zn44 2.120 . S
O53 C46 1.299 . S
O54 Zn42 1.898 . S
O54 C49 1.167 1_556 S
O55 Zn44 2.120 . S
O55 C49 1.299 . S
O56 Zn44 2.114 . S
O56 C58 1.166 1_554 S
O57 Zn42 1.905 . S
O57 C58 1.182 . S
C58 O56 1.166 1_556 S
C58 O57 1.182 . S
O59 Zn44 2.080 . S
O59 C62 1.305 . S
O60 Zn43 1.920 . S
O60 C62 1.234 . S
C61 O47 1.305 1_556 S
C61 O48 1.234 . S
C62 O59 1.305 . S
C62 O60 1.234 . S
Zn63 O69 1.920 . S
Zn63 O75 1.898 . S
Zn63 O78 1.905 . S
Zn64 O72 1.905 . S
Zn64 O73 1.898 . S
Zn64 O81 1.920 . S
Zn65 O68 2.080 . S
Zn65 O71 2.114 . S
Zn65 O74 2.120 . S
Zn65 O76 2.120 . S
Zn65 O77 2.114 . S
Zn65 O80 2.080 . S
C66 O71 1.166 . S
C66 O72 1.182 . S
C67 O73 1.167 . S
C67 O74 1.299 . S
O68 Zn65 2.080 . S
O68 C82 1.305 . S
O69 Zn63 1.920 . S
O69 C82 1.234 . S
C70 O75 1.167 . S
C70 O76 1.299 . S
O71 Zn65 2.114 . S
O71 C66 1.166 . S
O72 Zn64 1.905 . S
O72 C66 1.182 . S
O73 Zn64 1.898 . S
O73 C67 1.167 . S
O74 Zn65 2.120 . S
O74 C67 1.299 . S
O75 Zn63 1.898 . S
O75 C70 1.167 . S
O76 Zn65 2.120 . S
O76 C70 1.299 . S
O77 Zn65 2.114 . S
O77 C79 1.166 . S
O78 Zn63 1.905 . S
O78 C79 1.182 . S
C79 O77 1.166 . S
C79 O78 1.182 . S
O80 Zn65 2.080 . S
O80 C83 1.305 . S
O81 Zn64 1.920 . S
O81 C83 1.234 . S
C82 O68 1.305 . S
C82 O69 1.234 . S
C83 O80 1.305 . S
C83 O81 1.234 . S
C84 C85 1.264 . S
C84 C89 1.479 . S
C84 C94 1.465 . S
C85 C84 1.264 . S
C85 C87 1.339 . S
C85 H112 0.931 . S
C86 C87 1.395 . S
C86 C88 1.320 . S
C87 C85 1.339 . S
C87 C86 1.395 . S
C87 H113 0.929 . S
C88 C86 1.320 . S
C88 C89 1.405 . S
C88 H114 0.930 . S
C89 C84 1.479 . S
C89 C88 1.405 . S
C89 H115 0.931 . S
U90 O91 2.454 . S
U90 O92 2.458 . S
U90 C93 2.984 . S
U90 C94 2.847 . S
U90 C107 2.882 . S
U90 O108 2.441 . S
U90 O109 2.420 . S
U90 O110 2.455 . S
U90 O111 2.449 . S
O91 U90 2.454 . S
O91 C93 1.353 . S
O92 U90 2.458 . S
O92 C93 1.286 . S
C93 U90 2.984 . S
C93 O91 1.353 . S
C93 O92 1.286 . S
C93 C95 1.363 . S
C94 C84 1.465 . S
C94 U90 2.847 . S
C94 O108 1.249 . S
C94 O109 1.202 . S
C95 C93 1.363 . S
C95 C97 1.408 . S
C95 C100 1.342 . S
C96 C97 1.310 . S
C96 C99 1.461 . S
C96 H116 0.932 . S
C97 C95 1.408 . S
C97 C96 1.310 . S
C97 H117 0.930 . S
C98 C99 1.474 . S
C98 C100 1.285 . S
C98 H118 0.929 . S
C99 C96 1.461 . S
C99 C98 1.474 . S
C100 C95 1.342 . S
C100 C98 1.285 . S
C100 H119 0.930 . S
C101 C104 1.424 . S
C101 C106 1.245 . S
C101 C107 1.428 1_565 S
C102 C105 1.260 . S
C102 C106 1.477 . S
C102 H120 0.932 . S
C103 C104 1.384 . S
C103 C105 1.479 . S
C103 H121 0.929 . S
C104 C101 1.424 . S
C104 C103 1.384 . S
C104 H122 0.928 . S
C105 C102 1.260 . S
C105 C103 1.479 . S
C106 C101 1.245 . S
C106 C102 1.477 . S
C106 H123 0.932 . S
C107 U90 2.882 . S
C107 C101 1.428 1_545 S
C107 O110 1.301 . S
C107 O111 1.282 . S
O108 U90 2.441 . S
O108 C94 1.249 . S
O109 U90 2.420 . S
O109 C94 1.202 . S
O110 U90 2.455 . S
O110 C107 1.301 . S
O111 U90 2.449 . S
O111 C107 1.282 . S
H112 C85 0.931 . S
H113 C87 0.929 . S
H114 C88 0.930 . S
H115 C89 0.931 . S
H116 C96 0.932 . S
H117 C97 0.930 . S
H118 C98 0.929 . S
H119 C100 0.930 . S
H120 C102 0.932 . S
H121 C103 0.929 . S
H122 C104 0.928 . S
H123 C106 0.932 . S
C124 C125 1.264 . S
C124 C129 1.479 . S
C124 C134 1.465 . S
C125 C124 1.264 . S
C125 C127 1.339 . S
C125 H152 0.931 . S
C126 C127 1.395 . S
C126 C128 1.320 . S
C127 C125 1.339 . S
C127 C126 1.395 . S
C127 H153 0.929 . S
C128 C126 1.320 . S
C128 C129 1.405 . S
C128 H154 0.930 . S
C129 C124 1.479 . S
C129 C128 1.405 . S
C129 H155 0.931 . S
U130 O131 2.454 . S
U130 O132 2.458 . S
U130 C133 2.984 . S
U130 C134 2.847 . S
U130 C147 2.882 . S
U130 O148 2.441 . S
U130 O149 2.420 . S
U130 O150 2.455 . S
U130 O151 2.449 . S
O131 U130 2.454 . S
O131 C133 1.353 . S
O132 U130 2.458 . S
O132 C133 1.286 . S
C133 U130 2.984 . S
C133 O131 1.353 . S
C133 O132 1.286 . S
C133 C135 1.363 . S
C134 C124 1.465 . S
C134 U130 2.847 . S
C134 O148 1.249 . S
C134 O149 1.202 . S
C135 C133 1.363 . S
C135 C137 1.408 . S
C135 C140 1.342 . S
C136 C137 1.310 . S
C136 C139 1.461 . S
C136 H156 0.932 . S
C137 C135 1.408 . S
C137 C136 1.310 . S
C137 H157 0.930 . S
C138 C139 1.474 . S
C138 C140 1.285 . S
C138 H158 0.929 . S
C139 C136 1.461 . S
C139 C138 1.474 . S
C140 C135 1.342 . S
C140 C138 1.285 . S
C140 H159 0.930 . S
C141 C144 1.424 . S
C141 C146 1.245 . S
C141 C147 1.428 . S
C142 C145 1.260 . S
C142 C146 1.477 . S
C142 H160 0.932 . S
C143 C144 1.384 . S
C143 C145 1.479 . S
C143 H161 0.929 . S
C144 C141 1.424 . S
C144 C143 1.384 . S
C144 H162 0.928 . S
C145 C142 1.260 . S
C145 C143 1.479 . S
C146 C141 1.245 . S
C146 C142 1.477 . S
C146 H163 0.932 . S
C147 U130 2.882 . S
C147 C141 1.428 . S
C147 O150 1.301 . S
C147 O151 1.282 . S
O148 U130 2.441 . S
O148 C134 1.249 . S
O149 U130 2.420 . S
O149 C134 1.202 . S
O150 U130 2.455 . S
O150 C147 1.301 . S
O151 U130 2.449 . S
O151 C147 1.282 . S
H152 C125 0.931 . S
H153 C127 0.929 . S
H154 C128 0.930 . S
H155 C129 0.931 . S
H156 C136 0.932 . S
H157 C137 0.930 . S
H158 C138 0.929 . S
H159 C140 0.930 . S
H160 C142 0.932 . S
H161 C143 0.929 . S
H162 C144 0.928 . S
H163 C146 0.932 . S
C164 C165 1.264 . S
C164 C169 1.479 . S
C164 C174 1.465 . S
C165 C164 1.264 . S
C165 C167 1.339 . S
C165 H192 0.931 . S
C166 C167 1.395 . S
C166 C168 1.320 . S
C167 C165 1.339 . S
C167 C166 1.395 . S
C167 H193 0.929 . S
C168 C166 1.320 . S
C168 C169 1.405 . S
C168 H194 0.930 . S
C169 C164 1.479 . S
C169 C168 1.405 . S
C169 H195 0.931 . S
U170 O171 2.454 . S
U170 O172 2.458 . S
U170 C173 2.984 . S
U170 C174 2.847 . S
U170 C187 2.882 . S
U170 O188 2.441 . S
U170 O189 2.420 . S
U170 O190 2.455 . S
U170 O191 2.449 . S
O171 U170 2.454 . S
O171 C173 1.353 . S
O172 U170 2.458 . S
O172 C173 1.286 . S
C173 U170 2.984 . S
C173 O171 1.353 . S
C173 O172 1.286 . S
C173 C175 1.363 . S
C174 C164 1.465 . S
C174 U170 2.847 . S
C174 O188 1.249 . S
C174 O189 1.202 . S
C175 C173 1.363 . S
C175 C177 1.408 . S
C175 C180 1.342 . S
C176 C177 1.310 . S
C176 C179 1.461 . S
C176 H196 0.932 . S
C177 C175 1.408 . S
C177 C176 1.310 . S
C177 H197 0.930 . S
C178 C179 1.474 . S
C178 C180 1.285 . S
C178 H198 0.929 . S
C179 C176 1.461 . S
C179 C178 1.474 . S
C180 C175 1.342 . S
C180 C178 1.285 . S
C180 H199 0.930 . S
C181 C184 1.424 . S
C181 C186 1.245 . S
C181 C187 1.428 . S
C182 C185 1.260 . S
C182 C186 1.477 . S
C182 H200 0.932 . S
C183 C184 1.384 . S
C183 C185 1.479 . S
C183 H201 0.929 . S
C184 C181 1.424 . S
C184 C183 1.384 . S
C184 H202 0.928 . S
C185 C182 1.260 . S
C185 C183 1.479 . S
C186 C181 1.245 . S
C186 C182 1.477 . S
C186 H203 0.932 . S
C187 U170 2.882 . S
C187 C181 1.428 . S
C187 O190 1.301 . S
C187 O191 1.282 . S
O188 U170 2.441 . S
O188 C174 1.249 . S
O189 U170 2.420 . S
O189 C174 1.202 . S
O190 U170 2.455 . S
O190 C187 1.301 . S
O191 U170 2.449 . S
O191 C187 1.282 . S
H192 C165 0.931 . S
H193 C167 0.929 . S
H194 C168 0.930 . S
H195 C169 0.931 . S
H196 C176 0.932 . S
H197 C177 0.930 . S
H198 C178 0.929 . S
H199 C180 0.930 . S
H200 C182 0.932 . S
H201 C183 0.929 . S
H202 C184 0.928 . S
H203 C186 0.932 . S
C204 C205 1.264 . S
C204 C209 1.479 . S
C204 C214 1.465 . S
C205 C204 1.264 . S
C205 C207 1.339 . S
C205 H232 0.931 . S
C206 C207 1.395 . S
C206 C208 1.320 . S
C207 C205 1.339 . S
C207 C206 1.395 . S
C207 H233 0.929 . S
C208 C206 1.320 . S
C208 C209 1.405 . S
C208 H234 0.930 . S
C209 C204 1.479 . S
C209 C208 1.405 . S
C209 H235 0.931 . S
U210 O211 2.454 . S
U210 O212 2.458 . S
U210 C213 2.984 . S
U210 C214 2.847 . S
U210 C227 2.882 . S
U210 O228 2.441 . S
U210 O229 2.420 . S
U210 O230 2.455 . S
U210 O231 2.449 . S
O211 U210 2.454 . S
O211 C213 1.353 . S
O212 U210 2.458 . S
O212 C213 1.286 . S
C213 U210 2.984 . S
C213 O211 1.353 . S
C213 O212 1.286 . S
C213 C215 1.363 . S
C214 C204 1.465 . S
C214 U210 2.847 . S
C214 O228 1.249 . S
C214 O229 1.202 . S
C215 C213 1.363 . S
C215 C217 1.408 . S
C215 C220 1.342 . S
C216 C217 1.310 . S
C216 C219 1.461 . S
C216 H236 0.932 . S
C217 C215 1.408 . S
C217 C216 1.310 . S
C217 H237 0.930 . S
C218 C219 1.474 . S
C218 C220 1.285 . S
C218 H238 0.929 . S
C219 C216 1.461 . S
C219 C218 1.474 . S
C220 C215 1.342 . S
C220 C218 1.285 . S
C220 H239 0.930 . S
C221 C224 1.424 . S
C221 C226 1.245 . S
C221 C227 1.428 . S
C222 C225 1.260 . S
C222 C226 1.477 . S
C222 H240 0.932 . S
C223 C224 1.384 . S
C223 C225 1.479 . S
C223 H241 0.929 . S
C224 C221 1.424 . S
C224 C223 1.384 . S
C224 H242 0.928 . S
C225 C222 1.260 . S
C225 C223 1.479 . S
C226 C221 1.245 . S
C226 C222 1.477 . S
C226 H243 0.932 . S
C227 U210 2.882 . S
C227 C221 1.428 . S
C227 O230 1.301 . S
C227 O231 1.282 . S
O228 U210 2.441 . S
O228 C214 1.249 . S
O229 U210 2.420 . S
O229 C214 1.202 . S
O230 U210 2.455 . S
O230 C227 1.301 . S
O231 U210 2.449 . S
O231 C227 1.282 . S
H232 C205 0.931 . S
H233 C207 0.929 . S
H234 C208 0.930 . S
H235 C209 0.931 . S
H236 C216 0.932 . S
H237 C217 0.930 . S
H238 C218 0.929 . S
H239 C220 0.930 . S
H240 C222 0.932 . S
H241 C223 0.929 . S
H242 C224 0.928 . S
H243 C226 0.932 . S
C244 C245 1.264 . S
C244 C249 1.479 . S
C244 C254 1.465 . S
C245 C244 1.264 . S
C245 C247 1.339 . S
C245 H272 0.931 . S
C246 C247 1.395 . S
C246 C248 1.320 . S
C247 C245 1.339 . S
C247 C246 1.395 . S
C247 H273 0.929 . S
C248 C246 1.320 . S
C248 C249 1.405 . S
C248 H274 0.930 . S
C249 C244 1.479 . S
C249 C248 1.405 . S
C249 H275 0.931 . S
U250 O251 2.454 . S
U250 O252 2.458 . S
U250 C253 2.984 . S
U250 C254 2.847 . S
U250 C267 2.882 . S
U250 O268 2.441 . S
U250 O269 2.420 . S
U250 O270 2.455 . S
U250 O271 2.449 . S
O251 U250 2.454 . S
O251 C253 1.353 . S
O252 U250 2.458 . S
O252 C253 1.286 . S
C253 U250 2.984 . S
C253 O251 1.353 . S
C253 O252 1.286 . S
C253 C255 1.363 . S
C254 C244 1.465 . S
C254 U250 2.847 . S
C254 O268 1.249 . S
C254 O269 1.202 . S
C255 C253 1.363 . S
C255 C257 1.408 . S
C255 C260 1.342 . S
C256 C257 1.310 . S
C256 C259 1.461 . S
C256 H276 0.932 . S
C257 C255 1.408 . S
C257 C256 1.310 . S
C257 H277 0.930 . S
C258 C259 1.474 . S
C258 C260 1.285 . S
C258 H278 0.929 . S
C259 C256 1.461 . S
C259 C258 1.474 . S
C260 C255 1.342 . S
C260 C258 1.285 . S
C260 H279 0.930 . S
C261 C264 1.424 . S
C261 C266 1.245 . S
C261 C267 1.428 . S
C262 C265 1.260 . S
C262 C266 1.477 . S
C262 H280 0.932 . S
C263 C264 1.384 . S
C263 C265 1.479 . S
C263 H281 0.929 . S
C264 C261 1.424 . S
C264 C263 1.384 . S
C264 H282 0.928 . S
C265 C262 1.260 . S
C265 C263 1.479 . S
C266 C261 1.245 . S
C266 C262 1.477 . S
C266 H283 0.932 . S
C267 U250 2.882 . S
C267 C261 1.428 . S
C267 O270 1.301 . S
C267 O271 1.282 . S
O268 U250 2.441 . S
O268 C254 1.249 . S
O269 U250 2.420 . S
O269 C254 1.202 . S
O270 U250 2.455 . S
O270 C267 1.301 . S
O271 U250 2.449 . S
O271 C267 1.282 . S
H272 C245 0.931 . S
H273 C247 0.929 . S
H274 C248 0.930 . S
H275 C249 0.931 . S
H276 C256 0.932 . S
H277 C257 0.930 . S
H278 C258 0.929 . S
H279 C260 0.930 . S
H280 C262 0.932 . S
H281 C263 0.929 . S
H282 C264 0.928 . S
H283 C266 0.932 . S
C284 C285 1.264 . S
C284 C289 1.479 . S
C284 C294 1.465 . S
C285 C284 1.264 . S
C285 C287 1.339 . S
C285 H312 0.931 . S
C286 C287 1.395 1_655 S
C286 C288 1.320 1_655 S
C287 C285 1.339 . S
C287 C286 1.395 1_455 S
C287 H313 0.929 1_455 S
C288 C286 1.320 1_455 S
C288 C289 1.405 . S
C288 H314 0.930 . S
C289 C284 1.479 . S
C289 C288 1.405 . S
C289 H315 0.931 . S
U290 O291 2.454 . S
U290 O292 2.458 . S
U290 C293 2.984 . S
U290 C294 2.847 . S
U290 C307 2.882 . S
U290 O308 2.441 . S
U290 O309 2.420 . S
U290 O310 2.455 . S
U290 O311 2.449 . S
O291 U290 2.454 . S
O291 C293 1.353 . S
O292 U290 2.458 . S
O292 C293 1.286 . S
C293 U290 2.984 . S
C293 O291 1.353 . S
C293 O292 1.286 . S
C293 C295 1.363 . S
C294 C284 1.465 . S
C294 U290 2.847 . S
C294 O308 1.249 . S
C294 O309 1.202 . S
C295 C293 1.363 . S
C295 C297 1.408 . S
C295 C300 1.342 . S
C296 C297 1.310 . S
C296 C299 1.461 . S
C296 H316 0.932 . S
C297 C295 1.408 . S
C297 C296 1.310 . S
C297 H317 0.930 . S
C298 C299 1.474 . S
C298 C300 1.285 . S
C298 H318 0.929 . S
C299 C296 1.461 . S
C299 C298 1.474 . S
C300 C295 1.342 . S
C300 C298 1.285 . S
C300 H319 0.930 . S
C301 C304 1.424 . S
C301 C306 1.245 . S
C301 C307 1.428 . S
C302 C305 1.260 . S
C302 C306 1.477 . S
C302 H320 0.932 . S
C303 C304 1.384 . S
C303 C305 1.479 . S
C303 H321 0.929 . S
C304 C301 1.424 . S
C304 C303 1.384 . S
C304 H322 0.928 . S
C305 C302 1.260 . S
C305 C303 1.479 . S
C306 C301 1.245 . S
C306 C302 1.477 . S
C306 H323 0.932 . S
C307 U290 2.882 . S
C307 C301 1.428 . S
C307 O310 1.301 . S
C307 O311 1.282 . S
O308 U290 2.441 . S
O308 C294 1.249 . S
O309 U290 2.420 . S
O309 C294 1.202 . S
O310 U290 2.455 . S
O310 C307 1.301 . S
O311 U290 2.449 . S
O311 C307 1.282 . S
H312 C285 0.931 . S
H313 C287 0.929 1_655 S
H314 C288 0.930 . S
H315 C289 0.931 . S
H316 C296 0.932 . S
H317 C297 0.930 . S
H318 C298 0.929 . S
H319 C300 0.930 . S
H320 C302 0.932 . S
H321 C303 0.929 . S
H322 C304 0.928 . S
H323 C306 0.932 . S
C324 C325 1.264 . S
C324 C329 1.479 . S
C324 C334 1.465 . S
C325 C324 1.264 . S
C325 C327 1.339 . S
C325 H352 0.931 . S
C326 C327 1.395 . S
C326 C328 1.320 . S
C327 C325 1.339 . S
C327 C326 1.395 . S
C327 H353 0.929 . S
C328 C326 1.320 . S
C328 C329 1.405 . S
C328 H354 0.930 . S
C329 C324 1.479 . S
C329 C328 1.405 . S
C329 H355 0.931 . S
U330 O331 2.454 . S
U330 O332 2.458 . S
U330 C333 2.984 . S
U330 C334 2.847 . S
U330 C347 2.882 . S
U330 O348 2.441 . S
U330 O349 2.420 . S
U330 O350 2.455 . S
U330 O351 2.449 . S
O331 U330 2.454 . S
O331 C333 1.353 . S
O332 U330 2.458 . S
O332 C333 1.286 . S
C333 U330 2.984 . S
C333 O331 1.353 . S
C333 O332 1.286 . S
C333 C335 1.363 . S
C334 C324 1.465 . S
C334 U330 2.847 . S
C334 O348 1.249 . S
C334 O349 1.202 . S
C335 C333 1.363 . S
C335 C337 1.408 . S
C335 C340 1.342 . S
C336 C337 1.310 . S
C336 C339 1.461 . S
C336 H356 0.932 . S
C337 C335 1.408 . S
C337 C336 1.310 . S
C337 H357 0.930 . S
C338 C339 1.474 . S
C338 C340 1.285 . S
C338 H358 0.929 . S
C339 C336 1.461 . S
C339 C338 1.474 . S
C340 C335 1.342 . S
C340 C338 1.285 . S
C340 H359 0.930 . S
C341 C344 1.424 . S
C341 C346 1.245 . S
C341 C347 1.428 . S
C342 C345 1.260 . S
C342 C346 1.477 . S
C342 H360 0.932 . S
C343 C344 1.384 . S
C343 C345 1.479 . S
C343 H361 0.929 . S
C344 C341 1.424 . S
C344 C343 1.384 . S
C344 H362 0.928 . S
C345 C342 1.260 . S
C345 C343 1.479 . S
C346 C341 1.245 . S
C346 C342 1.477 . S
C346 H363 0.932 . S
C347 U330 2.882 . S
C347 C341 1.428 . S
C347 O350 1.301 . S
C347 O351 1.282 . S
O348 U330 2.441 . S
O348 C334 1.249 . S
O349 U330 2.420 . S
O349 C334 1.202 . S
O350 U330 2.455 . S
O350 C347 1.301 . S
O351 U330 2.449 . S
O351 C347 1.282 . S
H352 C325 0.931 . S
H353 C327 0.929 . S
H354 C328 0.930 . S
H355 C329 0.931 . S
H356 C336 0.932 . S
H357 C337 0.930 . S
H358 C338 0.929 . S
H359 C340 0.930 . S
H360 C342 0.932 . S
H361 C343 0.929 . S
H362 C344 0.928 . S
H363 C346 0.932 . S
C364 C365 1.264 . S
C364 C369 1.479 . S
C364 C374 1.465 . S
C365 C364 1.264 . S
C365 C367 1.339 1_565 S
C365 H392 0.931 . S
C366 C367 1.395 . S
C366 C368 1.320 . S
C367 C365 1.339 1_545 S
C367 C366 1.395 . S
C367 H393 0.929 . S
C368 C366 1.320 . S
C368 C369 1.405 1_545 S
C368 H394 0.930 . S
C369 C364 1.479 . S
C369 C368 1.405 1_565 S
C369 H395 0.931 . S
U370 O371 2.454 . S
U370 O372 2.458 . S
U370 C373 2.984 . S
U370 C374 2.847 . S
U370 C387 2.882 . S
U370 O388 2.441 . S
U370 O389 2.420 . S
U370 O390 2.455 . S
U370 O391 2.449 . S
O371 U370 2.454 . S
O371 C373 1.353 . S
O372 U370 2.458 . S
O372 C373 1.286 . S
C373 U370 2.984 . S
C373 O371 1.353 . S
C373 O372 1.286 . S
C373 C375 1.363 . S
C374 C364 1.465 . S
C374 U370 2.847 . S
C374 O388 1.249 . S
C374 O389 1.202 . S
C375 C373 1.363 . S
C375 C377 1.408 . S
C375 C380 1.342 . S
C376 C377 1.310 . S
C376 C379 1.461 . S
C376 H396 0.932 . S
C377 C375 1.408 . S
C377 C376 1.310 . S
C377 H397 0.930 . S
C378 C379 1.474 . S
C378 C380 1.285 . S
C378 H398 0.929 . S
C379 C376 1.461 . S
C379 C378 1.474 . S
C380 C375 1.342 . S
C380 C378 1.285 . S
C380 H399 0.930 . S
C381 C384 1.424 . S
C381 C386 1.245 . S
C381 C387 1.428 . S
C382 C385 1.260 . S
C382 C386 1.477 1_455 S
C382 H400 0.932 . S
C383 C384 1.384 1_455 S
C383 C385 1.479 . S
C383 H401 0.929 . S
C384 C381 1.424 . S
C384 C383 1.384 1_655 S
C384 H402 0.928 . S
C385 C382 1.260 . S
C385 C383 1.479 . S
C386 C381 1.245 . S
C386 C382 1.477 1_655 S
C386 H403 0.932 . S
C387 U370 2.882 . S
C387 C381 1.428 . S
C387 O390 1.301 . S
C387 O391 1.282 . S
O388 U370 2.441 . S
O388 C374 1.249 . S
O389 U370 2.420 . S
O389 C374 1.202 . S
O390 U370 2.455 . S
O390 C387 1.301 . S
O391 U370 2.449 . S
O391 C387 1.282 . S
H392 C365 0.931 . S
H393 C367 0.929 . S
H394 C368 0.930 . S
H395 C369 0.931 . S
H396 C376 0.932 . S
H397 C377 0.930 . S
H398 C378 0.929 . S
H399 C380 0.930 . S
H400 C382 0.932 . S
H401 C383 0.929 . S
H402 C384 0.928 . S
H403 C386 0.932 . S
C404 C405 1.387 . S
C404 H408 0.950 . S
C404 C413 1.390 . S
C405 C404 1.387 . S
C405 C407 1.387 . S
H406 C413 0.950 . S
C407 C405 1.387 . S
C407 C409 1.390 . S
C407 H411 0.950 . S
H408 C404 0.950 . S
C409 C407 1.390 . S
C409 C410 1.387 . S
C409 H412 0.950 . S
C410 C409 1.387 . S
C410 C413 1.387 . S
H411 C407 0.950 . S
H412 C409 0.950 . S
C413 C404 1.390 . S
C413 H406 0.950 . S
C413 C410 1.387 . S
C414 C415 1.387 . S
C414 H418 0.950 . S
C414 C423 1.390 . S
C415 C414 1.387 . S
C415 C417 1.387 . S
H416 C423 0.950 . S
C417 C415 1.387 . S
C417 C419 1.390 . S
C417 H421 0.950 . S
H418 C414 0.950 . S
C419 C417 1.390 . S
C419 C420 1.387 . S
C419 H422 0.950 . S
C420 C419 1.387 . S
C420 C423 1.387 . S
H421 C417 0.950 . S
H422 C419 0.950 . S
C423 C414 1.390 . S
C423 H416 0.950 . S
C423 C420 1.387 . S
C424 C425 1.387 . S
C424 H428 0.950 . S
C424 C433 1.390 . S
C425 C424 1.387 . S
C425 C427 1.387 . S
H426 C433 0.950 . S
C427 C425 1.387 . S
C427 C429 1.390 . S
C427 H431 0.950 . S
H428 C424 0.950 . S
C429 C427 1.390 . S
C429 C430 1.387 . S
C429 H432 0.950 . S
C430 C429 1.387 . S
C430 C433 1.387 . S
H431 C427 0.950 . S
H432 C429 0.950 . S
C433 C424 1.390 . S
C433 H426 0.950 . S
C433 C430 1.387 . S
C434 C435 1.387 . S
C434 H438 0.950 . S
C434 C443 1.390 . S
C435 C434 1.387 . S
C435 C437 1.387 . S
H436 C443 0.950 . S
C437 C435 1.387 . S
C437 C439 1.390 . S
C437 H441 0.950 . S
H438 C434 0.950 . S
C439 C437 1.390 . S
C439 C440 1.387 . S
C439 H442 0.950 . S
C440 C439 1.387 . S
C440 C443 1.387 . S
H441 C437 0.950 . S
H442 C439 0.950 . S
C443 C434 1.390 . S
C443 H436 0.950 . S
C443 C440 1.387 . S
C444 C445 1.387 . S
C444 H448 0.950 . S
C444 C453 1.390 . S
C445 C444 1.387 . S
C445 C447 1.387 . S
H446 C453 0.950 . S
C447 C445 1.387 . S
C447 C449 1.390 . S
C447 H451 0.950 . S
H448 C444 0.950 . S
C449 C447 1.390 . S
C449 C450 1.387 . S
C449 H452 0.950 . S
C450 C449 1.387 . S
C450 C453 1.387 . S
H451 C447 0.950 . S
H452 C449 0.950 . S
C453 C444 1.390 . S
C453 H446 0.950 . S
C453 C450 1.387 . S
C454 C455 1.387 . S
C454 H458 0.950 . S
C454 C463 1.390 . S
C455 C454 1.387 . S
C455 C457 1.387 1_554 S
H456 C463 0.950 . S
C457 C455 1.387 1_556 S
C457 C459 1.390 . S
C457 H461 0.950 . S
H458 C454 0.950 . S
C459 C457 1.390 . S
C459 C460 1.387 . S
C459 H462 0.950 . S
C460 C459 1.387 . S
C460 C463 1.387 1_556 S
H461 C457 0.950 . S
H462 C459 0.950 . S
C463 C454 1.390 . S
C463 H456 0.950 . S
C463 C460 1.387 1_554 S
C464 C465 1.387 . S
C464 H468 0.950 . S
C464 C473 1.390 . S
C465 C464 1.387 . S
C465 C467 1.387 . S
H466 C473 0.950 . S
C467 C465 1.387 . S
C467 C469 1.390 . S
C467 H471 0.950 . S
H468 C464 0.950 . S
C469 C467 1.390 . S
C469 C470 1.387 . S
C469 H472 0.950 . S
C470 C469 1.387 . S
C470 C473 1.387 . S
H471 C467 0.950 . S
H472 C469 0.950 . S
C473 C464 1.390 . S
C473 H466 0.950 . S
C473 C470 1.387 . S
C474 C475 1.387 . S
C474 H478 0.950 . S
C474 C483 1.390 . S
C475 C474 1.387 . S
C475 C477 1.387 . S
H476 C483 0.950 . S
C477 C475 1.387 . S
C477 C479 1.390 . S
C477 H481 0.950 . S
H478 C474 0.950 . S
C479 C477 1.390 . S
C479 C480 1.387 . S
C479 H482 0.950 . S
C480 C479 1.387 . S
C480 C483 1.387 . S
H481 C477 0.950 . S
H482 C479 0.950 . S
C483 C474 1.390 . S
C483 H476 0.950 . S
C483 C480 1.387 . S
C484 C485 1.387 . S
C484 H488 0.950 . S
C484 C493 1.390 . S
C485 C484 1.387 . S
C485 C487 1.387 . S
H486 C493 0.950 . S
C487 C485 1.387 . S
C487 C489 1.390 . S
C487 H491 0.950 . S
H488 C484 0.950 . S
C489 C487 1.390 . S
C489 C490 1.387 . S
C489 H492 0.950 . S
C490 C489 1.387 . S
C490 C493 1.387 . S
H491 C487 0.950 . S
H492 C489 0.950 . S
C493 C484 1.390 . S
C493 H486 0.950 . S
C493 C490 1.387 . S
C494 C495 1.387 . S
C494 H498 0.950 . S
C494 C503 1.390 . S
C495 C494 1.387 . S
C495 C497 1.387 . S
H496 C503 0.950 . S
C497 C495 1.387 . S
C497 C499 1.390 . S
C497 H501 0.950 . S
H498 C494 0.950 . S
C499 C497 1.390 . S
C499 C500 1.387 . S
C499 H502 0.950 . S
C500 C499 1.387 . S
C500 C503 1.387 . S
H501 C497 0.950 . S
H502 C499 0.950 . S
C503 C494 1.390 . S
C503 H496 0.950 . S
C503 C500 1.387 . S
C504 C505 1.387 1_554 S
C504 H508 0.950 . S
C504 C513 1.390 1_565 S
C505 C504 1.387 1_556 S
C505 C507 1.387 . S
H506 C513 0.950 . S
C507 C505 1.387 . S
C507 C509 1.390 1_565 S
C507 H511 0.950 . S
H508 C504 0.950 . S
C509 C507 1.390 1_545 S
C509 C510 1.387 . S
C509 H512 0.950 . S
C510 C509 1.387 . S
C510 C513 1.387 1_556 S
H511 C507 0.950 . S
H512 C509 0.950 . S
C513 C504 1.390 1_545 S
C513 H506 0.950 . S
C513 C510 1.387 1_554 S
C514 C515 1.387 . S
C514 H518 0.950 . S
C514 C523 1.390 . S
C515 C514 1.387 . S
C515 C517 1.387 . S
H516 C523 0.950 . S
C517 C515 1.387 . S
C517 C519 1.390 . S
C517 H521 0.950 . S
H518 C514 0.950 . S
C519 C517 1.390 . S
C519 C520 1.387 . S
C519 H522 0.950 . S
C520 C519 1.387 . S
C520 C523 1.387 . S
H521 C517 0.950 . S
H522 C519 0.950 . S
C523 C514 1.390 . S
C523 H516 0.950 . S
C523 C520 1.387 . S
C524 C525 1.387 . S
C524 H528 0.950 . S
C524 C533 1.390 . S
C525 C524 1.387 . S
C525 C527 1.387 . S
H526 C533 0.950 . S
C527 C525 1.387 . S
C527 C529 1.390 . S
C527 H531 0.950 . S
H528 C524 0.950 . S
C529 C527 1.390 . S
C529 C530 1.387 . S
C529 H532 0.950 . S
C530 C529 1.387 . S
C530 C533 1.387 . S
H531 C527 0.950 . S
H532 C529 0.950 . S
C533 C524 1.390 . S
C533 H526 0.950 . S
C533 C530 1.387 . S
C534 C535 1.387 . S
C534 H538 0.950 . S
C534 C543 1.377 1_455 S
C535 C534 1.387 . S
C535 C537 1.387 . S
H536 C543 0.959 . S
C537 C535 1.387 . S
C537 C539 1.390 . S
C537 H541 0.950 1_554 S
H538 C534 0.950 . S
C539 C537 1.390 . S
C539 C540 1.387 1_455 S
C539 H542 0.950 1_454 S
C540 C539 1.387 1_655 S
C540 C543 1.392 . S
H541 C537 0.950 1_556 S
H542 C539 0.950 1_656 S
C543 C534 1.377 1_655 S
C543 H536 0.959 . S
C543 C540 1.392 . S
C544 C545 1.387 . S
C544 H548 0.950 . S
C544 C553 1.390 . S
C545 C544 1.387 . S
C545 C547 1.387 . S
H546 C553 0.950 . S
C547 C545 1.387 . S
C547 C549 1.390 . S
C547 H551 0.950 . S
H548 C544 0.950 . S
C549 C547 1.390 . S
C549 C550 1.387 . S
C549 H552 0.950 . S
C550 C549 1.387 . S
C550 C553 1.387 . S
H551 C547 0.950 . S
H552 C549 0.950 . S
C553 C544 1.390 . S
C553 H546 0.950 . S
C553 C550 1.387 . S
C554 C555 1.387 . S
C554 H558 0.950 . S
C554 C563 1.390 . S
C555 C554 1.387 . S
C555 C557 1.387 . S
H556 C563 0.950 . S
C557 C555 1.387 . S
C557 C559 1.390 . S
C557 H561 0.950 . S
H558 C554 0.950 . S
C559 C557 1.390 . S
C559 C560 1.387 . S
C559 H562 0.950 . S
C560 C559 1.387 . S
C560 C563 1.387 . S
H561 C557 0.950 . S
H562 C559 0.950 . S
C563 C554 1.390 . S
C563 H556 0.950 . S
C563 C560 1.387 . S
C564 C565 1.387 . S
C564 H568 0.950 . S
C564 C573 1.390 . S
C565 C564 1.387 . S
C565 C567 1.387 . S
H566 C573 0.950 . S
C567 C565 1.387 . S
C567 C569 1.390 . S
C567 H571 0.950 . S
H568 C564 0.950 . S
C569 C567 1.390 . S
C569 C570 1.387 . S
C569 H572 0.950 . S
C570 C569 1.387 . S
C570 C573 1.387 . S
H571 C567 0.950 . S
H572 C569 0.950 . S
C573 C564 1.390 . S
C573 H566 0.950 . S
C573 C570 1.387 . S
C574 C575 1.387 . S
C574 H578 0.950 . S
C574 C583 1.390 . S
C575 C574 1.387 . S
C575 C577 1.387 . S
H576 C583 0.950 . S
C577 C575 1.387 . S
C577 C579 1.390 . S
C577 H581 0.950 . S
H578 C574 0.950 . S
C579 C577 1.390 . S
C579 C580 1.387 . S
C579 H582 0.950 . S
C580 C579 1.387 . S
C580 C583 1.387 . S
H581 C577 0.950 . S
H582 C579 0.950 . S
C583 C574 1.390 . S
C583 H576 0.950 . S
C583 C580 1.387 . S
C584 C585 1.387 . S
C584 H588 0.950 . S
C584 C593 1.390 . S
C585 C584 1.387 . S
C585 C587 1.387 . S
H586 C593 0.950 . S
C587 C585 1.387 . S
C587 C589 1.390 . S
C587 H591 0.950 . S
H588 C584 0.950 . S
C589 C587 1.390 . S
C589 C590 1.387 . S
C589 H592 0.950 . S
C590 C589 1.387 . S
C590 C593 1.387 . S
H591 C587 0.950 . S
H592 C589 0.950 . S
C593 C584 1.390 . S
C593 H586 0.950 . S
C593 C590 1.387 . S
C594 C595 1.387 . S
C594 H598 0.950 . S
C594 C603 1.390 . S
C595 C594 1.387 . S
C595 C597 1.387 . S
H596 C603 0.950 . S
C597 C595 1.387 . S
C597 C599 1.390 . S
C597 H601 0.950 . S
H598 C594 0.950 . S
C599 C597 1.390 . S
C599 C600 1.387 . S
C599 H602 0.950 . S
C600 C599 1.387 . S
C600 C603 1.387 . S
H601 C597 0.950 . S
H602 C599 0.950 . S
C603 C594 1.390 . S
C603 H596 0.950 . S
C603 C600 1.387 . S
C604 C605 1.387 . S
C604 H608 0.950 . S
C604 C613 1.390 . S
C605 C604 1.387 . S
C605 C607 1.387 . S
H606 C613 0.950 . S
C607 C605 1.387 . S
C607 C609 1.390 . S
C607 H611 0.950 . S
H608 C604 0.950 . S
C609 C607 1.390 . S
C609 C610 1.387 . S
C609 H612 0.950 . S
C610 C609 1.387 . S
C610 C613 1.387 . S
H611 C607 0.950 . S
H612 C609 0.950 . S
C613 C604 1.390 . S
C613 H606 0.950 . S
C613 C610 1.387 . S
C614 C615 1.387 . S
C614 H618 0.950 . S
C614 C623 1.390 . S
C615 C614 1.387 . S
C615 C617 1.387 1_556 S
H616 C623 0.950 . S
C617 C615 1.387 1_554 S
C617 C619 1.390 . S
C617 H621 0.950 . S
H618 C614 0.950 . S
C619 C617 1.390 . S
C619 C620 1.387 1_554 S
C619 H622 0.950 . S
C620 C619 1.387 1_556 S
C620 C623 1.387 . S
H621 C617 0.950 . S
H622 C619 0.950 . S
C623 C614 1.390 . S
C623 H616 0.950 . S
C623 C620 1.387 . S
C624 C625 1.387 . S
C624 H628 0.950 . S
C624 C633 1.390 . S
C625 C624 1.387 . S
C625 C627 1.387 . S
H626 C633 0.950 . S
C627 C625 1.387 . S
C627 C629 1.390 . S
C627 H631 0.950 . S
H628 C624 0.950 . S
C629 C627 1.390 . S
C629 C630 1.387 . S
C629 H632 0.950 . S
C630 C629 1.387 . S
C630 C633 1.387 . S
H631 C627 0.950 . S
H632 C629 0.950 . S
C633 C624 1.390 . S
C633 H626 0.950 . S
C633 C630 1.387 . S
C634 C635 1.387 . S
C634 H638 0.950 . S
C634 C643 1.390 . S
C635 C634 1.387 . S
C635 C637 1.387 . S
H636 C643 0.950 . S
C637 C635 1.387 . S
C637 C639 1.390 . S
C637 H641 0.950 . S
H638 C634 0.950 . S
C639 C637 1.390 . S
C639 C640 1.387 . S
C639 H642 0.950 . S
C640 C639 1.387 . S
C640 C643 1.387 . S
H641 C637 0.950 . S
H642 C639 0.950 . S
C643 C634 1.390 . S
C643 H636 0.950 . S
C643 C640 1.387 . S
C405 C7 1.425 . S
C410 C105 1.328 . S
C415 C25 1.641 . S
C420 C145 1.505 . S
C425 C46 1.415 . S
C430 C166 1.225 1_545 S
C440 C225 1.055 . S
C435 C70 1.049 . S
C450 C265 1.338 . S
C445 C28 1.434 . S
C455 C49 1.610 . S
C460 C286 1.443 . S
C465 C67 1.435 . S
C470 C326 1.521 . S
C475 C4 1.108 . S
C480 C385 1.105 . S
C485 C58 1.689 . S
C490 C366 1.760 . S
C500 C246 2.171 . S
C495 C66 2.162 . S
C510 C305 1.899 . S
C505 C3 1.965 . S
C515 C37 1.785 . S
C520 C345 1.972 . S
C530 C126 1.955 . S
C525 C79 1.879 . S
C535 C16 2.264 . S
C540 C185 2.076 . S
C550 C206 1.773 . S
C545 C24 1.702 . S
C560 C86 1.872 1_655 S
C555 C45 1.743 . S
C570 C339 1.491 . S
C565 C19 1.466 . S
C580 C379 1.296 . S
C575 C41 1.304 . S
C585 C62 1.225 . S
C590 C259 1.501 . S
C600 C299 1.670 . S
C595 C82 1.362 . S
C610 C179 1.535 . S
C605 C40 1.257 . S
C615 C61 1.241 . S
C620 C219 1.244 . S
C630 C99 1.491 . S
C625 C83 1.485 . S
C640 C139 1.696 . S
C635 C20 1.388 . S
