# Generated by pormake.
# Topology pyr, (3,6)-cn, num edge types: 1
# Building blocks:
#     Node 0, Type 0, BuildingBlock: OLANEW_clean_sbu_2, # of connection points: 3
#     Node 1, Type 0, BuildingBlock: OLANEW_clean_sbu_2, # of connection points: 3
#     Node 2, Type 0, BuildingBlock: OLANEW_clean_sbu_2, # of connection points: 3
#     Node 3, Type 0, BuildingBlock: OLANEW_clean_sbu_2, # of connection points: 3
#     Node 4, Type 0, BuildingBlock: OLANEW_clean_sbu_2, # of connection points: 3
#     Node 5, Type 0, BuildingBlock: OLANEW_clean_sbu_2, # of connection points: 3
#     Node 6, Type 0, BuildingBlock: OLANEW_clean_sbu_2, # of connection points: 3
#     Node 7, Type 0, BuildingBlock: OLANEW_clean_sbu_2, # of connection points: 3
#     Node 8, Type 1, BuildingBlock: JUFBIX_clean_sbu_0, # of connection points: 6
#     Node 9, Type 1, BuildingBlock: JUFBIX_clean_sbu_0, # of connection points: 6
#     Node 10, Type 1, BuildingBlock: JUFBIX_clean_sbu_0, # of connection points: 6
#     Node 11, Type 1, BuildingBlock: JUFBIX_clean_sbu_0, # of connection points: 6
#     Edge 12, Type (0, 1), BuildingBlock: ZUJKAS_clean_linker_0, # of connection points: 2
#     Edge 13, Type (0, 1), BuildingBlock: ZUJKAS_clean_linker_0, # of connection points: 2
#     Edge 14, Type (0, 1), BuildingBlock: ZUJKAS_clean_linker_0, # of connection points: 2
#     Edge 15, Type (0, 1), BuildingBlock: ZUJKAS_clean_linker_0, # of connection points: 2
#     Edge 16, Type (0, 1), BuildingBlock: ZUJKAS_clean_linker_0, # of connection points: 2
#     Edge 17, Type (0, 1), BuildingBlock: ZUJKAS_clean_linker_0, # of connection points: 2
#     Edge 18, Type (0, 1), BuildingBlock: ZUJKAS_clean_linker_0, # of connection points: 2
#     Edge 19, Type (0, 1), BuildingBlock: ZUJKAS_clean_linker_0, # of connection points: 2
#     Edge 20, Type (0, 1), BuildingBlock: ZUJKAS_clean_linker_0, # of connection points: 2
#     Edge 21, Type (0, 1), BuildingBlock: ZUJKAS_clean_linker_0, # of connection points: 2
#     Edge 22, Type (0, 1), BuildingBlock: ZUJKAS_clean_linker_0, # of connection points: 2
#     Edge 23, Type (0, 1), BuildingBlock: ZUJKAS_clean_linker_0, # of connection points: 2
#     Edge 24, Type (0, 1), BuildingBlock: ZUJKAS_clean_linker_0, # of connection points: 2
#     Edge 25, Type (0, 1), BuildingBlock: ZUJKAS_clean_linker_0, # of connection points: 2
#     Edge 26, Type (0, 1), BuildingBlock: ZUJKAS_clean_linker_0, # of connection points: 2
#     Edge 27, Type (0, 1), BuildingBlock: ZUJKAS_clean_linker_0, # of connection points: 2
#     Edge 28, Type (0, 1), BuildingBlock: ZUJKAS_clean_linker_0, # of connection points: 2
#     Edge 29, Type (0, 1), BuildingBlock: ZUJKAS_clean_linker_0, # of connection points: 2
#     Edge 30, Type (0, 1), BuildingBlock: ZUJKAS_clean_linker_0, # of connection points: 2
#     Edge 31, Type (0, 1), BuildingBlock: ZUJKAS_clean_linker_0, # of connection points: 2
#     Edge 32, Type (0, 1), BuildingBlock: ZUJKAS_clean_linker_0, # of connection points: 2
#     Edge 33, Type (0, 1), BuildingBlock: ZUJKAS_clean_linker_0, # of connection points: 2
#     Edge 34, Type (0, 1), BuildingBlock: ZUJKAS_clean_linker_0, # of connection points: 2
#     Edge 35, Type (0, 1), BuildingBlock: ZUJKAS_clean_linker_0, # of connection points: 2
# Relax obj value: 0.099
# Max RMSD: 0.169
# Mean RMSD: 0.118
data_MOF--net-pyr--node1-OLANEW_clean_sbu_2--node2-JUFBIX_clean_sbu_0--edge1-ZUJKAS_clean_linker_0
_symmetry_space_group_name_H-M    P1
_symmetry_Int_Tables_number       1
_symmetry_cell_setting            triclinic
loop_
_symmetry_equiv_pos_as_xyz
'x, y, z'
_cell_length_a     51.114477
_cell_length_b     48.914918
_cell_length_c     50.144067
_cell_angle_alpha  90.517564
_cell_angle_beta   89.694882
_cell_angle_gamma 96.29782
loop_
_atom_site_label
_atom_site_type_symbol
_atom_site_fract_x
_atom_site_fract_y
_atom_site_fract_z
_atom_type_partial_charge
O0 O 0.21927 0.17596 0.1767 0.0
Cd1 Cd 0.17787 0.19474 0.19023 0.0
O2 O 0.21887 0.14216 0.20606 0.0
Cd3 Cd 0.18419 0.14552 0.23222 0.0
O4 O 0.15779 0.13503 0.26701 0.0
C5 C 0.168 0.12737 0.28846 0.0
O6 O 0.19362 0.12664 0.28914 0.0
C7 C 0.22953 0.15551 0.1863 0.0
C8 C 0.15839 0.23509 0.15767 0.0
O9 O 0.17454 0.24186 0.1767 0.0
O10 O 0.15207 0.20933 0.15337 0.0
O11 O 0.49225 0.92687 0.68372 0.0
Cd12 Cd 0.49354 0.91504 0.63637 0.0
O13 O 0.44976 0.91515 0.68229 0.0
Cd14 Cd 0.40859 0.91204 0.69528 0.0
O15 O 0.36599 0.91303 0.69393 0.0
C16 C 0.35748 0.92281 0.67267 0.0
O17 O 0.37449 0.93128 0.65395 0.0
C18 C 0.47008 0.92428 0.69553 0.0
C19 C 0.49632 0.85913 0.62746 0.0
O20 O 0.51724 0.87607 0.62927 0.0
O21 O 0.47404 0.86864 0.63004 0.0
O22 O 0.69909 0.46712 0.90428 0.0
Cd23 Cd 0.65443 0.46309 0.88626 0.0
O24 O 0.69001 0.42323 0.91152 0.0
Cd25 Cd 0.69187 0.38162 0.92636 0.0
O26 O 0.67549 0.3397 0.9359 0.0
C27 C 0.65436 0.33701 0.94955 0.0
O28 O 0.64442 0.35924 0.95792 0.0
C29 C 0.70607 0.44493 0.91352 0.0
C30 C 0.64979 0.47609 0.83257 0.0
O31 O 0.64786 0.49421 0.85091 0.0
O32 O 0.65466 0.45203 0.83959 0.0
O33 O 0.95714 0.68498 0.44202 0.0
Cd34 Cd 0.92995 0.64285 0.42875 0.0
O35 O 0.98213 0.66487 0.46972 0.0
Cd36 Cd 0.95842 0.62541 0.46399 0.0
O37 O 0.92054 0.60018 0.46596 0.0
C38 C 0.90907 0.59837 0.48851 0.0
O39 O 0.92147 0.6097 0.50942 0.0
C40 C 0.97622 0.68652 0.45838 0.0
C41 C 0.93306 0.63135 0.37436 0.0
O42 O 0.91506 0.64517 0.38359 0.0
O43 O 0.94958 0.62319 0.39085 0.0
O44 O 0.87598 0.85656 0.86953 0.0
Cd45 Cd 0.85836 0.83169 0.90979 0.0
O46 O 0.84988 0.88985 0.86576 0.0
Cd47 Cd 0.82055 0.88551 0.89876 0.0
O48 O 0.78702 0.89758 0.92326 0.0
C49 C 0.76548 0.90149 0.91192 0.0
O50 O 0.76344 0.89732 0.88606 0.0
C51 C 0.86924 0.87757 0.85744 0.0
C52 C 0.88439 0.78631 0.92601 0.0
O53 O 0.86526 0.78329 0.90944 0.0
O54 O 0.89171 0.81075 0.93447 0.0
O55 O 0.59682 0.07559 0.44086 0.0
Cd56 Cd 0.61269 0.07856 0.48671 0.0
O57 O 0.60404 0.1204 0.43871 0.0
Cd58 Cd 0.60299 0.16158 0.42243 0.0
O59 O 0.59969 0.20569 0.42187 0.0
C60 C 0.57806 0.21357 0.42977 0.0
O61 O 0.55871 0.19492 0.43645 0.0
C62 C 0.59643 0.09749 0.42752 0.0
C63 C 0.66711 0.07782 0.48844 0.0
O64 O 0.65146 0.05548 0.48793 0.0
O65 O 0.65702 0.10068 0.48824 0.0
O66 O 0.39676 0.70816 0.1877 0.0
Cd67 Cd 0.37539 0.66242 0.19882 0.0
O68 O 0.38324 0.70502 0.14608 0.0
Cd69 Cd 0.35898 0.66565 0.14954 0.0
O70 O 0.32362 0.63845 0.13947 0.0
C71 C 0.31942 0.63271 0.11498 0.0
O72 O 0.33719 0.64192 0.09726 0.0
C73 C 0.39607 0.71841 0.16453 0.0
C74 C 0.39665 0.64186 0.24472 0.0
O75 O 0.40598 0.63707 0.22157 0.0
O76 O 0.37723 0.65632 0.24614 0.0
O77 O 0.10836 0.48207 0.6554 0.0
Cd78 Cd 0.1109 0.48737 0.60707 0.0
O79 O 0.09838 0.43769 0.65029 0.0
Cd80 Cd 0.08578 0.3951 0.66149 0.0
O81 O 0.07242 0.35111 0.66201 0.0
C82 C 0.05006 0.3426 0.65227 0.0
O83 O 0.03525 0.36065 0.64299 0.0
C84 C 0.10307 0.45845 0.66569 0.0
C85 C 0.16349 0.49241 0.59124 0.0
O86 O 0.14993 0.4688 0.59249 0.0
O87 O 0.15199 0.51373 0.59699 0.0
Co88 Co 0.99602 0.00721 0.5649 0.0
C89 C 0.02082 0.95954 0.55567 0.0
Co90 Co 0.03605 0.00822 0.5814 0.0
C91 C 0.94756 0.02211 0.54137 0.0
C92 C 0.9452 0.98007 0.55354 0.0
N93 N 0.96182 0.00342 0.55229 0.0
N94 N 0.92272 0.0112 0.53568 0.0
C95 C 0.92129 0.98474 0.54334 0.0
H96 H 0.95521 0.0433 0.53788 0.0
H97 H 0.94999 0.96095 0.56194 0.0
C98 C 0.01134 0.05597 0.59049 0.0
N99 N 0.07028 0.0119 0.59393 0.0
C100 C 0.08456 0.99285 0.60417 0.0
C101 C 0.08722 0.03499 0.59218 0.0
N102 N 0.10981 1.00316 0.6085 0.0
C103 C 0.11147 0.02969 0.60108 0.0
C104 C 0.0337 0.02775 0.52863 0.0
O105 O 0.99223 0.04325 0.57776 0.0
O106 O 0.03191 0.04415 0.59428 0.0
O107 O 0.04869 0.0232 0.54791 0.0
O108 O 0.00893 0.02219 0.53154 0.0
O109 O 0.03991 0.97224 0.56841 0.0
H110 H 0.08245 0.05426 0.58412 0.0
H111 H 0.07693 0.97157 0.60721 0.0
O112 O 1.00019 0.97129 0.55206 0.0
O113 O 0.98337 0.99223 0.59835 0.0
O114 O 0.02312 0.99316 0.61474 0.0
C115 C 0.99834 0.98753 0.61759 0.0
H116 H 0.90389 0.97 0.54258 0.0
H117 H 0.12911 0.04412 0.60162 0.0
Co118 Co 0.49443 0.02929 0.04113 0.0
C119 C 0.49027 0.99044 0.08215 0.0
Co120 Co 0.51736 0.04161 0.07726 0.0
C121 C 0.48087 0.01514 0.98632 0.0
C122 C 0.44794 0.00824 0.01288 0.0
N123 N 0.47373 0.01767 0.01211 0.0
N124 N 0.46058 0.00431 0.97098 0.0
C125 C 0.43981 1.00008 0.98769 0.0
H126 H 0.50079 0.0203 0.97916 0.0
H127 H 0.43591 0.00688 0.03073 0.0
C128 C 0.52198 0.08033 0.03626 0.0
N129 N 0.5382 0.05321 0.10614 0.0
C130 C 0.53248 0.05241 0.13246 0.0
C131 C 0.56327 0.06497 0.10462 0.0
N132 N 0.55309 0.06316 0.14744 0.0
C133 C 0.57245 0.0711 0.12988 0.0
C134 C 0.54484 0.01327 0.03894 0.0
O135 O 0.50631 0.06289 0.02362 0.0
O136 O 0.52876 0.07488 0.05977 0.0
O137 O 0.54639 0.02482 0.06181 0.0
O138 O 0.5234 0.01272 0.02611 0.0
O139 O 0.50582 0.00814 0.09458 0.0
H140 H 0.57414 0.069 0.08625 0.0
H141 H 0.51365 0.04384 0.14042 0.0
O142 O 0.48293 0.99579 0.05875 0.0
O143 O 0.46558 0.04594 0.05649 0.0
O144 O 0.48819 0.05829 0.09243 0.0
C145 C 0.46682 0.05749 0.07934 0.0
H146 H 0.42012 0.99157 0.98221 0.0
H147 H 0.59177 0.08108 0.13484 0.0
Co148 Co 0.55501 0.54583 0.51835 0.0
C149 C 0.51375 0.54782 0.48242 0.0
Co150 Co 0.51636 0.52793 0.53346 0.0
C151 C 0.61067 0.55333 0.50697 0.0
C152 C 0.5907 0.58634 0.49227 0.0
N153 N 0.58669 0.56228 0.50534 0.0
N154 N 0.62956 0.57086 0.4954 0.0
C155 C 0.61699 0.59166 0.48614 0.0
H156 H 0.6141 0.53422 0.51636 0.0
H157 H 0.57549 0.59929 0.48773 0.0
C158 C 0.55758 0.52637 0.56956 0.0
N159 N 0.48477 0.51119 0.54649 0.0
C160 C 0.46034 0.51893 0.54414 0.0
C161 C 0.48147 0.48728 0.55989 0.0
N162 N 0.44191 0.50063 0.5554 0.0
C163 C 0.4552 0.48074 0.56538 0.0
C164 C 0.54527 0.49068 0.50681 0.0
O165 O 0.57151 0.53762 0.55077 0.0
O166 O 0.53299 0.5205 0.56606 0.0
O167 O 0.52404 0.49358 0.51926 0.0
O168 O 0.56222 0.51144 0.50378 0.0
O169 O 0.49997 0.53569 0.50086 0.0
H170 H 0.49718 0.47522 0.56512 0.0
H171 H 0.45614 0.53728 0.53381 0.0
O172 O 0.53829 0.554 0.48603 0.0
O173 O 0.54757 0.58012 0.53309 0.0
O174 O 0.50887 0.56236 0.54751 0.0
C175 C 0.52604 0.58304 0.54504 0.0
H176 H 0.62618 0.6098 0.47617 0.0
H177 H 0.44659 0.4628 0.57604 0.0
Co178 Co 0.01857 0.49507 0.00806 0.0
C179 C 0.96619 0.47598 0.02126 0.0
Co180 Co 0.00706 0.50206 0.04985 0.0
C181 C 0.04541 0.48319 0.95799 0.0
C182 C 0.0077 0.49778 0.95307 0.0
N183 N 0.02466 0.49105 0.97184 0.0
N184 N 0.04197 0.48531 0.93142 0.0
C185 C 0.01832 0.49443 0.92831 0.0
H186 H 0.06291 0.47692 0.96714 0.0
H187 H 0.98888 0.50516 0.95716 0.0
C188 C 0.05933 0.52129 0.03656 0.0
N189 N 1.00058 0.50627 0.08603 0.0
C190 C 0.98266 0.52008 0.09883 0.0
C191 C 0.01453 0.49605 0.10567 0.0
N192 N 0.9848 0.5185 0.12561 0.0
C193 C 1.0048 0.50337 0.12991 0.0
C194 C 0.02899 0.45198 0.03939 0.0
O195 O 0.05314 0.51264 0.0132 0.0
O196 O 0.0421 0.51864 0.05502 0.0
O197 O 0.01841 0.46664 0.05659 0.0
O198 O 0.03103 0.4603 0.01541 0.0
O199 O 0.97199 0.48559 0.04438 0.0
H200 H 0.03118 0.4845 0.10262 0.0
H201 H 0.96845 0.53116 0.08875 0.0
O202 O 0.98387 0.47747 1.00326 0.0
O203 O 0.00632 0.53011 1.00105 0.0
O204 O 0.99581 0.53736 0.04264 0.0
C205 C 0.99704 0.54538 0.01857 0.0
H206 H 0.00944 0.49846 0.90939 0.0
H207 H 0.01248 0.49877 0.14925 0.0
H208 H 0.18504 0.11256 0.33723 0.0
H209 H 0.15881 0.0974 0.37623 0.0
H210 H 0.08768 0.1075 0.33338 0.0
H211 H 0.1139 0.12259 0.29393 0.0
H212 H 0.12309 0.12555 0.40561 0.0
H213 H 0.07378 0.0285 0.36195 0.0
H214 H 0.10237 0.04723 0.34679 0.0
H215 H 0.07061 0.05929 0.34349 0.0
C216 C 0.16381 0.11156 0.33596 0.0
C217 C 0.15163 0.11874 0.31229 0.0
C218 C 0.14882 0.10288 0.35838 0.0
C219 C 0.12123 0.10093 0.35773 0.0
C220 C 0.10892 0.10835 0.33426 0.0
H221 H 0.00801 0.0409 0.48309 0.0
H222 H 0.02766 0.06002 0.44155 0.0
C223 C 0.12396 0.11715 0.31175 0.0
C224 C 0.1057 0.09149 0.38189 0.0
H225 H 0.0624 0.03917 0.40617 0.0
C226 C 0.10974 0.10671 0.40568 0.0
C227 C 0.08814 0.06698 0.38203 0.0
C228 C 0.08351 0.04936 0.3573 0.0
C229 C 0.09694 0.09806 0.42956 0.0
C230 C 0.08001 0.0731 0.42992 0.0
C231 C 0.0754 0.05823 0.40597 0.0
C232 C 0.06789 0.06154 0.45517 0.0
C233 C 0.10156 0.11591 0.45414 0.0
C234 C 0.0839 0.05559 0.47657 0.0
C235 C 0.07275 0.04474 0.50031 0.0
C236 C 0.04526 0.03931 0.50322 0.0
C237 C 0.02923 0.04491 0.48162 0.0
C238 C 0.04044 0.05582 0.45782 0.0
H239 H 0.10795 0.13765 0.44889 0.0
H240 H 0.08352 0.11528 0.46667 0.0
H241 H 0.11739 0.10835 0.46619 0.0
H242 H 0.10513 0.05913 0.47487 0.0
H243 H 0.08578 0.04052 0.51637 0.0
H244 H 0.50239 0.96329 0.72175 0.0
H245 H 0.50034 0.97708 0.76869 0.0
H246 H 0.43189 0.91846 0.78007 0.0
H247 H 0.43434 0.90393 0.73338 0.0
H248 H 0.45839 0.99838 0.79656 0.0
H249 H 0.48269 0.89975 0.83901 0.0
H250 H 0.48815 0.90841 0.80435 0.0
H251 H 0.45562 0.89661 0.81608 0.0
C252 C 0.48692 0.95331 0.73427 0.0
C253 C 0.46825 0.93283 0.72377 0.0
C254 C 0.48573 0.96127 0.76103 0.0
C255 C 0.46608 0.94867 0.77785 0.0
C256 C 0.44735 0.92828 0.76744 0.0
H257 H 0.42822 0.96527 0.94501 0.0
H258 H 0.4293 0.9531 0.89779 0.0
C259 C 0.4485 0.92033 0.74064 0.0
C260 C 0.46521 0.95698 0.80628 0.0
H261 H 0.47028 0.9332 0.86961 0.0
C262 C 0.46107 0.98419 0.81257 0.0
C263 C 0.46874 0.93838 0.82704 0.0
C264 C 0.47428 0.90921 0.82139 0.0
C265 C 0.45987 0.9932 0.83916 0.0
C266 C 0.4634 0.9746 0.85994 0.0
C267 C 0.46758 0.9474 0.85362 0.0
C268 C 0.46253 0.98279 0.88841 0.0
C269 C 0.45424 0.02234 0.84481 0.0
C270 C 0.48098 0.00343 0.89886 0.0
C271 C 0.4803 0.01063 0.92589 0.0
C272 C 0.46121 0.99721 0.943 0.0
C273 C 0.44288 0.97641 0.93241 0.0
C274 C 0.44358 0.96925 0.90542 0.0
H275 H 0.44553 0.03164 0.82726 0.0
H276 H 0.44059 0.02317 0.86203 0.0
H277 H 0.47292 0.03507 0.8498 0.0
H278 H 0.49608 0.01379 0.88615 0.0
H279 H 0.4946 0.02682 0.93331 0.0
H280 H 0.62874 0.5206 0.81271 0.0
H281 H 0.61668 0.52848 0.76655 0.0
H282 H 0.64863 0.45408 0.74215 0.0
H283 H 0.6599 0.44553 0.78848 0.0
H284 H 0.64357 0.53589 0.72077 0.0
H285 H 0.57495 0.44002 0.71382 0.0
H286 H 0.58935 0.45258 0.74493 0.0
H287 H 0.60805 0.43416 0.72171 0.0
C288 C 0.63334 0.50598 0.79751 0.0
C289 C 0.645 0.48227 0.80429 0.0
C290 C 0.62644 0.51052 0.77111 0.0
C291 C 0.63121 0.49155 0.75095 0.0
C292 C 0.64406 0.46858 0.75747 0.0
H293 H 0.60999 0.52826 0.58161 0.0
H294 H 0.62942 0.51922 0.62475 0.0
C295 C 0.65066 0.46382 0.78393 0.0
C296 C 0.62205 0.49561 0.72335 0.0
H297 H 0.58212 0.46584 0.67435 0.0
C298 C 0.63017 0.52056 0.71058 0.0
C299 C 0.60426 0.47574 0.71023 0.0
C300 C 0.59342 0.44924 0.72344 0.0
C301 C 0.62084 0.5263 0.68515 0.0
C302 C 0.60349 0.50619 0.67181 0.0
C303 C 0.59559 0.48114 0.68449 0.0
C304 C 0.59206 0.51119 0.64536 0.0
C305 C 0.62892 0.55424 0.67331 0.0
C306 C 0.56461 0.50875 0.64232 0.0
C307 C 0.55348 0.51339 0.61764 0.0
C308 C 0.56957 0.52073 0.59545 0.0
C309 C 0.59707 0.5229 0.5984 0.0
C310 C 0.60821 0.51793 0.62309 0.0
H311 H 0.63625 0.56954 0.6888 0.0
H312 H 0.64505 0.5526 0.65869 0.0
H313 H 0.61222 0.56206 0.6628 0.0
H314 H 0.55174 0.5035 0.65918 0.0
H315 H 0.53223 0.51156 0.61605 0.0
H316 H 0.97169 0.60718 0.34847 0.0
H317 H 0.97357 0.59454 0.30135 0.0
H318 H 0.89978 0.62716 0.28792 0.0
H319 H 0.89769 0.63996 0.33524 0.0
H320 H 0.90272 0.57303 0.26699 0.0
H321 H 0.98833 0.64525 0.23612 0.0
H322 H 0.99435 0.6266 0.26575 0.0
H323 H 0.96969 0.65017 0.26618 0.0
C324 C 0.95594 0.61188 0.33551 0.0
C325 C 0.93456 0.62462 0.3456 0.0
C326 C 0.95713 0.60479 0.30854 0.0
C327 C 0.93701 0.61029 0.29111 0.0
C328 C 0.91561 0.62298 0.30105 0.0
H329 H 0.96777 0.569 0.12347 0.0
H330 H 0.94989 0.59409 0.1609 0.0
C331 C 0.91447 0.63027 0.32805 0.0
C332 C 0.9379 0.60128 0.2629 0.0
H333 H 0.97789 0.60537 0.2081 0.0
C334 C 0.91884 0.58046 0.25387 0.0
C335 C 0.95866 0.61135 0.24567 0.0
C336 C 0.97879 0.63478 0.25379 0.0
C337 C 0.92114 0.56803 0.22875 0.0
C338 C 0.94316 0.57651 0.21246 0.0
C339 C 0.96111 0.59873 0.22069 0.0
C340 C 0.94989 0.56048 0.18868 0.0
C341 C 0.90042 0.54535 0.22021 0.0
C342 C 0.95547 0.53326 0.19185 0.0
C343 C 0.96571 0.51909 0.17068 0.0
C344 C 0.97064 0.53183 0.1459 0.0
C345 C 0.96391 0.55865 0.1423 0.0
C346 C 0.95383 0.57299 0.16365 0.0
H347 H 0.88119 0.54762 0.22994 0.0
H348 H 0.89778 0.54504 0.19823 0.0
H349 H 0.90657 0.52525 0.22627 0.0
H350 H 0.95309 0.52338 0.21109 0.0
H351 H 0.97058 0.49839 0.1739 0.0
H352 H 0.24939 0.10618 0.19189 0.0
H353 H 0.29024 0.09207 0.17377 0.0
H354 H 0.30764 0.17142 0.13705 0.0
H355 H 0.26601 0.18527 0.15423 0.0
H356 H 0.31995 0.1339 0.10393 0.0
H357 H 0.36266 0.11052 0.20083 0.0
H358 H 0.33156 0.09045 0.19601 0.0
H359 H 0.33315 0.1274 0.19846 0.0
C360 C 0.2619 0.12072 0.18001 0.0
C361 C 0.2544 0.14699 0.17472 0.0
C362 C 0.28549 0.11267 0.16983 0.0
C363 C 0.30264 0.13087 0.15462 0.0
C364 C 0.29499 0.15698 0.1489 0.0
H365 H 0.46451 0.09349 0.12159 0.0
H366 H 0.42572 0.11325 0.13906 0.0
C367 C 0.27112 0.16491 0.15874 0.0
C368 C 0.3281 0.12235 0.14413 0.0
H369 H 0.38287 0.09256 0.16214 0.0
C370 C 0.33378 0.1251 0.11676 0.0
C371 C 0.34668 0.11138 0.16077 0.0
C372 C 0.34335 0.11006 0.19067 0.0
C373 C 0.35689 0.11649 0.10553 0.0
C374 C 0.37455 0.10377 0.12187 0.0
C375 C 0.36928 0.10183 0.14938 0.0
C376 C 0.39838 0.09212 0.1109 0.0
C377 C 0.36227 0.12172 0.07629 0.0
C378 C 0.39616 0.07328 0.08946 0.0
C379 C 0.41838 0.06235 0.07917 0.0
C380 C 0.4434 0.06939 0.09046 0.0
C381 C 0.44558 0.08768 0.11236 0.0
C382 C 0.42335 0.09897 0.12239 0.0
H383 H 0.35256 0.13956 0.06923 0.0
H384 H 0.38369 0.12574 0.07211 0.0
H385 H 0.35414 0.10344 0.06454 0.0
H386 H 0.37714 0.06673 0.08077 0.0
H387 H 0.41584 0.04802 0.06255 0.0
H388 H 0.33443 0.94594 0.63094 0.0
H389 H 0.28795 0.9509 0.6248 0.0
H390 H 0.26941 0.9093 0.69912 0.0
H391 H 0.31624 0.9047 0.70576 0.0
H392 H 0.24508 0.9112 0.62104 0.0
H393 H 0.23543 0.98064 0.70843 0.0
H394 H 0.26703 0.97318 0.69583 0.0
H395 H 0.24708 0.94804 0.71511 0.0
C396 C 0.32054 0.93783 0.64605 0.0
C397 C 0.32909 0.92509 0.66894 0.0
C398 C 0.29394 0.94062 0.64245 0.0
C399 C 0.27525 0.93073 0.66162 0.0
C400 C 0.28356 0.91751 0.6843 0.0
H401 H 0.1082 0.9618 0.64436 0.0
H402 H 0.1458 0.93855 0.65961 0.0
C403 C 0.31031 0.91481 0.688 0.0
C404 C 0.24726 0.93486 0.65757 0.0
H405 H 0.19894 0.97237 0.68014 0.0
C406 C 0.23482 0.92418 0.63421 0.0
C407 C 0.23386 0.95173 0.67485 0.0
C408 C 0.24649 0.96427 0.69989 0.0
C409 C 0.20992 0.93108 0.62698 0.0
C410 C 0.19723 0.9491 0.6435 0.0
C411 C 0.20882 0.95843 0.66765 0.0
C412 C 0.17411 0.96178 0.63402 0.0
C413 C 0.19781 0.92013 0.60113 0.0
C414 C 0.17778 0.98241 0.61475 0.0
C415 C 0.15662 0.99575 0.6063 0.0
C416 C 0.1313 0.98861 0.61685 0.0
C417 C 0.12751 0.96755 0.63585 0.0
C418 C 0.14889 0.95438 0.6446 0.0
H419 H 0.20712 0.90207 0.59359 0.0
H420 H 0.17635 0.91418 0.60369 0.0
H421 H 0.20047 0.9365 0.58586 0.0
H422 H 0.19716 0.98843 0.60647 0.0
H423 H 0.16004 0.01159 0.59136 0.0
H424 H 0.73608 0.40205 0.91985 0.0
H425 H 0.77896 0.40341 0.9416 0.0
H426 H 0.77758 0.48983 0.95857 0.0
H427 H 0.73475 0.48859 0.93697 0.0
H428 H 0.82355 0.47848 0.93551 0.0
H429 H 0.79855 0.40851 0.02066 0.0
H430 H 0.7892 0.39404 0.9886 0.0
H431 H 0.77381 0.42286 1.00123 0.0
C432 C 0.74457 0.42116 0.92879 0.0
C433 C 0.73177 0.4451 0.92708 0.0
C434 C 0.76914 0.42192 0.94118 0.0
C435 C 0.78126 0.44661 0.95216 0.0
C436 C 0.76851 0.47051 0.95041 0.0
H437 H 0.9211 0.48087 0.05009 0.0
H438 H 0.87565 0.47133 0.03426 0.0
C439 C 0.74406 0.46978 0.93798 0.0
C440 C 0.80797 0.44815 0.96394 0.0
H441 H 0.84402 0.42296 0.01351 0.0
C442 C 0.82799 0.46636 0.95259 0.0
C443 C 0.81366 0.43253 0.9864 0.0
C444 C 0.79265 0.41355 1.00014 0.0
C445 C 0.8536 0.46924 0.96288 0.0
C446 C 0.85951 0.45307 0.98485 0.0
C447 C 0.83946 0.43508 0.99648 0.0
C448 C 0.88646 0.45503 0.99599 0.0
C449 C 0.87403 0.48995 0.9504 0.0
C450 C 0.90741 0.44796 0.98014 0.0
C451 C 0.93329 0.45346 0.98904 0.0
C452 C 0.93872 0.46592 0.01409 0.0
C453 C 0.91757 0.47127 0.0307 0.0
C454 C 0.89161 0.46586 0.02169 0.0
H455 H 0.8649 0.50521 0.93824 0.0
H456 H 0.88653 0.50114 0.96591 0.0
H457 H 0.88696 0.47904 0.93711 0.0
H458 H 0.90379 0.43913 0.96044 0.0
H459 H 0.9491 0.44884 0.97584 0.0
H460 H 0.8762 0.57791 0.44836 0.0
H461 H 0.82833 0.56716 0.4508 0.0
H462 H 0.83032 0.58398 0.53534 0.0
H463 H 0.87811 0.59485 0.53318 0.0
H464 H 0.79282 0.52938 0.48546 0.0
H465 H 0.78498 0.64112 0.50037 0.0
H466 H 0.81451 0.6283 0.4878 0.0
H467 H 0.80657 0.62586 0.52267 0.0
C468 C 0.86653 0.57886 0.46757 0.0
C469 C 0.88093 0.58761 0.49053 0.0
C470 C 0.8392 0.57265 0.46892 0.0
C471 C 0.82588 0.57514 0.49318 0.0
C472 C 0.84031 0.58222 0.51639 0.0
H473 H 0.65834 0.5427 0.52889 0.0
H474 H 0.70601 0.54119 0.52778 0.0
C475 C 0.86761 0.5884 0.5151 0.0
C476 C 0.79682 0.57288 0.49375 0.0
H477 H 0.7455 0.6114 0.50133 0.0
C478 C 0.78239 0.54722 0.48901 0.0
C479 C 0.78343 0.59634 0.49806 0.0
C480 C 0.79806 0.62455 0.50233 0.0
C481 C 0.75473 0.54441 0.48868 0.0
C482 C 0.74138 0.56785 0.49329 0.0
C483 C 0.75586 0.59347 0.49791 0.0
C484 C 0.71235 0.56661 0.49277 0.0
C485 C 0.73997 0.5166 0.48288 0.0
C486 C 0.7002 0.58144 0.47349 0.0
C487 C 0.67301 0.58231 0.47402 0.0
C488 C 0.65742 0.56853 0.494 0.0
C489 C 0.66965 0.55324 0.51303 0.0
C490 C 0.6969 0.55235 0.51244 0.0
H491 H 0.7531 0.50189 0.47468 0.0
H492 H 0.73102 0.50796 0.50162 0.0
H493 H 0.72382 0.51845 0.4685 0.0
H494 H 0.71183 0.59261 0.45816 0.0
H495 H 0.66424 0.59389 0.45881 0.0
H496 H 0.12337 0.22718 0.11624 0.0
H497 H 0.10213 0.26199 0.09212 0.0
H498 H 0.14434 0.32581 0.13991 0.0
H499 H 0.16597 0.29121 0.16378 0.0
H500 H 0.06963 0.29773 0.111 0.0
H501 H 0.15718 0.35658 0.06585 0.0
H502 H 0.15837 0.32323 0.08062 0.0
H503 H 0.15987 0.3536 0.10134 0.0
C504 C 0.1284 0.24865 0.12143 0.0
C505 C 0.14653 0.25633 0.14192 0.0
C506 C 0.11616 0.26856 0.10762 0.0
C507 C 0.12184 0.29666 0.11384 0.0
C508 C 0.14003 0.30439 0.13421 0.0
H509 H 0.02618 0.42891 0.08889 0.0
H510 H 0.04785 0.39023 0.10477 0.0
C511 C 0.15231 0.2845 0.148 0.0
C512 C 0.10775 0.31772 0.10002 0.0
H513 H 0.11733 0.37813 0.06558 0.0
C514 C 0.0801 0.31517 0.10088 0.0
C515 C 0.12125 0.34035 0.08639 0.0
C516 C 0.15079 0.34351 0.08321 0.0
C517 C 0.06571 0.33497 0.08938 0.0
C518 C 0.07927 0.35835 0.07698 0.0
C519 C 0.10687 0.36042 0.07528 0.0
C520 C 0.06526 0.38134 0.06668 0.0
C521 C 0.03604 0.33055 0.09051 0.0
C522 C 0.06804 0.38975 0.03995 0.0
C523 C 0.05565 0.41213 0.03072 0.0
C524 C 0.04039 0.42674 0.04812 0.0
C525 C 0.03755 0.4181 0.0748 0.0
C526 C 0.04988 0.3958 0.08395 0.0
H527 H 0.02879 0.30844 0.09284 0.0
H528 H 0.02905 0.34183 0.10799 0.0
H529 H 0.02721 0.3383 0.07227 0.0
H530 H 0.07993 0.37908 0.02624 0.0
H531 H 0.05847 0.41831 0.01013 0.0
H532 H 0.6655 0.28718 0.92966 0.0
H533 H 0.6416 0.2419 0.93819 0.0
H534 H 0.58854 0.27923 0.99093 0.0
H535 H 0.61183 0.32449 0.98204 0.0
H536 H 0.63465 0.2144 0.98396 0.0
H537 H 0.53721 0.23215 0.94451 0.0
H538 H 0.56653 0.25528 0.93806 0.0
H539 H 0.54866 0.25767 0.9689 0.0
C540 C 0.64866 0.28575 0.94298 0.0
C541 C 0.64049 0.30946 0.95508 0.0
C542 C 0.63499 0.25988 0.94778 0.0
C543 C 0.61291 0.25724 0.96472 0.0
C544 C 0.60501 0.28084 0.97714 0.0
H545 H 0.55106 0.12324 0.06055 0.0
H546 H 0.57272 0.16473 0.04017 0.0
C547 C 0.61853 0.30669 0.97223 0.0
C548 C 0.59902 0.22973 0.97072 0.0
H549 H 0.53791 0.19379 0.97428 0.0
C550 C 0.61356 0.20978 0.98148 0.0
C551 C 0.57156 0.22345 0.96701 0.0
C552 C 0.55514 0.24318 0.95371 0.0
C553 C 0.6012 0.1843 0.98993 0.0
C554 C 0.57349 0.17888 0.98812 0.0
C555 C 0.5591 0.19817 0.97603 0.0
C556 C 0.5591 0.15408 1.00024 0.0
C557 C 0.61793 0.16352 1.00099 0.0
C558 C 0.54325 0.13485 0.98473 0.0
C559 C 0.53051 0.11105 0.99642 0.0
C560 C 0.53342 0.10627 0.02381 0.0
C561 C 0.5486 0.1261 0.03935 0.0
C562 C 0.56117 0.14979 0.02771 0.0
H563 H 0.63845 0.16695 0.99332 0.0
H564 H 0.61867 0.16562 0.02304 0.0
H565 H 0.60966 0.14218 0.99589 0.0
H566 H 0.5412 0.13797 0.96351 0.0
H567 H 0.51891 0.09617 0.98395 0.0
H568 H 0.01265 0.69858 0.4979 0.0
H569 H 0.02946 0.74427 0.51473 0.0
H570 H 0.9868 0.78176 0.45354 0.0
H571 H 0.97002 0.73633 0.43646 0.0
H572 H 0.03978 0.80877 0.46492 0.0
H573 H 0.97587 0.78917 0.55466 0.0
H574 H 0.9984 0.7644 0.54699 0.0
H575 H 0.97157 0.7682 0.52488 0.0
C576 C 0.00722 0.71653 0.4877 0.0
C577 C 0.9897 0.7138 0.46603 0.0
C578 C 0.0168 0.7426 0.4974 0.0
C579 C 0.00906 0.76629 0.48557 0.0
C580 C 0.99294 0.76367 0.46296 0.0
H581 H 0.98163 0.92621 0.53156 0.0
H582 H 0.98285 0.87917 0.51552 0.0
C583 C 0.9833 0.73767 0.45329 0.0
C584 C 0.01553 0.7937 0.49802 0.0
H585 H 0.99874 0.83318 0.55056 0.0
C586 C 0.03122 0.81406 0.48386 0.0
C587 C 1.00403 0.80049 0.52259 0.0
C588 C 0.98637 0.77956 0.5382 0.0
C589 C 0.03518 0.8413 0.49339 0.0
C590 C 0.02311 0.84815 0.51758 0.0
C591 C 0.00808 0.82766 0.5321 0.0
C592 C 0.02335 0.87696 0.52671 0.0
C593 C 0.05118 0.86289 0.47707 0.0
C594 C 0.0458 0.89121 0.53835 0.0
C595 C 0.04517 0.9182 0.54771 0.0
C596 C 0.02208 0.93125 0.54546 0.0
C597 C 0.99975 0.91684 0.53357 0.0
C598 C 1.00038 0.88994 0.5244 0.0
H599 H 0.05806 0.85448 0.45793 0.0
H600 H 0.03927 0.87998 0.4727 0.0
H601 H 0.0686 0.87164 0.48866 0.0
H602 H 0.06364 0.88135 0.54044 0.0
H603 H 0.06267 0.92876 0.55679 0.0
H604 H 0.45582 0.81763 0.62548 0.0
H605 H 0.4585 0.76896 0.61539 0.0
H606 H 0.5427 0.78532 0.60628 0.0
H607 H 0.54029 0.83379 0.61688 0.0
H608 H 0.4762 0.74627 0.5699 0.0
H609 H 0.53642 0.71975 0.65538 0.0
H610 H 0.52077 0.75106 0.65443 0.0
H611 H 0.55153 0.74885 0.63732 0.0
C612 C 0.47494 0.81082 0.62157 0.0
C613 C 0.49786 0.82956 0.62209 0.0
C614 C 0.47642 0.783 0.6158 0.0
C615 C 0.50084 0.77342 0.61054 0.0
C616 C 0.52373 0.79211 0.61097 0.0
H617 H 0.5605 0.62973 0.54717 0.0
H618 H 0.55239 0.67497 0.56432 0.0
C619 C 0.52229 0.81987 0.61685 0.0
C620 C 0.50233 0.7442 0.6032 0.0
H621 H 0.53328 0.68797 0.61853 0.0
C622 C 0.48838 0.73339 0.58074 0.0
C623 C 0.51817 0.72741 0.61744 0.0
C624 C 0.53236 0.73726 0.64264 0.0
C625 C 0.49071 0.70659 0.57149 0.0
C626 C 0.50727 0.69021 0.5852 0.0
C627 C 0.5207 0.70072 0.60802 0.0
C628 C 0.51191 0.66256 0.57537 0.0
C629 C 0.47623 0.69627 0.5466 0.0
C630 C 0.49184 0.64059 0.5762 0.0
C631 C 0.49642 0.61462 0.5665 0.0
C632 C 0.52114 0.61029 0.55577 0.0
C633 C 0.54122 0.63238 0.55522 0.0
C634 C 0.53666 0.65823 0.56504 0.0
H635 H 0.46744 0.71293 0.53609 0.0
H636 H 0.48972 0.68688 0.53266 0.0
H637 H 0.46016 0.68013 0.55203 0.0
H638 H 0.47268 0.64353 0.58436 0.0
H639 H 0.48056 0.59802 0.56725 0.0
H640 H 0.86237 0.92353 0.82846 0.0
H641 H 0.8862 0.94075 0.7886 0.0
H642 H 0.93381 0.87339 0.79144 0.0
H643 H 0.90993 0.85581 0.83135 0.0
H644 H 0.94029 0.95711 0.78137 0.0
H645 H 0.90556 0.86953 0.71455 0.0
H646 H 0.89007 0.87537 0.74623 0.0
H647 H 0.92055 0.86029 0.74505 0.0
C648 C 0.87785 0.91225 0.82066 0.0
C649 C 0.88406 0.88812 0.83319 0.0
C650 C 0.89153 0.92221 0.79783 0.0
C651 C 0.91162 0.90824 0.78677 0.0
C652 C 0.9181 0.88431 0.79931 0.0
H653 H 0.0237 0.97702 0.66414 0.0
H654 H 1.004 0.95751 0.70547 0.0
C655 C 0.90448 0.87435 0.82225 0.0
C656 C 0.92576 0.91894 0.76222 0.0
H657 H 0.93693 0.90367 0.6967 0.0
C658 C 0.93965 0.94538 0.76289 0.0
C659 C 0.92471 0.90378 0.73799 0.0
C660 C 0.90926 0.87576 0.73568 0.0
C661 C 0.95249 0.95701 0.74008 0.0
C662 C 0.95168 0.94173 0.71592 0.0
C663 C 0.93777 0.9153 0.71525 0.0
C664 C 0.964 0.9533 0.6908 0.0
C665 C 0.96619 0.9859 0.74182 0.0
C666 C 0.94823 0.95696 0.66855 0.0
C667 C 0.95942 0.96806 0.64493 0.0
C668 C 0.98674 0.97561 0.64284 0.0
C669 C 1.00259 0.97159 0.66504 0.0
C670 C 0.99133 0.96054 0.68876 0.0
H671 H 0.96017 0.99697 0.7599 0.0
H672 H 0.98777 0.98507 0.74271 0.0
H673 H 0.96195 0.99789 0.72395 0.0
H674 H 0.92713 0.95147 0.66956 0.0
H675 H 0.94656 0.97071 0.62826 0.0
H676 H 0.56064 0.05876 0.40545 0.0
H677 H 0.54856 0.05312 0.3584 0.0
H678 H 0.60054 0.12584 0.33921 0.0
H679 H 0.61271 0.13158 0.38621 0.0
H680 H 0.55205 0.12215 0.31207 0.0
H681 H 0.59941 0.02545 0.30365 0.0
H682 H 0.57464 0.02532 0.32919 0.0
H683 H 0.60439 0.04844 0.33194 0.0
C684 C 0.56929 0.0737 0.39122 0.0
C685 C 0.58742 0.09578 0.39955 0.0
C686 C 0.56243 0.0704 0.36437 0.0
C687 C 0.57391 0.08886 0.3453 0.0
C688 C 0.59139 0.11143 0.35365 0.0
H689 H 0.59685 0.06552 0.17791 0.0
H690 H 0.59972 0.07205 0.22604 0.0
C691 C 0.59815 0.11483 0.38056 0.0
C692 C 0.56875 0.08394 0.31652 0.0
H693 H 0.577 0.03874 0.26569 0.0
C694 C 0.55738 0.10389 0.30189 0.0
C695 C 0.57604 0.06021 0.30331 0.0
C696 C 0.58951 0.03871 0.31772 0.0
C697 C 0.55319 0.10078 0.27431 0.0
C698 C 0.56021 0.0769 0.26118 0.0
C699 C 0.57141 0.0569 0.27588 0.0
C700 C 0.55788 0.07306 0.23192 0.0
C701 C 0.54209 0.12347 0.2593 0.0
C702 C 0.53332 0.07113 0.21923 0.0
C703 C 0.53162 0.06762 0.19152 0.0
C704 C 0.55447 0.06588 0.17608 0.0
C705 C 0.57893 0.06731 0.18904 0.0
C706 C 0.5806 0.07084 0.21662 0.0
H707 H 0.54309 0.14285 0.27116 0.0
H708 H 0.55284 0.12768 0.24021 0.0
H709 H 0.52113 0.117 0.25457 0.0
H710 H 0.51549 0.0723 0.23074 0.0
H711 H 0.51251 0.06672 0.1822 0.0
H712 H 0.38206 0.64974 0.29656 0.0
H713 H 0.40143 0.63259 0.33678 0.0
H714 H 0.45636 0.59278 0.28844 0.0
H715 H 0.437 0.60965 0.24806 0.0
H716 H 0.43172 0.55937 0.32967 0.0
H717 H 0.47422 0.66185 0.36723 0.0
H718 H 0.4397 0.65913 0.35969 0.0
H719 H 0.46315 0.65613 0.3333 0.0
C720 C 0.39827 0.63734 0.29445 0.0
C721 C 0.40808 0.63118 0.26909 0.0
C722 C 0.40937 0.62766 0.31747 0.0
C723 C 0.43053 0.61173 0.31557 0.0
C724 C 0.44009 0.60515 0.29031 0.0
H725 H 0.53759 0.57531 0.44011 0.0
H726 H 0.51701 0.58951 0.39938 0.0
C727 C 0.42904 0.61485 0.26727 0.0
C728 C 0.44271 0.6019 0.33993 0.0
H729 H 0.47663 0.62404 0.39594 0.0
C730 C 0.44156 0.57347 0.34418 0.0
C731 C 0.45576 0.62037 0.35862 0.0
C732 C 0.45855 0.65108 0.35448 0.0
C733 C 0.45289 0.563 0.36686 0.0
C734 C 0.46543 0.58151 0.38585 0.0
C735 C 0.46682 0.60992 0.38143 0.0
C736 C 0.47777 0.57187 0.4102 0.0
C737 C 0.45178 0.53227 0.3701 0.0
C738 C 0.46249 0.55729 0.42982 0.0
C739 C 0.47419 0.54911 0.45318 0.0
C740 C 0.50138 0.55547 0.45732 0.0
C741 C 0.51662 0.56999 0.43753 0.0
C742 C 0.5049 0.57818 0.41425 0.0
H743 H 0.44697 0.5211 0.35106 0.0
H744 H 0.47082 0.52648 0.37756 0.0
H745 H 0.43628 0.52536 0.3849 0.0
H746 H 0.44144 0.55263 0.42727 0.0
H747 H 0.46187 0.53809 0.46809 0.0
H748 H 0.11374 0.41456 0.69624 0.0
H749 H 0.11284 0.41158 0.74503 0.0
H750 H 0.0911 0.4942 0.75017 0.0
H751 H 0.0916 0.49717 0.7016 0.0
H752 H 0.13352 0.48299 0.78451 0.0
H753 H 0.04585 0.40486 0.79296 0.0
H754 H 0.07252 0.39716 0.77158 0.0
H755 H 0.05312 0.4241 0.76277 0.0
C756 C 0.10808 0.43178 0.70773 0.0
C757 C 0.10203 0.45583 0.69504 0.0
C758 C 0.10786 0.43016 0.73561 0.0
C759 C 0.10165 0.45258 0.75116 0.0
C760 C 0.09593 0.47666 0.73852 0.0
H761 H 0.05618 0.51903 0.89103 0.0
H762 H 0.0784 0.50733 0.84996 0.0
C763 C 0.09616 0.4783 0.71077 0.0
C764 C 0.10087 0.45142 0.78065 0.0
H765 H 0.06202 0.42634 0.83235 0.0
C766 C 0.11823 0.4702 0.79507 0.0
C767 C 0.08115 0.43445 0.79439 0.0
C768 C 0.06194 0.41403 0.77977 0.0
C769 C 0.11528 0.47375 0.82266 0.0
C770 C 0.09419 0.45843 0.83604 0.0
C771 C 0.07817 0.43807 0.82202 0.0
C772 C 0.08539 0.46663 0.86284 0.0
C773 C 0.13403 0.49475 0.83706 0.0
C774 C 0.08218 0.44776 0.8839 0.0
C775 C 0.06958 0.45461 0.90757 0.0
C776 C 0.05958 0.48012 0.91006 0.0
C777 C 0.06386 0.4993 0.88946 0.0
C778 C 0.07668 0.49267 0.86611 0.0
H779 H 0.15363 0.49718 0.82714 0.0
H780 H 0.12614 0.51499 0.83667 0.0
H781 H 0.13654 0.48898 0.85819 0.0
H782 H 0.08849 0.42744 0.8816 0.0
H783 H 0.06613 0.43946 0.92316 0.0
H784 H 0.71644 0.90848 0.89346 0.0
H785 H 0.6802 0.92649 0.91738 0.0
H786 H 0.72715 0.93537 0.98871 0.0
H787 H 0.76377 0.91744 0.96479 0.0
H788 H 0.6529 0.90663 0.96352 0.0
H789 H 0.7026 0.01226 0.97982 0.0
H790 H 0.71468 0.9885 0.9562 0.0
H791 H 0.72027 0.98483 0.99126 0.0
C792 C 0.71917 0.91424 0.91424 0.0
C793 C 0.74318 0.91158 0.92711 0.0
C794 C 0.69834 0.92453 0.92792 0.0
C795 C 0.70097 0.93269 0.95477 0.0
C796 C 0.72475 0.9297 0.96787 0.0
H797 H 0.59292 0.0089 0.06182 0.0
H798 H 0.63044 0.98844 0.0425 0.0
C799 C 0.74564 0.91926 0.9542 0.0
C800 C 0.67867 0.94408 0.96886 0.0
H801 H 0.66023 1.00229 0.99857 0.0
C802 C 0.65452 0.92754 0.97121 0.0
C803 C 0.68074 0.97135 0.979 0.0
C804 C 0.70587 0.99043 0.97633 0.0
C805 C 0.6325 0.9374 0.98349 0.0
C806 C 0.63439 0.96486 0.99316 0.0
C807 C 0.65867 0.98128 0.99115 0.0
C808 C 0.61133 0.97707 0.005 0.0
C809 C 0.60756 0.91806 0.98636 0.0
C810 C 0.58808 0.97792 0.99032 0.0
C811 C 0.56652 0.9895 1.00136 0.0
C812 C 0.56774 1.00081 0.0273 0.0
C813 C 0.59118 1.0003 0.04184 0.0
C814 C 0.61272 0.98862 0.0308 0.0
H815 H 0.6116 0.89621 0.98562 0.0
H816 H 0.59727 0.92179 0.00539 0.0
H817 H 0.59415 0.92135 0.96965 0.0
H818 H 0.58665 0.96986 0.97013 0.0
H819 H 0.54893 0.98974 0.98945 0.0
H820 H 0.70522 0.1206 0.4983 0.0
H821 H 0.75288 0.11859 0.5015 0.0
H822 H 0.74167 0.03164 0.48406 0.0
H823 H 0.6942 0.03335 0.48102 0.0
H824 H 0.77736 0.08219 0.53807 0.0
H825 H 0.80132 0.06421 0.43183 0.0
H826 H 0.77218 0.07936 0.44229 0.0
H827 H 0.77305 0.04279 0.44404 0.0
C828 C 0.71294 0.10111 0.49494 0.0
C829 C 0.69595 0.07711 0.48943 0.0
C830 C 0.74013 0.10002 0.49676 0.0
C831 C 0.75073 0.07506 0.49265 0.0
C832 C 0.73386 0.05119 0.48686 0.0
H833 H 0.88096 0.98801 0.50762 0.0
H834 H 0.84177 0.00921 0.49571 0.0
C835 C 0.70673 0.05218 0.48531 0.0
C836 C 0.77919 0.07319 0.4961 0.0
H837 H 0.8327 0.05254 0.46395 0.0
C838 C 0.78974 0.07629 0.52184 0.0
C839 C 0.79513 0.06555 0.4748 0.0
C840 C 0.78497 0.063 0.44661 0.0
C841 C 0.81531 0.06996 0.52724 0.0
C842 C 0.83086 0.06093 0.50613 0.0
C843 C 0.82077 0.05944 0.4801 0.0
C844 C 0.85606 0.0495 0.51118 0.0
C845 C 0.82475 0.07119 0.55575 0.0
C846 C 0.87751 0.06532 0.52314 0.0
C847 C 0.89995 0.05307 0.53035 0.0
C848 C 0.90127 0.02486 0.52556 0.0
C849 C 0.88033 0.00959 0.51218 0.0
C850 C 0.85799 0.02176 0.50512 0.0
H851 H 0.80856 0.07369 0.57014 0.0
H852 H 0.83372 0.05224 0.56084 0.0
H853 H 0.83998 0.08899 0.55829 0.0
H854 H 0.87665 0.08693 0.52749 0.0
H855 H 0.91573 0.06542 0.54058 0.0
H856 H 0.30446 0.61718 0.0643 0.0
H857 H 0.26085 0.59749 0.04938 0.0
H858 H 0.23288 0.59628 0.13066 0.0
H859 H 0.27635 0.61606 0.14583 0.0
H860 H 0.22892 0.54737 0.06554 0.0
H861 H 0.18273 0.64241 0.08926 0.0
H862 H 0.21792 0.64201 0.08647 0.0
H863 H 0.20088 0.62942 0.11607 0.0
C864 C 0.2891 0.61255 0.07905 0.0
C865 C 0.29382 0.61841 0.10624 0.0
C866 C 0.26422 0.60129 0.07047 0.0
C867 C 0.24361 0.59588 0.08888 0.0
C868 C 0.24847 0.60075 0.11612 0.0
H869 H 0.07869 0.53935 0.08491 0.0
H870 H 0.12381 0.55719 0.09588 0.0
C871 C 0.27335 0.61192 0.12474 0.0
C872 C 0.21684 0.58576 0.07959 0.0
H873 H 0.15407 0.60311 0.07668 0.0
C874 C 0.21253 0.55955 0.06779 0.0
C875 C 0.19563 0.60184 0.0825 0.0
C876 C 0.19944 0.63059 0.09405 0.0
C877 C 0.18727 0.54857 0.05961 0.0
C878 C 0.16597 0.56453 0.06284 0.0
C879 C 0.17043 0.59093 0.07424 0.0
C880 C 0.13865 0.55385 0.05563 0.0
C881 C 0.18344 0.51968 0.04841 0.0
C882 C 0.13192 0.54644 0.02923 0.0
C883 C 0.10606 0.53613 0.02284 0.0
C884 C 0.08648 0.53328 0.04276 0.0
C885 C 0.09326 0.54126 0.06907 0.0
C886 C 0.11905 0.55146 0.07541 0.0
H887 H 0.2003 0.50803 0.05307 0.0
H888 H 0.16514 0.50823 0.05637 0.0
H889 H 0.18168 0.52057 0.0264 0.0
H890 H 0.14664 0.54868 0.01356 0.0
H891 H 0.10145 0.53028 1.00237 0.0
H892 H 0.19363 0.45088 0.5803 0.0
H893 H 0.24107 0.45474 0.57209 0.0
H894 H 0.24507 0.54303 0.57872 0.0
H895 H 0.19751 0.53945 0.58683 0.0
H896 H 0.27473 0.52203 0.53452 0.0
H897 H 0.29539 0.47654 0.63228 0.0
H898 H 0.27083 0.45658 0.61261 0.0
H899 H 0.26461 0.48981 0.62511 0.0
C900 C 0.20453 0.47115 0.57985 0.0
C901 C 0.19184 0.49486 0.58442 0.0
C902 C 0.23164 0.47329 0.57525 0.0
C903 C 0.24654 0.49913 0.5752 0.0
C904 C 0.23386 0.52291 0.57882 0.0
H905 H 0.41591 0.54613 0.55598 0.0
H906 H 0.36822 0.54743 0.55964 0.0
C907 C 0.20672 0.5208 0.58349 0.0
C908 C 0.27546 0.50118 0.57208 0.0
H909 H 0.3309 0.48306 0.60162 0.0
C910 C 0.28711 0.5137 0.54922 0.0
C911 C 0.29144 0.49038 0.5914 0.0
C912 C 0.28004 0.47777 0.61687 0.0
C913 C 0.31436 0.51484 0.54472 0.0
C914 C 0.33027 0.50358 0.56385 0.0
C915 C 0.31862 0.49156 0.58694 0.0
C916 C 0.35898 0.50318 0.56011 0.0
C917 C 0.32577 0.52725 0.51919 0.0
C918 C 0.36957 0.47793 0.55945 0.0
C919 C 0.3967 0.47714 0.55751 0.0
C920 C 0.41385 0.50162 0.55628 0.0
C921 C 0.40319 0.52694 0.55656 0.0
C922 C 0.37596 0.52771 0.55861 0.0
H923 H 0.31033 0.52908 0.50399 0.0
H924 H 0.33563 0.54817 0.52346 0.0
H925 H 0.34068 0.51472 0.51067 0.0
H926 H 0.35679 0.45877 0.56057 0.0
H927 H 0.40423 0.45732 0.55691 0.0
H928 H 0.87265 0.73189 0.91239 0.0
H929 H 0.89255 0.69227 0.92943 0.0
H930 H 0.94455 0.74623 0.97883 0.0
H931 H 0.92497 0.78603 0.96164 0.0
H932 H 0.97046 0.70696 0.95317 0.0
H933 H 0.8804 0.65771 1.0027 0.0
H934 H 0.87594 0.66447 0.96799 0.0
H935 H 0.8832 0.6927 0.99097 0.0
C936 C 0.88833 0.73538 0.92687 0.0
C937 C 0.89709 0.76222 0.9357 0.0
C938 C 0.89958 0.71264 0.93676 0.0
C939 C 0.91975 0.71612 0.95584 0.0
C940 C 0.92891 0.74293 0.96428 0.0
H941 H 0.9735 0.58234 0.0499 0.0
H942 H 0.95586 0.62457 0.03572 0.0
C943 C 0.91766 0.7657 0.95441 0.0
C944 C 0.93154 0.6919 0.96669 0.0
H945 H 0.9165 0.63097 0.99927 0.0
C946 C 0.95867 0.69042 0.96335 0.0
C947 C 0.91631 0.67043 0.98039 0.0
C948 C 0.8874 0.67144 0.986 0.0
C949 C 0.97078 0.66783 0.97266 0.0
C950 C 0.95534 0.64582 0.98537 0.0
C951 C 0.92835 0.64765 0.98934 0.0
C952 C 0.96669 0.62053 0.9942 0.0
C953 C 1.00011 0.66791 0.96904 0.0
C954 C 0.97847 0.60399 0.97563 0.0
C955 C 0.98859 0.57991 0.98367 0.0
C956 C 0.98706 0.57161 0.01051 0.0
C957 C 0.97518 0.58815 0.02912 0.0
C958 C 0.96501 0.61228 0.02102 0.0
H959 H 0.01 0.68908 0.96625 0.0
H960 H 0.00904 0.6586 0.98642 0.0
H961 H 1.00399 0.65567 0.95099 0.0
H962 H 0.97951 0.60948 0.95475 0.0
H963 H 0.99738 0.56763 0.9687 0.0
H964 H 0.39609 0.74662 0.11786 0.0
H965 H 0.41432 0.79394 0.10948 0.0
H966 H 0.44304 0.80158 0.19016 0.0
H967 H 0.42479 0.75396 0.19891 0.0
H968 H 0.39985 0.84124 0.14168 0.0
H969 H 0.50726 0.83022 0.14017 0.0
H970 H 0.48274 0.80137 0.13404 0.0
H971 H 0.48759 0.81492 0.1672 0.0
C972 C 0.40648 0.75817 0.13383 0.0
C973 C 0.40892 0.74647 0.15911 0.0
C974 C 0.41685 0.78524 0.12897 0.0
C975 C 0.43007 0.80113 0.14916 0.0
C976 C 0.43309 0.78949 0.17427 0.0
H977 H 0.50266 0.9715 0.13133 0.0
H978 H 0.4877 0.92665 0.15084 0.0
C979 C 0.4226 0.76233 0.17922 0.0
C980 C 0.43942 0.83027 0.14396 0.0
H981 H 0.49465 0.87402 0.13104 0.0
C982 C 0.42058 0.84852 0.13959 0.0
C983 C 0.46646 0.83965 0.14153 0.0
C984 C 0.48732 0.82062 0.14583 0.0
C985 C 0.42805 0.87582 0.13213 0.0
C986 C 0.45504 0.88488 0.12837 0.0
C987 C 0.47396 0.86695 0.13383 0.0
C988 C 0.46382 0.91221 0.117 0.0
C989 C 0.40693 0.89465 0.12815 0.0
C990 C 0.45559 0.91875 0.09142 0.0
C991 C 0.46402 0.94424 0.08026 0.0
C992 C 0.48106 0.96367 0.09439 0.0
C993 C 0.48945 0.95701 0.11998 0.0
C994 C 0.48097 0.93142 0.13114 0.0
H995 H 0.38881 0.8876 0.1396 0.0
H996 H 0.41385 0.91608 0.13432 0.0
H997 H 0.40166 0.89469 0.10672 0.0
H998 H 0.44282 0.90397 0.07992 0.0
H999 H 0.4573 0.94861 0.06046 0.0
H1000 H 1.00427 0.31774 0.6309 0.0
H1001 H 0.99167 0.26849 0.62401 0.0
H1002 H 0.0642 0.25077 0.6602 0.0
H1003 H 0.07683 0.29988 0.66748 0.0
H1004 H 0.01895 0.23374 0.59356 0.0
H1005 H 0.0098 0.19696 0.69769 0.0
H1006 H 0.01044 0.23284 0.68922 0.0
H1007 H 0.0406 0.21713 0.69108 0.0
C1008 C 0.01741 0.30336 0.63771 0.0
C1009 C 0.04157 0.31275 0.64975 0.0
C1010 C 0.01016 0.27522 0.63375 0.0
C1011 C 0.02682 0.25596 0.64192 0.0
C1012 C 0.05077 0.26524 0.65428 0.0
H1013 H 0.04869 0.08761 0.61902 0.0
H1014 H 0.04894 0.1358 0.63201 0.0
C1015 C 0.05804 0.29335 0.65826 0.0
C1016 C 0.02016 0.22632 0.63577 0.0
H1017 H 0.01333 0.1626 0.66386 0.0
C1018 C 0.0173 0.21818 0.60893 0.0
C1019 C 0.01803 0.2061 0.65588 0.0
C1020 C 0.01962 0.21368 0.6851 0.0
C1021 C 0.0136 0.19027 0.60156 0.0
C1022 C 0.0123 0.17003 0.62164 0.0
C1023 C 0.01435 0.17819 0.64852 0.0
C1024 C 0.01088 0.14034 0.615 0.0
C1025 C 0.01234 0.18266 0.57232 0.0
C1026 C 0.9891 0.12675 0.60157 0.0
C1027 C 0.98889 0.0991 0.59402 0.0
C1028 C 0.01043 0.08462 0.5999 0.0
C1029 C 0.03181 0.09815 0.61408 0.0
C1030 C 0.03199 0.12569 0.62159 0.0
H1031 H 0.01873 0.20051 0.5594 0.0
H1032 H 0.0249 0.16603 0.56788 0.0
H1033 H 0.99177 0.17498 0.56704 0.0
H1034 H 0.97243 0.13762 0.59667 0.0
H1035 H 0.97208 0.08923 0.58323 0.0
H1036 H 0.61508 0.25755 0.42072 0.0
H1037 H 0.61161 0.30602 0.43144 0.0
H1038 H 0.53183 0.28497 0.45857 0.0
H1039 H 0.53507 0.2366 0.44812 0.0
H1040 H 0.57369 0.34267 0.41431 0.0
H1041 H 0.571 0.32381 0.52337 0.0
H1042 H 0.58191 0.29952 0.49956 0.0
H1043 H 0.54735 0.30174 0.50452 0.0
C1044 C 0.59672 0.26326 0.42878 0.0
C1045 C 0.57543 0.24316 0.43382 0.0
C1046 C 0.59479 0.29095 0.43486 0.0
C1047 C 0.57163 0.29892 0.44618 0.0
C1048 C 0.55003 0.2791 0.45025 0.0
H1049 H 0.51225 0.44306 0.50923 0.0
H1050 H 0.5203 0.39755 0.49303 0.0
C1051 C 0.55191 0.25148 0.44417 0.0
C1052 C 0.57013 0.32778 0.45456 0.0
H1053 H 0.56092 0.36764 0.50927 0.0
C1054 C 0.57113 0.34827 0.43507 0.0
C1055 C 0.56694 0.33491 0.48168 0.0
C1056 C 0.56697 0.31392 0.50356 0.0
C1057 C 0.56793 0.37563 0.44193 0.0
C1058 C 0.56408 0.38259 0.469 0.0
C1059 C 0.56375 0.36219 0.48851 0.0
C1060 C 0.55922 0.41064 0.47758 0.0
C1061 C 0.56776 0.39665 0.42011 0.0
C1062 C 0.57851 0.43311 0.47432 0.0
C1063 C 0.57396 0.45927 0.48356 0.0
C1064 C 0.5501 0.4633 0.49634 0.0
C1065 C 0.53084 0.44071 0.49947 0.0
C1066 C 0.53539 0.41466 0.49023 0.0
H1067 H 0.56534 0.38686 0.40007 0.0
H1068 H 0.55168 0.40985 0.4234 0.0
H1069 H 0.58671 0.4101 0.42028 0.0
H1070 H 0.59723 0.43032 0.46505 0.0
H1071 H 0.58924 0.47623 0.48096 0.0
loop_
_geom_bond_atom_site_label_1
_geom_bond_atom_site_label_2
_geom_bond_distance
_geom_bond_site_symmetry_2
_ccdc_geom_bond_type
O0 Cd1 2.300 . S
O0 C7 1.275 . S
Cd1 O0 2.300 . S
Cd1 O9 2.381 . S
Cd1 O10 2.378 . S
O2 Cd3 2.385 . S
O2 C7 1.255 . S
Cd3 O2 2.385 . S
Cd3 O4 2.317 . S
O4 Cd3 2.317 . S
O4 C5 1.232 . S
C5 O4 1.232 . S
C5 O6 1.218 . S
O6 C5 1.218 . S
C7 O0 1.275 . S
C7 O2 1.255 . S
C8 O9 1.258 . S
C8 O10 1.256 . S
O9 Cd1 2.381 . S
O9 C8 1.258 . S
O10 Cd1 2.378 . S
O10 C8 1.256 . S
O11 Cd12 2.300 . S
O11 C18 1.275 . S
Cd12 O11 2.300 . S
Cd12 O20 2.381 . S
Cd12 O21 2.378 . S
O13 Cd14 2.385 . S
O13 C18 1.255 . S
Cd14 O13 2.385 . S
Cd14 O15 2.317 . S
O15 Cd14 2.317 . S
O15 C16 1.232 . S
C16 O15 1.232 . S
C16 O17 1.218 . S
O17 C16 1.218 . S
C18 O11 1.275 . S
C18 O13 1.255 . S
C19 O20 1.258 . S
C19 O21 1.256 . S
O20 Cd12 2.381 . S
O20 C19 1.258 . S
O21 Cd12 2.378 . S
O21 C19 1.256 . S
O22 Cd23 2.300 . S
O22 C29 1.275 . S
Cd23 O22 2.300 . S
Cd23 O31 2.381 . S
Cd23 O32 2.378 . S
O24 Cd25 2.385 . S
O24 C29 1.255 . S
Cd25 O24 2.385 . S
Cd25 O26 2.317 . S
O26 Cd25 2.317 . S
O26 C27 1.232 . S
C27 O26 1.232 . S
C27 O28 1.218 . S
O28 C27 1.218 . S
C29 O22 1.275 . S
C29 O24 1.255 . S
C30 O31 1.258 . S
C30 O32 1.256 . S
O31 Cd23 2.381 . S
O31 C30 1.258 . S
O32 Cd23 2.378 . S
O32 C30 1.256 . S
O33 Cd34 2.300 . S
O33 C40 1.275 . S
Cd34 O33 2.300 . S
Cd34 O42 2.381 . S
Cd34 O43 2.378 . S
O35 Cd36 2.385 . S
O35 C40 1.255 . S
Cd36 O35 2.385 . S
Cd36 O37 2.317 . S
O37 Cd36 2.317 . S
O37 C38 1.232 . S
C38 O37 1.232 . S
C38 O39 1.218 . S
O39 C38 1.218 . S
C40 O33 1.275 . S
C40 O35 1.255 . S
C41 O42 1.258 . S
C41 O43 1.256 . S
O42 Cd34 2.381 . S
O42 C41 1.258 . S
O43 Cd34 2.378 . S
O43 C41 1.256 . S
O44 Cd45 2.300 . S
O44 C51 1.275 . S
Cd45 O44 2.300 . S
Cd45 O53 2.381 . S
Cd45 O54 2.378 . S
O46 Cd47 2.385 . S
O46 C51 1.255 . S
Cd47 O46 2.385 . S
Cd47 O48 2.317 . S
O48 Cd47 2.317 . S
O48 C49 1.232 . S
C49 O48 1.232 . S
C49 O50 1.218 . S
O50 C49 1.218 . S
C51 O44 1.275 . S
C51 O46 1.255 . S
C52 O53 1.258 . S
C52 O54 1.256 . S
O53 Cd45 2.381 . S
O53 C52 1.258 . S
O54 Cd45 2.378 . S
O54 C52 1.256 . S
O55 Cd56 2.300 . S
O55 C62 1.275 . S
Cd56 O55 2.300 . S
Cd56 O64 2.381 . S
Cd56 O65 2.378 . S
O57 Cd58 2.385 . S
O57 C62 1.255 . S
Cd58 O57 2.385 . S
Cd58 O59 2.317 . S
O59 Cd58 2.317 . S
O59 C60 1.232 . S
C60 O59 1.232 . S
C60 O61 1.218 . S
O61 C60 1.218 . S
C62 O55 1.275 . S
C62 O57 1.255 . S
C63 O64 1.258 . S
C63 O65 1.256 . S
O64 Cd56 2.381 . S
O64 C63 1.258 . S
O65 Cd56 2.378 . S
O65 C63 1.256 . S
O66 Cd67 2.300 . S
O66 C73 1.275 . S
Cd67 O66 2.300 . S
Cd67 O75 2.381 . S
Cd67 O76 2.378 . S
O68 Cd69 2.385 . S
O68 C73 1.255 . S
Cd69 O68 2.385 . S
Cd69 O70 2.317 . S
O70 Cd69 2.317 . S
O70 C71 1.232 . S
C71 O70 1.232 . S
C71 O72 1.218 . S
O72 C71 1.218 . S
C73 O66 1.275 . S
C73 O68 1.255 . S
C74 O75 1.258 . S
C74 O76 1.256 . S
O75 Cd67 2.381 . S
O75 C74 1.258 . S
O76 Cd67 2.378 . S
O76 C74 1.256 . S
O77 Cd78 2.300 . S
O77 C84 1.275 . S
Cd78 O77 2.300 . S
Cd78 O86 2.381 . S
Cd78 O87 2.378 . S
O79 Cd80 2.385 . S
O79 C84 1.255 . S
Cd80 O79 2.385 . S
Cd80 O81 2.317 . S
O81 Cd80 2.317 . S
O81 C82 1.232 . S
C82 O81 1.232 . S
C82 O83 1.218 . S
O83 C82 1.218 . S
C84 O77 1.275 . S
C84 O79 1.255 . S
C85 O86 1.258 . S
C85 O87 1.256 . S
O86 Cd78 2.381 . S
O86 C85 1.258 . S
O87 Cd78 2.378 . S
O87 C85 1.256 . S
Co88 N93 2.057 . S
Co88 O105 2.021 . S
Co88 O108 2.062 . S
Co88 O112 2.117 1_545 S
Co88 O113 2.033 . S
C89 O109 1.259 1_655 S
C89 O112 1.258 . S
Co90 N99 2.057 . S
Co90 O106 2.117 1_565 S
Co90 O107 2.020 1_565 S
Co90 O109 2.021 . S
Co90 O114 2.062 . S
C91 N93 1.316 . S
C91 N94 1.347 . S
C91 H96 0.931 . S
C92 N93 1.375 1_565 S
C92 C95 1.350 1_565 S
C92 H97 0.930 . S
N93 Co88 2.057 . S
N93 C91 1.316 . S
N93 C92 1.375 1_545 S
N94 C91 1.347 . S
N94 C95 1.373 . S
C95 C92 1.350 1_545 S
C95 N94 1.373 . S
C95 H116 0.931 1_545 S
H96 C91 0.931 . S
H97 C92 0.930 . S
C98 O105 1.259 1_455 S
C98 O106 1.258 . S
N99 Co90 2.057 . S
N99 C100 1.316 . S
N99 C101 1.375 1_565 S
C100 N99 1.316 . S
C100 N102 1.347 . S
C100 H111 0.931 . S
C101 N99 1.375 1_545 S
C101 C103 1.350 . S
C101 H110 0.930 . S
N102 C100 1.347 . S
N102 C103 1.373 1_565 S
C103 C101 1.350 . S
C103 N102 1.373 1_545 S
C103 H117 0.931 . S
C104 O107 1.256 . S
C104 O108 1.255 1_455 S
O105 Co88 2.021 . S
O105 C98 1.259 1_655 S
O106 Co90 2.117 1_545 S
O106 C98 1.258 . S
O107 Co90 2.020 1_545 S
O107 C104 1.256 . S
O108 Co88 2.062 . S
O108 C104 1.255 1_655 S
O109 C89 1.259 1_455 S
O109 Co90 2.021 . S
H110 C101 0.930 . S
H111 C100 0.931 . S
O112 Co88 2.117 1_565 S
O112 C89 1.258 . S
O113 Co88 2.033 . S
O113 C115 1.235 1_545 S
O114 Co90 2.062 . S
O114 C115 1.255 1_455 S
C115 O113 1.235 1_565 S
C115 O114 1.255 1_655 S
H116 C95 0.931 1_565 S
H117 C103 0.931 . S
Co118 N123 2.068 1_554 S
Co118 O135 2.021 . S
Co118 O138 2.062 . S
Co118 O142 2.117 1_545 S
Co118 O143 2.020 . S
C119 O139 1.259 . S
C119 O142 1.258 . S
Co120 N129 2.057 . S
Co120 O136 2.117 . S
Co120 O137 2.020 . S
Co120 O139 2.021 1_545 S
Co120 O144 2.062 . S
C121 N123 1.324 . S
C121 N124 1.347 1_545 S
C121 H126 0.931 . S
C122 N123 1.353 1_565 S
C122 C125 1.350 . S
C122 H127 0.930 1_556 S
N123 Co118 2.068 1_556 S
N123 C121 1.324 . S
N123 C122 1.353 1_545 S
N124 C121 1.347 1_565 S
N124 C125 1.373 . S
C125 C122 1.350 . S
C125 N124 1.373 . S
C125 H146 0.931 . S
H126 C121 0.931 . S
H127 C122 0.930 1_554 S
C128 O135 1.259 . S
C128 O136 1.258 . S
N129 Co120 2.057 . S
N129 C130 1.316 . S
N129 C131 1.375 . S
C130 N129 1.316 . S
C130 N132 1.347 . S
C130 H141 0.931 . S
C131 N129 1.375 . S
C131 C133 1.350 . S
C131 H140 0.930 . S
N132 C130 1.347 . S
N132 C133 1.373 . S
C133 C131 1.350 . S
C133 N132 1.373 . S
C133 H147 0.931 . S
C134 O137 1.256 . S
C134 O138 1.255 . S
O135 Co118 2.021 . S
O135 C128 1.259 . S
O136 Co120 2.117 . S
O136 C128 1.258 . S
O137 Co120 2.020 . S
O137 C134 1.256 . S
O138 Co118 2.062 . S
O138 C134 1.255 . S
O139 C119 1.259 . S
O139 Co120 2.021 1_565 S
H140 C131 0.930 . S
H141 C130 0.931 . S
O142 Co118 2.117 1_565 S
O142 C119 1.258 . S
O143 Co118 2.020 . S
O143 C145 1.256 . S
O144 Co120 2.062 . S
O144 C145 1.255 . S
C145 O143 1.256 . S
C145 O144 1.255 . S
H146 C125 0.931 . S
H147 C133 0.931 . S
Co148 N153 2.057 . S
Co148 O165 2.021 . S
Co148 O168 2.062 . S
Co148 O172 2.117 . S
Co148 O173 2.020 . S
C149 O169 1.259 . S
C149 O172 1.258 . S
Co150 N159 2.057 . S
Co150 O166 2.117 . S
Co150 O167 2.020 . S
Co150 O169 2.021 . S
Co150 O174 2.062 . S
C151 N153 1.316 . S
C151 N154 1.347 . S
C151 H156 0.931 . S
C152 N153 1.375 . S
C152 C155 1.350 . S
C152 H157 0.930 . S
N153 Co148 2.057 . S
N153 C151 1.316 . S
N153 C152 1.375 . S
N154 C151 1.347 . S
N154 C155 1.373 . S
C155 C152 1.350 . S
C155 N154 1.373 . S
C155 H176 0.931 . S
H156 C151 0.931 . S
H157 C152 0.930 . S
C158 O165 1.259 . S
C158 O166 1.258 . S
N159 Co150 2.057 . S
N159 C160 1.316 . S
N159 C161 1.375 . S
C160 N159 1.316 . S
C160 N162 1.347 . S
C160 H171 0.931 . S
C161 N159 1.375 . S
C161 C163 1.350 . S
C161 H170 0.930 . S
N162 C160 1.347 . S
N162 C163 1.373 . S
C163 C161 1.350 . S
C163 N162 1.373 . S
C163 H177 0.931 . S
C164 O167 1.256 . S
C164 O168 1.255 . S
O165 Co148 2.021 . S
O165 C158 1.259 . S
O166 Co150 2.117 . S
O166 C158 1.258 . S
O167 Co150 2.020 . S
O167 C164 1.256 . S
O168 Co148 2.062 . S
O168 C164 1.255 . S
O169 C149 1.259 . S
O169 Co150 2.021 . S
H170 C161 0.930 . S
H171 C160 0.931 . S
O172 Co148 2.117 . S
O172 C149 1.258 . S
O173 Co148 2.020 . S
O173 C175 1.256 . S
O174 Co150 2.062 . S
O174 C175 1.255 . S
C175 O173 1.256 . S
C175 O174 1.255 . S
H176 C155 0.931 . S
H177 C163 0.931 . S
Co178 N183 2.057 . S
Co178 O195 2.021 1_556 S
Co178 O198 2.062 1_556 S
Co178 O202 2.117 1_455 S
Co178 O203 2.020 . S
C179 O199 1.259 . S
C179 O202 1.258 1_554 S
Co180 N189 2.057 . S
Co180 O196 2.117 . S
Co180 O197 2.020 . S
Co180 O199 2.021 1_455 S
Co180 O204 2.062 . S
C181 N183 1.316 . S
C181 N184 1.347 . S
C181 H186 0.931 . S
C182 N183 1.375 . S
C182 C185 1.350 . S
C182 H187 0.930 1_455 S
N183 Co178 2.057 . S
N183 C181 1.316 . S
N183 C182 1.375 . S
N184 C181 1.347 . S
N184 C185 1.373 . S
C185 C182 1.350 . S
C185 N184 1.373 . S
C185 H206 0.931 . S
H186 C181 0.931 . S
H187 C182 0.930 1_655 S
C188 O195 1.259 . S
C188 O196 1.258 . S
N189 Co180 2.057 . S
N189 C190 1.316 1_455 S
N189 C191 1.375 . S
C190 N189 1.316 1_655 S
C190 N192 1.347 . S
C190 H201 0.931 . S
C191 N189 1.375 . S
C191 C193 1.350 . S
C191 H200 0.930 . S
N192 C190 1.347 . S
N192 C193 1.373 1_655 S
C193 C191 1.350 . S
C193 N192 1.373 1_455 S
C193 H207 0.931 . S
C194 O197 1.256 . S
C194 O198 1.255 . S
O195 Co178 2.021 1_554 S
O195 C188 1.259 . S
O196 Co180 2.117 . S
O196 C188 1.258 . S
O197 Co180 2.020 . S
O197 C194 1.256 . S
O198 Co178 2.062 1_554 S
O198 C194 1.255 . S
O199 C179 1.259 . S
O199 Co180 2.021 1_655 S
H200 C191 0.930 . S
H201 C190 0.931 . S
O202 Co178 2.117 1_655 S
O202 C179 1.258 1_556 S
O203 Co178 2.020 . S
O203 C205 1.256 1_556 S
O204 Co180 2.062 . S
O204 C205 1.255 . S
C205 O203 1.256 1_554 S
C205 O204 1.255 . S
H206 C185 0.931 . S
H207 C193 0.931 . S
H208 C216 0.929 . S
H209 C218 0.930 . S
H210 C220 0.930 . S
H211 C223 0.929 . S
H212 C226 0.930 . S
H213 C228 0.960 . S
H214 C228 0.960 . S
H215 C228 0.960 . S
C216 H208 0.929 . S
C216 C217 1.377 . S
C216 C218 1.384 . S
C217 C216 1.377 . S
C217 C223 1.390 . S
C218 H209 0.930 . S
C218 C216 1.384 . S
C218 C219 1.372 . S
C219 C218 1.372 . S
C219 C220 1.400 . S
C219 C224 1.490 . S
C220 H210 0.930 . S
C220 C219 1.400 . S
C220 C223 1.386 . S
H221 C237 0.930 . S
H222 C238 0.931 . S
C223 H211 0.929 . S
C223 C217 1.390 . S
C223 C220 1.386 . S
C224 C219 1.490 . S
C224 C226 1.395 . S
C224 C227 1.403 . S
H225 C231 0.930 . S
C226 H212 0.930 . S
C226 C224 1.395 . S
C226 C229 1.403 . S
C227 C224 1.403 . S
C227 C228 1.524 . S
C227 C231 1.400 . S
C228 H213 0.960 . S
C228 H214 0.960 . S
C228 H215 0.960 . S
C228 C227 1.524 . S
C229 C226 1.403 . S
C229 C230 1.392 . S
C229 C233 1.495 . S
C230 C229 1.392 . S
C230 C231 1.385 . S
C230 C232 1.478 . S
C231 H225 0.930 . S
C231 C227 1.400 . S
C231 C230 1.385 . S
C232 C230 1.478 . S
C232 C234 1.381 . S
C232 C238 1.383 . S
C233 C229 1.495 . S
C233 H239 0.959 . S
C233 H240 0.961 . S
C233 H241 0.960 . S
C234 C232 1.381 . S
C234 C235 1.394 . S
C234 H242 0.930 . S
C235 C234 1.394 . S
C235 C236 1.383 . S
C235 H243 0.929 . S
C236 C235 1.383 . S
C236 C237 1.377 . S
C237 H221 0.930 . S
C237 C236 1.377 . S
C237 C238 1.379 . S
C238 H222 0.931 . S
C238 C232 1.383 . S
C238 C237 1.379 . S
H239 C233 0.959 . S
H240 C233 0.961 . S
H241 C233 0.960 . S
H242 C234 0.930 . S
H243 C235 0.929 . S
H244 C252 0.929 . S
H245 C254 0.930 . S
H246 C256 0.930 . S
H247 C259 0.929 . S
H248 C262 0.930 . S
H249 C264 0.960 . S
H250 C264 0.960 . S
H251 C264 0.960 . S
C252 H244 0.929 . S
C252 C253 1.377 . S
C252 C254 1.384 . S
C253 C252 1.377 . S
C253 C259 1.390 . S
C254 H245 0.930 . S
C254 C252 1.384 . S
C254 C255 1.372 . S
C255 C254 1.372 . S
C255 C256 1.400 . S
C255 C260 1.490 . S
C256 H246 0.930 . S
C256 C255 1.400 . S
C256 C259 1.386 . S
H257 C273 0.930 . S
H258 C274 0.931 . S
C259 H247 0.929 . S
C259 C253 1.390 . S
C259 C256 1.386 . S
C260 C255 1.490 . S
C260 C262 1.395 . S
C260 C263 1.403 . S
H261 C267 0.930 . S
C262 H248 0.930 . S
C262 C260 1.395 . S
C262 C265 1.403 . S
C263 C260 1.403 . S
C263 C264 1.524 . S
C263 C267 1.400 . S
C264 H249 0.960 . S
C264 H250 0.960 . S
C264 H251 0.960 . S
C264 C263 1.524 . S
C265 C262 1.403 . S
C265 C266 1.392 . S
C265 C269 1.495 . S
C266 C265 1.392 . S
C266 C267 1.385 . S
C266 C268 1.478 . S
C267 H261 0.930 . S
C267 C263 1.400 . S
C267 C266 1.385 . S
C268 C266 1.478 . S
C268 C270 1.381 . S
C268 C274 1.383 . S
C269 C265 1.495 . S
C269 H275 0.959 . S
C269 H276 0.961 . S
C269 H277 0.960 1_565 S
C270 C268 1.381 . S
C270 C271 1.394 1_565 S
C270 H278 0.930 1_565 S
C271 C270 1.394 1_545 S
C271 C272 1.383 1_545 S
C271 H279 0.929 . S
C272 C271 1.383 1_565 S
C272 C273 1.377 . S
C273 H257 0.930 . S
C273 C272 1.377 . S
C273 C274 1.379 . S
C274 H258 0.931 . S
C274 C268 1.383 . S
C274 C273 1.379 . S
H275 C269 0.959 . S
H276 C269 0.961 . S
H277 C269 0.960 1_545 S
H278 C270 0.930 1_545 S
H279 C271 0.929 . S
H280 C288 0.929 . S
H281 C290 0.930 . S
H282 C292 0.930 . S
H283 C295 0.929 . S
H284 C298 0.930 . S
H285 C300 0.960 . S
H286 C300 0.960 . S
H287 C300 0.960 . S
C288 H280 0.929 . S
C288 C289 1.377 . S
C288 C290 1.384 . S
C289 C288 1.377 . S
C289 C295 1.390 . S
C290 H281 0.930 . S
C290 C288 1.384 . S
C290 C291 1.372 . S
C291 C290 1.372 . S
C291 C292 1.400 . S
C291 C296 1.490 . S
C292 H282 0.930 . S
C292 C291 1.400 . S
C292 C295 1.386 . S
H293 C309 0.930 . S
H294 C310 0.931 . S
C295 H283 0.929 . S
C295 C289 1.390 . S
C295 C292 1.386 . S
C296 C291 1.490 . S
C296 C298 1.395 . S
C296 C299 1.403 . S
H297 C303 0.930 . S
C298 H284 0.930 . S
C298 C296 1.395 . S
C298 C301 1.403 . S
C299 C296 1.403 . S
C299 C300 1.524 . S
C299 C303 1.400 . S
C300 H285 0.960 . S
C300 H286 0.960 . S
C300 H287 0.960 . S
C300 C299 1.524 . S
C301 C298 1.403 . S
C301 C302 1.392 . S
C301 C305 1.495 . S
C302 C301 1.392 . S
C302 C303 1.385 . S
C302 C304 1.478 . S
C303 H297 0.930 . S
C303 C299 1.400 . S
C303 C302 1.385 . S
C304 C302 1.478 . S
C304 C306 1.381 . S
C304 C310 1.383 . S
C305 C301 1.495 . S
C305 H311 0.959 . S
C305 H312 0.961 . S
C305 H313 0.960 . S
C306 C304 1.381 . S
C306 C307 1.394 . S
C306 H314 0.930 . S
C307 C306 1.394 . S
C307 C308 1.383 . S
C307 H315 0.929 . S
C308 C307 1.383 . S
C308 C309 1.377 . S
C309 H293 0.930 . S
C309 C308 1.377 . S
C309 C310 1.379 . S
C310 H294 0.931 . S
C310 C304 1.383 . S
C310 C309 1.379 . S
H311 C305 0.959 . S
H312 C305 0.961 . S
H313 C305 0.960 . S
H314 C306 0.930 . S
H315 C307 0.929 . S
H316 C324 0.929 . S
H317 C326 0.930 . S
H318 C328 0.930 . S
H319 C331 0.929 . S
H320 C334 0.930 . S
H321 C336 0.960 . S
H322 C336 0.960 . S
H323 C336 0.960 . S
C324 H316 0.929 . S
C324 C325 1.377 . S
C324 C326 1.384 . S
C325 C324 1.377 . S
C325 C331 1.390 . S
C326 H317 0.930 . S
C326 C324 1.384 . S
C326 C327 1.372 . S
C327 C326 1.372 . S
C327 C328 1.400 . S
C327 C332 1.490 . S
C328 H318 0.930 . S
C328 C327 1.400 . S
C328 C331 1.386 . S
H329 C345 0.930 . S
H330 C346 0.931 . S
C331 H319 0.929 . S
C331 C325 1.390 . S
C331 C328 1.386 . S
C332 C327 1.490 . S
C332 C334 1.395 . S
C332 C335 1.403 . S
H333 C339 0.930 1_455 S
C334 H320 0.930 . S
C334 C332 1.395 . S
C334 C337 1.403 . S
C335 C332 1.403 . S
C335 C336 1.524 1_655 S
C335 C339 1.400 . S
C336 H321 0.960 . S
C336 H322 0.960 . S
C336 H323 0.960 . S
C336 C335 1.524 1_455 S
C337 C334 1.403 . S
C337 C338 1.392 . S
C337 C341 1.495 . S
C338 C337 1.392 . S
C338 C339 1.385 . S
C338 C340 1.478 . S
C339 H333 0.930 1_655 S
C339 C335 1.400 . S
C339 C338 1.385 . S
C340 C338 1.478 . S
C340 C342 1.381 . S
C340 C346 1.383 . S
C341 C337 1.495 . S
C341 H347 0.959 . S
C341 H348 0.961 . S
C341 H349 0.960 . S
C342 C340 1.381 . S
C342 C343 1.394 . S
C342 H350 0.930 . S
C343 C342 1.394 . S
C343 C344 1.383 . S
C343 H351 0.929 . S
C344 C343 1.383 . S
C344 C345 1.377 . S
C345 H329 0.930 . S
C345 C344 1.377 . S
C345 C346 1.379 . S
C346 H330 0.931 . S
C346 C340 1.383 . S
C346 C345 1.379 . S
H347 C341 0.959 . S
H348 C341 0.961 . S
H349 C341 0.960 . S
H350 C342 0.930 . S
H351 C343 0.929 . S
H352 C360 0.929 . S
H353 C362 0.930 . S
H354 C364 0.930 . S
H355 C367 0.929 . S
H356 C370 0.930 . S
H357 C372 0.960 . S
H358 C372 0.960 . S
H359 C372 0.960 . S
C360 H352 0.929 . S
C360 C361 1.377 . S
C360 C362 1.384 . S
C361 C360 1.377 . S
C361 C367 1.390 . S
C362 H353 0.930 . S
C362 C360 1.384 . S
C362 C363 1.372 . S
C363 C362 1.372 . S
C363 C364 1.400 . S
C363 C368 1.490 . S
C364 H354 0.930 . S
C364 C363 1.400 . S
C364 C367 1.386 . S
H365 C381 0.930 . S
H366 C382 0.931 . S
C367 H355 0.929 . S
C367 C361 1.390 . S
C367 C364 1.386 . S
C368 C363 1.490 . S
C368 C370 1.395 . S
C368 C371 1.403 . S
H369 C375 0.930 . S
C370 H356 0.930 . S
C370 C368 1.395 . S
C370 C373 1.403 . S
C371 C368 1.403 . S
C371 C372 1.524 . S
C371 C375 1.400 . S
C372 H357 0.960 . S
C372 H358 0.960 . S
C372 H359 0.960 . S
C372 C371 1.524 . S
C373 C370 1.403 . S
C373 C374 1.392 . S
C373 C377 1.495 . S
C374 C373 1.392 . S
C374 C375 1.385 . S
C374 C376 1.478 . S
C375 H369 0.930 . S
C375 C371 1.400 . S
C375 C374 1.385 . S
C376 C374 1.478 . S
C376 C378 1.381 . S
C376 C382 1.383 . S
C377 C373 1.495 . S
C377 H383 0.959 . S
C377 H384 0.961 . S
C377 H385 0.960 . S
C378 C376 1.381 . S
C378 C379 1.394 . S
C378 H386 0.930 . S
C379 C378 1.394 . S
C379 C380 1.383 . S
C379 H387 0.929 . S
C380 C379 1.383 . S
C380 C381 1.377 . S
C381 H365 0.930 . S
C381 C380 1.377 . S
C381 C382 1.379 . S
C382 H366 0.931 . S
C382 C376 1.383 . S
C382 C381 1.379 . S
H383 C377 0.959 . S
H384 C377 0.961 . S
H385 C377 0.960 . S
H386 C378 0.930 . S
H387 C379 0.929 . S
H388 C396 0.929 . S
H389 C398 0.930 . S
H390 C400 0.930 . S
H391 C403 0.929 . S
H392 C406 0.930 . S
H393 C408 0.960 . S
H394 C408 0.960 . S
H395 C408 0.960 . S
C396 H388 0.929 . S
C396 C397 1.377 . S
C396 C398 1.384 . S
C397 C396 1.377 . S
C397 C403 1.390 . S
C398 H389 0.930 . S
C398 C396 1.384 . S
C398 C399 1.372 . S
C399 C398 1.372 . S
C399 C400 1.400 . S
C399 C404 1.490 . S
C400 H390 0.930 . S
C400 C399 1.400 . S
C400 C403 1.386 . S
H401 C417 0.930 . S
H402 C418 0.931 . S
C403 H391 0.929 . S
C403 C397 1.390 . S
C403 C400 1.386 . S
C404 C399 1.490 . S
C404 C406 1.395 . S
C404 C407 1.403 . S
H405 C411 0.930 . S
C406 H392 0.930 . S
C406 C404 1.395 . S
C406 C409 1.403 . S
C407 C404 1.403 . S
C407 C408 1.524 . S
C407 C411 1.400 . S
C408 H393 0.960 . S
C408 H394 0.960 . S
C408 H395 0.960 . S
C408 C407 1.524 . S
C409 C406 1.403 . S
C409 C410 1.392 . S
C409 C413 1.495 . S
C410 C409 1.392 . S
C410 C411 1.385 . S
C410 C412 1.478 . S
C411 H405 0.930 . S
C411 C407 1.400 . S
C411 C410 1.385 . S
C412 C410 1.478 . S
C412 C414 1.381 . S
C412 C418 1.383 . S
C413 C409 1.495 . S
C413 H419 0.959 . S
C413 H420 0.961 . S
C413 H421 0.960 . S
C414 C412 1.381 . S
C414 C415 1.394 . S
C414 H422 0.930 . S
C415 C414 1.394 . S
C415 C416 1.383 . S
C415 H423 0.929 . S
C416 C415 1.383 . S
C416 C417 1.377 . S
C417 H401 0.930 . S
C417 C416 1.377 . S
C417 C418 1.379 . S
C418 H402 0.931 . S
C418 C412 1.383 . S
C418 C417 1.379 . S
H419 C413 0.959 . S
H420 C413 0.961 . S
H421 C413 0.960 . S
H422 C414 0.930 . S
H423 C415 0.929 . S
H424 C432 0.929 . S
H425 C434 0.930 . S
H426 C436 0.930 . S
H427 C439 0.929 . S
H428 C442 0.930 . S
H429 C444 0.960 . S
H430 C444 0.960 . S
H431 C444 0.960 1_556 S
C432 H424 0.929 . S
C432 C433 1.377 . S
C432 C434 1.384 . S
C433 C432 1.377 . S
C433 C439 1.390 . S
C434 H425 0.930 . S
C434 C432 1.384 . S
C434 C435 1.372 . S
C435 C434 1.372 . S
C435 C436 1.400 . S
C435 C440 1.490 . S
C436 H426 0.930 . S
C436 C435 1.400 . S
C436 C439 1.386 . S
H437 C453 0.930 . S
H438 C454 0.931 . S
C439 H427 0.929 . S
C439 C433 1.390 . S
C439 C436 1.386 . S
C440 C435 1.490 . S
C440 C442 1.395 . S
C440 C443 1.403 . S
H441 C447 0.930 1_554 S
C442 H428 0.930 . S
C442 C440 1.395 . S
C442 C445 1.403 . S
C443 C440 1.403 . S
C443 C444 1.524 1_556 S
C443 C447 1.400 . S
C444 H429 0.960 . S
C444 H430 0.960 . S
C444 H431 0.960 1_554 S
C444 C443 1.524 1_554 S
C445 C442 1.403 . S
C445 C446 1.392 . S
C445 C449 1.495 . S
C446 C445 1.392 . S
C446 C447 1.385 . S
C446 C448 1.478 . S
C447 H441 0.930 1_556 S
C447 C443 1.400 . S
C447 C446 1.385 . S
C448 C446 1.478 . S
C448 C450 1.381 . S
C448 C454 1.383 . S
C449 C445 1.495 . S
C449 H455 0.959 . S
C449 H456 0.961 . S
C449 H457 0.960 . S
C450 C448 1.381 . S
C450 C451 1.394 . S
C450 H458 0.930 . S
C451 C450 1.394 . S
C451 C452 1.383 . S
C451 H459 0.929 1_556 S
C452 C451 1.383 . S
C452 C453 1.377 . S
C453 H437 0.930 . S
C453 C452 1.377 . S
C453 C454 1.379 . S
C454 H438 0.931 . S
C454 C448 1.383 . S
C454 C453 1.379 . S
H455 C449 0.959 . S
H456 C449 0.961 . S
H457 C449 0.960 . S
H458 C450 0.930 . S
H459 C451 0.929 1_554 S
H460 C468 0.929 . S
H461 C470 0.930 . S
H462 C472 0.930 . S
H463 C475 0.929 . S
H464 C478 0.930 . S
H465 C480 0.960 . S
H466 C480 0.960 . S
H467 C480 0.960 . S
C468 H460 0.929 . S
C468 C469 1.377 . S
C468 C470 1.384 . S
C469 C468 1.377 . S
C469 C475 1.390 . S
C470 H461 0.930 . S
C470 C468 1.384 . S
C470 C471 1.372 . S
C471 C470 1.372 . S
C471 C472 1.400 . S
C471 C476 1.490 . S
C472 H462 0.930 . S
C472 C471 1.400 . S
C472 C475 1.386 . S
H473 C489 0.930 . S
H474 C490 0.931 . S
C475 H463 0.929 . S
C475 C469 1.390 . S
C475 C472 1.386 . S
C476 C471 1.490 . S
C476 C478 1.395 . S
C476 C479 1.403 . S
H477 C483 0.930 . S
C478 H464 0.930 . S
C478 C476 1.395 . S
C478 C481 1.403 . S
C479 C476 1.403 . S
C479 C480 1.524 . S
C479 C483 1.400 . S
C480 H465 0.960 . S
C480 H466 0.960 . S
C480 H467 0.960 . S
C480 C479 1.524 . S
C481 C478 1.403 . S
C481 C482 1.392 . S
C481 C485 1.495 . S
C482 C481 1.392 . S
C482 C483 1.385 . S
C482 C484 1.478 . S
C483 H477 0.930 . S
C483 C479 1.400 . S
C483 C482 1.385 . S
C484 C482 1.478 . S
C484 C486 1.381 . S
C484 C490 1.383 . S
C485 C481 1.495 . S
C485 H491 0.959 . S
C485 H492 0.961 . S
C485 H493 0.960 . S
C486 C484 1.381 . S
C486 C487 1.394 . S
C486 H494 0.930 . S
C487 C486 1.394 . S
C487 C488 1.383 . S
C487 H495 0.929 . S
C488 C487 1.383 . S
C488 C489 1.377 . S
C489 H473 0.930 . S
C489 C488 1.377 . S
C489 C490 1.379 . S
C490 H474 0.931 . S
C490 C484 1.383 . S
C490 C489 1.379 . S
H491 C485 0.959 . S
H492 C485 0.961 . S
H493 C485 0.960 . S
H494 C486 0.930 . S
H495 C487 0.929 . S
H496 C504 0.929 . S
H497 C506 0.930 . S
H498 C508 0.930 . S
H499 C511 0.929 . S
H500 C514 0.930 . S
H501 C516 0.960 . S
H502 C516 0.960 . S
H503 C516 0.960 . S
C504 H496 0.929 . S
C504 C505 1.377 . S
C504 C506 1.384 . S
C505 C504 1.377 . S
C505 C511 1.390 . S
C506 H497 0.930 . S
C506 C504 1.384 . S
C506 C507 1.372 . S
C507 C506 1.372 . S
C507 C508 1.400 . S
C507 C512 1.490 . S
C508 H498 0.930 . S
C508 C507 1.400 . S
C508 C511 1.386 . S
H509 C525 0.930 . S
H510 C526 0.931 . S
C511 H499 0.929 . S
C511 C505 1.390 . S
C511 C508 1.386 . S
C512 C507 1.490 . S
C512 C514 1.395 . S
C512 C515 1.403 . S
H513 C519 0.930 . S
C514 H500 0.930 . S
C514 C512 1.395 . S
C514 C517 1.403 . S
C515 C512 1.403 . S
C515 C516 1.524 . S
C515 C519 1.400 . S
C516 H501 0.960 . S
C516 H502 0.960 . S
C516 H503 0.960 . S
C516 C515 1.524 . S
C517 C514 1.403 . S
C517 C518 1.392 . S
C517 C521 1.495 . S
C518 C517 1.392 . S
C518 C519 1.385 . S
C518 C520 1.478 . S
C519 H513 0.930 . S
C519 C515 1.400 . S
C519 C518 1.385 . S
C520 C518 1.478 . S
C520 C522 1.381 . S
C520 C526 1.383 . S
C521 C517 1.495 . S
C521 H527 0.945 1_455 S
C521 H528 0.961 . S
C521 H529 0.969 . S
C522 C520 1.381 . S
C522 C523 1.394 . S
C522 H530 0.930 . S
C523 C522 1.394 . S
C523 C524 1.383 . S
C523 H531 0.929 . S
C524 C523 1.383 . S
C524 C525 1.377 . S
C525 H509 0.930 . S
C525 C524 1.377 . S
C525 C526 1.379 . S
C526 H510 0.931 . S
C526 C520 1.383 . S
C526 C525 1.379 . S
H527 C521 0.945 1_655 S
H528 C521 0.961 . S
H529 C521 0.969 . S
H530 C522 0.930 . S
H531 C523 0.929 . S
H532 C540 0.929 . S
H533 C542 0.930 . S
H534 C544 0.930 1_554 S
H535 C547 0.954 . S
H536 C550 0.930 . S
H537 C552 0.960 . S
H538 C552 0.960 1_556 S
H539 C552 0.960 . S
C540 H532 0.929 . S
C540 C541 1.377 . S
C540 C542 1.384 . S
C541 C540 1.377 . S
C541 C547 1.390 . S
C542 H533 0.930 . S
C542 C540 1.384 . S
C542 C543 1.372 . S
C543 C542 1.372 . S
C543 C544 1.400 . S
C543 C548 1.490 . S
C544 H534 0.930 1_556 S
C544 C543 1.400 . S
C544 C547 1.386 . S
H545 C561 0.930 . S
H546 C562 0.931 . S
C547 H535 0.954 . S
C547 C541 1.390 . S
C547 C544 1.386 . S
C548 C543 1.490 . S
C548 C550 1.395 . S
C548 C551 1.403 . S
H549 C555 0.930 . S
C550 H536 0.930 . S
C550 C548 1.395 . S
C550 C553 1.403 . S
C551 C548 1.403 . S
C551 C552 1.524 1_556 S
C551 C555 1.400 1_556 S
C552 H537 0.960 . S
C552 H538 0.960 1_554 S
C552 H539 0.960 . S
C552 C551 1.524 1_554 S
C553 C550 1.403 . S
C553 C554 1.392 . S
C553 C557 1.495 . S
C554 C553 1.392 . S
C554 C555 1.385 1_556 S
C554 C556 1.478 1_556 S
C555 H549 0.930 . S
C555 C551 1.400 1_554 S
C555 C554 1.385 1_554 S
C556 C554 1.478 1_554 S
C556 C558 1.381 1_554 S
C556 C562 1.383 . S
C557 C553 1.495 . S
C557 H563 0.959 . S
C557 H564 0.961 . S
C557 H565 0.960 . S
C558 C556 1.381 1_556 S
C558 C559 1.394 . S
C558 H566 0.930 . S
C559 C558 1.394 . S
C559 C560 1.383 1_556 S
C559 H567 0.929 . S
C560 C559 1.383 1_554 S
C560 C561 1.377 . S
C561 H545 0.930 . S
C561 C560 1.377 . S
C561 C562 1.379 . S
C562 H546 0.931 . S
C562 C556 1.383 . S
C562 C561 1.379 . S
H563 C557 0.959 . S
H564 C557 0.961 . S
H565 C557 0.960 . S
H566 C558 0.930 . S
H567 C559 0.929 . S
H568 C576 0.929 . S
H569 C578 0.930 . S
H570 C580 0.930 . S
H571 C583 0.929 . S
H572 C586 0.930 . S
H573 C588 0.960 . S
H574 C588 0.960 . S
H575 C588 0.960 . S
C576 H568 0.929 . S
C576 C577 1.377 . S
C576 C578 1.384 . S
C577 C576 1.377 . S
C577 C583 1.390 . S
C578 H569 0.930 . S
C578 C576 1.384 . S
C578 C579 1.372 . S
C579 C578 1.372 . S
C579 C580 1.400 . S
C579 C584 1.490 . S
C580 H570 0.930 . S
C580 C579 1.400 . S
C580 C583 1.386 . S
H581 C597 0.930 . S
H582 C598 0.931 . S
C583 H571 0.929 . S
C583 C577 1.390 . S
C583 C580 1.386 . S
C584 C579 1.490 . S
C584 C586 1.395 . S
C584 C587 1.403 . S
H585 C591 0.930 . S
C586 H572 0.930 . S
C586 C584 1.395 . S
C586 C589 1.403 . S
C587 C584 1.403 . S
C587 C588 1.524 . S
C587 C591 1.400 . S
C588 H573 0.960 . S
C588 H574 0.960 . S
C588 H575 0.960 . S
C588 C587 1.524 . S
C589 C586 1.403 . S
C589 C590 1.392 . S
C589 C593 1.495 1_655 S
C590 C589 1.392 . S
C590 C591 1.385 . S
C590 C592 1.478 . S
C591 H585 0.930 . S
C591 C587 1.400 . S
C591 C590 1.385 . S
C592 C590 1.478 . S
C592 C594 1.381 . S
C592 C598 1.383 . S
C593 C589 1.495 1_455 S
C593 H599 0.959 . S
C593 H600 0.961 . S
C593 H601 0.960 . S
C594 C592 1.381 . S
C594 C595 1.394 . S
C594 H602 0.930 . S
C595 C594 1.394 . S
C595 C596 1.383 . S
C595 H603 0.929 . S
C596 C595 1.383 . S
C596 C597 1.377 . S
C597 H581 0.930 . S
C597 C596 1.377 . S
C597 C598 1.379 . S
C598 H582 0.931 . S
C598 C592 1.383 . S
C598 C597 1.379 . S
H599 C593 0.959 . S
H600 C593 0.961 . S
H601 C593 0.960 . S
H602 C594 0.930 . S
H603 C595 0.929 . S
H604 C612 0.929 . S
H605 C614 0.930 . S
H606 C616 0.930 . S
H607 C619 0.929 . S
H608 C622 0.930 . S
H609 C624 0.960 . S
H610 C624 0.960 . S
H611 C624 0.960 . S
C612 H604 0.929 . S
C612 C613 1.377 . S
C612 C614 1.384 . S
C613 C612 1.377 . S
C613 C619 1.390 . S
C614 H605 0.930 . S
C614 C612 1.384 . S
C614 C615 1.372 . S
C615 C614 1.372 . S
C615 C616 1.400 . S
C615 C620 1.490 . S
C616 H606 0.930 . S
C616 C615 1.400 . S
C616 C619 1.386 . S
H617 C633 0.930 . S
H618 C634 0.931 . S
C619 H607 0.929 . S
C619 C613 1.390 . S
C619 C616 1.386 . S
C620 C615 1.490 . S
C620 C622 1.395 . S
C620 C623 1.403 . S
H621 C627 0.930 . S
C622 H608 0.930 . S
C622 C620 1.395 . S
C622 C625 1.403 . S
C623 C620 1.403 . S
C623 C624 1.524 . S
C623 C627 1.400 . S
C624 H609 0.960 . S
C624 H610 0.960 . S
C624 H611 0.960 . S
C624 C623 1.524 . S
C625 C622 1.403 . S
C625 C626 1.392 . S
C625 C629 1.495 . S
C626 C625 1.392 . S
C626 C627 1.385 . S
C626 C628 1.478 . S
C627 H621 0.930 . S
C627 C623 1.400 . S
C627 C626 1.385 . S
C628 C626 1.478 . S
C628 C630 1.381 . S
C628 C634 1.383 . S
C629 C625 1.495 . S
C629 H635 0.959 . S
C629 H636 0.961 . S
C629 H637 0.960 . S
C630 C628 1.381 . S
C630 C631 1.394 . S
C630 H638 0.930 . S
C631 C630 1.394 . S
C631 C632 1.383 . S
C631 H639 0.929 . S
C632 C631 1.383 . S
C632 C633 1.377 . S
C633 H617 0.930 . S
C633 C632 1.377 . S
C633 C634 1.379 . S
C634 H618 0.931 . S
C634 C628 1.383 . S
C634 C633 1.379 . S
H635 C629 0.959 . S
H636 C629 0.961 . S
H637 C629 0.960 . S
H638 C630 0.930 . S
H639 C631 0.929 . S
H640 C648 0.929 . S
H641 C650 0.930 . S
H642 C652 0.930 . S
H643 C655 0.929 . S
H644 C658 0.930 . S
H645 C660 0.960 . S
H646 C660 0.960 . S
H647 C660 0.960 . S
C648 H640 0.929 . S
C648 C649 1.377 . S
C648 C650 1.384 . S
C649 C648 1.377 . S
C649 C655 1.390 . S
C650 H641 0.930 . S
C650 C648 1.384 . S
C650 C651 1.372 . S
C651 C650 1.372 . S
C651 C652 1.400 . S
C651 C656 1.490 . S
C652 H642 0.930 . S
C652 C651 1.400 . S
C652 C655 1.386 . S
H653 C669 0.930 1_455 S
H654 C670 0.931 . S
C655 H643 0.929 . S
C655 C649 1.390 . S
C655 C652 1.386 . S
C656 C651 1.490 . S
C656 C658 1.395 . S
C656 C659 1.403 . S
H657 C663 0.930 . S
C658 H644 0.930 . S
C658 C656 1.395 . S
C658 C661 1.403 . S
C659 C656 1.403 . S
C659 C660 1.524 . S
C659 C663 1.400 . S
C660 H645 0.960 . S
C660 H646 0.960 . S
C660 H647 0.960 . S
C660 C659 1.524 . S
C661 C658 1.403 . S
C661 C662 1.392 . S
C661 C665 1.495 1_565 S
C662 C661 1.392 . S
C662 C663 1.385 . S
C662 C664 1.478 . S
C663 H657 0.930 . S
C663 C659 1.400 . S
C663 C662 1.385 . S
C664 C662 1.478 . S
C664 C666 1.381 . S
C664 C670 1.383 . S
C665 C661 1.495 1_545 S
C665 H671 0.959 . S
C665 H672 0.961 . S
C665 H673 0.960 . S
C666 C664 1.381 . S
C666 C667 1.394 . S
C666 H674 0.930 1_565 S
C667 C666 1.394 . S
C667 C668 1.383 . S
C667 H675 0.929 1_565 S
C668 C667 1.383 . S
C668 C669 1.377 . S
C669 H653 0.930 1_655 S
C669 C668 1.377 . S
C669 C670 1.379 . S
C670 H654 0.931 . S
C670 C664 1.383 . S
C670 C669 1.379 . S
H671 C665 0.959 . S
H672 C665 0.961 . S
H673 C665 0.960 . S
H674 C666 0.930 1_545 S
H675 C667 0.929 1_545 S
H676 C684 0.929 . S
H677 C686 0.930 . S
H678 C688 0.930 . S
H679 C691 0.929 . S
H680 C694 0.930 . S
H681 C696 0.960 . S
H682 C696 0.960 . S
H683 C696 0.960 . S
C684 H676 0.929 . S
C684 C685 1.377 . S
C684 C686 1.384 . S
C685 C684 1.377 . S
C685 C691 1.390 . S
C686 H677 0.930 . S
C686 C684 1.384 . S
C686 C687 1.372 . S
C687 C686 1.372 . S
C687 C688 1.400 . S
C687 C692 1.490 . S
C688 H678 0.930 . S
C688 C687 1.400 . S
C688 C691 1.386 . S
H689 C705 0.930 . S
H690 C706 0.931 . S
C691 H679 0.929 . S
C691 C685 1.390 . S
C691 C688 1.386 . S
C692 C687 1.490 . S
C692 C694 1.395 . S
C692 C695 1.403 . S
H693 C699 0.930 . S
C694 H680 0.930 . S
C694 C692 1.395 . S
C694 C697 1.403 . S
C695 C692 1.403 . S
C695 C696 1.524 . S
C695 C699 1.400 . S
C696 H681 0.960 . S
C696 H682 0.960 . S
C696 H683 0.960 . S
C696 C695 1.524 . S
C697 C694 1.403 . S
C697 C698 1.392 . S
C697 C701 1.495 . S
C698 C697 1.392 . S
C698 C699 1.385 . S
C698 C700 1.478 . S
C699 H693 0.930 . S
C699 C695 1.400 . S
C699 C698 1.385 . S
C700 C698 1.478 . S
C700 C702 1.381 . S
C700 C706 1.383 . S
C701 C697 1.495 . S
C701 H707 0.959 . S
C701 H708 0.961 . S
C701 H709 0.960 . S
C702 C700 1.381 . S
C702 C703 1.394 . S
C702 H710 0.930 . S
C703 C702 1.394 . S
C703 C704 1.383 . S
C703 H711 0.929 . S
C704 C703 1.383 . S
C704 C705 1.377 . S
C705 H689 0.930 . S
C705 C704 1.377 . S
C705 C706 1.379 . S
C706 H690 0.931 . S
C706 C700 1.383 . S
C706 C705 1.379 . S
H707 C701 0.959 . S
H708 C701 0.961 . S
H709 C701 0.960 . S
H710 C702 0.930 . S
H711 C703 0.929 . S
H712 C720 0.929 . S
H713 C722 0.930 . S
H714 C724 0.930 . S
H715 C727 0.929 . S
H716 C730 0.930 . S
H717 C732 0.960 . S
H718 C732 0.960 . S
H719 C732 0.960 . S
C720 H712 0.929 . S
C720 C721 1.377 . S
C720 C722 1.384 . S
C721 C720 1.377 . S
C721 C727 1.390 . S
C722 H713 0.930 . S
C722 C720 1.384 . S
C722 C723 1.372 . S
C723 C722 1.372 . S
C723 C724 1.400 . S
C723 C728 1.490 . S
C724 H714 0.930 . S
C724 C723 1.400 . S
C724 C727 1.386 . S
H725 C741 0.930 . S
H726 C742 0.931 . S
C727 H715 0.929 . S
C727 C721 1.390 . S
C727 C724 1.386 . S
C728 C723 1.490 . S
C728 C730 1.395 . S
C728 C731 1.403 . S
H729 C735 0.930 . S
C730 H716 0.930 . S
C730 C728 1.395 . S
C730 C733 1.403 . S
C731 C728 1.403 . S
C731 C732 1.524 . S
C731 C735 1.400 . S
C732 H717 0.960 . S
C732 H718 0.960 . S
C732 H719 0.960 . S
C732 C731 1.524 . S
C733 C730 1.403 . S
C733 C734 1.392 . S
C733 C737 1.495 . S
C734 C733 1.392 . S
C734 C735 1.385 . S
C734 C736 1.478 . S
C735 H729 0.930 . S
C735 C731 1.400 . S
C735 C734 1.385 . S
C736 C734 1.478 . S
C736 C738 1.381 . S
C736 C742 1.383 . S
C737 C733 1.495 . S
C737 H743 0.959 . S
C737 H744 0.961 . S
C737 H745 0.960 . S
C738 C736 1.381 . S
C738 C739 1.394 . S
C738 H746 0.930 . S
C739 C738 1.394 . S
C739 C740 1.383 . S
C739 H747 0.929 . S
C740 C739 1.383 . S
C740 C741 1.377 . S
C741 H725 0.930 . S
C741 C740 1.377 . S
C741 C742 1.379 . S
C742 H726 0.931 . S
C742 C736 1.383 . S
C742 C741 1.379 . S
H743 C737 0.959 . S
H744 C737 0.961 . S
H745 C737 0.960 . S
H746 C738 0.930 . S
H747 C739 0.929 . S
H748 C756 0.929 . S
H749 C758 0.930 . S
H750 C760 0.930 . S
H751 C763 0.929 . S
H752 C766 0.930 . S
H753 C768 0.960 . S
H754 C768 0.960 . S
H755 C768 0.960 . S
C756 H748 0.929 . S
C756 C757 1.377 . S
C756 C758 1.384 . S
C757 C756 1.377 . S
C757 C763 1.390 . S
C758 H749 0.930 . S
C758 C756 1.384 . S
C758 C759 1.372 . S
C759 C758 1.372 . S
C759 C760 1.400 . S
C759 C764 1.490 . S
C760 H750 0.930 . S
C760 C759 1.400 . S
C760 C763 1.386 . S
H761 C777 0.930 . S
H762 C778 0.931 . S
C763 H751 0.929 . S
C763 C757 1.390 . S
C763 C760 1.386 . S
C764 C759 1.490 . S
C764 C766 1.395 . S
C764 C767 1.403 . S
H765 C771 0.930 . S
C766 H752 0.930 . S
C766 C764 1.395 . S
C766 C769 1.403 . S
C767 C764 1.403 . S
C767 C768 1.524 . S
C767 C771 1.400 . S
C768 H753 0.960 . S
C768 H754 0.960 . S
C768 H755 0.960 . S
C768 C767 1.524 . S
C769 C766 1.403 . S
C769 C770 1.392 . S
C769 C773 1.495 . S
C770 C769 1.392 . S
C770 C771 1.385 . S
C770 C772 1.478 . S
C771 H765 0.930 . S
C771 C767 1.400 . S
C771 C770 1.385 . S
C772 C770 1.478 . S
C772 C774 1.381 . S
C772 C778 1.383 . S
C773 C769 1.495 . S
C773 H779 0.959 . S
C773 H780 0.961 . S
C773 H781 0.960 . S
C774 C772 1.381 . S
C774 C775 1.394 . S
C774 H782 0.930 . S
C775 C774 1.394 . S
C775 C776 1.383 . S
C775 H783 0.929 . S
C776 C775 1.383 . S
C776 C777 1.377 . S
C777 H761 0.930 . S
C777 C776 1.377 . S
C777 C778 1.379 . S
C778 H762 0.931 . S
C778 C772 1.383 . S
C778 C777 1.379 . S
H779 C773 0.959 . S
H780 C773 0.961 . S
H781 C773 0.960 . S
H782 C774 0.930 . S
H783 C775 0.929 . S
H784 C792 0.929 . S
H785 C794 0.930 . S
H786 C796 0.930 1_554 S
H787 C799 0.929 1_554 S
H788 C802 0.930 . S
H789 C804 0.960 . S
H790 C804 0.960 1_556 S
H791 C804 0.960 1_565 S
C792 H784 0.929 . S
C792 C793 1.377 . S
C792 C794 1.384 . S
C793 C792 1.377 . S
C793 C799 1.390 . S
C794 H785 0.930 . S
C794 C792 1.384 . S
C794 C795 1.372 . S
C795 C794 1.372 . S
C795 C796 1.400 . S
C795 C800 1.490 . S
C796 H786 0.930 1_556 S
C796 C795 1.400 . S
C796 C799 1.386 . S
H797 C813 0.930 . S
H798 C814 0.931 . S
C799 H787 0.929 1_556 S
C799 C793 1.390 . S
C799 C796 1.386 . S
C800 C795 1.490 . S
C800 C802 1.395 . S
C800 C803 1.403 . S
H801 C807 0.930 1_545 S
C802 H788 0.930 . S
C802 C800 1.395 . S
C802 C805 1.403 . S
C803 C800 1.403 . S
C803 C804 1.524 1_566 S
C803 C807 1.400 1_556 S
C804 H789 0.960 . S
C804 H790 0.960 1_554 S
C804 H791 0.960 1_545 S
C804 C803 1.524 1_544 S
C805 C802 1.403 . S
C805 C806 1.392 . S
C805 C809 1.495 . S
C806 C805 1.392 . S
C806 C807 1.385 1_556 S
C806 C808 1.478 1_556 S
C807 H801 0.930 1_565 S
C807 C803 1.400 1_554 S
C807 C806 1.385 1_554 S
C808 C806 1.478 1_554 S
C808 C810 1.381 1_554 S
C808 C814 1.383 . S
C809 C805 1.495 . S
C809 H815 0.959 . S
C809 H816 0.961 . S
C809 H817 0.960 . S
C810 C808 1.381 1_556 S
C810 C811 1.394 . S
C810 H818 0.930 . S
C811 C810 1.394 . S
C811 C812 1.383 1_556 S
C811 H819 0.929 1_565 S
C812 C811 1.383 1_554 S
C812 C813 1.377 . S
C813 H797 0.930 . S
C813 C812 1.377 . S
C813 C814 1.379 . S
C814 H798 0.931 . S
C814 C808 1.383 . S
C814 C813 1.379 . S
H815 C809 0.959 . S
H816 C809 0.961 . S
H817 C809 0.960 . S
H818 C810 0.930 . S
H819 C811 0.929 1_545 S
H820 C828 0.929 . S
H821 C830 0.930 . S
H822 C832 0.930 . S
H823 C835 0.929 . S
H824 C838 0.930 . S
H825 C840 0.960 . S
H826 C840 0.960 . S
H827 C840 0.960 . S
C828 H820 0.929 . S
C828 C829 1.377 . S
C828 C830 1.384 . S
C829 C828 1.377 . S
C829 C835 1.390 . S
C830 H821 0.930 . S
C830 C828 1.384 . S
C830 C831 1.372 . S
C831 C830 1.372 . S
C831 C832 1.400 . S
C831 C836 1.490 . S
C832 H822 0.930 . S
C832 C831 1.400 . S
C832 C835 1.386 . S
H833 C849 0.930 . S
H834 C850 0.931 . S
C835 H823 0.929 . S
C835 C829 1.390 . S
C835 C832 1.386 . S
C836 C831 1.490 . S
C836 C838 1.395 . S
C836 C839 1.403 . S
H837 C843 0.930 . S
C838 H824 0.930 . S
C838 C836 1.395 . S
C838 C841 1.403 . S
C839 C836 1.403 . S
C839 C840 1.524 . S
C839 C843 1.400 . S
C840 H825 0.960 . S
C840 H826 0.960 . S
C840 H827 0.960 . S
C840 C839 1.524 . S
C841 C838 1.403 . S
C841 C842 1.392 . S
C841 C845 1.495 . S
C842 C841 1.392 . S
C842 C843 1.385 . S
C842 C844 1.478 . S
C843 H837 0.930 . S
C843 C839 1.400 . S
C843 C842 1.385 . S
C844 C842 1.478 . S
C844 C846 1.381 . S
C844 C850 1.383 . S
C845 C841 1.495 . S
C845 H851 0.959 . S
C845 H852 0.961 . S
C845 H853 0.960 . S
C846 C844 1.381 . S
C846 C847 1.394 . S
C846 H854 0.930 . S
C847 C846 1.394 . S
C847 C848 1.383 . S
C847 H855 0.929 . S
C848 C847 1.383 . S
C848 C849 1.377 . S
C849 H833 0.930 . S
C849 C848 1.377 . S
C849 C850 1.379 . S
C850 H834 0.931 . S
C850 C844 1.383 . S
C850 C849 1.379 . S
H851 C845 0.959 . S
H852 C845 0.961 . S
H853 C845 0.960 . S
H854 C846 0.930 . S
H855 C847 0.929 . S
H856 C864 0.929 . S
H857 C866 0.930 . S
H858 C868 0.930 . S
H859 C871 0.929 . S
H860 C874 0.930 . S
H861 C876 0.960 . S
H862 C876 0.960 . S
H863 C876 0.960 . S
C864 H856 0.929 . S
C864 C865 1.377 . S
C864 C866 1.384 . S
C865 C864 1.377 . S
C865 C871 1.390 . S
C866 H857 0.930 . S
C866 C864 1.384 . S
C866 C867 1.372 . S
C867 C866 1.372 . S
C867 C868 1.400 . S
C867 C872 1.490 . S
C868 H858 0.930 . S
C868 C867 1.400 . S
C868 C871 1.386 . S
H869 C885 0.930 . S
H870 C886 0.931 . S
C871 H859 0.929 . S
C871 C865 1.390 . S
C871 C868 1.386 . S
C872 C867 1.490 . S
C872 C874 1.395 . S
C872 C875 1.403 . S
H873 C879 0.930 . S
C874 H860 0.930 . S
C874 C872 1.395 . S
C874 C877 1.403 . S
C875 C872 1.403 . S
C875 C876 1.524 . S
C875 C879 1.400 . S
C876 H861 0.960 . S
C876 H862 0.960 . S
C876 H863 0.960 . S
C876 C875 1.524 . S
C877 C874 1.403 . S
C877 C878 1.392 . S
C877 C881 1.495 . S
C878 C877 1.392 . S
C878 C879 1.385 . S
C878 C880 1.478 . S
C879 H873 0.930 . S
C879 C875 1.400 . S
C879 C878 1.385 . S
C880 C878 1.478 . S
C880 C882 1.381 . S
C880 C886 1.383 . S
C881 C877 1.495 . S
C881 H887 0.959 . S
C881 H888 0.961 . S
C881 H889 0.960 . S
C882 C880 1.381 . S
C882 C883 1.394 . S
C882 H890 0.930 . S
C883 C882 1.394 . S
C883 C884 1.383 . S
C883 H891 0.929 . S
C884 C883 1.383 . S
C884 C885 1.377 . S
C885 H869 0.930 . S
C885 C884 1.377 . S
C885 C886 1.379 . S
C886 H870 0.931 . S
C886 C880 1.383 . S
C886 C885 1.379 . S
H887 C881 0.959 . S
H888 C881 0.961 . S
H889 C881 0.960 . S
H890 C882 0.930 . S
H891 C883 0.929 . S
H892 C900 0.929 . S
H893 C902 0.930 . S
H894 C904 0.930 . S
H895 C907 0.929 . S
H896 C910 0.930 . S
H897 C912 0.960 . S
H898 C912 0.960 . S
H899 C912 0.960 . S
C900 H892 0.929 . S
C900 C901 1.377 . S
C900 C902 1.384 . S
C901 C900 1.377 . S
C901 C907 1.390 . S
C902 H893 0.930 . S
C902 C900 1.384 . S
C902 C903 1.372 . S
C903 C902 1.372 . S
C903 C904 1.400 . S
C903 C908 1.490 . S
C904 H894 0.930 . S
C904 C903 1.400 . S
C904 C907 1.386 . S
H905 C921 0.930 . S
H906 C922 0.931 . S
C907 H895 0.929 . S
C907 C901 1.390 . S
C907 C904 1.386 . S
C908 C903 1.490 . S
C908 C910 1.395 . S
C908 C911 1.403 . S
H909 C915 0.930 . S
C910 H896 0.930 . S
C910 C908 1.395 . S
C910 C913 1.403 . S
C911 C908 1.403 . S
C911 C912 1.524 . S
C911 C915 1.400 . S
C912 H897 0.960 . S
C912 H898 0.960 . S
C912 H899 0.960 . S
C912 C911 1.524 . S
C913 C910 1.403 . S
C913 C914 1.392 . S
C913 C917 1.495 . S
C914 C913 1.392 . S
C914 C915 1.385 . S
C914 C916 1.478 . S
C915 H909 0.930 . S
C915 C911 1.400 . S
C915 C914 1.385 . S
C916 C914 1.478 . S
C916 C918 1.381 . S
C916 C922 1.383 . S
C917 C913 1.495 . S
C917 H923 0.959 . S
C917 H924 0.961 . S
C917 H925 0.960 . S
C918 C916 1.381 . S
C918 C919 1.394 . S
C918 H926 0.930 . S
C919 C918 1.394 . S
C919 C920 1.383 . S
C919 H927 0.929 . S
C920 C919 1.383 . S
C920 C921 1.377 . S
C921 H905 0.930 . S
C921 C920 1.377 . S
C921 C922 1.379 . S
C922 H906 0.931 . S
C922 C916 1.383 . S
C922 C921 1.379 . S
H923 C917 0.959 . S
H924 C917 0.961 . S
H925 C917 0.960 . S
H926 C918 0.930 . S
H927 C919 0.929 . S
H928 C936 0.929 . S
H929 C938 0.930 . S
H930 C940 0.930 1_554 S
H931 C943 0.929 . S
H932 C946 0.930 . S
H933 C948 0.960 . S
H934 C948 0.960 . S
H935 C948 0.960 . S
C936 H928 0.929 . S
C936 C937 1.377 . S
C936 C938 1.384 . S
C937 C936 1.377 . S
C937 C943 1.390 . S
C938 H929 0.930 . S
C938 C936 1.384 . S
C938 C939 1.372 . S
C939 C938 1.372 . S
C939 C940 1.400 . S
C939 C944 1.490 . S
C940 H930 0.930 1_556 S
C940 C939 1.400 . S
C940 C943 1.386 . S
H941 C957 0.930 . S
H942 C958 0.931 . S
C943 H931 0.929 . S
C943 C937 1.390 . S
C943 C940 1.386 . S
C944 C939 1.490 . S
C944 C946 1.395 . S
C944 C947 1.403 . S
H945 C951 0.930 . S
C946 H932 0.930 . S
C946 C944 1.395 . S
C946 C949 1.403 . S
C947 C944 1.403 . S
C947 C948 1.524 . S
C947 C951 1.400 . S
C948 H933 0.960 . S
C948 H934 0.960 . S
C948 H935 0.960 . S
C948 C947 1.524 . S
C949 C946 1.403 . S
C949 C950 1.392 . S
C949 C953 1.495 1_655 S
C950 C949 1.392 . S
C950 C951 1.385 . S
C950 C952 1.478 . S
C951 H945 0.930 . S
C951 C947 1.400 . S
C951 C950 1.385 . S
C952 C950 1.478 . S
C952 C954 1.381 1_655 S
C952 C958 1.383 1_556 S
C953 C949 1.495 1_455 S
C953 H959 0.959 . S
C953 H960 0.961 1_556 S
C953 H961 0.960 . S
C954 C952 1.381 1_455 S
C954 C955 1.394 . S
C954 H962 0.930 . S
C955 C954 1.394 . S
C955 C956 1.387 . S
C955 H963 0.929 . S
C956 C955 1.387 . S
C956 C957 1.369 1_456 S
C957 H941 0.930 . S
C957 C956 1.369 1_654 S
C957 C958 1.379 . S
C958 H942 0.931 . S
C958 C952 1.383 1_554 S
C958 C957 1.379 . S
H959 C953 0.959 . S
H960 C953 0.961 1_554 S
H961 C953 0.960 . S
H962 C954 0.930 . S
H963 C955 0.929 . S
H964 C972 0.929 . S
H965 C974 0.930 . S
H966 C976 0.930 . S
H967 C979 0.929 . S
H968 C982 0.930 . S
H969 C984 0.960 . S
H970 C984 0.960 . S
H971 C984 0.960 . S
C972 H964 0.929 . S
C972 C973 1.377 . S
C972 C974 1.384 . S
C973 C972 1.377 . S
C973 C979 1.390 . S
C974 H965 0.930 . S
C974 C972 1.384 . S
C974 C975 1.372 . S
C975 C974 1.372 . S
C975 C976 1.400 . S
C975 C980 1.490 . S
C976 H966 0.930 . S
C976 C975 1.400 . S
C976 C979 1.386 . S
H977 C993 0.930 . S
H978 C994 0.931 . S
C979 H967 0.929 . S
C979 C973 1.390 . S
C979 C976 1.386 . S
C980 C975 1.490 . S
C980 C982 1.395 . S
C980 C983 1.403 . S
H981 C987 0.930 . S
C982 H968 0.930 . S
C982 C980 1.395 . S
C982 C985 1.403 . S
C983 C980 1.403 . S
C983 C984 1.524 . S
C983 C987 1.400 . S
C984 H969 0.960 . S
C984 H970 0.960 . S
C984 H971 0.960 . S
C984 C983 1.524 . S
C985 C982 1.403 . S
C985 C986 1.392 . S
C985 C989 1.495 . S
C986 C985 1.392 . S
C986 C987 1.385 . S
C986 C988 1.478 . S
C987 H981 0.930 . S
C987 C983 1.400 . S
C987 C986 1.385 . S
C988 C986 1.478 . S
C988 C990 1.381 . S
C988 C994 1.383 . S
C989 C985 1.495 . S
C989 H995 0.959 . S
C989 H996 0.961 . S
C989 H997 0.960 . S
C990 C988 1.381 . S
C990 C991 1.394 . S
C990 H998 0.930 . S
C991 C990 1.394 . S
C991 C992 1.383 . S
C991 H999 0.929 . S
C992 C991 1.383 . S
C992 C993 1.377 . S
C993 H977 0.930 . S
C993 C992 1.377 . S
C993 C994 1.379 . S
C994 H978 0.931 . S
C994 C988 1.383 . S
C994 C993 1.379 . S
H995 C989 0.959 . S
H996 C989 0.961 . S
H997 C989 0.960 . S
H998 C990 0.930 . S
H999 C991 0.929 . S
H1000 C1008 0.929 . S
H1001 C1010 0.930 . S
H1002 C1012 0.930 . S
H1003 C1015 0.929 . S
H1004 C1018 0.930 . S
H1005 C1020 0.960 . S
H1006 C1020 0.960 . S
H1007 C1020 0.960 . S
C1008 H1000 0.929 . S
C1008 C1009 1.377 . S
C1008 C1010 1.384 . S
C1009 C1008 1.377 . S
C1009 C1015 1.390 . S
C1010 H1001 0.930 . S
C1010 C1008 1.384 . S
C1010 C1011 1.372 . S
C1011 C1010 1.372 . S
C1011 C1012 1.400 . S
C1011 C1016 1.490 . S
C1012 H1002 0.930 . S
C1012 C1011 1.400 . S
C1012 C1015 1.386 . S
H1013 C1029 0.930 . S
H1014 C1030 0.931 . S
C1015 H1003 0.929 . S
C1015 C1009 1.390 . S
C1015 C1012 1.386 . S
C1016 C1011 1.490 . S
C1016 C1018 1.395 . S
C1016 C1019 1.403 . S
H1017 C1023 0.930 . S
C1018 H1004 0.930 . S
C1018 C1016 1.395 . S
C1018 C1021 1.403 . S
C1019 C1016 1.403 . S
C1019 C1020 1.524 . S
C1019 C1023 1.400 . S
C1020 H1005 0.960 . S
C1020 H1006 0.960 . S
C1020 H1007 0.960 . S
C1020 C1019 1.524 . S
C1021 C1018 1.403 . S
C1021 C1022 1.392 . S
C1021 C1025 1.530 . S
C1022 C1021 1.392 . S
C1022 C1023 1.385 . S
C1022 C1024 1.478 . S
C1023 H1017 0.930 . S
C1023 C1019 1.400 . S
C1023 C1022 1.385 . S
C1024 C1022 1.478 . S
C1024 C1026 1.381 . S
C1024 C1030 1.383 . S
C1025 C1021 1.530 . S
C1025 H1031 0.938 1_455 S
C1025 H1032 0.975 . S
C1025 H1033 0.934 1_455 S
C1026 C1024 1.381 . S
C1026 C1027 1.394 . S
C1026 H1034 0.947 . S
C1027 C1026 1.394 . S
C1027 C1028 1.383 . S
C1027 H1035 0.929 1_455 S
C1028 C1027 1.383 . S
C1028 C1029 1.377 . S
C1029 H1013 0.930 . S
C1029 C1028 1.377 . S
C1029 C1030 1.379 . S
C1030 H1014 0.931 . S
C1030 C1024 1.383 . S
C1030 C1029 1.379 . S
H1031 C1025 0.938 1_655 S
H1032 C1025 0.975 . S
H1033 C1025 0.934 1_655 S
H1034 C1026 0.947 . S
H1035 C1027 0.929 1_655 S
H1036 C1044 0.929 . S
H1037 C1046 0.930 . S
H1038 C1048 0.930 . S
H1039 C1051 0.929 . S
H1040 C1054 0.930 . S
H1041 C1056 0.960 . S
H1042 C1056 0.960 . S
H1043 C1056 0.960 . S
C1044 H1036 0.929 . S
C1044 C1045 1.377 . S
C1044 C1046 1.384 . S
C1045 C1044 1.377 . S
C1045 C1051 1.390 . S
C1046 H1037 0.930 . S
C1046 C1044 1.384 . S
C1046 C1047 1.372 . S
C1047 C1046 1.372 . S
C1047 C1048 1.400 . S
C1047 C1052 1.490 . S
C1048 H1038 0.930 . S
C1048 C1047 1.400 . S
C1048 C1051 1.386 . S
H1049 C1065 0.930 . S
H1050 C1066 0.931 . S
C1051 H1039 0.929 . S
C1051 C1045 1.390 . S
C1051 C1048 1.386 . S
C1052 C1047 1.490 . S
C1052 C1054 1.395 . S
C1052 C1055 1.403 . S
H1053 C1059 0.930 . S
C1054 H1040 0.930 . S
C1054 C1052 1.395 . S
C1054 C1057 1.403 . S
C1055 C1052 1.403 . S
C1055 C1056 1.524 . S
C1055 C1059 1.400 . S
C1056 H1041 0.960 . S
C1056 H1042 0.960 . S
C1056 H1043 0.960 . S
C1056 C1055 1.524 . S
C1057 C1054 1.403 . S
C1057 C1058 1.392 . S
C1057 C1061 1.495 . S
C1058 C1057 1.392 . S
C1058 C1059 1.385 . S
C1058 C1060 1.478 . S
C1059 H1053 0.930 . S
C1059 C1055 1.400 . S
C1059 C1058 1.385 . S
C1060 C1058 1.478 . S
C1060 C1062 1.381 . S
C1060 C1066 1.383 . S
C1061 C1057 1.495 . S
C1061 H1067 0.959 . S
C1061 H1068 0.961 . S
C1061 H1069 0.960 . S
C1062 C1060 1.381 . S
C1062 C1063 1.394 . S
C1062 H1070 0.930 . S
C1063 C1062 1.394 . S
C1063 C1064 1.383 . S
C1063 H1071 0.929 . S
C1064 C1063 1.383 . S
C1064 C1065 1.377 . S
C1065 H1049 0.930 . S
C1065 C1064 1.377 . S
C1065 C1066 1.379 . S
C1066 H1050 0.931 . S
C1066 C1060 1.383 . S
C1066 C1065 1.379 . S
H1067 C1061 0.959 . S
H1068 C1061 0.961 . S
H1069 C1061 0.960 . S
H1070 C1062 0.930 . S
H1071 C1063 0.929 . S
C217 C5 2.413 . S
C236 C104 2.555 . S
C253 C18 1.136 . S
C272 N124 1.158 . S
C308 C158 1.712 . S
C289 C30 1.683 . S
C325 C41 1.017 . S
C344 N192 1.009 . S
C380 C145 2.688 . S
C361 C7 2.636 . S
C416 N102 1.391 . S
C397 C16 1.185 . S
C452 C179 2.008 1_556 S
C433 C29 1.900 . S
C488 N154 0.619 . S
C469 C38 0.649 . S
C505 C8 1.964 . S
C524 C194 1.958 . S
C560 C128 1.838 . S
C541 C27 1.541 . S
C577 C40 1.392 . S
C596 C89 1.373 . S
C613 C19 0.975 . S
C632 C175 0.995 . S
C668 C115 2.240 . S
C649 C51 2.175 . S
C685 C62 1.218 . S
C704 N132 1.241 . S
C721 C74 1.782 . S
C740 C149 1.819 . S
C757 C84 1.055 . S
C776 N184 1.115 . S
C793 C49 2.602 . S
C812 C134 2.762 1_565 S
C848 N94 1.074 . S
C829 C63 1.093 . S
C884 C188 1.823 . S
C865 C71 1.515 . S
C920 N162 0.715 . S
C901 C85 0.675 . S
C937 C52 1.898 . S
C956 C205 1.902 1_556 S
C992 C119 1.961 . S
C973 C73 1.847 . S
C1028 C98 1.153 . S
C1009 C82 0.937 . S
C1045 C60 1.313 . S
C1064 C164 1.613 . S
