# Generated by pormake.
# Topology gar, (4,6)-cn, num edge types: 1
# Building blocks:
#     Node 0, Type 0, BuildingBlock: CEKHIL_clean_sbu_0, # of connection points: 4
#     Node 1, Type 0, BuildingBlock: CEKHIL_clean_sbu_0, # of connection points: 4
#     Node 2, Type 0, BuildingBlock: CEKHIL_clean_sbu_0, # of connection points: 4
#     Node 3, Type 0, BuildingBlock: CEKHIL_clean_sbu_0, # of connection points: 4
#     Node 4, Type 0, BuildingBlock: CEKHIL_clean_sbu_0, # of connection points: 4
#     Node 5, Type 0, BuildingBlock: CEKHIL_clean_sbu_0, # of connection points: 4
#     Node 6, Type 0, BuildingBlock: CEKHIL_clean_sbu_0, # of connection points: 4
#     Node 7, Type 0, BuildingBlock: CEKHIL_clean_sbu_0, # of connection points: 4
#     Node 8, Type 0, BuildingBlock: CEKHIL_clean_sbu_0, # of connection points: 4
#     Node 9, Type 0, BuildingBlock: CEKHIL_clean_sbu_0, # of connection points: 4
#     Node 10, Type 0, BuildingBlock: CEKHIL_clean_sbu_0, # of connection points: 4
#     Node 11, Type 0, BuildingBlock: CEKHIL_clean_sbu_0, # of connection points: 4
#     Node 12, Type 0, BuildingBlock: CEKHIL_clean_sbu_0, # of connection points: 4
#     Node 13, Type 0, BuildingBlock: CEKHIL_clean_sbu_0, # of connection points: 4
#     Node 14, Type 0, BuildingBlock: CEKHIL_clean_sbu_0, # of connection points: 4
#     Node 15, Type 0, BuildingBlock: CEKHIL_clean_sbu_0, # of connection points: 4
#     Node 16, Type 0, BuildingBlock: CEKHIL_clean_sbu_0, # of connection points: 4
#     Node 17, Type 0, BuildingBlock: CEKHIL_clean_sbu_0, # of connection points: 4
#     Node 18, Type 0, BuildingBlock: CEKHIL_clean_sbu_0, # of connection points: 4
#     Node 19, Type 0, BuildingBlock: CEKHIL_clean_sbu_0, # of connection points: 4
#     Node 20, Type 0, BuildingBlock: CEKHIL_clean_sbu_0, # of connection points: 4
#     Node 21, Type 0, BuildingBlock: CEKHIL_clean_sbu_0, # of connection points: 4
#     Node 22, Type 0, BuildingBlock: CEKHIL_clean_sbu_0, # of connection points: 4
#     Node 23, Type 0, BuildingBlock: CEKHIL_clean_sbu_0, # of connection points: 4
#     Node 24, Type 1, BuildingBlock: PAMTOO_clean_sbu_0, # of connection points: 6
#     Node 25, Type 1, BuildingBlock: PAMTOO_clean_sbu_0, # of connection points: 6
#     Node 26, Type 1, BuildingBlock: PAMTOO_clean_sbu_0, # of connection points: 6
#     Node 27, Type 1, BuildingBlock: PAMTOO_clean_sbu_0, # of connection points: 6
#     Node 28, Type 1, BuildingBlock: PAMTOO_clean_sbu_0, # of connection points: 6
#     Node 29, Type 1, BuildingBlock: PAMTOO_clean_sbu_0, # of connection points: 6
#     Node 30, Type 1, BuildingBlock: PAMTOO_clean_sbu_0, # of connection points: 6
#     Node 31, Type 1, BuildingBlock: PAMTOO_clean_sbu_0, # of connection points: 6
#     Node 32, Type 1, BuildingBlock: PAMTOO_clean_sbu_0, # of connection points: 6
#     Node 33, Type 1, BuildingBlock: PAMTOO_clean_sbu_0, # of connection points: 6
#     Node 34, Type 1, BuildingBlock: PAMTOO_clean_sbu_0, # of connection points: 6
#     Node 35, Type 1, BuildingBlock: PAMTOO_clean_sbu_0, # of connection points: 6
#     Node 36, Type 1, BuildingBlock: PAMTOO_clean_sbu_0, # of connection points: 6
#     Node 37, Type 1, BuildingBlock: PAMTOO_clean_sbu_0, # of connection points: 6
#     Node 38, Type 1, BuildingBlock: PAMTOO_clean_sbu_0, # of connection points: 6
#     Node 39, Type 1, BuildingBlock: PAMTOO_clean_sbu_0, # of connection points: 6
#     Edge 40, Type (0, 1), BuildingBlock: CIFDUS_clean_linker_0, # of connection points: 2
#     Edge 41, Type (0, 1), BuildingBlock: CIFDUS_clean_linker_0, # of connection points: 2
#     Edge 42, Type (0, 1), BuildingBlock: CIFDUS_clean_linker_0, # of connection points: 2
#     Edge 43, Type (0, 1), BuildingBlock: CIFDUS_clean_linker_0, # of connection points: 2
#     Edge 44, Type (0, 1), BuildingBlock: CIFDUS_clean_linker_0, # of connection points: 2
#     Edge 45, Type (0, 1), BuildingBlock: CIFDUS_clean_linker_0, # of connection points: 2
#     Edge 46, Type (0, 1), BuildingBlock: CIFDUS_clean_linker_0, # of connection points: 2
#     Edge 47, Type (0, 1), BuildingBlock: CIFDUS_clean_linker_0, # of connection points: 2
#     Edge 48, Type (0, 1), BuildingBlock: CIFDUS_clean_linker_0, # of connection points: 2
#     Edge 49, Type (0, 1), BuildingBlock: CIFDUS_clean_linker_0, # of connection points: 2
#     Edge 50, Type (0, 1), BuildingBlock: CIFDUS_clean_linker_0, # of connection points: 2
#     Edge 51, Type (0, 1), BuildingBlock: CIFDUS_clean_linker_0, # of connection points: 2
#     Edge 52, Type (0, 1), BuildingBlock: CIFDUS_clean_linker_0, # of connection points: 2
#     Edge 53, Type (0, 1), BuildingBlock: CIFDUS_clean_linker_0, # of connection points: 2
#     Edge 54, Type (0, 1), BuildingBlock: CIFDUS_clean_linker_0, # of connection points: 2
#     Edge 55, Type (0, 1), BuildingBlock: CIFDUS_clean_linker_0, # of connection points: 2
#     Edge 56, Type (0, 1), BuildingBlock: CIFDUS_clean_linker_0, # of connection points: 2
#     Edge 57, Type (0, 1), BuildingBlock: CIFDUS_clean_linker_0, # of connection points: 2
#     Edge 58, Type (0, 1), BuildingBlock: CIFDUS_clean_linker_0, # of connection points: 2
#     Edge 59, Type (0, 1), BuildingBlock: CIFDUS_clean_linker_0, # of connection points: 2
#     Edge 60, Type (0, 1), BuildingBlock: CIFDUS_clean_linker_0, # of connection points: 2
#     Edge 61, Type (0, 1), BuildingBlock: CIFDUS_clean_linker_0, # of connection points: 2
#     Edge 62, Type (0, 1), BuildingBlock: CIFDUS_clean_linker_0, # of connection points: 2
#     Edge 63, Type (0, 1), BuildingBlock: CIFDUS_clean_linker_0, # of connection points: 2
#     Edge 64, Type (0, 1), BuildingBlock: CIFDUS_clean_linker_0, # of connection points: 2
#     Edge 65, Type (0, 1), BuildingBlock: CIFDUS_clean_linker_0, # of connection points: 2
#     Edge 66, Type (0, 1), BuildingBlock: CIFDUS_clean_linker_0, # of connection points: 2
#     Edge 67, Type (0, 1), BuildingBlock: CIFDUS_clean_linker_0, # of connection points: 2
#     Edge 68, Type (0, 1), BuildingBlock: CIFDUS_clean_linker_0, # of connection points: 2
#     Edge 69, Type (0, 1), BuildingBlock: CIFDUS_clean_linker_0, # of connection points: 2
#     Edge 70, Type (0, 1), BuildingBlock: CIFDUS_clean_linker_0, # of connection points: 2
#     Edge 71, Type (0, 1), BuildingBlock: CIFDUS_clean_linker_0, # of connection points: 2
#     Edge 72, Type (0, 1), BuildingBlock: CIFDUS_clean_linker_0, # of connection points: 2
#     Edge 73, Type (0, 1), BuildingBlock: CIFDUS_clean_linker_0, # of connection points: 2
#     Edge 74, Type (0, 1), BuildingBlock: CIFDUS_clean_linker_0, # of connection points: 2
#     Edge 75, Type (0, 1), BuildingBlock: CIFDUS_clean_linker_0, # of connection points: 2
#     Edge 76, Type (0, 1), BuildingBlock: CIFDUS_clean_linker_0, # of connection points: 2
#     Edge 77, Type (0, 1), BuildingBlock: CIFDUS_clean_linker_0, # of connection points: 2
#     Edge 78, Type (0, 1), BuildingBlock: CIFDUS_clean_linker_0, # of connection points: 2
#     Edge 79, Type (0, 1), BuildingBlock: CIFDUS_clean_linker_0, # of connection points: 2
#     Edge 80, Type (0, 1), BuildingBlock: CIFDUS_clean_linker_0, # of connection points: 2
#     Edge 81, Type (0, 1), BuildingBlock: CIFDUS_clean_linker_0, # of connection points: 2
#     Edge 82, Type (0, 1), BuildingBlock: CIFDUS_clean_linker_0, # of connection points: 2
#     Edge 83, Type (0, 1), BuildingBlock: CIFDUS_clean_linker_0, # of connection points: 2
#     Edge 84, Type (0, 1), BuildingBlock: CIFDUS_clean_linker_0, # of connection points: 2
#     Edge 85, Type (0, 1), BuildingBlock: CIFDUS_clean_linker_0, # of connection points: 2
#     Edge 86, Type (0, 1), BuildingBlock: CIFDUS_clean_linker_0, # of connection points: 2
#     Edge 87, Type (0, 1), BuildingBlock: CIFDUS_clean_linker_0, # of connection points: 2
#     Edge 88, Type (0, 1), BuildingBlock: CIFDUS_clean_linker_0, # of connection points: 2
#     Edge 89, Type (0, 1), BuildingBlock: CIFDUS_clean_linker_0, # of connection points: 2
#     Edge 90, Type (0, 1), BuildingBlock: CIFDUS_clean_linker_0, # of connection points: 2
#     Edge 91, Type (0, 1), BuildingBlock: CIFDUS_clean_linker_0, # of connection points: 2
#     Edge 92, Type (0, 1), BuildingBlock: CIFDUS_clean_linker_0, # of connection points: 2
#     Edge 93, Type (0, 1), BuildingBlock: CIFDUS_clean_linker_0, # of connection points: 2
#     Edge 94, Type (0, 1), BuildingBlock: CIFDUS_clean_linker_0, # of connection points: 2
#     Edge 95, Type (0, 1), BuildingBlock: CIFDUS_clean_linker_0, # of connection points: 2
#     Edge 96, Type (0, 1), BuildingBlock: CIFDUS_clean_linker_0, # of connection points: 2
#     Edge 97, Type (0, 1), BuildingBlock: CIFDUS_clean_linker_0, # of connection points: 2
#     Edge 98, Type (0, 1), BuildingBlock: CIFDUS_clean_linker_0, # of connection points: 2
#     Edge 99, Type (0, 1), BuildingBlock: CIFDUS_clean_linker_0, # of connection points: 2
#     Edge 100, Type (0, 1), BuildingBlock: CIFDUS_clean_linker_0, # of connection points: 2
#     Edge 101, Type (0, 1), BuildingBlock: CIFDUS_clean_linker_0, # of connection points: 2
#     Edge 102, Type (0, 1), BuildingBlock: CIFDUS_clean_linker_0, # of connection points: 2
#     Edge 103, Type (0, 1), BuildingBlock: CIFDUS_clean_linker_0, # of connection points: 2
#     Edge 104, Type (0, 1), BuildingBlock: CIFDUS_clean_linker_0, # of connection points: 2
#     Edge 105, Type (0, 1), BuildingBlock: CIFDUS_clean_linker_0, # of connection points: 2
#     Edge 106, Type (0, 1), BuildingBlock: CIFDUS_clean_linker_0, # of connection points: 2
#     Edge 107, Type (0, 1), BuildingBlock: CIFDUS_clean_linker_0, # of connection points: 2
#     Edge 108, Type (0, 1), BuildingBlock: CIFDUS_clean_linker_0, # of connection points: 2
#     Edge 109, Type (0, 1), BuildingBlock: CIFDUS_clean_linker_0, # of connection points: 2
#     Edge 110, Type (0, 1), BuildingBlock: CIFDUS_clean_linker_0, # of connection points: 2
#     Edge 111, Type (0, 1), BuildingBlock: CIFDUS_clean_linker_0, # of connection points: 2
#     Edge 112, Type (0, 1), BuildingBlock: CIFDUS_clean_linker_0, # of connection points: 2
#     Edge 113, Type (0, 1), BuildingBlock: CIFDUS_clean_linker_0, # of connection points: 2
#     Edge 114, Type (0, 1), BuildingBlock: CIFDUS_clean_linker_0, # of connection points: 2
#     Edge 115, Type (0, 1), BuildingBlock: CIFDUS_clean_linker_0, # of connection points: 2
#     Edge 116, Type (0, 1), BuildingBlock: CIFDUS_clean_linker_0, # of connection points: 2
#     Edge 117, Type (0, 1), BuildingBlock: CIFDUS_clean_linker_0, # of connection points: 2
#     Edge 118, Type (0, 1), BuildingBlock: CIFDUS_clean_linker_0, # of connection points: 2
#     Edge 119, Type (0, 1), BuildingBlock: CIFDUS_clean_linker_0, # of connection points: 2
#     Edge 120, Type (0, 1), BuildingBlock: CIFDUS_clean_linker_0, # of connection points: 2
#     Edge 121, Type (0, 1), BuildingBlock: CIFDUS_clean_linker_0, # of connection points: 2
#     Edge 122, Type (0, 1), BuildingBlock: CIFDUS_clean_linker_0, # of connection points: 2
#     Edge 123, Type (0, 1), BuildingBlock: CIFDUS_clean_linker_0, # of connection points: 2
#     Edge 124, Type (0, 1), BuildingBlock: CIFDUS_clean_linker_0, # of connection points: 2
#     Edge 125, Type (0, 1), BuildingBlock: CIFDUS_clean_linker_0, # of connection points: 2
#     Edge 126, Type (0, 1), BuildingBlock: CIFDUS_clean_linker_0, # of connection points: 2
#     Edge 127, Type (0, 1), BuildingBlock: CIFDUS_clean_linker_0, # of connection points: 2
#     Edge 128, Type (0, 1), BuildingBlock: CIFDUS_clean_linker_0, # of connection points: 2
#     Edge 129, Type (0, 1), BuildingBlock: CIFDUS_clean_linker_0, # of connection points: 2
#     Edge 130, Type (0, 1), BuildingBlock: CIFDUS_clean_linker_0, # of connection points: 2
#     Edge 131, Type (0, 1), BuildingBlock: CIFDUS_clean_linker_0, # of connection points: 2
#     Edge 132, Type (0, 1), BuildingBlock: CIFDUS_clean_linker_0, # of connection points: 2
#     Edge 133, Type (0, 1), BuildingBlock: CIFDUS_clean_linker_0, # of connection points: 2
#     Edge 134, Type (0, 1), BuildingBlock: CIFDUS_clean_linker_0, # of connection points: 2
#     Edge 135, Type (0, 1), BuildingBlock: CIFDUS_clean_linker_0, # of connection points: 2
# Relax obj value: 0.158
# Max RMSD: 0.272
# Mean RMSD: 0.160
data_MOF--net-gar--node1-CEKHIL_clean_sbu_0--node2-PAMTOO_clean_sbu_0--edge1-CIFDUS_clean_linker_0
_symmetry_space_group_name_H-M    P1
_symmetry_Int_Tables_number       1
_symmetry_cell_setting            triclinic
loop_
_symmetry_equiv_pos_as_xyz
'x, y, z'
_cell_length_a     53.223934
_cell_length_b     52.98302
_cell_length_c     50.035762
_cell_angle_alpha  96.342427
_cell_angle_beta   96.256083
_cell_angle_gamma 102.8744
loop_
_atom_site_label
_atom_site_type_symbol
_atom_site_fract_x
_atom_site_fract_y
_atom_site_fract_z
_atom_type_partial_charge
Co0 Co 0.07684 0.34709 0.37486 0.0
O1 O 0.11493 0.34892 0.38319 0.0
O2 O 0.09394 0.33365 0.34337 0.0
C3 C 0.07827 0.38916 0.39714 0.0
O4 O 0.03711 0.34276 0.35771 0.0
Co5 Co 0.04185 0.35326 0.42083 0.0
O6 O 1.01338 0.35116 0.39108 0.0
C7 C 0.05677 0.30296 0.40791 0.0
C8 C 0.11639 0.33885 0.35874 0.0
C9 C 1.01506 0.34527 0.36605 0.0
O10 O 0.06739 0.31046 0.387 0.0
O11 O 0.04841 0.31816 0.42461 0.0
O12 O 0.08405 0.3858 0.37255 0.0
O13 O 0.07365 0.36791 0.4076 0.0
Co14 Co 0.03207 0.76882 0.71286 0.0
O15 O 0.99368 0.76605 0.70394 0.0
O16 O 1.0104 0.76263 0.74393 0.0
C17 C 0.04338 0.80719 0.69402 0.0
O18 O 0.07219 0.77268 0.73001 0.0
Co19 Co 0.06812 0.77018 0.66764 0.0
O20 O 0.09792 0.77901 0.69699 0.0
C21 C 0.034 0.71929 0.67397 0.0
C22 C 0.98942 0.76404 0.72862 0.0
C23 C 0.09538 0.77729 0.72177 0.0
O24 O 0.02783 0.72928 0.6969 0.0
O25 O 0.04729 0.73335 0.65883 0.0
O26 O 0.0378 0.80756 0.71863 0.0
O27 O 0.04091 0.7841 0.68148 0.0
Co28 Co 0.57589 0.84688 0.8749 0.0
O29 O 0.61411 0.84894 0.88316 0.0
O30 O 0.5929 0.83272 0.84368 0.0
C31 C 0.57747 0.88932 0.89631 0.0
O32 O 0.53583 0.84263 0.85817 0.0
Co33 Co 0.54174 0.85379 0.92162 0.0
O34 O 0.51304 0.85194 0.89218 0.0
C35 C 0.56039 0.80613 0.91227 0.0
C36 C 0.61551 0.83858 0.85883 0.0
C37 C 0.51407 0.8457 0.86705 0.0
O38 O 0.56626 0.81084 0.88845 0.0
O39 O 0.55699 0.82393 0.92999 0.0
O40 O 0.58366 0.88562 0.87192 0.0
O41 O 0.57275 0.86817 0.90693 0.0
Co42 Co 0.53075 0.268 0.21113 0.0
O43 O 0.49232 0.26646 0.20448 0.0
O44 O 0.51079 0.26124 0.24313 0.0
C45 C 0.54153 0.30601 0.19156 0.0
O46 O 0.57104 0.27102 0.22674 0.0
Co47 Co 0.56449 0.26774 0.16444 0.0
O48 O 0.59535 0.27447 0.19242 0.0
C49 C 0.53201 0.21726 0.17334 0.0
C50 C 0.48937 0.26364 0.22936 0.0
C51 C 0.59373 0.27383 0.21755 0.0
O52 O 0.52594 0.22825 0.19582 0.0
O53 O 0.54466 0.23045 0.15716 0.0
O54 O 0.53711 0.30681 0.2166 0.0
O55 O 0.53819 0.28277 0.179 0.0
Co56 Co 0.08318 0.81745 0.11957 0.0
O57 O 0.04502 0.81134 0.1118 0.0
O58 O 0.06613 0.80655 0.15025 0.0
C59 C 0.08967 0.85919 0.10206 0.0
O60 O 0.12036 0.82233 0.14099 0.0
Co61 Co 0.12066 0.82023 0.08571 0.0
O62 O 0.15088 0.82369 0.11441 0.0
C63 C 0.09339 0.76645 0.08809 0.0
C64 C 0.04398 0.80574 0.13637 0.0
C65 C 0.14439 0.82342 0.138 0.0
O66 O 0.08123 0.77761 0.10544 0.0
O67 O 0.11011 0.78087 0.07635 0.0
O68 O 0.08563 0.85609 0.12669 0.0
O69 O 0.09085 0.83723 0.08791 0.0
Co70 Co 0.52059 0.79314 0.46164 0.0
O71 O 0.55852 0.80322 0.47071 0.0
O72 O 0.53765 0.78558 0.43026 0.0
C73 C 0.51395 0.83323 0.48202 0.0
O74 O 0.4831 0.7836 0.44038 0.0
Co75 Co 0.48366 0.78236 0.49758 0.0
O76 O 0.45594 0.78857 0.46986 0.0
C77 C 0.51219 0.74151 0.4906 0.0
C78 C 0.55974 0.79563 0.44538 0.0
C79 C 0.46055 0.78666 0.44541 0.0
O80 O 0.5203 0.75485 0.47143 0.0
O81 O 0.49748 0.75037 0.50597 0.0
O82 O 0.52055 0.82983 0.45802 0.0
O83 O 0.5128 0.81274 0.49481 0.0
Co84 Co 0.58201 0.31786 0.62335 0.0
O85 O 0.54378 0.31123 0.61566 0.0
O86 O 0.56512 0.30531 0.65355 0.0
C87 C 0.58733 0.36127 0.6088 0.0
O88 O 0.6193 0.3229 0.64498 0.0
Co89 Co 0.61732 0.321 0.59038 0.0
O90 O 0.64869 0.32363 0.61736 0.0
C91 C 0.59114 0.26715 0.58992 0.0
C92 C 0.54294 0.30449 0.63979 0.0
C93 C 0.64312 0.32367 0.64128 0.0
O94 O 0.57989 0.27817 0.60817 0.0
O95 O 0.60744 0.28195 0.57816 0.0
O96 O 0.58372 0.35574 0.63282 0.0
O97 O 0.58915 0.34063 0.59265 0.0
Co98 Co 0.01804 0.29183 0.96262 0.0
O99 O 0.05609 0.30079 0.96982 0.0
O100 O 0.03337 0.28433 0.92995 0.0
C101 C 1.0139 0.33288 0.98392 0.0
O102 O 0.9795 0.28311 0.94309 0.0
Co103 Co 0.98482 0.28173 1.00051 0.0
O104 O 0.95492 0.2867 0.97539 0.0
C105 C 1.01102 0.24001 0.99166 0.0
C106 C 0.05608 0.29348 0.94419 0.0
C107 C 0.95737 0.2852 0.95035 0.0
O108 O 0.01861 0.25367 0.97251 0.0
O109 O 0.99667 0.24865 0.00751 0.0
O110 O 0.01826 0.32848 0.95916 0.0
O111 O 1.01327 0.31256 0.99692 0.0
Co112 Co 0.41027 0.038 0.32835 0.0
O113 O 0.40703 0.07056 0.31717 0.0
O114 O 0.37482 0.03487 0.31331 0.0
C115 C 0.4337 0.05534 0.36806 0.0
O116 O 0.40568 1.00169 0.33773 0.0
Co117 Co 0.46264 0.02239 0.3424 0.0
O118 O 0.44189 0.98904 0.35122 0.0
C119 C 0.44224 0.02644 0.28597 0.0
C120 C 0.38259 0.05914 0.30969 0.0
C121 C 0.41725 0.98474 0.34619 0.0
O122 O 0.41951 0.0265 0.29219 0.0
O123 O 0.46221 0.02793 0.30336 0.0
O124 O 0.40848 0.05115 0.36579 0.0
O125 O 0.44374 0.04972 0.34661 0.0
Co126 Co 0.28606 0.20819 0.52681 0.0
O127 O 0.3239 0.21456 0.53293 0.0
O128 O 0.29672 0.17767 0.53724 0.0
C129 C 0.28481 0.22602 0.48658 0.0
O130 O 0.24668 0.19148 0.52159 0.0
Co131 Co 0.25498 0.24892 0.52503 0.0
O132 O 0.2229 0.22043 0.51453 0.0
C133 C 0.27866 0.24142 0.57869 0.0
C134 C 0.32062 0.19071 0.53844 0.0
C135 C 0.22446 0.19709 0.51648 0.0
O136 O 0.28572 0.22176 0.56668 0.0
O137 O 0.26734 0.25601 0.56535 0.0
O138 O 0.28652 0.20201 0.48734 0.0
O139 O 0.28445 0.23893 0.51011 0.0
Co140 Co 0.14549 0.06758 0.80979 0.0
O141 O 0.13976 0.02966 0.80641 0.0
O142 O 0.17631 0.05694 0.80114 0.0
C143 C 0.12786 0.07071 0.84989 0.0
O144 O 0.16188 0.10701 0.81263 0.0
Co145 Co 0.10557 0.09909 0.80975 0.0
O146 O 0.13373 0.13123 0.82128 0.0
C147 C 0.11305 0.07314 0.75693 0.0
C148 C 0.1638 0.03314 0.80186 0.0
C149 C 0.1567 0.12942 0.81835 0.0
O150 O 0.13168 0.06509 0.76949 0.0
O151 O 0.09957 0.08652 0.76948 0.0
O152 O 0.15195 0.06965 0.84944 0.0
O153 O 0.11475 0.06985 0.82617 0.0
Co154 Co 0.30112 0.94196 0.99393 0.0
O155 O 0.26608 0.93555 1.0025 0.0
O156 O 0.29691 0.97194 0.01634 0.0
C157 C 0.2915 0.92658 0.94985 0.0
O158 O 0.33857 0.95639 0.98946 0.0
Co159 Co 0.32608 0.89695 0.97202 0.0
O160 O 0.35833 0.92505 0.97508 0.0
C161 C 0.31714 0.90417 0.0288 0.0
C162 C 0.27318 0.95884 0.01637 0.0
C163 C 0.35866 0.94881 0.9831 0.0
O164 O 0.31245 0.92665 0.02669 0.0
O165 O 0.32007 0.88827 0.00892 0.0
O166 O 0.28967 0.95022 0.95793 0.0
O167 O 0.29667 0.91283 0.96839 0.0
Co168 Co 0.31575 0.39505 0.04974 0.0
O169 O 0.27764 0.38801 0.04218 0.0
O170 O 0.30346 0.42466 0.06376 0.0
C171 C 0.3212 0.38022 0.00594 0.0
O172 O 0.35428 0.41403 0.05944 0.0
Co173 Co 0.35078 0.35805 0.04562 0.0
O174 O 0.37955 0.38892 0.04431 0.0
C175 C 0.32287 0.36011 0.094 0.0
C176 C 0.28024 0.41219 0.05277 0.0
C177 C 0.37645 0.41124 0.05339 0.0
O178 O 0.31438 0.3796 0.08608 0.0
O179 O 0.33649 0.34834 0.07969 0.0
O180 O 0.3176 0.40334 0.01283 0.0
O181 O 0.32061 0.36586 0.02539 0.0
Co182 Co 0.7966 0.15763 0.06076 0.0
O183 O 0.83338 0.16449 0.05985 0.0
O184 O 0.80796 0.12635 0.06494 0.0
C185 C 0.78905 0.17787 0.02503 0.0
O186 O 0.75811 0.14251 0.06136 0.0
Co187 Co 0.7664 0.20158 0.06758 0.0
O188 O 0.73476 0.17285 0.05914 0.0
C189 C 0.79984 0.18972 0.11387 0.0
C190 C 0.83085 0.13989 0.06209 0.0
C191 C 0.73629 0.14925 0.05949 0.0
O192 O 0.80256 0.16855 0.10081 0.0
O193 O 0.78844 0.20593 0.10346 0.0
O194 O 0.79111 0.1538 0.02128 0.0
O195 O 0.79247 0.18905 0.04974 0.0
Co196 Co 0.19802 0.56583 0.27524 0.0
O197 O 0.19689 0.52927 0.26868 0.0
O198 O 0.23045 0.56144 0.26463 0.0
C199 C 0.18219 0.56585 0.31504 0.0
O200 O 0.20718 0.60511 0.28153 0.0
Co201 Co 0.14868 0.58774 0.28053 0.0
O202 O 0.17376 0.62144 0.29356 0.0
C203 C 0.16321 0.57354 0.22659 0.0
C204 C 0.22094 0.53659 0.26437 0.0
C205 C 0.1974 0.624 0.29 0.0
O206 O 0.18327 0.56611 0.23645 0.0
O207 O 0.147 0.58117 0.24067 0.0
O208 O 0.20643 0.56568 0.3142 0.0
O209 O 0.1679 0.56291 0.29182 0.0
Co210 Co 0.81629 0.89584 0.54762 0.0
O211 O 0.7782 0.88993 0.54076 0.0
O212 O 0.80581 0.92768 0.55625 0.0
C213 C 0.82042 0.87324 0.5068 0.0
O214 O 0.85486 0.91396 0.55476 0.0
Co215 Co 0.84971 0.85821 0.55305 0.0
O216 O 0.88095 0.88678 0.55119 0.0
C217 C 0.82079 0.86818 0.59848 0.0
C218 C 0.78206 0.9151 0.54763 0.0
C219 C 0.87761 0.90991 0.55379 0.0
O220 O 0.81504 0.88734 0.58696 0.0
O221 O 0.83288 0.85264 0.5869 0.0
O222 O 0.81786 0.89713 0.50877 0.0
O223 O 0.81965 0.86297 0.52922 0.0
Co224 Co 0.96203 0.03004 0.28766 0.0
O225 O 0.96695 0.06823 0.29376 0.0
O226 O 0.9299 0.03972 0.27806 0.0
C227 C 0.98376 0.02626 0.3287 0.0
O228 O 0.94567 0.99062 0.28079 0.0
Co229 Co 1.00301 0.99862 0.28442 0.0
O230 O 0.97506 0.96645 0.28354 0.0
C231 C 0.98973 0.024 0.23687 0.0
C232 C 0.94194 0.06382 0.28634 0.0
C233 C 0.95156 0.96838 0.28087 0.0
O234 O 0.9713 0.03102 0.2486 0.0
O235 O 1.00527 0.012 0.24848 0.0
O236 O 0.96004 0.02898 0.32645 0.0
O237 O 0.99455 0.0275 0.30671 0.0
Co238 Co 0.30089 0.65961 0.57336 0.0
O239 O 0.33763 0.66339 0.57518 0.0
O240 O 0.30867 0.62697 0.57913 0.0
C241 C 0.29692 0.67873 0.5362 0.0
O242 O 0.2616 0.64803 0.57113 0.0
Co243 Co 0.27549 0.70723 0.57646 0.0
O244 O 0.24476 0.68048 0.5574 0.0
C245 C 0.30218 0.69275 0.62584 0.0
C246 C 0.33256 0.63866 0.57744 0.0
C247 C 0.24262 0.65661 0.56051 0.0
O248 O 0.30513 0.6715 0.61316 0.0
O249 O 0.29238 0.70964 0.61468 0.0
O250 O 0.29734 0.6542 0.53413 0.0
O251 O 0.30061 0.69127 0.56047 0.0
Co252 Co 0.46402 0.53001 0.78476 0.0
O253 O 0.4712 0.56815 0.78931 0.0
O254 O 0.4331 0.54173 0.7732 0.0
C255 C 0.48417 0.52757 0.82728 0.0
O256 O 0.44652 0.49055 0.77889 0.0
Co257 Co 0.50502 0.49746 0.78745 0.0
O258 O 0.4758 0.46739 0.78916 0.0
C259 C 0.49531 0.52211 0.73772 0.0
C260 C 0.44662 0.56551 0.78094 0.0
C261 C 0.45235 0.46878 0.78295 0.0
O262 O 0.47534 0.52896 0.74637 0.0
O263 O 0.51013 0.51146 0.75238 0.0
O264 O 0.46064 0.53087 0.82366 0.0
O265 O 0.49532 0.52724 0.80563 0.0
Co266 Co 0.6961 0.05691 0.7669 0.0
O267 O 0.69029 0.01996 0.75615 0.0
O268 O 0.72712 0.0497 0.75591 0.0
C269 C 0.67916 0.05526 0.80575 0.0
O270 O 0.71013 0.09566 0.77765 0.0
Co271 Co 0.65121 0.08503 0.775 0.0
O272 O 0.67949 0.11521 0.79166 0.0
C273 C 0.66634 0.07369 0.72029 0.0
C274 C 0.71478 0.02527 0.75309 0.0
C275 C 0.70289 0.11544 0.78842 0.0
O276 O 0.68392 0.0625 0.72928 0.0
O277 O 0.65122 0.08257 0.73508 0.0
O278 O 0.70252 0.05206 0.80471 0.0
O279 O 0.66583 0.05599 0.78281 0.0
Co280 Co 0.78563 0.70671 0.02871 0.0
O281 O 0.82342 0.71004 0.03396 0.0
O282 O 0.79403 0.67617 0.04169 0.0
C283 C 0.78392 0.71972 0.98584 0.0
O284 O 0.74603 0.69246 0.02513 0.0
Co285 Co 0.75741 0.74933 0.02146 0.0
O286 O 0.72389 0.72258 0.01721 0.0
C287 C 0.78175 0.74693 0.07674 0.0
C288 C 0.8183 0.68661 0.04077 0.0
C289 C 0.72438 0.69928 0.02078 0.0
O290 O 0.78674 0.72486 0.06781 0.0
O291 O 0.77217 0.76073 0.06078 0.0
O292 O 0.78433 0.69594 0.98949 0.0
O293 O 0.78549 0.73552 0.00802 0.0
Co294 Co 0.91069 0.54162 0.82803 0.0
O295 O 0.9055 0.57169 0.81247 0.0
O296 O 0.87416 0.53755 0.81765 0.0
C297 C 0.93876 0.5635 0.86391 0.0
O298 O 0.908 0.50753 0.84302 0.0
Co299 Co 0.96445 0.52782 0.83894 0.0
O300 O 0.94647 0.50033 0.85866 0.0
C301 C 0.93314 0.51462 0.78375 0.0
C302 C 0.88088 0.56034 0.80973 0.0
C303 C 0.92172 0.49379 0.85469 0.0
O304 O 0.91445 0.52396 0.79161 0.0
O305 O 0.9543 0.51548 0.79911 0.0
O306 O 0.91387 0.56022 0.8644 0.0
O307 O 0.94578 0.55512 0.84146 0.0
Co308 Co 0.8026 0.44361 0.49807 0.0
O309 O 0.76919 0.44888 0.50311 0.0
O310 O 0.8057 0.48029 0.50817 0.0
C311 C 0.78964 0.41532 0.46028 0.0
O312 O 0.8403 0.44548 0.49483 0.0
Co313 Co 0.8135 0.38798 0.49817 0.0
O314 O 0.85012 0.40651 0.49705 0.0
C315 C 0.80108 0.41671 0.54549 0.0
C316 C 0.781 0.47336 0.5101 0.0
C317 C 0.85664 0.431 0.49585 0.0
O318 O 0.80907 0.43853 0.53683 0.0
O319 O 0.79447 0.39498 0.52968 0.0
O320 O 0.79443 0.44027 0.45846 0.0
O321 O 0.79116 0.40892 0.48418 0.0
Co322 Co 0.6467 0.5624 0.30906 0.0
O323 O 0.6371 0.52407 0.30424 0.0
O324 O 0.67474 0.54861 0.29798 0.0
C325 C 0.63065 0.56747 0.34976 0.0
O326 O 0.66749 0.60033 0.3122 0.0
Co327 Co 0.61409 0.6013 0.31203 0.0
O328 O 0.64567 0.63075 0.3209 0.0
C329 C 0.61517 0.57268 0.25821 0.0
C330 C 0.66038 0.52542 0.2977 0.0
C331 C 0.66683 0.62445 0.31725 0.0
O332 O 0.63239 0.56209 0.26954 0.0
O333 O 0.60462 0.58842 0.27179 0.0
O334 O 0.65356 0.56294 0.34848 0.0
O335 O 0.61791 0.56906 0.32656 0.0
Dy336 Dy 0.08316 0.06854 0.06152 0.0
Dy337 Dy 0.03058 0.03498 0.02892 0.0
C338 C 0.07988 0.05069 0.99642 0.0
O339 O 0.06779 0.10115 0.04332 0.0
O340 O 0.02565 0.07782 0.03294 0.0
O341 O 0.12044 0.09636 0.06624 0.0
O342 O 0.10938 0.07521 0.0992 0.0
O343 O 0.02636 0.03554 0.07349 0.0
O344 O 0.05376 0.07484 0.08912 0.0
O345 O 0.05066 1.0014 0.03602 0.0
O346 O 0.08166 0.0259 0.06949 0.0
O347 O 0.9963 1.00331 0.02526 0.0
O348 O 0.99924 0.03049 0.99609 0.0
C349 C 0.04322 0.10044 0.03461 0.0
O350 O 0.09436 0.05875 0.02015 0.0
O351 O 0.05469 0.04119 0.9948 0.0
C352 C 0.15017 0.07554 0.08662 0.0
C353 C 0.18878 0.04732 0.08195 0.0
C354 C 0.16608 0.04115 0.06306 0.0
C355 C 0.14698 0.05485 0.06558 0.0
C356 C 0.17272 0.08203 0.1057 0.0
C357 C 0.19204 0.06798 0.10334 0.0
C358 C 0.12859 0.08835 0.08859 0.0
C359 C 0.0349 0.05545 0.09283 0.0
C360 C 0.06911 1.00244 0.05648 0.0
C361 C 0.96102 0.02149 0.01513 0.0
C362 C 0.92108 0.04413 0.02995 0.0
C363 C 0.94444 0.04894 0.04739 0.0
C364 C 0.96429 0.03777 0.04 0.0
C365 C 0.93747 0.01631 0.99771 0.0
C366 C 0.91742 0.02766 0.00516 0.0
C367 C 0.98369 0.01311 0.00686 0.0
H368 H 0.16311 0.02591 0.04591 0.0
H369 H 0.12954 0.04908 0.05099 0.0
H370 H 0.17526 0.09767 0.12237 0.0
H371 H 0.20935 0.07311 0.11824 0.0
H372 H 0.94759 0.06196 0.06638 0.0
H373 H 0.98255 0.0426 0.05338 0.0
H374 H 0.9349 0.00425 0.97822 0.0
H375 H 0.89943 0.02417 0.99141 0.0
Dy376 Dy 0.32452 0.80918 0.27291 0.0
Dy377 Dy 0.27723 0.80615 0.31693 0.0
C378 C 0.30566 0.85718 0.31158 0.0
O379 O 0.34531 0.80103 0.31197 0.0
O380 O 0.31689 0.80884 0.34273 0.0
O381 O 0.35282 0.84124 0.26265 0.0
O382 O 0.34937 0.80141 0.24324 0.0
O383 O 0.29437 0.77252 0.30571 0.0
O384 O 0.30042 0.76939 0.2617 0.0
O385 O 0.25644 0.80951 0.27537 0.0
O386 O 0.28814 0.8122 0.2464 0.0
O387 O 0.24452 0.77723 0.3253 0.0
O388 O 0.25768 0.81483 0.35098 0.0
C389 C 0.33972 0.80422 0.33722 0.0
O390 O 0.31269 0.83915 0.29708 0.0
O391 O 0.28636 0.84932 0.32434 0.0
C392 C 0.35015 0.83397 0.21536 0.0
C393 C 0.33109 0.84234 0.16363 0.0
C394 C 0.32014 0.85071 0.18612 0.0
C395 C 0.32965 0.84665 0.21184 0.0
C396 C 0.36089 0.82532 0.19277 0.0
C397 C 0.3515 0.82965 0.16697 0.0
C398 C 0.35725 0.8264 0.24185 0.0
C399 C 0.2897 0.75922 0.28138 0.0
C400 C 0.26393 0.8118 0.25104 0.0
C401 C 0.24819 0.77848 0.3727 0.0
C402 C 0.26389 0.76204 0.42162 0.0
C403 C 0.27453 0.75522 0.39824 0.0
C404 C 0.26685 0.76351 0.37398 0.0
C405 C 0.23759 0.78543 0.3961 0.0
C406 C 0.24548 0.77726 0.42057 0.0
C407 C 0.2439 0.79087 0.34858 0.0
H408 H 0.30469 0.86095 0.18387 0.0
H409 H 0.32066 0.85313 0.22891 0.0
H410 H 0.37623 0.81497 0.19506 0.0
H411 H 0.36022 0.82329 0.14964 0.0
H412 H 0.28891 0.7436 0.39884 0.0
H413 H 0.27604 0.75882 0.35641 0.0
H414 H 0.2238 0.79769 0.39556 0.0
H415 H 0.23704 0.78251 0.43852 0.0
Dy416 Dy 0.51626 0.04515 0.55585 0.0
Dy417 Dy 0.57587 0.04974 0.53729 0.0
C418 C 0.52781 0.05206 0.49722 0.0
O419 O 0.5186 1.00181 0.54393 0.0
O420 O 0.55972 0.00599 0.5312 0.0
O421 O 0.47531 0.03744 0.54107 0.0
O422 O 0.48849 0.04751 0.58428 0.0
O423 O 0.5697 0.03252 0.57482 0.0
O424 O 0.54391 0.05525 0.59377 0.0
O425 O 0.57401 0.09315 0.54886 0.0
O426 O 0.53395 0.08906 0.56422 0.0
O427 O 0.61684 0.05772 0.55238 0.0
O428 O 0.60356 0.04564 0.50933 0.0
C429 C 0.5371 0.99112 0.53465 0.0
O430 O 0.52003 0.06293 0.51834 0.0
O431 O 0.54829 0.04238 0.49923 0.0
C432 C 0.45319 0.06427 0.56615 0.0
C433 C 0.41928 0.09883 0.56683 0.0
C434 C 0.43566 0.0981 0.54661 0.0
C435 C 0.45244 0.08107 0.54629 0.0
C436 C 0.43774 0.06577 0.58699 0.0
C437 C 0.42107 0.08287 0.58739 0.0
C438 C 0.46916 0.04456 0.56484 0.0
C439 C 0.56499 0.04668 0.59566 0.0
C440 C 0.55634 0.10392 0.55982 0.0
C441 C 0.63723 0.02799 0.5291 0.0
C442 C 0.66609 0.98892 0.52966 0.0
C443 C 0.64793 0.99044 0.54789 0.0
C444 C 0.63363 0.00971 0.54757 0.0
C445 C 0.65465 0.02598 0.51033 0.0
C446 C 0.66886 0.00667 0.51055 0.0
C447 C 0.62275 0.04891 0.529 0.0
H448 H 0.43479 0.10992 0.53035 0.0
H449 H 0.46433 0.08061 0.53008 0.0
H450 H 0.43817 0.0533 0.60271 0.0
H451 H 0.40921 0.08324 0.60363 0.0
H452 H 0.64535 0.97728 0.56299 0.0
H453 H 0.62 0.01052 0.56203 0.0
H454 H 0.65744 0.03953 0.4956 0.0
H455 H 0.68223 0.0058 0.49582 0.0
Dy456 Dy 0.32937 0.2859 0.79534 0.0
Dy457 Dy 0.27753 0.31219 0.79795 0.0
C458 C 0.33234 0.34702 0.78698 0.0
O459 O 0.32458 0.29246 0.8402 0.0
O460 O 0.30302 0.32538 0.83783 0.0
O461 O 0.37053 0.28877 0.80682 0.0
O462 O 0.34773 0.25644 0.77798 0.0
O463 O 0.26756 0.27341 0.81332 0.0
O464 O 0.29524 0.25171 0.79386 0.0
O465 O 0.27541 0.29734 0.75346 0.0
O466 O 0.31554 0.28781 0.75191 0.0
O467 O 0.23609 0.30775 0.78768 0.0
O468 O 0.25882 0.34159 0.81483 0.0
C469 C 0.31643 0.31222 0.85208 0.0
O470 O 0.34359 0.32868 0.79432 0.0
O471 O 0.30682 0.34392 0.78387 0.0
C472 C 0.39027 0.27516 0.76908 0.0
C473 C 0.42704 0.28654 0.73197 0.0
C474 C 0.40722 0.30019 0.73403 0.0
C475 C 0.38912 0.29457 0.75228 0.0
C476 C 0.40965 0.26117 0.76687 0.0
C477 C 0.42779 0.26675 0.74855 0.0
C478 C 0.37112 0.26942 0.78854 0.0
C479 C 0.27377 0.25154 0.80473 0.0
C480 C 0.29313 0.29009 0.73985 0.0
C481 C 0.21492 0.32541 0.82206 0.0
C482 C 0.17263 0.31781 0.8528 0.0
C483 C 0.19174 0.30332 0.85577 0.0
C484 C 0.21263 0.30699 0.84043 0.0
C485 C 0.19645 0.34051 0.81988 0.0
C486 C 0.17557 0.33675 0.83498 0.0
C487 C 0.23552 0.32846 0.80408 0.0
H488 H 0.40556 0.31523 0.72141 0.0
H489 H 0.37419 0.30546 0.75331 0.0
H490 H 0.41091 0.24603 0.77949 0.0
H491 H 0.44279 0.25594 0.74788 0.0
H492 H 0.19 0.28848 0.86916 0.0
H493 H 0.22666 0.29508 0.84246 0.0
H494 H 0.19785 0.35491 0.80598 0.0
H495 H 0.16143 0.34847 0.83242 0.0
Dy496 Dy 0.07117 0.02199 0.54013 0.0
Dy497 Dy 0.04315 0.0722 0.53815 0.0
C498 C 1.01086 0.01574 0.54795 0.0
O499 O 0.06594 0.02819 0.49561 0.0
O500 O 0.03137 0.04717 0.49797 0.0
O501 O 0.07053 0.98126 0.52764 0.0
O502 O 0.10063 0.00453 0.55869 0.0
O503 O 0.08146 0.08415 0.52238 0.0
O504 O 0.10433 0.05694 0.541 0.0
O505 O 0.0631 0.0768 0.58106 0.0
O506 O 0.06616 0.03457 0.5833 0.0
O507 O 0.0445 0.11308 0.54998 0.0
O508 O 1.01376 0.08998 0.51952 0.0
C509 C 0.04614 0.03606 0.48366 0.0
O510 O 0.02848 0.00613 0.5367 0.0
O511 O 1.01355 0.04128 0.55385 0.0
C512 C 0.08501 0.9599 0.56377 0.0
C513 C 0.07627 0.91836 0.59597 0.0
C514 C 0.06363 0.93903 0.59934 0.0
C515 C 0.06798 0.95956 0.58344 0.0
C516 C 0.09802 0.93971 0.56078 0.0
C517 C 0.0938 0.91931 0.57666 0.0
C518 C 0.08956 0.98108 0.54635 0.0
C519 C 0.10368 0.07838 0.53016 0.0
C520 C 0.06784 0.05841 0.59521 0.0
C521 C 0.03219 0.13359 0.51203 0.0
C522 C 0.04335 0.17197 0.47626 0.0
C523 C 0.06326 0.16704 0.49456 0.0
C524 C 0.05779 0.1481 0.51201 0.0
C525 C 1.01229 0.13821 0.49374 0.0
C526 C 1.01777 0.15695 0.47602 0.0
C527 C 0.02612 0.11351 0.53067 0.0
H528 H 0.0499 0.93905 0.61379 0.0
H529 H 0.05788 0.97507 0.58636 0.0
H530 H 0.11147 0.93964 0.54602 0.0
H531 H 0.1044 0.90422 0.57375 0.0
H532 H 0.08314 0.1782 0.49601 0.0
H533 H 0.07372 0.14505 0.52569 0.0
H534 H 0.9924 0.12725 0.49308 0.0
H535 H 1.0018 0.15945 0.46204 0.0
Dy536 Dy 0.30661 0.83291 0.78114 0.0
Dy537 Dy 0.3013 0.76822 0.80547 0.0
C538 C 0.30034 0.81727 0.83919 0.0
O539 O 0.34867 0.8303 0.79826 0.0
O540 O 0.34464 0.78761 0.80974 0.0
O541 O 0.3125 0.87284 0.80024 0.0
O542 O 0.30081 0.86269 0.75659 0.0
O543 O 0.30891 0.79158 0.7746 0.0
O544 O 0.31281 0.81204 0.74123 0.0
O545 O 0.25894 0.77032 0.79112 0.0
O546 O 0.26315 0.80999 0.77238 0.0
O547 O 0.30185 0.73194 0.78183 0.0
O548 O 0.30207 0.73418 0.82581 0.0
C549 C 0.35903 0.81113 0.80701 0.0
O550 O 0.28764 0.81805 0.81561 0.0
O551 O 0.30587 0.79512 0.84386 0.0
C552 C 0.28332 0.89535 0.77866 0.0
C553 C 0.24429 0.92401 0.77921 0.0
C554 C 0.25119 0.91213 0.80184 0.0
C555 C 0.27041 0.89786 0.80154 0.0
C556 C 0.27629 0.90704 0.75601 0.0
C557 C 0.25692 0.92109 0.75621 0.0
C558 C 0.30387 0.88051 0.77771 0.0
C559 C 0.31143 0.78965 0.74942 0.0
C560 C 0.2486 0.78755 0.77829 0.0
C561 C 0.32362 0.70366 0.8043 0.0
C562 C 0.35549 0.66713 0.80089 0.0
C563 C 0.36058 0.68952 0.78769 0.0
C564 C 0.34476 0.70754 0.78928 0.0
C565 C 0.31948 0.68214 0.81865 0.0
C566 C 0.33518 0.66415 0.81701 0.0
C567 C 0.30421 0.72002 0.80325 0.0
H568 H 0.24166 0.91384 0.81979 0.0
H569 H 0.27518 0.8889 0.81925 0.0
H570 H 0.28592 0.90542 0.73811 0.0
H571 H 0.25231 0.93025 0.73859 0.0
H572 H 0.37598 0.69244 0.77506 0.0
H573 H 0.34852 0.724 0.77801 0.0
H574 H 0.30343 0.67867 0.83042 0.0
H575 H 0.33094 0.64744 0.82786 0.0
Dy576 Dy 0.54917 0.07093 0.01518 0.0
Dy577 Dy 0.54945 0.02674 0.06824 0.0
C578 C 0.55859 0.00995 0.00348 0.0
O579 O 0.50628 0.05566 0.00594 0.0
O580 O 0.52192 0.03722 0.0381 0.0
O581 O 0.54675 0.09112 0.98028 0.0
O582 O 0.5785 0.10565 0.01353 0.0
O583 O 0.54161 0.06549 0.08799 0.0
O584 O 0.53646 0.09047 0.0523 0.0
O585 O 0.59286 0.04227 0.07726 0.0
O586 O 0.57312 0.05786 0.04615 0.0
O587 O 0.54639 0.01062 0.10583 0.0
O588 O 0.52538 0.98824 0.06783 0.0
C589 C 0.50138 0.03799 0.02185 0.0
O590 O 0.55475 0.0318 0.99403 0.0
O591 O 0.55968 0.0066 0.02967 0.0
C592 C 0.58721 0.11123 0.96966 0.0
C593 C 0.61726 0.11253 0.92725 0.0
C594 C 0.61751 0.09384 0.94508 0.0
C595 C 0.60253 0.09316 0.96612 0.0
C596 C 0.58785 0.13079 0.95291 0.0
C597 C 0.60285 0.13145 0.93171 0.0
C598 C 0.56882 0.1081 0.98911 0.0
C599 C 0.53636 0.08667 0.07822 0.0
C600 C 0.59533 0.05938 0.06054 0.0
C601 C 0.50425 0.98581 0.10604 0.0
C602 C 0.46364 0.98461 0.13703 0.0
C603 C 0.46793 1.00269 0.11858 0.0
C604 C 0.48816 1.00326 0.10309 0.0
C605 C 0.4984 0.96608 0.12236 0.0
C606 C 0.478 0.9654 0.13778 0.0
C607 C 0.5284 0.99008 0.09421 0.0
H608 H 0.62793 0.07863 0.94175 0.0
H609 H 0.60196 0.0778 0.97883 0.0
H610 H 0.57596 0.14479 0.95554 0.0
H611 H 0.60238 0.14601 0.91818 0.0
H612 H 0.45734 0.01794 0.11819 0.0
H613 H 0.49245 0.01851 0.09034 0.0
H614 H 0.51066 0.95242 0.12462 0.0
H615 H 0.47525 0.95168 0.15236 0.0
Dy616 Dy 0.28645 0.26874 0.2746 0.0
Dy617 Dy 0.31322 0.32481 0.30693 0.0
C618 C 0.30405 0.27525 0.34033 0.0
O619 O 0.25106 0.28643 0.28149 0.0
O620 O 0.27071 0.32096 0.31406 0.0
O621 O 0.25894 0.23143 0.27194 0.0
O622 O 0.2809 0.23989 0.23899 0.0
O623 O 0.29733 0.33325 0.26572 0.0
O624 O 0.29512 0.29364 0.2417 0.0
O625 O 0.34704 0.31169 0.28859 0.0
O626 O 0.32997 0.26791 0.27692 0.0
O627 O 0.34371 0.36016 0.31078 0.0
O628 O 0.31585 0.35643 0.33917 0.0
C629 C 0.24911 0.30532 0.30055 0.0
O630 O 0.29177 0.26073 0.31771 0.0
O631 O 0.31618 0.29984 0.34054 0.0
C632 C 0.27945 0.2 0.25451 0.0
C633 C 0.30813 0.16218 0.26041 0.0
C634 C 0.31444 0.18546 0.2785 0.0
C635 C 0.30016 0.20413 0.27564 0.0
C636 C 0.27264 0.17649 0.23663 0.0
C637 C 0.28685 0.15743 0.23976 0.0
C638 C 0.26726 0.2217 0.25052 0.0
C639 C 0.29645 0.3187 0.24238 0.0
C640 C 0.3502 0.28824 0.27949 0.0
C641 C 0.32444 0.39541 0.32066 0.0
C642 C 0.29605 0.43089 0.30413 0.0
C643 C 0.30483 0.41511 0.28476 0.0
C644 C 0.31895 0.39749 0.29293 0.0
C645 C 0.31676 0.41227 0.34011 0.0
C646 C 0.30254 0.42995 0.33186 0.0
C647 C 0.33299 0.37247 0.32863 0.0
H648 H 0.33061 0.1893 0.29474 0.0
H649 H 0.30575 0.22214 0.28963 0.0
H650 H 0.25684 0.17316 0.2201 0.0
H651 H 0.28178 0.13942 0.22571 0.0
H652 H 0.29979 0.41563 0.26328 0.0
H653 H 0.32428 0.38454 0.27739 0.0
H654 H 0.32043 0.41069 0.36152 0.0
H655 H 0.29575 0.44211 0.34698 0.0
Dy656 Dy 0.56858 0.52451 0.04055 0.0
Dy657 Dy 0.54144 0.57609 0.04267 0.0
C658 C 0.50889 0.5188 0.04826 0.0
O659 O 0.55836 0.52729 0.99549 0.0
O660 O 0.53006 0.55404 1.00131 0.0
O661 O 0.56436 0.48275 0.03057 0.0
O662 O 0.59844 0.50592 0.05662 0.0
O663 O 0.58011 0.58965 0.02835 0.0
O664 O 0.60192 0.55734 0.03545 0.0
O665 O 0.56239 0.5797 0.08453 0.0
O666 O 0.5654 0.53719 0.08456 0.0
O667 O 0.5429 0.61689 0.05529 0.0
O668 O 0.51099 0.59373 0.02623 0.0
C669 C 0.53971 0.53813 0.98571 0.0
O670 O 0.52568 0.51093 0.03417 0.0
O671 O 0.51236 0.54387 0.05768 0.0
C672 C 0.58143 0.46299 0.06695 0.0
C673 C 0.57558 0.42559 0.10426 0.0
C674 C 0.55618 0.43926 0.09842 0.0
C675 C 0.55919 0.45788 0.08023 0.0
C676 C 0.60076 0.4494 0.07272 0.0
C677 C 0.59795 0.43107 0.09116 0.0
C678 C 0.58483 0.48235 0.04722 0.0
C679 C 0.6015 0.581 0.02984 0.0
C680 C 0.56761 0.56082 0.09745 0.0
C681 C 0.52904 0.6369 0.01775 0.0
C682 C 0.53912 0.67404 0.98056 0.0
C683 C 0.55926 0.66413 0.99304 0.0
C684 C 0.55424 0.64575 0.01115 0.0
C685 C 0.50881 0.64636 0.00518 0.0
C686 C 0.51371 0.66452 0.98676 0.0
C687 C 0.52369 0.61728 0.03691 0.0
H688 H 0.53884 0.43591 0.1083 0.0
H689 H 0.54418 0.4684 0.07667 0.0
H690 H 0.61814 0.45294 0.0629 0.0
H691 H 0.61324 0.42088 0.09486 0.0
H692 H 0.57915 0.67093 0.98939 0.0
H693 H 0.57023 0.63862 0.02017 0.0
H694 H 0.48912 0.63964 0.00955 0.0
H695 H 0.49738 0.6709 0.97731 0.0
Dy696 Dy 0.8059 0.33 0.28169 0.0
Dy697 Dy 0.80291 0.26924 0.29524 0.0
C698 C 0.7973 0.3138 0.33858 0.0
O699 O 0.84899 0.32995 0.29718 0.0
O700 O 0.84489 0.28864 0.30971 0.0
O701 O 0.81322 0.37106 0.29692 0.0
O702 O 0.80291 0.35787 0.25363 0.0
O703 O 0.82703 0.28093 0.26342 0.0
O704 O 0.80171 0.30344 0.24314 0.0
O705 O 0.7605 0.27001 0.2792 0.0
O706 O 0.76201 0.31336 0.27498 0.0
O707 O 0.79809 0.22994 0.27522 0.0
O708 O 0.80496 0.23781 0.31923 0.0
C709 C 0.8594 0.31203 0.30814 0.0
O710 O 0.78692 0.32271 0.31797 0.0
O711 O 0.80617 0.29277 0.33553 0.0
C712 C 0.78602 0.39283 0.27193 0.0
C713 C 0.75046 0.42547 0.27037 0.0
C714 C 0.7511 0.40898 0.29052 0.0
C715 C 0.76867 0.39278 0.29127 0.0
C716 C 0.78457 0.40833 0.25114 0.0
C717 C 0.76693 0.42433 0.25026 0.0
C718 C 0.80588 0.3772 0.2732 0.0
C719 C 0.81587 0.28639 0.24128 0.0
C720 C 0.74856 0.28892 0.27377 0.0
C721 C 0.82571 0.20696 0.29795 0.0
C722 C 0.86487 0.17815 0.29777 0.0
C723 C 0.86132 0.1939 0.27744 0.0
C724 C 0.84202 0.20812 0.27752 0.0
C725 C 0.82965 0.19181 0.31863 0.0
C726 C 0.84899 0.17762 0.31858 0.0
C727 C 0.80448 0.22114 0.29776 0.0
H728 H 0.73884 0.40938 0.30639 0.0
H729 H 0.76908 0.38069 0.30734 0.0
H730 H 0.79745 0.40841 0.23579 0.0
H731 H 0.7666 0.43627 0.23406 0.0
H732 H 0.87294 0.19463 0.26094 0.0
H733 H 0.83967 0.21974 0.26132 0.0
H734 H 0.81756 0.19072 0.33474 0.0
H735 H 0.85139 0.16608 0.33482 0.0
Dy736 Dy 0.04576 0.56604 0.51611 0.0
Dy737 Dy 0.05023 0.53153 0.56455 0.0
C738 C 0.06014 0.50974 0.50418 0.0
O739 O 1.00471 0.55194 0.52278 0.0
O740 O 1.01203 0.51562 0.53927 0.0
O741 O 0.03259 0.57242 0.47558 0.0
O742 O 0.05606 0.60459 0.5047 0.0
O743 O 0.03407 0.56489 0.58346 0.0
O744 O 0.04782 0.59355 0.55433 0.0
O745 O 0.09006 0.55679 0.56813 0.0
O746 O 0.08777 0.56635 0.52454 0.0
O747 O 0.06087 0.52552 0.60583 0.0
O748 O 0.04004 0.49277 0.57592 0.0
C749 C 0.99611 0.52837 0.52848 0.0
O750 O 0.04736 0.52623 0.49443 0.0
O751 O 0.06758 0.51201 0.53064 0.0
C752 C 0.06635 0.60185 0.46116 0.0
C753 C 0.10546 0.61228 0.42808 0.0
C754 C 0.10281 0.59052 0.44212 0.0
C755 C 0.08344 0.58538 0.45853 0.0
C756 C 0.06957 0.6243 0.44834 0.0
C757 C 0.08905 0.62948 0.43174 0.0
C758 C 0.04688 0.59635 0.47931 0.0
C759 C 0.0387 0.58889 0.57712 0.0
C760 C 0.10122 0.5659 0.54797 0.0
C761 C 0.02685 0.49462 0.61891 0.0
C762 C 0.98752 0.48169 0.65181 0.0
C763 C 0.99543 0.50739 0.64592 0.0
C764 C 1.01474 0.51374 0.62948 0.0
C765 C 0.01824 0.46872 0.6236 0.0
C766 C 0.99865 0.46226 0.63986 0.0
C767 C 0.04723 0.50135 0.60161 0.0
H768 H 0.11473 0.57658 0.43927 0.0
H769 H 0.0815 0.56824 0.46882 0.0
H770 H 0.05689 0.63754 0.45089 0.0
H771 H 0.09077 0.64638 0.4211 0.0
H772 H 0.98767 0.523 0.65503 0.0
H773 H 0.02055 0.53376 0.62553 0.0
H774 H 0.02685 0.45356 0.61491 0.0
H775 H 0.9927 0.4422 0.64364 0.0
Dy776 Dy 0.83043 0.78728 0.2941 0.0
Dy777 Dy 0.77775 0.81093 0.29554 0.0
C778 C 0.83253 0.84605 0.28635 0.0
O779 O 0.83427 0.81033 0.33596 0.0
O780 O 0.79094 0.80642 0.3387 0.0
O781 O 0.87241 0.79431 0.3018 0.0
O782 O 0.84991 0.75718 0.28038 0.0
O783 O 0.76456 0.76818 0.2966 0.0
O784 O 0.80254 0.75754 0.31297 0.0
O785 O 0.78274 0.80365 0.25067 0.0
O786 O 0.80467 0.77134 0.25482 0.0
O787 O 0.73699 0.8088 0.28281 0.0
O788 O 0.7591 0.8398 0.31368 0.0
C789 C 0.81527 0.81247 0.35033 0.0
O790 O 0.83739 0.82432 0.27529 0.0
O791 O 0.81203 0.84528 0.29898 0.0
C792 C 0.89157 0.7738 0.26695 0.0
C793 C 0.93001 0.77687 0.23104 0.0
C794 C 0.91747 0.79741 0.23586 0.0
C795 C 0.89853 0.79593 0.25363 0.0
C796 C 0.90325 0.7529 0.26127 0.0
C797 C 0.92214 0.75438 0.24361 0.0
C798 C 0.87311 0.77242 0.28751 0.0
C799 C 0.77681 0.75239 0.30805 0.0
C800 C 0.79116 0.78369 0.23969 0.0
C801 C 0.7155 0.82143 0.31966 0.0
C802 C 0.67613 0.80986 0.35374 0.0
C803 C 0.68992 0.79118 0.34553 0.0
C804 C 0.7094 0.79693 0.32882 0.0
C805 C 0.70214 0.8403 0.32819 0.0
C806 C 0.68274 0.83463 0.34511 0.0
C807 C 0.73596 0.82749 0.30168 0.0
H808 H 0.92302 0.81508 0.22673 0.0
H809 H 0.88976 0.81234 0.25742 0.0
H810 H 0.89814 0.73553 0.27098 0.0
H811 H 0.93092 0.73794 0.2401 0.0
H812 H 0.68558 0.77201 0.35198 0.0
H813 H 0.71955 0.78211 0.32281 0.0
H814 H 0.70655 0.85939 0.32156 0.0
H815 H 0.6724 0.84939 0.35081 0.0
Dy816 Dy 0.82436 0.30396 0.7672 0.0
Dy817 Dy 0.78796 0.3109 0.81334 0.0
C818 C 0.82568 0.35939 0.80006 0.0
O819 O 0.84513 0.29044 0.80272 0.0
O820 O 0.82754 0.31029 0.83676 0.0
O821 O 0.86083 0.31577 0.75154 0.0
O822 O 0.83044 0.28409 0.72919 0.0
O823 O 0.79023 0.26946 0.80823 0.0
O824 O 0.79402 0.26728 0.76342 0.0
O825 O 0.76099 0.30725 0.7735 0.0
O826 O 0.79217 0.31989 0.74647 0.0
O827 O 0.75103 0.29958 0.82786 0.0
O828 O 0.78199 0.33025 0.85159 0.0
C829 C 0.84585 0.29895 0.8287 0.0
O830 O 0.83927 0.34351 0.79071 0.0
O831 O 0.80138 0.35062 0.80285 0.0
C832 C 0.84852 0.31726 0.70584 0.0
C833 C 0.83089 0.34151 0.6634 0.0
C834 C 0.83039 0.35184 0.69012 0.0
C835 C 0.83924 0.33988 0.71121 0.0
C836 C 0.84972 0.30725 0.67901 0.0
C837 C 0.84103 0.31954 0.6577 0.0
C838 C 0.8513 0.30198 0.72796 0.0
C839 C 0.78726 0.25603 0.78421 0.0
C840 C 0.76744 0.31479 0.75032 0.0
C841 C 0.75802 0.29974 0.87506 0.0
C842 C 0.76349 0.27408 0.92072 0.0
C843 C 0.75955 0.26018 0.89444 0.0
C844 C 0.75714 0.27291 0.87187 0.0
C845 C 0.76071 0.31352 0.90121 0.0
C846 C 0.76347 0.30077 0.92397 0.0
C847 C 0.75969 0.31382 0.85148 0.0
H848 H 0.82257 0.36882 0.69462 0.0
H849 H 0.83757 0.34764 0.73174 0.0
H850 H 0.85627 0.28948 0.67458 0.0
H851 H 0.84152 0.3116 0.63691 0.0
H852 H 0.75875 0.23944 0.89123 0.0
H853 H 0.75539 0.2618 0.85195 0.0
H854 H 0.76173 0.33432 0.904 0.0
H855 H 0.76651 0.31196 0.944 0.0
Dy856 Dy 0.78669 0.76915 0.77829 0.0
Dy857 Dy 0.81527 0.82539 0.80832 0.0
C858 C 0.80556 0.77787 0.84405 0.0
O859 O 0.75114 0.78435 0.78797 0.0
O860 O 0.7718 0.82398 0.81237 0.0
O861 O 0.76173 0.73082 0.77744 0.0
O862 O 0.78 0.74069 0.74233 0.0
O863 O 0.81112 0.83142 0.76382 0.0
O864 O 0.78129 0.79382 0.74553 0.0
O865 O 0.8507 0.8091 0.80051 0.0
O866 O 0.8301 0.77093 0.77341 0.0
O867 O 0.84525 0.86106 0.8125 0.0
O868 O 0.81673 0.85686 0.84027 0.0
C869 C 0.74986 0.80607 0.80312 0.0
O870 O 0.79104 0.76294 0.82261 0.0
O871 O 0.81944 0.80123 0.84197 0.0
C872 C 0.77982 0.69992 0.75494 0.0
C873 C 0.80525 0.65934 0.75592 0.0
C874 C 0.81395 0.68177 0.77512 0.0
C875 C 0.80137 0.70202 0.77458 0.0
C876 C 0.7712 0.6776 0.7355 0.0
C877 C 0.78394 0.65722 0.73602 0.0
C878 C 0.76778 0.722 0.75428 0.0
C879 C 0.79589 0.81659 0.74276 0.0
C880 C 0.85209 0.78815 0.78414 0.0
C881 C 0.82627 0.89614 0.82277 0.0
C882 C 0.80212 0.93525 0.80779 0.0
C883 C 0.80639 0.91654 0.78787 0.0
C884 C 0.81834 0.89715 0.79528 0.0
C885 C 0.82258 0.91517 0.84275 0.0
C886 C 0.81064 0.93477 0.83528 0.0
C887 C 0.83435 0.87303 0.83043 0.0
H888 H 0.83042 0.68353 0.79058 0.0
H889 H 0.80848 0.71937 0.78946 0.0
H890 H 0.7548 0.676 0.72003 0.0
H891 H 0.77714 0.63985 0.72115 0.0
H892 H 0.80029 0.91677 0.76654 0.0
H893 H 0.8206 0.88249 0.77947 0.0
H894 H 0.82807 0.9143 0.86407 0.0
H895 H 0.80735 0.94903 0.85094 0.0
Dy896 Dy 0.58188 0.5655 0.55925 0.0
Dy897 Dy 0.52762 0.53678 0.52529 0.0
C898 C 0.57795 0.54789 0.49378 0.0
O899 O 0.56195 0.59964 0.55355 0.0
O900 O 0.53037 0.57978 0.51833 0.0
O901 O 0.61835 0.59447 0.56337 0.0
O902 O 0.60888 0.57282 0.59638 0.0
O903 O 0.51766 0.55196 0.56605 0.0
O904 O 0.55648 0.55306 0.59037 0.0
O905 O 0.54232 0.50233 0.54165 0.0
O906 O 0.58475 0.52241 0.55739 0.0
O907 O 0.49314 0.50527 0.52058 0.0
O908 O 0.49715 0.53279 0.4917 0.0
C909 C 0.54416 0.6016 0.53352 0.0
O910 O 0.59179 0.56031 0.5167 0.0
O911 O 0.55348 0.53552 0.4927 0.0
C912 C 0.64936 0.57478 0.58286 0.0
C913 C 0.68708 0.54593 0.57892 0.0
C914 C 0.66496 0.54017 0.55948 0.0
C915 C 0.64637 0.55452 0.56137 0.0
C916 C 0.67162 0.58089 0.60235 0.0
C917 C 0.69073 0.5666 0.60018 0.0
C918 C 0.62737 0.5867 0.58548 0.0
C919 C 0.53163 0.55196 0.58938 0.0
C920 C 0.56573 0.5008 0.55274 0.0
C921 C 0.45718 0.52209 0.50754 0.0
C922 C 0.41753 0.54664 0.51956 0.0
C923 C 0.43483 0.54199 0.54056 0.0
C924 C 0.45443 0.52978 0.53463 0.0
C925 C 0.43918 0.52566 0.48648 0.0
C926 C 0.41926 0.53776 0.49248 0.0
C927 C 0.48121 0.51496 0.50153 0.0
H928 H 0.66208 0.52452 0.54272 0.0
H929 H 0.62931 0.54936 0.54622 0.0
H930 H 0.67398 0.59626 0.61925 0.0
H931 H 0.70796 0.57129 0.61517 0.0
H932 H 0.43355 0.54838 0.5616 0.0
H933 H 0.4681 0.52744 0.5513 0.0
H934 H 0.44128 0.52022 0.46547 0.0
H935 H 0.40599 0.54123 0.47604 0.0
Dy936 Dy 0.01866 0.54629 0.06149 0.0
Dy937 Dy 0.07397 0.54719 0.03475 0.0
C938 C 0.02313 0.55346 0.99964 0.0
O939 O 1.01668 0.50272 0.04708 0.0
O940 O 0.05426 0.50371 0.02743 0.0
O941 O 0.9766 0.535 0.05572 0.0
O942 O 0.99717 0.55737 0.09364 0.0
O943 O 0.07258 0.52632 0.0706 0.0
O944 O 0.05047 0.54977 0.09544 0.0
O945 O 0.0754 0.59137 0.04886 0.0
O946 O 0.03588 0.58942 0.06438 0.0
O947 O 0.11578 0.55743 0.04521 0.0
O948 O 0.0985 0.53841 0.0047 0.0
C949 C 0.03215 0.49046 0.03406 0.0
O950 O 1.01486 0.56073 0.02214 0.0
O951 O 0.04506 0.54621 0.9988 0.0
C952 C 0.95914 0.56966 0.07483 0.0
C953 C 0.92922 0.60772 0.06943 0.0
C954 C 0.93552 0.59394 0.0464 0.0
C955 C 0.95041 0.57534 0.04904 0.0
C956 C 0.95308 0.58363 0.09787 0.0
C957 C 0.93845 0.60252 0.09522 0.0
C958 C 0.9749 0.54976 0.07783 0.0
C959 C 0.06859 0.53682 0.09389 0.0
C960 C 0.05829 0.6033 0.05945 0.0
C961 C 0.13499 0.52485 0.02515 0.0
C962 C 0.16539 0.48729 0.03046 0.0
C963 C 0.14956 0.49242 0.05019 0.0
C964 C 0.13458 0.51095 0.04759 0.0
C965 C 0.15033 0.5194 0.00515 0.0
C966 C 0.1654 0.50091 0.00779 0.0
C967 C 0.11951 0.5449 0.02253 0.0
H968 H 0.929 0.59767 0.02625 0.0
H969 H 0.95499 0.56536 0.03078 0.0
H970 H 0.9596 0.57985 0.11799 0.0
H971 H 0.93383 0.61266 0.11337 0.0
H972 H 0.14925 0.48257 0.06805 0.0
H973 H 0.12285 0.51457 0.06333 0.0
H974 H 0.15081 0.52959 0.98753 0.0
H975 H 0.17708 0.49725 0.99203 0.0
H976 H 0.99326 0.20168 0.02523 0.0
H977 H 0.04837 0.21825 0.96875 0.0
H978 H 0.06346 0.17891 0.97704 0.0
H979 H 0.06205 0.13885 1.00105 0.0
H980 H 1.0043 0.12064 0.05441 0.0
H981 H 0.99004 0.16056 0.04695 0.0
C982 C 1.00855 0.19686 0.0145 0.0
C983 C 0.01942 0.21403 0.99615 0.0
C984 C 1.01709 0.17335 0.0191 0.0
C985 C 0.03922 0.20629 0.98286 0.0
C986 C 0.04804 0.18346 0.98774 0.0
C987 C 0.04633 0.14348 0.01116 0.0
C988 C 0.03466 0.12593 0.02878 0.0
C989 C 0.03735 0.16669 0.00595 0.0
C990 C 1.01398 0.13299 0.04092 0.0
C991 C 1.00571 0.15617 0.03658 0.0
H992 H 0.19683 0.82276 0.13962 0.0
H993 H 0.13701 0.82098 0.19147 0.0
H994 H 0.16755 0.81699 0.23009 0.0
H995 H 0.21164 0.8137 0.24994 0.0
H996 H 0.2712 0.81515 0.19775 0.0
H997 H 0.24082 0.81956 0.15939 0.0
C998 C 0.19039 0.82172 0.15937 0.0
C999 C 0.16423 0.82246 0.16215 0.0
C1000 C 0.20827 0.81927 0.18187 0.0
C1001 C 0.15675 0.82075 0.18823 0.0
C1002 C 0.17434 0.81835 0.21054 0.0
C1003 C 0.2181 0.81499 0.23023 0.0
C1004 C 0.24423 0.81418 0.22736 0.0
C1005 C 0.20022 0.81753 0.20773 0.0
C1006 C 0.25163 0.81584 0.20121 0.0
C1007 C 0.23408 0.81835 0.17899 0.0
H1008 H 0.55308 0.87347 0.51263 0.0
H1009 H 0.47264 0.85644 0.4778 0.0
H1010 H 0.47132 0.90206 0.49157 0.0
H1011 H 0.4938 0.94868 0.51188 0.0
H1012 H 0.57499 0.96508 0.54475 0.0
H1013 H 0.57493 0.91909 0.53404 0.0
C1014 C 0.53503 0.87949 0.50859 0.0
C1015 C 0.5127 0.86065 0.49473 0.0
C1016 C 0.53454 0.90636 0.51624 0.0
C1017 C 0.48996 0.86977 0.48901 0.0
C1018 C 0.48928 0.8962 0.49677 0.0
C1019 C 0.51142 0.94224 0.5171 0.0
C1020 C 0.53444 0.96125 0.52947 0.0
C1021 C 0.51151 0.915 0.51024 0.0
C1022 C 0.55692 0.95168 0.53532 0.0
C1023 C 0.55696 0.92502 0.52912 0.0
H1024 H 0.51521 0.33605 0.6633 0.0
H1025 H 0.51715 0.25529 0.64486 0.0
H1026 H 0.48092 0.24221 0.67076 0.0
H1027 H 0.4502 0.25406 0.70097 0.0
H1028 H 0.45004 0.33538 0.72112 0.0
H1029 H 0.48354 0.34775 0.69231 0.0
C1030 C 0.50727 0.31556 0.66452 0.0
C1031 C 0.51848 0.29659 0.65175 0.0
C1032 C 0.48683 0.30828 0.68009 0.0
C1033 C 0.50853 0.27018 0.65411 0.0
C1034 C 0.48794 0.26274 0.66912 0.0
C1035 C 0.4575 0.27451 0.69918 0.0
C1036 C 0.44728 0.29366 0.71341 0.0
C1037 C 0.4772 0.28166 0.68265 0.0
C1038 C 0.45699 0.32003 0.71028 0.0
C1039 C 0.47638 0.32722 0.69385 0.0
H1040 H 0.05399 0.80955 0.6422 0.0
H1041 H 0.04855 0.85875 0.71489 0.0
H1042 H 0.05809 0.89737 0.69142 0.0
H1043 H 0.06756 0.91727 0.64965 0.0
H1044 H 0.07172 0.86688 0.57709 0.0
H1045 H 0.06336 0.82906 0.6011 0.0
C1046 C 0.05501 0.82872 0.65304 0.0
C1047 C 0.05056 0.83109 0.6804 0.0
C1048 C 0.06032 0.85083 0.63934 0.0
C1049 C 0.05193 0.85621 0.69392 0.0
C1050 C 0.05733 0.87836 0.68043 0.0
C1051 C 0.06649 0.89802 0.63901 0.0
C1052 C 0.07061 0.89529 0.61144 0.0
C1053 C 0.06141 0.87593 0.65302 0.0
C1054 C 0.06926 0.86999 0.59831 0.0
C1055 C 0.06427 0.84815 0.61202 0.0
H1056 H 0.47764 0.80196 0.83744 0.0
H1057 H 0.4904 0.8851 0.85933 0.0
H1058 H 0.44492 0.88288 0.84271 0.0
H1059 H 0.39949 0.85689 0.8248 0.0
H1060 H 0.38681 0.77346 0.80383 0.0
H1061 H 0.43302 0.77643 0.81633 0.0
C1062 C 0.47084 0.81978 0.83755 0.0
C1063 C 0.48847 0.84394 0.84885 0.0
C1064 C 0.44389 0.8183 0.82834 0.0
C1065 C 0.47814 0.86636 0.84991 0.0
C1066 C 0.45173 0.86505 0.84068 0.0
C1067 C 0.40676 0.83934 0.82263 0.0
C1068 C 0.38876 0.81485 0.81338 0.0
C1069 C 0.43407 0.84107 0.83026 0.0
C1070 C 0.3994 0.79261 0.81113 0.0
C1071 C 0.42621 0.79426 0.81827 0.0
H1072 H 0.50239 0.18777 0.12811 0.0
H1073 H 0.5547 0.18225 0.1978 0.0
H1074 H 0.56009 0.14033 0.17572 0.0
H1075 H 0.55383 0.10726 0.1335 0.0
H1076 H 0.50175 0.11492 0.06411 0.0
H1077 H 0.49229 0.15299 0.08896 0.0
C1078 C 0.51403 0.17683 0.13907 0.0
C1079 C 0.52727 0.18806 0.16524 0.0
C1080 C 0.51761 0.15298 0.1258 0.0
C1081 C 0.54326 0.17387 0.17831 0.0
C1082 C 0.54678 0.14998 0.16532 0.0
C1083 C 0.54002 0.11692 0.124 0.0
C1084 C 0.52876 0.10788 0.0965 0.0
C1085 C 0.53464 0.13957 0.13862 0.0
C1086 C 0.5111 0.12122 0.08486 0.0
C1087 C 0.50555 0.14317 0.09917 0.0
H1088 H 0.12828 0.30988 0.31112 0.0
H1089 H 0.16546 0.35762 0.38655 0.0
H1090 H 0.20778 0.35245 0.37588 0.0
H1091 H 0.23594 0.33455 0.34549 0.0
H1092 H 0.19964 0.28488 0.27103 0.0
H1093 H 0.1569 0.29065 0.28084 0.0
C1094 C 0.14554 0.31929 0.32531 0.0
C1095 C 0.14264 0.33449 0.34995 0.0
C1096 C 0.17078 0.31587 0.31913 0.0
C1097 C 0.16607 0.34593 0.36757 0.0
C1098 C 0.19074 0.34296 0.3614 0.0
C1099 C 0.21881 0.32492 0.33118 0.0
C1100 C 0.22204 0.30925 0.30713 0.0
C1101 C 0.19361 0.32801 0.33728 0.0
C1102 C 0.19873 0.29706 0.28958 0.0
C1103 C 0.17388 0.30042 0.29528 0.0
H1104 H 1.00399 0.06908 0.21294 0.0
H1105 H 0.98319 0.98501 0.19562 0.0
H1106 H 0.99378 0.98718 0.14953 0.0
H1107 H 1.01157 0.01255 0.11467 0.0
H1108 H 0.03565 0.09653 0.13213 0.0
H1109 H 0.02106 0.0949 0.17693 0.0
C1110 C 1.00117 0.05132 0.19882 0.0
C1111 C 0.99216 0.02686 0.20769 0.0
C1112 C 1.0082 0.05269 0.17223 0.0
C1113 C 0.98953 0.00405 0.18928 0.0
C1114 C 0.99579 0.00528 0.16289 0.0
C1115 C 1.01341 0.03057 0.12811 0.0
C1116 C 0.02475 0.05467 0.11976 0.0
C1117 C 1.00553 0.02943 0.1542 0.0
C1118 C 0.02718 0.07769 0.13786 0.0
C1119 C 0.01877 0.07675 0.16357 0.0
H1120 H 0.30248 0.73022 0.53332 0.0
H1121 H 0.2732 0.65354 0.48679 0.0
H1122 H 0.25955 0.67307 0.44748 0.0
H1123 H 0.25682 0.71163 0.42618 0.0
H1124 H 0.28608 0.78854 0.47162 0.0
H1125 H 0.29906 0.76927 0.51191 0.0
C1126 C 0.29311 0.71787 0.51453 0.0
C1127 C 0.28901 0.69059 0.51268 0.0
C1128 C 0.28544 0.72922 0.49204 0.0
C1129 C 0.27684 0.67464 0.48842 0.0
C1130 C 0.26895 0.68574 0.46604 0.0
C1131 C 0.26601 0.72407 0.44499 0.0
C1132 C 0.27063 0.75122 0.44631 0.0
C1133 C 0.27333 0.71293 0.46762 0.0
C1134 C 0.2823 0.76747 0.47056 0.0
C1135 C 0.28976 0.75649 0.49338 0.0
H1136 H 0.64283 0.10647 0.69599 0.0
H1137 H 0.67637 0.04044 0.67895 0.0
H1138 H 0.6493 0.02848 0.63466 0.0
H1139 H 0.60829 0.02981 0.60798 0.0
H1140 H 0.57058 0.09196 0.62949 0.0
H1141 H 0.60634 0.11188 0.66563 0.0
C1142 C 0.6446 0.08979 0.68226 0.0
C1143 C 0.66028 0.07345 0.69103 0.0
C1144 C 0.62731 0.08164 0.6584 0.0
C1145 C 0.66373 0.05281 0.67279 0.0
C1146 C 0.64795 0.04572 0.64773 0.0
C1147 C 0.60802 0.04778 0.62053 0.0
C1148 C 0.5865 0.05887 0.61704 0.0
C1149 C 0.62822 0.0587 0.64156 0.0
C1150 C 0.58652 0.08252 0.63273 0.0
C1151 C 0.6071 0.09411 0.65304 0.0
H1152 H 0.32406 0.33078 0.98171 0.0
H1153 H 0.3234 0.40867 0.96421 0.0
H1154 H 0.32354 0.3949 0.91635 0.0
H1155 H 0.32126 0.36078 0.87862 0.0
H1156 H 0.32264 0.28264 0.89386 0.0
H1157 H 0.3251 0.29641 0.94294 0.0
C1158 C 0.32416 0.34476 0.96745 0.0
C1159 C 0.32345 0.37084 0.97694 0.0
C1160 C 0.3243 0.33664 0.93932 0.0
C1161 C 0.32372 0.38853 0.95788 0.0
C1162 C 0.32381 0.38066 0.9303 0.0
C1163 C 0.32232 0.34668 0.89262 0.0
C1164 C 0.32161 0.32059 0.8823 0.0
C1165 C 0.32369 0.35476 0.9207 0.0
C1166 C 0.3233 0.30285 0.90102 0.0
C1167 C 0.32452 0.31075 0.92917 0.0
H1168 H 1.01291 0.06445 0.36783 0.0
H1169 H 0.98501 0.98094 0.34938 0.0
H1170 H 1.00445 0.97572 0.39471 0.0
H1171 H 0.02666 0.99546 0.44144 0.0
H1172 H 0.05323 0.07924 0.45942 0.0
H1173 H 0.0375 0.08383 0.41293 0.0
C1174 C 1.01147 0.0451 0.37364 0.0
C1175 C 0.9977 0.02309 0.3552 0.0
C1176 C 0.02257 0.04232 0.39987 0.0
C1177 C 0.99566 0.99816 0.36314 0.0
C1178 C 1.00675 0.99521 0.38912 0.0
C1179 C 0.02975 0.0146 0.43485 0.0
C1180 C 0.04179 0.03697 0.45381 0.0
C1181 C 0.02001 0.01717 0.40791 0.0
C1182 C 0.04467 0.0617 0.44514 0.0
C1183 C 0.03541 0.06437 0.41856 0.0
H1184 H 0.27304 0.68976 0.66575 0.0
H1185 H 0.35178 0.71289 0.64875 0.0
H1186 H 0.36324 0.74469 0.69006 0.0
H1187 H 0.34738 0.77303 0.72344 0.0
H1188 H 0.26769 0.7515 0.73819 0.0
H1189 H 0.25971 0.71186 0.70536 0.0
C1190 C 0.29299 0.70083 0.67205 0.0
C1191 C 0.31156 0.69951 0.65461 0.0
C1192 C 0.29885 0.72 0.69472 0.0
C1193 C 0.33736 0.71376 0.66233 0.0
C1194 C 0.34373 0.73226 0.68556 0.0
C1195 C 0.32847 0.75933 0.71956 0.0
C1196 C 0.30787 0.76503 0.73215 0.0
C1197 C 0.3241 0.73683 0.70064 0.0
C1198 C 0.28352 0.74732 0.72795 0.0
C1199 C 0.27904 0.72471 0.70942 0.0
H1200 H 0.63607 0.07298 0.81172 0.0
H1201 H 0.70591 0.06205 0.85676 0.0
H1202 H 0.69495 0.08326 0.89838 0.0
H1203 H 0.66439 0.10289 0.9219 0.0
H1204 H 0.59506 0.11397 0.8761 0.0
H1205 H 0.60827 0.09669 0.83408 0.0
C1206 C 0.64913 0.07546 0.8305 0.0
C1207 C 0.67172 0.06592 0.83122 0.0
C1208 C 0.64322 0.08839 0.85394 0.0
C1209 C 0.68822 0.06901 0.85583 0.0
C1210 C 0.68215 0.08138 0.8795 0.0
C1211 C 0.65245 0.10187 0.90262 0.0
C1212 C 0.62869 0.10927 0.90202 0.0
C1213 C 0.65961 0.09098 0.87876 0.0
C1214 C 0.61353 0.10847 0.877 0.0
C1215 C 0.62082 0.09817 0.85306 0.0
H1216 H 0.30392 0.38215 0.13968 0.0
H1217 H 0.32932 0.31394 0.10862 0.0
H1218 H 0.32307 0.29579 0.15022 0.0
H1219 H 0.31116 0.29835 0.19589 0.0
H1220 H 0.28716 0.36603 0.22988 0.0
H1221 H 0.29181 0.38474 0.18727 0.0
C1222 C 0.30791 0.36326 0.14192 0.0
C1223 C 0.31718 0.34971 0.12038 0.0
C1224 C 0.30446 0.35254 0.16671 0.0
C1225 C 0.32232 0.32523 0.1243 0.0
C1226 C 0.3187 0.3146 0.14833 0.0
C1227 C 0.30669 0.31714 0.19408 0.0
C1228 C 0.29855 0.33051 0.21631 0.0
C1229 C 0.30987 0.32799 0.1697 0.0
C1230 C 0.29341 0.35511 0.21331 0.0
C1231 C 0.29608 0.36586 0.18881 0.0
H1232 H 0.28339 0.00667 0.04614 0.0
H1233 H 0.22263 0.93638 0.02047 0.0
H1234 H 0.19201 0.95656 0.04289 0.0
H1235 H 0.18179 0.99527 0.06621 0.0
H1236 H 0.24151 0.06687 0.08796 0.0
H1237 H 0.27369 0.04459 0.07188 0.0
C1238 C 0.26349 0.99569 0.04561 0.0
C1239 C 0.25515 0.97022 0.0314 0.0
C1240 C 0.24596 0.00754 0.05812 0.0
C1241 C 0.22942 0.95612 0.03108 0.0
C1242 C 0.21194 0.96761 0.04394 0.0
C1243 C 0.20188 0.00601 0.06751 0.0
C1244 C 0.20915 0.03283 0.07777 0.0
C1245 C 0.21989 0.99349 0.05697 0.0
C1246 C 0.2354 0.04623 0.0802 0.0
C1247 C 0.25373 0.03359 0.07068 0.0
H1248 H 0.71356 0.64533 0.01207 0.0
H1249 H 0.67874 0.70973 0.03298 0.0
H1250 H 0.63825 0.67916 0.03748 0.0
H1251 H 0.61268 0.63428 0.0363 0.0
H1252 H 0.64643 0.56932 0.0149 0.0
H1253 H 0.68707 0.59979 0.00961 0.0
C1254 C 0.69707 0.65267 0.01746 0.0
C1255 C 0.69934 0.67998 0.02198 0.0
C1256 C 0.67351 0.63482 0.01986 0.0
C1257 C 0.67763 0.68897 0.02898 0.0
C1258 C 0.65441 0.67144 0.0317 0.0
C1259 C 0.62873 0.62667 0.03009 0.0
C1260 C 0.62622 0.59938 0.0258 0.0
C1261 C 0.65209 0.64434 0.02718 0.0
C1262 C 0.64767 0.59013 0.01843 0.0
C1263 C 0.67097 0.60761 0.01537 0.0
H1264 H 0.70507 0.52567 0.27747 0.0
H1265 H 0.64031 0.47342 0.30263 0.0
H1266 H 0.66178 0.43712 0.29507 0.0
H1267 H 0.70069 0.42119 0.28381 0.0
H1268 H 0.76526 0.47566 0.26056 0.0
H1269 H 0.74195 0.50999 0.26471 0.0
C1270 C 0.69546 0.50634 0.28126 0.0
C1271 C 0.67123 0.50236 0.29092 0.0
C1272 C 0.70798 0.48591 0.27723 0.0
C1273 C 0.65902 0.47706 0.2953 0.0
C1274 C 0.67136 0.45635 0.29107 0.0
C1275 C 0.70962 0.44057 0.27964 0.0
C1276 C 0.73477 0.44562 0.27168 0.0
C1277 C 0.69614 0.46067 0.28249 0.0
C1278 C 0.74584 0.47086 0.26614 0.0
C1279 C 0.7326 0.49068 0.26875 0.0
H1280 H 0.87837 0.47844 0.48228 0.0
H1281 H 0.89689 0.41422 0.52024 0.0
H1282 H 0.94134 0.43966 0.53481 0.0
H1283 H 0.97404 0.48013 0.53829 0.0
H1284 H 0.95684 0.54464 0.49993 0.0
H1285 H 0.91224 0.51905 0.48438 0.0
C1286 C 0.89228 0.46987 0.49336 0.0
C1287 C 0.88442 0.4444 0.49998 0.0
C1288 C 0.91773 0.48471 0.50195 0.0
C1289 C 0.90256 0.43356 0.51442 0.0
C1290 C 0.92788 0.44821 0.52307 0.0
C1291 C 0.96065 0.48872 0.52647 0.0
C1292 C 0.96874 0.51425 0.52023 0.0
C1293 C 0.93549 0.47384 0.51722 0.0
C1294 C 0.95102 0.52505 0.50508 0.0
C1295 C 0.92563 0.51038 0.49606 0.0
H1296 H 0.39521 0.1039 0.28854 0.0
H1297 H 0.32954 0.0463 0.30483 0.0
H1298 H 0.2999 0.07217 0.28813 0.0
H1299 H 0.29324 0.11287 0.27185 0.0
H1300 H 0.35947 0.17059 0.25714 0.0
H1301 H 0.38847 0.14274 0.26986 0.0
C1302 C 0.37439 0.09694 0.28827 0.0
C1303 C 0.36449 0.07345 0.29799 0.0
C1304 C 0.35764 0.11184 0.27877 0.0
C1305 C 0.33751 0.06441 0.29735 0.0
C1306 C 0.3206 0.07918 0.28786 0.0
C1307 C 0.31395 0.1189 0.27087 0.0
C1308 C 0.32439 0.14343 0.2635 0.0
C1309 C 0.33051 0.10309 0.27883 0.0
C1310 C 0.35122 0.15158 0.26268 0.0
C1311 C 0.36774 0.1358 0.27007 0.0
H1312 H 0.31902 0.14483 0.55838 0.0
H1313 H 0.37203 0.20892 0.53288 0.0
H1314 H 0.40758 0.18687 0.54035 0.0
H1315 H 0.42314 0.1482 0.55229 0.0
H1316 H 0.36928 0.08441 0.57753 0.0
H1317 H 0.3349 0.10771 0.57249 0.0
C1318 C 0.33837 0.15408 0.55456 0.0
C1319 C 0.34274 0.17842 0.54485 0.0
C1320 C 0.3587 0.14132 0.55893 0.0
C1321 C 0.36806 0.19018 0.54031 0.0
C1322 C 0.3884 0.17753 0.54452 0.0
C1323 C 0.40389 0.13938 0.55668 0.0
C1324 C 0.399 0.11443 0.5653 0.0
C1325 C 0.38388 0.15288 0.55349 0.0
C1326 C 0.37392 0.10363 0.57125 0.0
C1327 C 0.35407 0.11688 0.56815 0.0
H1328 H 0.68127 0.67548 0.34239 0.0
H1329 H 0.70667 0.61971 0.2887 0.0
H1330 H 0.74462 0.65328 0.28308 0.0
H1331 H 0.76929 0.69979 0.29065 0.0
H1332 H 0.74466 0.75498 0.34554 0.0
H1333 H 0.70841 0.72067 0.35376 0.0
C1334 C 0.69523 0.67063 0.32966 0.0
C1335 C 0.69088 0.64502 0.31591 0.0
C1336 C 0.71745 0.69005 0.3268 0.0
C1337 C 0.70942 0.63915 0.29966 0.0
C1338 C 0.73121 0.65841 0.29635 0.0
C1339 C 0.75648 0.70403 0.30507 0.0
C1340 C 0.75983 0.72989 0.31766 0.0
C1341 C 0.73536 0.68406 0.30957 0.0
C1342 C 0.74259 0.73521 0.33573 0.0
C1343 C 0.72171 0.7156 0.3403 0.0
H1344 H 0.87115 0.47405 0.86 0.0
H1345 H 0.94272 0.45196 0.84705 0.0
H1346 H 0.91843 0.40831 0.82718 0.0
H1347 H 0.87737 0.37866 0.80837 0.0
H1348 H 0.80506 0.39885 0.82191 0.0
H1349 H 0.82929 0.44151 0.84624 0.0
C1350 C 0.88141 0.45932 0.85377 0.0
C1351 C 0.90864 0.46629 0.85471 0.0
C1352 C 0.86726 0.43439 0.84161 0.0
C1353 C 0.92181 0.44709 0.84678 0.0
C1354 C 0.9079 0.42225 0.83486 0.0
C1355 C 0.86677 0.39232 0.81655 0.0
C1356 C 0.83949 0.38584 0.81291 0.0
C1357 C 0.88068 0.41617 0.83114 0.0
C1358 C 0.82613 0.40365 0.82403 0.0
C1359 C 0.83994 0.42787 0.83818 0.0
H1360 H 0.10646 0.9136 0.12168 0.0
H1361 H 0.06063 0.86122 0.05298 0.0
H1362 H 0.04957 0.89848 0.0333 0.0
H1363 H 0.05217 0.94729 0.03507 0.0
H1364 H 0.10137 0.99935 0.10233 0.0
H1365 H 0.1116 0.96209 0.12185 0.0
C1366 C 0.09417 0.91012 0.10227 0.0
C1367 C 0.08463 0.88363 0.08921 0.0
C1368 C 0.0883 0.93227 0.09032 0.0
C1369 C 0.06876 0.88067 0.06389 0.0
C1370 C 0.06225 0.90233 0.05249 0.0
C1371 C 0.06524 0.95074 0.05397 0.0
C1372 C 0.07559 0.9773 0.06685 0.0
C1373 C 0.07179 0.92848 0.06538 0.0
C1374 C 0.09264 0.98003 0.09139 0.0
C1375 C 0.09863 0.95832 0.10285 0.0
H1376 H 0.95443 0.29178 0.89502 0.0
H1377 H 0.90671 0.28109 0.95914 0.0
H1378 H 0.86908 0.28487 0.92881 0.0
H1379 H 0.84869 0.29198 0.8837 0.0
H1380 H 0.89582 0.30116 0.81906 0.0
H1381 H 0.93372 0.29774 0.84949 0.0
C1382 C 0.9358 0.29005 0.90241 0.0
C1383 C 0.93402 0.28604 0.92986 0.0
C1384 C 0.91366 0.29231 0.88453 0.0
C1385 C 0.9093 0.28417 0.93849 0.0
C1386 C 0.88749 0.28641 0.921 0.0
C1387 C 0.86723 0.29325 0.8762 0.0
C1388 C 0.86891 0.29682 0.84867 0.0
C1389 C 0.88929 0.29067 0.89394 0.0
C1390 C 0.89342 0.2982 0.83979 0.0
C1391 C 0.91535 0.29626 0.85735 0.0
H1392 H 0.55899 0.22373 0.60949 0.0
H1393 H 0.61284 0.24082 0.55174 0.0
H1394 H 0.60823 0.19437 0.53808 0.0
H1395 H 0.58914 0.14722 0.54164 0.0
H1396 H 0.53417 0.12971 0.59808 0.0
H1397 H 0.53926 0.17632 0.61252 0.0
C1398 C 0.56976 0.21749 0.59387 0.0
C1399 C 0.58644 0.23699 0.58202 0.0
C1400 C 0.56694 0.1898 0.58559 0.0
C1401 C 0.59987 0.2273 0.56171 0.0
C1402 C 0.59728 0.20025 0.5537 0.0
C1403 C 0.57827 0.15342 0.55719 0.0
C1404 C 0.56115 0.1339 0.56848 0.0
C1405 C 0.58094 0.18105 0.56541 0.0
C1406 C 0.54739 0.14341 0.58853 0.0
C1407 C 0.55032 0.17049 0.59698 0.0
H1408 H 0.57281 0.766 0.40344 0.0
H1409 H 0.60225 0.8366 0.46008 0.0
H1410 H 0.64073 0.84764 0.43692 0.0
H1411 H 0.66531 0.83801 0.39902 0.0
H1412 H 0.63682 0.76577 0.34448 0.0
H1413 H 0.59917 0.75447 0.36843 0.0
C1414 C 0.58781 0.78365 0.41089 0.0
C1415 C 0.58459 0.80047 0.43345 0.0
C1416 C 0.61015 0.78963 0.39774 0.0
C1417 C 0.60431 0.82319 0.44294 0.0
C1418 C 0.62627 0.8296 0.42955 0.0
C1419 C 0.65086 0.81979 0.39242 0.0
C1420 C 0.65391 0.80287 0.36974 0.0
C1421 C 0.62928 0.81313 0.40668 0.0
C1422 C 0.63513 0.77914 0.36183 0.0
C1423 C 0.61347 0.77269 0.37548 0.0
H1424 H 0.08816 0.26749 0.41348 0.0
H1425 H 1.00958 0.27622 0.41427 0.0
H1426 H 0.99811 0.23642 0.43463 0.0
H1427 H 1.01139 0.20239 0.45748 0.0
H1428 H 0.08856 0.19007 0.4541 0.0
H1429 H 0.0994 0.22777 0.42995 0.0
C1430 C 0.06836 0.26014 0.41724 0.0
C1431 C 0.04982 0.27502 0.41239 0.0
C1432 C 0.06169 0.23686 0.42926 0.0
C1433 C 0.02428 0.26525 0.41779 0.0
C1434 C 1.01768 0.24252 0.42968 0.0
C1435 C 0.03042 0.20727 0.45098 0.0
C1436 C 0.04916 0.1933 0.45848 0.0
C1437 C 0.03641 0.22863 0.43636 0.0
C1438 C 0.0738 0.20072 0.44975 0.0
C1439 C 0.08003 0.22227 0.43557 0.0
H1440 H 0.63413 0.25238 0.20488 0.0
H1441 H 0.61426 0.30179 0.26948 0.0
H1442 H 0.65947 0.31115 0.29241 0.0
H1443 H 0.70655 0.30751 0.29266 0.0
H1444 H 0.72373 0.25462 0.22921 0.0
H1445 H 0.67861 0.24499 0.20756 0.0
C1446 C 0.63937 0.26491 0.22426 0.0
C1447 C 0.62 0.27616 0.23518 0.0
C1448 C 0.66558 0.27003 0.23752 0.0
C1449 C 0.62797 0.29238 0.2604 0.0
C1450 C 0.65419 0.29799 0.27345 0.0
C1451 C 0.70041 0.29365 0.27424 0.0
C1452 C 0.71933 0.28196 0.26271 0.0
C1453 C 0.67348 0.28731 0.26204 0.0
C1454 C 0.71029 0.26398 0.23885 0.0
C1455 C 0.6842 0.25844 0.22632 0.0
H1456 H 0.55786 0.89682 0.94396 0.0
H1457 H 0.59101 0.94018 0.88322 0.0
H1458 H 0.58784 0.9812 0.90969 0.0
H1459 H 0.57629 0.00536 0.95173 0.0
H1460 H 0.54309 0.95943 0.01102 0.0
H1461 H 0.54536 0.91963 0.98359 0.0
C1462 C 0.56433 0.91514 0.93621 0.0
C1463 C 0.5747 0.91496 0.9113 0.0
C1464 C 0.56243 0.93866 0.95159 0.0
C1465 C 0.58286 0.93931 0.90209 0.0
C1466 C 0.58108 0.96293 0.9174 0.0
C1467 C 0.56949 0.98666 0.95862 0.0
C1468 C 0.55987 0.98603 0.98411 0.0
C1469 C 0.57098 0.963 0.94242 0.0
C1470 C 0.55112 0.96119 0.99214 0.0
C1471 C 0.55229 0.9381 0.97628 0.0
H1472 H 0.97467 0.79107 0.77511 0.0
H1473 H 0.94106 0.73825 0.70189 0.0
H1474 H 0.89732 0.73935 0.71214 0.0
H1475 H 0.86698 0.75635 0.74119 0.0
H1476 H 0.90076 0.81211 0.81239 0.0
H1477 H 0.94431 0.80882 0.80366 0.0
C1478 C 0.95788 0.77942 0.76147 0.0
C1479 C 0.96216 0.764 0.73769 0.0
C1480 C 0.93195 0.78086 0.76711 0.0
C1481 C 0.9393 0.75002 0.7204 0.0
C1482 C 0.91387 0.75074 0.72628 0.0
C1483 C 0.88373 0.76773 0.75506 0.0
C1484 C 0.87943 0.78442 0.77792 0.0
C1485 C 0.90964 0.76623 0.74949 0.0
C1486 C 0.90237 0.79899 0.79481 0.0
C1487 C 0.92775 0.7971 0.78976 0.0
H1488 H 0.15075 0.07462 0.90275 0.0
H1489 H 0.07562 0.05784 0.85377 0.0
H1490 H 0.05426 0.04879 0.89375 0.0
H1491 H 0.05664 0.0457 0.94314 0.0
H1492 H 0.13196 0.06387 0.99215 0.0
H1493 H 0.15312 0.07218 0.95208 0.0
C1494 C 0.12968 0.06914 0.9008 0.0
C1495 C 0.11494 0.06709 0.87501 0.0
C1496 C 0.1174 0.06403 0.92409 0.0
C1497 C 0.08762 0.05988 0.87317 0.0
C1498 C 0.07532 0.05453 0.89612 0.0
C1499 C 0.0777 0.05123 0.94509 0.0
C1500 C 0.0925 0.05385 0.97098 0.0
C1501 C 0.08996 0.05646 0.92176 0.0
C1502 C 0.11983 0.06145 0.97276 0.0
C1503 C 0.13207 0.06633 0.94973 0.0
H1504 H 0.7703 0.3897 0.5764 0.0
H1505 H 0.84766 0.43632 0.57584 0.0
H1506 H 0.8645 0.41557 0.6128 0.0
H1507 H 0.85793 0.37999 0.64071 0.0
H1508 H 0.78093 0.33253 0.64057 0.0
H1509 H 0.76288 0.35745 0.60799 0.0
C1510 C 0.79057 0.39609 0.58539 0.0
C1511 C 0.80776 0.41445 0.57387 0.0
C1512 C 0.80021 0.3832 0.60556 0.0
C1513 C 0.83408 0.4226 0.58505 0.0
C1514 C 0.8438 0.41028 0.60563 0.0
C1515 C 0.83728 0.37513 0.63319 0.0
C1516 C 0.82067 0.35427 0.6419 0.0
C1517 C 0.82722 0.38976 0.61508 0.0
C1518 C 0.79386 0.34821 0.63312 0.0
C1519 C 0.78362 0.3626 0.61493 0.0
H1520 H 0.43103 0.02653 0.4087 0.0
H1521 H 0.47482 0.09576 0.38239 0.0
H1522 H 0.51013 0.09962 0.41931 0.0
H1523 H 0.52898 0.08226 0.45804 0.0
H1524 H 0.48619 0.01208 0.48341 0.0
H1525 H 0.45006 0.00894 0.44744 0.0
C1526 C 0.44797 0.04288 0.41182 0.0
C1527 C 0.45035 0.06137 0.39384 0.0
C1528 C 0.46858 0.04414 0.43211 0.0
C1529 C 0.47262 0.0819 0.39686 0.0
C1530 C 0.49288 0.08382 0.41753 0.0
C1531 C 0.51198 0.06599 0.45501 0.0
C1532 C 0.51013 0.04699 0.47227 0.0
C1533 C 0.49129 0.06474 0.43487 0.0
C1534 C 0.48794 0.02634 0.46934 0.0
C1535 C 0.46724 0.02483 0.44923 0.0
H1536 H 0.7764 0.71993 0.12109 0.0
H1537 H 0.79592 0.79787 0.09976 0.0
H1538 H 0.79858 0.81645 0.14712 0.0
H1539 H 0.79528 0.81098 0.19548 0.0
H1540 H 0.77599 0.73307 0.2168 0.0
H1541 H 0.77279 0.71446 0.16932 0.0
C1542 C 0.78158 0.74096 0.12685 0.0
C1543 C 0.78615 0.75734 0.10658 0.0
C1544 C 0.78261 0.75173 0.15441 0.0
C1545 C 0.79235 0.78463 0.11468 0.0
C1546 C 0.79375 0.79538 0.1419 0.0
C1547 C 0.78988 0.78996 0.18963 0.0
C1548 C 0.78552 0.77353 0.20987 0.0
C1549 C 0.78867 0.7792 0.16203 0.0
C1550 C 0.77924 0.74627 0.20178 0.0
C1551 C 0.77758 0.73554 0.17454 0.0
H1552 H 0.10034 0.10452 0.7205 0.0
H1553 H 0.11008 0.02654 0.72547 0.0
H1554 H 0.09599 0.01463 0.67644 0.0
H1555 H 0.08076 0.02644 0.63186 0.0
H1556 H 0.07343 0.1054 0.62702 0.0
H1557 H 0.08697 0.11681 0.67584 0.0
C1558 C 0.09951 0.08495 0.71082 0.0
C1559 C 0.10632 0.06646 0.72674 0.0
C1560 C 0.09183 0.07839 0.68246 0.0
C1561 C 0.10526 0.04124 0.71375 0.0
C1562 C 0.09705 0.0344 0.68568 0.0
C1563 C 0.08201 0.04614 0.64143 0.0
C1564 C 0.0757 0.0649 0.62544 0.0
C1565 C 0.09024 0.0528 0.66976 0.0
C1566 C 0.07781 0.09038 0.63851 0.0
C1567 C 0.08565 0.097 0.66657 0.0
H1568 H 0.81843 0.41558 0.4191 0.0
H1569 H 0.75668 0.36846 0.45372 0.0
H1570 H 0.75707 0.33017 0.42204 0.0
H1571 H 0.77324 0.31082 0.38272 0.0
H1572 H 0.8352 0.35742 0.34818 0.0
H1573 H 0.83717 0.3951 0.38198 0.0
C1574 C 0.80466 0.39707 0.41903 0.0
C1575 C 0.78686 0.3948 0.43767 0.0
C1576 C 0.80558 0.37498 0.40139 0.0
C1577 C 0.7699 0.37057 0.43865 0.0
C1578 C 0.77039 0.34865 0.42094 0.0
C1579 C 0.78772 0.32899 0.38342 0.0
C1580 C 0.8042 0.33166 0.36364 0.0
C1581 C 0.78808 0.35064 0.4022 0.0
C1582 C 0.82266 0.35521 0.36388 0.0
C1583 C 0.82347 0.37678 0.38279 0.0
H1584 H 0.41266 0.99248 0.24398 0.0
H1585 H 0.48086 0.0562 0.26521 0.0
H1586 H 0.49106 0.05074 0.21891 0.0
H1587 H 0.48319 0.0253 0.1743 0.0
H1588 H 0.41877 0.9579 0.15354 0.0
H1589 H 0.40395 0.96732 0.19774 0.0
C1590 C 0.4294 0.00538 0.23811 0.0
C1591 C 0.44602 0.02475 0.25753 0.0
C1592 C 0.43572 1.00137 0.21176 0.0
C1593 C 0.46795 0.04119 0.2503 0.0
C1594 C 0.47376 0.03807 0.22396 0.0
C1595 C 0.46553 0.01309 0.17929 0.0
C1596 C 0.45168 0.99133 0.16095 0.0
C1597 C 0.45813 0.01789 0.2048 0.0
C1598 C 0.42935 0.97497 0.16754 0.0
C1599 C 0.42107 0.98029 0.19272 0.0
H1600 H 0.81905 0.75904 0.96861 0.0
H1601 H 0.74904 0.69921 0.94039 0.0
H1602 H 0.74934 0.71127 0.89443 0.0
H1603 H 0.76995 0.73855 0.86158 0.0
H1604 H 0.84102 0.79729 0.88972 0.0
H1605 H 0.84022 0.78559 0.93554 0.0
C1606 C 0.80376 0.74878 0.95242 0.0
C1607 C 0.78385 0.72835 0.95816 0.0
C1608 C 0.80451 0.75537 0.92565 0.0
C1609 C 0.76453 0.71499 0.93669 0.0
C1610 C 0.76476 0.72188 0.91031 0.0
C1611 C 0.78541 0.74868 0.87764 0.0
C1612 C 0.80557 0.76889 0.87176 0.0
C1613 C 0.78478 0.7419 0.90438 0.0
C1614 C 0.82519 0.78178 0.89326 0.0
C1615 C 0.82472 0.77511 0.91968 0.0
H1616 H 0.83564 0.09348 0.07646 0.0
H1617 H 0.8726 0.15723 0.03665 0.0
H1618 H 0.90335 0.13238 0.02195 0.0
H1619 H 0.91836 0.09162 0.01873 0.0
H1620 H 0.88218 0.02834 0.05925 0.0
H1621 H 0.85219 0.05382 0.07541 0.0
C1622 C 0.85066 0.10199 0.06486 0.0
C1623 C 0.85192 0.12697 0.05754 0.0
C1624 C 0.86801 0.08754 0.05629 0.0
C1625 C 0.87149 0.13804 0.0427 0.0
C1626 C 0.88887 0.12377 0.03405 0.0
C1627 C 0.90359 0.08345 0.03079 0.0
C1628 C 0.90159 0.05812 0.03728 0.0
C1629 C 0.88696 0.09834 0.0403 0.0
C1630 C 0.88322 0.04765 0.05354 0.0
C1631 C 0.86638 0.06225 0.06293 0.0
H1632 H 0.42715 0.41236 0.04874 0.0
H1633 H 0.37626 0.46341 0.06497 0.0
H1634 H 0.4124 0.50171 0.06662 0.0
H1635 H 0.45891 0.52098 0.06084 0.0
H1636 H 0.50781 0.46758 0.04428 0.0
H1637 H 0.4725 0.43075 0.04569 0.0
C1638 C 0.42386 0.43181 0.05283 0.0
C1639 C 0.39883 0.43475 0.05659 0.0
C1640 C 0.44466 0.45374 0.05368 0.0
C1641 C 0.39526 0.46034 0.06199 0.0
C1642 C 0.41599 0.48237 0.06287 0.0
C1643 C 0.46186 0.50133 0.0579 0.0
C1644 C 0.48633 0.49751 0.05234 0.0
C1645 C 0.44088 0.4794 0.0584 0.0
C1646 C 0.48947 0.47162 0.0485 0.0
C1647 C 0.46913 0.45021 0.04922 0.0
H1648 H 0.39492 0.56332 0.77815 0.0
H1649 H 0.46961 0.61826 0.7897 0.0
H1650 H 0.44837 0.65467 0.79643 0.0
H1651 H 0.40818 0.67091 0.80019 0.0
H1652 H 0.33416 0.61484 0.79035 0.0
H1653 H 0.3555 0.57914 0.78217 0.0
C1654 C 0.40661 0.58326 0.78184 0.0
C1655 C 0.43386 0.58796 0.78309 0.0
C1656 C 0.39432 0.60403 0.78634 0.0
C1657 C 0.44861 0.614 0.7884 0.0
C1658 C 0.43644 0.63486 0.79235 0.0
C1659 C 0.39674 0.65089 0.79614 0.0
C1660 C 0.36949 0.64572 0.79611 0.0
C1661 C 0.40926 0.63014 0.79155 0.0
C1662 C 0.35511 0.61953 0.79099 0.0
C1663 C 0.3673 0.59902 0.78609 0.0
H1664 H 0.21954 0.61827 0.58753 0.0
H1665 H 0.20886 0.65467 0.51553 0.0
H1666 H 0.16489 0.62684 0.50333 0.0
H1667 H 0.12844 0.59562 0.51547 0.0
H1668 H 0.13735 0.56178 0.58957 0.0
H1669 H 0.18322 0.58502 0.5986 0.0
C1670 C 0.20759 0.61982 0.56906 0.0
C1671 C 0.21707 0.6385 0.55252 0.0
C1672 C 0.18207 0.60444 0.56272 0.0
C1673 C 0.2016 0.64058 0.52869 0.0
C1674 C 0.17658 0.62469 0.5217 0.0
C1675 C 0.14044 0.59304 0.53345 0.0
C1676 C 0.12948 0.57725 0.55197 0.0
C1677 C 0.16642 0.60706 0.53894 0.0
C1678 C 0.14532 0.57408 0.57513 0.0
C1679 C 0.17151 0.58736 0.58032 0.0
H1680 H 0.76216 0.03285 0.77996 0.0
H1681 H 0.69931 0.97309 0.73337 0.0
H1682 H 0.72141 0.93928 0.74631 0.0
H1683 H 0.75724 0.92722 0.77362 0.0
H1684 H 0.8173 0.98757 0.82358 0.0
H1685 H 0.79691 0.02105 0.80741 0.0
C1686 C 0.75362 0.01247 0.772 0.0
C1687 C 0.72957 0.0053 0.75526 0.0
C1688 C 0.76548 0.99343 0.78086 0.0
C1689 C 0.71813 0.97887 0.74588 0.0
C1690 C 0.73057 0.95966 0.75355 0.0
C1691 C 0.76586 0.94775 0.78077 0.0
C1692 C 0.78878 0.95514 0.7995 0.0
C1693 C 0.75398 0.96676 0.77151 0.0
C1694 C 0.7996 0.9816 0.80922 0.0
C1695 C 0.78812 1.00067 0.7998 0.0
H1696 H 0.72842 0.90073 0.54767 0.0
H1697 H 0.79101 0.96359 0.5345 0.0
H1698 H 0.7608 0.99086 0.52626 0.0
H1699 H 0.71751 0.99842 0.52524 0.0
H1700 H 0.65381 0.93745 0.5394 0.0
H1701 H 0.68336 0.9083 0.54519 0.0
C1702 C 0.7353 0.92035 0.54293 0.0
C1703 C 0.76207 0.93016 0.5421 0.0
C1704 C 0.71765 0.93649 0.53863 0.0
C1705 C 0.77066 0.95564 0.53583 0.0
C1706 C 0.75336 0.97132 0.53097 0.0
C1707 C 0.70987 0.97862 0.52912 0.0
C1708 C 0.68339 0.97025 0.53175 0.0
C1709 C 0.72693 0.96214 0.53268 0.0
C1710 C 0.67415 0.9446 0.53746 0.0
C1711 C 0.69105 0.92785 0.54069 0.0
H1712 H 0.39932 0.46243 0.78442 0.0
H1713 H 0.45834 0.41906 0.77507 0.0
H1714 H 0.42627 0.37824 0.77371 0.0
H1715 H 0.38247 0.35462 0.77776 0.0
H1716 H 0.32239 0.39626 0.78779 0.0
H1717 H 0.35367 0.4377 0.78603 0.0
C1718 C 0.40509 0.44403 0.78185 0.0
C1719 C 0.43148 0.44408 0.78014 0.0
C1720 C 0.38636 0.42021 0.78134 0.0
C1721 C 0.43843 0.4199 0.77682 0.0
C1722 C 0.42003 0.3964 0.77598 0.0
C1723 C 0.37602 0.3727 0.77948 0.0
C1724 C 0.35003 0.3722 0.78316 0.0
C1725 C 0.3941 0.39633 0.77869 0.0
C1726 C 0.34219 0.39593 0.78491 0.0
C1727 C 0.36016 0.41969 0.78404 0.0
H1728 H 0.20274 0.65591 0.25253 0.0
H1729 H 0.23037 0.64797 0.33464 0.0
H1730 H 0.26333 0.68918 0.33847 0.0
H1731 H 0.28412 0.72654 0.31812 0.0
H1732 H 0.25745 0.73464 0.23567 0.0
H1733 H 0.22427 0.69354 0.23174 0.0
C1734 C 0.21579 0.66365 0.27131 0.0
C1735 C 0.2142 0.64987 0.29356 0.0
C1736 C 0.23491 0.68672 0.27296 0.0
C1737 C 0.23128 0.65906 0.31767 0.0
C1738 C 0.25013 0.68227 0.3197 0.0
C1739 C 0.27113 0.71914 0.29925 0.0
C1740 C 0.27296 0.73313 0.27717 0.0
C1741 C 0.25218 0.69605 0.2974 0.0
C1742 C 0.2564 0.72362 0.25269 0.0
C1743 C 0.23733 0.70045 0.2506 0.0
H1744 H 0.52381 0.71936 0.53839 0.0
H1745 H 0.51546 0.70115 0.4514 0.0
H1746 H 0.52277 0.65758 0.45609 0.0
H1747 H 0.53139 0.62298 0.48497 0.0
H1748 H 0.54505 0.64363 0.57191 0.0
H1749 H 0.53616 0.68645 0.56708 0.0
C1750 C 0.52365 0.70604 0.52028 0.0
C1751 C 0.5187 0.71452 0.4943 0.0
C1752 C 0.5289 0.68065 0.52318 0.0
C1753 C 0.51912 0.69616 0.47164 0.0
C1754 C 0.52328 0.6708 0.47437 0.0
C1755 C 0.53242 0.63671 0.50302 0.0
C1756 C 0.53875 0.62889 0.52909 0.0
C1757 C 0.52813 0.66251 0.50003 0.0
C1758 C 0.54026 0.64808 0.55164 0.0
C1759 C 0.53508 0.67297 0.54884 0.0
H1760 H 0.69514 0.32206 0.64078 0.0
H1761 H 0.63834 0.32348 0.69577 0.0
H1762 H 0.67048 0.32061 0.73355 0.0
H1763 H 0.71529 0.31718 0.75174 0.0
H1764 H 0.77201 0.3168 0.69643 0.0
H1765 H 0.73969 0.31938 0.65889 0.0
C1766 C 0.68968 0.32193 0.66102 0.0
C1767 C 0.66385 0.32317 0.66491 0.0
C1768 C 0.70853 0.32027 0.68304 0.0
C1769 C 0.65772 0.32271 0.69164 0.0
C1770 C 0.67627 0.32099 0.71347 0.0
C1771 C 0.72072 0.31775 0.73153 0.0
C1772 C 0.74663 0.31687 0.7275 0.0
C1773 C 0.70182 0.31967 0.70956 0.0
C1774 C 0.7527 0.31766 0.70077 0.0
C1775 C 0.73405 0.31912 0.67903 0.0
H1776 H 0.98136 0.36672 0.99594 0.0
H1777 H 0.06213 0.36464 1.00132 0.0
H1778 H 0.075 0.41183 0.01667 0.0
H1779 H 0.06376 0.45504 0.02682 0.0
H1780 H 0.98307 0.45714 0.02382 0.0
H1781 H 0.97012 0.40974 0.00957 0.0
C1782 C 1.0018 0.37642 1.00104 0.0
C1783 C 0.02068 0.36135 0.9978 0.0
C1784 C 1.00924 0.40417 0.01007 0.0
C1785 C 0.04702 0.37505 0.00397 0.0
C1786 C 0.05445 0.40235 0.01261 0.0
C1787 C 0.04328 0.44524 0.02319 0.0
C1788 C 0.02453 0.46047 0.02647 0.0
C1789 C 0.03582 0.41736 0.01545 0.0
C1790 C 0.99816 0.44661 0.02173 0.0
C1791 C 0.99067 0.4192 0.01345 0.0
H1792 H 0.03585 0.78265 0.18157 0.0
H1793 H 0.99672 0.81632 0.11972 0.0
H1794 H 0.95801 0.8105 0.14312 0.0
H1795 H 0.93568 0.79709 0.18252 0.0
H1796 H 0.97557 0.76259 0.24326 0.0
H1797 H 1.01313 0.76726 0.21892 0.0
C1798 C 0.01881 0.78859 0.17305 0.0
C1799 C 0.01937 0.80005 0.14891 0.0
C1800 C 0.99659 0.78504 0.18654 0.0
C1801 C 0.99692 0.80738 0.13817 0.0
C1802 C 0.97477 0.80416 0.15167 0.0
C1803 C 0.9526 0.79061 0.19043 0.0
C1804 C 0.95252 0.77942 0.21487 0.0
C1805 C 0.97444 0.79326 0.1761 0.0
C1806 C 0.97468 0.77094 0.22447 0.0
C1807 C 0.99636 0.77374 0.2106 0.0
H1808 H 0.58355 0.34724 0.19164 0.0
H1809 H 0.50392 0.31501 0.15582 0.0
H1810 H 0.50668 0.34941 0.12661 0.0
H1811 H 0.53233 0.38765 0.10947 0.0
H1812 H 0.61264 0.41902 0.14382 0.0
H1813 H 0.60911 0.38631 0.17494 0.0
C1814 C 0.56675 0.34806 0.17771 0.0
C1815 C 0.54341 0.32879 0.17619 0.0
C1816 C 0.5687 0.3677 0.16037 0.0
C1817 C 0.52199 0.32976 0.15759 0.0
C1818 C 0.5236 0.3494 0.14078 0.0
C1819 C 0.54901 0.38754 0.12394 0.0
C1820 C 0.57278 0.40591 0.12403 0.0
C1821 C 0.54693 0.36836 0.14173 0.0
C1822 C 0.59419 0.40504 0.14286 0.0
C1823 C 0.59216 0.38634 0.16084 0.0
H1824 H 0.97082 0.30946 0.36968 0.0
H1825 H 0.99944 0.37028 0.32279 0.0
H1826 H 0.95458 0.36697 0.30129 0.0
H1827 H 0.90555 0.3475 0.29729 0.0
H1828 H 0.87968 0.28644 0.34563 0.0
H1829 H 0.92413 0.28924 0.36443 0.0
C1830 C 0.96746 0.3216 0.35419 0.0
C1831 C 0.9891 0.3396 0.34753 0.0
C1832 C 0.94146 0.31983 0.34224 0.0
C1833 C 0.98372 0.35557 0.32789 0.0
C1834 C 0.95777 0.35392 0.31584 0.0
C1835 C 0.90956 0.33491 0.31204 0.0
C1836 C 0.8883 0.31675 0.31978 0.0
C1837 C 0.93617 0.33634 0.32311 0.0
C1838 C 0.8948 0.30061 0.33884 0.0
C1839 C 0.92057 0.30212 0.3498 0.0
H1840 H 1.01568 0.69714 0.62237 0.0
H1841 H 0.04079 0.67659 0.69996 0.0
H1842 H 0.04295 0.63334 0.67763 0.0
H1843 H 0.04244 0.60278 0.63433 0.0
H1844 H 0.01983 0.62724 0.55762 0.0
H1845 H 1.01222 0.66685 0.58105 0.0
C1846 C 0.02088 0.68296 0.63467 0.0
C1847 C 0.0275 0.69035 0.66311 0.0
C1848 C 0.02315 0.65863 0.6215 0.0
C1849 C 0.03476 0.67157 0.67829 0.0
C1850 C 0.03647 0.64686 0.6653 0.0
C1851 C 0.03546 0.61659 0.62279 0.0
C1852 C 0.03188 0.6116 0.59384 0.0
C1853 C 0.03143 0.64031 0.63668 0.0
C1854 C 0.02306 0.6302 0.57962 0.0
C1855 C 0.01859 0.65305 0.59309 0.0
H1856 H 0.62832 0.80105 0.81947 0.0
H1857 H 0.66421 0.86953 0.87722 0.0
H1858 H 0.70702 0.86703 0.86535 0.0
H1859 H 0.73609 0.84507 0.83926 0.0
H1860 H 0.70069 0.77504 0.78343 0.0
H1861 H 0.65768 0.77847 0.7939 0.0
C1862 C 0.64539 0.8156 0.82947 0.0
C1863 C 0.64201 0.83574 0.84949 0.0
C1864 C 0.67092 0.81369 0.8229 0.0
C1865 C 0.66525 0.85377 0.86195 0.0
C1866 C 0.69017 0.85235 0.85507 0.0
C1867 C 0.71908 0.83051 0.82913 0.0
C1868 C 0.72275 0.80978 0.81005 0.0
C1869 C 0.69357 0.83234 0.83567 0.0
C1870 C 0.69955 0.79137 0.79792 0.0
C1871 C 0.67447 0.79331 0.80401 0.0
H1872 H 0.47515 0.54801 0.69655 0.0
H1873 H 0.53227 0.50328 0.71456 0.0
H1874 H 0.54749 0.50862 0.67169 0.0
H1875 H 0.54656 0.5263 0.62925 0.0
H1876 H 0.48951 0.56917 0.60697 0.0
H1877 H 0.47264 0.56426 0.65065 0.0
C1878 C 0.49084 0.53938 0.69106 0.0
C1879 C 0.50254 0.52553 0.70965 0.0
C1880 C 0.49983 0.54226 0.66538 0.0
C1881 C 0.5228 0.51441 0.70154 0.0
C1882 C 0.5317 0.51735 0.67669 0.0
C1883 C 0.53042 0.53468 0.63385 0.0
C1884 C 0.51961 0.54838 0.61489 0.0
C1885 C 0.52066 0.53139 0.6586 0.0
C1886 C 0.49832 0.55855 0.62115 0.0
C1887 C 0.48871 0.55577 0.64623 0.0
H1888 H 0.76388 0.21647 0.02405 0.0
H1889 H 0.80822 0.17368 0.97728 0.0
H1890 H 0.80706 0.2024 0.9423 0.0
H1891 H 0.79285 0.23886 0.92506 0.0
H1892 H 0.74466 0.27897 0.96943 0.0
H1893 H 0.74885 0.25273 0.00621 0.0
C1894 C 0.77303 0.21335 0.00603 0.0
C1895 C 0.78579 0.19295 1.00279 0.0
C1896 C 0.77193 0.22961 0.98599 0.0
C1897 C 0.79778 0.18898 0.97965 0.0
C1898 C 0.79737 0.20553 0.95991 0.0
C1899 C 0.78296 0.24167 0.94261 0.0
C1900 C 0.76804 0.26043 0.94431 0.0
C1901 C 0.78436 0.22575 0.96285 0.0
C1902 C 0.75628 0.26463 0.96768 0.0
C1903 C 0.75842 0.24947 0.98853 0.0
H1904 H 0.15455 0.53189 0.18766 0.0
H1905 H 0.15622 0.614 0.20162 0.0
H1906 H 0.12573 0.60965 0.16044 0.0
H1907 H 0.09274 0.58097 0.1259 0.0
H1908 H 0.09169 0.49918 0.10981 0.0
H1909 H 0.12772 0.50464 0.14668 0.0
C1910 C 0.14919 0.54895 0.18081 0.0
C1911 C 0.15703 0.57307 0.19749 0.0
C1912 C 0.13092 0.54608 0.15764 0.0
C1913 C 0.15014 0.59523 0.1888 0.0
C1914 C 0.13237 0.59267 0.16563 0.0
C1915 C 0.10028 0.56436 0.13078 0.0
C1916 C 0.08894 0.53949 0.11661 0.0
C1917 C 0.12142 0.56789 0.15101 0.0
C1918 C 0.09963 0.51826 0.12164 0.0
C1919 C 0.12036 0.52146 0.14232 0.0
H1920 H 0.84743 0.88568 0.46439 0.0
H1921 H 0.78898 0.82506 0.48783 0.0
H1922 H 0.78194 0.80078 0.44193 0.0
H1923 H 0.79091 0.79772 0.39395 0.0
H1924 H 0.853 0.85573 0.37215 0.0
H1925 H 0.86025 0.87976 0.41813 0.0
C1926 C 0.83337 0.867 0.45951 0.0
C1927 C 0.81863 0.85733 0.47962 0.0
C1928 C 0.83003 0.85263 0.43315 0.0
C1929 C 0.80066 0.83296 0.47291 0.0
C1930 C 0.79654 0.81909 0.44654 0.0
C1931 C 0.80624 0.81545 0.3994 0.0
C1932 C 0.82135 0.8249 0.37945 0.0
C1933 C 0.81088 0.82884 0.42633 0.0
C1934 C 0.84122 0.84785 0.38702 0.0
C1935 C 0.84527 0.86173 0.41335 0.0
H1936 H 0.46627 0.53218 0.87601 0.0
H1937 H 0.53278 0.51834 0.84015 0.0
H1938 H 0.55582 0.51795 0.88533 0.0
H1939 H 0.55813 0.52477 0.93635 0.0
H1940 H 0.4898 0.53766 0.96985 0.0
H1941 H 0.46708 0.53537 0.92495 0.0
C1942 C 0.48574 0.52886 0.87796 0.0
C1943 C 0.49772 0.52551 0.85457 0.0
C1944 C 0.49891 0.52875 0.90398 0.0
C1945 C 0.52302 0.5212 0.85774 0.0
C1946 C 0.53627 0.52097 0.88368 0.0
C1947 C 0.53815 0.52654 0.93377 0.0
C1948 C 0.5261 0.53176 0.95694 0.0
C1949 C 0.52459 0.52513 0.90719 0.0
C1950 C 0.50005 0.53406 0.95279 0.0
C1951 C 0.48679 0.53273 0.92692 0.0
H1952 H 0.76998 0.19128 0.15209 0.0
H1953 H 0.84999 0.20517 0.13837 0.0
H1954 H 0.86293 0.23706 0.17979 0.0
H1955 H 0.84961 0.26704 0.21401 0.0
H1956 H 0.76821 0.25791 0.22101 0.0
H1957 H 0.75713 0.21857 0.18759 0.0
C1958 C 0.79036 0.20052 0.15902 0.0
C1959 C 0.80907 0.19628 0.14267 0.0
C1960 C 0.797 0.22064 0.18067 0.0
C1961 C 0.83544 0.20814 0.15116 0.0
C1962 C 0.84266 0.22682 0.17432 0.0
C1963 C 0.82949 0.2565 0.20773 0.0
C1964 C 0.80952 0.26557 0.21867 0.0
C1965 C 0.82333 0.23441 0.18806 0.0
C1966 C 0.78357 0.25165 0.21156 0.0
C1967 C 0.77735 0.22899 0.19301 0.0
H1968 H 0.13907 0.58399 0.31823 0.0
H1969 H 0.2052 0.57094 0.3679 0.0
H1970 H 0.18959 0.58895 0.40862 0.0
H1971 H 0.15482 0.60518 0.42931 0.0
H1972 H 0.09175 0.62117 0.37702 0.0
H1973 H 0.11057 0.608 0.33731 0.0
C1974 C 0.15084 0.58583 0.3376 0.0
C1975 C 0.17335 0.57622 0.33991 0.0
C1976 C 0.14277 0.59756 0.36028 0.0
C1977 C 0.18763 0.57805 0.36565 0.0
C1978 C 0.17888 0.58857 0.38882 0.0
C1979 C 0.14566 0.6064 0.40919 0.0
C1980 C 0.12166 0.61354 0.406 0.0
C1981 C 0.15621 0.59807 0.3863 0.0
C1982 C 0.11019 0.61572 0.38002 0.0
C1983 C 0.12066 0.60771 0.35727 0.0
H1984 H 0.80628 0.8216 0.61769 0.0
H1985 H 0.82066 0.90451 0.6428 0.0
H1986 H 0.81459 0.89665 0.68951 0.0
H1987 H 0.80702 0.86564 0.72425 0.0
H1988 H 0.78897 0.78272 0.69651 0.0
H1989 H 0.7946 0.79116 0.6505 0.0
C1990 C 0.80789 0.83803 0.63328 0.0
C1991 C 0.81413 0.86369 0.62647 0.0
C1992 C 0.80381 0.8333 0.66001 0.0
C1993 C 0.8158 0.88456 0.64715 0.0
C1994 C 0.81246 0.88003 0.67403 0.0
C1995 C 0.8041 0.84944 0.7081 0.0
C1996 C 0.79755 0.82344 0.7143 0.0
C1997 C 0.80674 0.85443 0.6809 0.0
C1998 C 0.79376 0.80287 0.69274 0.0
C1999 C 0.79711 0.80767 0.66622 0.0
H2000 H 0.73971 0.45998 0.53586 0.0
H2001 H 0.79345 0.52682 0.51587 0.0
H2002 H 0.77126 0.55619 0.54028 0.0
H2003 H 0.73431 0.56219 0.56411 0.0
H2004 H 0.68095 0.4948 0.58328 0.0
H2005 H 0.70589 0.466 0.56306 0.0
C2006 C 0.74649 0.48099 0.53669 0.0
C2007 C 0.76768 0.49137 0.52366 0.0
C2008 C 0.73411 0.49749 0.55109 0.0
C2009 C 0.77683 0.51854 0.5255 0.0
C2010 C 0.7643 0.53525 0.53956 0.0
C2011 C 0.72889 0.54129 0.56472 0.0
C2012 C 0.70627 0.53043 0.57533 0.0
C2013 C 0.74277 0.52489 0.55221 0.0
C2014 C 0.6987 0.50336 0.57555 0.0
C2015 C 0.71266 0.48695 0.56366 0.0
H2016 H 0.21823 0.14781 0.5315 0.0
H2017 H 0.17474 0.19934 0.49786 0.0
H2018 H 0.13408 0.16713 0.49802 0.0
H2019 H 0.1104 0.12501 0.50943 0.0
H2020 H 0.15367 0.07385 0.54421 0.0
H2021 H 0.19448 0.10501 0.54173 0.0
C2022 C 0.19991 0.15194 0.52393 0.0
C2023 C 0.19982 0.1762 0.51468 0.0
C2024 C 0.17634 0.13334 0.52441 0.0
C2025 C 0.17566 0.18104 0.50518 0.0
C2026 C 0.15227 0.16256 0.50528 0.0
C2027 C 0.12872 0.12053 0.51638 0.0
C2028 C 0.12868 0.09691 0.52708 0.0
C2029 C 0.1523 0.13875 0.51515 0.0
C2030 C 0.15283 0.09171 0.53587 0.0
C2031 C 0.17631 0.10961 0.5345 0.0
H2032 H 0.16028 0.99147 0.76285 0.0
H2033 H 0.19963 0.02892 0.84183 0.0
H2034 H 0.22682 0.99735 0.84273 0.0
H2035 H 0.24136 0.96097 0.82002 0.0
H2036 H 0.20414 0.9244 0.73994 0.0
H2037 H 0.17434 0.95362 0.74032 0.0
C2038 C 0.1746 0.99235 0.78031 0.0
C2039 C 0.17794 0.01222 0.80238 0.0
C2040 C 0.1907 0.97446 0.78035 0.0
C2041 C 0.19675 0.01361 0.82475 0.0
C2042 C 0.21232 0.99564 0.82523 0.0
C2043 C 0.22647 0.95911 0.80282 0.0
C2044 C 0.22498 0.9405 0.78003 0.0
C2045 C 0.20974 0.97623 0.80302 0.0
C2046 C 0.20585 0.9387 0.75767 0.0
C2047 C 0.18875 0.95536 0.75791 0.0
H2048 H 0.40618 0.94087 0.99851 0.0
H2049 H 0.36645 1.00074 0.97979 0.0
H2050 H 0.40724 0.03409 0.99185 0.0
H2051 H 0.45421 0.04605 0.00727 0.0
H2052 H 0.49377 0.98648 0.02666 0.0
H2053 H 0.45291 0.9531 0.01553 0.0
C2054 C 0.40658 0.96118 0.9967 0.0
C2055 C 0.38357 0.96838 0.98785 0.0
C2056 C 0.42988 0.98026 0.00436 0.0
C2057 C 0.38408 0.99479 0.98631 0.0
C2058 C 0.4073 0.01384 0.99332 0.0
C2059 C 0.45369 0.02576 0.00931 0.0
C2060 C 0.47661 0.0186 0.01828 0.0
C2061 C 0.43027 0.00678 1.00242 0.0
C2062 C 0.47605 0.99241 0.0208 0.0
C2063 C 0.45281 0.97331 0.01393 0.0
H2064 H 0.88391 0.58891 0.76881 0.0
H2065 H 0.83496 0.56133 0.82782 0.0
H2066 H 0.80521 0.5883 0.81425 0.0
H2067 H 0.79565 0.62265 0.78832 0.0
H2068 H 0.84443 0.65 0.72919 0.0
H2069 H 0.87171 0.61966 0.73949 0.0
C2070 C 0.86648 0.58862 0.77832 0.0
C2071 C 0.86145 0.57353 0.79923 0.0
C2072 C 0.84954 0.60389 0.77026 0.0
C2073 C 0.83889 0.57284 0.81149 0.0
C2074 C 0.82203 0.58828 0.80384 0.0
C2075 C 0.81187 0.6213 0.77729 0.0
C2076 C 0.81816 0.63796 0.75794 0.0
C2077 C 0.82746 0.6042 0.78359 0.0
C2078 C 0.83932 0.63684 0.7439 0.0
C2079 C 0.85493 0.61975 0.74994 0.0
H2080 H 0.86749 0.69833 0.07074 0.0
H2081 H 0.81254 0.63813 0.01511 0.0
H2082 H 0.84229 0.60926 0.01767 0.0
H2083 H 0.88309 0.60002 0.03686 0.0
H2084 H 0.93713 0.65795 0.09554 0.0
H2085 H 0.90884 0.68849 0.09094 0.0
C2086 C 0.8622 0.67895 0.05914 0.0
C2087 C 0.8378 0.6704 0.0427 0.0
C2088 C 0.87922 0.66188 0.06143 0.0
C2089 C 0.8311 0.64512 0.028 0.0
C2090 C 0.84813 0.62857 0.02942 0.0
C2091 C 0.88879 0.61941 0.0485 0.0
C2092 C 0.91229 0.62666 0.06642 0.0
C2093 C 0.87212 0.63658 0.04625 0.0
C2094 C 0.91911 0.65177 0.08167 0.0
C2095 C 0.90294 0.66928 0.07898 0.0
H2096 H 0.2022 0.13644 0.79579 0.0
H2097 H 0.15838 0.17786 0.84481 0.0
H2098 H 0.19104 0.21863 0.84604 0.0
H2099 H 0.23111 0.24316 0.83169 0.0
H2100 H 0.27463 0.20224 0.7817 0.0
H2101 H 0.24315 0.16099 0.7823 0.0
C2102 C 0.1999 0.15433 0.80695 0.0
C2103 C 0.17769 0.15391 0.82017 0.0
C2104 C 0.21869 0.17799 0.80725 0.0
C2105 C 0.17506 0.17747 0.83429 0.0
C2106 C 0.1938 0.20088 0.83503 0.0
C2107 C 0.23389 0.22523 0.82105 0.0
C2108 C 0.25546 0.22603 0.80673 0.0
C2109 C 0.21555 0.20147 0.82132 0.0
C2110 C 0.25848 0.20241 0.7931 0.0
C2111 C 0.24036 0.17872 0.79334 0.0
H2112 H 0.36557 0.97282 0.34512 0.0
H2113 H 0.43153 0.93779 0.34539 0.0
H2114 H 0.40191 0.89434 0.33337 0.0
H2115 H 0.35736 0.86732 0.31953 0.0
H2116 H 0.29213 0.90329 0.31819 0.0
H2117 H 0.32187 0.94634 0.33231 0.0
C2118 C 0.37361 0.95573 0.34279 0.0
C2119 C 0.40068 0.95848 0.34578 0.0
C2120 C 0.35673 0.93137 0.33477 0.0
C2121 C 0.41074 0.93611 0.34324 0.0
C2122 C 0.39386 0.91139 0.33597 0.0
C2123 C 0.34981 0.88474 0.32224 0.0
C2124 C 0.32289 0.88278 0.31811 0.0
C2125 C 0.36689 0.909 0.33097 0.0
C2126 C 0.31291 0.90489 0.32165 0.0
C2127 C 0.32983 0.92923 0.32978 0.0
H2128 H 0.59819 0.38871 0.56201 0.0
H2129 H 0.56319 0.39506 0.6355 0.0
H2130 H 0.55311 0.43585 0.62541 0.0
H2131 H 0.55378 0.47172 0.59623 0.0
H2132 H 0.59078 0.46794 0.52413 0.0
H2133 H 0.59999 0.42592 0.53305 0.0
C2134 C 0.58828 0.3988 0.57593 0.0
C2135 C 0.5816 0.38741 0.59989 0.0
C2136 C 0.58265 0.42363 0.57017 0.0
C2137 C 0.56892 0.40215 0.61706 0.0
C2138 C 0.56298 0.426 0.61123 0.0
C2139 C 0.56381 0.46183 0.58225 0.0
C2140 C 0.57117 0.47392 0.55905 0.0
C2141 C 0.56967 0.43724 0.58791 0.0
C2142 C 0.5845 0.45995 0.54197 0.0
C2143 C 0.58987 0.43551 0.54718 0.0
H2144 H 0.40951 0.79222 0.44685 0.0
H2145 H 0.4649 0.78623 0.39103 0.0
H2146 H 0.43365 0.79139 0.35373 0.0
H2147 H 0.39031 0.79787 0.33608 0.0
H2148 H 0.33463 0.80367 0.3916 0.0
H2149 H 0.3658 0.79833 0.42901 0.0
C2150 C 0.41481 0.79185 0.42653 0.0
C2151 C 0.43999 0.78856 0.42227 0.0
C2152 C 0.39644 0.79492 0.4047 0.0
C2153 C 0.44597 0.78843 0.39545 0.0
C2154 C 0.42796 0.7915 0.37388 0.0
C2155 C 0.38484 0.79802 0.35633 0.0
C2156 C 0.35967 0.80137 0.36049 0.0
C2157 C 0.40309 0.79482 0.37813 0.0
C2158 C 0.35355 0.80138 0.38726 0.0
C2159 C 0.37152 0.79823 0.40888 0.0
H2160 H 0.05634 0.72337 0.10204 0.0
H2161 H 0.12215 0.74001 0.05815 0.0
H2162 H 0.11856 0.69352 0.04602 0.0
H2163 H 0.0967 0.64632 0.04686 0.0
H2164 H 0.03025 0.62994 0.08995 0.0
H2165 H 0.03436 0.67634 0.10262 0.0
C2166 C 0.06998 0.71702 0.08983 0.0
C2167 C 0.08957 0.73635 0.0813 0.0
C2168 C 0.06778 0.68936 0.0824 0.0
C2169 C 0.1067 0.72656 0.06532 0.0
C2170 C 0.10473 0.69949 0.05822 0.0
C2171 C 0.08311 0.65271 0.0591 0.0
C2172 C 0.06308 0.63342 0.06712 0.0
C2173 C 0.08534 0.68041 0.06651 0.0
C2174 C 0.04592 0.6433 0.08299 0.0
C2175 C 0.04822 0.67034 0.09046 0.0
H2176 H 0.06088 0.29546 0.8909 0.0
H2177 H 0.10628 0.29986 0.96876 0.0
H2178 H 0.14631 0.30674 0.9476 0.0
H2179 H 0.16865 0.31247 0.90661 0.0
H2180 H 0.12253 0.31047 0.82963 0.0
H2181 H 0.08285 0.3019 0.8507 0.0
C2182 C 0.0795 0.29773 0.90325 0.0
C2183 C 0.08047 0.29689 0.93138 0.0
C2184 C 0.10247 0.30232 0.89104 0.0
C2185 C 0.1049 0.30033 0.94707 0.0
C2186 C 0.12783 0.30429 0.93495 0.0
C2187 C 0.14989 0.31001 0.89447 0.0
C2188 C 0.14869 0.31218 0.86649 0.0
C2189 C 0.12691 0.30544 0.90691 0.0
C2190 C 0.12416 0.30918 0.85118 0.0
C2191 C 0.10137 0.30416 0.86321 0.0
H2192 H 0.58326 0.76283 0.90887 0.0
H2193 H 0.51651 0.78886 0.9324 0.0
H2194 H 0.50396 0.7509 0.95503 0.0
H2195 H 0.51386 0.713 0.97259 0.0
H2196 H 0.57737 0.68266 0.94653 0.0
H2197 H 0.58905 0.71927 0.92094 0.0
C2198 C 0.56562 0.75975 0.91828 0.0
C2199 C 0.55115 0.77912 0.91918 0.0
C2200 C 0.55807 0.73727 0.93145 0.0
C2201 C 0.52831 0.77462 0.93161 0.0
C2202 C 0.52105 0.75286 0.94474 0.0
C2203 C 0.52988 0.71372 0.96085 0.0
C2204 C 0.54483 0.69492 0.96225 0.0
C2205 C 0.53613 0.73444 0.9455 0.0
C2206 C 0.5658 0.69707 0.94689 0.0
C2207 C 0.57243 0.718 0.93189 0.0
H2208 H 0.12405 0.74325 0.7426 0.0
H2209 H 0.12817 0.82479 0.73885 0.0
H2210 H 0.17491 0.83536 0.75468 0.0
H2211 H 0.21626 0.82154 0.76678 0.0
H2212 H 0.2122 0.74026 0.77281 0.0
H2213 H 0.16498 0.72996 0.75955 0.0
C2214 C 0.13485 0.7635 0.74638 0.0
C2215 C 0.12151 0.78325 0.74039 0.0
C2216 C 0.16246 0.7696 0.75549 0.0
C2217 C 0.13695 0.80913 0.74423 0.0
C2218 C 0.1641 0.8152 0.75292 0.0
C2219 C 0.20519 0.8015 0.76531 0.0
C2220 C 0.21872 0.78176 0.77069 0.0
C2221 C 0.17736 0.79561 0.75812 0.0
C2222 C 0.20313 0.75609 0.76882 0.0
C2223 C 0.17577 0.7501 0.76117 0.0
H2224 H 0.10507 0.41925 0.44416 0.0
H2225 H 0.03937 0.41409 0.38385 0.0
H2226 H 0.0278 0.45058 0.41067 0.0
H2227 H 0.03564 0.48375 0.45272 0.0
H2228 H 0.10168 0.48798 0.51263 0.0
H2229 H 0.11402 0.45326 0.48458 0.0
C2230 C 0.08851 0.42646 0.43657 0.0
C2231 C 0.07355 0.4141 0.41146 0.0
C2232 C 0.08196 0.44762 0.45226 0.0
C2233 C 0.05179 0.42352 0.40251 0.0
C2234 C 0.04501 0.44436 0.4181 0.0
C2235 C 0.05283 0.47722 0.4596 0.0
C2236 C 0.06751 0.48877 0.48527 0.0
C2237 C 0.05985 0.4566 0.44319 0.0
C2238 C 0.08966 0.47958 0.49346 0.0
C2239 C 0.09683 0.45959 0.47727 0.0
H2240 H 0.45655 0.29836 0.22356 0.0
H2241 H 0.4626 0.23112 0.26254 0.0
H2242 H 0.42107 0.23115 0.2799 0.0
H2243 H 0.38156 0.25042 0.28453 0.0
H2244 H 0.37938 0.32104 0.25001 0.0
H2245 H 0.41957 0.31945 0.23118 0.0
C2246 C 0.44896 0.28361 0.23588 0.0
C2247 C 0.46349 0.2645 0.24115 0.0
C2248 C 0.42505 0.28437 0.24696 0.0
C2249 C 0.45264 0.24611 0.25774 0.0
C2250 C 0.42851 0.24613 0.26777 0.0
C2251 C 0.38976 0.26556 0.27293 0.0
C2252 C 0.37633 0.28589 0.2689 0.0
C2253 C 0.41425 0.26515 0.26263 0.0
C2254 C 0.38842 0.30515 0.25387 0.0
C2255 C 0.41175 0.30422 0.24287 0.0
H2256 H 0.64936 0.5555 0.39927 0.0
H2257 H 0.58244 0.57482 0.35738 0.0
H2258 H 0.55976 0.56901 0.39704 0.0
H2259 H 0.55852 0.55811 0.44403 0.0
H2260 H 0.62625 0.54118 0.48675 0.0
H2261 H 0.64857 0.54577 0.44659 0.0
C2262 C 0.62987 0.55861 0.39882 0.0
C2263 C 0.61776 0.56563 0.37507 0.0
C2264 C 0.61681 0.55523 0.42192 0.0
C2265 C 0.5924 0.56943 0.37514 0.0
C2266 C 0.5793 0.566 0.39789 0.0
C2267 C 0.57806 0.55514 0.44441 0.0
C2268 C 0.59052 0.54891 0.46837 0.0
C2269 C 0.59119 0.55871 0.42138 0.0
C2270 C 0.61611 0.5458 0.46863 0.0
C2271 C 0.62894 0.54854 0.44564 0.0
H2272 H 0.28371 0.87385 0.0552 0.0
H2273 H 0.36298 0.91803 0.06063 0.0
H2274 H 0.37467 0.90113 0.10264 0.0
H2275 H 0.36248 0.87312 0.1368 0.0
H2276 H 0.28299 0.83031 0.13345 0.0
H2277 H 0.27089 0.8471 0.09122 0.0
C2278 C 0.30334 0.87999 0.06604 0.0
C2279 C 0.32252 0.89722 0.05559 0.0
C2280 C 0.30982 0.87015 0.08998 0.0
C2281 C 0.34804 0.90503 0.06902 0.0
C2282 C 0.35472 0.89523 0.09272 0.0
C2283 C 0.34261 0.86728 0.12653 0.0
C2284 C 0.3237 0.85027 0.13745 0.0
C2285 C 0.33584 0.87757 0.10312 0.0
C2286 C 0.2978 0.8432 0.1248 0.0
C2287 C 0.29092 0.85287 0.10092 0.0
H2288 H 0.92902 0.54662 0.91112 0.0
H2289 H 0.98978 0.58762 0.87058 0.0
H2290 H 0.02252 0.58676 0.90863 0.0
H2291 H 0.03376 0.57304 0.9531 0.0
H2292 H 0.97247 0.53089 0.99231 0.0
H2293 H 0.94002 0.5327 0.95477 0.0
C2294 C 0.94935 0.55597 0.91104 0.0
C2295 C 0.95714 0.56769 0.88867 0.0
C2296 C 0.96797 0.55448 0.93232 0.0
C2297 C 0.98354 0.57893 0.88809 0.0
C2298 C 1.00221 0.57815 0.90958 0.0
C2299 C 1.01333 0.56403 0.95303 0.0
C2300 C 1.00527 0.55193 0.97507 0.0
C2301 C 0.9947 0.56559 0.93162 0.0
C2302 C 0.97885 0.54041 0.97529 0.0
C2303 C 0.96031 0.54157 0.95403 0.0
H2304 H 0.26336 0.27876 0.61169 0.0
H2305 H 0.30476 0.2175 0.61494 0.0
H2306 H 0.31299 0.22728 0.66443 0.0
H2307 H 0.30889 0.25348 0.70717 0.0
H2308 H 0.26556 0.31306 0.70419 0.0
H2309 H 0.25793 0.30389 0.65448 0.0
C2310 C 0.27423 0.2675 0.62312 0.0
C2311 C 0.28353 0.24742 0.60919 0.0
C2312 C 0.27868 0.27304 0.65182 0.0
C2313 C 0.2974 0.23309 0.62475 0.0
C2314 C 0.30215 0.23869 0.65319 0.0
C2315 C 0.29777 0.26448 0.69563 0.0
C2316 C 0.28788 0.28405 0.70953 0.0
C2317 C 0.29297 0.25867 0.66698 0.0
C2318 C 0.27327 0.29783 0.69417 0.0
C2319 C 0.26897 0.29262 0.66568 0.0
H2320 H 0.60555 0.60558 0.2222 0.0
H2321 H 0.60557 0.52492 0.22698 0.0
H2322 H 0.59001 0.51366 0.17818 0.0
H2323 H 0.57665 0.52692 0.13369 0.0
H2324 H 0.57887 0.60832 0.12928 0.0
H2325 H 0.5936 0.619 0.17784 0.0
C2326 C 0.6022 0.58555 0.21253 0.0
C2327 C 0.60676 0.56614 0.22828 0.0
C2328 C 0.59374 0.57932 0.18431 0.0
C2329 C 0.60249 0.5403 0.21533 0.0
C2330 C 0.59348 0.53384 0.1874 0.0
C2331 C 0.58027 0.54699 0.14333 0.0
C2332 C 0.57628 0.56667 0.12753 0.0
C2333 C 0.58908 0.55319 0.17158 0.0
C2334 C 0.58135 0.59259 0.14065 0.0
C2335 C 0.5899 0.59881 0.16857 0.0
H2336 H 0.33163 0.91492 0.92855 0.0
H2337 H 0.2502 0.91241 0.90998 0.0
H2338 H 0.24597 0.87737 0.87219 0.0
H2339 H 0.26412 0.84311 0.84994 0.0
H2340 H 0.34408 0.84165 0.87353 0.0
H2341 H 0.35033 0.88216 0.90509 0.0
C2342 C 0.31319 0.90716 0.91567 0.0
C2343 C 0.29129 0.91605 0.9217 0.0
C2344 C 0.31054 0.88562 0.89598 0.0
C2345 C 0.26739 0.90614 0.9051 0.0
C2346 C 0.26488 0.8857 0.88406 0.0
C2347 C 0.28282 0.85164 0.86223 0.0
C2348 C 0.30349 0.83938 0.86029 0.0
C2349 C 0.28602 0.87448 0.88035 0.0
C2350 C 0.32779 0.85051 0.87568 0.0
C2351 C 0.33142 0.87377 0.89324 0.0
H2352 H 0.95299 0.47494 0.7653 0.0
H2353 H 0.90951 0.52929 0.73859 0.0
H2354 H 0.91789 0.51876 0.69193 0.0
H2355 H 0.94543 0.50124 0.66168 0.0
H2356 H 0.99249 0.45064 0.69105 0.0
H2357 H 0.97409 0.45174 0.73327 0.0
C2358 C 0.94489 0.48405 0.7491 0.0
C2359 C 0.93141 0.5034 0.75526 0.0
C2360 C 0.95059 0.47865 0.72281 0.0
C2361 C 0.92026 0.51455 0.73421 0.0
C2362 C 0.92523 0.50868 0.70764 0.0
C2363 C 0.95132 0.49011 0.67717 0.0
C2364 C 0.97083 0.47644 0.67341 0.0
C2365 C 0.94165 0.4919 0.7021 0.0
C2366 C 0.97758 0.46138 0.69326 0.0
C2367 C 0.96729 0.46223 0.71765 0.0
H2368 H 0.28629 0.20377 0.43446 0.0
H2369 H 0.29215 0.2783 0.48207 0.0
H2370 H 0.30056 0.30035 0.44234 0.0
H2371 H 0.30577 0.2987 0.39324 0.0
H2372 H 0.29803 0.22369 0.34565 0.0
H2373 H 0.29117 0.20204 0.38572 0.0
C2374 C 0.28929 0.22484 0.43619 0.0
C2375 C 0.28844 0.23918 0.46153 0.0
C2376 C 0.29405 0.23752 0.41303 0.0
C2377 C 0.29247 0.26654 0.46303 0.0
C2378 C 0.29743 0.27927 0.44021 0.0
C2379 C 0.30297 0.27766 0.39171 0.0
C2380 C 0.30274 0.26303 0.36617 0.0
C2381 C 0.29833 0.26503 0.41501 0.0
C2382 C 0.29848 0.23565 0.36479 0.0
C2383 C 0.29443 0.22314 0.38781 0.0
H2384 H 0.3229 0.59148 0.54831 0.0
H2385 H 0.38494 0.65368 0.59241 0.0
H2386 H 0.41723 0.63087 0.57704 0.0
H2387 H 0.42734 0.59348 0.55048 0.0
H2388 H 0.36523 0.53293 0.50389 0.0
H2389 H 0.33306 0.55542 0.52004 0.0
C2390 C 0.34349 0.59968 0.55502 0.0
C2391 C 0.35175 0.62366 0.57203 0.0
C2392 C 0.36172 0.58714 0.54513 0.0
C2393 C 0.37837 0.63485 0.57978 0.0
C2394 C 0.39672 0.62199 0.57079 0.0
C2395 C 0.40672 0.5853 0.54392 0.0
C2396 C 0.3984 0.56153 0.52644 0.0
C2397 C 0.38856 0.59823 0.55332 0.0
C2398 C 0.37184 0.55125 0.51741 0.0
C2399 C 0.35355 0.56393 0.52682 0.0
H2400 H 0.93012 0.91261 0.56276 0.0
H2401 H 0.87542 0.95992 0.54662 0.0
H2402 H 0.91112 0.99758 0.54545 0.0
H2403 H 0.95855 0.01697 0.54642 0.0
H2404 H 1.01247 0.96894 0.56308 0.0
H2405 H 0.97692 0.93252 0.56705 0.0
C2406 C 0.92596 0.93116 0.55912 0.0
C2407 C 0.89994 0.93312 0.55465 0.0
C2408 C 0.94669 0.953 0.55862 0.0
C2409 C 0.89517 0.95759 0.55018 0.0
C2410 C 0.91566 0.97929 0.54946 0.0
C2411 C 0.96249 0.9987 0.55139 0.0
C2412 C 0.98832 0.99584 0.55422 0.0
C2413 C 0.94161 0.97726 0.55338 0.0
C2414 C 0.99288 0.9718 0.5605 0.0
C2415 C 0.97248 0.95078 0.56274 0.0
H2416 H 0.95371 0.11666 0.28057 0.0
H2417 H 0.89527 0.0554 0.30346 0.0
H2418 H 0.86743 0.08542 0.31073 0.0
H2419 H 0.85805 0.12801 0.3082 0.0
H2420 H 0.91453 0.18985 0.28369 0.0
H2421 H 0.9443 0.16084 0.27906 0.0
C2422 C 0.93493 0.11004 0.28724 0.0
C2423 C 0.92651 0.08369 0.29119 0.0
C2424 C 0.91844 0.12746 0.29083 0.0
C2425 C 0.90209 0.07541 0.29982 0.0
C2426 C 0.88612 0.0926 0.3041 0.0
C2427 C 0.87703 0.13538 0.30227 0.0
C2428 C 0.88392 0.16118 0.29639 0.0
C2429 C 0.89387 0.11853 0.29931 0.0
C2430 C 0.9085 0.17003 0.28814 0.0
C2431 C 0.92562 0.15344 0.28557 0.0
H2432 H 0.68711 0.15605 0.05799 0.0
H2433 H 0.73107 0.09671 0.06027 0.0
H2434 H 0.69121 0.06352 0.06079 0.0
H2435 H 0.64364 0.05135 0.06077 0.0
H2436 H 0.6006 0.11115 0.06104 0.0
H2437 H 0.64028 0.14423 0.05895 0.0
C2438 C 0.68805 0.13586 0.05845 0.0
C2439 C 0.71208 0.12893 0.05892 0.0
C2440 C 0.66515 0.11693 0.05892 0.0
C2441 C 0.71284 0.10263 0.05974 0.0
C2442 C 0.69006 0.08361 0.06009 0.0
C2443 C 0.64312 0.07165 0.06022 0.0
C2444 C 0.61933 0.0789 0.05973 0.0
C2445 C 0.66612 0.09055 0.05971 0.0
C2446 C 0.61863 0.10515 0.05974 0.0
C2447 C 0.64133 0.12404 0.05904 0.0
H2448 H 0.20713 0.4849 0.2677 0.0
H2449 H 0.27337 0.54776 0.26354 0.0
H2450 H 0.30278 0.52014 0.27537 0.0
H2451 H 0.30971 0.47935 0.29082 0.0
H2452 H 0.24362 0.41729 0.29652 0.0
H2453 H 0.21392 0.44341 0.28035 0.0
C2454 C 0.22798 0.49239 0.26883 0.0
C2455 C 0.23807 0.51833 0.26491 0.0
C2456 C 0.24475 0.47672 0.27643 0.0
C2457 C 0.26512 0.52778 0.2664 0.0
C2458 C 0.28197 0.51212 0.27343 0.0
C2459 C 0.28878 0.47175 0.28847 0.0
C2460 C 0.27856 0.4469 0.29508 0.0
C2461 C 0.27201 0.48685 0.27924 0.0
C2462 C 0.25159 0.43671 0.29183 0.0
C2463 C 0.23473 0.45151 0.28247 0.0
H2464 H 0.22716 0.40033 0.0565 0.0
H2465 H 0.28917 0.45822 0.03415 0.0
H2466 H 0.2592 0.48539 0.02349 0.0
H2467 H 0.21607 0.49426 0.02247 0.0
H2468 H 0.15374 0.43868 0.04725 0.0
H2469 H 0.18285 0.4095 0.05524 0.0
C2470 C 0.23396 0.41887 0.04928 0.0
C2471 C 0.26047 0.42734 0.0464 0.0
C2472 C 0.21656 0.43503 0.04379 0.0
C2473 C 0.269 0.45142 0.03699 0.0
C2474 C 0.25184 0.467 0.03076 0.0
C2475 C 0.2087 0.47562 0.0293 0.0
C2476 C 0.18267 0.46875 0.03415 0.0
C2477 C 0.22567 0.45921 0.03437 0.0
C2478 C 0.17372 0.44464 0.0435 0.0
C2479 C 0.19038 0.42787 0.04802 0.0
H2480 H 0.91064 0.95833 0.30957 0.0
H2481 H 0.94469 0.92439 0.24455 0.0
H2482 H 0.91006 0.88422 0.23912 0.0
H2483 H 0.87106 0.85786 0.25427 0.0
H2484 H 0.83803 0.89138 0.32058 0.0
H2485 H 0.87131 0.93211 0.32441 0.0
C2486 C 0.91036 0.94213 0.29417 0.0
C2487 C 0.93025 0.94426 0.27752 0.0
C2488 C 0.89065 0.91884 0.29158 0.0
C2489 C 0.92978 0.92308 0.25778 0.0
C2490 C 0.90993 0.90014 0.25465 0.0
C2491 C 0.87099 0.87415 0.2694 0.0
C2492 C 0.85177 0.87149 0.28691 0.0
C2493 C 0.89041 0.89763 0.27164 0.0
C2494 C 0.85219 0.89288 0.30648 0.0
C2495 C 0.87137 0.91622 0.30882 0.0
H2496 H 0.69867 0.15452 0.76123 0.0
H2497 H 0.7489 0.13061 0.82184 0.0
H2498 H 0.78098 0.17257 0.82521 0.0
H2499 H 0.79339 0.21656 0.81158 0.0
H2500 H 0.74474 0.23781 0.74735 0.0
H2501 H 0.7131 0.196 0.74422 0.0
C2502 C 0.71656 0.1588 0.77537 0.0
C2503 C 0.72142 0.14047 0.792 0.0
C2504 C 0.73504 0.18211 0.77619 0.0
C2505 C 0.74486 0.14518 0.80949 0.0
C2506 C 0.7631 0.1689 0.81123 0.0
C2507 C 0.77599 0.21166 0.79672 0.0
C2508 C 0.771 0.22974 0.77977 0.0
C2509 C 0.75826 0.18755 0.79477 0.0
C2510 C 0.74875 0.2237 0.76035 0.0
C2511 C 0.73065 0.20005 0.75875 0.0
loop_
_geom_bond_atom_site_label_1
_geom_bond_atom_site_label_2
_geom_bond_distance
_geom_bond_site_symmetry_2
_ccdc_geom_bond_type
Co0 O1 2.216 . S
Co0 O2 2.091 . S
Co0 O4 2.004 . S
Co0 O10 2.021 . S
Co0 O12 2.137 . S
Co0 O13 2.244 . S
O1 Co0 2.216 . S
O1 C8 1.247 . S
O2 Co0 2.091 . S
O2 C8 1.261 . S
C3 O12 1.247 . S
C3 O13 1.272 . S
O4 Co0 2.004 . S
O4 C9 1.259 1_455 S
Co5 O6 2.061 1_455 S
Co5 O11 2.052 . S
Co5 O13 2.135 . S
O6 Co5 2.061 1_655 S
O6 C9 1.235 . S
C7 O10 1.238 . S
C7 O11 1.241 . S
C8 O1 1.247 . S
C8 O2 1.261 . S
C9 O4 1.259 1_655 S
C9 O6 1.235 . S
O10 Co0 2.021 . S
O10 C7 1.238 . S
O11 Co5 2.052 . S
O11 C7 1.241 . S
O12 Co0 2.137 . S
O12 C3 1.247 . S
O13 Co0 2.244 . S
O13 C3 1.272 . S
O13 Co5 2.135 . S
Co14 O15 2.216 1_455 S
Co14 O16 2.091 . S
Co14 O18 2.004 . S
Co14 O24 2.021 . S
Co14 O26 2.137 . S
Co14 O27 2.244 . S
O15 Co14 2.216 1_655 S
O15 C22 1.247 . S
O16 Co14 2.091 . S
O16 C22 1.261 1_455 S
C17 O26 1.247 . S
C17 O27 1.272 . S
O18 Co14 2.004 . S
O18 C23 1.259 . S
Co19 O20 2.061 . S
Co19 O25 2.052 . S
Co19 O27 2.135 . S
O20 Co19 2.061 . S
O20 C23 1.235 . S
C21 O24 1.238 . S
C21 O25 1.241 . S
C22 O15 1.247 . S
C22 O16 1.261 1_655 S
C23 O18 1.259 . S
C23 O20 1.235 . S
O24 Co14 2.021 . S
O24 C21 1.238 . S
O25 Co19 2.052 . S
O25 C21 1.241 . S
O26 Co14 2.137 . S
O26 C17 1.247 . S
O27 Co14 2.244 . S
O27 C17 1.272 . S
O27 Co19 2.135 . S
Co28 O29 2.216 . S
Co28 O30 2.091 . S
Co28 O32 2.004 . S
Co28 O38 2.021 . S
Co28 O40 2.137 . S
Co28 O41 2.244 . S
O29 Co28 2.216 . S
O29 C36 1.247 . S
O30 Co28 2.091 . S
O30 C36 1.261 . S
C31 O40 1.247 . S
C31 O41 1.272 . S
O32 Co28 2.004 . S
O32 C37 1.259 . S
Co33 O34 2.061 . S
Co33 O39 2.052 . S
Co33 O41 2.135 . S
O34 Co33 2.061 . S
O34 C37 1.235 . S
C35 O38 1.238 . S
C35 O39 1.241 . S
C36 O29 1.247 . S
C36 O30 1.261 . S
C37 O32 1.259 . S
C37 O34 1.235 . S
O38 Co28 2.021 . S
O38 C35 1.238 . S
O39 Co33 2.052 . S
O39 C35 1.241 . S
O40 Co28 2.137 . S
O40 C31 1.247 . S
O41 Co28 2.244 . S
O41 C31 1.272 . S
O41 Co33 2.135 . S
Co42 O43 2.216 . S
Co42 O44 2.091 . S
Co42 O46 2.004 . S
Co42 O52 2.021 . S
Co42 O54 2.137 . S
Co42 O55 2.244 . S
O43 Co42 2.216 . S
O43 C50 1.247 . S
O44 Co42 2.091 . S
O44 C50 1.261 . S
C45 O54 1.247 . S
C45 O55 1.272 . S
O46 Co42 2.004 . S
O46 C51 1.259 . S
Co47 O48 2.061 . S
Co47 O53 2.052 . S
Co47 O55 2.135 . S
O48 Co47 2.061 . S
O48 C51 1.235 . S
C49 O52 1.238 . S
C49 O53 1.241 . S
C50 O43 1.247 . S
C50 O44 1.261 . S
C51 O46 1.259 . S
C51 O48 1.235 . S
O52 Co42 2.021 . S
O52 C49 1.238 . S
O53 Co47 2.052 . S
O53 C49 1.241 . S
O54 Co42 2.137 . S
O54 C45 1.247 . S
O55 Co42 2.244 . S
O55 C45 1.272 . S
O55 Co47 2.135 . S
Co56 O57 2.216 . S
Co56 O58 2.091 . S
Co56 O60 2.004 . S
Co56 O66 2.021 . S
Co56 O68 2.137 . S
Co56 O69 2.244 . S
O57 Co56 2.216 . S
O57 C64 1.247 . S
O58 Co56 2.091 . S
O58 C64 1.261 . S
C59 O68 1.247 . S
C59 O69 1.272 . S
O60 Co56 2.004 . S
O60 C65 1.259 . S
Co61 O62 2.061 . S
Co61 O67 2.052 . S
Co61 O69 2.135 . S
O62 Co61 2.061 . S
O62 C65 1.235 . S
C63 O66 1.238 . S
C63 O67 1.241 . S
C64 O57 1.247 . S
C64 O58 1.261 . S
C65 O60 1.259 . S
C65 O62 1.235 . S
O66 Co56 2.021 . S
O66 C63 1.238 . S
O67 Co61 2.052 . S
O67 C63 1.241 . S
O68 Co56 2.137 . S
O68 C59 1.247 . S
O69 Co56 2.244 . S
O69 C59 1.272 . S
O69 Co61 2.135 . S
Co70 O71 2.216 . S
Co70 O72 2.091 . S
Co70 O74 2.004 . S
Co70 O80 2.021 . S
Co70 O82 2.137 . S
Co70 O83 2.244 . S
O71 Co70 2.216 . S
O71 C78 1.247 . S
O72 Co70 2.091 . S
O72 C78 1.261 . S
C73 O82 1.247 . S
C73 O83 1.272 . S
O74 Co70 2.004 . S
O74 C79 1.259 . S
Co75 O76 2.061 . S
Co75 O81 2.052 . S
Co75 O83 2.135 . S
O76 Co75 2.061 . S
O76 C79 1.235 . S
C77 O80 1.238 . S
C77 O81 1.241 . S
C78 O71 1.247 . S
C78 O72 1.261 . S
C79 O74 1.259 . S
C79 O76 1.235 . S
O80 Co70 2.021 . S
O80 C77 1.238 . S
O81 Co75 2.052 . S
O81 C77 1.241 . S
O82 Co70 2.137 . S
O82 C73 1.247 . S
O83 Co70 2.244 . S
O83 C73 1.272 . S
O83 Co75 2.135 . S
Co84 O85 2.216 . S
Co84 O86 2.091 . S
Co84 O88 2.004 . S
Co84 O94 2.021 . S
Co84 O96 2.137 . S
Co84 O97 2.244 . S
O85 Co84 2.216 . S
O85 C92 1.247 . S
O86 Co84 2.091 . S
O86 C92 1.261 . S
C87 O96 1.247 . S
C87 O97 1.272 . S
O88 Co84 2.004 . S
O88 C93 1.259 . S
Co89 O90 2.061 . S
Co89 O95 2.052 . S
Co89 O97 2.135 . S
O90 Co89 2.061 . S
O90 C93 1.235 . S
C91 O94 1.238 . S
C91 O95 1.241 . S
C92 O85 1.247 . S
C92 O86 1.261 . S
C93 O88 1.259 . S
C93 O90 1.235 . S
O94 Co84 2.021 . S
O94 C91 1.238 . S
O95 Co89 2.052 . S
O95 C91 1.241 . S
O96 Co84 2.137 . S
O96 C87 1.247 . S
O97 Co84 2.244 . S
O97 C87 1.272 . S
O97 Co89 2.135 . S
Co98 O99 2.216 . S
Co98 O100 2.091 . S
Co98 O102 2.004 1_455 S
Co98 O108 2.023 1_455 S
Co98 O110 2.137 . S
Co98 O111 2.254 1_556 S
O99 Co98 2.216 . S
O99 C106 1.247 . S
O100 Co98 2.091 . S
O100 C106 1.261 . S
C101 O110 1.247 . S
C101 O111 1.276 1_556 S
O102 Co98 2.004 1_655 S
O102 C107 1.259 . S
Co103 O104 2.061 1_554 S
Co103 O109 2.052 . S
Co103 O111 2.117 1_655 S
O104 Co103 2.061 1_556 S
O104 C107 1.235 . S
C105 O108 1.248 . S
C105 O109 1.241 1_556 S
C106 O99 1.247 . S
C106 O100 1.261 . S
C107 O102 1.259 . S
C107 O104 1.235 . S
O108 Co98 2.023 1_655 S
O108 C105 1.248 . S
O109 Co103 2.052 . S
O109 C105 1.241 1_554 S
O110 Co98 2.137 . S
O110 C101 1.247 . S
O111 Co98 2.254 1_554 S
O111 C101 1.276 1_554 S
O111 Co103 2.117 1_455 S
Co112 O113 2.216 . S
Co112 O114 2.091 . S
Co112 O116 2.004 1_545 S
Co112 O122 2.022 . S
Co112 O124 2.137 . S
Co112 O125 2.251 . S
O113 Co112 2.216 . S
O113 C120 1.247 . S
O114 Co112 2.091 . S
O114 C120 1.261 . S
C115 O124 1.247 . S
C115 O125 1.276 . S
O116 Co112 2.004 1_565 S
O116 C121 1.259 . S
Co117 O118 2.061 . S
Co117 O123 2.052 . S
Co117 O125 2.122 1_565 S
O118 Co117 2.061 . S
O118 C121 1.235 . S
C119 O122 1.228 1_565 S
C119 O123 1.241 . S
C120 O113 1.247 . S
C120 O114 1.261 . S
C121 O116 1.259 . S
C121 O118 1.235 . S
O122 Co112 2.022 . S
O122 C119 1.228 1_545 S
O123 Co117 2.052 . S
O123 C119 1.241 . S
O124 Co112 2.137 . S
O124 C115 1.247 . S
O125 Co112 2.251 . S
O125 C115 1.276 . S
O125 Co117 2.122 1_545 S
Co126 O127 2.216 . S
Co126 O128 2.091 . S
Co126 O130 2.004 . S
Co126 O136 2.021 . S
Co126 O138 2.137 . S
Co126 O139 2.244 . S
O127 Co126 2.216 . S
O127 C134 1.247 . S
O128 Co126 2.091 . S
O128 C134 1.261 . S
C129 O138 1.247 . S
C129 O139 1.272 . S
O130 Co126 2.004 . S
O130 C135 1.259 . S
Co131 O132 2.061 . S
Co131 O137 2.052 . S
Co131 O139 2.135 . S
O132 Co131 2.061 . S
O132 C135 1.235 . S
C133 O136 1.238 . S
C133 O137 1.241 . S
C134 O127 1.247 . S
C134 O128 1.261 . S
C135 O130 1.259 . S
C135 O132 1.235 . S
O136 Co126 2.021 . S
O136 C133 1.238 . S
O137 Co131 2.052 . S
O137 C133 1.241 . S
O138 Co126 2.137 . S
O138 C129 1.247 . S
O139 Co126 2.244 . S
O139 C129 1.272 . S
O139 Co131 2.135 . S
Co140 O141 2.216 . S
Co140 O142 2.091 . S
Co140 O144 2.004 . S
Co140 O150 2.021 . S
Co140 O152 2.137 . S
Co140 O153 2.244 . S
O141 Co140 2.216 . S
O141 C148 1.247 . S
O142 Co140 2.091 . S
O142 C148 1.261 . S
C143 O152 1.247 . S
C143 O153 1.272 . S
O144 Co140 2.004 . S
O144 C149 1.259 . S
Co145 O146 2.061 . S
Co145 O151 2.052 . S
Co145 O153 2.135 . S
O146 Co145 2.061 . S
O146 C149 1.235 . S
C147 O150 1.238 . S
C147 O151 1.241 . S
C148 O141 1.247 . S
C148 O142 1.261 . S
C149 O144 1.259 . S
C149 O146 1.235 . S
O150 Co140 2.021 . S
O150 C147 1.238 . S
O151 Co145 2.052 . S
O151 C147 1.241 . S
O152 Co140 2.137 . S
O152 C143 1.247 . S
O153 Co140 2.244 . S
O153 C143 1.272 . S
O153 Co145 2.135 . S
Co154 O155 2.216 . S
Co154 O156 2.091 1_556 S
Co154 O158 2.004 1_556 S
Co154 O164 2.021 1_556 S
Co154 O166 2.137 . S
Co154 O167 2.244 . S
O155 Co154 2.216 . S
O155 C162 1.247 . S
O156 Co154 2.091 1_554 S
O156 C162 1.261 1_554 S
C157 O166 1.247 . S
C157 O167 1.272 . S
O158 Co154 2.004 1_554 S
O158 C163 1.259 . S
Co159 O160 2.061 1_556 S
Co159 O165 2.052 1_556 S
Co159 O167 2.135 . S
O160 Co159 2.061 1_554 S
O160 C163 1.235 . S
C161 O164 1.238 . S
C161 O165 1.241 . S
C162 O155 1.247 . S
C162 O156 1.261 1_556 S
C163 O158 1.259 . S
C163 O160 1.235 . S
O164 Co154 2.021 1_554 S
O164 C161 1.238 . S
O165 Co159 2.052 1_554 S
O165 C161 1.241 . S
O166 Co154 2.137 . S
O166 C157 1.247 . S
O167 Co154 2.244 . S
O167 C157 1.272 . S
O167 Co159 2.135 . S
Co168 O169 2.216 . S
Co168 O170 2.091 . S
Co168 O172 2.004 . S
Co168 O178 2.021 . S
Co168 O180 2.137 1_554 S
Co168 O181 2.244 . S
O169 Co168 2.216 . S
O169 C176 1.247 . S
O170 Co168 2.091 . S
O170 C176 1.261 . S
C171 O180 1.247 . S
C171 O181 1.272 1_556 S
O172 Co168 2.004 . S
O172 C177 1.259 . S
Co173 O174 2.061 . S
Co173 O179 2.052 . S
Co173 O181 2.135 . S
O174 Co173 2.061 . S
O174 C177 1.235 . S
C175 O178 1.238 . S
C175 O179 1.241 . S
C176 O169 1.247 . S
C176 O170 1.261 . S
C177 O172 1.259 . S
C177 O174 1.235 . S
O178 Co168 2.021 . S
O178 C175 1.238 . S
O179 Co173 2.052 . S
O179 C175 1.241 . S
O180 Co168 2.137 1_556 S
O180 C171 1.247 . S
O181 Co168 2.244 . S
O181 C171 1.272 1_554 S
O181 Co173 2.135 . S
Co182 O183 2.216 . S
Co182 O184 2.091 . S
Co182 O186 2.004 . S
Co182 O192 2.021 . S
Co182 O194 2.137 . S
Co182 O195 2.244 . S
O183 Co182 2.216 . S
O183 C190 1.247 . S
O184 Co182 2.091 . S
O184 C190 1.261 . S
C185 O194 1.247 . S
C185 O195 1.272 . S
O186 Co182 2.004 . S
O186 C191 1.259 . S
Co187 O188 2.061 . S
Co187 O193 2.052 . S
Co187 O195 2.135 . S
O188 Co187 2.061 . S
O188 C191 1.235 . S
C189 O192 1.238 . S
C189 O193 1.241 . S
C190 O183 1.247 . S
C190 O184 1.261 . S
C191 O186 1.259 . S
C191 O188 1.235 . S
O192 Co182 2.021 . S
O192 C189 1.238 . S
O193 Co187 2.052 . S
O193 C189 1.241 . S
O194 Co182 2.137 . S
O194 C185 1.247 . S
O195 Co182 2.244 . S
O195 C185 1.272 . S
O195 Co187 2.135 . S
Co196 O197 2.216 . S
Co196 O198 2.091 . S
Co196 O200 2.004 . S
Co196 O206 2.021 . S
Co196 O208 2.137 . S
Co196 O209 2.244 . S
O197 Co196 2.216 . S
O197 C204 1.247 . S
O198 Co196 2.091 . S
O198 C204 1.261 . S
C199 O208 1.247 . S
C199 O209 1.272 . S
O200 Co196 2.004 . S
O200 C205 1.259 . S
Co201 O202 2.061 . S
Co201 O207 2.052 . S
Co201 O209 2.135 . S
O202 Co201 2.061 . S
O202 C205 1.235 . S
C203 O206 1.238 . S
C203 O207 1.241 . S
C204 O197 1.247 . S
C204 O198 1.261 . S
C205 O200 1.259 . S
C205 O202 1.235 . S
O206 Co196 2.021 . S
O206 C203 1.238 . S
O207 Co201 2.052 . S
O207 C203 1.241 . S
O208 Co196 2.137 . S
O208 C199 1.247 . S
O209 Co196 2.244 . S
O209 C199 1.272 . S
O209 Co201 2.135 . S
Co210 O211 2.216 . S
Co210 O212 2.091 . S
Co210 O214 2.004 . S
Co210 O220 2.021 . S
Co210 O222 2.137 . S
Co210 O223 2.244 . S
O211 Co210 2.216 . S
O211 C218 1.247 . S
O212 Co210 2.091 . S
O212 C218 1.261 . S
C213 O222 1.247 . S
C213 O223 1.272 . S
O214 Co210 2.004 . S
O214 C219 1.259 . S
Co215 O216 2.061 . S
Co215 O221 2.052 . S
Co215 O223 2.135 . S
O216 Co215 2.061 . S
O216 C219 1.235 . S
C217 O220 1.238 . S
C217 O221 1.241 . S
C218 O211 1.247 . S
C218 O212 1.261 . S
C219 O214 1.259 . S
C219 O216 1.235 . S
O220 Co210 2.021 . S
O220 C217 1.238 . S
O221 Co215 2.052 . S
O221 C217 1.241 . S
O222 Co210 2.137 . S
O222 C213 1.247 . S
O223 Co210 2.244 . S
O223 C213 1.272 . S
O223 Co215 2.135 . S
Co224 O225 2.216 . S
Co224 O226 2.091 . S
Co224 O228 2.004 1_545 S
Co224 O234 2.021 . S
Co224 O236 2.137 . S
Co224 O237 2.244 . S
O225 Co224 2.216 . S
O225 C232 1.247 . S
O226 Co224 2.091 . S
O226 C232 1.261 . S
C227 O236 1.247 . S
C227 O237 1.272 . S
O228 Co224 2.004 1_565 S
O228 C233 1.259 . S
Co229 O230 2.061 . S
Co229 O235 2.053 1_565 S
Co229 O237 2.136 1_565 S
O230 Co229 2.061 . S
O230 C233 1.235 . S
C231 O234 1.238 . S
C231 O235 1.241 . S
C232 O225 1.247 . S
C232 O226 1.261 . S
C233 O228 1.259 . S
C233 O230 1.235 . S
O234 Co224 2.021 . S
O234 C231 1.238 . S
O235 Co229 2.053 1_545 S
O235 C231 1.241 . S
O236 Co224 2.137 . S
O236 C227 1.247 . S
O237 Co224 2.244 . S
O237 C227 1.272 . S
O237 Co229 2.136 1_545 S
Co238 O239 2.216 . S
Co238 O240 2.091 . S
Co238 O242 2.004 . S
Co238 O248 2.021 . S
Co238 O250 2.137 . S
Co238 O251 2.244 . S
O239 Co238 2.216 . S
O239 C246 1.247 . S
O240 Co238 2.091 . S
O240 C246 1.261 . S
C241 O250 1.247 . S
C241 O251 1.272 . S
O242 Co238 2.004 . S
O242 C247 1.259 . S
Co243 O244 2.061 . S
Co243 O249 2.052 . S
Co243 O251 2.135 . S
O244 Co243 2.061 . S
O244 C247 1.235 . S
C245 O248 1.238 . S
C245 O249 1.241 . S
C246 O239 1.247 . S
C246 O240 1.261 . S
C247 O242 1.259 . S
C247 O244 1.235 . S
O248 Co238 2.021 . S
O248 C245 1.238 . S
O249 Co243 2.052 . S
O249 C245 1.241 . S
O250 Co238 2.137 . S
O250 C241 1.247 . S
O251 Co238 2.244 . S
O251 C241 1.272 . S
O251 Co243 2.135 . S
Co252 O253 2.216 . S
Co252 O254 2.091 . S
Co252 O256 2.004 . S
Co252 O262 2.021 . S
Co252 O264 2.137 . S
Co252 O265 2.244 . S
O253 Co252 2.216 . S
O253 C260 1.247 . S
O254 Co252 2.091 . S
O254 C260 1.261 . S
C255 O264 1.247 . S
C255 O265 1.272 . S
O256 Co252 2.004 . S
O256 C261 1.259 . S
Co257 O258 2.061 . S
Co257 O263 2.052 . S
Co257 O265 2.135 . S
O258 Co257 2.061 . S
O258 C261 1.235 . S
C259 O262 1.238 . S
C259 O263 1.241 . S
C260 O253 1.247 . S
C260 O254 1.261 . S
C261 O256 1.259 . S
C261 O258 1.235 . S
O262 Co252 2.021 . S
O262 C259 1.238 . S
O263 Co257 2.052 . S
O263 C259 1.241 . S
O264 Co252 2.137 . S
O264 C255 1.247 . S
O265 Co252 2.244 . S
O265 C255 1.272 . S
O265 Co257 2.135 . S
Co266 O267 2.216 . S
Co266 O268 2.091 . S
Co266 O270 2.004 . S
Co266 O276 2.021 . S
Co266 O278 2.137 . S
Co266 O279 2.244 . S
O267 Co266 2.216 . S
O267 C274 1.247 . S
O268 Co266 2.091 . S
O268 C274 1.261 . S
C269 O278 1.247 . S
C269 O279 1.272 . S
O270 Co266 2.004 . S
O270 C275 1.259 . S
Co271 O272 2.061 . S
Co271 O277 2.052 . S
Co271 O279 2.135 . S
O272 Co271 2.061 . S
O272 C275 1.235 . S
C273 O276 1.238 . S
C273 O277 1.241 . S
C274 O267 1.247 . S
C274 O268 1.261 . S
C275 O270 1.259 . S
C275 O272 1.235 . S
O276 Co266 2.021 . S
O276 C273 1.238 . S
O277 Co271 2.052 . S
O277 C273 1.241 . S
O278 Co266 2.137 . S
O278 C269 1.247 . S
O279 Co266 2.244 . S
O279 C269 1.272 . S
O279 Co271 2.135 . S
Co280 O281 2.216 . S
Co280 O282 2.091 . S
Co280 O284 2.004 . S
Co280 O290 2.021 . S
Co280 O292 2.137 1_554 S
Co280 O293 2.244 . S
O281 Co280 2.216 . S
O281 C288 1.247 . S
O282 Co280 2.091 . S
O282 C288 1.261 . S
C283 O292 1.247 . S
C283 O293 1.272 1_556 S
O284 Co280 2.004 . S
O284 C289 1.259 . S
Co285 O286 2.061 . S
Co285 O291 2.052 . S
Co285 O293 2.135 . S
O286 Co285 2.061 . S
O286 C289 1.235 . S
C287 O290 1.238 . S
C287 O291 1.241 . S
C288 O281 1.247 . S
C288 O282 1.261 . S
C289 O284 1.259 . S
C289 O286 1.235 . S
O290 Co280 2.021 . S
O290 C287 1.238 . S
O291 Co285 2.052 . S
O291 C287 1.241 . S
O292 Co280 2.137 1_556 S
O292 C283 1.247 . S
O293 Co280 2.244 . S
O293 C283 1.272 1_554 S
O293 Co285 2.135 . S
Co294 O295 2.216 . S
Co294 O296 2.091 . S
Co294 O298 2.004 . S
Co294 O304 2.021 . S
Co294 O306 2.137 . S
Co294 O307 2.244 . S
O295 Co294 2.216 . S
O295 C302 1.247 . S
O296 Co294 2.091 . S
O296 C302 1.261 . S
C297 O306 1.247 . S
C297 O307 1.272 . S
O298 Co294 2.004 . S
O298 C303 1.259 . S
Co299 O300 2.061 . S
Co299 O305 2.052 . S
Co299 O307 2.135 . S
O300 Co299 2.061 . S
O300 C303 1.235 . S
C301 O304 1.238 . S
C301 O305 1.241 . S
C302 O295 1.247 . S
C302 O296 1.261 . S
C303 O298 1.259 . S
C303 O300 1.235 . S
O304 Co294 2.021 . S
O304 C301 1.238 . S
O305 Co299 2.052 . S
O305 C301 1.241 . S
O306 Co294 2.137 . S
O306 C297 1.247 . S
O307 Co294 2.244 . S
O307 C297 1.272 . S
O307 Co299 2.135 . S
Co308 O309 2.216 . S
Co308 O310 2.091 . S
Co308 O312 2.004 . S
Co308 O318 2.021 . S
Co308 O320 2.137 . S
Co308 O321 2.244 . S
O309 Co308 2.216 . S
O309 C316 1.247 . S
O310 Co308 2.091 . S
O310 C316 1.261 . S
C311 O320 1.247 . S
C311 O321 1.272 . S
O312 Co308 2.004 . S
O312 C317 1.259 . S
Co313 O314 2.061 . S
Co313 O319 2.052 . S
Co313 O321 2.135 . S
O314 Co313 2.061 . S
O314 C317 1.235 . S
C315 O318 1.238 . S
C315 O319 1.241 . S
C316 O309 1.247 . S
C316 O310 1.261 . S
C317 O312 1.259 . S
C317 O314 1.235 . S
O318 Co308 2.021 . S
O318 C315 1.238 . S
O319 Co313 2.052 . S
O319 C315 1.241 . S
O320 Co308 2.137 . S
O320 C311 1.247 . S
O321 Co308 2.244 . S
O321 C311 1.272 . S
O321 Co313 2.135 . S
Co322 O323 2.216 . S
Co322 O324 2.091 . S
Co322 O326 2.004 . S
Co322 O332 2.021 . S
Co322 O334 2.137 . S
Co322 O335 2.244 . S
O323 Co322 2.216 . S
O323 C330 1.247 . S
O324 Co322 2.091 . S
O324 C330 1.261 . S
C325 O334 1.247 . S
C325 O335 1.272 . S
O326 Co322 2.004 . S
O326 C331 1.259 . S
Co327 O328 2.061 . S
Co327 O333 2.052 . S
Co327 O335 2.135 . S
O328 Co327 2.061 . S
O328 C331 1.235 . S
C329 O332 1.238 . S
C329 O333 1.241 . S
C330 O323 1.247 . S
C330 O324 1.261 . S
C331 O326 1.259 . S
C331 O328 1.235 . S
O332 Co322 2.021 . S
O332 C329 1.238 . S
O333 Co327 2.052 . S
O333 C329 1.241 . S
O334 Co322 2.137 . S
O334 C325 1.247 . S
O335 Co322 2.244 . S
O335 C325 1.272 . S
O335 Co327 2.135 . S
Dy336 O339 2.307 . S
Dy336 O341 2.395 . S
Dy336 O342 2.379 . S
Dy336 O344 2.339 . S
Dy336 O346 2.298 . S
Dy336 O350 2.275 . S
Dy336 C358 2.738 . S
Dy337 O340 2.298 1_655 S
Dy337 O343 2.275 1_655 S
Dy337 O345 2.307 1_655 S
Dy337 O347 2.395 . S
Dy337 O348 2.379 . S
Dy337 O351 2.339 1_654 S
Dy337 C367 2.738 . S
C338 O350 1.254 1_556 S
C338 O351 1.257 . S
O339 Dy336 2.307 . S
O339 C349 1.266 . S
O340 Dy337 2.298 1_455 S
O340 C349 1.236 . S
O341 Dy336 2.395 . S
O341 C358 1.255 . S
O342 Dy336 2.379 . S
O342 C358 1.249 . S
O343 Dy337 2.275 1_455 S
O343 C359 1.254 . S
O344 Dy336 2.339 . S
O344 C359 1.257 . S
O345 Dy337 2.307 1_455 S
O345 C360 1.266 1_545 S
O346 Dy336 2.298 . S
O346 C360 1.236 1_545 S
O347 Dy337 2.395 . S
O347 C367 1.255 . S
O348 Dy337 2.379 . S
O348 C367 1.249 . S
C349 O339 1.266 . S
C349 O340 1.236 . S
O350 Dy336 2.275 . S
O350 C338 1.254 1_554 S
O351 Dy337 2.339 1_456 S
O351 C338 1.257 . S
C352 C355 1.344 . S
C352 C356 1.328 . S
C352 C358 1.516 . S
C353 C354 1.304 . S
C353 C357 1.323 . S
C354 C353 1.304 . S
C354 C355 1.371 . S
C354 H368 0.930 . S
C355 C352 1.344 . S
C355 C354 1.371 . S
C355 H369 0.931 . S
C356 C352 1.328 . S
C356 C357 1.433 . S
C356 H370 0.931 . S
C357 C353 1.323 . S
C357 C356 1.433 . S
C357 H371 0.933 . S
C358 Dy336 2.738 . S
C358 O341 1.255 . S
C358 O342 1.249 . S
C358 C352 1.516 . S
C359 O343 1.254 . S
C359 O344 1.257 . S
C360 O345 1.266 1_565 S
C360 O346 1.236 1_565 S
C361 C364 1.344 . S
C361 C365 1.328 1_554 S
C361 C367 1.516 . S
C362 C363 1.304 . S
C362 C366 1.323 1_554 S
C363 C362 1.304 . S
C363 C364 1.371 . S
C363 H372 0.930 . S
C364 C361 1.344 . S
C364 C363 1.371 . S
C364 H373 0.931 . S
C365 C361 1.328 1_556 S
C365 C366 1.433 . S
C365 H374 0.931 . S
C366 C362 1.323 1_556 S
C366 C365 1.433 . S
C366 H375 0.933 . S
C367 Dy337 2.738 . S
C367 O347 1.255 . S
C367 O348 1.249 . S
C367 C361 1.516 . S
H368 C354 0.930 . S
H369 C355 0.931 . S
H370 C356 0.931 . S
H371 C357 0.933 . S
H372 C363 0.930 . S
H373 C364 0.931 . S
H374 C365 0.931 . S
H375 C366 0.933 . S
Dy376 O379 2.307 . S
Dy376 O381 2.395 . S
Dy376 O382 2.379 . S
Dy376 O384 2.339 . S
Dy376 O386 2.298 . S
Dy376 O390 2.275 . S
Dy376 C398 2.738 . S
Dy377 O380 2.298 . S
Dy377 O383 2.275 . S
Dy377 O385 2.307 . S
Dy377 O387 2.395 . S
Dy377 O388 2.379 . S
Dy377 O391 2.339 . S
Dy377 C407 2.738 . S
C378 O390 1.254 . S
C378 O391 1.257 . S
O379 Dy376 2.307 . S
O379 C389 1.266 . S
O380 Dy377 2.298 . S
O380 C389 1.236 . S
O381 Dy376 2.395 . S
O381 C398 1.255 . S
O382 Dy376 2.379 . S
O382 C398 1.249 . S
O383 Dy377 2.275 . S
O383 C399 1.254 . S
O384 Dy376 2.339 . S
O384 C399 1.257 . S
O385 Dy377 2.307 . S
O385 C400 1.266 . S
O386 Dy376 2.298 . S
O386 C400 1.236 . S
O387 Dy377 2.395 . S
O387 C407 1.255 . S
O388 Dy377 2.379 . S
O388 C407 1.249 . S
C389 O379 1.266 . S
C389 O380 1.236 . S
O390 Dy376 2.275 . S
O390 C378 1.254 . S
O391 Dy377 2.339 . S
O391 C378 1.257 . S
C392 C395 1.344 . S
C392 C396 1.328 . S
C392 C398 1.516 . S
C393 C394 1.304 . S
C393 C397 1.323 . S
C394 C393 1.304 . S
C394 C395 1.371 . S
C394 H408 0.930 . S
C395 C392 1.344 . S
C395 C394 1.371 . S
C395 H409 0.931 . S
C396 C392 1.328 . S
C396 C397 1.433 . S
C396 H410 0.931 . S
C397 C393 1.323 . S
C397 C396 1.433 . S
C397 H411 0.933 . S
C398 Dy376 2.738 . S
C398 O381 1.255 . S
C398 O382 1.249 . S
C398 C392 1.516 . S
C399 O383 1.254 . S
C399 O384 1.257 . S
C400 O385 1.266 . S
C400 O386 1.236 . S
C401 C404 1.344 . S
C401 C405 1.328 . S
C401 C407 1.516 . S
C402 C403 1.304 . S
C402 C406 1.323 . S
C403 C402 1.304 . S
C403 C404 1.371 . S
C403 H412 0.930 . S
C404 C401 1.344 . S
C404 C403 1.371 . S
C404 H413 0.931 . S
C405 C401 1.328 . S
C405 C406 1.433 . S
C405 H414 0.931 . S
C406 C402 1.323 . S
C406 C405 1.433 . S
C406 H415 0.933 . S
C407 Dy377 2.738 . S
C407 O387 1.255 . S
C407 O388 1.249 . S
C407 C401 1.516 . S
H408 C394 0.930 . S
H409 C395 0.931 . S
H410 C396 0.931 . S
H411 C397 0.933 . S
H412 C403 0.930 . S
H413 C404 0.931 . S
H414 C405 0.931 . S
H415 C406 0.933 . S
Dy416 O419 2.307 . S
Dy416 O421 2.395 . S
Dy416 O422 2.379 . S
Dy416 O424 2.339 . S
Dy416 O426 2.298 . S
Dy416 O430 2.275 . S
Dy416 C438 2.738 . S
Dy417 O420 2.298 . S
Dy417 O423 2.275 . S
Dy417 O425 2.307 . S
Dy417 O427 2.395 . S
Dy417 O428 2.379 . S
Dy417 O431 2.339 . S
Dy417 C447 2.738 . S
C418 O430 1.254 . S
C418 O431 1.257 . S
O419 Dy416 2.307 . S
O419 C429 1.266 1_545 S
O420 Dy417 2.298 . S
O420 C429 1.236 1_545 S
O421 Dy416 2.395 . S
O421 C438 1.255 . S
O422 Dy416 2.379 . S
O422 C438 1.249 . S
O423 Dy417 2.275 . S
O423 C439 1.254 . S
O424 Dy416 2.339 . S
O424 C439 1.257 . S
O425 Dy417 2.307 . S
O425 C440 1.266 . S
O426 Dy416 2.298 . S
O426 C440 1.236 . S
O427 Dy417 2.395 . S
O427 C447 1.255 . S
O428 Dy417 2.379 . S
O428 C447 1.249 . S
C429 O419 1.266 1_565 S
C429 O420 1.236 1_565 S
O430 Dy416 2.275 . S
O430 C418 1.254 . S
O431 Dy417 2.339 . S
O431 C418 1.257 . S
C432 C435 1.344 . S
C432 C436 1.328 . S
C432 C438 1.516 . S
C433 C434 1.304 . S
C433 C437 1.323 . S
C434 C433 1.304 . S
C434 C435 1.371 . S
C434 H448 0.930 . S
C435 C432 1.344 . S
C435 C434 1.371 . S
C435 H449 0.931 . S
C436 C432 1.328 . S
C436 C437 1.433 . S
C436 H450 0.931 . S
C437 C433 1.323 . S
C437 C436 1.433 . S
C437 H451 0.933 . S
C438 Dy416 2.738 . S
C438 O421 1.255 . S
C438 O422 1.249 . S
C438 C432 1.516 . S
C439 O423 1.254 . S
C439 O424 1.257 . S
C440 O425 1.266 . S
C440 O426 1.236 . S
C441 C444 1.344 1_545 S
C441 C445 1.328 . S
C441 C447 1.516 . S
C442 C443 1.304 . S
C442 C446 1.323 . S
C443 C442 1.304 . S
C443 C444 1.371 . S
C443 H452 0.930 . S
C444 C441 1.344 1_565 S
C444 C443 1.371 . S
C444 H453 0.931 . S
C445 C441 1.328 . S
C445 C446 1.433 1_545 S
C445 H454 0.931 . S
C446 C442 1.323 . S
C446 C445 1.433 1_565 S
C446 H455 0.933 . S
C447 Dy417 2.738 . S
C447 O427 1.255 . S
C447 O428 1.249 . S
C447 C441 1.516 . S
H448 C434 0.930 . S
H449 C435 0.931 . S
H450 C436 0.931 . S
H451 C437 0.933 . S
H452 C443 0.930 . S
H453 C444 0.931 . S
H454 C445 0.931 . S
H455 C446 0.933 . S
Dy456 O459 2.307 . S
Dy456 O461 2.395 . S
Dy456 O462 2.379 . S
Dy456 O464 2.339 . S
Dy456 O466 2.298 . S
Dy456 O470 2.275 . S
Dy456 C478 2.738 . S
Dy457 O460 2.298 . S
Dy457 O463 2.275 . S
Dy457 O465 2.307 . S
Dy457 O467 2.395 . S
Dy457 O468 2.379 . S
Dy457 O471 2.339 . S
Dy457 C487 2.738 . S
C458 O470 1.254 . S
C458 O471 1.257 . S
O459 Dy456 2.307 . S
O459 C469 1.266 . S
O460 Dy457 2.298 . S
O460 C469 1.236 . S
O461 Dy456 2.395 . S
O461 C478 1.255 . S
O462 Dy456 2.379 . S
O462 C478 1.249 . S
O463 Dy457 2.275 . S
O463 C479 1.254 . S
O464 Dy456 2.339 . S
O464 C479 1.257 . S
O465 Dy457 2.307 . S
O465 C480 1.266 . S
O466 Dy456 2.298 . S
O466 C480 1.236 . S
O467 Dy457 2.395 . S
O467 C487 1.255 . S
O468 Dy457 2.379 . S
O468 C487 1.249 . S
C469 O459 1.266 . S
C469 O460 1.236 . S
O470 Dy456 2.275 . S
O470 C458 1.254 . S
O471 Dy457 2.339 . S
O471 C458 1.257 . S
C472 C475 1.344 . S
C472 C476 1.328 . S
C472 C478 1.516 . S
C473 C474 1.304 . S
C473 C477 1.323 . S
C474 C473 1.304 . S
C474 C475 1.371 . S
C474 H488 0.930 . S
C475 C472 1.344 . S
C475 C474 1.371 . S
C475 H489 0.931 . S
C476 C472 1.328 . S
C476 C477 1.433 . S
C476 H490 0.931 . S
C477 C473 1.323 . S
C477 C476 1.433 . S
C477 H491 0.933 . S
C478 Dy456 2.738 . S
C478 O461 1.255 . S
C478 O462 1.249 . S
C478 C472 1.516 . S
C479 O463 1.254 . S
C479 O464 1.257 . S
C480 O465 1.266 . S
C480 O466 1.236 . S
C481 C484 1.344 . S
C481 C485 1.328 . S
C481 C487 1.516 . S
C482 C483 1.304 . S
C482 C486 1.323 . S
C483 C482 1.304 . S
C483 C484 1.371 . S
C483 H492 0.930 . S
C484 C481 1.344 . S
C484 C483 1.371 . S
C484 H493 0.931 . S
C485 C481 1.328 . S
C485 C486 1.433 . S
C485 H494 0.931 . S
C486 C482 1.323 . S
C486 C485 1.433 . S
C486 H495 0.933 . S
C487 Dy457 2.738 . S
C487 O467 1.255 . S
C487 O468 1.249 . S
C487 C481 1.516 . S
H488 C474 0.930 . S
H489 C475 0.931 . S
H490 C476 0.931 . S
H491 C477 0.933 . S
H492 C483 0.930 . S
H493 C484 0.931 . S
H494 C485 0.931 . S
H495 C486 0.933 . S
Dy496 O499 2.307 . S
Dy496 O501 2.395 1_545 S
Dy496 O502 2.379 1_545 S
Dy496 O504 2.339 . S
Dy496 O506 2.298 . S
Dy496 O510 2.275 . S
Dy496 C518 2.738 1_545 S
Dy497 O500 2.298 . S
Dy497 O503 2.275 . S
Dy497 O505 2.307 . S
Dy497 O507 2.395 . S
Dy497 O508 2.386 . S
Dy497 O511 2.339 1_455 S
Dy497 C527 2.738 . S
C498 O510 1.254 1_655 S
C498 O511 1.257 . S
O499 Dy496 2.307 . S
O499 C509 1.266 . S
O500 Dy497 2.298 . S
O500 C509 1.236 . S
O501 Dy496 2.395 1_565 S
O501 C518 1.255 . S
O502 Dy496 2.379 1_565 S
O502 C518 1.249 . S
O503 Dy497 2.275 . S
O503 C519 1.254 . S
O504 Dy496 2.339 . S
O504 C519 1.257 . S
O505 Dy497 2.307 . S
O505 C520 1.266 . S
O506 Dy496 2.298 . S
O506 C520 1.236 . S
O507 Dy497 2.395 . S
O507 C527 1.255 . S
O508 Dy497 2.386 . S
O508 C527 1.257 . S
C509 O499 1.266 . S
C509 O500 1.236 . S
O510 Dy496 2.275 . S
O510 C498 1.254 1_455 S
O511 Dy497 2.339 1_655 S
O511 C498 1.257 . S
C512 C515 1.344 . S
C512 C516 1.328 . S
C512 C518 1.516 . S
C513 C514 1.304 . S
C513 C517 1.323 . S
C514 C513 1.304 . S
C514 C515 1.371 . S
C514 H528 0.930 . S
C515 C512 1.344 . S
C515 C514 1.371 . S
C515 H529 0.931 . S
C516 C512 1.328 . S
C516 C517 1.433 . S
C516 H530 0.931 . S
C517 C513 1.323 . S
C517 C516 1.433 . S
C517 H531 0.933 . S
C518 Dy496 2.738 1_565 S
C518 O501 1.255 . S
C518 O502 1.249 . S
C518 C512 1.516 . S
C519 O503 1.254 . S
C519 O504 1.257 . S
C520 O505 1.266 . S
C520 O506 1.236 . S
C521 C524 1.344 . S
C521 C525 1.328 1_455 S
C521 C527 1.516 . S
C522 C523 1.304 . S
C522 C526 1.323 1_455 S
C523 C522 1.304 . S
C523 C524 1.371 . S
C523 H532 0.930 . S
C524 C521 1.344 . S
C524 C523 1.371 . S
C524 H533 0.931 . S
C525 C521 1.328 1_655 S
C525 C526 1.433 . S
C525 H534 0.931 . S
C526 C522 1.323 1_655 S
C526 C525 1.433 . S
C526 H535 0.933 . S
C527 Dy497 2.738 . S
C527 O507 1.255 . S
C527 O508 1.257 . S
C527 C521 1.516 . S
H528 C514 0.930 . S
H529 C515 0.931 . S
H530 C516 0.931 . S
H531 C517 0.933 . S
H532 C523 0.930 . S
H533 C524 0.931 . S
H534 C525 0.931 . S
H535 C526 0.933 . S
Dy536 O539 2.307 . S
Dy536 O541 2.395 . S
Dy536 O542 2.379 . S
Dy536 O544 2.339 . S
Dy536 O546 2.298 . S
Dy536 O550 2.275 . S
Dy536 C558 2.738 . S
Dy537 O540 2.298 . S
Dy537 O543 2.275 . S
Dy537 O545 2.307 . S
Dy537 O547 2.395 . S
Dy537 O548 2.379 . S
Dy537 O551 2.339 . S
Dy537 C567 2.738 . S
C538 O550 1.254 . S
C538 O551 1.257 . S
O539 Dy536 2.307 . S
O539 C549 1.266 . S
O540 Dy537 2.298 . S
O540 C549 1.236 . S
O541 Dy536 2.395 . S
O541 C558 1.255 . S
O542 Dy536 2.379 . S
O542 C558 1.249 . S
O543 Dy537 2.275 . S
O543 C559 1.254 . S
O544 Dy536 2.339 . S
O544 C559 1.257 . S
O545 Dy537 2.307 . S
O545 C560 1.266 . S
O546 Dy536 2.298 . S
O546 C560 1.236 . S
O547 Dy537 2.395 . S
O547 C567 1.255 . S
O548 Dy537 2.379 . S
O548 C567 1.249 . S
C549 O539 1.266 . S
C549 O540 1.236 . S
O550 Dy536 2.275 . S
O550 C538 1.254 . S
O551 Dy537 2.339 . S
O551 C538 1.257 . S
C552 C555 1.344 . S
C552 C556 1.328 . S
C552 C558 1.516 . S
C553 C554 1.304 . S
C553 C557 1.323 . S
C554 C553 1.304 . S
C554 C555 1.371 . S
C554 H568 0.930 . S
C555 C552 1.344 . S
C555 C554 1.371 . S
C555 H569 0.931 . S
C556 C552 1.328 . S
C556 C557 1.433 . S
C556 H570 0.931 . S
C557 C553 1.323 . S
C557 C556 1.433 . S
C557 H571 0.933 . S
C558 Dy536 2.738 . S
C558 O541 1.255 . S
C558 O542 1.249 . S
C558 C552 1.516 . S
C559 O543 1.254 . S
C559 O544 1.257 . S
C560 O545 1.266 . S
C560 O546 1.236 . S
C561 C564 1.344 . S
C561 C565 1.328 . S
C561 C567 1.516 . S
C562 C563 1.304 . S
C562 C566 1.323 . S
C563 C562 1.304 . S
C563 C564 1.371 . S
C563 H572 0.930 . S
C564 C561 1.344 . S
C564 C563 1.371 . S
C564 H573 0.931 . S
C565 C561 1.328 . S
C565 C566 1.433 . S
C565 H574 0.931 . S
C566 C562 1.323 . S
C566 C565 1.433 . S
C566 H575 0.933 . S
C567 Dy537 2.738 . S
C567 O547 1.255 . S
C567 O548 1.249 . S
C567 C561 1.516 . S
H568 C554 0.930 . S
H569 C555 0.931 . S
H570 C556 0.931 . S
H571 C557 0.933 . S
H572 C563 0.930 . S
H573 C564 0.931 . S
H574 C565 0.931 . S
H575 C566 0.933 . S
Dy576 O579 2.307 . S
Dy576 O581 2.395 1_554 S
Dy576 O582 2.379 1_554 S
Dy576 O584 2.339 . S
Dy576 O586 2.298 . S
Dy576 O590 2.275 . S
Dy576 C598 2.738 1_554 S
Dy577 O580 2.298 . S
Dy577 O583 2.275 . S
Dy577 O585 2.307 . S
Dy577 O587 2.395 . S
Dy577 O588 2.379 . S
Dy577 O591 2.339 1_545 S
Dy577 C607 2.738 . S
C578 O590 1.254 . S
C578 O591 1.257 1_545 S
O579 Dy576 2.307 . S
O579 C589 1.266 . S
O580 Dy577 2.298 . S
O580 C589 1.236 . S
O581 Dy576 2.395 1_556 S
O581 C598 1.255 . S
O582 Dy576 2.379 1_556 S
O582 C598 1.249 . S
O583 Dy577 2.275 . S
O583 C599 1.254 . S
O584 Dy576 2.339 . S
O584 C599 1.257 . S
O585 Dy577 2.307 . S
O585 C600 1.266 . S
O586 Dy576 2.298 . S
O586 C600 1.236 . S
O587 Dy577 2.395 . S
O587 C607 1.255 . S
O588 Dy577 2.379 . S
O588 C607 1.249 . S
C589 O579 1.266 . S
C589 O580 1.236 . S
O590 Dy576 2.275 . S
O590 C578 1.254 . S
O591 Dy577 2.339 1_565 S
O591 C578 1.257 1_565 S
C592 C595 1.344 . S
C592 C596 1.328 . S
C592 C598 1.516 . S
C593 C594 1.304 . S
C593 C597 1.323 . S
C594 C593 1.304 . S
C594 C595 1.371 . S
C594 H608 0.930 . S
C595 C592 1.344 . S
C595 C594 1.371 . S
C595 H609 0.931 . S
C596 C592 1.328 . S
C596 C597 1.433 . S
C596 H610 0.931 . S
C597 C593 1.323 . S
C597 C596 1.433 . S
C597 H611 0.933 . S
C598 Dy576 2.738 1_556 S
C598 O581 1.255 . S
C598 O582 1.249 . S
C598 C592 1.516 . S
C599 O583 1.254 . S
C599 O584 1.257 . S
C600 O585 1.266 . S
C600 O586 1.236 . S
C601 C604 1.344 . S
C601 C605 1.328 1_545 S
C601 C607 1.516 . S
C602 C603 1.304 1_565 S
C602 C606 1.323 . S
C603 C602 1.304 1_545 S
C603 C604 1.371 . S
C603 H612 0.930 . S
C604 C601 1.344 . S
C604 C603 1.371 . S
C604 H613 0.931 . S
C605 C601 1.328 1_565 S
C605 C606 1.433 . S
C605 H614 0.931 . S
C606 C602 1.323 . S
C606 C605 1.433 . S
C606 H615 0.933 . S
C607 Dy577 2.738 . S
C607 O587 1.255 . S
C607 O588 1.249 . S
C607 C601 1.516 . S
H608 C594 0.930 . S
H609 C595 0.931 . S
H610 C596 0.931 . S
H611 C597 0.933 . S
H612 C603 0.930 . S
H613 C604 0.931 . S
H614 C605 0.931 . S
H615 C606 0.933 . S
Dy616 O619 2.307 . S
Dy616 O621 2.395 . S
Dy616 O622 2.379 . S
Dy616 O624 2.339 . S
Dy616 O626 2.298 . S
Dy616 O630 2.275 . S
Dy616 C638 2.738 . S
Dy617 O620 2.298 . S
Dy617 O623 2.275 . S
Dy617 O625 2.307 . S
Dy617 O627 2.395 . S
Dy617 O628 2.379 . S
Dy617 O631 2.339 . S
Dy617 C647 2.738 . S
C618 O630 1.254 . S
C618 O631 1.257 . S
O619 Dy616 2.307 . S
O619 C629 1.266 . S
O620 Dy617 2.298 . S
O620 C629 1.236 . S
O621 Dy616 2.395 . S
O621 C638 1.255 . S
O622 Dy616 2.379 . S
O622 C638 1.249 . S
O623 Dy617 2.275 . S
O623 C639 1.254 . S
O624 Dy616 2.339 . S
O624 C639 1.257 . S
O625 Dy617 2.307 . S
O625 C640 1.266 . S
O626 Dy616 2.298 . S
O626 C640 1.236 . S
O627 Dy617 2.395 . S
O627 C647 1.255 . S
O628 Dy617 2.379 . S
O628 C647 1.249 . S
C629 O619 1.266 . S
C629 O620 1.236 . S
O630 Dy616 2.275 . S
O630 C618 1.254 . S
O631 Dy617 2.339 . S
O631 C618 1.257 . S
C632 C635 1.344 . S
C632 C636 1.328 . S
C632 C638 1.516 . S
C633 C634 1.304 . S
C633 C637 1.323 . S
C634 C633 1.304 . S
C634 C635 1.371 . S
C634 H648 0.930 . S
C635 C632 1.344 . S
C635 C634 1.371 . S
C635 H649 0.931 . S
C636 C632 1.328 . S
C636 C637 1.433 . S
C636 H650 0.931 . S
C637 C633 1.323 . S
C637 C636 1.433 . S
C637 H651 0.933 . S
C638 Dy616 2.738 . S
C638 O621 1.255 . S
C638 O622 1.249 . S
C638 C632 1.516 . S
C639 O623 1.254 . S
C639 O624 1.257 . S
C640 O625 1.266 . S
C640 O626 1.236 . S
C641 C644 1.344 . S
C641 C645 1.328 . S
C641 C647 1.516 . S
C642 C643 1.304 . S
C642 C646 1.323 . S
C643 C642 1.304 . S
C643 C644 1.371 . S
C643 H652 0.930 . S
C644 C641 1.344 . S
C644 C643 1.371 . S
C644 H653 0.931 . S
C645 C641 1.328 . S
C645 C646 1.433 . S
C645 H654 0.931 . S
C646 C642 1.323 . S
C646 C645 1.433 . S
C646 H655 0.933 . S
C647 Dy617 2.738 . S
C647 O627 1.255 . S
C647 O628 1.249 . S
C647 C641 1.516 . S
H648 C634 0.930 . S
H649 C635 0.931 . S
H650 C636 0.931 . S
H651 C637 0.933 . S
H652 C643 0.930 . S
H653 C644 0.931 . S
H654 C645 0.931 . S
H655 C646 0.933 . S
Dy656 O659 2.307 1_554 S
Dy656 O661 2.395 . S
Dy656 O662 2.379 . S
Dy656 O664 2.339 . S
Dy656 O666 2.298 . S
Dy656 O670 2.275 . S
Dy656 C678 2.738 . S
Dy657 O660 2.298 1_554 S
Dy657 O663 2.275 . S
Dy657 O665 2.307 . S
Dy657 O667 2.395 . S
Dy657 O668 2.379 . S
Dy657 O671 2.339 . S
Dy657 C687 2.738 . S
C658 O670 1.254 . S
C658 O671 1.257 . S
O659 Dy656 2.307 1_556 S
O659 C669 1.266 . S
O660 Dy657 2.298 1_556 S
O660 C669 1.236 . S
O661 Dy656 2.395 . S
O661 C678 1.255 . S
O662 Dy656 2.379 . S
O662 C678 1.249 . S
O663 Dy657 2.275 . S
O663 C679 1.254 . S
O664 Dy656 2.339 . S
O664 C679 1.257 . S
O665 Dy657 2.307 . S
O665 C680 1.266 . S
O666 Dy656 2.298 . S
O666 C680 1.236 . S
O667 Dy657 2.395 . S
O667 C687 1.255 . S
O668 Dy657 2.379 . S
O668 C687 1.249 . S
C669 O659 1.266 . S
C669 O660 1.236 . S
O670 Dy656 2.275 . S
O670 C658 1.254 . S
O671 Dy657 2.339 . S
O671 C658 1.257 . S
C672 C675 1.344 . S
C672 C676 1.328 . S
C672 C678 1.516 . S
C673 C674 1.304 . S
C673 C677 1.323 . S
C674 C673 1.304 . S
C674 C675 1.371 . S
C674 H688 0.930 . S
C675 C672 1.344 . S
C675 C674 1.371 . S
C675 H689 0.931 . S
C676 C672 1.328 . S
C676 C677 1.433 . S
C676 H690 0.931 . S
C677 C673 1.323 . S
C677 C676 1.433 . S
C677 H691 0.933 . S
C678 Dy656 2.738 . S
C678 O661 1.255 . S
C678 O662 1.249 . S
C678 C672 1.516 . S
C679 O663 1.254 . S
C679 O664 1.257 . S
C680 O665 1.266 . S
C680 O666 1.236 . S
C681 C684 1.344 . S
C681 C685 1.332 . S
C681 C687 1.516 1_556 S
C682 C683 1.304 . S
C682 C686 1.323 . S
C683 C682 1.304 . S
C683 C684 1.371 . S
C683 H692 0.930 . S
C684 C681 1.344 . S
C684 C683 1.371 . S
C684 H693 0.931 . S
C685 C681 1.332 . S
C685 C686 1.457 . S
C685 H694 0.905 1_556 S
C686 C682 1.323 . S
C686 C685 1.457 . S
C686 H695 0.933 . S
C687 Dy657 2.738 . S
C687 O667 1.255 . S
C687 O668 1.249 . S
C687 C681 1.516 1_554 S
H688 C674 0.930 . S
H689 C675 0.931 . S
H690 C676 0.931 . S
H691 C677 0.933 . S
H692 C683 0.930 . S
H693 C684 0.931 . S
H694 C685 0.905 1_554 S
H695 C686 0.933 . S
Dy696 O699 2.307 . S
Dy696 O701 2.395 . S
Dy696 O702 2.379 . S
Dy696 O704 2.339 . S
Dy696 O706 2.298 . S
Dy696 O710 2.275 . S
Dy696 C718 2.738 . S
Dy697 O700 2.298 . S
Dy697 O703 2.275 . S
Dy697 O705 2.307 . S
Dy697 O707 2.395 . S
Dy697 O708 2.379 . S
Dy697 O711 2.339 . S
Dy697 C727 2.738 . S
C698 O710 1.254 . S
C698 O711 1.257 . S
O699 Dy696 2.307 . S
O699 C709 1.266 . S
O700 Dy697 2.298 . S
O700 C709 1.236 . S
O701 Dy696 2.395 . S
O701 C718 1.255 . S
O702 Dy696 2.379 . S
O702 C718 1.249 . S
O703 Dy697 2.275 . S
O703 C719 1.254 . S
O704 Dy696 2.339 . S
O704 C719 1.257 . S
O705 Dy697 2.307 . S
O705 C720 1.266 . S
O706 Dy696 2.298 . S
O706 C720 1.236 . S
O707 Dy697 2.395 . S
O707 C727 1.255 . S
O708 Dy697 2.379 . S
O708 C727 1.249 . S
C709 O699 1.266 . S
C709 O700 1.236 . S
O710 Dy696 2.275 . S
O710 C698 1.254 . S
O711 Dy697 2.339 . S
O711 C698 1.257 . S
C712 C715 1.344 . S
C712 C716 1.328 . S
C712 C718 1.516 . S
C713 C714 1.304 . S
C713 C717 1.323 . S
C714 C713 1.304 . S
C714 C715 1.371 . S
C714 H728 0.930 . S
C715 C712 1.344 . S
C715 C714 1.371 . S
C715 H729 0.931 . S
C716 C712 1.328 . S
C716 C717 1.433 . S
C716 H730 0.931 . S
C717 C713 1.323 . S
C717 C716 1.433 . S
C717 H731 0.933 . S
C718 Dy696 2.738 . S
C718 O701 1.255 . S
C718 O702 1.249 . S
C718 C712 1.516 . S
C719 O703 1.254 . S
C719 O704 1.257 . S
C720 O705 1.266 . S
C720 O706 1.236 . S
C721 C724 1.344 . S
C721 C725 1.328 . S
C721 C727 1.516 . S
C722 C723 1.304 . S
C722 C726 1.323 . S
C723 C722 1.304 . S
C723 C724 1.371 . S
C723 H732 0.930 . S
C724 C721 1.344 . S
C724 C723 1.371 . S
C724 H733 0.931 . S
C725 C721 1.328 . S
C725 C726 1.433 . S
C725 H734 0.931 . S
C726 C722 1.323 . S
C726 C725 1.433 . S
C726 H735 0.933 . S
C727 Dy697 2.738 . S
C727 O707 1.255 . S
C727 O708 1.249 . S
C727 C721 1.516 . S
H728 C714 0.930 . S
H729 C715 0.931 . S
H730 C716 0.931 . S
H731 C717 0.933 . S
H732 C723 0.930 . S
H733 C724 0.931 . S
H734 C725 0.931 . S
H735 C726 0.933 . S
Dy736 O739 2.307 1_455 S
Dy736 O741 2.395 . S
Dy736 O742 2.379 . S
Dy736 O744 2.339 . S
Dy736 O746 2.298 . S
Dy736 O750 2.275 . S
Dy736 C758 2.738 . S
Dy737 O740 2.298 1_455 S
Dy737 O743 2.275 . S
Dy737 O745 2.307 . S
Dy737 O747 2.395 . S
Dy737 O748 2.379 . S
Dy737 O751 2.339 . S
Dy737 C767 2.738 . S
C738 O750 1.254 . S
C738 O751 1.257 . S
O739 Dy736 2.307 1_655 S
O739 C749 1.266 . S
O740 Dy737 2.298 1_655 S
O740 C749 1.236 . S
O741 Dy736 2.395 . S
O741 C758 1.255 . S
O742 Dy736 2.379 . S
O742 C758 1.249 . S
O743 Dy737 2.275 . S
O743 C759 1.254 . S
O744 Dy736 2.339 . S
O744 C759 1.257 . S
O745 Dy737 2.307 . S
O745 C760 1.266 . S
O746 Dy736 2.298 . S
O746 C760 1.236 . S
O747 Dy737 2.395 . S
O747 C767 1.255 . S
O748 Dy737 2.379 . S
O748 C767 1.249 . S
C749 O739 1.266 . S
C749 O740 1.236 . S
O750 Dy736 2.275 . S
O750 C738 1.254 . S
O751 Dy737 2.339 . S
O751 C738 1.257 . S
C752 C755 1.344 . S
C752 C756 1.328 . S
C752 C758 1.516 . S
C753 C754 1.304 . S
C753 C757 1.323 . S
C754 C753 1.304 . S
C754 C755 1.371 . S
C754 H768 0.930 . S
C755 C752 1.344 . S
C755 C754 1.371 . S
C755 H769 0.931 . S
C756 C752 1.328 . S
C756 C757 1.433 . S
C756 H770 0.931 . S
C757 C753 1.323 . S
C757 C756 1.433 . S
C757 H771 0.933 . S
C758 Dy736 2.738 . S
C758 O741 1.255 . S
C758 O742 1.249 . S
C758 C752 1.516 . S
C759 O743 1.254 . S
C759 O744 1.257 . S
C760 O745 1.266 . S
C760 O746 1.236 . S
C761 C764 1.344 . S
C761 C765 1.328 . S
C761 C767 1.516 1_655 S
C762 C763 1.304 . S
C762 C766 1.323 . S
C763 C762 1.304 . S
C763 C764 1.371 . S
C763 H772 0.930 . S
C764 C761 1.344 . S
C764 C763 1.371 . S
C764 H773 0.931 . S
C765 C761 1.328 . S
C765 C766 1.433 . S
C765 H774 0.931 . S
C766 C762 1.323 . S
C766 C765 1.433 . S
C766 H775 0.933 . S
C767 Dy737 2.738 . S
C767 O747 1.255 . S
C767 O748 1.249 . S
C767 C761 1.516 1_455 S
H768 C754 0.930 . S
H769 C755 0.931 . S
H770 C756 0.931 . S
H771 C757 0.933 . S
H772 C763 0.930 . S
H773 C764 0.931 . S
H774 C765 0.931 . S
H775 C766 0.933 . S
Dy776 O779 2.307 . S
Dy776 O781 2.395 . S
Dy776 O782 2.379 . S
Dy776 O784 2.339 . S
Dy776 O786 2.298 . S
Dy776 O790 2.275 . S
Dy776 C798 2.738 . S
Dy777 O780 2.298 . S
Dy777 O783 2.275 . S
Dy777 O785 2.307 . S
Dy777 O787 2.395 . S
Dy777 O788 2.379 . S
Dy777 O791 2.339 . S
Dy777 C807 2.738 . S
C778 O790 1.254 . S
C778 O791 1.257 . S
O779 Dy776 2.307 . S
O779 C789 1.266 . S
O780 Dy777 2.298 . S
O780 C789 1.236 . S
O781 Dy776 2.395 . S
O781 C798 1.255 . S
O782 Dy776 2.379 . S
O782 C798 1.249 . S
O783 Dy777 2.275 . S
O783 C799 1.254 . S
O784 Dy776 2.339 . S
O784 C799 1.257 . S
O785 Dy777 2.307 . S
O785 C800 1.266 . S
O786 Dy776 2.298 . S
O786 C800 1.236 . S
O787 Dy777 2.395 . S
O787 C807 1.255 . S
O788 Dy777 2.379 . S
O788 C807 1.249 . S
C789 O779 1.266 . S
C789 O780 1.236 . S
O790 Dy776 2.275 . S
O790 C778 1.254 . S
O791 Dy777 2.339 . S
O791 C778 1.257 . S
C792 C795 1.344 . S
C792 C796 1.328 . S
C792 C798 1.516 . S
C793 C794 1.304 . S
C793 C797 1.323 . S
C794 C793 1.304 . S
C794 C795 1.371 . S
C794 H808 0.930 . S
C795 C792 1.344 . S
C795 C794 1.371 . S
C795 H809 0.931 . S
C796 C792 1.328 . S
C796 C797 1.433 . S
C796 H810 0.931 . S
C797 C793 1.323 . S
C797 C796 1.433 . S
C797 H811 0.933 . S
C798 Dy776 2.738 . S
C798 O781 1.255 . S
C798 O782 1.249 . S
C798 C792 1.516 . S
C799 O783 1.254 . S
C799 O784 1.257 . S
C800 O785 1.266 . S
C800 O786 1.236 . S
C801 C804 1.344 . S
C801 C805 1.328 . S
C801 C807 1.516 . S
C802 C803 1.304 . S
C802 C806 1.323 . S
C803 C802 1.304 . S
C803 C804 1.371 . S
C803 H812 0.930 . S
C804 C801 1.344 . S
C804 C803 1.371 . S
C804 H813 0.931 . S
C805 C801 1.328 . S
C805 C806 1.433 . S
C805 H814 0.931 . S
C806 C802 1.323 . S
C806 C805 1.433 . S
C806 H815 0.933 . S
C807 Dy777 2.738 . S
C807 O787 1.255 . S
C807 O788 1.249 . S
C807 C801 1.516 . S
H808 C794 0.930 . S
H809 C795 0.931 . S
H810 C796 0.931 . S
H811 C797 0.933 . S
H812 C803 0.930 . S
H813 C804 0.931 . S
H814 C805 0.931 . S
H815 C806 0.933 . S
Dy816 O819 2.307 . S
Dy816 O821 2.395 . S
Dy816 O822 2.379 . S
Dy816 O824 2.339 . S
Dy816 O826 2.298 . S
Dy816 O830 2.275 . S
Dy816 C838 2.738 . S
Dy817 O820 2.298 . S
Dy817 O823 2.275 . S
Dy817 O825 2.307 . S
Dy817 O827 2.395 . S
Dy817 O828 2.379 . S
Dy817 O831 2.339 . S
Dy817 C847 2.738 . S
C818 O830 1.254 . S
C818 O831 1.257 . S
O819 Dy816 2.307 . S
O819 C829 1.266 . S
O820 Dy817 2.298 . S
O820 C829 1.236 . S
O821 Dy816 2.395 . S
O821 C838 1.255 . S
O822 Dy816 2.379 . S
O822 C838 1.249 . S
O823 Dy817 2.275 . S
O823 C839 1.254 . S
O824 Dy816 2.339 . S
O824 C839 1.257 . S
O825 Dy817 2.307 . S
O825 C840 1.266 . S
O826 Dy816 2.298 . S
O826 C840 1.236 . S
O827 Dy817 2.395 . S
O827 C847 1.255 . S
O828 Dy817 2.379 . S
O828 C847 1.249 . S
C829 O819 1.266 . S
C829 O820 1.236 . S
O830 Dy816 2.275 . S
O830 C818 1.254 . S
O831 Dy817 2.339 . S
O831 C818 1.257 . S
C832 C835 1.344 . S
C832 C836 1.328 . S
C832 C838 1.516 . S
C833 C834 1.304 . S
C833 C837 1.323 . S
C834 C833 1.304 . S
C834 C835 1.371 . S
C834 H848 0.930 . S
C835 C832 1.344 . S
C835 C834 1.371 . S
C835 H849 0.931 . S
C836 C832 1.328 . S
C836 C837 1.433 . S
C836 H850 0.931 . S
C837 C833 1.323 . S
C837 C836 1.433 . S
C837 H851 0.933 . S
C838 Dy816 2.738 . S
C838 O821 1.255 . S
C838 O822 1.249 . S
C838 C832 1.516 . S
C839 O823 1.254 . S
C839 O824 1.257 . S
C840 O825 1.266 . S
C840 O826 1.236 . S
C841 C844 1.344 . S
C841 C845 1.328 . S
C841 C847 1.516 . S
C842 C843 1.304 . S
C842 C846 1.323 . S
C843 C842 1.304 . S
C843 C844 1.371 . S
C843 H852 0.930 . S
C844 C841 1.344 . S
C844 C843 1.371 . S
C844 H853 0.931 . S
C845 C841 1.328 . S
C845 C846 1.433 . S
C845 H854 0.931 . S
C846 C842 1.323 . S
C846 C845 1.433 . S
C846 H855 0.933 . S
C847 Dy817 2.738 . S
C847 O827 1.255 . S
C847 O828 1.249 . S
C847 C841 1.516 . S
H848 C834 0.930 . S
H849 C835 0.931 . S
H850 C836 0.931 . S
H851 C837 0.933 . S
H852 C843 0.930 . S
H853 C844 0.931 . S
H854 C845 0.931 . S
H855 C846 0.933 . S
Dy856 O859 2.307 . S
Dy856 O861 2.395 . S
Dy856 O862 2.379 . S
Dy856 O864 2.339 . S
Dy856 O866 2.298 . S
Dy856 O870 2.275 . S
Dy856 C878 2.738 . S
Dy857 O860 2.298 . S
Dy857 O863 2.275 . S
Dy857 O865 2.307 . S
Dy857 O867 2.395 . S
Dy857 O868 2.379 . S
Dy857 O871 2.339 . S
Dy857 C887 2.738 . S
C858 O870 1.254 . S
C858 O871 1.257 . S
O859 Dy856 2.307 . S
O859 C869 1.266 . S
O860 Dy857 2.298 . S
O860 C869 1.236 . S
O861 Dy856 2.395 . S
O861 C878 1.255 . S
O862 Dy856 2.379 . S
O862 C878 1.249 . S
O863 Dy857 2.275 . S
O863 C879 1.254 . S
O864 Dy856 2.339 . S
O864 C879 1.257 . S
O865 Dy857 2.307 . S
O865 C880 1.266 . S
O866 Dy856 2.298 . S
O866 C880 1.236 . S
O867 Dy857 2.395 . S
O867 C887 1.255 . S
O868 Dy857 2.379 . S
O868 C887 1.249 . S
C869 O859 1.266 . S
C869 O860 1.236 . S
O870 Dy856 2.275 . S
O870 C858 1.254 . S
O871 Dy857 2.339 . S
O871 C858 1.257 . S
C872 C875 1.344 . S
C872 C876 1.328 . S
C872 C878 1.516 . S
C873 C874 1.304 . S
C873 C877 1.323 . S
C874 C873 1.304 . S
C874 C875 1.371 . S
C874 H888 0.930 . S
C875 C872 1.344 . S
C875 C874 1.371 . S
C875 H889 0.931 . S
C876 C872 1.328 . S
C876 C877 1.433 . S
C876 H890 0.931 . S
C877 C873 1.323 . S
C877 C876 1.433 . S
C877 H891 0.933 . S
C878 Dy856 2.738 . S
C878 O861 1.255 . S
C878 O862 1.249 . S
C878 C872 1.516 . S
C879 O863 1.254 . S
C879 O864 1.257 . S
C880 O865 1.266 . S
C880 O866 1.236 . S
C881 C884 1.344 . S
C881 C885 1.328 . S
C881 C887 1.516 . S
C882 C883 1.304 . S
C882 C886 1.323 . S
C883 C882 1.304 . S
C883 C884 1.371 . S
C883 H892 0.930 . S
C884 C881 1.344 . S
C884 C883 1.371 . S
C884 H893 0.931 . S
C885 C881 1.328 . S
C885 C886 1.433 . S
C885 H894 0.931 . S
C886 C882 1.323 . S
C886 C885 1.433 . S
C886 H895 0.933 . S
C887 Dy857 2.738 . S
C887 O867 1.255 . S
C887 O868 1.249 . S
C887 C881 1.516 . S
H888 C874 0.930 . S
H889 C875 0.931 . S
H890 C876 0.931 . S
H891 C877 0.933 . S
H892 C883 0.930 . S
H893 C884 0.931 . S
H894 C885 0.931 . S
H895 C886 0.933 . S
Dy896 O899 2.307 . S
Dy896 O901 2.395 . S
Dy896 O902 2.379 . S
Dy896 O904 2.339 . S
Dy896 O906 2.298 . S
Dy896 O910 2.275 . S
Dy896 C918 2.738 . S
Dy897 O900 2.298 . S
Dy897 O903 2.275 . S
Dy897 O905 2.307 . S
Dy897 O907 2.395 . S
Dy897 O908 2.379 . S
Dy897 O911 2.339 . S
Dy897 C927 2.738 . S
C898 O910 1.254 . S
C898 O911 1.257 . S
O899 Dy896 2.307 . S
O899 C909 1.266 . S
O900 Dy897 2.298 . S
O900 C909 1.236 . S
O901 Dy896 2.395 . S
O901 C918 1.255 . S
O902 Dy896 2.379 . S
O902 C918 1.249 . S
O903 Dy897 2.275 . S
O903 C919 1.254 . S
O904 Dy896 2.339 . S
O904 C919 1.257 . S
O905 Dy897 2.307 . S
O905 C920 1.266 . S
O906 Dy896 2.298 . S
O906 C920 1.236 . S
O907 Dy897 2.395 . S
O907 C927 1.255 . S
O908 Dy897 2.379 . S
O908 C927 1.249 . S
C909 O899 1.266 . S
C909 O900 1.236 . S
O910 Dy896 2.275 . S
O910 C898 1.254 . S
O911 Dy897 2.339 . S
O911 C898 1.257 . S
C912 C915 1.344 . S
C912 C916 1.328 . S
C912 C918 1.516 . S
C913 C914 1.304 . S
C913 C917 1.323 . S
C914 C913 1.304 . S
C914 C915 1.371 . S
C914 H928 0.930 . S
C915 C912 1.344 . S
C915 C914 1.371 . S
C915 H929 0.931 . S
C916 C912 1.328 . S
C916 C917 1.433 . S
C916 H930 0.931 . S
C917 C913 1.323 . S
C917 C916 1.433 . S
C917 H931 0.933 . S
C918 Dy896 2.738 . S
C918 O901 1.255 . S
C918 O902 1.249 . S
C918 C912 1.516 . S
C919 O903 1.254 . S
C919 O904 1.257 . S
C920 O905 1.266 . S
C920 O906 1.236 . S
C921 C924 1.344 . S
C921 C925 1.328 . S
C921 C927 1.516 . S
C922 C923 1.304 . S
C922 C926 1.323 . S
C923 C922 1.304 . S
C923 C924 1.371 . S
C923 H932 0.930 . S
C924 C921 1.344 . S
C924 C923 1.371 . S
C924 H933 0.931 . S
C925 C921 1.328 . S
C925 C926 1.433 . S
C925 H934 0.931 . S
C926 C922 1.323 . S
C926 C925 1.433 . S
C926 H935 0.933 . S
C927 Dy897 2.738 . S
C927 O907 1.255 . S
C927 O908 1.249 . S
C927 C921 1.516 . S
H928 C914 0.930 . S
H929 C915 0.931 . S
H930 C916 0.931 . S
H931 C917 0.933 . S
H932 C923 0.930 . S
H933 C924 0.931 . S
H934 C925 0.931 . S
H935 C926 0.933 . S
Dy936 O939 2.307 . S
Dy936 O941 2.395 1_455 S
Dy936 O942 2.379 1_455 S
Dy936 O944 2.339 . S
Dy936 O946 2.298 . S
Dy936 O950 2.275 . S
Dy936 C958 2.738 1_455 S
Dy937 O940 2.298 . S
Dy937 O943 2.275 . S
Dy937 O945 2.307 . S
Dy937 O947 2.395 . S
Dy937 O948 2.379 1_554 S
Dy937 O951 2.339 1_554 S
Dy937 C967 2.738 . S
C938 O950 1.254 1_556 S
C938 O951 1.257 . S
O939 Dy936 2.307 . S
O939 C949 1.266 . S
O940 Dy937 2.298 . S
O940 C949 1.236 . S
O941 Dy936 2.395 1_655 S
O941 C958 1.255 . S
O942 Dy936 2.379 1_655 S
O942 C958 1.249 . S
O943 Dy937 2.275 . S
O943 C959 1.254 . S
O944 Dy936 2.339 . S
O944 C959 1.257 . S
O945 Dy937 2.307 . S
O945 C960 1.266 . S
O946 Dy936 2.298 . S
O946 C960 1.236 . S
O947 Dy937 2.395 . S
O947 C967 1.255 . S
O948 Dy937 2.379 1_556 S
O948 C967 1.249 1_556 S
C949 O939 1.266 . S
C949 O940 1.236 . S
O950 Dy936 2.275 . S
O950 C938 1.254 1_554 S
O951 Dy937 2.339 1_556 S
O951 C938 1.257 . S
C952 C955 1.344 . S
C952 C956 1.328 . S
C952 C958 1.516 . S
C953 C954 1.304 . S
C953 C957 1.323 . S
C954 C953 1.304 . S
C954 C955 1.371 . S
C954 H968 0.930 . S
C955 C952 1.344 . S
C955 C954 1.371 . S
C955 H969 0.931 . S
C956 C952 1.328 . S
C956 C957 1.433 . S
C956 H970 0.931 . S
C957 C953 1.323 . S
C957 C956 1.433 . S
C957 H971 0.933 . S
C958 Dy936 2.738 1_655 S
C958 O941 1.255 . S
C958 O942 1.249 . S
C958 C952 1.516 . S
C959 O943 1.254 . S
C959 O944 1.257 . S
C960 O945 1.266 . S
C960 O946 1.236 . S
C961 C964 1.344 . S
C961 C965 1.328 1_554 S
C961 C967 1.516 . S
C962 C963 1.304 . S
C962 C966 1.323 1_554 S
C963 C962 1.304 . S
C963 C964 1.371 . S
C963 H972 0.930 . S
C964 C961 1.344 . S
C964 C963 1.371 . S
C964 H973 0.931 . S
C965 C961 1.328 1_556 S
C965 C966 1.433 . S
C965 H974 0.931 . S
C966 C962 1.323 1_556 S
C966 C965 1.433 . S
C966 H975 0.933 . S
C967 Dy937 2.738 . S
C967 O947 1.255 . S
C967 O948 1.249 1_554 S
C967 C961 1.516 . S
H968 C954 0.930 . S
H969 C955 0.931 . S
H970 C956 0.931 . S
H971 C957 0.933 . S
H972 C963 0.930 . S
H973 C964 0.931 . S
H974 C965 0.931 . S
H975 C966 0.933 . S
H976 C982 0.930 . S
H977 C985 0.930 . S
H978 C986 0.930 . S
H979 C987 0.930 . S
H980 C990 0.930 . S
H981 C991 0.930 1_655 S
C982 H976 0.930 . S
C982 C983 1.355 1_655 S
C982 C984 1.414 1_655 S
C983 C982 1.355 1_455 S
C983 C985 1.419 1_554 S
C984 C982 1.414 1_455 S
C984 C989 1.425 . S
C984 C991 1.409 . S
C985 H977 0.930 . S
C985 C983 1.419 1_556 S
C985 C986 1.362 . S
C986 H978 0.930 . S
C986 C985 1.362 . S
C986 C989 1.409 1_556 S
C987 H979 0.930 . S
C987 C988 1.355 . S
C987 C989 1.415 . S
C988 C987 1.355 . S
C988 C990 1.419 . S
C989 C984 1.425 . S
C989 C986 1.409 1_554 S
C989 C987 1.415 . S
C990 H980 0.930 . S
C990 C988 1.419 . S
C990 C991 1.362 . S
C991 H981 0.930 1_455 S
C991 C984 1.409 . S
C991 C990 1.362 . S
H992 C998 0.930 . S
H993 C1001 0.930 . S
H994 C1002 0.930 . S
H995 C1003 0.930 . S
H996 C1006 0.930 . S
H997 C1007 0.930 . S
C998 H992 0.930 . S
C998 C999 1.355 . S
C998 C1000 1.415 . S
C999 C998 1.355 . S
C999 C1001 1.419 . S
C1000 C998 1.415 . S
C1000 C1005 1.425 . S
C1000 C1007 1.409 . S
C1001 H993 0.930 . S
C1001 C999 1.419 . S
C1001 C1002 1.362 . S
C1002 H994 0.930 . S
C1002 C1001 1.362 . S
C1002 C1005 1.409 . S
C1003 H995 0.930 . S
C1003 C1004 1.355 . S
C1003 C1005 1.415 . S
C1004 C1003 1.355 . S
C1004 C1006 1.419 . S
C1005 C1000 1.425 . S
C1005 C1002 1.409 . S
C1005 C1003 1.415 . S
C1006 H996 0.930 . S
C1006 C1004 1.419 . S
C1006 C1007 1.362 . S
C1007 H997 0.930 . S
C1007 C1000 1.409 . S
C1007 C1006 1.362 . S
H1008 C1014 0.930 . S
H1009 C1017 0.930 . S
H1010 C1018 0.930 . S
H1011 C1019 0.930 . S
H1012 C1022 0.930 . S
H1013 C1023 0.930 . S
C1014 H1008 0.930 . S
C1014 C1015 1.355 . S
C1014 C1016 1.415 . S
C1015 C1014 1.355 . S
C1015 C1017 1.419 . S
C1016 C1014 1.415 . S
C1016 C1021 1.425 . S
C1016 C1023 1.409 . S
C1017 H1009 0.930 . S
C1017 C1015 1.419 . S
C1017 C1018 1.362 . S
C1018 H1010 0.930 . S
C1018 C1017 1.362 . S
C1018 C1021 1.409 . S
C1019 H1011 0.930 . S
C1019 C1020 1.355 . S
C1019 C1021 1.415 . S
C1020 C1019 1.355 . S
C1020 C1022 1.419 . S
C1021 C1016 1.425 . S
C1021 C1018 1.409 . S
C1021 C1019 1.415 . S
C1022 H1012 0.930 . S
C1022 C1020 1.419 . S
C1022 C1023 1.362 . S
C1023 H1013 0.930 . S
C1023 C1016 1.409 . S
C1023 C1022 1.362 . S
H1024 C1030 0.930 . S
H1025 C1033 0.930 . S
H1026 C1034 0.930 . S
H1027 C1035 0.930 . S
H1028 C1038 0.930 . S
H1029 C1039 0.930 . S
C1030 H1024 0.930 . S
C1030 C1031 1.355 . S
C1030 C1032 1.415 . S
C1031 C1030 1.355 . S
C1031 C1033 1.419 . S
C1032 C1030 1.415 . S
C1032 C1037 1.425 . S
C1032 C1039 1.409 . S
C1033 H1025 0.930 . S
C1033 C1031 1.419 . S
C1033 C1034 1.362 . S
C1034 H1026 0.930 . S
C1034 C1033 1.362 . S
C1034 C1037 1.409 . S
C1035 H1027 0.930 . S
C1035 C1036 1.355 . S
C1035 C1037 1.415 . S
C1036 C1035 1.355 . S
C1036 C1038 1.419 . S
C1037 C1032 1.425 . S
C1037 C1034 1.409 . S
C1037 C1035 1.415 . S
C1038 H1028 0.930 . S
C1038 C1036 1.419 . S
C1038 C1039 1.362 . S
C1039 H1029 0.930 . S
C1039 C1032 1.409 . S
C1039 C1038 1.362 . S
H1040 C1046 0.930 . S
H1041 C1049 0.930 . S
H1042 C1050 0.930 . S
H1043 C1051 0.930 . S
H1044 C1054 0.930 . S
H1045 C1055 0.930 . S
C1046 H1040 0.930 . S
C1046 C1047 1.355 . S
C1046 C1048 1.415 . S
C1047 C1046 1.355 . S
C1047 C1049 1.419 . S
C1048 C1046 1.415 . S
C1048 C1053 1.425 . S
C1048 C1055 1.409 . S
C1049 H1041 0.930 . S
C1049 C1047 1.419 . S
C1049 C1050 1.362 . S
C1050 H1042 0.930 . S
C1050 C1049 1.362 . S
C1050 C1053 1.409 . S
C1051 H1043 0.930 . S
C1051 C1052 1.355 . S
C1051 C1053 1.415 . S
C1052 C1051 1.355 . S
C1052 C1054 1.419 . S
C1053 C1048 1.425 . S
C1053 C1050 1.409 . S
C1053 C1051 1.415 . S
C1054 H1044 0.930 . S
C1054 C1052 1.419 . S
C1054 C1055 1.362 . S
C1055 H1045 0.930 . S
C1055 C1048 1.409 . S
C1055 C1054 1.362 . S
H1056 C1062 0.930 . S
H1057 C1065 0.930 . S
H1058 C1066 0.930 . S
H1059 C1067 0.930 . S
H1060 C1070 0.930 . S
H1061 C1071 0.930 . S
C1062 H1056 0.930 . S
C1062 C1063 1.355 . S
C1062 C1064 1.415 . S
C1063 C1062 1.355 . S
C1063 C1065 1.419 . S
C1064 C1062 1.415 . S
C1064 C1069 1.425 . S
C1064 C1071 1.409 . S
C1065 H1057 0.930 . S
C1065 C1063 1.419 . S
C1065 C1066 1.362 . S
C1066 H1058 0.930 . S
C1066 C1065 1.362 . S
C1066 C1069 1.409 . S
C1067 H1059 0.930 . S
C1067 C1068 1.355 . S
C1067 C1069 1.415 . S
C1068 C1067 1.355 . S
C1068 C1070 1.419 . S
C1069 C1064 1.425 . S
C1069 C1066 1.409 . S
C1069 C1067 1.415 . S
C1070 H1060 0.930 . S
C1070 C1068 1.419 . S
C1070 C1071 1.362 . S
C1071 H1061 0.930 . S
C1071 C1064 1.409 . S
C1071 C1070 1.362 . S
H1072 C1078 0.930 . S
H1073 C1081 0.930 . S
H1074 C1082 0.930 . S
H1075 C1083 0.930 . S
H1076 C1086 0.930 . S
H1077 C1087 0.930 . S
C1078 H1072 0.930 . S
C1078 C1079 1.355 . S
C1078 C1080 1.415 . S
C1079 C1078 1.355 . S
C1079 C1081 1.419 . S
C1080 C1078 1.415 . S
C1080 C1085 1.425 . S
C1080 C1087 1.409 . S
C1081 H1073 0.930 . S
C1081 C1079 1.419 . S
C1081 C1082 1.362 . S
C1082 H1074 0.930 . S
C1082 C1081 1.362 . S
C1082 C1085 1.409 . S
C1083 H1075 0.930 . S
C1083 C1084 1.355 . S
C1083 C1085 1.415 . S
C1084 C1083 1.355 . S
C1084 C1086 1.419 . S
C1085 C1080 1.425 . S
C1085 C1082 1.409 . S
C1085 C1083 1.415 . S
C1086 H1076 0.930 . S
C1086 C1084 1.419 . S
C1086 C1087 1.362 . S
C1087 H1077 0.930 . S
C1087 C1080 1.409 . S
C1087 C1086 1.362 . S
H1088 C1094 0.930 . S
H1089 C1097 0.930 . S
H1090 C1098 0.930 . S
H1091 C1099 0.930 . S
H1092 C1102 0.930 . S
H1093 C1103 0.930 . S
C1094 H1088 0.930 . S
C1094 C1095 1.355 . S
C1094 C1096 1.415 . S
C1095 C1094 1.355 . S
C1095 C1097 1.419 . S
C1096 C1094 1.415 . S
C1096 C1101 1.425 . S
C1096 C1103 1.409 . S
C1097 H1089 0.930 . S
C1097 C1095 1.419 . S
C1097 C1098 1.362 . S
C1098 H1090 0.930 . S
C1098 C1097 1.362 . S
C1098 C1101 1.409 . S
C1099 H1091 0.930 . S
C1099 C1100 1.355 . S
C1099 C1101 1.415 . S
C1100 C1099 1.355 . S
C1100 C1102 1.419 . S
C1101 C1096 1.425 . S
C1101 C1098 1.409 . S
C1101 C1099 1.415 . S
C1102 H1092 0.930 . S
C1102 C1100 1.419 . S
C1102 C1103 1.362 . S
C1103 H1093 0.930 . S
C1103 C1096 1.409 . S
C1103 C1102 1.362 . S
H1104 C1110 0.930 . S
H1105 C1113 0.890 1_565 S
H1106 C1114 0.914 1_465 S
H1107 C1115 0.930 . S
H1108 C1118 0.930 . S
H1109 C1119 0.930 . S
C1110 H1104 0.930 . S
C1110 C1111 1.355 . S
C1110 C1112 1.415 . S
C1111 C1110 1.355 . S
C1111 C1113 1.419 . S
C1112 C1110 1.415 . S
C1112 C1117 1.425 1_655 S
C1112 C1119 1.409 . S
C1113 H1105 0.890 1_545 S
C1113 C1111 1.419 . S
C1113 C1114 1.365 . S
C1114 H1106 0.914 1_645 S
C1114 C1113 1.365 . S
C1114 C1117 1.409 1_655 S
C1115 H1107 0.930 . S
C1115 C1116 1.355 . S
C1115 C1117 1.415 . S
C1116 C1115 1.355 . S
C1116 C1118 1.419 . S
C1117 C1112 1.425 1_455 S
C1117 C1114 1.409 1_455 S
C1117 C1115 1.415 . S
C1118 H1108 0.930 . S
C1118 C1116 1.419 . S
C1118 C1119 1.362 1_455 S
C1119 H1109 0.930 . S
C1119 C1112 1.409 . S
C1119 C1118 1.362 1_655 S
H1120 C1126 0.930 . S
H1121 C1129 0.930 . S
H1122 C1130 0.930 . S
H1123 C1131 0.930 . S
H1124 C1134 0.930 . S
H1125 C1135 0.930 . S
C1126 H1120 0.930 . S
C1126 C1127 1.355 . S
C1126 C1128 1.415 . S
C1127 C1126 1.355 . S
C1127 C1129 1.419 . S
C1128 C1126 1.415 . S
C1128 C1133 1.425 . S
C1128 C1135 1.409 . S
C1129 H1121 0.930 . S
C1129 C1127 1.419 . S
C1129 C1130 1.362 . S
C1130 H1122 0.930 . S
C1130 C1129 1.362 . S
C1130 C1133 1.409 . S
C1131 H1123 0.930 . S
C1131 C1132 1.355 . S
C1131 C1133 1.415 . S
C1132 C1131 1.355 . S
C1132 C1134 1.419 . S
C1133 C1128 1.425 . S
C1133 C1130 1.409 . S
C1133 C1131 1.415 . S
C1134 H1124 0.930 . S
C1134 C1132 1.419 . S
C1134 C1135 1.362 . S
C1135 H1125 0.930 . S
C1135 C1128 1.409 . S
C1135 C1134 1.362 . S
H1136 C1142 0.930 . S
H1137 C1145 0.930 . S
H1138 C1146 0.930 . S
H1139 C1147 0.930 . S
H1140 C1150 0.930 . S
H1141 C1151 0.930 . S
C1142 H1136 0.930 . S
C1142 C1143 1.355 . S
C1142 C1144 1.415 . S
C1143 C1142 1.355 . S
C1143 C1145 1.419 . S
C1144 C1142 1.415 . S
C1144 C1149 1.425 . S
C1144 C1151 1.409 . S
C1145 H1137 0.930 . S
C1145 C1143 1.419 . S
C1145 C1146 1.362 . S
C1146 H1138 0.930 . S
C1146 C1145 1.362 . S
C1146 C1149 1.409 . S
C1147 H1139 0.930 . S
C1147 C1148 1.355 . S
C1147 C1149 1.415 . S
C1148 C1147 1.355 . S
C1148 C1150 1.419 . S
C1149 C1144 1.425 . S
C1149 C1146 1.409 . S
C1149 C1147 1.415 . S
C1150 H1140 0.930 . S
C1150 C1148 1.419 . S
C1150 C1151 1.362 . S
C1151 H1141 0.930 . S
C1151 C1144 1.409 . S
C1151 C1150 1.362 . S
H1152 C1158 0.930 . S
H1153 C1161 0.930 . S
H1154 C1162 0.930 . S
H1155 C1163 0.930 . S
H1156 C1166 0.930 . S
H1157 C1167 0.930 . S
C1158 H1152 0.930 . S
C1158 C1159 1.355 . S
C1158 C1160 1.415 . S
C1159 C1158 1.355 . S
C1159 C1161 1.419 . S
C1160 C1158 1.415 . S
C1160 C1165 1.425 . S
C1160 C1167 1.409 . S
C1161 H1153 0.930 . S
C1161 C1159 1.419 . S
C1161 C1162 1.362 . S
C1162 H1154 0.930 . S
C1162 C1161 1.362 . S
C1162 C1165 1.409 . S
C1163 H1155 0.930 . S
C1163 C1164 1.355 . S
C1163 C1165 1.415 . S
C1164 C1163 1.355 . S
C1164 C1166 1.419 . S
C1165 C1160 1.425 . S
C1165 C1162 1.409 . S
C1165 C1163 1.415 . S
C1166 H1156 0.930 . S
C1166 C1164 1.419 . S
C1166 C1167 1.362 . S
C1167 H1157 0.930 . S
C1167 C1160 1.409 . S
C1167 C1166 1.362 . S
H1168 C1174 0.930 . S
H1169 C1177 0.930 1_565 S
H1170 C1178 0.930 1_565 S
H1171 C1179 0.930 . S
H1172 C1182 0.930 . S
H1173 C1183 0.930 . S
C1174 H1168 0.930 . S
C1174 C1175 1.355 . S
C1174 C1176 1.418 . S
C1175 C1174 1.355 . S
C1175 C1177 1.419 . S
C1176 C1174 1.418 . S
C1176 C1181 1.423 . S
C1176 C1183 1.408 1_655 S
C1177 H1169 0.930 1_545 S
C1177 C1175 1.419 . S
C1177 C1178 1.362 . S
C1178 H1170 0.930 1_545 S
C1178 C1177 1.362 . S
C1178 C1181 1.409 . S
C1179 H1171 0.930 . S
C1179 C1180 1.355 . S
C1179 C1181 1.415 1_455 S
C1180 C1179 1.355 . S
C1180 C1182 1.419 . S
C1181 C1176 1.423 . S
C1181 C1178 1.409 . S
C1181 C1179 1.415 1_655 S
C1182 H1172 0.930 . S
C1182 C1180 1.419 . S
C1182 C1183 1.362 . S
C1183 H1173 0.930 . S
C1183 C1176 1.408 1_455 S
C1183 C1182 1.362 . S
H1184 C1190 0.930 . S
H1185 C1193 0.930 . S
H1186 C1194 0.930 . S
H1187 C1195 0.930 . S
H1188 C1198 0.930 . S
H1189 C1199 0.930 . S
C1190 H1184 0.930 . S
C1190 C1191 1.355 . S
C1190 C1192 1.415 . S
C1191 C1190 1.355 . S
C1191 C1193 1.419 . S
C1192 C1190 1.415 . S
C1192 C1197 1.425 . S
C1192 C1199 1.409 . S
C1193 H1185 0.930 . S
C1193 C1191 1.419 . S
C1193 C1194 1.362 . S
C1194 H1186 0.930 . S
C1194 C1193 1.362 . S
C1194 C1197 1.409 . S
C1195 H1187 0.930 . S
C1195 C1196 1.355 . S
C1195 C1197 1.415 . S
C1196 C1195 1.355 . S
C1196 C1198 1.419 . S
C1197 C1192 1.425 . S
C1197 C1194 1.409 . S
C1197 C1195 1.415 . S
C1198 H1188 0.930 . S
C1198 C1196 1.419 . S
C1198 C1199 1.362 . S
C1199 H1189 0.930 . S
C1199 C1192 1.409 . S
C1199 C1198 1.362 . S
H1200 C1206 0.930 . S
H1201 C1209 0.930 . S
H1202 C1210 0.930 . S
H1203 C1211 0.930 . S
H1204 C1214 0.930 . S
H1205 C1215 0.930 . S
C1206 H1200 0.930 . S
C1206 C1207 1.355 . S
C1206 C1208 1.415 . S
C1207 C1206 1.355 . S
C1207 C1209 1.419 . S
C1208 C1206 1.415 . S
C1208 C1213 1.425 . S
C1208 C1215 1.409 . S
C1209 H1201 0.930 . S
C1209 C1207 1.419 . S
C1209 C1210 1.362 . S
C1210 H1202 0.930 . S
C1210 C1209 1.362 . S
C1210 C1213 1.409 . S
C1211 H1203 0.930 . S
C1211 C1212 1.355 . S
C1211 C1213 1.415 . S
C1212 C1211 1.355 . S
C1212 C1214 1.419 . S
C1213 C1208 1.425 . S
C1213 C1210 1.409 . S
C1213 C1211 1.415 . S
C1214 H1204 0.930 . S
C1214 C1212 1.419 . S
C1214 C1215 1.362 . S
C1215 H1205 0.930 . S
C1215 C1208 1.409 . S
C1215 C1214 1.362 . S
H1216 C1222 0.930 . S
H1217 C1225 0.930 . S
H1218 C1226 0.930 . S
H1219 C1227 0.930 . S
H1220 C1230 0.930 . S
H1221 C1231 0.930 . S
C1222 H1216 0.930 . S
C1222 C1223 1.355 . S
C1222 C1224 1.415 . S
C1223 C1222 1.355 . S
C1223 C1225 1.419 . S
C1224 C1222 1.415 . S
C1224 C1229 1.425 . S
C1224 C1231 1.409 . S
C1225 H1217 0.930 . S
C1225 C1223 1.419 . S
C1225 C1226 1.362 . S
C1226 H1218 0.930 . S
C1226 C1225 1.362 . S
C1226 C1229 1.409 . S
C1227 H1219 0.930 . S
C1227 C1228 1.355 . S
C1227 C1229 1.415 . S
C1228 C1227 1.355 . S
C1228 C1230 1.419 . S
C1229 C1224 1.425 . S
C1229 C1226 1.409 . S
C1229 C1227 1.415 . S
C1230 H1220 0.930 . S
C1230 C1228 1.419 . S
C1230 C1231 1.362 . S
C1231 H1221 0.930 . S
C1231 C1224 1.409 . S
C1231 C1230 1.362 . S
H1232 C1238 0.930 . S
H1233 C1241 0.930 . S
H1234 C1242 0.930 . S
H1235 C1243 0.930 . S
H1236 C1246 0.930 . S
H1237 C1247 0.930 . S
C1238 H1232 0.930 . S
C1238 C1239 1.355 . S
C1238 C1240 1.415 . S
C1239 C1238 1.355 . S
C1239 C1241 1.419 . S
C1240 C1238 1.415 . S
C1240 C1245 1.425 . S
C1240 C1247 1.409 1_565 S
C1241 H1233 0.930 . S
C1241 C1239 1.419 . S
C1241 C1242 1.362 . S
C1242 H1234 0.930 . S
C1242 C1241 1.362 . S
C1242 C1245 1.409 . S
C1243 H1235 0.930 . S
C1243 C1244 1.355 1_565 S
C1243 C1245 1.415 . S
C1244 C1243 1.355 1_545 S
C1244 C1246 1.419 . S
C1245 C1240 1.425 . S
C1245 C1242 1.409 . S
C1245 C1243 1.415 . S
C1246 H1236 0.930 . S
C1246 C1244 1.419 . S
C1246 C1247 1.362 . S
C1247 H1237 0.930 . S
C1247 C1240 1.409 1_545 S
C1247 C1246 1.362 . S
H1248 C1254 0.930 1_556 S
H1249 C1257 0.930 . S
H1250 C1258 0.930 . S
H1251 C1259 0.930 . S
H1252 C1262 0.930 1_556 S
H1253 C1263 0.930 . S
C1254 H1248 0.930 1_554 S
C1254 C1255 1.355 . S
C1254 C1256 1.415 . S
C1255 C1254 1.355 . S
C1255 C1257 1.419 . S
C1256 C1254 1.415 . S
C1256 C1261 1.425 . S
C1256 C1263 1.409 1_554 S
C1257 H1249 0.930 . S
C1257 C1255 1.419 . S
C1257 C1258 1.362 . S
C1258 H1250 0.930 . S
C1258 C1257 1.362 . S
C1258 C1261 1.409 . S
C1259 H1251 0.930 . S
C1259 C1260 1.355 . S
C1259 C1261 1.415 . S
C1260 C1259 1.355 . S
C1260 C1262 1.419 . S
C1261 C1256 1.425 . S
C1261 C1258 1.409 . S
C1261 C1259 1.415 . S
C1262 H1252 0.930 1_554 S
C1262 C1260 1.419 . S
C1262 C1263 1.362 1_554 S
C1263 H1253 0.930 . S
C1263 C1256 1.409 1_556 S
C1263 C1262 1.362 1_556 S
H1264 C1270 0.930 . S
H1265 C1273 0.930 . S
H1266 C1274 0.930 . S
H1267 C1275 0.930 . S
H1268 C1278 0.930 . S
H1269 C1279 0.930 . S
C1270 H1264 0.930 . S
C1270 C1271 1.355 . S
C1270 C1272 1.415 . S
C1271 C1270 1.355 . S
C1271 C1273 1.419 . S
C1272 C1270 1.415 . S
C1272 C1277 1.425 . S
C1272 C1279 1.409 . S
C1273 H1265 0.930 . S
C1273 C1271 1.419 . S
C1273 C1274 1.362 . S
C1274 H1266 0.930 . S
C1274 C1273 1.362 . S
C1274 C1277 1.409 . S
C1275 H1267 0.930 . S
C1275 C1276 1.355 . S
C1275 C1277 1.415 . S
C1276 C1275 1.355 . S
C1276 C1278 1.419 . S
C1277 C1272 1.425 . S
C1277 C1274 1.409 . S
C1277 C1275 1.415 . S
C1278 H1268 0.930 . S
C1278 C1276 1.419 . S
C1278 C1279 1.362 . S
C1279 H1269 0.930 . S
C1279 C1272 1.409 . S
C1279 C1278 1.362 . S
H1280 C1286 0.930 . S
H1281 C1289 0.930 . S
H1282 C1290 0.930 . S
H1283 C1291 0.930 . S
H1284 C1294 0.930 . S
H1285 C1295 0.930 . S
C1286 H1280 0.930 . S
C1286 C1287 1.355 . S
C1286 C1288 1.415 . S
C1287 C1286 1.355 . S
C1287 C1289 1.419 . S
C1288 C1286 1.415 . S
C1288 C1293 1.425 . S
C1288 C1295 1.409 . S
C1289 H1281 0.930 . S
C1289 C1287 1.419 . S
C1289 C1290 1.362 . S
C1290 H1282 0.930 . S
C1290 C1289 1.362 . S
C1290 C1293 1.409 . S
C1291 H1283 0.930 . S
C1291 C1292 1.355 . S
C1291 C1293 1.415 . S
C1292 C1291 1.355 . S
C1292 C1294 1.419 . S
C1293 C1288 1.425 . S
C1293 C1290 1.409 . S
C1293 C1291 1.415 . S
C1294 H1284 0.930 . S
C1294 C1292 1.419 . S
C1294 C1295 1.362 . S
C1295 H1285 0.930 . S
C1295 C1288 1.409 . S
C1295 C1294 1.362 . S
H1296 C1302 0.930 . S
H1297 C1305 0.930 . S
H1298 C1306 0.930 . S
H1299 C1307 0.930 . S
H1300 C1310 0.930 . S
H1301 C1311 0.930 . S
C1302 H1296 0.930 . S
C1302 C1303 1.355 . S
C1302 C1304 1.415 . S
C1303 C1302 1.355 . S
C1303 C1305 1.419 . S
C1304 C1302 1.415 . S
C1304 C1309 1.425 . S
C1304 C1311 1.409 . S
C1305 H1297 0.930 . S
C1305 C1303 1.419 . S
C1305 C1306 1.362 . S
C1306 H1298 0.930 . S
C1306 C1305 1.362 . S
C1306 C1309 1.409 . S
C1307 H1299 0.930 . S
C1307 C1308 1.355 . S
C1307 C1309 1.415 . S
C1308 C1307 1.355 . S
C1308 C1310 1.419 . S
C1309 C1304 1.425 . S
C1309 C1306 1.409 . S
C1309 C1307 1.415 . S
C1310 H1300 0.930 . S
C1310 C1308 1.419 . S
C1310 C1311 1.362 . S
C1311 H1301 0.930 . S
C1311 C1304 1.409 . S
C1311 C1310 1.362 . S
H1312 C1318 0.930 . S
H1313 C1321 0.930 . S
H1314 C1322 0.930 . S
H1315 C1323 0.930 . S
H1316 C1326 0.930 . S
H1317 C1327 0.930 . S
C1318 H1312 0.930 . S
C1318 C1319 1.355 . S
C1318 C1320 1.415 . S
C1319 C1318 1.355 . S
C1319 C1321 1.419 . S
C1320 C1318 1.415 . S
C1320 C1325 1.425 . S
C1320 C1327 1.409 . S
C1321 H1313 0.930 . S
C1321 C1319 1.419 . S
C1321 C1322 1.362 . S
C1322 H1314 0.930 . S
C1322 C1321 1.362 . S
C1322 C1325 1.409 . S
C1323 H1315 0.930 . S
C1323 C1324 1.355 . S
C1323 C1325 1.415 . S
C1324 C1323 1.355 . S
C1324 C1326 1.419 . S
C1325 C1320 1.425 . S
C1325 C1322 1.409 . S
C1325 C1323 1.415 . S
C1326 H1316 0.930 . S
C1326 C1324 1.419 . S
C1326 C1327 1.362 . S
C1327 H1317 0.930 . S
C1327 C1320 1.409 . S
C1327 C1326 1.362 . S
H1328 C1334 0.930 . S
H1329 C1337 0.930 . S
H1330 C1338 0.930 . S
H1331 C1339 0.930 . S
H1332 C1342 0.930 . S
H1333 C1343 0.930 . S
C1334 H1328 0.930 . S
C1334 C1335 1.355 . S
C1334 C1336 1.415 . S
C1335 C1334 1.355 . S
C1335 C1337 1.419 . S
C1336 C1334 1.415 . S
C1336 C1341 1.425 . S
C1336 C1343 1.409 . S
C1337 H1329 0.930 . S
C1337 C1335 1.419 . S
C1337 C1338 1.362 . S
C1338 H1330 0.930 . S
C1338 C1337 1.362 . S
C1338 C1341 1.409 . S
C1339 H1331 0.930 . S
C1339 C1340 1.355 . S
C1339 C1341 1.415 . S
C1340 C1339 1.355 . S
C1340 C1342 1.419 . S
C1341 C1336 1.425 . S
C1341 C1338 1.409 . S
C1341 C1339 1.415 . S
C1342 H1332 0.930 . S
C1342 C1340 1.419 . S
C1342 C1343 1.362 . S
C1343 H1333 0.930 . S
C1343 C1336 1.409 . S
C1343 C1342 1.362 . S
H1344 C1350 0.930 . S
H1345 C1353 0.930 . S
H1346 C1354 0.930 . S
H1347 C1355 0.930 . S
H1348 C1358 0.930 . S
H1349 C1359 0.930 . S
C1350 H1344 0.930 . S
C1350 C1351 1.355 . S
C1350 C1352 1.415 . S
C1351 C1350 1.355 . S
C1351 C1353 1.419 . S
C1352 C1350 1.415 . S
C1352 C1357 1.425 . S
C1352 C1359 1.409 . S
C1353 H1345 0.930 . S
C1353 C1351 1.419 . S
C1353 C1354 1.362 . S
C1354 H1346 0.930 . S
C1354 C1353 1.362 . S
C1354 C1357 1.409 . S
C1355 H1347 0.930 . S
C1355 C1356 1.355 . S
C1355 C1357 1.415 . S
C1356 C1355 1.355 . S
C1356 C1358 1.419 . S
C1357 C1352 1.425 . S
C1357 C1354 1.409 . S
C1357 C1355 1.415 . S
C1358 H1348 0.930 . S
C1358 C1356 1.419 . S
C1358 C1359 1.362 . S
C1359 H1349 0.930 . S
C1359 C1352 1.409 . S
C1359 C1358 1.362 . S
H1360 C1366 0.930 . S
H1361 C1369 0.930 . S
H1362 C1370 0.930 . S
H1363 C1371 0.930 . S
H1364 C1374 0.930 . S
H1365 C1375 0.930 . S
C1366 H1360 0.930 . S
C1366 C1367 1.355 . S
C1366 C1368 1.415 . S
C1367 C1366 1.355 . S
C1367 C1369 1.419 . S
C1368 C1366 1.415 . S
C1368 C1373 1.425 . S
C1368 C1375 1.409 . S
C1369 H1361 0.930 . S
C1369 C1367 1.419 . S
C1369 C1370 1.362 . S
C1370 H1362 0.930 . S
C1370 C1369 1.362 . S
C1370 C1373 1.409 . S
C1371 H1363 0.930 . S
C1371 C1372 1.355 . S
C1371 C1373 1.415 . S
C1372 C1371 1.355 . S
C1372 C1374 1.419 . S
C1373 C1368 1.425 . S
C1373 C1370 1.409 . S
C1373 C1371 1.415 . S
C1374 H1364 0.930 . S
C1374 C1372 1.419 . S
C1374 C1375 1.362 . S
C1375 H1365 0.930 . S
C1375 C1368 1.409 . S
C1375 C1374 1.362 . S
H1376 C1382 0.930 . S
H1377 C1385 0.930 . S
H1378 C1386 0.930 . S
H1379 C1387 0.930 . S
H1380 C1390 0.930 . S
H1381 C1391 0.930 . S
C1382 H1376 0.930 . S
C1382 C1383 1.355 . S
C1382 C1384 1.415 . S
C1383 C1382 1.355 . S
C1383 C1385 1.419 . S
C1384 C1382 1.415 . S
C1384 C1389 1.425 . S
C1384 C1391 1.409 . S
C1385 H1377 0.930 . S
C1385 C1383 1.419 . S
C1385 C1386 1.362 . S
C1386 H1378 0.930 . S
C1386 C1385 1.362 . S
C1386 C1389 1.409 . S
C1387 H1379 0.930 . S
C1387 C1388 1.355 . S
C1387 C1389 1.415 . S
C1388 C1387 1.355 . S
C1388 C1390 1.419 . S
C1389 C1384 1.425 . S
C1389 C1386 1.409 . S
C1389 C1387 1.415 . S
C1390 H1380 0.930 . S
C1390 C1388 1.419 . S
C1390 C1391 1.362 . S
C1391 H1381 0.930 . S
C1391 C1384 1.409 . S
C1391 C1390 1.362 . S
H1392 C1398 0.930 . S
H1393 C1401 0.930 . S
H1394 C1402 0.930 . S
H1395 C1403 0.930 . S
H1396 C1406 0.930 . S
H1397 C1407 0.930 . S
C1398 H1392 0.930 . S
C1398 C1399 1.355 . S
C1398 C1400 1.415 . S
C1399 C1398 1.355 . S
C1399 C1401 1.419 . S
C1400 C1398 1.415 . S
C1400 C1405 1.425 . S
C1400 C1407 1.409 . S
C1401 H1393 0.930 . S
C1401 C1399 1.419 . S
C1401 C1402 1.362 . S
C1402 H1394 0.930 . S
C1402 C1401 1.362 . S
C1402 C1405 1.409 . S
C1403 H1395 0.930 . S
C1403 C1404 1.355 . S
C1403 C1405 1.415 . S
C1404 C1403 1.355 . S
C1404 C1406 1.419 . S
C1405 C1400 1.425 . S
C1405 C1402 1.409 . S
C1405 C1403 1.415 . S
C1406 H1396 0.930 . S
C1406 C1404 1.419 . S
C1406 C1407 1.362 . S
C1407 H1397 0.930 . S
C1407 C1400 1.409 . S
C1407 C1406 1.362 . S
H1408 C1414 0.930 . S
H1409 C1417 0.930 . S
H1410 C1418 0.930 . S
H1411 C1419 0.930 . S
H1412 C1422 0.930 . S
H1413 C1423 0.930 . S
C1414 H1408 0.930 . S
C1414 C1415 1.355 . S
C1414 C1416 1.415 . S
C1415 C1414 1.355 . S
C1415 C1417 1.419 . S
C1416 C1414 1.415 . S
C1416 C1421 1.425 . S
C1416 C1423 1.409 . S
C1417 H1409 0.930 . S
C1417 C1415 1.419 . S
C1417 C1418 1.362 . S
C1418 H1410 0.930 . S
C1418 C1417 1.362 . S
C1418 C1421 1.409 . S
C1419 H1411 0.930 . S
C1419 C1420 1.355 . S
C1419 C1421 1.415 . S
C1420 C1419 1.355 . S
C1420 C1422 1.419 . S
C1421 C1416 1.425 . S
C1421 C1418 1.409 . S
C1421 C1419 1.415 . S
C1422 H1412 0.930 . S
C1422 C1420 1.419 . S
C1422 C1423 1.362 . S
C1423 H1413 0.930 . S
C1423 C1416 1.409 . S
C1423 C1422 1.362 . S
H1424 C1430 0.930 . S
H1425 C1433 0.930 . S
H1426 C1434 0.893 1_655 S
H1427 C1435 0.930 1_655 S
H1428 C1438 0.930 . S
H1429 C1439 0.930 . S
C1430 H1424 0.930 . S
C1430 C1431 1.355 . S
C1430 C1432 1.415 . S
C1431 C1430 1.355 . S
C1431 C1433 1.419 . S
C1432 C1430 1.415 . S
C1432 C1437 1.425 . S
C1432 C1439 1.409 . S
C1433 H1425 0.930 . S
C1433 C1431 1.419 . S
C1433 C1434 1.374 . S
C1434 H1426 0.893 1_455 S
C1434 C1433 1.374 . S
C1434 C1437 1.436 . S
C1435 H1427 0.930 1_455 S
C1435 C1436 1.355 . S
C1435 C1437 1.415 . S
C1436 C1435 1.355 . S
C1436 C1438 1.419 . S
C1437 C1432 1.425 . S
C1437 C1434 1.436 . S
C1437 C1435 1.415 . S
C1438 H1428 0.930 . S
C1438 C1436 1.419 . S
C1438 C1439 1.362 . S
C1439 H1429 0.930 . S
C1439 C1432 1.409 . S
C1439 C1438 1.362 . S
H1440 C1446 0.930 . S
H1441 C1449 0.930 . S
H1442 C1450 0.930 . S
H1443 C1451 0.930 . S
H1444 C1454 0.930 . S
H1445 C1455 0.930 . S
C1446 H1440 0.930 . S
C1446 C1447 1.355 . S
C1446 C1448 1.415 . S
C1447 C1446 1.355 . S
C1447 C1449 1.419 . S
C1448 C1446 1.415 . S
C1448 C1453 1.425 . S
C1448 C1455 1.409 . S
C1449 H1441 0.930 . S
C1449 C1447 1.419 . S
C1449 C1450 1.362 . S
C1450 H1442 0.930 . S
C1450 C1449 1.362 . S
C1450 C1453 1.409 . S
C1451 H1443 0.930 . S
C1451 C1452 1.355 . S
C1451 C1453 1.415 . S
C1452 C1451 1.355 . S
C1452 C1454 1.419 . S
C1453 C1448 1.425 . S
C1453 C1450 1.409 . S
C1453 C1451 1.415 . S
C1454 H1444 0.930 . S
C1454 C1452 1.419 . S
C1454 C1455 1.362 . S
C1455 H1445 0.930 . S
C1455 C1448 1.409 . S
C1455 C1454 1.362 . S
H1456 C1462 0.930 . S
H1457 C1465 0.930 . S
H1458 C1466 0.930 . S
H1459 C1467 0.930 . S
H1460 C1470 0.930 . S
H1461 C1471 0.930 . S
C1462 H1456 0.930 . S
C1462 C1463 1.355 . S
C1462 C1464 1.415 . S
C1463 C1462 1.355 . S
C1463 C1465 1.419 . S
C1464 C1462 1.415 . S
C1464 C1469 1.425 . S
C1464 C1471 1.409 . S
C1465 H1457 0.930 . S
C1465 C1463 1.419 . S
C1465 C1466 1.362 . S
C1466 H1458 0.930 . S
C1466 C1465 1.362 . S
C1466 C1469 1.409 . S
C1467 H1459 0.930 . S
C1467 C1468 1.355 . S
C1467 C1469 1.415 . S
C1468 C1467 1.355 . S
C1468 C1470 1.419 . S
C1469 C1464 1.425 . S
C1469 C1466 1.409 . S
C1469 C1467 1.415 . S
C1470 H1460 0.930 . S
C1470 C1468 1.419 . S
C1470 C1471 1.362 . S
C1471 H1461 0.930 . S
C1471 C1464 1.409 . S
C1471 C1470 1.362 . S
H1472 C1478 0.930 . S
H1473 C1481 0.930 . S
H1474 C1482 0.930 . S
H1475 C1483 0.930 . S
H1476 C1486 0.930 . S
H1477 C1487 0.930 . S
C1478 H1472 0.930 . S
C1478 C1479 1.355 . S
C1478 C1480 1.415 . S
C1479 C1478 1.355 . S
C1479 C1481 1.419 . S
C1480 C1478 1.415 . S
C1480 C1485 1.425 . S
C1480 C1487 1.409 . S
C1481 H1473 0.930 . S
C1481 C1479 1.419 . S
C1481 C1482 1.362 . S
C1482 H1474 0.930 . S
C1482 C1481 1.362 . S
C1482 C1485 1.409 . S
C1483 H1475 0.930 . S
C1483 C1484 1.355 . S
C1483 C1485 1.415 . S
C1484 C1483 1.355 . S
C1484 C1486 1.419 . S
C1485 C1480 1.425 . S
C1485 C1482 1.409 . S
C1485 C1483 1.415 . S
C1486 H1476 0.930 . S
C1486 C1484 1.419 . S
C1486 C1487 1.362 . S
C1487 H1477 0.930 . S
C1487 C1480 1.409 . S
C1487 C1486 1.362 . S
H1488 C1494 0.930 . S
H1489 C1497 0.930 . S
H1490 C1498 0.930 . S
H1491 C1499 0.930 . S
H1492 C1502 0.930 . S
H1493 C1503 0.930 . S
C1494 H1488 0.930 . S
C1494 C1495 1.355 . S
C1494 C1496 1.415 . S
C1495 C1494 1.355 . S
C1495 C1497 1.419 . S
C1496 C1494 1.415 . S
C1496 C1501 1.425 . S
C1496 C1503 1.409 . S
C1497 H1489 0.930 . S
C1497 C1495 1.419 . S
C1497 C1498 1.362 . S
C1498 H1490 0.930 . S
C1498 C1497 1.362 . S
C1498 C1501 1.409 . S
C1499 H1491 0.930 . S
C1499 C1500 1.355 . S
C1499 C1501 1.415 . S
C1500 C1499 1.355 . S
C1500 C1502 1.419 . S
C1501 C1496 1.425 . S
C1501 C1498 1.409 . S
C1501 C1499 1.415 . S
C1502 H1492 0.930 . S
C1502 C1500 1.419 . S
C1502 C1503 1.362 . S
C1503 H1493 0.930 . S
C1503 C1496 1.409 . S
C1503 C1502 1.362 . S
H1504 C1510 0.930 . S
H1505 C1513 0.930 . S
H1506 C1514 0.930 . S
H1507 C1515 0.930 . S
H1508 C1518 0.930 . S
H1509 C1519 0.930 . S
C1510 H1504 0.930 . S
C1510 C1511 1.355 . S
C1510 C1512 1.415 . S
C1511 C1510 1.355 . S
C1511 C1513 1.419 . S
C1512 C1510 1.415 . S
C1512 C1517 1.425 . S
C1512 C1519 1.409 . S
C1513 H1505 0.930 . S
C1513 C1511 1.419 . S
C1513 C1514 1.362 . S
C1514 H1506 0.930 . S
C1514 C1513 1.362 . S
C1514 C1517 1.409 . S
C1515 H1507 0.930 . S
C1515 C1516 1.355 . S
C1515 C1517 1.415 . S
C1516 C1515 1.355 . S
C1516 C1518 1.419 . S
C1517 C1512 1.425 . S
C1517 C1514 1.409 . S
C1517 C1515 1.415 . S
C1518 H1508 0.930 . S
C1518 C1516 1.419 . S
C1518 C1519 1.362 . S
C1519 H1509 0.930 . S
C1519 C1512 1.409 . S
C1519 C1518 1.362 . S
H1520 C1526 0.930 . S
H1521 C1529 0.930 . S
H1522 C1530 0.930 . S
H1523 C1531 0.930 . S
H1524 C1534 0.930 . S
H1525 C1535 0.930 . S
C1526 H1520 0.930 . S
C1526 C1527 1.355 . S
C1526 C1528 1.415 . S
C1527 C1526 1.355 . S
C1527 C1529 1.419 . S
C1528 C1526 1.415 . S
C1528 C1533 1.425 . S
C1528 C1535 1.409 . S
C1529 H1521 0.930 . S
C1529 C1527 1.419 . S
C1529 C1530 1.362 . S
C1530 H1522 0.930 . S
C1530 C1529 1.362 . S
C1530 C1533 1.409 . S
C1531 H1523 0.930 . S
C1531 C1532 1.355 . S
C1531 C1533 1.415 . S
C1532 C1531 1.355 . S
C1532 C1534 1.419 . S
C1533 C1528 1.425 . S
C1533 C1530 1.409 . S
C1533 C1531 1.415 . S
C1534 H1524 0.930 . S
C1534 C1532 1.419 . S
C1534 C1535 1.362 . S
C1535 H1525 0.930 . S
C1535 C1528 1.409 . S
C1535 C1534 1.362 . S
H1536 C1542 0.930 . S
H1537 C1545 0.930 . S
H1538 C1546 0.930 . S
H1539 C1547 0.930 . S
H1540 C1550 0.930 . S
H1541 C1551 0.930 . S
C1542 H1536 0.930 . S
C1542 C1543 1.355 . S
C1542 C1544 1.415 . S
C1543 C1542 1.355 . S
C1543 C1545 1.419 . S
C1544 C1542 1.415 . S
C1544 C1549 1.425 . S
C1544 C1551 1.409 . S
C1545 H1537 0.930 . S
C1545 C1543 1.419 . S
C1545 C1546 1.362 . S
C1546 H1538 0.930 . S
C1546 C1545 1.362 . S
C1546 C1549 1.409 . S
C1547 H1539 0.930 . S
C1547 C1548 1.355 . S
C1547 C1549 1.415 . S
C1548 C1547 1.355 . S
C1548 C1550 1.419 . S
C1549 C1544 1.425 . S
C1549 C1546 1.409 . S
C1549 C1547 1.415 . S
C1550 H1540 0.930 . S
C1550 C1548 1.419 . S
C1550 C1551 1.362 . S
C1551 H1541 0.930 . S
C1551 C1544 1.409 . S
C1551 C1550 1.362 . S
H1552 C1558 0.930 . S
H1553 C1561 0.930 . S
H1554 C1562 0.930 . S
H1555 C1563 0.930 . S
H1556 C1566 0.930 . S
H1557 C1567 0.930 . S
C1558 H1552 0.930 . S
C1558 C1559 1.355 . S
C1558 C1560 1.415 . S
C1559 C1558 1.355 . S
C1559 C1561 1.419 . S
C1560 C1558 1.415 . S
C1560 C1565 1.425 . S
C1560 C1567 1.409 . S
C1561 H1553 0.930 . S
C1561 C1559 1.419 . S
C1561 C1562 1.362 . S
C1562 H1554 0.930 . S
C1562 C1561 1.362 . S
C1562 C1565 1.409 . S
C1563 H1555 0.930 . S
C1563 C1564 1.355 . S
C1563 C1565 1.415 . S
C1564 C1563 1.355 . S
C1564 C1566 1.419 . S
C1565 C1560 1.425 . S
C1565 C1562 1.409 . S
C1565 C1563 1.415 . S
C1566 H1556 0.930 . S
C1566 C1564 1.419 . S
C1566 C1567 1.362 . S
C1567 H1557 0.930 . S
C1567 C1560 1.409 . S
C1567 C1566 1.362 . S
H1568 C1574 0.930 . S
H1569 C1577 0.930 . S
H1570 C1578 0.930 . S
H1571 C1579 0.930 . S
H1572 C1582 0.930 . S
H1573 C1583 0.930 . S
C1574 H1568 0.930 . S
C1574 C1575 1.355 . S
C1574 C1576 1.415 . S
C1575 C1574 1.355 . S
C1575 C1577 1.419 . S
C1576 C1574 1.415 . S
C1576 C1581 1.425 . S
C1576 C1583 1.409 . S
C1577 H1569 0.930 . S
C1577 C1575 1.419 . S
C1577 C1578 1.362 . S
C1578 H1570 0.930 . S
C1578 C1577 1.362 . S
C1578 C1581 1.409 . S
C1579 H1571 0.930 . S
C1579 C1580 1.355 . S
C1579 C1581 1.415 . S
C1580 C1579 1.355 . S
C1580 C1582 1.419 . S
C1581 C1576 1.425 . S
C1581 C1578 1.409 . S
C1581 C1579 1.415 . S
C1582 H1572 0.930 . S
C1582 C1580 1.419 . S
C1582 C1583 1.362 . S
C1583 H1573 0.930 . S
C1583 C1576 1.409 . S
C1583 C1582 1.362 . S
H1584 C1590 0.930 . S
H1585 C1593 0.932 1_545 S
H1586 C1594 0.930 . S
H1587 C1595 0.930 . S
H1588 C1598 0.930 . S
H1589 C1599 0.930 . S
C1590 H1584 0.930 . S
C1590 C1591 1.354 . S
C1590 C1592 1.415 . S
C1591 C1590 1.354 . S
C1591 C1593 1.415 . S
C1592 C1590 1.415 . S
C1592 C1597 1.425 . S
C1592 C1599 1.409 . S
C1593 H1585 0.932 1_565 S
C1593 C1591 1.415 . S
C1593 C1594 1.367 . S
C1594 H1586 0.930 . S
C1594 C1593 1.367 . S
C1594 C1597 1.409 . S
C1595 H1587 0.930 . S
C1595 C1596 1.355 . S
C1595 C1597 1.415 . S
C1596 C1595 1.355 . S
C1596 C1598 1.419 . S
C1597 C1592 1.425 . S
C1597 C1594 1.409 . S
C1597 C1595 1.415 . S
C1598 H1588 0.930 . S
C1598 C1596 1.419 . S
C1598 C1599 1.362 . S
C1599 H1589 0.930 . S
C1599 C1592 1.409 . S
C1599 C1598 1.362 . S
H1600 C1606 0.930 . S
H1601 C1609 0.930 . S
H1602 C1610 0.930 . S
H1603 C1611 0.930 . S
H1604 C1614 0.930 . S
H1605 C1615 0.930 . S
C1606 H1600 0.930 . S
C1606 C1607 1.355 . S
C1606 C1608 1.415 . S
C1607 C1606 1.355 . S
C1607 C1609 1.419 . S
C1608 C1606 1.415 . S
C1608 C1613 1.425 . S
C1608 C1615 1.409 . S
C1609 H1601 0.930 . S
C1609 C1607 1.419 . S
C1609 C1610 1.362 . S
C1610 H1602 0.930 . S
C1610 C1609 1.362 . S
C1610 C1613 1.409 . S
C1611 H1603 0.930 . S
C1611 C1612 1.355 . S
C1611 C1613 1.415 . S
C1612 C1611 1.355 . S
C1612 C1614 1.419 . S
C1613 C1608 1.425 . S
C1613 C1610 1.409 . S
C1613 C1611 1.415 . S
C1614 H1604 0.930 . S
C1614 C1612 1.419 . S
C1614 C1615 1.362 . S
C1615 H1605 0.930 . S
C1615 C1608 1.409 . S
C1615 C1614 1.362 . S
H1616 C1622 0.930 . S
H1617 C1625 0.930 . S
H1618 C1626 0.930 . S
H1619 C1627 0.930 1_556 S
H1620 C1630 0.930 . S
H1621 C1631 0.930 . S
C1622 H1616 0.930 . S
C1622 C1623 1.355 . S
C1622 C1624 1.415 . S
C1623 C1622 1.355 . S
C1623 C1625 1.419 . S
C1624 C1622 1.415 . S
C1624 C1629 1.425 . S
C1624 C1631 1.409 . S
C1625 H1617 0.930 . S
C1625 C1623 1.419 . S
C1625 C1626 1.362 . S
C1626 H1618 0.930 . S
C1626 C1625 1.362 . S
C1626 C1629 1.409 . S
C1627 H1619 0.930 1_554 S
C1627 C1628 1.355 . S
C1627 C1629 1.415 . S
C1628 C1627 1.355 . S
C1628 C1630 1.419 . S
C1629 C1624 1.425 . S
C1629 C1626 1.409 . S
C1629 C1627 1.415 . S
C1630 H1620 0.930 . S
C1630 C1628 1.419 . S
C1630 C1631 1.362 . S
C1631 H1621 0.930 . S
C1631 C1624 1.409 . S
C1631 C1630 1.362 . S
H1632 C1638 0.930 . S
H1633 C1641 0.930 . S
H1634 C1642 0.930 . S
H1635 C1643 0.930 . S
H1636 C1646 0.930 . S
H1637 C1647 0.930 . S
C1638 H1632 0.930 . S
C1638 C1639 1.355 . S
C1638 C1640 1.415 . S
C1639 C1638 1.355 . S
C1639 C1641 1.419 . S
C1640 C1638 1.415 . S
C1640 C1645 1.425 . S
C1640 C1647 1.409 . S
C1641 H1633 0.930 . S
C1641 C1639 1.419 . S
C1641 C1642 1.362 . S
C1642 H1634 0.930 . S
C1642 C1641 1.362 . S
C1642 C1645 1.409 . S
C1643 H1635 0.930 . S
C1643 C1644 1.355 . S
C1643 C1645 1.415 . S
C1644 C1643 1.355 . S
C1644 C1646 1.419 . S
C1645 C1640 1.425 . S
C1645 C1642 1.409 . S
C1645 C1643 1.415 . S
C1646 H1636 0.930 . S
C1646 C1644 1.419 . S
C1646 C1647 1.362 . S
C1647 H1637 0.930 . S
C1647 C1640 1.409 . S
C1647 C1646 1.362 . S
H1648 C1654 0.930 . S
H1649 C1657 0.930 . S
H1650 C1658 0.930 . S
H1651 C1659 0.930 . S
H1652 C1662 0.930 . S
H1653 C1663 0.930 . S
C1654 H1648 0.930 . S
C1654 C1655 1.355 . S
C1654 C1656 1.415 . S
C1655 C1654 1.355 . S
C1655 C1657 1.419 . S
C1656 C1654 1.415 . S
C1656 C1661 1.425 . S
C1656 C1663 1.409 . S
C1657 H1649 0.930 . S
C1657 C1655 1.419 . S
C1657 C1658 1.362 . S
C1658 H1650 0.930 . S
C1658 C1657 1.362 . S
C1658 C1661 1.409 . S
C1659 H1651 0.930 . S
C1659 C1660 1.355 . S
C1659 C1661 1.415 . S
C1660 C1659 1.355 . S
C1660 C1662 1.419 . S
C1661 C1656 1.425 . S
C1661 C1658 1.409 . S
C1661 C1659 1.415 . S
C1662 H1652 0.930 . S
C1662 C1660 1.419 . S
C1662 C1663 1.362 . S
C1663 H1653 0.930 . S
C1663 C1656 1.409 . S
C1663 C1662 1.362 . S
H1664 C1670 0.930 . S
H1665 C1673 0.930 . S
H1666 C1674 0.930 . S
H1667 C1675 0.930 . S
H1668 C1678 0.930 . S
H1669 C1679 0.930 . S
C1670 H1664 0.930 . S
C1670 C1671 1.355 . S
C1670 C1672 1.415 . S
C1671 C1670 1.355 . S
C1671 C1673 1.419 . S
C1672 C1670 1.415 . S
C1672 C1677 1.425 . S
C1672 C1679 1.409 . S
C1673 H1665 0.930 . S
C1673 C1671 1.419 . S
C1673 C1674 1.362 . S
C1674 H1666 0.930 . S
C1674 C1673 1.362 . S
C1674 C1677 1.409 . S
C1675 H1667 0.930 . S
C1675 C1676 1.355 . S
C1675 C1677 1.415 . S
C1676 C1675 1.355 . S
C1676 C1678 1.419 . S
C1677 C1672 1.425 . S
C1677 C1674 1.409 . S
C1677 C1675 1.415 . S
C1678 H1668 0.930 . S
C1678 C1676 1.419 . S
C1678 C1679 1.362 . S
C1679 H1669 0.930 . S
C1679 C1672 1.409 . S
C1679 C1678 1.362 . S
H1680 C1686 0.930 . S
H1681 C1689 0.934 1_565 S
H1682 C1690 0.930 . S
H1683 C1691 0.930 . S
H1684 C1694 0.930 . S
H1685 C1695 0.930 . S
C1686 H1680 0.930 . S
C1686 C1687 1.355 . S
C1686 C1688 1.415 . S
C1687 C1686 1.355 . S
C1687 C1689 1.419 . S
C1688 C1686 1.415 . S
C1688 C1693 1.425 1_545 S
C1688 C1695 1.409 . S
C1689 H1681 0.934 1_545 S
C1689 C1687 1.419 . S
C1689 C1690 1.362 1_545 S
C1690 H1682 0.930 . S
C1690 C1689 1.362 1_565 S
C1690 C1693 1.409 . S
C1691 H1683 0.930 . S
C1691 C1692 1.355 . S
C1691 C1693 1.415 . S
C1692 C1691 1.355 . S
C1692 C1694 1.419 . S
C1693 C1688 1.425 1_565 S
C1693 C1690 1.409 . S
C1693 C1691 1.415 . S
C1694 H1684 0.930 . S
C1694 C1692 1.419 . S
C1694 C1695 1.362 1_565 S
C1695 H1685 0.930 . S
C1695 C1688 1.409 . S
C1695 C1694 1.362 1_545 S
H1696 C1702 0.930 . S
H1697 C1705 0.930 . S
H1698 C1706 0.930 . S
H1699 C1707 0.930 . S
H1700 C1710 0.930 . S
H1701 C1711 0.930 . S
C1702 H1696 0.930 . S
C1702 C1703 1.355 . S
C1702 C1704 1.415 . S
C1703 C1702 1.355 . S
C1703 C1705 1.419 . S
C1704 C1702 1.415 . S
C1704 C1709 1.425 . S
C1704 C1711 1.409 . S
C1705 H1697 0.930 . S
C1705 C1703 1.419 . S
C1705 C1706 1.362 . S
C1706 H1698 0.930 . S
C1706 C1705 1.362 . S
C1706 C1709 1.409 . S
C1707 H1699 0.930 . S
C1707 C1708 1.355 . S
C1707 C1709 1.415 . S
C1708 C1707 1.355 . S
C1708 C1710 1.419 . S
C1709 C1704 1.425 . S
C1709 C1706 1.409 . S
C1709 C1707 1.415 . S
C1710 H1700 0.930 . S
C1710 C1708 1.419 . S
C1710 C1711 1.362 . S
C1711 H1701 0.930 . S
C1711 C1704 1.409 . S
C1711 C1710 1.362 . S
H1712 C1718 0.930 . S
H1713 C1721 0.930 . S
H1714 C1722 0.930 . S
H1715 C1723 0.930 . S
H1716 C1726 0.930 . S
H1717 C1727 0.930 . S
C1718 H1712 0.930 . S
C1718 C1719 1.355 . S
C1718 C1720 1.415 . S
C1719 C1718 1.355 . S
C1719 C1721 1.419 . S
C1720 C1718 1.415 . S
C1720 C1725 1.425 . S
C1720 C1727 1.409 . S
C1721 H1713 0.930 . S
C1721 C1719 1.419 . S
C1721 C1722 1.362 . S
C1722 H1714 0.930 . S
C1722 C1721 1.362 . S
C1722 C1725 1.409 . S
C1723 H1715 0.930 . S
C1723 C1724 1.355 . S
C1723 C1725 1.415 . S
C1724 C1723 1.355 . S
C1724 C1726 1.419 . S
C1725 C1720 1.425 . S
C1725 C1722 1.409 . S
C1725 C1723 1.415 . S
C1726 H1716 0.930 . S
C1726 C1724 1.419 . S
C1726 C1727 1.362 . S
C1727 H1717 0.930 . S
C1727 C1720 1.409 . S
C1727 C1726 1.362 . S
H1728 C1734 0.930 . S
H1729 C1737 0.930 . S
H1730 C1738 0.930 . S
H1731 C1739 0.930 . S
H1732 C1742 0.930 . S
H1733 C1743 0.930 . S
C1734 H1728 0.930 . S
C1734 C1735 1.355 . S
C1734 C1736 1.415 . S
C1735 C1734 1.355 . S
C1735 C1737 1.419 . S
C1736 C1734 1.415 . S
C1736 C1741 1.425 . S
C1736 C1743 1.409 . S
C1737 H1729 0.930 . S
C1737 C1735 1.419 . S
C1737 C1738 1.362 . S
C1738 H1730 0.930 . S
C1738 C1737 1.362 . S
C1738 C1741 1.409 . S
C1739 H1731 0.930 . S
C1739 C1740 1.355 . S
C1739 C1741 1.415 . S
C1740 C1739 1.355 . S
C1740 C1742 1.419 . S
C1741 C1736 1.425 . S
C1741 C1738 1.409 . S
C1741 C1739 1.415 . S
C1742 H1732 0.930 . S
C1742 C1740 1.419 . S
C1742 C1743 1.362 . S
C1743 H1733 0.930 . S
C1743 C1736 1.409 . S
C1743 C1742 1.362 . S
H1744 C1750 0.930 . S
H1745 C1753 0.930 . S
H1746 C1754 0.930 . S
H1747 C1755 0.930 . S
H1748 C1758 0.930 . S
H1749 C1759 0.930 . S
C1750 H1744 0.930 . S
C1750 C1751 1.355 . S
C1750 C1752 1.415 . S
C1751 C1750 1.355 . S
C1751 C1753 1.419 . S
C1752 C1750 1.415 . S
C1752 C1757 1.425 . S
C1752 C1759 1.409 . S
C1753 H1745 0.930 . S
C1753 C1751 1.419 . S
C1753 C1754 1.362 . S
C1754 H1746 0.930 . S
C1754 C1753 1.362 . S
C1754 C1757 1.409 . S
C1755 H1747 0.930 . S
C1755 C1756 1.355 . S
C1755 C1757 1.415 . S
C1756 C1755 1.355 . S
C1756 C1758 1.419 . S
C1757 C1752 1.425 . S
C1757 C1754 1.409 . S
C1757 C1755 1.415 . S
C1758 H1748 0.930 . S
C1758 C1756 1.419 . S
C1758 C1759 1.362 . S
C1759 H1749 0.930 . S
C1759 C1752 1.409 . S
C1759 C1758 1.362 . S
H1760 C1766 0.930 . S
H1761 C1769 0.930 . S
H1762 C1770 0.930 . S
H1763 C1771 0.930 . S
H1764 C1774 0.930 . S
H1765 C1775 0.930 . S
C1766 H1760 0.930 . S
C1766 C1767 1.355 . S
C1766 C1768 1.415 . S
C1767 C1766 1.355 . S
C1767 C1769 1.419 . S
C1768 C1766 1.415 . S
C1768 C1773 1.425 . S
C1768 C1775 1.409 . S
C1769 H1761 0.930 . S
C1769 C1767 1.419 . S
C1769 C1770 1.362 . S
C1770 H1762 0.930 . S
C1770 C1769 1.362 . S
C1770 C1773 1.409 . S
C1771 H1763 0.930 . S
C1771 C1772 1.355 . S
C1771 C1773 1.415 . S
C1772 C1771 1.355 . S
C1772 C1774 1.419 . S
C1773 C1768 1.425 . S
C1773 C1770 1.409 . S
C1773 C1771 1.415 . S
C1774 H1764 0.930 . S
C1774 C1772 1.419 . S
C1774 C1775 1.362 . S
C1775 H1765 0.930 . S
C1775 C1768 1.409 . S
C1775 C1774 1.362 . S
H1776 C1782 0.930 1_556 S
H1777 C1785 0.930 . S
H1778 C1786 0.930 . S
H1779 C1787 0.930 . S
H1780 C1790 0.930 . S
H1781 C1791 0.930 . S
C1782 H1776 0.930 1_554 S
C1782 C1783 1.355 1_655 S
C1782 C1784 1.415 1_655 S
C1783 C1782 1.355 1_455 S
C1783 C1785 1.419 . S
C1784 C1782 1.415 1_455 S
C1784 C1789 1.425 . S
C1784 C1791 1.409 1_455 S
C1785 H1777 0.930 . S
C1785 C1783 1.419 . S
C1785 C1786 1.362 . S
C1786 H1778 0.930 . S
C1786 C1785 1.362 . S
C1786 C1789 1.409 . S
C1787 H1779 0.930 . S
C1787 C1788 1.355 . S
C1787 C1789 1.415 . S
C1788 C1787 1.355 . S
C1788 C1790 1.419 1_455 S
C1789 C1784 1.425 . S
C1789 C1786 1.409 . S
C1789 C1787 1.415 . S
C1790 H1780 0.930 . S
C1790 C1788 1.419 1_655 S
C1790 C1791 1.362 . S
C1791 H1781 0.930 . S
C1791 C1784 1.409 1_655 S
C1791 C1790 1.362 . S
H1792 C1798 0.930 1_455 S
H1793 C1801 0.930 . S
H1794 C1802 0.930 . S
H1795 C1803 0.930 . S
H1796 C1806 0.930 . S
H1797 C1807 0.930 . S
C1798 H1792 0.930 1_655 S
C1798 C1799 1.355 . S
C1798 C1800 1.415 . S
C1799 C1798 1.355 . S
C1799 C1801 1.419 . S
C1800 C1798 1.415 . S
C1800 C1805 1.425 . S
C1800 C1807 1.409 . S
C1801 H1793 0.930 . S
C1801 C1799 1.419 . S
C1801 C1802 1.362 . S
C1802 H1794 0.930 . S
C1802 C1801 1.362 . S
C1802 C1805 1.409 . S
C1803 H1795 0.930 . S
C1803 C1804 1.355 . S
C1803 C1805 1.415 . S
C1804 C1803 1.355 . S
C1804 C1806 1.419 . S
C1805 C1800 1.425 . S
C1805 C1802 1.409 . S
C1805 C1803 1.415 . S
C1806 H1796 0.930 . S
C1806 C1804 1.419 . S
C1806 C1807 1.362 . S
C1807 H1797 0.930 . S
C1807 C1800 1.409 . S
C1807 C1806 1.362 . S
H1808 C1814 0.930 . S
H1809 C1817 0.930 . S
H1810 C1818 0.930 . S
H1811 C1819 0.930 . S
H1812 C1822 0.930 . S
H1813 C1823 0.930 . S
C1814 H1808 0.930 . S
C1814 C1815 1.355 . S
C1814 C1816 1.415 . S
C1815 C1814 1.355 . S
C1815 C1817 1.419 . S
C1816 C1814 1.415 . S
C1816 C1821 1.425 . S
C1816 C1823 1.409 . S
C1817 H1809 0.930 . S
C1817 C1815 1.419 . S
C1817 C1818 1.362 . S
C1818 H1810 0.930 . S
C1818 C1817 1.362 . S
C1818 C1821 1.409 . S
C1819 H1811 0.930 . S
C1819 C1820 1.355 . S
C1819 C1821 1.415 . S
C1820 C1819 1.355 . S
C1820 C1822 1.419 . S
C1821 C1816 1.425 . S
C1821 C1818 1.409 . S
C1821 C1819 1.415 . S
C1822 H1812 0.930 . S
C1822 C1820 1.419 . S
C1822 C1823 1.362 . S
C1823 H1813 0.930 . S
C1823 C1816 1.409 . S
C1823 C1822 1.362 . S
H1824 C1830 0.930 . S
H1825 C1833 0.930 . S
H1826 C1834 0.930 . S
H1827 C1835 0.930 . S
H1828 C1838 0.930 . S
H1829 C1839 0.930 . S
C1830 H1824 0.930 . S
C1830 C1831 1.355 . S
C1830 C1832 1.415 . S
C1831 C1830 1.355 . S
C1831 C1833 1.419 . S
C1832 C1830 1.415 . S
C1832 C1837 1.425 . S
C1832 C1839 1.409 . S
C1833 H1825 0.930 . S
C1833 C1831 1.419 . S
C1833 C1834 1.362 . S
C1834 H1826 0.930 . S
C1834 C1833 1.362 . S
C1834 C1837 1.409 . S
C1835 H1827 0.930 . S
C1835 C1836 1.355 . S
C1835 C1837 1.415 . S
C1836 C1835 1.355 . S
C1836 C1838 1.419 . S
C1837 C1832 1.425 . S
C1837 C1834 1.409 . S
C1837 C1835 1.415 . S
C1838 H1828 0.930 . S
C1838 C1836 1.419 . S
C1838 C1839 1.362 . S
C1839 H1829 0.930 . S
C1839 C1832 1.409 . S
C1839 C1838 1.362 . S
H1840 C1846 0.930 1_655 S
H1841 C1849 0.930 . S
H1842 C1850 0.930 . S
H1843 C1851 0.930 . S
H1844 C1854 0.930 1_655 S
H1845 C1855 0.913 1_655 S
C1846 H1840 0.930 1_455 S
C1846 C1847 1.355 . S
C1846 C1848 1.415 . S
C1847 C1846 1.355 . S
C1847 C1849 1.419 . S
C1848 C1846 1.415 . S
C1848 C1853 1.425 . S
C1848 C1855 1.415 . S
C1849 H1841 0.930 . S
C1849 C1847 1.419 . S
C1849 C1850 1.362 . S
C1850 H1842 0.930 . S
C1850 C1849 1.362 . S
C1850 C1853 1.409 . S
C1851 H1843 0.930 . S
C1851 C1852 1.355 . S
C1851 C1853 1.415 . S
C1852 C1851 1.355 . S
C1852 C1854 1.419 . S
C1853 C1848 1.425 . S
C1853 C1850 1.409 . S
C1853 C1851 1.415 . S
C1854 H1844 0.930 1_455 S
C1854 C1852 1.419 . S
C1854 C1855 1.373 . S
C1855 H1845 0.913 1_455 S
C1855 C1848 1.415 . S
C1855 C1854 1.373 . S
H1856 C1862 0.930 . S
H1857 C1865 0.930 . S
H1858 C1866 0.930 . S
H1859 C1867 0.930 . S
H1860 C1870 0.930 . S
H1861 C1871 0.930 . S
C1862 H1856 0.930 . S
C1862 C1863 1.355 . S
C1862 C1864 1.415 . S
C1863 C1862 1.355 . S
C1863 C1865 1.419 . S
C1864 C1862 1.415 . S
C1864 C1869 1.425 . S
C1864 C1871 1.409 . S
C1865 H1857 0.930 . S
C1865 C1863 1.419 . S
C1865 C1866 1.362 . S
C1866 H1858 0.930 . S
C1866 C1865 1.362 . S
C1866 C1869 1.409 . S
C1867 H1859 0.930 . S
C1867 C1868 1.355 . S
C1867 C1869 1.415 . S
C1868 C1867 1.355 . S
C1868 C1870 1.419 . S
C1869 C1864 1.425 . S
C1869 C1866 1.409 . S
C1869 C1867 1.415 . S
C1870 H1860 0.930 . S
C1870 C1868 1.419 . S
C1870 C1871 1.362 . S
C1871 H1861 0.930 . S
C1871 C1864 1.409 . S
C1871 C1870 1.362 . S
H1872 C1878 0.930 . S
H1873 C1881 0.930 . S
H1874 C1882 0.930 . S
H1875 C1883 0.930 . S
H1876 C1886 0.930 . S
H1877 C1887 0.930 . S
C1878 H1872 0.930 . S
C1878 C1879 1.355 . S
C1878 C1880 1.415 . S
C1879 C1878 1.355 . S
C1879 C1881 1.419 . S
C1880 C1878 1.415 . S
C1880 C1885 1.425 . S
C1880 C1887 1.409 . S
C1881 H1873 0.930 . S
C1881 C1879 1.419 . S
C1881 C1882 1.362 . S
C1882 H1874 0.930 . S
C1882 C1881 1.362 . S
C1882 C1885 1.409 . S
C1883 H1875 0.930 . S
C1883 C1884 1.355 . S
C1883 C1885 1.415 . S
C1884 C1883 1.355 . S
C1884 C1886 1.419 . S
C1885 C1880 1.425 . S
C1885 C1882 1.409 . S
C1885 C1883 1.415 . S
C1886 H1876 0.930 . S
C1886 C1884 1.419 . S
C1886 C1887 1.362 . S
C1887 H1877 0.930 . S
C1887 C1880 1.409 . S
C1887 C1886 1.362 . S
H1888 C1894 0.930 . S
H1889 C1897 0.930 . S
H1890 C1898 0.930 . S
H1891 C1899 0.930 . S
H1892 C1902 0.930 . S
H1893 C1903 0.930 1_554 S
C1894 H1888 0.930 . S
C1894 C1895 1.355 . S
C1894 C1896 1.409 1_554 S
C1895 C1894 1.355 . S
C1895 C1897 1.419 . S
C1896 C1894 1.409 1_556 S
C1896 C1901 1.429 . S
C1896 C1903 1.411 . S
C1897 H1889 0.930 . S
C1897 C1895 1.419 . S
C1897 C1898 1.362 1_554 S
C1898 H1890 0.930 . S
C1898 C1897 1.362 1_556 S
C1898 C1901 1.409 . S
C1899 H1891 0.930 . S
C1899 C1900 1.355 . S
C1899 C1901 1.415 . S
C1900 C1899 1.355 . S
C1900 C1902 1.419 . S
C1901 C1896 1.429 . S
C1901 C1898 1.409 . S
C1901 C1899 1.415 . S
C1902 H1892 0.930 . S
C1902 C1900 1.419 . S
C1902 C1903 1.362 . S
C1903 H1893 0.930 1_556 S
C1903 C1896 1.411 . S
C1903 C1902 1.362 . S
H1904 C1910 0.930 . S
H1905 C1913 0.930 . S
H1906 C1914 0.930 . S
H1907 C1915 0.930 . S
H1908 C1918 0.930 . S
H1909 C1919 0.930 . S
C1910 H1904 0.930 . S
C1910 C1911 1.355 . S
C1910 C1912 1.415 . S
C1911 C1910 1.355 . S
C1911 C1913 1.419 . S
C1912 C1910 1.415 . S
C1912 C1917 1.425 . S
C1912 C1919 1.409 . S
C1913 H1905 0.930 . S
C1913 C1911 1.419 . S
C1913 C1914 1.362 . S
C1914 H1906 0.930 . S
C1914 C1913 1.362 . S
C1914 C1917 1.409 . S
C1915 H1907 0.930 . S
C1915 C1916 1.355 . S
C1915 C1917 1.415 . S
C1916 C1915 1.355 . S
C1916 C1918 1.419 . S
C1917 C1912 1.425 . S
C1917 C1914 1.409 . S
C1917 C1915 1.415 . S
C1918 H1908 0.930 . S
C1918 C1916 1.419 . S
C1918 C1919 1.362 . S
C1919 H1909 0.930 . S
C1919 C1912 1.409 . S
C1919 C1918 1.362 . S
H1920 C1926 0.930 . S
H1921 C1929 0.930 . S
H1922 C1930 0.930 . S
H1923 C1931 0.930 . S
H1924 C1934 0.930 . S
H1925 C1935 0.930 . S
C1926 H1920 0.930 . S
C1926 C1927 1.355 . S
C1926 C1928 1.415 . S
C1927 C1926 1.355 . S
C1927 C1929 1.419 . S
C1928 C1926 1.415 . S
C1928 C1933 1.425 . S
C1928 C1935 1.409 . S
C1929 H1921 0.930 . S
C1929 C1927 1.419 . S
C1929 C1930 1.362 . S
C1930 H1922 0.930 . S
C1930 C1929 1.362 . S
C1930 C1933 1.409 . S
C1931 H1923 0.930 . S
C1931 C1932 1.355 . S
C1931 C1933 1.415 . S
C1932 C1931 1.355 . S
C1932 C1934 1.419 . S
C1933 C1928 1.425 . S
C1933 C1930 1.409 . S
C1933 C1931 1.415 . S
C1934 H1924 0.930 . S
C1934 C1932 1.419 . S
C1934 C1935 1.362 . S
C1935 H1925 0.930 . S
C1935 C1928 1.409 . S
C1935 C1934 1.362 . S
H1936 C1942 0.930 . S
H1937 C1945 0.930 . S
H1938 C1946 0.930 . S
H1939 C1947 0.930 . S
H1940 C1950 0.930 . S
H1941 C1951 0.930 . S
C1942 H1936 0.930 . S
C1942 C1943 1.355 . S
C1942 C1944 1.415 . S
C1943 C1942 1.355 . S
C1943 C1945 1.419 . S
C1944 C1942 1.415 . S
C1944 C1949 1.425 . S
C1944 C1951 1.409 . S
C1945 H1937 0.930 . S
C1945 C1943 1.419 . S
C1945 C1946 1.362 . S
C1946 H1938 0.930 . S
C1946 C1945 1.362 . S
C1946 C1949 1.409 . S
C1947 H1939 0.930 . S
C1947 C1948 1.355 . S
C1947 C1949 1.415 . S
C1948 C1947 1.355 . S
C1948 C1950 1.419 . S
C1949 C1944 1.425 . S
C1949 C1946 1.409 . S
C1949 C1947 1.415 . S
C1950 H1940 0.930 . S
C1950 C1948 1.419 . S
C1950 C1951 1.362 . S
C1951 H1941 0.930 . S
C1951 C1944 1.409 . S
C1951 C1950 1.362 . S
H1952 C1958 0.930 . S
H1953 C1961 0.930 . S
H1954 C1962 0.930 . S
H1955 C1963 0.930 . S
H1956 C1966 0.930 . S
H1957 C1967 0.930 . S
C1958 H1952 0.930 . S
C1958 C1959 1.355 . S
C1958 C1960 1.415 . S
C1959 C1958 1.355 . S
C1959 C1961 1.419 . S
C1960 C1958 1.415 . S
C1960 C1965 1.425 . S
C1960 C1967 1.409 . S
C1961 H1953 0.930 . S
C1961 C1959 1.419 . S
C1961 C1962 1.362 . S
C1962 H1954 0.930 . S
C1962 C1961 1.362 . S
C1962 C1965 1.409 . S
C1963 H1955 0.930 . S
C1963 C1964 1.355 . S
C1963 C1965 1.415 . S
C1964 C1963 1.355 . S
C1964 C1966 1.419 . S
C1965 C1960 1.425 . S
C1965 C1962 1.409 . S
C1965 C1963 1.415 . S
C1966 H1956 0.930 . S
C1966 C1964 1.419 . S
C1966 C1967 1.362 . S
C1967 H1957 0.930 . S
C1967 C1960 1.409 . S
C1967 C1966 1.362 . S
H1968 C1974 0.930 . S
H1969 C1977 0.930 . S
H1970 C1978 0.930 . S
H1971 C1979 0.930 . S
H1972 C1982 0.930 . S
H1973 C1983 0.930 . S
C1974 H1968 0.930 . S
C1974 C1975 1.355 . S
C1974 C1976 1.415 . S
C1975 C1974 1.355 . S
C1975 C1977 1.419 . S
C1976 C1974 1.415 . S
C1976 C1981 1.425 . S
C1976 C1983 1.409 . S
C1977 H1969 0.930 . S
C1977 C1975 1.419 . S
C1977 C1978 1.362 . S
C1978 H1970 0.930 . S
C1978 C1977 1.362 . S
C1978 C1981 1.409 . S
C1979 H1971 0.930 . S
C1979 C1980 1.355 . S
C1979 C1981 1.415 . S
C1980 C1979 1.355 . S
C1980 C1982 1.419 . S
C1981 C1976 1.425 . S
C1981 C1978 1.409 . S
C1981 C1979 1.415 . S
C1982 H1972 0.930 . S
C1982 C1980 1.419 . S
C1982 C1983 1.362 . S
C1983 H1973 0.930 . S
C1983 C1976 1.409 . S
C1983 C1982 1.362 . S
H1984 C1990 0.930 . S
H1985 C1993 0.930 . S
H1986 C1994 0.930 . S
H1987 C1995 0.930 . S
H1988 C1998 0.930 . S
H1989 C1999 0.930 . S
C1990 H1984 0.930 . S
C1990 C1991 1.355 . S
C1990 C1992 1.415 . S
C1991 C1990 1.355 . S
C1991 C1993 1.419 . S
C1992 C1990 1.415 . S
C1992 C1997 1.425 . S
C1992 C1999 1.409 . S
C1993 H1985 0.930 . S
C1993 C1991 1.419 . S
C1993 C1994 1.362 . S
C1994 H1986 0.930 . S
C1994 C1993 1.362 . S
C1994 C1997 1.409 . S
C1995 H1987 0.930 . S
C1995 C1996 1.355 . S
C1995 C1997 1.415 . S
C1996 C1995 1.355 . S
C1996 C1998 1.419 . S
C1997 C1992 1.425 . S
C1997 C1994 1.409 . S
C1997 C1995 1.415 . S
C1998 H1988 0.930 . S
C1998 C1996 1.419 . S
C1998 C1999 1.362 . S
C1999 H1989 0.930 . S
C1999 C1992 1.409 . S
C1999 C1998 1.362 . S
H2000 C2006 0.930 . S
H2001 C2009 0.930 . S
H2002 C2010 0.930 . S
H2003 C2011 0.930 . S
H2004 C2014 0.930 . S
H2005 C2015 0.930 . S
C2006 H2000 0.930 . S
C2006 C2007 1.355 . S
C2006 C2008 1.415 . S
C2007 C2006 1.355 . S
C2007 C2009 1.419 . S
C2008 C2006 1.415 . S
C2008 C2013 1.425 . S
C2008 C2015 1.409 . S
C2009 H2001 0.930 . S
C2009 C2007 1.419 . S
C2009 C2010 1.362 . S
C2010 H2002 0.930 . S
C2010 C2009 1.362 . S
C2010 C2013 1.409 . S
C2011 H2003 0.930 . S
C2011 C2012 1.355 . S
C2011 C2013 1.415 . S
C2012 C2011 1.355 . S
C2012 C2014 1.419 . S
C2013 C2008 1.425 . S
C2013 C2010 1.409 . S
C2013 C2011 1.415 . S
C2014 H2004 0.930 . S
C2014 C2012 1.419 . S
C2014 C2015 1.362 . S
C2015 H2005 0.930 . S
C2015 C2008 1.409 . S
C2015 C2014 1.362 . S
H2016 C2022 0.930 . S
H2017 C2025 0.930 . S
H2018 C2026 0.930 . S
H2019 C2027 0.930 . S
H2020 C2030 0.930 . S
H2021 C2031 0.930 . S
C2022 H2016 0.930 . S
C2022 C2023 1.355 . S
C2022 C2024 1.415 . S
C2023 C2022 1.355 . S
C2023 C2025 1.419 . S
C2024 C2022 1.415 . S
C2024 C2029 1.425 . S
C2024 C2031 1.409 . S
C2025 H2017 0.930 . S
C2025 C2023 1.419 . S
C2025 C2026 1.362 . S
C2026 H2018 0.930 . S
C2026 C2025 1.362 . S
C2026 C2029 1.409 . S
C2027 H2019 0.930 . S
C2027 C2028 1.355 . S
C2027 C2029 1.415 . S
C2028 C2027 1.355 . S
C2028 C2030 1.419 . S
C2029 C2024 1.425 . S
C2029 C2026 1.409 . S
C2029 C2027 1.415 . S
C2030 H2020 0.930 . S
C2030 C2028 1.419 . S
C2030 C2031 1.362 . S
C2031 H2021 0.930 . S
C2031 C2024 1.409 . S
C2031 C2030 1.362 . S
H2032 C2038 0.930 . S
H2033 C2041 0.930 . S
H2034 C2042 0.930 . S
H2035 C2043 0.930 . S
H2036 C2046 0.930 . S
H2037 C2047 0.930 . S
C2038 H2032 0.930 . S
C2038 C2039 1.355 . S
C2038 C2040 1.415 . S
C2039 C2038 1.355 . S
C2039 C2041 1.419 1_565 S
C2040 C2038 1.415 . S
C2040 C2045 1.425 . S
C2040 C2047 1.409 . S
C2041 H2033 0.930 . S
C2041 C2039 1.419 1_545 S
C2041 C2042 1.362 1_545 S
C2042 H2034 0.930 . S
C2042 C2041 1.362 1_565 S
C2042 C2045 1.409 . S
C2043 H2035 0.930 . S
C2043 C2044 1.355 . S
C2043 C2045 1.415 . S
C2044 C2043 1.355 . S
C2044 C2046 1.419 . S
C2045 C2040 1.425 . S
C2045 C2042 1.409 . S
C2045 C2043 1.415 . S
C2046 H2036 0.930 . S
C2046 C2044 1.419 . S
C2046 C2047 1.362 . S
C2047 H2037 0.930 . S
C2047 C2040 1.409 . S
C2047 C2046 1.362 . S
H2048 C2054 0.930 . S
H2049 C2057 0.930 1_556 S
H2050 C2058 0.930 . S
H2051 C2059 0.930 . S
H2052 C2062 0.930 . S
H2053 C2063 0.930 . S
C2054 H2048 0.930 . S
C2054 C2055 1.355 . S
C2054 C2056 1.415 . S
C2055 C2054 1.355 . S
C2055 C2057 1.419 . S
C2056 C2054 1.415 . S
C2056 C2061 1.425 1_565 S
C2056 C2063 1.409 . S
C2057 H2049 0.930 1_554 S
C2057 C2055 1.419 . S
C2057 C2058 1.362 1_565 S
C2058 H2050 0.930 . S
C2058 C2057 1.362 1_545 S
C2058 C2061 1.409 . S
C2059 H2051 0.930 . S
C2059 C2060 1.355 . S
C2059 C2061 1.415 . S
C2060 C2059 1.355 . S
C2060 C2062 1.419 1_545 S
C2061 C2056 1.425 1_545 S
C2061 C2058 1.409 . S
C2061 C2059 1.415 . S
C2062 H2052 0.930 . S
C2062 C2060 1.419 1_565 S
C2062 C2063 1.362 . S
C2063 H2053 0.930 . S
C2063 C2056 1.409 . S
C2063 C2062 1.362 . S
H2064 C2070 0.930 . S
H2065 C2073 0.930 . S
H2066 C2074 0.930 . S
H2067 C2075 0.930 . S
H2068 C2078 0.930 . S
H2069 C2079 0.930 . S
C2070 H2064 0.930 . S
C2070 C2071 1.355 . S
C2070 C2072 1.415 . S
C2071 C2070 1.355 . S
C2071 C2073 1.419 . S
C2072 C2070 1.415 . S
C2072 C2077 1.425 . S
C2072 C2079 1.409 . S
C2073 H2065 0.930 . S
C2073 C2071 1.419 . S
C2073 C2074 1.362 . S
C2074 H2066 0.930 . S
C2074 C2073 1.362 . S
C2074 C2077 1.409 . S
C2075 H2067 0.930 . S
C2075 C2076 1.355 . S
C2075 C2077 1.415 . S
C2076 C2075 1.355 . S
C2076 C2078 1.419 . S
C2077 C2072 1.425 . S
C2077 C2074 1.409 . S
C2077 C2075 1.415 . S
C2078 H2068 0.930 . S
C2078 C2076 1.419 . S
C2078 C2079 1.362 . S
C2079 H2069 0.930 . S
C2079 C2072 1.409 . S
C2079 C2078 1.362 . S
H2080 C2086 0.930 . S
H2081 C2089 0.930 . S
H2082 C2090 0.930 . S
H2083 C2091 0.930 . S
H2084 C2094 0.930 . S
H2085 C2095 0.930 . S
C2086 H2080 0.930 . S
C2086 C2087 1.355 . S
C2086 C2088 1.415 . S
C2087 C2086 1.355 . S
C2087 C2089 1.419 . S
C2088 C2086 1.415 . S
C2088 C2093 1.425 . S
C2088 C2095 1.409 . S
C2089 H2081 0.930 . S
C2089 C2087 1.419 . S
C2089 C2090 1.362 . S
C2090 H2082 0.930 . S
C2090 C2089 1.362 . S
C2090 C2093 1.409 . S
C2091 H2083 0.930 . S
C2091 C2092 1.355 . S
C2091 C2093 1.415 . S
C2092 C2091 1.355 . S
C2092 C2094 1.419 . S
C2093 C2088 1.425 . S
C2093 C2090 1.409 . S
C2093 C2091 1.415 . S
C2094 H2084 0.930 . S
C2094 C2092 1.419 . S
C2094 C2095 1.362 . S
C2095 H2085 0.930 . S
C2095 C2088 1.409 . S
C2095 C2094 1.362 . S
H2096 C2102 0.930 . S
H2097 C2105 0.930 . S
H2098 C2106 0.930 . S
H2099 C2107 0.930 . S
H2100 C2110 0.930 . S
H2101 C2111 0.930 . S
C2102 H2096 0.930 . S
C2102 C2103 1.355 . S
C2102 C2104 1.415 . S
C2103 C2102 1.355 . S
C2103 C2105 1.419 . S
C2104 C2102 1.415 . S
C2104 C2109 1.425 . S
C2104 C2111 1.409 . S
C2105 H2097 0.930 . S
C2105 C2103 1.419 . S
C2105 C2106 1.362 . S
C2106 H2098 0.930 . S
C2106 C2105 1.362 . S
C2106 C2109 1.409 . S
C2107 H2099 0.930 . S
C2107 C2108 1.355 . S
C2107 C2109 1.415 . S
C2108 C2107 1.355 . S
C2108 C2110 1.419 . S
C2109 C2104 1.425 . S
C2109 C2106 1.409 . S
C2109 C2107 1.415 . S
C2110 H2100 0.930 . S
C2110 C2108 1.419 . S
C2110 C2111 1.362 . S
C2111 H2101 0.930 . S
C2111 C2104 1.409 . S
C2111 C2110 1.362 . S
H2112 C2118 0.930 . S
H2113 C2121 0.930 . S
H2114 C2122 0.930 . S
H2115 C2123 0.930 . S
H2116 C2126 0.930 . S
H2117 C2127 0.930 . S
C2118 H2112 0.930 . S
C2118 C2119 1.355 . S
C2118 C2120 1.415 . S
C2119 C2118 1.355 . S
C2119 C2121 1.419 . S
C2120 C2118 1.415 . S
C2120 C2125 1.425 . S
C2120 C2127 1.409 . S
C2121 H2113 0.930 . S
C2121 C2119 1.419 . S
C2121 C2122 1.362 . S
C2122 H2114 0.930 . S
C2122 C2121 1.362 . S
C2122 C2125 1.409 . S
C2123 H2115 0.930 . S
C2123 C2124 1.355 . S
C2123 C2125 1.415 . S
C2124 C2123 1.355 . S
C2124 C2126 1.419 . S
C2125 C2120 1.425 . S
C2125 C2122 1.409 . S
C2125 C2123 1.415 . S
C2126 H2116 0.930 . S
C2126 C2124 1.419 . S
C2126 C2127 1.362 . S
C2127 H2117 0.930 . S
C2127 C2120 1.409 . S
C2127 C2126 1.362 . S
H2128 C2134 0.930 . S
H2129 C2137 0.930 . S
H2130 C2138 0.930 . S
H2131 C2139 0.930 . S
H2132 C2142 0.930 . S
H2133 C2143 0.930 . S
C2134 H2128 0.930 . S
C2134 C2135 1.355 . S
C2134 C2136 1.415 . S
C2135 C2134 1.355 . S
C2135 C2137 1.419 . S
C2136 C2134 1.415 . S
C2136 C2141 1.425 . S
C2136 C2143 1.409 . S
C2137 H2129 0.930 . S
C2137 C2135 1.419 . S
C2137 C2138 1.362 . S
C2138 H2130 0.930 . S
C2138 C2137 1.362 . S
C2138 C2141 1.409 . S
C2139 H2131 0.930 . S
C2139 C2140 1.355 . S
C2139 C2141 1.415 . S
C2140 C2139 1.355 . S
C2140 C2142 1.419 . S
C2141 C2136 1.425 . S
C2141 C2138 1.409 . S
C2141 C2139 1.415 . S
C2142 H2132 0.930 . S
C2142 C2140 1.419 . S
C2142 C2143 1.362 . S
C2143 H2133 0.930 . S
C2143 C2136 1.409 . S
C2143 C2142 1.362 . S
H2144 C2150 0.930 . S
H2145 C2153 0.930 . S
H2146 C2154 0.930 . S
H2147 C2155 0.930 . S
H2148 C2158 0.930 . S
H2149 C2159 0.930 . S
C2150 H2144 0.930 . S
C2150 C2151 1.355 . S
C2150 C2152 1.415 . S
C2151 C2150 1.355 . S
C2151 C2153 1.419 . S
C2152 C2150 1.415 . S
C2152 C2157 1.425 . S
C2152 C2159 1.409 . S
C2153 H2145 0.930 . S
C2153 C2151 1.419 . S
C2153 C2154 1.362 . S
C2154 H2146 0.930 . S
C2154 C2153 1.362 . S
C2154 C2157 1.409 . S
C2155 H2147 0.930 . S
C2155 C2156 1.355 . S
C2155 C2157 1.415 . S
C2156 C2155 1.355 . S
C2156 C2158 1.419 . S
C2157 C2152 1.425 . S
C2157 C2154 1.409 . S
C2157 C2155 1.415 . S
C2158 H2148 0.930 . S
C2158 C2156 1.419 . S
C2158 C2159 1.362 . S
C2159 H2149 0.930 . S
C2159 C2152 1.409 . S
C2159 C2158 1.362 . S
H2160 C2166 0.930 . S
H2161 C2169 0.930 . S
H2162 C2170 0.930 . S
H2163 C2171 0.930 . S
H2164 C2174 0.930 . S
H2165 C2175 0.930 . S
C2166 H2160 0.930 . S
C2166 C2167 1.355 . S
C2166 C2168 1.415 . S
C2167 C2166 1.355 . S
C2167 C2169 1.419 . S
C2168 C2166 1.415 . S
C2168 C2173 1.425 . S
C2168 C2175 1.409 . S
C2169 H2161 0.930 . S
C2169 C2167 1.419 . S
C2169 C2170 1.362 . S
C2170 H2162 0.930 . S
C2170 C2169 1.362 . S
C2170 C2173 1.409 . S
C2171 H2163 0.930 . S
C2171 C2172 1.355 . S
C2171 C2173 1.415 . S
C2172 C2171 1.355 . S
C2172 C2174 1.419 . S
C2173 C2168 1.425 . S
C2173 C2170 1.409 . S
C2173 C2171 1.415 . S
C2174 H2164 0.930 . S
C2174 C2172 1.419 . S
C2174 C2175 1.362 . S
C2175 H2165 0.930 . S
C2175 C2168 1.409 . S
C2175 C2174 1.362 . S
H2176 C2182 0.930 . S
H2177 C2185 0.930 . S
H2178 C2186 0.930 . S
H2179 C2187 0.930 . S
H2180 C2190 0.930 . S
H2181 C2191 0.930 . S
C2182 H2176 0.930 . S
C2182 C2183 1.355 . S
C2182 C2184 1.415 . S
C2183 C2182 1.355 . S
C2183 C2185 1.419 . S
C2184 C2182 1.415 . S
C2184 C2189 1.425 . S
C2184 C2191 1.409 . S
C2185 H2177 0.930 . S
C2185 C2183 1.419 . S
C2185 C2186 1.362 . S
C2186 H2178 0.930 . S
C2186 C2185 1.362 . S
C2186 C2189 1.409 . S
C2187 H2179 0.930 . S
C2187 C2188 1.355 . S
C2187 C2189 1.415 . S
C2188 C2187 1.355 . S
C2188 C2190 1.419 . S
C2189 C2184 1.425 . S
C2189 C2186 1.409 . S
C2189 C2187 1.415 . S
C2190 H2180 0.930 . S
C2190 C2188 1.419 . S
C2190 C2191 1.362 . S
C2191 H2181 0.930 . S
C2191 C2184 1.409 . S
C2191 C2190 1.362 . S
H2192 C2198 0.930 . S
H2193 C2201 0.930 . S
H2194 C2202 0.930 . S
H2195 C2203 0.930 . S
H2196 C2206 0.930 . S
H2197 C2207 0.930 . S
C2198 H2192 0.930 . S
C2198 C2199 1.355 . S
C2198 C2200 1.415 . S
C2199 C2198 1.355 . S
C2199 C2201 1.419 . S
C2200 C2198 1.415 . S
C2200 C2205 1.425 . S
C2200 C2207 1.409 . S
C2201 H2193 0.930 . S
C2201 C2199 1.419 . S
C2201 C2202 1.362 . S
C2202 H2194 0.930 . S
C2202 C2201 1.362 . S
C2202 C2205 1.409 . S
C2203 H2195 0.930 . S
C2203 C2204 1.355 . S
C2203 C2205 1.415 . S
C2204 C2203 1.355 . S
C2204 C2206 1.419 . S
C2205 C2200 1.425 . S
C2205 C2202 1.409 . S
C2205 C2203 1.415 . S
C2206 H2196 0.930 . S
C2206 C2204 1.419 . S
C2206 C2207 1.362 . S
C2207 H2197 0.930 . S
C2207 C2200 1.409 . S
C2207 C2206 1.362 . S
H2208 C2214 0.930 . S
H2209 C2217 0.930 . S
H2210 C2218 0.930 . S
H2211 C2219 0.930 . S
H2212 C2222 0.930 . S
H2213 C2223 0.930 . S
C2214 H2208 0.930 . S
C2214 C2215 1.355 . S
C2214 C2216 1.415 . S
C2215 C2214 1.355 . S
C2215 C2217 1.419 . S
C2216 C2214 1.415 . S
C2216 C2221 1.425 . S
C2216 C2223 1.409 . S
C2217 H2209 0.930 . S
C2217 C2215 1.419 . S
C2217 C2218 1.362 . S
C2218 H2210 0.930 . S
C2218 C2217 1.362 . S
C2218 C2221 1.409 . S
C2219 H2211 0.930 . S
C2219 C2220 1.355 . S
C2219 C2221 1.415 . S
C2220 C2219 1.355 . S
C2220 C2222 1.419 . S
C2221 C2216 1.425 . S
C2221 C2218 1.409 . S
C2221 C2219 1.415 . S
C2222 H2212 0.930 . S
C2222 C2220 1.419 . S
C2222 C2223 1.362 . S
C2223 H2213 0.930 . S
C2223 C2216 1.409 . S
C2223 C2222 1.362 . S
H2224 C2230 0.930 . S
H2225 C2233 0.930 . S
H2226 C2234 0.930 1_655 S
H2227 C2235 0.930 . S
H2228 C2238 0.930 . S
H2229 C2239 0.930 . S
C2230 H2224 0.930 . S
C2230 C2231 1.355 . S
C2230 C2232 1.415 . S
C2231 C2230 1.355 . S
C2231 C2233 1.419 . S
C2232 C2230 1.415 . S
C2232 C2237 1.425 . S
C2232 C2239 1.409 . S
C2233 H2225 0.930 . S
C2233 C2231 1.419 . S
C2233 C2234 1.362 . S
C2234 H2226 0.930 1_455 S
C2234 C2233 1.362 . S
C2234 C2237 1.409 . S
C2235 H2227 0.930 . S
C2235 C2236 1.355 . S
C2235 C2237 1.415 . S
C2236 C2235 1.355 . S
C2236 C2238 1.419 . S
C2237 C2232 1.425 . S
C2237 C2234 1.409 . S
C2237 C2235 1.415 . S
C2238 H2228 0.930 . S
C2238 C2236 1.419 . S
C2238 C2239 1.362 . S
C2239 H2229 0.930 . S
C2239 C2232 1.409 . S
C2239 C2238 1.362 . S
H2240 C2246 0.930 . S
H2241 C2249 0.930 . S
H2242 C2250 0.930 . S
H2243 C2251 0.930 . S
H2244 C2254 0.930 . S
H2245 C2255 0.930 . S
C2246 H2240 0.930 . S
C2246 C2247 1.355 . S
C2246 C2248 1.415 . S
C2247 C2246 1.355 . S
C2247 C2249 1.419 . S
C2248 C2246 1.415 . S
C2248 C2253 1.425 . S
C2248 C2255 1.409 . S
C2249 H2241 0.930 . S
C2249 C2247 1.419 . S
C2249 C2250 1.362 . S
C2250 H2242 0.930 . S
C2250 C2249 1.362 . S
C2250 C2253 1.409 . S
C2251 H2243 0.930 . S
C2251 C2252 1.355 . S
C2251 C2253 1.415 . S
C2252 C2251 1.355 . S
C2252 C2254 1.419 . S
C2253 C2248 1.425 . S
C2253 C2250 1.409 . S
C2253 C2251 1.415 . S
C2254 H2244 0.930 . S
C2254 C2252 1.419 . S
C2254 C2255 1.362 . S
C2255 H2245 0.930 . S
C2255 C2248 1.409 . S
C2255 C2254 1.362 . S
H2256 C2262 0.930 . S
H2257 C2265 0.930 . S
H2258 C2266 0.930 . S
H2259 C2267 0.930 . S
H2260 C2270 0.930 . S
H2261 C2271 0.930 . S
C2262 H2256 0.930 . S
C2262 C2263 1.355 . S
C2262 C2264 1.415 . S
C2263 C2262 1.355 . S
C2263 C2265 1.419 . S
C2264 C2262 1.415 . S
C2264 C2269 1.425 . S
C2264 C2271 1.409 . S
C2265 H2257 0.930 . S
C2265 C2263 1.419 . S
C2265 C2266 1.362 . S
C2266 H2258 0.930 . S
C2266 C2265 1.362 . S
C2266 C2269 1.409 . S
C2267 H2259 0.930 . S
C2267 C2268 1.355 . S
C2267 C2269 1.415 . S
C2268 C2267 1.355 . S
C2268 C2270 1.419 . S
C2269 C2264 1.425 . S
C2269 C2266 1.409 . S
C2269 C2267 1.415 . S
C2270 H2260 0.930 . S
C2270 C2268 1.419 . S
C2270 C2271 1.362 . S
C2271 H2261 0.930 . S
C2271 C2264 1.409 . S
C2271 C2270 1.362 . S
H2272 C2278 0.930 . S
H2273 C2281 0.930 . S
H2274 C2282 0.930 . S
H2275 C2283 0.930 . S
H2276 C2286 0.930 . S
H2277 C2287 0.930 . S
C2278 H2272 0.930 . S
C2278 C2279 1.355 . S
C2278 C2280 1.415 . S
C2279 C2278 1.355 . S
C2279 C2281 1.419 . S
C2280 C2278 1.415 . S
C2280 C2285 1.425 . S
C2280 C2287 1.409 . S
C2281 H2273 0.930 . S
C2281 C2279 1.419 . S
C2281 C2282 1.362 . S
C2282 H2274 0.930 . S
C2282 C2281 1.362 . S
C2282 C2285 1.409 . S
C2283 H2275 0.930 . S
C2283 C2284 1.355 . S
C2283 C2285 1.415 . S
C2284 C2283 1.355 . S
C2284 C2286 1.419 . S
C2285 C2280 1.425 . S
C2285 C2282 1.409 . S
C2285 C2283 1.415 . S
C2286 H2276 0.930 . S
C2286 C2284 1.419 . S
C2286 C2287 1.362 . S
C2287 H2277 0.930 . S
C2287 C2280 1.409 . S
C2287 C2286 1.362 . S
H2288 C2294 0.930 . S
H2289 C2297 0.930 . S
H2290 C2298 0.930 . S
H2291 C2299 0.930 1_455 S
H2292 C2302 0.930 1_554 S
H2293 C2303 0.930 . S
C2294 H2288 0.930 . S
C2294 C2295 1.355 . S
C2294 C2296 1.415 . S
C2295 C2294 1.355 . S
C2295 C2297 1.419 . S
C2296 C2294 1.415 . S
C2296 C2301 1.425 . S
C2296 C2303 1.409 . S
C2297 H2289 0.930 . S
C2297 C2295 1.419 . S
C2297 C2298 1.362 . S
C2298 H2290 0.930 . S
C2298 C2297 1.362 . S
C2298 C2301 1.409 . S
C2299 H2291 0.930 1_655 S
C2299 C2300 1.355 . S
C2299 C2301 1.415 . S
C2300 C2299 1.355 . S
C2300 C2302 1.419 . S
C2301 C2296 1.425 . S
C2301 C2298 1.409 . S
C2301 C2299 1.415 . S
C2302 H2292 0.930 1_556 S
C2302 C2300 1.419 . S
C2302 C2303 1.362 . S
C2303 H2293 0.930 . S
C2303 C2296 1.409 . S
C2303 C2302 1.362 . S
H2304 C2310 0.930 . S
H2305 C2313 0.930 . S
H2306 C2314 0.930 . S
H2307 C2315 0.930 . S
H2308 C2318 0.930 . S
H2309 C2319 0.930 . S
C2310 H2304 0.930 . S
C2310 C2311 1.355 . S
C2310 C2312 1.415 . S
C2311 C2310 1.355 . S
C2311 C2313 1.419 . S
C2312 C2310 1.415 . S
C2312 C2317 1.425 . S
C2312 C2319 1.409 . S
C2313 H2305 0.930 . S
C2313 C2311 1.419 . S
C2313 C2314 1.362 . S
C2314 H2306 0.930 . S
C2314 C2313 1.362 . S
C2314 C2317 1.409 . S
C2315 H2307 0.930 . S
C2315 C2316 1.355 . S
C2315 C2317 1.415 . S
C2316 C2315 1.355 . S
C2316 C2318 1.419 . S
C2317 C2312 1.425 . S
C2317 C2314 1.409 . S
C2317 C2315 1.415 . S
C2318 H2308 0.930 . S
C2318 C2316 1.419 . S
C2318 C2319 1.362 . S
C2319 H2309 0.930 . S
C2319 C2312 1.409 . S
C2319 C2318 1.362 . S
H2320 C2326 0.930 . S
H2321 C2329 0.930 . S
H2322 C2330 0.930 . S
H2323 C2331 0.930 . S
H2324 C2334 0.930 . S
H2325 C2335 0.930 . S
C2326 H2320 0.930 . S
C2326 C2327 1.355 . S
C2326 C2328 1.415 . S
C2327 C2326 1.355 . S
C2327 C2329 1.419 . S
C2328 C2326 1.415 . S
C2328 C2333 1.425 . S
C2328 C2335 1.409 . S
C2329 H2321 0.930 . S
C2329 C2327 1.419 . S
C2329 C2330 1.362 . S
C2330 H2322 0.930 . S
C2330 C2329 1.362 . S
C2330 C2333 1.409 . S
C2331 H2323 0.930 . S
C2331 C2332 1.355 . S
C2331 C2333 1.415 . S
C2332 C2331 1.355 . S
C2332 C2334 1.419 . S
C2333 C2328 1.425 . S
C2333 C2330 1.409 . S
C2333 C2331 1.415 . S
C2334 H2324 0.930 . S
C2334 C2332 1.419 . S
C2334 C2335 1.362 . S
C2335 H2325 0.930 . S
C2335 C2328 1.409 . S
C2335 C2334 1.362 . S
H2336 C2342 0.930 . S
H2337 C2345 0.930 . S
H2338 C2346 0.930 . S
H2339 C2347 0.930 . S
H2340 C2350 0.930 . S
H2341 C2351 0.930 . S
C2342 H2336 0.930 . S
C2342 C2343 1.355 . S
C2342 C2344 1.415 . S
C2343 C2342 1.355 . S
C2343 C2345 1.419 . S
C2344 C2342 1.415 . S
C2344 C2349 1.425 . S
C2344 C2351 1.409 . S
C2345 H2337 0.930 . S
C2345 C2343 1.419 . S
C2345 C2346 1.362 . S
C2346 H2338 0.930 . S
C2346 C2345 1.362 . S
C2346 C2349 1.409 . S
C2347 H2339 0.930 . S
C2347 C2348 1.355 . S
C2347 C2349 1.415 . S
C2348 C2347 1.355 . S
C2348 C2350 1.419 . S
C2349 C2344 1.425 . S
C2349 C2346 1.409 . S
C2349 C2347 1.415 . S
C2350 H2340 0.930 . S
C2350 C2348 1.419 . S
C2350 C2351 1.362 . S
C2351 H2341 0.930 . S
C2351 C2344 1.409 . S
C2351 C2350 1.362 . S
H2352 C2358 0.930 . S
H2353 C2361 0.930 . S
H2354 C2362 0.930 . S
H2355 C2363 0.930 . S
H2356 C2366 0.930 . S
H2357 C2367 0.930 . S
C2358 H2352 0.930 . S
C2358 C2359 1.355 . S
C2358 C2360 1.415 . S
C2359 C2358 1.355 . S
C2359 C2361 1.419 . S
C2360 C2358 1.415 . S
C2360 C2365 1.425 . S
C2360 C2367 1.409 . S
C2361 H2353 0.930 . S
C2361 C2359 1.419 . S
C2361 C2362 1.362 . S
C2362 H2354 0.930 . S
C2362 C2361 1.362 . S
C2362 C2365 1.409 . S
C2363 H2355 0.930 . S
C2363 C2364 1.355 . S
C2363 C2365 1.415 . S
C2364 C2363 1.355 . S
C2364 C2366 1.419 . S
C2365 C2360 1.425 . S
C2365 C2362 1.409 . S
C2365 C2363 1.415 . S
C2366 H2356 0.930 . S
C2366 C2364 1.419 . S
C2366 C2367 1.362 . S
C2367 H2357 0.930 . S
C2367 C2360 1.409 . S
C2367 C2366 1.362 . S
H2368 C2374 0.930 . S
H2369 C2377 0.930 . S
H2370 C2378 0.930 . S
H2371 C2379 0.930 . S
H2372 C2382 0.930 . S
H2373 C2383 0.930 . S
C2374 H2368 0.930 . S
C2374 C2375 1.355 . S
C2374 C2376 1.415 . S
C2375 C2374 1.355 . S
C2375 C2377 1.419 . S
C2376 C2374 1.415 . S
C2376 C2381 1.425 . S
C2376 C2383 1.409 . S
C2377 H2369 0.930 . S
C2377 C2375 1.419 . S
C2377 C2378 1.362 . S
C2378 H2370 0.930 . S
C2378 C2377 1.362 . S
C2378 C2381 1.409 . S
C2379 H2371 0.930 . S
C2379 C2380 1.355 . S
C2379 C2381 1.415 . S
C2380 C2379 1.355 . S
C2380 C2382 1.419 . S
C2381 C2376 1.425 . S
C2381 C2378 1.409 . S
C2381 C2379 1.415 . S
C2382 H2372 0.930 . S
C2382 C2380 1.419 . S
C2382 C2383 1.362 . S
C2383 H2373 0.930 . S
C2383 C2376 1.409 . S
C2383 C2382 1.362 . S
H2384 C2390 0.930 . S
H2385 C2393 0.930 . S
H2386 C2394 0.930 . S
H2387 C2395 0.930 . S
H2388 C2398 0.930 . S
H2389 C2399 0.930 . S
C2390 H2384 0.930 . S
C2390 C2391 1.355 . S
C2390 C2392 1.415 . S
C2391 C2390 1.355 . S
C2391 C2393 1.419 . S
C2392 C2390 1.415 . S
C2392 C2397 1.425 . S
C2392 C2399 1.409 . S
C2393 H2385 0.930 . S
C2393 C2391 1.419 . S
C2393 C2394 1.362 . S
C2394 H2386 0.930 . S
C2394 C2393 1.362 . S
C2394 C2397 1.409 . S
C2395 H2387 0.930 . S
C2395 C2396 1.355 . S
C2395 C2397 1.415 . S
C2396 C2395 1.355 . S
C2396 C2398 1.419 . S
C2397 C2392 1.425 . S
C2397 C2394 1.409 . S
C2397 C2395 1.415 . S
C2398 H2388 0.930 . S
C2398 C2396 1.419 . S
C2398 C2399 1.362 . S
C2399 H2389 0.930 . S
C2399 C2392 1.409 . S
C2399 C2398 1.362 . S
H2400 C2406 0.930 . S
H2401 C2409 0.930 . S
H2402 C2410 0.930 . S
H2403 C2411 0.916 1_545 S
H2404 C2414 0.930 . S
H2405 C2415 0.930 . S
C2406 H2400 0.930 . S
C2406 C2407 1.355 . S
C2406 C2408 1.415 . S
C2407 C2406 1.355 . S
C2407 C2409 1.419 . S
C2408 C2406 1.415 . S
C2408 C2413 1.425 . S
C2408 C2415 1.409 . S
C2409 H2401 0.930 . S
C2409 C2407 1.419 . S
C2409 C2410 1.362 . S
C2410 H2402 0.930 . S
C2410 C2409 1.362 . S
C2410 C2413 1.409 . S
C2411 H2403 0.916 1_565 S
C2411 C2412 1.357 1_565 S
C2411 C2413 1.424 . S
C2412 C2411 1.357 1_545 S
C2412 C2414 1.424 1_545 S
C2413 C2408 1.425 . S
C2413 C2410 1.409 . S
C2413 C2411 1.424 . S
C2414 H2404 0.930 . S
C2414 C2412 1.424 1_565 S
C2414 C2415 1.362 . S
C2415 H2405 0.930 . S
C2415 C2408 1.409 . S
C2415 C2414 1.362 . S
H2416 C2422 0.930 . S
H2417 C2425 0.930 . S
H2418 C2426 0.930 . S
H2419 C2427 0.930 . S
H2420 C2430 0.930 . S
H2421 C2431 0.930 . S
C2422 H2416 0.930 . S
C2422 C2423 1.355 . S
C2422 C2424 1.415 . S
C2423 C2422 1.355 . S
C2423 C2425 1.419 . S
C2424 C2422 1.415 . S
C2424 C2429 1.425 . S
C2424 C2431 1.409 . S
C2425 H2417 0.930 . S
C2425 C2423 1.419 . S
C2425 C2426 1.362 . S
C2426 H2418 0.930 . S
C2426 C2425 1.362 . S
C2426 C2429 1.409 . S
C2427 H2419 0.930 . S
C2427 C2428 1.355 . S
C2427 C2429 1.415 . S
C2428 C2427 1.355 . S
C2428 C2430 1.419 . S
C2429 C2424 1.425 . S
C2429 C2426 1.409 . S
C2429 C2427 1.415 . S
C2430 H2420 0.930 . S
C2430 C2428 1.419 . S
C2430 C2431 1.362 . S
C2431 H2421 0.930 . S
C2431 C2424 1.409 . S
C2431 C2430 1.362 . S
H2432 C2438 0.930 . S
H2433 C2441 0.930 . S
H2434 C2442 0.930 . S
H2435 C2443 0.930 . S
H2436 C2446 0.930 . S
H2437 C2447 0.930 . S
C2438 H2432 0.930 . S
C2438 C2439 1.355 . S
C2438 C2440 1.415 . S
C2439 C2438 1.355 . S
C2439 C2441 1.419 . S
C2440 C2438 1.415 . S
C2440 C2445 1.425 . S
C2440 C2447 1.409 . S
C2441 H2433 0.930 . S
C2441 C2439 1.419 . S
C2441 C2442 1.362 . S
C2442 H2434 0.930 . S
C2442 C2441 1.362 . S
C2442 C2445 1.409 . S
C2443 H2435 0.930 . S
C2443 C2444 1.355 . S
C2443 C2445 1.415 . S
C2444 C2443 1.355 . S
C2444 C2446 1.419 . S
C2445 C2440 1.425 . S
C2445 C2442 1.409 . S
C2445 C2443 1.415 . S
C2446 H2436 0.930 . S
C2446 C2444 1.419 . S
C2446 C2447 1.362 . S
C2447 H2437 0.930 . S
C2447 C2440 1.409 . S
C2447 C2446 1.362 . S
H2448 C2454 0.930 . S
H2449 C2457 0.930 . S
H2450 C2458 0.930 . S
H2451 C2459 0.930 . S
H2452 C2462 0.930 . S
H2453 C2463 0.930 . S
C2454 H2448 0.930 . S
C2454 C2455 1.355 . S
C2454 C2456 1.415 . S
C2455 C2454 1.355 . S
C2455 C2457 1.419 . S
C2456 C2454 1.415 . S
C2456 C2461 1.425 . S
C2456 C2463 1.409 . S
C2457 H2449 0.930 . S
C2457 C2455 1.419 . S
C2457 C2458 1.362 . S
C2458 H2450 0.930 . S
C2458 C2457 1.362 . S
C2458 C2461 1.409 . S
C2459 H2451 0.930 . S
C2459 C2460 1.355 . S
C2459 C2461 1.415 . S
C2460 C2459 1.355 . S
C2460 C2462 1.419 . S
C2461 C2456 1.425 . S
C2461 C2458 1.409 . S
C2461 C2459 1.415 . S
C2462 H2452 0.930 . S
C2462 C2460 1.419 . S
C2462 C2463 1.362 . S
C2463 H2453 0.930 . S
C2463 C2456 1.409 . S
C2463 C2462 1.362 . S
H2464 C2470 0.930 . S
H2465 C2473 0.930 . S
H2466 C2474 0.952 . S
H2467 C2475 0.930 1_556 S
H2468 C2478 0.930 . S
H2469 C2479 0.930 . S
C2470 H2464 0.930 . S
C2470 C2471 1.355 . S
C2470 C2472 1.415 . S
C2471 C2470 1.355 . S
C2471 C2473 1.419 . S
C2472 C2470 1.415 . S
C2472 C2477 1.425 . S
C2472 C2479 1.409 . S
C2473 H2465 0.930 . S
C2473 C2471 1.419 . S
C2473 C2474 1.362 . S
C2474 H2466 0.952 . S
C2474 C2473 1.362 . S
C2474 C2477 1.409 . S
C2475 H2467 0.930 1_554 S
C2475 C2476 1.355 . S
C2475 C2477 1.415 . S
C2476 C2475 1.355 . S
C2476 C2478 1.419 . S
C2477 C2472 1.425 . S
C2477 C2474 1.409 . S
C2477 C2475 1.415 . S
C2478 H2468 0.930 . S
C2478 C2476 1.419 . S
C2478 C2479 1.362 . S
C2479 H2469 0.930 . S
C2479 C2472 1.409 . S
C2479 C2478 1.362 . S
H2480 C2486 0.930 . S
H2481 C2489 0.930 . S
H2482 C2490 0.930 . S
H2483 C2491 0.930 . S
H2484 C2494 0.930 . S
H2485 C2495 0.930 . S
C2486 H2480 0.930 . S
C2486 C2487 1.355 . S
C2486 C2488 1.415 . S
C2487 C2486 1.355 . S
C2487 C2489 1.419 . S
C2488 C2486 1.415 . S
C2488 C2493 1.425 . S
C2488 C2495 1.409 . S
C2489 H2481 0.930 . S
C2489 C2487 1.419 . S
C2489 C2490 1.362 . S
C2490 H2482 0.930 . S
C2490 C2489 1.362 . S
C2490 C2493 1.409 . S
C2491 H2483 0.930 . S
C2491 C2492 1.355 . S
C2491 C2493 1.415 . S
C2492 C2491 1.355 . S
C2492 C2494 1.419 . S
C2493 C2488 1.425 . S
C2493 C2490 1.409 . S
C2493 C2491 1.415 . S
C2494 H2484 0.930 . S
C2494 C2492 1.419 . S
C2494 C2495 1.362 . S
C2495 H2485 0.930 . S
C2495 C2488 1.409 . S
C2495 C2494 1.362 . S
H2496 C2502 0.930 . S
H2497 C2505 0.930 . S
H2498 C2506 0.930 . S
H2499 C2507 0.930 . S
H2500 C2510 0.930 . S
H2501 C2511 0.930 . S
C2502 H2496 0.930 . S
C2502 C2503 1.355 . S
C2502 C2504 1.415 . S
C2503 C2502 1.355 . S
C2503 C2505 1.419 . S
C2504 C2502 1.415 . S
C2504 C2509 1.425 . S
C2504 C2511 1.409 . S
C2505 H2497 0.930 . S
C2505 C2503 1.419 . S
C2505 C2506 1.362 . S
C2506 H2498 0.930 . S
C2506 C2505 1.362 . S
C2506 C2509 1.409 . S
C2507 H2499 0.930 . S
C2507 C2508 1.355 . S
C2507 C2509 1.415 . S
C2508 C2507 1.355 . S
C2508 C2510 1.419 . S
C2509 C2504 1.425 . S
C2509 C2506 1.409 . S
C2509 C2507 1.415 . S
C2510 H2500 0.930 . S
C2510 C2508 1.419 . S
C2510 C2511 1.362 . S
C2511 H2501 0.930 . S
C2511 C2504 1.409 . S
C2511 C2510 1.362 . S
C983 C105 2.349 1_454 S
C988 C349 2.305 . S
C999 C65 2.112 . S
C1004 C400 2.105 . S
C1015 C73 1.697 . S
C1020 C429 1.712 . S
C1036 C473 1.404 . S
C1031 C92 1.480 . S
C1047 C17 1.434 . S
C1052 C513 1.377 . S
C1068 C549 1.703 . S
C1063 C37 1.657 . S
C1084 C599 1.949 . S
C1079 C49 1.776 . S
C1095 C8 2.387 . S
C1100 C629 2.365 . S
C1116 C359 2.004 . S
C1111 C231 1.996 . S
C1127 C241 0.789 . S
C1132 C402 0.810 . S
C1148 C439 1.294 . S
C1143 C273 1.298 . S
C1164 C469 1.473 . S
C1159 C171 1.448 . S
C1175 C227 1.497 . S
C1180 C509 1.475 . S
C1196 C559 0.956 . S
C1191 C245 0.868 . S
C1212 C593 0.933 . S
C1207 C269 0.949 . S
C1228 C639 1.983 . S
C1223 C175 1.970 . S
C1244 C353 1.309 . S
C1239 C162 1.379 1_554 S
C1255 C289 1.748 . S
C1260 C679 1.751 . S
C1276 C713 1.494 . S
C1271 C330 1.563 . S
C1292 C749 0.928 . S
C1287 C317 0.879 . S
C1303 C120 1.520 . S
C1308 C633 1.445 . S
C1319 C134 1.634 . S
C1324 C433 1.559 . S
C1335 C331 1.634 . S
C1340 C799 1.654 . S
C1356 C818 0.409 . S
C1351 C303 0.232 . S
C1372 C360 2.308 . S
C1367 C59 2.298 . S
C1388 C829 2.150 . S
C1383 C107 2.163 . S
C1399 C91 1.738 . S
C1404 C440 1.747 . S
C1415 C78 1.493 . S
C1420 C802 1.438 . S
C1436 C522 1.344 . S
C1431 C7 1.330 . S
C1447 C51 1.740 . S
C1452 C720 1.711 . S
C1468 C578 1.967 1_566 S
C1463 C31 1.976 . S
C1484 C880 2.383 . S
C1479 C22 2.392 . S
C1500 C338 2.008 . S
C1495 C143 2.031 . S
C1516 C833 0.708 . S
C1511 C315 0.688 . S
C1527 C115 1.311 . S
C1532 C418 1.325 . S
C1543 C287 1.467 . S
C1548 C800 1.481 . S
C1559 C147 1.523 . S
C1564 C520 1.518 . S
C1580 C698 0.981 . S
C1575 C311 0.965 . S
C1591 C119 0.867 . S
C1596 C602 0.880 . S
C1607 C283 2.022 . S
C1612 C858 2.008 . S
C1623 C190 1.288 . S
C1628 C362 1.241 . S
C1639 C177 1.777 . S
C1644 C658 1.777 . S
C1655 C260 1.535 . S
C1660 C562 1.494 . S
C1671 C247 0.893 . S
C1676 C760 0.883 . S
C1692 C882 1.477 . S
C1687 C274 1.514 . S
C1703 C218 1.546 . S
C1708 C442 1.499 . S
C1724 C458 1.671 . S
C1719 C261 1.672 . S
C1740 C399 0.304 . S
C1735 C205 0.372 . S
C1751 C77 2.353 . S
C1756 C909 2.315 . S
C1772 C840 2.096 . S
C1767 C93 2.115 . S
C1783 C101 1.704 1_554 S
C1788 C949 1.705 . S
C1799 C64 1.527 1_655 S
C1804 C793 1.486 . S
C1815 C45 1.434 . S
C1820 C673 1.396 . S
C1836 C709 1.669 . S
C1831 C9 1.693 . S
C1852 C759 1.942 . S
C1847 C21 1.818 . S
C1868 C869 2.357 . S
C1863 C36 2.398 . S
C1884 C919 2.006 . S
C1879 C259 1.992 . S
C1895 C185 0.777 . S
C1900 C842 0.823 . S
C1916 C959 1.328 . S
C1911 C203 1.211 . S
C1932 C789 1.444 . S
C1927 C213 1.476 . S
C1948 C669 1.462 . S
C1943 C255 1.507 . S
C1959 C189 0.887 . S
C1964 C719 0.946 . S
C1980 C753 0.952 . S
C1975 C199 0.954 . S
C1991 C217 1.994 . S
C1996 C879 1.950 . S
C2012 C913 1.289 . S
C2007 C316 1.362 . S
C2023 C135 1.758 . S
C2028 C519 1.739 . S
C2044 C553 1.517 . S
C2039 C148 1.548 1_565 S
C2060 C589 0.824 . S
C2055 C163 0.899 . S
C2076 C873 1.476 . S
C2071 C302 1.539 . S
C2087 C288 1.606 . S
C2092 C953 1.561 . S
C2108 C479 1.638 . S
C2103 C149 1.651 . S
C2124 C378 0.409 . S
C2119 C121 0.232 . S
C2135 C87 2.297 . S
C2140 C920 2.334 . S
C2156 C389 2.138 . S
C2151 C79 2.147 . S
C2167 C63 1.732 . S
C2172 C960 1.756 . S
C2183 C106 1.531 . S
C2188 C482 1.498 . S
C2199 C35 1.324 . S
C2204 C682 1.344 . S
C2220 C560 1.744 . S
C2215 C23 1.701 . S
C2231 C3 1.947 . S
C2236 C738 1.983 . S
C2247 C50 2.390 . S
C2252 C640 2.356 . S
C2268 C898 2.032 . S
C2263 C325 2.046 . S
C2279 C161 0.771 . S
C2284 C393 0.785 . S
C2300 C938 1.324 1_655 S
C2295 C297 1.311 . S
C2311 C133 1.494 . S
C2316 C480 1.520 . S
C2327 C329 1.520 . S
C2332 C680 1.516 . S
C2348 C538 0.956 . S
C2343 C157 0.981 . S
C2359 C301 0.986 . S
C2364 C762 0.978 . S
C2380 C618 1.988 . S
C2375 C129 2.010 . S
C2396 C922 1.338 . S
C2391 C246 1.369 . S
C2412 C498 1.778 . S
C2407 C219 1.772 . S
C2423 C232 1.480 . S
C2428 C722 1.435 . S
C2444 C600 0.873 . S
C2439 C191 0.934 . S
C2455 C204 1.434 . S
C2460 C642 1.379 . S
C2471 C176 1.546 . S
C2476 C962 1.497 . S
C2492 C778 1.666 . S
C2487 C233 1.683 . S
C2508 C839 0.328 . S
C2503 C275 0.378 . S
