# Generated by pormake.
# Topology gar, (4,6)-cn, num edge types: 1
# Building blocks:
#     Node 0, Type 0, BuildingBlock: KUFVIS_clean_sbu_0, # of connection points: 4
#     Node 1, Type 0, BuildingBlock: KUFVIS_clean_sbu_0, # of connection points: 4
#     Node 2, Type 0, BuildingBlock: KUFVIS_clean_sbu_0, # of connection points: 4
#     Node 3, Type 0, BuildingBlock: KUFVIS_clean_sbu_0, # of connection points: 4
#     Node 4, Type 0, BuildingBlock: KUFVIS_clean_sbu_0, # of connection points: 4
#     Node 5, Type 0, BuildingBlock: KUFVIS_clean_sbu_0, # of connection points: 4
#     Node 6, Type 0, BuildingBlock: KUFVIS_clean_sbu_0, # of connection points: 4
#     Node 7, Type 0, BuildingBlock: KUFVIS_clean_sbu_0, # of connection points: 4
#     Node 8, Type 0, BuildingBlock: KUFVIS_clean_sbu_0, # of connection points: 4
#     Node 9, Type 0, BuildingBlock: KUFVIS_clean_sbu_0, # of connection points: 4
#     Node 10, Type 0, BuildingBlock: KUFVIS_clean_sbu_0, # of connection points: 4
#     Node 11, Type 0, BuildingBlock: KUFVIS_clean_sbu_0, # of connection points: 4
#     Node 12, Type 0, BuildingBlock: KUFVIS_clean_sbu_0, # of connection points: 4
#     Node 13, Type 0, BuildingBlock: KUFVIS_clean_sbu_0, # of connection points: 4
#     Node 14, Type 0, BuildingBlock: KUFVIS_clean_sbu_0, # of connection points: 4
#     Node 15, Type 0, BuildingBlock: KUFVIS_clean_sbu_0, # of connection points: 4
#     Node 16, Type 0, BuildingBlock: KUFVIS_clean_sbu_0, # of connection points: 4
#     Node 17, Type 0, BuildingBlock: KUFVIS_clean_sbu_0, # of connection points: 4
#     Node 18, Type 0, BuildingBlock: KUFVIS_clean_sbu_0, # of connection points: 4
#     Node 19, Type 0, BuildingBlock: KUFVIS_clean_sbu_0, # of connection points: 4
#     Node 20, Type 0, BuildingBlock: KUFVIS_clean_sbu_0, # of connection points: 4
#     Node 21, Type 0, BuildingBlock: KUFVIS_clean_sbu_0, # of connection points: 4
#     Node 22, Type 0, BuildingBlock: KUFVIS_clean_sbu_0, # of connection points: 4
#     Node 23, Type 0, BuildingBlock: KUFVIS_clean_sbu_0, # of connection points: 4
#     Node 24, Type 1, BuildingBlock: KUMBUR_clean_sbu_1, # of connection points: 6
#     Node 25, Type 1, BuildingBlock: KUMBUR_clean_sbu_1, # of connection points: 6
#     Node 26, Type 1, BuildingBlock: KUMBUR_clean_sbu_1, # of connection points: 6
#     Node 27, Type 1, BuildingBlock: KUMBUR_clean_sbu_1, # of connection points: 6
#     Node 28, Type 1, BuildingBlock: KUMBUR_clean_sbu_1, # of connection points: 6
#     Node 29, Type 1, BuildingBlock: KUMBUR_clean_sbu_1, # of connection points: 6
#     Node 30, Type 1, BuildingBlock: KUMBUR_clean_sbu_1, # of connection points: 6
#     Node 31, Type 1, BuildingBlock: KUMBUR_clean_sbu_1, # of connection points: 6
#     Node 32, Type 1, BuildingBlock: KUMBUR_clean_sbu_1, # of connection points: 6
#     Node 33, Type 1, BuildingBlock: KUMBUR_clean_sbu_1, # of connection points: 6
#     Node 34, Type 1, BuildingBlock: KUMBUR_clean_sbu_1, # of connection points: 6
#     Node 35, Type 1, BuildingBlock: KUMBUR_clean_sbu_1, # of connection points: 6
#     Node 36, Type 1, BuildingBlock: KUMBUR_clean_sbu_1, # of connection points: 6
#     Node 37, Type 1, BuildingBlock: KUMBUR_clean_sbu_1, # of connection points: 6
#     Node 38, Type 1, BuildingBlock: KUMBUR_clean_sbu_1, # of connection points: 6
#     Node 39, Type 1, BuildingBlock: KUMBUR_clean_sbu_1, # of connection points: 6
#     Edge 40, Type (0, 1), BuildingBlock: MIFKUJ_clean_linker_0, # of connection points: 2
#     Edge 41, Type (0, 1), BuildingBlock: MIFKUJ_clean_linker_0, # of connection points: 2
#     Edge 42, Type (0, 1), BuildingBlock: MIFKUJ_clean_linker_0, # of connection points: 2
#     Edge 43, Type (0, 1), BuildingBlock: MIFKUJ_clean_linker_0, # of connection points: 2
#     Edge 44, Type (0, 1), BuildingBlock: MIFKUJ_clean_linker_0, # of connection points: 2
#     Edge 45, Type (0, 1), BuildingBlock: MIFKUJ_clean_linker_0, # of connection points: 2
#     Edge 46, Type (0, 1), BuildingBlock: MIFKUJ_clean_linker_0, # of connection points: 2
#     Edge 47, Type (0, 1), BuildingBlock: MIFKUJ_clean_linker_0, # of connection points: 2
#     Edge 48, Type (0, 1), BuildingBlock: MIFKUJ_clean_linker_0, # of connection points: 2
#     Edge 49, Type (0, 1), BuildingBlock: MIFKUJ_clean_linker_0, # of connection points: 2
#     Edge 50, Type (0, 1), BuildingBlock: MIFKUJ_clean_linker_0, # of connection points: 2
#     Edge 51, Type (0, 1), BuildingBlock: MIFKUJ_clean_linker_0, # of connection points: 2
#     Edge 52, Type (0, 1), BuildingBlock: MIFKUJ_clean_linker_0, # of connection points: 2
#     Edge 53, Type (0, 1), BuildingBlock: MIFKUJ_clean_linker_0, # of connection points: 2
#     Edge 54, Type (0, 1), BuildingBlock: MIFKUJ_clean_linker_0, # of connection points: 2
#     Edge 55, Type (0, 1), BuildingBlock: MIFKUJ_clean_linker_0, # of connection points: 2
#     Edge 56, Type (0, 1), BuildingBlock: MIFKUJ_clean_linker_0, # of connection points: 2
#     Edge 57, Type (0, 1), BuildingBlock: MIFKUJ_clean_linker_0, # of connection points: 2
#     Edge 58, Type (0, 1), BuildingBlock: MIFKUJ_clean_linker_0, # of connection points: 2
#     Edge 59, Type (0, 1), BuildingBlock: MIFKUJ_clean_linker_0, # of connection points: 2
#     Edge 60, Type (0, 1), BuildingBlock: MIFKUJ_clean_linker_0, # of connection points: 2
#     Edge 61, Type (0, 1), BuildingBlock: MIFKUJ_clean_linker_0, # of connection points: 2
#     Edge 62, Type (0, 1), BuildingBlock: MIFKUJ_clean_linker_0, # of connection points: 2
#     Edge 63, Type (0, 1), BuildingBlock: MIFKUJ_clean_linker_0, # of connection points: 2
#     Edge 64, Type (0, 1), BuildingBlock: MIFKUJ_clean_linker_0, # of connection points: 2
#     Edge 65, Type (0, 1), BuildingBlock: MIFKUJ_clean_linker_0, # of connection points: 2
#     Edge 66, Type (0, 1), BuildingBlock: MIFKUJ_clean_linker_0, # of connection points: 2
#     Edge 67, Type (0, 1), BuildingBlock: MIFKUJ_clean_linker_0, # of connection points: 2
#     Edge 68, Type (0, 1), BuildingBlock: MIFKUJ_clean_linker_0, # of connection points: 2
#     Edge 69, Type (0, 1), BuildingBlock: MIFKUJ_clean_linker_0, # of connection points: 2
#     Edge 70, Type (0, 1), BuildingBlock: MIFKUJ_clean_linker_0, # of connection points: 2
#     Edge 71, Type (0, 1), BuildingBlock: MIFKUJ_clean_linker_0, # of connection points: 2
#     Edge 72, Type (0, 1), BuildingBlock: MIFKUJ_clean_linker_0, # of connection points: 2
#     Edge 73, Type (0, 1), BuildingBlock: MIFKUJ_clean_linker_0, # of connection points: 2
#     Edge 74, Type (0, 1), BuildingBlock: MIFKUJ_clean_linker_0, # of connection points: 2
#     Edge 75, Type (0, 1), BuildingBlock: MIFKUJ_clean_linker_0, # of connection points: 2
#     Edge 76, Type (0, 1), BuildingBlock: MIFKUJ_clean_linker_0, # of connection points: 2
#     Edge 77, Type (0, 1), BuildingBlock: MIFKUJ_clean_linker_0, # of connection points: 2
#     Edge 78, Type (0, 1), BuildingBlock: MIFKUJ_clean_linker_0, # of connection points: 2
#     Edge 79, Type (0, 1), BuildingBlock: MIFKUJ_clean_linker_0, # of connection points: 2
#     Edge 80, Type (0, 1), BuildingBlock: MIFKUJ_clean_linker_0, # of connection points: 2
#     Edge 81, Type (0, 1), BuildingBlock: MIFKUJ_clean_linker_0, # of connection points: 2
#     Edge 82, Type (0, 1), BuildingBlock: MIFKUJ_clean_linker_0, # of connection points: 2
#     Edge 83, Type (0, 1), BuildingBlock: MIFKUJ_clean_linker_0, # of connection points: 2
#     Edge 84, Type (0, 1), BuildingBlock: MIFKUJ_clean_linker_0, # of connection points: 2
#     Edge 85, Type (0, 1), BuildingBlock: MIFKUJ_clean_linker_0, # of connection points: 2
#     Edge 86, Type (0, 1), BuildingBlock: MIFKUJ_clean_linker_0, # of connection points: 2
#     Edge 87, Type (0, 1), BuildingBlock: MIFKUJ_clean_linker_0, # of connection points: 2
#     Edge 88, Type (0, 1), BuildingBlock: MIFKUJ_clean_linker_0, # of connection points: 2
#     Edge 89, Type (0, 1), BuildingBlock: MIFKUJ_clean_linker_0, # of connection points: 2
#     Edge 90, Type (0, 1), BuildingBlock: MIFKUJ_clean_linker_0, # of connection points: 2
#     Edge 91, Type (0, 1), BuildingBlock: MIFKUJ_clean_linker_0, # of connection points: 2
#     Edge 92, Type (0, 1), BuildingBlock: MIFKUJ_clean_linker_0, # of connection points: 2
#     Edge 93, Type (0, 1), BuildingBlock: MIFKUJ_clean_linker_0, # of connection points: 2
#     Edge 94, Type (0, 1), BuildingBlock: MIFKUJ_clean_linker_0, # of connection points: 2
#     Edge 95, Type (0, 1), BuildingBlock: MIFKUJ_clean_linker_0, # of connection points: 2
#     Edge 96, Type (0, 1), BuildingBlock: MIFKUJ_clean_linker_0, # of connection points: 2
#     Edge 97, Type (0, 1), BuildingBlock: MIFKUJ_clean_linker_0, # of connection points: 2
#     Edge 98, Type (0, 1), BuildingBlock: MIFKUJ_clean_linker_0, # of connection points: 2
#     Edge 99, Type (0, 1), BuildingBlock: MIFKUJ_clean_linker_0, # of connection points: 2
#     Edge 100, Type (0, 1), BuildingBlock: MIFKUJ_clean_linker_0, # of connection points: 2
#     Edge 101, Type (0, 1), BuildingBlock: MIFKUJ_clean_linker_0, # of connection points: 2
#     Edge 102, Type (0, 1), BuildingBlock: MIFKUJ_clean_linker_0, # of connection points: 2
#     Edge 103, Type (0, 1), BuildingBlock: MIFKUJ_clean_linker_0, # of connection points: 2
#     Edge 104, Type (0, 1), BuildingBlock: MIFKUJ_clean_linker_0, # of connection points: 2
#     Edge 105, Type (0, 1), BuildingBlock: MIFKUJ_clean_linker_0, # of connection points: 2
#     Edge 106, Type (0, 1), BuildingBlock: MIFKUJ_clean_linker_0, # of connection points: 2
#     Edge 107, Type (0, 1), BuildingBlock: MIFKUJ_clean_linker_0, # of connection points: 2
#     Edge 108, Type (0, 1), BuildingBlock: MIFKUJ_clean_linker_0, # of connection points: 2
#     Edge 109, Type (0, 1), BuildingBlock: MIFKUJ_clean_linker_0, # of connection points: 2
#     Edge 110, Type (0, 1), BuildingBlock: MIFKUJ_clean_linker_0, # of connection points: 2
#     Edge 111, Type (0, 1), BuildingBlock: MIFKUJ_clean_linker_0, # of connection points: 2
#     Edge 112, Type (0, 1), BuildingBlock: MIFKUJ_clean_linker_0, # of connection points: 2
#     Edge 113, Type (0, 1), BuildingBlock: MIFKUJ_clean_linker_0, # of connection points: 2
#     Edge 114, Type (0, 1), BuildingBlock: MIFKUJ_clean_linker_0, # of connection points: 2
#     Edge 115, Type (0, 1), BuildingBlock: MIFKUJ_clean_linker_0, # of connection points: 2
#     Edge 116, Type (0, 1), BuildingBlock: MIFKUJ_clean_linker_0, # of connection points: 2
#     Edge 117, Type (0, 1), BuildingBlock: MIFKUJ_clean_linker_0, # of connection points: 2
#     Edge 118, Type (0, 1), BuildingBlock: MIFKUJ_clean_linker_0, # of connection points: 2
#     Edge 119, Type (0, 1), BuildingBlock: MIFKUJ_clean_linker_0, # of connection points: 2
#     Edge 120, Type (0, 1), BuildingBlock: MIFKUJ_clean_linker_0, # of connection points: 2
#     Edge 121, Type (0, 1), BuildingBlock: MIFKUJ_clean_linker_0, # of connection points: 2
#     Edge 122, Type (0, 1), BuildingBlock: MIFKUJ_clean_linker_0, # of connection points: 2
#     Edge 123, Type (0, 1), BuildingBlock: MIFKUJ_clean_linker_0, # of connection points: 2
#     Edge 124, Type (0, 1), BuildingBlock: MIFKUJ_clean_linker_0, # of connection points: 2
#     Edge 125, Type (0, 1), BuildingBlock: MIFKUJ_clean_linker_0, # of connection points: 2
#     Edge 126, Type (0, 1), BuildingBlock: MIFKUJ_clean_linker_0, # of connection points: 2
#     Edge 127, Type (0, 1), BuildingBlock: MIFKUJ_clean_linker_0, # of connection points: 2
#     Edge 128, Type (0, 1), BuildingBlock: MIFKUJ_clean_linker_0, # of connection points: 2
#     Edge 129, Type (0, 1), BuildingBlock: MIFKUJ_clean_linker_0, # of connection points: 2
#     Edge 130, Type (0, 1), BuildingBlock: MIFKUJ_clean_linker_0, # of connection points: 2
#     Edge 131, Type (0, 1), BuildingBlock: MIFKUJ_clean_linker_0, # of connection points: 2
#     Edge 132, Type (0, 1), BuildingBlock: MIFKUJ_clean_linker_0, # of connection points: 2
#     Edge 133, Type (0, 1), BuildingBlock: MIFKUJ_clean_linker_0, # of connection points: 2
#     Edge 134, Type (0, 1), BuildingBlock: MIFKUJ_clean_linker_0, # of connection points: 2
#     Edge 135, Type (0, 1), BuildingBlock: MIFKUJ_clean_linker_0, # of connection points: 2
# Relax obj value: 0.054
# Max RMSD: 0.175
# Mean RMSD: 0.103
data_MOF--net-gar--node1-KUFVIS_clean_sbu_0--node2-KUMBUR_clean_sbu_1--edge1-MIFKUJ_clean_linker_0
_symmetry_space_group_name_H-M    P1
_symmetry_Int_Tables_number       1
_symmetry_cell_setting            triclinic
loop_
_symmetry_equiv_pos_as_xyz
'x, y, z'
_cell_length_a     75.8457
_cell_length_b     76.069785
_cell_length_c     73.110497
_cell_angle_alpha  95.519541
_cell_angle_beta   95.596035
_cell_angle_gamma 100.7161
loop_
_atom_site_label
_atom_site_type_symbol
_atom_site_fract_x
_atom_site_fract_y
_atom_site_fract_z
_atom_type_partial_charge
Mn0 Mn 0.03534 0.29844 0.36877 0.0
Mn1 Mn 0.03646 0.32622 0.33574 0.0
C2 C 0.00726 0.30275 0.35339 0.0
C3 C 0.03589 0.27072 0.38095 0.0
C4 C 0.04344 0.33993 0.37706 0.0
O5 O 0.06191 0.30061 0.36157 0.0
O6 O 0.05959 0.31644 0.33739 0.0
C7 C 0.03629 0.30087 0.30225 0.0
N8 N 0.02904 0.31367 0.31152 0.0
C9 C 0.00953 0.31609 0.28432 0.0
C10 C 0.01692 0.3031 0.27437 0.0
C11 C 0.0302 0.29529 0.28345 0.0
C12 C 0.01581 0.32077 0.30311 0.0
H13 H 0.0467 0.29507 0.30911 0.0
C14 C 0.06839 0.30725 0.34748 0.0
O15 O 0.04103 0.28616 0.39084 0.0
O16 O 0.03096 0.27112 0.36345 0.0
N17 N 0.01538 0.33641 0.33195 0.0
C18 C 0.0086 0.34761 0.34388 0.0
C19 C 0.99454 0.35584 0.33725 0.0
C20 C 0.98796 0.35285 0.31835 0.0
C21 C 0.99511 0.34118 0.30641 0.0
C22 C 0.00863 0.33288 0.31393 0.0
H23 H 0.01393 0.35037 0.35832 0.0
O24 O 0.00852 0.29716 0.3696 0.0
O25 O 0.02268 0.30546 0.3463 0.0
O26 O 0.04022 0.32432 0.38239 0.0
O27 O 0.04401 0.34194 0.35995 0.0
C28 C 0.98961 0.33772 0.28727 0.0
C29 C 0.99647 0.32489 0.27627 0.0
H30 H 0.01248 0.29901 0.2598 0.0
H31 H 0.03592 0.28521 0.2759 0.0
H32 H 0.98905 0.36475 0.3466 0.0
H33 H 0.97736 0.3595 0.31319 0.0
H34 H 0.9804 0.34515 0.28087 0.0
H35 H 0.99178 0.32208 0.26162 0.0
Mn36 Mn 0.01902 0.75019 0.68186 0.0
Mn37 Mn 0.02788 0.7832 0.71823 0.0
C38 C 0.04949 0.76034 0.69684 0.0
C39 C 0.01271 0.71975 0.66646 0.0
C40 C 0.0208 0.79061 0.67811 0.0
O41 O 0.99299 0.75053 0.69055 0.0
O42 O 1.00153 0.77128 0.71557 0.0
C43 C 0.02205 0.76048 0.74863 0.0
N44 N 0.03301 0.77299 0.74057 0.0
C45 C 0.05699 0.77577 0.76545 0.0
C46 C 0.04587 0.76306 0.77411 0.0
C47 C 0.02836 0.75532 0.76561 0.0
C48 C 0.05004 0.78021 0.74843 0.0
H49 H 0.00861 0.75449 0.74213 0.0
C50 C 0.98921 0.75996 0.7049 0.0
O51 O 0.00943 0.73341 0.65844 0.0
O52 O 0.018 0.72332 0.68413 0.0
N53 N 0.05231 0.79631 0.72301 0.0
C54 C 0.06024 0.81037 0.71446 0.0
C55 C 0.07759 0.82003 0.72149 0.0
C56 C 0.08635 0.81561 0.73771 0.0
C57 C 0.07746 0.80192 0.747 0.0
C58 C 0.06019 0.79269 0.73923 0.0
H59 H 0.05333 0.81438 0.70251 0.0
O60 O 0.04597 0.7525 0.68 0.0
O61 O 0.03499 0.76219 0.7046 0.0
O62 O 0.01894 0.77431 0.67102 0.0
O63 O 0.02362 0.79534 0.69557 0.0
C64 C 0.08478 0.79752 0.76401 0.0
C65 C 0.07458 0.7844 0.7732 0.0
H66 H 0.05061 0.75919 0.78731 0.0
H67 H 0.01972 0.74547 0.77219 0.0
H68 H 0.08407 0.83097 0.71454 0.0
H69 H 0.09968 0.82317 0.74319 0.0
H70 H 0.09811 0.80437 0.7703 0.0
H71 H 0.08028 0.78127 0.78638 0.0
Mn72 Mn 0.53606 0.7998 0.86987 0.0
Mn73 Mn 0.53568 0.82745 0.83669 0.0
C74 C 0.5075 0.80306 0.8548 0.0
C75 C 0.53747 0.77205 0.88201 0.0
C76 C 0.54287 0.84142 0.87801 0.0
O77 O 0.56266 0.80287 0.86213 0.0
O78 O 0.55948 0.81848 0.83784 0.0
C79 C 0.53549 0.80208 0.80321 0.0
N80 N 0.52771 0.81426 0.81276 0.0
C81 C 0.50379 0.81147 0.78782 0.0
C82 C 0.51173 0.79913 0.77762 0.0
C83 C 0.52762 0.79437 0.78537 0.0
C84 C 0.51237 0.81889 0.80545 0.0
H85 H 0.54757 0.7982 0.80916 0.0
C86 C 0.5688 0.8096 0.84788 0.0
O87 O 0.54246 0.78755 0.89186 0.0
O88 O 0.5324 0.77247 0.86456 0.0
N89 N 0.51375 0.83651 0.83358 0.0
C90 C 0.50702 0.84759 0.84571 0.0
C91 C 0.49067 0.85286 0.84043 0.0
C92 C 0.48141 0.84679 0.82272 0.0
C93 C 0.48859 0.83545 0.81046 0.0
C94 C 0.50498 0.83066 0.81647 0.0
H95 H 0.51393 0.85229 0.85938 0.0
O96 O 0.50912 0.79753 0.87101 0.0
O97 O 0.52286 0.8064 0.84765 0.0
O98 O 0.53998 0.82577 0.88335 0.0
O99 O 0.54353 0.84352 0.86089 0.0
C100 C 0.47988 0.82837 0.79267 0.0
C101 C 0.4875 0.81642 0.78134 0.0
H102 H 0.50563 0.79306 0.7639 0.0
H103 H 0.53374 0.78473 0.77764 0.0
H104 H 0.48517 0.86153 0.85002 0.0
H105 H 0.46872 0.85077 0.81876 0.0
H106 H 0.46719 0.83182 0.78766 0.0
H107 H 0.48056 0.8109 0.76777 0.0
Mn108 Mn 0.51877 0.24932 0.1849 0.0
Mn109 Mn 0.48514 0.24071 0.14922 0.0
C110 C 0.50953 0.21969 0.16818 0.0
C111 C 0.55067 0.25626 0.19704 0.0
C112 C 0.47796 0.24925 0.18941 0.0
O113 O 0.51868 0.27478 0.17603 0.0
O114 O 0.49796 0.26607 0.15079 0.0
C115 C 0.50459 0.24503 0.11624 0.0
N116 N 0.49304 0.23465 0.12585 0.0
C117 C 0.48557 0.21097 0.10042 0.0
C118 C 0.49741 0.2214 0.09025 0.0
C119 C 0.50702 0.23846 0.09823 0.0
C120 C 0.48378 0.21819 0.11833 0.0
H121 H 0.51184 0.25822 0.12226 0.0
C122 C 0.50991 0.27807 0.16106 0.0
O123 O 0.53797 0.25845 0.2072 0.0
O124 O 0.54505 0.25084 0.17976 0.0
N125 N 0.47219 0.21638 0.14652 0.0
C126 C 0.46218 0.20768 0.15863 0.0
C127 C 0.452 0.1903 0.153 0.0
C128 C 0.45213 0.18215 0.13497 0.0
C129 C 0.46287 0.19123 0.12289 0.0
C130 C 0.47279 0.20848 0.12932 0.0
H131 H 0.46181 0.214 0.17241 0.0
O132 O 0.51677 0.22209 0.18529 0.0
O133 O 0.50675 0.23446 0.16195 0.0
O134 O 0.49417 0.24977 0.19701 0.0
O135 O 0.47417 0.24655 0.1719 0.0
C136 C 0.46404 0.18392 0.1047 0.0
C137 C 0.47549 0.19372 0.09352 0.0
H138 H 0.49926 0.21642 0.07632 0.0
H139 H 0.51616 0.24659 0.09045 0.0
H140 H 0.44385 0.18332 0.16244 0.0
H141 H 0.44383 0.16899 0.13057 0.0
H142 H 0.4562 0.17078 0.09916 0.0
H143 H 0.47643 0.18785 0.07964 0.0
Mn144 Mn 0.05669 0.78646 0.11833 0.0
Mn145 Mn 0.02327 0.77781 0.08244 0.0
C146 C 0.04628 0.7562 0.10303 0.0
C147 C 0.08733 0.79248 0.13367 0.0
C148 C 0.0161 0.78431 0.12254 0.0
O149 O 0.05662 0.81247 0.10978 0.0
O150 O 0.03489 0.80402 0.08555 0.0
C151 C 0.04453 0.78505 0.05115 0.0
N152 N 0.03218 0.7739 0.0592 0.0
C153 C 0.02343 0.75381 0.03099 0.0
C154 C 0.03597 0.76512 0.02231 0.0
C155 C 0.04674 0.78069 0.03251 0.0
C156 C 0.02225 0.75857 0.04972 0.0
H157 H 0.05246 0.79724 0.05886 0.0
C158 C 0.04666 0.81624 0.09578 0.0
O159 O 0.07367 0.79562 0.14181 0.0
O160 O 0.08365 0.78738 0.11597 0.0
N161 N 0.01058 0.75342 0.07738 0.0
C162 C 1.00015 0.74335 0.08823 0.0
C163 C 0.98907 0.72693 0.08042 0.0
C164 C 0.98846 0.72135 0.06144 0.0
C165 C 0.99946 0.73192 0.05064 0.0
C166 C 0.0107 0.74777 0.05934 0.0
H167 H 1.00024 0.74785 0.1027 0.0
O168 O 0.05391 0.75957 0.11998 0.0
O169 O 0.04468 0.77071 0.09526 0.0
O170 O 0.03257 0.78679 0.12955 0.0
O171 O 0.01145 0.78111 0.10515 0.0
C172 C 0.99942 0.72764 0.03149 0.0
C173 C 0.01168 0.73828 0.02172 0.0
H174 H 0.03742 0.762 0.00782 0.0
H175 H 0.05645 0.78948 0.02591 0.0
H176 H 0.98073 0.71881 0.0889 0.0
H177 H 0.97957 0.7089 0.05534 0.0
H178 H 0.98972 0.71643 0.02409 0.0
H179 H 0.01174 0.73458 0.00705 0.0
Mn180 Mn 0.50008 0.76258 0.43613 0.0
Mn181 Mn 0.50189 0.7898 0.40165 0.0
C182 C 0.47263 0.76656 0.41828 0.0
C183 C 0.5019 0.73316 0.44728 0.0
C184 C 0.50881 0.80488 0.44248 0.0
O185 O 0.52674 0.7656 0.42962 0.0
O186 O 0.52409 0.77998 0.40418 0.0
C187 C 0.50129 0.76396 0.36847 0.0
N188 N 0.49448 0.7772 0.37752 0.0
C189 C 0.47687 0.78139 0.34968 0.0
C190 C 0.48354 0.76768 0.34003 0.0
C191 C 0.49558 0.75873 0.34953 0.0
C192 C 0.48241 0.78543 0.36866 0.0
H193 H 0.51112 0.75762 0.37564 0.0
C194 C 0.53302 0.77209 0.41538 0.0
O195 O 0.50599 0.74835 0.45788 0.0
O196 O 0.49647 0.73483 0.43024 0.0
N197 N 0.48147 0.80073 0.39751 0.0
C198 C 0.47556 0.81287 0.40916 0.0
C199 C 0.46403 0.82352 0.40187 0.0
C200 C 0.45889 0.82161 0.38273 0.0
C201 C 0.46424 0.80829 0.37116 0.0
C202 C 0.47577 0.79814 0.37922 0.0
H203 H 0.48003 0.81484 0.42378 0.0
O204 O 0.4724 0.76071 0.43444 0.0
O205 O 0.48865 0.76967 0.41305 0.0
O206 O 0.50464 0.7898 0.4493 0.0
O207 O 0.50977 0.80523 0.42524 0.0
C208 C 0.4592 0.80513 0.35189 0.0
C209 C 0.46519 0.79142 0.34121 0.0
H210 H 0.47955 0.76394 0.32533 0.0
H211 H 0.50068 0.74808 0.34217 0.0
H212 H 0.45969 0.83363 0.41087 0.0
H213 H 0.45125 0.83075 0.37704 0.0
H214 H 0.45076 0.81315 0.34511 0.0
H215 H 0.46097 0.78892 0.32645 0.0
Mn216 Mn 0.55732 0.2866 0.61931 0.0
Mn217 Mn 0.52367 0.27829 0.58364 0.0
C218 C 0.5469 0.25671 0.60371 0.0
C219 C 0.58791 0.29229 0.63457 0.0
C220 C 0.51667 0.28458 0.62368 0.0
O221 O 0.55741 0.31256 0.61071 0.0
O222 O 0.53484 0.30467 0.58707 0.0
C223 C 0.54421 0.28616 0.55201 0.0
N224 N 0.53276 0.27445 0.56045 0.0
C225 C 0.52653 0.25275 0.5333 0.0
C226 C 0.5383 0.26455 0.52429 0.0
C227 C 0.54728 0.28127 0.53374 0.0
C228 C 0.52433 0.25818 0.55162 0.0
H229 H 0.55074 0.29922 0.55908 0.0
C230 C 0.54697 0.31663 0.59726 0.0
O231 O 0.5743 0.29542 0.64281 0.0
O232 O 0.58423 0.28742 0.61684 0.0
N233 N 0.51149 0.25369 0.57881 0.0
C234 C 0.50074 0.24379 0.58956 0.0
C235 C 0.4912 0.2265 0.58238 0.0
C236 C 0.49243 0.21977 0.56408 0.0
C237 C 0.50343 0.23031 0.55326 0.0
C238 C 0.51304 0.24721 0.56134 0.0
H239 H 0.49946 0.24903 0.60352 0.0
O240 O 0.55443 0.25968 0.6207 0.0
O241 O 0.54528 0.27136 0.59623 0.0
O242 O 0.53317 0.2869 0.6306 0.0
O243 O 0.51196 0.28152 0.60631 0.0
C244 C 0.50492 0.22487 0.53465 0.0
C245 C 0.51654 0.23602 0.52468 0.0
H246 H 0.54045 0.26096 0.5101 0.0
H247 H 0.55631 0.29049 0.52685 0.0
H248 H 0.48273 0.21848 0.59084 0.0
H249 H 0.48481 0.20654 0.55846 0.0
H250 H 0.49695 0.21224 0.52785 0.0
H251 H 0.51753 0.23171 0.51033 0.0
Mn252 Mn 1.00096 0.26236 0.93595 0.0
Mn253 Mn 1.00234 0.29184 0.9035 0.0
C254 C 0.97347 0.26683 0.91864 0.0
C255 C 1.00277 0.23267 0.94609 0.0
C256 C 0.0089 0.30445 0.94476 0.0
O257 O 0.02783 0.26597 0.92946 0.0
O258 O 0.0246 0.28252 0.90597 0.0
C259 C 1.00346 0.26756 0.86966 0.0
N260 N 0.99575 0.27995 0.87898 0.0
C261 C 0.97813 0.28416 0.85119 0.0
C262 C 0.98576 0.27135 0.84125 0.0
C263 C 0.99835 0.26288 0.85057 0.0
C264 C 0.98326 0.28777 0.87028 0.0
H265 H 0.01361 0.26154 0.87671 0.0
C266 C 0.03383 0.27366 0.91568 0.0
O267 O 0.0063 0.24755 0.95718 0.0
O268 O 0.99799 0.23483 0.929 0.0
N269 N 0.98155 0.30221 0.8994 0.0
C270 C 0.97541 0.31407 0.91116 0.0
C271 C 0.96353 0.32444 0.904 0.0
C272 C 0.95838 0.32264 0.88486 0.0
C273 C 0.96416 0.30974 0.87313 0.0
C274 C 0.97598 0.29981 0.88106 0.0
H275 H 0.98007 0.31613 0.92576 0.0
O276 O 0.97327 0.26009 0.93433 0.0
O277 O 0.98949 0.27056 0.91351 0.0
O278 O 0.00501 0.28875 0.95029 0.0
O279 O 0.00953 0.3065 0.92777 0.0
C280 C 0.95935 0.30691 0.85381 0.0
C281 C 0.96602 0.29386 0.84289 0.0
H282 H 0.98217 0.26804 0.82645 0.0
H283 H 1.00441 0.25309 0.84298 0.0
H284 H 0.95897 0.33432 0.91309 0.0
H285 H 0.95052 0.33165 0.87928 0.0
H286 H 0.95068 0.31479 0.84714 0.0
H287 H 0.96207 0.29168 0.82808 0.0
Mn288 Mn 0.38726 0.0143 0.29369 0.0
Mn289 Mn 0.35359 0.00578 0.32053 0.0
C290 C 0.37483 0.98554 0.29713 0.0
C291 C 0.39787 0.02026 0.26611 0.0
C292 C 0.39271 0.0194 0.3351 0.0
O293 O 0.3789 0.03785 0.29752 0.0
O294 O 0.35344 0.02916 0.31095 0.0
C295 C 0.32112 1.00162 0.2933 0.0
N296 N 0.33117 0.99469 0.30618 0.0
C297 C 0.30872 0.96738 0.30349 0.0
C298 C 0.2981 0.97427 0.29023 0.0
C299 C 0.30435 0.99145 0.28508 0.0
C300 C 0.3253 0.97815 0.31121 0.0
H301 H 0.32584 0.01481 0.28938 0.0
C302 C 0.36436 0.0406 0.30362 0.0
O303 O 0.40798 0.02523 0.28178 0.0
O304 O 0.38114 0.01247 0.26648 0.0
N305 N 0.35253 0.98319 0.33034 0.0
C306 C 0.36457 0.97831 0.34305 0.0
C307 C 0.36054 0.96132 0.34934 0.0
C308 C 0.3441 0.94959 0.34268 0.0
C309 C 0.33183 0.95498 0.3298 0.0
C310 C 0.33659 0.97207 0.32403 0.0
H311 H 0.37718 0.98727 0.34835 0.0
O312 O 0.39064 0.98903 0.2914 0.0
O313 O 0.36658 0.99879 0.30002 0.0
O314 O 0.39893 0.01797 0.31973 0.0
O315 O 0.37592 0.01666 0.33694 0.0
C316 C 0.31511 0.94401 0.32239 0.0
C317 C 0.30356 0.9502 0.30924 0.0
H318 H 0.28516 0.96647 0.28386 0.0
H319 H 0.29624 0.99687 0.27486 0.0
H320 H 0.37008 0.95728 0.3593 0.0
H321 H 0.34106 0.93646 0.34753 0.0
H322 H 0.31107 0.93071 0.32658 0.0
H323 H 0.29081 0.94157 0.30352 0.0
Mn324 Mn 0.26169 0.17454 0.51479 0.0
Mn325 Mn 0.25278 0.13935 0.48101 0.0
C326 C 0.23181 0.15845 0.50595 0.0
C327 C 0.26803 0.18708 0.54659 0.0
C328 C 0.26441 0.17835 0.47347 0.0
O329 O 0.28649 0.16657 0.5137 0.0
O330 O 0.27736 0.1409 0.4939 0.0
C331 C 0.25213 0.10788 0.50202 0.0
N332 N 0.24377 0.11688 0.48969 0.0
C333 C 0.21768 0.09278 0.4838 0.0
C334 C 0.22612 0.08314 0.49624 0.0
C335 C 0.24338 0.09076 0.50546 0.0
C336 C 0.22711 0.10971 0.48082 0.0
H337 H 0.26529 0.11377 0.50926 0.0
C338 C 0.28933 0.15176 0.50539 0.0
O339 O 0.2718 0.19658 0.53316 0.0
O340 O 0.26148 0.17009 0.54166 0.0
N341 N 0.22909 0.13675 0.46805 0.0
C342 C 0.22216 0.14853 0.4579 0.0
C343 C 0.20449 0.14353 0.4488 0.0
C344 C 0.19418 0.12644 0.45014 0.0
C345 C 0.2016 0.11457 0.4607 0.0
C346 C 0.21927 0.12031 0.46949 0.0
H347 H 0.23 0.16167 0.45677 0.0
O348 O 0.23489 0.17502 0.51363 0.0
O349 O 0.24619 0.15222 0.50305 0.0
O350 O 0.26368 0.18568 0.48982 0.0
O351 O 0.26164 0.16131 0.46948 0.0
C352 C 0.19204 0.09737 0.4631 0.0
C353 C 0.20009 0.08646 0.47461 0.0
H354 H 0.21937 0.06999 0.49903 0.0
H355 H 0.24991 0.08348 0.51523 0.0
H356 H 0.19885 0.15281 0.44074 0.0
H357 H 0.18054 0.12264 0.44313 0.0
H358 H 0.17838 0.09252 0.45641 0.0
H359 H 0.19248 0.0734 0.47661 0.0
Mn360 Mn 0.13135 0.0417 0.78256 0.0
Mn361 Mn 0.16708 0.05008 0.81596 0.0
C362 C 0.14765 0.07125 0.79163 0.0
C363 C 0.11847 0.03559 0.75102 0.0
C364 C 0.12813 0.03985 0.8243 0.0
O365 O 0.13884 0.0169 0.7831 0.0
O366 O 0.16379 0.02482 0.80416 0.0
C367 C 0.19758 0.04747 0.79418 0.0
N368 N 0.18928 0.05731 0.80593 0.0
C369 C 0.21393 0.08279 0.80868 0.0
C370 C 0.22272 0.07294 0.79655 0.0
C371 C 0.21452 0.0552 0.7893 0.0
C372 C 0.19714 0.07433 0.81315 0.0
H373 H 0.19137 0.03379 0.78866 0.0
C374 C 0.15278 0.01329 0.79239 0.0
O375 O 0.10897 0.0321 0.76452 0.0
O376 O 0.13558 0.04194 0.75567 0.0
N377 N 0.17143 0.07418 0.8281 0.0
C378 C 0.16096 0.08198 0.83928 0.0
C379 C 0.16707 0.09983 0.84743 0.0
C380 C 0.1839 0.10945 0.84407 0.0
C381 C 0.19446 0.10111 0.83259 0.0
C382 C 0.18769 0.08326 0.8249 0.0
H383 H 0.14801 0.07467 0.84191 0.0
O384 O 0.13098 0.06835 0.78412 0.0
O385 O 0.15399 0.05684 0.79409 0.0
O386 O 0.12061 0.03948 0.80775 0.0
O387 O 0.14525 0.04315 0.82829 0.0
C388 C 0.21135 0.10987 0.8283 0.0
C389 C 0.2211 0.1007 0.81639 0.0
H390 H 0.23577 0.07886 0.79272 0.0
H391 H 0.22127 0.04748 0.78 0.0
H392 H 0.15881 0.10618 0.85623 0.0
H393 H 0.18852 0.12326 0.8503 0.0
H394 H 0.21691 0.12369 0.83399 0.0
H395 H 0.23403 0.10762 0.81314 0.0
Mn396 Mn 0.29391 0.91842 0.00385 0.0
Mn397 Mn 0.30004 0.95171 0.97651 0.0
C398 C 0.32249 0.93076 0.99874 0.0
C399 C 0.28971 0.9087 0.03198 0.0
C400 C 0.28602 0.9125 0.96258 0.0
O401 O 0.27007 0.92632 1.00154 0.0
O402 O 0.27749 0.95163 0.98784 0.0
C403 C 0.30548 0.98382 0.00423 0.0
N404 N 0.31161 0.9741 0.99047 0.0
C405 C 0.33767 0.99755 0.99036 0.0
C406 C 0.33137 0.00801 0.00418 0.0
C407 C 0.31534 1.00101 0.01134 0.0
C408 C 0.32732 0.98047 0.9839 0.0
H409 H 0.29309 0.97853 0.00962 0.0
C410 C 0.26668 0.9407 0.99579 0.0
O411 O 0.28396 0.89807 0.01678 0.0
O412 O 0.29751 0.92522 0.03094 0.0
N413 N 0.32154 0.95342 0.96454 0.0
C414 C 0.32487 0.9424 0.94997 0.0
C415 C 0.34045 0.94745 0.94127 0.0
C416 C 0.35222 0.96397 0.94732 0.0
C417 C 0.34819 0.97539 0.96188 0.0
C418 C 0.3325 0.9696 0.97008 0.0
H419 H 0.31578 0.92983 0.94499 0.0
O420 O 0.31909 0.91503 0.00456 0.0
O421 O 0.30902 0.93895 0.99645 0.0
O422 O 0.28861 0.90649 0.97795 0.0
O423 O 0.28854 0.92923 0.96063 0.0
C424 C 0.35894 0.99244 0.96833 0.0
C425 C 0.35368 1.00352 0.98256 0.0
H426 H 0.33879 0.02142 0.00945 0.0
H427 H 0.3105 0.00893 0.02217 0.0
H428 H 0.34329 0.93869 0.92984 0.0
H429 H 0.36417 0.96786 0.94052 0.0
H430 H 0.37117 0.99725 0.96231 0.0
H431 H 0.36197 0.01667 0.98731 0.0
Mn432 Mn 0.29205 0.37972 0.03755 0.0
Mn433 Mn 0.29779 0.41314 0.00988 0.0
C434 C 0.32148 0.39543 0.03428 0.0
C435 C 0.28706 0.36872 0.06677 0.0
C436 C 0.28632 0.37343 0.99491 0.0
O437 O 0.2668 0.38713 0.03424 0.0
O438 O 0.27463 0.41224 0.02028 0.0
C439 C 0.30125 0.4457 0.03676 0.0
N440 N 0.30764 0.4364 0.02288 0.0
C441 C 0.33089 0.46193 0.02019 0.0
C442 C 0.32426 0.47197 0.03412 0.0
C443 C 0.30952 0.46374 0.04261 0.0
C444 C 0.32221 0.44398 0.01509 0.0
H445 H 0.29005 0.43933 0.04336 0.0
C446 C 0.26348 0.40179 0.02842 0.0
O447 O 0.283 0.35849 0.05113 0.0
O448 O 0.29364 0.38555 0.06556 0.0
N449 N 0.31993 0.41559 0.99905 0.0
C450 C 0.32592 0.40342 0.9875 0.0
C451 C 0.34149 0.40901 0.97898 0.0
C452 C 0.35048 0.42711 0.98208 0.0
C453 C 0.34404 0.43937 0.99403 0.0
C454 C 0.32874 0.43293 0.00246 0.0
H455 H 0.31884 0.38959 0.98471 0.0
O456 O 0.31899 0.37954 0.03986 0.0
O457 O 0.30684 0.40158 0.03081 0.0
O458 O 0.2887 0.36709 0.01037 0.0
O459 O 0.28779 0.39026 0.99393 0.0
C460 C 0.35224 0.45773 0.99798 0.0
C461 C 0.34586 0.46894 0.01126 0.0
H462 H 0.33054 0.4859 0.03859 0.0
H463 H 0.3045 0.47131 0.05358 0.0
H464 H 0.3464 0.39944 0.96984 0.0
H465 H 0.36238 0.43142 0.97534 0.0
H466 H 0.36371 0.46327 0.99116 0.0
H467 H 0.35266 0.48289 0.01462 0.0
Mn468 Mn 0.76513 0.13673 0.04629 0.0
Mn469 Mn 0.75544 0.10353 0.01067 0.0
C470 C 0.73587 0.123 0.03684 0.0
C471 C 0.77298 0.14771 0.07691 0.0
C472 C 0.76601 0.14292 0.00633 0.0
O473 O 0.78899 0.12912 0.04446 0.0
O474 O 0.78042 0.10538 0.02235 0.0
C475 C 0.75857 0.06993 0.0265 0.0
N476 N 0.74822 0.07982 0.01723 0.0
C477 C 0.72721 0.05304 0.00337 0.0
C478 C 0.73796 0.04256 0.01236 0.0
C479 C 0.75345 0.05107 0.02432 0.0
C480 C 0.73283 0.07179 0.00632 0.0
H481 H 0.77098 0.07636 0.03496 0.0
C482 C 0.79203 0.11544 0.03473 0.0
O483 O 0.77662 0.15768 0.06384 0.0
O484 O 0.76508 0.13096 0.07224 0.0
N485 N 0.73143 0.10039 0.99847 0.0
C486 C 0.72352 0.11232 0.98947 0.0
C487 C 0.70679 0.10625 0.97858 0.0
C488 C 0.69882 0.08785 0.97636 0.0
C489 C 0.7075 0.07577 0.98535 0.0
C490 C 0.72361 0.08279 0.99689 0.0
H491 H 0.7299 0.12637 0.99064 0.0
O492 O 0.73966 0.13912 0.04573 0.0
O493 O 0.74926 0.11511 0.03381 0.0
O494 O 0.76718 0.1491 0.02316 0.0
O495 O 0.76244 0.12626 1.0007 0.0
C496 C 0.7012 0.05698 0.98276 0.0
C497 C 0.71124 0.0456 0.99147 0.0
H498 H 0.73422 0.028 0.01047 0.0
H499 H 0.7617 0.04308 0.03145 0.0
H500 H 0.70029 0.11565 0.97154 0.0
H501 H 0.6862 0.08311 0.96747 0.0
H502 H 0.68888 0.05111 0.97375 0.0
H503 H 0.70648 0.03114 0.98906 0.0
Mn504 Mn 0.16869 0.54301 0.25213 0.0
Mn505 Mn 0.2045 0.55013 0.28516 0.0
C506 C 0.18367 0.57161 0.26275 0.0
C507 C 0.15526 0.53688 0.22214 0.0
C508 C 0.16592 0.54107 0.29308 0.0
O509 O 0.1754 0.51861 0.25123 0.0
O510 O 0.1994 0.52512 0.27327 0.0
C511 C 0.23325 0.54597 0.26126 0.0
N512 N 0.2267 0.5557 0.2747 0.0
C513 C 0.25476 0.57723 0.28104 0.0
C514 C 0.26184 0.56746 0.26727 0.0
C515 C 0.25096 0.5519 0.25718 0.0
C516 C 0.23689 0.57095 0.28411 0.0
H517 H 0.22505 0.53375 0.25383 0.0
C518 C 0.18839 0.51434 0.261 0.0
O519 O 0.14634 0.53305 0.23594 0.0
O520 O 0.17234 0.54417 0.2257 0.0
N521 N 0.21118 0.57377 0.2981 0.0
C522 C 0.20176 0.58243 0.30973 0.0
C523 C 0.21068 0.59798 0.32121 0.0
C524 C 0.22915 0.60437 0.32052 0.0
C525 C 0.2383 0.59591 0.30764 0.0
C526 C 0.22875 0.58033 0.29677 0.0
H527 H 0.1876 0.57743 0.31027 0.0
O528 O 0.1671 0.56881 0.25496 0.0
O529 O 0.19121 0.55772 0.26385 0.0
O530 O 0.15868 0.53972 0.27651 0.0
O531 O 0.18288 0.54496 0.29788 0.0
C532 C 0.25655 0.60213 0.30535 0.0
C533 C 0.26471 0.59292 0.29187 0.0
H534 H 0.27558 0.57181 0.26427 0.0
H535 H 0.2563 0.54443 0.2464 0.0
H536 H 0.20347 0.60478 0.33083 0.0
H537 H 0.23624 0.61562 0.33009 0.0
H538 H 0.26437 0.61405 0.31373 0.0
H539 H 0.27866 0.59798 0.29 0.0
Mn540 Mn 0.79317 0.88 0.53828 0.0
Mn541 Mn 0.79802 0.91358 0.51077 0.0
C542 C 0.82231 0.89632 0.53489 0.0
C543 C 0.78873 0.86921 0.56772 0.0
C544 C 0.78692 0.8738 0.49564 0.0
O545 O 0.76769 0.88678 0.53501 0.0
O546 O 0.77492 0.91237 0.52154 0.0
C547 C 0.80144 0.94619 0.53755 0.0
N548 N 0.80793 0.93685 0.52379 0.0
C549 C 0.83183 0.96209 0.52195 0.0
C550 C 0.82504 0.97217 0.53571 0.0
C551 C 0.80988 0.96412 0.54368 0.0
C552 C 0.82278 0.94432 0.51636 0.0
H553 H 0.79006 0.93991 0.54388 0.0
C554 C 0.764 0.90141 0.52945 0.0
O555 O 0.78483 0.85875 0.55221 0.0
O556 O 0.79482 0.88607 0.56627 0.0
N557 N 0.82009 0.91613 0.49973 0.0
C558 C 0.826 0.90399 0.48806 0.0
C559 C 0.8419 0.9094 0.48002 0.0
C560 C 0.85142 0.92728 0.48383 0.0
C561 C 0.84509 0.93951 0.49591 0.0
C562 C 0.82929 0.93329 0.50368 0.0
H563 H 0.81867 0.89029 0.48488 0.0
O564 O 0.82025 0.88044 0.54048 0.0
O565 O 0.80743 0.90206 0.53149 0.0
O566 O 0.78975 0.86738 0.51101 0.0
O567 O 0.78803 0.89064 0.49488 0.0
C568 C 0.85395 0.95758 0.50071 0.0
C569 C 0.8474 0.96885 0.51379 0.0
H570 H 0.83154 0.98599 0.54048 0.0
H571 H 0.80473 0.9717 0.55453 0.0
H572 H 0.84675 0.89984 0.47081 0.0
H573 H 0.86365 0.93143 0.47755 0.0
H574 H 0.86593 0.96287 0.49457 0.0
H575 H 0.85458 0.98261 0.51765 0.0
Mn576 Mn 0.92597 0.00921 0.25966 0.0
Mn577 Mn 0.89069 0.00432 0.28536 0.0
C578 C 0.90947 0.98022 0.26284 0.0
C579 C 0.93759 0.01372 0.23056 0.0
C580 C 0.93023 0.01459 0.30255 0.0
O581 O 0.91945 0.03451 0.26227 0.0
O582 O 0.89354 0.02793 0.27536 0.0
C583 C 0.86014 1.00285 0.25636 0.0
N584 N 0.86814 0.99537 0.2703 0.0
C585 C 0.8422 0.97134 0.26851 0.0
C586 C 0.83359 0.97895 0.2543 0.0
C587 C 0.84264 0.99472 0.24813 0.0
C588 C 0.85966 0.98002 0.27612 0.0
H589 H 0.86707 0.01489 0.25158 0.0
C590 C 0.90497 0.03859 0.2677 0.0
O591 O 0.9477 0.01782 0.24633 0.0
O592 O 0.92069 0.00722 0.23163 0.0
N593 N 0.88612 0.98196 0.29579 0.0
C594 C 0.89653 0.97591 0.30912 0.0
C595 C 0.88948 0.96026 0.31683 0.0
C596 C 0.87179 0.95094 0.31073 0.0
C597 C 0.8614 0.95727 0.29682 0.0
C598 C 0.8691 0.97304 0.28979 0.0
H599 H 0.91027 0.98263 0.31348 0.0
O600 O 0.92563 0.98227 0.25785 0.0
O601 O 0.90349 0.99499 0.26571 0.0
O602 O 0.93745 0.01294 0.28744 0.0
O603 O 0.91315 0.01294 0.30269 0.0
C604 C 0.84374 0.94846 0.28957 0.0
C605 C 0.83416 0.95545 0.27538 0.0
H606 H 0.82006 0.97275 0.24798 0.0
H607 H 0.83613 1.00064 0.2371 0.0
H608 H 0.89773 0.95531 0.32732 0.0
H609 H 0.86645 0.93878 0.31658 0.0
H610 H 0.83746 0.93619 0.29468 0.0
H611 H 0.82066 0.94846 0.26979 0.0
Mn612 Mn 0.26472 0.63887 0.54734 0.0
Mn613 Mn 0.25231 0.60342 0.51422 0.0
C614 C 0.23498 0.62626 0.53938 0.0
C615 C 0.27307 0.65078 0.57757 0.0
C616 C 0.2648 0.64172 0.50637 0.0
O617 O 0.28774 0.62969 0.54566 0.0
O618 O 0.27756 0.60501 0.52494 0.0
C619 C 0.25373 0.57311 0.53656 0.0
N620 N 0.24446 0.58145 0.5243 0.0
C621 C 0.21957 0.55611 0.51888 0.0
C622 C 0.22889 0.54717 0.53136 0.0
C623 C 0.24598 0.55578 0.54035 0.0
C624 C 0.22787 0.57344 0.51585 0.0
H625 H 0.26695 0.5796 0.5433 0.0
C626 C 0.28986 0.61535 0.53641 0.0
O627 O 0.27739 0.66014 0.56417 0.0
O628 O 0.26452 0.63421 0.57341 0.0
N629 N 0.22794 0.60021 0.50294 0.0
C630 C 0.22001 0.61144 0.49291 0.0
C631 C 0.20251 0.60526 0.48366 0.0
C632 C 0.19352 0.58753 0.48457 0.0
C633 C 0.20187 0.57633 0.49526 0.0
C634 C 0.21916 0.58336 0.50445 0.0
H635 H 0.22697 0.625 0.49203 0.0
O636 O 0.23958 0.64283 0.54703 0.0
O637 O 0.24784 0.61767 0.5364 0.0
O638 O 0.2671 0.64912 0.52296 0.0
O639 O 0.25966 0.62485 0.50175 0.0
C640 C 0.19368 0.55854 0.49731 0.0
C641 C 0.20239 0.54852 0.5093 0.0
H642 H 0.22304 0.53375 0.53419 0.0
H643 H 0.25324 0.54899 0.55004 0.0
H644 H 0.19605 0.61407 0.47568 0.0
H645 H 0.18009 0.58274 0.47727 0.0
H646 H 0.18055 0.55255 0.48992 0.0
H647 H 0.19574 0.53501 0.5111 0.0
Mn648 Mn 0.42537 0.50999 0.75866 0.0
Mn649 Mn 0.39141 0.50983 0.78557 0.0
C650 C 0.40734 0.4822 0.76393 0.0
C651 C 0.43676 0.51276 0.72924 0.0
C652 C 0.43126 0.51787 0.80119 0.0
O653 O 0.42086 0.53619 0.76021 0.0
O654 O 0.39502 0.53217 0.77359 0.0
C655 C 0.35977 0.5085 0.75794 0.0
N656 N 0.36793 0.50163 0.77225 0.0
C657 C 0.34024 0.4816 0.77568 0.0
C658 C 0.33148 0.48853 0.76104 0.0
C659 C 0.34133 0.50193 0.75201 0.0
C660 C 0.35869 0.48844 0.78071 0.0
H661 H 0.36726 0.51896 0.75122 0.0
C662 C 0.40683 0.54157 0.7653 0.0
O663 O 0.44711 0.51653 0.74486 0.0
O664 O 0.41971 0.50726 0.73059 0.0
N665 N 0.3862 0.48894 0.79806 0.0
C666 C 0.39689 0.48318 0.81138 0.0
C667 C 0.38913 0.47007 0.82197 0.0
C668 C 0.37048 0.46319 0.81885 0.0
C669 C 0.35987 0.4687 0.80457 0.0
C670 C 0.36835 0.48185 0.79452 0.0
H671 H 0.41112 0.48887 0.81426 0.0
O672 O 0.42314 0.48287 0.75825 0.0
O673 O 0.40239 0.49766 0.76595 0.0
O674 O 0.43765 0.51401 0.78605 0.0
O675 O 0.41458 0.51834 0.80162 0.0
C676 C 0.34115 0.46205 0.80023 0.0
C677 C 0.33139 0.46831 0.78562 0.0
H678 H 0.3172 0.48368 0.75662 0.0
H679 H 0.33468 0.50736 0.7407 0.0
H680 H 0.39738 0.46569 0.83289 0.0
H681 H 0.36439 0.45406 0.8278 0.0
H682 H 0.33411 0.45215 0.80804 0.0
H683 H 0.31705 0.46294 0.78227 0.0
Mn684 Mn 0.66973 0.04337 0.7519 0.0
Mn685 Mn 0.70533 0.05664 0.78492 0.0
C686 C 0.68291 0.07281 0.75783 0.0
C687 C 0.65689 0.03407 0.72223 0.0
C688 C 0.66683 0.04524 0.79281 0.0
O689 O 0.67839 0.02049 0.75524 0.0
O690 O 0.70362 0.03102 0.7754 0.0
C691 C 0.73633 0.05394 0.76384 0.0
N692 N 0.7276 0.06388 0.77503 0.0
C693 C 0.75242 0.08926 0.77857 0.0
C694 C 0.76176 0.07922 0.76723 0.0
C695 C 0.75364 0.06152 0.75977 0.0
C696 C 0.73528 0.08095 0.78227 0.0
H697 H 0.73014 0.04034 0.75811 0.0
C698 C 0.69278 0.01848 0.7646 0.0
O699 O 0.64799 0.03069 0.73618 0.0
O700 O 0.67387 0.04169 0.72556 0.0
N701 N 0.70833 0.08137 0.7948 0.0
C702 C 0.69673 0.08977 0.8038 0.0
C703 C 0.7023 0.10792 0.81119 0.0
C704 C 0.71974 0.11719 0.80933 0.0
C705 C 0.73133 0.10834 0.79975 0.0
C706 C 0.72503 0.09025 0.79268 0.0
H707 H 0.68331 0.08271 0.80523 0.0
O708 O 0.66619 0.06824 0.75048 0.0
O709 O 0.69133 0.06007 0.76192 0.0
O710 O 0.65954 0.04281 0.77623 0.0
O711 O 0.68376 0.05 0.7975 0.0
C712 C 0.74872 0.11686 0.79657 0.0
C713 C 0.75928 0.10731 0.78603 0.0
H714 H 0.77509 0.08504 0.764 0.0
H715 H 0.76073 0.05372 0.75094 0.0
H716 H 0.69319 0.11473 0.81835 0.0
H717 H 0.724 0.13116 0.81509 0.0
H718 H 0.75397 0.13084 0.8019 0.0
H719 H 0.77252 0.11409 0.78345 0.0
Mn720 Mn 0.76082 0.67457 0.01487 0.0
Mn721 Mn 0.75382 0.63929 0.98126 0.0
C722 C 0.73148 0.65756 0.00562 0.0
C723 C 0.76679 0.68715 0.04664 0.0
C724 C 0.76415 0.67846 0.97371 0.0
O725 O 0.78601 0.66774 0.01431 0.0
O726 O 0.77846 0.64185 0.99459 0.0
C727 C 0.75471 0.60768 1.00174 0.0
N728 N 0.74564 0.6166 0.98991 0.0
C729 C 0.7202 0.5918 0.98424 0.0
C730 C 0.72925 0.58239 0.99644 0.0
C731 C 0.74659 0.59038 0.00523 0.0
C732 C 0.72905 0.60894 0.98118 0.0
H733 H 0.76807 0.61369 0.00837 0.0
C734 C 0.78972 0.65334 0.00616 0.0
O735 O 0.77027 0.69675 0.03322 0.0
O736 O 0.76052 0.67011 0.0417 0.0
N737 N 0.73013 0.63571 0.96802 0.0
C738 C 0.72273 0.64709 0.95771 0.0
C739 C 0.70506 0.64151 0.94871 0.0
C740 C 0.69522 0.62428 0.95035 0.0
C741 C 0.70312 0.61282 0.96106 0.0
C742 C 0.72076 0.61913 0.96974 0.0
H743 H 0.73019 0.66036 0.9564 0.0
O744 O 0.73392 0.67411 0.01323 0.0
O745 O 0.74622 0.65181 0.00305 0.0
O746 O 0.76278 0.68568 0.98993 0.0
O747 O 0.76202 0.66145 0.96975 0.0
C748 C 0.69406 0.5955 0.96372 0.0
C749 C 0.70261 0.58497 0.97526 0.0
H750 H 0.72299 0.56908 0.99924 0.0
H751 H 0.75369 0.58319 0.01463 0.0
H752 H 0.69904 0.65048 0.94054 0.0
H753 H 0.68158 0.62005 0.94343 0.0
H754 H 0.68043 0.59023 0.95713 0.0
H755 H 0.69542 0.57176 0.97737 0.0
Mn756 Mn 0.88691 0.51498 0.79276 0.0
Mn757 Mn 0.85527 0.50439 0.82152 0.0
C758 C 0.87553 0.48574 0.79564 0.0
C759 C 0.8958 0.52109 0.76459 0.0
C760 C 0.89474 0.51784 0.83445 0.0
O761 O 0.8775 0.53773 0.79685 0.0
O762 O 0.85615 0.52939 0.81553 0.0
C763 C 0.82193 0.50528 0.79724 0.0
N764 N 0.83187 0.49614 0.80799 0.0
C765 C 0.80727 0.4706 0.80498 0.0
C766 C 0.79677 0.47974 0.79387 0.0
C767 C 0.80415 0.49712 0.78993 0.0
C768 C 0.82489 0.4794 0.81185 0.0
H769 H 0.82748 0.51873 0.79438 0.0
C770 C 0.86497 0.54086 0.80633 0.0
O771 O 0.90652 0.52686 0.77976 0.0
O772 O 0.87957 0.51244 0.76577 0.0
N773 N 0.85304 0.48041 0.82813 0.0
C774 C 0.86534 0.47304 0.83811 0.0
C775 C 0.86032 0.45545 0.84271 0.0
C776 C 0.84267 0.4457 0.83717 0.0
C777 C 0.83029 0.45355 0.82681 0.0
C778 C 0.83611 0.47107 0.82253 0.0
H779 H 0.87891 0.48048 0.84241 0.0
O780 O 0.89138 0.49012 0.79016 0.0
O781 O 0.86692 0.4986 0.79952 0.0
O782 O 0.89991 0.51963 0.81865 0.0
O783 O 0.87843 0.51223 0.83709 0.0
C784 C 0.81246 0.44461 0.82043 0.0
C785 C 0.80097 0.4531 0.80947 0.0
H786 H 0.78303 0.47352 0.78826 0.0
H787 H 0.79611 0.50427 0.7814 0.0
H788 H 0.87 0.44944 0.85057 0.0
H789 H 0.83882 0.43216 0.84081 0.0
H790 H 0.80748 0.43117 0.82377 0.0
H791 H 0.78734 0.446 0.80449 0.0
Mn792 Mn 0.79579 0.42039 0.50429 0.0
Mn793 Mn 0.80126 0.45252 0.47547 0.0
C794 C 0.82393 0.43484 0.49996 0.0
C795 C 0.79123 0.40975 0.53226 0.0
C796 C 0.78973 0.41299 0.46298 0.0
O797 O 0.77124 0.4271 0.50071 0.0
O798 O 0.77776 0.45132 0.48502 0.0
C799 C 0.80279 0.48632 0.49969 0.0
N800 N 0.81076 0.47604 0.48802 0.0
C801 C 0.83417 0.50134 0.48505 0.0
C802 C 0.82627 0.5122 0.49711 0.0
C803 C 0.81065 0.5046 0.50465 0.0
C804 C 0.82613 0.48309 0.48116 0.0
H805 H 0.79034 0.48067 0.50485 0.0
C806 C 0.7671 0.44062 0.49344 0.0
O807 O 0.78658 0.39952 0.51669 0.0
O808 O 0.79792 0.42672 0.53167 0.0
N809 N 0.82381 0.45459 0.46542 0.0
C810 C 0.82961 0.44233 0.45379 0.0
C811 C 0.84552 0.44755 0.44571 0.0
C812 C 0.85504 0.46544 0.44926 0.0
C813 C 0.84868 0.47784 0.4611 0.0
C814 C 0.83308 0.4717 0.46926 0.0
H815 H 0.82226 0.42863 0.4508 0.0
O816 O 0.82181 0.41921 0.50614 0.0
O817 O 0.80972 0.44166 0.49697 0.0
O818 O 0.79197 0.40761 0.47866 0.0
O819 O 0.79179 0.42946 0.4604 0.0
C820 C 0.85681 0.49622 0.46456 0.0
C821 C 0.84931 0.508 0.47619 0.0
H822 H 0.83203 0.52641 0.50058 0.0
H823 H 0.80441 0.51293 0.51387 0.0
H824 H 0.85029 0.43787 0.43656 0.0
H825 H 0.86709 0.46953 0.44268 0.0
H826 H 0.86857 0.5015 0.45801 0.0
H827 H 0.85511 0.52224 0.47789 0.0
Mn828 Mn 0.63191 0.54101 0.28164 0.0
Mn829 Mn 0.66777 0.55072 0.31479 0.0
C830 C 0.64738 0.57106 0.29065 0.0
C831 C 0.61903 0.53467 0.25002 0.0
C832 C 0.62899 0.53834 0.32313 0.0
O833 O 0.64051 0.51653 0.28252 0.0
O834 O 0.6665 0.52629 0.30182 0.0
C835 C 0.69826 0.55243 0.29217 0.0
N836 N 0.68961 0.56035 0.30514 0.0
C837 C 0.71282 0.58718 0.30964 0.0
C838 C 0.72217 0.57916 0.29659 0.0
C839 C 0.7148 0.56174 0.28775 0.0
C840 C 0.69646 0.5772 0.31356 0.0
H841 H 0.69251 0.53917 0.28517 0.0
C842 C 0.65564 0.51409 0.29058 0.0
O843 O 0.60968 0.53078 0.26353 0.0
O844 O 0.63607 0.54138 0.2547 0.0
N845 N 0.67022 0.57422 0.32796 0.0
C846 C 0.65893 0.58051 0.33926 0.0
C847 C 0.66391 0.59802 0.34856 0.0
C848 C 0.68047 0.60889 0.34622 0.0
C849 C 0.69186 0.60214 0.33452 0.0
C850 C 0.68621 0.58453 0.32566 0.0
H851 H 0.6462 0.57227 0.34117 0.0
O852 O 0.63076 0.56765 0.28298 0.0
O853 O 0.65405 0.55693 0.2932 0.0
O854 O 0.62127 0.5386 0.3068 0.0
O855 O 0.64617 0.54148 0.32684 0.0
C856 C 0.70845 0.61229 0.33106 0.0
C857 C 0.71894 0.60481 0.31865 0.0
H858 H 0.73489 0.58633 0.29309 0.0
H859 H 0.72183 0.55554 0.27751 0.0
H860 H 0.655 0.60315 0.35751 0.0
H861 H 0.68422 0.62243 0.35335 0.0
H862 H 0.71318 0.62594 0.3377 0.0
H863 H 0.73158 0.61283 0.31593 0.0
Tb864 Tb 0.0492 0.03581 0.03526 0.0
C865 C 0.98927 0.97359 0.99352 0.0
N866 N 0.99799 0.98921 0.98818 0.0
C867 C 0.99869 0.97393 0.95797 0.0
C868 C 0.98518 0.95745 0.98135 0.0
C869 C 1.00236 0.98959 0.97051 0.0
C870 C 0.99016 0.95774 0.96344 0.0
C871 C 0.97426 0.95823 0.01697 0.0
C872 C 0.98393 0.97398 0.01109 0.0
C873 C 0.97048 0.94203 0.00505 0.0
C874 C 0.97591 0.94165 0.98727 0.0
Tb875 Tb 1.00217 0.01427 0.00954 0.0
N876 N 0.98764 0.98997 0.02216 0.0
C877 C 0.96812 0.95938 0.03438 0.0
C878 C 0.98033 0.99134 0.03843 0.0
C879 C 0.97091 0.97611 0.045 0.0
H880 H 0.00779 1.00206 0.96566 0.0
H881 H 0.96532 0.97744 0.05797 0.0
H882 H 0.04373 0.04458 0.0801 0.0
H883 H 0.0772 0.07853 0.98594 0.0
H884 H 0.98082 0.00419 0.046 0.0
H885 H 0.96056 0.94764 0.03939 0.0
H886 H 0.06171 0.05059 0.99575 0.0
H887 H 1.00211 0.97445 0.94398 0.0
H888 H 0.96305 0.92982 0.00932 0.0
H889 H 0.97261 0.92913 0.9781 0.0
H890 H 0.0515 0.07053 0.10395 0.0
H891 H 0.98714 0.94566 0.95363 0.0
H892 H 0.08732 0.10562 0.00872 0.0
N893 N 0.05333 0.0592 0.05841 0.0
C894 C 0.0622 0.07523 0.05407 0.0
C895 C 0.05441 0.07209 0.08992 0.0
C896 C 0.06787 0.09022 0.06767 0.0
C897 C 0.04954 0.05744 0.07614 0.0
C898 C 0.06367 0.08854 0.0857 0.0
N899 N 0.06056 0.0617 0.02327 0.0
C900 C 0.0648 0.06231 0.00558 0.0
C901 C 0.07606 0.09262 0.03124 0.0
C902 C 0.06613 0.07646 0.03601 0.0
C903 C 0.07979 0.09342 0.01295 0.0
C904 C 0.07404 0.0782 1.00004 0.0
H905 H 0.06783 0.09974 0.09653 0.0
H906 H 0.08292 0.1177 0.07339 0.0
H907 H 0.09088 0.11939 0.04177 0.0
O908 O 0.07379 0.03033 0.0277 0.0
O909 O 0.03117 0.05512 0.02842 0.0
O910 O 0.01392 0.04121 1.00171 0.0
O911 O 0.07093 0.03877 0.05604 0.0
O912 O 0.04856 0.02096 0.00729 0.0
O913 O 0.02205 0.02425 0.99147 0.0
O914 O 0.97883 0.02436 0.01482 0.0
O915 O 0.01912 0.99417 0.01734 0.0
O916 O 0.03942 0.00816 0.04244 0.0
O917 O 0.98174 0.01182 0.98739 0.0
O918 O 1.00348 0.0282 0.03815 0.0
O919 O 0.03001 0.02432 0.05351 0.0
C920 C 0.02142 0.0561 0.01267 0.0
C921 C 0.09117 0.01939 0.05076 0.0
C922 C 0.11422 1.00214 0.04543 0.0
C923 C 0.11206 0.99486 0.06215 0.0
C924 C 0.08885 0.012 0.06751 0.0
C925 C 0.09932 0.99977 0.07315 0.0
C926 C 0.10386 0.01435 0.03978 0.0
C927 C 0.0386 0.02145 0.99157 0.0
C928 C 0.08134 0.03304 0.04478 0.0
C929 C 0.07805 0.1062 0.06302 0.0
C930 C 0.08237 0.10727 0.04494 0.0
C931 C 0.03021 0.99332 0.03228 0.0
C932 C 0.95418 0.02285 0.99031 0.0
C933 C 0.92772 0.03553 0.99497 0.0
C934 C 0.9211 0.03042 0.97623 0.0
C935 C 0.94755 0.01784 0.97154 0.0
C936 C 0.94422 0.03169 1.00194 0.0
C937 C 0.93104 0.02163 0.96456 0.0
C938 C 0.01316 0.02622 0.0536 0.0
C939 C 0.97187 0.01977 0.99761 0.0
H940 H 0.1203 0.98554 0.06671 0.0
H941 H 0.07915 0.01578 0.07631 0.0
H942 H 0.09769 0.99423 0.08611 0.0
H943 H 0.10591 0.02013 0.02696 0.0
H944 H 0.90842 0.03347 0.97059 0.0
H945 H 0.95517 0.01118 0.96223 0.0
H946 H 0.94928 0.03563 0.01643 0.0
H947 H 0.92602 0.01786 0.95008 0.0
Tb948 Tb 0.26821 0.77464 0.29274 0.0
C949 C 0.31069 0.74194 0.22378 0.0
N950 N 0.31662 0.75463 0.2386 0.0
C951 C 0.34385 0.74303 0.24367 0.0
C952 C 0.3209 0.72892 0.21869 0.0
C953 C 0.33318 0.75556 0.24829 0.0
C954 C 0.33763 0.72957 0.2289 0.0
C955 C 0.28697 0.72824 0.19911 0.0
C956 C 0.294 0.74166 0.21405 0.0
C957 C 0.29708 0.71524 0.194 0.0
C958 C 0.31401 0.7156 0.20374 0.0
Tb959 Tb 0.29781 0.77415 0.24526 0.0
N960 N 0.28423 0.75395 0.22003 0.0
C961 C 0.26988 0.72811 0.18994 0.0
C962 C 0.26782 0.75422 0.21058 0.0
C963 C 0.26035 0.74124 0.19562 0.0
H964 H 0.3385 0.7662 0.25931 0.0
H965 H 0.24722 0.74144 0.18843 0.0
H966 H 0.2268 0.7807 0.28164 0.0
H967 H 0.32169 0.8105 0.34581 0.0
H968 H 0.26031 0.76439 0.21417 0.0
H969 H 0.26397 0.71798 0.17844 0.0
H970 H 0.30759 0.78633 0.32193 0.0
H971 H 0.35692 0.74385 0.25147 0.0
H972 H 0.29186 0.70478 0.1826 0.0
H973 H 0.32162 0.70544 0.19969 0.0
H974 H 0.20781 0.80238 0.29042 0.0
H975 H 0.3459 0.71983 0.22542 0.0
H976 H 0.30509 0.83402 0.35593 0.0
N977 N 0.24944 0.79358 0.30077 0.0
C978 C 0.25611 0.80714 0.31451 0.0
C979 C 0.22141 0.80395 0.29727 0.0
C980 C 0.24573 0.81986 0.32007 0.0
C981 C 0.23228 0.79174 0.29221 0.0
C982 C 0.22819 0.81813 0.31122 0.0
N983 N 0.28297 0.79584 0.31685 0.0
C984 C 0.3 0.79639 0.32537 0.0
C985 C 0.28111 0.8225 0.33694 0.0
C986 C 0.2735 0.80838 0.3228 0.0
C987 C 0.29873 0.82337 0.34508 0.0
C988 C 0.30815 0.81017 0.33936 0.0
H989 H 0.21978 0.82762 0.31507 0.0
H990 H 0.24549 0.84383 0.33857 0.0
H991 H 0.27656 0.84622 0.35329 0.0
O992 O 0.26928 0.75488 0.31055 0.0
O993 O 0.27646 0.80095 0.28399 0.0
O994 O 0.29891 0.79149 0.27088 0.0
O995 O 0.24379 0.75792 0.29682 0.0
O996 O 0.29481 0.76581 0.29672 0.0
O997 O 0.31342 0.77426 0.27337 0.0
O998 O 0.29687 0.79327 0.22631 0.0
O999 O 0.2854 0.74684 0.24816 0.0
O1000 O 0.27685 0.7636 0.26898 0.0
O1001 O 0.32251 0.78739 0.23787 0.0
O1002 O 0.27031 0.7822 0.24228 0.0
O1003 O 0.25174 0.77181 0.26507 0.0
C1004 C 0.28907 0.80363 0.27309 0.0
C1005 C 0.24481 0.75026 0.32758 0.0
C1006 C 0.2475 0.74157 0.35861 0.0
C1007 C 0.23512 0.7522 0.36364 0.0
C1008 C 0.23235 0.76088 0.33263 0.0
C1009 C 0.22746 0.76172 0.3506 0.0
C1010 C 0.25211 0.74042 0.34059 0.0
C1011 C 0.3107 0.76816 0.28979 0.0
C1012 C 0.2518 0.75036 0.30957 0.0
C1013 C 0.25322 0.8339 0.33415 0.0
C1014 C 0.27091 0.83526 0.34251 0.0
C1015 C 0.27627 0.74743 0.26179 0.0
C1016 C 0.32423 0.80937 0.21604 0.0
C1017 C 0.3249 0.82531 0.18886 0.0
C1018 C 0.3435 0.83203 0.19379 0.0
C1019 C 0.3428 0.81609 0.22083 0.0
C1020 C 0.31532 0.81412 0.20016 0.0
C1021 C 0.35236 0.82746 0.20976 0.0
C1022 C 0.25421 0.77837 0.24889 0.0
C1023 C 0.31438 0.79638 0.22673 0.0
H1024 H 0.23142 0.75311 0.3776 0.0
H1025 H 0.22662 0.76874 0.32289 0.0
H1026 H 0.21791 0.76995 0.35449 0.0
H1027 H 0.26187 0.73231 0.33687 0.0
H1028 H 0.35115 0.84089 0.18538 0.0
H1029 H 0.34994 0.81246 0.23302 0.0
H1030 H 0.30106 0.80856 0.1962 0.0
H1031 H 0.36668 0.83263 0.21347 0.0
Tb1032 Tb 0.50679 0.02874 0.53554 0.0
C1033 C 0.57241 0.06761 0.49749 0.0
N1034 N 0.56029 0.05204 0.49164 0.0
C1035 C 0.558 0.06023 0.46071 0.0
C1036 C 0.57746 0.08032 0.48518 0.0
C1037 C 0.55353 0.04795 0.47338 0.0
C1038 C 0.56991 0.07654 0.46665 0.0
C1039 C 0.59243 0.0868 0.52252 0.0
C1040 C 0.57984 0.07082 0.51594 0.0
C1041 C 0.59743 0.09952 0.5103 0.0
C1042 C 0.58995 0.0963 0.4917 0.0
Tb1043 Tb 0.55468 0.03319 0.51382 0.0
N1044 N 0.57419 0.05853 0.52756 0.0
C1045 C 0.59948 0.08956 0.54121 0.0
C1046 C 0.5816 0.06081 0.54557 0.0
C1047 C 0.59414 0.07644 0.55275 0.0
H1048 H 0.54521 0.035 0.46833 0.0
H1049 H 0.59982 0.07826 0.56713 0.0
H1050 H 0.51592 0.02583 0.58079 0.0
H1051 H 0.46096 0.98566 0.48133 0.0
H1052 H 0.57816 0.05052 0.55433 0.0
H1053 H 0.60918 0.10167 0.54682 0.0
H1054 H 0.48314 0.01282 0.4948 0.0
H1055 H 0.55248 0.05696 0.4463 0.0
H1056 H 0.60705 0.1119 0.51511 0.0
H1057 H 0.59398 0.10622 0.48245 0.0
H1058 H 0.50751 1.00368 0.60237 0.0
H1059 H 0.57344 0.08597 0.45677 0.0
H1060 H 0.45071 0.96197 0.50105 0.0
N1061 N 0.50023 0.00962 0.55725 0.0
C1062 C 0.48784 0.99433 0.55106 0.0
C1063 C 0.50201 1.00081 0.58793 0.0
C1064 C 0.4822 0.98155 0.56309 0.0
C1065 C 0.50703 0.01321 0.57553 0.0
C1066 C 0.4896 0.98487 0.58168 0.0
N1067 N 0.48679 0.00399 0.52125 0.0
C1068 C 0.47946 1.00229 0.50324 0.0
C1069 C 0.46767 0.97598 0.52562 0.0
C1070 C 0.4807 0.99153 0.53253 0.0
C1071 C 0.46075 0.97374 0.5069 0.0
C1072 C 0.46658 0.98703 0.4957 0.0
H1073 H 0.48563 0.97537 0.59137 0.0
H1074 H 0.46463 0.95608 0.56532 0.0
H1075 H 0.45161 0.95146 0.53268 0.0
O1076 O 0.48526 0.04166 0.52577 0.0
O1077 O 0.5153 1.00268 0.52655 0.0
O1078 O 0.53587 0.00704 0.50481 0.0
O1079 O 0.49074 0.03747 0.55462 0.0
O1080 O 0.51221 0.04071 0.51031 0.0
O1081 O 0.53051 0.02556 0.49456 0.0
O1082 O 0.57749 0.02196 0.52343 0.0
O1083 O 0.5457 0.05913 0.52298 0.0
O1084 O 0.5263 0.05392 0.54546 0.0
O1085 O 0.57034 0.02455 0.49436 0.0
O1086 O 0.5492 0.02061 0.53861 0.0
O1087 O 0.53115 0.03542 0.55506 0.0
C1088 C 0.52447 0.99638 0.5136 0.0
C1089 C 0.46585 0.05267 0.5483 0.0
C1090 C 0.44126 0.06925 0.54288 0.0
C1091 C 0.43893 0.06967 0.5617 0.0
C1092 C 0.46297 0.0534 0.56708 0.0
C1093 C 0.44968 0.06181 0.57366 0.0
C1094 C 0.45482 0.0607 0.53606 0.0
C1095 C 0.51619 0.03274 0.49508 0.0
C1096 C 0.48081 0.04393 0.54251 0.0
C1097 C 0.46922 0.96601 0.55626 0.0
C1098 C 0.46188 0.96331 0.53762 0.0
C1099 C 0.53656 0.06506 0.53619 0.0
C1100 C 0.59697 0.01201 0.50046 0.0
C1101 C 0.62157 0.9954 0.50484 0.0
C1102 C 0.62571 0.99818 0.48692 0.0
C1103 C 0.60157 0.01451 0.48256 0.0
C1104 C 0.60707 1.0023 0.51168 0.0
C1105 C 0.61576 0.00763 0.47588 0.0
C1106 C 0.5456 0.0284 0.55408 0.0
C1107 C 0.58137 0.0194 0.50649 0.0
H1108 H 0.42864 0.07613 0.56718 0.0
H1109 H 0.47109 0.0475 0.57688 0.0
H1110 H 0.44771 0.06226 0.58815 0.0
H1111 H 0.45677 0.06036 0.52156 0.0
H1112 H 0.63668 0.9929 0.4814 0.0
H1113 H 0.59415 0.02185 0.47357 0.0
H1114 H 0.60371 1.00012 0.52546 0.0
H1115 H 0.61906 0.00962 0.46206 0.0
Tb1116 Tb 0.29873 0.26863 0.77418 0.0
C1117 C 0.233 0.29436 0.73242 0.0
N1118 N 0.24417 0.30293 0.74759 0.0
C1119 C 0.24539 0.33118 0.73519 0.0
C1120 C 0.22778 0.30387 0.71785 0.0
C1121 C 0.25018 0.32116 0.74928 0.0
C1122 C 0.23421 0.32249 0.71935 0.0
C1123 C 0.21519 0.26651 0.71605 0.0
C1124 C 0.22683 0.27594 0.73152 0.0
C1125 C 0.21002 0.27588 0.70143 0.0
C1126 C 0.2163 0.29452 0.70232 0.0
Tb1127 Tb 0.25124 0.28511 0.76955 0.0
N1128 N 0.2325 0.26726 0.74574 0.0
C1129 C 0.20899 0.24798 0.71584 0.0
C1130 C 0.22565 0.24941 0.74605 0.0
C1131 C 0.21408 0.23944 0.73102 0.0
H1132 H 0.25818 0.32811 0.76175 0.0
H1133 H 0.20889 0.22523 0.73127 0.0
H1134 H 0.29084 0.22537 0.78135 0.0
H1135 H 0.33988 0.32812 0.81433 0.0
H1136 H 0.22859 0.24285 0.75797 0.0
H1137 H 0.2 0.24023 0.70424 0.0
H1138 H 0.3203 0.31103 0.78728 0.0
H1139 H 0.25019 0.34562 0.73664 0.0
H1140 H 0.2011 0.26886 0.68942 0.0
H1141 H 0.21215 0.30158 0.69097 0.0
H1142 H 0.29897 0.2074 0.8059 0.0
H1143 H 0.2305 0.33029 0.70847 0.0
H1144 H 0.34902 0.3124 0.84071 0.0
N1145 N 0.30519 0.25035 0.79587 0.0
C1146 C 0.31643 0.25862 0.81113 0.0
C1147 C 0.30377 0.22182 0.80767 0.0
C1148 C 0.32152 0.24881 0.82548 0.0
C1149 C 0.29899 0.23213 0.79386 0.0
C1150 C 0.31498 0.23019 0.82361 0.0
N1151 N 0.317 0.28612 0.79851 0.0
C1152 C 0.32352 0.30411 0.79882 0.0
C1153 C 0.33417 0.28623 0.82812 0.0
C1154 C 0.32268 0.27708 0.81243 0.0
C1155 C 0.34017 0.30486 0.8289 0.0
C1156 C 0.33495 0.31379 0.81409 0.0
H1157 H 0.31864 0.22215 0.83429 0.0
H1158 H 0.33699 0.25056 0.85236 0.0
H1159 H 0.34804 0.28333 0.85469 0.0
O1160 O 0.32104 0.27771 0.75887 0.0
O1161 O 0.28763 0.27662 0.80039 0.0
O1162 O 0.27113 0.2979 0.79297 0.0
O1163 O 0.31513 0.25067 0.76667 0.0
O1164 O 0.29705 0.29298 0.7604 0.0
O1165 O 0.27573 0.30658 0.7736 0.0
O1166 O 0.22972 0.27634 0.78599 0.0
O1167 O 0.26229 0.27736 0.74329 0.0
O1168 O 0.27909 0.25611 0.75041 0.0
O1169 O 0.23483 0.303 0.77711 0.0
O1170 O 0.25306 0.26051 0.78299 0.0
O1171 O 0.27431 0.24721 0.76938 0.0
C1172 C 0.27919 0.28975 0.80539 0.0
C1173 C 0.34102 0.25638 0.74952 0.0
C1174 C 0.36726 0.2611 0.73174 0.0
C1175 C 0.36898 0.24324 0.73324 0.0
C1176 C 0.3434 0.23857 0.7506 0.0
C1177 C 0.35718 0.23213 0.74256 0.0
C1178 C 0.35316 0.2678 0.73996 0.0
C1179 C 0.29045 0.30741 0.76511 0.0
C1180 C 0.3256 0.26199 0.75838 0.0
C1181 C 0.33295 0.25786 0.84117 0.0
C1182 C 0.33925 0.27653 0.8425 0.0
C1183 C 0.27064 0.26421 0.7382 0.0
C1184 C 0.21034 0.29801 0.79611 0.0
C1185 C 0.18335 0.29328 0.81283 0.0
C1186 C 0.18342 0.31182 0.81356 0.0
C1187 C 0.20978 0.31648 0.79736 0.0
C1188 C 0.19711 0.28632 0.80423 0.0
C1189 C 0.19653 0.32325 0.80601 0.0
C1190 C 0.25971 0.24616 0.77801 0.0
C1191 C 0.22502 0.29198 0.78629 0.0
H1192 H 0.37961 0.23785 0.72713 0.0
H1193 H 0.33451 0.22939 0.75769 0.0
H1194 H 0.35873 0.21838 0.74357 0.0
H1195 H 0.35165 0.28155 0.73885 0.0
H1196 H 0.17334 0.31758 0.82028 0.0
H1197 H 0.21969 0.3259 0.79163 0.0
H1198 H 0.19732 0.27208 0.80361 0.0
H1199 H 0.1964 0.33751 0.80685 0.0
Tb1200 Tb 0.03579 0.00488 0.52417 0.0
C1201 C 0.00871 0.06991 0.56516 0.0
N1202 N 1.00064 0.05888 0.54967 0.0
C1203 C 0.97168 0.05766 0.56063 0.0
C1204 C 0.99852 0.07507 0.57913 0.0
C1205 C 0.98232 0.05304 0.54705 0.0
C1206 C 0.97981 0.06865 0.57677 0.0
C1207 C 0.03616 0.0875 0.58284 0.0
C1208 C 0.02734 0.07599 0.56703 0.0
C1209 C 0.02603 0.09271 0.59677 0.0
C1210 C 0.00728 0.08647 0.59495 0.0
Tb1211 Tb 0.01967 0.05277 0.52867 0.0
N1212 N 0.03687 0.07 0.55368 0.0
C1213 C 0.05493 0.09325 0.58425 0.0
C1214 C 0.05504 0.07617 0.55464 0.0
C1215 C 0.06437 0.08766 0.57001 0.0
H1216 H 0.97576 0.04535 0.53426 0.0
H1217 H 0.07883 0.09236 0.57079 0.0
H1218 H 0.07949 0.00909 0.52001 0.0
H1219 H 0.97694 0.96384 0.48278 0.0
H1220 H 0.06238 0.07256 0.54354 0.0
H1221 H 0.06221 0.10212 0.59616 0.0
H1222 H 0.99379 0.98266 0.51041 0.0
H1223 H 0.95718 0.05295 0.5585 0.0
H1224 H 0.03258 0.10151 0.60904 0.0
H1225 H 0.99967 0.09058 0.60583 0.0
H1226 H 0.09841 1.00143 0.49597 0.0
H1227 H 0.97151 0.07229 0.58722 0.0
H1228 H 0.99306 0.9556 0.45635 0.0
N1229 N 0.05473 0.99668 0.50386 0.0
C1230 C 0.04673 0.98639 0.48796 0.0
C1231 C 0.08387 0.99719 0.49349 0.0
C1232 C 0.05696 0.98136 0.47397 0.0
C1233 C 0.0731 1.00175 0.50699 0.0
C1234 C 0.07576 0.98707 0.47683 0.0
N1235 N 0.01894 0.9863 0.4996 0.0
C1236 C 1.00086 0.97979 0.49889 0.0
C1237 C 0.01922 0.9699 0.46972 0.0
C1238 C 0.02819 0.98082 0.48583 0.0
C1239 C 1.00048 0.96407 0.46846 0.0
C1240 C 0.99132 0.9688 0.48327 0.0
H1241 H 0.08412 0.98355 0.46639 0.0
H1242 H 0.05571 0.96686 0.44669 0.0
H1243 H 0.02263 0.95676 0.443 0.0
O1244 O 0.02482 0.98344 0.53901 0.0
O1245 O 0.02823 0.01591 0.49789 0.0
O1246 O 0.00762 0.03435 0.5037 0.0
O1247 O 0.05311 0.98963 0.53639 0.0
O1248 O 0.01099 0.00811 0.5368 0.0
O1249 O 0.9976 0.02895 0.52266 0.0
O1250 O 0.02983 0.0741 0.51333 0.0
O1251 O 0.02739 0.04136 0.55475 0.0
O1252 O 0.04859 0.0252 0.54689 0.0
O1253 O 1.00429 0.07247 0.5238 0.0
O1254 O 0.04432 0.05097 0.51539 0.0
O1255 O 0.05782 0.02894 0.52743 0.0
C1256 C 0.01569 0.02487 0.49226 0.0
C1257 C 0.04165 0.95973 0.54259 0.0
C1258 C 0.04026 0.93213 0.55811 0.0
C1259 C 0.049 0.92487 0.544 0.0
C1260 C 0.05005 0.9518 0.52857 0.0
C1261 C 0.05372 0.93456 0.52934 0.0
C1262 C 0.03655 0.94969 0.55735 0.0
C1263 C 0.99645 0.01379 0.53032 0.0
C1264 C 0.04044 0.97912 0.54315 0.0
C1265 C 0.04811 0.97078 0.45767 0.0
C1266 C 0.02927 0.96504 0.45556 0.0
C1267 C 0.04017 0.03242 0.55949 0.0
C1268 C 0.0082 0.08902 0.49799 0.0
C1269 C 0.00923 0.11351 0.47813 0.0
C1270 C 0.99148 0.10591 0.47038 0.0
C1271 C 0.99054 0.08164 0.48963 0.0
C1272 C 0.01762 0.105 0.49202 0.0
C1273 C 0.98228 0.09008 0.47602 0.0
C1274 C 0.05868 0.04401 0.51955 0.0
C1275 C 0.01577 0.08152 0.51444 0.0
H1276 H 0.05217 0.91158 0.54433 0.0
H1277 H 0.05427 0.95915 0.51725 0.0
H1278 H 0.0605 0.92875 0.51861 0.0
H1279 H 0.03029 0.95569 0.56842 0.0
H1280 H 0.9847 0.11229 0.45989 0.0
H1281 H 0.9829 0.06957 0.49397 0.0
H1282 H 0.03115 0.11103 0.49847 0.0
H1283 H 0.96855 0.08444 0.46996 0.0
Tb1284 Tb 0.27993 0.80111 0.76495 0.0
C1285 C 0.23972 0.73216 0.7978 0.0
N1286 N 0.25482 0.74473 0.80449 0.0
C1287 C 0.24377 0.74743 0.83417 0.0
C1288 C 0.22563 0.72755 0.80878 0.0
C1289 C 0.25744 0.75139 0.82282 0.0
C1290 C 0.22762 0.73575 0.82701 0.0
C1291 C 0.22358 0.70975 0.77289 0.0
C1292 C 0.23868 0.72327 0.78008 0.0
C1293 C 0.20926 0.70562 0.78356 0.0
C1294 C 0.21026 0.71452 0.80144 0.0
Tb1295 Tb 0.27578 0.74981 0.78391 0.0
N1296 N 0.2524 0.72815 0.76976 0.0
C1297 C 0.22334 0.70089 0.75514 0.0
C1298 C 0.25274 0.71888 0.75295 0.0
C1299 C 0.23809 0.70533 0.74522 0.0
H1300 H 0.27024 0.7591 0.82914 0.0
H1301 H 0.23826 0.6982 0.73172 0.0
H1302 H 0.27786 0.7939 0.71831 0.0
H1303 H 0.32871 0.84413 0.81682 0.0
H1304 H 0.26448 0.72172 0.74571 0.0
H1305 H 0.21198 0.69042 0.7491 0.0
H1306 H 0.3001 0.82307 0.80535 0.0
H1307 H 0.24588 0.75306 0.84856 0.0
H1308 H 0.19742 0.69545 0.77818 0.0
H1309 H 0.19925 0.71097 0.80962 0.0
H1310 H 0.2983 0.80177 0.69508 0.0
H1311 H 0.21713 0.73256 0.83591 0.0
H1312 H 0.35053 0.85378 0.79496 0.0
N1313 N 0.29678 0.80732 0.74128 0.0
C1314 C 0.31287 0.81891 0.74659 0.0
C1315 C 0.30265 0.80648 0.70955 0.0
C1316 C 0.32472 0.82425 0.73354 0.0
C1317 C 0.29121 0.80175 0.72291 0.0
C1318 C 0.31955 0.81761 0.71489 0.0
N1319 N 0.30584 0.82033 0.77755 0.0
C1320 C 0.30953 0.82703 0.7958 0.0
C1321 C 0.33387 0.83796 0.77108 0.0
C1322 C 0.3174 0.82585 0.76518 0.0
C1323 C 0.33798 0.84448 0.78989 0.0
C1324 C 0.32573 0.83904 0.80228 0.0
H1325 H 0.3283 0.82136 0.70446 0.0
H1326 H 0.35044 0.84049 0.72956 0.0
H1327 H 0.35831 0.85262 0.76235 0.0
O1328 O 0.27238 0.8248 0.7769 0.0
O1329 O 0.30603 0.79292 0.77514 0.0
O1330 O 0.30305 0.76734 0.79133 0.0
O1331 O 0.26585 0.81563 0.74782 0.0
O1332 O 0.26864 0.79045 0.78858 0.0
O1333 O 0.28294 0.77271 0.80495 0.0
O1334 O 0.28929 0.72866 0.77462 0.0
O1335 O 0.24966 0.75575 0.77006 0.0
O1336 O 0.25225 0.7853 0.76234 0.0
O1337 O 0.2834 0.73343 0.80307 0.0
O1338 O 0.28674 0.75934 0.75948 0.0
O1339 O 0.27249 0.77815 0.74397 0.0
C1340 C 0.31287 0.78162 0.78543 0.0
C1341 C 0.26516 0.84623 0.75661 0.0
C1342 C 0.25045 0.87232 0.75495 0.0
C1343 C 0.26269 0.87901 0.74282 0.0
C1344 C 0.2773 0.85337 0.74468 0.0
C1345 C 0.27606 0.86968 0.73788 0.0
C1346 C 0.2519 0.85591 0.76197 0.0
C1347 C 0.27801 0.78811 0.80366 0.0
C1348 C 0.26428 0.82761 0.76122 0.0
C1349 C 0.34117 0.83628 0.7394 0.0
C1350 C 0.34567 0.84318 0.75809 0.0
C1351 C 0.24258 0.76924 0.76391 0.0
C1352 C 0.29843 0.70854 0.79724 0.0
C1353 C 0.31596 0.68484 0.79264 0.0
C1354 C 0.31399 0.68084 0.81074 0.0
C1355 C 0.29667 0.7041 0.81533 0.0
C1356 C 0.30817 0.69877 0.7858 0.0
C1357 C 0.30441 0.6904 0.82198 0.0
C1358 C 0.27685 0.76243 0.74498 0.0
C1359 C 0.29038 0.72372 0.79124 0.0
H1360 H 0.26199 0.89157 0.73723 0.0
H1361 H 0.28738 0.84606 0.74017 0.0
H1362 H 0.28533 0.87498 0.72848 0.0
H1363 H 0.24223 0.85028 0.77088 0.0
H1364 H 0.31997 0.67026 0.81622 0.0
H1365 H 0.28935 0.71129 0.82452 0.0
H1366 H 0.30988 0.70211 0.77194 0.0
H1367 H 0.30301 0.68723 0.83595 0.0
Tb1368 Tb 0.53033 0.04623 1.00086 0.0
C1369 C 0.55927 1.00155 0.06915 0.0
N1370 N 0.54644 0.99631 0.05429 0.0
C1371 C 0.55691 0.96862 0.04856 0.0
C1372 C 0.57191 0.9908 0.07384 0.0
C1373 C 0.54483 0.97986 0.04427 0.0
C1374 C 0.57062 0.97417 0.06329 0.0
C1375 C 0.57381 0.02454 0.09415 0.0
C1376 C 0.56017 0.01816 0.07922 0.0
C1377 C 0.5865 0.01393 0.09881 0.0
C1378 C 0.58553 0.99709 0.0887 0.0
Tb1379 Tb 0.52794 0.01614 0.04806 0.0
N1380 N 0.54822 0.02847 0.07363 0.0
C1381 C 0.57441 0.04146 0.1038 0.0
C1382 C 0.54812 0.04451 0.0838 0.0
C1383 C 0.56134 0.05137 0.09875 0.0
H1384 H 0.53409 0.97514 0.03311 0.0
H1385 H 0.56136 0.06426 0.10646 0.0
H1386 H 0.52246 0.0864 0.01392 0.0
H1387 H 0.49687 0.99429 0.94547 0.0
H1388 H 0.53777 0.05208 0.08088 0.0
H1389 H 0.58471 0.04689 0.11532 0.0
H1390 H 0.52134 0.00877 0.96891 0.0
H1391 H 0.55564 0.95566 0.04049 0.0
H1392 H 0.59715 0.01865 0.11016 0.0
H1393 H 0.59546 0.98908 0.09242 0.0
H1394 H 0.50029 0.105 0.0053 0.0
H1395 H 0.58006 0.9655 0.06644 0.0
H1396 H 0.47223 0.00991 0.93626 0.0
N1397 N 0.51074 0.06451 0.99335 0.0
C1398 C 0.49759 0.05809 0.97909 0.0
C1399 C 0.49933 0.0918 0.99785 0.0
C1400 C 0.48445 0.06812 0.97389 0.0
C1401 C 0.51185 0.08118 0.00273 0.0
C1402 C 0.48552 0.08522 0.98341 0.0
N1403 N 0.50994 0.0319 0.9759 0.0
C1404 C 0.51039 0.01561 0.96639 0.0
C1405 C 0.48306 0.03353 0.95586 0.0
C1406 C 0.497 0.04109 0.97024 0.0
C1407 C 0.4828 0.0163 0.9472 0.0
C1408 C 0.49664 0.00741 0.95239 0.0
H1409 H 0.47572 0.09339 0.97979 0.0
H1410 H 0.46027 0.06813 0.95544 0.0
H1411 H 0.45899 0.03775 0.93971 0.0
O1412 O 0.5509 0.04596 0.9838 0.0
O1413 O 0.50386 0.04111 0.00988 0.0
O1414 O 0.51037 0.01738 0.0229 0.0
O1415 O 0.54607 0.071 0.99653 0.0
O1416 O 0.53732 0.01859 0.99733 0.0
O1417 O 0.52567 1.00038 0.01978 0.0
O1418 O 0.51001 0.01801 0.06779 0.0
O1419 O 0.55599 0.02606 0.04476 0.0
O1420 O 0.54077 0.03664 0.02435 0.0
O1421 O 0.51215 0.9922 0.0544 0.0
O1422 O 0.5224 0.04445 0.05129 0.0
O1423 O 0.53467 0.06244 0.02884 0.0
C1424 C 0.49965 0.02883 0.02075 0.0
C1425 C 0.554 0.06992 0.96606 0.0
C1426 C 0.5623 0.06663 0.93501 0.0
C1427 C 0.55109 0.07835 0.92957 0.0
C1428 C 0.54279 0.08177 0.96068 0.0
C1429 C 0.54148 0.08606 0.94248 0.0
C1430 C 0.56398 0.06269 0.95323 0.0
C1431 C 0.53286 1.00261 0.00384 0.0
C1432 C 0.55436 0.06339 0.98425 0.0
C1433 C 0.47056 0.06068 0.95959 0.0
C1434 C 0.46982 0.04338 0.95066 0.0
C1435 C 0.55667 0.03566 0.03144 0.0
C1436 C 0.50564 0.99391 0.08546 0.0
C1437 C 0.49581 0.99539 0.1161 0.0
C1438 C 0.50607 0.98254 0.12079 0.0
C1439 C 0.51589 0.98106 0.09022 0.0
C1440 C 0.49561 1.00092 0.0984 0.0
C1441 C 0.51601 0.97538 0.10784 0.0
C1442 C 0.52769 0.06032 0.04486 0.0
C1443 C 0.50528 1.00065 0.06735 0.0
H1444 H 0.54981 0.08152 0.91542 0.0
H1445 H 0.53482 0.08745 0.97033 0.0
H1446 H 0.53281 0.09513 0.93832 0.0
H1447 H 0.57255 0.05342 0.95723 0.0
H1448 H 0.50619 0.97787 0.13433 0.0
H1449 H 0.52379 0.97546 0.08044 0.0
H1450 H 0.48782 0.01095 0.09475 0.0
H1451 H 0.52382 0.96542 0.11147 0.0
Tb1452 Tb 0.26464 0.25427 0.26106 0.0
C1453 C 0.32756 0.3125 0.30343 0.0
N1454 N 0.31118 0.3052 0.3084 0.0
C1455 C 0.32463 0.306 0.3397 0.0
C1456 C 0.34315 0.31673 0.31645 0.0
C1457 C 0.30951 0.3022 0.32637 0.0
C1458 C 0.34154 0.31325 0.33472 0.0
C1459 C 0.34528 0.32403 0.27969 0.0
C1460 C 0.32861 0.31612 0.28525 0.0
C1461 C 0.36084 0.32815 0.2926 0.0
C1462 C 0.35978 0.32453 0.31093 0.0
Tb1463 Tb 0.28741 0.30125 0.28552 0.0
N1464 N 0.31327 0.31191 0.27307 0.0
C1465 C 0.34574 0.32787 0.26139 0.0
C1466 C 0.31352 0.31677 0.2556 0.0
C1467 C 0.32974 0.3244 0.24936 0.0
H1468 H 0.29645 0.29776 0.33078 0.0
H1469 H 0.32978 0.32804 0.23541 0.0
H1470 H 0.25578 0.25789 0.21578 0.0
H1471 H 0.22254 0.22572 0.31047 0.0
H1472 H 0.30129 0.31556 0.24661 0.0
H1473 H 0.35827 0.33396 0.25657 0.0
H1474 H 0.25089 0.23945 0.29972 0.0
H1475 H 0.32317 0.30368 0.3539 0.0
H1476 H 0.37374 0.33431 0.28859 0.0
H1477 H 0.37188 0.32795 0.32077 0.0
H1478 H 0.22928 0.25131 0.19245 0.0
H1479 H 0.35318 0.31639 0.34515 0.0
H1480 H 0.19423 0.21907 0.28902 0.0
N1481 N 0.24098 0.25021 0.23805 0.0
C1482 C 0.22466 0.24247 0.24284 0.0
C1483 C 0.22773 0.24908 0.20664 0.0
C1484 C 0.20919 0.2379 0.22967 0.0
C1485 C 0.24273 0.25323 0.2201 0.0
C1486 C 0.21086 0.24148 0.21144 0.0
N1487 N 0.23885 0.24297 0.27323 0.0
C1488 C 0.23866 0.23788 0.29061 0.0
C1489 C 0.20707 0.22996 0.26624 0.0
C1490 C 0.2236 0.23853 0.26092 0.0
C1491 C 0.20665 0.22572 0.28441 0.0
C1492 C 0.22256 0.22956 0.29659 0.0
H1493 H 0.19932 0.23806 0.20089 0.0
H1494 H 0.18066 0.22583 0.22501 0.0
H1495 H 0.17881 0.2189 0.25702 0.0
O1496 O 0.27217 0.23064 0.26908 0.0
O1497 O 0.2453 0.27205 0.26912 0.0
O1498 O 0.25999 0.29225 0.2939 0.0
O1499 O 0.26013 0.23158 0.24137 0.0
O1500 O 0.27949 0.2559 0.28918 0.0
O1501 O 0.27628 0.28265 0.30438 0.0
O1502 O 0.28028 0.32505 0.27752 0.0
O1503 O 0.30626 0.28277 0.27858 0.0
O1504 O 0.29205 0.26371 0.25294 0.0
O1505 O 0.29238 0.32394 0.3052 0.0
O1506 O 0.27246 0.2997 0.25744 0.0
O1507 O 0.27564 0.27301 0.24216 0.0
C1508 C 0.24483 0.28336 0.28398 0.0
C1509 C 0.28095 0.21253 0.245 0.0
C1510 C 0.29826 0.18914 0.24796 0.0
C1511 C 0.30399 0.19139 0.23053 0.0
C1512 C 0.28691 0.21505 0.22762 0.0
C1513 C 0.2984 0.20445 0.22044 0.0
C1514 C 0.28683 0.19967 0.25516 0.0
C1515 C 0.27839 0.26594 0.30462 0.0
C1516 C 0.26775 0.22218 0.25244 0.0
C1517 C 0.19266 0.22952 0.23497 0.0
C1518 C 0.19161 0.22556 0.2532 0.0
C1519 C 0.30704 0.27199 0.26348 0.0
C1520 C 0.27162 0.34295 0.30178 0.0
C1521 C 0.25501 0.36707 0.29964 0.0
C1522 C 0.24928 0.36428 0.317 0.0
C1523 C 0.26508 0.33961 0.31872 0.0
C1524 C 0.26633 0.35645 0.29222 0.0
C1525 C 0.25398 0.35035 0.32632 0.0
C1526 C 0.2735 0.28973 0.24194 0.0
C1527 C 0.28478 0.33341 0.29421 0.0
H1528 H 0.31272 0.18306 0.22481 0.0
H1529 H 0.28254 0.22496 0.21948 0.0
H1530 H 0.30282 0.20624 0.20699 0.0
H1531 H 0.28219 0.19754 0.26851 0.0
H1532 H 0.24116 0.37284 0.32329 0.0
H1533 H 0.26884 0.32904 0.32627 0.0
H1534 H 0.2715 0.35904 0.2792 0.0
H1535 H 0.24922 0.34806 0.33954 0.0
Tb1536 Tb 0.53593 0.503 0.02137 0.0
C1537 C 0.50987 0.56833 0.06406 0.0
N1538 N 0.50148 0.55784 0.04838 0.0
C1539 C 0.47263 0.55792 0.05919 0.0
C1540 C 0.49991 0.57381 0.07811 0.0
C1541 C 0.48308 0.55306 0.04553 0.0
C1542 C 0.48108 0.56822 0.07562 0.0
C1543 C 0.53767 0.58523 0.08166 0.0
C1544 C 0.52855 0.5739 0.06586 0.0
C1545 C 0.52779 0.59061 0.09575 0.0
C1546 C 0.50898 0.58486 0.09401 0.0
Tb1547 Tb 0.52012 0.55085 0.02733 0.0
N1548 N 0.53778 0.56786 0.05225 0.0
C1549 C 0.55643 0.59079 0.08282 0.0
C1550 C 0.55592 0.57407 0.05288 0.0
C1551 C 0.56556 0.58534 0.06826 0.0
H1552 H 0.47645 0.54628 0.03239 0.0
H1553 H 0.57999 0.59003 0.06875 0.0
H1554 H 0.57949 0.51067 0.01455 0.0
H1555 H 0.47671 0.46162 0.98086 0.0
H1556 H 0.56299 0.5708 0.04148 0.0
H1557 H 0.56394 0.59954 0.0947 0.0
H1558 H 0.49351 0.48188 0.00755 0.0
H1559 H 0.45805 0.55402 0.05688 0.0
H1560 H 0.53458 0.59926 0.10803 0.0
H1561 H 0.50155 0.5892 0.10496 0.0
H1562 H 0.59768 0.50339 0.98987 0.0
H1563 H 0.47294 0.57212 0.08611 0.0
H1564 H 0.49285 0.4519 0.95511 0.0
N1565 N 0.55446 0.49692 0.99965 0.0
C1566 C 0.54629 0.48579 0.98431 0.0
C1567 C 0.58321 0.49848 0.98804 0.0
C1568 C 0.55629 0.48062 0.97014 0.0
C1569 C 0.57276 0.50296 1.00186 0.0
C1570 C 0.57494 0.48731 0.97207 0.0
N1571 N 0.51864 0.48501 0.99673 0.0
C1572 C 0.50059 0.47844 0.99625 0.0
C1573 C 0.51886 0.46749 0.96745 0.0
C1574 C 0.52782 0.47942 0.98291 0.0
C1575 C 0.50023 0.46119 0.96666 0.0
C1576 C 0.49107 0.46667 0.98116 0.0
H1577 H 0.58309 0.48369 0.96148 0.0
H1578 H 0.5549 0.46452 0.94372 0.0
H1579 H 0.52224 0.45262 0.94167 0.0
O1580 O 0.5267 0.4809 0.03695 0.0
O1581 O 0.5274 0.51457 0.99575 0.0
O1582 O 0.50669 0.53239 0.00289 0.0
O1583 O 0.55346 0.48602 0.02823 0.0
O1584 O 0.51126 0.505 0.03469 0.0
O1585 O 0.49765 0.52708 0.02277 0.0
O1586 O 0.53 0.57116 0.01051 0.0
O1587 O 0.52842 0.53928 0.05316 0.0
O1588 O 0.54883 0.52183 0.04537 0.0
O1589 O 0.50604 0.5717 0.02346 0.0
O1590 O 0.54432 0.54854 0.01347 0.0
O1591 O 0.5578 0.52712 0.02636 0.0
C1592 C 0.5143 0.52311 0.99077 0.0
C1593 C 0.54781 0.46028 0.04546 0.0
C1594 C 0.54377 0.43463 0.06406 0.0
C1595 C 0.56112 0.43204 0.06098 0.0
C1596 C 0.56512 0.45698 0.0428 0.0
C1597 C 0.57164 0.44308 0.05047 0.0
C1598 C 0.53699 0.44889 0.05625 0.0
C1599 C 0.49673 0.51156 0.02988 0.0
C1600 C 0.54224 0.47591 0.03694 0.0
C1601 C 0.54743 0.46877 0.95468 0.0
C1602 C 0.5288 0.46209 0.95343 0.0
C1603 C 0.54074 0.52977 0.05788 0.0
C1604 C 0.50886 0.58842 0.99761 0.0
C1605 C 0.51008 0.61346 0.97829 0.0
C1606 C 0.49146 0.60787 0.97293 0.0
C1607 C 0.49027 0.58312 0.99157 0.0
C1608 C 0.51882 0.6037 0.99078 0.0
C1609 C 0.48169 0.59284 0.97946 0.0
C1610 C 0.55879 0.54205 0.01834 0.0
C1611 C 0.51702 0.57986 0.01305 0.0
H1612 H 0.56658 0.4213 0.06676 0.0
H1613 H 0.57384 0.46524 0.03474 0.0
H1614 H 0.58499 0.44085 0.04825 0.0
H1615 H 0.52364 0.45108 0.05856 0.0
H1616 H 0.48441 0.61524 0.96363 0.0
H1617 H 0.48217 0.57175 0.99668 0.0
H1618 H 0.53309 0.60821 0.99547 0.0
H1619 H 0.46729 0.58881 0.97528 0.0
Tb1620 Tb 0.78217 0.29978 0.26324 0.0
C1621 C 0.74297 0.23093 0.29989 0.0
N1622 N 0.75865 0.24268 0.30614 0.0
C1623 C 0.7513 0.24192 0.3373 0.0
C1624 C 0.73028 0.22506 0.31196 0.0
C1625 C 0.76349 0.24712 0.32472 0.0
C1626 C 0.73439 0.23121 0.33083 0.0
C1627 C 0.72524 0.2101 0.27472 0.0
C1628 C 0.7405 0.22349 0.28163 0.0
C1629 C 0.7119 0.20506 0.28632 0.0
C1630 C 0.71442 0.21255 0.30493 0.0
Tb1631 Tb 0.77718 0.25089 0.28415 0.0
N1632 N 0.75363 0.22888 0.27085 0.0
C1633 C 0.72426 0.20179 0.25661 0.0
C1634 C 0.75373 0.21952 0.25408 0.0
C1635 C 0.73882 0.20619 0.24641 0.0
H1636 H 0.777 0.25438 0.32983 0.0
H1637 H 0.7387 0.19914 0.2328 0.0
H1638 H 0.78288 0.29157 0.2173 0.0
H1639 H 0.83213 0.33639 0.31833 0.0
H1640 H 0.7655 0.22211 0.24687 0.0
H1641 H 0.71279 0.19139 0.25074 0.0
H1642 H 0.80366 0.31588 0.30546 0.0
H1643 H 0.75508 0.24592 0.35198 0.0
H1644 H 0.69993 0.19496 0.28124 0.0
H1645 H 0.70437 0.20804 0.31393 0.0
H1646 H 0.80396 0.30079 0.19496 0.0
H1647 H 0.72504 0.22701 0.34061 0.0
H1648 H 0.85384 0.34856 0.29735 0.0
N1649 N 0.80049 0.30576 0.2408 0.0
C1650 C 0.81637 0.3174 0.24688 0.0
C1651 C 0.80768 0.30542 0.20953 0.0
C1652 C 0.82864 0.32332 0.2344 0.0
C1653 C 0.79587 0.29996 0.22235 0.0
C1654 C 0.82412 0.31713 0.21557 0.0
N1655 N 0.80865 0.31691 0.27756 0.0
C1656 C 0.81264 0.32151 0.29619 0.0
C1657 C 0.83712 0.33485 0.27251 0.0
C1658 C 0.82051 0.32327 0.26576 0.0
C1659 C 0.84119 0.33975 0.29162 0.0
C1660 C 0.82895 0.33294 0.30351 0.0
H1661 H 0.83318 0.3214 0.20555 0.0
H1662 H 0.85453 0.33994 0.23167 0.0
H1663 H 0.862 0.3499 0.26499 0.0
O1664 O 0.77487 0.32462 0.27324 0.0
O1665 O 0.80697 0.28819 0.27051 0.0
O1666 O 0.80109 0.27196 0.29508 0.0
O1667 O 0.77226 0.31508 0.24389 0.0
O1668 O 0.76835 0.29457 0.28736 0.0
O1669 O 0.78084 0.27486 0.30428 0.0
O1670 O 0.79424 0.23271 0.27463 0.0
O1671 O 0.75064 0.2567 0.27198 0.0
O1672 O 0.75442 0.28374 0.25845 0.0
O1673 O 0.78581 0.2342 0.30212 0.0
O1674 O 0.78677 0.25673 0.25766 0.0
O1675 O 0.77299 0.27665 0.2429 0.0
C1676 C 0.81265 0.28069 0.28512 0.0
C1677 C 0.76285 0.34346 0.25092 0.0
C1678 C 0.74632 0.36813 0.25585 0.0
C1679 C 0.7483 0.37189 0.23766 0.0
C1680 C 0.76456 0.34777 0.23282 0.0
C1681 C 0.75734 0.36182 0.22628 0.0
C1682 C 0.75363 0.35377 0.26257 0.0
C1683 C 0.77403 0.28947 0.30303 0.0
C1684 C 0.76974 0.3274 0.25641 0.0
C1685 C 0.84499 0.3352 0.24108 0.0
C1686 C 0.84923 0.34091 0.26006 0.0
C1687 C 0.74419 0.26899 0.26288 0.0
C1688 C 0.8051 0.21313 0.29738 0.0
C1689 C 0.82274 0.18946 0.29312 0.0
C1690 C 0.8237 0.18804 0.31218 0.0
C1691 C 0.8065 0.21136 0.31648 0.0
C1692 C 0.81328 0.202 0.28559 0.0
C1693 C 0.81564 0.1989 0.32373 0.0
C1694 C 0.77718 0.2608 0.24334 0.0
C1695 C 0.79481 0.22658 0.29071 0.0
H1696 H 0.74276 0.38273 0.23219 0.0
H1697 H 0.77143 0.34015 0.22353 0.0
H1698 H 0.7587 0.36487 0.21227 0.0
H1699 H 0.752 0.35059 0.27652 0.0
H1700 H 0.8308 0.17844 0.31816 0.0
H1701 H 0.80048 0.21962 0.326 0.0
H1702 H 0.81243 0.20313 0.27088 0.0
H1703 H 0.81651 0.19769 0.33841 0.0
Tb1704 Tb 0.02962 0.54173 0.50353 0.0
C1705 C 0.06575 0.49991 0.57265 0.0
N1706 N 0.052 0.49362 0.5589 0.0
C1707 C 0.06151 0.4652 0.55537 0.0
C1708 C 0.0782 0.48918 0.57803 0.0
C1709 C 0.04958 0.47639 0.55045 0.0
C1710 C 0.07595 0.47165 0.56915 0.0
C1711 C 0.08215 0.52469 0.59481 0.0
C1712 C 0.06764 0.51739 0.58097 0.0
C1713 C 0.09454 0.51404 0.60029 0.0
C1714 C 0.09257 0.49632 0.59193 0.0
Tb1715 Tb 0.0334 0.51306 0.55161 0.0
N1716 N 0.05577 0.5275 0.57472 0.0
C1717 C 0.08397 0.54256 0.6025 0.0
C1718 C 0.05741 0.54491 0.58252 0.0
C1719 C 0.0715 0.55267 0.59637 0.0
H1720 H 0.03819 0.47104 0.54022 0.0
H1721 H 0.07273 0.56651 0.6023 0.0
H1722 H 0.02447 0.58345 0.51399 0.0
H1723 H 0.9923 0.48844 0.4511 0.0
H1724 H 0.0481 0.55311 0.57835 0.0
H1725 H 0.09495 0.54869 0.61313 0.0
H1726 H 0.01697 0.50232 0.47453 0.0
H1727 H 0.05949 0.45158 0.54857 0.0
H1728 H 0.10579 0.51944 0.61087 0.0
H1729 H 0.10229 0.4883 0.59621 0.0
H1730 H 1.00251 0.6024 0.50601 0.0
H1731 H 0.08522 0.46297 0.57289 0.0
H1732 H 0.96844 0.50499 0.44182 0.0
N1733 N 0.01055 0.56055 0.49592 0.0
C1734 C 0.99646 0.55381 0.48272 0.0
C1735 C 1.00055 0.58871 0.49942 0.0
C1736 C 0.98358 0.56418 0.47756 0.0
C1737 C 0.01289 0.57785 0.5041 0.0
C1738 C 0.98575 0.58181 0.48616 0.0
N1739 N 0.0077 0.52698 0.47998 0.0
C1740 C 0.00691 0.51 0.47135 0.0
C1741 C 0.98041 0.52884 0.46071 0.0
C1742 C 0.99495 0.53643 0.47446 0.0
C1743 C 0.97938 0.51131 0.45242 0.0
C1744 C 0.99278 0.50193 0.45766 0.0
H1745 H 0.97617 0.59022 0.48257 0.0
H1746 H 0.95892 0.56435 0.45994 0.0
H1747 H 0.95613 0.53334 0.44518 0.0
O1748 O 0.04861 0.54053 0.48475 0.0
O1749 O 1.00363 0.53295 0.51291 0.0
O1750 O 0.01509 0.5122 0.5267 0.0
O1751 O 0.04605 0.56597 0.49882 0.0
O1752 O 0.03784 0.51487 0.49913 0.0
O1753 O 0.03306 0.4969 0.52386 0.0
O1754 O 0.01716 0.51456 0.57352 0.0
O1755 O 0.0604 0.524 0.54572 0.0
O1756 O 0.04247 0.53425 0.52723 0.0
O1757 O 0.018 0.48899 0.55766 0.0
O1758 O 0.0248 0.54007 0.55495 0.0
O1759 O 0.03267 0.55843 0.53117 0.0
C1760 C 1.00229 0.5213 0.52489 0.0
C1761 C 0.0537 0.5654 0.46815 0.0
C1762 C 0.06366 0.56436 0.43768 0.0
C1763 C 0.05491 0.57844 0.43364 0.0
C1764 C 0.04477 0.57944 0.46406 0.0
C1765 C 0.04544 0.58592 0.44683 0.0
C1766 C 0.06313 0.55796 0.45488 0.0
C1767 C 0.03696 0.4993 0.50656 0.0
C1768 C 0.05334 0.55797 0.48589 0.0
C1769 C 0.969 0.55664 0.46404 0.0
C1770 C 0.96741 0.53899 0.45564 0.0
C1771 C 0.05895 0.53351 0.53239 0.0
C1772 C 0.99846 0.48732 0.58175 0.0
C1773 C 0.98208 0.48599 0.6087 0.0
C1774 C 0.97353 0.46818 0.602 0.0
C1775 C 0.98997 0.46948 0.57537 0.0
C1776 C 0.99446 0.49557 0.59838 0.0
C1777 C 0.97751 0.46 0.58544 0.0
C1778 C 0.0273 0.55596 0.54791 0.0
C1779 C 0.01143 0.49718 0.57095 0.0
H1780 H 0.05535 0.58353 0.42032 0.0
H1781 H 0.0373 0.58536 0.47407 0.0
H1782 H 0.03859 0.59674 0.4437 0.0
H1783 H 0.07008 0.54713 0.45792 0.0
H1784 H 0.96363 0.46062 0.60948 0.0
H1785 H 0.99293 0.46292 0.56255 0.0
H1786 H 1.00119 0.50927 0.60346 0.0
H1787 H 0.97088 0.4463 0.58037 0.0
Tb1788 Tb 0.79834 0.76938 0.27409 0.0
C1789 C 0.73374 0.79575 0.23269 0.0
N1790 N 0.74452 0.80374 0.24838 0.0
C1791 C 0.74613 0.83266 0.23738 0.0
C1792 C 0.7288 0.80596 0.21864 0.0
C1793 C 0.75048 0.82201 0.25106 0.0
C1794 C 0.7353 0.82461 0.22108 0.0
C1795 C 0.71596 0.76849 0.21498 0.0
C1796 C 0.72758 0.7772 0.23074 0.0
C1797 C 0.71098 0.77862 0.20094 0.0
C1798 C 0.71748 0.79728 0.20272 0.0
Tb1799 Tb 0.75048 0.78464 0.26936 0.0
N1800 N 0.73318 0.76769 0.2443 0.0
C1801 C 0.70949 0.7499 0.21395 0.0
C1802 C 0.72646 0.7497 0.24362 0.0
C1803 C 0.71474 0.74049 0.22834 0.0
H1804 H 0.75826 0.82852 0.26387 0.0
H1805 H 0.70946 0.72619 0.22785 0.0
H1806 H 0.78989 0.72644 0.2829 0.0
H1807 H 0.84274 0.82869 0.31062 0.0
H1808 H 0.72959 0.74248 0.25501 0.0
H1809 H 0.70008 0.74278 0.20239 0.0
H1810 H 0.8222 0.811 0.28446 0.0
H1811 H 0.75097 0.8471 0.23952 0.0
H1812 H 0.70209 0.77216 0.18869 0.0
H1813 H 0.71353 0.80491 0.19177 0.0
H1814 H 0.79755 0.70939 0.30837 0.0
H1815 H 0.73186 0.83293 0.21058 0.0
H1816 H 0.85147 0.81397 0.33788 0.0
N1817 N 0.80438 0.75176 0.29662 0.0
C1818 C 0.81587 0.76036 0.31158 0.0
C1819 C 0.80262 0.72375 0.30956 0.0
C1820 C 0.821 0.75097 0.32628 0.0
C1821 C 0.79803 0.73358 0.29524 0.0
C1822 C 0.81406 0.73248 0.3252 0.0
N1823 N 0.8171 0.78728 0.2977 0.0
C1824 C 0.82474 0.8048 0.29675 0.0
C1825 C 0.83488 0.78801 0.32708 0.0
C1826 C 0.82258 0.77868 0.31207 0.0
C1827 C 0.84185 0.80633 0.32671 0.0
C1828 C 0.83688 0.81472 0.31138 0.0
H1829 H 0.81769 0.72477 0.3362 0.0
H1830 H 0.83726 0.75328 0.3528 0.0
H1831 H 0.8498 0.78556 0.35318 0.0
O1832 O 0.82066 0.77837 0.25866 0.0
O1833 O 0.78703 0.777 0.30036 0.0
O1834 O 0.76866 0.79739 0.29418 0.0
O1835 O 0.81536 0.75177 0.26762 0.0
O1836 O 0.79558 0.79402 0.26105 0.0
O1837 O 0.77431 0.80662 0.27547 0.0
O1838 O 0.72921 0.77387 0.28438 0.0
O1839 O 0.76217 0.77736 0.2433 0.0
O1840 O 0.77962 0.75647 0.24982 0.0
O1841 O 0.73054 0.7997 0.27476 0.0
O1842 O 0.75295 0.76012 0.28252 0.0
O1843 O 0.77439 0.74736 0.26877 0.0
C1844 C 0.77835 0.7898 0.30592 0.0
C1845 C 0.84184 0.75755 0.25133 0.0
C1846 C 0.86793 0.76151 0.23321 0.0
C1847 C 0.87122 0.74476 0.2376 0.0
C1848 C 0.84585 0.74086 0.25529 0.0
C1849 C 0.86032 0.7346 0.24852 0.0
C1850 C 0.85315 0.76807 0.24022 0.0
C1851 C 0.78914 0.80816 0.26718 0.0
C1852 C 0.82581 0.76298 0.25918 0.0
C1853 C 0.83307 0.76027 0.34141 0.0
C1854 C 0.84011 0.7787 0.34172 0.0
C1855 C 0.77059 0.76436 0.23791 0.0
C1856 C 0.71555 0.7951 0.30149 0.0
C1857 C 0.69184 0.79573 0.32228 0.0
C1858 C 0.70267 0.8113 0.3324 0.0
C1859 C 0.72599 0.81053 0.31212 0.0
C1860 C 0.69848 0.78751 0.30681 0.0
C1861 C 0.7196 0.81851 0.32745 0.0
C1862 C 0.7596 0.74594 0.2771 0.0
C1863 C 0.72175 0.78795 0.28406 0.0
H1864 H 0.88236 0.73948 0.23248 0.0
H1865 H 0.83773 0.73244 0.26373 0.0
H1866 H 0.86309 0.72172 0.25173 0.0
H1867 H 0.8504 0.78094 0.2369 0.0
H1868 H 0.69804 0.81789 0.34432 0.0
H1869 H 0.73897 0.81668 0.30832 0.0
H1870 H 0.69019 0.77569 0.29862 0.0
H1871 H 0.72773 0.83051 0.33543 0.0
Tb1872 Tb 0.76771 0.27389 0.79438 0.0
C1873 C 0.81298 0.24545 0.72569 0.0
N1874 N 0.81854 0.2582 0.74052 0.0
C1875 C 0.84643 0.24772 0.74544 0.0
C1876 C 0.82362 0.23283 0.72064 0.0
C1877 C 0.83528 0.25979 0.75006 0.0
C1878 C 0.84049 0.23404 0.73081 0.0
C1879 C 0.78964 0.23136 0.70085 0.0
C1880 C 0.79634 0.24484 0.71581 0.0
C1881 C 0.80005 0.21858 0.69591 0.0
C1882 C 0.81703 0.21934 0.70576 0.0
Tb1883 Tb 0.79857 0.27631 0.74784 0.0
N1884 N 0.78626 0.25686 0.72168 0.0
C1885 C 0.77254 0.23094 0.69153 0.0
C1886 C 0.76995 0.25701 0.71197 0.0
C1887 C 0.76277 0.24395 0.69701 0.0
H1888 H 0.84029 0.27055 0.76104 0.0
H1889 H 0.74966 0.24393 0.68975 0.0
H1890 H 0.72679 0.28014 0.78092 0.0
H1891 H 0.81678 0.30622 0.85292 0.0
H1892 H 0.76229 0.26708 0.7155 0.0
H1893 H 0.76683 0.22073 0.68005 0.0
H1894 H 0.8041 0.28293 0.82753 0.0
H1895 H 0.85961 0.24901 0.75316 0.0
H1896 H 0.79506 0.20803 0.68456 0.0
H1897 H 0.82493 0.20941 0.7018 0.0
H1898 H 0.70753 0.30191 0.78849 0.0
H1899 H 0.84909 0.22461 0.72737 0.0
H1900 H 0.80018 0.33019 0.86166 0.0
N1901 N 0.74842 0.29256 0.80149 0.0
C1902 C 0.75431 0.30574 0.81578 0.0
C1903 C 0.72072 0.30322 0.79623 0.0
C1904 C 0.74376 0.3185 0.82065 0.0
C1905 C 0.73175 0.29096 0.79187 0.0
C1906 C 0.7268 0.31715 0.8106 0.0
N1907 N 0.78067 0.2938 0.82013 0.0
C1908 C 0.79671 0.2934 0.8303 0.0
C1909 C 0.77774 0.31995 0.84036 0.0
C1910 C 0.77105 0.30645 0.8254 0.0
C1911 C 0.79454 0.32003 0.85011 0.0
C1912 C 0.80396 0.30657 0.84516 0.0
H1913 H 0.71826 0.32667 0.81391 0.0
H1914 H 0.74258 0.3421 0.83928 0.0
H1915 H 0.77225 0.34323 0.85672 0.0
O1916 O 0.76831 0.25333 0.81117 0.0
O1917 O 0.77552 0.30073 0.78667 0.0
O1918 O 0.79894 0.29258 0.77411 0.0
O1919 O 0.74316 0.25641 0.79676 0.0
O1920 O 0.79507 0.2667 0.79907 0.0
O1921 O 0.81384 0.27475 0.77567 0.0
O1922 O 0.79707 0.29679 0.7307 0.0
O1923 O 0.78548 0.24851 0.74894 0.0
O1924 O 0.77836 0.26419 0.77143 0.0
O1925 O 0.82271 0.2917 0.74175 0.0
O1926 O 0.77074 0.28344 0.74492 0.0
O1927 O 0.75193 0.27058 0.76633 0.0
C1928 C 0.78886 0.30446 0.77678 0.0
C1929 C 0.74328 0.24793 0.82715 0.0
C1930 C 0.74731 0.24145 0.85892 0.0
C1931 C 0.73356 0.25067 0.86313 0.0
C1932 C 0.72942 0.25707 0.83137 0.0
C1933 C 0.72448 0.25823 0.8493 0.0
C1934 C 0.75176 0.23971 0.84087 0.0
C1935 C 0.81102 0.26905 0.79223 0.0
C1936 C 0.75081 0.24854 0.80947 0.0
C1937 C 0.75045 0.33213 0.83535 0.0
C1938 C 0.76739 0.33281 0.84523 0.0
C1939 C 0.77722 0.24834 0.76325 0.0
C1940 C 0.82094 0.30153 0.71214 0.0
C1941 C 0.81846 0.31237 0.682 0.0
C1942 C 0.83342 0.30506 0.67758 0.0
C1943 C 0.83596 0.29431 0.7076 0.0
C1944 C 0.81235 0.31065 0.69931 0.0
C1945 C 0.84214 0.29612 0.69038 0.0
C1946 C 0.75448 0.27811 0.7507 0.0
C1947 C 0.8145 0.30042 0.73037 0.0
H1948 H 0.72983 0.25194 0.87706 0.0
H1949 H 0.72272 0.26364 0.82102 0.0
H1950 H 0.71387 0.26533 0.85257 0.0
H1951 H 0.76255 0.23273 0.83773 0.0
H1952 H 0.83855 0.30659 0.66438 0.0
H1953 H 0.84302 0.28738 0.71733 0.0
H1954 H 0.80088 0.31642 0.70278 0.0
H1955 H 0.8538 0.2907 0.68701 0.0
Tb1956 Tb 0.76818 0.75575 0.76169 0.0
C1957 C 0.82769 0.81625 0.80477 0.0
N1958 N 0.81208 0.80698 0.8097 0.0
C1959 C 0.82711 0.80571 0.8399 0.0
C1960 C 0.8437 0.82045 0.8172 0.0
C1961 C 0.81154 0.80195 0.82714 0.0
C1962 C 0.84328 0.81495 0.8349 0.0
C1963 C 0.84333 0.83169 0.78169 0.0
C1964 C 0.82752 0.82174 0.78719 0.0
C1965 C 0.85935 0.83575 0.79397 0.0
C1966 C 0.85954 0.83015 0.81168 0.0
Tb1967 Tb 0.78741 0.80264 0.78789 0.0
N1968 N 0.81174 0.8176 0.77566 0.0
C1969 C 0.84246 0.83766 0.76418 0.0
C1970 C 0.81058 0.82463 0.75919 0.0
C1971 C 0.82594 0.83431 0.75298 0.0
H1972 H 0.79902 0.79567 0.83161 0.0
H1973 H 0.82492 0.83957 0.73977 0.0
H1974 H 0.75737 0.76303 0.71781 0.0
H1975 H 0.7293 0.7199 0.80955 0.0
H1976 H 0.7978 0.82366 0.75111 0.0
H1977 H 0.85429 0.84538 0.75944 0.0
H1978 H 0.75676 0.73578 0.79877 0.0
H1979 H 0.82655 0.80173 0.85369 0.0
H1980 H 0.87162 0.84341 0.78999 0.0
H1981 H 0.87196 0.83354 0.82106 0.0
H1982 H 0.73026 0.75676 0.69521 0.0
H1983 H 0.85528 0.81797 0.84488 0.0
H1984 H 0.70038 0.71367 0.78908 0.0
N1985 N 0.74386 0.75168 0.73948 0.0
C1986 C 0.72813 0.74233 0.74409 0.0
C1987 C 0.72942 0.75283 0.70899 0.0
C1988 C 0.71234 0.73807 0.73134 0.0
C1989 C 0.74475 0.75672 0.72206 0.0
C1990 C 0.71313 0.74352 0.71365 0.0
N1991 N 0.74348 0.74109 0.77354 0.0
C1992 C 0.74419 0.73448 0.79024 0.0
C1993 C 0.71194 0.72699 0.7669 0.0
C1994 C 0.72793 0.73685 0.76166 0.0
C1995 C 0.71237 0.72129 0.78453 0.0
C1996 C 0.72863 0.72489 0.79617 0.0
H1997 H 0.70132 0.7404 0.70343 0.0
H1998 H 0.68411 0.7249 0.72692 0.0
H1999 H 0.68375 0.71524 0.75806 0.0
O2000 O 0.77762 0.73212 0.76721 0.0
O2001 O 0.74702 0.77182 0.76923 0.0
O2002 O 0.76033 0.79077 0.7952 0.0
O2003 O 0.76672 0.73583 0.73937 0.0
O2004 O 0.78247 0.75676 0.79002 0.0
O2005 O 0.77706 0.78245 0.80544 0.0
O2006 O 0.7777 0.82595 0.78233 0.0
O2007 O 0.80841 0.7863 0.78109 0.0
O2008 O 0.79544 0.76778 0.75475 0.0
O2009 O 0.7888 0.82264 0.81026 0.0
O2010 O 0.77309 0.80133 0.75946 0.0
O2011 O 0.77891 0.77585 0.74415 0.0
C2012 C 0.7456 0.78223 0.78447 0.0
C2013 C 0.77716 0.70806 0.74246 0.0
C2014 C 0.79186 0.6828 0.74633 0.0
C2015 C 0.78703 0.67651 0.72751 0.0
C2016 C 0.77216 0.7016 0.72364 0.0
C2017 C 0.77705 0.68583 0.71624 0.0
C2018 C 0.78676 0.69843 0.75382 0.0
C2019 C 0.78049 0.76621 0.80553 0.0
C2020 C 0.77395 0.72563 0.7498 0.0
C2021 C 0.69636 0.72834 0.73655 0.0
C2022 C 0.69615 0.72285 0.75429 0.0
C2023 C 0.81003 0.77624 0.76574 0.0
C2024 C 0.77787 0.85015 0.80662 0.0
C2025 C 0.76601 0.87673 0.80076 0.0
C2026 C 0.76969 0.88313 0.81967 0.0
C2027 C 0.78144 0.85651 0.82555 0.0
C2028 C 0.77007 0.86027 0.79432 0.0
C2029 C 0.77734 0.87298 0.83203 0.0
C2030 C 0.77554 0.79209 0.74401 0.0
C2031 C 0.78138 0.83262 0.79968 0.0
H2032 H 0.79082 0.66432 0.72162 0.0
H2033 H 0.7648 0.7089 0.71457 0.0
H2034 H 0.77327 0.68095 0.70173 0.0
H2035 H 0.79083 0.70335 0.76833 0.0
H2036 H 0.7664 0.89581 0.82488 0.0
H2037 H 0.78724 0.84873 0.83534 0.0
H2038 H 0.76715 0.85542 0.77969 0.0
H2039 H 0.77999 0.87782 0.84663 0.0
Tb2040 Tb 0.54942 0.53487 0.53492 0.0
C2041 C 0.48714 0.47421 0.49304 0.0
N2042 N 0.49693 0.48939 0.48782 0.0
C2043 C 0.49813 0.47335 0.45811 0.0
C2044 C 0.48282 0.4579 0.48112 0.0
C2045 C 0.50199 0.4892 0.47038 0.0
C2046 C 0.48864 0.45757 0.46355 0.0
C2047 C 0.47021 0.45999 0.51596 0.0
C2048 C 0.48097 0.47522 0.51024 0.0
C2049 C 0.46617 0.44365 0.5043 0.0
C2050 C 0.47249 0.44258 0.48693 0.0
Tb2051 Tb 0.50135 0.51482 0.50879 0.0
N2052 N 0.48514 0.4913 0.52116 0.0
C2053 C 0.46341 0.46181 0.533 0.0
C2054 C 0.47735 0.49337 0.53705 0.0
C2055 C 0.46675 0.47868 0.54341 0.0
H2056 H 0.50821 0.50135 0.4655 0.0
H2057 H 0.46075 0.48058 0.55607 0.0
H2058 H 0.542 0.5441 0.57924 0.0
H2059 H 0.58255 0.57667 0.48761 0.0
H2060 H 0.47842 0.50643 0.54441 0.0
H2061 H 0.45504 0.45047 0.53789 0.0
H2062 H 0.56429 0.54951 0.49639 0.0
H2063 H 0.50216 0.47343 0.44431 0.0
H2064 H 0.45784 0.43186 0.50844 0.0
H2065 H 0.46904 0.42994 0.47797 0.0
H2066 H 0.55047 0.56962 0.60347 0.0
H2067 H 0.48549 0.44535 0.45393 0.0
H2068 H 0.59377 0.60313 0.51098 0.0
N2069 N 0.5542 0.55814 0.55837 0.0
C2070 C 0.56476 0.57365 0.55476 0.0
C2071 C 0.55439 0.57102 0.58976 0.0
C2072 C 0.57055 0.58845 0.56857 0.0
C2073 C 0.54916 0.55662 0.57572 0.0
C2074 C 0.56514 0.587 0.58619 0.0
N2075 N 0.56384 0.56024 0.5241 0.0
C2076 C 0.56843 0.56087 0.50657 0.0
C2077 C 0.58094 0.59048 0.53289 0.0
C2078 C 0.56995 0.57463 0.53716 0.0
C2079 C 0.58544 0.59119 0.51484 0.0
C2080 C 0.57907 0.57633 0.5016 0.0
H2081 H 0.56937 0.59804 0.59719 0.0
H2082 H 0.58638 0.61557 0.57492 0.0
H2083 H 0.59539 0.61737 0.54364 0.0
O2084 O 0.57374 0.52734 0.52846 0.0
O2085 O 0.53361 0.55574 0.52666 0.0
O2086 O 0.51311 0.54192 0.50164 0.0
O2087 O 0.56932 0.5352 0.557 0.0
O2088 O 0.5482 0.5205 0.50677 0.0
O2089 O 0.52176 0.52396 0.49063 0.0
O2090 O 0.47826 0.52525 0.51384 0.0
O2091 O 0.51618 0.49369 0.51802 0.0
O2092 O 0.53962 0.50692 0.54076 0.0
O2093 O 0.48125 0.5129 0.48631 0.0
O2094 O 0.50331 0.52914 0.53719 0.0
O2095 O 0.52923 0.5239 0.55244 0.0
C2096 C 0.52212 0.55668 0.512 0.0
C2097 C 0.59789 0.52682 0.55286 0.0
C2098 C 0.62256 0.51137 0.54877 0.0
C2099 C 0.62947 0.51661 0.5674 0.0
C2100 C 0.6049 0.5322 0.5715 0.0
C2101 C 0.62072 0.52718 0.57868 0.0
C2102 C 0.607 0.51672 0.54144 0.0
C2103 C 0.53854 0.52162 0.49106 0.0
C2104 C 0.58003 0.52966 0.54597 0.0
C2105 C 0.5817 0.60413 0.56444 0.0
C2106 C 0.58687 0.60514 0.54665 0.0
C2107 C 0.52893 0.49253 0.53133 0.0
C2108 C 0.45381 0.52427 0.48945 0.0
C2109 C 0.42723 0.5365 0.4948 0.0
C2110 C 0.4206 0.53196 0.476 0.0
C2111 C 0.44719 0.51984 0.47063 0.0
C2112 C 0.44379 0.5326 0.50144 0.0
C2113 C 0.43061 0.52369 0.46396 0.0
C2114 C 0.51256 0.52628 0.5525 0.0
C2115 C 0.47136 0.52079 0.49661 0.0
H2116 H 0.64162 0.51257 0.57314 0.0
H2117 H 0.59796 0.53992 0.5806 0.0
H2118 H 0.62603 0.53122 0.59306 0.0
H2119 H 0.60157 0.51225 0.52712 0.0
H2120 H 0.40787 0.53508 0.4706 0.0
H2121 H 0.45484 0.51353 0.46107 0.0
H2122 H 0.44881 0.53604 0.51601 0.0
H2123 H 0.42557 0.52036 0.44944 0.0
Tb2124 Tb 1.00428 0.52728 0.03409 0.0
C2125 C 0.06948 0.56778 0.99702 0.0
N2126 N 0.05792 0.55175 0.9914 0.0
C2127 C 0.05499 0.55952 0.96029 0.0
C2128 C 0.07375 0.58051 0.98451 0.0
C2129 C 0.05128 0.54722 0.97309 0.0
C2130 C 0.06613 0.57629 0.96604 0.0
C2131 C 0.08934 0.58788 0.02162 0.0
C2132 C 0.07738 0.57142 0.01538 0.0
C2133 C 0.09342 0.60061 0.0092 0.0
C2134 C 0.08566 0.59693 0.99071 0.0
Tb2135 Tb 0.05431 0.53308 0.01411 0.0
N2136 N 0.07286 0.55902 0.02727 0.0
C2137 C 0.09683 0.59106 0.04019 0.0
C2138 C 0.08053 0.5618 0.04519 0.0
C2139 C 0.09247 0.57791 0.05196 0.0
H2140 H 0.04356 0.53398 0.96797 0.0
H2141 H 0.09839 0.58006 0.0662 0.0
H2142 H 0.01186 0.52628 0.08019 0.0
H2143 H 0.95576 0.48544 0.98177 0.0
H2144 H 0.0776 0.55159 0.05419 0.0
H2145 H 0.10609 0.60354 0.04553 0.0
H2146 H 0.9792 0.51207 0.99451 0.0
H2147 H 0.04952 0.55591 0.9459 0.0
H2148 H 0.1026 0.61333 0.01374 0.0
H2149 H 0.08906 0.60685 0.98127 0.0
H2150 H 1.00382 0.50448 0.10212 0.0
H2151 H 0.0691 0.58571 0.95601 0.0
H2152 H 0.94604 0.46177 1.00173 0.0
N2153 N 0.99784 0.50889 0.05651 0.0
C2154 C 0.98557 0.49342 0.05053 0.0
C2155 C 0.99883 0.50108 0.08759 0.0
C2156 C 0.97983 0.48095 0.06284 0.0
C2157 C 1.00377 0.51325 0.07496 0.0
C2158 C 0.987 0.48475 0.08148 0.0
N2159 N 0.98399 0.50263 0.02052 0.0
C2160 C 0.97569 0.50139 0.00291 0.0
C2161 C 0.96433 0.47527 0.02569 0.0
C2162 C 0.97798 0.49049 0.03213 0.0
C2163 C 0.95656 0.47328 0.00722 0.0
C2164 C 0.96212 0.48652 0.99586 0.0
H2165 H 0.98298 0.47548 0.09137 0.0
H2166 H 0.96227 0.45561 0.06557 0.0
H2167 H 0.94865 0.45071 0.03308 0.0
O2168 O 0.98554 0.54146 0.02174 0.0
O2169 O 0.01086 0.50141 0.02116 0.0
O2170 O 0.03952 0.50491 0.01078 0.0
O2171 O 0.98352 0.5334 0.04895 0.0
O2172 O 0.01353 0.5386 0.00991 0.0
O2173 O 0.0311 0.52375 0.99384 0.0
O2174 O 0.07894 0.52495 0.02384 0.0
O2175 O 0.04467 0.55828 0.02484 0.0
O2176 O 0.02248 0.55323 0.0451 0.0
O2177 O 0.06961 0.52397 0.9945 0.0
O2178 O 0.04669 0.52043 0.03831 0.0
O2179 O 0.02783 0.53357 0.05499 0.0
C2180 C 0.02405 0.49483 0.01374 0.0
C2181 C 0.97039 0.55825 0.04232 0.0
C2182 C 0.94722 0.57679 0.04055 0.0
C2183 C 0.9562 0.58757 0.05663 0.0
C2184 C 0.97921 0.56938 0.05827 0.0
C2185 C 0.97208 0.58389 0.06539 0.0
C2186 C 0.95433 0.56203 0.03344 0.0
C2187 C 0.01578 0.52885 0.99507 0.0
C2188 C 0.97659 0.54159 0.03607 0.0
C2189 C 0.96675 0.46538 0.05631 0.0
C2190 C 0.95895 0.46261 0.03782 0.0
C2191 C 0.03467 0.56415 0.03735 0.0
C2192 C 0.09783 0.51422 1.00075 0.0
C2193 C 0.12206 0.49707 0.00436 0.0
C2194 C 0.12626 0.50036 0.98657 0.0
C2195 C 0.10246 0.51727 0.98299 0.0
C2196 C 0.10774 0.50402 0.01153 0.0
C2197 C 0.11652 0.51037 0.976 0.0
C2198 C 0.04339 0.5286 0.0537 0.0
C2199 C 0.08181 0.52076 0.00679 0.0
H2200 H 0.9508 0.5988 0.06249 0.0
H2201 H 0.99138 0.5666 0.06548 0.0
H2202 H 0.97879 0.59222 0.07788 0.0
H2203 H 0.94726 0.55334 0.02134 0.0
H2204 H 0.13708 0.49502 0.98079 0.0
H2205 H 0.09508 0.52491 0.97434 0.0
H2206 H 0.10423 0.50132 0.02514 0.0
H2207 H 0.11983 0.51272 0.96225 0.0
H2208 H 0.00551 0.2004 0.92587 0.0
H2209 H 0.00929 0.17178 0.93691 0.0
H2210 H 0.00663 0.19411 0.99281 0.0
H2211 H 1.00416 0.22307 0.98183 0.0
H2212 H 0.02743 0.17409 0.99757 0.0
H2213 H 0.97023 0.1581 0.95972 0.0
H2214 H 0.94879 0.15522 0.93145 0.0
H2215 H 0.98078 0.12385 0.90185 0.0
H2216 H 1.00248 0.12668 0.92991 0.0
H2217 H 0.02063 0.08829 0.03377 0.0
H2218 H 0.01667 0.11712 0.02366 0.0
H2219 H 0.01703 0.0955 0.96695 0.0
H2220 H 0.01909 0.06614 0.97713 0.0
H2221 H 0.99669 0.11544 0.96319 0.0
H2222 H 0.05596 0.13566 1.00157 0.0
H2223 H 0.07697 0.14032 0.03025 0.0
H2224 H 0.03874 0.16264 0.06015 0.0
H2225 H 0.01793 0.15918 0.03129 0.0
C2226 C 0.00565 0.19927 0.94053 0.0
C2227 C 1.00436 0.21441 0.95278 0.0
C2228 C 0.00763 0.18256 0.94696 0.0
C2229 C 0.00781 0.17988 0.96593 0.0
C2230 C 0.00658 0.19514 0.97814 0.0
C2231 C 0.00503 0.21195 0.97176 0.0
C2232 C 0.00964 0.16166 0.97313 0.0
C2233 C 0.02043 0.16136 0.98997 0.0
C2234 C 1.00101 0.14444 0.96368 0.0
C2235 C 0.98805 0.14276 0.94683 0.0
C2236 C 0.97273 0.15068 0.94714 0.0
C2237 C 0.96053 0.14904 0.93117 0.0
C2238 C 0.96345 0.13941 0.91485 0.0
C2239 C 0.97855 0.13134 0.91448 0.0
C2240 C 0.99079 0.13294 0.93042 0.0
C2241 C 0.01985 0.08964 0.01912 0.0
C2242 C 0.02007 0.07451 0.0064 0.0
C2243 C 0.0179 0.10653 0.0132 0.0
C2244 C 0.01697 0.1095 0.99426 0.0
C2245 C 0.01752 0.09428 0.98161 0.0
C2246 C 0.0188 0.07722 0.9875 0.0
C2247 C 0.01479 0.12782 0.98744 0.0
C2248 C 1.00382 0.12815 0.97071 0.0
C2249 C 0.02307 0.14508 0.9971 0.0
C2250 C 0.03535 0.14692 0.0144 0.0
C2251 C 0.05203 0.14148 0.01429 0.0
C2252 C 0.0639 0.14392 0.03058 0.0
C2253 C 0.05905 0.15132 0.04715 0.0
C2254 C 0.04244 0.15676 0.04736 0.0
C2255 C 0.0307 0.15477 0.031 0.0
H2256 H 0.06823 0.15303 0.05978 0.0
H2257 H 0.95399 0.13816 0.90249 0.0
H2258 H 0.12197 0.79656 0.12257 0.0
H2259 H 0.15053 0.79603 0.14125 0.0
H2260 H 0.1217 0.78586 0.18842 0.0
H2261 H 0.09369 0.78804 0.17025 0.0
H2262 H 0.14966 0.80357 0.20276 0.0
H2263 H 0.14234 0.75264 0.15638 0.0
H2264 H 0.13864 0.73611 0.12507 0.0
H2265 H 0.18817 0.76839 0.11351 0.0
H2266 H 0.19204 0.78525 0.14467 0.0
H2267 H 0.21807 0.76574 0.25243 0.0
H2268 H 0.19113 0.76985 0.23342 0.0
H2269 H 0.22466 0.79896 0.19765 0.0
H2270 H 0.25181 0.79578 0.21726 0.0
H2271 H 0.19581 0.77281 0.17777 0.0
H2272 H 0.20328 0.8211 0.22722 0.0
H2273 H 0.20675 0.83413 0.25989 0.0
H2274 H 0.15537 0.80233 0.26699 0.0
H2275 H 0.15176 0.78882 0.23446 0.0
C2276 C 0.12176 0.79435 0.13697 0.0
C2277 C 0.10532 0.79245 0.14477 0.0
C2278 C 0.13822 0.79376 0.14774 0.0
C2279 C 0.13878 0.79041 0.16653 0.0
C2280 C 0.12223 0.78855 0.17419 0.0
C2281 C 0.10598 0.78975 0.16363 0.0
C2282 C 0.15628 0.78902 0.17835 0.0
C2283 C 0.15947 0.79653 0.19714 0.0
C2284 C 0.16982 0.78024 0.17156 0.0
C2285 C 0.16735 0.77034 0.15275 0.0
C2286 C 0.15235 0.75631 0.14709 0.0
C2287 C 0.15024 0.74687 0.12939 0.0
C2288 C 0.16313 0.75124 0.11729 0.0
C2289 C 0.17817 0.76505 0.12287 0.0
C2290 C 0.18033 0.77455 0.14055 0.0
C2291 C 0.21989 0.77344 0.24084 0.0
C2292 C 0.23746 0.78069 0.23683 0.0
C2293 C 0.20429 0.77564 0.22976 0.0
C2294 C 0.20557 0.78486 0.21397 0.0
C2295 C 0.22306 0.79182 0.20969 0.0
C2296 C 0.23869 0.78996 0.221 0.0
C2297 C 0.18877 0.78705 0.20192 0.0
C2298 C 0.18582 0.77975 0.1832 0.0
C2299 C 0.17524 0.79556 0.2089 0.0
C2300 C 0.17733 0.80382 0.22842 0.0
C2301 C 0.19279 0.81677 0.23578 0.0
C2302 C 0.19477 0.82426 0.25427 0.0
C2303 C 0.1813 0.81904 0.26551 0.0
C2304 C 0.1658 0.80635 0.25827 0.0
C2305 C 0.16378 0.79877 0.2398 0.0
H2306 H 0.18286 0.82486 0.27982 0.0
H2307 H 0.16148 0.7439 0.1036 0.0
H2308 H 0.513 0.83736 0.42874 0.0
H2309 H 0.51512 0.86728 0.44363 0.0
H2310 H 0.5127 0.84711 0.49654 0.0
H2311 H 0.50946 0.81593 0.48117 0.0
H2312 H 0.49437 0.87453 0.49577 0.0
H2313 H 0.55426 0.87146 0.48157 0.0
H2314 H 0.57705 0.86438 0.46164 0.0
H2315 H 0.56138 0.90008 0.42381 0.0
H2316 H 0.53839 0.90724 0.44342 0.0
H2317 H 0.51515 0.96848 0.53492 0.0
H2318 H 0.51362 0.93618 0.52698 0.0
H2319 H 0.5251 0.94567 0.47171 0.0
H2320 H 0.52814 0.978 0.48023 0.0
H2321 H 0.54125 0.92235 0.47801 0.0
H2322 H 0.47865 0.9219 0.48884 0.0
H2323 H 0.45472 0.92848 0.50743 0.0
H2324 H 0.47492 0.90037 0.55059 0.0
H2325 H 0.49883 0.89341 0.53208 0.0
C2326 C 0.51301 0.83885 0.44361 0.0
C2327 C 0.51125 0.82358 0.45352 0.0
C2328 C 0.51438 0.85642 0.45225 0.0
C2329 C 0.51472 0.86011 0.47149 0.0
C2330 C 0.51273 0.84501 0.48169 0.0
C2331 C 0.51099 0.82703 0.47286 0.0
C2332 C 0.51709 0.87971 0.48026 0.0
C2333 C 0.50483 0.88489 0.49206 0.0
C2334 C 0.53046 0.89378 0.47549 0.0
C2335 C 0.54457 0.88982 0.46393 0.0
C2336 C 0.55566 0.87777 0.46898 0.0
C2337 C 0.56861 0.87374 0.45774 0.0
C2338 C 0.57065 0.88176 0.44146 0.0
C2339 C 0.5598 0.89389 0.43643 0.0
C2340 C 0.54685 0.89797 0.44762 0.0
C2341 C 0.51725 0.96368 0.52103 0.0
C2342 C 0.5218 0.97614 0.5083 0.0
C2343 C 0.51617 0.94492 0.51632 0.0
C2344 C 0.51885 0.9377 0.49842 0.0
C2345 C 0.52303 0.95029 0.48566 0.0
C2346 C 0.52468 0.96903 0.49054 0.0
C2347 C 0.51802 0.91746 0.49291 0.0
C2348 C 0.53072 0.91209 0.48177 0.0
C2349 C 0.50498 0.90332 0.49818 0.0
C2350 C 0.49055 0.90726 0.50917 0.0
C2351 C 0.47797 0.91715 0.5023 0.0
C2352 C 0.46442 0.92093 0.51282 0.0
C2353 C 0.46336 0.91495 0.53024 0.0
C2354 C 0.47576 0.90502 0.53711 0.0
C2355 C 0.48925 0.90106 0.52658 0.0
H2356 H 0.4529 0.91796 0.53841 0.0
H2357 H 0.58065 0.87859 0.43275 0.0
H2358 H 0.48012 0.27458 0.61386 0.0
H2359 H 0.45582 0.2744 0.63319 0.0
H2360 H 0.49469 0.29506 0.68099 0.0
H2361 H 0.51941 0.29471 0.66161 0.0
H2362 H 0.46904 0.27042 0.69048 0.0
H2363 H 0.46747 0.32204 0.65815 0.0
H2364 H 0.46674 0.33848 0.6307 0.0
H2365 H 0.41613 0.30427 0.60824 0.0
H2366 H 0.41668 0.28746 0.63544 0.0
H2367 H 0.39967 0.28257 0.7457 0.0
H2368 H 0.42568 0.29092 0.72859 0.0
H2369 H 0.39218 0.26944 0.67732 0.0
H2370 H 0.36617 0.26147 0.69446 0.0
H2371 H 0.41644 0.29739 0.6712 0.0
H2372 H 0.41892 0.24455 0.70177 0.0
H2373 H 0.41945 0.22719 0.72855 0.0
H2374 H 0.46822 0.26297 0.75371 0.0
H2375 H 0.4678 0.28073 0.7272 0.0
C2376 C 0.48366 0.27919 0.62847 0.0
C2377 C 0.50192 0.28483 0.63602 0.0
C2378 C 0.4696 0.27918 0.63958 0.0
C2379 C 0.47317 0.28513 0.65863 0.0
C2380 C 0.4914 0.29052 0.66634 0.0
C2381 C 0.50559 0.29036 0.65521 0.0
C2382 C 0.45784 0.2854 0.67031 0.0
C2383 C 0.45774 0.27666 0.68641 0.0
C2384 C 0.44272 0.29313 0.66499 0.0
C2385 C 0.44217 0.30343 0.64879 0.0
C2386 C 0.45622 0.31798 0.64732 0.0
C2387 C 0.45584 0.32736 0.63181 0.0
C2388 C 0.44141 0.3224 0.61772 0.0
C2389 C 0.4273 0.30809 0.61916 0.0
C2390 C 0.42762 0.29865 0.63464 0.0
C2391 C 0.39769 0.28042 0.73072 0.0
C2392 C 0.38073 0.27176 0.72142 0.0
C2393 C 0.41267 0.28487 0.72092 0.0
C2394 C 0.41116 0.28047 0.70157 0.0
C2395 C 0.39388 0.273 0.69218 0.0
C2396 C 0.37891 0.2686 0.70198 0.0
C2397 C 0.4276 0.28233 0.69128 0.0
C2398 C 0.42786 0.29138 0.6754 0.0
C2399 C 0.44284 0.27483 0.69676 0.0
C2400 C 0.44321 0.26408 0.71261 0.0
C2401 C 0.42968 0.24878 0.71307 0.0
C2402 C 0.42997 0.23887 0.7282 0.0
C2403 C 0.44384 0.244 0.74284 0.0
C2404 C 0.45747 0.25903 0.74237 0.0
C2405 C 0.45722 0.26903 0.72731 0.0
H2406 H 0.44404 0.2363 0.75454 0.0
H2407 H 0.44115 0.32967 0.60571 0.0
H2408 H 0.99265 0.79756 0.65493 0.0
H2409 H 0.99332 0.82195 0.63493 0.0
H2410 H 0.05034 0.83998 0.65234 0.0
H2411 H 0.04969 0.81561 0.67186 0.0
H2412 H 0.03365 0.86811 0.65391 0.0
H2413 H 0.03357 0.81734 0.60883 0.0
H2414 H 0.02187 0.78747 0.59114 0.0
H2415 H 0.97306 0.80451 0.57215 0.0
H2416 H 0.98438 0.83441 0.58993 0.0
H2417 H 0.06307 0.92592 0.58694 0.0
H2418 H 0.05717 0.903 0.60817 0.0
H2419 H 1.00149 0.88889 0.58405 0.0
H2420 H 0.0075 0.9119 0.56278 0.0
H2421 H 0.01427 0.85918 0.58639 0.0
H2422 H 0.01395 0.90983 0.62935 0.0
H2423 H 0.02419 0.93972 0.64737 0.0
H2424 H 0.07171 0.92318 0.67096 0.0
H2425 H 0.06188 0.89326 0.65287 0.0
C2426 C 0.0053 0.80674 0.65442 0.0
C2427 C 0.02101 0.80495 0.66545 0.0
C2428 C 0.00571 0.82067 0.64293 0.0
C2429 C 0.02189 0.83304 0.64208 0.0
C2430 C 0.03761 0.83091 0.65284 0.0
C2431 C 0.03719 0.81703 0.66423 0.0
C2432 C 0.02262 0.84847 0.6305 0.0
C2433 C 0.0296 0.86608 0.6391 0.0
C2434 C 0.0167 0.84613 0.61124 0.0
C2435 C 0.00972 0.82803 0.60092 0.0
C2436 C 0.02025 0.81464 0.60107 0.0
C2437 C 0.01371 0.79773 0.59097 0.0
C2438 C 0.99671 0.79408 0.58058 0.0
C2439 C 0.98621 0.80734 0.58025 0.0
C2440 C 0.99268 0.82427 0.59033 0.0
C2441 C 0.04945 0.91829 0.58657 0.0
C2442 C 0.03566 0.92102 0.57345 0.0
C2443 C 0.04606 0.9051 0.5987 0.0
C2444 C 0.0288 0.8941 0.59796 0.0
C2445 C 0.01491 0.89711 0.58507 0.0
C2446 C 0.01828 0.91044 0.57302 0.0
C2447 C 0.02566 0.87882 0.60976 0.0
C2448 C 0.01823 0.86125 0.60122 0.0
C2449 C 0.03099 0.8812 0.62913 0.0
C2450 C 0.03727 0.89937 0.63957 0.0
C2451 C 0.0267 0.91264 0.63819 0.0
C2452 C 0.0324 0.92957 0.64847 0.0
C2453 C 0.04862 0.93337 0.66026 0.0
C2454 C 0.05917 0.92024 0.66179 0.0
C2455 C 0.05354 0.90329 0.65153 0.0
H2456 H 0.05298 0.94647 0.66825 0.0
H2457 H 0.99169 0.78099 0.57274 0.0
H2458 H 0.4798 0.81571 0.8696 0.0
H2459 H 0.44822 0.81264 0.85667 0.0
H2460 H 0.45951 0.78573 0.80584 0.0
H2461 H 0.49128 0.78868 0.81901 0.0
H2462 H 0.43533 0.80576 0.7968 0.0
H2463 H 0.43638 0.76258 0.83881 0.0
H2464 H 0.44335 0.75029 0.86807 0.0
H2465 H 0.4128 0.78456 0.89587 0.0
H2466 H 0.40587 0.79726 0.8668 0.0
H2467 H 0.33994 0.77487 0.76465 0.0
H2468 H 0.37238 0.77816 0.77437 0.0
H2469 H 0.36483 0.8003 0.82896 0.0
H2470 H 0.33219 0.7959 0.81936 0.0
H2471 H 0.38777 0.78146 0.83469 0.0
H2472 H 0.38798 0.82499 0.78953 0.0
H2473 H 0.38117 0.83413 0.75854 0.0
H2474 H 0.40873 0.79478 0.73466 0.0
H2475 H 0.41584 0.78548 0.76551 0.0
C2476 C 0.47571 0.80935 0.85554 0.0
C2477 C 0.48859 0.80304 0.84529 0.0
C2478 C 0.45739 0.80742 0.84811 0.0
C2479 C 0.45082 0.7987 0.83013 0.0
C2480 C 0.46376 0.79258 0.81968 0.0
C2481 C 0.48217 0.79446 0.8272 0.0
C2482 C 0.43059 0.79562 0.8227 0.0
C2483 C 0.42501 0.80029 0.80512 0.0
C2484 C 0.41656 0.78846 0.83314 0.0
C2485 C 0.42079 0.78102 0.85068 0.0
C2486 C 0.43129 0.76762 0.8512 0.0
C2487 C 0.43521 0.76056 0.86774 0.0
C2488 C 0.42857 0.76668 0.88383 0.0
C2489 C 0.41797 0.77986 0.8834 0.0
C2490 C 0.41403 0.78699 0.8669 0.0
C2491 C 0.34522 0.7806 0.77869 0.0
C2492 C 0.33322 0.78523 0.79109 0.0
C2493 C 0.36405 0.78269 0.78432 0.0
C2494 C 0.3719 0.78998 0.80252 0.0
C2495 C 0.35974 0.79468 0.81485 0.0
C2496 C 0.34086 0.79226 0.8093 0.0
C2497 C 0.39234 0.79216 0.80898 0.0
C2498 C 0.39801 0.78717 0.82641 0.0
C2499 C 0.40641 0.79869 0.79822 0.0
C2500 C 0.40231 0.80445 0.77978 0.0
C2501 C 0.39254 0.81826 0.77766 0.0
C2502 C 0.38861 0.82346 0.76013 0.0
C2503 C 0.39437 0.81496 0.74464 0.0
C2504 C 0.40423 0.80133 0.74666 0.0
C2505 C 0.40827 0.79614 0.76417 0.0
H2506 H 0.39126 0.81899 0.73108 0.0
H2507 H 0.4316 0.76119 0.89662 0.0
H2508 H 0.51951 0.21695 0.13306 0.0
H2509 H 0.52094 0.19013 0.11251 0.0
H2510 H 0.50725 0.15743 0.15596 0.0
H2511 H 0.50344 0.18414 0.17555 0.0
H2512 H 0.54106 0.16825 0.11152 0.0
H2513 H 0.49463 0.12466 0.14836 0.0
H2514 H 0.46474 0.12035 0.15992 0.0
H2515 H 0.44231 0.14002 0.11152 0.0
H2516 H 0.47233 0.14536 0.1003 0.0
H2517 H 0.5545 0.08359 0.06816 0.0
H2518 H 0.55181 0.10974 0.08939 0.0
H2519 H 0.49504 0.10158 0.06963 0.0
H2520 H 0.49769 0.07479 0.04934 0.0
H2521 H 0.49611 0.11098 0.10244 0.0
H2522 H 0.53274 0.13821 0.05948 0.0
H2523 H 0.55838 0.1453 0.04134 0.0
H2524 H 0.59491 0.15986 0.09148 0.0
H2525 H 0.56951 0.1526 0.10993 0.0
C2526 C 0.51566 0.20393 0.13785 0.0
C2527 C 0.51004 0.20279 0.15559 0.0
C2528 C 0.51696 0.18844 0.12616 0.0
C2529 C 0.51351 0.17111 0.13202 0.0
C2530 C 0.50884 0.1701 0.15022 0.0
C2531 C 0.50698 0.18559 0.1617 0.0
C2532 C 0.51598 0.15462 0.11951 0.0
C2533 C 0.53122 0.15571 0.10971 0.0
C2534 C 0.50324 0.13807 0.11642 0.0
C2535 C 0.48572 0.13603 0.12389 0.0
C2536 C 0.48337 0.12844 0.14045 0.0
C2537 C 0.46645 0.12587 0.14696 0.0
C2538 C 0.45169 0.13019 0.13661 0.0
C2539 C 0.45382 0.13704 0.11972 0.0
C2540 C 0.47082 0.14012 0.11345 0.0
C2541 C 0.54147 0.08746 0.06833 0.0
C2542 C 0.52632 0.07705 0.057 0.0
C2543 C 0.53991 0.10261 0.08045 0.0
C2544 C 0.52322 0.10826 0.08127 0.0
C2545 C 0.50813 0.09783 0.06966 0.0
C2546 C 0.50963 0.08246 0.05787 0.0
C2547 C 0.52123 0.12454 0.09438 0.0
C2548 C 0.5061 0.12342 0.10432 0.0
C2549 C 0.53384 0.14124 0.09711 0.0
C2550 C 0.54925 0.1447 0.08608 0.0
C2551 C 0.54627 0.14271 0.06664 0.0
C2552 C 0.56075 0.14681 0.0563 0.0
C2553 C 0.57823 0.15309 0.06526 0.0
C2554 C 0.58133 0.15506 0.08457 0.0
C2555 C 0.56691 0.15092 0.09497 0.0
H2556 H 0.58937 0.1565 0.05722 0.0
H2557 H 0.43856 0.12806 0.14157 0.0
H2558 H 0.07938 0.30547 0.31243 0.0
H2559 H 0.10781 0.29965 0.30225 0.0
H2560 H 0.12798 0.29586 0.35848 0.0
H2561 H 0.099 0.30077 0.36871 0.0
H2562 H 0.15233 0.32072 0.33535 0.0
H2563 H 0.11996 0.25986 0.33428 0.0
H2564 H 0.09432 0.23445 0.32495 0.0
H2565 H 0.10199 0.23741 0.26783 0.0
H2566 H 0.12749 0.26309 0.27679 0.0
H2567 H 0.23765 0.29974 0.3174 0.0
H2568 H 0.20876 0.30263 0.32823 0.0
H2569 H 0.18079 0.27522 0.27619 0.0
H2570 H 0.20976 0.27177 0.26564 0.0
H2571 H 0.15926 0.26549 0.29731 0.0
H2572 H 0.18682 0.32672 0.29501 0.0
H2573 H 0.20603 0.35715 0.30068 0.0
H2574 H 0.2044 0.35691 0.35921 0.0
H2575 H 0.18531 0.32648 0.3539 0.0
C2576 C 0.0897 0.30325 0.32277 0.0
C2577 C 0.08644 0.30363 0.34157 0.0
C2578 C 0.10615 0.29986 0.31681 0.0
C2579 C 0.12045 0.29717 0.32941 0.0
C2580 C 0.11739 0.29775 0.34825 0.0
C2581 C 0.10065 0.30058 0.35416 0.0
C2582 C 0.13862 0.29451 0.32299 0.0
C2583 C 0.1539 0.30846 0.32735 0.0
C2584 C 0.14085 0.27897 0.31164 0.0
C2585 C 0.12551 0.26356 0.30621 0.0
C2586 C 0.11605 0.25525 0.31971 0.0
C2587 C 0.10157 0.24076 0.31449 0.0
C2588 C 0.09649 0.23436 0.29581 0.0
C2589 C 0.10591 0.24241 0.2823 0.0
C2590 C 0.12039 0.25693 0.28745 0.0
C2591 C 0.22541 0.29436 0.30811 0.0
C2592 C 0.22653 0.28551 0.29045 0.0
C2593 C 0.20858 0.29621 0.31434 0.0
C2594 C 0.19185 0.28963 0.30313 0.0
C2595 C 0.193 0.28061 0.2855 0.0
C2596 C 0.20986 0.27861 0.27934 0.0
C2597 C 0.17346 0.29181 0.30982 0.0
C2598 C 0.15798 0.27778 0.30543 0.0
C2599 C 0.17085 0.30756 0.32073 0.0
C2600 C 0.18471 0.32433 0.32407 0.0
C2601 C 0.1909 0.333 0.30911 0.0
C2602 C 0.20163 0.35031 0.31225 0.0
C2603 C 0.20617 0.35902 0.33028 0.0
C2604 C 0.20071 0.35019 0.34525 0.0
C2605 C 0.18998 0.33293 0.34219 0.0
H2606 H 0.21375 0.37271 0.33271 0.0
H2607 H 0.08529 0.22312 0.29179 0.0
H2608 H 0.97301 0.02459 0.22412 0.0
H2609 H 0.98526 0.02736 0.19456 0.0
H2610 H 0.93147 0.01109 0.16563 0.0
H2611 H 0.91924 0.0078 0.19523 0.0
H2612 H 0.95201 0.9954 0.14676 0.0
H2613 H 0.95815 0.05711 0.17179 0.0
H2614 H 0.96768 0.08392 0.19488 0.0
H2615 H 0.02324 0.07981 0.19342 0.0
H2616 H 0.01402 0.05284 0.17048 0.0
H2617 H 0.98101 0.03562 0.06258 0.0
H2618 H 0.96782 0.03363 0.09197 0.0
H2619 H 0.01397 0.01463 0.11563 0.0
H2620 H 0.02673 0.01556 0.08619 0.0
H2621 H 0.99674 0.04879 0.1362 0.0
H2622 H 0.98965 0.98483 0.11402 0.0
H2623 H 0.97969 0.95789 0.09117 0.0
H2624 H 0.9254 0.96723 0.08708 0.0
H2625 H 0.93514 0.9944 0.10975 0.0
C2626 C 0.96372 0.02166 0.2115 0.0
C2627 C 0.94504 0.016 0.21228 0.0
C2628 C 0.97078 0.02338 0.19445 0.0
C2629 C 0.95942 0.01976 0.17749 0.0
C2630 C 0.94073 0.01405 0.17828 0.0
C2631 C 0.93367 0.01221 0.19534 0.0
C2632 C 0.96698 0.02147 0.15904 0.0
C2633 C 0.96161 0.00725 0.14454 0.0
C2634 C 0.97981 0.0367 0.15572 0.0
C2635 C 0.98538 0.05286 0.16956 0.0
C2636 C 0.97239 0.06185 0.1765 0.0
C2637 C 0.97773 0.07709 0.18954 0.0
C2638 C 0.99605 0.08354 0.19565 0.0
C2639 C 0.00906 0.07479 0.1887 0.0
C2640 C 1.00378 0.05953 0.17566 0.0
C2641 C 0.98836 0.03094 0.07399 0.0
C2642 C 0.00507 0.02583 0.07177 0.0
C2643 C 0.98077 0.02982 0.09086 0.0
C2644 C 0.98981 0.02392 0.10617 0.0
C2645 C 0.00663 0.01919 0.10414 0.0
C2646 C 0.01399 0.01987 0.0872 0.0
C2647 C 0.98183 0.02273 0.12427 0.0
C2648 C 0.98708 0.03704 0.13857 0.0
C2649 C 0.96892 0.00764 0.12744 0.0
C2650 C 0.96317 0.99177 0.11333 0.0
C2651 C 0.97566 0.98129 0.10803 0.0
C2652 C 0.97003 0.96591 0.09522 0.0
C2653 C 0.95191 0.96082 0.08772 0.0
C2654 C 0.93942 0.97117 0.09293 0.0
C2655 C 0.94499 0.98656 0.10575 0.0
H2656 H 0.94758 0.94891 0.07779 0.0
H2657 H 1.00016 0.09534 0.20575 0.0
H2658 H 0.24842 0.63499 0.47112 0.0
H2659 H 0.25247 0.65415 0.44656 0.0
H2660 H 0.29217 0.69326 0.48318 0.0
H2661 H 0.28726 0.67451 0.50841 0.0
H2662 H 0.26976 0.70896 0.46324 0.0
H2663 H 0.30482 0.6641 0.44964 0.0
H2664 H 0.30879 0.63255 0.44651 0.0
H2665 H 0.26614 0.61929 0.40137 0.0
H2666 H 0.26167 0.65067 0.40444 0.0
H2667 H 0.27572 0.75504 0.38487 0.0
H2668 H 0.28793 0.73916 0.40938 0.0
H2669 H 0.24977 0.69048 0.38712 0.0
H2670 H 0.23818 0.70621 0.36228 0.0
H2671 H 0.28026 0.68235 0.40149 0.0
H2672 H 0.23977 0.72165 0.41964 0.0
H2673 H 0.23037 0.75096 0.42399 0.0
H2674 H 0.27869 0.77252 0.4611 0.0
H2675 H 0.28854 0.74339 0.45663 0.0
C2676 C 0.25801 0.64766 0.47399 0.0
C2677 C 0.26764 0.65325 0.49159 0.0
C2678 C 0.26042 0.65853 0.4599 0.0
C2679 C 0.27306 0.6748 0.46293 0.0
C2680 C 0.28253 0.6806 0.48057 0.0
C2681 C 0.27974 0.66991 0.49489 0.0
C2682 C 0.27588 0.68584 0.44761 0.0
C2683 C 0.27262 0.70338 0.44988 0.0
C2684 C 0.27928 0.67831 0.43014 0.0
C2685 C 0.28296 0.65979 0.42724 0.0
C2686 C 0.29636 0.65448 0.43898 0.0
C2687 C 0.29864 0.63661 0.43726 0.0
C2688 C 0.28774 0.62393 0.42374 0.0
C2689 C 0.27461 0.62914 0.41181 0.0
C2690 C 0.27223 0.64698 0.41349 0.0
C2691 C 0.27024 0.74088 0.38518 0.0
C2692 C 0.25583 0.73179 0.37221 0.0
C2693 C 0.27722 0.73183 0.39903 0.0
C2694 C 0.26949 0.71378 0.40024 0.0
C2695 C 0.25589 0.70443 0.38645 0.0
C2696 C 0.24913 0.7134 0.37245 0.0
C2697 C 0.27357 0.70526 0.41702 0.0
C2698 C 0.27815 0.68821 0.41503 0.0
C2699 C 0.27103 0.71306 0.43471 0.0
C2700 C 0.26502 0.73047 0.43758 0.0
C2701 C 0.24845 0.73269 0.42861 0.0
C2702 C 0.24304 0.74926 0.43109 0.0
C2703 C 0.25396 0.76362 0.44276 0.0
C2704 C 0.27028 0.76141 0.45201 0.0
C2705 C 0.2758 0.74489 0.44948 0.0
H2706 H 0.24975 0.77644 0.44468 0.0
H2707 H 0.28945 0.61007 0.42251 0.0
H2708 H 0.67095 0.03599 0.68919 0.0
H2709 H 0.65388 0.03555 0.65875 0.0
H2710 H 0.60426 0.0295 0.68403 0.0
H2711 H 0.62086 0.029 0.71385 0.0
H2712 H 0.59999 0.00679 0.65557 0.0
H2713 H 0.62512 0.06989 0.67047 0.0
H2714 H 0.64811 0.09789 0.67783 0.0
H2715 H 0.66992 0.08681 0.62688 0.0
H2716 H 0.64722 0.0586 0.61934 0.0
H2717 H 0.54534 0.04649 0.58807 0.0
H2718 H 0.56657 0.04715 0.61568 0.0
H2719 H 0.59452 0.01173 0.58525 0.0
H2720 H 0.57291 0.01005 0.55795 0.0
H2721 H 0.61111 0.05448 0.61394 0.0
H2722 H 0.58396 0.98688 0.60425 0.0
H2723 H 0.55621 0.96335 0.59812 0.0
H2724 H 0.53389 0.98905 0.64282 0.0
H2725 H 0.5614 0.01291 0.64893 0.0
C2726 C 0.65637 0.03426 0.68807 0.0
C2727 C 0.64715 0.03217 0.70371 0.0
C2728 C 0.64671 0.03427 0.67082 0.0
C2729 C 0.62788 0.03255 0.66928 0.0
C2730 C 0.61879 0.03064 0.68495 0.0
C2731 C 0.6283 0.03024 0.70197 0.0
C2732 C 0.61716 0.03179 0.65133 0.0
C2733 C 0.60257 0.01723 0.6465 0.0
C2734 C 0.62045 0.04546 0.63954 0.0
C2735 C 0.63468 0.06195 0.64452 0.0
C2736 C 0.63501 0.07326 0.66099 0.0
C2737 C 0.64794 0.08922 0.66515 0.0
C2738 C 0.66053 0.09408 0.65288 0.0
C2739 C 0.66022 0.08299 0.63642 0.0
C2740 C 0.64733 0.06701 0.6322 0.0
C2741 C 0.55575 0.03852 0.58739 0.0
C2742 C 0.55736 0.02802 0.571 0.0
C2743 C 0.56794 0.03914 0.60301 0.0
C2744 C 0.58188 0.02949 0.60218 0.0
C2745 C 0.58367 0.01915 0.5859 0.0
C2746 C 0.5713 0.0182 0.57043 0.0
C2747 C 0.59429 0.02966 0.61863 0.0
C2748 C 0.60903 0.044 0.62304 0.0
C2749 C 0.5909 0.0162 0.63041 0.0
C2750 C 0.57458 1.00172 0.62688 0.0
C2751 C 0.57305 0.98758 0.61263 0.0
C2752 C 0.55739 0.97418 0.60918 0.0
C2753 C 0.54327 0.97474 0.62003 0.0
C2754 C 0.54481 0.98866 0.63439 0.0
C2755 C 0.56041 1.00212 0.63783 0.0
H2756 H 0.53116 0.96435 0.61735 0.0
H2757 H 0.67048 0.10647 0.65609 0.0
H2758 H 0.29533 0.33998 0.9864 0.0
H2759 H 0.29357 0.32324 0.95549 0.0
H2760 H 0.26902 0.36363 0.93124 0.0
H2761 H 0.27057 0.38012 0.96178 0.0
H2762 H 0.25294 0.33214 0.91448 0.0
H2763 H 0.31493 0.36175 0.93074 0.0
H2764 H 0.34447 0.36907 0.94997 0.0
H2765 H 0.34897 0.31346 0.94269 0.0
H2766 H 0.3193 0.30575 0.92361 0.0
H2767 H 0.2669 0.31916 0.82013 0.0
H2768 H 0.26753 0.33072 0.85248 0.0
H2769 H 0.29348 0.28807 0.86929 0.0
H2770 H 0.29316 0.27653 0.83669 0.0
H2771 H 0.3083 0.31767 0.89094 0.0
H2772 H 0.24678 0.28944 0.871 0.0
H2773 H 0.21709 0.28327 0.85233 0.0
H2774 H 0.21111 0.33771 0.86698 0.0
H2775 H 0.24117 0.34444 0.88519 0.0
C2776 C 0.28925 0.34511 0.97452 0.0
C2777 C 0.28309 0.36148 0.97676 0.0
C2778 C 0.28844 0.33561 0.95674 0.0
C2779 C 0.28139 0.3422 0.94073 0.0
C2780 C 0.27458 0.35813 0.94314 0.0
C2781 C 0.2755 0.36762 0.96076 0.0
C2782 C 0.28128 0.33296 0.92141 0.0
C2783 C 0.26512 0.32915 0.90932 0.0
C2784 C 0.29699 0.32855 0.91454 0.0
C2785 C 0.31481 0.33314 0.92594 0.0
C2786 C 0.32215 0.35106 0.93337 0.0
C2787 C 0.33892 0.35528 0.94423 0.0
C2788 C 0.34856 0.34173 0.94761 0.0
C2789 C 0.34147 0.32393 0.94009 0.0
C2790 C 0.32468 0.31963 0.92925 0.0
C2791 C 0.27279 0.31215 0.83062 0.0
C2792 C 0.28 0.2968 0.82553 0.0
C2793 C 0.27303 0.31877 0.8493 0.0
C2794 C 0.28022 0.31019 0.86369 0.0
C2795 C 0.28774 0.29503 0.85866 0.0
C2796 C 0.28756 0.28839 0.8399 0.0
C2797 C 0.27996 0.31713 0.8838 0.0
C2798 C 0.29607 0.32052 0.89607 0.0
C2799 C 0.26419 0.32137 0.89079 0.0
C2800 C 0.24634 0.31748 0.87936 0.0
C2801 C 0.23926 0.30017 0.87005 0.0
C2802 C 0.22232 0.29658 0.85956 0.0
C2803 C 0.21216 0.31009 0.85854 0.0
C2804 C 0.21901 0.32728 0.8678 0.0
C2805 C 0.23603 0.331 0.87815 0.0
H2806 H 0.19894 0.30727 0.85067 0.0
H2807 H 0.36155 0.34503 0.95601 0.0
H2808 H 0.91853 0.00659 0.33549 0.0
H2809 H 0.93548 0.0075 0.36517 0.0
H2810 H 0.98423 0.0316 0.34392 0.0
H2811 H 0.96739 0.02792 0.31269 0.0
H2812 H 0.99465 0.01394 0.36849 0.0
H2813 H 0.95507 0.05593 0.37396 0.0
H2814 H 0.9259 0.06591 0.37012 0.0
H2815 H 0.90326 0.0264 0.40396 0.0
H2816 H 0.93221 0.01608 0.40785 0.0
H2817 H 0.03455 0.0368 0.46426 0.0
H2818 H 0.02296 0.03696 0.43174 0.0
H2819 H 0.97073 0.00861 0.44212 0.0
H2820 H 0.98209 0.00974 0.47484 0.0
H2821 H 0.96498 0.03254 0.42261 0.0
H2822 H 0.00642 0.99038 0.41559 0.0
H2823 H 0.03667 0.98267 0.41946 0.0
H2824 H 0.05755 0.02627 0.38948 0.0
H2825 H 0.02746 0.0343 0.38551 0.0
C2826 C 0.93293 0.01176 0.33674 0.0
C2827 C 0.94144 0.01695 0.32124 0.0
C2828 C 0.94268 0.01275 0.35418 0.0
C2829 C 0.96121 0.02047 0.35753 0.0
C2830 C 0.96994 0.02575 0.3421 0.0
C2831 C 0.96024 0.02377 0.32415 0.0
C2832 C 0.97102 0.0228 0.37707 0.0
C2833 C 0.98817 0.01823 0.38025 0.0
C2834 C 0.96297 0.02849 0.39285 0.0
C2835 C 0.94579 0.0352 0.39113 0.0
C2836 C 0.94387 0.04939 0.38059 0.0
C2837 C 0.92737 0.05509 0.37839 0.0
C2838 C 0.91274 0.04678 0.38678 0.0
C2839 C 0.9146 0.03284 0.39749 0.0
C2840 C 0.93107 0.0271 0.39974 0.0
C2841 C 0.02065 0.03045 0.45948 0.0
C2842 C 0.00926 0.02317 0.47208 0.0
C2843 C 0.014 0.0304 0.44076 0.0
C2844 C 0.9959 0.02249 0.43397 0.0
C2845 C 0.9847 0.01487 0.44668 0.0
C2846 C 0.99121 0.0154 0.46545 0.0
C2847 C 0.98815 0.02284 0.41409 0.0
C2848 C 0.97143 0.02817 0.41085 0.0
C2849 C 0.99681 0.01822 0.39838 0.0
C2850 C 0.01472 0.01299 0.40035 0.0
C2851 C 0.01747 0.99832 0.40984 0.0
C2852 C 0.03459 0.99391 0.41207 0.0
C2853 C 0.04903 0.004 0.40477 0.0
C2854 C 0.04636 0.01847 0.39513 0.0
C2855 C 0.02927 0.02293 0.39285 0.0
H2856 H 0.06228 1.0006 0.40656 0.0
H2857 H 0.89996 0.05116 0.38499 0.0
H2858 H 0.2518 0.64268 0.60443 0.0
H2859 H 0.2526 0.66091 0.63413 0.0
H2860 H 0.30049 0.69667 0.62286 0.0
H2861 H 0.29947 0.67883 0.59289 0.0
H2862 H 0.29871 0.68372 0.66121 0.0
H2863 H 0.2668 0.71032 0.61276 0.0
H2864 H 0.24261 0.70994 0.58754 0.0
H2865 H 0.20249 0.69527 0.62385 0.0
H2866 H 0.22645 0.69518 0.64919 0.0
H2867 H 0.30562 0.75782 0.72763 0.0
H2868 H 0.30539 0.73828 0.69902 0.0
H2869 H 0.24731 0.72181 0.69629 0.0
H2870 H 0.24752 0.7433 0.72345 0.0
H2871 H 0.25359 0.72313 0.66491 0.0
H2872 H 0.28184 0.69518 0.71298 0.0
H2873 H 0.30376 0.69225 0.73916 0.0
H2874 H 0.34738 0.70538 0.70643 0.0
H2875 H 0.32569 0.70831 0.68002 0.0
C2876 C 0.26273 0.65418 0.60852 0.0
C2877 C 0.27561 0.65946 0.59655 0.0
C2878 C 0.26307 0.66459 0.62533 0.0
C2879 C 0.2765 0.68007 0.63036 0.0
C2880 C 0.29003 0.68471 0.61898 0.0
C2881 C 0.28946 0.67457 0.602 0.0
C2882 C 0.27599 0.69201 0.64709 0.0
C2883 C 0.28894 0.69245 0.66215 0.0
C2884 C 0.26278 0.70277 0.6482 0.0
C2885 C 0.24843 0.70243 0.63278 0.0
C2886 C 0.25283 0.70671 0.61529 0.0
C2887 C 0.23915 0.70665 0.60098 0.0
C2888 C 0.22102 0.70251 0.60406 0.0
C2889 C 0.21653 0.69841 0.62146 0.0
C2890 C 0.23015 0.6984 0.63578 0.0
C2891 C 0.29288 0.7501 0.72066 0.0
C2892 C 0.27662 0.75149 0.72763 0.0
C2893 C 0.29273 0.73876 0.70454 0.0
C2894 C 0.27643 0.72794 0.69592 0.0
C2895 C 0.2601 0.72989 0.70273 0.0
C2896 C 0.26017 0.74205 0.71821 0.0
C2897 C 0.27629 0.71491 0.67955 0.0
C2898 C 0.26326 0.71428 0.66437 0.0
C2899 C 0.28905 0.70349 0.67859 0.0
C2900 C 0.30215 0.7021 0.69459 0.0
C2901 C 0.29612 0.69757 0.71142 0.0
C2902 C 0.30851 0.69588 0.72629 0.0
C2903 C 0.32697 0.69873 0.72452 0.0
C2904 C 0.33308 0.70321 0.70782 0.0
C2905 C 0.32074 0.70482 0.69287 0.0
H2906 H 0.33653 0.69738 0.73605 0.0
H2907 H 0.21046 0.70253 0.59299 0.0
H2908 H 0.67301 0.06193 0.82794 0.0
H2909 H 0.6529 0.05837 0.85189 0.0
H2910 H 0.61423 0.01885 0.81461 0.0
H2911 H 0.63393 0.02312 0.79015 0.0
H2912 H 0.59842 0.04234 0.83313 0.0
H2913 H 0.64152 0.0058 0.84916 0.0
H2914 H 0.67292 1.00117 0.85357 0.0
H2915 H 0.68573 0.04413 0.89825 0.0
H2916 H 0.65451 0.04922 0.89391 0.0
H2917 H 0.54883 0.03845 0.90886 0.0
H2918 H 0.56537 0.02505 0.88569 0.0
H2919 H 0.61434 0.06247 0.90884 0.0
H2920 H 0.59794 0.07526 0.93235 0.0
H2921 H 0.62197 0.0311 0.89584 0.0
H2922 H 0.58534 0.07315 0.87538 0.0
H2923 H 0.55653 0.08352 0.87014 0.0
H2924 H 0.53405 0.03528 0.83348 0.0
H2925 H 0.56266 0.02446 0.83884 0.0
C2926 C 0.66026 0.05246 0.82487 0.0
C2927 C 0.65501 0.0427 0.80733 0.0
C2928 C 0.64885 0.05035 0.83856 0.0
C2929 C 0.63238 0.03795 0.83509 0.0
C2930 C 0.62701 0.02831 0.81752 0.0
C2931 C 0.63824 0.03075 0.80365 0.0
C2932 C 0.62064 0.03555 0.84982 0.0
C2933 C 0.6033 0.03932 0.8467 0.0
C2934 C 0.6273 0.03193 0.86753 0.0
C2935 C 0.64563 0.02783 0.87126 0.0
C2936 C 0.65101 0.01418 0.86001 0.0
C2937 C 0.6688 0.01153 0.86244 0.0
C2938 C 0.6813 0.02234 0.8762 0.0
C2939 C 0.67601 0.03573 0.88764 0.0
C2940 C 0.65825 0.03847 0.88524 0.0
C2941 C 0.56317 0.04357 0.90897 0.0
C2942 C 0.57219 0.05812 0.92175 0.0
C2943 C 0.57259 0.03586 0.89597 0.0
C2944 C 0.59095 0.04301 0.89544 0.0
C2945 C 0.60016 0.05679 0.90906 0.0
C2946 C 0.59081 0.06426 0.92223 0.0
C2947 C 0.59995 0.03839 0.87924 0.0
C2948 C 0.61677 0.03331 0.88207 0.0
C2949 C 0.59302 0.04121 0.8613 0.0
C2950 C 0.57601 0.04789 0.85771 0.0
C2951 C 0.57421 0.06472 0.86629 0.0
C2952 C 0.55792 0.07067 0.86331 0.0
C2953 C 0.54344 0.06004 0.85154 0.0
C2954 C 0.54526 0.04347 0.84265 0.0
C2955 C 0.56149 0.0374 0.84567 0.0
H2956 H 0.53084 0.06466 0.84925 0.0
H2957 H 0.6951 0.02035 0.87798 0.0
H2958 H 0.28244 0.38614 0.10051 0.0
H2959 H 0.27854 0.37347 0.12976 0.0
H2960 H 0.28437 0.32173 0.10396 0.0
H2961 H 0.28672 0.33409 0.07448 0.0
H2962 H 0.26237 0.31392 0.12501 0.0
H2963 H 0.31904 0.35621 0.13833 0.0
H2964 H 0.33982 0.3857 0.1413 0.0
H2965 H 0.30769 0.40785 0.17931 0.0
H2966 H 0.28662 0.37854 0.17639 0.0
H2967 H 0.28354 0.2764 0.20889 0.0
H2968 H 0.28456 0.28978 0.17984 0.0
H2969 H 0.26558 0.33542 0.20461 0.0
H2970 H 0.26432 0.32193 0.23378 0.0
H2971 H 0.29316 0.34652 0.18491 0.0
H2972 H 0.23768 0.30256 0.17218 0.0
H2973 H 0.21864 0.27222 0.16991 0.0
H2974 H 0.25136 0.25213 0.13123 0.0
H2975 H 0.27065 0.28236 0.13333 0.0
C2976 C 0.28286 0.37205 0.10108 0.0
C2977 C 0.28495 0.36122 0.085 0.0
C2978 C 0.28083 0.36476 0.11801 0.0
C2979 C 0.2816 0.34652 0.11969 0.0
C2980 C 0.28366 0.33576 0.10349 0.0
C2981 C 0.2851 0.34291 0.08648 0.0
C2982 C 0.27997 0.33848 0.13796 0.0
C2983 C 0.26943 0.32109 0.13797 0.0
C2984 C 0.28862 0.34761 0.15538 0.0
C2985 C 0.30115 0.36526 0.15697 0.0
C2986 C 0.31634 0.36741 0.14721 0.0
C2987 C 0.32818 0.38408 0.1489 0.0
C2988 C 0.32505 0.39865 0.16044 0.0
C2989 C 0.31008 0.39657 0.17034 0.0
C2990 C 0.29819 0.37994 0.16868 0.0
C2991 C 0.27921 0.28912 0.20815 0.0
C2992 C 0.27348 0.29781 0.2238 0.0
C2993 C 0.27987 0.29685 0.19141 0.0
C2994 C 0.27491 0.31362 0.18967 0.0
C2995 C 0.26941 0.32246 0.20535 0.0
C2996 C 0.26863 0.31466 0.2221 0.0
C2997 C 0.27587 0.32206 0.17173 0.0
C2998 C 0.28621 0.33946 0.17185 0.0
C2999 C 0.26733 0.31283 0.1544 0.0
C3000 C 0.2557 0.29469 0.15304 0.0
C3001 C 0.24088 0.29165 0.16328 0.0
C3002 C 0.23002 0.27448 0.162 0.0
C3003 C 0.23384 0.26024 0.1505 0.0
C3004 C 0.24845 0.26317 0.14016 0.0
C3005 C 0.25931 0.28033 0.14135 0.0
H3006 H 0.22545 0.24694 0.14957 0.0
H3007 H 0.33424 0.41154 0.16174 0.0
H3008 H 0.23367 0.91892 0.98898 0.0
H3009 H 0.20464 0.9276 0.99385 0.0
H3010 H 0.23289 0.98139 0.01532 0.0
H3011 H 0.26162 0.973 0.00998 0.0
H3012 H 0.20594 0.9622 0.03719 0.0
H3013 H 0.21683 0.97922 0.97603 0.0
H3014 H 0.22347 0.97133 0.94427 0.0
H3015 H 0.17417 0.93176 0.93377 0.0
H3016 H 0.16743 0.9392 0.96566 0.0
H3017 H 0.14878 0.01959 0.04797 0.0
H3018 H 0.17314 0.00884 0.03337 0.0
H3019 H 0.13454 0.96361 0.00386 0.0
H3020 H 0.11001 0.97537 0.01725 0.0
H3021 H 0.16411 0.9736 0.98494 0.0
H3022 H 0.15208 0.96016 0.04657 0.0
H3023 H 0.14737 0.96828 0.07896 0.0
H3024 H 0.20064 1.00122 0.08919 0.0
H3025 H 0.20553 0.99355 0.05677 0.0
C3026 C 0.23352 0.93254 0.99476 0.0
C3027 C 0.24958 0.94542 0.99906 0.0
C3028 C 0.21711 0.93743 0.99748 0.0
C3029 C 0.21693 0.95505 0.00486 0.0
C3030 C 0.23301 0.96774 0.00956 0.0
C3031 C 0.24929 0.963 0.00645 0.0
C3032 C 0.20003 0.96067 0.00764 0.0
C3033 C 0.19671 0.96468 0.02584 0.0
C3034 C 0.18815 0.96351 0.99265 0.0
C3035 C 0.19171 0.95964 0.97325 0.0
C3036 C 0.20745 0.96877 0.96697 0.0
C3037 C 0.21124 0.96438 0.94896 0.0
C3038 C 0.19926 0.95102 0.93702 0.0
C3039 C 0.18343 0.94209 0.94304 0.0
C3040 C 0.17962 0.9464 0.96109 0.0
C3041 C 0.14556 0.00768 0.03793 0.0
C3042 C 0.12794 0.99764 0.03425 0.0
C3043 C 0.15934 1.00161 0.02959 0.0
C3044 C 0.15556 0.98513 0.01816 0.0
C3045 C 0.13764 0.9762 0.01291 0.0
C3046 C 0.12378 0.98262 0.02083 0.0
C3047 C 0.1703 0.97579 0.01462 0.0
C3048 C 0.17312 0.97088 0.99631 0.0
C3049 C 0.1819 0.97216 0.02958 0.0
C3050 C 0.17911 0.97637 0.04922 0.0
C3051 C 0.16275 0.96919 0.05571 0.0
C3052 C 0.16005 0.97372 0.07407 0.0
C3053 C 0.17368 0.98528 0.08612 0.0
C3054 C 0.19008 0.99228 0.07985 0.0
C3055 C 0.19283 0.98783 0.06149 0.0
H3056 H 0.17155 0.9888 0.10032 0.0
H3057 H 0.20224 0.9476 0.92308 0.0
H3058 H 0.69741 0.66288 0.9944 0.0
H3059 H 0.66833 0.64264 0.99605 0.0
H3060 H 0.69663 0.60404 0.01873 0.0
H3061 H 0.72549 0.62463 0.0181 0.0
H3062 H 0.66723 0.5882 0.98974 0.0
H3063 H 0.67959 0.62547 0.04708 0.0
H3064 H 0.68761 0.65371 0.06824 0.0
H3065 H 0.63994 0.67047 0.04536 0.0
H3066 H 0.63181 0.64244 0.02377 0.0
H3067 H 0.59291 0.5376 0.03185 0.0
H3068 H 0.62219 0.55612 0.0282 0.0
H3069 H 0.59515 0.59089 0.9974 0.0
H3070 H 0.56592 0.57188 0.99988 0.0
H3071 H 0.62419 0.60781 0.03049 0.0
H3072 H 0.61227 0.56827 0.97297 0.0
H3073 H 0.60478 0.53848 0.95445 0.0
H3074 H 0.65281 0.52456 0.98028 0.0
H3075 H 0.66038 0.55415 0.99931 0.0
C3076 C 0.69738 0.65002 0.99959 0.0
C3077 C 0.71379 0.64503 0.00538 0.0
C3078 C 0.68078 0.63844 1.00052 0.0
C3079 C 0.68023 0.62164 0.00728 0.0
C3080 C 0.69663 0.61674 0.01318 0.0
C3081 C 0.71315 0.62847 0.01263 0.0
C3082 C 0.6626 0.60959 0.00906 0.0
C3083 C 0.6579 0.59249 0.99872 0.0
C3084 C 0.65034 0.61501 0.02085 0.0
C3085 C 0.65525 0.63199 0.0336 0.0
C3086 C 0.67095 0.63529 0.04637 0.0
C3087 C 0.67548 0.65123 0.05849 0.0
C3088 C 0.66433 0.66391 0.0581 0.0
C3089 C 0.6486 0.66066 0.0456 0.0
C3090 C 0.64402 0.64475 0.03341 0.0
C3091 C 0.59313 0.54882 0.02378 0.0
C3092 C 0.57689 0.55284 0.01576 0.0
C3093 C 0.60994 0.55957 0.02193 0.0
C3094 C 0.6109 0.5749 0.01248 0.0
C3095 C 0.59477 0.57913 0.00473 0.0
C3096 C 0.57803 0.56815 0.00614 0.0
C3097 C 0.62869 0.58665 0.01083 0.0
C3098 C 0.63347 0.60364 0.02135 0.0
C3099 C 0.64111 0.58101 0.99939 0.0
C3100 C 0.63673 0.56332 0.98779 0.0
C3101 C 0.62112 0.55877 0.97489 0.0
C3102 C 0.61688 0.54194 0.96426 0.0
C3103 C 0.62827 0.5296 0.96625 0.0
C3104 C 0.64397 0.53411 0.97881 0.0
C3105 C 0.64823 0.55091 0.98953 0.0
H3106 H 0.62496 0.51657 0.95801 0.0
H3107 H 0.66784 0.67623 0.06752 0.0
H3108 H 0.69044 0.50969 0.29274 0.0
H3109 H 0.7022 0.48235 0.288 0.0
H3110 H 0.64802 0.45121 0.27561 0.0
H3111 H 0.63585 0.47915 0.28 0.0
H3112 H 0.67313 0.43661 0.3017 0.0
H3113 H 0.66996 0.45538 0.24104 0.0
H3114 H 0.67423 0.47658 0.21764 0.0
H3115 H 0.7316 0.48731 0.23332 0.0
H3116 H 0.72765 0.46637 0.25702 0.0
H3117 H 0.71134 0.36063 0.26399 0.0
H3118 H 0.69308 0.38308 0.27251 0.0
H3119 H 0.74085 0.42498 0.27911 0.0
H3120 H 0.75895 0.40265 0.27068 0.0
H3121 H 0.71493 0.43158 0.25421 0.0
H3122 H 0.71868 0.41495 0.3158 0.0
H3123 H 0.71535 0.39477 0.34022 0.0
H3124 H 0.65812 0.38055 0.32377 0.0
H3125 H 0.66114 0.40048 0.29908 0.0
C3126 C 0.68085 0.49716 0.28885 0.0
C3127 C 0.66209 0.4968 0.28663 0.0
C3128 C 0.68769 0.48142 0.28618 0.0
C3129 C 0.67608 0.46466 0.28141 0.0
C3130 C 0.65728 0.46402 0.27928 0.0
C3131 C 0.65033 0.47999 0.28165 0.0
C3132 C 0.6841 0.44818 0.27851 0.0
C3133 C 0.68193 0.43523 0.29103 0.0
C3134 C 0.69605 0.44663 0.26499 0.0
C3135 C 0.69848 0.4594 0.2509 0.0
C3136 C 0.68347 0.46239 0.23962 0.0
C3137 C 0.68584 0.47433 0.22628 0.0
C3138 C 0.70317 0.48331 0.22402 0.0
C3139 C 0.71818 0.48035 0.23509 0.0
C3140 C 0.71588 0.46843 0.24847 0.0
C3141 C 0.71803 0.37451 0.26814 0.0
C3142 C 0.73664 0.37985 0.26699 0.0
C3143 C 0.70756 0.38739 0.27285 0.0
C3144 C 0.71552 0.40583 0.27634 0.0
C3145 C 0.73433 0.4109 0.27644 0.0
C3146 C 0.74474 0.39809 0.27184 0.0
C3147 C 0.70426 0.42006 0.27758 0.0
C3148 C 0.70591 0.43269 0.26472 0.0
C3149 C 0.69196 0.42129 0.29085 0.0
C3150 C 0.69017 0.40901 0.30541 0.0
C3151 C 0.70541 0.40734 0.31722 0.0
C3152 C 0.70358 0.396 0.33117 0.0
C3153 C 0.68655 0.38633 0.3335 0.0
C3154 C 0.67132 0.38801 0.32192 0.0
C3155 C 0.67308 0.39933 0.30795 0.0
H3156 H 0.68515 0.37759 0.34432 0.0
H3157 H 0.70498 0.49253 0.21365 0.0
H3158 H 0.83403 0.4625 0.52622 0.0
H3159 H 0.86476 0.47807 0.53677 0.0
H3160 H 0.88319 0.45048 0.48984 0.0
H3161 H 0.85284 0.43239 0.48164 0.0
H3162 H 0.90198 0.44621 0.51648 0.0
H3163 H 0.88733 0.50649 0.50143 0.0
H3164 H 0.87197 0.53249 0.50475 0.0
H3165 H 0.87604 0.53171 0.56345 0.0
H3166 H 0.89262 0.50673 0.56077 0.0
H3167 H 0.97881 0.50085 0.49856 0.0
H3168 H 0.94891 0.48414 0.50209 0.0
H3169 H 0.95658 0.50411 0.56029 0.0
H3170 H 0.98663 0.52133 0.55655 0.0
H3171 H 0.92575 0.51036 0.54002 0.0
H3172 H 0.95275 0.45941 0.55022 0.0
H3173 H 0.97308 0.43809 0.54434 0.0
H3174 H 0.94671 0.42317 0.48893 0.0
H3175 H 0.92614 0.44417 0.49445 0.0
C3176 C 0.84475 0.46005 0.51813 0.0
C3177 C 0.84144 0.44652 0.50314 0.0
C3178 C 0.86226 0.46922 0.52393 0.0
C3179 C 0.87639 0.46568 0.51405 0.0
C3180 C 0.87256 0.45326 0.49791 0.0
C3181 C 0.85529 0.4431 0.49301 0.0
C3182 C 0.89532 0.47257 0.52178 0.0
C3183 C 0.90712 0.46035 0.52131 0.0
C3184 C 0.90198 0.49063 0.52957 0.0
C3185 C 0.89073 0.5045 0.53087 0.0
C3186 C 0.88468 0.51171 0.515 0.0
C3187 C 0.87586 0.52628 0.51675 0.0
C3188 C 0.87251 0.53331 0.53414 0.0
C3189 C 0.8784 0.5261 0.54995 0.0
C3190 C 0.8877 0.51191 0.54837 0.0
C3191 C 0.97402 0.50159 0.51206 0.0
C3192 C 0.98452 0.51223 0.52731 0.0
C3193 C 0.95723 0.49185 0.51416 0.0
C3194 C 0.95097 0.49261 0.53156 0.0
C3195 C 0.96155 0.5032 0.5469 0.0
C3196 C 0.97846 0.51301 0.54477 0.0
C3197 C 0.93225 0.48445 0.53257 0.0
C3198 C 0.9204 0.49623 0.53527 0.0
C3199 C 0.92563 0.46616 0.5261 0.0
C3200 C 0.93787 0.45332 0.52282 0.0
C3201 C 0.95132 0.45159 0.53679 0.0
C3202 C 0.96288 0.43959 0.53351 0.0
C3203 C 0.96124 0.42939 0.51628 0.0
C3204 C 0.94795 0.43106 0.50229 0.0
C3205 C 0.93626 0.44292 0.50552 0.0
H3206 H 0.97025 0.42016 0.51377 0.0
H3207 H 0.8656 0.54452 0.53538 0.0
H3208 H 0.38218 0.07437 0.31679 0.0
H3209 H 0.37211 0.10256 0.31101 0.0
H3210 H 0.32464 0.07178 0.27689 0.0
H3211 H 0.33451 0.04391 0.28276 0.0
H3212 H 0.34489 0.10112 0.26121 0.0
H3213 H 0.31773 0.08533 0.31616 0.0
H3214 H 0.32013 0.07697 0.34793 0.0
H3215 H 0.35572 0.12764 0.36695 0.0
H3216 H 0.35375 0.13616 0.33516 0.0
H3217 H 0.28337 0.15381 0.24322 0.0
H3218 H 0.29448 0.13007 0.25861 0.0
H3219 H 0.33633 0.1701 0.29153 0.0
H3220 H 0.32481 0.19394 0.27646 0.0
H3221 H 0.32268 0.13876 0.3099 0.0
H3222 H 0.34607 0.15477 0.25276 0.0
H3223 H 0.34217 0.16073 0.2202 0.0
H3224 H 0.31216 0.10679 0.20453 0.0
H3225 H 0.31554 0.10065 0.23708 0.0
C3226 C 0.36961 0.07382 0.30811 0.0
C3227 C 0.35885 0.05729 0.30037 0.0
C3228 C 0.36393 0.08974 0.30487 0.0
C3229 C 0.34769 0.08897 0.29363 0.0
C3230 C 0.33719 0.07243 0.28564 0.0
C3231 C 0.3427 0.05662 0.28911 0.0
C3232 C 0.34131 0.10534 0.29003 0.0
C3233 C 0.34007 0.10942 0.27181 0.0
C3234 C 0.33524 0.11598 0.30405 0.0
C3235 C 0.3357 0.11133 0.3233 0.0
C3236 C 0.32611 0.09467 0.32711 0.0
C3237 C 0.3274 0.08989 0.34511 0.0
C3238 C 0.3381 0.10175 0.35945 0.0
C3239 C 0.34745 0.11846 0.35582 0.0
C3240 C 0.34623 0.12329 0.33782 0.0
C3241 C 0.29469 0.15744 0.25401 0.0
C3242 C 0.30368 0.17535 0.25848 0.0
C3243 C 0.30088 0.14402 0.26288 0.0
C3244 C 0.31633 0.14848 0.27591 0.0
C3245 C 0.32439 0.16655 0.28147 0.0
C3246 C 0.31803 0.18002 0.27275 0.0
C3247 C 0.32587 0.13429 0.28091 0.0
C3248 C 0.3278 0.13068 0.29937 0.0
C3249 C 0.33241 0.12381 0.26703 0.0
C3250 C 0.33095 0.12731 0.24736 0.0
C3251 C 0.33857 0.14422 0.24238 0.0
C3252 C 0.33644 0.14763 0.22393 0.0
C3253 C 0.3269 0.13416 0.21031 0.0
C3254 C 0.31953 0.11722 0.2151 0.0
C3255 C 0.32155 0.11377 0.23354 0.0
H3256 H 0.32524 0.13684 0.19603 0.0
H3257 H 0.33914 0.09801 0.37337 0.0
H3258 H 0.29495 0.11743 0.50125 0.0
H3259 H 0.32276 0.10647 0.50664 0.0
H3260 H 0.35209 0.16075 0.52318 0.0
H3261 H 0.32366 0.17207 0.51823 0.0
H3262 H 0.36862 0.13801 0.4966 0.0
H3263 H 0.34706 0.1369 0.5558 0.0
H3264 H 0.3249 0.13048 0.578 0.0
H3265 H 0.31683 0.07389 0.55977 0.0
H3266 H 0.33874 0.07999 0.53725 0.0
H3267 H 0.44632 0.10406 0.53507 0.0
H3268 H 0.4223 0.12034 0.52622 0.0
H3269 H 0.38343 0.07027 0.51799 0.0
H3270 H 0.40743 0.05411 0.52688 0.0
H3271 H 0.37347 0.09414 0.54191 0.0
H3272 H 0.3935 0.09484 0.48186 0.0
H3273 H 0.4151 0.10065 0.459 0.0
H3274 H 0.42579 0.15719 0.47812 0.0
H3275 H 0.40442 0.15169 0.50128 0.0
C3276 C 0.30717 0.12721 0.50618 0.0
C3277 C 0.30688 0.14573 0.50941 0.0
C3278 C 0.32317 0.12082 0.50923 0.0
C3279 C 0.33957 0.13271 0.51536 0.0
C3280 C 0.33957 0.15129 0.51846 0.0
C3281 C 0.32331 0.15774 0.51573 0.0
C3282 C 0.35637 0.12524 0.51851 0.0
C3283 C 0.36992 0.12873 0.50679 0.0
C3284 C 0.35783 0.11267 0.53139 0.0
C3285 C 0.34444 0.10893 0.54472 0.0
C3286 C 0.34042 0.1231 0.55639 0.0
C3287 C 0.32793 0.11951 0.56906 0.0
C3288 C 0.31943 0.10179 0.57027 0.0
C3289 C 0.32341 0.08761 0.55881 0.0
C3290 C 0.33587 0.09113 0.54609 0.0
C3291 C 0.4328 0.09646 0.53046 0.0
C3292 C 0.42882 0.07775 0.53123 0.0
C3293 C 0.41901 0.1058 0.52557 0.0
C3294 C 0.40093 0.0966 0.52149 0.0
C3295 C 0.39721 0.07773 0.52109 0.0
C3296 C 0.41097 0.06843 0.5259 0.0
C3297 C 0.38572 0.10665 0.51982 0.0
C3298 C 0.37238 0.10357 0.53183 0.0
C3299 C 0.38449 0.11952 0.50718 0.0
C3300 C 0.39753 0.12282 0.49347 0.0
C3301 C 0.40061 0.10849 0.48134 0.0
C3302 C 0.41277 0.11173 0.46829 0.0
C3303 C 0.42186 0.12927 0.46715 0.0
C3304 C 0.41877 0.14361 0.47905 0.0
C3305 C 0.40663 0.14044 0.49213 0.0
H3306 H 0.43125 0.13175 0.45702 0.0
H3307 H 0.3098 0.09904 0.58012 0.0
H3308 H 0.64517 0.60363 0.30932 0.0
H3309 H 0.66536 0.63284 0.30926 0.0
H3310 H 0.6954 0.60828 0.27021 0.0
H3311 H 0.67624 0.57897 0.27172 0.0
H3312 H 0.71818 0.63095 0.28971 0.0
H3313 H 0.66051 0.63682 0.2598 0.0
H3314 H 0.62761 0.63553 0.2575 0.0
H3315 H 0.63507 0.67518 0.305 0.0
H3316 H 0.668 0.67653 0.30771 0.0
H3317 H 0.76078 0.71305 0.25838 0.0
H3318 H 0.74248 0.68358 0.26126 0.0
H3319 H 0.71689 0.70784 0.30458 0.0
H3320 H 0.73466 0.73739 0.30121 0.0
H3321 H 0.69227 0.68555 0.28331 0.0
H3322 H 0.75111 0.6787 0.31219 0.0
H3323 H 0.78377 0.67895 0.31294 0.0
H3324 H 0.77358 0.64105 0.26384 0.0
H3325 H 0.74084 0.64035 0.26299 0.0
C3326 C 0.65615 0.60455 0.30081 0.0
C3327 C 0.65921 0.58902 0.29064 0.0
C3328 C 0.66764 0.62133 0.30058 0.0
C3329 C 0.68183 0.62321 0.28928 0.0
C3330 C 0.68471 0.60753 0.27906 0.0
C3331 C 0.67364 0.59071 0.27983 0.0
C3332 C 0.69354 0.64131 0.28785 0.0
C3333 C 0.71236 0.64278 0.28813 0.0
C3334 C 0.68637 0.65711 0.28595 0.0
C3335 C 0.66666 0.65667 0.28403 0.0
C3336 C 0.65511 0.64523 0.26977 0.0
C3337 C 0.63647 0.64448 0.2684 0.0
C3338 C 0.62925 0.65524 0.28112 0.0
C3339 C 0.64068 0.66684 0.29517 0.0
C3340 C 0.65933 0.66762 0.29662 0.0
C3341 C 0.75142 0.71208 0.26869 0.0
C3342 C 0.74939 0.72766 0.27968 0.0
C3343 C 0.74095 0.69512 0.2704 0.0
C3344 C 0.72838 0.69316 0.28343 0.0
C3345 C 0.72642 0.70876 0.29444 0.0
C3346 C 0.7367 0.72573 0.29255 0.0
C3347 C 0.71682 0.67513 0.28524 0.0
C3348 C 0.69803 0.67369 0.28498 0.0
C3349 C 0.72398 0.65931 0.2868 0.0
C3350 C 0.7436 0.65958 0.28746 0.0
C3351 C 0.75587 0.67047 0.30154 0.0
C3352 C 0.77438 0.67068 0.30198 0.0
C3353 C 0.78076 0.66015 0.28836 0.0
C3354 C 0.76863 0.64922 0.27437 0.0
C3355 C 0.75009 0.64883 0.27396 0.0
H3356 H 0.7951 0.6604 0.28868 0.0
H3357 H 0.61481 0.6546 0.28006 0.0
H3358 H 0.88824 0.45576 0.80267 0.0
H3359 H 0.87159 0.42447 0.79507 0.0
H3360 H 0.82496 0.44356 0.77225 0.0
H3361 H 0.84182 0.47455 0.77867 0.0
H3362 H 0.82999 0.41538 0.80765 0.0
H3363 H 0.8288 0.42865 0.74154 0.0
H3364 H 0.8447 0.4392 0.71557 0.0
H3365 H 0.88 0.40169 0.7228 0.0
H3366 H 0.86452 0.39122 0.7491 0.0
H3367 H 0.77094 0.33211 0.77972 0.0
H3368 H 0.78398 0.36403 0.77958 0.0
H3369 H 0.83483 0.35027 0.76805 0.0
H3370 H 0.82212 0.3186 0.7684 0.0
H3371 H 0.8264 0.3765 0.74837 0.0
H3372 H 0.83133 0.36293 0.81134 0.0
H3373 H 0.82206 0.35278 0.84063 0.0
H3374 H 0.78526 0.38938 0.84222 0.0
H3375 H 0.79417 0.39955 0.81278 0.0
C3376 C 0.87449 0.45312 0.79592 0.0
C3377 C 0.86591 0.46726 0.79183 0.0
C3378 C 0.86512 0.43545 0.79156 0.0
C3379 C 0.8473 0.43206 0.78298 0.0
C3380 C 0.83884 0.44616 0.77864 0.0
C3381 C 0.8483 0.46373 0.78264 0.0
C3382 C 0.837 0.41379 0.77984 0.0
C3383 C 0.82872 0.40696 0.79459 0.0
C3384 C 0.83628 0.40289 0.763 0.0
C3385 C 0.84574 0.40943 0.74747 0.0
C3386 C 0.84016 0.4229 0.7378 0.0
C3387 C 0.84904 0.4288 0.72297 0.0
C3388 C 0.86341 0.42118 0.71759 0.0
C3389 C 0.86892 0.40763 0.72703 0.0
C3390 C 0.86011 0.40173 0.7419 0.0
C3391 C 0.7848 0.33594 0.77684 0.0
C3392 C 0.79556 0.32303 0.77401 0.0
C3393 C 0.79217 0.35405 0.7768 0.0
C3394 C 0.81028 0.35923 0.77392 0.0
C3395 C 0.82076 0.34632 0.77016 0.0
C3396 C 0.81345 0.32828 0.77027 0.0
C3397 C 0.81884 0.37818 0.77609 0.0
C3398 C 0.82703 0.3851 0.76125 0.0
C3399 C 0.81984 0.38908 0.79304 0.0
C3400 C 0.81332 0.38191 0.80984 0.0
C3401 C 0.82105 0.3686 0.8178 0.0
C3402 C 0.81592 0.3629 0.83445 0.0
C3403 C 0.80311 0.37047 0.8433 0.0
C3404 C 0.79521 0.38356 0.83537 0.0
C3405 C 0.8003 0.3893 0.81871 0.0
H3406 H 0.7994 0.36626 0.85635 0.0
H3407 H 0.87023 0.42572 0.70606 0.0
H3408 H 0.05224 0.84991 0.11765 0.0
H3409 H 0.04974 0.87948 0.10737 0.0
H3410 H 0.04095 0.85557 0.05062 0.0
H3411 H 0.04293 0.82628 0.06075 0.0
H3412 H 0.06255 0.88855 0.05253 0.0
H3413 H 0.00611 0.86565 0.07241 0.0
H3414 H 0.98509 0.85299 0.09363 0.0
H3415 H 1.00242 0.90081 0.13221 0.0
H3416 H 0.02381 0.91363 0.11133 0.0
H3417 H 0.02338 0.9591 0.01201 0.0
H3418 H 0.02707 0.93005 0.02262 0.0
H3419 H 0.0438 0.95629 0.07804 0.0
H3420 H 0.04086 0.98538 0.0674 0.0
H3421 H 0.01794 0.92212 0.07662 0.0
H3422 H 0.07537 0.94399 0.05696 0.0
H3423 H 0.0969 0.95583 0.03612 0.0
H3424 H 0.07666 0.90947 0.99611 0.0
H3425 H 0.055 0.8972 0.01704 0.0
C3426 C 0.05009 0.85096 0.10297 0.0
C3427 C 0.04801 0.83534 0.09017 0.0
C3428 C 0.04846 0.86799 0.09701 0.0
C3429 C 0.045 0.8702 0.07801 0.0
C3430 C 0.04362 0.85472 0.0653 0.0
C3431 C 0.04483 0.83774 0.07122 0.0
C3432 C 0.04233 0.88823 0.07127 0.0
C3433 C 0.0526 0.89567 0.05775 0.0
C3434 C 0.02951 0.8981 0.07782 0.0
C3435 C 0.01673 0.8905 0.09043 0.0
C3436 C 0.00558 0.87339 0.08551 0.0
C3437 C 0.99357 0.8662 0.09745 0.0
C3438 C 0.99247 0.87606 0.11429 0.0
C3439 C 1.00333 0.89316 0.11919 0.0
C3440 C 0.0154 0.9004 0.1073 0.0
C3441 C 0.0279 0.95879 0.02647 0.0
C3442 C 0.0319 0.97499 0.03868 0.0
C3443 C 0.03004 0.942 0.03259 0.0
C3444 C 0.03578 0.94054 0.05132 0.0
C3445 C 0.03935 0.95664 0.06357 0.0
C3446 C 0.03771 0.97347 0.05737 0.0
C3447 C 0.0383 0.92248 0.05807 0.0
C3448 C 0.0279 0.91499 0.07147 0.0
C3449 C 0.05087 0.91245 0.05129 0.0
C3450 C 0.0634 0.91984 0.03841 0.0
C3451 C 0.07535 0.93642 0.04362 0.0
C3452 C 0.08763 0.94319 0.03179 0.0
C3453 C 0.08807 0.93354 0.01463 0.0
C3454 C 0.07626 0.91699 0.00936 0.0
C3455 C 0.06402 0.91008 0.02124 0.0
H3456 H 0.09762 0.93883 0.00548 0.0
H3457 H 0.98315 0.87048 0.12352 0.0
H3458 H 0.96418 0.25516 0.88162 0.0
H3459 H 0.937 0.25719 0.86141 0.0
H3460 H 0.91539 0.28044 0.90818 0.0
H3461 H 0.94319 0.27958 0.92817 0.0
H3462 H 0.89971 0.24019 0.86807 0.0
H3463 H 0.90415 0.3038 0.89802 0.0
H3464 H 0.91286 0.33672 0.90518 0.0
H3465 H 0.92364 0.34136 0.84909 0.0
H3466 H 0.91612 0.30834 0.842 0.0
H3467 H 0.81238 0.25026 0.82285 0.0
H3468 H 0.83874 0.24907 0.84469 0.0
H3469 H 0.87316 0.28199 0.8124 0.0
H3470 H 0.84691 0.28399 0.79123 0.0
H3471 H 0.88116 0.29453 0.84668 0.0
H3472 H 0.87108 0.23424 0.81511 0.0
H3473 H 0.85263 0.20406 0.80452 0.0
H3474 H 0.84729 0.1946 0.86078 0.0
H3475 H 0.86514 0.22499 0.87177 0.0
C3476 C 0.95394 0.26133 0.88752 0.0
C3477 C 0.95639 0.2679 0.90648 0.0
C3478 C 0.93824 0.26241 0.87589 0.0
C3479 C 0.92414 0.26981 0.88281 0.0
C3480 C 0.92624 0.27569 0.90197 0.0
C3481 C 0.94211 0.27482 0.91358 0.0
C3482 C 0.90666 0.26917 0.87035 0.0
C3483 C 0.89571 0.25219 0.86357 0.0
C3484 C 0.90102 0.28461 0.86397 0.0
C3485 C 0.91052 0.30342 0.86977 0.0
C3486 C 0.90951 0.31167 0.88756 0.0
C3487 C 0.91386 0.33045 0.8915 0.0
C3488 C 0.91874 0.34116 0.8776 0.0
C3489 C 0.91982 0.3331 0.85986 0.0
C3490 C 0.9159 0.31434 0.85601 0.0
C3491 C 0.82559 0.25715 0.82029 0.0
C3492 C 0.82733 0.26704 0.80493 0.0
C3493 C 0.84077 0.25633 0.8328 0.0
C3494 C 0.85827 0.26523 0.83029 0.0
C3495 C 0.86 0.27487 0.81481 0.0
C3496 C 0.84486 0.27581 0.80243 0.0
C3497 C 0.87463 0.26576 0.84423 0.0
C3498 C 0.88532 0.28257 0.85119 0.0
C3499 C 0.87987 0.25029 0.85079 0.0
C3500 C 0.86933 0.23196 0.84425 0.0
C3501 C 0.86582 0.2258 0.82523 0.0
C3502 C 0.85542 0.20867 0.81917 0.0
C3503 C 0.84865 0.19749 0.83199 0.0
C3504 C 0.85235 0.20338 0.85091 0.0
C3505 C 0.86261 0.22055 0.85706 0.0
H3506 H 0.84062 0.18422 0.82729 0.0
H3507 H 0.9218 0.35569 0.8806 0.0
H3508 H 0.55811 0.24515 0.5704 0.0
H3509 H 0.55759 0.21435 0.5572 0.0
H3510 H 0.52694 0.19424 0.60014 0.0
H3511 H 0.52929 0.2251 0.6143 0.0
H3512 H 0.54663 0.1741 0.59782 0.0
H3513 H 0.50963 0.17944 0.53334 0.0
H3514 H 0.50602 0.19264 0.50391 0.0
H3515 H 0.56359 0.20502 0.50411 0.0
H3516 H 0.56743 0.19075 0.53281 0.0
H3517 H 0.51968 0.08188 0.56253 0.0
H3518 H 0.52139 0.11384 0.57147 0.0
H3519 H 0.55893 0.1268 0.53188 0.0
H3520 H 0.55634 0.09457 0.52203 0.0
H3521 H 0.53907 0.15039 0.53149 0.0
H3522 H 0.57107 0.13093 0.58244 0.0
H3523 H 0.5757 0.11144 0.60684 0.0
H3524 H 0.53059 0.12565 0.63187 0.0
H3525 H 0.52553 0.14503 0.60747 0.0
C3526 C 0.55098 0.23413 0.57684 0.0
C3527 C 0.54355 0.23785 0.5934 0.0
C3528 C 0.55043 0.21616 0.56903 0.0
C3529 C 0.54193 0.20107 0.57712 0.0
C3530 C 0.53389 0.20506 0.59334 0.0
C3531 C 0.53504 0.22294 0.60147 0.0
C3532 C 0.54244 0.18136 0.57011 0.0
C3533 C 0.54451 0.16912 0.58323 0.0
C3534 C 0.54094 0.17409 0.55111 0.0
C3535 C 0.53884 0.18484 0.53561 0.0
C3536 C 0.5215 0.1853 0.52726 0.0
C3537 C 0.51941 0.19265 0.51054 0.0
C3538 C 0.53457 0.2 0.50237 0.0
C3539 C 0.55187 0.19957 0.5106 0.0
C3540 C 0.554 0.19167 0.52695 0.0
C3541 C 0.52844 0.0914 0.55568 0.0
C3542 C 0.53824 0.08519 0.54174 0.0
C3543 C 0.52952 0.10995 0.56099 0.0
C3544 C 0.54074 0.12327 0.55292 0.0
C3545 C 0.55028 0.11714 0.53869 0.0
C3546 C 0.54898 0.09849 0.53315 0.0
C3547 C 0.54225 0.14336 0.55921 0.0
C3548 C 0.5408 0.15552 0.54606 0.0
C3549 C 0.54459 0.15062 0.57815 0.0
C3550 C 0.54786 0.13933 0.59307 0.0
C3551 C 0.56211 0.12985 0.59313 0.0
C3552 C 0.5648 0.11881 0.60694 0.0
C3553 C 0.55343 0.11728 0.62088 0.0
C3554 C 0.53938 0.12684 0.62107 0.0
C3555 C 0.53661 0.13787 0.60726 0.0
H3556 H 0.55552 0.10871 0.63155 0.0
H3557 H 0.5329 0.20588 0.48956 0.0
H3558 H 0.55747 0.79999 0.40775 0.0
H3559 H 0.58381 0.79895 0.39138 0.0
H3560 H 0.57687 0.74183 0.39441 0.0
H3561 H 0.54996 0.7428 0.41081 0.0
H3562 H 0.6156 0.76326 0.3998 0.0
H3563 H 0.56258 0.75052 0.35584 0.0
H3564 H 0.53299 0.755 0.3423 0.0
H3565 H 0.55671 0.80864 0.33271 0.0
H3566 H 0.58655 0.80445 0.34625 0.0
H3567 H 0.67834 0.76219 0.33227 0.0
H3568 H 0.65094 0.75336 0.34742 0.0
H3569 H 0.63745 0.80534 0.34169 0.0
H3570 H 0.66457 0.81402 0.32653 0.0
H3571 H 0.60745 0.78094 0.33638 0.0
H3572 H 0.65954 0.79488 0.38263 0.0
H3573 H 0.68916 0.7914 0.39739 0.0
H3574 H 0.66718 0.73635 0.40367 0.0
H3575 H 0.63748 0.73946 0.38871 0.0
C3576 C 0.56184 0.78725 0.4055 0.0
C3577 C 0.55168 0.77151 0.41083 0.0
C3578 C 0.57687 0.78666 0.39596 0.0
C3579 C 0.58229 0.77031 0.3914 0.0
C3580 C 0.57299 0.75465 0.39777 0.0
C3581 C 0.55772 0.75522 0.40733 0.0
C3582 C 0.59678 0.76982 0.37885 0.0
C3583 C 0.6137 0.76668 0.38577 0.0
C3584 C 0.59455 0.77467 0.36064 0.0
C3585 C 0.57676 0.77722 0.35219 0.0
C3586 C 0.56147 0.76331 0.35094 0.0
C3587 C 0.54464 0.7658 0.34326 0.0
C3588 C 0.5429 0.78215 0.33676 0.0
C3589 C 0.55806 0.79599 0.33779 0.0
C3590 C 0.57496 0.79355 0.34541 0.0
C3591 C 0.66927 0.77154 0.33387 0.0
C3592 C 0.67368 0.78883 0.32822 0.0
C3593 C 0.65369 0.76657 0.34274 0.0
C3594 C 0.64213 0.77878 0.34614 0.0
C3595 C 0.64604 0.79564 0.33944 0.0
C3596 C 0.66161 0.80061 0.33074 0.0
C3597 C 0.62652 0.77464 0.35736 0.0
C3598 C 0.60935 0.77709 0.35023 0.0
C3599 C 0.62859 0.76921 0.3754 0.0
C3600 C 0.64639 0.76733 0.38436 0.0
C3601 C 0.66108 0.782 0.38703 0.0
C3602 C 0.67786 0.7801 0.39545 0.0
C3603 C 0.68007 0.76364 0.4014 0.0
C3604 C 0.66547 0.74907 0.399 0.0
C3605 C 0.64866 0.75089 0.39056 0.0
H3606 H 0.69307 0.7622 0.40793 0.0
H3607 H 0.52983 0.78406 0.33087 0.0
H3608 H 0.02641 0.26603 0.41506 0.0
H3609 H 0.02473 0.23946 0.43131 0.0
H3610 H 0.04177 0.21073 0.38452 0.0
H3611 H 0.04211 0.23727 0.36756 0.0
H3612 H 0.01892 0.18824 0.39773 0.0
H3613 H 0.07089 0.23007 0.42836 0.0
H3614 H 0.08766 0.2595 0.44387 0.0
H3615 H 0.05295 0.25614 0.48694 0.0
H3616 H 0.03583 0.2268 0.47158 0.0
H3617 H 0.0309 0.11688 0.4505 0.0
H3618 H 0.03942 0.14357 0.43443 0.0
H3619 H 0.01478 0.1747 0.47338 0.0
H3620 H 0.00644 0.14802 0.4895 0.0
H3621 H 0.04493 0.19534 0.4636 0.0
H3622 H 0.99183 0.15497 0.43142 0.0
H3623 H 0.97497 0.12556 0.41599 0.0
H3624 H 0.01276 0.12628 0.37584 0.0
H3625 H 0.03001 0.15559 0.39123 0.0
C3626 C 0.02977 0.25405 0.40817 0.0
C3627 C 0.03454 0.25385 0.39005 0.0
C3628 C 0.02901 0.23882 0.41761 0.0
C3629 C 0.03379 0.22306 0.4096 0.0
C3630 C 0.03819 0.22268 0.39124 0.0
C3631 C 0.0384 0.23786 0.3815 0.0
C3632 C 0.03381 0.20708 0.42036 0.0
C3633 C 0.02498 0.18984 0.41201 0.0
C3634 C 0.0414 0.20888 0.4392 0.0
C3635 C 0.05202 0.22627 0.44876 0.0
C3636 C 0.06682 0.23563 0.44112 0.0
C3637 C 0.07637 0.2523 0.44988 0.0
C3638 C 0.07136 0.25969 0.46636 0.0
C3639 C 0.05682 0.25039 0.47418 0.0
C3640 C 0.04721 0.23373 0.46547 0.0
C3641 C 0.02786 0.12959 0.45596 0.0
C3642 C 0.01825 0.13044 0.47142 0.0
C3643 C 0.03253 0.14481 0.44665 0.0
C3644 C 0.0275 0.1612 0.45242 0.0
C3645 C 0.01884 0.1623 0.46856 0.0
C3646 C 0.01414 0.14706 0.47785 0.0
C3647 C 0.02993 0.1767 0.44097 0.0
C3648 C 0.03916 0.1938 0.44923 0.0
C3649 C 0.02283 0.17478 0.42203 0.0
C3650 C 0.01229 0.15737 0.41256 0.0
C3651 C 0.99659 0.1488 0.41935 0.0
C3652 C 0.98697 0.13216 0.41062 0.0
C3653 C 0.99281 0.12403 0.39497 0.0
C3654 C 0.00826 0.13258 0.38798 0.0
C3655 C 0.01796 0.14921 0.3967 0.0
H3656 H 0.98535 0.11114 0.38823 0.0
H3657 H 0.07874 0.27262 0.4731 0.0
H3658 H 0.58094 0.27627 0.18546 0.0
H3659 H 0.61268 0.27961 0.19784 0.0
H3660 H 0.59717 0.24306 0.2377 0.0
H3661 H 0.56528 0.24147 0.22655 0.0
H3662 H 0.62402 0.26246 0.25403 0.0
H3663 H 0.61879 0.23442 0.19052 0.0
H3664 H 0.61158 0.23236 0.15662 0.0
H3665 H 0.64807 0.2827 0.15596 0.0
H3666 H 0.65536 0.28512 0.18985 0.0
H3667 H 0.71473 0.24524 0.27313 0.0
H3668 H 0.68237 0.24276 0.26317 0.0
H3669 H 0.69515 0.28571 0.22937 0.0
H3670 H 0.72718 0.28781 0.23871 0.0
H3671 H 0.67004 0.26233 0.21043 0.0
H3672 H 0.67634 0.28978 0.2733 0.0
H3673 H 0.68435 0.29198 0.30708 0.0
H3674 H 0.64672 0.24265 0.30893 0.0
H3675 H 0.63865 0.24004 0.27512 0.0
C3676 C 0.58429 0.26904 0.19696 0.0
C3677 C 0.57035 0.25856 0.20489 0.0
C3678 C 0.60269 0.27067 0.20394 0.0
C3679 C 0.60809 0.261 0.21845 0.0
C3680 C 0.59398 0.25071 0.22652 0.0
C3681 C 0.57553 0.24972 0.22004 0.0
C3682 C 0.62811 0.26152 0.22518 0.0
C3683 C 0.63388 0.2621 0.24429 0.0
C3684 C 0.64176 0.26157 0.21303 0.0
C3685 C 0.63748 0.26001 0.19269 0.0
C3686 C 0.62521 0.24506 0.18312 0.0
C3687 C 0.62112 0.24384 0.16392 0.0
C3688 C 0.62933 0.25741 0.15415 0.0
C3689 C 0.6417 0.27221 0.16354 0.0
C3690 C 0.64584 0.2735 0.18273 0.0
C3691 C 0.71073 0.25399 0.26338 0.0
C3692 C 0.72401 0.2666 0.25672 0.0
C3693 C 0.69201 0.25275 0.25783 0.0
C3694 C 0.68582 0.26417 0.24549 0.0
C3695 C 0.69913 0.27662 0.2388 0.0
C3696 C 0.7177 0.27784 0.24429 0.0
C3697 C 0.66578 0.26315 0.2391 0.0
C3698 C 0.66007 0.26253 0.22009 0.0
C3699 C 0.65227 0.26302 0.25133 0.0
C3700 C 0.65702 0.26462 0.27166 0.0
C3701 C 0.66986 0.27934 0.2809 0.0
C3702 C 0.6744 0.28067 0.30005 0.0
C3703 C 0.66608 0.26744 0.31013 0.0
C3704 C 0.65317 0.25287 0.30109 0.0
C3705 C 0.6486 0.25147 0.28194 0.0
H3706 H 0.66961 0.26849 0.32496 0.0
H3707 H 0.62612 0.25645 0.13929 0.0
H3708 H 0.56404 0.87599 0.88115 0.0
H3709 H 0.56325 0.90237 0.90333 0.0
H3710 H 0.52071 0.87072 0.92793 0.0
H3711 H 0.52211 0.8442 0.90652 0.0
H3712 H 0.51486 0.90758 0.91736 0.0
H3713 H 0.5544 0.87898 0.9532 0.0
H3714 H 0.58074 0.86519 0.9607 0.0
H3715 H 0.61644 0.91495 0.95571 0.0
H3716 H 0.59027 0.92893 0.94776 0.0
H3717 H 0.51164 0.96833 1.00011 0.0
H3718 H 0.5133 0.94157 0.97905 0.0
H3719 H 0.55984 0.97139 0.95867 0.0
H3720 H 0.55764 0.99841 0.97906 0.0
H3721 H 0.56377 0.93507 0.96756 0.0
H3722 H 0.5244 0.96225 0.92835 0.0
H3723 H 0.49807 0.97508 0.91806 0.0
H3724 H 0.46226 0.92797 0.93005 0.0
H3725 H 0.48844 0.9146 0.93984 0.0
C3726 C 0.55468 0.87455 0.89143 0.0
C3727 C 0.54331 0.8577 0.89203 0.0
C3728 C 0.55421 0.88973 0.90418 0.0
C3729 C 0.54191 0.88881 0.91755 0.0
C3730 C 0.5304 0.87204 0.91796 0.0
C3731 C 0.5313 0.85675 0.90568 0.0
C3732 C 0.54072 0.90528 0.93072 0.0
C3733 C 0.52551 0.91337 0.92847 0.0
C3734 C 0.55459 0.91334 0.94521 0.0
C3735 C 0.57037 0.90491 0.94954 0.0
C3736 C 0.56786 0.8869 0.95337 0.0
C3737 C 0.58276 0.87906 0.95779 0.0
C3738 C 0.60026 0.88916 0.95859 0.0
C3739 C 0.60288 0.90712 0.955 0.0
C3740 C 0.58801 0.915 0.95053 0.0
C3741 C 0.5222 0.96927 0.99111 0.0
C3742 C 0.53443 0.98579 0.99143 0.0
C3743 C 0.52314 0.95385 0.97896 0.0
C3744 C 0.53671 0.95414 0.967 0.0
C3745 C 0.54919 0.97053 0.96758 0.0
C3746 C 0.54791 0.9861 0.97933 0.0
C3747 C 0.53795 0.93745 0.95411 0.0
C3748 C 0.55314 0.92927 0.95646 0.0
C3749 C 0.52404 0.92922 0.93974 0.0
C3750 C 0.50833 0.93759 0.93512 0.0
C3751 C 0.51091 0.95475 0.92902 0.0
C3752 C 0.49602 0.96205 0.92316 0.0
C3753 C 0.4785 0.95247 0.92367 0.0
C3754 C 0.47584 0.93543 0.92978 0.0
C3755 C 0.49069 0.92793 0.93538 0.0
H3756 H 0.467 0.9582 0.91921 0.0
H3757 H 0.61178 0.88309 0.96207 0.0
H3758 H 0.95648 0.75921 0.68277 0.0
H3759 H 0.92677 0.76172 0.69279 0.0
H3760 H 0.94806 0.76078 0.74934 0.0
H3761 H 0.97769 0.75895 0.7395 0.0
H3762 H 0.91294 0.74042 0.74274 0.0
H3763 H 0.94194 0.79954 0.73516 0.0
H3764 H 0.95786 0.82379 0.71925 0.0
H3765 H 0.91209 0.81642 0.67781 0.0
H3766 H 0.89599 0.79187 0.69333 0.0
H3767 H 0.8434 0.77921 0.78729 0.0
H3768 H 0.87276 0.77543 0.77721 0.0
H3769 H 0.84909 0.76748 0.7204 0.0
H3770 H 0.81966 0.77032 0.73041 0.0
H3771 H 0.88542 0.79222 0.72749 0.0
H3772 H 0.85607 0.73315 0.73706 0.0
H3773 H 0.84093 0.7097 0.75437 0.0
H3774 H 0.88837 0.71766 0.79376 0.0
H3775 H 0.90363 0.74161 0.77697 0.0
C3776 C 0.95482 0.75919 0.6973 0.0
C3777 C 0.96985 0.75856 0.71014 0.0
C3778 C 0.93769 0.76082 0.70314 0.0
C3779 C 0.93465 0.76151 0.72204 0.0
C3780 C 0.94952 0.76024 0.73472 0.0
C3781 C 0.96668 0.75912 0.72897 0.0
C3782 C 0.91647 0.76421 0.72871 0.0
C3783 C 0.90712 0.75189 0.73948 0.0
C3784 C 0.90827 0.77903 0.72469 0.0
C3785 C 0.91786 0.7937 0.71525 0.0
C3786 C 0.93534 0.80295 0.72254 0.0
C3787 C 0.94438 0.81678 0.71362 0.0
C3788 C 0.93602 0.8216 0.69749 0.0
C3789 C 0.91857 0.81263 0.69028 0.0
C3790 C 0.90948 0.79876 0.69913 0.0
C3791 C 0.84436 0.77664 0.77263 0.0
C3792 C 0.82872 0.77499 0.75981 0.0
C3793 C 0.86133 0.77444 0.7668 0.0
C3794 C 0.86362 0.77108 0.74785 0.0
C3795 C 0.84813 0.77002 0.73506 0.0
C3796 C 0.83109 0.77163 0.74089 0.0
C3797 C 0.8818 0.76834 0.74134 0.0
C3798 C 0.89119 0.78071 0.73068 0.0
C3799 C 0.8901 0.75365 0.74563 0.0
C3800 C 0.88091 0.7394 0.7559 0.0
C3801 C 0.8632 0.73012 0.74957 0.0
C3802 C 0.8546 0.71668 0.75926 0.0
C3803 C 0.86367 0.7122 0.77518 0.0
C3804 C 0.88134 0.72118 0.78145 0.0
C3805 C 0.88996 0.73472 0.77187 0.0
H3806 H 0.85701 0.70173 0.78262 0.0
H3807 H 0.94303 0.83232 0.69061 0.0
H3808 H 0.14045 0.03926 0.86064 0.0
H3809 H 0.12351 0.03446 0.88679 0.0
H3810 H 0.07355 0.02819 0.85108 0.0
H3811 H 0.09064 0.0332 0.8244 0.0
H3812 H 0.07323 0.04944 0.88395 0.0
H3813 H 0.08724 0.99145 0.8676 0.0
H3814 H 0.10725 0.9704 0.85988 0.0
H3815 H 0.13877 0.98659 0.91291 0.0
H3816 H 0.1191 0.00791 0.92084 0.0
H3817 H 0.02331 0.02728 0.95751 0.0
H3818 H 0.03545 0.02637 0.92821 0.0
H3819 H 0.08623 0.01893 0.95535 0.0
H3820 H 0.07284 0.01667 0.98444 0.0
H3821 H 0.08411 1.00296 0.9245 0.0
H3822 H 0.07272 0.06289 0.94022 0.0
H3823 H 0.05349 0.08459 0.94851 0.0
H3824 H 0.01878 0.06656 0.89757 0.0
H3825 H 0.03763 0.04457 0.88913 0.0
C3826 C 0.12585 0.03681 0.85811 0.0
C3827 C 0.11703 0.03658 0.84012 0.0
C3828 C 0.11612 0.03396 0.87324 0.0
C3829 C 0.09716 0.03066 0.87108 0.0
C3830 C 0.08818 0.03061 0.85323 0.0
C3831 C 0.09798 0.03344 0.83791 0.0
C3832 C 0.08704 0.02757 0.88762 0.0
C3833 C 0.07541 0.03909 0.89267 0.0
C3834 C 0.0901 0.01439 0.89941 0.0
C3835 C 0.10176 1.00136 0.89477 0.0
C3836 C 0.0985 0.99059 0.87758 0.0
C3837 C 0.10977 0.9786 0.87317 0.0
C3838 C 0.12429 0.97718 0.88588 0.0
C3839 C 0.12753 0.9877 0.90307 0.0
C3840 C 0.1163 0.99972 0.90754 0.0
C3841 C 0.03681 0.02462 0.95727 0.0
C3842 C 0.04675 0.02136 0.97352 0.0
C3843 C 0.04408 0.02478 0.94037 0.0
C3844 C 0.06218 0.02333 0.93924 0.0
C3845 C 0.07226 0.02018 0.9555 0.0
C3846 C 0.0646 0.01899 0.9723 0.0
C3847 C 0.07056 0.02519 0.92131 0.0
C3848 C 0.08187 0.01337 0.91591 0.0
C3849 C 0.06742 0.03832 0.90934 0.0
C3850 C 0.05651 0.05202 0.91411 0.0
C3851 C 0.06098 0.06357 0.9308 0.0
C3852 C 0.05013 0.07589 0.93554 0.0
C3853 C 0.03491 0.07694 0.92358 0.0
C3854 C 0.03056 0.06573 0.90682 0.0
C3855 C 0.04133 0.05335 0.90204 0.0
H3856 H 0.0265 0.08645 0.9273 0.0
H3857 H 0.13302 0.96791 0.88243 0.0
H3858 H 0.78451 0.37423 0.53587 0.0
H3859 H 0.78487 0.36005 0.5641 0.0
H3860 H 0.796 0.41223 0.59648 0.0
H3861 H 0.79644 0.42679 0.56785 0.0
H3862 H 0.81739 0.39039 0.60916 0.0
H3863 H 0.75342 0.38419 0.59162 0.0
H3864 H 0.72594 0.37636 0.56915 0.0
H3865 H 0.73261 0.32141 0.56154 0.0
H3866 H 0.7603 0.32895 0.58372 0.0
H3867 H 0.81132 0.34595 0.68869 0.0
H3868 H 0.80054 0.36423 0.66582 0.0
H3869 H 0.79514 0.31972 0.62302 0.0
H3870 H 0.80598 0.30141 0.64584 0.0
H3871 H 0.76773 0.34077 0.61884 0.0
H3872 H 0.83212 0.34612 0.62864 0.0
H3873 H 0.86136 0.35106 0.64819 0.0
H3874 H 0.85568 0.40474 0.66705 0.0
H3875 H 0.82614 0.39993 0.64787 0.0
C3876 C 0.78683 0.38278 0.54895 0.0
C3877 C 0.79024 0.40165 0.54968 0.0
C3878 C 0.78694 0.37461 0.5651 0.0
C3879 C 0.78995 0.38507 0.58235 0.0
C3880 C 0.79341 0.40395 0.58323 0.0
C3881 C 0.7936 0.41222 0.56694 0.0
C3882 C 0.79033 0.37603 0.59932 0.0
C3883 C 0.80631 0.37994 0.6116 0.0
C3884 C 0.7761 0.36191 0.60204 0.0
C3885 C 0.75896 0.35716 0.58935 0.0
C3886 C 0.74903 0.37043 0.58516 0.0
C3887 C 0.73343 0.36605 0.57244 0.0
C3888 C 0.72753 0.3484 0.56393 0.0
C3889 C 0.73718 0.33507 0.56817 0.0
C3890 C 0.75281 0.33938 0.58085 0.0
C3891 C 0.80742 0.33998 0.67447 0.0
C3892 C 0.80971 0.32245 0.66884 0.0
C3893 C 0.80125 0.35038 0.66149 0.0
C3894 C 0.79722 0.34329 0.64281 0.0
C3895 C 0.79818 0.32534 0.63742 0.0
C3896 C 0.80455 0.31501 0.65036 0.0
C3897 C 0.7947 0.35524 0.62854 0.0
C3898 C 0.77848 0.35171 0.61672 0.0
C3899 C 0.80883 0.36943 0.62594 0.0
C3900 C 0.8268 0.37258 0.63705 0.0
C3901 C 0.83702 0.35892 0.63708 0.0
C3902 C 0.85366 0.3617 0.64808 0.0
C3903 C 0.86035 0.37819 0.6589 0.0
C3904 C 0.85045 0.39196 0.65869 0.0
C3905 C 0.83375 0.38921 0.64777 0.0
H3906 H 0.87323 0.38032 0.66742 0.0
H3907 H 0.71549 0.34505 0.55404 0.0
H3908 H 0.42582 0.01116 0.33761 0.0
H3909 H 0.44741 0.01481 0.36518 0.0
H3910 H 0.41086 0.03809 0.39728 0.0
H3911 H 0.3888 0.03432 0.36956 0.0
H3912 H 0.44993 0.05703 0.40019 0.0
H3913 H 0.41111 0.99901 0.4023 0.0
H3914 H 0.39557 0.9683 0.38937 0.0
H3915 H 0.44662 0.95373 0.38171 0.0
H3916 H 0.46246 0.98449 0.39421 0.0
H3917 H 0.4909 0.05322 0.48934 0.0
H3918 H 0.47104 0.0524 0.46101 0.0
H3919 H 0.49827 0.01444 0.4331 0.0
H3920 H 0.51718 0.01396 0.46183 0.0
H3921 H 0.46403 1.00319 0.42735 0.0
H3922 H 0.5036 0.05889 0.42408 0.0
H3923 H 0.52109 0.08925 0.43565 0.0
H3924 H 0.47195 0.10799 0.44309 0.0
H3925 H 0.45416 0.07765 0.43188 0.0
C3926 C 0.42241 0.01726 0.35048 0.0
C3927 C 0.40575 0.02261 0.35158 0.0
C3928 C 0.43469 0.0192 0.36613 0.0
C3929 C 0.43046 0.02659 0.38297 0.0
C3930 C 0.41407 0.03232 0.38418 0.0
C3931 C 0.4016 0.03015 0.36849 0.0
C3932 C 0.44335 0.02816 0.39931 0.0
C3933 C 0.45292 0.04537 0.40642 0.0
C3934 C 0.44753 0.01269 0.40652 0.0
C3935 C 0.43796 0.99415 0.399 0.0
C3936 C 0.41902 0.98934 0.39765 0.0
C3937 C 0.41015 0.9719 0.39043 0.0
C3938 C 0.42009 0.95908 0.38467 0.0
C3939 C 0.43893 0.96368 0.38614 0.0
C3940 C 0.44786 0.98112 0.39329 0.0
C3941 C 0.49275 0.04481 0.47713 0.0
C3942 C 0.50566 0.0338 0.47764 0.0
C3943 C 0.48154 0.0445 0.46095 0.0
C3944 C 0.48351 0.03362 0.44501 0.0
C3945 C 0.49674 0.02301 0.44533 0.0
C3946 C 0.50762 0.02292 0.46165 0.0
C3947 C 0.47071 0.03216 0.42846 0.0
C3948 C 0.46116 0.01493 0.4212 0.0
C3949 C 0.46689 0.04758 0.42081 0.0
C3950 C 0.47754 0.06595 0.42724 0.0
C3951 C 0.49652 0.06946 0.42827 0.0
C3952 C 0.50649 0.08667 0.43477 0.0
C3953 C 0.49764 0.10054 0.44012 0.0
C3954 C 0.47879 0.09723 0.43894 0.0
C3955 C 0.46875 0.08003 0.4325 0.0
H3956 H 0.50538 0.11385 0.44515 0.0
H3957 H 0.4132 0.94558 0.37911 0.0
H3958 H 0.779 0.72271 0.06086 0.0
H3959 H 0.78024 0.73651 0.09275 0.0
H3960 H 0.76023 0.68435 0.10944 0.0
H3961 H 0.75872 0.67055 0.07749 0.0
H3962 H 0.74287 0.70723 0.12459 0.0
H3963 H 0.80571 0.70834 0.12081 0.0
H3964 H 0.83498 0.71524 0.10838 0.0
H3965 H 0.83477 0.77182 0.11731 0.0
H3966 H 0.80536 0.76524 0.12955 0.0
H3967 H 0.76942 0.72978 0.22296 0.0
H3968 H 0.76863 0.7181 0.19039 0.0
H3969 H 0.76805 0.7711 0.17455 0.0
H3970 H 0.76815 0.7828 0.20726 0.0
H3971 H 0.79617 0.74925 0.15918 0.0
H3972 H 0.73208 0.74798 0.15837 0.0
H3973 H 0.70223 0.74144 0.16961 0.0
H3974 H 0.70604 0.68586 0.17021 0.0
H3975 H 0.73572 0.69202 0.15834 0.0
C3976 C 0.77502 0.71411 0.07133 0.0
C3977 C 0.76879 0.69544 0.06645 0.0
C3978 C 0.77581 0.72206 0.08969 0.0
C3979 C 0.7705 0.71157 0.10384 0.0
C3980 C 0.76443 0.69288 0.09898 0.0
C3981 C 0.76364 0.68494 0.08062 0.0
C3982 C 0.77052 0.72007 0.12342 0.0
C3983 C 0.75469 0.71621 0.1321 0.0
C3984 C 0.78565 0.73229 0.13344 0.0
C3985 C 0.80322 0.73628 0.12589 0.0
C3986 C 0.81181 0.72224 0.11994 0.0
C3987 C 0.82845 0.7261 0.11297 0.0
C3988 C 0.8367 0.74395 0.112 0.0
C3989 C 0.82834 0.75799 0.11803 0.0
C3990 C 0.81169 0.75421 0.12499 0.0
C3991 C 0.76901 0.73898 0.21257 0.0
C3992 C 0.76892 0.75728 0.21781 0.0
C3993 C 0.76857 0.73226 0.19389 0.0
C3994 C 0.76844 0.74369 0.1799 0.0
C3995 C 0.76823 0.76198 0.18503 0.0
C3996 C 0.7682 0.76864 0.20374 0.0
C3997 C 0.7686 0.73632 0.16006 0.0
C3998 C 0.78443 0.7403 0.15148 0.0
C3999 C 0.75356 0.72423 0.15007 0.0
C4000 C 0.73611 0.72049 0.1577 0.0
C4001 C 0.72658 0.7344 0.16104 0.0
C4002 C 0.70967 0.73074 0.16742 0.0
C4003 C 0.70232 0.71328 0.17085 0.0
C4004 C 0.71178 0.69939 0.16764 0.0
C4005 C 0.72858 0.70292 0.16094 0.0
H4006 H 0.68926 0.71051 0.17591 0.0
H4007 H 0.84959 0.74691 0.10661 0.0
H4008 H 0.12585 0.01589 0.72014 0.0
H4009 H 0.11149 0.01361 0.68825 0.0
H4010 H 0.0785 0.0512 0.70576 0.0
H4011 H 0.09163 0.05191 0.73783 0.0
H4012 H 0.05884 0.03039 0.68165 0.0
H4013 H 0.12131 0.06004 0.67991 0.0
H4014 H 0.15441 0.06251 0.68401 0.0
H4015 H 0.14906 0.01363 0.64748 0.0
H4016 H 0.11594 0.0108 0.64331 0.0
H4017 H 0.03154 0.05098 0.59096 0.0
H4018 H 0.04454 0.05184 0.62299 0.0
H4019 H 0.07551 0.01227 0.60587 0.0
H4020 H 0.06385 0.01273 0.57374 0.0
H4021 H 0.09602 0.03396 0.62957 0.0
H4022 H 0.03385 0.00463 0.63053 0.0
H4023 H 1.00079 1.00223 0.62576 0.0
H4024 H 0.00549 0.0504 0.6632 0.0
H4025 H 0.03859 0.05319 0.66803 0.0
C4026 C 0.11545 0.02356 0.71713 0.0
C4027 C 0.10988 0.03408 0.73151 0.0
C4028 C 0.10734 0.02248 0.69875 0.0
C4029 C 0.09412 0.03269 0.69405 0.0
C4030 C 0.08858 0.04313 0.70862 0.0
C4031 C 0.09616 0.04362 0.72706 0.0
C4032 C 0.08591 0.03249 0.67421 0.0
C4033 C 0.06712 0.03143 0.67038 0.0
C4034 C 0.09629 0.03332 0.65901 0.0
C4035 C 0.11618 0.03514 0.66144 0.0
C4036 C 0.12721 0.0498 0.67282 0.0
C4037 C 0.14597 0.05126 0.67515 0.0
C4038 C 0.15383 0.03821 0.66605 0.0
C4039 C 0.14296 0.02371 0.65454 0.0
C4040 C 0.12421 0.02218 0.65217 0.0
C4041 C 0.04135 0.04273 0.59392 0.0
C4042 C 0.0469 0.03218 0.57949 0.0
C4043 C 0.04859 0.04292 0.61245 0.0
C4044 C 0.06099 0.03192 0.61727 0.0
C4045 C 0.06615 0.02105 0.60284 0.0
C4046 C 0.05934 0.02126 0.58432 0.0
C4047 C 0.06902 0.03192 0.63707 0.0
C4048 C 0.08776 0.03294 0.64088 0.0
C4049 C 0.0586 0.03105 0.65221 0.0
C4050 C 0.03869 0.02918 0.64953 0.0
C4051 C 0.02783 0.01474 0.63769 0.0
C4052 C 0.00909 0.01331 0.63497 0.0
C4053 C 1.00105 0.02618 0.64414 0.0
C4054 C 0.01173 0.04046 0.6561 0.0
C4055 C 0.03048 0.04195 0.65885 0.0
H4056 H 0.98655 0.02506 0.642 0.0
H4057 H 0.16835 0.03936 0.66788 0.0
H4058 H 0.79561 0.41823 0.42776 0.0
H4059 H 0.79186 0.39514 0.40151 0.0
H4060 H 0.77147 0.35443 0.4356 0.0
H4061 H 0.77592 0.37736 0.46228 0.0
H4062 H 0.7968 0.34503 0.41317 0.0
H4063 H 0.74232 0.37097 0.40776 0.0
H4064 H 0.72704 0.39684 0.40645 0.0
H4065 H 0.75296 0.41145 0.3589 0.0
H4066 H 0.76858 0.38583 0.36011 0.0
H4067 H 0.76799 0.27947 0.3373 0.0
H4068 H 0.76777 0.29874 0.36529 0.0
H4069 H 0.77723 0.3451 0.33517 0.0
H4070 H 0.77547 0.3255 0.30681 0.0
H4071 H 0.75571 0.34994 0.35754 0.0
H4072 H 0.81199 0.32887 0.36202 0.0
H4073 H 0.83107 0.3059 0.36209 0.0
H4074 H 0.80765 0.28576 0.40898 0.0
H4075 H 0.78823 0.30842 0.409 0.0
C4076 C 0.79027 0.40439 0.42967 0.0
C4077 C 0.78599 0.3995 0.44694 0.0
C4078 C 0.7882 0.39128 0.41473 0.0
C4079 C 0.78123 0.37332 0.41682 0.0
C4080 C 0.77688 0.36834 0.43397 0.0
C4081 C 0.77929 0.3814 0.44904 0.0
C4082 C 0.77802 0.35981 0.40085 0.0
C4083 C 0.78766 0.34583 0.40102 0.0
C4084 C 0.76649 0.36148 0.38506 0.0
C4085 C 0.75661 0.37651 0.38405 0.0
C4086 C 0.74477 0.37972 0.39706 0.0
C4087 C 0.73607 0.39435 0.39634 0.0
C4088 C 0.73903 0.40578 0.3826 0.0
C4089 C 0.75066 0.40258 0.36952 0.0
C4090 C 0.75941 0.388 0.3702 0.0
C4091 C 0.77001 0.29357 0.3365 0.0
C4092 C 0.77247 0.30082 0.31986 0.0
C4093 C 0.76992 0.30467 0.3526 0.0
C4094 C 0.77317 0.32331 0.35235 0.0
C4095 C 0.77485 0.33066 0.33564 0.0
C4096 C 0.77394 0.31942 0.31943 0.0
C4097 C 0.7749 0.3353 0.36946 0.0
C4098 C 0.76482 0.34894 0.36963 0.0
C4099 C 0.78661 0.3337 0.38524 0.0
C4100 C 0.79852 0.32023 0.3854 0.0
C4101 C 0.81084 0.31948 0.37228 0.0
C4102 C 0.82172 0.30652 0.3723 0.0
C4103 C 0.82055 0.29435 0.3855 0.0
C4104 C 0.80853 0.29517 0.39874 0.0
C4105 C 0.79759 0.30807 0.39875 0.0
H4106 H 0.82897 0.28432 0.38549 0.0
H4107 H 0.7323 0.41711 0.38208 0.0
H4108 H 0.4333 0.03021 0.26221 0.0
H4109 H 0.44721 0.02987 0.23373 0.0
H4110 H 0.39463 0.01349 0.20198 0.0
H4111 H 0.38047 0.01311 0.23078 0.0
H4112 H 0.41824 0.99353 0.19063 0.0
H4113 H 0.41879 0.05659 0.20332 0.0
H4114 H 0.42399 0.08493 0.22426 0.0
H4115 H 0.48061 0.08413 0.23325 0.0
H4116 H 0.47572 0.05562 0.21261 0.0
H4117 H 0.4608 0.9991 0.1099 0.0
H4118 H 0.44215 0.00931 0.13262 0.0
H4119 H 0.48777 0.01887 0.17492 0.0
H4120 H 0.50658 0.00876 0.15221 0.0
H4121 H 0.46421 0.04499 0.17755 0.0
H4122 H 0.46362 0.98112 0.17174 0.0
H4123 H 0.46041 0.95147 0.15353 0.0
H4124 H 0.40545 0.9529 0.13413 0.0
H4125 H 0.40851 0.98282 0.15193 0.0
C4126 C 0.42462 0.02679 0.24919 0.0
C4127 C 0.40578 0.02185 0.24867 0.0
C4128 C 0.4326 0.02666 0.23291 0.0
C4129 C 0.42191 0.02205 0.21577 0.0
C4130 C 0.40306 0.01726 0.21513 0.0
C4131 C 0.39502 0.01713 0.23152 0.0
C4132 C 0.43073 0.02142 0.1987 0.0
C4133 C 0.42788 0.00493 0.18744 0.0
C4134 C 0.44368 0.03619 0.19494 0.0
C4135 C 0.44688 0.05396 0.20639 0.0
C4136 C 0.43236 0.06248 0.20973 0.0
C4137 C 0.43525 0.07855 0.22159 0.0
C4138 C 0.45262 0.08633 0.23008 0.0
C4139 C 0.46717 0.07811 0.22663 0.0
C4140 C 0.46436 0.06201 0.21481 0.0
C4141 C 0.46693 1.00371 0.12396 0.0
C4142 C 0.48501 1.00288 0.12946 0.0
C4143 C 0.45631 0.0096 0.13685 0.0
C4144 C 0.46365 0.01475 0.15535 0.0
C4145 C 0.48197 0.01501 0.16063 0.0
C4146 C 0.49258 0.00898 0.14777 0.0
C4147 C 0.45169 0.01713 0.16965 0.0
C4148 C 0.45408 0.03383 0.18041 0.0
C4149 C 0.43846 1.00252 0.17315 0.0
C4150 C 0.43636 0.98429 0.16295 0.0
C4151 C 0.4509 0.97518 0.16348 0.0
C4152 C 0.44911 0.95833 0.15323 0.0
C4153 C 0.43275 0.95033 0.14263 0.0
C4154 C 0.41813 0.95915 0.14232 0.0
C4155 C 0.41988 0.97605 0.15247 0.0
H4156 H 0.43139 0.93729 0.13469 0.0
H4157 H 0.45481 0.09873 0.23933 0.0
H4158 H 0.75635 0.71211 0.96873 0.0
H4159 H 0.76033 0.72859 0.94152 0.0
H4160 H 0.78441 0.68674 0.91628 0.0
H4161 H 0.78032 0.67026 0.94309 0.0
H4162 H 0.8029 0.72 0.91094 0.0
H4163 H 0.74093 0.6886 0.90363 0.0
H4164 H 0.71012 0.68039 0.91232 0.0
H4165 H 0.70417 0.73552 0.91347 0.0
H4166 H 0.7351 0.74412 0.90512 0.0
H4167 H 0.79418 0.73657 0.8154 0.0
H4168 H 0.79305 0.72345 0.84484 0.0
H4169 H 0.7654 0.76435 0.86589 0.0
H4170 H 0.76636 0.77732 0.83669 0.0
H4171 H 0.74926 0.73304 0.87437 0.0
H4172 H 0.81022 0.76476 0.88066 0.0
H4173 H 0.84106 0.77374 0.8723 0.0
H4174 H 0.84924 0.71949 0.87363 0.0
H4175 H 0.81831 0.7101 0.88168 0.0
C4176 C 0.76268 0.70653 0.95748 0.0
C4177 C 0.76795 0.68977 0.95821 0.0
C4178 C 0.76486 0.71592 0.94183 0.0
C4179 C 0.77258 0.70892 0.9266 0.0
C4180 C 0.77842 0.69254 0.92768 0.0
C4181 C 0.77599 0.68306 0.9431 0.0
C4182 C 0.77412 0.71816 0.90928 0.0
C4183 C 0.79112 0.72269 0.90288 0.0
C4184 C 0.75892 0.72215 0.89878 0.0
C4185 C 0.74041 0.71704 0.904 0.0
C4186 C 0.73313 0.699 0.90594 0.0
C4187 C 0.71563 0.69427 0.91077 0.0
C4188 C 0.70522 0.70743 0.9135 0.0
C4189 C 0.71227 0.72535 0.9114 0.0
C4190 C 0.72979 0.73016 0.90663 0.0
C4191 C 0.78794 0.74281 0.82633 0.0
C4192 C 0.78047 0.75812 0.82355 0.0
C4193 C 0.78735 0.73533 0.84326 0.0
C4194 C 0.77923 0.7429 0.85787 0.0
C4195 C 0.77175 0.75814 0.85502 0.0
C4196 C 0.77242 0.76564 0.83823 0.0
C4197 C 0.77804 0.73482 0.87591 0.0
C4198 C 0.76109 0.73047 0.88245 0.0
C4199 C 0.79332 0.73113 0.88658 0.0
C4200 C 0.81186 0.73668 0.88156 0.0
C4201 C 0.81852 0.7547 0.87898 0.0
C4202 C 0.83603 0.75987 0.87433 0.0
C4203 C 0.84709 0.74718 0.87239 0.0
C4204 C 0.84065 0.7293 0.8751 0.0
C4205 C 0.82313 0.72404 0.87971 0.0
H4206 H 0.86065 0.75122 0.86882 0.0
H4207 H 0.69165 0.70373 0.9172 0.0
H4208 H 0.80042 0.08331 0.02345 0.0
H4209 H 0.82862 0.07357 0.03064 0.0
H4210 H 0.85132 0.12492 0.0625 0.0
H4211 H 0.82265 0.13489 0.05568 0.0
H4212 H 0.86964 0.11331 0.03198 0.0
H4213 H 0.84839 0.09101 0.08639 0.0
H4214 H 0.82507 0.07573 0.10389 0.0
H4215 H 0.8205 0.02657 0.06803 0.0
H4216 H 0.84358 0.04158 0.05015 0.0
H4217 H 0.94042 0.06657 0.01792 0.0
H4218 H 0.92295 0.08345 0.03706 0.0
H4219 H 0.87506 0.04272 0.01887 0.0
H4220 H 0.89246 0.02582 0.99983 0.0
H4221 H 0.87675 0.05567 0.05548 0.0
H4222 H 0.88247 0.07613 0.99614 0.0
H4223 H 0.89763 0.08824 0.97041 0.0
H4224 H 0.92244 0.13658 0.00593 0.0
H4225 H 0.90771 0.12452 0.03203 0.0
C4226 C 0.81126 0.09255 0.03216 0.0
C4227 C 0.80935 0.10992 0.03891 0.0
C4228 C 0.82728 0.08684 0.03648 0.0
C4229 C 0.84175 0.09842 0.04745 0.0
C4230 C 0.84003 0.11576 0.05433 0.0
C4231 C 0.82379 0.12144 0.05025 0.0
C4232 C 0.8593 0.093 0.04885 0.0
C4233 C 0.87179 0.10119 0.03786 0.0
C4234 C 0.86134 0.07675 0.05588 0.0
C4235 C 0.84787 0.06743 0.06701 0.0
C4236 C 0.84244 0.07694 0.08224 0.0
C4237 C 0.82923 0.06832 0.09221 0.0
C4238 C 0.82134 0.05018 0.0871 0.0
C4239 C 0.82668 0.0406 0.07203 0.0
C4240 C 0.83988 0.04915 0.06201 0.0
C4241 C 0.92622 0.06114 0.01831 0.0
C4242 C 0.9176 0.0451 0.00731 0.0
C4243 C 0.91635 0.07071 0.02925 0.0
C4244 C 0.89782 0.06425 0.02932 0.0
C4245 C 0.88942 0.04778 0.01907 0.0
C4246 C 0.89924 0.0383 0.00802 0.0
C4247 C 0.88654 0.07559 0.03792 0.0
C4248 C 0.87535 0.06844 0.05066 0.0
C4249 C 0.8849 0.09226 0.03156 0.0
C4250 C 0.89442 0.09922 0.01617 0.0
C4251 C 0.89146 0.08918 0.99857 0.0
C4252 C 0.8999 0.09606 0.9839 0.0
C4253 C 0.9111 0.11311 0.98657 0.0
C4254 C 0.91387 0.12331 0.00392 0.0
C4255 C 0.90553 0.11644 0.01868 0.0
H4256 H 0.91755 0.11847 0.97516 0.0
H4257 H 0.81109 0.04355 0.09481 0.0
H4258 H 0.35212 0.38598 0.02233 0.0
H4259 H 0.38227 0.40539 0.02354 0.0
H4260 H 0.36248 0.44989 0.04962 0.0
H4261 H 0.33286 0.43031 0.04949 0.0
H4262 H 0.38385 0.45065 0.01102 0.0
H4263 H 0.38476 0.44271 0.07712 0.0
H4264 H 0.38239 0.42341 0.10235 0.0
H4265 H 0.42481 0.39845 0.0837 0.0
H4266 H 0.42715 0.41738 0.05811 0.0
H4267 H 0.46238 0.51885 0.02188 0.0
H4268 H 0.43349 0.50089 0.02615 0.0
H4269 H 0.46032 0.45891 0.04349 0.0
H4270 H 0.4894 0.47836 0.04259 0.0
H4271 H 0.43479 0.45533 0.06007 0.0
H4272 H 0.43394 0.4632 0.99404 0.0
H4273 H 0.43526 0.48086 0.96739 0.0
H4274 H 0.39174 0.50505 0.98441 0.0
H4275 H 0.39035 0.48772 0.01124 0.0
C4276 C 0.35429 0.39987 0.02843 0.0
C4277 C 0.3399 0.40683 0.03514 0.0
C4278 C 0.3715 0.41096 0.02911 0.0
C4279 C 0.37467 0.42916 0.03661 0.0
C4280 C 0.36041 0.43594 0.04372 0.0
C4281 C 0.34339 0.4248 0.04338 0.0
C4282 C 0.39256 0.44137 0.0364 0.0
C4283 C 0.39485 0.45202 0.02192 0.0
C4284 C 0.4073 0.44253 0.05015 0.0
C4285 C 0.40593 0.43125 0.06555 0.0
C4286 C 0.3934 0.43293 0.07824 0.0
C4287 C 0.3921 0.4221 0.09265 0.0
C4288 C 0.40338 0.40965 0.09458 0.0
C4289 C 0.41603 0.40806 0.08215 0.0
C4290 C 0.41735 0.41883 0.0677 0.0
C4291 C 0.4623 0.5062 0.0274 0.0
C4292 C 0.47858 0.5005 0.03228 0.0
C4293 C 0.44549 0.49544 0.02918 0.0
C4294 C 0.44419 0.4779 0.03443 0.0
C4295 C 0.46049 0.47223 0.03938 0.0
C4296 C 0.47732 0.48345 0.03871 0.0
C4297 C 0.42614 0.46542 0.03471 0.0
C4298 C 0.42379 0.45442 0.04916 0.0
C4299 C 0.41123 0.46395 0.02082 0.0
C4300 C 0.41212 0.47426 0.00465 0.0
C4301 C 0.4247 0.47232 0.99209 0.0
C4302 C 0.42547 0.48229 0.97698 0.0
C4303 C 0.41361 0.49408 0.97422 0.0
C4304 C 0.40093 0.49593 0.98656 0.0
C4305 C 0.40015 0.48605 1.0017 0.0
H4306 H 0.41423 0.50178 0.96252 0.0
H4307 H 0.40237 0.40129 0.10575 0.0
H4308 H 0.42488 0.5758 0.77907 0.0
H4309 H 0.41223 0.6033 0.77871 0.0
H4310 H 0.3651 0.57328 0.74353 0.0
H4311 H 0.37839 0.54657 0.74273 0.0
H4312 H 0.36821 0.60379 0.73499 0.0
H4313 H 0.36876 0.58191 0.79367 0.0
H4314 H 0.38093 0.5723 0.82277 0.0
H4315 H 0.41332 0.62522 0.83846 0.0
H4316 H 0.40154 0.63506 0.80929 0.0
H4317 H 0.30353 0.65363 0.76998 0.0
H4318 H 0.32154 0.63146 0.76029 0.0
H4319 H 0.37036 0.66911 0.78296 0.0
H4320 H 0.35229 0.69116 0.79275 0.0
H4321 H 0.36733 0.63637 0.79686 0.0
H4322 H 0.35955 0.65679 0.73593 0.0
H4323 H 0.34045 0.66296 0.70894 0.0
H4324 H 0.3135 0.60745 0.69997 0.0
H4325 H 0.33224 0.601 0.72706 0.0
C4326 C 0.41223 0.57538 0.77062 0.0
C4327 C 0.40263 0.55905 0.76091 0.0
C4328 C 0.40476 0.59099 0.77072 0.0
C4329 C 0.38733 0.59038 0.76159 0.0
C4330 C 0.37846 0.57431 0.75082 0.0
C4331 C 0.38606 0.55893 0.75041 0.0
C4332 C 0.37771 0.60586 0.76409 0.0
C4333 C 0.36804 0.61082 0.74858 0.0
C4334 C 0.3771 0.6151 0.78178 0.0
C4335 C 0.3845 0.60914 0.79916 0.0
C4336 C 0.37863 0.59144 0.80323 0.0
C4337 C 0.38543 0.58596 0.81975 0.0
C4338 C 0.39796 0.59812 0.83242 0.0
C4339 C 0.40368 0.61579 0.8286 0.0
C4340 C 0.39696 0.62133 0.81207 0.0
C4341 C 0.31814 0.6574 0.77212 0.0
C4342 C 0.32659 0.67421 0.7817 0.0
C4343 C 0.32843 0.6447 0.76672 0.0
C4344 C 0.34736 0.64861 0.77086 0.0
C4345 C 0.35582 0.66579 0.77957 0.0
C4346 C 0.34553 0.67847 0.78494 0.0
C4347 C 0.35818 0.63432 0.76781 0.0
C4348 C 0.36787 0.6295 0.78327 0.0
C4349 C 0.35804 0.62464 0.75026 0.0
C4350 C 0.34727 0.62843 0.73357 0.0
C4351 C 0.34952 0.64591 0.72823 0.0
C4352 C 0.33875 0.64946 0.71292 0.0
C4353 C 0.32576 0.63561 0.70276 0.0
C4354 C 0.32357 0.61816 0.70784 0.0
C4355 C 0.33429 0.61455 0.72315 0.0
H4356 H 0.31741 0.6384 0.69094 0.0
H4357 H 0.40318 0.59386 0.84522 0.0
H4358 H 0.2043 0.63792 0.52907 0.0
H4359 H 0.17328 0.62075 0.52786 0.0
H4360 H 0.19392 0.5761 0.54793 0.0
H4361 H 0.22471 0.59367 0.5505 0.0
H4362 H 0.1674 0.57575 0.50763 0.0
H4363 H 0.17629 0.58123 0.5747 0.0
H4364 H 0.18571 0.59788 0.6058 0.0
H4365 H 0.14811 0.6325 0.59511 0.0
H4366 H 0.13874 0.61626 0.56375 0.0
H4367 H 0.08492 0.51764 0.52036 0.0
H4368 H 0.11563 0.53349 0.51841 0.0
H4369 H 0.09832 0.58445 0.52588 0.0
H4370 H 0.06796 0.56861 0.52907 0.0
H4371 H 0.12381 0.58016 0.55319 0.0
H4372 H 0.11529 0.57201 0.48506 0.0
H4373 H 0.10546 0.55252 0.45548 0.0
H4374 H 0.14258 0.51861 0.47051 0.0
H4375 H 0.15234 0.5377 0.50036 0.0
C4376 C 0.20207 0.62453 0.5334 0.0
C4377 C 0.2166 0.6166 0.53901 0.0
C4378 C 0.18455 0.61485 0.53277 0.0
C4379 C 0.18166 0.59734 0.53781 0.0
C4380 C 0.19612 0.58969 0.5441 0.0
C4381 C 0.21357 0.59953 0.54518 0.0
C4382 C 0.16354 0.58657 0.53487 0.0
C4383 C 0.15797 0.57631 0.51767 0.0
C4384 C 0.15137 0.58784 0.54802 0.0
C4385 C 0.1571 0.59778 0.56675 0.0
C4386 C 0.17028 0.5926 0.57885 0.0
C4387 C 0.17554 0.6019 0.59656 0.0
C4388 C 0.1676 0.61631 0.60239 0.0
C4389 C 0.15432 0.62139 0.59054 0.0
C4390 C 0.14903 0.61215 0.5728 0.0
C4391 C 0.08763 0.53219 0.5207 0.0
C4392 C 0.07435 0.54208 0.52442 0.0
C4393 C 0.10504 0.54118 0.51957 0.0
C4394 C 0.10899 0.56004 0.52199 0.0
C4395 C 0.09527 0.56986 0.5239 0.0
C4396 C 0.07795 0.56085 0.52536 0.0
C4397 C 0.12771 0.56942 0.52573 0.0
C4398 C 0.13338 0.57938 0.54317 0.0
C4399 C 0.14012 0.56745 0.51298 0.0
C4400 C 0.1347 0.55639 0.49479 0.0
C4401 C 0.12139 0.56043 0.482 0.0
C4402 C 0.11579 0.54943 0.46522 0.0
C4403 C 0.12345 0.53439 0.46106 0.0
C4404 C 0.13673 0.53032 0.47369 0.0
C4405 C 0.14233 0.54125 0.49052 0.0
H4406 H 0.11905 0.52587 0.44808 0.0
H4407 H 0.17167 0.62348 0.61612 0.0
H4408 H 0.67041 0.98622 0.75278 0.0
H4409 H 0.67911 0.95684 0.74812 0.0
H4410 H 0.73494 0.98205 0.76496 0.0
H4411 H 0.72644 0.01126 0.77001 0.0
H4412 H 0.72966 0.95548 0.73411 0.0
H4413 H 0.7152 0.96681 0.79597 0.0
H4414 H 0.69579 0.97523 0.81913 0.0
H4415 H 0.65485 0.92884 0.79788 0.0
H4416 H 0.67392 0.92037 0.77426 0.0
H4417 H 0.77805 0.91126 0.79506 0.0
H4418 H 0.76219 0.92952 0.77608 0.0
H4419 H 0.71917 0.88353 0.75832 0.0
H4420 H 0.7352 0.86509 0.77719 0.0
H4421 H 0.71119 0.91442 0.78062 0.0
H4422 H 0.73231 0.90656 0.71622 0.0
H4423 H 0.75608 0.90488 0.69563 0.0
H4424 H 0.7912 0.94945 0.72941 0.0
H4425 H 0.7673 0.95191 0.74963 0.0
C4426 C 0.68454 0.98546 0.75537 0.0
C4427 C 0.69777 1.0009 0.76191 0.0
C4428 C 0.68945 0.96879 0.75256 0.0
C4429 C 0.7076 0.96754 0.75605 0.0
C4430 C 0.72088 0.98297 0.762 0.0
C4431 C 0.71597 0.99955 0.76511 0.0
C4432 C 0.71277 0.95003 0.75574 0.0
C4433 C 0.72536 0.94622 0.74396 0.0
C4434 C 0.70724 0.93831 0.76883 0.0
C4435 C 0.69582 0.94313 0.78315 0.0
C4436 C 0.70197 0.95851 0.7961 0.0
C4437 C 0.69106 0.96329 0.80932 0.0
C4438 C 0.67406 0.95262 0.80992 0.0
C4439 C 0.66799 0.93713 0.79733 0.0
C4440 C 0.67883 0.93234 0.78401 0.0
C4441 C 0.76542 0.90502 0.78675 0.0
C4442 C 0.75759 0.88701 0.7877 0.0
C4443 C 0.75656 0.91529 0.77567 0.0
C4444 C 0.73974 0.90769 0.76559 0.0
C4445 C 0.73235 0.88942 0.76574 0.0
C4446 C 0.74136 0.87904 0.77663 0.0
C4447 C 0.72833 0.91987 0.75909 0.0
C4448 C 0.71461 0.92291 0.76986 0.0
C4449 C 0.73351 0.93142 0.74579 0.0
C4450 C 0.74822 0.9292 0.73452 0.0
C4451 C 0.74518 0.91588 0.7193 0.0
C4452 C 0.75859 0.91492 0.7076 0.0
C4453 C 0.77522 0.92688 0.71135 0.0
C4454 C 0.77837 0.94009 0.7266 0.0
C4455 C 0.76485 0.94138 0.73807 0.0
H4456 H 0.78563 0.926 0.70236 0.0
H4457 H 0.66562 0.95633 0.82018 0.0
H4458 H 0.72858 0.88207 0.52317 0.0
H4459 H 0.70093 0.89474 0.52404 0.0
H4460 H 0.73368 0.94726 0.54309 0.0
H4461 H 0.76055 0.93467 0.54298 0.0
H4462 H 0.70658 0.94583 0.55911 0.0
H4463 H 0.71517 0.93175 0.49584 0.0
H4464 H 0.71832 0.91292 0.4674 0.0
H4465 H 0.66536 0.88132 0.46861 0.0
H4466 H 0.66201 0.89983 0.49723 0.0
H4467 H 0.65618 0.00679 0.52045 0.0
H4468 H 0.67748 0.98786 0.52984 0.0
H4469 H 0.63415 0.94124 0.52088 0.0
H4470 H 0.61281 0.9603 0.51133 0.0
H4471 H 0.66296 0.93631 0.50233 0.0
H4472 H 0.6555 0.9585 0.5651 0.0
H4473 H 0.65531 0.98257 0.5902 0.0
H4474 H 0.71077 0.00514 0.58573 0.0
H4475 H 0.71122 0.98136 0.56046 0.0
C4476 C 0.72973 0.89618 0.52803 0.0
C4477 C 0.74686 0.90735 0.53294 0.0
C4478 C 0.71395 0.90352 0.52828 0.0
C4479 C 0.71508 0.92214 0.53334 0.0
C4480 C 0.73218 0.93292 0.53912 0.0
C4481 C 0.74772 0.92565 0.53895 0.0
C4482 C 0.69893 0.93098 0.53196 0.0
C4483 C 0.69708 0.94368 0.54664 0.0
C4484 C 0.68634 0.92835 0.51579 0.0
C4485 C 0.68847 0.91695 0.49885 0.0
C4486 C 0.70429 0.92065 0.49016 0.0
C4487 C 0.70609 0.91007 0.47399 0.0
C4488 C 0.69209 0.89587 0.46625 0.0
C4489 C 0.67623 0.89227 0.47466 0.0
C4490 C 0.67438 0.90278 0.49087 0.0
C4491 C 0.6511 0.99262 0.52123 0.0
C4492 C 0.6328 0.98506 0.5156 0.0
C4493 C 0.6633 0.98177 0.5265 0.0
C4494 C 0.65746 0.96307 0.5262 0.0
C4495 C 0.63898 0.95562 0.52133 0.0
C4496 C 0.62675 0.96653 0.51612 0.0
C4497 C 0.6709 0.95125 0.52932 0.0
C4498 C 0.67224 0.93808 0.51494 0.0
C4499 C 0.68356 0.95408 0.54539 0.0
C4500 C 0.68336 0.96816 0.56085 0.0
C4501 C 0.66763 0.96863 0.56943 0.0
C4502 C 0.66748 0.98223 0.58369 0.0
C4503 C 0.68301 0.99538 0.58955 0.0
C4504 C 0.69875 0.99494 0.5812 0.0
C4505 C 0.69897 0.98138 0.56693 0.0
H4506 H 0.68286 0.0059 0.60057 0.0
H4507 H 0.69349 0.88772 0.45371 0.0
H4508 H 0.37158 0.4709 0.75053 0.0
H4509 H 0.35175 0.44186 0.75244 0.0
H4510 H 0.39664 0.42325 0.77952 0.0
H4511 H 0.41607 0.45283 0.77903 0.0
H4512 H 0.36185 0.40664 0.73661 0.0
H4513 H 0.38485 0.41073 0.80385 0.0
H4514 H 0.38921 0.41907 0.83756 0.0
H4515 H 0.33359 0.42381 0.83644 0.0
H4516 H 0.32926 0.41654 0.80251 0.0
H4517 H 0.32078 0.31482 0.74711 0.0
H4518 H 0.34046 0.34393 0.74617 0.0
H4519 H 0.30436 0.37029 0.77591 0.0
H4520 H 0.28559 0.34116 0.77833 0.0
H4521 H 0.33575 0.38272 0.7908 0.0
H4522 H 0.31175 0.37135 0.72542 0.0
H4523 H 0.30613 0.35299 0.69494 0.0
H4524 H 0.36315 0.35578 0.69447 0.0
H4525 H 0.36909 0.37397 0.72502 0.0
C4526 C 0.377 0.46093 0.75771 0.0
C4527 C 0.39519 0.46459 0.7655 0.0
C4528 C 0.36567 0.4442 0.75864 0.0
C4529 C 0.37234 0.43043 0.76695 0.0
C4530 C 0.39074 0.43383 0.77406 0.0
C4531 C 0.40198 0.4507 0.77346 0.0
C4532 C 0.36062 0.41199 0.76588 0.0
C4533 C 0.35618 0.40143 0.74853 0.0
C4534 C 0.35304 0.40491 0.78128 0.0
C4535 C 0.357 0.41397 0.80045 0.0
C4536 C 0.37386 0.41461 0.81058 0.0
C4537 C 0.37623 0.41879 0.82983 0.0
C4538 C 0.36168 0.42188 0.83917 0.0
C4539 C 0.34486 0.42135 0.82922 0.0
C4540 C 0.34255 0.41755 0.80996 0.0
C4541 C 0.31688 0.32682 0.75329 0.0
C4542 C 0.30129 0.32547 0.76256 0.0
C4543 C 0.32814 0.3436 0.75257 0.0
C4544 C 0.3239 0.35962 0.76064 0.0
C4545 C 0.30805 0.35829 0.76943 0.0
C4546 C 0.29707 0.34151 0.77058 0.0
C4547 C 0.33656 0.37758 0.76156 0.0
C4548 C 0.34118 0.38803 0.77881 0.0
C4549 C 0.34447 0.38434 0.74618 0.0
C4550 C 0.34085 0.37394 0.72754 0.0
C4551 C 0.32308 0.36802 0.71882 0.0
C4552 C 0.31984 0.35764 0.70154 0.0
C4553 C 0.33427 0.3532 0.69279 0.0
C4554 C 0.35198 0.35922 0.70125 0.0
C4555 C 0.35529 0.36959 0.71853 0.0
H4556 H 0.33173 0.3451 0.67944 0.0
H4557 H 0.36346 0.42483 0.85409 0.0
H4558 H 0.2173 0.58327 0.25455 0.0
H4559 H 0.23486 0.61403 0.26033 0.0
H4560 H 0.18994 0.632 0.28297 0.0
H4561 H 0.17274 0.60087 0.27842 0.0
H4562 H 0.21354 0.64202 0.24311 0.0
H4563 H 0.20733 0.64896 0.31061 0.0
H4564 H 0.21219 0.64891 0.34442 0.0
H4565 H 0.26871 0.65001 0.34175 0.0
H4566 H 0.26399 0.64949 0.30785 0.0
H4567 H 0.24048 0.73689 0.26122 0.0
H4568 H 0.22514 0.70584 0.26266 0.0
H4569 H 0.27681 0.69087 0.27537 0.0
H4570 H 0.29211 0.72196 0.27421 0.0
H4571 H 0.25048 0.67949 0.29775 0.0
H4572 H 0.25853 0.67911 0.23331 0.0
H4573 H 0.25659 0.69159 0.20344 0.0
H4574 H 0.19891 0.68407 0.20195 0.0
H4575 H 0.20053 0.67156 0.23187 0.0
C4576 C 0.21155 0.59368 0.26155 0.0
C4577 C 0.19412 0.58983 0.26684 0.0
C4578 C 0.22152 0.61114 0.26481 0.0
C4579 C 0.21385 0.62493 0.27279 0.0
C4580 C 0.19627 0.62123 0.27767 0.0
C4581 C 0.18641 0.60365 0.27476 0.0
C4582 C 0.22282 0.64344 0.27225 0.0
C4583 C 0.22152 0.6503 0.25508 0.0
C4584 C 0.23353 0.65389 0.28776 0.0
C4585 C 0.23515 0.64848 0.30661 0.0
C4586 C 0.22059 0.64827 0.31711 0.0
C4587 C 0.2234 0.64872 0.33636 0.0
C4588 C 0.24076 0.64957 0.34527 0.0
C4589 C 0.25527 0.64942 0.33489 0.0
C4590 C 0.25248 0.64877 0.31563 0.0
C4591 C 0.24838 0.72707 0.2651 0.0
C4592 C 0.26722 0.73145 0.26815 0.0
C4593 C 0.23973 0.70942 0.26541 0.0
C4594 C 0.25006 0.69635 0.26863 0.0
C4595 C 0.26885 0.70098 0.27264 0.0
C4596 C 0.27746 0.71858 0.27231 0.0
C4597 C 0.24118 0.67789 0.26889 0.0
C4598 C 0.2426 0.67105 0.28579 0.0
C4599 C 0.23076 0.66756 0.25319 0.0
C4600 C 0.22965 0.67446 0.23487 0.0
C4601 C 0.24543 0.68014 0.22663 0.0
C4602 C 0.24439 0.68722 0.20968 0.0
C4603 C 0.22764 0.68867 0.20082 0.0
C4604 C 0.21188 0.68292 0.20883 0.0
C4605 C 0.21284 0.67577 0.22574 0.0
H4606 H 0.22687 0.69424 0.18775 0.0
H4607 H 0.24295 0.65021 0.36019 0.0
H4608 H 0.47603 0.7017 0.44643 0.0
H4609 H 0.47925 0.67299 0.45821 0.0
H4610 H 0.53578 0.69411 0.47501 0.0
H4611 H 0.53234 0.72311 0.46413 0.0
H4612 H 0.52982 0.65792 0.45684 0.0
H4613 H 0.50962 0.68905 0.50722 0.0
H4614 H 0.4907 0.70561 0.52506 0.0
H4615 H 0.44602 0.66085 0.512 0.0
H4616 H 0.4646 0.64413 0.49377 0.0
H4617 H 0.54555 0.59038 0.51933 0.0
H4618 H 0.54236 0.61919 0.5083 0.0
H4619 H 0.48951 0.59481 0.48087 0.0
H4620 H 0.49319 0.5656 0.49094 0.0
H4621 H 0.49408 0.63264 0.50485 0.0
H4622 H 0.51565 0.60179 0.4538 0.0
H4623 H 0.5365 0.58515 0.4391 0.0
H4624 H 0.58039 0.63007 0.45605 0.0
H4625 H 0.55983 0.64684 0.47121 0.0
C4626 C 0.48917 0.70032 0.45267 0.0
C4627 C 0.50389 0.71507 0.4542 0.0
C4628 C 0.49103 0.68373 0.45952 0.0
C4629 C 0.50783 0.68085 0.46768 0.0
C4630 C 0.52261 0.69551 0.46888 0.0
C4631 C 0.5206 0.7123 0.46262 0.0
C4632 C 0.50995 0.66276 0.47482 0.0
C4633 C 0.52203 0.65262 0.46746 0.0
C4634 C 0.49992 0.65517 0.48868 0.0
C4635 C 0.48841 0.66547 0.49882 0.0
C4636 C 0.49566 0.68286 0.50785 0.0
C4637 C 0.48502 0.69224 0.51812 0.0
C4638 C 0.46714 0.68432 0.51959 0.0
C4639 C 0.45985 0.667 0.51078 0.0
C4640 C 0.47043 0.65757 0.50046 0.0
C4641 C 0.53331 0.59091 0.51083 0.0
C4642 C 0.51985 0.57511 0.50602 0.0
C4643 C 0.53142 0.60766 0.5045 0.0
C4644 C 0.51564 0.60965 0.49357 0.0
C4645 C 0.5019 0.59404 0.48919 0.0
C4646 C 0.50407 0.57714 0.49499 0.0
C4647 C 0.51362 0.62777 0.48661 0.0
C4648 C 0.50169 0.63794 0.4941 0.0
C4649 C 0.52387 0.63545 0.473 0.0
C4650 C 0.53625 0.62547 0.46387 0.0
C4651 C 0.52979 0.60804 0.4546 0.0
C4652 C 0.54155 0.5986 0.44615 0.0
C4653 C 0.55978 0.60652 0.4467 0.0
C4654 C 0.56627 0.62393 0.45568 0.0
C4655 C 0.55457 0.63341 0.46421 0.0
H4656 H 0.56886 0.5992 0.44012 0.0
H4657 H 0.45895 0.69158 0.52762 0.0
H4658 H 0.59263 0.27853 0.66728 0.0
H4659 H 0.62035 0.27575 0.68551 0.0
H4660 H 0.65165 0.30245 0.64633 0.0
H4661 H 0.62347 0.30346 0.62697 0.0
H4662 H 0.67015 0.28187 0.65725 0.0
H4663 H 0.6437 0.32183 0.69591 0.0
H4664 H 0.6198 0.33177 0.71249 0.0
H4665 H 0.61727 0.2866 0.74381 0.0
H4666 H 0.64101 0.27629 0.72728 0.0
H4667 H 0.75186 0.29834 0.72121 0.0
H4668 H 0.72484 0.30131 0.70138 0.0
H4669 H 0.69169 0.26525 0.73195 0.0
H4670 H 0.71864 0.26204 0.75162 0.0
H4671 H 0.6752 0.29219 0.72569 0.0
H4672 H 0.70043 0.25178 0.68436 0.0
H4673 H 0.72439 0.24266 0.66728 0.0
H4674 H 0.73083 0.292 0.64241 0.0
H4675 H 0.70651 0.30116 0.65894 0.0
C4676 C 0.60541 0.2839 0.66251 0.0
C4677 C 0.60563 0.29148 0.64566 0.0
C4678 C 0.6215 0.28252 0.67321 0.0
C4679 C 0.63869 0.28958 0.66813 0.0
C4680 C 0.63889 0.29697 0.65105 0.0
C4681 C 0.62266 0.29767 0.63989 0.0
C4682 C 0.65615 0.28887 0.68036 0.0
C4683 C 0.67115 0.28449 0.67219 0.0
C4684 C 0.65808 0.29191 0.70011 0.0
C4685 C 0.64401 0.29822 0.71025 0.0
C4686 C 0.638 0.314 0.70629 0.0
C4687 C 0.62448 0.31969 0.71568 0.0
C4688 C 0.61699 0.3098 0.72916 0.0
C4689 C 0.62307 0.29424 0.73335 0.0
C4690 C 0.63656 0.28848 0.724 0.0
C4691 C 0.73886 0.29093 0.72373 0.0
C4692 C 0.73774 0.28001 0.73832 0.0
C4693 C 0.72327 0.29259 0.71221 0.0
C4694 C 0.70587 0.28338 0.71477 0.0
C4695 C 0.70473 0.2726 0.72944 0.0
C4696 C 0.72031 0.27084 0.74086 0.0
C4697 C 0.68892 0.28515 0.70253 0.0
C4698 C 0.67408 0.28971 0.71073 0.0
C4699 C 0.68725 0.28263 0.68287 0.0
C4700 C 0.70182 0.2772 0.67297 0.0
C4701 C 0.70702 0.26069 0.67529 0.0
C4702 C 0.72064 0.25551 0.6657 0.0
C4703 C 0.72929 0.26683 0.65395 0.0
C4704 C 0.72416 0.28327 0.65156 0.0
C4705 C 0.71038 0.2884 0.66093 0.0
H4706 H 0.7399 0.26283 0.64661 0.0
H4707 H 0.60651 0.31422 0.73639 0.0
H4708 H 0.03841 0.33194 0.95042 0.0
H4709 H 0.04064 0.36289 0.9647 0.0
H4710 H 0.98703 0.34852 0.98041 0.0
H4711 H 0.98496 0.3173 0.96634 0.0
H4712 H 0.9905 0.37963 0.96394 0.0
H4713 H 0.02493 0.3596 0.01338 0.0
H4714 H 0.04883 0.34617 0.02858 0.0
H4715 H 0.08946 0.38544 0.00999 0.0
H4716 H 0.06579 0.39896 0.99447 0.0
H4717 H 0.99388 0.46714 0.01252 0.0
H4718 H 0.99101 0.43483 0.00389 0.0
H4719 H 0.04657 0.44374 0.99295 0.0
H4720 H 0.04953 0.47594 1.00209 0.0
H4721 H 0.04111 0.41473 0.00855 0.0
H4722 H 0.00801 0.43376 0.95768 0.0
H4723 H 0.985 0.44832 0.94252 0.0
H4724 H 0.94302 0.41174 0.96262 0.0
H4725 H 0.96583 0.39713 0.97815 0.0
C4726 C 0.02733 0.33515 0.95754 0.0
C4727 C 0.01174 0.32176 0.95769 0.0
C4728 C 0.02857 0.35304 0.96564 0.0
C4729 C 0.01407 0.35843 0.97388 0.0
C4730 C 0.99854 0.34498 0.97432 0.0
C4731 C 0.99745 0.32694 0.9665 0.0
C4732 C 0.01485 0.37814 0.98098 0.0
C4733 C 1.00144 0.38714 0.97396 0.0
C4734 C 0.02932 0.38852 0.99365 0.0
C4735 C 0.04357 0.38015 0.00257 0.0
C4736 C 0.03895 0.36524 0.01234 0.0
C4737 C 0.05246 0.35765 0.02107 0.0
C4738 C 0.07065 0.36491 0.0202 0.0
C4739 C 0.07537 0.3798 0.01062 0.0
C4740 C 0.06191 0.38744 1.00186 0.0
C4741 C 0.0055 0.46235 0.00841 0.0
C4742 C 0.02186 0.47463 0.00816 0.0
C4743 C 1.00384 0.44364 0.00323 0.0
C4744 C 0.01849 0.43638 0.99738 0.0
C4745 C 0.03492 0.4486 0.9973 0.0
C4746 C 0.03656 0.46726 0.0025 0.0
C4747 C 0.01685 0.41627 0.99141 0.0
C4748 C 0.03012 0.4072 0.9986 0.0
C4749 C 1.00239 0.4059 0.97871 0.0
C4750 C 0.98863 0.41448 0.96923 0.0
C4751 C 0.99388 0.42889 0.95896 0.0
C4752 C 0.98088 0.43715 0.9503 0.0
C4753 C 0.96256 0.43099 0.95166 0.0
C4754 C 0.95722 0.41652 0.96162 0.0
C4755 C 0.97017 0.40824 0.97035 0.0
H4756 H 0.95251 0.43741 0.94494 0.0
H4757 H 0.08109 0.35904 0.027 0.0
H4758 H 0.98084 0.76687 0.11505 0.0
H4759 H 0.9566 0.76619 0.13448 0.0
H4760 H 0.99274 0.80204 0.17717 0.0
H4761 H 0.01769 0.80151 0.15811 0.0
H4762 H 0.9719 0.78043 0.19357 0.0
H4763 H 0.95761 0.81517 0.14479 0.0
H4764 H 0.9528 0.82111 0.11227 0.0
H4765 H 0.90941 0.77497 0.101 0.0
H4766 H 0.91411 0.76863 0.13338 0.0
H4767 H 0.89676 0.78977 0.24287 0.0
H4768 H 0.92217 0.79814 0.22487 0.0
H4769 H 0.89381 0.76069 0.17866 0.0
H4770 H 0.86836 0.7529 0.19642 0.0
H4771 H 0.9118 0.78733 0.16529 0.0
H4772 H 0.92791 0.75144 0.2134 0.0
H4773 H 0.93329 0.74499 0.24568 0.0
H4774 H 0.97349 0.79365 0.25822 0.0
H4775 H 0.96816 0.80051 0.22607 0.0
C4776 C 0.98377 0.77459 0.12859 0.0
C4777 C 1.00135 0.78434 0.13486 0.0
C4778 C 0.9697 0.77438 0.13971 0.0
C4779 C 0.97238 0.78459 0.15722 0.0
C4780 C 0.99004 0.79414 0.16371 0.0
C4781 C 1.00436 0.79389 0.15275 0.0
C4782 C 0.95678 0.78507 0.16861 0.0
C4783 C 0.95888 0.78229 0.18739 0.0
C4784 C 0.9395 0.78725 0.1608 0.0
C4785 C 0.93627 0.79139 0.14148 0.0
C4786 C 0.94706 0.80629 0.13536 0.0
C4787 C 0.94436 0.80971 0.11695 0.0
C4788 C 0.93082 0.79841 0.10457 0.0
C4789 C 0.91989 0.78372 0.1106 0.0
C4790 C 0.92254 0.78022 0.12899 0.0
C4791 C 0.89566 0.78395 0.22859 0.0
C4792 C 0.88032 0.77097 0.22095 0.0
C4793 C 0.91039 0.78844 0.21838 0.0
C4794 C 0.91033 0.77974 0.20041 0.0
C4795 C 0.89446 0.76764 0.19243 0.0
C4796 C 0.87975 0.76329 0.20255 0.0
C4797 C 0.92682 0.78233 0.19013 0.0
C4798 C 0.92489 0.7857 0.17152 0.0
C4799 C 0.94424 0.78076 0.19814 0.0
C4800 C 0.94749 0.77658 0.21741 0.0
C4801 C 0.93782 0.76082 0.22308 0.0
C4802 C 0.94086 0.75709 0.24135 0.0
C4803 C 0.95369 0.76893 0.25401 0.0
C4804 C 0.96353 0.78451 0.24842 0.0
C4805 C 0.9605 0.78832 0.23018 0.0
H4806 H 0.95603 0.76602 0.26814 0.0
H4807 H 0.92879 0.80105 0.09032 0.0
H4808 H 0.49806 0.28609 0.12703 0.0
H4809 H 0.50364 0.31422 0.11389 0.0
H4810 H 0.5356 0.34021 0.1645 0.0
H4811 H 0.53026 0.31138 0.17812 0.0
H4812 H 0.50852 0.36029 0.14701 0.0
H4813 H 0.55805 0.33285 0.13136 0.0
H4814 H 0.57224 0.30803 0.11965 0.0
H4815 H 0.54088 0.3039 0.06669 0.0
H4816 H 0.5263 0.32852 0.07817 0.0
H4817 H 0.5438 0.43787 0.10161 0.0
H4818 H 0.53693 0.41304 0.12052 0.0
H4819 H 0.51648 0.37651 0.07102 0.0
H4820 H 0.52354 0.40133 0.05222 0.0
H4821 H 0.53974 0.36284 0.09051 0.0
H4822 H 0.48883 0.38754 0.10492 0.0
H4823 H 0.47182 0.41047 0.11552 0.0
H4824 H 0.50272 0.41832 0.16912 0.0
H4825 H 0.52007 0.39557 0.15875 0.0
C4826 C 0.50632 0.29763 0.13565 0.0
C4827 C 0.51371 0.29617 0.15385 0.0
C4828 C 0.5095 0.31386 0.12794 0.0
C4829 C 0.52009 0.32944 0.13806 0.0
C4830 C 0.52735 0.32837 0.15636 0.0
C4831 C 0.52434 0.31185 0.16413 0.0
C4832 C 0.52351 0.34645 0.12893 0.0
C4833 C 0.51575 0.36106 0.13493 0.0
C4834 C 0.53223 0.34724 0.11265 0.0
C4835 C 0.541 0.33245 0.10568 0.0
C4836 C 0.55407 0.32655 0.11727 0.0
C4837 C 0.56221 0.31254 0.11066 0.0
C4838 C 0.55744 0.30437 0.09245 0.0
C4839 C 0.54455 0.31023 0.0808 0.0
C4840 C 0.53637 0.32423 0.08734 0.0
C4841 C 0.53701 0.42472 0.09486 0.0
C4842 C 0.53369 0.42173 0.07541 0.0
C4843 C 0.53324 0.41041 0.10569 0.0
C4844 C 0.52615 0.39269 0.09734 0.0
C4845 C 0.52195 0.38993 0.07795 0.0
C4846 C 0.52569 0.40423 0.06716 0.0
C4847 C 0.52468 0.37685 0.10848 0.0
C4848 C 0.53274 0.36233 0.10275 0.0
C4849 C 0.516 0.37608 0.12483 0.0
C4850 C 0.50591 0.39004 0.13098 0.0
C4851 C 0.49214 0.39431 0.1189 0.0
C4852 C 0.4824 0.40723 0.12488 0.0
C4853 C 0.48624 0.4159 0.14296 0.0
C4854 C 0.4998 0.41163 0.1551 0.0
C4855 C 0.50958 0.39872 0.14919 0.0
H4856 H 0.47866 0.42587 0.14758 0.0
H4857 H 0.56376 0.29353 0.08736 0.0
H4858 H 0.99236 0.29251 0.31625 0.0
H4859 H 0.96071 0.2891 0.30294 0.0
H4860 H 0.94709 0.30876 0.35592 0.0
H4861 H 0.97859 0.31219 0.36906 0.0
H4862 H 0.92278 0.28053 0.34346 0.0
H4863 H 0.93363 0.33722 0.30522 0.0
H4864 H 0.9459 0.35339 0.28008 0.0
H4865 H 0.94942 0.30313 0.24981 0.0
H4866 H 0.93651 0.28671 0.27449 0.0
H4867 H 0.83053 0.28703 0.32062 0.0
H4868 H 0.86289 0.29155 0.33072 0.0
H4869 H 0.87313 0.28335 0.27379 0.0
H4870 H 0.84087 0.28073 0.26378 0.0
H4871 H 0.89953 0.30376 0.28689 0.0
H4872 H 0.87493 0.25097 0.31284 0.0
H4873 H 0.85461 0.23214 0.3308 0.0
H4874 H 0.87583 0.26806 0.38022 0.0
H4875 H 0.89611 0.28724 0.3625 0.0
C4876 C 0.98282 0.29683 0.3249 0.0
C4877 C 0.98854 0.30325 0.34374 0.0
C4878 C 0.96442 0.29479 0.31722 0.0
C4879 C 0.95088 0.29889 0.32811 0.0
C4880 C 0.95678 0.30546 0.34687 0.0
C4881 C 0.97506 0.30754 0.35445 0.0
C4882 C 0.93059 0.29524 0.32085 0.0
C4883 C 0.91781 0.2858 0.33112 0.0
C4884 C 0.92335 0.3011 0.30432 0.0
C4885 C 0.93473 0.31085 0.29191 0.0
C4886 C 0.93745 0.3297 0.29339 0.0
C4887 C 0.94409 0.33886 0.27904 0.0
C4888 C 0.94828 0.32926 0.26328 0.0
C4889 C 0.94611 0.31053 0.26199 0.0
C4890 C 0.93912 0.3013 0.27613 0.0
C4891 C 0.83968 0.28618 0.31023 0.0
C4892 C 0.83281 0.28331 0.29131 0.0
C4893 C 0.85843 0.28853 0.31606 0.0
C4894 C 0.87118 0.2872 0.3033 0.0
C4895 C 0.86417 0.28447 0.28431 0.0
C4896 C 0.84548 0.28285 0.27846 0.0
C4897 C 0.89159 0.28916 0.30951 0.0
C4898 C 0.90437 0.29832 0.29917 0.0
C4899 C 0.89879 0.28231 0.32554 0.0
C4900 C 0.88693 0.27061 0.33632 0.0
C4901 C 0.87523 0.25487 0.32753 0.0
C4902 C 0.86371 0.24414 0.33766 0.0
C4903 C 0.86391 0.24892 0.35663 0.0
C4904 C 0.87568 0.26439 0.36552 0.0
C4905 C 0.88721 0.27518 0.35545 0.0
H4906 H 0.85496 0.24062 0.36444 0.0
H4907 H 0.95344 0.33639 0.25219 0.0
H4908 H 0.01647 0.68664 0.6783 0.0
H4909 H 0.01787 0.65856 0.65936 0.0
H4910 H 0.01179 0.68468 0.60996 0.0
H4911 H 0.0093 0.71215 0.62871 0.0
H4912 H 0.99531 0.65422 0.60024 0.0
H4913 H 0.05452 0.6731 0.63289 0.0
H4914 H 0.07826 0.68198 0.65946 0.0
H4915 H 0.06181 0.63096 0.67959 0.0
H4916 H 0.0378 0.62188 0.65327 0.0
H4917 H 0.03625 0.59232 0.54306 0.0
H4918 H 0.03193 0.61862 0.56284 0.0
H4919 H 0.01134 0.58426 0.60251 0.0
H4920 H 0.01421 0.55767 0.58207 0.0
H4921 H 0.04074 0.61759 0.61707 0.0
H4922 H 0.98229 0.59933 0.58072 0.0
H4923 H 0.96166 0.59166 0.55166 0.0
H4924 H 0.98078 0.64412 0.53582 0.0
H4925 H 1.0018 0.65199 0.56464 0.0
C4926 C 0.01522 0.68634 0.66339 0.0
C4927 C 0.01263 0.70187 0.65521 0.0
C4928 C 0.01629 0.67021 0.65243 0.0
C4929 C 0.01533 0.66913 0.63288 0.0
C4930 C 0.01254 0.68466 0.62482 0.0
C4931 C 0.01113 0.70059 0.6357 0.0
C4932 C 0.01706 0.65208 0.62075 0.0
C4933 C 0.00548 0.64649 0.60401 0.0
C4934 C 0.03007 0.64135 0.62521 0.0
C4935 C 0.04421 0.64692 0.64125 0.0
C4936 C 0.05585 0.66386 0.64309 0.0
C4937 C 0.06937 0.66891 0.65808 0.0
C4938 C 0.0715 0.65707 0.67124 0.0
C4939 C 0.06011 0.64014 0.66942 0.0
C4940 C 0.04654 0.63504 0.65447 0.0
C4941 C 0.03017 0.59012 0.5556 0.0
C4942 C 0.02507 0.57246 0.56038 0.0
C4943 C 0.02799 0.60537 0.56717 0.0
C4944 C 0.02121 0.60365 0.5843 0.0
C4945 C 0.01655 0.58614 0.58941 0.0
C4946 C 0.01821 0.57083 0.57758 0.0
C4947 C 0.01911 0.62006 0.59684 0.0
C4948 C 0.03062 0.62546 0.61352 0.0
C4949 C 0.00642 0.6309 0.59208 0.0
C4950 C 0.99379 0.62617 0.57475 0.0
C4951 C 0.98226 0.60916 0.57095 0.0
C4952 C 0.97046 0.60479 0.55453 0.0
C4953 C 0.96996 0.61737 0.54187 0.0
C4954 C 0.98122 0.63437 0.54562 0.0
C4955 C 0.99308 0.63879 0.56199 0.0
H4956 H 0.9608 0.61397 0.52918 0.0
H4957 H 0.082 0.66099 0.68281 0.0
H4958 H 0.58025 0.80889 0.81281 0.0
H4959 H 0.60873 0.80329 0.80246 0.0
H4960 H 0.62877 0.79832 0.85839 0.0
H4961 H 0.59976 0.803 0.86875 0.0
H4962 H 0.65479 0.82265 0.83562 0.0
H4963 H 0.61948 0.76255 0.83337 0.0
H4964 H 0.59317 0.73791 0.82366 0.0
H4965 H 0.60093 0.74169 0.76666 0.0
H4966 H 0.6271 0.7666 0.77603 0.0
H4967 H 0.73775 0.79625 0.81847 0.0
H4968 H 0.70894 0.79968 0.82895 0.0
H4969 H 0.68145 0.77639 0.77533 0.0
H4970 H 0.71048 0.77199 0.76509 0.0
H4971 H 0.65854 0.76687 0.79643 0.0
H4972 H 0.69134 0.82619 0.79577 0.0
H4973 H 0.71738 0.85158 0.80261 0.0
H4974 H 0.71344 0.85162 0.86079 0.0
H4975 H 0.68755 0.82602 0.85432 0.0
C4976 C 0.59056 0.80654 0.82307 0.0
C4977 C 0.58714 0.80646 0.84183 0.0
C4978 C 0.60711 0.80329 0.81701 0.0
C4979 C 0.62147 0.80033 0.82942 0.0
C4980 C 0.61827 0.80054 0.84824 0.0
C4981 C 0.60144 0.80322 0.85423 0.0
C4982 C 0.63954 0.79706 0.82274 0.0
C4983 C 0.65555 0.81028 0.82729 0.0
C4984 C 0.64101 0.78138 0.81106 0.0
C4985 C 0.6251 0.76663 0.8054 0.0
C4986 C 0.61543 0.75831 0.81876 0.0
C4987 C 0.60057 0.74425 0.81332 0.0
C4988 C 0.59534 0.73828 0.79455 0.0
C4989 C 0.60497 0.74636 0.78119 0.0
C4990 C 0.61981 0.76045 0.78656 0.0
C4991 C 0.72566 0.79182 0.80873 0.0
C4992 C 0.72701 0.78397 0.79067 0.0
C4993 C 0.70886 0.79402 0.81478 0.0
C4994 C 0.6923 0.78902 0.80301 0.0
C4995 C 0.69356 0.78072 0.78503 0.0
C4996 C 0.71044 0.77821 0.77904 0.0
C4997 C 0.67406 0.79238 0.80949 0.0
C4998 C 0.65793 0.77925 0.80479 0.0
C4999 C 0.67234 0.80841 0.82061 0.0
C5000 C 0.68761 0.82407 0.82457 0.0
C5001 C 0.69607 0.83157 0.81003 0.0
C5002 C 0.71081 0.84599 0.81383 0.0
C5003 C 0.71709 0.85318 0.83212 0.0
C5004 C 0.70858 0.84602 0.84663 0.0
C5005 C 0.69386 0.83156 0.84291 0.0
H5006 H 0.72854 0.86431 0.83503 0.0
H5007 H 0.58387 0.72736 0.79037 0.0
H5008 H 0.47232 0.52059 0.72254 0.0
H5009 H 0.48459 0.52347 0.69304 0.0
H5010 H 0.43051 0.5129 0.66456 0.0
H5011 H 0.4182 0.50935 0.69411 0.0
H5012 H 0.449 0.49621 0.64434 0.0
H5013 H 0.46154 0.55738 0.67312 0.0
H5014 H 0.47374 0.58262 0.69752 0.0
H5015 H 0.52734 0.57276 0.6942 0.0
H5016 H 0.51543 0.54733 0.66993 0.0
H5017 H 0.48121 0.53719 0.56205 0.0
H5018 H 0.46784 0.53488 0.59132 0.0
H5019 H 0.51224 0.51251 0.61376 0.0
H5020 H 0.52511 0.51378 0.5844 0.0
H5021 H 0.49822 0.54668 0.63613 0.0
H5022 H 0.48505 0.48353 0.61052 0.0
H5023 H 0.47278 0.45756 0.58696 0.0
H5024 H 0.4205 0.47188 0.58448 0.0
H5025 H 0.43255 0.49805 0.60793 0.0
C5026 C 0.46297 0.5189 0.71003 0.0
C5027 C 0.44418 0.51474 0.71092 0.0
C5028 C 0.47006 0.52072 0.69302 0.0
C5029 C 0.45864 0.5188 0.67621 0.0
C5030 C 0.43982 0.51454 0.67709 0.0
C5031 C 0.43272 0.51254 0.69412 0.0
C5032 C 0.46623 0.52073 0.65782 0.0
C5033 C 0.45957 0.50747 0.64264 0.0
C5034 C 0.48038 0.53513 0.65518 0.0
C5035 C 0.48756 0.55034 0.66983 0.0
C5036 C 0.47591 0.56051 0.67769 0.0
C5037 C 0.48278 0.57487 0.69148 0.0
C5038 C 0.5013 0.57926 0.69744 0.0
C5039 C 0.513 0.56933 0.68959 0.0
C5040 C 0.50619 0.55496 0.67581 0.0
C5041 C 0.48811 0.53167 0.57314 0.0
C5042 C 0.50434 0.52567 0.57059 0.0
C5043 C 0.48043 0.53037 0.58995 0.0
C5044 C 0.48894 0.52346 0.6049 0.0
C5045 C 0.5053 0.51786 0.60255 0.0
C5046 C 0.51272 0.5187 0.58565 0.0
C5047 C 0.48095 0.52219 0.62298 0.0
C5048 C 0.48755 0.53557 0.63798 0.0
C5049 C 0.46679 0.50794 0.6255 0.0
C5050 C 0.45975 0.49286 0.61075 0.0
C5051 C 0.47101 0.48129 0.60474 0.0
C5052 C 0.46406 0.46645 0.59153 0.0
C5053 C 0.44585 0.46303 0.58429 0.0
C5054 C 0.43459 0.47452 0.59014 0.0
C5055 C 0.44147 0.48935 0.60339 0.0
H5056 H 0.4405 0.45154 0.57406 0.0
H5057 H 0.50659 0.59039 0.70811 0.0
H5058 H 0.77886 0.17939 0.01163 0.0
H5059 H 0.7816 0.19978 0.9876 0.0
H5060 H 0.75913 0.15502 0.94586 0.0
H5061 H 0.75664 0.13467 0.9694 0.0
H5062 H 0.78947 0.17443 0.93712 0.0
H5063 H 0.73388 0.18408 0.95879 0.0
H5064 H 0.71363 0.19244 0.98111 0.0
H5065 H 0.74649 0.24555 0.9929 0.0
H5066 H 0.76709 0.2374 0.9708 0.0
H5067 H 0.75118 0.20683 0.85904 0.0
H5068 H 0.76317 0.19314 0.88504 0.0
H5069 H 0.78004 0.24579 0.91638 0.0
H5070 H 0.7665 0.25921 0.89073 0.0
H5071 H 0.75843 0.22603 0.93347 0.0
H5072 H 0.8146 0.21342 0.90983 0.0
H5073 H 0.83343 0.2017 0.88781 0.0
H5074 H 0.79553 0.15127 0.87751 0.0
H5075 H 0.7767 0.16265 0.89983 0.0
C5076 C 0.77455 0.17395 0.99732 0.0
C5077 C 0.76778 0.15544 0.99233 0.0
C5078 C 0.77604 0.18558 0.98369 0.0
C5079 C 0.77063 0.17877 0.96509 0.0
C5080 C 0.76356 0.1604 0.96018 0.0
C5081 C 0.76219 0.14882 0.97366 0.0
C5082 C 0.77272 0.19047 0.9504 0.0
C5083 C 0.78275 0.18579 0.93627 0.0
C5084 C 0.76418 0.20535 0.94963 0.0
C5085 C 0.7522 0.21004 0.9634 0.0
C5086 C 0.73694 0.19745 0.96635 0.0
C5087 C 0.72536 0.20217 0.9789 0.0
C5088 C 0.72882 0.21949 0.98848 0.0
C5089 C 0.74387 0.23212 0.98552 0.0
C5090 C 0.7555 0.22745 0.973 0.0
C5091 C 0.75759 0.21539 0.87145 0.0
C5092 C 0.75731 0.23383 0.87335 0.0
C5093 C 0.76489 0.20766 0.88615 0.0
C5094 C 0.77262 0.21845 0.90269 0.0
C5095 C 0.77404 0.23722 0.90377 0.0
C5096 C 0.76618 0.24484 0.88928 0.0
C5097 C 0.77512 0.20998 0.9198 0.0
C5098 C 0.76579 0.21515 0.93448 0.0
C5099 C 0.78386 0.19519 0.92083 0.0
C5100 C 0.79418 0.18898 0.90622 0.0
C5101 C 0.81017 0.19995 0.90262 0.0
C5102 C 0.82091 0.1933 0.8902 0.0
C5103 C 0.81563 0.17577 0.88113 0.0
C5104 C 0.79959 0.16485 0.88449 0.0
C5105 C 0.78894 0.17136 0.89708 0.0
H5106 H 0.824 0.17061 0.87158 0.0
H5107 H 0.7198 0.22315 0.99814 0.0
H5108 H 0.11929 0.52648 0.21257 0.0
H5109 H 0.10281 0.5232 0.182 0.0
H5110 H 0.15294 0.53646 0.15838 0.0
H5111 H 0.16976 0.54044 0.18945 0.0
H5112 H 0.1291 0.55505 0.14577 0.0
H5113 H 0.12786 0.49304 0.15108 0.0
H5114 H 0.12397 0.4653 0.1664 0.0
H5115 H 0.06809 0.46716 0.16956 0.0
H5116 H 0.0717 0.49504 0.15448 0.0
H5117 H 0.07321 0.51351 0.05685 0.0
H5118 H 0.09454 0.51504 0.08434 0.0
H5119 H 0.06178 0.54357 0.11653 0.0
H5120 H 0.04121 0.54379 0.08869 0.0
H5121 H 0.07985 0.50281 0.12205 0.0
H5122 H 0.08497 0.56929 0.12249 0.0
H5123 H 0.09018 0.59681 0.10729 0.0
H5124 H 0.14135 0.58625 0.09374 0.0
H5125 H 0.13569 0.55772 0.1077 0.0
C5126 C 0.1269 0.52852 0.2009 0.0
C5127 C 0.14581 0.53369 0.20333 0.0
C5128 C 0.11744 0.52649 0.18341 0.0
C5129 C 0.12671 0.5292 0.16796 0.0
C5130 C 0.14563 0.53416 0.17022 0.0
C5131 C 0.15517 0.53641 0.18788 0.0
C5132 C 0.11625 0.52814 0.14975 0.0
C5133 C 0.11855 0.54349 0.14041 0.0
C5134 C 0.1024 0.51311 0.14292 0.0
C5135 C 0.10008 0.49617 0.15171 0.0
C5136 C 0.11476 0.48758 0.15512 0.0
C5137 C 0.1126 0.47183 0.16375 0.0
C5138 C 0.0958 0.46449 0.16896 0.0
C5139 C 0.0811 0.47285 0.1655 0.0
C5140 C 0.08318 0.48861 0.15687 0.0
C5141 C 0.07062 0.52037 0.06969 0.0
C5142 C 0.05553 0.5286 0.0706 0.0
C5143 C 0.08285 0.52124 0.08532 0.0
C5144 C 0.07989 0.52989 0.10213 0.0
C5145 C 0.0645 0.53742 0.10338 0.0
C5146 C 0.05259 0.53719 0.08758 0.0
C5147 C 0.0924 0.52988 0.11862 0.0
C5148 C 0.09054 0.51424 0.12742 0.0
C5149 C 0.10671 0.54455 0.12488 0.0
C5150 C 0.10965 0.56114 0.11566 0.0
C5151 C 0.09705 0.57251 0.11576 0.0
C5152 C 0.10021 0.58844 0.10755 0.0
C5153 C 0.11626 0.5935 0.09981 0.0
C5154 C 0.12897 0.58237 0.09984 0.0
C5155 C 0.12569 0.56621 0.10771 0.0
H5156 H 0.11879 0.60592 0.09359 0.0
H5157 H 0.09416 0.4523 0.17567 0.0
H5158 H 0.7769 0.8832 0.46152 0.0
H5159 H 0.77458 0.86627 0.43128 0.0
H5160 H 0.78701 0.82052 0.45667 0.0
H5161 H 0.78991 0.83783 0.48748 0.0
H5162 H 0.80525 0.82467 0.42778 0.0
H5163 H 0.74289 0.82171 0.43468 0.0
H5164 H 0.71574 0.83342 0.44158 0.0
H5165 H 0.72204 0.86699 0.39775 0.0
H5166 H 0.74934 0.85565 0.39073 0.0
H5167 H 0.78912 0.77389 0.3367 0.0
H5168 H 0.78946 0.78471 0.36948 0.0
H5169 H 0.77188 0.83254 0.35389 0.0
H5170 H 0.77105 0.82154 0.32139 0.0
H5171 H 0.75428 0.82329 0.37943 0.0
H5172 H 0.81885 0.82969 0.37569 0.0
H5173 H 0.8475 0.82007 0.37068 0.0
H5174 H 0.83716 0.78058 0.40851 0.0
H5175 H 0.80853 0.7901 0.41389 0.0
C5176 C 0.77899 0.86946 0.46091 0.0
C5177 C 0.78354 0.862 0.47728 0.0
C5178 C 0.77752 0.85966 0.44337 0.0
C5179 C 0.78028 0.84185 0.44135 0.0
C5180 C 0.78468 0.83418 0.45764 0.0
C5181 C 0.78621 0.84407 0.47535 0.0
C5182 C 0.77928 0.8318 0.4222 0.0
C5183 C 0.79391 0.8241 0.41733 0.0
C5184 C 0.76473 0.83117 0.40818 0.0
C5185 C 0.74823 0.83792 0.41227 0.0
C5186 C 0.73854 0.83167 0.42659 0.0
C5187 C 0.72312 0.83823 0.43051 0.0
C5188 C 0.71719 0.85097 0.42014 0.0
C5189 C 0.72664 0.85713 0.40578 0.0
C5190 C 0.74208 0.85062 0.4018 0.0
C5191 C 0.78546 0.78677 0.34026 0.0
C5192 C 0.77993 0.7967 0.32618 0.0
C5193 C 0.78575 0.79308 0.35916 0.0
C5194 C 0.78085 0.80969 0.3646 0.0
C5195 C 0.77562 0.81966 0.35044 0.0
C5196 C 0.77516 0.8133 0.33167 0.0
C5197 C 0.78057 0.81667 0.38476 0.0
C5198 C 0.76561 0.82374 0.38986 0.0
C5199 C 0.79482 0.81676 0.39896 0.0
C5200 C 0.81152 0.81048 0.39504 0.0
C5201 C 0.82262 0.81884 0.38279 0.0
C5202 C 0.83888 0.81346 0.37995 0.0
C5203 C 0.84413 0.7997 0.38925 0.0
C5204 C 0.83309 0.79124 0.40134 0.0
C5205 C 0.81688 0.79666 0.40433 0.0
H5206 H 0.85677 0.79562 0.38711 0.0
H5207 H 0.70527 0.85605 0.42322 0.0
H5208 H 0.42052 0.52396 0.83549 0.0
H5209 H 0.43723 0.52546 0.86566 0.0
H5210 H 0.48505 0.51928 0.84034 0.0
H5211 H 0.46791 0.51697 0.80947 0.0
H5212 H 0.48289 0.49976 0.86807 0.0
H5213 H 0.47947 0.56142 0.86461 0.0
H5214 H 0.46469 0.58697 0.85885 0.0
H5215 H 0.43024 0.57391 0.90086 0.0
H5216 H 0.44469 0.5482 0.90676 0.0
H5217 H 0.53145 0.51527 0.96021 0.0
H5218 H 0.52085 0.51551 0.92753 0.0
H5219 H 0.47038 0.52734 0.94278 0.0
H5220 H 0.48144 0.52827 0.97538 0.0
H5221 H 0.47817 0.54648 0.91849 0.0
H5222 H 0.47872 0.48209 0.91836 0.0
H5223 H 0.4922 0.45533 0.9221 0.0
H5224 H 0.53228 0.47379 0.88698 0.0
H5225 H 0.51881 0.50048 0.88275 0.0
C5226 C 0.43466 0.5231 0.83608 0.0
C5227 C 0.44276 0.52049 0.81969 0.0
C5228 C 0.44432 0.52408 0.85361 0.0
C5229 C 0.46267 0.52294 0.85565 0.0
C5230 C 0.47096 0.52036 0.83936 0.0
C5231 C 0.46115 0.51916 0.82163 0.0
C5232 C 0.47268 0.52384 0.87479 0.0
C5233 C 0.48208 0.51018 0.87901 0.0
C5234 C 0.47164 0.53722 0.88939 0.0
C5235 C 0.46309 0.55282 0.88603 0.0
C5236 C 0.46868 0.56395 0.87255 0.0
C5237 C 0.46037 0.57847 0.86927 0.0
C5238 C 0.44648 0.58201 0.87942 0.0
C5239 C 0.44097 0.57113 0.89298 0.0
C5240 C 0.44925 0.55661 0.89633 0.0
C5241 C 0.51805 0.51784 0.95658 0.0
C5242 C 0.50738 0.52185 0.97059 0.0
C5243 C 0.51186 0.5178 0.93773 0.0
C5244 C 0.49455 0.52121 0.93221 0.0
C5245 C 0.4838 0.52479 0.9463 0.0
C5246 C 0.49015 0.52526 0.9651 0.0
C5247 C 0.48772 0.52189 0.9121 0.0
C5248 C 0.47903 0.53602 0.90762 0.0
C5249 C 0.48945 0.50896 0.89731 0.0
C5250 C 0.4979 0.49332 0.90041 0.0
C5251 C 0.49049 0.48049 0.91157 0.0
C5252 C 0.49808 0.46531 0.91371 0.0
C5253 C 0.51315 0.46292 0.90488 0.0
C5254 C 0.52063 0.47567 0.89383 0.0
C5255 C 0.51297 0.49077 0.89148 0.0
H5256 H 0.519 0.45115 0.90654 0.0
H5257 H 0.44003 0.59322 0.87683 0.0
H5258 H 0.75502 0.13706 0.1058 0.0
H5259 H 0.75628 0.15506 0.13584 0.0
H5260 H 0.79863 0.19528 0.12052 0.0
H5261 H 0.79755 0.17745 0.09083 0.0
H5262 H 0.80441 0.18913 0.15654 0.0
H5263 H 0.75431 0.19846 0.11268 0.0
H5264 H 0.72501 0.18917 0.09308 0.0
H5265 H 0.69952 0.17146 0.13983 0.0
H5266 H 0.7287 0.18044 0.15963 0.0
H5267 H 0.80424 0.26267 0.22173 0.0
H5268 H 0.80376 0.24462 0.19212 0.0
H5269 H 0.74963 0.21656 0.19752 0.0
H5270 H 0.74879 0.23789 0.22418 0.0
H5271 H 0.75012 0.21475 0.16627 0.0
H5272 H 0.79859 0.20281 0.21097 0.0
H5273 H 0.82723 0.21172 0.23181 0.0
H5274 H 0.85469 0.23134 0.18694 0.0
H5275 H 0.82624 0.22262 0.1659 0.0
C5276 C 0.76494 0.14948 0.10915 0.0
C5277 C 0.77614 0.156 0.09611 0.0
C5278 C 0.76551 0.15978 0.12615 0.0
C5279 C 0.77735 0.17654 0.13012 0.0
C5280 C 0.78938 0.18238 0.1176 0.0
C5281 C 0.78874 0.17221 0.10068 0.0
C5282 C 0.77668 0.18878 0.1467 0.0
C5283 C 0.79251 0.19465 0.15893 0.0
C5284 C 0.76108 0.19574 0.14971 0.0
C5285 C 0.74373 0.18988 0.13755 0.0
C5286 C 0.7425 0.19238 0.11871 0.0
C5287 C 0.7259 0.18722 0.10758 0.0
C5288 C 0.71043 0.17967 0.11518 0.0
C5289 C 0.71151 0.17725 0.13393 0.0
C5290 C 0.72807 0.18236 0.1451 0.0
C5291 C 0.79222 0.25281 0.21617 0.0
C5292 C 0.77687 0.25066 0.22549 0.0
C5293 C 0.79206 0.24218 0.19954 0.0
C5294 C 0.77719 0.22818 0.19309 0.0
C5295 C 0.7615 0.22693 0.20212 0.0
C5296 C 0.76109 0.23878 0.21764 0.0
C5297 C 0.77771 0.21474 0.17713 0.0
C5298 C 0.76193 0.20886 0.16463 0.0
C5299 C 0.7932 0.20729 0.1743 0.0
C5300 C 0.8103 0.21215 0.18693 0.0
C5301 C 0.81076 0.20901 0.20558 0.0
C5302 C 0.82694 0.21404 0.21742 0.0
C5303 C 0.84276 0.22211 0.2107 0.0
C5304 C 0.84245 0.22509 0.19212 0.0
C5305 C 0.82632 0.22007 0.18024 0.0
H5306 H 0.85526 0.22604 0.21989 0.0
H5307 H 0.69758 0.17574 0.10656 0.0
H5308 H 0.17191 0.55884 0.32765 0.0
H5309 H 0.15195 0.5564 0.35151 0.0
H5310 H 0.11388 0.51468 0.31612 0.0
H5311 H 0.13319 0.51856 0.29114 0.0
H5312 H 0.09697 0.53627 0.33434 0.0
H5313 H 0.14418 0.50511 0.35208 0.0
H5314 H 0.17639 0.50313 0.35601 0.0
H5315 H 0.18745 0.54859 0.39793 0.0
H5316 H 0.1554 0.55107 0.39402 0.0
H5317 H 0.0524 0.53296 0.41535 0.0
H5318 H 0.06874 0.52032 0.39144 0.0
H5319 H 0.11376 0.56497 0.40669 0.0
H5320 H 0.09735 0.57761 0.43034 0.0
H5321 H 0.12435 0.53213 0.39793 0.0
H5322 H 0.08252 0.56839 0.37488 0.0
H5323 H 0.05235 0.57583 0.36906 0.0
H5324 H 0.03302 0.52468 0.33622 0.0
H5325 H 0.06302 0.51677 0.34227 0.0
C5326 C 0.15925 0.54928 0.32481 0.0
C5327 C 0.15408 0.53884 0.30762 0.0
C5328 C 0.14794 0.5477 0.33857 0.0
C5329 C 0.13183 0.53481 0.33583 0.0
C5330 C 0.12644 0.52449 0.31856 0.0
C5331 C 0.13745 0.52666 0.3044 0.0
C5332 C 0.12067 0.53251 0.35112 0.0
C5333 C 0.10274 0.53474 0.34814 0.0
C5334 C 0.12839 0.53078 0.36913 0.0
C5335 C 0.14732 0.5282 0.37282 0.0
C5336 C 0.15345 0.51459 0.36225 0.0
C5337 C 0.17171 0.51344 0.3644 0.0
C5338 C 0.18395 0.52571 0.37723 0.0
C5339 C 0.17794 0.53905 0.38804 0.0
C5340 C 0.15971 0.5403 0.38591 0.0
C5341 C 0.06583 0.5399 0.41354 0.0
C5342 C 0.07363 0.55636 0.42411 0.0
C5343 C 0.07516 0.53264 0.40013 0.0
C5344 C 0.09234 0.54181 0.39736 0.0
C5345 C 0.1005 0.55773 0.40873 0.0
C5346 C 0.09111 0.56506 0.42196 0.0
C5347 C 0.10093 0.53642 0.38115 0.0
C5348 C 0.11834 0.53275 0.38398 0.0
C5349 C 0.09286 0.53707 0.36302 0.0
C5350 C 0.07488 0.54185 0.35932 0.0
C5351 C 0.07177 0.55864 0.36662 0.0
C5352 C 0.05471 0.56295 0.36325 0.0
C5353 C 0.04075 0.55069 0.35235 0.0
C5354 C 0.04383 0.53412 0.34475 0.0
C5355 C 0.06084 0.5297 0.34817 0.0
H5356 H 0.02755 0.55407 0.34974 0.0
H5357 H 0.1981 0.52488 0.37878 0.0
H5358 H 0.8025 0.84121 0.58009 0.0
H5359 H 0.80083 0.82936 0.60987 0.0
H5360 H 0.76849 0.86785 0.62645 0.0
H5361 H 0.77193 0.88094 0.59722 0.0
H5362 H 0.78566 0.86437 0.65552 0.0
H5363 H 0.7527 0.81618 0.60963 0.0
H5364 H 0.74862 0.79447 0.58146 0.0
H5365 H 0.79274 0.77173 0.60358 0.0
H5366 H 0.79718 0.7934 0.63178 0.0
H5367 H 0.75736 0.81799 0.73182 0.0
H5368 H 0.75774 0.83035 0.70207 0.0
H5369 H 0.79579 0.7978 0.68604 0.0
H5370 H 0.79433 0.78451 0.7151 0.0
H5371 H 0.77435 0.79823 0.65706 0.0
H5372 H 0.81012 0.84944 0.69988 0.0
H5373 H 0.81267 0.86784 0.73012 0.0
H5374 H 0.76084 0.88079 0.71544 0.0
H5375 H 0.75857 0.86355 0.68461 0.0
C5376 C 0.79504 0.84717 0.5901 0.0
C5377 C 0.78723 0.86195 0.58609 0.0
C5378 C 0.79383 0.84018 0.60722 0.0
C5379 C 0.78383 0.84699 0.62064 0.0
C5380 C 0.77619 0.862 0.61663 0.0
C5381 C 0.77808 0.86951 0.59977 0.0
C5382 C 0.78148 0.83864 0.63869 0.0
C5383 C 0.78293 0.84988 0.65558 0.0
C5384 C 0.77819 0.81966 0.63957 0.0
C5385 C 0.77534 0.80649 0.62273 0.0
C5386 C 0.76155 0.80658 0.60844 0.0
C5387 C 0.75918 0.79428 0.59248 0.0
C5388 C 0.77044 0.78176 0.59072 0.0
C5389 C 0.78404 0.78144 0.60495 0.0
C5390 C 0.78647 0.7937 0.62093 0.0
C5391 C 0.76582 0.8135 0.72196 0.0
C5392 C 0.77585 0.80026 0.72603 0.0
C5393 C 0.76624 0.82077 0.70491 0.0
C5394 C 0.77728 0.81561 0.69165 0.0
C5395 C 0.78718 0.80226 0.69576 0.0
C5396 C 0.78638 0.79465 0.71255 0.0
C5397 C 0.77861 0.82393 0.67359 0.0
C5398 C 0.77701 0.81271 0.6568 0.0
C5399 C 0.78168 0.84281 0.67278 0.0
C5400 C 0.78428 0.85541 0.68995 0.0
C5401 C 0.79954 0.8567 0.70292 0.0
C5402 C 0.80096 0.86697 0.72011 0.0
C5403 C 0.78706 0.87578 0.72455 0.0
C5404 C 0.77185 0.87451 0.71171 0.0
C5405 C 0.7706 0.8647 0.6943 0.0
H5406 H 0.78798 0.88341 0.73801 0.0
H5407 H 0.7686 0.77228 0.57834 0.0
H5408 H 0.73991 0.42219 0.51035 0.0
H5409 H 0.71109 0.4309 0.51512 0.0
H5410 H 0.72526 0.47692 0.48548 0.0
H5411 H 0.75393 0.46857 0.48067 0.0
H5412 H 0.71576 0.48468 0.52096 0.0
H5413 H 0.6947 0.44375 0.46506 0.0
H5414 H 0.6917 0.41418 0.44675 0.0
H5415 H 0.66132 0.38873 0.48693 0.0
H5416 H 0.6644 0.41816 0.50565 0.0
H5417 H 0.63945 0.52079 0.51933 0.0
H5418 H 0.65953 0.50421 0.50359 0.0
H5419 H 0.64549 0.46024 0.53602 0.0
H5420 H 0.62561 0.47695 0.55197 0.0
H5421 H 0.65398 0.44998 0.49848 0.0
H5422 H 0.676 0.48946 0.55495 0.0
H5423 H 0.68132 0.51788 0.57571 0.0
H5424 H 0.71248 0.54492 0.537 0.0
H5425 H 0.7068 0.51674 0.5157 0.0
C5426 C 0.7368 0.43405 0.50469 0.0
C5427 C 0.74922 0.44476 0.49526 0.0
C5428 C 0.72037 0.43892 0.50735 0.0
C5429 C 0.71627 0.45446 0.50056 0.0
C5430 C 0.72836 0.46487 0.49075 0.0
C5431 C 0.74471 0.46004 0.48806 0.0
C5432 C 0.69996 0.46078 0.50479 0.0
C5433 C 0.70224 0.47728 0.51581 0.0
C5434 C 0.68253 0.45066 0.49849 0.0
C5435 C 0.67984 0.43313 0.48679 0.0
C5436 C 0.6874 0.43184 0.47 0.0
C5437 C 0.6857 0.41511 0.45956 0.0
C5438 C 0.67634 0.39958 0.46568 0.0
C5439 C 0.66856 0.40077 0.48221 0.0
C5440 C 0.67025 0.41748 0.49272 0.0
C5441 C 0.64032 0.50737 0.52264 0.0
C5442 C 0.63156 0.50015 0.53701 0.0
C5443 C 0.65158 0.4979 0.5136 0.0
C5444 C 0.65398 0.48119 0.5189 0.0
C5445 C 0.64368 0.47313 0.53184 0.0
C5446 C 0.6326 0.48271 0.54105 0.0
C5447 C 0.66983 0.47418 0.51417 0.0
C5448 C 0.6675 0.45749 0.50335 0.0
C5449 C 0.68737 0.48403 0.52083 0.0
C5450 C 0.69062 0.50106 0.53354 0.0
C5451 C 0.68369 0.50153 0.55069 0.0
C5452 C 0.68682 0.51759 0.56259 0.0
C5453 C 0.69715 0.53323 0.55763 0.0
C5454 C 0.70438 0.53282 0.54077 0.0
C5455 C 0.70116 0.51682 0.52876 0.0
H5456 H 0.69962 0.54564 0.5669 0.0
H5457 H 0.67509 0.38662 0.45761 0.0
H5458 H 0.1978 0.16429 0.49496 0.0
H5459 H 0.16856 0.14432 0.49673 0.0
H5460 H 0.19644 0.10551 0.51959 0.0
H5461 H 0.22542 0.12583 0.51888 0.0
H5462 H 0.16685 0.09002 0.49016 0.0
H5463 H 0.17997 0.12634 0.54791 0.0
H5464 H 0.1887 0.15436 0.56934 0.0
H5465 H 0.14135 0.17227 0.54743 0.0
H5466 H 0.13254 0.14447 0.52553 0.0
H5467 H 0.09291 0.03819 0.53073 0.0
H5468 H 0.12214 0.05669 0.52703 0.0
H5469 H 0.09497 0.09397 0.50038 0.0
H5470 H 0.06573 0.07508 0.50297 0.0
H5471 H 0.12446 0.10953 0.53172 0.0
H5472 H 0.11165 0.07022 0.47405 0.0
H5473 H 0.10397 0.04056 0.45527 0.0
H5474 H 0.1524 0.02655 0.48005 0.0
H5475 H 0.16018 0.05601 0.49928 0.0
C5476 C 0.19764 0.15146 0.50026 0.0
C5477 C 0.21396 0.14631 0.50606 0.0
C5478 C 0.18095 0.14003 0.50123 0.0
C5479 C 0.18025 0.12322 0.50803 0.0
C5480 C 0.19656 0.1182 0.51398 0.0
C5481 C 0.21315 0.12978 0.51341 0.0
C5482 C 0.16256 0.11129 0.50981 0.0
C5483 C 0.15766 0.09428 0.4993 0.0
C5484 C 0.15051 0.11666 0.52186 0.0
C5485 C 0.15575 0.13346 0.53487 0.0
C5486 C 0.17155 0.13636 0.54747 0.0
C5487 C 0.17648 0.15218 0.55975 0.0
C5488 C 0.16562 0.16512 0.55971 0.0
C5489 C 0.14978 0.16225 0.5474 0.0
C5490 C 0.14481 0.14647 0.53504 0.0
C5491 C 0.09305 0.04999 0.52358 0.0
C5492 C 0.07675 0.05477 0.51681 0.0
C5493 C 0.10985 0.06073 0.5217 0.0
C5494 C 0.1108 0.07676 0.51343 0.0
C5495 C 0.09462 0.08169 0.50684 0.0
C5496 C 0.07786 0.07077 0.5083 0.0
C5497 C 0.12861 0.08847 0.51171 0.0
C5498 C 0.13359 0.10538 0.52239 0.0
C5499 C 0.14088 0.08285 0.50006 0.0
C5500 C 0.13635 0.06523 0.48832 0.0
C5501 C 0.12056 0.06074 0.47566 0.0
C5502 C 0.1162 0.04397 0.4649 0.0
C5503 C 0.12765 0.03164 0.46653 0.0
C5504 C 0.14351 0.03609 0.47885 0.0
C5505 C 0.1479 0.05283 0.48968 0.0
H5506 H 0.12425 0.01866 0.45819 0.0
H5507 H 0.16944 0.17735 0.56926 0.0
H5508 H 0.16625 0.99443 0.81827 0.0
H5509 H 0.17873 0.96724 0.81336 0.0
H5510 H 0.16398 0.96459 0.75451 0.0
H5511 H 0.15055 0.99145 0.75957 0.0
H5512 H 0.16039 0.93172 0.76349 0.0
H5513 H 0.20843 0.98449 0.77836 0.0
H5514 H 0.22526 0.01198 0.79771 0.0
H5515 H 0.23453 0.98101 0.84256 0.0
H5516 H 0.21753 0.9534 0.82356 0.0
H5517 H 0.22726 0.88563 0.73145 0.0
H5518 H 0.20685 0.90585 0.7393 0.0
H5519 H 0.22118 0.90296 0.79733 0.0
H5520 H 0.24172 0.88264 0.78945 0.0
H5521 H 0.22397 0.93717 0.79067 0.0
H5522 H 0.17856 0.88434 0.77605 0.0
H5523 H 0.16106 0.85644 0.75802 0.0
H5524 H 0.14647 0.8865 0.71407 0.0
H5525 H 0.1641 0.91456 0.73173 0.0
C5526 C 0.16534 0.98785 0.80429 0.0
C5527 C 0.15744 0.99514 0.7893 0.0
C5528 C 0.17267 0.97236 0.80147 0.0
C5529 C 0.17293 0.96407 0.78349 0.0
C5530 C 0.16415 0.97075 0.76853 0.0
C5531 C 0.1564 0.98609 0.77141 0.0
C5532 C 0.18305 0.94905 0.78029 0.0
C5533 C 0.17437 0.93303 0.76924 0.0
C5534 C 0.20115 0.95033 0.78828 0.0
C5535 C 0.21158 0.96691 0.79959 0.0
C5536 C 0.21399 0.98357 0.79238 0.0
C5537 C 0.22356 0.99917 0.80328 0.0
C5538 C 0.23093 0.99824 0.82136 0.0
C5539 C 0.2288 0.98171 0.82856 0.0
C5540 C 0.2192 0.96608 0.81773 0.0
C5541 C 0.22589 0.88911 0.74589 0.0
C5542 C 0.23622 0.8826 0.75983 0.0
C5543 C 0.2141 0.90061 0.75037 0.0
C5544 C 0.21235 0.90599 0.76894 0.0
C5545 C 0.22223 0.89904 0.7829 0.0
C5546 C 0.2339 0.88734 0.77839 0.0
C5547 C 0.2014 0.91994 0.77367 0.0
C5548 C 0.20996 0.93579 0.78497 0.0
C5549 C 0.1832 0.91844 0.76599 0.0
C5550 C 0.17283 0.90155 0.75515 0.0
C5551 C 0.17179 0.88499 0.76246 0.0
C5552 C 0.1618 0.86914 0.75232 0.0
C5553 C 0.1527 0.86969 0.73489 0.0
C5554 C 0.15355 0.88609 0.72757 0.0
C5555 C 0.16353 0.90197 0.73764 0.0
H5556 H 0.14495 0.85741 0.72707 0.0
H5557 H 0.23833 0.01033 0.82978 0.0
H5558 H 0.33693 0.94536 0.03265 0.0
H5559 H 0.36814 0.96052 0.04229 0.0
H5560 H 0.37842 0.95606 0.98488 0.0
H5561 H 0.34893 0.93678 0.97656 0.0
H5562 H 0.40448 0.95133 1.00105 0.0
H5563 H 0.36936 0.99919 0.01997 0.0
H5564 H 0.34929 0.01282 0.03947 0.0
H5565 H 0.3805 1.00373 0.08848 0.0
H5566 H 0.40073 0.99016 0.06944 0.0
H5567 H 0.47312 0.02146 0.99241 0.0
H5568 H 0.44237 0.00533 0.99328 0.0
H5569 H 0.45345 0.00519 0.05238 0.0
H5570 H 0.48339 0.0235 0.05166 0.0
H5571 H 0.42025 0.00858 0.04293 0.0
H5572 H 0.45876 0.96815 0.02063 0.0
H5573 H 0.47988 0.95911 0.99963 0.0
H5574 H 0.44102 0.95851 0.95267 0.0
H5575 H 0.41958 0.96739 0.97339 0.0
C5576 C 0.3461 0.94769 0.02226 0.0
C5577 C 0.34052 0.94112 0.00364 0.0
C5578 C 0.36378 0.95665 0.02769 0.0
C5579 C 0.37558 0.96027 0.01431 0.0
C5580 C 0.36971 0.95358 0.99562 0.0
C5581 C 0.35263 0.94314 0.99058 0.0
C5582 C 0.3943 0.97018 0.01937 0.0
C5583 C 0.40767 0.96404 0.00994 0.0
C5584 C 0.39907 0.98608 0.03208 0.0
C5585 C 0.38631 0.99341 0.04329 0.0
C5586 C 0.37176 0.99993 0.03488 0.0
C5587 C 0.36042 0.00767 0.04582 0.0
C5588 C 0.36353 0.00899 0.0651 0.0
C5589 C 0.37804 1.00262 0.07354 0.0
C5590 C 0.38944 0.99493 0.0627 0.0
C5591 C 0.46875 0.01846 0.00561 0.0
C5592 C 0.48069 0.02271 0.02194 0.0
C5593 C 0.45139 0.00903 0.00607 0.0
C5594 C 0.44621 1.00331 0.02274 0.0
C5595 C 0.45758 0.00903 0.03931 0.0
C5596 C 0.47474 0.01902 0.03889 0.0
C5597 C 0.42918 0.99082 0.02269 0.0
C5598 C 0.41665 0.99601 0.03379 0.0
C5599 C 0.42489 0.97446 0.01091 0.0
C5600 C 0.4376 0.96845 0.99857 0.0
C5601 C 0.45472 0.96606 0.00583 0.0
C5602 C 0.46676 0.961 0.99397 0.0
C5603 C 0.46186 0.95835 0.97483 0.0
C5604 C 0.44481 0.96057 0.9675 0.0
C5605 C 0.43268 0.96552 0.9793 0.0
H5606 H 0.47128 0.95456 0.96571 0.0
H5607 H 0.35475 0.01503 0.07349 0.0
H5608 H 0.88073 0.56902 0.78931 0.0
H5609 H 0.86978 0.59659 0.7852 0.0
H5610 H 0.82634 0.58005 0.81766 0.0
H5611 H 0.83693 0.5521 0.82161 0.0
H5612 H 0.8154 0.58934 0.78332 0.0
H5613 H 0.86047 0.61382 0.83529 0.0
H5614 H 0.8914 0.61793 0.85119 0.0
H5615 H 0.91242 0.6456 0.80707 0.0
H5616 H 0.88163 0.6414 0.79075 0.0
H5617 H 0.78116 0.66727 0.77615 0.0
H5618 H 0.79628 0.64692 0.79318 0.0
H5619 H 0.84073 0.65635 0.76039 0.0
H5620 H 0.82541 0.67638 0.74306 0.0
H5621 H 0.85105 0.65172 0.79826 0.0
H5622 H 0.8107 0.62487 0.74459 0.0
H5623 H 0.78222 0.6178 0.72365 0.0
H5624 H 0.75496 0.59166 0.76544 0.0
H5625 H 0.78321 0.59911 0.78689 0.0
C5626 C 0.86898 0.5713 0.79581 0.0
C5627 C 0.85963 0.55835 0.80572 0.0
C5628 C 0.86284 0.5871 0.79353 0.0
C5629 C 0.84744 0.5903 0.80134 0.0
C5630 C 0.83835 0.57772 0.81168 0.0
C5631 C 0.84444 0.56184 0.81393 0.0
C5632 C 0.83999 0.60609 0.79729 0.0
C5633 C 0.82292 0.60303 0.78706 0.0
C5634 C 0.85036 0.62374 0.80144 0.0
C5635 C 0.86873 0.6273 0.8118 0.0
C5636 C 0.87169 0.62081 0.82899 0.0
C5637 C 0.8892 0.62311 0.83806 0.0
C5638 C 0.90387 0.63202 0.83015 0.0
C5639 C 0.90104 0.63874 0.8132 0.0
C5640 C 0.88355 0.63643 0.80406 0.0
C5641 C 0.79433 0.66524 0.77293 0.0
C5642 C 0.80211 0.67294 0.75822 0.0
C5643 C 0.80295 0.65379 0.78266 0.0
C5644 C 0.81947 0.65017 0.77784 0.0
C5645 C 0.82799 0.6591 0.76423 0.0
C5646 C 0.81921 0.67031 0.75427 0.0
C5647 C 0.82627 0.63495 0.7847 0.0
C5648 C 0.84328 0.63808 0.79513 0.0
C5649 C 0.81608 0.61722 0.78028 0.0
C5650 C 0.79898 0.61294 0.76752 0.0
C5651 C 0.79856 0.61793 0.74946 0.0
C5652 C 0.78247 0.6138 0.73747 0.0
C5653 C 0.76676 0.60438 0.74325 0.0
C5654 C 0.76712 0.59906 0.76103 0.0
C5655 C 0.78316 0.60328 0.77313 0.0
H5656 H 0.75432 0.60113 0.73391 0.0
H5657 H 0.91742 0.63373 0.83715 0.0
H5658 H 0.79532 0.62702 0.02683 0.0
H5659 H 0.82211 0.61369 0.03052 0.0
H5660 H 0.85053 0.65399 1.00048 0.0
H5661 H 0.8231 0.66691 0.99607 0.0
H5662 H 0.85681 0.62189 0.98866 0.0
H5663 H 0.86014 0.65415 0.04892 0.0
H5664 H 0.84893 0.66377 0.07807 0.0
H5665 H 0.838 0.60898 0.09033 0.0
H5666 H 0.84895 0.599 0.06115 0.0
H5667 H 0.94398 0.60204 0.01724 0.0
H5668 H 0.91697 0.61435 0.00901 0.0
H5669 H 0.88549 0.57453 0.03726 0.0
H5670 H 0.91262 0.56237 0.04561 0.0
H5671 H 0.88135 0.60715 0.04944 0.0
H5672 H 0.87852 0.57489 0.98938 0.0
H5673 H 0.88985 0.56524 0.96032 0.0
H5674 H 0.90015 0.61992 0.94765 0.0
H5675 H 0.88915 0.62994 0.97679 0.0
C5676 C 0.80736 0.6332 0.02124 0.0
C5677 C 0.80723 0.64814 0.01139 0.0
C5678 C 0.82275 0.6256 0.02342 0.0
C5679 C 0.83857 0.6329 0.01602 0.0
C5680 C 0.83857 0.64811 0.00641 0.0
C5681 C 0.82301 0.65566 0.00411 0.0
C5682 C 0.85474 0.62421 0.01794 0.0
C5683 C 0.86237 0.61895 1.002 0.0
C5684 C 0.86181 0.61986 0.03523 0.0
C5685 C 0.85525 0.62582 0.0528 0.0
C5686 C 0.85524 0.64414 0.05778 0.0
C5687 C 0.84895 0.64966 0.07432 0.0
C5688 C 0.84273 0.637 0.08603 0.0
C5689 C 0.84281 0.61878 0.08125 0.0
C5690 C 0.84908 0.61319 0.06473 0.0
C5691 C 0.93114 0.5956 0.02115 0.0
C5692 C 0.9303 0.58118 0.03188 0.0
C5693 C 0.91569 0.60264 0.01647 0.0
C5694 C 0.89908 0.59542 0.02248 0.0
C5695 C 0.89809 0.58038 0.03245 0.0
C5696 C 0.91355 0.57332 0.03709 0.0
C5697 C 0.88335 0.60466 0.02016 0.0
C5698 C 0.87582 0.61008 0.03607 0.0
C5699 C 0.87647 0.60916 0.00286 0.0
C5700 C 0.88318 0.60319 0.98537 0.0
C5701 C 0.88337 0.58488 0.98049 0.0
C5702 C 0.88969 0.57934 0.96398 0.0
C5703 C 0.89576 0.59196 0.95216 0.0
C5704 C 0.89548 0.61015 0.95682 0.0
C5705 C 0.88919 0.61577 0.97333 0.0
H5706 H 0.90063 0.58765 0.93938 0.0
H5707 H 0.83787 0.6413 0.09882 0.0
H5708 H 0.14431 0.10402 0.80876 0.0
H5709 H 0.1641 0.13339 0.80837 0.0
H5710 H 0.19677 0.1083 0.77269 0.0
H5711 H 0.1778 0.0789 0.77439 0.0
H5712 H 0.21834 0.13193 0.79283 0.0
H5713 H 0.1621 0.13524 0.75839 0.0
H5714 H 0.12912 0.13321 0.75323 0.0
H5715 H 0.13264 0.17461 0.79849 0.0
H5716 H 0.16563 0.17671 0.80405 0.0
H5717 H 0.26152 0.21301 0.76034 0.0
H5718 H 0.24313 0.18363 0.7633 0.0
H5719 H 0.21552 0.20854 0.80436 0.0
H5720 H 0.2336 0.23802 0.80112 0.0
H5721 H 0.19171 0.18529 0.78178 0.0
H5722 H 0.24915 0.18064 0.81547 0.0
H5723 H 0.28204 0.18177 0.81887 0.0
H5724 H 0.27585 0.14265 0.77108 0.0
H5725 H 0.24288 0.1411 0.7676 0.0
C5726 C 0.15581 0.10485 0.80097 0.0
C5727 C 0.15965 0.08915 0.79183 0.0
C5728 C 0.16707 0.1217 0.80054 0.0
C5729 C 0.18188 0.12345 0.79007 0.0
C5730 C 0.18557 0.10762 0.78089 0.0
C5731 C 0.17466 0.09074 0.7818 0.0
C5732 C 0.19344 0.14158 0.78851 0.0
C5733 C 0.21237 0.14347 0.7902 0.0
C5734 C 0.18604 0.15701 0.78527 0.0
C5735 C 0.16629 0.15602 0.78172 0.0
C5736 C 0.15582 0.14386 0.76727 0.0
C5737 C 0.13713 0.14269 0.76429 0.0
C5738 C 0.12879 0.15374 0.77555 0.0
C5739 C 0.13912 0.16604 0.78979 0.0
C5740 C 0.15781 0.16724 0.79285 0.0
C5741 C 0.25175 0.21223 0.77024 0.0
C5742 C 0.24931 0.22797 0.78069 0.0
C5743 C 0.24119 0.19533 0.77195 0.0
C5744 C 0.22802 0.19358 0.78434 0.0
C5745 C 0.22556 0.20932 0.79474 0.0
C5746 C 0.23601 0.22624 0.79294 0.0
C5747 C 0.2165 0.17555 0.78614 0.0
C5748 C 0.19759 0.17371 0.78446 0.0
C5749 C 0.22389 0.16008 0.78899 0.0
C5750 C 0.24362 0.16086 0.79122 0.0
C5751 C 0.25483 0.17232 0.80568 0.0
C5752 C 0.27347 0.17302 0.80762 0.0
C5753 C 0.28106 0.1624 0.79511 0.0
C5754 C 0.26997 0.1509 0.78074 0.0
C5755 C 0.2513 0.15002 0.77884 0.0
H5756 H 0.29551 0.16304 0.79658 0.0
H5757 H 0.11431 0.1528 0.77324 0.0
H5758 H 0.38392 0.95802 0.31423 0.0
H5759 H 0.3673 0.9267 0.30939 0.0
H5760 H 0.32827 0.94124 0.26935 0.0
H5761 H 0.34424 0.97255 0.27506 0.0
H5762 H 0.31209 0.9181 0.28937 0.0
H5763 H 0.36495 0.9235 0.25624 0.0
H5764 H 0.39767 0.93182 0.25419 0.0
H5765 H 0.40802 0.89516 0.29322 0.0
H5766 H 0.37538 0.88679 0.29567 0.0
H5767 H 0.27748 0.82711 0.25163 0.0
H5768 H 0.29173 0.85908 0.25243 0.0
H5769 H 0.33311 0.8524 0.29482 0.0
H5770 H 0.31937 0.82062 0.29343 0.0
H5771 H 0.347 0.87192 0.26984 0.0
H5772 H 0.29546 0.86787 0.30526 0.0
H5773 H 0.26305 0.85953 0.30869 0.0
H5774 H 0.25053 0.89339 0.26756 0.0
H5775 H 0.28287 0.90174 0.26366 0.0
C5776 C 0.37167 0.95437 0.30461 0.0
C5777 C 0.36502 0.96727 0.29512 0.0
C5778 C 0.36227 0.93667 0.30182 0.0
C5779 C 0.34684 0.9318 0.28877 0.0
C5780 C 0.34017 0.94485 0.27945 0.0
C5781 C 0.34927 0.96257 0.28262 0.0
C5782 C 0.33821 0.91295 0.28388 0.0
C5783 C 0.31965 0.908 0.285 0.0
C5784 C 0.34821 0.89995 0.27811 0.0
C5785 C 0.36776 0.90459 0.27618 0.0
C5786 C 0.37422 0.91724 0.26439 0.0
C5787 C 0.39275 0.92197 0.26318 0.0
C5788 C 0.40492 0.91403 0.27358 0.0
C5789 C 0.39858 0.90129 0.28517 0.0
C5790 C 0.38007 0.89653 0.28645 0.0
C5791 C 0.28976 0.83264 0.26083 0.0
C5792 C 0.2976 0.82194 0.27242 0.0
C5793 C 0.29779 0.85067 0.26132 0.0
C5794 C 0.3133 0.85787 0.27376 0.0
C5795 C 0.32121 0.84691 0.28506 0.0
C5796 C 0.31342 0.82893 0.28431 0.0
C5797 C 0.32105 0.87701 0.27598 0.0
C5798 C 0.33943 0.88207 0.27417 0.0
C5799 C 0.31093 0.89003 0.28136 0.0
C5800 C 0.29154 0.88525 0.284 0.0
C5801 C 0.28578 0.87345 0.29686 0.0
C5802 C 0.26743 0.86872 0.2989 0.0
C5803 C 0.25473 0.87586 0.28832 0.0
C5804 C 0.26038 0.88783 0.27572 0.0
C5805 C 0.27871 0.89257 0.27359 0.0
H5806 H 0.24053 0.87216 0.28991 0.0
H5807 H 0.41926 0.91774 0.27265 0.0
H5808 H 0.57446 0.34108 0.58502 0.0
H5809 H 0.57238 0.36983 0.573 0.0
H5810 H 0.5179 0.36472 0.58705 0.0
H5811 H 0.51974 0.33562 0.59791 0.0
H5812 H 0.5165 0.37723 0.55725 0.0
H5813 H 0.56268 0.39784 0.61055 0.0
H5814 H 0.59214 0.39862 0.62857 0.0
H5815 H 0.6194 0.41325 0.58183 0.0
H5816 H 0.5901 0.41237 0.5635 0.0
H5817 H 0.50322 0.46616 0.54277 0.0
H5818 H 0.50678 0.43763 0.554 0.0
H5819 H 0.5627 0.44801 0.54401 0.0
H5820 H 0.55925 0.47723 0.53417 0.0
H5821 H 0.56421 0.43231 0.5705 0.0
H5822 H 0.5211 0.4127 0.51695 0.0
H5823 H 0.49302 0.41029 0.49596 0.0
H5824 H 0.46153 0.39214 0.53871 0.0
H5825 H 0.48941 0.39466 0.56004 0.0
C5826 C 0.5622 0.34631 0.586 0.0
C5827 C 0.54748 0.336 0.59309 0.0
C5828 C 0.56094 0.36298 0.57905 0.0
C5829 C 0.54502 0.37032 0.57923 0.0
C5830 C 0.53045 0.35995 0.58652 0.0
C5831 C 0.53159 0.3432 0.59307 0.0
C5832 C 0.54305 0.3882 0.57146 0.0
C5833 C 0.52693 0.38929 0.5605 0.0
C5834 C 0.55668 0.40422 0.57453 0.0
C5835 C 0.57422 0.40489 0.58564 0.0
C5836 C 0.57496 0.40116 0.60412 0.0
C5837 C 0.59163 0.40161 0.61438 0.0
C5838 C 0.60763 0.40594 0.60634 0.0
C5839 C 0.607 0.40988 0.58803 0.0
C5840 C 0.59038 0.40942 0.57772 0.0
C5841 C 0.5162 0.46225 0.54266 0.0
C5842 C 0.53079 0.4741 0.53708 0.0
C5843 C 0.5183 0.44562 0.54908 0.0
C5844 C 0.53499 0.43965 0.54961 0.0
C5845 C 0.54957 0.45165 0.54397 0.0
C5846 C 0.54757 0.46853 0.53811 0.0
C5847 C 0.53749 0.4215 0.55649 0.0
C5848 C 0.55371 0.42032 0.56724 0.0
C5849 C 0.52412 0.40527 0.55283 0.0
C5850 C 0.50734 0.40401 0.54013 0.0
C5851 C 0.50818 0.40832 0.52191 0.0
C5852 C 0.4923 0.40691 0.50995 0.0
C5853 C 0.47552 0.40104 0.516 0.0
C5854 C 0.47455 0.39666 0.53404 0.0
C5855 C 0.49038 0.39808 0.54607 0.0
H5856 H 0.46325 0.39985 0.50668 0.0
H5857 H 0.62051 0.40627 0.6143 0.0
H5858 H 0.46309 0.75397 0.38142 0.0
H5859 H 0.43615 0.75615 0.36093 0.0
H5860 H 0.41474 0.7806 0.40716 0.0
H5861 H 0.44244 0.77982 0.42734 0.0
H5862 H 0.39812 0.74013 0.36845 0.0
H5863 H 0.404 0.80359 0.39609 0.0
H5864 H 0.41351 0.83642 0.4034 0.0
H5865 H 0.42454 0.8409 0.34736 0.0
H5866 H 0.41631 0.8079 0.34014 0.0
H5867 H 0.31194 0.75031 0.32106 0.0
H5868 H 0.33804 0.74951 0.34328 0.0
H5869 H 0.37302 0.78073 0.31012 0.0
H5870 H 0.34691 0.78243 0.28852 0.0
H5871 H 0.38172 0.79404 0.34382 0.0
H5872 H 0.3693 0.73141 0.31581 0.0
H5873 H 0.34953 0.70144 0.3077 0.0
H5874 H 0.34328 0.69789 0.36506 0.0
H5875 H 0.36284 0.7279 0.37347 0.0
C5876 C 0.453 0.76052 0.38711 0.0
C5877 C 0.45555 0.76752 0.40597 0.0
C5878 C 0.43741 0.76166 0.37532 0.0
C5879 C 0.42344 0.76947 0.38197 0.0
C5880 C 0.42554 0.77562 0.40108 0.0
C5881 C 0.44135 0.77478 0.41283 0.0
C5882 C 0.40603 0.76892 0.36932 0.0
C5883 C 0.39461 0.75205 0.36321 0.0
C5884 C 0.40092 0.78426 0.36213 0.0
C5885 C 0.41052 0.80306 0.36788 0.0
C5886 C 0.40961 0.81137 0.38568 0.0
C5887 C 0.4144 0.83011 0.3897 0.0
C5888 C 0.41959 0.84077 0.37586 0.0
C5889 C 0.42049 0.83267 0.35809 0.0
C5890 C 0.41614 0.81392 0.35416 0.0
C5891 C 0.3252 0.75687 0.31833 0.0
C5892 C 0.32708 0.76619 0.30258 0.0
C5893 C 0.34029 0.75627 0.3311 0.0
C5894 C 0.35791 0.76476 0.3285 0.0
C5895 C 0.35978 0.77388 0.31265 0.0
C5896 C 0.34471 0.77464 0.30001 0.0
C5897 C 0.37423 0.76539 0.34268 0.0
C5898 C 0.38543 0.78215 0.34897 0.0
C5899 C 0.37881 0.75012 0.35035 0.0
C5900 C 0.36745 0.73192 0.34525 0.0
C5901 C 0.36367 0.72425 0.32667 0.0
C5902 C 0.35249 0.70726 0.32203 0.0
C5903 C 0.34514 0.69778 0.33586 0.0
C5904 C 0.34899 0.70524 0.35437 0.0
C5905 C 0.36013 0.72222 0.35908 0.0
H5906 H 0.33647 0.68464 0.33223 0.0
H5907 H 0.42301 0.85529 0.37892 0.0
H5908 H 0.04999 0.7432 0.06667 0.0
H5909 H 0.04715 0.71175 0.05319 0.0
H5910 H 0.03244 0.69373 0.10471 0.0
H5911 H 0.03508 0.72498 0.11796 0.0
H5912 H 0.05662 0.67701 0.09523 0.0
H5913 H 0.99629 0.67266 0.05335 0.0
H5914 H 0.97618 0.67915 0.02729 0.0
H5915 H 0.02161 0.69265 0.99699 0.0
H5916 H 0.04185 0.68568 0.0227 0.0
H5917 H 0.02684 0.58156 0.06968 0.0
H5918 H 0.02978 0.6139 0.07897 0.0
H5919 H 0.05091 0.62547 0.02795 0.0
H5920 H 0.04829 0.59304 0.0187 0.0
H5921 H 0.02539 0.6458 0.03499 0.0
H5922 H 0.08003 0.63942 0.06774 0.0
H5923 H 0.10262 0.62948 0.08873 0.0
H5924 H 0.07157 0.63683 0.13396 0.0
H5925 H 0.04889 0.64714 0.1132 0.0
C5926 C 0.04546 0.73253 0.07491 0.0
C5927 C 0.04229 0.73693 0.09338 0.0
C5928 C 0.04388 0.71432 0.06714 0.0
C5929 C 0.03934 0.69976 0.07765 0.0
C5930 C 0.03593 0.70429 0.096 0.0
C5931 C 0.03741 0.72237 0.10366 0.0
C5932 C 0.03993 0.68018 0.07069 0.0
C5933 C 0.04939 0.67025 0.08216 0.0
C5934 C 0.03157 0.67095 0.05322 0.0
C5935 C 0.02057 0.67913 0.04006 0.0
C5936 C 1.00201 0.67744 0.0413 0.0
C5937 C 0.99055 0.6808 0.02644 0.0
C5938 C 0.99759 0.68605 0.01039 0.0
C5939 C 0.01617 0.68843 0.00936 0.0
C5940 C 0.02762 0.68478 0.02406 0.0
C5941 C 0.03228 0.59091 0.06042 0.0
C5942 C 0.03738 0.58433 0.04337 0.0
C5943 C 0.03404 0.6096 0.06584 0.0
C5944 C 0.04069 0.62257 0.05434 0.0
C5945 C 0.04578 0.61605 0.03727 0.0
C5946 C 0.04436 0.59733 0.03199 0.0
C5947 C 0.0415 0.64266 0.05984 0.0
C5948 C 0.03242 0.6526 0.04814 0.0
C5949 C 0.05048 0.65202 0.07693 0.0
C5950 C 0.06271 0.64384 0.08892 0.0
C5951 C 0.07787 0.63861 0.08209 0.0
C5952 C 0.09077 0.63308 0.09398 0.0
C5953 C 0.08857 0.63258 0.1127 0.0
C5954 C 0.07329 0.63731 0.11948 0.0
C5955 C 0.06044 0.64305 0.10768 0.0
H5956 H 0.0987 0.62851 0.12195 0.0
H5957 H 0.98869 0.6886 0.99887 0.0
H5958 H 0.04821 0.29011 0.88762 0.0
H5959 H 0.07464 0.28664 0.87322 0.0
H5960 H 0.08792 0.25116 0.9126 0.0
H5961 H 0.06034 0.25411 0.92741 0.0
H5962 H 0.11812 0.28461 0.90101 0.0
H5963 H 0.07479 0.22968 0.87709 0.0
H5964 H 0.04424 0.2133 0.86423 0.0
H5965 H 0.04578 0.24436 0.81818 0.0
H5966 H 0.07621 0.26115 0.83094 0.0
H5967 H 0.18622 0.27346 0.84236 0.0
H5968 H 0.16253 0.2645 0.86222 0.0
H5969 H 0.12347 0.28013 0.82335 0.0
H5970 H 0.14712 0.28934 0.80383 0.0
H5971 H 0.10764 0.25151 0.83781 0.0
H5972 H 0.14433 0.30856 0.8601 0.0
H5973 H 0.17258 0.3304 0.87098 0.0
H5974 H 0.18127 0.30191 0.91793 0.0
H5975 H 0.15324 0.27961 0.90707 0.0
C5976 C 0.05654 0.28152 0.8936 0.0
C5977 C 0.05173 0.27227 0.90887 0.0
C5978 C 0.07185 0.27962 0.88516 0.0
C5979 C 0.08328 0.2686 0.89165 0.0
C5980 C 0.07922 0.25976 0.90731 0.0
C5981 C 0.06347 0.26146 0.91579 0.0
C5982 C 0.09887 0.26632 0.88114 0.0
C5983 C 0.11605 0.27678 0.8875 0.0
C5984 C 0.09591 0.25711 0.86296 0.0
C5985 C 0.07777 0.24672 0.85504 0.0
C5986 C 0.06858 0.23309 0.86429 0.0
C5987 C 0.05128 0.22373 0.857 0.0
C5988 C 0.04307 0.2278 0.84041 0.0
C5989 C 0.05216 0.24122 0.83103 0.0
C5990 C 0.06944 0.25064 0.83827 0.0
C5991 C 0.17251 0.2745 0.83782 0.0
C5992 C 0.16865 0.28225 0.82155 0.0
C5993 C 0.15894 0.26951 0.84927 0.0
C5994 C 0.14115 0.27193 0.84455 0.0
C5995 C 0.137 0.27814 0.82746 0.0
C5996 C 0.15056 0.28332 0.8162 0.0
C5997 C 0.12715 0.26945 0.85782 0.0
C5998 C 0.11008 0.25859 0.85171 0.0
C5999 C 0.13005 0.27882 0.87597 0.0
C6000 C 0.14686 0.29222 0.88259 0.0
C6001 C 0.15237 0.30682 0.87263 0.0
C6002 C 0.16833 0.3193 0.8788 0.0
C6003 C 0.17876 0.31749 0.89509 0.0
C6004 C 0.17321 0.30324 0.90527 0.0
C6005 C 0.1573 0.29065 0.8991 0.0
H6006 H 0.19111 0.32718 0.89985 0.0
H6007 H 0.02967 0.22055 0.83481 0.0
H6008 H 0.53493 0.76835 0.91828 0.0
H6009 H 0.5327 0.74135 0.93387 0.0
H6010 H 0.53601 0.70994 0.88241 0.0
H6011 H 0.53709 0.73712 0.86638 0.0
H6012 H 0.5135 0.6905 0.89988 0.0
H6013 H 0.57326 0.72429 0.92041 0.0
H6014 H 0.59571 0.75156 0.93328 0.0
H6015 H 0.57126 0.75317 0.9838 0.0
H6016 H 0.54852 0.72605 0.97116 0.0
H6017 H 0.52417 0.61451 0.94545 0.0
H6018 H 0.53236 0.64092 0.92896 0.0
H6019 H 0.52347 0.67539 0.97612 0.0
H6020 H 0.51558 0.64891 0.99269 0.0
H6021 H 0.55109 0.69243 0.9598 0.0
H6022 H 0.49057 0.6603 0.93877 0.0
H6023 H 0.4677 0.63324 0.9263 0.0
H6024 H 0.49363 0.62866 0.8769 0.0
H6025 H 0.51686 0.65557 0.88922 0.0
C6026 C 0.53527 0.75573 0.9102 0.0
C6027 C 0.53644 0.75505 0.89105 0.0
C6028 C 0.53413 0.74019 0.91924 0.0
C6029 C 0.5348 0.72343 0.90963 0.0
C6030 C 0.53565 0.72261 0.89035 0.0
C6031 C 0.53634 0.7382 0.88115 0.0
C6032 C 0.53432 0.70694 0.91977 0.0
C6033 C 0.52202 0.69091 0.91278 0.0
C6034 C 0.54509 0.70724 0.93692 0.0
C6035 C 0.55914 0.72318 0.94479 0.0
C6036 C 0.57266 0.73048 0.93425 0.0
C6037 C 0.58543 0.74592 0.9415 0.0
C6038 C 0.5849 0.7541 0.95934 0.0
C6039 C 0.57165 0.74681 0.97 0.0
C6040 C 0.55885 0.73139 0.96281 0.0
C6041 C 0.5246 0.62779 0.95252 0.0
C6042 C 0.51957 0.62963 0.97051 0.0
C6043 C 0.52904 0.64291 0.94298 0.0
C6044 C 0.52822 0.6603 0.95104 0.0
C6045 C 0.52421 0.66224 0.96946 0.0
C6046 C 0.51981 0.64709 0.97902 0.0
C6047 C 0.53024 0.67613 0.93992 0.0
C6048 C 0.54277 0.69201 0.94676 0.0
C6049 C 0.51973 0.6757 0.92264 0.0
C6050 C 0.50553 0.65984 0.91498 0.0
C6051 C 0.49143 0.65348 0.92528 0.0
C6052 C 0.47842 0.63817 0.91825 0.0
C6053 C 0.47924 0.62922 0.90084 0.0
C6054 C 0.49304 0.6356 0.89039 0.0
C6055 C 0.50613 0.65089 0.89738 0.0
H6056 H 0.46916 0.61737 0.89543 0.0
H6057 H 0.59476 0.76608 0.9649 0.0
H6058 H 0.07893 0.78815 0.69814 0.0
H6059 H 0.10934 0.79116 0.71358 0.0
H6060 H 0.09554 0.73689 0.72779 0.0
H6061 H 0.06392 0.73607 0.71635 0.0
H6062 H 0.12046 0.74725 0.74951 0.0
H6063 H 0.12384 0.7596 0.68514 0.0
H6064 H 0.11852 0.77633 0.65845 0.0
H6065 H 0.14664 0.82566 0.69039 0.0
H6066 H 0.15201 0.80924 0.71725 0.0
H6067 H 0.21518 0.73806 0.75555 0.0
H6068 H 0.18272 0.73593 0.74625 0.0
H6069 H 0.19108 0.79378 0.74983 0.0
H6070 H 0.22312 0.79591 0.75923 0.0
H6071 H 0.16993 0.7809 0.71963 0.0
H6072 H 0.16923 0.76695 0.78256 0.0
H6073 H 0.17634 0.74935 0.80797 0.0
H6074 H 0.14466 0.70122 0.77678 0.0
H6075 H 0.13759 0.71848 0.75105 0.0
C6076 C 0.08209 0.77734 0.7056 0.0
C6077 C 0.0684 0.76244 0.70697 0.0
C6078 C 0.10009 0.77856 0.71366 0.0
C6079 C 0.106 0.76386 0.72126 0.0
C6080 C 0.09219 0.7487 0.72226 0.0
C6081 C 0.07382 0.74814 0.71556 0.0
C6082 C 0.12618 0.76405 0.72772 0.0
C6083 C 0.13104 0.75441 0.74252 0.0
C6084 C 0.14095 0.77354 0.71947 0.0
C6085 C 0.13819 0.78323 0.70317 0.0
C6086 C 0.1289 0.774 0.68641 0.0
C6087 C 0.12585 0.78344 0.67129 0.0
C6088 C 0.1322 0.80205 0.67274 0.0
C6089 C 0.14172 0.81126 0.68928 0.0
C6090 C 0.1448 0.8019 0.70443 0.0
C6091 C 0.21013 0.75033 0.75473 0.0
C6092 C 0.22222 0.76712 0.75846 0.0
C6093 C 0.19136 0.74913 0.74928 0.0
C6094 C 0.18391 0.76472 0.74732 0.0
C6095 C 0.19604 0.78142 0.75105 0.0
C6096 C 0.21463 0.7826 0.7565 0.0
C6097 C 0.16386 0.76397 0.74094 0.0
C6098 C 0.15915 0.77358 0.7263 0.0
C6099 C 0.14937 0.75421 0.74908 0.0
C6100 C 0.15299 0.74398 0.76483 0.0
C6101 C 0.16382 0.7526 0.78111 0.0
C6102 C 0.16785 0.74268 0.79556 0.0
C6103 C 0.16098 0.72417 0.79398 0.0
C6104 C 0.14998 0.71556 0.77798 0.0
C6105 C 0.14594 0.7254 0.76346 0.0
H6106 H 0.16416 0.71651 0.80516 0.0
H6107 H 0.12977 0.80933 0.66104 0.0
H6108 H 0.03894 0.34147 0.41431 0.0
H6109 H 0.03863 0.36782 0.43622 0.0
H6110 H 0.05019 0.40242 0.39381 0.0
H6111 H 0.05064 0.3761 0.37182 0.0
H6112 H 0.06917 0.41822 0.42579 0.0
H6113 H 0.0067 0.39015 0.40802 0.0
H6114 H 0.98018 0.36524 0.40399 0.0
H6115 H 0.98618 0.36134 0.46239 0.0
H6116 H 0.01292 0.38604 0.46673 0.0
H6117 H 0.04999 0.49789 0.47246 0.0
H6118 H 0.05098 0.47165 0.45095 0.0
H6119 H 0.02978 0.43668 0.49002 0.0
H6120 H 0.02685 0.46291 0.51059 0.0
H6121 H 0.01612 0.42061 0.45986 0.0
H6122 H 0.07859 0.44731 0.47839 0.0
H6123 H 0.1053 0.47208 0.48345 0.0
H6124 H 0.10026 0.47783 0.42542 0.0
H6125 H 0.0734 0.45323 0.42005 0.0
C6126 C 0.04161 0.35467 0.40958 0.0
C6127 C 0.04489 0.35639 0.39107 0.0
C6128 C 0.04127 0.36985 0.42221 0.0
C6129 C 0.04412 0.3874 0.41685 0.0
C6130 C 0.04789 0.3892 0.39853 0.0
C6131 C 0.04816 0.37401 0.38586 0.0
C6132 C 0.04302 0.40376 0.43016 0.0
C6133 C 0.05745 0.41875 0.43306 0.0
C6134 C 0.02804 0.40463 0.44027 0.0
C6135 C 0.01192 0.38983 0.43767 0.0
C6136 C 1.00245 0.38389 0.41999 0.0
C6137 C 0.98736 0.36982 0.41764 0.0
C6138 C 0.98153 0.36169 0.43291 0.0
C6139 C 0.99074 0.36763 0.45057 0.0
C6140 C 0.00585 0.38167 0.45298 0.0
C6141 C 0.04556 0.48464 0.4766 0.0
C6142 C 0.03878 0.48287 0.49379 0.0
C6143 C 0.04635 0.46943 0.46423 0.0
C6144 C 0.04109 0.45171 0.46877 0.0
C6145 C 0.03422 0.44993 0.48591 0.0
C6146 C 0.03291 0.46515 0.49804 0.0
C6147 C 0.04236 0.43517 0.45566 0.0
C6148 C 0.02794 0.42012 0.45273 0.0
C6149 C 0.05748 0.43412 0.44574 0.0
C6150 C 0.07392 0.44853 0.44884 0.0
C6151 C 0.08317 0.45389 0.46672 0.0
C6152 C 0.09832 0.4679 0.46964 0.0
C6153 C 0.10445 0.47655 0.45477 0.0
C6154 C 0.0955 0.47113 0.43693 0.0
C6155 C 0.08033 0.45713 0.43393 0.0
H6156 H 0.11615 0.48743 0.45707 0.0
H6157 H 0.96984 0.3508 0.43107 0.0
H6158 H 0.47662 0.26103 0.22744 0.0
H6159 H 0.44984 0.2658 0.24263 0.0
H6160 H 0.41591 0.24717 0.19111 0.0
H6161 H 0.44202 0.24266 0.17615 0.0
H6162 H 0.40482 0.27441 0.20434 0.0
H6163 H 0.41877 0.2229 0.23277 0.0
H6164 H 0.43721 0.20627 0.25168 0.0
H6165 H 0.44032 0.2458 0.29856 0.0
H6166 H 0.42209 0.26279 0.27985 0.0
H6167 H 0.31533 0.25687 0.23003 0.0
H6168 H 0.34488 0.25409 0.22045 0.0
H6169 H 0.37085 0.27935 0.27398 0.0
H6170 H 0.34126 0.28202 0.28369 0.0
H6171 H 0.38761 0.25182 0.26271 0.0
H6172 H 0.37348 0.30256 0.2361 0.0
H6173 H 0.35527 0.32022 0.21835 0.0
H6174 H 0.35331 0.28367 0.16931 0.0
H6175 H 0.37146 0.2657 0.1868 0.0
C6176 C 0.46346 0.25782 0.21936 0.0
C6177 C 0.46197 0.25148 0.2003 0.0
C6178 C 0.44794 0.26053 0.22813 0.0
C6179 C 0.4303 0.25692 0.21823 0.0
C6180 C 0.42899 0.25036 0.19938 0.0
C6181 C 0.44426 0.2477 0.19072 0.0
C6182 C 0.41317 0.2602 0.22672 0.0
C6183 C 0.40113 0.26916 0.217 0.0
C6184 C 0.40806 0.25424 0.24371 0.0
C6185 C 0.41928 0.24423 0.25484 0.0
C6186 C 0.42355 0.22814 0.24705 0.0
C6187 C 0.43393 0.21863 0.25775 0.0
C6188 C 0.43999 0.22501 0.27629 0.0
C6189 C 0.43566 0.2409 0.28418 0.0
C6190 C 0.42531 0.25048 0.27354 0.0
C6191 C 0.32725 0.26185 0.23988 0.0
C6192 C 0.3255 0.26985 0.25771 0.0
C6193 C 0.34437 0.26031 0.2343 0.0
C6194 C 0.3606 0.2666 0.24629 0.0
C6195 C 0.35886 0.27429 0.26424 0.0
C6196 C 0.34173 0.27596 0.26979 0.0
C6197 C 0.37914 0.26538 0.2399 0.0
C6198 C 0.39139 0.25698 0.25003 0.0
C6199 C 0.3846 0.27198 0.22337 0.0
C6200 C 0.37366 0.28268 0.2128 0.0
C6201 C 0.36904 0.2982 0.22156 0.0
C6202 C 0.35874 0.30827 0.21155 0.0
C6203 C 0.35303 0.30301 0.19275 0.0
C6204 C 0.3577 0.2877 0.18389 0.0
C6205 C 0.36802 0.27758 0.19383 0.0
H6206 H 0.34505 0.31082 0.18502 0.0
H6207 H 0.44799 0.2176 0.28455 0.0
H6208 H 0.59173 0.52711 0.32306 0.0
H6209 H 0.57493 0.52225 0.34988 0.0
H6210 H 0.62478 0.53824 0.38638 0.0
H6211 H 0.64147 0.54245 0.35998 0.0
H6212 H 0.60633 0.51091 0.39811 0.0
H6213 H 0.58965 0.56596 0.37754 0.0
H6214 H 0.57556 0.58294 0.35504 0.0
H6215 H 0.52513 0.54557 0.35215 0.0
H6216 H 0.53897 0.52829 0.37447 0.0
H6217 H 0.57388 0.51992 0.4858 0.0
H6218 H 0.58844 0.52312 0.4579 0.0
H6219 H 0.53695 0.52359 0.42709 0.0
H6220 H 0.52367 0.52515 0.45573 0.0
H6221 H 0.5552 0.54054 0.41038 0.0
H6222 H 0.56932 0.48421 0.42886 0.0
H6223 H 0.58186 0.46503 0.45006 0.0
H6224 H 0.63404 0.49978 0.45465 0.0
H6225 H 0.62179 0.51919 0.43356 0.0
C6226 C 0.5991 0.52956 0.33679 0.0
C6227 C 0.61807 0.53516 0.33912 0.0
C6228 C 0.58944 0.52689 0.35224 0.0
C6229 C 0.59843 0.53004 0.37047 0.0
C6230 C 0.61733 0.53559 0.37267 0.0
C6231 C 0.62694 0.53805 0.35737 0.0
C6232 C 0.58865 0.52751 0.38741 0.0
C6233 C 0.59512 0.51742 0.40081 0.0
C6234 C 0.57357 0.53533 0.39094 0.0
C6235 C 0.56539 0.54576 0.37752 0.0
C6236 C 0.57559 0.56132 0.37201 0.0
C6237 C 0.56764 0.571 0.3593 0.0
C6238 C 0.54948 0.56532 0.35214 0.0
C6239 C 0.5392 0.54995 0.35769 0.0
C6240 C 0.54708 0.54022 0.37036 0.0
C6241 C 0.56563 0.52072 0.47307 0.0
C6242 C 0.54722 0.52148 0.47325 0.0
C6243 C 0.57399 0.52211 0.45672 0.0
C6244 C 0.56396 0.52263 0.43946 0.0
C6245 C 0.54546 0.52313 0.43973 0.0
C6246 C 0.53751 0.52333 0.45632 0.0
C6247 C 0.57259 0.52357 0.42142 0.0
C6248 C 0.56605 0.53352 0.40778 0.0
C6249 C 0.58724 0.51505 0.41738 0.0
C6250 C 0.5946 0.50319 0.42976 0.0
C6251 C 0.58346 0.48774 0.43441 0.0
C6252 C 0.59052 0.47685 0.44641 0.0
C6253 C 0.60873 0.48121 0.45373 0.0
C6254 C 0.61995 0.49642 0.44898 0.0
C6255 C 0.61296 0.50734 0.43699 0.0
H6256 H 0.61415 0.47279 0.46305 0.0
H6257 H 0.54335 0.57283 0.34231 0.0
H6258 H 0.31596 0.89386 0.04698 0.0
H6259 H 0.31514 0.87707 0.07392 0.0
H6260 H 0.26301 0.88941 0.08247 0.0
H6261 H 0.2639 0.90633 0.05534 0.0
H6262 H 0.28832 0.89301 0.11515 0.0
H6263 H 0.26354 0.85015 0.0619 0.0
H6264 H 0.2638 0.8358 0.03025 0.0
H6265 H 0.31285 0.8183 0.04736 0.0
H6266 H 0.31314 0.83288 0.07901 0.0
H6267 H 0.2921 0.83531 0.18451 0.0
H6268 H 0.27811 0.84551 0.1569 0.0
H6269 H 0.32278 0.83587 0.1276 0.0
H6270 H 0.33641 0.82502 0.15482 0.0
H6271 H 0.29248 0.82851 0.10482 0.0
H6272 H 0.32313 0.87603 0.1521 0.0
H6273 H 0.32867 0.89305 0.18323 0.0
H6274 H 0.27513 0.90432 0.17689 0.0
H6275 H 0.26914 0.88699 0.14584 0.0
C6276 C 0.30452 0.8932 0.05488 0.0
C6277 C 0.29003 0.90127 0.04947 0.0
C6278 C 0.30398 0.88356 0.07007 0.0
C6279 C 0.28885 0.88179 0.07981 0.0
C6280 C 0.27469 0.89058 0.07491 0.0
C6281 C 0.27521 0.90022 0.0596 0.0
C6282 C 0.2879 0.87041 0.09491 0.0
C6283 C 0.28869 0.87877 0.11294 0.0
C6284 C 0.28887 0.85199 0.0918 0.0
C6285 C 0.28836 0.84266 0.07287 0.0
C6286 C 0.27443 0.8433 0.05891 0.0
C6287 C 0.27449 0.83514 0.04095 0.0
C6288 C 0.28833 0.82614 0.0368 0.0
C6289 C 0.30212 0.82526 0.0506 0.0
C6290 C 0.30217 0.83346 0.06856 0.0
C6291 C 0.2987 0.835 0.17202 0.0
C6292 C 0.31554 0.82982 0.17184 0.0
C6293 C 0.29071 0.84082 0.15632 0.0
C6294 C 0.2996 0.84171 0.14039 0.0
C6295 C 0.31576 0.83535 0.13982 0.0
C6296 C 0.32368 0.82944 0.15543 0.0
C6297 C 0.29353 0.85126 0.12513 0.0
C6298 C 0.2914 0.84256 0.10704 0.0
C6299 C 0.292 0.86956 0.12816 0.0
C6300 C 0.29557 0.87995 0.14681 0.0
C6301 C 0.31247 0.88197 0.15743 0.0
C6302 C 0.3157 0.89168 0.17505 0.0
C6303 C 0.30223 0.89969 0.18207 0.0
C6304 C 0.28552 0.89803 0.17146 0.0
C6305 C 0.28218 0.88823 0.15388 0.0
H6306 H 0.30476 0.90724 0.1957 0.0
H6307 H 0.28836 0.81985 0.02288 0.0
H6308 H 0.92784 0.53981 0.83746 0.0
H6309 H 0.951 0.54564 0.86418 0.0
H6310 H 0.91603 0.50963 0.8935 0.0
H6311 H 0.89261 0.50447 0.86736 0.0
H6312 H 0.92999 0.53837 0.91494 0.0
H6313 H 0.95194 0.49718 0.87272 0.0
H6314 H 0.96254 0.48597 0.84379 0.0
H6315 H 0.00572 0.53225 0.85003 0.0
H6316 H 0.99524 0.54383 0.8789 0.0
H6317 H 1.00249 0.50235 0.96749 0.0
H6318 H 0.98376 0.50485 0.9389 0.0
H6319 H 0.98922 0.56191 0.95502 0.0
H6320 H 0.00694 0.55922 0.98409 0.0
H6321 H 0.99213 0.52768 0.91082 0.0
H6322 H 0.95919 0.56888 0.95317 0.0
H6323 H 0.94571 0.57309 0.98234 0.0
H6324 H 0.92081 0.51698 0.97555 0.0
H6325 H 0.93455 0.51241 0.94663 0.0
C6326 C 0.92512 0.53322 0.84967 0.0
C6327 C 0.90849 0.52172 0.85045 0.0
C6328 C 0.93835 0.53649 0.86481 0.0
C6329 C 0.93518 0.52795 0.88064 0.0
C6330 C 0.91861 0.51642 0.88138 0.0
C6331 C 0.90528 0.51347 0.86646 0.0
C6332 C 0.94891 0.53112 0.89673 0.0
C6333 C 0.94364 0.53622 0.91397 0.0
C6334 C 0.96664 0.5282 0.8954 0.0
C6335 C 0.97263 0.52151 0.87779 0.0
C6336 C 0.96355 0.50507 0.86779 0.0
C6337 C 0.96958 0.49863 0.85144 0.0
C6338 C 0.98475 0.50844 0.84503 0.0
C6339 C 0.99394 0.5247 0.85498 0.0
C6340 C 0.98796 0.53121 0.87132 0.0
C6341 C 0.99957 0.51534 0.96481 0.0
C6342 C 0.00556 0.53051 0.97783 0.0
C6343 C 0.98901 0.51678 0.94863 0.0
C6344 C 0.98493 0.53349 0.94529 0.0
C6345 C 0.99181 0.54885 0.95784 0.0
C6346 C 1.00189 0.54731 0.97426 0.0
C6347 C 0.973 0.5346 0.9288 0.0
C6348 C 0.97864 0.53037 0.91154 0.0
C6349 C 0.95539 0.53765 0.9301 0.0
C6350 C 0.94815 0.54026 0.94801 0.0
C6351 C 0.95111 0.55741 0.95811 0.0
C6352 C 0.94339 0.55987 0.97455 0.0
C6353 C 0.93243 0.54531 0.98079 0.0
C6354 C 0.92937 0.52823 0.97075 0.0
C6355 C 0.93719 0.52568 0.95441 0.0
H6356 H 0.92617 0.5473 0.99331 0.0
H6357 H 0.98942 0.5034 0.8324 0.0
H6358 H 0.26498 0.17025 0.57821 0.0
H6359 H 0.26592 0.18393 0.61008 0.0
H6360 H 0.27483 0.23675 0.59175 0.0
H6361 H 0.27471 0.22309 0.55998 0.0
H6362 H 0.29348 0.23991 0.62328 0.0
H6363 H 0.23165 0.21288 0.60306 0.0
H6364 H 0.2059 0.18861 0.59006 0.0
H6365 H 0.21762 0.15763 0.63419 0.0
H6366 H 0.24359 0.18161 0.64732 0.0
H6367 H 0.2651 0.28144 0.70702 0.0
H6368 H 0.26516 0.26956 0.67442 0.0
H6369 H 0.27277 0.21854 0.69139 0.0
H6370 H 0.27328 0.23039 0.72377 0.0
H6371 H 0.24512 0.21588 0.66045 0.0
H6372 H 0.3072 0.2439 0.68038 0.0
H6373 H 0.33222 0.26893 0.69325 0.0
H6374 H 0.31868 0.29938 0.64925 0.0
H6375 H 0.29336 0.27463 0.63629 0.0
C6376 C 0.26729 0.18479 0.58095 0.0
C6377 C 0.26972 0.19549 0.56636 0.0
C6378 C 0.26765 0.19267 0.59927 0.0
C6379 C 0.26999 0.21152 0.6036 0.0
C6380 C 0.27291 0.22222 0.58906 0.0
C6381 C 0.27281 0.21435 0.57077 0.0
C6382 C 0.26917 0.21998 0.62309 0.0
C6383 C 0.2827 0.23475 0.63121 0.0
C6384 C 0.25531 0.21338 0.6339 0.0
C6385 C 0.23966 0.19897 0.62608 0.0
C6386 C 0.2288 0.20084 0.60993 0.0
C6387 C 0.21416 0.18714 0.60254 0.0
C6388 C 0.21015 0.17157 0.61128 0.0
C6389 C 0.22075 0.16969 0.62743 0.0
C6390 C 0.23543 0.18333 0.63486 0.0
C6391 C 0.26673 0.26767 0.70379 0.0
C6392 C 0.26928 0.25695 0.71814 0.0
C6393 C 0.26683 0.2609 0.68512 0.0
C6394 C 0.26907 0.24311 0.6803 0.0
C6395 C 0.27106 0.23228 0.6946 0.0
C6396 C 0.27138 0.23914 0.7132 0.0
C6397 C 0.2694 0.23563 0.6605 0.0
C6398 C 0.25579 0.22105 0.65238 0.0
C6399 C 0.28304 0.24256 0.64967 0.0
C6400 C 0.29821 0.25749 0.6575 0.0
C6401 C 0.30941 0.25601 0.67357 0.0
C6402 C 0.32369 0.27013 0.68085 0.0
C6403 C 0.32701 0.28577 0.67211 0.0
C6404 C 0.31607 0.28728 0.65604 0.0
C6405 C 0.30175 0.27321 0.64871 0.0
H6406 H 0.33808 0.29668 0.67775 0.0
H6407 H 0.1988 0.16099 0.60555 0.0
H6408 H 0.59097 0.54977 0.23757 0.0
H6409 H 0.57764 0.54964 0.20576 0.0
H6410 H 0.61316 0.51542 0.18653 0.0
H6411 H 0.62774 0.51727 0.21834 0.0
H6412 H 0.61084 0.53477 0.16257 0.0
H6413 H 0.56142 0.50266 0.19092 0.0
H6414 H 0.53959 0.4983 0.2138 0.0
H6415 H 0.51939 0.54486 0.19928 0.0
H6416 H 0.54121 0.54959 0.17645 0.0
H6417 H 0.56417 0.50991 0.07246 0.0
H6418 H 0.57592 0.50982 0.10463 0.0
H6419 H 0.54505 0.54953 0.12143 0.0
H6420 H 0.53201 0.54844 0.08929 0.0
H6421 H 0.54475 0.52787 0.14624 0.0
H6422 H 0.59421 0.55884 0.11703 0.0
H6423 H 0.61483 0.56128 0.09288 0.0
H6424 H 0.63405 0.51453 0.10841 0.0
H6425 H 0.61339 0.51169 0.13249 0.0
C6426 C 0.59586 0.54215 0.22653 0.0
C6427 C 0.61029 0.53337 0.23054 0.0
C6428 C 0.58804 0.54187 0.2082 0.0
C6429 C 0.59375 0.53199 0.19329 0.0
C6430 C 0.60824 0.52315 0.19745 0.0
C6431 C 0.61657 0.52408 0.21574 0.0
C6432 C 0.58516 0.53131 0.17347 0.0
C6433 C 0.59634 0.53295 0.15915 0.0
C6434 C 0.5662 0.52945 0.16846 0.0
C6435 C 0.55305 0.52656 0.18212 0.0
C6436 C 0.55238 0.51201 0.19269 0.0
C6437 C 0.54 0.50947 0.20563 0.0
C6438 C 0.52815 0.52132 0.20803 0.0
C6439 C 0.5286 0.5357 0.19743 0.0
C6440 C 0.54095 0.5383 0.18448 0.0
C6441 C 0.55985 0.51871 0.08292 0.0
C6442 C 0.54752 0.52971 0.07794 0.0
C6443 C 0.56676 0.51875 0.10148 0.0
C6444 C 0.56207 0.5302 0.11573 0.0
C6445 C 0.54927 0.54075 0.11087 0.0
C6446 C 0.54195 0.54034 0.09231 0.0
C6447 C 0.57044 0.5311 0.13556 0.0
C6448 C 0.55924 0.52961 0.1498 0.0
C6449 C 0.58933 0.53288 0.14049 0.0
C6450 C 0.60222 0.53502 0.1265 0.0
C6451 C 0.60284 0.54909 0.11528 0.0
C6452 C 0.61451 0.55052 0.10159 0.0
C6453 C 0.62573 0.53806 0.09911 0.0
C6454 C 0.62537 0.52418 0.11036 0.0
C6455 C 0.61371 0.52267 0.12405 0.0
H6456 H 0.63472 0.53916 0.08847 0.0
H6457 H 0.51859 0.51934 0.21807 0.0
H6458 H 0.2832 0.91875 0.92627 0.0
H6459 H 0.28079 0.89624 0.89941 0.0
H6460 H 0.27763 0.85409 0.93514 0.0
H6461 H 0.27978 0.87612 0.96193 0.0
H6462 H 0.30502 0.85592 0.90834 0.0
H6463 H 0.24079 0.85655 0.91392 0.0
H6464 H 0.21654 0.87397 0.91623 0.0
H6465 H 0.2264 0.89356 0.86426 0.0
H6466 H 0.25085 0.87642 0.86179 0.0
H6467 H 0.29134 0.78412 0.83879 0.0
H6468 H 0.28821 0.80204 0.86706 0.0
H6469 H 0.26424 0.83824 0.83477 0.0
H6470 H 0.26285 0.8177 0.80722 0.0
H6471 H 0.25056 0.83904 0.86208 0.0
H6472 H 0.31426 0.84247 0.85442 0.0
H6473 H 0.34102 0.82894 0.8505 0.0
H6474 H 0.33689 0.80773 0.90262 0.0
H6475 H 0.30997 0.82092 0.90671 0.0
C6476 C 0.28171 0.90468 0.92837 0.0
C6477 C 0.28182 0.89922 0.94618 0.0
C6478 C 0.28049 0.89194 0.9131 0.0
C6479 C 0.27931 0.87377 0.91563 0.0
C6480 C 0.27878 0.86819 0.9332 0.0
C6481 C 0.27987 0.88081 0.9484 0.0
C6482 C 0.27837 0.86035 0.89988 0.0
C6483 C 0.29319 0.85208 0.89812 0.0
C6484 C 0.26303 0.85592 0.88668 0.0
C6485 C 0.24762 0.86525 0.88769 0.0
C6486 C 0.23775 0.86456 0.90299 0.0
C6487 C 0.224 0.8744 0.90435 0.0
C6488 C 0.21994 0.88487 0.89041 0.0
C6489 C 0.22954 0.88543 0.87503 0.0
C6490 C 0.24331 0.87563 0.87363 0.0
C6491 C 0.28466 0.79544 0.83781 0.0
C6492 C 0.2773 0.79948 0.82073 0.0
C6493 C 0.28341 0.80604 0.85397 0.0
C6494 C 0.27676 0.82198 0.85306 0.0
C6495 C 0.26949 0.82604 0.83595 0.0
C6496 C 0.26909 0.81448 0.82006 0.0
C6497 C 0.27766 0.83478 0.86968 0.0
C6498 C 0.26266 0.84284 0.87194 0.0
C6499 C 0.29329 0.83966 0.88284 0.0
C6500 C 0.31006 0.8326 0.88082 0.0
C6501 C 0.31911 0.83497 0.86506 0.0
C6502 C 0.33427 0.82731 0.86279 0.0
C6503 C 0.34064 0.81747 0.8763 0.0
C6504 C 0.33194 0.81536 0.89217 0.0
C6505 C 0.31675 0.82294 0.89449 0.0
H6506 H 0.35232 0.81149 0.87447 0.0
H6507 H 0.20935 0.89255 0.89152 0.0
H6508 H 0.9134 0.55011 0.75034 0.0
H6509 H 0.93038 0.54931 0.72331 0.0
H6510 H 0.91338 0.4915 0.71402 0.0
H6511 H 0.89568 0.49237 0.74029 0.0
H6512 H 0.95671 0.51534 0.72084 0.0
H6513 H 0.89642 0.49808 0.68404 0.0
H6514 H 0.86578 0.50366 0.67593 0.0
H6515 H 0.88833 0.55636 0.66272 0.0
H6516 H 0.91915 0.55117 0.67115 0.0
H6517 H 0.97865 0.471 0.64077 0.0
H6518 H 0.96761 0.48329 0.66841 0.0
H6519 H 0.96571 0.53277 0.64456 0.0
H6520 H 0.976 0.52014 0.61636 0.0
H6521 H 0.93452 0.51982 0.65564 0.0
H6522 H 0.99548 0.53231 0.6844 0.0
H6523 H 0.02584 0.52638 0.69333 0.0
H6524 H 1.00278 0.48272 0.72215 0.0
H6525 H 0.97227 0.48828 0.71328 0.0
C6526 C 0.91289 0.53738 0.74208 0.0
C6527 C 0.90308 0.52135 0.74692 0.0
C6528 C 0.92262 0.53691 0.72686 0.0
C6529 C 0.92296 0.52036 0.71684 0.0
C6530 C 0.91297 0.50438 0.72156 0.0
C6531 C 0.90281 0.5049 0.73637 0.0
C6532 C 0.93459 0.5195 0.70208 0.0
C6533 C 0.952 0.51632 0.70654 0.0
C6534 C 0.92841 0.52129 0.68371 0.0
C6535 C 0.91 0.52437 0.6785 0.0
C6536 C 0.89482 0.51094 0.67964 0.0
C6537 C 0.87743 0.514 0.67494 0.0
C6538 C 0.8751 0.53039 0.66889 0.0
C6539 C 0.89016 0.5437 0.66747 0.0
C6540 C 0.90758 0.54072 0.67222 0.0
C6541 C 0.97599 0.48454 0.64146 0.0
C6542 C 0.97787 0.4945 0.62633 0.0
C6543 C 0.96998 0.49168 0.65739 0.0
C6544 C 0.96603 0.50902 0.65861 0.0
C6545 C 0.96879 0.51939 0.64389 0.0
C6546 C 0.97471 0.51219 0.62785 0.0
C6547 C 0.95675 0.51512 0.67414 0.0
C6548 C 0.93965 0.5193 0.66992 0.0
C6549 C 0.96325 0.51413 0.69276 0.0
C6550 C 0.98158 0.5107 0.69811 0.0
C6551 C 0.99687 0.52138 0.69255 0.0
C6552 C 0.01412 0.5181 0.69763 0.0
C6553 C 0.01624 0.50418 0.70829 0.0
C6554 C 1.00112 0.49352 0.71392 0.0
C6555 C 0.98385 0.49676 0.70891 0.0
H6556 H 0.0296 0.50165 0.7122 0.0
H6557 H 0.86163 0.53274 0.66524 0.0
H6558 H 0.26083 0.21381 0.4704 0.0
H6559 H 0.2644 0.23037 0.44321 0.0
H6560 H 0.27921 0.18456 0.41359 0.0
H6561 H 0.27575 0.16814 0.44042 0.0
H6562 H 0.30054 0.21445 0.40668 0.0
H6563 H 0.23637 0.19463 0.40649 0.0
H6564 H 0.20707 0.19223 0.41898 0.0
H6565 H 0.21233 0.24971 0.42297 0.0
H6566 H 0.24182 0.25246 0.41079 0.0
H6567 H 0.28824 0.23415 0.3131 0.0
H6568 H 0.28715 0.22096 0.34237 0.0
H6569 H 0.26783 0.26662 0.36674 0.0
H6570 H 0.26819 0.27941 0.33738 0.0
H6571 H 0.24969 0.23861 0.37758 0.0
H6572 H 0.31315 0.25881 0.37688 0.0
H6573 H 0.34249 0.26163 0.36443 0.0
H6574 H 0.33906 0.20448 0.36248 0.0
H6575 H 0.30956 0.20128 0.37468 0.0
C6576 C 0.26503 0.20733 0.45817 0.0
C6577 C 0.26793 0.18953 0.45777 0.0
C6578 C 0.26695 0.21679 0.4425 0.0
C6579 C 0.27193 0.20874 0.42606 0.0
C6580 C 0.27535 0.1912 0.42593 0.0
C6581 C 0.27329 0.18175 0.4414 0.0
C6582 C 0.27335 0.2182 0.40882 0.0
C6583 C 0.28933 0.21959 0.40027 0.0
C6584 C 0.25901 0.2254 0.40046 0.0
C6585 C 0.2414 0.22377 0.40797 0.0
C6586 C 0.23136 0.20677 0.41022 0.0
C6587 C 0.21471 0.20534 0.4172 0.0
C6588 C 0.20787 0.22082 0.42182 0.0
C6589 C 0.21766 0.23774 0.41943 0.0
C6590 C 0.23435 0.23924 0.4125 0.0
C6591 C 0.28385 0.24145 0.32471 0.0
C6592 C 0.27859 0.25806 0.32278 0.0
C6593 C 0.28333 0.23392 0.34159 0.0
C6594 C 0.27769 0.24283 0.35717 0.0
C6595 C 0.27233 0.25937 0.35517 0.0
C6596 C 0.27273 0.26681 0.33829 0.0
C6597 C 0.27687 0.2348 0.37531 0.0
C6598 C 0.26099 0.23363 0.38403 0.0
C6599 C 0.29136 0.22791 0.38389 0.0
C6600 C 0.30907 0.22979 0.37653 0.0
C6601 C 0.31858 0.24683 0.37366 0.0
C6602 C 0.33525 0.2485 0.36667 0.0
C6603 C 0.34261 0.23324 0.36263 0.0
C6604 C 0.33333 0.21628 0.3656 0.0
C6605 C 0.31664 0.21453 0.37256 0.0
H6606 H 0.35552 0.23456 0.35723 0.0
H6607 H 0.19495 0.21968 0.42719 0.0
H6608 H 0.32247 0.63636 0.55058 0.0
H6609 H 0.35149 0.62659 0.55486 0.0
H6610 H 0.32488 0.57203 0.53439 0.0
H6611 H 0.29613 0.58156 0.52988 0.0
H6612 H 0.35086 0.57378 0.56404 0.0
H6613 H 0.34138 0.59569 0.50507 0.0
H6614 H 0.33516 0.61797 0.48421 0.0
H6615 H 0.38328 0.65476 0.5094 0.0
H6616 H 0.38959 0.63276 0.53069 0.0
H6617 H 0.39191 0.52663 0.49953 0.0
H6618 H 0.37454 0.54321 0.51893 0.0
H6619 H 0.42256 0.58342 0.53817 0.0
H6620 H 0.44004 0.56685 0.51873 0.0
H6621 H 0.39303 0.59548 0.51958 0.0
H6622 H 0.40393 0.56132 0.57032 0.0
H6623 H 0.40563 0.53353 0.58466 0.0
H6624 H 0.34934 0.51302 0.56652 0.0
H6625 H 0.34734 0.54056 0.55191 0.0
C6626 C 0.32285 0.62226 0.5472 0.0
C6627 C 0.30718 0.60973 0.5397 0.0
C6628 C 0.33932 0.61673 0.54977 0.0
C6629 C 0.34012 0.59864 0.54505 0.0
C6630 C 0.32437 0.58602 0.53831 0.0
C6631 C 0.30803 0.59154 0.5355 0.0
C6632 C 0.35744 0.59293 0.54472 0.0
C6633 C 0.36035 0.57866 0.55461 0.0
C6634 C 0.36957 0.59942 0.53232 0.0
C6635 C 0.36577 0.61276 0.51972 0.0
C6636 C 0.35051 0.60864 0.50633 0.0
C6637 C 0.34698 0.62118 0.4944 0.0
C6638 C 0.35877 0.63782 0.49555 0.0
C6639 C 0.37412 0.6419 0.5086 0.0
C6640 C 0.37766 0.62942 0.52063 0.0
C6641 C 0.39875 0.53887 0.5081 0.0
C6642 C 0.41714 0.54565 0.50755 0.0
C6643 C 0.38895 0.54815 0.51936 0.0
C6644 C 0.39744 0.56432 0.53012 0.0
C6645 C 0.41596 0.57079 0.53013 0.0
C6646 C 0.42582 0.56141 0.519 0.0
C6647 C 0.38617 0.57583 0.53843 0.0
C6648 C 0.38429 0.59122 0.52991 0.0
C6649 C 0.37436 0.56964 0.55123 0.0
C6650 C 0.37551 0.55305 0.56005 0.0
C6651 C 0.39194 0.55085 0.56932 0.0
C6652 C 0.39294 0.53514 0.57751 0.0
C6653 C 0.3776 0.52153 0.57652 0.0
C6654 C 0.36121 0.52359 0.56733 0.0
C6655 C 0.36012 0.53927 0.55914 0.0
H6656 H 0.37841 0.50938 0.58286 0.0
H6657 H 0.35605 0.64751 0.48627 0.0
H6658 H 0.85254 0.88855 0.52054 0.0
H6659 H 0.88206 0.90885 0.52114 0.0
H6660 H 0.8624 0.95106 0.55166 0.0
H6661 H 0.83338 0.93062 0.55183 0.0
H6662 H 0.88775 0.94481 0.5069 0.0
H6663 H 0.88466 0.96382 0.57734 0.0
H6664 H 0.87911 0.9534 0.60761 0.0
H6665 H 0.91237 0.91413 0.59883 0.0
H6666 H 0.91763 0.92402 0.56825 0.0
H6667 H 0.96277 0.01819 0.51558 0.0
H6668 H 0.93332 0.9998 0.51812 0.0
H6669 H 0.95919 0.96482 0.55002 0.0
H6670 H 0.9885 0.98411 0.54894 0.0
H6671 H 0.93047 0.96682 0.56369 0.0
H6672 H 0.94037 0.9542 0.49847 0.0
H6673 H 0.94639 0.96308 0.46767 0.0
H6674 H 0.90111 0.98962 0.46583 0.0
H6675 H 0.895 0.98109 0.49665 0.0
C6676 C 0.85465 0.9021 0.52756 0.0
C6677 C 0.84049 0.90815 0.5357 0.0
C6678 C 0.8715 0.91372 0.52787 0.0
C6679 C 0.87466 0.93151 0.53667 0.0
C6680 C 0.86061 0.93735 0.5452 0.0
C6681 C 0.84386 0.92572 0.54498 0.0
C6682 C 0.8923 0.94417 0.53628 0.0
C6683 C 0.89693 0.94985 0.51937 0.0
C6684 C 0.90466 0.9505 0.55236 0.0
C6685 C 0.90117 0.94435 0.57044 0.0
C6686 C 0.89052 0.95277 0.58177 0.0
C6687 C 0.88746 0.94699 0.59897 0.0
C6688 C 0.89529 0.93303 0.60509 0.0
C6689 C 0.90619 0.92483 0.59401 0.0
C6690 C 0.90913 0.93045 0.57671 0.0
C6691 C 0.96222 0.00686 0.52354 0.0
C6692 C 0.97818 1.0029 0.53224 0.0
C6693 C 0.94527 0.99602 0.52464 0.0
C6694 C 0.94378 0.98045 0.53387 0.0
C6695 C 0.95972 0.97664 0.54277 0.0
C6696 C 0.9766 0.98772 0.54207 0.0
C6697 C 0.92582 0.96808 0.53428 0.0
C6698 C 0.92118 0.96219 0.5512 0.0
C6699 C 0.91334 0.96174 0.51817 0.0
C6700 C 0.91713 0.96688 0.49973 0.0
C6701 C 0.93172 0.96192 0.49147 0.0
C6702 C 0.93519 0.96694 0.47406 0.0
C6703 C 0.92416 0.9769 0.46482 0.0
C6704 C 0.90962 0.98185 0.47296 0.0
C6705 C 0.90609 0.97687 0.49035 0.0
H6706 H 0.92689 0.98079 0.45136 0.0
H6707 H 0.89299 0.92864 0.61846 0.0
H6708 H 0.92307 0.07273 0.2817 0.0
H6709 H 0.91098 0.1006 0.28137 0.0
H6710 H 0.8629 0.07117 0.24733 0.0
H6711 H 0.87526 0.04387 0.24702 0.0
H6712 H 0.86906 0.10242 0.2372 0.0
H6713 H 0.86534 0.08021 0.29535 0.0
H6714 H 0.87548 0.06973 0.32473 0.0
H6715 H 0.90967 0.12149 0.34212 0.0
H6716 H 0.89997 0.13219 0.31267 0.0
H6717 H 0.80787 0.15897 0.26971 0.0
H6718 H 0.82366 0.1347 0.2603 0.0
H6719 H 0.87447 0.16827 0.28422 0.0
H6720 H 0.85874 0.1924 0.29352 0.0
H6721 H 0.86704 0.13552 0.29854 0.0
H6722 H 0.8654 0.15694 0.23808 0.0
H6723 H 0.84965 0.16495 0.20989 0.0
H6724 H 0.81881 0.11094 0.19829 0.0
H6725 H 0.83414 0.10269 0.22661 0.0
C6726 C 0.9102 0.07242 0.2737 0.0
C6727 C 0.90006 0.0561 0.26447 0.0
C6728 C 0.90315 0.08827 0.27371 0.0
C6729 C 0.88577 0.088 0.26466 0.0
C6730 C 0.87624 0.07187 0.25451 0.0
C6731 C 0.88329 0.05616 0.25445 0.0
C6732 C 0.87695 0.10403 0.26657 0.0
C6733 C 0.8686 0.10959 0.25065 0.0
C6734 C 0.87601 0.11337 0.28409 0.0
C6735 C 0.88215 0.10691 0.30167 0.0
C6736 C 0.87519 0.08929 0.30534 0.0
C6737 C 0.88083 0.08332 0.32202 0.0
C6738 C 0.89327 0.09491 0.33525 0.0
C6739 C 0.90008 0.1125 0.33183 0.0
C6740 C 0.89453 0.11853 0.31514 0.0
C6741 C 0.82249 0.1614 0.27213 0.0
C6742 C 0.83216 0.17764 0.28202 0.0
C6743 C 0.83149 0.14749 0.26693 0.0
C6744 C 0.85027 0.14963 0.27163 0.0
C6745 C 0.86001 0.16629 0.28045 0.0
C6746 C 0.85105 0.18015 0.28556 0.0
C6747 C 0.8596 0.1341 0.26919 0.0
C6748 C 0.86781 0.1285 0.28509 0.0
C6749 C 0.85978 0.12435 0.25176 0.0
C6750 C 0.85084 0.12924 0.23454 0.0
C6751 C 0.85518 0.1468 0.22959 0.0
C6752 C 0.84633 0.15139 0.21358 0.0
C6753 C 0.83322 0.13847 0.20232 0.0
C6754 C 0.82896 0.12094 0.20703 0.0
C6755 C 0.83774 0.11629 0.22305 0.0
H6756 H 0.82637 0.14205 0.18994 0.0
H6757 H 0.8976 0.09027 0.34818 0.0
H6758 H 0.72626 0.09687 0.05806 0.0
H6759 H 0.69534 0.08123 0.06075 0.0
H6760 H 0.67482 0.1103 0.01819 0.0
H6761 H 0.70536 0.12751 0.01729 0.0
H6762 H 0.65627 0.10632 0.0531 0.0
H6763 H 0.69509 0.06638 0.02255 0.0
H6764 H 0.71341 0.04538 0.03419 0.0
H6765 H 0.66615 0.01064 0.04651 0.0
H6766 H 0.6482 0.03334 0.0398 0.0
H6767 H 0.5675 0.06982 0.02337 0.0
H6768 H 0.59821 0.08403 0.01972 0.0
H6769 H 0.6153 0.03398 0.02881 0.0
H6770 H 0.58427 0.0192 0.02837 0.0
H6771 H 0.63729 0.04827 0.01301 0.0
H6772 H 0.61023 0.06982 0.06395 0.0
H6773 H 0.58933 0.0839 0.08154 0.0
H6774 H 0.60827 0.13432 0.06126 0.0
H6775 H 0.62873 0.12039 0.04299 0.0
C6776 C 0.71503 0.09974 0.04927 0.0
C6777 C 0.7179 0.11254 0.03674 0.0
C6778 C 0.69754 0.09101 0.05095 0.0
C6779 C 0.68312 0.09419 0.03914 0.0
C6780 C 0.686 0.1074 0.02702 0.0
C6781 C 0.70332 0.11693 0.02624 0.0
C6782 C 0.66484 0.08391 0.03879 0.0
C6783 C 0.6519 0.09329 0.04488 0.0
C6784 C 0.6594 0.06644 0.02911 0.0
C6785 C 0.67028 0.0521 0.03098 0.0
C6786 C 0.68861 0.05466 0.02835 0.0
C6787 C 0.699 0.04237 0.03406 0.0
C6788 C 0.69093 0.02638 0.04024 0.0
C6789 C 0.67246 0.02297 0.04157 0.0
C6790 C 0.66227 0.03588 0.03741 0.0
C6791 C 0.57757 0.06156 0.02267 0.0
C6792 C 0.57357 0.04333 0.02523 0.0
C6793 C 0.59526 0.06982 0.02137 0.0
C6794 C 0.60919 0.06028 0.02454 0.0
C6795 C 0.60492 0.04174 0.02611 0.0
C6796 C 0.58717 0.03327 0.02606 0.0
C6797 C 0.62814 0.06968 0.02866 0.0
C6798 C 0.64131 0.06088 0.02201 0.0
C6799 C 0.63353 0.08563 0.04126 0.0
C6800 C 0.62078 0.09396 0.0518 0.0
C6801 C 0.60972 0.08384 0.06301 0.0
C6802 C 0.59792 0.09179 0.07309 0.0
C6803 C 0.5973 0.10996 0.07238 0.0
C6804 C 0.60853 0.1202 0.06162 0.0
C6805 C 0.6202 0.11227 0.05134 0.0
H6806 H 0.58821 0.11612 0.08026 0.0
H6807 H 0.69904 0.01678 0.04424 0.0
H6808 H 0.19668 0.49401 0.28718 0.0
H6809 H 0.20909 0.46682 0.28274 0.0
H6810 H 0.20112 0.46718 0.2235 0.0
H6811 H 0.18825 0.49455 0.22792 0.0
H6812 H 0.19261 0.43137 0.24062 0.0
H6813 H 0.24098 0.48229 0.23822 0.0
H6814 H 0.25698 0.51336 0.24886 0.0
H6815 H 0.26759 0.49919 0.30374 0.0
H6816 H 0.25166 0.46798 0.29342 0.0
H6817 H 0.24411 0.36486 0.26265 0.0
H6818 H 0.23514 0.38858 0.24565 0.0
H6819 H 0.24412 0.42452 0.29658 0.0
H6820 H 0.25398 0.4013 0.31339 0.0
H6821 H 0.25614 0.44187 0.26978 0.0
H6822 H 0.20262 0.39902 0.27883 0.0
H6823 H 0.18158 0.36966 0.2751 0.0
H6824 H 0.17573 0.36996 0.21611 0.0
H6825 H 0.19704 0.39918 0.2195 0.0
C6826 C 0.19716 0.48801 0.27321 0.0
C6827 C 0.19173 0.4962 0.25787 0.0
C6828 C 0.20427 0.47262 0.2707 0.0
C6829 C 0.20633 0.46548 0.25284 0.0
C6830 C 0.19969 0.47278 0.23735 0.0
C6831 C 0.1923 0.48821 0.23987 0.0
C6832 C 0.21652 0.45105 0.25106 0.0
C6833 C 0.20672 0.4335 0.24625 0.0
C6834 C 0.23475 0.4542 0.25892 0.0
C6835 C 0.2452 0.47275 0.26498 0.0
C6836 C 0.24677 0.48578 0.25254 0.0
C6837 C 0.25579 0.50345 0.25855 0.0
C6838 C 0.26325 0.50831 0.27699 0.0
C6839 C 0.26184 0.49543 0.28945 0.0
C6840 C 0.2529 0.47771 0.2835 0.0
C6841 C 0.24443 0.37794 0.27012 0.0
C6842 C 0.24959 0.38128 0.28935 0.0
C6843 C 0.23925 0.39139 0.26042 0.0
C6844 C 0.23894 0.4082 0.26989 0.0
C6845 C 0.24439 0.41162 0.28901 0.0
C6846 C 0.24973 0.39829 0.29866 0.0
C6847 C 0.23187 0.42207 0.26046 0.0
C6848 C 0.24237 0.43954 0.26307 0.0
C6849 C 0.214 0.41889 0.25142 0.0
C6850 C 0.20173 0.40105 0.24938 0.0
C6851 C 0.19707 0.39268 0.26505 0.0
C6852 C 0.18506 0.3761 0.26301 0.0
C6853 C 0.17741 0.3679 0.24537 0.0
C6854 C 0.18176 0.37627 0.22975 0.0
C6855 C 0.19384 0.39281 0.23172 0.0
H6856 H 0.16804 0.3551 0.24381 0.0
H6857 H 0.27013 0.52203 0.28162 0.0
H6858 H 0.2601 0.43649 0.03503 0.0
H6859 H 0.23318 0.44885 0.03649 0.0
H6860 H 0.20068 0.39525 0.02967 0.0
H6861 H 0.22831 0.38247 0.02824 0.0
H6862 H 0.18752 0.4175 0.00601 0.0
H6863 H 0.20541 0.42259 0.07146 0.0
H6864 H 0.22636 0.43057 0.10031 0.0
H6865 H 0.23659 0.48605 0.09032 0.0
H6866 H 0.21588 0.47839 0.06131 0.0
H6867 H 0.1128 0.4616 0.00957 0.0
H6868 H 0.1337 0.44204 0.01889 0.0
H6869 H 0.1774 0.4883 0.02971 0.0
H6870 H 0.15652 0.50772 0.02057 0.0
H6871 H 0.18145 0.46558 0.05451 0.0
H6872 H 0.16956 0.46166 0.98858 0.0
H6873 H 0.15052 0.45614 0.95849 0.0
H6874 H 0.13164 0.40123 0.96761 0.0
H6875 H 0.15036 0.40652 0.99793 0.0
C6876 C 0.24738 0.42714 0.03422 0.0
C6877 C 0.24654 0.40839 0.03167 0.0
C6878 C 0.23186 0.43434 0.03512 0.0
C6879 C 0.2148 0.42309 0.03349 0.0
C6880 C 0.21372 0.40426 0.03117 0.0
C6881 C 0.2295 0.39694 0.03048 0.0
C6882 C 0.19839 0.43142 0.03293 0.0
C6883 C 0.18588 0.42761 0.01689 0.0
C6884 C 0.19659 0.44522 0.04674 0.0
C6885 C 0.20912 0.44987 0.06416 0.0
C6886 C 0.21221 0.43647 0.07535 0.0
C6887 C 0.22403 0.44094 0.09175 0.0
C6888 C 0.23281 0.4588 0.09714 0.0
C6889 C 0.22977 0.47223 0.08614 0.0
C6890 C 0.21797 0.46783 0.06974 0.0
C6891 C 0.12673 0.46761 0.01463 0.0
C6892 C 0.13302 0.48619 0.01469 0.0
C6893 C 0.13872 0.45641 0.01971 0.0
C6894 C 0.15724 0.46361 0.02477 0.0
C6895 C 0.16323 0.48236 0.02591 0.0
C6896 C 0.15128 0.4935 0.0208 0.0
C6897 C 0.17069 0.45171 0.02758 0.0
C6898 C 0.18275 0.45505 0.04391 0.0
C6899 C 0.17234 0.43779 0.01387 0.0
C6900 C 0.16115 0.43455 0.99563 0.0
C6901 C 0.16122 0.44845 0.98424 0.0
C6902 C 0.15051 0.44536 0.96714 0.0
C6903 C 0.13983 0.42836 0.96117 0.0
C6904 C 0.13988 0.4144 0.97228 0.0
C6905 C 0.15053 0.41744 0.98943 0.0
H6906 H 0.13155 0.42599 0.94792 0.0
H6907 H 0.24194 0.46224 0.10984 0.0
H6908 H 0.91357 0.95393 0.28488 0.0
H6909 H 0.89212 0.92642 0.28687 0.0
H6910 H 0.85928 0.93634 0.23859 0.0
H6911 H 0.87901 0.96572 0.23937 0.0
H6912 H 0.83734 0.92091 0.25308 0.0
H6913 H 0.89309 0.89975 0.24578 0.0
H6914 H 0.92539 0.89935 0.25381 0.0
H6915 H 0.91516 0.88684 0.30832 0.0
H6916 H 0.88285 0.88728 0.30064 0.0
H6917 H 0.8076 0.81943 0.23866 0.0
H6918 H 0.82688 0.849 0.2373 0.0
H6919 H 0.81496 0.86731 0.29148 0.0
H6920 H 0.79497 0.83811 0.29251 0.0
H6921 H 0.85787 0.86706 0.27355 0.0
H6922 H 0.79912 0.88831 0.27559 0.0
H6923 H 0.76754 0.88535 0.26188 0.0
H6924 H 0.78542 0.89455 0.20905 0.0
H6925 H 0.81708 0.89692 0.22233 0.0
C6926 C 0.90168 0.95018 0.27479 0.0
C6927 C 0.89778 0.96212 0.26226 0.0
C6928 C 0.88949 0.934 0.27552 0.0
C6929 C 0.87396 0.92824 0.26242 0.0
C6930 C 0.87076 0.93999 0.24916 0.0
C6931 C 0.88225 0.95682 0.24936 0.0
C6932 C 0.86087 0.9105 0.26279 0.0
C6933 C 0.8422 0.90928 0.25741 0.0
C6934 C 0.86641 0.89469 0.26837 0.0
C6935 C 0.88563 0.89363 0.27266 0.0
C6936 C 0.89775 0.89685 0.25945 0.0
C6937 C 0.91605 0.89666 0.26395 0.0
C6938 C 0.92232 0.89309 0.28157 0.0
C6939 C 0.91029 0.88958 0.29468 0.0
C6940 C 0.89198 0.88975 0.29025 0.0
C6941 C 0.80882 0.82989 0.25012 0.0
C6942 C 0.79957 0.82651 0.26558 0.0
C6943 C 0.81987 0.84677 0.24934 0.0
C6944 C 0.8222 0.86051 0.26417 0.0
C6945 C 0.81307 0.8571 0.27969 0.0
C6946 C 0.80161 0.84042 0.28024 0.0
C6947 C 0.83502 0.87798 0.26392 0.0
C6948 C 0.85345 0.87896 0.26924 0.0
C6949 C 0.8294 0.89325 0.25757 0.0
C6950 C 0.81042 0.89244 0.24988 0.0
C6951 C 0.7963 0.88941 0.26099 0.0
C6952 C 0.77839 0.88788 0.25331 0.0
C6953 C 0.77447 0.88967 0.23458 0.0
C6954 C 0.78846 0.89308 0.22353 0.0
C6955 C 0.80638 0.89448 0.23112 0.0
H6956 H 0.76059 0.88848 0.22865 0.0
H6957 H 0.93651 0.89304 0.28506 0.0
H6958 H 0.67082 0.1038 0.76365 0.0
H6959 H 0.68843 0.13417 0.76403 0.0
H6960 H 0.73473 0.11169 0.75093 0.0
H6961 H 0.71613 0.08168 0.74746 0.0
H6962 H 0.71338 0.14739 0.78823 0.0
H6963 H 0.76691 0.13846 0.74324 0.0
H6964 H 0.77237 0.12219 0.71409 0.0
H6965 H 0.71934 0.12495 0.68941 0.0
H6966 H 0.71351 0.141 0.71857 0.0
H6967 H 0.78633 0.22866 0.78996 0.0
H6968 H 0.77062 0.19799 0.79331 0.0
H6969 H 0.72915 0.20195 0.74987 0.0
H6970 H 0.74466 0.23251 0.74671 0.0
H6971 H 0.75434 0.17464 0.74532 0.0
H6972 H 0.71542 0.20129 0.78449 0.0
H6973 H 0.70808 0.21798 0.81235 0.0
H6974 H 0.72762 0.1808 0.84601 0.0
H6975 H 0.73604 0.16449 0.81845 0.0
C6976 C 0.68464 0.10554 0.76043 0.0
C6977 C 0.69276 0.09077 0.75686 0.0
C6978 C 0.6947 0.12275 0.7607 0.0
C6979 C 0.71304 0.1252 0.75794 0.0
C6980 C 0.72062 0.11028 0.75289 0.0
C6981 C 0.71022 0.09313 0.75162 0.0
C6982 C 0.72436 0.14319 0.7623 0.0
C6983 C 0.72233 0.15331 0.7788 0.0
C6984 C 0.7366 0.15066 0.75043 0.0
C6985 C 0.73975 0.14076 0.73302 0.0
C6986 C 0.75644 0.13556 0.73156 0.0
C6987 C 0.75957 0.12634 0.7151 0.0
C6988 C 0.7462 0.12251 0.69992 0.0
C6989 C 0.72964 0.12783 0.70122 0.0
C6990 C 0.72637 0.1369 0.71773 0.0
C6991 C 0.77349 0.22307 0.78173 0.0
C6992 C 0.76636 0.23246 0.7682 0.0
C6993 C 0.76464 0.20577 0.78362 0.0
C6994 C 0.74893 0.19809 0.7718 0.0
C6995 C 0.74128 0.20799 0.75909 0.0
C6996 C 0.75003 0.22524 0.7573 0.0
C6997 C 0.74195 0.17894 0.77027 0.0
C6998 C 0.74544 0.1685 0.75471 0.0
C6999 C 0.73074 0.17132 0.78277 0.0
C7000 C 0.72673 0.18188 0.79944 0.0
C7001 C 0.71865 0.19697 0.79788 0.0
C7002 C 0.71424 0.20634 0.81363 0.0
C7003 C 0.71753 0.20057 0.83098 0.0
C7004 C 0.72526 0.1854 0.8326 0.0
C7005 C 0.72996 0.17615 0.81694 0.0
H7006 H 0.71404 0.2078 0.84315 0.0
H7007 H 0.74868 0.11545 0.68714 0.0
loop_
_geom_bond_atom_site_label_1
_geom_bond_atom_site_label_2
_geom_bond_distance
_geom_bond_site_symmetry_2
_ccdc_geom_bond_type
Mn0 O5 2.095 . S
Mn0 O15 2.162 . S
Mn0 O16 2.297 . S
Mn0 O24 2.385 . S
Mn0 O25 2.209 . S
Mn0 O26 2.094 . S
Mn1 O6 2.121 . S
Mn1 N8 2.257 . S
Mn1 N17 2.282 . S
Mn1 O25 2.215 . S
Mn1 O27 2.117 . S
C2 O24 1.234 . S
C2 O25 1.283 . S
C3 O15 1.281 . S
C3 O16 1.236 . S
C4 O26 1.240 . S
C4 O27 1.264 . S
O5 Mn0 2.095 . S
O5 C14 1.250 . S
O6 Mn1 2.121 . S
O6 C14 1.258 . S
C7 N8 1.326 . S
C7 C11 1.460 . S
C7 H13 0.929 . S
N8 Mn1 2.257 . S
N8 C7 1.326 . S
N8 C12 1.362 . S
C9 C10 1.272 . S
C9 C12 1.437 . S
C9 C29 1.427 1_455 S
C10 C9 1.272 . S
C10 C11 1.477 . S
C10 H30 0.931 . S
C11 C7 1.460 . S
C11 C10 1.477 . S
C11 H31 0.930 . S
C12 N8 1.362 . S
C12 C9 1.437 . S
C12 C22 1.476 1_455 S
H13 C7 0.929 . S
C14 O5 1.250 . S
C14 O6 1.258 . S
O15 Mn0 2.162 . S
O15 C3 1.281 . S
O16 Mn0 2.297 . S
O16 C3 1.236 . S
N17 Mn1 2.282 . S
N17 C18 1.328 1_455 S
N17 C22 1.318 1_455 S
C18 N17 1.328 1_655 S
C18 C19 1.457 . S
C18 H23 0.929 1_655 S
C19 C18 1.457 . S
C19 C20 1.291 . S
C19 H32 0.931 . S
C20 C19 1.291 . S
C20 C21 1.373 . S
C20 H33 0.929 . S
C21 C20 1.373 . S
C21 C22 1.396 . S
C21 C28 1.403 . S
C22 C12 1.476 1_655 S
C22 N17 1.318 1_655 S
C22 C21 1.396 . S
H23 C18 0.929 1_455 S
O24 Mn0 2.385 . S
O24 C2 1.234 . S
O25 Mn0 2.209 . S
O25 Mn1 2.215 . S
O25 C2 1.283 . S
O26 Mn0 2.094 . S
O26 C4 1.240 . S
O27 Mn1 2.117 . S
O27 C4 1.264 . S
C28 C21 1.403 . S
C28 C29 1.399 . S
C28 H34 0.929 . S
C29 C9 1.427 1_655 S
C29 C28 1.399 . S
C29 H35 0.930 . S
H30 C10 0.931 . S
H31 C11 0.930 . S
H32 C19 0.931 . S
H33 C20 0.929 . S
H34 C28 0.929 . S
H35 C29 0.930 . S
Mn36 O41 2.095 1_455 S
Mn36 O51 2.162 . S
Mn36 O52 2.297 . S
Mn36 O60 2.385 . S
Mn36 O61 2.209 . S
Mn36 O62 2.094 . S
Mn37 O42 2.121 1_455 S
Mn37 N44 2.257 . S
Mn37 N53 2.282 . S
Mn37 O61 2.215 . S
Mn37 O63 2.117 . S
C38 O60 1.234 . S
C38 O61 1.283 . S
C39 O51 1.281 . S
C39 O52 1.236 . S
C40 O62 1.240 . S
C40 O63 1.264 . S
O41 Mn36 2.095 1_655 S
O41 C50 1.250 . S
O42 Mn37 2.121 1_655 S
O42 C50 1.258 . S
C43 N44 1.326 . S
C43 C47 1.460 . S
C43 H49 0.929 . S
N44 Mn37 2.257 . S
N44 C43 1.326 . S
N44 C48 1.362 . S
C45 C46 1.258 . S
C45 C48 1.431 . S
C45 C65 1.449 . S
C46 C45 1.258 . S
C46 C47 1.477 . S
C46 H66 0.931 . S
C47 C43 1.460 . S
C47 C46 1.477 . S
C47 H67 0.930 . S
C48 N44 1.362 . S
C48 C45 1.431 . S
C48 C58 1.476 . S
H49 C43 0.929 . S
C50 O41 1.250 . S
C50 O42 1.258 . S
O51 Mn36 2.162 . S
O51 C39 1.281 . S
O52 Mn36 2.297 . S
O52 C39 1.236 . S
N53 Mn37 2.282 . S
N53 C54 1.328 . S
N53 C58 1.318 . S
C54 N53 1.328 . S
C54 C55 1.457 . S
C54 H59 0.929 . S
C55 C54 1.457 . S
C55 C56 1.291 . S
C55 H68 0.931 . S
C56 C55 1.291 . S
C56 C57 1.373 . S
C56 H69 0.929 . S
C57 C56 1.373 . S
C57 C58 1.396 . S
C57 C64 1.403 . S
C58 C48 1.476 . S
C58 N53 1.318 . S
C58 C57 1.396 . S
H59 C54 0.929 . S
O60 Mn36 2.385 . S
O60 C38 1.234 . S
O61 Mn36 2.209 . S
O61 Mn37 2.215 . S
O61 C38 1.283 . S
O62 Mn36 2.094 . S
O62 C40 1.240 . S
O63 Mn37 2.117 . S
O63 C40 1.264 . S
C64 C57 1.403 . S
C64 C65 1.399 . S
C64 H70 0.929 . S
C65 C45 1.449 . S
C65 C64 1.399 . S
C65 H71 0.930 . S
H66 C46 0.931 . S
H67 C47 0.930 . S
H68 C55 0.931 . S
H69 C56 0.929 . S
H70 C64 0.929 . S
H71 C65 0.930 . S
Mn72 O77 2.095 . S
Mn72 O87 2.162 . S
Mn72 O88 2.297 . S
Mn72 O96 2.385 . S
Mn72 O97 2.209 . S
Mn72 O98 2.094 . S
Mn73 O78 2.121 . S
Mn73 N80 2.257 . S
Mn73 N89 2.282 . S
Mn73 O97 2.215 . S
Mn73 O99 2.117 . S
C74 O96 1.234 . S
C74 O97 1.283 . S
C75 O87 1.281 . S
C75 O88 1.236 . S
C76 O98 1.240 . S
C76 O99 1.264 . S
O77 Mn72 2.095 . S
O77 C86 1.250 . S
O78 Mn73 2.121 . S
O78 C86 1.258 . S
C79 N80 1.326 . S
C79 C83 1.460 . S
C79 H85 0.929 . S
N80 Mn73 2.257 . S
N80 C79 1.326 . S
N80 C84 1.362 . S
C81 C82 1.258 . S
C81 C84 1.431 . S
C81 C101 1.449 . S
C82 C81 1.258 . S
C82 C83 1.477 . S
C82 H102 0.931 . S
C83 C79 1.460 . S
C83 C82 1.477 . S
C83 H103 0.930 . S
C84 N80 1.362 . S
C84 C81 1.431 . S
C84 C94 1.476 . S
H85 C79 0.929 . S
C86 O77 1.250 . S
C86 O78 1.258 . S
O87 Mn72 2.162 . S
O87 C75 1.281 . S
O88 Mn72 2.297 . S
O88 C75 1.236 . S
N89 Mn73 2.282 . S
N89 C90 1.328 . S
N89 C94 1.318 . S
C90 N89 1.328 . S
C90 C91 1.457 . S
C90 H95 0.929 . S
C91 C90 1.457 . S
C91 C92 1.291 . S
C91 H104 0.931 . S
C92 C91 1.291 . S
C92 C93 1.373 . S
C92 H105 0.929 . S
C93 C92 1.373 . S
C93 C94 1.396 . S
C93 C100 1.403 . S
C94 C84 1.476 . S
C94 N89 1.318 . S
C94 C93 1.396 . S
H95 C90 0.929 . S
O96 Mn72 2.385 . S
O96 C74 1.234 . S
O97 Mn72 2.209 . S
O97 Mn73 2.215 . S
O97 C74 1.283 . S
O98 Mn72 2.094 . S
O98 C76 1.240 . S
O99 Mn73 2.117 . S
O99 C76 1.264 . S
C100 C93 1.403 . S
C100 C101 1.399 . S
C100 H106 0.929 . S
C101 C81 1.449 . S
C101 C100 1.399 . S
C101 H107 0.930 . S
H102 C82 0.931 . S
H103 C83 0.930 . S
H104 C91 0.931 . S
H105 C92 0.929 . S
H106 C100 0.929 . S
H107 C101 0.930 . S
Mn108 O113 2.095 . S
Mn108 O123 2.162 . S
Mn108 O124 2.297 . S
Mn108 O132 2.385 . S
Mn108 O133 2.209 . S
Mn108 O134 2.094 . S
Mn109 O114 2.121 . S
Mn109 N116 2.257 . S
Mn109 N125 2.282 . S
Mn109 O133 2.215 . S
Mn109 O135 2.117 . S
C110 O132 1.234 . S
C110 O133 1.283 . S
C111 O123 1.281 . S
C111 O124 1.236 . S
C112 O134 1.240 . S
C112 O135 1.264 . S
O113 Mn108 2.095 . S
O113 C122 1.250 . S
O114 Mn109 2.121 . S
O114 C122 1.258 . S
C115 N116 1.326 . S
C115 C119 1.460 . S
C115 H121 0.929 . S
N116 Mn109 2.257 . S
N116 C115 1.326 . S
N116 C120 1.362 . S
C117 C118 1.258 . S
C117 C120 1.431 . S
C117 C137 1.449 . S
C118 C117 1.258 . S
C118 C119 1.477 . S
C118 H138 0.931 . S
C119 C115 1.460 . S
C119 C118 1.477 . S
C119 H139 0.930 . S
C120 N116 1.362 . S
C120 C117 1.431 . S
C120 C130 1.476 . S
H121 C115 0.929 . S
C122 O113 1.250 . S
C122 O114 1.258 . S
O123 Mn108 2.162 . S
O123 C111 1.281 . S
O124 Mn108 2.297 . S
O124 C111 1.236 . S
N125 Mn109 2.282 . S
N125 C126 1.328 . S
N125 C130 1.318 . S
C126 N125 1.328 . S
C126 C127 1.457 . S
C126 H131 0.929 . S
C127 C126 1.457 . S
C127 C128 1.291 . S
C127 H140 0.931 . S
C128 C127 1.291 . S
C128 C129 1.373 . S
C128 H141 0.929 . S
C129 C128 1.373 . S
C129 C130 1.396 . S
C129 C136 1.403 . S
C130 C120 1.476 . S
C130 N125 1.318 . S
C130 C129 1.396 . S
H131 C126 0.929 . S
O132 Mn108 2.385 . S
O132 C110 1.234 . S
O133 Mn108 2.209 . S
O133 Mn109 2.215 . S
O133 C110 1.283 . S
O134 Mn108 2.094 . S
O134 C112 1.240 . S
O135 Mn109 2.117 . S
O135 C112 1.264 . S
C136 C129 1.403 . S
C136 C137 1.399 . S
C136 H142 0.929 . S
C137 C117 1.449 . S
C137 C136 1.399 . S
C137 H143 0.930 . S
H138 C118 0.931 . S
H139 C119 0.930 . S
H140 C127 0.931 . S
H141 C128 0.929 . S
H142 C136 0.929 . S
H143 C137 0.930 . S
Mn144 O149 2.095 . S
Mn144 O159 2.162 . S
Mn144 O160 2.297 . S
Mn144 O168 2.385 . S
Mn144 O169 2.209 . S
Mn144 O170 2.094 . S
Mn145 O150 2.121 . S
Mn145 N152 2.257 . S
Mn145 N161 2.282 . S
Mn145 O169 2.215 . S
Mn145 O171 2.117 . S
C146 O168 1.234 . S
C146 O169 1.283 . S
C147 O159 1.281 . S
C147 O160 1.236 . S
C148 O170 1.240 . S
C148 O171 1.264 . S
O149 Mn144 2.095 . S
O149 C158 1.250 . S
O150 Mn145 2.121 . S
O150 C158 1.258 . S
C151 N152 1.326 . S
C151 C155 1.460 . S
C151 H157 0.929 . S
N152 Mn145 2.257 . S
N152 C151 1.326 . S
N152 C156 1.362 . S
C153 C154 1.258 . S
C153 C156 1.431 . S
C153 C173 1.449 1_455 S
C154 C153 1.258 . S
C154 C155 1.477 . S
C154 H174 0.931 . S
C155 C151 1.460 . S
C155 C154 1.477 . S
C155 H175 0.930 . S
C156 N152 1.362 . S
C156 C153 1.431 . S
C156 C166 1.476 . S
H157 C151 0.929 . S
C158 O149 1.250 . S
C158 O150 1.258 . S
O159 Mn144 2.162 . S
O159 C147 1.281 . S
O160 Mn144 2.297 . S
O160 C147 1.236 . S
N161 Mn145 2.282 . S
N161 C162 1.328 1_455 S
N161 C166 1.318 . S
C162 N161 1.328 1_655 S
C162 C163 1.457 . S
C162 H167 0.929 . S
C163 C162 1.457 . S
C163 C164 1.291 . S
C163 H176 0.931 . S
C164 C163 1.291 . S
C164 C165 1.373 . S
C164 H177 0.929 . S
C165 C164 1.373 . S
C165 C166 1.396 1_655 S
C165 C172 1.403 . S
C166 C156 1.476 . S
C166 N161 1.318 . S
C166 C165 1.396 1_455 S
H167 C162 0.929 . S
O168 Mn144 2.385 . S
O168 C146 1.234 . S
O169 Mn144 2.209 . S
O169 Mn145 2.215 . S
O169 C146 1.283 . S
O170 Mn144 2.094 . S
O170 C148 1.240 . S
O171 Mn145 2.117 . S
O171 C148 1.264 . S
C172 C165 1.403 . S
C172 C173 1.399 . S
C172 H178 0.929 . S
C173 C153 1.449 1_655 S
C173 C172 1.399 . S
C173 H179 0.930 . S
H174 C154 0.931 . S
H175 C155 0.930 . S
H176 C163 0.931 . S
H177 C164 0.929 . S
H178 C172 0.929 . S
H179 C173 0.930 . S
Mn180 O185 2.095 . S
Mn180 O195 2.162 . S
Mn180 O196 2.297 . S
Mn180 O204 2.385 . S
Mn180 O205 2.209 . S
Mn180 O206 2.094 . S
Mn181 O186 2.121 . S
Mn181 N188 2.257 . S
Mn181 N197 2.282 . S
Mn181 O205 2.215 . S
Mn181 O207 2.117 . S
C182 O204 1.234 . S
C182 O205 1.283 . S
C183 O195 1.281 . S
C183 O196 1.236 . S
C184 O206 1.240 . S
C184 O207 1.264 . S
O185 Mn180 2.095 . S
O185 C194 1.250 . S
O186 Mn181 2.121 . S
O186 C194 1.258 . S
C187 N188 1.326 . S
C187 C191 1.460 . S
C187 H193 0.929 . S
N188 Mn181 2.257 . S
N188 C187 1.326 . S
N188 C192 1.362 . S
C189 C190 1.258 . S
C189 C192 1.431 . S
C189 C209 1.449 . S
C190 C189 1.258 . S
C190 C191 1.477 . S
C190 H210 0.931 . S
C191 C187 1.460 . S
C191 C190 1.477 . S
C191 H211 0.930 . S
C192 N188 1.362 . S
C192 C189 1.431 . S
C192 C202 1.476 . S
H193 C187 0.929 . S
C194 O185 1.250 . S
C194 O186 1.258 . S
O195 Mn180 2.162 . S
O195 C183 1.281 . S
O196 Mn180 2.297 . S
O196 C183 1.236 . S
N197 Mn181 2.282 . S
N197 C198 1.328 . S
N197 C202 1.318 . S
C198 N197 1.328 . S
C198 C199 1.457 . S
C198 H203 0.929 . S
C199 C198 1.457 . S
C199 C200 1.291 . S
C199 H212 0.931 . S
C200 C199 1.291 . S
C200 C201 1.373 . S
C200 H213 0.929 . S
C201 C200 1.373 . S
C201 C202 1.396 . S
C201 C208 1.403 . S
C202 C192 1.476 . S
C202 N197 1.318 . S
C202 C201 1.396 . S
H203 C198 0.929 . S
O204 Mn180 2.385 . S
O204 C182 1.234 . S
O205 Mn180 2.209 . S
O205 Mn181 2.215 . S
O205 C182 1.283 . S
O206 Mn180 2.094 . S
O206 C184 1.240 . S
O207 Mn181 2.117 . S
O207 C184 1.264 . S
C208 C201 1.403 . S
C208 C209 1.399 . S
C208 H214 0.929 . S
C209 C189 1.449 . S
C209 C208 1.399 . S
C209 H215 0.930 . S
H210 C190 0.931 . S
H211 C191 0.930 . S
H212 C199 0.931 . S
H213 C200 0.929 . S
H214 C208 0.929 . S
H215 C209 0.930 . S
Mn216 O221 2.095 . S
Mn216 O231 2.162 . S
Mn216 O232 2.297 . S
Mn216 O240 2.385 . S
Mn216 O241 2.209 . S
Mn216 O242 2.094 . S
Mn217 O222 2.121 . S
Mn217 N224 2.257 . S
Mn217 N233 2.282 . S
Mn217 O241 2.215 . S
Mn217 O243 2.117 . S
C218 O240 1.234 . S
C218 O241 1.283 . S
C219 O231 1.281 . S
C219 O232 1.236 . S
C220 O242 1.240 . S
C220 O243 1.264 . S
O221 Mn216 2.095 . S
O221 C230 1.250 . S
O222 Mn217 2.121 . S
O222 C230 1.258 . S
C223 N224 1.326 . S
C223 C227 1.460 . S
C223 H229 0.929 . S
N224 Mn217 2.257 . S
N224 C223 1.326 . S
N224 C228 1.362 . S
C225 C226 1.258 . S
C225 C228 1.431 . S
C225 C245 1.449 . S
C226 C225 1.258 . S
C226 C227 1.477 . S
C226 H246 0.931 . S
C227 C223 1.460 . S
C227 C226 1.477 . S
C227 H247 0.930 . S
C228 N224 1.362 . S
C228 C225 1.431 . S
C228 C238 1.476 . S
H229 C223 0.929 . S
C230 O221 1.250 . S
C230 O222 1.258 . S
O231 Mn216 2.162 . S
O231 C219 1.281 . S
O232 Mn216 2.297 . S
O232 C219 1.236 . S
N233 Mn217 2.282 . S
N233 C234 1.328 . S
N233 C238 1.318 . S
C234 N233 1.328 . S
C234 C235 1.457 . S
C234 H239 0.929 . S
C235 C234 1.457 . S
C235 C236 1.291 . S
C235 H248 0.931 . S
C236 C235 1.291 . S
C236 C237 1.373 . S
C236 H249 0.929 . S
C237 C236 1.373 . S
C237 C238 1.396 . S
C237 C244 1.403 . S
C238 C228 1.476 . S
C238 N233 1.318 . S
C238 C237 1.396 . S
H239 C234 0.929 . S
O240 Mn216 2.385 . S
O240 C218 1.234 . S
O241 Mn216 2.209 . S
O241 Mn217 2.215 . S
O241 C218 1.283 . S
O242 Mn216 2.094 . S
O242 C220 1.240 . S
O243 Mn217 2.117 . S
O243 C220 1.264 . S
C244 C237 1.403 . S
C244 C245 1.399 . S
C244 H250 0.929 . S
C245 C225 1.449 . S
C245 C244 1.399 . S
C245 H251 0.930 . S
H246 C226 0.931 . S
H247 C227 0.930 . S
H248 C235 0.931 . S
H249 C236 0.929 . S
H250 C244 0.929 . S
H251 C245 0.930 . S
Mn252 O257 2.064 1_655 S
Mn252 O267 2.155 1_655 S
Mn252 O268 2.294 . S
Mn252 O276 2.419 . S
Mn252 O277 2.224 . S
Mn252 O278 2.098 1_655 S
Mn253 O258 2.121 1_655 S
Mn253 N260 2.257 . S
Mn253 N269 2.282 . S
Mn253 O277 2.215 . S
Mn253 O279 2.117 1_655 S
C254 O276 1.234 . S
C254 O277 1.283 . S
C255 O267 1.283 1_655 S
C255 O268 1.236 . S
C256 O278 1.240 . S
C256 O279 1.264 . S
O257 Mn252 2.064 1_455 S
O257 C266 1.250 . S
O258 Mn253 2.121 1_455 S
O258 C266 1.258 . S
C259 N260 1.326 . S
C259 C263 1.460 . S
C259 H265 0.929 1_655 S
N260 Mn253 2.257 . S
N260 C259 1.326 . S
N260 C264 1.362 . S
C261 C262 1.258 . S
C261 C264 1.431 . S
C261 C281 1.449 . S
C262 C261 1.258 . S
C262 C263 1.477 . S
C262 H282 0.931 . S
C263 C259 1.460 . S
C263 C262 1.477 . S
C263 H283 0.930 . S
C264 N260 1.362 . S
C264 C261 1.431 . S
C264 C274 1.476 . S
H265 C259 0.929 1_455 S
C266 O257 1.250 . S
C266 O258 1.258 . S
O267 Mn252 2.155 1_455 S
O267 C255 1.283 1_455 S
O268 Mn252 2.294 . S
O268 C255 1.236 . S
N269 Mn253 2.282 . S
N269 C270 1.328 . S
N269 C274 1.318 . S
C270 N269 1.328 . S
C270 C271 1.457 . S
C270 H275 0.929 . S
C271 C270 1.457 . S
C271 C272 1.291 . S
C271 H284 0.931 . S
C272 C271 1.291 . S
C272 C273 1.373 . S
C272 H285 0.929 . S
C273 C272 1.373 . S
C273 C274 1.396 . S
C273 C280 1.403 . S
C274 C264 1.476 . S
C274 N269 1.318 . S
C274 C273 1.396 . S
H275 C270 0.929 . S
O276 Mn252 2.419 . S
O276 C254 1.234 . S
O277 Mn252 2.224 . S
O277 Mn253 2.215 . S
O277 C254 1.283 . S
O278 Mn252 2.098 1_455 S
O278 C256 1.240 . S
O279 Mn253 2.117 1_455 S
O279 C256 1.264 . S
C280 C273 1.403 . S
C280 C281 1.399 . S
C280 H286 0.929 . S
C281 C261 1.449 . S
C281 C280 1.399 . S
C281 H287 0.930 . S
H282 C262 0.931 . S
H283 C263 0.930 . S
H284 C271 0.931 . S
H285 C272 0.929 . S
H286 C280 0.929 . S
H287 C281 0.930 . S
Mn288 O293 2.095 . S
Mn288 O303 2.162 . S
Mn288 O304 2.297 . S
Mn288 O312 2.385 1_545 S
Mn288 O313 2.209 1_545 S
Mn288 O314 2.094 . S
Mn289 O294 2.121 . S
Mn289 N296 2.257 1_545 S
Mn289 N305 2.282 1_545 S
Mn289 O313 2.215 1_545 S
Mn289 O315 2.117 . S
C290 O312 1.234 . S
C290 O313 1.283 . S
C291 O303 1.281 . S
C291 O304 1.236 . S
C292 O314 1.240 . S
C292 O315 1.264 . S
O293 Mn288 2.095 . S
O293 C302 1.250 . S
O294 Mn289 2.121 . S
O294 C302 1.258 . S
C295 N296 1.285 1_545 S
C295 C299 1.445 1_545 S
C295 H301 0.988 . S
N296 Mn289 2.257 1_565 S
N296 C295 1.285 1_565 S
N296 C300 1.362 . S
C297 C298 1.258 . S
C297 C300 1.431 . S
C297 C317 1.449 . S
C298 C297 1.258 . S
C298 C299 1.477 . S
C298 H318 0.931 . S
C299 C295 1.445 1_565 S
C299 C298 1.477 . S
C299 H319 0.930 . S
C300 N296 1.362 . S
C300 C297 1.431 . S
C300 C310 1.476 . S
H301 C295 0.988 . S
C302 O293 1.250 . S
C302 O294 1.258 . S
O303 Mn288 2.162 . S
O303 C291 1.281 . S
O304 Mn288 2.297 . S
O304 C291 1.236 . S
N305 Mn289 2.282 1_565 S
N305 C306 1.328 . S
N305 C310 1.318 . S
C306 N305 1.328 . S
C306 C307 1.457 . S
C306 H311 0.929 . S
C307 C306 1.457 . S
C307 C308 1.291 . S
C307 H320 0.931 . S
C308 C307 1.291 . S
C308 C309 1.373 . S
C308 H321 0.929 . S
C309 C308 1.373 . S
C309 C310 1.396 . S
C309 C316 1.403 . S
C310 C300 1.476 . S
C310 N305 1.318 . S
C310 C309 1.396 . S
H311 C306 0.929 . S
O312 Mn288 2.385 1_565 S
O312 C290 1.234 . S
O313 Mn288 2.209 1_565 S
O313 Mn289 2.215 1_565 S
O313 C290 1.283 . S
O314 Mn288 2.094 . S
O314 C292 1.240 . S
O315 Mn289 2.117 . S
O315 C292 1.264 . S
C316 C309 1.403 . S
C316 C317 1.399 . S
C316 H322 0.929 . S
C317 C297 1.449 . S
C317 C316 1.399 . S
C317 H323 0.930 . S
H318 C298 0.931 . S
H319 C299 0.930 . S
H320 C307 0.931 . S
H321 C308 0.929 . S
H322 C316 0.929 . S
H323 C317 0.930 . S
Mn324 O329 2.095 . S
Mn324 O339 2.162 . S
Mn324 O340 2.297 . S
Mn324 O348 2.385 . S
Mn324 O349 2.209 . S
Mn324 O350 2.094 . S
Mn325 O330 2.121 . S
Mn325 N332 2.257 . S
Mn325 N341 2.282 . S
Mn325 O349 2.215 . S
Mn325 O351 2.117 . S
C326 O348 1.234 . S
C326 O349 1.283 . S
C327 O339 1.281 . S
C327 O340 1.236 . S
C328 O350 1.240 . S
C328 O351 1.264 . S
O329 Mn324 2.095 . S
O329 C338 1.250 . S
O330 Mn325 2.121 . S
O330 C338 1.258 . S
C331 N332 1.326 . S
C331 C335 1.460 . S
C331 H337 0.929 . S
N332 Mn325 2.257 . S
N332 C331 1.326 . S
N332 C336 1.362 . S
C333 C334 1.258 . S
C333 C336 1.431 . S
C333 C353 1.449 . S
C334 C333 1.258 . S
C334 C335 1.477 . S
C334 H354 0.931 . S
C335 C331 1.460 . S
C335 C334 1.477 . S
C335 H355 0.930 . S
C336 N332 1.362 . S
C336 C333 1.431 . S
C336 C346 1.476 . S
H337 C331 0.929 . S
C338 O329 1.250 . S
C338 O330 1.258 . S
O339 Mn324 2.162 . S
O339 C327 1.281 . S
O340 Mn324 2.297 . S
O340 C327 1.236 . S
N341 Mn325 2.282 . S
N341 C342 1.328 . S
N341 C346 1.318 . S
C342 N341 1.328 . S
C342 C343 1.457 . S
C342 H347 0.929 . S
C343 C342 1.457 . S
C343 C344 1.291 . S
C343 H356 0.931 . S
C344 C343 1.291 . S
C344 C345 1.373 . S
C344 H357 0.929 . S
C345 C344 1.373 . S
C345 C346 1.396 . S
C345 C352 1.403 . S
C346 C336 1.476 . S
C346 N341 1.318 . S
C346 C345 1.396 . S
H347 C342 0.929 . S
O348 Mn324 2.385 . S
O348 C326 1.234 . S
O349 Mn324 2.209 . S
O349 Mn325 2.215 . S
O349 C326 1.283 . S
O350 Mn324 2.094 . S
O350 C328 1.240 . S
O351 Mn325 2.117 . S
O351 C328 1.264 . S
C352 C345 1.403 . S
C352 C353 1.399 . S
C352 H358 0.929 . S
C353 C333 1.449 . S
C353 C352 1.399 . S
C353 H359 0.930 . S
H354 C334 0.931 . S
H355 C335 0.930 . S
H356 C343 0.931 . S
H357 C344 0.929 . S
H358 C352 0.929 . S
H359 C353 0.930 . S
Mn360 O365 2.095 . S
Mn360 O375 2.162 . S
Mn360 O376 2.297 . S
Mn360 O384 2.385 . S
Mn360 O385 2.209 . S
Mn360 O386 2.094 . S
Mn361 O366 2.121 . S
Mn361 N368 2.257 . S
Mn361 N377 2.282 . S
Mn361 O385 2.215 . S
Mn361 O387 2.117 . S
C362 O384 1.234 . S
C362 O385 1.283 . S
C363 O375 1.281 . S
C363 O376 1.236 . S
C364 O386 1.240 . S
C364 O387 1.264 . S
O365 Mn360 2.095 . S
O365 C374 1.250 . S
O366 Mn361 2.121 . S
O366 C374 1.258 . S
C367 N368 1.326 . S
C367 C371 1.460 . S
C367 H373 0.929 . S
N368 Mn361 2.257 . S
N368 C367 1.326 . S
N368 C372 1.362 . S
C369 C370 1.258 . S
C369 C372 1.431 . S
C369 C389 1.449 . S
C370 C369 1.258 . S
C370 C371 1.477 . S
C370 H390 0.931 . S
C371 C367 1.460 . S
C371 C370 1.477 . S
C371 H391 0.930 . S
C372 N368 1.362 . S
C372 C369 1.431 . S
C372 C382 1.476 . S
H373 C367 0.929 . S
C374 O365 1.250 . S
C374 O366 1.258 . S
O375 Mn360 2.162 . S
O375 C363 1.281 . S
O376 Mn360 2.297 . S
O376 C363 1.236 . S
N377 Mn361 2.282 . S
N377 C378 1.328 . S
N377 C382 1.318 . S
C378 N377 1.328 . S
C378 C379 1.457 . S
C378 H383 0.929 . S
C379 C378 1.457 . S
C379 C380 1.291 . S
C379 H392 0.931 . S
C380 C379 1.291 . S
C380 C381 1.373 . S
C380 H393 0.929 . S
C381 C380 1.373 . S
C381 C382 1.396 . S
C381 C388 1.403 . S
C382 C372 1.476 . S
C382 N377 1.318 . S
C382 C381 1.396 . S
H383 C378 0.929 . S
O384 Mn360 2.385 . S
O384 C362 1.234 . S
O385 Mn360 2.209 . S
O385 Mn361 2.215 . S
O385 C362 1.283 . S
O386 Mn360 2.094 . S
O386 C364 1.240 . S
O387 Mn361 2.117 . S
O387 C364 1.264 . S
C388 C381 1.403 . S
C388 C389 1.399 . S
C388 H394 0.929 . S
C389 C369 1.449 . S
C389 C388 1.399 . S
C389 H395 0.930 . S
H390 C370 0.931 . S
H391 C371 0.930 . S
H392 C379 0.931 . S
H393 C380 0.929 . S
H394 C388 0.929 . S
H395 C389 0.930 . S
Mn396 O401 2.095 1_554 S
Mn396 O411 2.162 . S
Mn396 O412 2.297 . S
Mn396 O420 2.385 . S
Mn396 O421 2.203 1_554 S
Mn396 O422 2.094 1_554 S
Mn397 O402 2.121 . S
Mn397 N404 2.257 . S
Mn397 N413 2.282 . S
Mn397 O421 2.237 . S
Mn397 O423 2.117 . S
C398 O420 1.234 . S
C398 O421 1.280 1_554 S
C399 O411 1.281 . S
C399 O412 1.236 . S
C400 O422 1.240 . S
C400 O423 1.264 . S
O401 Mn396 2.095 1_556 S
O401 C410 1.250 . S
O402 Mn397 2.121 . S
O402 C410 1.258 . S
C403 N404 1.326 . S
C403 C407 1.460 1_565 S
C403 H409 0.929 . S
N404 Mn397 2.257 . S
N404 C403 1.326 . S
N404 C408 1.362 . S
C405 C406 1.258 1_565 S
C405 C408 1.431 . S
C405 C425 1.449 1_565 S
C406 C405 1.258 1_545 S
C406 C407 1.477 . S
C406 H426 0.931 . S
C407 C403 1.460 1_545 S
C407 C406 1.477 . S
C407 H427 0.930 . S
C408 N404 1.362 . S
C408 C405 1.431 . S
C408 C418 1.476 . S
H409 C403 0.929 . S
C410 O401 1.250 . S
C410 O402 1.258 . S
O411 Mn396 2.162 . S
O411 C399 1.281 . S
O412 Mn396 2.297 . S
O412 C399 1.236 . S
N413 Mn397 2.282 . S
N413 C414 1.328 . S
N413 C418 1.318 . S
C414 N413 1.328 . S
C414 C415 1.457 . S
C414 H419 0.929 . S
C415 C414 1.457 . S
C415 C416 1.291 . S
C415 H428 0.931 . S
C416 C415 1.291 . S
C416 C417 1.373 . S
C416 H429 0.929 . S
C417 C416 1.373 . S
C417 C418 1.396 . S
C417 C424 1.403 . S
C418 C408 1.476 . S
C418 N413 1.318 . S
C418 C417 1.396 . S
H419 C414 0.929 . S
O420 Mn396 2.385 . S
O420 C398 1.234 . S
O421 Mn396 2.203 1_556 S
O421 Mn397 2.237 . S
O421 C398 1.280 1_556 S
O422 Mn396 2.094 1_556 S
O422 C400 1.240 . S
O423 Mn397 2.117 . S
O423 C400 1.264 . S
C424 C417 1.403 . S
C424 C425 1.399 1_565 S
C424 H430 0.929 . S
C425 C405 1.449 1_545 S
C425 C424 1.399 1_545 S
C425 H431 0.930 . S
H426 C406 0.931 . S
H427 C407 0.930 . S
H428 C415 0.931 . S
H429 C416 0.929 . S
H430 C424 0.929 . S
H431 C425 0.930 . S
Mn432 O437 2.095 . S
Mn432 O447 2.162 . S
Mn432 O448 2.297 . S
Mn432 O456 2.385 . S
Mn432 O457 2.209 . S
Mn432 O458 2.094 . S
Mn433 O438 2.121 . S
Mn433 N440 2.257 . S
Mn433 N449 2.282 1_554 S
Mn433 O457 2.215 . S
Mn433 O459 2.117 1_554 S
C434 O456 1.234 . S
C434 O457 1.283 . S
C435 O447 1.281 . S
C435 O448 1.236 . S
C436 O458 1.240 1_556 S
C436 O459 1.264 . S
O437 Mn432 2.095 . S
O437 C446 1.250 . S
O438 Mn433 2.121 . S
O438 C446 1.258 . S
C439 N440 1.326 . S
C439 C443 1.460 . S
C439 H445 0.929 . S
N440 Mn433 2.257 . S
N440 C439 1.326 . S
N440 C444 1.362 . S
C441 C442 1.258 . S
C441 C444 1.431 . S
C441 C461 1.449 . S
C442 C441 1.258 . S
C442 C443 1.477 . S
C442 H462 0.931 . S
C443 C439 1.460 . S
C443 C442 1.477 . S
C443 H463 0.930 . S
C444 N440 1.362 . S
C444 C441 1.431 . S
C444 C454 1.476 1_554 S
H445 C439 0.929 . S
C446 O437 1.250 . S
C446 O438 1.258 . S
O447 Mn432 2.162 . S
O447 C435 1.281 . S
O448 Mn432 2.297 . S
O448 C435 1.236 . S
N449 Mn433 2.282 1_556 S
N449 C450 1.328 . S
N449 C454 1.318 . S
C450 N449 1.328 . S
C450 C451 1.457 . S
C450 H455 0.929 . S
C451 C450 1.457 . S
C451 C452 1.291 . S
C451 H464 0.931 . S
C452 C451 1.291 . S
C452 C453 1.373 . S
C452 H465 0.929 . S
C453 C452 1.373 . S
C453 C454 1.396 . S
C453 C460 1.403 . S
C454 C444 1.476 1_556 S
C454 N449 1.318 . S
C454 C453 1.396 . S
H455 C450 0.929 . S
O456 Mn432 2.385 . S
O456 C434 1.234 . S
O457 Mn432 2.209 . S
O457 Mn433 2.215 . S
O457 C434 1.283 . S
O458 Mn432 2.094 . S
O458 C436 1.240 1_554 S
O459 Mn433 2.117 1_556 S
O459 C436 1.264 . S
C460 C453 1.403 . S
C460 C461 1.399 1_556 S
C460 H466 0.929 . S
C461 C441 1.449 . S
C461 C460 1.399 1_554 S
C461 H467 0.930 . S
H462 C442 0.931 . S
H463 C443 0.930 . S
H464 C451 0.931 . S
H465 C452 0.929 . S
H466 C460 0.929 . S
H467 C461 0.930 . S
Mn468 O473 2.095 . S
Mn468 O483 2.162 . S
Mn468 O484 2.297 . S
Mn468 O492 2.385 . S
Mn468 O493 2.209 . S
Mn468 O494 2.094 . S
Mn469 O474 2.121 . S
Mn469 N476 2.257 . S
Mn469 N485 2.282 1_554 S
Mn469 O493 2.215 . S
Mn469 O495 2.117 . S
C470 O492 1.234 . S
C470 O493 1.283 . S
C471 O483 1.281 . S
C471 O484 1.236 . S
C472 O494 1.240 . S
C472 O495 1.264 . S
O473 Mn468 2.095 . S
O473 C482 1.250 . S
O474 Mn469 2.121 . S
O474 C482 1.258 . S
C475 N476 1.326 . S
C475 C479 1.460 . S
C475 H481 0.929 . S
N476 Mn469 2.257 . S
N476 C475 1.326 . S
N476 C480 1.362 . S
C477 C478 1.258 . S
C477 C480 1.431 . S
C477 C497 1.449 1_554 S
C478 C477 1.258 . S
C478 C479 1.477 . S
C478 H498 0.931 . S
C479 C475 1.460 . S
C479 C478 1.477 . S
C479 H499 0.930 . S
C480 N476 1.362 . S
C480 C477 1.431 . S
C480 C490 1.476 1_554 S
H481 C475 0.929 . S
C482 O473 1.250 . S
C482 O474 1.258 . S
O483 Mn468 2.162 . S
O483 C471 1.281 . S
O484 Mn468 2.297 . S
O484 C471 1.236 . S
N485 Mn469 2.282 1_556 S
N485 C486 1.328 . S
N485 C490 1.318 . S
C486 N485 1.328 . S
C486 C487 1.457 . S
C486 H491 0.929 . S
C487 C486 1.457 . S
C487 C488 1.291 . S
C487 H500 0.931 . S
C488 C487 1.291 . S
C488 C489 1.373 . S
C488 H501 0.929 . S
C489 C488 1.373 . S
C489 C490 1.396 . S
C489 C496 1.403 . S
C490 C480 1.476 1_556 S
C490 N485 1.318 . S
C490 C489 1.396 . S
H491 C486 0.929 . S
O492 Mn468 2.385 . S
O492 C470 1.234 . S
O493 Mn468 2.209 . S
O493 Mn469 2.215 . S
O493 C470 1.283 . S
O494 Mn468 2.094 . S
O494 C472 1.240 . S
O495 Mn469 2.117 . S
O495 C472 1.264 . S
C496 C489 1.403 . S
C496 C497 1.399 . S
C496 H502 0.929 . S
C497 C477 1.449 1_556 S
C497 C496 1.399 . S
C497 H503 0.930 . S
H498 C478 0.931 . S
H499 C479 0.930 . S
H500 C487 0.931 . S
H501 C488 0.929 . S
H502 C496 0.929 . S
H503 C497 0.930 . S
Mn504 O509 2.095 . S
Mn504 O519 2.162 . S
Mn504 O520 2.297 . S
Mn504 O528 2.385 . S
Mn504 O529 2.209 . S
Mn504 O530 2.094 . S
Mn505 O510 2.121 . S
Mn505 N512 2.257 . S
Mn505 N521 2.282 . S
Mn505 O529 2.215 . S
Mn505 O531 2.117 . S
C506 O528 1.234 . S
C506 O529 1.283 . S
C507 O519 1.281 . S
C507 O520 1.236 . S
C508 O530 1.240 . S
C508 O531 1.264 . S
O509 Mn504 2.095 . S
O509 C518 1.250 . S
O510 Mn505 2.121 . S
O510 C518 1.258 . S
C511 N512 1.326 . S
C511 C515 1.460 . S
C511 H517 0.929 . S
N512 Mn505 2.257 . S
N512 C511 1.326 . S
N512 C516 1.362 . S
C513 C514 1.258 . S
C513 C516 1.431 . S
C513 C533 1.449 . S
C514 C513 1.258 . S
C514 C515 1.477 . S
C514 H534 0.931 . S
C515 C511 1.460 . S
C515 C514 1.477 . S
C515 H535 0.930 . S
C516 N512 1.362 . S
C516 C513 1.431 . S
C516 C526 1.476 . S
H517 C511 0.929 . S
C518 O509 1.250 . S
C518 O510 1.258 . S
O519 Mn504 2.162 . S
O519 C507 1.281 . S
O520 Mn504 2.297 . S
O520 C507 1.236 . S
N521 Mn505 2.282 . S
N521 C522 1.328 . S
N521 C526 1.318 . S
C522 N521 1.328 . S
C522 C523 1.457 . S
C522 H527 0.929 . S
C523 C522 1.457 . S
C523 C524 1.291 . S
C523 H536 0.931 . S
C524 C523 1.291 . S
C524 C525 1.373 . S
C524 H537 0.929 . S
C525 C524 1.373 . S
C525 C526 1.396 . S
C525 C532 1.403 . S
C526 C516 1.476 . S
C526 N521 1.318 . S
C526 C525 1.396 . S
H527 C522 0.929 . S
O528 Mn504 2.385 . S
O528 C506 1.234 . S
O529 Mn504 2.209 . S
O529 Mn505 2.215 . S
O529 C506 1.283 . S
O530 Mn504 2.094 . S
O530 C508 1.240 . S
O531 Mn505 2.117 . S
O531 C508 1.264 . S
C532 C525 1.403 . S
C532 C533 1.399 . S
C532 H538 0.929 . S
C533 C513 1.449 . S
C533 C532 1.399 . S
C533 H539 0.930 . S
H534 C514 0.931 . S
H535 C515 0.930 . S
H536 C523 0.931 . S
H537 C524 0.929 . S
H538 C532 0.929 . S
H539 C533 0.930 . S
Mn540 O545 2.095 . S
Mn540 O555 2.162 . S
Mn540 O556 2.297 . S
Mn540 O564 2.385 . S
Mn540 O565 2.209 . S
Mn540 O566 2.094 . S
Mn541 O546 2.121 . S
Mn541 N548 2.257 . S
Mn541 N557 2.282 . S
Mn541 O565 2.215 . S
Mn541 O567 2.117 . S
C542 O564 1.234 . S
C542 O565 1.283 . S
C543 O555 1.281 . S
C543 O556 1.236 . S
C544 O566 1.240 . S
C544 O567 1.264 . S
O545 Mn540 2.095 . S
O545 C554 1.250 . S
O546 Mn541 2.121 . S
O546 C554 1.258 . S
C547 N548 1.326 . S
C547 C551 1.460 . S
C547 H553 0.929 . S
N548 Mn541 2.257 . S
N548 C547 1.326 . S
N548 C552 1.362 . S
C549 C550 1.258 . S
C549 C552 1.431 . S
C549 C569 1.449 . S
C550 C549 1.258 . S
C550 C551 1.477 . S
C550 H570 0.931 . S
C551 C547 1.460 . S
C551 C550 1.477 . S
C551 H571 0.930 . S
C552 N548 1.362 . S
C552 C549 1.431 . S
C552 C562 1.476 . S
H553 C547 0.929 . S
C554 O545 1.250 . S
C554 O546 1.258 . S
O555 Mn540 2.162 . S
O555 C543 1.281 . S
O556 Mn540 2.297 . S
O556 C543 1.236 . S
N557 Mn541 2.282 . S
N557 C558 1.328 . S
N557 C562 1.318 . S
C558 N557 1.328 . S
C558 C559 1.457 . S
C558 H563 0.929 . S
C559 C558 1.457 . S
C559 C560 1.291 . S
C559 H572 0.931 . S
C560 C559 1.291 . S
C560 C561 1.373 . S
C560 H573 0.929 . S
C561 C560 1.373 . S
C561 C562 1.396 . S
C561 C568 1.403 . S
C562 C552 1.476 . S
C562 N557 1.318 . S
C562 C561 1.396 . S
H563 C558 0.929 . S
O564 Mn540 2.385 . S
O564 C542 1.234 . S
O565 Mn540 2.209 . S
O565 Mn541 2.215 . S
O565 C542 1.283 . S
O566 Mn540 2.094 . S
O566 C544 1.240 . S
O567 Mn541 2.117 . S
O567 C544 1.264 . S
C568 C561 1.403 . S
C568 C569 1.399 . S
C568 H574 0.929 . S
C569 C549 1.449 . S
C569 C568 1.399 . S
C569 H575 0.930 . S
H570 C550 0.931 . S
H571 C551 0.930 . S
H572 C559 0.931 . S
H573 C560 0.929 . S
H574 C568 0.929 . S
H575 C569 0.930 . S
Mn576 O581 2.095 . S
Mn576 O591 2.162 . S
Mn576 O592 2.297 . S
Mn576 O600 2.385 1_545 S
Mn576 O601 2.209 1_545 S
Mn576 O602 2.094 . S
Mn577 O582 2.121 . S
Mn577 N584 2.257 1_545 S
Mn577 N593 2.282 1_545 S
Mn577 O601 2.215 1_545 S
Mn577 O603 2.117 . S
C578 O600 1.234 . S
C578 O601 1.283 . S
C579 O591 1.281 . S
C579 O592 1.236 . S
C580 O602 1.240 . S
C580 O603 1.264 . S
O581 Mn576 2.095 . S
O581 C590 1.250 . S
O582 Mn577 2.121 . S
O582 C590 1.258 . S
C583 N584 1.326 1_545 S
C583 C587 1.460 1_545 S
C583 H589 0.929 . S
N584 Mn577 2.257 1_565 S
N584 C583 1.326 1_565 S
N584 C588 1.362 . S
C585 C586 1.258 . S
C585 C588 1.431 . S
C585 C605 1.449 . S
C586 C585 1.258 . S
C586 C587 1.477 . S
C586 H606 0.931 . S
C587 C583 1.460 1_565 S
C587 C586 1.477 . S
C587 H607 0.930 1_565 S
C588 N584 1.362 . S
C588 C585 1.431 . S
C588 C598 1.476 . S
H589 C583 0.929 . S
C590 O581 1.250 . S
C590 O582 1.258 . S
O591 Mn576 2.162 . S
O591 C579 1.281 . S
O592 Mn576 2.297 . S
O592 C579 1.236 . S
N593 Mn577 2.282 1_565 S
N593 C594 1.328 . S
N593 C598 1.318 . S
C594 N593 1.328 . S
C594 C595 1.457 . S
C594 H599 0.929 . S
C595 C594 1.457 . S
C595 C596 1.291 . S
C595 H608 0.931 . S
C596 C595 1.291 . S
C596 C597 1.373 . S
C596 H609 0.929 . S
C597 C596 1.373 . S
C597 C598 1.396 . S
C597 C604 1.403 . S
C598 C588 1.476 . S
C598 N593 1.318 . S
C598 C597 1.396 . S
H599 C594 0.929 . S
O600 Mn576 2.385 1_565 S
O600 C578 1.234 . S
O601 Mn576 2.209 1_565 S
O601 Mn577 2.215 1_565 S
O601 C578 1.283 . S
O602 Mn576 2.094 . S
O602 C580 1.240 . S
O603 Mn577 2.117 . S
O603 C580 1.264 . S
C604 C597 1.403 . S
C604 C605 1.399 . S
C604 H610 0.929 . S
C605 C585 1.449 . S
C605 C604 1.399 . S
C605 H611 0.930 . S
H606 C586 0.931 . S
H607 C587 0.930 1_545 S
H608 C595 0.931 . S
H609 C596 0.929 . S
H610 C604 0.929 . S
H611 C605 0.930 . S
Mn612 O617 2.095 . S
Mn612 O627 2.162 . S
Mn612 O628 2.297 . S
Mn612 O636 2.385 . S
Mn612 O637 2.209 . S
Mn612 O638 2.094 . S
Mn613 O618 2.121 . S
Mn613 N620 2.257 . S
Mn613 N629 2.282 . S
Mn613 O637 2.215 . S
Mn613 O639 2.117 . S
C614 O636 1.234 . S
C614 O637 1.283 . S
C615 O627 1.281 . S
C615 O628 1.236 . S
C616 O638 1.240 . S
C616 O639 1.264 . S
O617 Mn612 2.095 . S
O617 C626 1.250 . S
O618 Mn613 2.121 . S
O618 C626 1.258 . S
C619 N620 1.326 . S
C619 C623 1.460 . S
C619 H625 0.929 . S
N620 Mn613 2.257 . S
N620 C619 1.326 . S
N620 C624 1.362 . S
C621 C622 1.258 . S
C621 C624 1.431 . S
C621 C641 1.449 . S
C622 C621 1.258 . S
C622 C623 1.477 . S
C622 H642 0.931 . S
C623 C619 1.460 . S
C623 C622 1.477 . S
C623 H643 0.930 . S
C624 N620 1.362 . S
C624 C621 1.431 . S
C624 C634 1.476 . S
H625 C619 0.929 . S
C626 O617 1.250 . S
C626 O618 1.258 . S
O627 Mn612 2.162 . S
O627 C615 1.281 . S
O628 Mn612 2.297 . S
O628 C615 1.236 . S
N629 Mn613 2.282 . S
N629 C630 1.328 . S
N629 C634 1.318 . S
C630 N629 1.328 . S
C630 C631 1.457 . S
C630 H635 0.929 . S
C631 C630 1.457 . S
C631 C632 1.291 . S
C631 H644 0.931 . S
C632 C631 1.291 . S
C632 C633 1.373 . S
C632 H645 0.929 . S
C633 C632 1.373 . S
C633 C634 1.396 . S
C633 C640 1.403 . S
C634 C624 1.476 . S
C634 N629 1.318 . S
C634 C633 1.396 . S
H635 C630 0.929 . S
O636 Mn612 2.385 . S
O636 C614 1.234 . S
O637 Mn612 2.209 . S
O637 Mn613 2.215 . S
O637 C614 1.283 . S
O638 Mn612 2.094 . S
O638 C616 1.240 . S
O639 Mn613 2.117 . S
O639 C616 1.264 . S
C640 C633 1.403 . S
C640 C641 1.399 . S
C640 H646 0.929 . S
C641 C621 1.449 . S
C641 C640 1.399 . S
C641 H647 0.930 . S
H642 C622 0.931 . S
H643 C623 0.930 . S
H644 C631 0.931 . S
H645 C632 0.929 . S
H646 C640 0.929 . S
H647 C641 0.930 . S
Mn648 O653 2.095 . S
Mn648 O663 2.162 . S
Mn648 O664 2.297 . S
Mn648 O672 2.385 . S
Mn648 O673 2.209 . S
Mn648 O674 2.094 . S
Mn649 O654 2.121 . S
Mn649 N656 2.257 . S
Mn649 N665 2.282 . S
Mn649 O673 2.215 . S
Mn649 O675 2.117 . S
C650 O672 1.234 . S
C650 O673 1.283 . S
C651 O663 1.281 . S
C651 O664 1.236 . S
C652 O674 1.240 . S
C652 O675 1.264 . S
O653 Mn648 2.095 . S
O653 C662 1.250 . S
O654 Mn649 2.121 . S
O654 C662 1.258 . S
C655 N656 1.326 . S
C655 C659 1.460 . S
C655 H661 0.929 . S
N656 Mn649 2.257 . S
N656 C655 1.326 . S
N656 C660 1.362 . S
C657 C658 1.258 . S
C657 C660 1.431 . S
C657 C677 1.449 . S
C658 C657 1.258 . S
C658 C659 1.477 . S
C658 H678 0.931 . S
C659 C655 1.460 . S
C659 C658 1.477 . S
C659 H679 0.930 . S
C660 N656 1.362 . S
C660 C657 1.431 . S
C660 C670 1.476 . S
H661 C655 0.929 . S
C662 O653 1.250 . S
C662 O654 1.258 . S
O663 Mn648 2.162 . S
O663 C651 1.281 . S
O664 Mn648 2.297 . S
O664 C651 1.236 . S
N665 Mn649 2.282 . S
N665 C666 1.328 . S
N665 C670 1.318 . S
C666 N665 1.328 . S
C666 C667 1.457 . S
C666 H671 0.929 . S
C667 C666 1.457 . S
C667 C668 1.291 . S
C667 H680 0.931 . S
C668 C667 1.291 . S
C668 C669 1.373 . S
C668 H681 0.929 . S
C669 C668 1.373 . S
C669 C670 1.396 . S
C669 C676 1.403 . S
C670 C660 1.476 . S
C670 N665 1.318 . S
C670 C669 1.396 . S
H671 C666 0.929 . S
O672 Mn648 2.385 . S
O672 C650 1.234 . S
O673 Mn648 2.209 . S
O673 Mn649 2.215 . S
O673 C650 1.283 . S
O674 Mn648 2.094 . S
O674 C652 1.240 . S
O675 Mn649 2.117 . S
O675 C652 1.264 . S
C676 C669 1.403 . S
C676 C677 1.399 . S
C676 H682 0.929 . S
C677 C657 1.449 . S
C677 C676 1.399 . S
C677 H683 0.930 . S
H678 C658 0.931 . S
H679 C659 0.930 . S
H680 C667 0.931 . S
H681 C668 0.929 . S
H682 C676 0.929 . S
H683 C677 0.930 . S
Mn684 O689 2.095 . S
Mn684 O699 2.162 . S
Mn684 O700 2.297 . S
Mn684 O708 2.385 . S
Mn684 O709 2.209 . S
Mn684 O710 2.094 . S
Mn685 O690 2.121 . S
Mn685 N692 2.257 . S
Mn685 N701 2.282 . S
Mn685 O709 2.215 . S
Mn685 O711 2.117 . S
C686 O708 1.234 . S
C686 O709 1.283 . S
C687 O699 1.281 . S
C687 O700 1.236 . S
C688 O710 1.240 . S
C688 O711 1.264 . S
O689 Mn684 2.095 . S
O689 C698 1.250 . S
O690 Mn685 2.121 . S
O690 C698 1.258 . S
C691 N692 1.326 . S
C691 C695 1.460 . S
C691 H697 0.929 . S
N692 Mn685 2.257 . S
N692 C691 1.326 . S
N692 C696 1.362 . S
C693 C694 1.258 . S
C693 C696 1.431 . S
C693 C713 1.449 . S
C694 C693 1.258 . S
C694 C695 1.477 . S
C694 H714 0.931 . S
C695 C691 1.460 . S
C695 C694 1.477 . S
C695 H715 0.930 . S
C696 N692 1.362 . S
C696 C693 1.431 . S
C696 C706 1.476 . S
H697 C691 0.929 . S
C698 O689 1.250 . S
C698 O690 1.258 . S
O699 Mn684 2.162 . S
O699 C687 1.281 . S
O700 Mn684 2.297 . S
O700 C687 1.236 . S
N701 Mn685 2.282 . S
N701 C702 1.328 . S
N701 C706 1.318 . S
C702 N701 1.328 . S
C702 C703 1.457 . S
C702 H707 0.929 . S
C703 C702 1.457 . S
C703 C704 1.291 . S
C703 H716 0.931 . S
C704 C703 1.291 . S
C704 C705 1.373 . S
C704 H717 0.929 . S
C705 C704 1.373 . S
C705 C706 1.396 . S
C705 C712 1.403 . S
C706 C696 1.476 . S
C706 N701 1.318 . S
C706 C705 1.396 . S
H707 C702 0.929 . S
O708 Mn684 2.385 . S
O708 C686 1.234 . S
O709 Mn684 2.209 . S
O709 Mn685 2.215 . S
O709 C686 1.283 . S
O710 Mn684 2.094 . S
O710 C688 1.240 . S
O711 Mn685 2.117 . S
O711 C688 1.264 . S
C712 C705 1.403 . S
C712 C713 1.399 . S
C712 H718 0.929 . S
C713 C693 1.449 . S
C713 C712 1.399 . S
C713 H719 0.930 . S
H714 C694 0.931 . S
H715 C695 0.930 . S
H716 C703 0.931 . S
H717 C704 0.929 . S
H718 C712 0.929 . S
H719 C713 0.930 . S
Mn720 O725 2.095 . S
Mn720 O735 2.162 . S
Mn720 O736 2.297 . S
Mn720 O744 2.385 . S
Mn720 O745 2.209 . S
Mn720 O746 2.094 1_554 S
Mn721 O726 2.121 . S
Mn721 N728 2.257 . S
Mn721 N737 2.282 . S
Mn721 O745 2.215 1_556 S
Mn721 O747 2.117 . S
C722 O744 1.234 . S
C722 O745 1.283 . S
C723 O735 1.281 . S
C723 O736 1.236 . S
C724 O746 1.240 . S
C724 O747 1.264 . S
O725 Mn720 2.095 . S
O725 C734 1.250 . S
O726 Mn721 2.121 . S
O726 C734 1.258 1_556 S
C727 N728 1.326 . S
C727 C731 1.460 . S
C727 H733 0.929 . S
N728 Mn721 2.257 . S
N728 C727 1.326 . S
N728 C732 1.362 . S
C729 C730 1.258 . S
C729 C732 1.431 . S
C729 C749 1.449 . S
C730 C729 1.258 . S
C730 C731 1.477 . S
C730 H750 0.931 . S
C731 C727 1.460 . S
C731 C730 1.477 . S
C731 H751 0.930 . S
C732 N728 1.362 . S
C732 C729 1.431 . S
C732 C742 1.476 . S
H733 C727 0.929 . S
C734 O725 1.250 . S
C734 O726 1.258 1_554 S
O735 Mn720 2.162 . S
O735 C723 1.281 . S
O736 Mn720 2.297 . S
O736 C723 1.236 . S
N737 Mn721 2.282 . S
N737 C738 1.328 . S
N737 C742 1.318 . S
C738 N737 1.328 . S
C738 C739 1.457 . S
C738 H743 0.929 . S
C739 C738 1.457 . S
C739 C740 1.291 . S
C739 H752 0.931 . S
C740 C739 1.291 . S
C740 C741 1.373 . S
C740 H753 0.929 . S
C741 C740 1.373 . S
C741 C742 1.396 . S
C741 C748 1.403 . S
C742 C732 1.476 . S
C742 N737 1.318 . S
C742 C741 1.396 . S
H743 C738 0.929 . S
O744 Mn720 2.385 . S
O744 C722 1.234 . S
O745 Mn720 2.209 . S
O745 Mn721 2.215 1_554 S
O745 C722 1.283 . S
O746 Mn720 2.094 1_556 S
O746 C724 1.240 . S
O747 Mn721 2.117 . S
O747 C724 1.264 . S
C748 C741 1.403 . S
C748 C749 1.399 . S
C748 H754 0.929 . S
C749 C729 1.449 . S
C749 C748 1.399 . S
C749 H755 0.930 . S
H750 C730 0.931 . S
H751 C731 0.930 . S
H752 C739 0.931 . S
H753 C740 0.929 . S
H754 C748 0.929 . S
H755 C749 0.930 . S
Mn756 O761 2.095 . S
Mn756 O771 2.162 . S
Mn756 O772 2.297 . S
Mn756 O780 2.385 . S
Mn756 O781 2.209 . S
Mn756 O782 2.094 . S
Mn757 O762 2.121 . S
Mn757 N764 2.257 . S
Mn757 N773 2.282 . S
Mn757 O781 2.215 . S
Mn757 O783 2.117 . S
C758 O780 1.234 . S
C758 O781 1.283 . S
C759 O771 1.281 . S
C759 O772 1.236 . S
C760 O782 1.240 . S
C760 O783 1.264 . S
O761 Mn756 2.095 . S
O761 C770 1.250 . S
O762 Mn757 2.121 . S
O762 C770 1.258 . S
C763 N764 1.326 . S
C763 C767 1.460 . S
C763 H769 0.929 . S
N764 Mn757 2.257 . S
N764 C763 1.326 . S
N764 C768 1.362 . S
C765 C766 1.258 . S
C765 C768 1.431 . S
C765 C785 1.449 . S
C766 C765 1.258 . S
C766 C767 1.477 . S
C766 H786 0.931 . S
C767 C763 1.460 . S
C767 C766 1.477 . S
C767 H787 0.930 . S
C768 N764 1.362 . S
C768 C765 1.431 . S
C768 C778 1.476 . S
H769 C763 0.929 . S
C770 O761 1.250 . S
C770 O762 1.258 . S
O771 Mn756 2.162 . S
O771 C759 1.281 . S
O772 Mn756 2.297 . S
O772 C759 1.236 . S
N773 Mn757 2.282 . S
N773 C774 1.328 . S
N773 C778 1.318 . S
C774 N773 1.328 . S
C774 C775 1.457 . S
C774 H779 0.929 . S
C775 C774 1.457 . S
C775 C776 1.291 . S
C775 H788 0.931 . S
C776 C775 1.291 . S
C776 C777 1.373 . S
C776 H789 0.929 . S
C777 C776 1.373 . S
C777 C778 1.396 . S
C777 C784 1.403 . S
C778 C768 1.476 . S
C778 N773 1.318 . S
C778 C777 1.396 . S
H779 C774 0.929 . S
O780 Mn756 2.385 . S
O780 C758 1.234 . S
O781 Mn756 2.209 . S
O781 Mn757 2.215 . S
O781 C758 1.283 . S
O782 Mn756 2.094 . S
O782 C760 1.240 . S
O783 Mn757 2.117 . S
O783 C760 1.264 . S
C784 C777 1.403 . S
C784 C785 1.399 . S
C784 H790 0.929 . S
C785 C765 1.449 . S
C785 C784 1.399 . S
C785 H791 0.930 . S
H786 C766 0.931 . S
H787 C767 0.930 . S
H788 C775 0.931 . S
H789 C776 0.929 . S
H790 C784 0.929 . S
H791 C785 0.930 . S
Mn792 O797 2.095 . S
Mn792 O807 2.162 . S
Mn792 O808 2.297 . S
Mn792 O816 2.385 . S
Mn792 O817 2.209 . S
Mn792 O818 2.094 . S
Mn793 O798 2.121 . S
Mn793 N800 2.257 . S
Mn793 N809 2.282 . S
Mn793 O817 2.215 . S
Mn793 O819 2.117 . S
C794 O816 1.234 . S
C794 O817 1.283 . S
C795 O807 1.281 . S
C795 O808 1.236 . S
C796 O818 1.240 . S
C796 O819 1.264 . S
O797 Mn792 2.095 . S
O797 C806 1.250 . S
O798 Mn793 2.121 . S
O798 C806 1.258 . S
C799 N800 1.326 . S
C799 C803 1.460 . S
C799 H805 0.929 . S
N800 Mn793 2.257 . S
N800 C799 1.326 . S
N800 C804 1.362 . S
C801 C802 1.258 . S
C801 C804 1.431 . S
C801 C821 1.449 . S
C802 C801 1.258 . S
C802 C803 1.477 . S
C802 H822 0.931 . S
C803 C799 1.460 . S
C803 C802 1.477 . S
C803 H823 0.930 . S
C804 N800 1.362 . S
C804 C801 1.431 . S
C804 C814 1.476 . S
H805 C799 0.929 . S
C806 O797 1.250 . S
C806 O798 1.258 . S
O807 Mn792 2.162 . S
O807 C795 1.281 . S
O808 Mn792 2.297 . S
O808 C795 1.236 . S
N809 Mn793 2.282 . S
N809 C810 1.328 . S
N809 C814 1.318 . S
C810 N809 1.328 . S
C810 C811 1.457 . S
C810 H815 0.929 . S
C811 C810 1.457 . S
C811 C812 1.291 . S
C811 H824 0.931 . S
C812 C811 1.291 . S
C812 C813 1.373 . S
C812 H825 0.929 . S
C813 C812 1.373 . S
C813 C814 1.396 . S
C813 C820 1.403 . S
C814 C804 1.476 . S
C814 N809 1.318 . S
C814 C813 1.396 . S
H815 C810 0.929 . S
O816 Mn792 2.385 . S
O816 C794 1.234 . S
O817 Mn792 2.209 . S
O817 Mn793 2.215 . S
O817 C794 1.283 . S
O818 Mn792 2.094 . S
O818 C796 1.240 . S
O819 Mn793 2.117 . S
O819 C796 1.264 . S
C820 C813 1.403 . S
C820 C821 1.399 . S
C820 H826 0.929 . S
C821 C801 1.449 . S
C821 C820 1.399 . S
C821 H827 0.930 . S
H822 C802 0.931 . S
H823 C803 0.930 . S
H824 C811 0.931 . S
H825 C812 0.929 . S
H826 C820 0.929 . S
H827 C821 0.930 . S
Mn828 O833 2.095 . S
Mn828 O843 2.162 . S
Mn828 O844 2.297 . S
Mn828 O852 2.385 . S
Mn828 O853 2.209 . S
Mn828 O854 2.094 . S
Mn829 O834 2.121 . S
Mn829 N836 2.257 . S
Mn829 N845 2.282 . S
Mn829 O853 2.215 . S
Mn829 O855 2.117 . S
C830 O852 1.234 . S
C830 O853 1.283 . S
C831 O843 1.281 . S
C831 O844 1.236 . S
C832 O854 1.240 . S
C832 O855 1.264 . S
O833 Mn828 2.095 . S
O833 C842 1.250 . S
O834 Mn829 2.121 . S
O834 C842 1.258 . S
C835 N836 1.326 . S
C835 C839 1.460 . S
C835 H841 0.929 . S
N836 Mn829 2.257 . S
N836 C835 1.326 . S
N836 C840 1.362 . S
C837 C838 1.258 . S
C837 C840 1.431 . S
C837 C857 1.449 . S
C838 C837 1.258 . S
C838 C839 1.477 . S
C838 H858 0.931 . S
C839 C835 1.460 . S
C839 C838 1.477 . S
C839 H859 0.930 . S
C840 N836 1.362 . S
C840 C837 1.431 . S
C840 C850 1.476 . S
H841 C835 0.929 . S
C842 O833 1.250 . S
C842 O834 1.258 . S
O843 Mn828 2.162 . S
O843 C831 1.281 . S
O844 Mn828 2.297 . S
O844 C831 1.236 . S
N845 Mn829 2.282 . S
N845 C846 1.328 . S
N845 C850 1.318 . S
C846 N845 1.328 . S
C846 C847 1.457 . S
C846 H851 0.929 . S
C847 C846 1.457 . S
C847 C848 1.291 . S
C847 H860 0.931 . S
C848 C847 1.291 . S
C848 C849 1.373 . S
C848 H861 0.929 . S
C849 C848 1.373 . S
C849 C850 1.396 . S
C849 C856 1.403 . S
C850 C840 1.476 . S
C850 N845 1.318 . S
C850 C849 1.396 . S
H851 C846 0.929 . S
O852 Mn828 2.385 . S
O852 C830 1.234 . S
O853 Mn828 2.209 . S
O853 Mn829 2.215 . S
O853 C830 1.283 . S
O854 Mn828 2.094 . S
O854 C832 1.240 . S
O855 Mn829 2.117 . S
O855 C832 1.264 . S
C856 C849 1.403 . S
C856 C857 1.399 . S
C856 H862 0.929 . S
C857 C837 1.449 . S
C857 C856 1.399 . S
C857 H863 0.930 . S
H858 C838 0.931 . S
H859 C839 0.930 . S
H860 C847 0.931 . S
H861 C848 0.929 . S
H862 C856 0.929 . S
H863 C857 0.930 . S
Tb864 N893 2.617 . S
Tb864 N899 2.572 . S
Tb864 O908 2.465 . S
Tb864 O909 2.387 . S
Tb864 O911 2.428 . S
Tb864 O912 2.358 . S
Tb864 O916 2.349 1_545 S
Tb864 O919 2.393 . S
Tb864 C928 2.802 . S
C865 N866 1.379 . S
C865 C868 1.416 . S
C865 C872 1.424 1_556 S
N866 C865 1.379 . S
N866 C869 1.334 . S
N866 Tb875 2.617 1_566 S
C867 C869 1.390 . S
C867 C870 1.339 . S
C867 H887 0.930 . S
C868 C865 1.416 . S
C868 C870 1.416 . S
C868 C874 1.448 . S
C869 N866 1.334 . S
C869 C867 1.390 . S
C869 H880 0.930 . S
C870 C867 1.339 . S
C870 C868 1.416 . S
C870 H891 0.930 . S
C871 C872 1.413 . S
C871 C873 1.427 1_554 S
C871 C877 1.416 . S
C872 C865 1.424 1_554 S
C872 C871 1.413 . S
C872 N876 1.361 . S
C873 C871 1.427 1_556 S
C873 C874 1.328 . S
C873 H888 0.929 . S
C874 C868 1.448 . S
C874 C873 1.328 . S
C874 H889 0.930 . S
Tb875 N866 2.617 1_544 S
Tb875 N876 2.572 1_545 S
Tb875 O910 2.349 1_655 S
Tb875 O913 2.393 1_654 S
Tb875 O914 2.465 . S
Tb875 O915 2.387 1_645 S
Tb875 O917 2.428 1_554 S
Tb875 O918 2.308 1_655 S
Tb875 C939 2.801 1_554 S
N876 C872 1.361 . S
N876 Tb875 2.572 1_565 S
N876 C878 1.340 . S
C877 C871 1.416 . S
C877 C879 1.332 . S
C877 H885 0.931 . S
C878 N876 1.340 . S
C878 C879 1.407 . S
C878 H884 0.930 . S
C879 C877 1.332 . S
C879 C878 1.407 . S
C879 H881 0.929 . S
H880 C869 0.930 . S
H881 C879 0.929 . S
H882 C897 0.930 . S
H883 C904 0.929 . S
H884 C878 0.930 . S
H885 C877 0.931 . S
H886 C900 0.930 1_556 S
H887 C867 0.930 . S
H888 C873 0.929 . S
H889 C874 0.930 . S
H890 C895 0.930 . S
H891 C870 0.930 . S
H892 C903 0.931 . S
N893 Tb864 2.617 . S
N893 C894 1.379 . S
N893 C897 1.334 . S
C894 N893 1.379 . S
C894 C896 1.416 . S
C894 C902 1.424 . S
C895 H890 0.930 . S
C895 C897 1.390 . S
C895 C898 1.339 . S
C896 C894 1.416 . S
C896 C898 1.416 . S
C896 C929 1.448 . S
C897 H882 0.930 . S
C897 N893 1.334 . S
C897 C895 1.390 . S
C898 C895 1.339 . S
C898 C896 1.416 . S
C898 H905 0.930 . S
N899 Tb864 2.572 . S
N899 C900 1.340 . S
N899 C902 1.361 . S
C900 H886 0.930 1_554 S
C900 N899 1.340 . S
C900 C904 1.407 1_554 S
C901 C902 1.413 . S
C901 C903 1.416 . S
C901 C930 1.427 . S
C902 C894 1.424 . S
C902 N899 1.361 . S
C902 C901 1.413 . S
C903 H892 0.931 . S
C903 C901 1.416 . S
C903 C904 1.332 1_554 S
C904 H883 0.929 . S
C904 C900 1.407 1_556 S
C904 C903 1.332 1_556 S
H905 C898 0.930 . S
H906 C929 0.930 . S
H907 C930 0.929 . S
O908 Tb864 2.465 . S
O908 C928 1.264 . S
O909 Tb864 2.387 . S
O909 C920 1.264 . S
O910 Tb875 2.349 1_455 S
O910 C920 1.243 . S
O911 Tb864 2.428 . S
O911 C928 1.256 . S
O912 Tb864 2.358 . S
O912 C927 1.223 1_554 S
O913 Tb875 2.393 1_456 S
O913 C927 1.248 . S
O914 Tb875 2.465 . S
O914 C939 1.256 1_554 S
O915 Tb875 2.387 1_465 S
O915 C931 1.264 . S
O916 Tb864 2.349 1_565 S
O916 C931 1.243 . S
O917 Tb875 2.428 1_556 S
O917 C939 1.263 . S
O918 Tb875 2.308 1_455 S
O918 C938 1.266 . S
O919 Tb864 2.393 . S
O919 C938 1.248 . S
C920 O909 1.264 . S
C920 O910 1.243 . S
C921 C924 1.399 . S
C921 C926 1.401 . S
C921 C928 1.496 . S
C922 C923 1.399 . S
C922 C926 1.367 1_565 S
C923 C922 1.399 . S
C923 C925 1.380 1_565 S
C923 H940 0.929 . S
C924 C921 1.399 . S
C924 C925 1.392 . S
C924 H941 0.929 . S
C925 C923 1.380 1_545 S
C925 C924 1.392 . S
C925 H942 0.929 . S
C926 C921 1.401 . S
C926 C922 1.367 1_545 S
C926 H943 0.936 . S
C927 O912 1.223 1_556 S
C927 O913 1.248 . S
C928 Tb864 2.802 . S
C928 O908 1.264 . S
C928 O911 1.256 . S
C928 C921 1.496 . S
C929 C896 1.448 . S
C929 H906 0.930 . S
C929 C930 1.328 . S
C930 C901 1.427 . S
C930 H907 0.929 . S
C930 C929 1.328 . S
C931 O915 1.264 . S
C931 O916 1.243 . S
C932 C935 1.399 . S
C932 C936 1.383 1_556 S
C932 C939 1.497 . S
C933 C934 1.399 1_554 S
C933 C936 1.389 . S
C934 C933 1.399 1_556 S
C934 C937 1.380 . S
C934 H944 0.929 . S
C935 C932 1.399 . S
C935 C937 1.392 . S
C935 H945 0.929 . S
C936 C932 1.383 1_554 S
C936 C933 1.389 . S
C936 H946 0.931 . S
C937 C934 1.380 . S
C937 C935 1.392 . S
C937 H947 0.929 . S
C938 O918 1.266 . S
C938 O919 1.248 . S
C939 Tb875 2.801 1_556 S
C939 O914 1.256 1_556 S
C939 O917 1.263 . S
C939 C932 1.497 . S
H940 C923 0.929 . S
H941 C924 0.929 . S
H942 C925 0.929 . S
H943 C926 0.936 . S
H944 C934 0.929 . S
H945 C935 0.929 . S
H946 C936 0.931 . S
H947 C937 0.929 . S
Tb948 N977 2.617 . S
Tb948 N983 2.572 . S
Tb948 O992 2.465 . S
Tb948 O993 2.387 . S
Tb948 O995 2.428 . S
Tb948 O996 2.308 . S
Tb948 O1000 2.349 . S
Tb948 O1003 2.393 . S
Tb948 C1012 2.802 . S
C949 N950 1.379 . S
C949 C952 1.416 . S
C949 C956 1.424 . S
N950 C949 1.379 . S
N950 C953 1.334 . S
N950 Tb959 2.617 . S
C951 C953 1.390 . S
C951 C954 1.339 . S
C951 H971 0.930 . S
C952 C949 1.416 . S
C952 C954 1.416 . S
C952 C958 1.448 . S
C953 N950 1.334 . S
C953 C951 1.390 . S
C953 H964 0.930 . S
C954 C951 1.339 . S
C954 C952 1.416 . S
C954 H975 0.930 . S
C955 C956 1.413 . S
C955 C957 1.427 . S
C955 C961 1.416 . S
C956 C949 1.424 . S
C956 C955 1.413 . S
C956 N960 1.361 . S
C957 C955 1.427 . S
C957 C958 1.328 . S
C957 H972 0.929 . S
C958 C952 1.448 . S
C958 C957 1.328 . S
C958 H973 0.930 . S
Tb959 N950 2.617 . S
Tb959 N960 2.572 . S
Tb959 O994 2.349 . S
Tb959 O997 2.393 . S
Tb959 O998 2.465 . S
Tb959 O999 2.387 . S
Tb959 O1001 2.428 . S
Tb959 O1002 2.308 . S
Tb959 C1023 2.802 . S
N960 C956 1.361 . S
N960 Tb959 2.572 . S
N960 C962 1.340 . S
C961 C955 1.416 . S
C961 C963 1.332 . S
C961 H969 0.931 . S
C962 N960 1.340 . S
C962 C963 1.407 . S
C962 H968 0.930 . S
C963 C961 1.332 . S
C963 C962 1.407 . S
C963 H965 0.929 . S
H964 C953 0.930 . S
H965 C963 0.929 . S
H966 C981 0.930 . S
H967 C988 0.929 . S
H968 C962 0.930 . S
H969 C961 0.931 . S
H970 C984 0.930 . S
H971 C951 0.930 . S
H972 C957 0.929 . S
H973 C958 0.930 . S
H974 C979 0.930 . S
H975 C954 0.930 . S
H976 C987 0.931 . S
N977 Tb948 2.617 . S
N977 C978 1.379 . S
N977 C981 1.334 . S
C978 N977 1.379 . S
C978 C980 1.416 . S
C978 C986 1.424 . S
C979 H974 0.930 . S
C979 C981 1.390 . S
C979 C982 1.339 . S
C980 C978 1.416 . S
C980 C982 1.416 . S
C980 C1013 1.448 . S
C981 H966 0.930 . S
C981 N977 1.334 . S
C981 C979 1.390 . S
C982 C979 1.339 . S
C982 C980 1.416 . S
C982 H989 0.930 . S
N983 Tb948 2.572 . S
N983 C984 1.340 . S
N983 C986 1.361 . S
C984 H970 0.930 . S
C984 N983 1.340 . S
C984 C988 1.407 . S
C985 C986 1.413 . S
C985 C987 1.416 . S
C985 C1014 1.427 . S
C986 C978 1.424 . S
C986 N983 1.361 . S
C986 C985 1.413 . S
C987 H976 0.931 . S
C987 C985 1.416 . S
C987 C988 1.332 . S
C988 H967 0.929 . S
C988 C984 1.407 . S
C988 C987 1.332 . S
H989 C982 0.930 . S
H990 C1013 0.930 . S
H991 C1014 0.929 . S
O992 Tb948 2.465 . S
O992 C1012 1.264 . S
O993 Tb948 2.387 . S
O993 C1004 1.264 . S
O994 Tb959 2.349 . S
O994 C1004 1.243 . S
O995 Tb948 2.428 . S
O995 C1012 1.256 . S
O996 Tb948 2.308 . S
O996 C1011 1.266 . S
O997 Tb959 2.393 . S
O997 C1011 1.248 . S
O998 Tb959 2.465 . S
O998 C1023 1.264 . S
O999 Tb959 2.387 . S
O999 C1015 1.264 . S
O1000 Tb948 2.349 . S
O1000 C1015 1.243 . S
O1001 Tb959 2.428 . S
O1001 C1023 1.256 . S
O1002 Tb959 2.308 . S
O1002 C1022 1.266 . S
O1003 Tb948 2.393 . S
O1003 C1022 1.248 . S
C1004 O993 1.264 . S
C1004 O994 1.243 . S
C1005 C1008 1.399 . S
C1005 C1010 1.383 . S
C1005 C1012 1.496 . S
C1006 C1007 1.399 . S
C1006 C1010 1.389 . S
C1007 C1006 1.399 . S
C1007 C1009 1.380 . S
C1007 H1024 0.929 . S
C1008 C1005 1.399 . S
C1008 C1009 1.392 . S
C1008 H1025 0.929 . S
C1009 C1007 1.380 . S
C1009 C1008 1.392 . S
C1009 H1026 0.929 . S
C1010 C1005 1.383 . S
C1010 C1006 1.389 . S
C1010 H1027 0.931 . S
C1011 O996 1.266 . S
C1011 O997 1.248 . S
C1012 Tb948 2.802 . S
C1012 O992 1.264 . S
C1012 O995 1.256 . S
C1012 C1005 1.496 . S
C1013 C980 1.448 . S
C1013 H990 0.930 . S
C1013 C1014 1.328 . S
C1014 C985 1.427 . S
C1014 H991 0.929 . S
C1014 C1013 1.328 . S
C1015 O999 1.264 . S
C1015 O1000 1.243 . S
C1016 C1019 1.399 . S
C1016 C1020 1.383 . S
C1016 C1023 1.496 . S
C1017 C1018 1.399 . S
C1017 C1020 1.389 . S
C1018 C1017 1.399 . S
C1018 C1021 1.380 . S
C1018 H1028 0.929 . S
C1019 C1016 1.399 . S
C1019 C1021 1.392 . S
C1019 H1029 0.929 . S
C1020 C1016 1.383 . S
C1020 C1017 1.389 . S
C1020 H1030 0.931 . S
C1021 C1018 1.380 . S
C1021 C1019 1.392 . S
C1021 H1031 0.929 . S
C1022 O1002 1.266 . S
C1022 O1003 1.248 . S
C1023 Tb959 2.802 . S
C1023 O998 1.264 . S
C1023 O1001 1.256 . S
C1023 C1016 1.496 . S
H1024 C1007 0.929 . S
H1025 C1008 0.929 . S
H1026 C1009 0.929 . S
H1027 C1010 0.931 . S
H1028 C1018 0.929 . S
H1029 C1019 0.929 . S
H1030 C1020 0.931 . S
H1031 C1021 0.929 . S
Tb1032 N1061 2.617 . S
Tb1032 N1067 2.572 1_545 S
Tb1032 O1076 2.465 . S
Tb1032 O1077 2.387 1_545 S
Tb1032 O1079 2.428 . S
Tb1032 O1080 2.308 . S
Tb1032 O1084 2.349 . S
Tb1032 O1087 2.393 . S
Tb1032 C1096 2.802 . S
C1033 N1034 1.379 . S
C1033 C1036 1.416 . S
C1033 C1040 1.424 . S
N1034 C1033 1.379 . S
N1034 C1037 1.334 . S
N1034 Tb1043 2.617 . S
C1035 C1037 1.390 . S
C1035 C1038 1.339 . S
C1035 H1055 0.930 . S
C1036 C1033 1.416 . S
C1036 C1038 1.416 . S
C1036 C1042 1.448 . S
C1037 N1034 1.334 . S
C1037 C1035 1.390 . S
C1037 H1048 0.930 . S
C1038 C1035 1.339 . S
C1038 C1036 1.416 . S
C1038 H1059 0.930 . S
C1039 C1040 1.413 . S
C1039 C1041 1.427 . S
C1039 C1045 1.416 . S
C1040 C1033 1.424 . S
C1040 C1039 1.413 . S
C1040 N1044 1.361 . S
C1041 C1039 1.427 . S
C1041 C1042 1.328 . S
C1041 H1056 0.929 . S
C1042 C1036 1.448 . S
C1042 C1041 1.328 . S
C1042 H1057 0.930 . S
Tb1043 N1034 2.617 . S
Tb1043 N1044 2.572 . S
Tb1043 O1078 2.349 . S
Tb1043 O1081 2.393 . S
Tb1043 O1082 2.465 . S
Tb1043 O1083 2.387 . S
Tb1043 O1085 2.428 . S
Tb1043 O1086 2.308 . S
Tb1043 C1107 2.802 . S
N1044 C1040 1.361 . S
N1044 Tb1043 2.572 . S
N1044 C1046 1.340 . S
C1045 C1039 1.416 . S
C1045 C1047 1.332 . S
C1045 H1053 0.931 . S
C1046 N1044 1.340 . S
C1046 C1047 1.407 . S
C1046 H1052 0.930 . S
C1047 C1045 1.332 . S
C1047 C1046 1.407 . S
C1047 H1049 0.929 . S
H1048 C1037 0.930 . S
H1049 C1047 0.929 . S
H1050 C1065 0.930 . S
H1051 C1072 0.929 . S
H1052 C1046 0.930 . S
H1053 C1045 0.931 . S
H1054 C1068 0.930 1_545 S
H1055 C1035 0.930 . S
H1056 C1041 0.929 . S
H1057 C1042 0.930 . S
H1058 C1063 0.930 . S
H1059 C1038 0.930 . S
H1060 C1071 0.931 . S
N1061 Tb1032 2.617 . S
N1061 C1062 1.379 1_545 S
N1061 C1065 1.334 . S
C1062 N1061 1.379 1_565 S
C1062 C1064 1.416 . S
C1062 C1070 1.424 . S
C1063 H1058 0.930 . S
C1063 C1065 1.390 1_565 S
C1063 C1066 1.339 . S
C1064 C1062 1.416 . S
C1064 C1066 1.416 . S
C1064 C1097 1.448 . S
C1065 H1050 0.930 . S
C1065 N1061 1.334 . S
C1065 C1063 1.390 1_545 S
C1066 C1063 1.339 . S
C1066 C1064 1.416 . S
C1066 H1073 0.930 . S
N1067 Tb1032 2.572 1_565 S
N1067 C1068 1.340 . S
N1067 C1070 1.361 . S
C1068 H1054 0.930 1_565 S
C1068 N1067 1.340 . S
C1068 C1072 1.407 . S
C1069 C1070 1.413 . S
C1069 C1071 1.416 . S
C1069 C1098 1.427 . S
C1070 C1062 1.424 . S
C1070 N1067 1.361 . S
C1070 C1069 1.413 . S
C1071 H1060 0.931 . S
C1071 C1069 1.416 . S
C1071 C1072 1.332 . S
C1072 H1051 0.929 . S
C1072 C1068 1.407 . S
C1072 C1071 1.332 . S
H1073 C1066 0.930 . S
H1074 C1097 0.930 . S
H1075 C1098 0.929 . S
O1076 Tb1032 2.465 . S
O1076 C1096 1.264 . S
O1077 Tb1032 2.387 1_565 S
O1077 C1088 1.264 . S
O1078 Tb1043 2.349 . S
O1078 C1088 1.243 1_545 S
O1079 Tb1032 2.428 . S
O1079 C1096 1.256 . S
O1080 Tb1032 2.308 . S
O1080 C1095 1.266 . S
O1081 Tb1043 2.393 . S
O1081 C1095 1.248 . S
O1082 Tb1043 2.465 . S
O1082 C1107 1.264 . S
O1083 Tb1043 2.387 . S
O1083 C1099 1.264 . S
O1084 Tb1032 2.349 . S
O1084 C1099 1.243 . S
O1085 Tb1043 2.428 . S
O1085 C1107 1.256 . S
O1086 Tb1043 2.308 . S
O1086 C1106 1.266 . S
O1087 Tb1032 2.393 . S
O1087 C1106 1.248 . S
C1088 O1077 1.264 . S
C1088 O1078 1.243 1_565 S
C1089 C1092 1.399 . S
C1089 C1094 1.383 . S
C1089 C1096 1.496 . S
C1090 C1091 1.399 . S
C1090 C1094 1.389 . S
C1091 C1090 1.399 . S
C1091 C1093 1.380 . S
C1091 H1108 0.929 . S
C1092 C1089 1.399 . S
C1092 C1093 1.392 . S
C1092 H1109 0.929 . S
C1093 C1091 1.380 . S
C1093 C1092 1.392 . S
C1093 H1110 0.929 . S
C1094 C1089 1.383 . S
C1094 C1090 1.389 . S
C1094 H1111 0.931 . S
C1095 O1080 1.266 . S
C1095 O1081 1.248 . S
C1096 Tb1032 2.802 . S
C1096 O1076 1.264 . S
C1096 O1079 1.256 . S
C1096 C1089 1.496 . S
C1097 C1064 1.448 . S
C1097 H1074 0.930 . S
C1097 C1098 1.328 . S
C1098 C1069 1.427 . S
C1098 H1075 0.929 . S
C1098 C1097 1.328 . S
C1099 O1083 1.264 . S
C1099 O1084 1.243 . S
C1100 C1103 1.399 1_545 S
C1100 C1104 1.383 1_545 S
C1100 C1107 1.496 . S
C1101 C1102 1.399 . S
C1101 C1104 1.389 . S
C1102 C1101 1.399 . S
C1102 C1105 1.380 . S
C1102 H1112 0.929 . S
C1103 C1100 1.399 1_565 S
C1103 C1105 1.392 . S
C1103 H1113 0.929 1_565 S
C1104 C1100 1.383 1_565 S
C1104 C1101 1.389 . S
C1104 H1114 0.936 . S
C1105 C1102 1.380 . S
C1105 C1103 1.392 . S
C1105 H1115 0.929 . S
C1106 O1086 1.266 . S
C1106 O1087 1.248 . S
C1107 Tb1043 2.802 . S
C1107 O1082 1.264 . S
C1107 O1085 1.256 . S
C1107 C1100 1.496 . S
H1108 C1091 0.929 . S
H1109 C1092 0.929 . S
H1110 C1093 0.929 . S
H1111 C1094 0.931 . S
H1112 C1102 0.929 . S
H1113 C1103 0.929 1_545 S
H1114 C1104 0.936 . S
H1115 C1105 0.929 . S
Tb1116 N1145 2.617 . S
Tb1116 N1151 2.572 . S
Tb1116 O1160 2.465 . S
Tb1116 O1161 2.387 . S
Tb1116 O1163 2.428 . S
Tb1116 O1164 2.308 . S
Tb1116 O1168 2.349 . S
Tb1116 O1171 2.393 . S
Tb1116 C1180 2.802 . S
C1117 N1118 1.379 . S
C1117 C1120 1.416 . S
C1117 C1124 1.424 . S
N1118 C1117 1.379 . S
N1118 C1121 1.334 . S
N1118 Tb1127 2.617 . S
C1119 C1121 1.390 . S
C1119 C1122 1.339 . S
C1119 H1139 0.930 . S
C1120 C1117 1.416 . S
C1120 C1122 1.416 . S
C1120 C1126 1.448 . S
C1121 N1118 1.334 . S
C1121 C1119 1.390 . S
C1121 H1132 0.930 . S
C1122 C1119 1.339 . S
C1122 C1120 1.416 . S
C1122 H1143 0.930 . S
C1123 C1124 1.413 . S
C1123 C1125 1.427 . S
C1123 C1129 1.416 . S
C1124 C1117 1.424 . S
C1124 C1123 1.413 . S
C1124 N1128 1.361 . S
C1125 C1123 1.427 . S
C1125 C1126 1.328 . S
C1125 H1140 0.929 . S
C1126 C1120 1.448 . S
C1126 C1125 1.328 . S
C1126 H1141 0.930 . S
Tb1127 N1118 2.617 . S
Tb1127 N1128 2.572 . S
Tb1127 O1162 2.349 . S
Tb1127 O1165 2.393 . S
Tb1127 O1166 2.465 . S
Tb1127 O1167 2.387 . S
Tb1127 O1169 2.428 . S
Tb1127 O1170 2.308 . S
Tb1127 C1191 2.802 . S
N1128 C1124 1.361 . S
N1128 Tb1127 2.572 . S
N1128 C1130 1.340 . S
C1129 C1123 1.416 . S
C1129 C1131 1.332 . S
C1129 H1137 0.931 . S
C1130 N1128 1.340 . S
C1130 C1131 1.407 . S
C1130 H1136 0.930 . S
C1131 C1129 1.332 . S
C1131 C1130 1.407 . S
C1131 H1133 0.929 . S
H1132 C1121 0.930 . S
H1133 C1131 0.929 . S
H1134 C1149 0.930 . S
H1135 C1156 0.929 . S
H1136 C1130 0.930 . S
H1137 C1129 0.931 . S
H1138 C1152 0.930 . S
H1139 C1119 0.930 . S
H1140 C1125 0.929 . S
H1141 C1126 0.930 . S
H1142 C1147 0.930 . S
H1143 C1122 0.930 . S
H1144 C1155 0.931 . S
N1145 Tb1116 2.617 . S
N1145 C1146 1.379 . S
N1145 C1149 1.334 . S
C1146 N1145 1.379 . S
C1146 C1148 1.416 . S
C1146 C1154 1.424 . S
C1147 H1142 0.930 . S
C1147 C1149 1.390 . S
C1147 C1150 1.339 . S
C1148 C1146 1.416 . S
C1148 C1150 1.416 . S
C1148 C1181 1.448 . S
C1149 H1134 0.930 . S
C1149 N1145 1.334 . S
C1149 C1147 1.390 . S
C1150 C1147 1.339 . S
C1150 C1148 1.416 . S
C1150 H1157 0.930 . S
N1151 Tb1116 2.572 . S
N1151 C1152 1.340 . S
N1151 C1154 1.361 . S
C1152 H1138 0.930 . S
C1152 N1151 1.340 . S
C1152 C1156 1.407 . S
C1153 C1154 1.413 . S
C1153 C1155 1.416 . S
C1153 C1182 1.427 . S
C1154 C1146 1.424 . S
C1154 N1151 1.361 . S
C1154 C1153 1.413 . S
C1155 H1144 0.931 . S
C1155 C1153 1.416 . S
C1155 C1156 1.332 . S
C1156 H1135 0.929 . S
C1156 C1152 1.407 . S
C1156 C1155 1.332 . S
H1157 C1150 0.930 . S
H1158 C1181 0.930 . S
H1159 C1182 0.929 . S
O1160 Tb1116 2.465 . S
O1160 C1180 1.264 . S
O1161 Tb1116 2.387 . S
O1161 C1172 1.264 . S
O1162 Tb1127 2.349 . S
O1162 C1172 1.243 . S
O1163 Tb1116 2.428 . S
O1163 C1180 1.256 . S
O1164 Tb1116 2.308 . S
O1164 C1179 1.266 . S
O1165 Tb1127 2.393 . S
O1165 C1179 1.248 . S
O1166 Tb1127 2.465 . S
O1166 C1191 1.264 . S
O1167 Tb1127 2.387 . S
O1167 C1183 1.264 . S
O1168 Tb1116 2.349 . S
O1168 C1183 1.243 . S
O1169 Tb1127 2.428 . S
O1169 C1191 1.256 . S
O1170 Tb1127 2.308 . S
O1170 C1190 1.266 . S
O1171 Tb1116 2.393 . S
O1171 C1190 1.248 . S
C1172 O1161 1.264 . S
C1172 O1162 1.243 . S
C1173 C1176 1.399 . S
C1173 C1178 1.383 . S
C1173 C1180 1.496 . S
C1174 C1175 1.399 . S
C1174 C1178 1.389 . S
C1175 C1174 1.399 . S
C1175 C1177 1.380 . S
C1175 H1192 0.929 . S
C1176 C1173 1.399 . S
C1176 C1177 1.392 . S
C1176 H1193 0.929 . S
C1177 C1175 1.380 . S
C1177 C1176 1.392 . S
C1177 H1194 0.929 . S
C1178 C1173 1.383 . S
C1178 C1174 1.389 . S
C1178 H1195 0.931 . S
C1179 O1164 1.266 . S
C1179 O1165 1.248 . S
C1180 Tb1116 2.802 . S
C1180 O1160 1.264 . S
C1180 O1163 1.256 . S
C1180 C1173 1.496 . S
C1181 C1148 1.448 . S
C1181 H1158 0.930 . S
C1181 C1182 1.328 . S
C1182 C1153 1.427 . S
C1182 H1159 0.929 . S
C1182 C1181 1.328 . S
C1183 O1167 1.264 . S
C1183 O1168 1.243 . S
C1184 C1187 1.399 . S
C1184 C1188 1.383 . S
C1184 C1191 1.496 . S
C1185 C1186 1.399 . S
C1185 C1188 1.389 . S
C1186 C1185 1.399 . S
C1186 C1189 1.380 . S
C1186 H1196 0.929 . S
C1187 C1184 1.399 . S
C1187 C1189 1.392 . S
C1187 H1197 0.929 . S
C1188 C1184 1.383 . S
C1188 C1185 1.389 . S
C1188 H1198 0.931 . S
C1189 C1186 1.380 . S
C1189 C1187 1.392 . S
C1189 H1199 0.929 . S
C1190 O1170 1.266 . S
C1190 O1171 1.248 . S
C1191 Tb1127 2.802 . S
C1191 O1166 1.264 . S
C1191 O1169 1.256 . S
C1191 C1184 1.496 . S
H1192 C1175 0.929 . S
H1193 C1176 0.929 . S
H1194 C1177 0.929 . S
H1195 C1178 0.931 . S
H1196 C1186 0.929 . S
H1197 C1187 0.929 . S
H1198 C1188 0.931 . S
H1199 C1189 0.929 . S
Tb1200 N1229 2.631 . S
Tb1200 N1235 2.596 . S
Tb1200 O1244 2.497 . S
Tb1200 O1245 2.365 1_565 S
Tb1200 O1247 2.457 . S
Tb1200 O1248 2.297 1_565 S
Tb1200 O1252 2.336 1_565 S
Tb1200 O1255 2.368 1_565 S
Tb1200 C1264 2.837 . S
C1201 N1202 1.364 1_455 S
C1201 C1204 1.375 1_455 S
C1201 C1208 1.483 . S
N1202 C1201 1.364 1_655 S
N1202 C1205 1.334 . S
N1202 Tb1211 2.617 1_655 S
C1203 C1205 1.390 . S
C1203 C1206 1.339 . S
C1203 H1223 0.930 . S
C1204 C1201 1.375 1_655 S
C1204 C1206 1.416 . S
C1204 C1210 1.431 1_655 S
C1205 N1202 1.334 . S
C1205 C1203 1.390 . S
C1205 H1216 0.930 . S
C1206 C1203 1.339 . S
C1206 C1204 1.416 . S
C1206 H1227 0.930 . S
C1207 C1208 1.413 . S
C1207 C1209 1.427 . S
C1207 C1213 1.416 . S
C1208 C1201 1.483 . S
C1208 C1207 1.413 . S
C1208 N1212 1.361 . S
C1209 C1207 1.427 . S
C1209 C1210 1.385 . S
C1209 H1224 0.929 . S
C1210 C1204 1.431 1_455 S
C1210 C1209 1.385 . S
C1210 H1225 0.893 1_455 S
Tb1211 N1202 2.617 1_455 S
Tb1211 N1212 2.572 . S
Tb1211 O1246 2.349 . S
Tb1211 O1249 2.393 1_455 S
Tb1211 O1250 2.465 . S
Tb1211 O1251 2.387 . S
Tb1211 O1253 2.428 1_455 S
Tb1211 O1254 2.308 . S
Tb1211 C1275 2.802 . S
N1212 C1208 1.361 . S
N1212 Tb1211 2.572 . S
N1212 C1214 1.340 . S
C1213 C1207 1.416 . S
C1213 C1215 1.332 . S
C1213 H1221 0.931 . S
C1214 N1212 1.340 . S
C1214 C1215 1.407 . S
C1214 H1220 0.930 . S
C1215 C1213 1.332 . S
C1215 C1214 1.407 . S
C1215 H1217 0.929 . S
H1216 C1205 0.930 . S
H1217 C1215 0.929 . S
H1218 C1233 0.930 1_545 S
H1219 C1240 0.929 . S
H1220 C1214 0.930 . S
H1221 C1213 0.931 . S
H1222 C1236 0.972 . S
H1223 C1203 0.930 . S
H1224 C1209 0.929 . S
H1225 C1210 0.893 1_655 S
H1226 C1231 0.930 . S
H1227 C1206 0.930 . S
H1228 C1239 0.931 . S
N1229 Tb1200 2.631 . S
N1229 C1230 1.379 . S
N1229 C1233 1.334 . S
C1230 N1229 1.379 . S
C1230 C1232 1.416 . S
C1230 C1238 1.424 . S
C1231 H1226 0.930 . S
C1231 C1233 1.390 . S
C1231 C1234 1.339 . S
C1232 C1230 1.416 . S
C1232 C1234 1.416 . S
C1232 C1265 1.448 . S
C1233 H1218 0.930 1_565 S
C1233 N1229 1.334 . S
C1233 C1231 1.390 . S
C1234 C1231 1.339 . S
C1234 C1232 1.416 . S
C1234 H1241 0.930 . S
N1235 Tb1200 2.596 . S
N1235 C1236 1.280 1_455 S
N1235 C1238 1.361 . S
C1236 H1222 0.972 . S
C1236 N1235 1.280 1_655 S
C1236 C1240 1.430 . S
C1237 C1238 1.413 . S
C1237 C1239 1.416 1_455 S
C1237 C1266 1.427 . S
C1238 C1230 1.424 . S
C1238 N1235 1.361 . S
C1238 C1237 1.413 . S
C1239 H1228 0.931 . S
C1239 C1237 1.416 1_655 S
C1239 C1240 1.332 . S
C1240 H1219 0.929 . S
C1240 C1236 1.430 . S
C1240 C1239 1.332 . S
H1241 C1234 0.930 . S
H1242 C1265 0.930 . S
H1243 C1266 0.929 . S
O1244 Tb1200 2.497 . S
O1244 C1264 1.264 . S
O1245 Tb1200 2.365 1_545 S
O1245 C1256 1.264 . S
O1246 Tb1211 2.349 . S
O1246 C1256 1.243 . S
O1247 Tb1200 2.457 . S
O1247 C1264 1.256 . S
O1248 Tb1200 2.297 1_545 S
O1248 C1263 1.266 1_455 S
O1249 Tb1211 2.393 1_655 S
O1249 C1263 1.248 . S
O1250 Tb1211 2.465 . S
O1250 C1275 1.264 . S
O1251 Tb1211 2.387 . S
O1251 C1267 1.264 . S
O1252 Tb1200 2.336 1_545 S
O1252 C1267 1.243 . S
O1253 Tb1211 2.428 1_655 S
O1253 C1275 1.256 1_655 S
O1254 Tb1211 2.308 . S
O1254 C1274 1.266 . S
O1255 Tb1200 2.368 1_545 S
O1255 C1274 1.248 . S
C1256 O1245 1.264 . S
C1256 O1246 1.243 . S
C1257 C1260 1.399 . S
C1257 C1262 1.383 . S
C1257 C1264 1.496 . S
C1258 C1259 1.399 . S
C1258 C1262 1.389 . S
C1259 C1258 1.399 . S
C1259 C1261 1.380 . S
C1259 H1276 0.929 . S
C1260 C1257 1.399 . S
C1260 C1261 1.392 . S
C1260 H1277 0.929 . S
C1261 C1259 1.380 . S
C1261 C1260 1.392 . S
C1261 H1278 0.929 . S
C1262 C1257 1.383 . S
C1262 C1258 1.389 . S
C1262 H1279 0.931 . S
C1263 O1248 1.266 1_655 S
C1263 O1249 1.248 . S
C1264 Tb1200 2.837 . S
C1264 O1244 1.264 . S
C1264 O1247 1.256 . S
C1264 C1257 1.496 . S
C1265 C1232 1.448 . S
C1265 H1242 0.930 . S
C1265 C1266 1.328 . S
C1266 C1237 1.427 . S
C1266 H1243 0.929 . S
C1266 C1265 1.328 . S
C1267 O1251 1.264 . S
C1267 O1252 1.243 . S
C1268 C1271 1.399 1_455 S
C1268 C1272 1.383 . S
C1268 C1275 1.496 . S
C1269 C1270 1.399 1_455 S
C1269 C1272 1.389 . S
C1270 C1269 1.399 1_655 S
C1270 C1273 1.380 . S
C1270 H1280 0.929 . S
C1271 C1268 1.399 1_655 S
C1271 C1273 1.392 . S
C1271 H1281 0.929 . S
C1272 C1268 1.383 . S
C1272 C1269 1.389 . S
C1272 H1282 0.931 . S
C1273 C1270 1.380 . S
C1273 C1271 1.392 . S
C1273 H1283 0.929 . S
C1274 O1254 1.266 . S
C1274 O1255 1.248 . S
C1275 Tb1211 2.802 . S
C1275 O1250 1.264 . S
C1275 O1253 1.256 1_455 S
C1275 C1268 1.496 . S
H1276 C1259 0.929 . S
H1277 C1260 0.929 . S
H1278 C1261 0.929 . S
H1279 C1262 0.931 . S
H1280 C1270 0.929 . S
H1281 C1271 0.929 . S
H1282 C1272 0.931 . S
H1283 C1273 0.929 . S
Tb1284 N1313 2.617 . S
Tb1284 N1319 2.572 . S
Tb1284 O1328 2.465 . S
Tb1284 O1329 2.387 . S
Tb1284 O1331 2.428 . S
Tb1284 O1332 2.308 . S
Tb1284 O1336 2.349 . S
Tb1284 O1339 2.393 . S
Tb1284 C1348 2.802 . S
C1285 N1286 1.379 . S
C1285 C1288 1.416 . S
C1285 C1292 1.424 . S
N1286 C1285 1.379 . S
N1286 C1289 1.334 . S
N1286 Tb1295 2.617 . S
C1287 C1289 1.390 . S
C1287 C1290 1.339 . S
C1287 H1307 0.930 . S
C1288 C1285 1.416 . S
C1288 C1290 1.416 . S
C1288 C1294 1.448 . S
C1289 N1286 1.334 . S
C1289 C1287 1.390 . S
C1289 H1300 0.930 . S
C1290 C1287 1.339 . S
C1290 C1288 1.416 . S
C1290 H1311 0.930 . S
C1291 C1292 1.413 . S
C1291 C1293 1.427 . S
C1291 C1297 1.416 . S
C1292 C1285 1.424 . S
C1292 C1291 1.413 . S
C1292 N1296 1.361 . S
C1293 C1291 1.427 . S
C1293 C1294 1.328 . S
C1293 H1308 0.929 . S
C1294 C1288 1.448 . S
C1294 C1293 1.328 . S
C1294 H1309 0.930 . S
Tb1295 N1286 2.617 . S
Tb1295 N1296 2.572 . S
Tb1295 O1330 2.349 . S
Tb1295 O1333 2.393 . S
Tb1295 O1334 2.465 . S
Tb1295 O1335 2.387 . S
Tb1295 O1337 2.428 . S
Tb1295 O1338 2.308 . S
Tb1295 C1359 2.802 . S
N1296 C1292 1.361 . S
N1296 Tb1295 2.572 . S
N1296 C1298 1.340 . S
C1297 C1291 1.416 . S
C1297 C1299 1.332 . S
C1297 H1305 0.931 . S
C1298 N1296 1.340 . S
C1298 C1299 1.407 . S
C1298 H1304 0.930 . S
C1299 C1297 1.332 . S
C1299 C1298 1.407 . S
C1299 H1301 0.929 . S
H1300 C1289 0.930 . S
H1301 C1299 0.929 . S
H1302 C1317 0.930 . S
H1303 C1324 0.929 . S
H1304 C1298 0.930 . S
H1305 C1297 0.931 . S
H1306 C1320 0.930 . S
H1307 C1287 0.930 . S
H1308 C1293 0.929 . S
H1309 C1294 0.930 . S
H1310 C1315 0.930 . S
H1311 C1290 0.930 . S
H1312 C1323 0.931 . S
N1313 Tb1284 2.617 . S
N1313 C1314 1.379 . S
N1313 C1317 1.334 . S
C1314 N1313 1.379 . S
C1314 C1316 1.416 . S
C1314 C1322 1.424 . S
C1315 H1310 0.930 . S
C1315 C1317 1.390 . S
C1315 C1318 1.339 . S
C1316 C1314 1.416 . S
C1316 C1318 1.416 . S
C1316 C1349 1.448 . S
C1317 H1302 0.930 . S
C1317 N1313 1.334 . S
C1317 C1315 1.390 . S
C1318 C1315 1.339 . S
C1318 C1316 1.416 . S
C1318 H1325 0.930 . S
N1319 Tb1284 2.572 . S
N1319 C1320 1.340 . S
N1319 C1322 1.361 . S
C1320 H1306 0.930 . S
C1320 N1319 1.340 . S
C1320 C1324 1.407 . S
C1321 C1322 1.413 . S
C1321 C1323 1.416 . S
C1321 C1350 1.427 . S
C1322 C1314 1.424 . S
C1322 N1319 1.361 . S
C1322 C1321 1.413 . S
C1323 H1312 0.931 . S
C1323 C1321 1.416 . S
C1323 C1324 1.332 . S
C1324 H1303 0.929 . S
C1324 C1320 1.407 . S
C1324 C1323 1.332 . S
H1325 C1318 0.930 . S
H1326 C1349 0.930 . S
H1327 C1350 0.929 . S
O1328 Tb1284 2.465 . S
O1328 C1348 1.264 . S
O1329 Tb1284 2.387 . S
O1329 C1340 1.264 . S
O1330 Tb1295 2.349 . S
O1330 C1340 1.243 . S
O1331 Tb1284 2.428 . S
O1331 C1348 1.256 . S
O1332 Tb1284 2.308 . S
O1332 C1347 1.266 . S
O1333 Tb1295 2.393 . S
O1333 C1347 1.248 . S
O1334 Tb1295 2.465 . S
O1334 C1359 1.264 . S
O1335 Tb1295 2.387 . S
O1335 C1351 1.264 . S
O1336 Tb1284 2.349 . S
O1336 C1351 1.243 . S
O1337 Tb1295 2.428 . S
O1337 C1359 1.256 . S
O1338 Tb1295 2.308 . S
O1338 C1358 1.266 . S
O1339 Tb1284 2.393 . S
O1339 C1358 1.248 . S
C1340 O1329 1.264 . S
C1340 O1330 1.243 . S
C1341 C1344 1.399 . S
C1341 C1346 1.383 . S
C1341 C1348 1.496 . S
C1342 C1343 1.399 . S
C1342 C1346 1.389 . S
C1343 C1342 1.399 . S
C1343 C1345 1.380 . S
C1343 H1360 0.929 . S
C1344 C1341 1.399 . S
C1344 C1345 1.392 . S
C1344 H1361 0.929 . S
C1345 C1343 1.380 . S
C1345 C1344 1.392 . S
C1345 H1362 0.929 . S
C1346 C1341 1.383 . S
C1346 C1342 1.389 . S
C1346 H1363 0.931 . S
C1347 O1332 1.266 . S
C1347 O1333 1.248 . S
C1348 Tb1284 2.802 . S
C1348 O1328 1.264 . S
C1348 O1331 1.256 . S
C1348 C1341 1.496 . S
C1349 C1316 1.448 . S
C1349 H1326 0.930 . S
C1349 C1350 1.328 . S
C1350 C1321 1.427 . S
C1350 H1327 0.929 . S
C1350 C1349 1.328 . S
C1351 O1335 1.264 . S
C1351 O1336 1.243 . S
C1352 C1355 1.399 . S
C1352 C1356 1.383 . S
C1352 C1359 1.496 . S
C1353 C1354 1.399 . S
C1353 C1356 1.389 . S
C1354 C1353 1.399 . S
C1354 C1357 1.380 . S
C1354 H1364 0.929 . S
C1355 C1352 1.399 . S
C1355 C1357 1.392 . S
C1355 H1365 0.929 . S
C1356 C1352 1.383 . S
C1356 C1353 1.389 . S
C1356 H1366 0.931 . S
C1357 C1354 1.380 . S
C1357 C1355 1.392 . S
C1357 H1367 0.929 . S
C1358 O1338 1.266 . S
C1358 O1339 1.248 . S
C1359 Tb1295 2.802 . S
C1359 O1334 1.264 . S
C1359 O1337 1.256 . S
C1359 C1352 1.496 . S
H1360 C1343 0.929 . S
H1361 C1344 0.929 . S
H1362 C1345 0.929 . S
H1363 C1346 0.931 . S
H1364 C1354 0.929 . S
H1365 C1355 0.929 . S
H1366 C1356 0.931 . S
H1367 C1357 0.929 . S
Tb1368 N1397 2.617 . S
Tb1368 N1403 2.572 . S
Tb1368 O1412 2.465 . S
Tb1368 O1413 2.387 1_556 S
Tb1368 O1415 2.428 . S
Tb1368 O1416 2.303 1_556 S
Tb1368 O1420 2.349 1_556 S
Tb1368 O1423 2.393 1_556 S
Tb1368 C1432 2.802 . S
C1369 N1370 1.379 1_545 S
C1369 C1372 1.416 1_545 S
C1369 C1376 1.424 . S
N1370 C1369 1.379 1_565 S
N1370 C1373 1.334 . S
N1370 Tb1379 2.617 1_565 S
C1371 C1373 1.390 . S
C1371 C1374 1.339 . S
C1371 H1391 0.930 . S
C1372 C1369 1.416 1_565 S
C1372 C1374 1.416 . S
C1372 C1378 1.448 1_565 S
C1373 N1370 1.334 . S
C1373 C1371 1.390 . S
C1373 H1384 0.930 . S
C1374 C1371 1.339 . S
C1374 C1372 1.416 . S
C1374 H1395 0.930 . S
C1375 C1376 1.413 . S
C1375 C1377 1.427 . S
C1375 C1381 1.416 . S
C1376 C1369 1.424 . S
C1376 C1375 1.413 . S
C1376 N1380 1.361 . S
C1377 C1375 1.427 . S
C1377 C1378 1.328 . S
C1377 H1392 0.929 . S
C1378 C1372 1.448 1_545 S
C1378 C1377 1.328 . S
C1378 H1393 0.930 1_545 S
Tb1379 N1370 2.617 1_545 S
Tb1379 N1380 2.572 . S
Tb1379 O1414 2.349 . S
Tb1379 O1417 2.393 1_545 S
Tb1379 O1418 2.465 . S
Tb1379 O1419 2.387 . S
Tb1379 O1421 2.428 1_545 S
Tb1379 O1422 2.308 . S
Tb1379 C1443 2.802 . S
N1380 C1376 1.361 . S
N1380 Tb1379 2.572 . S
N1380 C1382 1.340 . S
C1381 C1375 1.416 . S
C1381 C1383 1.332 . S
C1381 H1389 0.931 . S
C1382 N1380 1.340 . S
C1382 C1383 1.407 . S
C1382 H1388 0.930 . S
C1383 C1381 1.332 . S
C1383 C1382 1.407 . S
C1383 H1385 0.929 . S
H1384 C1373 0.930 . S
H1385 C1383 0.929 . S
H1386 C1401 0.930 1_554 S
H1387 C1408 0.977 . S
H1388 C1382 0.930 . S
H1389 C1381 0.931 . S
H1390 C1404 0.930 . S
H1391 C1371 0.930 . S
H1392 C1377 0.929 . S
H1393 C1378 0.930 1_565 S
H1394 C1399 0.930 . S
H1395 C1374 0.930 . S
H1396 C1407 0.931 . S
N1397 Tb1368 2.617 . S
N1397 C1398 1.379 . S
N1397 C1401 1.334 . S
C1398 N1397 1.379 . S
C1398 C1400 1.416 . S
C1398 C1406 1.424 . S
C1399 H1394 0.930 . S
C1399 C1401 1.390 . S
C1399 C1402 1.339 . S
C1400 C1398 1.416 . S
C1400 C1402 1.416 . S
C1400 C1433 1.448 . S
C1401 H1386 0.930 1_556 S
C1401 N1397 1.334 . S
C1401 C1399 1.390 . S
C1402 C1399 1.339 . S
C1402 C1400 1.416 . S
C1402 H1409 0.930 . S
N1403 Tb1368 2.572 . S
N1403 C1404 1.340 . S
N1403 C1406 1.361 . S
C1404 H1390 0.930 . S
C1404 N1403 1.340 . S
C1404 C1408 1.394 1_545 S
C1405 C1406 1.413 . S
C1405 C1407 1.416 . S
C1405 C1434 1.427 . S
C1406 C1398 1.424 . S
C1406 N1403 1.361 . S
C1406 C1405 1.413 . S
C1407 H1396 0.931 . S
C1407 C1405 1.416 . S
C1407 C1408 1.299 1_545 S
C1408 H1387 0.977 . S
C1408 C1404 1.394 1_565 S
C1408 C1407 1.299 1_565 S
H1409 C1402 0.930 . S
H1410 C1433 0.930 . S
H1411 C1434 0.929 . S
O1412 Tb1368 2.465 . S
O1412 C1432 1.264 . S
O1413 Tb1368 2.387 1_554 S
O1413 C1424 1.264 . S
O1414 Tb1379 2.349 . S
O1414 C1424 1.243 . S
O1415 Tb1368 2.428 . S
O1415 C1432 1.256 . S
O1416 Tb1368 2.303 1_554 S
O1416 C1431 1.276 1_545 S
O1417 Tb1379 2.393 1_565 S
O1417 C1431 1.248 . S
O1418 Tb1379 2.465 . S
O1418 C1443 1.264 . S
O1419 Tb1379 2.387 . S
O1419 C1435 1.264 . S
O1420 Tb1368 2.349 1_554 S
O1420 C1435 1.243 . S
O1421 Tb1379 2.428 1_565 S
O1421 C1443 1.256 1_565 S
O1422 Tb1379 2.308 . S
O1422 C1442 1.266 . S
O1423 Tb1368 2.393 1_554 S
O1423 C1442 1.248 . S
C1424 O1413 1.264 . S
C1424 O1414 1.243 . S
C1425 C1428 1.399 . S
C1425 C1430 1.383 . S
C1425 C1432 1.496 . S
C1426 C1427 1.399 . S
C1426 C1430 1.389 . S
C1427 C1426 1.399 . S
C1427 C1429 1.380 . S
C1427 H1444 0.929 . S
C1428 C1425 1.399 . S
C1428 C1429 1.392 . S
C1428 H1445 0.929 . S
C1429 C1427 1.380 . S
C1429 C1428 1.392 . S
C1429 H1446 0.929 . S
C1430 C1425 1.383 . S
C1430 C1426 1.389 . S
C1430 H1447 0.931 . S
C1431 O1416 1.276 1_565 S
C1431 O1417 1.248 . S
C1432 Tb1368 2.802 . S
C1432 O1412 1.264 . S
C1432 O1415 1.256 . S
C1432 C1425 1.496 . S
C1433 C1400 1.448 . S
C1433 H1410 0.930 . S
C1433 C1434 1.328 . S
C1434 C1405 1.427 . S
C1434 H1411 0.929 . S
C1434 C1433 1.328 . S
C1435 O1419 1.264 . S
C1435 O1420 1.243 . S
C1436 C1439 1.447 . S
C1436 C1440 1.349 1_565 S
C1436 C1443 1.484 1_565 S
C1437 C1438 1.399 1_545 S
C1437 C1440 1.389 . S
C1438 C1437 1.399 1_565 S
C1438 C1441 1.380 . S
C1438 H1448 0.929 . S
C1439 C1436 1.447 . S
C1439 C1441 1.392 . S
C1439 H1449 0.929 . S
C1440 C1436 1.349 1_545 S
C1440 C1437 1.389 . S
C1440 H1450 0.931 . S
C1441 C1438 1.380 . S
C1441 C1439 1.392 . S
C1441 H1451 0.929 . S
C1442 O1422 1.266 . S
C1442 O1423 1.248 . S
C1443 Tb1379 2.802 . S
C1443 O1418 1.264 . S
C1443 O1421 1.256 1_545 S
C1443 C1436 1.484 1_545 S
H1444 C1427 0.929 . S
H1445 C1428 0.929 . S
H1446 C1429 0.929 . S
H1447 C1430 0.931 . S
H1448 C1438 0.929 . S
H1449 C1439 0.929 . S
H1450 C1440 0.931 . S
H1451 C1441 0.929 . S
Tb1452 N1481 2.617 . S
Tb1452 N1487 2.572 . S
Tb1452 O1496 2.465 . S
Tb1452 O1497 2.387 . S
Tb1452 O1499 2.428 . S
Tb1452 O1500 2.308 . S
Tb1452 O1504 2.349 . S
Tb1452 O1507 2.393 . S
Tb1452 C1516 2.802 . S
C1453 N1454 1.379 . S
C1453 C1456 1.416 . S
C1453 C1460 1.424 . S
N1454 C1453 1.379 . S
N1454 C1457 1.334 . S
N1454 Tb1463 2.617 . S
C1455 C1457 1.390 . S
C1455 C1458 1.339 . S
C1455 H1475 0.930 . S
C1456 C1453 1.416 . S
C1456 C1458 1.416 . S
C1456 C1462 1.448 . S
C1457 N1454 1.334 . S
C1457 C1455 1.390 . S
C1457 H1468 0.930 . S
C1458 C1455 1.339 . S
C1458 C1456 1.416 . S
C1458 H1479 0.930 . S
C1459 C1460 1.413 . S
C1459 C1461 1.427 . S
C1459 C1465 1.416 . S
C1460 C1453 1.424 . S
C1460 C1459 1.413 . S
C1460 N1464 1.361 . S
C1461 C1459 1.427 . S
C1461 C1462 1.328 . S
C1461 H1476 0.929 . S
C1462 C1456 1.448 . S
C1462 C1461 1.328 . S
C1462 H1477 0.930 . S
Tb1463 N1454 2.617 . S
Tb1463 N1464 2.572 . S
Tb1463 O1498 2.349 . S
Tb1463 O1501 2.393 . S
Tb1463 O1502 2.465 . S
Tb1463 O1503 2.387 . S
Tb1463 O1505 2.428 . S
Tb1463 O1506 2.308 . S
Tb1463 C1527 2.802 . S
N1464 C1460 1.361 . S
N1464 Tb1463 2.572 . S
N1464 C1466 1.340 . S
C1465 C1459 1.416 . S
C1465 C1467 1.332 . S
C1465 H1473 0.931 . S
C1466 N1464 1.340 . S
C1466 C1467 1.407 . S
C1466 H1472 0.930 . S
C1467 C1465 1.332 . S
C1467 C1466 1.407 . S
C1467 H1469 0.929 . S
H1468 C1457 0.930 . S
H1469 C1467 0.929 . S
H1470 C1485 0.930 . S
H1471 C1492 0.929 . S
H1472 C1466 0.930 . S
H1473 C1465 0.931 . S
H1474 C1488 0.930 . S
H1475 C1455 0.930 . S
H1476 C1461 0.929 . S
H1477 C1462 0.930 . S
H1478 C1483 0.930 . S
H1479 C1458 0.930 . S
H1480 C1491 0.931 . S
N1481 Tb1452 2.617 . S
N1481 C1482 1.379 . S
N1481 C1485 1.334 . S
C1482 N1481 1.379 . S
C1482 C1484 1.416 . S
C1482 C1490 1.424 . S
C1483 H1478 0.930 . S
C1483 C1485 1.390 . S
C1483 C1486 1.339 . S
C1484 C1482 1.416 . S
C1484 C1486 1.416 . S
C1484 C1517 1.448 . S
C1485 H1470 0.930 . S
C1485 N1481 1.334 . S
C1485 C1483 1.390 . S
C1486 C1483 1.339 . S
C1486 C1484 1.416 . S
C1486 H1493 0.930 . S
N1487 Tb1452 2.572 . S
N1487 C1488 1.340 . S
N1487 C1490 1.361 . S
C1488 H1474 0.930 . S
C1488 N1487 1.340 . S
C1488 C1492 1.407 . S
C1489 C1490 1.413 . S
C1489 C1491 1.416 . S
C1489 C1518 1.427 . S
C1490 C1482 1.424 . S
C1490 N1487 1.361 . S
C1490 C1489 1.413 . S
C1491 H1480 0.931 . S
C1491 C1489 1.416 . S
C1491 C1492 1.332 . S
C1492 H1471 0.929 . S
C1492 C1488 1.407 . S
C1492 C1491 1.332 . S
H1493 C1486 0.930 . S
H1494 C1517 0.930 . S
H1495 C1518 0.929 . S
O1496 Tb1452 2.465 . S
O1496 C1516 1.264 . S
O1497 Tb1452 2.387 . S
O1497 C1508 1.264 . S
O1498 Tb1463 2.349 . S
O1498 C1508 1.243 . S
O1499 Tb1452 2.428 . S
O1499 C1516 1.256 . S
O1500 Tb1452 2.308 . S
O1500 C1515 1.266 . S
O1501 Tb1463 2.393 . S
O1501 C1515 1.248 . S
O1502 Tb1463 2.465 . S
O1502 C1527 1.264 . S
O1503 Tb1463 2.387 . S
O1503 C1519 1.264 . S
O1504 Tb1452 2.349 . S
O1504 C1519 1.243 . S
O1505 Tb1463 2.428 . S
O1505 C1527 1.256 . S
O1506 Tb1463 2.308 . S
O1506 C1526 1.266 . S
O1507 Tb1452 2.393 . S
O1507 C1526 1.248 . S
C1508 O1497 1.264 . S
C1508 O1498 1.243 . S
C1509 C1512 1.399 . S
C1509 C1514 1.383 . S
C1509 C1516 1.496 . S
C1510 C1511 1.399 . S
C1510 C1514 1.389 . S
C1511 C1510 1.399 . S
C1511 C1513 1.380 . S
C1511 H1528 0.929 . S
C1512 C1509 1.399 . S
C1512 C1513 1.392 . S
C1512 H1529 0.929 . S
C1513 C1511 1.380 . S
C1513 C1512 1.392 . S
C1513 H1530 0.929 . S
C1514 C1509 1.383 . S
C1514 C1510 1.389 . S
C1514 H1531 0.931 . S
C1515 O1500 1.266 . S
C1515 O1501 1.248 . S
C1516 Tb1452 2.802 . S
C1516 O1496 1.264 . S
C1516 O1499 1.256 . S
C1516 C1509 1.496 . S
C1517 C1484 1.448 . S
C1517 H1494 0.930 . S
C1517 C1518 1.328 . S
C1518 C1489 1.427 . S
C1518 H1495 0.929 . S
C1518 C1517 1.328 . S
C1519 O1503 1.264 . S
C1519 O1504 1.243 . S
C1520 C1523 1.399 . S
C1520 C1524 1.383 . S
C1520 C1527 1.496 . S
C1521 C1522 1.399 . S
C1521 C1524 1.389 . S
C1522 C1521 1.399 . S
C1522 C1525 1.380 . S
C1522 H1532 0.929 . S
C1523 C1520 1.399 . S
C1523 C1525 1.392 . S
C1523 H1533 0.929 . S
C1524 C1520 1.383 . S
C1524 C1521 1.389 . S
C1524 H1534 0.931 . S
C1525 C1522 1.380 . S
C1525 C1523 1.392 . S
C1525 H1535 0.929 . S
C1526 O1506 1.266 . S
C1526 O1507 1.248 . S
C1527 Tb1463 2.802 . S
C1527 O1502 1.264 . S
C1527 O1505 1.256 . S
C1527 C1520 1.496 . S
H1528 C1511 0.929 . S
H1529 C1512 0.929 . S
H1530 C1513 0.929 . S
H1531 C1514 0.931 . S
H1532 C1522 0.929 . S
H1533 C1523 0.929 . S
H1534 C1524 0.931 . S
H1535 C1525 0.929 . S
Tb1536 N1565 2.617 1_554 S
Tb1536 N1571 2.572 1_554 S
Tb1536 O1580 2.465 . S
Tb1536 O1581 2.387 1_554 S
Tb1536 O1583 2.428 . S
Tb1536 O1584 2.308 . S
Tb1536 O1588 2.349 . S
Tb1536 O1591 2.393 . S
Tb1536 C1600 2.802 . S
C1537 N1538 1.379 . S
C1537 C1540 1.416 . S
C1537 C1544 1.424 . S
N1538 C1537 1.379 . S
N1538 C1541 1.334 . S
N1538 Tb1547 2.617 . S
C1539 C1541 1.390 . S
C1539 C1542 1.339 . S
C1539 H1559 0.930 . S
C1540 C1537 1.416 . S
C1540 C1542 1.416 . S
C1540 C1546 1.448 . S
C1541 N1538 1.334 . S
C1541 C1539 1.390 . S
C1541 H1552 0.930 . S
C1542 C1539 1.339 . S
C1542 C1540 1.416 . S
C1542 H1563 0.930 . S
C1543 C1544 1.413 . S
C1543 C1545 1.427 . S
C1543 C1549 1.416 . S
C1544 C1537 1.424 . S
C1544 C1543 1.413 . S
C1544 N1548 1.361 . S
C1545 C1543 1.427 . S
C1545 C1546 1.328 . S
C1545 H1560 0.929 . S
C1546 C1540 1.448 . S
C1546 C1545 1.328 . S
C1546 H1561 0.930 . S
Tb1547 N1538 2.617 . S
Tb1547 N1548 2.572 . S
Tb1547 O1582 2.349 1_554 S
Tb1547 O1585 2.393 . S
Tb1547 O1586 2.465 . S
Tb1547 O1587 2.387 . S
Tb1547 O1589 2.428 . S
Tb1547 O1590 2.308 . S
Tb1547 C1611 2.802 . S
N1548 C1544 1.361 . S
N1548 Tb1547 2.572 . S
N1548 C1550 1.340 . S
C1549 C1543 1.416 . S
C1549 C1551 1.332 . S
C1549 H1557 0.931 . S
C1550 N1548 1.340 . S
C1550 C1551 1.407 . S
C1550 H1556 0.930 . S
C1551 C1549 1.332 . S
C1551 C1550 1.407 . S
C1551 H1553 0.929 . S
H1552 C1541 0.930 . S
H1553 C1551 0.929 . S
H1554 C1569 0.930 1_554 S
H1555 C1576 0.929 . S
H1556 C1550 0.930 . S
H1557 C1549 0.931 . S
H1558 C1572 0.930 1_554 S
H1559 C1539 0.930 . S
H1560 C1545 0.929 . S
H1561 C1546 0.930 . S
H1562 C1567 0.930 . S
H1563 C1542 0.930 . S
H1564 C1575 0.931 . S
N1565 Tb1536 2.617 1_556 S
N1565 C1566 1.379 . S
N1565 C1569 1.334 . S
C1566 N1565 1.379 . S
C1566 C1568 1.416 . S
C1566 C1574 1.424 . S
C1567 H1562 0.930 . S
C1567 C1569 1.390 . S
C1567 C1570 1.339 . S
C1568 C1566 1.416 . S
C1568 C1570 1.416 . S
C1568 C1601 1.448 . S
C1569 H1554 0.930 1_556 S
C1569 N1565 1.334 . S
C1569 C1567 1.390 . S
C1570 C1567 1.339 . S
C1570 C1568 1.416 . S
C1570 H1577 0.930 . S
N1571 Tb1536 2.572 1_556 S
N1571 C1572 1.340 . S
N1571 C1574 1.361 . S
C1572 H1558 0.930 1_556 S
C1572 N1571 1.340 . S
C1572 C1576 1.407 . S
C1573 C1574 1.413 . S
C1573 C1575 1.416 . S
C1573 C1602 1.427 . S
C1574 C1566 1.424 . S
C1574 N1571 1.361 . S
C1574 C1573 1.413 . S
C1575 H1564 0.931 . S
C1575 C1573 1.416 . S
C1575 C1576 1.332 . S
C1576 H1555 0.929 . S
C1576 C1572 1.407 . S
C1576 C1575 1.332 . S
H1577 C1570 0.930 . S
H1578 C1601 0.930 . S
H1579 C1602 0.929 . S
O1580 Tb1536 2.465 . S
O1580 C1600 1.264 . S
O1581 Tb1536 2.387 1_556 S
O1581 C1592 1.264 . S
O1582 Tb1547 2.349 1_556 S
O1582 C1592 1.243 . S
O1583 Tb1536 2.428 . S
O1583 C1600 1.256 . S
O1584 Tb1536 2.308 . S
O1584 C1599 1.266 . S
O1585 Tb1547 2.393 . S
O1585 C1599 1.248 . S
O1586 Tb1547 2.465 . S
O1586 C1611 1.264 . S
O1587 Tb1547 2.387 . S
O1587 C1603 1.264 . S
O1588 Tb1536 2.349 . S
O1588 C1603 1.243 . S
O1589 Tb1547 2.428 . S
O1589 C1611 1.256 . S
O1590 Tb1547 2.308 . S
O1590 C1610 1.266 . S
O1591 Tb1536 2.393 . S
O1591 C1610 1.248 . S
C1592 O1581 1.264 . S
C1592 O1582 1.243 . S
C1593 C1596 1.399 . S
C1593 C1598 1.383 . S
C1593 C1600 1.496 . S
C1594 C1595 1.399 . S
C1594 C1598 1.389 . S
C1595 C1594 1.399 . S
C1595 C1597 1.380 . S
C1595 H1612 0.929 . S
C1596 C1593 1.399 . S
C1596 C1597 1.392 . S
C1596 H1613 0.929 . S
C1597 C1595 1.380 . S
C1597 C1596 1.392 . S
C1597 H1614 0.929 . S
C1598 C1593 1.383 . S
C1598 C1594 1.389 . S
C1598 H1615 0.931 . S
C1599 O1584 1.266 . S
C1599 O1585 1.248 . S
C1600 Tb1536 2.802 . S
C1600 O1580 1.264 . S
C1600 O1583 1.256 . S
C1600 C1593 1.496 . S
C1601 C1568 1.448 . S
C1601 H1578 0.930 . S
C1601 C1602 1.328 . S
C1602 C1573 1.427 . S
C1602 H1579 0.929 . S
C1602 C1601 1.328 . S
C1603 O1587 1.264 . S
C1603 O1588 1.243 . S
C1604 C1607 1.399 . S
C1604 C1608 1.383 . S
C1604 C1611 1.496 1_556 S
C1605 C1606 1.399 . S
C1605 C1608 1.389 . S
C1606 C1605 1.399 . S
C1606 C1609 1.380 . S
C1606 H1616 0.929 . S
C1607 C1604 1.399 . S
C1607 C1609 1.392 . S
C1607 H1617 0.929 . S
C1608 C1604 1.383 . S
C1608 C1605 1.389 . S
C1608 H1618 0.931 . S
C1609 C1606 1.380 . S
C1609 C1607 1.392 . S
C1609 H1619 0.929 . S
C1610 O1590 1.266 . S
C1610 O1591 1.248 . S
C1611 Tb1547 2.802 . S
C1611 O1586 1.264 . S
C1611 O1589 1.256 . S
C1611 C1604 1.496 1_554 S
H1612 C1595 0.929 . S
H1613 C1596 0.929 . S
H1614 C1597 0.929 . S
H1615 C1598 0.931 . S
H1616 C1606 0.929 . S
H1617 C1607 0.929 . S
H1618 C1608 0.931 . S
H1619 C1609 0.929 . S
Tb1620 N1649 2.617 . S
Tb1620 N1655 2.572 . S
Tb1620 O1664 2.465 . S
Tb1620 O1665 2.387 . S
Tb1620 O1667 2.428 . S
Tb1620 O1668 2.308 . S
Tb1620 O1672 2.349 . S
Tb1620 O1675 2.393 . S
Tb1620 C1684 2.802 . S
C1621 N1622 1.379 . S
C1621 C1624 1.416 . S
C1621 C1628 1.424 . S
N1622 C1621 1.379 . S
N1622 C1625 1.334 . S
N1622 Tb1631 2.617 . S
C1623 C1625 1.390 . S
C1623 C1626 1.339 . S
C1623 H1643 0.930 . S
C1624 C1621 1.416 . S
C1624 C1626 1.416 . S
C1624 C1630 1.448 . S
C1625 N1622 1.334 . S
C1625 C1623 1.390 . S
C1625 H1636 0.930 . S
C1626 C1623 1.339 . S
C1626 C1624 1.416 . S
C1626 H1647 0.930 . S
C1627 C1628 1.413 . S
C1627 C1629 1.427 . S
C1627 C1633 1.416 . S
C1628 C1621 1.424 . S
C1628 C1627 1.413 . S
C1628 N1632 1.361 . S
C1629 C1627 1.427 . S
C1629 C1630 1.328 . S
C1629 H1644 0.929 . S
C1630 C1624 1.448 . S
C1630 C1629 1.328 . S
C1630 H1645 0.930 . S
Tb1631 N1622 2.617 . S
Tb1631 N1632 2.572 . S
Tb1631 O1666 2.349 . S
Tb1631 O1669 2.393 . S
Tb1631 O1670 2.465 . S
Tb1631 O1671 2.387 . S
Tb1631 O1673 2.428 . S
Tb1631 O1674 2.308 . S
Tb1631 C1695 2.802 . S
N1632 C1628 1.361 . S
N1632 Tb1631 2.572 . S
N1632 C1634 1.340 . S
C1633 C1627 1.416 . S
C1633 C1635 1.332 . S
C1633 H1641 0.931 . S
C1634 N1632 1.340 . S
C1634 C1635 1.407 . S
C1634 H1640 0.930 . S
C1635 C1633 1.332 . S
C1635 C1634 1.407 . S
C1635 H1637 0.929 . S
H1636 C1625 0.930 . S
H1637 C1635 0.929 . S
H1638 C1653 0.930 . S
H1639 C1660 0.929 . S
H1640 C1634 0.930 . S
H1641 C1633 0.931 . S
H1642 C1656 0.930 . S
H1643 C1623 0.930 . S
H1644 C1629 0.929 . S
H1645 C1630 0.930 . S
H1646 C1651 0.930 . S
H1647 C1626 0.930 . S
H1648 C1659 0.931 . S
N1649 Tb1620 2.617 . S
N1649 C1650 1.379 . S
N1649 C1653 1.334 . S
C1650 N1649 1.379 . S
C1650 C1652 1.416 . S
C1650 C1658 1.424 . S
C1651 H1646 0.930 . S
C1651 C1653 1.390 . S
C1651 C1654 1.339 . S
C1652 C1650 1.416 . S
C1652 C1654 1.416 . S
C1652 C1685 1.448 . S
C1653 H1638 0.930 . S
C1653 N1649 1.334 . S
C1653 C1651 1.390 . S
C1654 C1651 1.339 . S
C1654 C1652 1.416 . S
C1654 H1661 0.930 . S
N1655 Tb1620 2.572 . S
N1655 C1656 1.340 . S
N1655 C1658 1.361 . S
C1656 H1642 0.930 . S
C1656 N1655 1.340 . S
C1656 C1660 1.407 . S
C1657 C1658 1.413 . S
C1657 C1659 1.416 . S
C1657 C1686 1.427 . S
C1658 C1650 1.424 . S
C1658 N1655 1.361 . S
C1658 C1657 1.413 . S
C1659 H1648 0.931 . S
C1659 C1657 1.416 . S
C1659 C1660 1.332 . S
C1660 H1639 0.929 . S
C1660 C1656 1.407 . S
C1660 C1659 1.332 . S
H1661 C1654 0.930 . S
H1662 C1685 0.930 . S
H1663 C1686 0.929 . S
O1664 Tb1620 2.465 . S
O1664 C1684 1.264 . S
O1665 Tb1620 2.387 . S
O1665 C1676 1.264 . S
O1666 Tb1631 2.349 . S
O1666 C1676 1.243 . S
O1667 Tb1620 2.428 . S
O1667 C1684 1.256 . S
O1668 Tb1620 2.308 . S
O1668 C1683 1.266 . S
O1669 Tb1631 2.393 . S
O1669 C1683 1.248 . S
O1670 Tb1631 2.465 . S
O1670 C1695 1.264 . S
O1671 Tb1631 2.387 . S
O1671 C1687 1.264 . S
O1672 Tb1620 2.349 . S
O1672 C1687 1.243 . S
O1673 Tb1631 2.428 . S
O1673 C1695 1.256 . S
O1674 Tb1631 2.308 . S
O1674 C1694 1.266 . S
O1675 Tb1620 2.393 . S
O1675 C1694 1.248 . S
C1676 O1665 1.264 . S
C1676 O1666 1.243 . S
C1677 C1680 1.399 . S
C1677 C1682 1.383 . S
C1677 C1684 1.496 . S
C1678 C1679 1.399 . S
C1678 C1682 1.389 . S
C1679 C1678 1.399 . S
C1679 C1681 1.380 . S
C1679 H1696 0.929 . S
C1680 C1677 1.399 . S
C1680 C1681 1.392 . S
C1680 H1697 0.929 . S
C1681 C1679 1.380 . S
C1681 C1680 1.392 . S
C1681 H1698 0.929 . S
C1682 C1677 1.383 . S
C1682 C1678 1.389 . S
C1682 H1699 0.931 . S
C1683 O1668 1.266 . S
C1683 O1669 1.248 . S
C1684 Tb1620 2.802 . S
C1684 O1664 1.264 . S
C1684 O1667 1.256 . S
C1684 C1677 1.496 . S
C1685 C1652 1.448 . S
C1685 H1662 0.930 . S
C1685 C1686 1.328 . S
C1686 C1657 1.427 . S
C1686 H1663 0.929 . S
C1686 C1685 1.328 . S
C1687 O1671 1.264 . S
C1687 O1672 1.243 . S
C1688 C1691 1.399 . S
C1688 C1692 1.383 . S
C1688 C1695 1.496 . S
C1689 C1690 1.399 . S
C1689 C1692 1.389 . S
C1690 C1689 1.399 . S
C1690 C1693 1.380 . S
C1690 H1700 0.929 . S
C1691 C1688 1.399 . S
C1691 C1693 1.392 . S
C1691 H1701 0.929 . S
C1692 C1688 1.383 . S
C1692 C1689 1.389 . S
C1692 H1702 0.931 . S
C1693 C1690 1.380 . S
C1693 C1691 1.392 . S
C1693 H1703 0.929 . S
C1694 O1674 1.266 . S
C1694 O1675 1.248 . S
C1695 Tb1631 2.802 . S
C1695 O1670 1.264 . S
C1695 O1673 1.256 . S
C1695 C1688 1.496 . S
H1696 C1679 0.929 . S
H1697 C1680 0.929 . S
H1698 C1681 0.929 . S
H1699 C1682 0.931 . S
H1700 C1690 0.929 . S
H1701 C1691 0.929 . S
H1702 C1692 0.931 . S
H1703 C1693 0.929 . S
Tb1704 N1733 2.613 . S
Tb1704 N1739 2.572 1_455 S
Tb1704 O1748 2.465 . S
Tb1704 O1749 2.387 1_455 S
Tb1704 O1751 2.428 . S
Tb1704 O1752 2.308 . S
Tb1704 O1756 2.349 . S
Tb1704 O1759 2.393 . S
Tb1704 C1768 2.802 . S
C1705 N1706 1.379 . S
C1705 C1708 1.416 . S
C1705 C1712 1.424 . S
N1706 C1705 1.379 . S
N1706 C1709 1.334 . S
N1706 Tb1715 2.617 . S
C1707 C1709 1.390 . S
C1707 C1710 1.339 . S
C1707 H1727 0.930 . S
C1708 C1705 1.416 . S
C1708 C1710 1.416 . S
C1708 C1714 1.448 . S
C1709 N1706 1.334 . S
C1709 C1707 1.390 . S
C1709 H1720 0.930 . S
C1710 C1707 1.339 . S
C1710 C1708 1.416 . S
C1710 H1731 0.930 . S
C1711 C1712 1.413 . S
C1711 C1713 1.427 . S
C1711 C1717 1.416 . S
C1712 C1705 1.424 . S
C1712 C1711 1.413 . S
C1712 N1716 1.361 . S
C1713 C1711 1.427 . S
C1713 C1714 1.328 . S
C1713 H1728 0.929 . S
C1714 C1708 1.448 . S
C1714 C1713 1.328 . S
C1714 H1729 0.930 . S
Tb1715 N1706 2.617 . S
Tb1715 N1716 2.572 . S
Tb1715 O1750 2.299 1_455 S
Tb1715 O1753 2.393 . S
Tb1715 O1754 2.465 . S
Tb1715 O1755 2.387 . S
Tb1715 O1757 2.428 . S
Tb1715 O1758 2.308 . S
Tb1715 C1779 2.802 . S
N1716 C1712 1.361 . S
N1716 Tb1715 2.572 . S
N1716 C1718 1.340 . S
C1717 C1711 1.416 . S
C1717 C1719 1.332 . S
C1717 H1725 0.931 . S
C1718 N1716 1.340 . S
C1718 C1719 1.407 . S
C1718 H1724 0.930 . S
C1719 C1717 1.332 . S
C1719 C1718 1.407 . S
C1719 H1721 0.929 . S
H1720 C1709 0.930 . S
H1721 C1719 0.929 . S
H1722 C1737 0.970 . S
H1723 C1744 0.929 . S
H1724 C1718 0.930 . S
H1725 C1717 0.931 . S
H1726 C1740 0.930 1_455 S
H1727 C1707 0.930 . S
H1728 C1713 0.929 . S
H1729 C1714 0.930 . S
H1730 C1735 0.930 . S
H1731 C1710 0.930 . S
H1732 C1743 0.931 . S
N1733 Tb1704 2.613 . S
N1733 C1734 1.383 1_455 S
N1733 C1737 1.348 . S
C1734 N1733 1.383 1_655 S
C1734 C1736 1.416 . S
C1734 C1742 1.424 . S
C1735 H1730 0.930 . S
C1735 C1737 1.342 1_655 S
C1735 C1738 1.339 . S
C1736 C1734 1.416 . S
C1736 C1738 1.416 . S
C1736 C1769 1.448 . S
C1737 H1722 0.970 . S
C1737 N1733 1.348 . S
C1737 C1735 1.342 1_455 S
C1738 C1735 1.339 . S
C1738 C1736 1.416 . S
C1738 H1745 0.930 . S
N1739 Tb1704 2.572 1_655 S
N1739 C1740 1.340 . S
N1739 C1742 1.361 . S
C1740 H1726 0.930 1_655 S
C1740 N1739 1.340 . S
C1740 C1744 1.407 . S
C1741 C1742 1.413 . S
C1741 C1743 1.416 . S
C1741 C1770 1.427 . S
C1742 C1734 1.424 . S
C1742 N1739 1.361 . S
C1742 C1741 1.413 . S
C1743 H1732 0.931 . S
C1743 C1741 1.416 . S
C1743 C1744 1.332 . S
C1744 H1723 0.929 . S
C1744 C1740 1.407 . S
C1744 C1743 1.332 . S
H1745 C1738 0.930 . S
H1746 C1769 0.930 . S
H1747 C1770 0.929 . S
O1748 Tb1704 2.465 . S
O1748 C1768 1.264 . S
O1749 Tb1704 2.387 1_655 S
O1749 C1760 1.264 . S
O1750 Tb1715 2.299 1_655 S
O1750 C1760 1.275 . S
O1751 Tb1704 2.428 . S
O1751 C1768 1.256 . S
O1752 Tb1704 2.308 . S
O1752 C1767 1.266 . S
O1753 Tb1715 2.393 . S
O1753 C1767 1.248 . S
O1754 Tb1715 2.465 . S
O1754 C1779 1.264 . S
O1755 Tb1715 2.387 . S
O1755 C1771 1.264 . S
O1756 Tb1704 2.349 . S
O1756 C1771 1.243 . S
O1757 Tb1715 2.428 . S
O1757 C1779 1.256 . S
O1758 Tb1715 2.308 . S
O1758 C1778 1.266 . S
O1759 Tb1704 2.393 . S
O1759 C1778 1.248 . S
C1760 O1749 1.264 . S
C1760 O1750 1.275 . S
C1761 C1764 1.399 . S
C1761 C1766 1.383 . S
C1761 C1768 1.496 . S
C1762 C1763 1.399 . S
C1762 C1766 1.389 . S
C1763 C1762 1.399 . S
C1763 C1765 1.380 . S
C1763 H1780 0.929 . S
C1764 C1761 1.399 . S
C1764 C1765 1.392 . S
C1764 H1781 0.929 . S
C1765 C1763 1.380 . S
C1765 C1764 1.392 . S
C1765 H1782 0.929 . S
C1766 C1761 1.383 . S
C1766 C1762 1.389 . S
C1766 H1783 0.931 . S
C1767 O1752 1.266 . S
C1767 O1753 1.248 . S
C1768 Tb1704 2.802 . S
C1768 O1748 1.264 . S
C1768 O1751 1.256 . S
C1768 C1761 1.496 . S
C1769 C1736 1.448 . S
C1769 H1746 0.930 . S
C1769 C1770 1.328 . S
C1770 C1741 1.427 . S
C1770 H1747 0.929 . S
C1770 C1769 1.328 . S
C1771 O1755 1.264 . S
C1771 O1756 1.243 . S
C1772 C1775 1.399 . S
C1772 C1776 1.383 . S
C1772 C1779 1.496 1_655 S
C1773 C1774 1.399 . S
C1773 C1776 1.389 . S
C1774 C1773 1.399 . S
C1774 C1777 1.380 . S
C1774 H1784 0.929 . S
C1775 C1772 1.399 . S
C1775 C1777 1.392 . S
C1775 H1785 0.935 . S
C1776 C1772 1.383 . S
C1776 C1773 1.389 . S
C1776 H1786 0.931 . S
C1777 C1774 1.380 . S
C1777 C1775 1.392 . S
C1777 H1787 0.929 . S
C1778 O1758 1.266 . S
C1778 O1759 1.248 . S
C1779 Tb1715 2.802 . S
C1779 O1754 1.264 . S
C1779 O1757 1.256 . S
C1779 C1772 1.496 1_455 S
H1780 C1763 0.929 . S
H1781 C1764 0.929 . S
H1782 C1765 0.929 . S
H1783 C1766 0.931 . S
H1784 C1774 0.929 . S
H1785 C1775 0.935 . S
H1786 C1776 0.931 . S
H1787 C1777 0.929 . S
Tb1788 N1817 2.617 . S
Tb1788 N1823 2.572 . S
Tb1788 O1832 2.465 . S
Tb1788 O1833 2.387 . S
Tb1788 O1835 2.428 . S
Tb1788 O1836 2.308 . S
Tb1788 O1840 2.349 . S
Tb1788 O1843 2.393 . S
Tb1788 C1852 2.802 . S
C1789 N1790 1.379 . S
C1789 C1792 1.416 . S
C1789 C1796 1.424 . S
N1790 C1789 1.379 . S
N1790 C1793 1.334 . S
N1790 Tb1799 2.617 . S
C1791 C1793 1.390 . S
C1791 C1794 1.339 . S
C1791 H1811 0.930 . S
C1792 C1789 1.416 . S
C1792 C1794 1.416 . S
C1792 C1798 1.448 . S
C1793 N1790 1.334 . S
C1793 C1791 1.390 . S
C1793 H1804 0.930 . S
C1794 C1791 1.339 . S
C1794 C1792 1.416 . S
C1794 H1815 0.930 . S
C1795 C1796 1.413 . S
C1795 C1797 1.427 . S
C1795 C1801 1.416 . S
C1796 C1789 1.424 . S
C1796 C1795 1.413 . S
C1796 N1800 1.361 . S
C1797 C1795 1.427 . S
C1797 C1798 1.328 . S
C1797 H1812 0.929 . S
C1798 C1792 1.448 . S
C1798 C1797 1.328 . S
C1798 H1813 0.930 . S
Tb1799 N1790 2.617 . S
Tb1799 N1800 2.572 . S
Tb1799 O1834 2.349 . S
Tb1799 O1837 2.393 . S
Tb1799 O1838 2.465 . S
Tb1799 O1839 2.387 . S
Tb1799 O1841 2.428 . S
Tb1799 O1842 2.308 . S
Tb1799 C1863 2.802 . S
N1800 C1796 1.361 . S
N1800 Tb1799 2.572 . S
N1800 C1802 1.340 . S
C1801 C1795 1.416 . S
C1801 C1803 1.332 . S
C1801 H1809 0.931 . S
C1802 N1800 1.340 . S
C1802 C1803 1.407 . S
C1802 H1808 0.930 . S
C1803 C1801 1.332 . S
C1803 C1802 1.407 . S
C1803 H1805 0.929 . S
H1804 C1793 0.930 . S
H1805 C1803 0.929 . S
H1806 C1821 0.930 . S
H1807 C1828 0.929 . S
H1808 C1802 0.930 . S
H1809 C1801 0.931 . S
H1810 C1824 0.930 . S
H1811 C1791 0.930 . S
H1812 C1797 0.929 . S
H1813 C1798 0.930 . S
H1814 C1819 0.930 . S
H1815 C1794 0.930 . S
H1816 C1827 0.931 . S
N1817 Tb1788 2.617 . S
N1817 C1818 1.379 . S
N1817 C1821 1.334 . S
C1818 N1817 1.379 . S
C1818 C1820 1.416 . S
C1818 C1826 1.424 . S
C1819 H1814 0.930 . S
C1819 C1821 1.390 . S
C1819 C1822 1.339 . S
C1820 C1818 1.416 . S
C1820 C1822 1.416 . S
C1820 C1853 1.448 . S
C1821 H1806 0.930 . S
C1821 N1817 1.334 . S
C1821 C1819 1.390 . S
C1822 C1819 1.339 . S
C1822 C1820 1.416 . S
C1822 H1829 0.930 . S
N1823 Tb1788 2.572 . S
N1823 C1824 1.340 . S
N1823 C1826 1.361 . S
C1824 H1810 0.930 . S
C1824 N1823 1.340 . S
C1824 C1828 1.407 . S
C1825 C1826 1.413 . S
C1825 C1827 1.416 . S
C1825 C1854 1.427 . S
C1826 C1818 1.424 . S
C1826 N1823 1.361 . S
C1826 C1825 1.413 . S
C1827 H1816 0.931 . S
C1827 C1825 1.416 . S
C1827 C1828 1.332 . S
C1828 H1807 0.929 . S
C1828 C1824 1.407 . S
C1828 C1827 1.332 . S
H1829 C1822 0.930 . S
H1830 C1853 0.930 . S
H1831 C1854 0.929 . S
O1832 Tb1788 2.465 . S
O1832 C1852 1.264 . S
O1833 Tb1788 2.387 . S
O1833 C1844 1.264 . S
O1834 Tb1799 2.349 . S
O1834 C1844 1.243 . S
O1835 Tb1788 2.428 . S
O1835 C1852 1.256 . S
O1836 Tb1788 2.308 . S
O1836 C1851 1.266 . S
O1837 Tb1799 2.393 . S
O1837 C1851 1.248 . S
O1838 Tb1799 2.465 . S
O1838 C1863 1.264 . S
O1839 Tb1799 2.387 . S
O1839 C1855 1.264 . S
O1840 Tb1788 2.349 . S
O1840 C1855 1.243 . S
O1841 Tb1799 2.428 . S
O1841 C1863 1.256 . S
O1842 Tb1799 2.308 . S
O1842 C1862 1.266 . S
O1843 Tb1788 2.393 . S
O1843 C1862 1.248 . S
C1844 O1833 1.264 . S
C1844 O1834 1.243 . S
C1845 C1848 1.399 . S
C1845 C1850 1.383 . S
C1845 C1852 1.496 . S
C1846 C1847 1.399 . S
C1846 C1850 1.389 . S
C1847 C1846 1.399 . S
C1847 C1849 1.380 . S
C1847 H1864 0.929 . S
C1848 C1845 1.399 . S
C1848 C1849 1.392 . S
C1848 H1865 0.929 . S
C1849 C1847 1.380 . S
C1849 C1848 1.392 . S
C1849 H1866 0.929 . S
C1850 C1845 1.383 . S
C1850 C1846 1.389 . S
C1850 H1867 0.931 . S
C1851 O1836 1.266 . S
C1851 O1837 1.248 . S
C1852 Tb1788 2.802 . S
C1852 O1832 1.264 . S
C1852 O1835 1.256 . S
C1852 C1845 1.496 . S
C1853 C1820 1.448 . S
C1853 H1830 0.930 . S
C1853 C1854 1.328 . S
C1854 C1825 1.427 . S
C1854 H1831 0.929 . S
C1854 C1853 1.328 . S
C1855 O1839 1.264 . S
C1855 O1840 1.243 . S
C1856 C1859 1.399 . S
C1856 C1860 1.383 . S
C1856 C1863 1.496 . S
C1857 C1858 1.399 . S
C1857 C1860 1.389 . S
C1858 C1857 1.399 . S
C1858 C1861 1.380 . S
C1858 H1868 0.929 . S
C1859 C1856 1.399 . S
C1859 C1861 1.392 . S
C1859 H1869 0.929 . S
C1860 C1856 1.383 . S
C1860 C1857 1.389 . S
C1860 H1870 0.931 . S
C1861 C1858 1.380 . S
C1861 C1859 1.392 . S
C1861 H1871 0.929 . S
C1862 O1842 1.266 . S
C1862 O1843 1.248 . S
C1863 Tb1799 2.802 . S
C1863 O1838 1.264 . S
C1863 O1841 1.256 . S
C1863 C1856 1.496 . S
H1864 C1847 0.929 . S
H1865 C1848 0.929 . S
H1866 C1849 0.929 . S
H1867 C1850 0.931 . S
H1868 C1858 0.929 . S
H1869 C1859 0.929 . S
H1870 C1860 0.931 . S
H1871 C1861 0.929 . S
Tb1872 N1901 2.617 . S
Tb1872 N1907 2.572 . S
Tb1872 O1916 2.465 . S
Tb1872 O1917 2.387 . S
Tb1872 O1919 2.428 . S
Tb1872 O1920 2.308 . S
Tb1872 O1924 2.349 . S
Tb1872 O1927 2.393 . S
Tb1872 C1936 2.802 . S
C1873 N1874 1.379 . S
C1873 C1876 1.416 . S
C1873 C1880 1.424 . S
N1874 C1873 1.379 . S
N1874 C1877 1.334 . S
N1874 Tb1883 2.617 . S
C1875 C1877 1.390 . S
C1875 C1878 1.339 . S
C1875 H1895 0.930 . S
C1876 C1873 1.416 . S
C1876 C1878 1.416 . S
C1876 C1882 1.448 . S
C1877 N1874 1.334 . S
C1877 C1875 1.390 . S
C1877 H1888 0.930 . S
C1878 C1875 1.339 . S
C1878 C1876 1.416 . S
C1878 H1899 0.930 . S
C1879 C1880 1.413 . S
C1879 C1881 1.427 . S
C1879 C1885 1.416 . S
C1880 C1873 1.424 . S
C1880 C1879 1.413 . S
C1880 N1884 1.361 . S
C1881 C1879 1.427 . S
C1881 C1882 1.328 . S
C1881 H1896 0.929 . S
C1882 C1876 1.448 . S
C1882 C1881 1.328 . S
C1882 H1897 0.930 . S
Tb1883 N1874 2.617 . S
Tb1883 N1884 2.572 . S
Tb1883 O1918 2.349 . S
Tb1883 O1921 2.393 . S
Tb1883 O1922 2.465 . S
Tb1883 O1923 2.387 . S
Tb1883 O1925 2.428 . S
Tb1883 O1926 2.308 . S
Tb1883 C1947 2.802 . S
N1884 C1880 1.361 . S
N1884 Tb1883 2.572 . S
N1884 C1886 1.340 . S
C1885 C1879 1.416 . S
C1885 C1887 1.332 . S
C1885 H1893 0.931 . S
C1886 N1884 1.340 . S
C1886 C1887 1.407 . S
C1886 H1892 0.930 . S
C1887 C1885 1.332 . S
C1887 C1886 1.407 . S
C1887 H1889 0.929 . S
H1888 C1877 0.930 . S
H1889 C1887 0.929 . S
H1890 C1905 0.930 . S
H1891 C1912 0.929 . S
H1892 C1886 0.930 . S
H1893 C1885 0.931 . S
H1894 C1908 0.930 . S
H1895 C1875 0.930 . S
H1896 C1881 0.929 . S
H1897 C1882 0.930 . S
H1898 C1903 0.930 . S
H1899 C1878 0.930 . S
H1900 C1911 0.931 . S
N1901 Tb1872 2.617 . S
N1901 C1902 1.379 . S
N1901 C1905 1.334 . S
C1902 N1901 1.379 . S
C1902 C1904 1.416 . S
C1902 C1910 1.424 . S
C1903 H1898 0.930 . S
C1903 C1905 1.390 . S
C1903 C1906 1.339 . S
C1904 C1902 1.416 . S
C1904 C1906 1.416 . S
C1904 C1937 1.448 . S
C1905 H1890 0.930 . S
C1905 N1901 1.334 . S
C1905 C1903 1.390 . S
C1906 C1903 1.339 . S
C1906 C1904 1.416 . S
C1906 H1913 0.930 . S
N1907 Tb1872 2.572 . S
N1907 C1908 1.340 . S
N1907 C1910 1.361 . S
C1908 H1894 0.930 . S
C1908 N1907 1.340 . S
C1908 C1912 1.407 . S
C1909 C1910 1.413 . S
C1909 C1911 1.416 . S
C1909 C1938 1.427 . S
C1910 C1902 1.424 . S
C1910 N1907 1.361 . S
C1910 C1909 1.413 . S
C1911 H1900 0.931 . S
C1911 C1909 1.416 . S
C1911 C1912 1.332 . S
C1912 H1891 0.929 . S
C1912 C1908 1.407 . S
C1912 C1911 1.332 . S
H1913 C1906 0.930 . S
H1914 C1937 0.930 . S
H1915 C1938 0.929 . S
O1916 Tb1872 2.465 . S
O1916 C1936 1.264 . S
O1917 Tb1872 2.387 . S
O1917 C1928 1.264 . S
O1918 Tb1883 2.349 . S
O1918 C1928 1.243 . S
O1919 Tb1872 2.428 . S
O1919 C1936 1.256 . S
O1920 Tb1872 2.308 . S
O1920 C1935 1.266 . S
O1921 Tb1883 2.393 . S
O1921 C1935 1.248 . S
O1922 Tb1883 2.465 . S
O1922 C1947 1.264 . S
O1923 Tb1883 2.387 . S
O1923 C1939 1.264 . S
O1924 Tb1872 2.349 . S
O1924 C1939 1.243 . S
O1925 Tb1883 2.428 . S
O1925 C1947 1.256 . S
O1926 Tb1883 2.308 . S
O1926 C1946 1.266 . S
O1927 Tb1872 2.393 . S
O1927 C1946 1.248 . S
C1928 O1917 1.264 . S
C1928 O1918 1.243 . S
C1929 C1932 1.399 . S
C1929 C1934 1.383 . S
C1929 C1936 1.496 . S
C1930 C1931 1.399 . S
C1930 C1934 1.389 . S
C1931 C1930 1.399 . S
C1931 C1933 1.380 . S
C1931 H1948 0.929 . S
C1932 C1929 1.399 . S
C1932 C1933 1.392 . S
C1932 H1949 0.929 . S
C1933 C1931 1.380 . S
C1933 C1932 1.392 . S
C1933 H1950 0.929 . S
C1934 C1929 1.383 . S
C1934 C1930 1.389 . S
C1934 H1951 0.931 . S
C1935 O1920 1.266 . S
C1935 O1921 1.248 . S
C1936 Tb1872 2.802 . S
C1936 O1916 1.264 . S
C1936 O1919 1.256 . S
C1936 C1929 1.496 . S
C1937 C1904 1.448 . S
C1937 H1914 0.930 . S
C1937 C1938 1.328 . S
C1938 C1909 1.427 . S
C1938 H1915 0.929 . S
C1938 C1937 1.328 . S
C1939 O1923 1.264 . S
C1939 O1924 1.243 . S
C1940 C1943 1.399 . S
C1940 C1944 1.383 . S
C1940 C1947 1.496 . S
C1941 C1942 1.399 . S
C1941 C1944 1.389 . S
C1942 C1941 1.399 . S
C1942 C1945 1.380 . S
C1942 H1952 0.929 . S
C1943 C1940 1.399 . S
C1943 C1945 1.392 . S
C1943 H1953 0.929 . S
C1944 C1940 1.383 . S
C1944 C1941 1.389 . S
C1944 H1954 0.931 . S
C1945 C1942 1.380 . S
C1945 C1943 1.392 . S
C1945 H1955 0.929 . S
C1946 O1926 1.266 . S
C1946 O1927 1.248 . S
C1947 Tb1883 2.802 . S
C1947 O1922 1.264 . S
C1947 O1925 1.256 . S
C1947 C1940 1.496 . S
H1948 C1931 0.929 . S
H1949 C1932 0.929 . S
H1950 C1933 0.929 . S
H1951 C1934 0.931 . S
H1952 C1942 0.929 . S
H1953 C1943 0.929 . S
H1954 C1944 0.931 . S
H1955 C1945 0.929 . S
Tb1956 N1985 2.617 . S
Tb1956 N1991 2.572 . S
Tb1956 O2000 2.465 . S
Tb1956 O2001 2.387 . S
Tb1956 O2003 2.428 . S
Tb1956 O2004 2.308 . S
Tb1956 O2008 2.349 . S
Tb1956 O2011 2.393 . S
Tb1956 C2020 2.802 . S
C1957 N1958 1.379 . S
C1957 C1960 1.416 . S
C1957 C1964 1.424 . S
N1958 C1957 1.379 . S
N1958 C1961 1.334 . S
N1958 Tb1967 2.617 . S
C1959 C1961 1.390 . S
C1959 C1962 1.339 . S
C1959 H1979 0.930 . S
C1960 C1957 1.416 . S
C1960 C1962 1.416 . S
C1960 C1966 1.448 . S
C1961 N1958 1.334 . S
C1961 C1959 1.390 . S
C1961 H1972 0.930 . S
C1962 C1959 1.339 . S
C1962 C1960 1.416 . S
C1962 H1983 0.930 . S
C1963 C1964 1.413 . S
C1963 C1965 1.427 . S
C1963 C1969 1.416 . S
C1964 C1957 1.424 . S
C1964 C1963 1.413 . S
C1964 N1968 1.361 . S
C1965 C1963 1.427 . S
C1965 C1966 1.328 . S
C1965 H1980 0.929 . S
C1966 C1960 1.448 . S
C1966 C1965 1.328 . S
C1966 H1981 0.930 . S
Tb1967 N1958 2.617 . S
Tb1967 N1968 2.572 . S
Tb1967 O2002 2.349 . S
Tb1967 O2005 2.393 . S
Tb1967 O2006 2.465 . S
Tb1967 O2007 2.387 . S
Tb1967 O2009 2.428 . S
Tb1967 O2010 2.308 . S
Tb1967 C2031 2.802 . S
N1968 C1964 1.361 . S
N1968 Tb1967 2.572 . S
N1968 C1970 1.340 . S
C1969 C1963 1.416 . S
C1969 C1971 1.332 . S
C1969 H1977 0.931 . S
C1970 N1968 1.340 . S
C1970 C1971 1.407 . S
C1970 H1976 0.930 . S
C1971 C1969 1.332 . S
C1971 C1970 1.407 . S
C1971 H1973 0.929 . S
H1972 C1961 0.930 . S
H1973 C1971 0.929 . S
H1974 C1989 0.930 . S
H1975 C1996 0.929 . S
H1976 C1970 0.930 . S
H1977 C1969 0.931 . S
H1978 C1992 0.930 . S
H1979 C1959 0.930 . S
H1980 C1965 0.929 . S
H1981 C1966 0.930 . S
H1982 C1987 0.930 . S
H1983 C1962 0.930 . S
H1984 C1995 0.931 . S
N1985 Tb1956 2.617 . S
N1985 C1986 1.379 . S
N1985 C1989 1.334 . S
C1986 N1985 1.379 . S
C1986 C1988 1.416 . S
C1986 C1994 1.424 . S
C1987 H1982 0.930 . S
C1987 C1989 1.390 . S
C1987 C1990 1.339 . S
C1988 C1986 1.416 . S
C1988 C1990 1.416 . S
C1988 C2021 1.448 . S
C1989 H1974 0.930 . S
C1989 N1985 1.334 . S
C1989 C1987 1.390 . S
C1990 C1987 1.339 . S
C1990 C1988 1.416 . S
C1990 H1997 0.930 . S
N1991 Tb1956 2.572 . S
N1991 C1992 1.340 . S
N1991 C1994 1.361 . S
C1992 H1978 0.930 . S
C1992 N1991 1.340 . S
C1992 C1996 1.407 . S
C1993 C1994 1.413 . S
C1993 C1995 1.416 . S
C1993 C2022 1.427 . S
C1994 C1986 1.424 . S
C1994 N1991 1.361 . S
C1994 C1993 1.413 . S
C1995 H1984 0.931 . S
C1995 C1993 1.416 . S
C1995 C1996 1.332 . S
C1996 H1975 0.929 . S
C1996 C1992 1.407 . S
C1996 C1995 1.332 . S
H1997 C1990 0.930 . S
H1998 C2021 0.930 . S
H1999 C2022 0.929 . S
O2000 Tb1956 2.465 . S
O2000 C2020 1.264 . S
O2001 Tb1956 2.387 . S
O2001 C2012 1.264 . S
O2002 Tb1967 2.349 . S
O2002 C2012 1.243 . S
O2003 Tb1956 2.428 . S
O2003 C2020 1.256 . S
O2004 Tb1956 2.308 . S
O2004 C2019 1.266 . S
O2005 Tb1967 2.393 . S
O2005 C2019 1.248 . S
O2006 Tb1967 2.465 . S
O2006 C2031 1.264 . S
O2007 Tb1967 2.387 . S
O2007 C2023 1.264 . S
O2008 Tb1956 2.349 . S
O2008 C2023 1.243 . S
O2009 Tb1967 2.428 . S
O2009 C2031 1.256 . S
O2010 Tb1967 2.308 . S
O2010 C2030 1.266 . S
O2011 Tb1956 2.393 . S
O2011 C2030 1.248 . S
C2012 O2001 1.264 . S
C2012 O2002 1.243 . S
C2013 C2016 1.399 . S
C2013 C2018 1.383 . S
C2013 C2020 1.496 . S
C2014 C2015 1.399 . S
C2014 C2018 1.389 . S
C2015 C2014 1.399 . S
C2015 C2017 1.380 . S
C2015 H2032 0.929 . S
C2016 C2013 1.399 . S
C2016 C2017 1.392 . S
C2016 H2033 0.929 . S
C2017 C2015 1.380 . S
C2017 C2016 1.392 . S
C2017 H2034 0.929 . S
C2018 C2013 1.383 . S
C2018 C2014 1.389 . S
C2018 H2035 0.931 . S
C2019 O2004 1.266 . S
C2019 O2005 1.248 . S
C2020 Tb1956 2.802 . S
C2020 O2000 1.264 . S
C2020 O2003 1.256 . S
C2020 C2013 1.496 . S
C2021 C1988 1.448 . S
C2021 H1998 0.930 . S
C2021 C2022 1.328 . S
C2022 C1993 1.427 . S
C2022 H1999 0.929 . S
C2022 C2021 1.328 . S
C2023 O2007 1.264 . S
C2023 O2008 1.243 . S
C2024 C2027 1.399 . S
C2024 C2028 1.383 . S
C2024 C2031 1.496 . S
C2025 C2026 1.399 . S
C2025 C2028 1.389 . S
C2026 C2025 1.399 . S
C2026 C2029 1.380 . S
C2026 H2036 0.929 . S
C2027 C2024 1.399 . S
C2027 C2029 1.392 . S
C2027 H2037 0.929 . S
C2028 C2024 1.383 . S
C2028 C2025 1.389 . S
C2028 H2038 0.931 . S
C2029 C2026 1.380 . S
C2029 C2027 1.392 . S
C2029 H2039 0.929 . S
C2030 O2010 1.266 . S
C2030 O2011 1.248 . S
C2031 Tb1967 2.802 . S
C2031 O2006 1.264 . S
C2031 O2009 1.256 . S
C2031 C2024 1.496 . S
H2032 C2015 0.929 . S
H2033 C2016 0.929 . S
H2034 C2017 0.929 . S
H2035 C2018 0.931 . S
H2036 C2026 0.929 . S
H2037 C2027 0.929 . S
H2038 C2028 0.931 . S
H2039 C2029 0.929 . S
Tb2040 N2069 2.617 . S
Tb2040 N2075 2.572 . S
Tb2040 O2084 2.465 . S
Tb2040 O2085 2.387 . S
Tb2040 O2087 2.428 . S
Tb2040 O2088 2.308 . S
Tb2040 O2092 2.349 . S
Tb2040 O2095 2.393 . S
Tb2040 C2104 2.802 . S
C2041 N2042 1.379 . S
C2041 C2044 1.416 . S
C2041 C2048 1.424 . S
N2042 C2041 1.379 . S
N2042 C2045 1.334 . S
N2042 Tb2051 2.617 . S
C2043 C2045 1.390 . S
C2043 C2046 1.339 . S
C2043 H2063 0.930 . S
C2044 C2041 1.416 . S
C2044 C2046 1.416 . S
C2044 C2050 1.448 . S
C2045 N2042 1.334 . S
C2045 C2043 1.390 . S
C2045 H2056 0.930 . S
C2046 C2043 1.339 . S
C2046 C2044 1.416 . S
C2046 H2067 0.930 . S
C2047 C2048 1.413 . S
C2047 C2049 1.427 . S
C2047 C2053 1.416 . S
C2048 C2041 1.424 . S
C2048 C2047 1.413 . S
C2048 N2052 1.361 . S
C2049 C2047 1.427 . S
C2049 C2050 1.328 . S
C2049 H2064 0.929 . S
C2050 C2044 1.448 . S
C2050 C2049 1.328 . S
C2050 H2065 0.930 . S
Tb2051 N2042 2.617 . S
Tb2051 N2052 2.572 . S
Tb2051 O2086 2.349 . S
Tb2051 O2089 2.393 . S
Tb2051 O2090 2.465 . S
Tb2051 O2091 2.387 . S
Tb2051 O2093 2.428 . S
Tb2051 O2094 2.308 . S
Tb2051 C2115 2.802 . S
N2052 C2048 1.361 . S
N2052 Tb2051 2.572 . S
N2052 C2054 1.340 . S
C2053 C2047 1.416 . S
C2053 C2055 1.332 . S
C2053 H2061 0.931 . S
C2054 N2052 1.340 . S
C2054 C2055 1.407 . S
C2054 H2060 0.930 . S
C2055 C2053 1.332 . S
C2055 C2054 1.407 . S
C2055 H2057 0.929 . S
H2056 C2045 0.930 . S
H2057 C2055 0.929 . S
H2058 C2073 0.930 . S
H2059 C2080 0.929 . S
H2060 C2054 0.930 . S
H2061 C2053 0.931 . S
H2062 C2076 0.930 . S
H2063 C2043 0.930 . S
H2064 C2049 0.929 . S
H2065 C2050 0.930 . S
H2066 C2071 0.930 . S
H2067 C2046 0.930 . S
H2068 C2079 0.931 . S
N2069 Tb2040 2.617 . S
N2069 C2070 1.379 . S
N2069 C2073 1.334 . S
C2070 N2069 1.379 . S
C2070 C2072 1.416 . S
C2070 C2078 1.424 . S
C2071 H2066 0.930 . S
C2071 C2073 1.390 . S
C2071 C2074 1.339 . S
C2072 C2070 1.416 . S
C2072 C2074 1.416 . S
C2072 C2105 1.448 . S
C2073 H2058 0.930 . S
C2073 N2069 1.334 . S
C2073 C2071 1.390 . S
C2074 C2071 1.339 . S
C2074 C2072 1.416 . S
C2074 H2081 0.930 . S
N2075 Tb2040 2.572 . S
N2075 C2076 1.340 . S
N2075 C2078 1.361 . S
C2076 H2062 0.930 . S
C2076 N2075 1.340 . S
C2076 C2080 1.407 . S
C2077 C2078 1.413 . S
C2077 C2079 1.416 . S
C2077 C2106 1.427 . S
C2078 C2070 1.424 . S
C2078 N2075 1.361 . S
C2078 C2077 1.413 . S
C2079 H2068 0.931 . S
C2079 C2077 1.416 . S
C2079 C2080 1.332 . S
C2080 H2059 0.929 . S
C2080 C2076 1.407 . S
C2080 C2079 1.332 . S
H2081 C2074 0.930 . S
H2082 C2105 0.930 . S
H2083 C2106 0.929 . S
O2084 Tb2040 2.465 . S
O2084 C2104 1.264 . S
O2085 Tb2040 2.387 . S
O2085 C2096 1.264 . S
O2086 Tb2051 2.349 . S
O2086 C2096 1.243 . S
O2087 Tb2040 2.428 . S
O2087 C2104 1.256 . S
O2088 Tb2040 2.308 . S
O2088 C2103 1.266 . S
O2089 Tb2051 2.393 . S
O2089 C2103 1.248 . S
O2090 Tb2051 2.465 . S
O2090 C2115 1.264 . S
O2091 Tb2051 2.387 . S
O2091 C2107 1.264 . S
O2092 Tb2040 2.349 . S
O2092 C2107 1.243 . S
O2093 Tb2051 2.428 . S
O2093 C2115 1.256 . S
O2094 Tb2051 2.308 . S
O2094 C2114 1.266 . S
O2095 Tb2040 2.393 . S
O2095 C2114 1.248 . S
C2096 O2085 1.264 . S
C2096 O2086 1.243 . S
C2097 C2100 1.399 . S
C2097 C2102 1.383 . S
C2097 C2104 1.496 . S
C2098 C2099 1.399 . S
C2098 C2102 1.389 . S
C2099 C2098 1.399 . S
C2099 C2101 1.380 . S
C2099 H2116 0.929 . S
C2100 C2097 1.399 . S
C2100 C2101 1.392 . S
C2100 H2117 0.929 . S
C2101 C2099 1.380 . S
C2101 C2100 1.392 . S
C2101 H2118 0.929 . S
C2102 C2097 1.383 . S
C2102 C2098 1.389 . S
C2102 H2119 0.931 . S
C2103 O2088 1.266 . S
C2103 O2089 1.248 . S
C2104 Tb2040 2.802 . S
C2104 O2084 1.264 . S
C2104 O2087 1.256 . S
C2104 C2097 1.496 . S
C2105 C2072 1.448 . S
C2105 H2082 0.930 . S
C2105 C2106 1.328 . S
C2106 C2077 1.427 . S
C2106 H2083 0.929 . S
C2106 C2105 1.328 . S
C2107 O2091 1.264 . S
C2107 O2092 1.243 . S
C2108 C2111 1.399 . S
C2108 C2112 1.383 . S
C2108 C2115 1.496 . S
C2109 C2110 1.399 . S
C2109 C2112 1.389 . S
C2110 C2109 1.399 . S
C2110 C2113 1.380 . S
C2110 H2120 0.929 . S
C2111 C2108 1.399 . S
C2111 C2113 1.392 . S
C2111 H2121 0.929 . S
C2112 C2108 1.383 . S
C2112 C2109 1.389 . S
C2112 H2122 0.931 . S
C2113 C2110 1.380 . S
C2113 C2111 1.392 . S
C2113 H2123 0.929 . S
C2114 O2094 1.266 . S
C2114 O2095 1.248 . S
C2115 Tb2051 2.802 . S
C2115 O2090 1.264 . S
C2115 O2093 1.256 . S
C2115 C2108 1.496 . S
H2116 C2099 0.929 . S
H2117 C2100 0.929 . S
H2118 C2101 0.929 . S
H2119 C2102 0.931 . S
H2120 C2110 0.929 . S
H2121 C2111 0.929 . S
H2122 C2112 0.931 . S
H2123 C2113 0.929 . S
Tb2124 N2153 2.605 1_455 S
Tb2124 N2159 2.543 1_455 S
Tb2124 O2168 2.427 1_455 S
Tb2124 O2169 2.411 . S
Tb2124 O2171 2.396 1_455 S
Tb2124 O2172 2.318 . S
Tb2124 O2176 2.363 . S
Tb2124 O2179 2.424 . S
Tb2124 C2188 2.763 1_455 S
C2125 N2126 1.379 . S
C2125 C2128 1.416 . S
C2125 C2132 1.424 1_556 S
N2126 C2125 1.379 . S
N2126 C2129 1.334 . S
N2126 Tb2135 2.617 1_556 S
C2127 C2129 1.390 . S
C2127 C2130 1.339 . S
C2127 H2147 0.930 . S
C2128 C2125 1.416 . S
C2128 C2130 1.416 . S
C2128 C2134 1.448 . S
C2129 N2126 1.334 . S
C2129 C2127 1.390 . S
C2129 H2140 0.930 . S
C2130 C2127 1.339 . S
C2130 C2128 1.416 . S
C2130 H2151 0.930 . S
C2131 C2132 1.413 . S
C2131 C2133 1.427 . S
C2131 C2137 1.416 . S
C2132 C2125 1.424 1_554 S
C2132 C2131 1.413 . S
C2132 N2136 1.361 . S
C2133 C2131 1.427 . S
C2133 C2134 1.328 1_554 S
C2133 H2148 0.929 . S
C2134 C2128 1.448 . S
C2134 C2133 1.328 1_556 S
C2134 H2149 0.930 . S
Tb2135 N2126 2.617 1_554 S
Tb2135 N2136 2.572 . S
Tb2135 O2170 2.349 . S
Tb2135 O2173 2.393 1_554 S
Tb2135 O2174 2.465 . S
Tb2135 O2175 2.387 . S
Tb2135 O2177 2.428 1_554 S
Tb2135 O2178 2.308 . S
Tb2135 C2199 2.802 . S
N2136 C2132 1.361 . S
N2136 Tb2135 2.572 . S
N2136 C2138 1.340 . S
C2137 C2131 1.416 . S
C2137 C2139 1.332 . S
C2137 H2145 0.931 . S
C2138 N2136 1.340 . S
C2138 C2139 1.407 . S
C2138 H2144 0.930 . S
C2139 C2137 1.332 . S
C2139 C2138 1.407 . S
C2139 H2141 0.929 . S
H2140 C2129 0.930 . S
H2141 C2139 0.929 . S
H2142 C2157 0.930 1_455 S
H2143 C2164 0.929 . S
H2144 C2138 0.930 . S
H2145 C2137 0.931 . S
H2146 C2160 0.930 1_556 S
H2147 C2127 0.930 . S
H2148 C2133 0.929 . S
H2149 C2134 0.930 . S
H2150 C2155 0.930 . S
H2151 C2130 0.930 . S
H2152 C2163 0.931 . S
N2153 Tb2124 2.605 1_655 S
N2153 C2154 1.379 . S
N2153 C2157 1.334 . S
C2154 N2153 1.379 . S
C2154 C2156 1.416 . S
C2154 C2162 1.424 . S
C2155 H2150 0.930 . S
C2155 C2157 1.390 . S
C2155 C2158 1.339 . S
C2156 C2154 1.416 . S
C2156 C2158 1.416 . S
C2156 C2189 1.448 . S
C2157 H2142 0.930 1_655 S
C2157 N2153 1.334 . S
C2157 C2155 1.390 . S
C2158 C2155 1.339 . S
C2158 C2156 1.416 . S
C2158 H2165 0.930 . S
N2159 Tb2124 2.543 1_655 S
N2159 C2160 1.340 . S
N2159 C2162 1.361 . S
C2160 H2146 0.930 1_554 S
C2160 N2159 1.340 . S
C2160 C2164 1.407 1_554 S
C2161 C2162 1.413 . S
C2161 C2163 1.416 . S
C2161 C2190 1.427 . S
C2162 C2154 1.424 . S
C2162 N2159 1.361 . S
C2162 C2161 1.413 . S
C2163 H2152 0.931 . S
C2163 C2161 1.416 . S
C2163 C2164 1.332 1_554 S
C2164 H2143 0.929 . S
C2164 C2160 1.407 1_556 S
C2164 C2163 1.332 1_556 S
H2165 C2158 0.930 . S
H2166 C2189 0.930 . S
H2167 C2190 0.929 . S
O2168 Tb2124 2.427 1_655 S
O2168 C2188 1.264 . S
O2169 Tb2124 2.411 . S
O2169 C2180 1.264 . S
O2170 Tb2135 2.349 . S
O2170 C2180 1.243 . S
O2171 Tb2124 2.396 1_655 S
O2171 C2188 1.256 . S
O2172 Tb2124 2.318 . S
O2172 C2187 1.266 1_554 S
O2173 Tb2135 2.393 1_556 S
O2173 C2187 1.248 . S
O2174 Tb2135 2.465 . S
O2174 C2199 1.264 . S
O2175 Tb2135 2.387 . S
O2175 C2191 1.264 . S
O2176 Tb2124 2.363 . S
O2176 C2191 1.243 . S
O2177 Tb2135 2.428 1_556 S
O2177 C2199 1.256 1_556 S
O2178 Tb2135 2.308 . S
O2178 C2198 1.266 . S
O2179 Tb2124 2.424 . S
O2179 C2198 1.248 . S
C2180 O2169 1.264 . S
C2180 O2170 1.243 . S
C2181 C2184 1.399 . S
C2181 C2186 1.383 . S
C2181 C2188 1.496 . S
C2182 C2183 1.399 . S
C2182 C2186 1.389 . S
C2183 C2182 1.399 . S
C2183 C2185 1.380 . S
C2183 H2200 0.929 . S
C2184 C2181 1.399 . S
C2184 C2185 1.392 . S
C2184 H2201 0.929 . S
C2185 C2183 1.380 . S
C2185 C2184 1.392 . S
C2185 H2202 0.929 . S
C2186 C2181 1.383 . S
C2186 C2182 1.389 . S
C2186 H2203 0.931 . S
C2187 O2172 1.266 1_556 S
C2187 O2173 1.248 . S
C2188 Tb2124 2.763 1_655 S
C2188 O2168 1.264 . S
C2188 O2171 1.256 . S
C2188 C2181 1.496 . S
C2189 C2156 1.448 . S
C2189 H2166 0.930 . S
C2189 C2190 1.328 . S
C2190 C2161 1.427 . S
C2190 H2167 0.929 . S
C2190 C2189 1.328 . S
C2191 O2175 1.264 . S
C2191 O2176 1.243 . S
C2192 C2195 1.399 . S
C2192 C2196 1.383 1_556 S
C2192 C2199 1.496 1_556 S
C2193 C2194 1.399 1_554 S
C2193 C2196 1.389 . S
C2194 C2193 1.399 1_556 S
C2194 C2197 1.380 . S
C2194 H2204 0.929 . S
C2195 C2192 1.399 . S
C2195 C2197 1.392 . S
C2195 H2205 0.929 . S
C2196 C2192 1.383 1_554 S
C2196 C2193 1.389 . S
C2196 H2206 0.931 . S
C2197 C2194 1.380 . S
C2197 C2195 1.392 . S
C2197 H2207 0.929 . S
C2198 O2178 1.266 . S
C2198 O2179 1.248 . S
C2199 Tb2135 2.802 . S
C2199 O2174 1.264 . S
C2199 O2177 1.256 1_554 S
C2199 C2192 1.496 1_554 S
H2200 C2183 0.929 . S
H2201 C2184 0.929 . S
H2202 C2185 0.929 . S
H2203 C2186 0.931 . S
H2204 C2194 0.929 . S
H2205 C2195 0.929 . S
H2206 C2196 0.931 . S
H2207 C2197 0.929 . S
H2208 C2226 0.951 . S
H2209 C2228 0.951 . S
H2210 C2230 0.950 . S
H2211 C2231 0.950 . S
H2212 C2233 0.950 1_554 S
H2213 C2236 0.950 . S
H2214 C2237 0.950 . S
H2215 C2239 0.950 . S
H2216 C2240 0.948 . S
H2217 C2241 0.951 . S
H2218 C2243 0.951 . S
H2219 C2245 0.950 . S
H2220 C2246 0.950 . S
H2221 C2248 0.950 1_655 S
H2222 C2251 0.950 . S
H2223 C2252 0.950 . S
H2224 C2254 0.950 . S
H2225 C2255 0.950 . S
C2226 H2208 0.951 . S
C2226 C2227 1.366 1_455 S
C2226 C2228 1.388 . S
C2227 C2226 1.366 1_655 S
C2227 C2231 1.385 . S
C2228 H2209 0.951 . S
C2228 C2226 1.388 . S
C2228 C2229 1.366 . S
C2229 C2228 1.366 . S
C2229 C2230 1.414 1_455 S
C2229 C2232 1.499 . S
C2230 H2210 0.950 . S
C2230 C2229 1.414 1_655 S
C2230 C2231 1.374 . S
C2231 H2211 0.950 . S
C2231 C2227 1.385 . S
C2231 C2230 1.374 . S
C2232 C2229 1.499 . S
C2232 C2233 1.373 . S
C2232 C2234 1.389 1_455 S
C2233 H2212 0.950 1_556 S
C2233 C2232 1.373 . S
C2233 C2249 1.398 . S
C2234 C2232 1.389 1_655 S
C2234 C2235 1.524 . S
C2234 C2248 1.377 1_655 S
C2235 C2234 1.524 . S
C2235 C2236 1.397 . S
C2235 C2240 1.363 . S
C2236 H2213 0.950 . S
C2236 C2235 1.397 . S
C2236 C2237 1.334 . S
C2237 H2214 0.950 . S
C2237 C2236 1.334 . S
C2237 C2238 1.287 . S
C2238 C2237 1.287 . S
C2238 C2239 1.524 . S
C2238 H2257 0.913 . S
C2239 H2215 0.950 . S
C2239 C2238 1.524 . S
C2239 C2240 1.415 . S
C2240 H2216 0.948 . S
C2240 C2235 1.363 . S
C2240 C2239 1.415 . S
C2241 H2217 0.951 . S
C2241 C2242 1.366 . S
C2241 C2243 1.388 . S
C2242 C2241 1.366 . S
C2242 C2246 1.385 1_554 S
C2243 H2218 0.951 . S
C2243 C2241 1.388 . S
C2243 C2244 1.366 1_554 S
C2244 C2243 1.366 1_556 S
C2244 C2245 1.414 . S
C2244 C2247 1.499 . S
C2245 H2219 0.950 . S
C2245 C2244 1.414 . S
C2245 C2246 1.374 . S
C2246 H2220 0.950 . S
C2246 C2242 1.385 1_556 S
C2246 C2245 1.374 . S
C2247 C2244 1.499 . S
C2247 C2248 1.373 . S
C2247 C2249 1.415 . S
C2248 H2221 0.950 1_455 S
C2248 C2234 1.377 1_455 S
C2248 C2247 1.373 . S
C2249 C2233 1.398 . S
C2249 C2247 1.415 . S
C2249 C2250 1.480 1_556 S
C2250 C2249 1.480 1_554 S
C2250 C2251 1.397 . S
C2250 C2255 1.363 . S
C2251 H2222 0.950 . S
C2251 C2250 1.397 . S
C2251 C2252 1.334 . S
C2252 H2223 0.950 . S
C2252 C2251 1.334 . S
C2252 C2253 1.287 . S
C2253 C2252 1.287 . S
C2253 C2254 1.524 . S
C2253 H2256 0.999 . S
C2254 H2224 0.950 . S
C2254 C2253 1.524 . S
C2254 C2255 1.415 . S
C2255 H2225 0.950 . S
C2255 C2250 1.363 . S
C2255 C2254 1.415 . S
H2256 C2253 0.999 . S
H2257 C2238 0.913 . S
H2258 C2276 0.951 . S
H2259 C2278 0.951 . S
H2260 C2280 0.950 . S
H2261 C2281 0.950 . S
H2262 C2283 0.950 . S
H2263 C2286 0.950 . S
H2264 C2287 0.950 . S
H2265 C2289 0.950 . S
H2266 C2290 0.950 . S
H2267 C2291 0.951 . S
H2268 C2293 0.951 . S
H2269 C2295 0.950 . S
H2270 C2296 0.950 . S
H2271 C2298 0.950 . S
H2272 C2301 0.950 . S
H2273 C2302 0.950 . S
H2274 C2304 0.950 . S
H2275 C2305 0.950 . S
C2276 H2258 0.951 . S
C2276 C2277 1.366 . S
C2276 C2278 1.388 . S
C2277 C2276 1.366 . S
C2277 C2281 1.385 . S
C2278 H2259 0.951 . S
C2278 C2276 1.388 . S
C2278 C2279 1.366 . S
C2279 C2278 1.366 . S
C2279 C2280 1.414 . S
C2279 C2282 1.499 . S
C2280 H2260 0.950 . S
C2280 C2279 1.414 . S
C2280 C2281 1.374 . S
C2281 H2261 0.950 . S
C2281 C2277 1.385 . S
C2281 C2280 1.374 . S
C2282 C2279 1.499 . S
C2282 C2283 1.373 . S
C2282 C2284 1.389 . S
C2283 H2262 0.950 . S
C2283 C2282 1.373 . S
C2283 C2299 1.377 . S
C2284 C2282 1.389 . S
C2284 C2285 1.524 . S
C2284 C2298 1.377 . S
C2285 C2284 1.524 . S
C2285 C2286 1.397 . S
C2285 C2290 1.363 . S
C2286 H2263 0.950 . S
C2286 C2285 1.397 . S
C2286 C2287 1.334 . S
C2287 H2264 0.950 . S
C2287 C2286 1.334 . S
C2287 C2288 1.287 . S
C2288 C2287 1.287 . S
C2288 C2289 1.524 . S
C2288 H2307 0.913 . S
C2289 H2265 0.950 . S
C2289 C2288 1.524 . S
C2289 C2290 1.415 . S
C2290 H2266 0.950 . S
C2290 C2285 1.363 . S
C2290 C2289 1.415 . S
C2291 H2267 0.951 . S
C2291 C2292 1.366 . S
C2291 C2293 1.388 . S
C2292 C2291 1.366 . S
C2292 C2296 1.385 . S
C2293 H2268 0.951 . S
C2293 C2291 1.388 . S
C2293 C2294 1.366 . S
C2294 C2293 1.366 . S
C2294 C2295 1.414 . S
C2294 C2297 1.499 . S
C2295 H2269 0.950 . S
C2295 C2294 1.414 . S
C2295 C2296 1.374 . S
C2296 H2270 0.950 . S
C2296 C2292 1.385 . S
C2296 C2295 1.374 . S
C2297 C2294 1.499 . S
C2297 C2298 1.373 . S
C2297 C2299 1.389 . S
C2298 H2271 0.950 . S
C2298 C2284 1.377 . S
C2298 C2297 1.373 . S
C2299 C2283 1.377 . S
C2299 C2297 1.389 . S
C2299 C2300 1.524 . S
C2300 C2299 1.524 . S
C2300 C2301 1.397 . S
C2300 C2305 1.363 . S
C2301 H2272 0.950 . S
C2301 C2300 1.397 . S
C2301 C2302 1.334 . S
C2302 H2273 0.950 . S
C2302 C2301 1.334 . S
C2302 C2303 1.287 . S
C2303 C2302 1.287 . S
C2303 C2304 1.524 . S
C2303 H2306 0.999 . S
C2304 H2274 0.950 . S
C2304 C2303 1.524 . S
C2304 C2305 1.415 . S
C2305 H2275 0.950 . S
C2305 C2300 1.363 . S
C2305 C2304 1.415 . S
H2306 C2303 0.999 . S
H2307 C2288 0.913 . S
H2308 C2326 0.951 . S
H2309 C2328 0.951 . S
H2310 C2330 0.950 . S
H2311 C2331 0.950 . S
H2312 C2333 0.950 . S
H2313 C2336 0.950 . S
H2314 C2337 0.950 . S
H2315 C2339 0.950 . S
H2316 C2340 0.950 . S
H2317 C2341 0.951 . S
H2318 C2343 0.951 . S
H2319 C2345 0.950 . S
H2320 C2346 0.950 . S
H2321 C2348 0.950 . S
H2322 C2351 0.950 . S
H2323 C2352 0.950 . S
H2324 C2354 0.950 . S
H2325 C2355 0.950 . S
C2326 H2308 0.951 . S
C2326 C2327 1.366 . S
C2326 C2328 1.388 . S
C2327 C2326 1.366 . S
C2327 C2331 1.385 . S
C2328 H2309 0.951 . S
C2328 C2326 1.388 . S
C2328 C2329 1.366 . S
C2329 C2328 1.366 . S
C2329 C2330 1.414 . S
C2329 C2332 1.499 . S
C2330 H2310 0.950 . S
C2330 C2329 1.414 . S
C2330 C2331 1.374 . S
C2331 H2311 0.950 . S
C2331 C2327 1.385 . S
C2331 C2330 1.374 . S
C2332 C2329 1.499 . S
C2332 C2333 1.373 . S
C2332 C2334 1.389 . S
C2333 H2312 0.950 . S
C2333 C2332 1.373 . S
C2333 C2349 1.377 . S
C2334 C2332 1.389 . S
C2334 C2335 1.524 . S
C2334 C2348 1.377 . S
C2335 C2334 1.524 . S
C2335 C2336 1.397 . S
C2335 C2340 1.363 . S
C2336 H2313 0.950 . S
C2336 C2335 1.397 . S
C2336 C2337 1.334 . S
C2337 H2314 0.950 . S
C2337 C2336 1.334 . S
C2337 C2338 1.287 . S
C2338 C2337 1.287 . S
C2338 C2339 1.524 . S
C2338 H2357 0.913 . S
C2339 H2315 0.950 . S
C2339 C2338 1.524 . S
C2339 C2340 1.415 . S
C2340 H2316 0.950 . S
C2340 C2335 1.363 . S
C2340 C2339 1.415 . S
C2341 H2317 0.951 . S
C2341 C2342 1.366 . S
C2341 C2343 1.388 . S
C2342 C2341 1.366 . S
C2342 C2346 1.385 . S
C2343 H2318 0.951 . S
C2343 C2341 1.388 . S
C2343 C2344 1.366 . S
C2344 C2343 1.366 . S
C2344 C2345 1.414 . S
C2344 C2347 1.499 . S
C2345 H2319 0.950 . S
C2345 C2344 1.414 . S
C2345 C2346 1.374 . S
C2346 H2320 0.950 . S
C2346 C2342 1.385 . S
C2346 C2345 1.374 . S
C2347 C2344 1.499 . S
C2347 C2348 1.373 . S
C2347 C2349 1.389 . S
C2348 H2321 0.950 . S
C2348 C2334 1.377 . S
C2348 C2347 1.373 . S
C2349 C2333 1.377 . S
C2349 C2347 1.389 . S
C2349 C2350 1.524 . S
C2350 C2349 1.524 . S
C2350 C2351 1.397 . S
C2350 C2355 1.363 . S
C2351 H2322 0.950 . S
C2351 C2350 1.397 . S
C2351 C2352 1.334 . S
C2352 H2323 0.950 . S
C2352 C2351 1.334 . S
C2352 C2353 1.287 . S
C2353 C2352 1.287 . S
C2353 C2354 1.524 . S
C2353 H2356 0.999 . S
C2354 H2324 0.950 . S
C2354 C2353 1.524 . S
C2354 C2355 1.415 . S
C2355 H2325 0.950 . S
C2355 C2350 1.363 . S
C2355 C2354 1.415 . S
H2356 C2353 0.999 . S
H2357 C2338 0.913 . S
H2358 C2376 0.951 . S
H2359 C2378 0.951 . S
H2360 C2380 0.950 . S
H2361 C2381 0.950 . S
H2362 C2383 0.950 . S
H2363 C2386 0.950 . S
H2364 C2387 0.950 . S
H2365 C2389 0.950 . S
H2366 C2390 0.950 . S
H2367 C2391 0.951 . S
H2368 C2393 0.951 . S
H2369 C2395 0.950 . S
H2370 C2396 0.950 . S
H2371 C2398 0.950 . S
H2372 C2401 0.950 . S
H2373 C2402 0.950 . S
H2374 C2404 0.950 . S
H2375 C2405 0.950 . S
C2376 H2358 0.951 . S
C2376 C2377 1.366 . S
C2376 C2378 1.388 . S
C2377 C2376 1.366 . S
C2377 C2381 1.385 . S
C2378 H2359 0.951 . S
C2378 C2376 1.388 . S
C2378 C2379 1.366 . S
C2379 C2378 1.366 . S
C2379 C2380 1.414 . S
C2379 C2382 1.499 . S
C2380 H2360 0.950 . S
C2380 C2379 1.414 . S
C2380 C2381 1.374 . S
C2381 H2361 0.950 . S
C2381 C2377 1.385 . S
C2381 C2380 1.374 . S
C2382 C2379 1.499 . S
C2382 C2383 1.373 . S
C2382 C2384 1.389 . S
C2383 H2362 0.950 . S
C2383 C2382 1.373 . S
C2383 C2399 1.377 . S
C2384 C2382 1.389 . S
C2384 C2385 1.524 . S
C2384 C2398 1.377 . S
C2385 C2384 1.524 . S
C2385 C2386 1.397 . S
C2385 C2390 1.363 . S
C2386 H2363 0.950 . S
C2386 C2385 1.397 . S
C2386 C2387 1.334 . S
C2387 H2364 0.950 . S
C2387 C2386 1.334 . S
C2387 C2388 1.287 . S
C2388 C2387 1.287 . S
C2388 C2389 1.524 . S
C2388 H2407 0.913 . S
C2389 H2365 0.950 . S
C2389 C2388 1.524 . S
C2389 C2390 1.415 . S
C2390 H2366 0.950 . S
C2390 C2385 1.363 . S
C2390 C2389 1.415 . S
C2391 H2367 0.951 . S
C2391 C2392 1.366 . S
C2391 C2393 1.388 . S
C2392 C2391 1.366 . S
C2392 C2396 1.385 . S
C2393 H2368 0.951 . S
C2393 C2391 1.388 . S
C2393 C2394 1.366 . S
C2394 C2393 1.366 . S
C2394 C2395 1.414 . S
C2394 C2397 1.499 . S
C2395 H2369 0.950 . S
C2395 C2394 1.414 . S
C2395 C2396 1.374 . S
C2396 H2370 0.950 . S
C2396 C2392 1.385 . S
C2396 C2395 1.374 . S
C2397 C2394 1.499 . S
C2397 C2398 1.373 . S
C2397 C2399 1.389 . S
C2398 H2371 0.950 . S
C2398 C2384 1.377 . S
C2398 C2397 1.373 . S
C2399 C2383 1.377 . S
C2399 C2397 1.389 . S
C2399 C2400 1.524 . S
C2400 C2399 1.524 . S
C2400 C2401 1.397 . S
C2400 C2405 1.363 . S
C2401 H2372 0.950 . S
C2401 C2400 1.397 . S
C2401 C2402 1.334 . S
C2402 H2373 0.950 . S
C2402 C2401 1.334 . S
C2402 C2403 1.287 . S
C2403 C2402 1.287 . S
C2403 C2404 1.524 . S
C2403 H2406 0.999 . S
C2404 H2374 0.950 . S
C2404 C2403 1.524 . S
C2404 C2405 1.415 . S
C2405 H2375 0.950 . S
C2405 C2400 1.363 . S
C2405 C2404 1.415 . S
H2406 C2403 0.999 . S
H2407 C2388 0.913 . S
H2408 C2426 0.951 1_655 S
H2409 C2428 0.951 1_655 S
H2410 C2430 0.950 . S
H2411 C2431 0.950 . S
H2412 C2433 0.950 . S
H2413 C2436 0.950 . S
H2414 C2437 0.950 . S
H2415 C2439 0.950 . S
H2416 C2440 0.950 . S
H2417 C2441 0.951 . S
H2418 C2443 0.951 . S
H2419 C2445 0.950 1_655 S
H2420 C2446 0.950 1_655 S
H2421 C2448 0.950 . S
H2422 C2451 0.950 . S
H2423 C2452 0.950 . S
H2424 C2454 0.950 . S
H2425 C2455 0.950 . S
C2426 H2408 0.951 1_455 S
C2426 C2427 1.366 . S
C2426 C2428 1.388 . S
C2427 C2426 1.366 . S
C2427 C2431 1.385 . S
C2428 H2409 0.951 1_455 S
C2428 C2426 1.388 . S
C2428 C2429 1.366 . S
C2429 C2428 1.366 . S
C2429 C2430 1.414 . S
C2429 C2432 1.499 . S
C2430 H2410 0.950 . S
C2430 C2429 1.414 . S
C2430 C2431 1.374 . S
C2431 H2411 0.950 . S
C2431 C2427 1.385 . S
C2431 C2430 1.374 . S
C2432 C2429 1.499 . S
C2432 C2433 1.373 . S
C2432 C2434 1.389 . S
C2433 H2412 0.950 . S
C2433 C2432 1.373 . S
C2433 C2449 1.377 . S
C2434 C2432 1.389 . S
C2434 C2435 1.524 . S
C2434 C2448 1.377 . S
C2435 C2434 1.524 . S
C2435 C2436 1.397 . S
C2435 C2440 1.363 1_455 S
C2436 H2413 0.950 . S
C2436 C2435 1.397 . S
C2436 C2437 1.334 . S
C2437 H2414 0.950 . S
C2437 C2436 1.334 . S
C2437 C2438 1.287 1_455 S
C2438 C2437 1.287 1_655 S
C2438 C2439 1.524 . S
C2438 H2457 0.913 . S
C2439 H2415 0.950 . S
C2439 C2438 1.524 . S
C2439 C2440 1.415 . S
C2440 H2416 0.950 . S
C2440 C2435 1.363 1_655 S
C2440 C2439 1.415 . S
C2441 H2417 0.951 . S
C2441 C2442 1.366 . S
C2441 C2443 1.388 . S
C2442 C2441 1.366 . S
C2442 C2446 1.385 . S
C2443 H2418 0.951 . S
C2443 C2441 1.388 . S
C2443 C2444 1.366 . S
C2444 C2443 1.366 . S
C2444 C2445 1.414 . S
C2444 C2447 1.499 . S
C2445 H2419 0.950 1_455 S
C2445 C2444 1.414 . S
C2445 C2446 1.374 . S
C2446 H2420 0.950 1_455 S
C2446 C2442 1.385 . S
C2446 C2445 1.374 . S
C2447 C2444 1.499 . S
C2447 C2448 1.373 . S
C2447 C2449 1.389 . S
C2448 H2421 0.950 . S
C2448 C2434 1.377 . S
C2448 C2447 1.373 . S
C2449 C2433 1.377 . S
C2449 C2447 1.389 . S
C2449 C2450 1.524 . S
C2450 C2449 1.524 . S
C2450 C2451 1.397 . S
C2450 C2455 1.363 . S
C2451 H2422 0.950 . S
C2451 C2450 1.397 . S
C2451 C2452 1.334 . S
C2452 H2423 0.950 . S
C2452 C2451 1.334 . S
C2452 C2453 1.287 . S
C2453 C2452 1.287 . S
C2453 C2454 1.524 . S
C2453 H2456 0.999 . S
C2454 H2424 0.950 . S
C2454 C2453 1.524 . S
C2454 C2455 1.415 . S
C2455 H2425 0.950 . S
C2455 C2450 1.363 . S
C2455 C2454 1.415 . S
H2456 C2453 0.999 . S
H2457 C2438 0.913 . S
H2458 C2476 0.951 . S
H2459 C2478 0.951 . S
H2460 C2480 0.950 . S
H2461 C2481 0.950 . S
H2462 C2483 0.950 . S
H2463 C2486 0.950 . S
H2464 C2487 0.950 . S
H2465 C2489 0.950 . S
H2466 C2490 0.950 . S
H2467 C2491 0.951 . S
H2468 C2493 0.951 . S
H2469 C2495 0.950 . S
H2470 C2496 0.950 . S
H2471 C2498 0.950 . S
H2472 C2501 0.950 . S
H2473 C2502 0.950 . S
H2474 C2504 0.950 . S
H2475 C2505 0.950 . S
C2476 H2458 0.951 . S
C2476 C2477 1.366 . S
C2476 C2478 1.388 . S
C2477 C2476 1.366 . S
C2477 C2481 1.385 . S
C2478 H2459 0.951 . S
C2478 C2476 1.388 . S
C2478 C2479 1.366 . S
C2479 C2478 1.366 . S
C2479 C2480 1.414 . S
C2479 C2482 1.499 . S
C2480 H2460 0.950 . S
C2480 C2479 1.414 . S
C2480 C2481 1.374 . S
C2481 H2461 0.950 . S
C2481 C2477 1.385 . S
C2481 C2480 1.374 . S
C2482 C2479 1.499 . S
C2482 C2483 1.373 . S
C2482 C2484 1.389 . S
C2483 H2462 0.950 . S
C2483 C2482 1.373 . S
C2483 C2499 1.377 . S
C2484 C2482 1.389 . S
C2484 C2485 1.524 . S
C2484 C2498 1.377 . S
C2485 C2484 1.524 . S
C2485 C2486 1.397 . S
C2485 C2490 1.363 . S
C2486 H2463 0.950 . S
C2486 C2485 1.397 . S
C2486 C2487 1.334 . S
C2487 H2464 0.950 . S
C2487 C2486 1.334 . S
C2487 C2488 1.287 . S
C2488 C2487 1.287 . S
C2488 C2489 1.524 . S
C2488 H2507 0.913 . S
C2489 H2465 0.950 . S
C2489 C2488 1.524 . S
C2489 C2490 1.415 . S
C2490 H2466 0.950 . S
C2490 C2485 1.363 . S
C2490 C2489 1.415 . S
C2491 H2467 0.951 . S
C2491 C2492 1.366 . S
C2491 C2493 1.388 . S
C2492 C2491 1.366 . S
C2492 C2496 1.385 . S
C2493 H2468 0.951 . S
C2493 C2491 1.388 . S
C2493 C2494 1.366 . S
C2494 C2493 1.366 . S
C2494 C2495 1.414 . S
C2494 C2497 1.499 . S
C2495 H2469 0.950 . S
C2495 C2494 1.414 . S
C2495 C2496 1.374 . S
C2496 H2470 0.950 . S
C2496 C2492 1.385 . S
C2496 C2495 1.374 . S
C2497 C2494 1.499 . S
C2497 C2498 1.373 . S
C2497 C2499 1.389 . S
C2498 H2471 0.950 . S
C2498 C2484 1.377 . S
C2498 C2497 1.373 . S
C2499 C2483 1.377 . S
C2499 C2497 1.389 . S
C2499 C2500 1.524 . S
C2500 C2499 1.524 . S
C2500 C2501 1.397 . S
C2500 C2505 1.363 . S
C2501 H2472 0.950 . S
C2501 C2500 1.397 . S
C2501 C2502 1.334 . S
C2502 H2473 0.950 . S
C2502 C2501 1.334 . S
C2502 C2503 1.287 . S
C2503 C2502 1.287 . S
C2503 C2504 1.524 . S
C2503 H2506 0.999 . S
C2504 H2474 0.950 . S
C2504 C2503 1.524 . S
C2504 C2505 1.415 . S
C2505 H2475 0.950 . S
C2505 C2500 1.363 . S
C2505 C2504 1.415 . S
H2506 C2503 0.999 . S
H2507 C2488 0.913 . S
H2508 C2526 0.951 . S
H2509 C2528 0.951 . S
H2510 C2530 0.950 . S
H2511 C2531 0.950 . S
H2512 C2533 0.950 . S
H2513 C2536 0.950 . S
H2514 C2537 0.950 . S
H2515 C2539 0.950 . S
H2516 C2540 0.950 . S
H2517 C2541 0.951 . S
H2518 C2543 0.951 . S
H2519 C2545 0.950 . S
H2520 C2546 0.950 . S
H2521 C2548 0.950 . S
H2522 C2551 0.950 . S
H2523 C2552 0.950 . S
H2524 C2554 0.950 . S
H2525 C2555 0.950 . S
C2526 H2508 0.951 . S
C2526 C2527 1.366 . S
C2526 C2528 1.388 . S
C2527 C2526 1.366 . S
C2527 C2531 1.385 . S
C2528 H2509 0.951 . S
C2528 C2526 1.388 . S
C2528 C2529 1.366 . S
C2529 C2528 1.366 . S
C2529 C2530 1.414 . S
C2529 C2532 1.499 . S
C2530 H2510 0.950 . S
C2530 C2529 1.414 . S
C2530 C2531 1.374 . S
C2531 H2511 0.950 . S
C2531 C2527 1.385 . S
C2531 C2530 1.374 . S
C2532 C2529 1.499 . S
C2532 C2533 1.373 . S
C2532 C2534 1.389 . S
C2533 H2512 0.950 . S
C2533 C2532 1.373 . S
C2533 C2549 1.377 . S
C2534 C2532 1.389 . S
C2534 C2535 1.524 . S
C2534 C2548 1.377 . S
C2535 C2534 1.524 . S
C2535 C2536 1.397 . S
C2535 C2540 1.363 . S
C2536 H2513 0.950 . S
C2536 C2535 1.397 . S
C2536 C2537 1.334 . S
C2537 H2514 0.950 . S
C2537 C2536 1.334 . S
C2537 C2538 1.287 . S
C2538 C2537 1.287 . S
C2538 C2539 1.524 . S
C2538 H2557 0.913 . S
C2539 H2515 0.950 . S
C2539 C2538 1.524 . S
C2539 C2540 1.415 . S
C2540 H2516 0.950 . S
C2540 C2535 1.363 . S
C2540 C2539 1.415 . S
C2541 H2517 0.951 . S
C2541 C2542 1.366 . S
C2541 C2543 1.388 . S
C2542 C2541 1.366 . S
C2542 C2546 1.385 . S
C2543 H2518 0.951 . S
C2543 C2541 1.388 . S
C2543 C2544 1.366 . S
C2544 C2543 1.366 . S
C2544 C2545 1.414 . S
C2544 C2547 1.499 . S
C2545 H2519 0.950 . S
C2545 C2544 1.414 . S
C2545 C2546 1.374 . S
C2546 H2520 0.950 . S
C2546 C2542 1.385 . S
C2546 C2545 1.374 . S
C2547 C2544 1.499 . S
C2547 C2548 1.373 . S
C2547 C2549 1.389 . S
C2548 H2521 0.950 . S
C2548 C2534 1.377 . S
C2548 C2547 1.373 . S
C2549 C2533 1.377 . S
C2549 C2547 1.389 . S
C2549 C2550 1.524 . S
C2550 C2549 1.524 . S
C2550 C2551 1.397 . S
C2550 C2555 1.363 . S
C2551 H2522 0.950 . S
C2551 C2550 1.397 . S
C2551 C2552 1.334 . S
C2552 H2523 0.950 . S
C2552 C2551 1.334 . S
C2552 C2553 1.287 . S
C2553 C2552 1.287 . S
C2553 C2554 1.524 . S
C2553 H2556 0.999 . S
C2554 H2524 0.950 . S
C2554 C2553 1.524 . S
C2554 C2555 1.415 . S
C2555 H2525 0.950 . S
C2555 C2550 1.363 . S
C2555 C2554 1.415 . S
H2556 C2553 0.999 . S
H2557 C2538 0.913 . S
H2558 C2576 0.951 . S
H2559 C2578 0.951 . S
H2560 C2580 0.950 . S
H2561 C2581 0.950 . S
H2562 C2583 0.950 . S
H2563 C2586 0.950 . S
H2564 C2587 0.950 . S
H2565 C2589 0.950 . S
H2566 C2590 0.950 . S
H2567 C2591 0.951 . S
H2568 C2593 0.951 . S
H2569 C2595 0.950 . S
H2570 C2596 0.950 . S
H2571 C2598 0.950 . S
H2572 C2601 0.950 . S
H2573 C2602 0.950 . S
H2574 C2604 0.950 . S
H2575 C2605 0.950 . S
C2576 H2558 0.951 . S
C2576 C2577 1.366 . S
C2576 C2578 1.388 . S
C2577 C2576 1.366 . S
C2577 C2581 1.385 . S
C2578 H2559 0.951 . S
C2578 C2576 1.388 . S
C2578 C2579 1.366 . S
C2579 C2578 1.366 . S
C2579 C2580 1.414 . S
C2579 C2582 1.499 . S
C2580 H2560 0.950 . S
C2580 C2579 1.414 . S
C2580 C2581 1.374 . S
C2581 H2561 0.950 . S
C2581 C2577 1.385 . S
C2581 C2580 1.374 . S
C2582 C2579 1.499 . S
C2582 C2583 1.373 . S
C2582 C2584 1.389 . S
C2583 H2562 0.950 . S
C2583 C2582 1.373 . S
C2583 C2599 1.377 . S
C2584 C2582 1.389 . S
C2584 C2585 1.524 . S
C2584 C2598 1.377 . S
C2585 C2584 1.524 . S
C2585 C2586 1.397 . S
C2585 C2590 1.363 . S
C2586 H2563 0.950 . S
C2586 C2585 1.397 . S
C2586 C2587 1.334 . S
C2587 H2564 0.950 . S
C2587 C2586 1.334 . S
C2587 C2588 1.287 . S
C2588 C2587 1.287 . S
C2588 C2589 1.524 . S
C2588 H2607 0.913 . S
C2589 H2565 0.950 . S
C2589 C2588 1.524 . S
C2589 C2590 1.415 . S
C2590 H2566 0.950 . S
C2590 C2585 1.363 . S
C2590 C2589 1.415 . S
C2591 H2567 0.951 . S
C2591 C2592 1.366 . S
C2591 C2593 1.388 . S
C2592 C2591 1.366 . S
C2592 C2596 1.385 . S
C2593 H2568 0.951 . S
C2593 C2591 1.388 . S
C2593 C2594 1.366 . S
C2594 C2593 1.366 . S
C2594 C2595 1.414 . S
C2594 C2597 1.499 . S
C2595 H2569 0.950 . S
C2595 C2594 1.414 . S
C2595 C2596 1.374 . S
C2596 H2570 0.950 . S
C2596 C2592 1.385 . S
C2596 C2595 1.374 . S
C2597 C2594 1.499 . S
C2597 C2598 1.373 . S
C2597 C2599 1.389 . S
C2598 H2571 0.950 . S
C2598 C2584 1.377 . S
C2598 C2597 1.373 . S
C2599 C2583 1.377 . S
C2599 C2597 1.389 . S
C2599 C2600 1.524 . S
C2600 C2599 1.524 . S
C2600 C2601 1.397 . S
C2600 C2605 1.363 . S
C2601 H2572 0.950 . S
C2601 C2600 1.397 . S
C2601 C2602 1.334 . S
C2602 H2573 0.950 . S
C2602 C2601 1.334 . S
C2602 C2603 1.287 . S
C2603 C2602 1.287 . S
C2603 C2604 1.524 . S
C2603 H2606 0.999 . S
C2604 H2574 0.950 . S
C2604 C2603 1.524 . S
C2604 C2605 1.415 . S
C2605 H2575 0.950 . S
C2605 C2600 1.363 . S
C2605 C2604 1.415 . S
H2606 C2603 0.999 . S
H2607 C2588 0.913 . S
H2608 C2626 0.951 . S
H2609 C2628 0.951 . S
H2610 C2630 0.950 . S
H2611 C2631 0.950 . S
H2612 C2633 0.950 1_565 S
H2613 C2636 0.950 . S
H2614 C2637 0.950 . S
H2615 C2639 0.950 . S
H2616 C2640 0.950 . S
H2617 C2641 0.951 . S
H2618 C2643 0.951 . S
H2619 C2645 0.950 . S
H2620 C2646 0.950 . S
H2621 C2648 0.950 . S
H2622 C2651 0.950 . S
H2623 C2652 0.950 . S
H2624 C2654 0.950 . S
H2625 C2655 0.950 . S
C2626 H2608 0.951 . S
C2626 C2627 1.366 . S
C2626 C2628 1.388 . S
C2627 C2626 1.366 . S
C2627 C2631 1.385 . S
C2628 H2609 0.951 . S
C2628 C2626 1.388 . S
C2628 C2629 1.366 . S
C2629 C2628 1.366 . S
C2629 C2630 1.414 . S
C2629 C2632 1.499 . S
C2630 H2610 0.950 . S
C2630 C2629 1.414 . S
C2630 C2631 1.374 . S
C2631 H2611 0.950 . S
C2631 C2627 1.385 . S
C2631 C2630 1.374 . S
C2632 C2629 1.499 . S
C2632 C2633 1.373 . S
C2632 C2634 1.389 . S
C2633 H2612 0.950 1_545 S
C2633 C2632 1.373 . S
C2633 C2649 1.377 . S
C2634 C2632 1.389 . S
C2634 C2635 1.524 . S
C2634 C2648 1.377 . S
C2635 C2634 1.524 . S
C2635 C2636 1.397 . S
C2635 C2640 1.363 1_655 S
C2636 H2613 0.950 . S
C2636 C2635 1.397 . S
C2636 C2637 1.334 . S
C2637 H2614 0.950 . S
C2637 C2636 1.334 . S
C2637 C2638 1.287 . S
C2638 C2637 1.287 . S
C2638 C2639 1.524 1_655 S
C2638 H2657 0.913 . S
C2639 H2615 0.950 . S
C2639 C2638 1.524 1_455 S
C2639 C2640 1.415 . S
C2640 H2616 0.950 . S
C2640 C2635 1.363 1_455 S
C2640 C2639 1.415 . S
C2641 H2617 0.951 . S
C2641 C2642 1.366 1_655 S
C2641 C2643 1.388 . S
C2642 C2641 1.366 1_455 S
C2642 C2646 1.385 . S
C2643 H2618 0.951 . S
C2643 C2641 1.388 . S
C2643 C2644 1.366 . S
C2644 C2643 1.366 . S
C2644 C2645 1.414 1_655 S
C2644 C2647 1.499 . S
C2645 H2619 0.950 . S
C2645 C2644 1.414 1_455 S
C2645 C2646 1.374 . S
C2646 H2620 0.950 . S
C2646 C2642 1.385 . S
C2646 C2645 1.374 . S
C2647 C2644 1.499 . S
C2647 C2648 1.373 . S
C2647 C2649 1.389 . S
C2648 H2621 0.950 . S
C2648 C2634 1.377 . S
C2648 C2647 1.373 . S
C2649 C2633 1.377 . S
C2649 C2647 1.389 . S
C2649 C2650 1.524 1_545 S
C2650 C2649 1.524 1_565 S
C2650 C2651 1.397 . S
C2650 C2655 1.363 . S
C2651 H2622 0.950 . S
C2651 C2650 1.397 . S
C2651 C2652 1.334 . S
C2652 H2623 0.950 . S
C2652 C2651 1.334 . S
C2652 C2653 1.287 . S
C2653 C2652 1.287 . S
C2653 C2654 1.524 . S
C2653 H2656 0.999 . S
C2654 H2624 0.950 . S
C2654 C2653 1.524 . S
C2654 C2655 1.415 . S
C2655 H2625 0.950 . S
C2655 C2650 1.363 . S
C2655 C2654 1.415 . S
H2656 C2653 0.999 . S
H2657 C2638 0.913 . S
H2658 C2676 0.951 . S
H2659 C2678 0.951 . S
H2660 C2680 0.950 . S
H2661 C2681 0.950 . S
H2662 C2683 0.950 . S
H2663 C2686 0.950 . S
H2664 C2687 0.950 . S
H2665 C2689 0.950 . S
H2666 C2690 0.950 . S
H2667 C2691 0.951 . S
H2668 C2693 0.951 . S
H2669 C2695 0.950 . S
H2670 C2696 0.950 . S
H2671 C2698 0.950 . S
H2672 C2701 0.950 . S
H2673 C2702 0.950 . S
H2674 C2704 0.950 . S
H2675 C2705 0.950 . S
C2676 H2658 0.951 . S
C2676 C2677 1.366 . S
C2676 C2678 1.388 . S
C2677 C2676 1.366 . S
C2677 C2681 1.385 . S
C2678 H2659 0.951 . S
C2678 C2676 1.388 . S
C2678 C2679 1.366 . S
C2679 C2678 1.366 . S
C2679 C2680 1.414 . S
C2679 C2682 1.499 . S
C2680 H2660 0.950 . S
C2680 C2679 1.414 . S
C2680 C2681 1.374 . S
C2681 H2661 0.950 . S
C2681 C2677 1.385 . S
C2681 C2680 1.374 . S
C2682 C2679 1.499 . S
C2682 C2683 1.373 . S
C2682 C2684 1.389 . S
C2683 H2662 0.950 . S
C2683 C2682 1.373 . S
C2683 C2699 1.377 . S
C2684 C2682 1.389 . S
C2684 C2685 1.524 . S
C2684 C2698 1.377 . S
C2685 C2684 1.524 . S
C2685 C2686 1.397 . S
C2685 C2690 1.363 . S
C2686 H2663 0.950 . S
C2686 C2685 1.397 . S
C2686 C2687 1.334 . S
C2687 H2664 0.950 . S
C2687 C2686 1.334 . S
C2687 C2688 1.287 . S
C2688 C2687 1.287 . S
C2688 C2689 1.524 . S
C2688 H2707 0.913 . S
C2689 H2665 0.950 . S
C2689 C2688 1.524 . S
C2689 C2690 1.415 . S
C2690 H2666 0.950 . S
C2690 C2685 1.363 . S
C2690 C2689 1.415 . S
C2691 H2667 0.951 . S
C2691 C2692 1.366 . S
C2691 C2693 1.388 . S
C2692 C2691 1.366 . S
C2692 C2696 1.385 . S
C2693 H2668 0.951 . S
C2693 C2691 1.388 . S
C2693 C2694 1.366 . S
C2694 C2693 1.366 . S
C2694 C2695 1.414 . S
C2694 C2697 1.499 . S
C2695 H2669 0.950 . S
C2695 C2694 1.414 . S
C2695 C2696 1.374 . S
C2696 H2670 0.950 . S
C2696 C2692 1.385 . S
C2696 C2695 1.374 . S
C2697 C2694 1.499 . S
C2697 C2698 1.373 . S
C2697 C2699 1.389 . S
C2698 H2671 0.950 . S
C2698 C2684 1.377 . S
C2698 C2697 1.373 . S
C2699 C2683 1.377 . S
C2699 C2697 1.389 . S
C2699 C2700 1.524 . S
C2700 C2699 1.524 . S
C2700 C2701 1.397 . S
C2700 C2705 1.363 . S
C2701 H2672 0.950 . S
C2701 C2700 1.397 . S
C2701 C2702 1.334 . S
C2702 H2673 0.950 . S
C2702 C2701 1.334 . S
C2702 C2703 1.287 . S
C2703 C2702 1.287 . S
C2703 C2704 1.524 . S
C2703 H2706 0.999 . S
C2704 H2674 0.950 . S
C2704 C2703 1.524 . S
C2704 C2705 1.415 . S
C2705 H2675 0.950 . S
C2705 C2700 1.363 . S
C2705 C2704 1.415 . S
H2706 C2703 0.999 . S
H2707 C2688 0.913 . S
H2708 C2726 0.951 . S
H2709 C2728 0.951 . S
H2710 C2730 0.950 . S
H2711 C2731 0.950 . S
H2712 C2733 0.950 . S
H2713 C2736 0.950 . S
H2714 C2737 0.950 . S
H2715 C2739 0.950 . S
H2716 C2740 0.950 . S
H2717 C2741 0.951 . S
H2718 C2743 0.951 . S
H2719 C2745 0.950 . S
H2720 C2746 0.950 . S
H2721 C2748 0.950 . S
H2722 C2751 0.950 . S
H2723 C2752 0.950 . S
H2724 C2754 0.950 . S
H2725 C2755 0.950 1_545 S
C2726 H2708 0.951 . S
C2726 C2727 1.366 . S
C2726 C2728 1.388 . S
C2727 C2726 1.366 . S
C2727 C2731 1.385 . S
C2728 H2709 0.951 . S
C2728 C2726 1.388 . S
C2728 C2729 1.366 . S
C2729 C2728 1.366 . S
C2729 C2730 1.414 . S
C2729 C2732 1.499 . S
C2730 H2710 0.950 . S
C2730 C2729 1.414 . S
C2730 C2731 1.374 . S
C2731 H2711 0.950 . S
C2731 C2727 1.385 . S
C2731 C2730 1.374 . S
C2732 C2729 1.499 . S
C2732 C2733 1.373 . S
C2732 C2734 1.389 . S
C2733 H2712 0.950 . S
C2733 C2732 1.373 . S
C2733 C2749 1.377 . S
C2734 C2732 1.389 . S
C2734 C2735 1.524 . S
C2734 C2748 1.377 . S
C2735 C2734 1.524 . S
C2735 C2736 1.397 . S
C2735 C2740 1.363 . S
C2736 H2713 0.950 . S
C2736 C2735 1.397 . S
C2736 C2737 1.334 . S
C2737 H2714 0.950 . S
C2737 C2736 1.334 . S
C2737 C2738 1.287 . S
C2738 C2737 1.287 . S
C2738 C2739 1.524 . S
C2738 H2757 0.913 . S
C2739 H2715 0.950 . S
C2739 C2738 1.524 . S
C2739 C2740 1.415 . S
C2740 H2716 0.950 . S
C2740 C2735 1.363 . S
C2740 C2739 1.415 . S
C2741 H2717 0.951 . S
C2741 C2742 1.366 . S
C2741 C2743 1.388 . S
C2742 C2741 1.366 . S
C2742 C2746 1.385 . S
C2743 H2718 0.951 . S
C2743 C2741 1.388 . S
C2743 C2744 1.366 . S
C2744 C2743 1.366 . S
C2744 C2745 1.414 . S
C2744 C2747 1.499 . S
C2745 H2719 0.950 . S
C2745 C2744 1.414 . S
C2745 C2746 1.374 . S
C2746 H2720 0.950 . S
C2746 C2742 1.385 . S
C2746 C2745 1.374 . S
C2747 C2744 1.499 . S
C2747 C2748 1.373 . S
C2747 C2749 1.389 . S
C2748 H2721 0.950 . S
C2748 C2734 1.377 . S
C2748 C2747 1.373 . S
C2749 C2733 1.377 . S
C2749 C2747 1.389 . S
C2749 C2750 1.524 . S
C2750 C2749 1.524 . S
C2750 C2751 1.397 1_545 S
C2750 C2755 1.363 1_545 S
C2751 H2722 0.950 . S
C2751 C2750 1.397 1_565 S
C2751 C2752 1.334 . S
C2752 H2723 0.950 . S
C2752 C2751 1.334 . S
C2752 C2753 1.287 . S
C2753 C2752 1.287 . S
C2753 C2754 1.524 . S
C2753 H2756 0.999 . S
C2754 H2724 0.950 . S
C2754 C2753 1.524 . S
C2754 C2755 1.415 . S
C2755 H2725 0.950 1_565 S
C2755 C2750 1.363 1_565 S
C2755 C2754 1.415 . S
H2756 C2753 0.999 . S
H2757 C2738 0.913 . S
H2758 C2776 0.951 . S
H2759 C2778 0.951 . S
H2760 C2780 0.950 . S
H2761 C2781 0.950 . S
H2762 C2783 0.950 . S
H2763 C2786 0.950 . S
H2764 C2787 0.950 . S
H2765 C2789 0.950 . S
H2766 C2790 0.950 . S
H2767 C2791 0.951 . S
H2768 C2793 0.951 . S
H2769 C2795 0.950 . S
H2770 C2796 0.950 . S
H2771 C2798 0.950 . S
H2772 C2801 0.950 . S
H2773 C2802 0.950 . S
H2774 C2804 0.950 . S
H2775 C2805 0.950 . S
C2776 H2758 0.951 . S
C2776 C2777 1.366 . S
C2776 C2778 1.388 . S
C2777 C2776 1.366 . S
C2777 C2781 1.385 . S
C2778 H2759 0.951 . S
C2778 C2776 1.388 . S
C2778 C2779 1.366 . S
C2779 C2778 1.366 . S
C2779 C2780 1.414 . S
C2779 C2782 1.499 . S
C2780 H2760 0.950 . S
C2780 C2779 1.414 . S
C2780 C2781 1.374 . S
C2781 H2761 0.950 . S
C2781 C2777 1.385 . S
C2781 C2780 1.374 . S
C2782 C2779 1.499 . S
C2782 C2783 1.373 . S
C2782 C2784 1.389 . S
C2783 H2762 0.950 . S
C2783 C2782 1.373 . S
C2783 C2799 1.377 . S
C2784 C2782 1.389 . S
C2784 C2785 1.524 . S
C2784 C2798 1.377 . S
C2785 C2784 1.524 . S
C2785 C2786 1.397 . S
C2785 C2790 1.363 . S
C2786 H2763 0.950 . S
C2786 C2785 1.397 . S
C2786 C2787 1.334 . S
C2787 H2764 0.950 . S
C2787 C2786 1.334 . S
C2787 C2788 1.287 . S
C2788 C2787 1.287 . S
C2788 C2789 1.524 . S
C2788 H2807 0.913 . S
C2789 H2765 0.950 . S
C2789 C2788 1.524 . S
C2789 C2790 1.415 . S
C2790 H2766 0.950 . S
C2790 C2785 1.363 . S
C2790 C2789 1.415 . S
C2791 H2767 0.951 . S
C2791 C2792 1.366 . S
C2791 C2793 1.388 . S
C2792 C2791 1.366 . S
C2792 C2796 1.385 . S
C2793 H2768 0.951 . S
C2793 C2791 1.388 . S
C2793 C2794 1.366 . S
C2794 C2793 1.366 . S
C2794 C2795 1.414 . S
C2794 C2797 1.499 . S
C2795 H2769 0.950 . S
C2795 C2794 1.414 . S
C2795 C2796 1.374 . S
C2796 H2770 0.950 . S
C2796 C2792 1.385 . S
C2796 C2795 1.374 . S
C2797 C2794 1.499 . S
C2797 C2798 1.373 . S
C2797 C2799 1.389 . S
C2798 H2771 0.950 . S
C2798 C2784 1.377 . S
C2798 C2797 1.373 . S
C2799 C2783 1.377 . S
C2799 C2797 1.389 . S
C2799 C2800 1.524 . S
C2800 C2799 1.524 . S
C2800 C2801 1.397 . S
C2800 C2805 1.363 . S
C2801 H2772 0.950 . S
C2801 C2800 1.397 . S
C2801 C2802 1.334 . S
C2802 H2773 0.950 . S
C2802 C2801 1.334 . S
C2802 C2803 1.287 . S
C2803 C2802 1.287 . S
C2803 C2804 1.524 . S
C2803 H2806 0.999 . S
C2804 H2774 0.950 . S
C2804 C2803 1.524 . S
C2804 C2805 1.415 . S
C2805 H2775 0.950 . S
C2805 C2800 1.363 . S
C2805 C2804 1.415 . S
H2806 C2803 0.999 . S
H2807 C2788 0.913 . S
H2808 C2826 0.950 . S
H2809 C2828 0.951 . S
H2810 C2830 0.950 . S
H2811 C2831 0.950 . S
H2812 C2833 0.950 . S
H2813 C2836 0.950 . S
H2814 C2837 0.950 . S
H2815 C2839 0.950 . S
H2816 C2840 0.950 . S
H2817 C2841 0.951 . S
H2818 C2843 0.951 . S
H2819 C2845 0.950 . S
H2820 C2846 0.950 . S
H2821 C2848 0.950 . S
H2822 C2851 0.950 . S
H2823 C2852 0.950 . S
H2824 C2854 0.950 . S
H2825 C2855 0.950 . S
C2826 H2808 0.950 . S
C2826 C2827 1.366 . S
C2826 C2828 1.388 . S
C2827 C2826 1.366 . S
C2827 C2831 1.385 . S
C2828 H2809 0.951 . S
C2828 C2826 1.388 . S
C2828 C2829 1.366 . S
C2829 C2828 1.366 . S
C2829 C2830 1.414 . S
C2829 C2832 1.499 . S
C2830 H2810 0.950 . S
C2830 C2829 1.414 . S
C2830 C2831 1.374 . S
C2831 H2811 0.950 . S
C2831 C2827 1.385 . S
C2831 C2830 1.374 . S
C2832 C2829 1.499 . S
C2832 C2833 1.373 . S
C2832 C2834 1.389 . S
C2833 H2812 0.950 . S
C2833 C2832 1.373 . S
C2833 C2849 1.377 . S
C2834 C2832 1.389 . S
C2834 C2835 1.524 . S
C2834 C2848 1.377 . S
C2835 C2834 1.524 . S
C2835 C2836 1.397 . S
C2835 C2840 1.363 . S
C2836 H2813 0.950 . S
C2836 C2835 1.397 . S
C2836 C2837 1.334 . S
C2837 H2814 0.950 . S
C2837 C2836 1.334 . S
C2837 C2838 1.287 . S
C2838 C2837 1.287 . S
C2838 C2839 1.524 . S
C2838 H2857 0.913 . S
C2839 H2815 0.950 . S
C2839 C2838 1.524 . S
C2839 C2840 1.415 . S
C2840 H2816 0.950 . S
C2840 C2835 1.363 . S
C2840 C2839 1.415 . S
C2841 H2817 0.951 . S
C2841 C2842 1.366 . S
C2841 C2843 1.388 . S
C2842 C2841 1.366 . S
C2842 C2846 1.385 1_455 S
C2843 H2818 0.951 . S
C2843 C2841 1.388 . S
C2843 C2844 1.366 1_455 S
C2844 C2843 1.366 1_655 S
C2844 C2845 1.414 . S
C2844 C2847 1.499 . S
C2845 H2819 0.950 . S
C2845 C2844 1.414 . S
C2845 C2846 1.374 . S
C2846 H2820 0.950 . S
C2846 C2842 1.385 1_655 S
C2846 C2845 1.374 . S
C2847 C2844 1.499 . S
C2847 C2848 1.373 . S
C2847 C2849 1.389 . S
C2848 H2821 0.950 . S
C2848 C2834 1.377 . S
C2848 C2847 1.373 . S
C2849 C2833 1.377 . S
C2849 C2847 1.389 . S
C2849 C2850 1.524 1_655 S
C2850 C2849 1.524 1_455 S
C2850 C2851 1.397 1_545 S
C2850 C2855 1.363 . S
C2851 H2822 0.950 . S
C2851 C2850 1.397 1_565 S
C2851 C2852 1.334 . S
C2852 H2823 0.950 . S
C2852 C2851 1.334 . S
C2852 C2853 1.287 1_565 S
C2853 C2852 1.287 1_545 S
C2853 C2854 1.524 . S
C2853 H2856 0.983 1_545 S
C2854 H2824 0.950 . S
C2854 C2853 1.524 . S
C2854 C2855 1.415 . S
C2855 H2825 0.950 . S
C2855 C2850 1.363 . S
C2855 C2854 1.415 . S
H2856 C2853 0.983 1_565 S
H2857 C2838 0.913 . S
H2858 C2876 0.951 . S
H2859 C2878 0.951 . S
H2860 C2880 0.950 . S
H2861 C2881 0.950 . S
H2862 C2883 0.950 . S
H2863 C2886 0.950 . S
H2864 C2887 0.950 . S
H2865 C2889 0.950 . S
H2866 C2890 0.950 . S
H2867 C2891 0.951 . S
H2868 C2893 0.951 . S
H2869 C2895 0.950 . S
H2870 C2896 0.950 . S
H2871 C2898 0.950 . S
H2872 C2901 0.950 . S
H2873 C2902 0.950 . S
H2874 C2904 0.950 . S
H2875 C2905 0.950 . S
C2876 H2858 0.951 . S
C2876 C2877 1.366 . S
C2876 C2878 1.388 . S
C2877 C2876 1.366 . S
C2877 C2881 1.385 . S
C2878 H2859 0.951 . S
C2878 C2876 1.388 . S
C2878 C2879 1.366 . S
C2879 C2878 1.366 . S
C2879 C2880 1.414 . S
C2879 C2882 1.499 . S
C2880 H2860 0.950 . S
C2880 C2879 1.414 . S
C2880 C2881 1.374 . S
C2881 H2861 0.950 . S
C2881 C2877 1.385 . S
C2881 C2880 1.374 . S
C2882 C2879 1.499 . S
C2882 C2883 1.373 . S
C2882 C2884 1.389 . S
C2883 H2862 0.950 . S
C2883 C2882 1.373 . S
C2883 C2899 1.377 . S
C2884 C2882 1.389 . S
C2884 C2885 1.524 . S
C2884 C2898 1.377 . S
C2885 C2884 1.524 . S
C2885 C2886 1.397 . S
C2885 C2890 1.363 . S
C2886 H2863 0.950 . S
C2886 C2885 1.397 . S
C2886 C2887 1.334 . S
C2887 H2864 0.950 . S
C2887 C2886 1.334 . S
C2887 C2888 1.287 . S
C2888 C2887 1.287 . S
C2888 C2889 1.524 . S
C2888 H2907 0.913 . S
C2889 H2865 0.950 . S
C2889 C2888 1.524 . S
C2889 C2890 1.415 . S
C2890 H2866 0.950 . S
C2890 C2885 1.363 . S
C2890 C2889 1.415 . S
C2891 H2867 0.951 . S
C2891 C2892 1.366 . S
C2891 C2893 1.388 . S
C2892 C2891 1.366 . S
C2892 C2896 1.385 . S
C2893 H2868 0.951 . S
C2893 C2891 1.388 . S
C2893 C2894 1.366 . S
C2894 C2893 1.366 . S
C2894 C2895 1.414 . S
C2894 C2897 1.499 . S
C2895 H2869 0.950 . S
C2895 C2894 1.414 . S
C2895 C2896 1.374 . S
C2896 H2870 0.950 . S
C2896 C2892 1.385 . S
C2896 C2895 1.374 . S
C2897 C2894 1.499 . S
C2897 C2898 1.373 . S
C2897 C2899 1.389 . S
C2898 H2871 0.950 . S
C2898 C2884 1.377 . S
C2898 C2897 1.373 . S
C2899 C2883 1.377 . S
C2899 C2897 1.389 . S
C2899 C2900 1.524 . S
C2900 C2899 1.524 . S
C2900 C2901 1.397 . S
C2900 C2905 1.363 . S
C2901 H2872 0.950 . S
C2901 C2900 1.397 . S
C2901 C2902 1.334 . S
C2902 H2873 0.950 . S
C2902 C2901 1.334 . S
C2902 C2903 1.287 . S
C2903 C2902 1.287 . S
C2903 C2904 1.524 . S
C2903 H2906 0.999 . S
C2904 H2874 0.950 . S
C2904 C2903 1.524 . S
C2904 C2905 1.415 . S
C2905 H2875 0.950 . S
C2905 C2900 1.363 . S
C2905 C2904 1.415 . S
H2906 C2903 0.999 . S
H2907 C2888 0.913 . S
H2908 C2926 0.951 . S
H2909 C2928 0.951 . S
H2910 C2930 0.950 . S
H2911 C2931 0.950 . S
H2912 C2933 0.950 . S
H2913 C2936 0.950 . S
H2914 C2937 0.950 . S
H2915 C2939 0.950 . S
H2916 C2940 0.950 . S
H2917 C2941 0.951 . S
H2918 C2943 0.951 . S
H2919 C2945 0.950 . S
H2920 C2946 0.950 . S
H2921 C2948 0.950 . S
H2922 C2951 0.950 . S
H2923 C2952 0.950 . S
H2924 C2954 0.950 . S
H2925 C2955 0.950 . S
C2926 H2908 0.951 . S
C2926 C2927 1.366 . S
C2926 C2928 1.388 . S
C2927 C2926 1.366 . S
C2927 C2931 1.385 . S
C2928 H2909 0.951 . S
C2928 C2926 1.388 . S
C2928 C2929 1.366 . S
C2929 C2928 1.366 . S
C2929 C2930 1.414 . S
C2929 C2932 1.499 . S
C2930 H2910 0.950 . S
C2930 C2929 1.414 . S
C2930 C2931 1.374 . S
C2931 H2911 0.950 . S
C2931 C2927 1.385 . S
C2931 C2930 1.374 . S
C2932 C2929 1.499 . S
C2932 C2933 1.373 . S
C2932 C2934 1.389 . S
C2933 H2912 0.950 . S
C2933 C2932 1.373 . S
C2933 C2949 1.377 . S
C2934 C2932 1.389 . S
C2934 C2935 1.524 . S
C2934 C2948 1.377 . S
C2935 C2934 1.524 . S
C2935 C2936 1.397 . S
C2935 C2940 1.363 . S
C2936 H2913 0.950 . S
C2936 C2935 1.397 . S
C2936 C2937 1.334 . S
C2937 H2914 0.950 . S
C2937 C2936 1.334 . S
C2937 C2938 1.287 . S
C2938 C2937 1.287 . S
C2938 C2939 1.524 . S
C2938 H2957 0.913 . S
C2939 H2915 0.950 . S
C2939 C2938 1.524 . S
C2939 C2940 1.415 . S
C2940 H2916 0.950 . S
C2940 C2935 1.363 . S
C2940 C2939 1.415 . S
C2941 H2917 0.951 . S
C2941 C2942 1.366 . S
C2941 C2943 1.388 . S
C2942 C2941 1.366 . S
C2942 C2946 1.385 . S
C2943 H2918 0.951 . S
C2943 C2941 1.388 . S
C2943 C2944 1.366 . S
C2944 C2943 1.366 . S
C2944 C2945 1.414 . S
C2944 C2947 1.499 . S
C2945 H2919 0.950 . S
C2945 C2944 1.414 . S
C2945 C2946 1.374 . S
C2946 H2920 0.950 . S
C2946 C2942 1.385 . S
C2946 C2945 1.374 . S
C2947 C2944 1.499 . S
C2947 C2948 1.373 . S
C2947 C2949 1.389 . S
C2948 H2921 0.950 . S
C2948 C2934 1.377 . S
C2948 C2947 1.373 . S
C2949 C2933 1.377 . S
C2949 C2947 1.389 . S
C2949 C2950 1.524 . S
C2950 C2949 1.524 . S
C2950 C2951 1.397 . S
C2950 C2955 1.363 . S
C2951 H2922 0.950 . S
C2951 C2950 1.397 . S
C2951 C2952 1.334 . S
C2952 H2923 0.950 . S
C2952 C2951 1.334 . S
C2952 C2953 1.287 . S
C2953 C2952 1.287 . S
C2953 C2954 1.524 . S
C2953 H2956 0.999 . S
C2954 H2924 0.950 . S
C2954 C2953 1.524 . S
C2954 C2955 1.415 . S
C2955 H2925 0.950 . S
C2955 C2950 1.363 . S
C2955 C2954 1.415 . S
H2956 C2953 0.999 . S
H2957 C2938 0.913 . S
H2958 C2976 0.951 . S
H2959 C2978 0.951 . S
H2960 C2980 0.950 . S
H2961 C2981 0.950 . S
H2962 C2983 0.950 . S
H2963 C2986 0.950 . S
H2964 C2987 0.950 . S
H2965 C2989 0.950 . S
H2966 C2990 0.950 . S
H2967 C2991 0.951 . S
H2968 C2993 0.951 . S
H2969 C2995 0.950 . S
H2970 C2996 0.950 . S
H2971 C2998 0.950 . S
H2972 C3001 0.950 . S
H2973 C3002 0.950 . S
H2974 C3004 0.950 . S
H2975 C3005 0.950 . S
C2976 H2958 0.951 . S
C2976 C2977 1.366 . S
C2976 C2978 1.388 . S
C2977 C2976 1.366 . S
C2977 C2981 1.385 . S
C2978 H2959 0.951 . S
C2978 C2976 1.388 . S
C2978 C2979 1.366 . S
C2979 C2978 1.366 . S
C2979 C2980 1.414 . S
C2979 C2982 1.499 . S
C2980 H2960 0.950 . S
C2980 C2979 1.414 . S
C2980 C2981 1.374 . S
C2981 H2961 0.950 . S
C2981 C2977 1.385 . S
C2981 C2980 1.374 . S
C2982 C2979 1.499 . S
C2982 C2983 1.373 . S
C2982 C2984 1.389 . S
C2983 H2962 0.950 . S
C2983 C2982 1.373 . S
C2983 C2999 1.377 . S
C2984 C2982 1.389 . S
C2984 C2985 1.524 . S
C2984 C2998 1.377 . S
C2985 C2984 1.524 . S
C2985 C2986 1.397 . S
C2985 C2990 1.363 . S
C2986 H2963 0.950 . S
C2986 C2985 1.397 . S
C2986 C2987 1.334 . S
C2987 H2964 0.950 . S
C2987 C2986 1.334 . S
C2987 C2988 1.287 . S
C2988 C2987 1.287 . S
C2988 C2989 1.524 . S
C2988 H3007 0.913 . S
C2989 H2965 0.950 . S
C2989 C2988 1.524 . S
C2989 C2990 1.415 . S
C2990 H2966 0.950 . S
C2990 C2985 1.363 . S
C2990 C2989 1.415 . S
C2991 H2967 0.951 . S
C2991 C2992 1.366 . S
C2991 C2993 1.388 . S
C2992 C2991 1.366 . S
C2992 C2996 1.385 . S
C2993 H2968 0.951 . S
C2993 C2991 1.388 . S
C2993 C2994 1.366 . S
C2994 C2993 1.366 . S
C2994 C2995 1.414 . S
C2994 C2997 1.499 . S
C2995 H2969 0.950 . S
C2995 C2994 1.414 . S
C2995 C2996 1.374 . S
C2996 H2970 0.950 . S
C2996 C2992 1.385 . S
C2996 C2995 1.374 . S
C2997 C2994 1.499 . S
C2997 C2998 1.373 . S
C2997 C2999 1.389 . S
C2998 H2971 0.950 . S
C2998 C2984 1.377 . S
C2998 C2997 1.373 . S
C2999 C2983 1.377 . S
C2999 C2997 1.389 . S
C2999 C3000 1.524 . S
C3000 C2999 1.524 . S
C3000 C3001 1.397 . S
C3000 C3005 1.363 . S
C3001 H2972 0.950 . S
C3001 C3000 1.397 . S
C3001 C3002 1.334 . S
C3002 H2973 0.950 . S
C3002 C3001 1.334 . S
C3002 C3003 1.287 . S
C3003 C3002 1.287 . S
C3003 C3004 1.524 . S
C3003 H3006 0.999 . S
C3004 H2974 0.950 . S
C3004 C3003 1.524 . S
C3004 C3005 1.415 . S
C3005 H2975 0.950 . S
C3005 C3000 1.363 . S
C3005 C3004 1.415 . S
H3006 C3003 0.999 . S
H3007 C2988 0.913 . S
H3008 C3026 0.951 . S
H3009 C3028 0.951 . S
H3010 C3030 0.950 . S
H3011 C3031 0.950 . S
H3012 C3033 0.950 . S
H3013 C3036 0.950 . S
H3014 C3037 0.950 . S
H3015 C3039 0.950 . S
H3016 C3040 0.950 . S
H3017 C3041 0.979 . S
H3018 C3043 0.946 1_545 S
H3019 C3045 0.950 . S
H3020 C3046 0.950 . S
H3021 C3048 0.950 . S
H3022 C3051 0.950 . S
H3023 C3052 0.950 . S
H3024 C3054 0.950 . S
H3025 C3055 0.950 . S
C3026 H3008 0.951 . S
C3026 C3027 1.378 . S
C3026 C3028 1.388 . S
C3027 C3026 1.378 . S
C3027 C3031 1.365 1_556 S
C3028 H3009 0.951 . S
C3028 C3026 1.388 . S
C3028 C3029 1.366 1_556 S
C3029 C3028 1.366 1_554 S
C3029 C3030 1.414 . S
C3029 C3032 1.499 . S
C3030 H3010 0.950 . S
C3030 C3029 1.414 . S
C3030 C3031 1.374 . S
C3031 H3011 0.950 . S
C3031 C3027 1.365 1_554 S
C3031 C3030 1.374 . S
C3032 C3029 1.499 . S
C3032 C3033 1.373 . S
C3032 C3034 1.389 1_554 S
C3033 H3012 0.950 . S
C3033 C3032 1.373 . S
C3033 C3049 1.377 . S
C3034 C3032 1.389 1_556 S
C3034 C3035 1.524 . S
C3034 C3048 1.377 . S
C3035 C3034 1.524 . S
C3035 C3036 1.397 . S
C3035 C3040 1.363 . S
C3036 H3013 0.950 . S
C3036 C3035 1.397 . S
C3036 C3037 1.334 . S
C3037 H3014 0.950 . S
C3037 C3036 1.334 . S
C3037 C3038 1.287 . S
C3038 C3037 1.287 . S
C3038 C3039 1.524 . S
C3038 H3057 0.913 . S
C3039 H3015 0.950 . S
C3039 C3038 1.524 . S
C3039 C3040 1.415 . S
C3040 H3016 0.950 . S
C3040 C3035 1.363 . S
C3040 C3039 1.415 . S
C3041 H3017 0.979 . S
C3041 C3042 1.356 1_545 S
C3041 C3043 1.370 1_545 S
C3042 C3041 1.356 1_565 S
C3042 C3046 1.385 . S
C3043 H3018 0.946 1_565 S
C3043 C3041 1.370 1_565 S
C3043 C3044 1.366 . S
C3044 C3043 1.366 . S
C3044 C3045 1.414 . S
C3044 C3047 1.499 . S
C3045 H3019 0.950 . S
C3045 C3044 1.414 . S
C3045 C3046 1.374 . S
C3046 H3020 0.950 . S
C3046 C3042 1.385 . S
C3046 C3045 1.374 . S
C3047 C3044 1.499 . S
C3047 C3048 1.373 1_554 S
C3047 C3049 1.389 . S
C3048 H3021 0.950 . S
C3048 C3034 1.377 . S
C3048 C3047 1.373 1_556 S
C3049 C3033 1.377 . S
C3049 C3047 1.389 . S
C3049 C3050 1.524 . S
C3050 C3049 1.524 . S
C3050 C3051 1.397 . S
C3050 C3055 1.363 . S
C3051 H3022 0.950 . S
C3051 C3050 1.397 . S
C3051 C3052 1.334 . S
C3052 H3023 0.950 . S
C3052 C3051 1.334 . S
C3052 C3053 1.287 . S
C3053 C3052 1.287 . S
C3053 C3054 1.524 . S
C3053 H3056 0.999 . S
C3054 H3024 0.950 . S
C3054 C3053 1.524 . S
C3054 C3055 1.415 . S
C3055 H3025 0.950 . S
C3055 C3050 1.363 . S
C3055 C3054 1.415 . S
H3056 C3053 0.999 . S
H3057 C3038 0.913 . S
H3058 C3076 0.968 . S
H3059 C3078 0.951 . S
H3060 C3080 0.950 . S
H3061 C3081 0.950 . S
H3062 C3083 0.958 . S
H3063 C3086 0.950 . S
H3064 C3087 0.950 . S
H3065 C3089 0.950 . S
H3066 C3090 0.950 . S
H3067 C3091 0.951 . S
H3068 C3093 0.951 . S
H3069 C3095 0.950 . S
H3070 C3096 0.950 . S
H3071 C3098 0.950 . S
H3072 C3101 0.950 . S
H3073 C3102 0.950 . S
H3074 C3104 0.950 . S
H3075 C3105 0.950 . S
C3076 H3058 0.968 . S
C3076 C3077 1.366 . S
C3076 C3078 1.388 . S
C3077 C3076 1.366 . S
C3077 C3081 1.385 . S
C3078 H3059 0.951 . S
C3078 C3076 1.388 . S
C3078 C3079 1.366 . S
C3079 C3078 1.366 . S
C3079 C3080 1.414 . S
C3079 C3082 1.499 . S
C3080 H3060 0.950 . S
C3080 C3079 1.414 . S
C3080 C3081 1.374 . S
C3081 H3061 0.950 . S
C3081 C3077 1.385 . S
C3081 C3080 1.374 . S
C3082 C3079 1.499 . S
C3082 C3083 1.368 1_554 S
C3082 C3084 1.389 . S
C3083 H3062 0.958 . S
C3083 C3082 1.368 1_556 S
C3083 C3099 1.380 . S
C3084 C3082 1.389 . S
C3084 C3085 1.524 . S
C3084 C3098 1.377 . S
C3085 C3084 1.524 . S
C3085 C3086 1.397 . S
C3085 C3090 1.363 . S
C3086 H3063 0.950 . S
C3086 C3085 1.397 . S
C3086 C3087 1.334 . S
C3087 H3064 0.950 . S
C3087 C3086 1.334 . S
C3087 C3088 1.287 . S
C3088 C3087 1.287 . S
C3088 C3089 1.524 . S
C3088 H3107 0.913 . S
C3089 H3065 0.950 . S
C3089 C3088 1.524 . S
C3089 C3090 1.415 . S
C3090 H3066 0.950 . S
C3090 C3085 1.363 . S
C3090 C3089 1.415 . S
C3091 H3067 0.951 . S
C3091 C3092 1.366 . S
C3091 C3093 1.388 . S
C3092 C3091 1.366 . S
C3092 C3096 1.385 . S
C3093 H3068 0.951 . S
C3093 C3091 1.388 . S
C3093 C3094 1.366 . S
C3094 C3093 1.366 . S
C3094 C3095 1.414 . S
C3094 C3097 1.499 . S
C3095 H3069 0.950 . S
C3095 C3094 1.414 . S
C3095 C3096 1.374 . S
C3096 H3070 0.950 . S
C3096 C3092 1.385 . S
C3096 C3095 1.374 . S
C3097 C3094 1.499 . S
C3097 C3098 1.373 . S
C3097 C3099 1.369 1_554 S
C3098 H3071 0.950 . S
C3098 C3084 1.377 . S
C3098 C3097 1.373 . S
C3099 C3083 1.380 . S
C3099 C3097 1.369 1_556 S
C3099 C3100 1.544 . S
C3100 C3099 1.544 . S
C3100 C3101 1.397 . S
C3100 C3105 1.363 . S
C3101 H3072 0.950 . S
C3101 C3100 1.397 . S
C3101 C3102 1.334 . S
C3102 H3073 0.950 . S
C3102 C3101 1.334 . S
C3102 C3103 1.287 . S
C3103 C3102 1.287 . S
C3103 C3104 1.524 . S
C3103 H3106 0.999 . S
C3104 H3074 0.950 . S
C3104 C3103 1.524 . S
C3104 C3105 1.415 . S
C3105 H3075 0.950 . S
C3105 C3100 1.363 . S
C3105 C3104 1.415 . S
H3106 C3103 0.999 . S
H3107 C3088 0.913 . S
H3108 C3126 0.951 . S
H3109 C3128 0.951 . S
H3110 C3130 0.950 . S
H3111 C3131 0.950 . S
H3112 C3133 0.950 . S
H3113 C3136 0.950 . S
H3114 C3137 0.950 . S
H3115 C3139 0.950 . S
H3116 C3140 0.950 . S
H3117 C3141 0.951 . S
H3118 C3143 0.951 . S
H3119 C3145 0.950 . S
H3120 C3146 0.950 . S
H3121 C3148 0.950 . S
H3122 C3151 0.950 . S
H3123 C3152 0.950 . S
H3124 C3154 0.950 . S
H3125 C3155 0.950 . S
C3126 H3108 0.951 . S
C3126 C3127 1.366 . S
C3126 C3128 1.388 . S
C3127 C3126 1.366 . S
C3127 C3131 1.385 . S
C3128 H3109 0.951 . S
C3128 C3126 1.388 . S
C3128 C3129 1.366 . S
C3129 C3128 1.366 . S
C3129 C3130 1.414 . S
C3129 C3132 1.499 . S
C3130 H3110 0.950 . S
C3130 C3129 1.414 . S
C3130 C3131 1.374 . S
C3131 H3111 0.950 . S
C3131 C3127 1.385 . S
C3131 C3130 1.374 . S
C3132 C3129 1.499 . S
C3132 C3133 1.373 . S
C3132 C3134 1.389 . S
C3133 H3112 0.950 . S
C3133 C3132 1.373 . S
C3133 C3149 1.377 . S
C3134 C3132 1.389 . S
C3134 C3135 1.524 . S
C3134 C3148 1.377 . S
C3135 C3134 1.524 . S
C3135 C3136 1.397 . S
C3135 C3140 1.363 . S
C3136 H3113 0.950 . S
C3136 C3135 1.397 . S
C3136 C3137 1.334 . S
C3137 H3114 0.950 . S
C3137 C3136 1.334 . S
C3137 C3138 1.287 . S
C3138 C3137 1.287 . S
C3138 C3139 1.524 . S
C3138 H3157 0.913 . S
C3139 H3115 0.950 . S
C3139 C3138 1.524 . S
C3139 C3140 1.415 . S
C3140 H3116 0.950 . S
C3140 C3135 1.363 . S
C3140 C3139 1.415 . S
C3141 H3117 0.951 . S
C3141 C3142 1.366 . S
C3141 C3143 1.388 . S
C3142 C3141 1.366 . S
C3142 C3146 1.385 . S
C3143 H3118 0.951 . S
C3143 C3141 1.388 . S
C3143 C3144 1.366 . S
C3144 C3143 1.366 . S
C3144 C3145 1.414 . S
C3144 C3147 1.499 . S
C3145 H3119 0.950 . S
C3145 C3144 1.414 . S
C3145 C3146 1.374 . S
C3146 H3120 0.950 . S
C3146 C3142 1.385 . S
C3146 C3145 1.374 . S
C3147 C3144 1.499 . S
C3147 C3148 1.373 . S
C3147 C3149 1.389 . S
C3148 H3121 0.950 . S
C3148 C3134 1.377 . S
C3148 C3147 1.373 . S
C3149 C3133 1.377 . S
C3149 C3147 1.389 . S
C3149 C3150 1.524 . S
C3150 C3149 1.524 . S
C3150 C3151 1.397 . S
C3150 C3155 1.363 . S
C3151 H3122 0.950 . S
C3151 C3150 1.397 . S
C3151 C3152 1.334 . S
C3152 H3123 0.950 . S
C3152 C3151 1.334 . S
C3152 C3153 1.287 . S
C3153 C3152 1.287 . S
C3153 C3154 1.524 . S
C3153 H3156 0.999 . S
C3154 H3124 0.950 . S
C3154 C3153 1.524 . S
C3154 C3155 1.415 . S
C3155 H3125 0.950 . S
C3155 C3150 1.363 . S
C3155 C3154 1.415 . S
H3156 C3153 0.999 . S
H3157 C3138 0.913 . S
H3158 C3176 0.951 . S
H3159 C3178 0.951 . S
H3160 C3180 0.950 . S
H3161 C3181 0.950 . S
H3162 C3183 0.950 . S
H3163 C3186 0.950 . S
H3164 C3187 0.950 . S
H3165 C3189 0.950 . S
H3166 C3190 0.950 . S
H3167 C3191 0.951 . S
H3168 C3193 0.951 . S
H3169 C3195 0.950 . S
H3170 C3196 0.950 . S
H3171 C3198 0.950 . S
H3172 C3201 0.950 . S
H3173 C3202 0.950 . S
H3174 C3204 0.950 . S
H3175 C3205 0.950 . S
C3176 H3158 0.951 . S
C3176 C3177 1.366 . S
C3176 C3178 1.388 . S
C3177 C3176 1.366 . S
C3177 C3181 1.385 . S
C3178 H3159 0.951 . S
C3178 C3176 1.388 . S
C3178 C3179 1.366 . S
C3179 C3178 1.366 . S
C3179 C3180 1.414 . S
C3179 C3182 1.499 . S
C3180 H3160 0.950 . S
C3180 C3179 1.414 . S
C3180 C3181 1.374 . S
C3181 H3161 0.950 . S
C3181 C3177 1.385 . S
C3181 C3180 1.374 . S
C3182 C3179 1.499 . S
C3182 C3183 1.373 . S
C3182 C3184 1.389 . S
C3183 H3162 0.950 . S
C3183 C3182 1.373 . S
C3183 C3199 1.377 . S
C3184 C3182 1.389 . S
C3184 C3185 1.524 . S
C3184 C3198 1.377 . S
C3185 C3184 1.524 . S
C3185 C3186 1.397 . S
C3185 C3190 1.363 . S
C3186 H3163 0.950 . S
C3186 C3185 1.397 . S
C3186 C3187 1.334 . S
C3187 H3164 0.950 . S
C3187 C3186 1.334 . S
C3187 C3188 1.287 . S
C3188 C3187 1.287 . S
C3188 C3189 1.524 . S
C3188 H3207 0.913 . S
C3189 H3165 0.950 . S
C3189 C3188 1.524 . S
C3189 C3190 1.415 . S
C3190 H3166 0.950 . S
C3190 C3185 1.363 . S
C3190 C3189 1.415 . S
C3191 H3167 0.951 . S
C3191 C3192 1.366 . S
C3191 C3193 1.388 . S
C3192 C3191 1.366 . S
C3192 C3196 1.385 . S
C3193 H3168 0.951 . S
C3193 C3191 1.388 . S
C3193 C3194 1.366 . S
C3194 C3193 1.366 . S
C3194 C3195 1.414 . S
C3194 C3197 1.499 . S
C3195 H3169 0.950 . S
C3195 C3194 1.414 . S
C3195 C3196 1.374 . S
C3196 H3170 0.950 . S
C3196 C3192 1.385 . S
C3196 C3195 1.374 . S
C3197 C3194 1.499 . S
C3197 C3198 1.373 . S
C3197 C3199 1.389 . S
C3198 H3171 0.950 . S
C3198 C3184 1.377 . S
C3198 C3197 1.373 . S
C3199 C3183 1.377 . S
C3199 C3197 1.389 . S
C3199 C3200 1.524 . S
C3200 C3199 1.524 . S
C3200 C3201 1.397 . S
C3200 C3205 1.363 . S
C3201 H3172 0.950 . S
C3201 C3200 1.397 . S
C3201 C3202 1.334 . S
C3202 H3173 0.950 . S
C3202 C3201 1.334 . S
C3202 C3203 1.287 . S
C3203 C3202 1.287 . S
C3203 C3204 1.524 . S
C3203 H3206 0.999 . S
C3204 H3174 0.950 . S
C3204 C3203 1.524 . S
C3204 C3205 1.415 . S
C3205 H3175 0.950 . S
C3205 C3200 1.363 . S
C3205 C3204 1.415 . S
H3206 C3203 0.999 . S
H3207 C3188 0.913 . S
H3208 C3226 0.951 . S
H3209 C3228 0.951 . S
H3210 C3230 0.950 . S
H3211 C3231 0.950 . S
H3212 C3233 0.950 . S
H3213 C3236 0.950 . S
H3214 C3237 0.950 . S
H3215 C3239 0.950 . S
H3216 C3240 0.950 . S
H3217 C3241 0.951 . S
H3218 C3243 0.951 . S
H3219 C3245 0.950 . S
H3220 C3246 0.950 . S
H3221 C3248 0.950 . S
H3222 C3251 0.950 . S
H3223 C3252 0.950 . S
H3224 C3254 0.950 . S
H3225 C3255 0.950 . S
C3226 H3208 0.951 . S
C3226 C3227 1.366 . S
C3226 C3228 1.388 . S
C3227 C3226 1.366 . S
C3227 C3231 1.385 . S
C3228 H3209 0.951 . S
C3228 C3226 1.388 . S
C3228 C3229 1.366 . S
C3229 C3228 1.366 . S
C3229 C3230 1.414 . S
C3229 C3232 1.499 . S
C3230 H3210 0.950 . S
C3230 C3229 1.414 . S
C3230 C3231 1.374 . S
C3231 H3211 0.950 . S
C3231 C3227 1.385 . S
C3231 C3230 1.374 . S
C3232 C3229 1.499 . S
C3232 C3233 1.373 . S
C3232 C3234 1.389 . S
C3233 H3212 0.950 . S
C3233 C3232 1.373 . S
C3233 C3249 1.377 . S
C3234 C3232 1.389 . S
C3234 C3235 1.524 . S
C3234 C3248 1.377 . S
C3235 C3234 1.524 . S
C3235 C3236 1.397 . S
C3235 C3240 1.363 . S
C3236 H3213 0.950 . S
C3236 C3235 1.397 . S
C3236 C3237 1.334 . S
C3237 H3214 0.950 . S
C3237 C3236 1.334 . S
C3237 C3238 1.287 . S
C3238 C3237 1.287 . S
C3238 C3239 1.524 . S
C3238 H3257 0.913 . S
C3239 H3215 0.950 . S
C3239 C3238 1.524 . S
C3239 C3240 1.415 . S
C3240 H3216 0.950 . S
C3240 C3235 1.363 . S
C3240 C3239 1.415 . S
C3241 H3217 0.951 . S
C3241 C3242 1.366 . S
C3241 C3243 1.388 . S
C3242 C3241 1.366 . S
C3242 C3246 1.385 . S
C3243 H3218 0.951 . S
C3243 C3241 1.388 . S
C3243 C3244 1.366 . S
C3244 C3243 1.366 . S
C3244 C3245 1.414 . S
C3244 C3247 1.499 . S
C3245 H3219 0.950 . S
C3245 C3244 1.414 . S
C3245 C3246 1.374 . S
C3246 H3220 0.950 . S
C3246 C3242 1.385 . S
C3246 C3245 1.374 . S
C3247 C3244 1.499 . S
C3247 C3248 1.373 . S
C3247 C3249 1.389 . S
C3248 H3221 0.950 . S
C3248 C3234 1.377 . S
C3248 C3247 1.373 . S
C3249 C3233 1.377 . S
C3249 C3247 1.389 . S
C3249 C3250 1.524 . S
C3250 C3249 1.524 . S
C3250 C3251 1.397 . S
C3250 C3255 1.363 . S
C3251 H3222 0.950 . S
C3251 C3250 1.397 . S
C3251 C3252 1.334 . S
C3252 H3223 0.950 . S
C3252 C3251 1.334 . S
C3252 C3253 1.287 . S
C3253 C3252 1.287 . S
C3253 C3254 1.524 . S
C3253 H3256 0.999 . S
C3254 H3224 0.950 . S
C3254 C3253 1.524 . S
C3254 C3255 1.415 . S
C3255 H3225 0.950 . S
C3255 C3250 1.363 . S
C3255 C3254 1.415 . S
H3256 C3253 0.999 . S
H3257 C3238 0.913 . S
H3258 C3276 0.951 . S
H3259 C3278 0.951 . S
H3260 C3280 0.950 . S
H3261 C3281 0.950 . S
H3262 C3283 0.950 . S
H3263 C3286 0.950 . S
H3264 C3287 0.950 . S
H3265 C3289 0.950 . S
H3266 C3290 0.950 . S
H3267 C3291 0.951 . S
H3268 C3293 0.951 . S
H3269 C3295 0.950 . S
H3270 C3296 0.950 . S
H3271 C3298 0.950 . S
H3272 C3301 0.950 . S
H3273 C3302 0.950 . S
H3274 C3304 0.950 . S
H3275 C3305 0.950 . S
C3276 H3258 0.951 . S
C3276 C3277 1.366 . S
C3276 C3278 1.388 . S
C3277 C3276 1.366 . S
C3277 C3281 1.385 . S
C3278 H3259 0.951 . S
C3278 C3276 1.388 . S
C3278 C3279 1.366 . S
C3279 C3278 1.366 . S
C3279 C3280 1.414 . S
C3279 C3282 1.499 . S
C3280 H3260 0.950 . S
C3280 C3279 1.414 . S
C3280 C3281 1.374 . S
C3281 H3261 0.950 . S
C3281 C3277 1.385 . S
C3281 C3280 1.374 . S
C3282 C3279 1.499 . S
C3282 C3283 1.373 . S
C3282 C3284 1.389 . S
C3283 H3262 0.950 . S
C3283 C3282 1.373 . S
C3283 C3299 1.377 . S
C3284 C3282 1.389 . S
C3284 C3285 1.524 . S
C3284 C3298 1.377 . S
C3285 C3284 1.524 . S
C3285 C3286 1.397 . S
C3285 C3290 1.363 . S
C3286 H3263 0.950 . S
C3286 C3285 1.397 . S
C3286 C3287 1.334 . S
C3287 H3264 0.950 . S
C3287 C3286 1.334 . S
C3287 C3288 1.287 . S
C3288 C3287 1.287 . S
C3288 C3289 1.524 . S
C3288 H3307 0.913 . S
C3289 H3265 0.950 . S
C3289 C3288 1.524 . S
C3289 C3290 1.415 . S
C3290 H3266 0.950 . S
C3290 C3285 1.363 . S
C3290 C3289 1.415 . S
C3291 H3267 0.951 . S
C3291 C3292 1.366 . S
C3291 C3293 1.388 . S
C3292 C3291 1.366 . S
C3292 C3296 1.385 . S
C3293 H3268 0.951 . S
C3293 C3291 1.388 . S
C3293 C3294 1.366 . S
C3294 C3293 1.366 . S
C3294 C3295 1.414 . S
C3294 C3297 1.499 . S
C3295 H3269 0.950 . S
C3295 C3294 1.414 . S
C3295 C3296 1.374 . S
C3296 H3270 0.950 . S
C3296 C3292 1.385 . S
C3296 C3295 1.374 . S
C3297 C3294 1.499 . S
C3297 C3298 1.373 . S
C3297 C3299 1.389 . S
C3298 H3271 0.950 . S
C3298 C3284 1.377 . S
C3298 C3297 1.373 . S
C3299 C3283 1.377 . S
C3299 C3297 1.389 . S
C3299 C3300 1.524 . S
C3300 C3299 1.524 . S
C3300 C3301 1.397 . S
C3300 C3305 1.363 . S
C3301 H3272 0.950 . S
C3301 C3300 1.397 . S
C3301 C3302 1.334 . S
C3302 H3273 0.950 . S
C3302 C3301 1.334 . S
C3302 C3303 1.287 . S
C3303 C3302 1.287 . S
C3303 C3304 1.524 . S
C3303 H3306 0.999 . S
C3304 H3274 0.950 . S
C3304 C3303 1.524 . S
C3304 C3305 1.415 . S
C3305 H3275 0.950 . S
C3305 C3300 1.363 . S
C3305 C3304 1.415 . S
H3306 C3303 0.999 . S
H3307 C3288 0.913 . S
H3308 C3326 0.951 . S
H3309 C3328 0.951 . S
H3310 C3330 0.950 . S
H3311 C3331 0.950 . S
H3312 C3333 0.950 . S
H3313 C3336 0.950 . S
H3314 C3337 0.950 . S
H3315 C3339 0.950 . S
H3316 C3340 0.950 . S
H3317 C3341 0.951 . S
H3318 C3343 0.951 . S
H3319 C3345 0.950 . S
H3320 C3346 0.950 . S
H3321 C3348 0.950 . S
H3322 C3351 0.950 . S
H3323 C3352 0.950 . S
H3324 C3354 0.950 . S
H3325 C3355 0.950 . S
C3326 H3308 0.951 . S
C3326 C3327 1.366 . S
C3326 C3328 1.388 . S
C3327 C3326 1.366 . S
C3327 C3331 1.385 . S
C3328 H3309 0.951 . S
C3328 C3326 1.388 . S
C3328 C3329 1.366 . S
C3329 C3328 1.366 . S
C3329 C3330 1.414 . S
C3329 C3332 1.499 . S
C3330 H3310 0.950 . S
C3330 C3329 1.414 . S
C3330 C3331 1.374 . S
C3331 H3311 0.950 . S
C3331 C3327 1.385 . S
C3331 C3330 1.374 . S
C3332 C3329 1.499 . S
C3332 C3333 1.373 . S
C3332 C3334 1.389 . S
C3333 H3312 0.950 . S
C3333 C3332 1.373 . S
C3333 C3349 1.377 . S
C3334 C3332 1.389 . S
C3334 C3335 1.524 . S
C3334 C3348 1.377 . S
C3335 C3334 1.524 . S
C3335 C3336 1.397 . S
C3335 C3340 1.363 . S
C3336 H3313 0.950 . S
C3336 C3335 1.397 . S
C3336 C3337 1.334 . S
C3337 H3314 0.950 . S
C3337 C3336 1.334 . S
C3337 C3338 1.287 . S
C3338 C3337 1.287 . S
C3338 C3339 1.524 . S
C3338 H3357 0.913 . S
C3339 H3315 0.950 . S
C3339 C3338 1.524 . S
C3339 C3340 1.415 . S
C3340 H3316 0.950 . S
C3340 C3335 1.363 . S
C3340 C3339 1.415 . S
C3341 H3317 0.951 . S
C3341 C3342 1.366 . S
C3341 C3343 1.388 . S
C3342 C3341 1.366 . S
C3342 C3346 1.385 . S
C3343 H3318 0.951 . S
C3343 C3341 1.388 . S
C3343 C3344 1.366 . S
C3344 C3343 1.366 . S
C3344 C3345 1.414 . S
C3344 C3347 1.499 . S
C3345 H3319 0.950 . S
C3345 C3344 1.414 . S
C3345 C3346 1.374 . S
C3346 H3320 0.950 . S
C3346 C3342 1.385 . S
C3346 C3345 1.374 . S
C3347 C3344 1.499 . S
C3347 C3348 1.373 . S
C3347 C3349 1.389 . S
C3348 H3321 0.950 . S
C3348 C3334 1.377 . S
C3348 C3347 1.373 . S
C3349 C3333 1.377 . S
C3349 C3347 1.389 . S
C3349 C3350 1.524 . S
C3350 C3349 1.524 . S
C3350 C3351 1.397 . S
C3350 C3355 1.363 . S
C3351 H3322 0.950 . S
C3351 C3350 1.397 . S
C3351 C3352 1.334 . S
C3352 H3323 0.950 . S
C3352 C3351 1.334 . S
C3352 C3353 1.287 . S
C3353 C3352 1.287 . S
C3353 C3354 1.524 . S
C3353 H3356 0.999 . S
C3354 H3324 0.950 . S
C3354 C3353 1.524 . S
C3354 C3355 1.415 . S
C3355 H3325 0.950 . S
C3355 C3350 1.363 . S
C3355 C3354 1.415 . S
H3356 C3353 0.999 . S
H3357 C3338 0.913 . S
H3358 C3376 0.951 . S
H3359 C3378 0.951 . S
H3360 C3380 0.950 . S
H3361 C3381 0.950 . S
H3362 C3383 0.950 . S
H3363 C3386 0.950 . S
H3364 C3387 0.950 . S
H3365 C3389 0.950 . S
H3366 C3390 0.950 . S
H3367 C3391 0.951 . S
H3368 C3393 0.951 . S
H3369 C3395 0.950 . S
H3370 C3396 0.950 . S
H3371 C3398 0.950 . S
H3372 C3401 0.950 . S
H3373 C3402 0.950 . S
H3374 C3404 0.950 . S
H3375 C3405 0.950 . S
C3376 H3358 0.951 . S
C3376 C3377 1.366 . S
C3376 C3378 1.388 . S
C3377 C3376 1.366 . S
C3377 C3381 1.385 . S
C3378 H3359 0.951 . S
C3378 C3376 1.388 . S
C3378 C3379 1.366 . S
C3379 C3378 1.366 . S
C3379 C3380 1.414 . S
C3379 C3382 1.499 . S
C3380 H3360 0.950 . S
C3380 C3379 1.414 . S
C3380 C3381 1.374 . S
C3381 H3361 0.950 . S
C3381 C3377 1.385 . S
C3381 C3380 1.374 . S
C3382 C3379 1.499 . S
C3382 C3383 1.373 . S
C3382 C3384 1.389 . S
C3383 H3362 0.950 . S
C3383 C3382 1.373 . S
C3383 C3399 1.377 . S
C3384 C3382 1.389 . S
C3384 C3385 1.524 . S
C3384 C3398 1.377 . S
C3385 C3384 1.524 . S
C3385 C3386 1.397 . S
C3385 C3390 1.363 . S
C3386 H3363 0.950 . S
C3386 C3385 1.397 . S
C3386 C3387 1.334 . S
C3387 H3364 0.950 . S
C3387 C3386 1.334 . S
C3387 C3388 1.287 . S
C3388 C3387 1.287 . S
C3388 C3389 1.524 . S
C3388 H3407 0.913 . S
C3389 H3365 0.950 . S
C3389 C3388 1.524 . S
C3389 C3390 1.415 . S
C3390 H3366 0.950 . S
C3390 C3385 1.363 . S
C3390 C3389 1.415 . S
C3391 H3367 0.951 . S
C3391 C3392 1.366 . S
C3391 C3393 1.388 . S
C3392 C3391 1.366 . S
C3392 C3396 1.385 . S
C3393 H3368 0.951 . S
C3393 C3391 1.388 . S
C3393 C3394 1.366 . S
C3394 C3393 1.366 . S
C3394 C3395 1.414 . S
C3394 C3397 1.499 . S
C3395 H3369 0.950 . S
C3395 C3394 1.414 . S
C3395 C3396 1.374 . S
C3396 H3370 0.950 . S
C3396 C3392 1.385 . S
C3396 C3395 1.374 . S
C3397 C3394 1.499 . S
C3397 C3398 1.373 . S
C3397 C3399 1.389 . S
C3398 H3371 0.950 . S
C3398 C3384 1.377 . S
C3398 C3397 1.373 . S
C3399 C3383 1.377 . S
C3399 C3397 1.389 . S
C3399 C3400 1.524 . S
C3400 C3399 1.524 . S
C3400 C3401 1.397 . S
C3400 C3405 1.363 . S
C3401 H3372 0.950 . S
C3401 C3400 1.397 . S
C3401 C3402 1.334 . S
C3402 H3373 0.950 . S
C3402 C3401 1.334 . S
C3402 C3403 1.287 . S
C3403 C3402 1.287 . S
C3403 C3404 1.524 . S
C3403 H3406 0.999 . S
C3404 H3374 0.950 . S
C3404 C3403 1.524 . S
C3404 C3405 1.415 . S
C3405 H3375 0.950 . S
C3405 C3400 1.363 . S
C3405 C3404 1.415 . S
H3406 C3403 0.999 . S
H3407 C3388 0.913 . S
H3408 C3426 0.951 . S
H3409 C3428 0.951 . S
H3410 C3430 0.950 . S
H3411 C3431 0.950 . S
H3412 C3433 0.950 . S
H3413 C3436 0.950 . S
H3414 C3437 0.950 . S
H3415 C3439 0.972 . S
H3416 C3440 0.950 . S
H3417 C3441 0.951 . S
H3418 C3443 0.951 . S
H3419 C3445 0.950 . S
H3420 C3446 0.950 . S
H3421 C3448 0.950 . S
H3422 C3451 0.950 . S
H3423 C3452 0.950 . S
H3424 C3454 0.950 1_556 S
H3425 C3455 0.950 . S
C3426 H3408 0.951 . S
C3426 C3427 1.366 . S
C3426 C3428 1.388 . S
C3427 C3426 1.366 . S
C3427 C3431 1.385 . S
C3428 H3409 0.951 . S
C3428 C3426 1.388 . S
C3428 C3429 1.366 . S
C3429 C3428 1.366 . S
C3429 C3430 1.414 . S
C3429 C3432 1.499 . S
C3430 H3410 0.950 . S
C3430 C3429 1.414 . S
C3430 C3431 1.374 . S
C3431 H3411 0.950 . S
C3431 C3427 1.385 . S
C3431 C3430 1.374 . S
C3432 C3429 1.499 . S
C3432 C3433 1.373 . S
C3432 C3434 1.389 . S
C3433 H3412 0.950 . S
C3433 C3432 1.373 . S
C3433 C3449 1.377 . S
C3434 C3432 1.389 . S
C3434 C3435 1.524 . S
C3434 C3448 1.377 . S
C3435 C3434 1.524 . S
C3435 C3436 1.397 . S
C3435 C3440 1.363 . S
C3436 H3413 0.950 . S
C3436 C3435 1.397 . S
C3436 C3437 1.334 1_455 S
C3437 H3414 0.950 . S
C3437 C3436 1.334 1_655 S
C3437 C3438 1.287 . S
C3438 C3437 1.287 . S
C3438 C3439 1.546 . S
C3438 H3457 0.913 . S
C3439 H3415 0.972 . S
C3439 C3438 1.546 . S
C3439 C3440 1.371 1_655 S
C3440 H3416 0.950 . S
C3440 C3435 1.363 . S
C3440 C3439 1.371 1_455 S
C3441 H3417 0.951 . S
C3441 C3442 1.366 . S
C3441 C3443 1.388 . S
C3442 C3441 1.366 . S
C3442 C3446 1.385 . S
C3443 H3418 0.951 . S
C3443 C3441 1.388 . S
C3443 C3444 1.366 . S
C3444 C3443 1.366 . S
C3444 C3445 1.414 . S
C3444 C3447 1.499 . S
C3445 H3419 0.950 . S
C3445 C3444 1.414 . S
C3445 C3446 1.374 . S
C3446 H3420 0.950 . S
C3446 C3442 1.385 . S
C3446 C3445 1.374 . S
C3447 C3444 1.499 . S
C3447 C3448 1.373 . S
C3447 C3449 1.389 . S
C3448 H3421 0.950 . S
C3448 C3434 1.377 . S
C3448 C3447 1.373 . S
C3449 C3433 1.377 . S
C3449 C3447 1.389 . S
C3449 C3450 1.524 . S
C3450 C3449 1.524 . S
C3450 C3451 1.397 . S
C3450 C3455 1.363 . S
C3451 H3422 0.950 . S
C3451 C3450 1.397 . S
C3451 C3452 1.334 . S
C3452 H3423 0.950 . S
C3452 C3451 1.334 . S
C3452 C3453 1.287 . S
C3453 C3452 1.287 . S
C3453 C3454 1.524 . S
C3453 H3456 0.999 . S
C3454 H3424 0.950 1_554 S
C3454 C3453 1.524 . S
C3454 C3455 1.415 . S
C3455 H3425 0.950 . S
C3455 C3450 1.363 . S
C3455 C3454 1.415 . S
H3456 C3453 0.999 . S
H3457 C3438 0.913 . S
H3458 C3476 0.951 . S
H3459 C3478 0.951 . S
H3460 C3480 0.950 . S
H3461 C3481 0.950 . S
H3462 C3483 0.950 . S
H3463 C3486 0.950 . S
H3464 C3487 0.950 . S
H3465 C3489 0.950 . S
H3466 C3490 0.950 . S
H3467 C3491 0.951 . S
H3468 C3493 0.951 . S
H3469 C3495 0.950 . S
H3470 C3496 0.950 . S
H3471 C3498 0.950 . S
H3472 C3501 0.950 . S
H3473 C3502 0.950 . S
H3474 C3504 0.950 . S
H3475 C3505 0.950 . S
C3476 H3458 0.951 . S
C3476 C3477 1.366 . S
C3476 C3478 1.388 . S
C3477 C3476 1.366 . S
C3477 C3481 1.385 . S
C3478 H3459 0.951 . S
C3478 C3476 1.388 . S
C3478 C3479 1.366 . S
C3479 C3478 1.366 . S
C3479 C3480 1.414 . S
C3479 C3482 1.499 . S
C3480 H3460 0.950 . S
C3480 C3479 1.414 . S
C3480 C3481 1.374 . S
C3481 H3461 0.950 . S
C3481 C3477 1.385 . S
C3481 C3480 1.374 . S
C3482 C3479 1.499 . S
C3482 C3483 1.373 . S
C3482 C3484 1.389 . S
C3483 H3462 0.950 . S
C3483 C3482 1.373 . S
C3483 C3499 1.377 . S
C3484 C3482 1.389 . S
C3484 C3485 1.524 . S
C3484 C3498 1.377 . S
C3485 C3484 1.524 . S
C3485 C3486 1.397 . S
C3485 C3490 1.363 . S
C3486 H3463 0.950 . S
C3486 C3485 1.397 . S
C3486 C3487 1.334 . S
C3487 H3464 0.950 . S
C3487 C3486 1.334 . S
C3487 C3488 1.287 . S
C3488 C3487 1.287 . S
C3488 C3489 1.524 . S
C3488 H3507 0.913 . S
C3489 H3465 0.950 . S
C3489 C3488 1.524 . S
C3489 C3490 1.415 . S
C3490 H3466 0.950 . S
C3490 C3485 1.363 . S
C3490 C3489 1.415 . S
C3491 H3467 0.951 . S
C3491 C3492 1.366 . S
C3491 C3493 1.388 . S
C3492 C3491 1.366 . S
C3492 C3496 1.385 . S
C3493 H3468 0.951 . S
C3493 C3491 1.388 . S
C3493 C3494 1.366 . S
C3494 C3493 1.366 . S
C3494 C3495 1.414 . S
C3494 C3497 1.499 . S
C3495 H3469 0.950 . S
C3495 C3494 1.414 . S
C3495 C3496 1.374 . S
C3496 H3470 0.950 . S
C3496 C3492 1.385 . S
C3496 C3495 1.374 . S
C3497 C3494 1.499 . S
C3497 C3498 1.373 . S
C3497 C3499 1.389 . S
C3498 H3471 0.950 . S
C3498 C3484 1.377 . S
C3498 C3497 1.373 . S
C3499 C3483 1.377 . S
C3499 C3497 1.389 . S
C3499 C3500 1.524 . S
C3500 C3499 1.524 . S
C3500 C3501 1.397 . S
C3500 C3505 1.363 . S
C3501 H3472 0.950 . S
C3501 C3500 1.397 . S
C3501 C3502 1.334 . S
C3502 H3473 0.950 . S
C3502 C3501 1.334 . S
C3502 C3503 1.287 . S
C3503 C3502 1.287 . S
C3503 C3504 1.524 . S
C3503 H3506 0.999 . S
C3504 H3474 0.950 . S
C3504 C3503 1.524 . S
C3504 C3505 1.415 . S
C3505 H3475 0.950 . S
C3505 C3500 1.363 . S
C3505 C3504 1.415 . S
H3506 C3503 0.999 . S
H3507 C3488 0.913 . S
H3508 C3526 0.951 . S
H3509 C3528 0.951 . S
H3510 C3530 0.950 . S
H3511 C3531 0.950 . S
H3512 C3533 0.950 . S
H3513 C3536 0.950 . S
H3514 C3537 0.950 . S
H3515 C3539 0.950 . S
H3516 C3540 0.950 . S
H3517 C3541 0.951 . S
H3518 C3543 0.951 . S
H3519 C3545 0.950 . S
H3520 C3546 0.950 . S
H3521 C3548 0.950 . S
H3522 C3551 0.950 . S
H3523 C3552 0.950 . S
H3524 C3554 0.950 . S
H3525 C3555 0.950 . S
C3526 H3508 0.951 . S
C3526 C3527 1.366 . S
C3526 C3528 1.388 . S
C3527 C3526 1.366 . S
C3527 C3531 1.385 . S
C3528 H3509 0.951 . S
C3528 C3526 1.388 . S
C3528 C3529 1.366 . S
C3529 C3528 1.366 . S
C3529 C3530 1.414 . S
C3529 C3532 1.499 . S
C3530 H3510 0.950 . S
C3530 C3529 1.414 . S
C3530 C3531 1.374 . S
C3531 H3511 0.950 . S
C3531 C3527 1.385 . S
C3531 C3530 1.374 . S
C3532 C3529 1.499 . S
C3532 C3533 1.373 . S
C3532 C3534 1.389 . S
C3533 H3512 0.950 . S
C3533 C3532 1.373 . S
C3533 C3549 1.377 . S
C3534 C3532 1.389 . S
C3534 C3535 1.524 . S
C3534 C3548 1.377 . S
C3535 C3534 1.524 . S
C3535 C3536 1.397 . S
C3535 C3540 1.363 . S
C3536 H3513 0.950 . S
C3536 C3535 1.397 . S
C3536 C3537 1.334 . S
C3537 H3514 0.950 . S
C3537 C3536 1.334 . S
C3537 C3538 1.287 . S
C3538 C3537 1.287 . S
C3538 C3539 1.524 . S
C3538 H3557 0.913 . S
C3539 H3515 0.950 . S
C3539 C3538 1.524 . S
C3539 C3540 1.415 . S
C3540 H3516 0.950 . S
C3540 C3535 1.363 . S
C3540 C3539 1.415 . S
C3541 H3517 0.951 . S
C3541 C3542 1.366 . S
C3541 C3543 1.388 . S
C3542 C3541 1.366 . S
C3542 C3546 1.385 . S
C3543 H3518 0.951 . S
C3543 C3541 1.388 . S
C3543 C3544 1.366 . S
C3544 C3543 1.366 . S
C3544 C3545 1.414 . S
C3544 C3547 1.499 . S
C3545 H3519 0.950 . S
C3545 C3544 1.414 . S
C3545 C3546 1.374 . S
C3546 H3520 0.950 . S
C3546 C3542 1.385 . S
C3546 C3545 1.374 . S
C3547 C3544 1.499 . S
C3547 C3548 1.373 . S
C3547 C3549 1.389 . S
C3548 H3521 0.950 . S
C3548 C3534 1.377 . S
C3548 C3547 1.373 . S
C3549 C3533 1.377 . S
C3549 C3547 1.389 . S
C3549 C3550 1.524 . S
C3550 C3549 1.524 . S
C3550 C3551 1.397 . S
C3550 C3555 1.363 . S
C3551 H3522 0.950 . S
C3551 C3550 1.397 . S
C3551 C3552 1.334 . S
C3552 H3523 0.950 . S
C3552 C3551 1.334 . S
C3552 C3553 1.287 . S
C3553 C3552 1.287 . S
C3553 C3554 1.524 . S
C3553 H3556 0.999 . S
C3554 H3524 0.950 . S
C3554 C3553 1.524 . S
C3554 C3555 1.415 . S
C3555 H3525 0.950 . S
C3555 C3550 1.363 . S
C3555 C3554 1.415 . S
H3556 C3553 0.999 . S
H3557 C3538 0.913 . S
H3558 C3576 0.951 . S
H3559 C3578 0.951 . S
H3560 C3580 0.950 . S
H3561 C3581 0.950 . S
H3562 C3583 0.950 . S
H3563 C3586 0.950 . S
H3564 C3587 0.950 . S
H3565 C3589 0.950 . S
H3566 C3590 0.950 . S
H3567 C3591 0.951 . S
H3568 C3593 0.951 . S
H3569 C3595 0.950 . S
H3570 C3596 0.950 . S
H3571 C3598 0.950 . S
H3572 C3601 0.950 . S
H3573 C3602 0.950 . S
H3574 C3604 0.950 . S
H3575 C3605 0.950 . S
C3576 H3558 0.951 . S
C3576 C3577 1.366 . S
C3576 C3578 1.388 . S
C3577 C3576 1.366 . S
C3577 C3581 1.385 . S
C3578 H3559 0.951 . S
C3578 C3576 1.388 . S
C3578 C3579 1.366 . S
C3579 C3578 1.366 . S
C3579 C3580 1.414 . S
C3579 C3582 1.499 . S
C3580 H3560 0.950 . S
C3580 C3579 1.414 . S
C3580 C3581 1.374 . S
C3581 H3561 0.950 . S
C3581 C3577 1.385 . S
C3581 C3580 1.374 . S
C3582 C3579 1.499 . S
C3582 C3583 1.373 . S
C3582 C3584 1.389 . S
C3583 H3562 0.950 . S
C3583 C3582 1.373 . S
C3583 C3599 1.377 . S
C3584 C3582 1.389 . S
C3584 C3585 1.524 . S
C3584 C3598 1.377 . S
C3585 C3584 1.524 . S
C3585 C3586 1.397 . S
C3585 C3590 1.363 . S
C3586 H3563 0.950 . S
C3586 C3585 1.397 . S
C3586 C3587 1.334 . S
C3587 H3564 0.950 . S
C3587 C3586 1.334 . S
C3587 C3588 1.287 . S
C3588 C3587 1.287 . S
C3588 C3589 1.524 . S
C3588 H3607 0.913 . S
C3589 H3565 0.950 . S
C3589 C3588 1.524 . S
C3589 C3590 1.415 . S
C3590 H3566 0.950 . S
C3590 C3585 1.363 . S
C3590 C3589 1.415 . S
C3591 H3567 0.951 . S
C3591 C3592 1.366 . S
C3591 C3593 1.388 . S
C3592 C3591 1.366 . S
C3592 C3596 1.385 . S
C3593 H3568 0.951 . S
C3593 C3591 1.388 . S
C3593 C3594 1.366 . S
C3594 C3593 1.366 . S
C3594 C3595 1.414 . S
C3594 C3597 1.499 . S
C3595 H3569 0.950 . S
C3595 C3594 1.414 . S
C3595 C3596 1.374 . S
C3596 H3570 0.950 . S
C3596 C3592 1.385 . S
C3596 C3595 1.374 . S
C3597 C3594 1.499 . S
C3597 C3598 1.373 . S
C3597 C3599 1.389 . S
C3598 H3571 0.950 . S
C3598 C3584 1.377 . S
C3598 C3597 1.373 . S
C3599 C3583 1.377 . S
C3599 C3597 1.389 . S
C3599 C3600 1.524 . S
C3600 C3599 1.524 . S
C3600 C3601 1.397 . S
C3600 C3605 1.363 . S
C3601 H3572 0.950 . S
C3601 C3600 1.397 . S
C3601 C3602 1.334 . S
C3602 H3573 0.950 . S
C3602 C3601 1.334 . S
C3602 C3603 1.287 . S
C3603 C3602 1.287 . S
C3603 C3604 1.524 . S
C3603 H3606 0.999 . S
C3604 H3574 0.950 . S
C3604 C3603 1.524 . S
C3604 C3605 1.415 . S
C3605 H3575 0.950 . S
C3605 C3600 1.363 . S
C3605 C3604 1.415 . S
H3606 C3603 0.999 . S
H3607 C3588 0.913 . S
H3608 C3626 0.951 . S
H3609 C3628 0.951 . S
H3610 C3630 0.950 . S
H3611 C3631 0.950 . S
H3612 C3633 0.950 . S
H3613 C3636 0.950 . S
H3614 C3637 0.950 . S
H3615 C3639 0.950 . S
H3616 C3640 0.950 . S
H3617 C3641 0.951 . S
H3618 C3643 0.951 . S
H3619 C3645 0.950 . S
H3620 C3646 0.950 . S
H3621 C3648 0.950 . S
H3622 C3651 0.950 . S
H3623 C3652 0.950 . S
H3624 C3654 0.950 . S
H3625 C3655 0.950 . S
C3626 H3608 0.951 . S
C3626 C3627 1.366 . S
C3626 C3628 1.388 . S
C3627 C3626 1.366 . S
C3627 C3631 1.385 . S
C3628 H3609 0.951 . S
C3628 C3626 1.388 . S
C3628 C3629 1.366 . S
C3629 C3628 1.366 . S
C3629 C3630 1.414 . S
C3629 C3632 1.499 . S
C3630 H3610 0.950 . S
C3630 C3629 1.414 . S
C3630 C3631 1.374 . S
C3631 H3611 0.950 . S
C3631 C3627 1.385 . S
C3631 C3630 1.374 . S
C3632 C3629 1.499 . S
C3632 C3633 1.373 . S
C3632 C3634 1.389 . S
C3633 H3612 0.950 . S
C3633 C3632 1.373 . S
C3633 C3649 1.377 . S
C3634 C3632 1.389 . S
C3634 C3635 1.524 . S
C3634 C3648 1.377 . S
C3635 C3634 1.524 . S
C3635 C3636 1.397 . S
C3635 C3640 1.363 . S
C3636 H3613 0.950 . S
C3636 C3635 1.397 . S
C3636 C3637 1.334 . S
C3637 H3614 0.950 . S
C3637 C3636 1.334 . S
C3637 C3638 1.287 . S
C3638 C3637 1.287 . S
C3638 C3639 1.524 . S
C3638 H3657 0.913 . S
C3639 H3615 0.950 . S
C3639 C3638 1.524 . S
C3639 C3640 1.415 . S
C3640 H3616 0.950 . S
C3640 C3635 1.363 . S
C3640 C3639 1.415 . S
C3641 H3617 0.951 . S
C3641 C3642 1.366 . S
C3641 C3643 1.388 . S
C3642 C3641 1.366 . S
C3642 C3646 1.385 . S
C3643 H3618 0.951 . S
C3643 C3641 1.388 . S
C3643 C3644 1.366 . S
C3644 C3643 1.366 . S
C3644 C3645 1.414 . S
C3644 C3647 1.499 . S
C3645 H3619 0.950 . S
C3645 C3644 1.414 . S
C3645 C3646 1.374 . S
C3646 H3620 0.950 . S
C3646 C3642 1.385 . S
C3646 C3645 1.374 . S
C3647 C3644 1.499 . S
C3647 C3648 1.373 . S
C3647 C3649 1.389 . S
C3648 H3621 0.950 . S
C3648 C3634 1.377 . S
C3648 C3647 1.373 . S
C3649 C3633 1.377 . S
C3649 C3647 1.389 . S
C3649 C3650 1.524 . S
C3650 C3649 1.524 . S
C3650 C3651 1.397 1_455 S
C3650 C3655 1.363 . S
C3651 H3622 0.950 . S
C3651 C3650 1.397 1_655 S
C3651 C3652 1.334 . S
C3652 H3623 0.950 . S
C3652 C3651 1.334 . S
C3652 C3653 1.287 . S
C3653 C3652 1.287 . S
C3653 C3654 1.524 1_655 S
C3653 H3656 0.999 . S
C3654 H3624 0.950 . S
C3654 C3653 1.524 1_455 S
C3654 C3655 1.415 . S
C3655 H3625 0.950 . S
C3655 C3650 1.363 . S
C3655 C3654 1.415 . S
H3656 C3653 0.999 . S
H3657 C3638 0.913 . S
H3658 C3676 0.951 . S
H3659 C3678 0.951 . S
H3660 C3680 0.950 . S
H3661 C3681 0.950 . S
H3662 C3683 0.950 . S
H3663 C3686 0.950 . S
H3664 C3687 0.950 . S
H3665 C3689 0.950 . S
H3666 C3690 0.950 . S
H3667 C3691 0.951 . S
H3668 C3693 0.951 . S
H3669 C3695 0.950 . S
H3670 C3696 0.950 . S
H3671 C3698 0.950 . S
H3672 C3701 0.950 . S
H3673 C3702 0.950 . S
H3674 C3704 0.950 . S
H3675 C3705 0.950 . S
C3676 H3658 0.951 . S
C3676 C3677 1.366 . S
C3676 C3678 1.388 . S
C3677 C3676 1.366 . S
C3677 C3681 1.385 . S
C3678 H3659 0.951 . S
C3678 C3676 1.388 . S
C3678 C3679 1.366 . S
C3679 C3678 1.366 . S
C3679 C3680 1.414 . S
C3679 C3682 1.499 . S
C3680 H3660 0.950 . S
C3680 C3679 1.414 . S
C3680 C3681 1.374 . S
C3681 H3661 0.950 . S
C3681 C3677 1.385 . S
C3681 C3680 1.374 . S
C3682 C3679 1.499 . S
C3682 C3683 1.373 . S
C3682 C3684 1.389 . S
C3683 H3662 0.950 . S
C3683 C3682 1.373 . S
C3683 C3699 1.377 . S
C3684 C3682 1.389 . S
C3684 C3685 1.524 . S
C3684 C3698 1.377 . S
C3685 C3684 1.524 . S
C3685 C3686 1.397 . S
C3685 C3690 1.363 . S
C3686 H3663 0.950 . S
C3686 C3685 1.397 . S
C3686 C3687 1.334 . S
C3687 H3664 0.950 . S
C3687 C3686 1.334 . S
C3687 C3688 1.287 . S
C3688 C3687 1.287 . S
C3688 C3689 1.524 . S
C3688 H3707 0.913 . S
C3689 H3665 0.950 . S
C3689 C3688 1.524 . S
C3689 C3690 1.415 . S
C3690 H3666 0.950 . S
C3690 C3685 1.363 . S
C3690 C3689 1.415 . S
C3691 H3667 0.951 . S
C3691 C3692 1.366 . S
C3691 C3693 1.388 . S
C3692 C3691 1.366 . S
C3692 C3696 1.385 . S
C3693 H3668 0.951 . S
C3693 C3691 1.388 . S
C3693 C3694 1.366 . S
C3694 C3693 1.366 . S
C3694 C3695 1.414 . S
C3694 C3697 1.499 . S
C3695 H3669 0.950 . S
C3695 C3694 1.414 . S
C3695 C3696 1.374 . S
C3696 H3670 0.950 . S
C3696 C3692 1.385 . S
C3696 C3695 1.374 . S
C3697 C3694 1.499 . S
C3697 C3698 1.373 . S
C3697 C3699 1.389 . S
C3698 H3671 0.950 . S
C3698 C3684 1.377 . S
C3698 C3697 1.373 . S
C3699 C3683 1.377 . S
C3699 C3697 1.389 . S
C3699 C3700 1.524 . S
C3700 C3699 1.524 . S
C3700 C3701 1.397 . S
C3700 C3705 1.363 . S
C3701 H3672 0.950 . S
C3701 C3700 1.397 . S
C3701 C3702 1.334 . S
C3702 H3673 0.950 . S
C3702 C3701 1.334 . S
C3702 C3703 1.287 . S
C3703 C3702 1.287 . S
C3703 C3704 1.524 . S
C3703 H3706 0.999 . S
C3704 H3674 0.950 . S
C3704 C3703 1.524 . S
C3704 C3705 1.415 . S
C3705 H3675 0.950 . S
C3705 C3700 1.363 . S
C3705 C3704 1.415 . S
H3706 C3703 0.999 . S
H3707 C3688 0.913 . S
H3708 C3726 0.951 . S
H3709 C3728 0.951 . S
H3710 C3730 0.950 . S
H3711 C3731 0.950 . S
H3712 C3733 0.950 . S
H3713 C3736 0.950 . S
H3714 C3737 0.950 . S
H3715 C3739 0.950 . S
H3716 C3740 0.950 . S
H3717 C3741 0.951 . S
H3718 C3743 0.951 . S
H3719 C3745 0.950 . S
H3720 C3746 0.950 . S
H3721 C3748 0.950 . S
H3722 C3751 0.950 . S
H3723 C3752 0.950 . S
H3724 C3754 0.950 . S
H3725 C3755 0.950 . S
C3726 H3708 0.951 . S
C3726 C3727 1.366 . S
C3726 C3728 1.388 . S
C3727 C3726 1.366 . S
C3727 C3731 1.385 . S
C3728 H3709 0.951 . S
C3728 C3726 1.388 . S
C3728 C3729 1.366 . S
C3729 C3728 1.366 . S
C3729 C3730 1.414 . S
C3729 C3732 1.499 . S
C3730 H3710 0.950 . S
C3730 C3729 1.414 . S
C3730 C3731 1.374 . S
C3731 H3711 0.950 . S
C3731 C3727 1.385 . S
C3731 C3730 1.374 . S
C3732 C3729 1.499 . S
C3732 C3733 1.373 . S
C3732 C3734 1.389 . S
C3733 H3712 0.950 . S
C3733 C3732 1.373 . S
C3733 C3749 1.377 . S
C3734 C3732 1.389 . S
C3734 C3735 1.524 . S
C3734 C3748 1.377 . S
C3735 C3734 1.524 . S
C3735 C3736 1.397 . S
C3735 C3740 1.363 . S
C3736 H3713 0.950 . S
C3736 C3735 1.397 . S
C3736 C3737 1.334 . S
C3737 H3714 0.950 . S
C3737 C3736 1.334 . S
C3737 C3738 1.287 . S
C3738 C3737 1.287 . S
C3738 C3739 1.524 . S
C3738 H3757 0.913 . S
C3739 H3715 0.950 . S
C3739 C3738 1.524 . S
C3739 C3740 1.415 . S
C3740 H3716 0.950 . S
C3740 C3735 1.363 . S
C3740 C3739 1.415 . S
C3741 H3717 0.951 . S
C3741 C3742 1.366 . S
C3741 C3743 1.388 . S
C3742 C3741 1.366 . S
C3742 C3746 1.385 . S
C3743 H3718 0.951 . S
C3743 C3741 1.388 . S
C3743 C3744 1.366 . S
C3744 C3743 1.366 . S
C3744 C3745 1.414 . S
C3744 C3747 1.499 . S
C3745 H3719 0.950 . S
C3745 C3744 1.414 . S
C3745 C3746 1.374 . S
C3746 H3720 0.950 . S
C3746 C3742 1.385 . S
C3746 C3745 1.374 . S
C3747 C3744 1.499 . S
C3747 C3748 1.373 . S
C3747 C3749 1.389 . S
C3748 H3721 0.950 . S
C3748 C3734 1.377 . S
C3748 C3747 1.373 . S
C3749 C3733 1.377 . S
C3749 C3747 1.389 . S
C3749 C3750 1.524 . S
C3750 C3749 1.524 . S
C3750 C3751 1.397 . S
C3750 C3755 1.363 . S
C3751 H3722 0.950 . S
C3751 C3750 1.397 . S
C3751 C3752 1.334 . S
C3752 H3723 0.950 . S
C3752 C3751 1.334 . S
C3752 C3753 1.287 . S
C3753 C3752 1.287 . S
C3753 C3754 1.524 . S
C3753 H3756 0.999 . S
C3754 H3724 0.950 . S
C3754 C3753 1.524 . S
C3754 C3755 1.415 . S
C3755 H3725 0.950 . S
C3755 C3750 1.363 . S
C3755 C3754 1.415 . S
H3756 C3753 0.999 . S
H3757 C3738 0.913 . S
H3758 C3776 0.951 . S
H3759 C3778 0.951 . S
H3760 C3780 0.950 . S
H3761 C3781 0.950 . S
H3762 C3783 0.950 . S
H3763 C3786 0.950 . S
H3764 C3787 0.950 . S
H3765 C3789 0.950 . S
H3766 C3790 0.950 . S
H3767 C3791 0.951 . S
H3768 C3793 0.951 . S
H3769 C3795 0.950 . S
H3770 C3796 0.950 . S
H3771 C3798 0.950 . S
H3772 C3801 0.950 . S
H3773 C3802 0.950 . S
H3774 C3804 0.950 . S
H3775 C3805 0.950 . S
C3776 H3758 0.951 . S
C3776 C3777 1.366 . S
C3776 C3778 1.388 . S
C3777 C3776 1.366 . S
C3777 C3781 1.385 . S
C3778 H3759 0.951 . S
C3778 C3776 1.388 . S
C3778 C3779 1.366 . S
C3779 C3778 1.366 . S
C3779 C3780 1.414 . S
C3779 C3782 1.499 . S
C3780 H3760 0.950 . S
C3780 C3779 1.414 . S
C3780 C3781 1.374 . S
C3781 H3761 0.950 . S
C3781 C3777 1.385 . S
C3781 C3780 1.374 . S
C3782 C3779 1.499 . S
C3782 C3783 1.373 . S
C3782 C3784 1.389 . S
C3783 H3762 0.950 . S
C3783 C3782 1.373 . S
C3783 C3799 1.377 . S
C3784 C3782 1.389 . S
C3784 C3785 1.524 . S
C3784 C3798 1.377 . S
C3785 C3784 1.524 . S
C3785 C3786 1.397 . S
C3785 C3790 1.363 . S
C3786 H3763 0.950 . S
C3786 C3785 1.397 . S
C3786 C3787 1.334 . S
C3787 H3764 0.950 . S
C3787 C3786 1.334 . S
C3787 C3788 1.287 . S
C3788 C3787 1.287 . S
C3788 C3789 1.524 . S
C3788 H3807 0.913 . S
C3789 H3765 0.950 . S
C3789 C3788 1.524 . S
C3789 C3790 1.415 . S
C3790 H3766 0.950 . S
C3790 C3785 1.363 . S
C3790 C3789 1.415 . S
C3791 H3767 0.951 . S
C3791 C3792 1.366 . S
C3791 C3793 1.388 . S
C3792 C3791 1.366 . S
C3792 C3796 1.385 . S
C3793 H3768 0.951 . S
C3793 C3791 1.388 . S
C3793 C3794 1.366 . S
C3794 C3793 1.366 . S
C3794 C3795 1.414 . S
C3794 C3797 1.499 . S
C3795 H3769 0.950 . S
C3795 C3794 1.414 . S
C3795 C3796 1.374 . S
C3796 H3770 0.950 . S
C3796 C3792 1.385 . S
C3796 C3795 1.374 . S
C3797 C3794 1.499 . S
C3797 C3798 1.373 . S
C3797 C3799 1.389 . S
C3798 H3771 0.950 . S
C3798 C3784 1.377 . S
C3798 C3797 1.373 . S
C3799 C3783 1.377 . S
C3799 C3797 1.389 . S
C3799 C3800 1.524 . S
C3800 C3799 1.524 . S
C3800 C3801 1.397 . S
C3800 C3805 1.363 . S
C3801 H3772 0.950 . S
C3801 C3800 1.397 . S
C3801 C3802 1.334 . S
C3802 H3773 0.950 . S
C3802 C3801 1.334 . S
C3802 C3803 1.287 . S
C3803 C3802 1.287 . S
C3803 C3804 1.524 . S
C3803 H3806 0.999 . S
C3804 H3774 0.950 . S
C3804 C3803 1.524 . S
C3804 C3805 1.415 . S
C3805 H3775 0.950 . S
C3805 C3800 1.363 . S
C3805 C3804 1.415 . S
H3806 C3803 0.999 . S
H3807 C3788 0.913 . S
H3808 C3826 0.951 . S
H3809 C3828 0.951 . S
H3810 C3830 0.950 . S
H3811 C3831 0.950 . S
H3812 C3833 0.950 . S
H3813 C3836 0.950 . S
H3814 C3837 0.950 . S
H3815 C3839 0.950 . S
H3816 C3840 0.950 1_545 S
H3817 C3841 0.951 . S
H3818 C3843 0.951 . S
H3819 C3845 0.950 . S
H3820 C3846 0.950 . S
H3821 C3848 0.950 . S
H3822 C3851 0.950 . S
H3823 C3852 0.950 . S
H3824 C3854 0.950 . S
H3825 C3855 0.950 . S
C3826 H3808 0.951 . S
C3826 C3827 1.366 . S
C3826 C3828 1.388 . S
C3827 C3826 1.366 . S
C3827 C3831 1.385 . S
C3828 H3809 0.951 . S
C3828 C3826 1.388 . S
C3828 C3829 1.366 . S
C3829 C3828 1.366 . S
C3829 C3830 1.414 . S
C3829 C3832 1.499 . S
C3830 H3810 0.950 . S
C3830 C3829 1.414 . S
C3830 C3831 1.374 . S
C3831 H3811 0.950 . S
C3831 C3827 1.385 . S
C3831 C3830 1.374 . S
C3832 C3829 1.499 . S
C3832 C3833 1.373 . S
C3832 C3834 1.389 . S
C3833 H3812 0.950 . S
C3833 C3832 1.373 . S
C3833 C3849 1.377 . S
C3834 C3832 1.389 . S
C3834 C3835 1.487 1_545 S
C3834 C3848 1.377 . S
C3835 C3834 1.487 1_565 S
C3835 C3836 1.425 . S
C3835 C3840 1.376 . S
C3836 H3813 0.950 . S
C3836 C3835 1.425 . S
C3836 C3837 1.334 . S
C3837 H3814 0.950 . S
C3837 C3836 1.334 . S
C3837 C3838 1.287 . S
C3838 C3837 1.287 . S
C3838 C3839 1.524 . S
C3838 H3857 0.913 . S
C3839 H3815 0.950 . S
C3839 C3838 1.524 . S
C3839 C3840 1.415 . S
C3840 H3816 0.950 1_565 S
C3840 C3835 1.376 . S
C3840 C3839 1.415 . S
C3841 H3817 0.951 . S
C3841 C3842 1.366 . S
C3841 C3843 1.388 . S
C3842 C3841 1.366 . S
C3842 C3846 1.385 . S
C3843 H3818 0.951 . S
C3843 C3841 1.388 . S
C3843 C3844 1.366 . S
C3844 C3843 1.366 . S
C3844 C3845 1.414 . S
C3844 C3847 1.499 . S
C3845 H3819 0.950 . S
C3845 C3844 1.414 . S
C3845 C3846 1.374 . S
C3846 H3820 0.950 . S
C3846 C3842 1.385 . S
C3846 C3845 1.374 . S
C3847 C3844 1.499 . S
C3847 C3848 1.373 . S
C3847 C3849 1.389 . S
C3848 H3821 0.950 . S
C3848 C3834 1.377 . S
C3848 C3847 1.373 . S
C3849 C3833 1.377 . S
C3849 C3847 1.389 . S
C3849 C3850 1.524 . S
C3850 C3849 1.524 . S
C3850 C3851 1.397 . S
C3850 C3855 1.363 . S
C3851 H3822 0.950 . S
C3851 C3850 1.397 . S
C3851 C3852 1.334 . S
C3852 H3823 0.950 . S
C3852 C3851 1.334 . S
C3852 C3853 1.287 . S
C3853 C3852 1.287 . S
C3853 C3854 1.524 . S
C3853 H3856 0.999 . S
C3854 H3824 0.950 . S
C3854 C3853 1.524 . S
C3854 C3855 1.415 . S
C3855 H3825 0.950 . S
C3855 C3850 1.363 . S
C3855 C3854 1.415 . S
H3856 C3853 0.999 . S
H3857 C3838 0.913 . S
H3858 C3876 0.951 . S
H3859 C3878 0.951 . S
H3860 C3880 0.950 . S
H3861 C3881 0.950 . S
H3862 C3883 0.950 . S
H3863 C3886 0.950 . S
H3864 C3887 0.950 . S
H3865 C3889 0.950 . S
H3866 C3890 0.950 . S
H3867 C3891 0.951 . S
H3868 C3893 0.951 . S
H3869 C3895 0.950 . S
H3870 C3896 0.950 . S
H3871 C3898 0.950 . S
H3872 C3901 0.950 . S
H3873 C3902 0.950 . S
H3874 C3904 0.950 . S
H3875 C3905 0.950 . S
C3876 H3858 0.951 . S
C3876 C3877 1.366 . S
C3876 C3878 1.388 . S
C3877 C3876 1.366 . S
C3877 C3881 1.385 . S
C3878 H3859 0.951 . S
C3878 C3876 1.388 . S
C3878 C3879 1.366 . S
C3879 C3878 1.366 . S
C3879 C3880 1.414 . S
C3879 C3882 1.499 . S
C3880 H3860 0.950 . S
C3880 C3879 1.414 . S
C3880 C3881 1.374 . S
C3881 H3861 0.950 . S
C3881 C3877 1.385 . S
C3881 C3880 1.374 . S
C3882 C3879 1.499 . S
C3882 C3883 1.373 . S
C3882 C3884 1.389 . S
C3883 H3862 0.950 . S
C3883 C3882 1.373 . S
C3883 C3899 1.377 . S
C3884 C3882 1.389 . S
C3884 C3885 1.524 . S
C3884 C3898 1.377 . S
C3885 C3884 1.524 . S
C3885 C3886 1.397 . S
C3885 C3890 1.363 . S
C3886 H3863 0.950 . S
C3886 C3885 1.397 . S
C3886 C3887 1.334 . S
C3887 H3864 0.950 . S
C3887 C3886 1.334 . S
C3887 C3888 1.287 . S
C3888 C3887 1.287 . S
C3888 C3889 1.524 . S
C3888 H3907 0.913 . S
C3889 H3865 0.950 . S
C3889 C3888 1.524 . S
C3889 C3890 1.415 . S
C3890 H3866 0.950 . S
C3890 C3885 1.363 . S
C3890 C3889 1.415 . S
C3891 H3867 0.951 . S
C3891 C3892 1.366 . S
C3891 C3893 1.388 . S
C3892 C3891 1.366 . S
C3892 C3896 1.385 . S
C3893 H3868 0.951 . S
C3893 C3891 1.388 . S
C3893 C3894 1.366 . S
C3894 C3893 1.366 . S
C3894 C3895 1.414 . S
C3894 C3897 1.499 . S
C3895 H3869 0.950 . S
C3895 C3894 1.414 . S
C3895 C3896 1.374 . S
C3896 H3870 0.950 . S
C3896 C3892 1.385 . S
C3896 C3895 1.374 . S
C3897 C3894 1.499 . S
C3897 C3898 1.373 . S
C3897 C3899 1.389 . S
C3898 H3871 0.950 . S
C3898 C3884 1.377 . S
C3898 C3897 1.373 . S
C3899 C3883 1.377 . S
C3899 C3897 1.389 . S
C3899 C3900 1.524 . S
C3900 C3899 1.524 . S
C3900 C3901 1.397 . S
C3900 C3905 1.363 . S
C3901 H3872 0.950 . S
C3901 C3900 1.397 . S
C3901 C3902 1.334 . S
C3902 H3873 0.950 . S
C3902 C3901 1.334 . S
C3902 C3903 1.287 . S
C3903 C3902 1.287 . S
C3903 C3904 1.524 . S
C3903 H3906 0.999 . S
C3904 H3874 0.950 . S
C3904 C3903 1.524 . S
C3904 C3905 1.415 . S
C3905 H3875 0.950 . S
C3905 C3900 1.363 . S
C3905 C3904 1.415 . S
H3906 C3903 0.999 . S
H3907 C3888 0.913 . S
H3908 C3926 0.951 1_565 S
H3909 C3928 0.951 . S
H3910 C3930 0.950 . S
H3911 C3931 0.950 . S
H3912 C3933 0.950 . S
H3913 C3936 0.950 . S
H3914 C3937 0.950 . S
H3915 C3939 0.950 . S
H3916 C3940 0.950 . S
H3917 C3941 0.951 . S
H3918 C3943 0.951 . S
H3919 C3945 0.950 . S
H3920 C3946 0.950 . S
H3921 C3948 0.950 1_565 S
H3922 C3951 0.950 . S
H3923 C3952 0.950 . S
H3924 C3954 0.950 . S
H3925 C3955 0.950 . S
C3926 H3908 0.951 1_545 S
C3926 C3927 1.366 . S
C3926 C3928 1.388 . S
C3927 C3926 1.366 . S
C3927 C3931 1.385 . S
C3928 H3909 0.951 . S
C3928 C3926 1.388 . S
C3928 C3929 1.366 . S
C3929 C3928 1.366 . S
C3929 C3930 1.414 . S
C3929 C3932 1.499 . S
C3930 H3910 0.950 . S
C3930 C3929 1.414 . S
C3930 C3931 1.374 . S
C3931 H3911 0.950 . S
C3931 C3927 1.385 . S
C3931 C3930 1.374 . S
C3932 C3929 1.499 . S
C3932 C3933 1.373 . S
C3932 C3934 1.389 . S
C3933 H3912 0.950 . S
C3933 C3932 1.373 . S
C3933 C3949 1.377 . S
C3934 C3932 1.389 . S
C3934 C3935 1.524 1_545 S
C3934 C3948 1.377 . S
C3935 C3934 1.524 1_565 S
C3935 C3936 1.397 . S
C3935 C3940 1.363 . S
C3936 H3913 0.950 . S
C3936 C3935 1.397 . S
C3936 C3937 1.334 . S
C3937 H3914 0.950 . S
C3937 C3936 1.334 . S
C3937 C3938 1.287 . S
C3938 C3937 1.287 . S
C3938 C3939 1.524 . S
C3938 H3957 0.913 . S
C3939 H3915 0.950 . S
C3939 C3938 1.524 . S
C3939 C3940 1.415 . S
C3940 H3916 0.950 . S
C3940 C3935 1.363 . S
C3940 C3939 1.415 . S
C3941 H3917 0.951 . S
C3941 C3942 1.366 . S
C3941 C3943 1.388 . S
C3942 C3941 1.366 . S
C3942 C3946 1.385 . S
C3943 H3918 0.951 . S
C3943 C3941 1.388 . S
C3943 C3944 1.366 . S
C3944 C3943 1.366 . S
C3944 C3945 1.414 . S
C3944 C3947 1.499 . S
C3945 H3919 0.950 . S
C3945 C3944 1.414 . S
C3945 C3946 1.374 . S
C3946 H3920 0.950 . S
C3946 C3942 1.385 . S
C3946 C3945 1.374 . S
C3947 C3944 1.499 . S
C3947 C3948 1.373 . S
C3947 C3949 1.389 . S
C3948 H3921 0.950 1_545 S
C3948 C3934 1.377 . S
C3948 C3947 1.373 . S
C3949 C3933 1.377 . S
C3949 C3947 1.389 . S
C3949 C3950 1.524 . S
C3950 C3949 1.524 . S
C3950 C3951 1.397 . S
C3950 C3955 1.363 . S
C3951 H3922 0.950 . S
C3951 C3950 1.397 . S
C3951 C3952 1.334 . S
C3952 H3923 0.950 . S
C3952 C3951 1.334 . S
C3952 C3953 1.287 . S
C3953 C3952 1.287 . S
C3953 C3954 1.524 . S
C3953 H3956 0.999 . S
C3954 H3924 0.950 . S
C3954 C3953 1.524 . S
C3954 C3955 1.415 . S
C3955 H3925 0.950 . S
C3955 C3950 1.363 . S
C3955 C3954 1.415 . S
H3956 C3953 0.999 . S
H3957 C3938 0.913 . S
H3958 C3976 0.951 . S
H3959 C3978 0.951 . S
H3960 C3980 0.950 . S
H3961 C3981 0.950 . S
H3962 C3983 0.950 . S
H3963 C3986 0.950 . S
H3964 C3987 0.950 . S
H3965 C3989 0.950 . S
H3966 C3990 0.950 . S
H3967 C3991 0.951 . S
H3968 C3993 0.951 . S
H3969 C3995 0.950 . S
H3970 C3996 0.950 . S
H3971 C3998 0.950 . S
H3972 C4001 0.950 . S
H3973 C4002 0.950 . S
H3974 C4004 0.950 . S
H3975 C4005 0.950 . S
C3976 H3958 0.951 . S
C3976 C3977 1.366 . S
C3976 C3978 1.388 . S
C3977 C3976 1.366 . S
C3977 C3981 1.385 . S
C3978 H3959 0.951 . S
C3978 C3976 1.388 . S
C3978 C3979 1.366 . S
C3979 C3978 1.366 . S
C3979 C3980 1.414 . S
C3979 C3982 1.499 . S
C3980 H3960 0.950 . S
C3980 C3979 1.414 . S
C3980 C3981 1.374 . S
C3981 H3961 0.950 . S
C3981 C3977 1.385 . S
C3981 C3980 1.374 . S
C3982 C3979 1.499 . S
C3982 C3983 1.373 . S
C3982 C3984 1.389 . S
C3983 H3962 0.950 . S
C3983 C3982 1.373 . S
C3983 C3999 1.377 . S
C3984 C3982 1.389 . S
C3984 C3985 1.524 . S
C3984 C3998 1.377 . S
C3985 C3984 1.524 . S
C3985 C3986 1.397 . S
C3985 C3990 1.363 . S
C3986 H3963 0.950 . S
C3986 C3985 1.397 . S
C3986 C3987 1.334 . S
C3987 H3964 0.950 . S
C3987 C3986 1.334 . S
C3987 C3988 1.287 . S
C3988 C3987 1.287 . S
C3988 C3989 1.524 . S
C3988 H4007 0.913 . S
C3989 H3965 0.950 . S
C3989 C3988 1.524 . S
C3989 C3990 1.415 . S
C3990 H3966 0.950 . S
C3990 C3985 1.363 . S
C3990 C3989 1.415 . S
C3991 H3967 0.951 . S
C3991 C3992 1.366 . S
C3991 C3993 1.388 . S
C3992 C3991 1.366 . S
C3992 C3996 1.385 . S
C3993 H3968 0.951 . S
C3993 C3991 1.388 . S
C3993 C3994 1.366 . S
C3994 C3993 1.366 . S
C3994 C3995 1.414 . S
C3994 C3997 1.499 . S
C3995 H3969 0.950 . S
C3995 C3994 1.414 . S
C3995 C3996 1.374 . S
C3996 H3970 0.950 . S
C3996 C3992 1.385 . S
C3996 C3995 1.374 . S
C3997 C3994 1.499 . S
C3997 C3998 1.373 . S
C3997 C3999 1.389 . S
C3998 H3971 0.950 . S
C3998 C3984 1.377 . S
C3998 C3997 1.373 . S
C3999 C3983 1.377 . S
C3999 C3997 1.389 . S
C3999 C4000 1.524 . S
C4000 C3999 1.524 . S
C4000 C4001 1.397 . S
C4000 C4005 1.363 . S
C4001 H3972 0.950 . S
C4001 C4000 1.397 . S
C4001 C4002 1.334 . S
C4002 H3973 0.950 . S
C4002 C4001 1.334 . S
C4002 C4003 1.287 . S
C4003 C4002 1.287 . S
C4003 C4004 1.524 . S
C4003 H4006 0.999 . S
C4004 H3974 0.950 . S
C4004 C4003 1.524 . S
C4004 C4005 1.415 . S
C4005 H3975 0.950 . S
C4005 C4000 1.363 . S
C4005 C4004 1.415 . S
H4006 C4003 0.999 . S
H4007 C3988 0.913 . S
H4008 C4026 0.951 . S
H4009 C4028 0.951 . S
H4010 C4030 0.950 . S
H4011 C4031 0.950 . S
H4012 C4033 0.950 . S
H4013 C4036 0.950 . S
H4014 C4037 0.950 . S
H4015 C4039 0.950 . S
H4016 C4040 0.950 . S
H4017 C4041 0.951 . S
H4018 C4043 0.951 . S
H4019 C4045 0.950 . S
H4020 C4046 0.950 . S
H4021 C4048 0.950 . S
H4022 C4051 0.950 . S
H4023 C4052 0.979 1_655 S
H4024 C4054 0.950 . S
H4025 C4055 0.950 . S
C4026 H4008 0.951 . S
C4026 C4027 1.366 . S
C4026 C4028 1.388 . S
C4027 C4026 1.366 . S
C4027 C4031 1.385 . S
C4028 H4009 0.951 . S
C4028 C4026 1.388 . S
C4028 C4029 1.366 . S
C4029 C4028 1.366 . S
C4029 C4030 1.414 . S
C4029 C4032 1.499 . S
C4030 H4010 0.950 . S
C4030 C4029 1.414 . S
C4030 C4031 1.374 . S
C4031 H4011 0.950 . S
C4031 C4027 1.385 . S
C4031 C4030 1.374 . S
C4032 C4029 1.499 . S
C4032 C4033 1.373 . S
C4032 C4034 1.389 . S
C4033 H4012 0.950 . S
C4033 C4032 1.373 . S
C4033 C4049 1.377 . S
C4034 C4032 1.389 . S
C4034 C4035 1.524 . S
C4034 C4048 1.377 . S
C4035 C4034 1.524 . S
C4035 C4036 1.397 . S
C4035 C4040 1.363 . S
C4036 H4013 0.950 . S
C4036 C4035 1.397 . S
C4036 C4037 1.334 . S
C4037 H4014 0.950 . S
C4037 C4036 1.334 . S
C4037 C4038 1.287 . S
C4038 C4037 1.287 . S
C4038 C4039 1.524 . S
C4038 H4057 0.913 . S
C4039 H4015 0.950 . S
C4039 C4038 1.524 . S
C4039 C4040 1.415 . S
C4040 H4016 0.950 . S
C4040 C4035 1.363 . S
C4040 C4039 1.415 . S
C4041 H4017 0.951 . S
C4041 C4042 1.366 . S
C4041 C4043 1.388 . S
C4042 C4041 1.366 . S
C4042 C4046 1.385 . S
C4043 H4018 0.951 . S
C4043 C4041 1.388 . S
C4043 C4044 1.366 . S
C4044 C4043 1.366 . S
C4044 C4045 1.414 . S
C4044 C4047 1.499 . S
C4045 H4019 0.950 . S
C4045 C4044 1.414 . S
C4045 C4046 1.374 . S
C4046 H4020 0.950 . S
C4046 C4042 1.385 . S
C4046 C4045 1.374 . S
C4047 C4044 1.499 . S
C4047 C4048 1.373 . S
C4047 C4049 1.389 . S
C4048 H4021 0.950 . S
C4048 C4034 1.377 . S
C4048 C4047 1.373 . S
C4049 C4033 1.377 . S
C4049 C4047 1.389 . S
C4049 C4050 1.524 . S
C4050 C4049 1.524 . S
C4050 C4051 1.397 . S
C4050 C4055 1.363 . S
C4051 H4022 0.950 . S
C4051 C4050 1.397 . S
C4051 C4052 1.334 . S
C4052 H4023 0.979 1_455 S
C4052 C4051 1.334 . S
C4052 C4053 1.287 1_455 S
C4053 C4052 1.287 1_655 S
C4053 C4054 1.524 1_655 S
C4053 H4056 0.999 . S
C4054 H4024 0.950 . S
C4054 C4053 1.524 1_455 S
C4054 C4055 1.415 . S
C4055 H4025 0.950 . S
C4055 C4050 1.363 . S
C4055 C4054 1.415 . S
H4056 C4053 0.999 . S
H4057 C4038 0.913 . S
H4058 C4076 0.951 . S
H4059 C4078 0.951 . S
H4060 C4080 0.950 . S
H4061 C4081 0.950 . S
H4062 C4083 0.950 . S
H4063 C4086 0.950 . S
H4064 C4087 0.950 . S
H4065 C4089 0.950 . S
H4066 C4090 0.950 . S
H4067 C4091 0.951 . S
H4068 C4093 0.951 . S
H4069 C4095 0.950 . S
H4070 C4096 0.950 . S
H4071 C4098 0.950 . S
H4072 C4101 0.950 . S
H4073 C4102 0.950 . S
H4074 C4104 0.950 . S
H4075 C4105 0.950 . S
C4076 H4058 0.951 . S
C4076 C4077 1.366 . S
C4076 C4078 1.388 . S
C4077 C4076 1.366 . S
C4077 C4081 1.385 . S
C4078 H4059 0.951 . S
C4078 C4076 1.388 . S
C4078 C4079 1.366 . S
C4079 C4078 1.366 . S
C4079 C4080 1.414 . S
C4079 C4082 1.499 . S
C4080 H4060 0.950 . S
C4080 C4079 1.414 . S
C4080 C4081 1.374 . S
C4081 H4061 0.950 . S
C4081 C4077 1.385 . S
C4081 C4080 1.374 . S
C4082 C4079 1.499 . S
C4082 C4083 1.373 . S
C4082 C4084 1.389 . S
C4083 H4062 0.950 . S
C4083 C4082 1.373 . S
C4083 C4099 1.377 . S
C4084 C4082 1.389 . S
C4084 C4085 1.524 . S
C4084 C4098 1.377 . S
C4085 C4084 1.524 . S
C4085 C4086 1.397 . S
C4085 C4090 1.363 . S
C4086 H4063 0.950 . S
C4086 C4085 1.397 . S
C4086 C4087 1.334 . S
C4087 H4064 0.950 . S
C4087 C4086 1.334 . S
C4087 C4088 1.287 . S
C4088 C4087 1.287 . S
C4088 C4089 1.524 . S
C4088 H4107 0.913 . S
C4089 H4065 0.950 . S
C4089 C4088 1.524 . S
C4089 C4090 1.415 . S
C4090 H4066 0.950 . S
C4090 C4085 1.363 . S
C4090 C4089 1.415 . S
C4091 H4067 0.951 . S
C4091 C4092 1.366 . S
C4091 C4093 1.388 . S
C4092 C4091 1.366 . S
C4092 C4096 1.385 . S
C4093 H4068 0.951 . S
C4093 C4091 1.388 . S
C4093 C4094 1.366 . S
C4094 C4093 1.366 . S
C4094 C4095 1.414 . S
C4094 C4097 1.499 . S
C4095 H4069 0.950 . S
C4095 C4094 1.414 . S
C4095 C4096 1.374 . S
C4096 H4070 0.950 . S
C4096 C4092 1.385 . S
C4096 C4095 1.374 . S
C4097 C4094 1.499 . S
C4097 C4098 1.373 . S
C4097 C4099 1.389 . S
C4098 H4071 0.950 . S
C4098 C4084 1.377 . S
C4098 C4097 1.373 . S
C4099 C4083 1.377 . S
C4099 C4097 1.389 . S
C4099 C4100 1.524 . S
C4100 C4099 1.524 . S
C4100 C4101 1.397 . S
C4100 C4105 1.363 . S
C4101 H4072 0.950 . S
C4101 C4100 1.397 . S
C4101 C4102 1.334 . S
C4102 H4073 0.950 . S
C4102 C4101 1.334 . S
C4102 C4103 1.287 . S
C4103 C4102 1.287 . S
C4103 C4104 1.524 . S
C4103 H4106 0.999 . S
C4104 H4074 0.950 . S
C4104 C4103 1.524 . S
C4104 C4105 1.415 . S
C4105 H4075 0.950 . S
C4105 C4100 1.363 . S
C4105 C4104 1.415 . S
H4106 C4103 0.999 . S
H4107 C4088 0.913 . S
H4108 C4126 0.951 . S
H4109 C4128 0.951 . S
H4110 C4130 0.953 . S
H4111 C4131 0.947 1_565 S
H4112 C4133 0.950 . S
H4113 C4136 0.950 . S
H4114 C4137 0.950 . S
H4115 C4139 0.950 . S
H4116 C4140 0.950 . S
H4117 C4141 0.951 . S
H4118 C4143 0.951 . S
H4119 C4145 0.950 . S
H4120 C4146 0.950 . S
H4121 C4148 0.950 . S
H4122 C4151 0.950 . S
H4123 C4152 0.950 . S
H4124 C4154 0.950 . S
H4125 C4155 0.950 . S
C4126 H4108 0.951 . S
C4126 C4127 1.366 . S
C4126 C4128 1.388 . S
C4127 C4126 1.366 . S
C4127 C4131 1.385 . S
C4128 H4109 0.951 . S
C4128 C4126 1.388 . S
C4128 C4129 1.366 . S
C4129 C4128 1.366 . S
C4129 C4130 1.414 . S
C4129 C4132 1.499 . S
C4130 H4110 0.953 . S
C4130 C4129 1.414 . S
C4130 C4131 1.374 . S
C4131 H4111 0.947 1_545 S
C4131 C4127 1.385 . S
C4131 C4130 1.374 . S
C4132 C4129 1.499 . S
C4132 C4133 1.373 1_545 S
C4132 C4134 1.389 . S
C4133 H4112 0.950 . S
C4133 C4132 1.373 1_565 S
C4133 C4149 1.377 . S
C4134 C4132 1.389 . S
C4134 C4135 1.524 . S
C4134 C4148 1.377 . S
C4135 C4134 1.524 . S
C4135 C4136 1.397 . S
C4135 C4140 1.363 . S
C4136 H4113 0.950 . S
C4136 C4135 1.397 . S
C4136 C4137 1.334 . S
C4137 H4114 0.950 . S
C4137 C4136 1.334 . S
C4137 C4138 1.287 . S
C4138 C4137 1.287 . S
C4138 C4139 1.524 . S
C4138 H4157 0.913 . S
C4139 H4115 0.950 . S
C4139 C4138 1.524 . S
C4139 C4140 1.415 . S
C4140 H4116 0.950 . S
C4140 C4135 1.363 . S
C4140 C4139 1.415 . S
C4141 H4117 0.951 . S
C4141 C4142 1.366 . S
C4141 C4143 1.388 . S
C4142 C4141 1.366 . S
C4142 C4146 1.385 . S
C4143 H4118 0.951 . S
C4143 C4141 1.388 . S
C4143 C4144 1.366 . S
C4144 C4143 1.366 . S
C4144 C4145 1.414 . S
C4144 C4147 1.499 . S
C4145 H4119 0.950 . S
C4145 C4144 1.414 . S
C4145 C4146 1.374 . S
C4146 H4120 0.950 . S
C4146 C4142 1.385 . S
C4146 C4145 1.374 . S
C4147 C4144 1.499 . S
C4147 C4148 1.373 . S
C4147 C4149 1.389 1_545 S
C4148 H4121 0.950 . S
C4148 C4134 1.377 . S
C4148 C4147 1.373 . S
C4149 C4133 1.377 . S
C4149 C4147 1.389 1_565 S
C4149 C4150 1.524 . S
C4150 C4149 1.524 . S
C4150 C4151 1.397 . S
C4150 C4155 1.363 . S
C4151 H4122 0.950 . S
C4151 C4150 1.397 . S
C4151 C4152 1.334 . S
C4152 H4123 0.950 . S
C4152 C4151 1.334 . S
C4152 C4153 1.287 . S
C4153 C4152 1.287 . S
C4153 C4154 1.524 . S
C4153 H4156 0.999 . S
C4154 H4124 0.950 . S
C4154 C4153 1.524 . S
C4154 C4155 1.415 . S
C4155 H4125 0.950 . S
C4155 C4150 1.363 . S
C4155 C4154 1.415 . S
H4156 C4153 0.999 . S
H4157 C4138 0.913 . S
H4158 C4176 0.951 . S
H4159 C4178 0.951 . S
H4160 C4180 0.950 . S
H4161 C4181 0.950 . S
H4162 C4183 0.950 . S
H4163 C4186 0.950 . S
H4164 C4187 0.950 . S
H4165 C4189 0.950 . S
H4166 C4190 0.950 . S
H4167 C4191 0.951 . S
H4168 C4193 0.951 . S
H4169 C4195 0.950 . S
H4170 C4196 0.950 . S
H4171 C4198 0.950 . S
H4172 C4201 0.950 . S
H4173 C4202 0.950 . S
H4174 C4204 0.950 . S
H4175 C4205 0.950 . S
C4176 H4158 0.951 . S
C4176 C4177 1.366 . S
C4176 C4178 1.388 . S
C4177 C4176 1.366 . S
C4177 C4181 1.385 . S
C4178 H4159 0.951 . S
C4178 C4176 1.388 . S
C4178 C4179 1.366 . S
C4179 C4178 1.366 . S
C4179 C4180 1.414 . S
C4179 C4182 1.499 . S
C4180 H4160 0.950 . S
C4180 C4179 1.414 . S
C4180 C4181 1.374 . S
C4181 H4161 0.950 . S
C4181 C4177 1.385 . S
C4181 C4180 1.374 . S
C4182 C4179 1.499 . S
C4182 C4183 1.373 . S
C4182 C4184 1.389 . S
C4183 H4162 0.950 . S
C4183 C4182 1.373 . S
C4183 C4199 1.377 . S
C4184 C4182 1.389 . S
C4184 C4185 1.524 . S
C4184 C4198 1.377 . S
C4185 C4184 1.524 . S
C4185 C4186 1.397 . S
C4185 C4190 1.363 . S
C4186 H4163 0.950 . S
C4186 C4185 1.397 . S
C4186 C4187 1.334 . S
C4187 H4164 0.950 . S
C4187 C4186 1.334 . S
C4187 C4188 1.287 . S
C4188 C4187 1.287 . S
C4188 C4189 1.524 . S
C4188 H4207 0.913 . S
C4189 H4165 0.950 . S
C4189 C4188 1.524 . S
C4189 C4190 1.415 . S
C4190 H4166 0.950 . S
C4190 C4185 1.363 . S
C4190 C4189 1.415 . S
C4191 H4167 0.951 . S
C4191 C4192 1.366 . S
C4191 C4193 1.388 . S
C4192 C4191 1.366 . S
C4192 C4196 1.385 . S
C4193 H4168 0.951 . S
C4193 C4191 1.388 . S
C4193 C4194 1.366 . S
C4194 C4193 1.366 . S
C4194 C4195 1.414 . S
C4194 C4197 1.499 . S
C4195 H4169 0.950 . S
C4195 C4194 1.414 . S
C4195 C4196 1.374 . S
C4196 H4170 0.950 . S
C4196 C4192 1.385 . S
C4196 C4195 1.374 . S
C4197 C4194 1.499 . S
C4197 C4198 1.373 . S
C4197 C4199 1.389 . S
C4198 H4171 0.950 . S
C4198 C4184 1.377 . S
C4198 C4197 1.373 . S
C4199 C4183 1.377 . S
C4199 C4197 1.389 . S
C4199 C4200 1.524 . S
C4200 C4199 1.524 . S
C4200 C4201 1.397 . S
C4200 C4205 1.363 . S
C4201 H4172 0.950 . S
C4201 C4200 1.397 . S
C4201 C4202 1.334 . S
C4202 H4173 0.950 . S
C4202 C4201 1.334 . S
C4202 C4203 1.287 . S
C4203 C4202 1.287 . S
C4203 C4204 1.524 . S
C4203 H4206 0.999 . S
C4204 H4174 0.950 . S
C4204 C4203 1.524 . S
C4204 C4205 1.415 . S
C4205 H4175 0.950 . S
C4205 C4200 1.363 . S
C4205 C4204 1.415 . S
H4206 C4203 0.999 . S
H4207 C4188 0.913 . S
H4208 C4226 0.951 . S
H4209 C4228 0.951 . S
H4210 C4230 0.950 . S
H4211 C4231 0.950 . S
H4212 C4233 0.950 . S
H4213 C4236 0.950 . S
H4214 C4237 0.950 . S
H4215 C4239 0.950 . S
H4216 C4240 0.950 . S
H4217 C4241 0.951 . S
H4218 C4243 0.951 . S
H4219 C4245 0.950 . S
H4220 C4246 0.950 . S
H4221 C4248 0.950 . S
H4222 C4251 0.950 . S
H4223 C4252 0.950 . S
H4224 C4254 0.950 . S
H4225 C4255 0.950 . S
C4226 H4208 0.951 . S
C4226 C4227 1.366 . S
C4226 C4228 1.388 . S
C4227 C4226 1.366 . S
C4227 C4231 1.385 . S
C4228 H4209 0.951 . S
C4228 C4226 1.388 . S
C4228 C4229 1.366 . S
C4229 C4228 1.366 . S
C4229 C4230 1.414 . S
C4229 C4232 1.499 . S
C4230 H4210 0.950 . S
C4230 C4229 1.414 . S
C4230 C4231 1.374 . S
C4231 H4211 0.950 . S
C4231 C4227 1.385 . S
C4231 C4230 1.374 . S
C4232 C4229 1.499 . S
C4232 C4233 1.373 . S
C4232 C4234 1.389 . S
C4233 H4212 0.950 . S
C4233 C4232 1.373 . S
C4233 C4249 1.377 . S
C4234 C4232 1.389 . S
C4234 C4235 1.524 . S
C4234 C4248 1.377 . S
C4235 C4234 1.524 . S
C4235 C4236 1.397 . S
C4235 C4240 1.363 . S
C4236 H4213 0.950 . S
C4236 C4235 1.397 . S
C4236 C4237 1.334 . S
C4237 H4214 0.950 . S
C4237 C4236 1.334 . S
C4237 C4238 1.287 . S
C4238 C4237 1.287 . S
C4238 C4239 1.524 . S
C4238 H4257 0.913 . S
C4239 H4215 0.950 . S
C4239 C4238 1.524 . S
C4239 C4240 1.415 . S
C4240 H4216 0.950 . S
C4240 C4235 1.363 . S
C4240 C4239 1.415 . S
C4241 H4217 0.951 . S
C4241 C4242 1.366 . S
C4241 C4243 1.388 . S
C4242 C4241 1.366 . S
C4242 C4246 1.385 . S
C4243 H4218 0.951 . S
C4243 C4241 1.388 . S
C4243 C4244 1.366 . S
C4244 C4243 1.366 . S
C4244 C4245 1.414 . S
C4244 C4247 1.499 . S
C4245 H4219 0.950 . S
C4245 C4244 1.414 . S
C4245 C4246 1.374 . S
C4246 H4220 0.950 . S
C4246 C4242 1.385 . S
C4246 C4245 1.374 . S
C4247 C4244 1.499 . S
C4247 C4248 1.373 . S
C4247 C4249 1.389 . S
C4248 H4221 0.950 . S
C4248 C4234 1.377 . S
C4248 C4247 1.373 . S
C4249 C4233 1.377 . S
C4249 C4247 1.389 . S
C4249 C4250 1.524 . S
C4250 C4249 1.524 . S
C4250 C4251 1.397 1_554 S
C4250 C4255 1.363 . S
C4251 H4222 0.950 . S
C4251 C4250 1.397 1_556 S
C4251 C4252 1.334 . S
C4252 H4223 0.950 . S
C4252 C4251 1.334 . S
C4252 C4253 1.287 . S
C4253 C4252 1.287 . S
C4253 C4254 1.524 . S
C4253 H4256 0.999 . S
C4254 H4224 0.950 . S
C4254 C4253 1.524 . S
C4254 C4255 1.415 1_556 S
C4255 H4225 0.950 . S
C4255 C4250 1.363 . S
C4255 C4254 1.415 1_554 S
H4256 C4253 0.999 . S
H4257 C4238 0.913 . S
H4258 C4276 0.951 . S
H4259 C4278 0.951 . S
H4260 C4280 0.950 . S
H4261 C4281 0.950 . S
H4262 C4283 0.950 . S
H4263 C4286 0.950 . S
H4264 C4287 0.950 . S
H4265 C4289 0.950 . S
H4266 C4290 0.950 . S
H4267 C4291 0.951 . S
H4268 C4293 0.951 . S
H4269 C4295 0.950 . S
H4270 C4296 0.950 . S
H4271 C4298 0.950 . S
H4272 C4301 0.950 . S
H4273 C4302 0.950 . S
H4274 C4304 0.950 . S
H4275 C4305 0.950 . S
C4276 H4258 0.951 . S
C4276 C4277 1.366 . S
C4276 C4278 1.388 . S
C4277 C4276 1.366 . S
C4277 C4281 1.385 . S
C4278 H4259 0.951 . S
C4278 C4276 1.388 . S
C4278 C4279 1.366 . S
C4279 C4278 1.366 . S
C4279 C4280 1.414 . S
C4279 C4282 1.499 . S
C4280 H4260 0.950 . S
C4280 C4279 1.414 . S
C4280 C4281 1.374 . S
C4281 H4261 0.950 . S
C4281 C4277 1.385 . S
C4281 C4280 1.374 . S
C4282 C4279 1.499 . S
C4282 C4283 1.373 . S
C4282 C4284 1.389 . S
C4283 H4262 0.950 . S
C4283 C4282 1.373 . S
C4283 C4299 1.377 . S
C4284 C4282 1.389 . S
C4284 C4285 1.524 . S
C4284 C4298 1.377 . S
C4285 C4284 1.524 . S
C4285 C4286 1.397 . S
C4285 C4290 1.363 . S
C4286 H4263 0.950 . S
C4286 C4285 1.397 . S
C4286 C4287 1.334 . S
C4287 H4264 0.950 . S
C4287 C4286 1.334 . S
C4287 C4288 1.287 . S
C4288 C4287 1.287 . S
C4288 C4289 1.524 . S
C4288 H4307 0.913 . S
C4289 H4265 0.950 . S
C4289 C4288 1.524 . S
C4289 C4290 1.415 . S
C4290 H4266 0.950 . S
C4290 C4285 1.363 . S
C4290 C4289 1.415 . S
C4291 H4267 0.951 . S
C4291 C4292 1.366 . S
C4291 C4293 1.388 . S
C4292 C4291 1.366 . S
C4292 C4296 1.385 . S
C4293 H4268 0.951 . S
C4293 C4291 1.388 . S
C4293 C4294 1.366 . S
C4294 C4293 1.366 . S
C4294 C4295 1.414 . S
C4294 C4297 1.499 . S
C4295 H4269 0.950 . S
C4295 C4294 1.414 . S
C4295 C4296 1.374 . S
C4296 H4270 0.950 . S
C4296 C4292 1.385 . S
C4296 C4295 1.374 . S
C4297 C4294 1.499 . S
C4297 C4298 1.373 . S
C4297 C4299 1.389 . S
C4298 H4271 0.950 . S
C4298 C4284 1.377 . S
C4298 C4297 1.373 . S
C4299 C4283 1.377 . S
C4299 C4297 1.389 . S
C4299 C4300 1.524 . S
C4300 C4299 1.524 . S
C4300 C4301 1.397 1_554 S
C4300 C4305 1.363 . S
C4301 H4272 0.950 . S
C4301 C4300 1.397 1_556 S
C4301 C4302 1.334 . S
C4302 H4273 0.950 . S
C4302 C4301 1.334 . S
C4302 C4303 1.287 . S
C4303 C4302 1.287 . S
C4303 C4304 1.524 . S
C4303 H4306 0.999 . S
C4304 H4274 0.950 . S
C4304 C4303 1.524 . S
C4304 C4305 1.415 1_556 S
C4305 H4275 0.950 . S
C4305 C4300 1.363 . S
C4305 C4304 1.415 1_554 S
H4306 C4303 0.999 . S
H4307 C4288 0.913 . S
H4308 C4326 0.951 . S
H4309 C4328 0.951 . S
H4310 C4330 0.950 . S
H4311 C4331 0.950 . S
H4312 C4333 0.950 . S
H4313 C4336 0.950 . S
H4314 C4337 0.950 . S
H4315 C4339 0.950 . S
H4316 C4340 0.950 . S
H4317 C4341 0.951 . S
H4318 C4343 0.951 . S
H4319 C4345 0.950 . S
H4320 C4346 0.950 . S
H4321 C4348 0.950 . S
H4322 C4351 0.950 . S
H4323 C4352 0.950 . S
H4324 C4354 0.950 . S
H4325 C4355 0.950 . S
C4326 H4308 0.951 . S
C4326 C4327 1.366 . S
C4326 C4328 1.388 . S
C4327 C4326 1.366 . S
C4327 C4331 1.385 . S
C4328 H4309 0.951 . S
C4328 C4326 1.388 . S
C4328 C4329 1.366 . S
C4329 C4328 1.366 . S
C4329 C4330 1.414 . S
C4329 C4332 1.499 . S
C4330 H4310 0.950 . S
C4330 C4329 1.414 . S
C4330 C4331 1.374 . S
C4331 H4311 0.950 . S
C4331 C4327 1.385 . S
C4331 C4330 1.374 . S
C4332 C4329 1.499 . S
C4332 C4333 1.373 . S
C4332 C4334 1.389 . S
C4333 H4312 0.950 . S
C4333 C4332 1.373 . S
C4333 C4349 1.377 . S
C4334 C4332 1.389 . S
C4334 C4335 1.524 . S
C4334 C4348 1.377 . S
C4335 C4334 1.524 . S
C4335 C4336 1.397 . S
C4335 C4340 1.363 . S
C4336 H4313 0.950 . S
C4336 C4335 1.397 . S
C4336 C4337 1.334 . S
C4337 H4314 0.950 . S
C4337 C4336 1.334 . S
C4337 C4338 1.287 . S
C4338 C4337 1.287 . S
C4338 C4339 1.524 . S
C4338 H4357 0.913 . S
C4339 H4315 0.950 . S
C4339 C4338 1.524 . S
C4339 C4340 1.415 . S
C4340 H4316 0.950 . S
C4340 C4335 1.363 . S
C4340 C4339 1.415 . S
C4341 H4317 0.951 . S
C4341 C4342 1.366 . S
C4341 C4343 1.388 . S
C4342 C4341 1.366 . S
C4342 C4346 1.385 . S
C4343 H4318 0.951 . S
C4343 C4341 1.388 . S
C4343 C4344 1.366 . S
C4344 C4343 1.366 . S
C4344 C4345 1.414 . S
C4344 C4347 1.499 . S
C4345 H4319 0.950 . S
C4345 C4344 1.414 . S
C4345 C4346 1.374 . S
C4346 H4320 0.950 . S
C4346 C4342 1.385 . S
C4346 C4345 1.374 . S
C4347 C4344 1.499 . S
C4347 C4348 1.373 . S
C4347 C4349 1.389 . S
C4348 H4321 0.950 . S
C4348 C4334 1.377 . S
C4348 C4347 1.373 . S
C4349 C4333 1.377 . S
C4349 C4347 1.389 . S
C4349 C4350 1.524 . S
C4350 C4349 1.524 . S
C4350 C4351 1.397 . S
C4350 C4355 1.363 . S
C4351 H4322 0.950 . S
C4351 C4350 1.397 . S
C4351 C4352 1.334 . S
C4352 H4323 0.950 . S
C4352 C4351 1.334 . S
C4352 C4353 1.287 . S
C4353 C4352 1.287 . S
C4353 C4354 1.524 . S
C4353 H4356 0.999 . S
C4354 H4324 0.950 . S
C4354 C4353 1.524 . S
C4354 C4355 1.415 . S
C4355 H4325 0.950 . S
C4355 C4350 1.363 . S
C4355 C4354 1.415 . S
H4356 C4353 0.999 . S
H4357 C4338 0.913 . S
H4358 C4376 0.951 . S
H4359 C4378 0.951 . S
H4360 C4380 0.950 . S
H4361 C4381 0.950 . S
H4362 C4383 0.950 . S
H4363 C4386 0.950 . S
H4364 C4387 0.950 . S
H4365 C4389 0.950 . S
H4366 C4390 0.950 . S
H4367 C4391 0.951 . S
H4368 C4393 0.951 . S
H4369 C4395 0.950 . S
H4370 C4396 0.950 . S
H4371 C4398 0.950 . S
H4372 C4401 0.950 . S
H4373 C4402 0.950 . S
H4374 C4404 0.950 . S
H4375 C4405 0.950 . S
C4376 H4358 0.951 . S
C4376 C4377 1.366 . S
C4376 C4378 1.388 . S
C4377 C4376 1.366 . S
C4377 C4381 1.385 . S
C4378 H4359 0.951 . S
C4378 C4376 1.388 . S
C4378 C4379 1.366 . S
C4379 C4378 1.366 . S
C4379 C4380 1.414 . S
C4379 C4382 1.499 . S
C4380 H4360 0.950 . S
C4380 C4379 1.414 . S
C4380 C4381 1.374 . S
C4381 H4361 0.950 . S
C4381 C4377 1.385 . S
C4381 C4380 1.374 . S
C4382 C4379 1.499 . S
C4382 C4383 1.373 . S
C4382 C4384 1.389 . S
C4383 H4362 0.950 . S
C4383 C4382 1.373 . S
C4383 C4399 1.377 . S
C4384 C4382 1.389 . S
C4384 C4385 1.524 . S
C4384 C4398 1.377 . S
C4385 C4384 1.524 . S
C4385 C4386 1.397 . S
C4385 C4390 1.363 . S
C4386 H4363 0.950 . S
C4386 C4385 1.397 . S
C4386 C4387 1.334 . S
C4387 H4364 0.950 . S
C4387 C4386 1.334 . S
C4387 C4388 1.287 . S
C4388 C4387 1.287 . S
C4388 C4389 1.524 . S
C4388 H4407 0.913 . S
C4389 H4365 0.950 . S
C4389 C4388 1.524 . S
C4389 C4390 1.415 . S
C4390 H4366 0.950 . S
C4390 C4385 1.363 . S
C4390 C4389 1.415 . S
C4391 H4367 0.951 . S
C4391 C4392 1.366 . S
C4391 C4393 1.388 . S
C4392 C4391 1.366 . S
C4392 C4396 1.385 . S
C4393 H4368 0.951 . S
C4393 C4391 1.388 . S
C4393 C4394 1.366 . S
C4394 C4393 1.366 . S
C4394 C4395 1.414 . S
C4394 C4397 1.499 . S
C4395 H4369 0.950 . S
C4395 C4394 1.414 . S
C4395 C4396 1.374 . S
C4396 H4370 0.950 . S
C4396 C4392 1.385 . S
C4396 C4395 1.374 . S
C4397 C4394 1.499 . S
C4397 C4398 1.373 . S
C4397 C4399 1.389 . S
C4398 H4371 0.950 . S
C4398 C4384 1.377 . S
C4398 C4397 1.373 . S
C4399 C4383 1.377 . S
C4399 C4397 1.389 . S
C4399 C4400 1.524 . S
C4400 C4399 1.524 . S
C4400 C4401 1.397 . S
C4400 C4405 1.363 . S
C4401 H4372 0.950 . S
C4401 C4400 1.397 . S
C4401 C4402 1.334 . S
C4402 H4373 0.950 . S
C4402 C4401 1.334 . S
C4402 C4403 1.287 . S
C4403 C4402 1.287 . S
C4403 C4404 1.524 . S
C4403 H4406 0.999 . S
C4404 H4374 0.950 . S
C4404 C4403 1.524 . S
C4404 C4405 1.415 . S
C4405 H4375 0.950 . S
C4405 C4400 1.363 . S
C4405 C4404 1.415 . S
H4406 C4403 0.999 . S
H4407 C4388 0.913 . S
H4408 C4426 0.951 . S
H4409 C4428 0.951 . S
H4410 C4430 0.950 . S
H4411 C4431 0.950 . S
H4412 C4433 0.950 . S
H4413 C4436 0.950 . S
H4414 C4437 0.950 . S
H4415 C4439 0.950 . S
H4416 C4440 0.950 . S
H4417 C4441 0.951 . S
H4418 C4443 0.951 . S
H4419 C4445 0.950 . S
H4420 C4446 0.950 . S
H4421 C4448 0.950 . S
H4422 C4451 0.950 . S
H4423 C4452 0.950 . S
H4424 C4454 0.950 . S
H4425 C4455 0.950 . S
C4426 H4408 0.951 . S
C4426 C4427 1.366 1_565 S
C4426 C4428 1.388 . S
C4427 C4426 1.366 1_545 S
C4427 C4431 1.385 . S
C4428 H4409 0.951 . S
C4428 C4426 1.388 . S
C4428 C4429 1.366 . S
C4429 C4428 1.366 . S
C4429 C4430 1.414 . S
C4429 C4432 1.499 . S
C4430 H4410 0.950 . S
C4430 C4429 1.414 . S
C4430 C4431 1.374 1_565 S
C4431 H4411 0.950 . S
C4431 C4427 1.385 . S
C4431 C4430 1.374 1_545 S
C4432 C4429 1.499 . S
C4432 C4433 1.373 . S
C4432 C4434 1.389 . S
C4433 H4412 0.950 . S
C4433 C4432 1.373 . S
C4433 C4449 1.377 . S
C4434 C4432 1.389 . S
C4434 C4435 1.524 . S
C4434 C4448 1.377 . S
C4435 C4434 1.524 . S
C4435 C4436 1.397 . S
C4435 C4440 1.363 . S
C4436 H4413 0.950 . S
C4436 C4435 1.397 . S
C4436 C4437 1.334 . S
C4437 H4414 0.950 . S
C4437 C4436 1.334 . S
C4437 C4438 1.287 . S
C4438 C4437 1.287 . S
C4438 C4439 1.524 . S
C4438 H4457 0.913 . S
C4439 H4415 0.950 . S
C4439 C4438 1.524 . S
C4439 C4440 1.415 . S
C4440 H4416 0.950 . S
C4440 C4435 1.363 . S
C4440 C4439 1.415 . S
C4441 H4417 0.951 . S
C4441 C4442 1.366 . S
C4441 C4443 1.388 . S
C4442 C4441 1.366 . S
C4442 C4446 1.385 . S
C4443 H4418 0.951 . S
C4443 C4441 1.388 . S
C4443 C4444 1.366 . S
C4444 C4443 1.366 . S
C4444 C4445 1.414 . S
C4444 C4447 1.499 . S
C4445 H4419 0.950 . S
C4445 C4444 1.414 . S
C4445 C4446 1.374 . S
C4446 H4420 0.950 . S
C4446 C4442 1.385 . S
C4446 C4445 1.374 . S
C4447 C4444 1.499 . S
C4447 C4448 1.373 . S
C4447 C4449 1.389 . S
C4448 H4421 0.950 . S
C4448 C4434 1.377 . S
C4448 C4447 1.373 . S
C4449 C4433 1.377 . S
C4449 C4447 1.389 . S
C4449 C4450 1.524 . S
C4450 C4449 1.524 . S
C4450 C4451 1.397 . S
C4450 C4455 1.363 . S
C4451 H4422 0.950 . S
C4451 C4450 1.397 . S
C4451 C4452 1.334 . S
C4452 H4423 0.950 . S
C4452 C4451 1.334 . S
C4452 C4453 1.287 . S
C4453 C4452 1.287 . S
C4453 C4454 1.524 . S
C4453 H4456 0.999 . S
C4454 H4424 0.950 . S
C4454 C4453 1.524 . S
C4454 C4455 1.415 . S
C4455 H4425 0.950 . S
C4455 C4450 1.363 . S
C4455 C4454 1.415 . S
H4456 C4453 0.999 . S
H4457 C4438 0.913 . S
H4458 C4476 0.951 . S
H4459 C4478 0.951 . S
H4460 C4480 0.950 . S
H4461 C4481 0.950 . S
H4462 C4483 0.950 . S
H4463 C4486 0.950 . S
H4464 C4487 0.950 . S
H4465 C4489 0.950 . S
H4466 C4490 0.950 . S
H4467 C4491 0.951 1_545 S
H4468 C4493 0.951 . S
H4469 C4495 0.950 . S
H4470 C4496 0.950 . S
H4471 C4498 0.950 . S
H4472 C4501 0.950 . S
H4473 C4502 0.950 . S
H4474 C4504 0.950 1_545 S
H4475 C4505 0.950 . S
C4476 H4458 0.951 . S
C4476 C4477 1.366 . S
C4476 C4478 1.388 . S
C4477 C4476 1.366 . S
C4477 C4481 1.385 . S
C4478 H4459 0.951 . S
C4478 C4476 1.388 . S
C4478 C4479 1.366 . S
C4479 C4478 1.366 . S
C4479 C4480 1.414 . S
C4479 C4482 1.499 . S
C4480 H4460 0.950 . S
C4480 C4479 1.414 . S
C4480 C4481 1.374 . S
C4481 H4461 0.950 . S
C4481 C4477 1.385 . S
C4481 C4480 1.374 . S
C4482 C4479 1.499 . S
C4482 C4483 1.373 . S
C4482 C4484 1.389 . S
C4483 H4462 0.950 . S
C4483 C4482 1.373 . S
C4483 C4499 1.377 . S
C4484 C4482 1.389 . S
C4484 C4485 1.524 . S
C4484 C4498 1.377 . S
C4485 C4484 1.524 . S
C4485 C4486 1.397 . S
C4485 C4490 1.363 . S
C4486 H4463 0.950 . S
C4486 C4485 1.397 . S
C4486 C4487 1.334 . S
C4487 H4464 0.950 . S
C4487 C4486 1.334 . S
C4487 C4488 1.287 . S
C4488 C4487 1.287 . S
C4488 C4489 1.524 . S
C4488 H4507 0.913 . S
C4489 H4465 0.950 . S
C4489 C4488 1.524 . S
C4489 C4490 1.415 . S
C4490 H4466 0.950 . S
C4490 C4485 1.363 . S
C4490 C4489 1.415 . S
C4491 H4467 0.951 1_565 S
C4491 C4492 1.366 . S
C4491 C4493 1.388 . S
C4492 C4491 1.366 . S
C4492 C4496 1.385 . S
C4493 H4468 0.951 . S
C4493 C4491 1.388 . S
C4493 C4494 1.366 . S
C4494 C4493 1.366 . S
C4494 C4495 1.414 . S
C4494 C4497 1.499 . S
C4495 H4469 0.950 . S
C4495 C4494 1.414 . S
C4495 C4496 1.374 . S
C4496 H4470 0.950 . S
C4496 C4492 1.385 . S
C4496 C4495 1.374 . S
C4497 C4494 1.499 . S
C4497 C4498 1.373 . S
C4497 C4499 1.389 . S
C4498 H4471 0.950 . S
C4498 C4484 1.377 . S
C4498 C4497 1.373 . S
C4499 C4483 1.377 . S
C4499 C4497 1.389 . S
C4499 C4500 1.524 . S
C4500 C4499 1.524 . S
C4500 C4501 1.397 . S
C4500 C4505 1.363 . S
C4501 H4472 0.950 . S
C4501 C4500 1.397 . S
C4501 C4502 1.334 . S
C4502 H4473 0.950 . S
C4502 C4501 1.334 . S
C4502 C4503 1.287 . S
C4503 C4502 1.287 . S
C4503 C4504 1.524 . S
C4503 H4506 1.034 . S
C4504 H4474 0.950 1_565 S
C4504 C4503 1.524 . S
C4504 C4505 1.415 . S
C4505 H4475 0.950 . S
C4505 C4500 1.363 . S
C4505 C4504 1.415 . S
H4506 C4503 1.034 . S
H4507 C4488 0.913 . S
H4508 C4526 0.951 . S
H4509 C4528 0.951 . S
H4510 C4530 0.950 . S
H4511 C4531 0.950 . S
H4512 C4533 0.950 . S
H4513 C4536 0.950 . S
H4514 C4537 0.950 . S
H4515 C4539 0.950 . S
H4516 C4540 0.950 . S
H4517 C4541 0.951 . S
H4518 C4543 0.951 . S
H4519 C4545 0.950 . S
H4520 C4546 0.950 . S
H4521 C4548 0.950 . S
H4522 C4551 0.950 . S
H4523 C4552 0.950 . S
H4524 C4554 0.950 . S
H4525 C4555 0.950 . S
C4526 H4508 0.951 . S
C4526 C4527 1.366 . S
C4526 C4528 1.388 . S
C4527 C4526 1.366 . S
C4527 C4531 1.385 . S
C4528 H4509 0.951 . S
C4528 C4526 1.388 . S
C4528 C4529 1.366 . S
C4529 C4528 1.366 . S
C4529 C4530 1.414 . S
C4529 C4532 1.499 . S
C4530 H4510 0.950 . S
C4530 C4529 1.414 . S
C4530 C4531 1.374 . S
C4531 H4511 0.950 . S
C4531 C4527 1.385 . S
C4531 C4530 1.374 . S
C4532 C4529 1.499 . S
C4532 C4533 1.373 . S
C4532 C4534 1.389 . S
C4533 H4512 0.950 . S
C4533 C4532 1.373 . S
C4533 C4549 1.377 . S
C4534 C4532 1.389 . S
C4534 C4535 1.524 . S
C4534 C4548 1.377 . S
C4535 C4534 1.524 . S
C4535 C4536 1.397 . S
C4535 C4540 1.363 . S
C4536 H4513 0.950 . S
C4536 C4535 1.397 . S
C4536 C4537 1.334 . S
C4537 H4514 0.950 . S
C4537 C4536 1.334 . S
C4537 C4538 1.287 . S
C4538 C4537 1.287 . S
C4538 C4539 1.524 . S
C4538 H4557 0.913 . S
C4539 H4515 0.950 . S
C4539 C4538 1.524 . S
C4539 C4540 1.415 . S
C4540 H4516 0.950 . S
C4540 C4535 1.363 . S
C4540 C4539 1.415 . S
C4541 H4517 0.951 . S
C4541 C4542 1.366 . S
C4541 C4543 1.388 . S
C4542 C4541 1.366 . S
C4542 C4546 1.385 . S
C4543 H4518 0.951 . S
C4543 C4541 1.388 . S
C4543 C4544 1.366 . S
C4544 C4543 1.366 . S
C4544 C4545 1.414 . S
C4544 C4547 1.499 . S
C4545 H4519 0.950 . S
C4545 C4544 1.414 . S
C4545 C4546 1.374 . S
C4546 H4520 0.950 . S
C4546 C4542 1.385 . S
C4546 C4545 1.374 . S
C4547 C4544 1.499 . S
C4547 C4548 1.373 . S
C4547 C4549 1.389 . S
C4548 H4521 0.950 . S
C4548 C4534 1.377 . S
C4548 C4547 1.373 . S
C4549 C4533 1.377 . S
C4549 C4547 1.389 . S
C4549 C4550 1.524 . S
C4550 C4549 1.524 . S
C4550 C4551 1.397 . S
C4550 C4555 1.363 . S
C4551 H4522 0.950 . S
C4551 C4550 1.397 . S
C4551 C4552 1.334 . S
C4552 H4523 0.950 . S
C4552 C4551 1.334 . S
C4552 C4553 1.287 . S
C4553 C4552 1.287 . S
C4553 C4554 1.524 . S
C4553 H4556 0.999 . S
C4554 H4524 0.950 . S
C4554 C4553 1.524 . S
C4554 C4555 1.415 . S
C4555 H4525 0.950 . S
C4555 C4550 1.363 . S
C4555 C4554 1.415 . S
H4556 C4553 0.999 . S
H4557 C4538 0.913 . S
H4558 C4576 0.951 . S
H4559 C4578 0.951 . S
H4560 C4580 0.950 . S
H4561 C4581 0.950 . S
H4562 C4583 0.950 . S
H4563 C4586 0.950 . S
H4564 C4587 0.950 . S
H4565 C4589 0.950 . S
H4566 C4590 0.950 . S
H4567 C4591 0.951 . S
H4568 C4593 0.951 . S
H4569 C4595 0.950 . S
H4570 C4596 0.950 . S
H4571 C4598 0.950 . S
H4572 C4601 0.950 . S
H4573 C4602 0.950 . S
H4574 C4604 0.950 . S
H4575 C4605 0.950 . S
C4576 H4558 0.951 . S
C4576 C4577 1.366 . S
C4576 C4578 1.388 . S
C4577 C4576 1.366 . S
C4577 C4581 1.385 . S
C4578 H4559 0.951 . S
C4578 C4576 1.388 . S
C4578 C4579 1.366 . S
C4579 C4578 1.366 . S
C4579 C4580 1.414 . S
C4579 C4582 1.499 . S
C4580 H4560 0.950 . S
C4580 C4579 1.414 . S
C4580 C4581 1.374 . S
C4581 H4561 0.950 . S
C4581 C4577 1.385 . S
C4581 C4580 1.374 . S
C4582 C4579 1.499 . S
C4582 C4583 1.373 . S
C4582 C4584 1.389 . S
C4583 H4562 0.950 . S
C4583 C4582 1.373 . S
C4583 C4599 1.377 . S
C4584 C4582 1.389 . S
C4584 C4585 1.524 . S
C4584 C4598 1.377 . S
C4585 C4584 1.524 . S
C4585 C4586 1.397 . S
C4585 C4590 1.363 . S
C4586 H4563 0.950 . S
C4586 C4585 1.397 . S
C4586 C4587 1.334 . S
C4587 H4564 0.950 . S
C4587 C4586 1.334 . S
C4587 C4588 1.287 . S
C4588 C4587 1.287 . S
C4588 C4589 1.524 . S
C4588 H4607 0.913 . S
C4589 H4565 0.950 . S
C4589 C4588 1.524 . S
C4589 C4590 1.415 . S
C4590 H4566 0.950 . S
C4590 C4585 1.363 . S
C4590 C4589 1.415 . S
C4591 H4567 0.951 . S
C4591 C4592 1.366 . S
C4591 C4593 1.388 . S
C4592 C4591 1.366 . S
C4592 C4596 1.385 . S
C4593 H4568 0.951 . S
C4593 C4591 1.388 . S
C4593 C4594 1.366 . S
C4594 C4593 1.366 . S
C4594 C4595 1.414 . S
C4594 C4597 1.499 . S
C4595 H4569 0.950 . S
C4595 C4594 1.414 . S
C4595 C4596 1.374 . S
C4596 H4570 0.950 . S
C4596 C4592 1.385 . S
C4596 C4595 1.374 . S
C4597 C4594 1.499 . S
C4597 C4598 1.373 . S
C4597 C4599 1.389 . S
C4598 H4571 0.950 . S
C4598 C4584 1.377 . S
C4598 C4597 1.373 . S
C4599 C4583 1.377 . S
C4599 C4597 1.389 . S
C4599 C4600 1.524 . S
C4600 C4599 1.524 . S
C4600 C4601 1.397 . S
C4600 C4605 1.363 . S
C4601 H4572 0.950 . S
C4601 C4600 1.397 . S
C4601 C4602 1.334 . S
C4602 H4573 0.950 . S
C4602 C4601 1.334 . S
C4602 C4603 1.287 . S
C4603 C4602 1.287 . S
C4603 C4604 1.524 . S
C4603 H4606 0.999 . S
C4604 H4574 0.950 . S
C4604 C4603 1.524 . S
C4604 C4605 1.415 . S
C4605 H4575 0.950 . S
C4605 C4600 1.363 . S
C4605 C4604 1.415 . S
H4606 C4603 0.999 . S
H4607 C4588 0.913 . S
H4608 C4626 0.951 . S
H4609 C4628 0.951 . S
H4610 C4630 0.950 . S
H4611 C4631 0.950 . S
H4612 C4633 0.950 . S
H4613 C4636 0.950 . S
H4614 C4637 0.950 . S
H4615 C4639 0.950 . S
H4616 C4640 0.950 . S
H4617 C4641 0.951 . S
H4618 C4643 0.951 . S
H4619 C4645 0.950 . S
H4620 C4646 0.950 . S
H4621 C4648 0.950 . S
H4622 C4651 0.950 . S
H4623 C4652 0.950 . S
H4624 C4654 0.950 . S
H4625 C4655 0.950 . S
C4626 H4608 0.951 . S
C4626 C4627 1.366 . S
C4626 C4628 1.388 . S
C4627 C4626 1.366 . S
C4627 C4631 1.385 . S
C4628 H4609 0.951 . S
C4628 C4626 1.388 . S
C4628 C4629 1.366 . S
C4629 C4628 1.366 . S
C4629 C4630 1.414 . S
C4629 C4632 1.499 . S
C4630 H4610 0.950 . S
C4630 C4629 1.414 . S
C4630 C4631 1.374 . S
C4631 H4611 0.950 . S
C4631 C4627 1.385 . S
C4631 C4630 1.374 . S
C4632 C4629 1.499 . S
C4632 C4633 1.373 . S
C4632 C4634 1.389 . S
C4633 H4612 0.950 . S
C4633 C4632 1.373 . S
C4633 C4649 1.377 . S
C4634 C4632 1.389 . S
C4634 C4635 1.524 . S
C4634 C4648 1.377 . S
C4635 C4634 1.524 . S
C4635 C4636 1.397 . S
C4635 C4640 1.363 . S
C4636 H4613 0.950 . S
C4636 C4635 1.397 . S
C4636 C4637 1.334 . S
C4637 H4614 0.950 . S
C4637 C4636 1.334 . S
C4637 C4638 1.287 . S
C4638 C4637 1.287 . S
C4638 C4639 1.524 . S
C4638 H4657 0.913 . S
C4639 H4615 0.950 . S
C4639 C4638 1.524 . S
C4639 C4640 1.415 . S
C4640 H4616 0.950 . S
C4640 C4635 1.363 . S
C4640 C4639 1.415 . S
C4641 H4617 0.951 . S
C4641 C4642 1.366 . S
C4641 C4643 1.388 . S
C4642 C4641 1.366 . S
C4642 C4646 1.385 . S
C4643 H4618 0.951 . S
C4643 C4641 1.388 . S
C4643 C4644 1.366 . S
C4644 C4643 1.366 . S
C4644 C4645 1.414 . S
C4644 C4647 1.499 . S
C4645 H4619 0.950 . S
C4645 C4644 1.414 . S
C4645 C4646 1.374 . S
C4646 H4620 0.950 . S
C4646 C4642 1.385 . S
C4646 C4645 1.374 . S
C4647 C4644 1.499 . S
C4647 C4648 1.373 . S
C4647 C4649 1.389 . S
C4648 H4621 0.950 . S
C4648 C4634 1.377 . S
C4648 C4647 1.373 . S
C4649 C4633 1.377 . S
C4649 C4647 1.389 . S
C4649 C4650 1.524 . S
C4650 C4649 1.524 . S
C4650 C4651 1.397 . S
C4650 C4655 1.363 . S
C4651 H4622 0.950 . S
C4651 C4650 1.397 . S
C4651 C4652 1.334 . S
C4652 H4623 0.950 . S
C4652 C4651 1.334 . S
C4652 C4653 1.287 . S
C4653 C4652 1.287 . S
C4653 C4654 1.524 . S
C4653 H4656 0.999 . S
C4654 H4624 0.950 . S
C4654 C4653 1.524 . S
C4654 C4655 1.415 . S
C4655 H4625 0.950 . S
C4655 C4650 1.363 . S
C4655 C4654 1.415 . S
H4656 C4653 0.999 . S
H4657 C4638 0.913 . S
H4658 C4676 0.951 . S
H4659 C4678 0.951 . S
H4660 C4680 0.950 . S
H4661 C4681 0.950 . S
H4662 C4683 0.950 . S
H4663 C4686 0.950 . S
H4664 C4687 0.950 . S
H4665 C4689 0.950 . S
H4666 C4690 0.950 . S
H4667 C4691 0.951 . S
H4668 C4693 0.951 . S
H4669 C4695 0.950 . S
H4670 C4696 0.950 . S
H4671 C4698 0.950 . S
H4672 C4701 0.950 . S
H4673 C4702 0.950 . S
H4674 C4704 0.950 . S
H4675 C4705 0.950 . S
C4676 H4658 0.951 . S
C4676 C4677 1.366 . S
C4676 C4678 1.388 . S
C4677 C4676 1.366 . S
C4677 C4681 1.385 . S
C4678 H4659 0.951 . S
C4678 C4676 1.388 . S
C4678 C4679 1.366 . S
C4679 C4678 1.366 . S
C4679 C4680 1.414 . S
C4679 C4682 1.499 . S
C4680 H4660 0.950 . S
C4680 C4679 1.414 . S
C4680 C4681 1.374 . S
C4681 H4661 0.950 . S
C4681 C4677 1.385 . S
C4681 C4680 1.374 . S
C4682 C4679 1.499 . S
C4682 C4683 1.373 . S
C4682 C4684 1.389 . S
C4683 H4662 0.950 . S
C4683 C4682 1.373 . S
C4683 C4699 1.377 . S
C4684 C4682 1.389 . S
C4684 C4685 1.524 . S
C4684 C4698 1.377 . S
C4685 C4684 1.524 . S
C4685 C4686 1.397 . S
C4685 C4690 1.363 . S
C4686 H4663 0.950 . S
C4686 C4685 1.397 . S
C4686 C4687 1.334 . S
C4687 H4664 0.950 . S
C4687 C4686 1.334 . S
C4687 C4688 1.287 . S
C4688 C4687 1.287 . S
C4688 C4689 1.524 . S
C4688 H4707 0.913 . S
C4689 H4665 0.950 . S
C4689 C4688 1.524 . S
C4689 C4690 1.415 . S
C4690 H4666 0.950 . S
C4690 C4685 1.363 . S
C4690 C4689 1.415 . S
C4691 H4667 0.951 . S
C4691 C4692 1.366 . S
C4691 C4693 1.388 . S
C4692 C4691 1.366 . S
C4692 C4696 1.385 . S
C4693 H4668 0.951 . S
C4693 C4691 1.388 . S
C4693 C4694 1.366 . S
C4694 C4693 1.366 . S
C4694 C4695 1.414 . S
C4694 C4697 1.499 . S
C4695 H4669 0.950 . S
C4695 C4694 1.414 . S
C4695 C4696 1.374 . S
C4696 H4670 0.950 . S
C4696 C4692 1.385 . S
C4696 C4695 1.374 . S
C4697 C4694 1.499 . S
C4697 C4698 1.373 . S
C4697 C4699 1.389 . S
C4698 H4671 0.950 . S
C4698 C4684 1.377 . S
C4698 C4697 1.373 . S
C4699 C4683 1.377 . S
C4699 C4697 1.389 . S
C4699 C4700 1.524 . S
C4700 C4699 1.524 . S
C4700 C4701 1.397 . S
C4700 C4705 1.363 . S
C4701 H4672 0.950 . S
C4701 C4700 1.397 . S
C4701 C4702 1.334 . S
C4702 H4673 0.950 . S
C4702 C4701 1.334 . S
C4702 C4703 1.287 . S
C4703 C4702 1.287 . S
C4703 C4704 1.524 . S
C4703 H4706 0.999 . S
C4704 H4674 0.950 . S
C4704 C4703 1.524 . S
C4704 C4705 1.415 . S
C4705 H4675 0.950 . S
C4705 C4700 1.363 . S
C4705 C4704 1.415 . S
H4706 C4703 0.999 . S
H4707 C4688 0.913 . S
H4708 C4726 0.951 . S
H4709 C4728 0.951 . S
H4710 C4730 0.950 . S
H4711 C4731 0.950 . S
H4712 C4733 0.950 . S
H4713 C4736 0.950 . S
H4714 C4737 0.950 . S
H4715 C4739 0.950 . S
H4716 C4740 0.955 1_556 S
H4717 C4741 0.951 1_655 S
H4718 C4743 0.951 1_655 S
H4719 C4745 0.950 . S
H4720 C4746 0.945 1_556 S
H4721 C4748 0.950 1_554 S
H4722 C4751 0.950 1_455 S
H4723 C4752 0.950 . S
H4724 C4754 0.950 . S
H4725 C4755 0.950 . S
C4726 H4708 0.951 . S
C4726 C4727 1.366 . S
C4726 C4728 1.388 . S
C4727 C4726 1.366 . S
C4727 C4731 1.385 1_455 S
C4728 H4709 0.951 . S
C4728 C4726 1.388 . S
C4728 C4729 1.366 . S
C4729 C4728 1.366 . S
C4729 C4730 1.414 1_455 S
C4729 C4732 1.499 . S
C4730 H4710 0.950 . S
C4730 C4729 1.414 1_655 S
C4730 C4731 1.374 . S
C4731 H4711 0.950 . S
C4731 C4727 1.385 1_655 S
C4731 C4730 1.374 . S
C4732 C4729 1.499 . S
C4732 C4733 1.373 1_455 S
C4732 C4734 1.389 . S
C4733 H4712 0.950 . S
C4733 C4732 1.373 1_655 S
C4733 C4749 1.376 . S
C4734 C4732 1.389 . S
C4734 C4735 1.525 1_556 S
C4734 C4748 1.377 . S
C4735 C4734 1.525 1_554 S
C4735 C4736 1.396 . S
C4735 C4740 1.362 . S
C4736 H4713 0.950 . S
C4736 C4735 1.396 . S
C4736 C4737 1.334 . S
C4737 H4714 0.950 . S
C4737 C4736 1.334 . S
C4737 C4738 1.287 . S
C4738 C4737 1.287 . S
C4738 C4739 1.524 . S
C4738 H4757 0.913 . S
C4739 H4715 0.950 . S
C4739 C4738 1.524 . S
C4739 C4740 1.412 . S
C4740 H4716 0.955 1_554 S
C4740 C4735 1.362 . S
C4740 C4739 1.412 . S
C4741 H4717 0.951 1_455 S
C4741 C4742 1.366 . S
C4741 C4743 1.388 . S
C4742 C4741 1.366 . S
C4742 C4746 1.395 . S
C4743 H4718 0.951 1_455 S
C4743 C4741 1.388 . S
C4743 C4744 1.366 1_554 S
C4744 C4743 1.366 1_556 S
C4744 C4745 1.414 . S
C4744 C4747 1.499 . S
C4745 H4719 0.950 . S
C4745 C4744 1.414 . S
C4745 C4746 1.368 1_556 S
C4746 H4720 0.945 1_554 S
C4746 C4742 1.395 . S
C4746 C4745 1.368 1_554 S
C4747 C4744 1.499 . S
C4747 C4748 1.373 . S
C4747 C4749 1.384 1_455 S
C4748 H4721 0.950 1_556 S
C4748 C4734 1.377 . S
C4748 C4747 1.373 . S
C4749 C4733 1.376 . S
C4749 C4747 1.384 1_655 S
C4749 C4750 1.530 . S
C4750 C4749 1.530 . S
C4750 C4751 1.397 . S
C4750 C4755 1.363 . S
C4751 H4722 0.950 1_655 S
C4751 C4750 1.397 . S
C4751 C4752 1.334 . S
C4752 H4723 0.950 . S
C4752 C4751 1.334 . S
C4752 C4753 1.287 . S
C4753 C4752 1.287 . S
C4753 C4754 1.524 . S
C4753 H4756 0.999 . S
C4754 H4724 0.950 . S
C4754 C4753 1.524 . S
C4754 C4755 1.415 . S
C4755 H4725 0.950 . S
C4755 C4750 1.363 . S
C4755 C4754 1.415 . S
H4756 C4753 0.999 . S
H4757 C4738 0.913 . S
H4758 C4776 0.951 . S
H4759 C4778 0.951 . S
H4760 C4780 0.950 . S
H4761 C4781 0.950 1_455 S
H4762 C4783 0.950 . S
H4763 C4786 0.950 . S
H4764 C4787 0.950 . S
H4765 C4789 0.950 . S
H4766 C4790 0.950 . S
H4767 C4791 0.951 . S
H4768 C4793 0.951 . S
H4769 C4795 0.950 . S
H4770 C4796 0.950 . S
H4771 C4798 0.950 . S
H4772 C4801 0.950 . S
H4773 C4802 0.950 . S
H4774 C4804 0.950 . S
H4775 C4805 0.950 . S
C4776 H4758 0.951 . S
C4776 C4777 1.366 . S
C4776 C4778 1.388 . S
C4777 C4776 1.366 . S
C4777 C4781 1.385 . S
C4778 H4759 0.951 . S
C4778 C4776 1.388 . S
C4778 C4779 1.366 . S
C4779 C4778 1.366 . S
C4779 C4780 1.414 . S
C4779 C4782 1.499 . S
C4780 H4760 0.950 . S
C4780 C4779 1.414 . S
C4780 C4781 1.374 . S
C4781 H4761 0.950 1_655 S
C4781 C4777 1.385 . S
C4781 C4780 1.374 . S
C4782 C4779 1.499 . S
C4782 C4783 1.373 . S
C4782 C4784 1.389 . S
C4783 H4762 0.950 . S
C4783 C4782 1.373 . S
C4783 C4799 1.377 . S
C4784 C4782 1.389 . S
C4784 C4785 1.524 . S
C4784 C4798 1.377 . S
C4785 C4784 1.524 . S
C4785 C4786 1.397 . S
C4785 C4790 1.363 . S
C4786 H4763 0.950 . S
C4786 C4785 1.397 . S
C4786 C4787 1.334 . S
C4787 H4764 0.950 . S
C4787 C4786 1.334 . S
C4787 C4788 1.287 . S
C4788 C4787 1.287 . S
C4788 C4789 1.524 . S
C4788 H4807 0.913 . S
C4789 H4765 0.950 . S
C4789 C4788 1.524 . S
C4789 C4790 1.415 . S
C4790 H4766 0.950 . S
C4790 C4785 1.363 . S
C4790 C4789 1.415 . S
C4791 H4767 0.951 . S
C4791 C4792 1.366 . S
C4791 C4793 1.388 . S
C4792 C4791 1.366 . S
C4792 C4796 1.385 . S
C4793 H4768 0.951 . S
C4793 C4791 1.388 . S
C4793 C4794 1.366 . S
C4794 C4793 1.366 . S
C4794 C4795 1.414 . S
C4794 C4797 1.499 . S
C4795 H4769 0.950 . S
C4795 C4794 1.414 . S
C4795 C4796 1.374 . S
C4796 H4770 0.950 . S
C4796 C4792 1.385 . S
C4796 C4795 1.374 . S
C4797 C4794 1.499 . S
C4797 C4798 1.373 . S
C4797 C4799 1.389 . S
C4798 H4771 0.950 . S
C4798 C4784 1.377 . S
C4798 C4797 1.373 . S
C4799 C4783 1.377 . S
C4799 C4797 1.389 . S
C4799 C4800 1.524 . S
C4800 C4799 1.524 . S
C4800 C4801 1.397 . S
C4800 C4805 1.363 . S
C4801 H4772 0.950 . S
C4801 C4800 1.397 . S
C4801 C4802 1.334 . S
C4802 H4773 0.950 . S
C4802 C4801 1.334 . S
C4802 C4803 1.287 . S
C4803 C4802 1.287 . S
C4803 C4804 1.524 . S
C4803 H4806 0.999 . S
C4804 H4774 0.950 . S
C4804 C4803 1.524 . S
C4804 C4805 1.415 . S
C4805 H4775 0.950 . S
C4805 C4800 1.363 . S
C4805 C4804 1.415 . S
H4806 C4803 0.999 . S
H4807 C4788 0.913 . S
H4808 C4826 0.951 . S
H4809 C4828 0.951 . S
H4810 C4830 0.950 . S
H4811 C4831 0.950 . S
H4812 C4833 0.950 . S
H4813 C4836 0.950 . S
H4814 C4837 0.950 . S
H4815 C4839 0.950 . S
H4816 C4840 0.950 . S
H4817 C4841 0.951 . S
H4818 C4843 0.951 . S
H4819 C4845 0.950 . S
H4820 C4846 0.950 . S
H4821 C4848 0.950 . S
H4822 C4851 0.950 . S
H4823 C4852 0.950 . S
H4824 C4854 0.950 . S
H4825 C4855 0.950 . S
C4826 H4808 0.951 . S
C4826 C4827 1.366 . S
C4826 C4828 1.388 . S
C4827 C4826 1.366 . S
C4827 C4831 1.385 . S
C4828 H4809 0.951 . S
C4828 C4826 1.388 . S
C4828 C4829 1.366 . S
C4829 C4828 1.366 . S
C4829 C4830 1.414 . S
C4829 C4832 1.499 . S
C4830 H4810 0.950 . S
C4830 C4829 1.414 . S
C4830 C4831 1.374 . S
C4831 H4811 0.950 . S
C4831 C4827 1.385 . S
C4831 C4830 1.374 . S
C4832 C4829 1.499 . S
C4832 C4833 1.373 . S
C4832 C4834 1.389 . S
C4833 H4812 0.950 . S
C4833 C4832 1.373 . S
C4833 C4849 1.377 . S
C4834 C4832 1.389 . S
C4834 C4835 1.524 . S
C4834 C4848 1.377 . S
C4835 C4834 1.524 . S
C4835 C4836 1.397 . S
C4835 C4840 1.363 . S
C4836 H4813 0.950 . S
C4836 C4835 1.397 . S
C4836 C4837 1.334 . S
C4837 H4814 0.950 . S
C4837 C4836 1.334 . S
C4837 C4838 1.287 . S
C4838 C4837 1.287 . S
C4838 C4839 1.524 . S
C4838 H4857 0.913 . S
C4839 H4815 0.950 . S
C4839 C4838 1.524 . S
C4839 C4840 1.415 . S
C4840 H4816 0.950 . S
C4840 C4835 1.363 . S
C4840 C4839 1.415 . S
C4841 H4817 0.951 . S
C4841 C4842 1.366 . S
C4841 C4843 1.388 . S
C4842 C4841 1.366 . S
C4842 C4846 1.385 . S
C4843 H4818 0.951 . S
C4843 C4841 1.388 . S
C4843 C4844 1.366 . S
C4844 C4843 1.366 . S
C4844 C4845 1.414 . S
C4844 C4847 1.499 . S
C4845 H4819 0.950 . S
C4845 C4844 1.414 . S
C4845 C4846 1.374 . S
C4846 H4820 0.950 . S
C4846 C4842 1.385 . S
C4846 C4845 1.374 . S
C4847 C4844 1.499 . S
C4847 C4848 1.373 . S
C4847 C4849 1.389 . S
C4848 H4821 0.950 . S
C4848 C4834 1.377 . S
C4848 C4847 1.373 . S
C4849 C4833 1.377 . S
C4849 C4847 1.389 . S
C4849 C4850 1.524 . S
C4850 C4849 1.524 . S
C4850 C4851 1.397 . S
C4850 C4855 1.363 . S
C4851 H4822 0.950 . S
C4851 C4850 1.397 . S
C4851 C4852 1.334 . S
C4852 H4823 0.950 . S
C4852 C4851 1.334 . S
C4852 C4853 1.287 . S
C4853 C4852 1.287 . S
C4853 C4854 1.524 . S
C4853 H4856 0.999 . S
C4854 H4824 0.950 . S
C4854 C4853 1.524 . S
C4854 C4855 1.415 . S
C4855 H4825 0.950 . S
C4855 C4850 1.363 . S
C4855 C4854 1.415 . S
H4856 C4853 0.999 . S
H4857 C4838 0.913 . S
H4858 C4876 0.951 . S
H4859 C4878 0.951 . S
H4860 C4880 0.950 . S
H4861 C4881 0.950 . S
H4862 C4883 0.950 . S
H4863 C4886 0.950 . S
H4864 C4887 0.950 . S
H4865 C4889 0.950 . S
H4866 C4890 0.950 . S
H4867 C4891 0.951 . S
H4868 C4893 0.951 . S
H4869 C4895 0.950 . S
H4870 C4896 0.950 . S
H4871 C4898 0.950 . S
H4872 C4901 0.950 . S
H4873 C4902 0.950 . S
H4874 C4904 0.950 . S
H4875 C4905 0.950 . S
C4876 H4858 0.951 . S
C4876 C4877 1.366 . S
C4876 C4878 1.388 . S
C4877 C4876 1.366 . S
C4877 C4881 1.385 . S
C4878 H4859 0.951 . S
C4878 C4876 1.388 . S
C4878 C4879 1.366 . S
C4879 C4878 1.366 . S
C4879 C4880 1.414 . S
C4879 C4882 1.499 . S
C4880 H4860 0.950 . S
C4880 C4879 1.414 . S
C4880 C4881 1.374 . S
C4881 H4861 0.950 . S
C4881 C4877 1.385 . S
C4881 C4880 1.374 . S
C4882 C4879 1.499 . S
C4882 C4883 1.373 . S
C4882 C4884 1.389 . S
C4883 H4862 0.950 . S
C4883 C4882 1.373 . S
C4883 C4899 1.377 . S
C4884 C4882 1.389 . S
C4884 C4885 1.524 . S
C4884 C4898 1.377 . S
C4885 C4884 1.524 . S
C4885 C4886 1.397 . S
C4885 C4890 1.363 . S
C4886 H4863 0.950 . S
C4886 C4885 1.397 . S
C4886 C4887 1.334 . S
C4887 H4864 0.950 . S
C4887 C4886 1.334 . S
C4887 C4888 1.287 . S
C4888 C4887 1.287 . S
C4888 C4889 1.524 . S
C4888 H4907 0.913 . S
C4889 H4865 0.950 . S
C4889 C4888 1.524 . S
C4889 C4890 1.415 . S
C4890 H4866 0.950 . S
C4890 C4885 1.363 . S
C4890 C4889 1.415 . S
C4891 H4867 0.951 . S
C4891 C4892 1.366 . S
C4891 C4893 1.388 . S
C4892 C4891 1.366 . S
C4892 C4896 1.385 . S
C4893 H4868 0.951 . S
C4893 C4891 1.388 . S
C4893 C4894 1.366 . S
C4894 C4893 1.366 . S
C4894 C4895 1.414 . S
C4894 C4897 1.499 . S
C4895 H4869 0.950 . S
C4895 C4894 1.414 . S
C4895 C4896 1.374 . S
C4896 H4870 0.950 . S
C4896 C4892 1.385 . S
C4896 C4895 1.374 . S
C4897 C4894 1.499 . S
C4897 C4898 1.373 . S
C4897 C4899 1.389 . S
C4898 H4871 0.950 . S
C4898 C4884 1.377 . S
C4898 C4897 1.373 . S
C4899 C4883 1.377 . S
C4899 C4897 1.389 . S
C4899 C4900 1.524 . S
C4900 C4899 1.524 . S
C4900 C4901 1.397 . S
C4900 C4905 1.363 . S
C4901 H4872 0.950 . S
C4901 C4900 1.397 . S
C4901 C4902 1.334 . S
C4902 H4873 0.950 . S
C4902 C4901 1.334 . S
C4902 C4903 1.287 . S
C4903 C4902 1.287 . S
C4903 C4904 1.524 . S
C4903 H4906 0.999 . S
C4904 H4874 0.950 . S
C4904 C4903 1.524 . S
C4904 C4905 1.415 . S
C4905 H4875 0.950 . S
C4905 C4900 1.363 . S
C4905 C4904 1.415 . S
H4906 C4903 0.999 . S
H4907 C4888 0.913 . S
H4908 C4926 0.951 . S
H4909 C4928 0.951 . S
H4910 C4930 0.950 . S
H4911 C4931 0.950 . S
H4912 C4933 0.950 1_655 S
H4913 C4936 0.950 . S
H4914 C4937 0.950 . S
H4915 C4939 0.950 . S
H4916 C4940 0.950 . S
H4917 C4941 0.951 . S
H4918 C4943 0.951 . S
H4919 C4945 0.950 . S
H4920 C4946 0.950 . S
H4921 C4948 0.950 . S
H4922 C4951 0.950 . S
H4923 C4952 0.950 . S
H4924 C4954 0.950 . S
H4925 C4955 0.950 . S
C4926 H4908 0.951 . S
C4926 C4927 1.366 . S
C4926 C4928 1.388 . S
C4927 C4926 1.366 . S
C4927 C4931 1.385 . S
C4928 H4909 0.951 . S
C4928 C4926 1.388 . S
C4928 C4929 1.366 . S
C4929 C4928 1.366 . S
C4929 C4930 1.414 . S
C4929 C4932 1.499 . S
C4930 H4910 0.950 . S
C4930 C4929 1.414 . S
C4930 C4931 1.374 . S
C4931 H4911 0.950 . S
C4931 C4927 1.385 . S
C4931 C4930 1.374 . S
C4932 C4929 1.499 . S
C4932 C4933 1.373 . S
C4932 C4934 1.389 . S
C4933 H4912 0.950 1_455 S
C4933 C4932 1.373 . S
C4933 C4949 1.377 . S
C4934 C4932 1.389 . S
C4934 C4935 1.524 . S
C4934 C4948 1.377 . S
C4935 C4934 1.524 . S
C4935 C4936 1.397 . S
C4935 C4940 1.363 . S
C4936 H4913 0.950 . S
C4936 C4935 1.397 . S
C4936 C4937 1.334 . S
C4937 H4914 0.950 . S
C4937 C4936 1.334 . S
C4937 C4938 1.287 . S
C4938 C4937 1.287 . S
C4938 C4939 1.524 . S
C4938 H4957 0.913 . S
C4939 H4915 0.950 . S
C4939 C4938 1.524 . S
C4939 C4940 1.415 . S
C4940 H4916 0.950 . S
C4940 C4935 1.363 . S
C4940 C4939 1.415 . S
C4941 H4917 0.951 . S
C4941 C4942 1.366 . S
C4941 C4943 1.388 . S
C4942 C4941 1.366 . S
C4942 C4946 1.385 . S
C4943 H4918 0.951 . S
C4943 C4941 1.388 . S
C4943 C4944 1.366 . S
C4944 C4943 1.366 . S
C4944 C4945 1.414 . S
C4944 C4947 1.499 . S
C4945 H4919 0.950 . S
C4945 C4944 1.414 . S
C4945 C4946 1.374 . S
C4946 H4920 0.950 . S
C4946 C4942 1.385 . S
C4946 C4945 1.374 . S
C4947 C4944 1.499 . S
C4947 C4948 1.373 . S
C4947 C4949 1.389 . S
C4948 H4921 0.950 . S
C4948 C4934 1.377 . S
C4948 C4947 1.373 . S
C4949 C4933 1.377 . S
C4949 C4947 1.389 . S
C4949 C4950 1.524 1_455 S
C4950 C4949 1.524 1_655 S
C4950 C4951 1.397 . S
C4950 C4955 1.363 . S
C4951 H4922 0.950 . S
C4951 C4950 1.397 . S
C4951 C4952 1.334 . S
C4952 H4923 0.950 . S
C4952 C4951 1.334 . S
C4952 C4953 1.287 . S
C4953 C4952 1.287 . S
C4953 C4954 1.524 . S
C4953 H4956 0.999 . S
C4954 H4924 0.950 . S
C4954 C4953 1.524 . S
C4954 C4955 1.415 . S
C4955 H4925 0.950 . S
C4955 C4950 1.363 . S
C4955 C4954 1.415 . S
H4956 C4953 0.999 . S
H4957 C4938 0.913 . S
H4958 C4976 0.951 . S
H4959 C4978 0.951 . S
H4960 C4980 0.950 . S
H4961 C4981 0.950 . S
H4962 C4983 0.950 . S
H4963 C4986 0.950 . S
H4964 C4987 0.950 . S
H4965 C4989 0.950 . S
H4966 C4990 0.950 . S
H4967 C4991 0.951 . S
H4968 C4993 0.951 . S
H4969 C4995 0.950 . S
H4970 C4996 0.950 . S
H4971 C4998 0.950 . S
H4972 C5001 0.950 . S
H4973 C5002 0.950 . S
H4974 C5004 0.950 . S
H4975 C5005 0.950 . S
C4976 H4958 0.951 . S
C4976 C4977 1.366 . S
C4976 C4978 1.388 . S
C4977 C4976 1.366 . S
C4977 C4981 1.385 . S
C4978 H4959 0.951 . S
C4978 C4976 1.388 . S
C4978 C4979 1.366 . S
C4979 C4978 1.366 . S
C4979 C4980 1.414 . S
C4979 C4982 1.499 . S
C4980 H4960 0.950 . S
C4980 C4979 1.414 . S
C4980 C4981 1.374 . S
C4981 H4961 0.950 . S
C4981 C4977 1.385 . S
C4981 C4980 1.374 . S
C4982 C4979 1.499 . S
C4982 C4983 1.373 . S
C4982 C4984 1.389 . S
C4983 H4962 0.950 . S
C4983 C4982 1.373 . S
C4983 C4999 1.377 . S
C4984 C4982 1.389 . S
C4984 C4985 1.524 . S
C4984 C4998 1.377 . S
C4985 C4984 1.524 . S
C4985 C4986 1.397 . S
C4985 C4990 1.363 . S
C4986 H4963 0.950 . S
C4986 C4985 1.397 . S
C4986 C4987 1.334 . S
C4987 H4964 0.950 . S
C4987 C4986 1.334 . S
C4987 C4988 1.287 . S
C4988 C4987 1.287 . S
C4988 C4989 1.524 . S
C4988 H5007 0.913 . S
C4989 H4965 0.950 . S
C4989 C4988 1.524 . S
C4989 C4990 1.415 . S
C4990 H4966 0.950 . S
C4990 C4985 1.363 . S
C4990 C4989 1.415 . S
C4991 H4967 0.951 . S
C4991 C4992 1.366 . S
C4991 C4993 1.388 . S
C4992 C4991 1.366 . S
C4992 C4996 1.385 . S
C4993 H4968 0.951 . S
C4993 C4991 1.388 . S
C4993 C4994 1.366 . S
C4994 C4993 1.366 . S
C4994 C4995 1.414 . S
C4994 C4997 1.499 . S
C4995 H4969 0.950 . S
C4995 C4994 1.414 . S
C4995 C4996 1.374 . S
C4996 H4970 0.950 . S
C4996 C4992 1.385 . S
C4996 C4995 1.374 . S
C4997 C4994 1.499 . S
C4997 C4998 1.373 . S
C4997 C4999 1.389 . S
C4998 H4971 0.950 . S
C4998 C4984 1.377 . S
C4998 C4997 1.373 . S
C4999 C4983 1.377 . S
C4999 C4997 1.389 . S
C4999 C5000 1.524 . S
C5000 C4999 1.524 . S
C5000 C5001 1.397 . S
C5000 C5005 1.363 . S
C5001 H4972 0.950 . S
C5001 C5000 1.397 . S
C5001 C5002 1.334 . S
C5002 H4973 0.950 . S
C5002 C5001 1.334 . S
C5002 C5003 1.287 . S
C5003 C5002 1.287 . S
C5003 C5004 1.524 . S
C5003 H5006 0.999 . S
C5004 H4974 0.950 . S
C5004 C5003 1.524 . S
C5004 C5005 1.415 . S
C5005 H4975 0.950 . S
C5005 C5000 1.363 . S
C5005 C5004 1.415 . S
H5006 C5003 0.999 . S
H5007 C4988 0.913 . S
H5008 C5026 0.951 . S
H5009 C5028 0.951 . S
H5010 C5030 0.950 . S
H5011 C5031 0.950 . S
H5012 C5033 0.950 . S
H5013 C5036 0.950 . S
H5014 C5037 0.950 . S
H5015 C5039 0.950 . S
H5016 C5040 0.950 . S
H5017 C5041 0.951 . S
H5018 C5043 0.951 . S
H5019 C5045 0.950 . S
H5020 C5046 0.950 . S
H5021 C5048 0.950 . S
H5022 C5051 0.950 . S
H5023 C5052 0.950 . S
H5024 C5054 0.950 . S
H5025 C5055 0.950 . S
C5026 H5008 0.951 . S
C5026 C5027 1.366 . S
C5026 C5028 1.388 . S
C5027 C5026 1.366 . S
C5027 C5031 1.385 . S
C5028 H5009 0.951 . S
C5028 C5026 1.388 . S
C5028 C5029 1.366 . S
C5029 C5028 1.366 . S
C5029 C5030 1.414 . S
C5029 C5032 1.499 . S
C5030 H5010 0.950 . S
C5030 C5029 1.414 . S
C5030 C5031 1.374 . S
C5031 H5011 0.950 . S
C5031 C5027 1.385 . S
C5031 C5030 1.374 . S
C5032 C5029 1.499 . S
C5032 C5033 1.373 . S
C5032 C5034 1.389 . S
C5033 H5012 0.950 . S
C5033 C5032 1.373 . S
C5033 C5049 1.377 . S
C5034 C5032 1.389 . S
C5034 C5035 1.524 . S
C5034 C5048 1.377 . S
C5035 C5034 1.524 . S
C5035 C5036 1.397 . S
C5035 C5040 1.363 . S
C5036 H5013 0.950 . S
C5036 C5035 1.397 . S
C5036 C5037 1.334 . S
C5037 H5014 0.950 . S
C5037 C5036 1.334 . S
C5037 C5038 1.287 . S
C5038 C5037 1.287 . S
C5038 C5039 1.524 . S
C5038 H5057 0.913 . S
C5039 H5015 0.950 . S
C5039 C5038 1.524 . S
C5039 C5040 1.415 . S
C5040 H5016 0.950 . S
C5040 C5035 1.363 . S
C5040 C5039 1.415 . S
C5041 H5017 0.951 . S
C5041 C5042 1.366 . S
C5041 C5043 1.388 . S
C5042 C5041 1.366 . S
C5042 C5046 1.385 . S
C5043 H5018 0.951 . S
C5043 C5041 1.388 . S
C5043 C5044 1.366 . S
C5044 C5043 1.366 . S
C5044 C5045 1.414 . S
C5044 C5047 1.499 . S
C5045 H5019 0.950 . S
C5045 C5044 1.414 . S
C5045 C5046 1.374 . S
C5046 H5020 0.950 . S
C5046 C5042 1.385 . S
C5046 C5045 1.374 . S
C5047 C5044 1.499 . S
C5047 C5048 1.373 . S
C5047 C5049 1.389 . S
C5048 H5021 0.950 . S
C5048 C5034 1.377 . S
C5048 C5047 1.373 . S
C5049 C5033 1.377 . S
C5049 C5047 1.389 . S
C5049 C5050 1.524 . S
C5050 C5049 1.524 . S
C5050 C5051 1.397 . S
C5050 C5055 1.363 . S
C5051 H5022 0.950 . S
C5051 C5050 1.397 . S
C5051 C5052 1.334 . S
C5052 H5023 0.950 . S
C5052 C5051 1.334 . S
C5052 C5053 1.287 . S
C5053 C5052 1.287 . S
C5053 C5054 1.524 . S
C5053 H5056 0.999 . S
C5054 H5024 0.950 . S
C5054 C5053 1.524 . S
C5054 C5055 1.415 . S
C5055 H5025 0.950 . S
C5055 C5050 1.363 . S
C5055 C5054 1.415 . S
H5056 C5053 0.999 . S
H5057 C5038 0.913 . S
H5058 C5076 0.955 . S
H5059 C5078 0.951 . S
H5060 C5080 0.950 . S
H5061 C5081 0.950 . S
H5062 C5083 0.950 . S
H5063 C5086 0.950 . S
H5064 C5087 0.950 . S
H5065 C5089 0.950 . S
H5066 C5090 0.950 . S
H5067 C5091 0.951 . S
H5068 C5093 0.951 . S
H5069 C5095 0.950 . S
H5070 C5096 0.950 . S
H5071 C5098 0.950 . S
H5072 C5101 0.950 . S
H5073 C5102 0.950 . S
H5074 C5104 0.950 . S
H5075 C5105 0.950 . S
C5076 H5058 0.955 . S
C5076 C5077 1.366 1_554 S
C5076 C5078 1.384 1_554 S
C5077 C5076 1.366 1_556 S
C5077 C5081 1.385 . S
C5078 H5059 0.951 . S
C5078 C5076 1.384 1_556 S
C5078 C5079 1.366 . S
C5079 C5078 1.366 . S
C5079 C5080 1.414 . S
C5079 C5082 1.499 . S
C5080 H5060 0.950 . S
C5080 C5079 1.414 . S
C5080 C5081 1.374 . S
C5081 H5061 0.950 . S
C5081 C5077 1.385 . S
C5081 C5080 1.374 . S
C5082 C5079 1.499 . S
C5082 C5083 1.373 . S
C5082 C5084 1.389 . S
C5083 H5062 0.950 . S
C5083 C5082 1.373 . S
C5083 C5099 1.377 . S
C5084 C5082 1.389 . S
C5084 C5085 1.524 . S
C5084 C5098 1.377 . S
C5085 C5084 1.524 . S
C5085 C5086 1.397 . S
C5085 C5090 1.363 . S
C5086 H5063 0.950 . S
C5086 C5085 1.397 . S
C5086 C5087 1.334 . S
C5087 H5064 0.950 . S
C5087 C5086 1.334 . S
C5087 C5088 1.287 . S
C5088 C5087 1.287 . S
C5088 C5089 1.524 . S
C5088 H5107 0.913 . S
C5089 H5065 0.950 . S
C5089 C5088 1.524 . S
C5089 C5090 1.415 . S
C5090 H5066 0.950 . S
C5090 C5085 1.363 . S
C5090 C5089 1.415 . S
C5091 H5067 0.951 . S
C5091 C5092 1.366 . S
C5091 C5093 1.388 . S
C5092 C5091 1.366 . S
C5092 C5096 1.385 . S
C5093 H5068 0.951 . S
C5093 C5091 1.388 . S
C5093 C5094 1.366 . S
C5094 C5093 1.366 . S
C5094 C5095 1.414 . S
C5094 C5097 1.499 . S
C5095 H5069 0.950 . S
C5095 C5094 1.414 . S
C5095 C5096 1.374 . S
C5096 H5070 0.950 . S
C5096 C5092 1.385 . S
C5096 C5095 1.374 . S
C5097 C5094 1.499 . S
C5097 C5098 1.373 . S
C5097 C5099 1.389 . S
C5098 H5071 0.950 . S
C5098 C5084 1.377 . S
C5098 C5097 1.373 . S
C5099 C5083 1.377 . S
C5099 C5097 1.389 . S
C5099 C5100 1.524 . S
C5100 C5099 1.524 . S
C5100 C5101 1.397 . S
C5100 C5105 1.363 . S
C5101 H5072 0.950 . S
C5101 C5100 1.397 . S
C5101 C5102 1.334 . S
C5102 H5073 0.950 . S
C5102 C5101 1.334 . S
C5102 C5103 1.287 . S
C5103 C5102 1.287 . S
C5103 C5104 1.524 . S
C5103 H5106 0.999 . S
C5104 H5074 0.950 . S
C5104 C5103 1.524 . S
C5104 C5105 1.415 . S
C5105 H5075 0.950 . S
C5105 C5100 1.363 . S
C5105 C5104 1.415 . S
H5106 C5103 0.999 . S
H5107 C5088 0.913 . S
H5108 C5126 0.951 . S
H5109 C5128 0.951 . S
H5110 C5130 0.950 . S
H5111 C5131 0.950 . S
H5112 C5133 0.950 . S
H5113 C5136 0.950 . S
H5114 C5137 0.950 . S
H5115 C5139 0.950 . S
H5116 C5140 0.950 . S
H5117 C5141 0.951 . S
H5118 C5143 0.951 . S
H5119 C5145 0.950 . S
H5120 C5146 0.950 . S
H5121 C5148 0.950 . S
H5122 C5151 0.950 . S
H5123 C5152 0.950 . S
H5124 C5154 0.950 . S
H5125 C5155 0.950 . S
C5126 H5108 0.951 . S
C5126 C5127 1.366 . S
C5126 C5128 1.388 . S
C5127 C5126 1.366 . S
C5127 C5131 1.385 . S
C5128 H5109 0.951 . S
C5128 C5126 1.388 . S
C5128 C5129 1.366 . S
C5129 C5128 1.366 . S
C5129 C5130 1.414 . S
C5129 C5132 1.499 . S
C5130 H5110 0.950 . S
C5130 C5129 1.414 . S
C5130 C5131 1.374 . S
C5131 H5111 0.950 . S
C5131 C5127 1.385 . S
C5131 C5130 1.374 . S
C5132 C5129 1.499 . S
C5132 C5133 1.373 . S
C5132 C5134 1.389 . S
C5133 H5112 0.950 . S
C5133 C5132 1.373 . S
C5133 C5149 1.377 . S
C5134 C5132 1.389 . S
C5134 C5135 1.524 . S
C5134 C5148 1.377 . S
C5135 C5134 1.524 . S
C5135 C5136 1.397 . S
C5135 C5140 1.363 . S
C5136 H5113 0.950 . S
C5136 C5135 1.397 . S
C5136 C5137 1.334 . S
C5137 H5114 0.950 . S
C5137 C5136 1.334 . S
C5137 C5138 1.287 . S
C5138 C5137 1.287 . S
C5138 C5139 1.524 . S
C5138 H5157 0.913 . S
C5139 H5115 0.950 . S
C5139 C5138 1.524 . S
C5139 C5140 1.415 . S
C5140 H5116 0.950 . S
C5140 C5135 1.363 . S
C5140 C5139 1.415 . S
C5141 H5117 0.951 . S
C5141 C5142 1.366 . S
C5141 C5143 1.388 . S
C5142 C5141 1.366 . S
C5142 C5146 1.385 . S
C5143 H5118 0.951 . S
C5143 C5141 1.388 . S
C5143 C5144 1.366 . S
C5144 C5143 1.366 . S
C5144 C5145 1.414 . S
C5144 C5147 1.499 . S
C5145 H5119 0.950 . S
C5145 C5144 1.414 . S
C5145 C5146 1.374 . S
C5146 H5120 0.950 . S
C5146 C5142 1.385 . S
C5146 C5145 1.374 . S
C5147 C5144 1.499 . S
C5147 C5148 1.373 . S
C5147 C5149 1.389 . S
C5148 H5121 0.950 . S
C5148 C5134 1.377 . S
C5148 C5147 1.373 . S
C5149 C5133 1.377 . S
C5149 C5147 1.389 . S
C5149 C5150 1.524 . S
C5150 C5149 1.524 . S
C5150 C5151 1.397 . S
C5150 C5155 1.363 . S
C5151 H5122 0.950 . S
C5151 C5150 1.397 . S
C5151 C5152 1.334 . S
C5152 H5123 0.950 . S
C5152 C5151 1.334 . S
C5152 C5153 1.287 . S
C5153 C5152 1.287 . S
C5153 C5154 1.524 . S
C5153 H5156 0.999 . S
C5154 H5124 0.950 . S
C5154 C5153 1.524 . S
C5154 C5155 1.415 . S
C5155 H5125 0.950 . S
C5155 C5150 1.363 . S
C5155 C5154 1.415 . S
H5156 C5153 0.999 . S
H5157 C5138 0.913 . S
H5158 C5176 0.951 . S
H5159 C5178 0.951 . S
H5160 C5180 0.950 . S
H5161 C5181 0.950 . S
H5162 C5183 0.950 . S
H5163 C5186 0.950 . S
H5164 C5187 0.950 . S
H5165 C5189 0.950 . S
H5166 C5190 0.950 . S
H5167 C5191 0.951 . S
H5168 C5193 0.951 . S
H5169 C5195 0.950 . S
H5170 C5196 0.950 . S
H5171 C5198 0.950 . S
H5172 C5201 0.950 . S
H5173 C5202 0.950 . S
H5174 C5204 0.950 . S
H5175 C5205 0.950 . S
C5176 H5158 0.951 . S
C5176 C5177 1.366 . S
C5176 C5178 1.388 . S
C5177 C5176 1.366 . S
C5177 C5181 1.385 . S
C5178 H5159 0.951 . S
C5178 C5176 1.388 . S
C5178 C5179 1.366 . S
C5179 C5178 1.366 . S
C5179 C5180 1.414 . S
C5179 C5182 1.499 . S
C5180 H5160 0.950 . S
C5180 C5179 1.414 . S
C5180 C5181 1.374 . S
C5181 H5161 0.950 . S
C5181 C5177 1.385 . S
C5181 C5180 1.374 . S
C5182 C5179 1.499 . S
C5182 C5183 1.373 . S
C5182 C5184 1.389 . S
C5183 H5162 0.950 . S
C5183 C5182 1.373 . S
C5183 C5199 1.377 . S
C5184 C5182 1.389 . S
C5184 C5185 1.524 . S
C5184 C5198 1.377 . S
C5185 C5184 1.524 . S
C5185 C5186 1.397 . S
C5185 C5190 1.363 . S
C5186 H5163 0.950 . S
C5186 C5185 1.397 . S
C5186 C5187 1.334 . S
C5187 H5164 0.950 . S
C5187 C5186 1.334 . S
C5187 C5188 1.287 . S
C5188 C5187 1.287 . S
C5188 C5189 1.524 . S
C5188 H5207 0.913 . S
C5189 H5165 0.950 . S
C5189 C5188 1.524 . S
C5189 C5190 1.415 . S
C5190 H5166 0.950 . S
C5190 C5185 1.363 . S
C5190 C5189 1.415 . S
C5191 H5167 0.951 . S
C5191 C5192 1.366 . S
C5191 C5193 1.388 . S
C5192 C5191 1.366 . S
C5192 C5196 1.385 . S
C5193 H5168 0.951 . S
C5193 C5191 1.388 . S
C5193 C5194 1.366 . S
C5194 C5193 1.366 . S
C5194 C5195 1.414 . S
C5194 C5197 1.499 . S
C5195 H5169 0.950 . S
C5195 C5194 1.414 . S
C5195 C5196 1.374 . S
C5196 H5170 0.950 . S
C5196 C5192 1.385 . S
C5196 C5195 1.374 . S
C5197 C5194 1.499 . S
C5197 C5198 1.373 . S
C5197 C5199 1.389 . S
C5198 H5171 0.950 . S
C5198 C5184 1.377 . S
C5198 C5197 1.373 . S
C5199 C5183 1.377 . S
C5199 C5197 1.389 . S
C5199 C5200 1.524 . S
C5200 C5199 1.524 . S
C5200 C5201 1.397 . S
C5200 C5205 1.363 . S
C5201 H5172 0.950 . S
C5201 C5200 1.397 . S
C5201 C5202 1.334 . S
C5202 H5173 0.950 . S
C5202 C5201 1.334 . S
C5202 C5203 1.287 . S
C5203 C5202 1.287 . S
C5203 C5204 1.524 . S
C5203 H5206 0.999 . S
C5204 H5174 0.950 . S
C5204 C5203 1.524 . S
C5204 C5205 1.415 . S
C5205 H5175 0.950 . S
C5205 C5200 1.363 . S
C5205 C5204 1.415 . S
H5206 C5203 0.999 . S
H5207 C5188 0.913 . S
H5208 C5226 0.951 . S
H5209 C5228 0.951 . S
H5210 C5230 0.950 . S
H5211 C5231 0.950 . S
H5212 C5233 0.950 . S
H5213 C5236 0.950 . S
H5214 C5237 0.950 . S
H5215 C5239 0.950 . S
H5216 C5240 0.950 . S
H5217 C5241 0.951 . S
H5218 C5243 0.951 . S
H5219 C5245 0.950 . S
H5220 C5246 0.950 . S
H5221 C5248 0.950 . S
H5222 C5251 0.950 . S
H5223 C5252 0.950 . S
H5224 C5254 0.950 . S
H5225 C5255 0.950 . S
C5226 H5208 0.951 . S
C5226 C5227 1.366 . S
C5226 C5228 1.388 . S
C5227 C5226 1.366 . S
C5227 C5231 1.385 . S
C5228 H5209 0.951 . S
C5228 C5226 1.388 . S
C5228 C5229 1.366 . S
C5229 C5228 1.366 . S
C5229 C5230 1.414 . S
C5229 C5232 1.499 . S
C5230 H5210 0.950 . S
C5230 C5229 1.414 . S
C5230 C5231 1.374 . S
C5231 H5211 0.950 . S
C5231 C5227 1.385 . S
C5231 C5230 1.374 . S
C5232 C5229 1.499 . S
C5232 C5233 1.373 . S
C5232 C5234 1.389 . S
C5233 H5212 0.950 . S
C5233 C5232 1.373 . S
C5233 C5249 1.377 . S
C5234 C5232 1.389 . S
C5234 C5235 1.524 . S
C5234 C5248 1.377 . S
C5235 C5234 1.524 . S
C5235 C5236 1.397 . S
C5235 C5240 1.363 . S
C5236 H5213 0.950 . S
C5236 C5235 1.397 . S
C5236 C5237 1.334 . S
C5237 H5214 0.950 . S
C5237 C5236 1.334 . S
C5237 C5238 1.287 . S
C5238 C5237 1.287 . S
C5238 C5239 1.524 . S
C5238 H5257 0.913 . S
C5239 H5215 0.950 . S
C5239 C5238 1.524 . S
C5239 C5240 1.415 . S
C5240 H5216 0.950 . S
C5240 C5235 1.363 . S
C5240 C5239 1.415 . S
C5241 H5217 0.951 . S
C5241 C5242 1.366 . S
C5241 C5243 1.388 . S
C5242 C5241 1.366 . S
C5242 C5246 1.385 . S
C5243 H5218 0.951 . S
C5243 C5241 1.388 . S
C5243 C5244 1.366 . S
C5244 C5243 1.366 . S
C5244 C5245 1.414 . S
C5244 C5247 1.499 . S
C5245 H5219 0.950 . S
C5245 C5244 1.414 . S
C5245 C5246 1.374 . S
C5246 H5220 0.950 . S
C5246 C5242 1.385 . S
C5246 C5245 1.374 . S
C5247 C5244 1.499 . S
C5247 C5248 1.373 . S
C5247 C5249 1.389 . S
C5248 H5221 0.950 . S
C5248 C5234 1.377 . S
C5248 C5247 1.373 . S
C5249 C5233 1.377 . S
C5249 C5247 1.389 . S
C5249 C5250 1.524 . S
C5250 C5249 1.524 . S
C5250 C5251 1.397 . S
C5250 C5255 1.363 . S
C5251 H5222 0.950 . S
C5251 C5250 1.397 . S
C5251 C5252 1.334 . S
C5252 H5223 0.950 . S
C5252 C5251 1.334 . S
C5252 C5253 1.287 . S
C5253 C5252 1.287 . S
C5253 C5254 1.524 . S
C5253 H5256 0.999 . S
C5254 H5224 0.950 . S
C5254 C5253 1.524 . S
C5254 C5255 1.415 . S
C5255 H5225 0.950 . S
C5255 C5250 1.363 . S
C5255 C5254 1.415 . S
H5256 C5253 0.999 . S
H5257 C5238 0.913 . S
H5258 C5276 0.951 . S
H5259 C5278 0.951 . S
H5260 C5280 0.950 . S
H5261 C5281 0.950 . S
H5262 C5283 0.950 . S
H5263 C5286 0.950 . S
H5264 C5287 0.950 . S
H5265 C5289 0.950 . S
H5266 C5290 0.950 . S
H5267 C5291 0.951 . S
H5268 C5293 0.951 . S
H5269 C5295 0.950 . S
H5270 C5296 0.950 . S
H5271 C5298 0.950 . S
H5272 C5301 0.950 . S
H5273 C5302 0.950 . S
H5274 C5304 0.950 . S
H5275 C5305 0.950 . S
C5276 H5258 0.951 . S
C5276 C5277 1.366 . S
C5276 C5278 1.388 . S
C5277 C5276 1.366 . S
C5277 C5281 1.385 . S
C5278 H5259 0.951 . S
C5278 C5276 1.388 . S
C5278 C5279 1.366 . S
C5279 C5278 1.366 . S
C5279 C5280 1.414 . S
C5279 C5282 1.499 . S
C5280 H5260 0.950 . S
C5280 C5279 1.414 . S
C5280 C5281 1.374 . S
C5281 H5261 0.950 . S
C5281 C5277 1.385 . S
C5281 C5280 1.374 . S
C5282 C5279 1.499 . S
C5282 C5283 1.373 . S
C5282 C5284 1.389 . S
C5283 H5262 0.950 . S
C5283 C5282 1.373 . S
C5283 C5299 1.377 . S
C5284 C5282 1.389 . S
C5284 C5285 1.524 . S
C5284 C5298 1.377 . S
C5285 C5284 1.524 . S
C5285 C5286 1.397 . S
C5285 C5290 1.363 . S
C5286 H5263 0.950 . S
C5286 C5285 1.397 . S
C5286 C5287 1.334 . S
C5287 H5264 0.950 . S
C5287 C5286 1.334 . S
C5287 C5288 1.287 . S
C5288 C5287 1.287 . S
C5288 C5289 1.524 . S
C5288 H5307 0.913 . S
C5289 H5265 0.950 . S
C5289 C5288 1.524 . S
C5289 C5290 1.415 . S
C5290 H5266 0.950 . S
C5290 C5285 1.363 . S
C5290 C5289 1.415 . S
C5291 H5267 0.951 . S
C5291 C5292 1.366 . S
C5291 C5293 1.388 . S
C5292 C5291 1.366 . S
C5292 C5296 1.385 . S
C5293 H5268 0.951 . S
C5293 C5291 1.388 . S
C5293 C5294 1.366 . S
C5294 C5293 1.366 . S
C5294 C5295 1.414 . S
C5294 C5297 1.499 . S
C5295 H5269 0.950 . S
C5295 C5294 1.414 . S
C5295 C5296 1.374 . S
C5296 H5270 0.950 . S
C5296 C5292 1.385 . S
C5296 C5295 1.374 . S
C5297 C5294 1.499 . S
C5297 C5298 1.373 . S
C5297 C5299 1.389 . S
C5298 H5271 0.950 . S
C5298 C5284 1.377 . S
C5298 C5297 1.373 . S
C5299 C5283 1.377 . S
C5299 C5297 1.389 . S
C5299 C5300 1.524 . S
C5300 C5299 1.524 . S
C5300 C5301 1.397 . S
C5300 C5305 1.363 . S
C5301 H5272 0.950 . S
C5301 C5300 1.397 . S
C5301 C5302 1.334 . S
C5302 H5273 0.950 . S
C5302 C5301 1.334 . S
C5302 C5303 1.287 . S
C5303 C5302 1.287 . S
C5303 C5304 1.524 . S
C5303 H5306 0.999 . S
C5304 H5274 0.950 . S
C5304 C5303 1.524 . S
C5304 C5305 1.415 . S
C5305 H5275 0.950 . S
C5305 C5300 1.363 . S
C5305 C5304 1.415 . S
H5306 C5303 0.999 . S
H5307 C5288 0.913 . S
H5308 C5326 0.951 . S
H5309 C5328 0.951 . S
H5310 C5330 0.950 . S
H5311 C5331 0.950 . S
H5312 C5333 0.950 . S
H5313 C5336 0.950 . S
H5314 C5337 0.950 . S
H5315 C5339 0.950 . S
H5316 C5340 0.950 . S
H5317 C5341 0.951 . S
H5318 C5343 0.951 . S
H5319 C5345 0.950 . S
H5320 C5346 0.950 . S
H5321 C5348 0.950 . S
H5322 C5351 0.950 . S
H5323 C5352 0.950 . S
H5324 C5354 0.950 . S
H5325 C5355 0.950 . S
C5326 H5308 0.951 . S
C5326 C5327 1.366 . S
C5326 C5328 1.388 . S
C5327 C5326 1.366 . S
C5327 C5331 1.385 . S
C5328 H5309 0.951 . S
C5328 C5326 1.388 . S
C5328 C5329 1.366 . S
C5329 C5328 1.366 . S
C5329 C5330 1.414 . S
C5329 C5332 1.499 . S
C5330 H5310 0.950 . S
C5330 C5329 1.414 . S
C5330 C5331 1.374 . S
C5331 H5311 0.950 . S
C5331 C5327 1.385 . S
C5331 C5330 1.374 . S
C5332 C5329 1.499 . S
C5332 C5333 1.373 . S
C5332 C5334 1.389 . S
C5333 H5312 0.950 . S
C5333 C5332 1.373 . S
C5333 C5349 1.377 . S
C5334 C5332 1.389 . S
C5334 C5335 1.524 . S
C5334 C5348 1.377 . S
C5335 C5334 1.524 . S
C5335 C5336 1.397 . S
C5335 C5340 1.363 . S
C5336 H5313 0.950 . S
C5336 C5335 1.397 . S
C5336 C5337 1.334 . S
C5337 H5314 0.950 . S
C5337 C5336 1.334 . S
C5337 C5338 1.287 . S
C5338 C5337 1.287 . S
C5338 C5339 1.524 . S
C5338 H5357 0.913 . S
C5339 H5315 0.950 . S
C5339 C5338 1.524 . S
C5339 C5340 1.415 . S
C5340 H5316 0.950 . S
C5340 C5335 1.363 . S
C5340 C5339 1.415 . S
C5341 H5317 0.951 . S
C5341 C5342 1.366 . S
C5341 C5343 1.388 . S
C5342 C5341 1.366 . S
C5342 C5346 1.385 . S
C5343 H5318 0.951 . S
C5343 C5341 1.388 . S
C5343 C5344 1.366 . S
C5344 C5343 1.366 . S
C5344 C5345 1.414 . S
C5344 C5347 1.499 . S
C5345 H5319 0.950 . S
C5345 C5344 1.414 . S
C5345 C5346 1.374 . S
C5346 H5320 0.950 . S
C5346 C5342 1.385 . S
C5346 C5345 1.374 . S
C5347 C5344 1.499 . S
C5347 C5348 1.373 . S
C5347 C5349 1.389 . S
C5348 H5321 0.950 . S
C5348 C5334 1.377 . S
C5348 C5347 1.373 . S
C5349 C5333 1.377 . S
C5349 C5347 1.389 . S
C5349 C5350 1.524 . S
C5350 C5349 1.524 . S
C5350 C5351 1.397 . S
C5350 C5355 1.363 . S
C5351 H5322 0.950 . S
C5351 C5350 1.397 . S
C5351 C5352 1.334 . S
C5352 H5323 0.950 . S
C5352 C5351 1.334 . S
C5352 C5353 1.287 . S
C5353 C5352 1.287 . S
C5353 C5354 1.524 . S
C5353 H5356 0.999 . S
C5354 H5324 0.950 . S
C5354 C5353 1.524 . S
C5354 C5355 1.415 . S
C5355 H5325 0.950 . S
C5355 C5350 1.363 . S
C5355 C5354 1.415 . S
H5356 C5353 0.999 . S
H5357 C5338 0.913 . S
H5358 C5376 0.951 . S
H5359 C5378 0.951 . S
H5360 C5380 0.950 . S
H5361 C5381 0.950 . S
H5362 C5383 0.950 . S
H5363 C5386 0.950 . S
H5364 C5387 0.950 . S
H5365 C5389 0.950 . S
H5366 C5390 0.950 . S
H5367 C5391 0.951 . S
H5368 C5393 0.951 . S
H5369 C5395 0.950 . S
H5370 C5396 0.950 . S
H5371 C5398 0.950 . S
H5372 C5401 0.950 . S
H5373 C5402 0.950 . S
H5374 C5404 0.950 . S
H5375 C5405 0.950 . S
C5376 H5358 0.951 . S
C5376 C5377 1.366 . S
C5376 C5378 1.388 . S
C5377 C5376 1.366 . S
C5377 C5381 1.385 . S
C5378 H5359 0.951 . S
C5378 C5376 1.388 . S
C5378 C5379 1.366 . S
C5379 C5378 1.366 . S
C5379 C5380 1.414 . S
C5379 C5382 1.499 . S
C5380 H5360 0.950 . S
C5380 C5379 1.414 . S
C5380 C5381 1.374 . S
C5381 H5361 0.950 . S
C5381 C5377 1.385 . S
C5381 C5380 1.374 . S
C5382 C5379 1.499 . S
C5382 C5383 1.373 . S
C5382 C5384 1.389 . S
C5383 H5362 0.950 . S
C5383 C5382 1.373 . S
C5383 C5399 1.377 . S
C5384 C5382 1.389 . S
C5384 C5385 1.524 . S
C5384 C5398 1.377 . S
C5385 C5384 1.524 . S
C5385 C5386 1.397 . S
C5385 C5390 1.363 . S
C5386 H5363 0.950 . S
C5386 C5385 1.397 . S
C5386 C5387 1.334 . S
C5387 H5364 0.950 . S
C5387 C5386 1.334 . S
C5387 C5388 1.287 . S
C5388 C5387 1.287 . S
C5388 C5389 1.524 . S
C5388 H5407 0.913 . S
C5389 H5365 0.950 . S
C5389 C5388 1.524 . S
C5389 C5390 1.415 . S
C5390 H5366 0.950 . S
C5390 C5385 1.363 . S
C5390 C5389 1.415 . S
C5391 H5367 0.951 . S
C5391 C5392 1.366 . S
C5391 C5393 1.388 . S
C5392 C5391 1.366 . S
C5392 C5396 1.385 . S
C5393 H5368 0.951 . S
C5393 C5391 1.388 . S
C5393 C5394 1.366 . S
C5394 C5393 1.366 . S
C5394 C5395 1.414 . S
C5394 C5397 1.499 . S
C5395 H5369 0.950 . S
C5395 C5394 1.414 . S
C5395 C5396 1.374 . S
C5396 H5370 0.950 . S
C5396 C5392 1.385 . S
C5396 C5395 1.374 . S
C5397 C5394 1.499 . S
C5397 C5398 1.373 . S
C5397 C5399 1.389 . S
C5398 H5371 0.950 . S
C5398 C5384 1.377 . S
C5398 C5397 1.373 . S
C5399 C5383 1.377 . S
C5399 C5397 1.389 . S
C5399 C5400 1.524 . S
C5400 C5399 1.524 . S
C5400 C5401 1.397 . S
C5400 C5405 1.363 . S
C5401 H5372 0.950 . S
C5401 C5400 1.397 . S
C5401 C5402 1.334 . S
C5402 H5373 0.950 . S
C5402 C5401 1.334 . S
C5402 C5403 1.287 . S
C5403 C5402 1.287 . S
C5403 C5404 1.524 . S
C5403 H5406 0.999 . S
C5404 H5374 0.950 . S
C5404 C5403 1.524 . S
C5404 C5405 1.415 . S
C5405 H5375 0.950 . S
C5405 C5400 1.363 . S
C5405 C5404 1.415 . S
H5406 C5403 0.999 . S
H5407 C5388 0.913 . S
H5408 C5426 0.951 . S
H5409 C5428 0.951 . S
H5410 C5430 0.950 . S
H5411 C5431 0.950 . S
H5412 C5433 0.950 . S
H5413 C5436 0.950 . S
H5414 C5437 0.950 . S
H5415 C5439 0.950 . S
H5416 C5440 0.950 . S
H5417 C5441 0.951 . S
H5418 C5443 0.951 . S
H5419 C5445 0.950 . S
H5420 C5446 0.950 . S
H5421 C5448 0.950 . S
H5422 C5451 0.950 . S
H5423 C5452 0.950 . S
H5424 C5454 0.950 . S
H5425 C5455 0.950 . S
C5426 H5408 0.951 . S
C5426 C5427 1.366 . S
C5426 C5428 1.388 . S
C5427 C5426 1.366 . S
C5427 C5431 1.385 . S
C5428 H5409 0.951 . S
C5428 C5426 1.388 . S
C5428 C5429 1.366 . S
C5429 C5428 1.366 . S
C5429 C5430 1.414 . S
C5429 C5432 1.499 . S
C5430 H5410 0.950 . S
C5430 C5429 1.414 . S
C5430 C5431 1.374 . S
C5431 H5411 0.950 . S
C5431 C5427 1.385 . S
C5431 C5430 1.374 . S
C5432 C5429 1.499 . S
C5432 C5433 1.373 . S
C5432 C5434 1.389 . S
C5433 H5412 0.950 . S
C5433 C5432 1.373 . S
C5433 C5449 1.377 . S
C5434 C5432 1.389 . S
C5434 C5435 1.524 . S
C5434 C5448 1.377 . S
C5435 C5434 1.524 . S
C5435 C5436 1.397 . S
C5435 C5440 1.363 . S
C5436 H5413 0.950 . S
C5436 C5435 1.397 . S
C5436 C5437 1.334 . S
C5437 H5414 0.950 . S
C5437 C5436 1.334 . S
C5437 C5438 1.287 . S
C5438 C5437 1.287 . S
C5438 C5439 1.524 . S
C5438 H5457 0.913 . S
C5439 H5415 0.950 . S
C5439 C5438 1.524 . S
C5439 C5440 1.415 . S
C5440 H5416 0.950 . S
C5440 C5435 1.363 . S
C5440 C5439 1.415 . S
C5441 H5417 0.951 . S
C5441 C5442 1.366 . S
C5441 C5443 1.388 . S
C5442 C5441 1.366 . S
C5442 C5446 1.385 . S
C5443 H5418 0.951 . S
C5443 C5441 1.388 . S
C5443 C5444 1.366 . S
C5444 C5443 1.366 . S
C5444 C5445 1.414 . S
C5444 C5447 1.499 . S
C5445 H5419 0.950 . S
C5445 C5444 1.414 . S
C5445 C5446 1.374 . S
C5446 H5420 0.950 . S
C5446 C5442 1.385 . S
C5446 C5445 1.374 . S
C5447 C5444 1.499 . S
C5447 C5448 1.373 . S
C5447 C5449 1.389 . S
C5448 H5421 0.950 . S
C5448 C5434 1.377 . S
C5448 C5447 1.373 . S
C5449 C5433 1.377 . S
C5449 C5447 1.389 . S
C5449 C5450 1.524 . S
C5450 C5449 1.524 . S
C5450 C5451 1.397 . S
C5450 C5455 1.363 . S
C5451 H5422 0.950 . S
C5451 C5450 1.397 . S
C5451 C5452 1.334 . S
C5452 H5423 0.950 . S
C5452 C5451 1.334 . S
C5452 C5453 1.287 . S
C5453 C5452 1.287 . S
C5453 C5454 1.524 . S
C5453 H5456 0.999 . S
C5454 H5424 0.950 . S
C5454 C5453 1.524 . S
C5454 C5455 1.415 . S
C5455 H5425 0.950 . S
C5455 C5450 1.363 . S
C5455 C5454 1.415 . S
H5456 C5453 0.999 . S
H5457 C5438 0.913 . S
H5458 C5476 0.951 . S
H5459 C5478 0.951 . S
H5460 C5480 0.950 . S
H5461 C5481 0.950 . S
H5462 C5483 0.950 . S
H5463 C5486 0.950 . S
H5464 C5487 0.950 . S
H5465 C5489 0.950 . S
H5466 C5490 0.950 . S
H5467 C5491 0.951 . S
H5468 C5493 0.951 . S
H5469 C5495 0.950 . S
H5470 C5496 0.950 . S
H5471 C5498 0.950 . S
H5472 C5501 0.950 . S
H5473 C5502 0.950 . S
H5474 C5504 0.950 . S
H5475 C5505 0.950 . S
C5476 H5458 0.951 . S
C5476 C5477 1.366 . S
C5476 C5478 1.388 . S
C5477 C5476 1.366 . S
C5477 C5481 1.385 . S
C5478 H5459 0.951 . S
C5478 C5476 1.388 . S
C5478 C5479 1.366 . S
C5479 C5478 1.366 . S
C5479 C5480 1.414 . S
C5479 C5482 1.499 . S
C5480 H5460 0.950 . S
C5480 C5479 1.414 . S
C5480 C5481 1.374 . S
C5481 H5461 0.950 . S
C5481 C5477 1.385 . S
C5481 C5480 1.374 . S
C5482 C5479 1.499 . S
C5482 C5483 1.373 . S
C5482 C5484 1.389 . S
C5483 H5462 0.950 . S
C5483 C5482 1.373 . S
C5483 C5499 1.377 . S
C5484 C5482 1.389 . S
C5484 C5485 1.524 . S
C5484 C5498 1.377 . S
C5485 C5484 1.524 . S
C5485 C5486 1.397 . S
C5485 C5490 1.363 . S
C5486 H5463 0.950 . S
C5486 C5485 1.397 . S
C5486 C5487 1.334 . S
C5487 H5464 0.950 . S
C5487 C5486 1.334 . S
C5487 C5488 1.287 . S
C5488 C5487 1.287 . S
C5488 C5489 1.524 . S
C5488 H5507 0.913 . S
C5489 H5465 0.950 . S
C5489 C5488 1.524 . S
C5489 C5490 1.415 . S
C5490 H5466 0.950 . S
C5490 C5485 1.363 . S
C5490 C5489 1.415 . S
C5491 H5467 0.951 . S
C5491 C5492 1.366 . S
C5491 C5493 1.388 . S
C5492 C5491 1.366 . S
C5492 C5496 1.385 . S
C5493 H5468 0.951 . S
C5493 C5491 1.388 . S
C5493 C5494 1.366 . S
C5494 C5493 1.366 . S
C5494 C5495 1.414 . S
C5494 C5497 1.499 . S
C5495 H5469 0.950 . S
C5495 C5494 1.414 . S
C5495 C5496 1.374 . S
C5496 H5470 0.950 . S
C5496 C5492 1.385 . S
C5496 C5495 1.374 . S
C5497 C5494 1.499 . S
C5497 C5498 1.373 . S
C5497 C5499 1.389 . S
C5498 H5471 0.950 . S
C5498 C5484 1.377 . S
C5498 C5497 1.373 . S
C5499 C5483 1.377 . S
C5499 C5497 1.389 . S
C5499 C5500 1.524 . S
C5500 C5499 1.524 . S
C5500 C5501 1.397 . S
C5500 C5505 1.363 . S
C5501 H5472 0.950 . S
C5501 C5500 1.397 . S
C5501 C5502 1.334 . S
C5502 H5473 0.950 . S
C5502 C5501 1.334 . S
C5502 C5503 1.287 . S
C5503 C5502 1.287 . S
C5503 C5504 1.524 . S
C5503 H5506 0.999 . S
C5504 H5474 0.950 . S
C5504 C5503 1.524 . S
C5504 C5505 1.415 . S
C5505 H5475 0.950 . S
C5505 C5500 1.363 . S
C5505 C5504 1.415 . S
H5506 C5503 0.999 . S
H5507 C5488 0.913 . S
H5508 C5526 0.951 . S
H5509 C5528 0.951 . S
H5510 C5530 0.950 . S
H5511 C5531 0.950 . S
H5512 C5533 0.950 . S
H5513 C5536 0.950 . S
H5514 C5537 0.950 1_545 S
H5515 C5539 0.950 . S
H5516 C5540 0.950 . S
H5517 C5541 0.951 . S
H5518 C5543 0.951 . S
H5519 C5545 0.950 . S
H5520 C5546 0.950 . S
H5521 C5548 0.950 . S
H5522 C5551 0.950 . S
H5523 C5552 0.950 . S
H5524 C5554 0.950 . S
H5525 C5555 0.950 . S
C5526 H5508 0.951 . S
C5526 C5527 1.366 . S
C5526 C5528 1.388 . S
C5527 C5526 1.366 . S
C5527 C5531 1.385 . S
C5528 H5509 0.951 . S
C5528 C5526 1.388 . S
C5528 C5529 1.366 . S
C5529 C5528 1.366 . S
C5529 C5530 1.414 . S
C5529 C5532 1.499 . S
C5530 H5510 0.950 . S
C5530 C5529 1.414 . S
C5530 C5531 1.374 . S
C5531 H5511 0.950 . S
C5531 C5527 1.385 . S
C5531 C5530 1.374 . S
C5532 C5529 1.499 . S
C5532 C5533 1.373 . S
C5532 C5534 1.389 . S
C5533 H5512 0.950 . S
C5533 C5532 1.373 . S
C5533 C5549 1.377 . S
C5534 C5532 1.389 . S
C5534 C5535 1.524 . S
C5534 C5548 1.377 . S
C5535 C5534 1.524 . S
C5535 C5536 1.397 . S
C5535 C5540 1.363 . S
C5536 H5513 0.950 . S
C5536 C5535 1.397 . S
C5536 C5537 1.334 . S
C5537 H5514 0.950 1_565 S
C5537 C5536 1.334 . S
C5537 C5538 1.287 . S
C5538 C5537 1.287 . S
C5538 C5539 1.524 . S
C5538 H5557 0.913 1_565 S
C5539 H5515 0.950 . S
C5539 C5538 1.524 . S
C5539 C5540 1.415 . S
C5540 H5516 0.950 . S
C5540 C5535 1.363 . S
C5540 C5539 1.415 . S
C5541 H5517 0.951 . S
C5541 C5542 1.366 . S
C5541 C5543 1.388 . S
C5542 C5541 1.366 . S
C5542 C5546 1.385 . S
C5543 H5518 0.951 . S
C5543 C5541 1.388 . S
C5543 C5544 1.366 . S
C5544 C5543 1.366 . S
C5544 C5545 1.414 . S
C5544 C5547 1.499 . S
C5545 H5519 0.950 . S
C5545 C5544 1.414 . S
C5545 C5546 1.374 . S
C5546 H5520 0.950 . S
C5546 C5542 1.385 . S
C5546 C5545 1.374 . S
C5547 C5544 1.499 . S
C5547 C5548 1.373 . S
C5547 C5549 1.389 . S
C5548 H5521 0.950 . S
C5548 C5534 1.377 . S
C5548 C5547 1.373 . S
C5549 C5533 1.377 . S
C5549 C5547 1.389 . S
C5549 C5550 1.524 . S
C5550 C5549 1.524 . S
C5550 C5551 1.397 . S
C5550 C5555 1.363 . S
C5551 H5522 0.950 . S
C5551 C5550 1.397 . S
C5551 C5552 1.334 . S
C5552 H5523 0.950 . S
C5552 C5551 1.334 . S
C5552 C5553 1.287 . S
C5553 C5552 1.287 . S
C5553 C5554 1.524 . S
C5553 H5556 0.999 . S
C5554 H5524 0.950 . S
C5554 C5553 1.524 . S
C5554 C5555 1.415 . S
C5555 H5525 0.950 . S
C5555 C5550 1.363 . S
C5555 C5554 1.415 . S
H5556 C5553 0.999 . S
H5557 C5538 0.913 1_545 S
H5558 C5576 0.951 . S
H5559 C5578 0.951 . S
H5560 C5580 0.950 . S
H5561 C5581 0.950 . S
H5562 C5583 0.950 . S
H5563 C5586 0.950 . S
H5564 C5587 0.950 . S
H5565 C5589 0.950 . S
H5566 C5590 0.950 . S
H5567 C5591 0.951 1_556 S
H5568 C5593 0.960 1_556 S
H5569 C5595 0.950 . S
H5570 C5596 0.950 . S
H5571 C5598 0.950 . S
H5572 C5601 0.950 1_554 S
H5573 C5602 0.950 . S
H5574 C5604 0.950 . S
H5575 C5605 0.950 . S
C5576 H5558 0.951 . S
C5576 C5577 1.366 . S
C5576 C5578 1.388 . S
C5577 C5576 1.366 . S
C5577 C5581 1.385 1_554 S
C5578 H5559 0.951 . S
C5578 C5576 1.388 . S
C5578 C5579 1.366 . S
C5579 C5578 1.366 . S
C5579 C5580 1.414 1_554 S
C5579 C5582 1.499 . S
C5580 H5560 0.950 . S
C5580 C5579 1.414 1_556 S
C5580 C5581 1.374 . S
C5581 H5561 0.950 . S
C5581 C5577 1.385 1_556 S
C5581 C5580 1.374 . S
C5582 C5579 1.499 . S
C5582 C5583 1.373 1_554 S
C5582 C5584 1.389 . S
C5583 H5562 0.950 . S
C5583 C5582 1.373 1_556 S
C5583 C5599 1.377 . S
C5584 C5582 1.389 . S
C5584 C5585 1.524 . S
C5584 C5598 1.377 . S
C5585 C5584 1.524 . S
C5585 C5586 1.397 . S
C5585 C5590 1.363 . S
C5586 H5563 0.950 . S
C5586 C5585 1.397 . S
C5586 C5587 1.334 1_565 S
C5587 H5564 0.950 . S
C5587 C5586 1.334 1_545 S
C5587 C5588 1.287 . S
C5588 C5587 1.287 . S
C5588 C5589 1.524 1_545 S
C5588 H5607 0.913 . S
C5589 H5565 0.950 . S
C5589 C5588 1.524 1_565 S
C5589 C5590 1.415 . S
C5590 H5566 0.950 . S
C5590 C5585 1.363 . S
C5590 C5589 1.415 . S
C5591 H5567 0.951 1_554 S
C5591 C5592 1.366 . S
C5591 C5593 1.404 . S
C5592 C5591 1.366 . S
C5592 C5596 1.385 . S
C5593 H5568 0.960 1_554 S
C5593 C5591 1.404 . S
C5593 C5594 1.342 1_545 S
C5594 C5593 1.342 1_565 S
C5594 C5595 1.414 . S
C5594 C5597 1.499 . S
C5595 H5569 0.950 . S
C5595 C5594 1.414 . S
C5595 C5596 1.374 1_565 S
C5596 H5570 0.950 . S
C5596 C5592 1.385 . S
C5596 C5595 1.374 1_545 S
C5597 C5594 1.499 . S
C5597 C5598 1.373 . S
C5597 C5599 1.389 1_554 S
C5598 H5571 0.950 . S
C5598 C5584 1.377 . S
C5598 C5597 1.373 . S
C5599 C5583 1.377 . S
C5599 C5597 1.389 1_556 S
C5599 C5600 1.524 . S
C5600 C5599 1.524 . S
C5600 C5601 1.397 . S
C5600 C5605 1.363 . S
C5601 H5572 0.950 1_556 S
C5601 C5600 1.397 . S
C5601 C5602 1.334 . S
C5602 H5573 0.950 . S
C5602 C5601 1.334 . S
C5602 C5603 1.287 . S
C5603 C5602 1.287 . S
C5603 C5604 1.524 . S
C5603 H5606 0.999 . S
C5604 H5574 0.950 . S
C5604 C5603 1.524 . S
C5604 C5605 1.415 . S
C5605 H5575 0.950 . S
C5605 C5600 1.363 . S
C5605 C5604 1.415 . S
H5606 C5603 0.999 . S
H5607 C5588 0.913 . S
H5608 C5626 0.951 . S
H5609 C5628 0.951 . S
H5610 C5630 0.950 . S
H5611 C5631 0.950 . S
H5612 C5633 0.950 . S
H5613 C5636 0.950 . S
H5614 C5637 0.950 . S
H5615 C5639 0.950 . S
H5616 C5640 0.950 . S
H5617 C5641 0.951 . S
H5618 C5643 0.951 . S
H5619 C5645 0.950 . S
H5620 C5646 0.950 . S
H5621 C5648 0.950 . S
H5622 C5651 0.950 . S
H5623 C5652 0.950 . S
H5624 C5654 0.950 . S
H5625 C5655 0.950 . S
C5626 H5608 0.951 . S
C5626 C5627 1.366 . S
C5626 C5628 1.388 . S
C5627 C5626 1.366 . S
C5627 C5631 1.385 . S
C5628 H5609 0.951 . S
C5628 C5626 1.388 . S
C5628 C5629 1.366 . S
C5629 C5628 1.366 . S
C5629 C5630 1.414 . S
C5629 C5632 1.499 . S
C5630 H5610 0.950 . S
C5630 C5629 1.414 . S
C5630 C5631 1.374 . S
C5631 H5611 0.950 . S
C5631 C5627 1.385 . S
C5631 C5630 1.374 . S
C5632 C5629 1.499 . S
C5632 C5633 1.373 . S
C5632 C5634 1.389 . S
C5633 H5612 0.950 . S
C5633 C5632 1.373 . S
C5633 C5649 1.377 . S
C5634 C5632 1.389 . S
C5634 C5635 1.524 . S
C5634 C5648 1.377 . S
C5635 C5634 1.524 . S
C5635 C5636 1.397 . S
C5635 C5640 1.363 . S
C5636 H5613 0.950 . S
C5636 C5635 1.397 . S
C5636 C5637 1.334 . S
C5637 H5614 0.950 . S
C5637 C5636 1.334 . S
C5637 C5638 1.287 . S
C5638 C5637 1.287 . S
C5638 C5639 1.524 . S
C5638 H5657 0.913 . S
C5639 H5615 0.950 . S
C5639 C5638 1.524 . S
C5639 C5640 1.415 . S
C5640 H5616 0.950 . S
C5640 C5635 1.363 . S
C5640 C5639 1.415 . S
C5641 H5617 0.951 . S
C5641 C5642 1.366 . S
C5641 C5643 1.388 . S
C5642 C5641 1.366 . S
C5642 C5646 1.385 . S
C5643 H5618 0.951 . S
C5643 C5641 1.388 . S
C5643 C5644 1.366 . S
C5644 C5643 1.366 . S
C5644 C5645 1.414 . S
C5644 C5647 1.499 . S
C5645 H5619 0.950 . S
C5645 C5644 1.414 . S
C5645 C5646 1.374 . S
C5646 H5620 0.950 . S
C5646 C5642 1.385 . S
C5646 C5645 1.374 . S
C5647 C5644 1.499 . S
C5647 C5648 1.373 . S
C5647 C5649 1.389 . S
C5648 H5621 0.950 . S
C5648 C5634 1.377 . S
C5648 C5647 1.373 . S
C5649 C5633 1.377 . S
C5649 C5647 1.389 . S
C5649 C5650 1.524 . S
C5650 C5649 1.524 . S
C5650 C5651 1.397 . S
C5650 C5655 1.363 . S
C5651 H5622 0.950 . S
C5651 C5650 1.397 . S
C5651 C5652 1.334 . S
C5652 H5623 0.950 . S
C5652 C5651 1.334 . S
C5652 C5653 1.287 . S
C5653 C5652 1.287 . S
C5653 C5654 1.524 . S
C5653 H5656 0.999 . S
C5654 H5624 0.950 . S
C5654 C5653 1.524 . S
C5654 C5655 1.415 . S
C5655 H5625 0.950 . S
C5655 C5650 1.363 . S
C5655 C5654 1.415 . S
H5656 C5653 0.999 . S
H5657 C5638 0.913 . S
H5658 C5676 0.951 . S
H5659 C5678 0.951 . S
H5660 C5680 0.938 1_556 S
H5661 C5681 0.950 1_556 S
H5662 C5683 0.937 1_556 S
H5663 C5686 0.950 . S
H5664 C5687 0.950 . S
H5665 C5689 0.950 . S
H5666 C5690 0.950 . S
H5667 C5691 0.951 . S
H5668 C5693 0.951 . S
H5669 C5695 0.950 . S
H5670 C5696 0.950 . S
H5671 C5698 0.950 . S
H5672 C5701 0.950 . S
H5673 C5702 0.950 . S
H5674 C5704 0.950 . S
H5675 C5705 0.950 . S
C5676 H5658 0.951 . S
C5676 C5677 1.366 . S
C5676 C5678 1.388 . S
C5677 C5676 1.366 . S
C5677 C5681 1.385 . S
C5678 H5659 0.951 . S
C5678 C5676 1.388 . S
C5678 C5679 1.366 . S
C5679 C5678 1.366 . S
C5679 C5680 1.414 . S
C5679 C5682 1.499 . S
C5680 H5660 0.938 1_554 S
C5680 C5679 1.414 . S
C5680 C5681 1.374 . S
C5681 H5661 0.950 1_554 S
C5681 C5677 1.385 . S
C5681 C5680 1.374 . S
C5682 C5679 1.499 . S
C5682 C5683 1.386 . S
C5682 C5684 1.389 . S
C5683 H5662 0.937 1_554 S
C5683 C5682 1.386 . S
C5683 C5699 1.377 . S
C5684 C5682 1.389 . S
C5684 C5685 1.524 . S
C5684 C5698 1.377 . S
C5685 C5684 1.524 . S
C5685 C5686 1.397 . S
C5685 C5690 1.363 . S
C5686 H5663 0.950 . S
C5686 C5685 1.397 . S
C5686 C5687 1.334 . S
C5687 H5664 0.950 . S
C5687 C5686 1.334 . S
C5687 C5688 1.287 . S
C5688 C5687 1.287 . S
C5688 C5689 1.524 . S
C5688 H5707 0.913 . S
C5689 H5665 0.950 . S
C5689 C5688 1.524 . S
C5689 C5690 1.415 . S
C5690 H5666 0.950 . S
C5690 C5685 1.363 . S
C5690 C5689 1.415 . S
C5691 H5667 0.951 . S
C5691 C5692 1.366 . S
C5691 C5693 1.388 . S
C5692 C5691 1.366 . S
C5692 C5696 1.385 . S
C5693 H5668 0.951 . S
C5693 C5691 1.388 . S
C5693 C5694 1.366 . S
C5694 C5693 1.366 . S
C5694 C5695 1.414 . S
C5694 C5697 1.499 . S
C5695 H5669 0.950 . S
C5695 C5694 1.414 . S
C5695 C5696 1.374 . S
C5696 H5670 0.950 . S
C5696 C5692 1.385 . S
C5696 C5695 1.374 . S
C5697 C5694 1.499 . S
C5697 C5698 1.373 . S
C5697 C5699 1.389 . S
C5698 H5671 0.950 . S
C5698 C5684 1.377 . S
C5698 C5697 1.373 . S
C5699 C5683 1.377 . S
C5699 C5697 1.389 . S
C5699 C5700 1.524 1_554 S
C5700 C5699 1.524 1_556 S
C5700 C5701 1.397 . S
C5700 C5705 1.363 . S
C5701 H5672 0.950 . S
C5701 C5700 1.397 . S
C5701 C5702 1.334 . S
C5702 H5673 0.950 . S
C5702 C5701 1.334 . S
C5702 C5703 1.287 . S
C5703 C5702 1.287 . S
C5703 C5704 1.524 . S
C5703 H5706 0.999 . S
C5704 H5674 0.950 . S
C5704 C5703 1.524 . S
C5704 C5705 1.415 . S
C5705 H5675 0.950 . S
C5705 C5700 1.363 . S
C5705 C5704 1.415 . S
H5706 C5703 0.999 . S
H5707 C5688 0.913 . S
H5708 C5726 0.951 . S
H5709 C5728 0.951 . S
H5710 C5730 0.950 . S
H5711 C5731 0.950 . S
H5712 C5733 0.950 . S
H5713 C5736 0.950 . S
H5714 C5737 0.950 . S
H5715 C5739 0.950 . S
H5716 C5740 0.950 . S
H5717 C5741 0.951 . S
H5718 C5743 0.951 . S
H5719 C5745 0.950 . S
H5720 C5746 0.950 . S
H5721 C5748 0.950 . S
H5722 C5751 0.950 . S
H5723 C5752 0.950 . S
H5724 C5754 0.950 . S
H5725 C5755 0.950 . S
C5726 H5708 0.951 . S
C5726 C5727 1.366 . S
C5726 C5728 1.388 . S
C5727 C5726 1.366 . S
C5727 C5731 1.385 . S
C5728 H5709 0.951 . S
C5728 C5726 1.388 . S
C5728 C5729 1.366 . S
C5729 C5728 1.366 . S
C5729 C5730 1.414 . S
C5729 C5732 1.499 . S
C5730 H5710 0.950 . S
C5730 C5729 1.414 . S
C5730 C5731 1.374 . S
C5731 H5711 0.950 . S
C5731 C5727 1.385 . S
C5731 C5730 1.374 . S
C5732 C5729 1.499 . S
C5732 C5733 1.373 . S
C5732 C5734 1.389 . S
C5733 H5712 0.950 . S
C5733 C5732 1.373 . S
C5733 C5749 1.377 . S
C5734 C5732 1.389 . S
C5734 C5735 1.524 . S
C5734 C5748 1.377 . S
C5735 C5734 1.524 . S
C5735 C5736 1.397 . S
C5735 C5740 1.363 . S
C5736 H5713 0.950 . S
C5736 C5735 1.397 . S
C5736 C5737 1.334 . S
C5737 H5714 0.950 . S
C5737 C5736 1.334 . S
C5737 C5738 1.287 . S
C5738 C5737 1.287 . S
C5738 C5739 1.524 . S
C5738 H5757 0.913 . S
C5739 H5715 0.950 . S
C5739 C5738 1.524 . S
C5739 C5740 1.415 . S
C5740 H5716 0.950 . S
C5740 C5735 1.363 . S
C5740 C5739 1.415 . S
C5741 H5717 0.951 . S
C5741 C5742 1.366 . S
C5741 C5743 1.388 . S
C5742 C5741 1.366 . S
C5742 C5746 1.385 . S
C5743 H5718 0.951 . S
C5743 C5741 1.388 . S
C5743 C5744 1.366 . S
C5744 C5743 1.366 . S
C5744 C5745 1.414 . S
C5744 C5747 1.499 . S
C5745 H5719 0.950 . S
C5745 C5744 1.414 . S
C5745 C5746 1.374 . S
C5746 H5720 0.950 . S
C5746 C5742 1.385 . S
C5746 C5745 1.374 . S
C5747 C5744 1.499 . S
C5747 C5748 1.373 . S
C5747 C5749 1.389 . S
C5748 H5721 0.950 . S
C5748 C5734 1.377 . S
C5748 C5747 1.373 . S
C5749 C5733 1.377 . S
C5749 C5747 1.389 . S
C5749 C5750 1.524 . S
C5750 C5749 1.524 . S
C5750 C5751 1.397 . S
C5750 C5755 1.363 . S
C5751 H5722 0.950 . S
C5751 C5750 1.397 . S
C5751 C5752 1.334 . S
C5752 H5723 0.950 . S
C5752 C5751 1.334 . S
C5752 C5753 1.287 . S
C5753 C5752 1.287 . S
C5753 C5754 1.524 . S
C5753 H5756 0.999 . S
C5754 H5724 0.950 . S
C5754 C5753 1.524 . S
C5754 C5755 1.415 . S
C5755 H5725 0.950 . S
C5755 C5750 1.363 . S
C5755 C5754 1.415 . S
H5756 C5753 0.999 . S
H5757 C5738 0.913 . S
H5758 C5776 0.951 . S
H5759 C5778 0.951 . S
H5760 C5780 0.950 . S
H5761 C5781 0.950 . S
H5762 C5783 0.950 . S
H5763 C5786 0.950 . S
H5764 C5787 0.950 . S
H5765 C5789 0.950 . S
H5766 C5790 0.950 . S
H5767 C5791 0.951 . S
H5768 C5793 0.951 . S
H5769 C5795 0.950 . S
H5770 C5796 0.950 . S
H5771 C5798 0.950 . S
H5772 C5801 0.950 . S
H5773 C5802 0.950 . S
H5774 C5804 0.950 . S
H5775 C5805 0.950 . S
C5776 H5758 0.951 . S
C5776 C5777 1.366 . S
C5776 C5778 1.388 . S
C5777 C5776 1.366 . S
C5777 C5781 1.385 . S
C5778 H5759 0.951 . S
C5778 C5776 1.388 . S
C5778 C5779 1.366 . S
C5779 C5778 1.366 . S
C5779 C5780 1.414 . S
C5779 C5782 1.499 . S
C5780 H5760 0.950 . S
C5780 C5779 1.414 . S
C5780 C5781 1.374 . S
C5781 H5761 0.950 . S
C5781 C5777 1.385 . S
C5781 C5780 1.374 . S
C5782 C5779 1.499 . S
C5782 C5783 1.373 . S
C5782 C5784 1.389 . S
C5783 H5762 0.950 . S
C5783 C5782 1.373 . S
C5783 C5799 1.377 . S
C5784 C5782 1.389 . S
C5784 C5785 1.524 . S
C5784 C5798 1.377 . S
C5785 C5784 1.524 . S
C5785 C5786 1.397 . S
C5785 C5790 1.363 . S
C5786 H5763 0.950 . S
C5786 C5785 1.397 . S
C5786 C5787 1.334 . S
C5787 H5764 0.950 . S
C5787 C5786 1.334 . S
C5787 C5788 1.287 . S
C5788 C5787 1.287 . S
C5788 C5789 1.524 . S
C5788 H5807 0.913 . S
C5789 H5765 0.950 . S
C5789 C5788 1.524 . S
C5789 C5790 1.415 . S
C5790 H5766 0.950 . S
C5790 C5785 1.363 . S
C5790 C5789 1.415 . S
C5791 H5767 0.951 . S
C5791 C5792 1.366 . S
C5791 C5793 1.388 . S
C5792 C5791 1.366 . S
C5792 C5796 1.385 . S
C5793 H5768 0.951 . S
C5793 C5791 1.388 . S
C5793 C5794 1.366 . S
C5794 C5793 1.366 . S
C5794 C5795 1.414 . S
C5794 C5797 1.499 . S
C5795 H5769 0.950 . S
C5795 C5794 1.414 . S
C5795 C5796 1.374 . S
C5796 H5770 0.950 . S
C5796 C5792 1.385 . S
C5796 C5795 1.374 . S
C5797 C5794 1.499 . S
C5797 C5798 1.373 . S
C5797 C5799 1.389 . S
C5798 H5771 0.950 . S
C5798 C5784 1.377 . S
C5798 C5797 1.373 . S
C5799 C5783 1.377 . S
C5799 C5797 1.389 . S
C5799 C5800 1.524 . S
C5800 C5799 1.524 . S
C5800 C5801 1.397 . S
C5800 C5805 1.363 . S
C5801 H5772 0.950 . S
C5801 C5800 1.397 . S
C5801 C5802 1.334 . S
C5802 H5773 0.950 . S
C5802 C5801 1.334 . S
C5802 C5803 1.287 . S
C5803 C5802 1.287 . S
C5803 C5804 1.524 . S
C5803 H5806 0.999 . S
C5804 H5774 0.950 . S
C5804 C5803 1.524 . S
C5804 C5805 1.415 . S
C5805 H5775 0.950 . S
C5805 C5800 1.363 . S
C5805 C5804 1.415 . S
H5806 C5803 0.999 . S
H5807 C5788 0.913 . S
H5808 C5826 0.951 . S
H5809 C5828 0.951 . S
H5810 C5830 0.950 . S
H5811 C5831 0.950 . S
H5812 C5833 0.950 . S
H5813 C5836 0.950 . S
H5814 C5837 0.950 . S
H5815 C5839 0.950 . S
H5816 C5840 0.950 . S
H5817 C5841 0.951 . S
H5818 C5843 0.951 . S
H5819 C5845 0.950 . S
H5820 C5846 0.950 . S
H5821 C5848 0.950 . S
H5822 C5851 0.950 . S
H5823 C5852 0.950 . S
H5824 C5854 0.950 . S
H5825 C5855 0.950 . S
C5826 H5808 0.951 . S
C5826 C5827 1.366 . S
C5826 C5828 1.388 . S
C5827 C5826 1.366 . S
C5827 C5831 1.385 . S
C5828 H5809 0.951 . S
C5828 C5826 1.388 . S
C5828 C5829 1.366 . S
C5829 C5828 1.366 . S
C5829 C5830 1.414 . S
C5829 C5832 1.499 . S
C5830 H5810 0.950 . S
C5830 C5829 1.414 . S
C5830 C5831 1.374 . S
C5831 H5811 0.950 . S
C5831 C5827 1.385 . S
C5831 C5830 1.374 . S
C5832 C5829 1.499 . S
C5832 C5833 1.373 . S
C5832 C5834 1.389 . S
C5833 H5812 0.950 . S
C5833 C5832 1.373 . S
C5833 C5849 1.377 . S
C5834 C5832 1.389 . S
C5834 C5835 1.524 . S
C5834 C5848 1.377 . S
C5835 C5834 1.524 . S
C5835 C5836 1.397 . S
C5835 C5840 1.363 . S
C5836 H5813 0.950 . S
C5836 C5835 1.397 . S
C5836 C5837 1.334 . S
C5837 H5814 0.950 . S
C5837 C5836 1.334 . S
C5837 C5838 1.287 . S
C5838 C5837 1.287 . S
C5838 C5839 1.524 . S
C5838 H5857 0.913 . S
C5839 H5815 0.950 . S
C5839 C5838 1.524 . S
C5839 C5840 1.415 . S
C5840 H5816 0.950 . S
C5840 C5835 1.363 . S
C5840 C5839 1.415 . S
C5841 H5817 0.951 . S
C5841 C5842 1.366 . S
C5841 C5843 1.388 . S
C5842 C5841 1.366 . S
C5842 C5846 1.385 . S
C5843 H5818 0.951 . S
C5843 C5841 1.388 . S
C5843 C5844 1.366 . S
C5844 C5843 1.366 . S
C5844 C5845 1.414 . S
C5844 C5847 1.499 . S
C5845 H5819 0.950 . S
C5845 C5844 1.414 . S
C5845 C5846 1.374 . S
C5846 H5820 0.950 . S
C5846 C5842 1.385 . S
C5846 C5845 1.374 . S
C5847 C5844 1.499 . S
C5847 C5848 1.373 . S
C5847 C5849 1.389 . S
C5848 H5821 0.950 . S
C5848 C5834 1.377 . S
C5848 C5847 1.373 . S
C5849 C5833 1.377 . S
C5849 C5847 1.389 . S
C5849 C5850 1.524 . S
C5850 C5849 1.524 . S
C5850 C5851 1.397 . S
C5850 C5855 1.363 . S
C5851 H5822 0.950 . S
C5851 C5850 1.397 . S
C5851 C5852 1.334 . S
C5852 H5823 0.950 . S
C5852 C5851 1.334 . S
C5852 C5853 1.287 . S
C5853 C5852 1.287 . S
C5853 C5854 1.524 . S
C5853 H5856 0.999 . S
C5854 H5824 0.950 . S
C5854 C5853 1.524 . S
C5854 C5855 1.415 . S
C5855 H5825 0.950 . S
C5855 C5850 1.363 . S
C5855 C5854 1.415 . S
H5856 C5853 0.999 . S
H5857 C5838 0.913 . S
H5858 C5876 0.951 . S
H5859 C5878 0.951 . S
H5860 C5880 0.950 . S
H5861 C5881 0.950 . S
H5862 C5883 0.950 . S
H5863 C5886 0.950 . S
H5864 C5887 0.950 . S
H5865 C5889 0.950 . S
H5866 C5890 0.950 . S
H5867 C5891 0.951 . S
H5868 C5893 0.951 . S
H5869 C5895 0.950 . S
H5870 C5896 0.950 . S
H5871 C5898 0.950 . S
H5872 C5901 0.950 . S
H5873 C5902 0.950 . S
H5874 C5904 0.950 . S
H5875 C5905 0.950 . S
C5876 H5858 0.951 . S
C5876 C5877 1.366 . S
C5876 C5878 1.388 . S
C5877 C5876 1.366 . S
C5877 C5881 1.385 . S
C5878 H5859 0.951 . S
C5878 C5876 1.388 . S
C5878 C5879 1.366 . S
C5879 C5878 1.366 . S
C5879 C5880 1.414 . S
C5879 C5882 1.499 . S
C5880 H5860 0.950 . S
C5880 C5879 1.414 . S
C5880 C5881 1.374 . S
C5881 H5861 0.950 . S
C5881 C5877 1.385 . S
C5881 C5880 1.374 . S
C5882 C5879 1.499 . S
C5882 C5883 1.373 . S
C5882 C5884 1.389 . S
C5883 H5862 0.950 . S
C5883 C5882 1.373 . S
C5883 C5899 1.377 . S
C5884 C5882 1.389 . S
C5884 C5885 1.524 . S
C5884 C5898 1.377 . S
C5885 C5884 1.524 . S
C5885 C5886 1.397 . S
C5885 C5890 1.363 . S
C5886 H5863 0.950 . S
C5886 C5885 1.397 . S
C5886 C5887 1.334 . S
C5887 H5864 0.950 . S
C5887 C5886 1.334 . S
C5887 C5888 1.287 . S
C5888 C5887 1.287 . S
C5888 C5889 1.524 . S
C5888 H5907 0.913 . S
C5889 H5865 0.950 . S
C5889 C5888 1.524 . S
C5889 C5890 1.415 . S
C5890 H5866 0.950 . S
C5890 C5885 1.363 . S
C5890 C5889 1.415 . S
C5891 H5867 0.951 . S
C5891 C5892 1.366 . S
C5891 C5893 1.388 . S
C5892 C5891 1.366 . S
C5892 C5896 1.385 . S
C5893 H5868 0.951 . S
C5893 C5891 1.388 . S
C5893 C5894 1.366 . S
C5894 C5893 1.366 . S
C5894 C5895 1.414 . S
C5894 C5897 1.499 . S
C5895 H5869 0.950 . S
C5895 C5894 1.414 . S
C5895 C5896 1.374 . S
C5896 H5870 0.950 . S
C5896 C5892 1.385 . S
C5896 C5895 1.374 . S
C5897 C5894 1.499 . S
C5897 C5898 1.373 . S
C5897 C5899 1.389 . S
C5898 H5871 0.950 . S
C5898 C5884 1.377 . S
C5898 C5897 1.373 . S
C5899 C5883 1.377 . S
C5899 C5897 1.389 . S
C5899 C5900 1.524 . S
C5900 C5899 1.524 . S
C5900 C5901 1.397 . S
C5900 C5905 1.363 . S
C5901 H5872 0.950 . S
C5901 C5900 1.397 . S
C5901 C5902 1.334 . S
C5902 H5873 0.950 . S
C5902 C5901 1.334 . S
C5902 C5903 1.287 . S
C5903 C5902 1.287 . S
C5903 C5904 1.524 . S
C5903 H5906 0.999 . S
C5904 H5874 0.950 . S
C5904 C5903 1.524 . S
C5904 C5905 1.415 . S
C5905 H5875 0.950 . S
C5905 C5900 1.363 . S
C5905 C5904 1.415 . S
H5906 C5903 0.999 . S
H5907 C5888 0.913 . S
H5908 C5926 0.951 . S
H5909 C5928 0.951 . S
H5910 C5930 0.950 . S
H5911 C5931 0.950 . S
H5912 C5933 0.950 . S
H5913 C5936 0.950 . S
H5914 C5937 0.950 . S
H5915 C5939 0.950 1_556 S
H5916 C5940 0.950 . S
H5917 C5941 0.951 . S
H5918 C5943 0.951 . S
H5919 C5945 0.950 . S
H5920 C5946 0.950 . S
H5921 C5948 0.950 . S
H5922 C5951 0.950 . S
H5923 C5952 0.950 . S
H5924 C5954 0.950 . S
H5925 C5955 0.950 . S
C5926 H5908 0.951 . S
C5926 C5927 1.366 . S
C5926 C5928 1.388 . S
C5927 C5926 1.366 . S
C5927 C5931 1.385 . S
C5928 H5909 0.951 . S
C5928 C5926 1.388 . S
C5928 C5929 1.366 . S
C5929 C5928 1.366 . S
C5929 C5930 1.414 . S
C5929 C5932 1.499 . S
C5930 H5910 0.950 . S
C5930 C5929 1.414 . S
C5930 C5931 1.374 . S
C5931 H5911 0.950 . S
C5931 C5927 1.385 . S
C5931 C5930 1.374 . S
C5932 C5929 1.499 . S
C5932 C5933 1.373 . S
C5932 C5934 1.389 . S
C5933 H5912 0.950 . S
C5933 C5932 1.373 . S
C5933 C5949 1.377 . S
C5934 C5932 1.389 . S
C5934 C5935 1.524 . S
C5934 C5948 1.377 . S
C5935 C5934 1.524 . S
C5935 C5936 1.397 . S
C5935 C5940 1.363 . S
C5936 H5913 0.950 . S
C5936 C5935 1.397 . S
C5936 C5937 1.334 1_455 S
C5937 H5914 0.950 . S
C5937 C5936 1.334 1_655 S
C5937 C5938 1.287 . S
C5938 C5937 1.287 . S
C5938 C5939 1.524 1_655 S
C5938 H5957 0.913 . S
C5939 H5915 0.950 1_554 S
C5939 C5938 1.524 1_455 S
C5939 C5940 1.415 . S
C5940 H5916 0.950 . S
C5940 C5935 1.363 . S
C5940 C5939 1.415 . S
C5941 H5917 0.951 . S
C5941 C5942 1.366 . S
C5941 C5943 1.388 . S
C5942 C5941 1.366 . S
C5942 C5946 1.385 . S
C5943 H5918 0.951 . S
C5943 C5941 1.388 . S
C5943 C5944 1.366 . S
C5944 C5943 1.366 . S
C5944 C5945 1.414 . S
C5944 C5947 1.499 . S
C5945 H5919 0.950 . S
C5945 C5944 1.414 . S
C5945 C5946 1.374 . S
C5946 H5920 0.950 . S
C5946 C5942 1.385 . S
C5946 C5945 1.374 . S
C5947 C5944 1.499 . S
C5947 C5948 1.373 . S
C5947 C5949 1.389 . S
C5948 H5921 0.950 . S
C5948 C5934 1.377 . S
C5948 C5947 1.373 . S
C5949 C5933 1.377 . S
C5949 C5947 1.389 . S
C5949 C5950 1.524 . S
C5950 C5949 1.524 . S
C5950 C5951 1.397 . S
C5950 C5955 1.363 . S
C5951 H5922 0.950 . S
C5951 C5950 1.397 . S
C5951 C5952 1.334 . S
C5952 H5923 0.950 . S
C5952 C5951 1.334 . S
C5952 C5953 1.287 . S
C5953 C5952 1.287 . S
C5953 C5954 1.524 . S
C5953 H5956 0.999 . S
C5954 H5924 0.950 . S
C5954 C5953 1.524 . S
C5954 C5955 1.415 . S
C5955 H5925 0.950 . S
C5955 C5950 1.363 . S
C5955 C5954 1.415 . S
H5956 C5953 0.999 . S
H5957 C5938 0.913 . S
H5958 C5976 0.951 . S
H5959 C5978 0.951 . S
H5960 C5980 0.950 . S
H5961 C5981 0.950 . S
H5962 C5983 0.950 . S
H5963 C5986 0.950 . S
H5964 C5987 0.950 . S
H5965 C5989 0.950 . S
H5966 C5990 0.950 . S
H5967 C5991 0.951 . S
H5968 C5993 0.951 . S
H5969 C5995 0.950 . S
H5970 C5996 0.950 . S
H5971 C5998 0.950 . S
H5972 C6001 0.950 . S
H5973 C6002 0.950 . S
H5974 C6004 0.950 . S
H5975 C6005 0.950 . S
C5976 H5958 0.951 . S
C5976 C5977 1.366 . S
C5976 C5978 1.388 . S
C5977 C5976 1.366 . S
C5977 C5981 1.385 . S
C5978 H5959 0.951 . S
C5978 C5976 1.388 . S
C5978 C5979 1.366 . S
C5979 C5978 1.366 . S
C5979 C5980 1.414 . S
C5979 C5982 1.499 . S
C5980 H5960 0.950 . S
C5980 C5979 1.414 . S
C5980 C5981 1.374 . S
C5981 H5961 0.950 . S
C5981 C5977 1.385 . S
C5981 C5980 1.374 . S
C5982 C5979 1.499 . S
C5982 C5983 1.373 . S
C5982 C5984 1.389 . S
C5983 H5962 0.950 . S
C5983 C5982 1.373 . S
C5983 C5999 1.377 . S
C5984 C5982 1.389 . S
C5984 C5985 1.524 . S
C5984 C5998 1.377 . S
C5985 C5984 1.524 . S
C5985 C5986 1.397 . S
C5985 C5990 1.363 . S
C5986 H5963 0.950 . S
C5986 C5985 1.397 . S
C5986 C5987 1.334 . S
C5987 H5964 0.950 . S
C5987 C5986 1.334 . S
C5987 C5988 1.287 . S
C5988 C5987 1.287 . S
C5988 C5989 1.524 . S
C5988 H6007 0.913 . S
C5989 H5965 0.950 . S
C5989 C5988 1.524 . S
C5989 C5990 1.415 . S
C5990 H5966 0.950 . S
C5990 C5985 1.363 . S
C5990 C5989 1.415 . S
C5991 H5967 0.951 . S
C5991 C5992 1.366 . S
C5991 C5993 1.388 . S
C5992 C5991 1.366 . S
C5992 C5996 1.385 . S
C5993 H5968 0.951 . S
C5993 C5991 1.388 . S
C5993 C5994 1.366 . S
C5994 C5993 1.366 . S
C5994 C5995 1.414 . S
C5994 C5997 1.499 . S
C5995 H5969 0.950 . S
C5995 C5994 1.414 . S
C5995 C5996 1.374 . S
C5996 H5970 0.950 . S
C5996 C5992 1.385 . S
C5996 C5995 1.374 . S
C5997 C5994 1.499 . S
C5997 C5998 1.373 . S
C5997 C5999 1.389 . S
C5998 H5971 0.950 . S
C5998 C5984 1.377 . S
C5998 C5997 1.373 . S
C5999 C5983 1.377 . S
C5999 C5997 1.389 . S
C5999 C6000 1.524 . S
C6000 C5999 1.524 . S
C6000 C6001 1.397 . S
C6000 C6005 1.363 . S
C6001 H5972 0.950 . S
C6001 C6000 1.397 . S
C6001 C6002 1.334 . S
C6002 H5973 0.950 . S
C6002 C6001 1.334 . S
C6002 C6003 1.287 . S
C6003 C6002 1.287 . S
C6003 C6004 1.524 . S
C6003 H6006 0.999 . S
C6004 H5974 0.950 . S
C6004 C6003 1.524 . S
C6004 C6005 1.415 . S
C6005 H5975 0.950 . S
C6005 C6000 1.363 . S
C6005 C6004 1.415 . S
H6006 C6003 0.999 . S
H6007 C5988 0.913 . S
H6008 C6026 0.951 . S
H6009 C6028 0.951 . S
H6010 C6030 0.950 . S
H6011 C6031 0.950 . S
H6012 C6033 0.950 . S
H6013 C6036 0.950 . S
H6014 C6037 0.950 . S
H6015 C6039 0.950 . S
H6016 C6040 0.950 . S
H6017 C6041 0.951 . S
H6018 C6043 0.951 . S
H6019 C6045 0.950 . S
H6020 C6046 0.950 . S
H6021 C6048 0.950 . S
H6022 C6051 0.950 . S
H6023 C6052 0.950 . S
H6024 C6054 0.950 . S
H6025 C6055 0.950 . S
C6026 H6008 0.951 . S
C6026 C6027 1.366 . S
C6026 C6028 1.388 . S
C6027 C6026 1.366 . S
C6027 C6031 1.385 . S
C6028 H6009 0.951 . S
C6028 C6026 1.388 . S
C6028 C6029 1.366 . S
C6029 C6028 1.366 . S
C6029 C6030 1.414 . S
C6029 C6032 1.499 . S
C6030 H6010 0.950 . S
C6030 C6029 1.414 . S
C6030 C6031 1.374 . S
C6031 H6011 0.950 . S
C6031 C6027 1.385 . S
C6031 C6030 1.374 . S
C6032 C6029 1.499 . S
C6032 C6033 1.373 . S
C6032 C6034 1.389 . S
C6033 H6012 0.950 . S
C6033 C6032 1.373 . S
C6033 C6049 1.377 . S
C6034 C6032 1.389 . S
C6034 C6035 1.524 . S
C6034 C6048 1.377 . S
C6035 C6034 1.524 . S
C6035 C6036 1.397 . S
C6035 C6040 1.363 . S
C6036 H6013 0.950 . S
C6036 C6035 1.397 . S
C6036 C6037 1.334 . S
C6037 H6014 0.950 . S
C6037 C6036 1.334 . S
C6037 C6038 1.287 . S
C6038 C6037 1.287 . S
C6038 C6039 1.524 . S
C6038 H6057 0.913 . S
C6039 H6015 0.950 . S
C6039 C6038 1.524 . S
C6039 C6040 1.415 . S
C6040 H6016 0.950 . S
C6040 C6035 1.363 . S
C6040 C6039 1.415 . S
C6041 H6017 0.951 . S
C6041 C6042 1.366 . S
C6041 C6043 1.388 . S
C6042 C6041 1.366 . S
C6042 C6046 1.385 . S
C6043 H6018 0.951 . S
C6043 C6041 1.388 . S
C6043 C6044 1.366 . S
C6044 C6043 1.366 . S
C6044 C6045 1.414 . S
C6044 C6047 1.499 . S
C6045 H6019 0.950 . S
C6045 C6044 1.414 . S
C6045 C6046 1.374 . S
C6046 H6020 0.950 . S
C6046 C6042 1.385 . S
C6046 C6045 1.374 . S
C6047 C6044 1.499 . S
C6047 C6048 1.373 . S
C6047 C6049 1.389 . S
C6048 H6021 0.950 . S
C6048 C6034 1.377 . S
C6048 C6047 1.373 . S
C6049 C6033 1.377 . S
C6049 C6047 1.389 . S
C6049 C6050 1.524 . S
C6050 C6049 1.524 . S
C6050 C6051 1.397 . S
C6050 C6055 1.363 . S
C6051 H6022 0.950 . S
C6051 C6050 1.397 . S
C6051 C6052 1.334 . S
C6052 H6023 0.950 . S
C6052 C6051 1.334 . S
C6052 C6053 1.287 . S
C6053 C6052 1.287 . S
C6053 C6054 1.524 . S
C6053 H6056 0.999 . S
C6054 H6024 0.950 . S
C6054 C6053 1.524 . S
C6054 C6055 1.415 . S
C6055 H6025 0.950 . S
C6055 C6050 1.363 . S
C6055 C6054 1.415 . S
H6056 C6053 0.999 . S
H6057 C6038 0.913 . S
H6058 C6076 0.951 . S
H6059 C6078 0.951 . S
H6060 C6080 0.950 . S
H6061 C6081 0.950 . S
H6062 C6083 0.950 . S
H6063 C6086 0.950 . S
H6064 C6087 0.950 . S
H6065 C6089 0.950 . S
H6066 C6090 0.950 . S
H6067 C6091 0.951 . S
H6068 C6093 0.951 . S
H6069 C6095 0.950 . S
H6070 C6096 0.950 . S
H6071 C6098 0.950 . S
H6072 C6101 0.950 . S
H6073 C6102 0.950 . S
H6074 C6104 0.950 . S
H6075 C6105 0.950 . S
C6076 H6058 0.951 . S
C6076 C6077 1.366 . S
C6076 C6078 1.388 . S
C6077 C6076 1.366 . S
C6077 C6081 1.385 . S
C6078 H6059 0.951 . S
C6078 C6076 1.388 . S
C6078 C6079 1.366 . S
C6079 C6078 1.366 . S
C6079 C6080 1.414 . S
C6079 C6082 1.499 . S
C6080 H6060 0.950 . S
C6080 C6079 1.414 . S
C6080 C6081 1.374 . S
C6081 H6061 0.950 . S
C6081 C6077 1.385 . S
C6081 C6080 1.374 . S
C6082 C6079 1.499 . S
C6082 C6083 1.373 . S
C6082 C6084 1.389 . S
C6083 H6062 0.950 . S
C6083 C6082 1.373 . S
C6083 C6099 1.377 . S
C6084 C6082 1.389 . S
C6084 C6085 1.524 . S
C6084 C6098 1.377 . S
C6085 C6084 1.524 . S
C6085 C6086 1.397 . S
C6085 C6090 1.363 . S
C6086 H6063 0.950 . S
C6086 C6085 1.397 . S
C6086 C6087 1.334 . S
C6087 H6064 0.950 . S
C6087 C6086 1.334 . S
C6087 C6088 1.287 . S
C6088 C6087 1.287 . S
C6088 C6089 1.524 . S
C6088 H6107 0.913 . S
C6089 H6065 0.950 . S
C6089 C6088 1.524 . S
C6089 C6090 1.415 . S
C6090 H6066 0.950 . S
C6090 C6085 1.363 . S
C6090 C6089 1.415 . S
C6091 H6067 0.951 . S
C6091 C6092 1.366 . S
C6091 C6093 1.388 . S
C6092 C6091 1.366 . S
C6092 C6096 1.385 . S
C6093 H6068 0.951 . S
C6093 C6091 1.388 . S
C6093 C6094 1.366 . S
C6094 C6093 1.366 . S
C6094 C6095 1.414 . S
C6094 C6097 1.499 . S
C6095 H6069 0.950 . S
C6095 C6094 1.414 . S
C6095 C6096 1.374 . S
C6096 H6070 0.950 . S
C6096 C6092 1.385 . S
C6096 C6095 1.374 . S
C6097 C6094 1.499 . S
C6097 C6098 1.373 . S
C6097 C6099 1.389 . S
C6098 H6071 0.950 . S
C6098 C6084 1.377 . S
C6098 C6097 1.373 . S
C6099 C6083 1.377 . S
C6099 C6097 1.389 . S
C6099 C6100 1.524 . S
C6100 C6099 1.524 . S
C6100 C6101 1.397 . S
C6100 C6105 1.363 . S
C6101 H6072 0.950 . S
C6101 C6100 1.397 . S
C6101 C6102 1.334 . S
C6102 H6073 0.950 . S
C6102 C6101 1.334 . S
C6102 C6103 1.287 . S
C6103 C6102 1.287 . S
C6103 C6104 1.524 . S
C6103 H6106 0.999 . S
C6104 H6074 0.950 . S
C6104 C6103 1.524 . S
C6104 C6105 1.415 . S
C6105 H6075 0.950 . S
C6105 C6100 1.363 . S
C6105 C6104 1.415 . S
H6106 C6103 0.999 . S
H6107 C6088 0.913 . S
H6108 C6126 0.951 . S
H6109 C6128 0.951 . S
H6110 C6130 0.950 . S
H6111 C6131 0.950 . S
H6112 C6133 0.950 . S
H6113 C6136 0.937 1_455 S
H6114 C6137 0.950 . S
H6115 C6139 0.950 . S
H6116 C6140 0.947 1_455 S
H6117 C6141 0.951 . S
H6118 C6143 0.951 . S
H6119 C6145 0.950 . S
H6120 C6146 0.950 . S
H6121 C6148 0.950 . S
H6122 C6151 0.950 . S
H6123 C6152 0.950 . S
H6124 C6154 0.950 . S
H6125 C6155 0.950 . S
C6126 H6108 0.951 . S
C6126 C6127 1.366 . S
C6126 C6128 1.388 . S
C6127 C6126 1.366 . S
C6127 C6131 1.385 . S
C6128 H6109 0.951 . S
C6128 C6126 1.388 . S
C6128 C6129 1.366 . S
C6129 C6128 1.366 . S
C6129 C6130 1.414 . S
C6129 C6132 1.499 . S
C6130 H6110 0.950 . S
C6130 C6129 1.414 . S
C6130 C6131 1.374 . S
C6131 H6111 0.950 . S
C6131 C6127 1.385 . S
C6131 C6130 1.374 . S
C6132 C6129 1.499 . S
C6132 C6133 1.373 . S
C6132 C6134 1.389 . S
C6133 H6112 0.950 . S
C6133 C6132 1.373 . S
C6133 C6149 1.377 . S
C6134 C6132 1.389 . S
C6134 C6135 1.524 . S
C6134 C6148 1.377 . S
C6135 C6134 1.524 . S
C6135 C6136 1.397 1_455 S
C6135 C6140 1.359 1_455 S
C6136 H6113 0.937 1_655 S
C6136 C6135 1.397 1_655 S
C6136 C6137 1.334 . S
C6137 H6114 0.950 . S
C6137 C6136 1.334 . S
C6137 C6138 1.287 . S
C6138 C6137 1.287 . S
C6138 C6139 1.524 . S
C6138 H6157 0.913 . S
C6139 H6115 0.950 . S
C6139 C6138 1.524 . S
C6139 C6140 1.423 . S
C6140 H6116 0.947 1_655 S
C6140 C6135 1.359 1_655 S
C6140 C6139 1.423 . S
C6141 H6117 0.951 . S
C6141 C6142 1.366 . S
C6141 C6143 1.388 . S
C6142 C6141 1.366 . S
C6142 C6146 1.385 . S
C6143 H6118 0.951 . S
C6143 C6141 1.388 . S
C6143 C6144 1.366 . S
C6144 C6143 1.366 . S
C6144 C6145 1.414 . S
C6144 C6147 1.499 . S
C6145 H6119 0.950 . S
C6145 C6144 1.414 . S
C6145 C6146 1.374 . S
C6146 H6120 0.950 . S
C6146 C6142 1.385 . S
C6146 C6145 1.374 . S
C6147 C6144 1.499 . S
C6147 C6148 1.373 . S
C6147 C6149 1.389 . S
C6148 H6121 0.950 . S
C6148 C6134 1.377 . S
C6148 C6147 1.373 . S
C6149 C6133 1.377 . S
C6149 C6147 1.389 . S
C6149 C6150 1.524 . S
C6150 C6149 1.524 . S
C6150 C6151 1.397 . S
C6150 C6155 1.363 . S
C6151 H6122 0.950 . S
C6151 C6150 1.397 . S
C6151 C6152 1.334 . S
C6152 H6123 0.950 . S
C6152 C6151 1.334 . S
C6152 C6153 1.287 . S
C6153 C6152 1.287 . S
C6153 C6154 1.524 . S
C6153 H6156 0.999 . S
C6154 H6124 0.950 . S
C6154 C6153 1.524 . S
C6154 C6155 1.415 . S
C6155 H6125 0.950 . S
C6155 C6150 1.363 . S
C6155 C6154 1.415 . S
H6156 C6153 0.999 . S
H6157 C6138 0.913 . S
H6158 C6176 0.951 . S
H6159 C6178 0.951 . S
H6160 C6180 0.950 . S
H6161 C6181 0.950 . S
H6162 C6183 0.950 . S
H6163 C6186 0.950 . S
H6164 C6187 0.950 . S
H6165 C6189 0.950 . S
H6166 C6190 0.950 . S
H6167 C6191 0.951 . S
H6168 C6193 0.951 . S
H6169 C6195 0.950 . S
H6170 C6196 0.950 . S
H6171 C6198 0.950 . S
H6172 C6201 0.950 . S
H6173 C6202 0.950 . S
H6174 C6204 0.950 . S
H6175 C6205 0.950 . S
C6176 H6158 0.951 . S
C6176 C6177 1.366 . S
C6176 C6178 1.388 . S
C6177 C6176 1.366 . S
C6177 C6181 1.385 . S
C6178 H6159 0.951 . S
C6178 C6176 1.388 . S
C6178 C6179 1.366 . S
C6179 C6178 1.366 . S
C6179 C6180 1.414 . S
C6179 C6182 1.499 . S
C6180 H6160 0.950 . S
C6180 C6179 1.414 . S
C6180 C6181 1.374 . S
C6181 H6161 0.950 . S
C6181 C6177 1.385 . S
C6181 C6180 1.374 . S
C6182 C6179 1.499 . S
C6182 C6183 1.373 . S
C6182 C6184 1.389 . S
C6183 H6162 0.950 . S
C6183 C6182 1.373 . S
C6183 C6199 1.377 . S
C6184 C6182 1.389 . S
C6184 C6185 1.524 . S
C6184 C6198 1.377 . S
C6185 C6184 1.524 . S
C6185 C6186 1.397 . S
C6185 C6190 1.363 . S
C6186 H6163 0.950 . S
C6186 C6185 1.397 . S
C6186 C6187 1.334 . S
C6187 H6164 0.950 . S
C6187 C6186 1.334 . S
C6187 C6188 1.287 . S
C6188 C6187 1.287 . S
C6188 C6189 1.524 . S
C6188 H6207 0.913 . S
C6189 H6165 0.950 . S
C6189 C6188 1.524 . S
C6189 C6190 1.415 . S
C6190 H6166 0.950 . S
C6190 C6185 1.363 . S
C6190 C6189 1.415 . S
C6191 H6167 0.951 . S
C6191 C6192 1.366 . S
C6191 C6193 1.388 . S
C6192 C6191 1.366 . S
C6192 C6196 1.385 . S
C6193 H6168 0.951 . S
C6193 C6191 1.388 . S
C6193 C6194 1.366 . S
C6194 C6193 1.366 . S
C6194 C6195 1.414 . S
C6194 C6197 1.499 . S
C6195 H6169 0.950 . S
C6195 C6194 1.414 . S
C6195 C6196 1.374 . S
C6196 H6170 0.950 . S
C6196 C6192 1.385 . S
C6196 C6195 1.374 . S
C6197 C6194 1.499 . S
C6197 C6198 1.373 . S
C6197 C6199 1.389 . S
C6198 H6171 0.950 . S
C6198 C6184 1.377 . S
C6198 C6197 1.373 . S
C6199 C6183 1.377 . S
C6199 C6197 1.389 . S
C6199 C6200 1.524 . S
C6200 C6199 1.524 . S
C6200 C6201 1.397 . S
C6200 C6205 1.363 . S
C6201 H6172 0.950 . S
C6201 C6200 1.397 . S
C6201 C6202 1.334 . S
C6202 H6173 0.950 . S
C6202 C6201 1.334 . S
C6202 C6203 1.287 . S
C6203 C6202 1.287 . S
C6203 C6204 1.524 . S
C6203 H6206 0.999 . S
C6204 H6174 0.950 . S
C6204 C6203 1.524 . S
C6204 C6205 1.415 . S
C6205 H6175 0.950 . S
C6205 C6200 1.363 . S
C6205 C6204 1.415 . S
H6206 C6203 0.999 . S
H6207 C6188 0.913 . S
H6208 C6226 0.951 . S
H6209 C6228 0.951 . S
H6210 C6230 0.950 . S
H6211 C6231 0.950 . S
H6212 C6233 0.950 . S
H6213 C6236 0.950 . S
H6214 C6237 0.950 . S
H6215 C6239 0.950 . S
H6216 C6240 0.950 . S
H6217 C6241 0.951 . S
H6218 C6243 0.951 . S
H6219 C6245 0.950 . S
H6220 C6246 0.950 . S
H6221 C6248 0.950 . S
H6222 C6251 0.950 . S
H6223 C6252 0.950 . S
H6224 C6254 0.950 . S
H6225 C6255 0.950 . S
C6226 H6208 0.951 . S
C6226 C6227 1.366 . S
C6226 C6228 1.388 . S
C6227 C6226 1.366 . S
C6227 C6231 1.385 . S
C6228 H6209 0.951 . S
C6228 C6226 1.388 . S
C6228 C6229 1.366 . S
C6229 C6228 1.366 . S
C6229 C6230 1.414 . S
C6229 C6232 1.499 . S
C6230 H6210 0.950 . S
C6230 C6229 1.414 . S
C6230 C6231 1.374 . S
C6231 H6211 0.950 . S
C6231 C6227 1.385 . S
C6231 C6230 1.374 . S
C6232 C6229 1.499 . S
C6232 C6233 1.373 . S
C6232 C6234 1.389 . S
C6233 H6212 0.950 . S
C6233 C6232 1.373 . S
C6233 C6249 1.377 . S
C6234 C6232 1.389 . S
C6234 C6235 1.524 . S
C6234 C6248 1.377 . S
C6235 C6234 1.524 . S
C6235 C6236 1.397 . S
C6235 C6240 1.363 . S
C6236 H6213 0.950 . S
C6236 C6235 1.397 . S
C6236 C6237 1.334 . S
C6237 H6214 0.950 . S
C6237 C6236 1.334 . S
C6237 C6238 1.287 . S
C6238 C6237 1.287 . S
C6238 C6239 1.524 . S
C6238 H6257 0.913 . S
C6239 H6215 0.950 . S
C6239 C6238 1.524 . S
C6239 C6240 1.415 . S
C6240 H6216 0.950 . S
C6240 C6235 1.363 . S
C6240 C6239 1.415 . S
C6241 H6217 0.951 . S
C6241 C6242 1.366 . S
C6241 C6243 1.388 . S
C6242 C6241 1.366 . S
C6242 C6246 1.385 . S
C6243 H6218 0.951 . S
C6243 C6241 1.388 . S
C6243 C6244 1.366 . S
C6244 C6243 1.366 . S
C6244 C6245 1.414 . S
C6244 C6247 1.499 . S
C6245 H6219 0.950 . S
C6245 C6244 1.414 . S
C6245 C6246 1.374 . S
C6246 H6220 0.950 . S
C6246 C6242 1.385 . S
C6246 C6245 1.374 . S
C6247 C6244 1.499 . S
C6247 C6248 1.373 . S
C6247 C6249 1.389 . S
C6248 H6221 0.950 . S
C6248 C6234 1.377 . S
C6248 C6247 1.373 . S
C6249 C6233 1.377 . S
C6249 C6247 1.389 . S
C6249 C6250 1.524 . S
C6250 C6249 1.524 . S
C6250 C6251 1.397 . S
C6250 C6255 1.363 . S
C6251 H6222 0.950 . S
C6251 C6250 1.397 . S
C6251 C6252 1.334 . S
C6252 H6223 0.950 . S
C6252 C6251 1.334 . S
C6252 C6253 1.287 . S
C6253 C6252 1.287 . S
C6253 C6254 1.524 . S
C6253 H6256 0.999 . S
C6254 H6224 0.950 . S
C6254 C6253 1.524 . S
C6254 C6255 1.415 . S
C6255 H6225 0.950 . S
C6255 C6250 1.363 . S
C6255 C6254 1.415 . S
H6256 C6253 0.999 . S
H6257 C6238 0.913 . S
H6258 C6276 0.951 . S
H6259 C6278 0.951 . S
H6260 C6280 0.950 . S
H6261 C6281 0.950 . S
H6262 C6283 0.950 . S
H6263 C6286 0.950 . S
H6264 C6287 0.950 . S
H6265 C6289 0.950 . S
H6266 C6290 0.950 . S
H6267 C6291 0.951 . S
H6268 C6293 0.951 . S
H6269 C6295 0.950 . S
H6270 C6296 0.950 . S
H6271 C6298 0.950 . S
H6272 C6301 0.950 . S
H6273 C6302 0.950 . S
H6274 C6304 0.950 . S
H6275 C6305 0.950 . S
C6276 H6258 0.951 . S
C6276 C6277 1.366 . S
C6276 C6278 1.388 . S
C6277 C6276 1.366 . S
C6277 C6281 1.385 . S
C6278 H6259 0.951 . S
C6278 C6276 1.388 . S
C6278 C6279 1.366 . S
C6279 C6278 1.366 . S
C6279 C6280 1.414 . S
C6279 C6282 1.499 . S
C6280 H6260 0.950 . S
C6280 C6279 1.414 . S
C6280 C6281 1.374 . S
C6281 H6261 0.950 . S
C6281 C6277 1.385 . S
C6281 C6280 1.374 . S
C6282 C6279 1.499 . S
C6282 C6283 1.373 . S
C6282 C6284 1.389 . S
C6283 H6262 0.950 . S
C6283 C6282 1.373 . S
C6283 C6299 1.377 . S
C6284 C6282 1.389 . S
C6284 C6285 1.524 . S
C6284 C6298 1.377 . S
C6285 C6284 1.524 . S
C6285 C6286 1.397 . S
C6285 C6290 1.363 . S
C6286 H6263 0.950 . S
C6286 C6285 1.397 . S
C6286 C6287 1.334 . S
C6287 H6264 0.950 . S
C6287 C6286 1.334 . S
C6287 C6288 1.287 . S
C6288 C6287 1.287 . S
C6288 C6289 1.524 . S
C6288 H6307 0.913 . S
C6289 H6265 0.950 . S
C6289 C6288 1.524 . S
C6289 C6290 1.415 . S
C6290 H6266 0.950 . S
C6290 C6285 1.363 . S
C6290 C6289 1.415 . S
C6291 H6267 0.951 . S
C6291 C6292 1.366 . S
C6291 C6293 1.388 . S
C6292 C6291 1.366 . S
C6292 C6296 1.385 . S
C6293 H6268 0.951 . S
C6293 C6291 1.388 . S
C6293 C6294 1.366 . S
C6294 C6293 1.366 . S
C6294 C6295 1.414 . S
C6294 C6297 1.499 . S
C6295 H6269 0.950 . S
C6295 C6294 1.414 . S
C6295 C6296 1.374 . S
C6296 H6270 0.950 . S
C6296 C6292 1.385 . S
C6296 C6295 1.374 . S
C6297 C6294 1.499 . S
C6297 C6298 1.373 . S
C6297 C6299 1.389 . S
C6298 H6271 0.950 . S
C6298 C6284 1.377 . S
C6298 C6297 1.373 . S
C6299 C6283 1.377 . S
C6299 C6297 1.389 . S
C6299 C6300 1.524 . S
C6300 C6299 1.524 . S
C6300 C6301 1.397 . S
C6300 C6305 1.363 . S
C6301 H6272 0.950 . S
C6301 C6300 1.397 . S
C6301 C6302 1.334 . S
C6302 H6273 0.950 . S
C6302 C6301 1.334 . S
C6302 C6303 1.287 . S
C6303 C6302 1.287 . S
C6303 C6304 1.524 . S
C6303 H6306 0.999 . S
C6304 H6274 0.950 . S
C6304 C6303 1.524 . S
C6304 C6305 1.415 . S
C6305 H6275 0.950 . S
C6305 C6300 1.363 . S
C6305 C6304 1.415 . S
H6306 C6303 0.999 . S
H6307 C6288 0.913 . S
H6308 C6326 0.951 . S
H6309 C6328 0.951 . S
H6310 C6330 0.950 . S
H6311 C6331 0.950 . S
H6312 C6333 0.950 . S
H6313 C6336 0.950 . S
H6314 C6337 0.950 . S
H6315 C6339 0.950 1_455 S
H6316 C6340 0.950 . S
H6317 C6341 0.951 . S
H6318 C6343 0.951 . S
H6319 C6345 0.950 . S
H6320 C6346 0.950 . S
H6321 C6348 0.950 . S
H6322 C6351 0.950 . S
H6323 C6352 0.950 . S
H6324 C6354 0.950 . S
H6325 C6355 0.950 . S
C6326 H6308 0.951 . S
C6326 C6327 1.366 . S
C6326 C6328 1.388 . S
C6327 C6326 1.366 . S
C6327 C6331 1.385 . S
C6328 H6309 0.951 . S
C6328 C6326 1.388 . S
C6328 C6329 1.366 . S
C6329 C6328 1.366 . S
C6329 C6330 1.414 . S
C6329 C6332 1.499 . S
C6330 H6310 0.950 . S
C6330 C6329 1.414 . S
C6330 C6331 1.374 . S
C6331 H6311 0.950 . S
C6331 C6327 1.385 . S
C6331 C6330 1.374 . S
C6332 C6329 1.499 . S
C6332 C6333 1.373 . S
C6332 C6334 1.389 . S
C6333 H6312 0.950 . S
C6333 C6332 1.373 . S
C6333 C6349 1.377 . S
C6334 C6332 1.389 . S
C6334 C6335 1.524 . S
C6334 C6348 1.377 . S
C6335 C6334 1.524 . S
C6335 C6336 1.397 . S
C6335 C6340 1.363 . S
C6336 H6313 0.950 . S
C6336 C6335 1.397 . S
C6336 C6337 1.334 . S
C6337 H6314 0.950 . S
C6337 C6336 1.334 . S
C6337 C6338 1.287 . S
C6338 C6337 1.287 . S
C6338 C6339 1.524 . S
C6338 H6357 0.913 . S
C6339 H6315 0.950 1_655 S
C6339 C6338 1.524 . S
C6339 C6340 1.415 . S
C6340 H6316 0.950 . S
C6340 C6335 1.363 . S
C6340 C6339 1.415 . S
C6341 H6317 0.951 . S
C6341 C6342 1.338 1_655 S
C6341 C6343 1.388 . S
C6342 C6341 1.338 1_455 S
C6342 C6346 1.393 . S
C6343 H6318 0.951 . S
C6343 C6341 1.388 . S
C6343 C6344 1.366 . S
C6344 C6343 1.366 . S
C6344 C6345 1.414 . S
C6344 C6347 1.499 . S
C6345 H6319 0.950 . S
C6345 C6344 1.414 . S
C6345 C6346 1.374 1_655 S
C6346 H6320 0.950 . S
C6346 C6342 1.393 . S
C6346 C6345 1.374 1_455 S
C6347 C6344 1.499 . S
C6347 C6348 1.373 . S
C6347 C6349 1.389 . S
C6348 H6321 0.950 . S
C6348 C6334 1.377 . S
C6348 C6347 1.373 . S
C6349 C6333 1.377 . S
C6349 C6347 1.389 . S
C6349 C6350 1.524 . S
C6350 C6349 1.524 . S
C6350 C6351 1.397 . S
C6350 C6355 1.363 . S
C6351 H6322 0.950 . S
C6351 C6350 1.397 . S
C6351 C6352 1.334 . S
C6352 H6323 0.950 . S
C6352 C6351 1.334 . S
C6352 C6353 1.287 . S
C6353 C6352 1.287 . S
C6353 C6354 1.524 . S
C6353 H6356 0.999 . S
C6354 H6324 0.950 . S
C6354 C6353 1.524 . S
C6354 C6355 1.415 . S
C6355 H6325 0.950 . S
C6355 C6350 1.363 . S
C6355 C6354 1.415 . S
H6356 C6353 0.999 . S
H6357 C6338 0.913 . S
H6358 C6376 0.951 . S
H6359 C6378 0.951 . S
H6360 C6380 0.950 . S
H6361 C6381 0.950 . S
H6362 C6383 0.950 . S
H6363 C6386 0.950 . S
H6364 C6387 0.950 . S
H6365 C6389 0.950 . S
H6366 C6390 0.950 . S
H6367 C6391 0.951 . S
H6368 C6393 0.951 . S
H6369 C6395 0.950 . S
H6370 C6396 0.950 . S
H6371 C6398 0.950 . S
H6372 C6401 0.950 . S
H6373 C6402 0.950 . S
H6374 C6404 0.950 . S
H6375 C6405 0.950 . S
C6376 H6358 0.951 . S
C6376 C6377 1.366 . S
C6376 C6378 1.388 . S
C6377 C6376 1.366 . S
C6377 C6381 1.385 . S
C6378 H6359 0.951 . S
C6378 C6376 1.388 . S
C6378 C6379 1.366 . S
C6379 C6378 1.366 . S
C6379 C6380 1.414 . S
C6379 C6382 1.499 . S
C6380 H6360 0.950 . S
C6380 C6379 1.414 . S
C6380 C6381 1.374 . S
C6381 H6361 0.950 . S
C6381 C6377 1.385 . S
C6381 C6380 1.374 . S
C6382 C6379 1.499 . S
C6382 C6383 1.373 . S
C6382 C6384 1.389 . S
C6383 H6362 0.950 . S
C6383 C6382 1.373 . S
C6383 C6399 1.377 . S
C6384 C6382 1.389 . S
C6384 C6385 1.524 . S
C6384 C6398 1.377 . S
C6385 C6384 1.524 . S
C6385 C6386 1.397 . S
C6385 C6390 1.363 . S
C6386 H6363 0.950 . S
C6386 C6385 1.397 . S
C6386 C6387 1.334 . S
C6387 H6364 0.950 . S
C6387 C6386 1.334 . S
C6387 C6388 1.287 . S
C6388 C6387 1.287 . S
C6388 C6389 1.524 . S
C6388 H6407 0.913 . S
C6389 H6365 0.950 . S
C6389 C6388 1.524 . S
C6389 C6390 1.415 . S
C6390 H6366 0.950 . S
C6390 C6385 1.363 . S
C6390 C6389 1.415 . S
C6391 H6367 0.951 . S
C6391 C6392 1.366 . S
C6391 C6393 1.388 . S
C6392 C6391 1.366 . S
C6392 C6396 1.385 . S
C6393 H6368 0.951 . S
C6393 C6391 1.388 . S
C6393 C6394 1.366 . S
C6394 C6393 1.366 . S
C6394 C6395 1.414 . S
C6394 C6397 1.499 . S
C6395 H6369 0.950 . S
C6395 C6394 1.414 . S
C6395 C6396 1.374 . S
C6396 H6370 0.950 . S
C6396 C6392 1.385 . S
C6396 C6395 1.374 . S
C6397 C6394 1.499 . S
C6397 C6398 1.373 . S
C6397 C6399 1.389 . S
C6398 H6371 0.950 . S
C6398 C6384 1.377 . S
C6398 C6397 1.373 . S
C6399 C6383 1.377 . S
C6399 C6397 1.389 . S
C6399 C6400 1.524 . S
C6400 C6399 1.524 . S
C6400 C6401 1.397 . S
C6400 C6405 1.363 . S
C6401 H6372 0.950 . S
C6401 C6400 1.397 . S
C6401 C6402 1.334 . S
C6402 H6373 0.950 . S
C6402 C6401 1.334 . S
C6402 C6403 1.287 . S
C6403 C6402 1.287 . S
C6403 C6404 1.524 . S
C6403 H6406 0.999 . S
C6404 H6374 0.950 . S
C6404 C6403 1.524 . S
C6404 C6405 1.415 . S
C6405 H6375 0.950 . S
C6405 C6400 1.363 . S
C6405 C6404 1.415 . S
H6406 C6403 0.999 . S
H6407 C6388 0.913 . S
H6408 C6426 0.951 . S
H6409 C6428 0.951 . S
H6410 C6430 0.950 . S
H6411 C6431 0.950 . S
H6412 C6433 0.950 . S
H6413 C6436 0.950 . S
H6414 C6437 0.950 . S
H6415 C6439 0.950 . S
H6416 C6440 0.950 . S
H6417 C6441 0.951 . S
H6418 C6443 0.951 . S
H6419 C6445 0.950 . S
H6420 C6446 0.950 . S
H6421 C6448 0.950 . S
H6422 C6451 0.950 . S
H6423 C6452 0.950 . S
H6424 C6454 0.950 . S
H6425 C6455 0.950 . S
C6426 H6408 0.951 . S
C6426 C6427 1.366 . S
C6426 C6428 1.388 . S
C6427 C6426 1.366 . S
C6427 C6431 1.385 . S
C6428 H6409 0.951 . S
C6428 C6426 1.388 . S
C6428 C6429 1.366 . S
C6429 C6428 1.366 . S
C6429 C6430 1.414 . S
C6429 C6432 1.499 . S
C6430 H6410 0.950 . S
C6430 C6429 1.414 . S
C6430 C6431 1.374 . S
C6431 H6411 0.950 . S
C6431 C6427 1.385 . S
C6431 C6430 1.374 . S
C6432 C6429 1.499 . S
C6432 C6433 1.373 . S
C6432 C6434 1.389 . S
C6433 H6412 0.950 . S
C6433 C6432 1.373 . S
C6433 C6449 1.377 . S
C6434 C6432 1.389 . S
C6434 C6435 1.524 . S
C6434 C6448 1.377 . S
C6435 C6434 1.524 . S
C6435 C6436 1.397 . S
C6435 C6440 1.363 . S
C6436 H6413 0.950 . S
C6436 C6435 1.397 . S
C6436 C6437 1.334 . S
C6437 H6414 0.950 . S
C6437 C6436 1.334 . S
C6437 C6438 1.287 . S
C6438 C6437 1.287 . S
C6438 C6439 1.524 . S
C6438 H6457 0.913 . S
C6439 H6415 0.950 . S
C6439 C6438 1.524 . S
C6439 C6440 1.415 . S
C6440 H6416 0.950 . S
C6440 C6435 1.363 . S
C6440 C6439 1.415 . S
C6441 H6417 0.951 . S
C6441 C6442 1.366 . S
C6441 C6443 1.388 . S
C6442 C6441 1.366 . S
C6442 C6446 1.385 . S
C6443 H6418 0.951 . S
C6443 C6441 1.388 . S
C6443 C6444 1.366 . S
C6444 C6443 1.366 . S
C6444 C6445 1.414 . S
C6444 C6447 1.499 . S
C6445 H6419 0.950 . S
C6445 C6444 1.414 . S
C6445 C6446 1.374 . S
C6446 H6420 0.950 . S
C6446 C6442 1.385 . S
C6446 C6445 1.374 . S
C6447 C6444 1.499 . S
C6447 C6448 1.373 . S
C6447 C6449 1.389 . S
C6448 H6421 0.950 . S
C6448 C6434 1.377 . S
C6448 C6447 1.373 . S
C6449 C6433 1.377 . S
C6449 C6447 1.389 . S
C6449 C6450 1.524 . S
C6450 C6449 1.524 . S
C6450 C6451 1.397 . S
C6450 C6455 1.363 . S
C6451 H6422 0.950 . S
C6451 C6450 1.397 . S
C6451 C6452 1.334 . S
C6452 H6423 0.950 . S
C6452 C6451 1.334 . S
C6452 C6453 1.287 . S
C6453 C6452 1.287 . S
C6453 C6454 1.524 . S
C6453 H6456 0.999 . S
C6454 H6424 0.950 . S
C6454 C6453 1.524 . S
C6454 C6455 1.415 . S
C6455 H6425 0.950 . S
C6455 C6450 1.363 . S
C6455 C6454 1.415 . S
H6456 C6453 0.999 . S
H6457 C6438 0.913 . S
H6458 C6476 0.951 . S
H6459 C6478 0.951 . S
H6460 C6480 0.950 . S
H6461 C6481 0.950 . S
H6462 C6483 0.950 . S
H6463 C6486 0.950 . S
H6464 C6487 0.950 . S
H6465 C6489 0.950 . S
H6466 C6490 0.950 . S
H6467 C6491 0.951 . S
H6468 C6493 0.951 . S
H6469 C6495 0.950 . S
H6470 C6496 0.950 . S
H6471 C6498 0.950 . S
H6472 C6501 0.950 . S
H6473 C6502 0.950 . S
H6474 C6504 0.950 . S
H6475 C6505 0.950 . S
C6476 H6458 0.951 . S
C6476 C6477 1.366 . S
C6476 C6478 1.388 . S
C6477 C6476 1.366 . S
C6477 C6481 1.385 . S
C6478 H6459 0.951 . S
C6478 C6476 1.388 . S
C6478 C6479 1.366 . S
C6479 C6478 1.366 . S
C6479 C6480 1.414 . S
C6479 C6482 1.499 . S
C6480 H6460 0.950 . S
C6480 C6479 1.414 . S
C6480 C6481 1.374 . S
C6481 H6461 0.950 . S
C6481 C6477 1.385 . S
C6481 C6480 1.374 . S
C6482 C6479 1.499 . S
C6482 C6483 1.373 . S
C6482 C6484 1.389 . S
C6483 H6462 0.950 . S
C6483 C6482 1.373 . S
C6483 C6499 1.377 . S
C6484 C6482 1.389 . S
C6484 C6485 1.524 . S
C6484 C6498 1.377 . S
C6485 C6484 1.524 . S
C6485 C6486 1.397 . S
C6485 C6490 1.363 . S
C6486 H6463 0.950 . S
C6486 C6485 1.397 . S
C6486 C6487 1.334 . S
C6487 H6464 0.950 . S
C6487 C6486 1.334 . S
C6487 C6488 1.287 . S
C6488 C6487 1.287 . S
C6488 C6489 1.524 . S
C6488 H6507 0.913 . S
C6489 H6465 0.950 . S
C6489 C6488 1.524 . S
C6489 C6490 1.415 . S
C6490 H6466 0.950 . S
C6490 C6485 1.363 . S
C6490 C6489 1.415 . S
C6491 H6467 0.951 . S
C6491 C6492 1.366 . S
C6491 C6493 1.388 . S
C6492 C6491 1.366 . S
C6492 C6496 1.385 . S
C6493 H6468 0.951 . S
C6493 C6491 1.388 . S
C6493 C6494 1.366 . S
C6494 C6493 1.366 . S
C6494 C6495 1.414 . S
C6494 C6497 1.499 . S
C6495 H6469 0.950 . S
C6495 C6494 1.414 . S
C6495 C6496 1.374 . S
C6496 H6470 0.950 . S
C6496 C6492 1.385 . S
C6496 C6495 1.374 . S
C6497 C6494 1.499 . S
C6497 C6498 1.373 . S
C6497 C6499 1.389 . S
C6498 H6471 0.950 . S
C6498 C6484 1.377 . S
C6498 C6497 1.373 . S
C6499 C6483 1.377 . S
C6499 C6497 1.389 . S
C6499 C6500 1.524 . S
C6500 C6499 1.524 . S
C6500 C6501 1.397 . S
C6500 C6505 1.363 . S
C6501 H6472 0.950 . S
C6501 C6500 1.397 . S
C6501 C6502 1.334 . S
C6502 H6473 0.950 . S
C6502 C6501 1.334 . S
C6502 C6503 1.287 . S
C6503 C6502 1.287 . S
C6503 C6504 1.524 . S
C6503 H6506 0.999 . S
C6504 H6474 0.950 . S
C6504 C6503 1.524 . S
C6504 C6505 1.415 . S
C6505 H6475 0.950 . S
C6505 C6500 1.363 . S
C6505 C6504 1.415 . S
H6506 C6503 0.999 . S
H6507 C6488 0.913 . S
H6508 C6526 0.951 . S
H6509 C6528 0.951 . S
H6510 C6530 0.950 . S
H6511 C6531 0.950 . S
H6512 C6533 0.950 . S
H6513 C6536 0.950 . S
H6514 C6537 0.950 . S
H6515 C6539 0.950 . S
H6516 C6540 0.950 . S
H6517 C6541 0.951 . S
H6518 C6543 0.951 . S
H6519 C6545 0.950 . S
H6520 C6546 0.950 . S
H6521 C6548 0.950 . S
H6522 C6551 0.950 . S
H6523 C6552 0.950 . S
H6524 C6554 0.950 . S
H6525 C6555 0.950 . S
C6526 H6508 0.951 . S
C6526 C6527 1.366 . S
C6526 C6528 1.388 . S
C6527 C6526 1.366 . S
C6527 C6531 1.385 . S
C6528 H6509 0.951 . S
C6528 C6526 1.388 . S
C6528 C6529 1.366 . S
C6529 C6528 1.366 . S
C6529 C6530 1.414 . S
C6529 C6532 1.499 . S
C6530 H6510 0.950 . S
C6530 C6529 1.414 . S
C6530 C6531 1.374 . S
C6531 H6511 0.950 . S
C6531 C6527 1.385 . S
C6531 C6530 1.374 . S
C6532 C6529 1.499 . S
C6532 C6533 1.373 . S
C6532 C6534 1.389 . S
C6533 H6512 0.950 . S
C6533 C6532 1.373 . S
C6533 C6549 1.377 . S
C6534 C6532 1.389 . S
C6534 C6535 1.524 . S
C6534 C6548 1.377 . S
C6535 C6534 1.524 . S
C6535 C6536 1.397 . S
C6535 C6540 1.363 . S
C6536 H6513 0.950 . S
C6536 C6535 1.397 . S
C6536 C6537 1.334 . S
C6537 H6514 0.950 . S
C6537 C6536 1.334 . S
C6537 C6538 1.287 . S
C6538 C6537 1.287 . S
C6538 C6539 1.524 . S
C6538 H6557 0.913 . S
C6539 H6515 0.950 . S
C6539 C6538 1.524 . S
C6539 C6540 1.415 . S
C6540 H6516 0.950 . S
C6540 C6535 1.363 . S
C6540 C6539 1.415 . S
C6541 H6517 0.951 . S
C6541 C6542 1.366 . S
C6541 C6543 1.388 . S
C6542 C6541 1.366 . S
C6542 C6546 1.385 . S
C6543 H6518 0.951 . S
C6543 C6541 1.388 . S
C6543 C6544 1.366 . S
C6544 C6543 1.366 . S
C6544 C6545 1.414 . S
C6544 C6547 1.499 . S
C6545 H6519 0.950 . S
C6545 C6544 1.414 . S
C6545 C6546 1.374 . S
C6546 H6520 0.950 . S
C6546 C6542 1.385 . S
C6546 C6545 1.374 . S
C6547 C6544 1.499 . S
C6547 C6548 1.373 . S
C6547 C6549 1.389 . S
C6548 H6521 0.950 . S
C6548 C6534 1.377 . S
C6548 C6547 1.373 . S
C6549 C6533 1.377 . S
C6549 C6547 1.389 . S
C6549 C6550 1.524 . S
C6550 C6549 1.524 . S
C6550 C6551 1.397 . S
C6550 C6555 1.363 . S
C6551 H6522 0.950 . S
C6551 C6550 1.397 . S
C6551 C6552 1.334 1_655 S
C6552 H6523 0.950 . S
C6552 C6551 1.334 1_455 S
C6552 C6553 1.287 . S
C6553 C6552 1.287 . S
C6553 C6554 1.524 1_455 S
C6553 H6556 0.999 . S
C6554 H6524 0.950 . S
C6554 C6553 1.524 1_655 S
C6554 C6555 1.415 . S
C6555 H6525 0.950 . S
C6555 C6550 1.363 . S
C6555 C6554 1.415 . S
H6556 C6553 0.999 . S
H6557 C6538 0.913 . S
H6558 C6576 0.951 . S
H6559 C6578 0.951 . S
H6560 C6580 0.950 . S
H6561 C6581 0.950 . S
H6562 C6583 0.950 . S
H6563 C6586 0.950 . S
H6564 C6587 0.950 . S
H6565 C6589 0.950 . S
H6566 C6590 0.950 . S
H6567 C6591 0.951 . S
H6568 C6593 0.951 . S
H6569 C6595 0.950 . S
H6570 C6596 0.950 . S
H6571 C6598 0.950 . S
H6572 C6601 0.950 . S
H6573 C6602 0.950 . S
H6574 C6604 0.950 . S
H6575 C6605 0.950 . S
C6576 H6558 0.951 . S
C6576 C6577 1.366 . S
C6576 C6578 1.388 . S
C6577 C6576 1.366 . S
C6577 C6581 1.385 . S
C6578 H6559 0.951 . S
C6578 C6576 1.388 . S
C6578 C6579 1.366 . S
C6579 C6578 1.366 . S
C6579 C6580 1.414 . S
C6579 C6582 1.499 . S
C6580 H6560 0.950 . S
C6580 C6579 1.414 . S
C6580 C6581 1.374 . S
C6581 H6561 0.950 . S
C6581 C6577 1.385 . S
C6581 C6580 1.374 . S
C6582 C6579 1.499 . S
C6582 C6583 1.373 . S
C6582 C6584 1.389 . S
C6583 H6562 0.950 . S
C6583 C6582 1.373 . S
C6583 C6599 1.377 . S
C6584 C6582 1.389 . S
C6584 C6585 1.524 . S
C6584 C6598 1.377 . S
C6585 C6584 1.524 . S
C6585 C6586 1.397 . S
C6585 C6590 1.363 . S
C6586 H6563 0.950 . S
C6586 C6585 1.397 . S
C6586 C6587 1.334 . S
C6587 H6564 0.950 . S
C6587 C6586 1.334 . S
C6587 C6588 1.287 . S
C6588 C6587 1.287 . S
C6588 C6589 1.524 . S
C6588 H6607 0.913 . S
C6589 H6565 0.950 . S
C6589 C6588 1.524 . S
C6589 C6590 1.415 . S
C6590 H6566 0.950 . S
C6590 C6585 1.363 . S
C6590 C6589 1.415 . S
C6591 H6567 0.951 . S
C6591 C6592 1.366 . S
C6591 C6593 1.388 . S
C6592 C6591 1.366 . S
C6592 C6596 1.385 . S
C6593 H6568 0.951 . S
C6593 C6591 1.388 . S
C6593 C6594 1.366 . S
C6594 C6593 1.366 . S
C6594 C6595 1.414 . S
C6594 C6597 1.499 . S
C6595 H6569 0.950 . S
C6595 C6594 1.414 . S
C6595 C6596 1.374 . S
C6596 H6570 0.950 . S
C6596 C6592 1.385 . S
C6596 C6595 1.374 . S
C6597 C6594 1.499 . S
C6597 C6598 1.373 . S
C6597 C6599 1.389 . S
C6598 H6571 0.950 . S
C6598 C6584 1.377 . S
C6598 C6597 1.373 . S
C6599 C6583 1.377 . S
C6599 C6597 1.389 . S
C6599 C6600 1.524 . S
C6600 C6599 1.524 . S
C6600 C6601 1.397 . S
C6600 C6605 1.363 . S
C6601 H6572 0.950 . S
C6601 C6600 1.397 . S
C6601 C6602 1.334 . S
C6602 H6573 0.950 . S
C6602 C6601 1.334 . S
C6602 C6603 1.287 . S
C6603 C6602 1.287 . S
C6603 C6604 1.524 . S
C6603 H6606 0.999 . S
C6604 H6574 0.950 . S
C6604 C6603 1.524 . S
C6604 C6605 1.415 . S
C6605 H6575 0.950 . S
C6605 C6600 1.363 . S
C6605 C6604 1.415 . S
H6606 C6603 0.999 . S
H6607 C6588 0.913 . S
H6608 C6626 0.951 . S
H6609 C6628 0.951 . S
H6610 C6630 0.950 . S
H6611 C6631 0.950 . S
H6612 C6633 0.950 . S
H6613 C6636 0.950 . S
H6614 C6637 0.950 . S
H6615 C6639 0.950 . S
H6616 C6640 0.950 . S
H6617 C6641 0.951 . S
H6618 C6643 0.951 . S
H6619 C6645 0.950 . S
H6620 C6646 0.950 . S
H6621 C6648 0.950 . S
H6622 C6651 0.950 . S
H6623 C6652 0.950 . S
H6624 C6654 0.950 . S
H6625 C6655 0.950 . S
C6626 H6608 0.951 . S
C6626 C6627 1.366 . S
C6626 C6628 1.388 . S
C6627 C6626 1.366 . S
C6627 C6631 1.385 . S
C6628 H6609 0.951 . S
C6628 C6626 1.388 . S
C6628 C6629 1.366 . S
C6629 C6628 1.366 . S
C6629 C6630 1.414 . S
C6629 C6632 1.499 . S
C6630 H6610 0.950 . S
C6630 C6629 1.414 . S
C6630 C6631 1.374 . S
C6631 H6611 0.950 . S
C6631 C6627 1.385 . S
C6631 C6630 1.374 . S
C6632 C6629 1.499 . S
C6632 C6633 1.373 . S
C6632 C6634 1.389 . S
C6633 H6612 0.950 . S
C6633 C6632 1.373 . S
C6633 C6649 1.377 . S
C6634 C6632 1.389 . S
C6634 C6635 1.524 . S
C6634 C6648 1.377 . S
C6635 C6634 1.524 . S
C6635 C6636 1.397 . S
C6635 C6640 1.363 . S
C6636 H6613 0.950 . S
C6636 C6635 1.397 . S
C6636 C6637 1.334 . S
C6637 H6614 0.950 . S
C6637 C6636 1.334 . S
C6637 C6638 1.287 . S
C6638 C6637 1.287 . S
C6638 C6639 1.524 . S
C6638 H6657 0.913 . S
C6639 H6615 0.950 . S
C6639 C6638 1.524 . S
C6639 C6640 1.415 . S
C6640 H6616 0.950 . S
C6640 C6635 1.363 . S
C6640 C6639 1.415 . S
C6641 H6617 0.951 . S
C6641 C6642 1.366 . S
C6641 C6643 1.388 . S
C6642 C6641 1.366 . S
C6642 C6646 1.385 . S
C6643 H6618 0.951 . S
C6643 C6641 1.388 . S
C6643 C6644 1.366 . S
C6644 C6643 1.366 . S
C6644 C6645 1.414 . S
C6644 C6647 1.499 . S
C6645 H6619 0.950 . S
C6645 C6644 1.414 . S
C6645 C6646 1.374 . S
C6646 H6620 0.950 . S
C6646 C6642 1.385 . S
C6646 C6645 1.374 . S
C6647 C6644 1.499 . S
C6647 C6648 1.373 . S
C6647 C6649 1.389 . S
C6648 H6621 0.950 . S
C6648 C6634 1.377 . S
C6648 C6647 1.373 . S
C6649 C6633 1.377 . S
C6649 C6647 1.389 . S
C6649 C6650 1.524 . S
C6650 C6649 1.524 . S
C6650 C6651 1.397 . S
C6650 C6655 1.363 . S
C6651 H6622 0.950 . S
C6651 C6650 1.397 . S
C6651 C6652 1.334 . S
C6652 H6623 0.950 . S
C6652 C6651 1.334 . S
C6652 C6653 1.287 . S
C6653 C6652 1.287 . S
C6653 C6654 1.524 . S
C6653 H6656 0.999 . S
C6654 H6624 0.950 . S
C6654 C6653 1.524 . S
C6654 C6655 1.415 . S
C6655 H6625 0.950 . S
C6655 C6650 1.363 . S
C6655 C6654 1.415 . S
H6656 C6653 0.999 . S
H6657 C6638 0.913 . S
H6658 C6676 0.951 . S
H6659 C6678 0.951 . S
H6660 C6680 0.950 . S
H6661 C6681 0.950 . S
H6662 C6683 0.950 . S
H6663 C6686 0.950 . S
H6664 C6687 0.950 . S
H6665 C6689 0.950 . S
H6666 C6690 0.950 . S
H6667 C6691 0.972 . S
H6668 C6693 0.951 . S
H6669 C6695 0.950 . S
H6670 C6696 0.950 . S
H6671 C6698 0.950 . S
H6672 C6701 0.950 . S
H6673 C6702 0.950 . S
H6674 C6704 0.950 . S
H6675 C6705 0.950 . S
C6676 H6658 0.951 . S
C6676 C6677 1.366 . S
C6676 C6678 1.388 . S
C6677 C6676 1.366 . S
C6677 C6681 1.385 . S
C6678 H6659 0.951 . S
C6678 C6676 1.388 . S
C6678 C6679 1.366 . S
C6679 C6678 1.366 . S
C6679 C6680 1.414 . S
C6679 C6682 1.499 . S
C6680 H6660 0.950 . S
C6680 C6679 1.414 . S
C6680 C6681 1.374 . S
C6681 H6661 0.950 . S
C6681 C6677 1.385 . S
C6681 C6680 1.374 . S
C6682 C6679 1.499 . S
C6682 C6683 1.373 . S
C6682 C6684 1.389 . S
C6683 H6662 0.950 . S
C6683 C6682 1.373 . S
C6683 C6699 1.377 . S
C6684 C6682 1.389 . S
C6684 C6685 1.524 . S
C6684 C6698 1.377 . S
C6685 C6684 1.524 . S
C6685 C6686 1.397 . S
C6685 C6690 1.363 . S
C6686 H6663 0.950 . S
C6686 C6685 1.397 . S
C6686 C6687 1.334 . S
C6687 H6664 0.950 . S
C6687 C6686 1.334 . S
C6687 C6688 1.287 . S
C6688 C6687 1.287 . S
C6688 C6689 1.524 . S
C6688 H6707 0.913 . S
C6689 H6665 0.950 . S
C6689 C6688 1.524 . S
C6689 C6690 1.415 . S
C6690 H6666 0.950 . S
C6690 C6685 1.363 . S
C6690 C6689 1.415 . S
C6691 H6667 0.972 . S
C6691 C6692 1.354 1_545 S
C6691 C6693 1.379 1_545 S
C6692 C6691 1.354 1_565 S
C6692 C6696 1.385 . S
C6693 H6668 0.951 . S
C6693 C6691 1.379 1_565 S
C6693 C6694 1.366 . S
C6694 C6693 1.366 . S
C6694 C6695 1.414 . S
C6694 C6697 1.499 . S
C6695 H6669 0.950 . S
C6695 C6694 1.414 . S
C6695 C6696 1.374 . S
C6696 H6670 0.950 . S
C6696 C6692 1.385 . S
C6696 C6695 1.374 . S
C6697 C6694 1.499 . S
C6697 C6698 1.373 . S
C6697 C6699 1.389 . S
C6698 H6671 0.950 . S
C6698 C6684 1.377 . S
C6698 C6697 1.373 . S
C6699 C6683 1.377 . S
C6699 C6697 1.389 . S
C6699 C6700 1.524 . S
C6700 C6699 1.524 . S
C6700 C6701 1.397 . S
C6700 C6705 1.363 . S
C6701 H6672 0.950 . S
C6701 C6700 1.397 . S
C6701 C6702 1.334 . S
C6702 H6673 0.950 . S
C6702 C6701 1.334 . S
C6702 C6703 1.287 . S
C6703 C6702 1.287 . S
C6703 C6704 1.524 . S
C6703 H6706 0.999 . S
C6704 H6674 0.950 . S
C6704 C6703 1.524 . S
C6704 C6705 1.415 . S
C6705 H6675 0.950 . S
C6705 C6700 1.363 . S
C6705 C6704 1.415 . S
H6706 C6703 0.999 . S
H6707 C6688 0.913 . S
H6708 C6726 0.951 . S
H6709 C6728 0.951 . S
H6710 C6730 0.950 . S
H6711 C6731 0.950 . S
H6712 C6733 0.950 . S
H6713 C6736 0.950 . S
H6714 C6737 0.950 . S
H6715 C6739 0.950 . S
H6716 C6740 0.950 . S
H6717 C6741 0.951 . S
H6718 C6743 0.951 . S
H6719 C6745 0.950 . S
H6720 C6746 0.950 . S
H6721 C6748 0.950 . S
H6722 C6751 0.950 . S
H6723 C6752 0.950 . S
H6724 C6754 0.950 . S
H6725 C6755 0.950 . S
C6726 H6708 0.951 . S
C6726 C6727 1.366 . S
C6726 C6728 1.388 . S
C6727 C6726 1.366 . S
C6727 C6731 1.385 . S
C6728 H6709 0.951 . S
C6728 C6726 1.388 . S
C6728 C6729 1.366 . S
C6729 C6728 1.366 . S
C6729 C6730 1.414 . S
C6729 C6732 1.499 . S
C6730 H6710 0.950 . S
C6730 C6729 1.414 . S
C6730 C6731 1.374 . S
C6731 H6711 0.950 . S
C6731 C6727 1.385 . S
C6731 C6730 1.374 . S
C6732 C6729 1.499 . S
C6732 C6733 1.373 . S
C6732 C6734 1.389 . S
C6733 H6712 0.950 . S
C6733 C6732 1.373 . S
C6733 C6749 1.377 . S
C6734 C6732 1.389 . S
C6734 C6735 1.524 . S
C6734 C6748 1.377 . S
C6735 C6734 1.524 . S
C6735 C6736 1.397 . S
C6735 C6740 1.363 . S
C6736 H6713 0.950 . S
C6736 C6735 1.397 . S
C6736 C6737 1.334 . S
C6737 H6714 0.950 . S
C6737 C6736 1.334 . S
C6737 C6738 1.287 . S
C6738 C6737 1.287 . S
C6738 C6739 1.524 . S
C6738 H6757 0.913 . S
C6739 H6715 0.950 . S
C6739 C6738 1.524 . S
C6739 C6740 1.415 . S
C6740 H6716 0.950 . S
C6740 C6735 1.363 . S
C6740 C6739 1.415 . S
C6741 H6717 0.951 . S
C6741 C6742 1.366 . S
C6741 C6743 1.388 . S
C6742 C6741 1.366 . S
C6742 C6746 1.385 . S
C6743 H6718 0.951 . S
C6743 C6741 1.388 . S
C6743 C6744 1.366 . S
C6744 C6743 1.366 . S
C6744 C6745 1.414 . S
C6744 C6747 1.499 . S
C6745 H6719 0.950 . S
C6745 C6744 1.414 . S
C6745 C6746 1.374 . S
C6746 H6720 0.950 . S
C6746 C6742 1.385 . S
C6746 C6745 1.374 . S
C6747 C6744 1.499 . S
C6747 C6748 1.373 . S
C6747 C6749 1.389 . S
C6748 H6721 0.950 . S
C6748 C6734 1.377 . S
C6748 C6747 1.373 . S
C6749 C6733 1.377 . S
C6749 C6747 1.389 . S
C6749 C6750 1.524 . S
C6750 C6749 1.524 . S
C6750 C6751 1.397 . S
C6750 C6755 1.363 . S
C6751 H6722 0.950 . S
C6751 C6750 1.397 . S
C6751 C6752 1.334 . S
C6752 H6723 0.950 . S
C6752 C6751 1.334 . S
C6752 C6753 1.287 . S
C6753 C6752 1.287 . S
C6753 C6754 1.524 . S
C6753 H6756 0.999 . S
C6754 H6724 0.950 . S
C6754 C6753 1.524 . S
C6754 C6755 1.415 . S
C6755 H6725 0.950 . S
C6755 C6750 1.363 . S
C6755 C6754 1.415 . S
H6756 C6753 0.999 . S
H6757 C6738 0.913 . S
H6758 C6776 0.951 . S
H6759 C6778 0.951 . S
H6760 C6780 0.950 . S
H6761 C6781 0.950 . S
H6762 C6783 0.950 . S
H6763 C6786 0.962 . S
H6764 C6787 0.950 . S
H6765 C6789 0.950 . S
H6766 C6790 0.950 . S
H6767 C6791 0.951 . S
H6768 C6793 0.951 . S
H6769 C6795 0.950 . S
H6770 C6796 0.950 . S
H6771 C6798 0.950 . S
H6772 C6801 0.950 . S
H6773 C6802 0.950 . S
H6774 C6804 0.950 . S
H6775 C6805 0.950 . S
C6776 H6758 0.951 . S
C6776 C6777 1.366 . S
C6776 C6778 1.388 . S
C6777 C6776 1.366 . S
C6777 C6781 1.385 . S
C6778 H6759 0.951 . S
C6778 C6776 1.388 . S
C6778 C6779 1.366 . S
C6779 C6778 1.366 . S
C6779 C6780 1.414 . S
C6779 C6782 1.499 . S
C6780 H6760 0.950 . S
C6780 C6779 1.414 . S
C6780 C6781 1.374 . S
C6781 H6761 0.950 . S
C6781 C6777 1.385 . S
C6781 C6780 1.374 . S
C6782 C6779 1.499 . S
C6782 C6783 1.373 . S
C6782 C6784 1.389 . S
C6783 H6762 0.950 . S
C6783 C6782 1.373 . S
C6783 C6799 1.377 . S
C6784 C6782 1.389 . S
C6784 C6785 1.524 . S
C6784 C6798 1.377 . S
C6785 C6784 1.524 . S
C6785 C6786 1.397 . S
C6785 C6790 1.363 . S
C6786 H6763 0.962 . S
C6786 C6785 1.397 . S
C6786 C6787 1.334 1_554 S
C6787 H6764 0.950 . S
C6787 C6786 1.334 1_556 S
C6787 C6788 1.287 . S
C6788 C6787 1.287 . S
C6788 C6789 1.524 1_556 S
C6788 H6807 0.913 . S
C6789 H6765 0.950 . S
C6789 C6788 1.524 1_554 S
C6789 C6790 1.415 . S
C6790 H6766 0.950 . S
C6790 C6785 1.363 . S
C6790 C6789 1.415 . S
C6791 H6767 0.951 . S
C6791 C6792 1.366 . S
C6791 C6793 1.388 . S
C6792 C6791 1.366 . S
C6792 C6796 1.385 . S
C6793 H6768 0.951 . S
C6793 C6791 1.388 . S
C6793 C6794 1.366 . S
C6794 C6793 1.366 . S
C6794 C6795 1.414 . S
C6794 C6797 1.499 . S
C6795 H6769 0.950 . S
C6795 C6794 1.414 . S
C6795 C6796 1.374 . S
C6796 H6770 0.950 . S
C6796 C6792 1.385 . S
C6796 C6795 1.374 . S
C6797 C6794 1.499 . S
C6797 C6798 1.373 . S
C6797 C6799 1.389 . S
C6798 H6771 0.950 . S
C6798 C6784 1.377 . S
C6798 C6797 1.373 . S
C6799 C6783 1.377 . S
C6799 C6797 1.389 . S
C6799 C6800 1.524 . S
C6800 C6799 1.524 . S
C6800 C6801 1.397 . S
C6800 C6805 1.363 . S
C6801 H6772 0.950 . S
C6801 C6800 1.397 . S
C6801 C6802 1.334 . S
C6802 H6773 0.950 . S
C6802 C6801 1.334 . S
C6802 C6803 1.287 . S
C6803 C6802 1.287 . S
C6803 C6804 1.524 . S
C6803 H6806 0.999 . S
C6804 H6774 0.950 . S
C6804 C6803 1.524 . S
C6804 C6805 1.415 . S
C6805 H6775 0.950 . S
C6805 C6800 1.363 . S
C6805 C6804 1.415 . S
H6806 C6803 0.999 . S
H6807 C6788 0.913 . S
H6808 C6826 0.951 . S
H6809 C6828 0.951 . S
H6810 C6830 0.950 . S
H6811 C6831 0.950 . S
H6812 C6833 0.950 . S
H6813 C6836 0.950 . S
H6814 C6837 0.950 . S
H6815 C6839 0.950 . S
H6816 C6840 0.950 . S
H6817 C6841 0.951 . S
H6818 C6843 0.951 . S
H6819 C6845 0.950 . S
H6820 C6846 0.950 . S
H6821 C6848 0.950 . S
H6822 C6851 0.950 . S
H6823 C6852 0.950 . S
H6824 C6854 0.950 . S
H6825 C6855 0.950 . S
C6826 H6808 0.951 . S
C6826 C6827 1.366 . S
C6826 C6828 1.388 . S
C6827 C6826 1.366 . S
C6827 C6831 1.385 . S
C6828 H6809 0.951 . S
C6828 C6826 1.388 . S
C6828 C6829 1.366 . S
C6829 C6828 1.366 . S
C6829 C6830 1.414 . S
C6829 C6832 1.499 . S
C6830 H6810 0.950 . S
C6830 C6829 1.414 . S
C6830 C6831 1.374 . S
C6831 H6811 0.950 . S
C6831 C6827 1.385 . S
C6831 C6830 1.374 . S
C6832 C6829 1.499 . S
C6832 C6833 1.373 . S
C6832 C6834 1.389 . S
C6833 H6812 0.950 . S
C6833 C6832 1.373 . S
C6833 C6849 1.377 . S
C6834 C6832 1.389 . S
C6834 C6835 1.524 . S
C6834 C6848 1.377 . S
C6835 C6834 1.524 . S
C6835 C6836 1.397 . S
C6835 C6840 1.363 . S
C6836 H6813 0.950 . S
C6836 C6835 1.397 . S
C6836 C6837 1.334 . S
C6837 H6814 0.950 . S
C6837 C6836 1.334 . S
C6837 C6838 1.287 . S
C6838 C6837 1.287 . S
C6838 C6839 1.524 . S
C6838 H6857 0.913 . S
C6839 H6815 0.950 . S
C6839 C6838 1.524 . S
C6839 C6840 1.415 . S
C6840 H6816 0.950 . S
C6840 C6835 1.363 . S
C6840 C6839 1.415 . S
C6841 H6817 0.951 . S
C6841 C6842 1.366 . S
C6841 C6843 1.388 . S
C6842 C6841 1.366 . S
C6842 C6846 1.385 . S
C6843 H6818 0.951 . S
C6843 C6841 1.388 . S
C6843 C6844 1.366 . S
C6844 C6843 1.366 . S
C6844 C6845 1.414 . S
C6844 C6847 1.499 . S
C6845 H6819 0.950 . S
C6845 C6844 1.414 . S
C6845 C6846 1.374 . S
C6846 H6820 0.950 . S
C6846 C6842 1.385 . S
C6846 C6845 1.374 . S
C6847 C6844 1.499 . S
C6847 C6848 1.373 . S
C6847 C6849 1.389 . S
C6848 H6821 0.950 . S
C6848 C6834 1.377 . S
C6848 C6847 1.373 . S
C6849 C6833 1.377 . S
C6849 C6847 1.389 . S
C6849 C6850 1.524 . S
C6850 C6849 1.524 . S
C6850 C6851 1.397 . S
C6850 C6855 1.363 . S
C6851 H6822 0.950 . S
C6851 C6850 1.397 . S
C6851 C6852 1.334 . S
C6852 H6823 0.950 . S
C6852 C6851 1.334 . S
C6852 C6853 1.287 . S
C6853 C6852 1.287 . S
C6853 C6854 1.524 . S
C6853 H6856 0.999 . S
C6854 H6824 0.950 . S
C6854 C6853 1.524 . S
C6854 C6855 1.415 . S
C6855 H6825 0.950 . S
C6855 C6850 1.363 . S
C6855 C6854 1.415 . S
H6856 C6853 0.999 . S
H6857 C6838 0.913 . S
H6858 C6876 0.951 . S
H6859 C6878 0.951 . S
H6860 C6880 0.950 . S
H6861 C6881 0.950 . S
H6862 C6883 0.950 . S
H6863 C6886 0.950 . S
H6864 C6887 0.950 . S
H6865 C6889 0.950 . S
H6866 C6890 0.950 . S
H6867 C6891 0.951 . S
H6868 C6893 0.951 . S
H6869 C6895 0.950 . S
H6870 C6896 0.950 . S
H6871 C6898 0.950 . S
H6872 C6901 0.950 . S
H6873 C6902 0.950 . S
H6874 C6904 0.950 . S
H6875 C6905 0.950 . S
C6876 H6858 0.951 . S
C6876 C6877 1.366 . S
C6876 C6878 1.388 . S
C6877 C6876 1.366 . S
C6877 C6881 1.385 . S
C6878 H6859 0.951 . S
C6878 C6876 1.388 . S
C6878 C6879 1.366 . S
C6879 C6878 1.366 . S
C6879 C6880 1.414 . S
C6879 C6882 1.499 . S
C6880 H6860 0.950 . S
C6880 C6879 1.414 . S
C6880 C6881 1.374 . S
C6881 H6861 0.950 . S
C6881 C6877 1.385 . S
C6881 C6880 1.374 . S
C6882 C6879 1.499 . S
C6882 C6883 1.373 . S
C6882 C6884 1.389 . S
C6883 H6862 0.950 . S
C6883 C6882 1.373 . S
C6883 C6899 1.377 . S
C6884 C6882 1.389 . S
C6884 C6885 1.524 . S
C6884 C6898 1.377 . S
C6885 C6884 1.524 . S
C6885 C6886 1.397 . S
C6885 C6890 1.363 . S
C6886 H6863 0.950 . S
C6886 C6885 1.397 . S
C6886 C6887 1.334 . S
C6887 H6864 0.950 . S
C6887 C6886 1.334 . S
C6887 C6888 1.287 . S
C6888 C6887 1.287 . S
C6888 C6889 1.524 . S
C6888 H6907 0.913 . S
C6889 H6865 0.950 . S
C6889 C6888 1.524 . S
C6889 C6890 1.415 . S
C6890 H6866 0.950 . S
C6890 C6885 1.363 . S
C6890 C6889 1.415 . S
C6891 H6867 0.951 . S
C6891 C6892 1.366 . S
C6891 C6893 1.388 . S
C6892 C6891 1.366 . S
C6892 C6896 1.385 . S
C6893 H6868 0.951 . S
C6893 C6891 1.388 . S
C6893 C6894 1.366 . S
C6894 C6893 1.366 . S
C6894 C6895 1.414 . S
C6894 C6897 1.499 . S
C6895 H6869 0.950 . S
C6895 C6894 1.414 . S
C6895 C6896 1.374 . S
C6896 H6870 0.950 . S
C6896 C6892 1.385 . S
C6896 C6895 1.374 . S
C6897 C6894 1.499 . S
C6897 C6898 1.373 . S
C6897 C6899 1.389 . S
C6898 H6871 0.950 . S
C6898 C6884 1.377 . S
C6898 C6897 1.373 . S
C6899 C6883 1.377 . S
C6899 C6897 1.389 . S
C6899 C6900 1.524 1_554 S
C6900 C6899 1.524 1_556 S
C6900 C6901 1.397 . S
C6900 C6905 1.363 . S
C6901 H6872 0.950 . S
C6901 C6900 1.397 . S
C6901 C6902 1.334 . S
C6902 H6873 0.950 . S
C6902 C6901 1.334 . S
C6902 C6903 1.287 . S
C6903 C6902 1.287 . S
C6903 C6904 1.524 . S
C6903 H6906 0.999 . S
C6904 H6874 0.950 . S
C6904 C6903 1.524 . S
C6904 C6905 1.415 . S
C6905 H6875 0.950 . S
C6905 C6900 1.363 . S
C6905 C6904 1.415 . S
H6906 C6903 0.999 . S
H6907 C6888 0.913 . S
H6908 C6926 0.951 . S
H6909 C6928 0.951 . S
H6910 C6930 0.950 . S
H6911 C6931 0.950 . S
H6912 C6933 0.950 . S
H6913 C6936 0.950 . S
H6914 C6937 0.950 . S
H6915 C6939 0.950 . S
H6916 C6940 0.950 . S
H6917 C6941 0.951 . S
H6918 C6943 0.951 . S
H6919 C6945 0.950 . S
H6920 C6946 0.950 . S
H6921 C6948 0.950 . S
H6922 C6951 0.950 . S
H6923 C6952 0.950 . S
H6924 C6954 0.950 . S
H6925 C6955 0.950 . S
C6926 H6908 0.951 . S
C6926 C6927 1.366 . S
C6926 C6928 1.388 . S
C6927 C6926 1.366 . S
C6927 C6931 1.385 . S
C6928 H6909 0.951 . S
C6928 C6926 1.388 . S
C6928 C6929 1.366 . S
C6929 C6928 1.366 . S
C6929 C6930 1.414 . S
C6929 C6932 1.499 . S
C6930 H6910 0.950 . S
C6930 C6929 1.414 . S
C6930 C6931 1.374 . S
C6931 H6911 0.950 . S
C6931 C6927 1.385 . S
C6931 C6930 1.374 . S
C6932 C6929 1.499 . S
C6932 C6933 1.373 . S
C6932 C6934 1.389 . S
C6933 H6912 0.950 . S
C6933 C6932 1.373 . S
C6933 C6949 1.377 . S
C6934 C6932 1.389 . S
C6934 C6935 1.524 . S
C6934 C6948 1.377 . S
C6935 C6934 1.524 . S
C6935 C6936 1.397 . S
C6935 C6940 1.363 . S
C6936 H6913 0.950 . S
C6936 C6935 1.397 . S
C6936 C6937 1.334 . S
C6937 H6914 0.950 . S
C6937 C6936 1.334 . S
C6937 C6938 1.287 . S
C6938 C6937 1.287 . S
C6938 C6939 1.524 . S
C6938 H6957 0.913 . S
C6939 H6915 0.950 . S
C6939 C6938 1.524 . S
C6939 C6940 1.415 . S
C6940 H6916 0.950 . S
C6940 C6935 1.363 . S
C6940 C6939 1.415 . S
C6941 H6917 0.951 . S
C6941 C6942 1.366 . S
C6941 C6943 1.388 . S
C6942 C6941 1.366 . S
C6942 C6946 1.385 . S
C6943 H6918 0.951 . S
C6943 C6941 1.388 . S
C6943 C6944 1.366 . S
C6944 C6943 1.366 . S
C6944 C6945 1.414 . S
C6944 C6947 1.499 . S
C6945 H6919 0.950 . S
C6945 C6944 1.414 . S
C6945 C6946 1.374 . S
C6946 H6920 0.950 . S
C6946 C6942 1.385 . S
C6946 C6945 1.374 . S
C6947 C6944 1.499 . S
C6947 C6948 1.373 . S
C6947 C6949 1.389 . S
C6948 H6921 0.950 . S
C6948 C6934 1.377 . S
C6948 C6947 1.373 . S
C6949 C6933 1.377 . S
C6949 C6947 1.389 . S
C6949 C6950 1.524 . S
C6950 C6949 1.524 . S
C6950 C6951 1.397 . S
C6950 C6955 1.363 . S
C6951 H6922 0.950 . S
C6951 C6950 1.397 . S
C6951 C6952 1.334 . S
C6952 H6923 0.950 . S
C6952 C6951 1.334 . S
C6952 C6953 1.287 . S
C6953 C6952 1.287 . S
C6953 C6954 1.524 . S
C6953 H6956 0.999 . S
C6954 H6924 0.950 . S
C6954 C6953 1.524 . S
C6954 C6955 1.415 . S
C6955 H6925 0.950 . S
C6955 C6950 1.363 . S
C6955 C6954 1.415 . S
H6956 C6953 0.999 . S
H6957 C6938 0.913 . S
H6958 C6976 0.951 . S
H6959 C6978 0.951 . S
H6960 C6980 0.950 . S
H6961 C6981 0.950 . S
H6962 C6983 0.950 . S
H6963 C6986 0.950 . S
H6964 C6987 0.950 . S
H6965 C6989 0.950 . S
H6966 C6990 0.950 . S
H6967 C6991 0.951 . S
H6968 C6993 0.951 . S
H6969 C6995 0.950 . S
H6970 C6996 0.950 . S
H6971 C6998 0.950 . S
H6972 C7001 0.950 . S
H6973 C7002 0.950 . S
H6974 C7004 0.950 . S
H6975 C7005 0.950 . S
C6976 H6958 0.951 . S
C6976 C6977 1.366 . S
C6976 C6978 1.388 . S
C6977 C6976 1.366 . S
C6977 C6981 1.385 . S
C6978 H6959 0.951 . S
C6978 C6976 1.388 . S
C6978 C6979 1.366 . S
C6979 C6978 1.366 . S
C6979 C6980 1.414 . S
C6979 C6982 1.499 . S
C6980 H6960 0.950 . S
C6980 C6979 1.414 . S
C6980 C6981 1.374 . S
C6981 H6961 0.950 . S
C6981 C6977 1.385 . S
C6981 C6980 1.374 . S
C6982 C6979 1.499 . S
C6982 C6983 1.373 . S
C6982 C6984 1.389 . S
C6983 H6962 0.950 . S
C6983 C6982 1.373 . S
C6983 C6999 1.377 . S
C6984 C6982 1.389 . S
C6984 C6985 1.524 . S
C6984 C6998 1.377 . S
C6985 C6984 1.524 . S
C6985 C6986 1.397 . S
C6985 C6990 1.363 . S
C6986 H6963 0.950 . S
C6986 C6985 1.397 . S
C6986 C6987 1.334 . S
C6987 H6964 0.950 . S
C6987 C6986 1.334 . S
C6987 C6988 1.287 . S
C6988 C6987 1.287 . S
C6988 C6989 1.524 . S
C6988 H7007 0.913 . S
C6989 H6965 0.950 . S
C6989 C6988 1.524 . S
C6989 C6990 1.415 . S
C6990 H6966 0.950 . S
C6990 C6985 1.363 . S
C6990 C6989 1.415 . S
C6991 H6967 0.951 . S
C6991 C6992 1.366 . S
C6991 C6993 1.388 . S
C6992 C6991 1.366 . S
C6992 C6996 1.385 . S
C6993 H6968 0.951 . S
C6993 C6991 1.388 . S
C6993 C6994 1.366 . S
C6994 C6993 1.366 . S
C6994 C6995 1.414 . S
C6994 C6997 1.499 . S
C6995 H6969 0.950 . S
C6995 C6994 1.414 . S
C6995 C6996 1.374 . S
C6996 H6970 0.950 . S
C6996 C6992 1.385 . S
C6996 C6995 1.374 . S
C6997 C6994 1.499 . S
C6997 C6998 1.373 . S
C6997 C6999 1.389 . S
C6998 H6971 0.950 . S
C6998 C6984 1.377 . S
C6998 C6997 1.373 . S
C6999 C6983 1.377 . S
C6999 C6997 1.389 . S
C6999 C7000 1.524 . S
C7000 C6999 1.524 . S
C7000 C7001 1.397 . S
C7000 C7005 1.363 . S
C7001 H6972 0.950 . S
C7001 C7000 1.397 . S
C7001 C7002 1.334 . S
C7002 H6973 0.950 . S
C7002 C7001 1.334 . S
C7002 C7003 1.287 . S
C7003 C7002 1.287 . S
C7003 C7004 1.524 . S
C7003 H7006 0.999 . S
C7004 H6974 0.950 . S
C7004 C7003 1.524 . S
C7004 C7005 1.415 . S
C7005 H6975 0.950 . S
C7005 C7000 1.363 . S
C7005 C7004 1.415 . S
H7006 C7003 0.999 . S
H7007 C6988 0.913 . S
C2227 C255 1.941 . S
C2242 C920 1.953 . S
C2277 C147 1.816 . S
C2292 C1022 1.810 . S
C2327 C184 1.709 . S
C2342 C1088 1.735 . S
C2392 C1174 1.462 . S
C2377 C220 1.586 . S
C2427 C40 1.548 . S
C2442 C1258 1.426 . S
C2492 C1340 1.833 . S
C2477 C74 1.793 . S
C2542 C1442 1.844 . S
C2527 C110 1.858 . S
C2577 C14 1.891 . S
C2592 C1508 1.902 . S
C2642 C938 1.596 . S
C2627 C579 1.631 . S
C2677 C616 0.904 . S
C2692 C1006 0.868 . S
C2742 C1106 1.131 . S
C2727 C687 1.140 . S
C2792 C1172 1.653 . S
C2777 C436 1.639 . S
C2827 C580 1.612 . S
C2842 C1256 1.625 . S
C2892 C1358 1.106 . S
C2877 C615 1.116 . S
C2942 C1426 0.867 . S
C2927 C688 0.898 . S
C2992 C1526 1.572 . S
C2977 C435 1.608 . S
C3042 C922 0.882 . S
C3027 C410 0.922 . S
C3077 C722 1.732 . S
C3092 C1610 1.714 . S
C3142 C1678 1.337 . S
C3127 C842 1.394 . S
C3192 C1760 0.826 . S
C3177 C794 0.822 . S
C3227 C302 0.919 . S
C3242 C1510 0.894 . S
C3277 C338 1.363 . S
C3292 C1090 1.307 . S
C3327 C830 1.766 . S
C3342 C1862 1.746 . S
C3392 C1928 0.888 . S
C3377 C758 0.881 . S
C3442 C931 1.904 . S
C3427 C158 1.811 . S
C3492 C1935 1.776 . S
C3477 C254 1.791 . S
C3527 C218 1.705 . S
C3542 C1099 1.740 . S
C3577 C194 1.494 . S
C3592 C1857 1.435 . S
C3642 C1269 1.413 . S
C3627 C3 1.521 . S
C3677 C111 1.650 . S
C3692 C1687 1.650 . S
C3742 C1431 1.789 1_556 S
C3727 C76 1.797 . S
C3792 C2023 1.970 . S
C3777 C50 1.877 . S
C3842 C927 1.530 . S
C3827 C364 1.567 . S
C3892 C1941 0.830 . S
C3877 C795 0.850 . S
C3927 C292 1.078 . S
C3942 C1095 1.064 . S
C3977 C723 1.577 . S
C3992 C1855 1.572 . S
C4027 C363 1.588 . S
C4042 C1267 1.584 . S
C4092 C1683 1.083 . S
C4077 C796 1.095 . S
C4127 C291 0.870 . S
C4142 C1437 0.844 . S
C4177 C724 1.587 . S
C4192 C2019 1.550 . S
C4227 C482 0.860 . S
C4242 C933 0.862 . S
C4277 C434 1.692 . S
C4292 C1599 1.677 . S
C4327 C662 1.336 . S
C4342 C1353 1.313 . S
C4377 C614 0.808 . S
C4392 C1771 0.810 . S
C4442 C2025 0.887 . S
C4427 C698 0.891 . S
C4477 C554 1.328 . S
C4492 C1101 1.306 . S
C4542 C1179 1.679 . S
C4527 C650 1.695 . S
C4592 C1015 0.812 . S
C4577 C506 0.810 . S
C4627 C183 1.942 . S
C4642 C2096 1.955 . S
C4692 C1946 1.811 . S
C4677 C219 1.816 . S
C4727 C256 1.704 . S
C4742 C2180 1.731 . S
C4777 C148 1.584 1_655 S
C4792 C1846 1.460 . S
C4827 C122 1.544 . S
C4842 C1594 1.478 . S
C4892 C1676 1.760 . S
C4877 C2 1.721 1_655 S
C4942 C1778 1.739 . S
C4927 C39 1.741 . S
C4992 C2012 1.983 . S
C4977 C86 1.971 . S
C5042 C2114 1.607 . S
C5027 C651 1.641 . S
C5077 C472 0.904 1_556 S
C5092 C1930 0.866 . S
C5142 C2198 1.117 . S
C5127 C507 1.126 . S
C5192 C1844 1.661 . S
C5177 C544 1.647 . S
C5242 C1592 1.620 . S
C5227 C652 1.607 . S
C5277 C471 1.102 . S
C5292 C1694 1.091 . S
C5342 C1762 0.863 . S
C5327 C508 0.895 . S
C5377 C543 1.628 . S
C5392 C2030 1.592 . S
C5442 C2098 0.898 . S
C5427 C806 0.924 . S
C5477 C326 1.709 . S
C5492 C1274 1.692 . S
C5542 C1342 1.317 . S
C5527 C374 1.373 1_565 S
C5592 C1424 0.841 . S
C5577 C398 0.837 . S
C5642 C2014 0.894 . S
C5627 C770 0.919 . S
C5677 C734 1.352 . S
C5692 C2182 1.298 . S
C5742 C1190 1.732 . S
C5727 C362 1.750 . S
C5792 C1004 0.907 . S
C5777 C290 0.900 . S
C5827 C230 1.808 . S
C5842 C2107 1.901 . S
C5892 C1011 1.782 . S
C5877 C182 1.793 . S
C5927 C146 1.706 . S
C5942 C2191 1.740 . S
C5977 C266 1.496 . S
C5992 C1185 1.435 . S
C6027 C75 1.566 . S
C6042 C1605 1.454 . S
C6092 C1351 1.806 . S
C6077 C38 1.768 . S
C6127 C4 1.720 . S
C6142 C1767 1.712 . S
C6177 C112 1.870 . S
C6192 C1519 1.882 . S
C6242 C2103 1.533 . S
C6227 C832 1.570 . S
C6277 C399 0.862 . S
C6292 C1017 0.835 . S
C6342 C2187 1.081 . S
C6327 C760 1.073 . S
C6377 C327 1.571 . S
C6392 C1183 1.567 . S
C6427 C831 1.618 . S
C6442 C1603 1.614 . S
C6492 C1347 1.087 . S
C6477 C400 1.106 . S
C6527 C759 0.875 . S
C6542 C1773 0.849 . S
C6592 C1515 1.556 . S
C6577 C328 1.592 . S
C6642 C2109 0.868 . S
C6627 C626 0.870 . S
C6692 C1263 1.683 1_565 S
C6677 C542 1.699 . S
C6727 C590 1.309 . S
C6742 C1689 1.285 . S
C6792 C1435 0.818 . S
C6777 C470 0.814 . S
C6827 C518 0.873 . S
C6842 C1521 0.869 . S
C6877 C446 1.320 . S
C6892 C2193 1.300 . S
C6942 C1851 1.693 . S
C6927 C578 1.709 . S
C6992 C1939 0.788 . S
C6977 C686 0.785 . S
