# Generated by pormake.
# Topology iac, (4,6)-cn, num edge types: 1
# Building blocks:
#     Node 0, Type 0, BuildingBlock: UXUYUI_clean_sbu_0, # of connection points: 4
#     Node 1, Type 0, BuildingBlock: UXUYUI_clean_sbu_0, # of connection points: 4
#     Node 2, Type 0, BuildingBlock: UXUYUI_clean_sbu_0, # of connection points: 4
#     Node 3, Type 0, BuildingBlock: UXUYUI_clean_sbu_0, # of connection points: 4
#     Node 4, Type 0, BuildingBlock: UXUYUI_clean_sbu_0, # of connection points: 4
#     Node 5, Type 0, BuildingBlock: UXUYUI_clean_sbu_0, # of connection points: 4
#     Node 6, Type 0, BuildingBlock: UXUYUI_clean_sbu_0, # of connection points: 4
#     Node 7, Type 0, BuildingBlock: UXUYUI_clean_sbu_0, # of connection points: 4
#     Node 8, Type 0, BuildingBlock: UXUYUI_clean_sbu_0, # of connection points: 4
#     Node 9, Type 0, BuildingBlock: UXUYUI_clean_sbu_0, # of connection points: 4
#     Node 10, Type 0, BuildingBlock: UXUYUI_clean_sbu_0, # of connection points: 4
#     Node 11, Type 0, BuildingBlock: UXUYUI_clean_sbu_0, # of connection points: 4
#     Node 12, Type 0, BuildingBlock: UXUYUI_clean_sbu_0, # of connection points: 4
#     Node 13, Type 0, BuildingBlock: UXUYUI_clean_sbu_0, # of connection points: 4
#     Node 14, Type 0, BuildingBlock: UXUYUI_clean_sbu_0, # of connection points: 4
#     Node 15, Type 0, BuildingBlock: UXUYUI_clean_sbu_0, # of connection points: 4
#     Node 16, Type 0, BuildingBlock: UXUYUI_clean_sbu_0, # of connection points: 4
#     Node 17, Type 0, BuildingBlock: UXUYUI_clean_sbu_0, # of connection points: 4
#     Node 18, Type 0, BuildingBlock: UXUYUI_clean_sbu_0, # of connection points: 4
#     Node 19, Type 0, BuildingBlock: UXUYUI_clean_sbu_0, # of connection points: 4
#     Node 20, Type 0, BuildingBlock: UXUYUI_clean_sbu_0, # of connection points: 4
#     Node 21, Type 0, BuildingBlock: UXUYUI_clean_sbu_0, # of connection points: 4
#     Node 22, Type 0, BuildingBlock: UXUYUI_clean_sbu_0, # of connection points: 4
#     Node 23, Type 0, BuildingBlock: UXUYUI_clean_sbu_0, # of connection points: 4
#     Node 24, Type 1, BuildingBlock: JUFBIX_clean_sbu_0, # of connection points: 6
#     Node 25, Type 1, BuildingBlock: JUFBIX_clean_sbu_0, # of connection points: 6
#     Node 26, Type 1, BuildingBlock: JUFBIX_clean_sbu_0, # of connection points: 6
#     Node 27, Type 1, BuildingBlock: JUFBIX_clean_sbu_0, # of connection points: 6
#     Node 28, Type 1, BuildingBlock: JUFBIX_clean_sbu_0, # of connection points: 6
#     Node 29, Type 1, BuildingBlock: JUFBIX_clean_sbu_0, # of connection points: 6
#     Node 30, Type 1, BuildingBlock: JUFBIX_clean_sbu_0, # of connection points: 6
#     Node 31, Type 1, BuildingBlock: JUFBIX_clean_sbu_0, # of connection points: 6
#     Node 32, Type 1, BuildingBlock: JUFBIX_clean_sbu_0, # of connection points: 6
#     Node 33, Type 1, BuildingBlock: JUFBIX_clean_sbu_0, # of connection points: 6
#     Node 34, Type 1, BuildingBlock: JUFBIX_clean_sbu_0, # of connection points: 6
#     Node 35, Type 1, BuildingBlock: JUFBIX_clean_sbu_0, # of connection points: 6
#     Node 36, Type 1, BuildingBlock: JUFBIX_clean_sbu_0, # of connection points: 6
#     Node 37, Type 1, BuildingBlock: JUFBIX_clean_sbu_0, # of connection points: 6
#     Node 38, Type 1, BuildingBlock: JUFBIX_clean_sbu_0, # of connection points: 6
#     Node 39, Type 1, BuildingBlock: JUFBIX_clean_sbu_0, # of connection points: 6
#     Edge 40, Type (0, 1), BuildingBlock: KIFKEQ_clean_linker_1, # of connection points: 2
#     Edge 41, Type (0, 1), BuildingBlock: KIFKEQ_clean_linker_1, # of connection points: 2
#     Edge 42, Type (0, 1), BuildingBlock: KIFKEQ_clean_linker_1, # of connection points: 2
#     Edge 43, Type (0, 1), BuildingBlock: KIFKEQ_clean_linker_1, # of connection points: 2
#     Edge 44, Type (0, 1), BuildingBlock: KIFKEQ_clean_linker_1, # of connection points: 2
#     Edge 45, Type (0, 1), BuildingBlock: KIFKEQ_clean_linker_1, # of connection points: 2
#     Edge 46, Type (0, 1), BuildingBlock: KIFKEQ_clean_linker_1, # of connection points: 2
#     Edge 47, Type (0, 1), BuildingBlock: KIFKEQ_clean_linker_1, # of connection points: 2
#     Edge 48, Type (0, 1), BuildingBlock: KIFKEQ_clean_linker_1, # of connection points: 2
#     Edge 49, Type (0, 1), BuildingBlock: KIFKEQ_clean_linker_1, # of connection points: 2
#     Edge 50, Type (0, 1), BuildingBlock: KIFKEQ_clean_linker_1, # of connection points: 2
#     Edge 51, Type (0, 1), BuildingBlock: KIFKEQ_clean_linker_1, # of connection points: 2
#     Edge 52, Type (0, 1), BuildingBlock: KIFKEQ_clean_linker_1, # of connection points: 2
#     Edge 53, Type (0, 1), BuildingBlock: KIFKEQ_clean_linker_1, # of connection points: 2
#     Edge 54, Type (0, 1), BuildingBlock: KIFKEQ_clean_linker_1, # of connection points: 2
#     Edge 55, Type (0, 1), BuildingBlock: KIFKEQ_clean_linker_1, # of connection points: 2
#     Edge 56, Type (0, 1), BuildingBlock: KIFKEQ_clean_linker_1, # of connection points: 2
#     Edge 57, Type (0, 1), BuildingBlock: KIFKEQ_clean_linker_1, # of connection points: 2
#     Edge 58, Type (0, 1), BuildingBlock: KIFKEQ_clean_linker_1, # of connection points: 2
#     Edge 59, Type (0, 1), BuildingBlock: KIFKEQ_clean_linker_1, # of connection points: 2
#     Edge 60, Type (0, 1), BuildingBlock: KIFKEQ_clean_linker_1, # of connection points: 2
#     Edge 61, Type (0, 1), BuildingBlock: KIFKEQ_clean_linker_1, # of connection points: 2
#     Edge 62, Type (0, 1), BuildingBlock: KIFKEQ_clean_linker_1, # of connection points: 2
#     Edge 63, Type (0, 1), BuildingBlock: KIFKEQ_clean_linker_1, # of connection points: 2
#     Edge 64, Type (0, 1), BuildingBlock: KIFKEQ_clean_linker_1, # of connection points: 2
#     Edge 65, Type (0, 1), BuildingBlock: KIFKEQ_clean_linker_1, # of connection points: 2
#     Edge 66, Type (0, 1), BuildingBlock: KIFKEQ_clean_linker_1, # of connection points: 2
#     Edge 67, Type (0, 1), BuildingBlock: KIFKEQ_clean_linker_1, # of connection points: 2
#     Edge 68, Type (0, 1), BuildingBlock: KIFKEQ_clean_linker_1, # of connection points: 2
#     Edge 69, Type (0, 1), BuildingBlock: KIFKEQ_clean_linker_1, # of connection points: 2
#     Edge 70, Type (0, 1), BuildingBlock: KIFKEQ_clean_linker_1, # of connection points: 2
#     Edge 71, Type (0, 1), BuildingBlock: KIFKEQ_clean_linker_1, # of connection points: 2
#     Edge 72, Type (0, 1), BuildingBlock: KIFKEQ_clean_linker_1, # of connection points: 2
#     Edge 73, Type (0, 1), BuildingBlock: KIFKEQ_clean_linker_1, # of connection points: 2
#     Edge 74, Type (0, 1), BuildingBlock: KIFKEQ_clean_linker_1, # of connection points: 2
#     Edge 75, Type (0, 1), BuildingBlock: KIFKEQ_clean_linker_1, # of connection points: 2
#     Edge 76, Type (0, 1), BuildingBlock: KIFKEQ_clean_linker_1, # of connection points: 2
#     Edge 77, Type (0, 1), BuildingBlock: KIFKEQ_clean_linker_1, # of connection points: 2
#     Edge 78, Type (0, 1), BuildingBlock: KIFKEQ_clean_linker_1, # of connection points: 2
#     Edge 79, Type (0, 1), BuildingBlock: KIFKEQ_clean_linker_1, # of connection points: 2
#     Edge 80, Type (0, 1), BuildingBlock: KIFKEQ_clean_linker_1, # of connection points: 2
#     Edge 81, Type (0, 1), BuildingBlock: KIFKEQ_clean_linker_1, # of connection points: 2
#     Edge 82, Type (0, 1), BuildingBlock: KIFKEQ_clean_linker_1, # of connection points: 2
#     Edge 83, Type (0, 1), BuildingBlock: KIFKEQ_clean_linker_1, # of connection points: 2
#     Edge 84, Type (0, 1), BuildingBlock: KIFKEQ_clean_linker_1, # of connection points: 2
#     Edge 85, Type (0, 1), BuildingBlock: KIFKEQ_clean_linker_1, # of connection points: 2
#     Edge 86, Type (0, 1), BuildingBlock: KIFKEQ_clean_linker_1, # of connection points: 2
#     Edge 87, Type (0, 1), BuildingBlock: KIFKEQ_clean_linker_1, # of connection points: 2
#     Edge 88, Type (0, 1), BuildingBlock: KIFKEQ_clean_linker_1, # of connection points: 2
#     Edge 89, Type (0, 1), BuildingBlock: KIFKEQ_clean_linker_1, # of connection points: 2
#     Edge 90, Type (0, 1), BuildingBlock: KIFKEQ_clean_linker_1, # of connection points: 2
#     Edge 91, Type (0, 1), BuildingBlock: KIFKEQ_clean_linker_1, # of connection points: 2
#     Edge 92, Type (0, 1), BuildingBlock: KIFKEQ_clean_linker_1, # of connection points: 2
#     Edge 93, Type (0, 1), BuildingBlock: KIFKEQ_clean_linker_1, # of connection points: 2
#     Edge 94, Type (0, 1), BuildingBlock: KIFKEQ_clean_linker_1, # of connection points: 2
#     Edge 95, Type (0, 1), BuildingBlock: KIFKEQ_clean_linker_1, # of connection points: 2
#     Edge 96, Type (0, 1), BuildingBlock: KIFKEQ_clean_linker_1, # of connection points: 2
#     Edge 97, Type (0, 1), BuildingBlock: KIFKEQ_clean_linker_1, # of connection points: 2
#     Edge 98, Type (0, 1), BuildingBlock: KIFKEQ_clean_linker_1, # of connection points: 2
#     Edge 99, Type (0, 1), BuildingBlock: KIFKEQ_clean_linker_1, # of connection points: 2
#     Edge 100, Type (0, 1), BuildingBlock: KIFKEQ_clean_linker_1, # of connection points: 2
#     Edge 101, Type (0, 1), BuildingBlock: KIFKEQ_clean_linker_1, # of connection points: 2
#     Edge 102, Type (0, 1), BuildingBlock: KIFKEQ_clean_linker_1, # of connection points: 2
#     Edge 103, Type (0, 1), BuildingBlock: KIFKEQ_clean_linker_1, # of connection points: 2
#     Edge 104, Type (0, 1), BuildingBlock: KIFKEQ_clean_linker_1, # of connection points: 2
#     Edge 105, Type (0, 1), BuildingBlock: KIFKEQ_clean_linker_1, # of connection points: 2
#     Edge 106, Type (0, 1), BuildingBlock: KIFKEQ_clean_linker_1, # of connection points: 2
#     Edge 107, Type (0, 1), BuildingBlock: KIFKEQ_clean_linker_1, # of connection points: 2
#     Edge 108, Type (0, 1), BuildingBlock: KIFKEQ_clean_linker_1, # of connection points: 2
#     Edge 109, Type (0, 1), BuildingBlock: KIFKEQ_clean_linker_1, # of connection points: 2
#     Edge 110, Type (0, 1), BuildingBlock: KIFKEQ_clean_linker_1, # of connection points: 2
#     Edge 111, Type (0, 1), BuildingBlock: KIFKEQ_clean_linker_1, # of connection points: 2
#     Edge 112, Type (0, 1), BuildingBlock: KIFKEQ_clean_linker_1, # of connection points: 2
#     Edge 113, Type (0, 1), BuildingBlock: KIFKEQ_clean_linker_1, # of connection points: 2
#     Edge 114, Type (0, 1), BuildingBlock: KIFKEQ_clean_linker_1, # of connection points: 2
#     Edge 115, Type (0, 1), BuildingBlock: KIFKEQ_clean_linker_1, # of connection points: 2
#     Edge 116, Type (0, 1), BuildingBlock: KIFKEQ_clean_linker_1, # of connection points: 2
#     Edge 117, Type (0, 1), BuildingBlock: KIFKEQ_clean_linker_1, # of connection points: 2
#     Edge 118, Type (0, 1), BuildingBlock: KIFKEQ_clean_linker_1, # of connection points: 2
#     Edge 119, Type (0, 1), BuildingBlock: KIFKEQ_clean_linker_1, # of connection points: 2
#     Edge 120, Type (0, 1), BuildingBlock: KIFKEQ_clean_linker_1, # of connection points: 2
#     Edge 121, Type (0, 1), BuildingBlock: KIFKEQ_clean_linker_1, # of connection points: 2
#     Edge 122, Type (0, 1), BuildingBlock: KIFKEQ_clean_linker_1, # of connection points: 2
#     Edge 123, Type (0, 1), BuildingBlock: KIFKEQ_clean_linker_1, # of connection points: 2
#     Edge 124, Type (0, 1), BuildingBlock: KIFKEQ_clean_linker_1, # of connection points: 2
#     Edge 125, Type (0, 1), BuildingBlock: KIFKEQ_clean_linker_1, # of connection points: 2
#     Edge 126, Type (0, 1), BuildingBlock: KIFKEQ_clean_linker_1, # of connection points: 2
#     Edge 127, Type (0, 1), BuildingBlock: KIFKEQ_clean_linker_1, # of connection points: 2
#     Edge 128, Type (0, 1), BuildingBlock: KIFKEQ_clean_linker_1, # of connection points: 2
#     Edge 129, Type (0, 1), BuildingBlock: KIFKEQ_clean_linker_1, # of connection points: 2
#     Edge 130, Type (0, 1), BuildingBlock: KIFKEQ_clean_linker_1, # of connection points: 2
#     Edge 131, Type (0, 1), BuildingBlock: KIFKEQ_clean_linker_1, # of connection points: 2
#     Edge 132, Type (0, 1), BuildingBlock: KIFKEQ_clean_linker_1, # of connection points: 2
#     Edge 133, Type (0, 1), BuildingBlock: KIFKEQ_clean_linker_1, # of connection points: 2
#     Edge 134, Type (0, 1), BuildingBlock: KIFKEQ_clean_linker_1, # of connection points: 2
#     Edge 135, Type (0, 1), BuildingBlock: KIFKEQ_clean_linker_1, # of connection points: 2
# Relax obj value: 0.258
# Max RMSD: 0.230
# Mean RMSD: 0.174
data_MOF--net-iac--node1-UXUYUI_clean_sbu_0--node2-JUFBIX_clean_sbu_0--edge1-KIFKEQ_clean_linker_1
_symmetry_space_group_name_H-M    P1
_symmetry_Int_Tables_number       1
_symmetry_cell_setting            triclinic
loop_
_symmetry_equiv_pos_as_xyz
'x, y, z'
_cell_length_a     67.793886
_cell_length_b     68.835762
_cell_length_c     68.203235
_cell_angle_alpha  89.293005
_cell_angle_beta   88.334068
_cell_angle_gamma 88.823258
loop_
_atom_site_label
_atom_site_type_symbol
_atom_site_fract_x
_atom_site_fract_y
_atom_site_fract_z
_atom_type_partial_charge
Li0 Li 0.02517 0.29467 0.13132 0.0
Li1 Li 0.04311 0.27629 0.15708 0.0
Li2 Li 0.02549 0.25807 0.13186 0.0
Li3 Li 0.00643 0.27635 0.15711 0.0
C4 C 0.05482 0.2756 0.10877 0.0
N5 N 0.0676 0.27442 0.06996 0.0
C6 C 0.0748 0.27241 0.10402 0.0
C7 C 0.04134 0.27823 0.0938 0.0
C8 C 0.08097 0.27185 0.0843 0.0
C9 C 0.04809 0.27757 0.07427 0.0
C10 C 0.03329 0.31574 0.16443 0.0
C11 C 0.03314 0.34712 0.17976 0.0
N12 N 0.05174 0.35004 0.17244 0.0
C13 C 0.0524 0.31904 0.15708 0.0
C14 C 0.02356 0.32986 0.17588 0.0
C15 C 0.06148 0.33647 0.16128 0.0
C16 C 0.00667 0.32817 0.11311 0.0
N17 N 0.02451 0.31936 0.11621 0.0
C18 C 0.04096 0.34704 0.10196 0.0
C19 C 0.0415 0.32835 0.11053 0.0
C20 C 0.02275 0.35665 0.09884 0.0
C21 C 0.00544 0.34672 0.1043 0.0
H22 H 0.99331 0.32099 0.11796 0.0
H23 H 0.05558 0.32124 0.11311 0.0
C24 C 0.0831 0.26574 0.16653 0.0
N25 N 0.06685 0.2759 0.17318 0.0
C26 C 0.10062 0.26545 0.17706 0.0
C27 C 0.08455 0.286 0.20127 0.0
C28 C 0.0673 0.28583 0.19033 0.0
C29 C 0.10166 0.27577 0.19471 0.0
H30 H 0.08253 0.25797 0.15288 0.0
H31 H 0.0543 0.29379 0.1955 0.0
C32 C 0.98567 0.26766 0.12367 0.0
N33 N 0.95117 0.24944 0.11481 0.0
C34 C 0.98187 0.24907 0.13112 0.0
C35 C 0.97195 0.27699 0.11169 0.0
C36 C 0.96434 0.2401 0.12649 0.0
C37 C 0.95458 0.26753 0.10738 0.0
C38 C 0.02488 0.24819 0.1803 0.0
C39 C 0.02695 0.22857 0.18553 0.0
C40 C 0.02253 0.26213 0.19498 0.0
C41 C 0.02678 0.22323 0.20537 0.0
C42 C 0.02245 0.25621 0.21464 0.0
N43 N 0.02457 0.23705 0.21939 0.0
C44 C 0.03308 0.21738 0.12603 0.0
C45 C 0.01731 0.23214 0.09909 0.0
C46 C 0.03197 0.199 0.11745 0.0
N47 N 0.02563 0.23354 0.11696 0.0
C48 C 0.016 0.21401 0.0899 0.0
C49 C 0.0232 0.19692 0.09912 0.0
H50 H 0.03958 0.21868 0.14022 0.0
H51 H 0.0113 0.24505 0.09207 0.0
C52 C 0.97221 0.29379 0.17616 0.0
N53 N 0.98171 0.27655 0.17249 0.0
C54 C 0.95371 0.29428 0.18596 0.0
C55 C 0.955 0.25927 0.18803 0.0
C56 C 0.97356 0.25946 0.17844 0.0
C57 C 0.94469 0.27683 0.19183 0.0
H58 H 0.97884 0.30719 0.17115 0.0
H59 H 0.98131 0.24589 0.17543 0.0
O60 O 0.04861 0.27615 0.12801 0.0
O61 O 0.02404 0.29884 0.1604 0.0
O62 O 0.00271 0.27676 0.12806 0.0
O63 O 0.02496 0.2536 0.16092 0.0
H64 H 0.08542 0.27038 0.11545 0.0
H65 H 0.02583 0.28079 0.09716 0.0
H66 H 0.09639 0.26938 0.0804 0.0
H67 H 0.03782 0.27957 0.06253 0.0
H68 H 0.02579 0.35819 0.18859 0.0
H69 H 0.06014 0.30827 0.14817 0.0
H70 H 0.00876 0.32751 0.18168 0.0
H71 H 0.07625 0.33923 0.15566 0.0
H72 H 0.05471 0.35394 0.09786 0.0
H73 H 0.99106 0.35351 0.1024 0.0
H74 H 0.11337 0.25752 0.17117 0.0
H75 H 0.08439 0.29397 0.21486 0.0
H76 H 0.99234 0.24164 0.14042 0.0
H77 H 0.9747 0.29137 0.10577 0.0
H78 H 0.96121 0.22572 0.13218 0.0
H79 H 0.94382 0.27458 0.09814 0.0
H80 H 0.02862 0.21755 0.1744 0.0
H81 H 0.02072 0.27735 0.19129 0.0
H82 H 0.02839 0.2081 0.20961 0.0
H83 H 0.02068 0.26685 0.22613 0.0
H84 H 0.03751 0.18647 0.12548 0.0
H85 H 0.00937 0.21348 0.07568 0.0
H86 H 0.94628 0.30815 0.1884 0.0
H87 H 0.94879 0.24547 0.19247 0.0
Li88 Li 0.00921 0.74122 0.39276 0.0
Li89 Li 0.01633 0.76725 0.41507 0.0
Li90 Li 0.04183 0.75336 0.39332 0.0
Li91 Li 0.02902 0.7353 0.42146 0.0
C92 C 0.00466 0.77343 0.3724 0.0
N93 N 0.97638 0.78259 0.34522 0.0
C94 C 0.98794 0.78451 0.37788 0.0
C95 C 0.00706 0.76712 0.35305 0.0
C96 C 0.97381 0.78899 0.36392 0.0
C97 C 0.99257 0.77184 0.33955 0.0
C98 C 0.99209 0.73283 0.43485 0.0
C99 C 0.98639 0.72456 0.469 0.0
N100 N 0.97545 0.70925 0.46368 0.0
C101 C 0.98074 0.71705 0.42972 0.0
C102 C 0.99488 0.73668 0.45465 0.0
C103 C 0.97246 0.7053 0.44451 0.0
C104 C 0.99345 0.7212 0.36058 0.0
N105 N 0.98921 0.7319 0.37684 0.0
C106 C 0.9554 0.73502 0.36851 0.0
C107 C 0.97059 0.73838 0.38126 0.0
C108 C 0.95952 0.72504 0.35099 0.0
C109 C 0.97871 0.71767 0.34727 0.0
H110 H 0.00841 0.71626 0.35746 0.0
H111 H 0.96777 0.74703 0.39421 0.0
C112 C 0.01529 0.80723 0.42075 0.0
N113 N 0.00674 0.7904 0.42662 0.0
C114 C 0.00999 0.82457 0.42995 0.0
C115 C 0.98623 0.80711 0.45019 0.0
C116 C 0.99218 0.79004 0.44072 0.0
C117 C 0.99542 0.82464 0.44505 0.0
H118 H 0.02661 0.80705 0.40925 0.0
H119 H 0.98533 0.77649 0.44475 0.0
C120 C 0.04958 0.71696 0.38524 0.0
N121 N 0.08277 0.70081 0.36686 0.0
C122 C 0.06381 0.70713 0.39625 0.0
C123 C 0.05219 0.71848 0.36487 0.0
C124 C 0.08048 0.69907 0.38667 0.0
C125 C 0.06909 0.71027 0.35586 0.0
C126 C 0.04997 0.77452 0.43204 0.0
C127 C 0.06197 0.78859 0.42318 0.0
C128 C 0.04389 0.77649 0.45169 0.0
C129 C 0.06757 0.80449 0.43411 0.0
C130 C 0.04976 0.79263 0.4621 0.0
N131 N 0.06138 0.80618 0.45317 0.0
C132 C 0.0653 0.76685 0.36082 0.0
C133 C 0.08242 0.75321 0.38771 0.0
C134 C 0.08307 0.76977 0.35046 0.0
N135 N 0.06536 0.75853 0.37899 0.0
C136 C 0.10048 0.75594 0.37797 0.0
C137 C 0.10093 0.76425 0.35907 0.0
H138 H 0.05149 0.7711 0.35436 0.0
H139 H 0.08192 0.74666 0.40221 0.0
C140 C 0.02707 0.69953 0.4404 0.0
N141 N 0.03564 0.71714 0.44109 0.0
C142 C 0.031 0.68552 0.45466 0.0
C143 C 0.0535 0.70757 0.46942 0.0
C144 C 0.04879 0.72138 0.45504 0.0
C145 C 0.04431 0.68956 0.46933 0.0
H146 H 0.0172 0.69641 0.42873 0.0
H147 H 0.05574 0.73537 0.45488 0.0
O148 O 0.01836 0.76839 0.386 0.0
O149 O 1.00054 0.74437 0.42058 0.0
O150 O 0.03336 0.72532 0.39439 0.0
O151 O 0.04407 0.75899 0.42151 0.0
H152 H 0.98574 0.78941 0.3928 0.0
H153 H 0.01974 0.75826 0.34862 0.0
H154 H 0.96075 0.79747 0.36799 0.0
H155 H 0.99412 0.76685 0.32459 0.0
H156 H 0.98855 0.7273 0.48437 0.0
H157 H 0.97855 0.71373 0.41449 0.0
H158 H 0.00371 0.74875 0.4589 0.0
H159 H 0.96373 0.69298 0.44075 0.0
H160 H 0.94089 0.74125 0.37175 0.0
H161 H 0.98241 0.70987 0.33392 0.0
H162 H 0.01769 0.83764 0.42565 0.0
H163 H 0.97467 0.80656 0.46146 0.0
H164 H 0.06211 0.70586 0.41202 0.0
H165 H 0.04152 0.72633 0.35615 0.0
H166 H 0.09165 0.69148 0.39501 0.0
H167 H 0.07139 0.71152 0.34014 0.0
H168 H 0.0667 0.7874 0.40795 0.0
H169 H 0.03456 0.76578 0.45877 0.0
H170 H 0.07676 0.81554 0.42741 0.0
H171 H 0.04505 0.7944 0.47728 0.0
H172 H 0.08286 0.77641 0.33599 0.0
H173 H 0.11392 0.75127 0.385 0.0
H174 H 0.02401 0.67153 0.45407 0.0
H175 H 0.06406 0.71089 0.48045 0.0
Li176 Li 0.5418 0.77365 0.659 0.0
Li177 Li 0.52366 0.79184 0.63115 0.0
Li178 Li 0.50526 0.77455 0.65657 0.0
Li179 Li 0.52304 0.7546 0.63208 0.0
C180 C 0.51085 0.80885 0.67038 0.0
N181 N 0.4841 0.83184 0.69142 0.0
C182 C 0.49675 0.82014 0.66063 0.0
C183 C 0.5113 0.80921 0.69084 0.0
C184 C 0.48337 0.83168 0.67152 0.0
C185 C 0.49767 0.82095 0.70122 0.0
C186 C 0.56198 0.77758 0.61764 0.0
C187 C 0.58105 0.77499 0.58734 0.0
N188 N 0.59371 0.78837 0.5939 0.0
C189 C 0.57528 0.79115 0.62415 0.0
C190 C 0.56496 0.76928 0.59915 0.0
C191 C 0.59119 0.79648 0.6119 0.0
C192 C 0.58272 0.76481 0.66622 0.0
N193 N 0.56598 0.77285 0.67451 0.0
C194 C 0.58383 0.78052 0.70334 0.0
C195 C 0.56627 0.78045 0.69285 0.0
C196 C 0.60148 0.77284 0.69491 0.0
C197 C 0.60063 0.7648 0.67608 0.0
H198 H 0.58226 0.75854 0.65179 0.0
H199 H 0.55292 0.78664 0.69936 0.0
C200 C 0.50936 0.82224 0.60399 0.0
N201 N 0.5246 0.81641 0.61545 0.0
C202 C 0.50939 0.84049 0.59447 0.0
C203 C 0.5406 0.84682 0.60881 0.0
C204 C 0.53996 0.82848 0.61805 0.0
C205 C 0.52511 0.85325 0.59685 0.0
H206 H 0.49674 0.81308 0.6027 0.0
H207 H 0.55156 0.82415 0.6278 0.0
C208 C 0.5136 0.74072 0.6753 0.0
N209 N 0.49365 0.71927 0.7037 0.0
C210 C 0.4969 0.73043 0.67049 0.0
C211 C 0.52028 0.74 0.69449 0.0
C212 C 0.48697 0.71972 0.68508 0.0
C213 C 0.50996 0.72908 0.70866 0.0
C214 C 0.49561 0.7725 0.60863 0.0
C215 C 0.47632 0.7678 0.60407 0.0
C216 C 0.50968 0.77515 0.59351 0.0
C217 C 0.47141 0.76601 0.58443 0.0
C218 C 0.50419 0.77327 0.57406 0.0
N219 N 0.48532 0.76877 0.56995 0.0
C220 C 0.46371 0.78001 0.66126 0.0
C221 C 0.47851 0.77293 0.69152 0.0
C222 C 0.44494 0.7808 0.67041 0.0
N223 N 0.48007 0.77584 0.67174 0.0
C224 C 0.45998 0.77355 0.70131 0.0
C225 C 0.44274 0.77734 0.69073 0.0
H226 H 0.46521 0.78286 0.64569 0.0
H227 H 0.49164 0.77007 0.69978 0.0
C228 C 0.53986 0.71975 0.61352 0.0
N229 N 0.5228 0.72979 0.61791 0.0
C230 C 0.53942 0.70134 0.60479 0.0
C231 C 0.50393 0.70385 0.60503 0.0
C232 C 0.50504 0.72214 0.6138 0.0
C233 C 0.52125 0.69298 0.60046 0.0
H234 H 0.55386 0.7259 0.61706 0.0
H235 H 0.49159 0.73004 0.61774 0.0
O236 O 0.52362 0.79698 0.65993 0.0
O237 O 0.5464 0.77204 0.62949 0.0
O238 O 0.52342 0.75142 0.66128 0.0
O239 O 0.50079 0.77377 0.62783 0.0
H240 H 0.49591 0.81976 0.64484 0.0
H241 H 0.5218 0.8003 0.69868 0.0
H242 H 0.47233 0.84042 0.66415 0.0
H243 H 0.4978 0.8213 0.71706 0.0
H244 H 0.58349 0.76875 0.57297 0.0
H245 H 0.57332 0.79752 0.63852 0.0
H246 H 0.55497 0.75853 0.59399 0.0
H247 H 0.60155 0.80704 0.61673 0.0
H248 H 0.58367 0.78697 0.71775 0.0
H249 H 0.61369 0.75842 0.66903 0.0
H250 H 0.49683 0.84478 0.58586 0.0
H251 H 0.55313 0.85591 0.61115 0.0
H252 H 0.49153 0.73092 0.6557 0.0
H253 H 0.53322 0.74789 0.6984 0.0
H254 H 0.47393 0.71178 0.68162 0.0
H255 H 0.5149 0.72844 0.7236 0.0
H256 H 0.4653 0.76533 0.61556 0.0
H257 H 0.5246 0.77888 0.59674 0.0
H258 H 0.45654 0.76236 0.5807 0.0
H259 H 0.51493 0.7754 0.56222 0.0
H260 H 0.43229 0.7843 0.66161 0.0
H261 H 0.45917 0.77073 0.71696 0.0
H262 H 0.55324 0.69377 0.60142 0.0
H263 H 0.48953 0.69807 0.60238 0.0
Li264 Li 0.51889 0.25729 0.90124 0.0
Li265 Li 0.53504 0.27663 0.92507 0.0
Li266 Li 0.55398 0.26013 0.89902 0.0
Li267 Li 0.53917 0.24236 0.92646 0.0
C268 C 0.52337 0.29103 0.88304 0.0
N269 N 0.49947 0.30962 0.85622 0.0
C270 C 0.50986 0.30547 0.88921 0.0
C271 C 0.52485 0.28618 0.8632 0.0
C272 C 0.4979 0.31469 0.87543 0.0
C273 C 0.51259 0.2957 0.84989 0.0
C274 C 0.50324 0.24639 0.94256 0.0
C275 C 0.49747 0.23209 0.97466 0.0
N276 N 0.48167 0.22269 0.9678 0.0
C277 C 0.48694 0.23657 0.93585 0.0
C278 C 0.50854 0.24415 0.96215 0.0
C279 C 0.47623 0.22467 0.94884 0.0
C280 C 0.49523 0.24445 0.87054 0.0
N281 N 0.49593 0.25597 0.88652 0.0
C282 C 0.46452 0.27024 0.87977 0.0
C283 C 0.4808 0.26828 0.89164 0.0
C284 C 0.46379 0.25921 0.86265 0.0
C285 C 0.47912 0.2458 0.85831 0.0
H286 H 0.50742 0.23467 0.86696 0.0
H287 H 0.48176 0.27709 0.90458 0.0
C288 C 0.53792 0.31669 0.93215 0.0
N289 N 0.53221 0.2994 0.94003 0.0
C290 C 0.53411 0.33383 0.94239 0.0
C291 C 0.51959 0.31486 0.969 0.0
C292 C 0.52338 0.29816 0.95812 0.0
C293 C 0.52465 0.33296 0.96095 0.0
H294 H 0.54492 0.31717 0.9177 0.0
H295 H 0.51889 0.28427 0.96392 0.0
C296 C 0.54833 0.22385 0.88578 0.0
N297 N 0.56962 0.19975 0.86047 0.0
C298 C 0.55807 0.20726 0.89298 0.0
C299 C 0.54929 0.22808 0.86568 0.0
C300 C 0.56878 0.19528 0.87995 0.0
C301 C 0.56018 0.21576 0.85313 0.0
C302 C 0.57037 0.27441 0.93756 0.0
C303 C 0.58231 0.28793 0.92774 0.0
C304 C 0.56828 0.27488 0.958 0.0
C305 C 0.59195 0.30176 0.93858 0.0
C306 C 0.57815 0.28896 0.9683 0.0
N307 N 0.58967 0.302 0.95846 0.0
C308 C 0.57964 0.27529 0.86922 0.0
C309 C 0.59017 0.24614 0.88495 0.0
C310 C 0.59687 0.27541 0.85751 0.0
N311 N 0.57666 0.26072 0.88251 0.0
C312 C 0.60724 0.24534 0.87318 0.0
C313 C 0.61097 0.26024 0.85936 0.0
H314 H 0.56884 0.28698 0.868 0.0
H315 H 0.58762 0.23507 0.89604 0.0
C316 C 0.53005 0.20598 0.94252 0.0
N317 N 0.54311 0.22065 0.94282 0.0
C318 C 0.53247 0.18988 0.95478 0.0
C319 C 0.56246 0.20373 0.96645 0.0
C320 C 0.55921 0.2198 0.95425 0.0
C321 C 0.54881 0.18873 0.96689 0.0
H322 H 0.51775 0.20685 0.93279 0.0
H323 H 0.56959 0.23151 0.95377 0.0
O324 O 0.53486 0.28147 0.89638 0.0
O325 O 0.51392 0.25813 0.93004 0.0
O326 O 0.53787 0.23582 0.89835 0.0
O327 O 0.56035 0.26112 0.92717 0.0
H328 H 0.50834 0.30927 0.90452 0.0
H329 H 0.53521 0.27505 0.85817 0.0
H330 H 0.48727 0.32577 0.88002 0.0
H331 H 0.51347 0.29197 0.83452 0.0
H332 H 0.50152 0.23009 0.98978 0.0
H333 H 0.48265 0.23798 0.92076 0.0
H334 H 0.52139 0.2512 0.96753 0.0
H335 H 0.46361 0.21696 0.94382 0.0
H336 H 0.45279 0.2805 0.88373 0.0
H337 H 0.47901 0.23707 0.84521 0.0
H338 H 0.53831 0.34761 0.93584 0.0
H339 H 0.51214 0.3137 0.98322 0.0
H340 H 0.55752 0.20372 0.90847 0.0
H341 H 0.54195 0.24088 0.85984 0.0
H342 H 0.57645 0.18245 0.88534 0.0
H343 H 0.56116 0.21895 0.83757 0.0
H344 H 0.58396 0.28786 0.91192 0.0
H345 H 0.5589 0.26466 0.96579 0.0
H346 H 0.60118 0.31236 0.93118 0.0
H347 H 0.57657 0.28958 0.98411 0.0
H348 H 0.59924 0.2875 0.84748 0.0
H349 H 0.61737 0.23314 0.875 0.0
H350 H 0.52192 0.17828 0.95455 0.0
H351 H 0.57532 0.20306 0.97551 0.0
Li352 Li 0.1332 0.9961 0.30394 0.0
Li353 Li 0.15676 0.02057 0.29283 0.0
Li354 Li 0.14194 0.99832 0.27033 0.0
Li355 Li 0.16595 0.98609 0.29408 0.0
C356 C 0.1164 0.02945 0.27496 0.0
N357 N 0.09202 0.05098 0.25073 0.0
C358 C 0.11985 0.04916 0.27141 0.0
C359 C 0.10029 0.02082 0.26642 0.0
C360 C 0.10742 0.05977 0.25908 0.0
C361 C 0.08823 0.0319 0.25413 0.0
C362 C 0.17499 0.00725 0.32639 0.0
C363 C 0.20912 0.01649 0.32662 0.0
N364 N 0.20839 0.01598 0.34657 0.0
C365 C 0.17459 0.0068 0.34689 0.0
C366 C 0.1924 0.01212 0.31615 0.0
C367 C 0.19162 0.01127 0.35682 0.0
C368 C 0.11625 0.98624 0.34086 0.0
N369 N 0.11214 0.99179 0.32223 0.0
C370 C 0.07763 0.99345 0.33014 0.0
C371 C 0.0933 0.99514 0.31661 0.0
C372 C 0.08142 0.98854 0.34973 0.0
C373 C 0.10103 0.98453 0.35495 0.0
H374 H 0.1314 0.98365 0.34487 0.0
H375 H 0.09045 0.99944 0.3017 0.0
C376 C 0.17326 0.05443 0.27829 0.0
N377 N 0.16647 0.04587 0.29513 0.0
C378 C 0.18172 0.07267 0.27874 0.0
C379 C 0.17571 0.07309 0.31388 0.0
C380 C 0.16722 0.05485 0.31272 0.0
C381 C 0.1833 0.08212 0.29674 0.0
H382 H 0.172 0.04706 0.2645 0.0
H383 H 0.16158 0.0477 0.32586 0.0
C384 C 0.12559 0.96205 0.29176 0.0
N385 N 0.09452 0.93883 0.30374 0.0
C386 C 0.12761 0.9491 0.30757 0.0
C387 C 0.10772 0.96307 0.28202 0.0
C388 C 0.11176 0.93753 0.31342 0.0
C389 C 0.09221 0.95124 0.28828 0.0
C390 C 0.18012 0.99813 0.25589 0.0
C391 C 0.17761 0.97892 0.25012 0.0
C392 C 0.19286 0.01007 0.24497 0.0
C393 C 0.1879 0.972 0.23352 0.0
C394 C 0.2029 0.00259 0.22845 0.0
N395 N 0.20023 0.98387 0.22311 0.0
C396 C 0.13413 0.014 0.23334 0.0
C397 C 0.12845 0.98017 0.23596 0.0
C398 C 0.12612 0.01473 0.21477 0.0
N399 N 0.13412 0.99712 0.2439 0.0
C400 C 0.12067 0.98015 0.21725 0.0
C401 C 0.11882 0.99774 0.20681 0.0
H402 H 0.1396 0.02708 0.2397 0.0
H403 H 0.12949 0.96678 0.24435 0.0
C404 C 0.18565 0.95481 0.31293 0.0
N405 N 0.18788 0.96894 0.299 0.0
C406 C 0.20039 0.9406 0.31541 0.0
C407 C 0.22027 0.95688 0.29053 0.0
C408 C 0.20522 0.97081 0.28865 0.0
C409 C 0.21761 0.94115 0.30353 0.0
H410 H 0.17227 0.95431 0.32183 0.0
H411 H 0.20732 0.98283 0.2786 0.0
O412 O 0.12855 0.01885 0.28697 0.0
O413 O 0.15837 0.00286 0.31654 0.0
O414 O 0.14082 0.9739 0.28612 0.0
O415 O 0.16996 0.00531 0.27196 0.0
H416 H 0.1319 0.05628 0.27819 0.0
H417 H 0.09735 0.00563 0.26884 0.0
H418 H 0.11 0.075 0.25617 0.0
H419 H 0.0759 0.0253 0.24724 0.0
H420 H 0.22267 0.02031 0.31888 0.0
H421 H 0.16123 0.00307 0.35504 0.0
H422 H 0.19305 0.01261 0.30031 0.0
H423 H 0.19151 0.01099 0.37269 0.0
H424 H 0.06274 0.99639 0.32541 0.0
H425 H 0.1047 0.98097 0.36994 0.0
H426 H 0.18695 0.07929 0.26513 0.0
H427 H 0.17676 0.07981 0.32808 0.0
H428 H 0.14115 0.94812 0.31543 0.0
H429 H 0.10567 0.97305 0.26992 0.0
H430 H 0.11314 0.92755 0.32571 0.0
H431 H 0.0783 0.952 0.28091 0.0
H432 H 0.16787 0.96943 0.25839 0.0
H433 H 0.19508 0.02492 0.24923 0.0
H434 H 0.18609 0.95718 0.22891 0.0
H435 H 0.21282 0.01166 0.21988 0.0
H436 H 0.12521 0.02848 0.20691 0.0
H437 H 0.11532 0.96675 0.21139 0.0
H438 H 0.19786 0.92876 0.32574 0.0
H439 H 0.23359 0.95805 0.28146 0.0
Li440 Li 0.23773 0.9015 0.5236 0.0
Li441 Li 0.25191 0.88151 0.54922 0.0
Li442 Li 0.27244 0.90263 0.52872 0.0
Li443 Li 0.25852 0.8731 0.51592 0.0
C444 C 0.25775 0.92516 0.55739 0.0
N445 N 0.27323 0.9556 0.57758 0.0
C446 C 0.26377 0.92239 0.57667 0.0
C447 C 0.25946 0.94345 0.54843 0.0
C448 C 0.27158 0.93796 0.58662 0.0
C449 C 0.26739 0.95864 0.55886 0.0
C450 C 0.21923 0.86412 0.54085 0.0
C451 C 0.20982 0.83569 0.55962 0.0
N452 N 0.19271 0.84493 0.56532 0.0
C453 C 0.20152 0.87331 0.54681 0.0
C454 C 0.22339 0.84513 0.54719 0.0
C455 C 0.18831 0.86336 0.5592 0.0
C456 C 0.20327 0.91042 0.50249 0.0
N457 N 0.21494 0.91603 0.51717 0.0
C458 C 0.19232 0.9416 0.52599 0.0
C459 C 0.20987 0.93127 0.52883 0.0
C460 C 0.17986 0.93619 0.51098 0.0
C461 C 0.18563 0.92049 0.49898 0.0
H462 H 0.20746 0.89789 0.4938 0.0
H463 H 0.21912 0.93502 0.54076 0.0
C464 C 0.26 0.85774 0.58151 0.0
N465 N 0.24749 0.87175 0.57476 0.0
C466 C 0.25691 0.84971 0.60011 0.0
C467 C 0.2283 0.87098 0.60463 0.0
C468 C 0.23198 0.87862 0.58588 0.0
C469 C 0.24081 0.85623 0.61187 0.0
H470 H 0.27239 0.85284 0.57245 0.0
H471 H 0.22242 0.88995 0.58009 0.0
C472 C 0.25154 0.90808 0.48769 0.0
N473 N 0.23422 0.92598 0.45588 0.0
C474 C 0.24454 0.89692 0.4725 0.0
C475 C 0.2499 0.92834 0.48665 0.0
C476 C 0.2358 0.90625 0.45654 0.0
C477 C 0.24103 0.93711 0.47047 0.0
C478 C 0.29204 0.86195 0.53205 0.0
C479 C 0.31026 0.86778 0.52414 0.0
C480 C 0.28822 0.84215 0.53431 0.0
C481 C 0.32431 0.85366 0.51843 0.0
C482 C 0.30263 0.82849 0.52838 0.0
N483 N 0.32023 0.83448 0.52063 0.0
C484 C 0.3051 0.92189 0.54382 0.0
C485 C 0.30042 0.92584 0.50969 0.0
C486 C 0.32164 0.9336 0.54271 0.0
N487 N 0.29474 0.91854 0.5275 0.0
C488 C 0.31712 0.93723 0.5078 0.0
C489 C 0.32796 0.94136 0.52447 0.0
H490 H 0.30056 0.91542 0.5577 0.0
H491 H 0.29219 0.9225 0.49687 0.0
C492 C 0.24928 0.83867 0.49655 0.0
N493 N 0.26293 0.85272 0.49802 0.0
C494 C 0.25216 0.82387 0.48293 0.0
C495 C 0.28325 0.83813 0.4729 0.0
C496 C 0.2796 0.85283 0.48646 0.0
C497 C 0.26932 0.82355 0.47093 0.0
H498 H 0.23601 0.83917 0.50571 0.0
H499 H 0.28994 0.86448 0.48766 0.0
O500 O 0.25011 0.91009 0.54737 0.0
O501 O 0.23252 0.87374 0.52902 0.0
O502 O 0.25998 0.89923 0.50352 0.0
O503 O 0.27802 0.87556 0.53755 0.0
H504 H 0.26261 0.90834 0.58383 0.0
H505 H 0.25487 0.94584 0.53352 0.0
H506 H 0.27639 0.93601 0.60152 0.0
H507 H 0.26891 0.97283 0.55207 0.0
H508 H 0.21291 0.82105 0.56477 0.0
H509 H 0.19808 0.88801 0.54209 0.0
H510 H 0.23707 0.83785 0.54279 0.0
H511 H 0.17459 0.87032 0.56402 0.0
H512 H 0.18826 0.95324 0.53594 0.0
H513 H 0.17653 0.91589 0.48718 0.0
H514 H 0.26718 0.83869 0.60534 0.0
H515 H 0.21573 0.87636 0.61326 0.0
H516 H 0.2457 0.88122 0.47308 0.0
H517 H 0.25529 0.93717 0.49828 0.0
H518 H 0.23023 0.8978 0.44471 0.0
H519 H 0.23955 0.95277 0.46951 0.0
H520 H 0.31351 0.88302 0.52231 0.0
H521 H 0.27415 0.83738 0.54028 0.0
H522 H 0.33844 0.85796 0.51221 0.0
H523 H 0.29981 0.81313 0.52989 0.0
H524 H 0.32934 0.93648 0.55601 0.0
H525 H 0.32167 0.94234 0.49333 0.0
H526 H 0.24105 0.8129 0.48165 0.0
H527 H 0.29645 0.83853 0.46358 0.0
Li528 Li 0.38048 0.02918 0.76036 0.0
Li529 Li 0.40165 0.05154 0.77688 0.0
Li530 Li 0.37814 0.06244 0.75196 0.0
Li531 Li 0.40782 0.04455 0.7425 0.0
C532 C 0.35811 0.0426 0.78953 0.0
N533 N 0.32968 0.02401 0.81227 0.0
C534 C 0.36211 0.03677 0.80873 0.0
C535 C 0.33954 0.03925 0.782 0.0
C536 C 0.34757 0.02733 0.81997 0.0
C537 C 0.32541 0.02974 0.79369 0.0
C538 C 0.42556 0.0155 0.76218 0.0
C539 C 0.46102 0.01215 0.76146 0.0
N540 N 0.45951 0.99345 0.75555 0.0
C541 C 0.42432 0.99623 0.75622 0.0
C542 C 0.44401 0.02353 0.76494 0.0
C543 C 0.44167 0.98533 0.7529 0.0
C544 C 0.35434 0.99927 0.75153 0.0
N545 N 0.36729 0.00587 0.76459 0.0
C546 C 0.36144 0.97892 0.78604 0.0
C547 C 0.37117 0.99605 0.78146 0.0
C548 C 0.34785 0.97172 0.77293 0.0
C549 C 0.34438 0.98207 0.75543 0.0
H550 H 0.35179 0.00732 0.73812 0.0
H551 H 0.38168 0.00171 0.79145 0.0
C552 C 0.41775 0.07165 0.81016 0.0
N553 N 0.4138 0.05465 0.80123 0.0
C554 C 0.42714 0.07139 0.82818 0.0
C555 C 0.42731 0.03627 0.82762 0.0
C556 C 0.4182 0.0372 0.80969 0.0
C557 C 0.43193 0.05348 0.83707 0.0
H558 H 0.41361 0.08535 0.80347 0.0
H559 H 0.41449 0.02391 0.80254 0.0
C560 C 0.37004 0.04561 0.71798 0.0
N561 N 0.3484 0.05774 0.6862 0.0
C562 C 0.37964 0.05106 0.7004 0.0
C563 C 0.34942 0.04612 0.7193 0.0
C564 C 0.36844 0.05719 0.68452 0.0
C565 C 0.33874 0.05237 0.7031 0.0
C566 C 0.4148 0.08603 0.76184 0.0
C567 C 0.40346 0.10244 0.76712 0.0
C568 C 0.43525 0.08603 0.76394 0.0
C569 C 0.41281 0.1186 0.7745 0.0
C570 C 0.44402 0.10245 0.77143 0.0
N571 N 0.43272 0.11825 0.7765 0.0
C572 C 0.34561 0.08825 0.75468 0.0
C573 C 0.36683 0.09238 0.72675 0.0
C574 C 0.33414 0.10426 0.74908 0.0
N575 N 0.36168 0.08285 0.74361 0.0
C576 C 0.35553 0.10818 0.72033 0.0
C577 C 0.33921 0.11465 0.73181 0.0
H578 H 0.34213 0.08055 0.76821 0.0
H579 H 0.37996 0.0879 0.71848 0.0
C580 C 0.42955 0.02517 0.71277 0.0
N581 N 0.42692 0.04223 0.72235 0.0
C582 C 0.44104 0.02445 0.69553 0.0
C583 C 0.44703 0.05881 0.69863 0.0
C584 C 0.43562 0.0588 0.7159 0.0
C585 C 0.44942 0.04158 0.68794 0.0
H586 H 0.42191 0.01239 0.71796 0.0
H587 H 0.4327 0.07227 0.72351 0.0
O588 O 0.37232 0.05147 0.77814 0.0
O589 O 0.40875 0.02643 0.76536 0.0
O590 O 0.38076 0.0397 0.73375 0.0
O591 O 0.40599 0.07017 0.75434 0.0
H592 H 0.37632 0.03939 0.81487 0.0
H593 H 0.33617 0.04375 0.76721 0.0
H594 H 0.35051 0.02262 0.83481 0.0
H595 H 0.31104 0.02689 0.78797 0.0
H596 H 0.47543 0.01819 0.76346 0.0
H597 H 0.4101 0.98982 0.75407 0.0
H598 H 0.44517 0.03841 0.76966 0.0
H599 H 0.44096 0.97041 0.7482 0.0
H600 H 0.36437 0.97155 0.7998 0.0
H601 H 0.33428 0.97684 0.74477 0.0
H602 H 0.43037 0.08496 0.83517 0.0
H603 H 0.43096 0.02216 0.8339 0.0
H604 H 0.39557 0.0507 0.69904 0.0
H605 H 0.34173 0.04193 0.73275 0.0
H606 H 0.37568 0.06155 0.67087 0.0
H607 H 0.32279 0.05298 0.70398 0.0
H608 H 0.38762 0.10271 0.76562 0.0
H609 H 0.44423 0.07347 0.75985 0.0
H610 H 0.40423 0.13139 0.77868 0.0
H611 H 0.45982 0.10263 0.77319 0.0
H612 H 0.32204 0.10895 0.75872 0.0
H613 H 0.3599 0.11556 0.70683 0.0
H614 H 0.44269 0.01082 0.68784 0.0
H615 H 0.45289 0.07241 0.69314 0.0
Li616 Li 0.26842 0.16454 0.04243 0.0
Li617 Li 0.28664 0.13858 0.02374 0.0
Li618 Li 0.26767 0.16557 0.00513 0.0
Li619 Li 0.24936 0.13922 0.02304 0.0
C620 C 0.30241 0.18212 0.02822 0.0
N621 N 0.32572 0.21219 0.03964 0.0
C622 C 0.31946 0.1782 0.03872 0.0
C623 C 0.29739 0.2013 0.02325 0.0
C624 C 0.331 0.19361 0.04445 0.0
C625 C 0.30931 0.21631 0.02922 0.0
C626 C 0.27188 0.11927 0.05662 0.0
C627 C 0.27386 0.08436 0.05982 0.0
N628 N 0.28217 0.08617 0.07761 0.0
C629 C 0.28022 0.12079 0.07502 0.0
C630 C 0.2685 0.10091 0.04903 0.0
C631 C 0.2854 0.10389 0.08537 0.0
C632 C 0.25417 0.1898 0.07443 0.0
N633 N 0.26959 0.1787 0.06735 0.0
C634 C 0.28754 0.18458 0.09656 0.0
C635 C 0.28608 0.17604 0.07809 0.0
C636 C 0.27186 0.19608 0.10437 0.0
C637 C 0.25505 0.19871 0.09285 0.0
H638 H 0.24098 0.19148 0.066 0.0
H639 H 0.29805 0.16688 0.07251 0.0
C640 C 0.31877 0.11556 0.00681 0.0
N641 N 0.31114 0.1232 0.02379 0.0
C642 C 0.33707 0.10561 0.00649 0.0
C643 C 0.3395 0.11161 0.04108 0.0
C644 C 0.32119 0.12144 0.04073 0.0
C645 C 0.34783 0.10357 0.02379 0.0
H646 H 0.31079 0.11743 0.99339 0.0
H647 H 0.31527 0.12815 0.05393 0.0
C648 C 0.23397 0.18417 0.01988 0.0
N649 N 0.21176 0.21654 0.00936 0.0
C650 C 0.21615 0.18203 0.01042 0.0
C651 C 0.24035 0.20275 0.02425 0.0
C652 C 0.20517 0.19858 0.00514 0.0
C653 C 0.22895 0.21894 0.01875 0.0
C654 C 0.2639 0.12233 0.98848 0.0
C655 C 0.25305 0.12669 0.97182 0.0
C656 C 0.26959 0.10309 0.99243 0.0
C657 C 0.24767 0.11164 0.95963 0.0
C658 C 0.26395 0.08845 0.97987 0.0
N659 N 0.25316 0.09299 0.96388 0.0
C660 C 0.28518 0.18854 0.97344 0.0
C661 C 0.25126 0.18264 0.96998 0.0
C662 C 0.2861 0.19797 0.95502 0.0
N663 N 0.26794 0.18103 0.98059 0.0
C664 C 0.25153 0.19185 0.95148 0.0
C665 C 0.26917 0.19956 0.94355 0.0
H666 H 0.29843 0.18678 0.98179 0.0
H667 H 0.23778 0.17625 0.97556 0.0
C668 C 0.21894 0.1131 0.03803 0.0
N669 N 0.22506 0.12405 0.0223 0.0
C670 C 0.2013 0.10273 0.03758 0.0
C671 C 0.19626 0.11523 0.00492 0.0
C672 C 0.21399 0.12529 0.00597 0.0
C673 C 0.18955 0.10372 0.02087 0.0
H674 H 0.22757 0.1126 0.0511 0.0
H675 H 0.21876 0.13435 0.99376 0.0
O676 O 0.29086 0.16722 0.0226 0.0
O677 O 0.26692 0.13566 0.04616 0.0
O678 O 0.245 0.16814 0.02501 0.0
O679 O 0.26924 0.13688 0.00063 0.0
H680 H 0.32367 0.16342 0.04254 0.0
H681 H 0.2845 0.20457 0.01475 0.0
H682 H 0.34415 0.19079 0.05272 0.0
H683 H 0.30556 0.23124 0.02553 0.0
H684 H 0.27136 0.07006 0.05409 0.0
H685 H 0.28276 0.13486 0.08123 0.0
H686 H 0.26161 0.09947 0.03506 0.0
H687 H 0.29199 0.10487 0.09957 0.0
H688 H 0.30092 0.1822 0.10462 0.0
H689 H 0.24242 0.20716 0.09822 0.0
H690 H 0.3427 0.09959 0.9928 0.0
H691 H 0.3473 0.11085 0.05471 0.0
H692 H 0.21091 0.16775 0.00707 0.0
H693 H 0.25389 0.20464 0.03192 0.0
H694 H 0.19142 0.19714 0.99769 0.0
H695 H 0.23375 0.23341 0.022 0.0
H696 H 0.24867 0.1415 0.96842 0.0
H697 H 0.27841 0.09948 0.00495 0.0
H698 H 0.23913 0.1148 0.94678 0.0
H699 H 0.2682 0.07348 0.9828 0.0
H700 H 0.30013 0.20337 0.94957 0.0
H701 H 0.23801 0.19281 0.94343 0.0
H702 H 0.1967 0.09439 0.05041 0.0
H703 H 0.18795 0.11642 0.99163 0.0
Li704 Li 0.73826 0.39429 0.02239 0.0
Li705 Li 0.75484 0.37138 0.04566 0.0
Li706 Li 0.7732 0.39481 0.02568 0.0
Li707 Li 0.75786 0.36653 0.01018 0.0
C708 C 0.7606 0.41435 0.05711 0.0
N709 N 0.77728 0.44323 0.07854 0.0
C710 C 0.76851 0.41 0.07538 0.0
C711 C 0.76095 0.43341 0.04983 0.0
C712 C 0.77693 0.42481 0.08598 0.0
C713 C 0.76953 0.4478 0.06086 0.0
C714 C 0.72102 0.35131 0.02598 0.0
C715 C 0.71222 0.31824 0.03362 0.0
N716 N 0.69519 0.32092 0.02379 0.0
C717 C 0.70333 0.3538 0.01614 0.0
C718 C 0.72543 0.33344 0.03496 0.0
C719 C 0.69051 0.33824 0.01512 0.0
C720 C 0.70353 0.40884 0.00384 0.0
N721 N 0.71504 0.40962 0.0198 0.0
C722 C 0.69277 0.43232 0.03527 0.0
C723 C 0.70999 0.42099 0.03537 0.0
C724 C 0.68067 0.43192 0.01897 0.0
C725 C 0.68624 0.42014 0.00302 0.0
H726 H 0.7076 0.39929 0.99189 0.0
H727 H 0.71919 0.42107 0.04802 0.0
C728 C 0.76746 0.35193 0.07997 0.0
N729 N 0.75171 0.359 0.0701 0.0
C730 C 0.76462 0.34268 0.09805 0.0
C731 C 0.72946 0.34874 0.09572 0.0
C732 C 0.73298 0.35777 0.0776 0.0
C733 C 0.74542 0.34098 0.10607 0.0
H734 H 0.78223 0.35369 0.07399 0.0
H735 H 0.72081 0.36379 0.06945 0.0
C736 C 0.75004 0.4044 0.98616 0.0
N737 N 0.73205 0.42541 0.95665 0.0
C738 C 0.74332 0.39492 0.9697 0.0
C739 C 0.74779 0.42457 0.98753 0.0
C740 C 0.73423 0.4058 0.95495 0.0
C741 C 0.73859 0.43493 0.97249 0.0
C742 C 0.79062 0.35106 0.03458 0.0
C743 C 0.80961 0.35358 0.04145 0.0
C744 C 0.78346 0.3323 0.03266 0.0
C745 C 0.82103 0.33727 0.04658 0.0
C746 C 0.79534 0.31636 0.03791 0.0
N747 N 0.81371 0.31916 0.04473 0.0
C748 C 0.80713 0.41123 0.041 0.0
C749 C 0.79883 0.42225 0.00916 0.0
C750 C 0.8229 0.42389 0.04123 0.0
N751 N 0.79535 0.41089 0.02524 0.0
C752 C 0.81456 0.43496 0.00864 0.0
C753 C 0.82674 0.43603 0.0249 0.0
H754 H 0.80408 0.40186 0.05351 0.0
H755 H 0.78941 0.42142 0.99671 0.0
C756 C 0.74616 0.33775 0.98345 0.0
N757 N 0.76153 0.3474 0.99077 0.0
C758 C 0.74956 0.32336 0.96949 0.0
C759 C 0.78453 0.32937 0.97063 0.0
C760 C 0.78044 0.3436 0.98461 0.0
C761 C 0.76895 0.31907 0.96285 0.0
H762 H 0.73125 0.34128 0.98825 0.0
H763 H 0.79235 0.35169 0.99057 0.0
O764 O 0.75249 0.40001 0.04643 0.0
O765 O 0.73369 0.36646 0.02715 0.0
O766 O 0.75899 0.39399 0.00073 0.0
O767 O 0.77927 0.36692 0.02957 0.0
H768 H 0.76829 0.39534 0.08125 0.0
H769 H 0.7548 0.43701 0.03576 0.0
H770 H 0.78321 0.42164 0.10009 0.0
H771 H 0.77004 0.46259 0.05535 0.0
H772 H 0.71547 0.30433 0.04047 0.0
H773 H 0.6996 0.36755 0.00923 0.0
H774 H 0.73877 0.33135 0.04306 0.0
H775 H 0.67683 0.33993 0.00743 0.0
H776 H 0.68895 0.4413 0.0478 0.0
H777 H 0.67708 0.4193 0.99032 0.0
H778 H 0.77732 0.33725 0.10586 0.0
H779 H 0.71446 0.34771 0.10151 0.0
H780 H 0.74503 0.37933 0.96837 0.0
H781 H 0.75295 0.43212 0.00016 0.0
H782 H 0.72888 0.39866 0.94216 0.0
H783 H 0.73663 0.45053 0.97341 0.0
H784 H 0.81544 0.36799 0.04289 0.0
H785 H 0.769 0.33005 0.02699 0.0
H786 H 0.83571 0.33902 0.05201 0.0
H787 H 0.78997 0.30177 0.03651 0.0
H788 H 0.8318 0.42432 0.05414 0.0
H789 H 0.81725 0.44369 0.99556 0.0
H790 H 0.73712 0.31573 0.96391 0.0
H791 H 0.79966 0.32683 0.96562 0.0
Li792 Li 0.8904 0.55698 0.27858 0.0
Li793 Li 0.87603 0.53378 0.25668 0.0
Li794 Li 0.89572 0.5591 0.24244 0.0
Li795 Li 0.86321 0.56568 0.25779 0.0
C796 C 0.91289 0.52059 0.25624 0.0
N797 N 0.92861 0.48422 0.24754 0.0
C798 C 0.91359 0.51406 0.23691 0.0
C799 C 0.92034 0.50866 0.27113 0.0
C800 C 0.92156 0.49563 0.2328 0.0
C801 C 0.92818 0.49031 0.26645 0.0
C802 C 0.84662 0.55074 0.28966 0.0
C803 C 0.8113 0.54831 0.29348 0.0
N804 N 0.81167 0.55969 0.30963 0.0
C805 C 0.8467 0.56227 0.30638 0.0
C806 C 0.82884 0.54356 0.28322 0.0
C807 C 0.82885 0.56668 0.31624 0.0
C808 C 0.90878 0.57557 0.311 0.0
N809 N 0.90172 0.55901 0.30338 0.0
C810 C 0.91328 0.54023 0.33043 0.0
C811 C 0.90313 0.54173 0.31304 0.0
C812 C 0.92179 0.55682 0.33816 0.0
C813 C 0.91902 0.57477 0.32848 0.0
H814 H 0.90687 0.5893 0.30341 0.0
H815 H 0.89681 0.52897 0.30685 0.0
C816 C 0.86941 0.49566 0.24029 0.0
N817 N 0.8692 0.50713 0.25641 0.0
C818 C 0.86293 0.47657 0.24183 0.0
C819 C 0.8575 0.4811 0.27669 0.0
C820 C 0.86382 0.5001 0.27444 0.0
C821 C 0.85669 0.46923 0.26021 0.0
H822 H 0.87444 0.50126 0.22622 0.0
H823 H 0.8642 0.50936 0.28709 0.0
C824 C 0.9034 0.59252 0.26332 0.0
N825 N 0.93478 0.61703 0.26726 0.0
C826 C 0.90014 0.6126 0.26427 0.0
C827 C 0.92264 0.5849 0.26431 0.0
C828 C 0.91619 0.62475 0.26629 0.0
C829 C 0.9383 0.59754 0.26632 0.0
C830 C 0.86262 0.53945 0.21968 0.0
C831 C 0.87389 0.53603 0.20253 0.0
C832 C 0.84388 0.53146 0.2219 0.0
C833 C 0.86633 0.52441 0.18799 0.0
C834 C 0.83684 0.51993 0.20702 0.0
N835 N 0.84812 0.51666 0.19052 0.0
C836 C 0.9312 0.55801 0.21988 0.0
C837 C 0.90689 0.58085 0.20952 0.0
C838 C 0.94299 0.56202 0.20334 0.0
N839 N 0.91322 0.56685 0.22217 0.0
C840 C 0.91839 0.58563 0.19296 0.0
C841 C 0.93637 0.5756 0.18927 0.0
H842 H 0.93606 0.5473 0.23049 0.0
H843 H 0.8926 0.58782 0.21201 0.0
C844 C 0.83739 0.59562 0.26974 0.0
N845 N 0.84057 0.5818 0.25592 0.0
C846 C 0.82204 0.6092 0.2678 0.0
C847 C 0.81344 0.59391 0.23754 0.0
C848 C 0.82887 0.58052 0.24016 0.0
C849 C 0.81015 0.6087 0.25128 0.0
H850 H 0.84728 0.59657 0.28183 0.0
H851 H 0.83202 0.56968 0.22917 0.0
O852 O 0.90481 0.5385 0.26054 0.0
O853 O 0.86389 0.54647 0.27966 0.0
O854 O 0.88779 0.58053 0.26117 0.0
O855 O 0.8697 0.55101 0.23394 0.0
H856 H 0.9078 0.52302 0.22521 0.0
H857 H 0.9202 0.51348 0.28614 0.0
H858 H 0.92206 0.49038 0.21791 0.0
H859 H 0.93395 0.48091 0.27784 0.0
H860 H 0.7974 0.54296 0.28861 0.0
H861 H 0.86038 0.5679 0.31156 0.0
H862 H 0.82859 0.53448 0.2704 0.0
H863 H 0.82866 0.57569 0.32913 0.0
H864 H 0.91511 0.52605 0.33726 0.0
H865 H 0.92496 0.58799 0.33418 0.0
H866 H 0.86274 0.46769 0.22885 0.0
H867 H 0.8527 0.47596 0.29109 0.0
H868 H 0.88534 0.61871 0.26346 0.0
H869 H 0.9255 0.56942 0.26366 0.0
H870 H 0.91388 0.64032 0.26706 0.0
H871 H 0.95324 0.59184 0.26714 0.0
H872 H 0.88833 0.54227 0.20045 0.0
H873 H 0.83494 0.534 0.23504 0.0
H874 H 0.87492 0.52158 0.17468 0.0
H875 H 0.82242 0.51355 0.2086 0.0
H876 H 0.9566 0.55374 0.20117 0.0
H877 H 0.9129 0.59656 0.18284 0.0
H878 H 0.82031 0.62068 0.27847 0.0
H879 H 0.80466 0.59317 0.22456 0.0
Li880 Li 0.7695 0.66507 0.53935 0.0
Li881 Li 0.78742 0.63996 0.52007 0.0
Li882 Li 0.7692 0.66595 0.50247 0.0
Li883 Li 0.75082 0.6406 0.521 0.0
C884 C 0.79814 0.68733 0.51967 0.0
N885 N 0.81015 0.72546 0.51892 0.0
C886 C 0.81815 0.69154 0.51726 0.0
C887 C 0.78424 0.7025 0.52175 0.0
C888 C 0.82393 0.71092 0.51691 0.0
C889 C 0.79061 0.72168 0.52131 0.0
C890 C 0.77915 0.6312 0.55975 0.0
C891 C 0.78133 0.61393 0.59061 0.0
N892 N 0.79951 0.62138 0.59307 0.0
C893 C 0.79787 0.63865 0.56256 0.0
C894 C 0.7708 0.61872 0.57385 0.0
C895 C 0.80792 0.63352 0.5795 0.0
C896 C 0.75363 0.68181 0.57557 0.0
N897 N 0.77032 0.67961 0.56415 0.0
C898 C 0.78912 0.69515 0.58871 0.0
C899 C 0.78787 0.68617 0.57041 0.0
C900 C 0.77218 0.6975 0.60099 0.0
C901 C 0.75421 0.69073 0.594 0.0
H902 H 0.73983 0.67639 0.5705 0.0
H903 H 0.80111 0.68405 0.56142 0.0
C904 C 0.82739 0.63234 0.50881 0.0
N905 N 0.81174 0.62431 0.51859 0.0
C906 C 0.84579 0.62268 0.50792 0.0
C907 C 0.83168 0.59631 0.52683 0.0
C908 C 0.81354 0.60655 0.52744 0.0
C909 C 0.84827 0.60438 0.51709 0.0
H910 H 0.82566 0.64647 0.50189 0.0
H911 H 0.80097 0.60038 0.53519 0.0
C912 C 0.72894 0.6745 0.51354 0.0
N913 N 0.69337 0.68415 0.49684 0.0
C914 C 0.72537 0.66908 0.49431 0.0
C915 C 0.71444 0.68483 0.52429 0.0
C916 C 0.70729 0.67409 0.48613 0.0
C917 C 0.69654 0.68957 0.51558 0.0
C918 C 0.76939 0.61862 0.49147 0.0
C919 C 0.77083 0.61458 0.47145 0.0
C920 C 0.76793 0.60333 0.50509 0.0
C921 C 0.77092 0.59527 0.46538 0.0
C922 C 0.76807 0.58422 0.49843 0.0
N923 N 0.76956 0.58061 0.47888 0.0
C924 C 0.7801 0.67301 0.46254 0.0
C925 C 0.76157 0.69933 0.47598 0.0
C926 C 0.78121 0.68236 0.44416 0.0
N927 N 0.7703 0.68144 0.47802 0.0
C928 C 0.76243 0.70929 0.45783 0.0
C929 C 0.77229 0.70083 0.44142 0.0
H930 H 0.78697 0.65882 0.46442 0.0
H931 H 0.75383 0.70588 0.4884 0.0
C932 C 0.71839 0.61848 0.53813 0.0
N933 N 0.72669 0.62513 0.52096 0.0
C934 C 0.70096 0.60773 0.53821 0.0
C935 C 0.70072 0.61089 0.50299 0.0
C936 C 0.71825 0.62135 0.50356 0.0
C937 C 0.69171 0.6039 0.52047 0.0
H938 H 0.72524 0.62162 0.55183 0.0
H939 H 0.72509 0.62651 0.49001 0.0
O940 O 0.79231 0.66841 0.52007 0.0
O941 O 0.76898 0.63605 0.54331 0.0
O942 O 0.74647 0.66966 0.52192 0.0
O943 O 0.76917 0.63747 0.49761 0.0
H944 H 0.82911 0.67997 0.51573 0.0
H945 H 0.76871 0.69957 0.52375 0.0
H946 H 0.83936 0.71439 0.51506 0.0
H947 H 0.78001 0.73356 0.52289 0.0
H948 H 0.77504 0.6043 0.60166 0.0
H949 H 0.8046 0.64828 0.55177 0.0
H950 H 0.75633 0.6128 0.57187 0.0
H951 H 0.82241 0.6392 0.58187 0.0
H952 H 0.80341 0.69971 0.59337 0.0
H953 H 0.74065 0.69234 0.60265 0.0
H954 H 0.85804 0.62976 0.50049 0.0
H955 H 0.83262 0.58217 0.5339 0.0
H956 H 0.7364 0.66099 0.48582 0.0
H957 H 0.71699 0.68911 0.53921 0.0
H958 H 0.70432 0.66995 0.47127 0.0
H959 H 0.68517 0.69756 0.52373 0.0
H960 H 0.77182 0.62624 0.4607 0.0
H961 H 0.76662 0.60614 0.52063 0.0
H962 H 0.77204 0.59193 0.44992 0.0
H963 H 0.76697 0.57226 0.50881 0.0
H964 H 0.78869 0.6749 0.43211 0.0
H965 H 0.75553 0.72357 0.45676 0.0
H966 H 0.69456 0.60282 0.55209 0.0
H967 H 0.69439 0.60813 0.48892 0.0
Li968 Li 0.66101 0.51969 0.79406 0.0
Li969 Li 0.63302 0.50119 0.80694 0.0
Li970 Li 0.66485 0.48563 0.79917 0.0
Li971 Li 0.64342 0.49776 0.77304 0.0
C972 C 0.66752 0.49867 0.8355 0.0
N973 N 0.68574 0.48328 0.86808 0.0
C974 C 0.65627 0.49024 0.85072 0.0
C975 C 0.68802 0.49942 0.83691 0.0
C976 C 0.66577 0.48252 0.86706 0.0
C977 C 0.69696 0.4915 0.85348 0.0
C978 C 0.61683 0.53227 0.78939 0.0
C979 C 0.58144 0.53632 0.78878 0.0
N980 N 0.58288 0.55395 0.79735 0.0
C981 C 0.61799 0.55048 0.79807 0.0
C982 C 0.59845 0.52516 0.78457 0.0
C983 C 0.60063 0.56121 0.80201 0.0
C984 C 0.67165 0.55585 0.77844 0.0
N985 N 0.67307 0.54404 0.79445 0.0
C986 C 0.69196 0.56735 0.81085 0.0
C987 C 0.68278 0.54944 0.81057 0.0
C988 C 0.69113 0.57975 0.79434 0.0
C989 C 0.68076 0.57381 0.77799 0.0
H990 H 0.66356 0.55119 0.76595 0.0
H991 H 0.68333 0.53987 0.82322 0.0
C992 C 0.59812 0.48714 0.82565 0.0
N993 N 0.61094 0.50206 0.82429 0.0
C994 C 0.58197 0.48812 0.83879 0.0
C995 C 0.59251 0.51987 0.84856 0.0
C996 C 0.60856 0.51814 0.83549 0.0
C997 C 0.57905 0.50468 0.85038 0.0
H998 H 0.60061 0.47439 0.81676 0.0
H999 H 0.61929 0.52953 0.83439 0.0
C1000 C 0.68642 0.51087 0.7656 0.0
N1001 N 0.71441 0.53367 0.74684 0.0
C1002 C 0.68329 0.518 0.74665 0.0
C1003 C 0.70387 0.51515 0.77494 0.0
C1004 C 0.69761 0.52954 0.73743 0.0
C1005 C 0.7178 0.52677 0.76524 0.0
C1006 C 0.63057 0.46179 0.78294 0.0
C1007 C 0.64239 0.44543 0.77865 0.0
C1008 C 0.61108 0.46271 0.77678 0.0
C1009 C 0.63452 0.43028 0.76811 0.0
C1010 C 0.60378 0.44728 0.76623 0.0
N1011 N 0.61556 0.43152 0.76215 0.0
C1012 C 0.67847 0.45333 0.82161 0.0
C1013 C 0.69979 0.46366 0.79554 0.0
C1014 C 0.69173 0.43841 0.82657 0.0
N1015 N 0.68278 0.46559 0.80638 0.0
C1016 C 0.71331 0.44881 0.79977 0.0
C1017 C 0.70935 0.43583 0.81542 0.0
H1018 H 0.66464 0.45502 0.82976 0.0
H1019 H 0.70265 0.47338 0.78328 0.0
C1020 C 0.62532 0.51186 0.74012 0.0
N1021 N 0.63398 0.49541 0.74734 0.0
C1022 C 0.61646 0.5118 0.72201 0.0
C1023 C 0.62634 0.47805 0.71851 0.0
C1024 C 0.63527 0.47884 0.73669 0.0
C1025 C 0.61641 0.49461 0.71117 0.0
H1026 H 0.62516 0.52505 0.74852 0.0
H1027 H 0.64284 0.46615 0.74243 0.0
O1028 O 0.65851 0.5062 0.81934 0.0
O1029 O 0.63361 0.52143 0.78566 0.0
O1030 O 0.67243 0.49984 0.77501 0.0
O1031 O 0.63796 0.47671 0.79334 0.0
H1032 H 0.64039 0.48953 0.84988 0.0
H1033 H 0.69695 0.50583 0.82523 0.0
H1034 H 0.65726 0.47587 0.87892 0.0
H1035 H 0.71282 0.49185 0.8547 0.0
H1036 H 0.5671 0.53095 0.78524 0.0
H1037 H 0.63211 0.55618 0.80189 0.0
H1038 H 0.59734 0.51111 0.77779 0.0
H1039 H 0.60128 0.57528 0.80882 0.0
H1040 H 0.69942 0.57152 0.82393 0.0
H1041 H 0.6799 0.5828 0.76489 0.0
H1042 H 0.57198 0.47606 0.84001 0.0
H1043 H 0.59102 0.53265 0.85764 0.0
H1044 H 0.6699 0.51479 0.73919 0.0
H1045 H 0.70649 0.50977 0.78963 0.0
H1046 H 0.69534 0.53524 0.7228 0.0
H1047 H 0.73129 0.53034 0.77235 0.0
H1048 H 0.65749 0.44446 0.78332 0.0
H1049 H 0.60175 0.47529 0.77995 0.0
H1050 H 0.64351 0.41755 0.76463 0.0
H1051 H 0.58877 0.44785 0.76127 0.0
H1052 H 0.68807 0.42887 0.83882 0.0
H1053 H 0.72634 0.44712 0.79035 0.0
H1054 H 0.6096 0.5251 0.71663 0.0
H1055 H 0.62674 0.4645 0.71059 0.0
Li1056 Li 0.99743 0.7802 0.88674 0.0
Li1057 Li 0.01587 0.79861 0.91201 0.0
Li1058 Li 0.03503 0.77827 0.88627 0.0
Li1059 Li 0.0163 0.76159 0.91425 0.0
C1060 C 0.01572 0.81091 0.86513 0.0
N1061 N 0.01288 0.8298 0.82935 0.0
C1062 C 0.01001 0.83052 0.86433 0.0
C1063 C 0.02013 0.80093 0.84779 0.0
C1064 C 0.00861 0.8398 0.84607 0.0
C1065 C 0.01857 0.81074 0.82983 0.0
C1066 C 0.98044 0.78846 0.92976 0.0
C1067 C 0.97062 0.79404 0.9635 0.0
N1068 N 0.95519 0.8053 0.95744 0.0
C1069 C 0.96439 0.79992 0.92384 0.0
C1070 C 0.98352 0.78533 0.94972 0.0
C1071 C 0.95182 0.80838 0.93807 0.0
C1072 C 0.96432 0.76276 0.86872 0.0
N1073 N 0.97356 0.77994 0.87092 0.0
C1074 C 0.94887 0.79628 0.85172 0.0
C1075 C 0.96607 0.79657 0.86273 0.0
C1076 C 0.93895 0.77874 0.84919 0.0
C1077 C 0.94701 0.76183 0.85793 0.0
H1078 H 0.97037 0.74969 0.8754 0.0
H1079 H 0.97328 0.81019 0.86491 0.0
C1080 C 0.03336 0.82901 0.93461 0.0
N1081 N 0.01654 0.82375 0.92577 0.0
C1082 C 0.03483 0.84745 0.94305 0.0
C1083 C 0.00169 0.85498 0.93327 0.0
C1084 C 1.00089 0.83644 0.9249 0.0
C1085 C 0.01889 0.86093 0.94246 0.0
H1086 H 0.04592 0.81909 0.93469 0.0
H1087 H 0.98785 0.83238 0.91734 0.0
C1088 C 0.01892 0.74222 0.87234 0.0
N1089 N 0.02574 0.71253 0.84597 0.0
C1090 C 0.02904 0.7253 0.8781 0.0
C1091 C 0.01216 0.74401 0.85322 0.0
C1092 C 0.03237 0.71046 0.86453 0.0
C1093 C 0.01579 0.72884 0.84009 0.0
C1094 C 0.05129 0.77612 0.92995 0.0
C1095 C 0.07039 0.769 0.9258 0.0
C1096 C 0.04502 0.77904 0.94941 0.0
C1097 C 0.0829 0.76478 0.94127 0.0
C1098 C 0.05798 0.77464 0.96446 0.0
N1099 N 0.07649 0.76766 0.96012 0.0
C1100 C 0.07218 0.79252 0.87332 0.0
C1101 C 0.06533 0.76245 0.85888 0.0
C1102 C 0.09089 0.79272 0.86398 0.0
N1103 N 0.05983 0.77747 0.8708 0.0
C1104 C 0.08391 0.76207 0.84924 0.0
C1105 C 0.09715 0.77726 0.85182 0.0
H1106 H 0.06759 0.80431 0.88288 0.0
H1107 H 0.05553 0.75053 0.85701 0.0
C1108 C 0.99905 0.72899 0.93538 0.0
N1109 N 0.01648 0.73755 0.93046 0.0
C1110 C 0.99872 0.71095 0.94531 0.0
C1111 C 0.03424 0.71084 0.94543 0.0
C1112 C 0.0339 0.72876 0.93531 0.0
C1113 C 0.0165 0.70148 0.95045 0.0
H1114 H 0.98533 0.736 0.93124 0.0
H1115 H 0.04766 0.7353 0.93083 0.0
O1116 O 0.01702 0.80158 0.88285 0.0
O1117 O 0.99294 0.78015 0.91606 0.0
O1118 O 0.01546 0.75686 0.88542 0.0
O1119 O 0.0388 0.78017 0.91501 0.0
H1120 H 0.00659 0.83843 0.87766 0.0
H1121 H 0.02475 0.78581 0.84821 0.0
H1122 H 0.00413 0.85495 0.8452 0.0
H1123 H 0.02191 0.80319 0.81627 0.0
H1124 H 0.97286 0.79182 0.97902 0.0
H1125 H 0.96177 0.80237 0.90841 0.0
H1126 H 0.99571 0.77624 0.95451 0.0
H1127 H 0.93941 0.81739 0.93371 0.0
H1128 H 0.94317 0.80978 0.8456 0.0
H1129 H 0.94013 0.7479 0.85632 0.0
H1130 H 0.04862 0.85124 0.94949 0.0
H1131 H 0.98885 0.86453 0.93247 0.0
H1132 H 0.03436 0.72369 0.89283 0.0
H1133 H 0.00418 0.75695 0.84856 0.0
H1134 H 0.04023 0.6973 0.86876 0.0
H1135 H 0.01069 0.73004 0.82524 0.0
H1136 H 0.07544 0.76664 0.9108 0.0
H1137 H 0.03033 0.78468 0.95282 0.0
H1138 H 0.09771 0.7592 0.9383 0.0
H1139 H 0.05333 0.7768 0.9796 0.0
H1140 H 0.10033 0.80494 0.86626 0.0
H1141 H 0.08802 0.7497 0.84024 0.0
H1142 H 0.98463 0.70447 0.94893 0.0
H1143 H 0.04835 0.70409 0.94871 0.0
Li1144 Li 0.00792 0.30487 0.61124 0.0
Li1145 Li 0.02752 0.29058 0.63605 0.0
Li1146 Li 0.01121 0.27065 0.61349 0.0
Li1147 Li 0.99258 0.28787 0.63821 0.0
C1148 C 0.0478 0.30107 0.6022 0.0
N1149 N 0.07876 0.32491 0.59169 0.0
C1150 C 0.04883 0.31964 0.61014 0.0
C1151 C 0.06251 0.29465 0.58889 0.0
C1152 C 0.0646 0.33147 0.60465 0.0
C1153 C 0.07805 0.30692 0.58376 0.0
C1154 C 0.00722 0.31874 0.6581 0.0
C1155 C 0.00966 0.31313 0.69295 0.0
N1156 N 0.0059 0.33234 0.69609 0.0
C1157 C 0.00339 0.33842 0.66168 0.0
C1158 C 0.01039 0.30597 0.67386 0.0
C1159 C 0.00278 0.34501 0.68099 0.0
C1160 C 0.99218 0.34062 0.60064 0.0
N1161 N 0.00415 0.32596 0.59399 0.0
C1162 C 0.0087 0.34188 0.563 0.0
C1163 C 0.01239 0.32622 0.5756 0.0
C1164 C 0.99663 0.35747 0.56955 0.0
C1165 C 0.98829 0.35667 0.58865 0.0
H1166 H 0.98578 0.33986 0.61533 0.0
H1167 H 0.02178 0.31425 0.57068 0.0
C1168 C 0.05998 0.27424 0.65314 0.0
N1169 N 0.05054 0.29164 0.65074 0.0
C1170 C 0.07612 0.27262 0.66522 0.0
C1171 C 0.07284 0.30703 0.67175 0.0
C1172 C 0.05683 0.30801 0.65934 0.0
C1173 C 0.08249 0.28906 0.67507 0.0
H1174 H 0.05468 0.26155 0.6459 0.0
H1175 H 0.0491 0.32171 0.65704 0.0
C1176 C 0.97973 0.28498 0.59155 0.0
N1177 N 0.96593 0.28315 0.55391 0.0
C1178 C 0.95949 0.28636 0.58835 0.0
C1179 C 0.99296 0.28264 0.57561 0.0
C1180 C 0.9528 0.28541 0.56921 0.0
C1181 C 0.9857 0.28176 0.55669 0.0
C1182 C 0.00368 0.24977 0.64756 0.0
C1183 C 0.98498 0.24549 0.64088 0.0
C1184 C 0.01342 0.23651 0.65977 0.0
C1185 C 0.97634 0.22796 0.64652 0.0
C1186 C 0.00429 0.21913 0.66509 0.0
N1187 N 0.9861 0.21525 0.65841 0.0
C1188 C 0.03247 0.24151 0.59409 0.0
C1189 C 0.99776 0.23791 0.59339 0.0
C1190 C 0.03553 0.225 0.58271 0.0
N1191 N 0.01384 0.24761 0.59907 0.0
C1192 C 1.00012 0.22132 0.58202 0.0
C1193 C 0.0192 0.21472 0.57651 0.0
H1194 H 0.04493 0.24957 0.59892 0.0
H1195 H 0.9831 0.24319 0.59746 0.0
C1196 C 0.9543 0.29851 0.64826 0.0
N1197 N 0.97011 0.28831 0.65498 0.0
C1198 C 0.93701 0.29998 0.6597 0.0
C1199 C 0.95277 0.28065 0.68491 0.0
C1200 C 0.96976 0.2795 0.67293 0.0
C1201 C 0.93611 0.29092 0.67825 0.0
H1202 H 0.95522 0.30557 0.63401 0.0
H1203 H 0.98264 0.27159 0.67794 0.0
O1204 O 0.03254 0.28911 0.60724 0.0
O1205 O 0.00774 0.31217 0.63923 0.0
O1206 O 0.9864 0.28594 0.61026 0.0
O1207 O 0.01256 0.26681 0.64228 0.0
H1208 H 0.0376 0.32497 0.62037 0.0
H1209 H 0.06191 0.28034 0.58257 0.0
H1210 H 0.06557 0.34586 0.61068 0.0
H1211 H 0.08953 0.30213 0.57348 0.0
H1212 H 0.0121 0.3034 0.70526 0.0
H1213 H 1.00091 0.34849 0.64965 0.0
H1214 H 0.01348 0.29072 0.67143 0.0
H1215 H 0.99983 0.36021 0.68396 0.0
H1216 H 0.01528 0.34179 0.54834 0.0
H1217 H 0.97926 0.36851 0.59451 0.0
H1218 H 0.08343 0.25859 0.66692 0.0
H1219 H 0.0772 0.32005 0.6791 0.0
H1220 H 0.94905 0.28813 0.60054 0.0
H1221 H 0.00868 0.28151 0.57777 0.0
H1222 H 0.93717 0.28646 0.56651 0.0
H1223 H 0.99578 0.27996 0.54423 0.0
H1224 H 0.97714 0.25557 0.6315 0.0
H1225 H 0.0279 0.23962 0.6651 0.0
H1226 H 0.96188 0.22447 0.64146 0.0
H1227 H 0.01167 0.20873 0.67454 0.0
H1228 H 0.05047 0.22022 0.57897 0.0
H1229 H 0.98715 0.21391 0.57734 0.0
H1230 H 0.92455 0.30825 0.65417 0.0
H1231 H 0.95256 0.27333 0.69906 0.0
Li1232 Li 0.499 0.2776 0.38605 0.0
Li1233 Li 0.51765 0.29578 0.41141 0.0
Li1234 Li 0.53659 0.27583 0.38517 0.0
Li1235 Li 0.51828 0.25861 0.41305 0.0
C1236 C 0.51647 0.30993 0.36559 0.0
N1237 N 0.5123 0.33201 0.33183 0.0
C1238 C 0.50958 0.32917 0.36675 0.0
C1239 C 0.52144 0.30197 0.34732 0.0
C1240 C 0.50751 0.34008 0.34949 0.0
C1241 C 0.51918 0.31336 0.33041 0.0
C1242 C 0.48197 0.28484 0.42912 0.0
C1243 C 0.47126 0.28919 0.46282 0.0
N1244 N 0.45581 0.30043 0.45675 0.0
C1245 C 0.4659 0.29626 0.42319 0.0
C1246 C 0.48462 0.28111 0.44906 0.0
C1247 C 0.45287 0.30408 0.43739 0.0
C1248 C 0.46563 0.26026 0.36823 0.0
N1249 N 0.47486 0.27743 0.37056 0.0
C1250 C 0.44968 0.29399 0.35217 0.0
C1251 C 0.46713 0.29415 0.3628 0.0
C1252 C 0.43968 0.27649 0.34955 0.0
C1253 C 0.44805 0.25946 0.35783 0.0
H1254 H 0.47181 0.24713 0.37466 0.0
H1255 H 0.47437 0.30775 0.36496 0.0
C1256 C 0.53599 0.32633 0.43296 0.0
N1257 N 0.51861 0.32077 0.42542 0.0
C1258 C 0.53774 0.34472 0.44142 0.0
C1259 C 0.50372 0.35163 0.43433 0.0
C1260 C 0.50264 0.33313 0.42593 0.0
C1261 C 0.52151 0.35787 0.44217 0.0
H1262 H 0.54875 0.31669 0.43195 0.0
H1263 H 0.48911 0.32887 0.41937 0.0
C1264 C 0.52027 0.24069 0.36998 0.0
N1265 N 0.5263 0.21296 0.34139 0.0
C1266 C 0.52865 0.22259 0.37475 0.0
C1267 C 0.51471 0.24462 0.35074 0.0
C1268 C 0.53165 0.20879 0.36006 0.0
C1269 C 0.51795 0.23042 0.33647 0.0
C1270 C 0.5529 0.27404 0.42919 0.0
C1271 C 0.57243 0.26787 0.42562 0.0
C1272 C 0.54596 0.2769 0.44844 0.0
C1273 C 0.58469 0.26451 0.44147 0.0
C1274 C 0.55868 0.27339 0.46389 0.0
N1275 N 0.57762 0.26731 0.46012 0.0
C1276 C 0.57038 0.29194 0.36548 0.0
C1277 C 0.56975 0.25766 0.36425 0.0
C1278 C 0.58896 0.29202 0.35584 0.0
N1279 N 0.56116 0.27493 0.36955 0.0
C1280 C 0.58824 0.25707 0.35446 0.0
C1281 C 0.59833 0.27439 0.35025 0.0
H1282 H 0.5635 0.3055 0.37014 0.0
H1283 H 0.5625 0.24425 0.36795 0.0
C1284 C 0.50203 0.22487 0.4331 0.0
N1285 N 0.51913 0.23421 0.4286 0.0
C1286 C 0.50236 0.20647 0.44234 0.0
C1287 C 0.53783 0.20764 0.44264 0.0
C1288 C 0.53684 0.22588 0.43319 0.0
C1289 C 0.52046 0.19746 0.44719 0.0
H1290 H 0.48808 0.23151 0.42912 0.0
H1291 H 0.55035 0.23308 0.42901 0.0
O1292 O 0.51854 0.29905 0.38232 0.0
O1293 O 0.49488 0.27709 0.41544 0.0
O1294 O 0.51712 0.25433 0.38419 0.0
O1295 O 0.54067 0.27725 0.41386 0.0
H1296 H 0.50576 0.33555 0.38082 0.0
H1297 H 0.5271 0.28722 0.34623 0.0
H1298 H 0.5021 0.35496 0.35014 0.0
H1299 H 0.52293 0.30738 0.31616 0.0
H1300 H 0.47316 0.28649 0.47831 0.0
H1301 H 0.46361 0.29917 0.40778 0.0
H1302 H 0.49681 0.27201 0.45385 0.0
H1303 H 0.44043 0.31305 0.43303 0.0
H1304 H 0.4442 0.30754 0.34597 0.0
H1305 H 0.44094 0.24561 0.35668 0.0
H1306 H 0.55194 0.34876 0.44679 0.0
H1307 H 0.49066 0.36094 0.4346 0.0
H1308 H 0.5329 0.21929 0.38962 0.0
H1309 H 0.50785 0.25841 0.34689 0.0
H1310 H 0.53823 0.19475 0.36351 0.0
H1311 H 0.51377 0.23327 0.32151 0.0
H1312 H 0.578 0.26562 0.41076 0.0
H1313 H 0.53093 0.28184 0.45139 0.0
H1314 H 0.59982 0.25967 0.43896 0.0
H1315 H 0.55351 0.27552 0.47888 0.0
H1316 H 0.59611 0.30578 0.35334 0.0
H1317 H 0.59455 0.24309 0.35031 0.0
H1318 H 0.48854 0.19936 0.44563 0.0
H1319 H 0.55217 0.20127 0.44572 0.0
Li1320 Li 0.50467 0.80711 0.12599 0.0
Li1321 Li 0.52669 0.79652 0.15187 0.0
Li1322 Li 0.5154 0.7739 0.12781 0.0
Li1323 Li 0.49319 0.78696 0.15344 0.0
C1324 C 0.54603 0.79061 0.11014 0.0
N1325 N 0.57433 0.7761 0.08394 0.0
C1326 C 0.56484 0.78544 0.11655 0.0
C1327 C 0.54165 0.78852 0.09038 0.0
C1328 C 0.57894 0.77813 0.10307 0.0
C1329 C 0.55614 0.7811 0.07738 0.0
C1330 C 0.51037 0.82853 0.16429 0.0
C1331 C 0.5207 0.84219 0.19464 0.0
N1332 N 0.5276 0.85794 0.18457 0.0
C1333 C 0.51754 0.84486 0.15424 0.0
C1334 C 0.51191 0.82719 0.18467 0.0
C1335 C 0.5262 0.85958 0.16476 0.0
C1336 C 0.47907 0.83599 0.1114 0.0
N1337 N 0.49735 0.82773 0.10914 0.0
C1338 C 0.50575 0.85015 0.08352 0.0
C1339 C 0.51063 0.83437 0.09553 0.0
C1340 C 0.48693 0.85907 0.08545 0.0
C1341 C 0.47338 0.85151 0.09939 0.0
H1342 H 0.46899 0.83066 0.12269 0.0
H1343 H 0.52522 0.82782 0.09442 0.0
C1344 C 0.55016 0.79493 0.18491 0.0
N1345 N 0.54831 0.80356 0.16704 0.0
C1346 C 0.56588 0.79936 0.19662 0.0
C1347 C 0.57769 0.82144 0.17122 0.0
C1348 C 0.56149 0.81678 0.16011 0.0
C1349 C 0.58 0.81259 0.1897 0.0
H1350 H 0.53952 0.78443 0.18999 0.0
H1351 H 0.55956 0.82346 0.14583 0.0
C1352 C 0.47349 0.78872 0.11294 0.0
N1353 N 0.4439 0.79999 0.08792 0.0
C1354 C 0.45444 0.79281 0.12038 0.0
C1355 C 0.47743 0.79023 0.09275 0.0
C1356 C 0.43969 0.7985 0.10749 0.0
C1357 C 0.4623 0.79601 0.08035 0.0
C1358 C 0.50975 0.75564 0.16853 0.0
C1359 C 0.50629 0.73726 0.16101 0.0
C1360 C 0.50516 0.75939 0.18827 0.0
C1361 C 0.4982 0.72295 0.17334 0.0
C1362 C 0.49706 0.74471 0.20011 0.0
N1363 N 0.49378 0.72695 0.19247 0.0
C1364 C 0.53983 0.74276 0.11376 0.0
C1365 C 0.50807 0.74569 0.10017 0.0
C1366 C 0.54453 0.72686 0.10188 0.0
N1367 N 0.52195 0.75194 0.11245 0.0
C1368 C 0.51205 0.72979 0.08822 0.0
C1369 C 0.53047 0.72021 0.08899 0.0
H1370 H 0.55037 0.74776 0.12406 0.0
H1371 H 0.49384 0.75296 0.09975 0.0
C1372 C 0.4647 0.7962 0.18244 0.0
N1373 N 0.47086 0.78214 0.16976 0.0
C1374 C 0.44752 0.79386 0.19382 0.0
C1375 C 0.44341 0.76254 0.17891 0.0
C1376 C 0.46068 0.76552 0.16777 0.0
C1377 C 0.43653 0.77694 0.19199 0.0
H1378 H 0.47283 0.80946 0.18333 0.0
H1379 H 0.46581 0.75476 0.15728 0.0
O1380 O 0.53196 0.79762 0.12314 0.0
O1381 O 0.50236 0.81372 0.15419 0.0
O1382 O 0.48818 0.78324 0.12534 0.0
O1383 O 0.51754 0.76989 0.15664 0.0
H1384 H 0.56846 0.78681 0.1318 0.0
H1385 H 0.52717 0.79241 0.08518 0.0
H1386 H 0.59353 0.77397 0.10784 0.0
H1387 H 0.55291 0.77929 0.06208 0.0
H1388 H 0.52213 0.84127 0.21039 0.0
H1389 H 0.51663 0.84609 0.13847 0.0
H1390 H 0.50671 0.81451 0.19265 0.0
H1391 H 0.53187 0.87226 0.15716 0.0
H1392 H 0.51694 0.85576 0.07346 0.0
H1393 H 0.45868 0.85774 0.10134 0.0
H1394 H 0.56737 0.79199 0.21064 0.0
H1395 H 0.58835 0.83169 0.16543 0.0
H1396 H 0.45108 0.79181 0.13594 0.0
H1397 H 0.49208 0.78716 0.08673 0.0
H1398 H 0.42491 0.8018 0.11306 0.0
H1399 H 0.46519 0.79736 0.06472 0.0
H1400 H 0.5097 0.73404 0.14581 0.0
H1401 H 0.50736 0.77362 0.19429 0.0
H1402 H 0.49541 0.70869 0.16769 0.0
H1403 H 0.49328 0.74747 0.21535 0.0
H1404 H 0.55878 0.7196 0.10307 0.0
H1405 H 0.50084 0.72504 0.07844 0.0
H1406 H 0.44252 0.8055 0.2034 0.0
H1407 H 0.43542 0.74924 0.17714 0.0
Li1408 Li 0.90368 0.05508 0.7642 0.0
Li1409 Li 0.88412 0.03337 0.74457 0.0
Li1410 Li 0.91189 0.05127 0.72992 0.0
Li1411 Li 0.88094 0.06775 0.73944 0.0
C1412 C 0.92804 0.01954 0.74604 0.0
N1413 N 0.96024 0.99655 0.73502 0.0
C1414 C 0.92527 0.00136 0.73776 0.0
C1415 C 0.94715 0.02595 0.74892 0.0
C1416 C 0.94176 0.98997 0.73224 0.0
C1417 C 0.96325 0.01414 0.74318 0.0
C1418 C 0.86038 0.04411 0.77472 0.0
C1419 C 0.82809 0.03014 0.77773 0.0
N1420 N 0.8319 0.02455 0.79646 0.0
C1421 C 0.86394 0.03836 0.79404 0.0
C1422 C 0.84227 0.04011 0.76652 0.0
C1423 C 0.84937 0.02844 0.80478 0.0
C1424 C 0.91202 0.07373 0.80046 0.0
N1425 N 0.91439 0.05752 0.78938 0.0
C1426 C 0.93317 0.04176 0.81422 0.0
C1427 C 0.9244 0.04159 0.79604 0.0
C1428 C 0.93173 0.05855 0.8257 0.0
C1429 C 0.92081 0.07465 0.8187 0.0
H1430 H 0.90345 0.08598 0.79511 0.0
H1431 H 0.92549 0.02864 0.78728 0.0
C1432 C 0.86384 0.00282 0.72785 0.0
N1433 N 0.87127 0.00933 0.74477 0.0
C1434 C 0.85459 0.98493 0.72752 0.0
C1435 C 0.86071 0.98091 0.76211 0.0
C1436 C 0.87026 0.99865 0.76163 0.0
C1437 C 0.85274 0.97375 0.74487 0.0
H1438 H 0.86534 0.01142 0.71454 0.0
H1439 H 0.8768 0.00396 0.77474 0.0
C1440 C 0.91679 0.09042 0.75387 0.0
N1441 N 0.93367 0.11964 0.77469 0.0
C1442 C 0.90566 0.10697 0.75908 0.0
C1443 C 0.93654 0.08877 0.75911 0.0
C1444 C 0.91446 0.12158 0.76962 0.0
C1445 C 0.94479 0.10368 0.76969 0.0
C1446 C 0.87518 0.05409 0.70375 0.0
C1447 C 0.88514 0.06272 0.68778 0.0
C1448 C 0.85463 0.05282 0.7038 0.0
C1449 C 0.87431 0.07016 0.67217 0.0
C1450 C 0.84433 0.06047 0.68793 0.0
N1451 N 0.8543 0.06892 0.67258 0.0
C1452 C 0.9339 0.03393 0.69959 0.0
C1453 C 0.94539 0.06487 0.70839 0.0
C1454 C 0.94873 0.03215 0.68516 0.0
N1455 N 0.93263 0.05 0.71093 0.0
C1456 C 0.96028 0.06387 0.69383 0.0
C1457 C 0.96205 0.0473 0.68208 0.0
H1458 H 0.9232 0.0226 0.70164 0.0
H1459 H 0.9438 0.07762 0.71744 0.0
C1460 C 0.84684 0.09082 0.74496 0.0
N1461 N 0.8631 0.08825 0.73314 0.0
C1462 C 0.83366 0.10617 0.7415 0.0
C1463 C 0.85399 0.11575 0.71346 0.0
C1464 C 0.86694 0.10033 0.71764 0.0
C1465 C 0.83718 0.11902 0.72564 0.0
H1466 H 0.84436 0.08125 0.75741 0.0
H1467 H 0.88022 0.09814 0.70871 0.0
O1468 O 0.9121 0.03101 0.75132 0.0
O1469 O 0.87452 0.05372 0.76393 0.0
O1470 O 0.90845 0.07597 0.74354 0.0
O1471 O 0.8855 0.04689 0.71925 0.0
H1472 H 0.91057 0.99618 0.73546 0.0
H1473 H 0.94951 0.03996 0.75537 0.0
H1474 H 0.93985 0.97592 0.72571 0.0
H1475 H 0.97813 0.01897 0.74519 0.0
H1476 H 0.81406 0.02682 0.77153 0.0
H1477 H 0.87785 0.0414 0.80064 0.0
H1478 H 0.83927 0.0445 0.7516 0.0
H1479 H 0.85195 0.02381 0.81972 0.0
H1480 H 0.94087 0.02878 0.81925 0.0
H1481 H 0.9193 0.0879 0.82704 0.0
H1482 H 0.84923 0.97986 0.71374 0.0
H1483 H 0.8595 0.97302 0.7759 0.0
H1484 H 0.89036 0.10849 0.75512 0.0
H1485 H 0.94535 0.07605 0.75518 0.0
H1486 H 0.90601 0.13445 0.77381 0.0
H1487 H 0.96002 0.10256 0.77395 0.0
H1488 H 0.90105 0.06381 0.68751 0.0
H1489 H 0.84673 0.04613 0.71603 0.0
H1490 H 0.8818 0.07698 0.65975 0.0
H1491 H 0.82841 0.0597 0.68782 0.0
H1492 H 0.94937 0.01936 0.67605 0.0
H1493 H 0.97021 0.07589 0.69168 0.0
H1494 H 0.82127 0.10835 0.75167 0.0
H1495 H 0.85729 0.12517 0.70102 0.0
Li1496 Li 0.78257 0.1884 0.53295 0.0
Li1497 Li 0.8037 0.16253 0.52315 0.0
Li1498 Li 0.78968 0.18322 0.49901 0.0
Li1499 Li 0.76941 0.16019 0.51797 0.0
C1500 C 0.81322 0.20953 0.51625 0.0
N1501 N 0.82282 0.24806 0.51063 0.0
C1502 C 0.83282 0.21522 0.5173 0.0
C1503 C 0.79849 0.22345 0.51234 0.0
C1504 C 0.83737 0.23477 0.51442 0.0
C1505 C 0.80364 0.24285 0.50954 0.0
C1506 C 0.79008 0.16113 0.56188 0.0
C1507 C 0.78799 0.15171 0.59606 0.0
N1508 N 0.80531 0.1607 0.59904 0.0
C1509 C 0.80789 0.17023 0.56529 0.0
C1510 C 0.78007 0.15176 0.57737 0.0
C1511 C 0.81533 0.16987 0.58418 0.0
C1512 C 0.75709 0.21207 0.55502 0.0
N1513 N 0.7765 0.20768 0.55165 0.0
C1514 C 0.78595 0.23162 0.57432 0.0
C1515 C 0.79091 0.21707 0.56094 0.0
C1516 C 0.76598 0.2365 0.57814 0.0
C1517 C 0.75145 0.22655 0.56825 0.0
H1518 H 0.74601 0.20427 0.5474 0.0
H1519 H 0.80624 0.21324 0.55799 0.0
C1520 C 0.84302 0.15265 0.51723 0.0
N1521 N 0.82655 0.14737 0.52756 0.0
C1522 C 0.85939 0.14014 0.51625 0.0
C1523 C 0.84176 0.11737 0.53727 0.0
C1524 C 0.82574 0.13042 0.53794 0.0
C1525 C 0.85863 0.12196 0.52583 0.0
H1526 H 0.84302 0.16614 0.50892 0.0
H1527 H 0.81224 0.1265 0.5457 0.0
C1528 C 0.74836 0.18889 0.49863 0.0
N1529 N 0.71844 0.19077 0.47194 0.0
C1530 C 0.74966 0.17776 0.48161 0.0
C1531 C 0.73185 0.20099 0.50204 0.0
C1532 C 0.73438 0.17891 0.46831 0.0
C1533 C 0.71688 0.20174 0.48838 0.0
C1534 C 0.79885 0.13656 0.49506 0.0
C1535 C 0.81367 0.13418 0.48055 0.0
C1536 C 0.79273 0.12048 0.50621 0.0
C1537 C 0.82221 0.11577 0.47754 0.0
C1538 C 0.80159 0.10231 0.5027 0.0
N1539 N 0.81605 0.10035 0.48858 0.0
C1540 C 0.81212 0.1906 0.46509 0.0
C1541 C 0.78269 0.20971 0.46759 0.0
C1542 C 0.81697 0.19907 0.44696 0.0
N1543 N 0.795 0.19567 0.4747 0.0
C1544 C 0.78687 0.21848 0.44951 0.0
C1545 C 0.8041 0.213 0.43883 0.0
H1546 H 0.82204 0.18004 0.4716 0.0
H1547 H 0.76958 0.21412 0.47588 0.0
C1548 C 0.73749 0.14181 0.53537 0.0
N1549 N 0.74777 0.14358 0.51809 0.0
C1550 C 0.72188 0.12903 0.5371 0.0
C1551 C 0.72741 0.12053 0.50301 0.0
C1552 C 0.7431 0.13335 0.50201 0.0
C1553 C 0.71677 0.11815 0.52081 0.0
H1554 H 0.74158 0.15024 0.54784 0.0
H1555 H 0.75173 0.13491 0.48852 0.0
O1556 O 0.80869 0.19038 0.51901 0.0
O1557 O 0.78237 0.16123 0.54354 0.0
O1558 O 0.76304 0.188 0.51201 0.0
O1559 O 0.79074 0.1546 0.49866 0.0
H1560 H 0.84439 0.20462 0.52031 0.0
H1561 H 0.78323 0.21939 0.51151 0.0
H1562 H 0.85249 0.23938 0.51519 0.0
H1563 H 0.79239 0.25376 0.50651 0.0
H1564 H 0.78038 0.14453 0.60818 0.0
H1565 H 0.81595 0.17748 0.55354 0.0
H1566 H 0.7663 0.14458 0.57499 0.0
H1567 H 0.82908 0.17688 0.58701 0.0
H1568 H 0.7976 0.23866 0.58192 0.0
H1569 H 0.73591 0.22993 0.57071 0.0
H1570 H 0.87226 0.14439 0.50758 0.0
H1571 H 0.84053 0.10345 0.54473 0.0
H1572 H 0.76236 0.16844 0.47855 0.0
H1573 H 0.73061 0.20976 0.5151 0.0
H1574 H 0.73522 0.17039 0.45507 0.0
H1575 H 0.70402 0.21105 0.49085 0.0
H1576 H 0.81861 0.14639 0.47176 0.0
H1577 H 0.7816 0.12207 0.51778 0.0
H1578 H 0.83377 0.11376 0.46644 0.0
H1579 H 0.79708 0.08979 0.51133 0.0
H1580 H 0.8306 0.19475 0.4394 0.0
H1581 H 0.77645 0.22906 0.44376 0.0
H1582 H 0.71381 0.12774 0.55098 0.0
H1583 H 0.72392 0.11227 0.49019 0.0
Li1584 Li 0.6452 0.99341 0.3036 0.0
Li1585 Li 0.66342 0.0175 0.28596 0.0
Li1586 Li 0.6453 0.9941 0.26888 0.0
Li1587 Li 0.67445 0.98468 0.28534 0.0
C1588 C 0.62591 0.02885 0.29792 0.0
N1589 N 0.6082 0.05781 0.32044 0.0
C1590 C 0.63356 0.03353 0.31606 0.0
C1591 C 0.60921 0.03889 0.29129 0.0
C1592 C 0.62441 0.04822 0.3272 0.0
C1593 C 0.60048 0.05349 0.30287 0.0
C1594 C 0.69075 0.00695 0.31378 0.0
C1595 C 0.72344 0.01817 0.30541 0.0
N1596 N 0.7279 0.01761 0.32472 0.0
C1597 C 0.69565 0.0065 0.33354 0.0
C1598 C 0.70475 0.01284 0.29958 0.0
C1599 C 0.71451 0.01194 0.33878 0.0
C1600 C 0.64089 0.98036 0.34192 0.0
N1601 N 0.63063 0.9878 0.32668 0.0
C1602 C 0.60093 0.98919 0.34618 0.0
C1603 C 0.61096 0.99189 0.32829 0.0
C1604 C 0.61134 0.98236 0.36245 0.0
C1605 C 0.63148 0.97753 0.36011 0.0
H1606 H 0.65652 0.97716 0.34005 0.0
H1607 H 0.60321 0.99787 0.3159 0.0
C1608 C 0.67301 0.05119 0.26636 0.0
N1609 N 0.67165 0.0434 0.28471 0.0
C1610 C 0.68109 0.06943 0.26337 0.0
C1611 C 0.68544 0.07163 0.29837 0.0
C1612 C 0.67726 0.05328 0.30069 0.0
C1613 C 0.68782 0.07968 0.27945 0.0
H1614 H 0.66828 0.04295 0.25401 0.0
H1615 H 0.67604 0.04668 0.31512 0.0
C1616 C 0.63241 0.95992 0.28671 0.0
N1617 N 0.59901 0.93753 0.28812 0.0
C1618 C 0.6341 0.93974 0.28885 0.0
C1619 C 0.61372 0.9687 0.28529 0.0
C1620 C 0.61704 0.92867 0.28953 0.0
C1621 C 0.59702 0.95714 0.28603 0.0
C1622 C 0.67929 0.99354 0.24586 0.0
C1623 C 0.67634 0.97369 0.24333 0.0
C1624 C 0.68928 0.00414 0.23121 0.0
C1625 C 0.68342 0.9648 0.22615 0.0
C1626 C 0.69614 0.99472 0.21424 0.0
N1627 N 0.69308 0.97541 0.21208 0.0
C1628 C 0.62083 0.0089 0.24154 0.0
C1629 C 0.62534 0.97482 0.23797 0.0
C1630 C 0.60711 0.00949 0.22683 0.0
N1631 N 0.62935 0.99175 0.247 0.0
C1632 C 0.61173 0.97476 0.22296 0.0
C1633 C 0.6022 0.99225 0.21755 0.0
H1634 H 0.62454 0.02211 0.24889 0.0
H1635 H 0.63235 0.96138 0.2427 0.0
C1636 C 0.69459 0.95345 0.29992 0.0
N1637 N 0.69666 0.96812 0.28663 0.0
C1638 C 0.71019 0.94052 0.30316 0.0
C1639 C 0.72996 0.95827 0.27916 0.0
C1640 C 0.71389 0.97091 0.27638 0.0
C1641 C 0.72816 0.94279 0.29268 0.0
H1642 H 0.68072 0.95183 0.30798 0.0
H1643 H 0.71519 0.98298 0.26616 0.0
O1644 O 0.63447 0.01447 0.28667 0.0
O1645 O 0.6723 0.00162 0.30855 0.0
O1646 O 0.64907 0.97083 0.28604 0.0
O1647 O 0.67255 0.00272 0.26251 0.0
H1648 H 0.64634 0.02588 0.32159 0.0
H1649 H 0.60302 0.0354 0.27734 0.0
H1650 H 0.63018 0.05196 0.34126 0.0
H1651 H 0.58755 0.06137 0.2979 0.0
H1652 H 0.7344 0.02276 0.29457 0.0
H1653 H 0.68498 0.00201 0.34472 0.0
H1654 H 0.70125 0.01337 0.28423 0.0
H1655 H 0.7185 0.01166 0.35403 0.0
H1656 H 0.58545 0.99333 0.34752 0.0
H1657 H 0.63992 0.97211 0.37234 0.0
H1658 H 0.68238 0.07531 0.24859 0.0
H1659 H 0.69057 0.07905 0.31111 0.0
H1660 H 0.64847 0.93272 0.28996 0.0
H1661 H 0.61207 0.98426 0.28355 0.0
H1662 H 0.61814 0.91304 0.29118 0.0
H1663 H 0.58248 0.96375 0.28492 0.0
H1664 H 0.66876 0.96516 0.25448 0.0
H1665 H 0.69173 0.01951 0.23296 0.0
H1666 H 0.68123 0.94946 0.22401 0.0
H1667 H 0.70389 0.00276 0.20279 0.0
H1668 H 0.60041 0.02332 0.22272 0.0
H1669 H 0.60833 0.96122 0.21601 0.0
H1670 H 0.70796 0.92854 0.31338 0.0
H1671 H 0.74359 0.96053 0.27084 0.0
Li1672 Li 0.75522 0.91387 0.01887 0.0
Li1673 Li 0.77419 0.88808 0.03545 0.0
Li1674 Li 0.79196 0.91429 0.01741 0.0
Li1675 Li 0.77401 0.88993 0.99892 0.0
C1676 C 0.7645 0.92012 0.05849 0.0
N1677 N 0.74589 0.92713 0.09434 0.0
C1678 C 0.74574 0.9128 0.06264 0.0
C1679 C 0.7738 0.93101 0.07255 0.0
C1680 C 0.73658 0.9165 0.08085 0.0
C1681 C 0.76415 0.93439 0.0906 0.0
C1682 C 0.74639 0.86606 0.01688 0.0
C1683 C 0.75558 0.83202 0.01773 0.0
N1684 N 0.73645 0.8274 0.01499 0.0
C1685 C 0.72682 0.86097 0.01415 0.0
C1686 C 0.76089 0.85147 0.01875 0.0
C1687 C 0.7221 0.84134 0.0132 0.0
C1688 C 0.71476 0.92023 0.01193 0.0
N1689 N 0.73042 0.92872 0.02012 0.0
C1690 C 0.70968 0.95568 0.03032 0.0
C1691 C 0.7282 0.94615 0.02923 0.0
C1692 C 0.69309 0.94714 0.02215 0.0
C1693 C 0.69599 0.92908 0.01289 0.0
H1694 H 0.71682 0.90638 0.00478 0.0
H1695 H 0.74077 0.95265 0.0358 0.0
C1696 C 0.79169 0.86967 0.06914 0.0
N1697 N 0.77445 0.87231 0.05963 0.0
C1698 C 0.79201 0.86022 0.08752 0.0
C1699 C 0.75686 0.85613 0.08603 0.0
C1700 C 0.75723 0.86558 0.06766 0.0
C1701 C 0.77438 0.85345 0.09645 0.0
H1702 H 0.8052 0.87525 0.06263 0.0
H1703 H 0.7436 0.86802 0.06008 0.0
C1704 C 0.7723 0.93829 0.99077 0.0
N1705 N 0.77083 0.97743 0.98123 0.0
C1706 C 0.7703 0.9443 0.97127 0.0
C1707 C 0.77367 0.95221 0.00541 0.0
C1708 C 0.76955 0.96415 0.96675 0.0
C1709 C 0.77286 0.97191 0.00029 0.0
C1710 C 0.81395 0.8819 0.00522 0.0
C1711 C 0.81675 0.89132 0.98711 0.0
C1712 C 0.82835 0.86883 0.01191 0.0
C1713 C 0.83399 0.88751 0.97598 0.0
C1714 C 0.84539 0.8654 0.00035 0.0
N1715 N 0.84783 0.87474 0.98278 0.0
C1716 C 0.82554 0.9309 0.03501 0.0
C1717 C 0.82288 0.9394 0.00148 0.0
C1718 C 0.84299 0.94143 0.03615 0.0
N1719 N 0.81582 0.93003 0.01786 0.0
C1720 C 0.84022 0.95021 0.00201 0.0
C1721 C 0.85067 0.95132 0.0195 0.0
H1722 H 0.81978 0.92329 0.04785 0.0
H1723 H 0.81517 0.93838 0.98789 0.0
C1724 C 0.76511 0.88573 0.95859 0.0
N1725 N 0.77325 0.87591 0.97392 0.0
C1726 C 0.76402 0.87712 0.94011 0.0
C1727 C 0.7792 0.84806 0.9534 0.0
C1728 C 0.78034 0.85738 0.97158 0.0
C1729 C 0.77105 0.85797 0.93726 0.0
H1730 H 0.75935 0.90032 0.96072 0.0
H1731 H 0.78693 0.84978 0.98381 0.0
O1732 O 0.77384 0.91658 0.04082 0.0
O1733 O 0.7512 0.88524 0.01787 0.0
O1734 O 0.77315 0.91887 0.99538 0.0
O1735 O 0.79723 0.8854 0.01642 0.0
H1736 H 0.73835 0.90428 0.05194 0.0
H1737 H 0.78833 0.93676 0.06954 0.0
H1738 H 0.72207 0.91089 0.08427 0.0
H1739 H 0.77117 0.94279 0.10163 0.0
H1740 H 0.76666 0.82059 0.01912 0.0
H1741 H 0.71536 0.87203 0.0128 0.0
H1742 H 0.77609 0.85504 0.021 0.0
H1743 H 0.70701 0.8372 0.01107 0.0
H1744 H 0.70846 0.96966 0.03738 0.0
H1745 H 0.68382 0.92156 0.0067 0.0
H1746 H 0.80598 0.85831 0.09465 0.0
H1747 H 0.74282 0.85154 0.09224 0.0
H1748 H 0.7694 0.93376 0.95971 0.0
H1749 H 0.77544 0.94793 0.02055 0.0
H1750 H 0.76799 0.96899 0.95171 0.0
H1751 H 0.77388 0.98282 0.01148 0.0
H1752 H 0.80577 0.90148 0.98167 0.0
H1753 H 0.82638 0.86143 0.02591 0.0
H1754 H 0.83636 0.8947 0.96195 0.0
H1755 H 0.85668 0.85532 0.00535 0.0
H1756 H 0.85029 0.94195 0.05004 0.0
H1757 H 0.84559 0.95728 0.98869 0.0
H1758 H 0.75742 0.88529 0.92824 0.0
H1759 H 0.78495 0.83334 0.95191 0.0
Li1760 Li 0.27861 0.68199 0.03049 0.0
Li1761 Li 0.30188 0.65723 0.02109 0.0
Li1762 Li 0.28473 0.67551 0.9967 0.0
Li1763 Li 0.26759 0.65237 0.01686 0.0
C1764 C 0.30691 0.70463 0.01161 0.0
N1765 N 0.31343 0.74352 0.00386 0.0
C1766 C 0.32612 0.71165 0.01094 0.0
C1767 C 0.29101 0.71742 0.00837 0.0
C1768 C 0.32911 0.73135 0.007 0.0
C1769 C 0.29461 0.73701 0.00446 0.0
C1770 C 0.28913 0.6564 0.06013 0.0
C1771 C 0.28847 0.64821 0.09463 0.0
N1772 N 0.30522 0.6584 0.09681 0.0
C1773 C 0.30638 0.66675 0.06271 0.0
C1774 C 0.28012 0.64701 0.0762 0.0
C1775 C 0.31427 0.66761 0.08136 0.0
C1776 C 0.25266 0.70478 0.05344 0.0
N1777 N 0.27207 0.70138 0.04901 0.0
C1778 C 0.28153 0.72508 0.07195 0.0
C1779 C 0.28646 0.71132 0.05774 0.0
C1780 C 0.26158 0.72873 0.07713 0.0
C1781 C 0.24703 0.71854 0.06748 0.0
H1782 H 0.24157 0.69662 0.04621 0.0
H1783 H 0.30179 0.70835 0.05389 0.0
C1784 C 0.34214 0.65197 0.01549 0.0
N1785 N 0.32628 0.64483 0.02561 0.0
C1786 C 0.36036 0.64233 0.01625 0.0
C1787 C 0.34553 0.61831 0.03799 0.0
C1788 C 0.32766 0.6286 0.03707 0.0
C1789 C 0.36203 0.62507 0.02726 0.0
H1790 H 0.34043 0.6648 0.00633 0.0
H1791 H 0.31476 0.62331 0.04497 0.0
C1792 C 0.24363 0.67838 0.99718 0.0
N1793 N 0.21334 0.67675 0.97103 0.0
C1794 C 0.24566 0.66679 0.98053 0.0
C1795 C 0.2262 0.68917 0.0005 0.0
C1796 C 0.23019 0.66615 0.96749 0.0
C1797 C 0.21105 0.68815 0.98711 0.0
C1798 C 0.29339 0.62774 0.99563 0.0
C1799 C 0.30094 0.62059 0.97779 0.0
C1800 C 0.29018 0.61495 0.01142 0.0
C1801 C 0.3052 0.60073 0.97606 0.0
C1802 C 0.29463 0.5952 0.00911 0.0
N1803 N 0.30198 0.58855 0.99163 0.0
C1804 C 0.30322 0.67877 0.96017 0.0
C1805 C 0.27628 0.70094 0.9649 0.0
C1806 C 0.30673 0.68594 0.94122 0.0
N1807 N 0.28815 0.68626 0.97144 0.0
C1808 C 0.27921 0.70851 0.94605 0.0
C1809 C 0.29459 0.70097 0.93395 0.0
H1810 H 0.31252 0.66724 0.96597 0.0
H1811 H 0.26449 0.70671 0.97427 0.0
C1812 C 0.2374 0.63267 0.03587 0.0
N1813 N 0.24712 0.63424 0.01826 0.0
C1814 C 0.22197 0.61975 0.03833 0.0
C1815 C 0.22673 0.61045 0.00439 0.0
C1816 C 0.24225 0.62342 0.00264 0.0
C1817 C 0.21643 0.60854 0.02243 0.0
H1818 H 0.24156 0.64161 0.04793 0.0
H1819 H 0.25035 0.62488 0.98884 0.0
O1820 O 0.30389 0.68534 0.01545 0.0
O1821 O 0.28104 0.65528 0.04203 0.0
O1822 O 0.25851 0.67928 0.01028 0.0
O1823 O 0.28929 0.6472 0.99746 0.0
H1824 H 0.33859 0.70196 0.01347 0.0
H1825 H 0.27603 0.71234 0.0089 0.0
H1826 H 0.34391 0.73697 0.00643 0.0
H1827 H 0.28244 0.74705 0.00192 0.0
H1828 H 0.28163 0.64102 0.10719 0.0
H1829 H 0.31366 0.67406 0.05049 0.0
H1830 H 0.26681 0.63887 0.07446 0.0
H1831 H 0.32759 0.67559 0.08356 0.0
H1832 H 0.29327 0.7323 0.07923 0.0
H1833 H 0.23149 0.72103 0.07086 0.0
H1834 H 0.37278 0.64781 0.00765 0.0
H1835 H 0.3464 0.60507 0.04669 0.0
H1836 H 0.25904 0.65839 0.9776 0.0
H1837 H 0.22439 0.69826 0.01329 0.0
H1838 H 0.23158 0.65724 0.95455 0.0
H1839 H 0.19747 0.69642 0.98952 0.0
H1840 H 0.30349 0.6303 0.96541 0.0
H1841 H 0.28439 0.62019 0.02536 0.0
H1842 H 0.31106 0.595 0.96234 0.0
H1843 H 0.29225 0.58515 0.02123 0.0
H1844 H 0.31889 0.67992 0.93244 0.0
H1845 H 0.26933 0.71991 0.94091 0.0
H1846 H 0.21415 0.61888 0.05238 0.0
H1847 H 0.22287 0.60196 0.99184 0.0
Li1848 Li 0.15568 0.52538 0.78459 0.0
Li1849 Li 0.13274 0.50948 0.80579 0.0
Li1850 Li 0.1586 0.49145 0.78995 0.0
Li1851 Li 0.1322 0.50431 0.77146 0.0
C1852 C 0.18079 0.51334 0.81404 0.0
N1853 N 0.22004 0.51627 0.82324 0.0
C1854 C 0.18617 0.51448 0.83361 0.0
C1855 C 0.19539 0.51371 0.79914 0.0
C1856 C 0.20609 0.51595 0.83796 0.0
C1857 C 0.21515 0.51519 0.80409 0.0
C1858 C 0.12172 0.54649 0.79372 0.0
C1859 C 0.10318 0.57678 0.79358 0.0
N1860 N 0.11184 0.58188 0.81045 0.0
C1861 C 0.13042 0.55203 0.81108 0.0
C1862 C 0.10797 0.55895 0.78491 0.0
C1863 C 0.12524 0.56997 0.8193 0.0
C1864 C 0.16932 0.55527 0.76067 0.0
N1865 N 0.16898 0.54864 0.77949 0.0
C1866 C 0.18678 0.57599 0.78986 0.0
C1867 C 0.17732 0.55862 0.79407 0.0
C1868 C 0.18727 0.58335 0.77054 0.0
C1869 C 0.17838 0.57274 0.75582 0.0
H1870 H 0.1623 0.54706 0.74948 0.0
H1871 H 0.17657 0.55316 0.80898 0.0
C1872 C 0.12772 0.50196 0.84484 0.0
N1873 N 0.11824 0.5102 0.82948 0.0
C1874 C 0.11844 0.50109 0.86324 0.0
C1875 C 0.08957 0.51678 0.84951 0.0
C1876 C 0.09956 0.5176 0.83136 0.0
C1877 C 0.09914 0.50852 0.86566 0.0
H1878 H 0.14248 0.49596 0.84269 0.0
H1879 H 0.09242 0.52403 0.81881 0.0
C1880 C 0.16504 0.49243 0.74965 0.0
N1881 N 0.17378 0.46653 0.71985 0.0
C1882 C 0.15785 0.47354 0.75072 0.0
C1883 C 0.17668 0.49813 0.73343 0.0
C1884 C 0.16243 0.46067 0.73551 0.0
C1885 C 0.18093 0.48483 0.71851 0.0
C1886 C 0.11172 0.47776 0.79473 0.0
C1887 C 0.10861 0.4584 0.80015 0.0
C1888 C 0.09552 0.49021 0.79164 0.0
C1889 C 0.08931 0.4518 0.80243 0.0
C1890 C 0.07646 0.48306 0.79406 0.0
N1891 N 0.07377 0.46417 0.79937 0.0
C1892 C 0.16835 0.4578 0.80866 0.0
C1893 C 0.19303 0.4671 0.78514 0.0
C1894 C 0.17892 0.44093 0.81321 0.0
N1895 N 0.17536 0.47019 0.79461 0.0
C1896 C 0.20424 0.45045 0.7894 0.0
C1897 C 0.19693 0.43703 0.80333 0.0
H1898 H 0.15436 0.46094 0.81609 0.0
H1899 H 0.19822 0.47734 0.77411 0.0
C1900 C 0.11154 0.51773 0.73996 0.0
N1901 N 0.11599 0.50111 0.7499 0.0
C1902 C 0.09903 0.51735 0.72418 0.0
C1903 C 0.09612 0.48262 0.72898 0.0
C1904 C 0.10877 0.48368 0.7447 0.0
C1905 C 0.09098 0.49966 0.71864 0.0
H1906 H 0.11771 0.53131 0.74439 0.0
H1907 H 0.11263 0.47066 0.75288 0.0
O1908 O 0.1613 0.51179 0.80968 0.0
O1909 O 0.12653 0.52905 0.78523 0.0
O1910 O 0.16084 0.50543 0.7643 0.0
O1911 O 0.1306 0.4843 0.79248 0.0
H1912 H 0.17505 0.51424 0.84532 0.0
H1913 H 0.19159 0.51293 0.7839 0.0
H1914 H 0.21045 0.51684 0.85305 0.0
H1915 H 0.22659 0.5155 0.7927 0.0
H1916 H 0.09257 0.58656 0.7869 0.0
H1917 H 0.14104 0.54263 0.8182 0.0
H1918 H 0.10108 0.55487 0.77148 0.0
H1919 H 0.13188 0.57443 0.83271 0.0
H1920 H 0.19367 0.58352 0.80162 0.0
H1921 H 0.17807 0.57802 0.74082 0.0
H1922 H 0.12614 0.49448 0.8754 0.0
H1923 H 0.0747 0.52274 0.851 0.0
H1924 H 0.14888 0.46878 0.76314 0.0
H1925 H 0.18236 0.5127 0.73239 0.0
H1926 H 0.15697 0.44601 0.73616 0.0
H1927 H 0.18993 0.48905 0.70587 0.0
H1928 H 0.12099 0.44856 0.80255 0.0
H1929 H 0.09756 0.50521 0.78735 0.0
H1930 H 0.0867 0.43685 0.80663 0.0
H1931 H 0.0638 0.49254 0.79172 0.0
H1932 H 0.17294 0.43087 0.82407 0.0
H1933 H 0.21802 0.44769 0.78139 0.0
H1934 H 0.09582 0.53076 0.71632 0.0
H1935 H 0.09019 0.46871 0.72518 0.0
Li1936 Li 0.25564 0.41454 0.51972 0.0
Li1937 Li 0.27473 0.38679 0.53732 0.0
Li1938 Li 0.29332 0.41453 0.51804 0.0
Li1939 Li 0.27421 0.39055 0.50112 0.0
C1940 C 0.27169 0.42582 0.55843 0.0
N1941 N 0.26554 0.44584 0.59302 0.0
C1942 C 0.25974 0.41807 0.5735 0.0
C1943 C 0.28062 0.4437 0.561 0.0
C1944 C 0.25678 0.42843 0.59086 0.0
C1945 C 0.27729 0.45362 0.57858 0.0
C1946 C 0.24104 0.37283 0.51033 0.0
C1947 C 0.23231 0.33972 0.50424 0.0
N1948 N 0.22058 0.34603 0.48952 0.0
C1949 C 0.22883 0.37902 0.49522 0.0
C1950 C 0.24278 0.35305 0.51494 0.0
C1951 C 0.21865 0.36523 0.48483 0.0
C1952 C 0.22278 0.43576 0.50405 0.0
N1953 N 0.23088 0.4297 0.52117 0.0
C1954 C 0.20265 0.44235 0.53934 0.0
C1955 C 0.22118 0.43286 0.53864 0.0
C1956 C 0.19375 0.4485 0.52187 0.0
C1957 C 0.20424 0.4452 0.50407 0.0
H1958 H 0.23056 0.43293 0.49028 0.0
H1959 H 0.22752 0.42759 0.55205 0.0
C1960 C 0.29156 0.37144 0.57265 0.0
N1961 N 0.27505 0.37152 0.56176 0.0
C1962 C 0.2917 0.36241 0.59124 0.0
C1963 C 0.25792 0.35339 0.58712 0.0
C1964 C 0.25842 0.36262 0.56862 0.0
C1965 C 0.27465 0.35333 0.59891 0.0
H1966 H 0.30456 0.37878 0.56707 0.0
H1967 H 0.24528 0.3632 0.55999 0.0
C1968 C 0.27413 0.43883 0.49215 0.0
N1969 N 0.27478 0.47819 0.48358 0.0
C1970 C 0.27827 0.44532 0.47298 0.0
C1971 C 0.27033 0.4524 0.50692 0.0
C1972 C 0.27854 0.46527 0.46896 0.0
C1973 C 0.27071 0.47222 0.50231 0.0
C1974 C 0.30838 0.37254 0.5072 0.0
C1975 C 0.31887 0.37877 0.49042 0.0
C1976 C 0.30866 0.35288 0.5125 0.0
C1977 C 0.32933 0.36509 0.47902 0.0
C1978 C 0.31933 0.33966 0.50074 0.0
N1979 N 0.32933 0.34599 0.48437 0.0
C1980 C 0.32729 0.43076 0.53569 0.0
C1981 C 0.32462 0.43889 0.5021 0.0
C1982 C 0.34493 0.44103 0.53663 0.0
N1983 N 0.31742 0.42988 0.51862 0.0
C1984 C 0.34215 0.44941 0.5024 0.0
C1985 C 0.35275 0.45061 0.51982 0.0
H1986 H 0.32155 0.42328 0.54861 0.0
H1987 H 0.31686 0.4378 0.48856 0.0
C1988 C 0.27109 0.3872 0.45949 0.0
N1989 N 0.27328 0.37618 0.47603 0.0
C1990 C 0.26985 0.37857 0.44104 0.0
C1991 C 0.27277 0.34714 0.45669 0.0
C1992 C 0.27414 0.35641 0.47487 0.0
C1993 C 0.27064 0.35822 0.43934 0.0
H1994 H 0.27007 0.40281 0.46059 0.0
H1995 H 0.27576 0.34773 0.48805 0.0
O1996 O 0.27508 0.41572 0.54146 0.0
O1997 O 0.25141 0.38607 0.5204 0.0
O1998 O 0.27404 0.4193 0.49632 0.0
O1999 O 0.29782 0.38565 0.51835 0.0
H2000 H 0.25263 0.40432 0.57173 0.0
H2001 H 0.29002 0.44988 0.54955 0.0
H2002 H 0.24749 0.42263 0.6026 0.0
H2003 H 0.28408 0.46748 0.58075 0.0
H2004 H 0.23358 0.32435 0.50757 0.0
H2005 H 0.22743 0.39428 0.49142 0.0
H2006 H 0.25233 0.34802 0.52648 0.0
H2007 H 0.20924 0.36978 0.47301 0.0
H2008 H 0.1951 0.44427 0.55341 0.0
H2009 H 0.19817 0.44982 0.49022 0.0
H2010 H 0.30508 0.36261 0.59951 0.0
H2011 H 0.2443 0.34692 0.59236 0.0
H2012 H 0.28146 0.4351 0.46135 0.0
H2013 H 0.26695 0.44775 0.52177 0.0
H2014 H 0.28178 0.47047 0.45421 0.0
H2015 H 0.26774 0.48284 0.51363 0.0
H2016 H 0.31875 0.39398 0.48616 0.0
H2017 H 0.30058 0.34788 0.52547 0.0
H2018 H 0.33741 0.36966 0.46591 0.0
H2019 H 0.31962 0.32436 0.50458 0.0
H2020 H 0.35255 0.44108 0.55035 0.0
H2021 H 0.34724 0.45662 0.48906 0.0
H2022 H 0.2679 0.38781 0.42825 0.0
H2023 H 0.27359 0.33143 0.45623 0.0
Li2024 Li 0.40327 0.55404 0.26803 0.0
Li2025 Li 0.38357 0.53154 0.24985 0.0
Li2026 Li 0.408 0.55198 0.23392 0.0
Li2027 Li 0.37726 0.56614 0.24739 0.0
C2028 C 0.43016 0.52259 0.24789 0.0
N2029 N 0.46605 0.50626 0.23587 0.0
C2030 C 0.43147 0.50306 0.24251 0.0
C2031 C 0.44723 0.53365 0.24759 0.0
C2032 C 0.44971 0.49511 0.23638 0.0
C2033 C 0.4652 0.5252 0.24134 0.0
C2034 C 0.37096 0.53993 0.2886 0.0
C2035 C 0.35287 0.53631 0.31939 0.0
N2036 N 0.36448 0.52065 0.32396 0.0
C2037 C 0.38272 0.52378 0.29364 0.0
C2038 C 0.35593 0.54625 0.30162 0.0
C2039 C 0.3792 0.51424 0.31156 0.0
C2040 C 0.40844 0.57031 0.30553 0.0
N2041 N 0.41554 0.55699 0.29242 0.0
C2042 C 0.43889 0.54485 0.31523 0.0
C2043 C 0.43037 0.54431 0.29696 0.0
C2044 C 0.43199 0.55851 0.32902 0.0
C2045 C 0.41668 0.5715 0.32399 0.0
H2046 H 0.39611 0.57972 0.3018 0.0
H2047 H 0.4353 0.53342 0.28661 0.0
C2048 C 0.37766 0.49435 0.23519 0.0
N2049 N 0.37086 0.50728 0.24881 0.0
C2050 C 0.36884 0.47632 0.23368 0.0
C2051 C 0.34557 0.48568 0.25957 0.0
C2052 C 0.35483 0.50348 0.26057 0.0
C2053 C 0.35266 0.47177 0.24609 0.0
H2054 H 0.38979 0.49818 0.22535 0.0
H2055 H 0.34901 0.51429 0.2706 0.0
C2056 C 0.41151 0.59073 0.26003 0.0
N2057 N 0.42576 0.61976 0.28308 0.0
C2058 C 0.39857 0.60459 0.26838 0.0
C2059 C 0.43174 0.59183 0.26318 0.0
C2060 C 0.40605 0.61912 0.28003 0.0
C2061 C 0.43864 0.60654 0.27495 0.0
C2062 C 0.36294 0.54353 0.21759 0.0
C2063 C 0.36184 0.54047 0.19745 0.0
C2064 C 0.34582 0.54269 0.22948 0.0
C2065 C 0.34358 0.53665 0.1895 0.0
C2066 C 0.32784 0.53883 0.22098 0.0
N2067 N 0.3271 0.53592 0.20132 0.0
C2068 C 0.42913 0.53689 0.20179 0.0
C2069 C 0.43808 0.56885 0.2101 0.0
C2070 C 0.44398 0.53608 0.18728 0.0
N2071 N 0.42671 0.55297 0.213 0.0
C2072 C 0.45294 0.56879 0.1955 0.0
C2073 C 0.45615 0.55214 0.1841 0.0
H2074 H 0.41976 0.52454 0.20447 0.0
H2075 H 0.43575 0.58143 0.21928 0.0
C2076 C 0.34503 0.58952 0.25921 0.0
N2077 N 0.35698 0.58484 0.24361 0.0
C2078 C 0.32993 0.60335 0.25718 0.0
C2079 C 0.33943 0.60694 0.22288 0.0
C2080 C 0.35443 0.59305 0.22561 0.0
C2081 C 0.32705 0.61238 0.23886 0.0
H2082 H 0.34755 0.58282 0.27333 0.0
H2083 H 0.36413 0.58886 0.21345 0.0
O2084 O 0.41233 0.53074 0.25364 0.0
O2085 O 0.37436 0.54983 0.27131 0.0
O2086 O 0.40443 0.57628 0.24871 0.0
O2087 O 0.38078 0.54715 0.22554 0.0
H2088 H 0.41861 0.49406 0.24322 0.0
H2089 H 0.44656 0.54867 0.25195 0.0
H2090 H 0.45089 0.48004 0.23208 0.0
H2091 H 0.47845 0.53369 0.24082 0.0
H2092 H 0.34128 0.54106 0.32958 0.0
H2093 H 0.39442 0.51856 0.28388 0.0
H2094 H 0.34669 0.55872 0.29808 0.0
H2095 H 0.38819 0.50174 0.31561 0.0
H2096 H 0.45073 0.53464 0.31857 0.0
H2097 H 0.4108 0.58204 0.33439 0.0
H2098 H 0.37443 0.46618 0.22273 0.0
H2099 H 0.33309 0.48278 0.26937 0.0
H2100 H 0.38291 0.6041 0.26604 0.0
H2101 H 0.44203 0.58144 0.25664 0.0
H2102 H 0.39618 0.62985 0.28668 0.0
H2103 H 0.45425 0.60747 0.27761 0.0
H2104 H 0.37499 0.54102 0.18807 0.0
H2105 H 0.34637 0.54496 0.24511 0.0
H2106 H 0.34251 0.53426 0.17392 0.0
H2107 H 0.31448 0.53813 0.23 0.0
H2108 H 0.44581 0.52312 0.17852 0.0
H2109 H 0.46204 0.58144 0.19336 0.0
H2110 H 0.32107 0.60739 0.27001 0.0
H2111 H 0.33765 0.61345 0.20849 0.0
Co2112 Co 0.01662 0.03644 0.00604 0.0
C2113 C 0.01361 0.06206 0.03826 0.0
Co2114 Co 0.02158 0.02238 0.03453 0.0
C2115 C 0.0016 0.04446 0.96756 0.0
C2116 C 0.01988 0.06706 0.97766 0.0
N2117 N 0.0128 0.04944 0.98264 0.0
N2118 N 0.00124 0.0584 0.95348 0.0
C2119 C 0.01274 0.07263 0.95977 0.0
H2120 H 0.99336 0.03116 0.96722 0.0
H2121 H 0.02933 0.07547 0.98666 0.0
C2122 C 0.02466 0.9967 0.00248 0.0
N2123 N 0.02536 0.00957 0.05807 0.0
C2124 C 0.03869 0.01338 0.07171 0.0
C2125 C 0.01549 0.99406 0.06519 0.0
N2126 N 0.03747 0.00091 0.08705 0.0
C2127 C 0.02283 0.98878 0.08312 0.0
C2128 C 0.98218 0.02107 0.02277 0.0
O2129 O 0.02147 0.01214 0.99243 0.0
O2130 O 0.02579 0.99815 0.02101 0.0
O2131 O 0.9938 0.01697 0.03661 0.0
O2132 O 0.98896 0.03035 0.00788 0.0
O2133 O 0.01744 0.04665 0.04809 0.0
H2134 H 0.00383 0.9869 0.05776 0.0
H2135 H 0.049 0.02517 0.07051 0.0
O2136 O 0.01175 0.06063 0.01981 0.0
O2137 O 0.04425 0.04242 0.00415 0.0
O2138 O 0.04937 0.02792 0.03228 0.0
C2139 C 0.05603 0.0377 0.01767 0.0
H2140 H 0.01576 0.08609 0.95198 0.0
H2141 H 0.0181 0.97674 0.09234 0.0
Co2142 Co 0.27502 0.76921 0.28961 0.0
C2143 C 0.26712 0.73894 0.26475 0.0
Co2144 Co 0.26223 0.7786 0.26161 0.0
C2145 C 0.27913 0.76477 0.331 0.0
C2146 C 0.30287 0.7504 0.31529 0.0
N2147 N 0.28601 0.76081 0.31274 0.0
N2148 N 0.29102 0.7574 0.3448 0.0
C2149 C 0.30613 0.74849 0.33509 0.0
H2150 H 0.26608 0.77365 0.33415 0.0
H2151 H 0.31241 0.74494 0.30353 0.0
C2152 C 0.27038 0.80884 0.28636 0.0
N2153 N 0.25123 0.78702 0.23855 0.0
C2154 C 0.25674 0.78158 0.22028 0.0
C2155 C 0.23572 0.79936 0.23619 0.0
N2156 N 0.24528 0.78991 0.2066 0.0
C2157 C 0.23193 0.80105 0.2165 0.0
C2158 C 0.23439 0.77155 0.29128 0.0
O2159 O 0.27587 0.79541 0.29802 0.0
O2160 O 0.26401 0.80459 0.26966 0.0
O2161 O 0.23663 0.77707 0.27354 0.0
O2162 O 0.24949 0.76709 0.30106 0.0
O2163 O 0.26078 0.75238 0.25352 0.0
H2164 H 0.22755 0.80644 0.24804 0.0
H2165 H 0.26857 0.77117 0.21713 0.0
O2166 O 0.27398 0.74326 0.28124 0.0
O2167 O 0.30057 0.77135 0.27783 0.0
O2168 O 0.28774 0.78006 0.24988 0.0
C2169 C 0.30282 0.77613 0.25989 0.0
H2170 H 0.31868 0.74142 0.34182 0.0
H2171 H 0.22025 0.80969 0.20999 0.0
Co2172 Co 0.51114 0.0227 0.51483 0.0
C2173 C 0.52608 0.05998 0.50691 0.0
Co2174 Co 0.54039 0.02695 0.52688 0.0
C2175 C 0.47166 0.00929 0.51235 0.0
C2176 C 0.47942 0.02787 0.48805 0.0
N2177 N 0.48664 0.01963 0.5045 0.0
N2178 N 0.45539 0.01085 0.50156 0.0
C2179 C 0.46009 0.02258 0.48628 0.0
H2180 H 0.47251 0.00111 0.52597 0.0
H2181 H 0.48763 0.03723 0.47807 0.0
C2182 C 0.52531 0.98973 0.53492 0.0
N2183 N 0.56474 0.03005 0.53743 0.0
C2184 C 0.58058 0.03877 0.52917 0.0
C2185 C 0.57033 0.02452 0.55551 0.0
N2186 N 0.59581 0.03905 0.54144 0.0
C2187 C 0.58943 0.03009 0.55804 0.0
C2188 C 0.5098 0.03689 0.55242 0.0
O2189 O 0.51099 0.99624 0.52491 0.0
O2190 O 0.53971 0.00087 0.53761 0.0
O2191 O 0.5284 0.03644 0.55006 0.0
O2192 O 0.49912 0.03148 0.53859 0.0
O2193 O 0.54095 0.05324 0.51599 0.0
H2194 H 0.56099 0.01717 0.56626 0.0
H2195 H 0.58069 0.04532 0.51466 0.0
O2196 O 0.51141 0.04902 0.50498 0.0
O2197 O 0.52324 0.01382 0.49114 0.0
O2198 O 0.55236 0.01724 0.50376 0.0
C2199 C 0.54192 0.01218 0.48962 0.0
H2200 H 0.45032 0.0268 0.47463 0.0
H2201 H 0.59791 0.02783 0.57111 0.0
Co2202 Co 0.28776 0.28118 0.77281 0.0
C2203 C 0.27219 0.29262 0.73677 0.0
Co2204 Co 0.25718 0.27206 0.7697 0.0
C2205 C 0.32818 0.27811 0.78321 0.0
C2206 C 0.32128 0.30587 0.77041 0.0
N2207 N 0.31339 0.28861 0.77531 0.0
N2208 N 0.34503 0.28815 0.78366 0.0
C2209 C 0.34075 0.30564 0.77554 0.0
H2210 H 0.32646 0.2634 0.78868 0.0
H2211 H 0.31326 0.31798 0.76395 0.0
C2212 C 0.2728 0.26064 0.80577 0.0
N2213 N 0.23144 0.26473 0.76716 0.0
C2214 C 0.21724 0.27465 0.75764 0.0
C2215 C 0.22281 0.24831 0.77374 0.0
N2216 N 0.20012 0.26506 0.75787 0.0
C2217 C 0.20347 0.24851 0.76808 0.0
C2218 C 0.28443 0.24525 0.75583 0.0
O2219 O 0.28791 0.26936 0.79881 0.0
O2220 O 0.25764 0.25993 0.79527 0.0
O2221 O 0.26605 0.24869 0.75802 0.0
O2222 O 0.2966 0.25754 0.76169 0.0
O2223 O 0.25694 0.28436 0.74395 0.0
H2224 H 0.2302 0.23678 0.78176 0.0
H2225 H 0.21946 0.28861 0.75055 0.0
O2226 O 0.28754 0.29287 0.74704 0.0
O2227 O 0.27885 0.30482 0.78382 0.0
O2228 O 0.2483 0.29543 0.78142 0.0
C2229 C 0.26051 0.30799 0.78658 0.0
H2230 H 0.35071 0.31769 0.77407 0.0
H2231 H 0.19295 0.23707 0.77061 0.0
Co2232 Co 0.00562 0.00593 0.51425 0.0
C2233 C 0.01362 0.02509 0.54833 0.0
Co2234 Co 0.0203 0.03378 0.50899 0.0
C2235 C 0.99792 0.96608 0.50852 0.0
C2236 C 0.97983 0.97739 0.53208 0.0
N2237 N 0.99386 0.98237 0.51865 0.0
N2238 N 0.98703 0.95099 0.51498 0.0
C2239 C 0.97556 0.95806 0.52985 0.0
H2240 H 0.00846 0.96551 0.49633 0.0
H2241 H 0.97313 0.98718 0.54275 0.0
C2242 C 0.01259 0.01454 0.47494 0.0
N2243 N 0.03205 0.05734 0.50458 0.0
C2244 C 0.02578 0.07434 0.51226 0.0
C2245 C 0.04827 0.06165 0.49356 0.0
N2246 N 0.03731 0.08914 0.5065 0.0
C2247 C 0.05164 0.08129 0.49484 0.0
C2248 C 0.04654 0.00318 0.5122 0.0
O2249 O 0.00503 0.00213 0.48669 0.0
O2250 O 0.01998 0.02975 0.48175 0.0
O2251 O 0.04523 0.02145 0.50977 0.0
O2252 O 0.03091 0.99348 0.51469 0.0
O2253 O 0.02062 0.03782 0.53657 0.0
H2254 H 0.05708 0.0512 0.48522 0.0
H2255 H 0.01318 0.07576 0.5223 0.0
O2256 O 0.00643 0.0098 0.54147 0.0
O2257 O 0.9804 0.01845 0.51388 0.0
O2258 O 0.99524 0.04599 0.50805 0.0
C2259 C 0.97944 0.03667 0.5108 0.0
H2260 H 0.96493 0.94991 0.53855 0.0
H2261 H 0.06357 0.08916 0.48772 0.0
Co2262 Co 0.2728 0.79057 0.77879 0.0
C2263 C 0.23511 0.77562 0.78743 0.0
Co2264 Co 0.26731 0.76294 0.76443 0.0
C2265 C 0.28374 0.82994 0.78455 0.0
C2266 C 0.27315 0.81653 0.8112 0.0
N2267 N 0.27673 0.81317 0.79196 0.0
N2268 N 0.28472 0.84366 0.79838 0.0
C2269 C 0.27815 0.83529 0.81522 0.0
H2270 H 0.28837 0.83192 0.76934 0.0
H2271 H 0.26728 0.806 0.82161 0.0
C2272 C 0.30505 0.77804 0.75588 0.0
N2273 N 0.26329 0.74025 0.75132 0.0
C2274 C 0.2526 0.72507 0.75774 0.0
C2275 C 0.27033 0.73514 0.73336 0.0
N2276 N 0.2527 0.7107 0.74454 0.0
C2277 C 0.26392 0.71684 0.72919 0.0
C2278 C 0.25622 0.79556 0.7429 0.0
O2279 O 0.29888 0.7918 0.7669 0.0
O2280 O 0.29359 0.76402 0.75296 0.0
O2281 O 0.25728 0.77714 0.743 0.0
O2282 O 0.26243 0.8048 0.75739 0.0
O2283 O 0.24106 0.76208 0.77605 0.0
H2284 H 0.27946 0.74416 0.72387 0.0
H2285 H 0.2451 0.72444 0.77196 0.0
O2286 O 0.24676 0.78939 0.79067 0.0
O2287 O 0.2832 0.7763 0.79998 0.0
O2288 O 0.27721 0.74863 0.78601 0.0
C2289 C 0.28375 0.75788 0.80035 0.0
H2290 H 0.27691 0.84228 0.82935 0.0
H2291 H 0.26698 0.70882 0.71586 0.0
Co2292 Co 0.51928 0.02125 0.01127 0.0
C2293 C 0.5549 0.00931 0.02773 0.0
Co2294 Co 0.52058 0.02771 0.04263 0.0
C2295 C 0.51027 0.02722 0.971 0.0
C2296 C 0.52528 0.99996 0.97563 0.0
N2297 N 0.51861 0.01606 0.98496 0.0
N2298 N 0.51119 0.01866 0.95333 0.0
C2299 C 0.52067 0.00149 0.95615 0.0
H2300 H 0.5028 0.04097 0.97395 0.0
H2301 H 0.53251 0.98769 0.98265 0.0
C2302 C 0.48499 0.03981 0.02592 0.0
N2303 N 0.52111 0.03291 0.06895 0.0
C2304 C 0.52853 0.0214 0.08315 0.0
C2305 C 0.51395 0.04883 0.07825 0.0
N2306 N 0.52636 0.02948 0.10102 0.0
C2307 C 0.51716 0.04677 0.09798 0.0
C2308 C 0.53478 0.05709 0.01913 0.0
O2309 O 0.49312 0.0326 0.01055 0.0
O2310 O 0.49449 0.03919 0.04173 0.0
O2311 O 0.53159 0.052 0.03685 0.0
O2312 O 0.53031 0.04575 0.00547 0.0
O2313 O 0.54684 0.01612 0.04336 0.0
H2314 H 0.5069 0.06114 0.07112 0.0
H2315 H 0.53576 0.00752 0.08029 0.0
O2316 O 0.54527 0.01009 0.01203 0.0
O2317 O 0.50827 0.99665 0.01722 0.0
O2318 O 0.50955 0.00348 0.04844 0.0
C2319 C 0.5051 0.99185 0.03505 0.0
H2320 H 0.52366 0.99063 0.94506 0.0
H2321 H 0.513 0.05721 0.10916 0.0
Co2322 Co 0.26781 0.26179 0.27977 0.0
C2323 C 0.30715 0.2739 0.28154 0.0
Co2324 Co 0.273 0.28986 0.26524 0.0
C2325 C 0.25279 0.22369 0.28775 0.0
C2326 C 0.27068 0.23364 0.3108 0.0
N2327 N 0.26374 0.23874 0.29309 0.0
N2328 N 0.25251 0.2094 0.30147 0.0
C2329 C 0.26376 0.21561 0.31601 0.0
H2330 H 0.24482 0.22344 0.27423 0.0
H2331 H 0.28004 0.24253 0.31942 0.0
C2332 C 0.23367 0.2778 0.26346 0.0
N2333 N 0.27692 0.31286 0.25177 0.0
C2334 C 0.2874 0.32833 0.25689 0.0
C2335 C 0.26973 0.31755 0.23407 0.0
N2336 N 0.28701 0.34253 0.24306 0.0
C2337 C 0.27589 0.33576 0.22868 0.0
C2338 C 0.27685 0.25761 0.23998 0.0
O2339 O 0.24014 0.26342 0.27347 0.0
O2340 O 0.2455 0.29133 0.25891 0.0
O2341 O 0.27833 0.27595 0.24121 0.0
O2342 O 0.27289 0.24795 0.2556 0.0
O2343 O 0.30057 0.28838 0.27172 0.0
H2344 H 0.26067 0.30824 0.22556 0.0
H2345 H 0.29498 0.32918 0.2706 0.0
O2346 O 0.29541 0.26021 0.28593 0.0
O2347 O 0.26273 0.27571 0.30389 0.0
O2348 O 0.26768 0.30373 0.28932 0.0
C2349 C 0.26398 0.29409 0.30501 0.0
H2350 H 0.26691 0.20764 0.32938 0.0
H2351 H 0.2727 0.34327 0.21507 0.0
Co2352 Co 0.51352 0.51545 0.02005 0.0
C2353 C 0.52068 0.53318 0.05516 0.0
Co2354 Co 0.52985 0.54265 0.01656 0.0
C2355 C 0.50669 0.47506 0.01669 0.0
C2356 C 0.48262 0.48906 0.03224 0.0
N2357 N 0.50022 0.49249 0.0232 0.0
N2358 N 0.49398 0.46089 0.02134 0.0
C2359 C 0.47864 0.46954 0.03094 0.0
H2360 H 0.52037 0.47279 0.00838 0.0
H2361 H 0.47333 0.5 0.03934 0.0
C2362 C 0.52242 0.52493 0.98147 0.0
N2363 N 0.5433 0.56551 0.01336 0.0
C2364 C 0.53754 0.58292 0.02049 0.0
C2365 C 0.56092 0.56859 0.00423 0.0
N2366 N 0.55081 0.59672 0.01625 0.0
C2367 C 0.5657 0.58784 0.00617 0.0
C2368 C 0.55417 0.51042 0.02023 0.0
O2369 O 0.51402 0.51237 0.99246 0.0
O2370 O 0.53039 0.53942 0.98916 0.0
O2371 O 0.55414 0.52874 0.01812 0.0
O2372 O 0.53787 0.50175 0.02154 0.0
O2373 O 0.52908 0.54585 0.04427 0.0
H2374 H 0.56983 0.55753 0.99686 0.0
H2375 H 0.52412 0.58533 0.02918 0.0
O2376 O 0.51306 0.51856 0.04737 0.0
O2377 O 0.48933 0.5293 0.01872 0.0
O2378 O 0.50542 0.55643 0.01494 0.0
C2379 C 0.48918 0.54762 0.01654 0.0
H2380 H 0.46572 0.46225 0.03679 0.0
H2381 H 0.57898 0.59476 0.00066 0.0
Co2382 Co 0.77358 0.28979 0.2771 0.0
C2383 C 0.73695 0.27397 0.2877 0.0
Co2384 Co 0.77035 0.2599 0.26704 0.0
C2385 C 0.78578 0.3292 0.27699 0.0
C2386 C 0.77003 0.32185 0.30361 0.0
N2387 N 0.77628 0.31457 0.2862 0.0
N2388 N 0.7859 0.34535 0.28797 0.0
C2389 C 0.77593 0.34079 0.30475 0.0
H2390 H 0.79302 0.32776 0.26273 0.0
H2391 H 0.76201 0.31379 0.31486 0.0
C2392 C 0.80697 0.27575 0.2564 0.0
N2393 N 0.76774 0.23522 0.25766 0.0
C2394 C 0.75837 0.22019 0.26631 0.0
C2395 C 0.77395 0.22867 0.23993 0.0
N2396 N 0.75831 0.20454 0.25461 0.0
C2397 C 0.76816 0.20981 0.23801 0.0
C2398 C 0.75773 0.28815 0.24072 0.0
O2399 O 0.7997 0.29053 0.26522 0.0
O2400 O 0.79658 0.26064 0.25556 0.0
O2401 O 0.75991 0.27002 0.24364 0.0
O2402 O 0.76288 0.29985 0.25377 0.0
O2403 O 0.74409 0.25925 0.27866 0.0
H2404 H 0.78182 0.23722 0.22895 0.0
H2405 H 0.75111 0.22097 0.28064 0.0
O2406 O 0.74749 0.28897 0.28883 0.0
O2407 O 0.78437 0.27969 0.30042 0.0
O2408 O 0.78077 0.24982 0.29047 0.0
C2409 C 0.7863 0.26151 0.30338 0.0
H2410 H 0.77318 0.35037 0.31703 0.0
H2411 H 0.77087 0.20074 0.22532 0.0
Co2412 Co 0.02104 0.52379 0.50408 0.0
C2413 C 0.05562 0.51045 0.52171 0.0
Co2414 Co 0.02009 0.52699 0.53612 0.0
C2415 C 0.0126 0.53211 0.46388 0.0
C2416 C 0.02992 0.50596 0.467 0.0
N2417 N 0.02196 0.52098 0.47723 0.0
N2418 N 0.01399 0.52443 0.44581 0.0
C2419 C 0.02496 0.50801 0.44767 0.0
H2420 H 0.00371 0.54486 0.46759 0.0
H2421 H 0.03786 0.49376 0.47338 0.0
C2422 C 0.98549 0.54036 0.51848 0.0
N2423 N 0.01886 0.52971 0.56291 0.0
C2424 C 0.02614 0.51747 0.57659 0.0
C2425 C 0.01013 0.54437 0.57309 0.0
N2426 N 0.02225 0.52389 0.59491 0.0
C2427 C 0.01215 0.5408 0.5928 0.0
C2428 C 0.03517 0.55875 0.51647 0.0
O2429 O 0.99459 0.53477 0.50292 0.0
O2430 O 0.99408 0.53829 0.53469 0.0
O2431 O 0.03106 0.55186 0.5334 0.0
O2432 O 0.03172 0.54884 0.50139 0.0
O2433 O 0.04635 0.51555 0.53739 0.0
H2434 H 0.00295 0.55696 0.56659 0.0
H2435 H 0.03412 0.5041 0.57318 0.0
O2436 O 0.04719 0.51294 0.50544 0.0
O2437 O 0.01051 0.49867 0.50687 0.0
O2438 O 0.00906 0.50215 0.53879 0.0
C2439 C 0.0061 0.49196 0.52381 0.0
H2440 H 0.02836 0.49775 0.43608 0.0
H2441 H 0.00718 0.55021 0.60462 0.0
Co2442 Co 0.79024 0.77762 0.26822 0.0
C2443 C 0.77321 0.79215 0.23388 0.0
Co2444 Co 0.75778 0.77809 0.26988 0.0
C2445 C 0.82986 0.76365 0.27435 0.0
C2446 C 0.8292 0.78961 0.2568 0.0
N2447 N 0.81744 0.77688 0.26639 0.0
N2448 N 0.84897 0.76762 0.2702 0.0
C2449 C 0.84856 0.78396 0.25908 0.0
H2450 H 0.8249 0.75164 0.28347 0.0
H2451 H 0.82404 0.80232 0.24883 0.0
C2452 C 0.77473 0.76354 0.30426 0.0
N2453 N 0.7306 0.77879 0.27145 0.0
C2454 C 0.71829 0.79208 0.26342 0.0
C2455 C 0.71875 0.7652 0.27951 0.0
N2456 N 0.69916 0.78723 0.26585 0.0
C2457 C 0.69945 0.77033 0.27609 0.0
C2458 C 0.77337 0.74391 0.25543 0.0
O2459 O 0.79077 0.7671 0.2948 0.0
O2460 O 0.75849 0.76733 0.29599 0.0
O2461 O 0.75725 0.75279 0.25962 0.0
O2462 O 0.78961 0.7522 0.25815 0.0
O2463 O 0.75722 0.78891 0.2435 0.0
H2464 H 0.72386 0.75201 0.28669 0.0
H2465 H 0.72338 0.80481 0.25549 0.0
O2466 O 0.78945 0.78804 0.24198 0.0
O2467 O 0.7908 0.80307 0.27812 0.0
O2468 O 0.75842 0.80334 0.28028 0.0
C2469 C 0.77467 0.81176 0.28268 0.0
H2470 H 0.86129 0.79145 0.25309 0.0
H2471 H 0.68674 0.76167 0.27994 0.0
Co2472 Co 0.78226 0.27297 0.78412 0.0
C2473 C 0.77716 0.2453 0.75561 0.0
Co2474 Co 0.76769 0.28426 0.75771 0.0
C2475 C 0.78673 0.26432 0.82458 0.0
C2476 C 0.81165 0.25346 0.80786 0.0
N2477 N 0.79412 0.26291 0.80613 0.0
N2478 N 0.79883 0.25619 0.83778 0.0
C2479 C 0.81471 0.2495 0.82745 0.0
H2480 H 0.77307 0.27196 0.82841 0.0
H2481 H 0.82171 0.25003 0.79574 0.0
C2482 C 0.77281 0.31186 0.78631 0.0
N2483 N 0.75575 0.29441 0.73586 0.0
C2484 C 0.76154 0.29146 0.71709 0.0
C2485 C 0.73929 0.3057 0.7349 0.0
N2486 N 0.74933 0.30031 0.70438 0.0
C2487 C 0.7352 0.30923 0.71549 0.0
C2488 C 0.74152 0.27091 0.78608 0.0
O2489 O 0.7808 0.2979 0.7957 0.0
O2490 O 0.7661 0.30894 0.76943 0.0
O2491 O 0.7426 0.27808 0.76887 0.0
O2492 O 0.75722 0.26744 0.79526 0.0
O2493 O 0.7696 0.25934 0.74597 0.0
H2494 H 0.73062 0.31069 0.74749 0.0
H2495 H 0.77406 0.28229 0.71282 0.0
O2496 O 0.78346 0.24818 0.77267 0.0
O2497 O 0.80729 0.27869 0.77267 0.0
O2498 O 0.79266 0.29038 0.7467 0.0
C2499 C 0.80839 0.28653 0.75574 0.0
H2500 H 0.82762 0.24257 0.83364 0.0
H2501 H 0.7227 0.31743 0.70998 0.0
Co2502 Co 0.7691 0.76263 0.77676 0.0
C2503 C 0.80828 0.77558 0.77803 0.0
Co2504 Co 0.77361 0.79099 0.76258 0.0
C2505 C 0.75528 0.72396 0.78442 0.0
C2506 C 0.77493 0.73345 0.80619 0.0
N2507 N 0.7662 0.73912 0.78951 0.0
N2508 N 0.75685 0.70895 0.79728 0.0
C2509 C 0.76926 0.71492 0.81098 0.0
H2510 H 0.74622 0.72409 0.77162 0.0
H2511 H 0.78486 0.74221 0.81431 0.0
C2512 C 0.73441 0.778 0.76138 0.0
N2513 N 0.77655 0.81459 0.74989 0.0
C2514 C 0.78783 0.82953 0.7549 0.0
C2515 C 0.76707 0.82084 0.73378 0.0
N2516 N 0.78557 0.84489 0.74268 0.0
C2517 C 0.77249 0.83957 0.7294 0.0
C2518 C 0.77761 0.75951 0.73658 0.0
O2519 O 0.74121 0.7637 0.77128 0.0
O2520 O 0.746 0.7917 0.75669 0.0
O2521 O 0.77899 0.77787 0.73803 0.0
O2522 O 0.77389 0.74961 0.7521 0.0
O2523 O 0.80134 0.79019 0.76868 0.0
H2524 H 0.75676 0.81238 0.72582 0.0
H2525 H 0.79717 0.82934 0.76751 0.0
O2526 O 0.79685 0.76159 0.78211 0.0
O2527 O 0.76438 0.7757 0.80134 0.0
O2528 O 0.76817 0.80409 0.78713 0.0
C2529 C 0.7651 0.7941 0.80273 0.0
H2530 H 0.77418 0.70647 0.82346 0.0
H2531 H 0.76738 0.84852 0.71734 0.0
Co2532 Co 0.52054 0.53285 0.50649 0.0
C2533 C 0.51698 0.55795 0.53922 0.0
Co2534 Co 0.52538 0.51859 0.53489 0.0
C2535 C 0.5048 0.54211 0.46864 0.0
C2536 C 0.52455 0.5636 0.47838 0.0
N2537 N 0.51671 0.54633 0.4834 0.0
N2538 N 0.50479 0.55613 0.45461 0.0
C2539 C 0.51727 0.56966 0.4607 0.0
H2540 H 0.49623 0.52903 0.46832 0.0
H2541 H 0.53454 0.57152 0.48726 0.0
C2542 C 0.52887 0.49343 0.5022 0.0
N2543 N 0.52926 0.50514 0.55797 0.0
C2544 C 0.54086 0.50974 0.57286 0.0
C2545 C 0.52202 0.48757 0.56286 0.0
N2546 N 0.54131 0.49563 0.58675 0.0
C2547 C 0.52945 0.48166 0.58053 0.0
C2548 C 0.48609 0.51706 0.52293 0.0
O2549 O 0.52528 0.50889 0.49235 0.0
O2550 O 0.53025 0.49477 0.5207 0.0
O2551 O 0.49773 0.51254 0.53664 0.0
O2552 O 0.49286 0.52678 0.50832 0.0
O2553 O 0.52054 0.54246 0.54902 0.0
H2554 H 0.51228 0.4794 0.55392 0.0
H2555 H 0.54934 0.52289 0.57316 0.0
O2556 O 0.51573 0.55672 0.52069 0.0
O2557 O 0.5482 0.53878 0.50468 0.0
O2558 O 0.55307 0.52481 0.53312 0.0
C2559 C 0.55982 0.53445 0.51845 0.0
H2560 H 0.52046 0.58326 0.45327 0.0
H2561 H 0.5264 0.46813 0.5882 0.0
Co2562 Co 0.0028 0.529 0.02377 0.0
C2563 C 0.01818 0.56615 0.01526 0.0
Co2564 Co 0.03226 0.53325 0.03532 0.0
C2565 C 0.963 0.51621 0.02131 0.0
C2566 C 0.97172 0.53356 0.99643 0.0
N2567 N 0.97828 0.52612 0.01346 0.0
N2568 N 0.94708 0.5171 0.00987 0.0
C2569 C 0.95255 0.52809 0.99419 0.0
H2570 H 0.96379 0.5082 0.03502 0.0
H2571 H 0.98034 0.54236 0.98626 0.0
C2572 C 0.01709 0.496 0.0436 0.0
N2573 N 0.05672 0.53612 0.04571 0.0
C2574 C 0.07313 0.54311 0.0368 0.0
C2575 C 0.06208 0.53132 0.06406 0.0
N2576 N 0.08853 0.54292 0.04888 0.0
C2577 C 0.08163 0.53555 0.06608 0.0
C2578 C 0.00167 0.54403 0.06087 0.0
O2579 O 0.00252 0.50253 0.03394 0.0
O2580 O 0.03148 0.50719 0.04614 0.0
O2581 O 0.02031 0.54332 0.05859 0.0
O2582 O 0.99098 0.53798 0.04736 0.0
O2583 O 0.03309 0.55934 0.02423 0.0
H2584 H 0.05237 0.52511 0.07523 0.0
H2585 H 0.07364 0.54852 0.02183 0.0
O2586 O 0.00328 0.55537 0.01376 0.0
O2587 O 0.0146 0.52014 0.00011 0.0
O2588 O 0.04403 0.52334 0.01203 0.0
C2589 C 0.03322 0.51864 0.99803 0.0
H2590 H 0.94342 0.53199 0.98195 0.0
H2591 H 0.09014 0.53321 0.07912 0.0
H2592 H 0.04842 0.16483 0.10158 0.0
H2593 H 0.99368 0.18352 0.07572 0.0
H2594 H 0.04494 0.13271 0.08772 0.0
H2595 H 0.99054 0.15145 0.06146 0.0
H2596 H 0.0033 0.09753 0.02207 0.0
H2597 H 0.00519 0.1297 0.0366 0.0
H2598 H 0.02515 0.10343 0.09047 0.0
H2599 H 0.02331 0.07126 0.07591 0.0
C2600 C 0.03553 0.16218 0.0931 0.0
C2601 C 0.02133 0.17711 0.08998 0.0
C2602 C 0.03355 0.14361 0.08507 0.0
C2603 C 0.01741 0.13927 0.07344 0.0
C2604 C 0.00331 0.15419 0.07011 0.0
C2605 C 0.00519 0.17274 0.07829 0.0
C2606 C 0.0079 0.09856 0.03709 0.0
C2607 C 0.01308 0.08164 0.04777 0.0
C2608 C 0.00895 0.11708 0.04548 0.0
C2609 C 0.01543 0.11936 0.06475 0.0
C2610 C 0.02034 0.1024 0.07552 0.0
C2611 C 0.01911 0.08386 0.0672 0.0
H2612 H 0.13483 0.77842 0.37331 0.0
H2613 H 0.11003 0.75585 0.3208 0.0
H2614 H 0.16686 0.78085 0.3564 0.0
H2615 H 0.14216 0.75812 0.30388 0.0
H2616 H 0.1991 0.78195 0.27533 0.0
H2617 H 0.16644 0.78136 0.29133 0.0
H2618 H 0.19227 0.75838 0.34419 0.0
H2619 H 0.22486 0.75935 0.32843 0.0
C2620 C 0.13627 0.77394 0.35815 0.0
C2621 C 0.12 0.76684 0.34839 0.0
C2622 C 0.15459 0.77529 0.34849 0.0
C2623 C 0.15706 0.76951 0.32887 0.0
C2624 C 0.14066 0.76286 0.31894 0.0
C2625 C 0.12229 0.76156 0.32861 0.0
C2626 C 0.19778 0.77675 0.29036 0.0
C2627 C 0.21455 0.77072 0.30063 0.0
C2628 C 0.17908 0.77635 0.29949 0.0
C2629 C 0.17681 0.76991 0.31904 0.0
C2630 C 0.19358 0.76373 0.32922 0.0
C2631 C 0.21224 0.76416 0.32013 0.0
H2632 H 0.53868 0.88746 0.61174 0.0
H2633 H 0.51128 0.86484 0.56066 0.0
H2634 H 0.53862 0.91974 0.5968 0.0
H2635 H 0.51117 0.89722 0.54571 0.0
H2636 H 0.49681 0.96189 0.53248 0.0
H2637 H 0.49658 0.92932 0.54718 0.0
H2638 H 0.55357 0.93912 0.57151 0.0
H2639 H 0.5536 0.97171 0.55715 0.0
C2640 C 0.53283 0.88924 0.59721 0.0
C2641 C 0.52508 0.87326 0.58749 0.0
C2642 C 0.53278 0.90789 0.58859 0.0
C2643 C 0.52494 0.91132 0.56991 0.0
C2644 C 0.51709 0.89537 0.5602 0.0
C2645 C 0.51717 0.87668 0.56883 0.0
C2646 C 0.50931 0.9571 0.54094 0.0
C2647 C 0.52522 0.96958 0.54357 0.0
C2648 C 0.50924 0.9383 0.54933 0.0
C2649 C 0.52504 0.93137 0.56067 0.0
C2650 C 0.54096 0.94388 0.56319 0.0
C2651 C 0.54105 0.96263 0.5548 0.0
H2652 H 0.44947 0.29376 0.84909 0.0
H2653 H 0.44166 0.2318 0.84547 0.0
H2654 H 0.42166 0.29938 0.82772 0.0
H2655 H 0.41388 0.23742 0.82378 0.0
H2656 H 0.34972 0.26057 0.81204 0.0
H2657 H 0.37983 0.25219 0.8289 0.0
H2658 H 0.41169 0.29388 0.79309 0.0
H2659 H 0.38158 0.30211 0.77584 0.0
C2660 C 0.44178 0.28136 0.84366 0.0
C2661 C 0.4475 0.26236 0.84905 0.0
C2662 C 0.42605 0.28456 0.83126 0.0
C2663 C 0.41568 0.26882 0.82411 0.0
C2664 C 0.42161 0.24979 0.82921 0.0
C2665 C 0.43749 0.24658 0.8415 0.0
C2666 C 0.36317 0.26768 0.80739 0.0
C2667 C 0.36316 0.28214 0.79262 0.0
C2668 C 0.38044 0.26286 0.81709 0.0
C2669 C 0.39802 0.27245 0.81233 0.0
C2670 C 0.39822 0.28645 0.79719 0.0
C2671 C 0.38097 0.2912 0.78738 0.0
H2672 H 0.98724 0.82869 0.48444 0.0
H2673 H 0.99278 0.86166 0.43019 0.0
H2674 H 0.98303 0.85898 0.50259 0.0
H2675 H 0.9895 0.89176 0.44857 0.0
H2676 H 0.01649 0.934 0.49311 0.0
H2677 H 0.01558 0.90315 0.47641 0.0
H2678 H 0.95796 0.89243 0.50223 0.0
H2679 H 0.95823 0.92398 0.51841 0.0
C2680 C 0.9872 0.84232 0.47633 0.0
C2681 C 0.99059 0.84276 0.45586 0.0
C2682 C 0.98486 0.8596 0.48676 0.0
C2683 C 0.98615 0.87751 0.47689 0.0
C2684 C 0.98867 0.87801 0.45643 0.0
C2685 C 0.99069 0.8608 0.44598 0.0
C2686 C 0.00345 0.92533 0.49512 0.0
C2687 C 0.98723 0.93178 0.50682 0.0
C2688 C 0.00304 0.9076 0.48562 0.0
C2689 C 0.9866 0.89572 0.4879 0.0
C2690 C 0.97075 0.90152 0.50027 0.0
C2691 C 0.97099 0.9195 0.50958 0.0
H2692 H 0.4316 0.79093 0.72747 0.0
H2693 H 0.40794 0.76416 0.67653 0.0
H2694 H 0.39887 0.79096 0.74339 0.0
H2695 H 0.37519 0.76497 0.69203 0.0
H2696 H 0.32273 0.75035 0.73236 0.0
H2697 H 0.35574 0.75013 0.71734 0.0
H2698 H 0.36648 0.8059 0.74289 0.0
H2699 H 0.33348 0.80588 0.75833 0.0
C2700 C 0.41948 0.78502 0.71963 0.0
C2701 C 0.4226 0.77755 0.70062 0.0
C2702 C 0.40057 0.78526 0.7287 0.0
C2703 C 0.3842 0.77798 0.71908 0.0
C2704 C 0.38736 0.7705 0.70009 0.0
C2705 C 0.40621 0.77027 0.69104 0.0
C2706 C 0.33209 0.76259 0.73482 0.0
C2707 C 0.32532 0.77814 0.7466 0.0
C2708 C 0.35108 0.76253 0.72606 0.0
C2709 C 0.36395 0.77803 0.72875 0.0
C2710 C 0.35719 0.79357 0.74061 0.0
C2711 C 0.33816 0.79363 0.7494 0.0
H2712 H 0.5802 0.16363 0.96607 0.0
H2713 H 0.52376 0.17492 0.99502 0.0
H2714 H 0.58205 0.13162 0.98224 0.0
H2715 H 0.52565 0.14318 0.01134 0.0
H2716 H 0.54978 0.07001 0.984 0.0
H2717 H 0.55849 0.10324 0.9752 0.0
H2718 H 0.54584 0.12108 0.0348 0.0
H2719 H 0.53725 0.08777 0.04375 0.0
C2720 C 0.56853 0.15943 0.97636 0.0
C2721 C 0.55178 0.17144 0.97931 0.0
C2722 C 0.56956 0.14122 0.98552 0.0
C2723 C 0.55399 0.13505 0.99795 0.0
C2724 C 0.53794 0.14773 0.00198 0.0
C2725 C 0.53677 0.16576 0.99259 0.0
C2726 C 0.54923 0.08094 0.9953 0.0
C2727 C 0.54257 0.07642 0.01446 0.0
C2728 C 0.5544 0.09989 0.99032 0.0
C2729 C 0.55279 0.11461 0.00436 0.0
C2730 C 0.54717 0.1099 0.02377 0.0
C2731 C 0.54224 0.09089 0.02883 0.0
H2732 H 0.12878 0.24594 0.20064 0.0
H2733 H 0.11746 0.30624 0.2145 0.0
H2734 H 0.15967 0.24669 0.2181 0.0
H2735 H 0.14803 0.30681 0.23245 0.0
H2736 H 0.21516 0.30694 0.24268 0.0
H2737 H 0.1833 0.30638 0.22705 0.0
H2738 H 0.17386 0.24855 0.25019 0.0
H2739 H 0.20595 0.24903 0.26566 0.0
C2740 C 0.13282 0.25938 0.2074 0.0
C2741 C 0.12046 0.27604 0.206 0.0
C2742 C 0.15051 0.25975 0.21766 0.0
C2743 C 0.15653 0.27681 0.2268 0.0
C2744 C 0.14411 0.29343 0.2255 0.0
C2745 C 0.12637 0.29303 0.21533 0.0
C2746 C 0.20624 0.29416 0.24465 0.0
C2747 C 0.21324 0.27806 0.25556 0.0
C2748 C 0.18784 0.29385 0.23569 0.0
C2749 C 0.17584 0.2774 0.23721 0.0
C2750 C 0.1827 0.26141 0.24841 0.0
C2751 C 0.20109 0.26175 0.25748 0.0
H2752 H 0.12553 0.97643 0.17372 0.0
H2753 H 0.0873 0.02095 0.19906 0.0
H2754 H 0.10608 0.97737 0.14384 0.0
H2755 H 0.06768 0.02158 0.16947 0.0
H2756 H 0.02563 0.99349 0.12434 0.0
H2757 H 0.04622 0.99295 0.15331 0.0
H2758 H 0.09726 0.0063 0.11668 0.0
H2759 H 0.07656 0.00719 0.08774 0.0
C2760 C 0.11302 0.98641 0.1728 0.0
C2761 C 0.10788 0.99869 0.18849 0.0
C2762 C 0.10199 0.98699 0.1558 0.0
C2763 C 0.08546 0.99951 0.15454 0.0
C2764 C 0.08036 0.01178 0.17023 0.0
C2765 C 0.0916 0.0115 0.18702 0.0
C2766 C 0.04125 0.99625 0.12255 0.0
C2767 C 0.04957 0.00043 0.10394 0.0
C2768 C 0.05295 0.99603 0.13903 0.0
C2769 C 0.07323 0.99958 0.13707 0.0
C2770 C 0.08164 0.00346 0.11844 0.0
C2771 C 0.06984 0.0041 0.102 0.0
H2772 H 0.30154 0.80018 0.46323 0.0
H2773 H 0.24324 0.81481 0.44324 0.0
H2774 H 0.30707 0.77882 0.43515 0.0
H2775 H 0.24892 0.79448 0.41476 0.0
H2776 H 0.25825 0.75308 0.36723 0.0
H2777 H 0.25293 0.76408 0.4009 0.0
H2778 H 0.31365 0.78233 0.40154 0.0
H2779 H 0.31898 0.77007 0.36839 0.0
C2780 C 0.2899 0.79867 0.45283 0.0
C2781 C 0.27199 0.80907 0.45528 0.0
C2782 C 0.29306 0.78656 0.43671 0.0
C2783 C 0.27851 0.78495 0.42254 0.0
C2784 C 0.26035 0.79494 0.42549 0.0
C2785 C 0.25708 0.80673 0.44176 0.0
C2786 C 0.27048 0.75901 0.37491 0.0
C2787 C 0.28895 0.76089 0.3654 0.0
C2788 C 0.26746 0.76548 0.39407 0.0
C2789 C 0.28273 0.77451 0.40387 0.0
C2790 C 0.30157 0.7753 0.39463 0.0
C2791 C 0.30467 0.76836 0.37562 0.0
H2792 H 0.4821 0.06162 0.67556 0.0
H2793 H 0.43778 0.02284 0.65541 0.0
H2794 H 0.49596 0.06406 0.64228 0.0
H2795 H 0.45237 0.02426 0.62256 0.0
H2796 H 0.47072 0.04229 0.56209 0.0
H2797 H 0.45605 0.04575 0.59495 0.0
H2798 H 0.51431 0.04456 0.6192 0.0
H2799 H 0.52892 0.04191 0.58642 0.0
C2800 C 0.4754 0.05353 0.66406 0.0
C2801 C 0.45891 0.04196 0.66814 0.0
C2802 C 0.48342 0.05482 0.64504 0.0
C2803 C 0.47519 0.04445 0.62976 0.0
C2804 C 0.45883 0.03274 0.63391 0.0
C2805 C 0.45072 0.03159 0.65286 0.0
C2806 C 0.48036 0.04312 0.57443 0.0
C2807 C 0.50093 0.04166 0.57173 0.0
C2808 C 0.47198 0.04494 0.59325 0.0
C2809 C 0.48403 0.04511 0.60969 0.0
C2810 C 0.50462 0.04463 0.60685 0.0
C2811 C 0.51299 0.04302 0.58804 0.0
H2812 H 0.25046 0.18802 0.91046 0.0
H2813 H 0.28989 0.23158 0.9304 0.0
H2814 H 0.25175 0.20239 0.8777 0.0
H2815 H 0.29103 0.24616 0.89759 0.0
H2816 H 0.30318 0.25759 0.83176 0.0
H2817 H 0.30267 0.24286 0.86456 0.0
H2818 H 0.24127 0.22911 0.85853 0.0
H2819 H 0.242 0.24328 0.82566 0.0
C2820 C 0.25924 0.20083 0.90797 0.0
C2821 C 0.26998 0.20861 0.92331 0.0
C2822 C 0.25999 0.20914 0.88905 0.0
C2823 C 0.27143 0.22561 0.88474 0.0
C2824 C 0.28226 0.23335 0.90008 0.0
C2825 C 0.28157 0.22498 0.91901 0.0
C2826 C 0.28958 0.25138 0.83742 0.0
C2827 C 0.27265 0.25164 0.82591 0.0
C2828 C 0.28923 0.24301 0.85637 0.0
C2829 C 0.27192 0.23466 0.86445 0.0
C2830 C 0.25501 0.23501 0.85288 0.0
C2831 C 0.25538 0.2433 0.83395 0.0
H2832 H 0.07562 0.96419 0.3814 0.0
H2833 H 0.05108 0.01517 0.35273 0.0
H2834 H 0.0531 0.96946 0.4094 0.0
H2835 H 0.02799 0.01986 0.38027 0.0
H2836 H 0.02373 0.03955 0.44573 0.0
H2837 H 0.03515 0.03124 0.41281 0.0
H2838 H 0.01927 0.97147 0.42346 0.0
H2839 H 0.00802 0.97977 0.45674 0.0
C2840 C 0.06515 0.97627 0.3809 0.0
C2841 C 0.06539 0.98943 0.36499 0.0
C2842 C 0.05204 0.97914 0.39682 0.0
C2843 C 0.0389 0.9952 0.39711 0.0
C2844 C 0.03813 0.00749 0.38056 0.0
C2845 C 0.05126 0.00468 0.36469 0.0
C2846 C 0.02223 0.02472 0.44092 0.0
C2847 C 0.01525 0.01027 0.45389 0.0
C2848 C 0.02865 0.01997 0.42197 0.0
C2849 C 0.02828 0.00064 0.41559 0.0
C2850 C 0.01995 0.98643 0.42808 0.0
C2851 C 0.0134 0.99122 0.44707 0.0
H2852 H 0.23099 0.87534 0.64584 0.0
H2853 H 0.24336 0.81813 0.62261 0.0
H2854 H 0.22942 0.86161 0.67904 0.0
H2855 H 0.2428 0.80459 0.6556 0.0
H2856 H 0.26234 0.83327 0.73198 0.0
H2857 H 0.25383 0.84876 0.70095 0.0
H2858 H 0.22373 0.79694 0.68432 0.0
H2859 H 0.23298 0.78123 0.71495 0.0
C2860 C 0.23309 0.85981 0.64782 0.0
C2861 C 0.23756 0.84782 0.6317 0.0
C2862 C 0.23238 0.85198 0.66681 0.0
C2863 C 0.23613 0.83205 0.66998 0.0
C2864 C 0.23961 0.81997 0.65372 0.0
C2865 C 0.24023 0.82776 0.6348 0.0
C2866 C 0.25366 0.82533 0.72179 0.0
C2867 C 0.24865 0.80595 0.72564 0.0
C2868 C 0.24864 0.83424 0.70407 0.0
C2869 C 0.23832 0.82397 0.69005 0.0
C2870 C 0.23209 0.80507 0.69462 0.0
C2871 C 0.23735 0.79609 0.71216 0.0
H2872 H 0.46458 0.07303 0.84775 0.0
H2873 H 0.42231 0.0309 0.86863 0.0
H2874 H 0.48464 0.06618 0.87649 0.0
H2875 H 0.44228 0.02402 0.8971 0.0
H2876 H 0.49542 0.9963 0.92583 0.0
H2877 H 0.47584 0.00732 0.89835 0.0
H2878 H 0.48431 0.06699 0.91441 0.0
H2879 H 0.50435 0.05593 0.94187 0.0
C2880 C 0.45938 0.06268 0.85871 0.0
C2881 C 0.44211 0.05225 0.85589 0.0
C2882 C 0.47085 0.05872 0.87506 0.0
C2883 C 0.46517 0.04428 0.8887 0.0
C2884 C 0.44721 0.03488 0.88652 0.0
C2885 C 0.43577 0.03885 0.8703 0.0
C2886 C 0.49344 0.01176 0.92332 0.0
C2887 C 0.50133 0.02525 0.93604 0.0
C2888 C 0.48202 0.01807 0.90775 0.0
C2889 C 0.47834 0.03798 0.90451 0.0
C2890 C 0.48689 0.05156 0.91668 0.0
C2891 C 0.49823 0.04523 0.9324 0.0
H2892 H 0.28826 0.18034 0.13772 0.0
H2893 H 0.25796 0.23198 0.11681 0.0
H2894 H 0.29058 0.19482 0.17 0.0
H2895 H 0.25971 0.2462 0.14929 0.0
H2896 H 0.28307 0.27471 0.20382 0.0
H2897 H 0.28229 0.25989 0.17159 0.0
H2898 H 0.2715 0.20407 0.19895 0.0
H2899 H 0.27256 0.2189 0.23129 0.0
C2900 C 0.28213 0.19482 0.13992 0.0
C2901 C 0.27299 0.20494 0.12442 0.0
C2902 C 0.28326 0.20307 0.15861 0.0
C2903 C 0.27538 0.22178 0.16246 0.0
C2904 C 0.2662 0.23188 0.14696 0.0
C2905 C 0.26498 0.22359 0.1283 0.0
C2906 C 0.28072 0.25922 0.20304 0.0
C2907 C 0.27796 0.24805 0.22032 0.0
C2908 C 0.28007 0.25072 0.18445 0.0
C2909 C 0.27668 0.23072 0.18245 0.0
C2910 C 0.27433 0.21945 0.19976 0.0
C2911 C 0.27491 0.22799 0.21839 0.0
H2912 H 0.18043 0.06738 0.03577 0.0
H2913 H 0.15476 0.11613 0.00451 0.0
H2914 H 0.14923 0.05041 0.03449 0.0
H2915 H 0.12363 0.0993 0.00334 0.0
H2916 H 0.07488 0.05853 0.98839 0.0
H2917 H 0.10718 0.07337 0.98881 0.0
H2918 H 0.11599 0.04972 0.04692 0.0
H2919 H 0.08383 0.03443 0.04625 0.0
C2920 C 0.16812 0.07459 0.02874 0.0
C2921 C 0.17032 0.09319 0.02018 0.0
C2922 C 0.15013 0.06482 0.02801 0.0
C2923 C 0.13371 0.07333 0.01872 0.0
C2924 C 0.13593 0.09197 0.01025 0.0
C2925 C 0.1539 0.1017 0.01095 0.0
C2926 C 0.08377 0.05628 0.00119 0.0
C2927 C 0.07663 0.04519 0.01726 0.0
C2928 C 0.10231 0.065 0.00152 0.0
C2929 C 0.11433 0.06302 0.01798 0.0
C2930 C 0.10738 0.0515 0.03387 0.0
C2931 C 0.08883 0.04272 0.03351 0.0
H2932 H 0.66709 0.45586 0.98998 0.0
H2933 H 0.65244 0.43372 0.04801 0.0
H2934 H 0.63634 0.47522 0.99041 0.0
H2935 H 0.62185 0.45309 0.04847 0.0
H2936 H 0.59118 0.52315 0.01088 0.0
H2937 H 0.62197 0.50402 0.01033 0.0
H2938 H 0.59004 0.45322 0.02943 0.0
H2939 H 0.55927 0.4722 0.02997 0.0
C2940 C 0.65724 0.45511 0.00275 0.0
C2941 C 0.66206 0.44338 0.01897 0.0
C2942 C 0.6398 0.46626 0.00306 0.0
C2943 C 0.62683 0.46562 0.01949 0.0
C2944 C 0.63158 0.45374 0.03561 0.0
C2945 C 0.6491 0.44279 0.03539 0.0
C2946 C 0.59076 0.50792 0.01504 0.0
C2947 C 0.57286 0.49917 0.02052 0.0
C2948 C 0.60833 0.49698 0.01459 0.0
C2949 C 0.60829 0.4772 0.01982 0.0
C2950 C 0.59044 0.4685 0.02548 0.0
C2951 C 0.57286 0.47936 0.02572 0.0
H2952 H 0.86562 0.44131 0.2873 0.0
H2953 H 0.82865 0.4534 0.23794 0.0
H2954 H 0.84896 0.41063 0.29319 0.0
H2955 H 0.81161 0.42295 0.24404 0.0
H2956 H 0.79579 0.35925 0.25167 0.0
H2957 H 0.81471 0.38806 0.24376 0.0
H2958 H 0.81691 0.40115 0.30546 0.0
H2959 H 0.79898 0.37179 0.31344 0.0
C2960 C 0.85397 0.4373 0.27767 0.0
C2961 C 0.84832 0.44968 0.26224 0.0
C2962 C 0.84435 0.41984 0.2811 0.0
C2963 C 0.82878 0.4145 0.26925 0.0
C2964 C 0.82366 0.42657 0.25333 0.0
C2965 C 0.8334 0.44398 0.24982 0.0
C2966 C 0.80048 0.36813 0.26358 0.0
C2967 C 0.79596 0.36309 0.28322 0.0
C2968 C 0.81116 0.38477 0.25901 0.0
C2969 C 0.81744 0.39681 0.27398 0.0
C2970 C 0.81261 0.39197 0.2936 0.0
C2971 C 0.80203 0.37528 0.29817 0.0
H2972 H 0.86486 0.5816 0.54607 0.0
H2973 H 0.87695 0.6037 0.48749 0.0
H2974 H 0.89708 0.56542 0.54586 0.0
H2975 H 0.90965 0.58848 0.48775 0.0
H2976 H 0.96125 0.54449 0.48693 0.0
H2977 H 0.92804 0.55892 0.48631 0.0
H2978 H 0.93095 0.57153 0.54805 0.0
H2979 H 0.96374 0.55658 0.54875 0.0
C2980 C 0.8743 0.583 0.53308 0.0
C2981 C 0.86808 0.59409 0.51681 0.0
C2982 C 0.89303 0.5739 0.53307 0.0
C2983 C 0.90625 0.57566 0.51684 0.0
C2984 C 0.89995 0.58656 0.50048 0.0
C2985 C 0.88118 0.59558 0.50045 0.0
C2986 C 0.95476 0.5503 0.50038 0.0
C2987 C 0.96523 0.54928 0.5179 0.0
C2988 C 0.93571 0.55872 0.50002 0.0
C2989 C 0.92658 0.56645 0.51715 0.0
C2990 C 0.93716 0.56546 0.53462 0.0
C2991 C 0.95613 0.55696 0.535 0.0
H2992 H 0.17245 0.11376 0.31887 0.0
H2993 H 0.21666 0.09328 0.27663 0.0
H2994 H 0.18896 0.14491 0.3201 0.0
H2995 H 0.23292 0.12444 0.27771 0.0
H2996 H 0.24371 0.18934 0.26913 0.0
H2997 H 0.22623 0.15877 0.26804 0.0
H2998 H 0.22077 0.15788 0.3313 0.0
H2999 H 0.23781 0.18872 0.33236 0.0
C3000 C 0.18574 0.11586 0.30995 0.0
C3001 C 0.1932 0.10108 0.29759 0.0
C3002 C 0.19515 0.13369 0.31064 0.0
C3003 C 0.21216 0.1371 0.29894 0.0
C3004 C 0.21964 0.12232 0.28664 0.0
C3005 C 0.2103 0.1045 0.28601 0.0
C3006 C 0.23861 0.18272 0.28278 0.0
C3007 C 0.24216 0.19141 0.30083 0.0
C3008 C 0.22878 0.16514 0.28217 0.0
C3009 C 0.2222 0.15595 0.29959 0.0
C3010 C 0.22556 0.16473 0.31764 0.0
C3011 C 0.2355 0.18225 0.31825 0.0
H3012 H 0.33535 0.97206 0.49942 0.0
H3013 H 0.36189 0.9373 0.5453 0.0
H3014 H 0.36606 0.98895 0.49415 0.0
H3015 H 0.39188 0.95561 0.54145 0.0
H3016 H 0.45023 0.97414 0.51404 0.0
H3017 H 0.41898 0.95809 0.52033 0.0
H3018 H 0.38766 0.01151 0.50561 0.0
H3019 H 0.41913 0.02698 0.49817 0.0
C3020 C 0.34766 0.96809 0.50851 0.0
C3021 C 0.34612 0.95307 0.52261 0.0
C3022 C 0.36523 0.97808 0.50573 0.0
C3023 C 0.3816 0.97362 0.51728 0.0
C3024 C 0.37978 0.95917 0.53194 0.0
C3025 C 0.36236 0.94888 0.53443 0.0
C3026 C 0.43659 0.98234 0.51221 0.0
C3027 C 0.43693 0.00168 0.50558 0.0
C3028 C 0.41867 0.97325 0.51595 0.0
C3029 C 0.40068 0.98349 0.51359 0.0
C3030 C 0.40114 0.00302 0.50723 0.0
C3031 C 0.41911 0.01195 0.50304 0.0
H3032 H 0.7836 0.62636 0.2765 0.0
H3033 H 0.8068 0.62869 0.21687 0.0
H3034 H 0.76883 0.6587 0.27228 0.0
H3035 H 0.79177 0.66087 0.21258 0.0
H3036 H 0.80308 0.72436 0.23624 0.0
H3037 H 0.80541 0.68964 0.23026 0.0
H3038 H 0.74624 0.68277 0.25423 0.0
H3039 H 0.74381 0.71777 0.26011 0.0
C3040 C 0.78494 0.63352 0.2623 0.0
C3041 C 0.79661 0.62522 0.24714 0.0
C3042 C 0.77634 0.65194 0.25982 0.0
C3043 C 0.77943 0.66233 0.24217 0.0
C3044 C 0.78934 0.65317 0.22636 0.0
C3045 C 0.79784 0.63472 0.2288 0.0
C3046 C 0.7904 0.71552 0.23982 0.0
C3047 C 0.77338 0.72365 0.24887 0.0
C3048 C 0.79164 0.69567 0.23621 0.0
C3049 C 0.77598 0.68356 0.2418 0.0
C3050 C 0.75849 0.69184 0.2498 0.0
C3051 C 0.75713 0.71182 0.25314 0.0
H3052 H 0.69903 0.3989 0.82647 0.0
H3053 H 0.7498 0.43374 0.81141 0.0
H3054 H 0.71975 0.36972 0.82504 0.0
H3055 H 0.77025 0.4042 0.80897 0.0
H3056 H 0.76416 0.31981 0.82466 0.0
H3057 H 0.75263 0.35122 0.83786 0.0
H3058 H 0.76332 0.37811 0.78112 0.0
H3059 H 0.77418 0.34679 0.76785 0.0
C3060 C 0.71469 0.40048 0.82348 0.0
C3061 C 0.72263 0.41871 0.81864 0.0
C3062 C 0.72656 0.3837 0.82266 0.0
C3063 C 0.74649 0.3848 0.81675 0.0
C3064 C 0.75485 0.40305 0.81346 0.0
C3065 C 0.74307 0.41989 0.81463 0.0
C3066 C 0.76453 0.33259 0.81523 0.0
C3067 C 0.76988 0.33101 0.79525 0.0
C3068 C 0.75794 0.35046 0.82275 0.0
C3069 C 0.7572 0.36698 0.81049 0.0
C3070 C 0.76401 0.36561 0.79091 0.0
C3071 C 0.77008 0.34772 0.7833 0.0
H3072 H 0.00179 0.89561 0.92973 0.0
H3073 H 0.0394 0.8724 0.97476 0.0
H3074 H 0.00365 0.92776 0.94385 0.0
H3075 H 0.04228 0.90474 0.9881 0.0
H3076 H 0.02733 0.96101 0.02064 0.0
H3077 H 0.02606 0.92897 0.00623 0.0
H3078 H 0.02276 0.95529 0.94855 0.0
H3079 H 0.02332 0.98751 0.9632 0.0
C3080 C 0.01047 0.89724 0.94266 0.0
C3081 C 0.02034 0.88103 0.95102 0.0
C3082 C 0.01181 0.91592 0.95063 0.0
C3083 C 0.02315 0.91919 0.96724 0.0
C3084 C 0.03314 0.90302 0.97551 0.0
C3085 C 0.03171 0.88433 0.96761 0.0
C3086 C 0.02648 0.96004 0.00485 0.0
C3087 C 0.0255 0.97703 0.99315 0.0
C3088 C 0.02585 0.9415 0.9965 0.0
C3089 C 0.02431 0.9392 0.97608 0.0
C3090 C 0.02362 0.95625 0.96433 0.0
C3091 C 0.02415 0.97483 0.97273 0.0
H3092 H 0.93207 0.29793 0.71754 0.0
H3093 H 0.89871 0.28589 0.66622 0.0
H3094 H 0.90149 0.29917 0.73743 0.0
H3095 H 0.86829 0.28692 0.686 0.0
H3096 H 0.81555 0.30645 0.72165 0.0
H3097 H 0.84694 0.30954 0.70382 0.0
H3098 H 0.87612 0.27705 0.74964 0.0
H3099 H 0.84475 0.27441 0.76779 0.0
C3100 C 0.91821 0.29547 0.71056 0.0
C3101 C 0.91771 0.29187 0.69036 0.0
C3102 C 0.90074 0.29619 0.72192 0.0
C3103 C 0.8825 0.29326 0.71325 0.0
C3104 C 0.88207 0.28966 0.69303 0.0
C3105 C 0.89948 0.28901 0.68171 0.0
C3106 C 0.8287 0.30016 0.72804 0.0
C3107 C 0.82768 0.29004 0.74603 0.0
C3108 C 0.84665 0.30184 0.71777 0.0
C3109 C 0.86394 0.29332 0.72521 0.0
C3110 C 0.86307 0.28389 0.7436 0.0
C3111 C 0.8451 0.2823 0.75395 0.0
H3112 H 0.54421 0.18369 0.47669 0.0
H3113 H 0.49878 0.16553 0.43835 0.0
H3114 H 0.54567 0.15118 0.49131 0.0
H3115 H 0.5006 0.13291 0.4524 0.0
H3116 H 0.49439 0.08021 0.49238 0.0
H3117 H 0.49301 0.11302 0.47889 0.0
H3118 H 0.55541 0.11866 0.48819 0.0
H3119 H 0.55649 0.08597 0.50256 0.0
C3120 C 0.53462 0.17272 0.47124 0.0
C3121 C 0.52129 0.17742 0.45634 0.0
C3122 C 0.53551 0.15392 0.4796 0.0
C3123 C 0.52325 0.13906 0.47322 0.0
C3124 C 0.51002 0.14382 0.45819 0.0
C3125 C 0.50899 0.16266 0.45001 0.0
C3126 C 0.50786 0.08843 0.49161 0.0
C3127 C 0.52556 0.08029 0.49862 0.0
C3128 C 0.50711 0.10735 0.48366 0.0
C3129 C 0.52411 0.11882 0.48216 0.0
C3130 C 0.54187 0.11063 0.48924 0.0
C3131 C 0.54255 0.09172 0.49742 0.0
H3132 H 0.61823 0.81063 0.17667 0.0
H3133 H 0.5818 0.82096 0.22857 0.0
H3134 H 0.64747 0.80925 0.1965 0.0
H3135 H 0.61114 0.82027 0.24852 0.0
H3136 H 0.66072 0.78359 0.27712 0.0
H3137 H 0.63218 0.79466 0.25921 0.0
H3138 H 0.67037 0.82398 0.21704 0.0
H3139 H 0.69901 0.81185 0.23425 0.0
C3140 C 0.61659 0.81325 0.19227 0.0
C3141 C 0.5978 0.81568 0.20115 0.0
C3142 C 0.63336 0.81251 0.20368 0.0
C3143 C 0.63166 0.8144 0.22419 0.0
C3144 C 0.61293 0.81831 0.23284 0.0
C3145 C 0.59615 0.81881 0.22144 0.0
C3146 C 0.66308 0.7924 0.26405 0.0
C3147 C 0.68226 0.79642 0.25698 0.0
C3148 C 0.64665 0.79905 0.25391 0.0
C3149 C 0.64895 0.81009 0.23654 0.0
C3150 C 0.66807 0.81521 0.23017 0.0
C3151 C 0.68454 0.8084 0.24022 0.0
H3152 H 0.99999 0.18055 0.58076 0.0
H3153 H 0.04487 0.20912 0.5453 0.0
H3154 H 0.0045 0.15143 0.56119 0.0
H3155 H 0.04939 0.17983 0.5256 0.0
H3156 H 0.06626 0.1142 0.51406 0.0
H3157 H 0.06196 0.14603 0.52939 0.0
H3158 H 0.99864 0.14036 0.52807 0.0
H3159 H 0.00303 0.10859 0.51305 0.0
C3160 C 0.01066 0.18066 0.56862 0.0
C3161 C 0.02202 0.1971 0.5645 0.0
C3162 C 0.01322 0.16401 0.55739 0.0
C3163 C 0.02718 0.16344 0.54176 0.0
C3164 C 0.03863 0.17984 0.53765 0.0
C3165 C 0.03606 0.19655 0.54892 0.0
C3166 C 0.05148 0.12 0.51672 0.0
C3167 C 0.03497 0.1089 0.51271 0.0
C3168 C 0.049 0.13817 0.52547 0.0
C3169 C 0.02996 0.14549 0.53022 0.0
C3170 C 0.01349 0.13486 0.52503 0.0
C3171 C 0.01598 0.11673 0.51642 0.0
H3172 H 0.62836 0.24703 0.35432 0.0
H3173 H 0.61466 0.301 0.32415 0.0
H3174 H 0.66125 0.24666 0.33894 0.0
H3175 H 0.64776 0.30079 0.30921 0.0
H3176 H 0.71569 0.30444 0.30376 0.0
H3177 H 0.68241 0.30434 0.31841 0.0
H3178 H 0.67859 0.24307 0.30673 0.0
H3179 H 0.71195 0.24314 0.29207 0.0
C3180 C 0.63218 0.25874 0.34427 0.0
C3181 C 0.61858 0.27405 0.34057 0.0
C3182 C 0.65117 0.25854 0.33547 0.0
C3183 C 0.65727 0.27371 0.32282 0.0
C3184 C 0.64372 0.28899 0.31908 0.0
C3185 C 0.62468 0.28912 0.32774 0.0
C3186 C 0.70778 0.29092 0.30429 0.0
C3187 C 0.71658 0.2738 0.29669 0.0
C3188 C 0.6886 0.2909 0.31261 0.0
C3189 C 0.6777 0.27371 0.31376 0.0
C3190 C 0.68656 0.25654 0.30627 0.0
C3191 C 0.70569 0.25661 0.29776 0.0
H3192 H 0.49891 0.86944 0.04796 0.0
H3193 H 0.46476 0.89043 0.09822 0.0
H3194 H 0.49843 0.90199 0.03379 0.0
H3195 H 0.46281 0.9224 0.08322 0.0
H3196 H 0.49845 0.97752 0.0718 0.0
H3197 H 0.48836 0.94524 0.08125 0.0
H3198 H 0.48272 0.93052 0.02022 0.0
H3199 H 0.49359 0.96305 0.01063 0.0
C3200 C 0.49091 0.88085 0.05579 0.0
C3201 C 0.48244 0.87738 0.07455 0.0
C3202 C 0.49034 0.89947 0.04748 0.0
C3203 C 0.48099 0.9149 0.05763 0.0
C3204 C 0.47061 0.91092 0.0753 0.0
C3205 C 0.47151 0.89243 0.08379 0.0
C3206 C 0.49486 0.96753 0.06034 0.0
C3207 C 0.49703 0.97276 0.04046 0.0
C3208 C 0.48882 0.94902 0.06578 0.0
C3209 C 0.48462 0.93528 0.05149 0.0
C3210 C 0.48601 0.94074 0.03156 0.0
C3211 C 0.49219 0.95934 0.02608 0.0
H3212 H 0.90555 0.75771 0.85749 0.0
H3213 H 0.92964 0.79846 0.81507 0.0
H3214 H 0.87516 0.75686 0.83945 0.0
H3215 H 0.89932 0.79736 0.79671 0.0
H3216 H 0.83425 0.80582 0.77925 0.0
H3217 H 0.86569 0.80659 0.79579 0.0
H3218 H 0.86007 0.74589 0.81141 0.0
H3219 H 0.82842 0.74539 0.7955 0.0
C3220 C 0.90451 0.76633 0.84415 0.0
C3221 C 0.92024 0.77813 0.83782 0.0
C3222 C 0.88697 0.76581 0.83369 0.0
C3223 C 0.88454 0.77696 0.81639 0.0
C3224 C 0.90032 0.78875 0.81005 0.0
C3225 C 0.91783 0.78937 0.82061 0.0
C3226 C 0.83984 0.79257 0.78602 0.0
C3227 C 0.82867 0.77554 0.78598 0.0
C3228 C 0.85798 0.79299 0.79554 0.0
C3229 C 0.86561 0.77635 0.80525 0.0
C3230 C 0.85467 0.75917 0.80459 0.0
C3231 C 0.8365 0.75881 0.79522 0.0
H3232 H 0.96771 0.04274 0.83471 0.0
H3233 H 0.9184 0.07562 0.85994 0.0
H3234 H 0.98356 0.04232 0.86626 0.0
H3235 H 0.93477 0.07574 0.8914 0.0
H3236 H 0.98429 0.08942 0.93559 0.0
H3237 H 0.96676 0.08964 0.90476 0.0
H3238 H 0.97609 0.02758 0.90043 0.0
H3239 H 0.9937 0.02739 0.93125 0.0
C3240 C 0.96017 0.04977 0.84699 0.0
C3241 C 0.94167 0.05907 0.8448 0.0
C3242 C 0.9693 0.04956 0.86503 0.0
C3243 C 0.9603 0.05888 0.88122 0.0
C3244 C 0.94203 0.06852 0.87905 0.0
C3245 C 0.93274 0.06853 0.86103 0.0
C3246 C 0.98261 0.07586 0.92801 0.0
C3247 C 0.99042 0.0584 0.9357 0.0
C3248 C 0.97245 0.07596 0.9105 0.0
C3249 C 0.97015 0.05864 0.90026 0.0
C3250 C 0.9778 0.04115 0.90802 0.0
C3251 C 0.98773 0.04101 0.92567 0.0
H3252 H 0.78318 0.27138 0.58468 0.0
H3253 H 0.73632 0.23428 0.60588 0.0
H3254 H 0.77699 0.2928 0.61259 0.0
H3255 H 0.73012 0.25562 0.63356 0.0
H3256 H 0.71841 0.29803 0.68036 0.0
H3257 H 0.71999 0.28784 0.64612 0.0
H3258 H 0.78371 0.28673 0.64733 0.0
H3259 H 0.78204 0.29734 0.68124 0.0
C3260 C 0.77141 0.26794 0.59516 0.0
C3261 C 0.76041 0.25102 0.59325 0.0
C3262 C 0.76782 0.28024 0.61105 0.0
C3263 C 0.75315 0.27583 0.62529 0.0
C3264 C 0.74133 0.25958 0.62268 0.0
C3265 C 0.74494 0.2473 0.60683 0.0
C3266 C 0.73271 0.2962 0.67307 0.0
C3267 C 0.75012 0.29812 0.68347 0.0
C3268 C 0.73362 0.29024 0.65355 0.0
C3269 C 0.75196 0.28626 0.64414 0.0
C3270 C 0.76935 0.28978 0.65411 0.0
C3271 C 0.76842 0.29564 0.67359 0.0
H3272 H 0.62582 0.99689 0.39569 0.0
H3273 H 0.57507 0.96847 0.3733 0.0
H3274 H 0.6087 0.00109 0.4271 0.0
H3275 H 0.55791 0.9722 0.40511 0.0
H3276 H 0.52628 0.00935 0.4534 0.0
H3277 H 0.54323 0.99866 0.4233 0.0
H3278 H 0.59584 0.98573 0.45582 0.0
H3279 H 0.57916 0.99723 0.48564 0.0
C3280 C 0.61117 0.99104 0.39771 0.0
C3281 C 0.60174 0.98236 0.38212 0.0
C3282 C 0.60134 0.99341 0.41573 0.0
C3283 C 0.58191 0.987 0.41861 0.0
C3284 C 0.57276 0.97757 0.40324 0.0
C3285 C 0.58257 0.97535 0.3851 0.0
C3286 C 0.54142 0.0041 0.45407 0.0
C3287 C 0.55153 0.0044 0.47173 0.0
C3288 C 0.55109 0.99781 0.43689 0.0
C3289 C 0.57094 0.99147 0.43715 0.0
C3290 C 0.58068 0.99092 0.45505 0.0
C3291 C 0.57113 0.99747 0.47213 0.0
H3292 H 0.75108 0.82371 0.11098 0.0
H3293 H 0.79708 0.86203 0.12805 0.0
H3294 H 0.75044 0.80913 0.14377 0.0
H3295 H 0.7966 0.84723 0.16065 0.0
H3296 H 0.80494 0.80301 0.21073 0.0
H3297 H 0.80509 0.81736 0.17788 0.0
H3298 H 0.74146 0.81567 0.17808 0.0
H3299 H 0.74132 0.80109 0.211 0.0
C3300 C 0.76099 0.82918 0.12168 0.0
C3301 C 0.77417 0.84414 0.11659 0.0
C3302 C 0.76062 0.82075 0.14058 0.0
C3303 C 0.77349 0.8269 0.155 0.0
C3304 C 0.78668 0.84182 0.14992 0.0
C3305 C 0.78698 0.85032 0.13108 0.0
C3306 C 0.79094 0.80565 0.20381 0.0
C3307 C 0.77311 0.80082 0.21363 0.0
C3308 C 0.79102 0.81403 0.18494 0.0
C3309 C 0.77329 0.81779 0.17518 0.0
C3310 C 0.75544 0.81284 0.18496 0.0
C3311 C 0.75535 0.80454 0.20393 0.0
H3312 H 0.96837 0.07433 0.6533 0.0
H3313 H 0.98791 0.01767 0.67344 0.0
H3314 H 0.98662 0.06957 0.62237 0.0
H3315 H 0.00678 0.01304 0.64276 0.0
H3316 H 0.00131 0.99979 0.57679 0.0
H3317 H 0.99458 0.00645 0.6111 0.0
H3318 H 0.01663 0.06456 0.60287 0.0
H3319 H 0.02295 0.058 0.56807 0.0
C3320 C 0.97717 0.06115 0.65134 0.0
C3321 C 0.97654 0.04623 0.66554 0.0
C3322 C 0.9877 0.05842 0.63365 0.0
C3323 C 0.99789 0.04077 0.62996 0.0
C3324 C 0.99869 0.02661 0.64498 0.0
C3325 C 0.98797 0.02925 0.66254 0.0
C3326 C 0.00503 0.01391 0.5823 0.0
C3327 C 0.01242 0.02845 0.56966 0.0
C3328 C 0.00135 0.01768 0.60209 0.0
C3329 C 0.00503 0.03607 0.60976 0.0
C3330 C 0.01344 0.05032 0.59734 0.0
C3331 C 0.01713 0.04653 0.57745 0.0
H3332 H 0.81841 0.19375 0.40645 0.0
H3333 H 0.79811 0.25038 0.42607 0.0
H3334 H 0.81974 0.20575 0.37273 0.0
H3335 H 0.79824 0.26202 0.39234 0.0
H3336 H 0.80559 0.28183 0.33073 0.0
H3337 H 0.81583 0.27033 0.36286 0.0
H3338 H 0.79426 0.21325 0.35029 0.0
H3339 H 0.78477 0.22455 0.31796 0.0
C3340 C 0.81457 0.20885 0.40362 0.0
C3341 C 0.80784 0.22104 0.41888 0.0
C3342 C 0.81511 0.21566 0.38426 0.0
C3343 C 0.80878 0.23473 0.3798 0.0
C3344 C 0.80332 0.24727 0.39522 0.0
C3345 C 0.80296 0.24052 0.41456 0.0
C3346 C 0.8033 0.26676 0.33477 0.0
C3347 C 0.79416 0.25413 0.32198 0.0
C3348 C 0.80913 0.26019 0.35317 0.0
C3349 C 0.80571 0.24093 0.35922 0.0
C3350 C 0.79738 0.2281 0.34602 0.0
C3351 C 0.79176 0.23461 0.32754 0.0
H3352 H 0.60504 0.97614 0.18118 0.0
H3353 H 0.56616 0.0102 0.21914 0.0
H3354 H 0.58322 0.98262 0.15382 0.0
H3355 H 0.54431 0.01658 0.19191 0.0
H3356 H 0.53532 0.04988 0.13316 0.0
H3357 H 0.55034 0.03742 0.1627 0.0
H3358 H 0.5497 0.9792 0.13987 0.0
H3359 H 0.53428 0.99163 0.11024 0.0
C3360 C 0.59156 0.98455 0.18376 0.0
C3361 C 0.58741 0.99297 0.20209 0.0
C3362 C 0.57906 0.98824 0.16815 0.0
C3363 C 0.56225 0.00036 0.17072 0.0
C3364 C 0.55738 0.00752 0.18946 0.0
C3365 C 0.56985 0.00387 0.205 0.0
C3366 C 0.53793 0.03438 0.13453 0.0
C3367 C 0.53372 0.02182 0.1192 0.0
C3368 C 0.54654 0.02722 0.15151 0.0
C3369 C 0.55118 0.00733 0.15357 0.0
C3370 C 0.54646 0.99463 0.13855 0.0
C3371 C 0.53771 0.00179 0.12157 0.0
H3372 H 0.78061 0.87323 0.90089 0.0
H3373 H 0.75853 0.82129 0.92896 0.0
H3374 H 0.77869 0.85805 0.86896 0.0
H3375 H 0.75555 0.8063 0.89704 0.0
H3376 H 0.76916 0.77665 0.83873 0.0
H3377 H 0.77075 0.79177 0.87062 0.0
H3378 H 0.76002 0.84805 0.84367 0.0
H3379 H 0.75962 0.83284 0.81158 0.0
C3380 C 0.77511 0.8586 0.90022 0.0
C3381 C 0.76979 0.84851 0.91759 0.0
C3382 C 0.77384 0.84985 0.88178 0.0
C3383 C 0.76687 0.83077 0.88 0.0
C3384 C 0.7614 0.82078 0.89749 0.0
C3385 C 0.76302 0.82943 0.91595 0.0
C3386 C 0.767 0.79226 0.83961 0.0
C3387 C 0.76421 0.80346 0.82247 0.0
C3388 C 0.76781 0.80102 0.85806 0.0
C3389 C 0.76555 0.82133 0.86014 0.0
C3390 C 0.7623 0.83247 0.84294 0.0
C3391 C 0.76183 0.82371 0.82441 0.0
H3392 H 0.88455 0.94153 0.03896 0.0
H3393 H 0.85977 0.98644 0.00186 0.0
H3394 H 0.91517 0.95927 0.04011 0.0
H3395 H 0.89033 0.00441 0.00323 0.0
H3396 H 0.95541 0.02156 0.99318 0.0
H3397 H 0.92376 0.00537 0.99255 0.0
H3398 H 0.93078 0.98646 0.05262 0.0
H3399 H 0.96267 0.00212 0.05298 0.0
C3400 C 0.8855 0.95533 0.03122 0.0
C3401 C 0.86951 0.96246 0.02033 0.0
C3402 C 0.90315 0.96561 0.03192 0.0
C3403 C 0.90545 0.98347 0.02184 0.0
C3404 C 0.88941 0.99063 0.01097 0.0
C3405 C 0.87177 0.98028 0.01019 0.0
C3406 C 0.95011 0.01414 0.00635 0.0
C3407 C 0.96172 0.01321 0.02314 0.0
C3408 C 0.93184 0.00483 0.00601 0.0
C3409 C 0.92453 0.99434 0.02248 0.0
C3410 C 0.93593 0.99396 0.03947 0.0
C3411 C 0.95423 0.00317 0.03976 0.0
H3412 H 0.36645 0.58691 0.0185 0.0
H3413 H 0.39916 0.63744 0.03367 0.0
H3414 H 0.39713 0.56811 0.01489 0.0
H3415 H 0.42994 0.61849 0.03097 0.0
H3416 H 0.48266 0.5853 0.00522 0.0
H3417 H 0.45173 0.60389 0.00758 0.0
H3418 H 0.42271 0.55367 0.03281 0.0
H3419 H 0.45335 0.53491 0.02952 0.0
C3420 C 0.38025 0.59385 0.0214 0.0
C3421 C 0.38055 0.61353 0.02642 0.0
C3422 C 0.39783 0.58311 0.01938 0.0
C3423 C 0.41604 0.59177 0.02263 0.0
C3424 C 0.41623 0.61145 0.02797 0.0
C3425 C 0.39864 0.62227 0.02969 0.0
C3426 C 0.4696 0.57823 0.0111 0.0
C3427 C 0.47036 0.55866 0.01711 0.0
C3428 C 0.45192 0.58891 0.01263 0.0
C3429 C 0.43473 0.58032 0.02048 0.0
C3430 C 0.43555 0.56068 0.02639 0.0
C3431 C 0.45314 0.54993 0.02457 0.0
H3432 H 0.20899 0.59338 0.73753 0.0
H3433 H 0.18678 0.61599 0.79297 0.0
H3434 H 0.22379 0.62455 0.72976 0.0
H3435 H 0.20285 0.6465 0.78591 0.0
H3436 H 0.21672 0.70525 0.76096 0.0
H3437 H 0.20018 0.67444 0.76597 0.0
H3438 H 0.25022 0.64442 0.73851 0.0
H3439 H 0.26626 0.67552 0.73281 0.0
C3440 C 0.20727 0.60497 0.74807 0.0
C3441 C 0.19668 0.60217 0.76588 0.0
C3442 C 0.216 0.62276 0.74373 0.0
C3443 C 0.21451 0.63805 0.7572 0.0
C3444 C 0.20402 0.63517 0.77504 0.0
C3445 C 0.19508 0.61751 0.77926 0.0
C3446 C 0.22408 0.69201 0.75598 0.0
C3447 C 0.24274 0.69261 0.74663 0.0
C3448 C 0.21469 0.67437 0.75891 0.0
C3449 C 0.22397 0.6569 0.75285 0.0
C3450 C 0.24254 0.6576 0.74314 0.0
C3451 C 0.25178 0.67534 0.73992 0.0
H3452 H 0.16367 0.44265 0.49662 0.0
H3453 H 0.17767 0.47521 0.54789 0.0
H3454 H 0.13072 0.45733 0.49705 0.0
H3455 H 0.14471 0.49019 0.5482 0.0
H3456 H 0.07736 0.50003 0.55387 0.0
H3457 H 0.11037 0.48505 0.55423 0.0
H3458 H 0.11313 0.48653 0.49087 0.0
H3459 H 0.08007 0.50088 0.49054 0.0
C3460 C 0.15983 0.45314 0.50787 0.0
C3461 C 0.1735 0.45776 0.52216 0.0
C3462 C 0.14083 0.46163 0.50813 0.0
C3463 C 0.13487 0.47512 0.52261 0.0
C3464 C 0.14853 0.47969 0.53696 0.0
C3465 C 0.16753 0.47111 0.53676 0.0
C3466 C 0.08503 0.49715 0.54002 0.0
C3467 C 0.07595 0.50165 0.52218 0.0
C3468 C 0.10406 0.48863 0.54021 0.0
C3469 C 0.11459 0.48443 0.52257 0.0
C3470 C 0.10549 0.48913 0.50477 0.0
C3471 C 0.08648 0.49754 0.50458 0.0
H3472 H 0.82127 0.9632 0.72317 0.0
H3473 H 0.86132 0.94098 0.76672 0.0
H3474 H 0.80572 0.93192 0.72237 0.0
H3475 H 0.84436 0.91036 0.76744 0.0
H3476 H 0.82371 0.8509 0.75 0.0
H3477 H 0.84017 0.88206 0.75035 0.0
H3478 H 0.78448 0.9115 0.73917 0.0
H3479 H 0.7686 0.88014 0.7376 0.0
C3480 C 0.82677 0.9517 0.73264 0.0
C3481 C 0.84269 0.95472 0.74494 0.0
C3482 C 0.81754 0.93378 0.73246 0.0
C3483 C 0.82365 0.91851 0.74491 0.0
C3484 C 0.8394 0.92161 0.75741 0.0
C3485 C 0.84893 0.93939 0.75726 0.0
C3486 C 0.81512 0.86412 0.74765 0.0
C3487 C 0.79501 0.86327 0.74367 0.0
C3488 C 0.82446 0.882 0.74797 0.0
C3489 C 0.81371 0.89943 0.74476 0.0
C3490 C 0.7934 0.89844 0.74121 0.0
C3491 C 0.78422 0.88053 0.74044 0.0
H3492 H 0.71054 0.09095 0.54941 0.0
H3493 H 0.68622 0.1144 0.49611 0.0
H3494 H 0.68242 0.06964 0.55363 0.0
H3495 H 0.65775 0.09348 0.50053 0.0
H3496 H 0.61565 0.04326 0.50673 0.0
H3497 H 0.64638 0.06054 0.50074 0.0
H3498 H 0.64824 0.07362 0.56249 0.0
H3499 H 0.61784 0.05611 0.56841 0.0
C3500 C 0.69912 0.09153 0.53863 0.0
C3501 C 0.7004 0.10438 0.52254 0.0
C3502 C 0.68301 0.07938 0.54105 0.0
C3503 C 0.66775 0.08 0.52753 0.0
C3504 C 0.66936 0.09248 0.51109 0.0
C3505 C 0.68559 0.1045 0.50858 0.0
C3506 C 0.6227 0.04982 0.51897 0.0
C3507 C 0.61438 0.04837 0.53802 0.0
C3508 C 0.64026 0.05973 0.51556 0.0
C3509 C 0.64976 0.06847 0.53114 0.0
C3510 C 0.64152 0.06674 0.55022 0.0
C3511 C 0.62408 0.05674 0.55363 0.0
H3512 H 0.18081 0.40176 0.8007 0.0
H3513 H 0.23557 0.42997 0.81175 0.0
H3514 H 0.19753 0.37037 0.80136 0.0
H3515 H 0.25246 0.39826 0.81352 0.0
H3516 H 0.27769 0.34307 0.7825 0.0
H3517 H 0.26317 0.3745 0.79118 0.0
H3518 H 0.21322 0.34573 0.81878 0.0
H3519 H 0.22724 0.31441 0.80876 0.0
C3520 C 0.19639 0.4011 0.80383 0.0
C3521 C 0.20699 0.41814 0.8061 0.0
C3522 C 0.206 0.38309 0.80438 0.0
C3523 C 0.2264 0.38171 0.80754 0.0
C3524 C 0.23682 0.39882 0.81074 0.0
C3525 C 0.22721 0.41693 0.80981 0.0
C3526 C 0.26374 0.34355 0.79066 0.0
C3527 C 0.25333 0.3265 0.79465 0.0
C3528 C 0.25546 0.36153 0.79581 0.0
C3529 C 0.23684 0.3627 0.80542 0.0
C3530 C 0.22729 0.3454 0.81085 0.0
C3531 C 0.23532 0.32747 0.80522 0.0
H3532 H 0.33124 0.64657 0.21855 0.0
H3533 H 0.28979 0.61489 0.25543 0.0
H3534 H 0.31029 0.67554 0.22129 0.0
H3535 H 0.26897 0.64414 0.25845 0.0
H3536 H 0.26836 0.72575 0.2271 0.0
H3537 H 0.27734 0.69278 0.21652 0.0
H3538 H 0.27814 0.67375 0.2771 0.0
H3539 H 0.26933 0.7065 0.2876 0.0
C3540 C 0.31735 0.64559 0.22671 0.0
C3541 C 0.31237 0.62853 0.2371 0.0
C3542 C 0.30531 0.66222 0.22825 0.0
C3543 C 0.28813 0.66212 0.24027 0.0
C3544 C 0.28228 0.64464 0.24929 0.0
C3545 C 0.29426 0.62797 0.24766 0.0
C3546 C 0.26992 0.71437 0.23809 0.0
C3547 C 0.26842 0.71866 0.25817 0.0
C3548 C 0.27511 0.69556 0.23204 0.0
C3549 C 0.27851 0.68076 0.24599 0.0
C3550 C 0.27542 0.6848 0.266 0.0
C3551 C 0.27053 0.70359 0.27203 0.0
H3552 H 0.49554 0.67994 0.57307 0.0
H3553 H 0.54466 0.66044 0.60761 0.0
H3554 H 0.4934 0.64758 0.55931 0.0
H3555 H 0.54295 0.62822 0.5933 0.0
H3556 H 0.52329 0.56691 0.57785 0.0
H3557 H 0.52388 0.59904 0.59273 0.0
H3558 H 0.50976 0.62556 0.53705 0.0
H3559 H 0.50887 0.59353 0.52233 0.0
C3560 C 0.5059 0.66879 0.5778 0.0
C3561 C 0.52028 0.67304 0.59157 0.0
C3562 C 0.5048 0.65016 0.56969 0.0
C3563 C 0.51799 0.63505 0.57508 0.0
C3564 C 0.53235 0.63928 0.58887 0.0
C3565 C 0.53351 0.65795 0.59693 0.0
C3566 C 0.52009 0.57958 0.56882 0.0
C3567 C 0.51592 0.57747 0.54885 0.0
C3568 C 0.52063 0.5981 0.57733 0.0
C3569 C 0.51694 0.61513 0.56618 0.0
C3570 C 0.51245 0.61293 0.54628 0.0
C3571 C 0.51199 0.59445 0.53777 0.0
H3572 H 0.61755 0.27408 0.8217 0.0
H3573 H 0.64737 0.2466 0.87032 0.0
H3574 H 0.64886 0.27618 0.8037 0.0
H3575 H 0.678 0.24666 0.85152 0.0
H3576 H 0.73367 0.27107 0.82514 0.0
H3577 H 0.70196 0.26807 0.84199 0.0
H3578 H 0.67424 0.25999 0.78635 0.0
H3579 H 0.70612 0.26439 0.7694 0.0
C3580 C 0.63069 0.26834 0.82854 0.0
C3581 C 0.6298 0.26031 0.8476 0.0
C3582 C 0.64864 0.26921 0.81802 0.0
C3583 C 0.66608 0.26171 0.82615 0.0
C3584 C 0.66502 0.25303 0.8449 0.0
C3585 C 0.64723 0.25262 0.85559 0.0
C3586 C 0.72081 0.26854 0.81653 0.0
C3587 C 0.72229 0.26788 0.796 0.0
C3588 C 0.70259 0.26667 0.82619 0.0
C3589 C 0.68545 0.26357 0.8156 0.0
C3590 C 0.68704 0.26264 0.795 0.0
C3591 C 0.70528 0.265 0.78527 0.0
H3592 H 0.04531 0.38782 0.10797 0.0
H3593 H 0.99794 0.37187 0.07094 0.0
H3594 H 0.04348 0.42096 0.09525 0.0
H3595 H 0.99655 0.40483 0.05745 0.0
H3596 H 0.98661 0.47015 0.04777 0.0
H3597 H 0.98765 0.43713 0.06123 0.0
H3598 H 0.05024 0.44213 0.06996 0.0
H3599 H 0.04884 0.47534 0.05752 0.0
C3600 C 0.03466 0.39131 0.09686 0.0
C3601 C 0.02182 0.37701 0.09051 0.0
C3602 C 0.03363 0.41045 0.08942 0.0
C3603 C 0.01991 0.41598 0.07507 0.0
C3604 C 0.00711 0.40155 0.06867 0.0
C3605 C 0.00797 0.38247 0.07636 0.0
C3606 C 1.00058 0.4642 0.05263 0.0
C3607 C 0.01761 0.47557 0.05159 0.0
C3608 C 0.00125 0.44508 0.06027 0.0
C3609 C 0.01905 0.43655 0.06687 0.0
C3610 C 0.03609 0.448 0.06557 0.0
C3611 C 0.03535 0.46717 0.05822 0.0
H3612 H 0.96428 0.73372 0.31214 0.0
H3613 H 0.92061 0.71613 0.35583 0.0
H3614 H 0.93826 0.73985 0.28873 0.0
H3615 H 0.89454 0.72269 0.33258 0.0
H3616 H 0.85142 0.73045 0.28417 0.0
H3617 H 0.87929 0.71523 0.30068 0.0
H3618 H 0.91337 0.76675 0.28972 0.0
H3619 H 0.88564 0.78209 0.27365 0.0
C3620 C 0.94918 0.73059 0.31654 0.0
C3621 C 0.9444 0.72461 0.33583 0.0
C3622 C 0.93429 0.73428 0.30321 0.0
C3623 C 0.91439 0.73198 0.30892 0.0
C3624 C 0.90976 0.7245 0.32772 0.0
C3625 C 0.92464 0.72089 0.34108 0.0
C3626 C 0.86485 0.73854 0.28522 0.0
C3627 C 0.8661 0.75766 0.27779 0.0
C3628 C 0.88084 0.72974 0.29457 0.0
C3629 C 0.89847 0.73981 0.2965 0.0
C3630 C 0.90008 0.75849 0.28819 0.0
C3631 C 0.88409 0.76733 0.27898 0.0
H3632 H 0.50485 0.36453 0.94677 0.0
H3633 H 0.53181 0.34147 0.99895 0.0
H3634 H 0.49533 0.39421 0.9643 0.0
H3635 H 0.52239 0.37127 0.01649 0.0
H3636 H 0.52743 0.43967 0.02379 0.0
H3637 H 0.53351 0.40699 0.01105 0.0
H3638 H 0.47264 0.40446 0.99441 0.0
H3639 H 0.46657 0.43724 0.00741 0.0
C3640 C 0.50875 0.36588 0.96198 0.0
C3641 C 0.51916 0.35089 0.97153 0.0
C3642 C 0.50311 0.3827 0.97204 0.0
C3643 C 0.50803 0.38486 0.99173 0.0
C3644 C 0.51841 0.36985 0.00131 0.0
C3645 C 0.52379 0.35289 0.99132 0.0
C3646 C 0.51532 0.43194 0.01769 0.0
C3647 C 0.49659 0.44084 0.0164 0.0
C3648 C 0.51875 0.41328 0.01053 0.0
C3649 C 0.50355 0.40336 0.0017 0.0
C3650 C 0.48459 0.41194 0.0011 0.0
C3651 C 0.48108 0.43053 0.00861 0.0
H3652 H 0.91383 0.25318 0.18431 0.0
H3653 H 0.92974 0.30064 0.221 0.0
H3654 H 0.88091 0.25327 0.19952 0.0
H3655 H 0.897 0.30038 0.23682 0.0
H3656 H 0.83066 0.30719 0.24956 0.0
H3657 H 0.86343 0.30771 0.23386 0.0
H3658 H 0.86228 0.24534 0.22745 0.0
H3659 H 0.82922 0.24505 0.2423 0.0
C3660 C 0.91038 0.26349 0.19583 0.0
C3661 C 0.92452 0.27686 0.20143 0.0
C3662 C 0.89143 0.26352 0.20467 0.0
C3663 C 0.88605 0.27677 0.2196 0.0
C3664 C 0.90028 0.29014 0.2252 0.0
C3665 C 0.91918 0.29026 0.21617 0.0
C3666 C 0.83741 0.29359 0.24477 0.0
C3667 C 0.82721 0.27608 0.24718 0.0
C3668 C 0.85635 0.29385 0.23584 0.0
C3669 C 0.86577 0.27657 0.22924 0.0
C3670 C 0.85554 0.25905 0.23188 0.0
C3671 C 0.83654 0.25883 0.24058 0.0
H3672 H 0.02007 0.67568 0.49803 0.0
H3673 H 0.07842 0.66869 0.47189 0.0
H3674 H 0.02386 0.64449 0.51503 0.0
H3675 H 0.08228 0.63724 0.48877 0.0
H3676 H 0.05338 0.57451 0.48418 0.0
H3677 H 0.0617 0.60841 0.47878 0.0
H3678 H 0.0426 0.62158 0.53819 0.0
H3679 H 0.03435 0.58748 0.54372 0.0
C3680 C 0.03402 0.66776 0.49665 0.0
C3681 C 0.04895 0.67432 0.48374 0.0
C3682 C 0.03625 0.64999 0.50639 0.0
C3683 C 0.05331 0.63844 0.50304 0.0
C3684 C 0.06898 0.6459 0.49151 0.0
C3685 C 0.06683 0.66383 0.48195 0.0
C3686 C 0.05134 0.58455 0.49622 0.0
C3687 C 0.04291 0.57848 0.51424 0.0
C3688 C 0.05634 0.6039 0.49322 0.0
C3689 C 0.05278 0.61756 0.5081 0.0
C3690 C 0.04548 0.61128 0.52652 0.0
C3691 C 0.04073 0.59182 0.52963 0.0
H3692 H 0.60839 0.76572 0.73409 0.0
H3693 H 0.63825 0.7816 0.67968 0.0
H3694 H 0.63966 0.76726 0.75108 0.0
H3695 H 0.66943 0.78294 0.69656 0.0
H3696 H 0.7176 0.80421 0.73599 0.0
H3697 H 0.68559 0.80296 0.72077 0.0
H3698 H 0.67258 0.75037 0.75329 0.0
H3699 H 0.70481 0.75159 0.7686 0.0
C3700 C 0.62158 0.76959 0.72573 0.0
C3701 C 0.62067 0.77353 0.70544 0.0
C3702 C 0.63958 0.77031 0.73547 0.0
C3703 C 0.65718 0.77529 0.72528 0.0
C3704 C 0.65622 0.77925 0.705 0.0
C3705 C 0.63831 0.77829 0.69524 0.0
C3706 C 0.70791 0.79244 0.7401 0.0
C3707 C 0.71393 0.77801 0.75362 0.0
C3708 C 0.68953 0.79164 0.73119 0.0
C3709 C 0.67644 0.77648 0.7356 0.0
C3710 C 0.68217 0.76234 0.74957 0.0
C3711 C 0.7007 0.76302 0.75836 0.0
H3712 H 0.58083 0.51178 0.70346 0.0
H3713 H 0.6273 0.476 0.67701 0.0
H3714 H 0.56337 0.51205 0.67281 0.0
H3715 H 0.60938 0.47589 0.64639 0.0
H3716 H 0.55769 0.46407 0.60432 0.0
H3717 H 0.57647 0.46341 0.63439 0.0
H3718 H 0.56959 0.52575 0.63849 0.0
H3719 H 0.55064 0.52637 0.60856 0.0
C3720 C 0.58742 0.50409 0.69106 0.0
C3721 C 0.60559 0.49405 0.69261 0.0
C3722 C 0.57736 0.50421 0.67355 0.0
C3723 C 0.58513 0.49412 0.65725 0.0
C3724 C 0.60306 0.48371 0.65882 0.0
C3725 C 0.61326 0.48373 0.67634 0.0
C3726 C 0.56013 0.4776 0.61172 0.0
C3727 C 0.55264 0.49527 0.60421 0.0
C3728 C 0.57102 0.47723 0.62877 0.0
C3729 C 0.57441 0.49452 0.63872 0.0
C3730 C 0.56704 0.51221 0.63114 0.0
C3731 C 0.55634 0.51259 0.61398 0.0
H3732 H 0.79914 0.29199 0.95964 0.0
H3733 H 0.7477 0.31427 0.9301 0.0
H3734 H 0.80692 0.27075 0.93184 0.0
H3735 H 0.75533 0.29315 0.90266 0.0
H3736 H 0.76521 0.24969 0.8582 0.0
H3737 H 0.75774 0.2597 0.89185 0.0
H3738 H 0.81836 0.27654 0.89759 0.0
H3739 H 0.82579 0.26593 0.86404 0.0
C3740 C 0.78943 0.29224 0.9473 0.0
C3741 C 0.77282 0.30483 0.94703 0.0
C3742 C 0.79385 0.28005 0.93146 0.0
C3743 C 0.78168 0.28019 0.91514 0.0
C3744 C 0.76476 0.29234 0.91521 0.0
C3745 C 0.76039 0.3045 0.93095 0.0
C3746 C 0.777 0.25498 0.86695 0.0
C3747 C 0.79596 0.25735 0.85861 0.0
C3748 C 0.77275 0.26078 0.88611 0.0
C3749 C 0.78735 0.26933 0.89717 0.0
C3750 C 0.80681 0.26996 0.88945 0.0
C3751 C 0.8111 0.26391 0.87028 0.0
H3752 H 0.97638 0.57326 0.18131 0.0
H3753 H 0.92037 0.58173 0.15325 0.0
H3754 H 0.99246 0.56832 0.14946 0.0
H3755 H 0.93676 0.57868 0.12145 0.0
H3756 H 0.96395 0.53937 0.0743 0.0
H3757 H 0.94891 0.55131 0.10462 0.0
H3758 H 0.00332 0.57937 0.1182 0.0
H3759 H 0.01867 0.56651 0.08814 0.0
C3760 C 0.96754 0.57448 0.16836 0.0
C3761 C 0.94696 0.57738 0.16998 0.0
C3762 C 0.97684 0.57195 0.15003 0.0
C3763 C 0.96581 0.57265 0.13289 0.0
C3764 C 0.94559 0.57745 0.1344 0.0
C3765 C 0.93623 0.57958 0.15272 0.0
C3766 C 0.97267 0.54816 0.08373 0.0
C3767 C 0.99249 0.55191 0.07896 0.0
C3768 C 0.96399 0.55521 0.10104 0.0
C3769 C 0.97485 0.56646 0.11384 0.0
C3770 C 0.9946 0.57056 0.10882 0.0
C3771 C 0.00339 0.56324 0.0916 0.0
H3772 H 0.74427 0.72506 0.42456 0.0
H3773 H 0.80216 0.69969 0.41289 0.0
H3774 H 0.74541 0.74089 0.39251 0.0
H3775 H 0.80272 0.71447 0.38035 0.0
H3776 H 0.80626 0.75686 0.32829 0.0
H3777 H 0.80596 0.74286 0.36138 0.0
H3778 H 0.7429 0.73574 0.35896 0.0
H3779 H 0.74318 0.75038 0.32632 0.0
C3780 C 0.75731 0.72283 0.41526 0.0
C3781 C 0.77309 0.71091 0.42161 0.0
C3782 C 0.75783 0.73174 0.39658 0.0
C3783 C 0.77411 0.72899 0.38347 0.0
C3784 C 0.78997 0.71723 0.3899 0.0
C3785 C 0.7895 0.70843 0.40862 0.0
C3786 C 0.79232 0.75237 0.33486 0.0
C3787 C 0.77475 0.75487 0.32454 0.0
C3788 C 0.79214 0.74417 0.35388 0.0
C3789 C 0.77438 0.73805 0.36316 0.0
C3790 C 0.75685 0.74054 0.3527 0.0
C3791 C 0.75702 0.74885 0.33379 0.0
H3792 H 0.56993 0.47709 0.87783 0.0
H3793 H 0.55304 0.53459 0.85768 0.0
H3794 H 0.54984 0.48169 0.90763 0.0
H3795 H 0.53247 0.5391 0.88733 0.0
H3796 H 0.53693 0.5504 0.95421 0.0
H3797 H 0.54421 0.54448 0.91982 0.0
H3798 H 0.51873 0.48755 0.92558 0.0
H3799 H 0.51177 0.49337 0.9604 0.0
C3800 C 0.5613 0.49043 0.87947 0.0
C3801 C 0.56326 0.50563 0.8657 0.0
C3802 C 0.54972 0.49306 0.89652 0.0
C3803 C 0.53985 0.51091 0.89999 0.0
C3804 C 0.54027 0.52536 0.88524 0.0
C3805 C 0.55198 0.52278 0.86829 0.0
C3806 C 0.53258 0.53673 0.94812 0.0
C3807 C 0.52406 0.52224 0.96008 0.0
C3808 C 0.53655 0.5334 0.9283 0.0
C3809 C 0.53208 0.51551 0.91996 0.0
C3810 C 0.52251 0.50141 0.93165 0.0
C3811 C 0.51849 0.50477 0.95156 0.0
H3812 H 0.72266 0.35432 0.13687 0.0
H3813 H 0.7613 0.30674 0.11883 0.0
H3814 H 0.72059 0.34056 0.1701 0.0
H3815 H 0.75958 0.29323 0.15199 0.0
H3816 H 0.75356 0.32594 0.22866 0.0
H3817 H 0.74586 0.33767 0.19586 0.0
H3818 H 0.73753 0.27865 0.17741 0.0
H3819 H 0.74549 0.26683 0.21011 0.0
C3820 C 0.73041 0.34075 0.13996 0.0
C3821 C 0.74229 0.33164 0.12543 0.0
C3822 C 0.72932 0.33297 0.15894 0.0
C3823 C 0.73997 0.3159 0.16359 0.0
C3824 C 0.75104 0.30631 0.14877 0.0
C3825 C 0.75222 0.31413 0.12987 0.0
C3826 C 0.74977 0.31549 0.2177 0.0
C3827 C 0.75044 0.29546 0.22184 0.0
C3828 C 0.74522 0.32222 0.19897 0.0
C3829 C 0.74126 0.30903 0.1841 0.0
C3830 C 0.74078 0.28909 0.18857 0.0
C3831 C 0.74532 0.28235 0.20729 0.0
H3832 H 0.95653 0.57512 0.34435 0.0
H3833 H 0.91605 0.53406 0.37092 0.0
H3834 H 0.97958 0.56865 0.37064 0.0
H3835 H 0.93943 0.5272 0.39672 0.0
H3836 H 0.99703 0.50101 0.42003 0.0
H3837 H 0.97433 0.5108 0.39448 0.0
H3838 H 0.98157 0.57103 0.4091 0.0
H3839 H 0.00444 0.56118 0.43481 0.0
C3840 C 0.95237 0.56501 0.35596 0.0
C3841 C 0.93454 0.55493 0.35542 0.0
C3842 C 0.96562 0.56125 0.37092 0.0
C3843 C 0.96134 0.54722 0.38543 0.0
C3844 C 0.94318 0.53781 0.38542 0.0
C3845 C 0.92985 0.54173 0.37065 0.0
C3846 C 0.99408 0.51635 0.41756 0.0
C3847 C 0.00248 0.53036 0.42936 0.0
C3848 C 0.98092 0.52192 0.40313 0.0
C3849 C 0.97609 0.54163 0.40006 0.0
C3850 C 0.98507 0.55574 0.41127 0.0
C3851 C 0.99806 0.55013 0.42593 0.0
H3852 H 0.79562 0.72753 0.61236 0.0
H3853 H 0.75153 0.68827 0.6353 0.0
H3854 H 0.79819 0.74165 0.64472 0.0
H3855 H 0.75344 0.70301 0.66747 0.0
H3856 H 0.77383 0.72081 0.72783 0.0
H3857 H 0.77309 0.70588 0.69557 0.0
H3858 H 0.78189 0.76202 0.66809 0.0
H3859 H 0.78309 0.77681 0.70032 0.0
C3860 C 0.78645 0.72184 0.62426 0.0
C3861 C 0.77337 0.70662 0.62095 0.0
C3862 C 0.78775 0.73016 0.6429 0.0
C3863 C 0.77604 0.72359 0.65898 0.0
C3864 C 0.76294 0.70839 0.65567 0.0
C3865 C 0.76163 0.70007 0.63702 0.0
C3866 C 0.77582 0.72997 0.71492 0.0
C3867 C 0.77862 0.75007 0.71683 0.0
C3868 C 0.7752 0.7214 0.69631 0.0
C3869 C 0.77732 0.73265 0.67896 0.0
C3870 C 0.78044 0.75272 0.68095 0.0
C3871 C 0.78107 0.76127 0.69954 0.0
H3872 H 0.68115 0.57122 0.54177 0.0
H3873 H 0.65911 0.61167 0.49845 0.0
H3874 H 0.65055 0.55324 0.54082 0.0
H3875 H 0.6283 0.59421 0.49789 0.0
H3876 H 0.58037 0.55132 0.48766 0.0
H3877 H 0.61232 0.56681 0.48789 0.0
H3878 H 0.61709 0.55234 0.54944 0.0
H3879 H 0.5855 0.53608 0.54887 0.0
C3880 C 0.66969 0.57641 0.53217 0.0
C3881 C 0.67275 0.59292 0.52014 0.0
C3882 C 0.652 0.56609 0.53164 0.0
C3883 C 0.63666 0.57205 0.51921 0.0
C3884 C 0.63975 0.58871 0.50733 0.0
C3885 C 0.65749 0.59887 0.5077 0.0
C3886 C 0.58835 0.55121 0.5012 0.0
C3887 C 0.58027 0.54233 0.51822 0.0
C3888 C 0.60669 0.56035 0.50141 0.0
C3889 C 0.61751 0.56119 0.51875 0.0
C3890 C 0.60955 0.55191 0.53569 0.0
C3891 C 0.59129 0.54256 0.5354 0.0
H3892 H 0.17127 0.97496 0.51493 0.0
H3893 H 0.14458 0.9202 0.50215 0.0
H3894 H 0.139 0.99087 0.51505 0.0
H3895 H 0.11243 0.93642 0.50081 0.0
H3896 H 0.05596 0.96629 0.5243 0.0
H3897 H 0.08831 0.95018 0.52268 0.0
H3898 H 0.11305 0.00152 0.49519 0.0
H3899 H 0.08098 0.01784 0.49769 0.0
C3900 C 0.15853 0.96634 0.51195 0.0
C3901 C 0.16051 0.94627 0.50872 0.0
C3902 C 0.14003 0.97552 0.51175 0.0
C3903 C 0.12308 0.96491 0.50803 0.0
C3904 C 0.12514 0.94496 0.50408 0.0
C3905 C 0.14364 0.93572 0.50452 0.0
C3906 C 0.06836 0.97411 0.51799 0.0
C3907 C 0.06602 0.99335 0.51129 0.0
C3908 C 0.08686 0.96484 0.51688 0.0
C3909 C 0.1033 0.97455 0.50878 0.0
C3910 C 0.10081 0.99373 0.50185 0.0
C3911 C 0.08241 0.00307 0.50322 0.0
H3912 H 0.36318 0.93861 0.78944 0.0
H3913 H 0.30929 0.96337 0.76652 0.0
H3914 H 0.34632 0.90839 0.79683 0.0
H3915 H 0.2926 0.93284 0.77351 0.0
H3916 H 0.28162 0.8664 0.76609 0.0
H3917 H 0.29601 0.89833 0.76066 0.0
H3918 H 0.31847 0.89648 0.81929 0.0
H3919 H 0.30431 0.86441 0.82461 0.0
C3920 C 0.34769 0.93768 0.78617 0.0
C3921 C 0.33755 0.95339 0.77742 0.0
C3922 C 0.33807 0.92038 0.79038 0.0
C3923 C 0.31819 0.91838 0.78578 0.0
C3924 C 0.308 0.93403 0.77704 0.0
C3925 C 0.31758 0.95142 0.77297 0.0
C3926 C 0.28962 0.87286 0.77779 0.0
C3927 C 0.292 0.86294 0.79571 0.0
C3928 C 0.29767 0.89116 0.77476 0.0
C3929 C 0.30837 0.89975 0.78955 0.0
C3930 C 0.31039 0.89004 0.80763 0.0
C3931 C 0.30218 0.87182 0.81072 0.0
H3932 H 0.36364 0.07972 0.05227 0.0
H3933 H 0.37744 0.10476 0.99527 0.0
H3934 H 0.39629 0.06426 0.05263 0.0
H3935 H 0.41009 0.08928 0.99563 0.0
H3936 H 0.46069 0.04387 0.99451 0.0
H3937 H 0.42764 0.05859 0.99382 0.0
H3938 H 0.43057 0.07143 0.05548 0.0
H3939 H 0.46342 0.05638 0.05624 0.0
C3940 C 0.37365 0.08207 0.03984 0.0
C3941 C 0.36775 0.09359 0.02375 0.0
C3942 C 0.39246 0.07317 0.04006 0.0
C3943 C 0.40601 0.07549 0.02418 0.0
C3944 C 0.40005 0.08687 0.00801 0.0
C3945 C 0.38123 0.09577 0.0078 0.0
C3946 C 0.45428 0.04979 0.00794 0.0
C3947 C 0.46479 0.04886 0.02544 0.0
C3948 C 0.43532 0.05837 0.00752 0.0
C3949 C 0.42627 0.06625 0.02459 0.0
C3950 C 0.43683 0.06529 0.04209 0.0
C3951 C 0.45579 0.05674 0.0425 0.0
H3952 H 0.72681 0.58823 0.80952 0.0
H3953 H 0.67777 0.61435 0.77892 0.0
H3954 H 0.74262 0.6197 0.81009 0.0
H3955 H 0.69395 0.64568 0.77905 0.0
H3956 H 0.74144 0.69206 0.76544 0.0
H3957 H 0.72535 0.66079 0.76444 0.0
H3958 H 0.73488 0.65221 0.82627 0.0
H3959 H 0.75046 0.68363 0.82754 0.0
C3960 C 0.71935 0.60068 0.80301 0.0
C3961 C 0.70098 0.59879 0.79425 0.0
C3962 C 0.72845 0.61865 0.80329 0.0
C3963 C 0.71947 0.63505 0.79464 0.0
C3964 C 0.70126 0.63318 0.78563 0.0
C3965 C 0.69205 0.61524 0.78552 0.0
C3966 C 0.73992 0.68369 0.7789 0.0
C3967 C 0.74732 0.69046 0.79658 0.0
C3968 C 0.73075 0.66574 0.77828 0.0
C3969 C 0.72897 0.65413 0.79526 0.0
C3970 C 0.73633 0.66081 0.81291 0.0
C3971 C 0.74531 0.67881 0.81359 0.0
H3972 H 0.86354 0.42959 0.03948 0.0
H3973 H 0.82798 0.47297 0.00963 0.0
H3974 H 0.89164 0.45112 0.03741 0.0
H3975 H 0.85636 0.49417 0.00706 0.0
H3976 H 0.91974 0.50915 0.98286 0.0
H3977 H 0.88954 0.49122 0.98819 0.0
H3978 H 0.90216 0.48447 0.04958 0.0
H3979 H 0.93213 0.50296 0.04455 0.0
C3980 C 0.86161 0.4438 0.03273 0.0
C3981 C 0.84354 0.4495 0.0246 0.0
C3982 C 0.87772 0.45609 0.03152 0.0
C3983 C 0.87611 0.47422 0.02201 0.0
C3984 C 0.85799 0.48014 0.01426 0.0
C3985 C 0.84181 0.46795 0.01565 0.0
C3986 C 0.916 0.50423 0.99759 0.0
C3987 C 0.92859 0.50744 0.01322 0.0
C3988 C 0.89867 0.49392 0.00061 0.0
C3989 C 0.89363 0.48644 0.01927 0.0
C3990 C 0.90589 0.48993 0.035 0.0
C3991 C 0.92312 0.50044 0.03204 0.0
H3992 H 0.3 0.12441 0.73755 0.0
H3993 H 0.35546 0.14759 0.71593 0.0
H3994 H 0.2858 0.15706 0.7384 0.0
H3995 H 0.34073 0.17988 0.71512 0.0
H3996 H 0.32214 0.23119 0.75448 0.0
H3997 H 0.33387 0.20002 0.74238 0.0
H3998 H 0.27502 0.18709 0.72414 0.0
H3999 H 0.26307 0.21824 0.73704 0.0
C4000 C 0.30902 0.13638 0.73251 0.0
C4001 C 0.32906 0.13339 0.7273 0.0
C4002 C 0.30077 0.1551 0.73268 0.0
C4003 C 0.31232 0.17113 0.7273 0.0
C4004 C 0.33163 0.16786 0.71989 0.0
C4005 C 0.33999 0.14923 0.72009 0.0
C4006 C 0.31172 0.2218 0.74771 0.0
C4007 C 0.29166 0.22702 0.74693 0.0
C4008 C 0.31849 0.20399 0.74053 0.0
C4009 C 0.30538 0.19106 0.7322 0.0
C4010 C 0.28543 0.19664 0.73066 0.0
C4011 C 0.2786 0.21445 0.73804 0.0
H4012 H 0.23187 0.92292 0.27112 0.0
H4013 H 0.23381 0.92096 0.33431 0.0
H4014 H 0.24991 0.89239 0.26928 0.0
H4015 H 0.25295 0.89046 0.3326 0.0
H4016 H 0.2549 0.82382 0.32014 0.0
H4017 H 0.24694 0.85796 0.32621 0.0
H4018 H 0.27812 0.87374 0.27222 0.0
H4019 H 0.28448 0.83945 0.26559 0.0
C4020 C 0.2368 0.91623 0.28463 0.0
C4021 C 0.23142 0.92426 0.30285 0.0
C4022 C 0.24731 0.89867 0.28362 0.0
C4023 C 0.25299 0.88879 0.30081 0.0
C4024 C 0.24854 0.89744 0.31906 0.0
C4025 C 0.23769 0.91494 0.32008 0.0
C4026 C 0.26036 0.83473 0.30987 0.0
C4027 C 0.27 0.82921 0.2923 0.0
C4028 C 0.25592 0.85433 0.31335 0.0
C4029 C 0.26146 0.8687 0.29947 0.0
C4030 C 0.27296 0.86309 0.28289 0.0
C4031 C 0.27681 0.84349 0.27914 0.0
H4032 H 0.54403 0.36947 0.47299 0.0
H4033 H 0.50305 0.39232 0.4308 0.0
H4034 H 0.54733 0.40182 0.48627 0.0
H4035 H 0.50546 0.42448 0.44484 0.0
H4036 H 0.52579 0.48439 0.46303 0.0
H4037 H 0.52486 0.45222 0.44833 0.0
H4038 H 0.53162 0.4257 0.50553 0.0
H4039 H 0.53319 0.45771 0.51999 0.0
C4040 C 0.53569 0.38133 0.46646 0.0
C4041 C 0.52324 0.37795 0.45069 0.0
C4042 C 0.53738 0.40001 0.47432 0.0
C4043 C 0.52663 0.41607 0.46681 0.0
C4044 C 0.51422 0.41271 0.45101 0.0
C4045 C 0.51259 0.39404 0.44309 0.0
C4046 C 0.52732 0.47169 0.47244 0.0
C4047 C 0.52969 0.47382 0.49274 0.0
C4048 C 0.52658 0.45313 0.46401 0.0
C4049 C 0.52809 0.43605 0.47562 0.0
C4050 C 0.53071 0.43828 0.4959 0.0
C4051 C 0.53154 0.45679 0.50428 0.0
H4052 H 0.40216 0.76312 0.17829 0.0
H4053 H 0.42768 0.78658 0.23006 0.0
H4054 H 0.37011 0.76207 0.19529 0.0
H4055 H 0.39541 0.78634 0.24678 0.0
H4056 H 0.33784 0.76587 0.27633 0.0
H4057 H 0.37046 0.76465 0.26032 0.0
H4058 H 0.34531 0.78575 0.20639 0.0
H4059 H 0.31266 0.78653 0.22221 0.0
C4060 C 0.40097 0.76786 0.19337 0.0
C4061 C 0.41743 0.77497 0.20283 0.0
C4062 C 0.38255 0.76752 0.20301 0.0
C4063 C 0.3802 0.77431 0.22229 0.0
C4064 C 0.39677 0.78091 0.23195 0.0
C4065 C 0.4152 0.78122 0.22232 0.0
C4066 C 0.33929 0.7703 0.26107 0.0
C4067 C 0.32269 0.77629 0.25052 0.0
C4068 C 0.35798 0.76966 0.25193 0.0
C4069 C 0.36042 0.77501 0.23208 0.0
C4070 C 0.34384 0.78121 0.22161 0.0
C4071 C 0.32517 0.78181 0.23073 0.0
H4072 H 0.03997 0.68804 0.98031 0.0
H4073 H 0.99345 0.67003 0.94318 0.0
H4074 H 0.04035 0.65613 0.99624 0.0
H4075 H 0.99416 0.63796 0.95858 0.0
H4076 H 0.9868 0.58681 0.00054 0.0
H4077 H 0.98625 0.61918 0.98587 0.0
H4078 H 0.04897 0.62331 0.99422 0.0
H4079 H 0.04922 0.59114 0.00973 0.0
C4080 C 0.02991 0.67722 0.9754 0.0
C4081 C 0.01662 0.68181 0.96043 0.0
C4082 C 0.03017 0.65876 0.98452 0.0
C4083 C 0.01728 0.64411 0.97888 0.0
C4084 C 0.00406 0.64875 0.96381 0.0
C4085 C 0.00367 0.66726 0.95485 0.0
C4086 C 1.00049 0.59462 0.99932 0.0
C4087 C 0.01805 0.58623 0.00641 0.0
C4088 C 1.00023 0.61328 0.99069 0.0
C4089 C 0.01758 0.62418 0.98857 0.0
C4090 C 0.03517 0.61573 0.99574 0.0
C4091 C 0.03538 0.59712 0.00459 0.0
H4092 H 0.11217 0.31469 0.68083 0.0
H4093 H 0.08971 0.25938 0.70097 0.0
H4094 H 0.13956 0.31097 0.703 0.0
H4095 H 0.11769 0.25506 0.72206 0.0
H4096 H 0.16244 0.25784 0.7691 0.0
H4097 H 0.13283 0.26576 0.7508 0.0
H4098 H 0.16906 0.29185 0.70476 0.0
H4099 H 0.19837 0.28441 0.72333 0.0
C4100 C 0.11302 0.30179 0.69003 0.0
C4101 C 0.09886 0.28724 0.68897 0.0
C4102 C 0.12884 0.29954 0.70257 0.0
C4103 C 0.13091 0.28265 0.71421 0.0
C4104 C 0.11647 0.26835 0.71348 0.0
C4105 C 0.10059 0.27068 0.7011 0.0
C4106 C 0.16395 0.26535 0.75511 0.0
C4107 C 0.18263 0.27051 0.74761 0.0
C4108 C 0.14706 0.26986 0.7446 0.0
C4109 C 0.14857 0.27939 0.72626 0.0
C4110 C 0.16728 0.28484 0.71898 0.0
C4111 C 0.18411 0.28053 0.72959 0.0
H4112 H 0.50691 0.68931 0.08496 0.0
H4113 H 0.56322 0.71216 0.06592 0.0
H4114 H 0.51295 0.66086 0.06482 0.0
H4115 H 0.5692 0.68371 0.04517 0.0
H4116 H 0.5799 0.61764 0.03122 0.0
H4117 H 0.57589 0.64907 0.04743 0.0
H4118 H 0.51465 0.65161 0.03131 0.0
H4119 H 0.51865 0.61996 0.01592 0.0
C4120 C 0.5205 0.6883 0.07623 0.0
C4121 C 0.53455 0.70292 0.07686 0.0
C4122 C 0.52394 0.67207 0.06459 0.0
C4123 C 0.54143 0.67016 0.05314 0.0
C4124 C 0.55562 0.68473 0.05389 0.0
C4125 C 0.55222 0.70097 0.06573 0.0
C4126 C 0.56575 0.62521 0.03089 0.0
C4127 C 0.5495 0.61644 0.02265 0.0
C4128 C 0.56343 0.64316 0.04011 0.0
C4129 C 0.54484 0.65264 0.04099 0.0
C4130 C 0.529 0.64442 0.0314 0.0
C4131 C 0.53128 0.6264 0.0225 0.0
H4132 H 0.13208 0.78922 0.86686 0.0
H4133 H 0.10845 0.76418 0.81499 0.0
H4134 H 0.16493 0.7885 0.85149 0.0
H4135 H 0.14138 0.76349 0.79957 0.0
H4136 H 0.20649 0.74802 0.78474 0.0
H4137 H 0.17351 0.7481 0.80021 0.0
H4138 H 0.18473 0.80347 0.82638 0.0
H4139 H 0.21773 0.80315 0.81133 0.0
C4140 C 0.13379 0.78375 0.85208 0.0
C4141 C 0.11741 0.77684 0.84222 0.0
C4142 C 0.15274 0.78332 0.84322 0.0
C4143 C 0.15599 0.77598 0.82418 0.0
C4144 C 0.13963 0.76899 0.81434 0.0
C4145 C 0.12066 0.7694 0.82321 0.0
C4146 C 0.20192 0.7602 0.79382 0.0
C4147 C 0.21488 0.77556 0.79677 0.0
C4148 C 0.18291 0.76032 0.80262 0.0
C4149 C 0.17628 0.77579 0.81465 0.0
C4150 C 0.18929 0.79114 0.81753 0.0
C4151 C 0.20826 0.79101 0.80876 0.0
H4152 H 0.02387 0.37476 0.5451 0.0
H4153 H 0.96324 0.38034 0.56619 0.0
H4154 H 0.02117 0.40645 0.52928 0.0
H4155 H 0.9609 0.41253 0.55086 0.0
H4156 H 0.00966 0.4624 0.4976 0.0
H4157 H 0.00297 0.42807 0.50401 0.0
H4158 H 0.98012 0.44235 0.56193 0.0
H4159 H 0.98693 0.47651 0.55568 0.0
C4160 C 0.00978 0.38245 0.54591 0.0
C4161 C 0.99386 0.37513 0.5572 0.0
C4162 C 0.00826 0.40064 0.53682 0.0
C4163 C 0.99087 0.41191 0.53901 0.0
C4164 C 0.97451 0.40411 0.54914 0.0
C4165 C 0.97594 0.3858 0.55803 0.0
C4166 C 0.00278 0.45823 0.51151 0.0
C4167 C 0.99905 0.47201 0.52627 0.0
C4168 C 0.99899 0.43864 0.51515 0.0
C4169 C 0.99109 0.43266 0.53344 0.0
C4170 C 0.98603 0.44664 0.54763 0.0
C4171 C 0.99009 0.46614 0.54412 0.0
H4172 H 0.42554 0.24721 0.32654 0.0
H4173 H 0.4101 0.30473 0.34735 0.0
H4174 H 0.39454 0.24634 0.30937 0.0
H4175 H 0.37941 0.30396 0.32974 0.0
H4176 H 0.3338 0.30357 0.28122 0.0
H4177 H 0.36587 0.30415 0.2967 0.0
H4178 H 0.35879 0.24463 0.31579 0.0
H4179 H 0.32678 0.24403 0.3003 0.0
C4180 C 0.41559 0.25966 0.32763 0.0
C4181 C 0.42064 0.27604 0.33854 0.0
C4182 C 0.39773 0.25917 0.31765 0.0
C4183 C 0.38433 0.27509 0.31804 0.0
C4184 C 0.38941 0.29152 0.32877 0.0
C4185 C 0.40717 0.29196 0.33889 0.0
C4186 C 0.33915 0.29051 0.28851 0.0
C4187 C 0.3276 0.27373 0.28939 0.0
C4188 C 0.35753 0.2909 0.29758 0.0
C4189 C 0.36504 0.27446 0.30765 0.0
C4190 C 0.35369 0.25753 0.30807 0.0
C4191 C 0.33523 0.2572 0.29918 0.0
H4192 H 0.4441 0.59006 0.34894 0.0
H4193 H 0.43941 0.52766 0.35318 0.0
H4194 H 0.46052 0.59016 0.38044 0.0
H4195 H 0.45607 0.52771 0.3844 0.0
H4196 H 0.47044 0.53783 0.44845 0.0
H4197 H 0.45121 0.53915 0.41883 0.0
H4198 H 0.49347 0.57796 0.39172 0.0
H4199 H 0.51291 0.57643 0.42115 0.0
C4200 C 0.44642 0.57643 0.35672 0.0
C4201 C 0.44065 0.55884 0.34863 0.0
C4202 C 0.45593 0.57646 0.37461 0.0
C4203 C 0.45963 0.55893 0.38477 0.0
C4204 C 0.45328 0.54143 0.37694 0.0
C4205 C 0.44393 0.54139 0.35902 0.0
C4206 C 0.47576 0.5465 0.43614 0.0
C4207 C 0.49329 0.55697 0.43719 0.0
C4208 C 0.46468 0.54732 0.41922 0.0
C4209 C 0.47084 0.55871 0.40304 0.0
C4210 C 0.48822 0.56932 0.40411 0.0
C4211 C 0.49936 0.56841 0.42098 0.0
H4212 H 0.23279 0.72409 0.10559 0.0
H4213 H 0.27836 0.7634 0.08578 0.0
H4214 H 0.22698 0.74348 0.13482 0.0
H4215 H 0.27281 0.78252 0.11543 0.0
H4216 H 0.27822 0.78386 0.18439 0.0
H4217 H 0.28004 0.77301 0.15047 0.0
H4218 H 0.21645 0.77647 0.14817 0.0
H4219 H 0.21469 0.78723 0.18229 0.0
C4220 C 0.24123 0.73713 0.10719 0.0
C4221 C 0.2562 0.74206 0.09344 0.0
C4222 C 0.23789 0.74824 0.12397 0.0
C4223 C 0.24954 0.76441 0.12741 0.0
C4224 C 0.26378 0.76997 0.11319 0.0
C4225 C 0.26702 0.75896 0.09631 0.0
C4226 C 0.26468 0.78253 0.17653 0.0
C4227 C 0.24632 0.78616 0.18595 0.0
C4228 C 0.26571 0.77653 0.15708 0.0
C4229 C 0.24837 0.77387 0.14675 0.0
C4230 C 0.23002 0.77835 0.15588 0.0
C4231 C 0.22902 0.78459 0.1753 0.0
H4232 H 0.06291 0.49427 0.87515 0.0
H4233 H 0.11333 0.52126 0.89977 0.0
H4234 H 0.04679 0.49298 0.90766 0.0
H4235 H 0.09707 0.52082 0.93202 0.0
H4236 H 0.07105 0.50622 0.99048 0.0
H4237 H 0.08682 0.50065 0.95844 0.0
H4238 H 0.03156 0.51428 0.93069 0.0
H4239 H 0.01567 0.51885 0.96272 0.0
C4240 C 0.07041 0.50004 0.88756 0.0
C4241 C 0.08927 0.50787 0.88512 0.0
C4242 C 0.06124 0.49934 0.90612 0.0
C4243 C 0.07067 0.50673 0.92247 0.0
C4244 C 0.08957 0.51456 0.91988 0.0
C4245 C 0.09883 0.51499 0.90141 0.0
C4246 C 0.06225 0.5077 0.97751 0.0
C4247 C 0.04221 0.5131 0.97902 0.0
C4248 C 0.07129 0.50465 0.95917 0.0
C4249 C 0.06053 0.50731 0.94198 0.0
C4250 C 0.04025 0.51189 0.94361 0.0
C4251 C 0.03115 0.51462 0.96197 0.0
H4252 H 0.25589 0.32009 0.61192 0.0
H4253 H 0.2922 0.3661 0.63224 0.0
H4254 H 0.25504 0.30571 0.6448 0.0
H4255 H 0.29133 0.35177 0.66505 0.0
H4256 H 0.30262 0.31089 0.71713 0.0
H4257 H 0.30314 0.3251 0.68423 0.0
H4258 H 0.24234 0.30941 0.67775 0.0
H4259 H 0.24198 0.2948 0.71059 0.0
C4260 C 0.26358 0.32728 0.62339 0.0
C4261 C 0.27418 0.34431 0.61918 0.0
C4262 C 0.26307 0.31899 0.64235 0.0
C4263 C 0.27314 0.32746 0.6578 0.0
C4264 C 0.28368 0.34453 0.65359 0.0
C4265 C 0.28419 0.35279 0.63465 0.0
C4266 C 0.28933 0.31046 0.70873 0.0
C4267 C 0.27226 0.30163 0.71665 0.0
C4268 C 0.28958 0.31875 0.6898 0.0
C4269 C 0.27278 0.31853 0.67811 0.0
C4270 C 0.25568 0.3097 0.68607 0.0
C4271 C 0.25543 0.3014 0.70503 0.0
H4272 H 0.46299 0.57905 0.15525 0.0
H4273 H 0.48398 0.52374 0.17769 0.0
H4274 H 0.48447 0.57524 0.12618 0.0
H4275 H 0.50594 0.52009 0.14891 0.0
H4276 H 0.52697 0.56615 0.07606 0.0
H4277 H 0.51694 0.57211 0.11025 0.0
H4278 H 0.49757 0.5128 0.11597 0.0
H4279 H 0.50792 0.50679 0.0823 0.0
C4280 C 0.47267 0.56636 0.15419 0.0
C4281 C 0.47163 0.55151 0.16844 0.0
C4282 C 0.48506 0.5642 0.13761 0.0
C4283 C 0.49672 0.54722 0.13511 0.0
C4284 C 0.49682 0.53314 0.15022 0.0
C4285 C 0.48429 0.53521 0.16667 0.0
C4286 C 0.52102 0.55429 0.08483 0.0
C4287 C 0.51799 0.53608 0.07646 0.0
C4288 C 0.51518 0.55773 0.10434 0.0
C4289 C 0.50632 0.54298 0.11578 0.0
C4290 C 0.50455 0.52444 0.1077 0.0
C4291 C 0.51033 0.52103 0.08828 0.0
H4292 H 0.3034 0.68043 0.90061 0.0
H4293 H 0.29262 0.73876 0.92167 0.0
H4294 H 0.30583 0.69294 0.86702 0.0
H4295 H 0.29397 0.75109 0.8882 0.0
H4296 H 0.30703 0.77199 0.82836 0.0
H4297 H 0.31446 0.75698 0.85986 0.0
H4298 H 0.28267 0.70597 0.84391 0.0
H4299 H 0.27594 0.72073 0.81207 0.0
C4300 C 0.30177 0.69593 0.89808 0.0
C4301 C 0.29763 0.70861 0.91374 0.0
C4302 C 0.30297 0.70306 0.87884 0.0
C4303 C 0.30001 0.72298 0.87492 0.0
C4304 C 0.29659 0.73569 0.89069 0.0
C4305 C 0.2955 0.7286 0.90987 0.0
C4306 C 0.30195 0.75743 0.83147 0.0
C4307 C 0.29067 0.7476 0.81795 0.0
C4308 C 0.30612 0.74887 0.84953 0.0
C4309 C 0.29884 0.73044 0.85452 0.0
C4310 C 0.28862 0.72013 0.84047 0.0
C4311 C 0.28466 0.72861 0.82227 0.0
H4312 H 0.06131 0.52544 0.71036 0.0
H4313 H 0.09024 0.47288 0.68931 0.0
H4314 H 0.04226 0.52749 0.68084 0.0
H4315 H 0.07032 0.47434 0.66005 0.0
H4316 H 0.05675 0.50456 0.60014 0.0
H4317 H 0.07066 0.49476 0.6313 0.0
H4318 H 0.01713 0.51439 0.66162 0.0
H4319 H 0.00352 0.52469 0.63032 0.0
C4320 C 0.06339 0.51416 0.69951 0.0
C4321 C 0.07753 0.49921 0.70196 0.0
C4322 C 0.05223 0.51516 0.6827 0.0
C4323 C 0.05483 0.50112 0.66801 0.0
C4324 C 0.06818 0.48552 0.67098 0.0
C4325 C 0.07945 0.48459 0.68781 0.0
C4326 C 0.04782 0.50638 0.61343 0.0
C4327 C 0.0292 0.51562 0.61291 0.0
C4328 C 0.05574 0.50069 0.63131 0.0
C4329 C 0.04508 0.50398 0.64899 0.0
C4330 C 0.02588 0.51205 0.64829 0.0
C4331 C 0.01808 0.51793 0.63043 0.0
H4332 H 0.25033 0.32545 0.42994 0.0
H4333 H 0.28745 0.36949 0.40386 0.0
H4334 H 0.24734 0.31057 0.39793 0.0
H4335 H 0.28493 0.35442 0.37195 0.0
H4336 H 0.26452 0.33321 0.31317 0.0
H4337 H 0.26519 0.34863 0.34517 0.0
H4338 H 0.26314 0.29215 0.37343 0.0
H4339 H 0.2617 0.27692 0.34152 0.0
C4340 C 0.25806 0.33187 0.41742 0.0
C4341 C 0.26912 0.34876 0.41965 0.0
C4342 C 0.25638 0.32328 0.39894 0.0
C4343 C 0.26585 0.33116 0.38203 0.0
C4344 C 0.27701 0.34802 0.38434 0.0
C4345 C 0.27855 0.35668 0.40278 0.0
C4346 C 0.26397 0.3241 0.32622 0.0
C4347 C 0.26295 0.30377 0.32462 0.0
C4348 C 0.26458 0.33295 0.34469 0.0
C4349 C 0.26435 0.32177 0.3622 0.0
C4350 C 0.26304 0.30144 0.36051 0.0
C4351 C 0.26229 0.29262 0.34207 0.0
H4352 H 0.36762 0.47153 0.55028 0.0
H4353 H 0.38167 0.45447 0.49067 0.0
H4354 H 0.3988 0.48846 0.55133 0.0
H4355 H 0.41262 0.47171 0.49167 0.0
H4356 H 0.45909 0.51898 0.49357 0.0
H4357 H 0.42676 0.50397 0.49293 0.0
H4358 H 0.4343 0.48221 0.55192 0.0
H4359 H 0.46653 0.49732 0.55261 0.0
C4360 C 0.37733 0.47123 0.5374 0.0
C4361 C 0.37186 0.46146 0.52039 0.0
C4362 C 0.39529 0.48104 0.53801 0.0
C4363 C 0.40837 0.48156 0.52159 0.0
C4364 C 0.40286 0.47196 0.50453 0.0
C4365 C 0.38497 0.46204 0.50395 0.0
C4366 C 0.45378 0.5112 0.50651 0.0
C4367 C 0.46552 0.50947 0.52317 0.0
C4368 C 0.43525 0.5024 0.50607 0.0
C4369 C 0.42781 0.49171 0.52233 0.0
C4370 C 0.43935 0.49043 0.53917 0.0
C4371 C 0.45794 0.49909 0.53955 0.0
H4372 H 0.87489 0.0973 0.55311 0.0
H4373 H 0.87886 0.11373 0.49176 0.0
H4374 H 0.90272 0.07453 0.54814 0.0
H4375 H 0.90682 0.09134 0.48699 0.0
H4376 H 0.97213 0.07313 0.49694 0.0
H4377 H 0.94151 0.09204 0.49987 0.0
H4378 H 0.9131 0.04357 0.52893 0.0
H4379 H 0.94392 0.02442 0.52595 0.0
C4380 C 0.88157 0.09592 0.53856 0.0
C4381 C 0.87493 0.10756 0.52291 0.0
C4382 C 0.89743 0.08287 0.53572 0.0
C4383 C 0.90693 0.08134 0.51722 0.0
C4384 C 0.8999 0.09249 0.50146 0.0
C4385 C 0.88401 0.1054 0.50425 0.0
C4386 C 0.95932 0.0664 0.50378 0.0
C4387 C 0.96038 0.04731 0.51123 0.0
C4388 C 0.94178 0.0772 0.50537 0.0
C4389 C 0.925 0.06922 0.51461 0.0
C4390 C 0.92591 0.05003 0.52183 0.0
C4391 C 0.94345 0.03908 0.52001 0.0
H4392 H 0.71604 0.08755 0.25155 0.0
H4393 H 0.68341 0.11323 0.30039 0.0
H4394 H 0.7334 0.11779 0.24599 0.0
H4395 H 0.70077 0.14368 0.29474 0.0
H4396 H 0.75116 0.1876 0.29007 0.0
H4397 H 0.73398 0.15728 0.29662 0.0
H4398 H 0.72586 0.15063 0.23447 0.0
H4399 H 0.74302 0.1808 0.22797 0.0
C4400 C 0.71243 0.09976 0.26096 0.0
C4401 C 0.69825 0.09813 0.27628 0.0
C4402 C 0.72238 0.11706 0.25779 0.0
C4403 C 0.71834 0.13312 0.26985 0.0
C4404 C 0.70432 0.13145 0.28534 0.0
C4405 C 0.69437 0.11408 0.28854 0.0
C4406 C 0.7456 0.1797 0.27785 0.0
C4407 C 0.74851 0.18653 0.2585 0.0
C4408 C 0.73576 0.16237 0.28159 0.0
C4409 C 0.72863 0.15158 0.26605 0.0
C4410 C 0.7315 0.15846 0.24672 0.0
C4411 C 0.74136 0.17573 0.24299 0.0
H4412 H 0.67664 0.97049 0.05139 0.0
H4413 H 0.66344 0.94597 0.99536 0.0
H4414 H 0.64414 0.98616 0.05283 0.0
H4415 H 0.63057 0.96019 0.99759 0.0
H4416 H 0.57904 0.00226 0.99582 0.0
H4417 H 0.61226 0.98845 0.99476 0.0
H4418 H 0.61022 0.98228 0.05795 0.0
H4419 H 0.57715 0.99715 0.05896 0.0
C4420 C 0.6669 0.96838 0.03934 0.0
C4421 C 0.67297 0.95683 0.02324 0.0
C4422 C 0.648 0.97717 0.04034 0.0
C4423 C 0.63444 0.97458 0.02535 0.0
C4424 C 0.64051 0.96295 0.00932 0.0
C4425 C 0.65944 0.9544 0.0082 0.0
C4426 C 0.58566 0.99799 0.00952 0.0
C4427 C 0.57532 0.00079 0.02747 0.0
C4428 C 0.60478 0.98987 0.00892 0.0
C4429 C 0.61414 0.98392 0.02624 0.0
C4430 C 0.60378 0.98684 0.04426 0.0
C4431 C 0.58469 0.99527 0.04487 0.0
H4432 H 0.37052 0.43601 0.24231 0.0
H4433 H 0.31322 0.46447 0.24744 0.0
H4434 H 0.3547 0.40453 0.24113 0.0
H4435 H 0.29747 0.43301 0.24703 0.0
H4436 H 0.27567 0.37565 0.22441 0.0
H4437 H 0.29203 0.40676 0.22438 0.0
H4438 H 0.33587 0.38279 0.26308 0.0
H4439 H 0.31993 0.35138 0.26247 0.0
C4440 C 0.35455 0.43554 0.24311 0.0
C4441 C 0.3431 0.45269 0.24498 0.0
C4442 C 0.34552 0.41751 0.24267 0.0
C4443 C 0.32486 0.41631 0.24405 0.0
C4444 C 0.31342 0.43348 0.24576 0.0
C4445 C 0.32244 0.45148 0.24621 0.0
C4446 C 0.28891 0.37693 0.23275 0.0
C4447 C 0.29651 0.36101 0.24341 0.0
C4448 C 0.29816 0.39482 0.2329 0.0
C4449 C 0.31521 0.39722 0.24375 0.0
C4450 C 0.32285 0.38132 0.25443 0.0
C4451 C 0.31358 0.3634 0.25427 0.0
H4452 H 0.20891 0.58241 0.05186 0.0
H4453 H 0.18556 0.60571 0.99804 0.0
H4454 H 0.17904 0.56371 0.05743 0.0
H4455 H 0.15547 0.58742 0.00377 0.0
H4456 H 0.10794 0.54288 0.01364 0.0
H4457 H 0.14053 0.55594 0.00607 0.0
H4458 H 0.14557 0.57197 0.06679 0.0
H4459 H 0.11325 0.5587 0.07429 0.0
C4460 C 0.19739 0.58343 0.04119 0.0
C4461 C 0.19941 0.59558 0.02462 0.0
C4462 C 0.18028 0.57279 0.04439 0.0
C4463 C 0.16479 0.57427 0.03117 0.0
C4464 C 0.16721 0.58579 0.01413 0.0
C4465 C 0.18441 0.5963 0.01086 0.0
C4466 C 0.11606 0.5492 0.02532 0.0
C4467 C 0.10805 0.54984 0.04454 0.0
C4468 C 0.13471 0.55665 0.02101 0.0
C4469 C 0.14565 0.56498 0.03583 0.0
C4470 C 0.13772 0.56531 0.0551 0.0
C4471 C 0.11916 0.55776 0.05941 0.0
H4472 H 0.75117 0.92658 0.26349 0.0
H4473 H 0.7407 0.92495 0.3263 0.0
H4474 H 0.76993 0.89618 0.26555 0.0
H4475 H 0.75908 0.89414 0.32821 0.0
H4476 H 0.8018 0.83951 0.27402 0.0
H4477 H 0.7981 0.87442 0.28029 0.0
H4478 H 0.74359 0.86398 0.31272 0.0
H4479 H 0.74705 0.82939 0.30616 0.0
C4480 C 0.75353 0.92017 0.27783 0.0
C4481 C 0.74401 0.92785 0.29467 0.0
C4482 C 0.76433 0.90275 0.27901 0.0
C4483 C 0.76562 0.89274 0.297 0.0
C4484 C 0.75806 0.90154 0.31415 0.0
C4485 C 0.74743 0.91905 0.313 0.0
C4486 C 0.78933 0.84469 0.28292 0.0
C4487 C 0.77455 0.83192 0.28942 0.0
C4488 C 0.78725 0.86459 0.2865 0.0
C4489 C 0.77062 0.8718 0.29701 0.0
C4490 C 0.7567 0.85876 0.3048 0.0
C4491 C 0.75855 0.83901 0.30089 0.0
H4492 H 0.8483 0.15557 0.71405 0.0
H4493 H 0.79703 0.12257 0.73185 0.0
H4494 H 0.82866 0.18543 0.71617 0.0
H4495 H 0.77771 0.15277 0.73486 0.0
H4496 H 0.78563 0.2367 0.71731 0.0
H4497 H 0.79641 0.20491 0.70445 0.0
H4498 H 0.78565 0.17895 0.76161 0.0
H4499 H 0.77548 0.2106 0.77451 0.0
C4500 C 0.83274 0.15455 0.71783 0.0
C4501 C 0.82438 0.13662 0.72315 0.0
C4502 C 0.82149 0.17172 0.71904 0.0
C4503 C 0.80176 0.17133 0.72582 0.0
C4504 C 0.79296 0.15339 0.72972 0.0
C4505 C 0.8041 0.13616 0.72819 0.0
C4506 C 0.78511 0.22406 0.72693 0.0
C4507 C 0.77991 0.22599 0.7469 0.0
C4508 C 0.79129 0.20597 0.7196 0.0
C4509 C 0.79177 0.18957 0.73205 0.0
C4510 C 0.78518 0.19134 0.75166 0.0
C4511 C 0.7795 0.20943 0.75907 0.0
loop_
_geom_bond_atom_site_label_1
_geom_bond_atom_site_label_2
_geom_bond_distance
_geom_bond_site_symmetry_2
_ccdc_geom_bond_type
Li0 N17 1.990 . S
Li0 O60 1.956 . S
Li0 O61 1.970 . S
Li0 O62 1.957 . S
Li1 N25 1.990 . S
Li1 O60 1.970 . S
Li1 O61 1.956 . S
Li1 O63 1.961 . S
Li2 N47 1.990 . S
Li2 O60 1.961 . S
Li2 O62 1.952 . S
Li2 O63 1.970 . S
Li3 N53 1.990 1_455 S
Li3 O61 1.961 . S
Li3 O62 1.970 . S
Li3 O63 1.956 . S
C4 C6 1.348 . S
C4 C7 1.356 . S
C4 O60 1.325 . S
N5 C8 1.314 . S
N5 C9 1.279 . S
C6 C4 1.348 . S
C6 C8 1.353 . S
C6 H64 0.929 . S
C7 C4 1.356 . S
C7 C9 1.358 . S
C7 H65 0.930 . S
C8 N5 1.314 . S
C8 C6 1.353 . S
C8 H66 0.930 . S
C9 N5 1.279 . S
C9 C7 1.358 . S
C9 H67 0.930 . S
C10 C13 1.348 . S
C10 C14 1.356 . S
C10 O61 1.325 . S
C11 N12 1.279 . S
C11 C14 1.358 . S
C11 H68 0.930 . S
N12 C11 1.279 . S
N12 C15 1.314 . S
C13 C10 1.348 . S
C13 C15 1.353 . S
C13 H69 0.929 . S
C14 C10 1.356 . S
C14 C11 1.358 . S
C14 H70 0.930 . S
C15 N12 1.314 . S
C15 C13 1.353 . S
C15 H71 0.930 . S
C16 N17 1.314 . S
C16 C21 1.353 . S
C16 H22 0.930 1_455 S
N17 Li0 1.990 . S
N17 C16 1.314 . S
N17 C19 1.279 . S
C18 C19 1.358 . S
C18 C20 1.356 . S
C18 H72 0.930 . S
C19 N17 1.279 . S
C19 C18 1.358 . S
C19 H23 0.930 . S
C20 C18 1.356 . S
C20 C21 1.348 . S
C21 C16 1.353 . S
C21 C20 1.348 . S
C21 H73 0.929 1_455 S
H22 C16 0.930 1_655 S
H23 C19 0.930 . S
C24 N25 1.314 . S
C24 C26 1.353 . S
C24 H30 0.930 . S
N25 Li1 1.990 . S
N25 C24 1.314 . S
N25 C28 1.279 . S
C26 C24 1.353 . S
C26 C29 1.348 . S
C26 H74 0.929 . S
C27 C28 1.358 . S
C27 C29 1.356 . S
C27 H75 0.930 . S
C28 N25 1.279 . S
C28 C27 1.358 . S
C28 H31 0.930 . S
C29 C26 1.348 . S
C29 C27 1.356 . S
H30 C24 0.930 . S
H31 C28 0.930 . S
C32 C34 1.348 . S
C32 C35 1.356 . S
C32 O62 1.329 1_655 S
N33 C36 1.314 . S
N33 C37 1.279 . S
C34 C32 1.348 . S
C34 C36 1.353 . S
C34 H76 0.929 . S
C35 C32 1.356 . S
C35 C37 1.358 . S
C35 H77 0.930 . S
C36 N33 1.314 . S
C36 C34 1.353 . S
C36 H78 0.930 . S
C37 N33 1.279 . S
C37 C35 1.358 . S
C37 H79 0.930 . S
C38 C39 1.348 . S
C38 C40 1.356 . S
C38 O63 1.325 . S
C39 C38 1.348 . S
C39 C41 1.353 . S
C39 H80 0.929 . S
C40 C38 1.356 . S
C40 C42 1.358 . S
C40 H81 0.930 . S
C41 C39 1.353 . S
C41 N43 1.314 . S
C41 H82 0.930 . S
C42 C40 1.358 . S
C42 N43 1.279 . S
C42 H83 0.930 . S
N43 C41 1.314 . S
N43 C42 1.279 . S
C44 C46 1.353 . S
C44 N47 1.314 . S
C44 H50 0.930 . S
C45 N47 1.279 . S
C45 C48 1.358 . S
C45 H51 0.930 1_455 S
C46 C44 1.353 . S
C46 C49 1.348 . S
C46 H84 0.929 . S
N47 Li2 1.990 . S
N47 C44 1.314 . S
N47 C45 1.279 . S
C48 C45 1.358 . S
C48 C49 1.356 . S
C48 H85 0.930 1_455 S
C49 C46 1.348 . S
C49 C48 1.356 . S
H50 C44 0.930 . S
H51 C45 0.930 1_655 S
C52 N53 1.314 . S
C52 C54 1.353 . S
C52 H58 0.930 . S
N53 Li3 1.990 1_655 S
N53 C52 1.314 . S
N53 C56 1.279 . S
C54 C52 1.353 . S
C54 C57 1.348 . S
C54 H86 0.929 . S
C55 C56 1.358 . S
C55 C57 1.356 . S
C55 H87 0.930 . S
C56 N53 1.279 . S
C56 C55 1.358 . S
C56 H59 0.930 . S
C57 C54 1.348 . S
C57 C55 1.356 . S
H58 C52 0.930 . S
H59 C56 0.930 . S
O60 Li0 1.956 . S
O60 Li1 1.970 . S
O60 Li2 1.961 . S
O60 C4 1.325 . S
O61 Li0 1.970 . S
O61 Li1 1.956 . S
O61 Li3 1.961 . S
O61 C10 1.325 . S
O62 Li0 1.957 . S
O62 Li2 1.952 . S
O62 Li3 1.970 . S
O62 C32 1.329 1_455 S
O63 Li1 1.961 . S
O63 Li2 1.970 . S
O63 Li3 1.956 . S
O63 C38 1.325 . S
H64 C6 0.929 . S
H65 C7 0.930 . S
H66 C8 0.930 . S
H67 C9 0.930 . S
H68 C11 0.930 . S
H69 C13 0.929 . S
H70 C14 0.930 . S
H71 C15 0.930 . S
H72 C18 0.930 . S
H73 C21 0.929 1_655 S
H74 C26 0.929 . S
H75 C27 0.930 . S
H76 C34 0.929 . S
H77 C35 0.930 . S
H78 C36 0.930 . S
H79 C37 0.930 . S
H80 C39 0.929 . S
H81 C40 0.930 . S
H82 C41 0.930 . S
H83 C42 0.930 . S
H84 C46 0.929 . S
H85 C48 0.930 1_655 S
H86 C54 0.929 . S
H87 C55 0.930 . S
Li88 N105 1.990 1_455 S
Li88 O148 1.956 . S
Li88 O149 1.970 . S
Li88 O150 1.961 . S
Li89 N113 1.990 . S
Li89 O148 1.970 . S
Li89 O149 1.956 . S
Li89 O151 1.961 . S
Li90 N135 1.990 . S
Li90 O148 1.961 . S
Li90 O150 1.956 . S
Li90 O151 1.970 . S
Li91 N141 1.990 . S
Li91 O149 1.961 . S
Li91 O150 1.970 . S
Li91 O151 1.956 . S
C92 C94 1.348 . S
C92 C95 1.356 . S
C92 O148 1.325 . S
N93 C96 1.314 . S
N93 C97 1.279 . S
C94 C92 1.348 . S
C94 C96 1.353 . S
C94 H152 0.929 . S
C95 C92 1.356 . S
C95 C97 1.358 . S
C95 H153 0.930 . S
C96 N93 1.314 . S
C96 C94 1.353 . S
C96 H154 0.930 . S
C97 N93 1.279 . S
C97 C95 1.358 . S
C97 H155 0.930 . S
C98 C101 1.348 1_455 S
C98 C102 1.356 . S
C98 O149 1.325 . S
C99 N100 1.279 . S
C99 C102 1.358 1_655 S
C99 H156 0.930 . S
N100 C99 1.279 . S
N100 C103 1.314 . S
C101 C98 1.348 1_655 S
C101 C103 1.353 . S
C101 H157 0.929 . S
C102 C98 1.356 . S
C102 C99 1.358 1_455 S
C102 H158 0.930 . S
C103 N100 1.314 . S
C103 C101 1.353 . S
C103 H159 0.930 . S
C104 N105 1.314 . S
C104 C109 1.353 . S
C104 H110 0.930 . S
N105 Li88 1.990 1_655 S
N105 C104 1.314 . S
N105 C107 1.279 . S
C106 C107 1.358 . S
C106 C108 1.356 . S
C106 H160 0.930 . S
C107 N105 1.279 . S
C107 C106 1.358 . S
C107 H111 0.930 . S
C108 C106 1.356 . S
C108 C109 1.348 . S
C109 C104 1.353 . S
C109 C108 1.348 . S
C109 H161 0.929 . S
H110 C104 0.930 . S
H111 C107 0.930 . S
C112 N113 1.314 . S
C112 C114 1.353 . S
C112 H118 0.930 . S
N113 Li89 1.990 . S
N113 C112 1.314 . S
N113 C116 1.279 . S
C114 C112 1.353 . S
C114 C117 1.348 . S
C114 H162 0.929 . S
C115 C116 1.358 . S
C115 C117 1.356 . S
C115 H163 0.930 . S
C116 N113 1.279 . S
C116 C115 1.358 . S
C116 H119 0.930 . S
C117 C114 1.348 . S
C117 C115 1.356 . S
H118 C112 0.930 . S
H119 C116 0.930 . S
C120 C122 1.348 . S
C120 C123 1.356 . S
C120 O150 1.325 . S
N121 C124 1.314 . S
N121 C125 1.279 . S
C122 C120 1.348 . S
C122 C124 1.353 . S
C122 H164 0.929 . S
C123 C120 1.356 . S
C123 C125 1.358 . S
C123 H165 0.930 . S
C124 N121 1.314 . S
C124 C122 1.353 . S
C124 H166 0.930 . S
C125 N121 1.279 . S
C125 C123 1.358 . S
C125 H167 0.930 . S
C126 C127 1.348 . S
C126 C128 1.356 . S
C126 O151 1.325 . S
C127 C126 1.348 . S
C127 C129 1.353 . S
C127 H168 0.929 . S
C128 C126 1.356 . S
C128 C130 1.358 . S
C128 H169 0.930 . S
C129 C127 1.353 . S
C129 N131 1.314 . S
C129 H170 0.930 . S
C130 C128 1.358 . S
C130 N131 1.279 . S
C130 H171 0.930 . S
N131 C129 1.314 . S
N131 C130 1.279 . S
C132 C134 1.353 . S
C132 N135 1.314 . S
C132 H138 0.930 . S
C133 N135 1.279 . S
C133 C136 1.358 . S
C133 H139 0.930 . S
C134 C132 1.353 . S
C134 C137 1.348 . S
C134 H172 0.929 . S
N135 Li90 1.990 . S
N135 C132 1.314 . S
N135 C133 1.279 . S
C136 C133 1.358 . S
C136 C137 1.356 . S
C136 H173 0.930 . S
C137 C134 1.348 . S
C137 C136 1.356 . S
H138 C132 0.930 . S
H139 C133 0.930 . S
C140 N141 1.314 . S
C140 C142 1.353 . S
C140 H146 0.930 . S
N141 Li91 1.990 . S
N141 C140 1.314 . S
N141 C144 1.279 . S
C142 C140 1.353 . S
C142 C145 1.348 . S
C142 H174 0.929 . S
C143 C144 1.358 . S
C143 C145 1.356 . S
C143 H175 0.930 . S
C144 N141 1.279 . S
C144 C143 1.358 . S
C144 H147 0.930 . S
C145 C142 1.348 . S
C145 C143 1.356 . S
H146 C140 0.930 . S
H147 C144 0.930 . S
O148 Li88 1.956 . S
O148 Li89 1.970 . S
O148 Li90 1.961 . S
O148 C92 1.325 . S
O149 Li88 1.970 . S
O149 Li89 1.956 . S
O149 Li91 1.961 . S
O149 C98 1.325 . S
O150 Li88 1.961 . S
O150 Li90 1.956 . S
O150 Li91 1.970 . S
O150 C120 1.325 . S
O151 Li89 1.961 . S
O151 Li90 1.970 . S
O151 Li91 1.956 . S
O151 C126 1.325 . S
H152 C94 0.929 . S
H153 C95 0.930 . S
H154 C96 0.930 . S
H155 C97 0.930 . S
H156 C99 0.930 . S
H157 C101 0.929 . S
H158 C102 0.930 . S
H159 C103 0.930 . S
H160 C106 0.930 . S
H161 C109 0.929 . S
H162 C114 0.929 . S
H163 C115 0.930 . S
H164 C122 0.929 . S
H165 C123 0.930 . S
H166 C124 0.930 . S
H167 C125 0.930 . S
H168 C127 0.929 . S
H169 C128 0.930 . S
H170 C129 0.930 . S
H171 C130 0.930 . S
H172 C134 0.929 . S
H173 C136 0.930 . S
H174 C142 0.929 . S
H175 C143 0.930 . S
Li176 N193 1.990 . S
Li176 O236 1.956 . S
Li176 O237 1.970 . S
Li176 O238 1.961 . S
Li177 N201 1.990 . S
Li177 O236 1.970 . S
Li177 O237 1.956 . S
Li177 O239 1.961 . S
Li178 N223 1.990 . S
Li178 O236 1.961 . S
Li178 O238 1.956 . S
Li178 O239 1.970 . S
Li179 N229 1.990 . S
Li179 O237 1.961 . S
Li179 O238 1.970 . S
Li179 O239 1.956 . S
C180 C182 1.348 . S
C180 C183 1.356 . S
C180 O236 1.325 . S
N181 C184 1.314 . S
N181 C185 1.279 . S
C182 C180 1.348 . S
C182 C184 1.353 . S
C182 H240 0.929 . S
C183 C180 1.356 . S
C183 C185 1.358 . S
C183 H241 0.930 . S
C184 N181 1.314 . S
C184 C182 1.353 . S
C184 H242 0.930 . S
C185 N181 1.279 . S
C185 C183 1.358 . S
C185 H243 0.930 . S
C186 C189 1.348 . S
C186 C190 1.356 . S
C186 O237 1.325 . S
C187 N188 1.279 . S
C187 C190 1.358 . S
C187 H244 0.930 . S
N188 C187 1.279 . S
N188 C191 1.314 . S
C189 C186 1.348 . S
C189 C191 1.353 . S
C189 H245 0.929 . S
C190 C186 1.356 . S
C190 C187 1.358 . S
C190 H246 0.930 . S
C191 N188 1.314 . S
C191 C189 1.353 . S
C191 H247 0.930 . S
C192 N193 1.314 . S
C192 C197 1.353 . S
C192 H198 0.930 . S
N193 Li176 1.990 . S
N193 C192 1.314 . S
N193 C195 1.279 . S
C194 C195 1.358 . S
C194 C196 1.356 . S
C194 H248 0.930 . S
C195 N193 1.279 . S
C195 C194 1.358 . S
C195 H199 0.930 . S
C196 C194 1.356 . S
C196 C197 1.348 . S
C197 C192 1.353 . S
C197 C196 1.348 . S
C197 H249 0.929 . S
H198 C192 0.930 . S
H199 C195 0.930 . S
C200 N201 1.314 . S
C200 C202 1.353 . S
C200 H206 0.930 . S
N201 Li177 1.990 . S
N201 C200 1.314 . S
N201 C204 1.279 . S
C202 C200 1.353 . S
C202 C205 1.348 . S
C202 H250 0.929 . S
C203 C204 1.358 . S
C203 C205 1.356 . S
C203 H251 0.930 . S
C204 N201 1.279 . S
C204 C203 1.358 . S
C204 H207 0.930 . S
C205 C202 1.348 . S
C205 C203 1.356 . S
H206 C200 0.930 . S
H207 C204 0.930 . S
C208 C210 1.348 . S
C208 C211 1.356 . S
C208 O238 1.325 . S
N209 C212 1.314 . S
N209 C213 1.279 . S
C210 C208 1.348 . S
C210 C212 1.353 . S
C210 H252 0.929 . S
C211 C208 1.356 . S
C211 C213 1.358 . S
C211 H253 0.930 . S
C212 N209 1.314 . S
C212 C210 1.353 . S
C212 H254 0.930 . S
C213 N209 1.279 . S
C213 C211 1.358 . S
C213 H255 0.930 . S
C214 C215 1.348 . S
C214 C216 1.356 . S
C214 O239 1.325 . S
C215 C214 1.348 . S
C215 C217 1.353 . S
C215 H256 0.929 . S
C216 C214 1.356 . S
C216 C218 1.358 . S
C216 H257 0.930 . S
C217 C215 1.353 . S
C217 N219 1.314 . S
C217 H258 0.930 . S
C218 C216 1.358 . S
C218 N219 1.279 . S
C218 H259 0.930 . S
N219 C217 1.314 . S
N219 C218 1.279 . S
C220 C222 1.353 . S
C220 N223 1.314 . S
C220 H226 0.930 . S
C221 N223 1.279 . S
C221 C224 1.358 . S
C221 H227 0.930 . S
C222 C220 1.353 . S
C222 C225 1.348 . S
C222 H260 0.929 . S
N223 Li178 1.990 . S
N223 C220 1.314 . S
N223 C221 1.279 . S
C224 C221 1.358 . S
C224 C225 1.356 . S
C224 H261 0.930 . S
C225 C222 1.348 . S
C225 C224 1.356 . S
H226 C220 0.930 . S
H227 C221 0.930 . S
C228 N229 1.314 . S
C228 C230 1.353 . S
C228 H234 0.930 . S
N229 Li179 1.990 . S
N229 C228 1.314 . S
N229 C232 1.279 . S
C230 C228 1.353 . S
C230 C233 1.348 . S
C230 H262 0.929 . S
C231 C232 1.358 . S
C231 C233 1.356 . S
C231 H263 0.930 . S
C232 N229 1.279 . S
C232 C231 1.358 . S
C232 H235 0.930 . S
C233 C230 1.348 . S
C233 C231 1.356 . S
H234 C228 0.930 . S
H235 C232 0.930 . S
O236 Li176 1.956 . S
O236 Li177 1.970 . S
O236 Li178 1.961 . S
O236 C180 1.325 . S
O237 Li176 1.970 . S
O237 Li177 1.956 . S
O237 Li179 1.961 . S
O237 C186 1.325 . S
O238 Li176 1.961 . S
O238 Li178 1.956 . S
O238 Li179 1.970 . S
O238 C208 1.325 . S
O239 Li177 1.961 . S
O239 Li178 1.970 . S
O239 Li179 1.956 . S
O239 C214 1.325 . S
H240 C182 0.929 . S
H241 C183 0.930 . S
H242 C184 0.930 . S
H243 C185 0.930 . S
H244 C187 0.930 . S
H245 C189 0.929 . S
H246 C190 0.930 . S
H247 C191 0.930 . S
H248 C194 0.930 . S
H249 C197 0.929 . S
H250 C202 0.929 . S
H251 C203 0.930 . S
H252 C210 0.929 . S
H253 C211 0.930 . S
H254 C212 0.930 . S
H255 C213 0.930 . S
H256 C215 0.929 . S
H257 C216 0.930 . S
H258 C217 0.930 . S
H259 C218 0.930 . S
H260 C222 0.929 . S
H261 C224 0.930 . S
H262 C230 0.929 . S
H263 C231 0.930 . S
Li264 N281 1.990 . S
Li264 O324 1.956 . S
Li264 O325 1.970 . S
Li264 O326 1.961 . S
Li265 N289 1.990 . S
Li265 O324 1.970 . S
Li265 O325 1.956 . S
Li265 O327 1.961 . S
Li266 N311 1.990 . S
Li266 O324 1.961 . S
Li266 O326 1.956 . S
Li266 O327 1.970 . S
Li267 N317 1.990 . S
Li267 O325 1.961 . S
Li267 O326 1.970 . S
Li267 O327 1.956 . S
C268 C270 1.348 . S
C268 C271 1.356 . S
C268 O324 1.325 . S
N269 C272 1.314 . S
N269 C273 1.279 . S
C270 C268 1.348 . S
C270 C272 1.353 . S
C270 H328 0.929 . S
C271 C268 1.356 . S
C271 C273 1.358 . S
C271 H329 0.930 . S
C272 N269 1.314 . S
C272 C270 1.353 . S
C272 H330 0.930 . S
C273 N269 1.279 . S
C273 C271 1.358 . S
C273 H331 0.930 . S
C274 C277 1.348 . S
C274 C278 1.356 . S
C274 O325 1.325 . S
C275 N276 1.279 . S
C275 C278 1.358 . S
C275 H332 0.930 . S
N276 C275 1.279 . S
N276 C279 1.314 . S
C277 C274 1.348 . S
C277 C279 1.353 . S
C277 H333 0.929 . S
C278 C274 1.356 . S
C278 C275 1.358 . S
C278 H334 0.930 . S
C279 N276 1.314 . S
C279 C277 1.353 . S
C279 H335 0.930 . S
C280 N281 1.314 . S
C280 C285 1.353 . S
C280 H286 0.930 . S
N281 Li264 1.990 . S
N281 C280 1.314 . S
N281 C283 1.279 . S
C282 C283 1.358 . S
C282 C284 1.356 . S
C282 H336 0.930 . S
C283 N281 1.279 . S
C283 C282 1.358 . S
C283 H287 0.930 . S
C284 C282 1.356 . S
C284 C285 1.348 . S
C285 C280 1.353 . S
C285 C284 1.348 . S
C285 H337 0.929 . S
H286 C280 0.930 . S
H287 C283 0.930 . S
C288 N289 1.314 . S
C288 C290 1.353 . S
C288 H294 0.930 . S
N289 Li265 1.990 . S
N289 C288 1.314 . S
N289 C292 1.279 . S
C290 C288 1.353 . S
C290 C293 1.348 . S
C290 H338 0.929 . S
C291 C292 1.358 . S
C291 C293 1.356 . S
C291 H339 0.930 . S
C292 N289 1.279 . S
C292 C291 1.358 . S
C292 H295 0.930 . S
C293 C290 1.348 . S
C293 C291 1.356 . S
H294 C288 0.930 . S
H295 C292 0.930 . S
C296 C298 1.348 . S
C296 C299 1.356 . S
C296 O326 1.325 . S
N297 C300 1.314 . S
N297 C301 1.279 . S
C298 C296 1.348 . S
C298 C300 1.353 . S
C298 H340 0.929 . S
C299 C296 1.356 . S
C299 C301 1.358 . S
C299 H341 0.930 . S
C300 N297 1.314 . S
C300 C298 1.353 . S
C300 H342 0.930 . S
C301 N297 1.279 . S
C301 C299 1.358 . S
C301 H343 0.930 . S
C302 C303 1.348 . S
C302 C304 1.356 . S
C302 O327 1.325 . S
C303 C302 1.348 . S
C303 C305 1.353 . S
C303 H344 0.929 . S
C304 C302 1.356 . S
C304 C306 1.358 . S
C304 H345 0.930 . S
C305 C303 1.353 . S
C305 N307 1.314 . S
C305 H346 0.930 . S
C306 C304 1.358 . S
C306 N307 1.279 . S
C306 H347 0.930 . S
N307 C305 1.314 . S
N307 C306 1.279 . S
C308 C310 1.353 . S
C308 N311 1.314 . S
C308 H314 0.930 . S
C309 N311 1.279 . S
C309 C312 1.358 . S
C309 H315 0.930 . S
C310 C308 1.353 . S
C310 C313 1.348 . S
C310 H348 0.929 . S
N311 Li266 1.990 . S
N311 C308 1.314 . S
N311 C309 1.279 . S
C312 C309 1.358 . S
C312 C313 1.356 . S
C312 H349 0.930 . S
C313 C310 1.348 . S
C313 C312 1.356 . S
H314 C308 0.930 . S
H315 C309 0.930 . S
C316 N317 1.314 . S
C316 C318 1.353 . S
C316 H322 0.930 . S
N317 Li267 1.990 . S
N317 C316 1.314 . S
N317 C320 1.279 . S
C318 C316 1.353 . S
C318 C321 1.348 . S
C318 H350 0.929 . S
C319 C320 1.358 . S
C319 C321 1.356 . S
C319 H351 0.930 . S
C320 N317 1.279 . S
C320 C319 1.358 . S
C320 H323 0.930 . S
C321 C318 1.348 . S
C321 C319 1.356 . S
H322 C316 0.930 . S
H323 C320 0.930 . S
O324 Li264 1.956 . S
O324 Li265 1.970 . S
O324 Li266 1.961 . S
O324 C268 1.325 . S
O325 Li264 1.970 . S
O325 Li265 1.956 . S
O325 Li267 1.961 . S
O325 C274 1.325 . S
O326 Li264 1.961 . S
O326 Li266 1.956 . S
O326 Li267 1.970 . S
O326 C296 1.325 . S
O327 Li265 1.961 . S
O327 Li266 1.970 . S
O327 Li267 1.956 . S
O327 C302 1.325 . S
H328 C270 0.929 . S
H329 C271 0.930 . S
H330 C272 0.930 . S
H331 C273 0.930 . S
H332 C275 0.930 . S
H333 C277 0.929 . S
H334 C278 0.930 . S
H335 C279 0.930 . S
H336 C282 0.930 . S
H337 C285 0.929 . S
H338 C290 0.929 . S
H339 C291 0.930 . S
H340 C298 0.929 . S
H341 C299 0.930 . S
H342 C300 0.930 . S
H343 C301 0.930 . S
H344 C303 0.929 . S
H345 C304 0.930 . S
H346 C305 0.930 . S
H347 C306 0.930 . S
H348 C310 0.929 . S
H349 C312 0.930 . S
H350 C318 0.929 . S
H351 C319 0.930 . S
Li352 N369 1.990 . S
Li352 O412 1.956 . S
Li352 O413 1.970 . S
Li352 O414 1.961 1_545 S
Li353 N377 1.990 . S
Li353 O412 1.970 . S
Li353 O413 1.956 . S
Li353 O415 1.961 . S
Li354 N399 1.990 . S
Li354 O412 1.961 . S
Li354 O414 1.956 1_545 S
Li354 O415 1.970 . S
Li355 N405 1.990 . S
Li355 O413 1.961 1_565 S
Li355 O414 1.970 . S
Li355 O415 1.956 1_565 S
C356 C358 1.348 . S
C356 C359 1.356 . S
C356 O412 1.325 . S
N357 C360 1.314 . S
N357 C361 1.279 . S
C358 C356 1.348 . S
C358 C360 1.353 . S
C358 H416 0.929 . S
C359 C356 1.356 . S
C359 C361 1.358 . S
C359 H417 0.930 . S
C360 N357 1.314 . S
C360 C358 1.353 . S
C360 H418 0.930 . S
C361 N357 1.279 . S
C361 C359 1.358 . S
C361 H419 0.930 . S
C362 C365 1.348 . S
C362 C366 1.356 . S
C362 O413 1.325 . S
C363 N364 1.279 . S
C363 C366 1.358 . S
C363 H420 0.925 1_545 S
N364 C363 1.279 . S
N364 C367 1.314 . S
C365 C362 1.348 . S
C365 C367 1.353 . S
C365 H421 0.929 . S
C366 C362 1.356 . S
C366 C363 1.358 . S
C366 H422 0.928 1_545 S
C367 N364 1.314 . S
C367 C365 1.353 . S
C367 H423 0.930 . S
C368 N369 1.314 1_565 S
C368 C373 1.353 . S
C368 H374 0.930 . S
N369 Li352 1.990 . S
N369 C368 1.314 1_545 S
N369 C371 1.279 . S
C370 C371 1.358 . S
C370 C372 1.356 . S
C370 H424 0.930 . S
C371 N369 1.279 . S
C371 C370 1.358 . S
C371 H375 0.930 . S
C372 C370 1.356 . S
C372 C373 1.348 1_545 S
C373 C368 1.353 . S
C373 C372 1.348 1_565 S
C373 H425 0.929 . S
H374 C368 0.930 . S
H375 C371 0.930 . S
C376 N377 1.314 . S
C376 C378 1.353 . S
C376 H382 0.930 . S
N377 Li353 1.990 . S
N377 C376 1.314 . S
N377 C380 1.279 . S
C378 C376 1.353 . S
C378 C381 1.348 . S
C378 H426 0.929 . S
C379 C380 1.358 . S
C379 C381 1.356 . S
C379 H427 0.930 . S
C380 N377 1.279 . S
C380 C379 1.358 . S
C380 H383 0.930 . S
C381 C378 1.348 . S
C381 C379 1.356 . S
H382 C376 0.930 . S
H383 C380 0.930 . S
C384 C386 1.348 . S
C384 C387 1.356 . S
C384 O414 1.325 . S
N385 C388 1.314 . S
N385 C389 1.279 . S
C386 C384 1.348 . S
C386 C388 1.353 . S
C386 H428 0.929 . S
C387 C384 1.356 . S
C387 C389 1.358 . S
C387 H429 0.930 . S
C388 N385 1.314 . S
C388 C386 1.353 . S
C388 H430 0.930 . S
C389 N385 1.279 . S
C389 C387 1.358 . S
C389 H431 0.930 . S
C390 C391 1.348 . S
C390 C392 1.356 . S
C390 O415 1.325 . S
C391 C390 1.348 . S
C391 C393 1.353 . S
C391 H432 0.929 1_545 S
C392 C390 1.356 . S
C392 C394 1.358 . S
C392 H433 0.930 . S
C393 C391 1.353 . S
C393 N395 1.314 . S
C393 H434 0.930 1_545 S
C394 C392 1.358 . S
C394 N395 1.279 . S
C394 H435 0.930 . S
N395 C393 1.314 . S
N395 C394 1.279 . S
C396 C398 1.353 . S
C396 N399 1.314 . S
C396 H402 0.930 . S
C397 N399 1.279 1_565 S
C397 C400 1.358 . S
C397 H403 0.930 . S
C398 C396 1.353 . S
C398 C401 1.348 . S
C398 H436 0.929 . S
N399 Li354 1.990 . S
N399 C396 1.314 . S
N399 C397 1.279 1_545 S
C400 C397 1.358 . S
C400 C401 1.356 1_565 S
C400 H437 0.930 . S
C401 C398 1.348 . S
C401 C400 1.356 1_545 S
H402 C396 0.930 . S
H403 C397 0.930 . S
C404 N405 1.314 . S
C404 C406 1.353 . S
C404 H410 0.930 . S
N405 Li355 1.990 . S
N405 C404 1.314 . S
N405 C408 1.279 . S
C406 C404 1.353 . S
C406 C409 1.348 . S
C406 H438 0.929 . S
C407 C408 1.358 . S
C407 C409 1.356 . S
C407 H439 0.930 . S
C408 N405 1.279 . S
C408 C407 1.358 . S
C408 H411 0.930 . S
C409 C406 1.348 . S
C409 C407 1.356 . S
H410 C404 0.930 . S
H411 C408 0.930 . S
O412 Li352 1.956 . S
O412 Li353 1.970 . S
O412 Li354 1.961 . S
O412 C356 1.325 . S
O413 Li352 1.970 . S
O413 Li353 1.956 . S
O413 Li355 1.961 1_545 S
O413 C362 1.325 . S
O414 Li352 1.961 1_565 S
O414 Li354 1.956 1_565 S
O414 Li355 1.970 . S
O414 C384 1.325 . S
O415 Li353 1.961 . S
O415 Li354 1.970 . S
O415 Li355 1.956 1_545 S
O415 C390 1.325 . S
H416 C358 0.929 . S
H417 C359 0.930 . S
H418 C360 0.930 . S
H419 C361 0.930 . S
H420 C363 0.925 1_565 S
H421 C365 0.929 . S
H422 C366 0.928 1_565 S
H423 C367 0.930 . S
H424 C370 0.930 . S
H425 C373 0.929 . S
H426 C378 0.929 . S
H427 C379 0.930 . S
H428 C386 0.929 . S
H429 C387 0.930 . S
H430 C388 0.930 . S
H431 C389 0.930 . S
H432 C391 0.929 1_565 S
H433 C392 0.930 . S
H434 C393 0.930 1_565 S
H435 C394 0.930 . S
H436 C398 0.929 . S
H437 C400 0.930 . S
H438 C406 0.929 . S
H439 C407 0.930 . S
Li440 N457 1.990 . S
Li440 O500 1.956 . S
Li440 O501 1.970 . S
Li440 O502 1.961 . S
Li441 N465 1.990 . S
Li441 O500 1.970 . S
Li441 O501 1.956 . S
Li441 O503 1.961 . S
Li442 N487 1.990 . S
Li442 O500 1.961 . S
Li442 O502 1.956 . S
Li442 O503 1.970 . S
Li443 N493 1.990 . S
Li443 O501 1.961 . S
Li443 O502 1.970 . S
Li443 O503 1.956 . S
C444 C446 1.348 . S
C444 C447 1.356 . S
C444 O500 1.325 . S
N445 C448 1.314 . S
N445 C449 1.279 . S
C446 C444 1.348 . S
C446 C448 1.353 . S
C446 H504 0.929 . S
C447 C444 1.356 . S
C447 C449 1.358 . S
C447 H505 0.930 . S
C448 N445 1.314 . S
C448 C446 1.353 . S
C448 H506 0.930 . S
C449 N445 1.279 . S
C449 C447 1.358 . S
C449 H507 0.930 . S
C450 C453 1.348 . S
C450 C454 1.356 . S
C450 O501 1.325 . S
C451 N452 1.279 . S
C451 C454 1.358 . S
C451 H508 0.930 . S
N452 C451 1.279 . S
N452 C455 1.314 . S
C453 C450 1.348 . S
C453 C455 1.353 . S
C453 H509 0.929 . S
C454 C450 1.356 . S
C454 C451 1.358 . S
C454 H510 0.930 . S
C455 N452 1.314 . S
C455 C453 1.353 . S
C455 H511 0.930 . S
C456 N457 1.314 . S
C456 C461 1.353 . S
C456 H462 0.930 . S
N457 Li440 1.990 . S
N457 C456 1.314 . S
N457 C459 1.279 . S
C458 C459 1.358 . S
C458 C460 1.356 . S
C458 H512 0.930 . S
C459 N457 1.279 . S
C459 C458 1.358 . S
C459 H463 0.930 . S
C460 C458 1.356 . S
C460 C461 1.348 . S
C461 C456 1.353 . S
C461 C460 1.348 . S
C461 H513 0.929 . S
H462 C456 0.930 . S
H463 C459 0.930 . S
C464 N465 1.314 . S
C464 C466 1.353 . S
C464 H470 0.930 . S
N465 Li441 1.990 . S
N465 C464 1.314 . S
N465 C468 1.279 . S
C466 C464 1.353 . S
C466 C469 1.348 . S
C466 H514 0.929 . S
C467 C468 1.358 . S
C467 C469 1.356 . S
C467 H515 0.930 . S
C468 N465 1.279 . S
C468 C467 1.358 . S
C468 H471 0.930 . S
C469 C466 1.348 . S
C469 C467 1.356 . S
H470 C464 0.930 . S
H471 C468 0.930 . S
C472 C474 1.348 . S
C472 C475 1.356 . S
C472 O502 1.325 . S
N473 C476 1.314 . S
N473 C477 1.279 . S
C474 C472 1.348 . S
C474 C476 1.353 . S
C474 H516 0.929 . S
C475 C472 1.356 . S
C475 C477 1.358 . S
C475 H517 0.930 . S
C476 N473 1.314 . S
C476 C474 1.353 . S
C476 H518 0.930 . S
C477 N473 1.279 . S
C477 C475 1.358 . S
C477 H519 0.930 . S
C478 C479 1.348 . S
C478 C480 1.356 . S
C478 O503 1.325 . S
C479 C478 1.348 . S
C479 C481 1.353 . S
C479 H520 0.929 . S
C480 C478 1.356 . S
C480 C482 1.358 . S
C480 H521 0.930 . S
C481 C479 1.353 . S
C481 N483 1.314 . S
C481 H522 0.930 . S
C482 C480 1.358 . S
C482 N483 1.279 . S
C482 H523 0.930 . S
N483 C481 1.314 . S
N483 C482 1.279 . S
C484 C486 1.353 . S
C484 N487 1.314 . S
C484 H490 0.930 . S
C485 N487 1.279 . S
C485 C488 1.358 . S
C485 H491 0.930 . S
C486 C484 1.353 . S
C486 C489 1.348 . S
C486 H524 0.929 . S
N487 Li442 1.990 . S
N487 C484 1.314 . S
N487 C485 1.279 . S
C488 C485 1.358 . S
C488 C489 1.356 . S
C488 H525 0.930 . S
C489 C486 1.348 . S
C489 C488 1.356 . S
H490 C484 0.930 . S
H491 C485 0.930 . S
C492 N493 1.314 . S
C492 C494 1.353 . S
C492 H498 0.930 . S
N493 Li443 1.990 . S
N493 C492 1.314 . S
N493 C496 1.279 . S
C494 C492 1.353 . S
C494 C497 1.348 . S
C494 H526 0.929 . S
C495 C496 1.358 . S
C495 C497 1.356 . S
C495 H527 0.930 . S
C496 N493 1.279 . S
C496 C495 1.358 . S
C496 H499 0.930 . S
C497 C494 1.348 . S
C497 C495 1.356 . S
H498 C492 0.930 . S
H499 C496 0.930 . S
O500 Li440 1.956 . S
O500 Li441 1.970 . S
O500 Li442 1.961 . S
O500 C444 1.325 . S
O501 Li440 1.970 . S
O501 Li441 1.956 . S
O501 Li443 1.961 . S
O501 C450 1.325 . S
O502 Li440 1.961 . S
O502 Li442 1.956 . S
O502 Li443 1.970 . S
O502 C472 1.325 . S
O503 Li441 1.961 . S
O503 Li442 1.970 . S
O503 Li443 1.956 . S
O503 C478 1.325 . S
H504 C446 0.929 . S
H505 C447 0.930 . S
H506 C448 0.930 . S
H507 C449 0.930 . S
H508 C451 0.930 . S
H509 C453 0.929 . S
H510 C454 0.930 . S
H511 C455 0.930 . S
H512 C458 0.930 . S
H513 C461 0.929 . S
H514 C466 0.929 . S
H515 C467 0.930 . S
H516 C474 0.929 . S
H517 C475 0.930 . S
H518 C476 0.930 . S
H519 C477 0.930 . S
H520 C479 0.929 . S
H521 C480 0.930 . S
H522 C481 0.930 . S
H523 C482 0.930 . S
H524 C486 0.929 . S
H525 C488 0.930 . S
H526 C494 0.929 . S
H527 C495 0.930 . S
Li528 N545 1.990 . S
Li528 O588 1.956 . S
Li528 O589 1.970 . S
Li528 O590 1.961 . S
Li529 N553 1.990 . S
Li529 O588 1.970 . S
Li529 O589 1.956 . S
Li529 O591 1.961 . S
Li530 N575 1.990 . S
Li530 O588 1.961 . S
Li530 O590 1.956 . S
Li530 O591 1.970 . S
Li531 N581 1.990 . S
Li531 O589 1.961 . S
Li531 O590 1.970 . S
Li531 O591 1.956 . S
C532 C534 1.348 . S
C532 C535 1.356 . S
C532 O588 1.325 . S
N533 C536 1.314 . S
N533 C537 1.279 . S
C534 C532 1.348 . S
C534 C536 1.353 . S
C534 H592 0.929 . S
C535 C532 1.356 . S
C535 C537 1.358 . S
C535 H593 0.930 . S
C536 N533 1.314 . S
C536 C534 1.353 . S
C536 H594 0.930 . S
C537 N533 1.279 . S
C537 C535 1.358 . S
C537 H595 0.930 . S
C538 C541 1.348 1_545 S
C538 C542 1.356 . S
C538 O589 1.325 . S
C539 N540 1.279 . S
C539 C542 1.358 1_565 S
C539 H596 0.930 . S
N540 C539 1.279 . S
N540 C543 1.314 . S
C541 C538 1.348 1_565 S
C541 C543 1.353 . S
C541 H597 0.929 . S
C542 C538 1.356 . S
C542 C539 1.358 1_545 S
C542 H598 0.930 . S
C543 N540 1.314 . S
C543 C541 1.353 . S
C543 H599 0.930 . S
C544 N545 1.314 1_565 S
C544 C549 1.353 . S
C544 H550 0.930 . S
N545 Li528 1.990 . S
N545 C544 1.314 1_545 S
N545 C547 1.279 1_545 S
C546 C547 1.358 . S
C546 C548 1.356 . S
C546 H600 0.930 . S
C547 N545 1.279 1_565 S
C547 C546 1.358 . S
C547 H551 0.930 1_565 S
C548 C546 1.356 . S
C548 C549 1.348 . S
C549 C544 1.353 . S
C549 C548 1.348 . S
C549 H601 0.929 . S
H550 C544 0.930 . S
H551 C547 0.930 1_545 S
C552 N553 1.314 . S
C552 C554 1.353 . S
C552 H558 0.930 . S
N553 Li529 1.990 . S
N553 C552 1.314 . S
N553 C556 1.279 . S
C554 C552 1.353 . S
C554 C557 1.348 . S
C554 H602 0.929 . S
C555 C556 1.358 . S
C555 C557 1.356 . S
C555 H603 0.930 . S
C556 N553 1.279 . S
C556 C555 1.358 . S
C556 H559 0.930 . S
C557 C554 1.348 . S
C557 C555 1.356 . S
H558 C552 0.930 . S
H559 C556 0.930 . S
C560 C562 1.348 . S
C560 C563 1.356 . S
C560 O590 1.325 . S
N561 C564 1.314 . S
N561 C565 1.279 . S
C562 C560 1.348 . S
C562 C564 1.353 . S
C562 H604 0.929 . S
C563 C560 1.356 . S
C563 C565 1.358 . S
C563 H605 0.930 . S
C564 N561 1.314 . S
C564 C562 1.353 . S
C564 H606 0.930 . S
C565 N561 1.279 . S
C565 C563 1.358 . S
C565 H607 0.930 . S
C566 C567 1.348 . S
C566 C568 1.356 . S
C566 O591 1.325 . S
C567 C566 1.348 . S
C567 C569 1.353 . S
C567 H608 0.929 . S
C568 C566 1.356 . S
C568 C570 1.358 . S
C568 H609 0.930 . S
C569 C567 1.353 . S
C569 N571 1.314 . S
C569 H610 0.930 . S
C570 C568 1.358 . S
C570 N571 1.279 . S
C570 H611 0.930 . S
N571 C569 1.314 . S
N571 C570 1.279 . S
C572 C574 1.353 . S
C572 N575 1.314 . S
C572 H578 0.930 . S
C573 N575 1.279 . S
C573 C576 1.358 . S
C573 H579 0.930 . S
C574 C572 1.353 . S
C574 C577 1.348 . S
C574 H612 0.929 . S
N575 Li530 1.990 . S
N575 C572 1.314 . S
N575 C573 1.279 . S
C576 C573 1.358 . S
C576 C577 1.356 . S
C576 H613 0.930 . S
C577 C574 1.348 . S
C577 C576 1.356 . S
H578 C572 0.930 . S
H579 C573 0.930 . S
C580 N581 1.314 . S
C580 C582 1.353 . S
C580 H586 0.930 . S
N581 Li531 1.990 . S
N581 C580 1.314 . S
N581 C584 1.279 . S
C582 C580 1.353 . S
C582 C585 1.348 . S
C582 H614 0.929 . S
C583 C584 1.358 . S
C583 C585 1.356 . S
C583 H615 0.930 . S
C584 N581 1.279 . S
C584 C583 1.358 . S
C584 H587 0.930 . S
C585 C582 1.348 . S
C585 C583 1.356 . S
H586 C580 0.930 . S
H587 C584 0.930 . S
O588 Li528 1.956 . S
O588 Li529 1.970 . S
O588 Li530 1.961 . S
O588 C532 1.325 . S
O589 Li528 1.970 . S
O589 Li529 1.956 . S
O589 Li531 1.961 . S
O589 C538 1.325 . S
O590 Li528 1.961 . S
O590 Li530 1.956 . S
O590 Li531 1.970 . S
O590 C560 1.325 . S
O591 Li529 1.961 . S
O591 Li530 1.970 . S
O591 Li531 1.956 . S
O591 C566 1.325 . S
H592 C534 0.929 . S
H593 C535 0.930 . S
H594 C536 0.930 . S
H595 C537 0.930 . S
H596 C539 0.930 . S
H597 C541 0.929 . S
H598 C542 0.930 . S
H599 C543 0.930 . S
H600 C546 0.930 . S
H601 C549 0.929 . S
H602 C554 0.929 . S
H603 C555 0.930 . S
H604 C562 0.929 . S
H605 C563 0.930 . S
H606 C564 0.930 . S
H607 C565 0.930 . S
H608 C567 0.929 . S
H609 C568 0.930 . S
H610 C569 0.930 . S
H611 C570 0.930 . S
H612 C574 0.929 . S
H613 C576 0.930 . S
H614 C582 0.929 . S
H615 C583 0.930 . S
Li616 N633 1.990 . S
Li616 O676 1.956 . S
Li616 O677 1.970 . S
Li616 O678 1.961 . S
Li617 N641 1.990 . S
Li617 O676 1.970 . S
Li617 O677 1.956 . S
Li617 O679 1.961 . S
Li618 N663 1.990 1_554 S
Li618 O676 1.961 . S
Li618 O678 1.956 . S
Li618 O679 1.970 . S
Li619 N669 1.990 . S
Li619 O677 1.961 . S
Li619 O678 1.970 . S
Li619 O679 1.956 . S
C620 C622 1.348 . S
C620 C623 1.356 . S
C620 O676 1.325 . S
N621 C624 1.314 . S
N621 C625 1.279 . S
C622 C620 1.348 . S
C622 C624 1.353 . S
C622 H680 0.929 . S
C623 C620 1.356 . S
C623 C625 1.358 . S
C623 H681 0.930 . S
C624 N621 1.314 . S
C624 C622 1.353 . S
C624 H682 0.930 . S
C625 N621 1.279 . S
C625 C623 1.358 . S
C625 H683 0.930 . S
C626 C629 1.348 . S
C626 C630 1.356 . S
C626 O677 1.325 . S
C627 N628 1.279 . S
C627 C630 1.358 . S
C627 H684 0.930 . S
N628 C627 1.279 . S
N628 C631 1.314 . S
C629 C626 1.348 . S
C629 C631 1.353 . S
C629 H685 0.929 . S
C630 C626 1.356 . S
C630 C627 1.358 . S
C630 H686 0.930 . S
C631 N628 1.314 . S
C631 C629 1.353 . S
C631 H687 0.930 . S
C632 N633 1.314 . S
C632 C637 1.353 . S
C632 H638 0.930 . S
N633 Li616 1.990 . S
N633 C632 1.314 . S
N633 C635 1.279 . S
C634 C635 1.358 . S
C634 C636 1.356 . S
C634 H688 0.930 . S
C635 N633 1.279 . S
C635 C634 1.358 . S
C635 H639 0.930 . S
C636 C634 1.356 . S
C636 C637 1.348 . S
C637 C632 1.353 . S
C637 C636 1.348 . S
C637 H689 0.929 . S
H638 C632 0.930 . S
H639 C635 0.930 . S
C640 N641 1.314 . S
C640 C642 1.353 . S
C640 H646 0.930 1_554 S
N641 Li617 1.990 . S
N641 C640 1.314 . S
N641 C644 1.279 . S
C642 C640 1.353 . S
C642 C645 1.348 . S
C642 H690 0.929 1_554 S
C643 C644 1.358 . S
C643 C645 1.356 . S
C643 H691 0.930 . S
C644 N641 1.279 . S
C644 C643 1.358 . S
C644 H647 0.930 . S
C645 C642 1.348 . S
C645 C643 1.356 . S
H646 C640 0.930 1_556 S
H647 C644 0.930 . S
C648 C650 1.348 . S
C648 C651 1.356 . S
C648 O678 1.325 . S
N649 C652 1.314 . S
N649 C653 1.279 . S
C650 C648 1.348 . S
C650 C652 1.353 . S
C650 H692 0.929 . S
C651 C648 1.356 . S
C651 C653 1.358 . S
C651 H693 0.930 . S
C652 N649 1.314 . S
C652 C650 1.353 . S
C652 H694 0.930 . S
C653 N649 1.279 . S
C653 C651 1.358 . S
C653 H695 0.930 . S
C654 C655 1.348 . S
C654 C656 1.356 . S
C654 O679 1.325 1_556 S
C655 C654 1.348 . S
C655 C657 1.353 . S
C655 H696 0.929 . S
C656 C654 1.356 . S
C656 C658 1.358 . S
C656 H697 0.930 1_556 S
C657 C655 1.353 . S
C657 N659 1.314 . S
C657 H698 0.930 . S
C658 C656 1.358 . S
C658 N659 1.279 . S
C658 H699 0.930 . S
N659 C657 1.314 . S
N659 C658 1.279 . S
C660 C662 1.353 . S
C660 N663 1.314 . S
C660 H666 0.930 . S
C661 N663 1.279 . S
C661 C664 1.358 . S
C661 H667 0.930 . S
C662 C660 1.353 . S
C662 C665 1.348 . S
C662 H700 0.929 . S
N663 Li618 1.990 1_556 S
N663 C660 1.314 . S
N663 C661 1.279 . S
C664 C661 1.358 . S
C664 C665 1.356 . S
C664 H701 0.930 . S
C665 C662 1.348 . S
C665 C664 1.356 . S
H666 C660 0.930 . S
H667 C661 0.930 . S
C668 N669 1.314 . S
C668 C670 1.353 . S
C668 H674 0.930 . S
N669 Li619 1.990 . S
N669 C668 1.314 . S
N669 C672 1.279 . S
C670 C668 1.353 . S
C670 C673 1.348 . S
C670 H702 0.929 . S
C671 C672 1.358 . S
C671 C673 1.356 . S
C671 H703 0.930 1_554 S
C672 N669 1.279 . S
C672 C671 1.358 . S
C672 H675 0.930 1_554 S
C673 C670 1.348 . S
C673 C671 1.356 . S
H674 C668 0.930 . S
H675 C672 0.930 1_556 S
O676 Li616 1.956 . S
O676 Li617 1.970 . S
O676 Li618 1.961 . S
O676 C620 1.325 . S
O677 Li616 1.970 . S
O677 Li617 1.956 . S
O677 Li619 1.961 . S
O677 C626 1.325 . S
O678 Li616 1.961 . S
O678 Li618 1.956 . S
O678 Li619 1.970 . S
O678 C648 1.325 . S
O679 Li617 1.961 . S
O679 Li618 1.970 . S
O679 Li619 1.956 . S
O679 C654 1.325 1_554 S
H680 C622 0.929 . S
H681 C623 0.930 . S
H682 C624 0.930 . S
H683 C625 0.930 . S
H684 C627 0.930 . S
H685 C629 0.929 . S
H686 C630 0.930 . S
H687 C631 0.930 . S
H688 C634 0.930 . S
H689 C637 0.929 . S
H690 C642 0.929 1_556 S
H691 C643 0.930 . S
H692 C650 0.929 . S
H693 C651 0.930 . S
H694 C652 0.930 . S
H695 C653 0.930 . S
H696 C655 0.929 . S
H697 C656 0.930 1_554 S
H698 C657 0.930 . S
H699 C658 0.930 . S
H700 C662 0.929 . S
H701 C664 0.930 . S
H702 C670 0.929 . S
H703 C671 0.930 1_556 S
Li704 N721 1.990 . S
Li704 O764 1.956 . S
Li704 O765 1.970 . S
Li704 O766 1.961 . S
Li705 N729 1.990 . S
Li705 O764 1.970 . S
Li705 O765 1.956 . S
Li705 O767 1.961 . S
Li706 N751 1.990 . S
Li706 O764 1.961 . S
Li706 O766 1.956 . S
Li706 O767 1.970 . S
Li707 N757 2.010 . S
Li707 O765 1.961 . S
Li707 O766 1.970 . S
Li707 O767 1.956 . S
C708 C710 1.348 . S
C708 C711 1.356 . S
C708 O764 1.325 . S
N709 C712 1.314 . S
N709 C713 1.279 . S
C710 C708 1.348 . S
C710 C712 1.353 . S
C710 H768 0.929 . S
C711 C708 1.356 . S
C711 C713 1.358 . S
C711 H769 0.930 . S
C712 N709 1.314 . S
C712 C710 1.353 . S
C712 H770 0.930 . S
C713 N709 1.279 . S
C713 C711 1.358 . S
C713 H771 0.930 . S
C714 C717 1.348 . S
C714 C718 1.356 . S
C714 O765 1.325 . S
C715 N716 1.279 . S
C715 C718 1.358 . S
C715 H772 0.930 . S
N716 C715 1.279 . S
N716 C719 1.314 . S
C717 C714 1.348 . S
C717 C719 1.353 . S
C717 H773 0.929 . S
C718 C714 1.356 . S
C718 C715 1.358 . S
C718 H774 0.930 . S
C719 N716 1.314 . S
C719 C717 1.353 . S
C719 H775 0.930 . S
C720 N721 1.314 . S
C720 C725 1.353 . S
C720 H726 0.930 . S
N721 Li704 1.990 . S
N721 C720 1.314 . S
N721 C723 1.279 . S
C722 C723 1.358 . S
C722 C724 1.356 . S
C722 H776 0.930 . S
C723 N721 1.279 . S
C723 C722 1.358 . S
C723 H727 0.930 . S
C724 C722 1.356 . S
C724 C725 1.348 . S
C725 C720 1.353 . S
C725 C724 1.348 . S
C725 H777 0.929 . S
H726 C720 0.930 . S
H727 C723 0.930 . S
C728 N729 1.314 . S
C728 C730 1.353 . S
C728 H734 0.930 . S
N729 Li705 1.990 . S
N729 C728 1.314 . S
N729 C732 1.279 . S
C730 C728 1.353 . S
C730 C733 1.348 . S
C730 H778 0.929 . S
C731 C732 1.358 . S
C731 C733 1.356 . S
C731 H779 0.930 . S
C732 N729 1.279 . S
C732 C731 1.358 . S
C732 H735 0.930 . S
C733 C730 1.348 . S
C733 C731 1.356 . S
H734 C728 0.930 . S
H735 C732 0.930 . S
C736 C738 1.348 1_554 S
C736 C739 1.356 . S
C736 O766 1.325 . S
N737 C740 1.314 . S
N737 C741 1.279 . S
C738 C736 1.348 1_556 S
C738 C740 1.353 . S
C738 H780 0.929 . S
C739 C736 1.356 . S
C739 C741 1.358 1_554 S
C739 H781 0.930 . S
C740 N737 1.314 . S
C740 C738 1.353 . S
C740 H782 0.930 . S
C741 N737 1.279 . S
C741 C739 1.358 1_556 S
C741 H783 0.930 . S
C742 C743 1.348 . S
C742 C744 1.356 . S
C742 O767 1.325 . S
C743 C742 1.348 . S
C743 C745 1.353 . S
C743 H784 0.929 . S
C744 C742 1.356 . S
C744 C746 1.358 . S
C744 H785 0.930 . S
C745 C743 1.353 . S
C745 N747 1.314 . S
C745 H786 0.930 . S
C746 C744 1.358 . S
C746 N747 1.279 . S
C746 H787 0.930 . S
N747 C745 1.314 . S
N747 C746 1.279 . S
C748 C750 1.353 . S
C748 N751 1.314 . S
C748 H754 0.930 . S
C749 N751 1.279 . S
C749 C752 1.358 . S
C749 H755 0.930 . S
C750 C748 1.353 . S
C750 C753 1.348 . S
C750 H788 0.929 . S
N751 Li706 1.990 . S
N751 C748 1.314 . S
N751 C749 1.279 . S
C752 C749 1.358 . S
C752 C753 1.356 . S
C752 H789 0.930 . S
C753 C750 1.348 . S
C753 C752 1.356 . S
H754 C748 0.930 . S
H755 C749 0.930 . S
C756 N757 1.300 1_556 S
C756 C758 1.353 . S
C756 H762 0.930 . S
N757 Li707 2.010 . S
N757 C756 1.300 1_554 S
N757 C760 1.270 1_554 S
C758 C756 1.353 . S
C758 C761 1.348 . S
C758 H790 0.929 . S
C759 C760 1.358 . S
C759 C761 1.356 . S
C759 H791 0.930 . S
C760 N757 1.270 1_556 S
C760 C759 1.358 . S
C760 H763 0.931 1_556 S
C761 C758 1.348 . S
C761 C759 1.356 . S
H762 C756 0.930 . S
H763 C760 0.931 1_554 S
O764 Li704 1.956 . S
O764 Li705 1.970 . S
O764 Li706 1.961 . S
O764 C708 1.325 . S
O765 Li704 1.970 . S
O765 Li705 1.956 . S
O765 Li707 1.961 . S
O765 C714 1.325 . S
O766 Li704 1.961 . S
O766 Li706 1.956 . S
O766 Li707 1.970 . S
O766 C736 1.325 . S
O767 Li705 1.961 . S
O767 Li706 1.970 . S
O767 Li707 1.956 . S
O767 C742 1.325 . S
H768 C710 0.929 . S
H769 C711 0.930 . S
H770 C712 0.930 . S
H771 C713 0.930 . S
H772 C715 0.930 . S
H773 C717 0.929 . S
H774 C718 0.930 . S
H775 C719 0.930 . S
H776 C722 0.930 . S
H777 C725 0.929 . S
H778 C730 0.929 . S
H779 C731 0.930 . S
H780 C738 0.929 . S
H781 C739 0.930 . S
H782 C740 0.930 . S
H783 C741 0.930 . S
H784 C743 0.929 . S
H785 C744 0.930 . S
H786 C745 0.930 . S
H787 C746 0.930 . S
H788 C750 0.929 . S
H789 C752 0.930 . S
H790 C758 0.929 . S
H791 C759 0.930 . S
Li792 N809 1.990 . S
Li792 O852 1.956 . S
Li792 O853 1.970 . S
Li792 O854 1.961 . S
Li793 N817 1.990 . S
Li793 O852 1.970 . S
Li793 O853 1.956 . S
Li793 O855 1.961 . S
Li794 N839 1.990 . S
Li794 O852 1.961 . S
Li794 O854 1.956 . S
Li794 O855 1.970 . S
Li795 N845 1.990 . S
Li795 O853 1.961 . S
Li795 O854 1.970 . S
Li795 O855 1.956 . S
C796 C798 1.348 . S
C796 C799 1.356 . S
C796 O852 1.325 . S
N797 C800 1.314 . S
N797 C801 1.279 . S
C798 C796 1.348 . S
C798 C800 1.353 . S
C798 H856 0.929 . S
C799 C796 1.356 . S
C799 C801 1.358 . S
C799 H857 0.930 . S
C800 N797 1.314 . S
C800 C798 1.353 . S
C800 H858 0.930 . S
C801 N797 1.279 . S
C801 C799 1.358 . S
C801 H859 0.930 . S
C802 C805 1.348 . S
C802 C806 1.356 . S
C802 O853 1.325 . S
C803 N804 1.279 . S
C803 C806 1.358 . S
C803 H860 0.930 . S
N804 C803 1.279 . S
N804 C807 1.314 . S
C805 C802 1.348 . S
C805 C807 1.353 . S
C805 H861 0.929 . S
C806 C802 1.356 . S
C806 C803 1.358 . S
C806 H862 0.930 . S
C807 N804 1.314 . S
C807 C805 1.353 . S
C807 H863 0.930 . S
C808 N809 1.314 . S
C808 C813 1.353 . S
C808 H814 0.930 . S
N809 Li792 1.990 . S
N809 C808 1.314 . S
N809 C811 1.279 . S
C810 C811 1.358 . S
C810 C812 1.356 . S
C810 H864 0.930 . S
C811 N809 1.279 . S
C811 C810 1.358 . S
C811 H815 0.930 . S
C812 C810 1.356 . S
C812 C813 1.348 . S
C813 C808 1.353 . S
C813 C812 1.348 . S
C813 H865 0.929 . S
H814 C808 0.930 . S
H815 C811 0.930 . S
C816 N817 1.314 . S
C816 C818 1.353 . S
C816 H822 0.930 . S
N817 Li793 1.990 . S
N817 C816 1.314 . S
N817 C820 1.279 . S
C818 C816 1.353 . S
C818 C821 1.348 . S
C818 H866 0.929 . S
C819 C820 1.358 . S
C819 C821 1.356 . S
C819 H867 0.930 . S
C820 N817 1.279 . S
C820 C819 1.358 . S
C820 H823 0.930 . S
C821 C818 1.348 . S
C821 C819 1.356 . S
H822 C816 0.930 . S
H823 C820 0.930 . S
C824 C826 1.348 . S
C824 C827 1.356 . S
C824 O854 1.325 . S
N825 C828 1.314 . S
N825 C829 1.279 . S
C826 C824 1.348 . S
C826 C828 1.353 . S
C826 H868 0.929 . S
C827 C824 1.356 . S
C827 C829 1.358 . S
C827 H869 0.930 . S
C828 N825 1.314 . S
C828 C826 1.353 . S
C828 H870 0.930 . S
C829 N825 1.279 . S
C829 C827 1.358 . S
C829 H871 0.930 . S
C830 C831 1.348 . S
C830 C832 1.356 . S
C830 O855 1.325 . S
C831 C830 1.348 . S
C831 C833 1.353 . S
C831 H872 0.929 . S
C832 C830 1.356 . S
C832 C834 1.358 . S
C832 H873 0.930 . S
C833 C831 1.353 . S
C833 N835 1.314 . S
C833 H874 0.930 . S
C834 C832 1.358 . S
C834 N835 1.279 . S
C834 H875 0.930 . S
N835 C833 1.314 . S
N835 C834 1.279 . S
C836 C838 1.353 . S
C836 N839 1.314 . S
C836 H842 0.930 . S
C837 N839 1.279 . S
C837 C840 1.358 . S
C837 H843 0.930 . S
C838 C836 1.353 . S
C838 C841 1.348 . S
C838 H876 0.929 . S
N839 Li794 1.990 . S
N839 C836 1.314 . S
N839 C837 1.279 . S
C840 C837 1.358 . S
C840 C841 1.356 . S
C840 H877 0.930 . S
C841 C838 1.348 . S
C841 C840 1.356 . S
H842 C836 0.930 . S
H843 C837 0.930 . S
C844 N845 1.314 . S
C844 C846 1.353 . S
C844 H850 0.930 . S
N845 Li795 1.990 . S
N845 C844 1.314 . S
N845 C848 1.279 . S
C846 C844 1.353 . S
C846 C849 1.348 . S
C846 H878 0.929 . S
C847 C848 1.358 . S
C847 C849 1.356 . S
C847 H879 0.930 . S
C848 N845 1.279 . S
C848 C847 1.358 . S
C848 H851 0.930 . S
C849 C846 1.348 . S
C849 C847 1.356 . S
H850 C844 0.930 . S
H851 C848 0.930 . S
O852 Li792 1.956 . S
O852 Li793 1.970 . S
O852 Li794 1.961 . S
O852 C796 1.325 . S
O853 Li792 1.970 . S
O853 Li793 1.956 . S
O853 Li795 1.961 . S
O853 C802 1.325 . S
O854 Li792 1.961 . S
O854 Li794 1.956 . S
O854 Li795 1.970 . S
O854 C824 1.325 . S
O855 Li793 1.961 . S
O855 Li794 1.970 . S
O855 Li795 1.956 . S
O855 C830 1.325 . S
H856 C798 0.929 . S
H857 C799 0.930 . S
H858 C800 0.930 . S
H859 C801 0.930 . S
H860 C803 0.930 . S
H861 C805 0.929 . S
H862 C806 0.930 . S
H863 C807 0.930 . S
H864 C810 0.930 . S
H865 C813 0.929 . S
H866 C818 0.929 . S
H867 C819 0.930 . S
H868 C826 0.929 . S
H869 C827 0.930 . S
H870 C828 0.930 . S
H871 C829 0.930 . S
H872 C831 0.929 . S
H873 C832 0.930 . S
H874 C833 0.930 . S
H875 C834 0.930 . S
H876 C838 0.929 . S
H877 C840 0.930 . S
H878 C846 0.929 . S
H879 C847 0.930 . S
Li880 N897 1.990 . S
Li880 O940 1.956 . S
Li880 O941 1.970 . S
Li880 O942 1.961 . S
Li881 N905 1.990 . S
Li881 O940 1.970 . S
Li881 O941 1.956 . S
Li881 O943 1.961 . S
Li882 N927 1.990 . S
Li882 O940 1.961 . S
Li882 O942 1.956 . S
Li882 O943 1.970 . S
Li883 N933 1.990 . S
Li883 O941 1.961 . S
Li883 O942 1.970 . S
Li883 O943 1.956 . S
C884 C886 1.348 . S
C884 C887 1.356 . S
C884 O940 1.325 . S
N885 C888 1.314 . S
N885 C889 1.279 . S
C886 C884 1.348 . S
C886 C888 1.353 . S
C886 H944 0.929 . S
C887 C884 1.356 . S
C887 C889 1.358 . S
C887 H945 0.930 . S
C888 N885 1.314 . S
C888 C886 1.353 . S
C888 H946 0.930 . S
C889 N885 1.279 . S
C889 C887 1.358 . S
C889 H947 0.930 . S
C890 C893 1.348 . S
C890 C894 1.356 . S
C890 O941 1.325 . S
C891 N892 1.279 . S
C891 C894 1.358 . S
C891 H948 0.930 . S
N892 C891 1.279 . S
N892 C895 1.314 . S
C893 C890 1.348 . S
C893 C895 1.353 . S
C893 H949 0.929 . S
C894 C890 1.356 . S
C894 C891 1.358 . S
C894 H950 0.930 . S
C895 N892 1.314 . S
C895 C893 1.353 . S
C895 H951 0.930 . S
C896 N897 1.314 . S
C896 C901 1.353 . S
C896 H902 0.930 . S
N897 Li880 1.990 . S
N897 C896 1.314 . S
N897 C899 1.279 . S
C898 C899 1.358 . S
C898 C900 1.356 . S
C898 H952 0.930 . S
C899 N897 1.279 . S
C899 C898 1.358 . S
C899 H903 0.930 . S
C900 C898 1.356 . S
C900 C901 1.348 . S
C901 C896 1.353 . S
C901 C900 1.348 . S
C901 H953 0.929 . S
H902 C896 0.930 . S
H903 C899 0.930 . S
C904 N905 1.314 . S
C904 C906 1.353 . S
C904 H910 0.930 . S
N905 Li881 1.990 . S
N905 C904 1.314 . S
N905 C908 1.279 . S
C906 C904 1.353 . S
C906 C909 1.348 . S
C906 H954 0.929 . S
C907 C908 1.358 . S
C907 C909 1.356 . S
C907 H955 0.930 . S
C908 N905 1.279 . S
C908 C907 1.358 . S
C908 H911 0.930 . S
C909 C906 1.348 . S
C909 C907 1.356 . S
H910 C904 0.930 . S
H911 C908 0.930 . S
C912 C914 1.348 . S
C912 C915 1.356 . S
C912 O942 1.325 . S
N913 C916 1.314 . S
N913 C917 1.279 . S
C914 C912 1.348 . S
C914 C916 1.353 . S
C914 H956 0.929 . S
C915 C912 1.356 . S
C915 C917 1.358 . S
C915 H957 0.930 . S
C916 N913 1.314 . S
C916 C914 1.353 . S
C916 H958 0.930 . S
C917 N913 1.279 . S
C917 C915 1.358 . S
C917 H959 0.930 . S
C918 C919 1.348 . S
C918 C920 1.356 . S
C918 O943 1.325 . S
C919 C918 1.348 . S
C919 C921 1.353 . S
C919 H960 0.929 . S
C920 C918 1.356 . S
C920 C922 1.358 . S
C920 H961 0.930 . S
C921 C919 1.353 . S
C921 N923 1.314 . S
C921 H962 0.930 . S
C922 C920 1.358 . S
C922 N923 1.279 . S
C922 H963 0.930 . S
N923 C921 1.314 . S
N923 C922 1.279 . S
C924 C926 1.353 . S
C924 N927 1.314 . S
C924 H930 0.930 . S
C925 N927 1.279 . S
C925 C928 1.358 . S
C925 H931 0.930 . S
C926 C924 1.353 . S
C926 C929 1.348 . S
C926 H964 0.929 . S
N927 Li882 1.990 . S
N927 C924 1.314 . S
N927 C925 1.279 . S
C928 C925 1.358 . S
C928 C929 1.356 . S
C928 H965 0.930 . S
C929 C926 1.348 . S
C929 C928 1.356 . S
H930 C924 0.930 . S
H931 C925 0.930 . S
C932 N933 1.314 . S
C932 C934 1.353 . S
C932 H938 0.930 . S
N933 Li883 1.990 . S
N933 C932 1.314 . S
N933 C936 1.279 . S
C934 C932 1.353 . S
C934 C937 1.348 . S
C934 H966 0.929 . S
C935 C936 1.358 . S
C935 C937 1.356 . S
C935 H967 0.930 . S
C936 N933 1.279 . S
C936 C935 1.358 . S
C936 H939 0.930 . S
C937 C934 1.348 . S
C937 C935 1.356 . S
H938 C932 0.930 . S
H939 C936 0.930 . S
O940 Li880 1.956 . S
O940 Li881 1.970 . S
O940 Li882 1.961 . S
O940 C884 1.325 . S
O941 Li880 1.970 . S
O941 Li881 1.956 . S
O941 Li883 1.961 . S
O941 C890 1.325 . S
O942 Li880 1.961 . S
O942 Li882 1.956 . S
O942 Li883 1.970 . S
O942 C912 1.325 . S
O943 Li881 1.961 . S
O943 Li882 1.970 . S
O943 Li883 1.956 . S
O943 C918 1.325 . S
H944 C886 0.929 . S
H945 C887 0.930 . S
H946 C888 0.930 . S
H947 C889 0.930 . S
H948 C891 0.930 . S
H949 C893 0.929 . S
H950 C894 0.930 . S
H951 C895 0.930 . S
H952 C898 0.930 . S
H953 C901 0.929 . S
H954 C906 0.929 . S
H955 C907 0.930 . S
H956 C914 0.929 . S
H957 C915 0.930 . S
H958 C916 0.930 . S
H959 C917 0.930 . S
H960 C919 0.929 . S
H961 C920 0.930 . S
H962 C921 0.930 . S
H963 C922 0.930 . S
H964 C926 0.929 . S
H965 C928 0.930 . S
H966 C934 0.929 . S
H967 C935 0.930 . S
Li968 N985 1.990 . S
Li968 O1028 1.956 . S
Li968 O1029 1.970 . S
Li968 O1030 1.961 . S
Li969 N993 1.990 . S
Li969 O1028 1.970 . S
Li969 O1029 1.956 . S
Li969 O1031 1.961 . S
Li970 N1015 1.990 . S
Li970 O1028 1.961 . S
Li970 O1030 1.956 . S
Li970 O1031 1.970 . S
Li971 N1021 1.990 . S
Li971 O1029 1.961 . S
Li971 O1030 1.970 . S
Li971 O1031 1.956 . S
C972 C974 1.348 . S
C972 C975 1.356 . S
C972 O1028 1.325 . S
N973 C976 1.314 . S
N973 C977 1.279 . S
C974 C972 1.348 . S
C974 C976 1.353 . S
C974 H1032 0.929 . S
C975 C972 1.356 . S
C975 C977 1.358 . S
C975 H1033 0.930 . S
C976 N973 1.314 . S
C976 C974 1.353 . S
C976 H1034 0.930 . S
C977 N973 1.279 . S
C977 C975 1.358 . S
C977 H1035 0.930 . S
C978 C981 1.348 . S
C978 C982 1.356 . S
C978 O1029 1.325 . S
C979 N980 1.279 . S
C979 C982 1.358 . S
C979 H1036 0.930 . S
N980 C979 1.279 . S
N980 C983 1.314 . S
C981 C978 1.348 . S
C981 C983 1.353 . S
C981 H1037 0.929 . S
C982 C978 1.356 . S
C982 C979 1.358 . S
C982 H1038 0.930 . S
C983 N980 1.314 . S
C983 C981 1.353 . S
C983 H1039 0.930 . S
C984 N985 1.314 . S
C984 C989 1.353 . S
C984 H990 0.930 . S
N985 Li968 1.990 . S
N985 C984 1.314 . S
N985 C987 1.279 . S
C986 C987 1.358 . S
C986 C988 1.356 . S
C986 H1040 0.930 . S
C987 N985 1.279 . S
C987 C986 1.358 . S
C987 H991 0.930 . S
C988 C986 1.356 . S
C988 C989 1.348 . S
C989 C984 1.353 . S
C989 C988 1.348 . S
C989 H1041 0.929 . S
H990 C984 0.930 . S
H991 C987 0.930 . S
C992 N993 1.314 . S
C992 C994 1.353 . S
C992 H998 0.930 . S
N993 Li969 1.990 . S
N993 C992 1.314 . S
N993 C996 1.279 . S
C994 C992 1.353 . S
C994 C997 1.348 . S
C994 H1042 0.929 . S
C995 C996 1.358 . S
C995 C997 1.356 . S
C995 H1043 0.930 . S
C996 N993 1.279 . S
C996 C995 1.358 . S
C996 H999 0.930 . S
C997 C994 1.348 . S
C997 C995 1.356 . S
H998 C992 0.930 . S
H999 C996 0.930 . S
C1000 C1002 1.348 . S
C1000 C1003 1.356 . S
C1000 O1030 1.325 . S
N1001 C1004 1.314 . S
N1001 C1005 1.279 . S
C1002 C1000 1.348 . S
C1002 C1004 1.353 . S
C1002 H1044 0.929 . S
C1003 C1000 1.356 . S
C1003 C1005 1.358 . S
C1003 H1045 0.930 . S
C1004 N1001 1.314 . S
C1004 C1002 1.353 . S
C1004 H1046 0.930 . S
C1005 N1001 1.279 . S
C1005 C1003 1.358 . S
C1005 H1047 0.930 . S
C1006 C1007 1.348 . S
C1006 C1008 1.356 . S
C1006 O1031 1.325 . S
C1007 C1006 1.348 . S
C1007 C1009 1.353 . S
C1007 H1048 0.929 . S
C1008 C1006 1.356 . S
C1008 C1010 1.358 . S
C1008 H1049 0.930 . S
C1009 C1007 1.353 . S
C1009 N1011 1.314 . S
C1009 H1050 0.930 . S
C1010 C1008 1.358 . S
C1010 N1011 1.279 . S
C1010 H1051 0.930 . S
N1011 C1009 1.314 . S
N1011 C1010 1.279 . S
C1012 C1014 1.353 . S
C1012 N1015 1.314 . S
C1012 H1018 0.930 . S
C1013 N1015 1.279 . S
C1013 C1016 1.358 . S
C1013 H1019 0.930 . S
C1014 C1012 1.353 . S
C1014 C1017 1.348 . S
C1014 H1052 0.929 . S
N1015 Li970 1.990 . S
N1015 C1012 1.314 . S
N1015 C1013 1.279 . S
C1016 C1013 1.358 . S
C1016 C1017 1.356 . S
C1016 H1053 0.930 . S
C1017 C1014 1.348 . S
C1017 C1016 1.356 . S
H1018 C1012 0.930 . S
H1019 C1013 0.930 . S
C1020 N1021 1.314 . S
C1020 C1022 1.353 . S
C1020 H1026 0.930 . S
N1021 Li971 1.990 . S
N1021 C1020 1.314 . S
N1021 C1024 1.279 . S
C1022 C1020 1.353 . S
C1022 C1025 1.348 . S
C1022 H1054 0.929 . S
C1023 C1024 1.358 . S
C1023 C1025 1.356 . S
C1023 H1055 0.930 . S
C1024 N1021 1.279 . S
C1024 C1023 1.358 . S
C1024 H1027 0.930 . S
C1025 C1022 1.348 . S
C1025 C1023 1.356 . S
H1026 C1020 0.930 . S
H1027 C1024 0.930 . S
O1028 Li968 1.956 . S
O1028 Li969 1.970 . S
O1028 Li970 1.961 . S
O1028 C972 1.325 . S
O1029 Li968 1.970 . S
O1029 Li969 1.956 . S
O1029 Li971 1.961 . S
O1029 C978 1.325 . S
O1030 Li968 1.961 . S
O1030 Li970 1.956 . S
O1030 Li971 1.970 . S
O1030 C1000 1.325 . S
O1031 Li969 1.961 . S
O1031 Li970 1.970 . S
O1031 Li971 1.956 . S
O1031 C1006 1.325 . S
H1032 C974 0.929 . S
H1033 C975 0.930 . S
H1034 C976 0.930 . S
H1035 C977 0.930 . S
H1036 C979 0.930 . S
H1037 C981 0.929 . S
H1038 C982 0.930 . S
H1039 C983 0.930 . S
H1040 C986 0.930 . S
H1041 C989 0.929 . S
H1042 C994 0.929 . S
H1043 C995 0.930 . S
H1044 C1002 0.929 . S
H1045 C1003 0.930 . S
H1046 C1004 0.930 . S
H1047 C1005 0.930 . S
H1048 C1007 0.929 . S
H1049 C1008 0.930 . S
H1050 C1009 0.930 . S
H1051 C1010 0.930 . S
H1052 C1014 0.929 . S
H1053 C1016 0.930 . S
H1054 C1022 0.929 . S
H1055 C1023 0.930 . S
Li1056 N1073 1.990 . S
Li1056 O1116 1.956 1_655 S
Li1056 O1117 1.970 . S
Li1056 O1118 1.961 1_655 S
Li1057 N1081 1.990 . S
Li1057 O1116 1.970 . S
Li1057 O1117 1.956 1_455 S
Li1057 O1119 1.961 . S
Li1058 N1103 1.990 . S
Li1058 O1116 1.961 . S
Li1058 O1118 1.956 . S
Li1058 O1119 1.970 . S
Li1059 N1109 1.990 . S
Li1059 O1117 1.961 1_455 S
Li1059 O1118 1.970 . S
Li1059 O1119 1.956 . S
C1060 C1062 1.348 . S
C1060 C1063 1.356 . S
C1060 O1116 1.325 . S
N1061 C1064 1.314 . S
N1061 C1065 1.279 . S
C1062 C1060 1.348 . S
C1062 C1064 1.353 . S
C1062 H1120 0.929 . S
C1063 C1060 1.356 . S
C1063 C1065 1.358 . S
C1063 H1121 0.930 . S
C1064 N1061 1.314 . S
C1064 C1062 1.353 . S
C1064 H1122 0.930 . S
C1065 N1061 1.279 . S
C1065 C1063 1.358 . S
C1065 H1123 0.930 . S
C1066 C1069 1.348 . S
C1066 C1070 1.356 . S
C1066 O1117 1.325 . S
C1067 N1068 1.279 . S
C1067 C1070 1.358 . S
C1067 H1124 0.930 . S
N1068 C1067 1.279 . S
N1068 C1071 1.314 . S
C1069 C1066 1.348 . S
C1069 C1071 1.353 . S
C1069 H1125 0.929 . S
C1070 C1066 1.356 . S
C1070 C1067 1.358 . S
C1070 H1126 0.930 . S
C1071 N1068 1.314 . S
C1071 C1069 1.353 . S
C1071 H1127 0.930 . S
C1072 N1073 1.314 . S
C1072 C1077 1.353 . S
C1072 H1078 0.930 . S
N1073 Li1056 1.990 . S
N1073 C1072 1.314 . S
N1073 C1075 1.279 . S
C1074 C1075 1.358 . S
C1074 C1076 1.356 . S
C1074 H1128 0.930 . S
C1075 N1073 1.279 . S
C1075 C1074 1.358 . S
C1075 H1079 0.930 . S
C1076 C1074 1.356 . S
C1076 C1077 1.348 . S
C1077 C1072 1.353 . S
C1077 C1076 1.348 . S
C1077 H1129 0.929 . S
H1078 C1072 0.930 . S
H1079 C1075 0.930 . S
C1080 N1081 1.314 . S
C1080 C1082 1.353 . S
C1080 H1086 0.930 . S
N1081 Li1057 1.990 . S
N1081 C1080 1.314 . S
N1081 C1084 1.306 . S
C1082 C1080 1.353 . S
C1082 C1085 1.348 . S
C1082 H1130 0.929 . S
C1083 C1084 1.359 1_655 S
C1083 C1085 1.350 1_655 S
C1083 H1131 0.935 . S
C1084 N1081 1.306 . S
C1084 C1083 1.359 1_455 S
C1084 H1087 0.901 1_455 S
C1085 C1082 1.348 . S
C1085 C1083 1.350 1_455 S
H1086 C1080 0.930 . S
H1087 C1084 0.901 1_655 S
C1088 C1090 1.348 . S
C1088 C1091 1.356 . S
C1088 O1118 1.325 . S
N1089 C1092 1.314 . S
N1089 C1093 1.279 . S
C1090 C1088 1.348 . S
C1090 C1092 1.353 . S
C1090 H1132 0.929 . S
C1091 C1088 1.356 . S
C1091 C1093 1.358 . S
C1091 H1133 0.930 . S
C1092 N1089 1.314 . S
C1092 C1090 1.353 . S
C1092 H1134 0.930 . S
C1093 N1089 1.279 . S
C1093 C1091 1.358 . S
C1093 H1135 0.930 . S
C1094 C1095 1.348 . S
C1094 C1096 1.356 . S
C1094 O1119 1.325 . S
C1095 C1094 1.348 . S
C1095 C1097 1.353 . S
C1095 H1136 0.929 . S
C1096 C1094 1.356 . S
C1096 C1098 1.358 . S
C1096 H1137 0.930 . S
C1097 C1095 1.353 . S
C1097 N1099 1.314 . S
C1097 H1138 0.930 . S
C1098 C1096 1.358 . S
C1098 N1099 1.279 . S
C1098 H1139 0.930 . S
N1099 C1097 1.314 . S
N1099 C1098 1.279 . S
C1100 C1102 1.353 . S
C1100 N1103 1.314 . S
C1100 H1106 0.930 . S
C1101 N1103 1.279 . S
C1101 C1104 1.358 . S
C1101 H1107 0.930 . S
C1102 C1100 1.353 . S
C1102 C1105 1.348 . S
C1102 H1140 0.929 . S
N1103 Li1058 1.990 . S
N1103 C1100 1.314 . S
N1103 C1101 1.279 . S
C1104 C1101 1.358 . S
C1104 C1105 1.356 . S
C1104 H1141 0.930 . S
C1105 C1102 1.348 . S
C1105 C1104 1.356 . S
H1106 C1100 0.930 . S
H1107 C1101 0.930 . S
C1108 N1109 1.314 . S
C1108 C1110 1.353 . S
C1108 H1114 0.930 1_455 S
N1109 Li1059 1.990 . S
N1109 C1108 1.314 . S
N1109 C1112 1.279 . S
C1110 C1108 1.353 . S
C1110 C1113 1.348 . S
C1110 H1142 0.929 1_455 S
C1111 C1112 1.358 . S
C1111 C1113 1.356 . S
C1111 H1143 0.930 . S
C1112 N1109 1.279 . S
C1112 C1111 1.358 . S
C1112 H1115 0.930 . S
C1113 C1110 1.348 . S
C1113 C1111 1.356 . S
H1114 C1108 0.930 1_655 S
H1115 C1112 0.930 . S
O1116 Li1056 1.956 1_455 S
O1116 Li1057 1.970 . S
O1116 Li1058 1.961 . S
O1116 C1060 1.325 . S
O1117 Li1056 1.970 . S
O1117 Li1057 1.956 1_655 S
O1117 Li1059 1.961 1_655 S
O1117 C1066 1.325 . S
O1118 Li1056 1.961 1_455 S
O1118 Li1058 1.956 . S
O1118 Li1059 1.970 . S
O1118 C1088 1.325 . S
O1119 Li1057 1.961 . S
O1119 Li1058 1.970 . S
O1119 Li1059 1.956 . S
O1119 C1094 1.325 . S
H1120 C1062 0.929 . S
H1121 C1063 0.930 . S
H1122 C1064 0.930 . S
H1123 C1065 0.930 . S
H1124 C1067 0.930 . S
H1125 C1069 0.929 . S
H1126 C1070 0.930 . S
H1127 C1071 0.930 . S
H1128 C1074 0.930 . S
H1129 C1077 0.929 . S
H1130 C1082 0.929 . S
H1131 C1083 0.935 . S
H1132 C1090 0.929 . S
H1133 C1091 0.930 . S
H1134 C1092 0.930 . S
H1135 C1093 0.930 . S
H1136 C1095 0.929 . S
H1137 C1096 0.930 . S
H1138 C1097 0.930 . S
H1139 C1098 0.930 . S
H1140 C1102 0.929 . S
H1141 C1104 0.930 . S
H1142 C1110 0.929 1_655 S
H1143 C1111 0.930 . S
Li1144 N1161 1.991 . S
Li1144 O1204 1.987 . S
Li1144 O1205 1.970 1_455 S
Li1144 O1206 1.928 1_455 S
Li1145 N1169 1.990 . S
Li1145 O1204 1.970 . S
Li1145 O1205 1.916 1_455 S
Li1145 O1207 1.984 . S
Li1146 N1191 1.991 . S
Li1146 O1204 1.958 . S
Li1146 O1206 1.959 1_455 S
Li1146 O1207 1.969 . S
Li1147 N1197 1.990 . S
Li1147 O1205 2.000 . S
Li1147 O1206 1.970 . S
Li1147 O1207 1.933 1_655 S
C1148 C1150 1.348 . S
C1148 C1151 1.356 . S
C1148 O1204 1.325 . S
N1149 C1152 1.314 . S
N1149 C1153 1.279 . S
C1150 C1148 1.348 . S
C1150 C1152 1.353 . S
C1150 H1208 0.929 . S
C1151 C1148 1.356 . S
C1151 C1153 1.358 . S
C1151 H1209 0.930 . S
C1152 N1149 1.314 . S
C1152 C1150 1.353 . S
C1152 H1210 0.930 . S
C1153 N1149 1.279 . S
C1153 C1151 1.358 . S
C1153 H1211 0.930 . S
C1154 C1157 1.333 1_655 S
C1154 C1158 1.366 . S
C1154 O1205 1.325 . S
C1155 N1156 1.281 . S
C1155 C1158 1.358 . S
C1155 H1212 0.930 . S
N1156 C1155 1.281 . S
N1156 C1159 1.313 1_655 S
C1157 C1154 1.333 1_455 S
C1157 C1159 1.353 . S
C1157 H1213 0.929 . S
C1158 C1154 1.366 . S
C1158 C1155 1.358 . S
C1158 H1214 0.930 . S
C1159 N1156 1.313 1_455 S
C1159 C1157 1.353 . S
C1159 H1215 0.930 . S
C1160 N1161 1.314 1_655 S
C1160 C1165 1.353 . S
C1160 H1166 0.930 . S
N1161 Li1144 1.991 . S
N1161 C1160 1.314 1_455 S
N1161 C1163 1.279 . S
C1162 C1163 1.358 . S
C1162 C1164 1.371 . S
C1162 H1216 0.930 . S
C1163 N1161 1.279 . S
C1163 C1162 1.358 . S
C1163 H1167 0.930 . S
C1164 C1162 1.371 . S
C1164 C1165 1.332 1_455 S
C1165 C1160 1.353 . S
C1165 C1164 1.332 1_655 S
C1165 H1217 0.929 . S
H1166 C1160 0.930 . S
H1167 C1163 0.930 . S
C1168 N1169 1.314 . S
C1168 C1170 1.353 . S
C1168 H1174 0.930 . S
N1169 Li1145 1.990 . S
N1169 C1168 1.314 . S
N1169 C1172 1.279 . S
C1170 C1168 1.353 . S
C1170 C1173 1.348 . S
C1170 H1218 0.929 . S
C1171 C1172 1.358 . S
C1171 C1173 1.356 . S
C1171 H1219 0.930 . S
C1172 N1169 1.279 . S
C1172 C1171 1.358 . S
C1172 H1175 0.930 . S
C1173 C1170 1.348 . S
C1173 C1171 1.356 . S
H1174 C1168 0.930 . S
H1175 C1172 0.930 . S
C1176 C1178 1.348 . S
C1176 C1179 1.356 . S
C1176 O1206 1.325 . S
N1177 C1180 1.314 . S
N1177 C1181 1.279 . S
C1178 C1176 1.348 . S
C1178 C1180 1.353 . S
C1178 H1220 0.929 . S
C1179 C1176 1.356 . S
C1179 C1181 1.358 . S
C1179 H1221 0.930 . S
C1180 N1177 1.314 . S
C1180 C1178 1.353 . S
C1180 H1222 0.930 . S
C1181 N1177 1.279 . S
C1181 C1179 1.358 . S
C1181 H1223 0.930 . S
C1182 C1183 1.349 1_455 S
C1182 C1184 1.355 . S
C1182 O1207 1.324 . S
C1183 C1182 1.349 1_655 S
C1183 C1185 1.353 . S
C1183 H1224 0.929 . S
C1184 C1182 1.355 . S
C1184 C1186 1.358 . S
C1184 H1225 0.930 . S
C1185 C1183 1.353 . S
C1185 N1187 1.314 . S
C1185 H1226 0.930 . S
C1186 C1184 1.358 . S
C1186 N1187 1.279 1_455 S
C1186 H1227 0.930 . S
N1187 C1185 1.314 . S
N1187 C1186 1.279 1_655 S
C1188 C1190 1.353 . S
C1188 N1191 1.327 . S
C1188 H1194 0.930 . S
C1189 N1191 1.267 1_655 S
C1189 C1192 1.358 . S
C1189 H1195 0.930 . S
C1190 C1188 1.353 . S
C1190 C1193 1.348 . S
C1190 H1228 0.929 . S
N1191 Li1146 1.991 . S
N1191 C1188 1.327 . S
N1191 C1189 1.267 1_455 S
C1192 C1189 1.358 . S
C1192 C1193 1.356 1_655 S
C1192 H1229 0.930 . S
C1193 C1190 1.348 . S
C1193 C1192 1.356 1_455 S
H1194 C1188 0.930 . S
H1195 C1189 0.930 . S
C1196 N1197 1.314 . S
C1196 C1198 1.353 . S
C1196 H1202 0.930 . S
N1197 Li1147 1.990 . S
N1197 C1196 1.314 . S
N1197 C1200 1.279 . S
C1198 C1196 1.353 . S
C1198 C1201 1.348 . S
C1198 H1230 0.929 . S
C1199 C1200 1.358 . S
C1199 C1201 1.356 . S
C1199 H1231 0.930 . S
C1200 N1197 1.279 . S
C1200 C1199 1.358 . S
C1200 H1203 0.930 . S
C1201 C1198 1.348 . S
C1201 C1199 1.356 . S
H1202 C1196 0.930 . S
H1203 C1200 0.930 . S
O1204 Li1144 1.987 . S
O1204 Li1145 1.970 . S
O1204 Li1146 1.958 . S
O1204 C1148 1.325 . S
O1205 Li1144 1.970 1_655 S
O1205 Li1145 1.916 1_655 S
O1205 Li1147 2.000 . S
O1205 C1154 1.325 . S
O1206 Li1144 1.928 1_655 S
O1206 Li1146 1.959 1_655 S
O1206 Li1147 1.970 . S
O1206 C1176 1.325 . S
O1207 Li1145 1.984 . S
O1207 Li1146 1.969 . S
O1207 Li1147 1.933 1_455 S
O1207 C1182 1.324 . S
H1208 C1150 0.929 . S
H1209 C1151 0.930 . S
H1210 C1152 0.930 . S
H1211 C1153 0.930 . S
H1212 C1155 0.930 . S
H1213 C1157 0.929 . S
H1214 C1158 0.930 . S
H1215 C1159 0.930 . S
H1216 C1162 0.930 . S
H1217 C1165 0.929 . S
H1218 C1170 0.929 . S
H1219 C1171 0.930 . S
H1220 C1178 0.929 . S
H1221 C1179 0.930 . S
H1222 C1180 0.930 . S
H1223 C1181 0.930 . S
H1224 C1183 0.929 . S
H1225 C1184 0.930 . S
H1226 C1185 0.930 . S
H1227 C1186 0.930 . S
H1228 C1190 0.929 . S
H1229 C1192 0.930 . S
H1230 C1198 0.929 . S
H1231 C1199 0.930 . S
Li1232 N1249 1.990 . S
Li1232 O1292 1.956 . S
Li1232 O1293 1.970 . S
Li1232 O1294 1.961 . S
Li1233 N1257 1.990 . S
Li1233 O1292 1.970 . S
Li1233 O1293 1.956 . S
Li1233 O1295 1.961 . S
Li1234 N1279 1.990 . S
Li1234 O1292 1.961 . S
Li1234 O1294 1.956 . S
Li1234 O1295 1.970 . S
Li1235 N1285 1.990 . S
Li1235 O1293 1.961 . S
Li1235 O1294 1.970 . S
Li1235 O1295 1.956 . S
C1236 C1238 1.348 . S
C1236 C1239 1.356 . S
C1236 O1292 1.325 . S
N1237 C1240 1.314 . S
N1237 C1241 1.279 . S
C1238 C1236 1.348 . S
C1238 C1240 1.353 . S
C1238 H1296 0.929 . S
C1239 C1236 1.356 . S
C1239 C1241 1.358 . S
C1239 H1297 0.930 . S
C1240 N1237 1.314 . S
C1240 C1238 1.353 . S
C1240 H1298 0.930 . S
C1241 N1237 1.279 . S
C1241 C1239 1.358 . S
C1241 H1299 0.930 . S
C1242 C1245 1.348 . S
C1242 C1246 1.356 . S
C1242 O1293 1.325 . S
C1243 N1244 1.279 . S
C1243 C1246 1.358 . S
C1243 H1300 0.930 . S
N1244 C1243 1.279 . S
N1244 C1247 1.314 . S
C1245 C1242 1.348 . S
C1245 C1247 1.353 . S
C1245 H1301 0.929 . S
C1246 C1242 1.356 . S
C1246 C1243 1.358 . S
C1246 H1302 0.930 . S
C1247 N1244 1.314 . S
C1247 C1245 1.353 . S
C1247 H1303 0.930 . S
C1248 N1249 1.314 . S
C1248 C1253 1.353 . S
C1248 H1254 0.930 . S
N1249 Li1232 1.990 . S
N1249 C1248 1.314 . S
N1249 C1251 1.279 . S
C1250 C1251 1.358 . S
C1250 C1252 1.356 . S
C1250 H1304 0.930 . S
C1251 N1249 1.279 . S
C1251 C1250 1.358 . S
C1251 H1255 0.930 . S
C1252 C1250 1.356 . S
C1252 C1253 1.348 . S
C1253 C1248 1.353 . S
C1253 C1252 1.348 . S
C1253 H1305 0.929 . S
H1254 C1248 0.930 . S
H1255 C1251 0.930 . S
C1256 N1257 1.314 . S
C1256 C1258 1.353 . S
C1256 H1262 0.930 . S
N1257 Li1233 1.990 . S
N1257 C1256 1.314 . S
N1257 C1260 1.279 . S
C1258 C1256 1.353 . S
C1258 C1261 1.348 . S
C1258 H1306 0.929 . S
C1259 C1260 1.358 . S
C1259 C1261 1.356 . S
C1259 H1307 0.930 . S
C1260 N1257 1.279 . S
C1260 C1259 1.358 . S
C1260 H1263 0.930 . S
C1261 C1258 1.348 . S
C1261 C1259 1.356 . S
H1262 C1256 0.930 . S
H1263 C1260 0.930 . S
C1264 C1266 1.348 . S
C1264 C1267 1.356 . S
C1264 O1294 1.325 . S
N1265 C1268 1.314 . S
N1265 C1269 1.279 . S
C1266 C1264 1.348 . S
C1266 C1268 1.353 . S
C1266 H1308 0.929 . S
C1267 C1264 1.356 . S
C1267 C1269 1.358 . S
C1267 H1309 0.930 . S
C1268 N1265 1.314 . S
C1268 C1266 1.353 . S
C1268 H1310 0.930 . S
C1269 N1265 1.279 . S
C1269 C1267 1.358 . S
C1269 H1311 0.930 . S
C1270 C1271 1.348 . S
C1270 C1272 1.356 . S
C1270 O1295 1.325 . S
C1271 C1270 1.348 . S
C1271 C1273 1.353 . S
C1271 H1312 0.929 . S
C1272 C1270 1.356 . S
C1272 C1274 1.358 . S
C1272 H1313 0.930 . S
C1273 C1271 1.353 . S
C1273 N1275 1.314 . S
C1273 H1314 0.930 . S
C1274 C1272 1.358 . S
C1274 N1275 1.279 . S
C1274 H1315 0.930 . S
N1275 C1273 1.314 . S
N1275 C1274 1.279 . S
C1276 C1278 1.353 . S
C1276 N1279 1.314 . S
C1276 H1282 0.930 . S
C1277 N1279 1.279 . S
C1277 C1280 1.358 . S
C1277 H1283 0.930 . S
C1278 C1276 1.353 . S
C1278 C1281 1.348 . S
C1278 H1316 0.929 . S
N1279 Li1234 1.990 . S
N1279 C1276 1.314 . S
N1279 C1277 1.279 . S
C1280 C1277 1.358 . S
C1280 C1281 1.356 . S
C1280 H1317 0.930 . S
C1281 C1278 1.348 . S
C1281 C1280 1.356 . S
H1282 C1276 0.930 . S
H1283 C1277 0.930 . S
C1284 N1285 1.314 . S
C1284 C1286 1.353 . S
C1284 H1290 0.930 . S
N1285 Li1235 1.990 . S
N1285 C1284 1.314 . S
N1285 C1288 1.279 . S
C1286 C1284 1.353 . S
C1286 C1289 1.348 . S
C1286 H1318 0.929 . S
C1287 C1288 1.358 . S
C1287 C1289 1.356 . S
C1287 H1319 0.930 . S
C1288 N1285 1.279 . S
C1288 C1287 1.358 . S
C1288 H1291 0.930 . S
C1289 C1286 1.348 . S
C1289 C1287 1.356 . S
H1290 C1284 0.930 . S
H1291 C1288 0.930 . S
O1292 Li1232 1.956 . S
O1292 Li1233 1.970 . S
O1292 Li1234 1.961 . S
O1292 C1236 1.325 . S
O1293 Li1232 1.970 . S
O1293 Li1233 1.956 . S
O1293 Li1235 1.961 . S
O1293 C1242 1.325 . S
O1294 Li1232 1.961 . S
O1294 Li1234 1.956 . S
O1294 Li1235 1.970 . S
O1294 C1264 1.325 . S
O1295 Li1233 1.961 . S
O1295 Li1234 1.970 . S
O1295 Li1235 1.956 . S
O1295 C1270 1.325 . S
H1296 C1238 0.929 . S
H1297 C1239 0.930 . S
H1298 C1240 0.930 . S
H1299 C1241 0.930 . S
H1300 C1243 0.930 . S
H1301 C1245 0.929 . S
H1302 C1246 0.930 . S
H1303 C1247 0.930 . S
H1304 C1250 0.930 . S
H1305 C1253 0.929 . S
H1306 C1258 0.929 . S
H1307 C1259 0.930 . S
H1308 C1266 0.929 . S
H1309 C1267 0.930 . S
H1310 C1268 0.930 . S
H1311 C1269 0.930 . S
H1312 C1271 0.929 . S
H1313 C1272 0.930 . S
H1314 C1273 0.930 . S
H1315 C1274 0.930 . S
H1316 C1278 0.929 . S
H1317 C1280 0.930 . S
H1318 C1286 0.929 . S
H1319 C1287 0.930 . S
Li1320 N1337 1.990 . S
Li1320 O1380 1.956 . S
Li1320 O1381 1.970 . S
Li1320 O1382 1.961 . S
Li1321 N1345 1.990 . S
Li1321 O1380 1.970 . S
Li1321 O1381 1.956 . S
Li1321 O1383 1.961 . S
Li1322 N1367 1.990 . S
Li1322 O1380 1.961 . S
Li1322 O1382 1.956 . S
Li1322 O1383 1.970 . S
Li1323 N1373 1.990 . S
Li1323 O1381 1.961 . S
Li1323 O1382 1.970 . S
Li1323 O1383 1.956 . S
C1324 C1326 1.348 . S
C1324 C1327 1.356 . S
C1324 O1380 1.325 . S
N1325 C1328 1.314 . S
N1325 C1329 1.279 . S
C1326 C1324 1.348 . S
C1326 C1328 1.353 . S
C1326 H1384 0.929 . S
C1327 C1324 1.356 . S
C1327 C1329 1.358 . S
C1327 H1385 0.930 . S
C1328 N1325 1.314 . S
C1328 C1326 1.353 . S
C1328 H1386 0.930 . S
C1329 N1325 1.279 . S
C1329 C1327 1.358 . S
C1329 H1387 0.930 . S
C1330 C1333 1.348 . S
C1330 C1334 1.356 . S
C1330 O1381 1.325 . S
C1331 N1332 1.279 . S
C1331 C1334 1.358 . S
C1331 H1388 0.930 . S
N1332 C1331 1.279 . S
N1332 C1335 1.314 . S
C1333 C1330 1.348 . S
C1333 C1335 1.353 . S
C1333 H1389 0.929 . S
C1334 C1330 1.356 . S
C1334 C1331 1.358 . S
C1334 H1390 0.930 . S
C1335 N1332 1.314 . S
C1335 C1333 1.353 . S
C1335 H1391 0.930 . S
C1336 N1337 1.314 . S
C1336 C1341 1.353 . S
C1336 H1342 0.930 . S
N1337 Li1320 1.990 . S
N1337 C1336 1.314 . S
N1337 C1339 1.279 . S
C1338 C1339 1.358 . S
C1338 C1340 1.356 . S
C1338 H1392 0.930 . S
C1339 N1337 1.279 . S
C1339 C1338 1.358 . S
C1339 H1343 0.930 . S
C1340 C1338 1.356 . S
C1340 C1341 1.348 . S
C1341 C1336 1.353 . S
C1341 C1340 1.348 . S
C1341 H1393 0.929 . S
H1342 C1336 0.930 . S
H1343 C1339 0.930 . S
C1344 N1345 1.314 . S
C1344 C1346 1.353 . S
C1344 H1350 0.930 . S
N1345 Li1321 1.990 . S
N1345 C1344 1.314 . S
N1345 C1348 1.279 . S
C1346 C1344 1.353 . S
C1346 C1349 1.348 . S
C1346 H1394 0.929 . S
C1347 C1348 1.358 . S
C1347 C1349 1.356 . S
C1347 H1395 0.930 . S
C1348 N1345 1.279 . S
C1348 C1347 1.358 . S
C1348 H1351 0.930 . S
C1349 C1346 1.348 . S
C1349 C1347 1.356 . S
H1350 C1344 0.930 . S
H1351 C1348 0.930 . S
C1352 C1354 1.348 . S
C1352 C1355 1.356 . S
C1352 O1382 1.325 . S
N1353 C1356 1.314 . S
N1353 C1357 1.279 . S
C1354 C1352 1.348 . S
C1354 C1356 1.353 . S
C1354 H1396 0.929 . S
C1355 C1352 1.356 . S
C1355 C1357 1.358 . S
C1355 H1397 0.930 . S
C1356 N1353 1.314 . S
C1356 C1354 1.353 . S
C1356 H1398 0.930 . S
C1357 N1353 1.279 . S
C1357 C1355 1.358 . S
C1357 H1399 0.930 . S
C1358 C1359 1.348 . S
C1358 C1360 1.356 . S
C1358 O1383 1.325 . S
C1359 C1358 1.348 . S
C1359 C1361 1.353 . S
C1359 H1400 0.929 . S
C1360 C1358 1.356 . S
C1360 C1362 1.358 . S
C1360 H1401 0.930 . S
C1361 C1359 1.353 . S
C1361 N1363 1.314 . S
C1361 H1402 0.930 . S
C1362 C1360 1.358 . S
C1362 N1363 1.279 . S
C1362 H1403 0.930 . S
N1363 C1361 1.314 . S
N1363 C1362 1.279 . S
C1364 C1366 1.353 . S
C1364 N1367 1.314 . S
C1364 H1370 0.930 . S
C1365 N1367 1.279 . S
C1365 C1368 1.358 . S
C1365 H1371 0.930 . S
C1366 C1364 1.353 . S
C1366 C1369 1.348 . S
C1366 H1404 0.929 . S
N1367 Li1322 1.990 . S
N1367 C1364 1.314 . S
N1367 C1365 1.279 . S
C1368 C1365 1.358 . S
C1368 C1369 1.356 . S
C1368 H1405 0.930 . S
C1369 C1366 1.348 . S
C1369 C1368 1.356 . S
H1370 C1364 0.930 . S
H1371 C1365 0.930 . S
C1372 N1373 1.314 . S
C1372 C1374 1.353 . S
C1372 H1378 0.930 . S
N1373 Li1323 1.990 . S
N1373 C1372 1.314 . S
N1373 C1376 1.279 . S
C1374 C1372 1.353 . S
C1374 C1377 1.348 . S
C1374 H1406 0.929 . S
C1375 C1376 1.358 . S
C1375 C1377 1.356 . S
C1375 H1407 0.930 . S
C1376 N1373 1.279 . S
C1376 C1375 1.358 . S
C1376 H1379 0.930 . S
C1377 C1374 1.348 . S
C1377 C1375 1.356 . S
H1378 C1372 0.930 . S
H1379 C1376 0.930 . S
O1380 Li1320 1.956 . S
O1380 Li1321 1.970 . S
O1380 Li1322 1.961 . S
O1380 C1324 1.325 . S
O1381 Li1320 1.970 . S
O1381 Li1321 1.956 . S
O1381 Li1323 1.961 . S
O1381 C1330 1.325 . S
O1382 Li1320 1.961 . S
O1382 Li1322 1.956 . S
O1382 Li1323 1.970 . S
O1382 C1352 1.325 . S
O1383 Li1321 1.961 . S
O1383 Li1322 1.970 . S
O1383 Li1323 1.956 . S
O1383 C1358 1.325 . S
H1384 C1326 0.929 . S
H1385 C1327 0.930 . S
H1386 C1328 0.930 . S
H1387 C1329 0.930 . S
H1388 C1331 0.930 . S
H1389 C1333 0.929 . S
H1390 C1334 0.930 . S
H1391 C1335 0.930 . S
H1392 C1338 0.930 . S
H1393 C1341 0.929 . S
H1394 C1346 0.929 . S
H1395 C1347 0.930 . S
H1396 C1354 0.929 . S
H1397 C1355 0.930 . S
H1398 C1356 0.930 . S
H1399 C1357 0.930 . S
H1400 C1359 0.929 . S
H1401 C1360 0.930 . S
H1402 C1361 0.930 . S
H1403 C1362 0.930 . S
H1404 C1366 0.929 . S
H1405 C1368 0.930 . S
H1406 C1374 0.929 . S
H1407 C1375 0.930 . S
Li1408 N1425 1.990 . S
Li1408 O1468 1.956 . S
Li1408 O1469 1.970 . S
Li1408 O1470 1.961 . S
Li1409 N1433 1.990 . S
Li1409 O1468 1.970 . S
Li1409 O1469 1.956 . S
Li1409 O1471 1.961 . S
Li1410 N1455 1.990 . S
Li1410 O1468 1.961 . S
Li1410 O1470 1.956 . S
Li1410 O1471 1.970 . S
Li1411 N1461 1.990 . S
Li1411 O1469 1.961 . S
Li1411 O1470 1.970 . S
Li1411 O1471 1.956 . S
C1412 C1414 1.348 1_545 S
C1412 C1415 1.356 . S
C1412 O1468 1.325 . S
N1413 C1416 1.314 . S
N1413 C1417 1.279 . S
C1414 C1412 1.348 1_565 S
C1414 C1416 1.353 . S
C1414 H1472 0.929 . S
C1415 C1412 1.356 . S
C1415 C1417 1.358 1_545 S
C1415 H1473 0.930 . S
C1416 N1413 1.314 . S
C1416 C1414 1.353 . S
C1416 H1474 0.930 . S
C1417 N1413 1.279 . S
C1417 C1415 1.358 1_565 S
C1417 H1475 0.930 . S
C1418 C1421 1.348 . S
C1418 C1422 1.356 . S
C1418 O1469 1.325 . S
C1419 N1420 1.279 . S
C1419 C1422 1.358 . S
C1419 H1476 0.930 . S
N1420 C1419 1.279 . S
N1420 C1423 1.314 . S
C1421 C1418 1.348 . S
C1421 C1423 1.353 . S
C1421 H1477 0.929 . S
C1422 C1418 1.356 . S
C1422 C1419 1.358 . S
C1422 H1478 0.930 . S
C1423 N1420 1.314 . S
C1423 C1421 1.353 . S
C1423 H1479 0.930 . S
C1424 N1425 1.314 . S
C1424 C1429 1.353 . S
C1424 H1430 0.930 . S
N1425 Li1408 1.990 . S
N1425 C1424 1.314 . S
N1425 C1427 1.279 . S
C1426 C1427 1.358 . S
C1426 C1428 1.356 . S
C1426 H1480 0.930 . S
C1427 N1425 1.279 . S
C1427 C1426 1.358 . S
C1427 H1431 0.930 . S
C1428 C1426 1.356 . S
C1428 C1429 1.348 . S
C1429 C1424 1.353 . S
C1429 C1428 1.348 . S
C1429 H1481 0.929 . S
H1430 C1424 0.930 . S
H1431 C1427 0.930 . S
C1432 N1433 1.314 1_565 S
C1432 C1434 1.353 . S
C1432 H1438 0.930 . S
N1433 Li1409 1.990 . S
N1433 C1432 1.314 1_545 S
N1433 C1436 1.279 1_545 S
C1434 C1432 1.353 . S
C1434 C1437 1.348 . S
C1434 H1482 0.929 . S
C1435 C1436 1.358 . S
C1435 C1437 1.356 . S
C1435 H1483 0.930 . S
C1436 N1433 1.279 1_565 S
C1436 C1435 1.358 . S
C1436 H1439 0.930 1_565 S
C1437 C1434 1.348 . S
C1437 C1435 1.356 . S
H1438 C1432 0.930 . S
H1439 C1436 0.930 1_545 S
C1440 C1442 1.348 . S
C1440 C1443 1.356 . S
C1440 O1470 1.325 . S
N1441 C1444 1.314 . S
N1441 C1445 1.279 . S
C1442 C1440 1.348 . S
C1442 C1444 1.353 . S
C1442 H1484 0.929 . S
C1443 C1440 1.356 . S
C1443 C1445 1.358 . S
C1443 H1485 0.930 . S
C1444 N1441 1.314 . S
C1444 C1442 1.353 . S
C1444 H1486 0.930 . S
C1445 N1441 1.279 . S
C1445 C1443 1.358 . S
C1445 H1487 0.930 . S
C1446 C1447 1.348 . S
C1446 C1448 1.356 . S
C1446 O1471 1.325 . S
C1447 C1446 1.348 . S
C1447 C1449 1.353 . S
C1447 H1488 0.929 . S
C1448 C1446 1.356 . S
C1448 C1450 1.358 . S
C1448 H1489 0.930 . S
C1449 C1447 1.353 . S
C1449 N1451 1.314 . S
C1449 H1490 0.930 . S
C1450 C1448 1.358 . S
C1450 N1451 1.279 . S
C1450 H1491 0.930 . S
N1451 C1449 1.314 . S
N1451 C1450 1.279 . S
C1452 C1454 1.353 . S
C1452 N1455 1.314 . S
C1452 H1458 0.930 . S
C1453 N1455 1.279 . S
C1453 C1456 1.358 . S
C1453 H1459 0.930 . S
C1454 C1452 1.353 . S
C1454 C1457 1.348 . S
C1454 H1492 0.929 . S
N1455 Li1410 1.990 . S
N1455 C1452 1.314 . S
N1455 C1453 1.279 . S
C1456 C1453 1.358 . S
C1456 C1457 1.356 . S
C1456 H1493 0.930 . S
C1457 C1454 1.348 . S
C1457 C1456 1.356 . S
H1458 C1452 0.930 . S
H1459 C1453 0.930 . S
C1460 N1461 1.314 . S
C1460 C1462 1.353 . S
C1460 H1466 0.930 . S
N1461 Li1411 1.990 . S
N1461 C1460 1.314 . S
N1461 C1464 1.279 . S
C1462 C1460 1.353 . S
C1462 C1465 1.348 . S
C1462 H1494 0.929 . S
C1463 C1464 1.358 . S
C1463 C1465 1.356 . S
C1463 H1495 0.930 . S
C1464 N1461 1.279 . S
C1464 C1463 1.358 . S
C1464 H1467 0.930 . S
C1465 C1462 1.348 . S
C1465 C1463 1.356 . S
H1466 C1460 0.930 . S
H1467 C1464 0.930 . S
O1468 Li1408 1.956 . S
O1468 Li1409 1.970 . S
O1468 Li1410 1.961 . S
O1468 C1412 1.325 . S
O1469 Li1408 1.970 . S
O1469 Li1409 1.956 . S
O1469 Li1411 1.961 . S
O1469 C1418 1.325 . S
O1470 Li1408 1.961 . S
O1470 Li1410 1.956 . S
O1470 Li1411 1.970 . S
O1470 C1440 1.325 . S
O1471 Li1409 1.961 . S
O1471 Li1410 1.970 . S
O1471 Li1411 1.956 . S
O1471 C1446 1.325 . S
H1472 C1414 0.929 . S
H1473 C1415 0.930 . S
H1474 C1416 0.930 . S
H1475 C1417 0.930 . S
H1476 C1419 0.930 . S
H1477 C1421 0.929 . S
H1478 C1422 0.930 . S
H1479 C1423 0.930 . S
H1480 C1426 0.930 . S
H1481 C1429 0.929 . S
H1482 C1434 0.929 . S
H1483 C1435 0.930 . S
H1484 C1442 0.929 . S
H1485 C1443 0.930 . S
H1486 C1444 0.930 . S
H1487 C1445 0.930 . S
H1488 C1447 0.929 . S
H1489 C1448 0.930 . S
H1490 C1449 0.930 . S
H1491 C1450 0.930 . S
H1492 C1454 0.929 . S
H1493 C1456 0.930 . S
H1494 C1462 0.929 . S
H1495 C1463 0.930 . S
Li1496 N1513 1.990 . S
Li1496 O1556 1.956 . S
Li1496 O1557 1.970 . S
Li1496 O1558 1.961 . S
Li1497 N1521 1.990 . S
Li1497 O1556 1.970 . S
Li1497 O1557 1.956 . S
Li1497 O1559 1.961 . S
Li1498 N1543 1.990 . S
Li1498 O1556 1.961 . S
Li1498 O1558 1.956 . S
Li1498 O1559 1.970 . S
Li1499 N1549 1.990 . S
Li1499 O1557 1.961 . S
Li1499 O1558 1.970 . S
Li1499 O1559 1.956 . S
C1500 C1502 1.348 . S
C1500 C1503 1.356 . S
C1500 O1556 1.325 . S
N1501 C1504 1.314 . S
N1501 C1505 1.279 . S
C1502 C1500 1.348 . S
C1502 C1504 1.353 . S
C1502 H1560 0.929 . S
C1503 C1500 1.356 . S
C1503 C1505 1.358 . S
C1503 H1561 0.930 . S
C1504 N1501 1.314 . S
C1504 C1502 1.353 . S
C1504 H1562 0.930 . S
C1505 N1501 1.279 . S
C1505 C1503 1.358 . S
C1505 H1563 0.930 . S
C1506 C1509 1.348 . S
C1506 C1510 1.356 . S
C1506 O1557 1.325 . S
C1507 N1508 1.279 . S
C1507 C1510 1.358 . S
C1507 H1564 0.930 . S
N1508 C1507 1.279 . S
N1508 C1511 1.314 . S
C1509 C1506 1.348 . S
C1509 C1511 1.353 . S
C1509 H1565 0.929 . S
C1510 C1506 1.356 . S
C1510 C1507 1.358 . S
C1510 H1566 0.930 . S
C1511 N1508 1.314 . S
C1511 C1509 1.353 . S
C1511 H1567 0.930 . S
C1512 N1513 1.314 . S
C1512 C1517 1.353 . S
C1512 H1518 0.930 . S
N1513 Li1496 1.990 . S
N1513 C1512 1.314 . S
N1513 C1515 1.279 . S
C1514 C1515 1.358 . S
C1514 C1516 1.356 . S
C1514 H1568 0.930 . S
C1515 N1513 1.279 . S
C1515 C1514 1.358 . S
C1515 H1519 0.930 . S
C1516 C1514 1.356 . S
C1516 C1517 1.348 . S
C1517 C1512 1.353 . S
C1517 C1516 1.348 . S
C1517 H1569 0.929 . S
H1518 C1512 0.930 . S
H1519 C1515 0.930 . S
C1520 N1521 1.314 . S
C1520 C1522 1.353 . S
C1520 H1526 0.930 . S
N1521 Li1497 1.990 . S
N1521 C1520 1.314 . S
N1521 C1524 1.279 . S
C1522 C1520 1.353 . S
C1522 C1525 1.348 . S
C1522 H1570 0.929 . S
C1523 C1524 1.358 . S
C1523 C1525 1.356 . S
C1523 H1571 0.930 . S
C1524 N1521 1.279 . S
C1524 C1523 1.358 . S
C1524 H1527 0.930 . S
C1525 C1522 1.348 . S
C1525 C1523 1.356 . S
H1526 C1520 0.930 . S
H1527 C1524 0.930 . S
C1528 C1530 1.348 . S
C1528 C1531 1.356 . S
C1528 O1558 1.325 . S
N1529 C1532 1.314 . S
N1529 C1533 1.279 . S
C1530 C1528 1.348 . S
C1530 C1532 1.353 . S
C1530 H1572 0.929 . S
C1531 C1528 1.356 . S
C1531 C1533 1.358 . S
C1531 H1573 0.930 . S
C1532 N1529 1.314 . S
C1532 C1530 1.353 . S
C1532 H1574 0.930 . S
C1533 N1529 1.279 . S
C1533 C1531 1.358 . S
C1533 H1575 0.930 . S
C1534 C1535 1.348 . S
C1534 C1536 1.356 . S
C1534 O1559 1.325 . S
C1535 C1534 1.348 . S
C1535 C1537 1.353 . S
C1535 H1576 0.929 . S
C1536 C1534 1.356 . S
C1536 C1538 1.358 . S
C1536 H1577 0.930 . S
C1537 C1535 1.353 . S
C1537 N1539 1.314 . S
C1537 H1578 0.930 . S
C1538 C1536 1.358 . S
C1538 N1539 1.279 . S
C1538 H1579 0.930 . S
N1539 C1537 1.314 . S
N1539 C1538 1.279 . S
C1540 C1542 1.353 . S
C1540 N1543 1.314 . S
C1540 H1546 0.930 . S
C1541 N1543 1.279 . S
C1541 C1544 1.358 . S
C1541 H1547 0.930 . S
C1542 C1540 1.353 . S
C1542 C1545 1.348 . S
C1542 H1580 0.929 . S
N1543 Li1498 1.990 . S
N1543 C1540 1.314 . S
N1543 C1541 1.279 . S
C1544 C1541 1.358 . S
C1544 C1545 1.356 . S
C1544 H1581 0.930 . S
C1545 C1542 1.348 . S
C1545 C1544 1.356 . S
H1546 C1540 0.930 . S
H1547 C1541 0.930 . S
C1548 N1549 1.314 . S
C1548 C1550 1.353 . S
C1548 H1554 0.930 . S
N1549 Li1499 1.990 . S
N1549 C1548 1.314 . S
N1549 C1552 1.279 . S
C1550 C1548 1.353 . S
C1550 C1553 1.348 . S
C1550 H1582 0.929 . S
C1551 C1552 1.358 . S
C1551 C1553 1.356 . S
C1551 H1583 0.930 . S
C1552 N1549 1.279 . S
C1552 C1551 1.358 . S
C1552 H1555 0.930 . S
C1553 C1550 1.348 . S
C1553 C1551 1.356 . S
H1554 C1548 0.930 . S
H1555 C1552 0.930 . S
O1556 Li1496 1.956 . S
O1556 Li1497 1.970 . S
O1556 Li1498 1.961 . S
O1556 C1500 1.325 . S
O1557 Li1496 1.970 . S
O1557 Li1497 1.956 . S
O1557 Li1499 1.961 . S
O1557 C1506 1.325 . S
O1558 Li1496 1.961 . S
O1558 Li1498 1.956 . S
O1558 Li1499 1.970 . S
O1558 C1528 1.325 . S
O1559 Li1497 1.961 . S
O1559 Li1498 1.970 . S
O1559 Li1499 1.956 . S
O1559 C1534 1.325 . S
H1560 C1502 0.929 . S
H1561 C1503 0.930 . S
H1562 C1504 0.930 . S
H1563 C1505 0.930 . S
H1564 C1507 0.930 . S
H1565 C1509 0.929 . S
H1566 C1510 0.930 . S
H1567 C1511 0.930 . S
H1568 C1514 0.930 . S
H1569 C1517 0.929 . S
H1570 C1522 0.929 . S
H1571 C1523 0.930 . S
H1572 C1530 0.929 . S
H1573 C1531 0.930 . S
H1574 C1532 0.930 . S
H1575 C1533 0.930 . S
H1576 C1535 0.929 . S
H1577 C1536 0.930 . S
H1578 C1537 0.930 . S
H1579 C1538 0.930 . S
H1580 C1542 0.929 . S
H1581 C1544 0.930 . S
H1582 C1550 0.929 . S
H1583 C1551 0.930 . S
Li1584 N1601 1.990 . S
Li1584 O1644 1.956 . S
Li1584 O1645 1.970 . S
Li1584 O1646 1.961 1_545 S
Li1585 N1609 1.990 . S
Li1585 O1644 1.970 . S
Li1585 O1645 1.956 . S
Li1585 O1647 1.961 . S
Li1586 N1631 1.990 . S
Li1586 O1644 1.961 . S
Li1586 O1646 1.956 1_545 S
Li1586 O1647 1.970 . S
Li1587 N1637 1.990 . S
Li1587 O1645 1.961 1_565 S
Li1587 O1646 1.970 . S
Li1587 O1647 1.956 1_565 S
C1588 C1590 1.348 . S
C1588 C1591 1.356 . S
C1588 O1644 1.325 . S
N1589 C1592 1.314 . S
N1589 C1593 1.279 . S
C1590 C1588 1.348 . S
C1590 C1592 1.353 . S
C1590 H1648 0.929 . S
C1591 C1588 1.356 . S
C1591 C1593 1.358 . S
C1591 H1649 0.930 . S
C1592 N1589 1.314 . S
C1592 C1590 1.353 . S
C1592 H1650 0.930 . S
C1593 N1589 1.279 . S
C1593 C1591 1.358 . S
C1593 H1651 0.930 . S
C1594 C1597 1.348 . S
C1594 C1598 1.356 . S
C1594 O1645 1.325 . S
C1595 N1596 1.279 . S
C1595 C1598 1.358 . S
C1595 H1652 0.930 1_545 S
N1596 C1595 1.279 . S
N1596 C1599 1.314 . S
C1597 C1594 1.348 . S
C1597 C1599 1.353 . S
C1597 H1653 0.929 . S
C1598 C1594 1.356 . S
C1598 C1595 1.358 . S
C1598 H1654 0.919 1_545 S
C1599 N1596 1.314 . S
C1599 C1597 1.353 . S
C1599 H1655 0.930 . S
C1600 N1601 1.314 1_565 S
C1600 C1605 1.353 . S
C1600 H1606 0.930 . S
N1601 Li1584 1.990 . S
N1601 C1600 1.314 1_545 S
N1601 C1603 1.279 . S
C1602 C1603 1.358 . S
C1602 C1604 1.356 . S
C1602 H1656 0.930 . S
C1603 N1601 1.279 . S
C1603 C1602 1.358 . S
C1603 H1607 0.930 . S
C1604 C1602 1.356 . S
C1604 C1605 1.348 1_545 S
C1605 C1600 1.353 . S
C1605 C1604 1.348 1_565 S
C1605 H1657 0.929 . S
H1606 C1600 0.930 . S
H1607 C1603 0.930 . S
C1608 N1609 1.314 . S
C1608 C1610 1.353 . S
C1608 H1614 0.930 . S
N1609 Li1585 1.990 . S
N1609 C1608 1.314 . S
N1609 C1612 1.279 . S
C1610 C1608 1.353 . S
C1610 C1613 1.348 . S
C1610 H1658 0.929 . S
C1611 C1612 1.358 . S
C1611 C1613 1.356 . S
C1611 H1659 0.930 . S
C1612 N1609 1.279 . S
C1612 C1611 1.358 . S
C1612 H1615 0.930 . S
C1613 C1610 1.348 . S
C1613 C1611 1.356 . S
H1614 C1608 0.930 . S
H1615 C1612 0.930 . S
C1616 C1618 1.348 . S
C1616 C1619 1.356 . S
C1616 O1646 1.325 . S
N1617 C1620 1.314 . S
N1617 C1621 1.279 . S
C1618 C1616 1.348 . S
C1618 C1620 1.353 . S
C1618 H1660 0.929 . S
C1619 C1616 1.356 . S
C1619 C1621 1.358 . S
C1619 H1661 0.930 . S
C1620 N1617 1.314 . S
C1620 C1618 1.353 . S
C1620 H1662 0.930 . S
C1621 N1617 1.279 . S
C1621 C1619 1.358 . S
C1621 H1663 0.930 . S
C1622 C1623 1.360 . S
C1622 C1624 1.356 . S
C1622 O1647 1.325 . S
C1623 C1622 1.360 . S
C1623 C1625 1.353 . S
C1623 H1664 0.918 1_545 S
C1624 C1622 1.356 . S
C1624 C1626 1.358 . S
C1624 H1665 0.930 . S
C1625 C1623 1.353 . S
C1625 N1627 1.323 . S
C1625 H1666 0.921 1_545 S
C1626 C1624 1.358 . S
C1626 N1627 1.279 . S
C1626 H1667 0.930 . S
N1627 C1625 1.323 . S
N1627 C1626 1.279 . S
C1628 C1630 1.353 . S
C1628 N1631 1.314 . S
C1628 H1634 0.930 . S
C1629 N1631 1.279 1_565 S
C1629 C1632 1.358 . S
C1629 H1635 0.930 . S
C1630 C1628 1.353 . S
C1630 C1633 1.348 . S
C1630 H1668 0.929 . S
N1631 Li1586 1.990 . S
N1631 C1628 1.314 . S
N1631 C1629 1.279 1_545 S
C1632 C1629 1.358 . S
C1632 C1633 1.356 1_565 S
C1632 H1669 0.930 . S
C1633 C1630 1.348 . S
C1633 C1632 1.356 1_545 S
H1634 C1628 0.930 . S
H1635 C1629 0.930 . S
C1636 N1637 1.314 . S
C1636 C1638 1.353 . S
C1636 H1642 0.930 . S
N1637 Li1587 1.990 . S
N1637 C1636 1.314 . S
N1637 C1640 1.279 . S
C1638 C1636 1.353 . S
C1638 C1641 1.348 . S
C1638 H1670 0.929 . S
C1639 C1640 1.358 . S
C1639 C1641 1.356 . S
C1639 H1671 0.930 . S
C1640 N1637 1.279 . S
C1640 C1639 1.358 . S
C1640 H1643 0.930 . S
C1641 C1638 1.348 . S
C1641 C1639 1.356 . S
H1642 C1636 0.930 . S
H1643 C1640 0.930 . S
O1644 Li1584 1.956 . S
O1644 Li1585 1.970 . S
O1644 Li1586 1.961 . S
O1644 C1588 1.325 . S
O1645 Li1584 1.970 . S
O1645 Li1585 1.956 . S
O1645 Li1587 1.961 1_545 S
O1645 C1594 1.325 . S
O1646 Li1584 1.961 1_565 S
O1646 Li1586 1.956 1_565 S
O1646 Li1587 1.970 . S
O1646 C1616 1.325 . S
O1647 Li1585 1.961 . S
O1647 Li1586 1.970 . S
O1647 Li1587 1.956 1_545 S
O1647 C1622 1.325 . S
H1648 C1590 0.929 . S
H1649 C1591 0.930 . S
H1650 C1592 0.930 . S
H1651 C1593 0.930 . S
H1652 C1595 0.930 1_565 S
H1653 C1597 0.929 . S
H1654 C1598 0.919 1_565 S
H1655 C1599 0.930 . S
H1656 C1602 0.930 . S
H1657 C1605 0.929 . S
H1658 C1610 0.929 . S
H1659 C1611 0.930 . S
H1660 C1618 0.929 . S
H1661 C1619 0.930 . S
H1662 C1620 0.930 . S
H1663 C1621 0.930 . S
H1664 C1623 0.918 1_565 S
H1665 C1624 0.930 . S
H1666 C1625 0.921 1_565 S
H1667 C1626 0.930 . S
H1668 C1630 0.929 . S
H1669 C1632 0.930 . S
H1670 C1638 0.929 . S
H1671 C1639 0.930 . S
Li1672 N1689 1.990 . S
Li1672 O1732 1.956 . S
Li1672 O1733 1.970 . S
Li1672 O1734 1.961 1_554 S
Li1673 N1697 1.990 . S
Li1673 O1732 1.970 . S
Li1673 O1733 1.956 . S
Li1673 O1735 1.961 . S
Li1674 N1719 1.990 . S
Li1674 O1732 1.961 . S
Li1674 O1734 1.956 1_554 S
Li1674 O1735 1.970 . S
Li1675 N1725 1.990 . S
Li1675 O1733 1.961 1_556 S
Li1675 O1734 1.970 . S
Li1675 O1735 1.956 1_556 S
C1676 C1678 1.348 . S
C1676 C1679 1.356 . S
C1676 O1732 1.325 . S
N1677 C1680 1.314 . S
N1677 C1681 1.279 . S
C1678 C1676 1.348 . S
C1678 C1680 1.353 . S
C1678 H1736 0.929 . S
C1679 C1676 1.356 . S
C1679 C1681 1.358 . S
C1679 H1737 0.930 . S
C1680 N1677 1.314 . S
C1680 C1678 1.353 . S
C1680 H1738 0.930 . S
C1681 N1677 1.279 . S
C1681 C1679 1.358 . S
C1681 H1739 0.930 . S
C1682 C1685 1.348 . S
C1682 C1686 1.356 . S
C1682 O1733 1.325 . S
C1683 N1684 1.279 . S
C1683 C1686 1.358 . S
C1683 H1740 0.930 . S
N1684 C1683 1.279 . S
N1684 C1687 1.314 . S
C1685 C1682 1.348 . S
C1685 C1687 1.353 . S
C1685 H1741 0.929 . S
C1686 C1682 1.356 . S
C1686 C1683 1.358 . S
C1686 H1742 0.930 . S
C1687 N1684 1.314 . S
C1687 C1685 1.353 . S
C1687 H1743 0.930 . S
C1688 N1689 1.314 . S
C1688 C1693 1.353 . S
C1688 H1694 0.930 1_554 S
N1689 Li1672 1.990 . S
N1689 C1688 1.314 . S
N1689 C1691 1.279 . S
C1690 C1691 1.358 . S
C1690 C1692 1.356 . S
C1690 H1744 0.930 . S
C1691 N1689 1.279 . S
C1691 C1690 1.358 . S
C1691 H1695 0.930 . S
C1692 C1690 1.356 . S
C1692 C1693 1.348 . S
C1693 C1688 1.353 . S
C1693 C1692 1.348 . S
C1693 H1745 0.929 1_554 S
H1694 C1688 0.930 1_556 S
H1695 C1691 0.930 . S
C1696 N1697 1.314 . S
C1696 C1698 1.353 . S
C1696 H1702 0.930 . S
N1697 Li1673 1.990 . S
N1697 C1696 1.314 . S
N1697 C1700 1.279 . S
C1698 C1696 1.353 . S
C1698 C1701 1.348 . S
C1698 H1746 0.929 . S
C1699 C1700 1.358 . S
C1699 C1701 1.356 . S
C1699 H1747 0.930 . S
C1700 N1697 1.279 . S
C1700 C1699 1.358 . S
C1700 H1703 0.930 . S
C1701 C1698 1.348 . S
C1701 C1699 1.356 . S
H1702 C1696 0.930 . S
H1703 C1700 0.930 . S
C1704 C1706 1.348 . S
C1704 C1707 1.356 . S
C1704 O1734 1.325 . S
N1705 C1708 1.314 . S
N1705 C1709 1.279 . S
C1706 C1704 1.348 . S
C1706 C1708 1.353 . S
C1706 H1748 0.929 . S
C1707 C1704 1.356 . S
C1707 C1709 1.358 . S
C1707 H1749 0.930 . S
C1708 N1705 1.314 . S
C1708 C1706 1.353 . S
C1708 H1750 0.930 . S
C1709 N1705 1.279 . S
C1709 C1707 1.358 . S
C1709 H1751 0.930 . S
C1710 C1711 1.348 . S
C1710 C1712 1.356 . S
C1710 O1735 1.325 . S
C1711 C1710 1.348 . S
C1711 C1713 1.353 . S
C1711 H1752 0.929 . S
C1712 C1710 1.356 . S
C1712 C1714 1.358 . S
C1712 H1753 0.930 . S
C1713 C1711 1.353 . S
C1713 N1715 1.314 . S
C1713 H1754 0.930 . S
C1714 C1712 1.358 . S
C1714 N1715 1.279 . S
C1714 H1755 0.930 . S
N1715 C1713 1.314 . S
N1715 C1714 1.279 . S
C1716 C1718 1.353 . S
C1716 N1719 1.314 . S
C1716 H1722 0.930 . S
C1717 N1719 1.326 . S
C1717 C1720 1.359 . S
C1717 H1723 0.880 1_554 S
C1718 C1716 1.353 . S
C1718 C1721 1.348 . S
C1718 H1756 0.929 . S
N1719 Li1674 1.990 . S
N1719 C1716 1.314 . S
N1719 C1717 1.326 . S
C1720 C1717 1.359 . S
C1720 C1721 1.362 . S
C1720 H1757 0.923 1_554 S
C1721 C1718 1.348 . S
C1721 C1720 1.362 . S
H1722 C1716 0.930 . S
H1723 C1717 0.880 1_556 S
C1724 N1725 1.314 . S
C1724 C1726 1.353 . S
C1724 H1730 0.930 . S
N1725 Li1675 1.990 . S
N1725 C1724 1.314 . S
N1725 C1728 1.279 . S
C1726 C1724 1.353 . S
C1726 C1729 1.348 . S
C1726 H1758 0.929 . S
C1727 C1728 1.358 . S
C1727 C1729 1.356 . S
C1727 H1759 0.930 . S
C1728 N1725 1.279 . S
C1728 C1727 1.358 . S
C1728 H1731 0.930 . S
C1729 C1726 1.348 . S
C1729 C1727 1.356 . S
H1730 C1724 0.930 . S
H1731 C1728 0.930 . S
O1732 Li1672 1.956 . S
O1732 Li1673 1.970 . S
O1732 Li1674 1.961 . S
O1732 C1676 1.325 . S
O1733 Li1672 1.970 . S
O1733 Li1673 1.956 . S
O1733 Li1675 1.961 1_554 S
O1733 C1682 1.325 . S
O1734 Li1672 1.961 1_556 S
O1734 Li1674 1.956 1_556 S
O1734 Li1675 1.970 . S
O1734 C1704 1.325 . S
O1735 Li1673 1.961 . S
O1735 Li1674 1.970 . S
O1735 Li1675 1.956 1_554 S
O1735 C1710 1.325 . S
H1736 C1678 0.929 . S
H1737 C1679 0.930 . S
H1738 C1680 0.930 . S
H1739 C1681 0.930 . S
H1740 C1683 0.930 . S
H1741 C1685 0.929 . S
H1742 C1686 0.930 . S
H1743 C1687 0.930 . S
H1744 C1690 0.930 . S
H1745 C1693 0.929 1_556 S
H1746 C1698 0.929 . S
H1747 C1699 0.930 . S
H1748 C1706 0.929 . S
H1749 C1707 0.930 . S
H1750 C1708 0.930 . S
H1751 C1709 0.930 . S
H1752 C1711 0.929 . S
H1753 C1712 0.930 . S
H1754 C1713 0.930 . S
H1755 C1714 0.930 . S
H1756 C1718 0.929 . S
H1757 C1720 0.923 1_556 S
H1758 C1726 0.929 . S
H1759 C1727 0.930 . S
Li1760 N1777 1.990 . S
Li1760 O1820 1.920 1_554 S
Li1760 O1821 1.970 . S
Li1760 O1822 1.996 . S
Li1761 N1785 1.990 . S
Li1761 O1820 1.969 1_554 S
Li1761 O1821 1.974 . S
Li1761 O1823 1.942 1_554 S
Li1762 N1807 1.990 . S
Li1762 O1820 1.997 . S
Li1762 O1822 1.921 1_556 S
Li1762 O1823 1.970 . S
Li1763 N1813 1.990 1_556 S
Li1763 O1821 1.964 1_556 S
Li1763 O1822 1.969 1_556 S
Li1763 O1823 1.953 . S
C1764 C1766 1.335 1_556 S
C1764 C1767 1.364 . S
C1764 O1820 1.324 . S
N1765 C1768 1.314 . S
N1765 C1769 1.280 1_554 S
C1766 C1764 1.335 1_554 S
C1766 C1768 1.353 . S
C1766 H1824 0.929 . S
C1767 C1764 1.364 . S
C1767 C1769 1.358 . S
C1767 H1825 0.930 . S
C1768 N1765 1.314 . S
C1768 C1766 1.353 . S
C1768 H1826 0.930 . S
C1769 N1765 1.280 1_556 S
C1769 C1767 1.358 . S
C1769 H1827 0.930 . S
C1770 C1773 1.348 . S
C1770 C1774 1.356 . S
C1770 O1821 1.325 . S
C1771 N1772 1.279 . S
C1771 C1774 1.358 . S
C1771 H1828 0.930 . S
N1772 C1771 1.279 . S
N1772 C1775 1.314 . S
C1773 C1770 1.348 . S
C1773 C1775 1.353 . S
C1773 H1829 0.929 . S
C1774 C1770 1.356 . S
C1774 C1771 1.358 . S
C1774 H1830 0.930 . S
C1775 N1772 1.314 . S
C1775 C1773 1.353 . S
C1775 H1831 0.930 . S
C1776 N1777 1.314 . S
C1776 C1781 1.353 . S
C1776 H1782 0.930 . S
N1777 Li1760 1.990 . S
N1777 C1776 1.314 . S
N1777 C1779 1.279 . S
C1778 C1779 1.358 . S
C1778 C1780 1.356 . S
C1778 H1832 0.930 . S
C1779 N1777 1.279 . S
C1779 C1778 1.358 . S
C1779 H1783 0.930 . S
C1780 C1778 1.356 . S
C1780 C1781 1.348 . S
C1781 C1776 1.353 . S
C1781 C1780 1.348 . S
C1781 H1833 0.929 . S
H1782 C1776 0.930 . S
H1783 C1779 0.930 . S
C1784 N1785 1.288 1_556 S
C1784 C1786 1.353 . S
C1784 H1790 0.930 . S
N1785 Li1761 1.990 . S
N1785 C1784 1.288 1_554 S
N1785 C1788 1.305 . S
C1786 C1784 1.353 . S
C1786 C1789 1.376 . S
C1786 H1834 0.929 . S
C1787 C1788 1.358 . S
C1787 C1789 1.329 1_554 S
C1787 H1835 0.930 . S
C1788 N1785 1.305 . S
C1788 C1787 1.358 . S
C1788 H1791 0.930 . S
C1789 C1786 1.376 . S
C1789 C1787 1.329 1_556 S
H1790 C1784 0.930 . S
H1791 C1788 0.930 . S
C1792 C1794 1.339 1_554 S
C1792 C1795 1.361 . S
C1792 O1822 1.324 . S
N1793 C1796 1.324 . S
N1793 C1797 1.270 1_556 S
C1794 C1792 1.339 1_556 S
C1794 C1796 1.353 . S
C1794 H1836 0.929 . S
C1795 C1792 1.361 . S
C1795 C1797 1.358 . S
C1795 H1837 0.930 . S
C1796 N1793 1.324 . S
C1796 C1794 1.353 . S
C1796 H1838 0.930 . S
C1797 N1793 1.270 1_554 S
C1797 C1795 1.358 . S
C1797 H1839 0.930 . S
C1798 C1799 1.348 . S
C1798 C1800 1.356 . S
C1798 O1823 1.325 . S
C1799 C1798 1.348 . S
C1799 C1801 1.353 . S
C1799 H1840 0.929 . S
C1800 C1798 1.356 . S
C1800 C1802 1.358 . S
C1800 H1841 0.930 . S
C1801 C1799 1.353 . S
C1801 N1803 1.314 . S
C1801 H1842 0.930 . S
C1802 C1800 1.358 . S
C1802 N1803 1.279 . S
C1802 H1843 0.930 . S
N1803 C1801 1.314 . S
N1803 C1802 1.279 . S
C1804 C1806 1.353 . S
C1804 N1807 1.314 . S
C1804 H1810 0.930 . S
C1805 N1807 1.279 . S
C1805 C1808 1.358 . S
C1805 H1811 0.930 . S
C1806 C1804 1.353 . S
C1806 C1809 1.348 . S
C1806 H1844 0.929 . S
N1807 Li1762 1.990 . S
N1807 C1804 1.314 . S
N1807 C1805 1.279 . S
C1808 C1805 1.358 . S
C1808 C1809 1.356 . S
C1808 H1845 0.930 . S
C1809 C1806 1.348 . S
C1809 C1808 1.356 . S
H1810 C1804 0.930 . S
H1811 C1805 0.930 . S
C1812 N1813 1.316 . S
C1812 C1814 1.353 . S
C1812 H1818 0.930 . S
N1813 Li1763 1.990 1_554 S
N1813 C1812 1.316 . S
N1813 C1816 1.277 1_554 S
C1814 C1812 1.353 . S
C1814 C1817 1.348 . S
C1814 H1846 0.929 . S
C1815 C1816 1.358 . S
C1815 C1817 1.356 1_556 S
C1815 H1847 0.930 . S
C1816 N1813 1.277 1_556 S
C1816 C1815 1.358 . S
C1816 H1819 0.930 . S
C1817 C1814 1.348 . S
C1817 C1815 1.356 1_554 S
H1818 C1812 0.930 . S
H1819 C1816 0.930 . S
O1820 Li1760 1.920 1_556 S
O1820 Li1761 1.969 1_556 S
O1820 Li1762 1.997 . S
O1820 C1764 1.324 . S
O1821 Li1760 1.970 . S
O1821 Li1761 1.974 . S
O1821 Li1763 1.964 1_554 S
O1821 C1770 1.325 . S
O1822 Li1760 1.996 . S
O1822 Li1762 1.921 1_554 S
O1822 Li1763 1.969 1_554 S
O1822 C1792 1.324 . S
O1823 Li1761 1.942 1_556 S
O1823 Li1762 1.970 . S
O1823 Li1763 1.953 . S
O1823 C1798 1.325 . S
H1824 C1766 0.929 . S
H1825 C1767 0.930 . S
H1826 C1768 0.930 . S
H1827 C1769 0.930 . S
H1828 C1771 0.930 . S
H1829 C1773 0.929 . S
H1830 C1774 0.930 . S
H1831 C1775 0.930 . S
H1832 C1778 0.930 . S
H1833 C1781 0.929 . S
H1834 C1786 0.929 . S
H1835 C1787 0.930 . S
H1836 C1794 0.929 . S
H1837 C1795 0.930 . S
H1838 C1796 0.930 . S
H1839 C1797 0.930 . S
H1840 C1799 0.929 . S
H1841 C1800 0.930 . S
H1842 C1801 0.930 . S
H1843 C1802 0.930 . S
H1844 C1806 0.929 . S
H1845 C1808 0.930 . S
H1846 C1814 0.929 . S
H1847 C1815 0.930 . S
Li1848 N1865 1.990 . S
Li1848 O1908 1.956 . S
Li1848 O1909 1.970 . S
Li1848 O1910 1.961 . S
Li1849 N1873 1.990 . S
Li1849 O1908 1.970 . S
Li1849 O1909 1.956 . S
Li1849 O1911 1.961 . S
Li1850 N1895 1.990 . S
Li1850 O1908 1.961 . S
Li1850 O1910 1.956 . S
Li1850 O1911 1.970 . S
Li1851 N1901 1.990 . S
Li1851 O1909 1.961 . S
Li1851 O1910 1.970 . S
Li1851 O1911 1.956 . S
C1852 C1854 1.348 . S
C1852 C1855 1.356 . S
C1852 O1908 1.325 . S
N1853 C1856 1.314 . S
N1853 C1857 1.279 . S
C1854 C1852 1.348 . S
C1854 C1856 1.353 . S
C1854 H1912 0.929 . S
C1855 C1852 1.356 . S
C1855 C1857 1.358 . S
C1855 H1913 0.930 . S
C1856 N1853 1.314 . S
C1856 C1854 1.353 . S
C1856 H1914 0.930 . S
C1857 N1853 1.279 . S
C1857 C1855 1.358 . S
C1857 H1915 0.930 . S
C1858 C1861 1.348 . S
C1858 C1862 1.356 . S
C1858 O1909 1.325 . S
C1859 N1860 1.279 . S
C1859 C1862 1.358 . S
C1859 H1916 0.930 . S
N1860 C1859 1.279 . S
N1860 C1863 1.314 . S
C1861 C1858 1.348 . S
C1861 C1863 1.353 . S
C1861 H1917 0.929 . S
C1862 C1858 1.356 . S
C1862 C1859 1.358 . S
C1862 H1918 0.930 . S
C1863 N1860 1.314 . S
C1863 C1861 1.353 . S
C1863 H1919 0.930 . S
C1864 N1865 1.314 . S
C1864 C1869 1.353 . S
C1864 H1870 0.930 . S
N1865 Li1848 1.990 . S
N1865 C1864 1.314 . S
N1865 C1867 1.279 . S
C1866 C1867 1.358 . S
C1866 C1868 1.356 . S
C1866 H1920 0.930 . S
C1867 N1865 1.279 . S
C1867 C1866 1.358 . S
C1867 H1871 0.930 . S
C1868 C1866 1.356 . S
C1868 C1869 1.348 . S
C1869 C1864 1.353 . S
C1869 C1868 1.348 . S
C1869 H1921 0.929 . S
H1870 C1864 0.930 . S
H1871 C1867 0.930 . S
C1872 N1873 1.314 . S
C1872 C1874 1.353 . S
C1872 H1878 0.930 . S
N1873 Li1849 1.990 . S
N1873 C1872 1.314 . S
N1873 C1876 1.279 . S
C1874 C1872 1.353 . S
C1874 C1877 1.348 . S
C1874 H1922 0.929 . S
C1875 C1876 1.358 . S
C1875 C1877 1.356 . S
C1875 H1923 0.930 . S
C1876 N1873 1.279 . S
C1876 C1875 1.358 . S
C1876 H1879 0.930 . S
C1877 C1874 1.348 . S
C1877 C1875 1.356 . S
H1878 C1872 0.930 . S
H1879 C1876 0.930 . S
C1880 C1882 1.348 . S
C1880 C1883 1.356 . S
C1880 O1910 1.325 . S
N1881 C1884 1.314 . S
N1881 C1885 1.279 . S
C1882 C1880 1.348 . S
C1882 C1884 1.353 . S
C1882 H1924 0.929 . S
C1883 C1880 1.356 . S
C1883 C1885 1.358 . S
C1883 H1925 0.930 . S
C1884 N1881 1.314 . S
C1884 C1882 1.353 . S
C1884 H1926 0.930 . S
C1885 N1881 1.279 . S
C1885 C1883 1.358 . S
C1885 H1927 0.930 . S
C1886 C1887 1.348 . S
C1886 C1888 1.356 . S
C1886 O1911 1.325 . S
C1887 C1886 1.348 . S
C1887 C1889 1.353 . S
C1887 H1928 0.929 . S
C1888 C1886 1.356 . S
C1888 C1890 1.358 . S
C1888 H1929 0.930 . S
C1889 C1887 1.353 . S
C1889 N1891 1.314 . S
C1889 H1930 0.930 . S
C1890 C1888 1.358 . S
C1890 N1891 1.279 . S
C1890 H1931 0.930 . S
N1891 C1889 1.314 . S
N1891 C1890 1.279 . S
C1892 C1894 1.353 . S
C1892 N1895 1.314 . S
C1892 H1898 0.930 . S
C1893 N1895 1.279 . S
C1893 C1896 1.358 . S
C1893 H1899 0.930 . S
C1894 C1892 1.353 . S
C1894 C1897 1.348 . S
C1894 H1932 0.929 . S
N1895 Li1850 1.990 . S
N1895 C1892 1.314 . S
N1895 C1893 1.279 . S
C1896 C1893 1.358 . S
C1896 C1897 1.356 . S
C1896 H1933 0.930 . S
C1897 C1894 1.348 . S
C1897 C1896 1.356 . S
H1898 C1892 0.930 . S
H1899 C1893 0.930 . S
C1900 N1901 1.314 . S
C1900 C1902 1.353 . S
C1900 H1906 0.930 . S
N1901 Li1851 1.990 . S
N1901 C1900 1.314 . S
N1901 C1904 1.279 . S
C1902 C1900 1.353 . S
C1902 C1905 1.348 . S
C1902 H1934 0.929 . S
C1903 C1904 1.358 . S
C1903 C1905 1.356 . S
C1903 H1935 0.930 . S
C1904 N1901 1.279 . S
C1904 C1903 1.358 . S
C1904 H1907 0.930 . S
C1905 C1902 1.348 . S
C1905 C1903 1.356 . S
H1906 C1900 0.930 . S
H1907 C1904 0.930 . S
O1908 Li1848 1.956 . S
O1908 Li1849 1.970 . S
O1908 Li1850 1.961 . S
O1908 C1852 1.325 . S
O1909 Li1848 1.970 . S
O1909 Li1849 1.956 . S
O1909 Li1851 1.961 . S
O1909 C1858 1.325 . S
O1910 Li1848 1.961 . S
O1910 Li1850 1.956 . S
O1910 Li1851 1.970 . S
O1910 C1880 1.325 . S
O1911 Li1849 1.961 . S
O1911 Li1850 1.970 . S
O1911 Li1851 1.956 . S
O1911 C1886 1.325 . S
H1912 C1854 0.929 . S
H1913 C1855 0.930 . S
H1914 C1856 0.930 . S
H1915 C1857 0.930 . S
H1916 C1859 0.930 . S
H1917 C1861 0.929 . S
H1918 C1862 0.930 . S
H1919 C1863 0.930 . S
H1920 C1866 0.930 . S
H1921 C1869 0.929 . S
H1922 C1874 0.929 . S
H1923 C1875 0.930 . S
H1924 C1882 0.929 . S
H1925 C1883 0.930 . S
H1926 C1884 0.930 . S
H1927 C1885 0.930 . S
H1928 C1887 0.929 . S
H1929 C1888 0.930 . S
H1930 C1889 0.930 . S
H1931 C1890 0.930 . S
H1932 C1894 0.929 . S
H1933 C1896 0.930 . S
H1934 C1902 0.929 . S
H1935 C1903 0.930 . S
Li1936 N1953 1.990 . S
Li1936 O1996 1.956 . S
Li1936 O1997 1.970 . S
Li1936 O1998 1.961 . S
Li1937 N1961 1.990 . S
Li1937 O1996 1.970 . S
Li1937 O1997 1.956 . S
Li1937 O1999 1.961 . S
Li1938 N1983 1.990 . S
Li1938 O1996 1.961 . S
Li1938 O1998 1.956 . S
Li1938 O1999 1.970 . S
Li1939 N1989 1.990 . S
Li1939 O1997 1.961 . S
Li1939 O1998 1.970 . S
Li1939 O1999 1.956 . S
C1940 C1942 1.348 . S
C1940 C1943 1.356 . S
C1940 O1996 1.325 . S
N1941 C1944 1.314 . S
N1941 C1945 1.279 . S
C1942 C1940 1.348 . S
C1942 C1944 1.353 . S
C1942 H2000 0.929 . S
C1943 C1940 1.356 . S
C1943 C1945 1.358 . S
C1943 H2001 0.930 . S
C1944 N1941 1.314 . S
C1944 C1942 1.353 . S
C1944 H2002 0.930 . S
C1945 N1941 1.279 . S
C1945 C1943 1.358 . S
C1945 H2003 0.930 . S
C1946 C1949 1.348 . S
C1946 C1950 1.356 . S
C1946 O1997 1.325 . S
C1947 N1948 1.279 . S
C1947 C1950 1.358 . S
C1947 H2004 0.930 . S
N1948 C1947 1.279 . S
N1948 C1951 1.314 . S
C1949 C1946 1.348 . S
C1949 C1951 1.353 . S
C1949 H2005 0.929 . S
C1950 C1946 1.356 . S
C1950 C1947 1.358 . S
C1950 H2006 0.930 . S
C1951 N1948 1.314 . S
C1951 C1949 1.353 . S
C1951 H2007 0.930 . S
C1952 N1953 1.314 . S
C1952 C1957 1.353 . S
C1952 H1958 0.930 . S
N1953 Li1936 1.990 . S
N1953 C1952 1.314 . S
N1953 C1955 1.279 . S
C1954 C1955 1.358 . S
C1954 C1956 1.356 . S
C1954 H2008 0.930 . S
C1955 N1953 1.279 . S
C1955 C1954 1.358 . S
C1955 H1959 0.930 . S
C1956 C1954 1.356 . S
C1956 C1957 1.348 . S
C1957 C1952 1.353 . S
C1957 C1956 1.348 . S
C1957 H2009 0.929 . S
H1958 C1952 0.930 . S
H1959 C1955 0.930 . S
C1960 N1961 1.314 . S
C1960 C1962 1.353 . S
C1960 H1966 0.930 . S
N1961 Li1937 1.990 . S
N1961 C1960 1.314 . S
N1961 C1964 1.279 . S
C1962 C1960 1.353 . S
C1962 C1965 1.348 . S
C1962 H2010 0.929 . S
C1963 C1964 1.358 . S
C1963 C1965 1.356 . S
C1963 H2011 0.930 . S
C1964 N1961 1.279 . S
C1964 C1963 1.358 . S
C1964 H1967 0.930 . S
C1965 C1962 1.348 . S
C1965 C1963 1.356 . S
H1966 C1960 0.930 . S
H1967 C1964 0.930 . S
C1968 C1970 1.348 . S
C1968 C1971 1.356 . S
C1968 O1998 1.325 . S
N1969 C1972 1.314 . S
N1969 C1973 1.279 . S
C1970 C1968 1.348 . S
C1970 C1972 1.353 . S
C1970 H2012 0.929 . S
C1971 C1968 1.356 . S
C1971 C1973 1.358 . S
C1971 H2013 0.930 . S
C1972 N1969 1.314 . S
C1972 C1970 1.353 . S
C1972 H2014 0.930 . S
C1973 N1969 1.279 . S
C1973 C1971 1.358 . S
C1973 H2015 0.930 . S
C1974 C1975 1.348 . S
C1974 C1976 1.356 . S
C1974 O1999 1.325 . S
C1975 C1974 1.348 . S
C1975 C1977 1.353 . S
C1975 H2016 0.929 . S
C1976 C1974 1.356 . S
C1976 C1978 1.358 . S
C1976 H2017 0.930 . S
C1977 C1975 1.353 . S
C1977 N1979 1.314 . S
C1977 H2018 0.930 . S
C1978 C1976 1.358 . S
C1978 N1979 1.279 . S
C1978 H2019 0.930 . S
N1979 C1977 1.314 . S
N1979 C1978 1.279 . S
C1980 C1982 1.353 . S
C1980 N1983 1.314 . S
C1980 H1986 0.930 . S
C1981 N1983 1.279 . S
C1981 C1984 1.358 . S
C1981 H1987 0.930 . S
C1982 C1980 1.353 . S
C1982 C1985 1.348 . S
C1982 H2020 0.929 . S
N1983 Li1938 1.990 . S
N1983 C1980 1.314 . S
N1983 C1981 1.279 . S
C1984 C1981 1.358 . S
C1984 C1985 1.356 . S
C1984 H2021 0.930 . S
C1985 C1982 1.348 . S
C1985 C1984 1.356 . S
H1986 C1980 0.930 . S
H1987 C1981 0.930 . S
C1988 N1989 1.314 . S
C1988 C1990 1.353 . S
C1988 H1994 0.930 . S
N1989 Li1939 1.990 . S
N1989 C1988 1.314 . S
N1989 C1992 1.279 . S
C1990 C1988 1.353 . S
C1990 C1993 1.348 . S
C1990 H2022 0.929 . S
C1991 C1992 1.358 . S
C1991 C1993 1.356 . S
C1991 H2023 0.930 . S
C1992 N1989 1.279 . S
C1992 C1991 1.358 . S
C1992 H1995 0.930 . S
C1993 C1990 1.348 . S
C1993 C1991 1.356 . S
H1994 C1988 0.930 . S
H1995 C1992 0.930 . S
O1996 Li1936 1.956 . S
O1996 Li1937 1.970 . S
O1996 Li1938 1.961 . S
O1996 C1940 1.325 . S
O1997 Li1936 1.970 . S
O1997 Li1937 1.956 . S
O1997 Li1939 1.961 . S
O1997 C1946 1.325 . S
O1998 Li1936 1.961 . S
O1998 Li1938 1.956 . S
O1998 Li1939 1.970 . S
O1998 C1968 1.325 . S
O1999 Li1937 1.961 . S
O1999 Li1938 1.970 . S
O1999 Li1939 1.956 . S
O1999 C1974 1.325 . S
H2000 C1942 0.929 . S
H2001 C1943 0.930 . S
H2002 C1944 0.930 . S
H2003 C1945 0.930 . S
H2004 C1947 0.930 . S
H2005 C1949 0.929 . S
H2006 C1950 0.930 . S
H2007 C1951 0.930 . S
H2008 C1954 0.930 . S
H2009 C1957 0.929 . S
H2010 C1962 0.929 . S
H2011 C1963 0.930 . S
H2012 C1970 0.929 . S
H2013 C1971 0.930 . S
H2014 C1972 0.930 . S
H2015 C1973 0.930 . S
H2016 C1975 0.929 . S
H2017 C1976 0.930 . S
H2018 C1977 0.930 . S
H2019 C1978 0.930 . S
H2020 C1982 0.929 . S
H2021 C1984 0.930 . S
H2022 C1990 0.929 . S
H2023 C1991 0.930 . S
Li2024 N2041 1.990 . S
Li2024 O2084 1.956 . S
Li2024 O2085 1.970 . S
Li2024 O2086 1.961 . S
Li2025 N2049 1.990 . S
Li2025 O2084 1.970 . S
Li2025 O2085 1.956 . S
Li2025 O2087 1.961 . S
Li2026 N2071 1.990 . S
Li2026 O2084 1.961 . S
Li2026 O2086 1.956 . S
Li2026 O2087 1.970 . S
Li2027 N2077 1.990 . S
Li2027 O2085 1.961 . S
Li2027 O2086 1.970 . S
Li2027 O2087 1.956 . S
C2028 C2030 1.348 . S
C2028 C2031 1.356 . S
C2028 O2084 1.325 . S
N2029 C2032 1.314 . S
N2029 C2033 1.279 . S
C2030 C2028 1.348 . S
C2030 C2032 1.353 . S
C2030 H2088 0.929 . S
C2031 C2028 1.356 . S
C2031 C2033 1.358 . S
C2031 H2089 0.930 . S
C2032 N2029 1.314 . S
C2032 C2030 1.353 . S
C2032 H2090 0.930 . S
C2033 N2029 1.279 . S
C2033 C2031 1.358 . S
C2033 H2091 0.930 . S
C2034 C2037 1.348 . S
C2034 C2038 1.356 . S
C2034 O2085 1.325 . S
C2035 N2036 1.279 . S
C2035 C2038 1.358 . S
C2035 H2092 0.930 . S
N2036 C2035 1.279 . S
N2036 C2039 1.314 . S
C2037 C2034 1.348 . S
C2037 C2039 1.353 . S
C2037 H2093 0.929 . S
C2038 C2034 1.356 . S
C2038 C2035 1.358 . S
C2038 H2094 0.930 . S
C2039 N2036 1.314 . S
C2039 C2037 1.353 . S
C2039 H2095 0.930 . S
C2040 N2041 1.314 . S
C2040 C2045 1.353 . S
C2040 H2046 0.930 . S
N2041 Li2024 1.990 . S
N2041 C2040 1.314 . S
N2041 C2043 1.279 . S
C2042 C2043 1.358 . S
C2042 C2044 1.356 . S
C2042 H2096 0.930 . S
C2043 N2041 1.279 . S
C2043 C2042 1.358 . S
C2043 H2047 0.930 . S
C2044 C2042 1.356 . S
C2044 C2045 1.348 . S
C2045 C2040 1.353 . S
C2045 C2044 1.348 . S
C2045 H2097 0.929 . S
H2046 C2040 0.930 . S
H2047 C2043 0.930 . S
C2048 N2049 1.314 . S
C2048 C2050 1.353 . S
C2048 H2054 0.930 . S
N2049 Li2025 1.990 . S
N2049 C2048 1.314 . S
N2049 C2052 1.279 . S
C2050 C2048 1.353 . S
C2050 C2053 1.348 . S
C2050 H2098 0.929 . S
C2051 C2052 1.358 . S
C2051 C2053 1.356 . S
C2051 H2099 0.930 . S
C2052 N2049 1.279 . S
C2052 C2051 1.358 . S
C2052 H2055 0.930 . S
C2053 C2050 1.348 . S
C2053 C2051 1.356 . S
H2054 C2048 0.930 . S
H2055 C2052 0.930 . S
C2056 C2058 1.348 . S
C2056 C2059 1.356 . S
C2056 O2086 1.325 . S
N2057 C2060 1.314 . S
N2057 C2061 1.279 . S
C2058 C2056 1.348 . S
C2058 C2060 1.353 . S
C2058 H2100 0.929 . S
C2059 C2056 1.356 . S
C2059 C2061 1.358 . S
C2059 H2101 0.930 . S
C2060 N2057 1.314 . S
C2060 C2058 1.353 . S
C2060 H2102 0.930 . S
C2061 N2057 1.279 . S
C2061 C2059 1.358 . S
C2061 H2103 0.930 . S
C2062 C2063 1.348 . S
C2062 C2064 1.356 . S
C2062 O2087 1.325 . S
C2063 C2062 1.348 . S
C2063 C2065 1.353 . S
C2063 H2104 0.929 . S
C2064 C2062 1.356 . S
C2064 C2066 1.358 . S
C2064 H2105 0.930 . S
C2065 C2063 1.353 . S
C2065 N2067 1.314 . S
C2065 H2106 0.930 . S
C2066 C2064 1.358 . S
C2066 N2067 1.279 . S
C2066 H2107 0.930 . S
N2067 C2065 1.314 . S
N2067 C2066 1.279 . S
C2068 C2070 1.353 . S
C2068 N2071 1.314 . S
C2068 H2074 0.930 . S
C2069 N2071 1.279 . S
C2069 C2072 1.358 . S
C2069 H2075 0.930 . S
C2070 C2068 1.353 . S
C2070 C2073 1.348 . S
C2070 H2108 0.929 . S
N2071 Li2026 1.990 . S
N2071 C2068 1.314 . S
N2071 C2069 1.279 . S
C2072 C2069 1.358 . S
C2072 C2073 1.356 . S
C2072 H2109 0.930 . S
C2073 C2070 1.348 . S
C2073 C2072 1.356 . S
H2074 C2068 0.930 . S
H2075 C2069 0.930 . S
C2076 N2077 1.314 . S
C2076 C2078 1.353 . S
C2076 H2082 0.930 . S
N2077 Li2027 1.990 . S
N2077 C2076 1.314 . S
N2077 C2080 1.279 . S
C2078 C2076 1.353 . S
C2078 C2081 1.348 . S
C2078 H2110 0.929 . S
C2079 C2080 1.358 . S
C2079 C2081 1.356 . S
C2079 H2111 0.930 . S
C2080 N2077 1.279 . S
C2080 C2079 1.358 . S
C2080 H2083 0.930 . S
C2081 C2078 1.348 . S
C2081 C2079 1.356 . S
H2082 C2076 0.930 . S
H2083 C2080 0.930 . S
O2084 Li2024 1.956 . S
O2084 Li2025 1.970 . S
O2084 Li2026 1.961 . S
O2084 C2028 1.325 . S
O2085 Li2024 1.970 . S
O2085 Li2025 1.956 . S
O2085 Li2027 1.961 . S
O2085 C2034 1.325 . S
O2086 Li2024 1.961 . S
O2086 Li2026 1.956 . S
O2086 Li2027 1.970 . S
O2086 C2056 1.325 . S
O2087 Li2025 1.961 . S
O2087 Li2026 1.970 . S
O2087 Li2027 1.956 . S
O2087 C2062 1.325 . S
H2088 C2030 0.929 . S
H2089 C2031 0.930 . S
H2090 C2032 0.930 . S
H2091 C2033 0.930 . S
H2092 C2035 0.930 . S
H2093 C2037 0.929 . S
H2094 C2038 0.930 . S
H2095 C2039 0.930 . S
H2096 C2042 0.930 . S
H2097 C2045 0.929 . S
H2098 C2050 0.929 . S
H2099 C2051 0.930 . S
H2100 C2058 0.929 . S
H2101 C2059 0.930 . S
H2102 C2060 0.930 . S
H2103 C2061 0.930 . S
H2104 C2063 0.929 . S
H2105 C2064 0.930 . S
H2106 C2065 0.930 . S
H2107 C2066 0.930 . S
H2108 C2070 0.929 . S
H2109 C2072 0.930 . S
H2110 C2078 0.929 . S
H2111 C2079 0.930 . S
Co2112 N2117 2.017 1_554 S
Co2112 O2129 2.006 1_554 S
Co2112 O2132 2.077 1_455 S
Co2112 O2136 2.147 . S
Co2112 O2137 2.020 . S
C2113 O2133 1.259 . S
C2113 O2136 1.258 . S
Co2114 N2123 2.057 . S
Co2114 O2130 2.117 1_545 S
Co2114 O2131 2.020 1_455 S
Co2114 O2133 2.021 . S
Co2114 O2138 2.062 . S
C2115 N2117 1.306 1_655 S
C2115 N2118 1.365 . S
C2115 H2120 0.924 1_655 S
C2116 N2117 1.375 1_655 S
C2116 C2119 1.350 . S
C2116 H2121 0.930 . S
N2117 Co2112 2.017 1_556 S
N2117 C2115 1.306 1_455 S
N2117 C2116 1.375 1_455 S
N2118 C2115 1.365 . S
N2118 C2119 1.373 . S
C2119 C2116 1.350 . S
C2119 N2118 1.373 . S
C2119 H2140 0.931 . S
H2120 C2115 0.924 1_455 S
H2121 C2116 0.930 . S
C2122 O2129 1.259 1_564 S
C2122 O2130 1.258 . S
N2123 Co2114 2.057 . S
N2123 C2124 1.316 . S
N2123 C2125 1.375 1_545 S
C2124 N2123 1.316 . S
C2124 N2126 1.347 . S
C2124 H2135 0.931 . S
C2125 N2123 1.375 1_565 S
C2125 C2127 1.350 . S
C2125 H2134 0.930 . S
N2126 C2124 1.347 . S
N2126 C2127 1.373 1_545 S
C2127 C2125 1.350 . S
C2127 N2126 1.373 1_565 S
C2127 H2141 0.931 . S
C2128 O2131 1.256 . S
C2128 O2132 1.255 . S
O2129 Co2112 2.006 1_556 S
O2129 C2122 1.259 1_546 S
O2130 Co2114 2.117 1_565 S
O2130 C2122 1.258 . S
O2131 Co2114 2.020 1_655 S
O2131 C2128 1.256 . S
O2132 Co2112 2.077 1_655 S
O2132 C2128 1.255 . S
O2133 C2113 1.259 . S
O2133 Co2114 2.021 . S
H2134 C2125 0.930 . S
H2135 C2124 0.931 . S
O2136 Co2112 2.147 . S
O2136 C2113 1.258 . S
O2137 Co2112 2.020 . S
O2137 C2139 1.282 . S
O2138 Co2114 2.062 . S
O2138 C2139 1.255 . S
C2139 O2137 1.282 . S
C2139 O2138 1.255 . S
H2140 C2119 0.931 . S
H2141 C2127 0.931 . S
Co2142 N2147 2.057 . S
Co2142 O2159 2.021 . S
Co2142 O2162 2.062 . S
Co2142 O2166 2.117 . S
Co2142 O2167 2.020 . S
C2143 O2163 1.259 . S
C2143 O2166 1.258 . S
Co2144 N2153 2.057 . S
Co2144 O2160 2.117 . S
Co2144 O2161 2.020 . S
Co2144 O2163 2.021 . S
Co2144 O2168 2.062 . S
C2145 N2147 1.316 . S
C2145 N2148 1.347 . S
C2145 H2150 0.931 . S
C2146 N2147 1.375 . S
C2146 C2149 1.350 . S
C2146 H2151 0.930 . S
N2147 Co2142 2.057 . S
N2147 C2145 1.316 . S
N2147 C2146 1.375 . S
N2148 C2145 1.347 . S
N2148 C2149 1.373 . S
C2149 C2146 1.350 . S
C2149 N2148 1.373 . S
C2149 H2170 0.931 . S
H2150 C2145 0.931 . S
H2151 C2146 0.930 . S
C2152 O2159 1.259 . S
C2152 O2160 1.258 . S
N2153 Co2144 2.057 . S
N2153 C2154 1.316 . S
N2153 C2155 1.375 . S
C2154 N2153 1.316 . S
C2154 N2156 1.347 . S
C2154 H2165 0.931 . S
C2155 N2153 1.375 . S
C2155 C2157 1.350 . S
C2155 H2164 0.930 . S
N2156 C2154 1.347 . S
N2156 C2157 1.373 . S
C2157 C2155 1.350 . S
C2157 N2156 1.373 . S
C2157 H2171 0.931 . S
C2158 O2161 1.256 . S
C2158 O2162 1.255 . S
O2159 Co2142 2.021 . S
O2159 C2152 1.259 . S
O2160 Co2144 2.117 . S
O2160 C2152 1.258 . S
O2161 Co2144 2.020 . S
O2161 C2158 1.256 . S
O2162 Co2142 2.062 . S
O2162 C2158 1.255 . S
O2163 C2143 1.259 . S
O2163 Co2144 2.021 . S
H2164 C2155 0.930 . S
H2165 C2154 0.931 . S
O2166 Co2142 2.117 . S
O2166 C2143 1.258 . S
O2167 Co2142 2.020 . S
O2167 C2169 1.256 . S
O2168 Co2144 2.062 . S
O2168 C2169 1.255 . S
C2169 O2167 1.256 . S
C2169 O2168 1.255 . S
H2170 C2149 0.931 . S
H2171 C2157 0.931 . S
Co2172 N2177 2.057 . S
Co2172 O2189 2.021 1_545 S
Co2172 O2192 2.062 . S
Co2172 O2196 2.117 . S
Co2172 O2197 2.020 . S
C2173 O2193 1.259 . S
C2173 O2196 1.258 . S
Co2174 N2183 2.057 . S
Co2174 O2190 2.117 . S
Co2174 O2191 2.020 . S
Co2174 O2193 2.021 . S
Co2174 O2198 2.062 . S
C2175 N2177 1.299 1_565 S
C2175 N2178 1.343 1_565 S
C2175 H2180 0.949 . S
C2176 N2177 1.375 . S
C2176 C2179 1.350 . S
C2176 H2181 0.930 . S
N2177 Co2172 2.057 . S
N2177 C2175 1.299 1_545 S
N2177 C2176 1.375 . S
N2178 C2175 1.343 1_545 S
N2178 C2179 1.373 . S
C2179 C2176 1.350 . S
C2179 N2178 1.373 . S
C2179 H2200 0.931 . S
H2180 C2175 0.949 . S
H2181 C2176 0.930 . S
C2182 O2189 1.259 . S
C2182 O2190 1.258 1_565 S
N2183 Co2174 2.057 . S
N2183 C2184 1.316 . S
N2183 C2185 1.375 . S
C2184 N2183 1.316 . S
C2184 N2186 1.347 . S
C2184 H2195 0.931 . S
C2185 N2183 1.375 . S
C2185 C2187 1.350 . S
C2185 H2194 0.930 . S
N2186 C2184 1.347 . S
N2186 C2187 1.373 . S
C2187 C2185 1.350 . S
C2187 N2186 1.373 . S
C2187 H2201 0.931 . S
C2188 O2191 1.256 . S
C2188 O2192 1.255 . S
O2189 Co2172 2.021 1_565 S
O2189 C2182 1.259 . S
O2190 Co2174 2.117 . S
O2190 C2182 1.258 1_545 S
O2191 Co2174 2.020 . S
O2191 C2188 1.256 . S
O2192 Co2172 2.062 . S
O2192 C2188 1.255 . S
O2193 C2173 1.259 . S
O2193 Co2174 2.021 . S
H2194 C2185 0.930 . S
H2195 C2184 0.931 . S
O2196 Co2172 2.117 . S
O2196 C2173 1.258 . S
O2197 Co2172 2.020 . S
O2197 C2199 1.256 . S
O2198 Co2174 2.062 . S
O2198 C2199 1.255 . S
C2199 O2197 1.256 . S
C2199 O2198 1.255 . S
H2200 C2179 0.931 . S
H2201 C2187 0.931 . S
Co2202 N2207 2.057 . S
Co2202 O2219 2.021 . S
Co2202 O2222 2.062 . S
Co2202 O2226 2.117 . S
Co2202 O2227 2.020 . S
C2203 O2223 1.259 . S
C2203 O2226 1.258 . S
Co2204 N2213 2.057 . S
Co2204 O2220 2.117 . S
Co2204 O2221 2.020 . S
Co2204 O2223 2.021 . S
Co2204 O2228 2.062 . S
C2205 N2207 1.316 . S
C2205 N2208 1.347 . S
C2205 H2210 0.931 . S
C2206 N2207 1.375 . S
C2206 C2209 1.350 . S
C2206 H2211 0.930 . S
N2207 Co2202 2.057 . S
N2207 C2205 1.316 . S
N2207 C2206 1.375 . S
N2208 C2205 1.347 . S
N2208 C2209 1.373 . S
C2209 C2206 1.350 . S
C2209 N2208 1.373 . S
C2209 H2230 0.931 . S
H2210 C2205 0.931 . S
H2211 C2206 0.930 . S
C2212 O2219 1.259 . S
C2212 O2220 1.258 . S
N2213 Co2204 2.057 . S
N2213 C2214 1.316 . S
N2213 C2215 1.375 . S
C2214 N2213 1.316 . S
C2214 N2216 1.347 . S
C2214 H2225 0.931 . S
C2215 N2213 1.375 . S
C2215 C2217 1.350 . S
C2215 H2224 0.930 . S
N2216 C2214 1.347 . S
N2216 C2217 1.373 . S
C2217 C2215 1.350 . S
C2217 N2216 1.373 . S
C2217 H2231 0.931 . S
C2218 O2221 1.256 . S
C2218 O2222 1.255 . S
O2219 Co2202 2.021 . S
O2219 C2212 1.259 . S
O2220 Co2204 2.117 . S
O2220 C2212 1.258 . S
O2221 Co2204 2.020 . S
O2221 C2218 1.256 . S
O2222 Co2202 2.062 . S
O2222 C2218 1.255 . S
O2223 C2203 1.259 . S
O2223 Co2204 2.021 . S
H2224 C2215 0.930 . S
H2225 C2214 0.931 . S
O2226 Co2202 2.117 . S
O2226 C2203 1.258 . S
O2227 Co2202 2.020 . S
O2227 C2229 1.256 . S
O2228 Co2204 2.062 . S
O2228 C2229 1.255 . S
C2229 O2227 1.256 . S
C2229 O2228 1.255 . S
H2230 C2209 0.931 . S
H2231 C2217 0.931 . S
Co2232 N2237 2.057 1_545 S
Co2232 O2249 2.021 . S
Co2232 O2252 2.069 . S
Co2232 O2256 2.117 . S
Co2232 O2257 2.020 1_455 S
C2233 O2253 1.259 . S
C2233 O2256 1.258 . S
Co2234 N2243 2.057 . S
Co2234 O2250 2.117 . S
Co2234 O2251 2.020 . S
Co2234 O2253 2.021 . S
Co2234 O2258 2.062 1_455 S
C2235 N2237 1.316 . S
C2235 N2238 1.347 . S
C2235 H2240 0.931 . S
C2236 N2237 1.375 1_655 S
C2236 C2239 1.350 . S
C2236 H2241 0.930 . S
N2237 Co2232 2.057 1_565 S
N2237 C2235 1.316 . S
N2237 C2236 1.375 1_455 S
N2238 C2235 1.347 . S
N2238 C2239 1.373 1_455 S
C2239 C2236 1.350 . S
C2239 N2238 1.373 1_655 S
C2239 H2260 0.931 . S
H2240 C2235 0.931 . S
H2241 C2236 0.930 . S
C2242 O2249 1.259 . S
C2242 O2250 1.258 . S
N2243 Co2234 2.057 . S
N2243 C2244 1.316 . S
N2243 C2245 1.375 . S
C2244 N2243 1.316 . S
C2244 N2246 1.347 . S
C2244 H2255 0.931 . S
C2245 N2243 1.375 . S
C2245 C2247 1.350 . S
C2245 H2254 0.930 . S
N2246 C2244 1.347 . S
N2246 C2247 1.373 . S
C2247 C2245 1.350 . S
C2247 N2246 1.373 . S
C2247 H2261 0.931 . S
C2248 O2251 1.256 . S
C2248 O2252 1.275 . S
O2249 Co2232 2.021 . S
O2249 C2242 1.259 . S
O2250 Co2234 2.117 . S
O2250 C2242 1.258 . S
O2251 Co2234 2.020 . S
O2251 C2248 1.256 . S
O2252 Co2232 2.069 . S
O2252 C2248 1.275 . S
O2253 C2233 1.259 . S
O2253 Co2234 2.021 . S
H2254 C2245 0.930 . S
H2255 C2244 0.931 . S
O2256 Co2232 2.117 . S
O2256 C2233 1.258 . S
O2257 Co2232 2.020 1_655 S
O2257 C2259 1.256 . S
O2258 Co2234 2.062 1_655 S
O2258 C2259 1.255 . S
C2259 O2257 1.256 . S
C2259 O2258 1.255 . S
H2260 C2239 0.931 . S
H2261 C2247 0.931 . S
Co2262 N2267 2.057 . S
Co2262 O2279 2.021 . S
Co2262 O2282 2.062 . S
Co2262 O2286 2.117 . S
Co2262 O2287 2.020 . S
C2263 O2283 1.259 . S
C2263 O2286 1.258 . S
Co2264 N2273 2.057 . S
Co2264 O2280 2.117 . S
Co2264 O2281 2.020 . S
Co2264 O2283 2.021 . S
Co2264 O2288 2.062 . S
C2265 N2267 1.316 . S
C2265 N2268 1.347 . S
C2265 H2270 0.931 . S
C2266 N2267 1.375 . S
C2266 C2269 1.350 . S
C2266 H2271 0.930 . S
N2267 Co2262 2.057 . S
N2267 C2265 1.316 . S
N2267 C2266 1.375 . S
N2268 C2265 1.347 . S
N2268 C2269 1.373 . S
C2269 C2266 1.350 . S
C2269 N2268 1.373 . S
C2269 H2290 0.931 . S
H2270 C2265 0.931 . S
H2271 C2266 0.930 . S
C2272 O2279 1.259 . S
C2272 O2280 1.258 . S
N2273 Co2264 2.057 . S
N2273 C2274 1.316 . S
N2273 C2275 1.375 . S
C2274 N2273 1.316 . S
C2274 N2276 1.347 . S
C2274 H2285 0.931 . S
C2275 N2273 1.375 . S
C2275 C2277 1.350 . S
C2275 H2284 0.930 . S
N2276 C2274 1.347 . S
N2276 C2277 1.373 . S
C2277 C2275 1.350 . S
C2277 N2276 1.373 . S
C2277 H2291 0.931 . S
C2278 O2281 1.256 . S
C2278 O2282 1.255 . S
O2279 Co2262 2.021 . S
O2279 C2272 1.259 . S
O2280 Co2264 2.117 . S
O2280 C2272 1.258 . S
O2281 Co2264 2.020 . S
O2281 C2278 1.256 . S
O2282 Co2262 2.062 . S
O2282 C2278 1.255 . S
O2283 C2263 1.259 . S
O2283 Co2264 2.021 . S
H2284 C2275 0.930 . S
H2285 C2274 0.931 . S
O2286 Co2262 2.117 . S
O2286 C2263 1.258 . S
O2287 Co2262 2.020 . S
O2287 C2289 1.256 . S
O2288 Co2264 2.062 . S
O2288 C2289 1.255 . S
C2289 O2287 1.256 . S
C2289 O2288 1.255 . S
H2290 C2269 0.931 . S
H2291 C2277 0.931 . S
Co2292 N2297 2.057 1_554 S
Co2292 O2309 2.021 . S
Co2292 O2312 2.062 1_554 S
Co2292 O2316 2.117 . S
Co2292 O2317 2.020 1_545 S
C2293 O2313 1.259 . S
C2293 O2316 1.258 . S
Co2294 N2303 2.057 . S
Co2294 O2310 2.117 . S
Co2294 O2311 2.020 . S
Co2294 O2313 2.021 . S
Co2294 O2318 2.062 . S
C2295 N2297 1.316 . S
C2295 N2298 1.347 . S
C2295 H2300 0.931 . S
C2296 N2297 1.375 . S
C2296 C2299 1.350 . S
C2296 H2301 0.930 1_545 S
N2297 Co2292 2.057 1_556 S
N2297 C2295 1.316 . S
N2297 C2296 1.375 . S
N2298 C2295 1.347 . S
N2298 C2299 1.373 . S
C2299 C2296 1.350 . S
C2299 N2298 1.373 . S
C2299 H2320 0.931 1_545 S
H2300 C2295 0.931 . S
H2301 C2296 0.930 1_565 S
C2302 O2309 1.259 . S
C2302 O2310 1.258 . S
N2303 Co2294 2.057 . S
N2303 C2304 1.316 . S
N2303 C2305 1.375 . S
C2304 N2303 1.316 . S
C2304 N2306 1.347 . S
C2304 H2315 0.931 . S
C2305 N2303 1.375 . S
C2305 C2307 1.350 . S
C2305 H2314 0.930 . S
N2306 C2304 1.347 . S
N2306 C2307 1.373 . S
C2307 C2305 1.350 . S
C2307 N2306 1.373 . S
C2307 H2321 0.931 . S
C2308 O2311 1.256 . S
C2308 O2312 1.255 1_554 S
O2309 Co2292 2.021 . S
O2309 C2302 1.259 . S
O2310 Co2294 2.117 . S
O2310 C2302 1.258 . S
O2311 Co2294 2.020 . S
O2311 C2308 1.256 . S
O2312 Co2292 2.062 1_556 S
O2312 C2308 1.255 1_556 S
O2313 C2293 1.259 . S
O2313 Co2294 2.021 . S
H2314 C2305 0.930 . S
H2315 C2304 0.931 . S
O2316 Co2292 2.117 . S
O2316 C2293 1.258 . S
O2317 Co2292 2.020 1_565 S
O2317 C2319 1.256 . S
O2318 Co2294 2.062 . S
O2318 C2319 1.255 1_545 S
C2319 O2317 1.256 . S
C2319 O2318 1.255 1_565 S
H2320 C2299 0.931 1_565 S
H2321 C2307 0.931 . S
Co2322 N2327 2.057 . S
Co2322 O2339 2.021 . S
Co2322 O2342 2.062 . S
Co2322 O2346 2.117 . S
Co2322 O2347 2.020 . S
C2323 O2343 1.259 . S
C2323 O2346 1.258 . S
Co2324 N2333 2.057 . S
Co2324 O2340 2.117 . S
Co2324 O2341 2.020 . S
Co2324 O2343 2.021 . S
Co2324 O2348 2.062 . S
C2325 N2327 1.316 . S
C2325 N2328 1.347 . S
C2325 H2330 0.931 . S
C2326 N2327 1.375 . S
C2326 C2329 1.350 . S
C2326 H2331 0.930 . S
N2327 Co2322 2.057 . S
N2327 C2325 1.316 . S
N2327 C2326 1.375 . S
N2328 C2325 1.347 . S
N2328 C2329 1.373 . S
C2329 C2326 1.350 . S
C2329 N2328 1.373 . S
C2329 H2350 0.931 . S
H2330 C2325 0.931 . S
H2331 C2326 0.930 . S
C2332 O2339 1.259 . S
C2332 O2340 1.258 . S
N2333 Co2324 2.057 . S
N2333 C2334 1.316 . S
N2333 C2335 1.375 . S
C2334 N2333 1.316 . S
C2334 N2336 1.347 . S
C2334 H2345 0.931 . S
C2335 N2333 1.375 . S
C2335 C2337 1.350 . S
C2335 H2344 0.930 . S
N2336 C2334 1.347 . S
N2336 C2337 1.373 . S
C2337 C2335 1.350 . S
C2337 N2336 1.373 . S
C2337 H2351 0.931 . S
C2338 O2341 1.256 . S
C2338 O2342 1.255 . S
O2339 Co2322 2.021 . S
O2339 C2332 1.259 . S
O2340 Co2324 2.117 . S
O2340 C2332 1.258 . S
O2341 Co2324 2.020 . S
O2341 C2338 1.256 . S
O2342 Co2322 2.062 . S
O2342 C2338 1.255 . S
O2343 C2323 1.259 . S
O2343 Co2324 2.021 . S
H2344 C2335 0.930 . S
H2345 C2334 0.931 . S
O2346 Co2322 2.117 . S
O2346 C2323 1.258 . S
O2347 Co2322 2.020 . S
O2347 C2349 1.256 . S
O2348 Co2324 2.062 . S
O2348 C2349 1.255 . S
C2349 O2347 1.256 . S
C2349 O2348 1.255 . S
H2350 C2329 0.931 . S
H2351 C2337 0.931 . S
Co2352 N2357 2.057 . S
Co2352 O2369 2.021 1_554 S
Co2352 O2372 2.062 . S
Co2352 O2376 2.117 . S
Co2352 O2377 2.020 . S
C2353 O2373 1.259 . S
C2353 O2376 1.258 . S
Co2354 N2363 2.057 . S
Co2354 O2370 2.106 1_554 S
Co2354 O2371 2.020 . S
Co2354 O2373 2.021 . S
Co2354 O2378 2.062 . S
C2355 N2357 1.316 1_556 S
C2355 N2358 1.347 . S
C2355 H2360 0.931 . S
C2356 N2357 1.375 . S
C2356 C2359 1.350 . S
C2356 H2361 0.930 . S
N2357 Co2352 2.057 . S
N2357 C2355 1.316 1_554 S
N2357 C2356 1.375 . S
N2358 C2355 1.347 . S
N2358 C2359 1.372 1_556 S
C2359 C2356 1.350 . S
C2359 N2358 1.372 1_554 S
C2359 H2380 0.931 . S
H2360 C2355 0.931 . S
H2361 C2356 0.930 . S
C2362 O2369 1.259 . S
C2362 O2370 1.266 . S
N2363 Co2354 2.057 . S
N2363 C2364 1.316 . S
N2363 C2365 1.375 . S
C2364 N2363 1.316 . S
C2364 N2366 1.347 . S
C2364 H2375 0.931 . S
C2365 N2363 1.375 . S
C2365 C2367 1.350 . S
C2365 H2374 0.930 . S
N2366 C2364 1.347 . S
N2366 C2367 1.373 . S
C2367 C2365 1.350 . S
C2367 N2366 1.373 . S
C2367 H2381 0.931 . S
C2368 O2371 1.256 . S
C2368 O2372 1.255 . S
O2369 Co2352 2.021 1_556 S
O2369 C2362 1.259 . S
O2370 Co2354 2.106 1_556 S
O2370 C2362 1.266 . S
O2371 Co2354 2.020 . S
O2371 C2368 1.256 . S
O2372 Co2352 2.062 . S
O2372 C2368 1.255 . S
O2373 C2353 1.259 . S
O2373 Co2354 2.021 . S
H2374 C2365 0.930 . S
H2375 C2364 0.931 . S
O2376 Co2352 2.117 . S
O2376 C2353 1.258 . S
O2377 Co2352 2.020 . S
O2377 C2379 1.256 . S
O2378 Co2354 2.062 . S
O2378 C2379 1.255 . S
C2379 O2377 1.256 . S
C2379 O2378 1.255 . S
H2380 C2359 0.931 . S
H2381 C2367 0.931 . S
Co2382 N2387 2.057 . S
Co2382 O2399 2.021 . S
Co2382 O2402 2.062 . S
Co2382 O2406 2.117 . S
Co2382 O2407 2.020 . S
C2383 O2403 1.259 . S
C2383 O2406 1.258 . S
Co2384 N2393 2.057 . S
Co2384 O2400 2.117 . S
Co2384 O2401 2.020 . S
Co2384 O2403 2.021 . S
Co2384 O2408 2.062 . S
C2385 N2387 1.316 . S
C2385 N2388 1.347 . S
C2385 H2390 0.931 . S
C2386 N2387 1.375 . S
C2386 C2389 1.350 . S
C2386 H2391 0.930 . S
N2387 Co2382 2.057 . S
N2387 C2385 1.316 . S
N2387 C2386 1.375 . S
N2388 C2385 1.347 . S
N2388 C2389 1.373 . S
C2389 C2386 1.350 . S
C2389 N2388 1.373 . S
C2389 H2410 0.931 . S
H2390 C2385 0.931 . S
H2391 C2386 0.930 . S
C2392 O2399 1.259 . S
C2392 O2400 1.258 . S
N2393 Co2384 2.057 . S
N2393 C2394 1.316 . S
N2393 C2395 1.375 . S
C2394 N2393 1.316 . S
C2394 N2396 1.347 . S
C2394 H2405 0.931 . S
C2395 N2393 1.375 . S
C2395 C2397 1.350 . S
C2395 H2404 0.930 . S
N2396 C2394 1.347 . S
N2396 C2397 1.373 . S
C2397 C2395 1.350 . S
C2397 N2396 1.373 . S
C2397 H2411 0.931 . S
C2398 O2401 1.256 . S
C2398 O2402 1.255 . S
O2399 Co2382 2.021 . S
O2399 C2392 1.259 . S
O2400 Co2384 2.117 . S
O2400 C2392 1.258 . S
O2401 Co2384 2.020 . S
O2401 C2398 1.256 . S
O2402 Co2382 2.062 . S
O2402 C2398 1.255 . S
O2403 C2383 1.259 . S
O2403 Co2384 2.021 . S
H2404 C2395 0.930 . S
H2405 C2394 0.931 . S
O2406 Co2382 2.117 . S
O2406 C2383 1.258 . S
O2407 Co2382 2.020 . S
O2407 C2409 1.256 . S
O2408 Co2384 2.062 . S
O2408 C2409 1.255 . S
C2409 O2407 1.256 . S
C2409 O2408 1.255 . S
H2410 C2389 0.931 . S
H2411 C2397 0.931 . S
Co2412 N2417 2.057 . S
Co2412 O2429 2.021 1_455 S
Co2412 O2432 2.062 . S
Co2412 O2436 2.117 . S
Co2412 O2437 2.020 . S
C2413 O2433 1.259 . S
C2413 O2436 1.258 . S
Co2414 N2423 2.057 . S
Co2414 O2430 2.117 1_455 S
Co2414 O2431 2.020 . S
Co2414 O2433 2.021 . S
Co2414 O2438 2.062 . S
C2415 N2417 1.316 1_655 S
C2415 N2418 1.347 . S
C2415 H2420 0.931 . S
C2416 N2417 1.375 . S
C2416 C2419 1.350 . S
C2416 H2421 0.930 . S
N2417 Co2412 2.057 . S
N2417 C2415 1.316 1_455 S
N2417 C2416 1.375 . S
N2418 C2415 1.347 . S
N2418 C2419 1.373 1_655 S
C2419 C2416 1.350 . S
C2419 N2418 1.373 1_455 S
C2419 H2440 0.931 . S
H2420 C2415 0.931 . S
H2421 C2416 0.930 . S
C2422 O2429 1.259 . S
C2422 O2430 1.258 . S
N2423 Co2414 2.057 . S
N2423 C2424 1.316 . S
N2423 C2425 1.375 . S
C2424 N2423 1.316 . S
C2424 N2426 1.347 . S
C2424 H2435 0.931 . S
C2425 N2423 1.375 . S
C2425 C2427 1.350 . S
C2425 H2434 0.930 . S
N2426 C2424 1.347 . S
N2426 C2427 1.373 . S
C2427 C2425 1.350 . S
C2427 N2426 1.373 . S
C2427 H2441 0.931 . S
C2428 O2431 1.256 . S
C2428 O2432 1.255 . S
O2429 Co2412 2.021 1_655 S
O2429 C2422 1.259 . S
O2430 Co2414 2.117 1_655 S
O2430 C2422 1.258 . S
O2431 Co2414 2.020 . S
O2431 C2428 1.256 . S
O2432 Co2412 2.062 . S
O2432 C2428 1.255 . S
O2433 C2413 1.259 . S
O2433 Co2414 2.021 . S
H2434 C2425 0.930 . S
H2435 C2424 0.931 . S
O2436 Co2412 2.117 . S
O2436 C2413 1.258 . S
O2437 Co2412 2.020 . S
O2437 C2439 1.256 . S
O2438 Co2414 2.062 . S
O2438 C2439 1.255 . S
C2439 O2437 1.256 . S
C2439 O2438 1.255 . S
H2440 C2419 0.931 . S
H2441 C2427 0.931 . S
Co2442 N2447 2.057 . S
Co2442 O2459 2.021 . S
Co2442 O2462 2.062 . S
Co2442 O2466 2.117 . S
Co2442 O2467 2.020 . S
C2443 O2463 1.259 . S
C2443 O2466 1.258 . S
Co2444 N2453 2.057 . S
Co2444 O2460 2.117 . S
Co2444 O2461 2.020 . S
Co2444 O2463 2.021 . S
Co2444 O2468 2.062 . S
C2445 N2447 1.316 . S
C2445 N2448 1.347 . S
C2445 H2450 0.931 . S
C2446 N2447 1.375 . S
C2446 C2449 1.350 . S
C2446 H2451 0.930 . S
N2447 Co2442 2.057 . S
N2447 C2445 1.316 . S
N2447 C2446 1.375 . S
N2448 C2445 1.347 . S
N2448 C2449 1.373 . S
C2449 C2446 1.350 . S
C2449 N2448 1.373 . S
C2449 H2470 0.931 . S
H2450 C2445 0.931 . S
H2451 C2446 0.930 . S
C2452 O2459 1.259 . S
C2452 O2460 1.258 . S
N2453 Co2444 2.057 . S
N2453 C2454 1.316 . S
N2453 C2455 1.375 . S
C2454 N2453 1.316 . S
C2454 N2456 1.347 . S
C2454 H2465 0.931 . S
C2455 N2453 1.375 . S
C2455 C2457 1.350 . S
C2455 H2464 0.930 . S
N2456 C2454 1.347 . S
N2456 C2457 1.373 . S
C2457 C2455 1.350 . S
C2457 N2456 1.373 . S
C2457 H2471 0.931 . S
C2458 O2461 1.256 . S
C2458 O2462 1.255 . S
O2459 Co2442 2.021 . S
O2459 C2452 1.259 . S
O2460 Co2444 2.117 . S
O2460 C2452 1.258 . S
O2461 Co2444 2.020 . S
O2461 C2458 1.256 . S
O2462 Co2442 2.062 . S
O2462 C2458 1.255 . S
O2463 C2443 1.259 . S
O2463 Co2444 2.021 . S
H2464 C2455 0.930 . S
H2465 C2454 0.931 . S
O2466 Co2442 2.117 . S
O2466 C2443 1.258 . S
O2467 Co2442 2.020 . S
O2467 C2469 1.256 . S
O2468 Co2444 2.062 . S
O2468 C2469 1.255 . S
C2469 O2467 1.256 . S
C2469 O2468 1.255 . S
H2470 C2449 0.931 . S
H2471 C2457 0.931 . S
Co2472 N2477 2.057 . S
Co2472 O2489 2.021 . S
Co2472 O2492 2.062 . S
Co2472 O2496 2.117 . S
Co2472 O2497 2.020 . S
C2473 O2493 1.259 . S
C2473 O2496 1.258 . S
Co2474 N2483 2.057 . S
Co2474 O2490 2.117 . S
Co2474 O2491 2.020 . S
Co2474 O2493 2.021 . S
Co2474 O2498 2.062 . S
C2475 N2477 1.316 . S
C2475 N2478 1.347 . S
C2475 H2480 0.931 . S
C2476 N2477 1.375 . S
C2476 C2479 1.350 . S
C2476 H2481 0.930 . S
N2477 Co2472 2.057 . S
N2477 C2475 1.316 . S
N2477 C2476 1.375 . S
N2478 C2475 1.347 . S
N2478 C2479 1.373 . S
C2479 C2476 1.350 . S
C2479 N2478 1.373 . S
C2479 H2500 0.931 . S
H2480 C2475 0.931 . S
H2481 C2476 0.930 . S
C2482 O2489 1.259 . S
C2482 O2490 1.258 . S
N2483 Co2474 2.057 . S
N2483 C2484 1.316 . S
N2483 C2485 1.375 . S
C2484 N2483 1.316 . S
C2484 N2486 1.347 . S
C2484 H2495 0.931 . S
C2485 N2483 1.375 . S
C2485 C2487 1.350 . S
C2485 H2494 0.930 . S
N2486 C2484 1.347 . S
N2486 C2487 1.373 . S
C2487 C2485 1.350 . S
C2487 N2486 1.373 . S
C2487 H2501 0.931 . S
C2488 O2491 1.256 . S
C2488 O2492 1.255 . S
O2489 Co2472 2.021 . S
O2489 C2482 1.259 . S
O2490 Co2474 2.117 . S
O2490 C2482 1.258 . S
O2491 Co2474 2.020 . S
O2491 C2488 1.256 . S
O2492 Co2472 2.062 . S
O2492 C2488 1.255 . S
O2493 C2473 1.259 . S
O2493 Co2474 2.021 . S
H2494 C2485 0.930 . S
H2495 C2484 0.931 . S
O2496 Co2472 2.117 . S
O2496 C2473 1.258 . S
O2497 Co2472 2.020 . S
O2497 C2499 1.256 . S
O2498 Co2474 2.062 . S
O2498 C2499 1.255 . S
C2499 O2497 1.256 . S
C2499 O2498 1.255 . S
H2500 C2479 0.931 . S
H2501 C2487 0.931 . S
Co2502 N2507 2.057 . S
Co2502 O2519 2.021 . S
Co2502 O2522 2.062 . S
Co2502 O2526 2.117 . S
Co2502 O2527 2.020 . S
C2503 O2523 1.259 . S
C2503 O2526 1.258 . S
Co2504 N2513 2.057 . S
Co2504 O2520 2.117 . S
Co2504 O2521 2.020 . S
Co2504 O2523 2.021 . S
Co2504 O2528 2.062 . S
C2505 N2507 1.316 . S
C2505 N2508 1.347 . S
C2505 H2510 0.931 . S
C2506 N2507 1.375 . S
C2506 C2509 1.350 . S
C2506 H2511 0.930 . S
N2507 Co2502 2.057 . S
N2507 C2505 1.316 . S
N2507 C2506 1.375 . S
N2508 C2505 1.347 . S
N2508 C2509 1.373 . S
C2509 C2506 1.350 . S
C2509 N2508 1.373 . S
C2509 H2530 0.931 . S
H2510 C2505 0.931 . S
H2511 C2506 0.930 . S
C2512 O2519 1.259 . S
C2512 O2520 1.258 . S
N2513 Co2504 2.057 . S
N2513 C2514 1.316 . S
N2513 C2515 1.375 . S
C2514 N2513 1.316 . S
C2514 N2516 1.347 . S
C2514 H2525 0.931 . S
C2515 N2513 1.375 . S
C2515 C2517 1.350 . S
C2515 H2524 0.930 . S
N2516 C2514 1.347 . S
N2516 C2517 1.373 . S
C2517 C2515 1.350 . S
C2517 N2516 1.373 . S
C2517 H2531 0.931 . S
C2518 O2521 1.256 . S
C2518 O2522 1.255 . S
O2519 Co2502 2.021 . S
O2519 C2512 1.259 . S
O2520 Co2504 2.117 . S
O2520 C2512 1.258 . S
O2521 Co2504 2.020 . S
O2521 C2518 1.256 . S
O2522 Co2502 2.062 . S
O2522 C2518 1.255 . S
O2523 C2503 1.259 . S
O2523 Co2504 2.021 . S
H2524 C2515 0.930 . S
H2525 C2514 0.931 . S
O2526 Co2502 2.117 . S
O2526 C2503 1.258 . S
O2527 Co2502 2.020 . S
O2527 C2529 1.256 . S
O2528 Co2504 2.062 . S
O2528 C2529 1.255 . S
C2529 O2527 1.256 . S
C2529 O2528 1.255 . S
H2530 C2509 0.931 . S
H2531 C2517 0.931 . S
Co2532 N2537 2.057 . S
Co2532 O2549 2.021 . S
Co2532 O2552 2.062 . S
Co2532 O2556 2.117 . S
Co2532 O2557 2.020 . S
C2533 O2553 1.259 . S
C2533 O2556 1.258 . S
Co2534 N2543 2.057 . S
Co2534 O2550 2.117 . S
Co2534 O2551 2.020 . S
Co2534 O2553 2.021 . S
Co2534 O2558 2.062 . S
C2535 N2537 1.316 . S
C2535 N2538 1.347 . S
C2535 H2540 0.931 . S
C2536 N2537 1.375 . S
C2536 C2539 1.350 . S
C2536 H2541 0.930 . S
N2537 Co2532 2.057 . S
N2537 C2535 1.316 . S
N2537 C2536 1.375 . S
N2538 C2535 1.347 . S
N2538 C2539 1.373 . S
C2539 C2536 1.350 . S
C2539 N2538 1.373 . S
C2539 H2560 0.931 . S
H2540 C2535 0.931 . S
H2541 C2536 0.930 . S
C2542 O2549 1.259 . S
C2542 O2550 1.258 . S
N2543 Co2534 2.057 . S
N2543 C2544 1.316 . S
N2543 C2545 1.375 . S
C2544 N2543 1.316 . S
C2544 N2546 1.347 . S
C2544 H2555 0.931 . S
C2545 N2543 1.375 . S
C2545 C2547 1.350 . S
C2545 H2554 0.930 . S
N2546 C2544 1.347 . S
N2546 C2547 1.373 . S
C2547 C2545 1.350 . S
C2547 N2546 1.373 . S
C2547 H2561 0.931 . S
C2548 O2551 1.256 . S
C2548 O2552 1.255 . S
O2549 Co2532 2.021 . S
O2549 C2542 1.259 . S
O2550 Co2534 2.117 . S
O2550 C2542 1.258 . S
O2551 Co2534 2.020 . S
O2551 C2548 1.256 . S
O2552 Co2532 2.062 . S
O2552 C2548 1.255 . S
O2553 C2533 1.259 . S
O2553 Co2534 2.021 . S
H2554 C2545 0.930 . S
H2555 C2544 0.931 . S
O2556 Co2532 2.117 . S
O2556 C2533 1.258 . S
O2557 Co2532 2.020 . S
O2557 C2559 1.256 . S
O2558 Co2534 2.062 . S
O2558 C2559 1.255 . S
C2559 O2557 1.256 . S
C2559 O2558 1.255 . S
H2560 C2539 0.931 . S
H2561 C2547 0.931 . S
Co2562 N2567 2.057 1_455 S
Co2562 O2579 2.021 . S
Co2562 O2582 2.062 1_455 S
Co2562 O2586 2.117 . S
Co2562 O2587 2.020 1_554 S
C2563 O2583 1.259 . S
C2563 O2586 1.297 . S
Co2564 N2573 2.057 . S
Co2564 O2580 2.117 . S
Co2564 O2581 2.020 . S
Co2564 O2583 2.021 . S
Co2564 O2588 2.062 1_554 S
C2565 N2567 1.316 . S
C2565 N2568 1.347 . S
C2565 H2570 0.931 . S
C2566 N2567 1.375 1_556 S
C2566 C2569 1.350 . S
C2566 H2571 0.930 . S
N2567 Co2562 2.057 1_655 S
N2567 C2565 1.316 . S
N2567 C2566 1.375 1_554 S
N2568 C2565 1.347 . S
N2568 C2569 1.373 1_554 S
C2569 C2566 1.350 . S
C2569 N2568 1.373 1_556 S
C2569 H2590 0.931 . S
H2570 C2565 0.931 . S
H2571 C2566 0.930 . S
C2572 O2579 1.259 . S
C2572 O2580 1.258 . S
N2573 Co2564 2.057 . S
N2573 C2574 1.316 . S
N2573 C2575 1.375 . S
C2574 N2573 1.316 . S
C2574 N2576 1.347 . S
C2574 H2585 0.931 . S
C2575 N2573 1.375 . S
C2575 C2577 1.350 . S
C2575 H2584 0.930 . S
N2576 C2574 1.347 . S
N2576 C2577 1.373 . S
C2577 C2575 1.350 . S
C2577 N2576 1.373 . S
C2577 H2591 0.931 . S
C2578 O2581 1.256 . S
C2578 O2582 1.255 1_455 S
O2579 Co2562 2.021 . S
O2579 C2572 1.259 . S
O2580 Co2564 2.117 . S
O2580 C2572 1.258 . S
O2581 Co2564 2.020 . S
O2581 C2578 1.256 . S
O2582 Co2562 2.062 1_655 S
O2582 C2578 1.255 1_655 S
O2583 C2563 1.259 . S
O2583 Co2564 2.021 . S
H2584 C2575 0.930 . S
H2585 C2574 0.931 . S
O2586 Co2562 2.117 . S
O2586 C2563 1.297 . S
O2587 Co2562 2.020 1_556 S
O2587 C2589 1.256 . S
O2588 Co2564 2.062 1_556 S
O2588 C2589 1.255 . S
C2589 O2587 1.256 . S
C2589 O2588 1.255 . S
H2590 C2569 0.931 . S
H2591 C2577 0.931 . S
H2592 C2600 0.950 . S
H2593 C2605 0.950 1_655 S
H2594 C2602 0.950 . S
H2595 C2604 0.899 1_655 S
H2596 C2606 0.950 . S
H2597 C2608 0.950 . S
H2598 C2610 0.950 . S
H2599 C2611 0.950 . S
C2600 H2592 0.950 . S
C2600 C2601 1.386 . S
C2600 C2602 1.391 . S
C2601 C2600 1.386 . S
C2601 C2605 1.393 . S
C2602 H2594 0.950 . S
C2602 C2600 1.391 . S
C2602 C2603 1.400 . S
C2603 C2602 1.400 . S
C2603 C2604 1.441 . S
C2603 C2609 1.491 . S
C2604 H2595 0.899 1_455 S
C2604 C2603 1.441 . S
C2604 C2605 1.399 . S
C2605 H2593 0.950 1_455 S
C2605 C2601 1.393 . S
C2605 C2604 1.399 . S
C2606 H2596 0.950 . S
C2606 C2607 1.386 1_655 S
C2606 C2608 1.391 . S
C2607 C2606 1.386 1_455 S
C2607 C2611 1.393 . S
C2608 H2597 0.950 . S
C2608 C2606 1.391 . S
C2608 C2609 1.400 1_655 S
C2609 C2603 1.491 . S
C2609 C2608 1.400 1_455 S
C2609 C2610 1.398 . S
C2610 H2598 0.950 . S
C2610 C2609 1.398 . S
C2610 C2611 1.391 . S
C2611 H2599 0.950 . S
C2611 C2607 1.393 . S
C2611 C2610 1.391 . S
H2612 C2620 0.950 . S
H2613 C2625 0.950 . S
H2614 C2622 0.950 . S
H2615 C2624 0.950 . S
H2616 C2626 0.950 . S
H2617 C2628 0.950 . S
H2618 C2630 0.950 . S
H2619 C2631 0.950 . S
C2620 H2612 0.950 . S
C2620 C2621 1.386 . S
C2620 C2622 1.391 . S
C2621 C2620 1.386 . S
C2621 C2625 1.393 . S
C2622 H2614 0.950 . S
C2622 C2620 1.391 . S
C2622 C2623 1.400 . S
C2623 C2622 1.400 . S
C2623 C2624 1.398 . S
C2623 C2629 1.491 . S
C2624 H2615 0.950 . S
C2624 C2623 1.398 . S
C2624 C2625 1.391 . S
C2625 H2613 0.950 . S
C2625 C2621 1.393 . S
C2625 C2624 1.391 . S
C2626 H2616 0.950 . S
C2626 C2627 1.386 . S
C2626 C2628 1.391 . S
C2627 C2626 1.386 . S
C2627 C2631 1.393 . S
C2628 H2617 0.950 . S
C2628 C2626 1.391 . S
C2628 C2629 1.400 . S
C2629 C2623 1.491 . S
C2629 C2628 1.400 . S
C2629 C2630 1.398 . S
C2630 H2618 0.950 . S
C2630 C2629 1.398 . S
C2630 C2631 1.391 . S
C2631 H2619 0.950 . S
C2631 C2627 1.393 . S
C2631 C2630 1.391 . S
H2632 C2640 0.950 . S
H2633 C2645 0.950 . S
H2634 C2642 0.950 . S
H2635 C2644 0.950 . S
H2636 C2646 0.950 . S
H2637 C2648 0.950 . S
H2638 C2650 0.950 . S
H2639 C2651 0.950 . S
C2640 H2632 0.950 . S
C2640 C2641 1.386 . S
C2640 C2642 1.391 . S
C2641 C2640 1.386 . S
C2641 C2645 1.393 . S
C2642 H2634 0.950 . S
C2642 C2640 1.391 . S
C2642 C2643 1.400 . S
C2643 C2642 1.400 . S
C2643 C2644 1.398 . S
C2643 C2649 1.491 . S
C2644 H2635 0.950 . S
C2644 C2643 1.398 . S
C2644 C2645 1.391 . S
C2645 H2633 0.950 . S
C2645 C2641 1.393 . S
C2645 C2644 1.391 . S
C2646 H2636 0.950 . S
C2646 C2647 1.386 . S
C2646 C2648 1.391 . S
C2647 C2646 1.386 . S
C2647 C2651 1.393 . S
C2648 H2637 0.950 . S
C2648 C2646 1.391 . S
C2648 C2649 1.400 . S
C2649 C2643 1.491 . S
C2649 C2648 1.400 . S
C2649 C2650 1.398 . S
C2650 H2638 0.950 . S
C2650 C2649 1.398 . S
C2650 C2651 1.391 . S
C2651 H2639 0.950 . S
C2651 C2647 1.393 . S
C2651 C2650 1.391 . S
H2652 C2660 0.950 . S
H2653 C2665 0.950 . S
H2654 C2662 0.950 . S
H2655 C2664 0.950 . S
H2656 C2666 0.950 . S
H2657 C2668 0.950 . S
H2658 C2670 0.950 . S
H2659 C2671 0.950 . S
C2660 H2652 0.950 . S
C2660 C2661 1.386 . S
C2660 C2662 1.391 . S
C2661 C2660 1.386 . S
C2661 C2665 1.393 . S
C2662 H2654 0.950 . S
C2662 C2660 1.391 . S
C2662 C2663 1.400 . S
C2663 C2662 1.400 . S
C2663 C2664 1.398 . S
C2663 C2669 1.491 . S
C2664 H2655 0.950 . S
C2664 C2663 1.398 . S
C2664 C2665 1.391 . S
C2665 H2653 0.950 . S
C2665 C2661 1.393 . S
C2665 C2664 1.391 . S
C2666 H2656 0.950 . S
C2666 C2667 1.386 . S
C2666 C2668 1.391 . S
C2667 C2666 1.386 . S
C2667 C2671 1.393 . S
C2668 H2657 0.950 . S
C2668 C2666 1.391 . S
C2668 C2669 1.400 . S
C2669 C2663 1.491 . S
C2669 C2668 1.400 . S
C2669 C2670 1.398 . S
C2670 H2658 0.950 . S
C2670 C2669 1.398 . S
C2670 C2671 1.391 . S
C2671 H2659 0.950 . S
C2671 C2667 1.393 . S
C2671 C2670 1.391 . S
H2672 C2680 0.950 . S
H2673 C2685 0.950 . S
H2674 C2682 0.950 . S
H2675 C2684 0.950 . S
H2676 C2686 0.950 . S
H2677 C2688 0.950 . S
H2678 C2690 0.937 1_655 S
H2679 C2691 0.974 . S
C2680 H2672 0.950 . S
C2680 C2681 1.386 . S
C2680 C2682 1.391 . S
C2681 C2680 1.386 . S
C2681 C2685 1.393 . S
C2682 H2674 0.950 . S
C2682 C2680 1.391 . S
C2682 C2683 1.400 . S
C2683 C2682 1.400 . S
C2683 C2684 1.398 . S
C2683 C2689 1.491 . S
C2684 H2675 0.950 . S
C2684 C2683 1.398 . S
C2684 C2685 1.391 . S
C2685 H2673 0.950 . S
C2685 C2681 1.393 . S
C2685 C2684 1.391 . S
C2686 H2676 0.950 . S
C2686 C2687 1.386 . S
C2686 C2688 1.391 . S
C2687 C2686 1.386 . S
C2687 C2691 1.379 1_455 S
C2688 H2677 0.950 . S
C2688 C2686 1.391 . S
C2688 C2689 1.400 . S
C2689 C2683 1.491 . S
C2689 C2688 1.400 . S
C2689 C2690 1.398 . S
C2690 H2678 0.937 1_455 S
C2690 C2689 1.398 . S
C2690 C2691 1.382 1_455 S
C2691 H2679 0.974 . S
C2691 C2687 1.379 1_655 S
C2691 C2690 1.382 1_655 S
H2692 C2700 0.950 . S
H2693 C2705 0.950 . S
H2694 C2702 0.950 . S
H2695 C2704 0.950 . S
H2696 C2706 0.950 . S
H2697 C2708 0.950 . S
H2698 C2710 0.950 . S
H2699 C2711 0.950 . S
C2700 H2692 0.950 . S
C2700 C2701 1.386 . S
C2700 C2702 1.391 . S
C2701 C2700 1.386 . S
C2701 C2705 1.393 . S
C2702 H2694 0.950 . S
C2702 C2700 1.391 . S
C2702 C2703 1.400 . S
C2703 C2702 1.400 . S
C2703 C2704 1.398 . S
C2703 C2709 1.491 . S
C2704 H2695 0.950 . S
C2704 C2703 1.398 . S
C2704 C2705 1.391 . S
C2705 H2693 0.950 . S
C2705 C2701 1.393 . S
C2705 C2704 1.391 . S
C2706 H2696 0.950 . S
C2706 C2707 1.386 . S
C2706 C2708 1.391 . S
C2707 C2706 1.386 . S
C2707 C2711 1.393 . S
C2708 H2697 0.950 . S
C2708 C2706 1.391 . S
C2708 C2709 1.400 . S
C2709 C2703 1.491 . S
C2709 C2708 1.400 . S
C2709 C2710 1.398 . S
C2710 H2698 0.950 . S
C2710 C2709 1.398 . S
C2710 C2711 1.391 . S
C2711 H2699 0.950 . S
C2711 C2707 1.393 . S
C2711 C2710 1.391 . S
H2712 C2720 0.950 . S
H2713 C2725 0.950 . S
H2714 C2722 0.950 . S
H2715 C2724 0.950 . S
H2716 C2726 0.950 . S
H2717 C2728 0.950 . S
H2718 C2730 0.950 . S
H2719 C2731 0.951 1_554 S
C2720 H2712 0.950 . S
C2720 C2721 1.386 . S
C2720 C2722 1.391 . S
C2721 C2720 1.386 . S
C2721 C2725 1.393 . S
C2722 H2714 0.950 . S
C2722 C2720 1.391 . S
C2722 C2723 1.400 . S
C2723 C2722 1.400 . S
C2723 C2724 1.398 . S
C2723 C2729 1.491 . S
C2724 H2715 0.950 . S
C2724 C2723 1.398 . S
C2724 C2725 1.391 . S
C2725 H2713 0.950 . S
C2725 C2721 1.393 . S
C2725 C2724 1.391 . S
C2726 H2716 0.950 . S
C2726 C2727 1.381 1_556 S
C2726 C2728 1.391 . S
C2727 C2726 1.381 1_554 S
C2727 C2731 1.390 1_554 S
C2728 H2717 0.950 . S
C2728 C2726 1.391 . S
C2728 C2729 1.400 . S
C2729 C2723 1.491 . S
C2729 C2728 1.400 . S
C2729 C2730 1.398 . S
C2730 H2718 0.950 . S
C2730 C2729 1.398 . S
C2730 C2731 1.391 . S
C2731 H2719 0.951 1_556 S
C2731 C2727 1.390 1_556 S
C2731 C2730 1.391 . S
H2732 C2740 0.950 . S
H2733 C2745 0.950 . S
H2734 C2742 0.950 . S
H2735 C2744 0.950 . S
H2736 C2746 0.950 . S
H2737 C2748 0.950 . S
H2738 C2750 0.950 . S
H2739 C2751 0.950 . S
C2740 H2732 0.950 . S
C2740 C2741 1.386 . S
C2740 C2742 1.391 . S
C2741 C2740 1.386 . S
C2741 C2745 1.393 . S
C2742 H2734 0.950 . S
C2742 C2740 1.391 . S
C2742 C2743 1.400 . S
C2743 C2742 1.400 . S
C2743 C2744 1.398 . S
C2743 C2749 1.491 . S
C2744 H2735 0.950 . S
C2744 C2743 1.398 . S
C2744 C2745 1.391 . S
C2745 H2733 0.950 . S
C2745 C2741 1.393 . S
C2745 C2744 1.391 . S
C2746 H2736 0.950 . S
C2746 C2747 1.386 . S
C2746 C2748 1.391 . S
C2747 C2746 1.386 . S
C2747 C2751 1.393 . S
C2748 H2737 0.950 . S
C2748 C2746 1.391 . S
C2748 C2749 1.400 . S
C2749 C2743 1.491 . S
C2749 C2748 1.400 . S
C2749 C2750 1.398 . S
C2750 H2738 0.950 . S
C2750 C2749 1.398 . S
C2750 C2751 1.391 . S
C2751 H2739 0.950 . S
C2751 C2747 1.393 . S
C2751 C2750 1.391 . S
H2752 C2760 0.950 . S
H2753 C2765 0.950 . S
H2754 C2762 0.950 . S
H2755 C2764 0.950 . S
H2756 C2766 0.950 . S
H2757 C2768 0.950 . S
H2758 C2770 0.950 . S
H2759 C2771 0.950 . S
C2760 H2752 0.950 . S
C2760 C2761 1.386 1_565 S
C2760 C2762 1.391 . S
C2761 C2760 1.386 1_545 S
C2761 C2765 1.393 . S
C2762 H2754 0.950 . S
C2762 C2760 1.391 . S
C2762 C2763 1.400 1_565 S
C2763 C2762 1.400 1_545 S
C2763 C2764 1.398 . S
C2763 C2769 1.491 . S
C2764 H2755 0.950 . S
C2764 C2763 1.398 . S
C2764 C2765 1.391 . S
C2765 H2753 0.950 . S
C2765 C2761 1.393 . S
C2765 C2764 1.391 . S
C2766 H2756 0.950 . S
C2766 C2767 1.386 . S
C2766 C2768 1.391 . S
C2767 C2766 1.386 . S
C2767 C2771 1.393 1_545 S
C2768 H2757 0.950 . S
C2768 C2766 1.391 . S
C2768 C2769 1.400 . S
C2769 C2763 1.491 . S
C2769 C2768 1.400 . S
C2769 C2770 1.398 1_545 S
C2770 H2758 0.950 . S
C2770 C2769 1.398 1_565 S
C2770 C2771 1.391 . S
C2771 H2759 0.950 . S
C2771 C2767 1.393 1_565 S
C2771 C2770 1.391 . S
H2772 C2780 0.950 . S
H2773 C2785 0.950 . S
H2774 C2782 0.950 . S
H2775 C2784 0.950 . S
H2776 C2786 0.950 . S
H2777 C2788 0.950 . S
H2778 C2790 0.950 . S
H2779 C2791 0.950 . S
C2780 H2772 0.950 . S
C2780 C2781 1.386 . S
C2780 C2782 1.391 . S
C2781 C2780 1.386 . S
C2781 C2785 1.393 . S
C2782 H2774 0.950 . S
C2782 C2780 1.391 . S
C2782 C2783 1.400 . S
C2783 C2782 1.400 . S
C2783 C2784 1.398 . S
C2783 C2789 1.491 . S
C2784 H2775 0.950 . S
C2784 C2783 1.398 . S
C2784 C2785 1.391 . S
C2785 H2773 0.950 . S
C2785 C2781 1.393 . S
C2785 C2784 1.391 . S
C2786 H2776 0.950 . S
C2786 C2787 1.386 . S
C2786 C2788 1.391 . S
C2787 C2786 1.386 . S
C2787 C2791 1.393 . S
C2788 H2777 0.950 . S
C2788 C2786 1.391 . S
C2788 C2789 1.400 . S
C2789 C2783 1.491 . S
C2789 C2788 1.400 . S
C2789 C2790 1.398 . S
C2790 H2778 0.950 . S
C2790 C2789 1.398 . S
C2790 C2791 1.391 . S
C2791 H2779 0.950 . S
C2791 C2787 1.393 . S
C2791 C2790 1.391 . S
H2792 C2800 0.950 . S
H2793 C2805 0.950 . S
H2794 C2802 0.950 . S
H2795 C2804 0.950 . S
H2796 C2806 0.950 . S
H2797 C2808 0.950 . S
H2798 C2810 0.950 . S
H2799 C2811 0.950 . S
C2800 H2792 0.950 . S
C2800 C2801 1.386 . S
C2800 C2802 1.391 . S
C2801 C2800 1.386 . S
C2801 C2805 1.393 . S
C2802 H2794 0.950 . S
C2802 C2800 1.391 . S
C2802 C2803 1.400 . S
C2803 C2802 1.400 . S
C2803 C2804 1.398 . S
C2803 C2809 1.491 . S
C2804 H2795 0.950 . S
C2804 C2803 1.398 . S
C2804 C2805 1.391 . S
C2805 H2793 0.950 . S
C2805 C2801 1.393 . S
C2805 C2804 1.391 . S
C2806 H2796 0.950 . S
C2806 C2807 1.386 . S
C2806 C2808 1.391 . S
C2807 C2806 1.386 . S
C2807 C2811 1.393 . S
C2808 H2797 0.950 . S
C2808 C2806 1.391 . S
C2808 C2809 1.400 . S
C2809 C2803 1.491 . S
C2809 C2808 1.400 . S
C2809 C2810 1.398 . S
C2810 H2798 0.950 . S
C2810 C2809 1.398 . S
C2810 C2811 1.391 . S
C2811 H2799 0.950 . S
C2811 C2807 1.393 . S
C2811 C2810 1.391 . S
H2812 C2820 0.950 . S
H2813 C2825 0.950 . S
H2814 C2822 0.950 . S
H2815 C2824 0.950 . S
H2816 C2826 0.950 . S
H2817 C2828 0.950 . S
H2818 C2830 0.950 . S
H2819 C2831 0.950 . S
C2820 H2812 0.950 . S
C2820 C2821 1.386 . S
C2820 C2822 1.391 . S
C2821 C2820 1.386 . S
C2821 C2825 1.393 . S
C2822 H2814 0.950 . S
C2822 C2820 1.391 . S
C2822 C2823 1.400 . S
C2823 C2822 1.400 . S
C2823 C2824 1.398 . S
C2823 C2829 1.491 . S
C2824 H2815 0.950 . S
C2824 C2823 1.398 . S
C2824 C2825 1.391 . S
C2825 H2813 0.950 . S
C2825 C2821 1.393 . S
C2825 C2824 1.391 . S
C2826 H2816 0.950 . S
C2826 C2827 1.386 . S
C2826 C2828 1.391 . S
C2827 C2826 1.386 . S
C2827 C2831 1.393 . S
C2828 H2817 0.950 . S
C2828 C2826 1.391 . S
C2828 C2829 1.400 . S
C2829 C2823 1.491 . S
C2829 C2828 1.400 . S
C2829 C2830 1.398 . S
C2830 H2818 0.950 . S
C2830 C2829 1.398 . S
C2830 C2831 1.391 . S
C2831 H2819 0.950 . S
C2831 C2827 1.393 . S
C2831 C2830 1.391 . S
H2832 C2840 0.950 . S
H2833 C2845 0.950 . S
H2834 C2842 0.927 1_565 S
H2835 C2844 0.950 . S
H2836 C2846 0.950 . S
H2837 C2848 0.950 . S
H2838 C2850 0.955 1_565 S
H2839 C2851 0.950 . S
C2840 H2832 0.950 . S
C2840 C2841 1.386 1_565 S
C2840 C2842 1.383 1_565 S
C2841 C2840 1.386 1_545 S
C2841 C2845 1.393 . S
C2842 H2834 0.927 1_545 S
C2842 C2840 1.383 1_545 S
C2842 C2843 1.432 . S
C2843 C2842 1.432 . S
C2843 C2844 1.398 . S
C2843 C2849 1.491 . S
C2844 H2835 0.950 . S
C2844 C2843 1.398 . S
C2844 C2845 1.391 . S
C2845 H2833 0.950 . S
C2845 C2841 1.393 . S
C2845 C2844 1.391 . S
C2846 H2836 0.950 . S
C2846 C2847 1.386 . S
C2846 C2848 1.391 . S
C2847 C2846 1.386 . S
C2847 C2851 1.393 . S
C2848 H2837 0.950 . S
C2848 C2846 1.391 . S
C2848 C2849 1.400 . S
C2849 C2843 1.491 . S
C2849 C2848 1.400 . S
C2849 C2850 1.398 . S
C2850 H2838 0.955 1_545 S
C2850 C2849 1.398 . S
C2850 C2851 1.391 . S
C2851 H2839 0.950 . S
C2851 C2847 1.393 . S
C2851 C2850 1.391 . S
H2852 C2860 0.950 . S
H2853 C2865 0.950 . S
H2854 C2862 0.950 . S
H2855 C2864 0.950 . S
H2856 C2866 0.950 . S
H2857 C2868 0.950 . S
H2858 C2870 0.950 . S
H2859 C2871 0.950 . S
C2860 H2852 0.950 . S
C2860 C2861 1.386 . S
C2860 C2862 1.391 . S
C2861 C2860 1.386 . S
C2861 C2865 1.393 . S
C2862 H2854 0.950 . S
C2862 C2860 1.391 . S
C2862 C2863 1.400 . S
C2863 C2862 1.400 . S
C2863 C2864 1.398 . S
C2863 C2869 1.491 . S
C2864 H2855 0.950 . S
C2864 C2863 1.398 . S
C2864 C2865 1.391 . S
C2865 H2853 0.950 . S
C2865 C2861 1.393 . S
C2865 C2864 1.391 . S
C2866 H2856 0.950 . S
C2866 C2867 1.386 . S
C2866 C2868 1.391 . S
C2867 C2866 1.386 . S
C2867 C2871 1.393 . S
C2868 H2857 0.950 . S
C2868 C2866 1.391 . S
C2868 C2869 1.400 . S
C2869 C2863 1.491 . S
C2869 C2868 1.400 . S
C2869 C2870 1.398 . S
C2870 H2858 0.950 . S
C2870 C2869 1.398 . S
C2870 C2871 1.391 . S
C2871 H2859 0.950 . S
C2871 C2867 1.393 . S
C2871 C2870 1.391 . S
H2872 C2880 0.950 . S
H2873 C2885 0.950 . S
H2874 C2882 0.950 . S
H2875 C2884 0.950 . S
H2876 C2886 0.950 1_565 S
H2877 C2888 0.950 1_565 S
H2878 C2890 0.950 . S
H2879 C2891 0.950 . S
C2880 H2872 0.950 . S
C2880 C2881 1.386 . S
C2880 C2882 1.391 . S
C2881 C2880 1.386 . S
C2881 C2885 1.393 . S
C2882 H2874 0.950 . S
C2882 C2880 1.391 . S
C2882 C2883 1.400 . S
C2883 C2882 1.400 . S
C2883 C2884 1.398 . S
C2883 C2889 1.491 . S
C2884 H2875 0.950 . S
C2884 C2883 1.398 . S
C2884 C2885 1.391 . S
C2885 H2873 0.950 . S
C2885 C2881 1.393 . S
C2885 C2884 1.391 . S
C2886 H2876 0.950 1_545 S
C2886 C2887 1.386 . S
C2886 C2888 1.391 . S
C2887 C2886 1.386 . S
C2887 C2891 1.393 . S
C2888 H2877 0.950 1_545 S
C2888 C2886 1.391 . S
C2888 C2889 1.400 . S
C2889 C2883 1.491 . S
C2889 C2888 1.400 . S
C2889 C2890 1.398 . S
C2890 H2878 0.950 . S
C2890 C2889 1.398 . S
C2890 C2891 1.391 . S
C2891 H2879 0.950 . S
C2891 C2887 1.393 . S
C2891 C2890 1.391 . S
H2892 C2900 0.950 . S
H2893 C2905 0.950 . S
H2894 C2902 0.950 . S
H2895 C2904 0.950 . S
H2896 C2906 0.950 . S
H2897 C2908 0.950 . S
H2898 C2910 0.950 . S
H2899 C2911 0.950 . S
C2900 H2892 0.950 . S
C2900 C2901 1.386 . S
C2900 C2902 1.391 . S
C2901 C2900 1.386 . S
C2901 C2905 1.393 . S
C2902 H2894 0.950 . S
C2902 C2900 1.391 . S
C2902 C2903 1.400 . S
C2903 C2902 1.400 . S
C2903 C2904 1.398 . S
C2903 C2909 1.491 . S
C2904 H2895 0.950 . S
C2904 C2903 1.398 . S
C2904 C2905 1.391 . S
C2905 H2893 0.950 . S
C2905 C2901 1.393 . S
C2905 C2904 1.391 . S
C2906 H2896 0.950 . S
C2906 C2907 1.386 . S
C2906 C2908 1.391 . S
C2907 C2906 1.386 . S
C2907 C2911 1.393 . S
C2908 H2897 0.950 . S
C2908 C2906 1.391 . S
C2908 C2909 1.400 . S
C2909 C2903 1.491 . S
C2909 C2908 1.400 . S
C2909 C2910 1.398 . S
C2910 H2898 0.950 . S
C2910 C2909 1.398 . S
C2910 C2911 1.391 . S
C2911 H2899 0.950 . S
C2911 C2907 1.393 . S
C2911 C2910 1.391 . S
H2912 C2920 0.950 . S
H2913 C2925 0.950 1_556 S
H2914 C2922 0.950 . S
H2915 C2924 0.950 1_556 S
H2916 C2926 0.950 . S
H2917 C2928 0.944 1_556 S
H2918 C2930 0.950 . S
H2919 C2931 0.950 . S
C2920 H2912 0.950 . S
C2920 C2921 1.386 . S
C2920 C2922 1.391 . S
C2921 C2920 1.386 . S
C2921 C2925 1.393 . S
C2922 H2914 0.950 . S
C2922 C2920 1.391 . S
C2922 C2923 1.400 . S
C2923 C2922 1.400 . S
C2923 C2924 1.398 . S
C2923 C2929 1.491 . S
C2924 H2915 0.950 1_554 S
C2924 C2923 1.398 . S
C2924 C2925 1.391 . S
C2925 H2913 0.950 1_554 S
C2925 C2921 1.393 . S
C2925 C2924 1.391 . S
C2926 H2916 0.950 . S
C2926 C2927 1.386 1_556 S
C2926 C2928 1.390 1_556 S
C2927 C2926 1.386 1_554 S
C2927 C2931 1.393 . S
C2928 H2917 0.944 1_554 S
C2928 C2926 1.390 1_554 S
C2928 C2929 1.407 . S
C2929 C2923 1.491 . S
C2929 C2928 1.407 . S
C2929 C2930 1.398 . S
C2930 H2918 0.950 . S
C2930 C2929 1.398 . S
C2930 C2931 1.391 . S
C2931 H2919 0.950 . S
C2931 C2927 1.393 . S
C2931 C2930 1.391 . S
H2932 C2940 0.950 . S
H2933 C2945 0.950 . S
H2934 C2942 0.950 . S
H2935 C2944 0.950 . S
H2936 C2946 0.950 . S
H2937 C2948 0.950 . S
H2938 C2950 0.950 . S
H2939 C2951 0.950 . S
C2940 H2932 0.950 . S
C2940 C2941 1.386 . S
C2940 C2942 1.391 . S
C2941 C2940 1.386 . S
C2941 C2945 1.393 . S
C2942 H2934 0.950 . S
C2942 C2940 1.391 . S
C2942 C2943 1.400 . S
C2943 C2942 1.400 . S
C2943 C2944 1.398 . S
C2943 C2949 1.491 . S
C2944 H2935 0.950 . S
C2944 C2943 1.398 . S
C2944 C2945 1.391 . S
C2945 H2933 0.950 . S
C2945 C2941 1.393 . S
C2945 C2944 1.391 . S
C2946 H2936 0.950 . S
C2946 C2947 1.386 . S
C2946 C2948 1.391 . S
C2947 C2946 1.386 . S
C2947 C2951 1.393 . S
C2948 H2937 0.950 . S
C2948 C2946 1.391 . S
C2948 C2949 1.400 . S
C2949 C2943 1.491 . S
C2949 C2948 1.400 . S
C2949 C2950 1.398 . S
C2950 H2938 0.950 . S
C2950 C2949 1.398 . S
C2950 C2951 1.391 . S
C2951 H2939 0.950 . S
C2951 C2947 1.393 . S
C2951 C2950 1.391 . S
H2952 C2960 0.950 . S
H2953 C2965 0.950 . S
H2954 C2962 0.950 . S
H2955 C2964 0.950 . S
H2956 C2966 0.950 . S
H2957 C2968 0.950 . S
H2958 C2970 0.950 . S
H2959 C2971 0.950 . S
C2960 H2952 0.950 . S
C2960 C2961 1.386 . S
C2960 C2962 1.391 . S
C2961 C2960 1.386 . S
C2961 C2965 1.393 . S
C2962 H2954 0.950 . S
C2962 C2960 1.391 . S
C2962 C2963 1.400 . S
C2963 C2962 1.400 . S
C2963 C2964 1.398 . S
C2963 C2969 1.491 . S
C2964 H2955 0.950 . S
C2964 C2963 1.398 . S
C2964 C2965 1.391 . S
C2965 H2953 0.950 . S
C2965 C2961 1.393 . S
C2965 C2964 1.391 . S
C2966 H2956 0.950 . S
C2966 C2967 1.386 . S
C2966 C2968 1.391 . S
C2967 C2966 1.386 . S
C2967 C2971 1.393 . S
C2968 H2957 0.950 . S
C2968 C2966 1.391 . S
C2968 C2969 1.400 . S
C2969 C2963 1.491 . S
C2969 C2968 1.400 . S
C2969 C2970 1.398 . S
C2970 H2958 0.950 . S
C2970 C2969 1.398 . S
C2970 C2971 1.391 . S
C2971 H2959 0.950 . S
C2971 C2967 1.393 . S
C2971 C2970 1.391 . S
H2972 C2980 0.950 . S
H2973 C2985 0.950 . S
H2974 C2982 0.950 . S
H2975 C2984 0.950 . S
H2976 C2986 0.950 . S
H2977 C2988 0.950 . S
H2978 C2990 0.950 . S
H2979 C2991 0.950 . S
C2980 H2972 0.950 . S
C2980 C2981 1.386 . S
C2980 C2982 1.391 . S
C2981 C2980 1.386 . S
C2981 C2985 1.393 . S
C2982 H2974 0.950 . S
C2982 C2980 1.391 . S
C2982 C2983 1.400 . S
C2983 C2982 1.400 . S
C2983 C2984 1.398 . S
C2983 C2989 1.491 . S
C2984 H2975 0.950 . S
C2984 C2983 1.398 . S
C2984 C2985 1.391 . S
C2985 H2973 0.950 . S
C2985 C2981 1.393 . S
C2985 C2984 1.391 . S
C2986 H2976 0.950 . S
C2986 C2987 1.386 . S
C2986 C2988 1.391 . S
C2987 C2986 1.386 . S
C2987 C2991 1.393 . S
C2988 H2977 0.950 . S
C2988 C2986 1.391 . S
C2988 C2989 1.400 . S
C2989 C2983 1.491 . S
C2989 C2988 1.400 . S
C2989 C2990 1.398 . S
C2990 H2978 0.950 . S
C2990 C2989 1.398 . S
C2990 C2991 1.391 . S
C2991 H2979 0.950 . S
C2991 C2987 1.393 . S
C2991 C2990 1.391 . S
H2992 C3000 0.950 . S
H2993 C3005 0.950 . S
H2994 C3002 0.950 . S
H2995 C3004 0.950 . S
H2996 C3006 0.950 . S
H2997 C3008 0.950 . S
H2998 C3010 0.950 . S
H2999 C3011 0.950 . S
C3000 H2992 0.950 . S
C3000 C3001 1.386 . S
C3000 C3002 1.391 . S
C3001 C3000 1.386 . S
C3001 C3005 1.393 . S
C3002 H2994 0.950 . S
C3002 C3000 1.391 . S
C3002 C3003 1.400 . S
C3003 C3002 1.400 . S
C3003 C3004 1.398 . S
C3003 C3009 1.491 . S
C3004 H2995 0.950 . S
C3004 C3003 1.398 . S
C3004 C3005 1.391 . S
C3005 H2993 0.950 . S
C3005 C3001 1.393 . S
C3005 C3004 1.391 . S
C3006 H2996 0.950 . S
C3006 C3007 1.386 . S
C3006 C3008 1.391 . S
C3007 C3006 1.386 . S
C3007 C3011 1.393 . S
C3008 H2997 0.950 . S
C3008 C3006 1.391 . S
C3008 C3009 1.400 . S
C3009 C3003 1.491 . S
C3009 C3008 1.400 . S
C3009 C3010 1.398 . S
C3010 H2998 0.950 . S
C3010 C3009 1.398 . S
C3010 C3011 1.391 . S
C3011 H2999 0.950 . S
C3011 C3007 1.393 . S
C3011 C3010 1.391 . S
H3012 C3020 0.950 . S
H3013 C3025 0.950 . S
H3014 C3022 0.950 1_545 S
H3015 C3024 0.950 . S
H3016 C3026 0.950 . S
H3017 C3028 0.950 . S
H3018 C3030 0.950 . S
H3019 C3031 0.950 . S
C3020 H3012 0.950 . S
C3020 C3021 1.386 . S
C3020 C3022 1.391 . S
C3021 C3020 1.386 . S
C3021 C3025 1.393 . S
C3022 H3014 0.950 1_565 S
C3022 C3020 1.391 . S
C3022 C3023 1.400 . S
C3023 C3022 1.400 . S
C3023 C3024 1.398 . S
C3023 C3029 1.491 . S
C3024 H3015 0.950 . S
C3024 C3023 1.398 . S
C3024 C3025 1.391 . S
C3025 H3013 0.950 . S
C3025 C3021 1.393 . S
C3025 C3024 1.391 . S
C3026 H3016 0.950 . S
C3026 C3027 1.386 . S
C3026 C3028 1.391 . S
C3027 C3026 1.386 . S
C3027 C3031 1.393 1_565 S
C3028 H3017 0.950 . S
C3028 C3026 1.391 . S
C3028 C3029 1.400 . S
C3029 C3023 1.491 . S
C3029 C3028 1.400 . S
C3029 C3030 1.398 1_565 S
C3030 H3018 0.950 . S
C3030 C3029 1.398 1_545 S
C3030 C3031 1.391 . S
C3031 H3019 0.950 . S
C3031 C3027 1.393 1_545 S
C3031 C3030 1.391 . S
H3032 C3040 0.950 . S
H3033 C3045 0.950 . S
H3034 C3042 0.950 . S
H3035 C3044 0.950 . S
H3036 C3046 0.950 . S
H3037 C3048 0.950 . S
H3038 C3050 0.950 . S
H3039 C3051 0.950 . S
C3040 H3032 0.950 . S
C3040 C3041 1.386 . S
C3040 C3042 1.391 . S
C3041 C3040 1.386 . S
C3041 C3045 1.393 . S
C3042 H3034 0.950 . S
C3042 C3040 1.391 . S
C3042 C3043 1.400 . S
C3043 C3042 1.400 . S
C3043 C3044 1.398 . S
C3043 C3049 1.491 . S
C3044 H3035 0.950 . S
C3044 C3043 1.398 . S
C3044 C3045 1.391 . S
C3045 H3033 0.950 . S
C3045 C3041 1.393 . S
C3045 C3044 1.391 . S
C3046 H3036 0.950 . S
C3046 C3047 1.386 . S
C3046 C3048 1.391 . S
C3047 C3046 1.386 . S
C3047 C3051 1.393 . S
C3048 H3037 0.950 . S
C3048 C3046 1.391 . S
C3048 C3049 1.400 . S
C3049 C3043 1.491 . S
C3049 C3048 1.400 . S
C3049 C3050 1.398 . S
C3050 H3038 0.950 . S
C3050 C3049 1.398 . S
C3050 C3051 1.391 . S
C3051 H3039 0.950 . S
C3051 C3047 1.393 . S
C3051 C3050 1.391 . S
H3052 C3060 0.950 . S
H3053 C3065 0.950 . S
H3054 C3062 0.950 . S
H3055 C3064 0.950 . S
H3056 C3066 0.950 . S
H3057 C3068 0.950 . S
H3058 C3070 0.950 . S
H3059 C3071 0.950 . S
C3060 H3052 0.950 . S
C3060 C3061 1.386 . S
C3060 C3062 1.391 . S
C3061 C3060 1.386 . S
C3061 C3065 1.393 . S
C3062 H3054 0.950 . S
C3062 C3060 1.391 . S
C3062 C3063 1.400 . S
C3063 C3062 1.400 . S
C3063 C3064 1.398 . S
C3063 C3069 1.491 . S
C3064 H3055 0.950 . S
C3064 C3063 1.398 . S
C3064 C3065 1.391 . S
C3065 H3053 0.950 . S
C3065 C3061 1.393 . S
C3065 C3064 1.391 . S
C3066 H3056 0.950 . S
C3066 C3067 1.386 . S
C3066 C3068 1.391 . S
C3067 C3066 1.386 . S
C3067 C3071 1.393 . S
C3068 H3057 0.950 . S
C3068 C3066 1.391 . S
C3068 C3069 1.400 . S
C3069 C3063 1.491 . S
C3069 C3068 1.400 . S
C3069 C3070 1.398 . S
C3070 H3058 0.950 . S
C3070 C3069 1.398 . S
C3070 C3071 1.391 . S
C3071 H3059 0.950 . S
C3071 C3067 1.393 . S
C3071 C3070 1.391 . S
H3072 C3080 0.950 . S
H3073 C3085 0.950 . S
H3074 C3082 0.950 . S
H3075 C3084 0.950 1_554 S
H3076 C3086 0.950 . S
H3077 C3088 0.950 . S
H3078 C3090 0.950 . S
H3079 C3091 0.950 . S
C3080 H3072 0.950 . S
C3080 C3081 1.386 . S
C3080 C3082 1.391 . S
C3081 C3080 1.386 . S
C3081 C3085 1.393 . S
C3082 H3074 0.950 . S
C3082 C3080 1.391 . S
C3082 C3083 1.400 . S
C3083 C3082 1.400 . S
C3083 C3084 1.398 . S
C3083 C3089 1.491 . S
C3084 H3075 0.950 1_556 S
C3084 C3083 1.398 . S
C3084 C3085 1.391 . S
C3085 H3073 0.950 . S
C3085 C3081 1.393 . S
C3085 C3084 1.391 . S
C3086 H3076 0.950 . S
C3086 C3087 1.386 1_554 S
C3086 C3088 1.391 . S
C3087 C3086 1.386 1_556 S
C3087 C3091 1.393 . S
C3088 H3077 0.950 . S
C3088 C3086 1.391 . S
C3088 C3089 1.400 1_554 S
C3089 C3083 1.491 . S
C3089 C3088 1.400 1_556 S
C3089 C3090 1.398 . S
C3090 H3078 0.950 . S
C3090 C3089 1.398 . S
C3090 C3091 1.391 . S
C3091 H3079 0.950 . S
C3091 C3087 1.393 . S
C3091 C3090 1.391 . S
H3092 C3100 0.950 . S
H3093 C3105 0.950 . S
H3094 C3102 0.950 . S
H3095 C3104 0.950 . S
H3096 C3106 0.950 . S
H3097 C3108 0.950 . S
H3098 C3110 0.950 . S
H3099 C3111 0.950 . S
C3100 H3092 0.950 . S
C3100 C3101 1.386 . S
C3100 C3102 1.391 . S
C3101 C3100 1.386 . S
C3101 C3105 1.393 . S
C3102 H3094 0.950 . S
C3102 C3100 1.391 . S
C3102 C3103 1.400 . S
C3103 C3102 1.400 . S
C3103 C3104 1.398 . S
C3103 C3109 1.491 . S
C3104 H3095 0.950 . S
C3104 C3103 1.398 . S
C3104 C3105 1.391 . S
C3105 H3093 0.950 . S
C3105 C3101 1.393 . S
C3105 C3104 1.391 . S
C3106 H3096 0.950 . S
C3106 C3107 1.386 . S
C3106 C3108 1.391 . S
C3107 C3106 1.386 . S
C3107 C3111 1.393 . S
C3108 H3097 0.950 . S
C3108 C3106 1.391 . S
C3108 C3109 1.400 . S
C3109 C3103 1.491 . S
C3109 C3108 1.400 . S
C3109 C3110 1.398 . S
C3110 H3098 0.950 . S
C3110 C3109 1.398 . S
C3110 C3111 1.391 . S
C3111 H3099 0.950 . S
C3111 C3107 1.393 . S
C3111 C3110 1.391 . S
H3112 C3120 0.950 . S
H3113 C3125 0.950 . S
H3114 C3122 0.950 . S
H3115 C3124 0.950 . S
H3116 C3126 0.950 . S
H3117 C3128 0.950 . S
H3118 C3130 0.950 . S
H3119 C3131 0.950 . S
C3120 H3112 0.950 . S
C3120 C3121 1.386 . S
C3120 C3122 1.391 . S
C3121 C3120 1.386 . S
C3121 C3125 1.393 . S
C3122 H3114 0.950 . S
C3122 C3120 1.391 . S
C3122 C3123 1.400 . S
C3123 C3122 1.400 . S
C3123 C3124 1.398 . S
C3123 C3129 1.491 . S
C3124 H3115 0.950 . S
C3124 C3123 1.398 . S
C3124 C3125 1.391 . S
C3125 H3113 0.950 . S
C3125 C3121 1.393 . S
C3125 C3124 1.391 . S
C3126 H3116 0.950 . S
C3126 C3127 1.386 . S
C3126 C3128 1.391 . S
C3127 C3126 1.386 . S
C3127 C3131 1.393 . S
C3128 H3117 0.950 . S
C3128 C3126 1.391 . S
C3128 C3129 1.400 . S
C3129 C3123 1.491 . S
C3129 C3128 1.400 . S
C3129 C3130 1.398 . S
C3130 H3118 0.950 . S
C3130 C3129 1.398 . S
C3130 C3131 1.391 . S
C3131 H3119 0.950 . S
C3131 C3127 1.393 . S
C3131 C3130 1.391 . S
H3132 C3140 0.950 . S
H3133 C3145 0.950 . S
H3134 C3142 0.950 . S
H3135 C3144 0.950 . S
H3136 C3146 0.950 . S
H3137 C3148 0.950 . S
H3138 C3150 0.950 . S
H3139 C3151 0.950 . S
C3140 H3132 0.950 . S
C3140 C3141 1.386 . S
C3140 C3142 1.391 . S
C3141 C3140 1.386 . S
C3141 C3145 1.393 . S
C3142 H3134 0.950 . S
C3142 C3140 1.391 . S
C3142 C3143 1.400 . S
C3143 C3142 1.400 . S
C3143 C3144 1.398 . S
C3143 C3149 1.491 . S
C3144 H3135 0.950 . S
C3144 C3143 1.398 . S
C3144 C3145 1.391 . S
C3145 H3133 0.950 . S
C3145 C3141 1.393 . S
C3145 C3144 1.391 . S
C3146 H3136 0.950 . S
C3146 C3147 1.386 . S
C3146 C3148 1.391 . S
C3147 C3146 1.386 . S
C3147 C3151 1.393 . S
C3148 H3137 0.950 . S
C3148 C3146 1.391 . S
C3148 C3149 1.400 . S
C3149 C3143 1.491 . S
C3149 C3148 1.400 . S
C3149 C3150 1.398 . S
C3150 H3138 0.950 . S
C3150 C3149 1.398 . S
C3150 C3151 1.391 . S
C3151 H3139 0.950 . S
C3151 C3147 1.393 . S
C3151 C3150 1.391 . S
H3152 C3160 0.950 . S
H3153 C3165 0.950 . S
H3154 C3162 0.950 . S
H3155 C3164 0.950 . S
H3156 C3166 0.950 . S
H3157 C3168 0.950 . S
H3158 C3170 0.950 1_655 S
H3159 C3171 0.950 . S
C3160 H3152 0.950 . S
C3160 C3161 1.386 1_655 S
C3160 C3162 1.391 . S
C3161 C3160 1.386 1_455 S
C3161 C3165 1.393 . S
C3162 H3154 0.950 . S
C3162 C3160 1.391 . S
C3162 C3163 1.400 1_655 S
C3163 C3162 1.400 1_455 S
C3163 C3164 1.398 . S
C3163 C3169 1.491 . S
C3164 H3155 0.950 . S
C3164 C3163 1.398 . S
C3164 C3165 1.391 . S
C3165 H3153 0.950 . S
C3165 C3161 1.393 . S
C3165 C3164 1.391 . S
C3166 H3156 0.950 . S
C3166 C3167 1.386 . S
C3166 C3168 1.391 . S
C3167 C3166 1.386 . S
C3167 C3171 1.393 . S
C3168 H3157 0.950 . S
C3168 C3166 1.391 . S
C3168 C3169 1.400 . S
C3169 C3163 1.491 . S
C3169 C3168 1.400 . S
C3169 C3170 1.398 . S
C3170 H3158 0.950 1_455 S
C3170 C3169 1.398 . S
C3170 C3171 1.391 . S
C3171 H3159 0.950 . S
C3171 C3167 1.393 . S
C3171 C3170 1.391 . S
H3172 C3180 0.950 . S
H3173 C3185 0.950 . S
H3174 C3182 0.950 . S
H3175 C3184 0.950 . S
H3176 C3186 0.950 . S
H3177 C3188 0.950 . S
H3178 C3190 0.950 . S
H3179 C3191 0.950 . S
C3180 H3172 0.950 . S
C3180 C3181 1.386 . S
C3180 C3182 1.391 . S
C3181 C3180 1.386 . S
C3181 C3185 1.393 . S
C3182 H3174 0.950 . S
C3182 C3180 1.391 . S
C3182 C3183 1.400 . S
C3183 C3182 1.400 . S
C3183 C3184 1.398 . S
C3183 C3189 1.491 . S
C3184 H3175 0.950 . S
C3184 C3183 1.398 . S
C3184 C3185 1.391 . S
C3185 H3173 0.950 . S
C3185 C3181 1.393 . S
C3185 C3184 1.391 . S
C3186 H3176 0.950 . S
C3186 C3187 1.386 . S
C3186 C3188 1.391 . S
C3187 C3186 1.386 . S
C3187 C3191 1.393 . S
C3188 H3177 0.950 . S
C3188 C3186 1.391 . S
C3188 C3189 1.400 . S
C3189 C3183 1.491 . S
C3189 C3188 1.400 . S
C3189 C3190 1.398 . S
C3190 H3178 0.950 . S
C3190 C3189 1.398 . S
C3190 C3191 1.391 . S
C3191 H3179 0.950 . S
C3191 C3187 1.393 . S
C3191 C3190 1.391 . S
H3192 C3200 0.950 . S
H3193 C3205 0.950 . S
H3194 C3202 0.950 . S
H3195 C3204 0.950 . S
H3196 C3206 0.950 . S
H3197 C3208 0.950 . S
H3198 C3210 0.950 . S
H3199 C3211 0.950 . S
C3200 H3192 0.950 . S
C3200 C3201 1.386 . S
C3200 C3202 1.391 . S
C3201 C3200 1.386 . S
C3201 C3205 1.393 . S
C3202 H3194 0.950 . S
C3202 C3200 1.391 . S
C3202 C3203 1.400 . S
C3203 C3202 1.400 . S
C3203 C3204 1.398 . S
C3203 C3209 1.491 . S
C3204 H3195 0.950 . S
C3204 C3203 1.398 . S
C3204 C3205 1.391 . S
C3205 H3193 0.950 . S
C3205 C3201 1.393 . S
C3205 C3204 1.391 . S
C3206 H3196 0.950 . S
C3206 C3207 1.386 . S
C3206 C3208 1.391 . S
C3207 C3206 1.386 . S
C3207 C3211 1.393 . S
C3208 H3197 0.950 . S
C3208 C3206 1.391 . S
C3208 C3209 1.400 . S
C3209 C3203 1.491 . S
C3209 C3208 1.400 . S
C3209 C3210 1.398 . S
C3210 H3198 0.950 . S
C3210 C3209 1.398 . S
C3210 C3211 1.391 . S
C3211 H3199 0.950 . S
C3211 C3207 1.393 . S
C3211 C3210 1.391 . S
H3212 C3220 0.950 . S
H3213 C3225 0.950 . S
H3214 C3222 0.950 . S
H3215 C3224 0.950 . S
H3216 C3226 0.950 . S
H3217 C3228 0.950 . S
H3218 C3230 0.950 . S
H3219 C3231 0.950 . S
C3220 H3212 0.950 . S
C3220 C3221 1.386 . S
C3220 C3222 1.391 . S
C3221 C3220 1.386 . S
C3221 C3225 1.393 . S
C3222 H3214 0.950 . S
C3222 C3220 1.391 . S
C3222 C3223 1.400 . S
C3223 C3222 1.400 . S
C3223 C3224 1.398 . S
C3223 C3229 1.491 . S
C3224 H3215 0.950 . S
C3224 C3223 1.398 . S
C3224 C3225 1.391 . S
C3225 H3213 0.950 . S
C3225 C3221 1.393 . S
C3225 C3224 1.391 . S
C3226 H3216 0.950 . S
C3226 C3227 1.386 . S
C3226 C3228 1.391 . S
C3227 C3226 1.386 . S
C3227 C3231 1.393 . S
C3228 H3217 0.950 . S
C3228 C3226 1.391 . S
C3228 C3229 1.400 . S
C3229 C3223 1.491 . S
C3229 C3228 1.400 . S
C3229 C3230 1.398 . S
C3230 H3218 0.950 . S
C3230 C3229 1.398 . S
C3230 C3231 1.391 . S
C3231 H3219 0.950 . S
C3231 C3227 1.393 . S
C3231 C3230 1.391 . S
H3232 C3240 0.950 . S
H3233 C3245 0.950 . S
H3234 C3242 0.950 . S
H3235 C3244 0.950 . S
H3236 C3246 0.950 . S
H3237 C3248 0.950 . S
H3238 C3250 0.950 . S
H3239 C3251 0.950 1_455 S
C3240 H3232 0.950 . S
C3240 C3241 1.386 . S
C3240 C3242 1.391 . S
C3241 C3240 1.386 . S
C3241 C3245 1.393 . S
C3242 H3234 0.950 . S
C3242 C3240 1.391 . S
C3242 C3243 1.400 . S
C3243 C3242 1.400 . S
C3243 C3244 1.398 . S
C3243 C3249 1.491 . S
C3244 H3235 0.950 . S
C3244 C3243 1.398 . S
C3244 C3245 1.391 . S
C3245 H3233 0.950 . S
C3245 C3241 1.393 . S
C3245 C3244 1.391 . S
C3246 H3236 0.950 . S
C3246 C3247 1.386 . S
C3246 C3248 1.391 . S
C3247 C3246 1.386 . S
C3247 C3251 1.393 . S
C3248 H3237 0.950 . S
C3248 C3246 1.391 . S
C3248 C3249 1.400 . S
C3249 C3243 1.491 . S
C3249 C3248 1.400 . S
C3249 C3250 1.398 . S
C3250 H3238 0.950 . S
C3250 C3249 1.398 . S
C3250 C3251 1.391 . S
C3251 H3239 0.950 1_655 S
C3251 C3247 1.393 . S
C3251 C3250 1.391 . S
H3252 C3260 0.950 . S
H3253 C3265 0.950 . S
H3254 C3262 0.950 . S
H3255 C3264 0.950 . S
H3256 C3266 0.950 . S
H3257 C3268 0.950 . S
H3258 C3270 0.950 . S
H3259 C3271 0.950 . S
C3260 H3252 0.950 . S
C3260 C3261 1.386 . S
C3260 C3262 1.391 . S
C3261 C3260 1.386 . S
C3261 C3265 1.393 . S
C3262 H3254 0.950 . S
C3262 C3260 1.391 . S
C3262 C3263 1.400 . S
C3263 C3262 1.400 . S
C3263 C3264 1.398 . S
C3263 C3269 1.491 . S
C3264 H3255 0.950 . S
C3264 C3263 1.398 . S
C3264 C3265 1.391 . S
C3265 H3253 0.950 . S
C3265 C3261 1.393 . S
C3265 C3264 1.391 . S
C3266 H3256 0.950 . S
C3266 C3267 1.386 . S
C3266 C3268 1.391 . S
C3267 C3266 1.386 . S
C3267 C3271 1.393 . S
C3268 H3257 0.950 . S
C3268 C3266 1.391 . S
C3268 C3269 1.400 . S
C3269 C3263 1.491 . S
C3269 C3268 1.400 . S
C3269 C3270 1.398 . S
C3270 H3258 0.950 . S
C3270 C3269 1.398 . S
C3270 C3271 1.391 . S
C3271 H3259 0.950 . S
C3271 C3267 1.393 . S
C3271 C3270 1.391 . S
H3272 C3280 0.950 1_565 S
H3273 C3285 0.950 . S
H3274 C3282 0.950 1_565 S
H3275 C3284 0.950 . S
H3276 C3286 0.950 . S
H3277 C3288 0.950 . S
H3278 C3290 0.935 1_565 S
H3279 C3291 0.950 . S
C3280 H3272 0.950 1_545 S
C3280 C3281 1.386 . S
C3280 C3282 1.391 . S
C3281 C3280 1.386 . S
C3281 C3285 1.393 . S
C3282 H3274 0.950 1_545 S
C3282 C3280 1.391 . S
C3282 C3283 1.400 . S
C3283 C3282 1.400 . S
C3283 C3284 1.398 . S
C3283 C3289 1.491 . S
C3284 H3275 0.950 . S
C3284 C3283 1.398 . S
C3284 C3285 1.391 . S
C3285 H3273 0.950 . S
C3285 C3281 1.393 . S
C3285 C3284 1.391 . S
C3286 H3276 0.950 . S
C3286 C3287 1.386 . S
C3286 C3288 1.391 . S
C3287 C3286 1.386 . S
C3287 C3291 1.393 . S
C3288 H3277 0.950 . S
C3288 C3286 1.391 . S
C3288 C3289 1.400 . S
C3289 C3283 1.491 . S
C3289 C3288 1.400 . S
C3289 C3290 1.398 . S
C3290 H3278 0.935 1_545 S
C3290 C3289 1.398 . S
C3290 C3291 1.391 . S
C3291 H3279 0.950 . S
C3291 C3287 1.393 . S
C3291 C3290 1.391 . S
H3292 C3300 0.950 . S
H3293 C3305 0.950 . S
H3294 C3302 0.950 . S
H3295 C3304 0.950 . S
H3296 C3306 0.950 . S
H3297 C3308 0.950 . S
H3298 C3310 0.950 . S
H3299 C3311 0.950 . S
C3300 H3292 0.950 . S
C3300 C3301 1.386 . S
C3300 C3302 1.391 . S
C3301 C3300 1.386 . S
C3301 C3305 1.393 . S
C3302 H3294 0.950 . S
C3302 C3300 1.391 . S
C3302 C3303 1.400 . S
C3303 C3302 1.400 . S
C3303 C3304 1.398 . S
C3303 C3309 1.491 . S
C3304 H3295 0.950 . S
C3304 C3303 1.398 . S
C3304 C3305 1.391 . S
C3305 H3293 0.950 . S
C3305 C3301 1.393 . S
C3305 C3304 1.391 . S
C3306 H3296 0.950 . S
C3306 C3307 1.386 . S
C3306 C3308 1.391 . S
C3307 C3306 1.386 . S
C3307 C3311 1.393 . S
C3308 H3297 0.950 . S
C3308 C3306 1.391 . S
C3308 C3309 1.400 . S
C3309 C3303 1.491 . S
C3309 C3308 1.400 . S
C3309 C3310 1.398 . S
C3310 H3298 0.950 . S
C3310 C3309 1.398 . S
C3310 C3311 1.391 . S
C3311 H3299 0.950 . S
C3311 C3307 1.393 . S
C3311 C3310 1.391 . S
H3312 C3320 0.950 . S
H3313 C3325 0.950 . S
H3314 C3322 0.950 . S
H3315 C3324 0.950 . S
H3316 C3326 0.950 1_565 S
H3317 C3328 0.918 1_565 S
H3318 C3330 0.950 . S
H3319 C3331 0.950 . S
C3320 H3312 0.950 . S
C3320 C3321 1.386 . S
C3320 C3322 1.391 . S
C3321 C3320 1.386 . S
C3321 C3325 1.393 . S
C3322 H3314 0.950 . S
C3322 C3320 1.391 . S
C3322 C3323 1.400 . S
C3323 C3322 1.400 . S
C3323 C3324 1.398 . S
C3323 C3329 1.491 . S
C3324 H3315 0.950 . S
C3324 C3323 1.398 . S
C3324 C3325 1.391 . S
C3325 H3313 0.950 . S
C3325 C3321 1.393 . S
C3325 C3324 1.391 . S
C3326 H3316 0.950 1_545 S
C3326 C3327 1.386 . S
C3326 C3328 1.391 . S
C3327 C3326 1.386 . S
C3327 C3331 1.393 . S
C3328 H3317 0.918 1_545 S
C3328 C3326 1.391 . S
C3328 C3329 1.400 . S
C3329 C3323 1.491 . S
C3329 C3328 1.400 . S
C3329 C3330 1.398 . S
C3330 H3318 0.950 . S
C3330 C3329 1.398 . S
C3330 C3331 1.391 . S
C3331 H3319 0.950 . S
C3331 C3327 1.393 . S
C3331 C3330 1.391 . S
H3332 C3340 0.950 . S
H3333 C3345 0.950 . S
H3334 C3342 0.950 . S
H3335 C3344 0.950 . S
H3336 C3346 0.950 . S
H3337 C3348 0.950 . S
H3338 C3350 0.950 . S
H3339 C3351 0.950 . S
C3340 H3332 0.950 . S
C3340 C3341 1.386 . S
C3340 C3342 1.391 . S
C3341 C3340 1.386 . S
C3341 C3345 1.393 . S
C3342 H3334 0.950 . S
C3342 C3340 1.391 . S
C3342 C3343 1.400 . S
C3343 C3342 1.400 . S
C3343 C3344 1.398 . S
C3343 C3349 1.491 . S
C3344 H3335 0.950 . S
C3344 C3343 1.398 . S
C3344 C3345 1.391 . S
C3345 H3333 0.950 . S
C3345 C3341 1.393 . S
C3345 C3344 1.391 . S
C3346 H3336 0.950 . S
C3346 C3347 1.386 . S
C3346 C3348 1.391 . S
C3347 C3346 1.386 . S
C3347 C3351 1.393 . S
C3348 H3337 0.950 . S
C3348 C3346 1.391 . S
C3348 C3349 1.400 . S
C3349 C3343 1.491 . S
C3349 C3348 1.400 . S
C3349 C3350 1.398 . S
C3350 H3338 0.950 . S
C3350 C3349 1.398 . S
C3350 C3351 1.391 . S
C3351 H3339 0.950 . S
C3351 C3347 1.393 . S
C3351 C3350 1.391 . S
H3352 C3360 0.950 . S
H3353 C3365 0.950 . S
H3354 C3362 0.914 1_565 S
H3355 C3364 0.950 . S
H3356 C3366 0.950 . S
H3357 C3368 0.950 . S
H3358 C3370 0.971 . S
H3359 C3371 0.950 . S
C3360 H3352 0.950 . S
C3360 C3361 1.386 1_565 S
C3360 C3362 1.378 1_565 S
C3361 C3360 1.386 1_545 S
C3361 C3365 1.393 . S
C3362 H3354 0.914 1_545 S
C3362 C3360 1.378 1_545 S
C3362 C3363 1.451 . S
C3363 C3362 1.451 . S
C3363 C3364 1.398 . S
C3363 C3369 1.491 . S
C3364 H3355 0.950 . S
C3364 C3363 1.398 . S
C3364 C3365 1.391 . S
C3365 H3353 0.950 . S
C3365 C3361 1.393 . S
C3365 C3364 1.391 . S
C3366 H3356 0.950 . S
C3366 C3367 1.386 . S
C3366 C3368 1.391 . S
C3367 C3366 1.386 . S
C3367 C3371 1.393 . S
C3368 H3357 0.950 . S
C3368 C3366 1.391 . S
C3368 C3369 1.400 . S
C3369 C3363 1.491 . S
C3369 C3368 1.400 . S
C3369 C3370 1.398 . S
C3370 H3358 0.971 . S
C3370 C3369 1.398 . S
C3370 C3371 1.391 . S
C3371 H3359 0.950 . S
C3371 C3367 1.393 . S
C3371 C3370 1.391 . S
H3372 C3380 0.950 . S
H3373 C3385 0.950 . S
H3374 C3382 0.950 . S
H3375 C3384 0.950 . S
H3376 C3386 0.950 . S
H3377 C3388 0.950 . S
H3378 C3390 0.950 . S
H3379 C3391 0.950 . S
C3380 H3372 0.950 . S
C3380 C3381 1.386 . S
C3380 C3382 1.391 . S
C3381 C3380 1.386 . S
C3381 C3385 1.393 . S
C3382 H3374 0.950 . S
C3382 C3380 1.391 . S
C3382 C3383 1.400 . S
C3383 C3382 1.400 . S
C3383 C3384 1.398 . S
C3383 C3389 1.491 . S
C3384 H3375 0.950 . S
C3384 C3383 1.398 . S
C3384 C3385 1.391 . S
C3385 H3373 0.950 . S
C3385 C3381 1.393 . S
C3385 C3384 1.391 . S
C3386 H3376 0.950 . S
C3386 C3387 1.386 . S
C3386 C3388 1.391 . S
C3387 C3386 1.386 . S
C3387 C3391 1.393 . S
C3388 H3377 0.950 . S
C3388 C3386 1.391 . S
C3388 C3389 1.400 . S
C3389 C3383 1.491 . S
C3389 C3388 1.400 . S
C3389 C3390 1.398 . S
C3390 H3378 0.950 . S
C3390 C3389 1.398 . S
C3390 C3391 1.391 . S
C3391 H3379 0.950 . S
C3391 C3387 1.393 . S
C3391 C3390 1.391 . S
H3392 C3400 0.950 . S
H3393 C3405 0.950 . S
H3394 C3402 0.950 . S
H3395 C3404 0.950 1_545 S
H3396 C3406 0.950 . S
H3397 C3408 0.950 . S
H3398 C3410 0.950 . S
H3399 C3411 0.950 . S
C3400 H3392 0.950 . S
C3400 C3401 1.386 . S
C3400 C3402 1.391 . S
C3401 C3400 1.386 . S
C3401 C3405 1.393 . S
C3402 H3394 0.950 . S
C3402 C3400 1.391 . S
C3402 C3403 1.400 . S
C3403 C3402 1.400 . S
C3403 C3404 1.398 . S
C3403 C3409 1.491 . S
C3404 H3395 0.950 1_565 S
C3404 C3403 1.398 . S
C3404 C3405 1.391 . S
C3405 H3393 0.950 . S
C3405 C3401 1.393 . S
C3405 C3404 1.391 . S
C3406 H3396 0.950 . S
C3406 C3407 1.386 . S
C3406 C3408 1.391 . S
C3407 C3406 1.386 . S
C3407 C3411 1.393 1_545 S
C3408 H3397 0.950 . S
C3408 C3406 1.391 . S
C3408 C3409 1.400 1_545 S
C3409 C3403 1.491 . S
C3409 C3408 1.400 1_565 S
C3409 C3410 1.398 . S
C3410 H3398 0.950 . S
C3410 C3409 1.398 . S
C3410 C3411 1.391 . S
C3411 H3399 0.950 . S
C3411 C3407 1.393 1_565 S
C3411 C3410 1.391 . S
H3412 C3420 0.950 . S
H3413 C3425 0.950 . S
H3414 C3422 0.950 . S
H3415 C3424 0.950 . S
H3416 C3426 0.950 . S
H3417 C3428 0.950 1_556 S
H3418 C3430 0.950 . S
H3419 C3431 0.950 . S
C3420 H3412 0.950 . S
C3420 C3421 1.386 1_554 S
C3420 C3422 1.391 . S
C3421 C3420 1.386 1_556 S
C3421 C3425 1.393 . S
C3422 H3414 0.950 . S
C3422 C3420 1.391 . S
C3422 C3423 1.400 . S
C3423 C3422 1.400 . S
C3423 C3424 1.398 1_554 S
C3423 C3429 1.491 . S
C3424 H3415 0.950 . S
C3424 C3423 1.398 1_556 S
C3424 C3425 1.391 . S
C3425 H3413 0.950 . S
C3425 C3421 1.393 . S
C3425 C3424 1.391 . S
C3426 H3416 0.950 . S
C3426 C3427 1.386 . S
C3426 C3428 1.391 . S
C3427 C3426 1.386 . S
C3427 C3431 1.393 . S
C3428 H3417 0.950 1_554 S
C3428 C3426 1.391 . S
C3428 C3429 1.400 . S
C3429 C3423 1.491 . S
C3429 C3428 1.400 . S
C3429 C3430 1.398 . S
C3430 H3418 0.950 . S
C3430 C3429 1.398 . S
C3430 C3431 1.391 . S
C3431 H3419 0.950 . S
C3431 C3427 1.393 . S
C3431 C3430 1.391 . S
H3432 C3440 0.950 . S
H3433 C3445 0.950 . S
H3434 C3442 0.950 . S
H3435 C3444 0.950 . S
H3436 C3446 0.950 . S
H3437 C3448 0.950 . S
H3438 C3450 0.950 . S
H3439 C3451 0.950 . S
C3440 H3432 0.950 . S
C3440 C3441 1.386 . S
C3440 C3442 1.391 . S
C3441 C3440 1.386 . S
C3441 C3445 1.393 . S
C3442 H3434 0.950 . S
C3442 C3440 1.391 . S
C3442 C3443 1.400 . S
C3443 C3442 1.400 . S
C3443 C3444 1.398 . S
C3443 C3449 1.491 . S
C3444 H3435 0.950 . S
C3444 C3443 1.398 . S
C3444 C3445 1.391 . S
C3445 H3433 0.950 . S
C3445 C3441 1.393 . S
C3445 C3444 1.391 . S
C3446 H3436 0.950 . S
C3446 C3447 1.386 . S
C3446 C3448 1.391 . S
C3447 C3446 1.386 . S
C3447 C3451 1.393 . S
C3448 H3437 0.950 . S
C3448 C3446 1.391 . S
C3448 C3449 1.400 . S
C3449 C3443 1.491 . S
C3449 C3448 1.400 . S
C3449 C3450 1.398 . S
C3450 H3438 0.950 . S
C3450 C3449 1.398 . S
C3450 C3451 1.391 . S
C3451 H3439 0.950 . S
C3451 C3447 1.393 . S
C3451 C3450 1.391 . S
H3452 C3460 0.950 . S
H3453 C3465 0.950 . S
H3454 C3462 0.950 . S
H3455 C3464 0.950 . S
H3456 C3466 0.950 . S
H3457 C3468 0.950 . S
H3458 C3470 0.950 . S
H3459 C3471 0.950 . S
C3460 H3452 0.950 . S
C3460 C3461 1.386 . S
C3460 C3462 1.391 . S
C3461 C3460 1.386 . S
C3461 C3465 1.393 . S
C3462 H3454 0.950 . S
C3462 C3460 1.391 . S
C3462 C3463 1.400 . S
C3463 C3462 1.400 . S
C3463 C3464 1.398 . S
C3463 C3469 1.491 . S
C3464 H3455 0.950 . S
C3464 C3463 1.398 . S
C3464 C3465 1.391 . S
C3465 H3453 0.950 . S
C3465 C3461 1.393 . S
C3465 C3464 1.391 . S
C3466 H3456 0.950 . S
C3466 C3467 1.386 . S
C3466 C3468 1.391 . S
C3467 C3466 1.386 . S
C3467 C3471 1.393 . S
C3468 H3457 0.950 . S
C3468 C3466 1.391 . S
C3468 C3469 1.400 . S
C3469 C3463 1.491 . S
C3469 C3468 1.400 . S
C3469 C3470 1.398 . S
C3470 H3458 0.950 . S
C3470 C3469 1.398 . S
C3470 C3471 1.391 . S
C3471 H3459 0.950 . S
C3471 C3467 1.393 . S
C3471 C3470 1.391 . S
H3472 C3480 0.950 . S
H3473 C3485 0.950 . S
H3474 C3482 0.950 . S
H3475 C3484 0.950 . S
H3476 C3486 0.950 . S
H3477 C3488 0.950 . S
H3478 C3490 0.950 . S
H3479 C3491 0.950 . S
C3480 H3472 0.950 . S
C3480 C3481 1.386 . S
C3480 C3482 1.391 . S
C3481 C3480 1.386 . S
C3481 C3485 1.393 . S
C3482 H3474 0.950 . S
C3482 C3480 1.391 . S
C3482 C3483 1.400 . S
C3483 C3482 1.400 . S
C3483 C3484 1.398 . S
C3483 C3489 1.491 . S
C3484 H3475 0.950 . S
C3484 C3483 1.398 . S
C3484 C3485 1.391 . S
C3485 H3473 0.950 . S
C3485 C3481 1.393 . S
C3485 C3484 1.391 . S
C3486 H3476 0.950 . S
C3486 C3487 1.386 . S
C3486 C3488 1.391 . S
C3487 C3486 1.386 . S
C3487 C3491 1.393 . S
C3488 H3477 0.950 . S
C3488 C3486 1.391 . S
C3488 C3489 1.400 . S
C3489 C3483 1.491 . S
C3489 C3488 1.400 . S
C3489 C3490 1.398 . S
C3490 H3478 0.950 . S
C3490 C3489 1.398 . S
C3490 C3491 1.391 . S
C3491 H3479 0.950 . S
C3491 C3487 1.393 . S
C3491 C3490 1.391 . S
H3492 C3500 0.950 . S
H3493 C3505 0.950 . S
H3494 C3502 0.950 . S
H3495 C3504 0.950 . S
H3496 C3506 0.950 . S
H3497 C3508 0.950 . S
H3498 C3510 0.950 . S
H3499 C3511 0.950 . S
C3500 H3492 0.950 . S
C3500 C3501 1.386 . S
C3500 C3502 1.391 . S
C3501 C3500 1.386 . S
C3501 C3505 1.393 . S
C3502 H3494 0.950 . S
C3502 C3500 1.391 . S
C3502 C3503 1.400 . S
C3503 C3502 1.400 . S
C3503 C3504 1.398 . S
C3503 C3509 1.491 . S
C3504 H3495 0.950 . S
C3504 C3503 1.398 . S
C3504 C3505 1.391 . S
C3505 H3493 0.950 . S
C3505 C3501 1.393 . S
C3505 C3504 1.391 . S
C3506 H3496 0.950 . S
C3506 C3507 1.386 . S
C3506 C3508 1.391 . S
C3507 C3506 1.386 . S
C3507 C3511 1.393 . S
C3508 H3497 0.950 . S
C3508 C3506 1.391 . S
C3508 C3509 1.400 . S
C3509 C3503 1.491 . S
C3509 C3508 1.400 . S
C3509 C3510 1.398 . S
C3510 H3498 0.950 . S
C3510 C3509 1.398 . S
C3510 C3511 1.391 . S
C3511 H3499 0.950 . S
C3511 C3507 1.393 . S
C3511 C3510 1.391 . S
H3512 C3520 0.950 . S
H3513 C3525 0.950 . S
H3514 C3522 0.950 . S
H3515 C3524 0.950 . S
H3516 C3526 0.950 . S
H3517 C3528 0.950 . S
H3518 C3530 0.950 . S
H3519 C3531 0.950 . S
C3520 H3512 0.950 . S
C3520 C3521 1.386 . S
C3520 C3522 1.391 . S
C3521 C3520 1.386 . S
C3521 C3525 1.393 . S
C3522 H3514 0.950 . S
C3522 C3520 1.391 . S
C3522 C3523 1.400 . S
C3523 C3522 1.400 . S
C3523 C3524 1.398 . S
C3523 C3529 1.491 . S
C3524 H3515 0.950 . S
C3524 C3523 1.398 . S
C3524 C3525 1.391 . S
C3525 H3513 0.950 . S
C3525 C3521 1.393 . S
C3525 C3524 1.391 . S
C3526 H3516 0.950 . S
C3526 C3527 1.386 . S
C3526 C3528 1.391 . S
C3527 C3526 1.386 . S
C3527 C3531 1.393 . S
C3528 H3517 0.950 . S
C3528 C3526 1.391 . S
C3528 C3529 1.400 . S
C3529 C3523 1.491 . S
C3529 C3528 1.400 . S
C3529 C3530 1.398 . S
C3530 H3518 0.950 . S
C3530 C3529 1.398 . S
C3530 C3531 1.391 . S
C3531 H3519 0.950 . S
C3531 C3527 1.393 . S
C3531 C3530 1.391 . S
H3532 C3540 0.950 . S
H3533 C3545 0.950 . S
H3534 C3542 0.950 . S
H3535 C3544 0.950 . S
H3536 C3546 0.950 . S
H3537 C3548 0.950 . S
H3538 C3550 0.950 . S
H3539 C3551 0.950 . S
C3540 H3532 0.950 . S
C3540 C3541 1.386 . S
C3540 C3542 1.391 . S
C3541 C3540 1.386 . S
C3541 C3545 1.393 . S
C3542 H3534 0.950 . S
C3542 C3540 1.391 . S
C3542 C3543 1.400 . S
C3543 C3542 1.400 . S
C3543 C3544 1.398 . S
C3543 C3549 1.491 . S
C3544 H3535 0.950 . S
C3544 C3543 1.398 . S
C3544 C3545 1.391 . S
C3545 H3533 0.950 . S
C3545 C3541 1.393 . S
C3545 C3544 1.391 . S
C3546 H3536 0.950 . S
C3546 C3547 1.386 . S
C3546 C3548 1.391 . S
C3547 C3546 1.386 . S
C3547 C3551 1.393 . S
C3548 H3537 0.950 . S
C3548 C3546 1.391 . S
C3548 C3549 1.400 . S
C3549 C3543 1.491 . S
C3549 C3548 1.400 . S
C3549 C3550 1.398 . S
C3550 H3538 0.950 . S
C3550 C3549 1.398 . S
C3550 C3551 1.391 . S
C3551 H3539 0.950 . S
C3551 C3547 1.393 . S
C3551 C3550 1.391 . S
H3552 C3560 0.950 . S
H3553 C3565 0.950 . S
H3554 C3562 0.950 . S
H3555 C3564 0.950 . S
H3556 C3566 0.950 . S
H3557 C3568 0.950 . S
H3558 C3570 0.950 . S
H3559 C3571 0.950 . S
C3560 H3552 0.950 . S
C3560 C3561 1.386 . S
C3560 C3562 1.391 . S
C3561 C3560 1.386 . S
C3561 C3565 1.393 . S
C3562 H3554 0.950 . S
C3562 C3560 1.391 . S
C3562 C3563 1.400 . S
C3563 C3562 1.400 . S
C3563 C3564 1.398 . S
C3563 C3569 1.491 . S
C3564 H3555 0.950 . S
C3564 C3563 1.398 . S
C3564 C3565 1.391 . S
C3565 H3553 0.950 . S
C3565 C3561 1.393 . S
C3565 C3564 1.391 . S
C3566 H3556 0.950 . S
C3566 C3567 1.386 . S
C3566 C3568 1.391 . S
C3567 C3566 1.386 . S
C3567 C3571 1.393 . S
C3568 H3557 0.950 . S
C3568 C3566 1.391 . S
C3568 C3569 1.400 . S
C3569 C3563 1.491 . S
C3569 C3568 1.400 . S
C3569 C3570 1.398 . S
C3570 H3558 0.950 . S
C3570 C3569 1.398 . S
C3570 C3571 1.391 . S
C3571 H3559 0.950 . S
C3571 C3567 1.393 . S
C3571 C3570 1.391 . S
H3572 C3580 0.950 . S
H3573 C3585 0.950 . S
H3574 C3582 0.950 . S
H3575 C3584 0.950 . S
H3576 C3586 0.950 . S
H3577 C3588 0.950 . S
H3578 C3590 0.950 . S
H3579 C3591 0.950 . S
C3580 H3572 0.950 . S
C3580 C3581 1.386 . S
C3580 C3582 1.391 . S
C3581 C3580 1.386 . S
C3581 C3585 1.393 . S
C3582 H3574 0.950 . S
C3582 C3580 1.391 . S
C3582 C3583 1.400 . S
C3583 C3582 1.400 . S
C3583 C3584 1.398 . S
C3583 C3589 1.491 . S
C3584 H3575 0.950 . S
C3584 C3583 1.398 . S
C3584 C3585 1.391 . S
C3585 H3573 0.950 . S
C3585 C3581 1.393 . S
C3585 C3584 1.391 . S
C3586 H3576 0.950 . S
C3586 C3587 1.386 . S
C3586 C3588 1.391 . S
C3587 C3586 1.386 . S
C3587 C3591 1.393 . S
C3588 H3577 0.950 . S
C3588 C3586 1.391 . S
C3588 C3589 1.400 . S
C3589 C3583 1.491 . S
C3589 C3588 1.400 . S
C3589 C3590 1.398 . S
C3590 H3578 0.950 . S
C3590 C3589 1.398 . S
C3590 C3591 1.391 . S
C3591 H3579 0.950 . S
C3591 C3587 1.393 . S
C3591 C3590 1.391 . S
H3592 C3600 0.950 . S
H3593 C3605 0.950 1_655 S
H3594 C3602 0.950 . S
H3595 C3604 0.950 1_655 S
H3596 C3606 0.948 1_655 S
H3597 C3608 0.950 1_655 S
H3598 C3610 0.950 . S
H3599 C3611 0.950 . S
C3600 H3592 0.950 . S
C3600 C3601 1.386 . S
C3600 C3602 1.391 . S
C3601 C3600 1.386 . S
C3601 C3605 1.393 . S
C3602 H3594 0.950 . S
C3602 C3600 1.391 . S
C3602 C3603 1.400 . S
C3603 C3602 1.400 . S
C3603 C3604 1.398 . S
C3603 C3609 1.491 . S
C3604 H3595 0.950 1_455 S
C3604 C3603 1.398 . S
C3604 C3605 1.391 . S
C3605 H3593 0.950 1_455 S
C3605 C3601 1.393 . S
C3605 C3604 1.391 . S
C3606 H3596 0.948 1_455 S
C3606 C3607 1.386 . S
C3606 C3608 1.391 . S
C3607 C3606 1.386 . S
C3607 C3611 1.393 . S
C3608 H3597 0.950 1_455 S
C3608 C3606 1.391 . S
C3608 C3609 1.400 . S
C3609 C3603 1.491 . S
C3609 C3608 1.400 . S
C3609 C3610 1.398 . S
C3610 H3598 0.950 . S
C3610 C3609 1.398 . S
C3610 C3611 1.391 . S
C3611 H3599 0.950 . S
C3611 C3607 1.393 . S
C3611 C3610 1.391 . S
H3612 C3620 0.950 . S
H3613 C3625 0.950 . S
H3614 C3622 0.950 . S
H3615 C3624 0.950 . S
H3616 C3626 0.950 . S
H3617 C3628 0.950 . S
H3618 C3630 0.950 . S
H3619 C3631 0.950 . S
C3620 H3612 0.950 . S
C3620 C3621 1.386 . S
C3620 C3622 1.391 . S
C3621 C3620 1.386 . S
C3621 C3625 1.393 . S
C3622 H3614 0.950 . S
C3622 C3620 1.391 . S
C3622 C3623 1.400 . S
C3623 C3622 1.400 . S
C3623 C3624 1.398 . S
C3623 C3629 1.491 . S
C3624 H3615 0.950 . S
C3624 C3623 1.398 . S
C3624 C3625 1.391 . S
C3625 H3613 0.950 . S
C3625 C3621 1.393 . S
C3625 C3624 1.391 . S
C3626 H3616 0.950 . S
C3626 C3627 1.386 . S
C3626 C3628 1.391 . S
C3627 C3626 1.386 . S
C3627 C3631 1.393 . S
C3628 H3617 0.950 . S
C3628 C3626 1.391 . S
C3628 C3629 1.400 . S
C3629 C3623 1.491 . S
C3629 C3628 1.400 . S
C3629 C3630 1.398 . S
C3630 H3618 0.950 . S
C3630 C3629 1.398 . S
C3630 C3631 1.391 . S
C3631 H3619 0.950 . S
C3631 C3627 1.393 . S
C3631 C3630 1.391 . S
H3632 C3640 0.950 . S
H3633 C3645 0.950 . S
H3634 C3642 0.950 . S
H3635 C3644 0.950 . S
H3636 C3646 0.950 . S
H3637 C3648 0.950 1_554 S
H3638 C3650 0.950 . S
H3639 C3651 0.950 . S
C3640 H3632 0.950 . S
C3640 C3641 1.386 . S
C3640 C3642 1.391 . S
C3641 C3640 1.386 . S
C3641 C3645 1.393 . S
C3642 H3634 0.950 . S
C3642 C3640 1.391 . S
C3642 C3643 1.400 . S
C3643 C3642 1.400 . S
C3643 C3644 1.398 . S
C3643 C3649 1.491 . S
C3644 H3635 0.950 . S
C3644 C3643 1.398 . S
C3644 C3645 1.391 . S
C3645 H3633 0.950 . S
C3645 C3641 1.393 . S
C3645 C3644 1.391 . S
C3646 H3636 0.950 . S
C3646 C3647 1.386 1_554 S
C3646 C3648 1.391 1_554 S
C3647 C3646 1.386 1_556 S
C3647 C3651 1.393 . S
C3648 H3637 0.950 1_556 S
C3648 C3646 1.391 1_556 S
C3648 C3649 1.400 . S
C3649 C3643 1.491 . S
C3649 C3648 1.400 . S
C3649 C3650 1.398 . S
C3650 H3638 0.950 . S
C3650 C3649 1.398 . S
C3650 C3651 1.391 . S
C3651 H3639 0.950 . S
C3651 C3647 1.393 . S
C3651 C3650 1.391 . S
H3652 C3660 0.950 . S
H3653 C3665 0.950 . S
H3654 C3662 0.950 . S
H3655 C3664 0.950 . S
H3656 C3666 0.950 . S
H3657 C3668 0.950 . S
H3658 C3670 0.950 . S
H3659 C3671 0.950 . S
C3660 H3652 0.950 . S
C3660 C3661 1.386 . S
C3660 C3662 1.391 . S
C3661 C3660 1.386 . S
C3661 C3665 1.393 . S
C3662 H3654 0.950 . S
C3662 C3660 1.391 . S
C3662 C3663 1.400 . S
C3663 C3662 1.400 . S
C3663 C3664 1.398 . S
C3663 C3669 1.491 . S
C3664 H3655 0.950 . S
C3664 C3663 1.398 . S
C3664 C3665 1.391 . S
C3665 H3653 0.950 . S
C3665 C3661 1.393 . S
C3665 C3664 1.391 . S
C3666 H3656 0.950 . S
C3666 C3667 1.386 . S
C3666 C3668 1.391 . S
C3667 C3666 1.386 . S
C3667 C3671 1.393 . S
C3668 H3657 0.950 . S
C3668 C3666 1.391 . S
C3668 C3669 1.400 . S
C3669 C3663 1.491 . S
C3669 C3668 1.400 . S
C3669 C3670 1.398 . S
C3670 H3658 0.950 . S
C3670 C3669 1.398 . S
C3670 C3671 1.391 . S
C3671 H3659 0.950 . S
C3671 C3667 1.393 . S
C3671 C3670 1.391 . S
H3672 C3680 0.950 . S
H3673 C3685 0.950 . S
H3674 C3682 0.950 . S
H3675 C3684 0.950 . S
H3676 C3686 0.950 . S
H3677 C3688 0.950 . S
H3678 C3690 0.950 . S
H3679 C3691 0.950 . S
C3680 H3672 0.950 . S
C3680 C3681 1.386 . S
C3680 C3682 1.391 . S
C3681 C3680 1.386 . S
C3681 C3685 1.393 . S
C3682 H3674 0.950 . S
C3682 C3680 1.391 . S
C3682 C3683 1.400 . S
C3683 C3682 1.400 . S
C3683 C3684 1.398 . S
C3683 C3689 1.491 . S
C3684 H3675 0.950 . S
C3684 C3683 1.398 . S
C3684 C3685 1.391 . S
C3685 H3673 0.950 . S
C3685 C3681 1.393 . S
C3685 C3684 1.391 . S
C3686 H3676 0.950 . S
C3686 C3687 1.386 . S
C3686 C3688 1.391 . S
C3687 C3686 1.386 . S
C3687 C3691 1.393 . S
C3688 H3677 0.950 . S
C3688 C3686 1.391 . S
C3688 C3689 1.400 . S
C3689 C3683 1.491 . S
C3689 C3688 1.400 . S
C3689 C3690 1.398 . S
C3690 H3678 0.950 . S
C3690 C3689 1.398 . S
C3690 C3691 1.391 . S
C3691 H3679 0.950 . S
C3691 C3687 1.393 . S
C3691 C3690 1.391 . S
H3692 C3700 0.950 . S
H3693 C3705 0.950 . S
H3694 C3702 0.950 . S
H3695 C3704 0.950 . S
H3696 C3706 0.950 . S
H3697 C3708 0.950 . S
H3698 C3710 0.950 . S
H3699 C3711 0.950 . S
C3700 H3692 0.950 . S
C3700 C3701 1.386 . S
C3700 C3702 1.391 . S
C3701 C3700 1.386 . S
C3701 C3705 1.393 . S
C3702 H3694 0.950 . S
C3702 C3700 1.391 . S
C3702 C3703 1.400 . S
C3703 C3702 1.400 . S
C3703 C3704 1.398 . S
C3703 C3709 1.491 . S
C3704 H3695 0.950 . S
C3704 C3703 1.398 . S
C3704 C3705 1.391 . S
C3705 H3693 0.950 . S
C3705 C3701 1.393 . S
C3705 C3704 1.391 . S
C3706 H3696 0.950 . S
C3706 C3707 1.386 . S
C3706 C3708 1.391 . S
C3707 C3706 1.386 . S
C3707 C3711 1.393 . S
C3708 H3697 0.950 . S
C3708 C3706 1.391 . S
C3708 C3709 1.400 . S
C3709 C3703 1.491 . S
C3709 C3708 1.400 . S
C3709 C3710 1.398 . S
C3710 H3698 0.950 . S
C3710 C3709 1.398 . S
C3710 C3711 1.391 . S
C3711 H3699 0.950 . S
C3711 C3707 1.393 . S
C3711 C3710 1.391 . S
H3712 C3720 0.950 . S
H3713 C3725 0.950 . S
H3714 C3722 0.950 . S
H3715 C3724 0.950 . S
H3716 C3726 0.950 . S
H3717 C3728 0.950 . S
H3718 C3730 0.950 . S
H3719 C3731 0.950 . S
C3720 H3712 0.950 . S
C3720 C3721 1.386 . S
C3720 C3722 1.391 . S
C3721 C3720 1.386 . S
C3721 C3725 1.393 . S
C3722 H3714 0.950 . S
C3722 C3720 1.391 . S
C3722 C3723 1.400 . S
C3723 C3722 1.400 . S
C3723 C3724 1.398 . S
C3723 C3729 1.491 . S
C3724 H3715 0.950 . S
C3724 C3723 1.398 . S
C3724 C3725 1.391 . S
C3725 H3713 0.950 . S
C3725 C3721 1.393 . S
C3725 C3724 1.391 . S
C3726 H3716 0.950 . S
C3726 C3727 1.386 . S
C3726 C3728 1.391 . S
C3727 C3726 1.386 . S
C3727 C3731 1.393 . S
C3728 H3717 0.950 . S
C3728 C3726 1.391 . S
C3728 C3729 1.400 . S
C3729 C3723 1.491 . S
C3729 C3728 1.400 . S
C3729 C3730 1.398 . S
C3730 H3718 0.950 . S
C3730 C3729 1.398 . S
C3730 C3731 1.391 . S
C3731 H3719 0.950 . S
C3731 C3727 1.393 . S
C3731 C3730 1.391 . S
H3732 C3740 0.950 . S
H3733 C3745 0.950 . S
H3734 C3742 0.950 . S
H3735 C3744 0.950 . S
H3736 C3746 0.950 . S
H3737 C3748 0.950 . S
H3738 C3750 0.950 . S
H3739 C3751 0.950 . S
C3740 H3732 0.950 . S
C3740 C3741 1.386 . S
C3740 C3742 1.391 . S
C3741 C3740 1.386 . S
C3741 C3745 1.393 . S
C3742 H3734 0.950 . S
C3742 C3740 1.391 . S
C3742 C3743 1.400 . S
C3743 C3742 1.400 . S
C3743 C3744 1.398 . S
C3743 C3749 1.491 . S
C3744 H3735 0.950 . S
C3744 C3743 1.398 . S
C3744 C3745 1.391 . S
C3745 H3733 0.950 . S
C3745 C3741 1.393 . S
C3745 C3744 1.391 . S
C3746 H3736 0.950 . S
C3746 C3747 1.386 . S
C3746 C3748 1.391 . S
C3747 C3746 1.386 . S
C3747 C3751 1.393 . S
C3748 H3737 0.950 . S
C3748 C3746 1.391 . S
C3748 C3749 1.400 . S
C3749 C3743 1.491 . S
C3749 C3748 1.400 . S
C3749 C3750 1.398 . S
C3750 H3738 0.950 . S
C3750 C3749 1.398 . S
C3750 C3751 1.391 . S
C3751 H3739 0.950 . S
C3751 C3747 1.393 . S
C3751 C3750 1.391 . S
H3752 C3760 0.950 . S
H3753 C3765 0.950 . S
H3754 C3762 0.950 . S
H3755 C3764 0.950 . S
H3756 C3766 0.950 . S
H3757 C3768 0.950 . S
H3758 C3770 0.950 . S
H3759 C3771 0.950 . S
C3760 H3752 0.950 . S
C3760 C3761 1.386 . S
C3760 C3762 1.391 . S
C3761 C3760 1.386 . S
C3761 C3765 1.393 . S
C3762 H3754 0.950 . S
C3762 C3760 1.391 . S
C3762 C3763 1.400 . S
C3763 C3762 1.400 . S
C3763 C3764 1.398 . S
C3763 C3769 1.491 . S
C3764 H3755 0.950 . S
C3764 C3763 1.398 . S
C3764 C3765 1.391 . S
C3765 H3753 0.950 . S
C3765 C3761 1.393 . S
C3765 C3764 1.391 . S
C3766 H3756 0.950 . S
C3766 C3767 1.389 . S
C3766 C3768 1.391 . S
C3767 C3766 1.389 . S
C3767 C3771 1.391 1_655 S
C3768 H3757 0.950 . S
C3768 C3766 1.391 . S
C3768 C3769 1.400 . S
C3769 C3763 1.491 . S
C3769 C3768 1.400 . S
C3769 C3770 1.398 1_655 S
C3770 H3758 0.950 . S
C3770 C3769 1.398 1_455 S
C3770 C3771 1.391 . S
C3771 H3759 0.950 . S
C3771 C3767 1.391 1_455 S
C3771 C3770 1.391 . S
H3772 C3780 0.950 . S
H3773 C3785 0.950 . S
H3774 C3782 0.950 . S
H3775 C3784 0.950 . S
H3776 C3786 0.950 . S
H3777 C3788 0.950 . S
H3778 C3790 0.950 . S
H3779 C3791 0.950 . S
C3780 H3772 0.950 . S
C3780 C3781 1.386 . S
C3780 C3782 1.391 . S
C3781 C3780 1.386 . S
C3781 C3785 1.393 . S
C3782 H3774 0.950 . S
C3782 C3780 1.391 . S
C3782 C3783 1.400 . S
C3783 C3782 1.400 . S
C3783 C3784 1.398 . S
C3783 C3789 1.491 . S
C3784 H3775 0.950 . S
C3784 C3783 1.398 . S
C3784 C3785 1.391 . S
C3785 H3773 0.950 . S
C3785 C3781 1.393 . S
C3785 C3784 1.391 . S
C3786 H3776 0.950 . S
C3786 C3787 1.386 . S
C3786 C3788 1.391 . S
C3787 C3786 1.386 . S
C3787 C3791 1.393 . S
C3788 H3777 0.950 . S
C3788 C3786 1.391 . S
C3788 C3789 1.400 . S
C3789 C3783 1.491 . S
C3789 C3788 1.400 . S
C3789 C3790 1.398 . S
C3790 H3778 0.950 . S
C3790 C3789 1.398 . S
C3790 C3791 1.391 . S
C3791 H3779 0.950 . S
C3791 C3787 1.393 . S
C3791 C3790 1.391 . S
H3792 C3800 0.950 . S
H3793 C3805 0.950 . S
H3794 C3802 0.950 . S
H3795 C3804 0.950 . S
H3796 C3806 0.950 . S
H3797 C3808 0.950 . S
H3798 C3810 0.950 . S
H3799 C3811 0.950 . S
C3800 H3792 0.950 . S
C3800 C3801 1.386 . S
C3800 C3802 1.391 . S
C3801 C3800 1.386 . S
C3801 C3805 1.393 . S
C3802 H3794 0.950 . S
C3802 C3800 1.391 . S
C3802 C3803 1.400 . S
C3803 C3802 1.400 . S
C3803 C3804 1.398 . S
C3803 C3809 1.491 . S
C3804 H3795 0.950 . S
C3804 C3803 1.398 . S
C3804 C3805 1.391 . S
C3805 H3793 0.950 . S
C3805 C3801 1.393 . S
C3805 C3804 1.391 . S
C3806 H3796 0.950 . S
C3806 C3807 1.386 . S
C3806 C3808 1.391 . S
C3807 C3806 1.386 . S
C3807 C3811 1.393 . S
C3808 H3797 0.950 . S
C3808 C3806 1.391 . S
C3808 C3809 1.400 . S
C3809 C3803 1.491 . S
C3809 C3808 1.400 . S
C3809 C3810 1.398 . S
C3810 H3798 0.950 . S
C3810 C3809 1.398 . S
C3810 C3811 1.391 . S
C3811 H3799 0.950 . S
C3811 C3807 1.393 . S
C3811 C3810 1.391 . S
H3812 C3820 0.950 . S
H3813 C3825 0.950 . S
H3814 C3822 0.950 . S
H3815 C3824 0.950 . S
H3816 C3826 0.950 . S
H3817 C3828 0.950 . S
H3818 C3830 0.950 . S
H3819 C3831 0.950 . S
C3820 H3812 0.950 . S
C3820 C3821 1.386 . S
C3820 C3822 1.391 . S
C3821 C3820 1.386 . S
C3821 C3825 1.393 . S
C3822 H3814 0.950 . S
C3822 C3820 1.391 . S
C3822 C3823 1.400 . S
C3823 C3822 1.400 . S
C3823 C3824 1.398 . S
C3823 C3829 1.491 . S
C3824 H3815 0.950 . S
C3824 C3823 1.398 . S
C3824 C3825 1.391 . S
C3825 H3813 0.950 . S
C3825 C3821 1.393 . S
C3825 C3824 1.391 . S
C3826 H3816 0.950 . S
C3826 C3827 1.386 . S
C3826 C3828 1.391 . S
C3827 C3826 1.386 . S
C3827 C3831 1.393 . S
C3828 H3817 0.950 . S
C3828 C3826 1.391 . S
C3828 C3829 1.400 . S
C3829 C3823 1.491 . S
C3829 C3828 1.400 . S
C3829 C3830 1.398 . S
C3830 H3818 0.950 . S
C3830 C3829 1.398 . S
C3830 C3831 1.391 . S
C3831 H3819 0.950 . S
C3831 C3827 1.393 . S
C3831 C3830 1.391 . S
H3832 C3840 0.950 . S
H3833 C3845 0.950 . S
H3834 C3842 0.950 . S
H3835 C3844 0.950 . S
H3836 C3846 0.950 . S
H3837 C3848 0.950 . S
H3838 C3850 0.950 . S
H3839 C3851 0.950 . S
C3840 H3832 0.950 . S
C3840 C3841 1.386 . S
C3840 C3842 1.391 . S
C3841 C3840 1.386 . S
C3841 C3845 1.393 . S
C3842 H3834 0.950 . S
C3842 C3840 1.391 . S
C3842 C3843 1.400 . S
C3843 C3842 1.400 . S
C3843 C3844 1.398 . S
C3843 C3849 1.491 . S
C3844 H3835 0.950 . S
C3844 C3843 1.398 . S
C3844 C3845 1.391 . S
C3845 H3833 0.950 . S
C3845 C3841 1.393 . S
C3845 C3844 1.391 . S
C3846 H3836 0.950 . S
C3846 C3847 1.386 . S
C3846 C3848 1.391 . S
C3847 C3846 1.386 . S
C3847 C3851 1.393 . S
C3848 H3837 0.950 . S
C3848 C3846 1.391 . S
C3848 C3849 1.400 . S
C3849 C3843 1.491 . S
C3849 C3848 1.400 . S
C3849 C3850 1.398 . S
C3850 H3838 0.950 . S
C3850 C3849 1.398 . S
C3850 C3851 1.391 . S
C3851 H3839 0.950 . S
C3851 C3847 1.393 . S
C3851 C3850 1.391 . S
H3852 C3860 0.950 . S
H3853 C3865 0.950 . S
H3854 C3862 0.950 . S
H3855 C3864 0.950 . S
H3856 C3866 0.950 . S
H3857 C3868 0.950 . S
H3858 C3870 0.950 . S
H3859 C3871 0.950 . S
C3860 H3852 0.950 . S
C3860 C3861 1.386 . S
C3860 C3862 1.391 . S
C3861 C3860 1.386 . S
C3861 C3865 1.393 . S
C3862 H3854 0.950 . S
C3862 C3860 1.391 . S
C3862 C3863 1.400 . S
C3863 C3862 1.400 . S
C3863 C3864 1.398 . S
C3863 C3869 1.491 . S
C3864 H3855 0.950 . S
C3864 C3863 1.398 . S
C3864 C3865 1.391 . S
C3865 H3853 0.950 . S
C3865 C3861 1.393 . S
C3865 C3864 1.391 . S
C3866 H3856 0.950 . S
C3866 C3867 1.386 . S
C3866 C3868 1.391 . S
C3867 C3866 1.386 . S
C3867 C3871 1.393 . S
C3868 H3857 0.950 . S
C3868 C3866 1.391 . S
C3868 C3869 1.400 . S
C3869 C3863 1.491 . S
C3869 C3868 1.400 . S
C3869 C3870 1.398 . S
C3870 H3858 0.950 . S
C3870 C3869 1.398 . S
C3870 C3871 1.391 . S
C3871 H3859 0.950 . S
C3871 C3867 1.393 . S
C3871 C3870 1.391 . S
H3872 C3880 0.950 . S
H3873 C3885 0.950 . S
H3874 C3882 0.950 . S
H3875 C3884 0.950 . S
H3876 C3886 0.950 . S
H3877 C3888 0.950 . S
H3878 C3890 0.950 . S
H3879 C3891 0.950 . S
C3880 H3872 0.950 . S
C3880 C3881 1.386 . S
C3880 C3882 1.391 . S
C3881 C3880 1.386 . S
C3881 C3885 1.393 . S
C3882 H3874 0.950 . S
C3882 C3880 1.391 . S
C3882 C3883 1.400 . S
C3883 C3882 1.400 . S
C3883 C3884 1.398 . S
C3883 C3889 1.491 . S
C3884 H3875 0.950 . S
C3884 C3883 1.398 . S
C3884 C3885 1.391 . S
C3885 H3873 0.950 . S
C3885 C3881 1.393 . S
C3885 C3884 1.391 . S
C3886 H3876 0.950 . S
C3886 C3887 1.386 . S
C3886 C3888 1.391 . S
C3887 C3886 1.386 . S
C3887 C3891 1.393 . S
C3888 H3877 0.950 . S
C3888 C3886 1.391 . S
C3888 C3889 1.400 . S
C3889 C3883 1.491 . S
C3889 C3888 1.400 . S
C3889 C3890 1.398 . S
C3890 H3878 0.950 . S
C3890 C3889 1.398 . S
C3890 C3891 1.391 . S
C3891 H3879 0.950 . S
C3891 C3887 1.393 . S
C3891 C3890 1.391 . S
H3892 C3900 0.950 . S
H3893 C3905 0.950 . S
H3894 C3902 0.950 1_545 S
H3895 C3904 0.950 . S
H3896 C3906 0.950 . S
H3897 C3908 0.950 . S
H3898 C3910 0.950 . S
H3899 C3911 0.950 . S
C3900 H3892 0.950 . S
C3900 C3901 1.386 . S
C3900 C3902 1.391 . S
C3901 C3900 1.386 . S
C3901 C3905 1.393 . S
C3902 H3894 0.950 1_565 S
C3902 C3900 1.391 . S
C3902 C3903 1.400 . S
C3903 C3902 1.400 . S
C3903 C3904 1.398 . S
C3903 C3909 1.491 . S
C3904 H3895 0.950 . S
C3904 C3903 1.398 . S
C3904 C3905 1.391 . S
C3905 H3893 0.950 . S
C3905 C3901 1.393 . S
C3905 C3904 1.391 . S
C3906 H3896 0.950 . S
C3906 C3907 1.386 1_565 S
C3906 C3908 1.391 . S
C3907 C3906 1.386 1_545 S
C3907 C3911 1.393 . S
C3908 H3897 0.950 . S
C3908 C3906 1.391 . S
C3908 C3909 1.400 . S
C3909 C3903 1.491 . S
C3909 C3908 1.400 . S
C3909 C3910 1.398 1_565 S
C3910 H3898 0.950 . S
C3910 C3909 1.398 1_545 S
C3910 C3911 1.391 . S
C3911 H3899 0.950 . S
C3911 C3907 1.393 . S
C3911 C3910 1.391 . S
H3912 C3920 0.950 . S
H3913 C3925 0.950 . S
H3914 C3922 0.950 . S
H3915 C3924 0.950 . S
H3916 C3926 0.950 . S
H3917 C3928 0.950 . S
H3918 C3930 0.950 . S
H3919 C3931 0.950 . S
C3920 H3912 0.950 . S
C3920 C3921 1.386 . S
C3920 C3922 1.391 . S
C3921 C3920 1.386 . S
C3921 C3925 1.393 . S
C3922 H3914 0.950 . S
C3922 C3920 1.391 . S
C3922 C3923 1.400 . S
C3923 C3922 1.400 . S
C3923 C3924 1.398 . S
C3923 C3929 1.491 . S
C3924 H3915 0.950 . S
C3924 C3923 1.398 . S
C3924 C3925 1.391 . S
C3925 H3913 0.950 . S
C3925 C3921 1.393 . S
C3925 C3924 1.391 . S
C3926 H3916 0.950 . S
C3926 C3927 1.386 . S
C3926 C3928 1.391 . S
C3927 C3926 1.386 . S
C3927 C3931 1.393 . S
C3928 H3917 0.950 . S
C3928 C3926 1.391 . S
C3928 C3929 1.400 . S
C3929 C3923 1.491 . S
C3929 C3928 1.400 . S
C3929 C3930 1.398 . S
C3930 H3918 0.950 . S
C3930 C3929 1.398 . S
C3930 C3931 1.391 . S
C3931 H3919 0.950 . S
C3931 C3927 1.393 . S
C3931 C3930 1.391 . S
H3932 C3940 0.950 . S
H3933 C3945 0.950 . S
H3934 C3942 0.950 . S
H3935 C3944 0.950 . S
H3936 C3946 0.950 . S
H3937 C3948 0.950 . S
H3938 C3950 0.950 . S
H3939 C3951 0.950 . S
C3940 H3932 0.950 . S
C3940 C3941 1.386 . S
C3940 C3942 1.391 . S
C3941 C3940 1.386 . S
C3941 C3945 1.393 . S
C3942 H3934 0.950 . S
C3942 C3940 1.391 . S
C3942 C3943 1.400 . S
C3943 C3942 1.400 . S
C3943 C3944 1.398 . S
C3943 C3949 1.491 . S
C3944 H3935 0.950 . S
C3944 C3943 1.398 . S
C3944 C3945 1.391 . S
C3945 H3933 0.950 . S
C3945 C3941 1.393 . S
C3945 C3944 1.391 . S
C3946 H3936 0.950 . S
C3946 C3947 1.386 . S
C3946 C3948 1.391 . S
C3947 C3946 1.386 . S
C3947 C3951 1.393 . S
C3948 H3937 0.950 . S
C3948 C3946 1.391 . S
C3948 C3949 1.400 . S
C3949 C3943 1.491 . S
C3949 C3948 1.400 . S
C3949 C3950 1.398 . S
C3950 H3938 0.950 . S
C3950 C3949 1.398 . S
C3950 C3951 1.391 . S
C3951 H3939 0.950 . S
C3951 C3947 1.393 . S
C3951 C3950 1.391 . S
H3952 C3960 0.950 . S
H3953 C3965 0.950 . S
H3954 C3962 0.950 . S
H3955 C3964 0.950 . S
H3956 C3966 0.950 . S
H3957 C3968 0.950 . S
H3958 C3970 0.950 . S
H3959 C3971 0.950 . S
C3960 H3952 0.950 . S
C3960 C3961 1.386 . S
C3960 C3962 1.391 . S
C3961 C3960 1.386 . S
C3961 C3965 1.393 . S
C3962 H3954 0.950 . S
C3962 C3960 1.391 . S
C3962 C3963 1.400 . S
C3963 C3962 1.400 . S
C3963 C3964 1.398 . S
C3963 C3969 1.491 . S
C3964 H3955 0.950 . S
C3964 C3963 1.398 . S
C3964 C3965 1.391 . S
C3965 H3953 0.950 . S
C3965 C3961 1.393 . S
C3965 C3964 1.391 . S
C3966 H3956 0.950 . S
C3966 C3967 1.386 . S
C3966 C3968 1.391 . S
C3967 C3966 1.386 . S
C3967 C3971 1.393 . S
C3968 H3957 0.950 . S
C3968 C3966 1.391 . S
C3968 C3969 1.400 . S
C3969 C3963 1.491 . S
C3969 C3968 1.400 . S
C3969 C3970 1.398 . S
C3970 H3958 0.950 . S
C3970 C3969 1.398 . S
C3970 C3971 1.391 . S
C3971 H3959 0.950 . S
C3971 C3967 1.393 . S
C3971 C3970 1.391 . S
H3972 C3980 0.950 . S
H3973 C3985 0.950 . S
H3974 C3982 0.950 . S
H3975 C3984 0.950 . S
H3976 C3986 0.950 1_556 S
H3977 C3988 0.950 . S
H3978 C3990 0.950 . S
H3979 C3991 0.950 . S
C3980 H3972 0.950 . S
C3980 C3981 1.386 . S
C3980 C3982 1.391 . S
C3981 C3980 1.386 . S
C3981 C3985 1.393 . S
C3982 H3974 0.950 . S
C3982 C3980 1.391 . S
C3982 C3983 1.400 . S
C3983 C3982 1.400 . S
C3983 C3984 1.398 . S
C3983 C3989 1.491 . S
C3984 H3975 0.950 . S
C3984 C3983 1.398 . S
C3984 C3985 1.391 . S
C3985 H3973 0.950 . S
C3985 C3981 1.393 . S
C3985 C3984 1.391 . S
C3986 H3976 0.950 1_554 S
C3986 C3987 1.386 . S
C3986 C3988 1.391 . S
C3987 C3986 1.386 . S
C3987 C3991 1.393 . S
C3988 H3977 0.950 . S
C3988 C3986 1.391 . S
C3988 C3989 1.400 . S
C3989 C3983 1.491 . S
C3989 C3988 1.400 . S
C3989 C3990 1.398 . S
C3990 H3978 0.950 . S
C3990 C3989 1.398 . S
C3990 C3991 1.391 . S
C3991 H3979 0.950 . S
C3991 C3987 1.393 . S
C3991 C3990 1.391 . S
H3992 C4000 0.950 . S
H3993 C4005 0.950 . S
H3994 C4002 0.950 . S
H3995 C4004 0.950 . S
H3996 C4006 0.950 . S
H3997 C4008 0.950 . S
H3998 C4010 0.950 . S
H3999 C4011 0.950 . S
C4000 H3992 0.950 . S
C4000 C4001 1.386 . S
C4000 C4002 1.391 . S
C4001 C4000 1.386 . S
C4001 C4005 1.393 . S
C4002 H3994 0.950 . S
C4002 C4000 1.391 . S
C4002 C4003 1.400 . S
C4003 C4002 1.400 . S
C4003 C4004 1.398 . S
C4003 C4009 1.491 . S
C4004 H3995 0.950 . S
C4004 C4003 1.398 . S
C4004 C4005 1.391 . S
C4005 H3993 0.950 . S
C4005 C4001 1.393 . S
C4005 C4004 1.391 . S
C4006 H3996 0.950 . S
C4006 C4007 1.386 . S
C4006 C4008 1.391 . S
C4007 C4006 1.386 . S
C4007 C4011 1.393 . S
C4008 H3997 0.950 . S
C4008 C4006 1.391 . S
C4008 C4009 1.400 . S
C4009 C4003 1.491 . S
C4009 C4008 1.400 . S
C4009 C4010 1.398 . S
C4010 H3998 0.950 . S
C4010 C4009 1.398 . S
C4010 C4011 1.391 . S
C4011 H3999 0.950 . S
C4011 C4007 1.393 . S
C4011 C4010 1.391 . S
H4012 C4020 0.950 . S
H4013 C4025 0.950 . S
H4014 C4022 0.950 . S
H4015 C4024 0.950 . S
H4016 C4026 0.950 . S
H4017 C4028 0.950 . S
H4018 C4030 0.950 . S
H4019 C4031 0.950 . S
C4020 H4012 0.950 . S
C4020 C4021 1.386 . S
C4020 C4022 1.391 . S
C4021 C4020 1.386 . S
C4021 C4025 1.393 . S
C4022 H4014 0.950 . S
C4022 C4020 1.391 . S
C4022 C4023 1.400 . S
C4023 C4022 1.400 . S
C4023 C4024 1.398 . S
C4023 C4029 1.491 . S
C4024 H4015 0.950 . S
C4024 C4023 1.398 . S
C4024 C4025 1.391 . S
C4025 H4013 0.950 . S
C4025 C4021 1.393 . S
C4025 C4024 1.391 . S
C4026 H4016 0.950 . S
C4026 C4027 1.386 . S
C4026 C4028 1.391 . S
C4027 C4026 1.386 . S
C4027 C4031 1.393 . S
C4028 H4017 0.950 . S
C4028 C4026 1.391 . S
C4028 C4029 1.400 . S
C4029 C4023 1.491 . S
C4029 C4028 1.400 . S
C4029 C4030 1.398 . S
C4030 H4018 0.950 . S
C4030 C4029 1.398 . S
C4030 C4031 1.391 . S
C4031 H4019 0.950 . S
C4031 C4027 1.393 . S
C4031 C4030 1.391 . S
H4032 C4040 0.950 . S
H4033 C4045 0.950 . S
H4034 C4042 0.950 . S
H4035 C4044 0.950 . S
H4036 C4046 0.950 . S
H4037 C4048 0.950 . S
H4038 C4050 0.950 . S
H4039 C4051 0.950 . S
C4040 H4032 0.950 . S
C4040 C4041 1.386 . S
C4040 C4042 1.391 . S
C4041 C4040 1.386 . S
C4041 C4045 1.393 . S
C4042 H4034 0.950 . S
C4042 C4040 1.391 . S
C4042 C4043 1.400 . S
C4043 C4042 1.400 . S
C4043 C4044 1.398 . S
C4043 C4049 1.491 . S
C4044 H4035 0.950 . S
C4044 C4043 1.398 . S
C4044 C4045 1.391 . S
C4045 H4033 0.950 . S
C4045 C4041 1.393 . S
C4045 C4044 1.391 . S
C4046 H4036 0.950 . S
C4046 C4047 1.386 . S
C4046 C4048 1.391 . S
C4047 C4046 1.386 . S
C4047 C4051 1.393 . S
C4048 H4037 0.950 . S
C4048 C4046 1.391 . S
C4048 C4049 1.400 . S
C4049 C4043 1.491 . S
C4049 C4048 1.400 . S
C4049 C4050 1.398 . S
C4050 H4038 0.950 . S
C4050 C4049 1.398 . S
C4050 C4051 1.391 . S
C4051 H4039 0.950 . S
C4051 C4047 1.393 . S
C4051 C4050 1.391 . S
H4052 C4060 0.950 . S
H4053 C4065 0.950 . S
H4054 C4062 0.950 . S
H4055 C4064 0.950 . S
H4056 C4066 0.950 . S
H4057 C4068 0.950 . S
H4058 C4070 0.950 . S
H4059 C4071 0.950 . S
C4060 H4052 0.950 . S
C4060 C4061 1.386 . S
C4060 C4062 1.391 . S
C4061 C4060 1.386 . S
C4061 C4065 1.393 . S
C4062 H4054 0.950 . S
C4062 C4060 1.391 . S
C4062 C4063 1.400 . S
C4063 C4062 1.400 . S
C4063 C4064 1.398 . S
C4063 C4069 1.491 . S
C4064 H4055 0.950 . S
C4064 C4063 1.398 . S
C4064 C4065 1.391 . S
C4065 H4053 0.950 . S
C4065 C4061 1.393 . S
C4065 C4064 1.391 . S
C4066 H4056 0.950 . S
C4066 C4067 1.386 . S
C4066 C4068 1.391 . S
C4067 C4066 1.386 . S
C4067 C4071 1.393 . S
C4068 H4057 0.950 . S
C4068 C4066 1.391 . S
C4068 C4069 1.400 . S
C4069 C4063 1.491 . S
C4069 C4068 1.400 . S
C4069 C4070 1.398 . S
C4070 H4058 0.950 . S
C4070 C4069 1.398 . S
C4070 C4071 1.391 . S
C4071 H4059 0.950 . S
C4071 C4067 1.393 . S
C4071 C4070 1.391 . S
H4072 C4080 0.950 . S
H4073 C4085 0.950 1_655 S
H4074 C4082 0.950 . S
H4075 C4084 0.950 1_655 S
H4076 C4086 0.950 1_655 S
H4077 C4088 0.950 1_655 S
H4078 C4090 0.982 . S
H4079 C4091 0.950 . S
C4080 H4072 0.950 . S
C4080 C4081 1.386 . S
C4080 C4082 1.391 . S
C4081 C4080 1.386 . S
C4081 C4085 1.393 . S
C4082 H4074 0.950 . S
C4082 C4080 1.391 . S
C4082 C4083 1.400 . S
C4083 C4082 1.400 . S
C4083 C4084 1.398 . S
C4083 C4089 1.491 . S
C4084 H4075 0.950 1_455 S
C4084 C4083 1.398 . S
C4084 C4085 1.391 . S
C4085 H4073 0.950 1_455 S
C4085 C4081 1.393 . S
C4085 C4084 1.391 . S
C4086 H4076 0.950 1_455 S
C4086 C4087 1.386 . S
C4086 C4088 1.391 . S
C4087 C4086 1.386 . S
C4087 C4091 1.393 1_556 S
C4088 H4077 0.950 1_455 S
C4088 C4086 1.391 . S
C4088 C4089 1.400 . S
C4089 C4083 1.491 . S
C4089 C4088 1.400 . S
C4089 C4090 1.349 1_556 S
C4090 H4078 0.982 . S
C4090 C4089 1.349 1_554 S
C4090 C4091 1.412 . S
C4091 H4079 0.950 . S
C4091 C4087 1.393 1_554 S
C4091 C4090 1.412 . S
H4092 C4100 0.950 . S
H4093 C4105 0.950 . S
H4094 C4102 0.950 . S
H4095 C4104 0.950 . S
H4096 C4106 0.950 . S
H4097 C4108 0.950 . S
H4098 C4110 0.950 . S
H4099 C4111 0.950 . S
C4100 H4092 0.950 . S
C4100 C4101 1.386 . S
C4100 C4102 1.391 . S
C4101 C4100 1.386 . S
C4101 C4105 1.393 . S
C4102 H4094 0.950 . S
C4102 C4100 1.391 . S
C4102 C4103 1.400 . S
C4103 C4102 1.400 . S
C4103 C4104 1.398 . S
C4103 C4109 1.491 . S
C4104 H4095 0.950 . S
C4104 C4103 1.398 . S
C4104 C4105 1.391 . S
C4105 H4093 0.950 . S
C4105 C4101 1.393 . S
C4105 C4104 1.391 . S
C4106 H4096 0.950 . S
C4106 C4107 1.386 . S
C4106 C4108 1.391 . S
C4107 C4106 1.386 . S
C4107 C4111 1.393 . S
C4108 H4097 0.950 . S
C4108 C4106 1.391 . S
C4108 C4109 1.400 . S
C4109 C4103 1.491 . S
C4109 C4108 1.400 . S
C4109 C4110 1.398 . S
C4110 H4098 0.950 . S
C4110 C4109 1.398 . S
C4110 C4111 1.391 . S
C4111 H4099 0.950 . S
C4111 C4107 1.393 . S
C4111 C4110 1.391 . S
H4112 C4120 0.950 . S
H4113 C4125 0.950 . S
H4114 C4122 0.950 . S
H4115 C4124 0.950 . S
H4116 C4126 0.950 . S
H4117 C4128 0.950 . S
H4118 C4130 0.950 . S
H4119 C4131 0.950 . S
C4120 H4112 0.950 . S
C4120 C4121 1.386 . S
C4120 C4122 1.391 . S
C4121 C4120 1.386 . S
C4121 C4125 1.393 . S
C4122 H4114 0.950 . S
C4122 C4120 1.391 . S
C4122 C4123 1.400 . S
C4123 C4122 1.400 . S
C4123 C4124 1.398 . S
C4123 C4129 1.491 . S
C4124 H4115 0.950 . S
C4124 C4123 1.398 . S
C4124 C4125 1.391 . S
C4125 H4113 0.950 . S
C4125 C4121 1.393 . S
C4125 C4124 1.391 . S
C4126 H4116 0.950 . S
C4126 C4127 1.386 . S
C4126 C4128 1.391 . S
C4127 C4126 1.386 . S
C4127 C4131 1.393 . S
C4128 H4117 0.950 . S
C4128 C4126 1.391 . S
C4128 C4129 1.400 . S
C4129 C4123 1.491 . S
C4129 C4128 1.400 . S
C4129 C4130 1.398 . S
C4130 H4118 0.950 . S
C4130 C4129 1.398 . S
C4130 C4131 1.391 . S
C4131 H4119 0.950 . S
C4131 C4127 1.393 . S
C4131 C4130 1.391 . S
H4132 C4140 0.950 . S
H4133 C4145 0.950 . S
H4134 C4142 0.950 . S
H4135 C4144 0.950 . S
H4136 C4146 0.950 . S
H4137 C4148 0.950 . S
H4138 C4150 0.950 . S
H4139 C4151 0.950 . S
C4140 H4132 0.950 . S
C4140 C4141 1.386 . S
C4140 C4142 1.391 . S
C4141 C4140 1.386 . S
C4141 C4145 1.393 . S
C4142 H4134 0.950 . S
C4142 C4140 1.391 . S
C4142 C4143 1.400 . S
C4143 C4142 1.400 . S
C4143 C4144 1.398 . S
C4143 C4149 1.491 . S
C4144 H4135 0.950 . S
C4144 C4143 1.398 . S
C4144 C4145 1.391 . S
C4145 H4133 0.950 . S
C4145 C4141 1.393 . S
C4145 C4144 1.391 . S
C4146 H4136 0.950 . S
C4146 C4147 1.386 . S
C4146 C4148 1.391 . S
C4147 C4146 1.386 . S
C4147 C4151 1.393 . S
C4148 H4137 0.950 . S
C4148 C4146 1.391 . S
C4148 C4149 1.400 . S
C4149 C4143 1.491 . S
C4149 C4148 1.400 . S
C4149 C4150 1.398 . S
C4150 H4138 0.950 . S
C4150 C4149 1.398 . S
C4150 C4151 1.391 . S
C4151 H4139 0.950 . S
C4151 C4147 1.393 . S
C4151 C4150 1.391 . S
H4152 C4160 0.950 . S
H4153 C4165 0.950 . S
H4154 C4162 0.950 . S
H4155 C4164 0.950 . S
H4156 C4166 0.950 . S
H4157 C4168 0.950 . S
H4158 C4170 0.950 . S
H4159 C4171 0.950 . S
C4160 H4152 0.950 . S
C4160 C4161 1.424 . S
C4160 C4162 1.391 . S
C4161 C4160 1.424 . S
C4161 C4165 1.362 1_455 S
C4162 H4154 0.950 . S
C4162 C4160 1.391 . S
C4162 C4163 1.400 . S
C4163 C4162 1.400 . S
C4163 C4164 1.398 1_455 S
C4163 C4169 1.491 . S
C4164 H4155 0.950 . S
C4164 C4163 1.398 1_655 S
C4164 C4165 1.391 . S
C4165 H4153 0.950 . S
C4165 C4161 1.362 1_655 S
C4165 C4164 1.391 . S
C4166 H4156 0.950 . S
C4166 C4167 1.386 1_655 S
C4166 C4168 1.391 . S
C4167 C4166 1.386 1_455 S
C4167 C4171 1.393 . S
C4168 H4157 0.950 . S
C4168 C4166 1.391 . S
C4168 C4169 1.400 1_655 S
C4169 C4163 1.491 . S
C4169 C4168 1.400 1_455 S
C4169 C4170 1.398 . S
C4170 H4158 0.950 . S
C4170 C4169 1.398 . S
C4170 C4171 1.391 . S
C4171 H4159 0.950 . S
C4171 C4167 1.393 . S
C4171 C4170 1.391 . S
H4172 C4180 0.950 . S
H4173 C4185 0.950 . S
H4174 C4182 0.950 . S
H4175 C4184 0.950 . S
H4176 C4186 0.950 . S
H4177 C4188 0.950 . S
H4178 C4190 0.950 . S
H4179 C4191 0.950 . S
C4180 H4172 0.950 . S
C4180 C4181 1.386 . S
C4180 C4182 1.391 . S
C4181 C4180 1.386 . S
C4181 C4185 1.393 . S
C4182 H4174 0.950 . S
C4182 C4180 1.391 . S
C4182 C4183 1.400 . S
C4183 C4182 1.400 . S
C4183 C4184 1.398 . S
C4183 C4189 1.491 . S
C4184 H4175 0.950 . S
C4184 C4183 1.398 . S
C4184 C4185 1.391 . S
C4185 H4173 0.950 . S
C4185 C4181 1.393 . S
C4185 C4184 1.391 . S
C4186 H4176 0.950 . S
C4186 C4187 1.386 . S
C4186 C4188 1.391 . S
C4187 C4186 1.386 . S
C4187 C4191 1.393 . S
C4188 H4177 0.950 . S
C4188 C4186 1.391 . S
C4188 C4189 1.400 . S
C4189 C4183 1.491 . S
C4189 C4188 1.400 . S
C4189 C4190 1.398 . S
C4190 H4178 0.950 . S
C4190 C4189 1.398 . S
C4190 C4191 1.391 . S
C4191 H4179 0.950 . S
C4191 C4187 1.393 . S
C4191 C4190 1.391 . S
H4192 C4200 0.950 . S
H4193 C4205 0.950 . S
H4194 C4202 0.950 . S
H4195 C4204 0.950 . S
H4196 C4206 0.950 . S
H4197 C4208 0.950 . S
H4198 C4210 0.950 . S
H4199 C4211 0.950 . S
C4200 H4192 0.950 . S
C4200 C4201 1.386 . S
C4200 C4202 1.391 . S
C4201 C4200 1.386 . S
C4201 C4205 1.393 . S
C4202 H4194 0.950 . S
C4202 C4200 1.391 . S
C4202 C4203 1.400 . S
C4203 C4202 1.400 . S
C4203 C4204 1.398 . S
C4203 C4209 1.491 . S
C4204 H4195 0.950 . S
C4204 C4203 1.398 . S
C4204 C4205 1.391 . S
C4205 H4193 0.950 . S
C4205 C4201 1.393 . S
C4205 C4204 1.391 . S
C4206 H4196 0.950 . S
C4206 C4207 1.386 . S
C4206 C4208 1.391 . S
C4207 C4206 1.386 . S
C4207 C4211 1.393 . S
C4208 H4197 0.950 . S
C4208 C4206 1.391 . S
C4208 C4209 1.400 . S
C4209 C4203 1.491 . S
C4209 C4208 1.400 . S
C4209 C4210 1.398 . S
C4210 H4198 0.950 . S
C4210 C4209 1.398 . S
C4210 C4211 1.391 . S
C4211 H4199 0.950 . S
C4211 C4207 1.393 . S
C4211 C4210 1.391 . S
H4212 C4220 0.950 . S
H4213 C4225 0.950 . S
H4214 C4222 0.950 . S
H4215 C4224 0.950 . S
H4216 C4226 0.950 . S
H4217 C4228 0.950 . S
H4218 C4230 0.950 . S
H4219 C4231 0.950 . S
C4220 H4212 0.950 . S
C4220 C4221 1.386 . S
C4220 C4222 1.391 . S
C4221 C4220 1.386 . S
C4221 C4225 1.393 . S
C4222 H4214 0.950 . S
C4222 C4220 1.391 . S
C4222 C4223 1.400 . S
C4223 C4222 1.400 . S
C4223 C4224 1.398 . S
C4223 C4229 1.491 . S
C4224 H4215 0.950 . S
C4224 C4223 1.398 . S
C4224 C4225 1.391 . S
C4225 H4213 0.950 . S
C4225 C4221 1.393 . S
C4225 C4224 1.391 . S
C4226 H4216 0.950 . S
C4226 C4227 1.386 . S
C4226 C4228 1.391 . S
C4227 C4226 1.386 . S
C4227 C4231 1.393 . S
C4228 H4217 0.950 . S
C4228 C4226 1.391 . S
C4228 C4229 1.400 . S
C4229 C4223 1.491 . S
C4229 C4228 1.400 . S
C4229 C4230 1.398 . S
C4230 H4218 0.950 . S
C4230 C4229 1.398 . S
C4230 C4231 1.391 . S
C4231 H4219 0.950 . S
C4231 C4227 1.393 . S
C4231 C4230 1.391 . S
H4232 C4240 0.950 . S
H4233 C4245 0.950 . S
H4234 C4242 0.950 . S
H4235 C4244 0.950 . S
H4236 C4246 0.950 . S
H4237 C4248 0.950 . S
H4238 C4250 0.950 . S
H4239 C4251 0.950 . S
C4240 H4232 0.950 . S
C4240 C4241 1.386 . S
C4240 C4242 1.391 . S
C4241 C4240 1.386 . S
C4241 C4245 1.393 . S
C4242 H4234 0.950 . S
C4242 C4240 1.391 . S
C4242 C4243 1.400 . S
C4243 C4242 1.400 . S
C4243 C4244 1.398 . S
C4243 C4249 1.491 . S
C4244 H4235 0.950 . S
C4244 C4243 1.398 . S
C4244 C4245 1.391 . S
C4245 H4233 0.950 . S
C4245 C4241 1.393 . S
C4245 C4244 1.391 . S
C4246 H4236 0.950 . S
C4246 C4247 1.386 . S
C4246 C4248 1.391 . S
C4247 C4246 1.386 . S
C4247 C4251 1.393 . S
C4248 H4237 0.950 . S
C4248 C4246 1.391 . S
C4248 C4249 1.400 . S
C4249 C4243 1.491 . S
C4249 C4248 1.400 . S
C4249 C4250 1.398 . S
C4250 H4238 0.950 . S
C4250 C4249 1.398 . S
C4250 C4251 1.391 . S
C4251 H4239 0.950 . S
C4251 C4247 1.393 . S
C4251 C4250 1.391 . S
H4252 C4260 0.950 . S
H4253 C4265 0.950 . S
H4254 C4262 0.950 . S
H4255 C4264 0.950 . S
H4256 C4266 0.950 . S
H4257 C4268 0.950 . S
H4258 C4270 0.950 . S
H4259 C4271 0.950 . S
C4260 H4252 0.950 . S
C4260 C4261 1.386 . S
C4260 C4262 1.391 . S
C4261 C4260 1.386 . S
C4261 C4265 1.393 . S
C4262 H4254 0.950 . S
C4262 C4260 1.391 . S
C4262 C4263 1.400 . S
C4263 C4262 1.400 . S
C4263 C4264 1.398 . S
C4263 C4269 1.491 . S
C4264 H4255 0.950 . S
C4264 C4263 1.398 . S
C4264 C4265 1.391 . S
C4265 H4253 0.950 . S
C4265 C4261 1.393 . S
C4265 C4264 1.391 . S
C4266 H4256 0.950 . S
C4266 C4267 1.386 . S
C4266 C4268 1.391 . S
C4267 C4266 1.386 . S
C4267 C4271 1.393 . S
C4268 H4257 0.950 . S
C4268 C4266 1.391 . S
C4268 C4269 1.400 . S
C4269 C4263 1.491 . S
C4269 C4268 1.400 . S
C4269 C4270 1.398 . S
C4270 H4258 0.950 . S
C4270 C4269 1.398 . S
C4270 C4271 1.391 . S
C4271 H4259 0.950 . S
C4271 C4267 1.393 . S
C4271 C4270 1.391 . S
H4272 C4280 0.950 . S
H4273 C4285 0.950 . S
H4274 C4282 0.950 . S
H4275 C4284 0.950 . S
H4276 C4286 0.950 . S
H4277 C4288 0.950 . S
H4278 C4290 0.950 . S
H4279 C4291 0.950 . S
C4280 H4272 0.950 . S
C4280 C4281 1.386 . S
C4280 C4282 1.391 . S
C4281 C4280 1.386 . S
C4281 C4285 1.393 . S
C4282 H4274 0.950 . S
C4282 C4280 1.391 . S
C4282 C4283 1.400 . S
C4283 C4282 1.400 . S
C4283 C4284 1.398 . S
C4283 C4289 1.491 . S
C4284 H4275 0.950 . S
C4284 C4283 1.398 . S
C4284 C4285 1.391 . S
C4285 H4273 0.950 . S
C4285 C4281 1.393 . S
C4285 C4284 1.391 . S
C4286 H4276 0.950 . S
C4286 C4287 1.386 . S
C4286 C4288 1.391 . S
C4287 C4286 1.386 . S
C4287 C4291 1.393 . S
C4288 H4277 0.950 . S
C4288 C4286 1.391 . S
C4288 C4289 1.400 . S
C4289 C4283 1.491 . S
C4289 C4288 1.400 . S
C4289 C4290 1.398 . S
C4290 H4278 0.950 . S
C4290 C4289 1.398 . S
C4290 C4291 1.391 . S
C4291 H4279 0.950 . S
C4291 C4287 1.393 . S
C4291 C4290 1.391 . S
H4292 C4300 0.950 . S
H4293 C4305 0.950 . S
H4294 C4302 0.950 . S
H4295 C4304 0.950 . S
H4296 C4306 0.950 . S
H4297 C4308 0.950 . S
H4298 C4310 0.950 . S
H4299 C4311 0.950 . S
C4300 H4292 0.950 . S
C4300 C4301 1.386 . S
C4300 C4302 1.391 . S
C4301 C4300 1.386 . S
C4301 C4305 1.393 . S
C4302 H4294 0.950 . S
C4302 C4300 1.391 . S
C4302 C4303 1.400 . S
C4303 C4302 1.400 . S
C4303 C4304 1.398 . S
C4303 C4309 1.491 . S
C4304 H4295 0.950 . S
C4304 C4303 1.398 . S
C4304 C4305 1.391 . S
C4305 H4293 0.950 . S
C4305 C4301 1.393 . S
C4305 C4304 1.391 . S
C4306 H4296 0.950 . S
C4306 C4307 1.386 . S
C4306 C4308 1.391 . S
C4307 C4306 1.386 . S
C4307 C4311 1.393 . S
C4308 H4297 0.950 . S
C4308 C4306 1.391 . S
C4308 C4309 1.400 . S
C4309 C4303 1.491 . S
C4309 C4308 1.400 . S
C4309 C4310 1.398 . S
C4310 H4298 0.950 . S
C4310 C4309 1.398 . S
C4310 C4311 1.391 . S
C4311 H4299 0.950 . S
C4311 C4307 1.393 . S
C4311 C4310 1.391 . S
H4312 C4320 0.950 . S
H4313 C4325 0.950 . S
H4314 C4322 0.950 . S
H4315 C4324 0.950 . S
H4316 C4326 0.950 . S
H4317 C4328 0.950 . S
H4318 C4330 0.950 . S
H4319 C4331 0.950 . S
C4320 H4312 0.950 . S
C4320 C4321 1.386 . S
C4320 C4322 1.391 . S
C4321 C4320 1.386 . S
C4321 C4325 1.393 . S
C4322 H4314 0.950 . S
C4322 C4320 1.391 . S
C4322 C4323 1.400 . S
C4323 C4322 1.400 . S
C4323 C4324 1.398 . S
C4323 C4329 1.491 . S
C4324 H4315 0.950 . S
C4324 C4323 1.398 . S
C4324 C4325 1.391 . S
C4325 H4313 0.950 . S
C4325 C4321 1.393 . S
C4325 C4324 1.391 . S
C4326 H4316 0.950 . S
C4326 C4327 1.386 . S
C4326 C4328 1.391 . S
C4327 C4326 1.386 . S
C4327 C4331 1.393 . S
C4328 H4317 0.950 . S
C4328 C4326 1.391 . S
C4328 C4329 1.400 . S
C4329 C4323 1.491 . S
C4329 C4328 1.400 . S
C4329 C4330 1.398 . S
C4330 H4318 0.950 . S
C4330 C4329 1.398 . S
C4330 C4331 1.391 . S
C4331 H4319 0.950 . S
C4331 C4327 1.393 . S
C4331 C4330 1.391 . S
H4332 C4340 0.950 . S
H4333 C4345 0.950 . S
H4334 C4342 0.950 . S
H4335 C4344 0.950 . S
H4336 C4346 0.950 . S
H4337 C4348 0.950 . S
H4338 C4350 0.950 . S
H4339 C4351 0.950 . S
C4340 H4332 0.950 . S
C4340 C4341 1.386 . S
C4340 C4342 1.391 . S
C4341 C4340 1.386 . S
C4341 C4345 1.393 . S
C4342 H4334 0.950 . S
C4342 C4340 1.391 . S
C4342 C4343 1.400 . S
C4343 C4342 1.400 . S
C4343 C4344 1.398 . S
C4343 C4349 1.491 . S
C4344 H4335 0.950 . S
C4344 C4343 1.398 . S
C4344 C4345 1.391 . S
C4345 H4333 0.950 . S
C4345 C4341 1.393 . S
C4345 C4344 1.391 . S
C4346 H4336 0.950 . S
C4346 C4347 1.386 . S
C4346 C4348 1.391 . S
C4347 C4346 1.386 . S
C4347 C4351 1.393 . S
C4348 H4337 0.950 . S
C4348 C4346 1.391 . S
C4348 C4349 1.400 . S
C4349 C4343 1.491 . S
C4349 C4348 1.400 . S
C4349 C4350 1.398 . S
C4350 H4338 0.950 . S
C4350 C4349 1.398 . S
C4350 C4351 1.391 . S
C4351 H4339 0.950 . S
C4351 C4347 1.393 . S
C4351 C4350 1.391 . S
H4352 C4360 0.950 . S
H4353 C4365 0.950 . S
H4354 C4362 0.950 . S
H4355 C4364 0.950 . S
H4356 C4366 0.950 . S
H4357 C4368 0.950 . S
H4358 C4370 0.950 . S
H4359 C4371 0.950 . S
C4360 H4352 0.950 . S
C4360 C4361 1.386 . S
C4360 C4362 1.391 . S
C4361 C4360 1.386 . S
C4361 C4365 1.393 . S
C4362 H4354 0.950 . S
C4362 C4360 1.391 . S
C4362 C4363 1.400 . S
C4363 C4362 1.400 . S
C4363 C4364 1.398 . S
C4363 C4369 1.491 . S
C4364 H4355 0.950 . S
C4364 C4363 1.398 . S
C4364 C4365 1.391 . S
C4365 H4353 0.950 . S
C4365 C4361 1.393 . S
C4365 C4364 1.391 . S
C4366 H4356 0.950 . S
C4366 C4367 1.386 . S
C4366 C4368 1.391 . S
C4367 C4366 1.386 . S
C4367 C4371 1.393 . S
C4368 H4357 0.950 . S
C4368 C4366 1.391 . S
C4368 C4369 1.400 . S
C4369 C4363 1.491 . S
C4369 C4368 1.400 . S
C4369 C4370 1.398 . S
C4370 H4358 0.950 . S
C4370 C4369 1.398 . S
C4370 C4371 1.391 . S
C4371 H4359 0.950 . S
C4371 C4367 1.393 . S
C4371 C4370 1.391 . S
H4372 C4380 0.950 . S
H4373 C4385 0.950 . S
H4374 C4382 0.950 . S
H4375 C4384 0.950 . S
H4376 C4386 0.950 . S
H4377 C4388 0.950 . S
H4378 C4390 0.950 . S
H4379 C4391 0.950 . S
C4380 H4372 0.950 . S
C4380 C4381 1.386 . S
C4380 C4382 1.391 . S
C4381 C4380 1.386 . S
C4381 C4385 1.393 . S
C4382 H4374 0.950 . S
C4382 C4380 1.391 . S
C4382 C4383 1.400 . S
C4383 C4382 1.400 . S
C4383 C4384 1.398 . S
C4383 C4389 1.491 . S
C4384 H4375 0.950 . S
C4384 C4383 1.398 . S
C4384 C4385 1.391 . S
C4385 H4373 0.950 . S
C4385 C4381 1.393 . S
C4385 C4384 1.391 . S
C4386 H4376 0.950 . S
C4386 C4387 1.386 . S
C4386 C4388 1.391 . S
C4387 C4386 1.386 . S
C4387 C4391 1.393 . S
C4388 H4377 0.950 . S
C4388 C4386 1.391 . S
C4388 C4389 1.400 . S
C4389 C4383 1.491 . S
C4389 C4388 1.400 . S
C4389 C4390 1.398 . S
C4390 H4378 0.950 . S
C4390 C4389 1.398 . S
C4390 C4391 1.391 . S
C4391 H4379 0.950 . S
C4391 C4387 1.393 . S
C4391 C4390 1.391 . S
H4392 C4400 0.950 . S
H4393 C4405 0.950 . S
H4394 C4402 0.950 . S
H4395 C4404 0.950 . S
H4396 C4406 0.950 . S
H4397 C4408 0.950 . S
H4398 C4410 0.950 . S
H4399 C4411 0.950 . S
C4400 H4392 0.950 . S
C4400 C4401 1.386 . S
C4400 C4402 1.391 . S
C4401 C4400 1.386 . S
C4401 C4405 1.393 . S
C4402 H4394 0.950 . S
C4402 C4400 1.391 . S
C4402 C4403 1.400 . S
C4403 C4402 1.400 . S
C4403 C4404 1.398 . S
C4403 C4409 1.491 . S
C4404 H4395 0.950 . S
C4404 C4403 1.398 . S
C4404 C4405 1.391 . S
C4405 H4393 0.950 . S
C4405 C4401 1.393 . S
C4405 C4404 1.391 . S
C4406 H4396 0.950 . S
C4406 C4407 1.386 . S
C4406 C4408 1.391 . S
C4407 C4406 1.386 . S
C4407 C4411 1.393 . S
C4408 H4397 0.950 . S
C4408 C4406 1.391 . S
C4408 C4409 1.400 . S
C4409 C4403 1.491 . S
C4409 C4408 1.400 . S
C4409 C4410 1.398 . S
C4410 H4398 0.950 . S
C4410 C4409 1.398 . S
C4410 C4411 1.391 . S
C4411 H4399 0.950 . S
C4411 C4407 1.393 . S
C4411 C4410 1.391 . S
H4412 C4420 0.950 . S
H4413 C4425 0.950 1_556 S
H4414 C4422 0.950 . S
H4415 C4424 0.950 1_546 S
H4416 C4426 0.979 . S
H4417 C4428 0.928 1_556 S
H4418 C4430 0.950 . S
H4419 C4431 0.950 . S
C4420 H4412 0.950 . S
C4420 C4421 1.386 . S
C4420 C4422 1.391 . S
C4421 C4420 1.386 . S
C4421 C4425 1.393 . S
C4422 H4414 0.950 . S
C4422 C4420 1.391 . S
C4422 C4423 1.400 . S
C4423 C4422 1.400 . S
C4423 C4424 1.398 . S
C4423 C4429 1.491 . S
C4424 H4415 0.950 1_564 S
C4424 C4423 1.398 . S
C4424 C4425 1.391 . S
C4425 H4413 0.950 1_554 S
C4425 C4421 1.393 . S
C4425 C4424 1.391 . S
C4426 H4416 0.979 . S
C4426 C4427 1.362 1_556 S
C4426 C4428 1.386 1_556 S
C4427 C4426 1.362 1_554 S
C4427 C4431 1.393 1_545 S
C4428 H4417 0.928 1_554 S
C4428 C4426 1.386 1_554 S
C4428 C4429 1.426 1_545 S
C4429 C4423 1.491 . S
C4429 C4428 1.426 1_565 S
C4429 C4430 1.398 . S
C4430 H4418 0.950 . S
C4430 C4429 1.398 . S
C4430 C4431 1.391 . S
C4431 H4419 0.950 . S
C4431 C4427 1.393 1_565 S
C4431 C4430 1.391 . S
H4432 C4440 0.950 . S
H4433 C4445 0.950 . S
H4434 C4442 0.950 . S
H4435 C4444 0.950 . S
H4436 C4446 0.950 . S
H4437 C4448 0.950 . S
H4438 C4450 0.950 . S
H4439 C4451 0.950 . S
C4440 H4432 0.950 . S
C4440 C4441 1.386 . S
C4440 C4442 1.391 . S
C4441 C4440 1.386 . S
C4441 C4445 1.393 . S
C4442 H4434 0.950 . S
C4442 C4440 1.391 . S
C4442 C4443 1.400 . S
C4443 C4442 1.400 . S
C4443 C4444 1.398 . S
C4443 C4449 1.491 . S
C4444 H4435 0.950 . S
C4444 C4443 1.398 . S
C4444 C4445 1.391 . S
C4445 H4433 0.950 . S
C4445 C4441 1.393 . S
C4445 C4444 1.391 . S
C4446 H4436 0.950 . S
C4446 C4447 1.386 . S
C4446 C4448 1.391 . S
C4447 C4446 1.386 . S
C4447 C4451 1.393 . S
C4448 H4437 0.950 . S
C4448 C4446 1.391 . S
C4448 C4449 1.400 . S
C4449 C4443 1.491 . S
C4449 C4448 1.400 . S
C4449 C4450 1.398 . S
C4450 H4438 0.950 . S
C4450 C4449 1.398 . S
C4450 C4451 1.391 . S
C4451 H4439 0.950 . S
C4451 C4447 1.393 . S
C4451 C4450 1.391 . S
H4452 C4460 0.950 . S
H4453 C4465 0.950 . S
H4454 C4462 0.950 . S
H4455 C4464 0.950 . S
H4456 C4466 0.950 . S
H4457 C4468 0.950 1_556 S
H4458 C4470 0.950 . S
H4459 C4471 0.950 . S
C4460 H4452 0.950 . S
C4460 C4461 1.386 . S
C4460 C4462 1.391 . S
C4461 C4460 1.386 . S
C4461 C4465 1.393 1_554 S
C4462 H4454 0.950 . S
C4462 C4460 1.391 . S
C4462 C4463 1.400 . S
C4463 C4462 1.400 . S
C4463 C4464 1.398 1_554 S
C4463 C4469 1.491 . S
C4464 H4455 0.950 . S
C4464 C4463 1.398 1_556 S
C4464 C4465 1.391 . S
C4465 H4453 0.950 . S
C4465 C4461 1.393 1_556 S
C4465 C4464 1.391 . S
C4466 H4456 0.950 . S
C4466 C4467 1.386 . S
C4466 C4468 1.391 . S
C4467 C4466 1.386 . S
C4467 C4471 1.393 . S
C4468 H4457 0.950 1_554 S
C4468 C4466 1.391 . S
C4468 C4469 1.400 . S
C4469 C4463 1.491 . S
C4469 C4468 1.400 . S
C4469 C4470 1.398 . S
C4470 H4458 0.950 . S
C4470 C4469 1.398 . S
C4470 C4471 1.391 . S
C4471 H4459 0.950 . S
C4471 C4467 1.393 . S
C4471 C4470 1.391 . S
H4472 C4480 0.950 . S
H4473 C4485 0.950 . S
H4474 C4482 0.950 . S
H4475 C4484 0.950 . S
H4476 C4486 0.950 . S
H4477 C4488 0.950 . S
H4478 C4490 0.950 . S
H4479 C4491 0.950 . S
C4480 H4472 0.950 . S
C4480 C4481 1.386 . S
C4480 C4482 1.391 . S
C4481 C4480 1.386 . S
C4481 C4485 1.393 . S
C4482 H4474 0.950 . S
C4482 C4480 1.391 . S
C4482 C4483 1.400 . S
C4483 C4482 1.400 . S
C4483 C4484 1.398 . S
C4483 C4489 1.491 . S
C4484 H4475 0.950 . S
C4484 C4483 1.398 . S
C4484 C4485 1.391 . S
C4485 H4473 0.950 . S
C4485 C4481 1.393 . S
C4485 C4484 1.391 . S
C4486 H4476 0.950 . S
C4486 C4487 1.386 . S
C4486 C4488 1.391 . S
C4487 C4486 1.386 . S
C4487 C4491 1.393 . S
C4488 H4477 0.950 . S
C4488 C4486 1.391 . S
C4488 C4489 1.400 . S
C4489 C4483 1.491 . S
C4489 C4488 1.400 . S
C4489 C4490 1.398 . S
C4490 H4478 0.950 . S
C4490 C4489 1.398 . S
C4490 C4491 1.391 . S
C4491 H4479 0.950 . S
C4491 C4487 1.393 . S
C4491 C4490 1.391 . S
H4492 C4500 0.950 . S
H4493 C4505 0.950 . S
H4494 C4502 0.950 . S
H4495 C4504 0.950 . S
H4496 C4506 0.950 . S
H4497 C4508 0.950 . S
H4498 C4510 0.950 . S
H4499 C4511 0.950 . S
C4500 H4492 0.950 . S
C4500 C4501 1.386 . S
C4500 C4502 1.391 . S
C4501 C4500 1.386 . S
C4501 C4505 1.393 . S
C4502 H4494 0.950 . S
C4502 C4500 1.391 . S
C4502 C4503 1.400 . S
C4503 C4502 1.400 . S
C4503 C4504 1.398 . S
C4503 C4509 1.491 . S
C4504 H4495 0.950 . S
C4504 C4503 1.398 . S
C4504 C4505 1.391 . S
C4505 H4493 0.950 . S
C4505 C4501 1.393 . S
C4505 C4504 1.391 . S
C4506 H4496 0.950 . S
C4506 C4507 1.386 . S
C4506 C4508 1.391 . S
C4507 C4506 1.386 . S
C4507 C4511 1.393 . S
C4508 H4497 0.950 . S
C4508 C4506 1.391 . S
C4508 C4509 1.400 . S
C4509 C4503 1.491 . S
C4509 C4508 1.400 . S
C4509 C4510 1.398 . S
C4510 H4498 0.950 . S
C4510 C4509 1.398 . S
C4510 C4511 1.391 . S
C4511 H4499 0.950 . S
C4511 C4507 1.393 . S
C4511 C4510 1.391 . S
C2607 C2113 1.647 . S
C2601 C49 1.650 . S
C2621 C137 0.845 . S
C2627 C2158 0.832 . S
C2641 C205 1.560 . S
C2647 C2182 1.531 . S
C2667 N2208 0.901 . S
C2661 C284 0.906 . S
C2681 C117 0.945 . S
C2687 N2238 0.943 . S
C2707 C2272 1.473 . S
C2701 C225 1.489 . S
C2727 C2308 0.986 . S
C2721 C321 0.983 . S
C2741 C29 1.612 . S
C2747 C2332 1.592 . S
C2761 C401 0.826 . S
C2767 N2126 0.830 . S
C2781 C497 0.953 . S
C2787 N2148 0.954 . S
C2807 C2188 0.852 . S
C2801 C585 0.841 . S
C2827 C2212 1.644 . S
C2821 C665 1.672 . S
C2841 C372 1.079 . S
C2847 C2242 1.061 . S
C2867 C2278 0.904 . S
C2861 C469 0.907 . S
C2887 N2298 0.940 . S
C2881 C557 0.932 . S
C2907 C2338 1.559 . S
C2901 C636 1.577 . S
C2927 C2139 1.512 . S
C2921 C673 1.511 . S
C2947 C2368 0.826 . S
C2941 C724 0.824 . S
C2961 C821 0.979 . S
C2967 N2388 0.984 . S
C2987 C2422 1.449 . S
C2981 C909 1.478 . S
C3001 C381 0.813 . S
C3007 N2328 0.816 . S
C3027 N2178 0.935 1_565 S
C3021 C489 0.938 . S
C3041 C849 0.910 . S
C3047 C2458 0.920 . S
C3067 C2482 0.902 . S
C3061 C1017 0.926 . S
C3081 C1085 1.665 . S
C3087 C2122 1.653 1_556 S
C3107 C2499 0.836 . S
C3101 C1201 0.855 . S
C3121 C1289 1.567 . S
C3127 C2173 1.539 . S
C3141 C1349 0.911 . S
C3147 N2456 0.907 . S
C3167 N2246 0.946 . S
C3161 C1193 0.940 . S
C3187 C2383 1.473 . S
C3181 C1281 1.495 . S
C3207 C2319 0.980 . S
C3201 C1340 0.975 . S
C3227 C2503 1.601 . S
C3221 C1076 1.620 . S
C3247 N2118 0.832 . S
C3241 C1428 0.829 . S
C3261 C1516 0.936 . S
C3267 N2486 0.947 . S
C3287 C2199 0.856 . S
C3281 C1604 0.843 . S
C3301 C1701 1.675 . S
C3307 C2443 1.643 . S
C3321 C1457 1.089 . S
C3327 C2233 1.064 1_655 S
C3341 C1545 0.909 . S
C3347 C2409 0.910 . S
C3367 N2306 0.960 . S
C3361 C1633 0.956 . S
C3381 C1729 1.577 . S
C3387 C2529 1.568 . S
C3401 C1721 1.523 . S
C3407 C2128 1.519 . S
C3421 C1789 0.841 . S
C3427 C2379 0.824 . S
C3441 C1868 0.960 . S
C3447 N2276 0.971 . S
C3461 C1956 1.480 . S
C3467 C2413 1.466 . S
C3487 N2516 0.799 . S
C3481 C1437 0.795 . S
C3507 N2186 0.926 . S
C3501 C1553 0.923 . S
C3527 C2229 0.927 . S
C3521 C1897 0.914 . S
C3547 C2143 0.940 . S
C3541 C2081 0.951 . S
C3561 C233 1.661 . S
C3567 C2533 1.647 . S
C3587 C2488 0.841 . S
C3581 C313 0.831 . S
C3607 C2572 1.540 . S
C3601 C20 1.565 . S
C3621 C108 0.909 . S
C3627 N2448 0.909 . S
C3641 C293 0.926 . S
C3647 N2358 0.939 . S
C3667 C2392 1.456 . S
C3661 C57 1.486 . S
C3687 C2428 0.981 . S
C3681 C145 0.970 . S
C3707 C2512 1.598 . S
C3701 C196 1.617 . S
C3727 N2546 0.812 . S
C3721 C1025 0.817 . S
C3741 C761 0.953 . S
C3747 N2478 0.954 . S
C3761 C841 0.839 . S
C3767 C2578 0.850 1_655 S
C3787 C2452 1.640 . S
C3781 C929 1.671 . S
C3807 C2362 1.044 . S
C3801 C997 1.071 . S
C3821 C733 0.907 . S
C3827 C2398 0.903 . S
C3847 N2418 0.941 . S
C3841 C812 0.936 . S
C3861 C900 1.579 . S
C3867 C2518 1.567 . S
C3887 C2559 1.517 . S
C3881 C937 1.516 . S
C3907 C2248 0.837 . S
C3901 C460 0.825 . S
C3927 N2268 0.980 . S
C3921 C548 0.968 . S
C3941 C645 1.481 . S
C3947 C2302 1.464 . S
C3967 N2508 0.811 . S
C3961 C988 0.814 . S
C3981 C753 0.915 . S
C3987 N2568 0.928 . S
C4007 C2218 0.923 . S
C4001 C577 0.912 . S
C4027 C2152 0.923 . S
C4021 C409 0.941 . S
C4041 C1261 1.656 . S
C4047 C2542 1.644 . S
C4067 C2169 0.850 . S
C4061 C1377 0.840 . S
C4087 C2563 1.535 1_556 S
C4081 C1113 1.565 . S
C4101 C1173 0.910 . S
C4107 N2216 0.900 . S
C4121 C1369 0.947 . S
C4127 N2366 0.947 . S
C4141 C1105 1.489 . S
C4147 C2263 1.473 . S
C4161 C1164 0.982 . S
C4167 C2439 0.984 . S
C4181 C1252 1.614 . S
C4187 C2323 1.588 . S
C4207 N2538 0.825 . S
C4201 C2044 0.815 . S
C4221 C1780 0.943 . S
C4227 N2156 0.939 . S
C4247 C2589 0.842 . S
C4241 C1877 0.855 . S
C4261 C1965 1.675 . S
C4267 C2203 1.643 . S
C4281 C2073 1.093 . S
C4287 C2353 1.076 . S
C4307 C2289 0.907 . S
C4301 C1809 0.917 . S
C4321 C1905 0.936 . S
C4327 N2426 0.947 . S
C4347 C2349 1.561 . S
C4341 C1993 1.580 . S
C4367 C2548 1.513 . S
C4361 C1985 1.515 . S
C4387 C2259 0.834 . S
C4381 C1525 0.840 . S
C4401 C1613 0.963 . S
C4407 N2396 0.968 . S
C4427 C2293 1.467 . S
C4421 C1692 1.485 . S
C4447 N2336 0.807 . S
C4441 C2053 0.812 . S
C4461 C1817 0.920 . S
C4467 N2576 0.925 . S
C4487 C2469 0.926 . S
C4481 C1641 0.925 . S
C4507 C2473 0.944 . S
C4501 C1465 0.947 . S
