# Generated by pormake.
# Topology apo, (3,6)-cn, num edge types: 1
# Building blocks:
#     Node 0, Type 0, BuildingBlock: OLANEW_clean_sbu_2, # of connection points: 3
#     Node 1, Type 0, BuildingBlock: OLANEW_clean_sbu_2, # of connection points: 3
#     Node 2, Type 0, BuildingBlock: OLANEW_clean_sbu_2, # of connection points: 3
#     Node 3, Type 0, BuildingBlock: OLANEW_clean_sbu_2, # of connection points: 3
#     Node 4, Type 0, BuildingBlock: OLANEW_clean_sbu_2, # of connection points: 3
#     Node 5, Type 0, BuildingBlock: OLANEW_clean_sbu_2, # of connection points: 3
#     Node 6, Type 0, BuildingBlock: OLANEW_clean_sbu_2, # of connection points: 3
#     Node 7, Type 0, BuildingBlock: OLANEW_clean_sbu_2, # of connection points: 3
#     Node 8, Type 1, BuildingBlock: KUMBUR_clean_sbu_1, # of connection points: 6
#     Node 9, Type 1, BuildingBlock: KUMBUR_clean_sbu_1, # of connection points: 6
#     Node 10, Type 1, BuildingBlock: KUMBUR_clean_sbu_1, # of connection points: 6
#     Node 11, Type 1, BuildingBlock: KUMBUR_clean_sbu_1, # of connection points: 6
#     Edge 12, Type (0, 1), BuildingBlock: AJUNOK_clean_linker_0, # of connection points: 2
#     Edge 13, Type (0, 1), BuildingBlock: AJUNOK_clean_linker_0, # of connection points: 2
#     Edge 14, Type (0, 1), BuildingBlock: AJUNOK_clean_linker_0, # of connection points: 2
#     Edge 15, Type (0, 1), BuildingBlock: AJUNOK_clean_linker_0, # of connection points: 2
#     Edge 16, Type (0, 1), BuildingBlock: AJUNOK_clean_linker_0, # of connection points: 2
#     Edge 17, Type (0, 1), BuildingBlock: AJUNOK_clean_linker_0, # of connection points: 2
#     Edge 18, Type (0, 1), BuildingBlock: AJUNOK_clean_linker_0, # of connection points: 2
#     Edge 19, Type (0, 1), BuildingBlock: AJUNOK_clean_linker_0, # of connection points: 2
#     Edge 20, Type (0, 1), BuildingBlock: AJUNOK_clean_linker_0, # of connection points: 2
#     Edge 21, Type (0, 1), BuildingBlock: AJUNOK_clean_linker_0, # of connection points: 2
#     Edge 22, Type (0, 1), BuildingBlock: AJUNOK_clean_linker_0, # of connection points: 2
#     Edge 23, Type (0, 1), BuildingBlock: AJUNOK_clean_linker_0, # of connection points: 2
#     Edge 24, Type (0, 1), BuildingBlock: AJUNOK_clean_linker_0, # of connection points: 2
#     Edge 25, Type (0, 1), BuildingBlock: AJUNOK_clean_linker_0, # of connection points: 2
#     Edge 26, Type (0, 1), BuildingBlock: AJUNOK_clean_linker_0, # of connection points: 2
#     Edge 27, Type (0, 1), BuildingBlock: AJUNOK_clean_linker_0, # of connection points: 2
#     Edge 28, Type (0, 1), BuildingBlock: AJUNOK_clean_linker_0, # of connection points: 2
#     Edge 29, Type (0, 1), BuildingBlock: AJUNOK_clean_linker_0, # of connection points: 2
#     Edge 30, Type (0, 1), BuildingBlock: AJUNOK_clean_linker_0, # of connection points: 2
#     Edge 31, Type (0, 1), BuildingBlock: AJUNOK_clean_linker_0, # of connection points: 2
#     Edge 32, Type (0, 1), BuildingBlock: AJUNOK_clean_linker_0, # of connection points: 2
#     Edge 33, Type (0, 1), BuildingBlock: AJUNOK_clean_linker_0, # of connection points: 2
#     Edge 34, Type (0, 1), BuildingBlock: AJUNOK_clean_linker_0, # of connection points: 2
#     Edge 35, Type (0, 1), BuildingBlock: AJUNOK_clean_linker_0, # of connection points: 2
# Relax obj value: 0.031
# Max RMSD: 0.242
# Mean RMSD: 0.143
data_MOF--net-apo--node1-OLANEW_clean_sbu_2--node2-KUMBUR_clean_sbu_1--edge1-AJUNOK_clean_linker_0
_symmetry_space_group_name_H-M    P1
_symmetry_Int_Tables_number       1
_symmetry_cell_setting            triclinic
loop_
_symmetry_equiv_pos_as_xyz
'x, y, z'
_cell_length_a     21.837242
_cell_length_b     33.280766
_cell_length_c     44.171374
_cell_angle_alpha  88.409727
_cell_angle_beta   89.948377
_cell_angle_gamma 90.354395
loop_
_atom_site_label
_atom_site_type_symbol
_atom_site_fract_x
_atom_site_fract_y
_atom_site_fract_z
_atom_type_partial_charge
O0 O 0.30933 0.3939 0.34397 0.0
Cd1 Cd 0.25565 0.33841 0.37268 0.0
O2 O 0.37556 0.40605 0.38024 0.0
Cd3 Cd 0.35 0.35745 0.41211 0.0
O4 O 0.36372 0.35259 0.46107 0.0
C5 C 0.39638 0.3818 0.46981 0.0
O6 O 0.41591 0.4081 0.4492 0.0
C7 C 0.3531 0.41501 0.35443 0.0
C8 C 0.19889 0.27576 0.34091 0.0
O9 O 0.17485 0.31072 0.34178 0.0
O10 O 0.25045 0.27028 0.35416 0.0
O11 O 0.26715 0.17957 0.95852 0.0
Cd12 Cd 0.31722 0.17713 0.90764 0.0
O13 O 0.26995 0.12188 0.93759 0.0
Cd14 Cd 0.27776 0.06838 0.91111 0.0
O15 O 0.24507 0.04573 0.86826 0.0
C16 C 0.19445 0.0276 0.87221 0.0
O17 O 0.17289 0.0232 0.89988 0.0
C18 C 0.25562 0.14212 0.96046 0.0
C19 C 0.37541 0.23884 0.87543 0.0
O20 O 0.31738 0.23311 0.87363 0.0
O21 O 0.40584 0.21663 0.89417 0.0
O22 O 0.81434 0.11444 0.6589 0.0
Cd23 Cd 0.77007 0.17181 0.62969 0.0
O24 O 0.88999 0.10767 0.6265 0.0
Cd25 Cd 0.86172 0.15274 0.59349 0.0
O26 O 0.86407 0.14472 0.54503 0.0
C27 C 0.8884 0.11254 0.53598 0.0
O28 O 0.91053 0.08628 0.55574 0.0
C29 C 0.86237 0.09623 0.65051 0.0
C30 C 0.71436 0.23173 0.66374 0.0
O31 O 0.68488 0.20009 0.65627 0.0
O32 O 0.77055 0.23484 0.65554 0.0
O33 O 0.75934 0.3406 0.05386 0.0
Cd34 Cd 0.84302 0.33904 0.0921 0.0
O35 O 0.77137 0.40245 0.06651 0.0
Cd36 Cd 0.75949 0.46574 0.07346 0.0
O37 O 0.73103 0.49264 0.11517 0.0
C38 C 0.68787 0.47496 0.12967 0.0
O39 O 0.66212 0.44321 0.11792 0.0
C40 C 0.74577 0.37741 0.04935 0.0
C41 C 0.8758 0.27506 0.13151 0.0
O42 O 0.88538 0.27422 0.10288 0.0
O43 O 0.84683 0.30532 0.14158 0.0
O44 O 0.72521 0.60903 0.65897 0.0
Cd45 Cd 0.77404 0.66079 0.62472 0.0
O46 O 0.73612 0.56091 0.62629 0.0
Cd47 Cd 0.77846 0.60012 0.59272 0.0
O48 O 0.75417 0.61897 0.54726 0.0
C49 C 0.69898 0.61191 0.53991 0.0
O50 O 0.66191 0.59583 0.56042 0.0
C51 C 0.71628 0.5727 0.6515 0.0
C52 C 0.83899 0.72417 0.6506 0.0
O53 O 0.78037 0.72394 0.64976 0.0
O54 O 0.8675 0.69403 0.64013 0.0
O55 O 0.8036 0.90249 0.15505 0.0
Cd56 Cd 0.7231 0.86322 0.12814 0.0
O57 O 0.80774 0.94802 0.11794 0.0
Cd58 Cd 0.74763 0.91509 0.08853 0.0
O59 O 0.76421 0.89474 0.04338 0.0
C60 C 0.81878 0.90249 0.03504 0.0
O61 O 0.85534 0.92065 0.05402 0.0
C62 C 0.82643 0.93481 0.14347 0.0
C63 C 0.6647 0.79736 0.15798 0.0
O64 O 0.71807 0.79487 0.14609 0.0
O65 O 0.63816 0.83159 0.15636 0.0
O66 O 0.21642 0.89589 0.34899 0.0
Cd67 Cd 0.27676 0.84829 0.38007 0.0
O68 O 0.25241 0.94983 0.37075 0.0
Cd69 Cd 0.27733 0.91304 0.40988 0.0
O70 O 0.23173 0.89858 0.45257 0.0
C71 C 0.18243 0.91725 0.45799 0.0
O72 O 0.16163 0.94391 0.43817 0.0
C73 C 0.22064 0.93399 0.35017 0.0
C74 C 0.32936 0.78666 0.34679 0.0
O75 O 0.27551 0.78303 0.35812 0.0
O76 O 0.35829 0.81968 0.35097 0.0
O77 O 0.31088 0.60685 0.84424 0.0
Cd78 Cd 0.24951 0.65379 0.87437 0.0
O79 O 0.29791 0.55589 0.87659 0.0
Cd80 Cd 0.24887 0.58798 0.91065 0.0
O81 O 0.27448 0.59118 0.95784 0.0
C82 C 0.33091 0.58545 0.96339 0.0
O83 O 0.36918 0.57998 0.94096 0.0
C84 C 0.32058 0.57028 0.85211 0.0
C85 C 0.18634 0.71524 0.84251 0.0
O86 O 0.24143 0.72079 0.85155 0.0
O87 O 0.1621 0.68061 0.84798 0.0
Tb88 Tb 0.09881 0.09942 0.21065 0.0
C89 C 0.81904 0.0817 0.26196 0.0
N90 N 0.85979 0.1125 0.25819 0.0
C91 C 0.77822 0.15545 0.24049 0.0
C92 C 0.75635 0.08652 0.25486 0.0
C93 C 0.83943 0.14954 0.2487 0.0
C94 C 0.73647 0.12378 0.24351 0.0
C95 C 0.79899 0.01284 0.27846 0.0
C96 C 0.83991 0.04547 0.27376 0.0
C97 C 0.73707 0.01708 0.27057 0.0
C98 C 0.71564 0.05399 0.25911 0.0
Tb99 Tb 0.95819 0.09978 0.27451 0.0
N100 N 0.89954 0.04295 0.28226 0.0
C101 C 0.82088 0.97755 0.29236 0.0
C102 C 0.91887 0.0102 0.29876 0.0
C103 C 0.88076 0.97659 0.30322 0.0
H104 H 0.86916 0.17531 0.24866 0.0
H105 H 0.8968 0.95055 0.31602 0.0
H106 H 0.19766 0.02495 0.22963 0.0
H107 H 0.14157 0.2536 0.17746 0.0
H108 H 0.9622 0.01091 0.31019 0.0
H109 H 0.79103 0.95181 0.29635 0.0
H110 H 0.07993 0.19114 0.1829 0.0
H111 H 0.76297 0.18481 0.23263 0.0
H112 H 0.70509 0.99234 0.274 0.0
H113 H 0.66753 0.05709 0.25359 0.0
H114 H 0.30367 0.0201 0.24749 0.0
H115 H 0.68889 0.12859 0.23755 0.0
H116 H 0.24719 0.25553 0.19764 0.0
N117 N 0.19629 0.08933 0.22873 0.0
C118 C 0.23169 0.12319 0.22895 0.0
C119 C 0.28373 0.04933 0.2429 0.0
C120 C 0.29405 0.12135 0.23729 0.0
C121 C 0.22285 0.0524 0.2335 0.0
C122 C 0.31922 0.08402 0.24534 0.0
N123 N 0.14803 0.15969 0.20822 0.0
C124 C 0.12524 0.19232 0.19255 0.0
C125 C 0.24455 0.19382 0.21455 0.0
C126 C 0.2073 0.1592 0.21775 0.0
C127 C 0.21992 0.22839 0.20057 0.0
C128 C 0.16028 0.22745 0.18916 0.0
H129 H 0.36685 0.08143 0.25192 0.0
H130 H 0.37822 0.15541 0.242 0.0
H131 H 0.33496 0.21875 0.22204 0.0
O132 O 0.08571 0.10987 0.16332 0.0
O133 O 0.09237 0.14932 0.2425 0.0
O134 O 0.05231 0.11843 0.28487 0.0
O135 O 0.16353 0.07815 0.17997 0.0
O136 O 0.00717 0.12146 0.20106 0.0
O137 O 0.97031 0.15237 0.24305 0.0
O138 O 0.94601 0.08788 0.3216 0.0
O139 O 0.9427 0.06643 0.23292 0.0
O140 O 0.0353 0.04713 0.21035 0.0
O141 O 0.92364 0.14611 0.30082 0.0
O142 O 0.03101 0.05654 0.28448 0.0
O143 O 0.10234 0.05042 0.24478 0.0
C144 C 0.08254 0.14837 0.2719 0.0
C145 C 0.14108 0.06972 0.12826 0.0
C146 C 0.16399 0.06711 0.07374 0.0
C147 C 0.15824 0.02493 0.07614 0.0
C148 C 0.1415 0.02761 0.13016 0.0
C149 C 0.14929 0.00546 0.10416 0.0
C150 C 0.15299 0.08948 0.1 0.0
C151 C 0.97948 0.15166 0.21345 0.0
C152 C 0.13701 0.09316 0.15612 0.0
C153 C 0.33034 0.15632 0.23562 0.0
C154 C 0.30573 0.1924 0.2242 0.0
C155 C 0.97473 0.04499 0.21365 0.0
C156 C 0.90412 0.1383 0.35494 0.0
C157 C 0.89255 0.1318 0.40984 0.0
C158 C 0.86635 0.17022 0.40983 0.0
C159 C 0.87558 0.17595 0.35562 0.0
C160 C 0.91233 0.11579 0.38231 0.0
C161 C 0.85736 0.19186 0.38291 0.0
C162 C 0.07864 0.03996 0.27141 0.0
C163 C 0.92441 0.12359 0.32541 0.0
H164 H 0.16224 0.00661 0.05638 0.0
H165 H 0.13581 0.0118 0.15176 0.0
H166 H 0.14862 0.97295 0.10573 0.0
H167 H 0.15678 0.12198 0.0989 0.0
H168 H 0.85162 0.18322 0.43084 0.0
H169 H 0.8676 0.19341 0.33497 0.0
H170 H 0.933 0.08626 0.3822 0.0
H171 H 0.83597 0.22108 0.3832 0.0
Tb172 Tb 0.46187 0.40543 0.72898 0.0
C173 C 0.73418 0.4423 0.77521 0.0
N174 N 0.70157 0.40735 0.77555 0.0
C175 C 0.79219 0.37158 0.76114 0.0
C176 C 0.79646 0.44342 0.7666 0.0
C177 C 0.73104 0.37182 0.7704 0.0
C178 C 0.82476 0.40764 0.75864 0.0
C179 C 0.74011 0.51255 0.78833 0.0
C180 C 0.70655 0.47644 0.786 0.0
C181 C 0.80128 0.51421 0.77853 0.0
C182 C 0.82935 0.47974 0.76764 0.0
Tb183 Tb 0.60211 0.41217 0.79254 0.0
N184 N 0.64735 0.47379 0.79542 0.0
C185 C 0.71161 0.54557 0.80118 0.0
C186 C 0.62037 0.50517 0.8095 0.0
C187 C 0.65168 0.54173 0.81208 0.0
H188 H 0.70824 0.34319 0.77412 0.0
H189 H 0.62981 0.56681 0.82271 0.0
H190 H 0.36188 0.47358 0.75102 0.0
H191 H 0.42657 0.25048 0.69771 0.0
H192 H 0.57457 0.50198 0.81852 0.0
H193 H 0.7359 0.57382 0.80342 0.0
H194 H 0.48291 0.31406 0.70004 0.0
H195 H 0.81446 0.34345 0.75649 0.0
H196 H 0.82774 0.54174 0.77998 0.0
H197 H 0.87711 0.48117 0.76098 0.0
H198 H 0.25711 0.47524 0.77102 0.0
H199 H 0.87247 0.40727 0.7519 0.0
H200 H 0.32172 0.24488 0.71855 0.0
N201 N 0.36385 0.41037 0.74686 0.0
C202 C 0.32946 0.37628 0.7465 0.0
C203 C 0.27715 0.44698 0.76475 0.0
C204 C 0.26791 0.37592 0.75632 0.0
C205 C 0.33752 0.44583 0.75429 0.0
C206 C 0.24232 0.41172 0.76614 0.0
N207 N 0.41468 0.34376 0.72558 0.0
C208 C 0.43926 0.31173 0.71121 0.0
C209 C 0.32058 0.30625 0.73351 0.0
C210 C 0.3556 0.3419 0.73537 0.0
C211 C 0.34719 0.27273 0.72057 0.0
C212 C 0.40648 0.2757 0.70898 0.0
H213 H 0.19523 0.41273 0.77382 0.0
H214 H 0.18622 0.33937 0.76278 0.0
H215 H 0.23228 0.27834 0.7427 0.0
O216 O 0.44368 0.39191 0.68346 0.0
O217 O 0.44864 0.37721 0.77414 0.0
O218 O 0.54609 0.35828 0.78795 0.0
O219 O 0.42331 0.45106 0.70078 0.0
O220 O 0.54006 0.36766 0.71881 0.0
O221 O 0.61084 0.36443 0.75894 0.0
O222 O 0.58355 0.41524 0.84101 0.0
O223 O 0.59312 0.4617 0.7592 0.0
O224 O 0.55469 0.42788 0.719 0.0
O225 O 0.66379 0.38736 0.82254 0.0
O226 O 0.51114 0.4368 0.80205 0.0
O227 O 0.47045 0.45971 0.75613 0.0
C228 C 0.48657 0.35616 0.79149 0.0
C229 C 0.3987 0.43995 0.64759 0.0
C230 C 0.39172 0.43205 0.59284 0.0
C231 C 0.35269 0.46534 0.59102 0.0
C232 C 0.35933 0.47302 0.64512 0.0
C233 C 0.33641 0.48551 0.617 0.0
C234 C 0.41453 0.41904 0.62126 0.0
C235 C 0.58935 0.35335 0.73237 0.0
C236 C 0.42181 0.42742 0.67776 0.0
C237 C 0.23351 0.34022 0.75532 0.0
C238 C 0.25975 0.30548 0.74389 0.0
C239 C 0.58235 0.45934 0.73008 0.0
C240 C 0.6597 0.38203 0.87633 0.0
C241 C 0.6733 0.38323 0.93145 0.0
C242 C 0.71794 0.35324 0.92923 0.0
C243 C 0.70394 0.35138 0.87545 0.0
C244 C 0.64407 0.39817 0.90476 0.0
C245 C 0.7328 0.33738 0.90157 0.0
C246 C 0.47738 0.46217 0.78577 0.0
C247 C 0.63514 0.39716 0.84673 0.0
H248 H 0.33462 0.47568 0.56935 0.0
H249 H 0.34588 0.48914 0.66501 0.0
H250 H 0.30596 0.511 0.61532 0.0
H251 H 0.44482 0.39338 0.62275 0.0
H252 H 0.74146 0.3418 0.94926 0.0
H253 H 0.7171 0.33811 0.85431 0.0
H254 H 0.61049 0.42188 0.90607 0.0
H255 H 0.76706 0.31412 0.90035 0.0
Tb256 Tb 0.07725 0.90589 0.71764 0.0
C257 C 0.7981 0.87794 0.76271 0.0
N258 N 0.83597 0.91034 0.7611 0.0
C259 C 0.7529 0.9512 0.74263 0.0
C260 C 0.73689 0.88034 0.75266 0.0
C261 C 0.81312 0.94714 0.7529 0.0
C262 C 0.71496 0.91741 0.74179 0.0
C263 C 0.77926 0.81046 0.7824 0.0
C264 C 0.81901 0.84354 0.77736 0.0
C265 C 0.71986 0.81145 0.77028 0.0
C266 C 0.69864 0.8464 0.75546 0.0
Tb267 Tb 0.93375 0.9006 0.7784 0.0
N268 N 0.87625 0.84407 0.78927 0.0
C269 C 0.79906 0.77842 0.80095 0.0
C270 C 0.8941 0.8139 0.80901 0.0
C271 C 0.85628 0.78055 0.81481 0.0
H272 H 0.84 0.97375 0.75561 0.0
H273 H 0.87126 0.75658 0.83005 0.0
H274 H 0.17731 0.83241 0.73749 0.0
H275 H 0.11902 0.06042 0.68329 0.0
H276 H 0.93718 0.81551 0.82091 0.0
H277 H 0.76978 0.75257 0.80553 0.0
H278 H 0.05801 0.99822 0.69006 0.0
H279 H 0.73545 0.98053 0.73602 0.0
H280 H 0.68904 0.78605 0.7735 0.0
H281 H 0.65175 0.84748 0.74751 0.0
H282 H 0.28328 0.82823 0.75555 0.0
H283 H 0.66801 0.92066 0.73425 0.0
H284 H 0.22624 0.06232 0.70127 0.0
N285 N 0.17683 0.89671 0.73378 0.0
C286 C 0.21242 0.93036 0.73319 0.0
C287 C 0.2638 0.85724 0.7497 0.0
C288 C 0.27466 0.92888 0.74178 0.0
C289 C 0.20314 0.85997 0.73995 0.0
C290 C 0.29954 0.89195 0.75106 0.0
N291 N 0.12843 0.96578 0.71257 0.0
C292 C 0.10417 0.99891 0.69823 0.0
C293 C 0.22468 0.00062 0.71819 0.0
C294 C 0.1878 0.96584 0.72168 0.0
C295 C 0.19932 0.03507 0.70448 0.0
C296 C 0.13885 0.03412 0.69429 0.0
H297 H 0.34698 0.88965 0.75801 0.0
H298 H 0.35864 0.96325 0.74611 0.0
H299 H 0.31494 0.02605 0.72528 0.0
O300 O 0.07392 0.91845 0.66947 0.0
O301 O 0.07139 0.95527 0.74944 0.0
O302 O 0.02825 0.91736 0.78687 0.0
O303 O 0.12646 0.86949 0.6895 0.0
O304 O 0.98636 0.92938 0.70624 0.0
O305 O 0.94592 0.95532 0.74952 0.0
O306 O 0.93014 0.89147 0.82594 0.0
O307 O 0.91803 0.8725 0.73462 0.0
O308 O 0.01539 0.85332 0.719 0.0
O309 O 0.89837 0.94718 0.80451 0.0
O310 O 0.9974 0.84967 0.78299 0.0
O311 O 0.08861 0.86423 0.75689 0.0
C312 C 0.05637 0.95032 0.778 0.0
C313 C 0.13589 0.87609 0.63561 0.0
C314 C 0.1427 0.87899 0.58042 0.0
C315 C 0.18665 0.84832 0.58186 0.0
C316 C 0.18 0.84538 0.63611 0.0
C317 C 0.20505 0.83172 0.60946 0.0
C318 C 0.11749 0.89338 0.60749 0.0
C319 C 0.95695 0.95789 0.72013 0.0
C320 C 0.11128 0.88895 0.66496 0.0
C321 C 0.31084 0.96386 0.73957 0.0
C322 C 0.28599 0.9996 0.72766 0.0
C323 C 0.95509 0.85051 0.7183 0.0
C324 C 0.88802 0.94126 0.85935 0.0
C325 C 0.8763 0.932 0.91387 0.0
C326 C 0.85333 0.97116 0.91538 0.0
C327 C 0.86329 0.97999 0.86129 0.0
C328 C 0.89412 0.91698 0.88585 0.0
C329 C 0.84643 0.99485 0.88922 0.0
C330 C 0.05554 0.84292 0.77665 0.0
C331 C 0.90494 0.92615 0.82952 0.0
H332 H 0.20761 0.83744 0.56142 0.0
H333 H 0.19567 0.83174 0.65723 0.0
H334 H 0.23912 0.80823 0.61021 0.0
H335 H 0.08405 0.91732 0.60665 0.0
H336 H 0.83851 0.98283 0.93685 0.0
H337 H 0.8568 0.99885 0.84118 0.0
H338 H 0.91092 0.88648 0.88467 0.0
H339 H 0.8272 0.02464 0.89057 0.0
Tb340 Tb 0.43495 0.60222 0.22144 0.0
C341 C 0.71033 0.63003 0.27241 0.0
N342 N 0.67408 0.59679 0.27114 0.0
C343 C 0.76123 0.55748 0.25733 0.0
C344 C 0.77323 0.62854 0.26516 0.0
C345 C 0.69921 0.56037 0.26494 0.0
C346 C 0.79823 0.59181 0.25703 0.0
C347 C 0.72129 0.70038 0.28442 0.0
C348 C 0.68479 0.66541 0.2821 0.0
C349 C 0.78328 0.69943 0.27611 0.0
C350 C 0.80935 0.6635 0.26676 0.0
Tb351 Tb 0.5738 0.60508 0.28473 0.0
N352 N 0.6251 0.66496 0.29079 0.0
C353 C 0.69516 0.7348 0.29627 0.0
C354 C 0.60181 0.69733 0.30535 0.0
C355 C 0.63554 0.73294 0.30743 0.0
H356 H 0.67181 0.53327 0.26581 0.0
H357 H 0.61606 0.75855 0.31845 0.0
H358 H 0.32736 0.671 0.23784 0.0
H359 H 0.40647 0.44911 0.18741 0.0
H360 H 0.55842 0.69573 0.31684 0.0
H361 H 0.72158 0.76225 0.29836 0.0
H362 H 0.4599 0.51475 0.19148 0.0
H363 H 0.78049 0.52871 0.2518 0.0
H364 H 0.81182 0.72606 0.27757 0.0
H365 H 0.85757 0.663 0.261 0.0
H366 H 0.21933 0.67084 0.253 0.0
H367 H 0.84624 0.58947 0.25117 0.0
H368 H 0.30139 0.44065 0.20787 0.0
N369 N 0.33391 0.60689 0.2364 0.0
C370 C 0.30148 0.57192 0.23658 0.0
C371 C 0.24207 0.64267 0.24897 0.0
C372 C 0.23889 0.57066 0.24459 0.0
C373 C 0.30387 0.64244 0.24081 0.0
C374 C 0.20976 0.60652 0.25159 0.0
N375 N 0.38852 0.54117 0.21638 0.0
C376 C 0.41513 0.51053 0.20132 0.0
C377 C 0.29642 0.50172 0.22339 0.0
C378 C 0.32954 0.53799 0.22592 0.0
C379 C 0.3252 0.46907 0.21015 0.0
C380 C 0.38455 0.4737 0.19863 0.0
H381 H 0.1617 0.60684 0.25769 0.0
H382 H 0.15868 0.53248 0.25019 0.0
H383 H 0.20928 0.47194 0.23184 0.0
O384 O 0.44569 0.59422 0.17344 0.0
O385 O 0.44455 0.55035 0.25289 0.0
O386 O 0.48115 0.5816 0.29451 0.0
O387 O 0.38207 0.63668 0.19214 0.0
O388 O 0.52696 0.58188 0.21034 0.0
O389 O 0.56786 0.55366 0.25432 0.0
O390 O 0.5857 0.61663 0.3311 0.0
O391 O 0.5897 0.63651 0.24091 0.0
O392 O 0.49316 0.65643 0.22484 0.0
O393 O 0.60668 0.55796 0.3129 0.0
O394 O 0.50174 0.64836 0.29219 0.0
O395 O 0.41994 0.64355 0.25832 0.0
C396 C 0.45467 0.55054 0.28219 0.0
C397 C 0.38056 0.63452 0.1382 0.0
C398 C 0.37122 0.62908 0.08361 0.0
C399 C 0.33151 0.66209 0.08293 0.0
C400 C 0.33998 0.66727 0.13691 0.0
C401 C 0.31583 0.68091 0.10945 0.0
C402 C 0.3959 0.61505 0.11134 0.0
C403 C 0.56074 0.55488 0.22464 0.0
C404 C 0.40307 0.62058 0.16807 0.0
C405 C 0.20656 0.53409 0.24378 0.0
C406 C 0.23531 0.49964 0.23324 0.0
C407 C 0.55345 0.66026 0.22459 0.0
C408 C 0.62432 0.56601 0.36681 0.0
C409 C 0.63606 0.57529 0.42093 0.0
C410 C 0.6563 0.53548 0.42423 0.0
C411 C 0.64715 0.52684 0.37046 0.0
C412 C 0.61947 0.59062 0.3922 0.0
C413 C 0.66256 0.51164 0.39909 0.0
C414 C 0.44769 0.6588 0.28183 0.0
C415 C 0.60564 0.5805 0.33651 0.0
H416 H 0.3113 0.67269 0.0618 0.0
H417 H 0.32642 0.68244 0.15721 0.0
H418 H 0.2844 0.70594 0.10877 0.0
H419 H 0.42562 0.58908 0.11199 0.0
H420 H 0.67027 0.52354 0.44622 0.0
H421 H 0.65278 0.50776 0.3512 0.0
H422 H 0.60445 0.62151 0.3896 0.0
H423 H 0.68017 0.48143 0.40176 0.0
C424 C 0.20819 0.99701 0.31875 0.0
C425 C 0.18459 0.95987 0.32937 0.0
C426 C 0.17329 0.02244 0.29983 0.0
C427 C 0.11439 0.01121 0.29023 0.0
H428 H 0.25363 0.00665 0.32534 0.0
H429 H 0.19202 0.05159 0.29328 0.0
S430 S 0.02993 0.9188 0.31439 0.0
N431 N 0.09638 0.91521 0.33196 0.0
N432 N 0.03371 0.96072 0.29354 0.0
C433 C 0.09025 0.97428 0.30094 0.0
C434 C 0.12483 0.94907 0.32109 0.0
C435 C 0.39064 0.5116 0.84902 0.0
C436 C 0.36183 0.54456 0.83441 0.0
C437 C 0.42937 0.48614 0.83329 0.0
C438 C 0.44106 0.4924 0.80219 0.0
H439 H 0.38314 0.5052 0.87293 0.0
H440 H 0.44906 0.46076 0.8456 0.0
S441 S 0.38059 0.57627 0.75384 0.0
N442 N 0.34915 0.58291 0.78732 0.0
N443 N 0.42494 0.53648 0.75796 0.0
C444 C 0.41496 0.52645 0.7876 0.0
C445 C 0.37451 0.55205 0.8036 0.0
C446 C 0.67587 0.54998 0.70232 0.0
C447 C 0.67988 0.54449 0.671 0.0
C448 C 0.64251 0.52307 0.72101 0.0
C449 C 0.61228 0.48935 0.70925 0.0
H450 H 0.6993 0.57495 0.71257 0.0
H451 H 0.64066 0.52886 0.74491 0.0
S452 S 0.59973 0.46552 0.62782 0.0
N453 N 0.64448 0.50564 0.62838 0.0
N454 N 0.58238 0.45504 0.66354 0.0
C455 C 0.61314 0.4848 0.67768 0.0
C456 C 0.64705 0.51222 0.65861 0.0
C457 C 0.92936 0.95755 0.16303 0.0
C458 C 0.86523 0.96146 0.16155 0.0
C459 C 0.96542 0.98515 0.17919 0.0
C460 C 0.93833 0.01769 0.19399 0.0
H461 H 0.95161 0.93316 0.15168 0.0
H462 H 0.01443 0.98063 0.18041 0.0
S463 S 0.77407 0.04626 0.1883 0.0
N464 N 0.7777 0.00277 0.17159 0.0
N465 N 0.84449 0.05618 0.19948 0.0
C466 C 0.87472 0.02336 0.18994 0.0
C467 C 0.83847 0.99485 0.17437 0.0
C468 C 0.87589 0.05648 0.69909 0.0
C469 C 0.88577 0.06069 0.66777 0.0
C470 C 0.90071 0.02405 0.71588 0.0
C471 C 0.93235 0.99276 0.7018 0.0
H472 H 0.85096 0.07928 0.71095 0.0
H473 H 0.89601 0.02431 0.74021 0.0
S474 S 0.97221 0.99048 0.61988 0.0
N475 N 0.93331 0.03242 0.62334 0.0
N476 N 0.97314 0.96926 0.65405 0.0
C477 C 0.94149 0.99647 0.67018 0.0
C478 C 0.91965 0.03077 0.65342 0.0
C479 C 0.61227 0.47361 0.17258 0.0
C480 C 0.66274 0.49202 0.15771 0.0
C481 C 0.58245 0.4924 0.19653 0.0
C482 C 0.60099 0.53066 0.20568 0.0
H483 H 0.5943 0.44518 0.16507 0.0
H484 H 0.54304 0.47772 0.20691 0.0
S485 S 0.73606 0.58823 0.17782 0.0
N486 N 0.73583 0.54737 0.15766 0.0
N487 N 0.67569 0.58432 0.20022 0.0
C488 C 0.65323 0.54807 0.19229 0.0
C489 C 0.6852 0.5283 0.16893 0.0
C490 C 0.37185 0.45276 0.30523 0.0
C491 C 0.37828 0.45034 0.33684 0.0
C492 C 0.3976 0.48473 0.28808 0.0
C493 C 0.42906 0.51673 0.30161 0.0
H494 H 0.34813 0.42917 0.29345 0.0
H495 H 0.39346 0.48378 0.26386 0.0
S496 S 0.45681 0.52567 0.38417 0.0
N497 N 0.4183 0.48309 0.38139 0.0
N498 N 0.46437 0.54383 0.3492 0.0
C499 C 0.43502 0.51503 0.3334 0.0
C500 C 0.41003 0.48187 0.35092 0.0
C501 C 0.13196 0.97235 0.85256 0.0
C502 C 0.16154 0.00925 0.84702 0.0
C503 C 0.09781 0.95413 0.83012 0.0
C504 C 0.09134 0.97217 0.80109 0.0
H505 H 0.13558 0.95713 0.87449 0.0
H506 H 0.07684 0.9253 0.83574 0.0
S507 S 0.15434 0.0715 0.77618 0.0
N508 N 0.17986 0.06486 0.81117 0.0
N509 N 0.11352 0.03095 0.76882 0.0
C510 C 0.11956 0.00976 0.79535 0.0
C511 C 0.15534 0.02819 0.81833 0.0
C512 C 0.18518 0.14154 0.00602 0.0
C513 C 0.23009 0.12268 0.98849 0.0
C514 C 0.16324 0.12359 0.03336 0.0
C515 C 0.18652 0.08652 0.04453 0.0
H516 H 0.16652 0.17018 0.99843 0.0
H517 H 0.12778 0.13878 0.04573 0.0
S518 S 0.30982 0.02771 0.00834 0.0
N519 N 0.29822 0.06596 0.98456 0.0
N520 N 0.26182 0.03408 0.03661 0.0
C521 C 0.23284 0.06829 0.02735 0.0
C522 C 0.25328 0.08581 0.9992 0.0
C523 C 0.37359 0.36695 0.52489 0.0
C524 C 0.40629 0.38921 0.50249 0.0
C525 C 0.37401 0.37842 0.55531 0.0
C526 C 0.40751 0.41225 0.5643 0.0
H527 H 0.34449 0.34205 0.51865 0.0
H528 H 0.34453 0.36255 0.57141 0.0
S529 S 0.50815 0.47681 0.51583 0.0
N530 N 0.47906 0.44381 0.49253 0.0
N531 N 0.4793 0.46501 0.5495 0.0
C532 C 0.44431 0.43255 0.54276 0.0
C533 C 0.44386 0.42111 0.51189 0.0
C534 C 0.66104 0.36356 0.01285 0.0
C535 C 0.70619 0.39009 0.02332 0.0
C536 C 0.63781 0.3674 0.98326 0.0
C537 C 0.66101 0.39678 0.96264 0.0
H538 H 0.64768 0.3375 0.0266 0.0
H539 H 0.60907 0.34338 0.97506 0.0
S540 S 0.76519 0.4806 0.98151 0.0
N541 N 0.7616 0.45265 0.01297 0.0
N542 N 0.71968 0.4586 0.95703 0.0
C543 C 0.69812 0.42725 0.97437 0.0
C544 C 0.72091 0.42394 0.00476 0.0
C545 C 0.94777 0.10718 0.48809 0.0
C546 C 0.89142 0.10499 0.50349 0.0
C547 C 0.94957 0.10994 0.45625 0.0
C548 C 0.89505 0.1097 0.43929 0.0
H549 H 0.99 0.1104 0.50068 0.0
H550 H 0.99293 0.11633 0.44514 0.0
S551 S 0.73771 0.09625 0.46922 0.0
N552 N 0.78129 0.09743 0.49974 0.0
N553 N 0.78489 0.10018 0.44004 0.0
C554 C 0.8396 0.10215 0.45458 0.0
C555 C 0.83759 0.10074 0.48675 0.0
C556 C 0.89937 0.90692 0.995 0.0
C557 C 0.83881 0.89681 0.00345 0.0
C558 C 0.91571 0.9121 0.96446 0.0
C559 C 0.8722 0.90666 0.94157 0.0
H560 H 0.93307 0.91427 0.01199 0.0
H561 H 0.9604 0.92458 0.9589 0.0
S562 S 0.7122 0.87184 0.95109 0.0
N563 N 0.7382 0.87552 0.986 0.0
N564 N 0.77037 0.88388 0.92868 0.0
C565 C 0.81458 0.89099 0.94953 0.0
C566 C 0.79727 0.8866 0.98053 0.0
C567 C 0.61758 0.60804 0.50023 0.0
C568 C 0.67936 0.61514 0.50786 0.0
C569 C 0.60046 0.60074 0.47025 0.0
C570 C 0.64451 0.60114 0.44708 0.0
H571 H 0.58305 0.60489 0.51778 0.0
H572 H 0.55403 0.59097 0.46571 0.0
S573 S 0.8096 0.62384 0.45395 0.0
N574 N 0.78302 0.62625 0.48883 0.0
N575 N 0.74965 0.61424 0.43259 0.0
C576 C 0.70442 0.61307 0.45377 0.0
C577 C 0.72233 0.61951 0.48421 0.0
C578 C 0.39588 0.61992 1.00073 0.0
C579 C 0.35396 0.5892 0.99431 0.0
C580 C 0.40848 0.62965 0.03074 0.0
C581 C 0.38037 0.60836 0.055 0.0
H582 H 0.41499 0.63863 0.98256 0.0
H583 H 0.43585 0.65617 0.03497 0.0
S584 S 0.2773 0.52018 0.04965 0.0
N585 N 0.29117 0.53408 0.01408 0.0
N586 N 0.31661 0.55152 0.07067 0.0
C587 C 0.34405 0.57473 0.04874 0.0
C588 C 0.33004 0.56547 0.01824 0.0
C589 C 0.12613 0.87656 0.49689 0.0
C590 C 0.15412 0.91298 0.48801 0.0
C591 C 0.11203 0.86836 0.52737 0.0
C592 C 0.12787 0.89569 0.54993 0.0
H593 H 0.11883 0.85331 0.48056 0.0
H594 H 0.09533 0.83858 0.53375 0.0
S595 S 0.19179 0.99808 0.53692 0.0
N596 N 0.1881 0.9791 0.5028 0.0
N597 N 0.16418 0.96302 0.56052 0.0
C598 C 0.14948 0.93395 0.54075 0.0
C599 C 0.16261 0.94261 0.50959 0.0
C600 C 0.16743 0.24472 0.29259 0.0
C601 C 0.16869 0.24308 0.3243 0.0
C602 C 0.13869 0.21439 0.27619 0.0
C603 C 0.11031 0.18079 0.29063 0.0
H604 H 0.18891 0.26968 0.2803 0.0
H605 H 0.13816 0.21783 0.25191 0.0
S606 S 0.0954 0.16524 0.37404 0.0
N607 N 0.13559 0.20729 0.37004 0.0
N608 N 0.08153 0.15007 0.33939 0.0
C609 C 0.10975 0.17962 0.32264 0.0
C610 C 0.13918 0.21067 0.33937 0.0
C611 C 0.37148 0.28822 0.8322 0.0
C612 C 0.40592 0.2691 0.85519 0.0
C613 C 0.39801 0.31643 0.8122 0.0
C614 C 0.46052 0.32634 0.81366 0.0
H615 H 0.32326 0.28145 0.82947 0.0
H616 H 0.36867 0.33048 0.79551 0.0
S617 S 0.5712 0.28571 0.87044 0.0
N618 N 0.50599 0.26274 0.87901 0.0
N619 N 0.55639 0.31536 0.84079 0.0
C620 C 0.49591 0.30748 0.83661 0.0
C621 C 0.46854 0.27892 0.85741 0.0
C622 C 0.6286 0.25471 0.69665 0.0
C623 C 0.68419 0.26338 0.68155 0.0
C624 C 0.59916 0.28364 0.71388 0.0
C625 C 0.62335 0.3226 0.71607 0.0
H626 H 0.60786 0.22514 0.69549 0.0
H627 H 0.55725 0.27538 0.72565 0.0
S628 S 0.76477 0.36211 0.67955 0.0
N629 N 0.76141 0.31462 0.66966 0.0
N630 N 0.70381 0.36936 0.70081 0.0
C631 C 0.67804 0.3321 0.70082 0.0
C632 C 0.70895 0.30243 0.6838 0.0
C633 C 0.90237 0.24822 0.18391 0.0
C634 C 0.90036 0.24299 0.15232 0.0
C635 C 0.92863 0.21908 0.2036 0.0
C636 C 0.9522 0.18295 0.19263 0.0
H637 H 0.88479 0.27544 0.19349 0.0
H638 H 0.93099 0.22524 0.22751 0.0
S639 S 0.96042 0.15542 0.11152 0.0
N640 N 0.92735 0.1998 0.11096 0.0
N641 N 0.97283 0.14448 0.14756 0.0
C642 C 0.95052 0.17761 0.161 0.0
C643 C 0.9254 0.20761 0.14102 0.0
C644 C 0.89496 0.79045 0.6524 0.0
C645 C 0.87185 0.75549 0.66712 0.0
C646 C 0.92296 0.8211 0.66907 0.0
C647 C 0.92768 0.81772 0.70082 0.0
H648 H 0.89073 0.79427 0.62806 0.0
H649 H 0.93999 0.84781 0.65717 0.0
S650 S 0.87849 0.73041 0.74882 0.0
N651 N 0.85884 0.7181 0.7143 0.0
N652 N 0.91004 0.7756 0.74562 0.0
C653 C 0.90584 0.78248 0.71536 0.0
C654 C 0.8782 0.75137 0.69847 0.0
C655 C 0.57213 0.75894 0.17828 0.0
C656 C 0.63596 0.76187 0.17386 0.0
C657 C 0.54556 0.72564 0.19398 0.0
C658 C 0.58185 0.69425 0.20634 0.0
H659 H 0.54245 0.78248 0.16954 0.0
H660 H 0.4963 0.72496 0.19688 0.0
S661 S 0.75102 0.68687 0.1988 0.0
N662 N 0.73409 0.72978 0.18161 0.0
N663 N 0.68517 0.66803 0.21095 0.0
C664 C 0.64552 0.6967 0.2012 0.0
C665 C 0.67224 0.73021 0.18505 0.0
C666 C 0.41632 0.7592 0.31672 0.0
C667 C 0.35778 0.75367 0.32968 0.0
C668 C 0.44455 0.72857 0.30073 0.0
C669 C 0.4161 0.69096 0.29773 0.0
H670 H 0.44053 0.78751 0.31869 0.0
H671 H 0.48855 0.73467 0.29025 0.0
S672 S 0.26382 0.6603 0.32728 0.0
N673 N 0.27195 0.70737 0.33756 0.0
N674 N 0.32727 0.64929 0.30903 0.0
C675 C 0.35795 0.68482 0.31042 0.0
C676 C 0.32837 0.71623 0.32614 0.0
C677 C 0.17823 0.78617 0.82129 0.0
C678 C 0.15175 0.74779 0.82627 0.0
C679 C 0.14657 0.8169 0.80551 0.0
C680 C 0.08734 0.81046 0.79402 0.0
H681 H 0.22379 0.79262 0.82958 0.0
H682 H 0.16848 0.84603 0.80251 0.0
S683 S 0.99722 0.71603 0.80116 0.0
N684 N 0.06185 0.70576 0.81888 0.0
N685 N 0.0038 0.76307 0.78878 0.0
C686 C 0.06024 0.7726 0.79917 0.0
C687 C 0.09209 0.74138 0.81532 0.0
loop_
_geom_bond_atom_site_label_1
_geom_bond_atom_site_label_2
_geom_bond_distance
_geom_bond_site_symmetry_2
_ccdc_geom_bond_type
O0 Cd1 2.300 . S
O0 C7 1.275 . S
Cd1 O0 2.300 . S
Cd1 O9 2.381 . S
Cd1 O10 2.378 . S
O2 Cd3 2.385 . S
O2 C7 1.255 . S
Cd3 O2 2.385 . S
Cd3 O4 2.317 . S
O4 Cd3 2.317 . S
O4 C5 1.232 . S
C5 O4 1.232 . S
C5 O6 1.218 . S
O6 C5 1.218 . S
C7 O0 1.275 . S
C7 O2 1.255 . S
C8 O9 1.258 . S
C8 O10 1.256 . S
O9 Cd1 2.381 . S
O9 C8 1.258 . S
O10 Cd1 2.378 . S
O10 C8 1.256 . S
O11 Cd12 2.300 . S
O11 C18 1.275 . S
Cd12 O11 2.300 . S
Cd12 O20 2.381 . S
Cd12 O21 2.378 . S
O13 Cd14 2.385 . S
O13 C18 1.255 . S
Cd14 O13 2.385 . S
Cd14 O15 2.317 . S
O15 Cd14 2.317 . S
O15 C16 1.232 . S
C16 O15 1.232 . S
C16 O17 1.218 . S
O17 C16 1.218 . S
C18 O11 1.275 . S
C18 O13 1.255 . S
C19 O20 1.258 . S
C19 O21 1.256 . S
O20 Cd12 2.381 . S
O20 C19 1.258 . S
O21 Cd12 2.378 . S
O21 C19 1.256 . S
O22 Cd23 2.300 . S
O22 C29 1.275 . S
Cd23 O22 2.300 . S
Cd23 O31 2.381 . S
Cd23 O32 2.378 . S
O24 Cd25 2.385 . S
O24 C29 1.255 . S
Cd25 O24 2.385 . S
Cd25 O26 2.317 . S
O26 Cd25 2.317 . S
O26 C27 1.232 . S
C27 O26 1.232 . S
C27 O28 1.218 . S
O28 C27 1.218 . S
C29 O22 1.275 . S
C29 O24 1.255 . S
C30 O31 1.258 . S
C30 O32 1.256 . S
O31 Cd23 2.381 . S
O31 C30 1.258 . S
O32 Cd23 2.378 . S
O32 C30 1.256 . S
O33 Cd34 2.300 . S
O33 C40 1.275 . S
Cd34 O33 2.300 . S
Cd34 O42 2.381 . S
Cd34 O43 2.378 . S
O35 Cd36 2.385 . S
O35 C40 1.255 . S
Cd36 O35 2.385 . S
Cd36 O37 2.317 . S
O37 Cd36 2.317 . S
O37 C38 1.232 . S
C38 O37 1.232 . S
C38 O39 1.218 . S
O39 C38 1.218 . S
C40 O33 1.275 . S
C40 O35 1.255 . S
C41 O42 1.258 . S
C41 O43 1.256 . S
O42 Cd34 2.381 . S
O42 C41 1.258 . S
O43 Cd34 2.378 . S
O43 C41 1.256 . S
O44 Cd45 2.300 . S
O44 C51 1.275 . S
Cd45 O44 2.300 . S
Cd45 O53 2.381 . S
Cd45 O54 2.378 . S
O46 Cd47 2.385 . S
O46 C51 1.255 . S
Cd47 O46 2.385 . S
Cd47 O48 2.317 . S
O48 Cd47 2.317 . S
O48 C49 1.232 . S
C49 O48 1.232 . S
C49 O50 1.218 . S
O50 C49 1.218 . S
C51 O44 1.275 . S
C51 O46 1.255 . S
C52 O53 1.258 . S
C52 O54 1.256 . S
O53 Cd45 2.381 . S
O53 C52 1.258 . S
O54 Cd45 2.378 . S
O54 C52 1.256 . S
O55 Cd56 2.300 . S
O55 C62 1.275 . S
Cd56 O55 2.300 . S
Cd56 O64 2.381 . S
Cd56 O65 2.378 . S
O57 Cd58 2.385 . S
O57 C62 1.255 . S
Cd58 O57 2.385 . S
Cd58 O59 2.317 . S
O59 Cd58 2.317 . S
O59 C60 1.232 . S
C60 O59 1.232 . S
C60 O61 1.218 . S
O61 C60 1.218 . S
C62 O55 1.275 . S
C62 O57 1.255 . S
C63 O64 1.258 . S
C63 O65 1.256 . S
O64 Cd56 2.381 . S
O64 C63 1.258 . S
O65 Cd56 2.378 . S
O65 C63 1.256 . S
O66 Cd67 2.300 . S
O66 C73 1.275 . S
Cd67 O66 2.300 . S
Cd67 O75 2.381 . S
Cd67 O76 2.378 . S
O68 Cd69 2.385 . S
O68 C73 1.255 . S
Cd69 O68 2.385 . S
Cd69 O70 2.317 . S
O70 Cd69 2.317 . S
O70 C71 1.232 . S
C71 O70 1.232 . S
C71 O72 1.218 . S
O72 C71 1.218 . S
C73 O66 1.275 . S
C73 O68 1.255 . S
C74 O75 1.258 . S
C74 O76 1.256 . S
O75 Cd67 2.381 . S
O75 C74 1.258 . S
O76 Cd67 2.378 . S
O76 C74 1.256 . S
O77 Cd78 2.300 . S
O77 C84 1.275 . S
Cd78 O77 2.300 . S
Cd78 O86 2.381 . S
Cd78 O87 2.378 . S
O79 Cd80 2.385 . S
O79 C84 1.255 . S
Cd80 O79 2.385 . S
Cd80 O81 2.317 . S
O81 Cd80 2.317 . S
O81 C82 1.232 . S
C82 O81 1.232 . S
C82 O83 1.218 . S
O83 C82 1.218 . S
C84 O77 1.275 . S
C84 O79 1.255 . S
C85 O86 1.258 . S
C85 O87 1.256 . S
O86 Cd78 2.381 . S
O86 C85 1.258 . S
O87 Cd78 2.378 . S
O87 C85 1.256 . S
Tb88 N117 2.617 . S
Tb88 N123 2.572 . S
Tb88 O132 2.465 . S
Tb88 O133 2.387 . S
Tb88 O135 2.428 . S
Tb88 O136 2.308 . S
Tb88 O140 2.349 . S
Tb88 O143 2.393 . S
Tb88 C152 2.802 . S
C89 N90 1.379 . S
C89 C92 1.416 . S
C89 C96 1.424 . S
N90 C89 1.379 . S
N90 C93 1.334 . S
N90 Tb99 2.617 . S
C91 C93 1.390 . S
C91 C94 1.339 . S
C91 H111 0.930 . S
C92 C89 1.416 . S
C92 C94 1.416 . S
C92 C98 1.448 . S
C93 N90 1.334 . S
C93 C91 1.390 . S
C93 H104 0.930 . S
C94 C91 1.339 . S
C94 C92 1.416 . S
C94 H115 0.930 . S
C95 C96 1.413 . S
C95 C97 1.427 . S
C95 C101 1.416 1_545 S
C96 C89 1.424 . S
C96 C95 1.413 . S
C96 N100 1.361 . S
C97 C95 1.427 . S
C97 C98 1.328 . S
C97 H112 0.929 1_545 S
C98 C92 1.448 . S
C98 C97 1.328 . S
C98 H113 0.930 . S
Tb99 N90 2.617 . S
Tb99 N100 2.572 . S
Tb99 O134 2.349 1_655 S
Tb99 O137 2.393 . S
Tb99 O138 2.465 . S
Tb99 O139 2.387 . S
Tb99 O141 2.428 . S
Tb99 O142 2.308 1_655 S
Tb99 C163 2.802 . S
N100 C96 1.361 . S
N100 Tb99 2.572 . S
N100 C102 1.340 . S
C101 C95 1.416 1_565 S
C101 C103 1.332 . S
C101 H109 0.931 . S
C102 N100 1.340 . S
C102 C103 1.407 1_545 S
C102 H108 0.930 . S
C103 C101 1.332 . S
C103 C102 1.407 1_565 S
C103 H105 0.929 . S
H104 C93 0.930 . S
H105 C103 0.929 . S
H106 C121 0.930 . S
H107 C128 0.929 . S
H108 C102 0.930 . S
H109 C101 0.931 . S
H110 C124 0.930 . S
H111 C91 0.930 . S
H112 C97 0.929 1_565 S
H113 C98 0.930 . S
H114 C119 0.930 . S
H115 C94 0.930 . S
H116 C127 0.931 . S
N117 Tb88 2.617 . S
N117 C118 1.379 . S
N117 C121 1.334 . S
C118 N117 1.379 . S
C118 C120 1.416 . S
C118 C126 1.424 . S
C119 H114 0.930 . S
C119 C121 1.390 . S
C119 C122 1.339 . S
C120 C118 1.416 . S
C120 C122 1.416 . S
C120 C153 1.448 . S
C121 H106 0.930 . S
C121 N117 1.334 . S
C121 C119 1.390 . S
C122 C119 1.339 . S
C122 C120 1.416 . S
C122 H129 0.930 . S
N123 Tb88 2.572 . S
N123 C124 1.340 . S
N123 C126 1.361 . S
C124 H110 0.930 . S
C124 N123 1.340 . S
C124 C128 1.407 . S
C125 C126 1.413 . S
C125 C127 1.416 . S
C125 C154 1.427 . S
C126 C118 1.424 . S
C126 N123 1.361 . S
C126 C125 1.413 . S
C127 H116 0.931 . S
C127 C125 1.416 . S
C127 C128 1.332 . S
C128 H107 0.929 . S
C128 C124 1.407 . S
C128 C127 1.332 . S
H129 C122 0.930 . S
H130 C153 0.930 . S
H131 C154 0.929 . S
O132 Tb88 2.465 . S
O132 C152 1.264 . S
O133 Tb88 2.387 . S
O133 C144 1.264 . S
O134 Tb99 2.349 1_455 S
O134 C144 1.243 . S
O135 Tb88 2.428 . S
O135 C152 1.256 . S
O136 Tb88 2.308 . S
O136 C151 1.266 1_455 S
O137 Tb99 2.393 . S
O137 C151 1.248 . S
O138 Tb99 2.465 . S
O138 C163 1.264 . S
O139 Tb99 2.387 . S
O139 C155 1.264 . S
O140 Tb88 2.349 . S
O140 C155 1.243 1_455 S
O141 Tb99 2.428 . S
O141 C163 1.256 . S
O142 Tb99 2.308 1_455 S
O142 C162 1.266 . S
O143 Tb88 2.393 . S
O143 C162 1.248 . S
C144 O133 1.264 . S
C144 O134 1.243 . S
C145 C148 1.399 . S
C145 C150 1.383 . S
C145 C152 1.496 . S
C146 C147 1.399 . S
C146 C150 1.389 . S
C147 C146 1.399 . S
C147 C149 1.380 . S
C147 H164 0.929 . S
C148 C145 1.399 . S
C148 C149 1.392 . S
C148 H165 0.929 . S
C149 C147 1.380 . S
C149 C148 1.392 . S
C149 H166 0.929 . S
C150 C145 1.383 . S
C150 C146 1.389 . S
C150 H167 0.931 . S
C151 O136 1.266 1_655 S
C151 O137 1.248 . S
C152 Tb88 2.802 . S
C152 O132 1.264 . S
C152 O135 1.256 . S
C152 C145 1.496 . S
C153 C120 1.448 . S
C153 H130 0.930 . S
C153 C154 1.328 . S
C154 C125 1.427 . S
C154 H131 0.929 . S
C154 C153 1.328 . S
C155 O139 1.264 . S
C155 O140 1.243 1_655 S
C156 C159 1.399 . S
C156 C160 1.383 . S
C156 C163 1.496 . S
C157 C158 1.399 . S
C157 C160 1.389 . S
C158 C157 1.399 . S
C158 C161 1.380 . S
C158 H168 0.929 . S
C159 C156 1.399 . S
C159 C161 1.392 . S
C159 H169 0.929 . S
C160 C156 1.383 . S
C160 C157 1.389 . S
C160 H170 0.931 . S
C161 C158 1.380 . S
C161 C159 1.392 . S
C161 H171 0.929 . S
C162 O142 1.266 . S
C162 O143 1.248 . S
C163 Tb99 2.802 . S
C163 O138 1.264 . S
C163 O141 1.256 . S
C163 C156 1.496 . S
H164 C147 0.929 . S
H165 C148 0.929 . S
H166 C149 0.929 . S
H167 C150 0.931 . S
H168 C158 0.929 . S
H169 C159 0.929 . S
H170 C160 0.931 . S
H171 C161 0.929 . S
Tb172 N201 2.617 . S
Tb172 N207 2.572 . S
Tb172 O216 2.465 . S
Tb172 O217 2.387 . S
Tb172 O219 2.428 . S
Tb172 O220 2.308 . S
Tb172 O224 2.349 . S
Tb172 O227 2.393 . S
Tb172 C236 2.802 . S
C173 N174 1.379 . S
C173 C176 1.416 . S
C173 C180 1.424 . S
N174 C173 1.379 . S
N174 C177 1.334 . S
N174 Tb183 2.617 . S
C175 C177 1.390 . S
C175 C178 1.339 . S
C175 H195 0.930 . S
C176 C173 1.416 . S
C176 C178 1.416 . S
C176 C182 1.448 . S
C177 N174 1.334 . S
C177 C175 1.390 . S
C177 H188 0.930 . S
C178 C175 1.339 . S
C178 C176 1.416 . S
C178 H199 0.930 . S
C179 C180 1.413 . S
C179 C181 1.427 . S
C179 C185 1.416 . S
C180 C173 1.424 . S
C180 C179 1.413 . S
C180 N184 1.361 . S
C181 C179 1.427 . S
C181 C182 1.328 . S
C181 H196 0.929 . S
C182 C176 1.448 . S
C182 C181 1.328 . S
C182 H197 0.930 . S
Tb183 N174 2.617 . S
Tb183 N184 2.572 . S
Tb183 O218 2.349 . S
Tb183 O221 2.393 . S
Tb183 O222 2.465 . S
Tb183 O223 2.387 . S
Tb183 O225 2.428 . S
Tb183 O226 2.308 . S
Tb183 C247 2.802 . S
N184 C180 1.361 . S
N184 Tb183 2.572 . S
N184 C186 1.340 . S
C185 C179 1.416 . S
C185 C187 1.332 . S
C185 H193 0.931 . S
C186 N184 1.340 . S
C186 C187 1.407 . S
C186 H192 0.930 . S
C187 C185 1.332 . S
C187 C186 1.407 . S
C187 H189 0.929 . S
H188 C177 0.930 . S
H189 C187 0.929 . S
H190 C205 0.930 . S
H191 C212 0.929 . S
H192 C186 0.930 . S
H193 C185 0.931 . S
H194 C208 0.930 . S
H195 C175 0.930 . S
H196 C181 0.929 . S
H197 C182 0.930 . S
H198 C203 0.930 . S
H199 C178 0.930 . S
H200 C211 0.931 . S
N201 Tb172 2.617 . S
N201 C202 1.379 . S
N201 C205 1.334 . S
C202 N201 1.379 . S
C202 C204 1.416 . S
C202 C210 1.424 . S
C203 H198 0.930 . S
C203 C205 1.390 . S
C203 C206 1.339 . S
C204 C202 1.416 . S
C204 C206 1.416 . S
C204 C237 1.448 . S
C205 H190 0.930 . S
C205 N201 1.334 . S
C205 C203 1.390 . S
C206 C203 1.339 . S
C206 C204 1.416 . S
C206 H213 0.930 . S
N207 Tb172 2.572 . S
N207 C208 1.340 . S
N207 C210 1.361 . S
C208 H194 0.930 . S
C208 N207 1.340 . S
C208 C212 1.407 . S
C209 C210 1.413 . S
C209 C211 1.416 . S
C209 C238 1.427 . S
C210 C202 1.424 . S
C210 N207 1.361 . S
C210 C209 1.413 . S
C211 H200 0.931 . S
C211 C209 1.416 . S
C211 C212 1.332 . S
C212 H191 0.929 . S
C212 C208 1.407 . S
C212 C211 1.332 . S
H213 C206 0.930 . S
H214 C237 0.930 . S
H215 C238 0.929 . S
O216 Tb172 2.465 . S
O216 C236 1.264 . S
O217 Tb172 2.387 . S
O217 C228 1.264 . S
O218 Tb183 2.349 . S
O218 C228 1.243 . S
O219 Tb172 2.428 . S
O219 C236 1.256 . S
O220 Tb172 2.308 . S
O220 C235 1.266 . S
O221 Tb183 2.393 . S
O221 C235 1.248 . S
O222 Tb183 2.465 . S
O222 C247 1.264 . S
O223 Tb183 2.387 . S
O223 C239 1.264 . S
O224 Tb172 2.349 . S
O224 C239 1.243 . S
O225 Tb183 2.428 . S
O225 C247 1.256 . S
O226 Tb183 2.308 . S
O226 C246 1.266 . S
O227 Tb172 2.393 . S
O227 C246 1.248 . S
C228 O217 1.264 . S
C228 O218 1.243 . S
C229 C232 1.399 . S
C229 C234 1.383 . S
C229 C236 1.496 . S
C230 C231 1.399 . S
C230 C234 1.389 . S
C231 C230 1.399 . S
C231 C233 1.380 . S
C231 H248 0.929 . S
C232 C229 1.399 . S
C232 C233 1.392 . S
C232 H249 0.929 . S
C233 C231 1.380 . S
C233 C232 1.392 . S
C233 H250 0.929 . S
C234 C229 1.383 . S
C234 C230 1.389 . S
C234 H251 0.931 . S
C235 O220 1.266 . S
C235 O221 1.248 . S
C236 Tb172 2.802 . S
C236 O216 1.264 . S
C236 O219 1.256 . S
C236 C229 1.496 . S
C237 C204 1.448 . S
C237 H214 0.930 . S
C237 C238 1.328 . S
C238 C209 1.427 . S
C238 H215 0.929 . S
C238 C237 1.328 . S
C239 O223 1.264 . S
C239 O224 1.243 . S
C240 C243 1.399 . S
C240 C244 1.383 . S
C240 C247 1.496 . S
C241 C242 1.399 . S
C241 C244 1.389 . S
C242 C241 1.399 . S
C242 C245 1.380 . S
C242 H252 0.929 . S
C243 C240 1.399 . S
C243 C245 1.392 . S
C243 H253 0.929 . S
C244 C240 1.383 . S
C244 C241 1.389 . S
C244 H254 0.931 . S
C245 C242 1.380 . S
C245 C243 1.392 . S
C245 H255 0.929 . S
C246 O226 1.266 . S
C246 O227 1.248 . S
C247 Tb183 2.802 . S
C247 O222 1.264 . S
C247 O225 1.256 . S
C247 C240 1.496 . S
H248 C231 0.929 . S
H249 C232 0.929 . S
H250 C233 0.929 . S
H251 C234 0.931 . S
H252 C242 0.929 . S
H253 C243 0.929 . S
H254 C244 0.931 . S
H255 C245 0.929 . S
Tb256 N285 2.617 . S
Tb256 N291 2.572 . S
Tb256 O300 2.465 . S
Tb256 O301 2.387 . S
Tb256 O303 2.428 . S
Tb256 O304 2.308 . S
Tb256 O308 2.341 1_455 S
Tb256 O311 2.393 . S
Tb256 C320 2.802 . S
C257 N258 1.379 . S
C257 C260 1.416 . S
C257 C264 1.424 . S
N258 C257 1.379 . S
N258 C261 1.334 . S
N258 Tb267 2.617 . S
C259 C261 1.390 . S
C259 C262 1.339 . S
C259 H279 0.930 . S
C260 C257 1.416 . S
C260 C262 1.416 . S
C260 C266 1.448 . S
C261 N258 1.334 . S
C261 C259 1.390 . S
C261 H272 0.930 . S
C262 C259 1.339 . S
C262 C260 1.416 . S
C262 H283 0.930 . S
C263 C264 1.413 . S
C263 C265 1.427 . S
C263 C269 1.416 . S
C264 C257 1.424 . S
C264 C263 1.413 . S
C264 N268 1.361 . S
C265 C263 1.427 . S
C265 C266 1.328 . S
C265 H280 0.929 . S
C266 C260 1.448 . S
C266 C265 1.328 . S
C266 H281 0.930 . S
Tb267 N258 2.617 . S
Tb267 N268 2.572 . S
Tb267 O302 2.349 1_655 S
Tb267 O305 2.393 . S
Tb267 O306 2.465 . S
Tb267 O307 2.387 . S
Tb267 O309 2.428 . S
Tb267 O310 2.308 1_655 S
Tb267 C331 2.802 . S
N268 C264 1.361 . S
N268 Tb267 2.572 . S
N268 C270 1.340 . S
C269 C263 1.416 . S
C269 C271 1.332 . S
C269 H277 0.931 . S
C270 N268 1.340 . S
C270 C271 1.407 . S
C270 H276 0.930 . S
C271 C269 1.332 . S
C271 C270 1.407 . S
C271 H273 0.929 . S
H272 C261 0.930 . S
H273 C271 0.929 . S
H274 C289 0.930 . S
H275 C296 0.929 . S
H276 C270 0.930 . S
H277 C269 0.931 . S
H278 C292 0.929 . S
H279 C259 0.930 . S
H280 C265 0.929 . S
H281 C266 0.930 . S
H282 C287 0.930 . S
H283 C262 0.930 . S
H284 C295 0.931 . S
N285 Tb256 2.617 . S
N285 C286 1.379 . S
N285 C289 1.334 . S
C286 N285 1.379 . S
C286 C288 1.416 . S
C286 C294 1.424 . S
C287 H282 0.930 . S
C287 C289 1.390 . S
C287 C290 1.339 . S
C288 C286 1.416 . S
C288 C290 1.416 . S
C288 C321 1.448 . S
C289 H274 0.930 . S
C289 N285 1.334 . S
C289 C287 1.390 . S
C290 C287 1.339 . S
C290 C288 1.416 . S
C290 H297 0.930 . S
N291 Tb256 2.572 . S
N291 C292 1.347 . S
N291 C294 1.361 . S
C292 H278 0.929 . S
C292 N291 1.347 . S
C292 C296 1.400 1_565 S
C293 C294 1.413 1_545 S
C293 C295 1.416 . S
C293 C322 1.427 . S
C294 C286 1.424 . S
C294 N291 1.361 . S
C294 C293 1.413 1_565 S
C295 H284 0.931 . S
C295 C293 1.416 . S
C295 C296 1.332 . S
C296 H275 0.929 . S
C296 C292 1.400 1_545 S
C296 C295 1.332 . S
H297 C290 0.930 . S
H298 C321 0.930 . S
H299 C322 0.929 . S
O300 Tb256 2.465 . S
O300 C320 1.264 . S
O301 Tb256 2.387 . S
O301 C312 1.264 . S
O302 Tb267 2.349 1_455 S
O302 C312 1.243 . S
O303 Tb256 2.428 . S
O303 C320 1.256 . S
O304 Tb256 2.308 . S
O304 C319 1.266 1_455 S
O305 Tb267 2.393 . S
O305 C319 1.248 . S
O306 Tb267 2.465 . S
O306 C331 1.264 . S
O307 Tb267 2.387 . S
O307 C323 1.264 . S
O308 Tb256 2.341 1_655 S
O308 C323 1.254 . S
O309 Tb267 2.428 . S
O309 C331 1.256 . S
O310 Tb267 2.308 1_455 S
O310 C330 1.266 . S
O311 Tb256 2.393 . S
O311 C330 1.248 . S
C312 O301 1.264 . S
C312 O302 1.243 . S
C313 C316 1.399 . S
C313 C318 1.383 . S
C313 C320 1.496 . S
C314 C315 1.399 . S
C314 C318 1.389 . S
C315 C314 1.399 . S
C315 C317 1.380 . S
C315 H332 0.929 . S
C316 C313 1.399 . S
C316 C317 1.392 . S
C316 H333 0.929 . S
C317 C315 1.380 . S
C317 C316 1.392 . S
C317 H334 0.929 . S
C318 C313 1.383 . S
C318 C314 1.389 . S
C318 H335 0.931 . S
C319 O304 1.266 1_655 S
C319 O305 1.248 . S
C320 Tb256 2.802 . S
C320 O300 1.264 . S
C320 O303 1.256 . S
C320 C313 1.496 . S
C321 C288 1.448 . S
C321 H298 0.930 . S
C321 C322 1.328 1_565 S
C322 C293 1.427 . S
C322 H299 0.929 . S
C322 C321 1.328 1_545 S
C323 O307 1.264 . S
C323 O308 1.254 . S
C324 C327 1.399 . S
C324 C328 1.383 . S
C324 C331 1.496 . S
C325 C326 1.399 . S
C325 C328 1.389 . S
C326 C325 1.399 . S
C326 C329 1.380 . S
C326 H336 0.929 . S
C327 C324 1.399 . S
C327 C329 1.392 . S
C327 H337 0.929 . S
C328 C324 1.383 . S
C328 C325 1.389 . S
C328 H338 0.931 . S
C329 C326 1.380 . S
C329 C327 1.392 . S
C329 H339 0.929 . S
C330 O310 1.266 . S
C330 O311 1.248 . S
C331 Tb267 2.802 . S
C331 O306 1.264 . S
C331 O309 1.256 . S
C331 C324 1.496 . S
H332 C315 0.929 . S
H333 C316 0.929 . S
H334 C317 0.929 . S
H335 C318 0.931 . S
H336 C326 0.929 . S
H337 C327 0.929 . S
H338 C328 0.931 . S
H339 C329 0.929 . S
Tb340 N369 2.617 . S
Tb340 N375 2.572 . S
Tb340 O384 2.465 . S
Tb340 O385 2.387 . S
Tb340 O387 2.428 . S
Tb340 O388 2.308 . S
Tb340 O392 2.349 . S
Tb340 O395 2.393 . S
Tb340 C404 2.802 . S
C341 N342 1.379 . S
C341 C344 1.416 . S
C341 C348 1.424 . S
N342 C341 1.379 . S
N342 C345 1.334 . S
N342 Tb351 2.617 . S
C343 C345 1.390 . S
C343 C346 1.339 . S
C343 H363 0.930 . S
C344 C341 1.416 . S
C344 C346 1.416 . S
C344 C350 1.448 . S
C345 N342 1.334 . S
C345 C343 1.390 . S
C345 H356 0.930 . S
C346 C343 1.339 . S
C346 C344 1.416 . S
C346 H367 0.930 . S
C347 C348 1.413 . S
C347 C349 1.427 . S
C347 C353 1.416 . S
C348 C341 1.424 . S
C348 C347 1.413 . S
C348 N352 1.361 . S
C349 C347 1.427 . S
C349 C350 1.328 . S
C349 H364 0.929 . S
C350 C344 1.448 . S
C350 C349 1.328 . S
C350 H365 0.930 . S
Tb351 N342 2.617 . S
Tb351 N352 2.572 . S
Tb351 O386 2.349 . S
Tb351 O389 2.393 . S
Tb351 O390 2.465 . S
Tb351 O391 2.387 . S
Tb351 O393 2.428 . S
Tb351 O394 2.308 . S
Tb351 C415 2.802 . S
N352 C348 1.361 . S
N352 Tb351 2.572 . S
N352 C354 1.340 . S
C353 C347 1.416 . S
C353 C355 1.332 . S
C353 H361 0.931 . S
C354 N352 1.340 . S
C354 C355 1.407 . S
C354 H360 0.930 . S
C355 C353 1.332 . S
C355 C354 1.407 . S
C355 H357 0.929 . S
H356 C345 0.930 . S
H357 C355 0.929 . S
H358 C373 0.930 . S
H359 C380 0.929 . S
H360 C354 0.930 . S
H361 C353 0.931 . S
H362 C376 0.930 . S
H363 C343 0.930 . S
H364 C349 0.929 . S
H365 C350 0.930 . S
H366 C371 0.930 . S
H367 C346 0.930 . S
H368 C379 0.931 . S
N369 Tb340 2.617 . S
N369 C370 1.379 . S
N369 C373 1.334 . S
C370 N369 1.379 . S
C370 C372 1.416 . S
C370 C378 1.424 . S
C371 H366 0.930 . S
C371 C373 1.390 . S
C371 C374 1.339 . S
C372 C370 1.416 . S
C372 C374 1.416 . S
C372 C405 1.448 . S
C373 H358 0.930 . S
C373 N369 1.334 . S
C373 C371 1.390 . S
C374 C371 1.339 . S
C374 C372 1.416 . S
C374 H381 0.930 . S
N375 Tb340 2.572 . S
N375 C376 1.340 . S
N375 C378 1.361 . S
C376 H362 0.930 . S
C376 N375 1.340 . S
C376 C380 1.407 . S
C377 C378 1.413 . S
C377 C379 1.416 . S
C377 C406 1.427 . S
C378 C370 1.424 . S
C378 N375 1.361 . S
C378 C377 1.413 . S
C379 H368 0.931 . S
C379 C377 1.416 . S
C379 C380 1.332 . S
C380 H359 0.929 . S
C380 C376 1.407 . S
C380 C379 1.332 . S
H381 C374 0.930 . S
H382 C405 0.930 . S
H383 C406 0.929 . S
O384 Tb340 2.465 . S
O384 C404 1.264 . S
O385 Tb340 2.387 . S
O385 C396 1.264 . S
O386 Tb351 2.349 . S
O386 C396 1.243 . S
O387 Tb340 2.428 . S
O387 C404 1.256 . S
O388 Tb340 2.308 . S
O388 C403 1.266 . S
O389 Tb351 2.393 . S
O389 C403 1.248 . S
O390 Tb351 2.465 . S
O390 C415 1.264 . S
O391 Tb351 2.387 . S
O391 C407 1.264 . S
O392 Tb340 2.349 . S
O392 C407 1.243 . S
O393 Tb351 2.428 . S
O393 C415 1.256 . S
O394 Tb351 2.308 . S
O394 C414 1.266 . S
O395 Tb340 2.393 . S
O395 C414 1.248 . S
C396 O385 1.264 . S
C396 O386 1.243 . S
C397 C400 1.399 . S
C397 C402 1.383 . S
C397 C404 1.496 . S
C398 C399 1.399 . S
C398 C402 1.389 . S
C399 C398 1.399 . S
C399 C401 1.380 . S
C399 H416 0.929 . S
C400 C397 1.399 . S
C400 C401 1.392 . S
C400 H417 0.929 . S
C401 C399 1.380 . S
C401 C400 1.392 . S
C401 H418 0.929 . S
C402 C397 1.383 . S
C402 C398 1.389 . S
C402 H419 0.931 . S
C403 O388 1.266 . S
C403 O389 1.248 . S
C404 Tb340 2.802 . S
C404 O384 1.264 . S
C404 O387 1.256 . S
C404 C397 1.496 . S
C405 C372 1.448 . S
C405 H382 0.930 . S
C405 C406 1.328 . S
C406 C377 1.427 . S
C406 H383 0.929 . S
C406 C405 1.328 . S
C407 O391 1.264 . S
C407 O392 1.243 . S
C408 C411 1.399 . S
C408 C412 1.383 . S
C408 C415 1.496 . S
C409 C410 1.399 . S
C409 C412 1.389 . S
C410 C409 1.399 . S
C410 C413 1.380 . S
C410 H420 0.929 . S
C411 C408 1.399 . S
C411 C413 1.392 . S
C411 H421 0.929 . S
C412 C408 1.383 . S
C412 C409 1.389 . S
C412 H422 0.931 . S
C413 C410 1.380 . S
C413 C411 1.392 . S
C413 H423 0.929 . S
C414 O394 1.266 . S
C414 O395 1.248 . S
C415 Tb351 2.802 . S
C415 O390 1.264 . S
C415 O393 1.256 . S
C415 C408 1.496 . S
H416 C399 0.929 . S
H417 C400 0.929 . S
H418 C401 0.929 . S
H419 C402 0.931 . S
H420 C410 0.929 . S
H421 C411 0.929 . S
H422 C412 0.931 . S
H423 C413 0.929 . S
C424 C425 1.369 . S
C424 C426 1.419 1_565 S
C424 H428 0.930 . S
C425 C424 1.369 . S
C425 C434 1.429 . S
C426 C424 1.419 1_545 S
C426 C427 1.363 . S
C426 H429 0.929 . S
C427 C426 1.363 . S
C427 C433 1.428 1_545 S
H428 C424 0.930 . S
H429 C426 0.929 . S
S430 N431 1.613 1_655 S
S430 N432 1.610 1_655 S
N431 S430 1.613 1_455 S
N431 C434 1.350 . S
N432 S430 1.610 1_455 S
N432 C433 1.351 . S
C433 C427 1.428 1_565 S
C433 N432 1.351 . S
C433 C434 1.434 . S
C434 C425 1.429 . S
C434 N431 1.350 . S
C434 C433 1.434 . S
C435 C436 1.369 . S
C435 C437 1.419 . S
C435 H439 0.930 . S
C436 C435 1.369 . S
C436 C445 1.429 . S
C437 C435 1.419 . S
C437 C438 1.363 . S
C437 H440 0.929 . S
C438 C437 1.363 . S
C438 C444 1.428 . S
H439 C435 0.930 . S
H440 C437 0.929 . S
S441 N442 1.613 . S
S441 N443 1.610 . S
N442 S441 1.613 . S
N442 C445 1.350 . S
N443 S441 1.610 . S
N443 C444 1.351 . S
C444 C438 1.428 . S
C444 N443 1.351 . S
C444 C445 1.434 . S
C445 C436 1.429 . S
C445 N442 1.350 . S
C445 C444 1.434 . S
C446 C447 1.369 . S
C446 C448 1.419 . S
C446 H450 0.930 . S
C447 C446 1.369 . S
C447 C456 1.429 . S
C448 C446 1.419 . S
C448 C449 1.363 . S
C448 H451 0.929 . S
C449 C448 1.363 . S
C449 C455 1.428 . S
H450 C446 0.930 . S
H451 C448 0.929 . S
S452 N453 1.613 . S
S452 N454 1.610 . S
N453 S452 1.613 . S
N453 C456 1.350 . S
N454 S452 1.610 . S
N454 C455 1.351 . S
C455 C449 1.428 . S
C455 N454 1.351 . S
C455 C456 1.434 . S
C456 C447 1.429 . S
C456 N453 1.350 . S
C456 C455 1.434 . S
C457 C458 1.369 . S
C457 C459 1.419 . S
C457 H461 0.930 . S
C458 C457 1.369 . S
C458 C467 1.429 . S
C459 C457 1.419 . S
C459 C460 1.363 1_565 S
C459 H462 0.929 . S
C460 C459 1.363 1_545 S
C460 C466 1.428 . S
H461 C457 0.930 . S
H462 C459 0.929 . S
S463 N464 1.613 1_545 S
S463 N465 1.610 . S
N464 S463 1.613 1_565 S
N464 C467 1.350 . S
N465 S463 1.610 . S
N465 C466 1.351 . S
C466 C460 1.428 . S
C466 N465 1.351 . S
C466 C467 1.434 1_545 S
C467 C458 1.429 . S
C467 N464 1.350 . S
C467 C466 1.434 1_565 S
C468 C469 1.369 . S
C468 C470 1.419 . S
C468 H472 0.930 . S
C469 C468 1.369 . S
C469 C478 1.429 . S
C470 C468 1.419 . S
C470 C471 1.363 1_545 S
C470 H473 0.929 . S
C471 C470 1.363 1_565 S
C471 C477 1.428 1_565 S
H472 C468 0.930 . S
H473 C470 0.929 . S
S474 N475 1.595 1_565 S
S474 N476 1.619 . S
N475 S474 1.595 1_545 S
N475 C478 1.350 . S
N476 S474 1.619 . S
N476 C477 1.351 1_565 S
C477 C471 1.428 1_545 S
C477 N476 1.351 1_545 S
C477 C478 1.434 . S
C478 C469 1.429 . S
C478 N475 1.350 . S
C478 C477 1.434 . S
C479 C480 1.369 . S
C479 C481 1.419 . S
C479 H483 0.930 . S
C480 C479 1.369 . S
C480 C489 1.429 . S
C481 C479 1.419 . S
C481 C482 1.363 . S
C481 H484 0.929 . S
C482 C481 1.363 . S
C482 C488 1.428 . S
H483 C479 0.930 . S
H484 C481 0.929 . S
S485 N486 1.613 . S
S485 N487 1.610 . S
N486 S485 1.613 . S
N486 C489 1.350 . S
N487 S485 1.610 . S
N487 C488 1.351 . S
C488 C482 1.428 . S
C488 N487 1.351 . S
C488 C489 1.434 . S
C489 C480 1.429 . S
C489 N486 1.350 . S
C489 C488 1.434 . S
C490 C491 1.369 . S
C490 C492 1.419 . S
C490 H494 0.930 . S
C491 C490 1.369 . S
C491 C500 1.429 . S
C492 C490 1.419 . S
C492 C493 1.363 . S
C492 H495 0.929 . S
C493 C492 1.363 . S
C493 C499 1.428 . S
H494 C490 0.930 . S
H495 C492 0.929 . S
S496 N497 1.613 . S
S496 N498 1.610 . S
N497 S496 1.613 . S
N497 C500 1.350 . S
N498 S496 1.610 . S
N498 C499 1.351 . S
C499 C493 1.428 . S
C499 N498 1.351 . S
C499 C500 1.434 . S
C500 C491 1.429 . S
C500 N497 1.350 . S
C500 C499 1.434 . S
C501 C502 1.369 1_565 S
C501 C503 1.419 . S
C501 H505 0.930 . S
C502 C501 1.369 1_545 S
C502 C511 1.429 . S
C503 C501 1.419 . S
C503 C504 1.363 . S
C503 H506 0.929 . S
C504 C503 1.363 . S
C504 C510 1.428 1_565 S
H505 C501 0.930 . S
H506 C503 0.929 . S
S507 N508 1.613 . S
S507 N509 1.610 . S
N508 S507 1.613 . S
N508 C511 1.350 . S
N509 S507 1.610 . S
N509 C510 1.351 . S
C510 C504 1.428 1_545 S
C510 N509 1.351 . S
C510 C511 1.434 . S
C511 C502 1.429 . S
C511 N508 1.350 . S
C511 C510 1.434 . S
C512 C513 1.369 . S
C512 C514 1.419 1_556 S
C512 H516 0.930 . S
C513 C512 1.369 . S
C513 C522 1.429 . S
C514 C512 1.419 1_554 S
C514 C515 1.363 . S
C514 H517 0.929 . S
C515 C514 1.363 . S
C515 C521 1.428 . S
H516 C512 0.930 . S
H517 C514 0.929 . S
S518 N519 1.613 1_554 S
S518 N520 1.610 . S
N519 S518 1.613 1_556 S
N519 C522 1.350 . S
N520 S518 1.610 . S
N520 C521 1.351 . S
C521 C515 1.428 . S
C521 N520 1.351 . S
C521 C522 1.434 1_554 S
C522 C513 1.429 . S
C522 N519 1.350 . S
C522 C521 1.434 1_556 S
C523 C524 1.369 . S
C523 C525 1.419 . S
C523 H527 0.930 . S
C524 C523 1.369 . S
C524 C533 1.429 . S
C525 C523 1.419 . S
C525 C526 1.363 . S
C525 H528 0.929 . S
C526 C525 1.363 . S
C526 C532 1.428 . S
H527 C523 0.930 . S
H528 C525 0.929 . S
S529 N530 1.613 . S
S529 N531 1.610 . S
N530 S529 1.613 . S
N530 C533 1.350 . S
N531 S529 1.610 . S
N531 C532 1.351 . S
C532 C526 1.428 . S
C532 N531 1.351 . S
C532 C533 1.434 . S
C533 C524 1.429 . S
C533 N530 1.350 . S
C533 C532 1.434 . S
C534 C535 1.369 . S
C534 C536 1.419 1_554 S
C534 H538 0.930 . S
C535 C534 1.369 . S
C535 C544 1.429 . S
C536 C534 1.419 1_556 S
C536 C537 1.363 . S
C536 H539 0.929 . S
C537 C536 1.363 . S
C537 C543 1.428 . S
H538 C534 0.930 . S
H539 C536 0.929 . S
S540 N541 1.613 1_556 S
S540 N542 1.610 . S
N541 S540 1.613 1_554 S
N541 C544 1.350 . S
N542 S540 1.610 . S
N542 C543 1.351 . S
C543 C537 1.428 . S
C543 N542 1.351 . S
C543 C544 1.434 1_556 S
C544 C535 1.429 . S
C544 N541 1.350 . S
C544 C543 1.434 1_554 S
C545 C546 1.369 . S
C545 C547 1.419 . S
C545 H549 0.930 . S
C546 C545 1.369 . S
C546 C555 1.429 . S
C547 C545 1.419 . S
C547 C548 1.363 . S
C547 H550 0.929 . S
C548 C547 1.363 . S
C548 C554 1.428 . S
H549 C545 0.930 . S
H550 C547 0.929 . S
S551 N552 1.613 . S
S551 N553 1.610 . S
N552 S551 1.613 . S
N552 C555 1.350 . S
N553 S551 1.610 . S
N553 C554 1.351 . S
C554 C548 1.428 . S
C554 N553 1.351 . S
C554 C555 1.434 . S
C555 C546 1.429 . S
C555 N552 1.350 . S
C555 C554 1.434 . S
C556 C557 1.369 . S
C556 C558 1.419 1_554 S
C556 H560 0.930 . S
C557 C556 1.369 . S
C557 C566 1.429 1_554 S
C558 C556 1.419 1_556 S
C558 C559 1.363 . S
C558 H561 0.929 . S
C559 C558 1.363 . S
C559 C565 1.428 . S
H560 C556 0.930 . S
H561 C558 0.929 . S
S562 N563 1.613 . S
S562 N564 1.610 . S
N563 S562 1.613 . S
N563 C566 1.350 . S
N564 S562 1.610 . S
N564 C565 1.351 . S
C565 C559 1.428 . S
C565 N564 1.351 . S
C565 C566 1.434 . S
C566 C557 1.429 1_556 S
C566 N563 1.350 . S
C566 C565 1.434 . S
C567 C568 1.369 . S
C567 C569 1.419 . S
C567 H571 0.930 . S
C568 C567 1.369 . S
C568 C577 1.429 . S
C569 C567 1.419 . S
C569 C570 1.363 . S
C569 H572 0.929 . S
C570 C569 1.363 . S
C570 C576 1.428 . S
H571 C567 0.930 . S
H572 C569 0.929 . S
S573 N574 1.613 . S
S573 N575 1.610 . S
N574 S573 1.613 . S
N574 C577 1.350 . S
N575 S573 1.610 . S
N575 C576 1.351 . S
C576 C570 1.428 . S
C576 N575 1.351 . S
C576 C577 1.434 . S
C577 C568 1.429 . S
C577 N574 1.350 . S
C577 C576 1.434 . S
C578 C579 1.369 . S
C578 C580 1.419 1_556 S
C578 H582 0.930 . S
C579 C578 1.369 . S
C579 C588 1.429 1_556 S
C580 C578 1.419 1_554 S
C580 C581 1.363 . S
C580 H583 0.929 . S
C581 C580 1.363 . S
C581 C587 1.428 . S
H582 C578 0.930 . S
H583 C580 0.929 . S
S584 N585 1.613 . S
S584 N586 1.610 . S
N585 S584 1.613 . S
N585 C588 1.350 . S
N586 S584 1.610 . S
N586 C587 1.351 . S
C587 C581 1.428 . S
C587 N586 1.351 . S
C587 C588 1.434 . S
C588 C579 1.429 1_554 S
C588 N585 1.350 . S
C588 C587 1.434 . S
C589 C590 1.369 . S
C589 C591 1.419 . S
C589 H593 0.930 . S
C590 C589 1.369 . S
C590 C599 1.429 . S
C591 C589 1.419 . S
C591 C592 1.363 . S
C591 H594 0.929 . S
C592 C591 1.363 . S
C592 C598 1.428 . S
H593 C589 0.930 . S
H594 C591 0.929 . S
S595 N596 1.613 . S
S595 N597 1.610 . S
N596 S595 1.613 . S
N596 C599 1.350 . S
N597 S595 1.610 . S
N597 C598 1.351 . S
C598 C592 1.428 . S
C598 N597 1.351 . S
C598 C599 1.434 . S
C599 C590 1.429 . S
C599 N596 1.350 . S
C599 C598 1.434 . S
C600 C601 1.369 . S
C600 C602 1.419 . S
C600 H604 0.930 . S
C601 C600 1.369 . S
C601 C610 1.429 . S
C602 C600 1.419 . S
C602 C603 1.363 . S
C602 H605 0.929 . S
C603 C602 1.363 . S
C603 C609 1.428 . S
H604 C600 0.930 . S
H605 C602 0.929 . S
S606 N607 1.613 . S
S606 N608 1.610 . S
N607 S606 1.613 . S
N607 C610 1.350 . S
N608 S606 1.610 . S
N608 C609 1.351 . S
C609 C603 1.428 . S
C609 N608 1.351 . S
C609 C610 1.434 . S
C610 C601 1.429 . S
C610 N607 1.350 . S
C610 C609 1.434 . S
C611 C612 1.369 . S
C611 C613 1.419 . S
C611 H615 0.930 . S
C612 C611 1.369 . S
C612 C621 1.429 . S
C613 C611 1.419 . S
C613 C614 1.363 . S
C613 H616 0.929 . S
C614 C613 1.363 . S
C614 C620 1.428 . S
H615 C611 0.930 . S
H616 C613 0.929 . S
S617 N618 1.613 . S
S617 N619 1.610 . S
N618 S617 1.613 . S
N618 C621 1.350 . S
N619 S617 1.610 . S
N619 C620 1.351 . S
C620 C614 1.428 . S
C620 N619 1.351 . S
C620 C621 1.434 . S
C621 C612 1.429 . S
C621 N618 1.350 . S
C621 C620 1.434 . S
C622 C623 1.369 . S
C622 C624 1.419 . S
C622 H626 0.930 . S
C623 C622 1.369 . S
C623 C632 1.429 . S
C624 C622 1.419 . S
C624 C625 1.363 . S
C624 H627 0.929 . S
C625 C624 1.363 . S
C625 C631 1.428 . S
H626 C622 0.930 . S
H627 C624 0.929 . S
S628 N629 1.613 . S
S628 N630 1.610 . S
N629 S628 1.613 . S
N629 C632 1.350 . S
N630 S628 1.610 . S
N630 C631 1.351 . S
C631 C625 1.428 . S
C631 N630 1.351 . S
C631 C632 1.434 . S
C632 C623 1.429 . S
C632 N629 1.350 . S
C632 C631 1.434 . S
C633 C634 1.369 . S
C633 C635 1.419 . S
C633 H637 0.930 . S
C634 C633 1.369 . S
C634 C643 1.429 . S
C635 C633 1.419 . S
C635 C636 1.363 . S
C635 H638 0.929 . S
C636 C635 1.363 . S
C636 C642 1.428 . S
H637 C633 0.930 . S
H638 C635 0.929 . S
S639 N640 1.613 . S
S639 N641 1.610 . S
N640 S639 1.613 . S
N640 C643 1.350 . S
N641 S639 1.610 . S
N641 C642 1.351 . S
C642 C636 1.428 . S
C642 N641 1.351 . S
C642 C643 1.434 . S
C643 C634 1.429 . S
C643 N640 1.350 . S
C643 C642 1.434 . S
C644 C645 1.369 . S
C644 C646 1.419 . S
C644 H648 0.930 . S
C645 C644 1.369 . S
C645 C654 1.429 . S
C646 C644 1.419 . S
C646 C647 1.363 . S
C646 H649 0.929 . S
C647 C646 1.363 . S
C647 C653 1.428 . S
H648 C644 0.930 . S
H649 C646 0.929 . S
S650 N651 1.613 . S
S650 N652 1.610 . S
N651 S650 1.613 . S
N651 C654 1.350 . S
N652 S650 1.610 . S
N652 C653 1.351 . S
C653 C647 1.428 . S
C653 N652 1.351 . S
C653 C654 1.434 . S
C654 C645 1.429 . S
C654 N651 1.350 . S
C654 C653 1.434 . S
C655 C656 1.369 . S
C655 C657 1.419 . S
C655 H659 0.930 . S
C656 C655 1.369 . S
C656 C665 1.429 . S
C657 C655 1.419 . S
C657 C658 1.363 . S
C657 H660 0.929 . S
C658 C657 1.363 . S
C658 C664 1.428 . S
H659 C655 0.930 . S
H660 C657 0.929 . S
S661 N662 1.613 . S
S661 N663 1.610 . S
N662 S661 1.613 . S
N662 C665 1.350 . S
N663 S661 1.610 . S
N663 C664 1.351 . S
C664 C658 1.428 . S
C664 N663 1.351 . S
C664 C665 1.434 . S
C665 C656 1.429 . S
C665 N662 1.350 . S
C665 C664 1.434 . S
C666 C667 1.369 . S
C666 C668 1.419 . S
C666 H670 0.930 . S
C667 C666 1.369 . S
C667 C676 1.429 . S
C668 C666 1.419 . S
C668 C669 1.363 . S
C668 H671 0.929 . S
C669 C668 1.363 . S
C669 C675 1.428 . S
H670 C666 0.930 . S
H671 C668 0.929 . S
S672 N673 1.613 . S
S672 N674 1.610 . S
N673 S672 1.613 . S
N673 C676 1.350 . S
N674 S672 1.610 . S
N674 C675 1.351 . S
C675 C669 1.428 . S
C675 N674 1.351 . S
C675 C676 1.434 . S
C676 C667 1.429 . S
C676 N673 1.350 . S
C676 C675 1.434 . S
C677 C678 1.369 . S
C677 C679 1.419 . S
C677 H681 0.930 . S
C678 C677 1.369 . S
C678 C687 1.429 . S
C679 C677 1.419 . S
C679 C680 1.363 . S
C679 H682 0.929 . S
C680 C679 1.363 . S
C680 C686 1.428 . S
H681 C677 0.930 . S
H682 C679 0.929 . S
S683 N684 1.613 1_655 S
S683 N685 1.610 . S
N684 S683 1.613 1_455 S
N684 C687 1.350 . S
N685 S683 1.610 . S
N685 C686 1.351 1_655 S
C686 C680 1.428 . S
C686 N685 1.351 1_455 S
C686 C687 1.434 . S
C687 C678 1.429 . S
C687 N684 1.350 . S
C687 C686 1.434 . S
C425 C73 1.610 . S
C427 C162 1.651 . S
C438 C246 1.739 . S
C436 C84 1.731 . S
C449 C239 1.643 . S
C447 C51 1.607 . S
C458 C62 1.730 . S
C460 C155 1.750 . S
C471 C319 1.646 . S
C469 C29 1.584 . S
C482 C403 1.629 . S
C480 C38 1.522 . S
C491 C7 1.570 . S
C493 C396 1.644 . S
C502 C16 1.552 . S
C504 C312 1.613 . S
C515 C146 1.489 . S
C513 C18 1.675 . S
C526 C230 1.491 . S
C524 C5 1.390 . S
C537 C241 1.423 . S
C535 C40 1.669 . S
C548 C157 1.436 . S
C546 C27 1.422 . S
C559 C325 1.316 . S
C557 C60 1.363 . S
C568 C49 1.372 . S
C570 C409 1.358 . S
C581 C398 1.319 . S
C579 C82 1.355 . S
C590 C71 1.361 . S
C592 C314 1.336 . S
C603 C144 1.626 . S
C601 C8 1.599 . S
C614 C228 1.564 . S
C612 C19 1.557 . S
C623 C30 1.598 . S
C625 C235 1.604 . S
C636 C151 1.551 . S
C634 C41 1.546 . S
C647 C323 1.439 . S
C645 C52 1.438 . S
C656 C63 1.542 . S
C658 C407 1.540 . S
C667 C74 1.429 . S
C669 C414 1.394 . S
C678 C85 1.531 . S
C680 C330 1.488 . S
