# Generated by pormake.
# Topology ocu, (6,8)-cn, num edge types: 1
# Building blocks:
#     Node 0, Type 0, BuildingBlock: KUMJIN_clean_sbu_0, # of connection points: 6
#     Node 1, Type 0, BuildingBlock: KUMJIN_clean_sbu_0, # of connection points: 6
#     Node 2, Type 0, BuildingBlock: KUMJIN_clean_sbu_0, # of connection points: 6
#     Node 3, Type 0, BuildingBlock: KUMJIN_clean_sbu_0, # of connection points: 6
#     Node 4, Type 0, BuildingBlock: KUMJIN_clean_sbu_0, # of connection points: 6
#     Node 5, Type 0, BuildingBlock: KUMJIN_clean_sbu_0, # of connection points: 6
#     Node 6, Type 0, BuildingBlock: KUMJIN_clean_sbu_0, # of connection points: 6
#     Node 7, Type 0, BuildingBlock: KUMJIN_clean_sbu_0, # of connection points: 6
#     Node 8, Type 1, BuildingBlock: AJUNOK_clean_sbu_0, # of connection points: 8
#     Node 9, Type 1, BuildingBlock: AJUNOK_clean_sbu_0, # of connection points: 8
#     Node 10, Type 1, BuildingBlock: AJUNOK_clean_sbu_0, # of connection points: 8
#     Node 11, Type 1, BuildingBlock: AJUNOK_clean_sbu_0, # of connection points: 8
#     Node 12, Type 1, BuildingBlock: AJUNOK_clean_sbu_0, # of connection points: 8
#     Node 13, Type 1, BuildingBlock: AJUNOK_clean_sbu_0, # of connection points: 8
#     Edge 14, Type (0, 1), BuildingBlock: XIVTED_clean_linker_0, # of connection points: 2
#     Edge 15, Type (0, 1), BuildingBlock: XIVTED_clean_linker_0, # of connection points: 2
#     Edge 16, Type (0, 1), BuildingBlock: XIVTED_clean_linker_0, # of connection points: 2
#     Edge 17, Type (0, 1), BuildingBlock: XIVTED_clean_linker_0, # of connection points: 2
#     Edge 18, Type (0, 1), BuildingBlock: XIVTED_clean_linker_0, # of connection points: 2
#     Edge 19, Type (0, 1), BuildingBlock: XIVTED_clean_linker_0, # of connection points: 2
#     Edge 20, Type (0, 1), BuildingBlock: XIVTED_clean_linker_0, # of connection points: 2
#     Edge 21, Type (0, 1), BuildingBlock: XIVTED_clean_linker_0, # of connection points: 2
#     Edge 22, Type (0, 1), BuildingBlock: XIVTED_clean_linker_0, # of connection points: 2
#     Edge 23, Type (0, 1), BuildingBlock: XIVTED_clean_linker_0, # of connection points: 2
#     Edge 24, Type (0, 1), BuildingBlock: XIVTED_clean_linker_0, # of connection points: 2
#     Edge 25, Type (0, 1), BuildingBlock: XIVTED_clean_linker_0, # of connection points: 2
#     Edge 26, Type (0, 1), BuildingBlock: XIVTED_clean_linker_0, # of connection points: 2
#     Edge 27, Type (0, 1), BuildingBlock: XIVTED_clean_linker_0, # of connection points: 2
#     Edge 28, Type (0, 1), BuildingBlock: XIVTED_clean_linker_0, # of connection points: 2
#     Edge 29, Type (0, 1), BuildingBlock: XIVTED_clean_linker_0, # of connection points: 2
#     Edge 30, Type (0, 1), BuildingBlock: XIVTED_clean_linker_0, # of connection points: 2
#     Edge 31, Type (0, 1), BuildingBlock: XIVTED_clean_linker_0, # of connection points: 2
#     Edge 32, Type (0, 1), BuildingBlock: XIVTED_clean_linker_0, # of connection points: 2
#     Edge 33, Type (0, 1), BuildingBlock: XIVTED_clean_linker_0, # of connection points: 2
#     Edge 34, Type (0, 1), BuildingBlock: XIVTED_clean_linker_0, # of connection points: 2
#     Edge 35, Type (0, 1), BuildingBlock: XIVTED_clean_linker_0, # of connection points: 2
#     Edge 36, Type (0, 1), BuildingBlock: XIVTED_clean_linker_0, # of connection points: 2
#     Edge 37, Type (0, 1), BuildingBlock: XIVTED_clean_linker_0, # of connection points: 2
#     Edge 38, Type (0, 1), BuildingBlock: XIVTED_clean_linker_0, # of connection points: 2
#     Edge 39, Type (0, 1), BuildingBlock: XIVTED_clean_linker_0, # of connection points: 2
#     Edge 40, Type (0, 1), BuildingBlock: XIVTED_clean_linker_0, # of connection points: 2
#     Edge 41, Type (0, 1), BuildingBlock: XIVTED_clean_linker_0, # of connection points: 2
#     Edge 42, Type (0, 1), BuildingBlock: XIVTED_clean_linker_0, # of connection points: 2
#     Edge 43, Type (0, 1), BuildingBlock: XIVTED_clean_linker_0, # of connection points: 2
#     Edge 44, Type (0, 1), BuildingBlock: XIVTED_clean_linker_0, # of connection points: 2
#     Edge 45, Type (0, 1), BuildingBlock: XIVTED_clean_linker_0, # of connection points: 2
#     Edge 46, Type (0, 1), BuildingBlock: XIVTED_clean_linker_0, # of connection points: 2
#     Edge 47, Type (0, 1), BuildingBlock: XIVTED_clean_linker_0, # of connection points: 2
#     Edge 48, Type (0, 1), BuildingBlock: XIVTED_clean_linker_0, # of connection points: 2
#     Edge 49, Type (0, 1), BuildingBlock: XIVTED_clean_linker_0, # of connection points: 2
#     Edge 50, Type (0, 1), BuildingBlock: XIVTED_clean_linker_0, # of connection points: 2
#     Edge 51, Type (0, 1), BuildingBlock: XIVTED_clean_linker_0, # of connection points: 2
#     Edge 52, Type (0, 1), BuildingBlock: XIVTED_clean_linker_0, # of connection points: 2
#     Edge 53, Type (0, 1), BuildingBlock: XIVTED_clean_linker_0, # of connection points: 2
#     Edge 54, Type (0, 1), BuildingBlock: XIVTED_clean_linker_0, # of connection points: 2
#     Edge 55, Type (0, 1), BuildingBlock: XIVTED_clean_linker_0, # of connection points: 2
#     Edge 56, Type (0, 1), BuildingBlock: XIVTED_clean_linker_0, # of connection points: 2
#     Edge 57, Type (0, 1), BuildingBlock: XIVTED_clean_linker_0, # of connection points: 2
#     Edge 58, Type (0, 1), BuildingBlock: XIVTED_clean_linker_0, # of connection points: 2
#     Edge 59, Type (0, 1), BuildingBlock: XIVTED_clean_linker_0, # of connection points: 2
#     Edge 60, Type (0, 1), BuildingBlock: XIVTED_clean_linker_0, # of connection points: 2
#     Edge 61, Type (0, 1), BuildingBlock: XIVTED_clean_linker_0, # of connection points: 2
# Relax obj value: 0.159
# Max RMSD: 0.262
# Mean RMSD: 0.204
data_MOF--net-ocu--node1-KUMJIN_clean_sbu_0--node2-AJUNOK_clean_sbu_0--edge1-XIVTED_clean_linker_0
_symmetry_space_group_name_H-M    P1
_symmetry_Int_Tables_number       1
_symmetry_cell_setting            triclinic
loop_
_symmetry_equiv_pos_as_xyz
'x, y, z'
_cell_length_a     44.420733
_cell_length_b     43.671216
_cell_length_c     39.228966
_cell_angle_alpha  87.321431
_cell_angle_beta   104.96884
_cell_angle_gamma 115.90638
loop_
_atom_site_label
_atom_site_type_symbol
_atom_site_fract_x
_atom_site_fract_y
_atom_site_fract_z
_atom_type_partial_charge
Eu0 Eu 0.25705 0.22534 0.20934 0.0
C1 C 0.34076 0.31619 0.35011 0.0
C2 C 0.34101 0.27429 0.39273 0.0
C3 C 0.38836 0.33165 0.40348 0.0
C4 C 0.32543 0.28337 0.36035 0.0
C5 C 0.37188 0.34098 0.37202 0.0
C6 C 0.37298 0.29834 0.41378 0.0
C7 C 0.36617 0.3831 0.33201 0.0
N8 N 0.324 0.32448 0.31978 0.0
C9 C 0.3353 0.35764 0.31124 0.0
C10 C 0.38485 0.37464 0.36225 0.0
Eu11 Eu 0.2725 0.27991 0.28575 0.0
N12 N 0.29419 0.26099 0.33982 0.0
C13 C 0.27593 0.23002 0.35132 0.0
C14 C 0.32342 0.2417 0.40354 0.0
C15 C 0.2905 0.21967 0.38298 0.0
H16 H 0.32086 0.36435 0.288 0.0
H17 H 0.27629 0.19472 0.39151 0.0
H18 H 0.38551 0.29173 0.43858 0.0
H19 H 0.37549 0.40921 0.32471 0.0
H20 H 0.25039 0.21282 0.33579 0.0
H21 H 0.25509 0.31088 0.10372 0.0
H22 H 0.33456 0.2337 0.42818 0.0
H23 H 0.20712 0.14112 0.20737 0.0
H24 H 0.28018 0.29235 0.1597 0.0
H25 H 0.15218 0.09679 0.1705 0.0
H26 H 0.41249 0.35022 0.4205 0.0
H27 H 0.19684 0.27239 0.06659 0.0
H28 H 0.14538 0.21468 0.05583 0.0
H29 H 0.40867 0.39443 0.3784 0.0
H30 H 0.11747 0.1563 0.07386 0.0
N31 N 0.23591 0.24455 0.15525 0.0
C32 C 0.25463 0.27542 0.14391 0.0
C33 C 0.20762 0.26423 0.09131 0.0
C34 C 0.18957 0.23169 0.10198 0.0
C35 C 0.24054 0.28599 0.11213 0.0
C36 C 0.20471 0.2224 0.13446 0.0
H37 H 0.12007 0.11195 0.11627 0.0
N38 N 0.20533 0.18109 0.17501 0.0
C39 C 0.16211 0.12284 0.16302 0.0
C40 C 0.18896 0.1896 0.14459 0.0
C41 C 0.19319 0.14798 0.18384 0.0
C42 C 0.14404 0.13152 0.13247 0.0
C43 C 0.1577 0.1651 0.12257 0.0
O44 O 0.27721 0.1879 0.20773 0.0
O45 O 0.28445 0.23931 0.26711 0.0
O46 O 0.3247 0.29913 0.27474 0.0
O47 O 0.30606 0.27527 0.2166 0.0
O48 O 0.25591 0.18802 0.2512 0.0
O49 O 0.29008 0.22995 0.17457 0.0
O50 O 0.2499 0.31567 0.28523 0.0
O51 O 0.24503 0.2658 0.22797 0.0
O52 O 0.20523 0.2057 0.22114 0.0
O53 O 0.22474 0.22926 0.27944 0.0
O54 O 0.27456 0.31708 0.24358 0.0
O55 O 0.24114 0.27678 0.32207 0.0
C56 C 0.27735 0.20952 0.27761 0.0
C57 C 0.28793 0.17844 0.15442 0.0
C58 C 0.30685 0.1418 0.12923 0.0
C59 C 0.31257 0.16587 0.15584 0.0
C60 C 0.27658 0.13109 0.10106 0.0
C61 C 0.258 0.16729 0.12603 0.0
C62 C 0.25244 0.14379 0.09951 0.0
C63 C 0.3302 0.29561 0.24402 0.0
C64 C 0.29284 0.20194 0.18334 0.0
C65 C 0.14168 0.17466 0.09097 0.0
C66 C 0.15758 0.2079 0.08071 0.0
C67 C 0.25272 0.29558 0.21731 0.0
C68 C 0.24191 0.32886 0.3387 0.0
C69 C 0.21536 0.33818 0.33974 0.0
C70 C 0.22164 0.36373 0.36515 0.0
C71 C 0.25516 0.38045 0.38825 0.0
C72 C 0.27443 0.3451 0.36314 0.0
C73 C 0.2811 0.37099 0.3874 0.0
C74 C 0.20062 0.20837 0.25248 0.0
C75 C 0.23627 0.30336 0.31131 0.0
H76 H 0.33558 0.17411 0.17794 0.0
H77 H 0.27164 0.11293 0.08002 0.0
H78 H 0.23887 0.17666 0.12438 0.0
H79 H 0.22925 0.13526 0.07769 0.0
H80 H 0.18998 0.32529 0.32127 0.0
H81 H 0.2615 0.40104 0.40719 0.0
H82 H 0.29484 0.33798 0.3634 0.0
H83 H 0.30655 0.38382 0.40569 0.0
Eu84 Eu 0.79015 0.23306 0.23627 0.0
C85 C 0.71682 0.27304 0.33296 0.0
C86 C 0.65834 0.22772 0.32207 0.0
C87 C 0.6867 0.26002 0.37933 0.0
C88 C 0.68849 0.24714 0.31069 0.0
C89 C 0.71595 0.28037 0.36723 0.0
C90 C 0.65794 0.2337 0.35678 0.0
C91 C 0.77157 0.32928 0.37381 0.0
N92 N 0.7446 0.29222 0.32046 0.0
C93 C 0.77122 0.3209 0.33968 0.0
C94 C 0.74407 0.30858 0.3879 0.0
Eu95 Eu 0.7429 0.27628 0.26291 0.0
N96 N 0.68983 0.24192 0.27738 0.0
C97 C 0.66095 0.21928 0.25335 0.0
C98 C 0.62922 0.20344 0.29796 0.0
C99 C 0.63039 0.19956 0.2633 0.0
H100 H 0.79275 0.33667 0.32901 0.0
H101 H 0.6079 0.1811 0.24431 0.0
H102 H 0.63522 0.21869 0.36614 0.0
H103 H 0.79317 0.35147 0.38933 0.0
H104 H 0.66139 0.2156 0.22661 0.0
H105 H 0.92535 0.3306 0.26349 0.0
H106 H 0.60561 0.18793 0.30568 0.0
H107 H 0.74408 0.17615 0.16651 0.0
H108 H 0.87064 0.2938 0.2776 0.0
H109 H 0.7468 0.16601 0.10603 0.0
H110 H 0.6857 0.26498 0.40572 0.0
H111 H 0.93097 0.32785 0.20278 0.0
H112 H 0.90428 0.30085 0.14066 0.0
H113 H 0.74442 0.31506 0.41436 0.0
H114 H 0.85548 0.25645 0.09756 0.0
N115 N 0.84456 0.26981 0.22545 0.0
C116 C 0.8724 0.29169 0.25109 0.0
C117 C 0.90679 0.31121 0.20891 0.0
C118 C 0.87874 0.28788 0.18305 0.0
C119 C 0.90372 0.3128 0.24319 0.0
C120 C 0.84774 0.26694 0.19237 0.0
H121 H 0.79694 0.20566 0.0846 0.0
N122 N 0.79174 0.22132 0.1786 0.0
C123 C 0.76762 0.1876 0.12316 0.0
C124 C 0.82035 0.24211 0.16812 0.0
C125 C 0.7662 0.19333 0.15736 0.0
C126 C 0.79589 0.21012 0.11112 0.0
C127 C 0.82304 0.23741 0.13388 0.0
O128 O 0.78555 0.18161 0.23391 0.0
O129 O 0.75054 0.22952 0.26274 0.0
O130 O 0.77484 0.26591 0.31268 0.0
O131 O 0.81753 0.26175 0.2915 0.0
O132 O 0.73843 0.18601 0.23326 0.0
O133 O 0.82656 0.2195 0.27476 0.0
O134 O 0.74833 0.32817 0.26091 0.0
O135 O 0.7821 0.27944 0.23608 0.0
O136 O 0.7565 0.24222 0.18692 0.0
O137 O 0.71385 0.24538 0.20898 0.0
O138 O 0.79463 0.32312 0.26528 0.0
O139 O 0.70429 0.28743 0.22507 0.0
C140 C 0.72834 0.19912 0.25418 0.0
C141 C 0.79892 0.1629 0.29079 0.0
C142 C 0.81332 0.1462 0.35076 0.0
C143 C 0.82041 0.17029 0.32537 0.0
C144 C 0.78288 0.11516 0.34137 0.0
C145 C 0.76848 0.132 0.28216 0.0
C146 C 0.7604 0.1085 0.30751 0.0
C147 C 0.80572 0.26652 0.31773 0.0
C148 C 0.80907 0.18712 0.26382 0.0
C149 C 0.85311 0.25935 0.12389 0.0
C150 C 0.88092 0.28455 0.14845 0.0
C151 C 0.80444 0.30979 0.2443 0.0
C152 C 0.73012 0.34109 0.20227 0.0
C153 C 0.70461 0.33194 0.17009 0.0
C154 C 0.70866 0.35326 0.14203 0.0
C155 C 0.7403 0.38287 0.14596 0.0
C156 C 0.7617 0.37038 0.20547 0.0
C157 C 0.76682 0.39085 0.17719 0.0
C158 C 0.7252 0.24042 0.18246 0.0
C159 C 0.72273 0.32039 0.2324 0.0
H160 H 0.84316 0.19466 0.3321 0.0
H161 H 0.77683 0.09531 0.35955 0.0
H162 H 0.7511 0.12571 0.25575 0.0
H163 H 0.73717 0.08454 0.30057 0.0
H164 H 0.68114 0.30844 0.1675 0.0
H165 H 0.74442 0.4007 0.12561 0.0
H166 H 0.78223 0.3778 0.22986 0.0
H167 H 0.79099 0.41364 0.17993 0.0
Eu168 Eu 0.73684 0.74448 0.27555 0.0
C169 C 0.82025 0.82015 0.16734 0.0
C170 C 0.77431 0.81572 0.1157 0.0
C171 C 0.8318 0.86302 0.12447 0.0
C172 C 0.78607 0.80335 0.14773 0.0
C173 C 0.84379 0.84956 0.15537 0.0
C174 C 0.79709 0.84616 0.1047 0.0
C175 C 0.88997 0.84758 0.20277 0.0
N176 N 0.83114 0.80608 0.19661 0.0
C177 C 0.86563 0.81828 0.21343 0.0
C178 C 0.87893 0.86365 0.17395 0.0
Eu179 Eu 0.78874 0.75676 0.21319 0.0
N180 N 0.7651 0.77349 0.15854 0.0
C181 C 0.73297 0.75338 0.13724 0.0
C182 C 0.74046 0.79637 0.09497 0.0
C183 C 0.71989 0.76479 0.10553 0.0
H184 H 0.87429 0.80582 0.23561 0.0
H185 H 0.69402 0.74917 0.08922 0.0
H186 H 0.78843 0.85623 0.08033 0.0
H187 H 0.9172 0.85769 0.21672 0.0
H188 H 0.71699 0.72878 0.14499 0.0
H189 H 0.8294 0.75382 0.40177 0.0
H190 H 0.73039 0.80501 0.07022 0.0
H191 H 0.65247 0.69027 0.24677 0.0
H192 H 0.80802 0.77296 0.34457 0.0
H193 H 0.60959 0.63785 0.26477 0.0
H194 H 0.8494 0.88581 0.11503 0.0
H195 H 0.79187 0.69909 0.42171 0.0
H196 H 0.73389 0.64784 0.41103 0.0
H197 H 0.89785 0.88621 0.16557 0.0
H198 H 0.6741 0.61644 0.37396 0.0
N199 N 0.75932 0.72885 0.3313 0.0
C200 C 0.79142 0.74889 0.35269 0.0
C201 C 0.78241 0.70723 0.39636 0.0
C202 C 0.74887 0.68764 0.37508 0.0
C203 C 0.80365 0.73816 0.38524 0.0
C204 C 0.73788 0.69932 0.34226 0.0
H205 H 0.62743 0.61272 0.31964 0.0
N206 N 0.69422 0.69426 0.29059 0.0
C207 C 0.63616 0.64981 0.28086 0.0
C208 C 0.70426 0.68157 0.32138 0.0
C209 C 0.66051 0.67949 0.27072 0.0
C210 C 0.64635 0.63567 0.31181 0.0
C211 C 0.68065 0.65176 0.33273 0.0
O212 O 0.6962 0.76062 0.2734 0.0
O213 O 0.74783 0.76851 0.22555 0.0
O214 O 0.80873 0.80916 0.23962 0.0
O215 O 0.78655 0.79336 0.28903 0.0
O216 O 0.69658 0.73891 0.22422 0.0
O217 O 0.7434 0.78153 0.31583 0.0
O218 O 0.82643 0.7364 0.21589 0.0
O219 O 0.77871 0.73416 0.26381 0.0
O220 O 0.72381 0.69197 0.2547 0.0
O221 O 0.73831 0.70762 0.20162 0.0
O222 O 0.82979 0.76171 0.2638 0.0
O223 O 0.78258 0.72237 0.17031 0.0
C224 C 0.71699 0.75995 0.20688 0.0
C225 C 0.69232 0.77856 0.32722 0.0
C226 C 0.65776 0.79957 0.34971 0.0
C227 C 0.67902 0.80257 0.32736 0.0
C228 C 0.65061 0.77278 0.37226 0.0
C229 C 0.68485 0.75212 0.35002 0.0
C230 C 0.66418 0.74936 0.37247 0.0
C231 C 0.80635 0.81604 0.27102 0.0
C232 C 0.71287 0.78061 0.30239 0.0
C233 C 0.69179 0.63944 0.36488 0.0
C234 C 0.72583 0.65732 0.38599 0.0
C235 C 0.80956 0.74235 0.2823 0.0
C236 C 0.83413 0.72368 0.16196 0.0
C237 C 0.84507 0.69825 0.15911 0.0
C238 C 0.86711 0.70204 0.1373 0.0
C239 C 0.87869 0.732 0.11941 0.0
C240 C 0.84554 0.75286 0.14318 0.0
C241 C 0.86792 0.75709 0.12231 0.0
C242 C 0.7248 0.68425 0.22307 0.0
C243 C 0.81127 0.71992 0.18486 0.0
H244 H 0.68448 0.82292 0.30958 0.0
H245 H 0.63458 0.77007 0.38992 0.0
H246 H 0.69489 0.73357 0.3504 0.0
H247 H 0.65849 0.72888 0.38999 0.0
H248 H 0.83599 0.67544 0.17325 0.0
H249 H 0.89628 0.73613 0.10313 0.0
H250 H 0.83717 0.77241 0.14458 0.0
H251 H 0.87689 0.77988 0.1082 0.0
Eu252 Eu 0.28587 0.72828 0.2598 0.0
C253 C 0.23282 0.82666 0.17311 0.0
C254 C 0.28434 0.88074 0.18481 0.0
C255 C 0.23959 0.86885 0.12946 0.0
C256 C 0.26466 0.84816 0.195 0.0
C257 C 0.21945 0.83708 0.14051 0.0
C258 C 0.27203 0.89062 0.15154 0.0
C259 C 0.16605 0.78537 0.13381 0.0
N260 N 0.21397 0.7963 0.18464 0.0
C261 C 0.18056 0.77609 0.16624 0.0
C262 C 0.1858 0.81574 0.12058 0.0
Eu263 Eu 0.24012 0.78171 0.23902 0.0
N264 N 0.27541 0.83804 0.22717 0.0
C265 C 0.30422 0.86035 0.25158 0.0
C266 C 0.31518 0.90283 0.20882 0.0
C267 C 0.32485 0.89278 0.24258 0.0
H268 H 0.16541 0.75243 0.1763 0.0
H269 H 0.34823 0.90995 0.26167 0.0
H270 H 0.2869 0.91543 0.1431 0.0
H271 H 0.13979 0.76898 0.11894 0.0
H272 H 0.31219 0.85297 0.27773 0.0
H273 H 0.18022 0.59935 0.2457 0.0
H274 H 0.33111 0.92802 0.20196 0.0
H275 H 0.36304 0.76156 0.31941 0.0
H276 H 0.21345 0.65589 0.22644 0.0
H277 H 0.3924 0.74766 0.37615 0.0
H278 H 0.22992 0.8772 0.10434 0.0
H279 H 0.20206 0.58345 0.30509 0.0
H280 H 0.24975 0.59838 0.36154 0.0
H281 H 0.17454 0.82286 0.09542 0.0
H282 H 0.30768 0.63856 0.39688 0.0
N283 N 0.25302 0.67267 0.27505 0.0
C284 C 0.22328 0.64944 0.25249 0.0
C285 C 0.21666 0.60845 0.29686 0.0
C286 C 0.24836 0.63154 0.3189 0.0
C287 C 0.20431 0.61729 0.26329 0.0
C288 C 0.26624 0.66383 0.307 0.0
H289 H 0.36129 0.69403 0.40229 0.0
N290 N 0.31568 0.71657 0.31387 0.0
C291 C 0.366 0.73027 0.36267 0.0
C292 C 0.29868 0.68643 0.32696 0.0
C293 C 0.34929 0.73807 0.33054 0.0
C294 C 0.34829 0.70003 0.37738 0.0
C295 C 0.31438 0.67743 0.35929 0.0
O296 O 0.33275 0.73631 0.24547 0.0
O297 O 0.28529 0.77462 0.235 0.0
O298 O 0.23477 0.7581 0.18607 0.0
O299 O 0.24554 0.7118 0.20615 0.0
O300 O 0.3324 0.78007 0.26671 0.0
O301 O 0.28408 0.6924 0.22183 0.0
O302 O 0.19164 0.77298 0.25015 0.0
O303 O 0.24064 0.73544 0.26369 0.0
O304 O 0.2903 0.7503 0.31291 0.0
O305 O 0.27892 0.79651 0.2938 0.0
O306 O 0.19357 0.72994 0.23169 0.0
O307 O 0.23954 0.81604 0.27713 0.0
C308 C 0.31685 0.79537 0.24573 0.0
C309 C 0.33528 0.68705 0.22834 0.0
C310 C 0.35468 0.6537 0.20027 0.0
C311 C 0.33702 0.67374 0.19766 0.0
C312 C 0.37061 0.64687 0.23356 0.0
C313 C 0.35082 0.67994 0.26169 0.0
C314 C 0.36855 0.65994 0.26423 0.0
C315 C 0.23477 0.72842 0.18039 0.0
C316 C 0.31728 0.70836 0.2247 0.0
C317 C 0.29616 0.64586 0.37196 0.0
C318 C 0.26318 0.62298 0.35184 0.0
C319 C 0.20906 0.71474 0.25302 0.0
C320 C 0.18814 0.82202 0.2667 0.0
C321 C 0.18999 0.83998 0.2963 0.0
C322 C 0.17378 0.8616 0.29226 0.0
C323 C 0.15536 0.86481 0.2584 0.0
C324 C 0.16975 0.82539 0.23298 0.0
C325 C 0.15331 0.84665 0.22892 0.0
C326 C 0.28986 0.7796 0.31916 0.0
C327 C 0.20594 0.80031 0.27167 0.0
H328 H 0.32484 0.6791 0.17184 0.0
H329 H 0.3845 0.63144 0.23574 0.0
H330 H 0.34945 0.6899 0.28562 0.0
H331 H 0.38073 0.65464 0.28996 0.0
H332 H 0.2045 0.83758 0.32233 0.0
H333 H 0.14233 0.88115 0.25482 0.0
H334 H 0.16796 0.81165 0.20985 0.0
H335 H 0.13901 0.84908 0.20289 0.0
Eu336 Eu 0.28597 0.72989 0.73521 0.0
C337 C 0.19663 0.75983 0.81279 0.0
C338 C 0.13862 0.71385 0.7912 0.0
C339 C 0.15667 0.74107 0.85025 0.0
C340 C 0.17155 0.7355 0.78598 0.0
C341 C 0.18889 0.76338 0.84474 0.0
C342 C 0.1316 0.71643 0.82354 0.0
C343 C 0.24357 0.81371 0.86201 0.0
N344 N 0.22789 0.78103 0.8072 0.0
C345 C 0.25002 0.80931 0.83003 0.0
C346 C 0.21325 0.79014 0.86981 0.0
Eu347 Eu 0.23539 0.77316 0.751 0.0
N348 N 0.17911 0.73294 0.75498 0.0
C349 C 0.15461 0.70919 0.72838 0.0
C350 C 0.11362 0.68992 0.76386 0.0
C351 C 0.12165 0.68764 0.73235 0.0
H352 H 0.27357 0.8279 0.82419 0.0
H353 H 0.10266 0.66875 0.71126 0.0
H354 H 0.10668 0.69964 0.82806 0.0
H355 H 0.262 0.83529 0.88059 0.0
H356 H 0.16015 0.70533 0.70436 0.0
H357 H 0.42292 0.823 0.75877 0.0
H358 H 0.0882 0.6728 0.76699 0.0
H359 H 0.2383 0.66815 0.66762 0.0
H360 H 0.3685 0.79031 0.77443 0.0
H361 H 0.24147 0.65377 0.60907 0.0
H362 H 0.15056 0.74318 0.87479 0.0
H363 H 0.4269 0.8162 0.69822 0.0
H364 H 0.39864 0.78718 0.63746 0.0
H365 H 0.20824 0.79363 0.89461 0.0
H366 H 0.34894 0.74199 0.59634 0.0
N367 N 0.34033 0.76439 0.72322 0.0
C368 C 0.36913 0.78642 0.74792 0.0
C369 C 0.40263 0.80132 0.70498 0.0
C370 C 0.3736 0.77797 0.68005 0.0
C371 C 0.40049 0.80521 0.73917 0.0
C372 C 0.34246 0.7592 0.6901 0.0
H373 H 0.29087 0.69172 0.58586 0.0
N374 N 0.28512 0.71458 0.67733 0.0
C375 C 0.26192 0.67653 0.62477 0.0
C376 C 0.31413 0.73387 0.66656 0.0
C377 C 0.26035 0.68474 0.65805 0.0
C378 C 0.28975 0.6981 0.61172 0.0
C379 C 0.31672 0.72661 0.63296 0.0
O380 O 0.26851 0.67502 0.73207 0.0
O381 O 0.23546 0.72284 0.74549 0.0
O382 O 0.27418 0.77364 0.8028 0.0
O383 O 0.31574 0.76213 0.78727 0.0
O384 O 0.26345 0.70013 0.77831 0.0
O385 O 0.32268 0.70906 0.75719 0.0
O386 O 0.25387 0.82828 0.75758 0.0
O387 O 0.28579 0.77994 0.74133 0.0
O388 O 0.24851 0.73113 0.68327 0.0
O389 O 0.2093 0.7488 0.69521 0.0
O390 O 0.26008 0.80547 0.71001 0.0
O391 O 0.19903 0.79499 0.73446 0.0
C392 C 0.23567 0.70397 0.7709 0.0
C393 C 0.29631 0.65629 0.78203 0.0
C394 C 0.31936 0.64876 0.84355 0.0
C395 C 0.32171 0.6686 0.81436 0.0
C396 C 0.29046 0.61674 0.84039 0.0
C397 C 0.2677 0.62428 0.77938 0.0
C398 C 0.2647 0.6048 0.80856 0.0
C399 C 0.3042 0.77173 0.81078 0.0
C400 C 0.29828 0.67751 0.75164 0.0
C401 C 0.34682 0.74684 0.62226 0.0
C402 C 0.37518 0.77246 0.64573 0.0
C403 C 0.28717 0.80024 0.71717 0.0
C404 C 0.22327 0.84858 0.7109 0.0
C405 C 0.19484 0.83756 0.68089 0.0
C406 C 0.19384 0.85848 0.65285 0.0
C407 C 0.22243 0.89041 0.65456 0.0
C408 C 0.25155 0.88055 0.71222 0.0
C409 C 0.25118 0.90119 0.68401 0.0
C410 C 0.22058 0.73679 0.67341 0.0
C411 C 0.22359 0.82641 0.74035 0.0
H412 H 0.34345 0.6936 0.81684 0.0
H413 H 0.28824 0.6003 0.86206 0.0
H414 H 0.2475 0.61444 0.75482 0.0
H415 H 0.24264 0.58012 0.80633 0.0
H416 H 0.1733 0.81257 0.67928 0.0
H417 H 0.22227 0.90746 0.63365 0.0
H418 H 0.27394 0.88953 0.73498 0.0
H419 H 0.27302 0.92585 0.6852 0.0
Eu420 Eu 0.23845 0.24681 0.77644 0.0
C421 C 0.32362 0.32168 0.66857 0.0
C422 C 0.27901 0.31499 0.61468 0.0
C423 C 0.33606 0.36316 0.62444 0.0
C424 C 0.29002 0.30374 0.64777 0.0
C425 C 0.34726 0.35117 0.6568 0.0
C426 C 0.30199 0.34514 0.60345 0.0
C427 C 0.39203 0.35303 0.70831 0.0
N428 N 0.33378 0.30915 0.69943 0.0
C429 C 0.36767 0.32361 0.7188 0.0
C430 C 0.38169 0.36712 0.67738 0.0
Eu431 Eu 0.29131 0.25908 0.71491 0.0
N432 N 0.2687 0.2743 0.65898 0.0
C433 C 0.23675 0.2539 0.6376 0.0
C434 C 0.24555 0.29506 0.59341 0.0
C435 C 0.22448 0.26419 0.60478 0.0
H436 H 0.37589 0.3128 0.74265 0.0
H437 H 0.19883 0.24824 0.58823 0.0
H438 H 0.29392 0.35428 0.5782 0.0
H439 H 0.41873 0.36479 0.72406 0.0
H440 H 0.2204 0.22982 0.64596 0.0
H441 H 0.33126 0.25695 0.90272 0.0
H442 H 0.23608 0.30285 0.56785 0.0
H443 H 0.1539 0.19337 0.74875 0.0
H444 H 0.30943 0.276 0.84555 0.0
H445 H 0.11107 0.14111 0.76713 0.0
H446 H 0.35376 0.38592 0.61505 0.0
H447 H 0.29421 0.20194 0.9226 0.0
H448 H 0.23638 0.15044 0.91205 0.0
H449 H 0.40065 0.38982 0.66923 0.0
H450 H 0.17642 0.11906 0.87534 0.0
N451 N 0.26115 0.23145 0.83225 0.0
C452 C 0.29313 0.25176 0.85367 0.0
C453 C 0.2846 0.21002 0.89727 0.0
C454 C 0.25107 0.19025 0.87605 0.0
C455 C 0.30557 0.24111 0.88619 0.0
C456 C 0.2399 0.20185 0.84325 0.0
H457 H 0.12933 0.11564 0.82155 0.0
N458 N 0.19596 0.19683 0.79189 0.0
C459 C 0.13778 0.15285 0.78286 0.0
C460 C 0.20621 0.18408 0.82254 0.0
C461 C 0.16208 0.1824 0.77251 0.0
C462 C 0.14821 0.13851 0.81356 0.0
C463 C 0.18268 0.15437 0.83409 0.0
O464 O 0.19863 0.26433 0.77365 0.0
O465 O 0.24913 0.26915 0.72601 0.0
O466 O 0.30527 0.31199 0.73659 0.0
O467 O 0.28829 0.29589 0.78853 0.0
O468 O 0.19803 0.24134 0.72486 0.0
O469 O 0.24477 0.2832 0.81728 0.0
O470 O 0.33134 0.24162 0.71856 0.0
O471 O 0.28082 0.23658 0.76553 0.0
O472 O 0.22452 0.19422 0.75514 0.0
O473 O 0.24144 0.20931 0.70293 0.0
O474 O 0.33187 0.26581 0.76643 0.0
O475 O 0.28598 0.22296 0.67421 0.0
C476 C 0.21862 0.2612 0.70696 0.0
C477 C 0.19348 0.28096 0.82743 0.0
C478 C 0.15877 0.30199 0.84978 0.0
C479 C 0.18057 0.30527 0.82789 0.0
C480 C 0.15074 0.27457 0.87154 0.0
C481 C 0.18505 0.25391 0.84942 0.0
C482 C 0.16386 0.25084 0.87138 0.0
C483 C 0.30285 0.31939 0.76777 0.0
C484 C 0.21482 0.28337 0.80327 0.0
C485 C 0.19404 0.14201 0.86614 0.0
C486 C 0.22818 0.15988 0.88704 0.0
C487 C 0.31165 0.24551 0.78441 0.0
C488 C 0.33787 0.22533 0.66535 0.0
C489 C 0.34747 0.19896 0.66179 0.0
C490 C 0.36863 0.20178 0.63921 0.0
C491 C 0.38063 0.23165 0.62127 0.0
C492 C 0.34987 0.25445 0.64664 0.0
C493 C 0.37129 0.25765 0.62496 0.0
C494 C 0.22619 0.18629 0.72387 0.0
C495 C 0.31578 0.22268 0.68886 0.0
H496 H 0.1868 0.3261 0.81075 0.0
H497 H 0.13442 0.2716 0.88894 0.0
H498 H 0.19479 0.23515 0.84961 0.0
H499 H 0.15746 0.22988 0.88828 0.0
H500 H 0.33805 0.17622 0.67595 0.0
H501 H 0.39749 0.23501 0.60435 0.0
H502 H 0.34274 0.2748 0.6488 0.0
H503 H 0.38065 0.28038 0.61085 0.0
Eu504 Eu 0.78877 0.2257 0.75868 0.0
C505 C 0.74453 0.3319 0.67889 0.0
C506 C 0.79807 0.38395 0.69472 0.0
C507 C 0.75635 0.37657 0.63796 0.0
C508 C 0.77604 0.3512 0.70256 0.0
C509 C 0.7338 0.34474 0.64678 0.0
C510 C 0.78849 0.39612 0.66188 0.0
C511 C 0.67794 0.29553 0.63649 0.0
N512 N 0.72331 0.30149 0.68835 0.0
C513 C 0.68985 0.284 0.66865 0.0
C514 C 0.70024 0.32576 0.62517 0.0
Eu515 Eu 0.74556 0.28188 0.74144 0.0
N516 N 0.78416 0.33878 0.73416 0.0
C517 C 0.81258 0.35909 0.76032 0.0
C518 C 0.82843 0.40393 0.72057 0.0
C519 C 0.83536 0.39168 0.75375 0.0
H520 H 0.67266 0.26061 0.67751 0.0
H521 H 0.85838 0.40723 0.77423 0.0
H522 H 0.80523 0.42106 0.6552 0.0
H523 H 0.65165 0.28108 0.62048 0.0
H524 H 0.81863 0.35001 0.78601 0.0
H525 H 0.6786 0.099 0.73848 0.0
H526 H 0.8461 0.42918 0.71555 0.0
H527 H 0.86558 0.25274 0.81807 0.0
H528 H 0.71492 0.15564 0.72173 0.0
H529 H 0.89254 0.23545 0.87405 0.0
H530 H 0.74875 0.38672 0.61322 0.0
H531 H 0.69731 0.08032 0.79739 0.0
H532 H 0.74343 0.09186 0.85469 0.0
H533 H 0.69096 0.33473 0.60029 0.0
H534 H 0.80191 0.12893 0.89157 0.0
N535 N 0.75323 0.16976 0.77124 0.0
C536 C 0.72347 0.14795 0.74754 0.0
C537 C 0.7133 0.10535 0.79025 0.0
C538 C 0.74508 0.12686 0.81339 0.0
C539 C 0.70272 0.11575 0.75693 0.0
C540 C 0.76478 0.15926 0.80288 0.0
H541 H 0.85799 0.18225 0.8987 0.0
N542 N 0.81626 0.21018 0.81168 0.0
C543 C 0.86571 0.21971 0.86027 0.0
C544 C 0.79743 0.18011 0.82373 0.0
C545 C 0.8504 0.22942 0.82858 0.0
C546 C 0.84607 0.18975 0.87416 0.0
C547 C 0.81166 0.1692 0.85554 0.0
O548 O 0.83586 0.23228 0.74555 0.0
O549 O 0.78984 0.27352 0.73659 0.0
O550 O 0.73763 0.25869 0.68749 0.0
O551 O 0.7493 0.21207 0.70441 0.0
O552 O 0.83643 0.2767 0.76746 0.0
O553 O 0.78613 0.19194 0.71784 0.0
O554 O 0.69658 0.27144 0.75216 0.0
O555 O 0.74457 0.23417 0.76381 0.0
O556 O 0.79537 0.24718 0.81305 0.0
O557 O 0.78236 0.29315 0.797 0.0
O558 O 0.69812 0.23065 0.73185 0.0
O559 O 0.74341 0.31541 0.77934 0.0
C560 C 0.82163 0.29335 0.7478 0.0
C561 C 0.8349 0.18219 0.72529 0.0
C562 C 0.85171 0.14683 0.69642 0.0
C563 C 0.83911 0.17125 0.6947 0.0
C564 C 0.86066 0.13385 0.7289 0.0
C565 C 0.84383 0.16914 0.75768 0.0
C566 C 0.8569 0.14519 0.75948 0.0
C567 C 0.73731 0.22922 0.68025 0.0
C568 C 0.81963 0.20592 0.72254 0.0
C569 C 0.79157 0.13765 0.86702 0.0
C570 C 0.75828 0.11654 0.84601 0.0
C571 C 0.71276 0.21427 0.75248 0.0
C572 C 0.69045 0.31864 0.7691 0.0
C573 C 0.69268 0.33678 0.79869 0.0
C574 C 0.67379 0.35576 0.79533 0.0
C575 C 0.65265 0.35659 0.76212 0.0
C576 C 0.66899 0.31923 0.73605 0.0
C577 C 0.65025 0.33826 0.73261 0.0
C578 C 0.7942 0.27574 0.82091 0.0
C579 C 0.70986 0.2985 0.77377 0.0
H580 H 0.83174 0.18098 0.66952 0.0
H581 H 0.87056 0.11498 0.73054 0.0
H582 H 0.84049 0.17714 0.78144 0.0
H583 H 0.8638 0.13517 0.78451 0.0
H584 H 0.70912 0.33614 0.82429 0.0
H585 H 0.63752 0.37087 0.75919 0.0
H586 H 0.66627 0.30474 0.71305 0.0
H587 H 0.6336 0.33852 0.70712 0.0
Eu588 Eu 0.75489 0.72331 0.71241 0.0
C589 C 0.84125 0.8173 0.85073 0.0
C590 C 0.84312 0.77661 0.89437 0.0
C591 C 0.8902 0.83407 0.90296 0.0
C592 C 0.82658 0.78482 0.86199 0.0
C593 C 0.87279 0.84255 0.8715 0.0
C594 C 0.8754 0.80114 0.91435 0.0
C595 C 0.86589 0.88343 0.83033 0.0
N596 N 0.82358 0.82476 0.82046 0.0
C597 C 0.8346 0.85758 0.81077 0.0
C598 C 0.88534 0.8758 0.86058 0.0
Eu599 Eu 0.77164 0.77923 0.78815 0.0
N600 N 0.79509 0.76193 0.84241 0.0
C601 C 0.77748 0.73136 0.85496 0.0
C602 C 0.82618 0.74438 0.90624 0.0
C603 C 0.79297 0.72185 0.88669 0.0
H604 H 0.81956 0.86372 0.78759 0.0
H605 H 0.77927 0.69719 0.89607 0.0
H606 H 0.88867 0.7952 0.93913 0.0
H607 H 0.87492 0.90923 0.82213 0.0
H608 H 0.75171 0.71386 0.84015 0.0
H609 H 0.75115 0.80652 0.60469 0.0
H610 H 0.83805 0.73704 0.93093 0.0
H611 H 0.7056 0.63937 0.7125 0.0
H612 H 0.77686 0.78943 0.66119 0.0
H613 H 0.65087 0.59414 0.67645 0.0
H614 H 0.91465 0.85301 0.91911 0.0
H615 H 0.69308 0.76699 0.5681 0.0
H616 H 0.64216 0.70896 0.55846 0.0
H617 H 0.90948 0.89592 0.87581 0.0
H618 H 0.61494 0.65105 0.57786 0.0
N619 N 0.73318 0.74126 0.65766 0.0
C620 C 0.75141 0.77198 0.64571 0.0
C621 C 0.70414 0.75943 0.59308 0.0
C622 C 0.68654 0.72711 0.60444 0.0
C623 C 0.73695 0.78177 0.6136 0.0
C624 C 0.70203 0.71861 0.63723 0.0
H625 H 0.61825 0.60783 0.62153 0.0
N626 N 0.70332 0.6784 0.6789 0.0
C627 C 0.66054 0.61994 0.66827 0.0
C628 C 0.68666 0.6861 0.64812 0.0
C629 C 0.69151 0.64562 0.68862 0.0
C630 C 0.64217 0.62779 0.63733 0.0
C631 C 0.65545 0.66108 0.62659 0.0
O632 O 0.77412 0.68512 0.71068 0.0
O633 O 0.78328 0.73816 0.76997 0.0
O634 O 0.82291 0.79876 0.77529 0.0
O635 O 0.80294 0.77357 0.71761 0.0
O636 O 0.75353 0.68679 0.75518 0.0
O637 O 0.78909 0.72813 0.67894 0.0
O638 O 0.74887 0.81477 0.78804 0.0
O639 O 0.74358 0.76451 0.73057 0.0
O640 O 0.70301 0.70631 0.7238 0.0
O641 O 0.72372 0.7287 0.78255 0.0
O642 O 0.77225 0.81589 0.74564 0.0
O643 O 0.74106 0.77612 0.82522 0.0
C644 C 0.77592 0.70852 0.781 0.0
C645 C 0.78667 0.67676 0.658 0.0
C646 C 0.80652 0.64125 0.6322 0.0
C647 C 0.81156 0.66447 0.65938 0.0
C648 C 0.77671 0.63117 0.60354 0.0
C649 C 0.7572 0.66616 0.62913 0.0
C650 C 0.75234 0.64356 0.60206 0.0
C651 C 0.82718 0.79516 0.74401 0.0
C652 C 0.79094 0.69961 0.68724 0.0
C653 C 0.63911 0.66982 0.59463 0.0
C654 C 0.65461 0.7028 0.58359 0.0
C655 C 0.75069 0.7941 0.7195 0.0
C656 C 0.74134 0.82789 0.84183 0.0
C657 C 0.7148 0.8373 0.84245 0.0
C658 C 0.72054 0.86209 0.86838 0.0
C659 C 0.75343 0.87784 0.89273 0.0
C660 C 0.77353 0.84359 0.86694 0.0
C661 C 0.77958 0.86859 0.892 0.0
C662 C 0.69845 0.70984 0.75504 0.0
C663 C 0.73577 0.80249 0.81445 0.0
H664 H 0.83422 0.67229 0.68184 0.0
H665 H 0.77229 0.61374 0.58203 0.0
H666 H 0.7379 0.67531 0.62752 0.0
H667 H 0.72952 0.63549 0.57985 0.0
H668 H 0.68975 0.82503 0.82329 0.0
H669 H 0.75906 0.89754 0.91241 0.0
H670 H 0.79407 0.83661 0.86716 0.0
H671 H 0.80465 0.88083 0.91104 0.0
Cd672 Cd 0.97285 0.96247 0.52245 0.0
Cd673 Cd 0.06525 0.04865 0.47603 0.0
C674 C 0.01343 0.93301 0.49801 0.0
N675 N 0.97929 0.92151 0.49577 0.0
C676 C 0.96953 0.86381 0.48815 0.0
C677 C 1.00521 0.87527 0.49182 0.0
C678 C 0.02687 0.91039 0.49524 0.0
C679 C 0.95689 0.88777 0.49019 0.0
H680 H 0.03094 0.95954 0.5057 0.0
H681 H 0.93027 0.87933 0.49089 0.0
C682 C 0.99542 0.98941 0.44692 0.0
C683 C 1.00502 0.0675 0.4577 0.0
C684 C 0.98167 0.08008 0.45842 0.0
C685 C 0.98637 0.0988 0.48882 0.0
C686 C 0.01468 0.10467 0.51811 0.0
C687 C 0.03709 0.09042 0.51663 0.0
N688 N 0.03146 0.07202 0.4867 0.0
H689 H 1.00231 0.0546 0.43356 0.0
H690 H 0.05899 0.09429 0.53891 0.0
C691 C 0.07786 0.98548 0.46097 0.0
N692 N 0.09595 0.018 0.47582 0.0
C693 C 0.14964 0.01667 0.47887 0.0
C694 C 0.13134 0.98342 0.4624 0.0
C695 C 0.09506 0.96752 0.45426 0.0
C696 C 0.1312 0.03364 0.48551 0.0
H697 H 0.05004 0.97387 0.45261 0.0
H698 H 0.14487 0.05979 0.49672 0.0
C699 C 0.05638 0.01356 0.5632 0.0
C700 C 0.94109 0.91947 0.56901 0.0
N701 N 0.94694 0.99733 0.52114 0.0
C702 C 0.96707 0.02564 0.54364 0.0
C703 C 0.95268 0.0455 0.55281 0.0
C704 C 0.91718 0.0361 0.53851 0.0
C705 C 0.89722 0.00725 0.5142 0.0
C706 C 0.91274 0.98787 0.506 0.0
C707 C 0.09799 0.10089 0.43666 0.0
O708 O 1.00029 0.99574 0.47953 0.0
O709 O 0.01861 0.00806 0.43218 0.0
O710 O 0.05946 0.02556 0.53347 0.0
O711 O 0.02728 0.99141 0.56663 0.0
O712 O 0.92253 0.92024 0.53837 0.0
O713 O 0.97363 0.93841 0.57671 0.0
O714 O 0.11443 0.10126 0.46872 0.0
O715 O 0.0678 0.07703 0.4249 0.0
H716 H 0.99393 0.03162 0.55609 0.0
H717 H 0.89727 0.96444 0.48916 0.0
H718 H 0.95239 0.83682 0.48672 0.0
H719 H 0.05474 0.92026 0.50016 0.0
H720 H 0.96067 0.07608 0.43499 0.0
H721 H 0.01902 0.11959 0.54171 0.0
H722 H 0.1777 0.02979 0.48515 0.0
H723 H 0.07995 0.94228 0.44063 0.0
H724 H 0.96891 0.06695 0.57227 0.0
H725 H 0.86981 0.99929 0.50235 0.0
Cd726 Cd 0.51896 0.97148 0.05731 0.0
Cd727 Cd 0.50977 0.03526 0.93926 0.0
C728 C 0.58476 0.95646 0.10556 0.0
N729 N 0.55961 0.94587 0.07426 0.0
C730 C 0.57328 0.89918 0.0669 0.0
C731 C 0.59914 0.90907 0.09946 0.0
C732 C 0.60479 0.9386 0.11852 0.0
C733 C 0.5538 0.91772 0.05497 0.0
H734 H 0.58857 0.97821 0.12126 0.0
H735 H 0.53327 0.90895 0.03062 0.0
C736 C 0.46793 0.95743 0.96489 0.0
C737 C 0.44009 0.04769 0.8962 0.0
C738 C 0.42047 0.06597 0.88319 0.0
C739 C 0.4313 0.09934 0.89757 0.0
C740 C 0.46177 0.11259 0.92585 0.0
C741 C 0.48061 0.09352 0.93794 0.0
N742 N 0.4698 0.06162 0.92309 0.0
H743 H 0.43217 0.02277 0.88381 0.0
H744 H 0.50462 0.10474 0.95866 0.0
C745 C 0.51798 0.97755 0.89379 0.0
N746 N 0.53252 1.00001 0.92292 0.0
C747 C 0.58252 0.98913 0.93741 0.0
C748 C 0.56826 0.96548 0.9078 0.0
C749 C 0.53548 0.95986 0.88574 0.0
C750 C 0.5642 0.00604 0.94446 0.0
H751 H 0.49301 0.97358 0.87665 0.0
H752 H 0.57564 0.02464 0.9669 0.0
C753 C 0.56022 0.04995 0.03208 0.0
C754 C 0.47349 0.92865 0.09665 0.0
N755 N 0.49612 0.00654 0.07368 0.0
C756 C 0.51222 0.03161 0.10054 0.0
C757 C 0.49442 0.04862 0.10929 0.0
C758 C 0.45966 0.03937 0.09055 0.0
C759 C 0.44409 0.01366 0.06275 0.0
C760 C 0.4628 0.99759 0.05481 0.0
C761 C 0.55402 0.07828 0.89916 0.0
O762 O 0.49168 0.97133 0.99326 0.0
O763 O 0.46573 0.97542 0.93851 0.0
O764 O 0.53713 0.03591 0.00336 0.0
O765 O 0.56258 0.03185 0.05833 0.0
O766 O 0.46589 0.92258 0.06319 0.0
O767 O 0.50288 0.95302 0.11124 0.0
O768 O 0.56279 0.08354 0.93281 0.0
O769 O 0.52423 0.05435 0.88485 0.0
H770 H 0.53856 0.03796 0.11561 0.0
H771 H 0.45046 0.97733 0.03387 0.0
H772 H 0.5678 0.8771 0.05059 0.0
H773 H 0.62369 0.94731 0.14399 0.0
H774 H 0.39772 0.05439 0.86109 0.0
H775 H 0.4714 0.13773 0.93863 0.0
H776 H 0.60799 0.99511 0.95476 0.0
H777 H 0.52334 0.94181 0.86272 0.0
H778 H 0.50739 0.06802 0.13116 0.0
H779 H 0.4176 0.00591 0.04717 0.0
Cd780 Cd 0.01827 0.46971 0.05947 0.0
Cd781 Cd 1.00984 0.5324 0.93801 0.0
C782 C 0.08911 0.45909 0.09986 0.0
N783 N 0.05759 0.44296 0.07592 0.0
C784 C 0.06558 0.39166 0.07648 0.0
C785 C 0.09816 0.40743 0.10151 0.0
C786 C 0.10975 0.4419 0.11288 0.0
C787 C 0.04576 0.40977 0.06421 0.0
H788 H 0.09792 0.48513 0.10975 0.0
H789 H 0.0204 0.39696 0.04578 0.0
C790 C 0.96446 0.45726 0.96895 0.0
C791 C 0.93651 0.54096 0.90017 0.0
C792 C 0.91555 0.55788 0.88704 0.0
C793 C 0.92837 0.59334 0.89496 0.0
C794 C 0.96257 0.61037 0.91669 0.0
C795 C 0.98263 0.59251 0.92917 0.0
N796 N 0.96956 0.55834 0.9209 0.0
H797 H 0.92657 0.51405 0.8929 0.0
H798 H 1.00911 0.60625 0.94501 0.0
C799 C 1.0068 0.46969 0.88915 0.0
N800 N 0.02615 0.49371 0.91679 0.0
C801 C 0.07305 0.47843 0.92469 0.0
C802 C 0.05392 0.45338 0.89625 0.0
C803 C 0.02023 0.44912 0.87844 0.0
C804 C 0.05868 0.49833 0.93443 0.0
H805 H 0.98112 0.46667 0.87523 0.0
H806 H 0.07361 0.51775 0.95616 0.0
C807 C 0.06429 0.54433 0.02865 0.0
C808 C 0.97289 0.429 0.09992 0.0
N809 N 1.00194 0.50988 0.07696 0.0
C810 C 0.01634 0.52928 0.10829 0.0
C811 C 1.00191 0.54989 0.11678 0.0
C812 C 0.97252 0.55049 0.09277 0.0
C813 C 0.95838 0.53001 0.06082 0.0
C814 C 0.97346 0.5099 0.05352 0.0
C815 C 0.05718 0.57873 0.9026 0.0
O816 O 0.99058 0.46962 0.99569 0.0
O817 O 0.96327 0.47486 0.94205 0.0
O818 O 0.03843 0.53202 0.00158 0.0
O819 O 0.06519 0.52675 0.0556 0.0
O820 O 0.96447 0.42289 0.06638 0.0
O821 O 1.00289 0.45265 0.1141 0.0
O822 O 0.06366 0.58215 0.93624 0.0
O823 O 0.02843 0.55458 0.88613 0.0
H824 H 0.03858 0.52835 0.12688 0.0
H825 H 0.96181 0.49354 0.02933 0.0
H826 H 0.05529 0.36543 0.06629 0.0
H827 H 0.13416 0.45539 0.13257 0.0
H828 H 0.88982 0.54325 0.86994 0.0
H829 H 0.97398 0.63741 0.92423 0.0
H830 H 0.0988 0.48244 0.93969 0.0
H831 H 1.00458 0.43049 0.85609 0.0
H832 H 0.01377 0.56531 0.1417 0.0
H833 H 0.93531 0.52883 0.04181 0.0
Cd834 Cd 0.47171 0.47196 0.03129 0.0
Cd835 Cd 0.55084 0.52919 0.96243 0.0
C836 C 0.51404 0.43355 0.05218 0.0
N837 N 0.48709 0.43007 0.02424 0.0
C838 C 0.49404 0.3884 0.99434 0.0
C839 C 0.52386 0.39418 0.02157 0.0
C840 C 0.53312 0.41598 0.0513 0.0
C841 C 0.47556 0.40689 0.99635 0.0
H842 H 0.52149 0.45095 0.07476 0.0
H843 H 0.45297 0.40359 0.97543 0.0
C844 C 0.47828 0.4726 0.94575 0.0
C845 C 0.49269 0.55245 0.94491 0.0
C846 C 0.4738 0.57019 0.94618 0.0
C847 C 0.48584 0.59514 0.97389 0.0
C848 C 0.51672 0.60192 -0.00013 0.0
C849 C 0.53446 0.58271 -0.00196 0.0
N850 N 0.52177 0.5583 0.97105 0.0
H851 H 0.4846 0.53465 0.92249 0.0
H852 H 0.55857 0.58769 0.01755 0.0
C853 C 0.56339 0.46458 0.96006 0.0
N854 N 0.58057 0.4977 0.97308 0.0
C855 C 0.63531 0.49769 0.98048 0.0
C856 C 0.61834 0.46442 0.96411 0.0
C857 C 0.58193 0.44739 0.95493 0.0
C858 C 0.61566 0.5142 0.98432 0.0
H859 H 0.53542 0.45246 0.95087 0.0
H860 H 0.62827 0.54091 0.99362 0.0
C861 C 0.55933 0.52382 0.058 0.0
C862 C 0.44705 0.43725 0.08593 0.0
N863 N 0.44257 0.50399 0.02041 0.0
C864 C 0.46275 0.53562 0.03692 0.0
C865 C 0.44769 0.55555 0.04411 0.0
C866 C 0.41139 0.54272 0.03408 0.0
C867 C 0.39122 0.51055 0.01512 0.0
C868 C 0.40753 0.49118 0.00888 0.0
C869 C 0.57782 0.56853 0.91019 0.0
O870 O 0.48811 0.48255 0.97808 0.0
O871 O 0.49982 0.48545 0.92768 0.0
O872 O 0.56407 0.52862 0.02713 0.0
O873 O 0.52933 0.50931 0.06326 0.0
O874 O 0.43088 0.42519 0.0539 0.0
O875 O 0.47298 0.46657 0.09157 0.0
O876 O 0.59089 0.5808 0.94233 0.0
O877 O 0.55463 0.538 0.90395 0.0
H878 H 0.4904 0.54409 0.04719 0.0
H879 H 0.39228 0.4652 -0.0027 0.0
H880 H 0.4861 0.37101 0.97146 0.0
H881 H 0.5555 0.42007 0.0732 0.0
H882 H 0.45057 0.56523 0.92513 0.0
H883 H 0.52672 0.62154 0.02119 0.0
H884 H 0.66334 0.51159 0.98779 0.0
H885 H 0.56785 0.42197 0.94169 0.0
H886 H 0.4643 0.57972 0.05951 0.0
H887 H 0.36318 0.49982 0.00682 0.0
Cd888 Cd 0.0211 0.47379 0.55918 0.0
Cd889 Cd 1.00721 0.5323 0.43815 0.0
C890 C 0.09442 0.46336 0.59496 0.0
N891 N 0.06078 0.44703 0.57527 0.0
C892 C 0.06472 0.39349 0.57945 0.0
C893 C 0.09963 0.40936 0.59991 0.0
C894 C 0.1143 0.44514 0.60724 0.0
C895 C 0.04602 0.41267 0.56741 0.0
H896 H 0.1058 0.49051 0.60188 0.0
H897 H 0.01906 0.39974 0.5526 0.0
C898 C 0.9686 0.45441 0.46673 0.0
C899 C 0.93829 0.54423 0.39179 0.0
C900 C 0.9183 0.56207 0.37832 0.0
C901 C 0.9263 0.59376 0.39487 0.0
C902 C 0.95439 0.60576 0.42563 0.0
C903 C 0.97373 0.58719 0.4381 0.0
N904 N 0.96565 0.55693 0.42121 0.0
H905 H 0.93269 0.5208 0.37777 0.0
H906 H 0.99605 0.59764 0.46079 0.0
C907 C 0.0253 0.48961 0.38353 0.0
N908 N 0.02774 0.49612 0.41804 0.0
C909 C 0.06444 0.46809 0.43698 0.0
C910 C 0.06396 0.46233 0.40177 0.0
C911 C 0.04348 0.47298 0.37482 0.0
C912 C 0.04672 0.4855 0.44448 0.0
H913 H 1.01038 0.49841 0.3627 0.0
H914 H 0.04887 0.49128 0.47172 0.0
C915 C 0.05956 0.54973 0.52905 0.0
C916 C 0.9771 0.43152 0.5998 0.0
N917 N 0.99814 0.50896 0.57528 0.0
C918 C 0.01395 0.53369 0.60247 0.0
C919 C 0.99592 0.55041 0.61135 0.0
C920 C 0.96126 0.54133 0.5923 0.0
C921 C 0.94609 0.51611 0.56403 0.0
C922 C 0.96497 0.50023 0.55608 0.0
C923 C 0.05276 0.579 0.40157 0.0
O924 O 0.99135 0.46959 0.49527 0.0
O925 O 0.96563 0.4714 0.43961 0.0
O926 O 0.03452 0.53389 0.50224 0.0
O927 O 0.06394 0.53368 0.55659 0.0
O928 O 0.96881 0.42545 0.56629 0.0
O929 O 1.00659 0.45595 0.61402 0.0
O930 O 0.06225 0.57997 0.43528 0.0
O931 O 0.02195 0.55774 0.38608 0.0
H932 H 0.04018 0.53987 0.61778 0.0
H933 H 0.95283 0.48022 0.53489 0.0
H934 H 0.05115 0.36616 0.57346 0.0
H935 H 0.14096 0.45927 0.62241 0.0
H936 H 0.89759 0.55157 0.35426 0.0
H937 H 0.96181 0.62957 0.44007 0.0
H938 H 0.07873 0.45969 0.45892 0.0
H939 H 0.04235 0.46967 0.34729 0.0
H940 H 1.00863 0.56942 0.63358 0.0
H941 H 0.91974 0.50852 0.54813 0.0
Cd942 Cd 0.51761 0.96878 0.55474 0.0
Cd943 Cd 0.50999 0.03226 0.43299 0.0
C944 C 0.58925 0.95969 0.59784 0.0
N945 N 0.55812 0.94329 0.57335 0.0
C946 C 0.56689 0.89231 0.57506 0.0
C947 C 0.5991 0.90837 0.60059 0.0
C948 C 0.61007 0.94281 0.61167 0.0
C949 C 0.54688 0.91011 0.56198 0.0
H950 H 0.5976 0.9857 0.6075 0.0
H951 H 0.52182 0.89705 0.54314 0.0
C952 C 0.4654 0.95845 0.46538 0.0
C953 C 0.43722 0.04162 0.39553 0.0
C954 C 0.41635 0.05865 0.38268 0.0
C955 C 0.42934 0.0941 0.39075 0.0
C956 C 0.46363 0.11102 0.41232 0.0
C957 C 0.4836 0.09303 0.42452 0.0
N958 N 0.47035 0.05886 0.41612 0.0
H959 H 0.42713 0.01469 0.38822 0.0
H960 H 0.51013 0.10665 0.44029 0.0
C961 C 0.50758 0.96938 0.38536 0.0
N962 N 0.52583 0.9924 0.41399 0.0
C963 C 0.57214 0.97605 0.4244 0.0
C964 C 0.55428 0.95222 0.39483 0.0
C965 C 0.52138 0.94888 0.37531 0.0
C966 C 0.55747 0.99594 0.43339 0.0
H967 H 0.48268 0.96737 0.36998 0.0
H968 H 0.57162 0.01473 0.45575 0.0
C969 C 0.56379 0.04538 0.52532 0.0
C970 C 0.46825 0.92183 0.58759 0.0
N971 N 0.50047 0.00744 0.57508 0.0
C972 C 0.51397 0.02495 0.60747 0.0
C973 C 0.4996 0.04525 0.61694 0.0
C974 C 0.47106 0.0475 0.59289 0.0
C975 C 0.45779 0.02885 0.55981 0.0
C976 C 0.47289 0.00908 0.5515 0.0
C977 C 0.55625 0.0748 0.39409 0.0
O978 O 0.49276 0.97084 0.49082 0.0
O979 O 0.46317 0.97542 0.43813 0.0
O980 O 0.53958 0.03357 0.49683 0.0
O981 O 0.56348 0.02687 0.55166 0.0
O982 O 0.46277 0.91924 0.55401 0.0
O983 O 0.49692 0.94537 0.60508 0.0
O984 O 0.56335 0.08061 0.42753 0.0
O985 O 0.5271 0.05029 0.37913 0.0
H986 H 0.5356 0.02292 0.62609 0.0
H987 H 0.46209 0.99439 0.52626 0.0
H988 H 0.55704 0.8661 0.56507 0.0
H989 H 0.63415 0.95654 0.63172 0.0
H990 H 0.39054 0.04412 0.36569 0.0
H991 H 0.47515 0.13805 0.41996 0.0
H992 H 0.59721 0.97926 0.44067 0.0
H993 H 0.50677 0.9312 0.35205 0.0
H994 H 0.51094 0.05924 0.64267 0.0
H995 H 0.4354 0.02886 0.54057 0.0
H996 H 0.18672 0.14324 0.2653 0.0
H997 H 0.07155 0.13712 0.39213 0.0
H998 H 0.14831 0.21851 0.26377 0.0
H999 H 0.1572 0.11071 0.42125 0.0
H1000 H 0.08635 0.15643 0.33634 0.0
H1001 H 0.15726 0.11513 0.31074 0.0
C1002 C 0.17033 0.15259 0.27307 0.0
C1003 C 0.16984 0.18313 0.2613 0.0
C1004 C 0.10215 0.14688 0.35524 0.0
C1005 C 0.13775 0.15242 0.31358 0.0
C1006 C 0.09425 0.13664 0.38719 0.0
C1007 C 0.11383 0.12322 0.41131 0.0
C1008 C 0.12912 0.14267 0.34727 0.0
C1009 C 0.1422 0.12183 0.40356 0.0
C1010 C 0.15432 0.13712 0.2995 0.0
C1011 C 0.14902 0.19486 0.27246 0.0
N1012 N 0.14879 0.13103 0.3718 0.0
N1013 N 0.13423 0.17984 0.29875 0.0
H1014 H 0.80249 0.12116 0.41476 0.0
H1015 H 1.00084 0.16567 0.49676 0.0
H1016 H 0.88455 0.18398 0.36636 0.0
H1017 H 0.91696 0.06415 0.47451 0.0
H1018 H 0.9582 0.18889 0.47684 0.0
H1019 H 0.84639 0.11809 0.46528 0.0
C1020 C 0.82952 0.13495 0.41485 0.0
C1021 C 0.83941 0.15172 0.3853 0.0
C1022 C 0.94927 0.16162 0.47848 0.0
C1023 C 0.88946 0.15018 0.44411 0.0
C1024 C 0.97338 0.14845 0.48978 0.0
C1025 C 0.96201 0.11307 0.488 0.0
C1026 C 0.91394 0.13904 0.46645 0.0
C1027 C 0.92642 0.09152 0.47746 0.0
C1028 C 0.85447 0.13372 0.44407 0.0
C1029 C 0.87514 0.1705 0.38804 0.0
N1030 N 0.90354 0.10485 0.46691 0.0
N1031 N 0.89885 0.16872 0.4167 0.0
H1032 H 0.79519 0.84956 0.31922 0.0
H1033 H 0.99615 0.94133 0.40748 0.0
H1034 H 0.87268 0.85658 0.26795 0.0
H1035 H 0.92767 0.97357 0.4388 0.0
H1036 H 0.94755 0.90266 0.36085 0.0
H1037 H 0.84059 0.89287 0.36493 0.0
C1038 C 0.82168 0.86086 0.31713 0.0
C1039 C 0.83056 0.84892 0.29043 0.0
C1040 C 0.94305 0.9181 0.37796 0.0
C1041 C 0.88205 0.89732 0.34251 0.0
C1042 C 0.97056 0.93963 0.40481 0.0
C1043 C 0.96545 0.96037 0.4265 0.0
C1044 C 0.91049 0.91777 0.37272 0.0
C1045 C 0.9321 0.95746 0.42249 0.0
C1046 C 0.84745 0.88535 0.34322 0.0
C1047 C 0.86486 0.86468 0.28828 0.0
N1048 N 0.90558 0.93663 0.39555 0.0
N1049 N 0.88965 0.88765 0.31458 0.0
H1050 H 0.19311 0.92947 0.29958 0.0
H1051 H 0.12076 0.91692 0.46535 0.0
H1052 H 0.16035 0.8378 0.35501 0.0
H1053 H 0.18008 0.01244 0.42596 0.0
H1054 H 0.13882 0.88765 0.42893 0.0
H1055 H 0.192 0.96088 0.34863 0.0
C1056 C 0.18586 0.91609 0.32229 0.0
C1057 C 0.17624 0.88108 0.32321 0.0
C1058 C 0.14864 0.91513 0.429 0.0
C1059 C 0.17495 0.91659 0.37935 0.0
C1060 C 0.13836 0.93179 0.44974 0.0
C1061 C 0.14887 0.96704 0.44843 0.0
C1062 C 0.16924 0.93393 0.40665 0.0
C1063 C 0.17166 0.98527 0.42794 0.0
C1064 C 0.1855 0.934 0.35039 0.0
C1065 C 0.16771 0.86485 0.35339 0.0
N1066 N 0.18063 0.96838 0.40736 0.0
N1067 N 0.16672 0.88269 0.38017 0.0
H1068 H 0.1262 0.82352 0.65558 0.0
H1069 H 0.05602 0.87269 0.46681 0.0
H1070 H 0.18873 0.86873 0.5823 0.0
H1071 H 0.99491 0.82883 0.54126 0.0
H1072 H 0.09987 0.856 0.50133 0.0
H1073 H 0.07435 0.81085 0.60788 0.0
C1074 C 0.12912 0.83024 0.62931 0.0
C1075 C 0.16208 0.84769 0.62311 0.0
C1076 C 0.07629 0.84885 0.50944 0.0
C1077 C 0.10245 0.83398 0.56839 0.0
C1078 C 0.05109 0.85803 0.48949 0.0
C1079 C 0.02214 0.85252 0.50154 0.0
C1080 C 0.07233 0.83413 0.54154 0.0
C1081 C 0.01689 0.83359 0.53108 0.0
C1082 C 0.09935 0.82308 0.60204 0.0
C1083 C 0.16396 0.85609 0.58853 0.0
N1084 N 0.04227 0.82583 0.55066 0.0
N1085 N 0.13455 0.84964 0.56256 0.0
H1086 H 0.24301 0.15767 0.67643 0.0
H1087 H 0.05714 0.00797 0.63309 0.0
H1088 H 0.17389 0.1324 0.74382 0.0
H1089 H 0.12423 0.04467 0.56306 0.0
H1090 H 0.10746 0.03703 0.68341 0.0
H1091 H 0.20952 0.10066 0.64714 0.0
C1092 C 0.22074 0.14006 0.6851 0.0
C1093 C 0.20975 0.15032 0.71095 0.0
C1094 C 0.11124 0.03799 0.65711 0.0
C1095 C 0.17103 0.08537 0.67723 0.0
C1096 C 0.08258 0.02164 0.62841 0.0
C1097 C 0.08658 0.02543 0.59391 0.0
C1098 C 0.14374 0.05815 0.6509 0.0
C1099 C 0.11996 0.04242 0.5892 0.0
C1100 C 0.20184 0.10736 0.66865 0.0
C1101 C 0.18203 0.12595 0.72267 0.0
N1102 N 0.14724 0.05871 0.61739 0.0
N1103 N 0.16276 0.09474 0.70485 0.0
H1104 H 0.8933 0.18229 0.65403 0.0
H1105 H 0.85314 0.01014 0.55108 0.0
H1106 H 0.81672 0.08228 0.66657 0.0
H1107 H 0.94448 0.10508 0.55556 0.0
H1108 H 0.83053 0.04004 0.58025 0.0
H1109 H 0.90364 0.15773 0.60558 0.0
C1110 C 0.8783 0.15528 0.64601 0.0
C1111 C 0.85466 0.13391 0.66431 0.0
C1112 C 0.85529 0.05441 0.57433 0.0
C1113 C 0.86592 0.10597 0.6095 0.0
C1114 C 0.86811 0.03741 0.55736 0.0
C1115 C 0.90094 0.055 0.55109 0.0
C1116 C 0.87551 0.08918 0.58533 0.0
C1117 C 0.91933 0.0903 0.56043 0.0
C1118 C 0.88417 0.14131 0.61857 0.0
C1119 C 0.83559 0.09924 0.65323 0.0
N1120 N 0.90655 0.10618 0.57751 0.0
N1121 N 0.84184 0.08622 0.62665 0.0
H1122 H 0.87762 0.7846 0.72846 0.0
H1123 H 0.87981 0.90814 0.58143 0.0
H1124 H 0.84188 0.86092 0.73409 0.0
H1125 H 0.96891 0.88752 0.61878 0.0
H1126 H 0.86034 0.88358 0.63384 0.0
H1127 H 0.91084 0.81822 0.68764 0.0
C1128 C 0.87831 0.80933 0.72242 0.0
C1129 C 0.85754 0.82044 0.73455 0.0
C1130 C 0.88418 0.88457 0.63044 0.0
C1131 C 0.89308 0.85739 0.68684 0.0
C1132 C 0.89484 0.89788 0.6004 0.0
C1133 C 0.92587 0.89971 0.59622 0.0
C1134 C 0.90442 0.87251 0.65569 0.0
C1135 C 0.94486 0.88654 0.62149 0.0
C1136 C 0.89676 0.82818 0.69889 0.0
C1137 C 0.85813 0.85199 0.72545 0.0
N1138 N 0.93368 0.87318 0.65024 0.0
N1139 N 0.87487 0.86906 0.70113 0.0
H1140 H 0.29131 0.07473 0.12015 0.0
H1141 H 0.48112 0.10679 0.11186 0.0
H1142 H 0.37809 0.17471 0.14039 0.0
H1143 H 0.39131 0.00873 0.09155 0.0
H1144 H 0.44589 0.13232 0.12594 0.0
H1145 H 0.32955 0.05032 0.11364 0.0
C1146 C 0.31858 0.09154 0.12344 0.0
C1147 C 0.33142 0.12685 0.13036 0.0
C1148 C 0.434 0.10521 0.11846 0.0
C1149 C 0.37571 0.09899 0.12285 0.0
C1150 C 0.45413 0.09056 0.11057 0.0
C1151 C 0.43921 0.05552 0.10021 0.0
C1152 C 0.39871 0.08466 0.11612 0.0
C1153 C 0.40394 0.03592 0.09869 0.0
C1154 C 0.34047 0.07759 0.11972 0.0
C1155 C 0.36713 0.14734 0.13501 0.0
N1156 N 0.38502 0.05074 0.10643 0.0
N1157 N 0.38803 0.13315 0.13081 0.0
H1158 H 0.79257 0.30175 0.17286 0.0
H1159 H 0.98365 0.43908 0.17114 0.0
H1160 H 0.86722 0.36599 0.26497 0.0
H1161 H 0.90562 0.37958 0.07782 0.0
H1162 H 0.94143 0.41326 0.20578 0.0
H1163 H 0.83262 0.33201 0.13721 0.0
C1164 C 0.81758 0.32211 0.18565 0.0
C1165 C 0.82741 0.33027 0.22223 0.0
C1166 C 0.93349 0.40588 0.17773 0.0
C1167 C 0.87323 0.36574 0.18137 0.0
C1168 C 0.95766 0.42043 0.15793 0.0
C1169 C 0.94817 0.41144 0.12147 0.0
C1170 C 0.8995 0.38214 0.16102 0.0
C1171 C 0.91411 0.38721 0.10585 0.0
C1172 C 0.84034 0.33968 0.16517 0.0
C1173 C 0.85921 0.35831 0.23699 0.0
N1174 N 0.89102 0.37341 0.12571 0.0
N1175 N 0.88135 0.3747 0.21661 0.0
H1176 H 0.65537 0.74174 0.15821 0.0
H1177 H 0.66656 0.93065 0.14308 0.0
H1178 H 0.74831 0.83115 0.20757 0.0
H1179 H 0.57796 0.83931 0.08921 0.0
H1180 H 0.69738 0.89612 0.16639 0.0
H1181 H 0.6283 0.7782 0.13105 0.0
C1182 C 0.6704 0.76919 0.16273 0.0
C1183 C 0.70438 0.78322 0.1849 0.0
C1184 C 0.67128 0.88371 0.14925 0.0
C1185 C 0.67285 0.82575 0.15447 0.0
C1186 C 0.65334 0.90344 0.13603 0.0
C1187 C 0.61917 0.88835 0.1137 0.0
C1188 C 0.65522 0.84831 0.14032 0.0
C1189 C 0.60425 0.85276 0.10555 0.0
C1190 C 0.65477 0.7901 0.14739 0.0
C1191 C 0.7223 0.8191 0.19021 0.0
N1192 N 0.62219 0.83425 0.11879 0.0
N1193 N 0.70625 0.83905 0.17543 0.0
H1194 H 0.19227 0.74118 0.12195 0.0
H1195 H 0.13091 0.55518 0.04003 0.0
H1196 H 0.24202 0.6754 0.15544 0.0
H1197 H 0.06612 0.60751 0.02033 0.0
H1198 H 0.1816 0.60919 0.06308 0.0
H1199 H 0.15614 0.70252 0.06891 0.0
C1200 C 0.1958 0.71885 0.1182 0.0
C1201 C 0.21869 0.71051 0.14441 0.0
C1202 C 0.15649 0.60918 0.05287 0.0
C1203 C 0.1787 0.66696 0.08298 0.0
C1204 C 0.12765 0.57839 0.03949 0.0
C1205 C 0.09447 0.57704 0.02909 0.0
C1206 C 0.15185 0.63849 0.05699 0.0
C1207 C 0.09142 0.60767 0.02859 0.0
C1208 C 0.17543 0.69695 0.08764 0.0
C1209 C 0.22362 0.68218 0.13687 0.0
N1210 N 0.1197 0.63717 0.04347 0.0
N1211 N 0.20344 0.66122 0.10721 0.0
H1212 H 0.37418 0.78977 0.8344 0.0
H1213 H 0.48059 0.90173 0.97638 0.0
H1214 H 0.28774 0.7815 0.87113 0.0
H1215 H 0.39776 0.93197 0.94479 0.0
H1216 H 0.43922 0.84318 0.95167 0.0
H1217 H 0.41371 0.82507 0.88809 0.0
C1218 C 0.36335 0.7951 0.85379 0.0
C1219 C 0.32758 0.78497 0.84684 0.0
C1220 C 0.42998 0.86245 0.95123 0.0
C1221 C 0.37277 0.82503 0.90874 0.0
C1222 C 0.45342 0.89565 0.96555 0.0
C1223 C 0.44243 0.9215 0.9619 0.0
C1224 C 0.39554 0.85542 0.93364 0.0
C1225 C 0.40714 0.91264 0.94753 0.0
C1226 C 0.38602 0.81497 0.88479 0.0
C1227 C 0.31522 0.79137 0.87394 0.0
N1228 N 0.38493 0.88034 0.93351 0.0
N1229 N 0.33779 0.81219 0.90309 0.0
H1230 H 0.19161 0.37246 0.8572 0.0
H1231 H 0.02053 0.38551 0.87212 0.0
H1232 H 0.09124 0.2866 0.84399 0.0
H1233 H 0.12193 0.4716 0.89646 0.0
H1234 H 0.04568 0.35034 0.85636 0.0
H1235 H 0.16623 0.41067 0.8659 0.0
C1236 C 0.16417 0.36174 0.8556 0.0
C1237 C 0.14355 0.32628 0.85023 0.0
C1238 C 0.06247 0.37696 0.86509 0.0
C1239 C 0.11444 0.3696 0.86033 0.0
C1240 C 0.04802 0.39721 0.87388 0.0
C1241 C 0.06898 0.43175 0.88571 0.0
C1242 C 0.09827 0.39114 0.86807 0.0
C1243 C 0.10469 0.44504 0.888 0.0
C1244 C 0.14976 0.38348 0.86084 0.0
C1245 C 0.10818 0.31372 0.84857 0.0
N1246 N 0.11818 0.42475 0.87935 0.0
N1247 N 0.09485 0.33526 0.85376 0.0
H1248 H 0.7331 0.20502 0.82295 0.0
H1249 H 0.5395 0.07629 0.82722 0.0
H1250 H 0.64629 0.1658 0.73029 0.0
H1251 H 0.62337 0.12253 0.92144 0.0
H1252 H 0.57979 0.10458 0.79122 0.0
H1253 H 0.69542 0.16916 0.85905 0.0
C1254 C 0.70627 0.18834 0.81011 0.0
C1255 C 0.69266 0.18839 0.77362 0.0
C1256 C 0.58947 0.10859 0.81976 0.0
C1257 C 0.64926 0.14803 0.8148 0.0
C1258 C 0.56641 0.09255 0.84036 0.0
C1259 C 0.57804 0.09725 0.87741 0.0
C1260 C 0.62454 0.12949 0.83622 0.0
C1261 C 0.61325 0.11848 0.89295 0.0
C1262 C 0.68469 0.1681 0.83077 0.0
C1263 C 0.65766 0.16657 0.7584 0.0
N1264 N 0.63529 0.13383 0.87226 0.0
N1265 N 0.63709 0.14745 0.77908 0.0
H1266 H 0.84845 0.7421 0.8059 0.0
H1267 H 0.85677 0.56915 0.87858 0.0
H1268 H 0.7597 0.6481 0.81006 0.0
H1269 H 0.94919 0.66134 0.87821 0.0
H1270 H 0.82191 0.59926 0.85481 0.0
H1271 H 0.88669 0.71565 0.83533 0.0
C1272 C 0.83701 0.71628 0.81378 0.0
C1273 C 0.80066 0.69741 0.8057 0.0
C1274 C 0.84985 0.61308 0.86004 0.0
C1275 C 0.84426 0.66659 0.83851 0.0
C1276 C 0.87 0.59564 0.87344 0.0
C1277 C 0.90647 0.61224 0.88064 0.0
C1278 C 0.8658 0.6478 0.85359 0.0
C1279 C 0.9214 0.64715 0.87379 0.0
C1280 C 0.85885 0.70101 0.83022 0.0
C1281 C 0.78747 0.66376 0.81591 0.0
N1282 N 0.90115 0.66359 0.86068 0.0
N1283 N 0.80902 0.64953 0.83138 0.0
H1284 H 0.2701 0.35623 0.18897 0.0
H1285 H 0.07626 0.33814 0.11242 0.0
H1286 H 0.18031 0.26223 0.19038 0.0
H1287 H 0.16978 0.4322 0.12361 0.0
H1288 H 0.11202 0.30819 0.13573 0.0
H1289 H 0.23227 0.38182 0.15944 0.0
C1290 C 0.24226 0.34065 0.18228 0.0
C1291 C 0.22856 0.3069 0.19203 0.0
C1292 C 0.12464 0.33538 0.13306 0.0
C1293 C 0.18436 0.33663 0.15841 0.0
C1294 C 0.10421 0.35266 0.11945 0.0
C1295 C 0.11964 0.38819 0.11577 0.0
C1296 C 0.16103 0.35349 0.14312 0.0
C1297 C 0.1562 0.40513 0.1262 0.0
C1298 C 0.22056 0.35545 0.16564 0.0
C1299 C 0.19214 0.28819 0.183 0.0
N1300 N 0.17535 0.38776 0.13923 0.0
N1301 N 0.17132 0.30335 0.16693 0.0
H1302 H 0.24225 0.71725 0.84016 0.0
H1303 H 0.04853 0.57812 0.83121 0.0
H1304 H 0.17182 0.65135 0.7475 0.0
H1305 H 0.12401 0.62785 0.92979 0.0
H1306 H 0.09216 0.60944 0.79958 0.0
H1307 H 0.1988 0.68811 0.87338 0.0
C1308 C 0.21736 0.6969 0.82679 0.0
C1309 C 0.20943 0.68796 0.79061 0.0
C1310 C 0.09926 0.61352 0.82813 0.0
C1311 C 0.16048 0.65363 0.82848 0.0
C1312 C 0.07428 0.59577 0.84624 0.0
C1313 C 0.08271 0.60017 0.88327 0.0
C1314 C 0.13306 0.63583 0.8471 0.0
C1315 C 0.11645 0.62361 0.90124 0.0
C1316 C 0.19275 0.68013 0.84575 0.0
C1317 C 0.1779 0.66017 0.77488 0.0
N1318 N 0.14048 0.64049 0.88298 0.0
N1319 N 0.15436 0.6442 0.79379 0.0
H1320 H 0.27768 0.17524 0.7915 0.0
H1321 H 0.45721 0.16977 0.89565 0.0
H1322 H 0.37602 0.26356 0.82739 0.0
H1323 H 0.36066 0.07817 0.8645 0.0
H1324 H 0.42627 0.20357 0.87243 0.0
H1325 H 0.30528 0.13881 0.81997 0.0
C1326 C 0.30479 0.1871 0.80604 0.0
C1327 C 0.32444 0.22275 0.80724 0.0
C1328 C 0.41168 0.17607 0.87068 0.0
C1329 C 0.35653 0.181 0.83921 0.0
C1330 C 0.42945 0.15648 0.88436 0.0
C1331 C 0.41192 0.12054 0.88273 0.0
C1332 C 0.37573 0.16011 0.85471 0.0
C1333 C 0.37579 0.10557 0.86638 0.0
C1334 C 0.32068 0.16622 0.82199 0.0
C1335 C 0.35971 0.23636 0.82592 0.0
N1336 N 0.35905 0.12527 0.85311 0.0
N1337 N 0.37447 0.21566 0.84079 0.0
H1338 H 0.77728 0.31794 0.85271 0.0
H1339 H 0.96288 0.39496 0.98436 0.0
H1340 H 0.84488 0.26863 0.87389 0.0
H1341 H 0.89733 0.44605 0.95283 0.0
H1342 H 0.91197 0.33999 0.96313 0.0
H1343 H 0.81134 0.35429 0.90724 0.0
C1344 C 0.79911 0.31444 0.86903 0.0
C1345 C 0.8093 0.29128 0.85777 0.0
C1346 C 0.90851 0.36311 0.96195 0.0
C1347 C 0.84892 0.33337 0.92 0.0
C1348 C 0.93751 0.3944 0.97426 0.0
C1349 C 0.93415 0.42484 0.96921 0.0
C1350 C 0.87634 0.36273 0.94461 0.0
C1351 C 0.90092 0.423 0.95624 0.0
C1352 C 0.81851 0.33515 0.90031 0.0
C1353 C 0.83687 0.28691 0.88077 0.0
N1354 N 0.87338 0.39252 0.94375 0.0
N1355 N 0.85644 0.3085 0.91029 0.0
H1356 H 0.67412 0.87587 0.8153 0.0
H1357 H 0.6082 0.94152 0.95587 0.0
H1358 H 0.70407 0.87059 0.92832 0.0
H1359 H 0.57279 0.94685 0.84337 0.0
H1360 H 0.64213 0.914 0.94473 0.0
H1361 H 0.63432 0.89877 0.8232 0.0
C1362 C 0.67205 0.87912 0.84166 0.0
C1363 C 0.69292 0.87179 0.87126 0.0
C1364 C 0.62686 0.92098 0.92233 0.0
C1365 C 0.64784 0.89819 0.8805 0.0
C1366 C 0.60758 0.93704 0.92873 0.0
C1367 C 0.58768 0.94694 0.90058 0.0
C1368 C 0.62636 0.91437 0.88744 0.0
C1369 C 0.58748 0.9395 0.86594 0.0
C1370 C 0.64953 0.89241 0.84618 0.0
C1371 C 0.68914 0.87655 0.90479 0.0
N1372 N 0.60664 0.92381 0.86034 0.0
N1373 N 0.66739 0.8896 0.90845 0.0
H1374 H 0.89035 0.66486 0.18734 0.0
H1375 H 0.94468 0.58593 0.04634 0.0
H1376 H 0.86898 0.67818 0.07541 0.0
H1377 H 0.96357 0.56484 0.15646 0.0
H1378 H 0.91595 0.61899 0.0577 0.0
H1379 H 0.91514 0.62637 0.1777 0.0
C1380 C 0.8905 0.65941 0.16075 0.0
C1381 C 0.87813 0.67526 0.13221 0.0
C1382 C 0.92628 0.60716 0.0795 0.0
C1383 C 0.90666 0.63174 0.1211 0.0
C1384 C 0.94263 0.58804 0.07296 0.0
C1385 C 0.95642 0.57219 0.10039 0.0
C1386 C 0.92367 0.6109 0.11384 0.0
C1387 C 0.95361 0.57678 0.13453 0.0
C1388 C 0.90486 0.63767 0.15531 0.0
C1389 C 0.87895 0.66724 0.09833 0.0
N1390 N 0.93754 0.5957 0.1403 0.0
N1391 N 0.89316 0.64636 0.09382 0.0
H1392 H 0.38071 0.84812 0.26818 0.0
H1393 H 0.40617 0.87922 0.07341 0.0
H1394 H 0.29728 0.80057 0.17418 0.0
H1395 H 0.48358 0.93721 0.16778 0.0
H1396 H 0.36493 0.85153 0.10916 0.0
H1397 H 0.41735 0.88411 0.23135 0.0
C1398 C 0.37 0.84571 0.23975 0.0
C1399 C 0.33609 0.82138 0.22414 0.0
C1400 C 0.39092 0.87041 0.12197 0.0
C1401 C 0.37806 0.8615 0.18165 0.0
C1402 C 0.41454 0.88599 0.10163 0.0
C1403 C 0.44851 0.91026 0.11768 0.0
C1404 C 0.40142 0.87909 0.15861 0.0
C1405 C 0.4578 0.9184 0.15428 0.0
C1406 C 0.3909 0.86612 0.21869 0.0
C1407 C 0.32331 0.81914 0.18722 0.0
N1408 N 0.43448 0.90277 0.17347 0.0
N1409 N 0.3445 0.83861 0.16714 0.0
H1410 H 0.73967 0.23771 0.11904 0.0
H1411 H 0.63 0.07713 0.04223 0.0
H1412 H 0.65392 0.21238 0.16468 0.0
H1413 H 0.54601 0.10419 0.0325 0.0
H1414 H 0.67146 0.13568 0.06548 0.0
H1415 H 0.69962 0.19867 0.06722 0.0
C1416 C 0.71236 0.22426 0.11802 0.0
C1417 C 0.70042 0.22653 0.14725 0.0
C1418 C 0.64406 0.12929 0.05689 0.0
C1419 C 0.65455 0.18311 0.08771 0.0
C1420 C 0.62048 0.09589 0.04377 0.0
C1421 C 0.58481 0.08619 0.03551 0.0
C1422 C 0.63164 0.15257 0.06301 0.0
C1423 C 0.57347 0.11102 0.03848 0.0
C1424 C 0.68959 0.20223 0.08836 0.0
C1425 C 0.66453 0.21036 0.14348 0.0
N1426 N 0.59682 0.1429 0.05316 0.0
N1427 N 0.64289 0.18875 0.11453 0.0
H1428 H 0.66678 0.73247 0.79016 0.0
H1429 H 0.56283 0.54553 0.84183 0.0
H1430 H 0.65433 0.64217 0.73643 0.0
H1431 H 0.61146 0.63784 0.91094 0.0
H1432 H 0.57668 0.57998 0.79216 0.0
H1433 H 0.62343 0.69674 0.82045 0.0
C1434 C 0.65397 0.70508 0.7839 0.0
C1435 C 0.66468 0.68993 0.76182 0.0
C1436 C 0.5839 0.59259 0.81813 0.0
C1437 C 0.6162 0.64923 0.79675 0.0
C1438 C 0.57641 0.57307 0.84652 0.0
C1439 C 0.58689 0.589 0.88061 0.0
C1440 C 0.60169 0.62816 0.82399 0.0
C1441 C 0.60376 0.62462 0.88521 0.0
C1442 C 0.6294 0.68477 0.80122 0.0
C1443 C 0.64705 0.6546 0.75379 0.0
N1444 N 0.61086 0.64306 0.85715 0.0
N1445 N 0.62416 0.63513 0.77216 0.0
H1446 H 0.38898 0.6828 0.848 0.0
H1447 H 0.41831 0.56944 0.97132 0.0
H1448 H 0.31713 0.63932 0.91276 0.0
H1449 H 0.50842 0.6638 0.97214 0.0
H1450 H 0.38219 0.59911 0.95682 0.0
H1451 H 0.43566 0.68511 0.89774 0.0
C1452 C 0.38307 0.67493 0.873 0.0
C1453 C 0.34871 0.65952 0.87578 0.0
C1454 C 0.41004 0.61384 0.96173 0.0
C1455 C 0.40211 0.66156 0.93245 0.0
C1456 C 0.4306 0.59686 0.97024 0.0
C1457 C 0.46623 0.61453 0.97388 0.0
C1458 C 0.425 0.64825 0.95454 0.0
C1459 C 0.48095 0.64968 0.97011 0.0
C1460 C 0.40995 0.67643 0.90153 0.0
C1461 C 0.34297 0.64987 0.90899 0.0
N1462 N 0.45998 0.66536 0.95931 0.0
N1463 N 0.36927 0.64996 0.93581 0.0
H1464 H 0.36329 0.37077 0.75918 0.0
H1465 H 0.4187 0.4792 0.93654 0.0
H1466 H 0.28201 0.34848 0.81066 0.0
H1467 H 0.46122 0.41415 0.91089 0.0
H1468 H 0.36913 0.45313 0.88362 0.0
H1469 H 0.40211 0.41786 0.80392 0.0
C1470 C 0.35324 0.37653 0.77905 0.0
C1471 C 0.32045 0.35462 0.78297 0.0
C1472 C 0.38917 0.44439 0.89026 0.0
C1473 C 0.36406 0.40747 0.83356 0.0
C1474 C 0.41663 0.45833 0.92072 0.0
C1475 C 0.44348 0.44829 0.92778 0.0
C1476 C 0.38984 0.42133 0.86718 0.0
C1477 C 0.4407 0.42219 0.9062 0.0
C1478 C 0.37528 0.40334 0.80449 0.0
C1479 C 0.30809 0.36385 0.80838 0.0
N1480 N 0.41462 0.40999 0.87638 0.0
N1481 N 0.33044 0.38904 0.83387 0.0
H1482 H 0.68722 0.42217 0.80265 0.0
H1483 H 0.6088 0.398 0.96334 0.0
H1484 H 0.66415 0.33063 0.85858 0.0
H1485 H 0.67032 0.49742 0.93232 0.0
H1486 H 0.63165 0.3728 0.9285 0.0
H1487 H 0.68364 0.45082 0.85233 0.0
C1488 C 0.68171 0.40832 0.82566 0.0
C1489 C 0.67542 0.37408 0.82659 0.0
C1490 C 0.64093 0.40025 0.93025 0.0
C1491 C 0.67131 0.40631 0.88324 0.0
C1492 C 0.62791 0.41463 0.95013 0.0
C1493 C 0.6377 0.44982 0.95076 0.0
C1494 C 0.66331 0.42123 0.91045 0.0
C1495 C 0.66234 0.47021 0.93292 0.0
C1496 C 0.67997 0.42465 0.85407 0.0
C1497 C 0.66894 0.35713 0.85702 0.0
N1498 N 0.67382 0.4555 0.91292 0.0
N1499 N 0.66641 0.3733 0.88407 0.0
H1500 H 0.70912 0.37247 0.07377 0.0
H1501 H 0.50886 0.32691 0.02129 0.0
H1502 H 0.63863 0.31884 0.1382 0.0
H1503 H 0.59095 0.42752 0.02223 0.0
H1504 H 0.55249 0.30459 0.0372 0.0
H1505 H 0.66007 0.37281 0.0282 0.0
C1506 C 0.68358 0.36014 0.07831 0.0
C1507 C 0.67867 0.34659 0.11076 0.0
C1508 C 0.56045 0.33117 0.03181 0.0
C1509 C 0.62249 0.34475 0.05752 0.0
C1510 C 0.53577 0.34378 0.02277 0.0
C1511 C 0.54663 0.37878 0.01975 0.0
C1512 C 0.59566 0.35384 0.03703 0.0
C1513 C 0.58174 0.40019 0.02315 0.0
C1514 C 0.65561 0.35976 0.05189 0.0
C1515 C 0.64441 0.32958 0.11401 0.0
N1516 N 0.6052 0.38742 0.032 0.0
N1517 N 0.61773 0.32957 0.08789 0.0
H1518 H 0.74509 0.65739 0.17761 0.0
H1519 H 0.55902 0.51318 0.12714 0.0
H1520 H 0.67338 0.62904 0.24238 0.0
H1521 H 0.62793 0.55408 0.05912 0.0
H1522 H 0.60892 0.53586 0.17855 0.0
H1523 H 0.71326 0.60077 0.14726 0.0
C1524 C 0.72266 0.63912 0.18554 0.0
C1525 C 0.71019 0.64843 0.21063 0.0
C1526 C 0.61314 0.53922 0.15236 0.0
C1527 C 0.6734 0.58413 0.1757 0.0
C1528 C 0.58467 0.52678 0.12298 0.0
C1529 C 0.58933 0.53362 0.08888 0.0
C1530 C 0.6462 0.55905 0.14745 0.0
C1531 C 0.62309 0.54969 0.08499 0.0
C1532 C 0.70476 0.60664 0.16856 0.0
C1533 C 0.6825 0.62329 0.22165 0.0
N1534 N 0.65027 0.56256 0.11403 0.0
N1535 N 0.6641 0.5924 0.20316 0.0
H1536 H 0.30858 0.59428 0.16197 0.0
H1537 H 0.43378 0.61209 0.04134 0.0
H1538 H 0.40509 0.68278 0.16626 0.0
H1539 H 0.3528 0.5161 0.0577 0.0
H1540 H 0.41409 0.64192 0.07457 0.0
H1541 H 0.31545 0.56914 0.11148 0.0
C1542 C 0.33101 0.60839 0.15187 0.0
C1543 C 0.35672 0.64007 0.16816 0.0
C1544 C 0.40022 0.61437 0.07024 0.0
C1545 C 0.36468 0.61208 0.11108 0.0
C1546 C 0.41141 0.59726 0.05123 0.0
C1547 C 0.39518 0.56142 0.04699 0.0
C1548 C 0.37261 0.59554 0.08509 0.0
C1549 C 0.36603 0.54371 0.06007 0.0
C1550 C 0.33491 0.59422 0.12321 0.0
C1551 C 0.38512 0.65797 0.15433 0.0
N1552 N 0.35598 0.56096 0.07901 0.0
N1553 N 0.38858 0.64353 0.12664 0.0
H1554 H 0.36975 0.3643 0.26078 0.0
H1555 H 0.41352 0.36834 0.08475 0.0
H1556 H 0.36598 0.27615 0.21141 0.0
H1557 H 0.46264 0.46008 0.15467 0.0
H1558 H 0.40079 0.33452 0.13471 0.0
H1559 H 0.41215 0.40116 0.22984 0.0
C1560 C 0.37902 0.35277 0.2447 0.0
C1561 C 0.36381 0.31734 0.23762 0.0
C1562 C 0.41475 0.36204 0.13932 0.0
C1563 C 0.41089 0.35881 0.20149 0.0
C1564 C 0.42141 0.38131 0.11067 0.0
C1565 C 0.43831 0.41692 0.11564 0.0
C1566 C 0.4243 0.37858 0.17296 0.0
C1567 C 0.44895 0.43257 0.14986 0.0
C1568 C 0.40304 0.37378 0.22681 0.0
C1569 C 0.37655 0.30352 0.21654 0.0
N1570 N 0.44114 0.41326 0.17728 0.0
N1571 N 0.39875 0.32432 0.19836 0.0
H1572 H 0.79114 0.57452 0.6206 0.0
H1573 H 0.98245 0.60814 0.61605 0.0
H1574 H 0.87808 0.67425 0.64549 0.0
H1575 H 0.89232 0.51038 0.59131 0.0
H1576 H 0.94671 0.63292 0.63041 0.0
H1577 H 0.82974 0.55074 0.61368 0.0
C1578 C 0.81851 0.59142 0.62483 0.0
C1579 C 0.83128 0.6265 0.63317 0.0
C1580 C 0.93487 0.60605 0.62187 0.0
C1581 C 0.87605 0.59933 0.62522 0.0
C1582 C 0.95528 0.5918 0.61382 0.0
C1583 C 0.94046 0.55707 0.60212 0.0
C1584 C 0.89936 0.58541 0.61833 0.0
C1585 C 0.90495 0.53737 0.59945 0.0
C1586 C 0.84062 0.57781 0.62087 0.0
C1587 C 0.86714 0.64705 0.639 0.0
N1588 N 0.88576 0.5518 0.60736 0.0
N1589 N 0.88827 0.63322 0.63456 0.0
H1590 H 0.3528 0.84856 0.74402 0.0
H1591 H 0.40163 0.8731 0.55828 0.0
H1592 H 0.28138 0.79043 0.64739 0.0
H1593 H 0.4744 0.9219 0.65848 0.0
H1594 H 0.35687 0.84235 0.5895 0.0
H1595 H 0.39693 0.87763 0.71183 0.0
C1596 C 0.34675 0.84161 0.71606 0.0
C1597 C 0.3143 0.81602 0.69853 0.0
C1598 C 0.38269 0.85972 0.60459 0.0
C1599 C 0.36402 0.84938 0.66132 0.0
C1600 C 0.40826 0.87713 0.58682 0.0
C1601 C 0.44171 0.90029 0.60578 0.0
C1602 C 0.39066 0.86576 0.64147 0.0
C1603 C 0.44891 0.90451 0.64272 0.0
C1604 C 0.37174 0.85829 0.69762 0.0
C1605 C 0.30677 0.80909 0.66198 0.0
N1606 N 0.42357 0.8876 0.65927 0.0
N1607 N 0.33165 0.82536 0.64456 0.0
H1608 H 0.24806 0.33181 0.71653 0.0
H1609 H 0.08933 0.34627 0.5733 0.0
H1610 H 0.16165 0.24612 0.6515 0.0
H1611 H 0.15739 0.42412 0.6583 0.0
H1612 H 0.12009 0.3124 0.59688 0.0
H1613 H 0.22098 0.36902 0.68999 0.0
C1614 C 0.224 0.32097 0.69584 0.0
C1615 C 0.20751 0.28573 0.68571 0.0
C1616 C 0.12839 0.33697 0.61033 0.0
C1617 C 0.17584 0.32827 0.65561 0.0
C1618 C 0.11046 0.35652 0.59702 0.0
C1619 C 0.11993 0.38863 0.61364 0.0
C1620 C 0.15684 0.34937 0.6404 0.0
C1621 C 0.14881 0.40005 0.64382 0.0
C1622 C 0.20824 0.34219 0.68105 0.0
C1623 C 0.17561 0.27313 0.6597 0.0
N1624 N 0.16608 0.38061 0.65604 0.0
N1625 N 0.16098 0.29421 0.64562 0.0
H1626 H 0.75347 0.18855 0.64497 0.0
H1627 H 0.56388 0.10775 0.51619 0.0
H1628 H 0.67976 0.22996 0.63352 0.0
H1629 H 0.63141 0.05841 0.54248 0.0
H1630 H 0.61358 0.16239 0.54151 0.0
H1631 H 0.71698 0.15123 0.59118 0.0
C1632 C 0.72993 0.1903 0.63081 0.0
C1633 C 0.71939 0.21213 0.64417 0.0
C1634 C 0.61776 0.13981 0.54071 0.0
C1635 C 0.67724 0.1692 0.5829 0.0
C1636 C 0.58948 0.10876 0.52602 0.0
C1637 C 0.59375 0.07874 0.52808 0.0
C1638 C 0.65018 0.14044 0.55739 0.0
C1639 C 0.6272 0.08112 0.5411 0.0
C1640 C 0.70916 0.16908 0.60003 0.0
C1641 C 0.68904 0.21381 0.62435 0.0
N1642 N 0.65407 0.11133 0.55583 0.0
N1643 N 0.66864 0.19211 0.59515 0.0
H1644 H 0.79019 0.27237 0.37979 0.0
H1645 H 0.98669 0.40281 0.46638 0.0
H1646 H 0.87624 0.28685 0.33862 0.0
H1647 H 0.899 0.42349 0.45915 0.0
H1648 H 0.94662 0.34354 0.44326 0.0
H1649 H 0.83117 0.31014 0.432 0.0
C1650 C 0.81771 0.2831 0.38188 0.0
C1651 C 0.82975 0.27862 0.35357 0.0
C1652 C 0.93624 0.36074 0.44806 0.0
C1653 C 0.87656 0.31998 0.41397 0.0
C1654 C 0.95898 0.39438 0.46131 0.0
C1655 C 0.94582 0.41774 0.46416 0.0
C1656 C 0.90034 0.35068 0.43813 0.0
C1657 C 0.90989 0.40603 0.45696 0.0
C1658 C 0.841 0.30427 0.41188 0.0
C1659 C 0.86568 0.29103 0.35891 0.0
N1660 N 0.88827 0.37329 0.44383 0.0
N1661 N 0.88788 0.31184 0.38819 0.0
H1662 H 0.58974 0.78322 0.34121 0.0
H1663 H 0.6231 0.97091 0.39879 0.0
H1664 H 0.69008 0.86984 0.3589 0.0
H1665 H 0.52163 0.88523 0.36777 0.0
H1666 H 0.6484 0.93514 0.38429 0.0
H1667 H 0.56452 0.82112 0.34935 0.0
C1668 C 0.60638 0.81037 0.3465 0.0
C1669 C 0.64204 0.8234 0.34964 0.0
C1670 C 0.62058 0.92428 0.3804 0.0
C1671 C 0.61343 0.86712 0.3594 0.0
C1672 C 0.60605 0.9446 0.38898 0.0
C1673 C 0.57002 0.93114 0.38467 0.0
C1674 C 0.599 0.89016 0.36738 0.0
C1675 C 0.5494 0.89699 0.37119 0.0
C1676 C 0.592 0.83203 0.35117 0.0
C1677 C 0.66243 0.85882 0.3562 0.0
N1678 N 0.56418 0.87774 0.36321 0.0
N1679 N 0.6479 0.87946 0.36128 0.0
H1680 H 0.23064 0.70708 0.32386 0.0
H1681 H 0.03658 0.58691 0.33115 0.0
H1682 H 0.14322 0.66521 0.23201 0.0
H1683 H 0.12371 0.61645 0.42366 0.0
H1684 H 0.07632 0.61549 0.29492 0.0
H1685 H 0.19368 0.67198 0.36095 0.0
C1686 C 0.20387 0.68995 0.31141 0.0
C1687 C 0.18981 0.68911 0.27485 0.0
C1688 C 0.0869 0.61574 0.32311 0.0
C1689 C 0.14726 0.64976 0.31713 0.0
C1690 C 0.06415 0.59959 0.3439 0.0
C1691 C 0.07686 0.59934 0.3805 0.0
C1692 C 0.12277 0.63187 0.33891 0.0
C1693 C 0.11284 0.61626 0.39555 0.0
C1694 C 0.18271 0.67012 0.33263 0.0
C1695 C 0.15491 0.66673 0.26014 0.0
N1696 N 0.13463 0.63188 0.37464 0.0
N1697 N 0.13475 0.6482 0.28137 0.0
H1698 H 0.34974 0.24321 0.3028 0.0
H1699 H 0.35782 0.07011 0.37502 0.0
H1700 H 0.26091 0.14933 0.30704 0.0
H1701 H 0.45024 0.16213 0.37416 0.0
H1702 H 0.32302 0.10038 0.3517 0.0
H1703 H 0.38792 0.2167 0.33219 0.0
C1704 C 0.33828 0.21743 0.31077 0.0
C1705 C 0.30195 0.19859 0.30272 0.0
C1706 C 0.35095 0.11412 0.35673 0.0
C1707 C 0.34544 0.16769 0.33541 0.0
C1708 C 0.37106 0.0966 0.36987 0.0
C1709 C 0.4075 0.11311 0.37677 0.0
C1710 C 0.36693 0.14883 0.35028 0.0
C1711 C 0.42246 0.14801 0.36994 0.0
C1712 C 0.36007 0.20211 0.32715 0.0
C1713 C 0.28869 0.16495 0.31294 0.0
N1714 N 0.40226 0.16454 0.3571 0.0
N1715 N 0.3102 0.15068 0.32836 0.0
H1716 H 0.67846 0.75954 0.69117 0.0
H1717 H 0.67071 0.9341 0.62431 0.0
H1718 H 0.76741 0.8549 0.69154 0.0
H1719 H 0.57797 0.83903 0.61148 0.0
H1720 H 0.7054 0.90407 0.64913 0.0
H1721 H 0.64037 0.78571 0.66031 0.0
C1722 C 0.69002 0.78561 0.684 0.0
C1723 C 0.72634 0.80496 0.69379 0.0
C1724 C 0.67745 0.8896 0.64076 0.0
C1725 C 0.68291 0.83545 0.6595 0.0
C1726 C 0.65737 0.90695 0.62676 0.0
C1727 C 0.62089 0.88952 0.61556 0.0
C1728 C 0.66142 0.85415 0.64389 0.0
C1729 C 0.60585 0.85389 0.61912 0.0
C1730 C 0.66825 0.80071 0.66674 0.0
C1731 C 0.73966 0.83889 0.6844 0.0
N1732 N 0.62603 0.83754 0.63297 0.0
N1733 N 0.71817 0.85295 0.66826 0.0
H1734 H 0.66593 0.1432 0.23032 0.0
H1735 H 0.6207 0.12854 0.4177 0.0
H1736 H 0.73571 0.20663 0.32486 0.0
H1737 H 0.54971 0.06421 0.32381 0.0
H1738 H 0.66347 0.15697 0.38399 0.0
H1739 H 0.62391 0.11161 0.2645 0.0
C1740 C 0.67235 0.15041 0.25826 0.0
C1741 C 0.70358 0.17848 0.2745 0.0
C1742 C 0.63855 0.13659 0.37075 0.0
C1743 C 0.65622 0.14247 0.31379 0.0
C1744 C 0.61405 0.12049 0.38997 0.0
C1745 C 0.58158 0.09395 0.37359 0.0
C1746 C 0.63064 0.12598 0.3349 0.0
C1747 C 0.57441 0.08458 0.33754 0.0
C1748 C 0.64844 0.13247 0.27774 0.0
C1749 C 0.71125 0.18624 0.31093 0.0
N1750 N 0.59875 0.1005 0.31945 0.0
N1751 N 0.68762 0.1686 0.32926 0.0
H1752 H 0.87147 0.76111 0.33032 0.0
H1753 H 0.85727 0.57155 0.35517 0.0
H1754 H 0.77724 0.67134 0.28483 0.0
H1755 H 0.94942 0.66424 0.39921 0.0
H1756 H 0.82669 0.60605 0.33071 0.0
H1757 H 0.89839 0.72487 0.35848 0.0
C1758 C 0.85609 0.73366 0.32697 0.0
C1759 C 0.8218 0.71949 0.30554 0.0
C1760 C 0.85354 0.61877 0.34595 0.0
C1761 C 0.85314 0.67711 0.33717 0.0
C1762 C 0.87133 0.59903 0.35983 0.0
C1763 C 0.90643 0.6145 0.37982 0.0
C1764 C 0.87065 0.65456 0.35192 0.0
C1765 C 0.92242 0.6505 0.38489 0.0
C1766 C 0.87165 0.71285 0.34283 0.0
C1767 C 0.80348 0.68357 0.30163 0.0
N1768 N 0.90457 0.66898 0.37116 0.0
N1769 N 0.81943 0.66369 0.31701 0.0
H1770 H 0.3284 0.76282 0.37783 0.0
H1771 H 0.40047 0.95064 0.46002 0.0
H1772 H 0.28588 0.83451 0.3446 0.0
H1773 H 0.4614 0.89455 0.47368 0.0
H1774 H 0.3477 0.89742 0.44014 0.0
H1775 H 0.36578 0.80025 0.43152 0.0
C1776 C 0.32674 0.78624 0.3818 0.0
C1777 C 0.30577 0.79668 0.35545 0.0
C1778 C 0.37249 0.89649 0.44847 0.0
C1779 C 0.34687 0.83858 0.41758 0.0
C1780 C 0.40253 0.92682 0.45999 0.0
C1781 C 0.43507 0.92681 0.46753 0.0
C1782 C 0.37528 0.86631 0.44327 0.0
C1783 C 0.4366 0.89544 0.4675 0.0
C1784 C 0.34773 0.80735 0.41273 0.0
C1785 C 0.30287 0.82614 0.36329 0.0
N1786 N 0.40706 0.86639 0.45434 0.0
N1787 N 0.32362 0.84629 0.39331 0.0
H1788 H 0.21056 0.37857 0.42626 0.0
H1789 H 0.05245 0.42307 0.34151 0.0
H1790 H 0.16931 0.37047 0.31287 0.0
H1791 H 0.12595 0.46557 0.44326 0.0
H1792 H 0.08854 0.39729 0.33038 0.0
H1793 H 0.17181 0.40187 0.43323 0.0
C1794 C 0.19338 0.38174 0.40268 0.0
C1795 C 0.1941 0.37337 0.36883 0.0
C1796 C 0.09648 0.41219 0.35513 0.0
C1797 C 0.14853 0.39955 0.37687 0.0
C1798 C 0.07601 0.42718 0.36155 0.0
C1799 C 0.08553 0.44637 0.39376 0.0
C1800 C 0.1264 0.41587 0.38129 0.0
C1801 C 0.11642 0.45021 0.41857 0.0
C1802 C 0.1711 0.39501 0.40675 0.0
C1803 C 0.16995 0.37679 0.33948 0.0
N1804 N 0.13538 0.43495 0.41191 0.0
N1805 N 0.14821 0.38982 0.34414 0.0
H1806 H 0.36643 0.17624 0.57621 0.0
H1807 H 0.46245 0.06035 0.65752 0.0
H1808 H 0.39326 0.16458 0.68819 0.0
H1809 H 0.44303 0.08431 0.54831 0.0
H1810 H 0.43495 0.09508 0.67 0.0
H1811 H 0.39018 0.13789 0.56603 0.0
C1812 C 0.37719 0.16541 0.59873 0.0
C1813 C 0.37833 0.17416 0.63318 0.0
C1814 C 0.43664 0.09253 0.64331 0.0
C1815 C 0.40582 0.12974 0.62166 0.0
C1816 C 0.45261 0.07292 0.63616 0.0
C1817 C 0.45506 0.06903 0.60167 0.0
C1818 C 0.42285 0.10833 0.61578 0.0
C1819 C 0.44128 0.08571 0.57514 0.0
C1820 C 0.39083 0.14344 0.5929 0.0
C1821 C 0.39193 0.15863 0.66121 0.0
N1822 N 0.42585 0.10442 0.58275 0.0
N1823 N 0.40547 0.13739 0.65489 0.0
H1824 H 0.88657 0.34436 0.77146 0.0
H1825 H 0.90962 0.38305 0.57686 0.0
H1826 H 0.80214 0.30182 0.67721 0.0
H1827 H 0.98873 0.4382 0.6715 0.0
H1828 H 0.86917 0.35435 0.61299 0.0
H1829 H 0.92337 0.38183 0.73543 0.0
C1830 C 0.87571 0.34337 0.7432 0.0
C1831 C 0.84141 0.32008 0.72722 0.0
C1832 C 0.89535 0.37283 0.62582 0.0
C1833 C 0.88345 0.36188 0.68567 0.0
C1834 C 0.91853 0.38899 0.60524 0.0
C1835 C 0.9527 0.41276 0.62123 0.0
C1836 C 0.90651 0.38032 0.66268 0.0
C1837 C 0.96271 0.41981 0.65807 0.0
C1838 C 0.89667 0.36464 0.72262 0.0
C1839 C 0.82843 0.31959 0.69054 0.0
N1840 N 0.93979 0.40354 0.67754 0.0
N1841 N 0.84962 0.33989 0.6709 0.0
H1842 H 0.24041 0.72857 0.61501 0.0
H1843 H 0.04439 0.60377 0.51978 0.0
H1844 H 0.15149 0.72135 0.64604 0.0
H1845 H 0.12954 0.57692 0.54011 0.0
H1846 H 0.08594 0.66336 0.53997 0.0
H1847 H 0.2014 0.69052 0.56209 0.0
C1848 C 0.21269 0.71905 0.61063 0.0
C1849 C 0.19897 0.72536 0.63651 0.0
C1850 C 0.09554 0.64464 0.53855 0.0
C1851 C 0.15458 0.68432 0.5751 0.0
C1852 C 0.07195 0.6108 0.52694 0.0
C1853 C 0.08381 0.58568 0.52889 0.0
C1854 C 0.131 0.65312 0.55158 0.0
C1855 C 0.11959 0.59572 0.5387 0.0
C1856 C 0.19057 0.69798 0.58015 0.0
C1857 C 0.16314 0.71541 0.62787 0.0
N1858 N 0.14201 0.62869 0.55017 0.0
N1859 N 0.14202 0.69459 0.59825 0.0
loop_
_geom_bond_atom_site_label_1
_geom_bond_atom_site_label_2
_geom_bond_distance
_geom_bond_site_symmetry_2
_ccdc_geom_bond_type
Eu0 N31 2.657 . S
Eu0 N38 2.609 . S
Eu0 O44 2.558 . S
Eu0 O45 2.612 . S
Eu0 O47 2.339 . S
Eu0 O48 2.563 . S
Eu0 O49 2.419 . S
Eu0 O51 2.380 . S
Eu0 O52 2.432 . S
Eu0 C64 2.848 . S
C1 C4 1.429 . S
C1 C5 1.411 . S
C1 N8 1.377 . S
C2 C4 1.420 . S
C2 C6 1.423 . S
C2 C14 1.392 . S
C3 C5 1.420 . S
C3 C6 1.351 . S
C3 H26 0.931 . S
C4 C1 1.429 . S
C4 C2 1.420 . S
C4 N12 1.362 . S
C5 C1 1.411 . S
C5 C3 1.420 . S
C5 C10 1.395 . S
C6 C2 1.423 . S
C6 C3 1.351 . S
C6 H18 0.930 . S
C7 C9 1.400 . S
C7 C10 1.386 . S
C7 H19 0.930 . S
N8 C1 1.377 . S
N8 C9 1.321 . S
N8 Eu11 2.609 . S
C9 C7 1.400 . S
C9 N8 1.321 . S
C9 H16 0.930 . S
C10 C5 1.395 . S
C10 C7 1.386 . S
C10 H29 0.930 . S
Eu11 N8 2.609 . S
Eu11 N12 2.657 . S
Eu11 O45 2.380 . S
Eu11 O46 2.432 . S
Eu11 O50 2.558 . S
Eu11 O51 2.612 . S
Eu11 O53 2.339 . S
Eu11 O54 2.563 . S
Eu11 O55 2.419 . S
Eu11 C75 2.848 . S
N12 C4 1.362 . S
N12 Eu11 2.657 . S
N12 C13 1.334 . S
C13 N12 1.334 . S
C13 C15 1.413 . S
C13 H20 0.929 . S
C14 C2 1.392 . S
C14 C15 1.367 . S
C14 H22 0.930 . S
C15 C13 1.413 . S
C15 C14 1.367 . S
C15 H17 0.930 . S
H16 C9 0.930 . S
H17 C15 0.930 . S
H18 C6 0.930 . S
H19 C7 0.930 . S
H20 C13 0.929 . S
H21 C35 0.930 . S
H22 C14 0.930 . S
H23 C41 0.930 . S
H24 C32 0.929 . S
H25 C39 0.930 . S
H26 C3 0.931 . S
H27 C33 0.930 . S
H28 C66 0.930 . S
H29 C10 0.930 . S
H30 C65 0.931 . S
N31 Eu0 2.657 . S
N31 C32 1.334 . S
N31 C36 1.362 . S
C32 H24 0.929 . S
C32 N31 1.334 . S
C32 C35 1.413 . S
C33 H27 0.930 . S
C33 C34 1.392 . S
C33 C35 1.367 . S
C34 C33 1.392 . S
C34 C36 1.420 . S
C34 C66 1.423 . S
C35 H21 0.930 . S
C35 C32 1.413 . S
C35 C33 1.367 . S
C36 N31 1.362 . S
C36 C34 1.420 . S
C36 C40 1.429 . S
H37 C42 0.930 . S
N38 Eu0 2.609 . S
N38 C40 1.377 . S
N38 C41 1.321 . S
C39 H25 0.930 . S
C39 C41 1.400 . S
C39 C42 1.386 . S
C40 C36 1.429 . S
C40 N38 1.377 . S
C40 C43 1.411 . S
C41 H23 0.930 . S
C41 N38 1.321 . S
C41 C39 1.400 . S
C42 H37 0.930 . S
C42 C39 1.386 . S
C42 C43 1.395 . S
C43 C40 1.411 . S
C43 C42 1.395 . S
C43 C65 1.420 . S
O44 Eu0 2.558 . S
O44 C64 1.257 . S
O45 Eu0 2.612 . S
O45 Eu11 2.380 . S
O45 C56 1.276 . S
O46 Eu11 2.432 . S
O46 C63 1.264 . S
O47 Eu0 2.339 . S
O47 C63 1.254 . S
O48 Eu0 2.563 . S
O48 C56 1.235 . S
O49 Eu0 2.419 . S
O49 C64 1.249 . S
O50 Eu11 2.558 . S
O50 C75 1.257 . S
O51 Eu0 2.380 . S
O51 Eu11 2.612 . S
O51 C67 1.276 . S
O52 Eu0 2.432 . S
O52 C74 1.264 . S
O53 Eu11 2.339 . S
O53 C74 1.254 . S
O54 Eu11 2.563 . S
O54 C67 1.235 . S
O55 Eu11 2.419 . S
O55 C75 1.249 . S
C56 O45 1.276 . S
C56 O48 1.235 . S
C57 C59 1.393 . S
C57 C61 1.395 . S
C57 C64 1.492 . S
C58 C59 1.392 . S
C58 C60 1.386 . S
C59 C57 1.393 . S
C59 C58 1.392 . S
C59 H76 0.930 . S
C60 C58 1.386 . S
C60 C62 1.395 . S
C60 H77 0.930 . S
C61 C57 1.395 . S
C61 C62 1.379 . S
C61 H78 0.930 . S
C62 C60 1.395 . S
C62 C61 1.379 . S
C62 H79 0.930 . S
C63 O46 1.264 . S
C63 O47 1.254 . S
C64 Eu0 2.848 . S
C64 O44 1.257 . S
C64 O49 1.249 . S
C64 C57 1.492 . S
C65 H30 0.931 . S
C65 C43 1.420 . S
C65 C66 1.351 . S
C66 H28 0.930 . S
C66 C34 1.423 . S
C66 C65 1.351 . S
C67 O51 1.276 . S
C67 O54 1.235 . S
C68 C69 1.393 . S
C68 C72 1.395 . S
C68 C75 1.492 . S
C69 C68 1.393 . S
C69 C70 1.392 . S
C69 H80 0.930 . S
C70 C69 1.392 . S
C70 C71 1.386 . S
C71 C70 1.386 . S
C71 C73 1.395 . S
C71 H81 0.930 . S
C72 C68 1.395 . S
C72 C73 1.379 . S
C72 H82 0.930 . S
C73 C71 1.395 . S
C73 C72 1.379 . S
C73 H83 0.930 . S
C74 O52 1.264 . S
C74 O53 1.254 . S
C75 Eu11 2.848 . S
C75 O50 1.257 . S
C75 O55 1.249 . S
C75 C68 1.492 . S
H76 C59 0.930 . S
H77 C60 0.930 . S
H78 C61 0.930 . S
H79 C62 0.930 . S
H80 C69 0.930 . S
H81 C71 0.930 . S
H82 C72 0.930 . S
H83 C73 0.930 . S
Eu84 N115 2.657 . S
Eu84 N122 2.609 . S
Eu84 O128 2.558 . S
Eu84 O129 2.612 . S
Eu84 O131 2.339 . S
Eu84 O132 2.563 . S
Eu84 O133 2.419 . S
Eu84 O135 2.380 . S
Eu84 O136 2.432 . S
Eu84 C148 2.848 . S
C85 C88 1.429 . S
C85 C89 1.411 . S
C85 N92 1.377 . S
C86 C88 1.420 . S
C86 C90 1.423 . S
C86 C98 1.392 . S
C87 C89 1.420 . S
C87 C90 1.351 . S
C87 H110 0.931 . S
C88 C85 1.429 . S
C88 C86 1.420 . S
C88 N96 1.362 . S
C89 C85 1.411 . S
C89 C87 1.420 . S
C89 C94 1.395 . S
C90 C86 1.423 . S
C90 C87 1.351 . S
C90 H102 0.930 . S
C91 C93 1.400 . S
C91 C94 1.386 . S
C91 H103 0.930 . S
N92 C85 1.377 . S
N92 C93 1.321 . S
N92 Eu95 2.609 . S
C93 C91 1.400 . S
C93 N92 1.321 . S
C93 H100 0.930 . S
C94 C89 1.395 . S
C94 C91 1.386 . S
C94 H113 0.930 . S
Eu95 N92 2.609 . S
Eu95 N96 2.657 . S
Eu95 O129 2.380 . S
Eu95 O130 2.432 . S
Eu95 O134 2.558 . S
Eu95 O135 2.612 . S
Eu95 O137 2.339 . S
Eu95 O138 2.563 . S
Eu95 O139 2.419 . S
Eu95 C159 2.848 . S
N96 C88 1.362 . S
N96 Eu95 2.657 . S
N96 C97 1.334 . S
C97 N96 1.334 . S
C97 C99 1.413 . S
C97 H104 0.929 . S
C98 C86 1.392 . S
C98 C99 1.367 . S
C98 H106 0.930 . S
C99 C97 1.413 . S
C99 C98 1.367 . S
C99 H101 0.930 . S
H100 C93 0.930 . S
H101 C99 0.930 . S
H102 C90 0.930 . S
H103 C91 0.930 . S
H104 C97 0.929 . S
H105 C119 0.930 . S
H106 C98 0.930 . S
H107 C125 0.930 . S
H108 C116 0.929 . S
H109 C123 0.930 . S
H110 C87 0.931 . S
H111 C117 0.930 . S
H112 C150 0.930 . S
H113 C94 0.930 . S
H114 C149 0.931 . S
N115 Eu84 2.657 . S
N115 C116 1.334 . S
N115 C120 1.362 . S
C116 H108 0.929 . S
C116 N115 1.334 . S
C116 C119 1.413 . S
C117 H111 0.930 . S
C117 C118 1.392 . S
C117 C119 1.367 . S
C118 C117 1.392 . S
C118 C120 1.420 . S
C118 C150 1.423 . S
C119 H105 0.930 . S
C119 C116 1.413 . S
C119 C117 1.367 . S
C120 N115 1.362 . S
C120 C118 1.420 . S
C120 C124 1.429 . S
H121 C126 0.930 . S
N122 Eu84 2.609 . S
N122 C124 1.377 . S
N122 C125 1.321 . S
C123 H109 0.930 . S
C123 C125 1.400 . S
C123 C126 1.386 . S
C124 C120 1.429 . S
C124 N122 1.377 . S
C124 C127 1.411 . S
C125 H107 0.930 . S
C125 N122 1.321 . S
C125 C123 1.400 . S
C126 H121 0.930 . S
C126 C123 1.386 . S
C126 C127 1.395 . S
C127 C124 1.411 . S
C127 C126 1.395 . S
C127 C149 1.420 . S
O128 Eu84 2.558 . S
O128 C148 1.257 . S
O129 Eu84 2.612 . S
O129 Eu95 2.380 . S
O129 C140 1.276 . S
O130 Eu95 2.432 . S
O130 C147 1.264 . S
O131 Eu84 2.339 . S
O131 C147 1.254 . S
O132 Eu84 2.563 . S
O132 C140 1.235 . S
O133 Eu84 2.419 . S
O133 C148 1.249 . S
O134 Eu95 2.558 . S
O134 C159 1.257 . S
O135 Eu84 2.380 . S
O135 Eu95 2.612 . S
O135 C151 1.276 . S
O136 Eu84 2.432 . S
O136 C158 1.264 . S
O137 Eu95 2.339 . S
O137 C158 1.254 . S
O138 Eu95 2.563 . S
O138 C151 1.235 . S
O139 Eu95 2.419 . S
O139 C159 1.249 . S
C140 O129 1.276 . S
C140 O132 1.235 . S
C141 C143 1.393 . S
C141 C145 1.395 . S
C141 C148 1.492 . S
C142 C143 1.392 . S
C142 C144 1.386 . S
C143 C141 1.393 . S
C143 C142 1.392 . S
C143 H160 0.930 . S
C144 C142 1.386 . S
C144 C146 1.395 . S
C144 H161 0.930 . S
C145 C141 1.395 . S
C145 C146 1.379 . S
C145 H162 0.930 . S
C146 C144 1.395 . S
C146 C145 1.379 . S
C146 H163 0.930 . S
C147 O130 1.264 . S
C147 O131 1.254 . S
C148 Eu84 2.848 . S
C148 O128 1.257 . S
C148 O133 1.249 . S
C148 C141 1.492 . S
C149 H114 0.931 . S
C149 C127 1.420 . S
C149 C150 1.351 . S
C150 H112 0.930 . S
C150 C118 1.423 . S
C150 C149 1.351 . S
C151 O135 1.276 . S
C151 O138 1.235 . S
C152 C153 1.393 . S
C152 C156 1.395 . S
C152 C159 1.492 . S
C153 C152 1.393 . S
C153 C154 1.392 . S
C153 H164 0.930 . S
C154 C153 1.392 . S
C154 C155 1.386 . S
C155 C154 1.386 . S
C155 C157 1.395 . S
C155 H165 0.930 . S
C156 C152 1.395 . S
C156 C157 1.379 . S
C156 H166 0.930 . S
C157 C155 1.395 . S
C157 C156 1.379 . S
C157 H167 0.930 . S
C158 O136 1.264 . S
C158 O137 1.254 . S
C159 Eu95 2.848 . S
C159 O134 1.257 . S
C159 O139 1.249 . S
C159 C152 1.492 . S
H160 C143 0.930 . S
H161 C144 0.930 . S
H162 C145 0.930 . S
H163 C146 0.930 . S
H164 C153 0.930 . S
H165 C155 0.930 . S
H166 C156 0.930 . S
H167 C157 0.930 . S
Eu168 N199 2.657 . S
Eu168 N206 2.609 . S
Eu168 O212 2.558 . S
Eu168 O213 2.612 . S
Eu168 O215 2.339 . S
Eu168 O216 2.563 . S
Eu168 O217 2.419 . S
Eu168 O219 2.380 . S
Eu168 O220 2.432 . S
Eu168 C232 2.848 . S
C169 C172 1.429 . S
C169 C173 1.411 . S
C169 N176 1.377 . S
C170 C172 1.420 . S
C170 C174 1.423 . S
C170 C182 1.392 . S
C171 C173 1.420 . S
C171 C174 1.351 . S
C171 H194 0.931 . S
C172 C169 1.429 . S
C172 C170 1.420 . S
C172 N180 1.362 . S
C173 C169 1.411 . S
C173 C171 1.420 . S
C173 C178 1.395 . S
C174 C170 1.423 . S
C174 C171 1.351 . S
C174 H186 0.930 . S
C175 C177 1.400 . S
C175 C178 1.386 . S
C175 H187 0.930 . S
N176 C169 1.377 . S
N176 C177 1.321 . S
N176 Eu179 2.609 . S
C177 C175 1.400 . S
C177 N176 1.321 . S
C177 H184 0.930 . S
C178 C173 1.395 . S
C178 C175 1.386 . S
C178 H197 0.930 . S
Eu179 N176 2.609 . S
Eu179 N180 2.657 . S
Eu179 O213 2.380 . S
Eu179 O214 2.432 . S
Eu179 O218 2.558 . S
Eu179 O219 2.612 . S
Eu179 O221 2.339 . S
Eu179 O222 2.563 . S
Eu179 O223 2.419 . S
Eu179 C243 2.848 . S
N180 C172 1.362 . S
N180 Eu179 2.657 . S
N180 C181 1.334 . S
C181 N180 1.334 . S
C181 C183 1.413 . S
C181 H188 0.929 . S
C182 C170 1.392 . S
C182 C183 1.367 . S
C182 H190 0.930 . S
C183 C181 1.413 . S
C183 C182 1.367 . S
C183 H185 0.930 . S
H184 C177 0.930 . S
H185 C183 0.930 . S
H186 C174 0.930 . S
H187 C175 0.930 . S
H188 C181 0.929 . S
H189 C203 0.930 . S
H190 C182 0.930 . S
H191 C209 0.930 . S
H192 C200 0.929 . S
H193 C207 0.930 . S
H194 C171 0.931 . S
H195 C201 0.930 . S
H196 C234 0.930 . S
H197 C178 0.930 . S
H198 C233 0.931 . S
N199 Eu168 2.657 . S
N199 C200 1.334 . S
N199 C204 1.362 . S
C200 H192 0.929 . S
C200 N199 1.334 . S
C200 C203 1.413 . S
C201 H195 0.930 . S
C201 C202 1.392 . S
C201 C203 1.367 . S
C202 C201 1.392 . S
C202 C204 1.420 . S
C202 C234 1.423 . S
C203 H189 0.930 . S
C203 C200 1.413 . S
C203 C201 1.367 . S
C204 N199 1.362 . S
C204 C202 1.420 . S
C204 C208 1.429 . S
H205 C210 0.930 . S
N206 Eu168 2.609 . S
N206 C208 1.377 . S
N206 C209 1.321 . S
C207 H193 0.930 . S
C207 C209 1.400 . S
C207 C210 1.386 . S
C208 C204 1.429 . S
C208 N206 1.377 . S
C208 C211 1.411 . S
C209 H191 0.930 . S
C209 N206 1.321 . S
C209 C207 1.400 . S
C210 H205 0.930 . S
C210 C207 1.386 . S
C210 C211 1.395 . S
C211 C208 1.411 . S
C211 C210 1.395 . S
C211 C233 1.420 . S
O212 Eu168 2.558 . S
O212 C232 1.257 . S
O213 Eu168 2.612 . S
O213 Eu179 2.380 . S
O213 C224 1.276 . S
O214 Eu179 2.432 . S
O214 C231 1.264 . S
O215 Eu168 2.339 . S
O215 C231 1.254 . S
O216 Eu168 2.563 . S
O216 C224 1.235 . S
O217 Eu168 2.419 . S
O217 C232 1.249 . S
O218 Eu179 2.558 . S
O218 C243 1.257 . S
O219 Eu168 2.380 . S
O219 Eu179 2.612 . S
O219 C235 1.276 . S
O220 Eu168 2.432 . S
O220 C242 1.264 . S
O221 Eu179 2.339 . S
O221 C242 1.254 . S
O222 Eu179 2.563 . S
O222 C235 1.235 . S
O223 Eu179 2.419 . S
O223 C243 1.249 . S
C224 O213 1.276 . S
C224 O216 1.235 . S
C225 C227 1.393 . S
C225 C229 1.395 . S
C225 C232 1.492 . S
C226 C227 1.392 . S
C226 C228 1.386 . S
C227 C225 1.393 . S
C227 C226 1.392 . S
C227 H244 0.930 . S
C228 C226 1.386 . S
C228 C230 1.395 . S
C228 H245 0.930 . S
C229 C225 1.395 . S
C229 C230 1.379 . S
C229 H246 0.930 . S
C230 C228 1.395 . S
C230 C229 1.379 . S
C230 H247 0.930 . S
C231 O214 1.264 . S
C231 O215 1.254 . S
C232 Eu168 2.848 . S
C232 O212 1.257 . S
C232 O217 1.249 . S
C232 C225 1.492 . S
C233 H198 0.931 . S
C233 C211 1.420 . S
C233 C234 1.351 . S
C234 H196 0.930 . S
C234 C202 1.423 . S
C234 C233 1.351 . S
C235 O219 1.276 . S
C235 O222 1.235 . S
C236 C237 1.393 . S
C236 C240 1.395 . S
C236 C243 1.492 . S
C237 C236 1.393 . S
C237 C238 1.392 . S
C237 H248 0.930 . S
C238 C237 1.392 . S
C238 C239 1.386 . S
C239 C238 1.386 . S
C239 C241 1.395 . S
C239 H249 0.930 . S
C240 C236 1.395 . S
C240 C241 1.379 . S
C240 H250 0.930 . S
C241 C239 1.395 . S
C241 C240 1.379 . S
C241 H251 0.930 . S
C242 O220 1.264 . S
C242 O221 1.254 . S
C243 Eu179 2.848 . S
C243 O218 1.257 . S
C243 O223 1.249 . S
C243 C236 1.492 . S
H244 C227 0.930 . S
H245 C228 0.930 . S
H246 C229 0.930 . S
H247 C230 0.930 . S
H248 C237 0.930 . S
H249 C239 0.930 . S
H250 C240 0.930 . S
H251 C241 0.930 . S
Eu252 N283 2.657 . S
Eu252 N290 2.609 . S
Eu252 O296 2.558 . S
Eu252 O297 2.612 . S
Eu252 O299 2.339 . S
Eu252 O300 2.563 . S
Eu252 O301 2.419 . S
Eu252 O303 2.380 . S
Eu252 O304 2.432 . S
Eu252 C316 2.848 . S
C253 C256 1.429 . S
C253 C257 1.411 . S
C253 N260 1.377 . S
C254 C256 1.420 . S
C254 C258 1.423 . S
C254 C266 1.392 . S
C255 C257 1.420 . S
C255 C258 1.351 . S
C255 H278 0.931 . S
C256 C253 1.429 . S
C256 C254 1.420 . S
C256 N264 1.362 . S
C257 C253 1.411 . S
C257 C255 1.420 . S
C257 C262 1.395 . S
C258 C254 1.423 . S
C258 C255 1.351 . S
C258 H270 0.930 . S
C259 C261 1.400 . S
C259 C262 1.386 . S
C259 H271 0.930 . S
N260 C253 1.377 . S
N260 C261 1.321 . S
N260 Eu263 2.609 . S
C261 C259 1.400 . S
C261 N260 1.321 . S
C261 H268 0.930 . S
C262 C257 1.395 . S
C262 C259 1.386 . S
C262 H281 0.930 . S
Eu263 N260 2.609 . S
Eu263 N264 2.657 . S
Eu263 O297 2.380 . S
Eu263 O298 2.432 . S
Eu263 O302 2.558 . S
Eu263 O303 2.612 . S
Eu263 O305 2.339 . S
Eu263 O306 2.563 . S
Eu263 O307 2.419 . S
Eu263 C327 2.848 . S
N264 C256 1.362 . S
N264 Eu263 2.657 . S
N264 C265 1.334 . S
C265 N264 1.334 . S
C265 C267 1.413 . S
C265 H272 0.929 . S
C266 C254 1.392 . S
C266 C267 1.367 . S
C266 H274 0.930 . S
C267 C265 1.413 . S
C267 C266 1.367 . S
C267 H269 0.930 . S
H268 C261 0.930 . S
H269 C267 0.930 . S
H270 C258 0.930 . S
H271 C259 0.930 . S
H272 C265 0.929 . S
H273 C287 0.930 . S
H274 C266 0.930 . S
H275 C293 0.930 . S
H276 C284 0.929 . S
H277 C291 0.930 . S
H278 C255 0.931 . S
H279 C285 0.930 . S
H280 C318 0.930 . S
H281 C262 0.930 . S
H282 C317 0.931 . S
N283 Eu252 2.657 . S
N283 C284 1.334 . S
N283 C288 1.362 . S
C284 H276 0.929 . S
C284 N283 1.334 . S
C284 C287 1.413 . S
C285 H279 0.930 . S
C285 C286 1.392 . S
C285 C287 1.367 . S
C286 C285 1.392 . S
C286 C288 1.420 . S
C286 C318 1.423 . S
C287 H273 0.930 . S
C287 C284 1.413 . S
C287 C285 1.367 . S
C288 N283 1.362 . S
C288 C286 1.420 . S
C288 C292 1.429 . S
H289 C294 0.930 . S
N290 Eu252 2.609 . S
N290 C292 1.377 . S
N290 C293 1.321 . S
C291 H277 0.930 . S
C291 C293 1.400 . S
C291 C294 1.386 . S
C292 C288 1.429 . S
C292 N290 1.377 . S
C292 C295 1.411 . S
C293 H275 0.930 . S
C293 N290 1.321 . S
C293 C291 1.400 . S
C294 H289 0.930 . S
C294 C291 1.386 . S
C294 C295 1.395 . S
C295 C292 1.411 . S
C295 C294 1.395 . S
C295 C317 1.420 . S
O296 Eu252 2.558 . S
O296 C316 1.257 . S
O297 Eu252 2.612 . S
O297 Eu263 2.380 . S
O297 C308 1.276 . S
O298 Eu263 2.432 . S
O298 C315 1.264 . S
O299 Eu252 2.339 . S
O299 C315 1.254 . S
O300 Eu252 2.563 . S
O300 C308 1.235 . S
O301 Eu252 2.419 . S
O301 C316 1.249 . S
O302 Eu263 2.558 . S
O302 C327 1.257 . S
O303 Eu252 2.380 . S
O303 Eu263 2.612 . S
O303 C319 1.276 . S
O304 Eu252 2.432 . S
O304 C326 1.264 . S
O305 Eu263 2.339 . S
O305 C326 1.254 . S
O306 Eu263 2.563 . S
O306 C319 1.235 . S
O307 Eu263 2.419 . S
O307 C327 1.249 . S
C308 O297 1.276 . S
C308 O300 1.235 . S
C309 C311 1.393 . S
C309 C313 1.395 . S
C309 C316 1.492 . S
C310 C311 1.392 . S
C310 C312 1.386 . S
C311 C309 1.393 . S
C311 C310 1.392 . S
C311 H328 0.930 . S
C312 C310 1.386 . S
C312 C314 1.395 . S
C312 H329 0.930 . S
C313 C309 1.395 . S
C313 C314 1.379 . S
C313 H330 0.930 . S
C314 C312 1.395 . S
C314 C313 1.379 . S
C314 H331 0.930 . S
C315 O298 1.264 . S
C315 O299 1.254 . S
C316 Eu252 2.848 . S
C316 O296 1.257 . S
C316 O301 1.249 . S
C316 C309 1.492 . S
C317 H282 0.931 . S
C317 C295 1.420 . S
C317 C318 1.351 . S
C318 H280 0.930 . S
C318 C286 1.423 . S
C318 C317 1.351 . S
C319 O303 1.276 . S
C319 O306 1.235 . S
C320 C321 1.393 . S
C320 C324 1.395 . S
C320 C327 1.492 . S
C321 C320 1.393 . S
C321 C322 1.392 . S
C321 H332 0.930 . S
C322 C321 1.392 . S
C322 C323 1.386 . S
C323 C322 1.386 . S
C323 C325 1.395 . S
C323 H333 0.930 . S
C324 C320 1.395 . S
C324 C325 1.379 . S
C324 H334 0.930 . S
C325 C323 1.395 . S
C325 C324 1.379 . S
C325 H335 0.930 . S
C326 O304 1.264 . S
C326 O305 1.254 . S
C327 Eu263 2.848 . S
C327 O302 1.257 . S
C327 O307 1.249 . S
C327 C320 1.492 . S
H328 C311 0.930 . S
H329 C312 0.930 . S
H330 C313 0.930 . S
H331 C314 0.930 . S
H332 C321 0.930 . S
H333 C323 0.930 . S
H334 C324 0.930 . S
H335 C325 0.930 . S
Eu336 N367 2.657 . S
Eu336 N374 2.609 . S
Eu336 O380 2.558 . S
Eu336 O381 2.612 . S
Eu336 O383 2.339 . S
Eu336 O384 2.563 . S
Eu336 O385 2.419 . S
Eu336 O387 2.380 . S
Eu336 O388 2.432 . S
Eu336 C400 2.848 . S
C337 C340 1.429 . S
C337 C341 1.411 . S
C337 N344 1.377 . S
C338 C340 1.420 . S
C338 C342 1.423 . S
C338 C350 1.392 . S
C339 C341 1.420 . S
C339 C342 1.351 . S
C339 H362 0.931 . S
C340 C337 1.429 . S
C340 C338 1.420 . S
C340 N348 1.362 . S
C341 C337 1.411 . S
C341 C339 1.420 . S
C341 C346 1.395 . S
C342 C338 1.423 . S
C342 C339 1.351 . S
C342 H354 0.930 . S
C343 C345 1.400 . S
C343 C346 1.386 . S
C343 H355 0.930 . S
N344 C337 1.377 . S
N344 C345 1.321 . S
N344 Eu347 2.609 . S
C345 C343 1.400 . S
C345 N344 1.321 . S
C345 H352 0.930 . S
C346 C341 1.395 . S
C346 C343 1.386 . S
C346 H365 0.930 . S
Eu347 N344 2.609 . S
Eu347 N348 2.657 . S
Eu347 O381 2.380 . S
Eu347 O382 2.432 . S
Eu347 O386 2.558 . S
Eu347 O387 2.612 . S
Eu347 O389 2.339 . S
Eu347 O390 2.563 . S
Eu347 O391 2.419 . S
Eu347 C411 2.848 . S
N348 C340 1.362 . S
N348 Eu347 2.657 . S
N348 C349 1.334 . S
C349 N348 1.334 . S
C349 C351 1.413 . S
C349 H356 0.929 . S
C350 C338 1.392 . S
C350 C351 1.367 . S
C350 H358 0.930 . S
C351 C349 1.413 . S
C351 C350 1.367 . S
C351 H353 0.930 . S
H352 C345 0.930 . S
H353 C351 0.930 . S
H354 C342 0.930 . S
H355 C343 0.930 . S
H356 C349 0.929 . S
H357 C371 0.930 . S
H358 C350 0.930 . S
H359 C377 0.930 . S
H360 C368 0.929 . S
H361 C375 0.930 . S
H362 C339 0.931 . S
H363 C369 0.930 . S
H364 C402 0.930 . S
H365 C346 0.930 . S
H366 C401 0.931 . S
N367 Eu336 2.657 . S
N367 C368 1.334 . S
N367 C372 1.362 . S
C368 H360 0.929 . S
C368 N367 1.334 . S
C368 C371 1.413 . S
C369 H363 0.930 . S
C369 C370 1.392 . S
C369 C371 1.367 . S
C370 C369 1.392 . S
C370 C372 1.420 . S
C370 C402 1.423 . S
C371 H357 0.930 . S
C371 C368 1.413 . S
C371 C369 1.367 . S
C372 N367 1.362 . S
C372 C370 1.420 . S
C372 C376 1.429 . S
H373 C378 0.930 . S
N374 Eu336 2.609 . S
N374 C376 1.377 . S
N374 C377 1.321 . S
C375 H361 0.930 . S
C375 C377 1.400 . S
C375 C378 1.386 . S
C376 C372 1.429 . S
C376 N374 1.377 . S
C376 C379 1.411 . S
C377 H359 0.930 . S
C377 N374 1.321 . S
C377 C375 1.400 . S
C378 H373 0.930 . S
C378 C375 1.386 . S
C378 C379 1.395 . S
C379 C376 1.411 . S
C379 C378 1.395 . S
C379 C401 1.420 . S
O380 Eu336 2.558 . S
O380 C400 1.257 . S
O381 Eu336 2.612 . S
O381 Eu347 2.380 . S
O381 C392 1.276 . S
O382 Eu347 2.432 . S
O382 C399 1.264 . S
O383 Eu336 2.339 . S
O383 C399 1.254 . S
O384 Eu336 2.563 . S
O384 C392 1.235 . S
O385 Eu336 2.419 . S
O385 C400 1.249 . S
O386 Eu347 2.558 . S
O386 C411 1.257 . S
O387 Eu336 2.380 . S
O387 Eu347 2.612 . S
O387 C403 1.276 . S
O388 Eu336 2.432 . S
O388 C410 1.264 . S
O389 Eu347 2.339 . S
O389 C410 1.254 . S
O390 Eu347 2.563 . S
O390 C403 1.235 . S
O391 Eu347 2.419 . S
O391 C411 1.249 . S
C392 O381 1.276 . S
C392 O384 1.235 . S
C393 C395 1.393 . S
C393 C397 1.395 . S
C393 C400 1.492 . S
C394 C395 1.392 . S
C394 C396 1.386 . S
C395 C393 1.393 . S
C395 C394 1.392 . S
C395 H412 0.930 . S
C396 C394 1.386 . S
C396 C398 1.395 . S
C396 H413 0.930 . S
C397 C393 1.395 . S
C397 C398 1.379 . S
C397 H414 0.930 . S
C398 C396 1.395 . S
C398 C397 1.379 . S
C398 H415 0.930 . S
C399 O382 1.264 . S
C399 O383 1.254 . S
C400 Eu336 2.848 . S
C400 O380 1.257 . S
C400 O385 1.249 . S
C400 C393 1.492 . S
C401 H366 0.931 . S
C401 C379 1.420 . S
C401 C402 1.351 . S
C402 H364 0.930 . S
C402 C370 1.423 . S
C402 C401 1.351 . S
C403 O387 1.276 . S
C403 O390 1.235 . S
C404 C405 1.393 . S
C404 C408 1.395 . S
C404 C411 1.492 . S
C405 C404 1.393 . S
C405 C406 1.392 . S
C405 H416 0.930 . S
C406 C405 1.392 . S
C406 C407 1.386 . S
C407 C406 1.386 . S
C407 C409 1.395 . S
C407 H417 0.930 . S
C408 C404 1.395 . S
C408 C409 1.379 . S
C408 H418 0.930 . S
C409 C407 1.395 . S
C409 C408 1.379 . S
C409 H419 0.930 . S
C410 O388 1.264 . S
C410 O389 1.254 . S
C411 Eu347 2.848 . S
C411 O386 1.257 . S
C411 O391 1.249 . S
C411 C404 1.492 . S
H412 C395 0.930 . S
H413 C396 0.930 . S
H414 C397 0.930 . S
H415 C398 0.930 . S
H416 C405 0.930 . S
H417 C407 0.930 . S
H418 C408 0.930 . S
H419 C409 0.930 . S
Eu420 N451 2.657 . S
Eu420 N458 2.609 . S
Eu420 O464 2.558 . S
Eu420 O465 2.612 . S
Eu420 O467 2.339 . S
Eu420 O468 2.563 . S
Eu420 O469 2.419 . S
Eu420 O471 2.380 . S
Eu420 O472 2.432 . S
Eu420 C484 2.848 . S
C421 C424 1.429 . S
C421 C425 1.411 . S
C421 N428 1.377 . S
C422 C424 1.420 . S
C422 C426 1.423 . S
C422 C434 1.392 . S
C423 C425 1.420 . S
C423 C426 1.351 . S
C423 H446 0.931 . S
C424 C421 1.429 . S
C424 C422 1.420 . S
C424 N432 1.362 . S
C425 C421 1.411 . S
C425 C423 1.420 . S
C425 C430 1.395 . S
C426 C422 1.423 . S
C426 C423 1.351 . S
C426 H438 0.930 . S
C427 C429 1.400 . S
C427 C430 1.386 . S
C427 H439 0.930 . S
N428 C421 1.377 . S
N428 C429 1.321 . S
N428 Eu431 2.609 . S
C429 C427 1.400 . S
C429 N428 1.321 . S
C429 H436 0.930 . S
C430 C425 1.395 . S
C430 C427 1.386 . S
C430 H449 0.930 . S
Eu431 N428 2.609 . S
Eu431 N432 2.657 . S
Eu431 O465 2.380 . S
Eu431 O466 2.432 . S
Eu431 O470 2.558 . S
Eu431 O471 2.612 . S
Eu431 O473 2.339 . S
Eu431 O474 2.563 . S
Eu431 O475 2.419 . S
Eu431 C495 2.848 . S
N432 C424 1.362 . S
N432 Eu431 2.657 . S
N432 C433 1.334 . S
C433 N432 1.334 . S
C433 C435 1.413 . S
C433 H440 0.929 . S
C434 C422 1.392 . S
C434 C435 1.367 . S
C434 H442 0.930 . S
C435 C433 1.413 . S
C435 C434 1.367 . S
C435 H437 0.930 . S
H436 C429 0.930 . S
H437 C435 0.930 . S
H438 C426 0.930 . S
H439 C427 0.930 . S
H440 C433 0.929 . S
H441 C455 0.930 . S
H442 C434 0.930 . S
H443 C461 0.930 . S
H444 C452 0.929 . S
H445 C459 0.930 . S
H446 C423 0.931 . S
H447 C453 0.930 . S
H448 C486 0.930 . S
H449 C430 0.930 . S
H450 C485 0.931 . S
N451 Eu420 2.657 . S
N451 C452 1.334 . S
N451 C456 1.362 . S
C452 H444 0.929 . S
C452 N451 1.334 . S
C452 C455 1.413 . S
C453 H447 0.930 . S
C453 C454 1.392 . S
C453 C455 1.367 . S
C454 C453 1.392 . S
C454 C456 1.420 . S
C454 C486 1.423 . S
C455 H441 0.930 . S
C455 C452 1.413 . S
C455 C453 1.367 . S
C456 N451 1.362 . S
C456 C454 1.420 . S
C456 C460 1.429 . S
H457 C462 0.930 . S
N458 Eu420 2.609 . S
N458 C460 1.377 . S
N458 C461 1.321 . S
C459 H445 0.930 . S
C459 C461 1.400 . S
C459 C462 1.386 . S
C460 C456 1.429 . S
C460 N458 1.377 . S
C460 C463 1.411 . S
C461 H443 0.930 . S
C461 N458 1.321 . S
C461 C459 1.400 . S
C462 H457 0.930 . S
C462 C459 1.386 . S
C462 C463 1.395 . S
C463 C460 1.411 . S
C463 C462 1.395 . S
C463 C485 1.420 . S
O464 Eu420 2.558 . S
O464 C484 1.257 . S
O465 Eu420 2.612 . S
O465 Eu431 2.380 . S
O465 C476 1.276 . S
O466 Eu431 2.432 . S
O466 C483 1.264 . S
O467 Eu420 2.339 . S
O467 C483 1.254 . S
O468 Eu420 2.563 . S
O468 C476 1.235 . S
O469 Eu420 2.419 . S
O469 C484 1.249 . S
O470 Eu431 2.558 . S
O470 C495 1.257 . S
O471 Eu420 2.380 . S
O471 Eu431 2.612 . S
O471 C487 1.276 . S
O472 Eu420 2.432 . S
O472 C494 1.264 . S
O473 Eu431 2.339 . S
O473 C494 1.254 . S
O474 Eu431 2.563 . S
O474 C487 1.235 . S
O475 Eu431 2.419 . S
O475 C495 1.249 . S
C476 O465 1.276 . S
C476 O468 1.235 . S
C477 C479 1.393 . S
C477 C481 1.395 . S
C477 C484 1.492 . S
C478 C479 1.392 . S
C478 C480 1.386 . S
C479 C477 1.393 . S
C479 C478 1.392 . S
C479 H496 0.930 . S
C480 C478 1.386 . S
C480 C482 1.395 . S
C480 H497 0.930 . S
C481 C477 1.395 . S
C481 C482 1.379 . S
C481 H498 0.930 . S
C482 C480 1.395 . S
C482 C481 1.379 . S
C482 H499 0.930 . S
C483 O466 1.264 . S
C483 O467 1.254 . S
C484 Eu420 2.848 . S
C484 O464 1.257 . S
C484 O469 1.249 . S
C484 C477 1.492 . S
C485 H450 0.931 . S
C485 C463 1.420 . S
C485 C486 1.351 . S
C486 H448 0.930 . S
C486 C454 1.423 . S
C486 C485 1.351 . S
C487 O471 1.276 . S
C487 O474 1.235 . S
C488 C489 1.393 . S
C488 C492 1.395 . S
C488 C495 1.492 . S
C489 C488 1.393 . S
C489 C490 1.392 . S
C489 H500 0.930 . S
C490 C489 1.392 . S
C490 C491 1.386 . S
C491 C490 1.386 . S
C491 C493 1.395 . S
C491 H501 0.930 . S
C492 C488 1.395 . S
C492 C493 1.379 . S
C492 H502 0.930 . S
C493 C491 1.395 . S
C493 C492 1.379 . S
C493 H503 0.930 . S
C494 O472 1.264 . S
C494 O473 1.254 . S
C495 Eu431 2.848 . S
C495 O470 1.257 . S
C495 O475 1.249 . S
C495 C488 1.492 . S
H496 C479 0.930 . S
H497 C480 0.930 . S
H498 C481 0.930 . S
H499 C482 0.930 . S
H500 C489 0.930 . S
H501 C491 0.930 . S
H502 C492 0.930 . S
H503 C493 0.930 . S
Eu504 N535 2.657 . S
Eu504 N542 2.609 . S
Eu504 O548 2.558 . S
Eu504 O549 2.612 . S
Eu504 O551 2.339 . S
Eu504 O552 2.563 . S
Eu504 O553 2.419 . S
Eu504 O555 2.380 . S
Eu504 O556 2.432 . S
Eu504 C568 2.848 . S
C505 C508 1.429 . S
C505 C509 1.411 . S
C505 N512 1.377 . S
C506 C508 1.420 . S
C506 C510 1.423 . S
C506 C518 1.392 . S
C507 C509 1.420 . S
C507 C510 1.351 . S
C507 H530 0.931 . S
C508 C505 1.429 . S
C508 C506 1.420 . S
C508 N516 1.362 . S
C509 C505 1.411 . S
C509 C507 1.420 . S
C509 C514 1.395 . S
C510 C506 1.423 . S
C510 C507 1.351 . S
C510 H522 0.930 . S
C511 C513 1.400 . S
C511 C514 1.386 . S
C511 H523 0.930 . S
N512 C505 1.377 . S
N512 C513 1.321 . S
N512 Eu515 2.609 . S
C513 C511 1.400 . S
C513 N512 1.321 . S
C513 H520 0.930 . S
C514 C509 1.395 . S
C514 C511 1.386 . S
C514 H533 0.930 . S
Eu515 N512 2.609 . S
Eu515 N516 2.657 . S
Eu515 O549 2.380 . S
Eu515 O550 2.432 . S
Eu515 O554 2.558 . S
Eu515 O555 2.612 . S
Eu515 O557 2.339 . S
Eu515 O558 2.563 . S
Eu515 O559 2.419 . S
Eu515 C579 2.848 . S
N516 C508 1.362 . S
N516 Eu515 2.657 . S
N516 C517 1.334 . S
C517 N516 1.334 . S
C517 C519 1.413 . S
C517 H524 0.929 . S
C518 C506 1.392 . S
C518 C519 1.367 . S
C518 H526 0.930 . S
C519 C517 1.413 . S
C519 C518 1.367 . S
C519 H521 0.930 . S
H520 C513 0.930 . S
H521 C519 0.930 . S
H522 C510 0.930 . S
H523 C511 0.930 . S
H524 C517 0.929 . S
H525 C539 0.930 . S
H526 C518 0.930 . S
H527 C545 0.930 . S
H528 C536 0.929 . S
H529 C543 0.930 . S
H530 C507 0.931 . S
H531 C537 0.930 . S
H532 C570 0.930 . S
H533 C514 0.930 . S
H534 C569 0.931 . S
N535 Eu504 2.657 . S
N535 C536 1.334 . S
N535 C540 1.362 . S
C536 H528 0.929 . S
C536 N535 1.334 . S
C536 C539 1.413 . S
C537 H531 0.930 . S
C537 C538 1.392 . S
C537 C539 1.367 . S
C538 C537 1.392 . S
C538 C540 1.420 . S
C538 C570 1.423 . S
C539 H525 0.930 . S
C539 C536 1.413 . S
C539 C537 1.367 . S
C540 N535 1.362 . S
C540 C538 1.420 . S
C540 C544 1.429 . S
H541 C546 0.930 . S
N542 Eu504 2.609 . S
N542 C544 1.377 . S
N542 C545 1.321 . S
C543 H529 0.930 . S
C543 C545 1.400 . S
C543 C546 1.386 . S
C544 C540 1.429 . S
C544 N542 1.377 . S
C544 C547 1.411 . S
C545 H527 0.930 . S
C545 N542 1.321 . S
C545 C543 1.400 . S
C546 H541 0.930 . S
C546 C543 1.386 . S
C546 C547 1.395 . S
C547 C544 1.411 . S
C547 C546 1.395 . S
C547 C569 1.420 . S
O548 Eu504 2.558 . S
O548 C568 1.257 . S
O549 Eu504 2.612 . S
O549 Eu515 2.380 . S
O549 C560 1.276 . S
O550 Eu515 2.432 . S
O550 C567 1.264 . S
O551 Eu504 2.339 . S
O551 C567 1.254 . S
O552 Eu504 2.563 . S
O552 C560 1.235 . S
O553 Eu504 2.419 . S
O553 C568 1.249 . S
O554 Eu515 2.558 . S
O554 C579 1.257 . S
O555 Eu504 2.380 . S
O555 Eu515 2.612 . S
O555 C571 1.276 . S
O556 Eu504 2.432 . S
O556 C578 1.264 . S
O557 Eu515 2.339 . S
O557 C578 1.254 . S
O558 Eu515 2.563 . S
O558 C571 1.235 . S
O559 Eu515 2.419 . S
O559 C579 1.249 . S
C560 O549 1.276 . S
C560 O552 1.235 . S
C561 C563 1.393 . S
C561 C565 1.395 . S
C561 C568 1.492 . S
C562 C563 1.392 . S
C562 C564 1.386 . S
C563 C561 1.393 . S
C563 C562 1.392 . S
C563 H580 0.930 . S
C564 C562 1.386 . S
C564 C566 1.395 . S
C564 H581 0.930 . S
C565 C561 1.395 . S
C565 C566 1.379 . S
C565 H582 0.930 . S
C566 C564 1.395 . S
C566 C565 1.379 . S
C566 H583 0.930 . S
C567 O550 1.264 . S
C567 O551 1.254 . S
C568 Eu504 2.848 . S
C568 O548 1.257 . S
C568 O553 1.249 . S
C568 C561 1.492 . S
C569 H534 0.931 . S
C569 C547 1.420 . S
C569 C570 1.351 . S
C570 H532 0.930 . S
C570 C538 1.423 . S
C570 C569 1.351 . S
C571 O555 1.276 . S
C571 O558 1.235 . S
C572 C573 1.393 . S
C572 C576 1.395 . S
C572 C579 1.492 . S
C573 C572 1.393 . S
C573 C574 1.392 . S
C573 H584 0.930 . S
C574 C573 1.392 . S
C574 C575 1.386 . S
C575 C574 1.386 . S
C575 C577 1.395 . S
C575 H585 0.930 . S
C576 C572 1.395 . S
C576 C577 1.379 . S
C576 H586 0.930 . S
C577 C575 1.395 . S
C577 C576 1.379 . S
C577 H587 0.930 . S
C578 O556 1.264 . S
C578 O557 1.254 . S
C579 Eu515 2.848 . S
C579 O554 1.257 . S
C579 O559 1.249 . S
C579 C572 1.492 . S
H580 C563 0.930 . S
H581 C564 0.930 . S
H582 C565 0.930 . S
H583 C566 0.930 . S
H584 C573 0.930 . S
H585 C575 0.930 . S
H586 C576 0.930 . S
H587 C577 0.930 . S
Eu588 N619 2.657 . S
Eu588 N626 2.609 . S
Eu588 O632 2.558 . S
Eu588 O633 2.612 . S
Eu588 O635 2.339 . S
Eu588 O636 2.563 . S
Eu588 O637 2.419 . S
Eu588 O639 2.380 . S
Eu588 O640 2.432 . S
Eu588 C652 2.848 . S
C589 C592 1.429 . S
C589 C593 1.411 . S
C589 N596 1.377 . S
C590 C592 1.420 . S
C590 C594 1.423 . S
C590 C602 1.392 . S
C591 C593 1.420 . S
C591 C594 1.351 . S
C591 H614 0.931 . S
C592 C589 1.429 . S
C592 C590 1.420 . S
C592 N600 1.362 . S
C593 C589 1.411 . S
C593 C591 1.420 . S
C593 C598 1.395 . S
C594 C590 1.423 . S
C594 C591 1.351 . S
C594 H606 0.930 . S
C595 C597 1.400 . S
C595 C598 1.386 . S
C595 H607 0.930 . S
N596 C589 1.377 . S
N596 C597 1.321 . S
N596 Eu599 2.609 . S
C597 C595 1.400 . S
C597 N596 1.321 . S
C597 H604 0.930 . S
C598 C593 1.395 . S
C598 C595 1.386 . S
C598 H617 0.930 . S
Eu599 N596 2.609 . S
Eu599 N600 2.657 . S
Eu599 O633 2.380 . S
Eu599 O634 2.432 . S
Eu599 O638 2.558 . S
Eu599 O639 2.612 . S
Eu599 O641 2.339 . S
Eu599 O642 2.563 . S
Eu599 O643 2.419 . S
Eu599 C663 2.848 . S
N600 C592 1.362 . S
N600 Eu599 2.657 . S
N600 C601 1.334 . S
C601 N600 1.334 . S
C601 C603 1.413 . S
C601 H608 0.929 . S
C602 C590 1.392 . S
C602 C603 1.367 . S
C602 H610 0.930 . S
C603 C601 1.413 . S
C603 C602 1.367 . S
C603 H605 0.930 . S
H604 C597 0.930 . S
H605 C603 0.930 . S
H606 C594 0.930 . S
H607 C595 0.930 . S
H608 C601 0.929 . S
H609 C623 0.930 . S
H610 C602 0.930 . S
H611 C629 0.930 . S
H612 C620 0.929 . S
H613 C627 0.930 . S
H614 C591 0.931 . S
H615 C621 0.930 . S
H616 C654 0.930 . S
H617 C598 0.930 . S
H618 C653 0.931 . S
N619 Eu588 2.657 . S
N619 C620 1.334 . S
N619 C624 1.362 . S
C620 H612 0.929 . S
C620 N619 1.334 . S
C620 C623 1.413 . S
C621 H615 0.930 . S
C621 C622 1.392 . S
C621 C623 1.367 . S
C622 C621 1.392 . S
C622 C624 1.420 . S
C622 C654 1.423 . S
C623 H609 0.930 . S
C623 C620 1.413 . S
C623 C621 1.367 . S
C624 N619 1.362 . S
C624 C622 1.420 . S
C624 C628 1.429 . S
H625 C630 0.930 . S
N626 Eu588 2.609 . S
N626 C628 1.377 . S
N626 C629 1.321 . S
C627 H613 0.930 . S
C627 C629 1.400 . S
C627 C630 1.386 . S
C628 C624 1.429 . S
C628 N626 1.377 . S
C628 C631 1.411 . S
C629 H611 0.930 . S
C629 N626 1.321 . S
C629 C627 1.400 . S
C630 H625 0.930 . S
C630 C627 1.386 . S
C630 C631 1.395 . S
C631 C628 1.411 . S
C631 C630 1.395 . S
C631 C653 1.420 . S
O632 Eu588 2.558 . S
O632 C652 1.257 . S
O633 Eu588 2.612 . S
O633 Eu599 2.380 . S
O633 C644 1.276 . S
O634 Eu599 2.432 . S
O634 C651 1.264 . S
O635 Eu588 2.339 . S
O635 C651 1.254 . S
O636 Eu588 2.563 . S
O636 C644 1.235 . S
O637 Eu588 2.419 . S
O637 C652 1.249 . S
O638 Eu599 2.558 . S
O638 C663 1.257 . S
O639 Eu588 2.380 . S
O639 Eu599 2.612 . S
O639 C655 1.276 . S
O640 Eu588 2.432 . S
O640 C662 1.264 . S
O641 Eu599 2.339 . S
O641 C662 1.254 . S
O642 Eu599 2.563 . S
O642 C655 1.235 . S
O643 Eu599 2.419 . S
O643 C663 1.249 . S
C644 O633 1.276 . S
C644 O636 1.235 . S
C645 C647 1.393 . S
C645 C649 1.395 . S
C645 C652 1.492 . S
C646 C647 1.392 . S
C646 C648 1.386 . S
C647 C645 1.393 . S
C647 C646 1.392 . S
C647 H664 0.930 . S
C648 C646 1.386 . S
C648 C650 1.395 . S
C648 H665 0.930 . S
C649 C645 1.395 . S
C649 C650 1.379 . S
C649 H666 0.930 . S
C650 C648 1.395 . S
C650 C649 1.379 . S
C650 H667 0.930 . S
C651 O634 1.264 . S
C651 O635 1.254 . S
C652 Eu588 2.848 . S
C652 O632 1.257 . S
C652 O637 1.249 . S
C652 C645 1.492 . S
C653 H618 0.931 . S
C653 C631 1.420 . S
C653 C654 1.351 . S
C654 H616 0.930 . S
C654 C622 1.423 . S
C654 C653 1.351 . S
C655 O639 1.276 . S
C655 O642 1.235 . S
C656 C657 1.393 . S
C656 C660 1.395 . S
C656 C663 1.492 . S
C657 C656 1.393 . S
C657 C658 1.392 . S
C657 H668 0.930 . S
C658 C657 1.392 . S
C658 C659 1.386 . S
C659 C658 1.386 . S
C659 C661 1.395 . S
C659 H669 0.930 . S
C660 C656 1.395 . S
C660 C661 1.379 . S
C660 H670 0.930 . S
C661 C659 1.395 . S
C661 C660 1.379 . S
C661 H671 0.930 . S
C662 O640 1.264 . S
C662 O641 1.254 . S
C663 Eu599 2.848 . S
C663 O638 1.257 . S
C663 O643 1.249 . S
C663 C656 1.492 . S
H664 C647 0.930 . S
H665 C648 0.930 . S
H666 C649 0.930 . S
H667 C650 0.930 . S
H668 C657 0.930 . S
H669 C659 0.930 . S
H670 C660 0.930 . S
H671 C661 0.930 . S
Cd672 N675 2.334 1_655 S
Cd672 N701 2.304 1_565 S
Cd672 O708 2.268 . S
Cd672 O711 2.273 1_665 S
Cd672 O712 2.417 . S
Cd672 O713 2.330 . S
Cd673 N688 2.304 1_455 S
Cd673 N692 2.334 1_545 S
Cd673 O709 2.273 1_445 S
Cd673 O710 2.268 . S
Cd673 O714 2.417 . S
Cd673 O715 2.330 . S
C674 N675 1.332 . S
C674 C678 1.381 . S
C674 H680 0.931 . S
N675 Cd672 2.334 1_455 S
N675 C674 1.332 . S
N675 C679 1.328 . S
C676 C677 1.396 . S
C676 C679 1.378 . S
C676 H718 0.931 . S
C677 C676 1.396 . S
C677 C678 1.382 . S
C678 C674 1.381 . S
C678 C677 1.382 . S
C678 H719 0.930 . S
C679 N675 1.328 . S
C679 C676 1.378 . S
C679 H681 0.930 1_455 S
H680 C674 0.931 . S
H681 C679 0.930 1_655 S
C682 O708 1.238 . S
C682 O709 1.253 . S
C683 C684 1.379 . S
C683 N688 1.337 . S
C683 H689 0.929 . S
C684 C683 1.379 . S
C684 C685 1.380 . S
C684 H720 0.929 . S
C685 C684 1.380 . S
C685 C686 1.399 . S
C686 C685 1.399 . S
C686 C687 1.376 . S
C686 H721 0.931 . S
C687 C686 1.376 . S
C687 N688 1.338 . S
C687 H690 0.930 1_655 S
N688 Cd673 2.304 1_655 S
N688 C683 1.337 . S
N688 C687 1.338 . S
H689 C683 0.929 . S
H690 C687 0.930 1_455 S
C691 N692 1.332 . S
C691 C695 1.381 . S
C691 H697 0.931 . S
N692 Cd673 2.334 1_565 S
N692 C691 1.332 . S
N692 C696 1.328 . S
C693 C694 1.396 . S
C693 C696 1.378 . S
C693 H722 0.931 . S
C694 C693 1.396 . S
C694 C695 1.382 . S
C695 C691 1.381 . S
C695 C694 1.382 . S
C695 H723 0.930 . S
C696 N692 1.328 . S
C696 C693 1.378 . S
C696 H698 0.930 1_565 S
H697 C691 0.931 . S
H698 C696 0.930 1_545 S
C699 O710 1.238 . S
C699 O711 1.253 . S
C700 O712 1.239 . S
C700 O713 1.230 . S
N701 Cd672 2.304 1_545 S
N701 C702 1.337 . S
N701 C706 1.338 . S
C702 N701 1.337 . S
C702 C703 1.379 . S
C702 H716 0.929 . S
C703 C702 1.379 . S
C703 C704 1.380 . S
C703 H724 0.929 . S
C704 C703 1.380 . S
C704 C705 1.399 . S
C705 C704 1.399 . S
C705 C706 1.376 . S
C705 H725 0.931 . S
C706 N701 1.338 . S
C706 C705 1.376 . S
C706 H717 0.930 1_545 S
C707 O714 1.239 . S
C707 O715 1.230 . S
O708 Cd672 2.268 . S
O708 C682 1.238 . S
O709 Cd673 2.273 1_665 S
O709 C682 1.253 . S
O710 Cd673 2.268 . S
O710 C699 1.238 . S
O711 Cd672 2.273 1_445 S
O711 C699 1.253 . S
O712 Cd672 2.417 . S
O712 C700 1.239 . S
O713 Cd672 2.330 . S
O713 C700 1.230 . S
O714 Cd673 2.417 . S
O714 C707 1.239 . S
O715 Cd673 2.330 . S
O715 C707 1.230 . S
H716 C702 0.929 . S
H717 C706 0.930 1_565 S
H718 C676 0.931 . S
H719 C678 0.930 . S
H720 C684 0.929 . S
H721 C686 0.931 . S
H722 C693 0.931 . S
H723 C695 0.930 . S
H724 C703 0.929 . S
H725 C705 0.931 . S
Cd726 N729 2.334 . S
Cd726 N755 2.304 1_565 S
Cd726 O762 2.268 1_554 S
Cd726 O765 2.273 1_565 S
Cd726 O766 2.417 . S
Cd726 O767 2.330 . S
Cd727 N742 2.304 . S
Cd727 N746 2.334 1_545 S
Cd727 O763 2.273 1_545 S
Cd727 O764 2.268 1_556 S
Cd727 O768 2.417 . S
Cd727 O769 2.330 . S
C728 N729 1.332 . S
C728 C732 1.381 . S
C728 H734 0.931 . S
N729 Cd726 2.334 . S
N729 C728 1.332 . S
N729 C733 1.328 . S
C730 C731 1.396 . S
C730 C733 1.378 . S
C730 H772 0.931 . S
C731 C730 1.396 . S
C731 C732 1.382 . S
C732 C728 1.381 . S
C732 C731 1.382 . S
C732 H773 0.930 . S
C733 N729 1.328 . S
C733 C730 1.378 . S
C733 H735 0.928 . S
H734 C728 0.931 . S
H735 C733 0.928 . S
C736 O762 1.238 . S
C736 O763 1.253 . S
C737 C738 1.379 . S
C737 N742 1.337 . S
C737 H743 0.929 . S
C738 C737 1.379 . S
C738 C739 1.380 . S
C738 H774 0.929 . S
C739 C738 1.380 . S
C739 C740 1.399 . S
C740 C739 1.399 . S
C740 C741 1.376 . S
C740 H775 0.950 . S
C741 C740 1.376 . S
C741 N742 1.338 . S
C741 H744 0.930 1_556 S
N742 Cd727 2.304 . S
N742 C737 1.337 . S
N742 C741 1.338 . S
H743 C737 0.929 . S
H744 C741 0.930 1_554 S
C745 N746 1.332 . S
C745 C749 1.381 . S
C745 H751 0.931 . S
N746 Cd727 2.334 1_565 S
N746 C745 1.332 . S
N746 C750 1.328 . S
C747 C748 1.396 . S
C747 C750 1.378 . S
C747 H776 0.931 1_556 S
C748 C747 1.396 . S
C748 C749 1.382 . S
C749 C745 1.381 . S
C749 C748 1.382 . S
C749 H777 0.930 . S
C750 N746 1.328 . S
C750 C747 1.378 . S
C750 H752 0.930 1_566 S
H751 C745 0.931 . S
H752 C750 0.930 1_544 S
C753 O764 1.238 . S
C753 O765 1.253 . S
C754 O766 1.239 . S
C754 O767 1.230 . S
N755 Cd726 2.304 1_545 S
N755 C756 1.337 . S
N755 C760 1.338 . S
C756 N755 1.337 . S
C756 C757 1.379 . S
C756 H770 0.929 . S
C757 C756 1.379 . S
C757 C758 1.380 . S
C757 H778 0.929 . S
C758 C757 1.380 . S
C758 C759 1.399 . S
C759 C758 1.399 . S
C759 C760 1.376 . S
C759 H779 0.931 1_554 S
C760 N755 1.338 . S
C760 C759 1.376 . S
C760 H771 0.930 1_544 S
C761 O768 1.239 . S
C761 O769 1.230 . S
O762 Cd726 2.268 1_556 S
O762 C736 1.238 . S
O763 Cd727 2.273 1_565 S
O763 C736 1.253 . S
O764 Cd727 2.268 1_554 S
O764 C753 1.238 . S
O765 Cd726 2.273 1_545 S
O765 C753 1.253 . S
O766 Cd726 2.417 . S
O766 C754 1.239 . S
O767 Cd726 2.330 . S
O767 C754 1.230 . S
O768 Cd727 2.417 . S
O768 C761 1.239 . S
O769 Cd727 2.330 . S
O769 C761 1.230 . S
H770 C756 0.929 . S
H771 C760 0.930 1_566 S
H772 C730 0.931 . S
H773 C732 0.930 . S
H774 C738 0.929 . S
H775 C740 0.950 . S
H776 C747 0.931 1_554 S
H777 C749 0.930 . S
H778 C757 0.929 . S
H779 C759 0.931 1_556 S
Cd780 N783 2.334 1_655 S
Cd780 N809 2.304 . S
Cd780 O816 2.268 1_554 S
Cd780 O819 2.273 1_655 S
Cd780 O820 2.417 . S
Cd780 O821 2.330 . S
Cd781 N796 2.304 1_455 S
Cd781 N800 2.334 . S
Cd781 O817 2.273 1_455 S
Cd781 O818 2.268 1_556 S
Cd781 O822 2.417 . S
Cd781 O823 2.330 . S
C782 N783 1.332 . S
C782 C786 1.381 . S
C782 H788 0.931 . S
N783 Cd780 2.334 1_455 S
N783 C782 1.332 . S
N783 C787 1.328 . S
C784 C785 1.396 . S
C784 C787 1.378 . S
C784 H826 0.931 . S
C785 C784 1.396 . S
C785 C786 1.382 . S
C786 C782 1.381 . S
C786 C785 1.382 . S
C786 H827 0.930 . S
C787 N783 1.328 . S
C787 C784 1.378 . S
C787 H789 0.928 1_455 S
H788 C782 0.931 . S
H789 C787 0.928 1_655 S
C790 O816 1.238 . S
C790 O817 1.253 . S
C791 C792 1.379 . S
C791 N796 1.337 . S
C791 H797 0.929 . S
C792 C791 1.379 . S
C792 C793 1.380 . S
C792 H828 0.929 . S
C793 C792 1.380 . S
C793 C794 1.399 . S
C794 C793 1.399 . S
C794 C795 1.376 . S
C794 H829 0.950 . S
C795 C794 1.376 . S
C795 N796 1.338 . S
C795 H798 0.930 1_656 S
N796 Cd781 2.304 1_655 S
N796 C791 1.337 . S
N796 C795 1.338 . S
H797 C791 0.929 . S
H798 C795 0.930 1_454 S
C799 N800 1.332 . S
C799 C803 1.381 . S
C799 H805 0.931 . S
N800 Cd781 2.334 . S
N800 C799 1.332 . S
N800 C804 1.328 . S
C801 C802 1.396 . S
C801 C804 1.378 . S
C801 H830 0.931 1_556 S
C802 C801 1.396 . S
C802 C803 1.382 . S
C803 C799 1.381 . S
C803 C802 1.382 . S
C803 H831 0.930 . S
C804 N800 1.328 . S
C804 C801 1.378 . S
C804 H806 0.930 1_556 S
H805 C799 0.931 . S
H806 C804 0.930 1_554 S
C807 O818 1.238 . S
C807 O819 1.253 . S
C808 O820 1.239 . S
C808 O821 1.230 . S
N809 Cd780 2.304 . S
N809 C810 1.337 . S
N809 C814 1.338 . S
C810 N809 1.337 . S
C810 C811 1.379 . S
C810 H824 0.929 . S
C811 C810 1.379 . S
C811 C812 1.380 . S
C811 H832 0.929 . S
C812 C811 1.380 . S
C812 C813 1.399 . S
C813 C812 1.399 . S
C813 C814 1.376 . S
C813 H833 0.931 1_554 S
C814 N809 1.338 . S
C814 C813 1.376 . S
C814 H825 0.930 1_554 S
C815 O822 1.239 . S
C815 O823 1.230 . S
O816 Cd780 2.268 1_556 S
O816 C790 1.238 . S
O817 Cd781 2.273 1_655 S
O817 C790 1.253 . S
O818 Cd781 2.268 1_554 S
O818 C807 1.238 . S
O819 Cd780 2.273 1_455 S
O819 C807 1.253 . S
O820 Cd780 2.417 . S
O820 C808 1.239 . S
O821 Cd780 2.330 . S
O821 C808 1.230 . S
O822 Cd781 2.417 . S
O822 C815 1.239 . S
O823 Cd781 2.330 . S
O823 C815 1.230 . S
H824 C810 0.929 . S
H825 C814 0.930 1_556 S
H826 C784 0.931 . S
H827 C786 0.930 . S
H828 C792 0.929 . S
H829 C794 0.950 . S
H830 C801 0.931 1_554 S
H831 C803 0.930 . S
H832 C811 0.929 . S
H833 C813 0.931 1_556 S
Cd834 N837 2.334 . S
Cd834 N863 2.304 . S
Cd834 O870 2.268 1_554 S
Cd834 O873 2.273 . S
Cd834 O874 2.417 . S
Cd834 O875 2.330 . S
Cd835 N850 2.304 . S
Cd835 N854 2.334 . S
Cd835 O871 2.273 . S
Cd835 O872 2.268 1_556 S
Cd835 O876 2.417 . S
Cd835 O877 2.330 . S
C836 N837 1.332 . S
C836 C840 1.381 . S
C836 H842 0.931 . S
N837 Cd834 2.334 . S
N837 C836 1.332 . S
N837 C841 1.328 . S
C838 C839 1.396 . S
C838 C841 1.378 . S
C838 H880 0.931 . S
C839 C838 1.396 . S
C839 C840 1.382 . S
C840 C836 1.381 . S
C840 C839 1.382 . S
C840 H881 0.930 . S
C841 N837 1.328 . S
C841 C838 1.378 . S
C841 H843 0.932 1_554 S
H842 C836 0.931 . S
H843 C841 0.932 1_556 S
C844 O870 1.238 . S
C844 O871 1.253 . S
C845 C846 1.379 . S
C845 N850 1.337 . S
C845 H851 0.929 . S
C846 C845 1.379 . S
C846 C847 1.380 . S
C846 H882 0.929 . S
C847 C846 1.380 . S
C847 C848 1.399 . S
C848 C847 1.399 . S
C848 C849 1.376 . S
C848 H883 0.951 . S
C849 C848 1.376 . S
C849 N850 1.338 . S
C849 H852 0.930 1_556 S
N850 Cd835 2.304 . S
N850 C845 1.337 . S
N850 C849 1.338 . S
H851 C845 0.929 . S
H852 C849 0.930 1_554 S
C853 N854 1.332 . S
C853 C857 1.381 . S
C853 H859 0.931 . S
N854 Cd835 2.334 . S
N854 C853 1.332 . S
N854 C858 1.328 . S
C855 C856 1.396 . S
C855 C858 1.378 . S
C855 H884 0.931 1_556 S
C856 C855 1.396 . S
C856 C857 1.382 . S
C857 C853 1.381 . S
C857 C856 1.382 . S
C857 H885 0.930 . S
C858 N854 1.328 . S
C858 C855 1.378 . S
C858 H860 0.930 1_556 S
H859 C853 0.931 . S
H860 C858 0.930 1_554 S
C861 O872 1.238 . S
C861 O873 1.253 . S
C862 O874 1.239 . S
C862 O875 1.230 . S
N863 Cd834 2.304 . S
N863 C864 1.337 . S
N863 C868 1.338 . S
C864 N863 1.337 . S
C864 C865 1.379 . S
C864 H878 0.929 . S
C865 C864 1.379 . S
C865 C866 1.380 . S
C865 H886 0.929 . S
C866 C865 1.380 . S
C866 C867 1.399 . S
C867 C866 1.399 . S
C867 C868 1.376 . S
C867 H887 0.931 1_554 S
C868 N863 1.338 . S
C868 C867 1.376 . S
C868 H879 0.930 1_554 S
C869 O876 1.239 . S
C869 O877 1.230 . S
O870 Cd834 2.268 1_556 S
O870 C844 1.238 . S
O871 Cd835 2.273 . S
O871 C844 1.253 . S
O872 Cd835 2.268 1_554 S
O872 C861 1.238 . S
O873 Cd834 2.273 . S
O873 C861 1.253 . S
O874 Cd834 2.417 . S
O874 C862 1.239 . S
O875 Cd834 2.330 . S
O875 C862 1.230 . S
O876 Cd835 2.417 . S
O876 C869 1.239 . S
O877 Cd835 2.330 . S
O877 C869 1.230 . S
H878 C864 0.929 . S
H879 C868 0.930 1_556 S
H880 C838 0.931 . S
H881 C840 0.930 . S
H882 C846 0.929 . S
H883 C848 0.951 . S
H884 C855 0.931 1_554 S
H885 C857 0.930 . S
H886 C865 0.929 . S
H887 C867 0.931 1_556 S
Cd888 N891 2.334 1_655 S
Cd888 N917 2.304 . S
Cd888 O924 2.268 . S
Cd888 O927 2.273 1_655 S
Cd888 O928 2.417 . S
Cd888 O929 2.330 . S
Cd889 N904 2.304 1_455 S
Cd889 N908 2.334 . S
Cd889 O925 2.273 1_455 S
Cd889 O926 2.268 . S
Cd889 O930 2.417 . S
Cd889 O931 2.330 . S
C890 N891 1.332 . S
C890 C894 1.381 . S
C890 H896 0.931 . S
N891 Cd888 2.334 1_455 S
N891 C890 1.332 . S
N891 C895 1.328 . S
C892 C893 1.396 . S
C892 C895 1.378 . S
C892 H934 0.931 . S
C893 C892 1.396 . S
C893 C894 1.382 . S
C894 C890 1.381 . S
C894 C893 1.382 . S
C894 H935 0.930 . S
C895 N891 1.328 . S
C895 C892 1.378 . S
C895 H897 0.930 1_455 S
H896 C890 0.931 . S
H897 C895 0.930 1_655 S
C898 O924 1.238 . S
C898 O925 1.253 . S
C899 C900 1.379 . S
C899 N904 1.337 . S
C899 H905 0.929 . S
C900 C899 1.379 . S
C900 C901 1.380 . S
C900 H936 0.929 . S
C901 C900 1.380 . S
C901 C902 1.399 . S
C902 C901 1.399 . S
C902 C903 1.376 . S
C902 H937 0.931 . S
C903 C902 1.376 . S
C903 N904 1.338 . S
C903 H906 0.930 1_655 S
N904 Cd889 2.304 1_655 S
N904 C899 1.337 . S
N904 C903 1.338 . S
H905 C899 0.929 . S
H906 C903 0.930 1_455 S
C907 N908 1.332 . S
C907 C911 1.381 . S
C907 H913 0.931 . S
N908 Cd889 2.334 . S
N908 C907 1.332 . S
N908 C912 1.328 . S
C909 C910 1.396 . S
C909 C912 1.378 . S
C909 H938 0.931 . S
C910 C909 1.396 . S
C910 C911 1.382 . S
C911 C907 1.381 . S
C911 C910 1.382 . S
C911 H939 0.930 . S
C912 N908 1.328 . S
C912 C909 1.378 . S
C912 H914 0.930 . S
H913 C907 0.931 . S
H914 C912 0.930 . S
C915 O926 1.238 . S
C915 O927 1.253 . S
C916 O928 1.239 . S
C916 O929 1.230 . S
N917 Cd888 2.304 . S
N917 C918 1.337 . S
N917 C922 1.338 . S
C918 N917 1.337 . S
C918 C919 1.379 . S
C918 H932 0.929 . S
C919 C918 1.379 . S
C919 C920 1.380 . S
C919 H940 0.929 . S
C920 C919 1.380 . S
C920 C921 1.399 . S
C921 C920 1.399 . S
C921 C922 1.376 . S
C921 H941 0.931 . S
C922 N917 1.338 . S
C922 C921 1.376 . S
C922 H933 0.930 . S
C923 O930 1.239 . S
C923 O931 1.230 . S
O924 Cd888 2.268 . S
O924 C898 1.238 . S
O925 Cd889 2.273 1_655 S
O925 C898 1.253 . S
O926 Cd889 2.268 . S
O926 C915 1.238 . S
O927 Cd888 2.273 1_455 S
O927 C915 1.253 . S
O928 Cd888 2.417 . S
O928 C916 1.239 . S
O929 Cd888 2.330 . S
O929 C916 1.230 . S
O930 Cd889 2.417 . S
O930 C923 1.239 . S
O931 Cd889 2.330 . S
O931 C923 1.230 . S
H932 C918 0.929 . S
H933 C922 0.930 . S
H934 C892 0.931 . S
H935 C894 0.930 . S
H936 C900 0.929 . S
H937 C902 0.931 . S
H938 C909 0.931 . S
H939 C911 0.930 . S
H940 C919 0.929 . S
H941 C921 0.931 . S
Cd942 N945 2.334 . S
Cd942 N971 2.304 1_565 S
Cd942 O978 2.268 . S
Cd942 O981 2.273 1_565 S
Cd942 O982 2.417 . S
Cd942 O983 2.330 . S
Cd943 N958 2.304 . S
Cd943 N962 2.334 1_545 S
Cd943 O979 2.273 1_545 S
Cd943 O980 2.268 . S
Cd943 O984 2.417 . S
Cd943 O985 2.330 . S
C944 N945 1.332 . S
C944 C948 1.381 . S
C944 H950 0.931 . S
N945 Cd942 2.334 . S
N945 C944 1.332 . S
N945 C949 1.328 . S
C946 C947 1.396 . S
C946 C949 1.378 . S
C946 H988 0.931 . S
C947 C946 1.396 . S
C947 C948 1.382 . S
C948 C944 1.381 . S
C948 C947 1.382 . S
C948 H989 0.930 . S
C949 N945 1.328 . S
C949 C946 1.378 . S
C949 H951 0.930 . S
H950 C944 0.931 . S
H951 C949 0.930 . S
C952 O978 1.238 . S
C952 O979 1.253 . S
C953 C954 1.379 . S
C953 N958 1.337 . S
C953 H959 0.929 . S
C954 C953 1.379 . S
C954 C955 1.380 . S
C954 H990 0.929 . S
C955 C954 1.380 . S
C955 C956 1.399 . S
C956 C955 1.399 . S
C956 C957 1.376 . S
C956 H991 0.931 . S
C957 C956 1.376 . S
C957 N958 1.338 . S
C957 H960 0.930 . S
N958 Cd943 2.304 . S
N958 C953 1.337 . S
N958 C957 1.338 . S
H959 C953 0.929 . S
H960 C957 0.930 . S
C961 N962 1.332 . S
C961 C965 1.381 . S
C961 H967 0.931 . S
N962 Cd943 2.334 1_565 S
N962 C961 1.332 . S
N962 C966 1.328 . S
C963 C964 1.396 . S
C963 C966 1.378 . S
C963 H992 0.931 . S
C964 C963 1.396 . S
C964 C965 1.382 . S
C965 C961 1.381 . S
C965 C964 1.382 . S
C965 H993 0.930 . S
C966 N962 1.328 . S
C966 C963 1.378 . S
C966 H968 0.930 1_565 S
H967 C961 0.931 . S
H968 C966 0.930 1_545 S
C969 O980 1.238 . S
C969 O981 1.253 . S
C970 O982 1.239 . S
C970 O983 1.230 . S
N971 Cd942 2.304 1_545 S
N971 C972 1.337 . S
N971 C976 1.338 . S
C972 N971 1.337 . S
C972 C973 1.379 . S
C972 H986 0.929 . S
C973 C972 1.379 . S
C973 C974 1.380 . S
C973 H994 0.929 . S
C974 C973 1.380 . S
C974 C975 1.399 . S
C975 C974 1.399 . S
C975 C976 1.376 . S
C975 H995 0.931 . S
C976 N971 1.338 . S
C976 C975 1.376 . S
C976 H987 0.930 1_545 S
C977 O984 1.239 . S
C977 O985 1.230 . S
O978 Cd942 2.268 . S
O978 C952 1.238 . S
O979 Cd943 2.273 1_565 S
O979 C952 1.253 . S
O980 Cd943 2.268 . S
O980 C969 1.238 . S
O981 Cd942 2.273 1_545 S
O981 C969 1.253 . S
O982 Cd942 2.417 . S
O982 C970 1.239 . S
O983 Cd942 2.330 . S
O983 C970 1.230 . S
O984 Cd943 2.417 . S
O984 C977 1.239 . S
O985 Cd943 2.330 . S
O985 C977 1.230 . S
H986 C972 0.929 . S
H987 C976 0.930 1_565 S
H988 C946 0.931 . S
H989 C948 0.930 . S
H990 C954 0.929 . S
H991 C956 0.931 . S
H992 C963 0.931 . S
H993 C965 0.930 . S
H994 C973 0.929 . S
H995 C975 0.931 . S
H996 C1002 0.930 . S
H997 C1006 0.930 . S
H998 C1011 0.929 . S
H999 C1009 0.929 . S
H1000 C1004 0.929 . S
H1001 C1010 0.929 . S
C1002 H996 0.930 . S
C1002 C1003 1.367 . S
C1002 C1010 1.378 . S
C1003 C1002 1.367 . S
C1003 C1011 1.433 . S
C1004 H1000 0.929 . S
C1004 C1006 1.378 . S
C1004 C1008 1.350 . S
C1005 C1008 1.463 . S
C1005 C1010 1.350 . S
C1005 N1013 1.427 . S
C1006 H997 0.930 . S
C1006 C1004 1.378 . S
C1006 C1007 1.367 . S
C1007 C1006 1.367 . S
C1007 C1009 1.433 . S
C1008 C1004 1.350 . S
C1008 C1005 1.463 . S
C1008 N1012 1.427 . S
C1009 H999 0.929 . S
C1009 C1007 1.433 . S
C1009 N1012 1.384 . S
C1010 H1001 0.929 . S
C1010 C1002 1.378 . S
C1010 C1005 1.350 . S
C1011 H998 0.929 . S
C1011 C1003 1.433 . S
C1011 N1013 1.384 . S
N1012 C1008 1.427 . S
N1012 C1009 1.384 . S
N1013 C1005 1.427 . S
N1013 C1011 1.384 . S
H1014 C1020 0.930 . S
H1015 C1024 0.930 . S
H1016 C1029 0.929 . S
H1017 C1027 0.929 . S
H1018 C1022 0.929 . S
H1019 C1028 0.929 . S
C1020 H1014 0.930 . S
C1020 C1021 1.367 . S
C1020 C1028 1.378 . S
C1021 C1020 1.367 . S
C1021 C1029 1.433 . S
C1022 H1018 0.929 . S
C1022 C1024 1.378 . S
C1022 C1026 1.350 . S
C1023 C1026 1.463 . S
C1023 C1028 1.350 . S
C1023 N1031 1.427 . S
C1024 H1015 0.930 . S
C1024 C1022 1.378 . S
C1024 C1025 1.367 . S
C1025 C1024 1.367 . S
C1025 C1027 1.433 . S
C1026 C1022 1.350 . S
C1026 C1023 1.463 . S
C1026 N1030 1.427 . S
C1027 H1017 0.929 . S
C1027 C1025 1.433 . S
C1027 N1030 1.384 . S
C1028 H1019 0.929 . S
C1028 C1020 1.378 . S
C1028 C1023 1.350 . S
C1029 H1016 0.929 . S
C1029 C1021 1.433 . S
C1029 N1031 1.384 . S
N1030 C1026 1.427 . S
N1030 C1027 1.384 . S
N1031 C1023 1.427 . S
N1031 C1029 1.384 . S
H1032 C1038 0.930 . S
H1033 C1042 0.930 . S
H1034 C1047 0.929 . S
H1035 C1045 0.929 . S
H1036 C1040 0.929 . S
H1037 C1046 0.929 . S
C1038 H1032 0.930 . S
C1038 C1039 1.367 . S
C1038 C1046 1.378 . S
C1039 C1038 1.367 . S
C1039 C1047 1.433 . S
C1040 H1036 0.929 . S
C1040 C1042 1.378 . S
C1040 C1044 1.350 . S
C1041 C1044 1.463 . S
C1041 C1046 1.350 . S
C1041 N1049 1.427 . S
C1042 H1033 0.930 . S
C1042 C1040 1.378 . S
C1042 C1043 1.367 . S
C1043 C1042 1.367 . S
C1043 C1045 1.433 . S
C1044 C1040 1.350 . S
C1044 C1041 1.463 . S
C1044 N1048 1.427 . S
C1045 H1035 0.929 . S
C1045 C1043 1.433 . S
C1045 N1048 1.384 . S
C1046 H1037 0.929 . S
C1046 C1038 1.378 . S
C1046 C1041 1.350 . S
C1047 H1034 0.929 . S
C1047 C1039 1.433 . S
C1047 N1049 1.384 . S
N1048 C1044 1.427 . S
N1048 C1045 1.384 . S
N1049 C1041 1.427 . S
N1049 C1047 1.384 . S
H1050 C1056 0.930 . S
H1051 C1060 0.930 . S
H1052 C1065 0.929 . S
H1053 C1063 0.929 . S
H1054 C1058 0.929 . S
H1055 C1064 0.929 . S
C1056 H1050 0.930 . S
C1056 C1057 1.367 . S
C1056 C1064 1.378 . S
C1057 C1056 1.367 . S
C1057 C1065 1.433 . S
C1058 H1054 0.929 . S
C1058 C1060 1.378 . S
C1058 C1062 1.350 . S
C1059 C1062 1.463 . S
C1059 C1064 1.350 . S
C1059 N1067 1.427 . S
C1060 H1051 0.930 . S
C1060 C1058 1.378 . S
C1060 C1061 1.367 . S
C1061 C1060 1.367 . S
C1061 C1063 1.433 . S
C1062 C1058 1.350 . S
C1062 C1059 1.463 . S
C1062 N1066 1.427 . S
C1063 H1053 0.929 . S
C1063 C1061 1.433 . S
C1063 N1066 1.384 . S
C1064 H1055 0.929 . S
C1064 C1056 1.378 . S
C1064 C1059 1.350 . S
C1065 H1052 0.929 . S
C1065 C1057 1.433 . S
C1065 N1067 1.384 . S
N1066 C1062 1.427 . S
N1066 C1063 1.384 . S
N1067 C1059 1.427 . S
N1067 C1065 1.384 . S
H1068 C1074 0.930 . S
H1069 C1078 0.930 . S
H1070 C1083 0.929 . S
H1071 C1081 0.929 . S
H1072 C1076 0.929 . S
H1073 C1082 0.929 . S
C1074 H1068 0.930 . S
C1074 C1075 1.367 . S
C1074 C1082 1.378 . S
C1075 C1074 1.367 . S
C1075 C1083 1.433 . S
C1076 H1072 0.929 . S
C1076 C1078 1.378 . S
C1076 C1080 1.350 . S
C1077 C1080 1.463 . S
C1077 C1082 1.350 . S
C1077 N1085 1.427 . S
C1078 H1069 0.930 . S
C1078 C1076 1.378 . S
C1078 C1079 1.367 . S
C1079 C1078 1.367 . S
C1079 C1081 1.433 . S
C1080 C1076 1.350 . S
C1080 C1077 1.463 . S
C1080 N1084 1.427 . S
C1081 H1071 0.929 . S
C1081 C1079 1.433 . S
C1081 N1084 1.384 . S
C1082 H1073 0.929 . S
C1082 C1074 1.378 . S
C1082 C1077 1.350 . S
C1083 H1070 0.929 . S
C1083 C1075 1.433 . S
C1083 N1085 1.384 . S
N1084 C1080 1.427 . S
N1084 C1081 1.384 . S
N1085 C1077 1.427 . S
N1085 C1083 1.384 . S
H1086 C1092 0.930 . S
H1087 C1096 0.930 . S
H1088 C1101 0.929 . S
H1089 C1099 0.929 . S
H1090 C1094 0.929 . S
H1091 C1100 0.929 . S
C1092 H1086 0.930 . S
C1092 C1093 1.367 . S
C1092 C1100 1.378 . S
C1093 C1092 1.367 . S
C1093 C1101 1.433 . S
C1094 H1090 0.929 . S
C1094 C1096 1.378 . S
C1094 C1098 1.350 . S
C1095 C1098 1.463 . S
C1095 C1100 1.350 . S
C1095 N1103 1.427 . S
C1096 H1087 0.930 . S
C1096 C1094 1.378 . S
C1096 C1097 1.367 . S
C1097 C1096 1.367 . S
C1097 C1099 1.433 . S
C1098 C1094 1.350 . S
C1098 C1095 1.463 . S
C1098 N1102 1.427 . S
C1099 H1089 0.929 . S
C1099 C1097 1.433 . S
C1099 N1102 1.384 . S
C1100 H1091 0.929 . S
C1100 C1092 1.378 . S
C1100 C1095 1.350 . S
C1101 H1088 0.929 . S
C1101 C1093 1.433 . S
C1101 N1103 1.384 . S
N1102 C1098 1.427 . S
N1102 C1099 1.384 . S
N1103 C1095 1.427 . S
N1103 C1101 1.384 . S
H1104 C1110 0.930 . S
H1105 C1114 0.930 . S
H1106 C1119 0.929 . S
H1107 C1117 0.929 . S
H1108 C1112 0.929 . S
H1109 C1118 0.929 . S
C1110 H1104 0.930 . S
C1110 C1111 1.367 . S
C1110 C1118 1.378 . S
C1111 C1110 1.367 . S
C1111 C1119 1.433 . S
C1112 H1108 0.929 . S
C1112 C1114 1.378 . S
C1112 C1116 1.350 . S
C1113 C1116 1.463 . S
C1113 C1118 1.350 . S
C1113 N1121 1.427 . S
C1114 H1105 0.930 . S
C1114 C1112 1.378 . S
C1114 C1115 1.367 . S
C1115 C1114 1.367 . S
C1115 C1117 1.433 . S
C1116 C1112 1.350 . S
C1116 C1113 1.463 . S
C1116 N1120 1.427 . S
C1117 H1107 0.929 . S
C1117 C1115 1.433 . S
C1117 N1120 1.384 . S
C1118 H1109 0.929 . S
C1118 C1110 1.378 . S
C1118 C1113 1.350 . S
C1119 H1106 0.929 . S
C1119 C1111 1.433 . S
C1119 N1121 1.384 . S
N1120 C1116 1.427 . S
N1120 C1117 1.384 . S
N1121 C1113 1.427 . S
N1121 C1119 1.384 . S
H1122 C1128 0.930 . S
H1123 C1132 0.930 . S
H1124 C1137 0.929 . S
H1125 C1135 0.929 . S
H1126 C1130 0.929 . S
H1127 C1136 0.929 . S
C1128 H1122 0.930 . S
C1128 C1129 1.367 . S
C1128 C1136 1.378 . S
C1129 C1128 1.367 . S
C1129 C1137 1.433 . S
C1130 H1126 0.929 . S
C1130 C1132 1.378 . S
C1130 C1134 1.350 . S
C1131 C1134 1.463 . S
C1131 C1136 1.350 . S
C1131 N1139 1.427 . S
C1132 H1123 0.930 . S
C1132 C1130 1.378 . S
C1132 C1133 1.367 . S
C1133 C1132 1.367 . S
C1133 C1135 1.433 . S
C1134 C1130 1.350 . S
C1134 C1131 1.463 . S
C1134 N1138 1.427 . S
C1135 H1125 0.929 . S
C1135 C1133 1.433 . S
C1135 N1138 1.384 . S
C1136 H1127 0.929 . S
C1136 C1128 1.378 . S
C1136 C1131 1.350 . S
C1137 H1124 0.929 . S
C1137 C1129 1.433 . S
C1137 N1139 1.384 . S
N1138 C1134 1.427 . S
N1138 C1135 1.384 . S
N1139 C1131 1.427 . S
N1139 C1137 1.384 . S
H1140 C1146 0.930 . S
H1141 C1150 0.930 . S
H1142 C1155 0.929 . S
H1143 C1153 0.929 . S
H1144 C1148 0.929 . S
H1145 C1154 0.929 . S
C1146 H1140 0.930 . S
C1146 C1147 1.367 . S
C1146 C1154 1.378 . S
C1147 C1146 1.367 . S
C1147 C1155 1.433 . S
C1148 H1144 0.929 . S
C1148 C1150 1.378 . S
C1148 C1152 1.350 . S
C1149 C1152 1.463 . S
C1149 C1154 1.350 . S
C1149 N1157 1.427 . S
C1150 H1141 0.930 . S
C1150 C1148 1.378 . S
C1150 C1151 1.367 . S
C1151 C1150 1.367 . S
C1151 C1153 1.433 . S
C1152 C1148 1.350 . S
C1152 C1149 1.463 . S
C1152 N1156 1.427 . S
C1153 H1143 0.929 . S
C1153 C1151 1.433 . S
C1153 N1156 1.384 . S
C1154 H1145 0.929 . S
C1154 C1146 1.378 . S
C1154 C1149 1.350 . S
C1155 H1142 0.929 . S
C1155 C1147 1.433 . S
C1155 N1157 1.384 . S
N1156 C1152 1.427 . S
N1156 C1153 1.384 . S
N1157 C1149 1.427 . S
N1157 C1155 1.384 . S
H1158 C1164 0.930 . S
H1159 C1168 0.930 . S
H1160 C1173 0.929 . S
H1161 C1171 0.929 . S
H1162 C1166 0.929 . S
H1163 C1172 0.929 . S
C1164 H1158 0.930 . S
C1164 C1165 1.367 . S
C1164 C1172 1.378 . S
C1165 C1164 1.367 . S
C1165 C1173 1.433 . S
C1166 H1162 0.929 . S
C1166 C1168 1.378 . S
C1166 C1170 1.350 . S
C1167 C1170 1.463 . S
C1167 C1172 1.350 . S
C1167 N1175 1.427 . S
C1168 H1159 0.930 . S
C1168 C1166 1.378 . S
C1168 C1169 1.367 . S
C1169 C1168 1.367 . S
C1169 C1171 1.433 . S
C1170 C1166 1.350 . S
C1170 C1167 1.463 . S
C1170 N1174 1.427 . S
C1171 H1161 0.929 . S
C1171 C1169 1.433 . S
C1171 N1174 1.384 . S
C1172 H1163 0.929 . S
C1172 C1164 1.378 . S
C1172 C1167 1.350 . S
C1173 H1160 0.929 . S
C1173 C1165 1.433 . S
C1173 N1175 1.384 . S
N1174 C1170 1.427 . S
N1174 C1171 1.384 . S
N1175 C1167 1.427 . S
N1175 C1173 1.384 . S
H1176 C1182 0.930 . S
H1177 C1186 0.930 . S
H1178 C1191 0.929 . S
H1179 C1189 0.929 . S
H1180 C1184 0.929 . S
H1181 C1190 0.929 . S
C1182 H1176 0.930 . S
C1182 C1183 1.367 . S
C1182 C1190 1.378 . S
C1183 C1182 1.367 . S
C1183 C1191 1.433 . S
C1184 H1180 0.929 . S
C1184 C1186 1.378 . S
C1184 C1188 1.350 . S
C1185 C1188 1.463 . S
C1185 C1190 1.350 . S
C1185 N1193 1.427 . S
C1186 H1177 0.930 . S
C1186 C1184 1.378 . S
C1186 C1187 1.367 . S
C1187 C1186 1.367 . S
C1187 C1189 1.433 . S
C1188 C1184 1.350 . S
C1188 C1185 1.463 . S
C1188 N1192 1.427 . S
C1189 H1179 0.929 . S
C1189 C1187 1.433 . S
C1189 N1192 1.384 . S
C1190 H1181 0.929 . S
C1190 C1182 1.378 . S
C1190 C1185 1.350 . S
C1191 H1178 0.929 . S
C1191 C1183 1.433 . S
C1191 N1193 1.384 . S
N1192 C1188 1.427 . S
N1192 C1189 1.384 . S
N1193 C1185 1.427 . S
N1193 C1191 1.384 . S
H1194 C1200 0.930 . S
H1195 C1204 0.930 . S
H1196 C1209 0.929 . S
H1197 C1207 0.929 . S
H1198 C1202 0.929 . S
H1199 C1208 0.929 . S
C1200 H1194 0.930 . S
C1200 C1201 1.367 . S
C1200 C1208 1.378 . S
C1201 C1200 1.367 . S
C1201 C1209 1.433 . S
C1202 H1198 0.929 . S
C1202 C1204 1.378 . S
C1202 C1206 1.350 . S
C1203 C1206 1.463 . S
C1203 C1208 1.350 . S
C1203 N1211 1.427 . S
C1204 H1195 0.930 . S
C1204 C1202 1.378 . S
C1204 C1205 1.367 . S
C1205 C1204 1.367 . S
C1205 C1207 1.433 . S
C1206 C1202 1.350 . S
C1206 C1203 1.463 . S
C1206 N1210 1.427 . S
C1207 H1197 0.929 . S
C1207 C1205 1.433 . S
C1207 N1210 1.384 . S
C1208 H1199 0.929 . S
C1208 C1200 1.378 . S
C1208 C1203 1.350 . S
C1209 H1196 0.929 . S
C1209 C1201 1.433 . S
C1209 N1211 1.384 . S
N1210 C1206 1.427 . S
N1210 C1207 1.384 . S
N1211 C1203 1.427 . S
N1211 C1209 1.384 . S
H1212 C1218 0.930 . S
H1213 C1222 0.930 . S
H1214 C1227 0.929 . S
H1215 C1225 0.929 . S
H1216 C1220 0.929 . S
H1217 C1226 0.929 . S
C1218 H1212 0.930 . S
C1218 C1219 1.367 . S
C1218 C1226 1.378 . S
C1219 C1218 1.367 . S
C1219 C1227 1.433 . S
C1220 H1216 0.929 . S
C1220 C1222 1.378 . S
C1220 C1224 1.350 . S
C1221 C1224 1.463 . S
C1221 C1226 1.350 . S
C1221 N1229 1.427 . S
C1222 H1213 0.930 . S
C1222 C1220 1.378 . S
C1222 C1223 1.367 . S
C1223 C1222 1.367 . S
C1223 C1225 1.433 . S
C1224 C1220 1.350 . S
C1224 C1221 1.463 . S
C1224 N1228 1.427 . S
C1225 H1215 0.929 . S
C1225 C1223 1.433 . S
C1225 N1228 1.384 . S
C1226 H1217 0.929 . S
C1226 C1218 1.378 . S
C1226 C1221 1.350 . S
C1227 H1214 0.929 . S
C1227 C1219 1.433 . S
C1227 N1229 1.384 . S
N1228 C1224 1.427 . S
N1228 C1225 1.384 . S
N1229 C1221 1.427 . S
N1229 C1227 1.384 . S
H1230 C1236 0.930 . S
H1231 C1240 0.930 . S
H1232 C1245 0.929 . S
H1233 C1243 0.929 . S
H1234 C1238 0.929 . S
H1235 C1244 0.929 . S
C1236 H1230 0.930 . S
C1236 C1237 1.367 . S
C1236 C1244 1.378 . S
C1237 C1236 1.367 . S
C1237 C1245 1.433 . S
C1238 H1234 0.929 . S
C1238 C1240 1.378 . S
C1238 C1242 1.350 . S
C1239 C1242 1.463 . S
C1239 C1244 1.350 . S
C1239 N1247 1.427 . S
C1240 H1231 0.930 . S
C1240 C1238 1.378 . S
C1240 C1241 1.367 . S
C1241 C1240 1.367 . S
C1241 C1243 1.433 . S
C1242 C1238 1.350 . S
C1242 C1239 1.463 . S
C1242 N1246 1.427 . S
C1243 H1233 0.929 . S
C1243 C1241 1.433 . S
C1243 N1246 1.384 . S
C1244 H1235 0.929 . S
C1244 C1236 1.378 . S
C1244 C1239 1.350 . S
C1245 H1232 0.929 . S
C1245 C1237 1.433 . S
C1245 N1247 1.384 . S
N1246 C1242 1.427 . S
N1246 C1243 1.384 . S
N1247 C1239 1.427 . S
N1247 C1245 1.384 . S
H1248 C1254 0.930 . S
H1249 C1258 0.930 . S
H1250 C1263 0.929 . S
H1251 C1261 0.929 . S
H1252 C1256 0.929 . S
H1253 C1262 0.929 . S
C1254 H1248 0.930 . S
C1254 C1255 1.367 . S
C1254 C1262 1.378 . S
C1255 C1254 1.367 . S
C1255 C1263 1.433 . S
C1256 H1252 0.929 . S
C1256 C1258 1.378 . S
C1256 C1260 1.350 . S
C1257 C1260 1.463 . S
C1257 C1262 1.350 . S
C1257 N1265 1.427 . S
C1258 H1249 0.930 . S
C1258 C1256 1.378 . S
C1258 C1259 1.367 . S
C1259 C1258 1.367 . S
C1259 C1261 1.433 . S
C1260 C1256 1.350 . S
C1260 C1257 1.463 . S
C1260 N1264 1.427 . S
C1261 H1251 0.929 . S
C1261 C1259 1.433 . S
C1261 N1264 1.384 . S
C1262 H1253 0.929 . S
C1262 C1254 1.378 . S
C1262 C1257 1.350 . S
C1263 H1250 0.929 . S
C1263 C1255 1.433 . S
C1263 N1265 1.384 . S
N1264 C1260 1.427 . S
N1264 C1261 1.384 . S
N1265 C1257 1.427 . S
N1265 C1263 1.384 . S
H1266 C1272 0.930 . S
H1267 C1276 0.930 . S
H1268 C1281 0.929 . S
H1269 C1279 0.929 . S
H1270 C1274 0.929 . S
H1271 C1280 0.929 . S
C1272 H1266 0.930 . S
C1272 C1273 1.367 . S
C1272 C1280 1.378 . S
C1273 C1272 1.367 . S
C1273 C1281 1.433 . S
C1274 H1270 0.929 . S
C1274 C1276 1.378 . S
C1274 C1278 1.350 . S
C1275 C1278 1.463 . S
C1275 C1280 1.350 . S
C1275 N1283 1.427 . S
C1276 H1267 0.930 . S
C1276 C1274 1.378 . S
C1276 C1277 1.367 . S
C1277 C1276 1.367 . S
C1277 C1279 1.433 . S
C1278 C1274 1.350 . S
C1278 C1275 1.463 . S
C1278 N1282 1.427 . S
C1279 H1269 0.929 . S
C1279 C1277 1.433 . S
C1279 N1282 1.384 . S
C1280 H1271 0.929 . S
C1280 C1272 1.378 . S
C1280 C1275 1.350 . S
C1281 H1268 0.929 . S
C1281 C1273 1.433 . S
C1281 N1283 1.384 . S
N1282 C1278 1.427 . S
N1282 C1279 1.384 . S
N1283 C1275 1.427 . S
N1283 C1281 1.384 . S
H1284 C1290 0.930 . S
H1285 C1294 0.930 . S
H1286 C1299 0.929 . S
H1287 C1297 0.929 . S
H1288 C1292 0.929 . S
H1289 C1298 0.929 . S
C1290 H1284 0.930 . S
C1290 C1291 1.367 . S
C1290 C1298 1.378 . S
C1291 C1290 1.367 . S
C1291 C1299 1.433 . S
C1292 H1288 0.929 . S
C1292 C1294 1.378 . S
C1292 C1296 1.350 . S
C1293 C1296 1.463 . S
C1293 C1298 1.350 . S
C1293 N1301 1.427 . S
C1294 H1285 0.930 . S
C1294 C1292 1.378 . S
C1294 C1295 1.367 . S
C1295 C1294 1.367 . S
C1295 C1297 1.433 . S
C1296 C1292 1.350 . S
C1296 C1293 1.463 . S
C1296 N1300 1.427 . S
C1297 H1287 0.929 . S
C1297 C1295 1.433 . S
C1297 N1300 1.384 . S
C1298 H1289 0.929 . S
C1298 C1290 1.378 . S
C1298 C1293 1.350 . S
C1299 H1286 0.929 . S
C1299 C1291 1.433 . S
C1299 N1301 1.384 . S
N1300 C1296 1.427 . S
N1300 C1297 1.384 . S
N1301 C1293 1.427 . S
N1301 C1299 1.384 . S
H1302 C1308 0.930 . S
H1303 C1312 0.930 . S
H1304 C1317 0.929 . S
H1305 C1315 0.929 . S
H1306 C1310 0.929 . S
H1307 C1316 0.929 . S
C1308 H1302 0.930 . S
C1308 C1309 1.367 . S
C1308 C1316 1.378 . S
C1309 C1308 1.367 . S
C1309 C1317 1.433 . S
C1310 H1306 0.929 . S
C1310 C1312 1.378 . S
C1310 C1314 1.350 . S
C1311 C1314 1.463 . S
C1311 C1316 1.350 . S
C1311 N1319 1.427 . S
C1312 H1303 0.930 . S
C1312 C1310 1.378 . S
C1312 C1313 1.367 . S
C1313 C1312 1.367 . S
C1313 C1315 1.433 . S
C1314 C1310 1.350 . S
C1314 C1311 1.463 . S
C1314 N1318 1.427 . S
C1315 H1305 0.929 . S
C1315 C1313 1.433 . S
C1315 N1318 1.384 . S
C1316 H1307 0.929 . S
C1316 C1308 1.378 . S
C1316 C1311 1.350 . S
C1317 H1304 0.929 . S
C1317 C1309 1.433 . S
C1317 N1319 1.384 . S
N1318 C1314 1.427 . S
N1318 C1315 1.384 . S
N1319 C1311 1.427 . S
N1319 C1317 1.384 . S
H1320 C1326 0.930 . S
H1321 C1330 0.930 . S
H1322 C1335 0.929 . S
H1323 C1333 0.929 . S
H1324 C1328 0.929 . S
H1325 C1334 0.929 . S
C1326 H1320 0.930 . S
C1326 C1327 1.367 . S
C1326 C1334 1.378 . S
C1327 C1326 1.367 . S
C1327 C1335 1.433 . S
C1328 H1324 0.929 . S
C1328 C1330 1.378 . S
C1328 C1332 1.350 . S
C1329 C1332 1.463 . S
C1329 C1334 1.350 . S
C1329 N1337 1.427 . S
C1330 H1321 0.930 . S
C1330 C1328 1.378 . S
C1330 C1331 1.367 . S
C1331 C1330 1.367 . S
C1331 C1333 1.433 . S
C1332 C1328 1.350 . S
C1332 C1329 1.463 . S
C1332 N1336 1.427 . S
C1333 H1323 0.929 . S
C1333 C1331 1.433 . S
C1333 N1336 1.384 . S
C1334 H1325 0.929 . S
C1334 C1326 1.378 . S
C1334 C1329 1.350 . S
C1335 H1322 0.929 . S
C1335 C1327 1.433 . S
C1335 N1337 1.384 . S
N1336 C1332 1.427 . S
N1336 C1333 1.384 . S
N1337 C1329 1.427 . S
N1337 C1335 1.384 . S
H1338 C1344 0.930 . S
H1339 C1348 0.930 . S
H1340 C1353 0.929 . S
H1341 C1351 0.929 . S
H1342 C1346 0.929 . S
H1343 C1352 0.929 . S
C1344 H1338 0.930 . S
C1344 C1345 1.367 . S
C1344 C1352 1.378 . S
C1345 C1344 1.367 . S
C1345 C1353 1.433 . S
C1346 H1342 0.929 . S
C1346 C1348 1.378 . S
C1346 C1350 1.350 . S
C1347 C1350 1.463 . S
C1347 C1352 1.350 . S
C1347 N1355 1.427 . S
C1348 H1339 0.930 . S
C1348 C1346 1.378 . S
C1348 C1349 1.367 . S
C1349 C1348 1.367 . S
C1349 C1351 1.433 . S
C1350 C1346 1.350 . S
C1350 C1347 1.463 . S
C1350 N1354 1.427 . S
C1351 H1341 0.929 . S
C1351 C1349 1.433 . S
C1351 N1354 1.384 . S
C1352 H1343 0.929 . S
C1352 C1344 1.378 . S
C1352 C1347 1.350 . S
C1353 H1340 0.929 . S
C1353 C1345 1.433 . S
C1353 N1355 1.384 . S
N1354 C1350 1.427 . S
N1354 C1351 1.384 . S
N1355 C1347 1.427 . S
N1355 C1353 1.384 . S
H1356 C1362 0.930 . S
H1357 C1366 0.930 1_554 S
H1358 C1371 0.929 . S
H1359 C1369 0.929 . S
H1360 C1364 0.929 . S
H1361 C1370 0.929 . S
C1362 H1356 0.930 . S
C1362 C1363 1.367 . S
C1362 C1370 1.378 . S
C1363 C1362 1.367 . S
C1363 C1371 1.433 . S
C1364 H1360 0.929 . S
C1364 C1366 1.378 . S
C1364 C1368 1.350 . S
C1365 C1368 1.463 . S
C1365 C1370 1.350 . S
C1365 N1373 1.427 . S
C1366 H1357 0.930 1_556 S
C1366 C1364 1.378 . S
C1366 C1367 1.367 . S
C1367 C1366 1.367 . S
C1367 C1369 1.433 . S
C1368 C1364 1.350 . S
C1368 C1365 1.463 . S
C1368 N1372 1.427 . S
C1369 H1359 0.929 . S
C1369 C1367 1.433 . S
C1369 N1372 1.384 . S
C1370 H1361 0.929 . S
C1370 C1362 1.378 . S
C1370 C1365 1.350 . S
C1371 H1358 0.929 . S
C1371 C1363 1.433 . S
C1371 N1373 1.384 . S
N1372 C1368 1.427 . S
N1372 C1369 1.384 . S
N1373 C1365 1.427 . S
N1373 C1371 1.384 . S
H1374 C1380 0.930 . S
H1375 C1384 0.930 . S
H1376 C1389 0.929 . S
H1377 C1387 0.929 . S
H1378 C1382 0.929 . S
H1379 C1388 0.929 . S
C1380 H1374 0.930 . S
C1380 C1381 1.367 . S
C1380 C1388 1.378 . S
C1381 C1380 1.367 . S
C1381 C1389 1.433 . S
C1382 H1378 0.929 . S
C1382 C1384 1.378 . S
C1382 C1386 1.350 . S
C1383 C1386 1.463 . S
C1383 C1388 1.350 . S
C1383 N1391 1.427 . S
C1384 H1375 0.930 . S
C1384 C1382 1.378 . S
C1384 C1385 1.367 . S
C1385 C1384 1.367 . S
C1385 C1387 1.433 . S
C1386 C1382 1.350 . S
C1386 C1383 1.463 . S
C1386 N1390 1.427 . S
C1387 H1377 0.929 . S
C1387 C1385 1.433 . S
C1387 N1390 1.384 . S
C1388 H1379 0.929 . S
C1388 C1380 1.378 . S
C1388 C1383 1.350 . S
C1389 H1376 0.929 . S
C1389 C1381 1.433 . S
C1389 N1391 1.384 . S
N1390 C1386 1.427 . S
N1390 C1387 1.384 . S
N1391 C1383 1.427 . S
N1391 C1389 1.384 . S
H1392 C1398 0.930 . S
H1393 C1402 0.930 . S
H1394 C1407 0.929 . S
H1395 C1405 0.929 . S
H1396 C1400 0.929 . S
H1397 C1406 0.929 . S
C1398 H1392 0.930 . S
C1398 C1399 1.367 . S
C1398 C1406 1.378 . S
C1399 C1398 1.367 . S
C1399 C1407 1.433 . S
C1400 H1396 0.929 . S
C1400 C1402 1.378 . S
C1400 C1404 1.350 . S
C1401 C1404 1.463 . S
C1401 C1406 1.350 . S
C1401 N1409 1.427 . S
C1402 H1393 0.930 . S
C1402 C1400 1.378 . S
C1402 C1403 1.367 . S
C1403 C1402 1.367 . S
C1403 C1405 1.433 . S
C1404 C1400 1.350 . S
C1404 C1401 1.463 . S
C1404 N1408 1.427 . S
C1405 H1395 0.929 . S
C1405 C1403 1.433 . S
C1405 N1408 1.384 . S
C1406 H1397 0.929 . S
C1406 C1398 1.378 . S
C1406 C1401 1.350 . S
C1407 H1394 0.929 . S
C1407 C1399 1.433 . S
C1407 N1409 1.384 . S
N1408 C1404 1.427 . S
N1408 C1405 1.384 . S
N1409 C1401 1.427 . S
N1409 C1407 1.384 . S
H1410 C1416 0.930 . S
H1411 C1420 0.930 . S
H1412 C1425 0.929 . S
H1413 C1423 0.929 . S
H1414 C1418 0.929 . S
H1415 C1424 0.929 . S
C1416 H1410 0.930 . S
C1416 C1417 1.367 . S
C1416 C1424 1.378 . S
C1417 C1416 1.367 . S
C1417 C1425 1.433 . S
C1418 H1414 0.929 . S
C1418 C1420 1.378 . S
C1418 C1422 1.350 . S
C1419 C1422 1.463 . S
C1419 C1424 1.350 . S
C1419 N1427 1.427 . S
C1420 H1411 0.930 . S
C1420 C1418 1.378 . S
C1420 C1421 1.367 . S
C1421 C1420 1.367 . S
C1421 C1423 1.433 . S
C1422 C1418 1.350 . S
C1422 C1419 1.463 . S
C1422 N1426 1.427 . S
C1423 H1413 0.929 . S
C1423 C1421 1.433 . S
C1423 N1426 1.384 . S
C1424 H1415 0.929 . S
C1424 C1416 1.378 . S
C1424 C1419 1.350 . S
C1425 H1412 0.929 . S
C1425 C1417 1.433 . S
C1425 N1427 1.384 . S
N1426 C1422 1.427 . S
N1426 C1423 1.384 . S
N1427 C1419 1.427 . S
N1427 C1425 1.384 . S
H1428 C1434 0.930 . S
H1429 C1438 0.930 . S
H1430 C1443 0.929 . S
H1431 C1441 0.929 . S
H1432 C1436 0.929 . S
H1433 C1442 0.929 . S
C1434 H1428 0.930 . S
C1434 C1435 1.367 . S
C1434 C1442 1.378 . S
C1435 C1434 1.367 . S
C1435 C1443 1.433 . S
C1436 H1432 0.929 . S
C1436 C1438 1.378 . S
C1436 C1440 1.350 . S
C1437 C1440 1.463 . S
C1437 C1442 1.350 . S
C1437 N1445 1.427 . S
C1438 H1429 0.930 . S
C1438 C1436 1.378 . S
C1438 C1439 1.367 . S
C1439 C1438 1.367 . S
C1439 C1441 1.433 . S
C1440 C1436 1.350 . S
C1440 C1437 1.463 . S
C1440 N1444 1.427 . S
C1441 H1431 0.929 . S
C1441 C1439 1.433 . S
C1441 N1444 1.384 . S
C1442 H1433 0.929 . S
C1442 C1434 1.378 . S
C1442 C1437 1.350 . S
C1443 H1430 0.929 . S
C1443 C1435 1.433 . S
C1443 N1445 1.384 . S
N1444 C1440 1.427 . S
N1444 C1441 1.384 . S
N1445 C1437 1.427 . S
N1445 C1443 1.384 . S
H1446 C1452 0.930 . S
H1447 C1456 0.930 . S
H1448 C1461 0.929 . S
H1449 C1459 0.929 . S
H1450 C1454 0.929 . S
H1451 C1460 0.929 . S
C1452 H1446 0.930 . S
C1452 C1453 1.367 . S
C1452 C1460 1.378 . S
C1453 C1452 1.367 . S
C1453 C1461 1.433 . S
C1454 H1450 0.929 . S
C1454 C1456 1.378 . S
C1454 C1458 1.350 . S
C1455 C1458 1.463 . S
C1455 C1460 1.350 . S
C1455 N1463 1.427 . S
C1456 H1447 0.930 . S
C1456 C1454 1.378 . S
C1456 C1457 1.367 . S
C1457 C1456 1.367 . S
C1457 C1459 1.433 . S
C1458 C1454 1.350 . S
C1458 C1455 1.463 . S
C1458 N1462 1.427 . S
C1459 H1449 0.929 . S
C1459 C1457 1.433 . S
C1459 N1462 1.384 . S
C1460 H1451 0.929 . S
C1460 C1452 1.378 . S
C1460 C1455 1.350 . S
C1461 H1448 0.929 . S
C1461 C1453 1.433 . S
C1461 N1463 1.384 . S
N1462 C1458 1.427 . S
N1462 C1459 1.384 . S
N1463 C1455 1.427 . S
N1463 C1461 1.384 . S
H1464 C1470 0.930 . S
H1465 C1474 0.930 . S
H1466 C1479 0.929 . S
H1467 C1477 0.929 . S
H1468 C1472 0.929 . S
H1469 C1478 0.929 . S
C1470 H1464 0.930 . S
C1470 C1471 1.367 . S
C1470 C1478 1.378 . S
C1471 C1470 1.367 . S
C1471 C1479 1.433 . S
C1472 H1468 0.929 . S
C1472 C1474 1.378 . S
C1472 C1476 1.350 . S
C1473 C1476 1.463 . S
C1473 C1478 1.350 . S
C1473 N1481 1.427 . S
C1474 H1465 0.930 . S
C1474 C1472 1.378 . S
C1474 C1475 1.367 . S
C1475 C1474 1.367 . S
C1475 C1477 1.433 . S
C1476 C1472 1.350 . S
C1476 C1473 1.463 . S
C1476 N1480 1.427 . S
C1477 H1467 0.929 . S
C1477 C1475 1.433 . S
C1477 N1480 1.384 . S
C1478 H1469 0.929 . S
C1478 C1470 1.378 . S
C1478 C1473 1.350 . S
C1479 H1466 0.929 . S
C1479 C1471 1.433 . S
C1479 N1481 1.384 . S
N1480 C1476 1.427 . S
N1480 C1477 1.384 . S
N1481 C1473 1.427 . S
N1481 C1479 1.384 . S
H1482 C1488 0.930 . S
H1483 C1492 0.930 1_554 S
H1484 C1497 0.929 . S
H1485 C1495 0.929 . S
H1486 C1490 0.929 . S
H1487 C1496 0.929 . S
C1488 H1482 0.930 . S
C1488 C1489 1.367 . S
C1488 C1496 1.378 . S
C1489 C1488 1.367 . S
C1489 C1497 1.433 . S
C1490 H1486 0.929 . S
C1490 C1492 1.378 . S
C1490 C1494 1.350 . S
C1491 C1494 1.463 . S
C1491 C1496 1.350 . S
C1491 N1499 1.427 . S
C1492 H1483 0.930 1_556 S
C1492 C1490 1.378 . S
C1492 C1493 1.367 . S
C1493 C1492 1.367 . S
C1493 C1495 1.433 . S
C1494 C1490 1.350 . S
C1494 C1491 1.463 . S
C1494 N1498 1.427 . S
C1495 H1485 0.929 . S
C1495 C1493 1.433 . S
C1495 N1498 1.384 . S
C1496 H1487 0.929 . S
C1496 C1488 1.378 . S
C1496 C1491 1.350 . S
C1497 H1484 0.929 . S
C1497 C1489 1.433 . S
C1497 N1499 1.384 . S
N1498 C1494 1.427 . S
N1498 C1495 1.384 . S
N1499 C1491 1.427 . S
N1499 C1497 1.384 . S
H1500 C1506 0.930 . S
H1501 C1510 0.930 . S
H1502 C1515 0.929 . S
H1503 C1513 0.929 . S
H1504 C1508 0.929 . S
H1505 C1514 0.929 . S
C1506 H1500 0.930 . S
C1506 C1507 1.367 . S
C1506 C1514 1.378 . S
C1507 C1506 1.367 . S
C1507 C1515 1.433 . S
C1508 H1504 0.929 . S
C1508 C1510 1.378 . S
C1508 C1512 1.350 . S
C1509 C1512 1.463 . S
C1509 C1514 1.350 . S
C1509 N1517 1.427 . S
C1510 H1501 0.930 . S
C1510 C1508 1.378 . S
C1510 C1511 1.367 . S
C1511 C1510 1.367 . S
C1511 C1513 1.433 . S
C1512 C1508 1.350 . S
C1512 C1509 1.463 . S
C1512 N1516 1.427 . S
C1513 H1503 0.929 . S
C1513 C1511 1.433 . S
C1513 N1516 1.384 . S
C1514 H1505 0.929 . S
C1514 C1506 1.378 . S
C1514 C1509 1.350 . S
C1515 H1502 0.929 . S
C1515 C1507 1.433 . S
C1515 N1517 1.384 . S
N1516 C1512 1.427 . S
N1516 C1513 1.384 . S
N1517 C1509 1.427 . S
N1517 C1515 1.384 . S
H1518 C1524 0.930 . S
H1519 C1528 0.930 . S
H1520 C1533 0.929 . S
H1521 C1531 0.929 . S
H1522 C1526 0.929 . S
H1523 C1532 0.929 . S
C1524 H1518 0.930 . S
C1524 C1525 1.367 . S
C1524 C1532 1.378 . S
C1525 C1524 1.367 . S
C1525 C1533 1.433 . S
C1526 H1522 0.929 . S
C1526 C1528 1.378 . S
C1526 C1530 1.350 . S
C1527 C1530 1.463 . S
C1527 C1532 1.350 . S
C1527 N1535 1.427 . S
C1528 H1519 0.930 . S
C1528 C1526 1.378 . S
C1528 C1529 1.367 . S
C1529 C1528 1.367 . S
C1529 C1531 1.433 . S
C1530 C1526 1.350 . S
C1530 C1527 1.463 . S
C1530 N1534 1.427 . S
C1531 H1521 0.929 . S
C1531 C1529 1.433 . S
C1531 N1534 1.384 . S
C1532 H1523 0.929 . S
C1532 C1524 1.378 . S
C1532 C1527 1.350 . S
C1533 H1520 0.929 . S
C1533 C1525 1.433 . S
C1533 N1535 1.384 . S
N1534 C1530 1.427 . S
N1534 C1531 1.384 . S
N1535 C1527 1.427 . S
N1535 C1533 1.384 . S
H1536 C1542 0.930 . S
H1537 C1546 0.930 . S
H1538 C1551 0.929 . S
H1539 C1549 0.929 . S
H1540 C1544 0.929 . S
H1541 C1550 0.929 . S
C1542 H1536 0.930 . S
C1542 C1543 1.367 . S
C1542 C1550 1.378 . S
C1543 C1542 1.367 . S
C1543 C1551 1.433 . S
C1544 H1540 0.929 . S
C1544 C1546 1.378 . S
C1544 C1548 1.350 . S
C1545 C1548 1.463 . S
C1545 C1550 1.350 . S
C1545 N1553 1.427 . S
C1546 H1537 0.930 . S
C1546 C1544 1.378 . S
C1546 C1547 1.367 . S
C1547 C1546 1.367 . S
C1547 C1549 1.433 . S
C1548 C1544 1.350 . S
C1548 C1545 1.463 . S
C1548 N1552 1.427 . S
C1549 H1539 0.929 . S
C1549 C1547 1.433 . S
C1549 N1552 1.384 . S
C1550 H1541 0.929 . S
C1550 C1542 1.378 . S
C1550 C1545 1.350 . S
C1551 H1538 0.929 . S
C1551 C1543 1.433 . S
C1551 N1553 1.384 . S
N1552 C1548 1.427 . S
N1552 C1549 1.384 . S
N1553 C1545 1.427 . S
N1553 C1551 1.384 . S
H1554 C1560 0.930 . S
H1555 C1564 0.930 . S
H1556 C1569 0.929 . S
H1557 C1567 0.929 . S
H1558 C1562 0.929 . S
H1559 C1568 0.929 . S
C1560 H1554 0.930 . S
C1560 C1561 1.367 . S
C1560 C1568 1.378 . S
C1561 C1560 1.367 . S
C1561 C1569 1.433 . S
C1562 H1558 0.929 . S
C1562 C1564 1.378 . S
C1562 C1566 1.350 . S
C1563 C1566 1.463 . S
C1563 C1568 1.350 . S
C1563 N1571 1.427 . S
C1564 H1555 0.930 . S
C1564 C1562 1.378 . S
C1564 C1565 1.367 . S
C1565 C1564 1.367 . S
C1565 C1567 1.433 . S
C1566 C1562 1.350 . S
C1566 C1563 1.463 . S
C1566 N1570 1.427 . S
C1567 H1557 0.929 . S
C1567 C1565 1.433 . S
C1567 N1570 1.384 . S
C1568 H1559 0.929 . S
C1568 C1560 1.378 . S
C1568 C1563 1.350 . S
C1569 H1556 0.929 . S
C1569 C1561 1.433 . S
C1569 N1571 1.384 . S
N1570 C1566 1.427 . S
N1570 C1567 1.384 . S
N1571 C1563 1.427 . S
N1571 C1569 1.384 . S
H1572 C1578 0.930 . S
H1573 C1582 0.930 . S
H1574 C1587 0.929 . S
H1575 C1585 0.929 . S
H1576 C1580 0.929 . S
H1577 C1586 0.929 . S
C1578 H1572 0.930 . S
C1578 C1579 1.367 . S
C1578 C1586 1.378 . S
C1579 C1578 1.367 . S
C1579 C1587 1.433 . S
C1580 H1576 0.929 . S
C1580 C1582 1.378 . S
C1580 C1584 1.350 . S
C1581 C1584 1.463 . S
C1581 C1586 1.350 . S
C1581 N1589 1.427 . S
C1582 H1573 0.930 . S
C1582 C1580 1.378 . S
C1582 C1583 1.367 . S
C1583 C1582 1.367 . S
C1583 C1585 1.433 . S
C1584 C1580 1.350 . S
C1584 C1581 1.463 . S
C1584 N1588 1.427 . S
C1585 H1575 0.929 . S
C1585 C1583 1.433 . S
C1585 N1588 1.384 . S
C1586 H1577 0.929 . S
C1586 C1578 1.378 . S
C1586 C1581 1.350 . S
C1587 H1574 0.929 . S
C1587 C1579 1.433 . S
C1587 N1589 1.384 . S
N1588 C1584 1.427 . S
N1588 C1585 1.384 . S
N1589 C1581 1.427 . S
N1589 C1587 1.384 . S
H1590 C1596 0.930 . S
H1591 C1600 0.930 . S
H1592 C1605 0.929 . S
H1593 C1603 0.929 . S
H1594 C1598 0.929 . S
H1595 C1604 0.929 . S
C1596 H1590 0.930 . S
C1596 C1597 1.367 . S
C1596 C1604 1.378 . S
C1597 C1596 1.367 . S
C1597 C1605 1.433 . S
C1598 H1594 0.929 . S
C1598 C1600 1.378 . S
C1598 C1602 1.350 . S
C1599 C1602 1.463 . S
C1599 C1604 1.350 . S
C1599 N1607 1.427 . S
C1600 H1591 0.930 . S
C1600 C1598 1.378 . S
C1600 C1601 1.367 . S
C1601 C1600 1.367 . S
C1601 C1603 1.433 . S
C1602 C1598 1.350 . S
C1602 C1599 1.463 . S
C1602 N1606 1.427 . S
C1603 H1593 0.929 . S
C1603 C1601 1.433 . S
C1603 N1606 1.384 . S
C1604 H1595 0.929 . S
C1604 C1596 1.378 . S
C1604 C1599 1.350 . S
C1605 H1592 0.929 . S
C1605 C1597 1.433 . S
C1605 N1607 1.384 . S
N1606 C1602 1.427 . S
N1606 C1603 1.384 . S
N1607 C1599 1.427 . S
N1607 C1605 1.384 . S
H1608 C1614 0.930 . S
H1609 C1618 0.930 . S
H1610 C1623 0.929 . S
H1611 C1621 0.929 . S
H1612 C1616 0.929 . S
H1613 C1622 0.929 . S
C1614 H1608 0.930 . S
C1614 C1615 1.367 . S
C1614 C1622 1.378 . S
C1615 C1614 1.367 . S
C1615 C1623 1.433 . S
C1616 H1612 0.929 . S
C1616 C1618 1.378 . S
C1616 C1620 1.350 . S
C1617 C1620 1.463 . S
C1617 C1622 1.350 . S
C1617 N1625 1.427 . S
C1618 H1609 0.930 . S
C1618 C1616 1.378 . S
C1618 C1619 1.367 . S
C1619 C1618 1.367 . S
C1619 C1621 1.433 . S
C1620 C1616 1.350 . S
C1620 C1617 1.463 . S
C1620 N1624 1.427 . S
C1621 H1611 0.929 . S
C1621 C1619 1.433 . S
C1621 N1624 1.384 . S
C1622 H1613 0.929 . S
C1622 C1614 1.378 . S
C1622 C1617 1.350 . S
C1623 H1610 0.929 . S
C1623 C1615 1.433 . S
C1623 N1625 1.384 . S
N1624 C1620 1.427 . S
N1624 C1621 1.384 . S
N1625 C1617 1.427 . S
N1625 C1623 1.384 . S
H1626 C1632 0.930 . S
H1627 C1636 0.930 . S
H1628 C1641 0.929 . S
H1629 C1639 0.929 . S
H1630 C1634 0.929 . S
H1631 C1640 0.929 . S
C1632 H1626 0.930 . S
C1632 C1633 1.367 . S
C1632 C1640 1.378 . S
C1633 C1632 1.367 . S
C1633 C1641 1.433 . S
C1634 H1630 0.929 . S
C1634 C1636 1.378 . S
C1634 C1638 1.350 . S
C1635 C1638 1.463 . S
C1635 C1640 1.350 . S
C1635 N1643 1.427 . S
C1636 H1627 0.930 . S
C1636 C1634 1.378 . S
C1636 C1637 1.367 . S
C1637 C1636 1.367 . S
C1637 C1639 1.433 . S
C1638 C1634 1.350 . S
C1638 C1635 1.463 . S
C1638 N1642 1.427 . S
C1639 H1629 0.929 . S
C1639 C1637 1.433 . S
C1639 N1642 1.384 . S
C1640 H1631 0.929 . S
C1640 C1632 1.378 . S
C1640 C1635 1.350 . S
C1641 H1628 0.929 . S
C1641 C1633 1.433 . S
C1641 N1643 1.384 . S
N1642 C1638 1.427 . S
N1642 C1639 1.384 . S
N1643 C1635 1.427 . S
N1643 C1641 1.384 . S
H1644 C1650 0.930 . S
H1645 C1654 0.930 . S
H1646 C1659 0.929 . S
H1647 C1657 0.929 . S
H1648 C1652 0.929 . S
H1649 C1658 0.929 . S
C1650 H1644 0.930 . S
C1650 C1651 1.367 . S
C1650 C1658 1.378 . S
C1651 C1650 1.367 . S
C1651 C1659 1.433 . S
C1652 H1648 0.929 . S
C1652 C1654 1.378 . S
C1652 C1656 1.350 . S
C1653 C1656 1.463 . S
C1653 C1658 1.350 . S
C1653 N1661 1.427 . S
C1654 H1645 0.930 . S
C1654 C1652 1.378 . S
C1654 C1655 1.367 . S
C1655 C1654 1.367 . S
C1655 C1657 1.433 . S
C1656 C1652 1.350 . S
C1656 C1653 1.463 . S
C1656 N1660 1.427 . S
C1657 H1647 0.929 . S
C1657 C1655 1.433 . S
C1657 N1660 1.384 . S
C1658 H1649 0.929 . S
C1658 C1650 1.378 . S
C1658 C1653 1.350 . S
C1659 H1646 0.929 . S
C1659 C1651 1.433 . S
C1659 N1661 1.384 . S
N1660 C1656 1.427 . S
N1660 C1657 1.384 . S
N1661 C1653 1.427 . S
N1661 C1659 1.384 . S
H1662 C1668 0.930 . S
H1663 C1672 0.930 . S
H1664 C1677 0.929 . S
H1665 C1675 0.929 . S
H1666 C1670 0.929 . S
H1667 C1676 0.929 . S
C1668 H1662 0.930 . S
C1668 C1669 1.367 . S
C1668 C1676 1.378 . S
C1669 C1668 1.367 . S
C1669 C1677 1.433 . S
C1670 H1666 0.929 . S
C1670 C1672 1.378 . S
C1670 C1674 1.350 . S
C1671 C1674 1.463 . S
C1671 C1676 1.350 . S
C1671 N1679 1.427 . S
C1672 H1663 0.930 . S
C1672 C1670 1.378 . S
C1672 C1673 1.367 . S
C1673 C1672 1.367 . S
C1673 C1675 1.433 . S
C1674 C1670 1.350 . S
C1674 C1671 1.463 . S
C1674 N1678 1.427 . S
C1675 H1665 0.929 . S
C1675 C1673 1.433 . S
C1675 N1678 1.384 . S
C1676 H1667 0.929 . S
C1676 C1668 1.378 . S
C1676 C1671 1.350 . S
C1677 H1664 0.929 . S
C1677 C1669 1.433 . S
C1677 N1679 1.384 . S
N1678 C1674 1.427 . S
N1678 C1675 1.384 . S
N1679 C1671 1.427 . S
N1679 C1677 1.384 . S
H1680 C1686 0.930 . S
H1681 C1690 0.930 . S
H1682 C1695 0.929 . S
H1683 C1693 0.929 . S
H1684 C1688 0.929 . S
H1685 C1694 0.929 . S
C1686 H1680 0.930 . S
C1686 C1687 1.367 . S
C1686 C1694 1.378 . S
C1687 C1686 1.367 . S
C1687 C1695 1.433 . S
C1688 H1684 0.929 . S
C1688 C1690 1.378 . S
C1688 C1692 1.350 . S
C1689 C1692 1.463 . S
C1689 C1694 1.350 . S
C1689 N1697 1.427 . S
C1690 H1681 0.930 . S
C1690 C1688 1.378 . S
C1690 C1691 1.367 . S
C1691 C1690 1.367 . S
C1691 C1693 1.433 . S
C1692 C1688 1.350 . S
C1692 C1689 1.463 . S
C1692 N1696 1.427 . S
C1693 H1683 0.929 . S
C1693 C1691 1.433 . S
C1693 N1696 1.384 . S
C1694 H1685 0.929 . S
C1694 C1686 1.378 . S
C1694 C1689 1.350 . S
C1695 H1682 0.929 . S
C1695 C1687 1.433 . S
C1695 N1697 1.384 . S
N1696 C1692 1.427 . S
N1696 C1693 1.384 . S
N1697 C1689 1.427 . S
N1697 C1695 1.384 . S
H1698 C1704 0.930 . S
H1699 C1708 0.930 . S
H1700 C1713 0.929 . S
H1701 C1711 0.929 . S
H1702 C1706 0.929 . S
H1703 C1712 0.929 . S
C1704 H1698 0.930 . S
C1704 C1705 1.367 . S
C1704 C1712 1.378 . S
C1705 C1704 1.367 . S
C1705 C1713 1.433 . S
C1706 H1702 0.929 . S
C1706 C1708 1.378 . S
C1706 C1710 1.350 . S
C1707 C1710 1.463 . S
C1707 C1712 1.350 . S
C1707 N1715 1.427 . S
C1708 H1699 0.930 . S
C1708 C1706 1.378 . S
C1708 C1709 1.367 . S
C1709 C1708 1.367 . S
C1709 C1711 1.433 . S
C1710 C1706 1.350 . S
C1710 C1707 1.463 . S
C1710 N1714 1.427 . S
C1711 H1701 0.929 . S
C1711 C1709 1.433 . S
C1711 N1714 1.384 . S
C1712 H1703 0.929 . S
C1712 C1704 1.378 . S
C1712 C1707 1.350 . S
C1713 H1700 0.929 . S
C1713 C1705 1.433 . S
C1713 N1715 1.384 . S
N1714 C1710 1.427 . S
N1714 C1711 1.384 . S
N1715 C1707 1.427 . S
N1715 C1713 1.384 . S
H1716 C1722 0.930 . S
H1717 C1726 0.930 . S
H1718 C1731 0.929 . S
H1719 C1729 0.929 . S
H1720 C1724 0.929 . S
H1721 C1730 0.929 . S
C1722 H1716 0.930 . S
C1722 C1723 1.367 . S
C1722 C1730 1.378 . S
C1723 C1722 1.367 . S
C1723 C1731 1.433 . S
C1724 H1720 0.929 . S
C1724 C1726 1.378 . S
C1724 C1728 1.350 . S
C1725 C1728 1.463 . S
C1725 C1730 1.350 . S
C1725 N1733 1.427 . S
C1726 H1717 0.930 . S
C1726 C1724 1.378 . S
C1726 C1727 1.367 . S
C1727 C1726 1.367 . S
C1727 C1729 1.433 . S
C1728 C1724 1.350 . S
C1728 C1725 1.463 . S
C1728 N1732 1.427 . S
C1729 H1719 0.929 . S
C1729 C1727 1.433 . S
C1729 N1732 1.384 . S
C1730 H1721 0.929 . S
C1730 C1722 1.378 . S
C1730 C1725 1.350 . S
C1731 H1718 0.929 . S
C1731 C1723 1.433 . S
C1731 N1733 1.384 . S
N1732 C1728 1.427 . S
N1732 C1729 1.384 . S
N1733 C1725 1.427 . S
N1733 C1731 1.384 . S
H1734 C1740 0.930 . S
H1735 C1744 0.930 . S
H1736 C1749 0.929 . S
H1737 C1747 0.929 . S
H1738 C1742 0.929 . S
H1739 C1748 0.929 . S
C1740 H1734 0.930 . S
C1740 C1741 1.367 . S
C1740 C1748 1.378 . S
C1741 C1740 1.367 . S
C1741 C1749 1.433 . S
C1742 H1738 0.929 . S
C1742 C1744 1.378 . S
C1742 C1746 1.350 . S
C1743 C1746 1.463 . S
C1743 C1748 1.350 . S
C1743 N1751 1.427 . S
C1744 H1735 0.930 . S
C1744 C1742 1.378 . S
C1744 C1745 1.367 . S
C1745 C1744 1.367 . S
C1745 C1747 1.433 . S
C1746 C1742 1.350 . S
C1746 C1743 1.463 . S
C1746 N1750 1.427 . S
C1747 H1737 0.929 . S
C1747 C1745 1.433 . S
C1747 N1750 1.384 . S
C1748 H1739 0.929 . S
C1748 C1740 1.378 . S
C1748 C1743 1.350 . S
C1749 H1736 0.929 . S
C1749 C1741 1.433 . S
C1749 N1751 1.384 . S
N1750 C1746 1.427 . S
N1750 C1747 1.384 . S
N1751 C1743 1.427 . S
N1751 C1749 1.384 . S
H1752 C1758 0.930 . S
H1753 C1762 0.930 . S
H1754 C1767 0.929 . S
H1755 C1765 0.929 . S
H1756 C1760 0.929 . S
H1757 C1766 0.929 . S
C1758 H1752 0.930 . S
C1758 C1759 1.367 . S
C1758 C1766 1.378 . S
C1759 C1758 1.367 . S
C1759 C1767 1.433 . S
C1760 H1756 0.929 . S
C1760 C1762 1.378 . S
C1760 C1764 1.350 . S
C1761 C1764 1.463 . S
C1761 C1766 1.350 . S
C1761 N1769 1.427 . S
C1762 H1753 0.930 . S
C1762 C1760 1.378 . S
C1762 C1763 1.367 . S
C1763 C1762 1.367 . S
C1763 C1765 1.433 . S
C1764 C1760 1.350 . S
C1764 C1761 1.463 . S
C1764 N1768 1.427 . S
C1765 H1755 0.929 . S
C1765 C1763 1.433 . S
C1765 N1768 1.384 . S
C1766 H1757 0.929 . S
C1766 C1758 1.378 . S
C1766 C1761 1.350 . S
C1767 H1754 0.929 . S
C1767 C1759 1.433 . S
C1767 N1769 1.384 . S
N1768 C1764 1.427 . S
N1768 C1765 1.384 . S
N1769 C1761 1.427 . S
N1769 C1767 1.384 . S
H1770 C1776 0.930 . S
H1771 C1780 0.930 . S
H1772 C1785 0.929 . S
H1773 C1783 0.929 . S
H1774 C1778 0.929 . S
H1775 C1784 0.929 . S
C1776 H1770 0.930 . S
C1776 C1777 1.367 . S
C1776 C1784 1.378 . S
C1777 C1776 1.367 . S
C1777 C1785 1.433 . S
C1778 H1774 0.929 . S
C1778 C1780 1.378 . S
C1778 C1782 1.350 . S
C1779 C1782 1.463 . S
C1779 C1784 1.350 . S
C1779 N1787 1.427 . S
C1780 H1771 0.930 . S
C1780 C1778 1.378 . S
C1780 C1781 1.367 . S
C1781 C1780 1.367 . S
C1781 C1783 1.433 . S
C1782 C1778 1.350 . S
C1782 C1779 1.463 . S
C1782 N1786 1.427 . S
C1783 H1773 0.929 . S
C1783 C1781 1.433 . S
C1783 N1786 1.384 . S
C1784 H1775 0.929 . S
C1784 C1776 1.378 . S
C1784 C1779 1.350 . S
C1785 H1772 0.929 . S
C1785 C1777 1.433 . S
C1785 N1787 1.384 . S
N1786 C1782 1.427 . S
N1786 C1783 1.384 . S
N1787 C1779 1.427 . S
N1787 C1785 1.384 . S
H1788 C1794 0.930 . S
H1789 C1798 0.930 . S
H1790 C1803 0.929 . S
H1791 C1801 0.929 . S
H1792 C1796 0.929 . S
H1793 C1802 0.929 . S
C1794 H1788 0.930 . S
C1794 C1795 1.367 . S
C1794 C1802 1.378 . S
C1795 C1794 1.367 . S
C1795 C1803 1.433 . S
C1796 H1792 0.929 . S
C1796 C1798 1.378 . S
C1796 C1800 1.350 . S
C1797 C1800 1.463 . S
C1797 C1802 1.350 . S
C1797 N1805 1.427 . S
C1798 H1789 0.930 . S
C1798 C1796 1.378 . S
C1798 C1799 1.367 . S
C1799 C1798 1.367 . S
C1799 C1801 1.433 . S
C1800 C1796 1.350 . S
C1800 C1797 1.463 . S
C1800 N1804 1.427 . S
C1801 H1791 0.929 . S
C1801 C1799 1.433 . S
C1801 N1804 1.384 . S
C1802 H1793 0.929 . S
C1802 C1794 1.378 . S
C1802 C1797 1.350 . S
C1803 H1790 0.929 . S
C1803 C1795 1.433 . S
C1803 N1805 1.384 . S
N1804 C1800 1.427 . S
N1804 C1801 1.384 . S
N1805 C1797 1.427 . S
N1805 C1803 1.384 . S
H1806 C1812 0.930 . S
H1807 C1816 0.930 . S
H1808 C1821 0.929 . S
H1809 C1819 0.929 . S
H1810 C1814 0.929 . S
H1811 C1820 0.929 . S
C1812 H1806 0.930 . S
C1812 C1813 1.367 . S
C1812 C1820 1.378 . S
C1813 C1812 1.367 . S
C1813 C1821 1.433 . S
C1814 H1810 0.929 . S
C1814 C1816 1.378 . S
C1814 C1818 1.350 . S
C1815 C1818 1.463 . S
C1815 C1820 1.350 . S
C1815 N1823 1.427 . S
C1816 H1807 0.930 . S
C1816 C1814 1.378 . S
C1816 C1817 1.367 . S
C1817 C1816 1.367 . S
C1817 C1819 1.433 . S
C1818 C1814 1.350 . S
C1818 C1815 1.463 . S
C1818 N1822 1.427 . S
C1819 H1809 0.929 . S
C1819 C1817 1.433 . S
C1819 N1822 1.384 . S
C1820 H1811 0.929 . S
C1820 C1812 1.378 . S
C1820 C1815 1.350 . S
C1821 H1808 0.929 . S
C1821 C1813 1.433 . S
C1821 N1823 1.384 . S
N1822 C1818 1.427 . S
N1822 C1819 1.384 . S
N1823 C1815 1.427 . S
N1823 C1821 1.384 . S
H1824 C1830 0.930 . S
H1825 C1834 0.930 . S
H1826 C1839 0.929 . S
H1827 C1837 0.929 . S
H1828 C1832 0.929 . S
H1829 C1838 0.929 . S
C1830 H1824 0.930 . S
C1830 C1831 1.367 . S
C1830 C1838 1.378 . S
C1831 C1830 1.367 . S
C1831 C1839 1.433 . S
C1832 H1828 0.929 . S
C1832 C1834 1.378 . S
C1832 C1836 1.350 . S
C1833 C1836 1.463 . S
C1833 C1838 1.350 . S
C1833 N1841 1.427 . S
C1834 H1825 0.930 . S
C1834 C1832 1.378 . S
C1834 C1835 1.367 . S
C1835 C1834 1.367 . S
C1835 C1837 1.433 . S
C1836 C1832 1.350 . S
C1836 C1833 1.463 . S
C1836 N1840 1.427 . S
C1837 H1827 0.929 . S
C1837 C1835 1.433 . S
C1837 N1840 1.384 . S
C1838 H1829 0.929 . S
C1838 C1830 1.378 . S
C1838 C1833 1.350 . S
C1839 H1826 0.929 . S
C1839 C1831 1.433 . S
C1839 N1841 1.384 . S
N1840 C1836 1.427 . S
N1840 C1837 1.384 . S
N1841 C1833 1.427 . S
N1841 C1839 1.384 . S
H1842 C1848 0.930 . S
H1843 C1852 0.930 . S
H1844 C1857 0.929 . S
H1845 C1855 0.929 . S
H1846 C1850 0.929 . S
H1847 C1856 0.929 . S
C1848 H1842 0.930 . S
C1848 C1849 1.367 . S
C1848 C1856 1.378 . S
C1849 C1848 1.367 . S
C1849 C1857 1.433 . S
C1850 H1846 0.929 . S
C1850 C1852 1.378 . S
C1850 C1854 1.350 . S
C1851 C1854 1.463 . S
C1851 C1856 1.350 . S
C1851 N1859 1.427 . S
C1852 H1843 0.930 . S
C1852 C1850 1.378 . S
C1852 C1853 1.367 . S
C1853 C1852 1.367 . S
C1853 C1855 1.433 . S
C1854 C1850 1.350 . S
C1854 C1851 1.463 . S
C1854 N1858 1.427 . S
C1855 H1845 0.929 . S
C1855 C1853 1.433 . S
C1855 N1858 1.384 . S
C1856 H1847 0.929 . S
C1856 C1848 1.378 . S
C1856 C1851 1.350 . S
C1857 H1844 0.929 . S
C1857 C1849 1.433 . S
C1857 N1859 1.384 . S
N1858 C1854 1.427 . S
N1858 C1855 1.384 . S
N1859 C1851 1.427 . S
N1859 C1857 1.384 . S
C1007 C707 1.246 . S
C1003 C74 1.160 . S
C1025 C685 0.302 . S
C1021 C142 0.716 . S
C1043 C682 0.793 . S
C1039 C231 0.801 . S
C1057 C322 1.600 . S
C1061 C694 1.657 . S
C1075 C406 0.718 . S
C1079 C677 0.315 . S
C1097 C699 0.785 . S
C1093 C494 0.779 . S
C1111 C562 1.611 . S
C1115 C704 1.657 . S
C1129 C651 1.185 . S
C1133 C700 1.247 . S
C1151 C758 1.688 . S
C1147 C58 1.609 . S
C1165 C151 1.326 . S
C1169 C808 1.376 . S
C1187 C731 2.791 . S
C1183 C224 2.685 . S
C1205 C807 0.796 . S
C1201 C315 0.767 . S
C1219 C399 0.781 . S
C1223 C736 0.814 . S
C1241 C802 1.676 . S
C1237 C478 1.628 . S
C1255 C571 1.270 . S
C1259 C761 1.354 . S
C1273 C644 2.701 . S
C1277 C793 2.787 . S
C1291 C67 2.692 . S
C1295 C785 2.789 . S
C1309 C392 1.325 . S
C1313 C815 1.382 . S
C1331 C739 2.812 . S
C1327 C487 2.706 . S
C1349 C790 0.801 . S
C1345 C578 0.799 . S
C1363 C658 1.624 . S
C1367 C748 1.692 . S
C1381 C238 1.639 . S
C1385 C812 1.700 . S
C1403 C754 1.363 . S
C1399 C308 1.272 . S
C1417 C158 0.824 . S
C1421 C753 0.820 . S
C1435 C662 1.168 . S
C1439 C869 1.247 . S
C1453 C394 0.717 . S
C1457 C847 0.308 . S
C1475 C844 0.803 . S
C1471 C483 0.782 . S
C1493 C856 1.658 . S
C1489 C574 1.598 . S
C1507 C154 0.739 . S
C1511 C839 0.289 . S
C1529 C861 0.785 . S
C1525 C242 0.778 . S
C1543 C310 1.613 . S
C1547 C866 1.660 . S
C1561 C63 1.169 . S
C1565 C862 1.247 . S
C1579 C646 1.608 . S
C1583 C920 1.686 . S
C1601 C970 1.369 . S
C1597 C403 1.312 . S
C1615 C476 2.687 . S
C1619 C893 2.798 . S
C1633 C567 0.797 . S
C1637 C969 0.785 . S
C1655 C898 0.808 . S
C1651 C147 0.799 . S
C1669 C226 1.610 . S
C1673 C964 1.680 . S
C1691 C923 1.353 . S
C1687 C319 1.269 . S
C1709 C955 2.787 . S
C1705 C56 2.701 . S
C1727 C947 2.785 . S
C1723 C655 2.702 . S
C1741 C140 1.320 . S
C1745 C977 1.373 . S
C1759 C235 2.695 . S
C1763 C901 2.812 . S
C1781 C952 0.801 . S
C1777 C326 0.806 . S
C1795 C70 1.614 . S
C1799 C910 1.682 . S
C1813 C490 1.631 . S
C1817 C974 1.688 . S
C1835 C916 1.361 . S
C1831 C560 1.264 . S
C1853 C915 0.819 . S
C1849 C410 0.806 . S
