# Generated by pormake.
# Topology ssa, (4,4)-cn, num edge types: 1
# Building blocks:
#     Node 0, Type 0, BuildingBlock: NAWXER_clean_sbu_0, # of connection points: 4
#     Node 1, Type 0, BuildingBlock: NAWXER_clean_sbu_0, # of connection points: 4
#     Node 2, Type 0, BuildingBlock: NAWXER_clean_sbu_0, # of connection points: 4
#     Node 3, Type 0, BuildingBlock: NAWXER_clean_sbu_0, # of connection points: 4
#     Node 4, Type 0, BuildingBlock: NAWXER_clean_sbu_0, # of connection points: 4
#     Node 5, Type 0, BuildingBlock: NAWXER_clean_sbu_0, # of connection points: 4
#     Node 6, Type 1, BuildingBlock: MUDLON_clean_sbu_0, # of connection points: 4
#     Node 7, Type 1, BuildingBlock: MUDLON_clean_sbu_0, # of connection points: 4
#     Node 8, Type 1, BuildingBlock: MUDLON_clean_sbu_0, # of connection points: 4
#     Node 9, Type 1, BuildingBlock: MUDLON_clean_sbu_0, # of connection points: 4
#     Node 10, Type 1, BuildingBlock: MUDLON_clean_sbu_0, # of connection points: 4
#     Node 11, Type 1, BuildingBlock: MUDLON_clean_sbu_0, # of connection points: 4
#     Edge 12, Type (0, 1), BuildingBlock: EZIPEK_clean_linker_0, # of connection points: 2
#     Edge 13, Type (0, 1), BuildingBlock: EZIPEK_clean_linker_0, # of connection points: 2
#     Edge 14, Type (0, 1), BuildingBlock: EZIPEK_clean_linker_0, # of connection points: 2
#     Edge 15, Type (0, 1), BuildingBlock: EZIPEK_clean_linker_0, # of connection points: 2
#     Edge 16, Type (0, 1), BuildingBlock: EZIPEK_clean_linker_0, # of connection points: 2
#     Edge 17, Type (0, 1), BuildingBlock: EZIPEK_clean_linker_0, # of connection points: 2
#     Edge 18, Type (0, 1), BuildingBlock: EZIPEK_clean_linker_0, # of connection points: 2
#     Edge 19, Type (0, 1), BuildingBlock: EZIPEK_clean_linker_0, # of connection points: 2
#     Edge 20, Type (0, 1), BuildingBlock: EZIPEK_clean_linker_0, # of connection points: 2
#     Edge 21, Type (0, 1), BuildingBlock: EZIPEK_clean_linker_0, # of connection points: 2
#     Edge 22, Type (0, 1), BuildingBlock: EZIPEK_clean_linker_0, # of connection points: 2
#     Edge 23, Type (0, 1), BuildingBlock: EZIPEK_clean_linker_0, # of connection points: 2
#     Edge 24, Type (0, 1), BuildingBlock: EZIPEK_clean_linker_0, # of connection points: 2
#     Edge 25, Type (0, 1), BuildingBlock: EZIPEK_clean_linker_0, # of connection points: 2
#     Edge 26, Type (0, 1), BuildingBlock: EZIPEK_clean_linker_0, # of connection points: 2
#     Edge 27, Type (0, 1), BuildingBlock: EZIPEK_clean_linker_0, # of connection points: 2
#     Edge 28, Type (0, 1), BuildingBlock: EZIPEK_clean_linker_0, # of connection points: 2
#     Edge 29, Type (0, 1), BuildingBlock: EZIPEK_clean_linker_0, # of connection points: 2
#     Edge 30, Type (0, 1), BuildingBlock: EZIPEK_clean_linker_0, # of connection points: 2
#     Edge 31, Type (0, 1), BuildingBlock: EZIPEK_clean_linker_0, # of connection points: 2
#     Edge 32, Type (0, 1), BuildingBlock: EZIPEK_clean_linker_0, # of connection points: 2
#     Edge 33, Type (0, 1), BuildingBlock: EZIPEK_clean_linker_0, # of connection points: 2
#     Edge 34, Type (0, 1), BuildingBlock: EZIPEK_clean_linker_0, # of connection points: 2
#     Edge 35, Type (0, 1), BuildingBlock: EZIPEK_clean_linker_0, # of connection points: 2
# Relax obj value: 0.034
# Max RMSD: 0.048
# Mean RMSD: 0.037
data_MOF--net-ssa--node1-NAWXER_clean_sbu_0--node2-MUDLON_clean_sbu_0--edge1-EZIPEK_clean_linker_0
_symmetry_space_group_name_H-M    P1
_symmetry_Int_Tables_number       1
_symmetry_cell_setting            triclinic
loop_
_symmetry_equiv_pos_as_xyz
'x, y, z'
_cell_length_a     31.268441
_cell_length_b     31.29449
_cell_length_c     28.190192
_cell_angle_alpha  89.588057
_cell_angle_beta   90.247341
_cell_angle_gamma 120.08822
loop_
_atom_site_label
_atom_site_type_symbol
_atom_site_fract_x
_atom_site_fract_y
_atom_site_fract_z
_atom_type_partial_charge
C0 C 0.07695 0.59286 0.10871 0.0
C1 C 0.99394 0.44415 1.0113 0.0
O2 O 0.03562 0.55417 0.11676 0.0
Zn3 Zn 0.03138 0.51975 0.05814 0.0
O4 O 0.09739 0.59894 0.06803 0.0
Zn5 Zn 0.0846 0.55657 1.00425 0.0
O6 O 0.071 0.59121 0.95446 0.0
O7 O 0.00807 0.55214 1.00348 0.0
O8 O 0.03101 0.47988 0.99009 0.0
O9 O 0.98183 0.45056 0.05252 0.0
O10 O 0.09849 0.51672 0.06415 0.0
O11 O 0.14672 0.55685 1.00308 0.0
C12 C 0.02672 0.57779 0.96567 0.0
C13 C 0.13941 0.53308 0.04183 0.0
C14 C 0.56121 0.08784 0.57898 0.0
C15 C 0.59062 0.97479 0.4865 0.0
O16 O 0.54158 0.04471 0.59783 0.0
Zn17 Zn 0.53754 0.9753 0.58332 0.0
O18 O 0.58479 0.09689 0.54015 0.0
Zn19 Zn 0.57927 0.03297 0.53389 0.0
O20 O 0.50248 0.98548 0.51562 0.0
O21 O 0.46695 0.93019 0.57292 0.0
O22 O 0.61017 0.02113 0.48023 0.0
O23 O 0.56521 0.95441 0.52387 0.0
O24 O 0.57097 0.96805 0.63881 0.0
O25 O 0.62032 0.0329 0.59502 0.0
C26 C 0.46439 0.94747 0.53265 0.0
C27 C 0.61262 0.007 0.63276 0.0
C28 C 0.45711 0.41253 0.97592 0.0
C29 C 0.5033 0.55931 0.07061 0.0
O30 O 0.4421 0.44319 0.97003 0.0
Zn31 Zn 0.47751 0.4851 0.02342 0.0
O32 O 0.48351 0.41588 1.01204 0.0
Zn33 Zn 0.51734 0.4642 0.07077 0.0
O34 O 0.4837 0.42459 0.1267 0.0
O35 O 0.43664 0.44511 0.08511 0.0
O36 O 0.51982 0.53225 0.08759 0.0
O37 O 0.47859 0.54699 0.03219 0.0
O38 O 0.55204 0.50799 1.00214 0.0
O39 O 0.5863 0.48418 0.05703 0.0
C40 C 0.44337 0.42492 0.12189 0.0
C41 C 0.58879 0.5041 1.01678 0.0
C42 C 0.05018 0.58886 0.50476 0.0
C43 C 0.98145 0.43563 0.59427 0.0
O44 O 0.06657 0.58027 0.54279 0.0
Zn45 Zn 0.01915 0.51106 0.54714 0.0
O46 O 0.01196 0.55398 0.48429 0.0
Zn47 Zn 0.96111 0.47614 0.49691 0.0
O48 O 0.89812 0.47397 0.50622 0.0
O49 O 0.95245 0.51189 0.56362 0.0
O50 O 0.95667 0.43114 0.55652 0.0
O51 O 0.0225 0.47484 0.60133 0.0
O52 O 0.03774 0.48165 0.48708 0.0
O53 O 0.97124 0.44415 0.44211 0.0
C54 C 0.90926 0.49588 0.54608 0.0
C55 C 0.01611 0.45678 0.44985 0.0
C56 C 0.49811 0.96648 0.05374 0.0
C57 C 0.40388 0.0181 0.95223 0.0
O58 O 0.50095 0.00657 0.06862 0.0
Zn59 Zn 0.47283 0.05502 0.0458 0.0
O60 O 0.47397 0.94658 1.01607 0.0
Zn61 Zn 0.45033 0.99193 1.0045 0.0
O62 O 0.51733 0.05657 0.98153 0.0
O63 O 0.53249 0.11642 0.03178 0.0
O64 O 0.40659 0.97905 0.95113 0.0
O65 O 0.42683 0.04915 0.98556 0.0
O66 O 0.43531 0.05361 0.10059 0.0
O67 O 0.40568 0.98056 0.06711 0.0
C68 C 0.54442 0.10135 0.99517 0.0
C69 C 0.40471 0.00753 0.10071 0.0
C70 C 0.6087 0.60754 0.59378 0.0
C71 C 0.46384 0.55332 0.49209 0.0
O72 O 0.57704 0.62166 0.59454 0.0
Zn73 Zn 0.53685 0.58168 0.54225 0.0
O74 O 0.60728 0.5792 0.56038 0.0
Zn75 Zn 0.56068 0.54261 0.49983 0.0
O76 O 0.60235 0.57442 0.4447 0.0
O77 O 0.57749 0.62101 0.47949 0.0
O78 O 0.49216 0.53739 0.47788 0.0
O79 O 0.47447 0.57893 0.52966 0.0
O80 O 0.51465 0.50725 0.56761 0.0
O81 O 0.53933 0.47404 0.51339 0.0
C82 C 0.59954 0.61356 0.44503 0.0
C83 C 0.51802 0.4703 0.55281 0.0
Mg84 Mg 0.24411 0.45921 0.27835 0.0
C85 C 0.25411 0.50268 0.17993 0.0
O86 O 0.28664 0.48817 0.17516 0.0
C87 C 0.30011 0.51137 0.36756 0.0
O88 O 0.25517 0.49516 0.38355 0.0
C89 C 0.14294 0.43777 0.31152 0.0
O90 O 0.14395 0.45589 0.2691 0.0
O91 O 0.17741 0.42925 0.32332 0.0
O92 O 0.23425 0.49936 0.22011 0.0
O93 O 0.26828 0.4139 0.24094 0.0
C94 C 0.29543 0.39848 0.25904 0.0
O95 O 0.29685 0.39443 0.30533 0.0
O96 O 0.30645 0.50461 0.32434 0.0
Mg97 Mg 0.79849 0.23207 0.81524 0.0
C98 C 0.76504 0.12551 0.76695 0.0
O99 O 0.80252 0.12243 0.78413 0.0
C100 C 0.88994 0.29034 0.87605 0.0
O101 O 0.90718 0.31362 0.83576 0.0
C102 C 0.71881 0.19522 0.88134 0.0
O103 O 0.74181 0.1703 0.88851 0.0
O104 O 0.73543 0.22927 0.85002 0.0
O105 O 0.76009 0.16242 0.77653 0.0
O106 O 0.83311 0.28891 0.76078 0.0
C107 C 0.86877 0.28969 0.7384 0.0
O108 O 0.88155 0.25665 0.74907 0.0
O109 O 0.84897 0.24967 0.87631 0.0
Mg110 Mg 0.58747 0.80862 0.24438 0.0
C111 C 0.56397 0.8688 0.18536 0.0
O112 O 0.52867 0.84585 0.21684 0.0
C113 C 0.60478 0.74257 0.30133 0.0
O114 O 0.55712 0.72639 0.30016 0.0
C115 C 0.55409 0.8293 0.3435 0.0
O116 O 0.52733 0.7817 0.35192 0.0
O117 O 0.57621 0.84517 0.30416 0.0
O118 O 0.60167 0.86314 0.18775 0.0
O119 O 0.53169 0.74012 0.2113 0.0
C120 C 0.54198 0.73716 0.16819 0.0
O121 O 0.57649 0.77697 0.14694 0.0
O122 O 0.63351 0.78121 0.27715 0.0
Mg123 Mg 0.79747 0.57123 0.78665 0.0
C124 C 0.73016 0.59622 0.73759 0.0
O125 O 0.70278 0.55013 0.75164 0.0
C126 C 0.87325 0.57227 0.8482 0.0
O127 O 0.83922 0.52556 0.84382 0.0
C128 C 0.74424 0.55582 0.8772 0.0
O129 O 0.78441 0.59902 0.88223 0.0
O130 O 0.73891 0.5314 0.83944 0.0
O131 O 0.77557 0.61938 0.7497 0.0
O132 O 0.81037 0.53006 0.73066 0.0
C133 C 0.79707 0.52929 0.68768 0.0
O134 O 0.76778 0.54664 0.67697 0.0
O135 O 0.86694 0.60479 0.82692 0.0
Mg136 Mg 0.22499 0.81605 0.32526 0.0
C137 C 0.20395 0.72635 0.25574 0.0
O138 O 0.24256 0.72481 0.27208 0.0
C139 C 0.31045 0.87334 0.38996 0.0
O140 O 0.29902 0.90629 0.3752 0.0
C141 C 0.16604 0.77946 0.41471 0.0
O142 O 0.21032 0.80358 0.43341 0.0
O143 O 0.16049 0.78806 0.37158 0.0
O144 O 0.19332 0.75764 0.27195 0.0
O145 O 0.25175 0.88154 0.28016 0.0
C146 C 0.28672 0.88502 0.25428 0.0
O147 O 0.30117 0.85247 0.25996 0.0
O148 O 0.28721 0.82998 0.37232 0.0
Mg149 Mg 0.44502 0.2264 0.74788 0.0
C150 C 0.53255 0.2218 0.69525 0.0
O151 O 0.56188 0.26956 0.70021 0.0
C152 C 0.45879 0.27206 0.84636 0.0
O153 O 0.43885 0.22624 0.86119 0.0
C154 C 0.41154 0.13825 0.80539 0.0
O155 O 0.45991 0.15983 0.80281 0.0
O156 O 0.38979 0.15764 0.78299 0.0
O157 O 0.48949 0.20035 0.71301 0.0
O158 O 0.43159 0.26556 0.68968 0.0
C159 C 0.46985 0.3081 0.68356 0.0
O160 O 0.50796 0.32137 0.71175 0.0
O161 O 0.47162 0.28247 0.80315 0.0
C162 C 0.17908 0.48512 0.06768 0.0
C163 C 0.17987 0.53061 0.06645 0.0
C164 C 0.24062 0.56188 0.13111 0.0
C165 C 0.23343 0.51379 0.13743 0.0
N166 N 0.194 0.4282 0.11367 0.0
N167 N 0.21068 0.61301 0.09621 0.0
C168 C 0.2029 0.47514 0.10568 0.0
C169 C 0.21115 0.56957 0.09742 0.0
N170 N 0.15507 0.45149 0.03257 0.0
N171 N 0.27599 0.60013 0.15705 0.0
H172 H 0.19206 0.6211 0.07008 0.0
H173 H 0.22688 0.64012 0.1221 0.0
H174 H 0.29813 0.59541 0.18192 0.0
H175 H 0.28635 0.63696 0.15118 0.0
H176 H 0.15636 0.41909 0.02879 0.0
H177 H 0.13759 0.45852 1.00443 0.0
H178 H 0.16772 0.3975 0.09514 0.0
H179 H 0.21033 0.41902 0.1412 0.0
C180 C 0.63847 0.0413 0.7153 0.0
C181 C 0.65019 0.02742 0.67143 0.0
C182 C 0.7385 0.07357 0.69229 0.0
C183 C 0.72641 0.08576 0.73684 0.0
N184 N 0.66434 0.0693 0.79577 0.0
N185 N 0.70966 0.02057 0.62305 0.0
C186 C 0.67613 0.0655 0.74995 0.0
C187 C 0.69975 0.04031 0.66165 0.0
N188 N 0.59248 0.03503 0.72277 0.0
N189 N 0.78663 0.09615 0.67773 0.0
H190 H 0.68197 0.9959 0.60028 0.0
H191 H 0.74431 0.0248 0.61629 0.0
H192 H 0.81607 0.12094 0.69872 0.0
H193 H 0.7971 0.09324 0.64343 0.0
H194 H 0.58411 0.05021 0.75158 0.0
H195 H 0.56374 0.01877 0.69828 0.0
H196 H 0.62818 0.05143 0.80847 0.0
H197 H 0.69102 0.08598 0.82225 0.0
C198 C 0.56106 0.6395 0.1106 0.0
C199 C 0.51213 0.60393 0.09713 0.0
C200 C 0.48108 0.65463 0.13302 0.0
C201 C 0.52974 0.68887 0.14787 0.0
N202 N 0.61375 0.70787 0.1615 0.0
N203 N 0.4243 0.57154 0.10604 0.0
C204 C 0.569 0.67942 0.13987 0.0
C205 C 0.47165 0.60974 0.11124 0.0
N206 N 0.60039 0.63639 0.09398 0.0
N207 N 0.44425 0.6656 0.1385 0.0
H208 H 0.41586 0.53751 0.09184 0.0
H209 H 0.39363 0.57179 0.11998 0.0
H210 H 0.4498 0.69752 0.15548 0.0
H211 H 0.40924 0.64482 0.12357 0.0
H212 H 0.63695 0.66466 0.0973 0.0
H213 H 0.59657 0.60727 0.07345 0.0
H214 H 0.64198 0.69939 0.16134 0.0
H215 H 0.62091 0.73682 0.1843 0.0
C216 C 0.84491 0.46248 0.61011 0.0
C217 C 0.87215 0.49959 0.57558 0.0
C218 C 0.85131 0.556 0.61528 0.0
C219 C 0.82208 0.51829 0.64876 0.0
N220 N 0.78393 0.4331 0.67334 0.0
N221 N 0.89193 0.57663 0.53851 0.0
C222 C 0.81676 0.47069 0.64478 0.0
C223 C 0.87202 0.54464 0.57591 0.0
N224 N 0.84726 0.42003 0.6106 0.0
N225 N 0.86231 0.60356 0.62285 0.0
H226 H 0.90706 0.56884 0.50917 0.0
H227 H 0.88902 0.60818 0.5344 0.0
H228 H 0.85064 0.61426 0.65275 0.0
H229 H 0.88735 0.63337 0.60226 0.0
H230 H 0.83385 0.39443 0.6383 0.0
H231 H 0.865 0.41156 0.58415 0.0
H232 H 0.77461 0.39641 0.66911 0.0
H233 H 0.76291 0.43796 0.6991 0.0
C234 C 0.32063 0.957 0.13778 0.0
C235 C 0.37284 0.98353 0.14275 0.0
C236 C 0.36448 0.95801 0.2263 0.0
C237 C 0.3133 0.92542 0.2192 0.0
N238 N 0.24187 0.89205 0.1682 0.0
N239 N 0.4453 0.00497 0.19043 0.0
C240 C 0.29091 0.92495 0.17514 0.0
C241 C 0.39505 0.98358 0.18689 0.0
N242 N 0.29961 0.96292 0.09752 0.0
N243 N 0.38379 0.96434 0.27099 0.0
H244 H 0.46942 0.02348 0.16248 0.0
H245 H 0.46307 1.00082 0.21994 0.0
H246 H 0.36211 0.94607 0.30051 0.0
H247 H 0.41987 0.99111 0.2795 0.0
H248 H 0.26171 0.94831 0.09329 0.0
H249 H 0.32053 0.98612 0.06971 0.0
H250 H 0.22458 0.88533 0.13526 0.0
H251 H 0.2188 0.86939 0.19523 0.0
C252 C 0.45585 0.40286 0.60826 0.0
C253 C 0.5021 0.42564 0.58387 0.0
C254 C 0.51711 0.36071 0.6146 0.0
C255 C 0.4749 0.34242 0.64415 0.0
N256 N 0.40669 0.34994 0.67336 0.0
N257 N 0.58243 0.43249 0.57573 0.0
C258 C 0.44461 0.36419 0.64184 0.0
C259 C 0.53416 0.40605 0.58991 0.0
N260 N 0.42211 0.41734 0.59894 0.0
N261 N 0.54116 0.33465 0.61006 0.0
H262 H 0.59848 0.46812 0.56171 0.0
H263 H 0.60828 0.42173 0.58358 0.0
H264 H 0.52918 0.30088 0.62708 0.0
H265 H 0.56935 0.34384 0.58551 0.0
H266 H 0.38584 0.39828 0.61126 0.0
H267 H 0.42901 0.44609 0.57586 0.0
H268 H 0.3873 0.36871 0.67751 0.0
H269 H 0.39682 0.3214 0.69785 0.0
C270 C 0.55585 0.93671 0.40759 0.0
C271 C 0.58675 0.9421 0.44702 0.0
C272 C 0.59148 0.8698 0.4213 0.0
C273 C 0.56251 0.86589 0.38074 0.0
N274 N 0.52182 0.89842 0.33183 0.0
N275 N 0.63969 0.91929 0.4884 0.0
C276 C 0.54639 0.90041 0.37278 0.0
C277 C 0.6061 0.91005 0.45304 0.0
N278 N 0.53275 0.964 0.40493 0.0
N279 N 0.60502 0.83506 0.42944 0.0
H280 H 0.65138 0.94891 0.51166 0.0
H281 H 0.65909 0.90052 0.49254 0.0
H282 H 0.59735 0.80654 0.40596 0.0
H283 H 0.62139 0.83249 0.46072 0.0
H284 H 0.50439 0.95677 0.38112 0.0
H285 H 0.53903 0.99187 0.42868 0.0
H286 H 0.51536 0.92647 0.32065 0.0
H287 H 0.50975 0.86963 0.30758 0.0
C288 C 0.64325 0.48162 0.96907 0.0
C289 C 0.63077 0.51763 0.98335 0.0
C290 C 0.68574 0.57377 0.92143 0.0
C291 C 0.70313 0.54065 0.91179 0.0
N292 N 0.70339 0.46566 0.93127 0.0
N293 N 0.64582 0.60098 0.97689 0.0
C294 C 0.68326 0.49524 0.93694 0.0
C295 C 0.65369 0.56455 0.96054 0.0
N296 N 0.61508 0.43361 0.9836 0.0
N297 N 0.69796 0.61305 0.8918 0.0
H298 H 0.62241 0.59569 1.00512 0.0
H299 H 0.6659 0.63755 0.96536 0.0
H300 H 0.7201 0.62045 0.86186 0.0
H301 H 0.68193 0.6352 0.89391 0.0
H302 H 0.61911 0.405 0.96991 0.0
H303 H 0.58434 0.42127 1.00555 0.0
H304 H 0.694 0.43484 0.95255 0.0
H305 H 0.73247 0.47422 0.90798 0.0
C306 C 0.06218 0.67252 0.48372 0.0
C307 C 0.07839 0.63754 0.48103 0.0
C308 C 0.14548 0.69242 0.42767 0.0
C309 C 0.13254 0.7295 0.43419 0.0
N310 N 0.08121 0.75721 0.4702 0.0
N311 N 0.1391 0.61627 0.45607 0.0
C312 C 0.09136 0.72013 0.46252 0.0
C313 C 0.12107 0.64808 0.45457 0.0
N314 N 0.01898 0.66009 0.50657 0.0
N315 N 0.18039 0.69911 0.39476 0.0
H316 H 0.12153 0.5825 0.47401 0.0
H317 H 0.17331 0.62471 0.44228 0.0
H318 H 0.1994 0.73109 0.37428 0.0
H319 H 0.18742 0.67131 0.38452 0.0
H320 H 1.00221 0.68161 0.5058 0.0
H321 H 0.99829 0.62657 0.52445 0.0
H322 H 0.05507 0.75482 0.49442 0.0
H323 H 0.10104 0.79177 0.45385 0.0
C324 C 0.38511 0.01921 0.8647 0.0
C325 C 0.3815 0.0323 0.91203 0.0
C326 C 0.36613 0.09705 0.88064 0.0
C327 C 0.38564 0.09375 0.8364 0.0
N328 N 0.4083 0.04821 0.78378 0.0
N329 N 0.35307 0.0733 0.96416 0.0
C330 C 0.39269 0.05319 0.82749 0.0
C331 C 0.36649 0.06775 0.91961 0.0
N332 N 0.3795 0.97402 0.85498 0.0
N333 N 0.34783 0.12828 0.88517 0.0
H334 H 0.3477 0.04844 0.99153 0.0
H335 H 0.34709 0.10184 0.97406 0.0
H336 H 0.34533 0.14798 0.85639 0.0
H337 H 0.3312 0.13151 0.91575 0.0
H338 H 0.37921 0.96178 0.82066 0.0
H339 H 0.36739 0.94597 0.88032 0.0
H340 H 0.42045 0.02339 0.77675 0.0
H341 H 0.41092 0.07063 0.75504 0.0
C342 C 0.38185 0.49368 0.45622 0.0
C343 C 0.42012 0.54324 0.46298 0.0
C344 C 0.37652 0.5725 0.41117 0.0
C345 C 0.34042 0.52283 0.40174 0.0
N346 N 0.31008 0.43557 0.41116 0.0
N347 N 0.45843 0.62947 0.44136 0.0
C348 C 0.34333 0.48325 0.42333 0.0
C349 C 0.41856 0.5827 0.43926 0.0
N350 N 0.38179 0.4566 0.48218 0.0
N351 N 0.37018 0.60985 0.39379 0.0
H352 H 0.49008 0.63843 0.46113 0.0
H353 H 0.46201 0.65872 0.4206 0.0
H354 H 0.34024 0.60346 0.37239 0.0
H355 H 0.39227 0.64668 0.4034 0.0
H356 H 0.35211 0.42061 0.48367 0.0
H357 H 0.41042 0.46259 0.50502 0.0
H358 H 0.31386 0.40541 0.42052 0.0
H359 H 0.27989 0.42607 0.38897 0.0
C360 C 0.98234 0.36726 0.97189 0.0
C361 C 0.96258 0.39756 0.98506 0.0
C362 C 0.88745 0.34496 0.93908 0.0
C363 C 0.91039 0.31939 0.92024 0.0
N364 N 0.97943 0.30568 0.91774 0.0
N365 N 0.89829 0.4185 0.9781 0.0
C366 C 0.95763 0.33008 0.9368 0.0
C367 C 0.91522 0.38673 0.9686 0.0
N368 N 0.02445 0.37385 0.99345 0.0
N369 N 0.83941 0.33011 0.9279 0.0
H370 H 0.91717 0.44952 0.99953 0.0
H371 H 0.86735 0.41648 0.96188 0.0
H372 H 0.81838 0.30143 0.90458 0.0
H373 H 0.8189 0.3434 0.9448 0.0
H374 H 0.03886 0.35058 0.98865 0.0
H375 H 0.04282 0.40049 1.01951 0.0
H376 H 0.01607 0.31544 0.92379 0.0
H377 H 0.96106 0.27653 0.89401 0.0
C378 C 0.97173 0.61271 0.94523 0.0
C379 C 0.99393 0.58462 0.93185 0.0
C380 C 0.94765 0.56324 0.85691 0.0
C381 C 0.91988 0.58457 0.87353 0.0
N382 N 0.90386 0.62865 0.9341 0.0
N383 N 0.99841 0.52766 0.87732 0.0
C384 C 0.93195 0.60976 0.91759 0.0
C385 C 0.9812 0.55893 0.88801 0.0
N386 N 0.98915 0.64255 0.98407 0.0
N387 N 0.94211 0.54739 0.81103 0.0
H388 H 0.02256 0.5226 0.89908 0.0
H389 H 0.98544 0.50341 0.84879 0.0
H390 H 0.91828 0.55071 0.78719 0.0
H391 H 0.96462 0.53579 0.79531 0.0
H392 H 0.97793 0.66756 0.99339 0.0
H393 H 0.01814 0.64531 1.00484 0.0
H394 H 0.90667 0.64203 0.96835 0.0
H395 H 0.87568 0.62856 0.91418 0.0
C396 C 0.41986 0.88959 0.46578 0.0
C397 C 0.42004 0.9211 0.50187 0.0
C398 C 0.34219 0.91078 0.47065 0.0
C399 C 0.34639 0.88615 0.43002 0.0
N400 N 0.39409 0.85834 0.38619 0.0
N401 N 0.38393 0.96555 0.53675 0.0
C402 C 0.38623 0.87665 0.42705 0.0
C403 C 0.38178 0.93261 0.5039 0.0
N404 N 0.45179 0.87185 0.46868 0.0
N405 N 0.29963 0.91182 0.47856 0.0
H406 H 0.41134 0.98069 0.56277 0.0
H407 H 0.36052 0.98025 0.53622 0.0
H408 H 0.26899 0.89501 0.45626 0.0
H409 H 0.2927 0.92485 0.50982 0.0
H410 H 0.45047 0.84517 0.44587 0.0
H411 H 0.47651 0.88031 0.49678 0.0
H412 H 0.42557 0.85575 0.3803 0.0
H413 H 0.37165 0.85005 0.35629 0.0
C414 C 0.41154 0.3315 0.93343 0.0
C415 C 0.45342 0.37913 0.93738 0.0
C416 C 0.49969 0.3564 0.88317 0.0
C417 C 0.45699 0.30943 0.87705 0.0
N418 N 0.36817 0.25841 0.88514 0.0
N419 N 0.53164 0.44158 0.90548 0.0
C420 C 0.4116 0.29858 0.899 0.0
C421 C 0.49575 0.39305 0.90888 0.0
N422 N 0.37213 0.3174 0.96298 0.0
N423 N 0.54441 0.36546 0.86629 0.0
H424 H 0.52818 0.46957 0.92154 0.0
H425 H 0.5616 0.45449 0.88241 0.0
H426 H 0.54908 0.33916 0.84814 0.0
H427 H 0.57758 0.39738 0.87424 0.0
H428 H 0.34294 0.28115 0.9654 0.0
H429 H 0.37028 0.34143 0.98728 0.0
H430 H 0.33372 0.25128 0.89713 0.0
H431 H 0.36594 0.23539 0.85756 0.0
C432 C 0.07982 0.49103 0.38577 0.0
C433 C 0.04604 0.44966 0.41311 0.0
C434 C 0.07401 0.39847 0.37259 0.0
C435 C 0.11076 0.44115 0.34851 0.0
N436 N 0.15666 0.53015 0.34224 0.0
N437 N 0.01429 0.3651 0.43714 0.0
C438 C 0.11588 0.48802 0.35791 0.0
C439 C 0.04399 0.40355 0.40781 0.0
N440 N 0.07651 0.53296 0.38517 0.0
N441 N 0.06689 0.35308 0.36086 0.0
H442 H 0.99117 0.36744 0.4623 0.0
H443 H 0.01485 0.33214 0.4387 0.0
H444 H 0.08868 0.34838 0.33587 0.0
H445 H 0.03752 0.32003 0.3734 0.0
H446 H 0.09695 0.56249 0.36217 0.0
H447 H 0.05001 0.53639 0.40445 0.0
H448 H 0.16498 0.56535 0.35277 0.0
H449 H 0.18503 0.52996 0.32308 0.0
C450 C 0.63672 0.15578 0.98878 0.0
C451 C 0.58926 0.1348 0.96751 0.0
C452 C 0.62715 0.16148 0.88884 0.0
C453 C 0.67456 0.18265 0.91024 0.0
N454 N 0.72473 0.21241 0.98057 0.0
N455 N 0.53934 0.12955 0.89991 0.0
C456 C 0.67931 0.18398 0.96032 0.0
C457 C 0.58453 0.14161 0.91829 0.0
N458 N 0.64143 0.14608 0.03528 0.0
N459 N 0.62253 0.15748 0.84059 0.0
H460 H 0.50758 0.1157 0.92076 0.0
H461 H 0.53422 0.1378 0.86522 0.0
H462 H 0.65274 0.17179 0.8177 0.0
H463 H 0.58874 0.13702 0.82332 0.0
H464 H 0.67522 0.15544 0.05095 0.0
H465 H 0.61136 0.12515 0.05746 0.0
H466 H 0.73003 0.21871 1.01691 0.0
H467 H 0.75655 0.23373 0.96049 0.0
C468 C 0.58971 0.62849 0.3586 0.0
C469 C 0.61408 0.64696 0.40277 0.0
C470 C 0.64731 0.73215 0.37331 0.0
C471 C 0.62142 0.71337 0.33004 0.0
N472 N 0.58221 0.64555 0.2759 0.0
N473 N 0.67605 0.71517 0.44766 0.0
C474 C 0.59794 0.66208 0.32085 0.0
C475 C 0.6464 0.69855 0.40849 0.0
N476 N 0.55518 0.57958 0.35373 0.0
N477 N 0.67009 0.78165 0.38195 0.0
H478 H 0.67617 0.69117 0.47351 0.0
H479 H 0.70342 0.75183 0.45242 0.0
H480 H 0.67288 0.80712 0.35634 0.0
H481 H 0.68426 0.79724 0.4149 0.0
H482 H 0.53192 0.56553 0.3244 0.0
H483 H 0.54641 0.55329 0.38036 0.0
H484 H 0.56893 0.60915 0.2655 0.0
H485 H 0.58725 0.66966 0.248 0.0
C486 C 0.59207 0.15244 0.64198 0.0
C487 C 0.55834 0.1274 0.60446 0.0
C488 C 0.51516 0.17272 0.62085 0.0
C489 C 0.54506 0.1933 0.6619 0.0
N490 N 0.60934 0.20024 0.71423 0.0
N491 N 0.48536 0.10965 0.5601 0.0
C492 C 0.58327 0.18298 0.67295 0.0
C493 C 0.51943 0.1367 0.59416 0.0
N494 N 0.63263 0.14714 0.64771 0.0
N495 N 0.48337 0.18845 0.60684 0.0
H496 H 0.48822 0.08406 0.53881 0.0
H497 H 0.45257 0.11006 0.55498 0.0
H498 H 0.47876 0.21445 0.62557 0.0
H499 H 0.4646 0.17899 0.57459 0.0
H500 H 0.66112 0.16774 0.67148 0.0
H501 H 0.63987 0.12474 0.62588 0.0
H502 H 0.63364 0.18936 0.72725 0.0
H503 H 0.60427 0.22318 0.73737 0.0
C504 C 0.42105 0.4451 0.20055 0.0
C505 C 0.4082 0.41167 0.16213 0.0
C506 C 0.32203 0.36614 0.19007 0.0
C507 C 0.33491 0.39935 0.22873 0.0
N508 N 0.39821 0.46681 0.27463 0.0
N509 N 0.34964 0.33637 0.12385 0.0
C510 C 0.38499 0.43723 0.23547 0.0
C511 C 0.35955 0.37086 0.15809 0.0
N512 N 0.4668 0.48673 0.20172 0.0
N513 N 0.27365 0.33081 0.18345 0.0
H514 H 0.37655 0.33911 0.10025 0.0
H515 H 0.31628 0.30336 0.12091 0.0
H516 H 0.2459 0.32458 0.20762 0.0
H517 H 0.26041 0.309 0.15329 0.0
H518 H 0.47619 0.51638 0.22423 0.0
H519 H 0.49501 0.49358 0.17799 0.0
H520 H 0.43472 0.48956 0.2852 0.0
H521 H 0.37312 0.46726 0.29843 0.0
C522 C 0.94101 0.34899 0.6253 0.0
C523 C 0.95666 0.39936 0.63299 0.0
C524 C 0.91638 0.37874 0.71095 0.0
C525 C 0.89688 0.32768 0.70146 0.0
N526 N 0.88141 0.26404 0.64461 0.0
N527 N 0.94929 0.46081 0.67826 0.0
C528 C 0.90678 0.31272 0.65726 0.0
C529 C 0.94178 0.41396 0.67451 0.0
N530 N 0.9594 0.33589 0.58774 0.0
N531 N 0.91243 0.39422 0.75509 0.0
H532 H 0.96752 0.48821 0.65269 0.0
H533 H 0.93327 0.47125 0.70475 0.0
H534 H 0.89344 0.37041 0.78301 0.0
H535 H 0.93159 0.43117 0.76523 0.0
H536 H 0.95328 0.30028 0.58293 0.0
H537 H 0.98465 0.3617 0.56377 0.0
H538 H 0.8836 0.25162 0.61103 0.0
H539 H 0.85399 0.23657 0.66576 0.0
C540 C 0.56816 0.96695 0.10004 0.0
C541 C 0.51861 0.9409 0.08299 0.0
C542 C 0.50814 0.86533 0.12045 0.0
C543 C 0.55395 0.89292 0.14434 0.0
N544 N 0.62678 0.97145 0.15955 0.0
N545 N 0.43812 0.86679 0.08625 0.0
C546 C 0.58413 0.94413 0.13453 0.0
C547 C 0.48779 0.89033 0.09526 0.0
N548 N 0.60025 0.01289 0.08249 0.0
N549 N 0.48394 0.8149 0.12172 0.0
H550 H 0.42037 0.88418 0.07105 0.0
H551 H 0.41354 0.83147 0.09898 0.0
H552 H 0.49826 0.79529 0.13913 0.0
H553 H 0.45274 0.7929 0.10124 0.0
H554 H 0.63788 0.03186 0.0903 0.0
H555 H 0.59017 0.03004 0.05645 0.0
H556 H 0.64736 0.00986 0.15797 0.0
H557 H 0.6399 0.95584 0.18428 0.0
C558 C 0.62534 0.60185 0.6806 0.0
C559 C 0.64364 0.61828 0.63397 0.0
C560 C 0.72613 0.63545 0.65933 0.0
C561 C 0.70707 0.61723 0.70548 0.0
N562 N 0.64502 0.6016 0.76379 0.0
N563 N 0.71363 0.66372 0.58266 0.0
C564 C 0.65884 0.60701 0.71725 0.0
C565 C 0.69489 0.63943 0.62463 0.0
N566 N 0.57564 0.57753 0.68941 0.0
N567 N 0.77288 0.64641 0.64762 0.0
H568 H 0.69157 0.66755 0.55704 0.0
H569 H 0.75128 0.68398 0.57518 0.0
H570 H 0.79835 0.648 0.67236 0.0
H571 H 0.78602 0.65249 0.61292 0.0
H572 H 0.56033 0.5597 0.72146 0.0
H573 H 0.54907 0.57107 0.66374 0.0
H574 H 0.61186 0.59841 0.77514 0.0
H575 H 0.66933 0.60585 0.79121 0.0
C576 C 0.12068 0.60776 0.18744 0.0
C577 C 0.10646 0.62654 0.14801 0.0
C578 C 0.16248 0.71098 0.17574 0.0
C579 C 0.17193 0.69185 0.21794 0.0
N580 N 0.15132 0.62124 0.26803 0.0
N581 N 0.10827 0.69579 0.10826 0.0
C582 C 0.14862 0.64002 0.22495 0.0
C583 C 0.12578 0.67816 0.14325 0.0
N584 N 0.11012 0.55973 0.18811 0.0
N585 N 0.19018 0.76029 0.16557 0.0
H586 H 0.08109 0.67272 0.08423 0.0
H587 H 0.11721 0.73258 0.10584 0.0
H588 H 0.21866 0.78518 0.18748 0.0
H589 H 0.1884 0.77569 0.13327 0.0
H590 H 0.12476 0.54602 0.21328 0.0
H591 H 0.091 0.53475 0.16108 0.0
H592 H 0.13021 0.58383 0.27646 0.0
H593 H 0.17071 0.64331 0.2968 0.0
loop_
_geom_bond_atom_site_label_1
_geom_bond_atom_site_label_2
_geom_bond_distance
_geom_bond_site_symmetry_2
_ccdc_geom_bond_type
C0 O2 1.247 . S
C0 O4 1.258 . S
C1 O8 1.247 1_655 S
C1 O9 1.258 . S
O2 C0 1.247 . S
O2 Zn3 2.028 1_455 S
Zn3 O2 2.028 1_655 S
Zn3 O7 2.035 1_554 S
Zn3 O9 2.035 1_554 S
Zn3 O10 2.028 1_655 S
O4 C0 1.258 . S
O4 Zn5 2.035 1_554 S
Zn5 O4 2.035 1_556 S
Zn5 O6 2.028 . S
Zn5 O8 2.028 . S
Zn5 O11 2.035 1_556 S
O6 Zn5 2.028 . S
O6 C12 1.247 1_455 S
O7 Zn3 2.035 1_556 S
O7 C12 1.258 . S
O8 C1 1.247 1_455 S
O8 Zn5 2.028 . S
O9 C1 1.258 . S
O9 Zn3 2.035 1_556 S
O10 Zn3 2.028 1_455 S
O10 C13 1.247 . S
O11 Zn5 2.035 1_554 S
O11 C13 1.258 . S
C12 O6 1.247 1_655 S
C12 O7 1.258 . S
C13 O10 1.247 . S
C13 O11 1.258 . S
C14 O16 1.247 . S
C14 O18 1.258 . S
C15 O22 1.247 1_565 S
C15 O23 1.258 . S
O16 C14 1.247 . S
O16 Zn17 2.028 1_545 S
Zn17 O16 2.028 1_565 S
Zn17 O21 2.035 . S
Zn17 O23 2.035 . S
Zn17 O24 2.028 1_565 S
O18 C14 1.258 . S
O18 Zn19 2.035 . S
Zn19 O18 2.035 . S
Zn19 O20 2.028 . S
Zn19 O22 2.028 . S
Zn19 O25 2.035 . S
O20 Zn19 2.028 . S
O20 C26 1.247 1_545 S
O21 Zn17 2.035 . S
O21 C26 1.258 . S
O22 C15 1.247 1_545 S
O22 Zn19 2.028 . S
O23 C15 1.258 . S
O23 Zn17 2.035 . S
O24 Zn17 2.028 1_545 S
O24 C27 1.247 . S
O25 Zn19 2.035 . S
O25 C27 1.258 . S
C26 O20 1.247 1_565 S
C26 O21 1.258 . S
C27 O24 1.247 . S
C27 O25 1.258 . S
C28 O30 1.247 . S
C28 O32 1.258 . S
C29 O36 1.247 . S
C29 O37 1.258 . S
O30 C28 1.247 . S
O30 Zn31 2.028 . S
Zn31 O30 2.028 . S
Zn31 O35 2.035 1_556 S
Zn31 O37 2.035 1_556 S
Zn31 O38 2.028 . S
O32 C28 1.258 . S
O32 Zn33 2.035 1_556 S
Zn33 O32 2.035 1_554 S
Zn33 O34 2.028 . S
Zn33 O36 2.028 . S
Zn33 O39 2.035 1_554 S
O34 Zn33 2.028 . S
O34 C40 1.247 . S
O35 Zn31 2.035 1_554 S
O35 C40 1.258 . S
O36 C29 1.247 . S
O36 Zn33 2.028 . S
O37 C29 1.258 . S
O37 Zn31 2.035 1_554 S
O38 Zn31 2.028 . S
O38 C41 1.247 . S
O39 Zn33 2.035 1_556 S
O39 C41 1.258 . S
C40 O34 1.247 . S
C40 O35 1.258 . S
C41 O38 1.247 . S
C41 O39 1.258 . S
C42 O44 1.247 . S
C42 O46 1.257 . S
C43 O50 1.247 . S
C43 O51 1.258 1_655 S
O44 C42 1.247 . S
O44 Zn45 2.028 . S
Zn45 O44 2.028 . S
Zn45 O49 2.035 . S
Zn45 O51 2.035 . S
Zn45 O52 2.028 . S
O46 C42 1.257 . S
O46 Zn47 2.035 1_455 S
Zn47 O46 2.035 1_655 S
Zn47 O48 2.028 . S
Zn47 O50 2.028 . S
Zn47 O53 2.037 1_655 S
O48 Zn47 2.028 . S
O48 C54 1.247 . S
O49 Zn45 2.035 . S
O49 C54 1.258 1_455 S
O50 C43 1.247 . S
O50 Zn47 2.028 . S
O51 C43 1.258 1_455 S
O51 Zn45 2.035 . S
O52 Zn45 2.028 . S
O52 C55 1.247 . S
O53 Zn47 2.037 1_455 S
O53 C55 1.256 . S
C54 O48 1.247 . S
C54 O49 1.258 1_655 S
C55 O52 1.247 . S
C55 O53 1.256 . S
C56 O58 1.247 1_565 S
C56 O60 1.258 . S
C57 O64 1.246 1_545 S
C57 O65 1.258 . S
O58 C56 1.247 1_545 S
O58 Zn59 2.028 . S
Zn59 O58 2.028 . S
Zn59 O63 2.035 1_554 S
Zn59 O65 2.035 1_554 S
Zn59 O66 2.028 . S
O60 C56 1.258 . S
O60 Zn61 2.035 1_554 S
Zn61 O60 2.035 1_556 S
Zn61 O62 2.028 . S
Zn61 O64 2.029 . S
Zn61 O67 2.035 1_556 S
O62 Zn61 2.028 . S
O62 C68 1.246 1_565 S
O63 Zn59 2.035 1_556 S
O63 C68 1.258 . S
O64 C57 1.246 1_565 S
O64 Zn61 2.029 . S
O65 C57 1.258 . S
O65 Zn59 2.035 1_556 S
O66 Zn59 2.028 . S
O66 C69 1.247 1_545 S
O67 Zn61 2.035 1_554 S
O67 C69 1.258 . S
C68 O62 1.246 1_545 S
C68 O63 1.258 . S
C69 O66 1.247 1_565 S
C69 O67 1.258 . S
C70 O72 1.247 . S
C70 O74 1.258 . S
C71 O78 1.247 . S
C71 O79 1.258 . S
O72 C70 1.247 . S
O72 Zn73 2.028 . S
Zn73 O72 2.028 . S
Zn73 O77 2.035 . S
Zn73 O79 2.035 . S
Zn73 O80 2.028 . S
O74 C70 1.258 . S
O74 Zn75 2.035 . S
Zn75 O74 2.035 . S
Zn75 O76 2.028 . S
Zn75 O78 2.028 . S
Zn75 O81 2.035 . S
O76 Zn75 2.028 . S
O76 C82 1.247 . S
O77 Zn73 2.035 . S
O77 C82 1.258 . S
O78 C71 1.247 . S
O78 Zn75 2.028 . S
O79 C71 1.258 . S
O79 Zn73 2.035 . S
O80 Zn73 2.028 . S
O80 C83 1.247 . S
O81 Zn75 2.035 . S
O81 C83 1.258 . S
C82 O76 1.247 . S
C82 O77 1.258 . S
C83 O80 1.247 . S
C83 O81 1.258 . S
Mg84 O91 2.141 . S
Mg84 O92 2.048 . S
Mg84 O93 2.048 . S
Mg84 O96 2.141 . S
C85 O86 1.313 . S
C85 O92 1.195 . S
O86 C85 1.313 . S
C87 O88 1.245 . S
C87 O96 1.289 . S
O88 C87 1.245 . S
C89 O90 1.245 . S
C89 O91 1.289 . S
O90 C89 1.245 . S
O91 Mg84 2.141 . S
O91 C89 1.289 . S
O92 Mg84 2.048 . S
O92 C85 1.195 . S
O93 Mg84 2.048 . S
O93 C94 1.195 . S
C94 O93 1.195 . S
C94 O95 1.313 . S
O95 C94 1.313 . S
O96 Mg84 2.141 . S
O96 C87 1.289 . S
Mg97 O104 2.141 . S
Mg97 O105 2.048 . S
Mg97 O106 2.048 . S
Mg97 O109 2.141 . S
C98 O99 1.313 . S
C98 O105 1.195 . S
O99 C98 1.313 . S
C100 O101 1.245 . S
C100 O109 1.289 . S
O101 C100 1.245 . S
C102 O103 1.245 . S
C102 O104 1.289 . S
O103 C102 1.245 . S
O104 Mg97 2.141 . S
O104 C102 1.289 . S
O105 Mg97 2.048 . S
O105 C98 1.195 . S
O106 Mg97 2.048 . S
O106 C107 1.195 . S
C107 O106 1.195 . S
C107 O108 1.313 . S
O108 C107 1.313 . S
O109 Mg97 2.141 . S
O109 C100 1.289 . S
Mg110 O117 2.141 . S
Mg110 O118 2.048 . S
Mg110 O119 2.048 . S
Mg110 O122 2.141 . S
C111 O112 1.313 . S
C111 O118 1.195 . S
O112 C111 1.313 . S
C113 O114 1.245 . S
C113 O122 1.289 . S
O114 C113 1.245 . S
C115 O116 1.245 . S
C115 O117 1.289 . S
O116 C115 1.245 . S
O117 Mg110 2.141 . S
O117 C115 1.289 . S
O118 Mg110 2.048 . S
O118 C111 1.195 . S
O119 Mg110 2.048 . S
O119 C120 1.195 . S
C120 O119 1.195 . S
C120 O121 1.313 . S
O121 C120 1.313 . S
O122 Mg110 2.141 . S
O122 C113 1.289 . S
Mg123 O130 2.141 . S
Mg123 O131 2.048 . S
Mg123 O132 2.048 . S
Mg123 O135 2.141 . S
C124 O125 1.313 . S
C124 O131 1.195 . S
O125 C124 1.313 . S
C126 O127 1.245 . S
C126 O135 1.289 . S
O127 C126 1.245 . S
C128 O129 1.245 . S
C128 O130 1.289 . S
O129 C128 1.245 . S
O130 Mg123 2.141 . S
O130 C128 1.289 . S
O131 Mg123 2.048 . S
O131 C124 1.195 . S
O132 Mg123 2.048 . S
O132 C133 1.195 . S
C133 O132 1.195 . S
C133 O134 1.313 . S
O134 C133 1.313 . S
O135 Mg123 2.141 . S
O135 C126 1.289 . S
Mg136 O143 2.141 . S
Mg136 O144 2.048 . S
Mg136 O145 2.048 . S
Mg136 O148 2.141 . S
C137 O138 1.313 . S
C137 O144 1.195 . S
O138 C137 1.313 . S
C139 O140 1.245 . S
C139 O148 1.289 . S
O140 C139 1.245 . S
C141 O142 1.245 . S
C141 O143 1.289 . S
O142 C141 1.245 . S
O143 Mg136 2.141 . S
O143 C141 1.289 . S
O144 Mg136 2.048 . S
O144 C137 1.195 . S
O145 Mg136 2.048 . S
O145 C146 1.195 . S
C146 O145 1.195 . S
C146 O147 1.313 . S
O147 C146 1.313 . S
O148 Mg136 2.141 . S
O148 C139 1.289 . S
Mg149 O156 2.141 . S
Mg149 O157 2.048 . S
Mg149 O158 2.048 . S
Mg149 O161 2.141 . S
C150 O151 1.313 . S
C150 O157 1.195 . S
O151 C150 1.313 . S
C152 O153 1.245 . S
C152 O161 1.289 . S
O153 C152 1.245 . S
C154 O155 1.245 . S
C154 O156 1.289 . S
O155 C154 1.245 . S
O156 Mg149 2.141 . S
O156 C154 1.289 . S
O157 Mg149 2.048 . S
O157 C150 1.195 . S
O158 Mg149 2.048 . S
O158 C159 1.195 . S
C159 O158 1.195 . S
C159 O160 1.313 . S
O160 C159 1.313 . S
O161 Mg149 2.141 . S
O161 C152 1.289 . S
C162 C163 1.363 . S
C162 C168 1.379 . S
C162 N170 1.356 . S
C163 C162 1.363 . S
C163 C169 1.363 . S
C164 C165 1.363 . S
C164 C169 1.379 . S
C164 N171 1.356 . S
C165 C164 1.363 . S
C165 C168 1.363 . S
N166 C168 1.356 . S
N166 H178 0.984 . S
N166 H179 0.985 . S
N167 C169 1.356 . S
N167 H172 0.984 . S
N167 H173 0.985 . S
C168 C162 1.379 . S
C168 C165 1.363 . S
C168 N166 1.356 . S
C169 C163 1.363 . S
C169 C164 1.379 . S
C169 N167 1.356 . S
N170 C162 1.356 . S
N170 H176 0.984 1_455 S
N170 H177 0.984 . S
N171 C164 1.356 . S
N171 H174 0.984 . S
N171 H175 0.985 . S
H172 N167 0.984 . S
H173 N167 0.985 . S
H174 N171 0.984 . S
H175 N171 0.985 . S
H176 N170 0.984 1_655 S
H177 N170 0.984 . S
H178 N166 0.984 . S
H179 N166 0.985 . S
C180 C181 1.363 . S
C180 C186 1.379 . S
C180 N188 1.356 . S
C181 C180 1.363 . S
C181 C187 1.363 . S
C182 C183 1.363 . S
C182 C187 1.379 . S
C182 N189 1.356 . S
C183 C182 1.363 . S
C183 C186 1.363 . S
N184 C186 1.356 . S
N184 H196 0.984 . S
N184 H197 0.985 . S
N185 C187 1.356 . S
N185 H190 0.984 . S
N185 H191 0.985 . S
C186 C180 1.379 . S
C186 C183 1.363 . S
C186 N184 1.356 . S
C187 C181 1.363 . S
C187 C182 1.379 . S
C187 N185 1.356 . S
N188 C180 1.356 . S
N188 H194 0.984 1_545 S
N188 H195 0.984 . S
N189 C182 1.356 . S
N189 H192 0.984 . S
N189 H193 0.985 . S
H190 N185 0.984 . S
H191 N185 0.985 . S
H192 N189 0.984 . S
H193 N189 0.985 . S
H194 N188 0.984 1_565 S
H195 N188 0.984 . S
H196 N184 0.984 . S
H197 N184 0.985 . S
C198 C199 1.363 . S
C198 C204 1.379 . S
C198 N206 1.356 . S
C199 C198 1.363 . S
C199 C205 1.363 . S
C200 C201 1.363 . S
C200 C205 1.379 . S
C200 N207 1.356 . S
C201 C200 1.363 . S
C201 C204 1.363 . S
N202 C204 1.356 . S
N202 H214 0.984 . S
N202 H215 0.985 . S
N203 C205 1.356 . S
N203 H208 0.984 . S
N203 H209 0.985 . S
C204 C198 1.379 . S
C204 C201 1.363 . S
C204 N202 1.356 . S
C205 C199 1.363 . S
C205 C200 1.379 . S
C205 N203 1.356 . S
N206 C198 1.356 . S
N206 H212 0.984 . S
N206 H213 0.984 . S
N207 C200 1.356 . S
N207 H210 0.984 . S
N207 H211 0.985 . S
H208 N203 0.984 . S
H209 N203 0.985 . S
H210 N207 0.984 . S
H211 N207 0.985 . S
H212 N206 0.984 . S
H213 N206 0.984 . S
H214 N202 0.984 . S
H215 N202 0.985 . S
C216 C217 1.363 . S
C216 C222 1.379 . S
C216 N224 1.356 . S
C217 C216 1.363 . S
C217 C223 1.363 . S
C218 C219 1.363 . S
C218 C223 1.379 . S
C218 N225 1.356 . S
C219 C218 1.363 . S
C219 C222 1.363 . S
N220 C222 1.356 . S
N220 H232 0.984 . S
N220 H233 0.985 . S
N221 C223 1.356 . S
N221 H226 0.984 . S
N221 H227 0.985 . S
C222 C216 1.379 . S
C222 C219 1.363 . S
C222 N220 1.356 . S
C223 C217 1.363 . S
C223 C218 1.379 . S
C223 N221 1.356 . S
N224 C216 1.356 . S
N224 H230 0.984 . S
N224 H231 0.984 . S
N225 C218 1.356 . S
N225 H228 0.984 . S
N225 H229 0.985 . S
H226 N221 0.984 . S
H227 N221 0.985 . S
H228 N225 0.984 . S
H229 N225 0.985 . S
H230 N224 0.984 . S
H231 N224 0.984 . S
H232 N220 0.984 . S
H233 N220 0.985 . S
C234 C235 1.363 . S
C234 C240 1.379 . S
C234 N242 1.356 . S
C235 C234 1.363 . S
C235 C241 1.363 . S
C236 C237 1.363 . S
C236 C241 1.379 . S
C236 N243 1.356 . S
C237 C236 1.363 . S
C237 C240 1.363 . S
N238 C240 1.356 . S
N238 H250 0.984 . S
N238 H251 0.985 . S
N239 C241 1.356 . S
N239 H244 0.984 . S
N239 H245 0.985 1_565 S
C240 C234 1.379 . S
C240 C237 1.363 . S
C240 N238 1.356 . S
C241 C235 1.363 . S
C241 C236 1.379 . S
C241 N239 1.356 . S
N242 C234 1.356 . S
N242 H248 0.984 . S
N242 H249 0.984 . S
N243 C236 1.356 . S
N243 H246 0.984 . S
N243 H247 0.985 . S
H244 N239 0.984 . S
H245 N239 0.985 1_545 S
H246 N243 0.984 . S
H247 N243 0.985 . S
H248 N242 0.984 . S
H249 N242 0.984 . S
H250 N238 0.984 . S
H251 N238 0.985 . S
C252 C253 1.363 . S
C252 C258 1.379 . S
C252 N260 1.356 . S
C253 C252 1.363 . S
C253 C259 1.363 . S
C254 C255 1.363 . S
C254 C259 1.379 . S
C254 N261 1.356 . S
C255 C254 1.363 . S
C255 C258 1.363 . S
N256 C258 1.356 . S
N256 H268 0.984 . S
N256 H269 0.985 . S
N257 C259 1.356 . S
N257 H262 0.984 . S
N257 H263 0.985 . S
C258 C252 1.379 . S
C258 C255 1.363 . S
C258 N256 1.356 . S
C259 C253 1.363 . S
C259 C254 1.379 . S
C259 N257 1.356 . S
N260 C252 1.356 . S
N260 H266 0.984 . S
N260 H267 0.984 . S
N261 C254 1.356 . S
N261 H264 0.984 . S
N261 H265 0.985 . S
H262 N257 0.984 . S
H263 N257 0.985 . S
H264 N261 0.984 . S
H265 N261 0.985 . S
H266 N260 0.984 . S
H267 N260 0.984 . S
H268 N256 0.984 . S
H269 N256 0.985 . S
C270 C271 1.363 . S
C270 C276 1.379 . S
C270 N278 1.356 1_565 S
C271 C270 1.363 . S
C271 C277 1.363 . S
C272 C273 1.363 . S
C272 C277 1.379 . S
C272 N279 1.356 . S
C273 C272 1.363 . S
C273 C276 1.363 . S
N274 C276 1.356 . S
N274 H286 0.984 . S
N274 H287 0.985 . S
N275 C277 1.356 . S
N275 H280 0.984 . S
N275 H281 0.985 . S
C276 C270 1.379 . S
C276 C273 1.363 . S
C276 N274 1.356 . S
C277 C271 1.363 . S
C277 C272 1.379 . S
C277 N275 1.356 . S
N278 C270 1.356 1_545 S
N278 H284 0.984 . S
N278 H285 0.984 . S
N279 C272 1.356 . S
N279 H282 0.984 . S
N279 H283 0.985 . S
H280 N275 0.984 . S
H281 N275 0.985 . S
H282 N279 0.984 . S
H283 N279 0.985 . S
H284 N278 0.984 . S
H285 N278 0.984 . S
H286 N274 0.984 . S
H287 N274 0.985 . S
C288 C289 1.363 . S
C288 C294 1.379 . S
C288 N296 1.356 . S
C289 C288 1.363 . S
C289 C295 1.363 . S
C290 C291 1.363 . S
C290 C295 1.379 . S
C290 N297 1.356 . S
C291 C290 1.363 . S
C291 C294 1.363 . S
N292 C294 1.356 . S
N292 H304 0.984 . S
N292 H305 0.985 . S
N293 C295 1.356 . S
N293 H298 0.984 . S
N293 H299 0.985 . S
C294 C288 1.379 . S
C294 C291 1.363 . S
C294 N292 1.356 . S
C295 C289 1.363 . S
C295 C290 1.379 . S
C295 N293 1.356 . S
N296 C288 1.356 . S
N296 H302 0.984 . S
N296 H303 0.984 . S
N297 C290 1.356 . S
N297 H300 0.984 . S
N297 H301 0.985 . S
H298 N293 0.984 . S
H299 N293 0.985 . S
H300 N297 0.984 . S
H301 N297 0.985 . S
H302 N296 0.984 . S
H303 N296 0.984 . S
H304 N292 0.984 . S
H305 N292 0.985 . S
C306 C307 1.363 . S
C306 C312 1.379 . S
C306 N314 1.356 . S
C307 C306 1.363 . S
C307 C313 1.363 . S
C308 C309 1.363 . S
C308 C313 1.379 . S
C308 N315 1.356 . S
C309 C308 1.363 . S
C309 C312 1.363 . S
N310 C312 1.356 . S
N310 H322 0.984 . S
N310 H323 0.985 . S
N311 C313 1.356 . S
N311 H316 0.984 . S
N311 H317 0.985 . S
C312 C306 1.379 . S
C312 C309 1.363 . S
C312 N310 1.356 . S
C313 C307 1.363 . S
C313 C308 1.379 . S
C313 N311 1.356 . S
N314 C306 1.356 . S
N314 H320 0.984 . S
N314 H321 0.984 . S
N315 C308 1.356 . S
N315 H318 0.984 . S
N315 H319 0.985 . S
H316 N311 0.984 . S
H317 N311 0.985 . S
H318 N315 0.984 . S
H319 N315 0.985 . S
H320 N314 0.984 . S
H321 N314 0.984 . S
H322 N310 0.984 . S
H323 N310 0.985 . S
C324 C325 1.363 . S
C324 C330 1.379 . S
C324 N332 1.384 . S
C325 C324 1.363 . S
C325 C331 1.363 . S
C326 C327 1.363 . S
C326 C331 1.379 . S
C326 N333 1.356 . S
C327 C326 1.363 . S
C327 C330 1.363 . S
N328 C330 1.356 . S
N328 H340 0.984 . S
N328 H341 0.985 . S
N329 C331 1.356 . S
N329 H334 0.984 . S
N329 H335 0.985 . S
C330 C324 1.379 . S
C330 C327 1.363 . S
C330 N328 1.356 . S
C331 C325 1.363 . S
C331 C326 1.379 . S
C331 N329 1.356 . S
N332 C324 1.384 . S
N332 H338 0.968 1_545 S
N332 H339 0.965 1_545 S
N333 C326 1.356 . S
N333 H336 0.984 . S
N333 H337 0.985 . S
H334 N329 0.984 . S
H335 N329 0.985 . S
H336 N333 0.984 . S
H337 N333 0.985 . S
H338 N332 0.968 1_565 S
H339 N332 0.965 1_565 S
H340 N328 0.984 . S
H341 N328 0.985 . S
C342 C343 1.363 . S
C342 C348 1.379 . S
C342 N350 1.356 . S
C343 C342 1.363 . S
C343 C349 1.363 . S
C344 C345 1.363 . S
C344 C349 1.379 . S
C344 N351 1.356 . S
C345 C344 1.363 . S
C345 C348 1.363 . S
N346 C348 1.356 . S
N346 H358 0.984 . S
N346 H359 0.985 . S
N347 C349 1.356 . S
N347 H352 0.984 . S
N347 H353 0.985 . S
C348 C342 1.379 . S
C348 C345 1.363 . S
C348 N346 1.356 . S
C349 C343 1.363 . S
C349 C344 1.379 . S
C349 N347 1.356 . S
N350 C342 1.356 . S
N350 H356 0.984 . S
N350 H357 0.984 . S
N351 C344 1.356 . S
N351 H354 0.984 . S
N351 H355 0.985 . S
H352 N347 0.984 . S
H353 N347 0.985 . S
H354 N351 0.984 . S
H355 N351 0.985 . S
H356 N350 0.984 . S
H357 N350 0.984 . S
H358 N346 0.984 . S
H359 N346 0.985 . S
C360 C361 1.363 . S
C360 C366 1.379 . S
C360 N368 1.356 . S
C361 C360 1.363 . S
C361 C367 1.363 . S
C362 C363 1.363 . S
C362 C367 1.379 . S
C362 N369 1.356 . S
C363 C362 1.363 . S
C363 C366 1.363 . S
N364 C366 1.356 . S
N364 H376 0.984 . S
N364 H377 0.985 . S
N365 C367 1.356 . S
N365 H370 0.984 . S
N365 H371 0.985 . S
C366 C360 1.379 . S
C366 C363 1.363 . S
C366 N364 1.356 . S
C367 C361 1.363 . S
C367 C362 1.379 . S
C367 N365 1.356 . S
N368 C360 1.356 . S
N368 H374 0.984 . S
N368 H375 0.984 . S
N369 C362 1.356 . S
N369 H372 0.984 . S
N369 H373 0.985 . S
H370 N365 0.984 . S
H371 N365 0.985 . S
H372 N369 0.984 . S
H373 N369 0.985 . S
H374 N368 0.984 . S
H375 N368 0.984 . S
H376 N364 0.984 . S
H377 N364 0.985 . S
C378 C379 1.363 . S
C378 C384 1.379 . S
C378 N386 1.356 . S
C379 C378 1.363 . S
C379 C385 1.363 . S
C380 C381 1.363 . S
C380 C385 1.379 . S
C380 N387 1.356 . S
C381 C380 1.363 . S
C381 C384 1.363 . S
N382 C384 1.356 . S
N382 H394 0.984 . S
N382 H395 0.985 . S
N383 C385 1.356 1_455 S
N383 H388 0.984 . S
N383 H389 0.985 . S
C384 C378 1.379 . S
C384 C381 1.363 . S
C384 N382 1.356 . S
C385 C379 1.363 . S
C385 C380 1.379 . S
C385 N383 1.356 1_655 S
N386 C378 1.356 . S
N386 H392 0.984 . S
N386 H393 0.984 . S
N387 C380 1.356 . S
N387 H390 0.984 . S
N387 H391 0.985 1_655 S
H388 N383 0.984 . S
H389 N383 0.985 . S
H390 N387 0.984 . S
H391 N387 0.985 1_455 S
H392 N386 0.984 . S
H393 N386 0.984 . S
H394 N382 0.984 . S
H395 N382 0.985 . S
C396 C397 1.363 . S
C396 C402 1.379 . S
C396 N404 1.356 . S
C397 C396 1.363 . S
C397 C403 1.363 . S
C398 C399 1.363 . S
C398 C403 1.379 . S
C398 N405 1.356 . S
C399 C398 1.363 . S
C399 C402 1.363 . S
N400 C402 1.356 . S
N400 H412 0.984 . S
N400 H413 0.985 . S
N401 C403 1.356 1_545 S
N401 H406 0.984 . S
N401 H407 0.985 . S
C402 C396 1.379 . S
C402 C399 1.363 . S
C402 N400 1.356 . S
C403 C397 1.363 . S
C403 C398 1.379 . S
C403 N401 1.356 1_565 S
N404 C396 1.356 . S
N404 H410 0.984 . S
N404 H411 0.984 . S
N405 C398 1.356 . S
N405 H408 0.984 . S
N405 H409 0.985 1_565 S
H406 N401 0.984 . S
H407 N401 0.985 . S
H408 N405 0.984 . S
H409 N405 0.985 1_545 S
H410 N404 0.984 . S
H411 N404 0.984 . S
H412 N400 0.984 . S
H413 N400 0.985 . S
C414 C415 1.363 . S
C414 C420 1.379 . S
C414 N422 1.356 . S
C415 C414 1.363 . S
C415 C421 1.363 . S
C416 C417 1.363 . S
C416 C421 1.379 . S
C416 N423 1.356 . S
C417 C416 1.363 . S
C417 C420 1.363 . S
N418 C420 1.356 . S
N418 H430 0.984 . S
N418 H431 0.985 . S
N419 C421 1.356 . S
N419 H424 0.984 . S
N419 H425 0.985 . S
C420 C414 1.379 . S
C420 C417 1.363 . S
C420 N418 1.356 . S
C421 C415 1.363 . S
C421 C416 1.379 . S
C421 N419 1.356 . S
N422 C414 1.356 . S
N422 H428 0.984 1_556 S
N422 H429 0.984 . S
N423 C416 1.356 . S
N423 H426 0.984 . S
N423 H427 0.985 . S
H424 N419 0.984 . S
H425 N419 0.985 . S
H426 N423 0.984 . S
H427 N423 0.985 . S
H428 N422 0.984 1_554 S
H429 N422 0.984 . S
H430 N418 0.984 . S
H431 N418 0.985 . S
C432 C433 1.363 . S
C432 C438 1.379 . S
C432 N440 1.356 . S
C433 C432 1.363 . S
C433 C439 1.363 . S
C434 C435 1.363 . S
C434 C439 1.379 . S
C434 N441 1.356 . S
C435 C434 1.363 . S
C435 C438 1.363 . S
N436 C438 1.356 . S
N436 H448 0.984 . S
N436 H449 0.985 . S
N437 C439 1.356 . S
N437 H442 0.984 . S
N437 H443 0.985 . S
C438 C432 1.379 . S
C438 C435 1.363 . S
C438 N436 1.356 . S
C439 C433 1.363 . S
C439 C434 1.379 . S
C439 N437 1.356 . S
N440 C432 1.356 . S
N440 H446 0.984 . S
N440 H447 0.984 . S
N441 C434 1.356 . S
N441 H444 0.984 . S
N441 H445 0.985 . S
H442 N437 0.984 . S
H443 N437 0.985 . S
H444 N441 0.984 . S
H445 N441 0.985 . S
H446 N440 0.984 . S
H447 N440 0.984 . S
H448 N436 0.984 . S
H449 N436 0.985 . S
C450 C451 1.363 . S
C450 C456 1.379 . S
C450 N458 1.356 . S
C451 C450 1.363 . S
C451 C457 1.363 . S
C452 C453 1.363 . S
C452 C457 1.379 . S
C452 N459 1.356 . S
C453 C452 1.363 . S
C453 C456 1.363 . S
N454 C456 1.356 . S
N454 H466 0.984 . S
N454 H467 0.985 . S
N455 C457 1.356 . S
N455 H460 0.981 . S
N455 H461 0.985 1_545 S
C456 C450 1.379 . S
C456 C453 1.363 . S
C456 N454 1.356 . S
C457 C451 1.363 . S
C457 C452 1.379 . S
C457 N455 1.356 . S
N458 C450 1.356 . S
N458 H464 0.984 . S
N458 H465 0.984 . S
N459 C452 1.356 . S
N459 H462 0.984 . S
N459 H463 0.985 . S
H460 N455 0.981 . S
H461 N455 0.985 1_565 S
H462 N459 0.984 . S
H463 N459 0.985 . S
H464 N458 0.984 . S
H465 N458 0.984 . S
H466 N454 0.984 . S
H467 N454 0.985 . S
C468 C469 1.363 . S
C468 C474 1.379 . S
C468 N476 1.356 . S
C469 C468 1.363 . S
C469 C475 1.363 . S
C470 C471 1.363 . S
C470 C475 1.379 . S
C470 N477 1.356 . S
C471 C470 1.363 . S
C471 C474 1.363 . S
N472 C474 1.356 . S
N472 H484 0.984 . S
N472 H485 0.985 . S
N473 C475 1.356 . S
N473 H478 0.984 . S
N473 H479 0.985 . S
C474 C468 1.379 . S
C474 C471 1.363 . S
C474 N472 1.356 . S
C475 C469 1.363 . S
C475 C470 1.379 . S
C475 N473 1.356 . S
N476 C468 1.356 . S
N476 H482 0.984 . S
N476 H483 0.984 . S
N477 C470 1.356 . S
N477 H480 0.984 . S
N477 H481 0.985 . S
H478 N473 0.984 . S
H479 N473 0.985 . S
H480 N477 0.984 . S
H481 N477 0.985 . S
H482 N476 0.984 . S
H483 N476 0.984 . S
H484 N472 0.984 . S
H485 N472 0.985 . S
C486 C487 1.363 . S
C486 C492 1.379 . S
C486 N494 1.356 . S
C487 C486 1.363 . S
C487 C493 1.363 . S
C488 C489 1.363 . S
C488 C493 1.379 . S
C488 N495 1.356 . S
C489 C488 1.363 . S
C489 C492 1.363 . S
N490 C492 1.356 . S
N490 H502 0.984 . S
N490 H503 0.985 . S
N491 C493 1.356 . S
N491 H496 0.984 . S
N491 H497 0.985 . S
C492 C486 1.379 . S
C492 C489 1.363 . S
C492 N490 1.356 . S
C493 C487 1.363 . S
C493 C488 1.379 . S
C493 N491 1.356 . S
N494 C486 1.356 . S
N494 H500 0.984 . S
N494 H501 0.984 . S
N495 C488 1.356 . S
N495 H498 0.984 . S
N495 H499 0.985 . S
H496 N491 0.984 . S
H497 N491 0.985 . S
H498 N495 0.984 . S
H499 N495 0.985 . S
H500 N494 0.984 . S
H501 N494 0.984 . S
H502 N490 0.984 . S
H503 N490 0.985 . S
C504 C505 1.363 . S
C504 C510 1.379 . S
C504 N512 1.356 . S
C505 C504 1.363 . S
C505 C511 1.363 . S
C506 C507 1.363 . S
C506 C511 1.379 . S
C506 N513 1.356 . S
C507 C506 1.363 . S
C507 C510 1.363 . S
N508 C510 1.356 . S
N508 H520 0.984 . S
N508 H521 0.985 . S
N509 C511 1.356 . S
N509 H514 0.984 . S
N509 H515 0.985 . S
C510 C504 1.379 . S
C510 C507 1.363 . S
C510 N508 1.356 . S
C511 C505 1.363 . S
C511 C506 1.379 . S
C511 N509 1.356 . S
N512 C504 1.356 . S
N512 H518 0.984 . S
N512 H519 0.984 . S
N513 C506 1.356 . S
N513 H516 0.984 . S
N513 H517 0.985 . S
H514 N509 0.984 . S
H515 N509 0.985 . S
H516 N513 0.984 . S
H517 N513 0.985 . S
H518 N512 0.984 . S
H519 N512 0.984 . S
H520 N508 0.984 . S
H521 N508 0.985 . S
C522 C523 1.363 . S
C522 C528 1.379 . S
C522 N530 1.356 . S
C523 C522 1.363 . S
C523 C529 1.363 . S
C524 C525 1.363 . S
C524 C529 1.379 . S
C524 N531 1.356 . S
C525 C524 1.363 . S
C525 C528 1.363 . S
N526 C528 1.356 . S
N526 H538 0.984 . S
N526 H539 0.985 . S
N527 C529 1.356 1_455 S
N527 H532 0.984 . S
N527 H533 0.985 . S
C528 C522 1.379 . S
C528 C525 1.363 . S
C528 N526 1.356 . S
C529 C523 1.363 . S
C529 C524 1.379 . S
C529 N527 1.356 1_655 S
N530 C522 1.356 . S
N530 H536 0.984 . S
N530 H537 0.984 . S
N531 C524 1.356 . S
N531 H534 0.984 . S
N531 H535 0.985 1_655 S
H532 N527 0.984 . S
H533 N527 0.985 . S
H534 N531 0.984 . S
H535 N531 0.985 1_455 S
H536 N530 0.984 . S
H537 N530 0.984 . S
H538 N526 0.984 . S
H539 N526 0.985 . S
C540 C541 1.363 . S
C540 C546 1.379 . S
C540 N548 1.356 1_565 S
C541 C540 1.363 . S
C541 C547 1.363 . S
C542 C543 1.363 . S
C542 C547 1.379 . S
C542 N549 1.356 . S
C543 C542 1.363 . S
C543 C546 1.363 . S
N544 C546 1.356 . S
N544 H556 0.984 1_565 S
N544 H557 0.985 . S
N545 C547 1.356 . S
N545 H550 0.984 . S
N545 H551 0.985 . S
C546 C540 1.379 . S
C546 C543 1.363 . S
C546 N544 1.356 . S
C547 C541 1.363 . S
C547 C542 1.379 . S
C547 N545 1.356 . S
N548 C540 1.356 1_545 S
N548 H554 0.984 . S
N548 H555 0.984 . S
N549 C542 1.356 . S
N549 H552 0.984 . S
N549 H553 0.985 . S
H550 N545 0.984 . S
H551 N545 0.985 . S
H552 N549 0.984 . S
H553 N549 0.985 . S
H554 N548 0.984 . S
H555 N548 0.984 . S
H556 N544 0.984 1_545 S
H557 N544 0.985 . S
C558 C559 1.363 . S
C558 C564 1.379 . S
C558 N566 1.356 . S
C559 C558 1.363 . S
C559 C565 1.363 . S
C560 C561 1.363 . S
C560 C565 1.379 . S
C560 N567 1.356 . S
C561 C560 1.363 . S
C561 C564 1.363 . S
N562 C564 1.356 . S
N562 H574 0.984 . S
N562 H575 0.985 . S
N563 C565 1.356 . S
N563 H568 0.984 . S
N563 H569 0.985 . S
C564 C558 1.379 . S
C564 C561 1.363 . S
C564 N562 1.356 . S
C565 C559 1.363 . S
C565 C560 1.379 . S
C565 N563 1.356 . S
N566 C558 1.356 . S
N566 H572 0.984 . S
N566 H573 0.984 . S
N567 C560 1.356 . S
N567 H570 0.984 . S
N567 H571 0.985 . S
H568 N563 0.984 . S
H569 N563 0.985 . S
H570 N567 0.984 . S
H571 N567 0.985 . S
H572 N566 0.984 . S
H573 N566 0.984 . S
H574 N562 0.984 . S
H575 N562 0.985 . S
C576 C577 1.363 . S
C576 C582 1.379 . S
C576 N584 1.356 . S
C577 C576 1.363 . S
C577 C583 1.363 . S
C578 C579 1.363 . S
C578 C583 1.379 . S
C578 N585 1.356 . S
C579 C578 1.363 . S
C579 C582 1.363 . S
N580 C582 1.356 . S
N580 H592 0.984 . S
N580 H593 0.985 . S
N581 C583 1.356 . S
N581 H586 0.984 . S
N581 H587 0.985 . S
C582 C576 1.379 . S
C582 C579 1.363 . S
C582 N580 1.356 . S
C583 C577 1.363 . S
C583 C578 1.379 . S
C583 N581 1.356 . S
N584 C576 1.356 . S
N584 H590 0.984 1_455 S
N584 H591 0.984 . S
N585 C578 1.356 . S
N585 H588 0.984 . S
N585 H589 0.985 . S
H586 N581 0.984 . S
H587 N581 0.985 . S
H588 N585 0.984 . S
H589 N585 0.985 . S
H590 N584 0.984 1_655 S
H591 N584 0.984 . S
H592 N580 0.984 . S
H593 N580 0.985 . S
C163 C13 1.687 . S
C165 C85 1.674 . S
C181 C27 1.687 . S
C183 C98 1.674 . S
C201 C120 1.594 . S
C199 C29 1.687 . S
C219 C133 1.594 . S
C217 C54 1.688 . S
C237 C146 1.594 . S
C235 C69 1.687 . S
C255 C159 1.594 . S
C253 C83 1.687 . S
C271 C15 1.679 . S
C273 C115 1.569 . S
C289 C41 1.679 . S
C291 C128 1.569 . S
C309 C141 1.569 . S
C307 C42 1.680 . S
C327 C154 1.569 . S
C325 C57 1.679 . S
C343 C71 1.679 . S
C345 C87 1.674 . S
C363 C100 1.674 . S
C361 C1 1.679 . S
C381 C126 1.569 . S
C379 C12 1.679 . S
C397 C26 1.679 . S
C399 C139 1.570 . S
C417 C152 1.569 . S
C415 C28 1.679 . S
C433 C55 1.680 . S
C435 C89 1.674 . S
C451 C68 1.679 . S
C453 C102 1.674 . S
C469 C82 1.679 . S
C471 C113 1.569 . S
C487 C14 1.687 . S
C489 C150 1.594 . S
C507 C94 1.674 . S
C505 C40 1.687 . S
C523 C43 1.688 . S
C525 C107 1.674 . S
C541 C56 1.687 . S
C543 C111 1.594 . S
C559 C70 1.687 . S
C561 C124 1.594 . S
C577 C0 1.687 . S
C579 C137 1.594 . S
