# Generated by pormake.
# Topology pth, (4,4)-cn, num edge types: 1
# Building blocks:
#     Node 0, Type 0, BuildingBlock: QUQFOY_clean_sbu_3, # of connection points: 4
#     Node 1, Type 0, BuildingBlock: QUQFOY_clean_sbu_3, # of connection points: 4
#     Node 2, Type 0, BuildingBlock: QUQFOY_clean_sbu_3, # of connection points: 4
#     Node 3, Type 1, BuildingBlock: MUDLON_clean_sbu_0, # of connection points: 4
#     Node 4, Type 1, BuildingBlock: MUDLON_clean_sbu_0, # of connection points: 4
#     Node 5, Type 1, BuildingBlock: MUDLON_clean_sbu_0, # of connection points: 4
#     Edge 6, Type (0, 1), BuildingBlock: MIFKUJ_clean_linker_0, # of connection points: 2
#     Edge 7, Type (0, 1), BuildingBlock: MIFKUJ_clean_linker_0, # of connection points: 2
#     Edge 8, Type (0, 1), BuildingBlock: MIFKUJ_clean_linker_0, # of connection points: 2
#     Edge 9, Type (0, 1), BuildingBlock: MIFKUJ_clean_linker_0, # of connection points: 2
#     Edge 10, Type (0, 1), BuildingBlock: MIFKUJ_clean_linker_0, # of connection points: 2
#     Edge 11, Type (0, 1), BuildingBlock: MIFKUJ_clean_linker_0, # of connection points: 2
#     Edge 12, Type (0, 1), BuildingBlock: MIFKUJ_clean_linker_0, # of connection points: 2
#     Edge 13, Type (0, 1), BuildingBlock: MIFKUJ_clean_linker_0, # of connection points: 2
#     Edge 14, Type (0, 1), BuildingBlock: MIFKUJ_clean_linker_0, # of connection points: 2
#     Edge 15, Type (0, 1), BuildingBlock: MIFKUJ_clean_linker_0, # of connection points: 2
#     Edge 16, Type (0, 1), BuildingBlock: MIFKUJ_clean_linker_0, # of connection points: 2
#     Edge 17, Type (0, 1), BuildingBlock: MIFKUJ_clean_linker_0, # of connection points: 2
# Relax obj value: 0.015
# Max RMSD: 0.071
# Mean RMSD: 0.054
data_MOF--net-pth--node1-QUQFOY_clean_sbu_3--node2-MUDLON_clean_sbu_0--edge1-MIFKUJ_clean_linker_0
_symmetry_space_group_name_H-M    P1
_symmetry_Int_Tables_number       1
_symmetry_cell_setting            triclinic
loop_
_symmetry_equiv_pos_as_xyz
'x, y, z'
_cell_length_a     29.481201
_cell_length_b     29.306374
_cell_length_c     79.945032
_cell_angle_alpha  90.024713
_cell_angle_beta   90.697299
_cell_angle_gamma 120.69804
loop_
_atom_site_label
_atom_site_type_symbol
_atom_site_fract_x
_atom_site_fract_y
_atom_site_fract_z
_atom_type_partial_charge
C0 C 0.04637 0.20038 0.11964 0.0
O1 O 0.02679 0.20719 0.1063 0.0
Cd2 Cd 0.00788 0.15118 0.08197 0.0
O3 O 0.05486 0.16201 0.12065 0.0
Cd4 Cd 0.043 0.08626 0.10329 0.0
C5 C 0.13017 0.1683 0.07468 0.0
O6 O 0.95718 0.05892 0.08922 0.0
O7 O 1.00284 0.0263 0.07959 0.0
O8 O 0.01068 0.03648 0.12909 0.0
C9 C 0.96005 0.02669 0.07927 0.0
O10 O 0.09218 0.17407 0.06973 0.0
C11 C 0.0383 0.01462 0.1286 0.0
O12 O 0.12575 0.14148 0.08776 0.0
O13 O 0.06938 0.02656 0.11634 0.0
C14 C 0.1506 0.15149 0.45239 0.0
O15 O 0.1681 0.1798 0.43939 0.0
Cd16 Cd 0.11472 0.17246 0.41545 0.0
O17 O 0.10134 0.11823 0.45371 0.0
Cd18 Cd 0.01887 0.08874 0.43661 0.0
C19 C 0.06373 0.03987 0.40683 0.0
O20 O 0.037 0.17254 0.42355 0.0
O21 O 0.97464 0.10024 0.41235 0.0
O22 O 0.97633 0.09485 0.4618 0.0
C23 C 0.99951 0.15051 0.41288 0.0
O24 O 0.09209 0.08816 0.40247 0.0
C25 C 0.93538 0.04906 0.46056 0.0
O26 O 0.03516 0.02754 0.41983 0.0
O27 O 0.93369 0.02019 0.4484 0.0
C28 C 0.9509 0.10353 0.75174 0.0
O29 O 0.95413 0.1263 0.7656 0.0
Cd30 Cd 0.00872 0.13175 0.7889 0.0
O31 O 0.97822 0.08162 0.74928 0.0
Cd32 Cd 0.04599 0.06932 0.76461 0.0
C33 C 0.96288 0.99935 0.7963 0.0
O34 O 0.09254 0.15877 0.77704 0.0
O35 O 0.11839 0.10603 0.78551 0.0
O36 O 0.08586 0.07813 0.73708 0.0
C37 C 0.12412 0.15189 0.78606 0.0
O38 O 0.96908 0.04346 0.80134 0.0
C39 C 0.0938 0.03969 0.73888 0.0
O40 O 0.98327 0.99649 0.78265 0.0
O41 O 0.07913 0.01464 0.75258 0.0
Mg42 Mg 0.045 0.59131 0.27063 0.0
C43 C 0.97696 0.47634 0.28384 0.0
O44 O 0.97552 0.46155 0.26823 0.0
C45 C 0.99346 0.64975 0.25612 0.0
O46 O 1.00171 0.66913 0.2714 0.0
C47 C 0.10214 0.53498 0.25796 0.0
O48 O 0.0947 0.51601 0.27321 0.0
O49 O 0.09004 0.56981 0.25445 0.0
O50 O 0.99838 0.52545 0.28734 0.0
O51 O 0.08886 0.66087 0.28676 0.0
C52 C 0.08848 0.65439 0.30251 0.0
O53 O 0.0698 0.60621 0.3083 0.0
O54 O 1.00261 0.61272 0.25291 0.0
Mg55 Mg 0.51101 0.0544 0.59892 0.0
C56 C 0.50402 0.12128 0.57079 0.0
O57 O 0.53918 0.11256 0.56392 0.0
C58 C 0.58897 0.05909 0.62213 0.0
O59 O 0.56674 0.01225 0.61482 0.0
C60 C 0.39731 0.99686 0.60888 0.0
O61 O 0.3943 0.01814 0.59476 0.0
O62 O 0.44062 0.99955 0.61276 0.0
O63 O 0.4899 0.10618 0.58572 0.0
O64 O 0.54514 0.02436 0.58109 0.0
C65 C 0.52685 0.99345 0.56848 0.0
O66 O 0.47641 0.97037 0.56461 0.0
O67 O 0.57299 0.09061 0.61805 0.0
Mg68 Mg 0.56263 0.56286 0.93655 0.0
C69 C 0.47994 0.48596 0.91473 0.0
O70 O 0.50411 0.46277 0.92124 0.0
C71 C 0.63079 0.65354 0.95733 0.0
O72 O 0.65846 0.63226 0.95257 0.0
C73 C 0.5524 0.49857 0.96883 0.0
O74 O 0.58965 0.54382 0.97521 0.0
O75 O 0.53919 0.49615 0.9535 0.0
O76 O 0.49558 0.53359 0.91914 0.0
O77 O 0.63244 0.59034 0.92105 0.0
C78 C 0.63261 0.57745 0.90586 0.0
O79 O 0.58944 0.53818 0.89911 0.0
O80 O 0.58304 0.63206 0.95227 0.0
H81 H 0.08032 0.19241 0.15096 0.0
H82 H 0.10067 0.25225 0.17485 0.0
H83 H 0.06241 0.35107 0.14509 0.0
H84 H 0.04214 0.2916 0.12109 0.0
H85 H 0.1539 0.40962 0.16394 0.0
H86 H 0.97512 0.26623 0.17245 0.0
H87 H 0.90539 0.17244 0.17547 0.0
H88 H 0.9878 0.15759 0.21783 0.0
H89 H 0.0584 0.25117 0.21492 0.0
H90 H 0.10447 0.55406 0.22442 0.0
H91 H 0.10715 0.50045 0.20164 0.0
H92 H 0.1279 0.40169 0.23723 0.0
H93 H 0.12356 0.45441 0.26023 0.0
H94 H 0.0528 0.34197 0.21629 0.0
H95 H 0.22789 0.48675 0.20972 0.0
H96 H 0.29875 0.58011 0.20689 0.0
H97 H 0.22691 0.5926 0.16142 0.0
H98 H 0.15519 0.49949 0.16409 0.0
C99 C 0.0763 0.22691 0.14945 0.0
C100 C 0.05932 0.23702 0.1341 0.0
C101 C 0.08788 0.26103 0.16315 0.0
C102 C 0.0827 0.30592 0.16179 0.0
C103 C 0.0667 0.31667 0.14641 0.0
C104 C 0.05488 0.28245 0.13273 0.0
C105 C 0.09284 0.34111 0.17647 0.0
C106 C 0.13156 0.39505 0.17535 0.0
C107 C 0.06485 0.32167 0.19154 0.0
C108 C 0.0223 0.26551 0.19335 0.0
C109 C 0.97857 0.24284 0.18232 0.0
C110 C 0.93886 0.18975 0.18403 0.0
C111 C 0.94224 0.15903 0.1968 0.0
C112 C 0.98527 0.18141 0.20793 0.0
C113 C 0.02512 0.23447 0.20626 0.0
C114 C 0.11066 0.5216 0.22745 0.0
C115 C 0.11355 0.50845 0.2442 0.0
C116 C 0.11243 0.49101 0.21435 0.0
C117 C 0.11807 0.44707 0.21765 0.0
C118 C 0.12343 0.43531 0.23435 0.0
C119 C 0.12122 0.46569 0.24749 0.0
C120 C 0.11367 0.41099 0.20378 0.0
C121 C 0.07582 0.35673 0.205 0.0
C122 C 0.14278 0.43016 0.18886 0.0
C123 C 0.18592 0.48619 0.18718 0.0
C124 C 0.22697 0.5095 0.19918 0.0
C125 C 0.26734 0.56237 0.19759 0.0
C126 C 0.26728 0.5923 0.184 0.0
C127 C 0.2269 0.56937 0.17195 0.0
C128 C 0.18641 0.51652 0.17348 0.0
H129 H 0.29857 0.63323 0.1828 0.0
H130 H 0.91146 0.11793 0.19811 0.0
H131 H 0.93347 0.0995 0.48897 0.0
H132 H 0.85876 0.07567 0.50712 0.0
H133 H 0.76122 0.93683 0.47674 0.0
H134 H 0.83619 0.96061 0.45839 0.0
H135 H 0.71256 0.99419 0.4836 0.0
H136 H 0.8007 0.92198 0.51478 0.0
H137 H 0.87669 0.92289 0.52838 0.0
H138 H 0.89855 0.04914 0.56103 0.0
H139 H 0.82316 0.04953 0.54748 0.0
H140 H 0.50466 0.9236 0.54224 0.0
H141 H 0.56807 0.91824 0.52393 0.0
H142 H 0.69653 0.04744 0.55133 0.0
H143 H 0.63412 0.05153 0.56989 0.0
H144 H 0.72244 0.97825 0.54512 0.0
H145 H 0.64537 0.06074 0.51197 0.0
H146 H 0.57243 0.06518 0.49815 0.0
H147 H 0.53291 0.92596 0.46919 0.0
H148 H 0.60515 0.92026 0.48302 0.0
C149 C 0.89633 0.06357 0.48621 0.0
C150 C 0.89087 0.03188 0.47224 0.0
C151 C 0.85362 0.04991 0.49664 0.0
C152 C 0.80444 0.00422 0.49338 0.0
C153 C 0.79884 0.97219 0.47952 0.0
C154 C 0.84178 0.98569 0.4691 0.0
C155 C 0.75878 0.99142 0.50421 0.0
C156 C 0.71418 0.98961 0.49702 0.0
C157 C 0.7613 0.98642 0.52175 0.0
C158 C 0.80642 0.98597 0.53003 0.0
C159 C 0.82191 0.95017 0.52479 0.0
C160 C 0.86486 0.95042 0.5325 0.0
C161 C 0.89247 0.9861 0.54554 0.0
C162 C 0.87712 0.02152 0.55093 0.0
C163 C 0.83423 0.02147 0.54325 0.0
C164 C 0.54645 0.95058 0.54439 0.0
C165 C 0.5642 0.98801 0.55753 0.0
C166 C 0.5827 0.94769 0.53387 0.0
C167 C 0.63728 0.9829 0.53608 0.0
C168 C 0.6548 0.01966 0.54934 0.0
C169 C 0.61886 0.02205 0.55995 0.0
C170 C 0.67678 0.98278 0.52461 0.0
C171 C 0.72029 0.98202 0.53167 0.0
C172 C 0.67355 0.98617 0.50699 0.0
C173 C 0.63024 0.98971 0.49866 0.0
C174 C 0.62087 0.03085 0.50274 0.0
C175 C 0.57969 0.03363 0.4949 0.0
C176 C 0.54799 0.99581 0.48283 0.0
C177 C 0.55744 0.95517 0.47856 0.0
C178 C 0.59848 0.95215 0.48639 0.0
H179 H 0.51621 0.99807 0.47674 0.0
H180 H 0.92572 0.98624 0.55149 0.0
H181 H 0.92786 0.99454 0.82809 0.0
H182 H 0.87928 0.91643 0.84556 0.0
H183 H 0.88013 0.8171 0.80592 0.0
H184 H 0.92921 0.89544 0.78824 0.0
H185 H 0.78059 0.77769 0.82095 0.0
H186 H 0.96013 0.84192 0.83801 0.0
H187 H 0.04947 0.9099 0.84755 0.0
H188 H 0.98543 0.93608 0.89203 0.0
H189 H 0.89561 0.86878 0.88264 0.0
H190 H 0.6572 0.55695 0.87485 0.0
H191 H 0.72171 0.62126 0.85541 0.0
H192 H 0.76895 0.74527 0.89246 0.0
H193 H 0.70716 0.68084 0.91214 0.0
H194 H 0.8503 0.76577 0.87655 0.0
H195 H 0.67341 0.71622 0.85881 0.0
H196 H 0.58156 0.6541 0.84976 0.0
H197 H 0.63688 0.60683 0.80748 0.0
H198 H 0.72908 0.66826 0.8164 0.0
C199 C 0.9178 0.95617 0.82302 0.0
C200 C 0.93258 0.95137 0.80673 0.0
C201 C 0.89021 0.91155 0.83308 0.0
C202 C 0.87661 0.86105 0.82711 0.0
C203 C 0.89048 0.85579 0.81079 0.0
C204 C 0.91859 0.9006 0.80072 0.0
C205 C 0.84711 0.81394 0.83794 0.0
C206 C 0.79613 0.77442 0.83298 0.0
C207 C 0.867 0.81046 0.85379 0.0
C208 C 0.92108 0.8505 0.85956 0.0
C209 C 0.96506 0.8624 0.84977 0.0
C210 C 0.0158 0.90078 0.85516 0.0
C211 C 0.02312 0.92735 0.87037 0.0
C212 C 0.97971 0.91547 0.88025 0.0
C213 C 0.92888 0.87715 0.87491 0.0
C214 C 0.68217 0.59774 0.87893 0.0
C215 C 0.6768 0.61381 0.89499 0.0
C216 C 0.71871 0.63464 0.86776 0.0
C217 C 0.74931 0.68865 0.87223 0.0
C218 C 0.74584 0.70403 0.88859 0.0
C219 C 0.71034 0.66701 0.89988 0.0
C220 C 0.78289 0.72983 0.8598 0.0
C221 C 0.83479 0.76838 0.86445 0.0
C222 C 0.76341 0.73305 0.84379 0.0
C223 C 0.70806 0.69633 0.83838 0.0
C224 C 0.66594 0.69232 0.84764 0.0
C225 C 0.61384 0.65728 0.84253 0.0
C226 C 0.60339 0.62642 0.82808 0.0
C227 C 0.64503 0.63067 0.81869 0.0
C228 C 0.69721 0.6656 0.82376 0.0
H229 H 0.56303 0.5993 0.82415 0.0
H230 H 0.06243 0.95708 0.87452 0.0
H231 H 0.98994 0.99705 0.1587 0.0
H232 H 0.97858 0.93191 0.17983 0.0
H233 H 0.06224 0.87923 0.14896 0.0
H234 H 0.07435 0.94495 0.12774 0.0
H235 H 0.96512 0.79537 0.16239 0.0
H236 H 0.1249 0.95203 0.18092 0.0
H237 H 0.17979 0.04642 0.1889 0.0
H238 H 0.07362 0.02387 0.2286 0.0
H239 H 0.01765 0.92945 0.2207 0.0
H240 H 0.00863 0.64334 0.22273 0.0
H241 H 0.01056 0.70162 0.20069 0.0
H242 H 0.96126 0.7792 0.23581 0.0
H243 H 0.9616 0.72237 0.25815 0.0
H244 H 0.0397 0.85046 0.21977 0.0
H245 H 0.87977 0.69524 0.20224 0.0
H246 H 0.82146 0.60121 0.19438 0.0
H247 H 0.92165 0.62014 0.15319 0.0
H248 H 0.98097 0.71415 0.16094 0.0
C249 C 0.00614 0.97178 0.15641 0.0
C250 C 0.03319 0.97624 0.14156 0.0
C251 C 0.99963 0.93461 0.16851 0.0
C252 C 0.01966 0.90086 0.16597 0.0
C253 C 0.04645 0.90492 0.15114 0.0
C254 C 0.05359 0.94264 0.13908 0.0
C255 C 0.0125 0.86143 0.17887 0.0
C256 C 0.98193 0.80723 0.17489 0.0
C257 C 0.03307 0.8771 0.19529 0.0
C258 C 0.06681 0.9338 0.20011 0.0
C259 C 0.11301 0.9673 0.19126 0.0
C260 C 0.14437 0.02079 0.19579 0.0
C261 C 0.13013 0.04116 0.20922 0.0
C262 C 0.08456 0.00805 0.21818 0.0
C263 C 0.05304 0.95454 0.2137 0.0
C264 C 0.99712 0.67205 0.22572 0.0
C265 C 0.98503 0.67825 0.24223 0.0
C266 C 0.99809 0.70537 0.21304 0.0
C267 C 0.98571 0.74479 0.21648 0.0
C268 C 0.97121 0.74933 0.23281 0.0
C269 C 0.97109 0.71658 0.24557 0.0
C270 C 0.99187 0.78378 0.20342 0.0
C271 C 0.02248 0.83817 0.20733 0.0
C272 C 0.97071 0.76816 0.18699 0.0
C273 C 0.93507 0.71165 0.18227 0.0
C274 C 0.88959 0.67926 0.19158 0.0
C275 C 0.85632 0.62598 0.18713 0.0
C276 C 0.86791 0.60468 0.17332 0.0
C277 C 0.91274 0.63668 0.1639 0.0
C278 C 0.94617 0.68998 0.1683 0.0
H279 H 0.8421 0.56342 0.16989 0.0
H280 H 0.15446 0.08258 0.21271 0.0
H281 H 0.12885 0.11028 0.48413 0.0
H282 H 0.19157 0.11329 0.50519 0.0
H283 H 0.31989 0.20291 0.47148 0.0
H284 H 0.2579 0.2007 0.45048 0.0
H285 H 0.31931 0.11429 0.48581 0.0
H286 H 0.30676 0.26548 0.50304 0.0
H287 H 0.2593 0.31052 0.51164 0.0
H288 H 0.19715 0.20749 0.55398 0.0
H289 H 0.24369 0.16133 0.54549 0.0
H290 H 0.5296 0.16815 0.54005 0.0
H291 H 0.47293 0.1828 0.52095 0.0
H292 H 0.35122 0.12364 0.55811 0.0
H293 H 0.4086 0.11141 0.57752 0.0
H294 H 0.34807 0.19791 0.54192 0.0
H295 H 0.35312 0.04368 0.52547 0.0
H296 H 0.39537 0.99276 0.51769 0.0
H297 H 0.46338 0.09169 0.47478 0.0
H298 H 0.42208 0.14371 0.48244 0.0
C299 C 0.17046 0.13097 0.48124 0.0
C300 C 0.18829 0.1553 0.46561 0.0
C301 C 0.20624 0.13274 0.4933 0.0
C302 C 0.2604 0.15843 0.4899 0.0
C303 C 0.27829 0.18289 0.47436 0.0
C304 C 0.24273 0.18174 0.4624 0.0
C305 C 0.2984 0.15854 0.5023 0.0
C306 C 0.3262 0.13321 0.498 0.0
C307 C 0.30603 0.18171 0.51838 0.0
C308 C 0.27829 0.20962 0.52354 0.0
C309 C 0.28262 0.25214 0.51411 0.0
C310 C 0.25596 0.27793 0.51898 0.0
C311 C 0.22512 0.26179 0.53332 0.0
C312 C 0.221 0.21991 0.54286 0.0
C313 C 0.24755 0.19396 0.53803 0.0
C314 C 0.49115 0.15922 0.54426 0.0
C315 C 0.47346 0.1381 0.56024 0.0
C316 C 0.45856 0.1672 0.53328 0.0
C317 C 0.40706 0.15285 0.53787 0.0
C318 C 0.39055 0.1347 0.55419 0.0
C319 C 0.4235 0.12767 0.56529 0.0
C320 C 0.36945 0.15388 0.52544 0.0
C321 C 0.34148 0.17915 0.52973 0.0
C322 C 0.36075 0.12963 0.50944 0.0
C323 C 0.38494 0.09791 0.50462 0.0
C324 C 0.37731 0.05475 0.51443 0.0
C325 C 0.40108 0.02569 0.51003 0.0
C326 C 0.43216 0.03908 0.49578 0.0
C327 C 0.43936 0.08143 0.48583 0.0
C328 C 0.41575 0.11069 0.49019 0.0
H329 H 0.45056 0.01657 0.49241 0.0
H330 H 0.20451 0.2818 0.53707 0.0
H331 H 0.13795 0.25037 0.79201 0.0
H332 H 0.19318 0.31431 0.81379 0.0
H333 H 0.2465 0.2087 0.82979 0.0
H334 H 0.19121 0.14458 0.80822 0.0
H335 H 0.21548 0.24442 0.8559 0.0
H336 H 0.32516 0.32077 0.80716 0.0
H337 H 0.34437 0.35824 0.77875 0.0
H338 H 0.31533 0.4812 0.79432 0.0
H339 H 0.29529 0.44403 0.82278 0.0
H340 H 0.44394 0.38623 0.9031 0.0
H341 H 0.37795 0.33794 0.88154 0.0
H342 H 0.35389 0.47032 0.87531 0.0
H343 H 0.42176 0.52021 0.89699 0.0
H344 H 0.35921 0.42891 0.8452 0.0
H345 H 0.26119 0.35982 0.89488 0.0
H346 H 0.24301 0.32329 0.9234 0.0
H347 H 0.24837 0.18721 0.90633 0.0
H348 H 0.26736 0.22325 0.87775 0.0
C349 C 0.16179 0.24098 0.80009 0.0
C350 C 0.16014 0.19234 0.79841 0.0
C351 C 0.19339 0.27762 0.81251 0.0
C352 C 0.22407 0.26635 0.82341 0.0
C353 C 0.223 0.21815 0.82157 0.0
C354 C 0.19151 0.18161 0.80918 0.0
C355 C 0.25624 0.30366 0.8371 0.0
C356 C 0.24711 0.28466 0.85355 0.0
C357 C 0.29599 0.35692 0.83412 0.0
C358 C 0.30811 0.37925 0.81703 0.0
C359 C 0.32243 0.35553 0.80448 0.0
C360 C 0.33356 0.37677 0.78838 0.0
C361 C 0.3309 0.42197 0.78472 0.0
C362 C 0.31727 0.44613 0.79716 0.0
C363 C 0.30605 0.42501 0.81328 0.0
C364 C 0.42465 0.40535 0.89728 0.0
C365 C 0.43802 0.45712 0.90188 0.0
C366 C 0.38659 0.3774 0.88495 0.0
C367 C 0.36019 0.40003 0.877 0.0
C368 C 0.37354 0.45196 0.88139 0.0
C369 C 0.41212 0.4803 0.8938 0.0
C370 C 0.31969 0.36892 0.86391 0.0
C371 C 0.327 0.38901 0.8476 0.0
C372 C 0.27794 0.31663 0.867 0.0
C373 C 0.26593 0.29441 0.88416 0.0
C374 C 0.25879 0.32224 0.89722 0.0
C375 C 0.24831 0.3016 0.9134 0.0
C376 C 0.24459 0.25299 0.91668 0.0
C377 C 0.25123 0.22485 0.90377 0.0
C378 C 0.26176 0.24533 0.88757 0.0
H379 H 0.23651 0.2371 0.92922 0.0
H380 H 0.33954 0.43836 0.77224 0.0
H381 H 0.90211 0.16163 0.75049 0.0
H382 H 0.84522 0.16283 0.7283 0.0
H383 H 0.86223 0.04641 0.70046 0.0
H384 H 0.92071 0.04625 0.72241 0.0
H385 H 0.86882 0.11914 0.68007 0.0
H386 H 0.74875 0.01454 0.72325 0.0
H387 H 0.71267 0.99502 0.75173 0.0
H388 H 0.68834 0.12742 0.74953 0.0
H389 H 0.72494 0.14814 0.7211 0.0
H390 H 0.64407 0.00935 0.62748 0.0
H391 H 0.71008 0.02757 0.64911 0.0
H392 H 0.69578 0.15802 0.66745 0.0
H393 H 0.62899 0.13993 0.64558 0.0
H394 H 0.69095 0.08839 0.69263 0.0
H395 H 0.80404 0.18567 0.64745 0.0
H396 H 0.83652 0.19936 0.61855 0.0
H397 H 0.87037 0.07397 0.62416 0.0
H398 H 0.83739 0.05899 0.65302 0.0
C399 C 0.89371 0.13613 0.73967 0.0
C400 C 0.91578 0.10358 0.73829 0.0
C401 C 0.86095 0.13675 0.727 0.0
C402 C 0.84867 0.10412 0.71279 0.0
C403 C 0.87104 0.07193 0.7113 0.0
C404 C 0.90435 0.07173 0.72389 0.0
C405 C 0.81269 0.10361 0.69946 0.0
C406 C 0.82976 0.11191 0.68283 0.0
C407 C 0.76215 0.09562 0.70304 0.0
C408 C 0.74014 0.08324 0.72013 0.0
C409 C 0.7361 0.03974 0.7289 0.0
C410 C 0.71549 0.02842 0.74502 0.0
C411 C 0.69838 0.06006 0.75246 0.0
C412 C 0.70171 0.10301 0.74377 0.0
C413 C 0.72235 0.11454 0.72765 0.0
C414 C 0.65504 0.0422 0.63602 0.0
C415 C 0.6312 0.07319 0.63483 0.0
C416 C 0.69306 0.0527 0.64834 0.0
C417 C 0.70819 0.0944 0.6598 0.0
C418 C 0.68475 0.12576 0.65866 0.0
C419 C 0.64683 0.11554 0.64615 0.0
C420 C 0.7469 0.10316 0.6733 0.0
C421 C 0.73031 0.09631 0.68994 0.0
C422 C 0.79759 0.1118 0.66971 0.0
C423 C 0.81789 0.12099 0.65238 0.0
C424 C 0.81806 0.16076 0.64249 0.0
C425 C 0.83662 0.16879 0.62612 0.0
C426 C 0.85541 0.13749 0.61951 0.0
C427 C 0.8558 0.09818 0.62929 0.0
C428 C 0.83724 0.08996 0.64567 0.0
H429 H 0.86974 0.14375 0.60683 0.0
H430 H 0.68242 0.05122 0.76494 0.0
H431 H 0.96183 0.96221 0.05517 0.0
H432 H 0.89386 0.90933 0.03439 0.0
H433 H 0.79347 0.96226 0.05464 0.0
H434 H 0.86196 0.01591 0.07571 0.0
H435 H 0.73996 0.85092 0.04709 0.0
H436 H 0.84854 0.0147 0.0197 0.0
H437 H 0.93214 0.09278 0.01101 0.0
H438 H 0.9722 0.99178 0.98403 0.0
H439 H 0.88923 0.91299 0.99277 0.0
H440 H 0.58469 0.7021 0.97407 0.0
H441 H 0.62814 0.77623 0.99428 0.0
H442 H 0.77574 0.78207 0.98684 0.0
H443 H 0.73358 0.70994 0.96676 0.0
H444 H 0.79074 0.87939 0.98739 0.0
H445 H 0.6915 0.71638 0.0204 0.0
H446 H 0.60835 0.63779 0.02927 0.0
H447 H 0.55048 0.73831 0.04543 0.0
H448 H 0.63303 0.8174 0.03646 0.0
C449 C 0.92535 0.96272 0.05529 0.0
C450 C 0.91747 0.99359 0.06705 0.0
C451 C 0.88653 0.9325 0.04335 0.0
C452 C 0.83889 0.93238 0.04284 0.0
C453 C 0.83008 0.96202 0.0548 0.0
C454 C 0.86926 0.99271 0.06677 0.0
C455 C 0.79931 0.90145 0.02953 0.0
C456 C 0.75042 0.8578 0.03399 0.0
C457 C 0.81291 0.91053 0.01245 0.0
C458 C 0.86266 0.95788 0.00695 0.0
C459 C 0.8753 0.00909 0.01199 0.0
C460 C 0.92258 0.0535 0.00705 0.0
C461 C 0.95748 0.04724 0.99698 0.0
C462 C 0.94511 0.99657 0.99181 0.0
C463 C 0.8979 0.95202 0.99674 0.0
C464 C 0.62648 0.71968 0.97667 0.0
C465 C 0.65557 0.69992 0.96885 0.0
C466 C 0.6512 0.76182 0.98825 0.0
C467 C 0.70522 0.78456 0.99215 0.0
C468 C 0.73415 0.76546 0.98402 0.0
C469 C 0.70975 0.72382 0.97256 0.0
C470 C 0.73271 0.82711 0.00498 0.0
C471 C 0.77947 0.87326 1.00043 0.0
C472 C 0.71709 0.82019 0.02192 0.0
C473 C 0.66807 0.77267 0.02757 0.0
C474 C 0.6609 0.72165 0.02576 0.0
C475 C 0.61391 0.67704 0.03081 0.0
C476 C 0.57408 0.68307 0.03784 0.0
C477 C 0.5813 0.73371 0.03994 0.0
C478 C 0.62815 0.77841 0.03488 0.0
H479 H 0.53765 0.64856 0.04169 0.0
H480 H 0.99408 0.08167 0.99318 0.0
H481 H 0.10324 0.05053 0.37553 0.0
H482 H 0.10931 0.98442 0.35879 0.0
H483 H 0.03496 0.86947 0.39795 0.0
H484 H 0.02848 0.9358 0.41493 0.0
H485 H 0.12663 0.87441 0.38483 0.0
H486 H 0.96454 0.85723 0.36468 0.0
H487 H 0.90766 0.88955 0.35361 0.0
H488 H 0.00518 0.95089 0.31033 0.0
H489 H 0.06312 0.9196 0.32127 0.0
H490 H 0.07446 0.64871 0.3363 0.0
H491 H 0.07457 0.71515 0.35462 0.0
H492 H 0.1234 0.82527 0.3136 0.0
H493 H 0.12167 0.7581 0.29499 0.0
H494 H 0.04375 0.82203 0.32834 0.0
H495 H 0.20659 0.84137 0.34793 0.0
H496 H 0.26615 0.81208 0.35881 0.0
H497 H 0.17148 0.75033 0.40265 0.0
H498 H 0.11091 0.77863 0.39193 0.0
C499 C 0.08799 0.01119 0.38063 0.0
C500 C 0.06531 0.99846 0.3966 0.0
C501 C 0.09139 0.97339 0.371 0.0
C502 C 0.07236 0.922 0.37709 0.0
C503 C 0.04985 0.90898 0.39303 0.0
C504 C 0.04593 0.94678 0.40267 0.0
C505 C 0.07658 0.88237 0.36671 0.0
C506 C 0.10787 0.86219 0.37258 0.0
C507 C 0.05341 0.86787 0.35053 0.0
C508 C 0.01845 0.88649 0.34388 0.0
C509 C 0.97412 0.87799 0.35287 0.0
C510 C 0.94163 0.89606 0.34661 0.0
C511 C 0.95288 0.92237 0.3313 0.0
C512 C 0.99656 0.93055 0.3222 0.0
C513 C 0.0292 0.91261 0.32842 0.0
C514 C 0.0862 0.68737 0.3312 0.0
C515 C 0.09789 0.69796 0.31413 0.0
C516 C 0.08642 0.72551 0.34175 0.0
C517 C 0.09924 0.77547 0.33556 0.0
C518 C 0.1132 0.78697 0.31868 0.0
C519 C 0.11253 0.74863 0.30806 0.0
C520 C 0.09427 0.81407 0.34635 0.0
C521 C 0.06267 0.83409 0.34057 0.0
C522 C 0.11756 0.82873 0.36255 0.0
C523 C 0.15393 0.81169 0.36904 0.0
C524 C 0.19823 0.82117 0.35983 0.0
C525 C 0.23222 0.80481 0.36598 0.0
C526 C 0.22253 0.77924 0.38139 0.0
C527 C 0.1789 0.77009 0.3907 0.0
C528 C 0.14476 0.78633 0.3846 0.0
H529 H 0.2489 0.76661 0.38613 0.0
H530 H 0.92768 0.93633 0.32647 0.0
H531 H 0.10877 0.07018 0.70616 0.0
H532 H 0.15334 0.04831 0.68468 0.0
H533 H 0.18316 0.95644 0.7205 0.0
H534 H 0.13772 0.97733 0.74202 0.0
H535 H 0.27364 0.03182 0.70149 0.0
H536 H 0.09475 0.89019 0.69292 0.0
H537 H 0.99915 0.85181 0.68838 0.0
H538 H 0.02859 0.9385 0.6426 0.0
H539 H 0.12446 0.97803 0.64699 0.0
H540 H 0.38997 0.95288 0.63986 0.0
H541 H 0.33106 0.9447 0.66248 0.0
H542 H 0.25526 0.00382 0.62983 0.0
H543 H 0.31208 0.00979 0.60709 0.0
H544 H 0.18491 0.93497 0.64905 0.0
H545 H 0.35955 0.08531 0.65834 0.0
H546 H 0.45611 0.13105 0.66234 0.0
H547 H 0.43648 0.03743 0.70593 0.0
H548 H 0.33975 0.99065 0.70205 0.0
C549 C 0.12457 0.0451 0.70945 0.0
C550 C 0.11967 0.02543 0.72578 0.0
C551 C 0.14987 0.03252 0.69716 0.0
C552 C 0.17133 1.00057 0.70099 0.0
C553 C 0.16676 0.98105 0.71729 0.0
C554 C 0.14067 0.9929 0.72954 0.0
C555 C 0.19976 0.98891 0.68804 0.0
C556 C 0.25414 0.00975 0.69015 0.0
C557 C 0.17447 0.96135 0.67309 0.0
C558 C 0.11682 0.9374 0.67036 0.0
C559 C 0.08087 0.90141 0.68195 0.0
C560 C 0.02662 0.87938 0.67939 0.0
C561 C 0.00781 0.89279 0.66523 0.0
C562 C 0.04322 0.92818 0.65357 0.0
C563 C 0.09751 0.95036 0.65608 0.0
C564 C 0.35996 0.96301 0.6374 0.0
C565 C 0.3562 0.98253 0.62169 0.0
C566 C 0.32656 0.95876 0.6504 0.0
C567 C 0.28955 0.97505 0.64805 0.0
C568 C 0.28358 0.99127 0.63206 0.0
C569 C 0.3163 0.99473 0.61902 0.0
C570 C 0.25929 0.97858 0.66232 0.0
C571 C 0.20449 0.95639 0.66046 0.0
C572 C 0.28441 0.00588 0.67739 0.0
C573 C 0.34249 0.03405 0.67978 0.0
C574 C 0.37586 0.07423 0.6687 0.0
C575 C 0.4306 0.10037 0.67096 0.0
C576 C 0.45242 0.08703 0.68434 0.0
C577 C 0.41952 0.04763 0.69554 0.0
C578 C 0.36474 0.0213 0.69332 0.0
H579 H 0.49482 0.10731 0.68607 0.0
H580 H 0.96579 0.87569 0.66327 0.0
H581 H 0.14222 0.20105 0.04238 0.0
H582 H 0.22326 0.24664 0.02641 0.0
H583 H 0.31168 0.24012 0.06876 0.0
H584 H 0.22994 0.19347 0.08492 0.0
H585 H 0.35484 0.3431 0.05351 0.0
H586 H 0.2974 0.16426 0.03763 0.0
H587 H 0.23326 0.07352 0.02791 0.0
H588 H 0.21153 0.13514 0.98172 0.0
H589 H 0.27496 0.22633 0.99125 0.0
H590 H 0.57562 0.4783 1.00035 0.0
H591 H 0.51453 0.41159 0.01999 0.0
H592 H 0.39005 0.3551 0.98265 0.0
H593 H 0.45146 0.41882 0.9628 0.0
H594 H 0.37536 0.27577 0.99888 0.0
H595 H 0.41602 0.45252 0.01633 0.0
H596 H 0.47562 0.54499 0.0257 0.0
H597 H 0.52355 0.48969 0.06828 0.0
H598 H 0.46476 0.39697 0.05904 0.0
C599 C 0.17877 0.20894 0.04832 0.0
C600 C 0.17961 0.19367 0.06495 0.0
C601 C 0.22506 0.23483 0.03913 0.0
C602 C 0.27342 0.24648 0.04636 0.0
C603 C 0.27466 0.23129 0.06295 0.0
C604 C 0.22798 0.20452 0.07213 0.0
C605 C 0.32245 0.27642 0.03656 0.0
C606 C 0.36008 0.32807 0.04173 0.0
C607 C 0.32862 0.25708 0.02107 0.0
C608 C 0.29079 0.2022 0.01521 0.0
C609 C 0.2787 0.1585 0.02544 0.0
C610 C 0.2425 0.10697 0.01996 0.0
C611 C 0.21829 0.09857 0.00421 0.0
C612 C 0.23032 0.14169 0.99391 0.0
C613 C 0.26647 0.19332 0.99934 0.0
C614 C 0.53545 0.45086 0.99627 0.0
C615 C 0.51835 0.45407 0.98005 0.0
C616 C 0.50036 0.41304 0.00756 0.0
C617 C 0.44702 0.37905 1.00304 0.0
C618 C 0.43078 0.38073 0.98656 0.0
C619 C 0.46607 0.4174 0.97517 0.0
C620 C 0.40702 0.3436 0.01545 0.0
C621 C 0.37093 0.29074 0.01079 0.0
C622 C 0.40172 0.36221 0.03129 0.0
C623 C 0.43653 0.41792 0.0369 0.0
C624 C 0.4395 0.46015 0.02764 0.0
C625 C 0.47311 0.51258 0.03293 0.0
C626 C 0.50348 0.52318 0.04755 0.0
C627 C 0.50012 0.4814 0.05694 0.0
C628 C 0.46668 0.42893 0.05169 0.0
H629 H 0.52954 0.56372 0.05163 0.0
H630 H 0.19026 0.05865 0.99999 0.0
H631 H 0.93477 0.11282 0.38535 0.0
H632 H 0.9208 0.16389 0.36386 0.0
H633 H 0.02647 0.30897 0.3904 0.0
H634 H 0.04107 0.25811 0.41197 0.0
H635 H 0.93136 0.30229 0.37831 0.0
H636 H 0.07204 0.27782 0.35837 0.0
H637 H 0.11169 0.22428 0.35081 0.0
H638 H 0.98884 0.1391 0.31416 0.0
H639 H 0.94802 0.19166 0.32168 0.0
H640 H 0.9995 0.49839 0.3171 0.0
H641 H 0.99212 0.43798 0.33908 0.0
H642 H 0.91752 0.30647 0.30425 0.0
H643 H 0.92735 0.36768 0.28182 0.0
H644 H 0.9886 0.29953 0.3204 0.0
H645 H 0.85003 0.32567 0.33817 0.0
H646 H 0.80658 0.37566 0.34566 0.0
H647 H 0.91792 0.45235 0.38601 0.0
H648 H 0.9625 0.40336 0.37863 0.0
C649 C 0.95488 0.15558 0.38669 0.0
C650 C 0.98928 0.18148 0.40033 0.0
C651 C 0.94687 0.18467 0.37437 0.0
C652 C 0.97284 0.24018 0.37549 0.0
C653 C 0.00605 0.26611 0.38932 0.0
C654 C 0.0145 0.23705 0.40159 0.0
C655 C 0.96672 0.27128 0.36194 0.0
C656 C 0.94425 0.3022 0.36566 0.0
C657 C 0.98186 0.26951 0.34535 0.0
C658 C 0.00667 0.23827 0.34071 0.0
C659 C 0.05325 0.24738 0.34879 0.0
C660 C 0.07597 0.21727 0.3445 0.0
C661 C 0.05271 0.17821 0.33205 0.0
C662 C 0.00676 0.16931 0.32382 0.0
C663 C 0.98384 0.19927 0.32809 0.0
C664 C 0.98068 0.45652 0.3141 0.0
C665 C 0.96411 0.43795 0.29763 0.0
C666 C 0.97616 0.42179 0.32679 0.0
C667 C 0.95363 0.36732 0.32347 0.0
C668 C 0.93509 0.34829 0.30716 0.0
C669 C 0.94045 0.38328 0.29436 0.0
C670 C 0.95346 0.33135 0.33669 0.0
C671 C 0.97494 0.29941 0.33295 0.0
C672 C 0.93669 0.33167 0.35322 0.0
C673 C 0.90984 0.36107 0.35776 0.0
C674 C 0.86547 0.35345 0.34857 0.0
C675 C 0.8406 0.38157 0.35281 0.0
C676 C 0.85953 0.41723 0.36628 0.0
C677 C 0.90331 0.42473 0.37557 0.0
C678 C 0.92834 0.39673 0.37139 0.0
H679 H 0.84024 0.43898 0.36954 0.0
H680 H 0.07036 0.15492 0.32875 0.0
loop_
_geom_bond_atom_site_label_1
_geom_bond_atom_site_label_2
_geom_bond_distance
_geom_bond_site_symmetry_2
_ccdc_geom_bond_type
C0 O1 1.306 . S
C0 O3 1.160 . S
O1 C0 1.306 . S
O1 Cd2 2.228 1_455 S
Cd2 O1 2.228 1_655 S
Cd2 O6 2.273 . S
Cd2 O10 2.277 1_655 S
O3 C0 1.160 . S
O3 Cd4 2.203 . S
Cd4 O3 2.203 . S
Cd4 O6 2.411 1_455 S
Cd4 O7 2.333 . S
Cd4 O8 2.352 . S
Cd4 O12 2.277 . S
Cd4 O13 2.356 . S
C5 O10 1.209 . S
C5 O12 1.226 . S
O6 Cd2 2.273 . S
O6 Cd4 2.411 1_655 S
O6 C9 1.320 . S
O7 Cd4 2.333 . S
O7 C9 1.214 1_455 S
O8 Cd4 2.352 . S
O8 C11 1.258 1_545 S
C9 O6 1.320 . S
C9 O7 1.214 1_655 S
O10 Cd2 2.277 1_455 S
O10 C5 1.209 . S
C11 O8 1.258 1_565 S
C11 O13 1.282 1_565 S
O12 Cd4 2.277 . S
O12 C5 1.226 . S
O13 Cd4 2.356 . S
O13 C11 1.282 1_545 S
C14 O15 1.306 . S
C14 O17 1.160 . S
O15 C14 1.306 . S
O15 Cd16 2.228 . S
Cd16 O15 2.228 . S
Cd16 O20 2.273 . S
Cd16 O24 2.277 . S
O17 C14 1.160 . S
O17 Cd18 2.203 . S
Cd18 O17 2.203 . S
Cd18 O20 2.411 . S
Cd18 O21 2.333 1_455 S
Cd18 O22 2.352 1_455 S
Cd18 O26 2.277 1_445 S
Cd18 O27 2.356 1_455 S
C19 O24 1.209 1_565 S
C19 O26 1.226 1_455 S
O20 Cd16 2.273 . S
O20 Cd18 2.411 . S
O20 C23 1.320 . S
O21 Cd18 2.333 1_655 S
O21 C23 1.214 1_655 S
O22 Cd18 2.352 1_655 S
O22 C25 1.258 . S
C23 O20 1.320 . S
C23 O21 1.214 1_455 S
O24 Cd16 2.277 . S
O24 C19 1.209 1_545 S
C25 O22 1.258 . S
C25 O27 1.282 . S
O26 Cd18 2.277 1_665 S
O26 C19 1.226 1_655 S
O27 Cd18 2.356 1_655 S
O27 C25 1.282 . S
C28 O29 1.306 . S
C28 O31 1.160 . S
O29 C28 1.306 . S
O29 Cd30 2.228 . S
Cd30 O29 2.228 . S
Cd30 O34 2.273 1_655 S
Cd30 O38 2.277 . S
O31 C28 1.160 . S
O31 Cd32 2.203 1_655 S
Cd32 O31 2.203 1_455 S
Cd32 O34 2.411 . S
Cd32 O35 2.333 . S
Cd32 O36 2.352 . S
Cd32 O40 2.277 1_445 S
Cd32 O41 2.356 . S
C33 O38 1.209 . S
C33 O40 1.226 1_545 S
O34 Cd30 2.273 1_455 S
O34 Cd32 2.411 . S
O34 C37 1.320 . S
O35 Cd32 2.333 . S
O35 C37 1.214 . S
O36 Cd32 2.352 . S
O36 C39 1.258 . S
C37 O34 1.320 . S
C37 O35 1.214 . S
O38 Cd30 2.277 . S
O38 C33 1.209 . S
C39 O36 1.258 . S
C39 O41 1.282 . S
O40 Cd32 2.277 1_665 S
O40 C33 1.226 1_565 S
O41 Cd32 2.356 . S
O41 C39 1.282 . S
Mg42 O49 2.141 . S
Mg42 O50 2.048 . S
Mg42 O51 2.048 . S
Mg42 O54 2.141 . S
C43 O44 1.313 1_455 S
C43 O50 1.195 . S
O44 C43 1.313 1_655 S
C45 O46 1.245 1_455 S
C45 O54 1.289 . S
O46 C45 1.245 1_655 S
C47 O48 1.245 1_455 S
C47 O49 1.289 . S
O48 C47 1.245 1_655 S
O49 Mg42 2.141 . S
O49 C47 1.289 . S
O50 Mg42 2.048 . S
O50 C43 1.195 . S
O51 Mg42 2.048 . S
O51 C52 1.195 . S
C52 O51 1.195 . S
C52 O53 1.313 1_455 S
O53 C52 1.313 1_655 S
O54 Mg42 2.141 . S
O54 C45 1.289 . S
Mg55 O62 2.141 . S
Mg55 O63 2.048 . S
Mg55 O64 2.048 . S
Mg55 O67 2.141 . S
C56 O57 1.313 . S
C56 O63 1.195 . S
O57 C56 1.313 . S
C58 O59 1.245 . S
C58 O67 1.289 . S
O59 C58 1.245 . S
C60 O61 1.245 . S
C60 O62 1.289 . S
O61 C60 1.245 . S
O62 Mg55 2.141 . S
O62 C60 1.289 . S
O63 Mg55 2.048 . S
O63 C56 1.195 . S
O64 Mg55 2.048 . S
O64 C65 1.195 . S
C65 O64 1.195 . S
C65 O66 1.313 . S
O66 C65 1.313 . S
O67 Mg55 2.141 . S
O67 C58 1.289 . S
Mg68 O75 2.141 . S
Mg68 O76 2.048 . S
Mg68 O77 2.048 . S
Mg68 O80 2.141 . S
C69 O70 1.313 . S
C69 O76 1.195 . S
O70 C69 1.313 . S
C71 O72 1.245 . S
C71 O80 1.289 . S
O72 C71 1.245 . S
C73 O74 1.245 . S
C73 O75 1.289 . S
O74 C73 1.245 . S
O75 Mg68 2.141 . S
O75 C73 1.289 . S
O76 Mg68 2.048 . S
O76 C69 1.195 . S
O77 Mg68 2.048 . S
O77 C78 1.195 . S
C78 O77 1.195 . S
C78 O79 1.313 . S
O79 C78 1.313 . S
O80 Mg68 2.141 . S
O80 C71 1.289 . S
H81 C99 0.951 . S
H82 C101 0.951 . S
H83 C103 0.950 . S
H84 C104 0.950 . S
H85 C106 0.950 . S
H86 C109 0.950 . S
H87 C110 0.950 . S
H88 C112 0.950 . S
H89 C113 0.950 . S
H90 C114 0.951 . S
H91 C116 0.951 . S
H92 C118 0.950 . S
H93 C119 0.950 . S
H94 C121 0.950 1_655 S
H95 C124 0.950 . S
H96 C125 0.950 . S
H97 C127 0.950 . S
H98 C128 0.950 . S
C99 H81 0.951 . S
C99 C100 1.366 . S
C99 C101 1.388 . S
C100 C99 1.366 . S
C100 C104 1.385 . S
C101 H82 0.951 . S
C101 C99 1.388 . S
C101 C102 1.366 . S
C102 C101 1.366 . S
C102 C103 1.414 . S
C102 C105 1.499 . S
C103 H83 0.950 . S
C103 C102 1.414 . S
C103 C104 1.374 . S
C104 H84 0.950 . S
C104 C100 1.385 . S
C104 C103 1.374 . S
C105 C102 1.499 . S
C105 C106 1.373 . S
C105 C107 1.409 . S
C106 H85 0.950 . S
C106 C105 1.373 . S
C106 C122 1.377 . S
C107 C105 1.409 . S
C107 C108 1.511 1_455 S
C107 C121 1.369 . S
C108 C107 1.511 1_655 S
C108 C109 1.397 . S
C108 C113 1.363 . S
C109 H86 0.950 . S
C109 C108 1.397 . S
C109 C110 1.334 . S
C110 H87 0.950 . S
C110 C109 1.334 . S
C110 C111 1.287 . S
C111 C110 1.287 . S
C111 C112 1.524 . S
C111 H130 0.913 . S
C112 H88 0.950 . S
C112 C111 1.524 . S
C112 C113 1.415 . S
C113 H89 0.950 . S
C113 C108 1.363 . S
C113 C112 1.415 . S
C114 H90 0.951 . S
C114 C115 1.366 . S
C114 C116 1.388 . S
C115 C114 1.366 . S
C115 C119 1.385 . S
C116 H91 0.951 . S
C116 C114 1.388 . S
C116 C117 1.366 . S
C117 C116 1.366 . S
C117 C118 1.414 . S
C117 C120 1.499 . S
C118 H92 0.950 . S
C118 C117 1.414 . S
C118 C119 1.374 . S
C119 H93 0.950 . S
C119 C115 1.385 . S
C119 C118 1.374 . S
C120 C117 1.499 . S
C120 C121 1.373 . S
C120 C122 1.389 . S
C121 H94 0.950 1_455 S
C121 C107 1.369 . S
C121 C120 1.373 . S
C122 C106 1.377 . S
C122 C120 1.389 . S
C122 C123 1.524 . S
C123 C122 1.524 . S
C123 C124 1.397 . S
C123 C128 1.363 . S
C124 H95 0.950 . S
C124 C123 1.397 . S
C124 C125 1.334 . S
C125 H96 0.950 . S
C125 C124 1.334 . S
C125 C126 1.287 . S
C126 C125 1.287 . S
C126 C127 1.524 . S
C126 H129 0.999 . S
C127 H97 0.950 . S
C127 C126 1.524 . S
C127 C128 1.415 . S
C128 H98 0.950 . S
C128 C123 1.363 . S
C128 C127 1.415 . S
H129 C126 0.999 . S
H130 C111 0.913 . S
H131 C149 0.951 . S
H132 C151 0.951 . S
H133 C153 0.950 1_565 S
H134 C154 0.950 1_565 S
H135 C156 0.950 . S
H136 C159 0.950 . S
H137 C160 0.950 . S
H138 C162 0.950 . S
H139 C163 0.950 . S
H140 C164 0.951 1_565 S
H141 C166 0.951 1_565 S
H142 C168 0.950 . S
H143 C169 0.950 . S
H144 C171 0.950 . S
H145 C174 0.950 . S
H146 C175 0.950 . S
H147 C177 0.950 . S
H148 C178 0.950 . S
C149 H131 0.951 . S
C149 C150 1.366 . S
C149 C151 1.388 . S
C150 C149 1.366 . S
C150 C154 1.385 . S
C151 H132 0.951 . S
C151 C149 1.388 . S
C151 C152 1.366 . S
C152 C151 1.366 . S
C152 C153 1.414 . S
C152 C155 1.499 . S
C153 H133 0.950 1_545 S
C153 C152 1.414 . S
C153 C154 1.374 . S
C154 H134 0.950 1_545 S
C154 C150 1.385 . S
C154 C153 1.374 . S
C155 C152 1.499 . S
C155 C156 1.373 . S
C155 C157 1.389 . S
C156 H135 0.950 . S
C156 C155 1.373 . S
C156 C172 1.377 . S
C157 C155 1.389 . S
C157 C158 1.524 . S
C157 C171 1.377 . S
C158 C157 1.524 . S
C158 C159 1.397 . S
C158 C163 1.363 . S
C159 H136 0.950 . S
C159 C158 1.397 . S
C159 C160 1.334 . S
C160 H137 0.950 . S
C160 C159 1.334 . S
C160 C161 1.287 . S
C161 C160 1.287 . S
C161 C162 1.524 . S
C161 H180 0.913 1_655 S
C162 H138 0.950 . S
C162 C161 1.524 . S
C162 C163 1.415 . S
C163 H139 0.950 . S
C163 C158 1.363 . S
C163 C162 1.415 . S
C164 H140 0.951 1_545 S
C164 C165 1.366 . S
C164 C166 1.388 . S
C165 C164 1.366 . S
C165 C169 1.385 . S
C166 H141 0.951 1_545 S
C166 C164 1.388 . S
C166 C167 1.366 . S
C167 C166 1.366 . S
C167 C168 1.414 . S
C167 C170 1.499 . S
C168 H142 0.950 . S
C168 C167 1.414 . S
C168 C169 1.374 . S
C169 H143 0.950 . S
C169 C165 1.385 . S
C169 C168 1.374 . S
C170 C167 1.499 . S
C170 C171 1.373 . S
C170 C172 1.389 . S
C171 H144 0.950 . S
C171 C157 1.377 . S
C171 C170 1.373 . S
C172 C156 1.377 . S
C172 C170 1.389 . S
C172 C173 1.524 1_545 S
C173 C172 1.524 1_565 S
C173 C174 1.397 1_565 S
C173 C178 1.363 . S
C174 H145 0.950 . S
C174 C173 1.397 1_545 S
C174 C175 1.334 . S
C175 H146 0.950 . S
C175 C174 1.334 . S
C175 C176 1.287 1_545 S
C176 C175 1.287 1_565 S
C176 C177 1.524 . S
C176 H179 0.999 . S
C177 H147 0.950 . S
C177 C176 1.524 . S
C177 C178 1.415 . S
C178 H148 0.950 . S
C178 C173 1.363 . S
C178 C177 1.415 . S
H179 C176 0.999 . S
H180 C161 0.913 1_455 S
H181 C199 0.951 . S
H182 C201 0.951 . S
H183 C203 0.950 . S
H184 C204 0.950 . S
H185 C206 0.950 . S
H186 C209 0.950 . S
H187 C210 0.950 . S
H188 C212 0.950 . S
H189 C213 0.950 . S
H190 C214 0.951 . S
H191 C216 0.951 . S
H192 C218 0.950 . S
H193 C219 0.950 . S
H194 C221 0.950 . S
H195 C224 0.950 . S
H196 C225 0.950 . S
H197 C227 0.950 . S
H198 C228 0.950 . S
C199 H181 0.951 . S
C199 C200 1.366 . S
C199 C201 1.388 . S
C200 C199 1.366 . S
C200 C204 1.385 . S
C201 H182 0.951 . S
C201 C199 1.388 . S
C201 C202 1.366 . S
C202 C201 1.366 . S
C202 C203 1.414 . S
C202 C205 1.499 . S
C203 H183 0.950 . S
C203 C202 1.414 . S
C203 C204 1.374 . S
C204 H184 0.950 . S
C204 C200 1.385 . S
C204 C203 1.374 . S
C205 C202 1.499 . S
C205 C206 1.373 . S
C205 C207 1.389 . S
C206 H185 0.950 . S
C206 C205 1.373 . S
C206 C222 1.377 . S
C207 C205 1.389 . S
C207 C208 1.524 . S
C207 C221 1.377 . S
C208 C207 1.524 . S
C208 C209 1.397 . S
C208 C213 1.363 . S
C209 H186 0.950 . S
C209 C208 1.397 . S
C209 C210 1.334 1_565 S
C210 H187 0.950 . S
C210 C209 1.334 1_545 S
C210 C211 1.287 . S
C211 C210 1.287 . S
C211 C212 1.524 . S
C211 H230 0.913 . S
C212 H188 0.950 . S
C212 C211 1.524 . S
C212 C213 1.415 1_545 S
C213 H189 0.950 . S
C213 C208 1.363 . S
C213 C212 1.415 1_565 S
C214 H190 0.951 . S
C214 C215 1.366 . S
C214 C216 1.388 . S
C215 C214 1.366 . S
C215 C219 1.385 . S
C216 H191 0.951 . S
C216 C214 1.388 . S
C216 C217 1.366 . S
C217 C216 1.366 . S
C217 C218 1.414 . S
C217 C220 1.499 . S
C218 H192 0.950 . S
C218 C217 1.414 . S
C218 C219 1.374 . S
C219 H193 0.950 . S
C219 C215 1.385 . S
C219 C218 1.374 . S
C220 C217 1.499 . S
C220 C221 1.373 . S
C220 C222 1.389 . S
C221 H194 0.950 . S
C221 C207 1.377 . S
C221 C220 1.373 . S
C222 C206 1.377 . S
C222 C220 1.389 . S
C222 C223 1.524 . S
C223 C222 1.524 . S
C223 C224 1.397 . S
C223 C228 1.363 . S
C224 H195 0.950 . S
C224 C223 1.397 . S
C224 C225 1.334 . S
C225 H196 0.950 . S
C225 C224 1.334 . S
C225 C226 1.287 . S
C226 C225 1.287 . S
C226 C227 1.524 . S
C226 H229 0.999 . S
C227 H197 0.950 . S
C227 C226 1.524 . S
C227 C228 1.415 . S
C228 H198 0.950 . S
C228 C223 1.363 . S
C228 C227 1.415 . S
H229 C226 0.999 . S
H230 C211 0.913 . S
H231 C249 0.951 . S
H232 C251 0.951 . S
H233 C253 0.950 . S
H234 C254 0.950 . S
H235 C256 0.950 . S
H236 C259 0.950 . S
H237 C260 0.950 . S
H238 C262 0.950 1_545 S
H239 C263 0.950 . S
H240 C264 0.951 . S
H241 C266 0.951 . S
H242 C268 0.950 . S
H243 C269 0.950 . S
H244 C271 0.950 . S
H245 C274 0.950 . S
H246 C275 0.950 . S
H247 C277 0.945 1_455 S
H248 C278 0.950 . S
C249 H231 0.951 . S
C249 C250 1.366 . S
C249 C251 1.388 . S
C250 C249 1.366 . S
C250 C254 1.385 . S
C251 H232 0.951 . S
C251 C249 1.388 . S
C251 C252 1.366 . S
C252 C251 1.366 . S
C252 C253 1.414 . S
C252 C255 1.499 . S
C253 H233 0.950 . S
C253 C252 1.414 . S
C253 C254 1.374 . S
C254 H234 0.950 . S
C254 C250 1.385 . S
C254 C253 1.374 . S
C255 C252 1.499 . S
C255 C256 1.373 . S
C255 C257 1.389 . S
C256 H235 0.950 . S
C256 C255 1.373 . S
C256 C272 1.377 . S
C257 C255 1.389 . S
C257 C258 1.524 . S
C257 C271 1.377 . S
C258 C257 1.524 . S
C258 C259 1.397 . S
C258 C263 1.363 . S
C259 H236 0.950 . S
C259 C258 1.397 . S
C259 C260 1.334 1_565 S
C260 H237 0.950 . S
C260 C259 1.334 1_545 S
C260 C261 1.287 . S
C261 C260 1.287 . S
C261 C262 1.524 1_545 S
C261 H280 0.913 . S
C262 H238 0.950 1_565 S
C262 C261 1.524 1_565 S
C262 C263 1.415 . S
C263 H239 0.950 . S
C263 C258 1.363 . S
C263 C262 1.415 . S
C264 H240 0.951 . S
C264 C265 1.366 . S
C264 C266 1.388 . S
C265 C264 1.366 . S
C265 C269 1.385 . S
C266 H241 0.951 . S
C266 C264 1.388 . S
C266 C267 1.366 . S
C267 C266 1.366 . S
C267 C268 1.414 . S
C267 C270 1.499 . S
C268 H242 0.950 . S
C268 C267 1.414 . S
C268 C269 1.374 . S
C269 H243 0.950 . S
C269 C265 1.385 . S
C269 C268 1.374 . S
C270 C267 1.499 . S
C270 C271 1.373 . S
C270 C272 1.389 . S
C271 H244 0.950 . S
C271 C257 1.377 . S
C271 C270 1.373 . S
C272 C256 1.377 . S
C272 C270 1.389 . S
C272 C273 1.524 . S
C273 C272 1.524 . S
C273 C274 1.397 1_455 S
C273 C278 1.363 . S
C274 H245 0.950 . S
C274 C273 1.397 1_655 S
C274 C275 1.334 . S
C275 H246 0.950 . S
C275 C274 1.334 . S
C275 C276 1.287 . S
C276 C275 1.287 . S
C276 C277 1.529 . S
C276 H279 0.999 . S
C277 H247 0.945 1_655 S
C277 C276 1.529 . S
C277 C278 1.415 1_655 S
C278 H248 0.950 . S
C278 C273 1.363 . S
C278 C277 1.415 1_455 S
H279 C276 0.999 . S
H280 C261 0.913 . S
H281 C299 0.951 . S
H282 C301 0.951 . S
H283 C303 0.950 . S
H284 C304 0.950 . S
H285 C306 0.950 . S
H286 C309 0.950 . S
H287 C310 0.950 . S
H288 C312 0.950 . S
H289 C313 0.950 . S
H290 C314 0.951 . S
H291 C316 0.951 . S
H292 C318 0.950 . S
H293 C319 0.950 . S
H294 C321 0.950 . S
H295 C324 0.950 . S
H296 C325 0.950 . S
H297 C327 0.950 . S
H298 C328 0.950 1_545 S
C299 H281 0.951 . S
C299 C300 1.366 . S
C299 C301 1.388 . S
C300 C299 1.366 . S
C300 C304 1.385 . S
C301 H282 0.951 . S
C301 C299 1.388 . S
C301 C302 1.366 . S
C302 C301 1.366 . S
C302 C303 1.414 . S
C302 C305 1.499 . S
C303 H283 0.950 . S
C303 C302 1.414 . S
C303 C304 1.374 . S
C304 H284 0.950 . S
C304 C300 1.385 . S
C304 C303 1.374 . S
C305 C302 1.499 . S
C305 C306 1.373 . S
C305 C307 1.389 . S
C306 H285 0.950 . S
C306 C305 1.373 . S
C306 C322 1.377 . S
C307 C305 1.389 . S
C307 C308 1.524 . S
C307 C321 1.377 . S
C308 C307 1.524 . S
C308 C309 1.397 . S
C308 C313 1.363 . S
C309 H286 0.950 . S
C309 C308 1.397 . S
C309 C310 1.334 . S
C310 H287 0.950 . S
C310 C309 1.334 . S
C310 C311 1.287 . S
C311 C310 1.287 . S
C311 C312 1.524 . S
C311 H330 0.913 . S
C312 H288 0.950 . S
C312 C311 1.524 . S
C312 C313 1.415 . S
C313 H289 0.950 . S
C313 C308 1.363 . S
C313 C312 1.415 . S
C314 H290 0.951 . S
C314 C315 1.366 . S
C314 C316 1.388 . S
C315 C314 1.366 . S
C315 C319 1.385 . S
C316 H291 0.951 . S
C316 C314 1.388 . S
C316 C317 1.366 . S
C317 C316 1.366 . S
C317 C318 1.414 . S
C317 C320 1.499 . S
C318 H292 0.950 . S
C318 C317 1.414 . S
C318 C319 1.374 . S
C319 H293 0.950 . S
C319 C315 1.385 . S
C319 C318 1.374 . S
C320 C317 1.499 . S
C320 C321 1.373 . S
C320 C322 1.389 . S
C321 H294 0.950 . S
C321 C307 1.377 . S
C321 C320 1.373 . S
C322 C306 1.377 . S
C322 C320 1.389 . S
C322 C323 1.524 1_545 S
C323 C322 1.524 1_565 S
C323 C324 1.397 . S
C323 C328 1.363 . S
C324 H295 0.950 . S
C324 C323 1.397 . S
C324 C325 1.334 . S
C325 H296 0.950 . S
C325 C324 1.334 . S
C325 C326 1.287 . S
C326 C325 1.287 . S
C326 C327 1.524 . S
C326 H329 0.999 . S
C327 H297 0.950 . S
C327 C326 1.524 . S
C327 C328 1.415 . S
C328 H298 0.950 1_565 S
C328 C323 1.363 . S
C328 C327 1.415 . S
H329 C326 0.999 . S
H330 C311 0.913 . S
H331 C349 0.951 . S
H332 C351 0.951 . S
H333 C353 0.950 . S
H334 C354 0.950 . S
H335 C356 0.950 . S
H336 C359 0.950 . S
H337 C360 0.950 . S
H338 C362 0.950 . S
H339 C363 0.950 . S
H340 C364 0.951 . S
H341 C366 0.951 . S
H342 C368 0.950 . S
H343 C369 0.950 . S
H344 C371 0.950 . S
H345 C374 0.950 . S
H346 C375 0.950 . S
H347 C377 0.950 . S
H348 C378 0.950 . S
C349 H331 0.951 . S
C349 C350 1.366 . S
C349 C351 1.388 . S
C350 C349 1.366 . S
C350 C354 1.385 . S
C351 H332 0.951 . S
C351 C349 1.388 . S
C351 C352 1.366 . S
C352 C351 1.366 . S
C352 C353 1.414 . S
C352 C355 1.499 . S
C353 H333 0.950 . S
C353 C352 1.414 . S
C353 C354 1.374 . S
C354 H334 0.950 . S
C354 C350 1.385 . S
C354 C353 1.374 . S
C355 C352 1.499 . S
C355 C356 1.373 . S
C355 C357 1.389 . S
C356 H335 0.950 . S
C356 C355 1.373 . S
C356 C372 1.377 . S
C357 C355 1.389 . S
C357 C358 1.524 . S
C357 C371 1.377 . S
C358 C357 1.524 . S
C358 C359 1.397 . S
C358 C363 1.363 . S
C359 H336 0.950 . S
C359 C358 1.397 . S
C359 C360 1.334 . S
C360 H337 0.950 . S
C360 C359 1.334 . S
C360 C361 1.287 . S
C361 C360 1.287 . S
C361 C362 1.524 . S
C361 H380 0.913 . S
C362 H338 0.950 . S
C362 C361 1.524 . S
C362 C363 1.415 . S
C363 H339 0.950 . S
C363 C358 1.363 . S
C363 C362 1.415 . S
C364 H340 0.951 . S
C364 C365 1.366 . S
C364 C366 1.388 . S
C365 C364 1.366 . S
C365 C369 1.385 . S
C366 H341 0.951 . S
C366 C364 1.388 . S
C366 C367 1.366 . S
C367 C366 1.366 . S
C367 C368 1.414 . S
C367 C370 1.499 . S
C368 H342 0.950 . S
C368 C367 1.414 . S
C368 C369 1.374 . S
C369 H343 0.950 . S
C369 C365 1.385 . S
C369 C368 1.374 . S
C370 C367 1.499 . S
C370 C371 1.373 . S
C370 C372 1.389 . S
C371 H344 0.950 . S
C371 C357 1.377 . S
C371 C370 1.373 . S
C372 C356 1.377 . S
C372 C370 1.389 . S
C372 C373 1.524 . S
C373 C372 1.524 . S
C373 C374 1.397 . S
C373 C378 1.363 . S
C374 H345 0.950 . S
C374 C373 1.397 . S
C374 C375 1.334 . S
C375 H346 0.950 . S
C375 C374 1.334 . S
C375 C376 1.287 . S
C376 C375 1.287 . S
C376 C377 1.524 . S
C376 H379 0.999 . S
C377 H347 0.950 . S
C377 C376 1.524 . S
C377 C378 1.415 . S
C378 H348 0.950 . S
C378 C373 1.363 . S
C378 C377 1.415 . S
H379 C376 0.999 . S
H380 C361 0.913 . S
H381 C399 0.951 . S
H382 C401 0.951 . S
H383 C403 0.950 1_565 S
H384 C404 0.932 1_565 S
H385 C406 0.950 . S
H386 C409 0.950 . S
H387 C410 0.950 . S
H388 C412 0.950 . S
H389 C413 0.950 . S
H390 C414 0.951 1_565 S
H391 C416 0.951 1_565 S
H392 C418 0.950 . S
H393 C419 0.950 . S
H394 C421 0.950 . S
H395 C424 0.950 . S
H396 C425 0.950 . S
H397 C427 0.950 . S
H398 C428 0.950 . S
C399 H381 0.951 . S
C399 C400 1.366 . S
C399 C401 1.388 . S
C400 C399 1.366 . S
C400 C404 1.385 . S
C401 H382 0.951 . S
C401 C399 1.388 . S
C401 C402 1.366 . S
C402 C401 1.366 . S
C402 C403 1.414 . S
C402 C405 1.499 . S
C403 H383 0.950 1_545 S
C403 C402 1.414 . S
C403 C404 1.374 . S
C404 H384 0.932 1_545 S
C404 C400 1.385 . S
C404 C403 1.374 . S
C405 C402 1.499 . S
C405 C406 1.373 . S
C405 C407 1.389 . S
C406 H385 0.950 . S
C406 C405 1.373 . S
C406 C422 1.377 . S
C407 C405 1.389 . S
C407 C408 1.524 . S
C407 C421 1.377 . S
C408 C407 1.524 . S
C408 C409 1.397 . S
C408 C413 1.363 . S
C409 H386 0.950 . S
C409 C408 1.397 . S
C409 C410 1.334 . S
C410 H387 0.950 . S
C410 C409 1.334 . S
C410 C411 1.287 . S
C411 C410 1.287 . S
C411 C412 1.524 . S
C411 H430 0.913 . S
C412 H388 0.950 . S
C412 C411 1.524 . S
C412 C413 1.415 . S
C413 H389 0.950 . S
C413 C408 1.363 . S
C413 C412 1.415 . S
C414 H390 0.951 1_545 S
C414 C415 1.366 . S
C414 C416 1.388 . S
C415 C414 1.366 . S
C415 C419 1.385 . S
C416 H391 0.951 1_545 S
C416 C414 1.388 . S
C416 C417 1.366 . S
C417 C416 1.366 . S
C417 C418 1.414 . S
C417 C420 1.499 . S
C418 H392 0.950 . S
C418 C417 1.414 . S
C418 C419 1.374 . S
C419 H393 0.950 . S
C419 C415 1.385 . S
C419 C418 1.374 . S
C420 C417 1.499 . S
C420 C421 1.373 . S
C420 C422 1.389 . S
C421 H394 0.950 . S
C421 C407 1.377 . S
C421 C420 1.373 . S
C422 C406 1.377 . S
C422 C420 1.389 . S
C422 C423 1.524 . S
C423 C422 1.524 . S
C423 C424 1.397 . S
C423 C428 1.363 1_545 S
C424 H395 0.950 . S
C424 C423 1.397 . S
C424 C425 1.334 . S
C425 H396 0.950 . S
C425 C424 1.334 . S
C425 C426 1.287 . S
C426 C425 1.287 . S
C426 C427 1.524 1_545 S
C426 H429 0.999 . S
C427 H397 0.950 . S
C427 C426 1.524 1_565 S
C427 C428 1.415 . S
C428 H398 0.950 . S
C428 C423 1.363 1_565 S
C428 C427 1.415 . S
H429 C426 0.999 . S
H430 C411 0.913 . S
H431 C449 0.951 . S
H432 C451 0.951 . S
H433 C453 0.950 . S
H434 C454 0.950 1_545 S
H435 C456 0.950 . S
H436 C459 0.950 . S
H437 C460 0.952 . S
H438 C462 0.943 1_556 S
H439 C463 0.950 . S
H440 C464 0.951 . S
H441 C466 0.951 . S
H442 C468 0.950 . S
H443 C469 0.950 . S
H444 C471 0.950 1_556 S
H445 C474 0.950 . S
H446 C475 0.950 . S
H447 C477 0.950 . S
H448 C478 0.950 . S
C449 H431 0.951 . S
C449 C450 1.366 . S
C449 C451 1.388 . S
C450 C449 1.366 . S
C450 C454 1.385 . S
C451 H432 0.951 . S
C451 C449 1.388 . S
C451 C452 1.366 . S
C452 C451 1.366 . S
C452 C453 1.414 . S
C452 C455 1.499 . S
C453 H433 0.950 . S
C453 C452 1.414 . S
C453 C454 1.374 . S
C454 H434 0.950 1_565 S
C454 C450 1.385 . S
C454 C453 1.374 . S
C455 C452 1.499 . S
C455 C456 1.373 . S
C455 C457 1.389 . S
C456 H435 0.950 . S
C456 C455 1.373 . S
C456 C472 1.377 . S
C457 C455 1.389 . S
C457 C458 1.524 . S
C457 C471 1.377 . S
C458 C457 1.524 . S
C458 C459 1.397 . S
C458 C463 1.363 . S
C459 H436 0.950 . S
C459 C458 1.397 . S
C459 C460 1.334 . S
C460 H437 0.952 . S
C460 C459 1.334 . S
C460 C461 1.297 . S
C461 C460 1.297 . S
C461 C462 1.527 . S
C461 H480 0.904 1_654 S
C462 H438 0.943 1_554 S
C462 C461 1.527 . S
C462 C463 1.415 . S
C463 H439 0.950 . S
C463 C458 1.363 . S
C463 C462 1.415 . S
C464 H440 0.951 . S
C464 C465 1.366 . S
C464 C466 1.388 . S
C465 C464 1.366 . S
C465 C469 1.385 . S
C466 H441 0.951 . S
C466 C464 1.388 . S
C466 C467 1.366 . S
C467 C466 1.366 . S
C467 C468 1.414 . S
C467 C470 1.499 1_556 S
C468 H442 0.950 . S
C468 C467 1.414 . S
C468 C469 1.374 . S
C469 H443 0.950 . S
C469 C465 1.385 . S
C469 C468 1.374 . S
C470 C467 1.499 1_554 S
C470 C471 1.373 . S
C470 C472 1.389 . S
C471 H444 0.950 1_554 S
C471 C457 1.377 . S
C471 C470 1.373 . S
C472 C456 1.377 . S
C472 C470 1.389 . S
C472 C473 1.524 . S
C473 C472 1.524 . S
C473 C474 1.397 . S
C473 C478 1.363 . S
C474 H445 0.950 . S
C474 C473 1.397 . S
C474 C475 1.334 . S
C475 H446 0.950 . S
C475 C474 1.334 . S
C475 C476 1.287 . S
C476 C475 1.287 . S
C476 C477 1.524 . S
C476 H479 0.999 . S
C477 H447 0.950 . S
C477 C476 1.524 . S
C477 C478 1.415 . S
C478 H448 0.950 . S
C478 C473 1.363 . S
C478 C477 1.415 . S
H479 C476 0.999 . S
H480 C461 0.904 1_456 S
H481 C499 0.951 . S
H482 C501 0.951 . S
H483 C503 0.950 . S
H484 C504 0.950 . S
H485 C506 0.950 . S
H486 C509 0.950 . S
H487 C510 0.950 . S
H488 C512 0.950 . S
H489 C513 0.950 . S
H490 C514 0.951 . S
H491 C516 0.951 . S
H492 C518 0.950 . S
H493 C519 0.950 . S
H494 C521 0.950 1_655 S
H495 C524 0.950 . S
H496 C525 0.950 . S
H497 C527 0.950 . S
H498 C528 0.950 . S
C499 H481 0.951 . S
C499 C500 1.366 . S
C499 C501 1.388 . S
C500 C499 1.366 . S
C500 C504 1.385 . S
C501 H482 0.951 . S
C501 C499 1.388 . S
C501 C502 1.366 . S
C502 C501 1.366 . S
C502 C503 1.414 . S
C502 C505 1.499 . S
C503 H483 0.950 . S
C503 C502 1.414 . S
C503 C504 1.374 . S
C504 H484 0.950 . S
C504 C500 1.385 . S
C504 C503 1.374 . S
C505 C502 1.499 . S
C505 C506 1.373 . S
C505 C507 1.382 1_455 S
C506 H485 0.950 . S
C506 C505 1.373 . S
C506 C522 1.377 . S
C507 C505 1.382 1_655 S
C507 C508 1.540 . S
C507 C521 1.369 1_655 S
C508 C507 1.540 . S
C508 C509 1.397 . S
C508 C513 1.363 . S
C509 H486 0.950 . S
C509 C508 1.397 . S
C509 C510 1.334 . S
C510 H487 0.950 . S
C510 C509 1.334 . S
C510 C511 1.287 . S
C511 C510 1.287 . S
C511 C512 1.524 . S
C511 H530 0.913 . S
C512 H488 0.950 . S
C512 C511 1.524 . S
C512 C513 1.415 . S
C513 H489 0.950 . S
C513 C508 1.363 . S
C513 C512 1.415 . S
C514 H490 0.951 . S
C514 C515 1.366 . S
C514 C516 1.388 . S
C515 C514 1.366 . S
C515 C519 1.385 . S
C516 H491 0.951 . S
C516 C514 1.388 . S
C516 C517 1.366 . S
C517 C516 1.366 . S
C517 C518 1.414 . S
C517 C520 1.499 . S
C518 H492 0.950 . S
C518 C517 1.414 . S
C518 C519 1.374 . S
C519 H493 0.950 . S
C519 C515 1.385 . S
C519 C518 1.374 . S
C520 C517 1.499 . S
C520 C521 1.373 . S
C520 C522 1.389 . S
C521 H494 0.950 1_455 S
C521 C507 1.369 1_455 S
C521 C520 1.373 . S
C522 C506 1.377 . S
C522 C520 1.389 . S
C522 C523 1.524 . S
C523 C522 1.524 . S
C523 C524 1.397 . S
C523 C528 1.363 . S
C524 H495 0.950 . S
C524 C523 1.397 . S
C524 C525 1.334 . S
C525 H496 0.950 . S
C525 C524 1.334 . S
C525 C526 1.287 . S
C526 C525 1.287 . S
C526 C527 1.524 . S
C526 H529 0.999 . S
C527 H497 0.950 . S
C527 C526 1.524 . S
C527 C528 1.415 . S
C528 H498 0.950 . S
C528 C523 1.363 . S
C528 C527 1.415 . S
H529 C526 0.999 . S
H530 C511 0.913 . S
H531 C549 0.951 . S
H532 C551 0.951 . S
H533 C553 0.950 . S
H534 C554 0.950 . S
H535 C556 0.950 . S
H536 C559 0.950 . S
H537 C560 0.950 . S
H538 C562 0.950 . S
H539 C563 0.950 . S
H540 C564 0.951 . S
H541 C566 0.951 . S
H542 C568 0.950 . S
H543 C569 0.950 . S
H544 C571 0.950 . S
H545 C574 0.950 . S
H546 C575 0.950 . S
H547 C577 0.950 . S
H548 C578 0.950 . S
C549 H531 0.951 . S
C549 C550 1.366 . S
C549 C551 1.388 . S
C550 C549 1.366 . S
C550 C554 1.385 . S
C551 H532 0.951 . S
C551 C549 1.388 . S
C551 C552 1.366 . S
C552 C551 1.366 . S
C552 C553 1.414 . S
C552 C555 1.499 . S
C553 H533 0.950 . S
C553 C552 1.414 . S
C553 C554 1.374 . S
C554 H534 0.950 . S
C554 C550 1.385 . S
C554 C553 1.374 . S
C555 C552 1.499 . S
C555 C556 1.373 . S
C555 C557 1.389 . S
C556 H535 0.950 . S
C556 C555 1.373 . S
C556 C572 1.377 . S
C557 C555 1.389 . S
C557 C558 1.524 1_545 S
C557 C571 1.377 . S
C558 C557 1.524 1_565 S
C558 C559 1.397 . S
C558 C563 1.363 . S
C559 H536 0.950 . S
C559 C558 1.397 . S
C559 C560 1.334 . S
C560 H537 0.950 . S
C560 C559 1.334 . S
C560 C561 1.287 . S
C561 C560 1.287 . S
C561 C562 1.524 . S
C561 H580 0.913 . S
C562 H538 0.950 . S
C562 C561 1.524 . S
C562 C563 1.415 . S
C563 H539 0.950 . S
C563 C558 1.363 . S
C563 C562 1.415 . S
C564 H540 0.951 . S
C564 C565 1.366 . S
C564 C566 1.388 . S
C565 C564 1.366 . S
C565 C569 1.385 . S
C566 H541 0.951 . S
C566 C564 1.388 . S
C566 C567 1.366 . S
C567 C566 1.366 . S
C567 C568 1.414 . S
C567 C570 1.499 . S
C568 H542 0.950 . S
C568 C567 1.414 . S
C568 C569 1.374 . S
C569 H543 0.950 . S
C569 C565 1.385 . S
C569 C568 1.374 . S
C570 C567 1.499 . S
C570 C571 1.373 . S
C570 C572 1.389 . S
C571 H544 0.950 . S
C571 C557 1.377 . S
C571 C570 1.373 . S
C572 C556 1.377 . S
C572 C570 1.389 . S
C572 C573 1.524 . S
C573 C572 1.524 . S
C573 C574 1.397 . S
C573 C578 1.363 . S
C574 H545 0.950 . S
C574 C573 1.397 . S
C574 C575 1.334 . S
C575 H546 0.950 . S
C575 C574 1.334 . S
C575 C576 1.287 . S
C576 C575 1.287 . S
C576 C577 1.524 . S
C576 H579 0.999 . S
C577 H547 0.950 . S
C577 C576 1.524 . S
C577 C578 1.415 . S
C578 H548 0.950 . S
C578 C573 1.363 . S
C578 C577 1.415 . S
H579 C576 0.999 . S
H580 C561 0.913 . S
H581 C599 0.951 . S
H582 C601 0.951 . S
H583 C603 0.950 . S
H584 C604 0.950 . S
H585 C606 0.950 . S
H586 C609 0.950 . S
H587 C610 0.965 . S
H588 C612 0.950 . S
H589 C613 0.950 . S
H590 C614 0.951 . S
H591 C616 0.960 . S
H592 C618 0.950 . S
H593 C619 0.950 . S
H594 C621 0.918 1_556 S
H595 C624 0.950 . S
H596 C625 0.950 . S
H597 C627 0.950 . S
H598 C628 0.950 . S
C599 H581 0.951 . S
C599 C600 1.366 . S
C599 C601 1.388 . S
C600 C599 1.366 . S
C600 C604 1.385 . S
C601 H582 0.951 . S
C601 C599 1.388 . S
C601 C602 1.366 . S
C602 C601 1.366 . S
C602 C603 1.414 . S
C602 C605 1.499 . S
C603 H583 0.950 . S
C603 C602 1.414 . S
C603 C604 1.374 . S
C604 H584 0.950 . S
C604 C600 1.385 . S
C604 C603 1.374 . S
C605 C602 1.499 . S
C605 C606 1.373 . S
C605 C607 1.389 . S
C606 H585 0.950 . S
C606 C605 1.373 . S
C606 C622 1.377 . S
C607 C605 1.389 . S
C607 C608 1.524 . S
C607 C621 1.399 . S
C608 C607 1.524 . S
C608 C609 1.397 . S
C608 C613 1.363 1_554 S
C609 H586 0.950 . S
C609 C608 1.397 . S
C609 C610 1.357 . S
C610 H587 0.965 . S
C610 C609 1.357 . S
C610 C611 1.252 1_554 S
C611 C610 1.252 1_556 S
C611 C612 1.524 . S
C611 H630 0.913 . S
C612 H588 0.950 . S
C612 C611 1.524 . S
C612 C613 1.415 . S
C613 H589 0.950 . S
C613 C608 1.363 1_556 S
C613 C612 1.415 . S
C614 H590 0.951 . S
C614 C615 1.366 . S
C614 C616 1.388 . S
C615 C614 1.366 . S
C615 C619 1.385 . S
C616 H591 0.960 . S
C616 C614 1.388 . S
C616 C617 1.366 . S
C617 C616 1.366 . S
C617 C618 1.414 . S
C617 C620 1.499 1_556 S
C618 H592 0.950 . S
C618 C617 1.414 . S
C618 C619 1.374 . S
C619 H593 0.950 . S
C619 C615 1.385 . S
C619 C618 1.374 . S
C620 C617 1.499 1_554 S
C620 C621 1.383 . S
C620 C622 1.389 . S
C621 H594 0.918 1_554 S
C621 C607 1.399 . S
C621 C620 1.383 . S
C622 C606 1.377 . S
C622 C620 1.389 . S
C622 C623 1.524 . S
C623 C622 1.524 . S
C623 C624 1.397 . S
C623 C628 1.363 . S
C624 H595 0.950 . S
C624 C623 1.397 . S
C624 C625 1.334 . S
C625 H596 0.950 . S
C625 C624 1.334 . S
C625 C626 1.287 . S
C626 C625 1.287 . S
C626 C627 1.524 . S
C626 H629 0.999 . S
C627 H597 0.950 . S
C627 C626 1.524 . S
C627 C628 1.415 . S
C628 H598 0.950 . S
C628 C623 1.363 . S
C628 C627 1.415 . S
H629 C626 0.999 . S
H630 C611 0.913 . S
H631 C649 0.951 . S
H632 C651 0.951 . S
H633 C653 0.950 . S
H634 C654 0.950 . S
H635 C656 0.950 . S
H636 C659 0.950 . S
H637 C660 0.950 . S
H638 C662 0.950 . S
H639 C663 0.950 . S
H640 C664 0.951 . S
H641 C666 0.951 . S
H642 C668 0.962 . S
H643 C669 0.950 1_655 S
H644 C671 0.950 . S
H645 C674 0.950 . S
H646 C675 0.950 . S
H647 C677 0.950 . S
H648 C678 0.950 . S
C649 H631 0.951 . S
C649 C650 1.366 1_655 S
C649 C651 1.388 . S
C650 C649 1.366 1_455 S
C650 C654 1.385 . S
C651 H632 0.951 . S
C651 C649 1.388 . S
C651 C652 1.366 1_655 S
C652 C651 1.366 1_455 S
C652 C653 1.414 . S
C652 C655 1.499 . S
C653 H633 0.950 . S
C653 C652 1.414 . S
C653 C654 1.374 . S
C654 H634 0.950 . S
C654 C650 1.385 . S
C654 C653 1.374 . S
C655 C652 1.499 . S
C655 C656 1.373 . S
C655 C657 1.389 . S
C656 H635 0.950 . S
C656 C655 1.373 . S
C656 C672 1.377 . S
C657 C655 1.389 . S
C657 C658 1.524 . S
C657 C671 1.377 . S
C658 C657 1.524 . S
C658 C659 1.397 . S
C658 C663 1.363 1_455 S
C659 H636 0.950 . S
C659 C658 1.397 . S
C659 C660 1.334 . S
C660 H637 0.950 . S
C660 C659 1.334 . S
C660 C661 1.287 1_455 S
C661 C660 1.287 1_655 S
C661 C662 1.524 . S
C661 H680 0.913 . S
C662 H638 0.950 . S
C662 C661 1.524 . S
C662 C663 1.415 . S
C663 H639 0.950 . S
C663 C658 1.363 1_655 S
C663 C662 1.415 . S
C664 H640 0.951 . S
C664 C665 1.366 . S
C664 C666 1.388 . S
C665 C664 1.366 . S
C665 C669 1.385 . S
C666 H641 0.951 . S
C666 C664 1.388 . S
C666 C667 1.366 . S
C667 C666 1.366 . S
C667 C668 1.394 1_455 S
C667 C670 1.499 . S
C668 H642 0.962 . S
C668 C667 1.394 1_655 S
C668 C669 1.382 1_655 S
C669 H643 0.950 1_455 S
C669 C665 1.385 . S
C669 C668 1.382 1_455 S
C670 C667 1.499 . S
C670 C671 1.373 . S
C670 C672 1.389 . S
C671 H644 0.950 . S
C671 C657 1.377 . S
C671 C670 1.373 . S
C672 C656 1.377 . S
C672 C670 1.389 . S
C672 C673 1.524 . S
C673 C672 1.524 . S
C673 C674 1.397 . S
C673 C678 1.363 . S
C674 H645 0.950 . S
C674 C673 1.397 . S
C674 C675 1.334 . S
C675 H646 0.950 . S
C675 C674 1.334 . S
C675 C676 1.287 . S
C676 C675 1.287 . S
C676 C677 1.524 . S
C676 H679 0.999 . S
C677 H647 0.950 . S
C677 C676 1.524 . S
C677 C678 1.415 . S
C678 H648 0.950 . S
C678 C673 1.363 . S
C678 C677 1.415 . S
H679 C676 0.999 . S
H680 C661 0.913 . S
C115 C47 1.369 . S
C100 C0 1.380 . S
C150 C25 1.473 . S
C165 C65 1.466 . S
C200 C33 1.499 1_565 S
C215 C78 1.491 . S
C250 C11 1.345 . S
C265 C45 1.334 . S
C315 C56 1.475 . S
C300 C14 1.478 . S
C350 C37 1.489 . S
C365 C69 1.487 . S
C415 C58 1.389 . S
C400 C28 1.396 . S
C450 C9 1.412 1_565 S
C465 C71 1.404 . S
C515 C52 1.509 . S
C500 C19 1.516 . S
C565 C60 1.381 . S
C550 C39 1.393 . S
C615 C73 1.407 . S
C600 C5 1.420 . S
C650 C23 1.536 . S
C665 C43 1.536 . S
