# Generated by pormake.
# Topology hwx, (6,3)-cn, num edge types: 1
# Building blocks:
#     Node 0, Type 0, BuildingBlock: OJICUG_clean_sbu_0, # of connection points: 6
#     Node 1, Type 0, BuildingBlock: OJICUG_clean_sbu_0, # of connection points: 6
#     Node 2, Type 0, BuildingBlock: OJICUG_clean_sbu_0, # of connection points: 6
#     Node 3, Type 0, BuildingBlock: OJICUG_clean_sbu_0, # of connection points: 6
#     Node 4, Type 1, BuildingBlock: WUSLED_clean_sbu_0, # of connection points: 3
#     Node 5, Type 1, BuildingBlock: WUSLED_clean_sbu_0, # of connection points: 3
#     Node 6, Type 1, BuildingBlock: WUSLED_clean_sbu_0, # of connection points: 3
#     Node 7, Type 1, BuildingBlock: WUSLED_clean_sbu_0, # of connection points: 3
#     Node 8, Type 1, BuildingBlock: WUSLED_clean_sbu_0, # of connection points: 3
#     Node 9, Type 1, BuildingBlock: WUSLED_clean_sbu_0, # of connection points: 3
#     Node 10, Type 1, BuildingBlock: WUSLED_clean_sbu_0, # of connection points: 3
#     Node 11, Type 1, BuildingBlock: WUSLED_clean_sbu_0, # of connection points: 3
#     Edge 12, Type (0, 1), BuildingBlock: OJICUG_clean_linker_0, # of connection points: 2
#     Edge 13, Type (0, 1), BuildingBlock: OJICUG_clean_linker_0, # of connection points: 2
#     Edge 14, Type (0, 1), BuildingBlock: OJICUG_clean_linker_0, # of connection points: 2
#     Edge 15, Type (0, 1), BuildingBlock: OJICUG_clean_linker_0, # of connection points: 2
#     Edge 16, Type (0, 1), BuildingBlock: OJICUG_clean_linker_0, # of connection points: 2
#     Edge 17, Type (0, 1), BuildingBlock: OJICUG_clean_linker_0, # of connection points: 2
#     Edge 18, Type (0, 1), BuildingBlock: OJICUG_clean_linker_0, # of connection points: 2
#     Edge 19, Type (0, 1), BuildingBlock: OJICUG_clean_linker_0, # of connection points: 2
#     Edge 20, Type (0, 1), BuildingBlock: OJICUG_clean_linker_0, # of connection points: 2
#     Edge 21, Type (0, 1), BuildingBlock: OJICUG_clean_linker_0, # of connection points: 2
#     Edge 22, Type (0, 1), BuildingBlock: OJICUG_clean_linker_0, # of connection points: 2
#     Edge 23, Type (0, 1), BuildingBlock: OJICUG_clean_linker_0, # of connection points: 2
#     Edge 24, Type (0, 1), BuildingBlock: OJICUG_clean_linker_0, # of connection points: 2
#     Edge 25, Type (0, 1), BuildingBlock: OJICUG_clean_linker_0, # of connection points: 2
#     Edge 26, Type (0, 1), BuildingBlock: OJICUG_clean_linker_0, # of connection points: 2
#     Edge 27, Type (0, 1), BuildingBlock: OJICUG_clean_linker_0, # of connection points: 2
#     Edge 28, Type (0, 1), BuildingBlock: OJICUG_clean_linker_0, # of connection points: 2
#     Edge 29, Type (0, 1), BuildingBlock: OJICUG_clean_linker_0, # of connection points: 2
#     Edge 30, Type (0, 1), BuildingBlock: OJICUG_clean_linker_0, # of connection points: 2
#     Edge 31, Type (0, 1), BuildingBlock: OJICUG_clean_linker_0, # of connection points: 2
#     Edge 32, Type (0, 1), BuildingBlock: OJICUG_clean_linker_0, # of connection points: 2
#     Edge 33, Type (0, 1), BuildingBlock: OJICUG_clean_linker_0, # of connection points: 2
#     Edge 34, Type (0, 1), BuildingBlock: OJICUG_clean_linker_0, # of connection points: 2
#     Edge 35, Type (0, 1), BuildingBlock: OJICUG_clean_linker_0, # of connection points: 2
# Relax obj value: 0.072
# Max RMSD: 0.099
# Mean RMSD: 0.091
data_MOF--net-hwx--node1-OJICUG_clean_sbu_0--node2-WUSLED_clean_sbu_0--edge1-OJICUG_clean_linker_0
_symmetry_space_group_name_H-M    P1
_symmetry_Int_Tables_number       1
_symmetry_cell_setting            triclinic
loop_
_symmetry_equiv_pos_as_xyz
'x, y, z'
_cell_length_a     51.633674
_cell_length_b     51.592759
_cell_length_c     23.246863
_cell_angle_alpha  90.35251
_cell_angle_beta   90.322949
_cell_angle_gamma 90.038871
loop_
_atom_site_label
_atom_site_type_symbol
_atom_site_fract_x
_atom_site_fract_y
_atom_site_fract_z
_atom_type_partial_charge
Sc0 Sc 0.23951 0.24309 0.08552 0.0
Sc1 Sc 0.19916 0.20406 0.9974 0.0
Sc2 Sc 0.24414 0.24684 0.93461 0.0
O3 O 0.22759 0.23132 0.00584 0.0
C4 C 0.23924 0.29669 0.01658 0.0
C5 C 0.17826 0.23768 0.10356 0.0
C6 C 0.18471 0.24281 0.89532 0.0
C7 C 0.23203 0.18207 0.10384 0.0
C8 C 0.29334 0.24113 0.01767 0.0
C9 C 0.2379 0.1874 0.89678 0.0
O10 O 0.23804 0.28369 0.0629 0.0
O11 O 0.1748 0.22248 0.06089 0.0
O12 O 0.20736 0.25241 0.89196 0.0
O13 O 0.24219 0.20383 0.11693 0.0
O14 O 0.28298 0.24288 0.9681 0.0
O15 O 0.21988 0.18246 0.93224 0.0
O16 O 0.28012 0.24097 0.06371 0.0
O17 O 0.21626 0.17926 0.06195 0.0
O18 O 0.24866 0.20953 0.89364 0.0
O19 O 0.20044 0.24658 0.11745 0.0
O20 O 0.24144 0.28603 0.96733 0.0
O21 O 0.17879 0.22552 0.93176 0.0
Sc22 Sc 0.26961 0.74712 0.43127 0.0
Sc23 Sc 0.30994 0.70364 0.50678 0.0
Sc24 Sc 0.26524 0.74281 0.58177 0.0
O25 O 0.28162 0.73116 0.50661 0.0
C26 C 0.27004 0.79665 0.51329 0.0
C27 C 0.33092 0.74182 0.41062 0.0
C28 C 0.3246 0.73779 0.6181 0.0
C29 C 0.27613 0.68782 0.3956 0.0
C30 C 0.21588 0.74144 0.49961 0.0
C31 C 0.27204 0.68159 0.60251 0.0
O32 O 0.27286 0.7862 0.46402 0.0
O33 O 0.3346 0.72568 0.45094 0.0
O34 O 0.30233 0.74808 0.62247 0.0
O35 O 0.2651 0.70975 0.39121 0.0
O36 O 0.22635 0.73883 0.54887 0.0
O37 O 0.28864 0.67842 0.56287 0.0
O38 O 0.22903 0.7454 0.45431 0.0
O39 O 0.29329 0.683 0.43367 0.0
O40 O 0.26237 0.70366 0.61466 0.0
O41 O 0.30858 0.75062 0.39786 0.0
O42 O 0.26629 0.78344 0.55863 0.0
O43 O 0.33003 0.7209 0.57983 0.0
Sc44 Sc 0.76779 0.77323 0.92558 0.0
Sc45 Sc 0.80719 0.81348 0.01292 0.0
Sc46 Sc 0.76408 0.76913 0.07666 0.0
O47 O 0.7797 0.78529 0.00506 0.0
C48 C 0.71429 0.77363 0.99466 0.0
C49 C 0.77341 0.83442 0.90705 0.0
C50 C 0.76844 0.8287 0.11457 0.0
C51 C 0.82881 0.78033 0.90667 0.0
C52 C 0.76995 0.71962 0.99437 0.0
C53 C 0.82348 0.77522 0.1146 0.0
O54 O 0.72728 0.77464 0.94834 0.0
O55 O 0.78905 0.83776 0.94896 0.0
O56 O 0.75853 0.80618 0.11819 0.0
O57 O 0.80693 0.77052 0.89341 0.0
O58 O 0.76812 0.73017 0.04378 0.0
O59 O 0.8286 0.79277 0.07814 0.0
O60 O 0.7701 0.73266 0.94806 0.0
O61 O 0.83183 0.79591 0.94882 0.0
O62 O 0.80122 0.7648 0.11838 0.0
O63 O 0.76408 0.81232 0.89383 0.0
O64 O 0.72494 0.77166 0.04392 0.0
O65 O 0.78593 0.83427 0.0783 0.0
Sc66 Sc 0.73812 0.27082 0.58254 0.0
Sc67 Sc 0.69768 0.31427 0.50706 0.0
Sc68 Sc 0.74214 0.27482 0.43193 0.0
O69 O 0.72596 0.28666 0.50717 0.0
C70 C 0.79172 0.27602 0.51373 0.0
C71 C 0.7318 0.33024 0.61755 0.0
C72 C 0.73568 0.336 0.411 0.0
C73 C 0.67687 0.2762 0.60377 0.0
C74 C 0.73723 0.22118 0.50074 0.0
C75 C 0.68266 0.28005 0.39621 0.0
O76 O 0.77865 0.27269 0.55937 0.0
O77 O 0.71468 0.33513 0.57944 0.0
O78 O 0.74547 0.31395 0.3993 0.0
O79 O 0.69918 0.2672 0.61602 0.0
O80 O 0.74051 0.23428 0.45509 0.0
O81 O 0.67722 0.29682 0.43474 0.0
O82 O 0.73507 0.2317 0.55011 0.0
O83 O 0.67318 0.29251 0.56378 0.0
O84 O 0.705 0.26998 0.39134 0.0
O85 O 0.74257 0.3082 0.62231 0.0
O86 O 0.78118 0.27816 0.46444 0.0
O87 O 0.71886 0.33921 0.45015 0.0
C88 C 0.24886 0.55428 0.83511 0.0
C89 C 0.2505 0.58011 0.85402 0.0
C90 C 0.25242 0.59506 0.75488 0.0
C91 C 0.25226 0.60028 0.81438 0.0
C92 C 0.25048 0.56909 0.73614 0.0
C93 C 0.24872 0.54889 0.77597 0.0
U94 U 0.24888 0.5344 0.99014 0.0
O95 O 0.22656 0.5054 0.03792 0.0
O96 O 0.26904 0.50321 0.03672 0.0
C97 C 0.2473 0.49209 0.05239 0.0
C98 C 0.24785 0.53316 0.87733 0.0
C99 C 0.24589 0.46376 0.04414 0.0
C100 C 0.23207 0.42549 0.99045 0.0
C101 C 0.23379 0.45253 0.99582 0.0
C102 C 0.25488 0.4207 0.08105 0.0
C103 C 0.24246 0.40922 0.03324 0.0
C104 C 0.25652 0.44765 0.08642 0.0
C105 C 0.253 0.59281 0.09617 0.0
C106 C 0.26374 0.59296 0.19821 0.0
C107 C 0.24816 0.63214 0.1527 0.0
C108 C 0.24612 0.61897 0.10033 0.0
C109 C 0.2571 0.6194 0.20234 0.0
C110 C 0.26165 0.57973 0.14545 0.0
C111 C 0.25183 0.5803 0.03923 0.0
O112 O 0.26917 0.53005 0.90766 0.0
O113 O 0.22682 0.53258 0.90889 0.0
O114 O 0.22977 0.56919 0.02515 0.0
O115 O 0.27224 0.56682 0.02367 0.0
H116 H 0.25075 0.58464 0.89961 0.0
H117 H 0.25416 0.61994 0.83048 0.0
H118 H 0.25028 0.56438 0.69068 0.0
H119 H 0.24742 0.52906 0.76061 0.0
H120 H 0.22219 0.41736 0.95328 0.0
H121 H 0.22548 0.46463 0.96257 0.0
H122 H 0.26358 0.40887 0.11426 0.0
H123 H 0.26605 0.45595 0.12389 0.0
H124 H 0.27052 0.58254 0.23566 0.0
H125 H 0.24339 0.65258 0.15382 0.0
H126 H 0.23956 0.62941 0.06265 0.0
H127 H 0.26703 0.55946 0.14298 0.0
C128 C 0.95749 0.75385 0.67748 0.0
C129 C 0.95459 0.77737 0.70757 0.0
C130 C 0.91672 0.76057 0.75744 0.0
C131 C 0.93441 0.78073 0.74687 0.0
C132 C 0.92008 0.73679 0.72847 0.0
C133 C 0.94019 0.73346 0.68901 0.0
U134 U 0.97807 0.74986 0.52076 0.0
O135 O 0.01043 0.76768 0.47446 0.0
O136 O 0.00669 0.72529 0.47634 0.0
C137 C 0.02086 0.74522 0.46092 0.0
C138 C 0.97814 0.7511 0.6336 0.0
C139 C 0.049 0.74284 0.47045 0.0
C140 C 0.08826 0.75241 0.52488 0.0
C141 C 0.06126 0.75364 0.51903 0.0
C142 C 0.09091 0.729 0.43448 0.0
C143 C 0.10346 0.74032 0.48229 0.0
C144 C 0.06398 0.7303 0.42865 0.0
C145 C 0.92264 0.75484 0.40775 0.0
C146 C 0.90631 0.78006 0.32707 0.0
C147 C 0.89955 0.73366 0.32872 0.0
C148 C 0.91278 0.73229 0.3813 0.0
C149 C 0.89569 0.75764 0.30153 0.0
C150 C 0.91954 0.77869 0.37959 0.0
C151 C 0.93336 0.75391 0.46706 0.0
O152 O 0.97828 0.7294 0.60354 0.0
O153 O 0.98246 0.77168 0.60194 0.0
O154 O 0.94298 0.73166 0.48441 0.0
O155 O 0.94708 0.774 0.48439 0.0
H156 H 0.96768 0.79339 0.69998 0.0
H157 H 0.93232 0.7994 0.76786 0.0
H158 H 0.90715 0.72068 0.73628 0.0
H159 H 0.94196 0.71495 0.66717 0.0
H160 H 0.09727 0.76153 0.56201 0.0
H161 H 0.05003 0.7634 0.55189 0.0
H162 H 0.10189 0.71913 0.40141 0.0
H163 H 0.05485 0.72175 0.39097 0.0
H164 H 0.90336 0.79892 0.30789 0.0
H165 H 0.89184 0.71598 0.30996 0.0
H166 H 0.91457 0.71363 0.40206 0.0
H167 H 0.9265 0.79653 0.39906 0.0
C168 C 0.76057 0.46288 0.17843 0.0
C169 C 0.75848 0.43708 0.15959 0.0
C170 C 0.75612 0.42228 0.25875 0.0
C171 C 0.75628 0.41699 0.19929 0.0
C172 C 0.75839 0.44823 0.27742 0.0
C173 C 0.76061 0.46836 0.23753 0.0
U174 U 0.76194 0.48226 0.02332 0.0
O175 O 0.7435 0.51385 0.97524 0.0
O176 O 0.7859 0.51029 0.97606 0.0
C177 C 0.76577 0.52428 0.96077 0.0
C178 C 0.76243 0.48388 0.13609 0.0
C179 C 0.76821 0.55251 0.96955 0.0
C180 C 0.7572 0.59235 0.02027 0.0
C181 C 0.75579 0.56533 0.01514 0.0
C182 C 0.7841 0.59399 0.93536 0.0
C183 C 0.77118 0.60707 0.98007 0.0
C184 C 0.78257 0.56702 0.93014 0.0
C185 C 0.75633 0.42416 0.91745 0.0
C186 C 0.74542 0.42457 0.81552 0.0
C187 C 0.76084 0.38508 0.85998 0.0
C188 C 0.76305 0.39798 0.91264 0.0
C189 C 0.75189 0.39813 0.81076 0.0
C190 C 0.74769 0.43754 0.86854 0.0
C191 C 0.7576 0.43641 0.97462 0.0
O192 O 0.78363 0.48364 0.10505 0.0
O193 O 0.74137 0.48761 0.10519 0.0
O194 O 0.73761 0.45062 0.98965 0.0
O195 O 0.77998 0.44667 0.98944 0.0
H196 H 0.75832 0.4325 0.11403 0.0
H197 H 0.75413 0.39735 0.18328 0.0
H198 H 0.75857 0.45297 0.32287 0.0
H199 H 0.76227 0.48818 0.2528 0.0
H200 H 0.74679 0.60174 0.0549 0.0
H201 H 0.74463 0.55451 0.0462 0.0
H202 H 0.79543 0.60458 0.90427 0.0
H203 H 0.7924 0.55748 0.89482 0.0
H204 H 0.73863 0.4352 0.77837 0.0
H205 H 0.76549 0.36462 0.8583 0.0
H206 H 0.7696 0.38733 0.95003 0.0
H207 H 0.74245 0.45783 0.87151 0.0
C208 C 0.04996 0.26469 0.33324 0.0
C209 C 0.06981 0.2833 0.32965 0.0
C210 C 0.09071 0.25855 0.25308 0.0
C211 C 0.08986 0.2803 0.28991 0.0
C212 C 0.07053 0.24024 0.25607 0.0
C213 C 0.05037 0.24335 0.2955 0.0
U214 U 0.02982 0.2677 0.49014 0.0
O215 O 1.00016 0.29033 0.53559 0.0
O216 O 0.99848 0.24778 0.53632 0.0
C217 C 0.98695 0.26961 0.55034 0.0
C218 C 0.02939 0.26658 0.37732 0.0
C219 C 0.95865 0.27047 0.54119 0.0
C220 C 0.92024 0.28703 0.49261 0.0
C221 C 0.94726 0.28562 0.49788 0.0
C222 C 0.91572 0.25774 0.57293 0.0
C223 C 0.90411 0.27326 0.53042 0.0
C224 C 0.94266 0.25644 0.57828 0.0
C225 C 0.08574 0.26503 0.60232 0.0
C226 C 0.09991 0.24049 0.68597 0.0
C227 C 0.11152 0.28575 0.67771 0.0
C228 C 0.09812 0.28706 0.62534 0.0
C229 C 0.11308 0.26229 0.70807 0.0
C230 C 0.08645 0.24182 0.63372 0.0
C231 C 0.07484 0.26572 0.54318 0.0
O232 O 0.02624 0.24578 0.4089 0.0
O233 O 0.02839 0.28824 0.40747 0.0
O234 O 0.06401 0.28755 0.52671 0.0
O235 O 0.06215 0.24505 0.52536 0.0
H236 H 0.0701 0.30003 0.35798 0.0
H237 H 0.10476 0.29506 0.28823 0.0
H238 H 0.07063 0.22307 0.22909 0.0
H239 H 0.03533 0.22872 0.29736 0.0
H240 H 0.91201 0.29932 0.45966 0.0
H241 H 0.9592 0.29662 0.46863 0.0
H242 H 0.904 0.24645 0.60204 0.0
H243 H 0.95105 0.24457 0.61188 0.0
H244 H 0.10099 0.22199 0.70763 0.0
H245 H 0.12116 0.30301 0.69379 0.0
H246 H 0.09814 0.30517 0.60198 0.0
H247 H 0.07741 0.22435 0.61707 0.0
C248 C 0.7468 0.96183 0.67575 0.0
C249 C 0.74861 0.93612 0.65625 0.0
C250 C 0.75237 0.92089 0.75497 0.0
C251 C 0.75138 0.91586 0.69541 0.0
C252 C 0.75026 0.94674 0.7743 0.0
C253 C 0.74751 0.96704 0.73496 0.0
U254 U 0.74431 0.98293 0.52126 0.0
O255 O 0.72178 0.01277 0.47609 0.0
O256 O 0.76431 0.01437 0.47561 0.0
C257 C 0.74254 0.02596 0.46159 0.0
C258 C 0.74498 0.98312 0.6341 0.0
C259 C 0.74178 0.05425 0.47109 0.0
C260 C 0.7256 0.09263 0.52053 0.0
C261 C 0.72681 0.0656 0.51478 0.0
C262 C 0.75472 0.0972 0.43992 0.0
C263 C 0.73939 0.10879 0.48281 0.0
C264 C 0.75583 0.07026 0.43409 0.0
C265 C 0.74723 0.92736 0.40826 0.0
C266 C 0.77198 0.91243 0.32555 0.0
C267 C 0.72614 0.90302 0.33102 0.0
C268 C 0.72489 0.9162 0.3837 0.0
C269 C 0.74981 0.90049 0.30189 0.0
C270 C 0.77072 0.92565 0.37813 0.0
C271 C 0.74645 0.93804 0.4676 0.0
O272 O 0.76582 0.98649 0.60283 0.0
O273 O 0.72346 0.98374 0.60363 0.0
O274 O 0.76707 0.9507 0.48579 0.0
O275 O 0.72461 0.9488 0.48409 0.0
H276 H 0.74824 0.93177 0.61059 0.0
H277 H 0.75336 0.8963 0.67888 0.0
H278 H 0.75068 0.95129 0.81984 0.0
H279 H 0.74612 0.98679 0.75074 0.0
H280 H 0.71345 0.10085 0.55377 0.0
H281 H 0.71582 0.05363 0.54398 0.0
H282 H 0.76602 0.10895 0.41088 0.0
H283 H 0.76757 0.0619 0.40025 0.0
H284 H 0.79062 0.91055 0.30484 0.0
H285 H 0.70864 0.89431 0.31373 0.0
H286 H 0.70655 0.91694 0.40605 0.0
H287 H 0.78841 0.9337 0.39603 0.0
C288 C 0.54915 0.24953 0.83397 0.0
C289 C 0.56875 0.23068 0.82974 0.0
C290 C 0.58967 0.25492 0.75311 0.0
C291 C 0.58869 0.23331 0.78969 0.0
C292 C 0.56973 0.27347 0.75668 0.0
C293 C 0.54968 0.27073 0.79645 0.0
U294 U 0.53056 0.24848 0.9914 0.0
O295 O 0.49925 0.26747 0.03945 0.0
O296 O 0.5023 0.225 0.03914 0.0
C297 C 0.48855 0.24535 0.05419 0.0
C298 C 0.52882 0.248 0.87867 0.0
C299 C 0.46031 0.24318 0.04536 0.0
C300 C 0.42067 0.25422 0.99402 0.0
C301 C 0.44767 0.25556 0.99949 0.0
C302 C 0.4187 0.22753 0.07921 0.0
C303 C 0.4058 0.24036 0.03414 0.0
C304 C 0.44564 0.22899 0.08477 0.0
C305 C 0.58886 0.25358 0.09674 0.0
C306 C 0.58849 0.26424 0.19882 0.0
C307 C 0.6282 0.24995 0.15353 0.0
C308 C 0.6152 0.24751 0.10106 0.0
C309 C 0.6151 0.25848 0.20308 0.0
C310 C 0.57544 0.26176 0.14597 0.0
C311 C 0.5765 0.25227 0.03969 0.0
O312 O 0.5284 0.22679 0.90977 0.0
O313 O 0.52549 0.26919 0.90948 0.0
O314 O 0.56255 0.27244 0.02461 0.0
O315 O 0.5659 0.22999 0.02521 0.0
H316 H 0.56896 0.21402 0.85786 0.0
H317 H 0.6034 0.21839 0.78759 0.0
H318 H 0.56995 0.29056 0.72989 0.0
H319 H 0.53485 0.28554 0.79876 0.0
H320 H 0.41143 0.26457 0.95912 0.0
H321 H 0.45861 0.26658 0.9684 0.0
H322 H 0.40799 0.21629 0.11027 0.0
H323 H 0.45504 0.21918 0.12029 0.0
H324 H 0.57781 0.27069 0.23621 0.0
H325 H 0.64876 0.24584 0.15479 0.0
H326 H 0.62589 0.24134 0.0634 0.0
H327 H 0.55503 0.26651 0.14337 0.0
C328 C 0.25552 0.0543 0.33639 0.0
C329 C 0.25382 0.08006 0.3557 0.0
C330 C 0.24994 0.09518 0.2569 0.0
C331 C 0.25104 0.10027 0.31643 0.0
C332 C 0.25166 0.06927 0.23776 0.0
C333 C 0.25446 0.04901 0.27723 0.0
U334 U 0.26144 0.03435 0.49093 0.0
O335 O 0.244 1.0027 0.54038 0.0
O336 O 0.28633 1.0058 0.53461 0.0
C337 C 0.26651 0.99203 0.5523 0.0
C338 C 0.25836 0.03319 0.37826 0.0
C339 C 0.26834 0.96378 0.54325 0.0
C340 C 0.25859 0.92455 0.48864 0.0
C341 C 0.25759 0.9516 0.49451 0.0
C342 C 0.28159 0.9217 0.57946 0.0
C343 C 0.2704 0.90923 0.53136 0.0
C344 C 0.28052 0.94866 0.5853 0.0
C345 C 0.25991 0.09249 0.59795 0.0
C346 C 0.25176 0.09238 0.70091 0.0
C347 C 0.26543 0.1319 0.65417 0.0
C348 C 0.26648 0.11877 0.60161 0.0
C349 C 0.25782 0.11899 0.70449 0.0
C350 C 0.25282 0.07921 0.64799 0.0
C351 C 0.25937 0.08013 0.54079 0.0
O352 O 0.28049 0.03302 0.40649 0.0
O353 O 0.23826 0.02967 0.41179 0.0
O354 O 0.23873 0.06624 0.52817 0.0
O355 O 0.28108 0.06952 0.52327 0.0
H356 H 0.25452 0.08451 0.4013 0.0
H357 H 0.24933 0.11988 0.33283 0.0
H358 H 0.25111 0.06467 0.19226 0.0
H359 H 0.2558 0.02924 0.26157 0.0
H360 H 0.24957 0.91563 0.4513 0.0
H361 H 0.24812 0.96294 0.46145 0.0
H362 H 0.29125 0.91062 0.61266 0.0
H363 H 0.28905 0.95772 0.62309 0.0
H364 H 0.24603 0.0818 0.73886 0.0
H365 H 0.26974 0.15244 0.65487 0.0
H366 H 0.27185 0.12936 0.56335 0.0
H367 H 0.24772 0.05885 0.64595 0.0
C368 C 0.45899 0.76632 0.18039 0.0
C369 C 0.43924 0.78507 0.18277 0.0
C370 C 0.41839 0.76208 0.26141 0.0
C371 C 0.41927 0.78302 0.22294 0.0
C372 C 0.43849 0.74364 0.25963 0.0
C373 C 0.45858 0.74582 0.21977 0.0
U374 U 0.47718 0.76612 0.02278 0.0
O375 O 0.5061 0.78792 0.97368 0.0
O376 O 0.50769 0.74538 0.97522 0.0
C377 C 0.51904 0.76695 0.95912 0.0
C378 C 0.47925 0.76703 0.13547 0.0
C379 C 0.54736 0.76801 0.96715 0.0
C380 C 0.58574 0.78124 0.02102 0.0
C381 C 0.55873 0.77979 0.0157 0.0
C382 C 0.59027 0.75873 0.9299 0.0
C383 C 0.60188 0.77085 0.97796 0.0
C384 C 0.56332 0.75739 0.92457 0.0
C385 C 0.41849 0.76267 0.91829 0.0
C386 C 0.41873 0.75259 0.81594 0.0
C387 C 0.37905 0.76651 0.86189 0.0
C388 C 0.39213 0.76868 0.91434 0.0
C389 C 0.3921 0.75832 0.81201 0.0
C390 C 0.43186 0.7548 0.86876 0.0
C391 C 0.43098 0.76383 0.97519 0.0
O392 O 0.48173 0.74561 0.10505 0.0
O393 O 0.48032 0.78809 0.10395 0.0
O394 O 0.44249 0.78576 0.98887 0.0
O395 O 0.44418 0.74323 0.99068 0.0
H396 H 0.43892 0.80115 0.15306 0.0
H397 H 0.40443 0.79784 0.22358 0.0
H398 H 0.43836 0.72703 0.28785 0.0
H399 H 0.4735 0.73107 0.21879 0.0
H400 H 0.59397 0.7909 0.05836 0.0
H401 H 0.54673 0.78808 0.04918 0.0
H402 H 0.602 0.75006 0.89647 0.0
H403 H 0.55492 0.74809 0.88693 0.0
H404 H 0.42939 0.7464 0.7783 0.0
H405 H 0.35848 0.77058 0.86089 0.0
H406 H 0.38148 0.77464 0.95223 0.0
H407 H 0.45228 0.7501 0.87109 0.0
C408 C 0.13032 0.23812 0.12259 0.0
C409 C 0.15568 0.24441 0.14017 0.0
H410 H 0.08999 0.2382 0.14338 0.0
C411 C 0.15935 0.2563 0.19422 0.0
H412 H 0.12671 0.22912 0.08109 0.0
C413 C 0.1383 0.26116 0.23034 0.0
C414 C 0.11296 0.25449 0.21323 0.0
H415 H 0.17859 0.26129 0.20943 0.0
H416 H 0.14207 0.2695 0.27241 0.0
C417 C 0.10923 0.24318 0.15854 0.0
C418 C 0.24808 0.66153 0.6852 0.0
C419 C 0.26502 0.65885 0.63835 0.0
H420 H 0.23047 0.64352 0.75796 0.0
C421 C 0.27646 0.63449 0.6282 0.0
H422 H 0.23878 0.67991 0.69428 0.0
C423 C 0.27182 0.61367 0.66502 0.0
C424 C 0.25559 0.6166 0.71298 0.0
H425 H 0.28962 0.63161 0.59261 0.0
H426 H 0.28172 0.59552 0.65697 0.0
C427 C 0.24343 0.64068 0.72201 0.0
C428 C 0.86746 0.78131 0.15991 0.0
C429 C 0.84355 0.76821 0.15787 0.0
H430 H 0.90286 0.78796 0.20622 0.0
C431 C 0.83814 0.74985 0.20068 0.0
H432 H 0.8724 0.79547 0.12757 0.0
C433 C 0.85556 0.74568 0.2459 0.0
C434 C 0.87887 0.75972 0.24951 0.0
H435 H 0.81998 0.73932 0.20056 0.0
H436 H 0.85014 0.7323 0.27949 0.0
C437 C 0.88489 0.77713 0.20523 0.0
C438 C 0.72128 0.37048 0.67447 0.0
C439 C 0.73855 0.35029 0.66103 0.0
H440 H 0.71177 0.40132 0.73286 0.0
C441 C 0.76157 0.34801 0.69317 0.0
H442 H 0.70337 0.37274 0.65054 0.0
C443 C 0.7665 0.36451 0.73971 0.0
C444 C 0.74844 0.38356 0.75578 0.0
H445 H 0.77551 0.33296 0.68337 0.0
H446 H 0.7842 0.36183 0.76421 0.0
C447 C 0.72613 0.38691 0.72156 0.0
C448 C 0.6421 0.28954 0.33961 0.0
C449 C 0.66285 0.27288 0.35251 0.0
H450 H 0.61085 0.29825 0.28178 0.0
C451 C 0.66585 0.25008 0.3198 0.0
H452 H 0.63927 0.30726 0.36398 0.0
C453 C 0.64944 0.24477 0.27333 0.0
C454 C 0.62975 0.26225 0.25787 0.0
H455 H 0.68136 0.23659 0.32917 0.0
H456 H 0.65264 0.22725 0.24848 0.0
C457 C 0.62576 0.28432 0.29259 0.0
C458 C 0.22865 0.14624 0.84187 0.0
C459 C 0.24513 0.16738 0.85359 0.0
H460 H 0.21951 0.11458 0.78531 0.0
C461 C 0.26739 0.17056 0.81979 0.0
H462 H 0.21131 0.14321 0.86697 0.0
C463 C 0.27225 0.15395 0.7734 0.0
C464 C 0.25486 0.13387 0.75922 0.0
H465 H 0.28071 0.1864 0.82806 0.0
H466 H 0.2893 0.15733 0.74759 0.0
C467 C 0.23341 0.12973 0.79509 0.0
C468 C 0.37885 0.74362 0.39279 0.0
C469 C 0.35344 0.74928 0.37474 0.0
H470 H 0.41919 0.74383 0.3723 0.0
C471 C 0.34972 0.76059 0.32043 0.0
H472 H 0.38249 0.73511 0.43455 0.0
C473 C 0.37078 0.76519 0.28424 0.0
C474 C 0.39616 0.75886 0.30161 0.0
H475 H 0.33042 0.76506 0.30491 0.0
H476 H 0.36699 0.77289 0.24181 0.0
C477 C 0.39993 0.74845 0.35685 0.0
C478 C 0.74932 0.8543 0.82397 0.0
C479 C 0.76664 0.85705 0.87056 0.0
H480 H 0.73088 0.87228 0.75184 0.0
C481 C 0.7782 0.8814 0.88045 0.0
H482 H 0.73989 0.83594 0.81515 0.0
C483 C 0.77314 0.90223 0.84379 0.0
C484 C 0.75637 0.89926 0.79631 0.0
H485 H 0.79165 0.88429 0.91585 0.0
H486 H 0.78303 0.92043 0.85168 0.0
C487 C 0.74425 0.87514 0.78738 0.0
C488 C 0.8763 0.78396 0.88405 0.0
C489 C 0.8516 0.77411 0.87018 0.0
H490 H 0.91617 0.78708 0.86027 0.0
C491 C 0.84875 0.75901 0.81992 0.0
H492 H 0.87932 0.79555 0.92251 0.0
C493 C 0.8699 0.75435 0.78392 0.0
C494 C 0.89449 0.76458 0.79725 0.0
H495 H 0.83006 0.75114 0.80765 0.0
H496 H 0.86676 0.74327 0.74479 0.0
C497 C 0.89746 0.77924 0.8481 0.0
C498 C 0.75996 0.3559 0.32866 0.0
C499 C 0.74287 0.35868 0.3752 0.0
H500 H 0.77787 0.37378 0.25613 0.0
C501 C 0.73149 0.38309 0.38512 0.0
H502 H 0.76921 0.33748 0.31978 0.0
C503 C 0.73634 0.40387 0.34833 0.0
C504 C 0.75271 0.40082 0.30066 0.0
H505 H 0.71823 0.38604 0.4205 0.0
H506 H 0.72651 0.42208 0.35615 0.0
C507 C 0.76481 0.37669 0.29187 0.0
C508 C 0.17178 0.26725 0.8066 0.0
C509 C 0.16507 0.25048 0.85163 0.0
H510 H 0.16091 0.28385 0.72603 0.0
C511 C 0.14011 0.23949 0.85162 0.0
H512 H 0.19079 0.2761 0.80504 0.0
C513 C 0.12281 0.24415 0.8063 0.0
C514 C 0.13004 0.25989 0.75986 0.0
H515 H 0.13415 0.22664 0.88576 0.0
H516 H 0.10394 0.23499 0.8071 0.0
C517 C 0.15452 0.27184 0.76128 0.0
C518 C 0.24688 0.67002 0.31885 0.0
C519 C 0.26967 0.66778 0.35177 0.0
H520 H 0.22463 0.65601 0.24737 0.0
C521 C 0.28702 0.64756 0.33899 0.0
H522 H 0.23288 0.68509 0.32807 0.0
C523 C 0.28243 0.63101 0.29197 0.0
C524 C 0.26031 0.63425 0.25708 0.0
H525 H 0.30477 0.64531 0.3635 0.0
H526 H 0.29684 0.61655 0.28131 0.0
C527 C 0.2422 0.65339 0.27236 0.0
C528 C 0.34124 0.7673 0.69567 0.0
C529 C 0.34433 0.74476 0.66218 0.0
H530 H 0.35437 0.78968 0.76778 0.0
C531 C 0.36514 0.72808 0.67457 0.0
H532 H 0.32569 0.7808 0.68676 0.0
C533 C 0.38146 0.73303 0.72175 0.0
C534 C 0.3774 0.75485 0.75719 0.0
H535 H 0.36805 0.71053 0.64961 0.0
H536 H 0.39642 0.71908 0.73207 0.0
C537 C 0.35764 0.77235 0.74234 0.0
C538 C 0.77288 0.87311 0.15891 0.0
C539 C 0.76095 0.84857 0.15794 0.0
H540 H 0.77837 0.90894 0.2044 0.0
C541 C 0.74345 0.84239 0.20195 0.0
H542 H 0.78634 0.87866 0.12559 0.0
C543 C 0.73906 0.85969 0.24732 0.0
C544 C 0.75198 0.88368 0.24982 0.0
H545 H 0.73384 0.82373 0.20272 0.0
H546 H 0.72645 0.85369 0.28184 0.0
C547 C 0.76845 0.89045 0.20432 0.0
C548 C 0.62899 0.27487 0.62251 0.0
C549 C 0.6544 0.26868 0.63974 0.0
H550 H 0.58872 0.27482 0.64369 0.0
C551 C 0.65818 0.25668 0.69328 0.0
H552 H 0.6253 0.28393 0.58137 0.0
C553 C 0.63719 0.25182 0.7295 0.0
C554 C 0.61182 0.25861 0.71293 0.0
H555 H 0.67747 0.25179 0.70817 0.0
H556 H 0.64103 0.24351 0.77133 0.0
C557 C 0.60799 0.2698 0.65851 0.0
C558 C 0.25518 0.16153 0.18743 0.0
C559 C 0.23794 0.15927 0.14058 0.0
H560 H 0.27281 0.14312 0.25998 0.0
C561 C 0.22561 0.13528 0.13076 0.0
H562 H 0.26518 0.17959 0.19624 0.0
C563 C 0.22989 0.11436 0.1677 0.0
C564 C 0.24659 0.11687 0.2154 0.0
H565 H 0.21219 0.13276 0.09518 0.0
H566 H 0.21948 0.09644 0.1598 0.0
C567 C 0.25945 0.14062 0.22429 0.0
C568 C 0.24289 0.34072 0.97104 0.0
C569 C 0.23884 0.32551 0.02028 0.0
H570 H 0.24756 0.37882 0.9365 0.0
C571 C 0.23514 0.33816 0.07338 0.0
H572 H 0.24586 0.33172 0.92939 0.0
C573 C 0.23592 0.36522 0.07731 0.0
C574 C 0.24051 0.38041 0.02833 0.0
H575 H 0.23179 0.32717 0.11218 0.0
H576 H 0.23285 0.37423 0.1189 0.0
C577 C 0.24373 0.36781 0.97503 0.0
C578 C 0.17181 0.73627 0.54404 0.0
C579 C 0.18714 0.74043 0.49503 0.0
H580 H 0.13358 0.73266 0.57847 0.0
C581 C 0.17465 0.74418 0.4418 0.0
H582 H 0.18068 0.73324 0.58578 0.0
C583 C 0.14762 0.74402 0.43775 0.0
C584 C 0.13229 0.74006 0.48679 0.0
H585 H 0.18574 0.74753 0.40313 0.0
H586 H 0.13873 0.74751 0.39622 0.0
C587 C 0.14474 0.73611 0.53996 0.0
C588 C 0.77016 0.67812 0.93702 0.0
C589 C 0.77126 0.69086 0.99065 0.0
H590 H 0.76876 0.64196 0.89167 0.0
C591 C 0.77294 0.67577 0.04078 0.0
H592 H 0.76873 0.68904 0.89748 0.0
C593 C 0.7732 0.64868 0.03739 0.0
C594 C 0.77172 0.63594 0.9838 0.0
H595 H 0.77397 0.68486 0.08286 0.0
H596 H 0.77471 0.63772 0.07685 0.0
C597 C 0.77032 0.65104 0.93366 0.0
C598 C 0.83582 0.27654 0.46804 0.0
C599 C 0.82048 0.27656 0.51793 0.0
H600 H 0.874 0.27504 0.43268 0.0
C601 C 0.83295 0.27631 0.57187 0.0
H602 H 0.82694 0.27664 0.42572 0.0
C603 C 0.85998 0.27562 0.57581 0.0
C604 C 0.87532 0.27503 0.52595 0.0
H605 H 0.82185 0.27652 0.61126 0.0
H606 H 0.86887 0.27564 0.61812 0.0
C607 C 0.86287 0.27574 0.472 0.0
C608 C 0.7366 0.18005 0.44225 0.0
C609 C 0.73663 0.19242 0.49633 0.0
H610 H 0.73687 0.14421 0.3956 0.0
C611 C 0.73678 0.17699 0.54607 0.0
H612 H 0.73627 0.19124 0.40299 0.0
C613 C 0.7374 0.14992 0.54179 0.0
C614 C 0.7378 0.13758 0.48769 0.0
H615 H 0.73688 0.1858 0.58848 0.0
H616 H 0.73817 0.13869 0.58097 0.0
C617 C 0.73711 0.15302 0.43801 0.0
C618 C 0.33738 0.23829 0.97211 0.0
C619 C 0.32208 0.23997 0.02194 0.0
H620 H 0.37555 0.23664 0.93679 0.0
C621 C 0.33459 0.24122 0.07579 0.0
H622 H 0.32848 0.23715 0.92987 0.0
C623 C 0.36164 0.24119 0.07967 0.0
C624 C 0.37695 0.23977 0.02985 0.0
H625 H 0.32352 0.24265 0.11511 0.0
H626 H 0.37054 0.24285 0.12183 0.0
C627 C 0.36444 0.23816 0.97603 0.0
C628 C 0.27478 0.84088 0.46908 0.0
C629 C 0.27066 0.82545 0.51795 0.0
H630 H 0.27824 0.87921 0.43496 0.0
C631 C 0.26666 0.83787 0.57121 0.0
H632 H 0.27799 0.83206 0.42733 0.0
C633 C 0.26663 0.86492 0.57544 0.0
C634 C 0.27065 0.88036 0.52658 0.0
H635 H 0.26332 0.82671 0.60978 0.0
H636 H 0.263 0.87375 0.617 0.0
C637 C 0.27476 0.86797 0.47335 0.0
C638 C 0.67291 0.7779 0.93788 0.0
C639 C 0.68551 0.77403 0.99093 0.0
H640 H 0.63689 0.78048 0.89239 0.0
C641 C 0.67029 0.76986 0.04009 0.0
H642 H 0.68391 0.78136 0.89914 0.0
C643 C 0.64323 0.7691 0.03608 0.0
C644 C 0.63067 0.77256 0.98284 0.0
H645 H 0.67927 0.76673 0.0817 0.0
H646 H 0.63221 0.76519 0.07455 0.0
C647 C 0.64587 0.77723 0.93392 0.0
loop_
_geom_bond_atom_site_label_1
_geom_bond_atom_site_label_2
_geom_bond_distance
_geom_bond_site_symmetry_2
_ccdc_geom_bond_type
Sc0 O3 2.025 . S
Sc0 O10 2.105 . S
Sc0 O13 2.105 . S
Sc0 O16 2.105 . S
Sc0 O19 2.105 . S
Sc1 O3 2.025 . S
Sc1 O11 2.113 . S
Sc1 O15 2.097 1_554 S
Sc1 O17 2.113 . S
Sc1 O21 2.097 1_554 S
Sc2 O3 2.025 1_556 S
Sc2 O12 2.105 . S
Sc2 O14 2.105 . S
Sc2 O18 2.105 . S
Sc2 O20 2.105 . S
O3 Sc0 2.025 . S
O3 Sc1 2.025 . S
O3 Sc2 2.025 1_554 S
C4 O10 1.268 . S
C4 O20 1.268 1_554 S
C5 O11 1.268 . S
C5 O19 1.268 . S
C6 O12 1.268 . S
C6 O21 1.268 . S
C7 O13 1.268 . S
C7 O17 1.268 . S
C8 O14 1.268 1_554 S
C8 O16 1.268 . S
C9 O15 1.268 . S
C9 O18 1.268 . S
O10 Sc0 2.105 . S
O10 C4 1.268 . S
O11 Sc1 2.113 . S
O11 C5 1.268 . S
O12 Sc2 2.105 . S
O12 C6 1.268 . S
O13 Sc0 2.105 . S
O13 C7 1.268 . S
O14 Sc2 2.105 . S
O14 C8 1.268 1_556 S
O15 Sc1 2.097 1_556 S
O15 C9 1.268 . S
O16 Sc0 2.105 . S
O16 C8 1.268 . S
O17 Sc1 2.113 . S
O17 C7 1.268 . S
O18 Sc2 2.105 . S
O18 C9 1.268 . S
O19 Sc0 2.105 . S
O19 C5 1.268 . S
O20 Sc2 2.105 . S
O20 C4 1.268 1_556 S
O21 Sc1 2.097 1_556 S
O21 C6 1.268 . S
Sc22 O25 2.025 . S
Sc22 O32 2.105 . S
Sc22 O35 2.105 . S
Sc22 O38 2.105 . S
Sc22 O41 2.105 . S
Sc23 O25 2.025 . S
Sc23 O33 2.105 . S
Sc23 O37 2.105 . S
Sc23 O39 2.105 . S
Sc23 O43 2.105 . S
Sc24 O25 2.025 . S
Sc24 O34 2.105 . S
Sc24 O36 2.105 . S
Sc24 O40 2.105 . S
Sc24 O42 2.105 . S
O25 Sc22 2.025 . S
O25 Sc23 2.025 . S
O25 Sc24 2.025 . S
C26 O32 1.268 . S
C26 O42 1.268 . S
C27 O33 1.268 . S
C27 O41 1.268 . S
C28 O34 1.268 . S
C28 O43 1.268 . S
C29 O35 1.268 . S
C29 O39 1.268 . S
C30 O36 1.268 . S
C30 O38 1.268 . S
C31 O37 1.268 . S
C31 O40 1.268 . S
O32 Sc22 2.105 . S
O32 C26 1.268 . S
O33 Sc23 2.105 . S
O33 C27 1.268 . S
O34 Sc24 2.105 . S
O34 C28 1.268 . S
O35 Sc22 2.105 . S
O35 C29 1.268 . S
O36 Sc24 2.105 . S
O36 C30 1.268 . S
O37 Sc23 2.105 . S
O37 C31 1.268 . S
O38 Sc22 2.105 . S
O38 C30 1.268 . S
O39 Sc23 2.105 . S
O39 C29 1.268 . S
O40 Sc24 2.105 . S
O40 C31 1.268 . S
O41 Sc22 2.105 . S
O41 C27 1.268 . S
O42 Sc24 2.105 . S
O42 C26 1.268 . S
O43 Sc23 2.105 . S
O43 C28 1.268 . S
Sc44 O47 2.025 1_556 S
Sc44 O54 2.105 . S
Sc44 O57 2.105 . S
Sc44 O60 2.105 . S
Sc44 O63 2.105 . S
Sc45 O47 2.025 . S
Sc45 O55 2.105 1_554 S
Sc45 O59 2.105 . S
Sc45 O61 2.105 1_554 S
Sc45 O65 2.105 . S
Sc46 O47 2.025 . S
Sc46 O56 2.105 . S
Sc46 O58 2.105 . S
Sc46 O62 2.105 . S
Sc46 O64 2.105 . S
O47 Sc44 2.025 1_554 S
O47 Sc45 2.025 . S
O47 Sc46 2.025 . S
C48 O54 1.268 1_554 S
C48 O64 1.268 . S
C49 O55 1.268 . S
C49 O63 1.268 . S
C50 O56 1.268 . S
C50 O65 1.268 . S
C51 O57 1.268 . S
C51 O61 1.268 . S
C52 O58 1.268 . S
C52 O60 1.268 1_554 S
C53 O59 1.268 . S
C53 O62 1.268 . S
O54 Sc44 2.105 . S
O54 C48 1.268 1_556 S
O55 Sc45 2.105 1_556 S
O55 C49 1.268 . S
O56 Sc46 2.105 . S
O56 C50 1.268 . S
O57 Sc44 2.105 . S
O57 C51 1.268 . S
O58 Sc46 2.105 . S
O58 C52 1.268 . S
O59 Sc45 2.105 . S
O59 C53 1.268 . S
O60 Sc44 2.105 . S
O60 C52 1.268 1_556 S
O61 Sc45 2.105 1_556 S
O61 C51 1.268 . S
O62 Sc46 2.105 . S
O62 C53 1.268 . S
O63 Sc44 2.105 . S
O63 C49 1.268 . S
O64 Sc46 2.105 . S
O64 C48 1.268 . S
O65 Sc45 2.105 . S
O65 C50 1.268 . S
Sc66 O69 2.025 . S
Sc66 O76 2.105 . S
Sc66 O79 2.105 . S
Sc66 O82 2.105 . S
Sc66 O85 2.105 . S
Sc67 O69 2.025 . S
Sc67 O77 2.105 . S
Sc67 O81 2.105 . S
Sc67 O83 2.105 . S
Sc67 O87 2.105 . S
Sc68 O69 2.025 . S
Sc68 O78 2.105 . S
Sc68 O80 2.105 . S
Sc68 O84 2.105 . S
Sc68 O86 2.105 . S
O69 Sc66 2.025 . S
O69 Sc67 2.025 . S
O69 Sc68 2.025 . S
C70 O76 1.268 . S
C70 O86 1.268 . S
C71 O77 1.268 . S
C71 O85 1.268 . S
C72 O78 1.268 . S
C72 O87 1.268 . S
C73 O79 1.268 . S
C73 O83 1.268 . S
C74 O80 1.268 . S
C74 O82 1.268 . S
C75 O81 1.268 . S
C75 O84 1.268 . S
O76 Sc66 2.105 . S
O76 C70 1.268 . S
O77 Sc67 2.105 . S
O77 C71 1.268 . S
O78 Sc68 2.105 . S
O78 C72 1.268 . S
O79 Sc66 2.105 . S
O79 C73 1.268 . S
O80 Sc68 2.105 . S
O80 C74 1.268 . S
O81 Sc67 2.105 . S
O81 C75 1.268 . S
O82 Sc66 2.105 . S
O82 C74 1.268 . S
O83 Sc67 2.105 . S
O83 C73 1.268 . S
O84 Sc68 2.105 . S
O84 C75 1.268 . S
O85 Sc66 2.105 . S
O85 C71 1.268 . S
O86 Sc68 2.105 . S
O86 C70 1.268 . S
O87 Sc67 2.105 . S
O87 C72 1.268 . S
C88 C89 1.264 . S
C88 C93 1.479 . S
C88 C98 1.465 . S
C89 C88 1.264 . S
C89 C91 1.339 . S
C89 H116 0.931 . S
C90 C91 1.395 . S
C90 C92 1.320 . S
C91 C89 1.339 . S
C91 C90 1.395 . S
C91 H117 0.929 . S
C92 C90 1.320 . S
C92 C93 1.405 . S
C92 H118 0.930 . S
C93 C88 1.479 . S
C93 C92 1.405 . S
C93 H119 0.931 . S
U94 O95 2.454 . S
U94 O96 2.458 1_556 S
U94 C97 2.984 . S
U94 C98 2.847 . S
U94 C111 2.882 1_556 S
U94 O112 2.441 . S
U94 O113 2.420 . S
U94 O114 2.455 1_556 S
U94 O115 2.449 1_556 S
O95 U94 2.454 . S
O95 C97 1.353 . S
O96 U94 2.458 1_554 S
O96 C97 1.286 1_554 S
C97 U94 2.984 . S
C97 O95 1.353 . S
C97 O96 1.286 1_556 S
C97 C99 1.363 . S
C98 C88 1.465 . S
C98 U94 2.847 . S
C98 O112 1.249 . S
C98 O113 1.202 . S
C99 C97 1.363 . S
C99 C101 1.417 . S
C99 C104 1.332 1_556 S
C100 C101 1.310 . S
C100 C103 1.461 1_556 S
C100 H120 0.932 . S
C101 C99 1.417 . S
C101 C100 1.310 . S
C101 H121 0.930 . S
C102 C103 1.474 . S
C102 C104 1.285 . S
C102 H122 0.929 . S
C103 C100 1.461 1_554 S
C103 C102 1.474 . S
C104 C99 1.332 1_554 S
C104 C102 1.285 . S
C104 H123 0.930 . S
C105 C108 1.424 . S
C105 C110 1.245 . S
C105 C111 1.428 . S
C106 C109 1.260 . S
C106 C110 1.477 . S
C106 H124 0.932 . S
C107 C108 1.384 . S
C107 C109 1.479 . S
C107 H125 0.929 . S
C108 C105 1.424 . S
C108 C107 1.384 . S
C108 H126 0.928 . S
C109 C106 1.260 . S
C109 C107 1.479 . S
C110 C105 1.245 . S
C110 C106 1.477 . S
C110 H127 0.932 . S
C111 U94 2.882 1_554 S
C111 C105 1.428 . S
C111 O114 1.301 . S
C111 O115 1.282 . S
O112 U94 2.441 . S
O112 C98 1.249 . S
O113 U94 2.420 . S
O113 C98 1.202 . S
O114 U94 2.455 1_554 S
O114 C111 1.301 . S
O115 U94 2.449 1_554 S
O115 C111 1.282 . S
H116 C89 0.931 . S
H117 C91 0.929 . S
H118 C92 0.930 . S
H119 C93 0.931 . S
H120 C100 0.932 . S
H121 C101 0.930 . S
H122 C102 0.929 . S
H123 C104 0.930 . S
H124 C106 0.932 . S
H125 C107 0.929 . S
H126 C108 0.928 . S
H127 C110 0.932 . S
C128 C129 1.264 . S
C128 C133 1.479 . S
C128 C138 1.465 . S
C129 C128 1.264 . S
C129 C131 1.339 . S
C129 H156 0.931 . S
C130 C131 1.395 . S
C130 C132 1.320 . S
C131 C129 1.339 . S
C131 C130 1.395 . S
C131 H157 0.929 . S
C132 C130 1.320 . S
C132 C133 1.405 . S
C132 H158 0.930 . S
C133 C128 1.479 . S
C133 C132 1.405 . S
C133 H159 0.931 . S
U134 O135 2.454 1_655 S
U134 O136 2.458 1_655 S
U134 C137 2.984 1_655 S
U134 C138 2.847 . S
U134 C151 2.882 . S
U134 O152 2.441 . S
U134 O153 2.420 . S
U134 O154 2.455 . S
U134 O155 2.449 . S
O135 U134 2.454 1_455 S
O135 C137 1.353 . S
O136 U134 2.458 1_455 S
O136 C137 1.286 . S
C137 U134 2.984 1_455 S
C137 O135 1.353 . S
C137 O136 1.286 . S
C137 C139 1.363 . S
C138 C128 1.465 . S
C138 U134 2.847 . S
C138 O152 1.249 . S
C138 O153 1.202 . S
C139 C137 1.363 . S
C139 C141 1.408 . S
C139 C144 1.342 . S
C140 C141 1.310 . S
C140 C143 1.461 . S
C140 H160 0.932 . S
C141 C139 1.408 . S
C141 C140 1.310 . S
C141 H161 0.930 . S
C142 C143 1.474 . S
C142 C144 1.285 . S
C142 H162 0.929 . S
C143 C140 1.461 . S
C143 C142 1.474 . S
C144 C139 1.342 . S
C144 C142 1.285 . S
C144 H163 0.930 . S
C145 C148 1.424 . S
C145 C150 1.245 . S
C145 C151 1.428 . S
C146 C149 1.260 . S
C146 C150 1.477 . S
C146 H164 0.932 . S
C147 C148 1.384 . S
C147 C149 1.479 . S
C147 H165 0.929 . S
C148 C145 1.424 . S
C148 C147 1.384 . S
C148 H166 0.928 . S
C149 C146 1.260 . S
C149 C147 1.479 . S
C150 C145 1.245 . S
C150 C146 1.477 . S
C150 H167 0.932 . S
C151 U134 2.882 . S
C151 C145 1.428 . S
C151 O154 1.301 . S
C151 O155 1.282 . S
O152 U134 2.441 . S
O152 C138 1.249 . S
O153 U134 2.420 . S
O153 C138 1.202 . S
O154 U134 2.455 . S
O154 C151 1.301 . S
O155 U134 2.449 . S
O155 C151 1.282 . S
H156 C129 0.931 . S
H157 C131 0.929 . S
H158 C132 0.930 . S
H159 C133 0.931 . S
H160 C140 0.932 . S
H161 C141 0.930 . S
H162 C142 0.929 . S
H163 C144 0.930 . S
H164 C146 0.932 . S
H165 C147 0.929 . S
H166 C148 0.928 . S
H167 C150 0.932 . S
C168 C169 1.264 . S
C168 C173 1.479 . S
C168 C178 1.465 . S
C169 C168 1.264 . S
C169 C171 1.339 . S
C169 H196 0.931 . S
C170 C171 1.395 . S
C170 C172 1.320 . S
C171 C169 1.339 . S
C171 C170 1.395 . S
C171 H197 0.929 . S
C172 C170 1.320 . S
C172 C173 1.405 . S
C172 H198 0.930 . S
C173 C168 1.479 . S
C173 C172 1.405 . S
C173 H199 0.931 . S
U174 O175 2.454 . S
U174 O176 2.458 1_554 S
U174 C177 2.984 . S
U174 C178 2.847 . S
U174 C191 2.882 1_554 S
U174 O192 2.441 . S
U174 O193 2.420 . S
U174 O194 2.455 1_554 S
U174 O195 2.449 1_554 S
O175 U174 2.454 . S
O175 C177 1.353 . S
O176 U174 2.458 1_556 S
O176 C177 1.286 1_556 S
C177 U174 2.984 . S
C177 O175 1.353 . S
C177 O176 1.286 1_554 S
C177 C179 1.363 . S
C178 C168 1.465 . S
C178 U174 2.847 . S
C178 O192 1.249 . S
C178 O193 1.202 . S
C179 C177 1.363 . S
C179 C181 1.408 . S
C179 C184 1.342 1_554 S
C180 C181 1.310 . S
C180 C183 1.461 . S
C180 H200 0.932 . S
C181 C179 1.408 . S
C181 C180 1.310 . S
C181 H201 0.930 . S
C182 C183 1.474 1_556 S
C182 C184 1.285 . S
C182 H202 0.929 . S
C183 C180 1.461 . S
C183 C182 1.474 1_554 S
C184 C179 1.342 1_556 S
C184 C182 1.285 . S
C184 H203 0.930 . S
C185 C188 1.424 . S
C185 C190 1.245 . S
C185 C191 1.428 . S
C186 C189 1.260 . S
C186 C190 1.477 . S
C186 H204 0.932 . S
C187 C188 1.384 . S
C187 C189 1.479 . S
C187 H205 0.929 . S
C188 C185 1.424 . S
C188 C187 1.384 . S
C188 H206 0.928 . S
C189 C186 1.260 . S
C189 C187 1.479 . S
C190 C185 1.245 . S
C190 C186 1.477 . S
C190 H207 0.932 . S
C191 U174 2.882 1_556 S
C191 C185 1.428 . S
C191 O194 1.301 . S
C191 O195 1.282 . S
O192 U174 2.441 . S
O192 C178 1.249 . S
O193 U174 2.420 . S
O193 C178 1.202 . S
O194 U174 2.455 1_556 S
O194 C191 1.301 . S
O195 U174 2.449 1_556 S
O195 C191 1.282 . S
H196 C169 0.931 . S
H197 C171 0.929 . S
H198 C172 0.930 . S
H199 C173 0.931 . S
H200 C180 0.932 . S
H201 C181 0.930 . S
H202 C182 0.929 . S
H203 C184 0.930 . S
H204 C186 0.932 . S
H205 C187 0.929 . S
H206 C188 0.928 . S
H207 C190 0.932 . S
C208 C209 1.264 . S
C208 C213 1.479 . S
C208 C218 1.465 . S
C209 C208 1.264 . S
C209 C211 1.339 . S
C209 H236 0.931 . S
C210 C211 1.395 . S
C210 C212 1.320 . S
C211 C209 1.339 . S
C211 C210 1.395 . S
C211 H237 0.929 . S
C212 C210 1.320 . S
C212 C213 1.405 . S
C212 H238 0.930 . S
C213 C208 1.479 . S
C213 C212 1.405 . S
C213 H239 0.931 . S
U214 O215 2.454 1_455 S
U214 O216 2.458 1_455 S
U214 C217 2.984 1_455 S
U214 C218 2.847 . S
U214 C231 2.882 . S
U214 O232 2.441 . S
U214 O233 2.420 . S
U214 O234 2.455 . S
U214 O235 2.449 . S
O215 U214 2.454 1_655 S
O215 C217 1.353 . S
O216 U214 2.458 1_655 S
O216 C217 1.286 . S
C217 U214 2.984 1_655 S
C217 O215 1.353 . S
C217 O216 1.286 . S
C217 C219 1.363 . S
C218 C208 1.465 . S
C218 U214 2.847 . S
C218 O232 1.249 . S
C218 O233 1.202 . S
C219 C217 1.363 . S
C219 C221 1.408 . S
C219 C224 1.342 . S
C220 C221 1.310 . S
C220 C223 1.461 . S
C220 H240 0.932 . S
C221 C219 1.408 . S
C221 C220 1.310 . S
C221 H241 0.930 . S
C222 C223 1.474 . S
C222 C224 1.285 . S
C222 H242 0.929 . S
C223 C220 1.461 . S
C223 C222 1.474 . S
C224 C219 1.342 . S
C224 C222 1.285 . S
C224 H243 0.930 . S
C225 C228 1.424 . S
C225 C230 1.245 . S
C225 C231 1.428 . S
C226 C229 1.260 . S
C226 C230 1.477 . S
C226 H244 0.932 . S
C227 C228 1.384 . S
C227 C229 1.479 . S
C227 H245 0.929 . S
C228 C225 1.424 . S
C228 C227 1.384 . S
C228 H246 0.928 . S
C229 C226 1.260 . S
C229 C227 1.479 . S
C230 C225 1.245 . S
C230 C226 1.477 . S
C230 H247 0.932 . S
C231 U214 2.882 . S
C231 C225 1.428 . S
C231 O234 1.301 . S
C231 O235 1.282 . S
O232 U214 2.441 . S
O232 C218 1.249 . S
O233 U214 2.420 . S
O233 C218 1.202 . S
O234 U214 2.455 . S
O234 C231 1.301 . S
O235 U214 2.449 . S
O235 C231 1.282 . S
H236 C209 0.931 . S
H237 C211 0.929 . S
H238 C212 0.930 . S
H239 C213 0.931 . S
H240 C220 0.932 . S
H241 C221 0.930 . S
H242 C222 0.929 . S
H243 C224 0.930 . S
H244 C226 0.932 . S
H245 C227 0.929 . S
H246 C228 0.928 . S
H247 C230 0.932 . S
C248 C249 1.264 . S
C248 C253 1.479 . S
C248 C258 1.465 . S
C249 C248 1.264 . S
C249 C251 1.339 . S
C249 H276 0.931 . S
C250 C251 1.395 . S
C250 C252 1.320 . S
C251 C249 1.339 . S
C251 C250 1.395 . S
C251 H277 0.929 . S
C252 C250 1.320 . S
C252 C253 1.405 . S
C252 H278 0.930 . S
C253 C248 1.479 . S
C253 C252 1.405 . S
C253 H279 0.931 . S
U254 O255 2.454 1_565 S
U254 O256 2.458 1_565 S
U254 C257 2.984 1_565 S
U254 C258 2.847 . S
U254 C271 2.882 . S
U254 O272 2.441 . S
U254 O273 2.420 . S
U254 O274 2.455 . S
U254 O275 2.449 . S
O255 U254 2.454 1_545 S
O255 C257 1.353 . S
O256 U254 2.458 1_545 S
O256 C257 1.286 . S
C257 U254 2.984 1_545 S
C257 O255 1.353 . S
C257 O256 1.286 . S
C257 C259 1.363 . S
C258 C248 1.465 . S
C258 U254 2.847 . S
C258 O272 1.249 . S
C258 O273 1.202 . S
C259 C257 1.363 . S
C259 C261 1.408 . S
C259 C264 1.342 . S
C260 C261 1.310 . S
C260 C263 1.461 . S
C260 H280 0.932 . S
C261 C259 1.408 . S
C261 C260 1.310 . S
C261 H281 0.930 . S
C262 C263 1.474 . S
C262 C264 1.285 . S
C262 H282 0.929 . S
C263 C260 1.461 . S
C263 C262 1.474 . S
C264 C259 1.342 . S
C264 C262 1.285 . S
C264 H283 0.930 . S
C265 C268 1.424 . S
C265 C270 1.245 . S
C265 C271 1.428 . S
C266 C269 1.260 . S
C266 C270 1.477 . S
C266 H284 0.932 . S
C267 C268 1.384 . S
C267 C269 1.479 . S
C267 H285 0.929 . S
C268 C265 1.424 . S
C268 C267 1.384 . S
C268 H286 0.928 . S
C269 C266 1.260 . S
C269 C267 1.479 . S
C270 C265 1.245 . S
C270 C266 1.477 . S
C270 H287 0.932 . S
C271 U254 2.882 . S
C271 C265 1.428 . S
C271 O274 1.301 . S
C271 O275 1.282 . S
O272 U254 2.441 . S
O272 C258 1.249 . S
O273 U254 2.420 . S
O273 C258 1.202 . S
O274 U254 2.455 . S
O274 C271 1.301 . S
O275 U254 2.449 . S
O275 C271 1.282 . S
H276 C249 0.931 . S
H277 C251 0.929 . S
H278 C252 0.930 . S
H279 C253 0.931 . S
H280 C260 0.932 . S
H281 C261 0.930 . S
H282 C262 0.929 . S
H283 C264 0.930 . S
H284 C266 0.932 . S
H285 C267 0.929 . S
H286 C268 0.928 . S
H287 C270 0.932 . S
C288 C289 1.264 . S
C288 C293 1.479 . S
C288 C298 1.465 . S
C289 C288 1.264 . S
C289 C291 1.339 . S
C289 H316 0.931 . S
C290 C291 1.395 . S
C290 C292 1.320 . S
C291 C289 1.339 . S
C291 C290 1.395 . S
C291 H317 0.929 . S
C292 C290 1.320 . S
C292 C293 1.405 . S
C292 H318 0.930 . S
C293 C288 1.479 . S
C293 C292 1.405 . S
C293 H319 0.931 . S
U294 O295 2.454 . S
U294 O296 2.458 1_556 S
U294 C297 2.984 . S
U294 C298 2.847 . S
U294 C311 2.882 1_556 S
U294 O312 2.441 . S
U294 O313 2.420 . S
U294 O314 2.455 1_556 S
U294 O315 2.449 1_556 S
O295 U294 2.454 . S
O295 C297 1.353 . S
O296 U294 2.458 1_554 S
O296 C297 1.286 1_554 S
C297 U294 2.984 . S
C297 O295 1.353 . S
C297 O296 1.286 1_556 S
C297 C299 1.363 . S
C298 C288 1.465 . S
C298 U294 2.847 . S
C298 O312 1.249 . S
C298 O313 1.202 . S
C299 C297 1.363 . S
C299 C301 1.414 . S
C299 C304 1.336 1_556 S
C300 C301 1.310 . S
C300 C303 1.461 1_556 S
C300 H320 0.932 . S
C301 C299 1.414 . S
C301 C300 1.310 . S
C301 H321 0.930 . S
C302 C303 1.474 . S
C302 C304 1.285 . S
C302 H322 0.929 . S
C303 C300 1.461 1_554 S
C303 C302 1.474 . S
C304 C299 1.336 1_554 S
C304 C302 1.285 . S
C304 H323 0.930 . S
C305 C308 1.424 . S
C305 C310 1.245 . S
C305 C311 1.428 . S
C306 C309 1.260 . S
C306 C310 1.477 . S
C306 H324 0.932 . S
C307 C308 1.384 . S
C307 C309 1.479 . S
C307 H325 0.929 . S
C308 C305 1.424 . S
C308 C307 1.384 . S
C308 H326 0.928 . S
C309 C306 1.260 . S
C309 C307 1.479 . S
C310 C305 1.245 . S
C310 C306 1.477 . S
C310 H327 0.932 . S
C311 U294 2.882 1_554 S
C311 C305 1.428 . S
C311 O314 1.301 . S
C311 O315 1.282 . S
O312 U294 2.441 . S
O312 C298 1.249 . S
O313 U294 2.420 . S
O313 C298 1.202 . S
O314 U294 2.455 1_554 S
O314 C311 1.301 . S
O315 U294 2.449 1_554 S
O315 C311 1.282 . S
H316 C289 0.931 . S
H317 C291 0.929 . S
H318 C292 0.930 . S
H319 C293 0.931 . S
H320 C300 0.932 . S
H321 C301 0.930 . S
H322 C302 0.929 . S
H323 C304 0.930 . S
H324 C306 0.932 . S
H325 C307 0.929 . S
H326 C308 0.928 . S
H327 C310 0.932 . S
C328 C329 1.264 . S
C328 C333 1.479 . S
C328 C338 1.465 . S
C329 C328 1.264 . S
C329 C331 1.339 . S
C329 H356 0.931 . S
C330 C331 1.395 . S
C330 C332 1.320 . S
C331 C329 1.339 . S
C331 C330 1.395 . S
C331 H357 0.929 . S
C332 C330 1.320 . S
C332 C333 1.405 . S
C332 H358 0.930 . S
C333 C328 1.479 . S
C333 C332 1.405 . S
C333 H359 0.931 . S
U334 O335 2.454 1_545 S
U334 O336 2.458 1_545 S
U334 C337 2.984 1_545 S
U334 C338 2.847 . S
U334 C351 2.882 . S
U334 O352 2.441 . S
U334 O353 2.420 . S
U334 O354 2.455 . S
U334 O355 2.449 . S
O335 U334 2.454 1_565 S
O335 C337 1.353 . S
O336 U334 2.458 1_565 S
O336 C337 1.286 . S
C337 U334 2.984 1_565 S
C337 O335 1.353 . S
C337 O336 1.286 . S
C337 C339 1.363 . S
C338 C328 1.465 . S
C338 U334 2.847 . S
C338 O352 1.249 . S
C338 O353 1.202 . S
C339 C337 1.363 . S
C339 C341 1.408 . S
C339 C344 1.342 . S
C340 C341 1.310 . S
C340 C343 1.461 . S
C340 H360 0.932 . S
C341 C339 1.408 . S
C341 C340 1.310 . S
C341 H361 0.930 . S
C342 C343 1.474 . S
C342 C344 1.285 . S
C342 H362 0.929 . S
C343 C340 1.461 . S
C343 C342 1.474 . S
C344 C339 1.342 . S
C344 C342 1.285 . S
C344 H363 0.930 . S
C345 C348 1.424 . S
C345 C350 1.245 . S
C345 C351 1.428 . S
C346 C349 1.260 . S
C346 C350 1.477 . S
C346 H364 0.932 . S
C347 C348 1.384 . S
C347 C349 1.479 . S
C347 H365 0.929 . S
C348 C345 1.424 . S
C348 C347 1.384 . S
C348 H366 0.928 . S
C349 C346 1.260 . S
C349 C347 1.479 . S
C350 C345 1.245 . S
C350 C346 1.477 . S
C350 H367 0.932 . S
C351 U334 2.882 . S
C351 C345 1.428 . S
C351 O354 1.301 . S
C351 O355 1.282 . S
O352 U334 2.441 . S
O352 C338 1.249 . S
O353 U334 2.420 . S
O353 C338 1.202 . S
O354 U334 2.455 . S
O354 C351 1.301 . S
O355 U334 2.449 . S
O355 C351 1.282 . S
H356 C329 0.931 . S
H357 C331 0.929 . S
H358 C332 0.930 . S
H359 C333 0.931 . S
H360 C340 0.932 . S
H361 C341 0.930 . S
H362 C342 0.929 . S
H363 C344 0.930 . S
H364 C346 0.932 . S
H365 C347 0.929 . S
H366 C348 0.928 . S
H367 C350 0.932 . S
C368 C369 1.264 . S
C368 C373 1.479 . S
C368 C378 1.465 . S
C369 C368 1.264 . S
C369 C371 1.339 . S
C369 H396 0.931 . S
C370 C371 1.395 . S
C370 C372 1.320 . S
C371 C369 1.339 . S
C371 C370 1.395 . S
C371 H397 0.929 . S
C372 C370 1.320 . S
C372 C373 1.405 . S
C372 H398 0.930 . S
C373 C368 1.479 . S
C373 C372 1.405 . S
C373 H399 0.931 . S
U374 O375 2.454 . S
U374 O376 2.458 1_554 S
U374 C377 2.984 . S
U374 C378 2.847 . S
U374 C391 2.882 1_554 S
U374 O392 2.441 . S
U374 O393 2.420 . S
U374 O394 2.455 1_554 S
U374 O395 2.449 1_554 S
O375 U374 2.454 . S
O375 C377 1.353 . S
O376 U374 2.458 1_556 S
O376 C377 1.286 1_556 S
C377 U374 2.984 . S
C377 O375 1.353 . S
C377 O376 1.286 1_554 S
C377 C379 1.363 . S
C378 C368 1.465 . S
C378 U374 2.847 . S
C378 O392 1.249 . S
C378 O393 1.202 . S
C379 C377 1.363 . S
C379 C381 1.408 . S
C379 C384 1.342 1_554 S
C380 C381 1.310 . S
C380 C383 1.461 . S
C380 H400 0.932 . S
C381 C379 1.408 . S
C381 C380 1.310 . S
C381 H401 0.930 . S
C382 C383 1.474 1_556 S
C382 C384 1.285 . S
C382 H402 0.929 . S
C383 C380 1.461 . S
C383 C382 1.474 1_554 S
C384 C379 1.342 1_556 S
C384 C382 1.285 . S
C384 H403 0.930 . S
C385 C388 1.424 . S
C385 C390 1.245 . S
C385 C391 1.428 . S
C386 C389 1.260 . S
C386 C390 1.477 . S
C386 H404 0.932 . S
C387 C388 1.384 . S
C387 C389 1.479 . S
C387 H405 0.929 . S
C388 C385 1.424 . S
C388 C387 1.384 . S
C388 H406 0.928 . S
C389 C386 1.260 . S
C389 C387 1.479 . S
C390 C385 1.245 . S
C390 C386 1.477 . S
C390 H407 0.932 . S
C391 U374 2.882 1_556 S
C391 C385 1.428 . S
C391 O394 1.301 . S
C391 O395 1.282 . S
O392 U374 2.441 . S
O392 C378 1.249 . S
O393 U374 2.420 . S
O393 C378 1.202 . S
O394 U374 2.455 1_556 S
O394 C391 1.301 . S
O395 U374 2.449 1_556 S
O395 C391 1.282 . S
H396 C369 0.931 . S
H397 C371 0.929 . S
H398 C372 0.930 . S
H399 C373 0.931 . S
H400 C380 0.932 . S
H401 C381 0.930 . S
H402 C382 0.929 . S
H403 C384 0.930 . S
H404 C386 0.932 . S
H405 C387 0.929 . S
H406 C388 0.928 . S
H407 C390 0.932 . S
C408 C409 1.387 . S
C408 H412 0.950 . S
C408 C417 1.390 . S
C409 C408 1.387 . S
C409 C411 1.387 . S
H410 C417 0.950 . S
C411 C409 1.387 . S
C411 C413 1.390 . S
C411 H415 0.950 . S
H412 C408 0.950 . S
C413 C411 1.390 . S
C413 C414 1.387 . S
C413 H416 0.950 . S
C414 C413 1.387 . S
C414 C417 1.387 . S
H415 C411 0.950 . S
H416 C413 0.950 . S
C417 C408 1.390 . S
C417 H410 0.950 . S
C417 C414 1.387 . S
C418 C419 1.387 . S
C418 H422 0.950 . S
C418 C427 1.390 . S
C419 C418 1.387 . S
C419 C421 1.387 . S
H420 C427 0.950 . S
C421 C419 1.387 . S
C421 C423 1.390 . S
C421 H425 0.950 . S
H422 C418 0.950 . S
C423 C421 1.390 . S
C423 C424 1.387 . S
C423 H426 0.950 . S
C424 C423 1.387 . S
C424 C427 1.387 . S
H425 C421 0.950 . S
H426 C423 0.950 . S
C427 C418 1.390 . S
C427 H420 0.950 . S
C427 C424 1.387 . S
C428 C429 1.387 . S
C428 H432 0.950 . S
C428 C437 1.390 . S
C429 C428 1.387 . S
C429 C431 1.387 . S
H430 C437 0.950 . S
C431 C429 1.387 . S
C431 C433 1.390 . S
C431 H435 0.950 . S
H432 C428 0.950 . S
C433 C431 1.390 . S
C433 C434 1.387 . S
C433 H436 0.950 . S
C434 C433 1.387 . S
C434 C437 1.387 . S
H435 C431 0.950 . S
H436 C433 0.950 . S
C437 C428 1.390 . S
C437 H430 0.950 . S
C437 C434 1.387 . S
C438 C439 1.387 . S
C438 H442 0.950 . S
C438 C447 1.390 . S
C439 C438 1.387 . S
C439 C441 1.387 . S
H440 C447 0.950 . S
C441 C439 1.387 . S
C441 C443 1.390 . S
C441 H445 0.950 . S
H442 C438 0.950 . S
C443 C441 1.390 . S
C443 C444 1.387 . S
C443 H446 0.950 . S
C444 C443 1.387 . S
C444 C447 1.387 . S
H445 C441 0.950 . S
H446 C443 0.950 . S
C447 C438 1.390 . S
C447 H440 0.950 . S
C447 C444 1.387 . S
C448 C449 1.387 . S
C448 H452 0.950 . S
C448 C457 1.390 . S
C449 C448 1.387 . S
C449 C451 1.387 . S
H450 C457 0.950 . S
C451 C449 1.387 . S
C451 C453 1.390 . S
C451 H455 0.950 . S
H452 C448 0.950 . S
C453 C451 1.390 . S
C453 C454 1.387 . S
C453 H456 0.950 . S
C454 C453 1.387 . S
C454 C457 1.387 . S
H455 C451 0.950 . S
H456 C453 0.950 . S
C457 C448 1.390 . S
C457 H450 0.950 . S
C457 C454 1.387 . S
C458 C459 1.387 . S
C458 H462 0.950 . S
C458 C467 1.390 . S
C459 C458 1.387 . S
C459 C461 1.387 . S
H460 C467 0.950 . S
C461 C459 1.387 . S
C461 C463 1.390 . S
C461 H465 0.950 . S
H462 C458 0.950 . S
C463 C461 1.390 . S
C463 C464 1.387 . S
C463 H466 0.950 . S
C464 C463 1.387 . S
C464 C467 1.387 . S
H465 C461 0.950 . S
H466 C463 0.950 . S
C467 C458 1.390 . S
C467 H460 0.950 . S
C467 C464 1.387 . S
C468 C469 1.387 . S
C468 H472 0.950 . S
C468 C477 1.390 . S
C469 C468 1.387 . S
C469 C471 1.387 . S
H470 C477 0.950 . S
C471 C469 1.387 . S
C471 C473 1.390 . S
C471 H475 0.950 . S
H472 C468 0.950 . S
C473 C471 1.390 . S
C473 C474 1.387 . S
C473 H476 0.950 . S
C474 C473 1.387 . S
C474 C477 1.387 . S
H475 C471 0.950 . S
H476 C473 0.950 . S
C477 C468 1.390 . S
C477 H470 0.950 . S
C477 C474 1.387 . S
C478 C479 1.387 . S
C478 H482 0.950 . S
C478 C487 1.390 . S
C479 C478 1.387 . S
C479 C481 1.387 . S
H480 C487 0.950 . S
C481 C479 1.387 . S
C481 C483 1.390 . S
C481 H485 0.950 . S
H482 C478 0.950 . S
C483 C481 1.390 . S
C483 C484 1.387 . S
C483 H486 0.950 . S
C484 C483 1.387 . S
C484 C487 1.387 . S
H485 C481 0.950 . S
H486 C483 0.950 . S
C487 C478 1.390 . S
C487 H480 0.950 . S
C487 C484 1.387 . S
C488 C489 1.387 . S
C488 H492 0.950 . S
C488 C497 1.390 . S
C489 C488 1.387 . S
C489 C491 1.387 . S
H490 C497 0.950 . S
C491 C489 1.387 . S
C491 C493 1.390 . S
C491 H495 0.950 . S
H492 C488 0.950 . S
C493 C491 1.390 . S
C493 C494 1.387 . S
C493 H496 0.950 . S
C494 C493 1.387 . S
C494 C497 1.387 . S
H495 C491 0.950 . S
H496 C493 0.950 . S
C497 C488 1.390 . S
C497 H490 0.950 . S
C497 C494 1.387 . S
C498 C499 1.387 . S
C498 H502 0.950 . S
C498 C507 1.390 . S
C499 C498 1.387 . S
C499 C501 1.387 . S
H500 C507 0.950 . S
C501 C499 1.387 . S
C501 C503 1.390 . S
C501 H505 0.950 . S
H502 C498 0.950 . S
C503 C501 1.390 . S
C503 C504 1.387 . S
C503 H506 0.950 . S
C504 C503 1.387 . S
C504 C507 1.387 . S
H505 C501 0.950 . S
H506 C503 0.950 . S
C507 C498 1.390 . S
C507 H500 0.950 . S
C507 C504 1.387 . S
C508 C509 1.387 . S
C508 H512 0.950 . S
C508 C517 1.390 . S
C509 C508 1.387 . S
C509 C511 1.387 . S
H510 C517 0.950 . S
C511 C509 1.387 . S
C511 C513 1.390 . S
C511 H515 0.950 . S
H512 C508 0.950 . S
C513 C511 1.390 . S
C513 C514 1.387 . S
C513 H516 0.950 . S
C514 C513 1.387 . S
C514 C517 1.387 . S
H515 C511 0.950 . S
H516 C513 0.950 . S
C517 C508 1.390 . S
C517 H510 0.950 . S
C517 C514 1.387 . S
C518 C519 1.387 . S
C518 H522 0.950 . S
C518 C527 1.390 . S
C519 C518 1.387 . S
C519 C521 1.387 . S
H520 C527 0.950 . S
C521 C519 1.387 . S
C521 C523 1.390 . S
C521 H525 0.950 . S
H522 C518 0.950 . S
C523 C521 1.390 . S
C523 C524 1.387 . S
C523 H526 0.950 . S
C524 C523 1.387 . S
C524 C527 1.387 . S
H525 C521 0.950 . S
H526 C523 0.950 . S
C527 C518 1.390 . S
C527 H520 0.950 . S
C527 C524 1.387 . S
C528 C529 1.387 . S
C528 H532 0.950 . S
C528 C537 1.390 . S
C529 C528 1.387 . S
C529 C531 1.387 . S
H530 C537 0.950 . S
C531 C529 1.387 . S
C531 C533 1.390 . S
C531 H535 0.950 . S
H532 C528 0.950 . S
C533 C531 1.390 . S
C533 C534 1.387 . S
C533 H536 0.950 . S
C534 C533 1.387 . S
C534 C537 1.387 . S
H535 C531 0.950 . S
H536 C533 0.950 . S
C537 C528 1.390 . S
C537 H530 0.950 . S
C537 C534 1.387 . S
C538 C539 1.387 . S
C538 H542 0.950 . S
C538 C547 1.390 . S
C539 C538 1.387 . S
C539 C541 1.387 . S
H540 C547 0.950 . S
C541 C539 1.387 . S
C541 C543 1.390 . S
C541 H545 0.950 . S
H542 C538 0.950 . S
C543 C541 1.390 . S
C543 C544 1.387 . S
C543 H546 0.950 . S
C544 C543 1.387 . S
C544 C547 1.387 . S
H545 C541 0.950 . S
H546 C543 0.950 . S
C547 C538 1.390 . S
C547 H540 0.950 . S
C547 C544 1.387 . S
C548 C549 1.387 . S
C548 H552 0.950 . S
C548 C557 1.390 . S
C549 C548 1.387 . S
C549 C551 1.387 . S
H550 C557 0.950 . S
C551 C549 1.387 . S
C551 C553 1.390 . S
C551 H555 0.950 . S
H552 C548 0.950 . S
C553 C551 1.390 . S
C553 C554 1.387 . S
C553 H556 0.950 . S
C554 C553 1.387 . S
C554 C557 1.387 . S
H555 C551 0.950 . S
H556 C553 0.950 . S
C557 C548 1.390 . S
C557 H550 0.950 . S
C557 C554 1.387 . S
C558 C559 1.387 . S
C558 H562 0.950 . S
C558 C567 1.390 . S
C559 C558 1.387 . S
C559 C561 1.387 . S
H560 C567 0.950 . S
C561 C559 1.387 . S
C561 C563 1.390 . S
C561 H565 0.950 . S
H562 C558 0.950 . S
C563 C561 1.390 . S
C563 C564 1.387 . S
C563 H566 0.950 . S
C564 C563 1.387 . S
C564 C567 1.387 . S
H565 C561 0.950 . S
H566 C563 0.950 . S
C567 C558 1.390 . S
C567 H560 0.950 . S
C567 C564 1.387 . S
C568 C569 1.387 1_556 S
C568 H572 0.950 . S
C568 C577 1.390 . S
C569 C568 1.387 1_554 S
C569 C571 1.387 . S
H570 C577 0.950 . S
C571 C569 1.387 . S
C571 C573 1.390 . S
C571 H575 0.950 . S
H572 C568 0.950 . S
C573 C571 1.390 . S
C573 C574 1.387 . S
C573 H576 0.950 . S
C574 C573 1.387 . S
C574 C577 1.387 1_554 S
H575 C571 0.950 . S
H576 C573 0.950 . S
C577 C568 1.390 . S
C577 H570 0.950 . S
C577 C574 1.387 1_556 S
C578 C579 1.387 . S
C578 H582 0.950 . S
C578 C587 1.390 . S
C579 C578 1.387 . S
C579 C581 1.387 . S
H580 C587 0.950 . S
C581 C579 1.387 . S
C581 C583 1.390 . S
C581 H585 0.950 . S
H582 C578 0.950 . S
C583 C581 1.390 . S
C583 C584 1.387 . S
C583 H586 0.950 . S
C584 C583 1.387 . S
C584 C587 1.387 . S
H585 C581 0.950 . S
H586 C583 0.950 . S
C587 C578 1.390 . S
C587 H580 0.950 . S
C587 C584 1.387 . S
C588 C589 1.387 1_556 S
C588 H592 0.950 . S
C588 C597 1.390 . S
C589 C588 1.387 1_554 S
C589 C591 1.387 . S
H590 C597 0.950 . S
C591 C589 1.387 . S
C591 C593 1.390 . S
C591 H595 0.950 . S
H592 C588 0.950 . S
C593 C591 1.390 . S
C593 C594 1.387 . S
C593 H596 0.950 . S
C594 C593 1.387 . S
C594 C597 1.387 1_554 S
H595 C591 0.950 . S
H596 C593 0.950 . S
C597 C588 1.390 . S
C597 H590 0.950 . S
C597 C594 1.387 1_556 S
C598 C599 1.387 . S
C598 H602 0.950 . S
C598 C607 1.390 . S
C599 C598 1.387 . S
C599 C601 1.387 . S
H600 C607 0.950 . S
C601 C599 1.387 . S
C601 C603 1.390 . S
C601 H605 0.950 . S
H602 C598 0.950 . S
C603 C601 1.390 . S
C603 C604 1.387 . S
C603 H606 0.950 . S
C604 C603 1.387 . S
C604 C607 1.387 . S
H605 C601 0.950 . S
H606 C603 0.950 . S
C607 C598 1.390 . S
C607 H600 0.950 . S
C607 C604 1.387 . S
C608 C609 1.387 . S
C608 H612 0.950 . S
C608 C617 1.390 . S
C609 C608 1.387 . S
C609 C611 1.387 . S
H610 C617 0.950 . S
C611 C609 1.387 . S
C611 C613 1.390 . S
C611 H615 0.950 . S
H612 C608 0.950 . S
C613 C611 1.390 . S
C613 C614 1.387 . S
C613 H616 0.950 . S
C614 C613 1.387 . S
C614 C617 1.387 . S
H615 C611 0.950 . S
H616 C613 0.950 . S
C617 C608 1.390 . S
C617 H610 0.950 . S
C617 C614 1.387 . S
C618 C619 1.387 1_556 S
C618 H622 0.950 . S
C618 C627 1.390 . S
C619 C618 1.387 1_554 S
C619 C621 1.387 . S
H620 C627 0.950 . S
C621 C619 1.387 . S
C621 C623 1.390 . S
C621 H625 0.950 . S
H622 C618 0.950 . S
C623 C621 1.390 . S
C623 C624 1.387 . S
C623 H626 0.950 . S
C624 C623 1.387 . S
C624 C627 1.387 1_554 S
H625 C621 0.950 . S
H626 C623 0.950 . S
C627 C618 1.390 . S
C627 H620 0.950 . S
C627 C624 1.387 1_556 S
C628 C629 1.387 . S
C628 H632 0.950 . S
C628 C637 1.390 . S
C629 C628 1.387 . S
C629 C631 1.387 . S
H630 C637 0.950 . S
C631 C629 1.387 . S
C631 C633 1.390 . S
C631 H635 0.950 . S
H632 C628 0.950 . S
C633 C631 1.390 . S
C633 C634 1.387 . S
C633 H636 0.950 . S
C634 C633 1.387 . S
C634 C637 1.387 . S
H635 C631 0.950 . S
H636 C633 0.950 . S
C637 C628 1.390 . S
C637 H630 0.950 . S
C637 C634 1.387 . S
C638 C639 1.387 1_556 S
C638 H642 0.950 . S
C638 C647 1.390 . S
C639 C638 1.387 1_554 S
C639 C641 1.387 . S
H640 C647 0.950 . S
C641 C639 1.387 . S
C641 C643 1.390 . S
C641 H645 0.950 . S
H642 C638 0.950 . S
C643 C641 1.390 . S
C643 C644 1.387 . S
C643 H646 0.950 . S
C644 C643 1.387 . S
C644 C647 1.387 1_554 S
H645 C641 0.950 . S
H646 C643 0.950 . S
C647 C638 1.390 . S
C647 H640 0.950 . S
C647 C644 1.387 1_556 S
C409 C5 1.583 . S
C414 C210 1.573 . S
C419 C31 1.591 . S
C424 C90 1.582 . S
C434 C149 1.506 . S
C429 C53 1.608 . S
C439 C71 1.601 . S
C444 C189 1.501 . S
C454 C309 1.500 . S
C449 C75 1.601 . S
C464 C349 1.507 . S
C459 C9 1.609 . S
C474 C370 1.581 . S
C469 C27 1.591 . S
C484 C250 1.574 . S
C479 C49 1.583 . S
C489 C51 1.583 . S
C494 C130 1.513 . S
C499 C72 1.591 . S
C504 C170 1.518 . S
C509 C6 1.608 . S
C514 C229 1.576 . S
C524 C109 1.567 . S
C519 C29 1.601 . S
C529 C28 1.601 . S
C534 C389 1.567 . S
C544 C269 1.575 . S
C539 C50 1.608 . S
C554 C290 1.520 . S
C549 C73 1.591 . S
C559 C7 1.583 . S
C564 C330 1.511 . S
C574 C103 1.539 . S
C569 C4 1.558 . S
C584 C143 1.532 . S
C579 C30 1.558 . S
C589 C52 1.558 . S
C594 C183 1.534 . S
C599 C70 1.558 . S
C604 C223 1.539 . S
C614 C263 1.537 . S
C609 C74 1.558 . S
C619 C8 1.559 . S
C624 C303 1.532 . S
C629 C26 1.558 . S
C634 C343 1.531 . S
C639 C48 1.559 . S
C644 C383 1.538 . S
