# Generated by pormake.
# Topology ibd, (4,6)-cn, num edge types: 1
# Building blocks:
#     Node 0, Type 0, BuildingBlock: QUQFOY_clean_sbu_3, # of connection points: 4
#     Node 1, Type 0, BuildingBlock: QUQFOY_clean_sbu_3, # of connection points: 4
#     Node 2, Type 0, BuildingBlock: QUQFOY_clean_sbu_3, # of connection points: 4
#     Node 3, Type 0, BuildingBlock: QUQFOY_clean_sbu_3, # of connection points: 4
#     Node 4, Type 0, BuildingBlock: QUQFOY_clean_sbu_3, # of connection points: 4
#     Node 5, Type 0, BuildingBlock: QUQFOY_clean_sbu_3, # of connection points: 4
#     Node 6, Type 0, BuildingBlock: QUQFOY_clean_sbu_3, # of connection points: 4
#     Node 7, Type 0, BuildingBlock: QUQFOY_clean_sbu_3, # of connection points: 4
#     Node 8, Type 0, BuildingBlock: QUQFOY_clean_sbu_3, # of connection points: 4
#     Node 9, Type 0, BuildingBlock: QUQFOY_clean_sbu_3, # of connection points: 4
#     Node 10, Type 0, BuildingBlock: QUQFOY_clean_sbu_3, # of connection points: 4
#     Node 11, Type 0, BuildingBlock: QUQFOY_clean_sbu_3, # of connection points: 4
#     Node 12, Type 0, BuildingBlock: QUQFOY_clean_sbu_3, # of connection points: 4
#     Node 13, Type 0, BuildingBlock: QUQFOY_clean_sbu_3, # of connection points: 4
#     Node 14, Type 0, BuildingBlock: QUQFOY_clean_sbu_3, # of connection points: 4
#     Node 15, Type 0, BuildingBlock: QUQFOY_clean_sbu_3, # of connection points: 4
#     Node 16, Type 0, BuildingBlock: QUQFOY_clean_sbu_3, # of connection points: 4
#     Node 17, Type 0, BuildingBlock: QUQFOY_clean_sbu_3, # of connection points: 4
#     Node 18, Type 0, BuildingBlock: QUQFOY_clean_sbu_3, # of connection points: 4
#     Node 19, Type 0, BuildingBlock: QUQFOY_clean_sbu_3, # of connection points: 4
#     Node 20, Type 0, BuildingBlock: QUQFOY_clean_sbu_3, # of connection points: 4
#     Node 21, Type 0, BuildingBlock: QUQFOY_clean_sbu_3, # of connection points: 4
#     Node 22, Type 0, BuildingBlock: QUQFOY_clean_sbu_3, # of connection points: 4
#     Node 23, Type 0, BuildingBlock: QUQFOY_clean_sbu_3, # of connection points: 4
#     Node 24, Type 1, BuildingBlock: IZENUY_clean_sbu_0, # of connection points: 6
#     Node 25, Type 1, BuildingBlock: IZENUY_clean_sbu_0, # of connection points: 6
#     Node 26, Type 1, BuildingBlock: IZENUY_clean_sbu_0, # of connection points: 6
#     Node 27, Type 1, BuildingBlock: IZENUY_clean_sbu_0, # of connection points: 6
#     Node 28, Type 1, BuildingBlock: IZENUY_clean_sbu_0, # of connection points: 6
#     Node 29, Type 1, BuildingBlock: IZENUY_clean_sbu_0, # of connection points: 6
#     Node 30, Type 1, BuildingBlock: IZENUY_clean_sbu_0, # of connection points: 6
#     Node 31, Type 1, BuildingBlock: IZENUY_clean_sbu_0, # of connection points: 6
#     Node 32, Type 1, BuildingBlock: IZENUY_clean_sbu_0, # of connection points: 6
#     Node 33, Type 1, BuildingBlock: IZENUY_clean_sbu_0, # of connection points: 6
#     Node 34, Type 1, BuildingBlock: IZENUY_clean_sbu_0, # of connection points: 6
#     Node 35, Type 1, BuildingBlock: IZENUY_clean_sbu_0, # of connection points: 6
#     Node 36, Type 1, BuildingBlock: IZENUY_clean_sbu_0, # of connection points: 6
#     Node 37, Type 1, BuildingBlock: IZENUY_clean_sbu_0, # of connection points: 6
#     Node 38, Type 1, BuildingBlock: IZENUY_clean_sbu_0, # of connection points: 6
#     Node 39, Type 1, BuildingBlock: IZENUY_clean_sbu_0, # of connection points: 6
#     Edge 40, Type (0, 1), BuildingBlock: TEMPAE_clean_linker_10, # of connection points: 2
#     Edge 41, Type (0, 1), BuildingBlock: TEMPAE_clean_linker_10, # of connection points: 2
#     Edge 42, Type (0, 1), BuildingBlock: TEMPAE_clean_linker_10, # of connection points: 2
#     Edge 43, Type (0, 1), BuildingBlock: TEMPAE_clean_linker_10, # of connection points: 2
#     Edge 44, Type (0, 1), BuildingBlock: TEMPAE_clean_linker_10, # of connection points: 2
#     Edge 45, Type (0, 1), BuildingBlock: TEMPAE_clean_linker_10, # of connection points: 2
#     Edge 46, Type (0, 1), BuildingBlock: TEMPAE_clean_linker_10, # of connection points: 2
#     Edge 47, Type (0, 1), BuildingBlock: TEMPAE_clean_linker_10, # of connection points: 2
#     Edge 48, Type (0, 1), BuildingBlock: TEMPAE_clean_linker_10, # of connection points: 2
#     Edge 49, Type (0, 1), BuildingBlock: TEMPAE_clean_linker_10, # of connection points: 2
#     Edge 50, Type (0, 1), BuildingBlock: TEMPAE_clean_linker_10, # of connection points: 2
#     Edge 51, Type (0, 1), BuildingBlock: TEMPAE_clean_linker_10, # of connection points: 2
#     Edge 52, Type (0, 1), BuildingBlock: TEMPAE_clean_linker_10, # of connection points: 2
#     Edge 53, Type (0, 1), BuildingBlock: TEMPAE_clean_linker_10, # of connection points: 2
#     Edge 54, Type (0, 1), BuildingBlock: TEMPAE_clean_linker_10, # of connection points: 2
#     Edge 55, Type (0, 1), BuildingBlock: TEMPAE_clean_linker_10, # of connection points: 2
#     Edge 56, Type (0, 1), BuildingBlock: TEMPAE_clean_linker_10, # of connection points: 2
#     Edge 57, Type (0, 1), BuildingBlock: TEMPAE_clean_linker_10, # of connection points: 2
#     Edge 58, Type (0, 1), BuildingBlock: TEMPAE_clean_linker_10, # of connection points: 2
#     Edge 59, Type (0, 1), BuildingBlock: TEMPAE_clean_linker_10, # of connection points: 2
#     Edge 60, Type (0, 1), BuildingBlock: TEMPAE_clean_linker_10, # of connection points: 2
#     Edge 61, Type (0, 1), BuildingBlock: TEMPAE_clean_linker_10, # of connection points: 2
#     Edge 62, Type (0, 1), BuildingBlock: TEMPAE_clean_linker_10, # of connection points: 2
#     Edge 63, Type (0, 1), BuildingBlock: TEMPAE_clean_linker_10, # of connection points: 2
#     Edge 64, Type (0, 1), BuildingBlock: TEMPAE_clean_linker_10, # of connection points: 2
#     Edge 65, Type (0, 1), BuildingBlock: TEMPAE_clean_linker_10, # of connection points: 2
#     Edge 66, Type (0, 1), BuildingBlock: TEMPAE_clean_linker_10, # of connection points: 2
#     Edge 67, Type (0, 1), BuildingBlock: TEMPAE_clean_linker_10, # of connection points: 2
#     Edge 68, Type (0, 1), BuildingBlock: TEMPAE_clean_linker_10, # of connection points: 2
#     Edge 69, Type (0, 1), BuildingBlock: TEMPAE_clean_linker_10, # of connection points: 2
#     Edge 70, Type (0, 1), BuildingBlock: TEMPAE_clean_linker_10, # of connection points: 2
#     Edge 71, Type (0, 1), BuildingBlock: TEMPAE_clean_linker_10, # of connection points: 2
#     Edge 72, Type (0, 1), BuildingBlock: TEMPAE_clean_linker_10, # of connection points: 2
#     Edge 73, Type (0, 1), BuildingBlock: TEMPAE_clean_linker_10, # of connection points: 2
#     Edge 74, Type (0, 1), BuildingBlock: TEMPAE_clean_linker_10, # of connection points: 2
#     Edge 75, Type (0, 1), BuildingBlock: TEMPAE_clean_linker_10, # of connection points: 2
#     Edge 76, Type (0, 1), BuildingBlock: TEMPAE_clean_linker_10, # of connection points: 2
#     Edge 77, Type (0, 1), BuildingBlock: TEMPAE_clean_linker_10, # of connection points: 2
#     Edge 78, Type (0, 1), BuildingBlock: TEMPAE_clean_linker_10, # of connection points: 2
#     Edge 79, Type (0, 1), BuildingBlock: TEMPAE_clean_linker_10, # of connection points: 2
#     Edge 80, Type (0, 1), BuildingBlock: TEMPAE_clean_linker_10, # of connection points: 2
#     Edge 81, Type (0, 1), BuildingBlock: TEMPAE_clean_linker_10, # of connection points: 2
#     Edge 82, Type (0, 1), BuildingBlock: TEMPAE_clean_linker_10, # of connection points: 2
#     Edge 83, Type (0, 1), BuildingBlock: TEMPAE_clean_linker_10, # of connection points: 2
#     Edge 84, Type (0, 1), BuildingBlock: TEMPAE_clean_linker_10, # of connection points: 2
#     Edge 85, Type (0, 1), BuildingBlock: TEMPAE_clean_linker_10, # of connection points: 2
#     Edge 86, Type (0, 1), BuildingBlock: TEMPAE_clean_linker_10, # of connection points: 2
#     Edge 87, Type (0, 1), BuildingBlock: TEMPAE_clean_linker_10, # of connection points: 2
#     Edge 88, Type (0, 1), BuildingBlock: TEMPAE_clean_linker_10, # of connection points: 2
#     Edge 89, Type (0, 1), BuildingBlock: TEMPAE_clean_linker_10, # of connection points: 2
#     Edge 90, Type (0, 1), BuildingBlock: TEMPAE_clean_linker_10, # of connection points: 2
#     Edge 91, Type (0, 1), BuildingBlock: TEMPAE_clean_linker_10, # of connection points: 2
#     Edge 92, Type (0, 1), BuildingBlock: TEMPAE_clean_linker_10, # of connection points: 2
#     Edge 93, Type (0, 1), BuildingBlock: TEMPAE_clean_linker_10, # of connection points: 2
#     Edge 94, Type (0, 1), BuildingBlock: TEMPAE_clean_linker_10, # of connection points: 2
#     Edge 95, Type (0, 1), BuildingBlock: TEMPAE_clean_linker_10, # of connection points: 2
#     Edge 96, Type (0, 1), BuildingBlock: TEMPAE_clean_linker_10, # of connection points: 2
#     Edge 97, Type (0, 1), BuildingBlock: TEMPAE_clean_linker_10, # of connection points: 2
#     Edge 98, Type (0, 1), BuildingBlock: TEMPAE_clean_linker_10, # of connection points: 2
#     Edge 99, Type (0, 1), BuildingBlock: TEMPAE_clean_linker_10, # of connection points: 2
#     Edge 100, Type (0, 1), BuildingBlock: TEMPAE_clean_linker_10, # of connection points: 2
#     Edge 101, Type (0, 1), BuildingBlock: TEMPAE_clean_linker_10, # of connection points: 2
#     Edge 102, Type (0, 1), BuildingBlock: TEMPAE_clean_linker_10, # of connection points: 2
#     Edge 103, Type (0, 1), BuildingBlock: TEMPAE_clean_linker_10, # of connection points: 2
#     Edge 104, Type (0, 1), BuildingBlock: TEMPAE_clean_linker_10, # of connection points: 2
#     Edge 105, Type (0, 1), BuildingBlock: TEMPAE_clean_linker_10, # of connection points: 2
#     Edge 106, Type (0, 1), BuildingBlock: TEMPAE_clean_linker_10, # of connection points: 2
#     Edge 107, Type (0, 1), BuildingBlock: TEMPAE_clean_linker_10, # of connection points: 2
#     Edge 108, Type (0, 1), BuildingBlock: TEMPAE_clean_linker_10, # of connection points: 2
#     Edge 109, Type (0, 1), BuildingBlock: TEMPAE_clean_linker_10, # of connection points: 2
#     Edge 110, Type (0, 1), BuildingBlock: TEMPAE_clean_linker_10, # of connection points: 2
#     Edge 111, Type (0, 1), BuildingBlock: TEMPAE_clean_linker_10, # of connection points: 2
#     Edge 112, Type (0, 1), BuildingBlock: TEMPAE_clean_linker_10, # of connection points: 2
#     Edge 113, Type (0, 1), BuildingBlock: TEMPAE_clean_linker_10, # of connection points: 2
#     Edge 114, Type (0, 1), BuildingBlock: TEMPAE_clean_linker_10, # of connection points: 2
#     Edge 115, Type (0, 1), BuildingBlock: TEMPAE_clean_linker_10, # of connection points: 2
#     Edge 116, Type (0, 1), BuildingBlock: TEMPAE_clean_linker_10, # of connection points: 2
#     Edge 117, Type (0, 1), BuildingBlock: TEMPAE_clean_linker_10, # of connection points: 2
#     Edge 118, Type (0, 1), BuildingBlock: TEMPAE_clean_linker_10, # of connection points: 2
#     Edge 119, Type (0, 1), BuildingBlock: TEMPAE_clean_linker_10, # of connection points: 2
#     Edge 120, Type (0, 1), BuildingBlock: TEMPAE_clean_linker_10, # of connection points: 2
#     Edge 121, Type (0, 1), BuildingBlock: TEMPAE_clean_linker_10, # of connection points: 2
#     Edge 122, Type (0, 1), BuildingBlock: TEMPAE_clean_linker_10, # of connection points: 2
#     Edge 123, Type (0, 1), BuildingBlock: TEMPAE_clean_linker_10, # of connection points: 2
#     Edge 124, Type (0, 1), BuildingBlock: TEMPAE_clean_linker_10, # of connection points: 2
#     Edge 125, Type (0, 1), BuildingBlock: TEMPAE_clean_linker_10, # of connection points: 2
#     Edge 126, Type (0, 1), BuildingBlock: TEMPAE_clean_linker_10, # of connection points: 2
#     Edge 127, Type (0, 1), BuildingBlock: TEMPAE_clean_linker_10, # of connection points: 2
#     Edge 128, Type (0, 1), BuildingBlock: TEMPAE_clean_linker_10, # of connection points: 2
#     Edge 129, Type (0, 1), BuildingBlock: TEMPAE_clean_linker_10, # of connection points: 2
#     Edge 130, Type (0, 1), BuildingBlock: TEMPAE_clean_linker_10, # of connection points: 2
#     Edge 131, Type (0, 1), BuildingBlock: TEMPAE_clean_linker_10, # of connection points: 2
#     Edge 132, Type (0, 1), BuildingBlock: TEMPAE_clean_linker_10, # of connection points: 2
#     Edge 133, Type (0, 1), BuildingBlock: TEMPAE_clean_linker_10, # of connection points: 2
#     Edge 134, Type (0, 1), BuildingBlock: TEMPAE_clean_linker_10, # of connection points: 2
#     Edge 135, Type (0, 1), BuildingBlock: TEMPAE_clean_linker_10, # of connection points: 2
# Relax obj value: 0.309
# Max RMSD: 0.289
# Mean RMSD: 0.261
data_MOF--net-ibd--node1-QUQFOY_clean_sbu_3--node2-IZENUY_clean_sbu_0--edge1-TEMPAE_clean_linker_10
_symmetry_space_group_name_H-M    P1
_symmetry_Int_Tables_number       1
_symmetry_cell_setting            triclinic
loop_
_symmetry_equiv_pos_as_xyz
'x, y, z'
_cell_length_a     49.863989
_cell_length_b     49.928163
_cell_length_c     49.932223
_cell_angle_alpha  90.082225
_cell_angle_beta   90.035936
_cell_angle_gamma 91.305567
loop_
_atom_site_label
_atom_site_type_symbol
_atom_site_fract_x
_atom_site_fract_y
_atom_site_fract_z
_atom_type_partial_charge
C0 C 0.97523 0.18986 0.40387 0.0
O1 O 0.95192 0.19272 0.3942 0.0
Cd2 Cd 0.94565 0.22921 0.3646 0.0
O3 O -0.00435 0.20113 0.39305 0.0
Cd4 Cd 0.00816 0.2253 0.35168 0.0
C5 C -0.0077 0.27387 0.39338 0.0
O6 O 0.96867 0.21663 0.3251 0.0
O7 O -0.00687 0.25054 0.31267 0.0
O8 O 0.03419 0.18782 0.33817 0.0
C9 C 0.97283 0.23535 0.30843 0.0
O10 O 0.96832 0.26472 0.39116 0.0
C11 C 0.05554 0.20129 0.3333 0.0
O12 O 0.01133 0.26397 0.37998 0.0
O13 O 0.0552 0.22632 0.338 0.0
C14 C 0.042 0.80868 0.60259 0.0
O15 O 0.02141 0.82197 0.60844 0.0
Cd16 Cd 0.98215 0.80196 0.62748 0.0
O17 O 0.04348 0.7841 0.60913 0.0
Cd18 Cd 0.01708 0.75075 0.63498 0.0
C19 C 0.97335 0.74822 0.58463 0.0
O20 O -0.00325 0.78001 0.66711 0.0
O21 O 0.97647 0.74183 0.66136 0.0
O22 O 0.05701 0.73666 0.65843 0.0
C23 C 0.9786 0.76351 0.67448 0.0
O24 O 0.96476 0.77063 0.5929 0.0
C25 C 0.05219 0.71178 0.65507 0.0
O26 O -0.00671 0.7374 0.59571 0.0
O27 O 0.03154 0.70523 0.6415 0.0
C28 C 0.45665 0.70121 0.90672 0.0
O29 O 0.43376 0.70784 0.89813 0.0
Cd30 Cd 0.43021 0.74519 0.86878 0.0
O31 O 0.47807 0.70971 0.89542 0.0
Cd32 Cd 0.4925 0.73408 0.85479 0.0
C33 C 0.48129 0.7845 0.89687 0.0
O34 O 0.45185 0.73228 0.8287 0.0
O35 O 0.48122 0.7625 0.81711 0.0
O36 O 0.51637 0.69609 0.83785 0.0
C37 C 0.4586 0.75113 0.81298 0.0
O38 O 0.45636 0.77862 0.89473 0.0
C39 C 0.53864 0.7087 0.83506 0.0
O40 O 0.49884 0.77177 0.88388 0.0
O41 O 0.53958 0.73308 0.84246 0.0
C42 C 0.52409 0.30408 0.10417 0.0
O43 O 0.50442 0.31954 0.10707 0.0
Cd44 Cd 0.46457 0.306 0.12971 0.0
O45 O 0.52392 0.28097 0.11499 0.0
Cd46 Cd 0.49541 0.25374 0.14546 0.0
C47 C 0.45112 0.24767 0.09496 0.0
O48 O 0.48261 0.2916 0.1716 0.0
O49 O 0.46038 0.2552 0.1805 0.0
O50 O 0.53709 0.23964 0.16569 0.0
C51 C 0.46615 0.27929 0.18664 0.0
O52 O 0.44495 0.27193 0.09922 0.0
C53 C 0.52956 0.2153 0.16816 0.0
O54 O 0.46906 0.23668 0.10891 0.0
O55 O 0.50641 0.20887 0.15936 0.0
C56 C 0.93336 0.70748 0.13908 0.0
O57 O 0.91643 0.7254 0.13406 0.0
Cd58 Cd 0.92961 0.76698 0.11428 0.0
O59 O 0.95765 0.71038 0.13155 0.0
Cd60 Cd 0.9862 0.74121 0.10489 0.0
C61 C 0.98308 0.78481 0.15538 0.0
O62 O 0.9524 0.75554 0.074 0.0
O63 O 0.98748 0.78153 0.07702 0.0
O64 O 0.00204 0.70114 0.08335 0.0
C65 C 0.9656 0.77563 0.06529 0.0
O66 O 0.95914 0.78903 0.14771 0.0
C67 C 0.02652 0.70859 0.08268 0.0
O68 O -0.00284 0.76721 0.14396 0.0
O69 O 0.03252 0.73123 0.09297 0.0
C70 C 0.49656 0.77759 0.32915 0.0
O71 O 0.47596 0.79199 0.33131 0.0
Cd72 Cd 0.44497 0.79175 0.36847 0.0
O73 O 0.50214 0.76051 0.3471 0.0
Cd74 Cd 0.4824 0.744 0.38909 0.0
C75 C 0.42104 0.728 0.3624 0.0
O76 O 0.47292 0.78793 0.40716 0.0
O77 O 0.46006 0.75411 0.43108 0.0
O78 O 0.52639 0.73209 0.40587 0.0
C79 C 0.46205 0.77931 0.42846 0.0
O80 O 0.41524 0.75269 0.36167 0.0
C81 C 0.51994 0.70762 0.40974 0.0
O82 O 0.44419 0.72086 0.3698 0.0
O83 O 0.49622 0.70026 0.40351 0.0
C84 C 0.41344 0.23185 0.63821 0.0
O85 O 0.40051 0.2535 0.63815 0.0
Cd86 Cd 0.41831 0.29525 0.62178 0.0
O87 O 0.43637 0.23068 0.62708 0.0
Cd88 Cd 0.46872 0.25764 0.60091 0.0
C89 C 0.4787 0.29565 0.65618 0.0
O90 O 0.43693 0.28512 0.57955 0.0
O91 O 0.47831 0.29836 0.57483 0.0
O92 O 0.47587 0.22459 0.56636 0.0
C93 C 0.45369 0.30192 0.57002 0.0
O94 O 0.45522 0.30478 0.65306 0.0
C95 C 0.5002 0.22068 0.57248 0.0
O96 O 0.488 0.27815 0.64037 0.0
O97 O 0.50986 0.23369 0.59226 0.0
C98 C 0.00368 0.29468 0.83341 0.0
O99 O 0.98193 0.30745 0.83408 0.0
Cd100 Cd 0.94807 0.30451 0.8683 0.0
O101 O 0.00922 0.27807 0.85182 0.0
Cd102 Cd 0.98572 0.26099 0.89195 0.0
C103 C 0.92967 0.23993 0.85852 0.0
O104 O 0.97145 0.30378 0.91026 0.0
O105 O 0.95555 0.26803 0.92919 0.0
O106 O 0.02671 0.25166 0.91682 0.0
C107 C 0.95814 0.29332 0.92929 0.0
O108 O 0.92157 0.26392 0.85809 0.0
C109 C 0.02118 0.22679 0.91929 0.0
O110 O 0.95265 0.23474 0.86789 0.0
O111 O -0.00023 0.21808 0.90829 0.0
C112 C 0.41184 0.93805 0.23204 0.0
O113 O 0.40616 0.92558 0.25354 0.0
Cd114 Cd 0.37272 0.9403 0.28409 0.0
O115 O 0.40057 0.95992 0.22632 0.0
Cd116 Cd 0.36758 0.98923 0.24666 0.0
C117 C 0.40363 -0.00204 0.30371 0.0
O118 O 0.33684 0.95225 0.25432 0.0
O119 O 0.32444 0.99001 0.27071 0.0
O120 O 0.35671 0.0006 0.20092 0.0
C121 C 0.31841 0.96604 0.26432 0.0
O122 O 0.39519 0.97497 0.3113 0.0
C123 C 0.35454 0.02551 0.20522 0.0
O124 O 0.39752 0.00679 0.28071 0.0
O125 O 0.35999 0.03379 0.2287 0.0
C126 C 0.32946 0.09384 0.50964 0.0
O127 O 0.34033 0.09125 0.4868 0.0
Cd128 Cd 0.32034 0.10936 0.447 0.0
O129 O 0.30721 0.10556 0.51189 0.0
Cd130 Cd 0.27475 0.12793 0.48373 0.0
C131 C 0.26156 0.07447 0.4433 0.0
O132 O 0.30908 0.15451 0.46004 0.0
O133 O 0.26776 0.16187 0.44988 0.0
O134 O 0.26344 0.15101 0.52527 0.0
C135 C 0.29228 0.16863 0.44774 0.0
O136 O 0.28433 0.0781 0.43224 0.0
C137 C 0.23827 0.1491 0.52145 0.0
O138 O 0.25465 0.08916 0.46271 0.0
O139 O 0.23039 0.13709 0.50037 0.0
C140 C 0.13891 0.91547 0.75845 0.0
O141 O 0.14437 0.90834 0.7822 0.0
Cd142 Cd 0.13603 0.93723 0.81979 0.0
O143 O 0.12856 0.9381 0.75412 0.0
Cd144 Cd 0.11304 0.97685 0.77902 0.0
C145 C 0.17403 -0.00746 0.80485 0.0
O146 O 0.09054 0.95163 0.81442 0.0
O147 O 0.0899 -0.00517 0.81765 0.0
O148 O 0.07604 0.98204 0.74795 0.0
C149 C 0.08102 0.9722 0.82554 0.0
O150 O 0.17133 0.97221 0.82003 0.0
C151 C 0.08355 0.00515 0.74003 0.0
O152 O 0.15604 -0.0021 0.78784 0.0
O153 O 0.10516 0.01486 0.7498 0.0
C154 C 0.29586 0.82928 0.01325 0.0
O155 O 0.30959 0.82865 -0.00817 0.0
Cd156 Cd 0.3011 0.85674 0.95403 0.0
O157 O 0.27528 0.84376 0.015 0.0
Cd158 Cd 0.25069 0.87393 0.98597 0.0
C159 C 0.24158 0.82991 0.93483 0.0
O160 O 0.29156 0.89838 0.9758 0.0
O161 O 0.25618 0.91294 0.95629 0.0
O162 O 0.23681 0.8933 0.0279 0.0
C163 C 0.28071 0.91653 0.96227 0.0
O164 O 0.26568 0.83462 0.92765 0.0
C165 C 0.2125 0.89612 0.02113 0.0
O166 O 0.23237 0.84029 0.95605 0.0
O167 O 0.20567 0.88762 -0.00191 0.0
C168 C 0.26206 0.33366 0.0568 0.0
O169 O 0.2861 0.33731 0.06456 0.0
Cd170 Cd 0.31538 0.36786 0.04127 0.0
O171 O 0.2528 0.34727 0.03752 0.0
Cd172 Cd 0.26728 0.3833 0.00743 0.0
C173 C 0.31023 0.34261 0.97794 0.0
O174 O 0.29253 0.41 0.03925 0.0
O175 O 0.30018 0.4192 -0.00238 0.0
O176 O 0.22302 0.40346 0.00931 0.0
C177 C 0.30265 0.4258 0.02202 0.0
O178 O 0.32537 0.34573 -0.00169 0.0
C179 C 0.22064 0.40441 0.984 0.0
O180 O 0.28746 0.35328 0.97717 0.0
O181 O 0.2396 0.39501 0.97022 0.0
C182 C 0.71198 0.06176 0.01661 0.0
O183 O 0.73357 0.06898 0.0284 0.0
Cd184 Cd 0.76113 0.10757 0.01846 0.0
O185 O 0.70313 0.07481 -0.00333 0.0
Cd186 Cd 0.71762 0.11409 0.97017 0.0
C187 C 0.77912 0.08952 0.95551 0.0
O188 O 0.72881 0.14044 0.00865 0.0
O189 O 0.73898 0.15914 0.97114 0.0
O190 O 0.6718 0.1263 0.96056 0.0
C191 C 0.738 0.16076 -0.00356 0.0
O192 O 0.78704 0.09472 0.97924 0.0
C193 C 0.67511 0.12759 0.93536 0.0
O194 O 0.75497 0.09334 0.9486 0.0
O195 O 0.69778 0.12079 0.92638 0.0
C196 C 0.15618 0.51196 0.18251 0.0
O197 O 0.15271 0.49028 0.16948 0.0
Cd198 Cd 0.12298 0.45425 0.18331 0.0
O199 O 0.14336 0.51595 0.20411 0.0
Cd200 Cd 0.11104 0.49128 0.23207 0.0
C201 C 0.15443 0.44102 0.24139 0.0
O202 O 0.08129 0.47294 0.1977 0.0
O203 O 0.07664 0.45683 0.23765 0.0
O204 O 0.08778 0.53178 0.24381 0.0
C205 C 0.06775 0.45857 0.21395 0.0
O206 O 0.14782 0.43156 0.21858 0.0
C207 C 0.09043 0.52892 0.26894 0.0
O208 O 0.14506 0.46301 0.24962 0.0
O209 O 0.10376 0.50906 0.27685 0.0
C210 C 0.77002 0.83247 0.55093 0.0
O211 O 0.79447 0.8322 0.55799 0.0
Cd212 Cd 0.82765 0.85905 0.53573 0.0
O213 O 0.76256 0.8476 0.53195 0.0
Cd214 Cd 0.78283 0.88127 0.5016 0.0
C215 C 0.82041 0.83563 0.47184 0.0
O216 O 0.80979 0.90351 0.5354 0.0
O217 O 0.81976 0.91414 0.49465 0.0
O218 O 0.74042 0.90484 0.50414 0.0
C219 C 0.82197 0.9192 0.51943 0.0
O220 O 0.83531 0.83683 0.49254 0.0
C221 C 0.73954 0.90958 0.47918 0.0
O222 O 0.79913 0.84897 0.4707 0.0
O223 O 0.75842 0.90065 0.46497 0.0
C224 C 0.91015 0.00551 0.18404 0.0
O225 O 0.91003 0.98118 0.17649 0.0
Cd226 Cd 0.88267 0.94541 0.19425 0.0
O227 O 0.89397 0.01348 0.20199 0.0
Cd228 Cd 0.85762 -0.00674 0.2294 0.0
C229 C 0.90203 0.95198 0.25934 0.0
O230 O 0.83906 0.96418 0.19451 0.0
O231 O 0.82048 0.96056 0.23339 0.0
O232 O 0.83231 0.03499 0.23164 0.0
C233 C 0.82095 0.95363 0.20903 0.0
O234 O 0.90246 0.93737 0.23843 0.0
C235 C 0.83068 0.03427 0.25709 0.0
O236 O 0.88821 0.97298 0.25996 0.0
O237 O 0.84243 0.01535 0.26887 0.0
C238 C 0.19373 0.57912 0.52254 0.0
O239 O 0.21472 0.58615 0.53549 0.0
Cd240 Cd 0.24138 0.62659 0.53128 0.0
O241 O 0.18455 0.59378 0.50395 0.0
Cd242 Cd 0.19864 0.63601 0.48227 0.0
C243 C 0.26226 0.61681 0.46745 0.0
O244 O 0.2092 0.65981 0.52295 0.0
O245 O 0.21894 0.68095 0.48665 0.0
O246 O 0.15414 0.65084 0.47028 0.0
C247 C 0.21855 0.68082 0.512 0.0
O248 O 0.26922 0.61975 0.49184 0.0
C249 C 0.15893 0.65143 0.44526 0.0
O250 O 0.23804 0.61979 0.46026 0.0
O251 O 0.1815 0.64301 0.43766 0.0
C252 C 0.41501 0.4973 0.67855 0.0
O253 O 0.41764 0.47295 0.67183 0.0
Cd254 Cd 0.39529 0.43577 0.69279 0.0
O255 O 0.39925 0.5036 0.69752 0.0
Cd256 Cd 0.36852 0.47952 0.72847 0.0
C257 C 0.41916 0.44476 0.75606 0.0
O258 O 0.34948 0.44932 0.69447 0.0
O259 O 0.33523 0.44339 0.73487 0.0
O260 O 0.34016 0.51916 0.73018 0.0
C261 C 0.3332 0.43766 0.71025 0.0
O262 O 0.41921 0.43014 0.73516 0.0
C263 C 0.3377 0.51829 0.75552 0.0
O264 O 0.4034 0.46426 0.75788 0.0
O265 O 0.35045 0.50033 0.76773 0.0
C266 C 0.66423 0.02242 0.68989 0.0
O267 O 0.65885 0.00044 0.67797 0.0
Cd268 Cd 0.62257 0.96965 0.68879 0.0
O269 O 0.65037 0.02979 0.70988 0.0
Cd270 Cd 0.61279 0.01119 0.73609 0.0
C271 C 0.64315 0.95306 0.75106 0.0
O272 O 0.5846 -0.00394 0.69899 0.0
O273 O 0.57216 0.98355 0.73851 0.0
O274 O 0.59434 0.05468 0.74643 0.0
C275 C 0.56722 0.98439 0.71364 0.0
O276 O 0.63727 0.94437 0.72776 0.0
C277 C 0.59582 0.05181 0.77168 0.0
O278 O 0.63842 0.97706 0.75776 0.0
O279 O 0.60646 0.03059 0.78017 0.0
C280 C 0.82509 0.5755 0.04442 0.0
O281 O 0.8382 0.57291 0.02281 0.0
Cd282 Cd 0.8201 0.58703 0.98071 0.0
O283 O 0.80172 0.58516 0.04397 0.0
Cd284 Cd 0.77085 0.60333 0.01079 0.0
C285 C 0.76445 0.54725 0.97386 0.0
O286 O 0.80409 0.63183 0.98836 0.0
O287 O 0.76522 0.62884 0.96943 0.0
O288 O 0.75518 0.6308 0.04768 0.0
C289 C 0.78794 0.64058 0.97105 0.0
O290 O 0.78747 0.55287 0.96409 0.0
C291 C 0.73047 0.62732 0.04225 0.0
O292 O 0.75504 0.56143 -0.00743 0.0
O293 O 0.72467 0.61235 0.02245 0.0
C294 C 0.90963 0.45101 0.72055 0.0
O295 O 0.90644 0.43651 0.74122 0.0
Cd296 Cd 0.87512 0.44444 0.77618 0.0
O297 O 0.8968 0.47248 0.71723 0.0
Cd298 Cd 0.86368 0.49739 0.74321 0.0
C299 C 0.90351 0.50233 0.79843 0.0
O300 O 0.83725 0.45744 0.75027 0.0
O301 O 0.82195 0.49207 0.77015 0.0
O302 O 0.84939 0.51447 0.7002 0.0
C303 C 0.81863 0.46767 0.76361 0.0
O304 O 0.89698 0.47837 0.80467 0.0
C305 C 0.84683 0.53844 0.70818 0.0
O306 O 0.89528 0.5126 0.77675 0.0
O307 O 0.85288 0.54338 0.73242 0.0
C308 C 0.78634 0.33065 0.52464 0.0
O309 O 0.7975 0.33239 0.50182 0.0
Cd310 Cd 0.78641 0.36397 0.46803 0.0
O311 O 0.76617 0.34477 0.53046 0.0
Cd312 Cd 0.73891 0.37727 0.50582 0.0
C313 C 0.72604 0.33763 0.45159 0.0
O314 O 0.77884 0.40279 0.49508 0.0
O315 O 0.74282 0.41843 0.47803 0.0
O316 O 0.72547 0.39431 0.5494 0.0
C317 C 0.76754 0.42177 0.48326 0.0
O318 O 0.74919 0.34386 0.44261 0.0
C319 C 0.70108 0.3973 0.54294 0.0
O320 O 0.71876 0.34564 0.47456 0.0
O321 O 0.69419 0.3897 0.51963 0.0
C322 C 0.63039 0.43943 0.23471 0.0
O323 O 0.62446 0.43227 0.25839 0.0
Cd324 Cd 0.61087 0.46409 0.29085 0.0
O325 O 0.6279 0.46367 0.22733 0.0
Cd326 Cd 0.61116 0.50635 0.24466 0.0
C327 C 0.66265 0.51072 0.28727 0.0
O328 O 0.57473 0.48602 0.26877 0.0
O329 O 0.58318 0.52716 0.27963 0.0
O330 O 0.59159 0.51319 0.20073 0.0
C331 C 0.56758 0.50683 0.28101 0.0
O332 O 0.65098 0.49234 0.30095 0.0
C333 C 0.59748 0.53804 0.19983 0.0
O334 O 0.65275 0.51847 0.26528 0.0
O335 O 0.611 0.54772 0.21923 0.0
Fe336 Fe 0.13897 0.08884 0.14329 0.0
Fe337 Fe 0.11505 0.14019 0.12047 0.0
O338 O 0.13745 0.11333 0.11774 0.0
Fe339 Fe 0.15863 0.11097 0.08936 0.0
O340 O 0.1436 0.07898 0.08008 0.0
O341 O 0.14648 0.06139 0.12033 0.0
O342 O 0.10403 0.07964 0.13905 0.0
C343 C 0.08482 0.09556 0.13977 0.0
C344 C 0.19208 0.09571 0.13174 0.0
O345 O 0.08867 0.12061 0.13757 0.0
C346 C 0.16277 0.1643 0.10073 0.0
O347 O 0.1316 0.11184 0.17071 0.0
O348 O 0.12983 0.15138 0.15165 0.0
O349 O 0.18613 0.09509 0.10715 0.0
O350 O 0.17405 0.09647 0.14934 0.0
C351 C 0.11034 0.1298 0.06714 0.0
O352 O 0.13759 0.16453 0.10402 0.0
O353 O 0.17484 0.14268 0.09717 0.0
C354 C 0.13308 0.13711 0.17207 0.0
O355 O 0.09855 0.13111 0.08937 0.0
O356 O 0.1354 0.12671 0.06611 0.0
C357 C 0.14253 0.0589 0.09538 0.0
Fe358 Fe 0.07367 0.85773 0.37476 0.0
Fe359 Fe 0.10036 0.90461 0.3444 0.0
O360 O 0.10255 0.87748 0.36712 0.0
Fe361 Fe 0.13353 0.86994 0.38239 0.0
O362 O 0.13312 0.83654 0.36802 0.0
O363 O 0.09172 0.8268 0.37996 0.0
O364 O 0.06975 0.84773 0.34022 0.0
C365 C 0.06733 0.86376 0.32092 0.0
C366 C 0.09617 0.86277 0.4242 0.0
O367 O 0.07479 0.88813 0.32305 0.0
C368 C 0.13606 0.92451 0.38477 0.0
O369 O 0.05013 0.88473 0.37062 0.0
O370 O 0.07514 0.92079 0.36459 0.0
O371 O 0.11868 0.85801 0.41379 0.0
O372 O 0.07587 0.86668 0.4098 0.0
C373 C 0.14881 0.88518 0.3297 0.0
O374 O 0.12565 0.92566 0.36164 0.0
O375 O 0.13619 0.90278 0.39763 0.0
C376 C 0.05285 0.90992 0.37042 0.0
O377 O 0.12541 0.89076 0.32235 0.0
O378 O 0.15397 0.88079 0.35405 0.0
C379 C 0.11421 0.81966 0.37119 0.0
Fe380 Fe 0.34362 0.89887 0.65623 0.0
Fe381 Fe 0.32028 0.88287 0.60158 0.0
O382 O 0.34396 0.87835 0.62739 0.0
Fe383 Fe 0.36805 0.85322 0.62429 0.0
O384 O 0.35575 0.83657 0.65392 0.0
O385 O 0.35551 0.87266 0.67901 0.0
O386 O 0.31003 0.8878 0.66438 0.0
C387 C 0.2903 0.88894 0.64875 0.0
C388 C 0.39725 0.89667 0.64728 0.0
O389 O 0.29341 0.89349 0.62402 0.0
C390 C 0.3683 0.87225 0.57351 0.0
O391 O 0.33205 0.92872 0.63854 0.0
O392 O 0.33214 0.91663 0.59611 0.0
O393 O 0.39444 0.87173 0.64299 0.0
O394 O 0.37712 0.91118 0.64962 0.0
C395 C 0.32069 0.82867 0.60374 0.0
O396 O 0.34289 0.87269 0.57437 0.0
O397 O 0.38164 0.8686 0.59451 0.0
C398 C 0.3337 0.93448 0.61389 0.0
O399 O 0.30709 0.84943 0.60587 0.0
O400 O 0.34609 0.83003 0.605 0.0
C401 C 0.35515 0.84734 0.67669 0.0
Fe402 Fe 0.40573 0.16296 0.86702 0.0
Fe403 Fe 0.38846 0.10651 0.84859 0.0
O404 O 0.38333 0.13496 0.86903 0.0
Fe405 Fe 0.35582 0.13556 0.8914 0.0
O406 O 0.34232 0.1649 0.87537 0.0
O407 O 0.38047 0.18761 0.87475 0.0
O408 O 0.39765 0.16778 0.83207 0.0
C409 C 0.39892 0.14996 0.81422 0.0
C410 C 0.39805 0.16038 0.92103 0.0
O411 O 0.40188 0.12563 0.82023 0.0
C412 C 0.37123 0.08398 0.89803 0.0
O413 O 0.43524 0.14354 0.85875 0.0
O414 O 0.42152 0.10171 0.86263 0.0
O415 O 0.37335 0.15588 0.91668 0.0
O416 O 0.41487 0.15997 0.9021 0.0
C417 C 0.33393 0.10913 0.84569 0.0
O418 O 0.3756 0.08246 0.87314 0.0
O419 O 0.36722 0.10625 0.90907 0.0
C420 C 0.44025 0.11909 0.86208 0.0
O421 O 0.35577 0.10903 0.83302 0.0
O422 O 0.33337 0.11524 0.87027 0.0
C423 C 0.3552 0.18678 0.87298 0.0
Fe424 Fe 0.58317 0.33635 0.87547 0.0
Fe425 Fe 0.61344 0.3843 0.85091 0.0
O426 O 0.61297 0.35588 0.87202 0.0
Fe427 Fe 0.64218 0.34673 0.88964 0.0
O428 O 0.64251 0.31426 0.87333 0.0
O429 O 0.60005 0.30471 0.88086 0.0
O430 O 0.58289 0.32834 0.84023 0.0
C431 C 0.58253 0.3456 0.82185 0.0
C432 C 0.60051 0.33822 0.92703 0.0
O433 O 0.58972 0.36972 0.82637 0.0
C434 C 0.64563 0.40095 0.89546 0.0
O435 O 0.56059 0.36417 0.87041 0.0
O436 O 0.58677 0.39991 0.86959 0.0
O437 O 0.62392 0.3334 0.91878 0.0
O438 O 0.5819 0.34334 0.91087 0.0
C439 C 0.66273 0.36519 0.83965 0.0
O440 O 0.63744 0.40373 0.8716 0.0
O441 O 0.64396 0.37852 0.90699 0.0
C442 C 0.56374 0.38931 0.87213 0.0
O443 O 0.63998 0.37088 0.83064 0.0
O444 O 0.66565 0.35893 0.864 0.0
C445 C 0.62318 0.29755 0.874 0.0
Fe446 Fe 0.81589 0.36613 0.11212 0.0
Fe447 Fe 0.8367 0.37119 0.1697 0.0
O448 O 0.83904 0.35735 0.13719 0.0
Fe449 Fe 0.86472 0.33482 0.12964 0.0
O450 O 0.87822 0.35698 0.10426 0.0
O451 O 0.83982 0.36356 0.08426 0.0
O452 O 0.82578 0.40082 0.11461 0.0
C453 C 0.8254 0.41452 0.13577 0.0
C454 C 0.81972 0.31318 0.1017 0.0
O455 O 0.82378 0.40355 0.15857 0.0
C456 C 0.85142 0.31729 0.17925 0.0
O457 O 0.78795 0.37013 0.13537 0.0
O458 O 0.80344 0.35686 0.17424 0.0
O459 O 0.84486 0.31535 0.10506 0.0
O460 O 0.80462 0.33191 0.10822 0.0
C461 C 0.89073 0.37367 0.16215 0.0
O462 O 0.8496 0.3415 0.18662 0.0
O463 O 0.85278 0.31145 0.15475 0.0
C464 C 0.7841 0.36059 0.15854 0.0
O465 O 0.86977 0.38638 0.16702 0.0
O466 O 0.88934 0.35015 0.15267 0.0
C467 C 0.86523 0.36453 0.08412 0.0
Fe468 Fe 0.85827 0.62813 0.39445 0.0
Fe469 Fe 0.90884 0.65013 0.36664 0.0
O470 O 0.88519 0.62373 0.37191 0.0
Fe471 Fe 0.88847 0.59309 0.35447 0.0
O472 O 0.85586 0.59604 0.339 0.0
O473 O 0.83439 0.60693 0.37572 0.0
O474 O 0.84598 0.65626 0.37556 0.0
C475 C 0.85972 0.6772 0.37087 0.0
C476 C 0.87045 0.57669 0.40611 0.0
O477 O 0.88504 0.67691 0.372 0.0
C478 C 0.9409 0.604 0.36603 0.0
O479 O 0.87736 0.65013 0.41734 0.0
O480 O 0.91854 0.65038 0.40152 0.0
O481 O 0.87447 0.57242 0.38147 0.0
O482 O 0.86847 0.60024 0.4149 0.0
C483 C 0.90157 0.63216 0.31557 0.0
O484 O 0.93711 0.62826 0.3602 0.0
O485 O 0.9213 0.58786 0.3688 0.0
C486 C 0.90235 0.65413 0.42049 0.0
O487 O 0.90039 0.65161 0.33159 0.0
O488 O 0.90271 0.60835 0.32407 0.0
C489 C 0.83429 0.59851 0.35182 0.0
Fe490 Fe 0.87667 0.84674 0.8655 0.0
Fe491 Fe 0.82592 0.87022 0.88952 0.0
O492 O 0.84988 0.869 0.86348 0.0
Fe493 Fe 0.84743 0.89025 0.83541 0.0
O494 O 0.87934 0.90619 0.8431 0.0
O495 O 0.9007 0.86854 0.84738 0.0
O496 O 0.88875 0.86253 0.8957 0.0
C497 C 0.8753 0.86438 0.9169 0.0
C498 C 0.8642 0.84119 0.81309 0.0
O499 O 0.84989 0.86217 0.91632 0.0
C500 C 0.79516 0.8754 0.84202 0.0
O501 O 0.8577 0.82093 0.88395 0.0
O502 O 0.8164 0.83539 0.88486 0.0
O503 O 0.86237 0.86646 0.81175 0.0
O504 O 0.86587 0.82983 0.83545 0.0
C505 C 0.83377 0.92326 0.87858 0.0
O506 O 0.79793 0.87848 0.86712 0.0
O507 O 0.81525 0.87565 0.82672 0.0
C508 C 0.83268 0.81649 0.88583 0.0
O509 O 0.83403 0.90501 0.89593 0.0
O510 O 0.83233 0.91781 0.85388 0.0
C511 C 0.90082 0.89381 0.8456 0.0
Fe512 Fe 0.89348 0.1069 0.65541 0.0
Fe513 Fe 0.87255 0.13949 0.60838 0.0
O514 O 0.89464 0.13614 0.63569 0.0
Fe515 Fe 0.91798 0.16235 0.64309 0.0
O516 O 0.90323 0.16724 0.67548 0.0
O517 O 0.90184 0.12454 0.68688 0.0
O518 O 0.85869 0.1115 0.66404 0.0
C519 C 0.84001 0.11345 0.64724 0.0
C520 C 0.94744 0.11587 0.65282 0.0
O521 O 0.84501 0.11959 0.62317 0.0
C522 C 0.92158 0.16052 0.58907 0.0
O523 O 0.88485 0.08453 0.62735 0.0
O524 O 0.88578 0.11056 0.59176 0.0
O525 O 0.94365 0.14047 0.65706 0.0
O526 O 0.92806 0.10011 0.64793 0.0
C527 C 0.87105 0.18968 0.62864 0.0
O528 O 0.89618 0.15991 0.58838 0.0
O529 O 0.93401 0.1584 0.61088 0.0
C530 C 0.88705 0.0877 0.60225 0.0
O531 O 0.85799 0.16841 0.62366 0.0
O532 O 0.89641 0.1893 0.63077 0.0
C533 C 0.90033 0.14918 0.69291 0.0
Fe534 Fe 0.62027 0.08503 0.35818 0.0
Fe535 Fe 0.65025 0.11686 0.40205 0.0
O536 O 0.62204 0.11227 0.38085 0.0
Fe537 Fe 0.59548 0.13506 0.38251 0.0
O538 O 0.60029 0.14457 0.34804 0.0
O539 O 0.60228 0.10347 0.33218 0.0
O540 O 0.65077 0.09586 0.34168 0.0
C541 C 0.67296 0.1001 0.35308 0.0
C542 C 0.56836 0.08516 0.37497 0.0
O543 O 0.67443 0.10322 0.3782 0.0
C544 C 0.60647 0.12925 0.43537 0.0
O545 O 0.63807 0.06201 0.38018 0.0
O546 O 0.64448 0.08467 0.4176 0.0
O547 O 0.56903 0.11046 0.37366 0.0
O548 O 0.58958 0.07214 0.37301 0.0
C549 C 0.6419 0.16847 0.38816 0.0
O550 O 0.63119 0.13156 0.42981 0.0
O551 O 0.58921 0.12652 0.4171 0.0
C552 C 0.6425 0.06274 0.40516 0.0
O553 O 0.65781 0.14927 0.38775 0.0
O554 O 0.61697 0.16424 0.39151 0.0
C555 C 0.59997 0.12844 0.32859 0.0
Fe556 Fe 0.5861 0.81547 0.11112 0.0
Fe557 Fe 0.63528 0.83856 0.08166 0.0
O558 O 0.6128 0.83923 0.10902 0.0
Fe559 Fe 0.61705 0.86383 0.13409 0.0
O560 O 0.58444 0.87722 0.12737 0.0
O561 O 0.56282 0.83838 0.12727 0.0
O562 O 0.57251 0.82669 0.07966 0.0
C563 C 0.58525 0.82741 0.05798 0.0
C564 C 0.60043 0.8176 0.16353 0.0
O565 O 0.61045 0.82529 0.05756 0.0
C566 C 0.66898 0.85195 0.12564 0.0
O567 O 0.60488 0.78829 0.09537 0.0
O568 O 0.64567 0.8055 0.09057 0.0
O569 O 0.60383 0.84271 0.16129 0.0
O570 O 0.59772 0.80306 0.14301 0.0
C571 C 0.6286 0.89207 0.08611 0.0
O572 O 0.66423 0.85188 0.10072 0.0
O573 O 0.65001 0.85179 0.14226 0.0
C574 C 0.62997 0.7855 0.09268 0.0
O575 O 0.62607 0.87173 0.07128 0.0
O576 O 0.63068 0.88961 0.11129 0.0
C577 C 0.56282 0.86373 0.12843 0.0
Fe578 Fe 0.40382 0.6654 0.14678 0.0
Fe579 Fe 0.35774 0.64444 0.11179 0.0
O580 O 0.38038 0.63953 0.13847 0.0
Fe581 Fe 0.37952 0.60913 0.15662 0.0
O582 O 0.41408 0.60269 0.14857 0.0
O583 O 0.42994 0.643 0.15802 0.0
O584 O 0.41899 0.66361 0.11395 0.0
C585 C 0.40611 0.66685 0.0926 0.0
C586 C 0.38703 0.64909 0.19623 0.0
O587 O 0.38075 0.66614 0.09245 0.0
C588 C 0.32589 0.61596 0.14944 0.0
O589 O 0.38188 0.6928 0.13687 0.0
O590 O 0.34334 0.67244 0.12901 0.0
O591 O 0.38827 0.62488 0.18878 0.0
O592 O 0.39012 0.66821 0.17997 0.0
C593 C 0.3723 0.59309 0.10248 0.0
O594 O 0.33063 0.6236 0.12579 0.0
O595 O 0.34473 0.61312 0.16592 0.0
C596 C 0.35656 0.69345 0.13478 0.0
O597 O 0.37076 0.61651 0.09329 0.0
O598 O 0.37061 0.5885 0.12741 0.0
C599 C 0.43351 0.61879 0.15206 0.0
Fe600 Fe 0.12363 0.57918 0.8505 0.0
Fe601 Fe 0.15468 0.6106 0.89385 0.0
O602 O 0.12691 0.60744 0.87183 0.0
Fe603 Fe 0.10242 0.63256 0.87122 0.0
O604 O 0.10871 0.63937 0.83638 0.0
O605 O 0.10796 0.59738 0.8229 0.0
O606 O 0.15533 0.58667 0.83454 0.0
C607 C 0.17737 0.5896 0.84656 0.0
C608 C 0.07164 0.58436 0.86594 0.0
O609 O 0.17825 0.5937 0.87157 0.0
C610 C 0.11139 0.62943 0.92483 0.0
O611 O 0.13865 0.55596 0.87423 0.0
O612 O 0.14549 0.57987 0.91074 0.0
O613 O 0.0742 0.60952 0.86336 0.0
O614 O 0.09175 0.56965 0.86497 0.0
C615 C 0.15145 0.66201 0.8765 0.0
O616 O 0.13631 0.62816 0.92027 0.0
O617 O 0.09459 0.62733 0.90607 0.0
C618 C 0.14154 0.55763 0.89936 0.0
O619 O 0.1656 0.64154 0.87835 0.0
O620 O 0.12617 0.66025 0.87887 0.0
C621 C 0.10761 0.62221 0.81791 0.0
Fe622 Fe 0.13426 0.34978 0.5814 0.0
Fe623 Fe 0.0876 0.3222 0.6115 0.0
O624 O 0.1113 0.3489 0.60836 0.0
Fe625 Fe 0.11192 0.37497 0.63214 0.0
O626 O 0.14576 0.36714 0.64186 0.0
O627 O 0.16136 0.36652 0.60067 0.0
O628 O 0.14815 0.3185 0.59161 0.0
C629 C 0.1349 0.2969 0.59416 0.0
C630 C 0.12161 0.40229 0.58346 0.0
O631 O 0.10964 0.29682 0.59707 0.0
C632 C 0.05828 0.36793 0.62509 0.0
O633 O 0.11129 0.33312 0.5575 0.0
O634 O 0.07308 0.33005 0.57936 0.0
O635 O 0.12348 0.40097 0.60869 0.0
O636 O 0.12177 0.38132 0.56943 0.0
C637 C 0.10105 0.32888 0.66377 0.0
O638 O 0.06152 0.34288 0.62642 0.0
O639 O 0.0781 0.38395 0.6235 0.0
C640 C 0.08592 0.33161 0.55773 0.0
O641 O 0.10036 0.31296 0.64414 0.0
O642 O 0.10043 0.35393 0.66006 0.0
C643 C 0.16518 0.36709 0.62576 0.0
Fe644 Fe 0.65269 0.62095 0.59257 0.0
Fe645 Fe 0.63066 0.60235 0.64686 0.0
O646 O 0.63011 0.62472 0.61952 0.0
Fe647 Fe 0.60703 0.65102 0.61917 0.0
O648 O 0.60339 0.65133 0.5827 0.0
O649 O 0.6255 0.61641 0.56883 0.0
O650 O 0.65364 0.58436 0.59505 0.0
C651 C 0.63756 0.56746 0.60566 0.0
C652 C 0.65187 0.67684 0.60054 0.0
O653 O 0.62338 0.57385 0.62542 0.0
C654 C 0.62322 0.64909 0.67347 0.0
O655 O 0.68138 0.62534 0.61448 0.0
O656 O 0.66684 0.5971 0.64515 0.0
O657 O 0.63396 0.67595 0.61835 0.0
O658 O 0.65575 0.65687 0.58548 0.0
C659 C 0.57544 0.60998 0.63784 0.0
O660 O 0.63805 0.62928 0.67024 0.0
O661 O 0.60647 0.65532 0.65559 0.0
C662 C 0.68558 0.61116 0.63482 0.0
O663 O 0.5945 0.60369 0.65323 0.0
O664 O 0.57887 0.62752 0.61996 0.0
C665 C 0.6075 0.63336 0.56536 0.0
Fe666 Fe 0.3903 0.39483 0.3941 0.0
Fe667 Fe 0.3623 0.42912 0.35212 0.0
O668 O 0.36119 0.4102 0.38194 0.0
Fe669 Fe 0.33087 0.40675 0.40001 0.0
O670 O 0.33045 0.37095 0.39487 0.0
O671 O 0.37192 0.36597 0.40884 0.0
O672 O 0.39324 0.37488 0.36418 0.0
C673 C 0.39339 0.38392 0.34065 0.0
C674 C 0.36987 0.41169 0.44104 0.0
O675 O 0.38679 0.40776 0.33565 0.0
C676 C 0.33161 0.45977 0.38745 0.0
O677 O 0.41378 0.42052 0.38129 0.0
O678 O 0.38787 0.45158 0.36542 0.0
O679 O 0.34701 0.40365 0.43291 0.0
O680 O 0.38897 0.41412 0.42472 0.0
C681 C 0.31378 0.40367 0.3464 0.0
O682 O 0.33808 0.45367 0.36371 0.0
O683 O 0.33015 0.44235 0.40569 0.0
C684 C 0.41012 0.44459 0.37458 0.0
O685 O 0.33671 0.40806 0.33666 0.0
O686 O 0.30906 0.40898 0.37067 0.0
C687 C 0.34916 0.35614 0.40231 0.0
C688 C 0.07369 0.16389 0.30682 0.0
C689 C 0.0778 0.18912 0.3186 0.0
C690 C 0.09037 0.15524 0.28623 0.0
C691 C 0.11215 0.17193 0.27796 0.0
C692 C 0.1188 0.19539 0.29265 0.0
C693 C 0.10118 0.20407 0.3126 0.0
C694 C 0.08266 0.12986 0.2713 0.0
C695 C 0.14311 0.21253 0.28574 0.0
C696 C 0.14676 0.13882 0.22006 0.0
C697 C 0.13281 0.14989 0.19854 0.0
C698 C 0.14276 0.14812 0.24625 0.0
C699 C 0.12337 0.16785 0.25086 0.0
C700 C 0.11075 0.18037 0.22887 0.0
C701 C 0.11607 0.17154 0.20289 0.0
C702 C 0.15799 0.13548 0.26889 0.0
C703 C 0.08958 0.20124 0.2328 0.0
H704 H 0.05596 0.15196 0.31183 0.0
H705 H 0.10486 0.22328 0.32222 0.0
H706 H 0.07617 0.13492 0.25067 0.0
H707 H 0.10012 0.11665 0.26961 0.0
H708 H 0.06607 0.11848 0.28126 0.0
H709 H 0.14981 0.22484 0.30316 0.0
H710 H 0.15995 0.20001 0.279 0.0
H711 H 0.13809 0.22634 0.26919 0.0
H712 H 0.16015 0.12237 0.21653 0.0
H713 H 0.10537 0.18012 0.18617 0.0
H714 H 0.14737 0.1168 0.27525 0.0
H715 H 0.15983 0.14904 0.28646 0.0
H716 H 0.1784 0.12997 0.26225 0.0
H717 H 0.07214 0.19224 0.24361 0.0
H718 H 0.08236 0.2095 0.21352 0.0
H719 H 0.09759 0.21805 0.24515 0.0
C720 C 0.06203 0.848 0.57866 0.0
C721 C 0.06163 0.82037 0.58365 0.0
C722 C 0.07383 0.85834 0.55532 0.0
C723 C 0.08487 0.84048 0.53654 0.0
C724 C 0.08763 0.81315 0.54319 0.0
C725 C 0.07616 0.80342 0.56693 0.0
C726 C 0.07168 0.88785 0.5494 0.0
C727 C 0.09949 0.79348 0.52375 0.0
C728 C 0.06792 0.8522 0.46391 0.0
C729 C 0.09295 0.85962 0.4533 0.0
C730 C 0.06506 0.84644 0.49115 0.0
C731 C 0.0877 0.84882 0.50826 0.0
C732 C 0.11275 0.85765 0.49792 0.0
C733 C 0.11517 0.8626 0.47039 0.0
C734 C 0.03799 0.83683 0.50139 0.0
C735 C 0.13712 0.86105 0.51564 0.0
H736 H 0.05138 0.86128 0.59193 0.0
H737 H 0.07625 0.78208 0.57089 0.0
H738 H 0.09005 0.89566 0.53928 0.0
H739 H 0.05448 0.89096 0.53573 0.0
H740 H 0.06837 0.89965 0.56794 0.0
H741 H 0.10416 0.77418 0.53356 0.0
H742 H 0.08492 0.78937 0.50735 0.0
H743 H 0.11807 0.80188 0.51456 0.0
H744 H 0.05075 0.84981 0.45072 0.0
H745 H 0.13452 0.86862 0.4622 0.0
H746 H 0.03107 0.85023 0.51759 0.0
H747 H 0.0396 0.81644 0.50998 0.0
H748 H 0.02248 0.83617 0.4854 0.0
H749 H 0.1318 0.87034 0.53508 0.0
H750 H 0.15305 0.87356 0.50593 0.0
H751 H 0.1455 0.84113 0.51997 0.0
C752 C 0.41177 0.75795 0.79727 0.0
C753 C 0.43944 0.76238 0.79392 0.0
C754 C 0.39332 0.77032 0.78036 0.0
C755 C 0.40294 0.78701 0.75946 0.0
C756 C 0.43089 0.79101 0.75565 0.0
C757 C 0.44881 0.7788 0.77311 0.0
C758 C 0.36365 0.76604 0.7852 0.0
C759 C 0.44192 0.80832 0.73322 0.0
C760 C 0.36487 0.80293 0.69671 0.0
C761 C 0.36078 0.83045 0.7002 0.0
C762 C 0.37669 0.78778 0.71688 0.0
C763 C 0.38413 0.8004 0.7412 0.0
C764 C 0.37725 0.82734 0.74599 0.0
C765 C 0.36571 0.84214 0.72532 0.0
C766 C 0.38367 0.75908 0.71102 0.0
C767 C 0.38427 0.84122 0.77202 0.0
H768 H 0.40451 0.74543 0.81357 0.0
H769 H 0.47021 0.78213 0.77049 0.0
H770 H 0.35445 0.78543 0.79027 0.0
H771 H 0.35363 0.75845 0.76676 0.0
H772 H 0.35949 0.75168 0.80174 0.0
H773 H 0.4642 0.80867 0.73259 0.0
H774 H 0.43422 0.80088 0.71366 0.0
H775 H 0.4351 0.82918 0.73568 0.0
H776 H 0.36061 0.79356 0.67753 0.0
H777 H 0.36215 0.86327 0.72835 0.0
H778 H 0.37899 0.746 0.72841 0.0
H779 H 0.40553 0.75796 0.70717 0.0
H780 H 0.3728 0.75107 0.6932 0.0
H781 H 0.37967 0.828 0.78933 0.0
H782 H 0.37331 0.8602 0.77447 0.0
H783 H 0.40611 0.846 0.77245 0.0
C784 C 0.44585 0.20581 0.06788 0.0
C785 C 0.43968 0.23284 0.0718 0.0
C786 C 0.43849 0.19237 0.04425 0.0
C787 C 0.42468 0.20631 0.02406 0.0
C788 C 0.41734 0.2332 0.02836 0.0
C789 C 0.42488 0.24616 0.05223 0.0
C790 C 0.44632 0.16356 0.04052 0.0
C791 C 0.40243 0.2486 0.0073 0.0
C792 C 0.43095 0.18327 0.95192 0.0
C793 C 0.40614 0.17013 0.94787 0.0
C794 C 0.43739 0.19487 0.97679 0.0
C795 C 0.41866 0.19305 -0.00193 0.0
C796 C 0.39399 0.17906 -0.00564 0.0
C797 C 0.38801 0.16781 0.96931 0.0
C798 C 0.46394 0.20967 0.9801 0.0
C799 C 0.37363 0.1765 0.01667 0.0
H800 H 0.45713 0.19528 0.08297 0.0
H801 H 0.42004 0.26702 0.05509 0.0
H802 H 0.42851 0.15102 0.03499 0.0
H803 H 0.46093 0.16215 0.02385 0.0
H804 H 0.45549 0.15509 0.05884 0.0
H805 H 0.39707 0.26894 0.01423 0.0
H806 H 0.41502 0.25063 0.98907 0.0
H807 H 0.38377 0.23754 0.00148 0.0
H808 H 0.44501 0.1852 0.93545 0.0
H809 H 0.36886 0.15749 0.96641 0.0
H810 H 0.4752 0.20126 -0.00282 0.0
H811 H 0.46043 0.23105 0.98472 0.0
H812 H 0.4766 0.20858 0.96184 0.0
H813 H 0.38299 0.1678 0.03474 0.0
H814 H 0.356 0.16376 0.01091 0.0
H815 H 0.3665 0.19663 0.02228 0.0
C816 C 0.97805 0.81426 0.1956 0.0
C817 C -0.00541 0.79993 0.17827 0.0
C818 C 0.98865 0.82687 0.21854 0.0
C819 C 0.01646 0.82543 0.2239 0.0
C820 C 0.03339 0.81196 0.20586 0.0
C821 C 0.02222 0.79924 0.18335 0.0
C822 C 0.97004 0.84123 0.23728 0.0
C823 C 0.0632 0.81023 0.2108 0.0
C824 C 0.05087 0.87158 0.27427 0.0
C825 C 0.05341 0.85447 0.29636 0.0
C826 C 0.03819 0.86269 0.25069 0.0
C827 C 0.02774 0.83614 0.24931 0.0
C828 C 0.02956 0.81905 0.27177 0.0
C829 C 0.04248 0.82837 0.29498 0.0
C830 C 0.03664 0.88142 0.22707 0.0
C831 C 0.01828 0.79071 0.27113 0.0
H832 H 0.9567 0.81497 0.1917 0.0
H833 H 0.03518 0.78847 0.16987 0.0
H834 H 0.97267 0.83408 0.25813 0.0
H835 H 0.97499 0.86299 0.23709 0.0
H836 H 0.94863 0.83837 0.23154 0.0
H837 H 0.07383 0.80075 0.19382 0.0
H838 H 0.07211 0.83052 0.21419 0.0
H839 H 0.06681 0.79831 0.22914 0.0
H840 H 0.05911 0.89183 0.27524 0.0
H841 H 0.04412 0.81507 0.31201 0.0
H842 H 0.01554 0.8831 0.22037 0.0
H843 H 0.04814 0.87322 0.21002 0.0
H844 H 0.04474 0.90179 0.23179 0.0
H845 H -0.00318 0.79072 0.26524 0.0
H846 H 0.02003 0.78051 0.2908 0.0
H847 H 0.02907 0.77885 0.25591 0.0
C848 C 0.43857 0.78728 0.47154 0.0
C849 C 0.44947 0.79752 0.44774 0.0
C850 C 0.42558 0.80396 0.48965 0.0
C851 C 0.42337 0.83156 0.48374 0.0
C852 C 0.43446 0.84212 0.45983 0.0
C853 C 0.4475 0.82493 0.44208 0.0
C854 C 0.41415 0.79199 0.51511 0.0
C855 C 0.43233 0.87142 0.45293 0.0
C856 C 0.36789 0.86078 0.52483 0.0
C857 C 0.38221 0.869 0.54769 0.0
C858 C 0.38134 0.85076 0.50244 0.0
C859 C 0.40963 0.84905 0.50309 0.0
C860 C 0.42426 0.86012 0.52487 0.0
C861 C 0.41034 0.87005 0.54693 0.0
C862 C 0.36509 0.83951 0.47934 0.0
C863 C 0.45447 0.85893 0.5262 0.0
H864 H 0.44011 0.76612 0.47601 0.0
H865 H 0.45582 0.8329 0.42361 0.0
H866 H 0.42327 0.80214 0.5328 0.0
H867 H 0.39221 0.79513 0.51598 0.0
H868 H 0.41773 0.77016 0.5167 0.0
H869 H 0.44244 0.87653 0.43373 0.0
H870 H 0.41091 0.87678 0.45141 0.0
H871 H 0.44137 0.88396 0.46907 0.0
H872 H 0.34614 0.8602 0.52517 0.0
H873 H 0.42152 0.87692 0.56436 0.0
H874 H 0.36425 0.81732 0.48074 0.0
H875 H 0.37455 0.84485 0.45992 0.0
H876 H 0.34421 0.84683 0.47948 0.0
H877 H 0.46032 0.83812 0.53084 0.0
H878 H 0.46295 0.8724 0.54194 0.0
H879 H 0.46363 0.86444 0.50668 0.0
C880 C 0.42317 0.19065 0.66402 0.0
C881 C 0.40469 0.20995 0.65626 0.0
C882 C 0.41925 0.17581 0.68749 0.0
C883 C 0.39604 0.18004 0.70305 0.0
C884 C 0.37551 0.19641 0.69314 0.0
C885 C 0.38015 0.21139 0.66983 0.0
C886 C 0.44158 0.15839 0.69729 0.0
C887 C 0.34999 0.20054 0.70869 0.0
C888 C 0.3877 0.13951 0.76675 0.0
C889 C 0.3981 0.15759 0.78585 0.0
C890 C 0.38614 0.14668 0.73967 0.0
C891 C 0.39596 0.17219 0.73161 0.0
C892 C 0.40656 0.19046 0.75087 0.0
C893 C 0.40716 0.18303 0.77785 0.0
C894 C 0.37411 0.12702 0.71978 0.0
C895 C 0.41759 0.21777 0.74298 0.0
H896 H 0.44199 0.18901 0.65335 0.0
H897 H 0.36546 0.22579 0.66355 0.0
H898 H 0.45303 0.16925 0.71317 0.0
H899 H 0.4335 0.13954 0.70615 0.0
H900 H 0.45571 0.15333 0.68094 0.0
H901 H 0.33395 0.2087 0.69581 0.0
H902 H 0.34261 0.1815 0.71778 0.0
H903 H 0.35402 0.21499 0.7252 0.0
H904 H 0.38033 0.11992 0.77306 0.0
H905 H 0.41521 0.19695 0.79265 0.0
H906 H 0.38998 0.11979 0.7062 0.0
H907 H 0.35893 0.13691 0.70716 0.0
H908 H 0.3645 0.10941 0.72978 0.0
H909 H 0.43393 0.21563 0.7281 0.0
H910 H 0.42561 0.22929 0.76039 0.0
H911 H 0.40162 0.22957 0.73341 0.0
C912 C 0.057 0.22016 0.95334 0.0
C913 C 0.03732 0.20918 0.93629 0.0
C914 C 0.06952 0.20426 0.97254 0.0
C915 C 0.06232 0.17673 0.97448 0.0
C916 C 0.04372 0.16518 0.95622 0.0
C917 C 0.03131 0.1816 0.93738 0.0
C918 C 0.08936 0.21726 -0.0083 0.0
C919 C 0.03592 0.13581 0.95742 0.0
C920 C 0.10897 0.13646 0.01761 0.0
C921 C 0.096 0.13751 0.04252 0.0
C922 C 0.09754 0.14787 -0.00521 0.0
C923 C 0.07268 0.16074 -0.00295 0.0
C924 C 0.05869 0.16033 0.02172 0.0
C925 C 0.07046 0.14856 0.04415 0.0
C926 C 0.11277 0.14747 0.96867 0.0
C927 C 0.03202 0.17376 0.02485 0.0
H928 H 0.06174 0.24144 0.95254 0.0
H929 H 0.01626 0.17296 0.92407 0.0
H930 H 0.08107 0.21666 0.01232 0.0
H931 H 0.10832 0.20607 -0.00809 0.0
H932 H 0.09404 0.23846 0.98642 0.0
H933 H 0.02388 0.12931 0.93975 0.0
H934 H 0.05403 0.12337 0.95865 0.0
H935 H 0.02389 0.13183 0.97573 0.0
H936 H 0.12858 0.12763 0.01611 0.0
H937 H 0.0602 0.14929 0.06327 0.0
H938 H 0.12079 0.16789 0.96422 0.0
H939 H 0.09927 0.1415 0.95192 0.0
H940 H 0.12983 0.13355 0.9693 0.0
H941 H 0.03485 0.19573 0.02237 0.0
H942 H 0.02282 0.16986 0.04476 0.0
H943 H 0.01781 0.16672 0.00911 0.0
C944 C 0.33668 0.06975 0.19175 0.0
C945 C 0.34104 0.04276 0.1857 0.0
C946 C 0.31662 0.0838 0.17846 0.0
C947 C 0.30041 0.07022 0.15931 0.0
C948 C 0.30732 0.04432 0.15055 0.0
C949 C 0.32785 0.03095 0.16372 0.0
C950 C 0.31081 0.11205 0.18708 0.0
C951 C 0.29082 0.02932 0.12979 0.0
C952 C 0.22561 0.07894 0.16404 0.0
C953 C 0.22006 0.09173 0.13984 0.0
C954 C 0.25189 0.07261 0.17088 0.0
C955 C 0.27321 0.07996 0.15339 0.0
C956 C 0.2679 0.09438 0.1297 0.0
C957 C 0.24124 0.0997 0.12294 0.0
C958 C 0.25664 0.05694 0.19628 0.0
C959 C 0.29005 0.1034 0.11097 0.0
H960 H 0.34736 0.07923 0.20828 0.0
H961 H 0.33157 0.01027 0.15854 0.0
H962 H 0.30486 0.12438 0.16968 0.0
H963 H 0.29389 0.11168 0.20151 0.0
H964 H 0.32846 0.12175 0.19701 0.0
H965 H 0.30091 0.01103 0.12265 0.0
H966 H 0.27118 0.02323 0.13862 0.0
H967 H 0.28678 0.04231 0.11234 0.0
H968 H 0.20924 0.0728 0.17712 0.0
H969 H 0.23695 0.10996 0.10435 0.0
H970 H 0.27088 0.0681 0.20949 0.0
H971 H 0.26576 0.03747 0.19133 0.0
H972 H 0.23783 0.05291 0.20765 0.0
H973 H 0.30884 0.10843 0.12198 0.0
H974 H 0.28411 0.12115 0.09914 0.0
H975 H 0.29431 0.08703 0.09667 0.0
C976 C 0.21655 0.05165 0.44438 0.0
C977 C 0.24271 0.05308 0.43398 0.0
C978 C 0.19841 0.0313 0.43656 0.0
C979 C 0.20662 0.01178 0.41796 0.0
C980 C 0.23288 0.01316 0.40714 0.0
C981 C 0.25064 0.03387 0.41525 0.0
C982 C 0.1705 0.03062 0.44834 0.0
C983 C 0.2423 -0.00746 0.38733 0.0
C984 C 0.16883 0.945 0.41726 0.0
C985 C 0.15236 0.94762 0.39466 0.0
C986 C 0.18659 0.96574 0.42507 0.0
C987 C 0.18773 0.98976 0.41007 0.0
C988 C 0.17067 -0.00715 0.38769 0.0
C989 C 0.15322 0.97173 0.38022 0.0
C990 C 0.20451 0.96176 0.44907 0.0
C991 C 0.17119 0.0183 0.37135 0.0
H992 H 0.21015 0.06648 0.45876 0.0
H993 H 0.27081 0.03478 0.40719 0.0
H994 H 0.15534 0.0312 0.43208 0.0
H995 H 0.16703 0.01164 0.45947 0.0
H996 H 0.16711 0.04764 0.46219 0.0
H997 H 0.2626 -0.00251 0.37934 0.0
H998 H 0.24279 0.97263 0.39712 0.0
H999 H 0.22804 0.99082 0.37033 0.0
H1000 H 0.16839 0.92644 0.42851 0.0
H1001 H 0.14057 0.97396 0.36274 0.0
H1002 H 0.20115 0.97769 0.46413 0.0
H1003 H 0.22585 0.96338 0.44289 0.0
H1004 H 0.20097 0.94197 0.45874 0.0
H1005 H 0.16746 0.03579 0.38445 0.0
H1006 H 0.15599 0.01785 0.35507 0.0
H1007 H 0.19132 0.02143 0.36227 0.0
C1008 C 0.14926 0.91184 0.70989 0.0
C1009 C 0.14934 0.90022 0.73548 0.0
C1010 C 0.16744 0.90371 0.69034 0.0
C1011 C 0.18556 0.8833 0.6966 0.0
C1012 C 0.18178 0.86797 0.72014 0.0
C1013 C 0.16387 0.87688 0.73967 0.0
C1014 C 0.17002 0.9197 0.66482 0.0
C1015 C 0.19931 0.84456 0.72632 0.0
C1016 C 0.24291 0.8722 0.64797 0.0
C1017 C 0.26329 0.8877 0.66012 0.0
C1018 C 0.21749 0.86964 0.6599 0.0
C1019 C 0.21231 0.88396 0.68377 0.0
C1020 C 0.23289 0.9001 0.69568 0.0
C1021 C 0.25826 0.90131 0.68394 0.0
C1022 C 0.19656 0.85174 0.64673 0.0
C1023 C 0.22821 0.9163 0.72082 0.0
H1024 H 0.13722 0.92924 0.70605 0.0
H1025 H 0.1632 0.86705 0.75901 0.0
H1026 H 0.1878 0.93342 0.66625 0.0
H1027 H 0.17304 0.90624 0.64746 0.0
H1028 H 0.15204 0.93189 0.66106 0.0
H1029 H 0.18971 0.8309 0.74121 0.0
H1030 H 0.20374 0.8331 0.70783 0.0
H1031 H 0.21866 0.85207 0.73479 0.0
H1032 H 0.24707 0.86148 0.62958 0.0
H1033 H 0.27416 0.91332 0.69316 0.0
H1034 H 0.1865 0.86309 0.63064 0.0
H1035 H 0.18107 0.84441 0.66106 0.0
H1036 H 0.20601 0.83419 0.63719 0.0
H1037 H 0.21075 0.92941 0.71809 0.0
H1038 H 0.24589 0.9291 0.72632 0.0
H1039 H 0.22369 0.90268 0.73784 0.0
C1040 C 0.28422 0.96081 0.93929 0.0
C1041 C 0.29587 0.94115 0.95517 0.0
C1042 C 0.29858 0.98432 0.93271 0.0
C1043 C 0.32509 0.98819 0.9424 0.0
C1044 C 0.33677 0.96865 0.95886 0.0
C1045 C 0.32204 0.94527 0.96496 0.0
C1046 C 0.28559 0.00481 0.915 0.0
C1047 C 0.36491 0.97228 0.96968 0.0
C1048 C 0.3677 0.0343 0.89953 0.0
C1049 C 0.3645 0.05897 0.91249 0.0
C1050 C 0.35598 0.01079 0.9098 0.0
C1051 C 0.34107 0.01196 0.93381 0.0
C1052 C 0.33965 0.03632 0.94821 0.0
C1053 C 0.3514 0.05965 0.93733 0.0
C1054 C 0.35794 0.98514 0.89389 0.0
C1055 C 0.32428 0.0381 0.97416 0.0
H1056 H 0.26396 0.95775 0.93183 0.0
H1057 H 0.33108 0.93021 0.97747 0.0
H1058 H 0.28524 0.02447 0.92535 0.0
H1059 H 0.29757 0.00758 0.89645 0.0
H1060 H 0.26473 -0.00112 0.90939 0.0
H1061 H 0.37041 0.95595 0.9836 0.0
H1062 H 0.37947 0.97278 0.95289 0.0
H1063 H 0.367 -0.0083 0.9804 0.0
H1064 H 0.37811 0.03353 0.8805 0.0
H1065 H 0.34899 0.0786 0.94756 0.0
H1066 H 0.33791 0.97951 0.88566 0.0
H1067 H 0.3643 0.96849 0.90696 0.0
H1068 H 0.37231 0.98709 0.87697 0.0
H1069 H 0.30246 0.03622 0.96998 0.0
H1070 H 0.32823 0.05742 0.98467 0.0
H1071 H 0.32953 0.02145 0.98773 0.0
C1072 C 0.27386 0.96537 0.287 0.0
C1073 C 0.29143 0.95426 0.26844 0.0
C1074 C 0.24899 0.9529 0.29241 0.0
C1075 C 0.24152 0.92908 0.27854 0.0
C1076 C 0.25851 0.91875 0.25859 0.0
C1077 C 0.28345 0.93132 0.25399 0.0
C1078 C 0.23145 0.96438 0.31404 0.0
C1079 C 0.25087 0.89381 0.24296 0.0
C1080 C 0.19738 0.88309 0.31985 0.0
C1081 C 0.17174 0.89072 0.31175 0.0
C1082 C 0.22037 0.8944 0.30809 0.0
C1083 C 0.21759 0.91337 0.28734 0.0
C1084 C 0.19186 0.91903 0.27711 0.0
C1085 C 0.16909 0.90765 0.28955 0.0
C1086 C 0.2475 0.88774 0.31949 0.0
C1087 C 0.18826 0.93864 0.2545 0.0
H1088 H 0.27999 0.98319 0.29806 0.0
H1089 H 0.29685 0.92298 0.23923 0.0
H1090 H 0.21052 0.96609 0.30685 0.0
H1091 H 0.23107 0.95071 0.33156 0.0
H1092 H 0.23879 0.98445 0.32078 0.0
H1093 H 0.26435 0.89073 0.22556 0.0
H1094 H 0.25199 0.87605 0.2562 0.0
H1095 H 0.22992 0.89485 0.23562 0.0
H1096 H 0.19952 0.86966 0.33673 0.0
H1097 H 0.14932 0.91353 0.28308 0.0
H1098 H 0.25626 0.90565 0.32971 0.0
H1099 H 0.26147 0.88215 0.30325 0.0
H1100 H 0.24627 0.87104 0.33415 0.0
H1101 H 0.19153 0.95934 0.26212 0.0
H1102 H 0.1678 0.93709 0.24574 0.0
H1103 H 0.20319 0.93533 0.23843 0.0
C1104 C 0.36152 0.06217 0.53032 0.0
C1105 C 0.34022 0.07979 0.53318 0.0
C1106 C 0.36616 0.04268 0.54985 0.0
C1107 C 0.34881 0.04075 0.57221 0.0
C1108 C 0.33045 0.06127 0.57728 0.0
C1109 C 0.32639 0.08071 0.55763 0.0
C1110 C 0.38706 0.02194 0.54463 0.0
C1111 C 0.31231 0.06045 0.60144 0.0
C1112 C 0.3224 0.97025 0.58221 0.0
C1113 C 0.33584 0.96247 0.60536 0.0
C1114 C 0.326 -0.00402 0.57186 0.0
C1115 C 0.3441 0.01421 0.58468 0.0
C1116 C 0.35755 0.00657 0.60835 0.0
C1117 C 0.35286 0.98076 0.61874 0.0
C1118 C 0.31083 0.00336 0.54678 0.0
C1119 C 0.37702 0.02531 0.62258 0.0
H1120 H 0.37297 0.06194 0.51188 0.0
H1121 H 0.31057 0.09498 0.56047 0.0
H1122 H 0.39685 0.01586 0.56358 0.0
H1123 H 0.37725 0.00384 0.5357 0.0
H1124 H 0.40267 0.02947 0.53049 0.0
H1125 H 0.30328 0.08022 0.60532 0.0
H1126 H 0.29583 0.04553 0.59798 0.0
H1127 H 0.32346 0.05421 0.61953 0.0
H1128 H 0.30913 0.95602 0.57205 0.0
H1129 H 0.36335 0.97451 0.63663 0.0
H1130 H 0.32515 0.00747 0.53021 0.0
H1131 H 0.29932 0.0218 0.55021 0.0
H1132 H 0.2966 0.98721 0.5402 0.0
H1133 H 0.3886 0.03796 0.60823 0.0
H1134 H 0.39132 0.01413 0.6352 0.0
H1135 H 0.36569 0.03879 0.63588 0.0
C1136 C 0.21897 0.00415 0.82451 0.0
C1137 C 0.19802 0.01039 0.80704 0.0
C1138 C 0.24131 0.02145 0.82742 0.0
C1139 C 0.24264 0.04562 0.81262 0.0
C1140 C 0.22195 0.05172 0.79443 0.0
C1141 C 0.19988 0.03401 0.79183 0.0
C1142 C 0.26312 0.01425 0.84692 0.0
C1143 C 0.22273 0.07731 0.77833 0.0
C1144 C 0.28478 0.09951 0.84654 0.0
C1145 C 0.30956 0.09679 0.83367 0.0
C1146 C 0.26237 0.08398 0.83883 0.0
C1147 C 0.26483 0.06524 0.81776 0.0
C1148 C 0.28923 0.06371 0.80342 0.0
C1149 C 0.31136 0.07962 0.81151 0.0
C1150 C 0.23657 0.08644 0.85439 0.0
C1151 C 0.29251 0.04404 0.78073 0.0
H1152 H 0.2178 0.98586 0.83617 0.0
H1153 H 0.18384 0.03897 0.77817 0.0
H1154 H 0.28291 0.01464 0.83676 0.0
H1155 H 0.26414 0.02932 0.86327 0.0
H1156 H 0.25971 -0.00588 0.85591 0.0
H1157 H 0.20614 0.07806 0.7635 0.0
H1158 H 0.22119 0.09475 0.79199 0.0
H1159 H 0.24211 0.0795 0.76757 0.0
H1160 H 0.28318 0.113 0.86347 0.0
H1161 H 0.33044 0.07744 0.80143 0.0
H1162 H 0.23288 0.06795 0.86627 0.0
H1163 H 0.21934 0.08857 0.84055 0.0
H1164 H 0.23714 0.10382 0.86831 0.0
H1165 H 0.29287 0.0234 0.78891 0.0
H1166 H 0.31137 0.04785 0.76938 0.0
H1167 H 0.27532 0.04491 0.76668 0.0
C1168 C 0.20486 0.92733 0.05888 0.0
C1169 C 0.19433 0.91225 0.03751 0.0
C1170 C 0.19031 0.9481 0.07017 0.0
C1171 C 0.16438 0.95339 0.06018 0.0
C1172 C 0.15235 0.93603 0.04103 0.0
C1173 C 0.16765 0.91576 0.02959 0.0
C1174 C 0.20386 0.96609 0.09072 0.0
C1175 C 0.12421 0.94023 0.03099 0.0
C1176 C 0.13374 0.00976 0.09902 0.0
C1177 C 0.14244 0.03184 0.08374 0.0
C1178 C 0.13823 0.98357 0.09026 0.0
C1179 C 0.15252 0.97963 0.06619 0.0
C1180 C 0.15945 0.00183 0.04973 0.0
C1181 C 0.15396 0.02772 0.05858 0.0
C1182 C 0.1294 0.96037 0.10773 0.0
C1183 C 0.1749 -0.00149 0.02395 0.0
H1184 H 0.22534 0.92441 0.06537 0.0
H1185 H 0.15922 0.90373 0.01343 0.0
H1186 H 0.20804 0.9861 0.08178 0.0
H1187 H 0.19056 0.96898 0.10821 0.0
H1188 H 0.2231 0.9579 0.09792 0.0
H1189 H 0.11557 0.92171 0.02174 0.0
H1190 H 0.1109 0.94667 0.04748 0.0
H1191 H 0.12453 0.95623 0.0156 0.0
H1192 H 0.12434 0.01298 0.11831 0.0
H1193 H 0.1606 0.04478 0.04671 0.0
H1194 H 0.14625 0.95462 0.12088 0.0
H1195 H 0.12346 0.94261 0.09552 0.0
H1196 H 0.11229 0.96582 0.12075 0.0
H1197 H 0.19523 0.99111 0.02849 0.0
H1198 H 0.17712 0.0176 0.01268 0.0
H1199 H 0.16475 0.98347 0.01086 0.0
C1200 C 0.22248 0.30263 0.05447 0.0
C1201 C 0.24544 0.31176 0.06825 0.0
C1202 C 0.20846 0.27954 0.0627 0.0
C1203 C 0.21734 0.26559 0.08554 0.0
C1204 C 0.23942 0.27563 0.10059 0.0
C1205 C 0.25344 0.29855 0.09159 0.0
C1206 C 0.18513 0.26923 0.04597 0.0
C1207 C 0.24894 0.26154 0.12545 0.0
C1208 C 0.16791 0.21297 0.11065 0.0
C1209 C 0.17776 0.18986 0.09851 0.0
C1210 C 0.18143 0.23768 0.10784 0.0
C1211 C 0.20491 0.23925 0.09202 0.0
C1212 C 0.21533 0.21584 0.08032 0.0
C1213 C 0.20174 0.1913 0.08397 0.0
C1214 C 0.17018 0.26219 0.1211 0.0
C1215 C 0.24014 0.21687 0.06296 0.0
H1216 H 0.21617 0.31277 0.03643 0.0
H1217 H 0.27101 0.30572 0.10246 0.0
H1218 H 0.19023 0.24971 0.03686 0.0
H1219 H 0.16718 0.26577 0.0587 0.0
H1220 H 0.17987 0.28328 0.02966 0.0
H1221 H 0.26393 0.27383 0.1368 0.0
H1222 H 0.23176 0.2566 0.13882 0.0
H1223 H 0.25826 0.24238 0.11978 0.0
H1224 H 0.14957 0.21173 0.12229 0.0
H1225 H 0.20939 0.17342 0.07462 0.0
H1226 H 0.16229 0.27585 0.10563 0.0
H1227 H 0.1862 0.27337 0.13214 0.0
H1228 H 0.15369 0.25701 0.13526 0.0
H1229 H 0.23636 0.22921 0.04494 0.0
H1230 H 0.24624 0.19665 0.05634 0.0
H1231 H 0.25711 0.2265 0.07397 0.0
C1232 C 0.66146 0.14512 0.89078 0.0
C1233 C 0.65627 0.14217 0.91825 0.0
C1234 C 0.65078 0.16654 0.87646 0.0
C1235 C 0.63534 0.18552 0.89025 0.0
C1236 C 0.62662 0.18011 0.91672 0.0
C1237 C 0.63699 0.15817 0.93036 0.0
C1238 C 0.65865 0.17059 0.84757 0.0
C1239 C 0.60942 0.19945 0.93191 0.0
C1240 C 0.65252 0.25896 0.88233 0.0
C1241 C 0.62835 0.2687 0.87259 0.0
C1242 C 0.65558 0.23152 0.88662 0.0
C1243 C 0.63418 0.21339 0.88019 0.0
C1244 C 0.61078 0.22292 0.86776 0.0
C1245 C 0.60792 0.25062 0.86457 0.0
C1246 C 0.68091 0.22226 0.90008 0.0
C1247 C 0.58803 0.2043 0.85932 0.0
H1248 H 0.67571 0.13222 0.88106 0.0
H1249 H 0.63233 0.15554 0.95141 0.0
H1250 H 0.64205 0.1795 0.83603 0.0
H1251 H 0.67624 0.18456 0.84647 0.0
H1252 H 0.66423 0.15139 0.83802 0.0
H1253 H 0.60204 0.19089 0.95115 0.0
H1254 H 0.62131 0.218 0.93634 0.0
H1255 H 0.5919 0.20515 0.91969 0.0
H1256 H 0.66832 0.27294 0.88849 0.0
H1257 H 0.58932 0.25818 0.8566 0.0
H1258 H 0.69042 0.20653 0.88788 0.0
H1259 H 0.67595 0.2134 0.91989 0.0
H1260 H 0.6958 0.23888 0.90315 0.0
H1261 H 0.59502 0.18384 0.85477 0.0
H1262 H 0.57767 0.21223 0.84139 0.0
H1263 H 0.57304 0.20284 0.87569 0.0
C1264 C 0.03403 0.44558 0.17912 0.0
C1265 C 0.04267 0.44471 0.20581 0.0
C1266 C 0.00964 0.43341 0.17141 0.0
C1267 C -0.00642 0.42025 0.19092 0.0
C1268 C 0.00235 0.41899 0.21781 0.0
C1269 C 0.02688 0.43121 0.22493 0.0
C1270 C 0.00087 0.43495 0.1425 0.0
C1271 C 0.98563 0.40516 0.23913 0.0
C1272 C 0.91913 0.41238 0.17774 0.0
C1273 C 0.91705 0.38555 0.1695 0.0
C1274 C 0.94399 0.42397 0.18467 0.0
C1275 C 0.96725 0.40831 0.18334 0.0
C1276 C 0.96533 0.38126 0.17502 0.0
C1277 C 0.94021 0.37018 0.16814 0.0
C1278 C 0.94536 0.45293 0.19347 0.0
C1279 C 0.98978 0.36401 0.17344 0.0
H1280 H 0.04623 0.45594 0.16427 0.0
H1281 H 0.03348 0.43052 0.24561 0.0
H1282 H -0.00303 0.41451 0.13445 0.0
H1283 H 0.98182 0.44592 0.14106 0.0
H1284 H 0.01611 0.44523 0.12967 0.0
H1285 H -0.00431 0.40539 0.25899 0.0
H1286 H 0.96607 0.41513 0.24108 0.0
H1287 H 0.98133 0.38404 0.23333 0.0
H1288 H 0.90133 0.42441 0.17867 0.0
H1289 H 0.93873 0.34942 0.16181 0.0
H1290 H 0.95916 0.46456 0.18023 0.0
H1291 H 0.95356 0.45438 0.2141 0.0
H1292 H 0.92541 0.46239 0.19311 0.0
H1293 H 0.98484 0.34338 0.16635 0.0
H1294 H -0.00065 0.36272 0.19345 0.0
H1295 H 0.00478 0.37322 0.15966 0.0
C1296 C 0.84483 0.7966 0.45369 0.0
C1297 C 0.82644 0.81699 0.4498 0.0
C1298 C 0.84788 0.77648 0.43447 0.0
C1299 C 0.83241 0.77701 0.41065 0.0
C1300 C 0.81514 0.79849 0.40578 0.0
C1301 C 0.81216 0.81815 0.42557 0.0
C1302 C 0.86664 0.75386 0.44034 0.0
C1303 C 0.79883 0.80013 0.38039 0.0
C1304 C 0.86111 0.72646 0.36404 0.0
C1305 C 0.84688 0.70342 0.37241 0.0
C1306 C 0.85429 0.75176 0.37365 0.0
C1307 C 0.83312 0.75372 0.39231 0.0
C1308 C 0.81639 0.73108 0.39771 0.0
C1309 C 0.82336 0.70609 0.38743 0.0
C1310 C 0.8718 0.77573 0.36646 0.0
C1311 C 0.79331 0.73248 0.41717 0.0
H1312 H 0.85596 0.79563 0.47231 0.0
H1313 H 0.7981 0.83407 0.42229 0.0
H1314 H 0.85498 0.73476 0.44231 0.0
H1315 H 0.88107 0.75144 0.42368 0.0
H1316 H 0.87815 0.75729 0.45907 0.0
H1317 H 0.7922 0.82088 0.37658 0.0
H1318 H 0.81037 0.79318 0.3628 0.0
H1319 H 0.78068 0.78701 0.38224 0.0
H1320 H 0.87895 0.72448 0.35184 0.0
H1321 H 0.81205 0.68837 0.39364 0.0
H1322 H 0.8867 0.77941 0.38265 0.0
H1323 H 0.8597 0.79399 0.36444 0.0
H1324 H 0.88287 0.77241 0.34748 0.0
H1325 H 0.80133 0.73386 0.43789 0.0
H1326 H 0.77984 0.71449 0.41585 0.0
H1327 H 0.78136 0.75056 0.41351 0.0
C1328 C 0.94445 0.0184 0.14988 0.0
C1329 C 0.93148 0.02384 0.17411 0.0
C1330 C 0.96767 0.03282 0.14238 0.0
C1331 C 0.9784 0.05267 0.15985 0.0
C1332 C 0.96453 0.05929 0.18359 0.0
C1333 C 0.94101 0.04495 0.19031 0.0
C1334 C 0.98159 0.02565 0.11658 0.0
C1335 C 0.97559 0.08008 0.2029 0.0
C1336 C 0.05399 0.0608 0.15903 0.0
C1337 C 0.05757 0.08493 0.1451 0.0
C1338 C 0.02825 0.05038 0.16433 0.0
C1339 C 0.00561 0.06413 0.15488 0.0
C1340 C 0.00908 0.08842 0.1406 0.0
C1341 C 0.0351 0.09872 0.13613 0.0
C1342 C 0.02532 0.02465 0.18007 0.0
C1343 C 0.98537 0.10325 0.12975 0.0
H1344 H 0.93694 0.00226 0.13719 0.0
H1345 H 0.93109 0.04913 0.20912 0.0
H1346 H 0.98736 0.04401 0.10529 0.0
H1347 H 0.00027 0.01491 0.12116 0.0
H1348 H 0.96877 0.0126 0.10357 0.0
H1349 H 0.96099 0.08494 0.21889 0.0
H1350 H -0.00599 0.07248 0.21246 0.0
H1351 H 0.98129 0.09879 0.19217 0.0
H1352 H 0.07135 0.05022 0.16615 0.0
H1353 H 0.03789 0.11729 0.12514 0.0
H1354 H 0.01528 0.00899 0.16759 0.0
H1355 H 0.01251 0.02782 0.19791 0.0
H1356 H 0.04495 0.01704 0.18686 0.0
H1357 H 0.97379 0.09012 0.11577 0.0
H1358 H 0.99154 0.12185 0.119 0.0
H1359 H 0.97168 0.10859 0.14631 0.0
C1360 C 0.24208 0.72515 0.51529 0.0
C1361 C 0.23318 0.70142 0.52763 0.0
C1362 C 0.25712 0.74438 0.52957 0.0
C1363 C 0.26352 0.73956 0.55674 0.0
C1364 C 0.25466 0.71561 0.56931 0.0
C1365 C 0.23941 0.69684 0.55461 0.0
C1366 C 0.266 0.76993 0.51565 0.0
C1367 C 0.26133 0.70983 0.59821 0.0
C1368 C 0.32076 0.78284 0.58352 0.0
C1369 C 0.30669 0.80382 0.5952 0.0
C1370 C 0.30695 0.76095 0.57194 0.0
C1371 C 0.27855 0.76025 0.57216 0.0
C1372 C 0.26435 0.78059 0.58532 0.0
C1373 C 0.27862 0.80209 0.59678 0.0
C1374 C 0.32267 0.73935 0.55829 0.0
C1375 C 0.23404 0.78047 0.58599 0.0
H1376 H 0.23726 0.72872 0.49444 0.0
H1377 H 0.23272 0.67838 0.56416 0.0
H1378 H 0.25755 0.78745 0.52611 0.0
H1379 H 0.28817 0.77221 0.51646 0.0
H1380 H 0.25959 0.7704 0.49435 0.0
H1381 H 0.25353 0.68988 0.60476 0.0
H1382 H 0.28339 0.71065 0.60115 0.0
H1383 H 0.25273 0.72537 0.61136 0.0
H1384 H 0.34247 0.78404 0.58238 0.0
H1385 H 0.26765 0.81807 0.60619 0.0
H1386 H 0.31962 0.74054 0.53631 0.0
H1387 H 0.31541 0.71924 0.56483 0.0
H1388 H 0.34451 0.74129 0.56249 0.0
H1389 H 0.22618 0.7832 0.5654 0.0
H1390 H 0.22619 0.79665 0.59891 0.0
H1391 H 0.22606 0.76094 0.59341 0.0
C1392 C 0.0554 0.5622 0.27855 0.0
C1393 C 0.07565 0.54569 0.28802 0.0
C1394 C 0.0372 0.57373 0.29622 0.0
C1395 C 0.0397 0.56905 0.32408 0.0
C1396 C 0.06168 0.55461 0.33394 0.0
C1397 C 0.07929 0.54278 0.31572 0.0
C1398 C 0.01402 0.58907 0.28484 0.0
C1399 C 0.0656 0.55009 0.36355 0.0
C1400 C 0.99045 0.61094 0.36189 0.0
C1401 C 0.96807 0.59339 0.36251 0.0
C1402 C 0.01516 0.6025 0.35195 0.0
C1403 C 0.0172 0.57612 0.34195 0.0
C1404 C -0.00454 0.55762 0.34505 0.0
C1405 C 0.9712 0.56643 0.3556 0.0
C1406 C 0.03826 0.62246 0.35006 0.0
C1407 C -0.00316 0.52924 0.33469 0.0
H1408 H 0.05261 0.56469 0.25717 0.0
H1409 H 0.09517 0.53032 0.32317 0.0
H1410 H -0.00505 0.57782 0.28863 0.0
H1411 H 0.01255 0.60883 0.29483 0.0
H1412 H 0.01598 0.59238 0.26292 0.0
H1413 H 0.08651 0.54442 0.36819 0.0
H1414 H 0.06072 0.56828 0.37521 0.0
H1415 H 0.05194 0.53362 0.37033 0.0
H1416 H 0.98827 0.6317 0.36774 0.0
H1417 H 0.95407 0.55268 0.35627 0.0
H1418 H 0.03924 0.63073 0.32947 0.0
H1419 H 0.05763 0.61277 0.35421 0.0
H1420 H 0.03584 0.63941 0.36423 0.0
H1421 H -0.00259 0.5295 0.31246 0.0
H1422 H 0.97931 0.5167 0.3411 0.0
H1423 H 0.01539 0.51967 0.34174 0.0
C1424 C 0.43577 0.45301 0.80276 0.0
C1425 C 0.4384 0.43994 0.77799 0.0
C1426 C 0.45442 0.44926 0.82342 0.0
C1427 C 0.47627 0.43227 0.81904 0.0
C1428 C 0.47923 0.41934 0.79397 0.0
C1429 C 0.46009 0.42309 0.77387 0.0
C1430 C 0.45074 0.4634 0.84987 0.0
C1431 C 0.50249 0.40127 0.78833 0.0
C1432 C 0.54234 0.4307 0.85517 0.0
C1433 C 0.53982 0.40568 0.86778 0.0
C1434 C 0.52052 0.44154 0.84152 0.0
C1435 C 0.49585 0.42694 0.84065 0.0
C1436 C 0.49224 0.40378 0.85662 0.0
C1437 C 0.51429 0.39352 0.87021 0.0
C1438 C 0.525 0.46661 0.82514 0.0
C1439 C 0.46614 0.38784 0.85663 0.0
H1440 H 0.41906 0.46611 0.80608 0.0
H1441 H 0.46237 0.41309 0.75474 0.0
H1442 H 0.44835 0.44847 0.86617 0.0
H1443 H 0.46882 0.47586 0.85463 0.0
H1444 H 0.43297 0.47642 0.84984 0.0
H1445 H 0.504 0.39626 0.76675 0.0
H1446 H 0.52176 0.41086 0.79462 0.0
H1447 H 0.49989 0.3824 0.79986 0.0
H1448 H 0.56191 0.44047 0.85352 0.0
H1449 H 0.51208 0.37449 0.88051 0.0
H1450 H 0.50705 0.47933 0.82547 0.0
H1451 H 0.5288 0.46095 0.804 0.0
H1452 H 0.54258 0.47858 0.83248 0.0
H1453 H 0.44872 0.40123 0.85727 0.0
H1454 H 0.46484 0.37382 0.87386 0.0
H1455 H 0.46465 0.37592 0.83789 0.0
C1456 C 0.96459 0.79006 0.71364 0.0
C1457 C 0.95791 0.77168 0.69346 0.0
C1458 C 0.94505 0.79925 0.73123 0.0
C1459 C 0.91807 0.79034 0.72798 0.0
C1460 C 0.91113 0.77188 0.70748 0.0
C1461 C 0.93131 0.76243 0.69059 0.0
C1462 C 0.95334 0.81848 0.75331 0.0
C1463 C 0.88244 0.7626 0.70308 0.0
C1464 C 0.87979 0.79919 0.7919 0.0
C1465 C 0.87138 0.82569 0.78906 0.0
C1466 C 0.89316 0.78634 0.77112 0.0
C1467 C 0.89758 0.80011 0.74677 0.0
C1468 C 0.8862 0.82548 0.74263 0.0
C1469 C 0.87336 0.83815 0.76399 0.0
C1470 C 0.90512 0.75932 0.7764 0.0
C1471 C 0.88973 0.84033 0.71651 0.0
H1472 H 0.98522 0.79712 0.71577 0.0
H1473 H 0.92615 0.74847 0.67465 0.0
H1474 H 0.94295 0.83773 0.75081 0.0
H1475 H 0.94735 0.81014 0.77307 0.0
H1476 H 0.97531 0.82267 0.75355 0.0
H1477 H 0.8805 0.74781 0.6865 0.0
H1478 H 0.87416 0.75341 0.72161 0.0
H1479 H 0.86992 0.78005 0.69831 0.0
H1480 H 0.87783 0.78914 0.81106 0.0
H1481 H 0.86637 0.85839 0.76147 0.0
H1482 H 0.92706 0.76193 0.77961 0.0
H1483 H 0.90218 0.74573 0.75902 0.0
H1484 H 0.89631 0.74954 0.79445 0.0
H1485 H 0.91033 0.84916 0.71553 0.0
H1486 H 0.87525 0.8568 0.71454 0.0
H1487 H 0.88719 0.82652 0.69923 0.0
C1488 C 0.9599 0.15823 0.43923 0.0
C1489 C 0.97754 0.17872 0.43091 0.0
C1490 C 0.95651 0.15264 0.46649 0.0
C1491 C 0.97043 0.16862 0.48565 0.0
C1492 C 0.99006 0.18769 0.47723 0.0
C1493 C -0.00633 0.19226 0.44979 0.0
C1494 C 0.93596 0.13156 0.47476 0.0
C1495 C 0.00501 0.20534 0.49707 0.0
C1496 C 0.9263 0.18262 0.54502 0.0
C1497 C 0.93646 0.16518 0.56419 0.0
C1498 C 0.93835 0.18506 0.51987 0.0
C1499 C 0.96056 0.169 0.51358 0.0
C1500 C 0.97154 0.15208 0.53326 0.0
C1501 C 0.95946 0.1506 0.5586 0.0
C1502 C 0.92655 0.204 0.49967 0.0
C1503 C -0.00513 0.13437 0.5271 0.0
H1504 H 0.94758 0.1477 0.42452 0.0
H1505 H 0.00719 0.2083 0.44332 0.0
H1506 H 0.9435 0.11956 0.49175 0.0
H1507 H 0.91744 0.14145 0.48152 0.0
H1508 H 0.93063 0.11782 0.45797 0.0
H1509 H 0.02193 0.21666 0.48757 0.0
H1510 H 0.99102 0.21996 0.50578 0.0
H1511 H 0.01292 0.19328 0.51382 0.0
H1512 H 0.90863 0.19405 0.5496 0.0
H1513 H 0.96709 0.13696 0.57352 0.0
H1514 H 0.91727 0.19235 0.483 0.0
H1515 H 0.94252 0.21715 0.49098 0.0
H1516 H 0.91098 0.21682 0.50863 0.0
H1517 H 0.98791 0.11763 0.514 0.0
H1518 H 0.00365 0.12575 0.54555 0.0
H1519 H 0.01081 0.14561 0.5161 0.0
C1520 C 0.53282 0.17321 0.19431 0.0
C1521 C 0.54535 0.19633 0.18388 0.0
C1522 C 0.54502 0.15857 0.21466 0.0
C1523 C 0.57052 0.16708 0.22431 0.0
C1524 C 0.58459 0.18841 0.21155 0.0
C1525 C 0.57168 0.20304 0.1916 0.0
C1526 C 0.52929 0.13599 0.22783 0.0
C1527 C 0.6122 0.19745 0.2207 0.0
C1528 C 0.57917 0.16215 0.29918 0.0
C1529 C 0.5936 0.13858 0.30174 0.0
C1530 C 0.57182 0.17165 0.274 0.0
C1531 C 0.57966 0.15755 0.25076 0.0
C1532 C 0.59502 0.1342 0.25312 0.0
C1533 C 0.60151 0.12472 0.27872 0.0
C1534 C 0.55509 0.19648 0.27235 0.0
C1535 C 0.60429 0.11912 0.22873 0.0
H1536 H 0.51254 0.16778 0.1882 0.0
H1537 H 0.58163 0.22063 0.18318 0.0
H1538 H 0.54222 0.11865 0.23169 0.0
H1539 H 0.52162 0.14294 0.24746 0.0
H1540 H 0.51191 0.12917 0.21545 0.0
H1541 H 0.62253 0.21006 0.20538 0.0
H1542 H 0.61043 0.20945 0.23932 0.0
H1543 H 0.62479 0.18001 0.2253 0.0
H1544 H 0.57294 0.17283 0.31697 0.0
H1545 H 0.61293 0.10661 0.28073 0.0
H1546 H 0.53588 0.19174 0.26194 0.0
H1547 H 0.56579 0.21217 0.26051 0.0
H1548 H 0.55048 0.20487 0.2924 0.0
H1549 H 0.5868 0.10934 0.21869 0.0
H1550 H 0.61887 0.10345 0.23391 0.0
H1551 H 0.61372 0.13311 0.21408 0.0
C1552 C 0.4808 0.79612 0.94476 0.0
C1553 C 0.49069 0.80149 0.91905 0.0
C1554 C 0.49507 0.80476 0.96743 0.0
C1555 C 0.51915 0.81997 0.9641 0.0
C1556 C 0.52742 0.82808 0.93818 0.0
C1557 C 0.51337 0.81818 0.91582 0.0
C1558 C 0.48599 0.79498 -0.00535 0.0
C1559 C 0.5524 0.84518 0.93395 0.0
C1560 C 0.55067 0.84623 0.02827 0.0
C1561 C 0.57004 0.82694 0.03295 0.0
C1562 C 0.53477 0.8451 0.00512 0.0
C1563 C 0.53767 0.82349 0.98709 0.0
C1564 C 0.55745 0.80408 -0.00824 0.0
C1565 C 0.57382 0.80638 0.01447 0.0
C1566 C 0.5146 0.86665 0.00022 0.0
C1567 C 0.56061 0.78027 0.9734 0.0
H1568 H 0.46347 0.7828 0.94716 0.0
H1569 H 0.52096 0.82222 0.89585 0.0
H1570 H 0.50004 0.77969 0.00197 0.0
H1571 H 0.48627 0.81162 0.00937 0.0
H1572 H 0.46548 0.78581 -0.00592 0.0
H1573 H 0.55293 0.85416 0.9136 0.0
H1574 H 0.55377 0.86148 0.94905 0.0
H1575 H 0.57036 0.83268 0.93631 0.0
H1576 H 0.54803 0.8622 0.04272 0.0
H1577 H 0.58875 0.79142 0.01844 0.0
H1578 H 0.49397 0.85814 0.0023 0.0
H1579 H 0.51659 0.87444 0.97949 0.0
H1580 H 0.51705 0.88363 0.01448 0.0
H1581 H 0.54151 0.76843 0.97251 0.0
H1582 H 0.57679 0.76688 0.9801 0.0
H1583 H 0.56525 0.78713 0.95278 0.0
C1584 C 0.92625 0.1935 0.84049 0.0
C1585 C 0.91464 0.21862 0.84394 0.0
C1586 C 0.9178 0.17644 0.81974 0.0
C1587 C 0.89709 0.18469 0.80251 0.0
C1588 C 0.8821 0.20749 0.80912 0.0
C1589 C 0.89128 0.22451 0.82969 0.0
C1590 C 0.93368 0.15174 0.81389 0.0
C1591 C 0.85868 0.21582 0.79219 0.0
C1592 C 0.91379 0.18028 0.72911 0.0
C1593 C 0.89921 0.15742 0.72108 0.0
C1594 C 0.9132 0.18907 0.7556 0.0
C1595 C 0.89695 0.17505 0.77446 0.0
C1596 C 0.88176 0.15211 0.76639 0.0
C1597 C 0.88351 0.1432 0.73974 0.0
C1598 C 0.93024 0.21335 0.76333 0.0
C1599 C 0.86389 0.13677 0.78563 0.0
H1600 H 0.94373 0.18827 0.85213 0.0
H1601 H 0.88154 0.24344 0.8329 0.0
H1602 H 0.92017 0.13479 0.80803 0.0
H1603 H 0.94749 0.15589 0.79689 0.0
H1604 H 0.94582 0.14563 0.83142 0.0
H1605 H 0.84538 0.22947 0.80334 0.0
H1606 H 0.86627 0.22654 0.77417 0.0
H1607 H 0.84675 0.19804 0.78536 0.0
H1608 H 0.92613 0.19109 0.71466 0.0
H1609 H 0.87214 0.12555 0.73336 0.0
H1610 H 0.9439 0.20829 0.78004 0.0
H1611 H 0.91723 0.22967 0.7703 0.0
H1612 H 0.9426 0.22109 0.7464 0.0
H1613 H 0.87558 0.12077 0.79523 0.0
H1614 H 0.84674 0.12696 0.77496 0.0
H1615 H 0.85594 0.14984 0.80162 0.0
C1616 C 0.51204 0.2012 0.52857 0.0
C1617 C 0.51697 0.20327 0.55608 0.0
C1618 C 0.52903 0.1867 0.51198 0.0
C1619 C 0.5509 0.17313 0.52341 0.0
C1620 C 0.55529 0.17418 0.5514 0.0
C1621 C 0.53853 0.18976 0.56741 0.0
C1622 C 0.52403 0.18661 0.48212 0.0
C1623 C 0.57776 0.15908 0.56431 0.0
C1624 C 0.57588 0.12248 0.47395 0.0
C1625 C 0.59687 0.13706 0.46188 0.0
C1626 C 0.56245 0.13283 0.49617 0.0
C1627 C 0.5695 0.15883 0.50554 0.0
C1628 C 0.59188 0.17283 0.49443 0.0
C1629 C 0.60563 0.16149 0.47291 0.0
C1630 C 0.53938 0.11687 0.50818 0.0
C1631 C 0.59959 0.20089 0.50332 0.0
H1632 H 0.49547 0.21185 0.51983 0.0
H1633 H 0.54215 0.19125 0.58878 0.0
H1634 H 0.54205 0.19453 0.47146 0.0
H1635 H 0.52023 0.16584 0.47497 0.0
H1636 H 0.50662 0.19889 0.47645 0.0
H1637 H 0.57682 0.15986 0.58653 0.0
H1638 H 0.57698 0.1378 0.55784 0.0
H1639 H 0.59739 0.16768 0.55781 0.0
H1640 H 0.56927 0.10351 0.4653 0.0
H1641 H 0.62171 0.17282 0.46323 0.0
H1642 H 0.52014 0.12487 0.50086 0.0
H1643 H 0.53948 0.11858 0.53034 0.0
H1644 H 0.54009 0.09535 0.50258 0.0
H1645 H 0.58397 0.21491 0.49666 0.0
H1646 H 0.61916 0.20773 0.49483 0.0
H1647 H 0.60072 0.20213 0.52545 0.0
C1648 C 0.53963 0.76884 0.30529 0.0
C1649 C 0.51434 0.78066 0.30561 0.0
C1650 C 0.55688 0.77207 0.28328 0.0
C1651 C 0.5485 0.78724 0.26104 0.0
C1652 C 0.52283 0.7988 0.26104 0.0
C1653 C 0.50612 0.7955 0.28339 0.0
C1654 C 0.58419 0.75962 0.28399 0.0
C1655 C 0.51309 0.81491 0.23752 0.0
C1656 C 0.59575 0.82251 0.21297 0.0
C1657 C 0.59263 0.80661 0.18995 0.0
C1658 C 0.58297 0.8154 0.23698 0.0
C1659 C 0.56665 0.79187 0.23791 0.0
C1660 C 0.56528 0.77456 0.21545 0.0
C1661 C 0.57843 0.78209 0.19172 0.0
C1662 C 0.58526 0.83416 0.26066 0.0
C1663 C 0.54813 0.74925 0.21573 0.0
H1664 H 0.54615 0.75737 0.32242 0.0
H1665 H 0.48655 0.80453 0.2834 0.0
H1666 H 0.58681 0.74646 0.26631 0.0
H1667 H 0.60003 0.77555 0.28297 0.0
H1668 H 0.5873 0.74764 0.30242 0.0
H1669 H 0.49213 0.8215 0.2402 0.0
H1670 H 0.52626 0.83291 0.23476 0.0
H1671 H 0.51414 0.80289 0.21886 0.0
H1672 H 0.607 0.84132 0.21185 0.0
H1673 H 0.57601 0.76958 0.17408 0.0
H1674 H 0.58904 0.82284 0.27933 0.0
H1675 H 0.56606 0.84468 0.26328 0.0
H1676 H 0.60157 0.84946 0.258 0.0
H1677 H 0.55142 0.73774 0.23438 0.0
H1678 H 0.55227 0.73615 0.19827 0.0
H1679 H 0.52665 0.75457 0.21518 0.0
C1680 C 0.93789 0.78263 0.02506 0.0
C1681 C 0.9537 0.79354 0.04562 0.0
C1682 C 0.92574 0.7992 0.00632 0.0
C1683 C 0.92881 0.82738 0.00887 0.0
C1684 C 0.9443 0.83854 0.03003 0.0
C1685 C 0.95701 0.82138 0.048 0.0
C1686 C 0.90991 0.78648 0.98359 0.0
C1687 C 0.94706 0.86847 0.03388 0.0
C1688 C 0.91782 0.86008 0.9424 0.0
C1689 C 0.88982 0.86243 0.94257 0.0
C1690 C 0.9314 0.85089 0.96494 0.0
C1691 C 0.91667 0.84468 0.98838 0.0
C1692 C 0.88906 0.85049 0.98982 0.0
C1693 C 0.87581 0.8591 0.96672 0.0
C1694 C 0.96085 0.84482 0.96249 0.0
C1695 C 0.87297 0.84516 0.01492 0.0
H1696 H 0.93541 0.76106 0.02339 0.0
H1697 H 0.96891 0.8297 0.06431 0.0
H1698 H 0.88871 0.79268 0.98455 0.0
H1699 H 0.91815 0.79339 0.96408 0.0
H1700 H 0.91027 0.76425 0.9841 0.0
H1701 H 0.96004 0.8739 0.05124 0.0
H1702 H 0.95558 0.87803 0.01565 0.0
H1703 H 0.92696 0.87701 0.03708 0.0
H1704 H 0.92896 0.86328 0.924 0.0
H1705 H 0.85426 0.8615 0.96718 0.0
H1706 H 0.96314 0.82285 0.96045 0.0
H1707 H 0.97206 0.85131 0.98063 0.0
H1708 H 0.97016 0.85467 0.94474 0.0
H1709 H 0.86796 0.82344 0.01627 0.0
H1710 H 0.85392 0.85628 0.0149 0.0
H1711 H 0.88469 0.85084 0.03304 0.0
C1712 C 0.65872 0.90821 0.76607 0.0
C1713 C 0.65814 0.93605 0.76965 0.0
C1714 C 0.67635 0.89265 0.78104 0.0
C1715 C 0.69429 0.90548 0.79916 0.0
C1716 C 0.69219 0.93322 0.80439 0.0
C1717 C 0.67385 0.94811 0.78978 0.0
C1718 C 0.67709 0.86286 0.77607 0.0
C1719 C 0.71108 0.94775 0.82345 0.0
C1720 C 0.74503 0.87468 0.84536 0.0
C1721 C 0.76835 0.87755 0.82984 0.0
C1722 C 0.71993 0.88121 0.83478 0.0
C1723 C 0.71849 0.89164 0.80849 0.0
C1724 C 0.74169 0.89271 0.79218 0.0
C1725 C 0.76625 0.88524 0.80294 0.0
C1726 C 0.6954 0.87857 0.85232 0.0
C1727 C 0.74115 0.90403 0.76411 0.0
H1728 H 0.6461 0.89872 0.75095 0.0
H1729 H 0.67327 0.9696 0.79283 0.0
H1730 H 0.69379 0.85843 0.7622 0.0
H1731 H 0.68065 0.85186 0.795 0.0
H1732 H 0.65812 0.85519 0.76688 0.0
H1733 H 0.70539 0.96888 0.82678 0.0
H1734 H 0.71146 0.93743 0.84307 0.0
H1735 H 0.73175 0.94767 0.81521 0.0
H1736 H 0.74649 0.86824 0.86603 0.0
H1737 H 0.78413 0.88727 0.79071 0.0
H1738 H 0.67727 0.87323 0.84038 0.0
H1739 H 0.69186 0.89796 0.86243 0.0
H1740 H 0.69808 0.86316 0.86808 0.0
H1741 H 0.7255 0.89361 0.75196 0.0
H1742 H 0.76071 0.90222 0.75369 0.0
H1743 H 0.7361 0.92556 0.76493 0.0
C1744 C 0.85811 0.9544 0.51532 0.0
C1745 C 0.83628 0.94321 0.52934 0.0
C1746 C 0.87118 0.97779 0.52467 0.0
C1747 C 0.86142 0.99056 0.54791 0.0
C1748 C 0.83927 0.97929 0.562 0.0
C1749 C 0.82729 0.95547 0.55277 0.0
C1750 C 0.89528 0.98887 0.50974 0.0
C1751 C 0.82776 -0.00729 0.58648 0.0
C1752 C 0.89729 0.04018 0.59281 0.0
C1753 C 0.88539 0.06401 0.58488 0.0
C1754 C 0.89189 0.01626 0.57893 0.0
C1755 C 0.87341 0.01622 0.55741 0.0
C1756 C 0.86283 0.04062 0.54822 0.0
C1757 C 0.86931 0.06438 0.5619 0.0
C1758 C 0.90431 0.99075 0.58865 0.0
C1759 C 0.84253 0.04134 0.52579 0.0
H1760 H 0.86509 0.94471 0.49725 0.0
H1761 H 0.81022 0.9469 0.56344 0.0
H1762 H 0.8908 0.00885 0.50138 0.0
H1763 H 0.91247 0.99165 0.52368 0.0
H1764 H 0.90139 0.97557 0.49308 0.0
H1765 H 0.80992 0.98169 0.59453 0.0
H1766 H 0.84314 -0.00583 0.6025 0.0
H1767 H 0.82185 0.01341 0.58149 0.0
H1768 H 0.91004 0.04008 0.61041 0.0
H1769 H 0.86006 0.08287 0.55586 0.0
H1770 H 0.91049 0.97815 0.5715 0.0
H1771 H 0.88932 0.97901 0.60043 0.0
H1772 H 0.92205 -0.00511 0.60161 0.0
H1773 H 0.849 0.02903 0.50858 0.0
H1774 H 0.83915 0.06208 0.51869 0.0
H1775 H 0.82312 0.03274 0.53299 0.0
C1776 C 0.80654 0.04566 0.29886 0.0
C1777 C 0.81313 0.05219 0.27232 0.0
C1778 C 0.78576 0.05846 0.31216 0.0
C1779 C 0.77173 0.07885 0.29886 0.0
C1780 C 0.78016 0.08749 0.27315 0.0
C1781 C 0.80057 0.07374 0.25993 0.0
C1782 C 0.77722 0.04834 0.33945 0.0
C1783 C 0.76645 0.11003 0.2589 0.0
C1784 C 0.69815 0.07856 0.31641 0.0
C1785 C 0.69768 0.09714 0.3374 0.0
C1786 C 0.72203 0.07325 0.30295 0.0
C1787 C 0.74583 0.08758 0.31008 0.0
C1788 C 0.74507 0.10772 0.33005 0.0
C1789 C 0.72103 0.11188 0.34393 0.0
C1790 C 0.72207 0.05114 0.28224 0.0
C1791 C 0.76976 0.12413 0.33745 0.0
H1792 H 0.81634 0.02918 0.30868 0.0
H1793 H 0.8059 0.07915 0.23957 0.0
H1794 H 0.77544 0.06522 0.35372 0.0
H1795 H 0.75718 0.03831 0.33791 0.0
H1796 H 0.79151 0.03381 0.34786 0.0
H1797 H 0.77877 0.11803 0.24206 0.0
H1798 H 0.74698 0.10262 0.25067 0.0
H1799 H 0.76221 0.12661 0.273 0.0
H1800 H 0.68008 0.06712 0.31142 0.0
H1801 H 0.72052 0.12654 0.35996 0.0
H1802 H 0.73522 0.03484 0.28905 0.0
H1803 H 0.73025 0.05879 0.26301 0.0
H1804 H 0.70168 0.04248 0.27853 0.0
H1805 H 0.78283 0.11218 0.35058 0.0
H1806 H 0.76455 0.1427 0.34837 0.0
H1807 H 0.78152 0.12967 0.31934 0.0
C1808 C 0.67003 0.03358 0.01924 0.0
C1809 C 0.69707 0.03778 0.02612 0.0
C1810 C 0.65571 0.01086 0.0283 0.0
C1811 C 0.66897 -0.0082 0.04415 0.0
C1812 C 0.69628 -0.00411 0.05108 0.0
C1813 C 0.70995 0.01897 0.04215 0.0
C1814 C 0.62646 0.00727 0.02097 0.0
C1815 C 0.71116 0.97574 0.06769 0.0
C1816 C 0.63325 0.94175 0.08907 0.0
C1817 C 0.6349 0.91826 0.07383 0.0
C1818 C 0.64278 0.96632 0.07895 0.0
C1819 C 0.65463 0.96719 0.05322 0.0
C1820 C 0.65511 0.9438 0.03722 0.0
C1821 C 0.64498 0.91961 0.04764 0.0
C1822 C 0.64143 0.99103 0.09633 0.0
C1823 C 0.66792 0.94392 0.00981 0.0
H1824 H 0.65995 0.0482 0.00702 0.0
H1825 H 0.73089 0.02206 0.04739 0.0
H1826 H 0.62342 0.98863 0.00912 0.0
H1827 H 0.61417 0.00511 0.03939 0.0
H1828 H 0.61894 0.02436 0.00914 0.0
H1829 H 0.73247 0.98183 0.07105 0.0
H1830 H 0.70129 0.97316 0.08745 0.0
H1831 H 0.71056 0.95593 0.05758 0.0
H1832 H 0.62519 0.9408 0.10922 0.0
H1833 H 0.64634 0.90149 0.03578 0.0
H1834 H 0.63363 0.0081 0.08471 0.0
H1835 H 0.6619 -0.00317 0.10326 0.0
H1836 H 0.62851 0.98773 0.11419 0.0
H1837 H 0.65997 0.96036 -0.00258 0.0
H1838 H 0.66453 0.92467 -0.00098 0.0
H1839 H 0.68987 0.94757 0.01187 0.0
C1840 C 0.6919 0.06478 0.69189 0.0
C1841 C 0.68788 0.03878 0.68169 0.0
C1842 C 0.71536 0.07964 0.68607 0.0
C1843 C 0.73535 0.06807 0.66996 0.0
C1844 C 0.7311 0.04217 0.65899 0.0
C1845 C 0.70731 0.02789 0.66485 0.0
C1846 C 0.71908 0.1074 0.69774 0.0
C1847 C 0.7521 0.02912 0.64185 0.0
C1848 C 0.79102 0.10921 0.63732 0.0
C1849 C 0.81258 0.10449 0.65461 0.0
C1850 C 0.76538 0.09843 0.64267 0.0
C1851 C 0.76137 0.08233 0.66566 0.0
C1852 C 0.78279 0.07838 0.68374 0.0
C1853 C 0.80812 0.08967 0.67809 0.0
C1854 C 0.74285 0.10346 0.62321 0.0
C1855 C 0.77927 0.06119 0.70842 0.0
H1856 H 0.67686 0.0734 0.70476 0.0
H1857 H 0.70438 0.00781 0.65693 0.0
H1858 H 0.73581 0.10757 0.71239 0.0
H1859 H 0.72454 0.12193 0.68175 0.0
H1860 H 0.70074 0.11433 0.70802 0.0
H1861 H 0.74527 0.00924 0.63409 0.0
H1862 H 0.75741 0.04217 0.6246 0.0
H1863 H 0.77065 0.02645 0.65374 0.0
H1864 H 0.79428 0.12091 0.61929 0.0
H1865 H 0.82467 0.08598 0.69158 0.0
H1866 H 0.72488 0.11044 0.63404 0.0
H1867 H 0.73707 0.0845 0.6129 0.0
H1868 H 0.74858 0.11858 0.60782 0.0
H1869 H 0.76219 0.06822 0.72057 0.0
H1870 H 0.79753 0.06134 0.72119 0.0
H1871 H 0.77453 0.04021 0.70239 0.0
C1872 C 0.69606 0.93338 0.48199 0.0
C1873 C 0.71909 0.9269 0.4675 0.0
C1874 C 0.6785 0.95273 0.47238 0.0
C1875 C 0.6847 0.96628 0.44822 0.0
C1876 C 0.70712 0.9587 0.43284 0.0
C1877 C 0.72386 0.93883 0.44254 0.0
C1878 C 0.65419 0.95965 0.48877 0.0
C1879 C 0.71463 0.97293 0.40712 0.0
C1880 C 0.63998 0.01307 0.41017 0.0
C1881 C 0.65004 0.03802 0.41894 0.0
C1882 C 0.6495 0.98927 0.42116 0.0
C1883 C 0.67016 0.99064 0.44058 0.0
C1884 C 0.67943 0.01582 0.45036 0.0
C1885 C 0.66894 0.03924 0.43966 0.0
C1886 C 0.63844 0.96275 0.41103 0.0
C1887 C 0.70181 0.01814 0.47072 0.0
H1888 H 0.69214 0.92389 0.50115 0.0
H1889 H 0.74161 0.9338 0.43123 0.0
H1890 H 0.65797 0.97893 0.49932 0.0
H1891 H 0.63644 0.96216 0.47567 0.0
H1892 H 0.64941 0.94405 0.50399 0.0
H1893 H 0.73177 0.96352 0.3968 0.0
H1894 H 0.69731 0.97299 0.39319 0.0
H1895 H 0.7202 -0.00587 0.41154 0.0
H1896 H 0.62504 0.01218 0.39438 0.0
H1897 H 0.67676 0.05853 0.44642 0.0
H1898 H 0.63522 0.94852 0.42783 0.0
H1899 H 0.65306 0.95375 0.39712 0.0
H1900 H 0.61919 0.96506 0.40014 0.0
H1901 H 0.697 0.00582 0.4886 0.0
H1902 H 0.70564 0.03915 0.47728 0.0
H1903 H 0.72057 0.01041 0.46194 0.0
C1904 C 0.80828 0.91609 0.17849 0.0
C1905 C 0.80085 0.93491 0.19775 0.0
C1906 C 0.789 0.89896 0.16662 0.0
C1907 C 0.76165 0.9017 0.17341 0.0
C1908 C 0.75415 0.92062 0.19305 0.0
C1909 C 0.77398 0.93665 0.20541 0.0
C1910 C 0.79781 0.8783 0.14655 0.0
C1911 C 0.72509 0.92475 0.20018 0.0
C1912 C 0.70778 0.88342 0.12291 0.0
C1913 C 0.69544 0.86116 0.13516 0.0
C1914 C 0.72999 0.89636 0.13473 0.0
C1915 C 0.74059 0.88612 0.15886 0.0
C1916 C 0.72936 0.86243 0.17021 0.0
C1917 C 0.70643 0.85054 0.15852 0.0
C1918 C 0.74075 0.92209 0.12247 0.0
C1919 C 0.74079 0.85037 0.19534 0.0
H1920 H 0.8292 0.91469 0.17283 0.0
H1921 H 0.76836 0.95142 0.22021 0.0
H1922 H 0.78903 0.85834 0.15168 0.0
H1923 H 0.79041 0.88355 0.12632 0.0
H1924 H 0.81999 0.87682 0.14569 0.0
H1925 H 0.72269 0.94039 0.21579 0.0
H1926 H 0.71381 0.93073 0.18206 0.0
H1927 H 0.7158 0.90577 0.20755 0.0
H1928 H 0.69888 0.8919 0.10508 0.0
H1929 H 0.69671 0.83334 0.16794 0.0
H1930 H 0.76276 0.92124 0.11968 0.0
H1931 H 0.73685 0.93905 0.13622 0.0
H1932 H 0.73133 0.92637 0.10282 0.0
H1933 H 0.76296 0.8495 0.19399 0.0
H1934 H 0.73253 0.82986 0.1991 0.0
H1935 H 0.73596 0.86312 0.21282 0.0
C1936 C 0.82172 0.06592 0.94575 0.0
C1937 C 0.79661 0.07468 0.93715 0.0
C1938 C 0.83447 0.04516 0.9322 0.0
C1939 C 0.82141 0.03281 0.91012 0.0
C1940 C 0.79828 0.04434 0.89906 0.0
C1941 C 0.78624 0.06539 0.91263 0.0
C1942 C 0.86021 0.03444 0.94335 0.0
C1943 C 0.7842 0.03219 0.87501 0.0
C1944 C 0.84535 0.97164 0.87292 0.0
C1945 C 0.83223 0.95118 0.88734 0.0
C1946 C 0.84357 -0.00155 0.88099 0.0
C1947 C 0.82735 0.00474 0.90326 0.0
C1948 C 0.81449 0.98395 0.91814 0.0
C1949 C 0.81749 0.95736 0.91021 0.0
C1950 C 0.85846 0.01979 0.86518 0.0
C1951 C 0.79667 0.98977 0.94185 0.0
H1952 H 0.83038 0.07365 0.9642 0.0
H1953 H 0.7673 0.07274 0.90531 0.0
H1954 H 0.85558 0.01673 0.95608 0.0
H1955 H 0.87363 0.02795 0.92696 0.0
H1956 H 0.87098 0.04966 0.95584 0.0
H1957 H 0.76864 0.04552 0.86686 0.0
H1958 H 0.79879 0.02791 0.85893 0.0
H1959 H 0.77435 0.0129 0.88085 0.0
H1960 H 0.85717 0.96665 0.85545 0.0
H1961 H 0.80743 0.94142 0.92132 0.0
H1962 H 0.86375 0.03755 0.87765 0.0
H1963 H 0.84565 0.02639 0.84838 0.0
H1964 H 0.87714 0.01181 0.85641 0.0
H1965 H 0.80827 0.00081 0.95747 0.0
H1966 H 0.78798 0.97124 0.95097 0.0
H1967 H 0.77995 0.00264 0.93553 0.0
C1968 C 0.81464 0.68255 0.96392 0.0
C1969 C 0.79448 0.66462 0.95513 0.0
C1970 C 0.81972 0.70666 0.9504 0.0
C1971 C 0.80469 0.7126 0.92719 0.0
C1972 C 0.78495 0.69413 0.91765 0.0
C1973 C 0.77983 0.67043 0.93198 0.0
C1974 C 0.84063 0.72611 0.96143 0.0
C1975 C 0.76907 0.69959 0.89257 0.0
C1976 C 0.8013 0.78638 0.91097 0.0
C1977 C 0.82309 0.78956 0.89351 0.0
C1978 C 0.7944 0.76112 0.92139 0.0
C1979 C 0.80925 0.73859 0.91354 0.0
C1980 C 0.83015 0.74149 0.89454 0.0
C1981 C 0.83708 0.76708 0.88502 0.0
C1982 C 0.77233 0.75885 0.94203 0.0
C1983 C 0.84593 0.71779 0.88518 0.0
H1984 H 0.82586 0.67816 0.98193 0.0
H1985 H 0.76434 0.65646 0.9251 0.0
H1986 H 0.8563 0.7303 0.94616 0.0
H1987 H 0.83122 0.74544 0.96633 0.0
H1988 H 0.85048 0.71844 0.97976 0.0
H1989 H 0.75576 0.68237 0.88686 0.0
H1990 H 0.75653 0.71741 0.89562 0.0
H1991 H 0.78285 0.70418 0.87567 0.0
H1992 H 0.79059 0.80383 0.91763 0.0
H1993 H 0.85377 0.7696 0.87126 0.0
H1994 H 0.78104 0.75325 0.96165 0.0
H1995 H 0.75763 0.74282 0.93638 0.0
H1996 H 0.76151 0.7779 0.94453 0.0
H1997 H 0.85877 0.71068 0.90175 0.0
H1998 H 0.85901 0.72286 0.86782 0.0
H1999 H 0.83219 0.70094 0.87946 0.0
C2000 C 0.32018 0.79117 0.033 0.0
C2001 C 0.30394 0.81335 0.03654 0.0
C2002 C 0.32731 0.7753 0.0548 0.0
C2003 C 0.31841 0.7822 0.08082 0.0
C2004 C 0.30288 0.8052 0.08469 0.0
C2005 C 0.29546 0.82033 0.06238 0.0
C2006 C 0.34387 0.75077 0.04982 0.0
C2007 C 0.29359 0.81357 0.11217 0.0
C2008 C 0.31685 0.7197 0.1218 0.0
C2009 C 0.34368 0.71936 0.13023 0.0
C2010 C 0.30702 0.74179 0.10807 0.0
C2011 C 0.32434 0.76409 0.10334 0.0
C2012 C 0.34981 0.76561 0.11577 0.0
C2013 C 0.35932 0.74304 0.12906 0.0
C2014 C 0.2795 0.73962 0.09552 0.0
C2015 C 0.36825 0.78973 0.11229 0.0
H2016 H 0.32677 0.78578 0.01305 0.0
H2017 H 0.28315 0.83773 0.0652 0.0
H2018 H 0.36291 0.75229 0.06126 0.0
H2019 H 0.33283 0.73255 0.05685 0.0
H2020 H 0.34878 0.74809 0.02829 0.0
H2021 H 0.28793 0.83496 0.1126 0.0
H2022 H 0.27572 0.80127 0.11794 0.0
H2023 H 0.30935 0.81038 0.12746 0.0
H2024 H 0.30431 0.70175 0.12344 0.0
H2025 H 0.37982 0.74324 0.13632 0.0
H2026 H 0.2816 0.73539 0.07379 0.0
H2027 H 0.26874 0.75869 0.09758 0.0
H2028 H 0.26708 0.72326 0.10461 0.0
H2029 H 0.37817 0.78866 0.09243 0.0
H2030 H 0.38411 0.79053 0.12793 0.0
H2031 H 0.35686 0.80855 0.113 0.0
C2032 C 0.92871 0.51038 0.84126 0.0
C2033 C 0.92362 0.51729 0.81456 0.0
C2034 C 0.95026 0.52237 0.85531 0.0
C2035 C 0.96749 0.54087 0.84193 0.0
C2036 C 0.96168 0.54873 0.81537 0.0
C2037 C 0.93957 0.53715 0.80218 0.0
C2038 C 0.95527 0.51428 0.88395 0.0
C2039 C 0.97987 0.56796 0.80013 0.0
C2040 C 0.0218 0.58613 0.871 0.0
C2041 C 0.0447 0.57158 0.86481 0.0
C2042 C -0.00395 0.57525 0.86612 0.0
C2043 C -0.00663 0.54969 0.854 0.0
C2044 C 0.01638 0.53425 0.84942 0.0
C2045 C 0.04175 0.54526 0.85524 0.0
C2046 C 0.97187 0.59177 0.87235 0.0
C2047 C 0.01446 0.50706 0.83612 0.0
H2048 H 0.91623 0.49522 0.85098 0.0
H2049 H 0.93578 0.54253 0.78152 0.0
H2050 H 0.97169 0.49968 0.88461 0.0
H2051 H 0.9616 0.53187 0.89622 0.0
H2052 H 0.93716 0.50476 0.89315 0.0
H2053 H 0.97194 0.57267 0.77992 0.0
H2054 H 0.9826 0.58697 0.8114 0.0
H2055 H -3e-05 0.55914 0.79776 0.0
H2056 H 0.02401 0.60631 0.87889 0.0
H2057 H 0.05938 0.53383 0.85056 0.0
H2058 H 0.95551 0.57905 0.88097 0.0
H2059 H 0.96418 0.6007 0.8536 0.0
H2060 H 0.97682 0.60829 0.88657 0.0
H2061 H -0.00053 0.49401 0.84644 0.0
H2062 H 0.03399 0.49678 0.83599 0.0
H2063 H 0.00768 0.5094 0.81509 0.0
C2064 C 0.19345 0.1683 0.52937 0.0
C2065 C 0.21918 0.16286 0.53894 0.0
C2066 C 0.1771 0.18635 0.54279 0.0
C2067 C 0.1866 0.19873 0.56659 0.0
C2068 C 0.21115 0.19079 0.57801 0.0
C2069 C 0.22742 0.17317 0.5638 0.0
C2070 C 0.15114 0.19442 0.52982 0.0
C2071 C 0.22138 0.20278 0.60393 0.0
C2072 C 0.17112 0.27205 0.57207 0.0
C2073 C 0.14868 0.27168 0.58891 0.0
C2074 C 0.18375 0.2484 0.56506 0.0
C2075 C 0.17415 0.22376 0.57579 0.0
C2076 C 0.15215 0.2233 0.5937 0.0
C2077 C 0.13928 0.24734 0.5997 0.0
C2078 C 0.20685 0.24978 0.54545 0.0
C2079 C 0.14189 0.1975 0.6061 0.0
H2080 H 0.18687 0.16012 0.51028 0.0
H2081 H 0.24709 0.16853 0.57154 0.0
H2082 H 0.13485 0.1955 0.54484 0.0
H2083 H 0.15382 0.21467 0.52091 0.0
H2084 H 0.14476 0.18028 0.51371 0.0
H2085 H 0.23734 0.1905 0.61296 0.0
H2086 H 0.22989 0.22313 0.60007 0.0
H2087 H 0.20482 0.20476 0.61858 0.0
H2088 H 0.17831 0.29083 0.56351 0.0
H2089 H 0.12201 0.24712 0.61288 0.0
H2090 H 0.20201 0.2374 0.52753 0.0
H2091 H 0.22512 0.24157 0.55473 0.0
H2092 H 0.21153 0.27057 0.53875 0.0
H2093 H 0.13026 0.18578 0.591 0.0
H2094 H 0.1286 0.20121 0.6235 0.0
H2095 H 0.15879 0.18502 0.61273 0.0
C2096 C 0.04939 0.95026 0.85719 0.0
C2097 C 0.05438 0.96975 0.83764 0.0
C2098 C 0.02308 0.9416 0.86284 0.0
C2099 C 0.00169 0.95181 0.84755 0.0
C2100 C 0.00653 0.97307 0.82933 0.0
C2101 C 0.03293 0.98214 0.82494 0.0
C2102 C 0.01851 0.91975 0.8833 0.0
C2103 C 0.98443 0.984 0.81209 0.0
C2104 C 0.94771 0.90025 0.83013 0.0
C2105 C 0.9263 0.9089 0.84565 0.0
C2106 C 0.9722 0.9145 0.83019 0.0
C2107 C 0.97553 0.9372 0.8471 0.0
C2108 C 0.954 0.94568 0.86321 0.0
C2109 C 0.92936 0.93166 0.86188 0.0
C2110 C -0.00556 0.90533 0.81204 0.0
C2111 C 0.95718 0.96908 0.88222 0.0
H2112 H 0.06612 0.94068 0.86685 0.0
H2113 H 0.03697 -0.00309 0.80946 0.0
H2114 H 0.0002 0.92346 0.89524 0.0
H2115 H 0.01555 0.90024 0.87291 0.0
H2116 H 0.03587 0.9181 0.89712 0.0
H2117 H 0.99071 0.00291 0.80193 0.0
H2118 H 0.97888 0.96898 0.79651 0.0
H2119 H 0.96621 0.98772 0.8241 0.0
H2120 H 0.94509 0.88265 0.81756 0.0
H2121 H 0.91268 0.93799 0.87412 0.0
H2122 H 0.01167 0.89874 0.82422 0.0
H2123 H 0.00167 0.92219 0.79928 0.0
H2124 H 0.9879 0.88847 0.79884 0.0
H2125 H 0.97284 0.96468 0.89729 0.0
H2126 H 0.93822 0.97348 0.89288 0.0
H2127 H 0.96397 0.9873 0.87127 0.0
C2128 C 0.71355 0.31237 0.40983 0.0
C2129 C 0.70874 0.31822 0.43686 0.0
C2130 C 0.70003 0.2909 0.39712 0.0
C2131 C 0.68199 0.27454 0.41208 0.0
C2132 C 0.67575 0.28148 0.43882 0.0
C2133 C 0.68896 0.30346 0.45076 0.0
C2134 C 0.70636 0.2847 0.36825 0.0
C2135 C 0.65692 0.26434 0.45563 0.0
C2136 C 0.63744 0.21822 0.38497 0.0
C2137 C 0.65316 0.19595 0.39045 0.0
C2138 C 0.64728 0.24432 0.39003 0.0
C2139 C 0.67301 0.248 0.40165 0.0
C2140 C 0.68933 0.22561 0.40617 0.0
C2141 C 0.67934 0.19992 0.40014 0.0
C2142 C 0.62974 0.2678 0.38401 0.0
C2143 C 0.71671 0.22857 0.419 0.0
H2144 H 0.72851 0.324 0.39886 0.0
H2145 H 0.68504 0.30791 0.47163 0.0
H2146 H 0.72012 0.26758 0.3673 0.0
H2147 H 0.68784 0.27886 0.35713 0.0
H2148 H 0.71617 0.30207 0.35802 0.0
H2149 H 0.65253 0.2737 0.4753 0.0
H2150 H 0.63771 0.26057 0.44494 0.0
H2151 H 0.66604 0.2446 0.4593 0.0
H2152 H 0.61729 0.21521 0.37717 0.0
H2153 H 0.6916 0.18279 0.40445 0.0
H2154 H 0.64168 0.2845 0.375 0.0
H2155 H 0.62093 0.27531 0.4029 0.0
H2156 H 0.61306 0.26216 0.3702 0.0
H2157 H 0.72948 0.24292 0.40751 0.0
H2158 H 0.7272 0.20922 0.42024 0.0
H2159 H 0.71464 0.23673 0.43957 0.0
C2160 C 0.92037 0.42764 0.67838 0.0
C2161 C 0.92891 0.44284 0.70045 0.0
C2162 C 0.93916 0.41619 0.66119 0.0
C2163 C 0.96683 0.42015 0.66656 0.0
C2164 C 0.97536 0.43688 0.68802 0.0
C2165 C 0.95616 0.44795 0.70487 0.0
C2166 C 0.92944 0.39863 0.63838 0.0
C2167 C 0.00473 0.44168 0.69426 0.0
C2168 C 0.01683 0.36664 0.65219 0.0
C2169 C 0.03218 0.37886 0.632 0.0
C2170 C -0.00557 0.37929 0.66268 0.0
C2171 C 0.98696 0.40436 0.65213 0.0
C2172 C 0.0011 0.41565 0.63017 0.0
C2173 C 0.02397 0.40294 0.62064 0.0
C2174 C 0.9802 0.36685 0.68647 0.0
C2175 C -0.00689 0.44189 0.61789 0.0
H2176 H 0.8991 0.42378 0.67529 0.0
H2177 H 0.96243 0.45976 0.72211 0.0
H2178 H 0.94071 0.40342 0.61978 0.0
H2179 H 0.93304 0.37734 0.64326 0.0
H2180 H 0.90766 0.40088 0.6345 0.0
H2181 H 0.0079 0.45682 0.71035 0.0
H2182 H 0.01375 0.42263 0.70076 0.0
H2183 H 0.01565 0.44856 0.6761 0.0
H2184 H 0.0234 0.3481 0.66109 0.0
H2185 H 0.03586 0.41217 0.60483 0.0
H2186 H 0.95814 0.36695 0.68364 0.0
H2187 H 0.98495 0.37881 0.70469 0.0
H2188 H 0.98633 0.3459 0.69002 0.0
H2189 H 0.97104 0.44255 0.61532 0.0
H2190 H 0.00284 0.44529 0.59813 0.0
H2191 H -0.00082 0.45861 0.63142 0.0
C2192 C 0.57918 0.58213 0.18799 0.0
C2193 C 0.58402 0.55558 0.18063 0.0
C2194 C 0.55788 0.59586 0.17653 0.0
C2195 C 0.54184 0.58283 0.15687 0.0
C2196 C 0.55 0.55821 0.14589 0.0
C2197 C 0.57082 0.5445 0.15829 0.0
C2198 C 0.5503 0.62255 0.18818 0.0
C2199 C 0.53465 0.54487 0.12331 0.0
C2200 C 0.46734 0.58762 0.16872 0.0
C2201 C 0.46076 0.60873 0.1519 0.0
C2202 C 0.49373 0.57891 0.1702 0.0
C2203 C 0.51367 0.59095 0.15351 0.0
C2204 C 0.50666 0.6114 0.13538 0.0
C2205 C 0.48029 0.62056 0.13531 0.0
C2206 C 0.50037 0.55741 0.19029 0.0
C2207 C 0.52678 0.62413 0.11645 0.0
H2208 H 0.5898 0.59102 0.20487 0.0
H2209 H 0.57513 0.52426 0.152 0.0
H2210 H 0.54574 0.63691 0.172 0.0
H2211 H 0.53195 0.61989 0.20058 0.0
H2212 H 0.56649 0.63135 0.20096 0.0
H2213 H 0.54701 0.52989 0.11282 0.0
H2214 H 0.51658 0.53438 0.13145 0.0
H2215 H 0.52787 0.55996 0.10861 0.0
H2216 H 0.45201 0.57866 0.18148 0.0
H2217 H 0.47485 0.63679 0.12209 0.0
H2218 H 0.51654 0.5647 0.20394 0.0
H2219 H 0.50777 0.53946 0.17976 0.0
H2220 H 0.48275 0.55122 0.2026 0.0
H2221 H 0.53508 0.64282 0.12558 0.0
H2222 H 0.51696 0.62973 0.09734 0.0
H2223 H 0.54364 0.61073 0.11191 0.0
C2224 C 0.58438 0.71199 0.81477 0.0
C2225 C 0.56092 0.69686 0.82006 0.0
C2226 C 0.60225 0.70402 0.79475 0.0
C2227 C 0.59609 0.68075 0.77957 0.0
C2228 C 0.57426 0.66378 0.78713 0.0
C2229 C 0.55701 0.67198 0.80748 0.0
C2230 C 0.62611 0.72189 0.78811 0.0
C2231 C 0.56721 0.63855 0.77168 0.0
C2232 C 0.60217 0.68129 0.70457 0.0
C2233 C 0.621 0.66133 0.70031 0.0
C2234 C 0.59534 0.68923 0.73047 0.0
C2235 C 0.60803 0.67725 0.75267 0.0
C2236 C 0.6291 0.65922 0.74848 0.0
C2237 C 0.63524 0.65127 0.72225 0.0
C2238 C 0.57286 0.70875 0.734 0.0
C2239 C 0.64385 0.64683 0.77157 0.0
H2240 H 0.58785 0.73097 0.8249 0.0
H2241 H 0.53921 0.65991 0.81189 0.0
H2242 H 0.64353 0.70991 0.78191 0.0
H2243 H 0.62093 0.73519 0.77118 0.0
H2244 H 0.63205 0.73472 0.80543 0.0
H2245 H 0.55175 0.62602 0.78207 0.0
H2246 H 0.55933 0.64399 0.75166 0.0
H2247 H 0.58526 0.62639 0.76852 0.0
H2248 H 0.59149 0.68961 0.68771 0.0
H2249 H 0.65021 0.63618 0.71911 0.0
H2250 H 0.57921 0.72535 0.74751 0.0
H2251 H 0.55532 0.69835 0.74336 0.0
H2252 H 0.56631 0.71747 0.71468 0.0
H2253 H 0.64585 0.66092 0.7887 0.0
H2254 H 0.66415 0.64047 0.76544 0.0
H2255 H 0.63249 0.6288 0.77856 0.0
C2256 C 0.55994 0.29141 0.0723 0.0
C2257 C 0.54531 0.31148 0.08489 0.0
C2258 C 0.57454 0.29696 0.04895 0.0
C2259 C 0.57472 0.32325 0.0384 0.0
C2260 C 0.5629 0.34421 0.05299 0.0
C2261 C 0.54809 0.33802 0.07604 0.0
C2262 C 0.58692 0.27405 0.03396 0.0
C2263 C 0.56335 0.37265 0.04274 0.0
C2264 C 0.61435 0.33764 0.97505 0.0
C2265 C 0.59418 0.33481 0.95558 0.0
C2266 C 0.60839 0.33434 0.00231 0.0
C2267 C 0.58181 0.32755 0.00997 0.0
C2268 C 0.56145 0.32456 0.99033 0.0
C2269 C 0.56785 0.32851 0.96339 0.0
C2270 C 0.63038 0.33818 0.02284 0.0
C2271 C 0.53287 0.31696 -0.00229 0.0
H2272 H 0.5581 0.27088 0.07924 0.0
H2273 H 0.53727 0.35372 0.08611 0.0
H2274 H 0.5736 0.26805 0.01705 0.0
H2275 H 0.60665 0.28009 0.02541 0.0
H2276 H 0.58958 0.2563 0.04702 0.0
H2277 H 0.55853 0.38717 0.05882 0.0
H2278 H 0.58323 0.37814 0.03415 0.0
H2279 H 0.54821 0.3745 0.02659 0.0
H2280 H 0.6347 0.34275 0.96898 0.0
H2281 H 0.55228 0.32615 0.94835 0.0
H2282 H 0.63313 0.31934 0.03414 0.0
H2283 H 0.62471 0.35372 0.03756 0.0
H2284 H 0.64984 0.34424 0.01357 0.0
H2285 H 0.53237 0.29771 0.00881 0.0
H2286 H 0.51965 0.31483 0.97988 0.0
H2287 H 0.52447 0.33242 0.01109 0.0
C2288 C 0.95765 0.26273 0.26993 0.0
C2289 C 0.95266 0.24178 0.288 0.0
C2290 C 0.93777 0.27071 0.25202 0.0
C2291 C 0.91236 0.25746 0.25231 0.0
C2292 C 0.90754 0.23562 0.26977 0.0
C2293 C 0.92784 0.228 0.28743 0.0
C2294 C 0.94373 0.29396 0.23341 0.0
C2295 C 0.88069 0.22106 0.27055 0.0
C2296 C 0.8601 0.30391 0.22639 0.0
C2297 C 0.86006 0.29736 0.19909 0.0
C2298 C 0.87523 0.28932 0.24466 0.0
C2299 C 0.89059 0.26776 0.23529 0.0
C2300 C 0.88811 0.25913 0.2084 0.0
C2301 C 0.8727 0.274 0.19057 0.0
C2302 C 0.87692 0.29875 0.27338 0.0
C2303 C 0.90391 0.23598 0.19777 0.0
H2304 H 0.97682 0.27325 0.27017 0.0
H2305 H 0.92391 0.21168 0.30139 0.0
H2306 H 0.93943 0.28805 0.21239 0.0
H2307 H 0.93054 0.31087 0.23838 0.0
H2308 H 0.96492 0.30117 0.23475 0.0
H2309 H 0.88124 0.20258 0.2829 0.0
H2310 H 0.86544 0.23444 0.27911 0.0
H2311 H 0.87401 0.21559 0.25004 0.0
H2312 H 0.84992 0.32163 0.2332 0.0
H2313 H 0.87246 0.26852 0.16956 0.0
H2314 H 0.89649 0.30926 0.2767 0.0
H2315 H 0.87578 0.28152 0.28735 0.0
H2316 H 0.86067 0.31277 0.27839 0.0
H2317 H 0.9251 0.24261 0.1948 0.0
H2318 H 0.8959 0.2286 0.17828 0.0
H2319 H 0.90382 0.21912 0.21221 0.0
C2320 C 0.96488 0.70709 0.55749 0.0
C2321 C 0.96042 0.73441 0.56175 0.0
C2322 C 0.95408 0.69374 0.53519 0.0
C2323 C 0.93876 0.70815 0.51651 0.0
C2324 C 0.93373 0.73561 0.52092 0.0
C2325 C 0.94444 0.74839 0.5437 0.0
C2326 C 0.95953 0.66433 0.53135 0.0
C2327 C 0.91734 0.75153 0.50148 0.0
C2328 C 0.9373 0.68 0.4461 0.0
C2329 C 0.912 0.6672 0.44532 0.0
C2330 C 0.94599 0.6939 0.46901 0.0
C2331 C 0.92913 0.69463 0.49178 0.0
C2332 C 0.90366 0.6816 0.49122 0.0
C2333 C 0.89532 0.66815 0.46791 0.0
C2334 C 0.97316 0.70792 0.46882 0.0
C2335 C 0.88534 0.68167 0.51529 0.0
H2336 H 0.97696 0.69609 0.57158 0.0
H2337 H 0.9409 0.76949 0.54697 0.0
H2338 H 0.9404 0.65287 0.52858 0.0
H2339 H 0.97167 0.66151 0.51298 0.0
H2340 H 0.97047 0.6557 0.54858 0.0
H2341 H 0.91736 0.77321 0.50651 0.0
H2342 H 0.9251 0.74915 0.4808 0.0
H2343 H 0.89632 0.74382 0.50169 0.0
H2344 H 0.95016 0.6796 0.42862 0.0
H2345 H 0.87573 0.65828 0.46741 0.0
H2346 H 0.98614 0.69933 0.48451 0.0
H2347 H 0.97095 0.72949 0.47354 0.0
H2348 H 0.98345 0.70615 0.44919 0.0
H2349 H 0.89553 0.67255 0.53269 0.0
H2350 H 0.86619 0.67047 0.51159 0.0
H2351 H 0.88069 0.70255 0.52091 0.0
C2352 C 0.4827 0.31502 0.70202 0.0
C2353 C 0.49507 0.30465 0.67919 0.0
C2354 C 0.49781 0.32201 0.72472 0.0
C2355 C 0.52596 0.319 0.72431 0.0
C2356 C 0.53864 0.30914 0.7011 0.0
C2357 C 0.52298 0.30185 0.67884 0.0
C2358 C 0.48353 0.33191 0.74936 0.0
C2359 C 0.56865 0.30585 0.69994 0.0
C2360 C 0.56604 0.35801 0.77634 0.0
C2361 C 0.56982 0.33843 0.79602 0.0
C2362 C 0.5522 0.35184 0.75261 0.0
C2363 C 0.54199 0.32549 0.74852 0.0
C2364 C 0.5463 0.30548 0.76796 0.0
C2365 C 0.56024 0.31217 0.79147 0.0
C2366 C 0.54826 0.37356 0.73204 0.0
C2367 C 0.53566 0.27714 0.76424 0.0
H2368 H 0.46109 0.31694 0.70246 0.0
H2369 H 0.5326 0.29394 0.66113 0.0
H2370 H 0.48538 0.31706 0.76573 0.0
H2371 H 0.49298 0.35089 0.75647 0.0
H2372 H 0.46189 0.33525 0.74567 0.0
H2373 H 0.57547 0.29889 0.67999 0.0
H2374 H 0.57908 0.32515 0.70466 0.0
H2375 H 0.5749 0.29115 0.71524 0.0
H2376 H 0.57347 0.37832 0.77965 0.0
H2377 H 0.56317 0.29688 0.80651 0.0
H2378 H 0.5267 0.37505 0.72689 0.0
H2379 H 0.55903 0.36843 0.71336 0.0
H2380 H 0.55575 0.39347 0.73914 0.0
H2381 H 0.51344 0.2771 0.763 0.0
H2382 H 0.54155 0.26375 0.78089 0.0
H2383 H 0.54315 0.26873 0.74516 0.0
C2384 C 0.94552 0.33778 0.94809 0.0
C2385 C 0.94484 0.30972 0.94968 0.0
C2386 C 0.93289 0.35335 0.96761 0.0
C2387 C 0.91959 0.34042 0.98917 0.0
C2388 C 0.91872 0.31209 0.99071 0.0
C2389 C 0.93132 0.29711 0.97091 0.0
C2390 C 0.93397 0.3835 0.96531 0.0
C2391 C 0.9047 0.2975 0.01346 0.0
C2392 C 0.90784 0.36687 0.05822 0.0
C2393 C 0.87973 0.3673 0.05848 0.0
C2394 C 0.92172 0.36115 0.03462 0.0
C2395 C 0.90703 0.35598 0.01086 0.0
C2396 C 0.87907 0.36017 0.01024 0.0
C2397 C 0.86567 0.36582 0.03417 0.0
C2398 C 0.95162 0.35727 0.03605 0.0
C2399 C 0.8628 0.35547 0.9851 0.0
H2400 H 0.95589 0.34759 0.93161 0.0
H2401 H 0.93073 0.27543 0.97222 0.0
H2402 H 0.91344 0.39155 0.96636 0.0
H2403 H 0.94547 0.39222 0.98236 0.0
H2404 H 0.94353 0.39034 0.94636 0.0
H2405 H 0.9058 0.27538 0.01153 0.0
H2406 H 0.9139 0.30355 0.03285 0.0
H2407 H 0.88327 0.30293 0.01415 0.0
H2408 H 0.91892 0.36876 0.07685 0.0
H2409 H 0.84396 0.36671 0.0341 0.0
H2410 H 0.96178 0.36518 0.01787 0.0
H2411 H 0.95562 0.33552 0.03726 0.0
H2412 H 0.96063 0.36721 0.05395 0.0
H2413 H 0.87377 0.36288 0.96717 0.0
H2414 H 0.84311 0.36539 0.98618 0.0
H2415 H 0.85903 0.33363 0.98247 0.0
C2416 C 0.94593 0.67027 0.16943 0.0
C2417 C 0.92586 0.68536 0.15736 0.0
C2418 C 0.94038 0.65506 0.19237 0.0
C2419 C 0.91414 0.65484 0.20311 0.0
C2420 C 0.89309 0.66678 0.18874 0.0
C2421 C 0.89924 0.68208 0.166 0.0
C2422 C 0.96333 0.64229 0.20695 0.0
C2423 C 0.86468 0.66624 0.19915 0.0
C2424 C 0.9006 0.61701 0.26777 0.0
C2425 C 0.90432 0.63758 0.2867 0.0
C2426 C 0.90326 0.62222 0.24027 0.0
C2427 C 0.91024 0.64847 0.23178 0.0
C2428 C 0.914 0.66925 0.25085 0.0
C2429 C 0.91081 0.66357 0.27803 0.0
C2430 C 0.89881 0.59972 0.22043 0.0
C2431 C 0.92164 0.69755 0.24261 0.0
H2432 H 0.96649 0.67222 0.16252 0.0
H2433 H 0.88348 0.6931 0.15629 0.0
H2434 H 0.96986 0.65549 0.22375 0.0
H2435 H 0.95708 0.62267 0.21557 0.0
H2436 H 0.9808 0.63933 0.19356 0.0
H2437 H 0.85005 0.67082 0.18309 0.0
H2438 H 0.85932 0.64644 0.20794 0.0
H2439 H 0.86282 0.68152 0.21517 0.0
H2440 H 0.89541 0.59689 0.27443 0.0
H2441 H 0.91379 0.67953 0.29255 0.0
H2442 H 0.91816 0.59465 0.21096 0.0
H2443 H 0.88512 0.60596 0.20419 0.0
H2444 H 0.89028 0.58137 0.23005 0.0
H2445 H 0.94078 0.69765 0.23127 0.0
H2446 H 0.92408 0.71124 0.26005 0.0
H2447 H 0.90603 0.70566 0.22923 0.0
C2448 C 0.52922 0.66306 0.42978 0.0
C2449 C 0.53784 0.68938 0.42405 0.0
C2450 C 0.5427 0.64772 0.44878 0.0
C2451 C 0.56506 0.65918 0.46234 0.0
C2452 C 0.5757 0.68442 0.45422 0.0
C2453 C 0.56193 0.69926 0.43507 0.0
C2454 C 0.53132 0.6205 0.45628 0.0
C2455 C 0.59986 0.69709 0.46788 0.0
C2456 C 0.57121 0.6509 0.53695 0.0
C2457 C 0.59426 0.63558 0.5391 0.0
C2458 C 0.56063 0.65733 0.51195 0.0
C2459 C 0.57343 0.64813 0.48847 0.0
C2460 C 0.59549 0.63092 0.49048 0.0
C2461 C 0.60573 0.62483 0.51591 0.0
C2462 C 0.53674 0.67542 0.51072 0.0
C2463 C 0.60933 0.62032 0.46592 0.0
H2464 H 0.5109 0.65506 0.42083 0.0
H2465 H 0.56897 0.71939 0.4303 0.0
H2466 H 0.54756 0.6063 0.4606 0.0
H2467 H 0.51903 0.62232 0.47469 0.0
H2468 H 0.51832 0.61198 0.44016 0.0
H2469 H 0.60798 0.71463 0.4566 0.0
H2470 H 0.5941 0.70392 0.4882 0.0
H2471 H 0.61598 0.68234 0.47025 0.0
H2472 H 0.56198 0.6588 0.55488 0.0
H2473 H 0.6235 0.61281 0.51749 0.0
H2474 H 0.52075 0.66632 0.49797 0.0
H2475 H 0.54283 0.69487 0.50158 0.0
H2476 H 0.52819 0.6794 0.53084 0.0
H2477 H 0.59469 0.61523 0.44986 0.0
H2478 H 0.6211 0.60229 0.47061 0.0
H2479 H 0.62334 0.63597 0.45802 0.0
C2480 C 0.82607 0.58304 0.70247 0.0
C2481 C 0.83329 0.55837 0.69147 0.0
C2482 C 0.80638 0.59844 0.69022 0.0
C2483 C 0.79368 0.58865 0.66673 0.0
C2484 C 0.80382 0.56593 0.65352 0.0
C2485 C 0.82361 0.551 0.66609 0.0
C2486 C 0.79688 0.62328 0.70421 0.0
C2487 C 0.79132 0.55533 0.62797 0.0
C2488 C 0.71818 0.58938 0.66493 0.0
C2489 C 0.71329 0.60782 0.6445 0.0
C2490 C 0.7443 0.58378 0.67285 0.0
C2491 C 0.7662 0.59723 0.66026 0.0
C2492 C 0.76147 0.61699 0.64065 0.0
C2493 C 0.73498 0.62194 0.63282 0.0
C2494 C 0.74841 0.5626 0.69401 0.0
C2495 C 0.7842 0.63215 0.62712 0.0
H2496 H 0.83404 0.58924 0.72177 0.0
H2497 H 0.82968 0.5323 0.65712 0.0
H2498 H 0.7915 0.63891 0.68951 0.0
H2499 H 0.77866 0.6182 0.71608 0.0
H2500 H 0.81239 0.63163 0.71808 0.0
H2501 H 0.80431 0.5406 0.61788 0.0
H2502 H 0.77182 0.54525 0.63268 0.0
H2503 H 0.78735 0.5719 0.61387 0.0
H2504 H 0.70157 0.57859 0.67429 0.0
H2505 H 0.73134 0.63646 0.61718 0.0
H2506 H 0.76047 0.57102 0.71082 0.0
H2507 H 0.75963 0.5457 0.68538 0.0
H2508 H 0.72916 0.55454 0.70221 0.0
H2509 H 0.80121 0.63597 0.64105 0.0
H2510 H 0.77748 0.65159 0.61902 0.0
H2511 H 0.79167 0.62008 0.61014 0.0
C2512 C 0.75771 0.50718 0.94385 0.0
C2513 C 0.74757 0.52506 0.9628 0.0
C2514 C 0.74129 0.48666 0.93294 0.0
C2515 C 0.7141 0.48423 0.94101 0.0
C2516 C 0.70381 0.50219 0.96011 0.0
C2517 C 0.72067 0.52226 0.97086 0.0
C2518 C 0.75295 0.46764 0.91274 0.0
C2519 C 0.67485 0.50043 0.96899 0.0
C2520 C 0.6644 0.44785 0.89544 0.0
C2521 C 0.66164 0.42287 0.90812 0.0
C2522 C 0.68147 0.46799 0.90589 0.0
C2523 C 0.69625 0.46297 0.9295 0.0
C2524 C 0.69336 0.43795 0.94257 0.0
C2525 C 0.67598 0.41825 0.93181 0.0
C2526 C 0.68381 0.49457 0.89159 0.0
C2527 C 0.7089 0.43187 0.96773 0.0
H2528 H 0.77845 0.50919 0.93755 0.0
H2529 H 0.71255 0.53605 0.98538 0.0
H2530 H 0.75042 0.44669 0.91984 0.0
H2531 H 0.74204 0.46911 0.89344 0.0
H2532 H 0.77461 0.47184 0.90904 0.0
H2533 H 0.66996 0.51606 0.98396 0.0
H2534 H 0.66142 0.50262 0.95144 0.0
H2535 H 0.67038 0.48048 0.97789 0.0
H2536 H 0.65345 0.4516 0.87712 0.0
H2537 H 0.67412 0.39899 0.94169 0.0
H2538 H 0.70483 0.49828 0.88507 0.0
H2539 H 0.67856 0.51105 0.90543 0.0
H2540 H 0.67055 0.49543 0.87374 0.0
H2541 H 0.73074 0.43415 0.96383 0.0
H2542 H 0.70467 0.41126 0.97523 0.0
H2543 H 0.70385 0.44634 0.98372 0.0
C2544 C 0.64281 0.39288 0.22214 0.0
C2545 C 0.64386 0.42048 0.2169 0.0
C2546 C 0.6605 0.37562 0.20931 0.0
C2547 C 0.68013 0.38656 0.19183 0.0
C2548 C 0.67926 0.41388 0.18433 0.0
C2549 C 0.66079 0.43045 0.19672 0.0
C2550 C 0.65961 0.34622 0.21625 0.0
C2551 C 0.69976 0.42637 0.16556 0.0
C2552 C 0.75224 0.36774 0.19565 0.0
C2553 C 0.7567 0.35989 0.16918 0.0
C2554 C 0.72651 0.37414 0.20421 0.0
C2555 C 0.70477 0.37174 0.18598 0.0
C2556 C 0.7087 0.36029 0.16042 0.0
C2557 C 0.73486 0.35502 0.15203 0.0
C2558 C 0.72324 0.38638 0.2317 0.0
C2559 C 0.6858 0.35572 0.14107 0.0
H2560 H 0.62916 0.38498 0.23722 0.0
H2561 H 0.66134 0.45171 0.19228 0.0
H2562 H 0.666 0.33379 0.19905 0.0
H2563 H 0.67341 0.34253 0.23321 0.0
H2564 H 0.63912 0.33962 0.22248 0.0
H2565 H 0.69527 0.4475 0.16067 0.0
H2566 H 0.71995 0.42592 0.17492 0.0
H2567 H 0.70062 0.41485 0.14661 0.0
H2568 H 0.76916 0.37128 0.20895 0.0
H2569 H 0.73835 0.3483 0.13169 0.0
H2570 H 0.70673 0.37608 0.24272 0.0
H2571 H 0.71796 0.40777 0.22967 0.0
H2572 H 0.74182 0.38528 0.2439 0.0
H2573 H 0.66659 0.35169 0.15171 0.0
H2574 H 0.68985 0.33865 0.12748 0.0
H2575 H 0.68346 0.37381 0.1285 0.0
C2576 C 0.80895 0.45023 0.48572 0.0
C2577 C 0.78315 0.44581 0.47516 0.0
C2578 C 0.82483 0.4722 0.47764 0.0
C2579 C 0.81474 0.48998 0.45832 0.0
C2580 C 0.78845 0.48603 0.44802 0.0
C2581 C 0.77284 0.46399 0.45672 0.0
C2582 C 0.85267 0.47595 0.48921 0.0
C2583 C 0.77715 0.50458 0.42719 0.0
C2584 C 0.84662 0.5585 0.44645 0.0
C2585 C 0.86095 0.55398 0.42275 0.0
C2586 C 0.83224 0.53756 0.45896 0.0
C2587 C 0.83232 0.51165 0.44748 0.0
C2588 C 0.84827 0.50659 0.42471 0.0
C2589 C 0.86251 0.52782 0.41269 0.0
C2590 C 0.81573 0.54351 0.48351 0.0
C2591 C 0.84905 0.47911 0.41206 0.0
H2592 H 0.81689 0.43636 0.50024 0.0
H2593 H 0.75288 0.46063 0.44859 0.0
H2594 H 0.86783 0.47325 0.47324 0.0
H2595 H 0.85549 0.4966 0.49713 0.0
H2596 H 0.85669 0.46152 0.50557 0.0
H2597 H 0.75594 0.49947 0.42217 0.0
H2598 H 0.77836 0.52561 0.43439 0.0
H2599 H 0.78925 0.50353 0.40858 0.0
H2600 H 0.84536 0.57865 0.4544 0.0
H2601 H 0.87377 0.52411 0.39454 0.0
H2602 H 0.81943 0.52857 0.49944 0.0
H2603 H 0.79409 0.54205 0.47836 0.0
H2604 H 0.82016 0.56386 0.49163 0.0
H2605 H 0.85417 0.46388 0.42727 0.0
H2606 H 0.86385 0.47818 0.39548 0.0
H2607 H 0.82893 0.47358 0.40399 0.0
C2608 C 0.79283 0.42451 0.7637 0.0
C2609 C 0.79562 0.45106 0.77272 0.0
C2610 C 0.77163 0.40794 0.77248 0.0
C2611 C 0.75284 0.41819 0.79076 0.0
C2612 C 0.75538 0.44504 0.79982 0.0
C2613 C 0.77677 0.46124 0.79059 0.0
C2614 C 0.76951 0.3794 0.76246 0.0
C2615 C 0.73569 0.45653 0.8195 0.0
C2616 C 0.68394 0.38626 0.79934 0.0
C2617 C 0.68674 0.37335 0.8241 0.0
C2618 C 0.70568 0.40003 0.78758 0.0
C2619 C 0.73075 0.40072 0.80086 0.0
C2620 C 0.73425 0.38598 0.82471 0.0
C2621 C 0.7122 0.37235 0.836 0.0
C2622 C 0.70137 0.41529 0.7619 0.0
C2623 C 0.76082 0.38606 0.83928 0.0
H2624 H 0.80732 0.41655 0.74979 0.0
H2625 H 0.7789 0.48174 0.7976 0.0
H2626 H 0.77096 0.36532 0.77954 0.0
H2627 H 0.7497 0.37567 0.75287 0.0
H2628 H 0.78547 0.37474 0.74777 0.0
H2629 H 0.74022 0.47793 0.82415 0.0
H2630 H 0.71502 0.45479 0.81133 0.0
H2631 H 0.73602 0.44497 0.83845 0.0
H2632 H 0.6644 0.38697 0.78987 0.0
H2633 H 0.71463 0.36224 0.85502 0.0
H2634 H 0.71728 0.41078 0.74716 0.0
H2635 H 0.70261 0.43713 0.76605 0.0
H2636 H 0.68153 0.41051 0.75272 0.0
H2637 H 0.77733 0.38137 0.82527 0.0
H2638 H 0.76094 0.37141 0.856 0.0
H2639 H 0.76513 0.40633 0.8476 0.0
C2640 C 0.85622 0.54556 0.06856 0.0
C2641 C 0.83475 0.56316 0.06939 0.0
C2642 C 0.8592 0.52631 0.08864 0.0
C2643 C 0.84018 0.52486 0.10967 0.0
C2644 C 0.82225 0.54603 0.11338 0.0
C2645 C 0.81952 0.56497 0.09294 0.0
C2646 C 0.87966 0.50484 0.08476 0.0
C2647 C 0.803 0.5462 0.13663 0.0
C2648 C 0.81136 0.45478 0.11183 0.0
C2649 C 0.82535 0.44372 0.13318 0.0
C2650 C 0.81473 0.48176 0.10529 0.0
C2651 C 0.8329 0.49804 0.12039 0.0
C2652 C 0.84577 0.48738 0.14319 0.0
C2653 C 0.84158 0.46017 0.14952 0.0
C2654 C 0.80005 0.49224 0.08106 0.0
C2655 C 0.86441 0.50434 0.16036 0.0
H2656 H 0.86882 0.54473 0.0509 0.0
H2657 H 0.80365 0.5794 0.09431 0.0
H2658 H 0.88813 0.49851 0.10423 0.0
H2659 H 0.86979 0.48703 0.07532 0.0
H2660 H 0.89631 0.51178 0.07153 0.0
H2661 H 0.79571 0.56669 0.1406 0.0
H2662 H 0.78538 0.53303 0.13193 0.0
H2663 H 0.81258 0.53843 0.15502 0.0
H2664 H 0.7985 0.44197 0.09952 0.0
H2665 H 0.85224 0.45142 0.16618 0.0
H2666 H 0.81468 0.49827 0.06533 0.0
H2667 H 0.78848 0.51014 0.08654 0.0
H2668 H 0.7859 0.47709 0.07234 0.0
H2669 H 0.87769 0.51741 0.14795 0.0
H2670 H 0.87706 0.49189 0.17353 0.0
H2671 H 0.85232 0.51755 0.17326 0.0
C2672 C 0.70258 0.51247 0.31779 0.0
C2673 C 0.68785 0.52361 0.29681 0.0
C2674 C 0.72672 0.52462 0.32646 0.0
C2675 C 0.73604 0.54854 0.31402 0.0
C2676 C 0.72116 0.55995 0.293 0.0
C2677 C 0.69732 0.54728 0.28457 0.0
C2678 C 0.74231 0.51185 0.34884 0.0
C2679 C 0.73033 0.58565 0.27952 0.0
C2680 C 0.78451 0.59343 0.35261 0.0
C2681 C 0.80906 0.58727 0.34067 0.0
C2682 C 0.76054 0.58107 0.344 0.0
C2683 C 0.76123 0.56192 0.32313 0.0
C2684 C 0.78586 0.55589 0.31069 0.0
C2685 C 0.80951 0.5688 0.3195 0.0
C2686 C 0.73453 0.58833 0.35738 0.0
C2687 C 0.78729 0.53542 0.28846 0.0
H2688 H 0.69541 0.49414 0.32723 0.0
H2689 H 0.68597 0.55612 0.26845 0.0
H2690 H 0.76287 0.50739 0.34192 0.0
H2691 H 0.74434 0.52595 0.36595 0.0
H2692 H 0.73256 0.49298 0.35607 0.0
H2693 H 0.71631 0.59195 0.26355 0.0
H2694 H 0.73217 0.60198 0.29455 0.0
H2695 H 0.75046 0.58315 0.27053 0.0
H2696 H 0.78405 0.60778 0.36892 0.0
H2697 H 0.82846 0.56381 0.31033 0.0
H2698 H 0.72527 0.57033 0.36692 0.0
H2699 H 0.72012 0.59556 0.34223 0.0
H2700 H 0.73741 0.60409 0.37291 0.0
H2701 H 0.77957 0.51571 0.29571 0.0
H2702 H 0.80806 0.533 0.28094 0.0
H2703 H 0.77437 0.54138 0.27149 0.0
C2704 C 0.65751 0.41979 0.54999 0.0
C2705 C 0.68298 0.4133 0.55963 0.0
C2706 C 0.64365 0.44136 0.56087 0.0
C2707 C 0.65575 0.45667 0.58163 0.0
C2708 C 0.67956 0.44778 0.59387 0.0
C2709 C 0.69292 0.42606 0.58272 0.0
C2710 C 0.61774 0.44962 0.54801 0.0
C2711 C 0.69274 0.46319 0.61654 0.0
C2712 C 0.65526 0.53195 0.57602 0.0
C2713 C 0.63893 0.53903 0.5976 0.0
C2714 C 0.65988 0.50511 0.57005 0.0
C2715 C 0.64767 0.48474 0.58591 0.0
C2716 C 0.62977 0.49162 0.60664 0.0
C2717 C 0.62568 0.51878 0.61235 0.0
C2718 C 0.67895 0.49866 0.54752 0.0
C2719 C 0.61598 0.47051 0.62368 0.0
H2720 H 0.64939 0.40955 0.53252 0.0
H2721 H 0.71232 0.42074 0.59065 0.0
H2722 H 0.60353 0.45711 0.56323 0.0
H2723 H 0.62196 0.46613 0.53365 0.0
H2724 H 0.60799 0.43275 0.53688 0.0
H2725 H 0.70835 0.45134 0.6267 0.0
H2726 H 0.7024 0.48176 0.60851 0.0
H2727 H 0.67766 0.4692 0.63157 0.0
H2728 H 0.66525 0.54744 0.56427 0.0
H2729 H 0.61282 0.52408 0.62894 0.0
H2730 H 0.66908 0.48473 0.53304 0.0
H2731 H 0.69678 0.48855 0.55566 0.0
H2732 H 0.68591 0.51684 0.53651 0.0
H2733 H 0.61022 0.45257 0.61168 0.0
H2734 H 0.59776 0.47835 0.63349 0.0
H2735 H 0.62993 0.46408 0.63961 0.0
C2736 C 0.75884 0.79517 0.58259 0.0
C2737 C 0.75042 0.81375 0.56347 0.0
C2738 C 0.74132 0.77492 0.59185 0.0
C2739 C 0.71483 0.77329 0.58173 0.0
C2740 C 0.70566 0.79307 0.5639 0.0
C2741 C 0.7236 0.8131 0.55496 0.0
C2742 C 0.75175 0.75419 0.61099 0.0
C2743 C 0.67747 0.79202 0.5528 0.0
C2744 C 0.68494 0.70361 0.57388 0.0
C2745 C 0.66733 0.70192 0.59572 0.0
C2746 C 0.70032 0.72684 0.56912 0.0
C2747 C 0.69813 0.74893 0.58668 0.0
C2748 C 0.68034 0.74752 0.60871 0.0
C2749 C 0.66506 0.72396 0.61298 0.0
C2750 C 0.71907 0.72764 0.54533 0.0
C2751 C 0.67763 0.77076 0.62781 0.0
H2752 H 0.77946 0.7957 0.5895 0.0
H2753 H 0.71683 0.82759 0.54044 0.0
H2754 H 0.73727 0.75049 0.6275 0.0
H2755 H 0.75418 0.73495 0.60021 0.0
H2756 H 0.77144 0.76032 0.61976 0.0
H2757 H 0.67238 0.81077 0.54218 0.0
H2758 H 0.67542 0.77508 0.53847 0.0
H2759 H 0.66267 0.78844 0.56905 0.0
H2760 H 0.68681 0.6867 0.56043 0.0
H2761 H 0.65156 0.72273 0.62996 0.0
H2762 H 0.74002 0.73111 0.55221 0.0
H2763 H 0.71398 0.74451 0.53195 0.0
H2764 H 0.71816 0.70879 0.53348 0.0
H2765 H 0.69725 0.7754 0.63744 0.0
H2766 H 0.66254 0.7666 0.64371 0.0
H2767 H 0.67174 0.78893 0.6167 0.0
C2768 C 0.12444 0.68545 0.4373 0.0
C2769 C 0.14216 0.66681 0.42677 0.0
C2770 C 0.11622 0.70713 0.42185 0.0
C2771 C 0.12541 0.70961 0.3951 0.0
C2772 C 0.13963 0.68852 0.38319 0.0
C2773 C 0.14818 0.66739 0.39933 0.0
C2774 C 0.10065 0.72903 0.43525 0.0
C2775 C 0.14826 0.68964 0.35426 0.0
C2776 C 0.09909 0.77248 0.36391 0.0
C2777 C 0.11965 0.79089 0.3707 0.0
C2778 C 0.10175 0.74508 0.36904 0.0
C2779 C 0.12506 0.7363 0.38219 0.0
C2780 C 0.14675 0.75457 0.38702 0.0
C2781 C 0.14388 0.78169 0.38081 0.0
C2782 C 0.0788 0.72607 0.36221 0.0
C2783 C 0.172 0.74605 0.40109 0.0
H2784 H 0.11935 0.68483 0.4584 0.0
H2785 H 0.16137 0.6526 0.39092 0.0
H2786 H 0.11389 0.74702 0.43795 0.0
H2787 H 0.08351 0.73491 0.42259 0.0
H2788 H 0.09286 0.72284 0.45519 0.0
H2789 H 0.15223 0.66931 0.34633 0.0
H2790 H 0.13279 0.69908 0.34163 0.0
H2791 H 0.16703 0.70188 0.35255 0.0
H2792 H 0.08046 0.77966 0.35566 0.0
H2793 H 0.15975 0.79597 0.38603 0.0
H2794 H 0.06502 0.72439 0.37959 0.0
H2795 H 0.08597 0.70574 0.35743 0.0
H2796 H 0.0671 0.73355 0.34493 0.0
H2797 H 0.16711 0.73983 0.42189 0.0
H2798 H 0.18748 0.76239 0.40193 0.0
H2799 H 0.18068 0.72859 0.39077 0.0
C2800 C 0.52364 0.95973 0.719 0.0
C2801 C 0.54362 0.97034 0.70212 0.0
C2802 C 0.5009 0.9466 0.70844 0.0
C2803 C 0.49825 0.94389 0.68035 0.0
C2804 C 0.51859 0.95407 0.66319 0.0
C2805 C 0.54104 0.96734 0.67431 0.0
C2806 C 0.47944 0.93616 0.72733 0.0
C2807 C 0.51642 0.95133 0.63314 0.0
C2808 C 0.44618 0.89245 0.65725 0.0
C2809 C 0.42394 0.90862 0.65314 0.0
C2810 C 0.47094 0.90376 0.66519 0.0
C2811 C 0.47334 0.93181 0.66904 0.0
C2812 C 0.45128 0.9483 0.6638 0.0
C2813 C 0.42687 0.93651 0.65586 0.0
C2814 C 0.49419 0.88564 0.67043 0.0
C2815 C 0.45311 0.97832 0.66765 0.0
H2816 H 0.52557 0.96201 0.74052 0.0
H2817 H 0.55657 0.97535 0.6612 0.0
H2818 H 0.46041 0.94663 0.72355 0.0
H2819 H 0.47549 0.9145 0.72374 0.0
H2820 H 0.48506 0.93906 0.74869 0.0
H2821 H 0.53473 0.95893 0.62271 0.0
H2822 H 0.5129 0.93002 0.62757 0.0
H2823 H 0.49899 0.96262 0.62579 0.0
H2824 H 0.44407 0.8709 0.65504 0.0
H2825 H 0.40986 0.94919 0.65235 0.0
H2826 H 0.49899 0.88575 0.69213 0.0
H2827 H 0.51235 0.89308 0.65969 0.0
H2828 H 0.48978 0.86465 0.66414 0.0
H2829 H 0.45659 0.983 0.68912 0.0
H2830 H 0.4346 0.9884 0.66109 0.0
H2831 H 0.47036 0.9869 0.65628 0.0
C2832 C 0.33819 0.30629 0.9592 0.0
C2833 C 0.31769 0.32465 0.95583 0.0
C2834 C 0.34241 0.28629 0.94007 0.0
C2835 C 0.32575 0.28478 0.91708 0.0
C2836 C 0.30634 0.30442 0.91262 0.0
C2837 C 0.30245 0.32411 0.93214 0.0
C2838 C 0.36358 0.2658 0.94544 0.0
C2839 C 0.2887 0.30383 0.88803 0.0
C2840 C 0.35378 0.23599 0.86777 0.0
C2841 C 0.34133 0.21215 0.8766 0.0
C2842 C 0.3468 0.26066 0.87877 0.0
C2843 C 0.32729 0.26117 0.89926 0.0
C2844 C 0.31243 0.23757 0.90582 0.0
C2845 C 0.3195 0.21323 0.89413 0.0
C2846 C 0.36249 0.28556 0.8707 0.0
C2847 C 0.29126 0.2374 0.92744 0.0
H2848 H 0.35006 0.30666 0.97741 0.0
H2849 H 0.28679 0.33853 0.92921 0.0
H2850 H 0.35373 0.24665 0.95167 0.0
H2851 H 0.37546 0.2618 0.92717 0.0
H2852 H 0.37757 0.27248 0.96152 0.0
H2853 H 0.27831 0.32306 0.88512 0.0
H2854 H 0.30058 0.29949 0.86981 0.0
H2855 H 0.27326 0.28762 0.89009 0.0
H2856 H 0.37048 0.23511 0.85391 0.0
H2857 H 0.30982 0.1948 0.90094 0.0
H2858 H 0.3782 0.28997 0.88594 0.0
H2859 H 0.34931 0.30314 0.86968 0.0
H2860 H 0.37248 0.28302 0.85101 0.0
H2861 H 0.30112 0.23959 0.94728 0.0
H2862 H 0.27907 0.2185 0.92743 0.0
H2863 H 0.27767 0.25449 0.92495 0.0
C2864 C 0.45131 0.51085 0.64665 0.0
C2865 C 0.43271 0.51803 0.66632 0.0
C2866 C 0.47182 0.52874 0.63875 0.0
C2867 C 0.47365 0.5544 0.65075 0.0
C2868 C 0.45348 0.56267 0.66865 0.0
C2869 C 0.43319 0.54433 0.67627 0.0
C2870 C 0.49288 0.51924 0.61942 0.0
C2871 C 0.45459 0.59003 0.68156 0.0
C2872 C 0.54466 0.57922 0.66298 0.0
C2873 C 0.54867 0.59736 0.64188 0.0
C2874 C 0.52007 0.56569 0.66636 0.0
C2875 C 0.49889 0.57041 0.64822 0.0
C2876 C 0.50246 0.58922 0.62729 0.0
C2877 C 0.52741 0.60249 0.62432 0.0
C2878 C 0.51702 0.54577 0.689 0.0
C2879 C 0.48022 0.59476 0.60768 0.0
H2880 H 0.45084 0.49071 0.63851 0.0
H2881 H 0.41867 0.55019 0.69119 0.0
H2882 H 0.49763 0.53486 0.60427 0.0
H2883 H 0.51164 0.51528 0.63056 0.0
H2884 H 0.48645 0.50055 0.6089 0.0
H2885 H 0.43517 0.5951 0.69099 0.0
H2886 H 0.47031 0.59047 0.6973 0.0
H2887 H 0.46 0.60571 0.66666 0.0
H2888 H 0.56092 0.5752 0.67671 0.0
H2889 H 0.53037 0.61648 0.60795 0.0
H2890 H 0.51305 0.52542 0.68074 0.0
H2891 H 0.49965 0.5509 0.70173 0.0
H2892 H 0.53519 0.54513 0.70186 0.0
H2893 H 0.47604 0.57667 0.59532 0.0
H2894 H 0.48539 0.61172 0.59411 0.0
H2895 H 0.46146 0.59937 0.61852 0.0
C2896 C 0.75318 0.18167 0.03911 0.0
C2897 C 0.75033 0.18334 0.01123 0.0
C2898 C 0.76526 0.20258 0.05366 0.0
C2899 C 0.77449 0.22577 0.03999 0.0
C2900 C 0.77169 0.22766 0.01186 0.0
C2901 C 0.75967 0.20629 -0.00227 0.0
C2902 C 0.76804 0.19992 0.08368 0.0
C2903 C 0.78118 0.2523 -0.00322 0.0
C2904 C 0.78057 0.2889 0.08138 0.0
C2905 C 0.80824 0.29038 0.08646 0.0
C2906 C 0.7694 0.26816 0.06588 0.0
C2907 C 0.7863 0.24837 0.05541 0.0
C2908 C 0.81421 0.24962 0.0605 0.0
C2909 C 0.82489 0.27067 0.07601 0.0
C2910 C 0.73951 0.26739 0.06078 0.0
C2911 C 0.83272 0.22867 0.04967 0.0
H2912 H 0.74609 0.16389 0.04961 0.0
H2913 H 0.75745 0.2076 0.97618 0.0
H2914 H 0.7894 0.20246 0.08959 0.0
H2915 H 0.75678 0.21593 0.09383 0.0
H2916 H 0.76045 0.18021 0.09112 0.0
H2917 H 0.77794 0.25036 0.97484 0.0
H2918 H 0.77036 0.27006 0.00405 0.0
H2919 H 0.80286 0.25615 0.00054 0.0
H2920 H 0.76757 0.30406 0.08937 0.0
H2921 H 0.84629 0.27176 0.0798 0.0
H2922 H 0.73044 0.24875 0.06923 0.0
H2923 H 0.73551 0.26717 0.03893 0.0
H2924 H 0.72932 0.2848 0.06977 0.0
H2925 H 0.82679 0.20868 0.05769 0.0
H2926 H 0.85403 0.23291 0.05498 0.0
H2927 H 0.83098 0.22754 0.02755 0.0
C2928 C 0.58375 0.06623 0.81795 0.0
C2929 C 0.58174 0.06978 0.79015 0.0
C2930 C 0.56524 0.07786 0.83535 0.0
C2931 C 0.54407 0.09277 0.8245 0.0
C2932 C 0.5438 0.09884 0.7968 0.0
C2933 C 0.56287 0.08744 0.77996 0.0
C2934 C 0.56697 0.07214 0.86495 0.0
C2935 C 0.5217 0.11494 0.78444 0.0
C2936 C 0.4733 0.08451 0.8499 0.0
C2937 C 0.4682 0.11048 0.85884 0.0
C2938 C 0.49872 0.0779 0.84044 0.0
C2939 C 0.51964 0.09761 0.84054 0.0
C2940 C 0.51539 0.12291 0.85234 0.0
C2941 C 0.48955 0.12919 0.86109 0.0
C2942 C 0.50243 0.05057 0.8281 0.0
C2943 C 0.53746 0.14406 0.85392 0.0
H2944 H 0.5987 0.05302 0.826 0.0
H2945 H 0.56146 0.09056 0.75853 0.0
H2946 H 0.56102 0.08979 0.87692 0.0
H2947 H 0.55303 0.05527 0.87003 0.0
H2948 H 0.58755 0.06646 0.87088 0.0
H2949 H 0.52589 0.12008 0.76319 0.0
H2950 H 0.50253 0.10321 0.78531 0.0
H2951 H 0.51886 0.13376 0.7958 0.0
H2952 H 0.45696 0.06988 0.84833 0.0
H2953 H 0.48581 0.14918 0.86851 0.0
H2954 H 0.52042 0.04104 0.83655 0.0
H2955 H 0.50562 0.05271 0.80619 0.0
H2956 H 0.4848 0.03697 0.83138 0.0
H2957 H 0.55725 0.13503 0.85761 0.0
H2958 H 0.53351 0.15886 0.87 0.0
H2959 H 0.53867 0.15503 0.83463 0.0
C2960 C 0.91818 0.96175 0.30578 0.0
C2961 C 0.91968 0.94625 0.28232 0.0
C2962 C 0.9371 0.95925 0.32633 0.0
C2963 C 0.95807 0.94098 0.32321 0.0
C2964 C 0.95893 0.9243 0.30022 0.0
C2965 C 0.93962 0.92708 0.28008 0.0
C2966 C 0.93535 0.97711 0.35067 0.0
C2967 C 0.98095 0.90432 0.29631 0.0
C2968 C 0.02795 0.94758 0.35058 0.0
C2969 C 0.02811 0.92525 0.36755 0.0
C2970 C 0.00415 0.95511 0.33802 0.0
C2971 C 0.98024 0.94007 0.3429 0.0
C2972 C 0.97959 0.92044 0.36326 0.0
C2973 C 0.00365 0.91332 0.3755 0.0
C2974 C 0.00544 0.97674 0.31694 0.0
C2975 C 0.95431 0.90453 0.36964 0.0
H2976 H 0.90267 0.97649 0.30779 0.0
H2977 H 0.94087 0.91499 0.2621 0.0
H2978 H 0.93968 0.96586 0.36926 0.0
H2979 H 0.95055 -0.00641 0.34905 0.0
H2980 H 0.91527 0.98612 0.35256 0.0
H2981 H 0.97806 0.89213 0.27787 0.0
H2982 H 0.00066 0.91501 0.29495 0.0
H2983 H 0.98181 0.89058 0.31371 0.0
H2984 H 0.04674 0.95717 0.34465 0.0
H2985 H 0.00365 0.89643 0.38915 0.0
H2986 H 0.98765 0.98961 0.31813 0.0
H2987 H 0.00548 0.9673 0.2968 0.0
H2988 H 0.02385 0.98955 0.31893 0.0
H2989 H 0.93652 0.91746 0.3694 0.0
H2990 H 0.9556 0.89462 0.3895 0.0
H2991 H 0.95119 0.88875 0.3542 0.0
C2992 C 0.46414 0.31826 0.21737 0.0
C2993 C 0.45404 0.29298 0.20965 0.0
C2994 C 0.45335 0.33183 0.2392 0.0
C2995 C 0.43171 0.31994 0.25348 0.0
C2996 C 0.42129 0.29446 0.2458 0.0
C2997 C 0.43273 0.28113 0.22397 0.0
C2998 C 0.46518 0.35888 0.247 0.0
C2999 C 0.39798 0.28143 0.26048 0.0
C3000 C 0.42141 0.34704 0.32341 0.0
C3001 C 0.40247 0.36678 0.31868 0.0
C3002 C 0.43063 0.33105 0.30242 0.0
C3003 C 0.4201 0.33453 0.27636 0.0
C3004 C 0.40015 0.3537 0.27175 0.0
C3005 C 0.39182 0.36988 0.29295 0.0
C3006 C 0.45236 0.3112 0.30792 0.0
C3007 C 0.38807 0.35754 0.24431 0.0
H3008 H 0.48072 0.32745 0.20645 0.0
H3009 H 0.42487 0.2616 0.218 0.0
H3010 H 0.44968 0.37438 0.24544 0.0
H3011 H 0.47199 0.3585 0.26816 0.0
H3012 H 0.48247 0.36497 0.23418 0.0
H3013 H 0.39211 0.26164 0.25183 0.0
H3014 H 0.4032 0.27866 0.28188 0.0
H3015 H 0.3804 0.29464 0.25979 0.0
H3016 H 0.42959 0.34466 0.34336 0.0
H3017 H 0.37679 0.38485 0.28945 0.0
H3018 H 0.47084 0.31722 0.29687 0.0
H3019 H 0.44615 0.291 0.30064 0.0
H3020 H 0.45728 0.30987 0.32957 0.0
H3021 H 0.40355 0.36585 0.2305 0.0
H3022 H 0.37093 0.37136 0.2447 0.0
H3023 H 0.38106 0.338 0.23596 0.0
C3024 C 0.4389 0.67008 0.94147 0.0
C3025 C 0.45822 0.6891 0.93338 0.0
C3026 C 0.43569 0.66378 0.96861 0.0
C3027 C 0.45146 0.67772 0.98795 0.0
C3028 C 0.47241 0.6954 0.97967 0.0
C3029 C 0.47581 0.70057 0.95231 0.0
C3030 C 0.41374 0.64409 0.97669 0.0
C3031 C 0.48922 0.71113 -0.00037 0.0
C3032 C 0.41077 0.69139 0.04985 0.0
C3033 C 0.42045 0.67226 0.06758 0.0
C3034 C 0.42205 0.6945 0.0244 0.0
C3035 C 0.44279 0.67733 0.01628 0.0
C3036 C 0.45333 0.65865 0.03455 0.0
C3037 C 0.44219 0.65658 0.06027 0.0
C3038 C 0.41089 0.71536 0.00582 0.0
C3039 C 0.47507 0.63972 0.02645 0.0
H3040 H 0.42539 0.66122 0.92672 0.0
H3041 H 0.49056 0.71558 0.94601 0.0
H3042 H 0.42082 0.63064 -0.00725 0.0
H3043 H 0.39643 0.65517 0.9847 0.0
H3044 H 0.40664 0.63169 0.95949 0.0
H3045 H 0.5074 0.72032 0.99022 0.0
H3046 H 0.47708 0.72744 0.00815 0.0
H3047 H 0.49548 0.69825 0.01649 0.0
H3048 H 0.39405 0.7036 0.05578 0.0
H3049 H 0.44941 0.64162 0.07409 0.0
H3050 H 0.39955 0.70533 0.98937 0.0
H3051 H 0.42741 0.72743 -0.00339 0.0
H3052 H 0.39722 0.72914 0.01634 0.0
H3053 H 0.46649 0.62432 0.01266 0.0
H3054 H 0.4838 0.62939 0.044 0.0
H3055 H 0.49138 0.65051 0.01554 0.0
C3056 C 0.05453 0.66728 0.67682 0.0
C3057 C 0.0672 0.69167 0.67004 0.0
C3058 C 0.0646 0.65147 0.69749 0.0
C3059 C 0.08819 0.6601 0.71104 0.0
C3060 C 0.10302 0.68267 0.70162 0.0
C3061 C 0.09211 0.6985 0.6814 0.0
C3062 C 0.04802 0.62767 0.70704 0.0
C3063 C 0.1288 0.69191 0.71494 0.0
C3064 C 0.08721 0.6539 0.7863 0.0
C3065 C 0.10274 0.63132 0.79046 0.0
C3066 C 0.08213 0.66311 0.76045 0.0
C3067 C 0.09354 0.64982 0.73826 0.0
C3068 C 0.10952 0.62713 0.74232 0.0
C3069 C 0.11363 0.61785 0.76851 0.0
C3070 C 0.06444 0.68707 0.75697 0.0
C3071 C 0.12256 0.61302 0.71915 0.0
H3072 H 0.03534 0.66182 0.66789 0.0
H3073 H 0.1022 0.71712 0.67577 0.0
H3074 H 0.06092 0.61088 0.71291 0.0
H3075 H 0.0364 0.63357 0.72497 0.0
H3076 H 0.03364 0.62048 0.69146 0.0
H3077 H 0.14078 0.7055 0.70174 0.0
H3078 H 0.12406 0.70296 0.73358 0.0
H3079 H 0.14118 0.67459 0.72052 0.0
H3080 H 0.07862 0.66413 0.80332 0.0
H3081 H 0.12586 0.60049 0.7719 0.0
H3082 H 0.04744 0.68192 0.74341 0.0
H3083 H 0.07606 0.70381 0.74765 0.0
H3084 H 0.05617 0.69423 0.77629 0.0
H3085 H 0.10715 0.60618 0.70448 0.0
H3086 H 0.13414 0.59545 0.72572 0.0
H3087 H 0.13631 0.62718 0.70852 0.0
C3088 C 0.98971 0.2843 0.44155 0.0
C3089 C -0.00058 0.29126 0.41613 0.0
C3090 C 0.00208 0.29455 0.46469 0.0
C3091 C 0.02395 0.31297 0.46216 0.0
C3092 C 0.03187 0.32223 0.43651 0.0
C3093 C 0.01989 0.31074 0.41367 0.0
C3094 C -0.00646 0.28353 0.49161 0.0
C3095 C 0.05439 0.34265 0.4331 0.0
C3096 C 0.04908 0.34404 0.52709 0.0
C3097 C 0.07119 0.32815 0.53256 0.0
C3098 C 0.03413 0.34022 0.50354 0.0
C3099 C 0.04088 0.31926 0.48586 0.0
C3100 C 0.0633 0.30319 0.49143 0.0
C3101 C 0.07854 0.30823 0.51452 0.0
C3102 C 0.01103 0.35835 0.49772 0.0
C3103 C 0.07062 0.28005 0.47352 0.0
H3104 H 0.97417 0.26885 0.44341 0.0
H3105 H 0.02739 0.31602 0.39395 0.0
H3106 H 0.00985 0.27129 0.49998 0.0
H3107 H 0.99 0.30004 0.50595 0.0
H3108 H 0.97504 0.27077 0.49026 0.0
H3109 H 0.05451 0.35149 0.41269 0.0
H3110 H 0.05273 0.359 0.44805 0.0
H3111 H 0.07389 0.33293 0.43641 0.0
H3112 H 0.04365 0.35957 0.54117 0.0
H3113 H 0.09557 0.29588 0.51907 0.0
H3114 H 0.99182 0.34677 0.49871 0.0
H3115 H 0.01283 0.36656 0.47713 0.0
H3116 H 0.01011 0.37528 0.51212 0.0
H3117 H 0.05342 0.26561 0.472 0.0
H3118 H 0.08833 0.26923 0.48103 0.0
H3119 H 0.07507 0.28739 0.45301 0.0
C3120 C 0.37986 0.71589 0.33615 0.0
C3121 C 0.40302 0.70787 0.34961 0.0
C3122 C 0.36896 0.70005 0.31548 0.0
C3123 C 0.3821 0.67638 0.308 0.0
C3124 C 0.40178 0.66574 0.32508 0.0
C3125 C 0.41196 0.68165 0.34598 0.0
C3126 C 0.34631 0.71077 0.29894 0.0
C3127 C 0.41542 0.63987 0.31855 0.0
C3128 C 0.36821 0.64081 0.24185 0.0
C3129 C 0.38547 0.65535 0.22484 0.0
C3130 C 0.36629 0.64753 0.26911 0.0
C3131 C 0.38252 0.66881 0.27934 0.0
C3132 C 0.40032 0.68316 0.26209 0.0
C3133 C 0.40122 0.67647 0.235 0.0
C3134 C 0.34627 0.63247 0.28641 0.0
C3135 C 0.4186 0.70562 0.27213 0.0
H3136 H 0.37199 0.73564 0.33969 0.0
H3137 H 0.42908 0.67473 0.35721 0.0
H3138 H 0.35472 0.7219 0.28152 0.0
H3139 H 0.33329 0.69417 0.2912 0.0
H3140 H 0.33393 0.72472 0.31078 0.0
H3141 H 0.42553 0.63149 0.33642 0.0
H3142 H 0.40088 0.62471 0.31061 0.0
H3143 H 0.43084 0.64372 0.30291 0.0
H3144 H 0.35575 0.62468 0.2337 0.0
H3145 H 0.41468 0.68751 0.22175 0.0
H3146 H 0.32719 0.64349 0.28656 0.0
H3147 H 0.3532 0.63078 0.30744 0.0
H3148 H 0.34196 0.61205 0.27841 0.0
H3149 H 0.40646 0.72243 0.27954 0.0
H3150 H 0.43227 0.71351 0.25629 0.0
H3151 H 0.43103 0.69855 0.28902 0.0
C3152 C 0.04112 0.66591 0.06218 0.0
C3153 C 0.04616 0.69312 0.06746 0.0
C3154 C 0.05592 0.65241 0.04275 0.0
C3155 C 0.07561 0.66677 0.02786 0.0
C3156 C 0.08248 0.69355 0.03492 0.0
C3157 C 0.06779 0.70636 0.05494 0.0
C3158 C 0.04866 0.62358 0.03642 0.0
C3159 C 0.10318 0.70964 0.01936 0.0
C3160 C 0.11758 0.6332 0.97447 0.0
C3161 C 0.10199 0.63756 0.95155 0.0
C3162 C 0.10901 0.64192 -0.00024 0.0
C3163 C 0.08473 0.65591 0.00186 0.0
C3164 C 0.06892 0.6602 0.97875 0.0
C3165 C 0.0776 0.65069 0.95397 0.0
C3166 C 0.12595 0.63638 0.0241 0.0
C3167 C 0.04304 0.67535 0.98005 0.0
H3168 H 0.02464 0.65553 0.07222 0.0
H3169 H 0.07177 0.7274 0.05908 0.0
H3170 H 0.03586 0.62273 0.01824 0.0
H3171 H 0.06689 0.61195 0.03223 0.0
H3172 H 0.0374 0.61383 0.0531 0.0
H3173 H 0.10927 0.72838 0.02997 0.0
H3174 H 0.1213 0.69774 0.0156 0.0
H3175 H 0.09469 0.71508 -0.0004 0.0
H3176 H 0.13638 0.62287 0.97263 0.0
H3177 H 0.06557 0.65428 0.9363 0.0
H3178 H 0.11348 0.62699 0.04007 0.0
H3179 H 0.1343 0.65549 0.03226 0.0
H3180 H 0.14285 0.62303 0.01944 0.0
H3181 H 0.02859 0.66485 -0.00649 0.0
H3182 H 0.0335 0.67748 0.96008 0.0
H3183 H 0.04689 0.69567 0.98847 0.0
C3184 C 0.04728 0.28631 0.81014 0.0
C3185 C 0.02205 0.29826 0.81035 0.0
C3186 C 0.06433 0.28884 0.78786 0.0
C3187 C 0.0558 0.30343 0.76527 0.0
C3188 C 0.03045 0.31564 0.76544 0.0
C3189 C 0.01396 0.313 0.788 0.0
C3190 C 0.09137 0.27585 0.78843 0.0
C3191 C 0.02058 0.33134 0.74165 0.0
C3192 C 0.10066 0.33544 0.71312 0.0
C3193 C 0.09555 0.31874 0.69101 0.0
C3194 C 0.08973 0.32941 0.73828 0.0
C3195 C 0.07312 0.30627 0.74125 0.0
C3196 C 0.06994 0.28808 0.71963 0.0
C3197 C 0.08137 0.29447 0.69471 0.0
C3198 C 0.09402 0.34907 0.76097 0.0
C3199 C 0.05238 0.26317 0.72203 0.0
H3200 H 0.05371 0.27492 0.82736 0.0
H3201 H -0.00551 0.32222 0.78792 0.0
H3202 H 0.09266 0.26092 0.77203 0.0
H3203 H 0.10749 0.29114 0.78499 0.0
H3204 H 0.09524 0.26565 0.80777 0.0
H3205 H 0.0002 0.33929 0.74489 0.0
H3206 H 0.03454 0.34844 0.73745 0.0
H3207 H 0.02007 0.31842 0.72355 0.0
H3208 H 0.11195 0.35406 0.71039 0.0
H3209 H 0.0774 0.28145 0.6777 0.0
H3210 H 0.09807 0.33843 0.77999 0.0
H3211 H 0.07555 0.36071 0.76387 0.0
H3212 H 0.11093 0.36336 0.7569 0.0
H3213 H 0.05646 0.25251 0.74102 0.0
H3214 H 0.05534 0.24916 0.70504 0.0
H3215 H 0.03101 0.26892 0.72232 0.0
C3216 C 0.4304 0.34506 0.5707 0.0
C3217 C 0.44454 0.32581 0.55645 0.0
C3218 C 0.41816 0.36616 0.55726 0.0
C3219 C 0.41928 0.36702 0.52898 0.0
C3220 C 0.43462 0.3481 0.51471 0.0
C3221 C 0.44743 0.32786 0.52879 0.0
C3222 C 0.40291 0.38646 0.57325 0.0
C3223 C 0.43597 0.34804 0.48446 0.0
C3224 C 0.36371 0.38764 0.48388 0.0
C3225 C 0.37698 0.40793 0.46934 0.0
C3226 C 0.37617 0.37575 0.50578 0.0
C3227 C 0.40198 0.38516 0.51369 0.0
C3228 C 0.41323 0.4086 0.50197 0.0
C3229 C 0.40073 0.41956 0.47951 0.0
C3230 C 0.36345 0.35076 0.51774 0.0
C3231 C 0.43998 0.42008 0.511 0.0
H3232 H 0.4284 0.34323 0.59226 0.0
H3233 H 0.45834 0.31267 0.51804 0.0
H3234 H 0.40416 0.40658 0.56383 0.0
H3235 H 0.38146 0.3802 0.57423 0.0
H3236 H 0.4106 0.388 0.5941 0.0
H3237 H 0.44934 0.33236 0.47662 0.0
H3238 H 0.41559 0.34447 0.47603 0.0
H3239 H 0.44338 0.36779 0.47707 0.0
H3240 H 0.34517 0.37876 0.47625 0.0
H3241 H 0.41072 0.43567 0.46858 0.0
H3242 H 0.3648 0.35119 0.53988 0.0
H3243 H 0.37437 0.33297 0.51062 0.0
H3244 H 0.34203 0.34822 0.51192 0.0
H3245 H 0.44216 0.41861 0.53307 0.0
H3246 H 0.44257 0.44138 0.50492 0.0
H3247 H 0.45631 0.40855 0.50171 0.0
C3248 C 0.18403 0.40224 0.25124 0.0
C3249 C 0.1751 0.42793 0.25761 0.0
C3250 C 0.20566 0.39119 0.26508 0.0
C3251 C 0.21893 0.40658 0.28511 0.0
C3252 C 0.20928 0.43204 0.29228 0.0
C3253 C 0.18732 0.44223 0.27866 0.0
C3254 C 0.21487 0.36361 0.25753 0.0
C3255 C 0.22295 0.44923 0.31347 0.0
C3256 C 0.26712 0.38675 0.33871 0.0
C3257 C 0.29108 0.39769 0.32839 0.0
C3258 C 0.24364 0.38624 0.32331 0.0
C3259 C 0.24419 0.39763 0.29741 0.0
C3260 C 0.26893 0.40605 0.28593 0.0
C3261 C 0.29224 0.40571 0.30154 0.0
C3262 C 0.21782 0.37597 0.33573 0.0
C3263 C 0.27035 0.41834 0.25834 0.0
H3264 H 0.17447 0.39098 0.23515 0.0
H3265 H 0.18052 0.46205 0.28379 0.0
H3266 H 0.23247 0.36547 0.24403 0.0
H3267 H 0.22111 0.35224 0.27548 0.0
H3268 H 0.19889 0.35194 0.24688 0.0
H3269 H 0.21268 0.46847 0.31676 0.0
H3270 H 0.22353 0.43832 0.33278 0.0
H3271 H 0.244 0.45378 0.30749 0.0
H3272 H 0.26639 0.37985 0.3593 0.0
H3273 H 0.31084 0.41385 0.29339 0.0
H3274 H 0.20518 0.36522 0.3207 0.0
H3275 H 0.20627 0.39313 0.34332 0.0
H3276 H 0.22165 0.36231 0.35279 0.0
H3277 H 0.25844 0.4062 0.24382 0.0
H3278 H 0.29131 0.42028 0.25094 0.0
H3279 H 0.26168 0.43862 0.25898 0.0
C3280 C 0.33766 0.46157 0.01509 0.0
C3281 C 0.31641 0.45074 0.0302 0.0
C3282 C 0.35097 0.48526 0.02328 0.0
C3283 C 0.34208 0.4986 0.04654 0.0
C3284 C 0.32018 0.48796 0.06147 0.0
C3285 C 0.30791 0.46387 0.05333 0.0
C3286 C 0.37471 0.49574 0.0074 0.0
C3287 C 0.30961 0.50202 0.08601 0.0
C3288 C 0.38139 0.54589 0.09088 0.0
C3289 C 0.37004 0.5703 0.08401 0.0
C3290 C 0.37465 0.5225 0.0767 0.0
C3291 C 0.35548 0.52363 0.05585 0.0
C3292 C 0.34568 0.54864 0.04744 0.0
C3293 C 0.3534 0.57185 0.06149 0.0
C3294 C 0.38618 0.49628 0.08563 0.0
C3295 C 0.32483 0.55061 0.02563 0.0
H3296 H 0.34423 0.4512 -0.00276 0.0
H3297 H 0.29124 0.45556 0.06479 0.0
H3298 H 0.37123 0.51654 0.00069 0.0
H3299 H 0.39284 0.49637 0.02031 0.0
H3300 H 0.37883 0.48316 0.98956 0.0
H3301 H 0.29147 0.49178 0.0944 0.0
H3302 H 0.32528 0.5029 0.10178 0.0
H3303 H 0.30449 0.52294 0.08102 0.0
H3304 H 0.39455 0.54487 0.10814 0.0
H3305 H 0.34458 0.59079 0.05624 0.0
H3306 H 0.39136 0.48372 0.06812 0.0
H3307 H 0.371 0.48498 0.09761 0.0
H3308 H 0.40439 0.49941 0.09819 0.0
H3309 H 0.32982 0.53772 0.00833 0.0
H3310 H 0.32275 0.57153 0.01848 0.0
H3311 H 0.30513 0.5435 0.03353 0.0
C3312 C 0.30989 0.52725 0.79559 0.0
C3313 C 0.31852 0.53509 0.77001 0.0
C3314 C 0.28849 0.53984 0.80812 0.0
C3315 C 0.27589 0.5613 0.79504 0.0
C3316 C 0.28589 0.57072 0.77016 0.0
C3317 C 0.30691 0.5572 0.75768 0.0
C3318 C 0.27813 0.52882 0.83443 0.0
C3319 C 0.27353 0.59417 0.7561 0.0
C3320 C 0.20203 0.56606 0.81066 0.0
C3321 C 0.20231 0.58446 0.83185 0.0
C3322 C 0.22584 0.55905 0.79788 0.0
C3323 C 0.25038 0.57139 0.80598 0.0
C3324 C 0.25057 0.59117 0.82632 0.0
C3325 C 0.22651 0.59714 0.83941 0.0
C3326 C 0.22485 0.53739 0.7767 0.0
C3327 C 0.27623 0.60539 0.83481 0.0
H3328 H 0.3188 0.51016 0.80524 0.0
H3329 H 0.31373 0.56348 0.73801 0.0
H3330 H 0.27655 0.54508 0.84945 0.0
H3331 H 0.25769 0.52001 0.8315 0.0
H3332 H 0.29118 0.51311 0.84271 0.0
H3333 H 0.28645 0.60193 0.7396 0.0
H3334 H 0.25386 0.58788 0.74751 0.0
H3335 H 0.26989 0.61067 0.77047 0.0
H3336 H 0.18331 0.5562 0.80485 0.0
H3337 H 0.22662 0.61166 0.85557 0.0
H3338 H 0.23639 0.51994 0.78359 0.0
H3339 H 0.23431 0.54474 0.75794 0.0
H3340 H 0.20402 0.53046 0.77213 0.0
H3341 H 0.28895 0.59137 0.84607 0.0
H3342 H 0.27237 0.62298 0.84779 0.0
H3343 H 0.2878 0.61219 0.81701 0.0
C3344 C 0.15409 0.54756 0.51957 0.0
C3345 C 0.18009 0.55339 0.52902 0.0
C3346 C 0.14095 0.52328 0.52604 0.0
C3347 C 0.15429 0.5044 0.54205 0.0
C3348 C 0.18067 0.51001 0.55128 0.0
C3349 C 0.19318 0.53449 0.54478 0.0
C3350 C 0.11271 0.51798 0.51612 0.0
C3351 C 0.19566 0.4902 0.5682 0.0
C3352 C 0.11993 0.45199 0.58499 0.0
C3353 C 0.125 0.42862 0.57046 0.0
C3354 C 0.12749 0.47719 0.57493 0.0
C3355 C 0.14074 0.47892 0.54993 0.0
C3356 C 0.14415 0.45558 0.5343 0.0
C3357 C 0.13603 0.43063 0.5447 0.0
C3358 C 0.12306 0.50173 0.59195 0.0
C3359 C 0.15831 0.45666 0.50759 0.0
H3360 H 0.14385 0.56212 0.50742 0.0
H3361 H 0.21335 0.53876 0.55196 0.0
H3362 H 0.11166 0.49898 0.5046 0.0
H3363 H 0.09891 0.51562 0.53342 0.0
H3364 H 0.10544 0.5344 0.50321 0.0
H3365 H 0.21641 0.49728 0.57296 0.0
H3366 H 0.1848 0.4866 0.58729 0.0
H3367 H 0.19672 0.47068 0.55763 0.0
H3368 H 0.11101 0.4505 0.60475 0.0
H3369 H 0.13992 0.41261 0.53335 0.0
H3370 H 0.11493 0.51818 0.57969 0.0
H3371 H 0.14252 0.50894 0.60037 0.0
H3372 H 0.10908 0.49751 0.60882 0.0
H3373 H 0.15062 0.47316 0.4951 0.0
H3374 H 0.15596 0.43754 0.49633 0.0
H3375 H 0.18004 0.46074 0.51088 0.0
C3376 C 0.19745 0.52371 0.15642 0.0
C3377 C 0.17752 0.53132 0.17452 0.0
C3378 C 0.22021 0.54009 0.15206 0.0
C3379 C 0.22285 0.5648 0.16587 0.0
C3380 C 0.20206 0.57336 0.18288 0.0
C3381 C 0.17967 0.55643 0.18712 0.0
C3382 C 0.24206 0.5303 0.13377 0.0
C3383 C 0.20403 0.59981 0.19753 0.0
C3384 C 0.29451 0.58845 0.17771 0.0
C3385 C 0.29864 0.60588 0.15605 0.0
C3386 C 0.26954 0.57564 0.1817 0.0
C3387 C 0.24821 0.58069 0.1638 0.0
C3388 C 0.2518 0.5995 0.14291 0.0
C3389 C 0.27705 0.61179 0.1392 0.0
C3390 C 0.26642 0.55564 0.20422 0.0
C3391 C 0.22934 0.60573 0.12375 0.0
H3392 H 0.19595 0.50433 0.14664 0.0
H3393 H 0.16422 0.56254 0.20096 0.0
H3394 H 0.24712 0.54567 0.11846 0.0
H3395 H 0.26052 0.52686 0.14558 0.0
H3396 H 0.23623 0.51135 0.12339 0.0
H3397 H 0.18493 0.60482 0.20761 0.0
H3398 H 0.22006 0.59901 0.2129 0.0
H3399 H 0.20957 0.61621 0.18347 0.0
H3400 H 0.3111 0.58383 0.19083 0.0
H3401 H 0.28005 0.6255 0.1226 0.0
H3402 H 0.26289 0.53529 0.19578 0.0
H3403 H 0.24875 0.5604 0.21668 0.0
H3404 H 0.28442 0.55524 0.21733 0.0
H3405 H 0.22488 0.58798 0.11098 0.0
H3406 H 0.23449 0.62297 0.11054 0.0
H3407 H 0.21076 0.61024 0.13493 0.0
C3408 C 0.17795 0.42964 0.98604 0.0
C3409 C 0.19901 0.41919 0.97099 0.0
C3410 C 0.16116 0.44887 0.97495 0.0
C3411 C 0.16632 0.45827 0.94871 0.0
C3412 C 0.18567 0.44567 0.9326 0.0
C3413 C 0.20155 0.42595 0.94388 0.0
C3414 C 0.13947 0.46071 -0.00797 0.0
C3415 C 0.19178 0.45504 0.90444 0.0
C3416 C 0.12929 0.51006 0.90903 0.0
C3417 C 0.14484 0.53305 0.91486 0.0
C3418 C 0.13427 0.48576 0.92195 0.0
C3419 C 0.15608 0.48441 0.93999 0.0
C3420 C 0.17098 0.50798 0.9468 0.0
C3421 C 0.1648 0.53215 0.93446 0.0
C3422 C 0.11706 0.46144 0.91516 0.0
C3423 C 0.19479 0.50735 0.96554 0.0
H3424 H 0.1755 0.42394 0.00686 0.0
H3425 H 0.21748 0.41752 0.93199 0.0
H3426 H 0.14684 0.47996 0.00074 0.0
H3427 H 0.12142 0.4649 0.97983 0.0
H3428 H 0.13364 0.44713 0.00876 0.0
H3429 H 0.206 0.44179 0.89398 0.0
H3430 H 0.17311 0.45587 0.89246 0.0
H3431 H 0.20073 0.4756 0.90511 0.0
H3432 H 0.11351 0.511 0.89413 0.0
H3433 H 0.17676 0.55004 0.93889 0.0
H3434 H 0.11553 0.44733 0.93227 0.0
H3435 H 0.12602 0.45074 0.89799 0.0
H3436 H 0.09654 0.4673 0.90919 0.0
H3437 H 0.18877 0.4986 0.98508 0.0
H3438 H 0.20375 0.52761 0.96918 0.0
H3439 H 0.21048 0.49448 0.95693 0.0
C3440 C 0.28473 0.4256 0.71077 0.0
C3441 C 0.3102 0.42207 0.69978 0.0
C3442 C 0.26189 0.41431 0.69846 0.0
C3443 C 0.26486 0.3983 0.67526 0.0
C3444 C 0.29077 0.39328 0.66512 0.0
C3445 C 0.31317 0.40576 0.6772 0.0
C3446 C 0.23454 0.42082 0.70937 0.0
C3447 C 0.29475 0.37544 0.64108 0.0
C3448 C 0.20258 0.35757 0.65675 0.0
C3449 C 0.19198 0.37323 0.63629 0.0
C3450 C 0.22722 0.36464 0.66864 0.0
C3451 C 0.24071 0.38855 0.66059 0.0
C3452 C 0.23011 0.40421 0.63961 0.0
C3453 C 0.20602 0.39603 0.62733 0.0
C3454 C 0.23845 0.34694 0.69021 0.0
C3455 C 0.24345 0.43029 0.63105 0.0
H3456 H 0.28252 0.43852 0.72808 0.0
H3457 H 0.33299 0.40302 0.66885 0.0
H3458 H 0.22311 0.43195 0.69407 0.0
H3459 H 0.22296 0.40215 0.71384 0.0
H3460 H 0.23578 0.43315 0.72789 0.0
H3461 H 0.31621 0.37078 0.63795 0.0
H3462 H 0.28312 0.35637 0.64344 0.0
H3463 H 0.28722 0.38543 0.62283 0.0
H3464 H 0.19152 0.33988 0.66349 0.0
H3465 H 0.19744 0.4082 0.61167 0.0
H3466 H 0.23743 0.35724 0.70986 0.0
H3467 H 0.25988 0.34296 0.68618 0.0
H3468 H 0.22727 0.3275 0.69173 0.0
H3469 H 0.24428 0.4444 0.64825 0.0
H3470 H 0.23265 0.43995 0.61429 0.0
H3471 H 0.26439 0.42686 0.6247 0.0
C3472 C 0.30629 0.59662 0.45662 0.0
C3473 C 0.28122 0.60546 0.44805 0.0
C3474 C 0.32029 0.57799 0.44135 0.0
C3475 C 0.30856 0.56796 0.41747 0.0
C3476 C 0.28586 0.58038 0.40657 0.0
C3477 C 0.27241 0.59918 0.42204 0.0
C3478 C 0.34554 0.56633 0.45264 0.0
C3479 C 0.27348 0.57099 0.38053 0.0
C3480 C 0.33802 0.50889 0.38069 0.0
C3481 C 0.32494 0.48749 0.3938 0.0
C3482 C 0.33343 0.53544 0.38833 0.0
C3483 C 0.31465 0.54042 0.40886 0.0
C3484 C 0.30098 0.51875 0.42167 0.0
C3485 C 0.30658 0.49255 0.41418 0.0
C3486 C 0.34867 0.55784 0.37437 0.0
C3487 C 0.2805 0.52314 0.44349 0.0
H3488 H 0.3138 0.60219 0.47628 0.0
H3489 H 0.25358 0.60682 0.41478 0.0
H3490 H 0.34043 0.54727 0.46307 0.0
H3491 H 0.35996 0.56183 0.4364 0.0
H3492 H 0.35538 0.58015 0.46728 0.0
H3493 H 0.2592 0.58572 0.37247 0.0
H3494 H 0.28919 0.56742 0.36533 0.0
H3495 H 0.2624 0.55175 0.3839 0.0
H3496 H 0.35247 0.50486 0.36505 0.0
H3497 H 0.29646 0.47593 0.42421 0.0
H3498 H 0.3526 0.57515 0.38787 0.0
H3499 H 0.33667 0.56489 0.35716 0.0
H3500 H 0.36813 0.55087 0.36641 0.0
H3501 H 0.2902 0.53325 0.46089 0.0
H3502 H 0.27101 0.50408 0.45056 0.0
H3503 H 0.26446 0.53629 0.43611 0.0
C3504 C 0.28357 0.21672 0.44014 0.0
C3505 C 0.30037 0.19488 0.43684 0.0
C3506 C 0.29242 0.24264 0.43339 0.0
C3507 C 0.3183 0.24654 0.42222 0.0
C3508 C 0.33482 0.22432 0.41762 0.0
C3509 C 0.32583 0.19872 0.42549 0.0
C3510 C 0.27453 0.26595 0.43927 0.0
C3511 C 0.36214 0.22768 0.40487 0.0
C3512 C 0.32874 0.31309 0.38728 0.0
C3513 C 0.34316 0.32767 0.40666 0.0
C3514 C 0.32164 0.28615 0.39155 0.0
C3515 C 0.32826 0.27403 0.41621 0.0
C3516 C 0.34307 0.28872 0.43576 0.0
C3517 C 0.35079 0.31536 0.43051 0.0
C3518 C 0.30665 0.27083 0.36991 0.0
C3519 C 0.34978 0.2767 0.46262 0.0
H3520 H 0.26401 0.21372 0.44928 0.0
H3521 H 0.33874 0.18172 0.42295 0.0
H3522 H 0.28477 0.27997 0.45343 0.0
H3523 H 0.27056 0.27727 0.42065 0.0
H3524 H 0.255 0.25945 0.4481 0.0
H3525 H 0.37141 0.20813 0.40049 0.0
H3526 H 0.3606 0.23915 0.38593 0.0
H3527 H 0.3757 0.23929 0.4184 0.0
H3528 H 0.32311 0.32279 0.36875 0.0
H3529 H 0.36177 0.32691 0.44551 0.0
H3530 H 0.28596 0.26593 0.37674 0.0
H3531 H 0.31659 0.2516 0.36576 0.0
H3532 H 0.30545 0.28239 0.35097 0.0
H3533 H 0.33099 0.27119 0.47338 0.0
H3534 H 0.3618 0.29072 0.47539 0.0
H3535 H 0.36116 0.25808 0.45987 0.0
C3536 C 0.79449 0.31766 0.57222 0.0
C3537 C 0.79752 0.31251 0.54478 0.0
C3538 C 0.80621 0.30105 0.59141 0.0
C3539 C 0.82067 0.27857 0.58279 0.0
C3540 C 0.82358 0.27324 0.55508 0.0
C3541 C 0.81218 0.29045 0.53643 0.0
C3542 C 0.80336 0.30763 0.62077 0.0
C3543 C 0.83848 0.24916 0.54507 0.0
C3544 C 0.87198 0.23903 0.62001 0.0
C3545 C 0.85727 0.21522 0.6246 0.0
C3546 C 0.85954 0.2614 0.609 0.0
C3547 C 0.83196 0.25961 0.60232 0.0
C3548 C 0.81648 0.23679 0.6099 0.0
C3549 C 0.82932 0.21493 0.62121 0.0
C3550 C 0.8765 0.2858 0.60198 0.0
C3551 C 0.78701 0.23405 0.60316 0.0
H3552 H 0.78344 0.33496 0.57867 0.0
H3553 H 0.81447 0.28642 0.51522 0.0
H3554 H 0.79333 0.2907 0.63143 0.0
H3555 H 0.8235 0.31057 0.62992 0.0
H3556 H 0.79164 0.32599 0.62412 0.0
H3557 H 0.83856 0.24776 0.52286 0.0
H3558 H 0.85956 0.25013 0.55216 0.0
H3559 H 0.82912 0.23051 0.55322 0.0
H3560 H 0.89351 0.23959 0.62306 0.0
H3561 H 0.81769 0.1968 0.62538 0.0
H3562 H 0.86539 0.30445 0.60562 0.0
H3563 H 0.88168 0.28514 0.58038 0.0
H3564 H 0.89547 0.28663 0.61367 0.0
H3565 H 0.77644 0.25283 0.6076 0.0
H3566 H 0.77705 0.21737 0.61434 0.0
H3567 H 0.78475 0.22998 0.5814 0.0
C3568 C 0.42887 0.00563 0.34666 0.0
C3569 C 0.42331 0.01324 0.32022 0.0
C3570 C 0.45021 0.01773 0.36093 0.0
C3571 C 0.46663 0.03736 0.34817 0.0
C3572 C 0.46024 0.04605 0.32201 0.0
C3573 C 0.43849 0.03411 0.30851 0.0
C3574 C 0.45593 0.00861 0.38912 0.0
C3575 C 0.47741 0.06676 0.30755 0.0
C3576 C 0.51851 0.0836 0.38008 0.0
C3577 C 0.54225 0.07074 0.37318 0.0
C3578 C 0.49338 0.07179 0.37425 0.0
C3579 C 0.49212 0.04694 0.3606 0.0
C3580 C 0.51599 0.03307 0.35526 0.0
C3581 C 0.54078 0.04502 0.36192 0.0
C3582 C 0.46831 0.08672 0.3811 0.0
C3583 C 0.51554 0.00666 0.34044 0.0
H3584 H 0.41703 0.98971 0.35595 0.0
H3585 H 0.43432 0.04019 0.28812 0.0
H3586 H 0.47366 -0.00442 0.38907 0.0
H3587 H 0.46071 0.02601 0.40227 0.0
H3588 H 0.43872 -0.00292 0.39781 0.0
H3589 H 0.46899 0.07215 0.28772 0.0
H3590 H 0.47953 0.08524 0.31976 0.0
H3591 H 0.49784 0.05892 0.30445 0.0
H3592 H 0.51958 0.10332 0.3892 0.0
H3593 H 0.55905 0.03492 0.35662 0.0
H3594 H 0.45253 0.07281 0.38893 0.0
H3595 H 0.46031 0.09617 0.36275 0.0
H3596 H 0.47231 0.10272 0.39617 0.0
H3597 H 0.50101 -0.00762 0.34978 0.0
H3598 H 0.53556 -0.00265 0.34003 0.0
H3599 H 0.50893 0.00989 0.31948 0.0
C3600 C 0.68509 0.64686 0.04355 0.0
C3601 C 0.70978 0.64266 0.05612 0.0
C3602 C 0.66789 0.66655 0.05295 0.0
C3603 C 0.67547 0.6819 0.07567 0.0
C3604 C 0.69871 0.67535 0.09033 0.0
C3605 C 0.71584 0.65595 0.08016 0.0
C3606 C 0.64335 0.67301 0.03665 0.0
C3607 C 0.707 0.69073 0.11514 0.0
C3608 C 0.66338 0.75605 0.07198 0.0
C3609 C 0.64083 0.75873 0.08835 0.0
C3610 C 0.67445 0.73103 0.0675 0.0
C3611 C 0.66303 0.70815 0.08021 0.0
C3612 C 0.64026 0.71066 0.09686 0.0
C3613 C 0.62917 0.73603 0.10051 0.0
C3614 C 0.69843 0.72917 0.04911 0.0
C3615 C 0.62802 0.68675 0.11116 0.0
H3616 H 0.68021 0.63639 0.02508 0.0
H3617 H 0.73469 0.65232 0.09022 0.0
H3618 H 0.62611 0.67753 0.04978 0.0
H3619 H 0.64773 0.69107 0.02433 0.0
H3620 H 0.63747 0.6563 0.02299 0.0
H3621 H 0.72185 0.67967 0.1272 0.0
H3622 H 0.71628 0.71025 0.10921 0.0
H3623 H 0.68935 0.69494 0.12786 0.0
H3624 H 0.67223 0.77358 0.06233 0.0
H3625 H 0.61181 0.73822 0.11333 0.0
H3626 H 0.69412 0.71457 0.0328 0.0
H3627 H 0.71597 0.7219 0.06044 0.0
H3628 H 0.70406 0.74875 0.03992 0.0
H3629 H 0.62328 0.67041 0.09673 0.0
H3630 H 0.60941 0.69181 0.12211 0.0
H3631 H 0.64268 0.67885 0.12571 0.0
C3632 C 0.54183 0.5216 0.32123 0.0
C3633 C 0.54359 0.50594 0.29801 0.0
C3634 C 0.52017 0.51797 0.33896 0.0
C3635 C 0.5 0.49848 0.33293 0.0
C3636 C 0.50105 0.48384 0.30864 0.0
C3637 C 0.52294 0.48765 0.29161 0.0
C3638 C 0.51979 0.53391 0.36464 0.0
C3639 C 0.47965 0.46322 0.30107 0.0
C3640 C 0.45921 0.45459 0.3782 0.0
C3641 C 0.43343 0.46313 0.37169 0.0
C3642 C 0.48194 0.46853 0.36874 0.0
C3643 C 0.47862 0.49131 0.35234 0.0
C3644 C 0.45291 0.50225 0.34924 0.0
C3645 C 0.43049 0.48799 0.35903 0.0
C3646 C 0.5092 0.45684 0.37333 0.0
C3647 C 0.44868 0.52702 0.33264 0.0
H3648 H 0.55791 0.53575 0.32614 0.0
H3649 H 0.52418 0.47586 0.27341 0.0
H3650 H 0.49905 0.53891 0.37054 0.0
H3651 H 0.52847 0.52178 0.38096 0.0
H3652 H 0.53195 0.55275 0.36289 0.0
H3653 H 0.48275 0.45485 0.28071 0.0
H3654 H 0.47967 0.44643 0.31562 0.0
H3655 H 0.45954 0.47223 0.30174 0.0
H3656 H 0.46167 0.43586 0.38879 0.0
H3657 H 0.41063 0.49527 0.35472 0.0
H3658 H 0.52449 0.47291 0.37702 0.0
H3659 H 0.5153 0.44569 0.35515 0.0
H3660 H 0.50908 0.44276 0.39054 0.0
H3661 H 0.4652 0.54197 0.33571 0.0
H3662 H 0.42929 0.53645 0.33748 0.0
H3663 H 0.44842 0.52144 0.31111 0.0
C3664 C 0.23077 0.80294 0.89373 0.0
C3665 C 0.22506 0.80976 0.92033 0.0
C3666 C 0.21724 0.78135 0.88122 0.0
C3667 C 0.19838 0.76583 0.89606 0.0
C3668 C 0.19163 0.77351 0.92246 0.0
C3669 C 0.20478 0.79563 0.93412 0.0
C3670 C 0.22412 0.77436 0.85266 0.0
C3671 C 0.17198 0.75719 0.93918 0.0
C3672 C 0.15089 0.71167 0.87012 0.0
C3673 C 0.16491 0.68862 0.8769 0.0
C3674 C 0.16248 0.73726 0.87405 0.0
C3675 C 0.18828 0.73966 0.88575 0.0
C3676 C 0.20309 0.71642 0.89114 0.0
C3677 C 0.19134 0.69119 0.8863 0.0
C3678 C 0.14654 0.76162 0.8671 0.0
C3679 C 0.23051 0.71809 0.90403 0.0
H3680 H 0.2462 0.81408 0.88291 0.0
H3681 H 0.2003 0.80081 0.9547 0.0
H3682 H 0.2373 0.75676 0.85243 0.0
H3683 H 0.20574 0.76891 0.84116 0.0
H3684 H 0.23478 0.79119 0.84236 0.0
H3685 H 0.16794 0.7667 0.95886 0.0
H3686 H 0.15268 0.7544 0.9284 0.0
H3687 H 0.18011 0.737 0.94281 0.0
H3688 H 0.1306 0.70974 0.86242 0.0
H3689 H 0.20235 0.67344 0.89149 0.0
H3690 H 0.15957 0.77726 0.85768 0.0
H3691 H 0.1381 0.7703 0.88565 0.0
H3692 H 0.12966 0.7566 0.85331 0.0
H3693 H 0.24398 0.73188 0.89266 0.0
H3694 H 0.24005 0.69823 0.90526 0.0
H3695 H 0.22872 0.72627 0.92462 0.0
C3696 C 0.45067 0.90908 0.22276 0.0
C3697 C 0.43182 0.92725 0.21352 0.0
C3698 C 0.47047 0.89949 0.20567 0.0
C3699 C 0.47105 0.90792 0.17861 0.0
C3700 C 0.4516 0.92563 0.16893 0.0
C3701 C 0.4323 0.93534 0.18663 0.0
C3702 C 0.49118 0.88084 0.21673 0.0
C3703 C 0.45138 0.93455 0.14005 0.0
C3704 C 0.53963 0.90292 0.14774 0.0
C3705 C 0.53812 0.87715 0.13657 0.0
C3706 C 0.51732 0.91395 0.16019 0.0
C3707 C 0.49291 0.89899 0.16101 0.0
C3708 C 0.49063 0.874 0.14775 0.0
C3709 C 0.51339 0.86324 0.13581 0.0
C3710 C 0.52052 0.94063 0.17429 0.0
C3711 C 0.46468 0.8578 0.14772 0.0
H3712 H 0.45037 0.90287 0.24356 0.0
H3713 H 0.41753 0.94918 0.17937 0.0
H3714 H 0.49125 0.86203 0.2049 0.0
H3715 H 0.51147 0.89029 0.21501 0.0
H3716 H 0.4875 0.87573 0.23808 0.0
H3717 H 0.43377 0.94694 0.13531 0.0
H3718 H 0.4699 0.94643 0.13559 0.0
H3719 H 0.45118 0.91686 0.12656 0.0
H3720 H 0.55865 0.91386 0.14825 0.0
H3721 H 0.51205 0.84348 0.1268 0.0
H3722 H 0.51971 0.93748 0.19627 0.0
H3723 H 0.50389 0.95398 0.16894 0.0
H3724 H 0.53985 0.95095 0.16932 0.0
H3725 H 0.4613 0.84905 0.16788 0.0
H3726 H 0.46497 0.84119 0.1329 0.0
H3727 H 0.44745 0.87073 0.14322 0.0
C3728 C 0.07818 0.04112 0.70594 0.0
C3729 C 0.06675 0.02099 0.7221 0.0
C3730 C 0.06193 0.0578 0.69057 0.0
C3731 C 0.03371 0.05477 0.69234 0.0
C3732 C 0.02216 0.03408 0.70826 0.0
C3733 C 0.03888 0.01715 0.72262 0.0
C3734 C 0.0749 0.07898 0.673 0.0
C3735 C 0.99211 0.03053 0.7111 0.0
C3736 C 0.98695 0.11234 0.68265 0.0
C3737 C 0.97326 0.10409 0.6595 0.0
C3738 C 0.00801 0.09728 0.6928 0.0
C3739 C 0.01592 0.07398 0.67893 0.0
C3740 C 0.00384 0.06716 0.65412 0.0
C3741 C 0.98223 0.08205 0.64493 0.0
C3742 C 0.02002 0.10491 0.7196 0.0
C3743 C 0.01241 0.04306 0.63827 0.0
H3744 H 0.0998 0.04392 0.70543 0.0
H3745 H 0.03006 0.00169 0.7353 0.0
H3746 H 0.06596 0.07832 0.65264 0.0
H3747 H 0.07118 0.09912 0.68142 0.0
H3748 H 0.09691 0.0765 0.67128 0.0
H3749 H 0.98642 0.01355 0.72445 0.0
H3750 H 0.98349 0.0491 0.71937 0.0
H3751 H 0.9828 0.02695 0.6912 0.0
H3752 H 0.9798 0.12931 0.69397 0.0
H3753 H 0.97166 0.07588 0.62687 0.0
H3754 H 0.04223 0.10498 0.71866 0.0
H3755 H 0.01372 0.08984 0.7348 0.0
H3756 H 0.01356 0.12494 0.72646 0.0
H3757 H 0.03459 0.04183 0.63788 0.0
H3758 H 0.00485 0.04358 0.61734 0.0
H3759 H 0.0044 0.02454 0.6479 0.0
loop_
_geom_bond_atom_site_label_1
_geom_bond_atom_site_label_2
_geom_bond_distance
_geom_bond_site_symmetry_2
_ccdc_geom_bond_type
C0 O1 1.306 . S
C0 O3 1.160 . S
O1 C0 1.306 . S
O1 Cd2 2.228 . S
Cd2 O1 2.228 . S
Cd2 O6 2.273 . S
Cd2 O10 2.277 . S
O3 C0 1.160 . S
O3 Cd4 2.203 1_655 S
Cd4 O3 2.203 1_455 S
Cd4 O6 2.411 1_455 S
Cd4 O7 2.333 . S
Cd4 O8 2.352 . S
Cd4 O12 2.277 . S
Cd4 O13 2.356 . S
C5 O10 1.209 1_455 S
C5 O12 1.226 . S
O6 Cd2 2.273 . S
O6 Cd4 2.411 1_655 S
O6 C9 1.320 . S
O7 Cd4 2.333 . S
O7 C9 1.214 1_455 S
O8 Cd4 2.352 . S
O8 C11 1.258 . S
C9 O6 1.320 . S
C9 O7 1.214 1_655 S
O10 Cd2 2.277 . S
O10 C5 1.209 1_655 S
C11 O8 1.258 . S
C11 O13 1.282 . S
O12 Cd4 2.277 . S
O12 C5 1.226 . S
O13 Cd4 2.356 . S
O13 C11 1.282 . S
C14 O15 1.306 . S
C14 O17 1.160 . S
O15 C14 1.306 . S
O15 Cd16 2.228 1_455 S
Cd16 O15 2.228 1_655 S
Cd16 O20 2.273 . S
Cd16 O24 2.277 . S
O17 C14 1.160 . S
O17 Cd18 2.203 . S
Cd18 O17 2.203 . S
Cd18 O20 2.411 1_455 S
Cd18 O21 2.333 1_455 S
Cd18 O22 2.352 . S
Cd18 O26 2.277 1_455 S
Cd18 O27 2.356 . S
C19 O24 1.209 . S
C19 O26 1.226 . S
O20 Cd16 2.273 . S
O20 Cd18 2.411 1_655 S
O20 C23 1.320 . S
O21 Cd18 2.333 1_655 S
O21 C23 1.214 . S
O22 Cd18 2.352 . S
O22 C25 1.258 . S
C23 O20 1.320 . S
C23 O21 1.214 . S
O24 Cd16 2.277 . S
O24 C19 1.209 . S
C25 O22 1.258 . S
C25 O27 1.282 . S
O26 Cd18 2.277 1_655 S
O26 C19 1.226 . S
O27 Cd18 2.356 . S
O27 C25 1.282 . S
C28 O29 1.306 . S
C28 O31 1.160 . S
O29 C28 1.306 . S
O29 Cd30 2.228 . S
Cd30 O29 2.228 . S
Cd30 O34 2.273 . S
Cd30 O38 2.277 . S
O31 C28 1.160 . S
O31 Cd32 2.203 . S
Cd32 O31 2.203 . S
Cd32 O34 2.411 . S
Cd32 O35 2.333 . S
Cd32 O36 2.352 . S
Cd32 O40 2.277 . S
Cd32 O41 2.356 . S
C33 O38 1.209 . S
C33 O40 1.226 . S
O34 Cd30 2.273 . S
O34 Cd32 2.411 . S
O34 C37 1.320 . S
O35 Cd32 2.333 . S
O35 C37 1.214 . S
O36 Cd32 2.352 . S
O36 C39 1.258 . S
C37 O34 1.320 . S
C37 O35 1.214 . S
O38 Cd30 2.277 . S
O38 C33 1.209 . S
C39 O36 1.258 . S
C39 O41 1.282 . S
O40 Cd32 2.277 . S
O40 C33 1.226 . S
O41 Cd32 2.356 . S
O41 C39 1.282 . S
C42 O43 1.306 . S
C42 O45 1.160 . S
O43 C42 1.306 . S
O43 Cd44 2.228 . S
Cd44 O43 2.228 . S
Cd44 O48 2.273 . S
Cd44 O52 2.277 . S
O45 C42 1.160 . S
O45 Cd46 2.203 . S
Cd46 O45 2.203 . S
Cd46 O48 2.411 . S
Cd46 O49 2.333 . S
Cd46 O50 2.352 . S
Cd46 O54 2.277 . S
Cd46 O55 2.356 . S
C47 O52 1.209 . S
C47 O54 1.226 . S
O48 Cd44 2.273 . S
O48 Cd46 2.411 . S
O48 C51 1.320 . S
O49 Cd46 2.333 . S
O49 C51 1.214 . S
O50 Cd46 2.352 . S
O50 C53 1.258 . S
C51 O48 1.320 . S
C51 O49 1.214 . S
O52 Cd44 2.277 . S
O52 C47 1.209 . S
C53 O50 1.258 . S
C53 O55 1.282 . S
O54 Cd46 2.277 . S
O54 C47 1.226 . S
O55 Cd46 2.356 . S
O55 C53 1.282 . S
C56 O57 1.306 . S
C56 O59 1.160 . S
O57 C56 1.306 . S
O57 Cd58 2.228 . S
Cd58 O57 2.228 . S
Cd58 O62 2.273 . S
Cd58 O66 2.277 . S
O59 C56 1.160 . S
O59 Cd60 2.203 1_655 S
Cd60 O59 2.203 1_455 S
Cd60 O62 2.411 1_455 S
Cd60 O63 2.333 . S
Cd60 O64 2.352 . S
Cd60 O68 2.277 . S
Cd60 O69 2.356 . S
C61 O66 1.209 1_455 S
C61 O68 1.226 . S
O62 Cd58 2.273 . S
O62 Cd60 2.411 1_655 S
O62 C65 1.320 . S
O63 Cd60 2.333 . S
O63 C65 1.214 1_455 S
O64 Cd60 2.352 . S
O64 C67 1.258 . S
C65 O62 1.320 . S
C65 O63 1.214 1_655 S
O66 Cd58 2.277 . S
O66 C61 1.209 1_655 S
C67 O64 1.258 . S
C67 O69 1.282 . S
O68 Cd60 2.277 . S
O68 C61 1.226 . S
O69 Cd60 2.356 . S
O69 C67 1.282 . S
C70 O71 1.306 . S
C70 O73 1.160 . S
O71 C70 1.306 . S
O71 Cd72 2.228 . S
Cd72 O71 2.228 . S
Cd72 O76 2.273 . S
Cd72 O80 2.277 . S
O73 C70 1.160 . S
O73 Cd74 2.203 . S
Cd74 O73 2.203 . S
Cd74 O76 2.411 . S
Cd74 O77 2.333 . S
Cd74 O78 2.352 . S
Cd74 O82 2.277 . S
Cd74 O83 2.356 . S
C75 O80 1.209 . S
C75 O82 1.226 . S
O76 Cd72 2.273 . S
O76 Cd74 2.411 . S
O76 C79 1.320 . S
O77 Cd74 2.333 . S
O77 C79 1.214 . S
O78 Cd74 2.352 . S
O78 C81 1.258 . S
C79 O76 1.320 . S
C79 O77 1.214 . S
O80 Cd72 2.277 . S
O80 C75 1.209 . S
C81 O78 1.258 . S
C81 O83 1.282 . S
O82 Cd74 2.277 . S
O82 C75 1.226 . S
O83 Cd74 2.356 . S
O83 C81 1.282 . S
C84 O85 1.306 . S
C84 O87 1.160 . S
O85 C84 1.306 . S
O85 Cd86 2.228 . S
Cd86 O85 2.228 . S
Cd86 O90 2.273 . S
Cd86 O94 2.277 . S
O87 C84 1.160 . S
O87 Cd88 2.203 . S
Cd88 O87 2.203 . S
Cd88 O90 2.411 . S
Cd88 O91 2.333 . S
Cd88 O92 2.352 . S
Cd88 O96 2.277 . S
Cd88 O97 2.356 . S
C89 O94 1.209 . S
C89 O96 1.226 . S
O90 Cd86 2.273 . S
O90 Cd88 2.411 . S
O90 C93 1.320 . S
O91 Cd88 2.333 . S
O91 C93 1.214 . S
O92 Cd88 2.352 . S
O92 C95 1.258 . S
C93 O90 1.320 . S
C93 O91 1.214 . S
O94 Cd86 2.277 . S
O94 C89 1.209 . S
C95 O92 1.258 . S
C95 O97 1.282 . S
O96 Cd88 2.277 . S
O96 C89 1.226 . S
O97 Cd88 2.356 . S
O97 C95 1.282 . S
C98 O99 1.306 . S
C98 O101 1.160 . S
O99 C98 1.306 . S
O99 Cd100 2.228 1_455 S
Cd100 O99 2.228 1_655 S
Cd100 O104 2.273 . S
Cd100 O108 2.277 . S
O101 C98 1.160 . S
O101 Cd102 2.203 . S
Cd102 O101 2.203 . S
Cd102 O104 2.411 1_455 S
Cd102 O105 2.333 1_455 S
Cd102 O106 2.352 . S
Cd102 O110 2.277 1_455 S
Cd102 O111 2.356 . S
C103 O108 1.209 . S
C103 O110 1.226 . S
O104 Cd100 2.273 . S
O104 Cd102 2.411 1_655 S
O104 C107 1.320 . S
O105 Cd102 2.333 1_655 S
O105 C107 1.214 . S
O106 Cd102 2.352 . S
O106 C109 1.258 . S
C107 O104 1.320 . S
C107 O105 1.214 . S
O108 Cd100 2.277 . S
O108 C103 1.209 . S
C109 O106 1.258 . S
C109 O111 1.282 . S
O110 Cd102 2.277 1_655 S
O110 C103 1.226 . S
O111 Cd102 2.356 . S
O111 C109 1.282 . S
C112 O113 1.306 . S
C112 O115 1.160 . S
O113 C112 1.306 . S
O113 Cd114 2.228 . S
Cd114 O113 2.228 . S
Cd114 O118 2.273 . S
Cd114 O122 2.277 . S
O115 C112 1.160 . S
O115 Cd116 2.203 1_565 S
Cd116 O115 2.203 1_545 S
Cd116 O118 2.411 1_545 S
Cd116 O119 2.333 . S
Cd116 O120 2.352 . S
Cd116 O124 2.277 . S
Cd116 O125 2.356 . S
C117 O122 1.209 1_545 S
C117 O124 1.226 . S
O118 Cd114 2.273 . S
O118 Cd116 2.411 1_565 S
O118 C121 1.320 . S
O119 Cd116 2.333 . S
O119 C121 1.214 1_545 S
O120 Cd116 2.352 . S
O120 C123 1.258 . S
C121 O118 1.320 . S
C121 O119 1.214 1_565 S
O122 Cd114 2.277 . S
O122 C117 1.209 1_565 S
C123 O120 1.258 . S
C123 O125 1.282 . S
O124 Cd116 2.277 . S
O124 C117 1.226 . S
O125 Cd116 2.356 . S
O125 C123 1.282 . S
C126 O127 1.306 . S
C126 O129 1.160 . S
O127 C126 1.306 . S
O127 Cd128 2.228 . S
Cd128 O127 2.228 . S
Cd128 O132 2.273 . S
Cd128 O136 2.277 . S
O129 C126 1.160 . S
O129 Cd130 2.203 . S
Cd130 O129 2.203 . S
Cd130 O132 2.411 . S
Cd130 O133 2.333 . S
Cd130 O134 2.352 . S
Cd130 O138 2.277 . S
Cd130 O139 2.356 . S
C131 O136 1.209 . S
C131 O138 1.226 . S
O132 Cd128 2.273 . S
O132 Cd130 2.411 . S
O132 C135 1.320 . S
O133 Cd130 2.333 . S
O133 C135 1.214 . S
O134 Cd130 2.352 . S
O134 C137 1.258 . S
C135 O132 1.320 . S
C135 O133 1.214 . S
O136 Cd128 2.277 . S
O136 C131 1.209 . S
C137 O134 1.258 . S
C137 O139 1.282 . S
O138 Cd130 2.277 . S
O138 C131 1.226 . S
O139 Cd130 2.356 . S
O139 C137 1.282 . S
C140 O141 1.306 . S
C140 O143 1.160 . S
O141 C140 1.306 . S
O141 Cd142 2.228 . S
Cd142 O141 2.228 . S
Cd142 O146 2.273 . S
Cd142 O150 2.277 . S
O143 C140 1.160 . S
O143 Cd144 2.203 1_565 S
Cd144 O143 2.203 1_545 S
Cd144 O146 2.411 1_545 S
Cd144 O147 2.333 . S
Cd144 O148 2.352 . S
Cd144 O152 2.277 . S
Cd144 O153 2.356 . S
C145 O150 1.209 1_545 S
C145 O152 1.226 . S
O146 Cd142 2.273 . S
O146 Cd144 2.411 1_565 S
O146 C149 1.320 . S
O147 Cd144 2.333 . S
O147 C149 1.214 1_545 S
O148 Cd144 2.352 . S
O148 C151 1.258 . S
C149 O146 1.320 . S
C149 O147 1.214 1_565 S
O150 Cd142 2.277 . S
O150 C145 1.209 1_565 S
C151 O148 1.258 . S
C151 O153 1.282 . S
O152 Cd144 2.277 . S
O152 C145 1.226 . S
O153 Cd144 2.356 . S
O153 C151 1.282 . S
C154 O155 1.306 . S
C154 O157 1.160 . S
O155 C154 1.306 . S
O155 Cd156 2.228 1_554 S
Cd156 O155 2.228 1_556 S
Cd156 O160 2.273 . S
Cd156 O164 2.277 . S
O157 C154 1.160 . S
O157 Cd158 2.203 . S
Cd158 O157 2.203 . S
Cd158 O160 2.411 1_554 S
Cd158 O161 2.333 1_554 S
Cd158 O162 2.352 . S
Cd158 O166 2.277 1_554 S
Cd158 O167 2.356 . S
C159 O164 1.209 . S
C159 O166 1.226 . S
O160 Cd156 2.273 . S
O160 Cd158 2.411 1_556 S
O160 C163 1.320 . S
O161 Cd158 2.333 1_556 S
O161 C163 1.214 . S
O162 Cd158 2.352 . S
O162 C165 1.258 . S
C163 O160 1.320 . S
C163 O161 1.214 . S
O164 Cd156 2.277 . S
O164 C159 1.209 . S
C165 O162 1.258 . S
C165 O167 1.282 . S
O166 Cd158 2.277 1_556 S
O166 C159 1.226 . S
O167 Cd158 2.356 . S
O167 C165 1.282 . S
C168 O169 1.306 . S
C168 O171 1.160 . S
O169 C168 1.306 . S
O169 Cd170 2.228 . S
Cd170 O169 2.228 . S
Cd170 O174 2.273 . S
Cd170 O178 2.277 . S
O171 C168 1.160 . S
O171 Cd172 2.203 1_554 S
Cd172 O171 2.203 1_556 S
Cd172 O174 2.411 1_556 S
Cd172 O175 2.337 . S
Cd172 O176 2.349 1_556 S
Cd172 O180 2.277 . S
Cd172 O181 2.356 . S
C173 O178 1.209 1_556 S
C173 O180 1.226 . S
O174 Cd170 2.273 . S
O174 Cd172 2.411 1_554 S
O174 C177 1.320 . S
O175 Cd172 2.337 . S
O175 C177 1.173 1_556 S
O176 Cd172 2.349 1_554 S
O176 C179 1.237 1_554 S
C177 O174 1.320 . S
C177 O175 1.173 1_554 S
O178 Cd170 2.277 . S
O178 C173 1.209 1_554 S
C179 O176 1.237 1_556 S
C179 O181 1.282 . S
O180 Cd172 2.277 . S
O180 C173 1.226 . S
O181 Cd172 2.356 . S
O181 C179 1.282 . S
C182 O183 1.306 . S
C182 O185 1.160 . S
O183 C182 1.306 . S
O183 Cd184 2.228 . S
Cd184 O183 2.228 . S
Cd184 O188 2.273 . S
Cd184 O192 2.277 . S
O185 C182 1.160 . S
O185 Cd186 2.203 1_554 S
Cd186 O185 2.203 1_556 S
Cd186 O188 2.411 1_556 S
Cd186 O189 2.333 . S
Cd186 O190 2.352 . S
Cd186 O194 2.277 . S
Cd186 O195 2.356 . S
C187 O192 1.209 1_556 S
C187 O194 1.226 . S
O188 Cd184 2.273 . S
O188 Cd186 2.411 1_554 S
O188 C191 1.320 . S
O189 Cd186 2.333 . S
O189 C191 1.214 1_556 S
O190 Cd186 2.352 . S
O190 C193 1.258 . S
C191 O188 1.320 . S
C191 O189 1.214 1_554 S
O192 Cd184 2.277 . S
O192 C187 1.209 1_554 S
C193 O190 1.258 . S
C193 O195 1.282 . S
O194 Cd186 2.277 . S
O194 C187 1.226 . S
O195 Cd186 2.356 . S
O195 C193 1.282 . S
C196 O197 1.306 . S
C196 O199 1.160 . S
O197 C196 1.306 . S
O197 Cd198 2.228 . S
Cd198 O197 2.228 . S
Cd198 O202 2.273 . S
Cd198 O206 2.277 . S
O199 C196 1.160 . S
O199 Cd200 2.203 . S
Cd200 O199 2.203 . S
Cd200 O202 2.411 . S
Cd200 O203 2.333 . S
Cd200 O204 2.352 . S
Cd200 O208 2.277 . S
Cd200 O209 2.356 . S
C201 O206 1.209 . S
C201 O208 1.226 . S
O202 Cd198 2.273 . S
O202 Cd200 2.411 . S
O202 C205 1.320 . S
O203 Cd200 2.333 . S
O203 C205 1.214 . S
O204 Cd200 2.352 . S
O204 C207 1.258 . S
C205 O202 1.320 . S
C205 O203 1.214 . S
O206 Cd198 2.277 . S
O206 C201 1.209 . S
C207 O204 1.258 . S
C207 O209 1.282 . S
O208 Cd200 2.277 . S
O208 C201 1.226 . S
O209 Cd200 2.356 . S
O209 C207 1.282 . S
C210 O211 1.306 . S
C210 O213 1.160 . S
O211 C210 1.306 . S
O211 Cd212 2.228 . S
Cd212 O211 2.228 . S
Cd212 O216 2.273 . S
Cd212 O220 2.277 . S
O213 C210 1.160 . S
O213 Cd214 2.203 . S
Cd214 O213 2.203 . S
Cd214 O216 2.411 . S
Cd214 O217 2.333 . S
Cd214 O218 2.352 . S
Cd214 O222 2.277 . S
Cd214 O223 2.356 . S
C215 O220 1.209 . S
C215 O222 1.226 . S
O216 Cd212 2.273 . S
O216 Cd214 2.411 . S
O216 C219 1.320 . S
O217 Cd214 2.333 . S
O217 C219 1.214 . S
O218 Cd214 2.352 . S
O218 C221 1.258 . S
C219 O216 1.320 . S
C219 O217 1.214 . S
O220 Cd212 2.277 . S
O220 C215 1.209 . S
C221 O218 1.258 . S
C221 O223 1.282 . S
O222 Cd214 2.277 . S
O222 C215 1.226 . S
O223 Cd214 2.356 . S
O223 C221 1.282 . S
C224 O225 1.306 . S
C224 O227 1.160 . S
O225 C224 1.306 . S
O225 Cd226 2.228 1_545 S
Cd226 O225 2.228 1_565 S
Cd226 O230 2.273 . S
Cd226 O234 2.277 . S
O227 C224 1.160 . S
O227 Cd228 2.203 . S
Cd228 O227 2.203 . S
Cd228 O230 2.411 1_545 S
Cd228 O231 2.333 1_545 S
Cd228 O232 2.352 . S
Cd228 O236 2.277 1_545 S
Cd228 O237 2.356 . S
C229 O234 1.209 . S
C229 O236 1.226 . S
O230 Cd226 2.273 . S
O230 Cd228 2.411 1_565 S
O230 C233 1.320 . S
O231 Cd228 2.333 1_565 S
O231 C233 1.214 . S
O232 Cd228 2.352 . S
O232 C235 1.258 . S
C233 O230 1.320 . S
C233 O231 1.214 . S
O234 Cd226 2.277 . S
O234 C229 1.209 . S
C235 O232 1.258 . S
C235 O237 1.282 . S
O236 Cd228 2.277 1_565 S
O236 C229 1.226 . S
O237 Cd228 2.356 . S
O237 C235 1.282 . S
C238 O239 1.306 . S
C238 O241 1.160 . S
O239 C238 1.306 . S
O239 Cd240 2.228 . S
Cd240 O239 2.228 . S
Cd240 O244 2.273 . S
Cd240 O248 2.277 . S
O241 C238 1.160 . S
O241 Cd242 2.203 . S
Cd242 O241 2.203 . S
Cd242 O244 2.411 . S
Cd242 O245 2.333 . S
Cd242 O246 2.352 . S
Cd242 O250 2.277 . S
Cd242 O251 2.356 . S
C243 O248 1.209 . S
C243 O250 1.226 . S
O244 Cd240 2.273 . S
O244 Cd242 2.411 . S
O244 C247 1.320 . S
O245 Cd242 2.333 . S
O245 C247 1.214 . S
O246 Cd242 2.352 . S
O246 C249 1.258 . S
C247 O244 1.320 . S
C247 O245 1.214 . S
O248 Cd240 2.277 . S
O248 C243 1.209 . S
C249 O246 1.258 . S
C249 O251 1.282 . S
O250 Cd242 2.277 . S
O250 C243 1.226 . S
O251 Cd242 2.356 . S
O251 C249 1.282 . S
C252 O253 1.306 . S
C252 O255 1.160 . S
O253 C252 1.306 . S
O253 Cd254 2.228 . S
Cd254 O253 2.228 . S
Cd254 O258 2.273 . S
Cd254 O262 2.277 . S
O255 C252 1.160 . S
O255 Cd256 2.203 . S
Cd256 O255 2.203 . S
Cd256 O258 2.411 . S
Cd256 O259 2.333 . S
Cd256 O260 2.352 . S
Cd256 O264 2.277 . S
Cd256 O265 2.356 . S
C257 O262 1.209 . S
C257 O264 1.226 . S
O258 Cd254 2.273 . S
O258 Cd256 2.411 . S
O258 C261 1.320 . S
O259 Cd256 2.333 . S
O259 C261 1.214 . S
O260 Cd256 2.352 . S
O260 C263 1.258 . S
C261 O258 1.320 . S
C261 O259 1.214 . S
O262 Cd254 2.277 . S
O262 C257 1.209 . S
C263 O260 1.258 . S
C263 O265 1.282 . S
O264 Cd256 2.277 . S
O264 C257 1.226 . S
O265 Cd256 2.356 . S
O265 C263 1.282 . S
C266 O267 1.306 . S
C266 O269 1.160 . S
O267 C266 1.306 . S
O267 Cd268 2.228 1_545 S
Cd268 O267 2.228 1_565 S
Cd268 O272 2.273 . S
Cd268 O276 2.277 . S
O269 C266 1.160 . S
O269 Cd270 2.203 . S
Cd270 O269 2.203 . S
Cd270 O272 2.411 1_545 S
Cd270 O273 2.333 1_545 S
Cd270 O274 2.352 . S
Cd270 O278 2.277 1_545 S
Cd270 O279 2.356 . S
C271 O276 1.209 . S
C271 O278 1.226 . S
O272 Cd268 2.273 . S
O272 Cd270 2.411 1_565 S
O272 C275 1.320 . S
O273 Cd270 2.333 1_565 S
O273 C275 1.214 . S
O274 Cd270 2.352 . S
O274 C277 1.258 . S
C275 O272 1.320 . S
C275 O273 1.214 . S
O276 Cd268 2.277 . S
O276 C271 1.209 . S
C277 O274 1.258 . S
C277 O279 1.282 . S
O278 Cd270 2.277 1_565 S
O278 C271 1.226 . S
O279 Cd270 2.356 . S
O279 C277 1.282 . S
C280 O281 1.306 . S
C280 O283 1.160 . S
O281 C280 1.306 . S
O281 Cd282 2.228 1_554 S
Cd282 O281 2.228 1_556 S
Cd282 O286 2.273 . S
Cd282 O290 2.277 . S
O283 C280 1.160 . S
O283 Cd284 2.203 . S
Cd284 O283 2.203 . S
Cd284 O286 2.411 1_554 S
Cd284 O287 2.333 1_554 S
Cd284 O288 2.352 . S
Cd284 O292 2.277 1_554 S
Cd284 O293 2.356 . S
C285 O290 1.209 . S
C285 O292 1.226 . S
O286 Cd282 2.273 . S
O286 Cd284 2.411 1_556 S
O286 C289 1.320 . S
O287 Cd284 2.333 1_556 S
O287 C289 1.214 . S
O288 Cd284 2.352 . S
O288 C291 1.258 . S
C289 O286 1.320 . S
C289 O287 1.214 . S
O290 Cd282 2.277 . S
O290 C285 1.209 . S
C291 O288 1.258 . S
C291 O293 1.282 . S
O292 Cd284 2.277 1_556 S
O292 C285 1.226 . S
O293 Cd284 2.356 . S
O293 C291 1.282 . S
C294 O295 1.306 . S
C294 O297 1.160 . S
O295 C294 1.306 . S
O295 Cd296 2.228 . S
Cd296 O295 2.228 . S
Cd296 O300 2.273 . S
Cd296 O304 2.277 . S
O297 C294 1.160 . S
O297 Cd298 2.203 . S
Cd298 O297 2.203 . S
Cd298 O300 2.411 . S
Cd298 O301 2.333 . S
Cd298 O302 2.352 . S
Cd298 O306 2.277 . S
Cd298 O307 2.356 . S
C299 O304 1.209 . S
C299 O306 1.226 . S
O300 Cd296 2.273 . S
O300 Cd298 2.411 . S
O300 C303 1.320 . S
O301 Cd298 2.333 . S
O301 C303 1.214 . S
O302 Cd298 2.352 . S
O302 C305 1.258 . S
C303 O300 1.320 . S
C303 O301 1.214 . S
O304 Cd296 2.277 . S
O304 C299 1.209 . S
C305 O302 1.258 . S
C305 O307 1.282 . S
O306 Cd298 2.277 . S
O306 C299 1.226 . S
O307 Cd298 2.356 . S
O307 C305 1.282 . S
C308 O309 1.306 . S
C308 O311 1.160 . S
O309 C308 1.306 . S
O309 Cd310 2.228 . S
Cd310 O309 2.228 . S
Cd310 O314 2.273 . S
Cd310 O318 2.277 . S
O311 C308 1.160 . S
O311 Cd312 2.203 . S
Cd312 O311 2.203 . S
Cd312 O314 2.411 . S
Cd312 O315 2.333 . S
Cd312 O316 2.352 . S
Cd312 O320 2.277 . S
Cd312 O321 2.356 . S
C313 O318 1.209 . S
C313 O320 1.226 . S
O314 Cd310 2.273 . S
O314 Cd312 2.411 . S
O314 C317 1.320 . S
O315 Cd312 2.333 . S
O315 C317 1.214 . S
O316 Cd312 2.352 . S
O316 C319 1.258 . S
C317 O314 1.320 . S
C317 O315 1.214 . S
O318 Cd310 2.277 . S
O318 C313 1.209 . S
C319 O316 1.258 . S
C319 O321 1.282 . S
O320 Cd312 2.277 . S
O320 C313 1.226 . S
O321 Cd312 2.356 . S
O321 C319 1.282 . S
C322 O323 1.306 . S
C322 O325 1.160 . S
O323 C322 1.306 . S
O323 Cd324 2.228 . S
Cd324 O323 2.228 . S
Cd324 O328 2.273 . S
Cd324 O332 2.277 . S
O325 C322 1.160 . S
O325 Cd326 2.203 . S
Cd326 O325 2.203 . S
Cd326 O328 2.411 . S
Cd326 O329 2.333 . S
Cd326 O330 2.352 . S
Cd326 O334 2.277 . S
Cd326 O335 2.356 . S
C327 O332 1.209 . S
C327 O334 1.226 . S
O328 Cd324 2.273 . S
O328 Cd326 2.411 . S
O328 C331 1.320 . S
O329 Cd326 2.333 . S
O329 C331 1.214 . S
O330 Cd326 2.352 . S
O330 C333 1.258 . S
C331 O328 1.320 . S
C331 O329 1.214 . S
O332 Cd324 2.277 . S
O332 C327 1.209 . S
C333 O330 1.258 . S
C333 O335 1.282 . S
O334 Cd326 2.277 . S
O334 C327 1.226 . S
O335 Cd326 2.356 . S
O335 C333 1.282 . S
Fe336 O338 1.918 . S
Fe336 O341 1.997 . S
Fe336 O342 2.002 . S
Fe336 O347 1.976 . S
Fe336 O350 1.996 . S
Fe337 O338 1.918 . S
Fe337 O345 1.997 . S
Fe337 O348 1.996 . S
Fe337 O352 1.976 . S
Fe337 O355 2.002 . S
O338 Fe336 1.918 . S
O338 Fe337 1.918 . S
O338 Fe339 1.918 . S
Fe339 O338 1.918 . S
Fe339 O340 2.002 . S
Fe339 O349 1.976 . S
Fe339 O353 1.996 . S
Fe339 O356 1.997 . S
O340 Fe339 2.002 . S
O340 C357 1.295 . S
O341 Fe336 1.997 . S
O341 C357 1.235 . S
O342 Fe336 2.002 . S
O342 C343 1.295 . S
C343 O342 1.295 . S
C343 O345 1.235 . S
C344 O349 1.287 . S
C344 O350 1.255 . S
O345 Fe337 1.997 . S
O345 C343 1.235 . S
C346 O352 1.287 . S
C346 O353 1.255 . S
O347 Fe336 1.976 . S
O347 C354 1.287 . S
O348 Fe337 1.996 . S
O348 C354 1.255 . S
O349 Fe339 1.976 . S
O349 C344 1.287 . S
O350 Fe336 1.996 . S
O350 C344 1.255 . S
C351 O355 1.295 . S
C351 O356 1.235 . S
O352 Fe337 1.976 . S
O352 C346 1.287 . S
O353 Fe339 1.996 . S
O353 C346 1.255 . S
C354 O347 1.287 . S
C354 O348 1.255 . S
O355 Fe337 2.002 . S
O355 C351 1.295 . S
O356 Fe339 1.997 . S
O356 C351 1.235 . S
C357 O340 1.295 . S
C357 O341 1.235 . S
Fe358 O360 1.918 . S
Fe358 O363 1.997 . S
Fe358 O364 2.002 . S
Fe358 O369 1.976 . S
Fe358 O372 1.996 . S
Fe359 O360 1.918 . S
Fe359 O367 1.997 . S
Fe359 O370 1.996 . S
Fe359 O374 1.976 . S
Fe359 O377 2.002 . S
O360 Fe358 1.918 . S
O360 Fe359 1.918 . S
O360 Fe361 1.918 . S
Fe361 O360 1.918 . S
Fe361 O362 2.002 . S
Fe361 O371 1.976 . S
Fe361 O375 1.996 . S
Fe361 O378 1.997 . S
O362 Fe361 2.002 . S
O362 C379 1.295 . S
O363 Fe358 1.997 . S
O363 C379 1.235 . S
O364 Fe358 2.002 . S
O364 C365 1.295 . S
C365 O364 1.295 . S
C365 O367 1.235 . S
C366 O371 1.287 . S
C366 O372 1.255 . S
O367 Fe359 1.997 . S
O367 C365 1.235 . S
C368 O374 1.287 . S
C368 O375 1.255 . S
O369 Fe358 1.976 . S
O369 C376 1.287 . S
O370 Fe359 1.996 . S
O370 C376 1.255 . S
O371 Fe361 1.976 . S
O371 C366 1.287 . S
O372 Fe358 1.996 . S
O372 C366 1.255 . S
C373 O377 1.295 . S
C373 O378 1.235 . S
O374 Fe359 1.976 . S
O374 C368 1.287 . S
O375 Fe361 1.996 . S
O375 C368 1.255 . S
C376 O369 1.287 . S
C376 O370 1.255 . S
O377 Fe359 2.002 . S
O377 C373 1.295 . S
O378 Fe361 1.997 . S
O378 C373 1.235 . S
C379 O362 1.295 . S
C379 O363 1.235 . S
Fe380 O382 1.918 . S
Fe380 O385 1.997 . S
Fe380 O386 2.002 . S
Fe380 O391 1.976 . S
Fe380 O394 1.996 . S
Fe381 O382 1.918 . S
Fe381 O389 1.997 . S
Fe381 O392 1.996 . S
Fe381 O396 1.976 . S
Fe381 O399 2.002 . S
O382 Fe380 1.918 . S
O382 Fe381 1.918 . S
O382 Fe383 1.918 . S
Fe383 O382 1.918 . S
Fe383 O384 2.002 . S
Fe383 O393 1.976 . S
Fe383 O397 1.996 . S
Fe383 O400 1.997 . S
O384 Fe383 2.002 . S
O384 C401 1.295 . S
O385 Fe380 1.997 . S
O385 C401 1.235 . S
O386 Fe380 2.002 . S
O386 C387 1.295 . S
C387 O386 1.295 . S
C387 O389 1.235 . S
C388 O393 1.287 . S
C388 O394 1.255 . S
O389 Fe381 1.997 . S
O389 C387 1.235 . S
C390 O396 1.287 . S
C390 O397 1.255 . S
O391 Fe380 1.976 . S
O391 C398 1.287 . S
O392 Fe381 1.996 . S
O392 C398 1.255 . S
O393 Fe383 1.976 . S
O393 C388 1.287 . S
O394 Fe380 1.996 . S
O394 C388 1.255 . S
C395 O399 1.295 . S
C395 O400 1.235 . S
O396 Fe381 1.976 . S
O396 C390 1.287 . S
O397 Fe383 1.996 . S
O397 C390 1.255 . S
C398 O391 1.287 . S
C398 O392 1.255 . S
O399 Fe381 2.002 . S
O399 C395 1.295 . S
O400 Fe383 1.997 . S
O400 C395 1.235 . S
C401 O384 1.295 . S
C401 O385 1.235 . S
Fe402 O404 1.918 . S
Fe402 O407 1.997 . S
Fe402 O408 2.002 . S
Fe402 O413 1.976 . S
Fe402 O416 1.996 . S
Fe403 O404 1.918 . S
Fe403 O411 1.997 . S
Fe403 O414 1.996 . S
Fe403 O418 1.976 . S
Fe403 O421 2.002 . S
O404 Fe402 1.918 . S
O404 Fe403 1.918 . S
O404 Fe405 1.918 . S
Fe405 O404 1.918 . S
Fe405 O406 2.002 . S
Fe405 O415 1.976 . S
Fe405 O419 1.996 . S
Fe405 O422 1.997 . S
O406 Fe405 2.002 . S
O406 C423 1.295 . S
O407 Fe402 1.997 . S
O407 C423 1.235 . S
O408 Fe402 2.002 . S
O408 C409 1.295 . S
C409 O408 1.295 . S
C409 O411 1.235 . S
C410 O415 1.287 . S
C410 O416 1.255 . S
O411 Fe403 1.997 . S
O411 C409 1.235 . S
C412 O418 1.287 . S
C412 O419 1.255 . S
O413 Fe402 1.976 . S
O413 C420 1.287 . S
O414 Fe403 1.996 . S
O414 C420 1.255 . S
O415 Fe405 1.976 . S
O415 C410 1.287 . S
O416 Fe402 1.996 . S
O416 C410 1.255 . S
C417 O421 1.295 . S
C417 O422 1.235 . S
O418 Fe403 1.976 . S
O418 C412 1.287 . S
O419 Fe405 1.996 . S
O419 C412 1.255 . S
C420 O413 1.287 . S
C420 O414 1.255 . S
O421 Fe403 2.002 . S
O421 C417 1.295 . S
O422 Fe405 1.997 . S
O422 C417 1.235 . S
C423 O406 1.295 . S
C423 O407 1.235 . S
Fe424 O426 1.918 . S
Fe424 O429 1.997 . S
Fe424 O430 2.002 . S
Fe424 O435 1.976 . S
Fe424 O438 1.996 . S
Fe425 O426 1.918 . S
Fe425 O433 1.997 . S
Fe425 O436 1.996 . S
Fe425 O440 1.976 . S
Fe425 O443 2.002 . S
O426 Fe424 1.918 . S
O426 Fe425 1.918 . S
O426 Fe427 1.918 . S
Fe427 O426 1.918 . S
Fe427 O428 2.002 . S
Fe427 O437 1.976 . S
Fe427 O441 1.996 . S
Fe427 O444 1.997 . S
O428 Fe427 2.002 . S
O428 C445 1.295 . S
O429 Fe424 1.997 . S
O429 C445 1.235 . S
O430 Fe424 2.002 . S
O430 C431 1.295 . S
C431 O430 1.295 . S
C431 O433 1.235 . S
C432 O437 1.287 . S
C432 O438 1.255 . S
O433 Fe425 1.997 . S
O433 C431 1.235 . S
C434 O440 1.287 . S
C434 O441 1.255 . S
O435 Fe424 1.976 . S
O435 C442 1.287 . S
O436 Fe425 1.996 . S
O436 C442 1.255 . S
O437 Fe427 1.976 . S
O437 C432 1.287 . S
O438 Fe424 1.996 . S
O438 C432 1.255 . S
C439 O443 1.295 . S
C439 O444 1.235 . S
O440 Fe425 1.976 . S
O440 C434 1.287 . S
O441 Fe427 1.996 . S
O441 C434 1.255 . S
C442 O435 1.287 . S
C442 O436 1.255 . S
O443 Fe425 2.002 . S
O443 C439 1.295 . S
O444 Fe427 1.997 . S
O444 C439 1.235 . S
C445 O428 1.295 . S
C445 O429 1.235 . S
Fe446 O448 1.918 . S
Fe446 O451 1.997 . S
Fe446 O452 2.002 . S
Fe446 O457 1.976 . S
Fe446 O460 1.996 . S
Fe447 O448 1.918 . S
Fe447 O455 1.997 . S
Fe447 O458 1.996 . S
Fe447 O462 1.976 . S
Fe447 O465 2.002 . S
O448 Fe446 1.918 . S
O448 Fe447 1.918 . S
O448 Fe449 1.918 . S
Fe449 O448 1.918 . S
Fe449 O450 2.002 . S
Fe449 O459 1.976 . S
Fe449 O463 1.996 . S
Fe449 O466 1.997 . S
O450 Fe449 2.002 . S
O450 C467 1.295 . S
O451 Fe446 1.997 . S
O451 C467 1.235 . S
O452 Fe446 2.002 . S
O452 C453 1.295 . S
C453 O452 1.295 . S
C453 O455 1.235 . S
C454 O459 1.287 . S
C454 O460 1.255 . S
O455 Fe447 1.997 . S
O455 C453 1.235 . S
C456 O462 1.287 . S
C456 O463 1.255 . S
O457 Fe446 1.976 . S
O457 C464 1.287 . S
O458 Fe447 1.996 . S
O458 C464 1.255 . S
O459 Fe449 1.976 . S
O459 C454 1.287 . S
O460 Fe446 1.996 . S
O460 C454 1.255 . S
C461 O465 1.295 . S
C461 O466 1.235 . S
O462 Fe447 1.976 . S
O462 C456 1.287 . S
O463 Fe449 1.996 . S
O463 C456 1.255 . S
C464 O457 1.287 . S
C464 O458 1.255 . S
O465 Fe447 2.002 . S
O465 C461 1.295 . S
O466 Fe449 1.997 . S
O466 C461 1.235 . S
C467 O450 1.295 . S
C467 O451 1.235 . S
Fe468 O470 1.918 . S
Fe468 O473 1.997 . S
Fe468 O474 2.002 . S
Fe468 O479 1.976 . S
Fe468 O482 1.996 . S
Fe469 O470 1.918 . S
Fe469 O477 1.997 . S
Fe469 O480 1.996 . S
Fe469 O484 1.976 . S
Fe469 O487 2.002 . S
O470 Fe468 1.918 . S
O470 Fe469 1.918 . S
O470 Fe471 1.918 . S
Fe471 O470 1.918 . S
Fe471 O472 2.002 . S
Fe471 O481 1.976 . S
Fe471 O485 1.996 . S
Fe471 O488 1.997 . S
O472 Fe471 2.002 . S
O472 C489 1.295 . S
O473 Fe468 1.997 . S
O473 C489 1.235 . S
O474 Fe468 2.002 . S
O474 C475 1.295 . S
C475 O474 1.295 . S
C475 O477 1.235 . S
C476 O481 1.287 . S
C476 O482 1.255 . S
O477 Fe469 1.997 . S
O477 C475 1.235 . S
C478 O484 1.287 . S
C478 O485 1.255 . S
O479 Fe468 1.976 . S
O479 C486 1.287 . S
O480 Fe469 1.996 . S
O480 C486 1.255 . S
O481 Fe471 1.976 . S
O481 C476 1.287 . S
O482 Fe468 1.996 . S
O482 C476 1.255 . S
C483 O487 1.295 . S
C483 O488 1.235 . S
O484 Fe469 1.976 . S
O484 C478 1.287 . S
O485 Fe471 1.996 . S
O485 C478 1.255 . S
C486 O479 1.287 . S
C486 O480 1.255 . S
O487 Fe469 2.002 . S
O487 C483 1.295 . S
O488 Fe471 1.997 . S
O488 C483 1.235 . S
C489 O472 1.295 . S
C489 O473 1.235 . S
Fe490 O492 1.918 . S
Fe490 O495 1.997 . S
Fe490 O496 2.002 . S
Fe490 O501 1.976 . S
Fe490 O504 1.996 . S
Fe491 O492 1.918 . S
Fe491 O499 1.997 . S
Fe491 O502 1.996 . S
Fe491 O506 1.976 . S
Fe491 O509 2.002 . S
O492 Fe490 1.918 . S
O492 Fe491 1.918 . S
O492 Fe493 1.918 . S
Fe493 O492 1.918 . S
Fe493 O494 2.002 . S
Fe493 O503 1.976 . S
Fe493 O507 1.996 . S
Fe493 O510 1.997 . S
O494 Fe493 2.002 . S
O494 C511 1.295 . S
O495 Fe490 1.997 . S
O495 C511 1.235 . S
O496 Fe490 2.002 . S
O496 C497 1.295 . S
C497 O496 1.295 . S
C497 O499 1.235 . S
C498 O503 1.287 . S
C498 O504 1.255 . S
O499 Fe491 1.997 . S
O499 C497 1.235 . S
C500 O506 1.287 . S
C500 O507 1.255 . S
O501 Fe490 1.976 . S
O501 C508 1.287 . S
O502 Fe491 1.996 . S
O502 C508 1.255 . S
O503 Fe493 1.976 . S
O503 C498 1.287 . S
O504 Fe490 1.996 . S
O504 C498 1.255 . S
C505 O509 1.295 . S
C505 O510 1.235 . S
O506 Fe491 1.976 . S
O506 C500 1.287 . S
O507 Fe493 1.996 . S
O507 C500 1.255 . S
C508 O501 1.287 . S
C508 O502 1.255 . S
O509 Fe491 2.002 . S
O509 C505 1.295 . S
O510 Fe493 1.997 . S
O510 C505 1.235 . S
C511 O494 1.295 . S
C511 O495 1.235 . S
Fe512 O514 1.918 . S
Fe512 O517 1.997 . S
Fe512 O518 2.002 . S
Fe512 O523 1.976 . S
Fe512 O526 1.996 . S
Fe513 O514 1.918 . S
Fe513 O521 1.997 . S
Fe513 O524 1.996 . S
Fe513 O528 1.976 . S
Fe513 O531 2.002 . S
O514 Fe512 1.918 . S
O514 Fe513 1.918 . S
O514 Fe515 1.918 . S
Fe515 O514 1.918 . S
Fe515 O516 2.002 . S
Fe515 O525 1.976 . S
Fe515 O529 1.996 . S
Fe515 O532 1.997 . S
O516 Fe515 2.002 . S
O516 C533 1.295 . S
O517 Fe512 1.997 . S
O517 C533 1.235 . S
O518 Fe512 2.002 . S
O518 C519 1.295 . S
C519 O518 1.295 . S
C519 O521 1.235 . S
C520 O525 1.287 . S
C520 O526 1.255 . S
O521 Fe513 1.997 . S
O521 C519 1.235 . S
C522 O528 1.287 . S
C522 O529 1.255 . S
O523 Fe512 1.976 . S
O523 C530 1.287 . S
O524 Fe513 1.996 . S
O524 C530 1.255 . S
O525 Fe515 1.976 . S
O525 C520 1.287 . S
O526 Fe512 1.996 . S
O526 C520 1.255 . S
C527 O531 1.295 . S
C527 O532 1.235 . S
O528 Fe513 1.976 . S
O528 C522 1.287 . S
O529 Fe515 1.996 . S
O529 C522 1.255 . S
C530 O523 1.287 . S
C530 O524 1.255 . S
O531 Fe513 2.002 . S
O531 C527 1.295 . S
O532 Fe515 1.997 . S
O532 C527 1.235 . S
C533 O516 1.295 . S
C533 O517 1.235 . S
Fe534 O536 1.918 . S
Fe534 O539 1.997 . S
Fe534 O540 2.002 . S
Fe534 O545 1.976 . S
Fe534 O548 1.996 . S
Fe535 O536 1.918 . S
Fe535 O543 1.997 . S
Fe535 O546 1.996 . S
Fe535 O550 1.976 . S
Fe535 O553 2.002 . S
O536 Fe534 1.918 . S
O536 Fe535 1.918 . S
O536 Fe537 1.918 . S
Fe537 O536 1.918 . S
Fe537 O538 2.002 . S
Fe537 O547 1.976 . S
Fe537 O551 1.996 . S
Fe537 O554 1.997 . S
O538 Fe537 2.002 . S
O538 C555 1.295 . S
O539 Fe534 1.997 . S
O539 C555 1.235 . S
O540 Fe534 2.002 . S
O540 C541 1.295 . S
C541 O540 1.295 . S
C541 O543 1.235 . S
C542 O547 1.287 . S
C542 O548 1.255 . S
O543 Fe535 1.997 . S
O543 C541 1.235 . S
C544 O550 1.287 . S
C544 O551 1.255 . S
O545 Fe534 1.976 . S
O545 C552 1.287 . S
O546 Fe535 1.996 . S
O546 C552 1.255 . S
O547 Fe537 1.976 . S
O547 C542 1.287 . S
O548 Fe534 1.996 . S
O548 C542 1.255 . S
C549 O553 1.295 . S
C549 O554 1.235 . S
O550 Fe535 1.976 . S
O550 C544 1.287 . S
O551 Fe537 1.996 . S
O551 C544 1.255 . S
C552 O545 1.287 . S
C552 O546 1.255 . S
O553 Fe535 2.002 . S
O553 C549 1.295 . S
O554 Fe537 1.997 . S
O554 C549 1.235 . S
C555 O538 1.295 . S
C555 O539 1.235 . S
Fe556 O558 1.918 . S
Fe556 O561 1.997 . S
Fe556 O562 2.002 . S
Fe556 O567 1.976 . S
Fe556 O570 1.996 . S
Fe557 O558 1.918 . S
Fe557 O565 1.997 . S
Fe557 O568 1.996 . S
Fe557 O572 1.976 . S
Fe557 O575 2.002 . S
O558 Fe556 1.918 . S
O558 Fe557 1.918 . S
O558 Fe559 1.918 . S
Fe559 O558 1.918 . S
Fe559 O560 2.002 . S
Fe559 O569 1.976 . S
Fe559 O573 1.996 . S
Fe559 O576 1.997 . S
O560 Fe559 2.002 . S
O560 C577 1.295 . S
O561 Fe556 1.997 . S
O561 C577 1.235 . S
O562 Fe556 2.002 . S
O562 C563 1.295 . S
C563 O562 1.295 . S
C563 O565 1.235 . S
C564 O569 1.287 . S
C564 O570 1.255 . S
O565 Fe557 1.997 . S
O565 C563 1.235 . S
C566 O572 1.287 . S
C566 O573 1.255 . S
O567 Fe556 1.976 . S
O567 C574 1.287 . S
O568 Fe557 1.996 . S
O568 C574 1.255 . S
O569 Fe559 1.976 . S
O569 C564 1.287 . S
O570 Fe556 1.996 . S
O570 C564 1.255 . S
C571 O575 1.295 . S
C571 O576 1.235 . S
O572 Fe557 1.976 . S
O572 C566 1.287 . S
O573 Fe559 1.996 . S
O573 C566 1.255 . S
C574 O567 1.287 . S
C574 O568 1.255 . S
O575 Fe557 2.002 . S
O575 C571 1.295 . S
O576 Fe559 1.997 . S
O576 C571 1.235 . S
C577 O560 1.295 . S
C577 O561 1.235 . S
Fe578 O580 1.918 . S
Fe578 O583 1.997 . S
Fe578 O584 2.002 . S
Fe578 O589 1.976 . S
Fe578 O592 1.996 . S
Fe579 O580 1.918 . S
Fe579 O587 1.997 . S
Fe579 O590 1.996 . S
Fe579 O594 1.976 . S
Fe579 O597 2.002 . S
O580 Fe578 1.918 . S
O580 Fe579 1.918 . S
O580 Fe581 1.918 . S
Fe581 O580 1.918 . S
Fe581 O582 2.002 . S
Fe581 O591 1.976 . S
Fe581 O595 1.996 . S
Fe581 O598 1.997 . S
O582 Fe581 2.002 . S
O582 C599 1.295 . S
O583 Fe578 1.997 . S
O583 C599 1.235 . S
O584 Fe578 2.002 . S
O584 C585 1.295 . S
C585 O584 1.295 . S
C585 O587 1.235 . S
C586 O591 1.287 . S
C586 O592 1.255 . S
O587 Fe579 1.997 . S
O587 C585 1.235 . S
C588 O594 1.287 . S
C588 O595 1.255 . S
O589 Fe578 1.976 . S
O589 C596 1.287 . S
O590 Fe579 1.996 . S
O590 C596 1.255 . S
O591 Fe581 1.976 . S
O591 C586 1.287 . S
O592 Fe578 1.996 . S
O592 C586 1.255 . S
C593 O597 1.295 . S
C593 O598 1.235 . S
O594 Fe579 1.976 . S
O594 C588 1.287 . S
O595 Fe581 1.996 . S
O595 C588 1.255 . S
C596 O589 1.287 . S
C596 O590 1.255 . S
O597 Fe579 2.002 . S
O597 C593 1.295 . S
O598 Fe581 1.997 . S
O598 C593 1.235 . S
C599 O582 1.295 . S
C599 O583 1.235 . S
Fe600 O602 1.918 . S
Fe600 O605 1.997 . S
Fe600 O606 2.002 . S
Fe600 O611 1.976 . S
Fe600 O614 1.996 . S
Fe601 O602 1.918 . S
Fe601 O609 1.997 . S
Fe601 O612 1.996 . S
Fe601 O616 1.976 . S
Fe601 O619 2.002 . S
O602 Fe600 1.918 . S
O602 Fe601 1.918 . S
O602 Fe603 1.918 . S
Fe603 O602 1.918 . S
Fe603 O604 2.002 . S
Fe603 O613 1.976 . S
Fe603 O617 1.996 . S
Fe603 O620 1.997 . S
O604 Fe603 2.002 . S
O604 C621 1.295 . S
O605 Fe600 1.997 . S
O605 C621 1.235 . S
O606 Fe600 2.002 . S
O606 C607 1.295 . S
C607 O606 1.295 . S
C607 O609 1.235 . S
C608 O613 1.287 . S
C608 O614 1.255 . S
O609 Fe601 1.997 . S
O609 C607 1.235 . S
C610 O616 1.287 . S
C610 O617 1.255 . S
O611 Fe600 1.976 . S
O611 C618 1.287 . S
O612 Fe601 1.996 . S
O612 C618 1.255 . S
O613 Fe603 1.976 . S
O613 C608 1.287 . S
O614 Fe600 1.996 . S
O614 C608 1.255 . S
C615 O619 1.295 . S
C615 O620 1.235 . S
O616 Fe601 1.976 . S
O616 C610 1.287 . S
O617 Fe603 1.996 . S
O617 C610 1.255 . S
C618 O611 1.287 . S
C618 O612 1.255 . S
O619 Fe601 2.002 . S
O619 C615 1.295 . S
O620 Fe603 1.997 . S
O620 C615 1.235 . S
C621 O604 1.295 . S
C621 O605 1.235 . S
Fe622 O624 1.918 . S
Fe622 O627 1.997 . S
Fe622 O628 2.002 . S
Fe622 O633 1.976 . S
Fe622 O636 1.996 . S
Fe623 O624 1.918 . S
Fe623 O631 1.997 . S
Fe623 O634 1.996 . S
Fe623 O638 1.976 . S
Fe623 O641 2.002 . S
O624 Fe622 1.918 . S
O624 Fe623 1.918 . S
O624 Fe625 1.918 . S
Fe625 O624 1.918 . S
Fe625 O626 2.002 . S
Fe625 O635 1.976 . S
Fe625 O639 1.996 . S
Fe625 O642 1.997 . S
O626 Fe625 2.002 . S
O626 C643 1.295 . S
O627 Fe622 1.997 . S
O627 C643 1.235 . S
O628 Fe622 2.002 . S
O628 C629 1.295 . S
C629 O628 1.295 . S
C629 O631 1.235 . S
C630 O635 1.287 . S
C630 O636 1.255 . S
O631 Fe623 1.997 . S
O631 C629 1.235 . S
C632 O638 1.287 . S
C632 O639 1.255 . S
O633 Fe622 1.976 . S
O633 C640 1.287 . S
O634 Fe623 1.996 . S
O634 C640 1.255 . S
O635 Fe625 1.976 . S
O635 C630 1.287 . S
O636 Fe622 1.996 . S
O636 C630 1.255 . S
C637 O641 1.295 . S
C637 O642 1.235 . S
O638 Fe623 1.976 . S
O638 C632 1.287 . S
O639 Fe625 1.996 . S
O639 C632 1.255 . S
C640 O633 1.287 . S
C640 O634 1.255 . S
O641 Fe623 2.002 . S
O641 C637 1.295 . S
O642 Fe625 1.997 . S
O642 C637 1.235 . S
C643 O626 1.295 . S
C643 O627 1.235 . S
Fe644 O646 1.918 . S
Fe644 O649 1.997 . S
Fe644 O650 2.002 . S
Fe644 O655 1.976 . S
Fe644 O658 1.996 . S
Fe645 O646 1.918 . S
Fe645 O653 1.997 . S
Fe645 O656 1.996 . S
Fe645 O660 1.976 . S
Fe645 O663 2.002 . S
O646 Fe644 1.918 . S
O646 Fe645 1.918 . S
O646 Fe647 1.918 . S
Fe647 O646 1.918 . S
Fe647 O648 2.002 . S
Fe647 O657 1.976 . S
Fe647 O661 1.996 . S
Fe647 O664 1.997 . S
O648 Fe647 2.002 . S
O648 C665 1.295 . S
O649 Fe644 1.997 . S
O649 C665 1.235 . S
O650 Fe644 2.002 . S
O650 C651 1.295 . S
C651 O650 1.295 . S
C651 O653 1.235 . S
C652 O657 1.287 . S
C652 O658 1.255 . S
O653 Fe645 1.997 . S
O653 C651 1.235 . S
C654 O660 1.287 . S
C654 O661 1.255 . S
O655 Fe644 1.976 . S
O655 C662 1.287 . S
O656 Fe645 1.996 . S
O656 C662 1.255 . S
O657 Fe647 1.976 . S
O657 C652 1.287 . S
O658 Fe644 1.996 . S
O658 C652 1.255 . S
C659 O663 1.295 . S
C659 O664 1.235 . S
O660 Fe645 1.976 . S
O660 C654 1.287 . S
O661 Fe647 1.996 . S
O661 C654 1.255 . S
C662 O655 1.287 . S
C662 O656 1.255 . S
O663 Fe645 2.002 . S
O663 C659 1.295 . S
O664 Fe647 1.997 . S
O664 C659 1.235 . S
C665 O648 1.295 . S
C665 O649 1.235 . S
Fe666 O668 1.918 . S
Fe666 O671 1.997 . S
Fe666 O672 2.002 . S
Fe666 O677 1.976 . S
Fe666 O680 1.996 . S
Fe667 O668 1.918 . S
Fe667 O675 1.997 . S
Fe667 O678 1.996 . S
Fe667 O682 1.976 . S
Fe667 O685 2.002 . S
O668 Fe666 1.918 . S
O668 Fe667 1.918 . S
O668 Fe669 1.918 . S
Fe669 O668 1.918 . S
Fe669 O670 2.002 . S
Fe669 O679 1.976 . S
Fe669 O683 1.996 . S
Fe669 O686 1.997 . S
O670 Fe669 2.002 . S
O670 C687 1.295 . S
O671 Fe666 1.997 . S
O671 C687 1.235 . S
O672 Fe666 2.002 . S
O672 C673 1.295 . S
C673 O672 1.295 . S
C673 O675 1.235 . S
C674 O679 1.287 . S
C674 O680 1.255 . S
O675 Fe667 1.997 . S
O675 C673 1.235 . S
C676 O682 1.287 . S
C676 O683 1.255 . S
O677 Fe666 1.976 . S
O677 C684 1.287 . S
O678 Fe667 1.996 . S
O678 C684 1.255 . S
O679 Fe669 1.976 . S
O679 C674 1.287 . S
O680 Fe666 1.996 . S
O680 C674 1.255 . S
C681 O685 1.295 . S
C681 O686 1.235 . S
O682 Fe667 1.976 . S
O682 C676 1.287 . S
O683 Fe669 1.996 . S
O683 C676 1.255 . S
C684 O677 1.287 . S
C684 O678 1.255 . S
O685 Fe667 2.002 . S
O685 C681 1.295 . S
O686 Fe669 1.997 . S
O686 C681 1.235 . S
C687 O670 1.295 . S
C687 O671 1.235 . S
C688 C689 1.391 . S
C688 C690 1.394 . S
C688 H704 0.931 . S
C689 C688 1.391 . S
C689 C693 1.376 . S
C690 C688 1.394 . S
C690 C691 1.369 . S
C690 C694 1.531 . S
C691 C690 1.369 . S
C691 C692 1.410 . S
C691 C699 1.503 . S
C692 C691 1.410 . S
C692 C693 1.392 . S
C692 C695 1.511 . S
C693 C689 1.376 . S
C693 C692 1.392 . S
C693 H705 0.929 . S
C694 C690 1.531 . S
C694 H706 0.960 . S
C694 H707 0.962 . S
C694 H708 0.960 . S
C695 C692 1.511 . S
C695 H709 0.961 . S
C695 H710 0.961 . S
C695 H711 0.961 . S
C696 C697 1.370 . S
C696 C698 1.363 . S
C696 H712 0.931 . S
C697 C696 1.370 . S
C697 C701 1.408 . S
C698 C696 1.363 . S
C698 C699 1.370 . S
C698 C702 1.524 . S
C699 C691 1.503 . S
C699 C698 1.370 . S
C699 C700 1.403 . S
C700 C699 1.403 . S
C700 C701 1.404 . S
C700 C703 1.539 . S
C701 C697 1.408 . S
C701 C700 1.404 . S
C701 H713 0.930 . S
C702 C698 1.524 . S
C702 H714 0.956 . S
C702 H715 0.961 . S
C702 H716 0.961 . S
C703 C700 1.539 . S
C703 H717 0.958 . S
C703 H718 0.961 . S
C703 H719 0.960 . S
H704 C688 0.931 . S
H705 C693 0.929 . S
H706 C694 0.960 . S
H707 C694 0.962 . S
H708 C694 0.960 . S
H709 C695 0.961 . S
H710 C695 0.961 . S
H711 C695 0.961 . S
H712 C696 0.931 . S
H713 C701 0.930 . S
H714 C702 0.956 . S
H715 C702 0.961 . S
H716 C702 0.961 . S
H717 C703 0.958 . S
H718 C703 0.961 . S
H719 C703 0.960 . S
C720 C721 1.391 . S
C720 C722 1.394 . S
C720 H736 0.931 . S
C721 C720 1.391 . S
C721 C725 1.376 . S
C722 C720 1.394 . S
C722 C723 1.369 . S
C722 C726 1.531 . S
C723 C722 1.369 . S
C723 C724 1.410 . S
C723 C731 1.503 . S
C724 C723 1.410 . S
C724 C725 1.392 . S
C724 C727 1.511 . S
C725 C721 1.376 . S
C725 C724 1.392 . S
C725 H737 0.929 . S
C726 C722 1.531 . S
C726 H738 0.960 . S
C726 H739 0.962 . S
C726 H740 0.960 . S
C727 C724 1.511 . S
C727 H741 0.961 . S
C727 H742 0.961 . S
C727 H743 0.961 . S
C728 C729 1.370 . S
C728 C730 1.363 . S
C728 H744 0.931 . S
C729 C728 1.370 . S
C729 C733 1.408 . S
C730 C728 1.363 . S
C730 C731 1.370 . S
C730 C734 1.524 . S
C731 C723 1.503 . S
C731 C730 1.370 . S
C731 C732 1.403 . S
C732 C731 1.403 . S
C732 C733 1.404 . S
C732 C735 1.539 . S
C733 C729 1.408 . S
C733 C732 1.404 . S
C733 H745 0.930 . S
C734 C730 1.524 . S
C734 H746 0.956 . S
C734 H747 0.961 . S
C734 H748 0.961 . S
C735 C732 1.539 . S
C735 H749 0.958 . S
C735 H750 0.961 . S
C735 H751 0.960 . S
H736 C720 0.931 . S
H737 C725 0.929 . S
H738 C726 0.960 . S
H739 C726 0.962 . S
H740 C726 0.960 . S
H741 C727 0.961 . S
H742 C727 0.961 . S
H743 C727 0.961 . S
H744 C728 0.931 . S
H745 C733 0.930 . S
H746 C734 0.956 . S
H747 C734 0.961 . S
H748 C734 0.961 . S
H749 C735 0.958 . S
H750 C735 0.961 . S
H751 C735 0.960 . S
C752 C753 1.391 . S
C752 C754 1.394 . S
C752 H768 0.931 . S
C753 C752 1.391 . S
C753 C757 1.376 . S
C754 C752 1.394 . S
C754 C755 1.369 . S
C754 C758 1.531 . S
C755 C754 1.369 . S
C755 C756 1.410 . S
C755 C763 1.503 . S
C756 C755 1.410 . S
C756 C757 1.392 . S
C756 C759 1.511 . S
C757 C753 1.376 . S
C757 C756 1.392 . S
C757 H769 0.929 . S
C758 C754 1.531 . S
C758 H770 0.960 . S
C758 H771 0.962 . S
C758 H772 0.960 . S
C759 C756 1.511 . S
C759 H773 0.961 . S
C759 H774 0.961 . S
C759 H775 0.961 . S
C760 C761 1.370 . S
C760 C762 1.363 . S
C760 H776 0.931 . S
C761 C760 1.370 . S
C761 C765 1.408 . S
C762 C760 1.363 . S
C762 C763 1.370 . S
C762 C766 1.524 . S
C763 C755 1.503 . S
C763 C762 1.370 . S
C763 C764 1.403 . S
C764 C763 1.403 . S
C764 C765 1.404 . S
C764 C767 1.539 . S
C765 C761 1.408 . S
C765 C764 1.404 . S
C765 H777 0.930 . S
C766 C762 1.524 . S
C766 H778 0.956 . S
C766 H779 0.961 . S
C766 H780 0.961 . S
C767 C764 1.539 . S
C767 H781 0.958 . S
C767 H782 0.961 . S
C767 H783 0.960 . S
H768 C752 0.931 . S
H769 C757 0.929 . S
H770 C758 0.960 . S
H771 C758 0.962 . S
H772 C758 0.960 . S
H773 C759 0.961 . S
H774 C759 0.961 . S
H775 C759 0.961 . S
H776 C760 0.931 . S
H777 C765 0.930 . S
H778 C766 0.956 . S
H779 C766 0.961 . S
H780 C766 0.961 . S
H781 C767 0.958 . S
H782 C767 0.961 . S
H783 C767 0.960 . S
C784 C785 1.391 . S
C784 C786 1.394 . S
C784 H800 0.931 . S
C785 C784 1.391 . S
C785 C789 1.376 . S
C786 C784 1.394 . S
C786 C787 1.369 . S
C786 C790 1.531 . S
C787 C786 1.369 . S
C787 C788 1.410 . S
C787 C795 1.503 . S
C788 C787 1.410 . S
C788 C789 1.392 . S
C788 C791 1.511 . S
C789 C785 1.376 . S
C789 C788 1.392 . S
C789 H801 0.929 . S
C790 C786 1.531 . S
C790 H802 0.960 . S
C790 H803 0.962 . S
C790 H804 0.960 . S
C791 C788 1.511 . S
C791 H805 0.961 . S
C791 H806 0.961 . S
C791 H807 0.961 . S
C792 C793 1.370 . S
C792 C794 1.363 . S
C792 H808 0.931 . S
C793 C792 1.370 . S
C793 C797 1.408 . S
C794 C792 1.363 . S
C794 C795 1.370 1_556 S
C794 C798 1.524 . S
C795 C787 1.503 . S
C795 C794 1.370 1_554 S
C795 C796 1.403 . S
C796 C795 1.403 . S
C796 C797 1.404 1_554 S
C796 C799 1.539 . S
C797 C793 1.408 . S
C797 C796 1.404 1_556 S
C797 H809 0.930 . S
C798 C794 1.524 . S
C798 H810 0.956 . S
C798 H811 0.961 . S
C798 H812 0.961 . S
C799 C796 1.539 . S
C799 H813 0.958 . S
C799 H814 0.961 . S
C799 H815 0.960 . S
H800 C784 0.931 . S
H801 C789 0.929 . S
H802 C790 0.960 . S
H803 C790 0.962 . S
H804 C790 0.960 . S
H805 C791 0.961 . S
H806 C791 0.961 . S
H807 C791 0.961 . S
H808 C792 0.931 . S
H809 C797 0.930 . S
H810 C798 0.956 . S
H811 C798 0.961 . S
H812 C798 0.961 . S
H813 C799 0.958 . S
H814 C799 0.961 . S
H815 C799 0.960 . S
C816 C817 1.391 . S
C816 C818 1.394 . S
C816 H832 0.931 . S
C817 C816 1.391 . S
C817 C821 1.376 . S
C818 C816 1.394 . S
C818 C819 1.369 . S
C818 C822 1.531 . S
C819 C818 1.369 . S
C819 C820 1.410 . S
C819 C827 1.503 . S
C820 C819 1.410 . S
C820 C821 1.392 . S
C820 C823 1.511 . S
C821 C817 1.376 . S
C821 C820 1.392 . S
C821 H833 0.929 . S
C822 C818 1.531 . S
C822 H834 0.960 . S
C822 H835 0.962 . S
C822 H836 0.960 . S
C823 C820 1.511 . S
C823 H837 0.961 . S
C823 H838 0.961 . S
C823 H839 0.961 . S
C824 C825 1.370 . S
C824 C826 1.363 . S
C824 H840 0.931 . S
C825 C824 1.370 . S
C825 C829 1.408 . S
C826 C824 1.363 . S
C826 C827 1.370 . S
C826 C830 1.524 . S
C827 C819 1.503 . S
C827 C826 1.370 . S
C827 C828 1.403 . S
C828 C827 1.403 . S
C828 C829 1.404 . S
C828 C831 1.539 . S
C829 C825 1.408 . S
C829 C828 1.404 . S
C829 H841 0.930 . S
C830 C826 1.524 . S
C830 H842 0.956 . S
C830 H843 0.961 . S
C830 H844 0.961 . S
C831 C828 1.539 . S
C831 H845 0.958 . S
C831 H846 0.961 . S
C831 H847 0.960 . S
H832 C816 0.931 . S
H833 C821 0.929 . S
H834 C822 0.960 . S
H835 C822 0.962 . S
H836 C822 0.960 . S
H837 C823 0.961 . S
H838 C823 0.961 . S
H839 C823 0.961 . S
H840 C824 0.931 . S
H841 C829 0.930 . S
H842 C830 0.956 . S
H843 C830 0.961 . S
H844 C830 0.961 . S
H845 C831 0.958 . S
H846 C831 0.961 . S
H847 C831 0.960 . S
C848 C849 1.391 . S
C848 C850 1.394 . S
C848 H864 0.931 . S
C849 C848 1.391 . S
C849 C853 1.376 . S
C850 C848 1.394 . S
C850 C851 1.369 . S
C850 C854 1.531 . S
C851 C850 1.369 . S
C851 C852 1.410 . S
C851 C859 1.503 . S
C852 C851 1.410 . S
C852 C853 1.392 . S
C852 C855 1.511 . S
C853 C849 1.376 . S
C853 C852 1.392 . S
C853 H865 0.929 . S
C854 C850 1.531 . S
C854 H866 0.960 . S
C854 H867 0.962 . S
C854 H868 0.960 . S
C855 C852 1.511 . S
C855 H869 0.961 . S
C855 H870 0.961 . S
C855 H871 0.961 . S
C856 C857 1.370 . S
C856 C858 1.363 . S
C856 H872 0.931 . S
C857 C856 1.370 . S
C857 C861 1.408 . S
C858 C856 1.363 . S
C858 C859 1.370 . S
C858 C862 1.524 . S
C859 C851 1.503 . S
C859 C858 1.370 . S
C859 C860 1.403 . S
C860 C859 1.403 . S
C860 C861 1.404 . S
C860 C863 1.539 . S
C861 C857 1.408 . S
C861 C860 1.404 . S
C861 H873 0.930 . S
C862 C858 1.524 . S
C862 H874 0.956 . S
C862 H875 0.961 . S
C862 H876 0.961 . S
C863 C860 1.539 . S
C863 H877 0.958 . S
C863 H878 0.961 . S
C863 H879 0.960 . S
H864 C848 0.931 . S
H865 C853 0.929 . S
H866 C854 0.960 . S
H867 C854 0.962 . S
H868 C854 0.960 . S
H869 C855 0.961 . S
H870 C855 0.961 . S
H871 C855 0.961 . S
H872 C856 0.931 . S
H873 C861 0.930 . S
H874 C862 0.956 . S
H875 C862 0.961 . S
H876 C862 0.961 . S
H877 C863 0.958 . S
H878 C863 0.961 . S
H879 C863 0.960 . S
C880 C881 1.391 . S
C880 C882 1.394 . S
C880 H896 0.931 . S
C881 C880 1.391 . S
C881 C885 1.376 . S
C882 C880 1.394 . S
C882 C883 1.369 . S
C882 C886 1.531 . S
C883 C882 1.369 . S
C883 C884 1.410 . S
C883 C891 1.503 . S
C884 C883 1.410 . S
C884 C885 1.392 . S
C884 C887 1.511 . S
C885 C881 1.376 . S
C885 C884 1.392 . S
C885 H897 0.929 . S
C886 C882 1.531 . S
C886 H898 0.960 . S
C886 H899 0.962 . S
C886 H900 0.960 . S
C887 C884 1.511 . S
C887 H901 0.961 . S
C887 H902 0.961 . S
C887 H903 0.961 . S
C888 C889 1.370 . S
C888 C890 1.363 . S
C888 H904 0.931 . S
C889 C888 1.370 . S
C889 C893 1.408 . S
C890 C888 1.363 . S
C890 C891 1.370 . S
C890 C894 1.524 . S
C891 C883 1.503 . S
C891 C890 1.370 . S
C891 C892 1.403 . S
C892 C891 1.403 . S
C892 C893 1.404 . S
C892 C895 1.539 . S
C893 C889 1.408 . S
C893 C892 1.404 . S
C893 H905 0.930 . S
C894 C890 1.524 . S
C894 H906 0.956 . S
C894 H907 0.961 . S
C894 H908 0.961 . S
C895 C892 1.539 . S
C895 H909 0.958 . S
C895 H910 0.961 . S
C895 H911 0.960 . S
H896 C880 0.931 . S
H897 C885 0.929 . S
H898 C886 0.960 . S
H899 C886 0.962 . S
H900 C886 0.960 . S
H901 C887 0.961 . S
H902 C887 0.961 . S
H903 C887 0.961 . S
H904 C888 0.931 . S
H905 C893 0.930 . S
H906 C894 0.956 . S
H907 C894 0.961 . S
H908 C894 0.961 . S
H909 C895 0.958 . S
H910 C895 0.961 . S
H911 C895 0.960 . S
C912 C913 1.391 . S
C912 C914 1.394 . S
C912 H928 0.931 . S
C913 C912 1.391 . S
C913 C917 1.376 . S
C914 C912 1.394 . S
C914 C915 1.369 . S
C914 C918 1.531 . S
C915 C914 1.369 . S
C915 C916 1.410 . S
C915 C923 1.503 1_556 S
C916 C915 1.410 . S
C916 C917 1.392 . S
C916 C919 1.511 . S
C917 C913 1.376 . S
C917 C916 1.392 . S
C917 H929 0.929 . S
C918 C914 1.531 . S
C918 H930 0.960 . S
C918 H931 0.962 . S
C918 H932 0.960 . S
C919 C916 1.511 . S
C919 H933 0.961 . S
C919 H934 0.959 . S
C919 H935 0.961 1_556 S
C920 C921 1.370 . S
C920 C922 1.363 . S
C920 H936 0.931 . S
C921 C920 1.370 . S
C921 C925 1.408 . S
C922 C920 1.363 . S
C922 C923 1.370 . S
C922 C926 1.524 1_554 S
C923 C915 1.503 1_554 S
C923 C922 1.370 . S
C923 C924 1.403 . S
C924 C923 1.403 . S
C924 C925 1.404 . S
C924 C927 1.539 . S
C925 C921 1.408 . S
C925 C924 1.404 . S
C925 H937 0.930 . S
C926 C922 1.524 1_556 S
C926 H938 0.956 . S
C926 H939 0.961 . S
C926 H940 0.961 . S
C927 C924 1.539 . S
C927 H941 0.958 . S
C927 H942 0.961 . S
C927 H943 0.960 . S
H928 C912 0.931 . S
H929 C917 0.929 . S
H930 C918 0.960 . S
H931 C918 0.962 . S
H932 C918 0.960 . S
H933 C919 0.961 . S
H934 C919 0.959 . S
H935 C919 0.961 1_554 S
H936 C920 0.931 . S
H937 C925 0.930 . S
H938 C926 0.956 . S
H939 C926 0.961 . S
H940 C926 0.961 . S
H941 C927 0.958 . S
H942 C927 0.961 . S
H943 C927 0.960 . S
C944 C945 1.391 . S
C944 C946 1.394 . S
C944 H960 0.931 . S
C945 C944 1.391 . S
C945 C949 1.376 . S
C946 C944 1.394 . S
C946 C947 1.369 . S
C946 C950 1.531 . S
C947 C946 1.369 . S
C947 C948 1.410 . S
C947 C955 1.503 . S
C948 C947 1.410 . S
C948 C949 1.392 . S
C948 C951 1.511 . S
C949 C945 1.376 . S
C949 C948 1.392 . S
C949 H961 0.929 . S
C950 C946 1.531 . S
C950 H962 0.960 . S
C950 H963 0.962 . S
C950 H964 0.960 . S
C951 C948 1.511 . S
C951 H965 0.961 . S
C951 H966 0.961 . S
C951 H967 0.961 . S
C952 C953 1.370 . S
C952 C954 1.363 . S
C952 H968 0.931 . S
C953 C952 1.370 . S
C953 C957 1.408 . S
C954 C952 1.363 . S
C954 C955 1.370 . S
C954 C958 1.524 . S
C955 C947 1.503 . S
C955 C954 1.370 . S
C955 C956 1.403 . S
C956 C955 1.403 . S
C956 C957 1.404 . S
C956 C959 1.539 . S
C957 C953 1.408 . S
C957 C956 1.404 . S
C957 H969 0.930 . S
C958 C954 1.524 . S
C958 H970 0.956 . S
C958 H971 0.961 . S
C958 H972 0.961 . S
C959 C956 1.539 . S
C959 H973 0.958 . S
C959 H974 0.961 . S
C959 H975 0.960 . S
H960 C944 0.931 . S
H961 C949 0.929 . S
H962 C950 0.960 . S
H963 C950 0.962 . S
H964 C950 0.960 . S
H965 C951 0.961 . S
H966 C951 0.961 . S
H967 C951 0.961 . S
H968 C952 0.931 . S
H969 C957 0.930 . S
H970 C958 0.956 . S
H971 C958 0.961 . S
H972 C958 0.961 . S
H973 C959 0.958 . S
H974 C959 0.961 . S
H975 C959 0.960 . S
C976 C977 1.391 . S
C976 C978 1.394 . S
C976 H992 0.931 . S
C977 C976 1.391 . S
C977 C981 1.376 . S
C978 C976 1.394 . S
C978 C979 1.369 . S
C978 C982 1.531 . S
C979 C978 1.369 . S
C979 C980 1.410 . S
C979 C987 1.503 . S
C980 C979 1.410 . S
C980 C981 1.392 . S
C980 C983 1.511 . S
C981 C977 1.376 . S
C981 C980 1.392 . S
C981 H993 0.929 . S
C982 C978 1.531 . S
C982 H994 0.960 . S
C982 H995 0.962 . S
C982 H996 0.960 . S
C983 C980 1.511 . S
C983 H997 0.961 . S
C983 H998 0.961 . S
C983 H999 0.961 . S
C984 C985 1.370 . S
C984 C986 1.363 . S
C984 H1000 0.931 . S
C985 C984 1.370 . S
C985 C989 1.408 . S
C986 C984 1.363 . S
C986 C987 1.370 1_565 S
C986 C990 1.524 . S
C987 C979 1.503 . S
C987 C986 1.370 1_545 S
C987 C988 1.403 . S
C988 C987 1.403 . S
C988 C989 1.404 1_545 S
C988 C991 1.539 . S
C989 C985 1.408 . S
C989 C988 1.404 1_565 S
C989 H1001 0.930 . S
C990 C986 1.524 . S
C990 H1002 0.956 . S
C990 H1003 0.969 . S
C990 H1004 0.961 . S
C991 C988 1.539 . S
C991 H1005 0.958 . S
C991 H1006 0.961 . S
C991 H1007 0.960 . S
H992 C976 0.931 . S
H993 C981 0.929 . S
H994 C982 0.960 . S
H995 C982 0.962 . S
H996 C982 0.960 . S
H997 C983 0.961 . S
H998 C983 0.961 . S
H999 C983 0.961 . S
H1000 C984 0.931 . S
H1001 C989 0.930 . S
H1002 C990 0.956 . S
H1003 C990 0.969 . S
H1004 C990 0.961 . S
H1005 C991 0.958 . S
H1006 C991 0.961 . S
H1007 C991 0.960 . S
C1008 C1009 1.391 . S
C1008 C1010 1.394 . S
C1008 H1024 0.931 . S
C1009 C1008 1.391 . S
C1009 C1013 1.376 . S
C1010 C1008 1.394 . S
C1010 C1011 1.369 . S
C1010 C1014 1.531 . S
C1011 C1010 1.369 . S
C1011 C1012 1.410 . S
C1011 C1019 1.503 . S
C1012 C1011 1.410 . S
C1012 C1013 1.392 . S
C1012 C1015 1.511 . S
C1013 C1009 1.376 . S
C1013 C1012 1.392 . S
C1013 H1025 0.929 . S
C1014 C1010 1.531 . S
C1014 H1026 0.960 . S
C1014 H1027 0.962 . S
C1014 H1028 0.960 . S
C1015 C1012 1.511 . S
C1015 H1029 0.961 . S
C1015 H1030 0.961 . S
C1015 H1031 0.961 . S
C1016 C1017 1.370 . S
C1016 C1018 1.363 . S
C1016 H1032 0.931 . S
C1017 C1016 1.370 . S
C1017 C1021 1.408 . S
C1018 C1016 1.363 . S
C1018 C1019 1.370 . S
C1018 C1022 1.524 . S
C1019 C1011 1.503 . S
C1019 C1018 1.370 . S
C1019 C1020 1.403 . S
C1020 C1019 1.403 . S
C1020 C1021 1.404 . S
C1020 C1023 1.539 . S
C1021 C1017 1.408 . S
C1021 C1020 1.404 . S
C1021 H1033 0.930 . S
C1022 C1018 1.524 . S
C1022 H1034 0.956 . S
C1022 H1035 0.961 . S
C1022 H1036 0.961 . S
C1023 C1020 1.539 . S
C1023 H1037 0.958 . S
C1023 H1038 0.961 . S
C1023 H1039 0.960 . S
H1024 C1008 0.931 . S
H1025 C1013 0.929 . S
H1026 C1014 0.960 . S
H1027 C1014 0.962 . S
H1028 C1014 0.960 . S
H1029 C1015 0.961 . S
H1030 C1015 0.961 . S
H1031 C1015 0.961 . S
H1032 C1016 0.931 . S
H1033 C1021 0.930 . S
H1034 C1022 0.956 . S
H1035 C1022 0.961 . S
H1036 C1022 0.961 . S
H1037 C1023 0.958 . S
H1038 C1023 0.961 . S
H1039 C1023 0.960 . S
C1040 C1041 1.391 . S
C1040 C1042 1.394 . S
C1040 H1056 0.931 . S
C1041 C1040 1.391 . S
C1041 C1045 1.376 . S
C1042 C1040 1.394 . S
C1042 C1043 1.369 . S
C1042 C1046 1.531 . S
C1043 C1042 1.369 . S
C1043 C1044 1.410 . S
C1043 C1051 1.503 1_565 S
C1044 C1043 1.410 . S
C1044 C1045 1.392 . S
C1044 C1047 1.511 . S
C1045 C1041 1.376 . S
C1045 C1044 1.392 . S
C1045 H1057 0.929 . S
C1046 C1042 1.531 . S
C1046 H1058 0.960 . S
C1046 H1059 0.962 . S
C1046 H1060 0.960 . S
C1047 C1044 1.511 . S
C1047 H1061 0.961 1_556 S
C1047 H1062 0.961 1_565 S
C1047 H1063 0.961 1_565 S
C1048 C1049 1.370 . S
C1048 C1050 1.363 . S
C1048 H1064 0.931 . S
C1049 C1048 1.370 . S
C1049 C1053 1.408 . S
C1050 C1048 1.363 . S
C1050 C1051 1.370 . S
C1050 C1054 1.524 1_545 S
C1051 C1043 1.503 1_545 S
C1051 C1050 1.370 . S
C1051 C1052 1.403 . S
C1052 C1051 1.403 . S
C1052 C1053 1.404 . S
C1052 C1055 1.539 . S
C1053 C1049 1.408 . S
C1053 C1052 1.404 . S
C1053 H1065 0.930 . S
C1054 C1050 1.524 1_565 S
C1054 H1066 0.956 . S
C1054 H1067 0.961 . S
C1054 H1068 0.961 . S
C1055 C1052 1.539 . S
C1055 H1069 0.958 . S
C1055 H1070 0.961 . S
C1055 H1071 0.960 . S
H1056 C1040 0.931 . S
H1057 C1045 0.929 . S
H1058 C1046 0.960 . S
H1059 C1046 0.962 . S
H1060 C1046 0.960 . S
H1061 C1047 0.961 1_554 S
H1062 C1047 0.961 1_545 S
H1063 C1047 0.961 1_545 S
H1064 C1048 0.931 . S
H1065 C1053 0.930 . S
H1066 C1054 0.956 . S
H1067 C1054 0.961 . S
H1068 C1054 0.961 . S
H1069 C1055 0.958 . S
H1070 C1055 0.961 . S
H1071 C1055 0.960 . S
C1072 C1073 1.391 . S
C1072 C1074 1.394 . S
C1072 H1088 0.931 . S
C1073 C1072 1.391 . S
C1073 C1077 1.376 . S
C1074 C1072 1.394 . S
C1074 C1075 1.369 . S
C1074 C1078 1.531 . S
C1075 C1074 1.369 . S
C1075 C1076 1.410 . S
C1075 C1083 1.503 . S
C1076 C1075 1.410 . S
C1076 C1077 1.392 . S
C1076 C1079 1.511 . S
C1077 C1073 1.376 . S
C1077 C1076 1.392 . S
C1077 H1089 0.929 . S
C1078 C1074 1.531 . S
C1078 H1090 0.960 . S
C1078 H1091 0.962 . S
C1078 H1092 0.960 . S
C1079 C1076 1.511 . S
C1079 H1093 0.961 . S
C1079 H1094 0.961 . S
C1079 H1095 0.961 . S
C1080 C1081 1.370 . S
C1080 C1082 1.363 . S
C1080 H1096 0.931 . S
C1081 C1080 1.370 . S
C1081 C1085 1.408 . S
C1082 C1080 1.363 . S
C1082 C1083 1.370 . S
C1082 C1086 1.524 . S
C1083 C1075 1.503 . S
C1083 C1082 1.370 . S
C1083 C1084 1.403 . S
C1084 C1083 1.403 . S
C1084 C1085 1.404 . S
C1084 C1087 1.539 . S
C1085 C1081 1.408 . S
C1085 C1084 1.404 . S
C1085 H1097 0.930 . S
C1086 C1082 1.524 . S
C1086 H1098 0.956 . S
C1086 H1099 0.961 . S
C1086 H1100 0.961 . S
C1087 C1084 1.539 . S
C1087 H1101 0.958 . S
C1087 H1102 0.961 . S
C1087 H1103 0.960 . S
H1088 C1072 0.931 . S
H1089 C1077 0.929 . S
H1090 C1078 0.960 . S
H1091 C1078 0.962 . S
H1092 C1078 0.960 . S
H1093 C1079 0.961 . S
H1094 C1079 0.961 . S
H1095 C1079 0.961 . S
H1096 C1080 0.931 . S
H1097 C1085 0.930 . S
H1098 C1086 0.956 . S
H1099 C1086 0.961 . S
H1100 C1086 0.961 . S
H1101 C1087 0.958 . S
H1102 C1087 0.961 . S
H1103 C1087 0.960 . S
C1104 C1105 1.391 . S
C1104 C1106 1.394 . S
C1104 H1120 0.931 . S
C1105 C1104 1.391 . S
C1105 C1109 1.376 . S
C1106 C1104 1.394 . S
C1106 C1107 1.369 . S
C1106 C1110 1.531 . S
C1107 C1106 1.369 . S
C1107 C1108 1.410 . S
C1107 C1115 1.503 . S
C1108 C1107 1.410 . S
C1108 C1109 1.392 . S
C1108 C1111 1.511 . S
C1109 C1105 1.376 . S
C1109 C1108 1.392 . S
C1109 H1121 0.929 . S
C1110 C1106 1.531 . S
C1110 H1122 0.960 . S
C1110 H1123 0.962 . S
C1110 H1124 0.960 . S
C1111 C1108 1.511 . S
C1111 H1125 0.961 . S
C1111 H1126 0.961 . S
C1111 H1127 0.961 . S
C1112 C1113 1.370 . S
C1112 C1114 1.363 . S
C1112 H1128 0.931 . S
C1113 C1112 1.370 . S
C1113 C1117 1.408 . S
C1114 C1112 1.363 . S
C1114 C1115 1.370 1_565 S
C1114 C1118 1.524 . S
C1115 C1107 1.503 . S
C1115 C1114 1.370 1_545 S
C1115 C1116 1.403 . S
C1116 C1115 1.403 . S
C1116 C1117 1.404 1_545 S
C1116 C1119 1.539 . S
C1117 C1113 1.408 . S
C1117 C1116 1.404 1_565 S
C1117 H1129 0.930 . S
C1118 C1114 1.524 . S
C1118 H1130 0.956 . S
C1118 H1131 0.961 . S
C1118 H1132 0.961 . S
C1119 C1116 1.539 . S
C1119 H1133 0.958 . S
C1119 H1134 0.961 . S
C1119 H1135 0.960 . S
H1120 C1104 0.931 . S
H1121 C1109 0.929 . S
H1122 C1110 0.960 . S
H1123 C1110 0.962 . S
H1124 C1110 0.960 . S
H1125 C1111 0.961 . S
H1126 C1111 0.961 . S
H1127 C1111 0.961 . S
H1128 C1112 0.931 . S
H1129 C1117 0.930 . S
H1130 C1118 0.956 . S
H1131 C1118 0.961 . S
H1132 C1118 0.961 . S
H1133 C1119 0.958 . S
H1134 C1119 0.961 . S
H1135 C1119 0.960 . S
C1136 C1137 1.391 . S
C1136 C1138 1.394 . S
C1136 H1152 0.931 . S
C1137 C1136 1.391 . S
C1137 C1141 1.376 . S
C1138 C1136 1.394 . S
C1138 C1139 1.369 . S
C1138 C1142 1.531 . S
C1139 C1138 1.369 . S
C1139 C1140 1.410 . S
C1139 C1147 1.503 . S
C1140 C1139 1.410 . S
C1140 C1141 1.392 . S
C1140 C1143 1.511 . S
C1141 C1137 1.376 . S
C1141 C1140 1.392 . S
C1141 H1153 0.929 . S
C1142 C1138 1.531 . S
C1142 H1154 0.960 . S
C1142 H1155 0.962 . S
C1142 H1156 0.960 . S
C1143 C1140 1.511 . S
C1143 H1157 0.961 . S
C1143 H1158 0.961 . S
C1143 H1159 0.961 . S
C1144 C1145 1.370 . S
C1144 C1146 1.363 . S
C1144 H1160 0.931 . S
C1145 C1144 1.370 . S
C1145 C1149 1.408 . S
C1146 C1144 1.363 . S
C1146 C1147 1.370 . S
C1146 C1150 1.524 . S
C1147 C1139 1.503 . S
C1147 C1146 1.370 . S
C1147 C1148 1.403 . S
C1148 C1147 1.403 . S
C1148 C1149 1.404 . S
C1148 C1151 1.539 . S
C1149 C1145 1.408 . S
C1149 C1148 1.404 . S
C1149 H1161 0.930 . S
C1150 C1146 1.524 . S
C1150 H1162 0.956 . S
C1150 H1163 0.961 . S
C1150 H1164 0.961 . S
C1151 C1148 1.539 . S
C1151 H1165 0.958 . S
C1151 H1166 0.961 . S
C1151 H1167 0.960 . S
H1152 C1136 0.931 . S
H1153 C1141 0.929 . S
H1154 C1142 0.960 . S
H1155 C1142 0.962 . S
H1156 C1142 0.960 . S
H1157 C1143 0.961 . S
H1158 C1143 0.961 . S
H1159 C1143 0.961 . S
H1160 C1144 0.931 . S
H1161 C1149 0.930 . S
H1162 C1150 0.956 . S
H1163 C1150 0.961 . S
H1164 C1150 0.961 . S
H1165 C1151 0.958 . S
H1166 C1151 0.961 . S
H1167 C1151 0.960 . S
C1168 C1169 1.391 . S
C1168 C1170 1.394 . S
C1168 H1184 0.931 . S
C1169 C1168 1.391 . S
C1169 C1173 1.376 . S
C1170 C1168 1.394 . S
C1170 C1171 1.369 . S
C1170 C1174 1.531 . S
C1171 C1170 1.369 . S
C1171 C1172 1.410 . S
C1171 C1179 1.503 1_565 S
C1172 C1171 1.410 . S
C1172 C1173 1.392 . S
C1172 C1175 1.511 1_565 S
C1173 C1169 1.376 . S
C1173 C1172 1.392 . S
C1173 H1185 0.929 . S
C1174 C1170 1.531 . S
C1174 H1186 0.960 . S
C1174 H1187 0.962 . S
C1174 H1188 0.960 . S
C1175 C1172 1.511 1_545 S
C1175 H1189 0.954 1_545 S
C1175 H1190 0.961 . S
C1175 H1191 0.961 . S
C1176 C1177 1.370 . S
C1176 C1178 1.363 . S
C1176 H1192 0.931 . S
C1177 C1176 1.370 . S
C1177 C1181 1.408 . S
C1178 C1176 1.363 . S
C1178 C1179 1.370 . S
C1178 C1182 1.524 1_545 S
C1179 C1171 1.503 1_545 S
C1179 C1178 1.370 . S
C1179 C1180 1.403 . S
C1180 C1179 1.403 . S
C1180 C1181 1.404 . S
C1180 C1183 1.539 . S
C1181 C1177 1.408 . S
C1181 C1180 1.404 . S
C1181 H1193 0.930 . S
C1182 C1178 1.524 1_565 S
C1182 H1194 0.956 . S
C1182 H1195 0.961 . S
C1182 H1196 0.961 . S
C1183 C1180 1.539 . S
C1183 H1197 0.958 . S
C1183 H1198 0.961 . S
C1183 H1199 0.960 . S
H1184 C1168 0.931 . S
H1185 C1173 0.929 . S
H1186 C1174 0.960 . S
H1187 C1174 0.962 . S
H1188 C1174 0.960 . S
H1189 C1175 0.954 1_565 S
H1190 C1175 0.961 . S
H1191 C1175 0.961 . S
H1192 C1176 0.931 . S
H1193 C1181 0.930 . S
H1194 C1182 0.956 . S
H1195 C1182 0.961 . S
H1196 C1182 0.961 . S
H1197 C1183 0.958 . S
H1198 C1183 0.961 . S
H1199 C1183 0.960 . S
C1200 C1201 1.391 . S
C1200 C1202 1.394 . S
C1200 H1216 0.931 . S
C1201 C1200 1.391 . S
C1201 C1205 1.376 . S
C1202 C1200 1.394 . S
C1202 C1203 1.369 . S
C1202 C1206 1.531 . S
C1203 C1202 1.369 . S
C1203 C1204 1.410 . S
C1203 C1211 1.503 . S
C1204 C1203 1.410 . S
C1204 C1205 1.392 . S
C1204 C1207 1.511 . S
C1205 C1201 1.376 . S
C1205 C1204 1.392 . S
C1205 H1217 0.929 . S
C1206 C1202 1.531 . S
C1206 H1218 0.960 . S
C1206 H1219 0.962 . S
C1206 H1220 0.960 . S
C1207 C1204 1.511 . S
C1207 H1221 0.961 . S
C1207 H1222 0.961 . S
C1207 H1223 0.961 . S
C1208 C1209 1.370 . S
C1208 C1210 1.363 . S
C1208 H1224 0.931 . S
C1209 C1208 1.370 . S
C1209 C1213 1.408 . S
C1210 C1208 1.363 . S
C1210 C1211 1.370 . S
C1210 C1214 1.524 . S
C1211 C1203 1.503 . S
C1211 C1210 1.370 . S
C1211 C1212 1.403 . S
C1212 C1211 1.403 . S
C1212 C1213 1.404 . S
C1212 C1215 1.539 . S
C1213 C1209 1.408 . S
C1213 C1212 1.404 . S
C1213 H1225 0.930 . S
C1214 C1210 1.524 . S
C1214 H1226 0.956 . S
C1214 H1227 0.961 . S
C1214 H1228 0.961 . S
C1215 C1212 1.539 . S
C1215 H1229 0.958 . S
C1215 H1230 0.961 . S
C1215 H1231 0.960 . S
H1216 C1200 0.931 . S
H1217 C1205 0.929 . S
H1218 C1206 0.960 . S
H1219 C1206 0.962 . S
H1220 C1206 0.960 . S
H1221 C1207 0.961 . S
H1222 C1207 0.961 . S
H1223 C1207 0.961 . S
H1224 C1208 0.931 . S
H1225 C1213 0.930 . S
H1226 C1214 0.956 . S
H1227 C1214 0.961 . S
H1228 C1214 0.961 . S
H1229 C1215 0.958 . S
H1230 C1215 0.961 . S
H1231 C1215 0.960 . S
C1232 C1233 1.391 . S
C1232 C1234 1.394 . S
C1232 H1248 0.931 . S
C1233 C1232 1.391 . S
C1233 C1237 1.376 . S
C1234 C1232 1.394 . S
C1234 C1235 1.369 . S
C1234 C1238 1.531 . S
C1235 C1234 1.369 . S
C1235 C1236 1.410 . S
C1235 C1243 1.503 . S
C1236 C1235 1.410 . S
C1236 C1237 1.392 . S
C1236 C1239 1.511 . S
C1237 C1233 1.376 . S
C1237 C1236 1.392 . S
C1237 H1249 0.929 . S
C1238 C1234 1.531 . S
C1238 H1250 0.960 . S
C1238 H1251 0.962 . S
C1238 H1252 0.960 . S
C1239 C1236 1.511 . S
C1239 H1253 0.961 . S
C1239 H1254 0.961 . S
C1239 H1255 0.961 . S
C1240 C1241 1.370 . S
C1240 C1242 1.363 . S
C1240 H1256 0.931 . S
C1241 C1240 1.370 . S
C1241 C1245 1.408 . S
C1242 C1240 1.363 . S
C1242 C1243 1.370 . S
C1242 C1246 1.524 . S
C1243 C1235 1.503 . S
C1243 C1242 1.370 . S
C1243 C1244 1.403 . S
C1244 C1243 1.403 . S
C1244 C1245 1.404 . S
C1244 C1247 1.539 . S
C1245 C1241 1.408 . S
C1245 C1244 1.404 . S
C1245 H1257 0.930 . S
C1246 C1242 1.524 . S
C1246 H1258 0.956 . S
C1246 H1259 0.961 . S
C1246 H1260 0.961 . S
C1247 C1244 1.539 . S
C1247 H1261 0.958 . S
C1247 H1262 0.961 . S
C1247 H1263 0.960 . S
H1248 C1232 0.931 . S
H1249 C1237 0.929 . S
H1250 C1238 0.960 . S
H1251 C1238 0.962 . S
H1252 C1238 0.960 . S
H1253 C1239 0.961 . S
H1254 C1239 0.961 . S
H1255 C1239 0.961 . S
H1256 C1240 0.931 . S
H1257 C1245 0.930 . S
H1258 C1246 0.956 . S
H1259 C1246 0.961 . S
H1260 C1246 0.961 . S
H1261 C1247 0.958 . S
H1262 C1247 0.961 . S
H1263 C1247 0.960 . S
C1264 C1265 1.391 . S
C1264 C1266 1.394 . S
C1264 H1280 0.931 . S
C1265 C1264 1.391 . S
C1265 C1269 1.376 . S
C1266 C1264 1.394 . S
C1266 C1267 1.369 . S
C1266 C1270 1.531 . S
C1267 C1266 1.369 . S
C1267 C1268 1.410 . S
C1267 C1275 1.503 . S
C1268 C1267 1.410 . S
C1268 C1269 1.392 . S
C1268 C1271 1.533 . S
C1269 C1265 1.376 . S
C1269 C1268 1.392 . S
C1269 H1281 0.929 . S
C1270 C1266 1.531 . S
C1270 H1282 0.960 . S
C1270 H1283 0.962 . S
C1270 H1284 0.960 . S
C1271 C1268 1.533 . S
C1271 H1285 0.965 . S
C1271 H1286 0.946 1_455 S
C1271 H1287 0.950 1_455 S
C1272 C1273 1.370 . S
C1272 C1274 1.377 . S
C1272 H1288 0.931 . S
C1273 C1272 1.370 . S
C1273 C1277 1.408 . S
C1274 C1272 1.377 . S
C1274 C1275 1.367 1_655 S
C1274 C1278 1.514 1_655 S
C1275 C1267 1.503 . S
C1275 C1274 1.367 1_455 S
C1275 C1276 1.403 1_455 S
C1276 C1275 1.403 1_655 S
C1276 C1277 1.404 . S
C1276 C1279 1.539 . S
C1277 C1273 1.408 . S
C1277 C1276 1.404 . S
C1277 H1289 0.930 . S
C1278 C1274 1.514 1_455 S
C1278 H1290 0.956 . S
C1278 H1291 0.961 . S
C1278 H1292 0.961 . S
C1279 C1276 1.539 . S
C1279 H1293 0.949 1_655 S
C1279 H1294 0.961 . S
C1279 H1295 0.959 1_655 S
H1280 C1264 0.931 . S
H1281 C1269 0.929 . S
H1282 C1270 0.960 . S
H1283 C1270 0.962 . S
H1284 C1270 0.960 . S
H1285 C1271 0.965 . S
H1286 C1271 0.946 1_655 S
H1287 C1271 0.950 1_655 S
H1288 C1272 0.931 . S
H1289 C1277 0.930 . S
H1290 C1278 0.956 . S
H1291 C1278 0.961 . S
H1292 C1278 0.961 . S
H1293 C1279 0.949 1_455 S
H1294 C1279 0.961 . S
H1295 C1279 0.959 1_455 S
C1296 C1297 1.391 . S
C1296 C1298 1.394 . S
C1296 H1312 0.931 . S
C1297 C1296 1.391 . S
C1297 C1301 1.376 . S
C1298 C1296 1.394 . S
C1298 C1299 1.369 . S
C1298 C1302 1.531 . S
C1299 C1298 1.369 . S
C1299 C1300 1.410 . S
C1299 C1307 1.503 . S
C1300 C1299 1.410 . S
C1300 C1301 1.392 . S
C1300 C1303 1.511 . S
C1301 C1297 1.376 . S
C1301 C1300 1.392 . S
C1301 H1313 0.929 . S
C1302 C1298 1.531 . S
C1302 H1314 0.960 . S
C1302 H1315 0.962 . S
C1302 H1316 0.960 . S
C1303 C1300 1.511 . S
C1303 H1317 0.961 . S
C1303 H1318 0.961 . S
C1303 H1319 0.961 . S
C1304 C1305 1.370 . S
C1304 C1306 1.363 . S
C1304 H1320 0.931 . S
C1305 C1304 1.370 . S
C1305 C1309 1.408 . S
C1306 C1304 1.363 . S
C1306 C1307 1.370 . S
C1306 C1310 1.524 . S
C1307 C1299 1.503 . S
C1307 C1306 1.370 . S
C1307 C1308 1.403 . S
C1308 C1307 1.403 . S
C1308 C1309 1.404 . S
C1308 C1311 1.539 . S
C1309 C1305 1.408 . S
C1309 C1308 1.404 . S
C1309 H1321 0.930 . S
C1310 C1306 1.524 . S
C1310 H1322 0.956 . S
C1310 H1323 0.961 . S
C1310 H1324 0.961 . S
C1311 C1308 1.539 . S
C1311 H1325 0.958 . S
C1311 H1326 0.961 . S
C1311 H1327 0.960 . S
H1312 C1296 0.931 . S
H1313 C1301 0.929 . S
H1314 C1302 0.960 . S
H1315 C1302 0.962 . S
H1316 C1302 0.960 . S
H1317 C1303 0.961 . S
H1318 C1303 0.961 . S
H1319 C1303 0.961 . S
H1320 C1304 0.931 . S
H1321 C1309 0.930 . S
H1322 C1310 0.956 . S
H1323 C1310 0.961 . S
H1324 C1310 0.961 . S
H1325 C1311 0.958 . S
H1326 C1311 0.961 . S
H1327 C1311 0.960 . S
C1328 C1329 1.391 . S
C1328 C1330 1.394 . S
C1328 H1344 0.931 . S
C1329 C1328 1.391 . S
C1329 C1333 1.376 . S
C1330 C1328 1.394 . S
C1330 C1331 1.369 . S
C1330 C1334 1.531 . S
C1331 C1330 1.369 . S
C1331 C1332 1.410 . S
C1331 C1339 1.524 . S
C1332 C1331 1.410 . S
C1332 C1333 1.392 . S
C1332 C1335 1.511 . S
C1333 C1329 1.376 . S
C1333 C1332 1.392 . S
C1333 H1345 0.929 . S
C1334 C1330 1.531 . S
C1334 H1346 0.960 . S
C1334 H1347 0.962 . S
C1334 H1348 0.960 . S
C1335 C1332 1.511 . S
C1335 H1349 0.961 . S
C1335 H1350 0.961 1_655 S
C1335 H1351 0.961 . S
C1336 C1337 1.370 . S
C1336 C1338 1.363 . S
C1336 H1352 0.931 . S
C1337 C1336 1.370 . S
C1337 C1341 1.408 . S
C1338 C1336 1.363 . S
C1338 C1339 1.352 1_455 S
C1338 C1342 1.524 . S
C1339 C1331 1.524 . S
C1339 C1338 1.352 1_655 S
C1339 C1340 1.401 1_655 S
C1340 C1339 1.401 1_455 S
C1340 C1341 1.404 . S
C1340 C1343 1.539 1_455 S
C1341 C1337 1.408 . S
C1341 C1340 1.404 . S
C1341 H1353 0.930 . S
C1342 C1338 1.524 . S
C1342 H1354 0.956 . S
C1342 H1355 0.961 . S
C1342 H1356 0.961 . S
C1343 C1340 1.539 1_655 S
C1343 H1357 0.958 . S
C1343 H1358 0.961 . S
C1343 H1359 0.960 . S
H1344 C1328 0.931 . S
H1345 C1333 0.929 . S
H1346 C1334 0.960 . S
H1347 C1334 0.962 . S
H1348 C1334 0.960 . S
H1349 C1335 0.961 . S
H1350 C1335 0.961 1_455 S
H1351 C1335 0.961 . S
H1352 C1336 0.931 . S
H1353 C1341 0.930 . S
H1354 C1342 0.956 . S
H1355 C1342 0.961 . S
H1356 C1342 0.961 . S
H1357 C1343 0.958 . S
H1358 C1343 0.961 . S
H1359 C1343 0.960 . S
C1360 C1361 1.391 . S
C1360 C1362 1.394 . S
C1360 H1376 0.931 . S
C1361 C1360 1.391 . S
C1361 C1365 1.376 . S
C1362 C1360 1.394 . S
C1362 C1363 1.369 . S
C1362 C1366 1.531 . S
C1363 C1362 1.369 . S
C1363 C1364 1.410 . S
C1363 C1371 1.503 . S
C1364 C1363 1.410 . S
C1364 C1365 1.392 . S
C1364 C1367 1.511 . S
C1365 C1361 1.376 . S
C1365 C1364 1.392 . S
C1365 H1377 0.929 . S
C1366 C1362 1.531 . S
C1366 H1378 0.960 . S
C1366 H1379 0.962 . S
C1366 H1380 0.960 . S
C1367 C1364 1.511 . S
C1367 H1381 0.961 . S
C1367 H1382 0.961 . S
C1367 H1383 0.961 . S
C1368 C1369 1.370 . S
C1368 C1370 1.363 . S
C1368 H1384 0.931 . S
C1369 C1368 1.370 . S
C1369 C1373 1.408 . S
C1370 C1368 1.363 . S
C1370 C1371 1.370 . S
C1370 C1374 1.524 . S
C1371 C1363 1.503 . S
C1371 C1370 1.370 . S
C1371 C1372 1.403 . S
C1372 C1371 1.403 . S
C1372 C1373 1.404 . S
C1372 C1375 1.539 . S
C1373 C1369 1.408 . S
C1373 C1372 1.404 . S
C1373 H1385 0.930 . S
C1374 C1370 1.524 . S
C1374 H1386 0.956 . S
C1374 H1387 0.961 . S
C1374 H1388 0.961 . S
C1375 C1372 1.539 . S
C1375 H1389 0.958 . S
C1375 H1390 0.961 . S
C1375 H1391 0.960 . S
H1376 C1360 0.931 . S
H1377 C1365 0.929 . S
H1378 C1366 0.960 . S
H1379 C1366 0.962 . S
H1380 C1366 0.960 . S
H1381 C1367 0.961 . S
H1382 C1367 0.961 . S
H1383 C1367 0.961 . S
H1384 C1368 0.931 . S
H1385 C1373 0.930 . S
H1386 C1374 0.956 . S
H1387 C1374 0.961 . S
H1388 C1374 0.961 . S
H1389 C1375 0.958 . S
H1390 C1375 0.961 . S
H1391 C1375 0.960 . S
C1392 C1393 1.391 . S
C1392 C1394 1.394 . S
C1392 H1408 0.931 . S
C1393 C1392 1.391 . S
C1393 C1397 1.376 . S
C1394 C1392 1.394 . S
C1394 C1395 1.369 . S
C1394 C1398 1.531 1_455 S
C1395 C1394 1.369 . S
C1395 C1396 1.410 . S
C1395 C1403 1.503 . S
C1396 C1395 1.410 . S
C1396 C1397 1.392 . S
C1396 C1399 1.511 . S
C1397 C1393 1.376 . S
C1397 C1396 1.392 . S
C1397 H1409 0.929 . S
C1398 C1394 1.531 1_655 S
C1398 H1410 0.960 . S
C1398 H1411 0.962 . S
C1398 H1412 0.960 . S
C1399 C1396 1.511 . S
C1399 H1413 0.961 . S
C1399 H1414 0.961 . S
C1399 H1415 0.961 . S
C1400 C1401 1.370 . S
C1400 C1402 1.363 . S
C1400 H1416 0.931 . S
C1401 C1400 1.370 . S
C1401 C1405 1.408 . S
C1402 C1400 1.363 . S
C1402 C1403 1.370 1_655 S
C1402 C1406 1.529 . S
C1403 C1395 1.503 . S
C1403 C1402 1.370 1_455 S
C1403 C1404 1.403 1_455 S
C1404 C1403 1.403 1_655 S
C1404 C1405 1.404 . S
C1404 C1407 1.539 1_655 S
C1405 C1401 1.408 . S
C1405 C1404 1.404 . S
C1405 H1417 0.930 . S
C1406 C1402 1.529 . S
C1406 H1418 0.957 . S
C1406 H1419 0.948 1_655 S
C1406 H1420 0.968 . S
C1407 C1404 1.539 1_455 S
C1407 H1421 0.958 1_455 S
C1407 H1422 0.961 . S
C1407 H1423 0.960 . S
H1408 C1392 0.931 . S
H1409 C1397 0.929 . S
H1410 C1398 0.960 . S
H1411 C1398 0.962 . S
H1412 C1398 0.960 . S
H1413 C1399 0.961 . S
H1414 C1399 0.961 . S
H1415 C1399 0.961 . S
H1416 C1400 0.931 . S
H1417 C1405 0.930 . S
H1418 C1406 0.957 . S
H1419 C1406 0.948 1_455 S
H1420 C1406 0.968 . S
H1421 C1407 0.958 1_655 S
H1422 C1407 0.961 . S
H1423 C1407 0.960 . S
C1424 C1425 1.391 . S
C1424 C1426 1.394 . S
C1424 H1440 0.931 . S
C1425 C1424 1.391 . S
C1425 C1429 1.376 . S
C1426 C1424 1.394 . S
C1426 C1427 1.369 . S
C1426 C1430 1.531 . S
C1427 C1426 1.369 . S
C1427 C1428 1.410 . S
C1427 C1435 1.503 . S
C1428 C1427 1.410 . S
C1428 C1429 1.392 . S
C1428 C1431 1.511 . S
C1429 C1425 1.376 . S
C1429 C1428 1.392 . S
C1429 H1441 0.929 . S
C1430 C1426 1.531 . S
C1430 H1442 0.960 . S
C1430 H1443 0.962 . S
C1430 H1444 0.960 . S
C1431 C1428 1.511 . S
C1431 H1445 0.961 . S
C1431 H1446 0.961 . S
C1431 H1447 0.961 . S
C1432 C1433 1.370 . S
C1432 C1434 1.363 . S
C1432 H1448 0.931 . S
C1433 C1432 1.370 . S
C1433 C1437 1.408 . S
C1434 C1432 1.363 . S
C1434 C1435 1.370 . S
C1434 C1438 1.524 . S
C1435 C1427 1.503 . S
C1435 C1434 1.370 . S
C1435 C1436 1.403 . S
C1436 C1435 1.403 . S
C1436 C1437 1.404 . S
C1436 C1439 1.539 . S
C1437 C1433 1.408 . S
C1437 C1436 1.404 . S
C1437 H1449 0.930 . S
C1438 C1434 1.524 . S
C1438 H1450 0.956 . S
C1438 H1451 0.961 . S
C1438 H1452 0.961 . S
C1439 C1436 1.539 . S
C1439 H1453 0.958 . S
C1439 H1454 0.961 . S
C1439 H1455 0.960 . S
H1440 C1424 0.931 . S
H1441 C1429 0.929 . S
H1442 C1430 0.960 . S
H1443 C1430 0.962 . S
H1444 C1430 0.960 . S
H1445 C1431 0.961 . S
H1446 C1431 0.961 . S
H1447 C1431 0.961 . S
H1448 C1432 0.931 . S
H1449 C1437 0.930 . S
H1450 C1438 0.956 . S
H1451 C1438 0.961 . S
H1452 C1438 0.961 . S
H1453 C1439 0.958 . S
H1454 C1439 0.961 . S
H1455 C1439 0.960 . S
C1456 C1457 1.391 . S
C1456 C1458 1.394 . S
C1456 H1472 0.931 . S
C1457 C1456 1.391 . S
C1457 C1461 1.376 . S
C1458 C1456 1.394 . S
C1458 C1459 1.369 . S
C1458 C1462 1.531 . S
C1459 C1458 1.369 . S
C1459 C1460 1.410 . S
C1459 C1467 1.503 . S
C1460 C1459 1.410 . S
C1460 C1461 1.392 . S
C1460 C1463 1.511 . S
C1461 C1457 1.376 . S
C1461 C1460 1.392 . S
C1461 H1473 0.929 . S
C1462 C1458 1.531 . S
C1462 H1474 0.960 . S
C1462 H1475 0.962 . S
C1462 H1476 0.960 . S
C1463 C1460 1.511 . S
C1463 H1477 0.961 . S
C1463 H1478 0.961 . S
C1463 H1479 0.961 . S
C1464 C1465 1.370 . S
C1464 C1466 1.363 . S
C1464 H1480 0.931 . S
C1465 C1464 1.370 . S
C1465 C1469 1.408 . S
C1466 C1464 1.363 . S
C1466 C1467 1.370 . S
C1466 C1470 1.524 . S
C1467 C1459 1.503 . S
C1467 C1466 1.370 . S
C1467 C1468 1.403 . S
C1468 C1467 1.403 . S
C1468 C1469 1.404 . S
C1468 C1471 1.539 . S
C1469 C1465 1.408 . S
C1469 C1468 1.404 . S
C1469 H1481 0.930 . S
C1470 C1466 1.524 . S
C1470 H1482 0.956 . S
C1470 H1483 0.961 . S
C1470 H1484 0.961 . S
C1471 C1468 1.539 . S
C1471 H1485 0.958 . S
C1471 H1486 0.961 . S
C1471 H1487 0.960 . S
H1472 C1456 0.931 . S
H1473 C1461 0.929 . S
H1474 C1462 0.960 . S
H1475 C1462 0.962 . S
H1476 C1462 0.960 . S
H1477 C1463 0.961 . S
H1478 C1463 0.961 . S
H1479 C1463 0.961 . S
H1480 C1464 0.931 . S
H1481 C1469 0.930 . S
H1482 C1470 0.956 . S
H1483 C1470 0.961 . S
H1484 C1470 0.961 . S
H1485 C1471 0.958 . S
H1486 C1471 0.961 . S
H1487 C1471 0.960 . S
C1488 C1489 1.391 . S
C1488 C1490 1.394 . S
C1488 H1504 0.931 . S
C1489 C1488 1.391 . S
C1489 C1493 1.376 . S
C1490 C1488 1.394 . S
C1490 C1491 1.369 . S
C1490 C1494 1.531 . S
C1491 C1490 1.369 . S
C1491 C1492 1.410 . S
C1491 C1499 1.503 . S
C1492 C1491 1.410 . S
C1492 C1493 1.392 . S
C1492 C1495 1.511 . S
C1493 C1489 1.376 . S
C1493 C1492 1.392 . S
C1493 H1505 0.929 . S
C1494 C1490 1.531 . S
C1494 H1506 0.960 . S
C1494 H1507 0.962 . S
C1494 H1508 0.960 . S
C1495 C1492 1.511 . S
C1495 H1509 0.961 . S
C1495 H1510 0.961 . S
C1495 H1511 0.961 . S
C1496 C1497 1.370 . S
C1496 C1498 1.363 . S
C1496 H1512 0.931 . S
C1497 C1496 1.370 . S
C1497 C1501 1.408 . S
C1498 C1496 1.363 . S
C1498 C1499 1.370 . S
C1498 C1502 1.524 . S
C1499 C1491 1.503 . S
C1499 C1498 1.370 . S
C1499 C1500 1.403 . S
C1500 C1499 1.403 . S
C1500 C1501 1.404 . S
C1500 C1503 1.539 . S
C1501 C1497 1.408 . S
C1501 C1500 1.404 . S
C1501 H1513 0.930 . S
C1502 C1498 1.524 . S
C1502 H1514 0.956 . S
C1502 H1515 0.961 . S
C1502 H1516 0.961 . S
C1503 C1500 1.539 . S
C1503 H1517 0.958 . S
C1503 H1518 0.961 . S
C1503 H1519 0.960 . S
H1504 C1488 0.931 . S
H1505 C1493 0.929 . S
H1506 C1494 0.960 . S
H1507 C1494 0.962 . S
H1508 C1494 0.960 . S
H1509 C1495 0.961 . S
H1510 C1495 0.961 . S
H1511 C1495 0.961 . S
H1512 C1496 0.931 . S
H1513 C1501 0.930 . S
H1514 C1502 0.956 . S
H1515 C1502 0.961 . S
H1516 C1502 0.961 . S
H1517 C1503 0.958 . S
H1518 C1503 0.961 . S
H1519 C1503 0.960 . S
C1520 C1521 1.391 . S
C1520 C1522 1.394 . S
C1520 H1536 0.931 . S
C1521 C1520 1.391 . S
C1521 C1525 1.376 . S
C1522 C1520 1.394 . S
C1522 C1523 1.369 . S
C1522 C1526 1.531 . S
C1523 C1522 1.369 . S
C1523 C1524 1.410 . S
C1523 C1531 1.503 . S
C1524 C1523 1.410 . S
C1524 C1525 1.392 . S
C1524 C1527 1.511 . S
C1525 C1521 1.376 . S
C1525 C1524 1.392 . S
C1525 H1537 0.929 . S
C1526 C1522 1.531 . S
C1526 H1538 0.960 . S
C1526 H1539 0.962 . S
C1526 H1540 0.960 . S
C1527 C1524 1.511 . S
C1527 H1541 0.961 . S
C1527 H1542 0.961 . S
C1527 H1543 0.961 . S
C1528 C1529 1.370 . S
C1528 C1530 1.363 . S
C1528 H1544 0.931 . S
C1529 C1528 1.370 . S
C1529 C1533 1.408 . S
C1530 C1528 1.363 . S
C1530 C1531 1.370 . S
C1530 C1534 1.524 . S
C1531 C1523 1.503 . S
C1531 C1530 1.370 . S
C1531 C1532 1.403 . S
C1532 C1531 1.403 . S
C1532 C1533 1.404 . S
C1532 C1535 1.539 . S
C1533 C1529 1.408 . S
C1533 C1532 1.404 . S
C1533 H1545 0.930 . S
C1534 C1530 1.524 . S
C1534 H1546 0.956 . S
C1534 H1547 0.961 . S
C1534 H1548 0.961 . S
C1535 C1532 1.539 . S
C1535 H1549 0.958 . S
C1535 H1550 0.961 . S
C1535 H1551 0.960 . S
H1536 C1520 0.931 . S
H1537 C1525 0.929 . S
H1538 C1526 0.960 . S
H1539 C1526 0.962 . S
H1540 C1526 0.960 . S
H1541 C1527 0.961 . S
H1542 C1527 0.961 . S
H1543 C1527 0.961 . S
H1544 C1528 0.931 . S
H1545 C1533 0.930 . S
H1546 C1534 0.956 . S
H1547 C1534 0.961 . S
H1548 C1534 0.961 . S
H1549 C1535 0.958 . S
H1550 C1535 0.961 . S
H1551 C1535 0.960 . S
C1552 C1553 1.391 . S
C1552 C1554 1.394 . S
C1552 H1568 0.931 . S
C1553 C1552 1.391 . S
C1553 C1557 1.376 . S
C1554 C1552 1.394 . S
C1554 C1555 1.369 . S
C1554 C1558 1.531 1_556 S
C1555 C1554 1.369 . S
C1555 C1556 1.410 . S
C1555 C1563 1.503 1_556 S
C1556 C1555 1.410 . S
C1556 C1557 1.392 . S
C1556 C1559 1.511 . S
C1557 C1553 1.376 . S
C1557 C1556 1.392 . S
C1557 H1569 0.929 . S
C1558 C1554 1.531 1_554 S
C1558 H1570 0.960 . S
C1558 H1571 0.962 . S
C1558 H1572 0.960 . S
C1559 C1556 1.511 . S
C1559 H1573 0.961 . S
C1559 H1574 0.961 . S
C1559 H1575 0.961 . S
C1560 C1561 1.370 . S
C1560 C1562 1.363 . S
C1560 H1576 0.931 . S
C1561 C1560 1.370 . S
C1561 C1565 1.408 . S
C1562 C1560 1.363 . S
C1562 C1563 1.370 . S
C1562 C1566 1.524 . S
C1563 C1555 1.503 1_554 S
C1563 C1562 1.370 . S
C1563 C1564 1.403 . S
C1564 C1563 1.403 . S
C1564 C1565 1.404 . S
C1564 C1567 1.539 . S
C1565 C1561 1.408 . S
C1565 C1564 1.404 . S
C1565 H1577 0.930 . S
C1566 C1562 1.524 . S
C1566 H1578 0.956 . S
C1566 H1579 0.961 1_554 S
C1566 H1580 0.961 . S
C1567 C1564 1.539 . S
C1567 H1581 0.958 . S
C1567 H1582 0.961 . S
C1567 H1583 0.960 1_554 S
H1568 C1552 0.931 . S
H1569 C1557 0.929 . S
H1570 C1558 0.960 . S
H1571 C1558 0.962 . S
H1572 C1558 0.960 . S
H1573 C1559 0.961 . S
H1574 C1559 0.961 . S
H1575 C1559 0.961 . S
H1576 C1560 0.931 . S
H1577 C1565 0.930 . S
H1578 C1566 0.956 . S
H1579 C1566 0.961 1_556 S
H1580 C1566 0.961 . S
H1581 C1567 0.958 . S
H1582 C1567 0.961 . S
H1583 C1567 0.960 1_556 S
C1584 C1585 1.391 . S
C1584 C1586 1.394 . S
C1584 H1600 0.931 . S
C1585 C1584 1.391 . S
C1585 C1589 1.376 . S
C1586 C1584 1.394 . S
C1586 C1587 1.369 . S
C1586 C1590 1.531 . S
C1587 C1586 1.369 . S
C1587 C1588 1.410 . S
C1587 C1595 1.503 . S
C1588 C1587 1.410 . S
C1588 C1589 1.392 . S
C1588 C1591 1.511 . S
C1589 C1585 1.376 . S
C1589 C1588 1.392 . S
C1589 H1601 0.929 . S
C1590 C1586 1.531 . S
C1590 H1602 0.960 . S
C1590 H1603 0.962 . S
C1590 H1604 0.960 . S
C1591 C1588 1.511 . S
C1591 H1605 0.961 . S
C1591 H1606 0.961 . S
C1591 H1607 0.961 . S
C1592 C1593 1.370 . S
C1592 C1594 1.363 . S
C1592 H1608 0.931 . S
C1593 C1592 1.370 . S
C1593 C1597 1.408 . S
C1594 C1592 1.363 . S
C1594 C1595 1.370 . S
C1594 C1598 1.524 . S
C1595 C1587 1.503 . S
C1595 C1594 1.370 . S
C1595 C1596 1.403 . S
C1596 C1595 1.403 . S
C1596 C1597 1.404 . S
C1596 C1599 1.539 . S
C1597 C1593 1.408 . S
C1597 C1596 1.404 . S
C1597 H1609 0.930 . S
C1598 C1594 1.524 . S
C1598 H1610 0.956 . S
C1598 H1611 0.961 . S
C1598 H1612 0.961 . S
C1599 C1596 1.539 . S
C1599 H1613 0.958 . S
C1599 H1614 0.961 . S
C1599 H1615 0.960 . S
H1600 C1584 0.931 . S
H1601 C1589 0.929 . S
H1602 C1590 0.960 . S
H1603 C1590 0.962 . S
H1604 C1590 0.960 . S
H1605 C1591 0.961 . S
H1606 C1591 0.961 . S
H1607 C1591 0.961 . S
H1608 C1592 0.931 . S
H1609 C1597 0.930 . S
H1610 C1598 0.956 . S
H1611 C1598 0.961 . S
H1612 C1598 0.961 . S
H1613 C1599 0.958 . S
H1614 C1599 0.961 . S
H1615 C1599 0.960 . S
C1616 C1617 1.391 . S
C1616 C1618 1.394 . S
C1616 H1632 0.931 . S
C1617 C1616 1.391 . S
C1617 C1621 1.376 . S
C1618 C1616 1.394 . S
C1618 C1619 1.369 . S
C1618 C1622 1.531 . S
C1619 C1618 1.369 . S
C1619 C1620 1.410 . S
C1619 C1627 1.503 . S
C1620 C1619 1.410 . S
C1620 C1621 1.392 . S
C1620 C1623 1.511 . S
C1621 C1617 1.376 . S
C1621 C1620 1.392 . S
C1621 H1633 0.929 . S
C1622 C1618 1.531 . S
C1622 H1634 0.960 . S
C1622 H1635 0.962 . S
C1622 H1636 0.960 . S
C1623 C1620 1.511 . S
C1623 H1637 0.961 . S
C1623 H1638 0.961 . S
C1623 H1639 0.961 . S
C1624 C1625 1.370 . S
C1624 C1626 1.363 . S
C1624 H1640 0.931 . S
C1625 C1624 1.370 . S
C1625 C1629 1.408 . S
C1626 C1624 1.363 . S
C1626 C1627 1.370 . S
C1626 C1630 1.524 . S
C1627 C1619 1.503 . S
C1627 C1626 1.370 . S
C1627 C1628 1.403 . S
C1628 C1627 1.403 . S
C1628 C1629 1.404 . S
C1628 C1631 1.539 . S
C1629 C1625 1.408 . S
C1629 C1628 1.404 . S
C1629 H1641 0.930 . S
C1630 C1626 1.524 . S
C1630 H1642 0.956 . S
C1630 H1643 0.961 . S
C1630 H1644 0.961 . S
C1631 C1628 1.539 . S
C1631 H1645 0.958 . S
C1631 H1646 0.961 . S
C1631 H1647 0.960 . S
H1632 C1616 0.931 . S
H1633 C1621 0.929 . S
H1634 C1622 0.960 . S
H1635 C1622 0.962 . S
H1636 C1622 0.960 . S
H1637 C1623 0.961 . S
H1638 C1623 0.961 . S
H1639 C1623 0.961 . S
H1640 C1624 0.931 . S
H1641 C1629 0.930 . S
H1642 C1630 0.956 . S
H1643 C1630 0.961 . S
H1644 C1630 0.961 . S
H1645 C1631 0.958 . S
H1646 C1631 0.961 . S
H1647 C1631 0.960 . S
C1648 C1649 1.391 . S
C1648 C1650 1.394 . S
C1648 H1664 0.931 . S
C1649 C1648 1.391 . S
C1649 C1653 1.376 . S
C1650 C1648 1.394 . S
C1650 C1651 1.369 . S
C1650 C1654 1.531 . S
C1651 C1650 1.369 . S
C1651 C1652 1.410 . S
C1651 C1659 1.503 . S
C1652 C1651 1.410 . S
C1652 C1653 1.392 . S
C1652 C1655 1.511 . S
C1653 C1649 1.376 . S
C1653 C1652 1.392 . S
C1653 H1665 0.929 . S
C1654 C1650 1.531 . S
C1654 H1666 0.960 . S
C1654 H1667 0.962 . S
C1654 H1668 0.960 . S
C1655 C1652 1.511 . S
C1655 H1669 0.961 . S
C1655 H1670 0.961 . S
C1655 H1671 0.961 . S
C1656 C1657 1.370 . S
C1656 C1658 1.363 . S
C1656 H1672 0.931 . S
C1657 C1656 1.370 . S
C1657 C1661 1.408 . S
C1658 C1656 1.363 . S
C1658 C1659 1.370 . S
C1658 C1662 1.524 . S
C1659 C1651 1.503 . S
C1659 C1658 1.370 . S
C1659 C1660 1.403 . S
C1660 C1659 1.403 . S
C1660 C1661 1.404 . S
C1660 C1663 1.539 . S
C1661 C1657 1.408 . S
C1661 C1660 1.404 . S
C1661 H1673 0.930 . S
C1662 C1658 1.524 . S
C1662 H1674 0.956 . S
C1662 H1675 0.961 . S
C1662 H1676 0.961 . S
C1663 C1660 1.539 . S
C1663 H1677 0.958 . S
C1663 H1678 0.961 . S
C1663 H1679 0.960 . S
H1664 C1648 0.931 . S
H1665 C1653 0.929 . S
H1666 C1654 0.960 . S
H1667 C1654 0.962 . S
H1668 C1654 0.960 . S
H1669 C1655 0.961 . S
H1670 C1655 0.961 . S
H1671 C1655 0.961 . S
H1672 C1656 0.931 . S
H1673 C1661 0.930 . S
H1674 C1662 0.956 . S
H1675 C1662 0.961 . S
H1676 C1662 0.961 . S
H1677 C1663 0.958 . S
H1678 C1663 0.961 . S
H1679 C1663 0.960 . S
C1680 C1681 1.391 . S
C1680 C1682 1.394 . S
C1680 H1696 0.931 . S
C1681 C1680 1.391 . S
C1681 C1685 1.376 . S
C1682 C1680 1.394 . S
C1682 C1683 1.369 . S
C1682 C1686 1.531 . S
C1683 C1682 1.369 . S
C1683 C1684 1.410 . S
C1683 C1691 1.503 . S
C1684 C1683 1.410 . S
C1684 C1685 1.392 . S
C1684 C1687 1.511 . S
C1685 C1681 1.376 . S
C1685 C1684 1.392 . S
C1685 H1697 0.929 . S
C1686 C1682 1.531 . S
C1686 H1698 0.960 1_554 S
C1686 H1699 0.962 1_554 S
C1686 H1700 0.960 . S
C1687 C1684 1.511 . S
C1687 H1701 0.961 . S
C1687 H1702 0.961 . S
C1687 H1703 0.961 . S
C1688 C1689 1.370 . S
C1688 C1690 1.363 . S
C1688 H1704 0.931 . S
C1689 C1688 1.370 . S
C1689 C1693 1.408 . S
C1690 C1688 1.363 . S
C1690 C1691 1.370 1_556 S
C1690 C1694 1.524 1_556 S
C1691 C1683 1.503 . S
C1691 C1690 1.370 1_554 S
C1691 C1692 1.403 1_554 S
C1692 C1691 1.403 1_556 S
C1692 C1693 1.404 . S
C1692 C1695 1.539 1_556 S
C1693 C1689 1.408 . S
C1693 C1692 1.404 . S
C1693 H1705 0.930 . S
C1694 C1690 1.524 1_554 S
C1694 H1706 0.956 . S
C1694 H1707 0.961 . S
C1694 H1708 0.961 . S
C1695 C1692 1.539 1_554 S
C1695 H1709 0.958 1_554 S
C1695 H1710 0.967 . S
C1695 H1711 0.960 . S
H1696 C1680 0.931 . S
H1697 C1685 0.929 . S
H1698 C1686 0.960 1_556 S
H1699 C1686 0.962 1_556 S
H1700 C1686 0.960 . S
H1701 C1687 0.961 . S
H1702 C1687 0.961 . S
H1703 C1687 0.961 . S
H1704 C1688 0.931 . S
H1705 C1693 0.930 . S
H1706 C1694 0.956 . S
H1707 C1694 0.961 . S
H1708 C1694 0.961 . S
H1709 C1695 0.958 1_556 S
H1710 C1695 0.967 . S
H1711 C1695 0.960 . S
C1712 C1713 1.391 . S
C1712 C1714 1.394 . S
C1712 H1728 0.931 . S
C1713 C1712 1.391 . S
C1713 C1717 1.376 . S
C1714 C1712 1.394 . S
C1714 C1715 1.369 . S
C1714 C1718 1.531 . S
C1715 C1714 1.369 . S
C1715 C1716 1.410 . S
C1715 C1723 1.503 . S
C1716 C1715 1.410 . S
C1716 C1717 1.392 . S
C1716 C1719 1.511 . S
C1717 C1713 1.376 . S
C1717 C1716 1.392 . S
C1717 H1729 0.929 . S
C1718 C1714 1.531 . S
C1718 H1730 0.960 . S
C1718 H1731 0.962 . S
C1718 H1732 0.960 . S
C1719 C1716 1.511 . S
C1719 H1733 0.961 . S
C1719 H1734 0.961 . S
C1719 H1735 0.961 . S
C1720 C1721 1.370 . S
C1720 C1722 1.363 . S
C1720 H1736 0.931 . S
C1721 C1720 1.370 . S
C1721 C1725 1.408 . S
C1722 C1720 1.363 . S
C1722 C1723 1.370 . S
C1722 C1726 1.524 . S
C1723 C1715 1.503 . S
C1723 C1722 1.370 . S
C1723 C1724 1.403 . S
C1724 C1723 1.403 . S
C1724 C1725 1.404 . S
C1724 C1727 1.539 . S
C1725 C1721 1.408 . S
C1725 C1724 1.404 . S
C1725 H1737 0.930 . S
C1726 C1722 1.524 . S
C1726 H1738 0.956 . S
C1726 H1739 0.961 . S
C1726 H1740 0.961 . S
C1727 C1724 1.539 . S
C1727 H1741 0.958 . S
C1727 H1742 0.961 . S
C1727 H1743 0.960 . S
H1728 C1712 0.931 . S
H1729 C1717 0.929 . S
H1730 C1718 0.960 . S
H1731 C1718 0.962 . S
H1732 C1718 0.960 . S
H1733 C1719 0.961 . S
H1734 C1719 0.961 . S
H1735 C1719 0.961 . S
H1736 C1720 0.931 . S
H1737 C1725 0.930 . S
H1738 C1726 0.956 . S
H1739 C1726 0.961 . S
H1740 C1726 0.961 . S
H1741 C1727 0.958 . S
H1742 C1727 0.961 . S
H1743 C1727 0.960 . S
C1744 C1745 1.391 . S
C1744 C1746 1.394 . S
C1744 H1760 0.931 . S
C1745 C1744 1.391 . S
C1745 C1749 1.376 . S
C1746 C1744 1.394 . S
C1746 C1747 1.369 . S
C1746 C1750 1.531 . S
C1747 C1746 1.369 . S
C1747 C1748 1.410 . S
C1747 C1755 1.472 1_565 S
C1748 C1747 1.410 . S
C1748 C1749 1.392 . S
C1748 C1751 1.511 . S
C1749 C1745 1.376 . S
C1749 C1748 1.392 . S
C1749 H1761 0.929 . S
C1750 C1746 1.531 . S
C1750 H1762 0.960 1_565 S
C1750 H1763 0.962 . S
C1750 H1764 0.960 . S
C1751 C1748 1.511 . S
C1751 H1765 0.961 . S
C1751 H1766 0.961 . S
C1751 H1767 0.961 . S
C1752 C1753 1.370 . S
C1752 C1754 1.331 1_545 S
C1752 H1768 0.931 . S
C1753 C1752 1.370 . S
C1753 C1757 1.408 . S
C1754 C1752 1.331 1_565 S
C1754 C1755 1.366 1_565 S
C1754 C1758 1.560 . S
C1755 C1747 1.472 1_545 S
C1755 C1754 1.366 1_545 S
C1755 C1756 1.438 . S
C1756 C1755 1.438 . S
C1756 C1757 1.404 . S
C1756 C1759 1.539 . S
C1757 C1753 1.408 . S
C1757 C1756 1.404 . S
C1757 H1769 0.930 . S
C1758 C1754 1.560 . S
C1758 H1770 0.956 . S
C1758 H1771 0.961 . S
C1758 H1772 0.961 . S
C1759 C1756 1.539 . S
C1759 H1773 0.958 . S
C1759 H1774 0.961 . S
C1759 H1775 0.960 . S
H1760 C1744 0.931 . S
H1761 C1749 0.929 . S
H1762 C1750 0.960 1_545 S
H1763 C1750 0.962 . S
H1764 C1750 0.960 . S
H1765 C1751 0.961 . S
H1766 C1751 0.961 . S
H1767 C1751 0.961 . S
H1768 C1752 0.931 . S
H1769 C1757 0.930 . S
H1770 C1758 0.956 . S
H1771 C1758 0.961 . S
H1772 C1758 0.961 . S
H1773 C1759 0.958 . S
H1774 C1759 0.961 . S
H1775 C1759 0.960 . S
C1776 C1777 1.391 . S
C1776 C1778 1.394 . S
C1776 H1792 0.931 . S
C1777 C1776 1.391 . S
C1777 C1781 1.376 . S
C1778 C1776 1.394 . S
C1778 C1779 1.369 . S
C1778 C1782 1.531 . S
C1779 C1778 1.369 . S
C1779 C1780 1.410 . S
C1779 C1787 1.503 . S
C1780 C1779 1.410 . S
C1780 C1781 1.392 . S
C1780 C1783 1.511 . S
C1781 C1777 1.376 . S
C1781 C1780 1.392 . S
C1781 H1793 0.929 . S
C1782 C1778 1.531 . S
C1782 H1794 0.960 . S
C1782 H1795 0.962 . S
C1782 H1796 0.960 . S
C1783 C1780 1.511 . S
C1783 H1797 0.961 . S
C1783 H1798 0.961 . S
C1783 H1799 0.961 . S
C1784 C1785 1.370 . S
C1784 C1786 1.363 . S
C1784 H1800 0.931 . S
C1785 C1784 1.370 . S
C1785 C1789 1.408 . S
C1786 C1784 1.363 . S
C1786 C1787 1.370 . S
C1786 C1790 1.524 . S
C1787 C1779 1.503 . S
C1787 C1786 1.370 . S
C1787 C1788 1.403 . S
C1788 C1787 1.403 . S
C1788 C1789 1.404 . S
C1788 C1791 1.539 . S
C1789 C1785 1.408 . S
C1789 C1788 1.404 . S
C1789 H1801 0.930 . S
C1790 C1786 1.524 . S
C1790 H1802 0.956 . S
C1790 H1803 0.961 . S
C1790 H1804 0.961 . S
C1791 C1788 1.539 . S
C1791 H1805 0.958 . S
C1791 H1806 0.961 . S
C1791 H1807 0.960 . S
H1792 C1776 0.931 . S
H1793 C1781 0.929 . S
H1794 C1782 0.960 . S
H1795 C1782 0.962 . S
H1796 C1782 0.960 . S
H1797 C1783 0.961 . S
H1798 C1783 0.961 . S
H1799 C1783 0.961 . S
H1800 C1784 0.931 . S
H1801 C1789 0.930 . S
H1802 C1790 0.956 . S
H1803 C1790 0.961 . S
H1804 C1790 0.961 . S
H1805 C1791 0.958 . S
H1806 C1791 0.961 . S
H1807 C1791 0.960 . S
C1808 C1809 1.391 . S
C1808 C1810 1.394 . S
C1808 H1824 0.950 . S
C1809 C1808 1.391 . S
C1809 C1813 1.376 . S
C1810 C1808 1.394 . S
C1810 C1811 1.369 . S
C1810 C1814 1.531 . S
C1811 C1810 1.369 . S
C1811 C1812 1.410 . S
C1811 C1819 1.528 . S
C1812 C1811 1.410 . S
C1812 C1813 1.392 . S
C1812 C1815 1.511 . S
C1813 C1809 1.376 . S
C1813 C1812 1.392 . S
C1813 H1825 0.929 . S
C1814 C1810 1.531 . S
C1814 H1826 0.960 1_545 S
C1814 H1827 0.962 . S
C1814 H1828 0.960 1_554 S
C1815 C1812 1.511 . S
C1815 H1829 0.961 . S
C1815 H1830 0.961 . S
C1815 H1831 0.961 . S
C1816 C1817 1.370 . S
C1816 C1818 1.363 1_565 S
C1816 H1832 0.931 . S
C1817 C1816 1.370 . S
C1817 C1821 1.408 . S
C1818 C1816 1.363 1_545 S
C1818 C1819 1.375 . S
C1818 C1822 1.524 . S
C1819 C1811 1.528 . S
C1819 C1818 1.375 . S
C1819 C1820 1.374 1_545 S
C1820 C1819 1.374 1_565 S
C1820 C1821 1.404 . S
C1820 C1823 1.539 . S
C1821 C1817 1.408 . S
C1821 C1820 1.404 . S
C1821 H1833 0.930 . S
C1822 C1818 1.524 . S
C1822 H1834 0.956 . S
C1822 H1835 0.961 . S
C1822 H1836 0.961 . S
C1823 C1820 1.539 . S
C1823 H1837 0.958 . S
C1823 H1838 0.961 . S
C1823 H1839 0.960 . S
H1824 C1808 0.950 . S
H1825 C1813 0.929 . S
H1826 C1814 0.960 1_565 S
H1827 C1814 0.962 . S
H1828 C1814 0.960 1_556 S
H1829 C1815 0.961 . S
H1830 C1815 0.961 . S
H1831 C1815 0.961 . S
H1832 C1816 0.931 . S
H1833 C1821 0.930 . S
H1834 C1822 0.956 . S
H1835 C1822 0.961 . S
H1836 C1822 0.961 . S
H1837 C1823 0.958 . S
H1838 C1823 0.961 . S
H1839 C1823 0.960 . S
C1840 C1841 1.391 . S
C1840 C1842 1.394 . S
C1840 H1856 0.931 . S
C1841 C1840 1.391 . S
C1841 C1845 1.376 . S
C1842 C1840 1.394 . S
C1842 C1843 1.369 . S
C1842 C1846 1.531 . S
C1843 C1842 1.369 . S
C1843 C1844 1.410 . S
C1843 C1851 1.503 . S
C1844 C1843 1.410 . S
C1844 C1845 1.392 . S
C1844 C1847 1.511 . S
C1845 C1841 1.376 . S
C1845 C1844 1.392 . S
C1845 H1857 0.929 . S
C1846 C1842 1.531 . S
C1846 H1858 0.960 . S
C1846 H1859 0.962 . S
C1846 H1860 0.960 . S
C1847 C1844 1.511 . S
C1847 H1861 0.961 . S
C1847 H1862 0.961 . S
C1847 H1863 0.961 . S
C1848 C1849 1.370 . S
C1848 C1850 1.363 . S
C1848 H1864 0.931 . S
C1849 C1848 1.370 . S
C1849 C1853 1.408 . S
C1850 C1848 1.363 . S
C1850 C1851 1.370 . S
C1850 C1854 1.524 . S
C1851 C1843 1.503 . S
C1851 C1850 1.370 . S
C1851 C1852 1.403 . S
C1852 C1851 1.403 . S
C1852 C1853 1.404 . S
C1852 C1855 1.539 . S
C1853 C1849 1.408 . S
C1853 C1852 1.404 . S
C1853 H1865 0.930 . S
C1854 C1850 1.524 . S
C1854 H1866 0.956 . S
C1854 H1867 0.961 . S
C1854 H1868 0.961 . S
C1855 C1852 1.539 . S
C1855 H1869 0.958 . S
C1855 H1870 0.961 . S
C1855 H1871 0.960 . S
H1856 C1840 0.931 . S
H1857 C1845 0.929 . S
H1858 C1846 0.960 . S
H1859 C1846 0.962 . S
H1860 C1846 0.960 . S
H1861 C1847 0.961 . S
H1862 C1847 0.961 . S
H1863 C1847 0.961 . S
H1864 C1848 0.931 . S
H1865 C1853 0.930 . S
H1866 C1854 0.956 . S
H1867 C1854 0.961 . S
H1868 C1854 0.961 . S
H1869 C1855 0.958 . S
H1870 C1855 0.961 . S
H1871 C1855 0.960 . S
C1872 C1873 1.391 . S
C1872 C1874 1.394 . S
C1872 H1888 0.931 . S
C1873 C1872 1.391 . S
C1873 C1877 1.376 . S
C1874 C1872 1.394 . S
C1874 C1875 1.369 . S
C1874 C1878 1.531 . S
C1875 C1874 1.369 . S
C1875 C1876 1.410 . S
C1875 C1883 1.503 1_565 S
C1876 C1875 1.410 . S
C1876 C1877 1.392 . S
C1876 C1879 1.511 . S
C1877 C1873 1.376 . S
C1877 C1876 1.392 . S
C1877 H1889 0.929 . S
C1878 C1874 1.531 . S
C1878 H1890 0.960 1_565 S
C1878 H1891 0.962 . S
C1878 H1892 0.960 . S
C1879 C1876 1.511 . S
C1879 H1893 0.961 . S
C1879 H1894 0.961 . S
C1879 H1895 0.961 . S
C1880 C1881 1.370 . S
C1880 C1882 1.363 . S
C1880 H1896 0.931 . S
C1881 C1880 1.370 . S
C1881 C1885 1.408 . S
C1882 C1880 1.363 . S
C1882 C1883 1.370 . S
C1882 C1886 1.524 1_545 S
C1883 C1875 1.503 1_545 S
C1883 C1882 1.370 . S
C1883 C1884 1.403 . S
C1884 C1883 1.403 . S
C1884 C1885 1.404 . S
C1884 C1887 1.539 . S
C1885 C1881 1.408 . S
C1885 C1884 1.404 . S
C1885 H1897 0.930 . S
C1886 C1882 1.524 1_565 S
C1886 H1898 0.956 . S
C1886 H1899 0.961 . S
C1886 H1900 0.961 . S
C1887 C1884 1.539 . S
C1887 H1901 0.958 . S
C1887 H1902 0.961 . S
C1887 H1903 0.960 . S
H1888 C1872 0.931 . S
H1889 C1877 0.929 . S
H1890 C1878 0.960 1_545 S
H1891 C1878 0.962 . S
H1892 C1878 0.960 . S
H1893 C1879 0.961 . S
H1894 C1879 0.961 . S
H1895 C1879 0.961 . S
H1896 C1880 0.931 . S
H1897 C1885 0.930 . S
H1898 C1886 0.956 . S
H1899 C1886 0.961 . S
H1900 C1886 0.961 . S
H1901 C1887 0.958 . S
H1902 C1887 0.961 . S
H1903 C1887 0.960 . S
C1904 C1905 1.391 . S
C1904 C1906 1.394 . S
C1904 H1920 0.931 . S
C1905 C1904 1.391 . S
C1905 C1909 1.376 . S
C1906 C1904 1.394 . S
C1906 C1907 1.369 . S
C1906 C1910 1.531 . S
C1907 C1906 1.369 . S
C1907 C1908 1.410 . S
C1907 C1915 1.503 . S
C1908 C1907 1.410 . S
C1908 C1909 1.392 . S
C1908 C1911 1.511 . S
C1909 C1905 1.376 . S
C1909 C1908 1.392 . S
C1909 H1921 0.929 . S
C1910 C1906 1.531 . S
C1910 H1922 0.960 . S
C1910 H1923 0.962 . S
C1910 H1924 0.960 . S
C1911 C1908 1.511 . S
C1911 H1925 0.961 . S
C1911 H1926 0.961 . S
C1911 H1927 0.961 . S
C1912 C1913 1.370 . S
C1912 C1914 1.363 . S
C1912 H1928 0.931 . S
C1913 C1912 1.370 . S
C1913 C1917 1.408 . S
C1914 C1912 1.363 . S
C1914 C1915 1.370 . S
C1914 C1918 1.524 . S
C1915 C1907 1.503 . S
C1915 C1914 1.370 . S
C1915 C1916 1.403 . S
C1916 C1915 1.403 . S
C1916 C1917 1.404 . S
C1916 C1919 1.539 . S
C1917 C1913 1.408 . S
C1917 C1916 1.404 . S
C1917 H1929 0.930 . S
C1918 C1914 1.524 . S
C1918 H1930 0.956 . S
C1918 H1931 0.961 . S
C1918 H1932 0.961 . S
C1919 C1916 1.539 . S
C1919 H1933 0.958 . S
C1919 H1934 0.961 . S
C1919 H1935 0.960 . S
H1920 C1904 0.931 . S
H1921 C1909 0.929 . S
H1922 C1910 0.960 . S
H1923 C1910 0.962 . S
H1924 C1910 0.960 . S
H1925 C1911 0.961 . S
H1926 C1911 0.961 . S
H1927 C1911 0.961 . S
H1928 C1912 0.931 . S
H1929 C1917 0.930 . S
H1930 C1918 0.956 . S
H1931 C1918 0.961 . S
H1932 C1918 0.961 . S
H1933 C1919 0.958 . S
H1934 C1919 0.961 . S
H1935 C1919 0.960 . S
C1936 C1937 1.391 . S
C1936 C1938 1.394 . S
C1936 H1952 0.931 1_556 S
C1937 C1936 1.391 . S
C1937 C1941 1.376 . S
C1938 C1936 1.394 . S
C1938 C1939 1.369 . S
C1938 C1942 1.531 . S
C1939 C1938 1.369 . S
C1939 C1940 1.410 . S
C1939 C1947 1.495 1_545 S
C1940 C1939 1.410 . S
C1940 C1941 1.392 . S
C1940 C1943 1.511 . S
C1941 C1937 1.376 . S
C1941 C1940 1.392 . S
C1941 H1953 0.929 . S
C1942 C1938 1.531 . S
C1942 H1954 0.960 1_545 S
C1942 H1955 0.962 . S
C1942 H1956 0.960 1_556 S
C1943 C1940 1.511 . S
C1943 H1957 0.961 . S
C1943 H1958 0.961 . S
C1943 H1959 0.961 . S
C1944 C1945 1.370 . S
C1944 C1946 1.363 1_565 S
C1944 H1960 0.931 . S
C1945 C1944 1.370 . S
C1945 C1949 1.408 . S
C1946 C1944 1.363 1_545 S
C1946 C1947 1.370 1_545 S
C1946 C1950 1.524 . S
C1947 C1939 1.495 1_565 S
C1947 C1946 1.370 1_565 S
C1947 C1948 1.412 . S
C1948 C1947 1.412 . S
C1948 C1949 1.404 . S
C1948 C1951 1.539 . S
C1949 C1945 1.408 . S
C1949 C1948 1.404 . S
C1949 H1961 0.930 . S
C1950 C1946 1.524 . S
C1950 H1962 0.956 . S
C1950 H1963 0.961 . S
C1950 H1964 0.961 . S
C1951 C1948 1.539 . S
C1951 H1965 0.958 . S
C1951 H1966 0.961 . S
C1951 H1967 0.960 . S
H1952 C1936 0.931 1_554 S
H1953 C1941 0.929 . S
H1954 C1942 0.960 1_565 S
H1955 C1942 0.962 . S
H1956 C1942 0.960 1_554 S
H1957 C1943 0.961 . S
H1958 C1943 0.961 . S
H1959 C1943 0.961 . S
H1960 C1944 0.931 . S
H1961 C1949 0.930 . S
H1962 C1950 0.956 . S
H1963 C1950 0.961 . S
H1964 C1950 0.961 . S
H1965 C1951 0.958 . S
H1966 C1951 0.961 . S
H1967 C1951 0.960 . S
C1968 C1969 1.391 . S
C1968 C1970 1.394 . S
C1968 H1984 0.931 . S
C1969 C1968 1.391 . S
C1969 C1973 1.376 . S
C1970 C1968 1.394 . S
C1970 C1971 1.369 . S
C1970 C1974 1.531 . S
C1971 C1970 1.369 . S
C1971 C1972 1.410 . S
C1971 C1979 1.503 . S
C1972 C1971 1.410 . S
C1972 C1973 1.392 . S
C1972 C1975 1.511 . S
C1973 C1969 1.376 . S
C1973 C1972 1.392 . S
C1973 H1985 0.929 . S
C1974 C1970 1.531 . S
C1974 H1986 0.960 . S
C1974 H1987 0.962 . S
C1974 H1988 0.960 . S
C1975 C1972 1.511 . S
C1975 H1989 0.961 . S
C1975 H1990 0.961 . S
C1975 H1991 0.961 . S
C1976 C1977 1.370 . S
C1976 C1978 1.363 . S
C1976 H1992 0.931 . S
C1977 C1976 1.370 . S
C1977 C1981 1.408 . S
C1978 C1976 1.363 . S
C1978 C1979 1.370 . S
C1978 C1982 1.524 . S
C1979 C1971 1.503 . S
C1979 C1978 1.370 . S
C1979 C1980 1.403 . S
C1980 C1979 1.403 . S
C1980 C1981 1.404 . S
C1980 C1983 1.539 . S
C1981 C1977 1.408 . S
C1981 C1980 1.404 . S
C1981 H1993 0.930 . S
C1982 C1978 1.524 . S
C1982 H1994 0.956 . S
C1982 H1995 0.961 . S
C1982 H1996 0.961 . S
C1983 C1980 1.539 . S
C1983 H1997 0.958 . S
C1983 H1998 0.961 . S
C1983 H1999 0.960 . S
H1984 C1968 0.931 . S
H1985 C1973 0.929 . S
H1986 C1974 0.960 . S
H1987 C1974 0.962 . S
H1988 C1974 0.960 . S
H1989 C1975 0.961 . S
H1990 C1975 0.961 . S
H1991 C1975 0.961 . S
H1992 C1976 0.931 . S
H1993 C1981 0.930 . S
H1994 C1982 0.956 . S
H1995 C1982 0.961 . S
H1996 C1982 0.961 . S
H1997 C1983 0.958 . S
H1998 C1983 0.961 . S
H1999 C1983 0.960 . S
C2000 C2001 1.391 . S
C2000 C2002 1.394 . S
C2000 H2016 0.931 . S
C2001 C2000 1.391 . S
C2001 C2005 1.376 . S
C2002 C2000 1.394 . S
C2002 C2003 1.369 . S
C2002 C2006 1.531 . S
C2003 C2002 1.369 . S
C2003 C2004 1.410 . S
C2003 C2011 1.503 . S
C2004 C2003 1.410 . S
C2004 C2005 1.392 . S
C2004 C2007 1.511 . S
C2005 C2001 1.376 . S
C2005 C2004 1.392 . S
C2005 H2017 0.929 . S
C2006 C2002 1.531 . S
C2006 H2018 0.960 . S
C2006 H2019 0.962 . S
C2006 H2020 0.960 . S
C2007 C2004 1.511 . S
C2007 H2021 0.961 . S
C2007 H2022 0.961 . S
C2007 H2023 0.961 . S
C2008 C2009 1.370 . S
C2008 C2010 1.363 . S
C2008 H2024 0.931 . S
C2009 C2008 1.370 . S
C2009 C2013 1.408 . S
C2010 C2008 1.363 . S
C2010 C2011 1.370 . S
C2010 C2014 1.524 . S
C2011 C2003 1.503 . S
C2011 C2010 1.370 . S
C2011 C2012 1.403 . S
C2012 C2011 1.403 . S
C2012 C2013 1.404 . S
C2012 C2015 1.539 . S
C2013 C2009 1.408 . S
C2013 C2012 1.404 . S
C2013 H2025 0.930 . S
C2014 C2010 1.524 . S
C2014 H2026 0.956 . S
C2014 H2027 0.961 . S
C2014 H2028 0.961 . S
C2015 C2012 1.539 . S
C2015 H2029 0.958 . S
C2015 H2030 0.961 . S
C2015 H2031 0.960 . S
H2016 C2000 0.931 . S
H2017 C2005 0.929 . S
H2018 C2006 0.960 . S
H2019 C2006 0.962 . S
H2020 C2006 0.960 . S
H2021 C2007 0.961 . S
H2022 C2007 0.961 . S
H2023 C2007 0.961 . S
H2024 C2008 0.931 . S
H2025 C2013 0.930 . S
H2026 C2014 0.956 . S
H2027 C2014 0.961 . S
H2028 C2014 0.961 . S
H2029 C2015 0.958 . S
H2030 C2015 0.961 . S
H2031 C2015 0.960 . S
C2032 C2033 1.391 . S
C2032 C2034 1.394 . S
C2032 H2048 0.931 . S
C2033 C2032 1.391 . S
C2033 C2037 1.376 . S
C2034 C2032 1.394 . S
C2034 C2035 1.369 . S
C2034 C2038 1.531 . S
C2035 C2034 1.369 . S
C2035 C2036 1.410 . S
C2035 C2043 1.493 1_655 S
C2036 C2035 1.410 . S
C2036 C2037 1.392 . S
C2036 C2039 1.511 1_655 S
C2037 C2033 1.376 . S
C2037 C2036 1.392 . S
C2037 H2049 0.929 . S
C2038 C2034 1.531 . S
C2038 H2050 0.960 . S
C2038 H2051 0.962 . S
C2038 H2052 0.960 . S
C2039 C2036 1.511 1_455 S
C2039 H2053 0.961 1_455 S
C2039 H2054 0.961 . S
C2039 H2055 0.961 . S
C2040 C2041 1.370 . S
C2040 C2042 1.363 . S
C2040 H2056 0.931 . S
C2041 C2040 1.370 . S
C2041 C2045 1.408 . S
C2042 C2040 1.363 . S
C2042 C2043 1.371 . S
C2042 C2046 1.524 1_455 S
C2043 C2035 1.493 1_455 S
C2043 C2042 1.371 . S
C2043 C2044 1.412 . S
C2044 C2043 1.412 . S
C2044 C2045 1.404 . S
C2044 C2047 1.539 . S
C2045 C2041 1.408 . S
C2045 C2044 1.404 . S
C2045 H2057 0.930 . S
C2046 C2042 1.524 1_655 S
C2046 H2058 0.956 . S
C2046 H2059 0.961 . S
C2046 H2060 0.961 . S
C2047 C2044 1.539 . S
C2047 H2061 0.958 . S
C2047 H2062 0.961 . S
C2047 H2063 0.960 . S
H2048 C2032 0.931 . S
H2049 C2037 0.929 . S
H2050 C2038 0.960 . S
H2051 C2038 0.962 . S
H2052 C2038 0.960 . S
H2053 C2039 0.961 1_655 S
H2054 C2039 0.961 . S
H2055 C2039 0.961 . S
H2056 C2040 0.931 . S
H2057 C2045 0.930 . S
H2058 C2046 0.956 . S
H2059 C2046 0.961 . S
H2060 C2046 0.961 . S
H2061 C2047 0.958 . S
H2062 C2047 0.961 . S
H2063 C2047 0.960 . S
C2064 C2065 1.391 . S
C2064 C2066 1.394 . S
C2064 H2080 0.931 . S
C2065 C2064 1.391 . S
C2065 C2069 1.376 . S
C2066 C2064 1.394 . S
C2066 C2067 1.369 . S
C2066 C2070 1.531 . S
C2067 C2066 1.369 . S
C2067 C2068 1.410 . S
C2067 C2075 1.503 . S
C2068 C2067 1.410 . S
C2068 C2069 1.392 . S
C2068 C2071 1.511 . S
C2069 C2065 1.376 . S
C2069 C2068 1.392 . S
C2069 H2081 0.929 . S
C2070 C2066 1.531 . S
C2070 H2082 0.960 . S
C2070 H2083 0.962 . S
C2070 H2084 0.960 . S
C2071 C2068 1.511 . S
C2071 H2085 0.961 . S
C2071 H2086 0.961 . S
C2071 H2087 0.961 . S
C2072 C2073 1.370 . S
C2072 C2074 1.363 . S
C2072 H2088 0.931 . S
C2073 C2072 1.370 . S
C2073 C2077 1.408 . S
C2074 C2072 1.363 . S
C2074 C2075 1.370 . S
C2074 C2078 1.524 . S
C2075 C2067 1.503 . S
C2075 C2074 1.370 . S
C2075 C2076 1.403 . S
C2076 C2075 1.403 . S
C2076 C2077 1.404 . S
C2076 C2079 1.539 . S
C2077 C2073 1.408 . S
C2077 C2076 1.404 . S
C2077 H2089 0.930 . S
C2078 C2074 1.524 . S
C2078 H2090 0.956 . S
C2078 H2091 0.961 . S
C2078 H2092 0.961 . S
C2079 C2076 1.539 . S
C2079 H2093 0.958 . S
C2079 H2094 0.961 . S
C2079 H2095 0.960 . S
H2080 C2064 0.931 . S
H2081 C2069 0.929 . S
H2082 C2070 0.960 . S
H2083 C2070 0.962 . S
H2084 C2070 0.960 . S
H2085 C2071 0.961 . S
H2086 C2071 0.961 . S
H2087 C2071 0.961 . S
H2088 C2072 0.931 . S
H2089 C2077 0.930 . S
H2090 C2078 0.956 . S
H2091 C2078 0.961 . S
H2092 C2078 0.961 . S
H2093 C2079 0.958 . S
H2094 C2079 0.961 . S
H2095 C2079 0.960 . S
C2096 C2097 1.391 . S
C2096 C2098 1.394 . S
C2096 H2112 0.931 . S
C2097 C2096 1.391 . S
C2097 C2101 1.376 . S
C2098 C2096 1.394 . S
C2098 C2099 1.369 . S
C2098 C2102 1.531 . S
C2099 C2098 1.369 . S
C2099 C2100 1.410 . S
C2099 C2107 1.503 . S
C2100 C2099 1.410 . S
C2100 C2101 1.392 . S
C2100 C2103 1.511 . S
C2101 C2097 1.376 . S
C2101 C2100 1.392 . S
C2101 H2113 0.938 . S
C2102 C2098 1.531 . S
C2102 H2114 0.960 . S
C2102 H2115 0.962 . S
C2102 H2116 0.960 . S
C2103 C2100 1.511 . S
C2103 H2117 0.961 1_565 S
C2103 H2118 0.961 1_455 S
C2103 H2119 0.958 1_565 S
C2104 C2105 1.370 . S
C2104 C2106 1.363 . S
C2104 H2120 0.931 . S
C2105 C2104 1.370 . S
C2105 C2109 1.408 . S
C2106 C2104 1.363 . S
C2106 C2107 1.370 1_655 S
C2106 C2110 1.526 . S
C2107 C2099 1.503 . S
C2107 C2106 1.370 1_455 S
C2107 C2108 1.402 . S
C2108 C2107 1.402 . S
C2108 C2109 1.407 1_455 S
C2108 C2111 1.537 . S
C2109 C2105 1.408 . S
C2109 C2108 1.407 1_655 S
C2109 H2121 0.930 . S
C2110 C2106 1.526 . S
C2110 H2122 0.950 1_655 S
C2110 H2123 0.960 1_655 S
C2110 H2124 0.966 . S
C2111 C2108 1.537 . S
C2111 H2125 0.958 . S
C2111 H2126 0.961 . S
C2111 H2127 0.960 . S
H2112 C2096 0.931 . S
H2113 C2101 0.938 . S
H2114 C2102 0.960 . S
H2115 C2102 0.962 . S
H2116 C2102 0.960 . S
H2117 C2103 0.961 1_545 S
H2118 C2103 0.961 1_655 S
H2119 C2103 0.958 1_545 S
H2120 C2104 0.931 . S
H2121 C2109 0.930 . S
H2122 C2110 0.950 1_455 S
H2123 C2110 0.960 1_455 S
H2124 C2110 0.966 . S
H2125 C2111 0.958 . S
H2126 C2111 0.961 . S
H2127 C2111 0.960 . S
C2128 C2129 1.391 . S
C2128 C2130 1.394 . S
C2128 H2144 0.931 . S
C2129 C2128 1.391 . S
C2129 C2133 1.376 . S
C2130 C2128 1.394 . S
C2130 C2131 1.369 . S
C2130 C2134 1.531 . S
C2131 C2130 1.369 . S
C2131 C2132 1.410 . S
C2131 C2139 1.503 . S
C2132 C2131 1.410 . S
C2132 C2133 1.392 . S
C2132 C2135 1.511 . S
C2133 C2129 1.376 . S
C2133 C2132 1.392 . S
C2133 H2145 0.929 . S
C2134 C2130 1.531 . S
C2134 H2146 0.960 . S
C2134 H2147 0.962 . S
C2134 H2148 0.960 . S
C2135 C2132 1.511 . S
C2135 H2149 0.961 . S
C2135 H2150 0.961 . S
C2135 H2151 0.961 . S
C2136 C2137 1.370 . S
C2136 C2138 1.363 . S
C2136 H2152 0.931 . S
C2137 C2136 1.370 . S
C2137 C2141 1.408 . S
C2138 C2136 1.363 . S
C2138 C2139 1.370 . S
C2138 C2142 1.524 . S
C2139 C2131 1.503 . S
C2139 C2138 1.370 . S
C2139 C2140 1.403 . S
C2140 C2139 1.403 . S
C2140 C2141 1.404 . S
C2140 C2143 1.539 . S
C2141 C2137 1.408 . S
C2141 C2140 1.404 . S
C2141 H2153 0.930 . S
C2142 C2138 1.524 . S
C2142 H2154 0.956 . S
C2142 H2155 0.961 . S
C2142 H2156 0.961 . S
C2143 C2140 1.539 . S
C2143 H2157 0.958 . S
C2143 H2158 0.961 . S
C2143 H2159 0.960 . S
H2144 C2128 0.931 . S
H2145 C2133 0.929 . S
H2146 C2134 0.960 . S
H2147 C2134 0.962 . S
H2148 C2134 0.960 . S
H2149 C2135 0.961 . S
H2150 C2135 0.961 . S
H2151 C2135 0.961 . S
H2152 C2136 0.931 . S
H2153 C2141 0.930 . S
H2154 C2142 0.956 . S
H2155 C2142 0.961 . S
H2156 C2142 0.961 . S
H2157 C2143 0.958 . S
H2158 C2143 0.961 . S
H2159 C2143 0.960 . S
C2160 C2161 1.391 . S
C2160 C2162 1.394 . S
C2160 H2176 0.931 . S
C2161 C2160 1.391 . S
C2161 C2165 1.376 . S
C2162 C2160 1.394 . S
C2162 C2163 1.369 . S
C2162 C2166 1.531 . S
C2163 C2162 1.369 . S
C2163 C2164 1.410 . S
C2163 C2171 1.503 . S
C2164 C2163 1.410 . S
C2164 C2165 1.392 . S
C2164 C2167 1.511 1_655 S
C2165 C2161 1.376 . S
C2165 C2164 1.392 . S
C2165 H2177 0.929 . S
C2166 C2162 1.531 . S
C2166 H2178 0.960 . S
C2166 H2179 0.962 . S
C2166 H2180 0.960 . S
C2167 C2164 1.511 1_455 S
C2167 H2181 0.961 . S
C2167 H2182 0.961 . S
C2167 H2183 0.961 . S
C2168 C2169 1.370 . S
C2168 C2170 1.363 . S
C2168 H2184 0.931 . S
C2169 C2168 1.370 . S
C2169 C2173 1.408 . S
C2170 C2168 1.363 . S
C2170 C2171 1.370 1_455 S
C2170 C2174 1.524 . S
C2171 C2163 1.503 . S
C2171 C2170 1.370 1_655 S
C2171 C2172 1.403 1_655 S
C2172 C2171 1.403 1_455 S
C2172 C2173 1.404 . S
C2172 C2175 1.539 1_455 S
C2173 C2169 1.408 . S
C2173 C2172 1.404 . S
C2173 H2185 0.930 . S
C2174 C2170 1.524 . S
C2174 H2186 0.956 1_455 S
C2174 H2187 0.961 1_455 S
C2174 H2188 0.961 . S
C2175 C2172 1.539 1_655 S
C2175 H2189 0.958 . S
C2175 H2190 0.961 1_655 S
C2175 H2191 0.960 . S
H2176 C2160 0.931 . S
H2177 C2165 0.929 . S
H2178 C2166 0.960 . S
H2179 C2166 0.962 . S
H2180 C2166 0.960 . S
H2181 C2167 0.961 . S
H2182 C2167 0.961 . S
H2183 C2167 0.961 . S
H2184 C2168 0.931 . S
H2185 C2173 0.930 . S
H2186 C2174 0.956 1_655 S
H2187 C2174 0.961 1_655 S
H2188 C2174 0.961 . S
H2189 C2175 0.958 . S
H2190 C2175 0.961 1_455 S
H2191 C2175 0.960 . S
C2192 C2193 1.391 . S
C2192 C2194 1.394 . S
C2192 H2208 0.931 . S
C2193 C2192 1.391 . S
C2193 C2197 1.376 . S
C2194 C2192 1.394 . S
C2194 C2195 1.369 . S
C2194 C2198 1.531 . S
C2195 C2194 1.369 . S
C2195 C2196 1.410 . S
C2195 C2203 1.503 . S
C2196 C2195 1.410 . S
C2196 C2197 1.392 . S
C2196 C2199 1.511 . S
C2197 C2193 1.376 . S
C2197 C2196 1.392 . S
C2197 H2209 0.929 . S
C2198 C2194 1.531 . S
C2198 H2210 0.960 . S
C2198 H2211 0.962 . S
C2198 H2212 0.960 . S
C2199 C2196 1.511 . S
C2199 H2213 0.961 . S
C2199 H2214 0.961 . S
C2199 H2215 0.961 . S
C2200 C2201 1.370 . S
C2200 C2202 1.363 . S
C2200 H2216 0.931 . S
C2201 C2200 1.370 . S
C2201 C2205 1.408 . S
C2202 C2200 1.363 . S
C2202 C2203 1.370 . S
C2202 C2206 1.524 . S
C2203 C2195 1.503 . S
C2203 C2202 1.370 . S
C2203 C2204 1.403 . S
C2204 C2203 1.403 . S
C2204 C2205 1.404 . S
C2204 C2207 1.539 . S
C2205 C2201 1.408 . S
C2205 C2204 1.404 . S
C2205 H2217 0.930 . S
C2206 C2202 1.524 . S
C2206 H2218 0.956 . S
C2206 H2219 0.961 . S
C2206 H2220 0.961 . S
C2207 C2204 1.539 . S
C2207 H2221 0.958 . S
C2207 H2222 0.961 . S
C2207 H2223 0.960 . S
H2208 C2192 0.931 . S
H2209 C2197 0.929 . S
H2210 C2198 0.960 . S
H2211 C2198 0.962 . S
H2212 C2198 0.960 . S
H2213 C2199 0.961 . S
H2214 C2199 0.961 . S
H2215 C2199 0.961 . S
H2216 C2200 0.931 . S
H2217 C2205 0.930 . S
H2218 C2206 0.956 . S
H2219 C2206 0.961 . S
H2220 C2206 0.961 . S
H2221 C2207 0.958 . S
H2222 C2207 0.961 . S
H2223 C2207 0.960 . S
C2224 C2225 1.391 . S
C2224 C2226 1.394 . S
C2224 H2240 0.931 . S
C2225 C2224 1.391 . S
C2225 C2229 1.376 . S
C2226 C2224 1.394 . S
C2226 C2227 1.369 . S
C2226 C2230 1.531 . S
C2227 C2226 1.369 . S
C2227 C2228 1.410 . S
C2227 C2235 1.503 . S
C2228 C2227 1.410 . S
C2228 C2229 1.392 . S
C2228 C2231 1.511 . S
C2229 C2225 1.376 . S
C2229 C2228 1.392 . S
C2229 H2241 0.929 . S
C2230 C2226 1.531 . S
C2230 H2242 0.960 . S
C2230 H2243 0.962 . S
C2230 H2244 0.960 . S
C2231 C2228 1.511 . S
C2231 H2245 0.961 . S
C2231 H2246 0.961 . S
C2231 H2247 0.961 . S
C2232 C2233 1.370 . S
C2232 C2234 1.363 . S
C2232 H2248 0.931 . S
C2233 C2232 1.370 . S
C2233 C2237 1.408 . S
C2234 C2232 1.363 . S
C2234 C2235 1.370 . S
C2234 C2238 1.524 . S
C2235 C2227 1.503 . S
C2235 C2234 1.370 . S
C2235 C2236 1.403 . S
C2236 C2235 1.403 . S
C2236 C2237 1.404 . S
C2236 C2239 1.539 . S
C2237 C2233 1.408 . S
C2237 C2236 1.404 . S
C2237 H2249 0.930 . S
C2238 C2234 1.524 . S
C2238 H2250 0.956 . S
C2238 H2251 0.961 . S
C2238 H2252 0.961 . S
C2239 C2236 1.539 . S
C2239 H2253 0.958 . S
C2239 H2254 0.961 . S
C2239 H2255 0.960 . S
H2240 C2224 0.931 . S
H2241 C2229 0.929 . S
H2242 C2230 0.960 . S
H2243 C2230 0.962 . S
H2244 C2230 0.960 . S
H2245 C2231 0.961 . S
H2246 C2231 0.961 . S
H2247 C2231 0.961 . S
H2248 C2232 0.931 . S
H2249 C2237 0.930 . S
H2250 C2238 0.956 . S
H2251 C2238 0.961 . S
H2252 C2238 0.961 . S
H2253 C2239 0.958 . S
H2254 C2239 0.961 . S
H2255 C2239 0.960 . S
C2256 C2257 1.391 . S
C2256 C2258 1.394 . S
C2256 H2272 0.931 . S
C2257 C2256 1.391 . S
C2257 C2261 1.376 . S
C2258 C2256 1.394 . S
C2258 C2259 1.369 . S
C2258 C2262 1.531 . S
C2259 C2258 1.369 . S
C2259 C2260 1.410 . S
C2259 C2267 1.503 . S
C2260 C2259 1.410 . S
C2260 C2261 1.392 . S
C2260 C2263 1.511 . S
C2261 C2257 1.376 . S
C2261 C2260 1.392 . S
C2261 H2273 0.929 . S
C2262 C2258 1.531 . S
C2262 H2274 0.960 1_554 S
C2262 H2275 0.962 . S
C2262 H2276 0.960 . S
C2263 C2260 1.511 . S
C2263 H2277 0.961 . S
C2263 H2278 0.961 . S
C2263 H2279 0.961 . S
C2264 C2265 1.370 . S
C2264 C2266 1.363 1_556 S
C2264 H2280 0.931 . S
C2265 C2264 1.370 . S
C2265 C2269 1.408 . S
C2266 C2264 1.363 1_554 S
C2266 C2267 1.370 . S
C2266 C2270 1.524 . S
C2267 C2259 1.503 . S
C2267 C2266 1.370 . S
C2267 C2268 1.403 1_554 S
C2268 C2267 1.403 1_556 S
C2268 C2269 1.404 . S
C2268 C2271 1.539 . S
C2269 C2265 1.408 . S
C2269 C2268 1.404 . S
C2269 H2281 0.930 . S
C2270 C2266 1.524 . S
C2270 H2282 0.956 . S
C2270 H2283 0.961 . S
C2270 H2284 0.961 . S
C2271 C2268 1.539 . S
C2271 H2285 0.958 . S
C2271 H2286 0.961 . S
C2271 H2287 0.951 1_556 S
H2272 C2256 0.931 . S
H2273 C2261 0.929 . S
H2274 C2262 0.960 1_556 S
H2275 C2262 0.962 . S
H2276 C2262 0.960 . S
H2277 C2263 0.961 . S
H2278 C2263 0.961 . S
H2279 C2263 0.961 . S
H2280 C2264 0.931 . S
H2281 C2269 0.930 . S
H2282 C2270 0.956 . S
H2283 C2270 0.961 . S
H2284 C2270 0.961 . S
H2285 C2271 0.958 . S
H2286 C2271 0.961 . S
H2287 C2271 0.951 1_554 S
C2288 C2289 1.391 . S
C2288 C2290 1.394 . S
C2288 H2304 0.931 . S
C2289 C2288 1.391 . S
C2289 C2293 1.376 . S
C2290 C2288 1.394 . S
C2290 C2291 1.369 . S
C2290 C2294 1.531 . S
C2291 C2290 1.369 . S
C2291 C2292 1.410 . S
C2291 C2299 1.503 . S
C2292 C2291 1.410 . S
C2292 C2293 1.392 . S
C2292 C2295 1.511 . S
C2293 C2289 1.376 . S
C2293 C2292 1.392 . S
C2293 H2305 0.929 . S
C2294 C2290 1.531 . S
C2294 H2306 0.960 . S
C2294 H2307 0.962 . S
C2294 H2308 0.922 1_655 S
C2295 C2292 1.511 . S
C2295 H2309 0.961 . S
C2295 H2310 0.961 . S
C2295 H2311 0.961 . S
C2296 C2297 1.370 . S
C2296 C2298 1.363 . S
C2296 H2312 0.931 . S
C2297 C2296 1.370 . S
C2297 C2301 1.408 . S
C2298 C2296 1.363 . S
C2298 C2299 1.370 . S
C2298 C2302 1.524 . S
C2299 C2291 1.503 . S
C2299 C2298 1.370 . S
C2299 C2300 1.403 . S
C2300 C2299 1.403 . S
C2300 C2301 1.404 . S
C2300 C2303 1.539 . S
C2301 C2297 1.408 . S
C2301 C2300 1.404 . S
C2301 H2313 0.930 . S
C2302 C2298 1.524 . S
C2302 H2314 0.956 . S
C2302 H2315 0.961 . S
C2302 H2316 0.961 . S
C2303 C2300 1.539 . S
C2303 H2317 0.958 . S
C2303 H2318 0.961 . S
C2303 H2319 0.960 . S
H2304 C2288 0.931 . S
H2305 C2293 0.929 . S
H2306 C2294 0.960 . S
H2307 C2294 0.962 . S
H2308 C2294 0.922 1_455 S
H2309 C2295 0.961 . S
H2310 C2295 0.961 . S
H2311 C2295 0.961 . S
H2312 C2296 0.931 . S
H2313 C2301 0.930 . S
H2314 C2302 0.956 . S
H2315 C2302 0.961 . S
H2316 C2302 0.961 . S
H2317 C2303 0.958 . S
H2318 C2303 0.961 . S
H2319 C2303 0.960 . S
C2320 C2321 1.391 . S
C2320 C2322 1.394 . S
C2320 H2336 0.931 . S
C2321 C2320 1.391 . S
C2321 C2325 1.376 . S
C2322 C2320 1.394 . S
C2322 C2323 1.369 . S
C2322 C2326 1.531 . S
C2323 C2322 1.369 . S
C2323 C2324 1.410 . S
C2323 C2331 1.503 . S
C2324 C2323 1.410 . S
C2324 C2325 1.392 . S
C2324 C2327 1.511 . S
C2325 C2321 1.376 . S
C2325 C2324 1.392 . S
C2325 H2337 0.929 . S
C2326 C2322 1.531 . S
C2326 H2338 0.960 . S
C2326 H2339 0.962 . S
C2326 H2340 0.960 . S
C2327 C2324 1.511 . S
C2327 H2341 0.961 . S
C2327 H2342 0.961 . S
C2327 H2343 0.961 . S
C2328 C2329 1.370 . S
C2328 C2330 1.363 . S
C2328 H2344 0.931 . S
C2329 C2328 1.370 . S
C2329 C2333 1.408 . S
C2330 C2328 1.363 . S
C2330 C2331 1.370 . S
C2330 C2334 1.524 . S
C2331 C2323 1.503 . S
C2331 C2330 1.370 . S
C2331 C2332 1.403 . S
C2332 C2331 1.403 . S
C2332 C2333 1.404 . S
C2332 C2335 1.539 . S
C2333 C2329 1.408 . S
C2333 C2332 1.404 . S
C2333 H2345 0.930 . S
C2334 C2330 1.524 . S
C2334 H2346 0.956 . S
C2334 H2347 0.961 . S
C2334 H2348 0.961 . S
C2335 C2332 1.539 . S
C2335 H2349 0.958 . S
C2335 H2350 0.961 . S
C2335 H2351 0.960 . S
H2336 C2320 0.931 . S
H2337 C2325 0.929 . S
H2338 C2326 0.960 . S
H2339 C2326 0.962 . S
H2340 C2326 0.960 . S
H2341 C2327 0.961 . S
H2342 C2327 0.961 . S
H2343 C2327 0.961 . S
H2344 C2328 0.931 . S
H2345 C2333 0.930 . S
H2346 C2334 0.956 . S
H2347 C2334 0.961 . S
H2348 C2334 0.961 . S
H2349 C2335 0.958 . S
H2350 C2335 0.961 . S
H2351 C2335 0.960 . S
C2352 C2353 1.391 . S
C2352 C2354 1.394 . S
C2352 H2368 0.931 . S
C2353 C2352 1.391 . S
C2353 C2357 1.376 . S
C2354 C2352 1.394 . S
C2354 C2355 1.369 . S
C2354 C2358 1.531 . S
C2355 C2354 1.369 . S
C2355 C2356 1.410 . S
C2355 C2363 1.503 . S
C2356 C2355 1.410 . S
C2356 C2357 1.392 . S
C2356 C2359 1.511 . S
C2357 C2353 1.376 . S
C2357 C2356 1.392 . S
C2357 H2369 0.929 . S
C2358 C2354 1.531 . S
C2358 H2370 0.960 . S
C2358 H2371 0.962 . S
C2358 H2372 0.960 . S
C2359 C2356 1.511 . S
C2359 H2373 0.961 . S
C2359 H2374 0.961 . S
C2359 H2375 0.961 . S
C2360 C2361 1.370 . S
C2360 C2362 1.363 . S
C2360 H2376 0.931 . S
C2361 C2360 1.370 . S
C2361 C2365 1.408 . S
C2362 C2360 1.363 . S
C2362 C2363 1.370 . S
C2362 C2366 1.524 . S
C2363 C2355 1.503 . S
C2363 C2362 1.370 . S
C2363 C2364 1.403 . S
C2364 C2363 1.403 . S
C2364 C2365 1.404 . S
C2364 C2367 1.539 . S
C2365 C2361 1.408 . S
C2365 C2364 1.404 . S
C2365 H2377 0.930 . S
C2366 C2362 1.524 . S
C2366 H2378 0.956 . S
C2366 H2379 0.961 . S
C2366 H2380 0.961 . S
C2367 C2364 1.539 . S
C2367 H2381 0.958 . S
C2367 H2382 0.961 . S
C2367 H2383 0.960 . S
H2368 C2352 0.931 . S
H2369 C2357 0.929 . S
H2370 C2358 0.960 . S
H2371 C2358 0.962 . S
H2372 C2358 0.960 . S
H2373 C2359 0.961 . S
H2374 C2359 0.961 . S
H2375 C2359 0.961 . S
H2376 C2360 0.931 . S
H2377 C2365 0.930 . S
H2378 C2366 0.956 . S
H2379 C2366 0.961 . S
H2380 C2366 0.961 . S
H2381 C2367 0.958 . S
H2382 C2367 0.961 . S
H2383 C2367 0.960 . S
C2384 C2385 1.391 . S
C2384 C2386 1.394 . S
C2384 H2400 0.931 . S
C2385 C2384 1.391 . S
C2385 C2389 1.376 . S
C2386 C2384 1.394 . S
C2386 C2387 1.369 . S
C2386 C2390 1.531 . S
C2387 C2386 1.369 . S
C2387 C2388 1.410 . S
C2387 C2395 1.512 . S
C2388 C2387 1.410 . S
C2388 C2389 1.392 . S
C2388 C2391 1.511 . S
C2389 C2385 1.376 . S
C2389 C2388 1.392 . S
C2389 H2401 0.929 . S
C2390 C2386 1.531 . S
C2390 H2402 0.960 . S
C2390 H2403 0.962 . S
C2390 H2404 0.960 . S
C2391 C2388 1.511 . S
C2391 H2405 0.963 . S
C2391 H2406 0.961 1_556 S
C2391 H2407 0.961 . S
C2392 C2393 1.370 . S
C2392 C2394 1.363 . S
C2392 H2408 0.931 . S
C2393 C2392 1.370 . S
C2393 C2397 1.408 . S
C2394 C2392 1.363 . S
C2394 C2395 1.364 1_554 S
C2394 C2398 1.524 . S
C2395 C2387 1.512 . S
C2395 C2394 1.364 1_556 S
C2395 C2396 1.401 1_556 S
C2396 C2395 1.401 1_554 S
C2396 C2397 1.404 . S
C2396 C2399 1.539 1_554 S
C2397 C2393 1.408 . S
C2397 C2396 1.404 . S
C2397 H2409 0.930 . S
C2398 C2394 1.524 . S
C2398 H2410 0.956 1_554 S
C2398 H2411 0.961 . S
C2398 H2412 0.961 . S
C2399 C2396 1.539 1_556 S
C2399 H2413 0.958 . S
C2399 H2414 0.961 . S
C2399 H2415 0.960 . S
H2400 C2384 0.931 . S
H2401 C2389 0.929 . S
H2402 C2390 0.960 . S
H2403 C2390 0.962 . S
H2404 C2390 0.960 . S
H2405 C2391 0.963 . S
H2406 C2391 0.961 1_554 S
H2407 C2391 0.961 . S
H2408 C2392 0.931 . S
H2409 C2397 0.930 . S
H2410 C2398 0.956 1_556 S
H2411 C2398 0.961 . S
H2412 C2398 0.961 . S
H2413 C2399 0.958 . S
H2414 C2399 0.961 . S
H2415 C2399 0.960 . S
C2416 C2417 1.391 . S
C2416 C2418 1.394 . S
C2416 H2432 0.931 . S
C2417 C2416 1.391 . S
C2417 C2421 1.376 . S
C2418 C2416 1.394 . S
C2418 C2419 1.369 . S
C2418 C2422 1.531 . S
C2419 C2418 1.369 . S
C2419 C2420 1.410 . S
C2419 C2427 1.503 . S
C2420 C2419 1.410 . S
C2420 C2421 1.392 . S
C2420 C2423 1.511 . S
C2421 C2417 1.376 . S
C2421 C2420 1.392 . S
C2421 H2433 0.929 . S
C2422 C2418 1.531 . S
C2422 H2434 0.960 . S
C2422 H2435 0.962 . S
C2422 H2436 0.960 . S
C2423 C2420 1.511 . S
C2423 H2437 0.961 . S
C2423 H2438 0.961 . S
C2423 H2439 0.961 . S
C2424 C2425 1.370 . S
C2424 C2426 1.363 . S
C2424 H2440 0.931 . S
C2425 C2424 1.370 . S
C2425 C2429 1.408 . S
C2426 C2424 1.363 . S
C2426 C2427 1.370 . S
C2426 C2430 1.524 . S
C2427 C2419 1.503 . S
C2427 C2426 1.370 . S
C2427 C2428 1.403 . S
C2428 C2427 1.403 . S
C2428 C2429 1.404 . S
C2428 C2431 1.539 . S
C2429 C2425 1.408 . S
C2429 C2428 1.404 . S
C2429 H2441 0.930 . S
C2430 C2426 1.524 . S
C2430 H2442 0.956 . S
C2430 H2443 0.961 . S
C2430 H2444 0.961 . S
C2431 C2428 1.539 . S
C2431 H2445 0.958 . S
C2431 H2446 0.961 . S
C2431 H2447 0.960 . S
H2432 C2416 0.931 . S
H2433 C2421 0.929 . S
H2434 C2422 0.960 . S
H2435 C2422 0.962 . S
H2436 C2422 0.960 . S
H2437 C2423 0.961 . S
H2438 C2423 0.961 . S
H2439 C2423 0.961 . S
H2440 C2424 0.931 . S
H2441 C2429 0.930 . S
H2442 C2430 0.956 . S
H2443 C2430 0.961 . S
H2444 C2430 0.961 . S
H2445 C2431 0.958 . S
H2446 C2431 0.961 . S
H2447 C2431 0.960 . S
C2448 C2449 1.391 . S
C2448 C2450 1.394 . S
C2448 H2464 0.931 . S
C2449 C2448 1.391 . S
C2449 C2453 1.376 . S
C2450 C2448 1.394 . S
C2450 C2451 1.369 . S
C2450 C2454 1.531 . S
C2451 C2450 1.369 . S
C2451 C2452 1.410 . S
C2451 C2459 1.503 . S
C2452 C2451 1.410 . S
C2452 C2453 1.392 . S
C2452 C2455 1.511 . S
C2453 C2449 1.376 . S
C2453 C2452 1.392 . S
C2453 H2465 0.929 . S
C2454 C2450 1.531 . S
C2454 H2466 0.960 . S
C2454 H2467 0.962 . S
C2454 H2468 0.960 . S
C2455 C2452 1.511 . S
C2455 H2469 0.961 . S
C2455 H2470 0.961 . S
C2455 H2471 0.961 . S
C2456 C2457 1.370 . S
C2456 C2458 1.363 . S
C2456 H2472 0.931 . S
C2457 C2456 1.370 . S
C2457 C2461 1.408 . S
C2458 C2456 1.363 . S
C2458 C2459 1.370 . S
C2458 C2462 1.524 . S
C2459 C2451 1.503 . S
C2459 C2458 1.370 . S
C2459 C2460 1.403 . S
C2460 C2459 1.403 . S
C2460 C2461 1.404 . S
C2460 C2463 1.539 . S
C2461 C2457 1.408 . S
C2461 C2460 1.404 . S
C2461 H2473 0.930 . S
C2462 C2458 1.524 . S
C2462 H2474 0.956 . S
C2462 H2475 0.961 . S
C2462 H2476 0.961 . S
C2463 C2460 1.539 . S
C2463 H2477 0.958 . S
C2463 H2478 0.961 . S
C2463 H2479 0.960 . S
H2464 C2448 0.931 . S
H2465 C2453 0.929 . S
H2466 C2454 0.960 . S
H2467 C2454 0.962 . S
H2468 C2454 0.960 . S
H2469 C2455 0.961 . S
H2470 C2455 0.961 . S
H2471 C2455 0.961 . S
H2472 C2456 0.931 . S
H2473 C2461 0.930 . S
H2474 C2462 0.956 . S
H2475 C2462 0.961 . S
H2476 C2462 0.961 . S
H2477 C2463 0.958 . S
H2478 C2463 0.961 . S
H2479 C2463 0.960 . S
C2480 C2481 1.391 . S
C2480 C2482 1.394 . S
C2480 H2496 0.931 . S
C2481 C2480 1.391 . S
C2481 C2485 1.376 . S
C2482 C2480 1.394 . S
C2482 C2483 1.369 . S
C2482 C2486 1.531 . S
C2483 C2482 1.369 . S
C2483 C2484 1.410 . S
C2483 C2491 1.503 . S
C2484 C2483 1.410 . S
C2484 C2485 1.392 . S
C2484 C2487 1.511 . S
C2485 C2481 1.376 . S
C2485 C2484 1.392 . S
C2485 H2497 0.929 . S
C2486 C2482 1.531 . S
C2486 H2498 0.960 . S
C2486 H2499 0.962 . S
C2486 H2500 0.960 . S
C2487 C2484 1.511 . S
C2487 H2501 0.961 . S
C2487 H2502 0.961 . S
C2487 H2503 0.961 . S
C2488 C2489 1.370 . S
C2488 C2490 1.363 . S
C2488 H2504 0.931 . S
C2489 C2488 1.370 . S
C2489 C2493 1.408 . S
C2490 C2488 1.363 . S
C2490 C2491 1.370 . S
C2490 C2494 1.524 . S
C2491 C2483 1.503 . S
C2491 C2490 1.370 . S
C2491 C2492 1.403 . S
C2492 C2491 1.403 . S
C2492 C2493 1.404 . S
C2492 C2495 1.539 . S
C2493 C2489 1.408 . S
C2493 C2492 1.404 . S
C2493 H2505 0.930 . S
C2494 C2490 1.524 . S
C2494 H2506 0.956 . S
C2494 H2507 0.961 . S
C2494 H2508 0.961 . S
C2495 C2492 1.539 . S
C2495 H2509 0.958 . S
C2495 H2510 0.961 . S
C2495 H2511 0.960 . S
H2496 C2480 0.931 . S
H2497 C2485 0.929 . S
H2498 C2486 0.960 . S
H2499 C2486 0.962 . S
H2500 C2486 0.960 . S
H2501 C2487 0.961 . S
H2502 C2487 0.961 . S
H2503 C2487 0.961 . S
H2504 C2488 0.931 . S
H2505 C2493 0.930 . S
H2506 C2494 0.956 . S
H2507 C2494 0.961 . S
H2508 C2494 0.961 . S
H2509 C2495 0.958 . S
H2510 C2495 0.961 . S
H2511 C2495 0.960 . S
C2512 C2513 1.391 . S
C2512 C2514 1.394 . S
C2512 H2528 0.931 . S
C2513 C2512 1.391 . S
C2513 C2517 1.376 . S
C2514 C2512 1.394 . S
C2514 C2515 1.369 . S
C2514 C2518 1.531 . S
C2515 C2514 1.369 . S
C2515 C2516 1.410 . S
C2515 C2523 1.503 . S
C2516 C2515 1.410 . S
C2516 C2517 1.392 . S
C2516 C2519 1.511 . S
C2517 C2513 1.376 . S
C2517 C2516 1.392 . S
C2517 H2529 0.929 . S
C2518 C2514 1.531 . S
C2518 H2530 0.960 . S
C2518 H2531 0.962 . S
C2518 H2532 0.960 . S
C2519 C2516 1.511 . S
C2519 H2533 0.961 . S
C2519 H2534 0.961 . S
C2519 H2535 0.961 . S
C2520 C2521 1.370 . S
C2520 C2522 1.363 . S
C2520 H2536 0.931 . S
C2521 C2520 1.370 . S
C2521 C2525 1.408 . S
C2522 C2520 1.363 . S
C2522 C2523 1.370 . S
C2522 C2526 1.524 . S
C2523 C2515 1.503 . S
C2523 C2522 1.370 . S
C2523 C2524 1.403 . S
C2524 C2523 1.403 . S
C2524 C2525 1.404 . S
C2524 C2527 1.539 . S
C2525 C2521 1.408 . S
C2525 C2524 1.404 . S
C2525 H2537 0.930 . S
C2526 C2522 1.524 . S
C2526 H2538 0.956 . S
C2526 H2539 0.961 . S
C2526 H2540 0.961 . S
C2527 C2524 1.539 . S
C2527 H2541 0.958 . S
C2527 H2542 0.961 . S
C2527 H2543 0.960 . S
H2528 C2512 0.931 . S
H2529 C2517 0.929 . S
H2530 C2518 0.960 . S
H2531 C2518 0.962 . S
H2532 C2518 0.960 . S
H2533 C2519 0.961 . S
H2534 C2519 0.961 . S
H2535 C2519 0.961 . S
H2536 C2520 0.931 . S
H2537 C2525 0.930 . S
H2538 C2526 0.956 . S
H2539 C2526 0.961 . S
H2540 C2526 0.961 . S
H2541 C2527 0.958 . S
H2542 C2527 0.961 . S
H2543 C2527 0.960 . S
C2544 C2545 1.391 . S
C2544 C2546 1.394 . S
C2544 H2560 0.931 . S
C2545 C2544 1.391 . S
C2545 C2549 1.376 . S
C2546 C2544 1.394 . S
C2546 C2547 1.369 . S
C2546 C2550 1.531 . S
C2547 C2546 1.369 . S
C2547 C2548 1.410 . S
C2547 C2555 1.503 . S
C2548 C2547 1.410 . S
C2548 C2549 1.392 . S
C2548 C2551 1.511 . S
C2549 C2545 1.376 . S
C2549 C2548 1.392 . S
C2549 H2561 0.929 . S
C2550 C2546 1.531 . S
C2550 H2562 0.960 . S
C2550 H2563 0.962 . S
C2550 H2564 0.960 . S
C2551 C2548 1.511 . S
C2551 H2565 0.961 . S
C2551 H2566 0.961 . S
C2551 H2567 0.961 . S
C2552 C2553 1.370 . S
C2552 C2554 1.363 . S
C2552 H2568 0.931 . S
C2553 C2552 1.370 . S
C2553 C2557 1.408 . S
C2554 C2552 1.363 . S
C2554 C2555 1.370 . S
C2554 C2558 1.524 . S
C2555 C2547 1.503 . S
C2555 C2554 1.370 . S
C2555 C2556 1.403 . S
C2556 C2555 1.403 . S
C2556 C2557 1.404 . S
C2556 C2559 1.539 . S
C2557 C2553 1.408 . S
C2557 C2556 1.404 . S
C2557 H2569 0.930 . S
C2558 C2554 1.524 . S
C2558 H2570 0.956 . S
C2558 H2571 0.961 . S
C2558 H2572 0.961 . S
C2559 C2556 1.539 . S
C2559 H2573 0.958 . S
C2559 H2574 0.961 . S
C2559 H2575 0.960 . S
H2560 C2544 0.931 . S
H2561 C2549 0.929 . S
H2562 C2550 0.960 . S
H2563 C2550 0.962 . S
H2564 C2550 0.960 . S
H2565 C2551 0.961 . S
H2566 C2551 0.961 . S
H2567 C2551 0.961 . S
H2568 C2552 0.931 . S
H2569 C2557 0.930 . S
H2570 C2558 0.956 . S
H2571 C2558 0.961 . S
H2572 C2558 0.961 . S
H2573 C2559 0.958 . S
H2574 C2559 0.961 . S
H2575 C2559 0.960 . S
C2576 C2577 1.391 . S
C2576 C2578 1.394 . S
C2576 H2592 0.931 . S
C2577 C2576 1.391 . S
C2577 C2581 1.376 . S
C2578 C2576 1.394 . S
C2578 C2579 1.369 . S
C2578 C2582 1.531 . S
C2579 C2578 1.369 . S
C2579 C2580 1.410 . S
C2579 C2587 1.503 . S
C2580 C2579 1.410 . S
C2580 C2581 1.392 . S
C2580 C2583 1.511 . S
C2581 C2577 1.376 . S
C2581 C2580 1.392 . S
C2581 H2593 0.929 . S
C2582 C2578 1.531 . S
C2582 H2594 0.960 . S
C2582 H2595 0.962 . S
C2582 H2596 0.960 . S
C2583 C2580 1.511 . S
C2583 H2597 0.961 . S
C2583 H2598 0.961 . S
C2583 H2599 0.961 . S
C2584 C2585 1.370 . S
C2584 C2586 1.363 . S
C2584 H2600 0.931 . S
C2585 C2584 1.370 . S
C2585 C2589 1.408 . S
C2586 C2584 1.363 . S
C2586 C2587 1.370 . S
C2586 C2590 1.524 . S
C2587 C2579 1.503 . S
C2587 C2586 1.370 . S
C2587 C2588 1.403 . S
C2588 C2587 1.403 . S
C2588 C2589 1.404 . S
C2588 C2591 1.539 . S
C2589 C2585 1.408 . S
C2589 C2588 1.404 . S
C2589 H2601 0.930 . S
C2590 C2586 1.524 . S
C2590 H2602 0.956 . S
C2590 H2603 0.961 . S
C2590 H2604 0.961 . S
C2591 C2588 1.539 . S
C2591 H2605 0.958 . S
C2591 H2606 0.961 . S
C2591 H2607 0.960 . S
H2592 C2576 0.931 . S
H2593 C2581 0.929 . S
H2594 C2582 0.960 . S
H2595 C2582 0.962 . S
H2596 C2582 0.960 . S
H2597 C2583 0.961 . S
H2598 C2583 0.961 . S
H2599 C2583 0.961 . S
H2600 C2584 0.931 . S
H2601 C2589 0.930 . S
H2602 C2590 0.956 . S
H2603 C2590 0.961 . S
H2604 C2590 0.961 . S
H2605 C2591 0.958 . S
H2606 C2591 0.961 . S
H2607 C2591 0.960 . S
C2608 C2609 1.391 . S
C2608 C2610 1.394 . S
C2608 H2624 0.931 . S
C2609 C2608 1.391 . S
C2609 C2613 1.376 . S
C2610 C2608 1.394 . S
C2610 C2611 1.369 . S
C2610 C2614 1.531 . S
C2611 C2610 1.369 . S
C2611 C2612 1.410 . S
C2611 C2619 1.503 . S
C2612 C2611 1.410 . S
C2612 C2613 1.392 . S
C2612 C2615 1.511 . S
C2613 C2609 1.376 . S
C2613 C2612 1.392 . S
C2613 H2625 0.929 . S
C2614 C2610 1.531 . S
C2614 H2626 0.960 . S
C2614 H2627 0.962 . S
C2614 H2628 0.960 . S
C2615 C2612 1.511 . S
C2615 H2629 0.961 . S
C2615 H2630 0.961 . S
C2615 H2631 0.961 . S
C2616 C2617 1.370 . S
C2616 C2618 1.363 . S
C2616 H2632 0.931 . S
C2617 C2616 1.370 . S
C2617 C2621 1.408 . S
C2618 C2616 1.363 . S
C2618 C2619 1.370 . S
C2618 C2622 1.524 . S
C2619 C2611 1.503 . S
C2619 C2618 1.370 . S
C2619 C2620 1.403 . S
C2620 C2619 1.403 . S
C2620 C2621 1.404 . S
C2620 C2623 1.539 . S
C2621 C2617 1.408 . S
C2621 C2620 1.404 . S
C2621 H2633 0.930 . S
C2622 C2618 1.524 . S
C2622 H2634 0.956 . S
C2622 H2635 0.961 . S
C2622 H2636 0.961 . S
C2623 C2620 1.539 . S
C2623 H2637 0.958 . S
C2623 H2638 0.961 . S
C2623 H2639 0.960 . S
H2624 C2608 0.931 . S
H2625 C2613 0.929 . S
H2626 C2614 0.960 . S
H2627 C2614 0.962 . S
H2628 C2614 0.960 . S
H2629 C2615 0.961 . S
H2630 C2615 0.961 . S
H2631 C2615 0.961 . S
H2632 C2616 0.931 . S
H2633 C2621 0.930 . S
H2634 C2622 0.956 . S
H2635 C2622 0.961 . S
H2636 C2622 0.961 . S
H2637 C2623 0.958 . S
H2638 C2623 0.961 . S
H2639 C2623 0.960 . S
C2640 C2641 1.391 . S
C2640 C2642 1.394 . S
C2640 H2656 0.931 . S
C2641 C2640 1.391 . S
C2641 C2645 1.376 . S
C2642 C2640 1.394 . S
C2642 C2643 1.369 . S
C2642 C2646 1.531 . S
C2643 C2642 1.369 . S
C2643 C2644 1.410 . S
C2643 C2651 1.503 . S
C2644 C2643 1.410 . S
C2644 C2645 1.392 . S
C2644 C2647 1.511 . S
C2645 C2641 1.376 . S
C2645 C2644 1.392 . S
C2645 H2657 0.929 . S
C2646 C2642 1.531 . S
C2646 H2658 0.960 . S
C2646 H2659 0.962 . S
C2646 H2660 0.960 . S
C2647 C2644 1.511 . S
C2647 H2661 0.961 . S
C2647 H2662 0.961 . S
C2647 H2663 0.961 . S
C2648 C2649 1.370 . S
C2648 C2650 1.363 . S
C2648 H2664 0.931 . S
C2649 C2648 1.370 . S
C2649 C2653 1.408 . S
C2650 C2648 1.363 . S
C2650 C2651 1.370 . S
C2650 C2654 1.524 . S
C2651 C2643 1.503 . S
C2651 C2650 1.370 . S
C2651 C2652 1.403 . S
C2652 C2651 1.403 . S
C2652 C2653 1.404 . S
C2652 C2655 1.539 . S
C2653 C2649 1.408 . S
C2653 C2652 1.404 . S
C2653 H2665 0.930 . S
C2654 C2650 1.524 . S
C2654 H2666 0.956 . S
C2654 H2667 0.961 . S
C2654 H2668 0.961 . S
C2655 C2652 1.539 . S
C2655 H2669 0.958 . S
C2655 H2670 0.961 . S
C2655 H2671 0.960 . S
H2656 C2640 0.931 . S
H2657 C2645 0.929 . S
H2658 C2646 0.960 . S
H2659 C2646 0.962 . S
H2660 C2646 0.960 . S
H2661 C2647 0.961 . S
H2662 C2647 0.961 . S
H2663 C2647 0.961 . S
H2664 C2648 0.931 . S
H2665 C2653 0.930 . S
H2666 C2654 0.956 . S
H2667 C2654 0.961 . S
H2668 C2654 0.961 . S
H2669 C2655 0.958 . S
H2670 C2655 0.961 . S
H2671 C2655 0.960 . S
C2672 C2673 1.391 . S
C2672 C2674 1.394 . S
C2672 H2688 0.931 . S
C2673 C2672 1.391 . S
C2673 C2677 1.376 . S
C2674 C2672 1.394 . S
C2674 C2675 1.369 . S
C2674 C2678 1.531 . S
C2675 C2674 1.369 . S
C2675 C2676 1.410 . S
C2675 C2683 1.503 . S
C2676 C2675 1.410 . S
C2676 C2677 1.392 . S
C2676 C2679 1.511 . S
C2677 C2673 1.376 . S
C2677 C2676 1.392 . S
C2677 H2689 0.929 . S
C2678 C2674 1.531 . S
C2678 H2690 0.960 . S
C2678 H2691 0.962 . S
C2678 H2692 0.960 . S
C2679 C2676 1.511 . S
C2679 H2693 0.961 . S
C2679 H2694 0.961 . S
C2679 H2695 0.961 . S
C2680 C2681 1.370 . S
C2680 C2682 1.363 . S
C2680 H2696 0.931 . S
C2681 C2680 1.370 . S
C2681 C2685 1.408 . S
C2682 C2680 1.363 . S
C2682 C2683 1.370 . S
C2682 C2686 1.524 . S
C2683 C2675 1.503 . S
C2683 C2682 1.370 . S
C2683 C2684 1.403 . S
C2684 C2683 1.403 . S
C2684 C2685 1.404 . S
C2684 C2687 1.539 . S
C2685 C2681 1.408 . S
C2685 C2684 1.404 . S
C2685 H2697 0.930 . S
C2686 C2682 1.524 . S
C2686 H2698 0.956 . S
C2686 H2699 0.961 . S
C2686 H2700 0.961 . S
C2687 C2684 1.539 . S
C2687 H2701 0.958 . S
C2687 H2702 0.961 . S
C2687 H2703 0.960 . S
H2688 C2672 0.931 . S
H2689 C2677 0.929 . S
H2690 C2678 0.960 . S
H2691 C2678 0.962 . S
H2692 C2678 0.960 . S
H2693 C2679 0.961 . S
H2694 C2679 0.961 . S
H2695 C2679 0.961 . S
H2696 C2680 0.931 . S
H2697 C2685 0.930 . S
H2698 C2686 0.956 . S
H2699 C2686 0.961 . S
H2700 C2686 0.961 . S
H2701 C2687 0.958 . S
H2702 C2687 0.961 . S
H2703 C2687 0.960 . S
C2704 C2705 1.391 . S
C2704 C2706 1.394 . S
C2704 H2720 0.931 . S
C2705 C2704 1.391 . S
C2705 C2709 1.376 . S
C2706 C2704 1.394 . S
C2706 C2707 1.369 . S
C2706 C2710 1.531 . S
C2707 C2706 1.369 . S
C2707 C2708 1.410 . S
C2707 C2715 1.503 . S
C2708 C2707 1.410 . S
C2708 C2709 1.392 . S
C2708 C2711 1.511 . S
C2709 C2705 1.376 . S
C2709 C2708 1.392 . S
C2709 H2721 0.929 . S
C2710 C2706 1.531 . S
C2710 H2722 0.960 . S
C2710 H2723 0.962 . S
C2710 H2724 0.960 . S
C2711 C2708 1.511 . S
C2711 H2725 0.961 . S
C2711 H2726 0.961 . S
C2711 H2727 0.961 . S
C2712 C2713 1.370 . S
C2712 C2714 1.363 . S
C2712 H2728 0.931 . S
C2713 C2712 1.370 . S
C2713 C2717 1.408 . S
C2714 C2712 1.363 . S
C2714 C2715 1.370 . S
C2714 C2718 1.524 . S
C2715 C2707 1.503 . S
C2715 C2714 1.370 . S
C2715 C2716 1.403 . S
C2716 C2715 1.403 . S
C2716 C2717 1.404 . S
C2716 C2719 1.539 . S
C2717 C2713 1.408 . S
C2717 C2716 1.404 . S
C2717 H2729 0.930 . S
C2718 C2714 1.524 . S
C2718 H2730 0.956 . S
C2718 H2731 0.961 . S
C2718 H2732 0.961 . S
C2719 C2716 1.539 . S
C2719 H2733 0.958 . S
C2719 H2734 0.961 . S
C2719 H2735 0.960 . S
H2720 C2704 0.931 . S
H2721 C2709 0.929 . S
H2722 C2710 0.960 . S
H2723 C2710 0.962 . S
H2724 C2710 0.960 . S
H2725 C2711 0.961 . S
H2726 C2711 0.961 . S
H2727 C2711 0.961 . S
H2728 C2712 0.931 . S
H2729 C2717 0.930 . S
H2730 C2718 0.956 . S
H2731 C2718 0.961 . S
H2732 C2718 0.961 . S
H2733 C2719 0.958 . S
H2734 C2719 0.961 . S
H2735 C2719 0.960 . S
C2736 C2737 1.391 . S
C2736 C2738 1.394 . S
C2736 H2752 0.931 . S
C2737 C2736 1.391 . S
C2737 C2741 1.376 . S
C2738 C2736 1.394 . S
C2738 C2739 1.369 . S
C2738 C2742 1.531 . S
C2739 C2738 1.369 . S
C2739 C2740 1.410 . S
C2739 C2747 1.503 . S
C2740 C2739 1.410 . S
C2740 C2741 1.392 . S
C2740 C2743 1.511 . S
C2741 C2737 1.376 . S
C2741 C2740 1.392 . S
C2741 H2753 0.929 . S
C2742 C2738 1.531 . S
C2742 H2754 0.960 . S
C2742 H2755 0.962 . S
C2742 H2756 0.960 . S
C2743 C2740 1.511 . S
C2743 H2757 0.961 . S
C2743 H2758 0.961 . S
C2743 H2759 0.961 . S
C2744 C2745 1.370 . S
C2744 C2746 1.363 . S
C2744 H2760 0.931 . S
C2745 C2744 1.370 . S
C2745 C2749 1.408 . S
C2746 C2744 1.363 . S
C2746 C2747 1.370 . S
C2746 C2750 1.524 . S
C2747 C2739 1.503 . S
C2747 C2746 1.370 . S
C2747 C2748 1.403 . S
C2748 C2747 1.403 . S
C2748 C2749 1.404 . S
C2748 C2751 1.539 . S
C2749 C2745 1.408 . S
C2749 C2748 1.404 . S
C2749 H2761 0.930 . S
C2750 C2746 1.524 . S
C2750 H2762 0.956 . S
C2750 H2763 0.961 . S
C2750 H2764 0.961 . S
C2751 C2748 1.539 . S
C2751 H2765 0.958 . S
C2751 H2766 0.961 . S
C2751 H2767 0.960 . S
H2752 C2736 0.931 . S
H2753 C2741 0.929 . S
H2754 C2742 0.960 . S
H2755 C2742 0.962 . S
H2756 C2742 0.960 . S
H2757 C2743 0.961 . S
H2758 C2743 0.961 . S
H2759 C2743 0.961 . S
H2760 C2744 0.931 . S
H2761 C2749 0.930 . S
H2762 C2750 0.956 . S
H2763 C2750 0.961 . S
H2764 C2750 0.961 . S
H2765 C2751 0.958 . S
H2766 C2751 0.961 . S
H2767 C2751 0.960 . S
C2768 C2769 1.391 . S
C2768 C2770 1.394 . S
C2768 H2784 0.931 . S
C2769 C2768 1.391 . S
C2769 C2773 1.376 . S
C2770 C2768 1.394 . S
C2770 C2771 1.369 . S
C2770 C2774 1.531 . S
C2771 C2770 1.369 . S
C2771 C2772 1.410 . S
C2771 C2779 1.503 . S
C2772 C2771 1.410 . S
C2772 C2773 1.392 . S
C2772 C2775 1.511 . S
C2773 C2769 1.376 . S
C2773 C2772 1.392 . S
C2773 H2785 0.929 . S
C2774 C2770 1.531 . S
C2774 H2786 0.960 . S
C2774 H2787 0.962 . S
C2774 H2788 0.960 . S
C2775 C2772 1.511 . S
C2775 H2789 0.961 . S
C2775 H2790 0.961 . S
C2775 H2791 0.961 . S
C2776 C2777 1.370 . S
C2776 C2778 1.363 . S
C2776 H2792 0.931 . S
C2777 C2776 1.370 . S
C2777 C2781 1.408 . S
C2778 C2776 1.363 . S
C2778 C2779 1.370 . S
C2778 C2782 1.524 . S
C2779 C2771 1.503 . S
C2779 C2778 1.370 . S
C2779 C2780 1.403 . S
C2780 C2779 1.403 . S
C2780 C2781 1.404 . S
C2780 C2783 1.539 . S
C2781 C2777 1.408 . S
C2781 C2780 1.404 . S
C2781 H2793 0.930 . S
C2782 C2778 1.524 . S
C2782 H2794 0.956 . S
C2782 H2795 0.961 . S
C2782 H2796 0.961 . S
C2783 C2780 1.539 . S
C2783 H2797 0.958 . S
C2783 H2798 0.961 . S
C2783 H2799 0.960 . S
H2784 C2768 0.931 . S
H2785 C2773 0.929 . S
H2786 C2774 0.960 . S
H2787 C2774 0.962 . S
H2788 C2774 0.960 . S
H2789 C2775 0.961 . S
H2790 C2775 0.961 . S
H2791 C2775 0.961 . S
H2792 C2776 0.931 . S
H2793 C2781 0.930 . S
H2794 C2782 0.956 . S
H2795 C2782 0.961 . S
H2796 C2782 0.961 . S
H2797 C2783 0.958 . S
H2798 C2783 0.961 . S
H2799 C2783 0.960 . S
C2800 C2801 1.391 . S
C2800 C2802 1.394 . S
C2800 H2816 0.931 . S
C2801 C2800 1.391 . S
C2801 C2805 1.376 . S
C2802 C2800 1.394 . S
C2802 C2803 1.369 . S
C2802 C2806 1.531 . S
C2803 C2802 1.369 . S
C2803 C2804 1.410 . S
C2803 C2811 1.503 . S
C2804 C2803 1.410 . S
C2804 C2805 1.392 . S
C2804 C2807 1.511 . S
C2805 C2801 1.376 . S
C2805 C2804 1.392 . S
C2805 H2817 0.929 . S
C2806 C2802 1.531 . S
C2806 H2818 0.960 . S
C2806 H2819 0.962 . S
C2806 H2820 0.960 . S
C2807 C2804 1.511 . S
C2807 H2821 0.961 . S
C2807 H2822 0.961 . S
C2807 H2823 0.961 . S
C2808 C2809 1.370 . S
C2808 C2810 1.363 . S
C2808 H2824 0.931 . S
C2809 C2808 1.370 . S
C2809 C2813 1.408 . S
C2810 C2808 1.363 . S
C2810 C2811 1.370 . S
C2810 C2814 1.524 . S
C2811 C2803 1.503 . S
C2811 C2810 1.370 . S
C2811 C2812 1.403 . S
C2812 C2811 1.403 . S
C2812 C2813 1.404 . S
C2812 C2815 1.539 . S
C2813 C2809 1.408 . S
C2813 C2812 1.404 . S
C2813 H2825 0.930 . S
C2814 C2810 1.524 . S
C2814 H2826 0.956 . S
C2814 H2827 0.961 . S
C2814 H2828 0.961 . S
C2815 C2812 1.539 . S
C2815 H2829 0.958 . S
C2815 H2830 0.961 . S
C2815 H2831 0.960 . S
H2816 C2800 0.931 . S
H2817 C2805 0.929 . S
H2818 C2806 0.960 . S
H2819 C2806 0.962 . S
H2820 C2806 0.960 . S
H2821 C2807 0.961 . S
H2822 C2807 0.961 . S
H2823 C2807 0.961 . S
H2824 C2808 0.931 . S
H2825 C2813 0.930 . S
H2826 C2814 0.956 . S
H2827 C2814 0.961 . S
H2828 C2814 0.961 . S
H2829 C2815 0.958 . S
H2830 C2815 0.961 . S
H2831 C2815 0.960 . S
C2832 C2833 1.391 . S
C2832 C2834 1.394 . S
C2832 H2848 0.931 . S
C2833 C2832 1.391 . S
C2833 C2837 1.376 . S
C2834 C2832 1.394 . S
C2834 C2835 1.369 . S
C2834 C2838 1.531 . S
C2835 C2834 1.369 . S
C2835 C2836 1.410 . S
C2835 C2843 1.503 . S
C2836 C2835 1.410 . S
C2836 C2837 1.392 . S
C2836 C2839 1.511 . S
C2837 C2833 1.376 . S
C2837 C2836 1.392 . S
C2837 H2849 0.929 . S
C2838 C2834 1.531 . S
C2838 H2850 0.960 . S
C2838 H2851 0.962 . S
C2838 H2852 0.960 . S
C2839 C2836 1.511 . S
C2839 H2853 0.961 . S
C2839 H2854 0.961 . S
C2839 H2855 0.961 . S
C2840 C2841 1.370 . S
C2840 C2842 1.363 . S
C2840 H2856 0.931 . S
C2841 C2840 1.370 . S
C2841 C2845 1.408 . S
C2842 C2840 1.363 . S
C2842 C2843 1.370 . S
C2842 C2846 1.524 . S
C2843 C2835 1.503 . S
C2843 C2842 1.370 . S
C2843 C2844 1.403 . S
C2844 C2843 1.403 . S
C2844 C2845 1.404 . S
C2844 C2847 1.539 . S
C2845 C2841 1.408 . S
C2845 C2844 1.404 . S
C2845 H2857 0.930 . S
C2846 C2842 1.524 . S
C2846 H2858 0.956 . S
C2846 H2859 0.961 . S
C2846 H2860 0.961 . S
C2847 C2844 1.539 . S
C2847 H2861 0.958 . S
C2847 H2862 0.961 . S
C2847 H2863 0.960 . S
H2848 C2832 0.931 . S
H2849 C2837 0.929 . S
H2850 C2838 0.960 . S
H2851 C2838 0.962 . S
H2852 C2838 0.960 . S
H2853 C2839 0.961 . S
H2854 C2839 0.961 . S
H2855 C2839 0.961 . S
H2856 C2840 0.931 . S
H2857 C2845 0.930 . S
H2858 C2846 0.956 . S
H2859 C2846 0.961 . S
H2860 C2846 0.961 . S
H2861 C2847 0.958 . S
H2862 C2847 0.961 . S
H2863 C2847 0.960 . S
C2864 C2865 1.391 . S
C2864 C2866 1.394 . S
C2864 H2880 0.931 . S
C2865 C2864 1.391 . S
C2865 C2869 1.376 . S
C2866 C2864 1.394 . S
C2866 C2867 1.369 . S
C2866 C2870 1.531 . S
C2867 C2866 1.369 . S
C2867 C2868 1.410 . S
C2867 C2875 1.503 . S
C2868 C2867 1.410 . S
C2868 C2869 1.392 . S
C2868 C2871 1.511 . S
C2869 C2865 1.376 . S
C2869 C2868 1.392 . S
C2869 H2881 0.929 . S
C2870 C2866 1.531 . S
C2870 H2882 0.960 . S
C2870 H2883 0.962 . S
C2870 H2884 0.960 . S
C2871 C2868 1.511 . S
C2871 H2885 0.961 . S
C2871 H2886 0.961 . S
C2871 H2887 0.961 . S
C2872 C2873 1.370 . S
C2872 C2874 1.363 . S
C2872 H2888 0.931 . S
C2873 C2872 1.370 . S
C2873 C2877 1.408 . S
C2874 C2872 1.363 . S
C2874 C2875 1.370 . S
C2874 C2878 1.524 . S
C2875 C2867 1.503 . S
C2875 C2874 1.370 . S
C2875 C2876 1.403 . S
C2876 C2875 1.403 . S
C2876 C2877 1.404 . S
C2876 C2879 1.539 . S
C2877 C2873 1.408 . S
C2877 C2876 1.404 . S
C2877 H2889 0.930 . S
C2878 C2874 1.524 . S
C2878 H2890 0.956 . S
C2878 H2891 0.961 . S
C2878 H2892 0.961 . S
C2879 C2876 1.539 . S
C2879 H2893 0.958 . S
C2879 H2894 0.961 . S
C2879 H2895 0.960 . S
H2880 C2864 0.931 . S
H2881 C2869 0.929 . S
H2882 C2870 0.960 . S
H2883 C2870 0.962 . S
H2884 C2870 0.960 . S
H2885 C2871 0.961 . S
H2886 C2871 0.961 . S
H2887 C2871 0.961 . S
H2888 C2872 0.931 . S
H2889 C2877 0.930 . S
H2890 C2878 0.956 . S
H2891 C2878 0.961 . S
H2892 C2878 0.961 . S
H2893 C2879 0.958 . S
H2894 C2879 0.961 . S
H2895 C2879 0.960 . S
C2896 C2897 1.391 . S
C2896 C2898 1.394 . S
C2896 H2912 0.931 . S
C2897 C2896 1.391 . S
C2897 C2901 1.376 . S
C2898 C2896 1.394 . S
C2898 C2899 1.369 . S
C2898 C2902 1.531 . S
C2899 C2898 1.369 . S
C2899 C2900 1.410 . S
C2899 C2907 1.503 . S
C2900 C2899 1.410 . S
C2900 C2901 1.392 . S
C2900 C2903 1.511 . S
C2901 C2897 1.376 . S
C2901 C2900 1.392 . S
C2901 H2913 0.929 . S
C2902 C2898 1.531 . S
C2902 H2914 0.960 . S
C2902 H2915 0.962 . S
C2902 H2916 0.960 . S
C2903 C2900 1.511 . S
C2903 H2917 0.961 . S
C2903 H2918 0.961 . S
C2903 H2919 0.961 . S
C2904 C2905 1.370 . S
C2904 C2906 1.363 . S
C2904 H2920 0.931 . S
C2905 C2904 1.370 . S
C2905 C2909 1.408 . S
C2906 C2904 1.363 . S
C2906 C2907 1.370 . S
C2906 C2910 1.524 . S
C2907 C2899 1.503 . S
C2907 C2906 1.370 . S
C2907 C2908 1.403 . S
C2908 C2907 1.403 . S
C2908 C2909 1.404 . S
C2908 C2911 1.539 . S
C2909 C2905 1.408 . S
C2909 C2908 1.404 . S
C2909 H2921 0.930 . S
C2910 C2906 1.524 . S
C2910 H2922 0.956 . S
C2910 H2923 0.961 . S
C2910 H2924 0.961 . S
C2911 C2908 1.539 . S
C2911 H2925 0.958 . S
C2911 H2926 0.961 . S
C2911 H2927 0.960 . S
H2912 C2896 0.931 . S
H2913 C2901 0.929 . S
H2914 C2902 0.960 . S
H2915 C2902 0.962 . S
H2916 C2902 0.960 . S
H2917 C2903 0.961 . S
H2918 C2903 0.961 . S
H2919 C2903 0.961 . S
H2920 C2904 0.931 . S
H2921 C2909 0.930 . S
H2922 C2910 0.956 . S
H2923 C2910 0.961 . S
H2924 C2910 0.961 . S
H2925 C2911 0.958 . S
H2926 C2911 0.961 . S
H2927 C2911 0.960 . S
C2928 C2929 1.391 . S
C2928 C2930 1.394 . S
C2928 H2944 0.931 . S
C2929 C2928 1.391 . S
C2929 C2933 1.376 . S
C2930 C2928 1.394 . S
C2930 C2931 1.369 . S
C2930 C2934 1.531 . S
C2931 C2930 1.369 . S
C2931 C2932 1.410 . S
C2931 C2939 1.503 . S
C2932 C2931 1.410 . S
C2932 C2933 1.392 . S
C2932 C2935 1.511 . S
C2933 C2929 1.376 . S
C2933 C2932 1.392 . S
C2933 H2945 0.929 . S
C2934 C2930 1.531 . S
C2934 H2946 0.960 . S
C2934 H2947 0.962 . S
C2934 H2948 0.960 . S
C2935 C2932 1.511 . S
C2935 H2949 0.961 . S
C2935 H2950 0.961 . S
C2935 H2951 0.961 . S
C2936 C2937 1.370 . S
C2936 C2938 1.363 . S
C2936 H2952 0.931 . S
C2937 C2936 1.370 . S
C2937 C2941 1.408 . S
C2938 C2936 1.363 . S
C2938 C2939 1.370 . S
C2938 C2942 1.524 . S
C2939 C2931 1.503 . S
C2939 C2938 1.370 . S
C2939 C2940 1.403 . S
C2940 C2939 1.403 . S
C2940 C2941 1.404 . S
C2940 C2943 1.539 . S
C2941 C2937 1.408 . S
C2941 C2940 1.404 . S
C2941 H2953 0.930 . S
C2942 C2938 1.524 . S
C2942 H2954 0.956 . S
C2942 H2955 0.961 . S
C2942 H2956 0.961 . S
C2943 C2940 1.539 . S
C2943 H2957 0.958 . S
C2943 H2958 0.961 . S
C2943 H2959 0.960 . S
H2944 C2928 0.931 . S
H2945 C2933 0.929 . S
H2946 C2934 0.960 . S
H2947 C2934 0.962 . S
H2948 C2934 0.960 . S
H2949 C2935 0.961 . S
H2950 C2935 0.961 . S
H2951 C2935 0.961 . S
H2952 C2936 0.931 . S
H2953 C2941 0.930 . S
H2954 C2942 0.956 . S
H2955 C2942 0.961 . S
H2956 C2942 0.961 . S
H2957 C2943 0.958 . S
H2958 C2943 0.961 . S
H2959 C2943 0.960 . S
C2960 C2961 1.391 . S
C2960 C2962 1.394 . S
C2960 H2976 0.931 . S
C2961 C2960 1.391 . S
C2961 C2965 1.376 . S
C2962 C2960 1.394 . S
C2962 C2963 1.369 . S
C2962 C2966 1.531 . S
C2963 C2962 1.369 . S
C2963 C2964 1.410 . S
C2963 C2971 1.503 . S
C2964 C2963 1.410 . S
C2964 C2965 1.392 . S
C2964 C2967 1.487 1_655 S
C2965 C2961 1.376 . S
C2965 C2964 1.392 . S
C2965 H2977 0.929 . S
C2966 C2962 1.531 . S
C2966 H2978 0.960 . S
C2966 H2979 0.962 . S
C2966 H2980 0.960 . S
C2967 C2964 1.487 1_455 S
C2967 H2981 0.963 . S
C2967 H2982 0.985 . S
C2967 H2983 0.960 1_455 S
C2968 C2969 1.370 . S
C2968 C2970 1.363 . S
C2968 H2984 0.931 . S
C2969 C2968 1.370 . S
C2969 C2973 1.408 . S
C2970 C2968 1.363 . S
C2970 C2971 1.370 1_455 S
C2970 C2974 1.524 . S
C2971 C2963 1.503 . S
C2971 C2970 1.370 1_655 S
C2971 C2972 1.403 1_655 S
C2972 C2971 1.403 1_455 S
C2972 C2973 1.404 . S
C2972 C2975 1.539 1_455 S
C2973 C2969 1.408 . S
C2973 C2972 1.404 . S
C2973 H2985 0.930 . S
C2974 C2970 1.524 . S
C2974 H2986 0.956 1_455 S
C2974 H2987 0.961 . S
C2974 H2988 0.961 . S
C2975 C2972 1.539 1_655 S
C2975 H2989 0.958 . S
C2975 H2990 0.961 . S
C2975 H2991 0.960 . S
H2976 C2960 0.931 . S
H2977 C2965 0.929 . S
H2978 C2966 0.960 . S
H2979 C2966 0.962 . S
H2980 C2966 0.960 . S
H2981 C2967 0.963 . S
H2982 C2967 0.985 . S
H2983 C2967 0.960 1_655 S
H2984 C2968 0.931 . S
H2985 C2973 0.930 . S
H2986 C2974 0.956 1_655 S
H2987 C2974 0.961 . S
H2988 C2974 0.961 . S
H2989 C2975 0.958 . S
H2990 C2975 0.961 . S
H2991 C2975 0.960 . S
C2992 C2993 1.391 . S
C2992 C2994 1.394 . S
C2992 H3008 0.931 . S
C2993 C2992 1.391 . S
C2993 C2997 1.376 . S
C2994 C2992 1.394 . S
C2994 C2995 1.369 . S
C2994 C2998 1.531 . S
C2995 C2994 1.369 . S
C2995 C2996 1.410 . S
C2995 C3003 1.503 . S
C2996 C2995 1.410 . S
C2996 C2997 1.392 . S
C2996 C2999 1.511 . S
C2997 C2993 1.376 . S
C2997 C2996 1.392 . S
C2997 H3009 0.929 . S
C2998 C2994 1.531 . S
C2998 H3010 0.960 . S
C2998 H3011 0.962 . S
C2998 H3012 0.960 . S
C2999 C2996 1.511 . S
C2999 H3013 0.961 . S
C2999 H3014 0.961 . S
C2999 H3015 0.961 . S
C3000 C3001 1.370 . S
C3000 C3002 1.363 . S
C3000 H3016 0.931 . S
C3001 C3000 1.370 . S
C3001 C3005 1.408 . S
C3002 C3000 1.363 . S
C3002 C3003 1.370 . S
C3002 C3006 1.524 . S
C3003 C2995 1.503 . S
C3003 C3002 1.370 . S
C3003 C3004 1.403 . S
C3004 C3003 1.403 . S
C3004 C3005 1.404 . S
C3004 C3007 1.539 . S
C3005 C3001 1.408 . S
C3005 C3004 1.404 . S
C3005 H3017 0.930 . S
C3006 C3002 1.524 . S
C3006 H3018 0.956 . S
C3006 H3019 0.961 . S
C3006 H3020 0.961 . S
C3007 C3004 1.539 . S
C3007 H3021 0.958 . S
C3007 H3022 0.961 . S
C3007 H3023 0.960 . S
H3008 C2992 0.931 . S
H3009 C2997 0.929 . S
H3010 C2998 0.960 . S
H3011 C2998 0.962 . S
H3012 C2998 0.960 . S
H3013 C2999 0.961 . S
H3014 C2999 0.961 . S
H3015 C2999 0.961 . S
H3016 C3000 0.931 . S
H3017 C3005 0.930 . S
H3018 C3006 0.956 . S
H3019 C3006 0.961 . S
H3020 C3006 0.961 . S
H3021 C3007 0.958 . S
H3022 C3007 0.961 . S
H3023 C3007 0.960 . S
C3024 C3025 1.391 . S
C3024 C3026 1.394 . S
C3024 H3040 0.931 . S
C3025 C3024 1.391 . S
C3025 C3029 1.376 . S
C3026 C3024 1.394 . S
C3026 C3027 1.369 . S
C3026 C3030 1.531 . S
C3027 C3026 1.369 . S
C3027 C3028 1.410 . S
C3027 C3035 1.503 1_556 S
C3028 C3027 1.410 . S
C3028 C3029 1.392 . S
C3028 C3031 1.511 1_556 S
C3029 C3025 1.376 . S
C3029 C3028 1.392 . S
C3029 H3041 0.929 . S
C3030 C3026 1.531 . S
C3030 H3042 0.960 . S
C3030 H3043 0.962 . S
C3030 H3044 0.960 . S
C3031 C3028 1.511 1_554 S
C3031 H3045 0.961 . S
C3031 H3046 0.961 . S
C3031 H3047 0.961 . S
C3032 C3033 1.370 . S
C3032 C3034 1.363 . S
C3032 H3048 0.931 . S
C3033 C3032 1.370 . S
C3033 C3037 1.408 . S
C3034 C3032 1.363 . S
C3034 C3035 1.370 . S
C3034 C3038 1.524 . S
C3035 C3027 1.503 1_554 S
C3035 C3034 1.370 . S
C3035 C3036 1.403 . S
C3036 C3035 1.403 . S
C3036 C3037 1.404 . S
C3036 C3039 1.539 . S
C3037 C3033 1.408 . S
C3037 C3036 1.404 . S
C3037 H3049 0.930 . S
C3038 C3034 1.524 . S
C3038 H3050 0.956 1_554 S
C3038 H3051 0.959 1_554 S
C3038 H3052 0.961 . S
C3039 C3036 1.539 . S
C3039 H3053 0.958 1_554 S
C3039 H3054 0.961 . S
C3039 H3055 0.960 1_554 S
H3040 C3024 0.931 . S
H3041 C3029 0.929 . S
H3042 C3030 0.960 . S
H3043 C3030 0.962 . S
H3044 C3030 0.960 . S
H3045 C3031 0.961 . S
H3046 C3031 0.961 . S
H3047 C3031 0.961 . S
H3048 C3032 0.931 . S
H3049 C3037 0.930 . S
H3050 C3038 0.956 1_556 S
H3051 C3038 0.959 1_556 S
H3052 C3038 0.961 . S
H3053 C3039 0.958 1_556 S
H3054 C3039 0.961 . S
H3055 C3039 0.960 1_556 S
C3056 C3057 1.391 . S
C3056 C3058 1.394 . S
C3056 H3072 0.931 . S
C3057 C3056 1.391 . S
C3057 C3061 1.376 . S
C3058 C3056 1.394 . S
C3058 C3059 1.369 . S
C3058 C3062 1.531 . S
C3059 C3058 1.369 . S
C3059 C3060 1.410 . S
C3059 C3067 1.503 . S
C3060 C3059 1.410 . S
C3060 C3061 1.392 . S
C3060 C3063 1.511 . S
C3061 C3057 1.376 . S
C3061 C3060 1.392 . S
C3061 H3073 0.929 . S
C3062 C3058 1.531 . S
C3062 H3074 0.960 . S
C3062 H3075 0.962 . S
C3062 H3076 0.960 . S
C3063 C3060 1.511 . S
C3063 H3077 0.961 . S
C3063 H3078 0.961 . S
C3063 H3079 0.961 . S
C3064 C3065 1.370 . S
C3064 C3066 1.363 . S
C3064 H3080 0.931 . S
C3065 C3064 1.370 . S
C3065 C3069 1.408 . S
C3066 C3064 1.363 . S
C3066 C3067 1.370 . S
C3066 C3070 1.524 . S
C3067 C3059 1.503 . S
C3067 C3066 1.370 . S
C3067 C3068 1.403 . S
C3068 C3067 1.403 . S
C3068 C3069 1.404 . S
C3068 C3071 1.539 . S
C3069 C3065 1.408 . S
C3069 C3068 1.404 . S
C3069 H3081 0.930 . S
C3070 C3066 1.524 . S
C3070 H3082 0.956 . S
C3070 H3083 0.961 . S
C3070 H3084 0.961 . S
C3071 C3068 1.539 . S
C3071 H3085 0.958 . S
C3071 H3086 0.961 . S
C3071 H3087 0.960 . S
H3072 C3056 0.931 . S
H3073 C3061 0.929 . S
H3074 C3062 0.960 . S
H3075 C3062 0.962 . S
H3076 C3062 0.960 . S
H3077 C3063 0.961 . S
H3078 C3063 0.961 . S
H3079 C3063 0.961 . S
H3080 C3064 0.931 . S
H3081 C3069 0.930 . S
H3082 C3070 0.956 . S
H3083 C3070 0.961 . S
H3084 C3070 0.961 . S
H3085 C3071 0.958 . S
H3086 C3071 0.961 . S
H3087 C3071 0.960 . S
C3088 C3089 1.391 . S
C3088 C3090 1.394 . S
C3088 H3104 0.931 . S
C3089 C3088 1.391 . S
C3089 C3093 1.376 . S
C3090 C3088 1.394 . S
C3090 C3091 1.369 . S
C3090 C3094 1.531 . S
C3091 C3090 1.369 . S
C3091 C3092 1.410 . S
C3091 C3099 1.503 . S
C3092 C3091 1.410 . S
C3092 C3093 1.392 . S
C3092 C3095 1.511 . S
C3093 C3089 1.376 . S
C3093 C3092 1.392 . S
C3093 H3105 0.929 . S
C3094 C3090 1.531 . S
C3094 H3106 0.960 . S
C3094 H3107 0.962 . S
C3094 H3108 0.960 . S
C3095 C3092 1.511 . S
C3095 H3109 0.961 . S
C3095 H3110 0.961 . S
C3095 H3111 0.961 . S
C3096 C3097 1.370 . S
C3096 C3098 1.363 . S
C3096 H3112 0.931 . S
C3097 C3096 1.370 . S
C3097 C3101 1.408 . S
C3098 C3096 1.363 . S
C3098 C3099 1.370 . S
C3098 C3102 1.524 . S
C3099 C3091 1.503 . S
C3099 C3098 1.370 . S
C3099 C3100 1.403 . S
C3100 C3099 1.403 . S
C3100 C3101 1.404 . S
C3100 C3103 1.539 . S
C3101 C3097 1.408 . S
C3101 C3100 1.404 . S
C3101 H3113 0.930 . S
C3102 C3098 1.524 . S
C3102 H3114 0.956 . S
C3102 H3115 0.961 . S
C3102 H3116 0.961 . S
C3103 C3100 1.539 . S
C3103 H3117 0.958 . S
C3103 H3118 0.961 . S
C3103 H3119 0.960 . S
H3104 C3088 0.931 . S
H3105 C3093 0.929 . S
H3106 C3094 0.960 . S
H3107 C3094 0.962 . S
H3108 C3094 0.960 . S
H3109 C3095 0.961 . S
H3110 C3095 0.961 . S
H3111 C3095 0.961 . S
H3112 C3096 0.931 . S
H3113 C3101 0.930 . S
H3114 C3102 0.956 . S
H3115 C3102 0.961 . S
H3116 C3102 0.961 . S
H3117 C3103 0.958 . S
H3118 C3103 0.961 . S
H3119 C3103 0.960 . S
C3120 C3121 1.391 . S
C3120 C3122 1.394 . S
C3120 H3136 0.931 . S
C3121 C3120 1.391 . S
C3121 C3125 1.376 . S
C3122 C3120 1.394 . S
C3122 C3123 1.369 . S
C3122 C3126 1.531 . S
C3123 C3122 1.369 . S
C3123 C3124 1.410 . S
C3123 C3131 1.503 . S
C3124 C3123 1.410 . S
C3124 C3125 1.392 . S
C3124 C3127 1.511 . S
C3125 C3121 1.376 . S
C3125 C3124 1.392 . S
C3125 H3137 0.929 . S
C3126 C3122 1.531 . S
C3126 H3138 0.960 . S
C3126 H3139 0.962 . S
C3126 H3140 0.960 . S
C3127 C3124 1.511 . S
C3127 H3141 0.961 . S
C3127 H3142 0.961 . S
C3127 H3143 0.961 . S
C3128 C3129 1.370 . S
C3128 C3130 1.363 . S
C3128 H3144 0.931 . S
C3129 C3128 1.370 . S
C3129 C3133 1.408 . S
C3130 C3128 1.363 . S
C3130 C3131 1.370 . S
C3130 C3134 1.524 . S
C3131 C3123 1.503 . S
C3131 C3130 1.370 . S
C3131 C3132 1.403 . S
C3132 C3131 1.403 . S
C3132 C3133 1.404 . S
C3132 C3135 1.539 . S
C3133 C3129 1.408 . S
C3133 C3132 1.404 . S
C3133 H3145 0.930 . S
C3134 C3130 1.524 . S
C3134 H3146 0.956 . S
C3134 H3147 0.961 . S
C3134 H3148 0.961 . S
C3135 C3132 1.539 . S
C3135 H3149 0.958 . S
C3135 H3150 0.961 . S
C3135 H3151 0.960 . S
H3136 C3120 0.931 . S
H3137 C3125 0.929 . S
H3138 C3126 0.960 . S
H3139 C3126 0.962 . S
H3140 C3126 0.960 . S
H3141 C3127 0.961 . S
H3142 C3127 0.961 . S
H3143 C3127 0.961 . S
H3144 C3128 0.931 . S
H3145 C3133 0.930 . S
H3146 C3134 0.956 . S
H3147 C3134 0.961 . S
H3148 C3134 0.961 . S
H3149 C3135 0.958 . S
H3150 C3135 0.961 . S
H3151 C3135 0.960 . S
C3152 C3153 1.391 . S
C3152 C3154 1.394 . S
C3152 H3168 0.901 1_455 S
C3153 C3152 1.391 . S
C3153 C3157 1.376 . S
C3154 C3152 1.394 . S
C3154 C3155 1.369 . S
C3154 C3158 1.531 . S
C3155 C3154 1.369 . S
C3155 C3156 1.410 . S
C3155 C3163 1.503 . S
C3156 C3155 1.410 . S
C3156 C3157 1.392 . S
C3156 C3159 1.511 . S
C3157 C3153 1.376 . S
C3157 C3156 1.392 . S
C3157 H3169 0.929 . S
C3158 C3154 1.531 . S
C3158 H3170 0.960 1_554 S
C3158 H3171 0.962 . S
C3158 H3172 0.960 1_455 S
C3159 C3156 1.511 . S
C3159 H3173 0.961 . S
C3159 H3174 0.961 . S
C3159 H3175 0.961 . S
C3160 C3161 1.370 . S
C3160 C3162 1.363 1_556 S
C3160 H3176 0.931 . S
C3161 C3160 1.370 . S
C3161 C3165 1.408 . S
C3162 C3160 1.363 1_554 S
C3162 C3163 1.370 . S
C3162 C3166 1.524 . S
C3163 C3155 1.503 . S
C3163 C3162 1.370 . S
C3163 C3164 1.403 1_554 S
C3164 C3163 1.403 1_556 S
C3164 C3165 1.404 . S
C3164 C3167 1.539 . S
C3165 C3161 1.408 . S
C3165 C3164 1.404 . S
C3165 H3177 0.930 . S
C3166 C3162 1.524 . S
C3166 H3178 0.956 . S
C3166 H3179 0.961 . S
C3166 H3180 0.961 . S
C3167 C3164 1.539 . S
C3167 H3181 0.958 . S
C3167 H3182 0.961 . S
C3167 H3183 0.971 . S
H3168 C3152 0.901 1_655 S
H3169 C3157 0.929 . S
H3170 C3158 0.960 1_556 S
H3171 C3158 0.962 . S
H3172 C3158 0.960 1_655 S
H3173 C3159 0.961 . S
H3174 C3159 0.961 . S
H3175 C3159 0.961 . S
H3176 C3160 0.931 . S
H3177 C3165 0.930 . S
H3178 C3166 0.956 . S
H3179 C3166 0.961 . S
H3180 C3166 0.961 . S
H3181 C3167 0.958 . S
H3182 C3167 0.961 . S
H3183 C3167 0.971 . S
C3184 C3185 1.391 . S
C3184 C3186 1.394 . S
C3184 H3200 0.931 . S
C3185 C3184 1.391 . S
C3185 C3189 1.376 . S
C3186 C3184 1.394 . S
C3186 C3187 1.369 . S
C3186 C3190 1.531 . S
C3187 C3186 1.369 . S
C3187 C3188 1.410 . S
C3187 C3195 1.503 . S
C3188 C3187 1.410 . S
C3188 C3189 1.392 . S
C3188 C3191 1.511 . S
C3189 C3185 1.376 . S
C3189 C3188 1.392 . S
C3189 H3201 0.929 . S
C3190 C3186 1.531 . S
C3190 H3202 0.960 . S
C3190 H3203 0.962 . S
C3190 H3204 0.960 . S
C3191 C3188 1.511 . S
C3191 H3205 0.961 . S
C3191 H3206 0.961 . S
C3191 H3207 0.961 . S
C3192 C3193 1.370 . S
C3192 C3194 1.363 . S
C3192 H3208 0.931 . S
C3193 C3192 1.370 . S
C3193 C3197 1.408 . S
C3194 C3192 1.363 . S
C3194 C3195 1.370 . S
C3194 C3198 1.524 . S
C3195 C3187 1.503 . S
C3195 C3194 1.370 . S
C3195 C3196 1.403 . S
C3196 C3195 1.403 . S
C3196 C3197 1.404 . S
C3196 C3199 1.539 . S
C3197 C3193 1.408 . S
C3197 C3196 1.404 . S
C3197 H3209 0.930 . S
C3198 C3194 1.524 . S
C3198 H3210 0.956 . S
C3198 H3211 0.961 . S
C3198 H3212 0.961 . S
C3199 C3196 1.539 . S
C3199 H3213 0.958 . S
C3199 H3214 0.961 . S
C3199 H3215 0.960 . S
H3200 C3184 0.931 . S
H3201 C3189 0.929 . S
H3202 C3190 0.960 . S
H3203 C3190 0.962 . S
H3204 C3190 0.960 . S
H3205 C3191 0.961 . S
H3206 C3191 0.961 . S
H3207 C3191 0.961 . S
H3208 C3192 0.931 . S
H3209 C3197 0.930 . S
H3210 C3198 0.956 . S
H3211 C3198 0.961 . S
H3212 C3198 0.961 . S
H3213 C3199 0.958 . S
H3214 C3199 0.961 . S
H3215 C3199 0.960 . S
C3216 C3217 1.391 . S
C3216 C3218 1.394 . S
C3216 H3232 0.931 . S
C3217 C3216 1.391 . S
C3217 C3221 1.376 . S
C3218 C3216 1.394 . S
C3218 C3219 1.369 . S
C3218 C3222 1.531 . S
C3219 C3218 1.369 . S
C3219 C3220 1.410 . S
C3219 C3227 1.503 . S
C3220 C3219 1.410 . S
C3220 C3221 1.392 . S
C3220 C3223 1.511 . S
C3221 C3217 1.376 . S
C3221 C3220 1.392 . S
C3221 H3233 0.929 . S
C3222 C3218 1.531 . S
C3222 H3234 0.960 . S
C3222 H3235 0.962 . S
C3222 H3236 0.960 . S
C3223 C3220 1.511 . S
C3223 H3237 0.961 . S
C3223 H3238 0.961 . S
C3223 H3239 0.961 . S
C3224 C3225 1.370 . S
C3224 C3226 1.363 . S
C3224 H3240 0.931 . S
C3225 C3224 1.370 . S
C3225 C3229 1.408 . S
C3226 C3224 1.363 . S
C3226 C3227 1.370 . S
C3226 C3230 1.524 . S
C3227 C3219 1.503 . S
C3227 C3226 1.370 . S
C3227 C3228 1.403 . S
C3228 C3227 1.403 . S
C3228 C3229 1.404 . S
C3228 C3231 1.539 . S
C3229 C3225 1.408 . S
C3229 C3228 1.404 . S
C3229 H3241 0.930 . S
C3230 C3226 1.524 . S
C3230 H3242 0.956 . S
C3230 H3243 0.961 . S
C3230 H3244 0.961 . S
C3231 C3228 1.539 . S
C3231 H3245 0.958 . S
C3231 H3246 0.961 . S
C3231 H3247 0.960 . S
H3232 C3216 0.931 . S
H3233 C3221 0.929 . S
H3234 C3222 0.960 . S
H3235 C3222 0.962 . S
H3236 C3222 0.960 . S
H3237 C3223 0.961 . S
H3238 C3223 0.961 . S
H3239 C3223 0.961 . S
H3240 C3224 0.931 . S
H3241 C3229 0.930 . S
H3242 C3230 0.956 . S
H3243 C3230 0.961 . S
H3244 C3230 0.961 . S
H3245 C3231 0.958 . S
H3246 C3231 0.961 . S
H3247 C3231 0.960 . S
C3248 C3249 1.391 . S
C3248 C3250 1.394 . S
C3248 H3264 0.931 . S
C3249 C3248 1.391 . S
C3249 C3253 1.376 . S
C3250 C3248 1.394 . S
C3250 C3251 1.369 . S
C3250 C3254 1.531 . S
C3251 C3250 1.369 . S
C3251 C3252 1.410 . S
C3251 C3259 1.503 . S
C3252 C3251 1.410 . S
C3252 C3253 1.392 . S
C3252 C3255 1.511 . S
C3253 C3249 1.376 . S
C3253 C3252 1.392 . S
C3253 H3265 0.929 . S
C3254 C3250 1.531 . S
C3254 H3266 0.960 . S
C3254 H3267 0.962 . S
C3254 H3268 0.960 . S
C3255 C3252 1.511 . S
C3255 H3269 0.961 . S
C3255 H3270 0.961 . S
C3255 H3271 0.961 . S
C3256 C3257 1.370 . S
C3256 C3258 1.363 . S
C3256 H3272 0.931 . S
C3257 C3256 1.370 . S
C3257 C3261 1.408 . S
C3258 C3256 1.363 . S
C3258 C3259 1.370 . S
C3258 C3262 1.524 . S
C3259 C3251 1.503 . S
C3259 C3258 1.370 . S
C3259 C3260 1.403 . S
C3260 C3259 1.403 . S
C3260 C3261 1.404 . S
C3260 C3263 1.539 . S
C3261 C3257 1.408 . S
C3261 C3260 1.404 . S
C3261 H3273 0.930 . S
C3262 C3258 1.524 . S
C3262 H3274 0.956 . S
C3262 H3275 0.961 . S
C3262 H3276 0.961 . S
C3263 C3260 1.539 . S
C3263 H3277 0.958 . S
C3263 H3278 0.961 . S
C3263 H3279 0.960 . S
H3264 C3248 0.931 . S
H3265 C3253 0.929 . S
H3266 C3254 0.960 . S
H3267 C3254 0.962 . S
H3268 C3254 0.960 . S
H3269 C3255 0.961 . S
H3270 C3255 0.961 . S
H3271 C3255 0.961 . S
H3272 C3256 0.931 . S
H3273 C3261 0.930 . S
H3274 C3262 0.956 . S
H3275 C3262 0.961 . S
H3276 C3262 0.961 . S
H3277 C3263 0.958 . S
H3278 C3263 0.961 . S
H3279 C3263 0.960 . S
C3280 C3281 1.391 . S
C3280 C3282 1.394 . S
C3280 H3296 0.931 . S
C3281 C3280 1.391 . S
C3281 C3285 1.376 . S
C3282 C3280 1.394 . S
C3282 C3283 1.369 . S
C3282 C3286 1.531 . S
C3283 C3282 1.369 . S
C3283 C3284 1.410 . S
C3283 C3291 1.503 . S
C3284 C3283 1.410 . S
C3284 C3285 1.392 . S
C3284 C3287 1.511 . S
C3285 C3281 1.376 . S
C3285 C3284 1.392 . S
C3285 H3297 0.929 . S
C3286 C3282 1.531 . S
C3286 H3298 0.960 . S
C3286 H3299 0.962 . S
C3286 H3300 0.960 . S
C3287 C3284 1.511 . S
C3287 H3301 0.961 . S
C3287 H3302 0.961 . S
C3287 H3303 0.961 . S
C3288 C3289 1.370 . S
C3288 C3290 1.363 . S
C3288 H3304 0.931 . S
C3289 C3288 1.370 . S
C3289 C3293 1.408 . S
C3290 C3288 1.363 . S
C3290 C3291 1.370 . S
C3290 C3294 1.524 . S
C3291 C3283 1.503 . S
C3291 C3290 1.370 . S
C3291 C3292 1.403 . S
C3292 C3291 1.403 . S
C3292 C3293 1.404 . S
C3292 C3295 1.539 . S
C3293 C3289 1.408 . S
C3293 C3292 1.404 . S
C3293 H3305 0.930 . S
C3294 C3290 1.524 . S
C3294 H3306 0.956 . S
C3294 H3307 0.961 . S
C3294 H3308 0.961 . S
C3295 C3292 1.539 . S
C3295 H3309 0.958 . S
C3295 H3310 0.961 . S
C3295 H3311 0.960 . S
H3296 C3280 0.931 . S
H3297 C3285 0.929 . S
H3298 C3286 0.960 . S
H3299 C3286 0.962 . S
H3300 C3286 0.960 . S
H3301 C3287 0.961 . S
H3302 C3287 0.961 . S
H3303 C3287 0.961 . S
H3304 C3288 0.931 . S
H3305 C3293 0.930 . S
H3306 C3294 0.956 . S
H3307 C3294 0.961 . S
H3308 C3294 0.961 . S
H3309 C3295 0.958 . S
H3310 C3295 0.961 . S
H3311 C3295 0.960 . S
C3312 C3313 1.391 . S
C3312 C3314 1.394 . S
C3312 H3328 0.931 . S
C3313 C3312 1.391 . S
C3313 C3317 1.376 . S
C3314 C3312 1.394 . S
C3314 C3315 1.369 . S
C3314 C3318 1.531 . S
C3315 C3314 1.369 . S
C3315 C3316 1.410 . S
C3315 C3323 1.503 . S
C3316 C3315 1.410 . S
C3316 C3317 1.392 . S
C3316 C3319 1.511 . S
C3317 C3313 1.376 . S
C3317 C3316 1.392 . S
C3317 H3329 0.929 . S
C3318 C3314 1.531 . S
C3318 H3330 0.960 . S
C3318 H3331 0.962 . S
C3318 H3332 0.960 . S
C3319 C3316 1.511 . S
C3319 H3333 0.961 . S
C3319 H3334 0.961 . S
C3319 H3335 0.961 . S
C3320 C3321 1.370 . S
C3320 C3322 1.363 . S
C3320 H3336 0.931 . S
C3321 C3320 1.370 . S
C3321 C3325 1.408 . S
C3322 C3320 1.363 . S
C3322 C3323 1.370 . S
C3322 C3326 1.524 . S
C3323 C3315 1.503 . S
C3323 C3322 1.370 . S
C3323 C3324 1.403 . S
C3324 C3323 1.403 . S
C3324 C3325 1.404 . S
C3324 C3327 1.539 . S
C3325 C3321 1.408 . S
C3325 C3324 1.404 . S
C3325 H3337 0.930 . S
C3326 C3322 1.524 . S
C3326 H3338 0.956 . S
C3326 H3339 0.961 . S
C3326 H3340 0.961 . S
C3327 C3324 1.539 . S
C3327 H3341 0.958 . S
C3327 H3342 0.961 . S
C3327 H3343 0.960 . S
H3328 C3312 0.931 . S
H3329 C3317 0.929 . S
H3330 C3318 0.960 . S
H3331 C3318 0.962 . S
H3332 C3318 0.960 . S
H3333 C3319 0.961 . S
H3334 C3319 0.961 . S
H3335 C3319 0.961 . S
H3336 C3320 0.931 . S
H3337 C3325 0.930 . S
H3338 C3326 0.956 . S
H3339 C3326 0.961 . S
H3340 C3326 0.961 . S
H3341 C3327 0.958 . S
H3342 C3327 0.961 . S
H3343 C3327 0.960 . S
C3344 C3345 1.391 . S
C3344 C3346 1.394 . S
C3344 H3360 0.931 . S
C3345 C3344 1.391 . S
C3345 C3349 1.376 . S
C3346 C3344 1.394 . S
C3346 C3347 1.369 . S
C3346 C3350 1.531 . S
C3347 C3346 1.369 . S
C3347 C3348 1.410 . S
C3347 C3355 1.503 . S
C3348 C3347 1.410 . S
C3348 C3349 1.392 . S
C3348 C3351 1.511 . S
C3349 C3345 1.376 . S
C3349 C3348 1.392 . S
C3349 H3361 0.929 . S
C3350 C3346 1.531 . S
C3350 H3362 0.960 . S
C3350 H3363 0.962 . S
C3350 H3364 0.960 . S
C3351 C3348 1.511 . S
C3351 H3365 0.961 . S
C3351 H3366 0.961 . S
C3351 H3367 0.961 . S
C3352 C3353 1.370 . S
C3352 C3354 1.363 . S
C3352 H3368 0.931 . S
C3353 C3352 1.370 . S
C3353 C3357 1.408 . S
C3354 C3352 1.363 . S
C3354 C3355 1.370 . S
C3354 C3358 1.524 . S
C3355 C3347 1.503 . S
C3355 C3354 1.370 . S
C3355 C3356 1.403 . S
C3356 C3355 1.403 . S
C3356 C3357 1.404 . S
C3356 C3359 1.539 . S
C3357 C3353 1.408 . S
C3357 C3356 1.404 . S
C3357 H3369 0.930 . S
C3358 C3354 1.524 . S
C3358 H3370 0.956 . S
C3358 H3371 0.961 . S
C3358 H3372 0.961 . S
C3359 C3356 1.539 . S
C3359 H3373 0.958 . S
C3359 H3374 0.961 . S
C3359 H3375 0.960 . S
H3360 C3344 0.931 . S
H3361 C3349 0.929 . S
H3362 C3350 0.960 . S
H3363 C3350 0.962 . S
H3364 C3350 0.960 . S
H3365 C3351 0.961 . S
H3366 C3351 0.961 . S
H3367 C3351 0.961 . S
H3368 C3352 0.931 . S
H3369 C3357 0.930 . S
H3370 C3358 0.956 . S
H3371 C3358 0.961 . S
H3372 C3358 0.961 . S
H3373 C3359 0.958 . S
H3374 C3359 0.961 . S
H3375 C3359 0.960 . S
C3376 C3377 1.391 . S
C3376 C3378 1.394 . S
C3376 H3392 0.931 . S
C3377 C3376 1.391 . S
C3377 C3381 1.376 . S
C3378 C3376 1.394 . S
C3378 C3379 1.369 . S
C3378 C3382 1.531 . S
C3379 C3378 1.369 . S
C3379 C3380 1.410 . S
C3379 C3387 1.503 . S
C3380 C3379 1.410 . S
C3380 C3381 1.392 . S
C3380 C3383 1.511 . S
C3381 C3377 1.376 . S
C3381 C3380 1.392 . S
C3381 H3393 0.929 . S
C3382 C3378 1.531 . S
C3382 H3394 0.960 . S
C3382 H3395 0.962 . S
C3382 H3396 0.960 . S
C3383 C3380 1.511 . S
C3383 H3397 0.961 . S
C3383 H3398 0.961 . S
C3383 H3399 0.961 . S
C3384 C3385 1.370 . S
C3384 C3386 1.363 . S
C3384 H3400 0.931 . S
C3385 C3384 1.370 . S
C3385 C3389 1.408 . S
C3386 C3384 1.363 . S
C3386 C3387 1.370 . S
C3386 C3390 1.524 . S
C3387 C3379 1.503 . S
C3387 C3386 1.370 . S
C3387 C3388 1.403 . S
C3388 C3387 1.403 . S
C3388 C3389 1.404 . S
C3388 C3391 1.539 . S
C3389 C3385 1.408 . S
C3389 C3388 1.404 . S
C3389 H3401 0.930 . S
C3390 C3386 1.524 . S
C3390 H3402 0.956 . S
C3390 H3403 0.961 . S
C3390 H3404 0.961 . S
C3391 C3388 1.539 . S
C3391 H3405 0.958 . S
C3391 H3406 0.961 . S
C3391 H3407 0.960 . S
H3392 C3376 0.931 . S
H3393 C3381 0.929 . S
H3394 C3382 0.960 . S
H3395 C3382 0.962 . S
H3396 C3382 0.960 . S
H3397 C3383 0.961 . S
H3398 C3383 0.961 . S
H3399 C3383 0.961 . S
H3400 C3384 0.931 . S
H3401 C3389 0.930 . S
H3402 C3390 0.956 . S
H3403 C3390 0.961 . S
H3404 C3390 0.961 . S
H3405 C3391 0.958 . S
H3406 C3391 0.961 . S
H3407 C3391 0.960 . S
C3408 C3409 1.391 . S
C3408 C3410 1.394 . S
C3408 H3424 0.931 1_556 S
C3409 C3408 1.391 . S
C3409 C3413 1.376 . S
C3410 C3408 1.394 . S
C3410 C3411 1.369 . S
C3410 C3414 1.531 . S
C3411 C3410 1.369 . S
C3411 C3412 1.410 . S
C3411 C3419 1.503 . S
C3412 C3411 1.410 . S
C3412 C3413 1.392 . S
C3412 C3415 1.511 . S
C3413 C3409 1.376 . S
C3413 C3412 1.392 . S
C3413 H3425 0.929 . S
C3414 C3410 1.531 . S
C3414 H3426 0.960 . S
C3414 H3427 0.962 . S
C3414 H3428 0.960 1_556 S
C3415 C3412 1.511 . S
C3415 H3429 0.961 . S
C3415 H3430 0.961 . S
C3415 H3431 0.961 . S
C3416 C3417 1.370 . S
C3416 C3418 1.363 . S
C3416 H3432 0.931 . S
C3417 C3416 1.370 . S
C3417 C3421 1.408 . S
C3418 C3416 1.363 . S
C3418 C3419 1.370 . S
C3418 C3422 1.524 . S
C3419 C3411 1.503 . S
C3419 C3418 1.370 . S
C3419 C3420 1.403 . S
C3420 C3419 1.403 . S
C3420 C3421 1.404 . S
C3420 C3423 1.539 . S
C3421 C3417 1.408 . S
C3421 C3420 1.404 . S
C3421 H3433 0.930 . S
C3422 C3418 1.524 . S
C3422 H3434 0.956 . S
C3422 H3435 0.961 . S
C3422 H3436 0.961 . S
C3423 C3420 1.539 . S
C3423 H3437 0.958 . S
C3423 H3438 0.961 . S
C3423 H3439 0.960 . S
H3424 C3408 0.931 1_554 S
H3425 C3413 0.929 . S
H3426 C3414 0.960 . S
H3427 C3414 0.962 . S
H3428 C3414 0.960 1_554 S
H3429 C3415 0.961 . S
H3430 C3415 0.961 . S
H3431 C3415 0.961 . S
H3432 C3416 0.931 . S
H3433 C3421 0.930 . S
H3434 C3422 0.956 . S
H3435 C3422 0.961 . S
H3436 C3422 0.961 . S
H3437 C3423 0.958 . S
H3438 C3423 0.961 . S
H3439 C3423 0.960 . S
C3440 C3441 1.391 . S
C3440 C3442 1.394 . S
C3440 H3456 0.931 . S
C3441 C3440 1.391 . S
C3441 C3445 1.376 . S
C3442 C3440 1.394 . S
C3442 C3443 1.369 . S
C3442 C3446 1.531 . S
C3443 C3442 1.369 . S
C3443 C3444 1.410 . S
C3443 C3451 1.503 . S
C3444 C3443 1.410 . S
C3444 C3445 1.392 . S
C3444 C3447 1.511 . S
C3445 C3441 1.376 . S
C3445 C3444 1.392 . S
C3445 H3457 0.929 . S
C3446 C3442 1.531 . S
C3446 H3458 0.960 . S
C3446 H3459 0.962 . S
C3446 H3460 0.960 . S
C3447 C3444 1.511 . S
C3447 H3461 0.961 . S
C3447 H3462 0.961 . S
C3447 H3463 0.961 . S
C3448 C3449 1.370 . S
C3448 C3450 1.363 . S
C3448 H3464 0.931 . S
C3449 C3448 1.370 . S
C3449 C3453 1.408 . S
C3450 C3448 1.363 . S
C3450 C3451 1.370 . S
C3450 C3454 1.524 . S
C3451 C3443 1.503 . S
C3451 C3450 1.370 . S
C3451 C3452 1.403 . S
C3452 C3451 1.403 . S
C3452 C3453 1.404 . S
C3452 C3455 1.539 . S
C3453 C3449 1.408 . S
C3453 C3452 1.404 . S
C3453 H3465 0.930 . S
C3454 C3450 1.524 . S
C3454 H3466 0.956 . S
C3454 H3467 0.961 . S
C3454 H3468 0.961 . S
C3455 C3452 1.539 . S
C3455 H3469 0.958 . S
C3455 H3470 0.961 . S
C3455 H3471 0.960 . S
H3456 C3440 0.931 . S
H3457 C3445 0.929 . S
H3458 C3446 0.960 . S
H3459 C3446 0.962 . S
H3460 C3446 0.960 . S
H3461 C3447 0.961 . S
H3462 C3447 0.961 . S
H3463 C3447 0.961 . S
H3464 C3448 0.931 . S
H3465 C3453 0.930 . S
H3466 C3454 0.956 . S
H3467 C3454 0.961 . S
H3468 C3454 0.961 . S
H3469 C3455 0.958 . S
H3470 C3455 0.961 . S
H3471 C3455 0.960 . S
C3472 C3473 1.391 . S
C3472 C3474 1.394 . S
C3472 H3488 0.931 . S
C3473 C3472 1.391 . S
C3473 C3477 1.376 . S
C3474 C3472 1.394 . S
C3474 C3475 1.369 . S
C3474 C3478 1.531 . S
C3475 C3474 1.369 . S
C3475 C3476 1.410 . S
C3475 C3483 1.503 . S
C3476 C3475 1.410 . S
C3476 C3477 1.392 . S
C3476 C3479 1.511 . S
C3477 C3473 1.376 . S
C3477 C3476 1.392 . S
C3477 H3489 0.929 . S
C3478 C3474 1.531 . S
C3478 H3490 0.960 . S
C3478 H3491 0.962 . S
C3478 H3492 0.960 . S
C3479 C3476 1.511 . S
C3479 H3493 0.961 . S
C3479 H3494 0.961 . S
C3479 H3495 0.961 . S
C3480 C3481 1.370 . S
C3480 C3482 1.363 . S
C3480 H3496 0.931 . S
C3481 C3480 1.370 . S
C3481 C3485 1.408 . S
C3482 C3480 1.363 . S
C3482 C3483 1.370 . S
C3482 C3486 1.524 . S
C3483 C3475 1.503 . S
C3483 C3482 1.370 . S
C3483 C3484 1.403 . S
C3484 C3483 1.403 . S
C3484 C3485 1.404 . S
C3484 C3487 1.539 . S
C3485 C3481 1.408 . S
C3485 C3484 1.404 . S
C3485 H3497 0.930 . S
C3486 C3482 1.524 . S
C3486 H3498 0.956 . S
C3486 H3499 0.961 . S
C3486 H3500 0.961 . S
C3487 C3484 1.539 . S
C3487 H3501 0.958 . S
C3487 H3502 0.961 . S
C3487 H3503 0.960 . S
H3488 C3472 0.931 . S
H3489 C3477 0.929 . S
H3490 C3478 0.960 . S
H3491 C3478 0.962 . S
H3492 C3478 0.960 . S
H3493 C3479 0.961 . S
H3494 C3479 0.961 . S
H3495 C3479 0.961 . S
H3496 C3480 0.931 . S
H3497 C3485 0.930 . S
H3498 C3486 0.956 . S
H3499 C3486 0.961 . S
H3500 C3486 0.961 . S
H3501 C3487 0.958 . S
H3502 C3487 0.961 . S
H3503 C3487 0.960 . S
C3504 C3505 1.391 . S
C3504 C3506 1.394 . S
C3504 H3520 0.931 . S
C3505 C3504 1.391 . S
C3505 C3509 1.376 . S
C3506 C3504 1.394 . S
C3506 C3507 1.369 . S
C3506 C3510 1.531 . S
C3507 C3506 1.369 . S
C3507 C3508 1.410 . S
C3507 C3515 1.503 . S
C3508 C3507 1.410 . S
C3508 C3509 1.392 . S
C3508 C3511 1.511 . S
C3509 C3505 1.376 . S
C3509 C3508 1.392 . S
C3509 H3521 0.929 . S
C3510 C3506 1.531 . S
C3510 H3522 0.960 . S
C3510 H3523 0.962 . S
C3510 H3524 0.960 . S
C3511 C3508 1.511 . S
C3511 H3525 0.961 . S
C3511 H3526 0.961 . S
C3511 H3527 0.961 . S
C3512 C3513 1.370 . S
C3512 C3514 1.363 . S
C3512 H3528 0.931 . S
C3513 C3512 1.370 . S
C3513 C3517 1.408 . S
C3514 C3512 1.363 . S
C3514 C3515 1.370 . S
C3514 C3518 1.524 . S
C3515 C3507 1.503 . S
C3515 C3514 1.370 . S
C3515 C3516 1.403 . S
C3516 C3515 1.403 . S
C3516 C3517 1.404 . S
C3516 C3519 1.539 . S
C3517 C3513 1.408 . S
C3517 C3516 1.404 . S
C3517 H3529 0.930 . S
C3518 C3514 1.524 . S
C3518 H3530 0.956 . S
C3518 H3531 0.961 . S
C3518 H3532 0.961 . S
C3519 C3516 1.539 . S
C3519 H3533 0.958 . S
C3519 H3534 0.961 . S
C3519 H3535 0.960 . S
H3520 C3504 0.931 . S
H3521 C3509 0.929 . S
H3522 C3510 0.960 . S
H3523 C3510 0.962 . S
H3524 C3510 0.960 . S
H3525 C3511 0.961 . S
H3526 C3511 0.961 . S
H3527 C3511 0.961 . S
H3528 C3512 0.931 . S
H3529 C3517 0.930 . S
H3530 C3518 0.956 . S
H3531 C3518 0.961 . S
H3532 C3518 0.961 . S
H3533 C3519 0.958 . S
H3534 C3519 0.961 . S
H3535 C3519 0.960 . S
C3536 C3537 1.391 . S
C3536 C3538 1.394 . S
C3536 H3552 0.931 . S
C3537 C3536 1.391 . S
C3537 C3541 1.376 . S
C3538 C3536 1.394 . S
C3538 C3539 1.369 . S
C3538 C3542 1.531 . S
C3539 C3538 1.369 . S
C3539 C3540 1.410 . S
C3539 C3547 1.503 . S
C3540 C3539 1.410 . S
C3540 C3541 1.392 . S
C3540 C3543 1.511 . S
C3541 C3537 1.376 . S
C3541 C3540 1.392 . S
C3541 H3553 0.929 . S
C3542 C3538 1.531 . S
C3542 H3554 0.960 . S
C3542 H3555 0.962 . S
C3542 H3556 0.960 . S
C3543 C3540 1.511 . S
C3543 H3557 0.961 . S
C3543 H3558 0.961 . S
C3543 H3559 0.961 . S
C3544 C3545 1.370 . S
C3544 C3546 1.363 . S
C3544 H3560 0.931 . S
C3545 C3544 1.370 . S
C3545 C3549 1.408 . S
C3546 C3544 1.363 . S
C3546 C3547 1.370 . S
C3546 C3550 1.524 . S
C3547 C3539 1.503 . S
C3547 C3546 1.370 . S
C3547 C3548 1.403 . S
C3548 C3547 1.403 . S
C3548 C3549 1.404 . S
C3548 C3551 1.539 . S
C3549 C3545 1.408 . S
C3549 C3548 1.404 . S
C3549 H3561 0.930 . S
C3550 C3546 1.524 . S
C3550 H3562 0.956 . S
C3550 H3563 0.961 . S
C3550 H3564 0.961 . S
C3551 C3548 1.539 . S
C3551 H3565 0.958 . S
C3551 H3566 0.961 . S
C3551 H3567 0.960 . S
H3552 C3536 0.931 . S
H3553 C3541 0.929 . S
H3554 C3542 0.960 . S
H3555 C3542 0.962 . S
H3556 C3542 0.960 . S
H3557 C3543 0.961 . S
H3558 C3543 0.961 . S
H3559 C3543 0.961 . S
H3560 C3544 0.931 . S
H3561 C3549 0.930 . S
H3562 C3550 0.956 . S
H3563 C3550 0.961 . S
H3564 C3550 0.961 . S
H3565 C3551 0.958 . S
H3566 C3551 0.961 . S
H3567 C3551 0.960 . S
C3568 C3569 1.391 . S
C3568 C3570 1.394 . S
C3568 H3584 0.931 . S
C3569 C3568 1.391 . S
C3569 C3573 1.376 . S
C3570 C3568 1.394 . S
C3570 C3571 1.369 . S
C3570 C3574 1.531 . S
C3571 C3570 1.369 . S
C3571 C3572 1.410 . S
C3571 C3579 1.503 . S
C3572 C3571 1.410 . S
C3572 C3573 1.392 . S
C3572 C3575 1.511 . S
C3573 C3569 1.376 . S
C3573 C3572 1.392 . S
C3573 H3585 0.929 . S
C3574 C3570 1.531 . S
C3574 H3586 0.960 . S
C3574 H3587 0.962 . S
C3574 H3588 0.960 . S
C3575 C3572 1.511 . S
C3575 H3589 0.961 . S
C3575 H3590 0.961 . S
C3575 H3591 0.961 . S
C3576 C3577 1.370 . S
C3576 C3578 1.363 . S
C3576 H3592 0.931 . S
C3577 C3576 1.370 . S
C3577 C3581 1.408 . S
C3578 C3576 1.363 . S
C3578 C3579 1.370 . S
C3578 C3582 1.524 . S
C3579 C3571 1.503 . S
C3579 C3578 1.370 . S
C3579 C3580 1.403 . S
C3580 C3579 1.403 . S
C3580 C3581 1.404 . S
C3580 C3583 1.539 . S
C3581 C3577 1.408 . S
C3581 C3580 1.404 . S
C3581 H3593 0.930 . S
C3582 C3578 1.524 . S
C3582 H3594 0.956 . S
C3582 H3595 0.961 . S
C3582 H3596 0.961 . S
C3583 C3580 1.539 . S
C3583 H3597 0.958 . S
C3583 H3598 0.961 . S
C3583 H3599 0.960 . S
H3584 C3568 0.931 . S
H3585 C3573 0.929 . S
H3586 C3574 0.960 . S
H3587 C3574 0.962 . S
H3588 C3574 0.960 . S
H3589 C3575 0.961 . S
H3590 C3575 0.961 . S
H3591 C3575 0.961 . S
H3592 C3576 0.931 . S
H3593 C3581 0.930 . S
H3594 C3582 0.956 . S
H3595 C3582 0.961 . S
H3596 C3582 0.961 . S
H3597 C3583 0.958 . S
H3598 C3583 0.961 . S
H3599 C3583 0.960 . S
C3600 C3601 1.391 . S
C3600 C3602 1.394 . S
C3600 H3616 0.931 . S
C3601 C3600 1.391 . S
C3601 C3605 1.376 . S
C3602 C3600 1.394 . S
C3602 C3603 1.369 . S
C3602 C3606 1.531 . S
C3603 C3602 1.369 . S
C3603 C3604 1.410 . S
C3603 C3611 1.503 . S
C3604 C3603 1.410 . S
C3604 C3605 1.392 . S
C3604 C3607 1.511 . S
C3605 C3601 1.376 . S
C3605 C3604 1.392 . S
C3605 H3617 0.929 . S
C3606 C3602 1.531 . S
C3606 H3618 0.960 . S
C3606 H3619 0.962 . S
C3606 H3620 0.960 . S
C3607 C3604 1.511 . S
C3607 H3621 0.961 . S
C3607 H3622 0.961 . S
C3607 H3623 0.961 . S
C3608 C3609 1.370 . S
C3608 C3610 1.363 . S
C3608 H3624 0.931 . S
C3609 C3608 1.370 . S
C3609 C3613 1.408 . S
C3610 C3608 1.363 . S
C3610 C3611 1.370 . S
C3610 C3614 1.524 . S
C3611 C3603 1.503 . S
C3611 C3610 1.370 . S
C3611 C3612 1.403 . S
C3612 C3611 1.403 . S
C3612 C3613 1.404 . S
C3612 C3615 1.539 . S
C3613 C3609 1.408 . S
C3613 C3612 1.404 . S
C3613 H3625 0.930 . S
C3614 C3610 1.524 . S
C3614 H3626 0.956 . S
C3614 H3627 0.961 . S
C3614 H3628 0.961 . S
C3615 C3612 1.539 . S
C3615 H3629 0.958 . S
C3615 H3630 0.961 . S
C3615 H3631 0.960 . S
H3616 C3600 0.931 . S
H3617 C3605 0.929 . S
H3618 C3606 0.960 . S
H3619 C3606 0.962 . S
H3620 C3606 0.960 . S
H3621 C3607 0.961 . S
H3622 C3607 0.961 . S
H3623 C3607 0.961 . S
H3624 C3608 0.931 . S
H3625 C3613 0.930 . S
H3626 C3614 0.956 . S
H3627 C3614 0.961 . S
H3628 C3614 0.961 . S
H3629 C3615 0.958 . S
H3630 C3615 0.961 . S
H3631 C3615 0.960 . S
C3632 C3633 1.391 . S
C3632 C3634 1.394 . S
C3632 H3648 0.931 . S
C3633 C3632 1.391 . S
C3633 C3637 1.376 . S
C3634 C3632 1.394 . S
C3634 C3635 1.369 . S
C3634 C3638 1.531 . S
C3635 C3634 1.369 . S
C3635 C3636 1.410 . S
C3635 C3643 1.503 . S
C3636 C3635 1.410 . S
C3636 C3637 1.392 . S
C3636 C3639 1.511 . S
C3637 C3633 1.376 . S
C3637 C3636 1.392 . S
C3637 H3649 0.929 . S
C3638 C3634 1.531 . S
C3638 H3650 0.960 . S
C3638 H3651 0.962 . S
C3638 H3652 0.960 . S
C3639 C3636 1.511 . S
C3639 H3653 0.961 . S
C3639 H3654 0.961 . S
C3639 H3655 0.961 . S
C3640 C3641 1.370 . S
C3640 C3642 1.363 . S
C3640 H3656 0.931 . S
C3641 C3640 1.370 . S
C3641 C3645 1.408 . S
C3642 C3640 1.363 . S
C3642 C3643 1.370 . S
C3642 C3646 1.524 . S
C3643 C3635 1.503 . S
C3643 C3642 1.370 . S
C3643 C3644 1.403 . S
C3644 C3643 1.403 . S
C3644 C3645 1.404 . S
C3644 C3647 1.539 . S
C3645 C3641 1.408 . S
C3645 C3644 1.404 . S
C3645 H3657 0.930 . S
C3646 C3642 1.524 . S
C3646 H3658 0.956 . S
C3646 H3659 0.961 . S
C3646 H3660 0.961 . S
C3647 C3644 1.539 . S
C3647 H3661 0.958 . S
C3647 H3662 0.961 . S
C3647 H3663 0.960 . S
H3648 C3632 0.931 . S
H3649 C3637 0.929 . S
H3650 C3638 0.960 . S
H3651 C3638 0.962 . S
H3652 C3638 0.960 . S
H3653 C3639 0.961 . S
H3654 C3639 0.961 . S
H3655 C3639 0.961 . S
H3656 C3640 0.931 . S
H3657 C3645 0.930 . S
H3658 C3646 0.956 . S
H3659 C3646 0.961 . S
H3660 C3646 0.961 . S
H3661 C3647 0.958 . S
H3662 C3647 0.961 . S
H3663 C3647 0.960 . S
C3664 C3665 1.391 . S
C3664 C3666 1.394 . S
C3664 H3680 0.931 . S
C3665 C3664 1.391 . S
C3665 C3669 1.376 . S
C3666 C3664 1.394 . S
C3666 C3667 1.369 . S
C3666 C3670 1.531 . S
C3667 C3666 1.369 . S
C3667 C3668 1.410 . S
C3667 C3675 1.503 . S
C3668 C3667 1.410 . S
C3668 C3669 1.392 . S
C3668 C3671 1.511 . S
C3669 C3665 1.376 . S
C3669 C3668 1.392 . S
C3669 H3681 0.929 . S
C3670 C3666 1.531 . S
C3670 H3682 0.960 . S
C3670 H3683 0.962 . S
C3670 H3684 0.960 . S
C3671 C3668 1.511 . S
C3671 H3685 0.961 . S
C3671 H3686 0.961 . S
C3671 H3687 0.961 . S
C3672 C3673 1.370 . S
C3672 C3674 1.363 . S
C3672 H3688 0.931 . S
C3673 C3672 1.370 . S
C3673 C3677 1.408 . S
C3674 C3672 1.363 . S
C3674 C3675 1.370 . S
C3674 C3678 1.524 . S
C3675 C3667 1.503 . S
C3675 C3674 1.370 . S
C3675 C3676 1.403 . S
C3676 C3675 1.403 . S
C3676 C3677 1.404 . S
C3676 C3679 1.539 . S
C3677 C3673 1.408 . S
C3677 C3676 1.404 . S
C3677 H3689 0.930 . S
C3678 C3674 1.524 . S
C3678 H3690 0.956 . S
C3678 H3691 0.961 . S
C3678 H3692 0.961 . S
C3679 C3676 1.539 . S
C3679 H3693 0.958 . S
C3679 H3694 0.961 . S
C3679 H3695 0.960 . S
H3680 C3664 0.931 . S
H3681 C3669 0.929 . S
H3682 C3670 0.960 . S
H3683 C3670 0.962 . S
H3684 C3670 0.960 . S
H3685 C3671 0.961 . S
H3686 C3671 0.961 . S
H3687 C3671 0.961 . S
H3688 C3672 0.931 . S
H3689 C3677 0.930 . S
H3690 C3678 0.956 . S
H3691 C3678 0.961 . S
H3692 C3678 0.961 . S
H3693 C3679 0.958 . S
H3694 C3679 0.961 . S
H3695 C3679 0.960 . S
C3696 C3697 1.391 . S
C3696 C3698 1.394 . S
C3696 H3712 0.931 . S
C3697 C3696 1.391 . S
C3697 C3701 1.376 . S
C3698 C3696 1.394 . S
C3698 C3699 1.369 . S
C3698 C3702 1.531 . S
C3699 C3698 1.369 . S
C3699 C3700 1.410 . S
C3699 C3707 1.503 . S
C3700 C3699 1.410 . S
C3700 C3701 1.392 . S
C3700 C3703 1.511 . S
C3701 C3697 1.376 . S
C3701 C3700 1.392 . S
C3701 H3713 0.929 . S
C3702 C3698 1.531 . S
C3702 H3714 0.960 . S
C3702 H3715 0.962 . S
C3702 H3716 0.960 . S
C3703 C3700 1.511 . S
C3703 H3717 0.961 . S
C3703 H3718 0.961 . S
C3703 H3719 0.961 . S
C3704 C3705 1.370 . S
C3704 C3706 1.363 . S
C3704 H3720 0.931 . S
C3705 C3704 1.370 . S
C3705 C3709 1.408 . S
C3706 C3704 1.363 . S
C3706 C3707 1.370 . S
C3706 C3710 1.524 . S
C3707 C3699 1.503 . S
C3707 C3706 1.370 . S
C3707 C3708 1.403 . S
C3708 C3707 1.403 . S
C3708 C3709 1.404 . S
C3708 C3711 1.539 . S
C3709 C3705 1.408 . S
C3709 C3708 1.404 . S
C3709 H3721 0.930 . S
C3710 C3706 1.524 . S
C3710 H3722 0.956 . S
C3710 H3723 0.961 . S
C3710 H3724 0.961 . S
C3711 C3708 1.539 . S
C3711 H3725 0.958 . S
C3711 H3726 0.961 . S
C3711 H3727 0.960 . S
H3712 C3696 0.931 . S
H3713 C3701 0.929 . S
H3714 C3702 0.960 . S
H3715 C3702 0.962 . S
H3716 C3702 0.960 . S
H3717 C3703 0.961 . S
H3718 C3703 0.961 . S
H3719 C3703 0.961 . S
H3720 C3704 0.931 . S
H3721 C3709 0.930 . S
H3722 C3710 0.956 . S
H3723 C3710 0.961 . S
H3724 C3710 0.961 . S
H3725 C3711 0.958 . S
H3726 C3711 0.961 . S
H3727 C3711 0.960 . S
C3728 C3729 1.391 . S
C3728 C3730 1.394 . S
C3728 H3744 0.931 . S
C3729 C3728 1.391 . S
C3729 C3733 1.376 . S
C3730 C3728 1.394 . S
C3730 C3731 1.369 . S
C3730 C3734 1.531 . S
C3731 C3730 1.369 . S
C3731 C3732 1.410 . S
C3731 C3739 1.503 . S
C3732 C3731 1.410 . S
C3732 C3733 1.392 . S
C3732 C3735 1.511 1_455 S
C3733 C3729 1.376 . S
C3733 C3732 1.392 . S
C3733 H3745 0.929 . S
C3734 C3730 1.531 . S
C3734 H3746 0.960 . S
C3734 H3747 0.962 . S
C3734 H3748 0.960 . S
C3735 C3732 1.511 1_655 S
C3735 H3749 0.961 . S
C3735 H3750 0.961 . S
C3735 H3751 0.961 . S
C3736 C3737 1.370 . S
C3736 C3738 1.363 . S
C3736 H3752 0.931 . S
C3737 C3736 1.370 . S
C3737 C3741 1.408 . S
C3738 C3736 1.363 . S
C3738 C3739 1.370 1_655 S
C3738 C3742 1.524 1_655 S
C3739 C3731 1.503 . S
C3739 C3738 1.370 1_455 S
C3739 C3740 1.403 1_455 S
C3740 C3739 1.403 1_655 S
C3740 C3741 1.404 . S
C3740 C3743 1.539 . S
C3741 C3737 1.408 . S
C3741 C3740 1.404 . S
C3741 H3753 0.930 . S
C3742 C3738 1.524 1_455 S
C3742 H3754 0.956 . S
C3742 H3755 0.961 . S
C3742 H3756 0.961 1_455 S
C3743 C3740 1.539 . S
C3743 H3757 0.958 1_655 S
C3743 H3758 0.961 . S
C3743 H3759 0.960 1_655 S
H3744 C3728 0.931 . S
H3745 C3733 0.929 . S
H3746 C3734 0.960 . S
H3747 C3734 0.962 . S
H3748 C3734 0.960 . S
H3749 C3735 0.961 . S
H3750 C3735 0.961 . S
H3751 C3735 0.961 . S
H3752 C3736 0.931 . S
H3753 C3741 0.930 . S
H3754 C3742 0.956 . S
H3755 C3742 0.961 . S
H3756 C3742 0.961 1_655 S
H3757 C3743 0.958 1_455 S
H3758 C3743 0.961 . S
H3759 C3743 0.960 1_455 S
C697 C354 1.026 . S
C689 C11 1.061 . S
C721 C14 1.182 . S
C729 C366 1.172 . S
C761 C401 1.249 . S
C753 C37 1.242 . S
C793 C410 1.156 . S
C785 C47 1.165 . S
C825 C365 1.146 . S
C817 C61 1.185 . S
C849 C79 1.178 . S
C857 C390 1.213 . S
C889 C409 1.181 . S
C881 C84 1.136 . S
C913 C109 1.082 . S
C921 C351 1.065 . S
C945 C123 1.068 . S
C953 C344 1.097 . S
C985 C368 1.156 . S
C977 C131 1.155 . S
C1017 C387 1.253 . S
C1009 C140 1.212 . S
C1049 C412 1.152 . S
C1041 C163 1.147 . S
C1081 C373 1.137 . S
C1073 C121 1.145 . S
C1113 C398 1.230 . S
C1105 C126 1.234 . S
C1137 C145 1.135 . S
C1145 C417 1.147 . S
C1177 C357 1.051 . S
C1169 C165 1.094 . S
C1201 C168 1.083 . S
C1209 C346 1.092 . S
C1233 C193 1.145 . S
C1241 C445 1.137 . S
C1273 C461 1.163 . S
C1265 C205 1.197 . S
C1305 C475 1.177 . S
C1297 C215 1.175 . S
C1329 C224 1.148 . S
C1337 C343 1.109 . S
C1361 C247 1.175 . S
C1369 C395 1.194 . S
C1401 C478 1.137 . S
C1393 C207 1.095 . S
C1433 C442 1.219 . S
C1425 C257 1.244 . S
C1465 C498 1.185 . S
C1457 C23 1.190 . S
C1497 C522 1.101 . S
C1489 C0 1.109 . S
C1521 C53 1.067 . S
C1529 C555 1.058 . S
C1553 C33 1.201 . S
C1561 C563 1.198 . S
C1585 C103 1.205 . S
C1593 C533 1.195 . S
C1617 C95 1.011 . S
C1625 C544 1.035 . S
C1657 C564 1.103 . S
C1649 C70 1.075 . S
C1681 C65 1.201 . S
C1689 C497 1.203 . S
C1713 C271 1.173 . S
C1721 C500 1.180 . S
C1753 C530 1.149 . S
C1745 C219 1.107 . S
C1785 C541 1.080 . S
C1777 C235 1.098 . S
C1817 C571 1.110 . S
C1809 C182 1.094 . S
C1849 C519 1.124 . S
C1841 C266 1.134 . S
C1881 C552 1.027 . S
C1873 C221 1.002 . S
C1913 C566 1.167 . S
C1905 C233 1.164 . S
C1937 C187 1.225 . S
C1945 C505 1.213 . S
C1977 C508 1.123 . S
C1969 C289 1.134 . S
C2001 C154 1.196 . S
C2009 C596 1.188 . S
C2041 C608 1.112 . S
C2033 C299 1.112 . S
C2065 C137 1.148 . S
C2073 C629 1.145 . S
C2105 C511 1.185 . S
C2097 C149 1.190 . S
C2137 C549 1.084 . S
C2129 C313 1.087 . S
C2169 C632 1.137 . S
C2161 C294 1.143 . S
C2193 C333 1.134 . S
C2201 C599 1.127 . S
C2225 C39 1.089 . S
C2233 C654 1.057 . S
C2257 C42 1.114 . S
C2265 C432 1.169 . S
C2297 C456 1.194 . S
C2289 C9 1.154 . S
C2321 C19 1.179 . S
C2329 C486 1.158 . S
C2353 C89 1.139 . S
C2361 C431 1.150 . S
C2385 C107 1.267 . S
C2393 C467 1.224 . S
C2425 C483 1.204 . S
C2417 C56 1.165 . S
C2457 C665 1.062 . S
C2449 C81 1.091 . S
C2489 C662 1.078 . S
C2481 C305 1.045 . S
C2521 C434 1.131 . S
C2513 C285 1.128 . S
C2553 C464 1.249 . S
C2545 C322 1.256 . S
C2577 C317 1.182 . S
C2585 C476 1.199 . S
C2617 C439 1.161 . S
C2609 C303 1.179 . S
C2641 C280 1.242 . S
C2649 C453 1.196 . S
C2681 C489 1.112 . S
C2673 C327 1.152 . S
C2705 C319 1.125 . S
C2713 C651 1.088 . S
C2745 C652 1.121 . S
C2737 C210 1.069 . S
C2769 C249 1.115 . S
C2777 C379 1.102 . S
C2809 C388 1.172 . S
C2801 C275 1.142 . S
C2833 C173 1.195 . S
C2841 C423 1.159 . S
C2873 C659 1.094 . S
C2865 C252 1.143 . S
C2905 C454 1.186 . S
C2897 C191 1.210 . S
C2937 C420 1.108 . S
C2929 C277 1.141 . S
C2969 C376 1.195 . S
C2961 C229 1.228 . S
C2993 C51 1.221 . S
C3001 C673 1.214 . S
C3025 C28 1.140 . S
C3033 C585 1.126 . S
C3057 C25 1.063 . S
C3065 C621 1.059 . S
C3097 C640 1.160 . S
C3089 C5 1.147 . S
C3129 C586 1.162 . S
C3121 C75 1.146 . S
C3153 C67 1.010 . S
C3161 C610 1.033 . S
C3193 C637 1.124 . S
C3185 C98 1.113 . S
C3217 C93 1.211 . S
C3225 C674 1.210 . S
C3257 C681 1.230 . S
C3249 C201 1.241 . S
C3281 C177 1.121 . S
C3289 C593 1.151 . S
C3313 C263 1.093 . S
C3321 C607 1.074 . S
C3353 C630 1.093 . S
C3345 C238 1.056 . S
C3385 C588 1.107 . S
C3377 C196 1.089 . S
C3409 C179 1.003 . S
C3417 C618 1.025 . S
C3449 C643 1.160 . S
C3441 C261 1.140 . S
C3481 C676 1.217 . S
C3473 C243 1.206 . S
C3513 C687 1.119 . S
C3505 C135 1.115 . S
C3545 C527 1.220 . S
C3537 C308 1.232 . S
C3569 C117 1.105 . S
C3577 C542 1.103 . S
C3601 C291 1.142 . S
C3609 C574 1.136 . S
C3641 C684 1.151 . S
C3633 C331 1.124 . S
C3673 C615 1.099 . S
C3665 C159 1.109 . S
C3705 C577 1.163 . S
C3697 C112 1.152 . S
C3737 C520 1.110 . S
C3729 C151 1.121 . S
