# Generated by pormake.
# Topology gar, (4,6)-cn, num edge types: 1
# Building blocks:
#     Node 0, Type 0, BuildingBlock: QUQFOY_clean_sbu_3, # of connection points: 4
#     Node 1, Type 0, BuildingBlock: QUQFOY_clean_sbu_3, # of connection points: 4
#     Node 2, Type 0, BuildingBlock: QUQFOY_clean_sbu_3, # of connection points: 4
#     Node 3, Type 0, BuildingBlock: QUQFOY_clean_sbu_3, # of connection points: 4
#     Node 4, Type 0, BuildingBlock: QUQFOY_clean_sbu_3, # of connection points: 4
#     Node 5, Type 0, BuildingBlock: QUQFOY_clean_sbu_3, # of connection points: 4
#     Node 6, Type 0, BuildingBlock: QUQFOY_clean_sbu_3, # of connection points: 4
#     Node 7, Type 0, BuildingBlock: QUQFOY_clean_sbu_3, # of connection points: 4
#     Node 8, Type 0, BuildingBlock: QUQFOY_clean_sbu_3, # of connection points: 4
#     Node 9, Type 0, BuildingBlock: QUQFOY_clean_sbu_3, # of connection points: 4
#     Node 10, Type 0, BuildingBlock: QUQFOY_clean_sbu_3, # of connection points: 4
#     Node 11, Type 0, BuildingBlock: QUQFOY_clean_sbu_3, # of connection points: 4
#     Node 12, Type 0, BuildingBlock: QUQFOY_clean_sbu_3, # of connection points: 4
#     Node 13, Type 0, BuildingBlock: QUQFOY_clean_sbu_3, # of connection points: 4
#     Node 14, Type 0, BuildingBlock: QUQFOY_clean_sbu_3, # of connection points: 4
#     Node 15, Type 0, BuildingBlock: QUQFOY_clean_sbu_3, # of connection points: 4
#     Node 16, Type 0, BuildingBlock: QUQFOY_clean_sbu_3, # of connection points: 4
#     Node 17, Type 0, BuildingBlock: QUQFOY_clean_sbu_3, # of connection points: 4
#     Node 18, Type 0, BuildingBlock: QUQFOY_clean_sbu_3, # of connection points: 4
#     Node 19, Type 0, BuildingBlock: QUQFOY_clean_sbu_3, # of connection points: 4
#     Node 20, Type 0, BuildingBlock: QUQFOY_clean_sbu_3, # of connection points: 4
#     Node 21, Type 0, BuildingBlock: QUQFOY_clean_sbu_3, # of connection points: 4
#     Node 22, Type 0, BuildingBlock: QUQFOY_clean_sbu_3, # of connection points: 4
#     Node 23, Type 0, BuildingBlock: QUQFOY_clean_sbu_3, # of connection points: 4
#     Node 24, Type 1, BuildingBlock: NUHQIS_clean_sbu_0, # of connection points: 6
#     Node 25, Type 1, BuildingBlock: NUHQIS_clean_sbu_0, # of connection points: 6
#     Node 26, Type 1, BuildingBlock: NUHQIS_clean_sbu_0, # of connection points: 6
#     Node 27, Type 1, BuildingBlock: NUHQIS_clean_sbu_0, # of connection points: 6
#     Node 28, Type 1, BuildingBlock: NUHQIS_clean_sbu_0, # of connection points: 6
#     Node 29, Type 1, BuildingBlock: NUHQIS_clean_sbu_0, # of connection points: 6
#     Node 30, Type 1, BuildingBlock: NUHQIS_clean_sbu_0, # of connection points: 6
#     Node 31, Type 1, BuildingBlock: NUHQIS_clean_sbu_0, # of connection points: 6
#     Node 32, Type 1, BuildingBlock: NUHQIS_clean_sbu_0, # of connection points: 6
#     Node 33, Type 1, BuildingBlock: NUHQIS_clean_sbu_0, # of connection points: 6
#     Node 34, Type 1, BuildingBlock: NUHQIS_clean_sbu_0, # of connection points: 6
#     Node 35, Type 1, BuildingBlock: NUHQIS_clean_sbu_0, # of connection points: 6
#     Node 36, Type 1, BuildingBlock: NUHQIS_clean_sbu_0, # of connection points: 6
#     Node 37, Type 1, BuildingBlock: NUHQIS_clean_sbu_0, # of connection points: 6
#     Node 38, Type 1, BuildingBlock: NUHQIS_clean_sbu_0, # of connection points: 6
#     Node 39, Type 1, BuildingBlock: NUHQIS_clean_sbu_0, # of connection points: 6
#     Edge 40, Type (0, 1), None
#     Edge 41, Type (0, 1), None
#     Edge 42, Type (0, 1), None
#     Edge 43, Type (0, 1), None
#     Edge 44, Type (0, 1), None
#     Edge 45, Type (0, 1), None
#     Edge 46, Type (0, 1), None
#     Edge 47, Type (0, 1), None
#     Edge 48, Type (0, 1), None
#     Edge 49, Type (0, 1), None
#     Edge 50, Type (0, 1), None
#     Edge 51, Type (0, 1), None
#     Edge 52, Type (0, 1), None
#     Edge 53, Type (0, 1), None
#     Edge 54, Type (0, 1), None
#     Edge 55, Type (0, 1), None
#     Edge 56, Type (0, 1), None
#     Edge 57, Type (0, 1), None
#     Edge 58, Type (0, 1), None
#     Edge 59, Type (0, 1), None
#     Edge 60, Type (0, 1), None
#     Edge 61, Type (0, 1), None
#     Edge 62, Type (0, 1), None
#     Edge 63, Type (0, 1), None
#     Edge 64, Type (0, 1), None
#     Edge 65, Type (0, 1), None
#     Edge 66, Type (0, 1), None
#     Edge 67, Type (0, 1), None
#     Edge 68, Type (0, 1), None
#     Edge 69, Type (0, 1), None
#     Edge 70, Type (0, 1), None
#     Edge 71, Type (0, 1), None
#     Edge 72, Type (0, 1), None
#     Edge 73, Type (0, 1), None
#     Edge 74, Type (0, 1), None
#     Edge 75, Type (0, 1), None
#     Edge 76, Type (0, 1), None
#     Edge 77, Type (0, 1), None
#     Edge 78, Type (0, 1), None
#     Edge 79, Type (0, 1), None
#     Edge 80, Type (0, 1), None
#     Edge 81, Type (0, 1), None
#     Edge 82, Type (0, 1), None
#     Edge 83, Type (0, 1), None
#     Edge 84, Type (0, 1), None
#     Edge 85, Type (0, 1), None
#     Edge 86, Type (0, 1), None
#     Edge 87, Type (0, 1), None
#     Edge 88, Type (0, 1), None
#     Edge 89, Type (0, 1), None
#     Edge 90, Type (0, 1), None
#     Edge 91, Type (0, 1), None
#     Edge 92, Type (0, 1), None
#     Edge 93, Type (0, 1), None
#     Edge 94, Type (0, 1), None
#     Edge 95, Type (0, 1), None
#     Edge 96, Type (0, 1), None
#     Edge 97, Type (0, 1), None
#     Edge 98, Type (0, 1), None
#     Edge 99, Type (0, 1), None
#     Edge 100, Type (0, 1), None
#     Edge 101, Type (0, 1), None
#     Edge 102, Type (0, 1), None
#     Edge 103, Type (0, 1), None
#     Edge 104, Type (0, 1), None
#     Edge 105, Type (0, 1), None
#     Edge 106, Type (0, 1), None
#     Edge 107, Type (0, 1), None
#     Edge 108, Type (0, 1), None
#     Edge 109, Type (0, 1), None
#     Edge 110, Type (0, 1), None
#     Edge 111, Type (0, 1), None
#     Edge 112, Type (0, 1), None
#     Edge 113, Type (0, 1), None
#     Edge 114, Type (0, 1), None
#     Edge 115, Type (0, 1), None
#     Edge 116, Type (0, 1), None
#     Edge 117, Type (0, 1), None
#     Edge 118, Type (0, 1), None
#     Edge 119, Type (0, 1), None
#     Edge 120, Type (0, 1), None
#     Edge 121, Type (0, 1), None
#     Edge 122, Type (0, 1), None
#     Edge 123, Type (0, 1), None
#     Edge 124, Type (0, 1), None
#     Edge 125, Type (0, 1), None
#     Edge 126, Type (0, 1), None
#     Edge 127, Type (0, 1), None
#     Edge 128, Type (0, 1), None
#     Edge 129, Type (0, 1), None
#     Edge 130, Type (0, 1), None
#     Edge 131, Type (0, 1), None
#     Edge 132, Type (0, 1), None
#     Edge 133, Type (0, 1), None
#     Edge 134, Type (0, 1), None
#     Edge 135, Type (0, 1), None
# Relax obj value: 0.507
# Max RMSD: 0.438
# Mean RMSD: 0.171
data_MOF--net-gar--node1-QUQFOY_clean_sbu_3--node2-NUHQIS_clean_sbu_0--edge1-none
_symmetry_space_group_name_H-M    P1
_symmetry_Int_Tables_number       1
_symmetry_cell_setting            triclinic
loop_
_symmetry_equiv_pos_as_xyz
'x, y, z'
_cell_length_a     27.555295
_cell_length_b     30.5748
_cell_length_c     27.422254
_cell_angle_alpha  90.59351
_cell_angle_beta   96.547415
_cell_angle_gamma 98.164752
loop_
_atom_site_label
_atom_site_type_symbol
_atom_site_fract_x
_atom_site_fract_y
_atom_site_fract_z
_atom_type_partial_charge
C0 C 1.01936 0.38356 0.3547 0.0
O1 O 1.05084 0.41175 0.33731 0.0
Cd2 Cd 0.13054 0.43061 0.39094 0.0
O3 O 1.03509 0.36299 0.39277 0.0
Cd4 Cd 0.12903 0.36671 0.43892 0.0
C5 C 0.13283 0.50039 0.47244 0.0
O6 O 0.21152 0.40283 0.40123 0.0
O7 O 0.18007 0.34322 0.36493 0.0
O8 O 0.10812 0.27609 0.44746 0.0
C9 C 0.21698 0.37373 0.36989 0.0
O10 O 0.13478 0.50377 0.42683 0.0
C11 C 0.1208 0.2693 0.49263 0.0
O12 O 0.13066 0.4593 0.48874 0.0
O13 O 0.13797 0.30622 0.51549 0.0
C14 C 0.99598 0.86704 0.74719 0.0
O15 O 1.01155 0.83051 0.75645 0.0
Cd16 Cd 0.08553 0.82478 0.71362 0.0
O17 O 1.02027 0.8926 0.71749 0.0
Cd18 Cd 0.10691 0.8895 0.66731 0.0
C19 C 0.10135 0.75876 0.62863 0.0
O20 O 0.16167 0.87035 0.7516 0.0
O21 O 0.19888 0.88755 0.68868 0.0
O22 O 0.12311 0.98235 0.66546 0.0
C23 C 0.20265 0.87703 0.73354 0.0
O24 O 0.09739 0.75371 0.67401 0.0
C25 C 0.12022 0.99136 0.61982 0.0
O26 O 0.1019 0.80003 0.61364 0.0
O27 O 0.1114 0.95511 0.59411 0.0
C28 C 0.5082 0.88243 0.86234 0.0
O29 O 0.53712 0.91416 0.8478 0.0
Cd30 Cd 0.61566 0.91981 0.89704 0.0
O31 O 0.52717 0.85872 0.8964 0.0
Cd32 Cd 0.62561 0.86495 0.94179 0.0
C33 C 0.63287 0.99456 0.97799 0.0
O34 O 0.6702 0.87746 0.85741 0.0
O35 O 0.72009 0.88011 0.92239 0.0
O36 O 0.6119 0.77229 0.94377 0.0
C37 C 0.7152 0.88008 0.87555 0.0
O38 O 0.63371 0.99652 0.9319 0.0
C39 C 0.61941 0.76405 0.9894 0.0
O40 O 0.6292 0.95396 0.99494 0.0
O41 O 0.63032 0.80055 1.01456 0.0
C42 C 0.50499 0.36164 0.25218 0.0
O43 O 0.52099 0.3249 0.25695 0.0
Cd44 Cd 0.59212 0.32565 0.20958 0.0
O45 O 0.52803 0.38942 0.22364 0.0
Cd46 Cd 0.61272 0.38644 0.16914 0.0
C47 C 0.6019 0.25711 0.12672 0.0
O48 O 0.66982 0.36608 0.25168 0.0
O49 O 0.70563 0.38606 0.18884 0.0
O50 O 0.62669 0.47907 0.16708 0.0
C51 C 0.71049 0.37461 0.23336 0.0
O52 O 0.59952 0.25287 0.17231 0.0
C53 C 0.62612 0.48787 0.12152 0.0
O54 O 0.60348 0.29835 0.11175 0.0
O55 O 0.61901 0.45159 0.09595 0.0
C56 C 0.16434 0.97101 0.2963 0.0
O57 O 0.19833 0.99025 0.32723 0.0
Cd58 Cd 0.25944 0.95106 0.31032 0.0
O59 O 0.17112 0.96709 0.2516 0.0
Cd60 Cd 0.23452 0.99288 0.20024 0.0
C61 C 0.2051 0.89065 0.20049 0.0
O62 O 0.30087 1.00408 0.2649 0.0
O63 O 0.31783 0.97688 0.19755 0.0
O64 O 0.2005 0.05396 0.17295 0.0
C65 C 0.32841 0.98231 0.24379 0.0
O66 O 0.22042 0.89462 0.24626 0.0
C67 C 0.18894 1.03973 0.12872 0.0
O68 O 0.20791 0.92292 0.17237 0.0
O69 O 0.20671 1.0062 0.11487 0.0
C70 C 0.44953 0.7659 0.35372 0.0
O71 O 0.46724 0.74565 0.32117 0.0
Cd72 Cd 0.54856 0.78315 0.3219 0.0
O73 O 0.47447 0.77394 0.39577 0.0
Cd74 Cd 0.55371 0.76004 0.44053 0.0
C75 C 0.55917 0.86215 0.41957 0.0
O76 O 0.59192 0.73822 0.37287 0.0
O77 O 0.64076 0.7738 0.43076 0.0
O78 O 0.53558 0.70257 0.49141 0.0
C79 C 0.63346 0.76082 0.38622 0.0
O80 O 0.55818 0.85157 0.37419 0.0
C81 C 0.56525 0.71912 0.52797 0.0
O82 O 0.5555 0.83397 0.45275 0.0
O83 O 0.58384 0.75937 0.52666 0.0
C84 C 0.67316 0.48615 0.79257 0.0
O85 O 0.71266 0.49785 0.82064 0.0
Cd86 Cd 0.76259 0.44584 0.80534 0.0
O87 O 0.67469 0.4773 0.74758 0.0
Cd88 Cd 0.72728 0.47755 0.68464 0.0
C89 C 0.68159 0.37955 0.71477 0.0
O90 O 0.79775 0.48167 0.74186 0.0
O91 O 0.79994 0.44406 0.67517 0.0
O92 O 0.70503 0.54132 0.6496 0.0
C93 C 0.81616 0.45263 0.72014 0.0
O94 O 0.70703 0.38598 0.75691 0.0
C95 C 0.68294 0.5227 0.60982 0.0
O96 O 0.68192 0.40868 0.68234 0.0
O97 O 0.68892 0.48315 0.60039 0.0
C98 C 0.95847 0.25298 0.84708 0.0
O99 O 0.97954 0.23319 0.8168 0.0
Cd100 Cd 1.05456 0.28102 0.81924 0.0
O101 O 0.98 0.26179 0.89038 0.0
Cd102 Cd 1.06076 0.25506 0.93638 0.0
C103 C 1.04427 0.35344 0.91878 0.0
O104 O 0.10756 0.24567 0.87156 0.0
O105 O 0.14225 0.29168 0.92914 0.0
O106 O 0.06563 0.19567 0.98729 0.0
C107 C 0.14229 0.27621 0.88618 0.0
O108 O 1.05026 0.34457 0.87436 0.0
C109 C 0.08714 0.21944 0.02382 0.0
O110 O 1.042 0.32452 0.95138 0.0
O111 O 0.09058 0.2611 1.02156 0.0
C112 C 0.65832 0.22161 0.46562 0.0
O113 O 0.69897 0.21356 0.45243 0.0
Cd114 Cd 0.72332 0.20161 0.37355 0.0
O115 O 0.62424 0.23355 0.43559 0.0
Cd116 Cd 0.60865 0.24011 0.34841 0.0
C117 C 0.62473 0.12769 0.34211 0.0
O118 O 0.69202 0.25943 0.33194 0.0
O119 O 0.63933 0.27629 0.27575 0.0
O120 O 0.52792 0.264 0.33553 0.0
C121 C 0.6781 0.2589 0.28661 0.0
O122 O 0.67155 0.13083 0.34939 0.0
C123 C 0.50934 0.22898 0.3101 0.0
O124 O 0.60379 0.16187 0.3425 0.0
O125 O 0.53687 0.2002 0.3033 0.0
C126 C 0.48712 0.18352 0.57771 0.0
O127 O 0.47348 0.18189 0.62026 0.0
Cd128 Cd 0.40417 0.22513 0.61591 0.0
O129 O 0.46162 0.2048 0.54573 0.0
Cd130 Cd 0.3797 0.25083 0.55333 0.0
C131 C 0.39228 0.30002 0.68387 0.0
O132 O 0.31733 0.18922 0.59777 0.0
O133 O 0.28842 0.21807 0.53194 0.0
O134 O 0.36559 0.26138 0.4556 0.0
C135 C 0.27963 0.19222 0.56693 0.0
O136 O 0.40988 0.26472 0.69374 0.0
C137 C 0.38 0.30262 0.45185 0.0
O138 O 0.37944 0.30656 0.63754 0.0
O139 O 0.39339 0.32175 0.49394 0.0
C140 C 0.2407 0.1754 1.01153 0.0
O141 O 0.23576 0.2131 0.995 0.0
Cd142 Cd 0.29122 0.20677 0.9398 0.0
O143 O 0.27717 0.15688 1.00232 0.0
Cd144 Cd 0.31825 0.1916 0.93256 0.0
C145 C 0.31758 0.28728 0.90104 0.0
O146 O 0.23791 0.14947 0.89918 0.0
O147 O 0.2807 0.18352 0.84697 0.0
O148 O 0.37398 0.13765 0.94154 0.0
C149 C 0.24292 0.15729 0.8552 0.0
O150 O 0.27708 0.2643 0.88575 0.0
C151 C 0.39124 0.14819 0.90144 0.0
O152 O 0.34557 0.27265 0.93516 0.0
O153 O 0.38249 0.18455 0.88366 0.0
C154 C 0.48426 0.04922 0.05546 0.0
O155 O 0.44493 0.06004 0.03401 0.0
Cd156 Cd 0.38633 0.99545 0.0361 0.0
O157 O 0.48264 1.01089 0.0738 0.0
Cd158 Cd 0.39751 0.96742 0.08059 0.0
C159 C 0.35954 0.93739 0.95201 0.0
O160 O 0.33085 1.01969 0.08399 0.0
O161 O 0.39515 1.03109 0.13739 0.0
O162 O 0.43766 0.92897 0.15136 0.0
C163 C 0.35333 1.0412 0.12186 0.0
O164 O 0.35468 0.97782 0.95222 0.0
C165 C 0.399 0.90446 0.16117 0.0
O166 O 0.37523 0.92143 0.99309 0.0
O167 O 0.3603 0.90656 0.13177 0.0
C168 C 0.46733 0.57461 0.04053 0.0
O169 O 0.44022 0.58053 1.00144 0.0
Cd170 Cd 0.35876 0.53902 1.00816 0.0
O171 O 0.4469 0.54933 0.07264 0.0
Cd172 Cd 0.35149 0.50061 0.06948 0.0
C173 C 0.34714 0.46187 0.93788 0.0
O174 O 0.30476 0.57216 0.05864 0.0
O175 O 0.25685 0.51116 0.05349 0.0
O176 O 0.36616 0.48661 0.16679 0.0
C177 C 0.26034 0.5531 0.05599 0.0
O178 O 0.33028 0.49795 0.93021 0.0
C179 C 0.3474 0.44608 0.16871 0.0
O180 O 0.36114 0.45364 0.98335 0.0
O181 O 0.3314 0.4293 0.12607 0.0
C182 C 0.9052 0.18825 0.03782 0.0
O183 O 0.896 0.1745 0.07993 0.0
Cd184 Cd 0.8353 0.19692 0.1254 0.0
O185 O 0.88956 0.2229 1.02029 0.0
Cd186 Cd 0.83665 0.2796 0.03813 0.0
C187 C 0.86381 0.30674 0.16845 0.0
O188 O 0.7906 0.20871 0.04993 0.0
O189 O 0.74537 0.26004 0.0359 0.0
O190 O 0.8091 0.29281 0.94963 0.0
C191 C 0.74802 0.21943 0.04417 0.0
O192 O 0.85763 0.26522 0.17473 0.0
C193 C 0.84276 0.32414 0.9429 0.0
O194 O 0.85899 0.32185 0.12465 0.0
O195 O 0.87266 0.33726 0.98071 0.0
C196 C 1.01447 0.52179 0.28179 0.0
O197 O 0.98692 0.52469 0.24204 0.0
Cd198 Cd 1.02953 0.56683 0.18291 0.0
O199 O 1.04063 0.4906 0.28417 0.0
Cd200 Cd 0.12533 0.51859 0.26906 0.0
C201 C 0.11675 0.633 0.25592 0.0
O202 O 0.08777 0.51615 0.18804 0.0
O203 O 0.16591 0.51549 0.1943 0.0
O204 O 0.1867 0.48389 0.32059 0.0
C205 C 0.12689 0.52308 0.16845 0.0
O206 O 0.07957 0.63302 0.22363 0.0
C207 C 0.21006 0.52125 0.33737 0.0
O208 O 0.1313 0.59732 0.27015 0.0
O209 O 0.19206 0.55586 0.32431 0.0
C210 C 0.96307 0.0765 0.53411 0.0
O211 O 0.93726 0.08286 0.49429 0.0
Cd212 Cd 0.85236 0.04569 0.49604 0.0
O213 O 0.94104 0.0517 0.56573 0.0
Cd214 Cd 0.84471 1.00328 0.56285 0.0
C215 C 0.83932 0.96193 0.43007 0.0
O216 O 0.79932 0.07487 0.55255 0.0
O217 O 0.75005 1.01471 0.54445 0.0
O218 O 0.86339 0.99068 0.66108 0.0
C219 C 0.75445 0.0566 0.54843 0.0
O220 O 0.82525 0.99901 0.42088 0.0
C221 C 0.83962 0.95211 0.66497 0.0
O222 O 0.85226 0.95442 0.47614 0.0
O223 O 0.81938 0.93585 0.62323 0.0
C224 C 1.04267 1.02547 0.25339 0.0
O225 O 1.06237 1.01542 0.21575 0.0
Cd226 Cd 1.00881 1.01676 0.14629 0.0
O227 O 1.00134 1.04017 0.25031 0.0
Cd228 Cd 0.9359 0.06795 0.19752 0.0
C229 C 0.91169 0.96727 0.19853 0.0
O230 O 1.0102 0.08937 0.17864 0.0
O231 O 0.95834 0.11436 0.126 0.0
O232 O 0.94443 0.11124 0.27109 0.0
C233 C 1.0028 0.11547 0.14526 0.0
O234 O 0.95557 0.96688 0.18949 0.0
C235 C 0.90158 0.12188 0.26394 0.0
O236 O 0.88787 0.99788 0.18346 0.0
O237 O 0.87398 0.1073 0.22525 0.0
C238 C 0.40254 0.68726 0.53565 0.0
O239 O 0.39642 0.67592 0.57942 0.0
Cd240 Cd 0.33512 0.70005 0.6232 0.0
O241 O 0.38803 0.72255 0.51814 0.0
Cd242 Cd 0.34354 0.78614 0.54087 0.0
C243 C 0.36262 0.80783 0.67255 0.0
O244 O 0.29559 0.71477 0.54581 0.0
O245 O 0.25105 0.76596 0.52956 0.0
O246 O 0.31662 0.8286 0.4666 0.0
C247 C 0.25309 0.72521 0.5372 0.0
O248 O 0.35521 0.76611 0.67733 0.0
C249 C 0.35921 0.84139 0.454 0.0
O250 O 0.36148 0.82414 0.62932 0.0
O251 O 0.39508 0.83011 0.48204 0.0
C252 C 0.55468 0.56814 0.74048 0.0
O253 O 0.56955 0.56159 0.69919 0.0
Cd254 Cd 0.50775 0.52235 0.63906 0.0
O255 O 0.51068 0.55408 0.74836 0.0
Cd256 Cd 0.44152 0.57849 0.70316 0.0
C257 C 0.42344 0.47653 0.70983 0.0
O258 O 0.4631 0.58293 0.62431 0.0
O259 O 0.49097 0.64044 0.67124 0.0
O260 O 0.4414 0.61982 0.77512 0.0
C261 C 0.493 0.61846 0.6324 0.0
O262 O 0.46595 0.4756 0.69657 0.0
C263 C 0.39696 0.62643 0.76614 0.0
O264 O 0.39794 0.50647 0.69615 0.0
O265 O 0.37203 0.61053 0.72627 0.0
C266 C 0.50221 1.01351 0.77576 0.0
O267 O 0.48126 1.01983 0.73334 0.0
Cd268 Cd 0.5195 0.08247 0.69265 0.0
O269 O 0.52259 0.97873 0.78101 0.0
Cd270 Cd 0.60449 0.9996 0.75482 0.0
C271 C 0.62009 0.11785 0.76882 0.0
O272 O 0.56952 1.02691 0.68249 0.0
O273 O 0.63195 0.99498 0.6716 0.0
O274 O 0.67546 0.9668 0.79119 0.0
C275 C 0.60052 1.01939 0.65471 0.0
O276 O 0.58301 0.13191 0.74531 0.0
C277 C 0.69364 1.00222 0.81607 0.0
O278 O 0.62366 0.07716 0.76879 0.0
O279 O 0.66878 1.03414 0.81429 0.0
C280 C 0.99396 0.68275 0.07868 0.0
O281 O 0.97789 0.68138 0.12019 0.0
Cd282 Cd 0.9061 0.72316 0.11163 0.0
O283 O 0.96866 0.70312 0.04497 0.0
Cd284 Cd 0.88151 0.7488 0.04678 0.0
C285 C 0.8855 0.79725 0.1772 0.0
O286 O 0.81817 0.68887 0.09177 0.0
O287 O 0.79279 0.70921 1.02019 0.0
O288 O 0.85694 0.76599 0.9506 0.0
C289 C 0.78226 0.68713 0.05758 0.0
O290 O 0.90658 0.76387 0.18788 0.0
C291 C 0.87647 0.80614 0.94747 0.0
O292 O 0.87324 0.80299 0.13057 0.0
O293 O 0.89839 0.82162 0.98902 0.0
C294 C 0.16761 0.71916 0.96797 0.0
O295 O 0.20668 0.71351 0.94975 0.0
Cd296 Cd 0.19595 0.64543 0.90465 0.0
O297 O 0.13711 0.74027 0.9429 0.0
Cd298 Cd 0.08298 0.69927 0.87382 0.0
C299 C 1.063 0.61907 0.90207 0.0
O300 O 0.15325 0.67596 0.83792 0.0
O301 O 0.08079 0.65487 0.80062 0.0
O302 O 1.03562 0.7474 0.83122 0.0
C303 C 0.12593 0.65134 0.80553 0.0
O304 O 0.10915 0.62829 0.90302 0.0
C305 C 0.99854 0.7165 0.82401 0.0
O306 O 1.03993 0.64547 0.92271 0.0
O307 O 1.0007 0.67995 0.8446 0.0
C308 C 0.99175 0.55355 0.56042 0.0
O309 O 0.95197 0.56199 0.53745 0.0
Cd310 Cd 0.89885 0.49377 0.53545 0.0
O311 O 0.99231 0.5149 0.57779 0.0
Cd312 Cd 0.9087 0.46411 0.57971 0.0
C313 C 0.87375 0.43733 0.44964 0.0
O314 O 0.8366 0.51069 0.57933 0.0
O315 O 0.89472 0.52161 0.63934 0.0
O316 O 0.94789 0.42547 0.65194 0.0
C317 C 0.85354 0.53044 0.61996 0.0
O318 O 0.87094 0.47812 0.45057 0.0
C319 C 0.9109 0.39648 0.65625 0.0
O320 O 0.88729 0.42009 0.49068 0.0
O321 O 0.8742 0.39692 0.62377 0.0
C322 C 0.734 0.66101 0.49553 0.0
O323 O 0.72398 0.69447 0.4719 0.0
Cd324 Cd 0.79046 0.69501 0.42837 0.0
O325 O 0.77644 0.64923 0.49583 0.0
Cd326 Cd 0.81989 0.68337 0.4265 0.0
C327 C 0.80947 0.77713 0.3882 0.0
O328 O 0.74903 0.6296 0.39157 0.0
O329 O 0.78579 0.66905 0.33937 0.0
O330 O 0.882 0.636 0.44205 0.0
C331 C 0.75218 0.63822 0.34752 0.0
O332 O 0.77503 0.74886 0.36848 0.0
C333 C 0.90059 0.64728 0.40281 0.0
O334 O 0.83578 0.76651 0.42612 0.0
O335 O 0.89102 0.68341 0.38492 0.0
Tb336 Tb 0.09392 0.09959 1.02107 0.0
Eu337 Eu 0.16606 0.1576 0.13468 0.0
C338 C 0.19898 0.14958 0.02867 0.0
C339 C 0.15068 0.05849 0.09863 0.0
C340 C 0.98042 0.10512 0.95543 0.0
C341 C 0.95015 0.1754 0.96526 0.0
C342 C 0.97584 0.14817 0.93942 0.0
C343 C 0.94971 0.08695 0.98986 0.0
C344 C 0.92363 0.11386 1.01498 0.0
C345 C 0.92732 0.15926 1.00591 0.0
C346 C 1.02726 0.08723 0.95176 0.0
O347 O 1.04333 0.11018 0.07591 0.0
O348 O 0.0859 0.14605 0.15001 0.0
O349 O 0.13959 0.21924 0.10144 0.0
O350 O 0.11242 0.15708 0.06552 0.0
C351 C 1.04516 0.12867 0.12064 0.0
O352 O 0.20246 0.13728 0.20454 0.0
O353 O 0.23239 0.19784 0.17123 0.0
O354 O 0.20365 0.13432 0.0727 0.0
O355 O 0.15908 0.13735 0.99762 0.0
O356 O 0.13723 0.04991 0.05161 0.0
O357 O 0.12953 0.08785 0.11955 0.0
C358 C 0.11118 0.19897 0.06467 0.0
O359 O 0.06615 0.11726 0.95052 0.0
O360 O 1.03643 0.05572 0.98243 0.0
C361 C 0.2844 0.14266 0.18442 0.0
C362 C 0.33394 0.07841 0.14444 0.0
C363 C 0.33368 0.08279 0.19555 0.0
C364 C 0.3062 0.11272 0.21517 0.0
C365 C 0.29501 0.14446 0.13533 0.0
C366 C 0.31659 0.11103 0.1148 0.0
C367 C 0.24252 0.16431 0.1981 0.0
H368 H 0.95105 0.2097 0.95582 0.0
H369 H 0.99753 0.16271 0.91155 0.0
H370 H 0.95017 0.05329 1.00164 0.0
H371 H 0.90246 0.0994 0.04322 0.0
H372 H 0.35303 0.06213 0.21996 0.0
H373 H 0.30074 0.11151 0.25365 0.0
H374 H 0.28319 0.16988 0.11166 0.0
H375 H 0.31982 0.1107 0.07581 0.0
Tb376 Tb 0.43063 0.90624 0.32506 0.0
Eu377 Eu 0.32704 0.84149 0.29225 0.0
C378 C 0.34412 0.94474 0.27009 0.0
C379 C 0.36595 0.86233 0.40564 0.0
C380 C 0.53325 1.00215 0.33185 0.0
C381 C 0.54189 0.08194 0.33644 0.0
C382 C 0.51231 1.04105 0.33579 0.0
C383 C 0.58292 1.00493 0.32354 0.0
C384 C 0.61286 0.04592 0.32509 0.0
C385 C 0.59299 0.08464 0.3336 0.0
C386 C 0.50766 0.95975 0.3465 0.0
O387 O 0.44774 0.84154 0.34431 0.0
O388 O 0.37946 0.7931 0.31146 0.0
O389 O 0.35392 0.86149 0.21918 0.0
O390 O 0.43153 0.89839 0.24541 0.0
C391 C 0.42336 0.80158 0.33603 0.0
O392 O 0.28078 0.78651 0.25387 0.0
O393 O 0.24867 0.8286 0.30256 0.0
O394 O 0.32079 0.90577 0.25584 0.0
O395 O 0.37564 0.9499 0.30967 0.0
O396 O 0.41052 0.87636 0.39423 0.0
O397 O 0.32758 0.86045 0.37234 0.0
C398 C 0.39633 0.88383 0.21001 0.0
O399 O 0.46711 0.96055 0.3669 0.0
O400 O 0.50564 0.9254 0.31731 0.0
C401 C 0.20994 0.75427 0.2879 0.0
C402 C 0.14673 0.67438 0.2749 0.0
C403 C 0.19743 0.67468 0.28948 0.0
C404 C 0.22901 0.71449 0.29544 0.0
C405 C 0.1587 0.75412 0.28175 0.0
C406 C 0.12708 0.71419 0.27403 0.0
C407 C 0.24153 0.79344 0.27381 0.0
H408 H 0.52513 0.11124 0.34236 0.0
H409 H 0.47398 1.03995 0.34184 0.0
H410 H 0.59966 0.9752 0.32024 0.0
H411 H 0.65182 0.04712 0.32186 0.0
H412 H 0.21349 0.6443 0.29144 0.0
H413 H 0.26849 0.71395 0.30123 0.0
H414 H 0.14346 0.78479 0.27726 0.0
H415 H 0.08792 0.71457 0.2643 0.0
Tb416 Tb 0.59258 0.09661 0.5205 0.0
Eu417 Eu 0.65089 0.1484 0.60504 0.0
C418 C 0.61129 0.05119 0.61775 0.0
C419 C 0.53341 0.16269 0.56842 0.0
C420 C 0.55617 0.99611 0.45235 0.0
C421 C 0.52189 0.91955 0.45787 0.0
C422 C 0.51935 0.96384 0.46646 0.0
C423 C 0.59813 0.98342 0.43449 0.0
C424 C 0.59966 0.93916 0.42412 0.0
C425 C 0.56057 0.90761 0.43414 0.0
C426 C 0.55053 1.04257 0.45656 0.0
O427 O 0.6072 0.16104 0.48956 0.0
O428 O 0.66952 0.19352 0.54533 0.0
O429 O 0.71491 0.11485 0.58459 0.0
O430 O 0.66649 0.07014 0.52561 0.0
C431 C 0.64165 0.19392 0.50408 0.0
O432 O 0.70986 0.19172 0.64764 0.0
O433 O 0.64039 0.17033 0.67767 0.0
O434 O 0.65121 0.07897 0.6278 0.0
O435 O 0.57593 0.06282 0.58715 0.0
O436 O 0.53694 0.1418 0.52718 0.0
O437 O 0.56957 0.16223 0.60447 0.0
C438 C 0.71038 0.08224 0.55197 0.0
O439 O 0.52959 0.05293 0.49458 0.0
O440 O 0.58905 0.07096 0.4493 0.0
C441 C 0.66911 0.24591 0.67975 0.0
C442 C 0.66708 0.3347 0.69691 0.0
C443 C 0.69062 0.32138 0.6578 0.0
C444 C 0.6922 0.27711 0.64959 0.0
C445 C 0.63833 0.25901 0.71288 0.0
C446 C 0.63902 0.30373 0.72313 0.0
C447 C 0.67893 0.20044 0.67794 0.0
H448 H 0.49224 0.89486 0.46697 0.0
H449 H 0.48752 0.97284 0.48188 0.0
H450 H 0.62833 1.00763 0.42572 0.0
H451 H 0.6305 0.9297 0.4073 0.0
H452 H 0.71224 0.34524 0.63695 0.0
H453 H 0.71416 0.26785 0.62187 0.0
H454 H 0.61685 0.23496 0.73337 0.0
H455 H 0.62003 0.31399 0.75283 0.0
Tb456 Tb 0.31947 0.38927 0.78375 0.0
Eu457 Eu 0.42745 0.37943 0.83431 0.0
C458 C 0.40624 0.44653 0.7464 0.0
C459 C 0.38644 0.33074 0.72718 0.0
C460 C 0.19355 0.36594 0.77924 0.0
C461 C 0.15337 0.29417 0.79968 0.0
C462 C 0.1681 0.32406 0.76458 0.0
C463 C 0.19806 0.37943 0.82896 0.0
C464 C 0.18303 0.3497 0.86396 0.0
C465 C 0.162 0.30631 0.84977 0.0
C466 C 0.2316 0.3852 0.74974 0.0
O467 O 0.3081 0.33682 0.83603 0.0
O468 O 0.38471 0.33235 0.8769 0.0
O469 O 0.39656 0.41737 0.89361 0.0
O470 O 0.32196 0.4286 0.85378 0.0
C471 C 0.33719 0.32245 0.87165 0.0
O472 O 0.49341 0.34782 0.85062 0.0
O473 O 0.48935 0.41283 0.88199 0.0
O474 O 0.4371 0.42315 0.76989 0.0
O475 O 0.36109 0.4455 0.75614 0.0
O476 O 0.35245 0.35742 0.72367 0.0
O477 O 0.41341 0.32795 0.77007 0.0
C478 C 0.35467 0.43324 0.8937 0.0
O479 O 0.25793 0.42233 0.76662 0.0
O480 O 0.25927 0.35642 0.73799 0.0
C481 C 0.56077 0.40393 0.8531 0.0
C482 C 0.63084 0.46374 0.81414 0.0
C483 C 0.63407 0.45774 0.86507 0.0
C484 C 0.59906 0.42786 0.88445 0.0
C485 C 0.55694 0.4103 0.80241 0.0
C486 C 0.59138 0.44042 0.78308 0.0
C487 C 0.51757 0.38357 0.87341 0.0
H488 H 0.13564 0.26146 0.78754 0.0
H489 H 0.16465 0.31274 0.72658 0.0
H490 H 0.2175 0.41155 0.84166 0.0
H491 H 0.18868 0.36065 0.90216 0.0
H492 H 0.66418 0.47527 0.88979 0.0
H493 H 0.60079 0.4246 0.92391 0.0
H494 H 0.5262 0.39331 0.77798 0.0
H495 H 0.58782 0.44436 0.74365 0.0
Tb496 Tb 0.12678 0.11534 0.50942 0.0
Eu497 Eu 0.1195 0.14854 0.60764 0.0
C498 C 0.22753 0.16632 0.56916 0.0
C499 C 0.12501 1.04099 0.59886 0.0
C500 C 0.1256 0.06269 0.38814 0.0
C501 C 0.12116 0.05362 0.30086 0.0
C502 C 0.14797 0.06799 0.34513 0.0
C503 C 0.07665 1.04261 0.38753 0.0
C504 C 1.05006 1.02736 0.34327 0.0
C505 C 0.07251 1.03263 0.29996 0.0
C506 C 0.1496 0.08784 0.43029 0.0
O507 O 1.04511 0.09754 0.50407 0.0
O508 O 1.0389 0.11567 0.58328 0.0
O509 O 0.12059 0.21502 0.56382 0.0
O510 O 0.11242 0.1845 0.48762 0.0
C511 C 1.01819 0.09672 0.54117 0.0
O512 O 0.07905 0.14225 0.67147 0.0
O513 O 0.13342 0.19954 0.66552 0.0
O514 O 0.20536 0.16129 0.60944 0.0
O515 O 0.20143 0.15297 0.52758 0.0
O516 O 0.11879 0.04951 0.55086 0.0
O517 O 0.13401 0.07649 0.62876 0.0
C518 C 0.11766 0.22108 0.51572 0.0
O519 O 0.13189 0.12447 0.43558 0.0
O520 O 0.15571 0.067 0.4712 0.0
C521 C 0.1364 0.16223 0.73776 0.0
C522 C 0.20199 0.14812 0.81759 0.0
C523 C 0.15705 0.16235 0.82505 0.0
C524 C 0.12403 0.16965 0.78471 0.0
C525 C 0.17853 0.14299 0.73102 0.0
C526 C 0.21169 0.13653 0.77088 0.0
C527 C 0.1076 0.17508 0.69463 0.0
H528 H 0.13802 0.05998 0.26731 0.0
H529 H 0.18519 0.08535 0.34549 0.0
H530 H 1.05842 1.04112 0.4206 0.0
H531 H 1.01149 1.01355 0.34243 0.0
H532 H 0.14977 0.17172 0.86143 0.0
H533 H 0.09078 0.18337 0.78993 0.0
H534 H 0.18746 0.13573 0.69472 0.0
H535 H 0.24646 0.12575 0.76501 0.0
Tb536 Tb 0.335 0.83429 0.83231 0.0
Eu537 Eu 0.3647 0.92139 0.7839 0.0
C538 C 0.35344 0.9126 0.9036 0.0
C539 C 0.25355 0.87579 0.76211 0.0
C540 C 0.34012 0.72096 0.848 0.0
C541 C 0.33382 0.64593 0.81714 0.0
C542 C 0.31471 0.67802 0.84272 0.0
C543 C 0.38653 0.73099 0.83115 0.0
C544 C 0.40578 0.69907 0.80631 0.0
C545 C 0.37841 0.65713 0.79733 0.0
C546 C 0.31508 0.75724 0.86127 0.0
O547 O 0.35353 0.81499 0.7589 0.0
O548 O 0.3728 0.87918 0.718 0.0
O549 O 0.44193 0.90679 0.80763 0.0
O550 O 0.41799 0.84859 0.85581 0.0
C551 C 0.36482 0.8358 0.71857 0.0
O552 O 0.32559 0.97836 0.77784 0.0
O553 O 0.39859 0.982 0.75438 0.0
O554 O 0.37644 0.93058 0.86791 0.0
O555 O 0.32529 0.8748 0.89517 0.0
O556 O 0.26221 0.85724 0.80518 0.0
O557 O 0.29168 0.8933 0.74165 0.0
C558 C 0.45361 0.87768 0.84053 0.0
O559 O 0.34273 0.78857 0.88818 0.0
O560 O 0.28994 0.77278 0.82396 0.0
C561 C 0.38027 1.04226 0.79968 0.0
C562 C 0.40031 0.11348 0.86779 0.0
C563 C 0.39739 0.12091 0.8168 0.0
C564 C 0.38671 0.08534 0.78289 0.0
C565 C 0.38544 1.03537 0.85028 0.0
C566 C 0.39624 0.07022 0.88402 0.0
C567 C 0.36418 1.00424 0.76588 0.0
H568 H 0.31409 0.61273 0.81272 0.0
H569 H 0.27961 0.67024 0.85687 0.0
H570 H 0.40661 0.76416 0.83451 0.0
H571 H 0.44071 0.70789 0.79171 0.0
H572 H 0.39996 0.15412 0.80301 0.0
H573 H 0.38267 0.09151 0.74392 0.0
H574 H 0.37752 1.00335 0.86429 0.0
H575 H 0.39648 0.06315 0.9227 0.0
Tb576 Tb 0.64339 0.111 0.09561 0.0
Eu577 Eu 0.5974 0.14651 0.99897 0.0
C578 C 0.63186 1.04006 1.00706 0.0
C579 C 0.70387 0.18614 0.04314 0.0
C580 C 0.67981 0.13227 0.21949 0.0
C581 C 0.72474 0.20071 0.25692 0.0
C582 C 0.72469 0.15882 0.23591 0.0
C583 C 0.63538 0.14718 0.22745 0.0
C584 C 0.63564 0.18922 0.24643 0.0
C585 C 0.68007 0.2167 0.26116 0.0
C586 C 0.67799 0.098 0.18122 0.0
O587 O 0.61992 0.1776 0.11827 0.0
O588 O 0.59271 0.20939 0.04704 0.0
O589 O 0.53045 0.11592 0.03115 0.0
O590 O 0.57136 0.0697 0.07976 0.0
C591 C 0.60505 0.21325 0.09535 0.0
O592 O 0.61843 0.16504 0.9273 0.0
O593 O 0.54132 0.16003 0.94043 0.0
O594 O 0.61406 0.07337 0.98293 0.0
O595 O 0.64942 0.04829 0.05375 0.0
O596 O 0.70515 0.14645 0.06081 0.0
O597 O 0.6629 0.19636 1.02193 0.0
C598 C 0.53049 0.08001 0.05652 0.0
O599 O 0.63366 0.0808 0.16273 0.0
O600 O 0.70609 0.10891 0.14679 0.0
C601 C 0.55933 0.12633 0.86904 0.0
C602 C 0.52386 0.05297 0.80612 0.0
C603 C 0.50531 0.09332 0.79889 0.0
C604 C 0.52183 0.12943 0.83111 0.0
C605 C 0.58103 0.08744 0.87328 0.0
C606 C 0.56179 0.05038 0.84398 0.0
C607 C 0.57245 0.16076 0.90762 0.0
H608 H 0.75955 0.22107 0.26743 0.0
H609 H 0.75946 0.14854 0.22927 0.0
H610 H 0.59979 0.1279 0.21556 0.0
H611 H 0.60059 0.20015 0.24948 0.0
H612 H 0.47834 0.0971 0.76809 0.0
H613 H 0.50547 0.15952 0.82645 0.0
H614 H 0.61297 0.08547 0.89918 0.0
H615 H 0.57776 1.02024 0.84996 0.0
Tb616 Tb 0.38324 0.41523 0.33639 0.0
Eu617 Eu 0.33729 0.32775 0.28083 0.0
C618 C 0.37792 0.32669 0.40142 0.0
C619 C 0.45631 0.3672 0.2746 0.0
C620 C 0.35928 0.51336 0.38828 0.0
C621 C 0.27268 0.49845 0.40162 0.0
C622 C 0.32185 0.49262 0.41481 0.0
C623 C 0.34781 0.54648 0.35553 0.0
C624 C 0.29863 0.55196 0.34218 0.0
C625 C 0.26065 0.52522 0.36239 0.0
C626 C 0.40076 0.48956 0.3794 0.0
O627 O 0.36734 0.43952 0.25972 0.0
O628 O 0.32786 0.37745 0.21777 0.0
O629 O 0.2665 0.34344 0.30974 0.0
O630 O 0.30397 0.40449 0.35492 0.0
C631 C 0.34699 0.41976 0.21752 0.0
O632 O 0.3275 0.28502 0.21473 0.0
O633 O 0.30056 0.25936 0.28067 0.0
O634 O 0.35411 0.30551 0.36141 0.0
O635 O 0.3985 0.36835 0.3974 0.0
O636 O 0.45114 0.40187 0.30235 0.0
O637 O 0.41997 0.33359 0.26939 0.0
C638 C 0.26437 0.37413 0.34326 0.0
O639 O 0.40413 0.45299 0.40253 0.0
O640 O 0.40484 0.48376 0.33321 0.0
C641 C 0.36029 0.22351 0.24837 0.0
C642 C 0.45828 0.22218 0.28748 0.0
C643 C 0.44735 0.23101 0.23776 0.0
C644 C 0.39841 0.23124 0.21803 0.0
C645 C 0.37119 0.20648 0.29532 0.0
C646 C 0.42015 0.20694 0.31524 0.0
C647 C 0.31926 0.25002 0.24097 0.0
H648 H 0.24389 0.48021 0.42 0.0
H649 H 0.32942 0.4678 0.44141 0.0
H650 H 0.37583 0.56343 0.33496 0.0
H651 H 0.29014 0.57372 0.31242 0.0
H652 H 0.47671 0.24099 0.2153 0.0
H653 H 0.39125 0.24331 0.18128 0.0
H654 H 0.34258 0.19867 0.31918 0.0
H655 H 0.42825 0.19796 0.35311 0.0
Tb656 Tb 0.62728 0.60901 1.0078 0.0
Eu657 Eu 0.62544 0.64497 0.10631 0.0
C658 C 0.72965 0.662 0.06049 0.0
C659 C 0.63087 0.53725 0.10029 0.0
C660 C 0.62975 0.59241 0.87774 0.0
C661 C 0.63557 0.57889 0.79209 0.0
C662 C 0.65672 0.58033 0.84092 0.0
C663 C 0.58779 0.61276 0.86558 0.0
C664 C 0.56665 0.61091 0.8174 0.0
C665 C 0.5877 0.58903 0.78179 0.0
C666 C 0.63891 0.57617 0.92684 0.0
O667 O 0.54571 0.60304 1.00687 0.0
O668 O 0.54653 0.60664 0.08909 0.0
O669 O 0.61935 0.70926 0.05977 0.0
O670 O 0.61505 0.67864 0.9835 0.0
C671 C 0.52204 0.5953 0.04591 0.0
O672 O 0.58543 0.64716 0.17028 0.0
O673 O 0.65055 0.69447 0.16479 0.0
O674 O 0.71048 0.65357 0.10204 0.0
O675 O 0.70028 0.65178 1.01967 0.0
O676 O 0.62922 0.54539 0.05233 0.0
O677 O 0.63538 0.57264 0.12977 0.0
C678 C 0.6175 0.71524 1.01159 0.0
O679 O 0.67484 0.59855 0.95535 0.0
O680 O 0.59949 0.56606 0.94869 0.0
C681 C 0.64719 0.65403 0.23486 0.0
C682 C 0.7097 0.62852 0.31165 0.0
C683 C 0.66623 0.64461 0.32123 0.0
C684 C 0.63466 0.6574 0.28242 0.0
C685 C 0.68661 0.63188 0.22545 0.0
C686 C 0.71802 0.61935 0.26384 0.0
C687 C 0.62141 0.67381 0.19394 0.0
H688 H 0.65363 0.56514 0.76376 0.0
H689 H 0.69141 0.56819 0.85053 0.0
H690 H 0.56791 0.62473 0.8937 0.0
H691 H 0.53088 0.6215 0.8093 0.0
H692 H 0.65985 0.65228 0.35846 0.0
H693 H 0.60279 0.67237 0.28968 0.0
H694 H 0.6957 0.62763 0.18857 0.0
H695 H 0.75166 0.60734 0.25626 0.0
Tb696 Tb 0.84658 0.33471 0.33018 0.0
Eu697 Eu 0.87358 0.42166 0.28064 0.0
C698 C 0.86633 0.41303 0.40081 0.0
C699 C 0.76207 0.3743 0.26119 0.0
C700 C 0.85328 0.22035 0.34772 0.0
C701 C 0.84128 0.14537 0.31495 0.0
C702 C 0.82494 0.17845 0.34124 0.0
C703 C 0.89998 0.22781 0.33089 0.0
C704 C 0.91698 0.19435 0.30605 0.0
C705 C 0.88677 0.15374 0.29646 0.0
C706 C 0.8311 0.25817 0.36277 0.0
O707 O 0.8608 0.31484 0.25561 0.0
O708 O 0.87701 0.37885 0.21344 0.0
O709 O 0.95214 0.40797 0.29996 0.0
O710 O 0.92976 0.35084 0.35014 0.0
C711 C 0.86905 0.33543 0.21436 0.0
O712 O 0.8328 0.47757 0.27713 0.0
O713 O 0.90458 0.48312 0.25058 0.0
O714 O 0.88937 0.4305 0.36481 0.0
O715 O 0.83677 0.37603 0.39223 0.0
O716 O 0.77206 0.35487 0.30357 0.0
O717 O 0.79927 0.39372 0.24057 0.0
C718 C 0.96479 0.3794 0.33313 0.0
O719 O 0.86156 0.29007 0.38588 0.0
O720 O 0.8024 0.27316 0.328 0.0
C721 C 0.8867 0.54201 0.29889 0.0
C722 C 0.90841 0.61246 0.36836 0.0
C723 C 0.90572 0.62046 0.31748 0.0
C724 C 0.89466 0.58532 0.28293 0.0
C725 C 0.89058 0.53449 0.34936 0.0
C726 C 0.90267 0.56887 0.38373 0.0
C727 C 0.87029 0.50442 0.26437 0.0
H728 H 0.81794 0.11379 0.30791 0.0
H729 H 0.78914 0.17179 0.35385 0.0
H730 H 0.92219 0.26013 0.3345 0.0
H731 H 0.9522 0.20113 0.29155 0.0
H732 H 0.90921 0.65386 0.30422 0.0
H733 H 0.89125 0.59205 0.24408 0.0
H734 H 0.88028 0.5024 0.36259 0.0
H735 H 0.90238 0.56136 0.42223 0.0
Tb736 Tb 0.1522 0.61742 0.58966 0.0
Eu737 Eu 0.10218 0.65331 0.49711 0.0
C738 C 0.13158 0.54576 0.5016 0.0
C739 C 0.20859 0.69216 0.53631 0.0
C740 C 0.18302 0.57414 0.7089 0.0
C741 C 0.1929 0.60976 0.7881 0.0
C742 C 0.21293 0.58812 0.7522 0.0
C743 C 0.13156 0.56779 0.70857 0.0
C744 C 0.11144 0.59029 0.74364 0.0
C745 C 0.14329 0.61576 0.78013 0.0
C746 C 0.20094 0.5922 0.66474 0.0
O747 O 0.12595 0.68108 0.6183 0.0
O748 O 0.09268 0.71214 0.54879 0.0
O749 O 1.03648 0.61465 0.5245 0.0
O750 O 0.07646 0.58344 0.59061 0.0
C751 C 0.1071 0.71583 0.59678 0.0
O752 O 0.12445 0.6781 0.42797 0.0
O753 O 1.04655 0.6682 0.43882 0.0
O754 O 0.12106 0.58158 0.47702 0.0
O755 O 0.14371 0.55181 0.54915 0.0
O756 O 0.2098 0.65088 0.54822 0.0
O757 O 0.16629 0.70411 0.52275 0.0
C758 C 1.03685 0.5859 0.55956 0.0
O759 O 0.18757 0.568 0.62524 0.0
O760 O 0.19342 0.63291 0.65796 0.0
C761 C 0.06915 0.63934 0.36708 0.0
C762 C 1.03559 0.56345 0.30808 0.0
C763 C 1.01481 0.60253 0.29924 0.0
C764 C 1.03018 0.63988 0.32994 0.0
C765 C 0.09412 0.60239 0.37118 0.0
C766 C 0.07559 0.56393 0.34435 0.0
C767 C 0.07888 0.67247 0.40699 0.0
H768 H 0.21695 0.62602 0.81855 0.0
H769 H 0.25254 0.59075 0.75342 0.0
H770 H 0.10764 0.55433 0.67625 0.0
H771 H 0.07214 0.59189 0.73873 0.0
H772 H 0.98663 0.60415 0.26889 0.0
H773 H 1.01135 0.66859 0.32529 0.0
H774 H 0.12741 0.60267 0.39603 0.0
H775 H 0.0936 0.53503 0.35089 0.0
Tb776 Tb 0.80796 0.88212 0.27739 0.0
Eu777 Eu 0.91505 0.87503 0.3286 0.0
C778 C 0.8938 0.93903 0.23649 0.0
C779 C 0.87609 0.82692 0.22017 0.0
C780 C 0.68431 0.85273 0.28066 0.0
C781 C 0.64426 0.78029 0.29973 0.0
C782 C 0.6586 0.81111 0.26522 0.0
C783 C 0.69187 0.86414 0.33105 0.0
C784 C 0.678 0.83331 0.36541 0.0
C785 C 0.65479 0.79072 0.35019 0.0
C786 C 0.71857 0.87527 0.249 0.0
O787 O 0.80431 0.82118 0.31755 0.0
O788 O 0.86699 0.83904 0.37811 0.0
O789 O 0.89104 0.92183 0.38344 0.0
O790 O 0.81086 0.91974 0.34997 0.0
C791 C 0.82507 0.81629 0.36202 0.0
O792 O 0.97502 0.83607 0.34599 0.0
O793 O 0.98087 0.90393 0.37371 0.0
O794 O 0.9256 0.91944 0.26458 0.0
O795 O 0.84728 0.93567 0.24249 0.0
O796 O 0.84169 0.85324 0.21573 0.0
O797 O 0.90074 0.82348 0.26418 0.0
C798 C 0.84671 0.93176 0.38669 0.0
O799 O 0.74391 0.91274 0.26615 0.0
O800 O 0.74679 0.849 0.23286 0.0
C801 C 1.04974 0.88379 0.34848 0.0
C802 C 0.12415 0.94193 0.31411 0.0
C803 C 0.12601 0.93319 0.36437 0.0
C804 C 0.08907 0.90392 0.38141 0.0
C805 C 1.04885 0.89071 0.29795 0.0
C806 C 0.0861 0.91963 0.28076 0.0
C807 C 1.00375 0.87017 0.3676 0.0
H808 H 0.62451 0.74849 0.28688 0.0
H809 H 0.65315 0.80122 0.22668 0.0
H810 H 0.71181 0.89585 0.34445 0.0
H811 H 0.68521 0.84317 0.40391 0.0
H812 H 0.15547 0.94947 0.39074 0.0
H813 H 0.08907 0.89984 0.42063 0.0
H814 H 1.01753 0.87651 0.27234 0.0
H815 H 0.08427 0.92553 0.24173 0.0
Tb816 Tb 0.91948 0.38836 0.81956 0.0
Eu817 Eu 0.83561 0.31538 0.7732 0.0
C818 C 0.83375 0.41759 0.74991 0.0
C819 C 0.85108 0.33923 0.89249 0.0
C820 C 0.99776 0.49498 0.84386 0.0
C821 C 0.98697 0.56771 0.87217 0.0
C822 C 0.96671 0.52494 0.85693 0.0
C823 C 1.04625 0.51021 0.83622 0.0
C824 C 0.0665 0.55275 0.85149 0.0
C825 C 1.03788 0.58026 0.87352 0.0
C826 C 0.98526 0.44826 0.85262 0.0
O827 O 0.93998 0.32627 0.84682 0.0
O828 O 0.89913 0.27821 0.78721 0.0
O829 O 0.86528 0.34321 0.70447 0.0
O830 O 0.9351 0.38565 0.74234 0.0
C831 C 0.92973 0.28647 0.82692 0.0
O832 O 0.8067 0.25102 0.73943 0.0
O833 O 0.75717 0.29448 0.76509 0.0
O834 O 0.81673 0.37672 0.73634 0.0
O835 O 0.86336 0.4273 0.79047 0.0
O836 O 0.88827 0.36959 0.88701 0.0
O837 O 0.82533 0.31739 0.85447 0.0
C838 C 0.90595 0.3711 0.70218 0.0
O839 O 0.94431 0.43762 0.87188 0.0
O840 O 0.99256 0.41976 0.81935 0.0
C841 C 0.73868 0.21821 0.77923 0.0
C842 C 0.66405 0.14863 0.78703 0.0
C843 C 0.70979 0.14001 0.7742 0.0
C844 C 0.74706 0.17497 0.7698 0.0
C845 C 0.69798 0.22498 0.8036 0.0
C846 C 0.6599 0.19021 0.80632 0.0
C847 C 0.76287 0.25445 0.75191 0.0
H848 H 0.96392 0.58909 0.88723 0.0
H849 H 0.92828 0.51408 0.86114 0.0
H850 H 0.07035 0.48769 0.82531 0.0
H851 H 0.10589 0.56187 0.85148 0.0
H852 H 0.71417 0.10768 0.76027 0.0
H853 H 0.7789 0.16868 0.75246 0.0
H854 H 0.69171 0.25798 0.81333 0.0
H855 H 0.62533 0.19703 0.81778 0.0
Tb856 Tb 0.87941 0.91794 0.83453 0.0
Eu857 Eu 0.82581 0.84026 0.77761 0.0
C858 C 0.87203 0.83298 0.89854 0.0
C859 C 0.9479 0.87641 0.7684 0.0
C860 C 0.84607 1.01399 0.87139 0.0
C861 C 0.75958 0.99508 0.88477 0.0
C862 C 0.80983 0.99777 0.90179 0.0
C863 C 0.83085 1.03496 0.82794 0.0
C864 C 0.78077 1.03223 0.81104 0.0
C865 C 0.74519 1.0098 0.83797 0.0
C866 C 0.89168 0.99312 0.87305 0.0
O867 O 0.86707 0.94143 0.75531 0.0
O868 O 0.80892 0.88855 0.71666 0.0
O869 O 0.75569 0.86182 0.80145 0.0
O870 O 0.80417 0.90219 0.86271 0.0
C871 C 0.83764 0.92673 0.71452 0.0
O872 O 0.8212 0.79315 0.71526 0.0
O873 O 0.78882 0.77152 0.77969 0.0
O874 O 0.837 0.81948 0.86185 0.0
O875 O 0.90147 0.87008 0.89159 0.0
O876 O 0.9485 0.89852 0.81037 0.0
O877 O 0.9044 0.85585 0.74847 0.0
C878 C 0.75951 0.88239 0.84445 0.0
O879 O 0.89259 0.95804 0.89939 0.0
O880 O 0.90563 0.9859 0.83033 0.0
C881 C 0.85888 0.7436 0.76346 0.0
C882 C 0.95178 0.72488 0.8001 0.0
C883 C 0.91911 0.69321 0.76993 0.0
C884 C 0.87259 0.7032 0.75048 0.0
C885 C 0.89212 0.77302 0.79478 0.0
C886 C 0.93779 0.76451 0.81229 0.0
C887 C 0.81348 0.76056 0.74483 0.0
H888 H 0.73226 0.97921 0.9068 0.0
H889 H 0.82002 0.98205 0.93592 0.0
H890 H 0.85748 0.04836 0.80383 0.0
H891 H 0.77001 1.04506 0.77534 0.0
H892 H 0.92979 0.66158 0.76108 0.0
H893 H 0.84833 0.68027 0.72573 0.0
H894 H 0.88434 0.80425 0.80518 0.0
H895 H 0.96168 0.78885 0.83651 0.0
Tb896 Tb 0.58535 0.59226 0.51335 0.0
Eu897 Eu 0.65716 0.63925 0.62099 0.0
C898 C 0.69472 0.63332 0.51514 0.0
C899 C 0.64218 0.5424 0.585 0.0
C900 C 0.46977 0.59695 0.45299 0.0
C901 C 0.43717 0.66704 0.45794 0.0
C902 C 0.46195 0.63809 0.43303 0.0
C903 C 0.4441 0.58228 0.4926 0.0
C904 C 0.42017 0.61125 0.51759 0.0
C905 C 0.42062 0.65529 0.50327 0.0
C906 C 0.51597 0.57875 0.44605 0.0
O907 O 0.53797 0.59914 0.57043 0.0
O908 O 0.58028 0.63984 0.63926 0.0
O909 O 0.61977 0.69714 0.59573 0.0
O910 O 0.60908 0.66175 0.52368 0.0
C911 C 0.53955 0.62121 0.61226 0.0
O912 O 0.69153 0.62042 0.69224 0.0
O913 O 0.72132 0.6814 0.65914 0.0
O914 O 0.70102 0.62303 0.56096 0.0
O915 O 0.65232 0.62341 0.48746 0.0
O916 O 0.63105 0.54214 0.53737 0.0
O917 O 0.62242 0.5692 0.61119 0.0
C918 C 0.59366 0.68871 0.55305 0.0
O919 O 0.55412 0.60879 0.44344 0.0
O920 O 0.52755 0.54738 0.47554 0.0
C921 C 0.77471 0.62772 0.67649 0.0
C922 C 0.82987 0.56577 0.64067 0.0
C923 C 0.82468 0.56851 0.69095 0.0
C924 C 0.79455 0.59731 0.70826 0.0
C925 C 0.78935 0.63077 0.62887 0.0
C926 C 0.81393 0.59853 0.61021 0.0
C927 C 0.73126 0.64851 0.68727 0.0
H928 H 0.43531 0.6999 0.44422 0.0
H929 H 0.48026 0.65018 0.40186 0.0
H930 H 0.44721 0.5502 0.50804 0.0
H931 H 0.4034 0.59965 0.54976 0.0
H932 H 0.84235 0.54734 0.71624 0.0
H933 H 0.78564 0.59498 0.74568 0.0
H934 H 0.77878 0.65632 0.60465 0.0
H935 H 0.82069 0.59934 0.57205 0.0
Tb936 Tb 0.10291 0.59135 0.02911 0.0
Eu937 Eu 0.16046 0.65378 0.10312 0.0
C938 C 0.12976 0.55723 0.1326 0.0
C939 C 1.04223 0.662 0.07276 0.0
C940 C 1.0561 0.48763 0.96084 0.0
C941 C 1.01402 0.41294 0.9633 0.0
C942 C 1.01747 0.45764 0.97566 0.0
C943 C 0.0922 0.47233 0.93549 0.0
C944 C 0.08774 0.42835 0.9218 0.0
C945 C 1.04808 0.3989 0.93455 0.0
C946 C 1.05756 0.53502 0.96801 0.0
O947 O 0.14901 0.64249 0.99197 0.0
O948 O 0.13792 0.69647 0.04205 0.0
O949 O 0.22053 0.61992 0.07065 0.0
O950 O 0.16994 0.55769 0.0441 0.0
C951 C 0.14693 0.68446 0.99932 0.0
O952 O 0.2254 0.70274 0.11529 0.0
O953 O 0.17908 0.68613 0.17445 0.0
O954 O 0.16459 0.59049 0.14089 0.0
O955 O 0.0933 0.55906 0.09822 0.0
O956 O 1.04822 0.63975 0.03263 0.0
O957 O 0.0783 0.66358 0.10989 0.0
C958 C 0.21537 0.57799 0.05626 0.0
O959 O 1.03722 0.5489 1.00479 0.0
O960 O 0.09987 0.55844 0.96301 0.0
C961 C 0.20624 0.76038 0.16007 0.0
C962 C 0.20021 0.84787 0.17772 0.0
C963 C 0.24179 0.83641 0.15877 0.0
C964 C 0.2451 0.79242 0.15039 0.0
C965 C 0.16124 0.77271 0.17072 0.0
C966 C 0.15875 0.81676 0.18119 0.0
C967 C 0.21291 0.71454 0.15746 0.0
H968 H 0.98372 0.38984 0.97397 0.0
H969 H 0.98941 0.46881 0.9954 0.0
H970 H 0.12276 0.49455 0.92395 0.0
H971 H 0.11504 0.41738 0.90082 0.0
H972 H 0.2733 0.86106 0.15472 0.0
H973 H 0.27903 0.78333 0.13954 0.0
H974 H 0.12948 0.74829 0.17462 0.0
H975 H 0.12607 0.82605 0.19467 0.0
loop_
_geom_bond_atom_site_label_1
_geom_bond_atom_site_label_2
_geom_bond_distance
_geom_bond_site_symmetry_2
_ccdc_geom_bond_type
C0 O1 1.306 . S
C0 O3 1.160 . S
O1 C0 1.306 . S
O1 Cd2 2.228 1_655 S
Cd2 O1 2.228 1_455 S
Cd2 O6 2.273 . S
Cd2 O10 2.277 . S
O3 C0 1.160 . S
O3 Cd4 2.203 1_655 S
Cd4 O3 2.203 1_455 S
Cd4 O6 2.411 . S
Cd4 O7 2.333 . S
Cd4 O8 2.352 . S
Cd4 O12 2.277 . S
Cd4 O13 2.356 . S
C5 O10 1.209 . S
C5 O12 1.226 . S
O6 Cd2 2.273 . S
O6 Cd4 2.411 . S
O6 C9 1.320 . S
O7 Cd4 2.333 . S
O7 C9 1.214 . S
O8 Cd4 2.352 . S
O8 C11 1.258 . S
C9 O6 1.320 . S
C9 O7 1.214 . S
O10 Cd2 2.277 . S
O10 C5 1.209 . S
C11 O8 1.258 . S
C11 O13 1.282 . S
O12 Cd4 2.277 . S
O12 C5 1.226 . S
O13 Cd4 2.356 . S
O13 C11 1.282 . S
C14 O15 1.306 . S
C14 O17 1.160 . S
O15 C14 1.306 . S
O15 Cd16 2.228 1_655 S
Cd16 O15 2.228 1_455 S
Cd16 O20 2.273 . S
Cd16 O24 2.277 . S
O17 C14 1.160 . S
O17 Cd18 2.203 1_655 S
Cd18 O17 2.203 1_455 S
Cd18 O20 2.411 . S
Cd18 O21 2.333 . S
Cd18 O22 2.352 . S
Cd18 O26 2.277 . S
Cd18 O27 2.356 . S
C19 O24 1.209 . S
C19 O26 1.226 . S
O20 Cd16 2.273 . S
O20 Cd18 2.411 . S
O20 C23 1.320 . S
O21 Cd18 2.333 . S
O21 C23 1.214 . S
O22 Cd18 2.352 . S
O22 C25 1.258 . S
C23 O20 1.320 . S
C23 O21 1.214 . S
O24 Cd16 2.277 . S
O24 C19 1.209 . S
C25 O22 1.258 . S
C25 O27 1.282 . S
O26 Cd18 2.277 . S
O26 C19 1.226 . S
O27 Cd18 2.356 . S
O27 C25 1.282 . S
C28 O29 1.306 . S
C28 O31 1.160 . S
O29 C28 1.306 . S
O29 Cd30 2.228 . S
Cd30 O29 2.228 . S
Cd30 O34 2.273 . S
Cd30 O38 2.277 . S
O31 C28 1.160 . S
O31 Cd32 2.203 . S
Cd32 O31 2.203 . S
Cd32 O34 2.411 . S
Cd32 O35 2.333 . S
Cd32 O36 2.352 . S
Cd32 O40 2.277 . S
Cd32 O41 2.356 . S
C33 O38 1.209 . S
C33 O40 1.226 . S
O34 Cd30 2.273 . S
O34 Cd32 2.411 . S
O34 C37 1.320 . S
O35 Cd32 2.333 . S
O35 C37 1.214 . S
O36 Cd32 2.352 . S
O36 C39 1.258 . S
C37 O34 1.320 . S
C37 O35 1.214 . S
O38 Cd30 2.277 . S
O38 C33 1.209 . S
C39 O36 1.258 . S
C39 O41 1.282 . S
O40 Cd32 2.277 . S
O40 C33 1.226 . S
O41 Cd32 2.356 . S
O41 C39 1.282 . S
C42 O43 1.306 . S
C42 O45 1.160 . S
O43 C42 1.306 . S
O43 Cd44 2.228 . S
Cd44 O43 2.228 . S
Cd44 O48 2.273 . S
Cd44 O52 2.277 . S
O45 C42 1.160 . S
O45 Cd46 2.203 . S
Cd46 O45 2.203 . S
Cd46 O48 2.411 . S
Cd46 O49 2.333 . S
Cd46 O50 2.352 . S
Cd46 O54 2.277 . S
Cd46 O55 2.356 . S
C47 O52 1.209 . S
C47 O54 1.226 . S
O48 Cd44 2.273 . S
O48 Cd46 2.411 . S
O48 C51 1.320 . S
O49 Cd46 2.333 . S
O49 C51 1.214 . S
O50 Cd46 2.352 . S
O50 C53 1.258 . S
C51 O48 1.320 . S
C51 O49 1.214 . S
O52 Cd44 2.277 . S
O52 C47 1.209 . S
C53 O50 1.258 . S
C53 O55 1.282 . S
O54 Cd46 2.277 . S
O54 C47 1.226 . S
O55 Cd46 2.356 . S
O55 C53 1.282 . S
C56 O57 1.306 . S
C56 O59 1.160 . S
O57 C56 1.306 . S
O57 Cd58 2.228 . S
Cd58 O57 2.228 . S
Cd58 O62 2.273 . S
Cd58 O66 2.277 . S
O59 C56 1.160 . S
O59 Cd60 2.203 . S
Cd60 O59 2.203 . S
Cd60 O62 2.411 . S
Cd60 O63 2.333 . S
Cd60 O64 2.352 1_565 S
Cd60 O68 2.277 . S
Cd60 O69 2.356 . S
C61 O66 1.209 . S
C61 O68 1.226 . S
O62 Cd58 2.273 . S
O62 Cd60 2.411 . S
O62 C65 1.320 . S
O63 Cd60 2.333 . S
O63 C65 1.214 . S
O64 Cd60 2.352 1_545 S
O64 C67 1.258 . S
C65 O62 1.320 . S
C65 O63 1.214 . S
O66 Cd58 2.277 . S
O66 C61 1.209 . S
C67 O64 1.258 . S
C67 O69 1.282 1_545 S
O68 Cd60 2.277 . S
O68 C61 1.226 . S
O69 Cd60 2.356 . S
O69 C67 1.282 1_565 S
C70 O71 1.306 . S
C70 O73 1.160 . S
O71 C70 1.306 . S
O71 Cd72 2.228 . S
Cd72 O71 2.228 . S
Cd72 O76 2.273 . S
Cd72 O80 2.277 . S
O73 C70 1.160 . S
O73 Cd74 2.203 . S
Cd74 O73 2.203 . S
Cd74 O76 2.411 . S
Cd74 O77 2.333 . S
Cd74 O78 2.352 . S
Cd74 O82 2.277 . S
Cd74 O83 2.356 . S
C75 O80 1.209 . S
C75 O82 1.226 . S
O76 Cd72 2.273 . S
O76 Cd74 2.411 . S
O76 C79 1.320 . S
O77 Cd74 2.333 . S
O77 C79 1.214 . S
O78 Cd74 2.352 . S
O78 C81 1.258 . S
C79 O76 1.320 . S
C79 O77 1.214 . S
O80 Cd72 2.277 . S
O80 C75 1.209 . S
C81 O78 1.258 . S
C81 O83 1.282 . S
O82 Cd74 2.277 . S
O82 C75 1.226 . S
O83 Cd74 2.356 . S
O83 C81 1.282 . S
C84 O85 1.306 . S
C84 O87 1.160 . S
O85 C84 1.306 . S
O85 Cd86 2.228 . S
Cd86 O85 2.228 . S
Cd86 O90 2.273 . S
Cd86 O94 2.277 . S
O87 C84 1.160 . S
O87 Cd88 2.203 . S
Cd88 O87 2.203 . S
Cd88 O90 2.411 . S
Cd88 O91 2.333 . S
Cd88 O92 2.352 . S
Cd88 O96 2.277 . S
Cd88 O97 2.356 . S
C89 O94 1.209 . S
C89 O96 1.226 . S
O90 Cd86 2.273 . S
O90 Cd88 2.411 . S
O90 C93 1.320 . S
O91 Cd88 2.333 . S
O91 C93 1.214 . S
O92 Cd88 2.352 . S
O92 C95 1.258 . S
C93 O90 1.320 . S
C93 O91 1.214 . S
O94 Cd86 2.277 . S
O94 C89 1.209 . S
C95 O92 1.258 . S
C95 O97 1.282 . S
O96 Cd88 2.277 . S
O96 C89 1.226 . S
O97 Cd88 2.356 . S
O97 C95 1.282 . S
C98 O99 1.306 . S
C98 O101 1.160 . S
O99 C98 1.306 . S
O99 Cd100 2.228 1_655 S
Cd100 O99 2.228 1_455 S
Cd100 O104 2.273 . S
Cd100 O108 2.277 . S
O101 C98 1.160 . S
O101 Cd102 2.203 1_655 S
Cd102 O101 2.203 1_455 S
Cd102 O104 2.411 . S
Cd102 O105 2.333 . S
Cd102 O106 2.352 1_455 S
Cd102 O110 2.277 . S
Cd102 O111 2.356 . S
C103 O108 1.209 . S
C103 O110 1.226 . S
O104 Cd100 2.273 . S
O104 Cd102 2.411 . S
O104 C107 1.320 . S
O105 Cd102 2.333 . S
O105 C107 1.214 . S
O106 Cd102 2.352 1_655 S
O106 C109 1.258 1_655 S
C107 O104 1.320 . S
C107 O105 1.214 . S
O108 Cd100 2.277 . S
O108 C103 1.209 . S
C109 O106 1.258 1_455 S
C109 O111 1.282 . S
O110 Cd102 2.277 . S
O110 C103 1.226 . S
O111 Cd102 2.356 . S
O111 C109 1.282 . S
C112 O113 1.306 . S
C112 O115 1.160 . S
O113 C112 1.306 . S
O113 Cd114 2.228 . S
Cd114 O113 2.228 . S
Cd114 O118 2.273 . S
Cd114 O122 2.277 . S
O115 C112 1.160 . S
O115 Cd116 2.203 . S
Cd116 O115 2.203 . S
Cd116 O118 2.411 . S
Cd116 O119 2.333 . S
Cd116 O120 2.352 . S
Cd116 O124 2.277 . S
Cd116 O125 2.356 . S
C117 O122 1.209 . S
C117 O124 1.226 . S
O118 Cd114 2.273 . S
O118 Cd116 2.411 . S
O118 C121 1.320 . S
O119 Cd116 2.333 . S
O119 C121 1.214 . S
O120 Cd116 2.352 . S
O120 C123 1.258 . S
C121 O118 1.320 . S
C121 O119 1.214 . S
O122 Cd114 2.277 . S
O122 C117 1.209 . S
C123 O120 1.258 . S
C123 O125 1.282 . S
O124 Cd116 2.277 . S
O124 C117 1.226 . S
O125 Cd116 2.356 . S
O125 C123 1.282 . S
C126 O127 1.306 . S
C126 O129 1.160 . S
O127 C126 1.306 . S
O127 Cd128 2.228 . S
Cd128 O127 2.228 . S
Cd128 O132 2.273 . S
Cd128 O136 2.277 . S
O129 C126 1.160 . S
O129 Cd130 2.203 . S
Cd130 O129 2.203 . S
Cd130 O132 2.411 . S
Cd130 O133 2.333 . S
Cd130 O134 2.352 . S
Cd130 O138 2.277 . S
Cd130 O139 2.356 . S
C131 O136 1.209 . S
C131 O138 1.226 . S
O132 Cd128 2.273 . S
O132 Cd130 2.411 . S
O132 C135 1.320 . S
O133 Cd130 2.333 . S
O133 C135 1.214 . S
O134 Cd130 2.352 . S
O134 C137 1.258 . S
C135 O132 1.320 . S
C135 O133 1.214 . S
O136 Cd128 2.277 . S
O136 C131 1.209 . S
C137 O134 1.258 . S
C137 O139 1.282 . S
O138 Cd130 2.277 . S
O138 C131 1.226 . S
O139 Cd130 2.356 . S
O139 C137 1.282 . S
C140 O141 1.306 . S
C140 O143 1.160 . S
O141 C140 1.306 . S
O141 Cd142 2.228 . S
Cd142 O141 2.228 . S
Cd142 O146 2.273 . S
Cd142 O150 2.277 . S
O143 C140 1.160 . S
O143 Cd144 2.203 . S
Cd144 O143 2.203 . S
Cd144 O146 2.411 . S
Cd144 O147 2.333 . S
Cd144 O148 2.352 . S
Cd144 O152 2.277 . S
Cd144 O153 2.356 . S
C145 O150 1.209 . S
C145 O152 1.226 . S
O146 Cd142 2.273 . S
O146 Cd144 2.411 . S
O146 C149 1.320 . S
O147 Cd144 2.333 . S
O147 C149 1.214 . S
O148 Cd144 2.352 . S
O148 C151 1.258 . S
C149 O146 1.320 . S
C149 O147 1.214 . S
O150 Cd142 2.277 . S
O150 C145 1.209 . S
C151 O148 1.258 . S
C151 O153 1.282 . S
O152 Cd144 2.277 . S
O152 C145 1.226 . S
O153 Cd144 2.356 . S
O153 C151 1.282 . S
C154 O155 1.306 . S
C154 O157 1.160 . S
O155 C154 1.306 . S
O155 Cd156 2.228 . S
Cd156 O155 2.228 . S
Cd156 O160 2.273 . S
Cd156 O164 2.277 1_554 S
O157 C154 1.160 . S
O157 Cd158 2.203 . S
Cd158 O157 2.203 . S
Cd158 O160 2.411 . S
Cd158 O161 2.333 . S
Cd158 O162 2.352 . S
Cd158 O166 2.277 . S
Cd158 O167 2.356 . S
C159 O164 1.209 . S
C159 O166 1.226 1_556 S
O160 Cd156 2.273 . S
O160 Cd158 2.411 . S
O160 C163 1.320 . S
O161 Cd158 2.333 . S
O161 C163 1.214 . S
O162 Cd158 2.352 . S
O162 C165 1.258 . S
C163 O160 1.320 . S
C163 O161 1.214 . S
O164 Cd156 2.277 1_556 S
O164 C159 1.209 . S
C165 O162 1.258 . S
C165 O167 1.282 . S
O166 Cd158 2.277 . S
O166 C159 1.226 1_554 S
O167 Cd158 2.356 . S
O167 C165 1.282 . S
C168 O169 1.306 . S
C168 O171 1.160 . S
O169 C168 1.306 . S
O169 Cd170 2.228 1_554 S
Cd170 O169 2.228 1_556 S
Cd170 O174 2.273 1_556 S
Cd170 O178 2.277 . S
O171 C168 1.160 . S
O171 Cd172 2.203 . S
Cd172 O171 2.203 . S
Cd172 O174 2.411 . S
Cd172 O175 2.333 . S
Cd172 O176 2.352 . S
Cd172 O180 2.277 1_554 S
Cd172 O181 2.356 . S
C173 O178 1.209 . S
C173 O180 1.226 . S
O174 Cd170 2.273 1_554 S
O174 Cd172 2.411 . S
O174 C177 1.320 . S
O175 Cd172 2.333 . S
O175 C177 1.214 . S
O176 Cd172 2.352 . S
O176 C179 1.258 . S
C177 O174 1.320 . S
C177 O175 1.214 . S
O178 Cd170 2.277 . S
O178 C173 1.209 . S
C179 O176 1.258 . S
C179 O181 1.282 . S
O180 Cd172 2.277 1_556 S
O180 C173 1.226 . S
O181 Cd172 2.356 . S
O181 C179 1.282 . S
C182 O183 1.306 . S
C182 O185 1.160 . S
O183 C182 1.306 . S
O183 Cd184 2.228 . S
Cd184 O183 2.228 . S
Cd184 O188 2.273 1_554 S
Cd184 O192 2.277 . S
O185 C182 1.160 . S
O185 Cd186 2.203 1_554 S
Cd186 O185 2.203 1_556 S
Cd186 O188 2.411 . S
Cd186 O189 2.333 . S
Cd186 O190 2.352 . S
Cd186 O194 2.277 1_556 S
Cd186 O195 2.356 . S
C187 O192 1.209 . S
C187 O194 1.226 . S
O188 Cd184 2.273 1_556 S
O188 Cd186 2.411 . S
O188 C191 1.320 . S
O189 Cd186 2.333 . S
O189 C191 1.214 . S
O190 Cd186 2.352 . S
O190 C193 1.258 . S
C191 O188 1.320 . S
C191 O189 1.214 . S
O192 Cd184 2.277 . S
O192 C187 1.209 . S
C193 O190 1.258 . S
C193 O195 1.282 . S
O194 Cd186 2.277 1_554 S
O194 C187 1.226 . S
O195 Cd186 2.356 . S
O195 C193 1.282 . S
C196 O197 1.306 1_455 S
C196 O199 1.160 . S
O197 C196 1.306 1_655 S
O197 Cd198 2.228 . S
Cd198 O197 2.228 . S
Cd198 O202 2.273 . S
Cd198 O206 2.277 1_655 S
O199 C196 1.160 . S
O199 Cd200 2.203 . S
Cd200 O199 2.203 . S
Cd200 O202 2.411 1_455 S
Cd200 O203 2.333 . S
Cd200 O204 2.352 . S
Cd200 O208 2.277 . S
Cd200 O209 2.356 . S
C201 O206 1.209 . S
C201 O208 1.226 . S
O202 Cd198 2.273 . S
O202 Cd200 2.411 1_655 S
O202 C205 1.320 1_655 S
O203 Cd200 2.333 . S
O203 C205 1.214 . S
O204 Cd200 2.352 . S
O204 C207 1.258 . S
C205 O202 1.320 1_455 S
C205 O203 1.214 . S
O206 Cd198 2.277 1_455 S
O206 C201 1.209 . S
C207 O204 1.258 . S
C207 O209 1.282 . S
O208 Cd200 2.277 . S
O208 C201 1.226 . S
O209 Cd200 2.356 . S
O209 C207 1.282 . S
C210 O211 1.306 1_565 S
C210 O213 1.160 . S
O211 C210 1.306 1_545 S
O211 Cd212 2.228 . S
Cd212 O211 2.228 . S
Cd212 O216 2.273 . S
Cd212 O220 2.277 1_545 S
O213 C210 1.160 . S
O213 Cd214 2.203 . S
Cd214 O213 2.203 . S
Cd214 O216 2.411 1_565 S
Cd214 O217 2.333 . S
Cd214 O218 2.352 . S
Cd214 O222 2.277 . S
Cd214 O223 2.356 . S
C215 O220 1.209 . S
C215 O222 1.226 . S
O216 Cd212 2.273 . S
O216 Cd214 2.411 1_545 S
O216 C219 1.320 1_545 S
O217 Cd214 2.333 . S
O217 C219 1.214 . S
O218 Cd214 2.352 . S
O218 C221 1.258 . S
C219 O216 1.320 1_565 S
C219 O217 1.214 . S
O220 Cd212 2.277 1_565 S
O220 C215 1.209 . S
C221 O218 1.258 . S
C221 O223 1.282 . S
O222 Cd214 2.277 . S
O222 C215 1.226 . S
O223 Cd214 2.356 . S
O223 C221 1.282 . S
C224 O225 1.306 1_545 S
C224 O227 1.160 . S
O225 C224 1.306 1_565 S
O225 Cd226 2.228 . S
Cd226 O225 2.228 . S
Cd226 O230 2.273 1_565 S
Cd226 O234 2.277 . S
O227 C224 1.160 . S
O227 Cd228 2.203 . S
Cd228 O227 2.203 . S
Cd228 O230 2.411 . S
Cd228 O231 2.333 . S
Cd228 O232 2.352 . S
Cd228 O236 2.277 1_545 S
Cd228 O237 2.356 . S
C229 O234 1.209 . S
C229 O236 1.226 . S
O230 Cd226 2.273 1_545 S
O230 Cd228 2.411 . S
O230 C233 1.320 . S
O231 Cd228 2.333 . S
O231 C233 1.214 . S
O232 Cd228 2.352 . S
O232 C235 1.258 . S
C233 O230 1.320 . S
C233 O231 1.214 . S
O234 Cd226 2.277 . S
O234 C229 1.209 . S
C235 O232 1.258 . S
C235 O237 1.282 . S
O236 Cd228 2.277 1_565 S
O236 C229 1.226 . S
O237 Cd228 2.356 . S
O237 C235 1.282 . S
C238 O239 1.306 . S
C238 O241 1.160 . S
O239 C238 1.306 . S
O239 Cd240 2.228 . S
Cd240 O239 2.228 . S
Cd240 O244 2.273 . S
Cd240 O248 2.277 . S
O241 C238 1.160 . S
O241 Cd242 2.203 . S
Cd242 O241 2.203 . S
Cd242 O244 2.411 . S
Cd242 O245 2.333 . S
Cd242 O246 2.352 . S
Cd242 O250 2.277 . S
Cd242 O251 2.356 . S
C243 O248 1.209 . S
C243 O250 1.226 . S
O244 Cd240 2.273 . S
O244 Cd242 2.411 . S
O244 C247 1.320 . S
O245 Cd242 2.333 . S
O245 C247 1.214 . S
O246 Cd242 2.352 . S
O246 C249 1.258 . S
C247 O244 1.320 . S
C247 O245 1.214 . S
O248 Cd240 2.277 . S
O248 C243 1.209 . S
C249 O246 1.258 . S
C249 O251 1.282 . S
O250 Cd242 2.277 . S
O250 C243 1.226 . S
O251 Cd242 2.356 . S
O251 C249 1.282 . S
C252 O253 1.306 . S
C252 O255 1.160 . S
O253 C252 1.306 . S
O253 Cd254 2.228 . S
Cd254 O253 2.228 . S
Cd254 O258 2.273 . S
Cd254 O262 2.277 . S
O255 C252 1.160 . S
O255 Cd256 2.203 . S
Cd256 O255 2.203 . S
Cd256 O258 2.411 . S
Cd256 O259 2.333 . S
Cd256 O260 2.352 . S
Cd256 O264 2.277 . S
Cd256 O265 2.356 . S
C257 O262 1.209 . S
C257 O264 1.226 . S
O258 Cd254 2.273 . S
O258 Cd256 2.411 . S
O258 C261 1.320 . S
O259 Cd256 2.333 . S
O259 C261 1.214 . S
O260 Cd256 2.352 . S
O260 C263 1.258 . S
C261 O258 1.320 . S
C261 O259 1.214 . S
O262 Cd254 2.277 . S
O262 C257 1.209 . S
C263 O260 1.258 . S
C263 O265 1.282 . S
O264 Cd256 2.277 . S
O264 C257 1.226 . S
O265 Cd256 2.356 . S
O265 C263 1.282 . S
C266 O267 1.306 . S
C266 O269 1.160 . S
O267 C266 1.306 . S
O267 Cd268 2.228 . S
Cd268 O267 2.228 . S
Cd268 O272 2.273 . S
Cd268 O276 2.277 . S
O269 C266 1.160 . S
O269 Cd270 2.203 . S
Cd270 O269 2.203 . S
Cd270 O272 2.411 . S
Cd270 O273 2.333 . S
Cd270 O274 2.352 1_545 S
Cd270 O278 2.277 . S
Cd270 O279 2.356 1_545 S
C271 O276 1.209 . S
C271 O278 1.226 . S
O272 Cd268 2.273 . S
O272 Cd270 2.411 . S
O272 C275 1.320 . S
O273 Cd270 2.333 . S
O273 C275 1.214 . S
O274 Cd270 2.352 1_565 S
O274 C277 1.258 . S
C275 O272 1.320 . S
C275 O273 1.214 . S
O276 Cd268 2.277 . S
O276 C271 1.209 . S
C277 O274 1.258 . S
C277 O279 1.282 . S
O278 Cd270 2.277 . S
O278 C271 1.226 . S
O279 Cd270 2.356 1_565 S
O279 C277 1.282 . S
C280 O281 1.306 . S
C280 O283 1.160 . S
O281 C280 1.306 . S
O281 Cd282 2.228 . S
Cd282 O281 2.228 . S
Cd282 O286 2.273 . S
Cd282 O290 2.277 . S
O283 C280 1.160 . S
O283 Cd284 2.203 . S
Cd284 O283 2.203 . S
Cd284 O286 2.411 . S
Cd284 O287 2.333 . S
Cd284 O288 2.352 1_554 S
Cd284 O292 2.277 . S
Cd284 O293 2.356 1_554 S
C285 O290 1.209 . S
C285 O292 1.226 . S
O286 Cd282 2.273 . S
O286 Cd284 2.411 . S
O286 C289 1.320 . S
O287 Cd284 2.333 . S
O287 C289 1.214 . S
O288 Cd284 2.352 1_556 S
O288 C291 1.258 . S
C289 O286 1.320 . S
C289 O287 1.214 . S
O290 Cd282 2.277 . S
O290 C285 1.209 . S
C291 O288 1.258 . S
C291 O293 1.282 . S
O292 Cd284 2.277 . S
O292 C285 1.226 . S
O293 Cd284 2.356 1_556 S
O293 C291 1.282 . S
C294 O295 1.306 . S
C294 O297 1.160 . S
O295 C294 1.306 . S
O295 Cd296 2.228 . S
Cd296 O295 2.228 . S
Cd296 O300 2.273 . S
Cd296 O304 2.277 . S
O297 C294 1.160 . S
O297 Cd298 2.203 1_455 S
Cd298 O297 2.203 1_655 S
Cd298 O300 2.411 1_655 S
Cd298 O301 2.333 . S
Cd298 O302 2.352 1_655 S
Cd298 O306 2.277 . S
Cd298 O307 2.356 . S
C299 O304 1.209 1_655 S
C299 O306 1.226 . S
O300 Cd296 2.273 . S
O300 Cd298 2.411 1_455 S
O300 C303 1.320 . S
O301 Cd298 2.333 . S
O301 C303 1.214 1_655 S
O302 Cd298 2.352 1_455 S
O302 C305 1.257 1_455 S
C303 O300 1.320 . S
C303 O301 1.214 1_455 S
O304 Cd296 2.277 . S
O304 C299 1.209 1_455 S
C305 O302 1.257 1_655 S
C305 O307 1.282 . S
O306 Cd298 2.277 . S
O306 C299 1.226 . S
O307 Cd298 2.356 . S
O307 C305 1.282 . S
C308 O309 1.306 . S
C308 O311 1.160 . S
O309 C308 1.306 . S
O309 Cd310 2.228 . S
Cd310 O309 2.228 . S
Cd310 O314 2.273 . S
Cd310 O318 2.277 . S
O311 C308 1.160 . S
O311 Cd312 2.203 . S
Cd312 O311 2.203 . S
Cd312 O314 2.411 . S
Cd312 O315 2.333 . S
Cd312 O316 2.352 . S
Cd312 O320 2.277 . S
Cd312 O321 2.356 . S
C313 O318 1.209 . S
C313 O320 1.226 . S
O314 Cd310 2.273 . S
O314 Cd312 2.411 . S
O314 C317 1.320 . S
O315 Cd312 2.333 . S
O315 C317 1.214 . S
O316 Cd312 2.352 . S
O316 C319 1.258 . S
C317 O314 1.320 . S
C317 O315 1.214 . S
O318 Cd310 2.277 . S
O318 C313 1.209 . S
C319 O316 1.258 . S
C319 O321 1.282 . S
O320 Cd312 2.277 . S
O320 C313 1.226 . S
O321 Cd312 2.356 . S
O321 C319 1.282 . S
C322 O323 1.306 . S
C322 O325 1.160 . S
O323 C322 1.306 . S
O323 Cd324 2.228 . S
Cd324 O323 2.228 . S
Cd324 O328 2.273 . S
Cd324 O332 2.277 . S
O325 C322 1.160 . S
O325 Cd326 2.203 . S
Cd326 O325 2.203 . S
Cd326 O328 2.411 . S
Cd326 O329 2.333 . S
Cd326 O330 2.352 . S
Cd326 O334 2.277 . S
Cd326 O335 2.356 . S
C327 O332 1.209 . S
C327 O334 1.226 . S
O328 Cd324 2.273 . S
O328 Cd326 2.411 . S
O328 C331 1.320 . S
O329 Cd326 2.333 . S
O329 C331 1.214 . S
O330 Cd326 2.352 . S
O330 C333 1.258 . S
C331 O328 1.320 . S
C331 O329 1.214 . S
O332 Cd324 2.277 . S
O332 C327 1.209 . S
C333 O330 1.258 . S
C333 O335 1.282 . S
O334 Cd326 2.277 . S
O334 C327 1.226 . S
O335 Cd326 2.356 . S
O335 C333 1.282 . S
Tb336 C346 2.825 1_454 S
Tb336 O347 2.347 . S
Tb336 O350 2.366 . S
Tb336 O355 2.418 1_554 S
Tb336 O356 2.384 . S
Tb336 O359 2.479 1_454 S
Tb336 O360 2.471 1_455 S
Eu337 O348 2.418 . S
Eu337 O349 2.384 . S
Eu337 O352 2.479 . S
Eu337 O353 2.471 . S
Eu337 O354 2.347 . S
Eu337 O357 2.366 . S
Eu337 C367 2.825 . S
C338 O354 1.259 1_556 S
C338 O355 1.265 . S
C339 O356 1.255 . S
C339 O357 1.265 . S
C340 C342 1.380 . S
C340 C343 1.374 . S
C340 C346 1.507 . S
C341 C342 1.384 . S
C341 C345 1.387 . S
C341 H368 0.930 . S
C342 C340 1.380 . S
C342 C341 1.384 . S
C342 H369 0.931 . S
C343 C340 1.374 . S
C343 C344 1.390 . S
C343 H370 0.944 . S
C344 C343 1.390 . S
C344 C345 1.391 . S
C344 H371 0.930 . S
C345 C341 1.387 . S
C345 C344 1.391 . S
C346 Tb336 2.825 1_656 S
C346 C340 1.507 . S
C346 O359 1.238 . S
C346 O360 1.247 1_556 S
O347 Tb336 2.347 . S
O347 C351 1.259 . S
O348 Eu337 2.418 . S
O348 C351 1.265 . S
O349 Eu337 2.384 . S
O349 C358 1.255 . S
O350 Tb336 2.366 . S
O350 C358 1.265 . S
C351 O347 1.259 . S
C351 O348 1.265 . S
O352 Eu337 2.479 . S
O352 C367 1.238 . S
O353 Eu337 2.471 . S
O353 C367 1.247 . S
O354 Eu337 2.347 . S
O354 C338 1.259 1_554 S
O355 Tb336 2.418 1_556 S
O355 C338 1.265 . S
O356 Tb336 2.384 . S
O356 C339 1.255 . S
O357 Eu337 2.366 . S
O357 C339 1.265 . S
C358 O349 1.255 . S
C358 O350 1.265 . S
O359 Tb336 2.479 1_656 S
O359 C346 1.238 . S
O360 Tb336 2.471 1_655 S
O360 C346 1.247 1_554 S
C361 C364 1.380 . S
C361 C365 1.374 . S
C361 C367 1.507 . S
C362 C363 1.387 . S
C362 C366 1.391 . S
C363 C362 1.387 . S
C363 C364 1.384 . S
C363 H372 0.930 . S
C364 C361 1.380 . S
C364 C363 1.384 . S
C364 H373 0.931 . S
C365 C361 1.374 . S
C365 C366 1.390 . S
C365 H374 0.930 . S
C366 C362 1.391 . S
C366 C365 1.390 . S
C366 H375 0.930 . S
C367 Eu337 2.825 . S
C367 O352 1.238 . S
C367 O353 1.247 . S
C367 C361 1.507 . S
H368 C341 0.930 . S
H369 C342 0.931 . S
H370 C343 0.944 . S
H371 C344 0.930 . S
H372 C363 0.930 . S
H373 C364 0.931 . S
H374 C365 0.930 . S
H375 C366 0.930 . S
Tb376 C386 2.825 . S
Tb376 O387 2.347 . S
Tb376 O390 2.366 . S
Tb376 O395 2.418 . S
Tb376 O396 2.384 . S
Tb376 O399 2.479 . S
Tb376 O400 2.471 . S
Eu377 O388 2.418 . S
Eu377 O389 2.384 . S
Eu377 O392 2.479 . S
Eu377 O393 2.471 . S
Eu377 O394 2.347 . S
Eu377 O397 2.366 . S
Eu377 C407 2.825 . S
C378 O394 1.259 . S
C378 O395 1.265 . S
C379 O396 1.255 . S
C379 O397 1.265 . S
C380 C382 1.380 1_565 S
C380 C383 1.374 . S
C380 C386 1.507 . S
C381 C382 1.384 . S
C381 C385 1.387 . S
C381 H408 0.930 . S
C382 C380 1.380 1_545 S
C382 C381 1.384 . S
C382 H409 0.931 . S
C383 C380 1.374 . S
C383 C384 1.390 1_565 S
C383 H410 0.930 . S
C384 C383 1.390 1_545 S
C384 C385 1.391 . S
C384 H411 0.930 . S
C385 C381 1.387 . S
C385 C384 1.391 . S
C386 Tb376 2.825 . S
C386 C380 1.507 . S
C386 O399 1.238 . S
C386 O400 1.247 . S
O387 Tb376 2.347 . S
O387 C391 1.259 . S
O388 Eu377 2.418 . S
O388 C391 1.265 . S
O389 Eu377 2.384 . S
O389 C398 1.255 . S
O390 Tb376 2.366 . S
O390 C398 1.265 . S
C391 O387 1.259 . S
C391 O388 1.265 . S
O392 Eu377 2.479 . S
O392 C407 1.238 . S
O393 Eu377 2.471 . S
O393 C407 1.247 . S
O394 Eu377 2.347 . S
O394 C378 1.259 . S
O395 Tb376 2.418 . S
O395 C378 1.265 . S
O396 Tb376 2.384 . S
O396 C379 1.255 . S
O397 Eu377 2.366 . S
O397 C379 1.265 . S
C398 O389 1.255 . S
C398 O390 1.265 . S
O399 Tb376 2.479 . S
O399 C386 1.238 . S
O400 Tb376 2.471 . S
O400 C386 1.247 . S
C401 C404 1.380 . S
C401 C405 1.374 . S
C401 C407 1.507 . S
C402 C403 1.387 . S
C402 C406 1.391 . S
C403 C402 1.387 . S
C403 C404 1.384 . S
C403 H412 0.930 . S
C404 C401 1.380 . S
C404 C403 1.384 . S
C404 H413 0.931 . S
C405 C401 1.374 . S
C405 C406 1.390 . S
C405 H414 0.930 . S
C406 C402 1.391 . S
C406 C405 1.390 . S
C406 H415 0.930 . S
C407 Eu377 2.825 . S
C407 O392 1.238 . S
C407 O393 1.247 . S
C407 C401 1.507 . S
H408 C381 0.930 . S
H409 C382 0.931 . S
H410 C383 0.930 . S
H411 C384 0.930 . S
H412 C403 0.930 . S
H413 C404 0.931 . S
H414 C405 0.930 . S
H415 C406 0.930 . S
Tb416 C426 2.825 1_545 S
Tb416 O427 2.347 . S
Tb416 O430 2.366 . S
Tb416 O435 2.418 . S
Tb416 O436 2.384 . S
Tb416 O439 2.479 1_545 S
Tb416 O440 2.471 1_545 S
Eu417 O428 2.418 . S
Eu417 O429 2.384 . S
Eu417 O432 2.479 . S
Eu417 O433 2.471 . S
Eu417 O434 2.347 . S
Eu417 O437 2.366 . S
Eu417 C447 2.825 . S
C418 O434 1.259 . S
C418 O435 1.265 . S
C419 O436 1.255 . S
C419 O437 1.265 . S
C420 C422 1.380 . S
C420 C423 1.374 . S
C420 C426 1.507 . S
C421 C422 1.384 . S
C421 C425 1.387 . S
C421 H448 0.930 . S
C422 C420 1.380 . S
C422 C421 1.384 . S
C422 H449 0.931 . S
C423 C420 1.374 . S
C423 C424 1.390 . S
C423 H450 0.930 . S
C424 C423 1.390 . S
C424 C425 1.391 . S
C424 H451 0.930 . S
C425 C421 1.387 . S
C425 C424 1.391 . S
C426 Tb416 2.825 1_565 S
C426 C420 1.507 . S
C426 O439 1.238 . S
C426 O440 1.247 . S
O427 Tb416 2.347 . S
O427 C431 1.259 . S
O428 Eu417 2.418 . S
O428 C431 1.265 . S
O429 Eu417 2.384 . S
O429 C438 1.255 . S
O430 Tb416 2.366 . S
O430 C438 1.265 . S
C431 O427 1.259 . S
C431 O428 1.265 . S
O432 Eu417 2.479 . S
O432 C447 1.238 . S
O433 Eu417 2.471 . S
O433 C447 1.247 . S
O434 Eu417 2.347 . S
O434 C418 1.259 . S
O435 Tb416 2.418 . S
O435 C418 1.265 . S
O436 Tb416 2.384 . S
O436 C419 1.255 . S
O437 Eu417 2.366 . S
O437 C419 1.265 . S
C438 O429 1.255 . S
C438 O430 1.265 . S
O439 Tb416 2.479 1_565 S
O439 C426 1.238 . S
O440 Tb416 2.471 1_565 S
O440 C426 1.247 . S
C441 C444 1.380 . S
C441 C445 1.374 . S
C441 C447 1.507 . S
C442 C443 1.387 . S
C442 C446 1.391 . S
C443 C442 1.387 . S
C443 C444 1.384 . S
C443 H452 0.930 . S
C444 C441 1.380 . S
C444 C443 1.384 . S
C444 H453 0.931 . S
C445 C441 1.374 . S
C445 C446 1.390 . S
C445 H454 0.930 . S
C446 C442 1.391 . S
C446 C445 1.390 . S
C446 H455 0.930 . S
C447 Eu417 2.825 . S
C447 O432 1.238 . S
C447 O433 1.247 . S
C447 C441 1.507 . S
H448 C421 0.930 . S
H449 C422 0.931 . S
H450 C423 0.930 . S
H451 C424 0.930 . S
H452 C443 0.930 . S
H453 C444 0.931 . S
H454 C445 0.930 . S
H455 C446 0.930 . S
Tb456 C466 2.825 . S
Tb456 O467 2.347 . S
Tb456 O470 2.366 . S
Tb456 O475 2.418 . S
Tb456 O476 2.384 . S
Tb456 O479 2.479 . S
Tb456 O480 2.471 . S
Eu457 O468 2.418 . S
Eu457 O469 2.384 . S
Eu457 O472 2.479 . S
Eu457 O473 2.471 . S
Eu457 O474 2.347 . S
Eu457 O477 2.366 . S
Eu457 C487 2.825 . S
C458 O474 1.259 . S
C458 O475 1.265 . S
C459 O476 1.255 . S
C459 O477 1.265 . S
C460 C462 1.380 . S
C460 C463 1.374 . S
C460 C466 1.507 . S
C461 C462 1.384 . S
C461 C465 1.387 . S
C461 H488 0.930 . S
C462 C460 1.380 . S
C462 C461 1.384 . S
C462 H489 0.931 . S
C463 C460 1.374 . S
C463 C464 1.390 . S
C463 H490 0.930 . S
C464 C463 1.390 . S
C464 C465 1.391 . S
C464 H491 0.930 . S
C465 C461 1.387 . S
C465 C464 1.391 . S
C466 Tb456 2.825 . S
C466 C460 1.507 . S
C466 O479 1.238 . S
C466 O480 1.247 . S
O467 Tb456 2.347 . S
O467 C471 1.259 . S
O468 Eu457 2.418 . S
O468 C471 1.265 . S
O469 Eu457 2.384 . S
O469 C478 1.255 . S
O470 Tb456 2.366 . S
O470 C478 1.265 . S
C471 O467 1.259 . S
C471 O468 1.265 . S
O472 Eu457 2.479 . S
O472 C487 1.238 . S
O473 Eu457 2.471 . S
O473 C487 1.247 . S
O474 Eu457 2.347 . S
O474 C458 1.259 . S
O475 Tb456 2.418 . S
O475 C458 1.265 . S
O476 Tb456 2.384 . S
O476 C459 1.255 . S
O477 Eu457 2.366 . S
O477 C459 1.265 . S
C478 O469 1.255 . S
C478 O470 1.265 . S
O479 Tb456 2.479 . S
O479 C466 1.238 . S
O480 Tb456 2.471 . S
O480 C466 1.247 . S
C481 C484 1.380 . S
C481 C485 1.374 . S
C481 C487 1.507 . S
C482 C483 1.387 . S
C482 C486 1.391 . S
C483 C482 1.387 . S
C483 C484 1.384 . S
C483 H492 0.930 . S
C484 C481 1.380 . S
C484 C483 1.384 . S
C484 H493 0.931 . S
C485 C481 1.374 . S
C485 C486 1.390 . S
C485 H494 0.930 . S
C486 C482 1.391 . S
C486 C485 1.390 . S
C486 H495 0.930 . S
C487 Eu457 2.825 . S
C487 O472 1.238 . S
C487 O473 1.247 . S
C487 C481 1.507 . S
H488 C461 0.930 . S
H489 C462 0.931 . S
H490 C463 0.930 . S
H491 C464 0.930 . S
H492 C483 0.930 . S
H493 C484 0.931 . S
H494 C485 0.930 . S
H495 C486 0.930 . S
Tb496 C506 2.825 . S
Tb496 O507 2.347 . S
Tb496 O510 2.366 . S
Tb496 O515 2.418 . S
Tb496 O516 2.384 . S
Tb496 O519 2.479 . S
Tb496 O520 2.471 1_455 S
Eu497 O508 2.418 1_455 S
Eu497 O509 2.384 . S
Eu497 O512 2.479 . S
Eu497 O513 2.471 . S
Eu497 O514 2.347 . S
Eu497 O517 2.366 . S
Eu497 C527 2.825 . S
C498 O514 1.259 . S
C498 O515 1.265 . S
C499 O516 1.255 . S
C499 O517 1.265 . S
C500 C502 1.380 1_655 S
C500 C503 1.374 . S
C500 C506 1.507 1_655 S
C501 C502 1.384 1_655 S
C501 C505 1.387 . S
C501 H528 0.930 1_655 S
C502 C500 1.380 1_455 S
C502 C501 1.384 1_455 S
C502 H529 0.931 . S
C503 C500 1.374 . S
C503 C504 1.390 . S
C503 H530 0.930 . S
C504 C503 1.390 . S
C504 C505 1.391 . S
C504 H531 0.930 . S
C505 C501 1.387 . S
C505 C504 1.391 . S
C506 Tb496 2.825 . S
C506 C500 1.507 1_455 S
C506 O519 1.238 . S
C506 O520 1.247 1_455 S
O507 Tb496 2.347 . S
O507 C511 1.259 1_455 S
O508 Eu497 2.418 1_655 S
O508 C511 1.265 . S
O509 Eu497 2.384 . S
O509 C518 1.255 . S
O510 Tb496 2.366 . S
O510 C518 1.265 . S
C511 O507 1.259 1_655 S
C511 O508 1.265 . S
O512 Eu497 2.479 . S
O512 C527 1.238 . S
O513 Eu497 2.471 . S
O513 C527 1.247 . S
O514 Eu497 2.347 . S
O514 C498 1.259 . S
O515 Tb496 2.418 . S
O515 C498 1.265 . S
O516 Tb496 2.384 . S
O516 C499 1.255 . S
O517 Eu497 2.366 . S
O517 C499 1.265 . S
C518 O509 1.255 . S
C518 O510 1.265 . S
O519 Tb496 2.479 . S
O519 C506 1.238 . S
O520 Tb496 2.471 1_655 S
O520 C506 1.247 1_655 S
C521 C524 1.380 . S
C521 C525 1.374 . S
C521 C527 1.507 . S
C522 C523 1.387 . S
C522 C526 1.391 . S
C523 C522 1.387 . S
C523 C524 1.384 . S
C523 H532 0.930 . S
C524 C521 1.380 . S
C524 C523 1.384 . S
C524 H533 0.931 . S
C525 C521 1.374 . S
C525 C526 1.390 . S
C525 H534 0.930 . S
C526 C522 1.391 . S
C526 C525 1.390 . S
C526 H535 0.930 . S
C527 Eu497 2.825 . S
C527 O512 1.238 . S
C527 O513 1.247 . S
C527 C521 1.507 . S
H528 C501 0.930 1_455 S
H529 C502 0.931 . S
H530 C503 0.930 . S
H531 C504 0.930 . S
H532 C523 0.930 . S
H533 C524 0.931 . S
H534 C525 0.930 . S
H535 C526 0.930 . S
Tb536 C546 2.825 . S
Tb536 O547 2.347 . S
Tb536 O550 2.366 . S
Tb536 O555 2.418 . S
Tb536 O556 2.384 . S
Tb536 O559 2.479 . S
Tb536 O560 2.471 . S
Eu537 O548 2.418 . S
Eu537 O549 2.384 . S
Eu537 O552 2.479 . S
Eu537 O553 2.471 . S
Eu537 O554 2.347 . S
Eu537 O557 2.366 . S
Eu537 C567 2.825 . S
C538 O554 1.259 . S
C538 O555 1.265 . S
C539 O556 1.255 . S
C539 O557 1.265 . S
C540 C542 1.380 . S
C540 C543 1.374 . S
C540 C546 1.507 . S
C541 C542 1.384 . S
C541 C545 1.387 . S
C541 H568 0.930 . S
C542 C540 1.380 . S
C542 C541 1.384 . S
C542 H569 0.931 . S
C543 C540 1.374 . S
C543 C544 1.390 . S
C543 H570 0.930 . S
C544 C543 1.390 . S
C544 C545 1.391 . S
C544 H571 0.930 . S
C545 C541 1.387 . S
C545 C544 1.391 . S
C546 Tb536 2.825 . S
C546 C540 1.507 . S
C546 O559 1.238 . S
C546 O560 1.247 . S
O547 Tb536 2.347 . S
O547 C551 1.259 . S
O548 Eu537 2.418 . S
O548 C551 1.265 . S
O549 Eu537 2.384 . S
O549 C558 1.255 . S
O550 Tb536 2.366 . S
O550 C558 1.265 . S
C551 O547 1.259 . S
C551 O548 1.265 . S
O552 Eu537 2.479 . S
O552 C567 1.238 . S
O553 Eu537 2.471 . S
O553 C567 1.247 . S
O554 Eu537 2.347 . S
O554 C538 1.259 . S
O555 Tb536 2.418 . S
O555 C538 1.265 . S
O556 Tb536 2.384 . S
O556 C539 1.255 . S
O557 Eu537 2.366 . S
O557 C539 1.265 . S
C558 O549 1.255 . S
C558 O550 1.265 . S
O559 Tb536 2.479 . S
O559 C546 1.238 . S
O560 Tb536 2.471 . S
O560 C546 1.247 . S
C561 C564 1.380 1_565 S
C561 C565 1.374 . S
C561 C567 1.507 . S
C562 C563 1.387 . S
C562 C566 1.391 . S
C563 C562 1.387 . S
C563 C564 1.384 . S
C563 H572 0.930 . S
C564 C561 1.380 1_545 S
C564 C563 1.384 . S
C564 H573 0.931 . S
C565 C561 1.374 . S
C565 C566 1.390 1_565 S
C565 H574 0.930 . S
C566 C562 1.391 . S
C566 C565 1.390 1_545 S
C566 H575 0.930 . S
C567 Eu537 2.825 . S
C567 O552 1.238 . S
C567 O553 1.247 . S
C567 C561 1.507 . S
H568 C541 0.930 . S
H569 C542 0.931 . S
H570 C543 0.930 . S
H571 C544 0.930 . S
H572 C563 0.930 . S
H573 C564 0.931 . S
H574 C565 0.930 . S
H575 C566 0.930 . S
Tb576 C586 2.825 . S
Tb576 O587 2.347 . S
Tb576 O590 2.366 . S
Tb576 O595 2.418 . S
Tb576 O596 2.384 . S
Tb576 O599 2.479 . S
Tb576 O600 2.471 . S
Eu577 O588 2.418 1_556 S
Eu577 O589 2.384 1_556 S
Eu577 O592 2.479 . S
Eu577 O593 2.471 . S
Eu577 O594 2.347 1_556 S
Eu577 O597 2.366 . S
Eu577 C607 2.825 . S
C578 O594 1.259 . S
C578 O595 1.265 . S
C579 O596 1.255 . S
C579 O597 1.265 1_554 S
C580 C582 1.380 . S
C580 C583 1.374 . S
C580 C586 1.507 . S
C581 C582 1.384 . S
C581 C585 1.387 . S
C581 H608 0.930 . S
C582 C580 1.380 . S
C582 C581 1.384 . S
C582 H609 0.931 . S
C583 C580 1.374 . S
C583 C584 1.390 . S
C583 H610 0.930 . S
C584 C583 1.390 . S
C584 C585 1.391 . S
C584 H611 0.930 . S
C585 C581 1.387 . S
C585 C584 1.391 . S
C586 Tb576 2.825 . S
C586 C580 1.507 . S
C586 O599 1.238 . S
C586 O600 1.247 . S
O587 Tb576 2.347 . S
O587 C591 1.259 . S
O588 Eu577 2.418 1_554 S
O588 C591 1.265 . S
O589 Eu577 2.384 1_554 S
O589 C598 1.255 . S
O590 Tb576 2.366 . S
O590 C598 1.265 . S
C591 O587 1.259 . S
C591 O588 1.265 . S
O592 Eu577 2.479 . S
O592 C607 1.238 . S
O593 Eu577 2.471 . S
O593 C607 1.247 . S
O594 Eu577 2.347 1_554 S
O594 C578 1.259 . S
O595 Tb576 2.418 . S
O595 C578 1.265 . S
O596 Tb576 2.384 . S
O596 C579 1.255 . S
O597 Eu577 2.366 . S
O597 C579 1.265 1_556 S
C598 O589 1.255 . S
C598 O590 1.265 . S
O599 Tb576 2.479 . S
O599 C586 1.238 . S
O600 Tb576 2.471 . S
O600 C586 1.247 . S
C601 C604 1.380 . S
C601 C605 1.374 . S
C601 C607 1.507 . S
C602 C603 1.387 . S
C602 C606 1.391 . S
C603 C602 1.387 . S
C603 C604 1.384 . S
C603 H612 0.930 . S
C604 C601 1.380 . S
C604 C603 1.384 . S
C604 H613 0.931 . S
C605 C601 1.374 . S
C605 C606 1.390 . S
C605 H614 0.930 . S
C606 C602 1.391 . S
C606 C605 1.390 . S
C606 H615 0.930 . S
C607 Eu577 2.825 . S
C607 O592 1.238 . S
C607 O593 1.247 . S
C607 C601 1.507 . S
H608 C581 0.930 . S
H609 C582 0.931 . S
H610 C583 0.930 . S
H611 C584 0.930 . S
H612 C603 0.930 . S
H613 C604 0.931 . S
H614 C605 0.930 . S
H615 C606 0.930 . S
Tb616 C626 2.825 . S
Tb616 O627 2.347 . S
Tb616 O630 2.366 . S
Tb616 O635 2.418 . S
Tb616 O636 2.384 . S
Tb616 O639 2.479 . S
Tb616 O640 2.471 . S
Eu617 O628 2.418 . S
Eu617 O629 2.384 . S
Eu617 O632 2.479 . S
Eu617 O633 2.471 . S
Eu617 O634 2.347 . S
Eu617 O637 2.366 . S
Eu617 C647 2.825 . S
C618 O634 1.259 . S
C618 O635 1.265 . S
C619 O636 1.255 . S
C619 O637 1.265 . S
C620 C622 1.380 . S
C620 C623 1.374 . S
C620 C626 1.507 . S
C621 C622 1.384 . S
C621 C625 1.387 . S
C621 H648 0.930 . S
C622 C620 1.380 . S
C622 C621 1.384 . S
C622 H649 0.931 . S
C623 C620 1.374 . S
C623 C624 1.390 . S
C623 H650 0.930 . S
C624 C623 1.390 . S
C624 C625 1.391 . S
C624 H651 0.930 . S
C625 C621 1.387 . S
C625 C624 1.391 . S
C626 Tb616 2.825 . S
C626 C620 1.507 . S
C626 O639 1.238 . S
C626 O640 1.247 . S
O627 Tb616 2.347 . S
O627 C631 1.259 . S
O628 Eu617 2.418 . S
O628 C631 1.265 . S
O629 Eu617 2.384 . S
O629 C638 1.255 . S
O630 Tb616 2.366 . S
O630 C638 1.265 . S
C631 O627 1.259 . S
C631 O628 1.265 . S
O632 Eu617 2.479 . S
O632 C647 1.238 . S
O633 Eu617 2.471 . S
O633 C647 1.247 . S
O634 Eu617 2.347 . S
O634 C618 1.259 . S
O635 Tb616 2.418 . S
O635 C618 1.265 . S
O636 Tb616 2.384 . S
O636 C619 1.255 . S
O637 Eu617 2.366 . S
O637 C619 1.265 . S
C638 O629 1.255 . S
C638 O630 1.265 . S
O639 Tb616 2.479 . S
O639 C626 1.238 . S
O640 Tb616 2.471 . S
O640 C626 1.247 . S
C641 C644 1.380 . S
C641 C645 1.374 . S
C641 C647 1.507 . S
C642 C643 1.387 . S
C642 C646 1.391 . S
C643 C642 1.387 . S
C643 C644 1.384 . S
C643 H652 0.930 . S
C644 C641 1.380 . S
C644 C643 1.384 . S
C644 H653 0.931 . S
C645 C641 1.374 . S
C645 C646 1.390 . S
C645 H654 0.930 . S
C646 C642 1.391 . S
C646 C645 1.390 . S
C646 H655 0.930 . S
C647 Eu617 2.825 . S
C647 O632 1.238 . S
C647 O633 1.247 . S
C647 C641 1.507 . S
H648 C621 0.930 . S
H649 C622 0.931 . S
H650 C623 0.930 . S
H651 C624 0.930 . S
H652 C643 0.930 . S
H653 C644 0.931 . S
H654 C645 0.930 . S
H655 C646 0.930 . S
Tb656 C666 2.825 . S
Tb656 O667 2.347 1_556 S
Tb656 O670 2.366 . S
Tb656 O675 2.418 . S
Tb656 O676 2.384 1_556 S
Tb656 O679 2.479 . S
Tb656 O680 2.471 . S
Eu657 O668 2.418 . S
Eu657 O669 2.384 . S
Eu657 O672 2.479 . S
Eu657 O673 2.471 . S
Eu657 O674 2.347 . S
Eu657 O677 2.366 . S
Eu657 C687 2.825 . S
C658 O674 1.259 . S
C658 O675 1.265 1_554 S
C659 O676 1.255 . S
C659 O677 1.265 . S
C660 C662 1.380 . S
C660 C663 1.374 . S
C660 C666 1.507 . S
C661 C662 1.384 . S
C661 C665 1.387 . S
C661 H688 0.930 . S
C662 C660 1.380 . S
C662 C661 1.384 . S
C662 H689 0.931 . S
C663 C660 1.374 . S
C663 C664 1.390 . S
C663 H690 0.930 . S
C664 C663 1.390 . S
C664 C665 1.391 . S
C664 H691 0.930 . S
C665 C661 1.387 . S
C665 C664 1.391 . S
C666 Tb656 2.825 . S
C666 C660 1.507 . S
C666 O679 1.238 . S
C666 O680 1.247 . S
O667 Tb656 2.347 1_554 S
O667 C671 1.259 . S
O668 Eu657 2.418 . S
O668 C671 1.265 . S
O669 Eu657 2.384 . S
O669 C678 1.255 1_554 S
O670 Tb656 2.366 . S
O670 C678 1.265 . S
C671 O667 1.259 . S
C671 O668 1.265 . S
O672 Eu657 2.479 . S
O672 C687 1.238 . S
O673 Eu657 2.471 . S
O673 C687 1.247 . S
O674 Eu657 2.347 . S
O674 C658 1.259 . S
O675 Tb656 2.418 . S
O675 C658 1.265 1_556 S
O676 Tb656 2.384 1_554 S
O676 C659 1.255 . S
O677 Eu657 2.366 . S
O677 C659 1.265 . S
C678 O669 1.255 1_556 S
C678 O670 1.265 . S
O679 Tb656 2.479 . S
O679 C666 1.238 . S
O680 Tb656 2.471 . S
O680 C666 1.247 . S
C681 C684 1.380 . S
C681 C685 1.374 . S
C681 C687 1.507 . S
C682 C683 1.387 . S
C682 C686 1.391 . S
C683 C682 1.387 . S
C683 C684 1.384 . S
C683 H692 0.930 . S
C684 C681 1.380 . S
C684 C683 1.384 . S
C684 H693 0.931 . S
C685 C681 1.374 . S
C685 C686 1.390 . S
C685 H694 0.930 . S
C686 C682 1.391 . S
C686 C685 1.390 . S
C686 H695 0.930 . S
C687 Eu657 2.825 . S
C687 O672 1.238 . S
C687 O673 1.247 . S
C687 C681 1.507 . S
H688 C661 0.930 . S
H689 C662 0.931 . S
H690 C663 0.930 . S
H691 C664 0.930 . S
H692 C683 0.930 . S
H693 C684 0.931 . S
H694 C685 0.930 . S
H695 C686 0.930 . S
Tb696 C706 2.825 . S
Tb696 O707 2.347 . S
Tb696 O710 2.366 . S
Tb696 O715 2.418 . S
Tb696 O716 2.384 . S
Tb696 O719 2.479 . S
Tb696 O720 2.471 . S
Eu697 O708 2.418 . S
Eu697 O709 2.384 . S
Eu697 O712 2.479 . S
Eu697 O713 2.471 . S
Eu697 O714 2.347 . S
Eu697 O717 2.366 . S
Eu697 C727 2.825 . S
C698 O714 1.259 . S
C698 O715 1.265 . S
C699 O716 1.255 . S
C699 O717 1.265 . S
C700 C702 1.380 . S
C700 C703 1.374 . S
C700 C706 1.507 . S
C701 C702 1.384 . S
C701 C705 1.387 . S
C701 H728 0.930 . S
C702 C700 1.380 . S
C702 C701 1.384 . S
C702 H729 0.931 . S
C703 C700 1.374 . S
C703 C704 1.390 . S
C703 H730 0.930 . S
C704 C703 1.390 . S
C704 C705 1.391 . S
C704 H731 0.930 . S
C705 C701 1.387 . S
C705 C704 1.391 . S
C706 Tb696 2.825 . S
C706 C700 1.507 . S
C706 O719 1.238 . S
C706 O720 1.247 . S
O707 Tb696 2.347 . S
O707 C711 1.259 . S
O708 Eu697 2.418 . S
O708 C711 1.265 . S
O709 Eu697 2.384 . S
O709 C718 1.255 . S
O710 Tb696 2.366 . S
O710 C718 1.265 . S
C711 O707 1.259 . S
C711 O708 1.265 . S
O712 Eu697 2.479 . S
O712 C727 1.238 . S
O713 Eu697 2.471 . S
O713 C727 1.247 . S
O714 Eu697 2.347 . S
O714 C698 1.259 . S
O715 Tb696 2.418 . S
O715 C698 1.265 . S
O716 Tb696 2.384 . S
O716 C699 1.255 . S
O717 Eu697 2.366 . S
O717 C699 1.265 . S
C718 O709 1.255 . S
C718 O710 1.265 . S
O719 Tb696 2.479 . S
O719 C706 1.238 . S
O720 Tb696 2.471 . S
O720 C706 1.247 . S
C721 C724 1.380 . S
C721 C725 1.374 . S
C721 C727 1.507 . S
C722 C723 1.387 . S
C722 C726 1.391 . S
C723 C722 1.387 . S
C723 C724 1.384 . S
C723 H732 0.930 . S
C724 C721 1.380 . S
C724 C723 1.384 . S
C724 H733 0.931 . S
C725 C721 1.374 . S
C725 C726 1.390 . S
C725 H734 0.930 . S
C726 C722 1.391 . S
C726 C725 1.390 . S
C726 H735 0.930 . S
C727 Eu697 2.825 . S
C727 O712 1.238 . S
C727 O713 1.247 . S
C727 C721 1.507 . S
H728 C701 0.930 . S
H729 C702 0.931 . S
H730 C703 0.930 . S
H731 C704 0.930 . S
H732 C723 0.930 . S
H733 C724 0.931 . S
H734 C725 0.930 . S
H735 C726 0.930 . S
Tb736 C746 2.825 . S
Tb736 O747 2.347 . S
Tb736 O750 2.366 . S
Tb736 O755 2.418 . S
Tb736 O756 2.384 . S
Tb736 O759 2.479 . S
Tb736 O760 2.471 . S
Eu737 O748 2.418 . S
Eu737 O749 2.384 1_455 S
Eu737 O752 2.479 . S
Eu737 O753 2.471 . S
Eu737 O754 2.347 . S
Eu737 O757 2.366 . S
Eu737 C767 2.825 . S
C738 O754 1.259 . S
C738 O755 1.265 . S
C739 O756 1.255 . S
C739 O757 1.265 . S
C740 C742 1.380 . S
C740 C743 1.374 . S
C740 C746 1.507 . S
C741 C742 1.384 . S
C741 C745 1.387 . S
C741 H768 0.930 . S
C742 C740 1.380 . S
C742 C741 1.384 . S
C742 H769 0.931 . S
C743 C740 1.374 . S
C743 C744 1.390 . S
C743 H770 0.930 . S
C744 C743 1.390 . S
C744 C745 1.391 . S
C744 H771 0.930 1_455 S
C745 C741 1.387 . S
C745 C744 1.391 . S
C746 Tb736 2.825 . S
C746 C740 1.507 . S
C746 O759 1.238 . S
C746 O760 1.247 . S
O747 Tb736 2.347 . S
O747 C751 1.259 . S
O748 Eu737 2.418 . S
O748 C751 1.265 . S
O749 Eu737 2.384 1_655 S
O749 C758 1.255 . S
O750 Tb736 2.366 . S
O750 C758 1.265 1_455 S
C751 O747 1.259 . S
C751 O748 1.265 . S
O752 Eu737 2.479 . S
O752 C767 1.238 . S
O753 Eu737 2.471 . S
O753 C767 1.247 . S
O754 Eu737 2.347 . S
O754 C738 1.259 . S
O755 Tb736 2.418 . S
O755 C738 1.265 . S
O756 Tb736 2.384 . S
O756 C739 1.255 . S
O757 Eu737 2.366 . S
O757 C739 1.265 . S
C758 O749 1.255 . S
C758 O750 1.265 1_655 S
O759 Tb736 2.479 . S
O759 C746 1.238 . S
O760 Tb736 2.471 . S
O760 C746 1.247 . S
C761 C764 1.380 . S
C761 C765 1.374 . S
C761 C767 1.507 . S
C762 C763 1.387 . S
C762 C766 1.391 . S
C763 C762 1.387 . S
C763 C764 1.384 . S
C763 H772 0.930 . S
C764 C761 1.380 . S
C764 C763 1.384 . S
C764 H773 0.931 . S
C765 C761 1.374 . S
C765 C766 1.390 . S
C765 H774 0.930 . S
C766 C762 1.391 . S
C766 C765 1.390 . S
C766 H775 0.930 . S
C767 Eu737 2.825 . S
C767 O752 1.238 . S
C767 O753 1.247 . S
C767 C761 1.507 . S
H768 C741 0.930 . S
H769 C742 0.931 . S
H770 C743 0.930 . S
H771 C744 0.930 1_655 S
H772 C763 0.930 . S
H773 C764 0.931 . S
H774 C765 0.930 . S
H775 C766 0.930 . S
Tb776 C786 2.825 . S
Tb776 O787 2.347 . S
Tb776 O790 2.366 . S
Tb776 O795 2.418 . S
Tb776 O796 2.384 . S
Tb776 O799 2.479 . S
Tb776 O800 2.471 . S
Eu777 O788 2.418 . S
Eu777 O789 2.384 . S
Eu777 O792 2.479 . S
Eu777 O793 2.471 . S
Eu777 O794 2.347 . S
Eu777 O797 2.366 . S
Eu777 C807 2.825 . S
C778 O794 1.259 . S
C778 O795 1.265 . S
C779 O796 1.255 . S
C779 O797 1.265 . S
C780 C782 1.380 . S
C780 C783 1.374 . S
C780 C786 1.507 . S
C781 C782 1.384 . S
C781 C785 1.387 . S
C781 H808 0.930 . S
C782 C780 1.380 . S
C782 C781 1.384 . S
C782 H809 0.931 . S
C783 C780 1.374 . S
C783 C784 1.390 . S
C783 H810 0.930 . S
C784 C783 1.390 . S
C784 C785 1.391 . S
C784 H811 0.930 . S
C785 C781 1.387 . S
C785 C784 1.391 . S
C786 Tb776 2.825 . S
C786 C780 1.507 . S
C786 O799 1.238 . S
C786 O800 1.247 . S
O787 Tb776 2.347 . S
O787 C791 1.259 . S
O788 Eu777 2.418 . S
O788 C791 1.265 . S
O789 Eu777 2.384 . S
O789 C798 1.255 . S
O790 Tb776 2.366 . S
O790 C798 1.265 . S
C791 O787 1.259 . S
C791 O788 1.265 . S
O792 Eu777 2.479 . S
O792 C807 1.238 . S
O793 Eu777 2.471 . S
O793 C807 1.247 . S
O794 Eu777 2.347 . S
O794 C778 1.259 . S
O795 Tb776 2.418 . S
O795 C778 1.265 . S
O796 Tb776 2.384 . S
O796 C779 1.255 . S
O797 Eu777 2.366 . S
O797 C779 1.265 . S
C798 O789 1.255 . S
C798 O790 1.265 . S
O799 Tb776 2.479 . S
O799 C786 1.238 . S
O800 Tb776 2.471 . S
O800 C786 1.247 . S
C801 C804 1.380 1_655 S
C801 C805 1.374 1_655 S
C801 C807 1.507 . S
C802 C803 1.387 . S
C802 C806 1.391 . S
C803 C802 1.387 . S
C803 C804 1.384 . S
C803 H812 0.930 . S
C804 C801 1.380 1_455 S
C804 C803 1.384 . S
C804 H813 0.931 . S
C805 C801 1.374 1_455 S
C805 C806 1.390 . S
C805 H814 0.930 1_455 S
C806 C802 1.391 . S
C806 C805 1.390 . S
C806 H815 0.930 . S
C807 Eu777 2.825 . S
C807 O792 1.238 . S
C807 O793 1.247 . S
C807 C801 1.507 . S
H808 C781 0.930 . S
H809 C782 0.931 . S
H810 C783 0.930 . S
H811 C784 0.930 . S
H812 C803 0.930 . S
H813 C804 0.931 . S
H814 C805 0.930 1_655 S
H815 C806 0.930 . S
Tb816 C826 2.825 . S
Tb816 O827 2.347 . S
Tb816 O830 2.366 . S
Tb816 O835 2.418 . S
Tb816 O836 2.384 . S
Tb816 O839 2.479 . S
Tb816 O840 2.471 . S
Eu817 O828 2.418 . S
Eu817 O829 2.384 . S
Eu817 O832 2.479 . S
Eu817 O833 2.471 . S
Eu817 O834 2.347 . S
Eu817 O837 2.366 . S
Eu817 C847 2.825 . S
C818 O834 1.259 . S
C818 O835 1.265 . S
C819 O836 1.255 . S
C819 O837 1.265 . S
C820 C822 1.380 . S
C820 C823 1.374 . S
C820 C826 1.507 . S
C821 C822 1.384 . S
C821 C825 1.387 1_655 S
C821 H848 0.930 . S
C822 C820 1.380 . S
C822 C821 1.384 . S
C822 H849 0.931 . S
C823 C820 1.374 . S
C823 C824 1.390 1_655 S
C823 H850 0.930 . S
C824 C823 1.390 1_455 S
C824 C825 1.391 . S
C824 H851 0.930 . S
C825 C821 1.387 1_455 S
C825 C824 1.391 . S
C826 Tb816 2.825 . S
C826 C820 1.507 . S
C826 O839 1.238 . S
C826 O840 1.247 . S
O827 Tb816 2.347 . S
O827 C831 1.259 . S
O828 Eu817 2.418 . S
O828 C831 1.265 . S
O829 Eu817 2.384 . S
O829 C838 1.255 . S
O830 Tb816 2.366 . S
O830 C838 1.265 . S
C831 O827 1.259 . S
C831 O828 1.265 . S
O832 Eu817 2.479 . S
O832 C847 1.238 . S
O833 Eu817 2.471 . S
O833 C847 1.247 . S
O834 Eu817 2.347 . S
O834 C818 1.259 . S
O835 Tb816 2.418 . S
O835 C818 1.265 . S
O836 Tb816 2.384 . S
O836 C819 1.255 . S
O837 Eu817 2.366 . S
O837 C819 1.265 . S
C838 O829 1.255 . S
C838 O830 1.265 . S
O839 Tb816 2.479 . S
O839 C826 1.238 . S
O840 Tb816 2.471 . S
O840 C826 1.247 . S
C841 C844 1.380 . S
C841 C845 1.374 . S
C841 C847 1.507 . S
C842 C843 1.387 . S
C842 C846 1.391 . S
C843 C842 1.387 . S
C843 C844 1.384 . S
C843 H852 0.930 . S
C844 C841 1.380 . S
C844 C843 1.384 . S
C844 H853 0.931 . S
C845 C841 1.374 . S
C845 C846 1.390 . S
C845 H854 0.930 . S
C846 C842 1.391 . S
C846 C845 1.390 . S
C846 H855 0.930 . S
C847 Eu817 2.825 . S
C847 O832 1.238 . S
C847 O833 1.247 . S
C847 C841 1.507 . S
H848 C821 0.930 . S
H849 C822 0.931 . S
H850 C823 0.930 . S
H851 C824 0.930 . S
H852 C843 0.930 . S
H853 C844 0.931 . S
H854 C845 0.930 . S
H855 C846 0.930 . S
Tb856 C866 2.825 . S
Tb856 O867 2.347 . S
Tb856 O870 2.366 . S
Tb856 O875 2.418 . S
Tb856 O876 2.384 . S
Tb856 O879 2.479 . S
Tb856 O880 2.471 . S
Eu857 O868 2.418 . S
Eu857 O869 2.384 . S
Eu857 O872 2.479 . S
Eu857 O873 2.471 . S
Eu857 O874 2.347 . S
Eu857 O877 2.366 . S
Eu857 C887 2.825 . S
C858 O874 1.259 . S
C858 O875 1.265 . S
C859 O876 1.255 . S
C859 O877 1.265 . S
C860 C862 1.380 . S
C860 C863 1.374 . S
C860 C866 1.507 . S
C861 C862 1.384 1_545 S
C861 C865 1.387 . S
C861 H888 0.930 . S
C862 C860 1.380 . S
C862 C861 1.384 1_565 S
C862 H889 0.931 . S
C863 C860 1.374 . S
C863 C864 1.390 . S
C863 H890 0.930 . S
C864 C863 1.390 . S
C864 C865 1.391 1_565 S
C864 H891 0.930 . S
C865 C861 1.387 . S
C865 C864 1.391 1_545 S
C866 Tb856 2.825 . S
C866 C860 1.507 . S
C866 O879 1.238 . S
C866 O880 1.247 . S
O867 Tb856 2.347 . S
O867 C871 1.259 . S
O868 Eu857 2.418 . S
O868 C871 1.265 . S
O869 Eu857 2.384 . S
O869 C878 1.255 . S
O870 Tb856 2.366 . S
O870 C878 1.265 . S
C871 O867 1.259 . S
C871 O868 1.265 . S
O872 Eu857 2.479 . S
O872 C887 1.238 . S
O873 Eu857 2.471 . S
O873 C887 1.247 . S
O874 Eu857 2.347 . S
O874 C858 1.259 . S
O875 Tb856 2.418 . S
O875 C858 1.265 . S
O876 Tb856 2.384 . S
O876 C859 1.255 . S
O877 Eu857 2.366 . S
O877 C859 1.265 . S
C878 O869 1.255 . S
C878 O870 1.265 . S
O879 Tb856 2.479 . S
O879 C866 1.238 . S
O880 Tb856 2.471 . S
O880 C866 1.247 . S
C881 C884 1.380 . S
C881 C885 1.374 . S
C881 C887 1.507 . S
C882 C883 1.387 . S
C882 C886 1.391 . S
C883 C882 1.387 . S
C883 C884 1.384 . S
C883 H892 0.930 . S
C884 C881 1.380 . S
C884 C883 1.384 . S
C884 H893 0.931 . S
C885 C881 1.374 . S
C885 C886 1.390 . S
C885 H894 0.930 . S
C886 C882 1.391 . S
C886 C885 1.390 . S
C886 H895 0.930 . S
C887 Eu857 2.825 . S
C887 O872 1.238 . S
C887 O873 1.247 . S
C887 C881 1.507 . S
H888 C861 0.930 . S
H889 C862 0.931 . S
H890 C863 0.930 . S
H891 C864 0.930 . S
H892 C883 0.930 . S
H893 C884 0.931 . S
H894 C885 0.930 . S
H895 C886 0.930 . S
Tb896 C906 2.825 . S
Tb896 O907 2.347 . S
Tb896 O910 2.366 . S
Tb896 O915 2.418 . S
Tb896 O916 2.384 . S
Tb896 O919 2.479 . S
Tb896 O920 2.471 . S
Eu897 O908 2.418 . S
Eu897 O909 2.384 . S
Eu897 O912 2.479 . S
Eu897 O913 2.471 . S
Eu897 O914 2.347 . S
Eu897 O917 2.366 . S
Eu897 C927 2.825 . S
C898 O914 1.259 . S
C898 O915 1.265 . S
C899 O916 1.255 . S
C899 O917 1.265 . S
C900 C902 1.380 . S
C900 C903 1.374 . S
C900 C906 1.507 . S
C901 C902 1.384 . S
C901 C905 1.387 . S
C901 H928 0.930 . S
C902 C900 1.380 . S
C902 C901 1.384 . S
C902 H929 0.931 . S
C903 C900 1.374 . S
C903 C904 1.390 . S
C903 H930 0.930 . S
C904 C903 1.390 . S
C904 C905 1.391 . S
C904 H931 0.930 . S
C905 C901 1.387 . S
C905 C904 1.391 . S
C906 Tb896 2.825 . S
C906 C900 1.507 . S
C906 O919 1.238 . S
C906 O920 1.247 . S
O907 Tb896 2.347 . S
O907 C911 1.259 . S
O908 Eu897 2.418 . S
O908 C911 1.265 . S
O909 Eu897 2.384 . S
O909 C918 1.255 . S
O910 Tb896 2.366 . S
O910 C918 1.265 . S
C911 O907 1.259 . S
C911 O908 1.265 . S
O912 Eu897 2.479 . S
O912 C927 1.238 . S
O913 Eu897 2.471 . S
O913 C927 1.247 . S
O914 Eu897 2.347 . S
O914 C898 1.259 . S
O915 Tb896 2.418 . S
O915 C898 1.265 . S
O916 Tb896 2.384 . S
O916 C899 1.255 . S
O917 Eu897 2.366 . S
O917 C899 1.265 . S
C918 O909 1.255 . S
C918 O910 1.265 . S
O919 Tb896 2.479 . S
O919 C906 1.238 . S
O920 Tb896 2.471 . S
O920 C906 1.247 . S
C921 C924 1.380 . S
C921 C925 1.374 . S
C921 C927 1.507 . S
C922 C923 1.387 . S
C922 C926 1.391 . S
C923 C922 1.387 . S
C923 C924 1.384 . S
C923 H932 0.930 . S
C924 C921 1.380 . S
C924 C923 1.384 . S
C924 H933 0.931 . S
C925 C921 1.374 . S
C925 C926 1.390 . S
C925 H934 0.930 . S
C926 C922 1.391 . S
C926 C925 1.390 . S
C926 H935 0.930 . S
C927 Eu897 2.825 . S
C927 O912 1.238 . S
C927 O913 1.247 . S
C927 C921 1.507 . S
H928 C901 0.930 . S
H929 C902 0.931 . S
H930 C903 0.930 . S
H931 C904 0.930 . S
H932 C923 0.930 . S
H933 C924 0.931 . S
H934 C925 0.930 . S
H935 C926 0.930 . S
Tb936 C946 2.825 1_554 S
Tb936 O947 2.347 1_554 S
Tb936 O950 2.366 . S
Tb936 O955 2.418 . S
Tb936 O956 2.384 1_455 S
Tb936 O959 2.479 . S
Tb936 O960 2.471 1_554 S
Eu937 O948 2.418 1_554 S
Eu937 O949 2.384 . S
Eu937 O952 2.479 . S
Eu937 O953 2.471 . S
Eu937 O954 2.347 . S
Eu937 O957 2.366 . S
Eu937 C967 2.825 . S
C938 O954 1.259 . S
C938 O955 1.265 . S
C939 O956 1.255 . S
C939 O957 1.265 1_655 S
C940 C942 1.380 1_455 S
C940 C943 1.374 . S
C940 C946 1.507 . S
C941 C942 1.384 . S
C941 C945 1.387 1_655 S
C941 H968 0.930 . S
C942 C940 1.380 1_655 S
C942 C941 1.384 . S
C942 H969 0.931 1_556 S
C943 C940 1.374 . S
C943 C944 1.390 . S
C943 H970 0.930 . S
C944 C943 1.390 . S
C944 C945 1.391 . S
C944 H971 0.930 . S
C945 C941 1.387 1_455 S
C945 C944 1.391 . S
C946 Tb936 2.825 1_556 S
C946 C940 1.507 . S
C946 O959 1.238 1_556 S
C946 O960 1.247 . S
O947 Tb936 2.347 1_556 S
O947 C951 1.259 . S
O948 Eu937 2.418 1_556 S
O948 C951 1.265 . S
O949 Eu937 2.384 . S
O949 C958 1.255 . S
O950 Tb936 2.366 . S
O950 C958 1.265 . S
C951 O947 1.259 . S
C951 O948 1.265 . S
O952 Eu937 2.479 . S
O952 C967 1.238 . S
O953 Eu937 2.471 . S
O953 C967 1.247 . S
O954 Eu937 2.347 . S
O954 C938 1.259 . S
O955 Tb936 2.418 . S
O955 C938 1.265 . S
O956 Tb936 2.384 1_655 S
O956 C939 1.255 . S
O957 Eu937 2.366 . S
O957 C939 1.265 1_455 S
C958 O949 1.255 . S
C958 O950 1.265 . S
O959 Tb936 2.479 . S
O959 C946 1.238 1_554 S
O960 Tb936 2.471 1_556 S
O960 C946 1.247 . S
C961 C964 1.380 . S
C961 C965 1.374 . S
C961 C967 1.507 . S
C962 C963 1.387 . S
C962 C966 1.391 . S
C963 C962 1.387 . S
C963 C964 1.384 . S
C963 H972 0.930 . S
C964 C961 1.380 . S
C964 C963 1.384 . S
C964 H973 0.931 . S
C965 C961 1.374 . S
C965 C966 1.390 . S
C965 H974 0.930 . S
C966 C962 1.391 . S
C966 C965 1.390 . S
C966 H975 0.930 . S
C967 Eu937 2.825 . S
C967 O952 1.238 . S
C967 O953 1.247 . S
C967 C961 1.507 . S
H968 C941 0.930 . S
H969 C942 0.931 1_554 S
H970 C943 0.930 . S
H971 C944 0.930 . S
H972 C963 0.930 . S
H973 C964 0.931 . S
H974 C965 0.930 . S
H975 C966 0.930 . S
C109 C358 2.748 1_556 S
C65 C378 2.667 . S
C75 C425 1.512 . S
C482 C84 2.380 . S
C25 C499 3.760 1_565 S
C558 C28 2.501 . S
C591 C47 4.147 . S
C9 C638 3.923 . S
C351 C233 3.768 1_455 S
C249 C379 2.141 . S
C418 C275 1.715 . S
C478 C173 3.283 . S
C224 C505 1.643 . S
C551 C243 2.999 . S
C602 C266 2.757 . S
C631 C179 3.479 . S
C362 C163 5.203 1_545 S
C289 C658 2.980 . S
C722 C333 3.441 . S
C758 C308 2.488 . S
C123 C642 4.918 . S
C126 C419 3.836 . S
C327 C791 2.945 . S
C825 C299 2.406 1_455 S
C339 C67 3.341 . S
C831 C98 2.784 . S
C89 C442 1.764 . S
C79 C785 2.793 . S
C518 C11 3.762 . S
C51 C699 2.733 . S
C578 C33 4.103 1_544 S
C859 C14 3.821 . S
C338 C140 3.131 . S
C838 C319 2.074 . S
C112 C431 1.729 . S
C285 C779 3.226 . S
C149 C522 1.726 . S
C698 C313 3.167 . S
C121 C585 2.804 . S
C291 C858 3.289 . S
C182 C345 4.359 1_554 S
C168 C671 2.772 . S
C263 C545 3.524 . S
C247 C739 2.715 . S
C865 C277 4.693 1_545 S
C219 C438 3.844 1_565 S
C458 C257 2.980 . S
C402 C201 1.685 . S
C81 C918 3.556 . S
C818 C93 3.048 . S
C103 C945 0.986 . S
C56 C802 2.518 . S
C53 C659 3.744 . S
C718 C0 2.694 . S
C751 C19 4.136 . S
C878 C37 3.722 . S
C911 C261 3.467 . S
C193 C819 2.106 . S
C938 C205 1.845 . S
C798 C215 3.231 . S
C665 C252 1.671 . S
C187 C711 3.236 . S
C762 C196 2.862 . S
C221 C871 3.483 . S
C922 C317 5.224 . S
C135 C498 3.142 . S
C562 C151 3.227 . S
C598 C154 2.543 1_545 S
C882 C305 4.724 . S
C280 C939 3.937 . S
C471 C145 2.993 . S
C385 C117 1.280 . S
C95 C899 3.495 . S
C391 C70 2.472 . S
C61 C962 1.177 . S
C107 C465 2.826 . S
C39 C678 3.742 . S
C539 C23 2.815 . S
C5 C738 4.242 . S
C42 C619 3.715 . S
C898 C322 3.317 . S
C165 C398 2.161 . S
C951 C294 1.211 . S
C131 C459 3.277 . S
C331 C682 1.603 . S
C538 C159 3.292 . S
C303 C745 2.492 . S
C618 C137 3.347 . S
C905 C238 4.975 . S
C511 C210 2.993 1_545 S
C235 C705 3.327 . S
C579 C191 2.476 1_554 S
C207 C625 4.706 . S
C177 C958 3.987 . S
C778 C229 3.057 . S
C842 C271 1.881 . S
