# Generated by pormake.
# Topology pyr, (3,6)-cn, num edge types: 1
# Building blocks:
#     Node 0, Type 0, BuildingBlock: WUSLED_clean_sbu_0, # of connection points: 3
#     Node 1, Type 0, BuildingBlock: WUSLED_clean_sbu_0, # of connection points: 3
#     Node 2, Type 0, BuildingBlock: WUSLED_clean_sbu_0, # of connection points: 3
#     Node 3, Type 0, BuildingBlock: WUSLED_clean_sbu_0, # of connection points: 3
#     Node 4, Type 0, BuildingBlock: WUSLED_clean_sbu_0, # of connection points: 3
#     Node 5, Type 0, BuildingBlock: WUSLED_clean_sbu_0, # of connection points: 3
#     Node 6, Type 0, BuildingBlock: WUSLED_clean_sbu_0, # of connection points: 3
#     Node 7, Type 0, BuildingBlock: WUSLED_clean_sbu_0, # of connection points: 3
#     Node 8, Type 1, BuildingBlock: MIDCAF_clean_sbu_0, # of connection points: 6
#     Node 9, Type 1, BuildingBlock: MIDCAF_clean_sbu_0, # of connection points: 6
#     Node 10, Type 1, BuildingBlock: MIDCAF_clean_sbu_0, # of connection points: 6
#     Node 11, Type 1, BuildingBlock: MIDCAF_clean_sbu_0, # of connection points: 6
#     Edge 12, Type (0, 1), BuildingBlock: UVAHIK_clean_linker_0, # of connection points: 2
#     Edge 13, Type (0, 1), BuildingBlock: UVAHIK_clean_linker_0, # of connection points: 2
#     Edge 14, Type (0, 1), BuildingBlock: UVAHIK_clean_linker_0, # of connection points: 2
#     Edge 15, Type (0, 1), BuildingBlock: UVAHIK_clean_linker_0, # of connection points: 2
#     Edge 16, Type (0, 1), BuildingBlock: UVAHIK_clean_linker_0, # of connection points: 2
#     Edge 17, Type (0, 1), BuildingBlock: UVAHIK_clean_linker_0, # of connection points: 2
#     Edge 18, Type (0, 1), BuildingBlock: UVAHIK_clean_linker_0, # of connection points: 2
#     Edge 19, Type (0, 1), BuildingBlock: UVAHIK_clean_linker_0, # of connection points: 2
#     Edge 20, Type (0, 1), BuildingBlock: UVAHIK_clean_linker_0, # of connection points: 2
#     Edge 21, Type (0, 1), BuildingBlock: UVAHIK_clean_linker_0, # of connection points: 2
#     Edge 22, Type (0, 1), BuildingBlock: UVAHIK_clean_linker_0, # of connection points: 2
#     Edge 23, Type (0, 1), BuildingBlock: UVAHIK_clean_linker_0, # of connection points: 2
#     Edge 24, Type (0, 1), BuildingBlock: UVAHIK_clean_linker_0, # of connection points: 2
#     Edge 25, Type (0, 1), BuildingBlock: UVAHIK_clean_linker_0, # of connection points: 2
#     Edge 26, Type (0, 1), BuildingBlock: UVAHIK_clean_linker_0, # of connection points: 2
#     Edge 27, Type (0, 1), BuildingBlock: UVAHIK_clean_linker_0, # of connection points: 2
#     Edge 28, Type (0, 1), BuildingBlock: UVAHIK_clean_linker_0, # of connection points: 2
#     Edge 29, Type (0, 1), BuildingBlock: UVAHIK_clean_linker_0, # of connection points: 2
#     Edge 30, Type (0, 1), BuildingBlock: UVAHIK_clean_linker_0, # of connection points: 2
#     Edge 31, Type (0, 1), BuildingBlock: UVAHIK_clean_linker_0, # of connection points: 2
#     Edge 32, Type (0, 1), BuildingBlock: UVAHIK_clean_linker_0, # of connection points: 2
#     Edge 33, Type (0, 1), BuildingBlock: UVAHIK_clean_linker_0, # of connection points: 2
#     Edge 34, Type (0, 1), BuildingBlock: UVAHIK_clean_linker_0, # of connection points: 2
#     Edge 35, Type (0, 1), BuildingBlock: UVAHIK_clean_linker_0, # of connection points: 2
# Relax obj value: 0.020
# Max RMSD: 0.063
# Mean RMSD: 0.028
data_MOF--net-pyr--node1-WUSLED_clean_sbu_0--node2-MIDCAF_clean_sbu_0--edge1-UVAHIK_clean_linker_0
_symmetry_space_group_name_H-M    P1
_symmetry_Int_Tables_number       1
_symmetry_cell_setting            triclinic
loop_
_symmetry_equiv_pos_as_xyz
'x, y, z'
_cell_length_a     56.869404
_cell_length_b     57.095648
_cell_length_c     57.054729
_cell_angle_alpha  89.605256
_cell_angle_beta   90.271709
_cell_angle_gamma 90.627608
loop_
_atom_site_label
_atom_site_type_symbol
_atom_site_fract_x
_atom_site_fract_y
_atom_site_fract_z
_atom_type_partial_charge
C0 C 0.21883 0.27693 0.18011 0.0
C1 C 0.1948 0.28032 0.18425 0.0
C2 C 0.19603 0.31699 0.16195 0.0
C3 C 0.18349 0.30013 0.17521 0.0
C4 C 0.22022 0.31363 0.15828 0.0
C5 C 0.23146 0.2938 0.16723 0.0
U6 U 0.22676 0.22502 0.22278 0.0
O7 O 0.23614 0.18857 0.21541 0.0
O8 O 0.25957 0.21031 0.23708 0.0
C9 C 0.25665 0.19036 0.22604 0.0
C10 C 0.23101 0.25579 0.18854 0.0
C11 C 0.27712 0.18212 0.21274 0.0
C12 C 0.29816 0.17722 0.17611 0.0
C13 C 0.27891 0.18583 0.18847 0.0
C14 C 0.31436 0.16157 0.2122 0.0
C15 C 0.31613 0.16489 0.18779 0.0
C16 C 0.29503 0.17006 0.22451 0.0
C17 C 0.18457 0.21587 0.27444 0.0
C18 C 0.18162 0.18 0.29753 0.0
C19 C 0.16195 0.21498 0.3105 0.0
C20 C 0.1705 0.22716 0.29089 0.0
C21 C 0.16727 0.19118 0.31404 0.0
C22 C 0.19023 0.19225 0.27796 0.0
C23 C 0.19287 0.22894 0.25364 0.0
O24 O 0.24216 0.25776 0.20866 0.0
O25 O 0.21935 0.23588 0.18648 0.0
O26 O 0.1902 0.21825 0.23345 0.0
O27 O 0.2134 0.23951 0.25581 0.0
H28 H 0.18471 0.26752 0.19421 0.0
H29 H 0.16482 0.30197 0.1782 0.0
H30 H 0.23056 0.32639 0.14855 0.0
H31 H 0.25005 0.29155 0.16396 0.0
H32 H 0.2987 0.17988 0.15731 0.0
H33 H 0.26531 0.19516 0.17902 0.0
H34 H 0.32798 0.15254 0.22188 0.0
H35 H 0.29404 0.16713 0.24326 0.0
H36 H 0.18586 0.16165 0.29947 0.0
H37 H 0.1513 0.22429 0.32298 0.0
H38 H 0.16604 0.24543 0.28853 0.0
H39 H 0.20112 0.18321 0.26546 0.0
C40 C 0.26323 0.82902 0.69243 0.0
C41 C 0.25493 0.84747 0.70616 0.0
C42 C 0.22325 0.85448 0.67794 0.0
C43 C 0.23509 0.86014 0.69895 0.0
C44 C 0.23187 0.83601 0.66431 0.0
C45 C 0.25158 0.82344 0.67152 0.0
U46 U 0.31637 0.81428 0.73231 0.0
O47 O 0.33013 0.77966 0.74208 0.0
O48 O 0.35208 0.80419 0.72177 0.0
C49 C 0.34972 0.78283 0.73024 0.0
C50 C 0.28409 0.8154 0.69918 0.0
C51 C 0.35701 0.76366 0.71458 0.0
C52 C 0.3493 0.72718 0.69374 0.0
C53 C 0.34148 0.74553 0.70786 0.0
C54 C 0.38812 0.74495 0.69259 0.0
C55 C 0.37273 0.72669 0.68592 0.0
C56 C 0.38036 0.76314 0.70679 0.0
C57 C 0.33025 0.8501 0.78761 0.0
C58 C 0.36737 0.84923 0.80899 0.0
C59 C 0.33426 0.87002 0.82496 0.0
C60 C 0.32062 0.86359 0.80552 0.0
C61 C 0.35788 0.86312 0.82687 0.0
C62 C 0.35365 0.84273 0.78956 0.0
C63 C 0.3158 0.84457 0.7668 0.0
O64 O 0.30441 0.82645 0.69762 0.0
O65 O 0.28218 0.80242 0.71821 0.0
O66 O 0.30426 0.8245 0.76741 0.0
O67 O 0.32568 0.8489 0.74642 0.0
H68 H 0.26377 0.85205 0.72238 0.0
H69 H 0.22889 0.87414 0.70994 0.0
H70 H 0.22361 0.83144 0.6478 0.0
H71 H 0.25783 0.80936 0.66061 0.0
H72 H 0.33695 0.71352 0.68875 0.0
H73 H 0.32334 0.74544 0.71354 0.0
H74 H 0.40635 0.74497 0.68717 0.0
H75 H 0.39272 0.77679 0.71187 0.0
H76 H 0.38539 0.84338 0.81001 0.0
H77 H 0.32646 0.88096 0.8382 0.0
H78 H 0.30261 0.86949 0.8043 0.0
H79 H 0.36138 0.83219 0.77595 0.0
C80 C 0.68657 0.32646 0.76837 0.0
C81 C 0.70172 0.3402 0.75446 0.0
C82 C 0.66877 0.35189 0.72958 0.0
C83 C 0.69292 0.35272 0.7352 0.0
C84 C 0.65372 0.33811 0.74369 0.0
C85 C 0.66256 0.32551 0.76285 0.0
U86 U 0.73118 0.31717 0.8179 0.0
O87 O 0.72518 0.30731 0.85483 0.0
O88 O 0.74626 0.28479 0.83227 0.0
C89 C 0.73593 0.28718 0.85269 0.0
C90 C 0.69534 0.31337 0.78891 0.0
C91 C 0.72311 0.26646 0.86185 0.0
C92 C 0.70089 0.23029 0.856 0.0
C93 C 0.71272 0.24991 0.84682 0.0
C94 C 0.70941 0.24364 0.89536 0.0
C95 C 0.69901 0.2269 0.88042 0.0
C96 C 0.72136 0.26314 0.88615 0.0
C97 C 0.78328 0.35971 0.82451 0.0
C98 C 0.8079 0.3619 0.85937 0.0
C99 C 0.81911 0.3833 0.82428 0.0
C100 C 0.79906 0.37466 0.81279 0.0
C101 C 0.82373 0.37717 0.84779 0.0
C102 C 0.78791 0.35321 0.84782 0.0
C103 C 0.76191 0.35143 0.81233 0.0
O104 O 0.71522 0.30219 0.78608 0.0
O105 O 0.69426 0.32449 0.80895 0.0
O106 O 0.74217 0.35365 0.82395 0.0
O107 O 0.76359 0.33115 0.80174 0.0
H108 H 0.72034 0.34125 0.7585 0.0
H109 H 0.7051 0.3629 0.72461 0.0
H110 H 0.63499 0.33735 0.74022 0.0
H111 H 0.65057 0.31515 0.77349 0.0
H112 H 0.69339 0.21767 0.84393 0.0
H113 H 0.71378 0.25208 0.82797 0.0
H114 H 0.70799 0.24191 0.91421 0.0
H115 H 0.72918 0.27575 0.89806 0.0
H116 H 0.81068 0.35703 0.87754 0.0
H117 H 0.83105 0.39469 0.81469 0.0
H118 H 0.79581 0.37977 0.79475 0.0
H119 H 0.77592 0.34164 0.85716 0.0
C120 C 0.7736 0.67895 0.32382 0.0
C121 C 0.75753 0.69398 0.33448 0.0
C122 C 0.73343 0.66049 0.34686 0.0
C123 C 0.73761 0.68486 0.3458 0.0
C124 C 0.74979 0.64555 0.33634 0.0
C125 C 0.7696 0.6547 0.32491 0.0
U126 U 0.82421 0.72335 0.31536 0.0
O127 O 0.86088 0.71749 0.30513 0.0
O128 O 0.8381 0.73899 0.28275 0.0
C129 C 0.85851 0.7286 0.28501 0.0
C130 C 0.79443 0.68808 0.31123 0.0
C131 C 0.86676 0.716 0.2642 0.0
C132 C 0.86921 0.68055 0.241 0.0
C133 C 0.86071 0.69241 0.26056 0.0
C134 C 0.88953 0.71586 0.22824 0.0
C135 C 0.88381 0.6921 0.22459 0.0
C136 C 0.8811 0.72765 0.24786 0.0
C137 C 0.83207 0.77402 0.35899 0.0
C138 C 0.85459 0.81002 0.3529 0.0
C139 C 0.84355 0.79812 0.39219 0.0
C140 C 0.8323 0.77822 0.38316 0.0
C141 C 0.85477 0.81439 0.37719 0.0
C142 C 0.84341 0.79 0.34389 0.0
C143 C 0.8198 0.75297 0.35008 0.0
O144 O 0.79188 0.70822 0.30022 0.0
O145 O 0.81458 0.68648 0.32247 0.0
O146 O 0.83141 0.73327 0.35197 0.0
O147 O 0.80872 0.75522 0.32991 0.0
H148 H 0.76027 0.71279 0.33392 0.0
H149 H 0.72532 0.69695 0.35343 0.0
H150 H 0.74746 0.62671 0.33714 0.0
H151 H 0.78185 0.64279 0.3169 0.0
H152 H 0.86467 0.66221 0.23899 0.0
H153 H 0.84961 0.6831 0.27297 0.0
H154 H 0.90039 0.72544 0.21584 0.0
H155 H 0.88585 0.74591 0.25032 0.0
H156 H 0.86282 0.82223 0.34078 0.0
H157 H 0.84369 0.80058 0.41099 0.0
H158 H 0.82377 0.76602 0.39512 0.0
H159 H 0.84353 0.78708 0.32516 0.0
C160 C 0.88689 0.83362 0.9291 0.0
C161 C 0.89279 0.81457 0.91491 0.0
C162 C 0.90717 0.79299 0.94906 0.0
C163 C 0.90269 0.79445 0.92479 0.0
C164 C 0.90129 0.81217 0.96318 0.0
C165 C 0.8912 0.83221 0.95329 0.0
U166 U 0.88408 0.88281 0.88315 0.0
O167 O 0.85353 0.89825 0.86522 0.0
O168 O 0.87637 0.92023 0.88724 0.0
C169 C 0.85679 0.91883 0.87496 0.0
C170 C 0.8761 0.85495 0.91912 0.0
C171 C 0.83592 0.92896 0.88596 0.0
C172 C 0.80853 0.93126 0.9184 0.0
C173 C 0.82838 0.92137 0.90815 0.0
C174 C 0.80343 0.95623 0.88429 0.0
C175 C 0.79581 0.94883 0.9066 0.0
C176 C 0.82332 0.94639 0.8741 0.0
C177 C 0.93041 0.88537 0.83398 0.0
C178 C 0.93079 0.89246 0.7918 0.0
C179 C 0.96293 0.90681 0.81586 0.0
C180 C 0.95212 0.89724 0.83576 0.0
C181 C 0.95241 0.90452 0.79363 0.0
C182 C 0.9199 0.88299 0.81173 0.0
C183 C 0.91965 0.8747 0.85522 0.0
O184 O 0.88881 0.87426 0.92062 0.0
O185 O 0.86546 0.85264 0.89873 0.0
O186 O 0.89883 0.86472 0.85273 0.0
O187 O 0.92164 0.88683 0.87465 0.0
H188 H 0.8897 0.81515 0.89616 0.0
H189 H 0.90661 0.77995 0.91338 0.0
H190 H 0.90479 0.81188 0.98185 0.0
H191 H 0.88684 0.84671 0.96457 0.0
H192 H 0.80296 0.92492 0.93545 0.0
H193 H 0.83782 0.90781 0.9175 0.0
H194 H 0.79421 0.96987 0.87484 0.0
H195 H 0.82892 0.95245 0.85695 0.0
H196 H 0.9221 0.8906 0.77497 0.0
H197 H 0.97972 0.91573 0.81783 0.0
H198 H 0.96085 0.89902 0.85258 0.0
H199 H 0.90328 0.87379 0.80963 0.0
C200 C 0.61941 0.16842 0.33047 0.0
C201 C 0.63182 0.16538 0.30945 0.0
C202 C 0.59649 0.14996 0.29039 0.0
C203 C 0.62044 0.15632 0.28962 0.0
C204 C 0.58419 0.15282 0.31148 0.0
C205 C 0.59551 0.16205 0.33125 0.0
U206 U 0.66694 0.17069 0.37885 0.0
O207 O 0.68614 0.20093 0.39347 0.0
O208 O 0.66353 0.17939 0.41622 0.0
C209 C 0.67633 0.19862 0.4142 0.0
C210 C 0.63067 0.17894 0.35143 0.0
C211 C 0.66663 0.22008 0.42491 0.0
C212 C 0.66268 0.26254 0.42609 0.0
C213 C 0.67079 0.24238 0.41503 0.0
C214 C 0.64603 0.2386 0.45713 0.0
C215 C 0.65024 0.2609 0.4473 0.0
C216 C 0.65423 0.21846 0.44613 0.0
C217 C 0.71505 0.12408 0.38195 0.0
C218 C 0.75489 0.12752 0.39741 0.0
C219 C 0.73548 0.0896 0.39642 0.0
C220 C 0.71555 0.0999 0.38643 0.0
C221 C 0.75547 0.10326 0.40203 0.0
C222 C 0.73489 0.13783 0.3876 0.0
C223 C 0.69382 0.13445 0.37117 0.0
O224 O 0.62911 0.1667 0.37098 0.0
O225 O 0.65145 0.18884 0.34849 0.0
O226 O 0.69664 0.1548 0.36053 0.0
O227 O 0.67456 0.13319 0.38378 0.0
H228 H 0.65028 0.17006 0.30825 0.0
H229 H 0.63049 0.15404 0.27373 0.0
H230 H 0.56568 0.14828 0.3126 0.0
H231 H 0.5855 0.16439 0.34717 0.0
H232 H 0.66601 0.27943 0.41793 0.0
H233 H 0.68046 0.24436 0.39882 0.0
H234 H 0.6368 0.23673 0.47361 0.0
H235 H 0.6511 0.20159 0.45442 0.0
H236 H 0.77002 0.13859 0.40114 0.0
H237 H 0.73506 0.07096 0.40004 0.0
H238 H 0.70044 0.08895 0.38227 0.0
H239 H 0.73503 0.15655 0.38436 0.0
C240 C 0.34256 0.61015 0.15597 0.0
C241 C 0.32299 0.62438 0.15164 0.0
C242 C 0.30087 0.59094 0.13633 0.0
C243 C 0.30237 0.61487 0.14205 0.0
C244 C 0.32049 0.57673 0.14079 0.0
C245 C 0.34106 0.58623 0.15057 0.0
U246 U 0.39375 0.65423 0.15583 0.0
O247 O 0.41027 0.67372 0.18474 0.0
O248 O 0.43126 0.64935 0.16417 0.0
C249 C 0.43037 0.66273 0.18282 0.0
C250 C 0.36455 0.61981 0.16615 0.0
C251 C 0.44057 0.65297 0.20475 0.0
C252 C 0.44126 0.64959 0.24736 0.0
C253 C 0.43117 0.65847 0.22679 0.0
C254 C 0.47054 0.6297 0.22443 0.0
C255 C 0.461 0.63502 0.24643 0.0
C256 C 0.46052 0.63867 0.20385 0.0
C257 C 0.39757 0.70085 0.10782 0.0
C258 C 0.43149 0.72675 0.10395 0.0
C259 C 0.39586 0.73487 0.08205 0.0
C260 C 0.38522 0.71488 0.09182 0.0
C261 C 0.41908 0.74117 0.08815 0.0
C262 C 0.42081 0.70684 0.11376 0.0
C263 C 0.38585 0.68045 0.11868 0.0
O264 O 0.38366 0.61691 0.15366 0.0
O265 O 0.3633 0.64076 0.17549 0.0
O266 O 0.3763 0.68433 0.1392 0.0
O267 O 0.39753 0.66072 0.11799 0.0
H268 H 0.32354 0.6429 0.15564 0.0
H269 H 0.28753 0.62629 0.13927 0.0
H270 H 0.32013 0.55832 0.13634 0.0
H271 H 0.35591 0.5749 0.15376 0.0
H272 H 0.43333 0.65382 0.26401 0.0
H273 H 0.41597 0.66962 0.22823 0.0
H274 H 0.48592 0.61878 0.22312 0.0
H275 H 0.46843 0.63445 0.18719 0.0
H276 H 0.44951 0.73085 0.10877 0.0
H277 H 0.38568 0.74569 0.0702 0.0
H278 H 0.36721 0.71054 0.08713 0.0
H279 H 0.43062 0.69622 0.12612 0.0
C280 C 0.12525 0.33545 0.62888 0.0
C281 C 0.13366 0.31331 0.63558 0.0
C282 C 0.11822 0.29604 0.59965 0.0
C283 C 0.13029 0.29389 0.6211 0.0
C284 C 0.10995 0.31821 0.59284 0.0
C285 C 0.11339 0.33768 0.60728 0.0
U286 U 0.15566 0.39216 0.64999 0.0
O287 O 0.14076 0.4245 0.66408 0.0
O288 O 0.16438 0.40331 0.68591 0.0
C289 C 0.14984 0.42105 0.68506 0.0
C290 C 0.12771 0.35558 0.64509 0.0
C291 C 0.13389 0.42352 0.70536 0.0
C292 C 0.09576 0.43305 0.72192 0.0
C293 C 0.10998 0.429 0.70242 0.0
C294 C 0.12884 0.42562 0.74766 0.0
C295 C 0.10508 0.43164 0.74476 0.0
C296 C 0.14308 0.42172 0.72819 0.0
C297 C 0.2091 0.41583 0.61581 0.0
C298 C 0.23125 0.45094 0.62629 0.0
C299 C 0.2437 0.42726 0.59362 0.0
C300 C 0.22483 0.4119 0.59751 0.0
C301 C 0.24721 0.44699 0.60795 0.0
C302 C 0.21232 0.43547 0.63018 0.0
C303 C 0.18979 0.39895 0.61974 0.0
O304 O 0.14639 0.35566 0.65878 0.0
O305 O 0.12277 0.37645 0.63661 0.0
O306 O 0.16842 0.40698 0.61663 0.0
O307 O 0.19183 0.3856 0.63848 0.0
H308 H 0.14252 0.31089 0.65225 0.0
H309 H 0.13653 0.27701 0.62709 0.0
H310 H 0.10072 0.32051 0.57635 0.0
H311 H 0.10648 0.3544 0.60162 0.0
H312 H 0.07749 0.43747 0.7191 0.0
H313 H 0.10229 0.43055 0.68509 0.0
H314 H 0.13667 0.42473 0.76498 0.0
H315 H 0.16147 0.41777 0.73098 0.0
H316 H 0.23332 0.46602 0.63754 0.0
H317 H 0.25584 0.42336 0.57965 0.0
H318 H 0.22267 0.39674 0.58634 0.0
H319 H 0.20029 0.43875 0.64443 0.0
Zn320 Zn 0.995 0.05049 0.55053 0.0
Zn321 Zn 0.04844 0.99572 0.4977 0.0
Zn322 Zn 0.0214 0.02342 0.52381 0.0
C323 C 0.06351 0.04202 0.48959 0.0
C324 C 1.00155 0.98891 0.48293 0.0
O325 O 0.0241 0.01113 0.56091 0.0
O326 O 1.00306 0.0362 0.58124 0.0
C327 C 0.02803 0.07983 0.52866 0.0
O328 O 0.04672 0.04603 0.50411 0.0
O329 O 0.06855 0.02122 0.48428 0.0
O330 O 0.02227 0.9827 0.47833 0.0
O331 O 0.99788 1.00406 0.49915 0.0
O332 O 0.01027 0.08067 0.54182 0.0
O333 O 0.0348 0.06005 0.52038 0.0
O334 O 0.98447 0.02116 0.51077 0.0
O335 O 0.96432 0.04249 0.53578 0.0
C336 C 0.96486 0.02978 0.51778 0.0
O337 O 0.04004 0.99841 0.5475 0.0
O338 O 0.06081 0.97613 0.52387 0.0
C339 C 0.01592 0.01834 0.58062 0.0
C340 C 0.05449 0.98147 0.54432 0.0
Zn341 Zn 0.5013 0.04315 0.99624 0.0
Zn342 Zn 0.55434 0.99853 0.0581 0.0
Zn343 Zn 0.5278 0.01939 0.02685 0.0
C344 C 0.58456 0.01397 0.0229 0.0
C345 C 0.52254 0.96474 0.04072 0.0
O346 O 0.50618 0.04476 0.04663 0.0
O347 O 0.48402 0.062 0.01973 0.0
C348 C 0.54818 0.05276 0.98477 0.0
O349 O 0.56499 0.02202 0.01481 0.0
O350 O 0.58493 1.00292 0.04214 0.0
O351 O 0.53829 0.96783 0.05609 0.0
O352 O 0.51661 0.98176 0.027 0.0
O353 O 0.52752 0.05819 0.97886 0.0
O354 O 0.55162 0.03809 1.00174 0.0
O355 O 0.50441 0.99348 0.00889 0.0
O356 O 0.48608 0.01506 0.98215 0.0
C357 C 0.49003 0.99535 0.99143 0.0
O358 O 0.52314 0.03597 0.06207 0.0
O359 O 0.54756 0.01737 0.08592 0.0
C360 C 0.48986 0.05932 0.04097 0.0
C361 C 0.53251 0.03308 0.08254 0.0
Zn362 Zn 0.5523 0.55182 0.546 0.0
Zn363 Zn 0.49851 0.49237 0.49833 0.0
Zn364 Zn 0.52492 0.52264 0.52198 0.0
C365 C 0.53532 0.46662 0.51642 0.0
C366 C 0.51461 0.52648 0.46633 0.0
O367 O 0.50175 0.54279 0.54593 0.0
O368 O 0.5262 0.56955 0.56031 0.0
C369 C 0.56496 0.50622 0.55922 0.0
O370 O 0.54013 0.48676 0.52558 0.0
O371 O 0.51757 0.46415 0.5033 0.0
O372 O 0.50108 0.50882 0.46763 0.0
O373 O 0.52569 0.5338 0.4847 0.0
O374 O 0.56899 0.52732 0.56465 0.0
O375 O 0.54997 0.50132 0.54287 0.0
O376 O 0.54356 0.54615 0.4965 0.0
O377 O 0.56826 0.56647 0.51873 0.0
C378 C 0.56041 0.56133 0.49865 0.0
O379 O 0.4884 0.52476 0.53582 0.0
O380 O 0.46997 0.49567 0.51764 0.0
C381 C 0.50561 0.56126 0.55834 0.0
C382 C 0.4699 0.51191 0.53252 0.0
Zn383 Zn 0.05545 0.55451 0.9912 0.0
Zn384 Zn 1.00198 0.49774 0.04489 0.0
Zn385 Zn 0.02878 0.52613 0.01769 0.0
C386 C 0.04897 0.49123 0.05849 0.0
C387 C 0.99514 0.48426 0.99793 0.0
O388 O 0.01598 0.56261 0.0214 0.0
O389 O 0.04109 0.58441 1.00099 0.0
C390 C 0.08555 0.53202 0.02261 0.0
O391 O 0.05226 0.50638 0.04191 0.0
O392 O 0.02835 0.48492 0.06403 0.0
O393 O 0.98932 0.47853 0.01855 0.0
O394 O 0.00957 0.50148 0.99437 0.0
O395 O 0.0862 0.54552 0.005 0.0
O396 O 0.06579 0.52342 0.02984 0.0
O397 O 0.02536 0.51476 0.98062 0.0
O398 O 0.046 0.54108 0.9605 0.0
C399 C 0.03313 0.52292 0.96096 0.0
O400 O 1.00395 0.54816 0.03762 0.0
O401 O 0.98224 0.52304 0.05813 0.0
C402 C 0.0231 0.58279 0.0138 0.0
C403 C 0.9873 0.5439 0.05239 0.0
C404 C 0.17136 0.1612 0.34642 0.0
C405 C 0.15769 0.17803 0.33468 0.0
C406 C 0.16215 0.14838 0.36531 0.0
C407 C 0.11497 0.14757 0.40992 0.0
H408 H 0.12592 0.08071 0.4104 0.0
C409 C 0.06423 0.08153 0.46997 0.0
C410 C 0.07612 0.06136 0.47746 0.0
C411 C 0.07522 0.09772 0.45488 0.0
C412 C 0.12301 0.0994 0.41088 0.0
H413 H 0.12348 0.19452 0.33386 0.0
H414 H 0.10754 0.1723 0.36693 0.0
H415 H 0.14304 0.10495 0.37967 0.0
H416 H 0.10922 0.04303 0.47629 0.0
H417 H 0.12863 0.07147 0.45073 0.0
H418 H 0.09484 0.14193 0.4412 0.0
C419 C 0.1255 0.16921 0.36162 0.0
C420 C 0.13281 0.11332 0.39314 0.0
C421 C 0.13468 0.18197 0.34264 0.0
C422 C 0.09957 0.05835 0.47065 0.0
C423 C 0.11061 0.07457 0.45582 0.0
C424 C 0.10524 0.13363 0.42782 0.0
C425 C 0.13905 0.1521 0.37304 0.0
C426 C 0.1289 0.13756 0.39238 0.0
C427 C 0.09835 0.09404 0.44703 0.0
C428 C 0.10913 0.10932 0.42853 0.0
H429 H 0.18929 0.15799 0.34112 0.0
H430 H 0.17319 0.13558 0.37394 0.0
H431 H 0.11178 0.16624 0.40994 0.0
H432 H 0.04602 0.08412 0.47469 0.0
H433 H 0.06516 0.11242 0.44843 0.0
C434 C 0.36343 0.872 0.8698 0.0
C435 C 0.37269 0.87114 0.847 0.0
C436 C 0.37688 0.88091 0.8884 0.0
C437 C 0.43823 0.89708 0.90595 0.0
H438 H 0.4073 0.93958 0.9483 0.0
C439 C 0.48746 0.96852 0.95768 0.0
C440 C 0.47966 0.97458 0.98008 0.0
C441 C 0.47547 0.95155 0.94462 0.0
C442 C 0.41617 0.9274 0.93696 0.0
H443 H 0.40356 0.87885 0.82604 0.0
H444 H 0.42692 0.89448 0.85832 0.0
H445 H 0.38416 0.91843 0.91913 0.0
H446 H 0.45365 0.96756 0.00679 0.0
H447 H 0.43242 0.93762 0.98389 0.0
H448 H 0.47035 0.90672 0.92333 0.0
C449 C 0.40938 0.88788 0.86198 0.0
C450 C 0.40288 0.91526 0.92016 0.0
C451 C 0.39595 0.87893 0.8434 0.0
C452 C 0.46006 0.96291 0.98961 0.0
C453 C 0.44788 0.94597 0.97644 0.0
C454 C 0.45152 0.90926 0.92271 0.0
C455 C 0.39996 0.88924 0.8847 0.0
C456 C 0.41379 0.90031 0.90409 0.0
C457 C 0.45517 0.94047 0.95356 0.0
C458 C 0.44073 0.92497 0.93809 0.0
H459 H 0.34571 0.86581 0.87329 0.0
H460 H 0.36916 0.88131 0.9057 0.0
H461 H 0.44718 0.88534 0.89422 0.0
H462 H 0.50237 0.97759 0.9499 0.0
H463 H 0.48141 0.94805 0.927 0.0
C464 C 0.66799 0.38816 0.70415 0.0
C465 C 0.65921 0.36559 0.70936 0.0
C466 C 0.65861 0.40125 0.68559 0.0
C467 C 0.60501 0.40769 0.64996 0.0
H468 H 0.64556 0.44442 0.60909 0.0
C469 C 0.56693 0.46507 0.57517 0.0
C470 C 0.57711 0.48746 0.57249 0.0
C471 C 0.5777 0.44814 0.58937 0.0
C472 C 0.63395 0.43441 0.62044 0.0
H473 H 0.63397 0.33895 0.69852 0.0
H474 H 0.61739 0.36198 0.66641 0.0
H475 H 0.66288 0.41908 0.63895 0.0
H476 H 0.60664 0.50959 0.58255 0.0
H477 H 0.62503 0.48048 0.60768 0.0
H478 H 0.57607 0.42348 0.63198 0.0
C479 C 0.63142 0.36958 0.67687 0.0
C480 C 0.64391 0.41987 0.63755 0.0
C481 C 0.64091 0.35641 0.69534 0.0
C482 C 0.59839 0.49245 0.58413 0.0
C483 C 0.60907 0.47564 0.5984 0.0
C484 C 0.59504 0.42236 0.63294 0.0
C485 C 0.64011 0.39218 0.67183 0.0
C486 C 0.62956 0.40656 0.6527 0.0
C487 C 0.59876 0.45333 0.60145 0.0
C488 C 0.60937 0.43617 0.61816 0.0
H489 H 0.68177 0.396 0.71476 0.0
H490 H 0.66546 0.41875 0.68239 0.0
H491 H 0.59346 0.39785 0.66151 0.0
H492 H 0.55024 0.46087 0.56697 0.0
H493 H 0.56934 0.4311 0.59113 0.0
C494 C 0.91638 0.68346 0.19613 0.0
C495 C 0.89325 0.67932 0.20398 0.0
C496 C 0.92548 0.67088 0.1773 0.0
C497 C 0.91769 0.61496 0.14665 0.0
H498 H 0.95629 0.64372 0.09829 0.0
C499 C 0.95123 0.55975 0.07078 0.0
C500 C 0.97474 0.56309 0.06408 0.0
C501 C 0.94015 0.57596 0.08511 0.0
C502 C 0.94571 0.63538 0.11176 0.0
H503 H 0.86134 0.6592 0.1974 0.0
H504 H 0.87732 0.63708 0.16487 0.0
H505 H 0.93936 0.66803 0.12894 0.0
H506 H 1.00495 0.58636 0.06655 0.0
H507 H 0.98576 0.61463 0.09193 0.0
H508 H 0.92442 0.58232 0.13015 0.0
C509 C 0.8885 0.64989 0.17349 0.0
C510 C 0.93599 0.64932 0.12931 0.0
C511 C 0.87936 0.66254 0.19221 0.0
C512 C 0.98668 0.58354 0.07115 0.0
C513 C 0.97565 0.5997 0.08575 0.0
C514 C 0.9275 0.60105 0.12929 0.0
C515 C 0.91174 0.65375 0.16594 0.0
C516 C 0.92183 0.63925 0.14694 0.0
C517 C 0.95244 0.59573 0.0935 0.0
C518 C 0.9416 0.61102 0.11154 0.0
H519 H 0.92774 0.69599 0.20493 0.0
H520 H 0.94353 0.67408 0.17211 0.0
H521 H 0.90727 0.60656 0.16023 0.0
H522 H 0.94155 0.54422 0.06544 0.0
H523 H 0.92207 0.57262 0.09011 0.0
C524 C 0.34599 0.13338 0.18051 0.0
C525 C 0.33643 0.15529 0.17453 0.0
C526 C 0.36458 0.12411 0.16765 0.0
C527 C 0.39137 0.12717 0.10925 0.0
H528 H 0.44439 0.09642 0.13881 0.0
C529 C 0.46757 0.09441 0.05347 0.0
C530 C 0.47693 0.0724 0.05904 0.0
C531 C 0.45268 0.10569 0.06906 0.0
C532 C 0.4296 0.10474 0.13026 0.0
H533 H 0.33967 0.18489 0.15065 0.0
H534 H 0.37173 0.16852 0.12803 0.0
H535 H 0.41378 0.11359 0.16307 0.0
H536 H 0.4784 0.04512 0.08553 0.0
H537 H 0.45209 0.06465 0.11277 0.0
H538 H 0.40657 0.11792 0.07652 0.0
C539 C 0.36466 0.15843 0.14257 0.0
C540 C 0.41209 0.11462 0.14418 0.0
C541 C 0.3462 0.16778 0.15551 0.0
C542 C 0.47177 0.06227 0.08095 0.0
C543 C 0.45662 0.07347 0.09652 0.0
C544 C 0.40871 0.11718 0.09538 0.0
C545 C 0.37397 0.13641 0.14837 0.0
C546 C 0.3928 0.12602 0.13381 0.0
C547 C 0.44638 0.09507 0.09049 0.0
C548 C 0.42815 0.10591 0.10564 0.0
H549 H 0.33875 0.12307 0.1948 0.0
H550 H 0.37116 0.10698 0.1724 0.0
H551 H 0.37653 0.1354 0.1007 0.0
H552 H 0.4714 0.10274 0.03678 0.0
H553 H 0.44572 0.12258 0.06404 0.0
C554 C 0.20114 0.89231 0.67192 0.0
C555 C 0.2022 0.86777 0.6698 0.0
C556 C 0.18234 0.90479 0.66208 0.0
C557 C 0.14086 0.90019 0.6134 0.0
H558 H 0.10665 0.95041 0.64278 0.0
C559 C 0.06659 0.944 0.56282 0.0
C560 C 0.06477 0.9684 0.56422 0.0
C561 C 0.08024 0.93162 0.57898 0.0
C562 C 0.11617 0.93658 0.63422 0.0
H563 H 0.18329 0.8371 0.65718 0.0
H564 H 0.15098 0.85884 0.63972 0.0
H565 H 0.13704 0.92951 0.66498 0.0
H566 H 0.07472 0.99901 0.58423 0.0
H567 H 0.09956 0.97756 0.61205 0.0
H568 H 0.12118 0.90755 0.58244 0.0
C569 C 0.16484 0.86845 0.64868 0.0
C570 C 0.13353 0.92459 0.64699 0.0
C571 C 0.18345 0.856 0.65861 0.0
C572 C 0.07579 0.98013 0.58289 0.0
C573 C 0.09 0.96778 0.59883 0.0
C574 C 0.12386 0.9123 0.6006 0.0
C575 C 0.16431 0.89301 0.64983 0.0
C576 C 0.14591 0.90612 0.63672 0.0
C577 C 0.09311 0.94342 0.59653 0.0
C578 C 0.11104 0.93054 0.61081 0.0
H579 H 0.2153 0.90198 0.6803 0.0
H580 H 0.18245 0.92372 0.66316 0.0
H581 H 0.15044 0.8864 0.60481 0.0
H582 H 0.05804 0.93454 0.5487 0.0
H583 H 0.08134 0.91281 0.57711 0.0
C584 C 0.85733 0.37314 0.8764 0.0
C585 C 0.84467 0.38697 0.86033 0.0
C586 C 0.87625 0.38265 0.889 0.0
C587 C 0.9192 0.43181 0.8907 0.0
H588 H 0.91974 0.41867 0.95742 0.0
C589 C 0.9764 0.48362 0.95803 0.0
C590 C 0.98401 0.47162 0.97821 0.0
C591 C 0.96213 0.47225 0.94143 0.0
C592 C 0.92023 0.42221 0.93876 0.0
H593 H 0.84236 0.42167 0.84476 0.0
H594 H 0.87553 0.43813 0.86661 0.0
H595 H 0.88977 0.40078 0.93279 0.0
H596 H 0.98415 0.43806 0.99609 0.0
H597 H 0.9601 0.41803 0.9669 0.0
H598 H 0.94974 0.45336 0.89679 0.0
C599 C 0.87088 0.41987 0.86928 0.0
C600 C 0.90293 0.41197 0.92463 0.0
C601 C 0.85185 0.4104 0.85675 0.0
C602 C 0.97833 0.44777 0.98078 0.0
C603 C 0.96437 0.43637 0.96413 0.0
C604 C 0.9367 0.44198 0.90487 0.0
C605 C 0.88309 0.40619 0.88579 0.0
C606 C 0.90213 0.41667 0.90046 0.0
C607 C 0.95531 0.44865 0.94469 0.0
C608 C 0.93741 0.43733 0.92912 0.0
H609 H 0.85263 0.35492 0.87927 0.0
H610 H 0.88554 0.37154 0.90133 0.0
H611 H 0.91915 0.43565 0.87208 0.0
H612 H 0.98026 0.50211 0.9558 0.0
H613 H 0.95543 0.48233 0.92676 0.0
C614 C 0.70028 0.63088 0.35015 0.0
C615 C 0.71225 0.65069 0.35899 0.0
C616 C 0.68073 0.62142 0.36183 0.0
C617 C 0.63504 0.63579 0.40526 0.0
H618 H 0.63225 0.56878 0.41659 0.0
C619 C 0.58183 0.59497 0.48042 0.0
C620 C 0.57159 0.57262 0.47802 0.0
C621 C 0.59534 0.6048 0.46246 0.0
C622 C 0.63243 0.58746 0.41318 0.0
H623 H 0.71288 0.67589 0.3873 0.0
H624 H 0.67869 0.65962 0.40739 0.0
H625 H 0.66331 0.5853 0.39195 0.0
H626 H 0.5671 0.54318 0.45464 0.0
H627 H 0.59046 0.56058 0.42282 0.0
H628 H 0.60443 0.63806 0.42675 0.0
C629 C 0.6843 0.65155 0.39126 0.0
C630 C 0.65031 0.59695 0.39911 0.0
C631 C 0.70393 0.66091 0.37969 0.0
C632 C 0.57445 0.5606 0.45684 0.0
C633 C 0.58809 0.57045 0.43876 0.0
C634 C 0.61711 0.62631 0.4192 0.0
C635 C 0.67251 0.63164 0.38254 0.0
C636 C 0.65217 0.62129 0.39547 0.0
C637 C 0.59909 0.5925 0.44157 0.0
C638 C 0.61592 0.60209 0.42387 0.0
H639 H 0.70587 0.62275 0.33405 0.0
H640 H 0.67189 0.60621 0.35453 0.0
H641 H 0.63568 0.65456 0.40239 0.0
H642 H 0.57998 0.60466 0.49656 0.0
H643 H 0.60376 0.62162 0.46547 0.0
C644 C 0.18979 0.3461 0.12914 0.0
C645 C 0.18392 0.33777 0.15166 0.0
C646 C 0.17823 0.36534 0.1193 0.0
C647 C 0.14035 0.41585 0.13441 0.0
H648 H 0.12266 0.41308 0.06876 0.0
C649 C 0.06656 0.47143 0.09341 0.0
C650 C 0.06898 0.47958 0.07025 0.0
C651 C 0.08373 0.45728 0.10363 0.0
C652 C 0.12782 0.41437 0.08701 0.0
H653 H 0.16142 0.34362 0.18161 0.0
H654 H 0.1408 0.37666 0.16421 0.0
H655 H 0.14602 0.38181 0.08593 0.0
H656 H 0.09149 0.4796 0.03975 0.0
H657 H 0.12178 0.45507 0.05772 0.0
H658 H 0.12149 0.44812 0.13556 0.0
C659 C 0.15463 0.36854 0.15426 0.0
C660 C 0.14122 0.39639 0.0969 0.0
C661 C 0.16625 0.34933 0.16413 0.0
C662 C 0.08937 0.47396 0.05778 0.0
C663 C 0.10654 0.45965 0.06797 0.0
C664 C 0.12686 0.43379 0.12453 0.0
C665 C 0.1604 0.37676 0.13166 0.0
C666 C 0.14739 0.3967 0.12082 0.0
C667 C 0.10365 0.45071 0.09085 0.0
C668 C 0.12015 0.43309 0.10079 0.0
H669 H 0.2031 0.33751 0.11887 0.0
H670 H 0.18334 0.37129 0.10197 0.0
H671 H 0.14516 0.41695 0.15275 0.0
H672 H 0.05097 0.47539 0.10341 0.0
H673 H 0.08079 0.45053 0.12118 0.0
C674 C 0.69353 0.19503 0.9109 0.0
C675 C 0.68584 0.20634 0.89028 0.0
C676 C 0.68058 0.17638 0.92063 0.0
C677 C 0.62034 0.15097 0.92035 0.0
H678 H 0.64967 0.09737 0.95016 0.0
C679 C 0.56464 0.07264 0.94948 0.0
C680 C 0.56795 0.06466 0.97258 0.0
C681 C 0.5811 0.08753 0.9389 0.0
C682 C 0.64128 0.11231 0.94201 0.0
H683 H 0.65847 0.20649 0.86364 0.0
H684 H 0.63646 0.17365 0.88005 0.0
H685 H 0.67425 0.12825 0.93255 0.0
H686 H 0.59168 0.06518 1.00239 0.0
H687 H 0.62078 0.09122 0.98372 0.0
H688 H 0.58745 0.13515 0.92965 0.0
C689 C 0.65228 0.17946 0.88902 0.0
C690 C 0.65533 0.13004 0.93196 0.0
C691 C 0.66513 0.19815 0.87939 0.0
C692 C 0.58882 0.0708 0.98445 0.0
C693 C 0.60541 0.08578 0.97379 0.0
C694 C 0.60638 0.13328 0.93021 0.0
C695 C 0.65963 0.16851 0.90995 0.0
C696 C 0.645 0.14954 0.92087 0.0
C697 C 0.60127 0.09495 0.95119 0.0
C698 C 0.61663 0.11365 0.94101 0.0
H699 H 0.70959 0.20058 0.91961 0.0
H700 H 0.68673 0.16851 0.93682 0.0
H701 H 0.61172 0.16597 0.91258 0.0
H702 H 0.54883 0.06804 0.9398 0.0
H703 H 0.57765 0.09385 0.92128 0.0
C704 C 0.85714 0.84756 0.40614 0.0
C705 C 0.86673 0.83564 0.38694 0.0
C706 C 0.86875 0.86699 0.4158 0.0
C707 C 0.91386 0.91247 0.40311 0.0
H708 H 0.9213 0.91472 0.47065 0.0
C709 C 0.98582 0.96787 0.44796 0.0
C710 C 0.98187 0.9773 0.47026 0.0
C711 C 0.96879 0.95385 0.43708 0.0
C712 C 0.919 0.91471 0.4518 0.0
H713 H 0.89619 0.83508 0.36292 0.0
H714 H 0.91621 0.8691 0.37957 0.0
H715 H 0.89745 0.88371 0.45306 0.0
H716 H 0.95673 0.97964 0.4985 0.0
H717 H 0.9265 0.95574 0.47916 0.0
H718 H 0.93557 0.9433 0.40178 0.0
C719 C 0.89956 0.8635 0.38701 0.0
C720 C 0.90538 0.89683 0.4417 0.0
C721 C 0.88805 0.84397 0.37744 0.0
C722 C 0.96009 0.97309 0.4811 0.0
C723 C 0.94294 0.95905 0.47016 0.0
C724 C 0.92735 0.93043 0.41321 0.0
C725 C 0.89015 0.87514 0.40642 0.0
C726 C 0.90303 0.89524 0.41721 0.0
C727 C 0.9473 0.9488 0.44822 0.0
C728 C 0.93053 0.93151 0.43766 0.0
H729 H 0.84055 0.84197 0.41367 0.0
H730 H 0.86087 0.87574 0.43056 0.0
H731 H 0.91204 0.91199 0.38422 0.0
H732 H 1.00247 0.97071 0.43918 0.0
H733 H 0.973 0.94607 0.42039 0.0
C734 C 0.3962 0.71205 0.65191 0.0
C735 C 0.38128 0.70725 0.67096 0.0
C736 C 0.40514 0.69389 0.6384 0.0
C737 C 0.41907 0.63101 0.64084 0.0
H738 H 0.42762 0.6397 0.57395 0.0
C739 C 0.46893 0.564 0.58285 0.0
C740 C 0.48618 0.57463 0.56867 0.0
C741 C 0.45203 0.57775 0.59406 0.0
C742 C 0.42533 0.63696 0.59261 0.0
H743 H 0.36392 0.67945 0.69059 0.0
H744 H 0.37947 0.64764 0.66685 0.0
H745 H 0.40569 0.6685 0.59608 0.0
H746 H 0.49922 0.60766 0.55481 0.0
H747 H 0.46997 0.63147 0.57405 0.0
H748 H 0.43933 0.59973 0.63735 0.0
C749 C 0.38431 0.66553 0.66247 0.0
C750 C 0.41283 0.65352 0.60532 0.0
C751 C 0.37523 0.68377 0.67593 0.0
C752 C 0.48601 0.59902 0.56555 0.0
C753 C 0.46912 0.61264 0.57645 0.0
C754 C 0.43161 0.61439 0.62807 0.0
C755 C 0.39947 0.67037 0.64358 0.0
C756 C 0.41012 0.65114 0.62971 0.0
C757 C 0.45206 0.60228 0.59105 0.0
C758 C 0.43548 0.61756 0.60393 0.0
H759 H 0.40103 0.72992 0.64742 0.0
H760 H 0.41699 0.69829 0.6242 0.0
H761 H 0.41743 0.62867 0.65961 0.0
H762 H 0.46899 0.54525 0.58584 0.0
H763 H 0.43909 0.56925 0.60519 0.0
C764 C 0.96439 0.9026 0.75125 0.0
C765 C 0.96378 0.91495 0.77249 0.0
C766 C 0.97442 0.91278 0.7312 0.0
C767 C 0.98661 0.97043 0.70513 0.0
H768 H 0.02582 0.93658 0.66175 0.0
C769 C 0.02149 0.01724 0.62382 0.0
C770 C 0.01958 0.00508 0.60261 0.0
C771 C 0.0196 0.00538 0.6452 0.0
C772 C 0.01478 0.94623 0.6736 0.0
H773 H 0.97347 0.94761 0.78933 0.0
H774 H 0.99099 0.96532 0.75443 0.0
H775 H 0.0123 0.91737 0.69783 0.0
H776 H 0.01562 0.97081 0.58701 0.0
H777 H 0.01165 0.94997 0.6244 0.0
H778 H 0.98818 0.99894 0.68087 0.0
C779 C 0.98365 0.94778 0.75326 0.0
C780 C 0.00705 0.93522 0.69427 0.0
C781 C 0.97378 0.93756 0.77331 0.0
C782 C 0.01735 0.98057 0.60315 0.0
C783 C 0.01505 0.96866 0.62462 0.0
C784 C 0.99413 0.98133 0.68448 0.0
C785 C 0.98389 0.93562 0.73191 0.0
C786 C 0.99285 0.94723 0.71025 0.0
C787 C 0.01516 0.98109 0.64589 0.0
C788 C 0.00833 0.96944 0.6684 0.0
H789 H 0.95708 0.88505 0.75011 0.0
H790 H 0.97417 0.90302 0.71499 0.0
H791 H 0.9753 0.98002 0.7168 0.0
H792 H 0.02344 0.03615 0.62386 0.0
H793 H 0.02059 0.01545 0.66119 0.0
C794 C 0.56941 0.12057 0.27136 0.0
C795 C 0.58446 0.14017 0.26933 0.0
C796 C 0.55883 0.11077 0.25148 0.0
C797 C 0.54312 0.12206 0.18942 0.0
H798 H 0.54911 0.05484 0.18361 0.0
C799 C 0.53304 0.07234 0.1014 0.0
C800 C 0.52707 0.04847 0.10232 0.0
C801 C 0.53477 0.08533 0.12213 0.0
C802 C 0.54666 0.07355 0.18503 0.0
H803 H 0.5995 0.16535 0.24489 0.0
H804 H 0.58108 0.14815 0.21012 0.0
H805 H 0.5625 0.07394 0.21909 0.0
H806 H 0.51591 0.01993 0.12488 0.0
H807 H 0.51732 0.04277 0.16077 0.0
H808 H 0.52734 0.12165 0.15521 0.0
C809 C 0.57745 0.14041 0.22713 0.0
C810 C 0.55452 0.08453 0.20545 0.0
C811 C 0.58821 0.15009 0.247 0.0
C812 C 0.52063 0.03834 0.12383 0.0
C813 C 0.52181 0.05139 0.1444 0.0
C814 C 0.53498 0.11102 0.169 0.0
C815 C 0.56289 0.12045 0.2291 0.0
C816 C 0.55309 0.10892 0.20782 0.0
C817 C 0.53024 0.07467 0.14405 0.0
C818 C 0.53684 0.08659 0.16643 0.0
H819 H 0.56625 0.11243 0.28827 0.0
H820 H 0.54757 0.09548 0.25359 0.0
H821 H 0.5416 0.14089 0.19083 0.0
H822 H 0.5383 0.08041 0.08497 0.0
H823 H 0.54133 0.10318 0.12105 0.0
C824 C 0.47378 0.63869 0.28858 0.0
C825 C 0.4712 0.62497 0.26831 0.0
C826 C 0.48222 0.62882 0.30947 0.0
C827 C 0.48508 0.57222 0.33977 0.0
H828 H 0.52963 0.60308 0.38133 0.0
C829 C 0.51572 0.52554 0.42285 0.0
C830 C 0.51676 0.53866 0.44353 0.0
C831 C 0.51401 0.53666 0.40109 0.0
C832 C 0.51703 0.59433 0.37001 0.0
H833 H 0.47584 0.59023 0.25405 0.0
H834 H 0.49062 0.57308 0.29043 0.0
H835 H 0.51901 0.62159 0.34395 0.0
H836 H 0.51796 0.57371 0.45774 0.0
H837 H 0.51427 0.59334 0.41959 0.0
H838 H 0.48236 0.54538 0.36578 0.0
C839 C 0.48602 0.59144 0.29018 0.0
C840 C 0.51099 0.60492 0.34859 0.0
C841 C 0.47775 0.60132 0.26928 0.0
C842 C 0.51727 0.56322 0.442 0.0
C843 C 0.5152 0.57442 0.42013 0.0
C844 C 0.49094 0.56177 0.36114 0.0
C845 C 0.48806 0.60499 0.3106 0.0
C846 C 0.495 0.5939 0.33321 0.0
C847 C 0.51276 0.56121 0.39947 0.0
C848 C 0.50709 0.57257 0.37654 0.0
H849 H 0.46915 0.65704 0.28832 0.0
H850 H 0.48346 0.63968 0.32493 0.0
H851 H 0.47232 0.56353 0.32858 0.0
H852 H 0.51561 0.50657 0.42355 0.0
H853 H 0.51296 0.52591 0.38555 0.0
C854 C 0.092 0.42474 0.78639 0.0
C855 C 0.09061 0.43782 0.76544 0.0
C856 C 0.08005 0.43191 0.80646 0.0
C857 C 0.0595 0.48556 0.83346 0.0
H858 H 0.02734 0.4443 0.87737 0.0
C859 C 0.02465 0.52341 0.91825 0.0
C860 C 0.02903 0.51047 0.93875 0.0
C861 C 0.02623 0.5129 0.89631 0.0
C862 C 0.03638 0.45604 0.86538 0.0
H863 H 0.07499 0.46833 0.74904 0.0
H864 H 0.05416 0.48079 0.784 0.0
H865 H 0.04197 0.42871 0.84038 0.0
H866 H 0.03697 0.47611 0.95266 0.0
H867 H 0.04076 0.45779 0.91428 0.0
H868 H 0.0552 0.51262 0.8585 0.0
C869 C 0.06454 0.46501 0.7849 0.0
C870 C 0.0447 0.4471 0.84416 0.0
C871 C 0.07633 0.45776 0.76482 0.0
C872 C 0.03341 0.48641 0.93705 0.0
C873 C 0.03554 0.47594 0.91501 0.0
C874 C 0.05148 0.49441 0.85466 0.0
C875 C 0.06662 0.45243 0.80607 0.0
C876 C 0.05644 0.46178 0.82803 0.0
C877 C 0.03299 0.48936 0.89431 0.0
C878 C 0.03986 0.47982 0.87102 0.0
H879 H 0.10267 0.40916 0.78737 0.0
H880 H 0.08211 0.42192 0.82253 0.0
H881 H 0.06889 0.49724 0.82165 0.0
H882 H 0.02102 0.54198 0.91916 0.0
H883 H 0.02325 0.52361 0.88087 0.0
C884 C 0.75436 0.96384 0.90419 0.0
C885 C 0.77471 0.95935 0.91754 0.0
C886 C 0.7343 0.97306 0.9147 0.0
C887 C 0.7061 0.97769 0.9726 0.0
H888 H 0.66628 0.02342 0.94186 0.0
C889 C 0.62825 0.01554 0.02138 0.0
C890 C 0.60665 0.01575 0.00938 0.0
C891 C 0.64924 0.01247 0.00929 0.0
C892 C 0.67716 0.01055 0.95059 0.0
H893 H 0.7902 0.96199 0.95222 0.0
H894 H 0.75536 0.97809 0.97051 0.0
H895 H 0.70209 0.01025 0.92248 0.0
H896 H 0.59016 0.01431 0.97512 0.0
H897 H 0.62698 0.00869 0.95384 0.0
H898 H 0.68126 0.97763 1.00052 0.0
C899 C 0.75469 0.97403 0.95201 0.0
C900 C 0.69766 1.00298 0.93949 0.0
C901 C 0.77468 0.96478 0.94153 0.0
C902 C 0.60659 0.01436 0.9848 0.0
C903 C 0.62768 0.01112 0.97263 0.0
C904 C 0.68574 0.98523 0.98365 0.0
C905 C 0.73413 0.97804 0.93881 0.0
C906 C 0.71241 0.98648 0.95042 0.0
C907 C 0.64915 0.00923 0.98489 0.0
C908 C 0.67103 1.00182 0.97288 0.0
H909 H 0.75371 0.95965 0.88571 0.0
H910 H 0.71872 0.97565 0.90406 0.0
H911 H 0.71669 0.96456 0.98131 0.0
H912 H 0.62886 0.01683 0.04031 0.0
H913 H 0.6655 0.01176 0.01921 0.0
C914 C 0.7897 0.10432 0.43017 0.0
C915 C 0.77667 0.09234 0.41291 0.0
C916 C 0.80945 0.09415 0.44054 0.0
C917 C 0.85337 0.04691 0.43318 0.0
H918 H 0.8649 0.05954 0.49887 0.0
C919 C 0.94298 0.03073 0.47964 0.0
C920 C 0.94297 0.02713 0.504 0.0
C921 C 0.92176 0.03421 0.46754 0.0
C922 C 0.86186 0.05537 0.48062 0.0
H923 H 0.77466 0.06021 0.39285 0.0
H924 H 0.80863 0.04214 0.41156 0.0
H925 H 0.82984 0.07452 0.48023 0.0
H926 H 0.92096 0.02198 0.53446 0.0
H927 H 0.884 0.02666 0.51333 0.0
H928 H 0.88528 0.02723 0.43385 0.0
C929 C 0.80375 0.05961 0.41681 0.0
C930 C 0.84185 0.06442 0.46977 0.0
C931 C 0.78403 0.06987 0.4063 0.0
C932 C 0.92141 0.02497 0.51569 0.0
C933 C 0.90026 0.02795 0.50358 0.0
C934 C 0.87339 0.03764 0.44413 0.0
C935 C 0.81668 0.07158 0.43416 0.0
C936 C 0.83747 0.06067 0.44582 0.0
C937 C 0.90016 0.03385 0.47958 0.0
C938 C 0.87803 0.04195 0.46798 0.0
H939 H 0.78448 0.1215 0.43598 0.0
H940 H 0.81915 0.10413 0.45352 0.0
H941 H 0.85068 0.04374 0.41466 0.0
H942 H 0.95943 0.0326 0.47026 0.0
H943 H 0.9225 0.03872 0.4491 0.0
C944 C 0.27092 0.55838 0.13111 0.0
C945 C 0.27912 0.58105 0.12535 0.0
C946 C 0.2506 0.54916 0.12051 0.0
C947 C 0.21197 0.55788 0.06855 0.0
H948 H 0.16682 0.52078 0.10395 0.0
C949 C 0.12863 0.5253 0.02319 0.0
C950 C 0.10762 0.52798 0.03559 0.0
C951 C 0.15026 0.52636 0.0348 0.0
C952 C 0.1792 0.53117 0.09382 0.0
H953 H 0.27229 0.61164 0.10368 0.0
H954 H 0.23662 0.59605 0.08602 0.0
H955 H 0.20283 0.53472 0.123 0.0
H956 H 0.09247 0.53248 0.06996 0.0
H957 H 0.13031 0.53533 0.09029 0.0
H958 H 0.18806 0.55563 0.03982 0.0
C959 C 0.24607 0.58513 0.09839 0.0
C960 C 0.2 0.53896 0.10468 0.0
C961 C 0.2664 0.59426 0.10883 0.0
C962 C 0.10849 0.53026 0.06005 0.0
C963 C 0.13021 0.53183 0.07167 0.0
C964 C 0.19119 0.55033 0.0578 0.0
C965 C 0.23797 0.5624 0.10392 0.0
C966 C 0.21649 0.55273 0.09225 0.0
C967 C 0.15141 0.53086 0.05901 0.0
C968 C 0.17437 0.53704 0.0703 0.0
H969 H 0.28008 0.54779 0.14396 0.0
H970 H 0.24499 0.53154 0.12509 0.0
H971 H 0.22442 0.56803 0.05825 0.0
H972 H 0.12835 0.52328 1.00432 0.0
H973 H 0.16612 0.52469 0.02456 0.0
C974 C 0.27551 0.46803 0.58117 0.0
C975 C 0.26793 0.46274 0.60405 0.0
C976 C 0.29642 0.48054 0.57737 0.0
C977 C 0.35324 0.49211 0.60641 0.0
H978 H 0.36438 0.52911 0.55023 0.0
C979 C 0.4414 0.49393 0.55984 0.0
C980 C 0.44905 0.51388 0.54751 0.0
C981 C 0.4198 0.49368 0.57124 0.0
C982 C 0.36157 0.51925 0.56628 0.0
H983 H 0.27592 0.46763 0.64091 0.0
H984 H 0.31209 0.49 0.63429 0.0
H985 H 0.32422 0.51877 0.56132 0.0
H986 H 0.4406 0.54946 0.53768 0.0
H987 H 0.40238 0.54917 0.55784 0.0
H988 H 0.39057 0.49231 0.61119 0.0
C989 C 0.30207 0.48404 0.61925 0.0
C990 C 0.33853 0.51302 0.57247 0.0
C991 C 0.28116 0.47141 0.62305 0.0
C992 C 0.43508 0.53398 0.54735 0.0
C993 C 0.41322 0.53371 0.55872 0.0
C994 C 0.37622 0.49843 0.6003 0.0
C995 C 0.31028 0.48827 0.59635 0.0
C996 C 0.33413 0.49859 0.59212 0.0
C997 C 0.40514 0.51333 0.5704 0.0
C998 C 0.38075 0.51126 0.57964 0.0
H999 H 0.26554 0.46202 0.56611 0.0
H1000 H 0.30219 0.48319 0.55948 0.0
H1001 H 0.35066 0.48093 0.62161 0.0
H1002 H 0.45183 0.47815 0.55994 0.0
H1003 H 0.41407 0.47754 0.57963 0.0
C1004 C 0.91151 0.7632 0.98173 0.0
C1005 C 0.91822 0.77169 0.95948 0.0
C1006 C 0.92214 0.74334 0.99148 0.0
C1007 C 0.97546 0.70671 0.98569 0.0
H1008 H 0.93926 0.66074 0.02099 0.0
C1009 C 0.02126 0.62559 0.02107 0.0
C1010 C 0.00942 0.60419 0.01779 0.0
C1011 C 0.0092 0.6467 0.01936 0.0
C1012 C 0.94963 0.67335 0.01111 0.0
H1013 H 0.94162 0.76581 0.93022 0.0
H1014 H 0.95934 0.7309 0.94667 0.0
H1015 H 0.92007 0.6958 0.00583 0.0
H1016 H 0.97547 0.58783 0.01166 0.0
H1017 H 0.95439 0.62472 0.00772 0.0
H1018 H 1.00464 0.68395 0.98966 0.0
C1019 C 0.9462 0.7398 0.95688 0.0
C1020 C 0.93867 0.69362 1.00263 0.0
C1021 C 0.93573 0.7597 0.94723 0.0
C1022 C 0.98496 0.60415 0.01438 0.0
C1023 C 0.97291 0.62535 0.01216 0.0
C1024 C 0.98631 0.68645 0.99394 0.0
C1025 C 0.9397 0.73142 0.97921 0.0
C1026 C 0.9514 0.71042 0.98951 0.0
C1027 C 0.9851 0.64693 0.0136 0.0
C1028 C 0.97357 0.66934 0.00662 0.0
H1029 H 0.89789 0.77177 0.99158 0.0
H1030 H 0.91679 0.73753 0.00877 0.0
H1031 H 0.98599 0.71941 0.97609 0.0
H1032 H 0.04011 0.62604 0.02394 0.0
H1033 H 0.01906 0.66288 0.02146 0.0
C1034 C 0.42639 0.77038 0.05543 0.0
C1035 C 0.43007 0.76311 0.0788 0.0
C1036 C 0.43669 0.79117 0.04695 0.0
C1037 C 0.48527 0.83279 0.0598 0.0
H1038 H 0.44853 0.87843 0.0252 0.0
C1039 C 0.5082 0.92928 0.06162 0.0
C1040 C 0.51033 0.94173 0.0404 0.0
C1041 C 0.49849 0.90684 0.06214 0.0
C1042 C 0.45909 0.86565 0.03445 0.0
H1043 H 0.44691 0.77249 0.11167 0.0
H1044 H 0.46489 0.80837 0.09692 0.0
H1045 H 0.43148 0.83969 0.03417 0.0
H1046 H 0.50417 0.94021 1.00301 0.0
H1047 H 0.48598 0.90081 1.00401 0.0
H1048 H 0.51245 0.85892 0.061 0.0
C1049 C 0.45446 0.79782 0.08498 0.0
C1050 C 0.44937 0.84352 0.03961 0.0
C1051 C 0.44415 0.77718 0.09345 0.0
C1052 C 0.502 0.93135 0.01966 0.0
C1053 C 0.49191 0.90875 0.02021 0.0
C1054 C 0.49488 0.8548 0.05475 0.0
C1055 C 0.45097 0.80503 0.06162 0.0
C1056 C 0.46211 0.82716 0.05305 0.0
C1057 C 0.49056 0.89617 0.04147 0.0
C1058 C 0.48164 0.87171 0.04272 0.0
H1059 H 0.41581 0.75986 0.0436 0.0
H1060 H 0.43377 0.79621 0.02884 0.0
H1061 H 0.49577 0.82039 0.06964 0.0
H1062 H 0.51428 0.93685 0.07796 0.0
H1063 H 0.49731 0.89771 0.07882 0.0
C1064 C 0.09104 0.27152 0.57482 0.0
C1065 C 0.11333 0.27499 0.58506 0.0
C1066 C 0.08577 0.25095 0.56264 0.0
C1067 C 0.10385 0.18929 0.55927 0.0
H1068 H 0.05991 0.18809 0.50711 0.0
C1069 C 0.06619 0.10196 0.52493 0.0
C1070 C 0.0415 0.10172 0.52455 0.0
C1071 C 0.07862 0.12327 0.52612 0.0
C1072 C 0.07231 0.18814 0.52158 0.0
H1073 H 0.14792 0.25997 0.58951 0.0
H1074 H 0.13878 0.22408 0.56814 0.0
H1075 H 0.07501 0.22558 0.52142 0.0
H1076 H 0.0105 0.1234 0.52347 0.0
H1077 H 0.032 0.16039 0.52538 0.0
H1078 H 0.10057 0.15192 0.55991 0.0
C1079 C 0.12522 0.23711 0.5699 0.0
C1080 C 0.08087 0.20962 0.52987 0.0
C1081 C 0.13046 0.25768 0.58216 0.0
C1082 C 0.02954 0.1231 0.52375 0.0
C1083 C 0.0419 0.14431 0.5247 0.0
C1084 C 0.09535 0.16782 0.55092 0.0
C1085 C 0.10268 0.23331 0.56029 0.0
C1086 C 0.0962 0.2105 0.54928 0.0
C1087 C 0.06654 0.14466 0.52677 0.0
C1088 C 0.07892 0.16702 0.53245 0.0
H1089 H 0.07732 0.28433 0.57699 0.0
H1090 H 0.0681 0.2485 0.55586 0.0
H1091 H 0.11543 0.18925 0.57439 0.0
H1092 H 0.07582 0.08571 0.52578 0.0
H1093 H 0.09762 0.12299 0.52749 0.0
C1094 C 0.61916 0.2828 0.46909 0.0
C1095 C 0.64172 0.28235 0.45916 0.0
C1096 C 0.61097 0.30302 0.47992 0.0
C1097 C 0.6207 0.36721 0.48167 0.0
H1098 H 0.57855 0.3627 0.53478 0.0
C1099 C 0.57554 0.44905 0.51881 0.0
C1100 C 0.55097 0.44633 0.5195 0.0
C1101 C 0.58993 0.42938 0.51658 0.0
C1102 C 0.59039 0.36426 0.52002 0.0
H1103 H 0.6736 0.30271 0.45341 0.0
H1104 H 0.6594 0.33796 0.47244 0.0
H1105 H 0.59742 0.32751 0.52024 0.0
H1106 H 0.52229 0.42108 0.52017 0.0
H1107 H 0.54722 0.38694 0.51672 0.0
H1108 H 0.61324 0.40391 0.4812 0.0
C1109 C 0.64784 0.32279 0.4715 0.0
C1110 C 0.6011 0.34407 0.51158 0.0
C1111 C 0.65599 0.30258 0.46056 0.0
C1112 C 0.54118 0.42365 0.51964 0.0
C1113 C 0.5555 0.40408 0.51778 0.0
C1114 C 0.61009 0.38743 0.49022 0.0
C1115 C 0.62516 0.32333 0.48123 0.0
C1116 C 0.61589 0.34517 0.49188 0.0
C1117 C 0.57996 0.40672 0.51538 0.0
C1118 C 0.59433 0.38608 0.50909 0.0
H1119 H 0.60758 0.26765 0.46804 0.0
H1120 H 0.59324 0.30288 0.48676 0.0
H1121 H 0.63178 0.36876 0.46635 0.0
H1122 H 0.5835 0.46637 0.51854 0.0
H1123 H 0.60875 0.43194 0.51497 0.0
loop_
_geom_bond_atom_site_label_1
_geom_bond_atom_site_label_2
_geom_bond_distance
_geom_bond_site_symmetry_2
_ccdc_geom_bond_type
C0 C1 1.264 . S
C0 C5 1.479 . S
C0 C10 1.465 . S
C1 C0 1.264 . S
C1 C3 1.339 . S
C1 H28 0.931 . S
C2 C3 1.395 . S
C2 C4 1.320 . S
C3 C1 1.339 . S
C3 C2 1.395 . S
C3 H29 0.929 . S
C4 C2 1.320 . S
C4 C5 1.405 . S
C4 H30 0.930 . S
C5 C0 1.479 . S
C5 C4 1.405 . S
C5 H31 0.931 . S
U6 O7 2.454 . S
U6 O8 2.458 . S
U6 C9 2.984 . S
U6 C10 2.847 . S
U6 C23 2.882 . S
U6 O24 2.441 . S
U6 O25 2.420 . S
U6 O26 2.455 . S
U6 O27 2.449 . S
O7 U6 2.454 . S
O7 C9 1.353 . S
O8 U6 2.458 . S
O8 C9 1.286 . S
C9 U6 2.984 . S
C9 O7 1.353 . S
C9 O8 1.286 . S
C9 C11 1.363 . S
C10 C0 1.465 . S
C10 U6 2.847 . S
C10 O24 1.249 . S
C10 O25 1.202 . S
C11 C9 1.363 . S
C11 C13 1.408 . S
C11 C16 1.342 . S
C12 C13 1.310 . S
C12 C15 1.461 . S
C12 H32 0.932 . S
C13 C11 1.408 . S
C13 C12 1.310 . S
C13 H33 0.930 . S
C14 C15 1.474 . S
C14 C16 1.285 . S
C14 H34 0.929 . S
C15 C12 1.461 . S
C15 C14 1.474 . S
C16 C11 1.342 . S
C16 C14 1.285 . S
C16 H35 0.930 . S
C17 C20 1.424 . S
C17 C22 1.245 . S
C17 C23 1.428 . S
C18 C21 1.260 . S
C18 C22 1.477 . S
C18 H36 0.932 . S
C19 C20 1.384 . S
C19 C21 1.479 . S
C19 H37 0.929 . S
C20 C17 1.424 . S
C20 C19 1.384 . S
C20 H38 0.928 . S
C21 C18 1.260 . S
C21 C19 1.479 . S
C22 C17 1.245 . S
C22 C18 1.477 . S
C22 H39 0.932 . S
C23 U6 2.882 . S
C23 C17 1.428 . S
C23 O26 1.301 . S
C23 O27 1.282 . S
O24 U6 2.441 . S
O24 C10 1.249 . S
O25 U6 2.420 . S
O25 C10 1.202 . S
O26 U6 2.455 . S
O26 C23 1.301 . S
O27 U6 2.449 . S
O27 C23 1.282 . S
H28 C1 0.931 . S
H29 C3 0.929 . S
H30 C4 0.930 . S
H31 C5 0.931 . S
H32 C12 0.932 . S
H33 C13 0.930 . S
H34 C14 0.929 . S
H35 C16 0.930 . S
H36 C18 0.932 . S
H37 C19 0.929 . S
H38 C20 0.928 . S
H39 C22 0.932 . S
C40 C41 1.264 . S
C40 C45 1.479 . S
C40 C50 1.465 . S
C41 C40 1.264 . S
C41 C43 1.339 . S
C41 H68 0.931 . S
C42 C43 1.395 . S
C42 C44 1.320 . S
C43 C41 1.339 . S
C43 C42 1.395 . S
C43 H69 0.929 . S
C44 C42 1.320 . S
C44 C45 1.405 . S
C44 H70 0.930 . S
C45 C40 1.479 . S
C45 C44 1.405 . S
C45 H71 0.931 . S
U46 O47 2.454 . S
U46 O48 2.458 . S
U46 C49 2.984 . S
U46 C50 2.847 . S
U46 C63 2.882 . S
U46 O64 2.441 . S
U46 O65 2.420 . S
U46 O66 2.455 . S
U46 O67 2.449 . S
O47 U46 2.454 . S
O47 C49 1.353 . S
O48 U46 2.458 . S
O48 C49 1.286 . S
C49 U46 2.984 . S
C49 O47 1.353 . S
C49 O48 1.286 . S
C49 C51 1.363 . S
C50 C40 1.465 . S
C50 U46 2.847 . S
C50 O64 1.249 . S
C50 O65 1.202 . S
C51 C49 1.363 . S
C51 C53 1.408 . S
C51 C56 1.342 . S
C52 C53 1.310 . S
C52 C55 1.461 . S
C52 H72 0.932 . S
C53 C51 1.408 . S
C53 C52 1.310 . S
C53 H73 0.930 . S
C54 C55 1.474 . S
C54 C56 1.285 . S
C54 H74 0.929 . S
C55 C52 1.461 . S
C55 C54 1.474 . S
C56 C51 1.342 . S
C56 C54 1.285 . S
C56 H75 0.930 . S
C57 C60 1.424 . S
C57 C62 1.245 . S
C57 C63 1.428 . S
C58 C61 1.260 . S
C58 C62 1.477 . S
C58 H76 0.932 . S
C59 C60 1.384 . S
C59 C61 1.479 . S
C59 H77 0.929 . S
C60 C57 1.424 . S
C60 C59 1.384 . S
C60 H78 0.928 . S
C61 C58 1.260 . S
C61 C59 1.479 . S
C62 C57 1.245 . S
C62 C58 1.477 . S
C62 H79 0.932 . S
C63 U46 2.882 . S
C63 C57 1.428 . S
C63 O66 1.301 . S
C63 O67 1.282 . S
O64 U46 2.441 . S
O64 C50 1.249 . S
O65 U46 2.420 . S
O65 C50 1.202 . S
O66 U46 2.455 . S
O66 C63 1.301 . S
O67 U46 2.449 . S
O67 C63 1.282 . S
H68 C41 0.931 . S
H69 C43 0.929 . S
H70 C44 0.930 . S
H71 C45 0.931 . S
H72 C52 0.932 . S
H73 C53 0.930 . S
H74 C54 0.929 . S
H75 C56 0.930 . S
H76 C58 0.932 . S
H77 C59 0.929 . S
H78 C60 0.928 . S
H79 C62 0.932 . S
C80 C81 1.264 . S
C80 C85 1.479 . S
C80 C90 1.465 . S
C81 C80 1.264 . S
C81 C83 1.339 . S
C81 H108 0.931 . S
C82 C83 1.395 . S
C82 C84 1.320 . S
C83 C81 1.339 . S
C83 C82 1.395 . S
C83 H109 0.929 . S
C84 C82 1.320 . S
C84 C85 1.405 . S
C84 H110 0.930 . S
C85 C80 1.479 . S
C85 C84 1.405 . S
C85 H111 0.931 . S
U86 O87 2.454 . S
U86 O88 2.458 . S
U86 C89 2.984 . S
U86 C90 2.847 . S
U86 C103 2.882 . S
U86 O104 2.441 . S
U86 O105 2.420 . S
U86 O106 2.455 . S
U86 O107 2.449 . S
O87 U86 2.454 . S
O87 C89 1.353 . S
O88 U86 2.458 . S
O88 C89 1.286 . S
C89 U86 2.984 . S
C89 O87 1.353 . S
C89 O88 1.286 . S
C89 C91 1.363 . S
C90 C80 1.465 . S
C90 U86 2.847 . S
C90 O104 1.249 . S
C90 O105 1.202 . S
C91 C89 1.363 . S
C91 C93 1.408 . S
C91 C96 1.342 . S
C92 C93 1.310 . S
C92 C95 1.461 . S
C92 H112 0.932 . S
C93 C91 1.408 . S
C93 C92 1.310 . S
C93 H113 0.930 . S
C94 C95 1.474 . S
C94 C96 1.285 . S
C94 H114 0.929 . S
C95 C92 1.461 . S
C95 C94 1.474 . S
C96 C91 1.342 . S
C96 C94 1.285 . S
C96 H115 0.930 . S
C97 C100 1.424 . S
C97 C102 1.245 . S
C97 C103 1.428 . S
C98 C101 1.260 . S
C98 C102 1.477 . S
C98 H116 0.932 . S
C99 C100 1.384 . S
C99 C101 1.479 . S
C99 H117 0.929 . S
C100 C97 1.424 . S
C100 C99 1.384 . S
C100 H118 0.928 . S
C101 C98 1.260 . S
C101 C99 1.479 . S
C102 C97 1.245 . S
C102 C98 1.477 . S
C102 H119 0.932 . S
C103 U86 2.882 . S
C103 C97 1.428 . S
C103 O106 1.301 . S
C103 O107 1.282 . S
O104 U86 2.441 . S
O104 C90 1.249 . S
O105 U86 2.420 . S
O105 C90 1.202 . S
O106 U86 2.455 . S
O106 C103 1.301 . S
O107 U86 2.449 . S
O107 C103 1.282 . S
H108 C81 0.931 . S
H109 C83 0.929 . S
H110 C84 0.930 . S
H111 C85 0.931 . S
H112 C92 0.932 . S
H113 C93 0.930 . S
H114 C94 0.929 . S
H115 C96 0.930 . S
H116 C98 0.932 . S
H117 C99 0.929 . S
H118 C100 0.928 . S
H119 C102 0.932 . S
C120 C121 1.264 . S
C120 C125 1.479 . S
C120 C130 1.465 . S
C121 C120 1.264 . S
C121 C123 1.339 . S
C121 H148 0.931 . S
C122 C123 1.395 . S
C122 C124 1.320 . S
C123 C121 1.339 . S
C123 C122 1.395 . S
C123 H149 0.929 . S
C124 C122 1.320 . S
C124 C125 1.405 . S
C124 H150 0.930 . S
C125 C120 1.479 . S
C125 C124 1.405 . S
C125 H151 0.931 . S
U126 O127 2.454 . S
U126 O128 2.458 . S
U126 C129 2.984 . S
U126 C130 2.847 . S
U126 C143 2.882 . S
U126 O144 2.441 . S
U126 O145 2.420 . S
U126 O146 2.455 . S
U126 O147 2.449 . S
O127 U126 2.454 . S
O127 C129 1.353 . S
O128 U126 2.458 . S
O128 C129 1.286 . S
C129 U126 2.984 . S
C129 O127 1.353 . S
C129 O128 1.286 . S
C129 C131 1.363 . S
C130 C120 1.465 . S
C130 U126 2.847 . S
C130 O144 1.249 . S
C130 O145 1.202 . S
C131 C129 1.363 . S
C131 C133 1.408 . S
C131 C136 1.342 . S
C132 C133 1.310 . S
C132 C135 1.461 . S
C132 H152 0.932 . S
C133 C131 1.408 . S
C133 C132 1.310 . S
C133 H153 0.930 . S
C134 C135 1.474 . S
C134 C136 1.285 . S
C134 H154 0.929 . S
C135 C132 1.461 . S
C135 C134 1.474 . S
C136 C131 1.342 . S
C136 C134 1.285 . S
C136 H155 0.930 . S
C137 C140 1.424 . S
C137 C142 1.245 . S
C137 C143 1.428 . S
C138 C141 1.260 . S
C138 C142 1.477 . S
C138 H156 0.932 . S
C139 C140 1.384 . S
C139 C141 1.479 . S
C139 H157 0.929 . S
C140 C137 1.424 . S
C140 C139 1.384 . S
C140 H158 0.928 . S
C141 C138 1.260 . S
C141 C139 1.479 . S
C142 C137 1.245 . S
C142 C138 1.477 . S
C142 H159 0.932 . S
C143 U126 2.882 . S
C143 C137 1.428 . S
C143 O146 1.301 . S
C143 O147 1.282 . S
O144 U126 2.441 . S
O144 C130 1.249 . S
O145 U126 2.420 . S
O145 C130 1.202 . S
O146 U126 2.455 . S
O146 C143 1.301 . S
O147 U126 2.449 . S
O147 C143 1.282 . S
H148 C121 0.931 . S
H149 C123 0.929 . S
H150 C124 0.930 . S
H151 C125 0.931 . S
H152 C132 0.932 . S
H153 C133 0.930 . S
H154 C134 0.929 . S
H155 C136 0.930 . S
H156 C138 0.932 . S
H157 C139 0.929 . S
H158 C140 0.928 . S
H159 C142 0.932 . S
C160 C161 1.264 . S
C160 C165 1.479 . S
C160 C170 1.465 . S
C161 C160 1.264 . S
C161 C163 1.339 . S
C161 H188 0.931 . S
C162 C163 1.395 . S
C162 C164 1.320 . S
C163 C161 1.339 . S
C163 C162 1.395 . S
C163 H189 0.929 1_655 S
C164 C162 1.320 . S
C164 C165 1.405 . S
C164 H190 0.930 . S
C165 C160 1.479 . S
C165 C164 1.405 . S
C165 H191 0.931 . S
U166 O167 2.454 . S
U166 O168 2.458 . S
U166 C169 2.984 . S
U166 C170 2.847 . S
U166 C183 2.882 . S
U166 O184 2.441 . S
U166 O185 2.420 . S
U166 O186 2.455 . S
U166 O187 2.449 . S
O167 U166 2.454 . S
O167 C169 1.353 . S
O168 U166 2.458 . S
O168 C169 1.286 . S
C169 U166 2.984 . S
C169 O167 1.353 . S
C169 O168 1.286 . S
C169 C171 1.363 . S
C170 C160 1.465 . S
C170 U166 2.847 . S
C170 O184 1.249 . S
C170 O185 1.202 . S
C171 C169 1.363 . S
C171 C173 1.408 . S
C171 C176 1.342 . S
C172 C173 1.310 . S
C172 C175 1.461 . S
C172 H192 0.932 1_556 S
C173 C171 1.408 . S
C173 C172 1.310 . S
C173 H193 0.930 . S
C174 C175 1.474 . S
C174 C176 1.285 . S
C174 H194 0.899 1_565 S
C175 C172 1.461 . S
C175 C174 1.474 . S
C176 C171 1.342 . S
C176 C174 1.285 . S
C176 H195 0.930 . S
C177 C180 1.424 . S
C177 C182 1.245 . S
C177 C183 1.428 . S
C178 C181 1.260 . S
C178 C182 1.477 . S
C178 H196 0.932 . S
C179 C180 1.384 . S
C179 C181 1.479 . S
C179 H197 0.929 . S
C180 C177 1.424 . S
C180 C179 1.384 . S
C180 H198 0.928 . S
C181 C178 1.260 . S
C181 C179 1.479 . S
C182 C177 1.245 . S
C182 C178 1.477 . S
C182 H199 0.932 . S
C183 U166 2.882 . S
C183 C177 1.428 . S
C183 O186 1.301 . S
C183 O187 1.282 . S
O184 U166 2.441 . S
O184 C170 1.249 . S
O185 U166 2.420 . S
O185 C170 1.202 . S
O186 U166 2.455 . S
O186 C183 1.301 . S
O187 U166 2.449 . S
O187 C183 1.282 . S
H188 C161 0.931 . S
H189 C163 0.929 1_455 S
H190 C164 0.930 . S
H191 C165 0.931 . S
H192 C172 0.932 1_554 S
H193 C173 0.930 . S
H194 C174 0.899 1_545 S
H195 C176 0.930 . S
H196 C178 0.932 . S
H197 C179 0.929 . S
H198 C180 0.928 . S
H199 C182 0.932 . S
C200 C201 1.264 . S
C200 C205 1.479 . S
C200 C210 1.465 . S
C201 C200 1.264 . S
C201 C203 1.339 . S
C201 H228 0.931 . S
C202 C203 1.395 . S
C202 C204 1.320 . S
C203 C201 1.339 . S
C203 C202 1.395 . S
C203 H229 0.929 . S
C204 C202 1.320 . S
C204 C205 1.405 . S
C204 H230 0.930 . S
C205 C200 1.479 . S
C205 C204 1.405 . S
C205 H231 0.931 . S
U206 O207 2.454 . S
U206 O208 2.458 . S
U206 C209 2.984 . S
U206 C210 2.847 . S
U206 C223 2.882 . S
U206 O224 2.441 . S
U206 O225 2.420 . S
U206 O226 2.455 . S
U206 O227 2.449 . S
O207 U206 2.454 . S
O207 C209 1.353 . S
O208 U206 2.458 . S
O208 C209 1.286 . S
C209 U206 2.984 . S
C209 O207 1.353 . S
C209 O208 1.286 . S
C209 C211 1.363 . S
C210 C200 1.465 . S
C210 U206 2.847 . S
C210 O224 1.249 . S
C210 O225 1.202 . S
C211 C209 1.363 . S
C211 C213 1.408 . S
C211 C216 1.342 . S
C212 C213 1.310 . S
C212 C215 1.461 . S
C212 H232 0.932 . S
C213 C211 1.408 . S
C213 C212 1.310 . S
C213 H233 0.930 . S
C214 C215 1.474 . S
C214 C216 1.285 . S
C214 H234 0.929 . S
C215 C212 1.461 . S
C215 C214 1.474 . S
C216 C211 1.342 . S
C216 C214 1.285 . S
C216 H235 0.930 . S
C217 C220 1.424 . S
C217 C222 1.245 . S
C217 C223 1.428 . S
C218 C221 1.260 . S
C218 C222 1.477 . S
C218 H236 0.932 . S
C219 C220 1.384 . S
C219 C221 1.479 . S
C219 H237 0.929 . S
C220 C217 1.424 . S
C220 C219 1.384 . S
C220 H238 0.928 . S
C221 C218 1.260 . S
C221 C219 1.479 . S
C222 C217 1.245 . S
C222 C218 1.477 . S
C222 H239 0.932 . S
C223 U206 2.882 . S
C223 C217 1.428 . S
C223 O226 1.301 . S
C223 O227 1.282 . S
O224 U206 2.441 . S
O224 C210 1.249 . S
O225 U206 2.420 . S
O225 C210 1.202 . S
O226 U206 2.455 . S
O226 C223 1.301 . S
O227 U206 2.449 . S
O227 C223 1.282 . S
H228 C201 0.931 . S
H229 C203 0.929 . S
H230 C204 0.930 . S
H231 C205 0.931 . S
H232 C212 0.932 . S
H233 C213 0.930 . S
H234 C214 0.929 . S
H235 C216 0.930 . S
H236 C218 0.932 . S
H237 C219 0.929 . S
H238 C220 0.928 . S
H239 C222 0.932 . S
C240 C241 1.264 . S
C240 C245 1.479 . S
C240 C250 1.465 . S
C241 C240 1.264 . S
C241 C243 1.339 . S
C241 H268 0.931 . S
C242 C243 1.395 . S
C242 C244 1.320 . S
C243 C241 1.339 . S
C243 C242 1.395 . S
C243 H269 0.929 . S
C244 C242 1.320 . S
C244 C245 1.405 . S
C244 H270 0.930 . S
C245 C240 1.479 . S
C245 C244 1.405 . S
C245 H271 0.931 . S
U246 O247 2.454 . S
U246 O248 2.458 . S
U246 C249 2.984 . S
U246 C250 2.847 . S
U246 C263 2.882 . S
U246 O264 2.441 . S
U246 O265 2.420 . S
U246 O266 2.455 . S
U246 O267 2.449 . S
O247 U246 2.454 . S
O247 C249 1.353 . S
O248 U246 2.458 . S
O248 C249 1.286 . S
C249 U246 2.984 . S
C249 O247 1.353 . S
C249 O248 1.286 . S
C249 C251 1.363 . S
C250 C240 1.465 . S
C250 U246 2.847 . S
C250 O264 1.249 . S
C250 O265 1.202 . S
C251 C249 1.363 . S
C251 C253 1.408 . S
C251 C256 1.342 . S
C252 C253 1.310 . S
C252 C255 1.461 . S
C252 H272 0.932 . S
C253 C251 1.408 . S
C253 C252 1.310 . S
C253 H273 0.930 . S
C254 C255 1.474 . S
C254 C256 1.285 . S
C254 H274 0.929 . S
C255 C252 1.461 . S
C255 C254 1.474 . S
C256 C251 1.342 . S
C256 C254 1.285 . S
C256 H275 0.930 . S
C257 C260 1.424 . S
C257 C262 1.245 . S
C257 C263 1.428 . S
C258 C261 1.260 . S
C258 C262 1.477 . S
C258 H276 0.932 . S
C259 C260 1.384 . S
C259 C261 1.479 . S
C259 H277 0.929 . S
C260 C257 1.424 . S
C260 C259 1.384 . S
C260 H278 0.928 . S
C261 C258 1.260 . S
C261 C259 1.479 . S
C262 C257 1.245 . S
C262 C258 1.477 . S
C262 H279 0.932 . S
C263 U246 2.882 . S
C263 C257 1.428 . S
C263 O266 1.301 . S
C263 O267 1.282 . S
O264 U246 2.441 . S
O264 C250 1.249 . S
O265 U246 2.420 . S
O265 C250 1.202 . S
O266 U246 2.455 . S
O266 C263 1.301 . S
O267 U246 2.449 . S
O267 C263 1.282 . S
H268 C241 0.931 . S
H269 C243 0.929 . S
H270 C244 0.930 . S
H271 C245 0.931 . S
H272 C252 0.932 . S
H273 C253 0.930 . S
H274 C254 0.929 . S
H275 C256 0.930 . S
H276 C258 0.932 . S
H277 C259 0.929 . S
H278 C260 0.928 . S
H279 C262 0.932 . S
C280 C281 1.264 . S
C280 C285 1.479 . S
C280 C290 1.465 . S
C281 C280 1.264 . S
C281 C283 1.339 . S
C281 H308 0.931 . S
C282 C283 1.395 . S
C282 C284 1.320 . S
C283 C281 1.339 . S
C283 C282 1.395 . S
C283 H309 0.929 . S
C284 C282 1.320 . S
C284 C285 1.405 . S
C284 H310 0.930 . S
C285 C280 1.479 . S
C285 C284 1.405 . S
C285 H311 0.931 . S
U286 O287 2.454 . S
U286 O288 2.458 . S
U286 C289 2.984 . S
U286 C290 2.847 . S
U286 C303 2.882 . S
U286 O304 2.441 . S
U286 O305 2.420 . S
U286 O306 2.455 . S
U286 O307 2.449 . S
O287 U286 2.454 . S
O287 C289 1.353 . S
O288 U286 2.458 . S
O288 C289 1.286 . S
C289 U286 2.984 . S
C289 O287 1.353 . S
C289 O288 1.286 . S
C289 C291 1.363 . S
C290 C280 1.465 . S
C290 U286 2.847 . S
C290 O304 1.249 . S
C290 O305 1.202 . S
C291 C289 1.363 . S
C291 C293 1.408 . S
C291 C296 1.342 . S
C292 C293 1.310 . S
C292 C295 1.461 . S
C292 H312 0.932 . S
C293 C291 1.408 . S
C293 C292 1.310 . S
C293 H313 0.930 . S
C294 C295 1.474 . S
C294 C296 1.285 . S
C294 H314 0.929 . S
C295 C292 1.461 . S
C295 C294 1.474 . S
C296 C291 1.342 . S
C296 C294 1.285 . S
C296 H315 0.930 . S
C297 C300 1.424 . S
C297 C302 1.245 . S
C297 C303 1.428 . S
C298 C301 1.260 . S
C298 C302 1.477 . S
C298 H316 0.932 . S
C299 C300 1.384 . S
C299 C301 1.479 . S
C299 H317 0.929 . S
C300 C297 1.424 . S
C300 C299 1.384 . S
C300 H318 0.928 . S
C301 C298 1.260 . S
C301 C299 1.479 . S
C302 C297 1.245 . S
C302 C298 1.477 . S
C302 H319 0.932 . S
C303 U286 2.882 . S
C303 C297 1.428 . S
C303 O306 1.301 . S
C303 O307 1.282 . S
O304 U286 2.441 . S
O304 C290 1.249 . S
O305 U286 2.420 . S
O305 C290 1.202 . S
O306 U286 2.455 . S
O306 C303 1.301 . S
O307 U286 2.449 . S
O307 C303 1.282 . S
H308 C281 0.931 . S
H309 C283 0.929 . S
H310 C284 0.930 . S
H311 C285 0.931 . S
H312 C292 0.932 . S
H313 C293 0.930 . S
H314 C294 0.929 . S
H315 C296 0.930 . S
H316 C298 0.932 . S
H317 C299 0.929 . S
H318 C300 0.928 . S
H319 C302 0.932 . S
Zn320 O326 1.920 . S
Zn320 O332 1.898 . S
Zn320 O335 1.905 . S
Zn321 O329 1.905 1_565 S
Zn321 O330 1.898 . S
Zn321 O338 1.920 . S
Zn322 O325 2.080 1_455 S
Zn322 O328 2.114 . S
Zn322 O331 2.120 1_445 S
Zn322 O333 2.120 . S
Zn322 O334 2.114 1_455 S
Zn322 O337 2.080 . S
C323 O328 1.166 . S
C323 O329 1.182 . S
C324 O330 1.167 1_655 S
C324 O331 1.299 . S
O325 Zn322 2.080 1_655 S
O325 C339 1.305 . S
O326 Zn320 1.920 . S
O326 C339 1.234 . S
C327 O332 1.167 1_455 S
C327 O333 1.299 . S
O328 Zn322 2.114 . S
O328 C323 1.166 . S
O329 Zn321 1.905 1_545 S
O329 C323 1.182 . S
O330 Zn321 1.898 . S
O330 C324 1.167 1_455 S
O331 Zn322 2.120 1_665 S
O331 C324 1.299 . S
O332 Zn320 1.898 . S
O332 C327 1.167 1_655 S
O333 Zn322 2.120 . S
O333 C327 1.299 . S
O334 Zn322 2.114 1_655 S
O334 C336 1.166 . S
O335 Zn320 1.905 . S
O335 C336 1.182 . S
C336 O334 1.166 . S
C336 O335 1.182 . S
O337 Zn322 2.080 . S
O337 C340 1.305 . S
O338 Zn321 1.920 . S
O338 C340 1.234 1_565 S
C339 O325 1.305 . S
C339 O326 1.234 . S
C340 O337 1.305 . S
C340 O338 1.234 1_545 S
Zn341 O347 1.920 1_556 S
Zn341 O353 1.898 . S
Zn341 O356 1.905 . S
Zn342 O350 1.905 . S
Zn342 O351 1.898 . S
Zn342 O359 1.920 . S
Zn343 O346 2.080 . S
Zn343 O349 2.114 1_545 S
Zn343 O352 2.120 1_545 S
Zn343 O354 2.120 . S
Zn343 O355 2.114 1_544 S
Zn343 O358 2.080 . S
C344 O349 1.166 . S
C344 O350 1.182 . S
C345 O351 1.167 . S
C345 O352 1.299 . S
O346 Zn343 2.080 . S
O346 C360 1.305 . S
O347 Zn341 1.920 1_554 S
O347 C360 1.234 . S
C348 O353 1.167 . S
C348 O354 1.299 1_556 S
O349 Zn343 2.114 1_565 S
O349 C344 1.166 . S
O350 Zn342 1.905 . S
O350 C344 1.182 . S
O351 Zn342 1.898 . S
O351 C345 1.167 . S
O352 Zn343 2.120 1_565 S
O352 C345 1.299 . S
O353 Zn341 1.898 . S
O353 C348 1.167 . S
O354 Zn343 2.120 . S
O354 C348 1.299 1_554 S
O355 Zn343 2.114 1_566 S
O355 C357 1.166 . S
O356 Zn341 1.905 . S
O356 C357 1.182 1_545 S
C357 O355 1.166 . S
C357 O356 1.182 1_565 S
O358 Zn343 2.080 . S
O358 C361 1.305 . S
O359 Zn342 1.920 . S
O359 C361 1.234 1_565 S
C360 O346 1.305 . S
C360 O347 1.234 . S
C361 O358 1.305 . S
C361 O359 1.234 1_545 S
Zn362 O368 1.920 . S
Zn362 O374 1.898 . S
Zn362 O377 1.905 . S
Zn363 O371 1.905 . S
Zn363 O372 1.898 . S
Zn363 O380 1.920 . S
Zn364 O367 2.080 . S
Zn364 O370 2.114 . S
Zn364 O373 2.120 . S
Zn364 O375 2.120 . S
Zn364 O376 2.114 . S
Zn364 O379 2.080 . S
C365 O370 1.166 . S
C365 O371 1.182 . S
C366 O372 1.167 . S
C366 O373 1.299 . S
O367 Zn364 2.080 . S
O367 C381 1.305 . S
O368 Zn362 1.920 . S
O368 C381 1.234 . S
C369 O374 1.167 . S
C369 O375 1.299 . S
O370 Zn364 2.114 . S
O370 C365 1.166 . S
O371 Zn363 1.905 . S
O371 C365 1.182 . S
O372 Zn363 1.898 . S
O372 C366 1.167 . S
O373 Zn364 2.120 . S
O373 C366 1.299 . S
O374 Zn362 1.898 . S
O374 C369 1.167 . S
O375 Zn364 2.120 . S
O375 C369 1.299 . S
O376 Zn364 2.114 . S
O376 C378 1.166 . S
O377 Zn362 1.905 . S
O377 C378 1.182 . S
C378 O376 1.166 . S
C378 O377 1.182 . S
O379 Zn364 2.080 . S
O379 C382 1.305 . S
O380 Zn363 1.920 . S
O380 C382 1.234 . S
C381 O367 1.305 . S
C381 O368 1.234 . S
C382 O379 1.305 . S
C382 O380 1.234 . S
Zn383 O389 1.920 . S
Zn383 O395 1.898 . S
Zn383 O398 1.905 . S
Zn384 O392 1.905 1_655 S
Zn384 O393 1.898 . S
Zn384 O401 1.920 . S
Zn385 O388 2.080 1_554 S
Zn385 O391 2.114 . S
Zn385 O394 2.086 1_454 S
Zn385 O396 2.120 . S
Zn385 O397 2.114 1_554 S
Zn385 O400 2.080 . S
C386 O391 1.166 . S
C386 O392 1.182 . S
C387 O393 1.167 1_556 S
C387 O394 1.317 . S
O388 Zn385 2.080 1_556 S
O388 C402 1.305 . S
O389 Zn383 1.920 . S
O389 C402 1.234 . S
C390 O395 1.167 1_554 S
C390 O396 1.299 . S
O391 Zn385 2.114 . S
O391 C386 1.166 . S
O392 Zn384 1.905 1_455 S
O392 C386 1.182 . S
O393 Zn384 1.898 . S
O393 C387 1.167 1_554 S
O394 Zn385 2.086 1_656 S
O394 C387 1.317 . S
O395 Zn383 1.898 . S
O395 C390 1.167 1_556 S
O396 Zn385 2.120 . S
O396 C390 1.299 . S
O397 Zn385 2.114 1_556 S
O397 C399 1.166 . S
O398 Zn383 1.905 . S
O398 C399 1.182 . S
C399 O397 1.166 . S
C399 O398 1.182 . S
O400 Zn385 2.080 . S
O400 C403 1.305 . S
O401 Zn384 1.920 . S
O401 C403 1.234 1_655 S
C402 O388 1.305 . S
C402 O389 1.234 . S
C403 O400 1.305 . S
C403 O401 1.234 1_455 S
C404 C405 1.349 . S
C404 C406 1.327 . S
C404 H429 0.950 . S
C405 C404 1.349 . S
C405 C421 1.349 . S
C406 C404 1.327 . S
C406 C425 1.429 . S
C406 H430 0.950 . S
C407 C424 1.574 . S
C407 C426 1.368 . S
C407 H431 0.949 . S
H408 C412 0.949 . S
C409 C410 1.349 . S
C409 C411 1.327 . S
C409 H432 0.950 . S
C410 C409 1.349 . S
C410 C422 1.349 . S
C411 C409 1.327 . S
C411 C427 1.429 . S
C411 H433 0.950 . S
C412 H408 0.949 . S
C412 C420 1.574 . S
C412 C428 1.368 . S
H413 C421 0.950 . S
H414 C419 0.950 . S
H415 C420 0.949 . S
H416 C422 0.950 . S
H417 C423 0.950 . S
H418 C424 0.949 . S
C419 H414 0.950 . S
C419 C421 1.327 . S
C419 C425 1.429 . S
C420 C412 1.574 . S
C420 H415 0.949 . S
C420 C426 1.368 . S
C421 C405 1.349 . S
C421 H413 0.950 . S
C421 C419 1.327 . S
C422 C410 1.349 . S
C422 H416 0.950 . S
C422 C423 1.327 . S
C423 H417 0.950 . S
C423 C422 1.327 . S
C423 C427 1.429 . S
C424 C407 1.574 . S
C424 H418 0.949 . S
C424 C428 1.368 . S
C425 C406 1.429 . S
C425 C419 1.429 . S
C425 C426 1.523 . S
C426 C407 1.368 . S
C426 C420 1.368 . S
C426 C425 1.523 . S
C427 C411 1.429 . S
C427 C423 1.429 . S
C427 C428 1.523 . S
C428 C412 1.368 . S
C428 C424 1.368 . S
C428 C427 1.523 . S
H429 C404 0.950 . S
H430 C406 0.950 . S
H431 C407 0.949 . S
H432 C409 0.950 . S
H433 C411 0.950 . S
C434 C435 1.349 . S
C434 C436 1.327 . S
C434 H459 0.950 . S
C435 C434 1.349 . S
C435 C451 1.349 . S
C436 C434 1.327 . S
C436 C455 1.429 . S
C436 H460 0.950 . S
C437 C454 1.574 . S
C437 C456 1.368 . S
C437 H461 0.949 . S
H438 C442 0.949 . S
C439 C440 1.349 . S
C439 C441 1.327 . S
C439 H462 0.950 . S
C440 C439 1.349 . S
C440 C452 1.349 . S
C441 C439 1.327 . S
C441 C457 1.429 . S
C441 H463 0.950 . S
C442 H438 0.949 . S
C442 C450 1.574 . S
C442 C458 1.368 . S
H443 C451 0.950 . S
H444 C449 0.950 . S
H445 C450 0.949 . S
H446 C452 0.946 1_545 S
H447 C453 0.950 . S
H448 C454 0.949 . S
C449 H444 0.950 . S
C449 C451 1.327 . S
C449 C455 1.429 . S
C450 C442 1.574 . S
C450 H445 0.949 . S
C450 C456 1.368 . S
C451 C435 1.349 . S
C451 H443 0.950 . S
C451 C449 1.327 . S
C452 C440 1.349 . S
C452 H446 0.946 1_565 S
C452 C453 1.327 . S
C453 H447 0.950 . S
C453 C452 1.327 . S
C453 C457 1.429 . S
C454 C437 1.574 . S
C454 H448 0.949 . S
C454 C458 1.368 . S
C455 C436 1.429 . S
C455 C449 1.429 . S
C455 C456 1.523 . S
C456 C437 1.368 . S
C456 C450 1.368 . S
C456 C455 1.523 . S
C457 C441 1.429 . S
C457 C453 1.429 . S
C457 C458 1.523 . S
C458 C442 1.368 . S
C458 C454 1.368 . S
C458 C457 1.523 . S
H459 C434 0.950 . S
H460 C436 0.950 . S
H461 C437 0.949 . S
H462 C439 0.950 . S
H463 C441 0.950 . S
C464 C465 1.349 . S
C464 C466 1.327 . S
C464 H489 0.950 . S
C465 C464 1.349 . S
C465 C481 1.349 . S
C466 C464 1.327 . S
C466 C485 1.429 . S
C466 H490 0.950 . S
C467 C484 1.574 . S
C467 C486 1.368 . S
C467 H491 0.949 . S
H468 C472 0.949 . S
C469 C470 1.349 . S
C469 C471 1.327 . S
C469 H492 0.950 . S
C470 C469 1.349 . S
C470 C482 1.349 . S
C471 C469 1.327 . S
C471 C487 1.429 . S
C471 H493 0.950 . S
C472 H468 0.949 . S
C472 C480 1.574 . S
C472 C488 1.368 . S
H473 C481 0.950 . S
H474 C479 0.950 . S
H475 C480 0.949 . S
H476 C482 0.950 . S
H477 C483 0.950 . S
H478 C484 0.949 . S
C479 H474 0.950 . S
C479 C481 1.327 . S
C479 C485 1.429 . S
C480 C472 1.574 . S
C480 H475 0.949 . S
C480 C486 1.368 . S
C481 C465 1.349 . S
C481 H473 0.950 . S
C481 C479 1.327 . S
C482 C470 1.349 . S
C482 H476 0.950 . S
C482 C483 1.327 . S
C483 H477 0.950 . S
C483 C482 1.327 . S
C483 C487 1.429 . S
C484 C467 1.574 . S
C484 H478 0.949 . S
C484 C488 1.368 . S
C485 C466 1.429 . S
C485 C479 1.429 . S
C485 C486 1.523 . S
C486 C467 1.368 . S
C486 C480 1.368 . S
C486 C485 1.523 . S
C487 C471 1.429 . S
C487 C483 1.429 . S
C487 C488 1.523 . S
C488 C472 1.368 . S
C488 C484 1.368 . S
C488 C487 1.523 . S
H489 C464 0.950 . S
H490 C466 0.950 . S
H491 C467 0.949 . S
H492 C469 0.950 . S
H493 C471 0.950 . S
C494 C495 1.349 . S
C494 C496 1.327 . S
C494 H519 0.950 . S
C495 C494 1.349 . S
C495 C511 1.349 . S
C496 C494 1.327 . S
C496 C515 1.429 . S
C496 H520 0.950 . S
C497 C514 1.574 . S
C497 C516 1.368 . S
C497 H521 0.949 . S
H498 C502 0.949 . S
C499 C500 1.349 . S
C499 C501 1.327 . S
C499 H522 0.950 . S
C500 C499 1.349 . S
C500 C512 1.349 1_655 S
C501 C499 1.327 . S
C501 C517 1.429 . S
C501 H523 0.950 . S
C502 H498 0.949 . S
C502 C510 1.574 . S
C502 C518 1.368 . S
H503 C511 0.950 . S
H504 C509 0.950 . S
H505 C510 0.949 . S
H506 C512 0.950 . S
H507 C513 0.950 . S
H508 C514 0.949 . S
C509 H504 0.950 . S
C509 C511 1.327 . S
C509 C515 1.429 . S
C510 C502 1.574 . S
C510 H505 0.949 . S
C510 C516 1.368 . S
C511 C495 1.349 . S
C511 H503 0.950 . S
C511 C509 1.327 . S
C512 C500 1.349 1_455 S
C512 H506 0.950 . S
C512 C513 1.327 . S
C513 H507 0.950 . S
C513 C512 1.327 . S
C513 C517 1.429 1_455 S
C514 C497 1.574 . S
C514 H508 0.949 . S
C514 C518 1.368 . S
C515 C496 1.429 . S
C515 C509 1.429 . S
C515 C516 1.523 . S
C516 C497 1.368 . S
C516 C510 1.368 . S
C516 C515 1.523 . S
C517 C501 1.429 . S
C517 C513 1.429 1_655 S
C517 C518 1.523 . S
C518 C502 1.368 . S
C518 C514 1.368 . S
C518 C517 1.523 . S
H519 C494 0.950 . S
H520 C496 0.950 . S
H521 C497 0.949 . S
H522 C499 0.950 . S
H523 C501 0.950 . S
C524 C525 1.349 . S
C524 C526 1.327 . S
C524 H549 0.950 . S
C525 C524 1.349 . S
C525 C541 1.349 . S
C526 C524 1.327 . S
C526 C545 1.429 . S
C526 H550 0.950 . S
C527 C544 1.574 . S
C527 C546 1.368 . S
C527 H551 0.949 . S
H528 C532 0.949 . S
C529 C530 1.349 . S
C529 C531 1.327 . S
C529 H552 0.950 . S
C530 C529 1.349 . S
C530 C542 1.349 . S
C531 C529 1.327 . S
C531 C547 1.429 . S
C531 H553 0.950 . S
C532 H528 0.949 . S
C532 C540 1.574 . S
C532 C548 1.368 . S
H533 C541 0.950 . S
H534 C539 0.950 . S
H535 C540 0.949 . S
H536 C542 0.950 . S
H537 C543 0.950 . S
H538 C544 0.949 . S
C539 H534 0.950 . S
C539 C541 1.327 . S
C539 C545 1.429 . S
C540 C532 1.574 . S
C540 H535 0.949 . S
C540 C546 1.368 . S
C541 C525 1.349 . S
C541 H533 0.950 . S
C541 C539 1.327 . S
C542 C530 1.349 . S
C542 H536 0.950 . S
C542 C543 1.327 . S
C543 H537 0.950 . S
C543 C542 1.327 . S
C543 C547 1.429 . S
C544 C527 1.574 . S
C544 H538 0.949 . S
C544 C548 1.368 . S
C545 C526 1.429 . S
C545 C539 1.429 . S
C545 C546 1.523 . S
C546 C527 1.368 . S
C546 C540 1.368 . S
C546 C545 1.523 . S
C547 C531 1.429 . S
C547 C543 1.429 . S
C547 C548 1.523 . S
C548 C532 1.368 . S
C548 C544 1.368 . S
C548 C547 1.523 . S
H549 C524 0.950 . S
H550 C526 0.950 . S
H551 C527 0.949 . S
H552 C529 0.950 . S
H553 C531 0.950 . S
C554 C555 1.349 . S
C554 C556 1.327 . S
C554 H579 0.950 . S
C555 C554 1.349 . S
C555 C571 1.349 . S
C556 C554 1.327 . S
C556 C575 1.429 . S
C556 H580 0.950 . S
C557 C574 1.574 . S
C557 C576 1.368 . S
C557 H581 0.949 . S
H558 C562 0.949 . S
C559 C560 1.349 . S
C559 C561 1.327 . S
C559 H582 0.950 . S
C560 C559 1.349 . S
C560 C572 1.349 1_565 S
C561 C559 1.327 . S
C561 C577 1.429 . S
C561 H583 0.950 . S
C562 H558 0.949 . S
C562 C570 1.574 . S
C562 C578 1.368 . S
H563 C571 0.950 . S
H564 C569 0.950 . S
H565 C570 0.949 . S
H566 C572 0.950 . S
H567 C573 0.950 1_545 S
H568 C574 0.949 . S
C569 H564 0.950 . S
C569 C571 1.327 . S
C569 C575 1.429 . S
C570 C562 1.574 . S
C570 H565 0.949 . S
C570 C576 1.368 . S
C571 C555 1.349 . S
C571 H563 0.950 . S
C571 C569 1.327 . S
C572 C560 1.349 1_545 S
C572 H566 0.950 . S
C572 C573 1.327 1_545 S
C573 H567 0.950 1_565 S
C573 C572 1.327 1_565 S
C573 C577 1.429 . S
C574 C557 1.574 . S
C574 H568 0.949 . S
C574 C578 1.368 . S
C575 C556 1.429 . S
C575 C569 1.429 . S
C575 C576 1.523 . S
C576 C557 1.368 . S
C576 C570 1.368 . S
C576 C575 1.523 . S
C577 C561 1.429 . S
C577 C573 1.429 . S
C577 C578 1.523 . S
C578 C562 1.368 . S
C578 C574 1.368 . S
C578 C577 1.523 . S
H579 C554 0.950 . S
H580 C556 0.950 . S
H581 C557 0.949 . S
H582 C559 0.950 . S
H583 C561 0.950 . S
C584 C585 1.349 . S
C584 C586 1.327 . S
C584 H609 0.950 . S
C585 C584 1.349 . S
C585 C601 1.349 . S
C586 C584 1.327 . S
C586 C605 1.429 . S
C586 H610 0.950 . S
C587 C604 1.574 . S
C587 C606 1.368 . S
C587 H611 0.949 . S
H588 C592 0.949 . S
C589 C590 1.349 . S
C589 C591 1.327 . S
C589 H612 0.950 . S
C590 C589 1.349 . S
C590 C602 1.349 . S
C591 C589 1.327 . S
C591 C607 1.429 . S
C591 H613 0.950 . S
C592 H588 0.949 . S
C592 C600 1.574 . S
C592 C608 1.368 . S
H593 C601 0.950 . S
H594 C599 0.950 . S
H595 C600 0.949 . S
H596 C602 0.950 . S
H597 C603 0.950 . S
H598 C604 0.949 . S
C599 H594 0.950 . S
C599 C601 1.327 . S
C599 C605 1.429 . S
C600 C592 1.574 . S
C600 H595 0.949 . S
C600 C606 1.368 . S
C601 C585 1.349 . S
C601 H593 0.950 . S
C601 C599 1.327 . S
C602 C590 1.349 . S
C602 H596 0.950 . S
C602 C603 1.327 . S
C603 H597 0.950 . S
C603 C602 1.327 . S
C603 C607 1.429 . S
C604 C587 1.574 . S
C604 H598 0.949 . S
C604 C608 1.368 . S
C605 C586 1.429 . S
C605 C599 1.429 . S
C605 C606 1.523 . S
C606 C587 1.368 . S
C606 C600 1.368 . S
C606 C605 1.523 . S
C607 C591 1.429 . S
C607 C603 1.429 . S
C607 C608 1.523 . S
C608 C592 1.368 . S
C608 C604 1.368 . S
C608 C607 1.523 . S
H609 C584 0.950 . S
H610 C586 0.950 . S
H611 C587 0.949 . S
H612 C589 0.950 . S
H613 C591 0.950 . S
C614 C615 1.349 . S
C614 C616 1.327 . S
C614 H639 0.950 . S
C615 C614 1.349 . S
C615 C631 1.349 . S
C616 C614 1.327 . S
C616 C635 1.429 . S
C616 H640 0.950 . S
C617 C634 1.574 . S
C617 C636 1.368 . S
C617 H641 0.949 . S
H618 C622 0.949 . S
C619 C620 1.349 . S
C619 C621 1.327 . S
C619 H642 0.950 . S
C620 C619 1.349 . S
C620 C632 1.349 . S
C621 C619 1.327 . S
C621 C637 1.429 . S
C621 H643 0.950 . S
C622 H618 0.949 . S
C622 C630 1.574 . S
C622 C638 1.368 . S
H623 C631 0.950 . S
H624 C629 0.950 . S
H625 C630 0.949 . S
H626 C632 0.950 . S
H627 C633 0.950 . S
H628 C634 0.949 . S
C629 H624 0.950 . S
C629 C631 1.327 . S
C629 C635 1.429 . S
C630 C622 1.574 . S
C630 H625 0.949 . S
C630 C636 1.368 . S
C631 C615 1.349 . S
C631 H623 0.950 . S
C631 C629 1.327 . S
C632 C620 1.349 . S
C632 H626 0.950 . S
C632 C633 1.327 . S
C633 H627 0.950 . S
C633 C632 1.327 . S
C633 C637 1.429 . S
C634 C617 1.574 . S
C634 H628 0.949 . S
C634 C638 1.368 . S
C635 C616 1.429 . S
C635 C629 1.429 . S
C635 C636 1.523 . S
C636 C617 1.368 . S
C636 C630 1.368 . S
C636 C635 1.523 . S
C637 C621 1.429 . S
C637 C633 1.429 . S
C637 C638 1.523 . S
C638 C622 1.368 . S
C638 C634 1.368 . S
C638 C637 1.523 . S
H639 C614 0.950 . S
H640 C616 0.950 . S
H641 C617 0.949 . S
H642 C619 0.950 . S
H643 C621 0.950 . S
C644 C645 1.349 . S
C644 C646 1.327 . S
C644 H669 0.950 . S
C645 C644 1.349 . S
C645 C661 1.349 . S
C646 C644 1.327 . S
C646 C665 1.429 . S
C646 H670 0.950 . S
C647 C664 1.574 . S
C647 C666 1.368 . S
C647 H671 0.949 . S
H648 C652 0.949 . S
C649 C650 1.349 . S
C649 C651 1.327 . S
C649 H672 0.950 . S
C650 C649 1.349 . S
C650 C662 1.349 . S
C651 C649 1.327 . S
C651 C667 1.429 . S
C651 H673 0.950 . S
C652 H648 0.949 . S
C652 C660 1.574 . S
C652 C668 1.368 . S
H653 C661 0.950 . S
H654 C659 0.950 . S
H655 C660 0.949 . S
H656 C662 0.950 . S
H657 C663 0.950 . S
H658 C664 0.949 . S
C659 H654 0.950 . S
C659 C661 1.327 . S
C659 C665 1.429 . S
C660 C652 1.574 . S
C660 H655 0.949 . S
C660 C666 1.368 . S
C661 C645 1.349 . S
C661 H653 0.950 . S
C661 C659 1.327 . S
C662 C650 1.349 . S
C662 H656 0.950 . S
C662 C663 1.327 . S
C663 H657 0.950 . S
C663 C662 1.327 . S
C663 C667 1.429 . S
C664 C647 1.574 . S
C664 H658 0.949 . S
C664 C668 1.368 . S
C665 C646 1.429 . S
C665 C659 1.429 . S
C665 C666 1.523 . S
C666 C647 1.368 . S
C666 C660 1.368 . S
C666 C665 1.523 . S
C667 C651 1.429 . S
C667 C663 1.429 . S
C667 C668 1.523 . S
C668 C652 1.368 . S
C668 C664 1.368 . S
C668 C667 1.523 . S
H669 C644 0.950 . S
H670 C646 0.950 . S
H671 C647 0.949 . S
H672 C649 0.950 . S
H673 C651 0.950 . S
C674 C675 1.349 . S
C674 C676 1.327 . S
C674 H699 0.950 . S
C675 C674 1.349 . S
C675 C691 1.349 . S
C676 C674 1.327 . S
C676 C695 1.429 . S
C676 H700 0.950 . S
C677 C694 1.574 . S
C677 C696 1.368 . S
C677 H701 0.949 . S
H678 C682 0.949 . S
C679 C680 1.349 . S
C679 C681 1.327 . S
C679 H702 0.950 . S
C680 C679 1.349 . S
C680 C692 1.349 . S
C681 C679 1.327 . S
C681 C697 1.429 . S
C681 H703 0.950 . S
C682 H678 0.949 . S
C682 C690 1.574 . S
C682 C698 1.368 . S
H683 C691 0.950 . S
H684 C689 0.950 . S
H685 C690 0.949 . S
H686 C692 0.950 . S
H687 C693 0.950 . S
H688 C694 0.949 . S
C689 H684 0.950 . S
C689 C691 1.327 . S
C689 C695 1.429 . S
C690 C682 1.574 . S
C690 H685 0.949 . S
C690 C696 1.368 . S
C691 C675 1.349 . S
C691 H683 0.950 . S
C691 C689 1.327 . S
C692 C680 1.349 . S
C692 H686 0.950 . S
C692 C693 1.327 . S
C693 H687 0.950 . S
C693 C692 1.327 . S
C693 C697 1.429 . S
C694 C677 1.574 . S
C694 H688 0.949 . S
C694 C698 1.368 . S
C695 C676 1.429 . S
C695 C689 1.429 . S
C695 C696 1.523 . S
C696 C677 1.368 . S
C696 C690 1.368 . S
C696 C695 1.523 . S
C697 C681 1.429 . S
C697 C693 1.429 . S
C697 C698 1.523 . S
C698 C682 1.368 . S
C698 C694 1.368 . S
C698 C697 1.523 . S
H699 C674 0.950 . S
H700 C676 0.950 . S
H701 C677 0.949 . S
H702 C679 0.950 . S
H703 C681 0.950 . S
C704 C705 1.349 . S
C704 C706 1.327 . S
C704 H729 0.950 . S
C705 C704 1.349 . S
C705 C721 1.349 . S
C706 C704 1.327 . S
C706 C725 1.429 . S
C706 H730 0.950 . S
C707 C724 1.574 . S
C707 C726 1.368 . S
C707 H731 0.949 . S
H708 C712 0.949 . S
C709 C710 1.349 . S
C709 C711 1.327 . S
C709 H732 0.950 1_655 S
C710 C709 1.349 . S
C710 C722 1.349 . S
C711 C709 1.327 . S
C711 C727 1.429 . S
C711 H733 0.950 . S
C712 H708 0.949 . S
C712 C720 1.574 . S
C712 C728 1.368 . S
H713 C721 0.950 . S
H714 C719 0.950 . S
H715 C720 0.949 . S
H716 C722 0.950 . S
H717 C723 0.950 . S
H718 C724 0.949 . S
C719 H714 0.950 . S
C719 C721 1.327 . S
C719 C725 1.429 . S
C720 C712 1.574 . S
C720 H715 0.949 . S
C720 C726 1.368 . S
C721 C705 1.349 . S
C721 H713 0.950 . S
C721 C719 1.327 . S
C722 C710 1.349 . S
C722 H716 0.950 . S
C722 C723 1.327 . S
C723 H717 0.950 . S
C723 C722 1.327 . S
C723 C727 1.429 . S
C724 C707 1.574 . S
C724 H718 0.949 . S
C724 C728 1.368 . S
C725 C706 1.429 . S
C725 C719 1.429 . S
C725 C726 1.523 . S
C726 C707 1.368 . S
C726 C720 1.368 . S
C726 C725 1.523 . S
C727 C711 1.429 . S
C727 C723 1.429 . S
C727 C728 1.523 . S
C728 C712 1.368 . S
C728 C724 1.368 . S
C728 C727 1.523 . S
H729 C704 0.950 . S
H730 C706 0.950 . S
H731 C707 0.949 . S
H732 C709 0.950 1_455 S
H733 C711 0.950 . S
C734 C735 1.349 . S
C734 C736 1.327 . S
C734 H759 0.950 . S
C735 C734 1.349 . S
C735 C751 1.349 . S
C736 C734 1.327 . S
C736 C755 1.429 . S
C736 H760 0.950 . S
C737 C754 1.574 . S
C737 C756 1.368 . S
C737 H761 0.949 . S
H738 C742 0.949 . S
C739 C740 1.349 . S
C739 C741 1.327 . S
C739 H762 0.950 . S
C740 C739 1.349 . S
C740 C752 1.349 . S
C741 C739 1.327 . S
C741 C757 1.429 . S
C741 H763 0.950 . S
C742 H738 0.949 . S
C742 C750 1.574 . S
C742 C758 1.368 . S
H743 C751 0.950 . S
H744 C749 0.950 . S
H745 C750 0.949 . S
H746 C752 0.950 . S
H747 C753 0.950 . S
H748 C754 0.949 . S
C749 H744 0.950 . S
C749 C751 1.327 . S
C749 C755 1.429 . S
C750 C742 1.574 . S
C750 H745 0.949 . S
C750 C756 1.368 . S
C751 C735 1.349 . S
C751 H743 0.950 . S
C751 C749 1.327 . S
C752 C740 1.349 . S
C752 H746 0.950 . S
C752 C753 1.327 . S
C753 H747 0.950 . S
C753 C752 1.327 . S
C753 C757 1.429 . S
C754 C737 1.574 . S
C754 H748 0.949 . S
C754 C758 1.368 . S
C755 C736 1.429 . S
C755 C749 1.429 . S
C755 C756 1.523 . S
C756 C737 1.368 . S
C756 C750 1.368 . S
C756 C755 1.523 . S
C757 C741 1.429 . S
C757 C753 1.429 . S
C757 C758 1.523 . S
C758 C742 1.368 . S
C758 C754 1.368 . S
C758 C757 1.523 . S
H759 C734 0.950 . S
H760 C736 0.950 . S
H761 C737 0.949 . S
H762 C739 0.950 . S
H763 C741 0.950 . S
C764 C765 1.349 . S
C764 C766 1.327 . S
C764 H789 0.950 . S
C765 C764 1.349 . S
C765 C781 1.349 1_565 S
C766 C764 1.327 . S
C766 C785 1.429 . S
C766 H790 0.950 . S
C767 C784 1.574 . S
C767 C786 1.382 1_455 S
C767 H791 0.949 . S
H768 C772 0.949 . S
C769 C770 1.349 1_455 S
C769 C771 1.327 . S
C769 H792 0.950 . S
C770 C769 1.349 1_655 S
C770 C782 1.331 1_545 S
C771 C769 1.327 . S
C771 C787 1.429 1_455 S
C771 H793 0.950 . S
C772 H768 0.949 . S
C772 C780 1.574 . S
C772 C788 1.368 1_565 S
H773 C781 0.950 1_455 S
H774 C779 0.967 . S
H775 C780 0.949 . S
H776 C782 0.965 . S
H777 C783 0.950 . S
H778 C784 0.949 . S
C779 H774 0.967 . S
C779 C781 1.325 1_455 S
C779 C785 1.414 1_445 S
C780 C772 1.574 . S
C780 H775 0.949 . S
C780 C786 1.357 1_565 S
C781 C765 1.349 1_545 S
C781 H773 0.950 1_655 S
C781 C779 1.325 1_655 S
C782 C770 1.331 1_565 S
C782 H776 0.965 . S
C782 C783 1.331 . S
C783 H777 0.950 . S
C783 C782 1.331 . S
C783 C787 1.429 1_565 S
C784 C767 1.574 . S
C784 H778 0.949 . S
C784 C788 1.368 1_455 S
C785 C766 1.429 . S
C785 C779 1.414 1_665 S
C785 C786 1.521 1_565 S
C786 C767 1.382 1_655 S
C786 C780 1.357 1_545 S
C786 C785 1.521 1_545 S
C787 C771 1.429 1_655 S
C787 C783 1.429 1_545 S
C787 C788 1.523 . S
C788 C772 1.368 1_545 S
C788 C784 1.368 1_655 S
C788 C787 1.523 . S
H789 C764 0.950 . S
H790 C766 0.950 . S
H791 C767 0.949 . S
H792 C769 0.950 . S
H793 C771 0.950 . S
C794 C795 1.349 . S
C794 C796 1.327 . S
C794 H819 0.950 . S
C795 C794 1.349 . S
C795 C811 1.349 . S
C796 C794 1.327 . S
C796 C815 1.429 . S
C796 H820 0.950 . S
C797 C814 1.574 . S
C797 C816 1.368 . S
C797 H821 0.949 . S
H798 C802 0.949 1_565 S
C799 C800 1.349 . S
C799 C801 1.327 . S
C799 H822 0.950 . S
C800 C799 1.349 . S
C800 C812 1.369 . S
C801 C799 1.327 . S
C801 C817 1.429 . S
C801 H823 0.950 . S
C802 H798 0.949 1_545 S
C802 C810 1.574 . S
C802 C818 1.368 . S
H803 C811 0.950 . S
H804 C809 0.950 . S
H805 C810 0.960 . S
H806 C812 0.926 1_565 S
H807 C813 0.950 1_565 S
H808 C814 0.949 . S
C809 H804 0.950 . S
C809 C811 1.327 . S
C809 C815 1.429 . S
C810 C802 1.574 . S
C810 H805 0.960 . S
C810 C816 1.368 . S
C811 C795 1.349 . S
C811 H803 0.950 . S
C811 C809 1.327 . S
C812 C800 1.369 . S
C812 H806 0.926 1_545 S
C812 C813 1.331 . S
C813 H807 0.950 1_545 S
C813 C812 1.331 . S
C813 C817 1.429 . S
C814 C797 1.574 . S
C814 H808 0.949 . S
C814 C818 1.368 . S
C815 C796 1.429 . S
C815 C809 1.429 . S
C815 C816 1.523 . S
C816 C797 1.368 . S
C816 C810 1.368 . S
C816 C815 1.523 . S
C817 C801 1.429 . S
C817 C813 1.429 . S
C817 C818 1.523 . S
C818 C802 1.368 . S
C818 C814 1.368 . S
C818 C817 1.523 . S
H819 C794 0.950 . S
H820 C796 0.950 . S
H821 C797 0.949 . S
H822 C799 0.950 . S
H823 C801 0.950 . S
C824 C825 1.349 . S
C824 C826 1.327 . S
C824 H849 0.950 . S
C825 C824 1.349 . S
C825 C841 1.349 . S
C826 C824 1.327 . S
C826 C845 1.429 . S
C826 H850 0.950 . S
C827 C844 1.574 . S
C827 C846 1.368 . S
C827 H851 0.949 . S
H828 C832 0.949 . S
C829 C830 1.349 . S
C829 C831 1.327 . S
C829 H852 0.950 . S
C830 C829 1.349 . S
C830 C842 1.349 . S
C831 C829 1.327 . S
C831 C847 1.429 . S
C831 H853 0.950 . S
C832 H828 0.949 . S
C832 C840 1.574 . S
C832 C848 1.368 . S
H833 C841 0.950 . S
H834 C839 0.950 . S
H835 C840 0.949 . S
H836 C842 0.950 . S
H837 C843 0.950 . S
H838 C844 0.949 . S
C839 H834 0.950 . S
C839 C841 1.327 . S
C839 C845 1.429 . S
C840 C832 1.574 . S
C840 H835 0.949 . S
C840 C846 1.368 . S
C841 C825 1.349 . S
C841 H833 0.950 . S
C841 C839 1.327 . S
C842 C830 1.349 . S
C842 H836 0.950 . S
C842 C843 1.327 . S
C843 H837 0.950 . S
C843 C842 1.327 . S
C843 C847 1.429 . S
C844 C827 1.574 . S
C844 H838 0.949 . S
C844 C848 1.368 . S
C845 C826 1.429 . S
C845 C839 1.429 . S
C845 C846 1.523 . S
C846 C827 1.368 . S
C846 C840 1.368 . S
C846 C845 1.523 . S
C847 C831 1.429 . S
C847 C843 1.429 . S
C847 C848 1.523 . S
C848 C832 1.368 . S
C848 C844 1.368 . S
C848 C847 1.523 . S
H849 C824 0.950 . S
H850 C826 0.950 . S
H851 C827 0.949 . S
H852 C829 0.950 . S
H853 C831 0.950 . S
C854 C855 1.349 . S
C854 C856 1.327 . S
C854 H879 0.950 . S
C855 C854 1.349 . S
C855 C871 1.349 . S
C856 C854 1.327 . S
C856 C875 1.429 . S
C856 H880 0.950 . S
C857 C874 1.574 . S
C857 C876 1.368 . S
C857 H881 0.949 . S
H858 C862 0.949 . S
C859 C860 1.349 . S
C859 C861 1.327 . S
C859 H882 0.950 . S
C860 C859 1.349 . S
C860 C872 1.349 . S
C861 C859 1.327 . S
C861 C877 1.429 . S
C861 H883 0.950 . S
C862 H858 0.949 . S
C862 C870 1.574 . S
C862 C878 1.368 . S
H863 C871 0.950 . S
H864 C869 0.950 . S
H865 C870 0.949 . S
H866 C872 0.950 . S
H867 C873 0.950 . S
H868 C874 0.949 . S
C869 H864 0.950 . S
C869 C871 1.327 . S
C869 C875 1.429 . S
C870 C862 1.574 . S
C870 H865 0.949 . S
C870 C876 1.368 . S
C871 C855 1.349 . S
C871 H863 0.950 . S
C871 C869 1.327 . S
C872 C860 1.349 . S
C872 H866 0.950 . S
C872 C873 1.327 . S
C873 H867 0.950 . S
C873 C872 1.327 . S
C873 C877 1.429 . S
C874 C857 1.574 . S
C874 H868 0.949 . S
C874 C878 1.368 . S
C875 C856 1.429 . S
C875 C869 1.429 . S
C875 C876 1.523 . S
C876 C857 1.368 . S
C876 C870 1.368 . S
C876 C875 1.523 . S
C877 C861 1.429 . S
C877 C873 1.429 . S
C877 C878 1.523 . S
C878 C862 1.368 . S
C878 C874 1.368 . S
C878 C877 1.523 . S
H879 C854 0.950 . S
H880 C856 0.950 . S
H881 C857 0.949 . S
H882 C859 0.950 . S
H883 C861 0.950 . S
C884 C885 1.349 . S
C884 C886 1.327 . S
C884 H909 0.950 . S
C885 C884 1.349 . S
C885 C901 1.349 1_556 S
C886 C884 1.327 . S
C886 C905 1.429 . S
C886 H910 0.950 . S
C887 C904 1.574 . S
C887 C906 1.367 1_554 S
C887 H911 0.949 . S
H888 C892 0.942 1_545 S
C889 C890 1.349 . S
C889 C891 1.327 . S
C889 H912 0.950 . S
C890 C889 1.349 . S
C890 C902 1.349 1_554 S
C891 C889 1.327 . S
C891 C907 1.429 . S
C891 H913 0.950 . S
C892 H888 0.942 1_565 S
C892 C900 1.574 . S
C892 C908 1.368 1_556 S
H893 C901 0.950 . S
H894 C899 0.950 . S
H895 C900 0.949 . S
H896 C902 0.950 1_545 S
H897 C903 0.950 1_545 S
H898 C904 0.949 . S
C899 H894 0.950 . S
C899 C901 1.327 . S
C899 C905 1.429 1_554 S
C900 C892 1.574 . S
C900 H895 0.949 . S
C900 C906 1.370 . S
C901 C885 1.349 1_554 S
C901 H893 0.950 . S
C901 C899 1.327 . S
C902 C890 1.349 1_556 S
C902 H896 0.950 1_565 S
C902 C903 1.327 . S
C903 H897 0.950 1_565 S
C903 C902 1.327 . S
C903 C907 1.429 1_556 S
C904 C887 1.574 . S
C904 H898 0.949 . S
C904 C908 1.368 . S
C905 C886 1.429 . S
C905 C899 1.429 1_556 S
C905 C906 1.523 . S
C906 C887 1.367 1_556 S
C906 C900 1.370 . S
C906 C905 1.523 . S
C907 C891 1.429 . S
C907 C903 1.429 1_554 S
C907 C908 1.523 . S
C908 C892 1.368 1_554 S
C908 C904 1.368 . S
C908 C907 1.523 . S
H909 C884 0.950 . S
H910 C886 0.950 . S
H911 C887 0.949 . S
H912 C889 0.950 . S
H913 C891 0.950 . S
C914 C915 1.349 . S
C914 C916 1.327 . S
C914 H939 0.950 . S
C915 C914 1.349 . S
C915 C931 1.349 . S
C916 C914 1.327 . S
C916 C935 1.429 . S
C916 H940 0.950 . S
C917 C934 1.574 . S
C917 C936 1.368 . S
C917 H941 0.949 . S
H918 C922 0.949 . S
C919 C920 1.349 . S
C919 C921 1.327 . S
C919 H942 0.950 . S
C920 C919 1.349 . S
C920 C932 1.349 . S
C921 C919 1.327 . S
C921 C937 1.429 . S
C921 H943 0.950 . S
C922 H918 0.949 . S
C922 C930 1.574 . S
C922 C938 1.368 . S
H923 C931 0.950 . S
H924 C929 0.950 . S
H925 C930 0.949 . S
H926 C932 0.950 . S
H927 C933 0.950 . S
H928 C934 0.949 . S
C929 H924 0.950 . S
C929 C931 1.327 . S
C929 C935 1.429 . S
C930 C922 1.574 . S
C930 H925 0.949 . S
C930 C936 1.368 . S
C931 C915 1.349 . S
C931 H923 0.950 . S
C931 C929 1.327 . S
C932 C920 1.349 . S
C932 H926 0.950 . S
C932 C933 1.327 . S
C933 H927 0.950 . S
C933 C932 1.327 . S
C933 C937 1.429 . S
C934 C917 1.574 . S
C934 H928 0.949 . S
C934 C938 1.368 . S
C935 C916 1.429 . S
C935 C929 1.429 . S
C935 C936 1.523 . S
C936 C917 1.368 . S
C936 C930 1.368 . S
C936 C935 1.523 . S
C937 C921 1.429 . S
C937 C933 1.429 . S
C937 C938 1.523 . S
C938 C922 1.368 . S
C938 C934 1.368 . S
C938 C937 1.523 . S
H939 C914 0.950 . S
H940 C916 0.950 . S
H941 C917 0.949 . S
H942 C919 0.950 . S
H943 C921 0.950 . S
C944 C945 1.349 . S
C944 C946 1.327 . S
C944 H969 0.950 . S
C945 C944 1.349 . S
C945 C961 1.349 . S
C946 C944 1.327 . S
C946 C965 1.429 . S
C946 H970 0.950 . S
C947 C964 1.574 . S
C947 C966 1.368 . S
C947 H971 0.949 1_554 S
H948 C952 0.949 . S
C949 C950 1.349 1_556 S
C949 C951 1.328 . S
C949 H972 0.950 . S
C950 C949 1.349 1_554 S
C950 C962 1.349 . S
C951 C949 1.328 . S
C951 C967 1.416 1_556 S
C951 H973 0.962 . S
C952 H948 0.949 . S
C952 C960 1.574 . S
C952 C968 1.368 . S
H953 C961 0.950 . S
H954 C959 0.950 1_556 S
H955 C960 0.949 . S
H956 C962 0.950 . S
H957 C963 0.950 . S
H958 C964 0.949 1_556 S
C959 H954 0.950 1_554 S
C959 C961 1.327 . S
C959 C965 1.429 . S
C960 C952 1.574 . S
C960 H955 0.949 . S
C960 C966 1.368 . S
C961 C945 1.349 . S
C961 H953 0.950 . S
C961 C959 1.327 . S
C962 C950 1.349 . S
C962 H956 0.950 . S
C962 C963 1.327 . S
C963 H957 0.950 . S
C963 C962 1.327 . S
C963 C967 1.429 . S
C964 C947 1.574 . S
C964 H958 0.949 1_554 S
C964 C968 1.368 . S
C965 C946 1.429 . S
C965 C959 1.429 . S
C965 C966 1.523 . S
C966 C947 1.368 . S
C966 C960 1.368 . S
C966 C965 1.523 . S
C967 C951 1.416 1_554 S
C967 C963 1.429 . S
C967 C968 1.523 . S
C968 C952 1.368 . S
C968 C964 1.368 . S
C968 C967 1.523 . S
H969 C944 0.950 . S
H970 C946 0.950 . S
H971 C947 0.949 1_556 S
H972 C949 0.950 . S
H973 C951 0.962 . S
C974 C975 1.349 . S
C974 C976 1.327 . S
C974 H999 0.950 . S
C975 C974 1.349 . S
C975 C991 1.349 . S
C976 C974 1.327 . S
C976 C995 1.429 . S
C976 H1000 0.950 . S
C977 C994 1.574 . S
C977 C996 1.368 . S
C977 H1001 0.949 . S
H978 C982 0.949 . S
C979 C980 1.349 . S
C979 C981 1.327 . S
C979 H1002 0.950 . S
C980 C979 1.349 . S
C980 C992 1.349 . S
C981 C979 1.327 . S
C981 C997 1.429 . S
C981 H1003 0.950 . S
C982 H978 0.949 . S
C982 C990 1.574 . S
C982 C998 1.368 . S
H983 C991 0.950 . S
H984 C989 0.950 . S
H985 C990 0.949 . S
H986 C992 0.950 . S
H987 C993 0.950 . S
H988 C994 0.949 . S
C989 H984 0.950 . S
C989 C991 1.327 . S
C989 C995 1.429 . S
C990 C982 1.574 . S
C990 H985 0.949 . S
C990 C996 1.368 . S
C991 C975 1.349 . S
C991 H983 0.950 . S
C991 C989 1.327 . S
C992 C980 1.349 . S
C992 H986 0.950 . S
C992 C993 1.327 . S
C993 H987 0.950 . S
C993 C992 1.327 . S
C993 C997 1.429 . S
C994 C977 1.574 . S
C994 H988 0.949 . S
C994 C998 1.368 . S
C995 C976 1.429 . S
C995 C989 1.429 . S
C995 C996 1.523 . S
C996 C977 1.368 . S
C996 C990 1.368 . S
C996 C995 1.523 . S
C997 C981 1.429 . S
C997 C993 1.429 . S
C997 C998 1.523 . S
C998 C982 1.368 . S
C998 C994 1.368 . S
C998 C997 1.523 . S
H999 C974 0.950 . S
H1000 C976 0.950 . S
H1001 C977 0.949 . S
H1002 C979 0.950 . S
H1003 C981 0.950 . S
C1004 C1005 1.349 . S
C1004 C1006 1.327 . S
C1004 H1029 0.950 . S
C1005 C1004 1.349 . S
C1005 C1021 1.349 1_655 S
C1006 C1004 1.327 . S
C1006 C1025 1.429 1_655 S
C1006 H1030 0.950 . S
C1007 C1024 1.574 . S
C1007 C1026 1.368 . S
C1007 H1031 0.949 . S
H1008 C1012 0.949 . S
C1009 C1010 1.349 . S
C1009 C1011 1.327 . S
C1009 H1032 0.950 . S
C1010 C1009 1.349 . S
C1010 C1022 1.349 1_455 S
C1011 C1009 1.327 . S
C1011 C1027 1.429 . S
C1011 H1033 0.950 . S
C1012 H1008 0.949 . S
C1012 C1020 1.574 . S
C1012 C1028 1.368 1_655 S
H1013 C1021 0.950 . S
H1014 C1019 0.950 . S
H1015 C1020 0.949 . S
H1016 C1022 0.950 . S
H1017 C1023 0.950 . S
H1018 C1024 0.949 . S
C1019 H1014 0.950 . S
C1019 C1021 1.327 . S
C1019 C1025 1.429 . S
C1020 C1012 1.574 . S
C1020 H1015 0.949 . S
C1020 C1026 1.368 1_655 S
C1021 C1005 1.349 1_455 S
C1021 H1013 0.950 . S
C1021 C1019 1.327 . S
C1022 C1010 1.349 1_655 S
C1022 H1016 0.950 . S
C1022 C1023 1.327 . S
C1023 H1017 0.950 . S
C1023 C1022 1.327 . S
C1023 C1027 1.429 1_655 S
C1024 C1007 1.574 . S
C1024 H1018 0.949 . S
C1024 C1028 1.368 . S
C1025 C1006 1.429 1_455 S
C1025 C1019 1.429 . S
C1025 C1026 1.523 . S
C1026 C1007 1.368 . S
C1026 C1020 1.368 1_455 S
C1026 C1025 1.523 . S
C1027 C1011 1.429 . S
C1027 C1023 1.429 1_455 S
C1027 C1028 1.523 . S
C1028 C1012 1.368 1_455 S
C1028 C1024 1.368 . S
C1028 C1027 1.523 . S
H1029 C1004 0.950 . S
H1030 C1006 0.950 . S
H1031 C1007 0.949 . S
H1032 C1009 0.950 . S
H1033 C1011 0.950 . S
C1034 C1035 1.349 . S
C1034 C1036 1.327 . S
C1034 H1059 0.950 . S
C1035 C1034 1.349 . S
C1035 C1051 1.349 . S
C1036 C1034 1.327 . S
C1036 C1055 1.429 . S
C1036 H1060 0.950 . S
C1037 C1054 1.574 . S
C1037 C1056 1.368 . S
C1037 H1061 0.949 . S
H1038 C1042 0.949 . S
C1039 C1040 1.349 . S
C1039 C1041 1.327 . S
C1039 H1062 0.950 . S
C1040 C1039 1.349 . S
C1040 C1052 1.349 . S
C1041 C1039 1.327 . S
C1041 C1057 1.429 . S
C1041 H1063 0.950 . S
C1042 H1038 0.949 . S
C1042 C1050 1.574 . S
C1042 C1058 1.368 . S
H1043 C1051 0.950 . S
H1044 C1049 0.950 . S
H1045 C1050 0.949 . S
H1046 C1052 0.950 . S
H1047 C1053 0.950 . S
H1048 C1054 0.949 . S
C1049 H1044 0.950 . S
C1049 C1051 1.327 . S
C1049 C1055 1.429 . S
C1050 C1042 1.574 . S
C1050 H1045 0.949 . S
C1050 C1056 1.368 . S
C1051 C1035 1.349 . S
C1051 H1043 0.950 . S
C1051 C1049 1.327 . S
C1052 C1040 1.349 . S
C1052 H1046 0.950 . S
C1052 C1053 1.327 . S
C1053 H1047 0.950 . S
C1053 C1052 1.327 . S
C1053 C1057 1.429 . S
C1054 C1037 1.574 . S
C1054 H1048 0.949 . S
C1054 C1058 1.368 . S
C1055 C1036 1.429 . S
C1055 C1049 1.429 . S
C1055 C1056 1.523 . S
C1056 C1037 1.368 . S
C1056 C1050 1.368 . S
C1056 C1055 1.523 . S
C1057 C1041 1.429 . S
C1057 C1053 1.429 . S
C1057 C1058 1.523 . S
C1058 C1042 1.368 . S
C1058 C1054 1.368 . S
C1058 C1057 1.523 . S
H1059 C1034 0.950 . S
H1060 C1036 0.950 . S
H1061 C1037 0.949 . S
H1062 C1039 0.950 . S
H1063 C1041 0.950 . S
C1064 C1065 1.349 . S
C1064 C1066 1.327 . S
C1064 H1089 0.950 . S
C1065 C1064 1.349 . S
C1065 C1081 1.349 . S
C1066 C1064 1.327 . S
C1066 C1085 1.429 . S
C1066 H1090 0.950 . S
C1067 C1084 1.574 . S
C1067 C1086 1.368 . S
C1067 H1091 0.949 . S
H1068 C1072 0.949 . S
C1069 C1070 1.349 . S
C1069 C1071 1.327 . S
C1069 H1092 0.950 . S
C1070 C1069 1.349 . S
C1070 C1082 1.349 . S
C1071 C1069 1.327 . S
C1071 C1087 1.429 . S
C1071 H1093 0.950 . S
C1072 H1068 0.949 . S
C1072 C1080 1.574 . S
C1072 C1088 1.368 . S
H1073 C1081 0.950 . S
H1074 C1079 0.950 . S
H1075 C1080 0.949 . S
H1076 C1082 0.950 . S
H1077 C1083 0.950 . S
H1078 C1084 0.949 . S
C1079 H1074 0.950 . S
C1079 C1081 1.327 . S
C1079 C1085 1.429 . S
C1080 C1072 1.574 . S
C1080 H1075 0.949 . S
C1080 C1086 1.368 . S
C1081 C1065 1.349 . S
C1081 H1073 0.950 . S
C1081 C1079 1.327 . S
C1082 C1070 1.349 . S
C1082 H1076 0.950 . S
C1082 C1083 1.327 . S
C1083 H1077 0.950 . S
C1083 C1082 1.327 . S
C1083 C1087 1.429 . S
C1084 C1067 1.574 . S
C1084 H1078 0.949 . S
C1084 C1088 1.368 . S
C1085 C1066 1.429 . S
C1085 C1079 1.429 . S
C1085 C1086 1.523 . S
C1086 C1067 1.368 . S
C1086 C1080 1.368 . S
C1086 C1085 1.523 . S
C1087 C1071 1.429 . S
C1087 C1083 1.429 . S
C1087 C1088 1.523 . S
C1088 C1072 1.368 . S
C1088 C1084 1.368 . S
C1088 C1087 1.523 . S
H1089 C1064 0.950 . S
H1090 C1066 0.950 . S
H1091 C1067 0.949 . S
H1092 C1069 0.950 . S
H1093 C1071 0.950 . S
C1094 C1095 1.349 . S
C1094 C1096 1.327 . S
C1094 H1119 0.950 . S
C1095 C1094 1.349 . S
C1095 C1111 1.349 . S
C1096 C1094 1.327 . S
C1096 C1115 1.429 . S
C1096 H1120 0.950 . S
C1097 C1114 1.574 . S
C1097 C1116 1.368 . S
C1097 H1121 0.949 . S
H1098 C1102 0.949 . S
C1099 C1100 1.349 . S
C1099 C1101 1.327 . S
C1099 H1122 0.950 . S
C1100 C1099 1.349 . S
C1100 C1112 1.349 . S
C1101 C1099 1.327 . S
C1101 C1117 1.429 . S
C1101 H1123 0.950 . S
C1102 H1098 0.949 . S
C1102 C1110 1.574 . S
C1102 C1118 1.368 . S
H1103 C1111 0.950 . S
H1104 C1109 0.950 . S
H1105 C1110 0.949 . S
H1106 C1112 0.950 . S
H1107 C1113 0.950 . S
H1108 C1114 0.949 . S
C1109 H1104 0.950 . S
C1109 C1111 1.327 . S
C1109 C1115 1.429 . S
C1110 C1102 1.574 . S
C1110 H1105 0.949 . S
C1110 C1116 1.368 . S
C1111 C1095 1.349 . S
C1111 H1103 0.950 . S
C1111 C1109 1.327 . S
C1112 C1100 1.349 . S
C1112 H1106 0.950 . S
C1112 C1113 1.327 . S
C1113 H1107 0.950 . S
C1113 C1112 1.327 . S
C1113 C1117 1.429 . S
C1114 C1097 1.574 . S
C1114 H1108 0.949 . S
C1114 C1118 1.368 . S
C1115 C1096 1.429 . S
C1115 C1109 1.429 . S
C1115 C1116 1.523 . S
C1116 C1097 1.368 . S
C1116 C1110 1.368 . S
C1116 C1115 1.523 . S
C1117 C1101 1.429 . S
C1117 C1113 1.429 . S
C1117 C1118 1.523 . S
C1118 C1102 1.368 . S
C1118 C1114 1.368 . S
C1118 C1117 1.523 . S
H1119 C1094 0.950 . S
H1120 C1096 0.950 . S
H1121 C1097 0.949 . S
H1122 C1099 0.950 . S
H1123 C1101 0.950 . S
C405 C21 1.566 . S
C410 C323 1.466 . S
C435 C61 1.527 . S
C440 C357 1.428 . S
C470 C369 1.338 . S
C465 C82 1.428 . S
C495 C135 1.525 . S
C500 C403 1.419 1_655 S
C530 C360 1.432 . S
C525 C15 1.544 . S
C560 C340 1.433 1_565 S
C555 C42 1.527 . S
C590 C387 1.387 . S
C585 C101 1.483 . S
C620 C378 1.381 . S
C615 C122 1.468 . S
C645 C2 1.565 . S
C650 C386 1.464 . S
C680 C348 1.349 . S
C675 C95 1.453 . S
C705 C141 1.519 . S
C710 C324 1.412 . S
C735 C55 1.510 . S
C740 C381 1.402 . S
C770 C339 1.712 . S
C765 C181 1.744 . S
C795 C202 1.696 . S
C800 C361 1.662 . S
C825 C255 1.751 . S
C830 C366 1.660 . S
C855 C295 1.768 . S
C860 C399 1.676 . S
C885 C175 1.770 . S
C890 C344 1.691 . S
C920 C336 1.732 . S
C915 C221 1.761 . S
C950 C390 1.650 . S
C945 C242 1.681 . S
C980 C382 1.694 . S
C975 C301 1.831 . S
C1005 C162 1.672 . S
C1010 C402 1.641 . S
C1040 C345 1.676 . S
C1035 C261 1.707 . S
C1070 C327 1.666 . S
C1065 C282 1.795 . S
C1095 C215 1.787 . S
C1100 C365 1.704 . S
