# Generated by pormake.
# Topology ocu, (6,8)-cn, num edge types: 1
# Building blocks:
#     Node 0, Type 0, BuildingBlock: VOLQOD_clean_sbu_1, # of connection points: 6
#     Node 1, Type 0, BuildingBlock: VOLQOD_clean_sbu_1, # of connection points: 6
#     Node 2, Type 0, BuildingBlock: VOLQOD_clean_sbu_1, # of connection points: 6
#     Node 3, Type 0, BuildingBlock: VOLQOD_clean_sbu_1, # of connection points: 6
#     Node 4, Type 0, BuildingBlock: VOLQOD_clean_sbu_1, # of connection points: 6
#     Node 5, Type 0, BuildingBlock: VOLQOD_clean_sbu_1, # of connection points: 6
#     Node 6, Type 0, BuildingBlock: VOLQOD_clean_sbu_1, # of connection points: 6
#     Node 7, Type 0, BuildingBlock: VOLQOD_clean_sbu_1, # of connection points: 6
#     Node 8, Type 1, BuildingBlock: AJUNOK_clean_sbu_0, # of connection points: 8
#     Node 9, Type 1, BuildingBlock: AJUNOK_clean_sbu_0, # of connection points: 8
#     Node 10, Type 1, BuildingBlock: AJUNOK_clean_sbu_0, # of connection points: 8
#     Node 11, Type 1, BuildingBlock: AJUNOK_clean_sbu_0, # of connection points: 8
#     Node 12, Type 1, BuildingBlock: AJUNOK_clean_sbu_0, # of connection points: 8
#     Node 13, Type 1, BuildingBlock: AJUNOK_clean_sbu_0, # of connection points: 8
#     Edge 14, Type (0, 1), None
#     Edge 15, Type (0, 1), None
#     Edge 16, Type (0, 1), None
#     Edge 17, Type (0, 1), None
#     Edge 18, Type (0, 1), None
#     Edge 19, Type (0, 1), None
#     Edge 20, Type (0, 1), None
#     Edge 21, Type (0, 1), None
#     Edge 22, Type (0, 1), None
#     Edge 23, Type (0, 1), None
#     Edge 24, Type (0, 1), None
#     Edge 25, Type (0, 1), None
#     Edge 26, Type (0, 1), None
#     Edge 27, Type (0, 1), None
#     Edge 28, Type (0, 1), None
#     Edge 29, Type (0, 1), None
#     Edge 30, Type (0, 1), None
#     Edge 31, Type (0, 1), None
#     Edge 32, Type (0, 1), None
#     Edge 33, Type (0, 1), None
#     Edge 34, Type (0, 1), None
#     Edge 35, Type (0, 1), None
#     Edge 36, Type (0, 1), None
#     Edge 37, Type (0, 1), None
#     Edge 38, Type (0, 1), None
#     Edge 39, Type (0, 1), None
#     Edge 40, Type (0, 1), None
#     Edge 41, Type (0, 1), None
#     Edge 42, Type (0, 1), None
#     Edge 43, Type (0, 1), None
#     Edge 44, Type (0, 1), None
#     Edge 45, Type (0, 1), None
#     Edge 46, Type (0, 1), None
#     Edge 47, Type (0, 1), None
#     Edge 48, Type (0, 1), None
#     Edge 49, Type (0, 1), None
#     Edge 50, Type (0, 1), None
#     Edge 51, Type (0, 1), None
#     Edge 52, Type (0, 1), None
#     Edge 53, Type (0, 1), None
#     Edge 54, Type (0, 1), None
#     Edge 55, Type (0, 1), None
#     Edge 56, Type (0, 1), None
#     Edge 57, Type (0, 1), None
#     Edge 58, Type (0, 1), None
#     Edge 59, Type (0, 1), None
#     Edge 60, Type (0, 1), None
#     Edge 61, Type (0, 1), None
# Relax obj value: 0.265
# Max RMSD: 0.391
# Mean RMSD: 0.259
data_MOF--net-ocu--node1-VOLQOD_clean_sbu_1--node2-AJUNOK_clean_sbu_0--edge1-none
_symmetry_space_group_name_H-M    P1
_symmetry_Int_Tables_number       1
_symmetry_cell_setting            triclinic
loop_
_symmetry_equiv_pos_as_xyz
'x, y, z'
_cell_length_a     22.946748
_cell_length_b     23.009931
_cell_length_c     19.243365
_cell_angle_alpha  101.13166
_cell_angle_beta   100.85274
_cell_angle_gamma 106.13945
loop_
_atom_site_label
_atom_site_type_symbol
_atom_site_fract_x
_atom_site_fract_y
_atom_site_fract_z
_atom_type_partial_charge
O0 O 0.35215 0.33604 0.29583 0.0
Zn1 Zn 0.28719 0.27195 0.32582 0.0
O2 O 0.22714 0.21366 0.23454 0.0
Zn3 Zn 0.15033 0.22716 0.23506 0.0
Zn4 Zn 0.24122 0.2279 0.14473 0.0
Zn5 Zn 0.21396 0.12787 0.23152 0.0
O6 O 0.1095 0.17672 0.2957 0.0
O7 O 0.13564 0.09111 0.26257 0.0
O8 O 0.23997 0.32064 0.38534 0.0
O9 O 0.16774 0.31389 0.28701 0.0
O10 O 0.09544 0.21719 0.13594 0.0
O11 O 0.17466 0.25938 0.09218 0.0
O12 O 0.26401 0.15714 0.0888 0.0
O13 O 0.33348 0.2224 0.38178 0.0
O14 O 0.22675 0.07945 0.13833 0.0
O15 O 0.2828 0.12627 0.30976 0.0
C16 C 0.35584 0.33773 0.23091 0.0
C17 C 0.10637 0.12115 0.29741 0.0
C18 C 0.11729 0.24841 0.09341 0.0
C19 C 0.19491 0.33721 0.3545 0.0
C20 C 0.2546 0.10062 0.09241 0.0
C21 C 0.32565 0.1636 0.36498 0.0
O22 O 0.31653 0.29909 0.17429 0.0
O23 O 0.6597 0.12149 0.13171 0.0
Zn24 Zn 0.7472 0.18418 0.19264 0.0
O25 O 0.73193 0.24646 0.26217 0.0
Zn26 Zn 0.74986 0.31902 0.22592 0.0
Zn27 Zn 0.64713 0.22207 0.26258 0.0
Zn28 Zn 0.7787 0.26417 0.35997 0.0
O29 O 0.83483 0.37905 0.28461 0.0
O30 O 0.84352 0.35097 0.39 0.0
O31 O 0.80775 0.23502 0.1406 0.0
O32 O 0.75136 0.29549 0.12191 0.0
O33 O 0.68089 0.35397 0.21846 0.0
O34 O 0.60533 0.26343 0.1985 0.0
O35 O 0.63281 0.23481 0.36177 0.0
O36 O 0.7936 0.13902 0.25123 0.0
O37 O 0.72154 0.2284 0.42188 0.0
O38 O 0.82752 0.20782 0.36059 0.0
C39 C 0.61179 0.10324 0.1572 0.0
C40 C 0.86455 0.38634 0.35036 0.0
C41 C 0.62501 0.31759 0.1883 0.0
C42 C 0.79739 0.27828 0.11242 0.0
C43 C 0.66236 0.21589 0.41055 0.0
C44 C 0.82564 0.15756 0.31796 0.0
O45 O 0.60788 0.13285 0.21775 0.0
O46 O 0.65109 0.63943 0.24552 0.0
Zn47 Zn 0.72514 0.71576 0.30827 0.0
O48 O 0.76096 0.75109 0.23341 0.0
Zn49 Zn 0.84738 0.76657 0.25589 0.0
Zn50 Zn 0.72605 0.71561 0.13182 0.0
Zn51 Zn 0.74363 0.82596 0.24839 0.0
O52 O 0.88725 0.84817 0.33408 0.0
O53 O 0.80505 0.88046 0.34241 0.0
O54 O 0.78979 0.68103 0.36751 0.0
O55 O 0.86506 0.70896 0.31128 0.0
O56 O 0.8766 0.73449 0.16649 0.0
O57 O 0.7846 0.67441 0.09052 0.0
O58 O 0.67887 0.76841 0.08292 0.0
O59 O 0.6936 0.78477 0.36933 0.0
O60 O 0.7329 0.86015 0.16046 0.0
O61 O 0.66004 0.80487 0.26571 0.0
C62 C 0.63325 0.61821 0.17566 0.0
C63 C 0.8613 0.88294 0.36808 0.0
C64 C 0.84347 0.68543 0.1146 0.0
C65 C 0.8427 0.68034 0.35504 0.0
C66 C 0.68763 0.82702 0.1049 0.0
C67 C 0.66169 0.81197 0.33279 0.0
O68 O 0.65914 0.64483 0.13243 0.0
O69 O 0.37125 0.81026 0.37807 0.0
Zn70 Zn 0.30273 0.72676 0.3187 0.0
O71 O 0.24156 0.7441 0.25066 0.0
Zn72 Zn 0.16872 0.72381 0.28534 0.0
Zn73 Zn 0.26282 0.82905 0.25286 0.0
Zn74 Zn 0.22329 0.69727 0.15169 0.0
O75 O 0.11553 0.63637 0.23068 0.0
O76 O 0.13637 0.63394 0.12161 0.0
O77 O 0.25282 0.67072 0.37473 0.0
O78 O 0.19283 0.72828 0.39138 0.0
O79 O 0.12407 0.78511 0.27882 0.0
O80 O 0.21024 0.86748 0.30387 0.0
O81 O 0.25773 0.84352 0.15454 0.0
O82 O 0.3425 0.67677 0.25705 0.0
O83 O 0.26071 0.75392 0.09126 0.0
O84 O 0.27649 0.6454 0.14619 0.0
C85 C 0.38624 0.86112 0.35783 0.0
C86 C 0.10606 0.60898 0.16355 0.0
C87 C 0.15303 0.84358 0.30298 0.0
C88 C 0.21051 0.68317 0.40368 0.0
C89 C 0.27528 0.81321 0.10476 0.0
C90 C 0.32534 0.64592 0.18984 0.0
O91 O 0.35041 0.8712 0.3063 0.0
O92 O 0.15845 0.62338 0.63491 0.0
Zn93 Zn 0.24445 0.68773 0.69716 0.0
O94 O 0.22724 0.7506 0.76352 0.0
Zn95 Zn 0.24445 0.82161 0.72399 0.0
Zn96 Zn 0.14187 0.72433 0.76141 0.0
Zn97 Zn 0.27373 0.76975 0.86246 0.0
O98 O 0.32829 0.8845 0.78414 0.0
O99 O 0.33983 0.8557 0.88914 0.0
O100 O 0.30779 0.73754 0.64732 0.0
O101 O 0.25065 0.79602 0.62211 0.0
O102 O 0.17246 0.85248 0.70749 0.0
O103 O 0.09791 0.76251 0.69425 0.0
O104 O 0.12677 0.73996 0.86011 0.0
O105 O 0.28823 0.64318 0.75849 0.0
O106 O 0.21568 0.73792 0.92538 0.0
O107 O 0.32097 0.71151 0.86799 0.0
C108 C 0.11081 0.60404 0.66042 0.0
C109 C 0.35935 0.89166 0.84936 0.0
C110 C 0.11634 0.81542 0.68046 0.0
C111 C 0.29798 0.77976 0.6168 0.0
C112 C 0.15616 0.72329 0.91133 0.0
C113 C 0.31832 0.66065 0.82585 0.0
O114 O 0.10566 0.63418 0.71999 0.0
O115 O 0.15138 0.14126 0.74859 0.0
Zn116 Zn 0.22317 0.22165 0.80897 0.0
O117 O 0.25566 0.25567 0.73079 0.0
Zn118 Zn 0.3314 0.24281 0.75136 0.0
Zn119 Zn 0.22287 0.21607 0.63041 0.0
Zn120 Zn 0.26773 0.34124 0.7465 0.0
O121 O 0.37651 0.30866 0.84602 0.0
O122 O 0.3501 0.38981 0.81973 0.0
O123 O 0.29436 0.19546 0.8741 0.0
O124 O 0.31037 0.15989 0.76898 0.0
O125 O 0.37041 0.22945 0.66718 0.0
O126 O 0.28048 0.17224 0.58738 0.0
O127 O 0.17621 0.26865 0.58319 0.0
O128 O 0.18689 0.28747 0.86533 0.0
O129 O 0.23462 0.36352 0.65326 0.0
O130 O 0.21087 0.35931 0.80355 0.0
C131 C 0.13299 0.11915 0.67875 0.0
C132 C 0.37791 0.36548 0.86415 0.0
C133 C 0.33913 0.18253 0.6124 0.0
C134 C 0.31963 0.16222 0.83613 0.0
C135 C 0.18594 0.32763 0.60267 0.0
C136 C 0.18442 0.33898 0.85014 0.0
O137 O 0.15745 0.14592 0.63474 0.0
O138 O 0.86718 0.31741 0.87828 0.0
Zn139 Zn 0.80087 0.23359 0.81761 0.0
O140 O 0.7391 0.24941 0.74859 0.0
Zn141 Zn 0.66651 0.22784 0.78334 0.0
Zn142 Zn 0.76037 0.33428 0.75146 0.0
Zn143 Zn 0.72163 0.20275 0.64978 0.0
O144 O 0.61405 0.13939 0.72897 0.0
O145 O 0.63882 0.13294 0.62162 0.0
O146 O 0.75142 0.17496 0.87172 0.0
O147 O 0.69165 0.23248 0.88936 0.0
O148 O 0.62214 0.28953 0.77802 0.0
O149 O 0.70852 0.3721 0.80461 0.0
O150 O 0.75151 0.34834 0.65274 0.0
O151 O 0.84508 0.18884 0.75758 0.0
O152 O 0.75233 0.25904 0.58644 0.0
O153 O 0.78217 0.15954 0.64513 0.0
C154 C 0.88372 0.3668 0.8556 0.0
C155 C 0.60739 0.10942 0.66347 0.0
C156 C 0.6512 0.34799 0.80329 0.0
C157 C 0.70908 0.18705 0.9009 0.0
C158 C 0.76836 0.31846 0.60191 0.0
C159 C 0.83135 0.16165 0.68951 0.0
O160 O 0.84896 0.37589 0.8022 0.0
O161 O 0.84554 0.84216 0.7988 0.0
Zn162 Zn 0.78167 0.775 0.82601 0.0
O163 O 0.72432 0.7162 0.73368 0.0
Zn164 Zn 0.64646 0.72757 0.73131 0.0
Zn165 Zn 0.74148 0.73149 0.64542 0.0
Zn166 Zn 0.71138 0.63037 0.73001 0.0
O167 O 0.60446 0.67661 0.79058 0.0
O168 O 0.63258 0.59196 0.76021 0.0
O169 O 0.73167 0.82127 0.88325 0.0
O170 O 0.66108 0.81378 0.78292 0.0
O171 O 0.59396 0.71544 0.63042 0.0
O172 O 0.67433 0.75997 0.5898 0.0
O173 O 0.76763 0.66218 0.59207 0.0
O174 O 0.82886 0.72641 0.8824 0.0
O175 O 0.72683 0.58294 0.63773 0.0
O176 O 0.77977 0.63039 0.80922 0.0
C177 C 0.85076 0.8454 0.73475 0.0
C178 C 0.60182 0.62137 0.79324 0.0
C179 C 0.61647 0.74756 0.58903 0.0
C180 C 0.68679 0.83722 0.85079 0.0
C181 C 0.75723 0.60525 0.59429 0.0
C182 C 0.82183 0.66778 0.86506 0.0
O183 O 0.81448 0.80561 0.67698 0.0
Cd184 Cd 0.94688 0.95055 0.61718 0.0
Cd185 Cd 0.02224 0.03192 0.44238 0.0
C186 C 0.05201 0.90701 0.56458 0.0
N187 N -0.00949 0.88306 0.56243 0.0
C188 C 0.00761 0.80178 0.61372 0.0
C189 C 0.07238 0.83317 0.63029 0.0
C190 C 0.09468 0.88308 0.59996 0.0
C191 C 0.96677 0.82785 0.57856 0.0
H192 H 0.06904 0.94966 0.549 0.0
H193 H 0.91746 0.8107 0.57694 0.0
C194 C 0.89135 0.91434 0.44542 0.0
C195 C 0.89963 0.03293 0.33741 0.0
C196 C 0.86009 0.06297 0.30754 0.0
C197 C 0.86141 0.12074 0.34908 0.0
C198 C 0.89895 0.14474 0.42167 0.0
C199 C 0.93754 0.1133 0.44897 0.0
N200 N 0.93785 0.05949 0.40606 0.0
H201 H 0.90314 -0.00904 0.30433 0.0
H202 H 0.97032 0.13365 0.50247 0.0
C203 C 0.02939 0.91113 0.34268 0.0
N204 N 0.06294 0.95783 0.40357 0.0
C205 C 0.15586 0.93263 0.39992 0.0
C206 C 0.12178 0.88327 0.33758 0.0
C207 C 0.0577 0.87159 0.30954 0.0
C208 C 0.12495 0.96965 0.43268 0.0
H209 H -0.01747 0.90822 0.31672 0.0
H210 H 0.1506 0.00942 0.47921 0.0
C211 C 0.07889 0.06406 0.64306 0.0
C212 C 0.89234 0.89926 0.72129 0.0
N213 N 0.92846 0.04256 0.62112 0.0
C214 C 0.95281 0.08458 0.68794 0.0
C215 C 0.92553 0.12928 0.70859 0.0
C216 C 0.87085 0.12814 0.66139 0.0
C217 C 0.85024 0.08867 0.58983 0.0
C218 C 0.87978 0.04519 0.57092 0.0
C219 C 0.07446 0.09331 0.3471 0.0
O220 O 0.8695 0.89469 0.49536 0.0
O221 O 0.94191 0.95914 0.46576 0.0
O222 O 0.05895 0.05248 0.57406 0.0
O223 O 0.05217 0.02792 0.67802 0.0
O224 O 0.86653 0.92532 0.67842 0.0
O225 O 0.9479 0.90138 0.72068 0.0
O226 O 0.08564 0.12281 0.41444 0.0
O227 O 0.03952 0.03646 0.32584 0.0
H228 H -0.01186 0.07896 0.72923 0.0
H229 H 0.85944 0.00964 0.51966 0.0
H230 H -0.01124 0.76163 0.63401 0.0
H231 H 0.14444 0.90625 0.6082 0.0
H232 H 0.83124 0.0428 0.25183 0.0
H233 H 0.90103 0.18891 0.45604 0.0
H234 H 0.20557 0.94251 0.42271 0.0
H235 H 0.0308 0.83454 0.26055 0.0
H236 H 0.94316 0.15971 0.76373 0.0
H237 H 0.8084 0.08716 0.55139 0.0
Cd238 Cd 0.43775 0.93072 0.05827 0.0
Cd239 Cd 0.55151 0.04564 0.92864 0.0
C240 C 0.5734 0.91525 0.13062 0.0
N241 N 0.52451 0.88692 0.06979 0.0
C242 C 0.58139 0.81966 0.02521 0.0
C243 C 0.6334 0.85073 0.08638 0.0
C244 C 0.62855 0.89988 0.13841 0.0
C245 C 0.52782 0.83947 0.01722 0.0
H246 H 0.57016 0.9495 0.17501 0.0
H247 H 0.48889 0.81662 0.96911 0.0
C248 C 0.42184 0.93928 0.87836 0.0
C249 C 0.44408 0.08428 0.83631 0.0
C250 C 0.39146 0.10141 0.81448 0.0
C251 C 0.36989 0.13687 0.86588 0.0
C252 C 0.40259 0.15248 0.94014 0.0
C253 C 0.45424 0.1313 0.96025 0.0
N254 N 0.47317 0.09672 0.9082 0.0
H255 H 0.46085 0.05912 0.79542 0.0
H256 H 0.47917 0.14272 0.01725 0.0
C257 C 0.56245 0.90586 0.88281 0.0
N258 N 0.59692 0.96489 0.92348 0.0
C259 C 0.6913 0.93705 0.93697 0.0
C260 C 0.65702 0.87782 0.88959 0.0
C261 C 0.59151 0.8615 0.86585 0.0
C262 C 0.65985 -0.01964 0.95335 0.0
H263 H 0.51294 0.89351 0.85935 0.0
H264 H 0.68639 0.0277 0.98559 0.0
C265 C 0.55731 0.04897 0.11638 0.0
C266 C 0.33137 0.84894 0.08614 0.0
N267 N 0.3759 -0.00211 0.04608 0.0
C268 C 0.39995 0.06026 0.07966 0.0
C269 C 0.36021 0.09604 0.08748 0.0
C270 C 0.29483 0.06708 0.06326 0.0
C271 C 0.2711 0.00345 0.02581 0.0
C272 C 0.31283 0.96985 0.01653 0.0
C273 C 0.66145 0.13638 0.91526 0.0
O274 O 0.44969 0.95215 0.94503 0.0
O275 O 0.45265 0.96545 0.83799 0.0
O276 O 0.54129 0.0336 0.04732 0.0
O277 O 0.51979 0.02055 0.14937 0.0
O278 O 0.34728 0.83091 0.02785 0.0
O279 O 0.36863 0.89891 0.13229 0.0
O280 O 0.63996 0.14567 0.97121 0.0
O281 O 0.63034 0.08689 0.86452 0.0
H282 H 0.44959 0.08193 0.10437 0.0
H283 H 0.29428 0.92015 0.99059 0.0
H284 H 0.58195 0.78044 0.9842 0.0
H285 H 0.66573 0.92418 0.18801 0.0
H286 H 0.36851 0.08768 0.75654 0.0
H287 H 0.38913 0.18108 0.98173 0.0
H288 H 0.74193 0.95139 0.95588 0.0
H289 H 0.56327 0.81588 0.8297 0.0
H290 H 0.38034 0.14483 0.11813 0.0
H291 H 0.22096 0.97932 0.00735 0.0
Cd292 Cd 0.94423 0.43105 0.08253 0.0
Cd293 Cd 0.0464 0.54944 0.94915 0.0
C294 C 0.07639 0.39568 0.10093 0.0
N295 N 0.01387 0.37232 0.06729 0.0
C296 C 0.02064 0.26873 0.03313 0.0
C297 C 0.08435 0.29122 0.07059 0.0
C298 C 0.11277 0.35595 0.10219 0.0
C299 C -0.01369 0.31049 0.03129 0.0
H300 H 0.0978 0.44438 0.13037 0.0
H301 H 0.9365 0.29271 0.00538 0.0
C302 C 0.94126 0.41822 0.89387 0.0
C303 C 0.9003 0.55046 0.90349 0.0
C304 C 0.85358 0.57607 0.88365 0.0
C305 C 0.8668 0.64128 0.90295 0.0
C306 C 0.92604 0.67876 0.94875 0.0
C307 C 0.97176 0.65071 0.96818 0.0
N308 N 0.9591 0.58772 0.94275 0.0
H309 H 0.88898 0.50094 0.88402 0.0
H310 H 0.0187 0.67989 -0.00068 0.0
C311 C 0.08677 0.44423 0.8492 0.0
N312 N 0.0997 0.47438 0.92114 0.0
C313 C 0.16126 0.40904 0.95333 0.0
C314 C 0.14689 0.3765 0.87922 0.0
C315 C 0.1081 0.39423 0.82761 0.0
C316 C 0.13623 0.45763 0.9733 0.0
H317 H 0.05928 0.45873 0.80805 0.0
H318 H 0.14686 0.48258 0.03027 0.0
C319 C 0.05818 0.54768 0.13303 0.0
C320 C 0.84891 0.32559 0.09862 0.0
N321 N 0.90458 0.52241 0.09414 0.0
C322 C 0.93554 0.57565 0.14965 0.0
C323 C 0.91968 0.63042 0.15253 0.0
C324 C 0.8679 0.63105 0.10109 0.0
C325 C 0.83374 0.57463 0.04673 0.0
C326 C 0.85361 0.52134 0.0434 0.0
C327 C 0.12088 0.66559 0.92793 0.0
O328 O 0.95685 0.43644 0.96279 0.0
O329 O 0.9681 0.45507 0.85937 0.0
O330 O 0.03674 0.52693 0.06463 0.0
O331 O 0.03495 0.51428 0.17315 0.0
O332 O 0.83983 0.34876 0.04427 0.0
O333 O 0.89971 0.35434 0.14826 0.0
O334 O 0.13898 0.64921 0.98553 0.0
O335 O 0.0732 0.62636 0.87995 0.0
H336 H 0.97254 0.57681 0.19374 0.0
H337 H 0.82808 0.47909 2e-05 0.0
H338 H -0.00313 0.21902 0.00918 0.0
H339 H 0.1615 0.37495 0.1333 0.0
H340 H 0.80821 0.54471 0.84976 0.0
H341 H 0.9383 0.72925 0.9652 0.0
H342 H 0.19337 0.39902 -0.00534 0.0
H343 H 0.09692 0.37132 0.76985 0.0
H344 H 0.94596 0.67099 0.19799 0.0
H345 H 0.79181 0.57147 0.00725 0.0
Cd346 Cd 0.45403 0.44246 0.11323 0.0
Cd347 Cd 0.51685 0.5349 0.94041 0.0
C348 C 0.56675 0.41043 0.06929 0.0
N349 N 0.50429 0.38236 0.05815 0.0
C350 C 0.51995 0.30087 0.10952 0.0
C351 C 0.58395 0.33597 0.13559 0.0
C352 C 0.60824 0.38853 0.11021 0.0
C353 C 0.48034 0.32512 0.06946 0.0
H354 H 0.58418 0.45452 0.05655 0.0
H355 H 0.43018 0.30449 0.06059 0.0
C356 C 0.40318 0.40001 0.9412 0.0
C357 C 0.39554 0.53834 0.84013 0.0
C358 C 0.35498 0.56789 0.81197 0.0
C359 C 0.35233 0.62238 0.85674 0.0
C360 C 0.38598 0.64251 0.931 0.0
C361 C 0.4258 0.6114 0.95674 0.0
N362 N 0.43071 0.56164 0.91045 0.0
H363 H 0.4031 0.50027 0.80438 0.0
H364 H 0.45628 0.62955 0.01173 0.0
C365 C 0.52546 0.41258 0.84269 0.0
N366 N 0.55932 0.46232 0.90044 0.0
C367 C 0.65352 0.43982 0.89621 0.0
C368 C 0.61936 0.38769 0.83688 0.0
C369 C 0.55457 0.37329 0.81076 0.0
C370 C 0.62202 0.4768 0.92774 0.0
H371 H 0.47706 0.40598 0.81854 0.0
H372 H 0.64757 0.51835 0.97211 0.0
C373 C 0.57911 0.56352 0.13967 0.0
C374 C 0.39846 0.38949 0.21519 0.0
N375 N 0.42488 0.529 0.11688 0.0
C376 C 0.44926 0.57158 0.18333 0.0
C377 C 0.41959 0.61355 0.20583 0.0
C378 C 0.36252 0.60951 0.16113 0.0
C379 C 0.33973 0.56764 0.09074 0.0
C380 C 0.37189 0.52691 0.06972 0.0
C381 C 0.56954 0.59411 0.84317 0.0
O382 O 0.38413 0.37745 0.99089 0.0
O383 O 0.44561 0.45223 0.96163 0.0
O384 O 0.55761 0.55357 0.07113 0.0
O385 O 0.5558 0.52453 0.17361 0.0
O386 O 0.37327 0.41549 0.17185 0.0
O387 O 0.45397 0.39072 0.21511 0.0
O388 O 0.58138 0.62395 0.91046 0.0
O389 O 0.53309 0.53782 0.82222 0.0
H390 H 0.48754 0.56882 0.22312 0.0
H391 H 0.35154 0.49012 0.01929 0.0
H392 H 0.49991 0.25856 0.12552 0.0
H393 H 0.65798 0.4146 0.12563 0.0
H394 H 0.32933 0.55071 0.75477 0.0
H395 H 0.38463 0.68398 0.96768 0.0
H396 H 0.70374 0.45182 0.91771 0.0
H397 H 0.52737 0.33386 0.76428 0.0
H398 H 0.43866 0.6453 0.26018 0.0
H399 H 0.29558 0.56335 0.05453 0.0
Cd400 Cd 0.93681 0.43199 0.56201 0.0
Cd401 Cd 0.05474 0.54034 0.43215 0.0
C402 C 0.07099 0.41367 0.63491 0.0
N403 N 0.02168 0.38594 0.57442 0.0
C404 C 0.07792 0.31917 0.52715 0.0
C405 C 0.13088 0.35055 0.58706 0.0
C406 C 0.12632 0.39861 0.64085 0.0
C407 C 0.02426 0.33872 0.52098 0.0
H408 H 0.06822 0.44778 0.67984 0.0
H409 H -0.01506 0.31634 0.4732 0.0
C410 C 0.92658 0.43419 0.38048 0.0
C411 C 0.93927 0.57525 0.3421 0.0
C412 C 0.88976 0.59835 0.32556 0.0
C413 C 0.87746 0.63963 0.38034 0.0
C414 C 0.91451 0.65432 0.45238 0.0
C415 C 0.96267 0.62782 0.46726 0.0
N416 N 0.97435 0.58906 0.41213 0.0
H417 H 0.95039 0.54715 0.2981 0.0
H418 H -0.00806 0.63983 0.52244 0.0
C419 C 0.06939 0.40194 0.3922 0.0
N420 N 0.10317 0.46196 0.42997 0.0
C421 C 0.19925 0.43737 0.43984 0.0
C422 C 0.16538 0.377 0.39509 0.0
C423 C 0.09956 0.35866 0.37465 0.0
C424 C 0.16674 0.47959 0.45676 0.0
H425 H 0.01934 0.38791 0.37146 0.0
H426 H 0.19274 0.52773 0.48656 0.0
C427 C 0.05774 0.54814 0.62037 0.0
C428 C 0.82649 0.35311 0.58616 0.0
N429 N 0.87858 0.50213 0.54893 0.0
C430 C 0.90277 0.56368 0.5863 0.0
C431 C 0.86339 0.59982 0.59439 0.0
C432 C 0.79815 0.57196 0.56643 0.0
C433 C 0.77444 0.50938 0.52511 0.0
C434 C 0.81593 0.4755 0.51577 0.0
C435 C 0.16301 0.63255 0.41818 0.0
O436 O 0.95202 0.44958 0.44812 0.0
O437 O 0.95917 0.45851 0.34044 0.0
O438 O 0.04287 0.53067 0.55133 0.0
O439 O 0.01971 0.52071 0.65349 0.0
O440 O 0.84347 0.33473 0.52885 0.0
O441 O 0.86455 0.40173 0.63387 0.0
O442 O 0.14182 0.64151 0.47439 0.0
O443 O 0.13217 0.58295 0.36753 0.0
H444 H 0.95199 0.58426 0.61381 0.0
H445 H 0.79731 0.42638 0.48695 0.0
H446 H 0.07809 0.28031 0.48531 0.0
H447 H 0.16415 0.42253 0.68993 0.0
H448 H 0.86402 0.5877 0.26881 0.0
H449 H 0.90863 0.68827 0.49565 0.0
H450 H 0.25006 0.45335 0.45594 0.0
H451 H 0.07167 0.31217 0.34046 0.0
H452 H 0.8834 0.64776 0.62785 0.0
H453 H 0.72434 0.48612 0.50351 0.0
Cd454 Cd 0.44521 0.93153 0.58549 0.0
Cd455 Cd 0.55015 0.04361 0.4492 0.0
C456 C 0.57648 0.89529 0.60329 0.0
N457 N 0.51412 0.87265 0.56895 0.0
C458 C 0.52052 0.76941 0.53027 0.0
C459 C 0.5841 0.79117 0.568 0.0
C460 C 0.61264 0.85541 0.6024 0.0
C461 C 0.4864 0.81139 0.53073 0.0
H462 H 0.59797 0.94343 0.6347 0.0
H463 H 0.43663 0.79412 0.50472 0.0
C464 C 0.44366 0.91278 0.39619 0.0
C465 C 0.4035 0.04572 0.40456 0.0
C466 C 0.35682 0.07161 0.38494 0.0
C467 C 0.37064 0.13693 0.4028 0.0
C468 C 0.43046 0.17432 0.44719 0.0
C469 C 0.47608 0.14607 0.46641 0.0
N470 N 0.46286 0.08287 0.44209 0.0
H471 H 0.39176 -0.00396 0.38611 0.0
H472 H 0.52332 0.17519 0.49652 0.0
C473 C 0.58786 0.94042 0.34326 0.0
N474 N 0.60082 0.96664 0.41625 0.0
C475 C 0.65357 0.89221 0.44101 0.0
C476 C 0.63784 0.86264 0.36567 0.0
C477 C 0.6038 0.88762 0.31733 0.0
C478 C 0.63388 0.94408 0.46525 0.0
H479 H 0.56256 0.95908 0.30477 0.0
H480 H 0.64475 0.96601 0.52319 0.0
C481 C 0.56117 0.0468 0.63437 0.0
C482 C 0.34989 0.82669 0.60303 0.0
N483 N 0.40465 0.02233 0.59201 0.0
C484 C 0.43761 0.07779 0.64326 0.0
C485 C 0.42005 0.13144 0.64507 0.0
C486 C 0.36456 0.12894 0.59752 0.0
C487 C 0.32933 0.07085 0.54654 0.0
C488 C 0.3508 0.01851 0.54391 0.0
C489 C 0.62616 0.15888 0.42764 0.0
O490 O 0.4581 0.93258 0.46499 0.0
O491 O 0.47107 0.94868 0.36115 0.0
O492 O 0.54093 0.02385 0.56606 0.0
O493 O 0.5367 0.01528 0.67546 0.0
O494 O 0.34098 0.84959 0.54844 0.0
O495 O 0.40077 0.85544 0.65256 0.0
O496 O 0.64532 0.14077 0.48348 0.0
O497 O 0.57639 0.12164 0.38124 0.0
H498 H 0.47702 0.08162 0.68571 0.0
H499 H 0.32393 0.97467 0.50365 0.0
H500 H 0.49665 0.71999 0.50448 0.0
H501 H 0.66124 0.87372 0.63397 0.0
H502 H 0.311 0.04037 0.35223 0.0
H503 H 0.44322 0.22489 0.46268 0.0
H504 H 0.68096 0.87596 0.48046 0.0
H505 H 0.58971 0.86675 0.2589 0.0
H506 H 0.44808 0.17369 0.6875 0.0
H507 H 0.28518 0.06551 0.50961 0.0
loop_
_geom_bond_atom_site_label_1
_geom_bond_atom_site_label_2
_geom_bond_distance
_geom_bond_site_symmetry_2
_ccdc_geom_bond_type
O0 Zn1 1.953 . S
O0 C16 1.225 . S
Zn1 O0 1.953 . S
Zn1 O2 1.949 . S
Zn1 O8 1.919 . S
Zn1 O13 1.924 . S
O2 Zn1 1.949 . S
O2 Zn3 1.923 . S
O2 Zn4 1.950 . S
O2 Zn5 1.945 . S
Zn3 O2 1.923 . S
Zn3 O6 1.933 . S
Zn3 O9 1.941 . S
Zn3 O10 1.965 . S
Zn4 O2 1.950 . S
Zn4 O11 1.938 . S
Zn4 O12 1.906 . S
Zn4 O22 1.953 . S
Zn5 O2 1.945 . S
Zn5 O7 1.932 . S
Zn5 O14 1.977 . S
Zn5 O15 1.910 . S
O6 Zn3 1.933 . S
O6 C17 1.226 . S
O7 Zn5 1.932 . S
O7 C17 1.307 . S
O8 Zn1 1.919 . S
O8 C19 1.253 . S
O9 Zn3 1.941 . S
O9 C19 1.283 . S
O10 Zn3 1.965 . S
O10 C18 1.303 . S
O11 Zn4 1.938 . S
O11 C18 1.247 . S
O12 Zn4 1.906 . S
O12 C20 1.304 . S
O13 Zn1 1.924 . S
O13 C21 1.311 . S
O14 Zn5 1.977 . S
O14 C20 1.272 . S
O15 Zn5 1.910 . S
O15 C21 1.231 . S
C16 O0 1.225 . S
C16 O22 1.298 . S
C17 O6 1.226 . S
C17 O7 1.307 . S
C18 O10 1.303 . S
C18 O11 1.247 . S
C19 O8 1.253 . S
C19 O9 1.283 . S
C20 O12 1.304 . S
C20 O14 1.272 . S
C21 O13 1.311 . S
C21 O15 1.231 . S
O22 Zn4 1.953 . S
O22 C16 1.298 . S
O23 Zn24 1.953 . S
O23 C39 1.225 . S
Zn24 O23 1.953 . S
Zn24 O25 1.949 . S
Zn24 O31 1.919 . S
Zn24 O36 1.924 . S
O25 Zn24 1.949 . S
O25 Zn26 1.923 . S
O25 Zn27 1.950 . S
O25 Zn28 1.945 . S
Zn26 O25 1.923 . S
Zn26 O29 1.933 . S
Zn26 O32 1.941 . S
Zn26 O33 1.965 . S
Zn27 O25 1.950 . S
Zn27 O34 1.938 . S
Zn27 O35 1.906 . S
Zn27 O45 1.953 . S
Zn28 O25 1.945 . S
Zn28 O30 1.932 . S
Zn28 O37 1.977 . S
Zn28 O38 1.910 . S
O29 Zn26 1.933 . S
O29 C40 1.226 . S
O30 Zn28 1.932 . S
O30 C40 1.307 . S
O31 Zn24 1.919 . S
O31 C42 1.253 . S
O32 Zn26 1.941 . S
O32 C42 1.283 . S
O33 Zn26 1.965 . S
O33 C41 1.303 . S
O34 Zn27 1.938 . S
O34 C41 1.247 . S
O35 Zn27 1.906 . S
O35 C43 1.304 . S
O36 Zn24 1.924 . S
O36 C44 1.311 . S
O37 Zn28 1.977 . S
O37 C43 1.272 . S
O38 Zn28 1.910 . S
O38 C44 1.231 . S
C39 O23 1.225 . S
C39 O45 1.298 . S
C40 O29 1.226 . S
C40 O30 1.307 . S
C41 O33 1.303 . S
C41 O34 1.247 . S
C42 O31 1.253 . S
C42 O32 1.283 . S
C43 O35 1.304 . S
C43 O37 1.272 . S
C44 O36 1.311 . S
C44 O38 1.231 . S
O45 Zn27 1.953 . S
O45 C39 1.298 . S
O46 Zn47 1.953 . S
O46 C62 1.225 . S
Zn47 O46 1.953 . S
Zn47 O48 1.949 . S
Zn47 O54 1.919 . S
Zn47 O59 1.924 . S
O48 Zn47 1.949 . S
O48 Zn49 1.923 . S
O48 Zn50 1.950 . S
O48 Zn51 1.945 . S
Zn49 O48 1.923 . S
Zn49 O52 1.933 . S
Zn49 O55 1.941 . S
Zn49 O56 1.965 . S
Zn50 O48 1.950 . S
Zn50 O57 1.938 . S
Zn50 O58 1.906 . S
Zn50 O68 1.953 . S
Zn51 O48 1.945 . S
Zn51 O53 1.932 . S
Zn51 O60 1.977 . S
Zn51 O61 1.910 . S
O52 Zn49 1.933 . S
O52 C63 1.226 . S
O53 Zn51 1.932 . S
O53 C63 1.307 . S
O54 Zn47 1.919 . S
O54 C65 1.253 . S
O55 Zn49 1.941 . S
O55 C65 1.283 . S
O56 Zn49 1.965 . S
O56 C64 1.303 . S
O57 Zn50 1.938 . S
O57 C64 1.247 . S
O58 Zn50 1.906 . S
O58 C66 1.304 . S
O59 Zn47 1.924 . S
O59 C67 1.311 . S
O60 Zn51 1.977 . S
O60 C66 1.272 . S
O61 Zn51 1.910 . S
O61 C67 1.231 . S
C62 O46 1.225 . S
C62 O68 1.298 . S
C63 O52 1.226 . S
C63 O53 1.307 . S
C64 O56 1.303 . S
C64 O57 1.247 . S
C65 O54 1.253 . S
C65 O55 1.283 . S
C66 O58 1.304 . S
C66 O60 1.272 . S
C67 O59 1.311 . S
C67 O61 1.231 . S
O68 Zn50 1.953 . S
O68 C62 1.298 . S
O69 Zn70 1.953 . S
O69 C85 1.225 . S
Zn70 O69 1.953 . S
Zn70 O71 1.949 . S
Zn70 O77 1.919 . S
Zn70 O82 1.924 . S
O71 Zn70 1.949 . S
O71 Zn72 1.923 . S
O71 Zn73 1.950 . S
O71 Zn74 1.945 . S
Zn72 O71 1.923 . S
Zn72 O75 1.933 . S
Zn72 O78 1.941 . S
Zn72 O79 1.965 . S
Zn73 O71 1.950 . S
Zn73 O80 1.938 . S
Zn73 O81 1.906 . S
Zn73 O91 1.953 . S
Zn74 O71 1.945 . S
Zn74 O76 1.932 . S
Zn74 O83 1.977 . S
Zn74 O84 1.910 . S
O75 Zn72 1.933 . S
O75 C86 1.226 . S
O76 Zn74 1.932 . S
O76 C86 1.307 . S
O77 Zn70 1.919 . S
O77 C88 1.253 . S
O78 Zn72 1.941 . S
O78 C88 1.283 . S
O79 Zn72 1.965 . S
O79 C87 1.303 . S
O80 Zn73 1.938 . S
O80 C87 1.247 . S
O81 Zn73 1.906 . S
O81 C89 1.304 . S
O82 Zn70 1.924 . S
O82 C90 1.311 . S
O83 Zn74 1.977 . S
O83 C89 1.272 . S
O84 Zn74 1.910 . S
O84 C90 1.231 . S
C85 O69 1.225 . S
C85 O91 1.298 . S
C86 O75 1.226 . S
C86 O76 1.307 . S
C87 O79 1.303 . S
C87 O80 1.247 . S
C88 O77 1.253 . S
C88 O78 1.283 . S
C89 O81 1.304 . S
C89 O83 1.272 . S
C90 O82 1.311 . S
C90 O84 1.231 . S
O91 Zn73 1.953 . S
O91 C85 1.298 . S
O92 Zn93 1.953 . S
O92 C108 1.225 . S
Zn93 O92 1.953 . S
Zn93 O94 1.949 . S
Zn93 O100 1.919 . S
Zn93 O105 1.924 . S
O94 Zn93 1.949 . S
O94 Zn95 1.923 . S
O94 Zn96 1.950 . S
O94 Zn97 1.945 . S
Zn95 O94 1.923 . S
Zn95 O98 1.933 . S
Zn95 O101 1.941 . S
Zn95 O102 1.965 . S
Zn96 O94 1.950 . S
Zn96 O103 1.938 . S
Zn96 O104 1.906 . S
Zn96 O114 1.953 . S
Zn97 O94 1.945 . S
Zn97 O99 1.932 . S
Zn97 O106 1.977 . S
Zn97 O107 1.910 . S
O98 Zn95 1.933 . S
O98 C109 1.226 . S
O99 Zn97 1.932 . S
O99 C109 1.307 . S
O100 Zn93 1.919 . S
O100 C111 1.253 . S
O101 Zn95 1.941 . S
O101 C111 1.283 . S
O102 Zn95 1.965 . S
O102 C110 1.303 . S
O103 Zn96 1.938 . S
O103 C110 1.247 . S
O104 Zn96 1.906 . S
O104 C112 1.304 . S
O105 Zn93 1.924 . S
O105 C113 1.311 . S
O106 Zn97 1.977 . S
O106 C112 1.272 . S
O107 Zn97 1.910 . S
O107 C113 1.231 . S
C108 O92 1.225 . S
C108 O114 1.298 . S
C109 O98 1.226 . S
C109 O99 1.307 . S
C110 O102 1.303 . S
C110 O103 1.247 . S
C111 O100 1.253 . S
C111 O101 1.283 . S
C112 O104 1.304 . S
C112 O106 1.272 . S
C113 O105 1.311 . S
C113 O107 1.231 . S
O114 Zn96 1.953 . S
O114 C108 1.298 . S
O115 Zn116 1.953 . S
O115 C131 1.225 . S
Zn116 O115 1.953 . S
Zn116 O117 1.949 . S
Zn116 O123 1.919 . S
Zn116 O128 1.924 . S
O117 Zn116 1.949 . S
O117 Zn118 1.923 . S
O117 Zn119 1.950 . S
O117 Zn120 1.945 . S
Zn118 O117 1.923 . S
Zn118 O121 1.933 . S
Zn118 O124 1.941 . S
Zn118 O125 1.965 . S
Zn119 O117 1.950 . S
Zn119 O126 1.938 . S
Zn119 O127 1.906 . S
Zn119 O137 1.953 . S
Zn120 O117 1.945 . S
Zn120 O122 1.932 . S
Zn120 O129 1.977 . S
Zn120 O130 1.910 . S
O121 Zn118 1.933 . S
O121 C132 1.226 . S
O122 Zn120 1.932 . S
O122 C132 1.307 . S
O123 Zn116 1.919 . S
O123 C134 1.253 . S
O124 Zn118 1.941 . S
O124 C134 1.283 . S
O125 Zn118 1.965 . S
O125 C133 1.303 . S
O126 Zn119 1.938 . S
O126 C133 1.247 . S
O127 Zn119 1.906 . S
O127 C135 1.304 . S
O128 Zn116 1.924 . S
O128 C136 1.311 . S
O129 Zn120 1.977 . S
O129 C135 1.272 . S
O130 Zn120 1.910 . S
O130 C136 1.231 . S
C131 O115 1.225 . S
C131 O137 1.298 . S
C132 O121 1.226 . S
C132 O122 1.307 . S
C133 O125 1.303 . S
C133 O126 1.247 . S
C134 O123 1.253 . S
C134 O124 1.283 . S
C135 O127 1.304 . S
C135 O129 1.272 . S
C136 O128 1.311 . S
C136 O130 1.231 . S
O137 Zn119 1.953 . S
O137 C131 1.298 . S
O138 Zn139 1.953 . S
O138 C154 1.225 . S
Zn139 O138 1.953 . S
Zn139 O140 1.949 . S
Zn139 O146 1.919 . S
Zn139 O151 1.924 . S
O140 Zn139 1.949 . S
O140 Zn141 1.923 . S
O140 Zn142 1.950 . S
O140 Zn143 1.945 . S
Zn141 O140 1.923 . S
Zn141 O144 1.933 . S
Zn141 O147 1.941 . S
Zn141 O148 1.965 . S
Zn142 O140 1.950 . S
Zn142 O149 1.938 . S
Zn142 O150 1.906 . S
Zn142 O160 1.953 . S
Zn143 O140 1.945 . S
Zn143 O145 1.932 . S
Zn143 O152 1.977 . S
Zn143 O153 1.910 . S
O144 Zn141 1.933 . S
O144 C155 1.226 . S
O145 Zn143 1.932 . S
O145 C155 1.307 . S
O146 Zn139 1.919 . S
O146 C157 1.253 . S
O147 Zn141 1.941 . S
O147 C157 1.283 . S
O148 Zn141 1.965 . S
O148 C156 1.303 . S
O149 Zn142 1.938 . S
O149 C156 1.247 . S
O150 Zn142 1.906 . S
O150 C158 1.304 . S
O151 Zn139 1.924 . S
O151 C159 1.311 . S
O152 Zn143 1.977 . S
O152 C158 1.272 . S
O153 Zn143 1.910 . S
O153 C159 1.231 . S
C154 O138 1.225 . S
C154 O160 1.298 . S
C155 O144 1.226 . S
C155 O145 1.307 . S
C156 O148 1.303 . S
C156 O149 1.247 . S
C157 O146 1.253 . S
C157 O147 1.283 . S
C158 O150 1.304 . S
C158 O152 1.272 . S
C159 O151 1.311 . S
C159 O153 1.231 . S
O160 Zn142 1.953 . S
O160 C154 1.298 . S
O161 Zn162 1.953 . S
O161 C177 1.225 . S
Zn162 O161 1.953 . S
Zn162 O163 1.949 . S
Zn162 O169 1.919 . S
Zn162 O174 1.924 . S
O163 Zn162 1.949 . S
O163 Zn164 1.923 . S
O163 Zn165 1.950 . S
O163 Zn166 1.945 . S
Zn164 O163 1.923 . S
Zn164 O167 1.933 . S
Zn164 O170 1.941 . S
Zn164 O171 1.965 . S
Zn165 O163 1.950 . S
Zn165 O172 1.938 . S
Zn165 O173 1.906 . S
Zn165 O183 1.953 . S
Zn166 O163 1.945 . S
Zn166 O168 1.932 . S
Zn166 O175 1.977 . S
Zn166 O176 1.910 . S
O167 Zn164 1.933 . S
O167 C178 1.226 . S
O168 Zn166 1.932 . S
O168 C178 1.307 . S
O169 Zn162 1.919 . S
O169 C180 1.253 . S
O170 Zn164 1.941 . S
O170 C180 1.283 . S
O171 Zn164 1.965 . S
O171 C179 1.303 . S
O172 Zn165 1.938 . S
O172 C179 1.247 . S
O173 Zn165 1.906 . S
O173 C181 1.304 . S
O174 Zn162 1.924 . S
O174 C182 1.311 . S
O175 Zn166 1.977 . S
O175 C181 1.272 . S
O176 Zn166 1.910 . S
O176 C182 1.231 . S
C177 O161 1.225 . S
C177 O183 1.298 . S
C178 O167 1.226 . S
C178 O168 1.307 . S
C179 O171 1.303 . S
C179 O172 1.247 . S
C180 O169 1.253 . S
C180 O170 1.283 . S
C181 O173 1.304 . S
C181 O175 1.272 . S
C182 O174 1.311 . S
C182 O176 1.231 . S
O183 Zn165 1.953 . S
O183 C177 1.298 . S
Cd184 N187 2.334 1_655 S
Cd184 N213 2.304 1_565 S
Cd184 O220 2.268 . S
Cd184 O223 2.273 1_665 S
Cd184 O224 2.417 . S
Cd184 O225 2.330 . S
Cd185 N200 2.304 1_455 S
Cd185 N204 2.334 1_545 S
Cd185 O221 2.273 1_445 S
Cd185 O222 2.268 . S
Cd185 O226 2.417 . S
Cd185 O227 2.330 . S
C186 N187 1.332 . S
C186 C190 1.381 . S
C186 H192 0.931 . S
N187 Cd184 2.334 1_455 S
N187 C186 1.332 . S
N187 C191 1.328 . S
C188 C189 1.396 . S
C188 C191 1.378 . S
C188 H230 0.931 . S
C189 C188 1.396 . S
C189 C190 1.382 . S
C190 C186 1.381 . S
C190 C189 1.382 . S
C190 H231 0.930 . S
C191 N187 1.328 . S
C191 C188 1.378 . S
C191 H193 0.930 1_455 S
H192 C186 0.931 . S
H193 C191 0.930 1_655 S
C194 O220 1.238 . S
C194 O221 1.253 . S
C195 C196 1.379 . S
C195 N200 1.337 . S
C195 H201 0.929 . S
C196 C195 1.379 . S
C196 C197 1.380 . S
C196 H232 0.929 . S
C197 C196 1.380 . S
C197 C198 1.399 . S
C198 C197 1.399 . S
C198 C199 1.376 . S
C198 H233 0.931 . S
C199 C198 1.376 . S
C199 N200 1.338 . S
C199 H202 0.930 1_655 S
N200 Cd185 2.304 1_655 S
N200 C195 1.337 . S
N200 C199 1.338 . S
H201 C195 0.929 . S
H202 C199 0.930 1_455 S
C203 N204 1.332 . S
C203 C207 1.381 . S
C203 H209 0.931 . S
N204 Cd185 2.334 1_565 S
N204 C203 1.332 . S
N204 C208 1.328 . S
C205 C206 1.396 . S
C205 C208 1.378 . S
C205 H234 0.931 . S
C206 C205 1.396 . S
C206 C207 1.382 . S
C207 C203 1.381 . S
C207 C206 1.382 . S
C207 H235 0.930 . S
C208 N204 1.328 . S
C208 C205 1.378 . S
C208 H210 0.930 1_565 S
H209 C203 0.931 . S
H210 C208 0.930 1_545 S
C211 O222 1.238 . S
C211 O223 1.253 . S
C212 O224 1.239 . S
C212 O225 1.230 . S
N213 Cd184 2.304 1_545 S
N213 C214 1.337 . S
N213 C218 1.338 . S
C214 N213 1.337 . S
C214 C215 1.379 . S
C214 H228 0.929 . S
C215 C214 1.379 . S
C215 C216 1.380 . S
C215 H236 0.929 . S
C216 C215 1.380 . S
C216 C217 1.399 . S
C217 C216 1.399 . S
C217 C218 1.376 . S
C217 H237 0.931 . S
C218 N213 1.338 . S
C218 C217 1.376 . S
C218 H229 0.930 1_545 S
C219 O226 1.239 . S
C219 O227 1.230 . S
O220 Cd184 2.268 . S
O220 C194 1.238 . S
O221 Cd185 2.273 1_665 S
O221 C194 1.253 . S
O222 Cd185 2.268 . S
O222 C211 1.238 . S
O223 Cd184 2.273 1_445 S
O223 C211 1.253 . S
O224 Cd184 2.417 . S
O224 C212 1.239 . S
O225 Cd184 2.330 . S
O225 C212 1.230 . S
O226 Cd185 2.417 . S
O226 C219 1.239 . S
O227 Cd185 2.330 . S
O227 C219 1.230 . S
H228 C214 0.929 . S
H229 C218 0.930 1_565 S
H230 C188 0.931 . S
H231 C190 0.930 . S
H232 C196 0.929 . S
H233 C198 0.931 . S
H234 C205 0.931 . S
H235 C207 0.930 . S
H236 C215 0.929 . S
H237 C217 0.931 . S
Cd238 N241 2.334 . S
Cd238 N267 2.304 1_565 S
Cd238 O274 2.268 1_554 S
Cd238 O277 2.273 1_565 S
Cd238 O278 2.417 . S
Cd238 O279 2.330 . S
Cd239 N254 2.304 . S
Cd239 N258 2.334 1_545 S
Cd239 O275 2.273 1_545 S
Cd239 O276 2.268 1_556 S
Cd239 O280 2.417 . S
Cd239 O281 2.330 . S
C240 N241 1.332 . S
C240 C244 1.381 . S
C240 H246 0.931 . S
N241 Cd238 2.334 . S
N241 C240 1.332 . S
N241 C245 1.328 . S
C242 C243 1.396 . S
C242 C245 1.378 . S
C242 H284 0.931 1_554 S
C243 C242 1.396 . S
C243 C244 1.382 . S
C244 C240 1.381 . S
C244 C243 1.382 . S
C244 H285 0.930 . S
C245 N241 1.328 . S
C245 C242 1.378 . S
C245 H247 0.930 1_554 S
H246 C240 0.931 . S
H247 C245 0.930 1_556 S
C248 O274 1.238 . S
C248 O275 1.253 . S
C249 C250 1.379 . S
C249 N254 1.337 . S
C249 H255 0.929 . S
C250 C249 1.379 . S
C250 C251 1.380 . S
C250 H286 0.929 . S
C251 C250 1.380 . S
C251 C252 1.399 . S
C252 C251 1.399 . S
C252 C253 1.376 . S
C252 H287 0.931 1_556 S
C253 C252 1.376 . S
C253 N254 1.338 . S
C253 H256 0.930 1_556 S
N254 Cd239 2.304 . S
N254 C249 1.337 . S
N254 C253 1.338 . S
H255 C249 0.929 . S
H256 C253 0.930 1_554 S
C257 N258 1.332 . S
C257 C261 1.381 . S
C257 H263 0.931 . S
N258 Cd239 2.334 1_565 S
N258 C257 1.332 . S
N258 C262 1.328 . S
C259 C260 1.396 . S
C259 C262 1.378 . S
C259 H288 0.931 1_556 S
C260 C259 1.396 . S
C260 C261 1.382 . S
C261 C257 1.381 . S
C261 C260 1.382 . S
C261 H289 0.930 . S
C262 N258 1.328 . S
C262 C259 1.378 . S
C262 H264 0.930 1_566 S
H263 C257 0.931 . S
H264 C262 0.930 1_544 S
C265 O276 1.238 . S
C265 O277 1.253 . S
C266 O278 1.239 . S
C266 O279 1.230 . S
N267 Cd238 2.304 1_545 S
N267 C268 1.337 . S
N267 C272 1.338 . S
C268 N267 1.337 . S
C268 C269 1.379 . S
C268 H282 0.929 . S
C269 C268 1.379 . S
C269 C270 1.380 . S
C269 H290 0.929 . S
C270 C269 1.380 . S
C270 C271 1.399 . S
C271 C270 1.399 . S
C271 C272 1.376 . S
C271 H291 0.931 1_554 S
C272 N267 1.338 . S
C272 C271 1.376 . S
C272 H283 0.930 1_544 S
C273 O280 1.239 . S
C273 O281 1.230 . S
O274 Cd238 2.268 1_556 S
O274 C248 1.238 . S
O275 Cd239 2.273 1_565 S
O275 C248 1.253 . S
O276 Cd239 2.268 1_554 S
O276 C265 1.238 . S
O277 Cd238 2.273 1_545 S
O277 C265 1.253 . S
O278 Cd238 2.417 . S
O278 C266 1.239 . S
O279 Cd238 2.330 . S
O279 C266 1.230 . S
O280 Cd239 2.417 . S
O280 C273 1.239 . S
O281 Cd239 2.330 . S
O281 C273 1.230 . S
H282 C268 0.929 . S
H283 C272 0.930 1_566 S
H284 C242 0.931 1_556 S
H285 C244 0.930 . S
H286 C250 0.929 . S
H287 C252 0.931 1_554 S
H288 C259 0.931 1_554 S
H289 C261 0.930 . S
H290 C269 0.929 . S
H291 C271 0.931 1_556 S
Cd292 N295 2.334 1_655 S
Cd292 N321 2.304 . S
Cd292 O328 2.268 1_554 S
Cd292 O331 2.273 1_655 S
Cd292 O332 2.417 . S
Cd292 O333 2.330 . S
Cd293 N308 2.304 1_455 S
Cd293 N312 2.334 . S
Cd293 O329 2.273 1_455 S
Cd293 O330 2.268 1_556 S
Cd293 O334 2.417 . S
Cd293 O335 2.330 . S
C294 N295 1.332 . S
C294 C298 1.381 . S
C294 H300 0.931 . S
N295 Cd292 2.334 1_455 S
N295 C294 1.332 . S
N295 C299 1.328 . S
C296 C297 1.396 . S
C296 C299 1.378 . S
C296 H338 0.931 1_554 S
C297 C296 1.396 . S
C297 C298 1.382 . S
C298 C294 1.381 . S
C298 C297 1.382 . S
C298 H339 0.930 . S
C299 N295 1.328 . S
C299 C296 1.378 . S
C299 H301 0.930 1_454 S
H300 C294 0.931 . S
H301 C299 0.930 1_656 S
C302 O328 1.238 . S
C302 O329 1.253 . S
C303 C304 1.379 . S
C303 N308 1.337 . S
C303 H309 0.929 . S
C304 C303 1.379 . S
C304 C305 1.380 . S
C304 H340 0.929 . S
C305 C304 1.380 . S
C305 C306 1.399 . S
C306 C305 1.399 . S
C306 C307 1.376 . S
C306 H341 0.931 1_556 S
C307 C306 1.376 . S
C307 N308 1.338 . S
C307 H310 0.930 1_656 S
N308 Cd293 2.304 1_655 S
N308 C303 1.337 . S
N308 C307 1.338 . S
H309 C303 0.929 . S
H310 C307 0.930 1_454 S
C311 N312 1.332 . S
C311 C315 1.381 . S
C311 H317 0.931 . S
N312 Cd293 2.334 . S
N312 C311 1.332 . S
N312 C316 1.328 . S
C313 C314 1.396 . S
C313 C316 1.378 . S
C313 H342 0.931 1_556 S
C314 C313 1.396 . S
C314 C315 1.382 . S
C315 C311 1.381 . S
C315 C314 1.382 . S
C315 H343 0.930 . S
C316 N312 1.328 . S
C316 C313 1.378 . S
C316 H318 0.930 1_556 S
H317 C311 0.931 . S
H318 C316 0.930 1_554 S
C319 O330 1.238 . S
C319 O331 1.253 . S
C320 O332 1.239 . S
C320 O333 1.230 . S
N321 Cd292 2.304 . S
N321 C322 1.337 . S
N321 C326 1.338 . S
C322 N321 1.337 . S
C322 C323 1.379 . S
C322 H336 0.929 . S
C323 C322 1.379 . S
C323 C324 1.380 . S
C323 H344 0.929 . S
C324 C323 1.380 . S
C324 C325 1.399 . S
C325 C324 1.399 . S
C325 C326 1.376 . S
C325 H345 0.931 1_554 S
C326 N321 1.338 . S
C326 C325 1.376 . S
C326 H337 0.930 1_554 S
C327 O334 1.239 . S
C327 O335 1.230 . S
O328 Cd292 2.268 1_556 S
O328 C302 1.238 . S
O329 Cd293 2.273 1_655 S
O329 C302 1.253 . S
O330 Cd293 2.268 1_554 S
O330 C319 1.238 . S
O331 Cd292 2.273 1_455 S
O331 C319 1.253 . S
O332 Cd292 2.417 . S
O332 C320 1.239 . S
O333 Cd292 2.330 . S
O333 C320 1.230 . S
O334 Cd293 2.417 . S
O334 C327 1.239 . S
O335 Cd293 2.330 . S
O335 C327 1.230 . S
H336 C322 0.929 . S
H337 C326 0.930 1_556 S
H338 C296 0.931 1_556 S
H339 C298 0.930 . S
H340 C304 0.929 . S
H341 C306 0.931 1_554 S
H342 C313 0.931 1_554 S
H343 C315 0.930 . S
H344 C323 0.929 . S
H345 C325 0.931 1_556 S
Cd346 N349 2.334 . S
Cd346 N375 2.304 . S
Cd346 O382 2.268 1_554 S
Cd346 O385 2.273 . S
Cd346 O386 2.417 . S
Cd346 O387 2.330 . S
Cd347 N362 2.304 . S
Cd347 N366 2.334 . S
Cd347 O383 2.273 . S
Cd347 O384 2.268 1_556 S
Cd347 O388 2.417 . S
Cd347 O389 2.330 . S
C348 N349 1.332 . S
C348 C352 1.381 . S
C348 H354 0.931 . S
N349 Cd346 2.334 . S
N349 C348 1.332 . S
N349 C353 1.328 . S
C350 C351 1.396 . S
C350 C353 1.378 . S
C350 H392 0.931 1_554 S
C351 C350 1.396 . S
C351 C352 1.382 . S
C352 C348 1.381 . S
C352 C351 1.382 . S
C352 H393 0.930 . S
C353 N349 1.328 . S
C353 C350 1.378 . S
C353 H355 0.930 1_554 S
H354 C348 0.931 . S
H355 C353 0.930 1_556 S
C356 O382 1.238 . S
C356 O383 1.253 . S
C357 C358 1.379 . S
C357 N362 1.337 . S
C357 H363 0.929 . S
C358 C357 1.379 . S
C358 C359 1.380 . S
C358 H394 0.929 . S
C359 C358 1.380 . S
C359 C360 1.399 . S
C360 C359 1.399 . S
C360 C361 1.376 . S
C360 H395 0.931 1_556 S
C361 C360 1.376 . S
C361 N362 1.338 . S
C361 H364 0.930 1_556 S
N362 Cd347 2.304 . S
N362 C357 1.337 . S
N362 C361 1.338 . S
H363 C357 0.929 . S
H364 C361 0.930 1_554 S
C365 N366 1.332 . S
C365 C369 1.381 . S
C365 H371 0.931 . S
N366 Cd347 2.334 . S
N366 C365 1.332 . S
N366 C370 1.328 . S
C367 C368 1.396 . S
C367 C370 1.378 . S
C367 H396 0.931 1_556 S
C368 C367 1.396 . S
C368 C369 1.382 . S
C369 C365 1.381 . S
C369 C368 1.382 . S
C369 H397 0.930 . S
C370 N366 1.328 . S
C370 C367 1.378 . S
C370 H372 0.930 1_556 S
H371 C365 0.931 . S
H372 C370 0.930 1_554 S
C373 O384 1.238 . S
C373 O385 1.253 . S
C374 O386 1.239 . S
C374 O387 1.230 . S
N375 Cd346 2.304 . S
N375 C376 1.337 . S
N375 C380 1.338 . S
C376 N375 1.337 . S
C376 C377 1.379 . S
C376 H390 0.929 . S
C377 C376 1.379 . S
C377 C378 1.380 . S
C377 H398 0.929 . S
C378 C377 1.380 . S
C378 C379 1.399 . S
C379 C378 1.399 . S
C379 C380 1.376 . S
C379 H399 0.931 1_554 S
C380 N375 1.338 . S
C380 C379 1.376 . S
C380 H391 0.930 1_554 S
C381 O388 1.239 . S
C381 O389 1.230 . S
O382 Cd346 2.268 1_556 S
O382 C356 1.238 . S
O383 Cd347 2.273 . S
O383 C356 1.253 . S
O384 Cd347 2.268 1_554 S
O384 C373 1.238 . S
O385 Cd346 2.273 . S
O385 C373 1.253 . S
O386 Cd346 2.417 . S
O386 C374 1.239 . S
O387 Cd346 2.330 . S
O387 C374 1.230 . S
O388 Cd347 2.417 . S
O388 C381 1.239 . S
O389 Cd347 2.330 . S
O389 C381 1.230 . S
H390 C376 0.929 . S
H391 C380 0.930 1_556 S
H392 C350 0.931 1_556 S
H393 C352 0.930 . S
H394 C358 0.929 . S
H395 C360 0.931 1_554 S
H396 C367 0.931 1_554 S
H397 C369 0.930 . S
H398 C377 0.929 . S
H399 C379 0.931 1_556 S
Cd400 N403 2.334 1_655 S
Cd400 N429 2.304 . S
Cd400 O436 2.268 . S
Cd400 O439 2.273 1_655 S
Cd400 O440 2.417 . S
Cd400 O441 2.330 . S
Cd401 N416 2.304 1_455 S
Cd401 N420 2.334 . S
Cd401 O437 2.273 1_455 S
Cd401 O438 2.268 . S
Cd401 O442 2.417 . S
Cd401 O443 2.330 . S
C402 N403 1.332 . S
C402 C406 1.381 . S
C402 H408 0.931 . S
N403 Cd400 2.334 1_455 S
N403 C402 1.332 . S
N403 C407 1.328 . S
C404 C405 1.396 . S
C404 C407 1.378 . S
C404 H446 0.931 . S
C405 C404 1.396 . S
C405 C406 1.382 . S
C406 C402 1.381 . S
C406 C405 1.382 . S
C406 H447 0.930 . S
C407 N403 1.328 . S
C407 C404 1.378 . S
C407 H409 0.930 1_455 S
H408 C402 0.931 . S
H409 C407 0.930 1_655 S
C410 O436 1.238 . S
C410 O437 1.253 . S
C411 C412 1.379 . S
C411 N416 1.337 . S
C411 H417 0.929 . S
C412 C411 1.379 . S
C412 C413 1.380 . S
C412 H448 0.929 . S
C413 C412 1.380 . S
C413 C414 1.399 . S
C414 C413 1.399 . S
C414 C415 1.376 . S
C414 H449 0.931 . S
C415 C414 1.376 . S
C415 N416 1.338 . S
C415 H418 0.930 1_655 S
N416 Cd401 2.304 1_655 S
N416 C411 1.337 . S
N416 C415 1.338 . S
H417 C411 0.929 . S
H418 C415 0.930 1_455 S
C419 N420 1.332 . S
C419 C423 1.381 . S
C419 H425 0.931 . S
N420 Cd401 2.334 . S
N420 C419 1.332 . S
N420 C424 1.328 . S
C421 C422 1.396 . S
C421 C424 1.378 . S
C421 H450 0.931 . S
C422 C421 1.396 . S
C422 C423 1.382 . S
C423 C419 1.381 . S
C423 C422 1.382 . S
C423 H451 0.930 . S
C424 N420 1.328 . S
C424 C421 1.378 . S
C424 H426 0.930 . S
H425 C419 0.931 . S
H426 C424 0.930 . S
C427 O438 1.238 . S
C427 O439 1.253 . S
C428 O440 1.239 . S
C428 O441 1.230 . S
N429 Cd400 2.304 . S
N429 C430 1.337 . S
N429 C434 1.338 . S
C430 N429 1.337 . S
C430 C431 1.379 . S
C430 H444 0.929 . S
C431 C430 1.379 . S
C431 C432 1.380 . S
C431 H452 0.929 . S
C432 C431 1.380 . S
C432 C433 1.399 . S
C433 C432 1.399 . S
C433 C434 1.376 . S
C433 H453 0.931 . S
C434 N429 1.338 . S
C434 C433 1.376 . S
C434 H445 0.930 . S
C435 O442 1.239 . S
C435 O443 1.230 . S
O436 Cd400 2.268 . S
O436 C410 1.238 . S
O437 Cd401 2.273 1_655 S
O437 C410 1.253 . S
O438 Cd401 2.268 . S
O438 C427 1.238 . S
O439 Cd400 2.273 1_455 S
O439 C427 1.253 . S
O440 Cd400 2.417 . S
O440 C428 1.239 . S
O441 Cd400 2.330 . S
O441 C428 1.230 . S
O442 Cd401 2.417 . S
O442 C435 1.239 . S
O443 Cd401 2.330 . S
O443 C435 1.230 . S
H444 C430 0.929 . S
H445 C434 0.930 . S
H446 C404 0.931 . S
H447 C406 0.930 . S
H448 C412 0.929 . S
H449 C414 0.931 . S
H450 C421 0.931 . S
H451 C423 0.930 . S
H452 C431 0.929 . S
H453 C433 0.931 . S
Cd454 N457 2.334 . S
Cd454 N483 2.304 1_565 S
Cd454 O490 2.268 . S
Cd454 O493 2.273 1_565 S
Cd454 O494 2.417 . S
Cd454 O495 2.330 . S
Cd455 N470 2.304 . S
Cd455 N474 2.334 1_545 S
Cd455 O491 2.273 1_545 S
Cd455 O492 2.268 . S
Cd455 O496 2.417 . S
Cd455 O497 2.330 . S
C456 N457 1.332 . S
C456 C460 1.381 . S
C456 H462 0.931 . S
N457 Cd454 2.334 . S
N457 C456 1.332 . S
N457 C461 1.328 . S
C458 C459 1.396 . S
C458 C461 1.378 . S
C458 H500 0.931 . S
C459 C458 1.396 . S
C459 C460 1.382 . S
C460 C456 1.381 . S
C460 C459 1.382 . S
C460 H501 0.930 . S
C461 N457 1.328 . S
C461 C458 1.378 . S
C461 H463 0.930 . S
H462 C456 0.931 . S
H463 C461 0.930 . S
C464 O490 1.238 . S
C464 O491 1.253 . S
C465 C466 1.379 . S
C465 N470 1.337 . S
C465 H471 0.929 . S
C466 C465 1.379 . S
C466 C467 1.380 . S
C466 H502 0.929 . S
C467 C466 1.380 . S
C467 C468 1.399 . S
C468 C467 1.399 . S
C468 C469 1.376 . S
C468 H503 0.931 . S
C469 C468 1.376 . S
C469 N470 1.338 . S
C469 H472 0.930 . S
N470 Cd455 2.304 . S
N470 C465 1.337 . S
N470 C469 1.338 . S
H471 C465 0.929 . S
H472 C469 0.930 . S
C473 N474 1.332 . S
C473 C477 1.381 . S
C473 H479 0.931 . S
N474 Cd455 2.334 1_565 S
N474 C473 1.332 . S
N474 C478 1.328 . S
C475 C476 1.396 . S
C475 C478 1.378 . S
C475 H504 0.931 . S
C476 C475 1.396 . S
C476 C477 1.382 . S
C477 C473 1.381 . S
C477 C476 1.382 . S
C477 H505 0.930 . S
C478 N474 1.328 . S
C478 C475 1.378 . S
C478 H480 0.930 1_565 S
H479 C473 0.931 . S
H480 C478 0.930 1_545 S
C481 O492 1.238 . S
C481 O493 1.253 . S
C482 O494 1.239 . S
C482 O495 1.230 . S
N483 Cd454 2.304 1_545 S
N483 C484 1.337 . S
N483 C488 1.338 . S
C484 N483 1.337 . S
C484 C485 1.379 . S
C484 H498 0.929 . S
C485 C484 1.379 . S
C485 C486 1.380 . S
C485 H506 0.929 . S
C486 C485 1.380 . S
C486 C487 1.399 . S
C487 C486 1.399 . S
C487 C488 1.376 . S
C487 H507 0.931 . S
C488 N483 1.338 . S
C488 C487 1.376 . S
C488 H499 0.930 1_545 S
C489 O496 1.239 . S
C489 O497 1.230 . S
O490 Cd454 2.268 . S
O490 C464 1.238 . S
O491 Cd455 2.273 1_565 S
O491 C464 1.253 . S
O492 Cd455 2.268 . S
O492 C481 1.238 . S
O493 Cd454 2.273 1_545 S
O493 C481 1.253 . S
O494 Cd454 2.417 . S
O494 C482 1.239 . S
O495 Cd454 2.330 . S
O495 C482 1.230 . S
O496 Cd455 2.417 . S
O496 C489 1.239 . S
O497 Cd455 2.330 . S
O497 C489 1.230 . S
H498 C484 0.929 . S
H499 C488 0.930 1_565 S
H500 C458 0.931 . S
H501 C460 0.930 . S
H502 C466 0.929 . S
H503 C468 0.931 . S
H504 C475 0.931 . S
H505 C477 0.930 . S
H506 C485 0.929 . S
H507 C487 0.931 . S
C219 C17 1.088 . S
C197 C44 2.690 . S
C194 C63 0.864 . S
C87 C206 2.052 . S
C110 C189 1.987 . S
C211 C131 0.898 . S
C159 C216 2.626 . S
C177 C212 1.132 . S
C270 C20 1.820 . S
C42 C320 1.673 . S
C243 C66 2.370 . S
C319 C86 1.277 . S
C109 C248 1.274 . S
C314 C136 2.428 . S
C157 C273 1.675 . S
C182 C305 1.891 . S
C18 C297 1.688 . S
C112 C327 2.343 . S
C251 C134 1.733 . S
C302 C154 1.698 . S
C180 C260 1.574 . S
C64 C324 1.837 . S
C266 C89 2.325 . S
C39 C265 1.689 . S
C178 C381 1.088 . S
C113 C359 2.690 . S
C356 C132 0.864 . S
C368 C156 2.053 . S
C41 C351 1.987 . S
C373 C62 0.898 . S
C90 C378 2.626 . S
C16 C374 1.132 . S
C181 C432 1.820 . S
C482 C111 1.673 . S
C135 C405 2.369 . S
C155 C481 1.277 . S
C410 C40 1.274 . S
C67 C476 2.428 . S
C435 C88 1.675 . S
C467 C21 1.891 . S
C459 C179 1.688 . S
C43 C489 2.343 . S
C65 C413 1.733 . S
C464 C85 1.698 . S
C19 C422 1.574 . S
C133 C486 1.836 . S
C428 C158 2.325 . S
C427 C108 1.689 . S
