# Generated by pormake.
# Topology nia, (6,6)-cn, num edge types: 1
# Building blocks:
#     Node 0, Type 0, BuildingBlock: VOLQOD_clean_sbu_1, # of connection points: 6
#     Node 1, Type 0, BuildingBlock: VOLQOD_clean_sbu_1, # of connection points: 6
#     Node 2, Type 1, BuildingBlock: MIDCAF_clean_sbu_0, # of connection points: 6
#     Node 3, Type 1, BuildingBlock: MIDCAF_clean_sbu_0, # of connection points: 6
#     Edge 4, Type (0, 1), BuildingBlock: FUNLAD_clean_linker_1, # of connection points: 2
#     Edge 5, Type (0, 1), BuildingBlock: FUNLAD_clean_linker_1, # of connection points: 2
#     Edge 6, Type (0, 1), BuildingBlock: FUNLAD_clean_linker_1, # of connection points: 2
#     Edge 7, Type (0, 1), BuildingBlock: FUNLAD_clean_linker_1, # of connection points: 2
#     Edge 8, Type (0, 1), BuildingBlock: FUNLAD_clean_linker_1, # of connection points: 2
#     Edge 9, Type (0, 1), BuildingBlock: FUNLAD_clean_linker_1, # of connection points: 2
#     Edge 10, Type (0, 1), BuildingBlock: FUNLAD_clean_linker_1, # of connection points: 2
#     Edge 11, Type (0, 1), BuildingBlock: FUNLAD_clean_linker_1, # of connection points: 2
#     Edge 12, Type (0, 1), BuildingBlock: FUNLAD_clean_linker_1, # of connection points: 2
#     Edge 13, Type (0, 1), BuildingBlock: FUNLAD_clean_linker_1, # of connection points: 2
#     Edge 14, Type (0, 1), BuildingBlock: FUNLAD_clean_linker_1, # of connection points: 2
#     Edge 15, Type (0, 1), BuildingBlock: FUNLAD_clean_linker_1, # of connection points: 2
# Relax obj value: 0.144
# Max RMSD: 0.235
# Mean RMSD: 0.189
data_MOF--net-nia--node1-VOLQOD_clean_sbu_1--node2-MIDCAF_clean_sbu_0--edge1-FUNLAD_clean_linker_1
_symmetry_space_group_name_H-M    P1
_symmetry_Int_Tables_number       1
_symmetry_cell_setting            triclinic
loop_
_symmetry_equiv_pos_as_xyz
'x, y, z'
_cell_length_a     24.886837
_cell_length_b     24.601597
_cell_length_c     37.54714
_cell_angle_alpha  90.054048
_cell_angle_beta   90.171555
_cell_angle_gamma 121.58992
loop_
_atom_site_label
_atom_site_type_symbol
_atom_site_fract_x
_atom_site_fract_y
_atom_site_fract_z
_atom_type_partial_charge
O0 O 0.07421 0.03575 0.94299 0.0
Zn1 Zn -0.01385 0.98849 0.96044 0.0
O2 O -0.01824 -0.00138 0.01131 0.0
Zn3 Zn 0.93909 0.91511 0.03423 0.0
Zn4 Zn 0.06757 0.04974 0.02998 0.0
Zn5 Zn 0.93513 0.04134 0.01963 0.0
O6 O 0.86174 0.89956 0.05994 0.0
O7 O 0.85525 0.98406 0.04673 0.0
O8 O 0.94677 0.89763 0.94681 0.0
O9 O 0.91321 0.84451 0.9978 0.0
O10 O -0.00486 0.90971 0.07093 0.0
O11 O 0.08825 -0.00142 0.06261 0.0
O12 O 0.07528 0.12071 0.06013 0.0
O13 O 0.94376 0.02428 0.93278 0.0
O14 O -0.01419 0.11854 0.0508 0.0
O15 O 0.91278 0.06762 0.97347 0.0
C16 C 0.12716 0.07437 0.9573 0.0
C17 C 0.83394 0.93056 0.06211 0.0
C18 C 0.05354 0.94559 0.07826 0.0
C19 C 0.91965 0.84563 0.9641 0.0
C20 C 0.03952 0.14242 0.06573 0.0
C21 C 0.91843 0.05574 0.9411 0.0
O22 O 0.13241 0.08633 0.99056 0.0
O23 O 0.04655 0.14385 0.49727 0.0
Zn24 Zn 0.02117 0.07262 0.53307 0.0
O25 O -0.02201 -0.01064 0.50973 0.0
Zn26 Zn 0.89169 0.93885 0.52744 0.0
Zn27 Zn -0.02479 0.00063 0.45889 0.0
Zn28 Zn 0.0231 0.94526 0.51841 0.0
O29 O 0.88265 0.86738 0.55764 0.0
O30 O 0.97032 0.86646 0.54789 0.0
O31 O 0.96498 0.07781 0.56939 0.0
O32 O 0.87094 -0.0094 0.55965 0.0
O33 O 0.82798 0.90178 0.48711 0.0
O34 O 0.88832 0.94911 0.44 0.0
O35 O 0.02294 0.97033 0.43171 0.0
O36 O 0.09764 0.08701 0.55955 0.0
O37 O 0.0484 0.92199 0.47237 0.0
O38 O 0.10138 0.00051 0.54748 0.0
C39 C 0.0365 0.14287 0.4639 0.0
C40 C 0.91692 0.84377 0.5628 0.0
C41 C 0.83479 0.91132 0.45365 0.0
C42 C 0.90628 0.04301 0.57594 0.0
C43 C 0.04688 0.93758 0.44017 0.0
C44 C 0.12358 0.05434 0.56275 0.0
O45 O 0.00868 0.09102 0.44631 0.0
Zn46 Zn 0.29656 0.67352 0.19463 0.0
Zn47 Zn 0.32177 0.67817 0.33193 0.0
Zn48 Zn 0.30805 0.67402 0.26354 0.0
C49 C 0.43986 0.72339 0.30562 0.0
C50 C 0.2367 0.55189 0.31521 0.0
O51 O 0.26296 0.72916 0.24931 0.0
O52 O 0.25772 0.72448 0.19053 0.0
C53 C 0.42356 0.72748 0.20715 0.0
O54 O 0.4097 0.7163 0.27634 0.0
O55 O 0.41076 0.70692 0.33482 0.0
O56 O 0.26037 0.58777 0.34206 0.0
O57 O 0.25052 0.57545 0.28362 0.0
O58 O 0.38575 0.71404 0.18148 0.0
O59 O 0.40301 0.71585 0.23941 0.0
O60 O 0.25027 0.57342 0.2466 0.0
O61 O 0.2426 0.58047 0.18836 0.0
C62 C 0.23005 0.54675 0.21598 0.0
O63 O 0.27091 0.73087 0.28642 0.0
O64 O 0.29924 0.74152 0.34322 0.0
C65 C 0.24742 0.74332 0.21951 0.0
C66 C 0.27404 0.75364 0.31782 0.0
Zn67 Zn 0.64477 0.3117 0.83043 0.0
Zn68 Zn 0.65834 0.31009 0.69398 0.0
Zn69 Zn 0.65227 0.3135 0.76284 0.0
C70 C 0.72102 0.43825 0.71312 0.0
C71 C 0.53194 0.25124 0.70929 0.0
O72 O 0.69373 0.25972 0.785 0.0
O73 O 0.66444 0.2463 0.84151 0.0
C74 C 0.72695 0.4374 0.81264 0.0
O75 O 0.70531 0.41346 0.74438 0.0
O76 O 0.70652 0.40286 0.68598 0.0
O77 O 0.56784 0.26347 0.68294 0.0
O78 O 0.55513 0.2668 0.74098 0.0
O79 O 0.70996 0.40157 0.83959 0.0
O80 O 0.70724 0.41335 0.78143 0.0
O81 O 0.55155 0.26862 0.77797 0.0
O82 O 0.55669 0.28635 0.83591 0.0
C83 C 0.52439 0.26514 0.80777 0.0
O84 O 0.7006 0.26184 0.74791 0.0
O85 O 0.70249 0.26446 0.68908 0.0
C86 C 0.69057 0.23583 0.81604 0.0
C87 C 0.71597 0.24812 0.71796 0.0
H88 H 0.1328 0.94358 0.10277 0.0
C89 C 0.08256 0.92516 0.10495 0.0
H90 H -0.00091 0.86722 0.13397 0.0
H91 H 0.09405 0.68293 0.17854 0.0
H92 H -0.0076 0.61032 0.15094 0.0
H93 H 0.92882 0.65078 0.12495 0.0
H94 H 0.96608 0.76362 0.12657 0.0
C95 C 0.04913 0.88506 0.1315 0.0
C96 C 0.07833 0.85892 0.15504 0.0
C97 C 0.05468 0.79255 0.15444 0.0
C98 C 0.09159 0.76933 0.1689 0.0
C99 C 0.06805 0.70302 0.16739 0.0
C100 C 0.00978 0.66089 0.15178 0.0
C101 C -0.02603 0.68367 0.13719 0.0
C102 C -0.004 0.74869 0.13829 0.0
H103 H 0.19915 0.78953 0.24305 0.0
C104 C 0.21376 0.778 0.21852 0.0
H105 H 0.21034 0.77826 0.16236 0.0
H106 H 0.12574 0.98441 0.17111 0.0
H107 H 0.22477 0.05595 0.2018 0.0
H108 H 0.292 0.01674 0.22375 0.0
H109 H 0.25999 0.9056 0.21605 0.0
C110 C 0.19718 0.79114 0.18711 0.0
C111 C 0.15184 0.81249 0.18357 0.0
C112 C 0.17163 0.87738 0.18836 0.0
C113 C 0.13406 0.90046 0.17458 0.0
C114 C 0.15387 0.96522 0.18009 0.0
C115 C 0.21023 0.00649 0.19782 0.0
C116 C 0.24801 0.98435 0.21028 0.0
C117 C 0.22921 0.92055 0.20562 0.0
H118 H 0.20593 0.05383 0.58391 0.0
C119 C 0.17993 0.07811 0.58533 0.0
H120 H 0.17391 0.15235 0.60969 0.0
H121 H 0.36835 0.10094 0.70847 0.0
H122 H 0.27322 0.0037 0.72693 0.0
H123 H 0.16963 0.97354 0.70144 0.0
H124 H 0.16075 0.04048 0.65713 0.0
C125 C 0.19892 0.12713 0.60803 0.0
C126 C 0.25765 0.15121 0.6291 0.0
C127 C 0.2616 0.11261 0.65576 0.0
C128 C 0.321 0.13082 0.67111 0.0
C129 C 0.32425 0.09005 0.69646 0.0
C130 C 0.27 0.034 0.70723 0.0
C131 C 0.21168 0.01696 0.69284 0.0
C132 C 0.20726 0.05556 0.66732 0.0
H133 H 0.43481 0.2241 0.72412 0.0
C134 C 0.464 0.22351 0.70293 0.0
H135 H 0.46894 0.20378 0.64874 0.0
H136 H 0.26394 0.24066 0.58296 0.0
H137 H 0.35739 0.34247 0.56844 0.0
H138 H 0.4601 0.37548 0.59625 0.0
H139 H 0.46994 0.30665 0.63858 0.0
C140 C 0.43936 0.20265 0.67033 0.0
C141 C 0.37567 0.18825 0.66022 0.0
C142 C 0.37053 0.22975 0.63621 0.0
C143 C 0.31134 0.21117 0.62058 0.0
C144 C 0.30777 0.25263 0.59584 0.0
C145 C 0.36104 0.31124 0.58727 0.0
C146 C 0.41887 0.32979 0.60288 0.0
C147 C 0.42388 0.2897 0.62703 0.0
H148 H 0.03515 0.22146 0.09014 0.0
C149 C 0.05979 0.19576 0.09072 0.0
H150 H 0.1315 0.1871 0.11538 0.0
H151 H 0.28129 0.48295 0.15321 0.0
H152 H 0.35341 0.47632 0.11261 0.0
H153 H 0.3236 0.37465 0.08297 0.0
H154 H 0.22171 0.27911 0.09384 0.0
C155 C 0.1064 0.21229 0.11445 0.0
C156 C 0.12869 0.26932 0.13739 0.0
C157 C 0.18893 0.32405 0.13118 0.0
C158 C 0.20578 0.38262 0.14791 0.0
C159 C 0.26578 0.43729 0.1408 0.0
C160 C 0.30771 0.43411 0.11766 0.0
C161 C 0.29095 0.37687 0.10101 0.0
C162 C 0.23227 0.32236 0.1075 0.0
H163 H 0.20061 0.44913 0.23381 0.0
C164 C 0.19817 0.47696 0.2121 0.0
H165 H 0.17322 0.47796 0.15849 0.0
H166 H 0.01673 0.16926 0.16157 0.0
H167 H 0.94685 0.17489 0.2046 0.0
H168 H -0.02507 0.27755 0.23237 0.0
H169 H 0.07327 0.3751 0.21752 0.0
C170 C 0.17415 0.44959 0.1804 0.0
C171 C 0.16236 0.386 0.17072 0.0
C172 C 0.10495 0.32996 0.17978 0.0
C173 C 0.08824 0.27117 0.16324 0.0
C174 C 0.03081 0.21543 0.17278 0.0
C175 C -0.00943 0.21799 0.19754 0.0
C176 C 0.00643 0.2758 0.21322 0.0
C177 C 0.06287 0.33139 0.20446 0.0
H178 H 0.82779 0.04653 0.60013 0.0
C179 C 0.87788 0.06422 0.60249 0.0
H180 H 0.96181 0.12163 0.63168 0.0
H181 H 0.87241 0.3103 0.67621 0.0
H182 H -0.02628 0.38119 0.64827 0.0
H183 H 0.03507 0.3386 0.62193 0.0
H184 H -0.00406 0.22536 0.62356 0.0
C185 C 0.91191 0.10448 0.62905 0.0
C186 C 0.88375 0.13177 0.65245 0.0
C187 C 0.90846 0.19835 0.6518 0.0
C188 C 0.8728 0.2228 0.66643 0.0
C189 C 0.89742 0.2893 0.66492 0.0
C190 C 0.95551 0.33046 0.64911 0.0
C191 C -0.00993 0.30648 0.63433 0.0
C192 C 0.96698 0.24124 0.63545 0.0
H193 H 0.76697 0.20436 0.7411 0.0
C194 C 0.75184 0.21576 0.71666 0.0
H195 H 0.75488 0.21618 0.66047 0.0
H196 H 0.83453 0.00606 0.66845 0.0
H197 H 0.7354 0.93602 0.69892 0.0
H198 H 0.66993 0.97719 0.72081 0.0
H199 H 0.70395 0.0888 0.71345 0.0
C200 C 0.76842 0.20325 0.68511 0.0
C201 C 0.8127 0.18065 0.68127 0.0
C202 C 0.79173 0.11543 0.68589 0.0
C203 C 0.82812 0.09116 0.67201 0.0
C204 C 0.80724 0.02613 0.67744 0.0
C205 C 0.75081 0.9857 0.69504 0.0
C206 C 0.71405 0.00895 0.70748 0.0
C207 C 0.73402 0.07306 0.70302 0.0
H208 H 0.74935 0.92836 0.08147 0.0
C209 C 0.77627 0.90511 0.0835 0.0
H210 H 0.78306 0.83154 0.10807 0.0
H211 H 0.58065 0.87691 0.20244 0.0
H212 H 0.67316 0.97667 0.22088 0.0
H213 H 0.77832 0.00959 0.19724 0.0
H214 H 0.79123 0.94317 0.15443 0.0
C215 C 0.75714 0.85577 0.10589 0.0
C216 C 0.69747 0.83023 0.12607 0.0
C217 C 0.69124 0.86829 0.15217 0.0
C218 C 0.63104 0.84812 0.16683 0.0
C219 C 0.62545 0.88881 0.19124 0.0
C220 C 0.67823 0.9464 0.20199 0.0
C221 C 0.7374 0.96504 0.18858 0.0
C222 C 0.7441 0.92671 0.16389 0.0
H223 H 0.52199 0.75692 0.22076 0.0
C224 C 0.49087 0.75382 0.19956 0.0
H225 H 0.48186 0.76642 0.14473 0.0
H226 H 0.69558 0.74196 0.0806 0.0
H227 H 0.60498 0.63776 0.06616 0.0
H228 H 0.50122 0.6009 0.09326 0.0
H229 H 0.48743 0.66826 0.13478 0.0
C230 C 0.51323 0.77117 0.16633 0.0
C231 C 0.57792 0.78886 0.15617 0.0
C232 C 0.58546 0.74826 0.13263 0.0
C233 C 0.64536 0.76904 0.11747 0.0
C234 C 0.65121 0.72833 0.09317 0.0
C235 C 0.59958 0.66836 0.08464 0.0
C236 C 0.54116 0.64765 0.09985 0.0
C237 C 0.53386 0.68692 0.12354 0.0
H238 H 0.91792 0.76198 0.58589 0.0
C239 C 0.89519 0.78952 0.58718 0.0
H240 H 0.82663 0.80161 0.61287 0.0
H241 H 0.66419 0.50694 0.65072 0.0
H242 H 0.5931 0.51908 0.61177 0.0
H243 H 0.62762 0.62197 0.58243 0.0
H244 H 0.73315 0.71322 0.59196 0.0
C245 C 0.84964 0.77441 0.61125 0.0
C246 C 0.82563 0.71669 0.63372 0.0
C247 C 0.76343 0.66443 0.62819 0.0
C248 C 0.74385 0.60506 0.64468 0.0
C249 C 0.68176 0.55297 0.63838 0.0
C250 C 0.64042 0.55935 0.61621 0.0
C251 C 0.65983 0.61728 0.59974 0.0
C252 C 0.7206 0.66932 0.60546 0.0
H253 H 0.75359 0.53721 0.73031 0.0
C254 C 0.75153 0.50771 0.70818 0.0
H255 H 0.76735 0.50322 0.65337 0.0
H256 H 0.94165 0.81214 0.65689 0.0
H257 H 0.01077 0.80119 0.69828 0.0
H258 H -0.02189 0.69688 0.72525 0.0
H259 H 0.87605 0.60308 0.71121 0.0
C260 C 0.77101 0.53319 0.67568 0.0
C261 C 0.78651 0.5983 0.66652 0.0
C262 C 0.84638 0.6521 0.6749 0.0
C263 C 0.86577 0.71178 0.6587 0.0
C264 C 0.92544 0.76532 0.66775 0.0
C265 C 0.96531 0.75973 0.69159 0.0
C266 C 0.94689 0.70101 0.70682 0.0
C267 C 0.88822 0.64755 0.69855 0.0
H268 H 0.06245 0.92471 0.38396 0.0
C269 C 0.07022 0.91529 0.4112 0.0
H270 H 0.10501 0.87106 0.44411 0.0
H271 H 0.08756 0.66998 0.33628 0.0
H272 H 0.00308 0.6029 0.37698 0.0
H273 H 0.96781 0.65025 0.4222 0.0
H274 H 0.01747 0.76506 0.42722 0.0
C275 C 0.09889 0.88285 0.4171 0.0
C276 C 0.11575 0.85528 0.38711 0.0
C277 C 0.0849 0.78801 0.38391 0.0
C278 C 0.10446 0.7607 0.35749 0.0
C279 C 0.07446 0.69341 0.35571 0.0
C280 C 0.02571 0.65424 0.37888 0.0
C281 C 0.00588 0.6809 0.40434 0.0
C282 C 0.03495 0.74692 0.40699 0.0
H283 H 0.26896 0.82763 0.34677 0.0
C284 C 0.24622 0.79177 0.32592 0.0
H285 H 0.16206 0.7341 0.2972 0.0
H286 H 0.18491 0.98671 0.38518 0.0
H287 H 0.26228 0.0526 0.34079 0.0
H288 H 0.28921 0.00394 0.29196 0.0
H289 H 0.23923 0.88855 0.28773 0.0
C290 C 0.18803 0.77448 0.3151 0.0
C291 C 0.15461 0.80088 0.33434 0.0
C292 C 0.18061 0.86766 0.33502 0.0
C293 C 0.16273 0.89528 0.36214 0.0
C294 C 0.19414 0.96268 0.36417 0.0
C295 C 0.23915 0.0012 0.33898 0.0
C296 C 0.25446 0.97384 0.31154 0.0
C297 C 0.22582 0.90781 0.30953 0.0
H298 H 0.22918 0.1368 0.9474 0.0
C299 C 0.18346 0.10708 0.93465 0.0
H300 H 0.13423 0.07193 0.88575 0.0
H301 H 0.42201 0.32504 0.85198 0.0
H302 H 0.38297 0.38762 0.87903 0.0
H303 H 0.27566 0.33494 0.90418 0.0
H304 H 0.20704 0.21942 0.90268 0.0
C305 C 0.17942 0.10202 0.89891 0.0
C306 C 0.23698 0.13457 0.87668 0.0
C307 C 0.27536 0.202 0.87683 0.0
C308 C 0.33664 0.23227 0.86197 0.0
C309 C 0.37507 0.29969 0.86322 0.0
C310 C 0.35312 0.33611 0.87845 0.0
C311 C 0.29272 0.30645 0.89263 0.0
C312 C 0.25402 0.24017 0.89185 0.0
H313 H 0.42714 0.2196 0.78572 0.0
C314 C 0.4554 0.23502 0.80985 0.0
H315 H 0.45576 0.24125 0.86596 0.0
H316 H 0.16876 0.00551 0.86489 0.0
H317 H 0.20449 0.94378 0.83362 0.0
H318 H 0.31156 -0.00381 0.80825 0.0
H319 H 0.38332 0.11035 0.8139 0.0
C320 C 0.42749 0.22477 0.84175 0.0
C321 C 0.35877 0.19505 0.84663 0.0
C322 C 0.31749 0.12823 0.84256 0.0
C323 C 0.25602 0.09793 0.85745 0.0
C324 C 0.21594 0.03092 0.85403 0.0
C325 C 0.23587 -0.00508 0.83618 0.0
C326 C 0.29614 0.02443 0.82189 0.0
C327 C 0.33689 0.09019 0.82525 0.0
H328 H 0.0891 0.24779 0.4592 0.0
C329 C 0.05888 0.20333 0.44496 0.0
H330 H 0.01431 0.16042 0.396 0.0
H331 H 0.1099 0.47128 0.38859 0.0
H332 H 0.0301 0.44649 0.43337 0.0
H333 H 0.96689 0.33794 0.45825 0.0
H334 H -0.01651 0.25374 0.43863 0.0
C335 C 0.0439 0.20456 0.4106 0.0
C336 C 0.07193 0.26564 0.39085 0.0
C337 C 0.06026 0.31356 0.40189 0.0
C338 C 0.09601 0.37569 0.38722 0.0
C339 C 0.08439 0.42327 0.39914 0.0
C340 C 0.03848 0.4096 0.42465 0.0
C341 C 0.00294 0.34852 0.43868 0.0
C342 C 0.01331 0.3008 0.42743 0.0
H343 H 0.16472 0.45338 0.29833 0.0
C344 C 0.19315 0.48293 0.32053 0.0
H345 H 0.21661 0.48703 0.37491 0.0
H346 H 0.09638 0.18056 0.35892 0.0
H347 H 0.17103 0.20335 0.31144 0.0
H348 H 0.23479 0.31184 0.28666 0.0
H349 H 0.22405 0.39789 0.30904 0.0
C350 C 0.18874 0.457 0.35267 0.0
C351 C 0.14258 0.38935 0.36122 0.0
C352 C 0.14983 0.33977 0.34761 0.0
C353 C 0.11376 0.27744 0.36226 0.0
C354 C 0.12246 0.22878 0.34878 0.0
C355 C 0.16526 0.24121 0.32155 0.0
C356 C 0.20111 0.30227 0.30758 0.0
C357 C 0.19416 0.35128 0.32058 0.0
H358 H 0.90783 0.07277 0.88475 0.0
C359 C 0.89745 0.08001 0.91186 0.0
H360 H 0.85797 0.12027 0.94421 0.0
H361 H 0.87641 0.32279 0.83689 0.0
H362 H 0.95788 0.39018 0.87947 0.0
H363 H -0.00754 0.34337 0.92549 0.0
H364 H 0.94514 0.22874 0.92941 0.0
C365 C 0.86688 0.11064 0.91731 0.0
C366 C 0.85051 0.13822 0.88705 0.0
C367 C 0.87994 0.20541 0.88456 0.0
C368 C 0.86072 0.23242 0.85773 0.0
C369 C 0.8893 0.29959 0.85661 0.0
C370 C 0.93631 0.33893 0.88086 0.0
C371 C 0.95576 0.31258 0.90677 0.0
C372 C 0.92807 0.24666 0.90877 0.0
H373 H 0.69644 0.16154 0.84392 0.0
C374 C 0.71928 0.19834 0.82369 0.0
H375 H 0.80412 0.25861 0.79652 0.0
H376 H 0.7844 0.00688 0.88356 0.0
H377 H 0.70997 0.94093 0.83762 0.0
H378 H 0.68358 -0.01071 0.78835 0.0
H379 H 0.73124 0.10449 0.78516 0.0
C380 C 0.77825 0.21746 0.81377 0.0
C381 C 0.81223 0.19203 0.8335 0.0
C382 C 0.78778 0.12553 0.83361 0.0
C383 C 0.80535 0.09815 0.86107 0.0
C384 C 0.77536 0.03083 0.8624 0.0
C385 C 0.73205 -0.00775 0.83631 0.0
C386 C 0.71705 0.01946 0.80861 0.0
C387 C 0.74432 0.08534 0.8072 0.0
H388 H 0.73314 0.84997 0.442 0.0
C389 C 0.77965 0.87728 0.43001 0.0
H390 H 0.8318 0.90638 0.38197 0.0
H391 H 0.53632 0.66134 0.35105 0.0
H392 H 0.5684 0.59662 0.38284 0.0
H393 H 0.67553 0.64557 0.40838 0.0
H394 H 0.75095 0.75953 0.40254 0.0
C395 C 0.78569 0.87885 0.39433 0.0
C396 C 0.7292 0.84652 0.37102 0.0
C397 C 0.68701 0.77977 0.37356 0.0
C398 C 0.62587 0.75157 0.35848 0.0
C399 C 0.58338 0.68507 0.36233 0.0
C400 C 0.60132 0.64746 0.38029 0.0
C401 C 0.66162 0.67502 0.39469 0.0
C402 C 0.70424 0.74042 0.3914 0.0
H403 H 0.53386 0.7592 0.28109 0.0
C404 C 0.50859 0.7509 0.30589 0.0
H405 H 0.5143 0.75637 0.36201 0.0
H406 H 0.80561 0.97271 0.35346 0.0
H407 H 0.77679 0.03507 0.31697 0.0
H408 H 0.67002 0.98612 0.29105 0.0
H409 H 0.5917 0.87456 0.3012 0.0
C410 C 0.53973 0.76578 0.33706 0.0
C411 C 0.60777 0.7901 0.34057 0.0
C412 C 0.65299 0.85501 0.33355 0.0
C413 C 0.71431 0.88331 0.34872 0.0
C414 C 0.75836 0.94881 0.34253 0.0
C415 C 0.74241 0.98514 0.32165 0.0
C416 C 0.6823 0.95756 0.30703 0.0
C417 C 0.63774 0.8934 0.31306 0.0
H418 H 0.87233 0.74095 0.95952 0.0
C419 C 0.89341 0.78513 0.94445 0.0
H420 H 0.91432 0.82712 0.89319 0.0
H421 H 0.89712 0.58757 0.81841 0.0
H422 H 0.00599 0.67067 0.80708 0.0
H423 H 0.0511 0.77803 0.83336 0.0
H424 H -0.01231 0.80306 0.87095 0.0
C425 C 0.89268 0.78333 0.90861 0.0
C426 C 0.8637 0.72188 0.88901 0.0
C427 C 0.90152 0.70863 0.86681 0.0
C428 C 0.87574 0.64677 0.85179 0.0
C429 C 0.91454 0.63392 0.83039 0.0
C430 C -0.02296 0.68114 0.82371 0.0
C431 C 0.00242 0.7416 0.83849 0.0
C432 C 0.96545 0.75537 0.85998 0.0
H433 H 0.771 0.5383 0.79584 0.0
C434 C 0.76548 0.50703 0.81777 0.0
H435 H 0.78185 0.50018 0.87235 0.0
H436 H 0.7741 0.73744 0.92173 0.0
H437 H 0.66404 0.65588 0.93041 0.0
H438 H 0.62066 0.54698 0.90678 0.0
H439 H 0.68697 0.51944 0.8739 0.0
C440 C 0.78855 0.53143 0.85015 0.0
C441 C 0.81257 0.59883 0.85918 0.0
C442 C 0.77334 0.61366 0.87879 0.0
C443 C 0.79867 0.67571 0.89322 0.0
C444 C 0.7579 0.69019 0.91146 0.0
C445 C 0.69445 0.64399 0.91633 0.0
C446 C 0.67002 0.58273 0.90298 0.0
C447 C 0.7087 0.5675 0.88431 0.0
loop_
_geom_bond_atom_site_label_1
_geom_bond_atom_site_label_2
_geom_bond_distance
_geom_bond_site_symmetry_2
_ccdc_geom_bond_type
O0 Zn1 1.953 1_545 S
O0 C16 1.225 . S
Zn1 O0 1.953 1_565 S
Zn1 O2 1.949 1_566 S
Zn1 O8 1.919 1_455 S
Zn1 O13 1.924 1_465 S
O2 Zn1 1.949 1_544 S
O2 Zn3 1.923 1_445 S
O2 Zn4 1.950 . S
O2 Zn5 1.945 1_455 S
Zn3 O2 1.923 1_665 S
Zn3 O6 1.933 . S
Zn3 O9 1.941 1_554 S
Zn3 O10 1.965 1_655 S
Zn4 O2 1.950 . S
Zn4 O11 1.938 . S
Zn4 O12 1.906 . S
Zn4 O22 1.953 1_554 S
Zn5 O2 1.945 1_655 S
Zn5 O7 1.932 1_545 S
Zn5 O14 1.977 1_655 S
Zn5 O15 1.910 1_554 S
O6 Zn3 1.933 . S
O6 C17 1.226 . S
O7 Zn5 1.932 1_565 S
O7 C17 1.307 . S
O8 Zn1 1.919 1_655 S
O8 C19 1.253 . S
O9 Zn3 1.941 1_556 S
O9 C19 1.283 . S
O10 Zn3 1.965 1_455 S
O10 C18 1.303 . S
O11 Zn4 1.938 . S
O11 C18 1.247 1_545 S
O12 Zn4 1.906 . S
O12 C20 1.304 . S
O13 Zn1 1.924 1_645 S
O13 C21 1.311 . S
O14 Zn5 1.977 1_455 S
O14 C20 1.272 . S
O15 Zn5 1.910 1_556 S
O15 C21 1.231 . S
C16 O0 1.225 . S
C16 O22 1.298 . S
C17 O6 1.226 . S
C17 O7 1.307 . S
C18 O10 1.303 . S
C18 O11 1.247 1_565 S
C19 O8 1.253 . S
C19 O9 1.283 . S
C20 O12 1.304 . S
C20 O14 1.272 . S
C21 O13 1.311 . S
C21 O15 1.231 . S
O22 Zn4 1.953 1_556 S
O22 C16 1.298 . S
O23 Zn24 1.953 . S
O23 C39 1.225 . S
Zn24 O23 1.953 . S
Zn24 O25 1.949 . S
Zn24 O31 1.919 1_455 S
Zn24 O36 1.924 . S
O25 Zn24 1.949 . S
O25 Zn26 1.923 1_445 S
O25 Zn27 1.950 . S
O25 Zn28 1.945 1_545 S
Zn26 O25 1.923 1_665 S
Zn26 O29 1.933 . S
Zn26 O32 1.943 1_565 S
Zn26 O33 1.965 . S
Zn27 O25 1.950 . S
Zn27 O34 1.938 1_445 S
Zn27 O35 1.906 1_545 S
Zn27 O45 1.953 . S
Zn28 O25 1.945 1_565 S
Zn28 O30 1.932 1_455 S
Zn28 O37 1.977 . S
Zn28 O38 1.910 1_565 S
O29 Zn26 1.933 . S
O29 C40 1.226 . S
O30 Zn28 1.932 1_655 S
O30 C40 1.307 . S
O31 Zn24 1.919 1_655 S
O31 C42 1.253 . S
O32 Zn26 1.943 1_545 S
O32 C42 1.282 . S
O33 Zn26 1.965 . S
O33 C41 1.303 . S
O34 Zn27 1.938 1_665 S
O34 C41 1.247 . S
O35 Zn27 1.906 1_565 S
O35 C43 1.304 . S
O36 Zn24 1.924 . S
O36 C44 1.311 . S
O37 Zn28 1.977 . S
O37 C43 1.272 . S
O38 Zn28 1.910 1_545 S
O38 C44 1.231 . S
C39 O23 1.225 . S
C39 O45 1.298 . S
C40 O29 1.226 . S
C40 O30 1.307 . S
C41 O33 1.303 . S
C41 O34 1.247 . S
C42 O31 1.253 . S
C42 O32 1.282 . S
C43 O35 1.304 . S
C43 O37 1.272 . S
C44 O36 1.311 . S
C44 O38 1.231 . S
O45 Zn27 1.953 . S
O45 C39 1.298 . S
Zn46 O52 1.920 . S
Zn46 O58 1.898 . S
Zn46 O61 1.905 . S
Zn47 O55 1.905 . S
Zn47 O56 1.898 . S
Zn47 O64 1.920 . S
Zn48 O51 2.080 . S
Zn48 O54 2.114 . S
Zn48 O57 2.120 . S
Zn48 O59 2.120 . S
Zn48 O60 2.114 . S
Zn48 O63 2.080 . S
C49 O54 1.166 . S
C49 O55 1.182 . S
C50 O56 1.167 . S
C50 O57 1.299 . S
O51 Zn48 2.080 . S
O51 C65 1.305 . S
O52 Zn46 1.920 . S
O52 C65 1.234 . S
C53 O58 1.167 . S
C53 O59 1.299 . S
O54 Zn48 2.114 . S
O54 C49 1.166 . S
O55 Zn47 1.905 . S
O55 C49 1.182 . S
O56 Zn47 1.898 . S
O56 C50 1.167 . S
O57 Zn48 2.120 . S
O57 C50 1.299 . S
O58 Zn46 1.898 . S
O58 C53 1.167 . S
O59 Zn48 2.120 . S
O59 C53 1.299 . S
O60 Zn48 2.114 . S
O60 C62 1.166 . S
O61 Zn46 1.905 . S
O61 C62 1.182 . S
C62 O60 1.166 . S
C62 O61 1.182 . S
O63 Zn48 2.080 . S
O63 C66 1.305 . S
O64 Zn47 1.920 . S
O64 C66 1.234 . S
C65 O51 1.305 . S
C65 O52 1.234 . S
C66 O63 1.305 . S
C66 O64 1.234 . S
Zn67 O73 1.920 . S
Zn67 O79 1.898 . S
Zn67 O82 1.905 . S
Zn68 O76 1.905 . S
Zn68 O77 1.898 . S
Zn68 O85 1.920 . S
Zn69 O72 2.080 . S
Zn69 O75 2.114 . S
Zn69 O78 2.120 . S
Zn69 O80 2.120 . S
Zn69 O81 2.114 . S
Zn69 O84 2.080 . S
C70 O75 1.166 . S
C70 O76 1.182 . S
C71 O77 1.167 . S
C71 O78 1.299 . S
O72 Zn69 2.080 . S
O72 C86 1.305 . S
O73 Zn67 1.920 . S
O73 C86 1.234 . S
C74 O79 1.167 . S
C74 O80 1.299 . S
O75 Zn69 2.114 . S
O75 C70 1.166 . S
O76 Zn68 1.905 . S
O76 C70 1.182 . S
O77 Zn68 1.898 . S
O77 C71 1.167 . S
O78 Zn69 2.120 . S
O78 C71 1.299 . S
O79 Zn67 1.898 . S
O79 C74 1.167 . S
O80 Zn69 2.120 . S
O80 C74 1.299 . S
O81 Zn69 2.114 . S
O81 C83 1.166 . S
O82 Zn67 1.905 . S
O82 C83 1.182 . S
C83 O81 1.166 . S
C83 O82 1.182 . S
O84 Zn69 2.080 . S
O84 C87 1.305 . S
O85 Zn68 1.920 . S
O85 C87 1.234 . S
C86 O72 1.305 . S
C86 O73 1.234 . S
C87 O84 1.305 . S
C87 O85 1.234 . S
H88 C89 0.951 . S
C89 H88 0.951 . S
C89 C95 1.265 . S
H90 C95 0.950 . S
H91 C99 0.949 . S
H92 C100 0.950 . S
H93 C101 0.951 . S
H94 C102 0.951 . S
C95 C89 1.265 . S
C95 H90 0.950 . S
C95 C96 1.478 . S
C96 C95 1.478 . S
C96 C97 1.397 . S
C96 C113 1.394 . S
C97 C96 1.397 . S
C97 C98 1.438 . S
C97 C102 1.429 . S
C98 C97 1.438 . S
C98 C99 1.428 . S
C98 C111 1.394 . S
C99 H91 0.949 . S
C99 C98 1.428 . S
C99 C100 1.345 . S
C100 H92 0.950 . S
C100 C99 1.345 . S
C100 C101 1.424 . S
C101 H93 0.951 . S
C101 C100 1.424 . S
C101 C102 1.347 . S
C102 H94 0.951 . S
C102 C97 1.429 . S
C102 C101 1.347 . S
H103 C104 0.951 . S
C104 H103 0.951 . S
C104 C110 1.265 . S
H105 C110 0.950 . S
H106 C114 0.949 . S
H107 C115 0.950 1_545 S
H108 C116 0.951 . S
H109 C117 0.951 . S
C110 C104 1.265 . S
C110 H105 0.950 . S
C110 C111 1.478 . S
C111 C98 1.394 . S
C111 C110 1.478 . S
C111 C112 1.397 . S
C112 C111 1.397 . S
C112 C113 1.438 . S
C112 C117 1.429 . S
C113 C96 1.394 . S
C113 C112 1.438 . S
C113 C114 1.428 . S
C114 H106 0.949 . S
C114 C113 1.428 . S
C114 C115 1.345 . S
C115 H107 0.950 1_565 S
C115 C114 1.345 . S
C115 C116 1.424 . S
C116 H108 0.951 . S
C116 C115 1.424 . S
C116 C117 1.347 . S
C117 H109 0.951 . S
C117 C112 1.429 . S
C117 C116 1.347 . S
H118 C119 0.951 . S
C119 H118 0.951 . S
C119 C125 1.265 . S
H120 C125 0.950 . S
H121 C129 0.949 . S
H122 C130 0.950 1_565 S
H123 C131 0.951 1_565 S
H124 C132 0.951 . S
C125 C119 1.265 . S
C125 H120 0.950 . S
C125 C126 1.478 . S
C126 C125 1.478 . S
C126 C127 1.397 . S
C126 C143 1.394 . S
C127 C126 1.397 . S
C127 C128 1.438 . S
C127 C132 1.429 . S
C128 C127 1.438 . S
C128 C129 1.428 . S
C128 C141 1.394 . S
C129 H121 0.949 . S
C129 C128 1.428 . S
C129 C130 1.345 . S
C130 H122 0.950 1_545 S
C130 C129 1.345 . S
C130 C131 1.424 . S
C131 H123 0.951 1_545 S
C131 C130 1.424 . S
C131 C132 1.347 . S
C132 H124 0.951 . S
C132 C127 1.429 . S
C132 C131 1.347 . S
H133 C134 0.951 . S
C134 H133 0.951 . S
C134 C140 1.265 . S
H135 C140 0.950 . S
H136 C144 0.949 . S
H137 C145 0.950 . S
H138 C146 0.951 . S
H139 C147 0.951 . S
C140 C134 1.265 . S
C140 H135 0.950 . S
C140 C141 1.478 . S
C141 C128 1.394 . S
C141 C140 1.478 . S
C141 C142 1.397 . S
C142 C141 1.397 . S
C142 C143 1.438 . S
C142 C147 1.429 . S
C143 C126 1.394 . S
C143 C142 1.438 . S
C143 C144 1.428 . S
C144 H136 0.949 . S
C144 C143 1.428 . S
C144 C145 1.345 . S
C145 H137 0.950 . S
C145 C144 1.345 . S
C145 C146 1.424 . S
C146 H138 0.951 . S
C146 C145 1.424 . S
C146 C147 1.347 . S
C147 H139 0.951 . S
C147 C142 1.429 . S
C147 C146 1.347 . S
H148 C149 0.951 . S
C149 H148 0.951 . S
C149 C155 1.265 . S
H150 C155 0.950 . S
H151 C159 0.949 . S
H152 C160 0.950 . S
H153 C161 0.951 . S
H154 C162 0.951 . S
C155 C149 1.265 . S
C155 H150 0.950 . S
C155 C156 1.478 . S
C156 C155 1.478 . S
C156 C157 1.397 . S
C156 C173 1.394 . S
C157 C156 1.397 . S
C157 C158 1.438 . S
C157 C162 1.429 . S
C158 C157 1.438 . S
C158 C159 1.428 . S
C158 C171 1.394 . S
C159 H151 0.949 . S
C159 C158 1.428 . S
C159 C160 1.345 . S
C160 H152 0.950 . S
C160 C159 1.345 . S
C160 C161 1.424 . S
C161 H153 0.951 . S
C161 C160 1.424 . S
C161 C162 1.347 . S
C162 H154 0.951 . S
C162 C157 1.429 . S
C162 C161 1.347 . S
H163 C164 0.951 . S
C164 H163 0.951 . S
C164 C170 1.265 . S
H165 C170 0.950 . S
H166 C174 0.949 . S
H167 C175 0.950 1_655 S
H168 C176 0.951 . S
H169 C177 0.951 . S
C170 C164 1.265 . S
C170 H165 0.950 . S
C170 C171 1.478 . S
C171 C158 1.394 . S
C171 C170 1.478 . S
C171 C172 1.397 . S
C172 C171 1.397 . S
C172 C173 1.438 . S
C172 C177 1.429 . S
C173 C156 1.394 . S
C173 C172 1.438 . S
C173 C174 1.428 . S
C174 H166 0.949 . S
C174 C173 1.428 . S
C174 C175 1.345 . S
C175 H167 0.950 1_455 S
C175 C174 1.345 . S
C175 C176 1.424 . S
C176 H168 0.951 . S
C176 C175 1.424 . S
C176 C177 1.347 . S
C177 H169 0.951 . S
C177 C172 1.429 . S
C177 C176 1.347 . S
H178 C179 0.951 . S
C179 H178 0.951 . S
C179 C185 1.265 . S
H180 C185 0.950 . S
H181 C189 0.949 . S
H182 C190 0.950 . S
H183 C191 0.951 . S
H184 C192 0.951 . S
C185 C179 1.265 . S
C185 H180 0.950 . S
C185 C186 1.478 . S
C186 C185 1.478 . S
C186 C187 1.397 . S
C186 C203 1.394 . S
C187 C186 1.397 . S
C187 C188 1.438 . S
C187 C192 1.429 . S
C188 C187 1.438 . S
C188 C189 1.428 . S
C188 C201 1.394 . S
C189 H181 0.949 . S
C189 C188 1.428 . S
C189 C190 1.345 . S
C190 H182 0.950 . S
C190 C189 1.345 . S
C190 C191 1.424 . S
C191 H183 0.951 . S
C191 C190 1.424 . S
C191 C192 1.347 . S
C192 H184 0.951 . S
C192 C187 1.429 . S
C192 C191 1.347 . S
H193 C194 0.951 . S
C194 H193 0.951 . S
C194 C200 1.265 . S
H195 C200 0.950 . S
H196 C204 0.949 . S
H197 C205 0.950 . S
H198 C206 0.951 . S
H199 C207 0.951 . S
C200 C194 1.265 . S
C200 H195 0.950 . S
C200 C201 1.478 . S
C201 C188 1.394 . S
C201 C200 1.478 . S
C201 C202 1.397 . S
C202 C201 1.397 . S
C202 C203 1.438 . S
C202 C207 1.429 . S
C203 C186 1.394 . S
C203 C202 1.438 . S
C203 C204 1.428 . S
C204 H196 0.949 . S
C204 C203 1.428 . S
C204 C205 1.345 . S
C205 H197 0.950 . S
C205 C204 1.345 . S
C205 C206 1.424 . S
C206 H198 0.951 . S
C206 C205 1.424 . S
C206 C207 1.347 . S
C207 H199 0.951 . S
C207 C202 1.429 . S
C207 C206 1.347 . S
H208 C209 0.951 . S
C209 H208 0.951 . S
C209 C215 1.265 . S
H210 C215 0.950 . S
H211 C219 0.949 . S
H212 C220 0.950 . S
H213 C221 0.951 1_545 S
H214 C222 0.951 . S
C215 C209 1.265 . S
C215 H210 0.950 . S
C215 C216 1.478 . S
C216 C215 1.478 . S
C216 C217 1.397 . S
C216 C233 1.394 . S
C217 C216 1.397 . S
C217 C218 1.438 . S
C217 C222 1.429 . S
C218 C217 1.438 . S
C218 C219 1.428 . S
C218 C231 1.394 . S
C219 H211 0.949 . S
C219 C218 1.428 . S
C219 C220 1.345 . S
C220 H212 0.950 . S
C220 C219 1.345 . S
C220 C221 1.424 . S
C221 H213 0.951 1_565 S
C221 C220 1.424 . S
C221 C222 1.347 . S
C222 H214 0.951 . S
C222 C217 1.429 . S
C222 C221 1.347 . S
H223 C224 0.951 . S
C224 H223 0.951 . S
C224 C230 1.265 . S
H225 C230 0.950 . S
H226 C234 0.949 . S
H227 C235 0.950 . S
H228 C236 0.951 . S
H229 C237 0.951 . S
C230 C224 1.265 . S
C230 H225 0.950 . S
C230 C231 1.478 . S
C231 C218 1.394 . S
C231 C230 1.478 . S
C231 C232 1.397 . S
C232 C231 1.397 . S
C232 C233 1.438 . S
C232 C237 1.429 . S
C233 C216 1.394 . S
C233 C232 1.438 . S
C233 C234 1.428 . S
C234 H226 0.949 . S
C234 C233 1.428 . S
C234 C235 1.345 . S
C235 H227 0.950 . S
C235 C234 1.345 . S
C235 C236 1.424 . S
C236 H228 0.951 . S
C236 C235 1.424 . S
C236 C237 1.347 . S
C237 H229 0.951 . S
C237 C232 1.429 . S
C237 C236 1.347 . S
H238 C239 0.951 . S
C239 H238 0.951 . S
C239 C245 1.265 . S
H240 C245 0.950 . S
H241 C249 0.949 . S
H242 C250 0.950 . S
H243 C251 0.951 . S
H244 C252 0.951 . S
C245 C239 1.265 . S
C245 H240 0.950 . S
C245 C246 1.478 . S
C246 C245 1.478 . S
C246 C247 1.397 . S
C246 C263 1.394 . S
C247 C246 1.397 . S
C247 C248 1.438 . S
C247 C252 1.429 . S
C248 C247 1.438 . S
C248 C249 1.428 . S
C248 C261 1.394 . S
C249 H241 0.949 . S
C249 C248 1.428 . S
C249 C250 1.345 . S
C250 H242 0.950 . S
C250 C249 1.345 . S
C250 C251 1.424 . S
C251 H243 0.951 . S
C251 C250 1.424 . S
C251 C252 1.347 . S
C252 H244 0.951 . S
C252 C247 1.429 . S
C252 C251 1.347 . S
H253 C254 0.951 . S
C254 H253 0.951 . S
C254 C260 1.265 . S
H255 C260 0.950 . S
H256 C264 0.949 . S
H257 C265 0.950 1_455 S
H258 C266 0.951 . S
H259 C267 0.951 . S
C260 C254 1.265 . S
C260 H255 0.950 . S
C260 C261 1.478 . S
C261 C248 1.394 . S
C261 C260 1.478 . S
C261 C262 1.397 . S
C262 C261 1.397 . S
C262 C263 1.438 . S
C262 C267 1.429 . S
C263 C246 1.394 . S
C263 C262 1.438 . S
C263 C264 1.428 . S
C264 H256 0.949 . S
C264 C263 1.428 . S
C264 C265 1.345 . S
C265 H257 0.950 1_655 S
C265 C264 1.345 . S
C265 C266 1.424 . S
C266 H258 0.951 . S
C266 C265 1.424 . S
C266 C267 1.347 . S
C267 H259 0.951 . S
C267 C262 1.429 . S
C267 C266 1.347 . S
H268 C269 0.951 . S
C269 H268 0.951 . S
C269 C275 1.265 . S
H270 C275 0.950 . S
H271 C279 0.949 . S
H272 C280 0.950 . S
H273 C281 0.951 . S
H274 C282 0.951 . S
C275 C269 1.265 . S
C275 H270 0.950 . S
C275 C276 1.478 . S
C276 C275 1.478 . S
C276 C277 1.397 . S
C276 C293 1.394 . S
C277 C276 1.397 . S
C277 C278 1.438 . S
C277 C282 1.429 . S
C278 C277 1.438 . S
C278 C279 1.428 . S
C278 C291 1.394 . S
C279 H271 0.949 . S
C279 C278 1.428 . S
C279 C280 1.345 . S
C280 H272 0.950 . S
C280 C279 1.345 . S
C280 C281 1.424 . S
C281 H273 0.951 . S
C281 C280 1.424 . S
C281 C282 1.347 . S
C282 H274 0.951 . S
C282 C277 1.429 . S
C282 C281 1.347 . S
H283 C284 0.951 . S
C284 H283 0.951 . S
C284 C290 1.265 . S
H285 C290 0.950 . S
H286 C294 0.949 . S
H287 C295 0.950 . S
H288 C296 0.951 . S
H289 C297 0.951 . S
C290 C284 1.265 . S
C290 H285 0.950 . S
C290 C291 1.478 . S
C291 C278 1.394 . S
C291 C290 1.478 . S
C291 C292 1.397 . S
C292 C291 1.397 . S
C292 C293 1.438 . S
C292 C297 1.429 . S
C293 C276 1.394 . S
C293 C292 1.438 . S
C293 C294 1.428 . S
C294 H286 0.949 . S
C294 C293 1.428 . S
C294 C295 1.345 1_565 S
C295 H287 0.950 . S
C295 C294 1.345 1_545 S
C295 C296 1.424 . S
C296 H288 0.951 . S
C296 C295 1.424 . S
C296 C297 1.347 1_545 S
C297 H289 0.951 . S
C297 C292 1.429 . S
C297 C296 1.347 1_565 S
H298 C299 0.951 . S
C299 H298 0.951 . S
C299 C305 1.265 . S
H300 C305 0.950 . S
H301 C309 0.949 . S
H302 C310 0.950 . S
H303 C311 0.951 . S
H304 C312 0.951 . S
C305 C299 1.265 . S
C305 H300 0.950 . S
C305 C306 1.478 . S
C306 C305 1.478 . S
C306 C307 1.397 . S
C306 C323 1.394 . S
C307 C306 1.397 . S
C307 C308 1.438 . S
C307 C312 1.429 . S
C308 C307 1.438 . S
C308 C309 1.428 . S
C308 C321 1.394 . S
C309 H301 0.949 . S
C309 C308 1.428 . S
C309 C310 1.345 . S
C310 H302 0.950 . S
C310 C309 1.345 . S
C310 C311 1.424 . S
C311 H303 0.951 . S
C311 C310 1.424 . S
C311 C312 1.347 . S
C312 H304 0.951 . S
C312 C307 1.429 . S
C312 C311 1.347 . S
H313 C314 0.951 . S
C314 H313 0.951 . S
C314 C320 1.265 . S
H315 C320 0.950 . S
H316 C324 0.949 . S
H317 C325 0.950 1_565 S
H318 C326 0.951 . S
H319 C327 0.951 . S
C320 C314 1.265 . S
C320 H315 0.950 . S
C320 C321 1.478 . S
C321 C308 1.394 . S
C321 C320 1.478 . S
C321 C322 1.397 . S
C322 C321 1.397 . S
C322 C323 1.438 . S
C322 C327 1.429 . S
C323 C306 1.394 . S
C323 C322 1.438 . S
C323 C324 1.428 . S
C324 H316 0.949 . S
C324 C323 1.428 . S
C324 C325 1.345 . S
C325 H317 0.950 1_545 S
C325 C324 1.345 . S
C325 C326 1.424 . S
C326 H318 0.951 . S
C326 C325 1.424 . S
C326 C327 1.347 . S
C327 H319 0.951 . S
C327 C322 1.429 . S
C327 C326 1.347 . S
H328 C329 0.951 . S
C329 H328 0.951 . S
C329 C335 1.265 . S
H330 C335 0.950 . S
H331 C339 0.949 . S
H332 C340 0.950 . S
H333 C341 0.951 . S
H334 C342 0.951 . S
C335 C329 1.265 . S
C335 H330 0.950 . S
C335 C336 1.478 . S
C336 C335 1.478 . S
C336 C337 1.397 . S
C336 C353 1.394 . S
C337 C336 1.397 . S
C337 C338 1.438 . S
C337 C342 1.429 . S
C338 C337 1.438 . S
C338 C339 1.428 . S
C338 C351 1.394 . S
C339 H331 0.949 . S
C339 C338 1.428 . S
C339 C340 1.345 . S
C340 H332 0.950 . S
C340 C339 1.345 . S
C340 C341 1.424 . S
C341 H333 0.951 . S
C341 C340 1.424 . S
C341 C342 1.347 . S
C342 H334 0.951 . S
C342 C337 1.429 . S
C342 C341 1.347 . S
H343 C344 0.951 . S
C344 H343 0.951 . S
C344 C350 1.265 . S
H345 C350 0.950 . S
H346 C354 0.949 . S
H347 C355 0.950 . S
H348 C356 0.951 . S
H349 C357 0.951 . S
C350 C344 1.265 . S
C350 H345 0.950 . S
C350 C351 1.478 . S
C351 C338 1.394 . S
C351 C350 1.478 . S
C351 C352 1.397 . S
C352 C351 1.397 . S
C352 C353 1.438 . S
C352 C357 1.429 . S
C353 C336 1.394 . S
C353 C352 1.438 . S
C353 C354 1.428 . S
C354 H346 0.949 . S
C354 C353 1.428 . S
C354 C355 1.345 . S
C355 H347 0.950 . S
C355 C354 1.345 . S
C355 C356 1.424 . S
C356 H348 0.951 . S
C356 C355 1.424 . S
C356 C357 1.347 . S
C357 H349 0.951 . S
C357 C352 1.429 . S
C357 C356 1.347 . S
H358 C359 0.951 . S
C359 H358 0.951 . S
C359 C365 1.265 . S
H360 C365 0.950 . S
H361 C369 0.949 . S
H362 C370 0.950 . S
H363 C371 0.951 . S
H364 C372 0.951 . S
C365 C359 1.265 . S
C365 H360 0.950 . S
C365 C366 1.478 . S
C366 C365 1.478 . S
C366 C367 1.397 . S
C366 C383 1.394 . S
C367 C366 1.397 . S
C367 C368 1.438 . S
C367 C372 1.429 . S
C368 C367 1.438 . S
C368 C369 1.428 . S
C368 C381 1.394 . S
C369 H361 0.949 . S
C369 C368 1.428 . S
C369 C370 1.345 . S
C370 H362 0.950 . S
C370 C369 1.345 . S
C370 C371 1.424 . S
C371 H363 0.951 . S
C371 C370 1.424 . S
C371 C372 1.347 . S
C372 H364 0.951 . S
C372 C367 1.429 . S
C372 C371 1.347 . S
H373 C374 0.951 . S
C374 H373 0.951 . S
C374 C380 1.265 . S
H375 C380 0.950 . S
H376 C384 0.949 . S
H377 C385 0.950 1_565 S
H378 C386 0.951 1_565 S
H379 C387 0.951 . S
C380 C374 1.265 . S
C380 H375 0.950 . S
C380 C381 1.478 . S
C381 C368 1.394 . S
C381 C380 1.478 . S
C381 C382 1.397 . S
C382 C381 1.397 . S
C382 C383 1.438 . S
C382 C387 1.429 . S
C383 C366 1.394 . S
C383 C382 1.438 . S
C383 C384 1.428 . S
C384 H376 0.949 . S
C384 C383 1.428 . S
C384 C385 1.345 . S
C385 H377 0.950 1_545 S
C385 C384 1.345 . S
C385 C386 1.424 . S
C386 H378 0.951 1_545 S
C386 C385 1.424 . S
C386 C387 1.347 . S
C387 H379 0.951 . S
C387 C382 1.429 . S
C387 C386 1.347 . S
H388 C389 0.951 . S
C389 H388 0.951 . S
C389 C395 1.265 . S
H390 C395 0.950 . S
H391 C399 0.949 . S
H392 C400 0.950 . S
H393 C401 0.951 . S
H394 C402 0.951 . S
C395 C389 1.265 . S
C395 H390 0.950 . S
C395 C396 1.478 . S
C396 C395 1.478 . S
C396 C397 1.397 . S
C396 C413 1.394 . S
C397 C396 1.397 . S
C397 C398 1.438 . S
C397 C402 1.429 . S
C398 C397 1.438 . S
C398 C399 1.428 . S
C398 C411 1.394 . S
C399 H391 0.949 . S
C399 C398 1.428 . S
C399 C400 1.345 . S
C400 H392 0.950 . S
C400 C399 1.345 . S
C400 C401 1.424 . S
C401 H393 0.951 . S
C401 C400 1.424 . S
C401 C402 1.347 . S
C402 H394 0.951 . S
C402 C397 1.429 . S
C402 C401 1.347 . S
H403 C404 0.951 . S
C404 H403 0.951 . S
C404 C410 1.265 . S
H405 C410 0.950 . S
H406 C414 0.949 . S
H407 C415 0.950 1_545 S
H408 C416 0.951 . S
H409 C417 0.951 . S
C410 C404 1.265 . S
C410 H405 0.950 . S
C410 C411 1.478 . S
C411 C398 1.394 . S
C411 C410 1.478 . S
C411 C412 1.397 . S
C412 C411 1.397 . S
C412 C413 1.438 . S
C412 C417 1.429 . S
C413 C396 1.394 . S
C413 C412 1.438 . S
C413 C414 1.428 . S
C414 H406 0.949 . S
C414 C413 1.428 . S
C414 C415 1.345 . S
C415 H407 0.950 1_565 S
C415 C414 1.345 . S
C415 C416 1.424 . S
C416 H408 0.951 . S
C416 C415 1.424 . S
C416 C417 1.347 . S
C417 H409 0.951 . S
C417 C412 1.429 . S
C417 C416 1.347 . S
H418 C419 0.951 . S
C419 H418 0.951 . S
C419 C425 1.265 . S
H420 C425 0.950 . S
H421 C429 0.949 . S
H422 C430 0.950 . S
H423 C431 0.951 . S
H424 C432 0.951 . S
C425 C419 1.265 . S
C425 H420 0.950 . S
C425 C426 1.478 . S
C426 C425 1.478 . S
C426 C427 1.397 . S
C426 C443 1.394 . S
C427 C426 1.397 . S
C427 C428 1.438 . S
C427 C432 1.429 . S
C428 C427 1.438 . S
C428 C429 1.428 . S
C428 C441 1.394 . S
C429 H421 0.949 . S
C429 C428 1.428 . S
C429 C430 1.345 . S
C430 H422 0.950 . S
C430 C429 1.345 . S
C430 C431 1.424 . S
C431 H423 0.951 . S
C431 C430 1.424 . S
C431 C432 1.347 . S
C432 H424 0.951 . S
C432 C427 1.429 . S
C432 C431 1.347 . S
H433 C434 0.951 . S
C434 H433 0.951 . S
C434 C440 1.265 . S
H435 C440 0.950 . S
H436 C444 0.949 . S
H437 C445 0.950 . S
H438 C446 0.951 . S
H439 C447 0.951 . S
C440 C434 1.265 . S
C440 H435 0.950 . S
C440 C441 1.478 . S
C441 C428 1.394 . S
C441 C440 1.478 . S
C441 C442 1.397 . S
C442 C441 1.397 . S
C442 C443 1.438 . S
C442 C447 1.429 . S
C443 C426 1.394 . S
C443 C442 1.438 . S
C443 C444 1.428 . S
C444 H436 0.949 . S
C444 C443 1.428 . S
C444 C445 1.345 . S
C445 H437 0.950 . S
C445 C444 1.345 . S
C445 C446 1.424 . S
C446 H438 0.951 . S
C446 C445 1.424 . S
C446 C447 1.347 . S
C447 H439 0.951 . S
C447 C442 1.429 . S
C447 C446 1.347 . S
C89 C18 1.489 . S
C104 C65 1.389 . S
C119 C44 1.465 . S
C134 C71 1.382 . S
C149 C20 1.420 . S
C164 C62 1.403 . S
C179 C42 1.503 . S
C194 C87 1.433 . S
C209 C17 1.448 . S
C224 C53 1.350 . S
C254 C70 1.418 . S
C239 C40 1.478 . S
C269 C43 1.416 . S
C284 C66 1.234 . S
C314 C83 1.424 . S
C299 C16 1.498 . S
C344 C50 1.372 . S
C329 C39 1.496 . S
C374 C86 1.307 . S
C359 C21 1.472 . S
C404 C49 1.450 . S
C389 C41 1.508 . S
C434 C74 1.324 . S
C419 C19 1.398 . S
