# Generated by pormake.
# Topology pth, (4,4)-cn, num edge types: 1
# Building blocks:
#     Node 0, Type 0, BuildingBlock: CEKHIL_clean_sbu_0, # of connection points: 4
#     Node 1, Type 0, BuildingBlock: CEKHIL_clean_sbu_0, # of connection points: 4
#     Node 2, Type 0, BuildingBlock: CEKHIL_clean_sbu_0, # of connection points: 4
#     Node 3, Type 1, BuildingBlock: MUDLON_clean_sbu_0, # of connection points: 4
#     Node 4, Type 1, BuildingBlock: MUDLON_clean_sbu_0, # of connection points: 4
#     Node 5, Type 1, BuildingBlock: MUDLON_clean_sbu_0, # of connection points: 4
#     Edge 6, Type (0, 1), BuildingBlock: MIFKUJ_clean_linker_0, # of connection points: 2
#     Edge 7, Type (0, 1), BuildingBlock: MIFKUJ_clean_linker_0, # of connection points: 2
#     Edge 8, Type (0, 1), BuildingBlock: MIFKUJ_clean_linker_0, # of connection points: 2
#     Edge 9, Type (0, 1), BuildingBlock: MIFKUJ_clean_linker_0, # of connection points: 2
#     Edge 10, Type (0, 1), BuildingBlock: MIFKUJ_clean_linker_0, # of connection points: 2
#     Edge 11, Type (0, 1), BuildingBlock: MIFKUJ_clean_linker_0, # of connection points: 2
#     Edge 12, Type (0, 1), BuildingBlock: MIFKUJ_clean_linker_0, # of connection points: 2
#     Edge 13, Type (0, 1), BuildingBlock: MIFKUJ_clean_linker_0, # of connection points: 2
#     Edge 14, Type (0, 1), BuildingBlock: MIFKUJ_clean_linker_0, # of connection points: 2
#     Edge 15, Type (0, 1), BuildingBlock: MIFKUJ_clean_linker_0, # of connection points: 2
#     Edge 16, Type (0, 1), BuildingBlock: MIFKUJ_clean_linker_0, # of connection points: 2
#     Edge 17, Type (0, 1), BuildingBlock: MIFKUJ_clean_linker_0, # of connection points: 2
# Relax obj value: 0.014
# Max RMSD: 0.063
# Mean RMSD: 0.051
data_MOF--net-pth--node1-CEKHIL_clean_sbu_0--node2-MUDLON_clean_sbu_0--edge1-MIFKUJ_clean_linker_0
_symmetry_space_group_name_H-M    P1
_symmetry_Int_Tables_number       1
_symmetry_cell_setting            triclinic
loop_
_symmetry_equiv_pos_as_xyz
'x, y, z'
_cell_length_a     29.130669
_cell_length_b     29.22469
_cell_length_c     78.881361
_cell_angle_alpha  90.959158
_cell_angle_beta   90.01578
_cell_angle_gamma 120.35239
loop_
_atom_site_label
_atom_site_type_symbol
_atom_site_fract_x
_atom_site_fract_y
_atom_site_fract_z
_atom_type_partial_charge
Co0 Co 0.04247 0.06147 0.08834 0.0
O1 O 0.00765 0.00835 0.10545 0.0
O2 O 0.07607 0.01875 0.09044 0.0
C3 C 0.04697 0.12864 0.10458 0.0
O4 O 0.09131 0.11286 0.07026 0.0
Co5 Co 0.99229 0.12347 0.07322 0.0
O6 O 0.06337 0.16897 0.06316 0.0
C7 C 0.94967 0.01081 0.06351 0.0
C8 C 0.04256 0.99413 0.10251 0.0
C9 C 0.09744 0.15389 0.06236 0.0
O10 O 0.99047 0.01171 0.07031 0.0
O11 O 0.94084 0.04943 0.06484 0.0
O12 O 0.08244 0.1145 0.10626 0.0
O13 O 0.00905 0.10041 0.09393 0.0
Co14 Co 0.03796 0.06827 0.40979 0.0
O15 O 0.00997 0.09426 0.39276 0.0
O16 O 0.08127 0.14537 0.4084 0.0
C17 C 0.03386 1.002 0.39313 0.0
O18 O 0.0797 0.05476 0.42818 0.0
Co19 Co 0.96797 0.95425 0.42295 0.0
O20 O 0.03351 0.96856 0.43508 0.0
C21 C 0.94639 0.03831 0.43438 0.0
C22 C 0.04905 0.14148 0.39627 0.0
C23 C 0.07471 0.01459 0.4364 0.0
O24 O 0.98983 0.07368 0.42743 0.0
O25 O 0.92876 0.98848 0.43268 0.0
O26 O 0.07403 0.04999 0.39232 0.0
O27 O 0.99594 0.99647 0.40293 0.0
Co28 Co 0.02375 0.04174 0.74412 0.0
O29 O 0.07527 0.08426 0.72731 0.0
O30 O 0.07748 0.02113 0.74159 0.0
C31 C 0.95193 0.02459 0.72797 0.0
O32 O 0.9758 0.98729 0.7618 0.0
Co33 Co 0.94783 0.07527 0.75974 0.0
O34 O 0.90848 1.00144 0.76764 0.0
C35 C 0.05845 0.12579 0.77259 0.0
C36 C 0.0982 0.05681 0.72992 0.0
C37 C 0.93057 0.9735 0.76877 0.0
O38 O 0.06756 0.09596 0.76258 0.0
O39 O 0.01406 0.12487 0.77293 0.0
O40 O 0.97489 0.99662 0.7261 0.0
O41 O 0.97495 0.06398 0.73866 0.0
Mg42 Mg 0.04472 0.56512 0.24924 0.0
C43 C 0.05195 0.49288 0.27167 0.0
O44 O 1.0021 0.47381 0.26705 0.0
C45 C 0.05034 0.64812 0.22798 0.0
O46 O 1.00279 0.62357 0.23472 0.0
C47 C 0.99973 0.49654 0.21651 0.0
O48 O 0.0137 0.54199 0.2094 0.0
O49 O 1.0023 0.49476 0.23259 0.0
O50 O 0.08678 0.53749 0.26572 0.0
O51 O 1.00144 0.58882 0.26696 0.0
C52 C 0.0154 0.59725 0.28255 0.0
O53 O 0.0503 0.58503 0.28805 0.0
O54 O 0.08296 0.63287 0.23197 0.0
Mg55 Mg 0.53332 0.05882 0.58282 0.0
C56 C 0.42303 0.01563 0.56609 0.0
O57 O 0.40977 0.02411 0.58124 0.0
C58 C 0.6096 0.03979 0.60151 0.0
O59 O 0.63838 0.08749 0.59535 0.0
C60 C 0.49055 0.07305 0.61551 0.0
O61 O 0.497 0.0324 0.61813 0.0
O62 O 0.50601 0.09704 0.60145 0.0
O63 O 0.46868 0.02063 0.56399 0.0
O64 O 0.60029 0.10132 0.56536 0.0
C65 C 0.60269 0.06582 0.55638 0.0
O66 O 0.5672 0.01595 0.55915 0.0
O67 O 0.56002 0.01347 0.59791 0.0
Mg68 Mg 0.53095 0.54492 0.91546 0.0
C69 C 0.46004 0.52119 0.88449 0.0
O70 O 0.50694 0.5497 0.87758 0.0
C71 C 0.60867 0.62689 0.93769 0.0
O72 O 0.63079 0.60156 0.93082 0.0
C73 C 0.46841 0.43445 0.92997 0.0
O74 O 0.44349 0.42572 0.91534 0.0
O75 O 0.5114 0.47854 0.93242 0.0
O76 O 0.45723 0.51799 0.9006 0.0
O77 O 0.59435 0.57719 0.8964 0.0
C78 C 0.63335 0.57297 0.89111 0.0
O79 O 0.64386 0.53861 0.89799 0.0
O80 O 0.56069 0.612 0.93357 0.0
H81 H 0.99101 0.1788 0.09917 0.0
H82 H 0.98211 0.24065 0.11832 0.0
H83 H 0.0892 0.23182 0.15407 0.0
H84 H 0.09912 0.17054 0.13478 0.0
H85 H 0.98878 0.21521 0.16795 0.0
H86 H 0.13544 0.33891 0.13375 0.0
H87 H 0.17988 0.37705 0.10674 0.0
H88 H 0.05734 0.41152 0.09395 0.0
H89 H 0.01173 0.37284 0.12079 0.0
H90 H 0.02304 0.42044 0.22509 0.0
H91 H 0.02906 0.35693 0.20619 0.0
H92 H 0.96824 0.4065 0.1648 0.0
H93 H 0.96573 0.47284 0.18352 0.0
H94 H 0.04464 0.40054 0.15344 0.0
H95 H 0.89584 0.2782 0.18601 0.0
H96 H 0.84485 0.23615 0.21176 0.0
H97 H 0.96059 0.19396 0.22623 0.0
H98 H 0.01264 0.23634 0.20067 0.0
C99 C 0.0132 0.19052 0.11102 0.0
C100 C 0.0459 0.16994 0.11546 0.0
C101 C 0.00802 0.22581 0.12194 0.0
C102 C 0.03489 0.24073 0.13763 0.0
C103 C 0.06804 0.22071 0.14203 0.0
C104 C 0.07397 0.18605 0.13096 0.0
C105 C 0.02732 0.27632 0.14952 0.0
C106 C 1.00157 0.25601 0.16494 0.0
C107 C 0.04224 0.32879 0.14527 0.0
C108 C 0.06991 0.35252 0.12921 0.0
C109 C 0.11774 0.35422 0.12511 0.0
C110 C 0.14318 0.37602 0.10985 0.0
C111 C 0.12138 0.39658 0.09862 0.0
C112 C 0.07416 0.39553 0.10266 0.0
C113 C 0.04852 0.37372 0.1179 0.0
C114 C 0.00988 0.41706 0.21204 0.0
C115 C 0.9936 0.4515 0.20582 0.0
C116 C 0.01317 0.38044 0.2012 0.0
C117 C 0.99848 0.376 0.18399 0.0
C118 C 0.98007 0.40901 0.17796 0.0
C119 C 0.97818 0.44668 0.1887 0.0
C120 C 0.00562 0.33967 0.17207 0.0
C121 C 0.03144 0.35976 0.15658 0.0
C122 C 0.98967 0.28654 0.17613 0.0
C123 C 0.95839 0.26088 0.19149 0.0
C124 C 0.91061 0.26028 0.19474 0.0
C125 C 0.88149 0.23633 0.20929 0.0
C126 C 0.89954 0.21252 0.22064 0.0
C127 C 0.94668 0.21247 0.21743 0.0
C128 C 0.97598 0.23639 0.20291 0.0
H129 H 0.87694 0.19401 0.2319 0.0
H130 H 0.14113 0.41342 0.0868 0.0
H131 H 0.97558 0.13837 0.4471 0.0
H132 H 0.92457 0.16243 0.46643 0.0
H133 H 0.79672 0.99961 0.46585 0.0
H134 H 0.84652 0.97553 0.44665 0.0
H135 H 0.75836 0.06499 0.46298 0.0
H136 H 0.88782 0.05269 0.49855 0.0
H137 H 0.9788 0.07814 0.5077 0.0
H138 H 0.01484 0.23827 0.51677 0.0
H139 H 0.92422 0.21388 0.50745 0.0
H140 H 0.60988 0.995 0.53565 0.0
H141 H 0.67522 0.01076 0.51415 0.0
H142 H 0.75527 0.17866 0.52532 0.0
H143 H 0.68901 0.16304 0.5474 0.0
H144 H 0.82539 0.13556 0.521 0.0
H145 H 0.68568 0.13885 0.49037 0.0
H146 H 0.59224 0.10724 0.48255 0.0
H147 H 0.57373 0.95911 0.46479 0.0
H148 H 0.6668 0.98947 0.47273 0.0
C149 C 0.93642 0.10783 0.45099 0.0
C150 C 0.91541 0.05493 0.44532 0.0
C151 C 0.90741 0.12161 0.46211 0.0
C152 C 0.85682 0.08277 0.4677 0.0
C153 C 0.83551 0.03038 0.46172 0.0
C154 C 0.86434 0.01661 0.45075 0.0
C155 C 0.82562 0.09525 0.48002 0.0
C156 C 0.77317 0.08066 0.47563 0.0
C157 C 0.84523 0.11709 0.49642 0.0
C158 C 0.89953 0.13165 0.50209 0.0
C159 C 0.9153 0.09343 0.50236 0.0
C160 C 0.96676 0.10763 0.5076 0.0
C161 C 1.00264 0.15983 0.51275 0.0
C162 C 0.98705 0.19789 0.51273 0.0
C163 C 0.93565 0.1839 0.50748 0.0
C164 C 0.64115 0.03552 0.53366 0.0
C165 C 0.64379 0.07785 0.54326 0.0
C166 C 0.6786 0.0444 0.52125 0.0
C167 C 0.7198 0.0959 0.51792 0.0
C168 C 0.72359 0.13856 0.52763 0.0
C169 C 0.68564 0.12964 0.54017 0.0
C170 C 0.75771 0.10352 0.50408 0.0
C171 C 0.81121 0.12161 0.50817 0.0
C172 C 0.73902 0.08446 0.4874 0.0
C173 C 0.6833 0.06647 0.48219 0.0
C174 C 0.66165 0.09946 0.48485 0.0
C175 C 0.60872 0.08175 0.4804 0.0
C176 C 0.57706 0.03119 0.47319 0.0
C177 C 0.59832 0.9983 0.47036 0.0
C178 C 0.65121 0.01579 0.4748 0.0
H179 H 0.53606 0.01752 0.46979 0.0
H180 H 0.04246 0.17075 0.5168 0.0
H181 H 0.83219 0.93038 0.78287 0.0
H182 H 0.79098 0.85894 0.80296 0.0
H183 H 0.92528 0.83532 0.7998 0.0
H184 H 0.96776 0.90797 0.77947 0.0
H185 H 0.82023 0.73756 0.80052 0.0
H186 H 0.92318 0.89942 0.83245 0.0
H187 H 0.95534 0.99304 0.84007 0.0
H188 H 0.79625 0.95434 0.85234 0.0
H189 H 0.76298 0.86059 0.84454 0.0
H190 H 0.72272 0.5799 0.87635 0.0
H191 H 0.78056 0.64363 0.85513 0.0
H192 H 0.68015 0.71266 0.85454 0.0
H193 H 0.62287 0.64999 0.87559 0.0
H194 H 0.78198 0.78831 0.85684 0.0
H195 H 0.67708 0.63141 0.82231 0.0
H196 H 0.64069 0.53784 0.8136 0.0
H197 H 0.79885 0.56655 0.8056 0.0
H198 H 0.83622 0.66022 0.81449 0.0
C199 C 0.85323 0.91006 0.78626 0.0
C200 C 0.90386 0.92568 0.77961 0.0
C201 C 0.82938 0.86901 0.79781 0.0
C202 C 0.85527 0.84221 0.80309 0.0
C203 C 0.90465 0.85564 0.79594 0.0
C204 C 0.92888 0.8972 0.78433 0.0
C205 C 0.83116 0.80237 0.81673 0.0
C206 C 0.8129 0.74869 0.81298 0.0
C207 C 0.82059 0.81673 0.83287 0.0
C208 C 0.84055 0.87299 0.83781 0.0
C209 C 0.89499 0.91092 0.83667 0.0
C210 C 0.91343 0.96401 0.84103 0.0
C211 C 0.87785 0.97964 0.84666 0.0
C212 C 0.82376 0.94218 0.84798 0.0
C213 C 0.8051 0.88903 0.84361 0.0
C214 C 0.71287 0.60851 0.87163 0.0
C215 C 0.66805 0.60968 0.87776 0.0
C216 C 0.74592 0.64487 0.85947 0.0
C217 C 0.73477 0.68306 0.85318 0.0
C218 C 0.68989 0.68389 0.85921 0.0
C219 C 0.65695 0.64771 0.87126 0.0
C220 C 0.76983 0.7231 0.84058 0.0
C221 C 0.79013 0.77704 0.84452 0.0
C222 C 0.78181 0.70882 0.82462 0.0
C223 C 0.75946 0.65261 0.81928 0.0
C224 C 0.70412 0.61764 0.81885 0.0
C225 C 0.68331 0.56463 0.81385 0.0
C226 C 0.71745 0.54622 0.80911 0.0
C227 C 0.77246 0.58084 0.80931 0.0
C228 C 0.79348 0.6339 0.81433 0.0
H229 H 0.70127 0.50516 0.80523 0.0
H230 H 0.8922 0.02077 0.85003 0.0
H231 H 0.11326 0.95789 0.10041 0.0
H232 H 0.12491 0.90128 0.12056 0.0
H233 H 0.9939 0.8877 0.14992 0.0
H234 H 0.98208 0.9439 0.12996 0.0
H235 H 0.08014 0.91446 0.16978 0.0
H236 H 0.98109 0.78481 0.12565 0.0
H237 H 0.96403 0.74752 0.09653 0.0
H238 H 0.11046 0.74568 0.09776 0.0
H239 H 0.12874 0.78367 0.12683 0.0
H240 H 0.99676 0.70024 0.22325 0.0
H241 H 0.00778 0.7616 0.20112 0.0
H242 H 0.14051 0.75184 0.18123 0.0
H243 H 0.12914 0.68892 0.20359 0.0
H244 H 0.07001 0.7434 0.15587 0.0
H245 H 0.16359 0.86374 0.20146 0.0
H246 H 0.17867 0.89908 0.23081 0.0
H247 H 0.04248 0.91848 0.22689 0.0
H248 H 0.02608 0.88252 0.1976 0.0
C249 C 0.08651 0.94226 0.11104 0.0
C250 C 0.04673 0.95551 0.11355 0.0
C251 C 0.09321 0.90987 0.12256 0.0
C252 C 0.06034 0.89021 0.13682 0.0
C253 C 0.01996 0.90253 0.13909 0.0
C254 C 0.01307 0.93454 0.12758 0.0
C255 C 0.06879 0.85849 0.14981 0.0
C256 C 0.07761 0.87691 0.16672 0.0
C257 C 0.06749 0.81039 0.14581 0.0
C258 C 0.05662 0.78773 0.12833 0.0
C259 C 0.00991 0.77695 0.11965 0.0
C260 C 0.99996 0.75558 0.10317 0.0
C261 C 0.03623 0.74442 0.09527 0.0
C262 C 0.08246 0.75447 0.10387 0.0
C263 C 0.09263 0.7759 0.12035 0.0
C264 C 0.02871 0.71128 0.2143 0.0
C265 C 0.06218 0.68963 0.21526 0.0
C266 C 0.03508 0.7467 0.20164 0.0
C267 C 0.07529 0.76193 0.18955 0.0
C268 C 0.10928 0.74083 0.19046 0.0
C269 C 0.10305 0.70524 0.2033 0.0
C270 C 0.0799 0.79876 0.17589 0.0
C271 C 0.07353 0.78141 0.15887 0.0
C272 C 0.0835 0.84801 0.17976 0.0
C273 C 0.09346 0.87015 0.19734 0.0
C274 C 0.13665 0.87523 0.20689 0.0
C275 C 0.14546 0.89542 0.22351 0.0
C276 C 0.11152 0.91096 0.23071 0.0
C277 C 0.06875 0.90644 0.22129 0.0
C278 C 0.05973 0.88624 0.20466 0.0
H279 H 0.11839 0.92655 0.24359 0.0
H280 H 0.02844 0.72784 0.08252 0.0
H281 H 0.06171 0.95479 0.46392 0.0
H282 H 0.12858 0.96273 0.48416 0.0
H283 H 0.25002 0.09597 0.45717 0.0
H284 H 0.18238 0.08899 0.43677 0.0
H285 H 0.27062 0.00544 0.46737 0.0
H286 H 0.2256 0.1313 0.48989 0.0
H287 H 0.16348 0.16124 0.49847 0.0
H288 H 0.09392 0.03768 0.53507 0.0
H289 H 0.15508 0.00643 0.52651 0.0
H290 H 0.45673 0.05124 0.53413 0.0
H291 H 0.40499 0.05789 0.51096 0.0
H292 H 0.26273 0.97718 0.54095 0.0
H293 H 0.31539 0.97404 0.56459 0.0
H294 H 0.26085 0.05267 0.52742 0.0
H295 H 0.29722 0.92052 0.50366 0.0
H296 H 0.35496 0.88547 0.49477 0.0
H297 H 0.43651 0.01441 0.46053 0.0
H298 H 0.37949 0.05045 0.46932 0.0
C299 C 0.1026 0.98587 0.46218 0.0
C300 C 0.11664 0.02123 0.44865 0.0
C301 C 0.14079 0.99033 0.47382 0.0
C302 C 0.19424 0.0298 0.47217 0.0
C303 C 0.20891 0.0651 0.45863 0.0
C304 C 0.17026 0.06127 0.44706 0.0
C305 C 0.2337 0.03371 0.48495 0.0
C306 C 0.26942 0.01677 0.48045 0.0
C307 C 0.23098 0.04708 0.50208 0.0
C308 C 0.19466 0.06626 0.50745 0.0
C309 C 0.19678 0.11024 0.49968 0.0
C310 C 0.16178 0.1275 0.50455 0.0
C311 C 0.12468 0.1013 0.51728 0.0
C312 C 0.12265 0.05791 0.5252 0.0
C313 C 0.15752 0.04044 0.52035 0.0
C314 C 0.41423 0.03408 0.53567 0.0
C315 C 0.39005 0.0117 0.55116 0.0
C316 C 0.38449 0.03776 0.52234 0.0
C317 C 0.32941 0.01739 0.52394 0.0
C318 C 0.30506 0.99348 0.53929 0.0
C319 C 0.33509 0.99122 0.55279 0.0
C320 C 0.29743 0.02297 0.51007 0.0
C321 C 0.26284 0.04171 0.51435 0.0
C322 C 0.30084 0.01061 0.49278 0.0
C323 C 0.33443 0.98842 0.48726 0.0
C324 C 0.3276 0.94149 0.49429 0.0
C325 C 0.36018 0.92144 0.48926 0.0
C326 C 0.39947 0.94778 0.47713 0.0
C327 C 0.40608 0.99408 0.46993 0.0
C328 C 0.37359 0.01428 0.47491 0.0
H329 H 0.42474 0.93228 0.47328 0.0
H330 H 0.09757 0.11467 0.52102 0.0
H331 H 0.047 0.14204 0.80587 0.0
H332 H 0.11379 0.20686 0.82555 0.0
H333 H 0.23061 0.26091 0.7858 0.0
H334 H 0.16432 0.19289 0.76643 0.0
H335 H 0.27849 0.26612 0.81285 0.0
H336 H 0.15788 0.32745 0.79978 0.0
H337 H 0.07055 0.32134 0.79714 0.0
H338 H 0.04581 0.29523 0.8506 0.0
H339 H 0.13274 0.30057 0.85353 0.0
H340 H 0.45611 0.51624 0.84991 0.0
H341 H 0.38631 0.44873 0.83168 0.0
H342 H 0.28953 0.37579 0.87543 0.0
H343 H 0.35967 0.44341 0.89393 0.0
H344 H 0.23176 0.38045 0.84713 0.0
H345 H 0.35757 0.32382 0.8593 0.0
H346 H 0.44726 0.33507 0.86085 0.0
H347 H 0.46472 0.35908 0.80714 0.0
H348 H 0.37538 0.34873 0.80531 0.0
C349 C 0.08712 0.1675 0.8014 0.0
C350 C 0.10047 0.16278 0.78461 0.0
C351 C 0.12525 0.20502 0.81262 0.0
C352 C 0.17713 0.24045 0.80711 0.0
C353 C 0.19091 0.23455 0.79042 0.0
C354 C 0.15306 0.1957 0.77932 0.0
C355 C 0.21665 0.2837 0.81869 0.0
C356 C 0.26823 0.29146 0.82012 0.0
C357 C 0.20361 0.31664 0.82855 0.0
C358 C 0.15159 0.31397 0.82684 0.0
C359 C 0.13368 0.32015 0.81096 0.0
C360 C 0.08428 0.31684 0.80941 0.0
C361 C 0.05261 0.30778 0.82368 0.0
C362 C 0.07036 0.30219 0.83955 0.0
C363 C 0.11971 0.30542 0.84117 0.0
C364 C 0.41976 0.48636 0.85572 0.0
C365 C 0.41378 0.48519 0.87345 0.0
C366 C 0.37993 0.44756 0.84523 0.0
C367 C 0.33307 0.40663 0.85219 0.0
C368 C 0.32553 0.40686 0.86979 0.0
C369 C 0.36562 0.44564 0.88035 0.0
C370 C 0.29312 0.36271 0.8411 0.0
C371 C 0.24165 0.35492 0.8398 0.0
C372 C 0.30651 0.33042 0.83114 0.0
C373 C 0.35995 0.33594 0.8322 0.0
C374 C 0.38067 0.33185 0.84784 0.0
C375 C 0.43143 0.33802 0.84876 0.0
C376 C 0.46172 0.3479 0.83411 0.0
C377 C 0.44123 0.35147 0.81849 0.0
C378 C 0.39051 0.34541 0.8175 0.0
H379 H 0.50102 0.35269 0.83485 0.0
H380 H 0.01435 0.30519 0.82245 0.0
H381 H 0.89406 0.07453 0.73029 0.0
H382 H 0.82449 0.06593 0.71087 0.0
H383 H 0.83892 0.9482 0.68138 0.0
H384 H 0.90736 0.95561 0.70102 0.0
H385 H 0.83175 0.0901 0.67958 0.0
H386 H 0.72495 0.8666 0.6597 0.0
H387 H 0.69934 0.78064 0.67255 0.0
H388 H 0.69968 0.84514 0.72189 0.0
H389 H 0.72453 0.93122 0.70933 0.0
H390 H 0.71178 0.0626 0.60161 0.0
H391 H 0.75981 0.04863 0.62435 0.0
H392 H 0.61444 0.96471 0.6526 0.0
H393 H 0.56554 0.97735 0.62941 0.0
H394 H 0.67737 0.92234 0.65786 0.0
H395 H 0.69937 0.09549 0.6608 0.0
H396 H 0.7196 0.18235 0.64998 0.0
H397 H 0.87914 0.22015 0.63885 0.0
H398 H 0.85963 0.13316 0.64938 0.0
C399 C 0.88181 0.04621 0.71981 0.0
C400 C 0.9063 0.01581 0.71719 0.0
C401 C 0.84209 0.04141 0.70868 0.0
C402 C 0.826 0.0062 0.69464 0.0
C403 C 0.84968 0.97494 0.69224 0.0
C404 C 0.88911 0.97942 0.70346 0.0
C405 C 0.78756 0.00512 0.68187 0.0
C406 C 0.79792 0.05332 0.67494 0.0
C407 C 0.74264 0.95736 0.67592 0.0
C408 C 0.72708 0.90552 0.68357 0.0
C409 C 0.71932 0.86237 0.67328 0.0
C410 C 0.70498 0.81364 0.68052 0.0
C411 C 0.69804 0.80748 0.69803 0.0
C412 C 0.70526 0.85001 0.70834 0.0
C413 C 0.71955 0.89881 0.70117 0.0
C414 C 0.68975 0.04013 0.61249 0.0
C415 C 0.63498 0.02138 0.61379 0.0
C416 C 0.71733 0.03242 0.62555 0.0
C417 C 0.69112 0.0069 0.64042 0.0
C418 C 0.63563 0.98486 0.6413 0.0
C419 C 0.60767 0.99193 0.62804 0.0
C420 C 0.7227 0.00712 0.65535 0.0
C421 C 0.71108 0.95896 0.66264 0.0
C422 C 0.76583 0.05504 0.66197 0.0
C423 C 0.77791 0.10764 0.65577 0.0
C424 C 0.73867 0.1222 0.65595 0.0
C425 C 0.75002 0.17147 0.64988 0.0
C426 C 0.80059 0.20671 0.6437 0.0
C427 C 0.83997 0.1928 0.64363 0.0
C428 C 0.82881 0.14354 0.64966 0.0
H429 H 0.80929 0.24483 0.639 0.0
H430 H 0.68698 0.76973 0.70361 0.0
H431 H 0.97091 0.95035 0.04148 0.0
H432 H 0.90887 0.88377 0.02078 0.0
H433 H 0.78082 0.9011 0.04093 0.0
H434 H 0.84266 0.96844 0.06124 0.0
H435 H 0.7543 0.79125 0.03295 0.0
H436 H 0.82959 0.96444 0.00872 0.0
H437 H 0.90322 0.05211 1.00059 0.0
H438 H 0.96587 0.97749 0.96824 0.0
H439 H 0.89301 0.88926 0.97642 0.0
H440 H 0.57275 0.66806 0.96278 0.0
H441 H 0.62687 0.73349 0.98506 0.0
H442 H 0.76909 0.74781 0.96315 0.0
H443 H 0.71587 0.68327 0.9411 0.0
H444 H 0.78527 0.84349 0.97264 0.0
H445 H 0.71303 0.67111 0.99696 0.0
H446 H 0.64186 0.58254 1.00543 0.0
H447 H 0.57554 0.65388 0.03766 0.0
H448 H 0.64594 0.74295 0.02918 0.0
C449 C 0.92934 0.93913 0.04169 0.0
C450 C 0.91163 0.96465 0.05292 0.0
C451 C 0.89402 0.90134 0.02983 0.0
C452 C 0.8403 0.88775 0.02928 0.0
C453 C 0.82202 0.91096 0.04114 0.0
C454 C 0.85744 0.9495 0.0527 0.0
C455 C 0.80403 0.85235 0.01559 0.0
C456 C 0.76061 0.80283 0.01978 0.0
C457 C 0.81265 0.86731 0.99841 0.0
C458 C 0.85622 0.92026 0.99334 0.0
C459 C 0.85935 0.96671 1.0 0.0
C460 C 0.90089 0.01651 0.99537 0.0
C461 C 0.93931 0.02038 0.98395 0.0
C462 C 0.93614 0.97443 0.97711 0.0
C463 C 0.89472 0.92452 0.98174 0.0
C464 C 0.61559 0.68577 0.96263 0.0
C465 C 0.63995 0.67021 0.95024 0.0
C466 C 0.64646 0.72287 0.97541 0.0
C467 C 0.70211 0.74521 0.97589 0.0
C468 C 0.72636 0.73119 0.9631 0.0
C469 C 0.69572 0.69402 0.95052 0.0
C470 C 0.73555 0.78185 0.98991 0.0
C471 C 0.77859 0.83182 0.9858 0.0
C472 C 0.7267 0.76709 0.00715 0.0
C473 C 0.68433 0.71365 0.01226 0.0
C474 C 0.68297 0.6679 1.00573 0.0
C475 C 0.64283 0.61761 0.01055 0.0
C476 C 0.60409 0.61258 0.02203 0.0
C477 C 0.6055 0.65784 0.02874 0.0
C478 C 0.64552 0.70824 0.02393 0.0
H479 H 0.57306 0.57361 0.02576 0.0
H480 H 0.97145 0.05897 0.98038 0.0
H481 H 0.10676 0.00507 0.3707 0.0
H482 H 0.09772 0.93401 0.35165 0.0
H483 H 0.94295 0.82804 0.37221 0.0
H484 H 0.95151 0.89924 0.39116 0.0
H485 H 0.08759 0.84048 0.35655 0.0
H486 H 0.86233 0.74333 0.34067 0.0
H487 H 0.79432 0.76956 0.3382 0.0
H488 H 0.9158 0.92923 0.32761 0.0
H489 H 0.98439 0.9038 0.32977 0.0
H490 H 0.01283 0.59761 0.31698 0.0
H491 H 0.00796 0.66235 0.33571 0.0
H492 H 0.9856 0.73727 0.29234 0.0
H493 H 0.98849 0.67109 0.27353 0.0
H494 H 0.93122 0.74387 0.31808 0.0
H495 H 0.11049 0.78364 0.31031 0.0
H496 H 0.1841 0.76491 0.31004 0.0
H497 H 0.16506 0.73448 0.36339 0.0
H498 H 0.09087 0.75242 0.36393 0.0
C499 C 0.07088 0.96658 0.37122 0.0
C500 C 0.02977 0.95787 0.38241 0.0
C501 C 0.06578 0.92593 0.36033 0.0
C502 C 0.01938 0.87575 0.36031 0.0
C503 C 0.97876 0.86661 0.37176 0.0
C504 C 0.98385 0.90728 0.38267 0.0
C505 C 0.01364 0.83313 0.34832 0.0
C506 C 0.05328 0.8193 0.34819 0.0
C507 C 0.96955 0.80618 0.33707 0.0
C508 C 0.92851 0.82173 0.33558 0.0
C509 C 0.87449 0.78398 0.33776 0.0
C510 C 0.83585 0.79872 0.33642 0.0
C511 C 0.85075 0.85107 0.33281 0.0
C512 C 0.90432 0.88875 0.33047 0.0
C513 C 0.9431 0.8742 0.33178 0.0
C514 C 0.00562 0.62712 0.31145 0.0
C515 C 1.0014 0.62946 0.29377 0.0
C516 C 1.00323 0.6644 0.32217 0.0
C517 C 0.99797 0.70574 0.31544 0.0
C518 C 0.99006 0.70603 0.29786 0.0
C519 C 0.99156 0.66806 0.28711 0.0
C520 C 0.00458 0.75044 0.32662 0.0
C521 C 0.96528 0.76481 0.32654 0.0
C522 C 0.04978 0.77901 0.33735 0.0
C523 C 0.09486 0.76893 0.33713 0.0
C524 C 0.12184 0.77269 0.32196 0.0
C525 C 0.16367 0.76224 0.32177 0.0
C526 C 0.17916 0.74839 0.33668 0.0
C527 C 0.15298 0.74516 0.35185 0.0
C528 C 0.11108 0.75552 0.35211 0.0
H529 H 0.21152 0.74026 0.3365 0.0
H530 H 0.82078 0.8624 0.33179 0.0
H531 H 0.13435 0.11429 0.70116 0.0
H532 H 0.20482 0.12289 0.6824 0.0
H533 H 0.23533 0.02487 0.71536 0.0
H534 H 0.16387 0.01535 0.73422 0.0
H535 H 0.32949 0.11773 0.70391 0.0
H536 H 0.16988 0.97016 0.68107 0.0
H537 H 0.07735 0.92289 0.67041 0.0
H538 H 0.12032 0.0351 0.63049 0.0
H539 H 0.21303 0.08357 0.64108 0.0
H540 H 0.47343 0.04429 0.64847 0.0
H541 H 0.41218 0.05018 0.66814 0.0
H542 H 0.37409 0.13234 0.6308 0.0
H543 H 0.43554 0.126 0.61079 0.0
H544 H 0.28487 0.05168 0.64438 0.0
H545 H 0.4459 0.19729 0.66647 0.0
H546 H 0.5385 0.24382 0.67705 0.0
H547 H 0.49352 0.13565 0.71826 0.0
H548 H 0.40072 0.08795 0.70779 0.0
C549 C 0.15616 0.09473 0.70453 0.0
C550 C 0.14336 0.06404 0.71922 0.0
C551 C 0.19638 0.09958 0.69373 0.0
C552 C 0.22518 0.07428 0.69739 0.0
C553 C 0.2136 0.04473 0.71228 0.0
C554 C 0.17271 0.03924 0.72302 0.0
C555 C 0.26653 0.07803 0.68543 0.0
C556 C 0.3197 0.10273 0.69096 0.0
C557 C 0.254 0.0598 0.66837 0.0
C558 C 0.19827 0.03088 0.662 0.0
C559 C 0.1595 0.98509 0.67012 0.0
C560 C 0.10704 0.95801 0.66407 0.0
C561 C 0.09293 0.97608 0.64982 0.0
C562 C 0.13129 0.02122 0.64156 0.0
C563 C 0.18381 0.0485 0.64757 0.0
C564 C 0.45275 0.06443 0.64447 0.0
C565 C 0.45954 0.08479 0.62803 0.0
C566 C 0.41774 0.06792 0.65581 0.0
C567 C 0.38858 0.09199 0.65106 0.0
C568 C 0.39621 0.11367 0.63479 0.0
C569 C 0.43167 0.11045 0.62341 0.0
C570 C 0.3481 0.09142 0.66282 0.0
C571 C 0.29491 0.06714 0.65728 0.0
C572 C 0.36067 0.11008 0.67986 0.0
C573 C 0.4164 0.13878 0.68626 0.0
C574 C 0.45581 0.18316 0.67772 0.0
C575 C 0.50833 0.2098 0.68371 0.0
C576 C 0.52191 0.19264 0.6983 0.0
C577 C 0.48295 0.14887 0.70695 0.0
C578 C 0.43036 0.12206 0.70101 0.0
H579 H 0.5626 0.21331 0.70292 0.0
H580 H 0.0523 0.95503 0.64514 0.0
H581 H 0.13563 0.25281 0.04945 0.0
H582 H 0.20536 0.29752 0.02855 0.0
H583 H 0.23374 0.16629 0.02794 0.0
H584 H 0.16452 0.12161 0.04929 0.0
H585 H 0.32639 0.25833 0.02501 0.0
H586 H 0.15579 0.1765 0.99719 0.0
H587 H 0.06361 0.15669 0.99283 0.0
H588 H 0.12004 0.3218 0.98509 0.0
H589 H 0.21253 0.34266 0.9896 0.0
H590 H 0.37985 0.33579 0.92849 0.0
H591 H 0.324 0.28418 0.95192 0.0
H592 H 0.43456 0.4019 0.9876 0.0
H593 H 0.49128 0.4534 0.96415 0.0
H594 H 0.27192 0.31066 0.9726 0.0
H595 H 0.42208 0.34586 0.02654 0.0
H596 H 0.51204 0.35864 0.03 0.0
H597 H 0.49317 0.2736 0.98317 0.0
H598 H 0.40289 0.25972 0.97954 0.0
C599 C 0.15692 0.23349 0.04502 0.0
C600 C 0.14385 0.18318 0.05096 0.0
C601 C 0.19684 0.25916 0.033 0.0
C602 C 0.22421 0.2349 0.02633 0.0
C603 C 0.21311 0.18582 0.0328 0.0
C604 C 0.1734 0.16024 0.04501 0.0
C605 C 0.26204 0.25953 0.01199 0.0
C606 C 0.31452 0.26982 0.01355 0.0
C607 C 0.24653 0.27369 0.99684 0.0
C608 C 0.19103 0.26117 0.99385 0.0
C609 C 0.1485 0.2086 0.99463 0.0
C610 C 0.09621 0.19718 0.99213 0.0
C611 C 0.08597 0.23797 0.98872 0.0
C612 C 0.12803 0.29025 0.98774 0.0
C613 C 0.18039 0.30188 0.99025 0.0
C614 C 0.39299 0.35026 0.94133 0.0
C615 C 0.44016 0.39891 0.94437 0.0
C616 C 0.36074 0.32076 0.95475 0.0
C617 C 0.37469 0.33898 0.97161 0.0
C618 C 0.42299 0.38645 0.97477 0.0
C619 C 0.45553 0.41594 0.96131 0.0
C620 C 0.33674 0.31025 0.98563 0.0
C621 C 0.28404 0.29925 0.98402 0.0
C622 C 0.35191 0.29461 1.00055 0.0
C623 C 0.40593 0.30224 1.0027 0.0
C624 C 0.43707 0.32973 0.01702 0.0
C625 C 0.48812 0.33719 0.019 0.0
C626 C 0.50837 0.31709 0.00679 0.0
C627 C 0.47753 0.28933 0.99259 0.0
C628 C 0.42644 0.28173 0.99055 0.0
H629 H 0.54791 0.32294 0.00834 0.0
H630 H 0.04546 0.22907 0.9868 0.0
H631 H 0.9767 0.14645 0.37591 0.0
H632 H 0.9915 0.21499 0.35587 0.0
H633 H 0.15514 0.30786 0.3724 0.0
H634 H 0.1401 0.23917 0.39296 0.0
H635 H 0.11105 0.37117 0.36538 0.0
H636 H 0.12625 0.23362 0.33674 0.0
H637 H 0.0982 0.14117 0.32869 0.0
H638 H 0.95544 0.12195 0.30593 0.0
H639 H 0.98224 0.21404 0.31406 0.0
H640 H 0.14621 0.52368 0.28932 0.0
H641 H 0.16113 0.4728 0.31109 0.0
H642 H 0.9994 0.34467 0.30429 0.0
H643 H 0.98477 0.3939 0.2827 0.0
H644 H 0.06323 0.3062 0.30586 0.0
H645 H 0.04043 0.43696 0.33791 0.0
H646 H 0.06495 0.52824 0.34636 0.0
H647 H 0.21911 0.55959 0.36257 0.0
H648 H 0.1957 0.46864 0.35399 0.0
C649 C 0.01575 0.1817 0.37548 0.0
C650 C 0.05738 0.18706 0.38593 0.0
C651 C 0.02422 0.22088 0.36395 0.0
C652 C 0.07478 0.26612 0.3623 0.0
C653 C 0.11588 0.27315 0.37335 0.0
C654 C 0.10724 0.23391 0.38509 0.0
C655 C 0.08446 0.30387 0.34837 0.0
C656 C 0.10161 0.35726 0.35231 0.0
C657 C 0.07196 0.28587 0.33128 0.0
C658 C 0.05619 0.23071 0.32608 0.0
C659 C 0.08877 0.20961 0.33008 0.0
C660 C 0.07309 0.15726 0.32551 0.0
C661 C 0.02504 0.12569 0.31682 0.0
C662 C 0.99265 0.14645 0.31265 0.0
C663 C 0.00811 0.19876 0.31722 0.0
C664 C 0.11414 0.48448 0.29241 0.0
C665 C 0.0643 0.46305 0.28424 0.0
C666 C 0.12255 0.45556 0.30493 0.0
C667 C 0.08124 0.40484 0.30946 0.0
C668 C 0.03203 0.38347 0.30106 0.0
C669 C 0.02369 0.41201 0.28868 0.0
C670 C 0.08763 0.37301 0.32291 0.0
C671 C 0.07368 0.32053 0.31886 0.0
C672 C 0.10274 0.39187 0.33984 0.0
C673 C 0.11658 0.44629 0.34512 0.0
C674 C 0.07969 0.46346 0.34316 0.0
C675 C 0.09336 0.5151 0.34799 0.0
C676 C 0.14362 0.54976 0.35495 0.0
C677 C 0.18024 0.53276 0.35714 0.0
C678 C 0.1668 0.48117 0.3523 0.0
H679 H 0.15414 0.58973 0.35867 0.0
H680 H 0.01294 0.08515 0.31331 0.0
loop_
_geom_bond_atom_site_label_1
_geom_bond_atom_site_label_2
_geom_bond_distance
_geom_bond_site_symmetry_2
_ccdc_geom_bond_type
Co0 O1 2.216 1_445 S
Co0 O2 2.091 . S
Co0 O4 2.004 . S
Co0 O10 2.030 1_455 S
Co0 O12 2.137 . S
Co0 O13 2.244 1_455 S
O1 Co0 2.216 1_665 S
O1 C8 1.247 1_655 S
O2 Co0 2.091 . S
O2 C8 1.261 1_545 S
C3 O12 1.247 . S
C3 O13 1.271 1_455 S
O4 Co0 2.004 . S
O4 C9 1.259 . S
Co5 O6 2.061 1_655 S
Co5 O11 2.052 . S
Co5 O13 2.135 . S
O6 Co5 2.061 1_455 S
O6 C9 1.235 . S
C7 O10 1.247 1_565 S
C7 O11 1.241 1_565 S
C8 O1 1.247 1_455 S
C8 O2 1.261 1_565 S
C9 O4 1.259 . S
C9 O6 1.235 . S
O10 Co0 2.030 1_655 S
O10 C7 1.247 1_545 S
O11 Co5 2.052 . S
O11 C7 1.241 1_545 S
O12 Co0 2.137 . S
O12 C3 1.247 . S
O13 Co0 2.244 1_655 S
O13 C3 1.271 1_655 S
O13 Co5 2.135 . S
Co14 O15 2.216 . S
Co14 O16 2.091 . S
Co14 O18 2.004 . S
Co14 O24 2.021 . S
Co14 O26 2.137 . S
Co14 O27 2.244 1_545 S
O15 Co14 2.216 . S
O15 C22 1.247 . S
O16 Co14 2.091 . S
O16 C22 1.261 . S
C17 O26 1.247 1_565 S
C17 O27 1.272 . S
O18 Co14 2.004 . S
O18 C23 1.259 . S
Co19 O20 2.061 1_665 S
Co19 O25 2.035 1_565 S
Co19 O27 2.135 1_655 S
O20 Co19 2.061 1_445 S
O20 C23 1.235 . S
C21 O24 1.238 1_655 S
C21 O25 1.261 . S
C22 O15 1.247 . S
C22 O16 1.261 . S
C23 O18 1.259 . S
C23 O20 1.235 . S
O24 Co14 2.021 . S
O24 C21 1.238 1_455 S
O25 Co19 2.035 1_545 S
O25 C21 1.261 . S
O26 Co14 2.137 . S
O26 C17 1.247 1_545 S
O27 Co14 2.244 1_565 S
O27 C17 1.272 . S
O27 Co19 2.135 1_455 S
Co28 O29 2.216 . S
Co28 O30 2.091 1_545 S
Co28 O32 2.004 1_445 S
Co28 O38 2.021 . S
Co28 O40 2.137 1_455 S
Co28 O41 2.244 1_455 S
O29 Co28 2.216 . S
O29 C36 1.247 . S
O30 Co28 2.091 1_565 S
O30 C36 1.261 1_565 S
C31 O40 1.247 . S
C31 O41 1.272 . S
O32 Co28 2.004 1_665 S
O32 C37 1.259 . S
Co33 O34 2.061 . S
Co33 O39 2.052 1_655 S
Co33 O41 2.135 . S
O34 Co33 2.061 . S
O34 C37 1.235 1_545 S
C35 O38 1.238 . S
C35 O39 1.241 . S
C36 O29 1.247 . S
C36 O30 1.261 1_545 S
C37 O32 1.259 . S
C37 O34 1.235 1_565 S
O38 Co28 2.021 . S
O38 C35 1.238 . S
O39 Co33 2.052 1_455 S
O39 C35 1.241 . S
O40 Co28 2.137 1_655 S
O40 C31 1.247 . S
O41 Co28 2.244 1_655 S
O41 C31 1.272 . S
O41 Co33 2.135 . S
Mg42 O49 2.141 . S
Mg42 O50 2.048 . S
Mg42 O51 2.048 . S
Mg42 O54 2.141 . S
C43 O44 1.313 1_455 S
C43 O50 1.195 . S
O44 C43 1.313 1_655 S
C45 O46 1.245 1_455 S
C45 O54 1.289 . S
O46 C45 1.245 1_655 S
C47 O48 1.245 1_455 S
C47 O49 1.289 . S
O48 C47 1.245 1_655 S
O49 Mg42 2.141 . S
O49 C47 1.289 . S
O50 Mg42 2.048 . S
O50 C43 1.195 . S
O51 Mg42 2.048 . S
O51 C52 1.195 . S
C52 O51 1.195 . S
C52 O53 1.313 1_455 S
O53 C52 1.313 1_655 S
O54 Mg42 2.141 . S
O54 C45 1.289 . S
Mg55 O62 2.141 . S
Mg55 O63 2.048 . S
Mg55 O64 2.048 . S
Mg55 O67 2.141 . S
C56 O57 1.313 1_545 S
C56 O63 1.195 . S
O57 C56 1.313 1_565 S
C58 O59 1.245 1_545 S
C58 O67 1.289 . S
O59 C58 1.245 1_565 S
C60 O61 1.245 1_545 S
C60 O62 1.289 . S
O61 C60 1.245 1_565 S
O62 Mg55 2.141 . S
O62 C60 1.289 . S
O63 Mg55 2.048 . S
O63 C56 1.195 . S
O64 Mg55 2.048 . S
O64 C65 1.195 . S
C65 O64 1.195 . S
C65 O66 1.313 1_545 S
O66 C65 1.313 1_565 S
O67 Mg55 2.141 . S
O67 C58 1.289 . S
Mg68 O75 2.141 . S
Mg68 O76 2.048 . S
Mg68 O77 2.048 . S
Mg68 O80 2.141 . S
C69 O70 1.313 . S
C69 O76 1.195 . S
O70 C69 1.313 . S
C71 O72 1.245 . S
C71 O80 1.289 . S
O72 C71 1.245 . S
C73 O74 1.245 . S
C73 O75 1.289 . S
O74 C73 1.245 . S
O75 Mg68 2.141 . S
O75 C73 1.289 . S
O76 Mg68 2.048 . S
O76 C69 1.195 . S
O77 Mg68 2.048 . S
O77 C78 1.195 . S
C78 O77 1.195 . S
C78 O79 1.313 . S
O79 C78 1.313 . S
O80 Mg68 2.141 . S
O80 C71 1.289 . S
H81 C99 0.951 1_655 S
H82 C101 0.951 1_655 S
H83 C103 0.950 . S
H84 C104 0.950 . S
H85 C106 0.951 . S
H86 C109 0.950 . S
H87 C110 0.950 . S
H88 C112 0.950 . S
H89 C113 0.950 . S
H90 C114 0.951 . S
H91 C116 0.951 . S
H92 C118 0.953 . S
H93 C119 0.939 1_655 S
H94 C121 0.950 . S
H95 C124 0.950 . S
H96 C125 0.950 . S
H97 C127 0.950 . S
H98 C128 0.950 1_455 S
C99 H81 0.951 1_455 S
C99 C100 1.366 . S
C99 C101 1.388 . S
C100 C99 1.366 . S
C100 C104 1.385 . S
C101 H82 0.951 1_455 S
C101 C99 1.388 . S
C101 C102 1.366 . S
C102 C101 1.366 . S
C102 C103 1.414 . S
C102 C105 1.499 . S
C103 H83 0.950 . S
C103 C102 1.414 . S
C103 C104 1.374 . S
C104 H84 0.950 . S
C104 C100 1.385 . S
C104 C103 1.374 . S
C105 C102 1.499 . S
C105 C106 1.373 . S
C105 C107 1.389 . S
C106 H85 0.951 . S
C106 C105 1.373 . S
C106 C122 1.377 . S
C107 C105 1.389 . S
C107 C108 1.524 . S
C107 C121 1.377 . S
C108 C107 1.524 . S
C108 C109 1.397 . S
C108 C113 1.363 . S
C109 H86 0.950 . S
C109 C108 1.397 . S
C109 C110 1.334 . S
C110 H87 0.950 . S
C110 C109 1.334 . S
C110 C111 1.287 . S
C111 C110 1.287 . S
C111 C112 1.524 . S
C111 H130 0.913 . S
C112 H88 0.950 . S
C112 C111 1.524 . S
C112 C113 1.415 . S
C113 H89 0.950 . S
C113 C108 1.363 . S
C113 C112 1.415 . S
C114 H90 0.951 . S
C114 C115 1.366 . S
C114 C116 1.388 . S
C115 C114 1.366 . S
C115 C119 1.390 . S
C116 H91 0.951 . S
C116 C114 1.388 . S
C116 C117 1.366 . S
C117 C116 1.366 . S
C117 C118 1.410 1_455 S
C117 C120 1.499 . S
C118 H92 0.953 . S
C118 C117 1.410 1_655 S
C118 C119 1.381 1_655 S
C119 H93 0.939 1_455 S
C119 C115 1.390 . S
C119 C118 1.381 1_455 S
C120 C117 1.499 . S
C120 C121 1.373 . S
C120 C122 1.389 . S
C121 H94 0.950 . S
C121 C107 1.377 . S
C121 C120 1.373 . S
C122 C106 1.377 . S
C122 C120 1.389 . S
C122 C123 1.524 1_455 S
C123 C122 1.524 1_655 S
C123 C124 1.397 . S
C123 C128 1.363 . S
C124 H95 0.950 . S
C124 C123 1.397 . S
C124 C125 1.334 . S
C125 H96 0.950 . S
C125 C124 1.334 . S
C125 C126 1.287 . S
C126 C125 1.287 . S
C126 C127 1.524 . S
C126 H129 0.999 . S
C127 H97 0.950 . S
C127 C126 1.524 . S
C127 C128 1.415 . S
C128 H98 0.950 1_655 S
C128 C123 1.363 . S
C128 C127 1.415 . S
H129 C126 0.999 . S
H130 C111 0.913 . S
H131 C149 0.951 . S
H132 C151 0.951 . S
H133 C153 0.950 1_565 S
H134 C154 0.950 1_565 S
H135 C156 0.950 . S
H136 C159 0.950 . S
H137 C160 0.950 . S
H138 C162 0.950 . S
H139 C163 0.950 . S
H140 C164 0.951 1_565 S
H141 C166 0.951 1_565 S
H142 C168 0.950 . S
H143 C169 0.950 . S
H144 C171 0.950 . S
H145 C174 0.950 . S
H146 C175 0.950 . S
H147 C177 0.950 . S
H148 C178 0.950 . S
C149 H131 0.951 . S
C149 C150 1.366 . S
C149 C151 1.388 . S
C150 C149 1.366 . S
C150 C154 1.385 . S
C151 H132 0.951 . S
C151 C149 1.388 . S
C151 C152 1.366 . S
C152 C151 1.366 . S
C152 C153 1.414 . S
C152 C155 1.499 . S
C153 H133 0.950 1_545 S
C153 C152 1.414 . S
C153 C154 1.374 . S
C154 H134 0.950 1_545 S
C154 C150 1.385 . S
C154 C153 1.374 . S
C155 C152 1.499 . S
C155 C156 1.373 . S
C155 C157 1.389 . S
C156 H135 0.950 . S
C156 C155 1.373 . S
C156 C172 1.377 . S
C157 C155 1.389 . S
C157 C158 1.524 . S
C157 C171 1.377 . S
C158 C157 1.524 . S
C158 C159 1.397 . S
C158 C163 1.363 . S
C159 H136 0.950 . S
C159 C158 1.397 . S
C159 C160 1.334 . S
C160 H137 0.950 . S
C160 C159 1.334 . S
C160 C161 1.287 . S
C161 C160 1.287 . S
C161 C162 1.524 . S
C161 H180 0.913 1_655 S
C162 H138 0.950 . S
C162 C161 1.524 . S
C162 C163 1.415 . S
C163 H139 0.950 . S
C163 C158 1.363 . S
C163 C162 1.415 . S
C164 H140 0.951 1_545 S
C164 C165 1.366 . S
C164 C166 1.388 . S
C165 C164 1.366 . S
C165 C169 1.385 . S
C166 H141 0.951 1_545 S
C166 C164 1.388 . S
C166 C167 1.366 . S
C167 C166 1.366 . S
C167 C168 1.414 . S
C167 C170 1.499 . S
C168 H142 0.950 . S
C168 C167 1.414 . S
C168 C169 1.374 . S
C169 H143 0.950 . S
C169 C165 1.385 . S
C169 C168 1.374 . S
C170 C167 1.499 . S
C170 C171 1.373 . S
C170 C172 1.389 . S
C171 H144 0.950 . S
C171 C157 1.377 . S
C171 C170 1.373 . S
C172 C156 1.377 . S
C172 C170 1.389 . S
C172 C173 1.524 . S
C173 C172 1.524 . S
C173 C174 1.397 . S
C173 C178 1.363 1_545 S
C174 H145 0.950 . S
C174 C173 1.397 . S
C174 C175 1.334 . S
C175 H146 0.950 . S
C175 C174 1.334 . S
C175 C176 1.287 1_545 S
C176 C175 1.287 1_565 S
C176 C177 1.524 . S
C176 H179 0.999 . S
C177 H147 0.950 . S
C177 C176 1.524 . S
C177 C178 1.415 . S
C178 H148 0.950 . S
C178 C173 1.363 1_565 S
C178 C177 1.415 . S
H179 C176 0.999 . S
H180 C161 0.913 1_455 S
H181 C199 0.951 . S
H182 C201 0.951 . S
H183 C203 0.950 . S
H184 C204 0.950 . S
H185 C206 0.950 . S
H186 C209 0.950 . S
H187 C210 0.950 1_545 S
H188 C212 0.951 . S
H189 C213 0.950 . S
H190 C214 0.951 . S
H191 C216 0.951 . S
H192 C218 0.950 . S
H193 C219 0.950 . S
H194 C221 0.950 . S
H195 C224 0.950 . S
H196 C225 0.950 . S
H197 C227 0.950 . S
H198 C228 0.950 . S
C199 H181 0.951 . S
C199 C200 1.366 . S
C199 C201 1.388 . S
C200 C199 1.366 . S
C200 C204 1.385 . S
C201 H182 0.951 . S
C201 C199 1.388 . S
C201 C202 1.366 . S
C202 C201 1.366 . S
C202 C203 1.414 . S
C202 C205 1.499 . S
C203 H183 0.950 . S
C203 C202 1.414 . S
C203 C204 1.374 . S
C204 H184 0.950 . S
C204 C200 1.385 . S
C204 C203 1.374 . S
C205 C202 1.499 . S
C205 C206 1.373 . S
C205 C207 1.389 . S
C206 H185 0.950 . S
C206 C205 1.373 . S
C206 C222 1.377 . S
C207 C205 1.389 . S
C207 C208 1.524 . S
C207 C221 1.377 . S
C208 C207 1.524 . S
C208 C209 1.397 . S
C208 C213 1.363 . S
C209 H186 0.950 . S
C209 C208 1.397 . S
C209 C210 1.334 . S
C210 H187 0.950 1_565 S
C210 C209 1.334 . S
C210 C211 1.287 1_565 S
C211 C210 1.287 1_545 S
C211 C212 1.524 1_545 S
C211 H230 0.913 . S
C212 H188 0.951 . S
C212 C211 1.524 1_565 S
C212 C213 1.415 . S
C213 H189 0.950 . S
C213 C208 1.363 . S
C213 C212 1.415 . S
C214 H190 0.951 . S
C214 C215 1.366 . S
C214 C216 1.388 . S
C215 C214 1.366 . S
C215 C219 1.385 . S
C216 H191 0.951 . S
C216 C214 1.388 . S
C216 C217 1.366 . S
C217 C216 1.366 . S
C217 C218 1.414 . S
C217 C220 1.499 . S
C218 H192 0.950 . S
C218 C217 1.414 . S
C218 C219 1.374 . S
C219 H193 0.950 . S
C219 C215 1.385 . S
C219 C218 1.374 . S
C220 C217 1.499 . S
C220 C221 1.373 . S
C220 C222 1.389 . S
C221 H194 0.950 . S
C221 C207 1.377 . S
C221 C220 1.373 . S
C222 C206 1.377 . S
C222 C220 1.389 . S
C222 C223 1.524 . S
C223 C222 1.524 . S
C223 C224 1.397 . S
C223 C228 1.363 . S
C224 H195 0.950 . S
C224 C223 1.397 . S
C224 C225 1.334 . S
C225 H196 0.950 . S
C225 C224 1.334 . S
C225 C226 1.287 . S
C226 C225 1.287 . S
C226 C227 1.524 . S
C226 H229 0.999 . S
C227 H197 0.950 . S
C227 C226 1.524 . S
C227 C228 1.415 . S
C228 H198 0.950 . S
C228 C223 1.363 . S
C228 C227 1.415 . S
H229 C226 0.999 . S
H230 C211 0.913 . S
H231 C249 0.951 . S
H232 C251 0.951 . S
H233 C253 0.965 . S
H234 C254 0.950 1_655 S
H235 C256 0.950 . S
H236 C259 0.950 . S
H237 C260 0.950 . S
H238 C262 0.950 . S
H239 C263 0.950 . S
H240 C264 0.951 . S
H241 C266 0.951 . S
H242 C268 0.950 . S
H243 C269 0.950 . S
H244 C271 0.950 . S
H245 C274 0.950 . S
H246 C275 0.950 . S
H247 C277 0.950 . S
H248 C278 0.950 1_655 S
C249 H231 0.951 . S
C249 C250 1.366 . S
C249 C251 1.388 . S
C250 C249 1.366 . S
C250 C254 1.385 . S
C251 H232 0.951 . S
C251 C249 1.388 . S
C251 C252 1.366 . S
C252 C251 1.366 . S
C252 C253 1.392 1_455 S
C252 C255 1.499 . S
C253 H233 0.965 . S
C253 C252 1.392 1_655 S
C253 C254 1.382 1_655 S
C254 H234 0.950 1_455 S
C254 C250 1.385 . S
C254 C253 1.382 1_455 S
C255 C252 1.499 . S
C255 C256 1.373 . S
C255 C257 1.389 . S
C256 H235 0.950 . S
C256 C255 1.373 . S
C256 C272 1.377 . S
C257 C255 1.389 . S
C257 C258 1.524 . S
C257 C271 1.377 . S
C258 C257 1.524 . S
C258 C259 1.397 1_455 S
C258 C263 1.363 . S
C259 H236 0.950 . S
C259 C258 1.397 1_655 S
C259 C260 1.334 . S
C260 H237 0.950 . S
C260 C259 1.334 . S
C260 C261 1.287 . S
C261 C260 1.287 . S
C261 C262 1.524 1_655 S
C261 H280 0.913 . S
C262 H238 0.950 . S
C262 C261 1.524 1_455 S
C262 C263 1.415 . S
C263 H239 0.950 . S
C263 C258 1.363 . S
C263 C262 1.415 . S
C264 H240 0.951 . S
C264 C265 1.366 1_655 S
C264 C266 1.388 . S
C265 C264 1.366 1_455 S
C265 C269 1.385 . S
C266 H241 0.951 . S
C266 C264 1.388 . S
C266 C267 1.366 1_655 S
C267 C266 1.366 1_455 S
C267 C268 1.414 . S
C267 C270 1.499 . S
C268 H242 0.950 . S
C268 C267 1.414 . S
C268 C269 1.374 . S
C269 H243 0.950 . S
C269 C265 1.385 . S
C269 C268 1.374 . S
C270 C267 1.499 . S
C270 C271 1.373 . S
C270 C272 1.389 . S
C271 H244 0.950 . S
C271 C257 1.377 . S
C271 C270 1.373 . S
C272 C256 1.377 . S
C272 C270 1.389 . S
C272 C273 1.524 . S
C273 C272 1.524 . S
C273 C274 1.397 . S
C273 C278 1.363 . S
C274 H245 0.950 . S
C274 C273 1.397 . S
C274 C275 1.334 . S
C275 H246 0.950 . S
C275 C274 1.334 . S
C275 C276 1.287 . S
C276 C275 1.287 . S
C276 C277 1.524 . S
C276 H279 0.999 . S
C277 H247 0.950 . S
C277 C276 1.524 . S
C277 C278 1.415 . S
C278 H248 0.950 1_455 S
C278 C273 1.363 . S
C278 C277 1.415 . S
H279 C276 0.999 . S
H280 C261 0.913 . S
H281 C299 0.951 . S
H282 C301 0.951 . S
H283 C303 0.950 . S
H284 C304 0.950 . S
H285 C306 0.950 . S
H286 C309 0.950 . S
H287 C310 0.950 . S
H288 C312 0.950 . S
H289 C313 0.950 . S
H290 C314 0.951 . S
H291 C316 0.951 . S
H292 C318 0.950 . S
H293 C319 0.960 . S
H294 C321 0.950 . S
H295 C324 0.950 . S
H296 C325 0.950 . S
H297 C327 0.950 . S
H298 C328 0.950 . S
C299 H281 0.951 . S
C299 C300 1.366 . S
C299 C301 1.388 . S
C300 C299 1.366 . S
C300 C304 1.385 . S
C301 H282 0.951 . S
C301 C299 1.388 . S
C301 C302 1.366 . S
C302 C301 1.366 . S
C302 C303 1.414 . S
C302 C305 1.499 . S
C303 H283 0.950 . S
C303 C302 1.414 . S
C303 C304 1.374 . S
C304 H284 0.950 . S
C304 C300 1.385 . S
C304 C303 1.374 . S
C305 C302 1.499 . S
C305 C306 1.373 . S
C305 C307 1.389 . S
C306 H285 0.950 . S
C306 C305 1.373 . S
C306 C322 1.377 . S
C307 C305 1.389 . S
C307 C308 1.524 . S
C307 C321 1.377 . S
C308 C307 1.524 . S
C308 C309 1.397 . S
C308 C313 1.363 . S
C309 H286 0.950 . S
C309 C308 1.397 . S
C309 C310 1.334 . S
C310 H287 0.950 . S
C310 C309 1.334 . S
C310 C311 1.287 . S
C311 C310 1.287 . S
C311 C312 1.524 . S
C311 H330 0.913 . S
C312 H288 0.950 . S
C312 C311 1.524 . S
C312 C313 1.415 . S
C313 H289 0.950 . S
C313 C308 1.363 . S
C313 C312 1.415 . S
C314 H290 0.951 . S
C314 C315 1.366 . S
C314 C316 1.388 . S
C315 C314 1.366 . S
C315 C319 1.385 . S
C316 H291 0.951 . S
C316 C314 1.388 . S
C316 C317 1.366 . S
C317 C316 1.366 . S
C317 C318 1.414 . S
C317 C320 1.499 . S
C318 H292 0.950 . S
C318 C317 1.414 . S
C318 C319 1.374 . S
C319 H293 0.960 . S
C319 C315 1.385 . S
C319 C318 1.374 . S
C320 C317 1.499 . S
C320 C321 1.373 . S
C320 C322 1.389 . S
C321 H294 0.950 . S
C321 C307 1.377 . S
C321 C320 1.373 . S
C322 C306 1.377 . S
C322 C320 1.389 . S
C322 C323 1.524 . S
C323 C322 1.524 . S
C323 C324 1.397 1_545 S
C323 C328 1.363 . S
C324 H295 0.950 . S
C324 C323 1.397 1_565 S
C324 C325 1.334 . S
C325 H296 0.950 . S
C325 C324 1.334 . S
C325 C326 1.287 . S
C326 C325 1.287 . S
C326 C327 1.524 1_565 S
C326 H329 0.999 . S
C327 H297 0.950 . S
C327 C326 1.524 1_545 S
C327 C328 1.415 . S
C328 H298 0.950 . S
C328 C323 1.363 . S
C328 C327 1.415 . S
H329 C326 0.999 . S
H330 C311 0.913 . S
H331 C349 0.951 . S
H332 C351 0.951 . S
H333 C353 0.950 . S
H334 C354 0.950 . S
H335 C356 0.950 . S
H336 C359 0.950 . S
H337 C360 0.950 . S
H338 C362 0.950 . S
H339 C363 0.950 . S
H340 C364 0.951 . S
H341 C366 0.951 . S
H342 C368 0.950 . S
H343 C369 0.950 . S
H344 C371 0.950 . S
H345 C374 0.950 . S
H346 C375 0.950 . S
H347 C377 0.950 . S
H348 C378 0.950 . S
C349 H331 0.951 . S
C349 C350 1.366 . S
C349 C351 1.388 . S
C350 C349 1.366 . S
C350 C354 1.385 . S
C351 H332 0.951 . S
C351 C349 1.388 . S
C351 C352 1.366 . S
C352 C351 1.366 . S
C352 C353 1.414 . S
C352 C355 1.499 . S
C353 H333 0.950 . S
C353 C352 1.414 . S
C353 C354 1.374 . S
C354 H334 0.950 . S
C354 C350 1.385 . S
C354 C353 1.374 . S
C355 C352 1.499 . S
C355 C356 1.373 . S
C355 C357 1.389 . S
C356 H335 0.950 . S
C356 C355 1.373 . S
C356 C372 1.377 . S
C357 C355 1.389 . S
C357 C358 1.524 . S
C357 C371 1.377 . S
C358 C357 1.524 . S
C358 C359 1.397 . S
C358 C363 1.363 . S
C359 H336 0.950 . S
C359 C358 1.397 . S
C359 C360 1.334 . S
C360 H337 0.950 . S
C360 C359 1.334 . S
C360 C361 1.287 . S
C361 C360 1.287 . S
C361 C362 1.524 . S
C361 H380 0.913 . S
C362 H338 0.950 . S
C362 C361 1.524 . S
C362 C363 1.415 . S
C363 H339 0.950 . S
C363 C358 1.363 . S
C363 C362 1.415 . S
C364 H340 0.951 . S
C364 C365 1.366 . S
C364 C366 1.388 . S
C365 C364 1.366 . S
C365 C369 1.385 . S
C366 H341 0.951 . S
C366 C364 1.388 . S
C366 C367 1.366 . S
C367 C366 1.366 . S
C367 C368 1.414 . S
C367 C370 1.499 . S
C368 H342 0.950 . S
C368 C367 1.414 . S
C368 C369 1.374 . S
C369 H343 0.950 . S
C369 C365 1.385 . S
C369 C368 1.374 . S
C370 C367 1.499 . S
C370 C371 1.373 . S
C370 C372 1.389 . S
C371 H344 0.950 . S
C371 C357 1.377 . S
C371 C370 1.373 . S
C372 C356 1.377 . S
C372 C370 1.389 . S
C372 C373 1.524 . S
C373 C372 1.524 . S
C373 C374 1.397 . S
C373 C378 1.363 . S
C374 H345 0.950 . S
C374 C373 1.397 . S
C374 C375 1.334 . S
C375 H346 0.950 . S
C375 C374 1.334 . S
C375 C376 1.287 . S
C376 C375 1.287 . S
C376 C377 1.524 . S
C376 H379 0.999 . S
C377 H347 0.950 . S
C377 C376 1.524 . S
C377 C378 1.415 . S
C378 H348 0.950 . S
C378 C373 1.363 . S
C378 C377 1.415 . S
H379 C376 0.999 . S
H380 C361 0.913 . S
H381 C399 0.951 . S
H382 C401 0.951 . S
H383 C403 0.950 . S
H384 C404 0.950 . S
H385 C406 0.950 . S
H386 C409 0.950 . S
H387 C410 0.950 . S
H388 C412 0.950 . S
H389 C413 0.950 . S
H390 C414 0.951 . S
H391 C416 0.951 . S
H392 C418 0.950 . S
H393 C419 0.950 . S
H394 C421 0.950 . S
H395 C424 0.950 . S
H396 C425 0.950 . S
H397 C427 0.950 . S
H398 C428 0.950 . S
C399 H381 0.951 . S
C399 C400 1.366 . S
C399 C401 1.388 . S
C400 C399 1.366 . S
C400 C404 1.385 . S
C401 H382 0.951 . S
C401 C399 1.388 . S
C401 C402 1.366 . S
C402 C401 1.366 . S
C402 C403 1.414 . S
C402 C405 1.499 . S
C403 H383 0.950 . S
C403 C402 1.414 . S
C403 C404 1.374 . S
C404 H384 0.950 . S
C404 C400 1.385 . S
C404 C403 1.374 . S
C405 C402 1.499 . S
C405 C406 1.373 . S
C405 C407 1.389 1_545 S
C406 H385 0.950 . S
C406 C405 1.373 . S
C406 C422 1.377 . S
C407 C405 1.389 1_565 S
C407 C408 1.524 . S
C407 C421 1.377 . S
C408 C407 1.524 . S
C408 C409 1.397 . S
C408 C413 1.363 . S
C409 H386 0.950 . S
C409 C408 1.397 . S
C409 C410 1.334 . S
C410 H387 0.950 . S
C410 C409 1.334 . S
C410 C411 1.287 . S
C411 C410 1.287 . S
C411 C412 1.524 . S
C411 H430 0.913 . S
C412 H388 0.950 . S
C412 C411 1.524 . S
C412 C413 1.415 . S
C413 H389 0.950 . S
C413 C408 1.363 . S
C413 C412 1.415 . S
C414 H390 0.951 . S
C414 C415 1.366 . S
C414 C416 1.388 . S
C415 C414 1.366 . S
C415 C419 1.385 . S
C416 H391 0.951 . S
C416 C414 1.388 . S
C416 C417 1.366 . S
C417 C416 1.366 . S
C417 C418 1.414 . S
C417 C420 1.499 . S
C418 H392 0.950 . S
C418 C417 1.414 . S
C418 C419 1.374 . S
C419 H393 0.950 . S
C419 C415 1.385 . S
C419 C418 1.374 . S
C420 C417 1.499 . S
C420 C421 1.373 1_545 S
C420 C422 1.389 . S
C421 H394 0.950 . S
C421 C407 1.377 . S
C421 C420 1.373 1_565 S
C422 C406 1.377 . S
C422 C420 1.389 . S
C422 C423 1.524 . S
C423 C422 1.524 . S
C423 C424 1.397 . S
C423 C428 1.363 . S
C424 H395 0.950 . S
C424 C423 1.397 . S
C424 C425 1.334 . S
C425 H396 0.950 . S
C425 C424 1.334 . S
C425 C426 1.287 . S
C426 C425 1.287 . S
C426 C427 1.524 . S
C426 H429 0.999 . S
C427 H397 0.950 . S
C427 C426 1.524 . S
C427 C428 1.415 . S
C428 H398 0.950 . S
C428 C423 1.363 . S
C428 C427 1.415 . S
H429 C426 0.999 . S
H430 C411 0.913 . S
H431 C449 0.951 . S
H432 C451 0.951 . S
H433 C453 0.950 . S
H434 C454 0.950 . S
H435 C456 0.950 . S
H436 C459 0.950 1_554 S
H437 C460 0.960 . S
H438 C462 0.950 1_545 S
H439 C463 0.950 . S
H440 C464 0.951 . S
H441 C466 0.951 . S
H442 C468 0.950 . S
H443 C469 0.950 . S
H444 C471 0.950 . S
H445 C474 0.950 . S
H446 C475 0.950 . S
H447 C477 0.950 . S
H448 C478 0.950 . S
C449 H431 0.951 . S
C449 C450 1.366 . S
C449 C451 1.388 . S
C450 C449 1.366 . S
C450 C454 1.385 . S
C451 H432 0.951 . S
C451 C449 1.388 . S
C451 C452 1.366 . S
C452 C451 1.366 . S
C452 C453 1.414 . S
C452 C455 1.499 . S
C453 H433 0.950 . S
C453 C452 1.414 . S
C453 C454 1.374 . S
C454 H434 0.950 . S
C454 C450 1.385 . S
C454 C453 1.374 . S
C455 C452 1.499 . S
C455 C456 1.373 . S
C455 C457 1.389 1_554 S
C456 H435 0.950 . S
C456 C455 1.373 . S
C456 C472 1.355 1_554 S
C457 C455 1.389 1_556 S
C457 C458 1.524 . S
C457 C471 1.377 . S
C458 C457 1.524 . S
C458 C459 1.397 . S
C458 C463 1.363 . S
C459 H436 0.950 1_556 S
C459 C458 1.397 . S
C459 C460 1.334 1_565 S
C460 H437 0.960 . S
C460 C459 1.334 1_545 S
C460 C461 1.287 . S
C461 C460 1.287 . S
C461 C462 1.524 1_545 S
C461 H480 0.913 . S
C462 H438 0.950 1_565 S
C462 C461 1.524 1_565 S
C462 C463 1.415 . S
C463 H439 0.950 . S
C463 C458 1.363 . S
C463 C462 1.415 . S
C464 H440 0.951 . S
C464 C465 1.366 . S
C464 C466 1.388 . S
C465 C464 1.366 . S
C465 C469 1.385 . S
C466 H441 0.951 . S
C466 C464 1.388 . S
C466 C467 1.366 . S
C467 C466 1.366 . S
C467 C468 1.414 . S
C467 C470 1.499 . S
C468 H442 0.950 . S
C468 C467 1.414 . S
C468 C469 1.374 . S
C469 H443 0.950 . S
C469 C465 1.385 . S
C469 C468 1.374 . S
C470 C467 1.499 . S
C470 C471 1.373 . S
C470 C472 1.419 . S
C471 H444 0.950 . S
C471 C457 1.377 . S
C471 C470 1.373 . S
C472 C456 1.355 1_556 S
C472 C470 1.419 . S
C472 C473 1.515 1_556 S
C473 C472 1.515 1_554 S
C473 C474 1.397 1_554 S
C473 C478 1.363 . S
C474 H445 0.950 . S
C474 C473 1.397 1_556 S
C474 C475 1.334 . S
C475 H446 0.950 . S
C475 C474 1.334 . S
C475 C476 1.287 1_556 S
C476 C475 1.287 1_554 S
C476 C477 1.524 . S
C476 H479 0.999 . S
C477 H447 0.950 . S
C477 C476 1.524 . S
C477 C478 1.415 . S
C478 H448 0.950 . S
C478 C473 1.363 . S
C478 C477 1.415 . S
H479 C476 0.999 . S
H480 C461 0.913 . S
H481 C499 0.951 . S
H482 C501 0.951 . S
H483 C503 0.950 . S
H484 C504 0.950 . S
H485 C506 0.950 . S
H486 C509 0.950 . S
H487 C510 0.950 . S
H488 C512 0.950 . S
H489 C513 0.950 . S
H490 C514 0.951 . S
H491 C516 0.951 . S
H492 C518 0.950 . S
H493 C519 0.950 . S
H494 C521 0.950 . S
H495 C524 0.950 . S
H496 C525 0.950 . S
H497 C527 0.950 . S
H498 C528 0.950 . S
C499 H481 0.951 . S
C499 C500 1.366 . S
C499 C501 1.388 . S
C500 C499 1.366 . S
C500 C504 1.385 . S
C501 H482 0.951 . S
C501 C499 1.388 . S
C501 C502 1.366 . S
C502 C501 1.366 . S
C502 C503 1.414 . S
C502 C505 1.499 . S
C503 H483 0.950 . S
C503 C502 1.414 . S
C503 C504 1.374 . S
C504 H484 0.950 . S
C504 C500 1.385 . S
C504 C503 1.374 . S
C505 C502 1.499 . S
C505 C506 1.373 . S
C505 C507 1.389 1_455 S
C506 H485 0.950 . S
C506 C505 1.373 . S
C506 C522 1.377 . S
C507 C505 1.389 1_655 S
C507 C508 1.524 . S
C507 C521 1.377 . S
C508 C507 1.524 . S
C508 C509 1.397 . S
C508 C513 1.363 . S
C509 H486 0.950 . S
C509 C508 1.397 . S
C509 C510 1.334 . S
C510 H487 0.950 . S
C510 C509 1.334 . S
C510 C511 1.287 . S
C511 C510 1.287 . S
C511 C512 1.524 . S
C511 H530 0.913 . S
C512 H488 0.950 . S
C512 C511 1.524 . S
C512 C513 1.415 . S
C513 H489 0.950 . S
C513 C508 1.363 . S
C513 C512 1.415 . S
C514 H490 0.951 . S
C514 C515 1.366 . S
C514 C516 1.388 . S
C515 C514 1.366 . S
C515 C519 1.385 . S
C516 H491 0.951 . S
C516 C514 1.388 . S
C516 C517 1.366 . S
C517 C516 1.366 . S
C517 C518 1.414 . S
C517 C520 1.499 . S
C518 H492 0.950 . S
C518 C517 1.414 . S
C518 C519 1.374 . S
C519 H493 0.950 . S
C519 C515 1.385 . S
C519 C518 1.374 . S
C520 C517 1.499 . S
C520 C521 1.373 1_455 S
C520 C522 1.389 . S
C521 H494 0.950 . S
C521 C507 1.377 . S
C521 C520 1.373 1_655 S
C522 C506 1.377 . S
C522 C520 1.389 . S
C522 C523 1.524 . S
C523 C522 1.524 . S
C523 C524 1.397 . S
C523 C528 1.363 . S
C524 H495 0.950 . S
C524 C523 1.397 . S
C524 C525 1.334 . S
C525 H496 0.950 . S
C525 C524 1.334 . S
C525 C526 1.287 . S
C526 C525 1.287 . S
C526 C527 1.524 . S
C526 H529 0.999 . S
C527 H497 0.950 . S
C527 C526 1.524 . S
C527 C528 1.415 . S
C528 H498 0.950 . S
C528 C523 1.363 . S
C528 C527 1.415 . S
H529 C526 0.999 . S
H530 C511 0.913 . S
H531 C549 0.951 . S
H532 C551 0.951 . S
H533 C553 0.950 . S
H534 C554 0.950 . S
H535 C556 0.950 . S
H536 C559 0.950 . S
H537 C560 0.950 . S
H538 C562 0.950 . S
H539 C563 0.950 . S
H540 C564 0.951 . S
H541 C566 0.951 . S
H542 C568 0.950 . S
H543 C569 0.950 . S
H544 C571 0.950 1_565 S
H545 C574 0.950 . S
H546 C575 0.950 . S
H547 C577 0.950 . S
H548 C578 0.950 . S
C549 H531 0.951 . S
C549 C550 1.366 . S
C549 C551 1.388 . S
C550 C549 1.366 . S
C550 C554 1.385 . S
C551 H532 0.951 . S
C551 C549 1.388 . S
C551 C552 1.366 . S
C552 C551 1.366 . S
C552 C553 1.414 . S
C552 C555 1.499 . S
C553 H533 0.950 . S
C553 C552 1.414 . S
C553 C554 1.374 . S
C554 H534 0.950 . S
C554 C550 1.385 . S
C554 C553 1.374 . S
C555 C552 1.499 . S
C555 C556 1.373 . S
C555 C557 1.389 . S
C556 H535 0.950 . S
C556 C555 1.373 . S
C556 C572 1.377 . S
C557 C555 1.389 . S
C557 C558 1.524 1_545 S
C557 C571 1.377 . S
C558 C557 1.524 1_565 S
C558 C559 1.397 . S
C558 C563 1.363 . S
C559 H536 0.950 . S
C559 C558 1.397 . S
C559 C560 1.334 . S
C560 H537 0.950 . S
C560 C559 1.334 . S
C560 C561 1.287 . S
C561 C560 1.287 . S
C561 C562 1.524 . S
C561 H580 0.913 . S
C562 H538 0.950 . S
C562 C561 1.524 . S
C562 C563 1.415 . S
C563 H539 0.950 . S
C563 C558 1.363 . S
C563 C562 1.415 . S
C564 H540 0.951 . S
C564 C565 1.366 . S
C564 C566 1.388 . S
C565 C564 1.366 . S
C565 C569 1.385 . S
C566 H541 0.951 . S
C566 C564 1.388 . S
C566 C567 1.366 . S
C567 C566 1.366 . S
C567 C568 1.414 . S
C567 C570 1.499 . S
C568 H542 0.950 . S
C568 C567 1.414 . S
C568 C569 1.374 . S
C569 H543 0.950 . S
C569 C565 1.385 . S
C569 C568 1.374 . S
C570 C567 1.499 . S
C570 C571 1.373 . S
C570 C572 1.389 . S
C571 H544 0.950 1_545 S
C571 C557 1.377 . S
C571 C570 1.373 . S
C572 C556 1.377 . S
C572 C570 1.389 . S
C572 C573 1.524 . S
C573 C572 1.524 . S
C573 C574 1.397 . S
C573 C578 1.363 . S
C574 H545 0.950 . S
C574 C573 1.397 . S
C574 C575 1.334 . S
C575 H546 0.950 . S
C575 C574 1.334 . S
C575 C576 1.287 . S
C576 C575 1.287 . S
C576 C577 1.524 . S
C576 H579 0.999 . S
C577 H547 0.950 . S
C577 C576 1.524 . S
C577 C578 1.415 . S
C578 H548 0.950 . S
C578 C573 1.363 . S
C578 C577 1.415 . S
H579 C576 0.999 . S
H580 C561 0.913 . S
H581 C599 0.951 . S
H582 C601 0.951 . S
H583 C603 0.950 . S
H584 C604 0.950 . S
H585 C606 0.950 . S
H586 C609 0.950 . S
H587 C610 0.950 . S
H588 C612 0.949 1_554 S
H589 C613 0.951 1_554 S
H590 C614 0.951 . S
H591 C616 0.951 . S
H592 C618 0.950 . S
H593 C619 0.950 . S
H594 C621 0.950 . S
H595 C624 0.950 . S
H596 C625 0.950 . S
H597 C627 0.950 . S
H598 C628 0.950 . S
C599 H581 0.951 . S
C599 C600 1.366 . S
C599 C601 1.388 . S
C600 C599 1.366 . S
C600 C604 1.385 . S
C601 H582 0.951 . S
C601 C599 1.388 . S
C601 C602 1.366 . S
C602 C601 1.366 . S
C602 C603 1.414 . S
C602 C605 1.499 . S
C603 H583 0.950 . S
C603 C602 1.414 . S
C603 C604 1.374 . S
C604 H584 0.950 . S
C604 C600 1.385 . S
C604 C603 1.374 . S
C605 C602 1.499 . S
C605 C606 1.373 . S
C605 C607 1.389 1_554 S
C606 H585 0.950 . S
C606 C605 1.373 . S
C606 C622 1.377 1_554 S
C607 C605 1.389 1_556 S
C607 C608 1.524 . S
C607 C621 1.377 . S
C608 C607 1.524 . S
C608 C609 1.397 . S
C608 C613 1.362 . S
C609 H586 0.950 . S
C609 C608 1.397 . S
C609 C610 1.334 . S
C610 H587 0.950 . S
C610 C609 1.334 . S
C610 C611 1.287 . S
C611 C610 1.287 . S
C611 C612 1.525 . S
C611 H630 0.913 . S
C612 H588 0.949 1_556 S
C612 C611 1.525 . S
C612 C613 1.415 . S
C613 H589 0.951 1_556 S
C613 C608 1.362 . S
C613 C612 1.415 . S
C614 H590 0.951 . S
C614 C615 1.366 . S
C614 C616 1.388 . S
C615 C614 1.366 . S
C615 C619 1.385 . S
C616 H591 0.951 . S
C616 C614 1.388 . S
C616 C617 1.366 . S
C617 C616 1.366 . S
C617 C618 1.414 . S
C617 C620 1.499 . S
C618 H592 0.950 . S
C618 C617 1.414 . S
C618 C619 1.374 . S
C619 H593 0.950 . S
C619 C615 1.385 . S
C619 C618 1.374 . S
C620 C617 1.499 . S
C620 C621 1.373 . S
C620 C622 1.389 . S
C621 H594 0.950 . S
C621 C607 1.377 . S
C621 C620 1.373 . S
C622 C606 1.377 1_556 S
C622 C620 1.389 . S
C622 C623 1.524 . S
C623 C622 1.524 . S
C623 C624 1.397 . S
C623 C628 1.363 . S
C624 H595 0.950 . S
C624 C623 1.397 . S
C624 C625 1.334 . S
C625 H596 0.950 . S
C625 C624 1.334 . S
C625 C626 1.287 . S
C626 C625 1.287 . S
C626 C627 1.524 . S
C626 H629 0.999 . S
C627 H597 0.950 . S
C627 C626 1.524 . S
C627 C628 1.415 . S
C628 H598 0.950 . S
C628 C623 1.363 . S
C628 C627 1.415 . S
H629 C626 0.999 . S
H630 C611 0.913 . S
H631 C649 0.951 . S
H632 C651 0.951 . S
H633 C653 0.950 . S
H634 C654 0.950 . S
H635 C656 0.950 . S
H636 C659 0.950 . S
H637 C660 0.950 1_455 S
H638 C662 0.950 . S
H639 C663 0.950 . S
H640 C664 0.951 . S
H641 C666 0.951 . S
H642 C668 0.950 . S
H643 C669 0.950 . S
H644 C671 0.950 1_655 S
H645 C674 0.950 . S
H646 C675 0.950 . S
H647 C677 0.950 . S
H648 C678 0.950 . S
C649 H631 0.951 . S
C649 C650 1.366 1_655 S
C649 C651 1.388 . S
C650 C649 1.366 1_455 S
C650 C654 1.385 . S
C651 H632 0.951 . S
C651 C649 1.388 . S
C651 C652 1.366 1_655 S
C652 C651 1.366 1_455 S
C652 C653 1.414 . S
C652 C655 1.499 . S
C653 H633 0.950 . S
C653 C652 1.414 . S
C653 C654 1.374 . S
C654 H634 0.950 . S
C654 C650 1.385 . S
C654 C653 1.374 . S
C655 C652 1.499 . S
C655 C656 1.373 . S
C655 C657 1.389 . S
C656 H635 0.950 . S
C656 C655 1.373 . S
C656 C672 1.377 . S
C657 C655 1.389 . S
C657 C658 1.524 1_455 S
C657 C671 1.377 . S
C658 C657 1.524 1_655 S
C658 C659 1.397 1_655 S
C658 C663 1.363 . S
C659 H636 0.950 . S
C659 C658 1.397 1_455 S
C659 C660 1.334 1_455 S
C660 H637 0.950 1_655 S
C660 C659 1.334 1_655 S
C660 C661 1.287 . S
C661 C660 1.287 . S
C661 C662 1.524 . S
C661 H680 0.913 . S
C662 H638 0.950 . S
C662 C661 1.524 . S
C662 C663 1.415 . S
C663 H639 0.950 . S
C663 C658 1.363 . S
C663 C662 1.415 . S
C664 H640 0.951 . S
C664 C665 1.366 . S
C664 C666 1.388 . S
C665 C664 1.366 . S
C665 C669 1.385 1_455 S
C666 H641 0.951 . S
C666 C664 1.388 . S
C666 C667 1.366 . S
C667 C666 1.366 . S
C667 C668 1.414 1_455 S
C667 C670 1.499 . S
C668 H642 0.950 . S
C668 C667 1.414 1_655 S
C668 C669 1.374 . S
C669 H643 0.950 . S
C669 C665 1.385 1_655 S
C669 C668 1.374 . S
C670 C667 1.499 . S
C670 C671 1.373 . S
C670 C672 1.389 . S
C671 H644 0.950 1_455 S
C671 C657 1.377 . S
C671 C670 1.373 . S
C672 C656 1.377 . S
C672 C670 1.389 . S
C672 C673 1.524 . S
C673 C672 1.524 . S
C673 C674 1.397 . S
C673 C678 1.363 . S
C674 H645 0.950 . S
C674 C673 1.397 . S
C674 C675 1.334 . S
C675 H646 0.950 . S
C675 C674 1.334 . S
C675 C676 1.287 . S
C676 C675 1.287 . S
C676 C677 1.524 . S
C676 H679 0.999 . S
C677 H647 0.950 . S
C677 C676 1.524 . S
C677 C678 1.415 . S
C678 H648 0.950 . S
C678 C673 1.363 . S
C678 C677 1.415 . S
H679 C676 0.999 . S
H680 C661 0.913 . S
C115 C47 1.404 . S
C100 C3 1.407 . S
C150 C21 1.497 . S
C165 C65 1.518 . S
C200 C37 1.477 . S
C215 C78 1.490 . S
C250 C8 1.408 . S
C265 C45 1.403 . S
C315 C56 1.484 . S
C300 C23 1.467 . S
C350 C35 1.471 . S
C365 C69 1.490 . S
C415 C58 1.402 . S
C400 C31 1.404 . S
C450 C7 1.392 . S
C465 C71 1.405 . S
C515 C52 1.483 . S
C500 C17 1.483 . S
C565 C60 1.359 . S
C550 C36 1.367 . S
C615 C73 1.408 . S
C600 C9 1.401 . S
C650 C22 1.481 . S
C665 C43 1.479 . S
