# Generated by pormake.
# Topology iac, (4,6)-cn, num edge types: 1
# Building blocks:
#     Node 0, Type 0, BuildingBlock: GALJAG_clean_sbu_0, # of connection points: 4
#     Node 1, Type 0, BuildingBlock: GALJAG_clean_sbu_0, # of connection points: 4
#     Node 2, Type 0, BuildingBlock: GALJAG_clean_sbu_0, # of connection points: 4
#     Node 3, Type 0, BuildingBlock: GALJAG_clean_sbu_0, # of connection points: 4
#     Node 4, Type 0, BuildingBlock: GALJAG_clean_sbu_0, # of connection points: 4
#     Node 5, Type 0, BuildingBlock: GALJAG_clean_sbu_0, # of connection points: 4
#     Node 6, Type 0, BuildingBlock: GALJAG_clean_sbu_0, # of connection points: 4
#     Node 7, Type 0, BuildingBlock: GALJAG_clean_sbu_0, # of connection points: 4
#     Node 8, Type 0, BuildingBlock: GALJAG_clean_sbu_0, # of connection points: 4
#     Node 9, Type 0, BuildingBlock: GALJAG_clean_sbu_0, # of connection points: 4
#     Node 10, Type 0, BuildingBlock: GALJAG_clean_sbu_0, # of connection points: 4
#     Node 11, Type 0, BuildingBlock: GALJAG_clean_sbu_0, # of connection points: 4
#     Node 12, Type 0, BuildingBlock: GALJAG_clean_sbu_0, # of connection points: 4
#     Node 13, Type 0, BuildingBlock: GALJAG_clean_sbu_0, # of connection points: 4
#     Node 14, Type 0, BuildingBlock: GALJAG_clean_sbu_0, # of connection points: 4
#     Node 15, Type 0, BuildingBlock: GALJAG_clean_sbu_0, # of connection points: 4
#     Node 16, Type 0, BuildingBlock: GALJAG_clean_sbu_0, # of connection points: 4
#     Node 17, Type 0, BuildingBlock: GALJAG_clean_sbu_0, # of connection points: 4
#     Node 18, Type 0, BuildingBlock: GALJAG_clean_sbu_0, # of connection points: 4
#     Node 19, Type 0, BuildingBlock: GALJAG_clean_sbu_0, # of connection points: 4
#     Node 20, Type 0, BuildingBlock: GALJAG_clean_sbu_0, # of connection points: 4
#     Node 21, Type 0, BuildingBlock: GALJAG_clean_sbu_0, # of connection points: 4
#     Node 22, Type 0, BuildingBlock: GALJAG_clean_sbu_0, # of connection points: 4
#     Node 23, Type 0, BuildingBlock: GALJAG_clean_sbu_0, # of connection points: 4
#     Node 24, Type 1, BuildingBlock: JUFBIX_clean_sbu_0, # of connection points: 6
#     Node 25, Type 1, BuildingBlock: JUFBIX_clean_sbu_0, # of connection points: 6
#     Node 26, Type 1, BuildingBlock: JUFBIX_clean_sbu_0, # of connection points: 6
#     Node 27, Type 1, BuildingBlock: JUFBIX_clean_sbu_0, # of connection points: 6
#     Node 28, Type 1, BuildingBlock: JUFBIX_clean_sbu_0, # of connection points: 6
#     Node 29, Type 1, BuildingBlock: JUFBIX_clean_sbu_0, # of connection points: 6
#     Node 30, Type 1, BuildingBlock: JUFBIX_clean_sbu_0, # of connection points: 6
#     Node 31, Type 1, BuildingBlock: JUFBIX_clean_sbu_0, # of connection points: 6
#     Node 32, Type 1, BuildingBlock: JUFBIX_clean_sbu_0, # of connection points: 6
#     Node 33, Type 1, BuildingBlock: JUFBIX_clean_sbu_0, # of connection points: 6
#     Node 34, Type 1, BuildingBlock: JUFBIX_clean_sbu_0, # of connection points: 6
#     Node 35, Type 1, BuildingBlock: JUFBIX_clean_sbu_0, # of connection points: 6
#     Node 36, Type 1, BuildingBlock: JUFBIX_clean_sbu_0, # of connection points: 6
#     Node 37, Type 1, BuildingBlock: JUFBIX_clean_sbu_0, # of connection points: 6
#     Node 38, Type 1, BuildingBlock: JUFBIX_clean_sbu_0, # of connection points: 6
#     Node 39, Type 1, BuildingBlock: JUFBIX_clean_sbu_0, # of connection points: 6
#     Edge 40, Type (0, 1), None
#     Edge 41, Type (0, 1), None
#     Edge 42, Type (0, 1), None
#     Edge 43, Type (0, 1), None
#     Edge 44, Type (0, 1), None
#     Edge 45, Type (0, 1), None
#     Edge 46, Type (0, 1), None
#     Edge 47, Type (0, 1), None
#     Edge 48, Type (0, 1), None
#     Edge 49, Type (0, 1), None
#     Edge 50, Type (0, 1), None
#     Edge 51, Type (0, 1), None
#     Edge 52, Type (0, 1), None
#     Edge 53, Type (0, 1), None
#     Edge 54, Type (0, 1), None
#     Edge 55, Type (0, 1), None
#     Edge 56, Type (0, 1), None
#     Edge 57, Type (0, 1), None
#     Edge 58, Type (0, 1), None
#     Edge 59, Type (0, 1), None
#     Edge 60, Type (0, 1), None
#     Edge 61, Type (0, 1), None
#     Edge 62, Type (0, 1), None
#     Edge 63, Type (0, 1), None
#     Edge 64, Type (0, 1), None
#     Edge 65, Type (0, 1), None
#     Edge 66, Type (0, 1), None
#     Edge 67, Type (0, 1), None
#     Edge 68, Type (0, 1), None
#     Edge 69, Type (0, 1), None
#     Edge 70, Type (0, 1), None
#     Edge 71, Type (0, 1), None
#     Edge 72, Type (0, 1), None
#     Edge 73, Type (0, 1), None
#     Edge 74, Type (0, 1), None
#     Edge 75, Type (0, 1), None
#     Edge 76, Type (0, 1), None
#     Edge 77, Type (0, 1), None
#     Edge 78, Type (0, 1), None
#     Edge 79, Type (0, 1), None
#     Edge 80, Type (0, 1), None
#     Edge 81, Type (0, 1), None
#     Edge 82, Type (0, 1), None
#     Edge 83, Type (0, 1), None
#     Edge 84, Type (0, 1), None
#     Edge 85, Type (0, 1), None
#     Edge 86, Type (0, 1), None
#     Edge 87, Type (0, 1), None
#     Edge 88, Type (0, 1), None
#     Edge 89, Type (0, 1), None
#     Edge 90, Type (0, 1), None
#     Edge 91, Type (0, 1), None
#     Edge 92, Type (0, 1), None
#     Edge 93, Type (0, 1), None
#     Edge 94, Type (0, 1), None
#     Edge 95, Type (0, 1), None
#     Edge 96, Type (0, 1), None
#     Edge 97, Type (0, 1), None
#     Edge 98, Type (0, 1), None
#     Edge 99, Type (0, 1), None
#     Edge 100, Type (0, 1), None
#     Edge 101, Type (0, 1), None
#     Edge 102, Type (0, 1), None
#     Edge 103, Type (0, 1), None
#     Edge 104, Type (0, 1), None
#     Edge 105, Type (0, 1), None
#     Edge 106, Type (0, 1), None
#     Edge 107, Type (0, 1), None
#     Edge 108, Type (0, 1), None
#     Edge 109, Type (0, 1), None
#     Edge 110, Type (0, 1), None
#     Edge 111, Type (0, 1), None
#     Edge 112, Type (0, 1), None
#     Edge 113, Type (0, 1), None
#     Edge 114, Type (0, 1), None
#     Edge 115, Type (0, 1), None
#     Edge 116, Type (0, 1), None
#     Edge 117, Type (0, 1), None
#     Edge 118, Type (0, 1), None
#     Edge 119, Type (0, 1), None
#     Edge 120, Type (0, 1), None
#     Edge 121, Type (0, 1), None
#     Edge 122, Type (0, 1), None
#     Edge 123, Type (0, 1), None
#     Edge 124, Type (0, 1), None
#     Edge 125, Type (0, 1), None
#     Edge 126, Type (0, 1), None
#     Edge 127, Type (0, 1), None
#     Edge 128, Type (0, 1), None
#     Edge 129, Type (0, 1), None
#     Edge 130, Type (0, 1), None
#     Edge 131, Type (0, 1), None
#     Edge 132, Type (0, 1), None
#     Edge 133, Type (0, 1), None
#     Edge 134, Type (0, 1), None
#     Edge 135, Type (0, 1), None
# Relax obj value: 0.359
# Max RMSD: 0.268
# Mean RMSD: 0.163
data_MOF--net-iac--node1-GALJAG_clean_sbu_0--node2-JUFBIX_clean_sbu_0--edge1-none
_symmetry_space_group_name_H-M    P1
_symmetry_Int_Tables_number       1
_symmetry_cell_setting            triclinic
loop_
_symmetry_equiv_pos_as_xyz
'x, y, z'
_cell_length_a     25.100692
_cell_length_b     25.951621
_cell_length_c     25.829151
_cell_angle_alpha  88.385025
_cell_angle_beta   88.072644
_cell_angle_gamma 88.410723
loop_
_atom_site_label
_atom_site_type_symbol
_atom_site_fract_x
_atom_site_fract_y
_atom_site_fract_z
_atom_type_partial_charge
In0 In 0.06916 0.32424 0.19615 0.0
O1 O 0.06412 0.26785 0.1213 0.0
O2 O 0.07076 0.22991 0.19234 0.0
C3 C 0.06867 0.42444 0.13876 0.0
C4 C 0.96944 0.32853 0.25093 0.0
C5 C 0.16351 0.32518 0.25978 0.0
O6 O 0.10811 0.40324 0.16082 0.0
O7 O 0.02955 0.39456 0.14254 0.0
O8 O 0.11724 0.31393 0.27739 0.0
O9 O 0.16257 0.3335 0.21117 0.0
C10 C 0.06348 0.22393 0.14463 0.0
O11 O 1.00846 0.35519 0.26292 0.0
O12 O 0.98082 0.30048 0.21307 0.0
In13 In 0.1021 0.79621 0.45722 0.0
O14 O 0.14331 0.77735 0.38127 0.0
O15 O 0.18619 0.81434 0.44016 0.0
C16 C 0.0395 0.84138 0.39189 0.0
C17 C 0.10965 0.70566 0.5027 0.0
C18 C 0.05678 0.85337 0.52956 0.0
O19 O 0.07683 0.86644 0.40997 0.0
O20 O 0.03615 0.79421 0.40593 0.0
O21 O 0.03115 0.81788 0.5101 0.0
O22 O 0.10571 0.85609 0.51555 0.0
C23 C 0.18573 0.79691 0.39482 0.0
O24 O 0.1325 0.74364 0.52055 0.0
O25 O 0.08404 0.71356 0.46184 0.0
In26 In 0.56916 0.82424 0.69614 0.0
O27 O 0.60812 0.90323 0.66079 0.0
O28 O 0.52954 0.89457 0.64257 0.0
C29 C 0.56348 0.72393 0.64463 0.0
C30 C 0.66351 0.82519 0.75978 0.0
C31 C 0.46944 0.82853 0.75093 0.0
O32 O 0.56412 0.76785 0.62129 0.0
O33 O 0.57076 0.72991 0.69234 0.0
O34 O 0.50846 0.85519 0.76292 0.0
O35 O 0.48082 0.80048 0.71306 0.0
C36 C 0.56866 0.92444 0.63876 0.0
O37 O 0.61724 0.81393 0.77739 0.0
O38 O 0.66256 0.83351 0.71117 0.0
In39 In 0.6021 0.29621 0.95723 0.0
O40 O 0.64332 0.27736 0.88127 0.0
O41 O 0.68619 0.31434 0.94017 0.0
C42 C 0.53951 0.34138 0.89189 0.0
C43 C 0.60965 0.20566 1.0027 0.0
C44 C 0.55679 0.35337 0.02956 0.0
O45 O 0.57683 0.36644 0.90997 0.0
O46 O 0.53615 0.29421 0.90593 0.0
O47 O 0.53115 0.31788 1.0101 0.0
O48 O 0.60572 0.35609 0.01555 0.0
C49 C 0.68574 0.29691 0.89482 0.0
O50 O 0.63251 0.24364 0.02055 0.0
O51 O 0.58404 0.21356 0.96184 0.0
In52 In 0.19425 0.03339 0.36405 0.0
O53 O 0.25114 0.99623 0.3102 0.0
O54 O 0.24678 0.96937 0.39017 0.0
C55 C 0.25569 0.10888 0.3795 0.0
C56 C 0.13176 0.01836 0.28918 0.0
C57 C 0.12145 0.05151 0.4332 0.0
O58 O 0.25143 0.0731 0.41346 0.0
O59 O 0.2305 0.10468 0.33831 0.0
O60 O 0.14217 1.00673 0.42907 0.0
O61 O 0.13704 0.08617 0.40171 0.0
C62 C 0.26711 0.96518 0.34494 0.0
O63 O 0.15767 0.05911 0.2929 0.0
O64 O 0.13621 0.98441 0.32494 0.0
In65 In 0.28228 0.94254 0.60287 0.0
O66 O 0.24141 0.01798 0.62247 0.0
O67 O 0.19808 0.95905 0.58612 0.0
C68 C 0.3456 1.00709 0.55699 0.0
C69 C 0.27511 0.89642 0.69332 0.0
C70 C 0.32723 0.87069 0.54522 0.0
O71 O 0.30786 0.98953 0.53211 0.0
O72 O 0.34869 0.99327 0.60442 0.0
O73 O 0.35267 0.88942 0.58131 0.0
O74 O 0.27861 0.88526 0.54209 0.0
C75 C 0.19871 1.00416 0.60366 0.0
O76 O 0.252 0.87894 0.65522 0.0
O77 O 0.30052 0.93742 0.68566 0.0
In78 In 0.44151 0.11407 0.78435 0.0
O79 O 0.37113 0.16281 0.76298 0.0
O80 O 0.43706 0.19701 0.79943 0.0
C81 C 0.37267 0.05118 0.82636 0.0
C82 C 0.49223 0.11787 0.69581 0.0
C83 C 0.51094 0.07279 0.84667 0.0
O84 O 0.38655 0.08967 0.85103 0.0
O85 O 0.38963 0.04831 0.77966 0.0
O86 O 0.49696 0.04827 0.80805 0.0
O87 O 0.49341 0.11894 0.85019 0.0
C88 C 0.39166 0.20237 0.78004 0.0
O89 O 0.51222 0.1354 0.7355 0.0
O90 O 0.44667 0.09852 0.70106 0.0
In91 In 0.317 0.20125 0.07401 0.0
O92 O 0.37774 0.13525 0.04233 0.0
O93 O 0.40464 0.18352 0.0989 0.0
C94 C 0.22251 0.13762 0.07263 0.0
C95 C 0.32284 0.25312 0.17423 0.0
C96 C 0.31764 0.2591 0.97395 0.0
O97 O 0.26844 0.12032 0.08472 0.0
O98 O 0.22386 0.18585 0.06364 0.0
O99 O 0.27719 0.24032 0.99718 0.0
O100 O 0.35797 0.25168 1.00171 0.0
C101 C 0.41627 0.1464 0.07005 0.0
O102 O 0.32377 0.27593 0.12991 0.0
O103 O 0.31391 0.20585 0.16865 0.0
In104 In 0.78228 0.44255 0.10288 0.0
O105 O 0.752 0.37895 0.15523 0.0
O106 O 0.80052 0.43743 0.18567 0.0
C107 C 0.82724 0.3707 0.04523 0.0
C108 C 0.69871 0.50416 0.10366 0.0
C109 C 0.84559 0.5071 0.057 0.0
O110 O 0.85268 0.38943 0.08132 0.0
O111 O 0.77861 0.38526 0.04209 0.0
O112 O 0.80786 0.48954 0.03212 0.0
O113 O 0.84869 0.49328 0.10443 0.0
C114 C 0.77511 0.39643 0.19332 0.0
O115 O 0.7414 0.51798 0.12247 0.0
O116 O 0.69808 0.45905 0.08612 0.0
In117 In 0.94151 0.61407 0.28435 0.0
O118 O 1.01222 0.6354 0.2355 0.0
O119 O 0.94667 0.59852 0.20106 0.0
C120 C 1.01094 0.57279 0.34667 0.0
C121 C 0.89165 0.70237 0.28004 0.0
C122 C 0.87267 0.55118 0.32636 0.0
O123 O 0.99696 0.54827 0.30805 0.0
O124 O 0.99341 0.61894 0.35019 0.0
O125 O 0.88655 0.58967 0.35103 0.0
O126 O 0.88963 0.54832 0.27967 0.0
C127 C 0.99222 0.61787 0.19581 0.0
O128 O 0.87113 0.66281 0.26298 0.0
O129 O 0.93706 0.69701 0.29943 0.0
In130 In 0.817 0.70125 0.574 0.0
O131 O 0.87774 0.63525 0.54233 0.0
O132 O 0.90464 0.68352 0.5989 0.0
C133 C 0.72251 0.63763 0.57263 0.0
C134 C 0.82284 0.75312 0.67423 0.0
C135 C 0.81764 0.7591 0.47395 0.0
O136 O 0.76844 0.62033 0.58472 0.0
O137 O 0.72386 0.68585 0.56363 0.0
O138 O 0.77719 0.74033 0.49718 0.0
O139 O 0.85797 0.75167 0.5017 0.0
C140 C 0.91627 0.64641 0.57005 0.0
O141 O 0.82377 0.77594 0.62991 0.0
O142 O 0.81391 0.70586 0.66865 0.0
In143 In 0.69425 0.53339 0.86405 0.0
O144 O 0.75114 0.49623 0.8102 0.0
O145 O 0.74678 0.46937 0.89018 0.0
C146 C 0.75569 0.60889 0.8795 0.0
C147 C 0.63177 0.51836 0.78918 0.0
C148 C 0.62145 0.55151 0.9332 0.0
O149 O 0.75143 0.5731 0.91345 0.0
O150 O 0.7305 0.60468 0.83831 0.0
O151 O 0.64217 0.50673 0.92907 0.0
O152 O 0.63704 0.58618 0.90171 0.0
C153 C 0.76711 0.46518 0.84495 0.0
O154 O 0.65768 0.55911 0.7929 0.0
O155 O 0.63622 0.48441 0.82493 0.0
In156 In 0.06649 0.83094 0.94493 0.0
O157 O 0.1272 0.79996 0.87817 0.0
O158 O 0.15482 0.8547 0.928 0.0
C159 C 0.97213 0.83 0.8813 0.0
C160 C 0.06698 0.73073 1.00232 0.0
C161 C 0.07216 0.93124 0.99645 0.0
O162 O 0.0184 0.84124 0.86369 0.0
O163 O 0.97308 0.82169 0.92991 0.0
O164 O 0.07151 0.88733 0.01978 0.0
O165 O 0.06489 0.92526 0.94873 0.0
C166 C 0.16621 0.82663 0.89015 0.0
O167 O 0.02756 0.7519 0.98019 0.0
O168 O 0.10607 0.76065 0.9986 0.0
In169 In 0.03353 0.35898 0.68384 0.0
O170 O 1.00314 0.41155 0.62051 0.0
O171 O 0.05159 0.44164 0.67923 0.0
C172 C 0.07886 0.30181 0.61153 0.0
C173 C 0.0961 0.31381 0.74919 0.0
C174 C 0.94987 0.35829 0.74622 0.0
O175 O 0.10449 0.33731 0.63099 0.0
O176 O 0.02993 0.2991 0.62553 0.0
O177 O 0.99229 0.37784 0.75979 0.0
O178 O 0.94943 0.34086 0.70088 0.0
C179 C 0.02599 0.44953 0.63837 0.0
O180 O 0.05878 0.28875 0.73111 0.0
O181 O 0.09946 0.36098 0.73516 0.0
In182 In 0.56649 0.33094 0.44493 0.0
O183 O 0.6272 0.29997 0.37817 0.0
O184 O 0.65482 0.3547 0.42801 0.0
C185 C 0.47213 0.32999 0.3813 0.0
C186 C 0.56698 0.23073 0.50232 0.0
C187 C 0.57216 0.43125 0.49645 0.0
O188 O 0.5184 0.34124 0.36369 0.0
O189 O 0.47308 0.32169 0.42991 0.0
O190 O 0.57151 0.38733 0.51978 0.0
O191 O 0.56489 0.42527 0.44873 0.0
C192 C 0.66622 0.32664 0.39015 0.0
O193 O 0.52755 0.25191 0.48021 0.0
O194 O 0.60607 0.26064 0.49859 0.0
In195 In 0.53352 0.85898 0.18384 0.0
O196 O 0.60449 0.83731 0.13099 0.0
O197 O 0.52993 0.7991 0.12553 0.0
C198 C 0.52598 0.94953 0.13837 0.0
C199 C 0.44987 0.85829 0.24622 0.0
C200 C 0.5961 0.81381 0.24919 0.0
O201 O 0.50314 0.91155 0.12051 0.0
O202 O 0.55158 0.94164 0.17923 0.0
O203 O 0.55877 0.78875 0.23111 0.0
O204 O 0.59945 0.86098 0.23516 0.0
C205 C 0.57886 0.80181 0.11153 0.0
O206 O 0.49228 0.87784 0.25978 0.0
O207 O 0.44942 0.84086 0.20087 0.0
In208 In 0.94135 0.1218 0.77704 0.0
O209 O 0.99347 0.14844 0.71204 0.0
O210 O 0.99859 0.06901 0.73942 0.0
C211 C 1.00381 0.13685 0.85193 0.0
C212 C 0.86848 0.19002 0.7961 0.0
C213 C 0.87993 0.0463 0.76158 0.0
O214 O 0.97789 0.0961 0.84821 0.0
O215 O 0.99937 0.17079 0.81616 0.0
O216 O 0.8842 0.08208 0.72761 0.0
O217 O 0.9051 0.05052 0.80277 0.0
C218 C 0.01419 0.10367 0.70793 0.0
O219 O 0.88444 0.15897 0.83086 0.0
O220 O 0.88883 0.18582 0.75088 0.0
In221 In 0.85338 0.21261 0.53821 0.0
O222 O 0.89427 0.13717 0.51863 0.0
O223 O 0.93757 0.19611 0.55501 0.0
C224 C 0.79006 0.14805 0.58409 0.0
C225 C 0.80838 0.28446 0.59582 0.0
C226 C 0.86056 0.25872 0.44776 0.0
O227 O 0.82779 0.16562 0.60897 0.0
O228 O 0.78698 0.16186 0.53665 0.0
O229 O 0.88365 0.27621 0.48586 0.0
O230 O 0.83516 0.21771 0.45541 0.0
C231 C 0.93695 0.151 0.53747 0.0
O232 O 0.78295 0.2657 0.55975 0.0
O233 O 0.85701 0.26992 0.59897 0.0
In234 In 0.69411 0.04111 0.35672 0.0
O235 O 0.76448 0.99237 0.37809 0.0
O236 O 0.69855 0.95817 0.34164 0.0
C237 C 0.76297 0.10398 0.31471 0.0
C238 C 0.62469 0.0824 0.2944 0.0
C239 C 0.64341 0.03731 0.44527 0.0
O240 O 0.74907 0.0655 0.29004 0.0
O241 O 0.746 0.10685 0.36141 0.0
O242 O 0.6234 0.01978 0.40558 0.0
O243 O 0.68896 0.05667 0.44001 0.0
C244 C 0.74396 0.95281 0.36103 0.0
O245 O 0.63867 0.10691 0.33303 0.0
O246 O 0.64221 0.03624 0.29089 0.0
In247 In 0.81863 0.95393 0.06707 0.0
O248 O 0.75789 0.01993 0.09874 0.0
O249 O 0.731 0.97167 0.04217 0.0
C250 C 0.91312 1.01755 0.06845 0.0
C251 C 0.81797 0.89607 0.16713 0.0
C252 C 0.8128 0.90206 0.96685 0.0
O253 O 0.86719 0.03485 0.05636 0.0
O254 O 0.91177 0.96932 0.07744 0.0
O255 O 0.81186 0.87925 1.01116 0.0
O256 O 0.82173 0.94933 0.97242 0.0
C257 C 0.71936 1.00878 0.07102 0.0
O258 O 0.85842 0.91487 0.14391 0.0
O259 O 0.77765 0.90349 0.13936 0.0
In260 In 0.35338 0.7126 0.0382 0.0
O261 O 0.28295 0.76569 0.05974 0.0
O262 O 0.35701 0.76992 0.09896 0.0
C263 C 0.36056 0.75872 0.94776 0.0
C264 C 0.43695 0.651 0.03746 0.0
C265 C 0.29006 0.64805 0.08409 0.0
O266 O 0.38365 0.77621 0.98586 0.0
O267 O 0.33516 0.71771 0.95541 0.0
O268 O 0.32779 0.66562 0.10897 0.0
O269 O 0.28698 0.66186 0.03665 0.0
C270 C 0.30838 0.78446 0.09581 0.0
O271 O 0.39427 0.63717 0.01863 0.0
O272 O 0.43757 0.69611 0.055 0.0
In273 In 0.19411 0.54111 0.85672 0.0
O274 O 0.26448 0.49237 0.87809 0.0
O275 O 0.19855 0.45817 0.84164 0.0
C276 C 0.26297 0.60398 0.81471 0.0
C277 C 0.12469 0.5824 0.7944 0.0
C278 C 0.14341 0.53731 0.94527 0.0
O279 O 0.24907 0.56549 0.79004 0.0
O280 O 0.246 0.60685 0.86141 0.0
O281 O 0.12341 0.51978 0.90559 0.0
O282 O 0.18896 0.55667 0.94001 0.0
C283 C 0.24396 0.45281 0.86104 0.0
O284 O 0.13867 0.60691 0.83303 0.0
O285 O 0.14221 0.53624 0.79089 0.0
In286 In 0.31863 0.45393 0.56707 0.0
O287 O 0.35843 0.41487 0.64391 0.0
O288 O 0.27766 0.40349 0.63936 0.0
C289 C 0.3128 0.40206 0.46685 0.0
C290 C 0.21936 0.50878 0.57102 0.0
C291 C 0.41312 0.51755 0.56845 0.0
O292 O 0.31186 0.37924 0.51117 0.0
O293 O 0.32173 0.44932 0.47243 0.0
O294 O 0.36719 0.53485 0.55636 0.0
O295 O 0.41177 0.46932 0.57744 0.0
C296 C 0.31797 0.39607 0.66713 0.0
O297 O 0.25789 0.51993 0.59874 0.0
O298 O 0.231 0.47167 0.54217 0.0
In299 In 0.44135 0.6218 0.27704 0.0
O300 O 0.49346 0.64844 0.21204 0.0
O301 O 0.49859 0.56901 0.23942 0.0
C302 C 0.5038 0.63685 0.35193 0.0
C303 C 0.36847 0.69002 0.29609 0.0
C304 C 0.37993 0.5463 0.26157 0.0
O305 O 0.47788 0.5961 0.34821 0.0
O306 O 0.49936 0.67079 0.31616 0.0
O307 O 0.3842 0.58208 0.22761 0.0
O308 O 0.4051 0.55052 0.30277 0.0
C309 C 0.51419 0.60367 0.20793 0.0
O310 O 0.38442 0.65897 0.33085 0.0
O311 O 0.38883 0.68582 0.25087 0.0
Co312 Co 0.06126 0.09844 0.0356 0.0
C313 C 0.05728 0.17033 0.11837 0.0
Co314 Co 0.07438 0.05674 0.10548 0.0
C315 C 0.03038 0.1123 0.93548 0.0
C316 C 0.07307 0.178 0.95754 0.0
N317 N 0.05535 0.13164 0.97469 0.0
N318 N 0.03084 0.14466 0.89448 0.0
C319 C 0.05751 0.18639 0.90734 0.0
H320 H 1.01042 0.07578 0.93761 0.0
H321 H 0.09504 0.20409 0.98022 0.0
C322 C 0.07835 0.98484 0.02271 0.0
N323 N 0.08028 0.02353 0.16639 0.0
C324 C 0.10522 0.04289 0.20562 0.0
C325 C 0.06257 0.97717 0.18354 0.0
N326 N 0.10475 1.01053 0.24663 0.0
C327 C 0.0781 0.9688 0.23375 0.0
C328 C 0.96486 0.04906 0.07252 0.0
O329 O 0.07303 0.02855 0.99834 0.0
O330 O 0.08629 0.98812 0.07103 0.0
O331 O 0.99729 0.03823 0.10848 0.0
O332 O 0.98185 0.08101 0.03731 0.0
O333 O 0.0626 0.12663 0.14274 0.0
H334 H 0.04061 0.95108 0.16085 0.0
H335 H 0.12517 0.07942 0.20349 0.0
O336 O 0.04934 0.16705 0.07004 0.0
O337 O 0.13834 0.11694 0.0326 0.0
O338 O 0.15378 0.07417 0.10377 0.0
C339 C 0.17077 0.10611 0.06857 0.0
H340 H 0.06384 0.22048 0.883 0.0
H341 H 0.07177 0.93471 0.25809 0.0
Co342 Co 0.34122 0.82609 0.35609 0.0
C343 C 0.34312 0.73675 0.31037 0.0
Co344 Co 0.29437 0.82911 0.28493 0.0
C345 C 0.32943 0.84018 0.46071 0.0
C346 C 0.4113 0.81914 0.44662 0.0
N347 N 0.36417 0.82522 0.42312 0.0
N348 N 0.35196 0.84499 0.50616 0.0
C349 C 0.40389 0.83189 0.49832 0.0
H350 H 0.2891 0.85374 0.45368 0.0
H351 H 0.44885 0.80955 0.42696 0.0
C352 C 0.29247 0.91845 0.33064 0.0
N353 N 0.27142 0.82997 0.21789 0.0
C354 C 0.30616 0.81503 0.1803 0.0
C355 C 0.22428 0.836 0.1944 0.0
N356 N 0.28363 0.81017 0.13486 0.0
C357 C 0.23169 0.82324 0.14271 0.0
C358 C 0.2314 0.80182 0.36058 0.0
O359 O 0.32111 0.89458 0.36308 0.0
O360 O 0.27538 0.89646 0.29168 0.0
O361 O 0.22772 0.80966 0.31218 0.0
O362 O 0.2752 0.80617 0.38186 0.0
O363 O 0.31448 0.76062 0.27793 0.0
H364 H 0.18672 0.84555 0.21407 0.0
H365 H 0.3465 0.8015 0.18733 0.0
O366 O 0.3602 0.75873 0.34934 0.0
O367 O 0.40786 0.84553 0.32884 0.0
O368 O 0.36039 0.84904 0.25916 0.0
C369 C 0.40419 0.85337 0.28044 0.0
H370 H 0.43458 0.83476 0.5265 0.0
H371 H 0.20101 0.82031 0.11453 0.0
Co372 Co 0.53179 0.07164 0.55016 0.0
C373 C 0.56716 0.17509 0.52749 0.0
Co374 Co 0.60385 0.08354 0.59092 0.0
C375 C 0.42952 0.04304 0.55761 0.0
C376 C 0.44431 0.0662 0.47856 0.0
N377 N 0.46685 0.06199 0.52532 0.0
N378 N 0.38485 0.03393 0.53377 0.0
C379 C 0.39291 0.04823 0.48367 0.0
H380 H 0.43632 0.03244 0.59777 0.0
H381 H 0.4645 0.07925 0.44312 0.0
C382 C 0.56848 0.98009 0.61359 0.0
N383 N 0.66879 0.09319 0.61576 0.0
C384 C 0.70613 0.11213 0.58347 0.0
C385 C 0.69133 0.08898 0.66253 0.0
N386 N 0.7508 0.12123 0.60731 0.0
C387 C 0.74274 0.10693 0.65741 0.0
C388 C 0.52309 0.11125 0.6493 0.0
O389 O 0.53222 0.9976 0.58317 0.0
O390 O 0.60491 1.01177 0.62297 0.0
O391 O 0.57313 0.10898 0.65047 0.0
O392 O 0.49962 0.0977 0.60992 0.0
O393 O 0.60341 0.15758 0.55792 0.0
H394 H 0.67114 0.07592 0.69796 0.0
H395 H 0.69932 0.12274 0.54331 0.0
O396 O 0.53074 0.1434 0.5181 0.0
O397 O 0.56251 0.04619 0.49062 0.0
O398 O 0.63601 0.05748 0.53116 0.0
C399 C 0.61255 0.04393 0.49178 0.0
H400 H 0.36505 0.04375 0.45309 0.0
H401 H 0.77059 0.11141 0.68799 0.0
Co402 Co 0.3543 0.34747 0.82593 0.0
C403 C 0.31814 0.37075 0.72284 0.0
Co404 Co 0.28132 0.30771 0.81515 0.0
C405 C 0.45673 0.34001 0.85388 0.0
C406 C 0.44185 0.41887 0.83167 0.0
N407 N 0.41951 0.37206 0.83503 0.0
N408 N 0.50097 0.36413 0.86409 0.0
C409 C 0.49291 0.41407 0.85021 0.0
H410 H 0.44991 0.29989 0.86408 0.0
H411 H 0.42156 0.45417 0.81926 0.0
C412 C 0.31747 0.28442 0.91824 0.0
N413 N 0.2161 0.28312 0.80605 0.0
C414 C 0.17888 0.31517 0.7872 0.0
C415 C 0.19376 0.23631 0.80941 0.0
N416 N 0.13464 0.29105 0.777 0.0
C417 C 0.14269 0.24112 0.79087 0.0
C418 C 0.36155 0.24904 0.78627 0.0
O419 O 0.35408 0.31435 0.90012 0.0
O420 O 0.28038 0.27568 0.88709 0.0
O421 O 0.31147 0.24834 0.78915 0.0
O422 O 0.38575 0.28807 0.79937 0.0
O423 O 0.28153 0.34083 0.74095 0.0
H424 H 0.21404 0.201 0.82182 0.0
H425 H 0.1857 0.35529 0.777 0.0
O426 O 0.35523 0.37949 0.75399 0.0
O427 O 0.32414 0.40684 0.85193 0.0
O428 O 0.24987 0.3671 0.84171 0.0
C429 C 0.27406 0.40614 0.85481 0.0
H430 H 0.52033 0.44478 0.85576 0.0
H431 H 0.11526 0.21041 0.78533 0.0
Co432 Co 0.04432 0.04207 0.57222 0.0
C433 C 0.04006 0.08946 0.66112 0.0
Co434 Co 0.09135 0.11309 0.56893 0.0
C435 C 0.05532 0.93739 0.5605 0.0
C436 C 0.97296 0.95263 0.57877 0.0
N437 N 0.02069 0.97539 0.57397 0.0
N438 N 0.03212 0.89244 0.55512 0.0
C439 C 0.9799 0.901 0.56663 0.0
H440 H 0.09623 0.9438 0.54802 0.0
H441 H 0.9354 0.97278 0.58673 0.0
C442 C 0.09561 0.06571 0.48003 0.0
N443 N 0.11498 0.17977 0.56718 0.0
C444 C 0.08034 0.21777 0.58064 0.0
C445 C 0.16271 0.20254 0.56237 0.0
N446 N 0.10353 0.26273 0.586 0.0
C447 C 0.15576 0.25417 0.57449 0.0
C448 C 0.15319 0.03811 0.59871 0.0
O449 O 0.06624 0.03367 0.50391 0.0
O450 O 0.11206 0.10498 0.50181 0.0
O451 O 0.15722 0.08618 0.59019 0.0
O452 O 0.10947 1.01673 0.59392 0.0
O453 O 0.06943 0.12149 0.63724 0.0
H454 H 0.20027 0.18239 0.55442 0.0
H455 H 0.03944 0.21136 0.59313 0.0
O456 O 0.0236 0.05018 0.63934 0.0
O457 O 0.97845 0.06898 0.55095 0.0
O458 O 0.0262 0.13843 0.54723 0.0
C459 C 0.98248 0.11705 0.54243 0.0
H460 H 0.94879 0.87342 0.56268 0.0
H461 H 0.18686 0.28176 0.57842 0.0
Co462 Co 0.32512 0.86289 0.84044 0.0
C463 C 0.22089 0.82636 0.86343 0.0
Co464 Co 0.31053 0.79226 0.80064 0.0
C465 C 0.34779 0.96472 0.82853 0.0
C466 C 0.32238 0.95184 0.90751 0.0
N467 N 0.33171 0.92797 0.86218 0.0
N468 N 0.34952 1.01056 0.8502 0.0
C469 C 0.33405 1.00342 0.90027 0.0
H470 H 0.36081 0.95739 0.78892 0.0
H471 H 0.30893 0.93294 0.94327 0.0
C472 C 0.41476 0.82879 0.77765 0.0
N473 N 0.30395 0.72718 0.7789 0.0
C474 C 0.28787 0.69044 0.81255 0.0
C475 C 0.31327 0.70332 0.73356 0.0
N476 N 0.28613 0.6446 0.79087 0.0
C477 C 0.30158 0.65174 0.7408 0.0
C478 C 0.28131 0.86711 0.74045 0.0
O479 O 0.39867 0.86404 0.80844 0.0
O480 O 0.38226 0.7935 0.7686 0.0
O481 O 0.28279 0.81856 0.74013 0.0
O482 O 0.2969 0.89035 0.77908 0.0
O483 O 0.23699 0.79111 0.83265 0.0
H484 H 0.32671 0.72222 0.6978 0.0
H485 H 0.27486 0.69776 0.85216 0.0
O486 O 0.25339 0.86166 0.87247 0.0
O487 O 0.35286 0.83659 0.90095 0.0
O488 O 0.33877 0.7648 0.862 0.0
C489 C 0.35435 0.78804 0.90063 0.0
H490 H 0.33308 0.03259 0.92948 0.0
H491 H 0.30254 0.62257 0.71159 0.0
Co492 Co 0.56081 0.05822 0.03479 0.0
C493 C 0.66482 0.03543 0.07125 0.0
Co494 Co 0.57483 0.09697 0.10628 0.0
C495 C 0.53774 0.07068 0.9328 0.0
C496 C 0.56338 0.99217 0.94492 0.0
N497 N 0.55437 0.03712 0.96925 0.0
N498 N 0.53514 0.04924 0.88677 0.0
C499 C 0.55087 0.99951 0.8934 0.0
H500 H 0.52474 0.10996 0.94059 0.0
H501 H 0.57689 0.95654 0.96355 0.0
C502 C 0.47081 0.11976 0.06982 0.0
N503 N 0.58126 0.11807 0.17182 0.0
C504 C 0.59789 0.08451 0.20827 0.0
C505 C 0.57226 0.16302 0.19614 0.0
N506 N 0.60049 0.10595 0.2543 0.0
C507 C 0.58476 0.15568 0.24767 0.0
C508 C 0.60403 0.15816 0.03148 0.0
O509 O 0.48718 0.0896 0.03409 0.0
O510 O 0.50301 0.1284 0.10553 0.0
O511 O 0.60246 0.15774 0.08028 0.0
O512 O 0.5889 0.1198 1.00761 0.0
O513 O 0.64846 0.06559 0.10698 0.0
H514 H 0.55875 0.19866 0.17752 0.0
H515 H 0.61089 0.04523 0.20048 0.0
O516 O 0.63263 0.02679 0.03554 0.0
O517 O 0.53318 0.99746 0.06078 0.0
O518 O 0.54674 0.03539 0.13345 0.0
C519 C 0.5316 0.99703 0.10959 0.0
H520 H 0.55122 0.97052 0.86403 0.0
H521 H 0.58441 0.18467 0.27704 0.0
Co522 Co 0.31061 0.29306 0.3418 0.0
C523 C 0.42052 0.32594 0.34963 0.0
Co524 Co 0.32504 0.36212 0.29928 0.0
C525 C 0.28025 0.19304 0.35569 0.0
C526 C 0.32182 0.21569 0.42198 0.0
N527 N 0.30424 0.23258 0.37542 0.0
N528 N 0.28142 0.152 0.38787 0.0
C529 C 0.3073 0.16526 0.43002 0.0
H530 H 0.26071 0.19483 0.31889 0.0
H531 H 0.34333 0.23857 0.44827 0.0
C532 C 0.21513 0.32924 0.29145 0.0
N533 N 0.3314 0.4226 0.26565 0.0
C534 C 0.35538 0.46213 0.28538 0.0
C535 C 0.31383 0.43948 0.21909 0.0
N536 N 0.35421 0.50317 0.2532 0.0
C537 C 0.32835 0.4899 0.21105 0.0
C538 C 0.32899 0.27957 0.2278 0.0
O539 O 0.2314 0.2945 0.32401 0.0
O540 O 0.24805 0.36481 0.28036 0.0
O541 O 0.33752 0.32761 0.23069 0.0
O542 O 0.32287 0.2557 0.27185 0.0
O543 O 0.40424 0.36068 0.31706 0.0
H544 H 0.29233 0.41659 0.19279 0.0
H545 H 0.37492 0.46036 0.32219 0.0
O546 O 0.38759 0.29036 0.36072 0.0
O547 O 0.29813 0.32756 0.41039 0.0
O548 O 0.31277 0.39948 0.36922 0.0
C549 C 0.30666 0.3756 0.41328 0.0
H550 H 0.31399 0.14092 0.46405 0.0
H551 H 0.32166 0.51424 0.17701 0.0
Co552 Co 0.54431 0.54207 0.07222 0.0
C553 C 0.54006 0.58946 0.16112 0.0
Co554 Co 0.59135 0.61309 0.06893 0.0
C555 C 0.55532 0.4374 0.0605 0.0
C556 C 0.47296 0.45263 0.07877 0.0
N557 N 0.52069 0.47539 0.07397 0.0
N558 N 0.53212 0.39244 0.05512 0.0
C559 C 0.4799 0.401 0.06663 0.0
H560 H 0.59623 0.4438 0.04802 0.0
H561 H 0.43539 0.47278 0.08672 0.0
C562 C 0.59561 0.56571 0.98003 0.0
N563 N 0.61498 0.67978 0.06717 0.0
C564 C 0.58034 0.71777 0.08063 0.0
C565 C 0.66271 0.70254 0.06237 0.0
N566 N 0.60353 0.76273 0.086 0.0
C567 C 0.65576 0.75417 0.07449 0.0
C568 C 0.65319 0.53811 0.09872 0.0
O569 O 0.56624 0.53367 1.00391 0.0
O570 O 0.61206 0.60498 1.00181 0.0
O571 O 0.65721 0.58618 0.09019 0.0
O572 O 0.60947 0.51673 0.09392 0.0
O573 O 0.56942 0.6215 0.13724 0.0
H574 H 0.70027 0.68239 0.05442 0.0
H575 H 0.53943 0.71136 0.09312 0.0
O576 O 0.5236 0.55018 0.13934 0.0
O577 O 0.47845 0.56898 0.05095 0.0
O578 O 0.5262 0.63843 0.04722 0.0
C579 C 0.48247 0.61705 0.04243 0.0
H580 H 0.44879 0.37342 0.06268 0.0
H581 H 0.68686 0.78176 0.07843 0.0
Co582 Co 0.82512 0.36289 0.34044 0.0
C583 C 0.72089 0.32637 0.36343 0.0
Co584 Co 0.81054 0.29227 0.30065 0.0
C585 C 0.84779 0.46472 0.32853 0.0
C586 C 0.82238 0.45184 0.40752 0.0
N587 N 0.83171 0.42797 0.36219 0.0
N588 N 0.84952 0.51056 0.35021 0.0
C589 C 0.83406 0.50342 0.40028 0.0
H590 H 0.86081 0.45739 0.28892 0.0
H591 H 0.80894 0.43294 0.44328 0.0
C592 C 0.91476 0.32879 0.27766 0.0
N593 N 0.80395 0.22719 0.2789 0.0
C594 C 0.78787 0.19044 0.31255 0.0
C595 C 0.81327 0.20332 0.23357 0.0
N596 N 0.78613 0.1446 0.29087 0.0
C597 C 0.80159 0.15174 0.2408 0.0
C598 C 0.78131 0.36711 0.24045 0.0
O599 O 0.89867 0.36404 0.30844 0.0
O600 O 0.88226 0.2935 0.26861 0.0
O601 O 0.7828 0.31857 0.24014 0.0
O602 O 0.7969 0.39036 0.27908 0.0
O603 O 0.73699 0.29112 0.33265 0.0
H604 H 0.82671 0.22222 0.19781 0.0
H605 H 0.77486 0.19776 0.35217 0.0
O606 O 0.75339 0.36166 0.37248 0.0
O607 O 0.85286 0.33659 0.40096 0.0
O608 O 0.83877 0.2648 0.362 0.0
C609 C 0.85435 0.28804 0.40064 0.0
H610 H 0.83309 0.53259 0.42949 0.0
H611 H 0.80254 0.12257 0.21159 0.0
Co612 Co 0.06081 0.55822 0.53479 0.0
C613 C 0.16482 0.53543 0.57125 0.0
Co614 Co 0.07483 0.59697 0.60628 0.0
C615 C 0.03774 0.57068 0.4328 0.0
C616 C 0.06338 0.49217 0.44492 0.0
N617 N 0.05437 0.53712 0.46925 0.0
N618 N 0.03514 0.54924 0.38677 0.0
C619 C 0.05087 0.49951 0.3934 0.0
H620 H 0.02474 0.60996 0.44059 0.0
H621 H 0.07689 0.45653 0.46355 0.0
C622 C 0.97081 0.61976 0.56982 0.0
N623 N 0.08126 0.61807 0.67182 0.0
C624 C 0.09789 0.58451 0.70827 0.0
C625 C 0.07226 0.66302 0.69615 0.0
N626 N 0.10049 0.60595 0.7543 0.0
C627 C 0.08476 0.65568 0.74767 0.0
C628 C 0.10403 0.65816 0.53148 0.0
O629 O 0.98718 0.5896 0.53409 0.0
O630 O 1.00301 0.62841 0.60553 0.0
O631 O 0.10246 0.65774 0.58028 0.0
O632 O 0.0889 0.6198 0.50762 0.0
O633 O 0.14845 0.56559 0.60698 0.0
H634 H 0.05875 0.69866 0.67752 0.0
H635 H 0.11089 0.54523 0.70048 0.0
O636 O 0.13262 0.52679 0.53554 0.0
O637 O 0.03317 0.49745 0.56078 0.0
O638 O 0.04674 0.53539 0.63345 0.0
C639 C 0.0316 0.49703 0.60959 0.0
H640 H 0.05122 0.47052 0.36403 0.0
H641 H 0.08441 0.68467 0.77704 0.0
Co642 Co 0.85429 0.84747 0.32593 0.0
C643 C 0.81814 0.87075 0.22284 0.0
Co644 Co 0.78131 0.80771 0.31515 0.0
C645 C 0.95673 0.84001 0.35388 0.0
C646 C 0.94184 0.91887 0.33167 0.0
N647 N 0.91951 0.87206 0.33503 0.0
N648 N 1.00097 0.86413 0.36409 0.0
C649 C 0.99291 0.91407 0.35021 0.0
H650 H 0.94991 0.79989 0.36407 0.0
H651 H 0.92156 0.95418 0.31926 0.0
C652 C 0.81747 0.78442 0.41823 0.0
N653 N 0.71609 0.78312 0.30605 0.0
C654 C 0.67888 0.81517 0.2872 0.0
C655 C 0.69376 0.73631 0.3094 0.0
N656 N 0.63463 0.79105 0.27699 0.0
C657 C 0.64269 0.74112 0.29087 0.0
C658 C 0.86155 0.74904 0.28627 0.0
O659 O 0.85408 0.81435 0.40012 0.0
O660 O 0.78038 0.77568 0.38709 0.0
O661 O 0.81147 0.74834 0.28915 0.0
O662 O 0.88574 0.78808 0.29937 0.0
O663 O 0.78153 0.84083 0.24095 0.0
H664 H 0.71404 0.701 0.32182 0.0
H665 H 0.6857 0.85529 0.277 0.0
O666 O 0.85523 0.87949 0.25398 0.0
O667 O 0.82414 0.90684 0.35193 0.0
O668 O 0.74987 0.8671 0.34171 0.0
C669 C 0.77406 0.90614 0.35481 0.0
H670 H 0.02033 0.94478 0.35576 0.0
H671 H 0.61526 0.71041 0.28533 0.0
Co672 Co 0.84122 0.32609 0.8561 0.0
C673 C 0.84313 0.23675 0.81038 0.0
Co674 Co 0.79438 0.32911 0.78494 0.0
C675 C 0.82944 0.34019 0.96072 0.0
C676 C 0.9113 0.31915 0.94663 0.0
N677 N 0.86418 0.32523 0.92313 0.0
N678 N 0.85197 0.345 1.00617 0.0
C679 C 0.9039 0.3319 0.99833 0.0
H680 H 0.78911 0.35375 0.95369 0.0
H681 H 0.94886 0.30956 0.92697 0.0
C682 C 0.79247 0.41845 0.83065 0.0
N683 N 0.77143 0.32997 0.7179 0.0
C684 C 0.80617 0.31502 0.68031 0.0
C685 C 0.72429 0.33601 0.69441 0.0
N686 N 0.78364 0.31017 0.63487 0.0
C687 C 0.7317 0.32324 0.64271 0.0
C688 C 0.73141 0.30183 0.86059 0.0
O689 O 0.82112 0.39458 0.86309 0.0
O690 O 0.77538 0.39647 0.79168 0.0
O691 O 0.72773 0.30966 0.81219 0.0
O692 O 0.7752 0.30617 0.88187 0.0
O693 O 0.81449 0.26062 0.77794 0.0
H694 H 0.68673 0.34556 0.71407 0.0
H695 H 0.84651 0.30149 0.68734 0.0
O696 O 0.86021 0.25874 0.84935 0.0
O697 O 0.90787 0.34554 0.82884 0.0
O698 O 0.8604 0.34904 0.75917 0.0
C699 C 0.90419 0.35338 0.78045 0.0
H700 H 0.93458 0.33478 0.02651 0.0
H701 H 0.70101 0.32032 0.61454 0.0
Co702 Co 0.81061 0.79306 0.8418 0.0
C703 C 0.92052 0.82594 0.84963 0.0
Co704 Co 0.82504 0.86212 0.79928 0.0
C705 C 0.78025 0.69305 0.85569 0.0
C706 C 0.82182 0.71569 0.92198 0.0
N707 N 0.80424 0.73258 0.87542 0.0
N708 N 0.78142 0.652 0.88787 0.0
C709 C 0.80729 0.66527 0.93002 0.0
H710 H 0.7607 0.69484 0.81889 0.0
H711 H 0.84333 0.73857 0.94827 0.0
C712 C 0.71513 0.82924 0.79145 0.0
N713 N 0.8314 0.9226 0.76565 0.0
C714 C 0.85538 0.96214 0.78538 0.0
C715 C 0.81383 0.93948 0.71909 0.0
N716 N 0.85421 1.00318 0.7532 0.0
C717 C 0.82835 0.98991 0.71105 0.0
C718 C 0.82899 0.77958 0.7278 0.0
O719 O 0.7314 0.7945 0.82401 0.0
O720 O 0.74805 0.86482 0.78036 0.0
O721 O 0.83752 0.82762 0.73069 0.0
O722 O 0.82287 0.7557 0.77185 0.0
O723 O 0.90424 0.86068 0.81706 0.0
H724 H 0.79234 0.91659 0.69279 0.0
H725 H 0.87491 0.96036 0.82219 0.0
O726 O 0.88759 0.79037 0.86071 0.0
O727 O 0.79813 0.82756 0.91039 0.0
O728 O 0.81277 0.89948 0.86922 0.0
C729 C 0.80665 0.87561 0.91328 0.0
H730 H 0.81399 0.64093 0.96405 0.0
H731 H 0.82166 1.01424 0.67701 0.0
Co732 Co 0.56125 0.59844 0.5356 0.0
C733 C 0.55728 0.67034 0.61837 0.0
Co734 Co 0.57437 0.55674 0.60548 0.0
C735 C 0.53037 0.61231 0.43548 0.0
C736 C 0.57306 0.67801 0.45754 0.0
N737 N 0.55534 0.63165 0.47469 0.0
N738 N 0.53083 0.64467 0.39448 0.0
C739 C 0.5575 0.68639 0.40734 0.0
H740 H 0.51042 0.57578 0.43761 0.0
H741 H 0.59503 0.70409 0.48022 0.0
C742 C 0.57835 0.48484 0.52271 0.0
N743 N 0.58028 0.52353 0.66639 0.0
C744 C 0.60522 0.54289 0.70561 0.0
C745 C 0.56257 0.47717 0.68354 0.0
N746 N 0.60475 0.51054 0.74662 0.0
C747 C 0.5781 0.4688 0.73375 0.0
C748 C 0.46486 0.54906 0.57251 0.0
O749 O 0.57303 0.52855 0.49834 0.0
O750 O 0.58629 0.48812 0.57103 0.0
O751 O 0.49729 0.53823 0.60848 0.0
O752 O 0.48185 0.58101 0.53731 0.0
O753 O 0.5626 0.62663 0.64274 0.0
H754 H 0.54061 0.45108 0.66085 0.0
H755 H 0.62518 0.57942 0.70348 0.0
O756 O 0.54934 0.66705 0.57004 0.0
O757 O 0.63834 0.61694 0.5326 0.0
O758 O 0.65378 0.57417 0.60377 0.0
C759 C 0.67077 0.60611 0.56856 0.0
H760 H 0.56383 0.72048 0.383 0.0
H761 H 0.57177 0.43471 0.75809 0.0
Co762 Co 0.03179 0.57164 0.05016 0.0
C763 C 0.06716 0.67509 0.02749 0.0
Co764 Co 0.10385 0.58354 0.09092 0.0
C765 C 0.92952 0.54304 0.05761 0.0
C766 C 0.94431 0.5662 0.97856 0.0
N767 N 0.96685 0.56199 0.02532 0.0
N768 N 0.88485 0.53394 0.03377 0.0
C769 C 0.8929 0.54823 0.98367 0.0
H770 H 0.93632 0.53243 0.09777 0.0
H771 H 0.96449 0.57925 0.94312 0.0
C772 C 0.06848 0.48009 0.11359 0.0
N773 N 0.16879 0.59319 0.11576 0.0
C774 C 0.20613 0.61213 0.08347 0.0
C775 C 0.19133 0.58898 0.16253 0.0
N776 N 0.2508 0.62122 0.10731 0.0
C777 C 0.24274 0.60693 0.15741 0.0
C778 C 0.02309 0.61125 0.1493 0.0
O779 O 0.03223 0.4976 0.08317 0.0
O780 O 0.10491 0.51178 0.12297 0.0
O781 O 0.07313 0.60898 0.15047 0.0
O782 O 0.99963 0.5977 0.10992 0.0
O783 O 0.10341 0.65758 0.05792 0.0
H784 H 0.17114 0.57593 0.19797 0.0
H785 H 0.19932 0.62274 0.04331 0.0
O786 O 0.03074 0.6434 0.0181 0.0
O787 O 0.06251 0.54619 0.99062 0.0
O788 O 0.13601 0.55748 0.03116 0.0
C789 C 0.11255 0.54393 0.99178 0.0
H790 H 0.86505 0.54375 0.95309 0.0
H791 H 0.27059 0.61141 0.18799 0.0
loop_
_geom_bond_atom_site_label_1
_geom_bond_atom_site_label_2
_geom_bond_distance
_geom_bond_site_symmetry_2
_ccdc_geom_bond_type
In0 O1 2.294 . S
In0 O2 2.326 . S
In0 O6 2.266 . S
In0 O7 2.326 . S
In0 O8 2.266 . S
In0 O9 2.326 . S
In0 O11 2.294 1_455 S
In0 O12 2.326 1_455 S
O1 In0 2.294 . S
O1 C10 1.240 . S
O2 In0 2.326 . S
O2 C10 1.252 . S
C3 O6 1.252 . S
C3 O7 1.260 . S
C4 O11 1.240 . S
C4 O12 1.252 . S
C5 O8 1.252 . S
C5 O9 1.260 . S
O6 In0 2.266 . S
O6 C3 1.252 . S
O7 In0 2.326 . S
O7 C3 1.260 . S
O8 In0 2.266 . S
O8 C5 1.252 . S
O9 In0 2.326 . S
O9 C5 1.260 . S
C10 O1 1.240 . S
C10 O2 1.252 . S
O11 In0 2.294 1_655 S
O11 C4 1.240 . S
O12 In0 2.326 1_655 S
O12 C4 1.252 . S
In13 O14 2.294 . S
In13 O15 2.326 . S
In13 O19 2.266 . S
In13 O20 2.326 . S
In13 O21 2.266 . S
In13 O22 2.326 . S
In13 O24 2.294 . S
In13 O25 2.326 . S
O14 In13 2.294 . S
O14 C23 1.240 . S
O15 In13 2.326 . S
O15 C23 1.252 . S
C16 O19 1.252 . S
C16 O20 1.260 . S
C17 O24 1.240 . S
C17 O25 1.252 . S
C18 O21 1.252 . S
C18 O22 1.260 . S
O19 In13 2.266 . S
O19 C16 1.252 . S
O20 In13 2.326 . S
O20 C16 1.260 . S
O21 In13 2.266 . S
O21 C18 1.252 . S
O22 In13 2.326 . S
O22 C18 1.260 . S
C23 O14 1.240 . S
C23 O15 1.252 . S
O24 In13 2.294 . S
O24 C17 1.240 . S
O25 In13 2.326 . S
O25 C17 1.252 . S
In26 O27 2.294 . S
In26 O28 2.326 . S
In26 O32 2.266 . S
In26 O33 2.326 . S
In26 O34 2.266 . S
In26 O35 2.326 . S
In26 O37 2.294 . S
In26 O38 2.326 . S
O27 In26 2.294 . S
O27 C36 1.240 . S
O28 In26 2.326 . S
O28 C36 1.252 . S
C29 O32 1.252 . S
C29 O33 1.260 . S
C30 O37 1.240 . S
C30 O38 1.252 . S
C31 O34 1.252 . S
C31 O35 1.260 . S
O32 In26 2.266 . S
O32 C29 1.252 . S
O33 In26 2.326 . S
O33 C29 1.260 . S
O34 In26 2.266 . S
O34 C31 1.252 . S
O35 In26 2.326 . S
O35 C31 1.260 . S
C36 O27 1.240 . S
C36 O28 1.252 . S
O37 In26 2.294 . S
O37 C30 1.240 . S
O38 In26 2.326 . S
O38 C30 1.252 . S
In39 O40 2.294 . S
In39 O41 2.326 . S
In39 O45 2.266 . S
In39 O46 2.326 . S
In39 O47 2.266 . S
In39 O48 2.326 . S
In39 O50 2.294 . S
In39 O51 2.326 . S
O40 In39 2.294 . S
O40 C49 1.240 . S
O41 In39 2.326 . S
O41 C49 1.252 . S
C42 O45 1.252 . S
C42 O46 1.260 . S
C43 O50 1.240 . S
C43 O51 1.252 . S
C44 O47 1.252 . S
C44 O48 1.260 . S
O45 In39 2.266 . S
O45 C42 1.252 . S
O46 In39 2.326 . S
O46 C42 1.260 . S
O47 In39 2.266 . S
O47 C44 1.252 . S
O48 In39 2.326 . S
O48 C44 1.260 . S
C49 O40 1.240 . S
C49 O41 1.252 . S
O50 In39 2.294 . S
O50 C43 1.240 . S
O51 In39 2.326 . S
O51 C43 1.252 . S
In52 O53 2.294 1_545 S
In52 O54 2.326 1_545 S
In52 O58 2.266 . S
In52 O59 2.326 . S
In52 O60 2.266 . S
In52 O61 2.326 . S
In52 O63 2.294 . S
In52 O64 2.326 . S
O53 In52 2.294 1_565 S
O53 C62 1.240 . S
O54 In52 2.326 1_565 S
O54 C62 1.252 . S
C55 O58 1.252 . S
C55 O59 1.260 . S
C56 O63 1.240 . S
C56 O64 1.252 . S
C57 O60 1.252 . S
C57 O61 1.260 . S
O58 In52 2.266 . S
O58 C55 1.252 . S
O59 In52 2.326 . S
O59 C55 1.260 . S
O60 In52 2.266 . S
O60 C57 1.252 . S
O61 In52 2.326 . S
O61 C57 1.260 . S
C62 O53 1.240 . S
C62 O54 1.252 . S
O63 In52 2.294 . S
O63 C56 1.240 . S
O64 In52 2.326 . S
O64 C56 1.252 . S
In65 O66 2.284 1_565 S
In65 O67 2.326 . S
In65 O71 2.266 . S
In65 O72 2.326 . S
In65 O73 2.266 . S
In65 O74 2.326 . S
In65 O76 2.294 . S
In65 O77 2.326 . S
O66 In65 2.284 1_545 S
O66 C75 1.230 1_545 S
O67 In65 2.326 . S
O67 C75 1.252 . S
C68 O71 1.252 . S
C68 O72 1.260 . S
C69 O76 1.240 . S
C69 O77 1.252 . S
C70 O73 1.252 . S
C70 O74 1.260 . S
O71 In65 2.266 . S
O71 C68 1.252 . S
O72 In65 2.326 . S
O72 C68 1.260 . S
O73 In65 2.266 . S
O73 C70 1.252 . S
O74 In65 2.326 . S
O74 C70 1.260 . S
C75 O66 1.230 1_565 S
C75 O67 1.252 . S
O76 In65 2.294 . S
O76 C69 1.240 . S
O77 In65 2.326 . S
O77 C69 1.252 . S
In78 O79 2.294 . S
In78 O80 2.326 . S
In78 O84 2.266 . S
In78 O85 2.326 . S
In78 O86 2.266 . S
In78 O87 2.326 . S
In78 O89 2.294 . S
In78 O90 2.326 . S
O79 In78 2.294 . S
O79 C88 1.240 . S
O80 In78 2.326 . S
O80 C88 1.252 . S
C81 O84 1.252 . S
C81 O85 1.260 . S
C82 O89 1.240 . S
C82 O90 1.252 . S
C83 O86 1.252 . S
C83 O87 1.260 . S
O84 In78 2.266 . S
O84 C81 1.252 . S
O85 In78 2.326 . S
O85 C81 1.260 . S
O86 In78 2.266 . S
O86 C83 1.252 . S
O87 In78 2.326 . S
O87 C83 1.260 . S
C88 O79 1.240 . S
C88 O80 1.252 . S
O89 In78 2.294 . S
O89 C82 1.240 . S
O90 In78 2.326 . S
O90 C82 1.252 . S
In91 O92 2.294 . S
In91 O93 2.326 . S
In91 O97 2.266 . S
In91 O98 2.326 . S
In91 O99 2.266 . S
In91 O100 2.326 1_554 S
In91 O102 2.294 . S
In91 O103 2.326 . S
O92 In91 2.294 . S
O92 C101 1.240 . S
O93 In91 2.326 . S
O93 C101 1.252 . S
C94 O97 1.252 . S
C94 O98 1.260 . S
C95 O102 1.240 . S
C95 O103 1.252 . S
C96 O99 1.252 1_556 S
C96 O100 1.260 . S
O97 In91 2.266 . S
O97 C94 1.252 . S
O98 In91 2.326 . S
O98 C94 1.260 . S
O99 In91 2.266 . S
O99 C96 1.252 1_554 S
O100 In91 2.326 1_556 S
O100 C96 1.260 . S
C101 O92 1.240 . S
C101 O93 1.252 . S
O102 In91 2.294 . S
O102 C95 1.240 . S
O103 In91 2.326 . S
O103 C95 1.252 . S
In104 O105 2.294 . S
In104 O106 2.326 . S
In104 O110 2.266 . S
In104 O111 2.326 . S
In104 O112 2.266 . S
In104 O113 2.326 . S
In104 O115 2.294 . S
In104 O116 2.326 . S
O105 In104 2.294 . S
O105 C114 1.240 . S
O106 In104 2.326 . S
O106 C114 1.252 . S
C107 O110 1.252 . S
C107 O111 1.260 . S
C108 O115 1.240 . S
C108 O116 1.252 . S
C109 O112 1.252 . S
C109 O113 1.260 . S
O110 In104 2.266 . S
O110 C107 1.252 . S
O111 In104 2.326 . S
O111 C107 1.260 . S
O112 In104 2.266 . S
O112 C109 1.252 . S
O113 In104 2.326 . S
O113 C109 1.260 . S
C114 O105 1.240 . S
C114 O106 1.252 . S
O115 In104 2.294 . S
O115 C108 1.240 . S
O116 In104 2.326 . S
O116 C108 1.252 . S
In117 O118 2.294 . S
In117 O119 2.326 . S
In117 O123 2.266 . S
In117 O124 2.326 . S
In117 O125 2.266 . S
In117 O126 2.326 . S
In117 O128 2.294 . S
In117 O129 2.326 . S
O118 In117 2.294 . S
O118 C127 1.240 . S
O119 In117 2.326 . S
O119 C127 1.252 . S
C120 O123 1.252 . S
C120 O124 1.260 . S
C121 O128 1.240 . S
C121 O129 1.252 . S
C122 O125 1.252 . S
C122 O126 1.260 . S
O123 In117 2.266 . S
O123 C120 1.252 . S
O124 In117 2.326 . S
O124 C120 1.260 . S
O125 In117 2.266 . S
O125 C122 1.252 . S
O126 In117 2.326 . S
O126 C122 1.260 . S
C127 O118 1.240 . S
C127 O119 1.252 . S
O128 In117 2.294 . S
O128 C121 1.240 . S
O129 In117 2.326 . S
O129 C121 1.252 . S
In130 O131 2.294 . S
In130 O132 2.326 . S
In130 O136 2.266 . S
In130 O137 2.326 . S
In130 O138 2.266 . S
In130 O139 2.326 . S
In130 O141 2.294 . S
In130 O142 2.326 . S
O131 In130 2.294 . S
O131 C140 1.240 . S
O132 In130 2.326 . S
O132 C140 1.252 . S
C133 O136 1.252 . S
C133 O137 1.260 . S
C134 O141 1.240 . S
C134 O142 1.252 . S
C135 O138 1.252 . S
C135 O139 1.260 . S
O136 In130 2.266 . S
O136 C133 1.252 . S
O137 In130 2.326 . S
O137 C133 1.260 . S
O138 In130 2.266 . S
O138 C135 1.252 . S
O139 In130 2.326 . S
O139 C135 1.260 . S
C140 O131 1.240 . S
C140 O132 1.252 . S
O141 In130 2.294 . S
O141 C134 1.240 . S
O142 In130 2.326 . S
O142 C134 1.252 . S
In143 O144 2.294 . S
In143 O145 2.326 . S
In143 O149 2.266 . S
In143 O150 2.326 . S
In143 O151 2.266 . S
In143 O152 2.326 . S
In143 O154 2.294 . S
In143 O155 2.326 . S
O144 In143 2.294 . S
O144 C153 1.240 . S
O145 In143 2.326 . S
O145 C153 1.252 . S
C146 O149 1.252 . S
C146 O150 1.260 . S
C147 O154 1.240 . S
C147 O155 1.252 . S
C148 O151 1.252 . S
C148 O152 1.260 . S
O149 In143 2.266 . S
O149 C146 1.252 . S
O150 In143 2.326 . S
O150 C146 1.260 . S
O151 In143 2.266 . S
O151 C148 1.252 . S
O152 In143 2.326 . S
O152 C148 1.260 . S
C153 O144 1.240 . S
C153 O145 1.252 . S
O154 In143 2.294 . S
O154 C147 1.240 . S
O155 In143 2.326 . S
O155 C147 1.252 . S
In156 O157 2.294 . S
In156 O158 2.326 . S
In156 O162 2.266 1_455 S
In156 O163 2.326 1_455 S
In156 O164 2.266 1_556 S
In156 O165 2.326 . S
In156 O167 2.294 1_556 S
In156 O168 2.326 . S
O157 In156 2.294 . S
O157 C166 1.240 . S
O158 In156 2.326 . S
O158 C166 1.252 . S
C159 O162 1.252 . S
C159 O163 1.260 . S
C160 O167 1.240 1_556 S
C160 O168 1.252 . S
C161 O164 1.252 1_556 S
C161 O165 1.260 . S
O162 In156 2.266 1_655 S
O162 C159 1.252 . S
O163 In156 2.326 1_655 S
O163 C159 1.260 . S
O164 In156 2.266 1_554 S
O164 C161 1.252 1_554 S
O165 In156 2.326 . S
O165 C161 1.260 . S
C166 O157 1.240 . S
C166 O158 1.252 . S
O167 In156 2.294 1_554 S
O167 C160 1.240 1_554 S
O168 In156 2.326 . S
O168 C160 1.252 . S
In169 O170 2.294 . S
In169 O171 2.327 . S
In169 O175 2.266 1_455 S
In169 O176 2.325 1_455 S
In169 O177 2.264 1_455 S
In169 O178 2.322 1_455 S
In169 O180 2.296 . S
In169 O181 2.329 . S
O170 In169 2.294 . S
O170 C179 1.240 . S
O171 In169 2.327 . S
O171 C179 1.252 . S
C172 O175 1.252 . S
C172 O176 1.260 . S
C173 O180 1.240 . S
C173 O181 1.252 . S
C174 O177 1.252 . S
C174 O178 1.260 . S
O175 In169 2.266 1_655 S
O175 C172 1.252 . S
O176 In169 2.325 1_655 S
O176 C172 1.260 . S
O177 In169 2.264 1_655 S
O177 C174 1.252 . S
O178 In169 2.322 1_655 S
O178 C174 1.260 . S
C179 O170 1.240 . S
C179 O171 1.252 . S
O180 In169 2.296 . S
O180 C173 1.240 . S
O181 In169 2.329 . S
O181 C173 1.252 . S
In182 O183 2.294 . S
In182 O184 2.326 . S
In182 O188 2.266 . S
In182 O189 2.326 . S
In182 O190 2.266 . S
In182 O191 2.326 . S
In182 O193 2.294 . S
In182 O194 2.326 . S
O183 In182 2.294 . S
O183 C192 1.240 . S
O184 In182 2.326 . S
O184 C192 1.252 . S
C185 O188 1.252 . S
C185 O189 1.260 . S
C186 O193 1.240 . S
C186 O194 1.252 . S
C187 O190 1.252 . S
C187 O191 1.260 . S
O188 In182 2.266 . S
O188 C185 1.252 . S
O189 In182 2.326 . S
O189 C185 1.260 . S
O190 In182 2.266 . S
O190 C187 1.252 . S
O191 In182 2.326 . S
O191 C187 1.260 . S
C192 O183 1.240 . S
C192 O184 1.252 . S
O193 In182 2.294 . S
O193 C186 1.240 . S
O194 In182 2.326 . S
O194 C186 1.252 . S
In195 O196 2.294 . S
In195 O197 2.326 . S
In195 O201 2.266 . S
In195 O202 2.326 . S
In195 O203 2.266 . S
In195 O204 2.326 . S
In195 O206 2.294 . S
In195 O207 2.326 . S
O196 In195 2.294 . S
O196 C205 1.240 . S
O197 In195 2.326 . S
O197 C205 1.252 . S
C198 O201 1.252 . S
C198 O202 1.260 . S
C199 O206 1.240 . S
C199 O207 1.252 . S
C200 O203 1.252 . S
C200 O204 1.260 . S
O201 In195 2.266 . S
O201 C198 1.252 . S
O202 In195 2.326 . S
O202 C198 1.260 . S
O203 In195 2.266 . S
O203 C200 1.252 . S
O204 In195 2.326 . S
O204 C200 1.260 . S
C205 O196 1.240 . S
C205 O197 1.252 . S
O206 In195 2.294 . S
O206 C199 1.240 . S
O207 In195 2.326 . S
O207 C199 1.252 . S
In208 O209 2.294 . S
In208 O210 2.326 . S
In208 O214 2.266 . S
In208 O215 2.326 . S
In208 O216 2.266 . S
In208 O217 2.326 . S
In208 O219 2.294 . S
In208 O220 2.326 . S
O209 In208 2.294 . S
O209 C218 1.240 . S
O210 In208 2.326 . S
O210 C218 1.252 . S
C211 O214 1.252 . S
C211 O215 1.260 . S
C212 O219 1.240 . S
C212 O220 1.252 . S
C213 O216 1.252 . S
C213 O217 1.260 . S
O214 In208 2.266 . S
O214 C211 1.252 . S
O215 In208 2.326 . S
O215 C211 1.260 . S
O216 In208 2.266 . S
O216 C213 1.252 . S
O217 In208 2.326 . S
O217 C213 1.260 . S
C218 O209 1.240 . S
C218 O210 1.252 . S
O219 In208 2.294 . S
O219 C212 1.240 . S
O220 In208 2.326 . S
O220 C212 1.252 . S
In221 O222 2.294 . S
In221 O223 2.326 . S
In221 O227 2.266 . S
In221 O228 2.326 . S
In221 O229 2.266 . S
In221 O230 2.326 . S
In221 O232 2.294 . S
In221 O233 2.326 . S
O222 In221 2.294 . S
O222 C231 1.240 . S
O223 In221 2.326 . S
O223 C231 1.252 . S
C224 O227 1.252 . S
C224 O228 1.260 . S
C225 O232 1.240 . S
C225 O233 1.252 . S
C226 O229 1.252 . S
C226 O230 1.260 . S
O227 In221 2.266 . S
O227 C224 1.252 . S
O228 In221 2.326 . S
O228 C224 1.260 . S
O229 In221 2.266 . S
O229 C226 1.252 . S
O230 In221 2.326 . S
O230 C226 1.260 . S
C231 O222 1.240 . S
C231 O223 1.252 . S
O232 In221 2.294 . S
O232 C225 1.240 . S
O233 In221 2.326 . S
O233 C225 1.252 . S
In234 O235 2.294 1_545 S
In234 O236 2.326 1_545 S
In234 O240 2.266 . S
In234 O241 2.326 . S
In234 O242 2.266 . S
In234 O243 2.326 . S
In234 O245 2.294 . S
In234 O246 2.326 . S
O235 In234 2.294 1_565 S
O235 C244 1.240 . S
O236 In234 2.326 1_565 S
O236 C244 1.252 . S
C237 O240 1.252 . S
C237 O241 1.260 . S
C238 O245 1.240 . S
C238 O246 1.252 . S
C239 O242 1.252 . S
C239 O243 1.260 . S
O240 In234 2.266 . S
O240 C237 1.252 . S
O241 In234 2.326 . S
O241 C237 1.260 . S
O242 In234 2.266 . S
O242 C239 1.252 . S
O243 In234 2.326 . S
O243 C239 1.260 . S
C244 O235 1.240 . S
C244 O236 1.252 . S
O245 In234 2.294 . S
O245 C238 1.240 . S
O246 In234 2.326 . S
O246 C238 1.252 . S
In247 O248 2.294 1_565 S
In247 O249 2.326 . S
In247 O253 2.266 . S
In247 O254 2.326 . S
In247 O255 2.266 1_554 S
In247 O256 2.326 1_554 S
In247 O258 2.294 . S
In247 O259 2.326 . S
O248 In247 2.294 1_545 S
O248 C257 1.240 1_545 S
O249 In247 2.326 . S
O249 C257 1.252 . S
C250 O253 1.252 . S
C250 O254 1.260 . S
C251 O258 1.240 . S
C251 O259 1.252 . S
C252 O255 1.252 . S
C252 O256 1.260 . S
O253 In247 2.266 . S
O253 C250 1.252 . S
O254 In247 2.326 . S
O254 C250 1.260 . S
O255 In247 2.266 1_556 S
O255 C252 1.252 . S
O256 In247 2.326 1_556 S
O256 C252 1.260 . S
C257 O248 1.240 1_565 S
C257 O249 1.252 . S
O258 In247 2.294 . S
O258 C251 1.240 . S
O259 In247 2.326 . S
O259 C251 1.252 . S
In260 O261 2.299 . S
In260 O262 2.333 . S
In260 O266 2.262 1_554 S
In260 O267 2.318 1_554 S
In260 O268 2.265 1_554 S
In260 O269 2.325 1_554 S
In260 O271 2.295 . S
In260 O272 2.327 . S
O261 In260 2.299 . S
O261 C270 1.240 . S
O262 In260 2.333 . S
O262 C270 1.252 . S
C263 O266 1.252 . S
C263 O267 1.260 . S
C264 O271 1.240 . S
C264 O272 1.252 . S
C265 O268 1.252 . S
C265 O269 1.260 . S
O266 In260 2.262 1_556 S
O266 C263 1.252 . S
O267 In260 2.318 1_556 S
O267 C263 1.260 . S
O268 In260 2.265 1_556 S
O268 C265 1.252 . S
O269 In260 2.325 1_556 S
O269 C265 1.260 . S
C270 O261 1.240 . S
C270 O262 1.252 . S
O271 In260 2.295 . S
O271 C264 1.240 . S
O272 In260 2.327 . S
O272 C264 1.252 . S
In273 O274 2.294 . S
In273 O275 2.326 . S
In273 O279 2.266 . S
In273 O280 2.326 . S
In273 O281 2.266 . S
In273 O282 2.326 . S
In273 O284 2.294 . S
In273 O285 2.326 . S
O274 In273 2.294 . S
O274 C283 1.240 . S
O275 In273 2.326 . S
O275 C283 1.252 . S
C276 O279 1.252 . S
C276 O280 1.260 . S
C277 O284 1.240 . S
C277 O285 1.252 . S
C278 O281 1.252 . S
C278 O282 1.260 . S
O279 In273 2.266 . S
O279 C276 1.252 . S
O280 In273 2.326 . S
O280 C276 1.260 . S
O281 In273 2.266 . S
O281 C278 1.252 . S
O282 In273 2.326 . S
O282 C278 1.260 . S
C283 O274 1.240 . S
C283 O275 1.252 . S
O284 In273 2.294 . S
O284 C277 1.240 . S
O285 In273 2.326 . S
O285 C277 1.252 . S
In286 O287 2.294 . S
In286 O288 2.326 . S
In286 O292 2.266 . S
In286 O293 2.326 . S
In286 O294 2.266 . S
In286 O295 2.326 . S
In286 O297 2.294 . S
In286 O298 2.326 . S
O287 In286 2.294 . S
O287 C296 1.240 . S
O288 In286 2.326 . S
O288 C296 1.252 . S
C289 O292 1.252 . S
C289 O293 1.260 . S
C290 O297 1.240 . S
C290 O298 1.252 . S
C291 O294 1.252 . S
C291 O295 1.260 . S
O292 In286 2.266 . S
O292 C289 1.252 . S
O293 In286 2.326 . S
O293 C289 1.260 . S
O294 In286 2.266 . S
O294 C291 1.252 . S
O295 In286 2.326 . S
O295 C291 1.260 . S
C296 O287 1.240 . S
C296 O288 1.252 . S
O297 In286 2.294 . S
O297 C290 1.240 . S
O298 In286 2.326 . S
O298 C290 1.252 . S
In299 O300 2.294 . S
In299 O301 2.326 . S
In299 O305 2.266 . S
In299 O306 2.326 . S
In299 O307 2.266 . S
In299 O308 2.326 . S
In299 O310 2.294 . S
In299 O311 2.326 . S
O300 In299 2.294 . S
O300 C309 1.240 . S
O301 In299 2.326 . S
O301 C309 1.252 . S
C302 O305 1.252 . S
C302 O306 1.260 . S
C303 O310 1.240 . S
C303 O311 1.252 . S
C304 O307 1.252 . S
C304 O308 1.260 . S
O305 In299 2.266 . S
O305 C302 1.252 . S
O306 In299 2.326 . S
O306 C302 1.260 . S
O307 In299 2.266 . S
O307 C304 1.252 . S
O308 In299 2.326 . S
O308 C304 1.260 . S
C309 O300 1.240 . S
C309 O301 1.252 . S
O310 In299 2.294 . S
O310 C303 1.240 . S
O311 In299 2.326 . S
O311 C303 1.252 . S
Co312 N317 2.045 1_554 S
Co312 O329 1.998 1_544 S
Co312 O332 2.065 1_455 S
Co312 O336 2.126 . S
Co312 O337 2.021 . S
C313 O333 1.259 . S
C313 O336 1.258 . S
Co314 N323 2.058 . S
Co314 O330 2.117 1_545 S
Co314 O331 2.020 1_455 S
Co314 O333 2.021 . S
Co314 O338 2.062 . S
C315 N317 1.316 . S
C315 N318 1.347 1_455 S
C315 H320 0.931 . S
C316 N317 1.370 1_655 S
C316 C319 1.360 . S
C316 H321 0.926 1_655 S
N317 Co312 2.045 1_556 S
N317 C315 1.316 . S
N317 C316 1.370 1_455 S
N318 C315 1.347 1_655 S
N318 C319 1.373 . S
C319 C316 1.360 . S
C319 N318 1.373 . S
C319 H340 0.931 . S
H320 C315 0.931 . S
H321 C316 0.926 1_455 S
C322 O329 1.271 1_554 S
C322 O330 1.258 . S
N323 Co314 2.058 . S
N323 C324 1.318 . S
N323 C325 1.372 1_545 S
C324 N323 1.318 . S
C324 N326 1.347 1_545 S
C324 H335 0.931 . S
C325 N323 1.372 1_565 S
C325 C327 1.350 . S
C325 H334 0.930 . S
N326 C324 1.347 1_565 S
N326 C327 1.373 . S
C327 C325 1.350 . S
C327 N326 1.373 . S
C327 H341 0.931 . S
C328 O331 1.256 . S
C328 O332 1.255 . S
O329 Co312 1.998 1_566 S
O329 C322 1.271 1_556 S
O330 Co314 2.117 1_565 S
O330 C322 1.258 . S
O331 Co314 2.020 1_655 S
O331 C328 1.256 . S
O332 Co312 2.065 1_655 S
O332 C328 1.255 . S
O333 C313 1.259 . S
O333 Co314 2.021 . S
H334 C325 0.930 . S
H335 C324 0.931 . S
O336 Co312 2.126 . S
O336 C313 1.258 . S
O337 Co312 2.021 . S
O337 C339 1.256 . S
O338 Co314 2.062 . S
O338 C339 1.255 . S
C339 O337 1.256 . S
C339 O338 1.255 . S
H340 C319 0.931 . S
H341 C327 0.931 . S
Co342 N347 2.057 . S
Co342 O359 2.021 . S
Co342 O362 2.062 . S
Co342 O366 2.117 . S
Co342 O367 2.020 . S
C343 O363 1.259 . S
C343 O366 1.258 . S
Co344 N353 2.057 . S
Co344 O360 2.117 . S
Co344 O361 2.020 . S
Co344 O363 2.021 . S
Co344 O368 2.062 . S
C345 N347 1.316 . S
C345 N348 1.347 . S
C345 H350 0.931 . S
C346 N347 1.375 . S
C346 C349 1.350 . S
C346 H351 0.930 . S
N347 Co342 2.057 . S
N347 C345 1.316 . S
N347 C346 1.375 . S
N348 C345 1.347 . S
N348 C349 1.373 . S
C349 C346 1.350 . S
C349 N348 1.373 . S
C349 H370 0.931 . S
H350 C345 0.931 . S
H351 C346 0.930 . S
C352 O359 1.259 . S
C352 O360 1.258 . S
N353 Co344 2.057 . S
N353 C354 1.316 . S
N353 C355 1.375 . S
C354 N353 1.316 . S
C354 N356 1.347 . S
C354 H365 0.931 . S
C355 N353 1.375 . S
C355 C357 1.350 . S
C355 H364 0.930 . S
N356 C354 1.347 . S
N356 C357 1.373 . S
C357 C355 1.350 . S
C357 N356 1.373 . S
C357 H371 0.931 . S
C358 O361 1.256 . S
C358 O362 1.255 . S
O359 Co342 2.021 . S
O359 C352 1.259 . S
O360 Co344 2.117 . S
O360 C352 1.258 . S
O361 Co344 2.020 . S
O361 C358 1.256 . S
O362 Co342 2.062 . S
O362 C358 1.255 . S
O363 C343 1.259 . S
O363 Co344 2.021 . S
H364 C355 0.930 . S
H365 C354 0.931 . S
O366 Co342 2.117 . S
O366 C343 1.258 . S
O367 Co342 2.020 . S
O367 C369 1.256 . S
O368 Co344 2.062 . S
O368 C369 1.255 . S
C369 O367 1.256 . S
C369 O368 1.255 . S
H370 C349 0.931 . S
H371 C357 0.931 . S
Co372 N377 2.057 . S
Co372 O389 2.021 1_545 S
Co372 O392 2.062 . S
Co372 O396 2.117 . S
Co372 O397 2.020 . S
C373 O393 1.259 . S
C373 O396 1.258 . S
Co374 N383 2.057 . S
Co374 O390 2.117 . S
Co374 O391 2.020 . S
Co374 O393 2.021 . S
Co374 O398 2.062 . S
C375 N377 1.316 . S
C375 N378 1.347 . S
C375 H380 0.931 1_545 S
C376 N377 1.375 . S
C376 C379 1.350 . S
C376 H381 0.930 . S
N377 Co372 2.057 . S
N377 C375 1.316 . S
N377 C376 1.375 . S
N378 C375 1.347 . S
N378 C379 1.373 . S
C379 C376 1.350 . S
C379 N378 1.373 . S
C379 H400 0.931 . S
H380 C375 0.931 1_565 S
H381 C376 0.930 . S
C382 O389 1.259 . S
C382 O390 1.258 1_565 S
N383 Co374 2.057 . S
N383 C384 1.316 . S
N383 C385 1.375 . S
C384 N383 1.316 . S
C384 N386 1.347 . S
C384 H395 0.931 . S
C385 N383 1.375 . S
C385 C387 1.350 . S
C385 H394 0.930 . S
N386 C384 1.347 . S
N386 C387 1.373 . S
C387 C385 1.350 . S
C387 N386 1.373 . S
C387 H401 0.931 . S
C388 O391 1.256 . S
C388 O392 1.255 . S
O389 Co372 2.021 1_565 S
O389 C382 1.259 . S
O390 Co374 2.117 . S
O390 C382 1.258 1_545 S
O391 Co374 2.020 . S
O391 C388 1.256 . S
O392 Co372 2.062 . S
O392 C388 1.255 . S
O393 C373 1.259 . S
O393 Co374 2.021 . S
H394 C385 0.930 . S
H395 C384 0.931 . S
O396 Co372 2.117 . S
O396 C373 1.258 . S
O397 Co372 2.020 . S
O397 C399 1.256 . S
O398 Co374 2.062 . S
O398 C399 1.255 . S
C399 O397 1.256 . S
C399 O398 1.255 . S
H400 C379 0.931 . S
H401 C387 0.931 . S
Co402 N407 2.057 . S
Co402 O419 2.021 . S
Co402 O422 2.062 . S
Co402 O426 2.117 . S
Co402 O427 2.020 . S
C403 O423 1.259 . S
C403 O426 1.258 . S
Co404 N413 2.057 . S
Co404 O420 2.117 . S
Co404 O421 2.020 . S
Co404 O423 2.021 . S
Co404 O428 2.062 . S
C405 N407 1.316 . S
C405 N408 1.347 . S
C405 H410 0.931 . S
C406 N407 1.375 . S
C406 C409 1.350 . S
C406 H411 0.930 . S
N407 Co402 2.057 . S
N407 C405 1.316 . S
N407 C406 1.375 . S
N408 C405 1.347 . S
N408 C409 1.373 . S
C409 C406 1.350 . S
C409 N408 1.373 . S
C409 H430 0.931 . S
H410 C405 0.931 . S
H411 C406 0.930 . S
C412 O419 1.259 . S
C412 O420 1.258 . S
N413 Co404 2.057 . S
N413 C414 1.316 . S
N413 C415 1.375 . S
C414 N413 1.316 . S
C414 N416 1.347 . S
C414 H425 0.931 . S
C415 N413 1.375 . S
C415 C417 1.350 . S
C415 H424 0.930 . S
N416 C414 1.347 . S
N416 C417 1.373 . S
C417 C415 1.350 . S
C417 N416 1.373 . S
C417 H431 0.931 . S
C418 O421 1.256 . S
C418 O422 1.255 . S
O419 Co402 2.021 . S
O419 C412 1.259 . S
O420 Co404 2.117 . S
O420 C412 1.258 . S
O421 Co404 2.020 . S
O421 C418 1.256 . S
O422 Co402 2.062 . S
O422 C418 1.255 . S
O423 C403 1.259 . S
O423 Co404 2.021 . S
H424 C415 0.930 . S
H425 C414 0.931 . S
O426 Co402 2.117 . S
O426 C403 1.258 . S
O427 Co402 2.020 . S
O427 C429 1.256 . S
O428 Co404 2.062 . S
O428 C429 1.255 . S
C429 O427 1.256 . S
C429 O428 1.255 . S
H430 C409 0.931 . S
H431 C417 0.931 . S
Co432 N437 2.057 1_545 S
Co432 O449 2.021 . S
Co432 O452 2.062 1_545 S
Co432 O456 2.117 1_455 S
Co432 O457 2.020 1_455 S
C433 O453 1.259 1_655 S
C433 O456 1.258 . S
Co434 N443 2.057 . S
Co434 O450 2.117 . S
Co434 O451 2.020 . S
Co434 O453 2.021 . S
Co434 O458 2.062 1_455 S
C435 N437 1.316 . S
C435 N438 1.347 . S
C435 H440 0.931 . S
C436 N437 1.375 1_655 S
C436 C439 1.350 . S
C436 H441 0.930 . S
N437 Co432 2.057 1_565 S
N437 C435 1.316 . S
N437 C436 1.375 1_455 S
N438 C435 1.347 . S
N438 C439 1.373 1_455 S
C439 C436 1.350 . S
C439 N438 1.373 1_655 S
C439 H460 0.931 . S
H440 C435 0.931 . S
H441 C436 0.930 . S
C442 O449 1.259 . S
C442 O450 1.258 . S
N443 Co434 2.057 . S
N443 C444 1.316 . S
N443 C445 1.375 . S
C444 N443 1.316 . S
C444 N446 1.347 . S
C444 H455 0.931 . S
C445 N443 1.375 . S
C445 C447 1.350 . S
C445 H454 0.930 . S
N446 C444 1.347 . S
N446 C447 1.373 . S
C447 C445 1.350 . S
C447 N446 1.373 . S
C447 H461 0.931 . S
C448 O451 1.256 . S
C448 O452 1.255 1_545 S
O449 Co432 2.021 . S
O449 C442 1.259 . S
O450 Co434 2.117 . S
O450 C442 1.258 . S
O451 Co434 2.020 . S
O451 C448 1.256 . S
O452 Co432 2.062 1_565 S
O452 C448 1.255 1_565 S
O453 C433 1.259 1_455 S
O453 Co434 2.021 . S
H454 C445 0.930 . S
H455 C444 0.931 . S
O456 Co432 2.117 1_655 S
O456 C433 1.258 . S
O457 Co432 2.020 1_655 S
O457 C459 1.256 . S
O458 Co434 2.062 1_655 S
O458 C459 1.255 . S
C459 O457 1.256 . S
C459 O458 1.255 . S
H460 C439 0.931 . S
H461 C447 0.931 . S
Co462 N467 2.057 . S
Co462 O479 2.021 . S
Co462 O482 2.062 . S
Co462 O486 2.117 . S
Co462 O487 2.020 . S
C463 O483 1.259 . S
C463 O486 1.258 . S
Co464 N473 2.057 . S
Co464 O480 2.117 . S
Co464 O481 2.020 . S
Co464 O483 2.021 . S
Co464 O488 2.062 . S
C465 N467 1.316 . S
C465 N468 1.347 1_565 S
C465 H470 0.931 . S
C466 N467 1.375 . S
C466 C469 1.350 1_565 S
C466 H471 0.930 . S
N467 Co462 2.057 . S
N467 C465 1.316 . S
N467 C466 1.375 . S
N468 C465 1.347 1_545 S
N468 C469 1.373 . S
C469 C466 1.350 1_545 S
C469 N468 1.373 . S
C469 H490 0.931 . S
H470 C465 0.931 . S
H471 C466 0.930 . S
C472 O479 1.259 . S
C472 O480 1.258 . S
N473 Co464 2.057 . S
N473 C474 1.316 . S
N473 C475 1.375 . S
C474 N473 1.316 . S
C474 N476 1.347 . S
C474 H485 0.931 . S
C475 N473 1.375 . S
C475 C477 1.350 . S
C475 H484 0.930 . S
N476 C474 1.347 . S
N476 C477 1.373 . S
C477 C475 1.350 . S
C477 N476 1.373 . S
C477 H491 0.931 . S
C478 O481 1.256 . S
C478 O482 1.255 . S
O479 Co462 2.021 . S
O479 C472 1.259 . S
O480 Co464 2.117 . S
O480 C472 1.258 . S
O481 Co464 2.020 . S
O481 C478 1.256 . S
O482 Co462 2.062 . S
O482 C478 1.255 . S
O483 C463 1.259 . S
O483 Co464 2.021 . S
H484 C475 0.930 . S
H485 C474 0.931 . S
O486 Co462 2.117 . S
O486 C463 1.258 . S
O487 Co462 2.020 . S
O487 C489 1.256 . S
O488 Co464 2.062 . S
O488 C489 1.255 . S
C489 O487 1.256 . S
C489 O488 1.255 . S
H490 C469 0.931 . S
H491 C477 0.931 . S
Co492 N497 2.057 1_554 S
Co492 O509 2.021 . S
Co492 O512 2.062 1_554 S
Co492 O516 2.117 . S
Co492 O517 2.020 1_545 S
C493 O513 1.259 . S
C493 O516 1.258 . S
Co494 N503 2.057 . S
Co494 O510 2.117 . S
Co494 O511 2.020 . S
Co494 O513 2.021 . S
Co494 O518 2.062 1_545 S
C495 N497 1.316 . S
C495 N498 1.347 . S
C495 H500 0.931 . S
C496 N497 1.375 1_565 S
C496 C499 1.350 . S
C496 H501 0.930 . S
N497 Co492 2.057 1_556 S
N497 C495 1.316 . S
N497 C496 1.375 1_545 S
N498 C495 1.347 . S
N498 C499 1.373 1_545 S
C499 C496 1.350 . S
C499 N498 1.373 1_565 S
C499 H520 0.931 . S
H500 C495 0.931 . S
H501 C496 0.930 . S
C502 O509 1.259 . S
C502 O510 1.258 . S
N503 Co494 2.057 . S
N503 C504 1.316 . S
N503 C505 1.375 . S
C504 N503 1.316 . S
C504 N506 1.347 . S
C504 H515 0.931 . S
C505 N503 1.375 . S
C505 C507 1.350 . S
C505 H514 0.930 . S
N506 C504 1.347 . S
N506 C507 1.373 . S
C507 C505 1.350 . S
C507 N506 1.373 . S
C507 H521 0.931 . S
C508 O511 1.256 . S
C508 O512 1.255 1_554 S
O509 Co492 2.021 . S
O509 C502 1.259 . S
O510 Co494 2.117 . S
O510 C502 1.258 . S
O511 Co494 2.020 . S
O511 C508 1.256 . S
O512 Co492 2.062 1_556 S
O512 C508 1.255 1_556 S
O513 C493 1.259 . S
O513 Co494 2.021 . S
H514 C505 0.930 . S
H515 C504 0.931 . S
O516 Co492 2.117 . S
O516 C493 1.258 . S
O517 Co492 2.020 1_565 S
O517 C519 1.256 . S
O518 Co494 2.062 1_565 S
O518 C519 1.255 . S
C519 O517 1.256 . S
C519 O518 1.255 . S
H520 C499 0.931 . S
H521 C507 0.931 . S
Co522 N527 2.057 . S
Co522 O539 2.021 . S
Co522 O542 2.062 . S
Co522 O546 2.117 . S
Co522 O547 2.020 . S
C523 O543 1.259 . S
C523 O546 1.258 . S
Co524 N533 2.057 . S
Co524 O540 2.117 . S
Co524 O541 2.020 . S
Co524 O543 2.021 . S
Co524 O548 2.062 . S
C525 N527 1.316 . S
C525 N528 1.347 . S
C525 H530 0.931 . S
C526 N527 1.375 . S
C526 C529 1.350 . S
C526 H531 0.930 . S
N527 Co522 2.057 . S
N527 C525 1.316 . S
N527 C526 1.375 . S
N528 C525 1.347 . S
N528 C529 1.373 . S
C529 C526 1.350 . S
C529 N528 1.373 . S
C529 H550 0.931 . S
H530 C525 0.931 . S
H531 C526 0.930 . S
C532 O539 1.259 . S
C532 O540 1.258 . S
N533 Co524 2.057 . S
N533 C534 1.316 . S
N533 C535 1.375 . S
C534 N533 1.316 . S
C534 N536 1.347 . S
C534 H545 0.931 . S
C535 N533 1.375 . S
C535 C537 1.350 . S
C535 H544 0.930 . S
N536 C534 1.347 . S
N536 C537 1.373 . S
C537 C535 1.350 . S
C537 N536 1.373 . S
C537 H551 0.931 . S
C538 O541 1.256 . S
C538 O542 1.255 . S
O539 Co522 2.021 . S
O539 C532 1.259 . S
O540 Co524 2.117 . S
O540 C532 1.258 . S
O541 Co524 2.020 . S
O541 C538 1.256 . S
O542 Co522 2.062 . S
O542 C538 1.255 . S
O543 C523 1.259 . S
O543 Co524 2.021 . S
H544 C535 0.930 . S
H545 C534 0.931 . S
O546 Co522 2.117 . S
O546 C523 1.258 . S
O547 Co522 2.020 . S
O547 C549 1.256 . S
O548 Co524 2.062 . S
O548 C549 1.255 . S
C549 O547 1.256 . S
C549 O548 1.255 . S
H550 C529 0.931 . S
H551 C537 0.931 . S
Co552 N557 2.057 . S
Co552 O569 2.021 1_554 S
Co552 O572 2.062 . S
Co552 O576 2.117 . S
Co552 O577 2.020 . S
C553 O573 1.259 . S
C553 O576 1.258 . S
Co554 N563 2.057 . S
Co554 O570 2.117 . S
Co554 O571 2.020 . S
Co554 O573 2.021 . S
Co554 O578 2.062 . S
C555 N557 1.316 . S
C555 N558 1.347 . S
C555 H560 0.931 1_554 S
C556 N557 1.375 . S
C556 C559 1.350 . S
C556 H561 0.930 . S
N557 Co552 2.057 . S
N557 C555 1.316 . S
N557 C556 1.375 . S
N558 C555 1.347 . S
N558 C559 1.373 . S
C559 C556 1.350 . S
C559 N558 1.373 . S
C559 H580 0.931 . S
H560 C555 0.931 1_556 S
H561 C556 0.930 . S
C562 O569 1.259 . S
C562 O570 1.258 1_556 S
N563 Co554 2.057 . S
N563 C564 1.316 . S
N563 C565 1.375 . S
C564 N563 1.316 . S
C564 N566 1.347 . S
C564 H575 0.931 . S
C565 N563 1.375 . S
C565 C567 1.350 . S
C565 H574 0.930 . S
N566 C564 1.347 . S
N566 C567 1.373 . S
C567 C565 1.350 . S
C567 N566 1.373 . S
C567 H581 0.931 . S
C568 O571 1.256 . S
C568 O572 1.255 . S
O569 Co552 2.021 1_556 S
O569 C562 1.259 . S
O570 Co554 2.117 . S
O570 C562 1.258 1_554 S
O571 Co554 2.020 . S
O571 C568 1.256 . S
O572 Co552 2.062 . S
O572 C568 1.255 . S
O573 C553 1.259 . S
O573 Co554 2.021 . S
H574 C565 0.930 . S
H575 C564 0.931 . S
O576 Co552 2.117 . S
O576 C553 1.258 . S
O577 Co552 2.020 . S
O577 C579 1.256 . S
O578 Co554 2.062 . S
O578 C579 1.255 . S
C579 O577 1.256 . S
C579 O578 1.255 . S
H580 C559 0.931 . S
H581 C567 0.931 . S
Co582 N587 2.057 . S
Co582 O599 2.021 . S
Co582 O602 2.062 . S
Co582 O606 2.117 . S
Co582 O607 2.020 . S
C583 O603 1.259 . S
C583 O606 1.258 . S
Co584 N593 2.057 . S
Co584 O600 2.117 . S
Co584 O601 2.020 . S
Co584 O603 2.021 . S
Co584 O608 2.062 . S
C585 N587 1.316 . S
C585 N588 1.347 . S
C585 H590 0.931 . S
C586 N587 1.375 . S
C586 C589 1.350 . S
C586 H591 0.930 . S
N587 Co582 2.057 . S
N587 C585 1.316 . S
N587 C586 1.375 . S
N588 C585 1.347 . S
N588 C589 1.373 . S
C589 C586 1.350 . S
C589 N588 1.373 . S
C589 H610 0.931 . S
H590 C585 0.931 . S
H591 C586 0.930 . S
C592 O599 1.259 . S
C592 O600 1.258 . S
N593 Co584 2.057 . S
N593 C594 1.316 . S
N593 C595 1.375 . S
C594 N593 1.316 . S
C594 N596 1.347 . S
C594 H605 0.931 . S
C595 N593 1.375 . S
C595 C597 1.350 . S
C595 H604 0.930 . S
N596 C594 1.347 . S
N596 C597 1.373 . S
C597 C595 1.350 . S
C597 N596 1.373 . S
C597 H611 0.931 . S
C598 O601 1.256 . S
C598 O602 1.255 . S
O599 Co582 2.021 . S
O599 C592 1.259 . S
O600 Co584 2.117 . S
O600 C592 1.258 . S
O601 Co584 2.020 . S
O601 C598 1.256 . S
O602 Co582 2.062 . S
O602 C598 1.255 . S
O603 C583 1.259 . S
O603 Co584 2.021 . S
H604 C595 0.930 . S
H605 C594 0.931 . S
O606 Co582 2.117 . S
O606 C583 1.258 . S
O607 Co582 2.020 . S
O607 C609 1.256 . S
O608 Co584 2.062 . S
O608 C609 1.255 . S
C609 O607 1.256 . S
C609 O608 1.255 . S
H610 C589 0.931 . S
H611 C597 0.931 . S
Co612 N617 2.057 . S
Co612 O629 2.021 1_455 S
Co612 O632 2.062 . S
Co612 O636 2.117 . S
Co612 O637 2.020 . S
C613 O633 1.259 . S
C613 O636 1.258 . S
Co614 N623 2.057 . S
Co614 O630 2.117 . S
Co614 O631 2.020 . S
Co614 O633 2.021 . S
Co614 O638 2.062 . S
C615 N617 1.316 1_655 S
C615 N618 1.347 1_655 S
C615 H620 0.931 . S
C616 N617 1.375 . S
C616 C619 1.350 . S
C616 H621 0.930 . S
N617 Co612 2.057 . S
N617 C615 1.316 1_455 S
N617 C616 1.375 . S
N618 C615 1.347 1_455 S
N618 C619 1.373 . S
C619 C616 1.350 . S
C619 N618 1.373 . S
C619 H640 0.931 . S
H620 C615 0.931 . S
H621 C616 0.930 . S
C622 O629 1.259 . S
C622 O630 1.258 1_655 S
N623 Co614 2.057 . S
N623 C624 1.316 . S
N623 C625 1.375 . S
C624 N623 1.316 . S
C624 N626 1.347 . S
C624 H635 0.931 . S
C625 N623 1.375 . S
C625 C627 1.350 . S
C625 H634 0.930 . S
N626 C624 1.347 . S
N626 C627 1.373 . S
C627 C625 1.350 . S
C627 N626 1.373 . S
C627 H641 0.931 . S
C628 O631 1.256 . S
C628 O632 1.255 . S
O629 Co612 2.021 1_655 S
O629 C622 1.259 . S
O630 Co614 2.117 . S
O630 C622 1.258 1_455 S
O631 Co614 2.020 . S
O631 C628 1.256 . S
O632 Co612 2.062 . S
O632 C628 1.255 . S
O633 C613 1.259 . S
O633 Co614 2.021 . S
H634 C625 0.930 . S
H635 C624 0.931 . S
O636 Co612 2.117 . S
O636 C613 1.258 . S
O637 Co612 2.020 . S
O637 C639 1.256 . S
O638 Co614 2.062 . S
O638 C639 1.255 . S
C639 O637 1.256 . S
C639 O638 1.255 . S
H640 C619 0.931 . S
H641 C627 0.931 . S
Co642 N647 2.057 . S
Co642 O659 2.021 . S
Co642 O662 2.062 . S
Co642 O666 2.117 . S
Co642 O667 2.020 . S
C643 O663 1.259 . S
C643 O666 1.258 . S
Co644 N653 2.057 . S
Co644 O660 2.117 . S
Co644 O661 2.020 . S
Co644 O663 2.021 . S
Co644 O668 2.062 . S
C645 N647 1.316 . S
C645 N648 1.347 1_655 S
C645 H650 0.931 . S
C646 N647 1.375 . S
C646 C649 1.350 1_655 S
C646 H651 0.930 . S
N647 Co642 2.057 . S
N647 C645 1.316 . S
N647 C646 1.375 . S
N648 C645 1.347 1_455 S
N648 C649 1.373 . S
C649 C646 1.350 1_455 S
C649 N648 1.373 . S
C649 H670 0.931 . S
H650 C645 0.931 . S
H651 C646 0.930 . S
C652 O659 1.259 . S
C652 O660 1.258 . S
N653 Co644 2.057 . S
N653 C654 1.316 . S
N653 C655 1.375 . S
C654 N653 1.316 . S
C654 N656 1.347 . S
C654 H665 0.931 . S
C655 N653 1.375 . S
C655 C657 1.350 . S
C655 H664 0.930 . S
N656 C654 1.347 . S
N656 C657 1.373 . S
C657 C655 1.350 . S
C657 N656 1.373 . S
C657 H671 0.931 . S
C658 O661 1.256 . S
C658 O662 1.255 . S
O659 Co642 2.021 . S
O659 C652 1.259 . S
O660 Co644 2.117 . S
O660 C652 1.258 . S
O661 Co644 2.020 . S
O661 C658 1.256 . S
O662 Co642 2.062 . S
O662 C658 1.255 . S
O663 C643 1.259 . S
O663 Co644 2.021 . S
H664 C655 0.930 . S
H665 C654 0.931 . S
O666 Co642 2.117 . S
O666 C643 1.258 . S
O667 Co642 2.020 . S
O667 C669 1.256 . S
O668 Co644 2.062 . S
O668 C669 1.255 . S
C669 O667 1.256 . S
C669 O668 1.255 . S
H670 C649 0.931 . S
H671 C657 0.931 . S
Co672 N677 2.057 . S
Co672 O689 2.021 . S
Co672 O692 2.062 . S
Co672 O696 2.117 . S
Co672 O697 2.020 . S
C673 O693 1.259 . S
C673 O696 1.258 . S
Co674 N683 2.057 . S
Co674 O690 2.117 . S
Co674 O691 2.020 . S
Co674 O693 2.021 . S
Co674 O698 2.062 . S
C675 N677 1.316 . S
C675 N678 1.347 1_556 S
C675 H680 0.931 . S
C676 N677 1.375 . S
C676 C679 1.350 . S
C676 H681 0.930 . S
N677 Co672 2.057 . S
N677 C675 1.316 . S
N677 C676 1.375 . S
N678 C675 1.347 1_554 S
N678 C679 1.373 1_554 S
C679 C676 1.350 . S
C679 N678 1.373 1_556 S
C679 H700 0.931 1_556 S
H680 C675 0.931 . S
H681 C676 0.930 . S
C682 O689 1.259 . S
C682 O690 1.258 . S
N683 Co674 2.057 . S
N683 C684 1.316 . S
N683 C685 1.375 . S
C684 N683 1.316 . S
C684 N686 1.347 . S
C684 H695 0.931 . S
C685 N683 1.375 . S
C685 C687 1.350 . S
C685 H694 0.930 . S
N686 C684 1.347 . S
N686 C687 1.373 . S
C687 C685 1.350 . S
C687 N686 1.373 . S
C687 H701 0.931 . S
C688 O691 1.256 . S
C688 O692 1.255 . S
O689 Co672 2.021 . S
O689 C682 1.259 . S
O690 Co674 2.117 . S
O690 C682 1.258 . S
O691 Co674 2.020 . S
O691 C688 1.256 . S
O692 Co672 2.062 . S
O692 C688 1.255 . S
O693 C673 1.259 . S
O693 Co674 2.021 . S
H694 C685 0.930 . S
H695 C684 0.931 . S
O696 Co672 2.117 . S
O696 C673 1.258 . S
O697 Co672 2.020 . S
O697 C699 1.256 . S
O698 Co674 2.062 . S
O698 C699 1.255 . S
C699 O697 1.256 . S
C699 O698 1.255 . S
H700 C679 0.931 1_554 S
H701 C687 0.931 . S
Co702 N707 2.057 . S
Co702 O719 2.021 . S
Co702 O722 2.062 . S
Co702 O726 2.117 . S
Co702 O727 2.020 . S
C703 O723 1.259 . S
C703 O726 1.258 . S
Co704 N713 2.057 . S
Co704 O720 2.117 . S
Co704 O721 2.020 . S
Co704 O723 2.021 . S
Co704 O728 2.062 . S
C705 N707 1.316 . S
C705 N708 1.347 . S
C705 H710 0.931 . S
C706 N707 1.375 . S
C706 C709 1.350 . S
C706 H711 0.930 . S
N707 Co702 2.057 . S
N707 C705 1.316 . S
N707 C706 1.375 . S
N708 C705 1.347 . S
N708 C709 1.373 . S
C709 C706 1.350 . S
C709 N708 1.373 . S
C709 H730 0.931 . S
H710 C705 0.931 . S
H711 C706 0.930 . S
C712 O719 1.259 . S
C712 O720 1.258 . S
N713 Co704 2.057 . S
N713 C714 1.316 . S
N713 C715 1.375 . S
C714 N713 1.316 . S
C714 N716 1.347 1_565 S
C714 H725 0.931 . S
C715 N713 1.375 . S
C715 C717 1.350 1_565 S
C715 H724 0.930 . S
N716 C714 1.347 1_545 S
N716 C717 1.373 . S
C717 C715 1.350 1_545 S
C717 N716 1.373 . S
C717 H731 0.931 . S
C718 O721 1.256 . S
C718 O722 1.255 . S
O719 Co702 2.021 . S
O719 C712 1.259 . S
O720 Co704 2.117 . S
O720 C712 1.258 . S
O721 Co704 2.020 . S
O721 C718 1.256 . S
O722 Co702 2.062 . S
O722 C718 1.255 . S
O723 C703 1.259 . S
O723 Co704 2.021 . S
H724 C715 0.930 . S
H725 C714 0.931 . S
O726 Co702 2.117 . S
O726 C703 1.258 . S
O727 Co702 2.020 . S
O727 C729 1.256 . S
O728 Co704 2.062 . S
O728 C729 1.255 . S
C729 O727 1.256 . S
C729 O728 1.255 . S
H730 C709 0.931 . S
H731 C717 0.931 . S
Co732 N737 2.057 . S
Co732 O749 2.021 . S
Co732 O752 2.062 . S
Co732 O756 2.117 . S
Co732 O757 2.020 . S
C733 O753 1.259 . S
C733 O756 1.258 . S
Co734 N743 2.057 . S
Co734 O750 2.117 . S
Co734 O751 2.020 . S
Co734 O753 2.021 . S
Co734 O758 2.062 . S
C735 N737 1.316 . S
C735 N738 1.347 . S
C735 H740 0.931 . S
C736 N737 1.375 . S
C736 C739 1.350 . S
C736 H741 0.930 . S
N737 Co732 2.057 . S
N737 C735 1.316 . S
N737 C736 1.375 . S
N738 C735 1.347 . S
N738 C739 1.373 . S
C739 C736 1.350 . S
C739 N738 1.373 . S
C739 H760 0.931 . S
H740 C735 0.931 . S
H741 C736 0.930 . S
C742 O749 1.259 . S
C742 O750 1.258 . S
N743 Co734 2.057 . S
N743 C744 1.316 . S
N743 C745 1.375 . S
C744 N743 1.316 . S
C744 N746 1.347 . S
C744 H755 0.931 . S
C745 N743 1.375 . S
C745 C747 1.350 . S
C745 H754 0.930 . S
N746 C744 1.347 . S
N746 C747 1.373 . S
C747 C745 1.350 . S
C747 N746 1.373 . S
C747 H761 0.931 . S
C748 O751 1.256 . S
C748 O752 1.255 . S
O749 Co732 2.021 . S
O749 C742 1.259 . S
O750 Co734 2.117 . S
O750 C742 1.258 . S
O751 Co734 2.020 . S
O751 C748 1.256 . S
O752 Co732 2.062 . S
O752 C748 1.255 . S
O753 C733 1.259 . S
O753 Co734 2.021 . S
H754 C745 0.930 . S
H755 C744 0.931 . S
O756 Co732 2.117 . S
O756 C733 1.258 . S
O757 Co732 2.020 . S
O757 C759 1.256 . S
O758 Co734 2.062 . S
O758 C759 1.255 . S
C759 O757 1.256 . S
C759 O758 1.255 . S
H760 C739 0.931 . S
H761 C747 0.931 . S
Co762 N767 2.057 1_455 S
Co762 O779 2.021 . S
Co762 O782 2.062 1_455 S
Co762 O786 2.117 . S
Co762 O787 2.020 1_554 S
C763 O783 1.259 . S
C763 O786 1.258 . S
Co764 N773 2.057 . S
Co764 O780 2.117 . S
Co764 O781 2.020 . S
Co764 O783 2.021 . S
Co764 O788 2.062 1_554 S
C765 N767 1.316 . S
C765 N768 1.347 . S
C765 H770 0.931 . S
C766 N767 1.375 1_556 S
C766 C769 1.350 . S
C766 H771 0.930 . S
N767 Co762 2.057 1_655 S
N767 C765 1.316 . S
N767 C766 1.375 1_554 S
N768 C765 1.347 . S
N768 C769 1.373 1_554 S
C769 C766 1.350 . S
C769 N768 1.373 1_556 S
C769 H790 0.931 . S
H770 C765 0.931 . S
H771 C766 0.930 . S
C772 O779 1.259 . S
C772 O780 1.258 . S
N773 Co764 2.057 . S
N773 C774 1.316 . S
N773 C775 1.375 . S
C774 N773 1.316 . S
C774 N776 1.347 . S
C774 H785 0.931 . S
C775 N773 1.375 . S
C775 C777 1.350 . S
C775 H784 0.930 . S
N776 C774 1.347 . S
N776 C777 1.373 . S
C777 C775 1.350 . S
C777 N776 1.373 . S
C777 H791 0.931 . S
C778 O781 1.256 . S
C778 O782 1.255 1_455 S
O779 Co762 2.021 . S
O779 C772 1.259 . S
O780 Co764 2.117 . S
O780 C772 1.258 . S
O781 Co764 2.020 . S
O781 C778 1.256 . S
O782 Co762 2.062 1_655 S
O782 C778 1.255 1_655 S
O783 C763 1.259 . S
O783 Co764 2.021 . S
H784 C775 0.930 . S
H785 C774 0.931 . S
O786 Co762 2.117 . S
O786 C763 1.258 . S
O787 Co762 2.020 1_556 S
O787 C789 1.256 . S
O788 Co764 2.062 1_556 S
O788 C789 1.255 . S
C789 O787 1.256 . S
C789 O788 1.255 . S
H790 C769 0.931 . S
H791 C777 0.931 . S
C313 C10 2.667 . S
C23 C358 1.494 . S
C36 C382 2.387 . S
N408 C42 2.223 . S
C18 N438 2.641 . S
C472 C31 2.217 . S
C508 C43 1.732 1_554 S
C5 C532 2.738 . S
C56 N326 1.191 1_545 S
C70 N348 2.703 . S
C388 C82 1.490 . S
C412 C96 2.498 . S
C57 C442 1.753 . S
C478 C69 1.763 . S
N498 C83 2.291 . S
C538 C95 2.622 . S
C339 C94 2.620 . S
C568 C108 1.517 . S
C122 N588 2.306 . S
C622 C140 2.182 . S
C55 N528 1.210 . S
N378 C68 2.265 1_545 S
C121 C658 1.510 . S
C682 C153 1.554 . S
C161 C322 2.540 1_556 S
C699 C174 1.280 . S
C186 C373 2.063 . S
C200 N656 2.165 . S
N446 C172 2.436 1_455 S
C583 C192 1.930 . S
C519 C198 1.419 . S
C703 C159 2.501 . S
N318 C211 1.179 . S
C225 N686 2.471 . S
C399 C239 1.193 . S
C251 C643 2.183 . S
C218 C433 1.904 . S
C226 C609 1.459 . S
N506 C238 2.150 . S
C252 C729 2.486 . S
C250 C328 2.399 1_565 S
C264 C579 1.248 . S
C276 N476 2.154 . S
C290 C613 1.918 . S
N716 C213 1.120 . S
N386 C224 2.178 . S
C429 C283 1.161 . S
C343 C303 1.777 . S
C29 C733 2.685 . S
C688 C49 1.492 . S
C772 C3 2.400 . S
C16 N648 2.223 . S
C44 N558 2.640 1_556 S
C592 C4 2.202 . S
C628 C17 1.733 . S
C712 C30 2.717 . S
N746 C147 1.193 . S
C107 N678 2.707 . S
C127 C778 1.500 1_655 S
C652 C135 2.501 . S
C562 C148 1.750 . S
C114 C598 1.754 . S
N618 C120 2.289 1_455 S
C134 C718 2.620 . S
C759 C133 2.621 . S
C448 C75 1.521 1_545 S
N468 C81 2.302 . S
C101 C502 2.186 . S
N708 C146 1.211 . S
C109 N768 2.260 . S
C418 C88 1.506 . S
C352 C62 1.553 . S
C187 C742 2.539 . S
C369 C199 1.249 . S
C763 C160 2.064 1_554 S
C173 N416 2.168 . S
C205 N566 2.443 . S
C166 C463 1.931 . S
C179 C639 1.390 . S
C185 C523 2.501 . S
N738 C302 1.180 . S
C270 N356 2.481 . S
C789 C278 1.188 . S
C296 C403 2.189 . S
C309 C553 1.911 . S
C489 C263 1.454 . S
C277 N626 2.157 . S
C549 C289 2.488 . S
C748 C291 2.400 . S
C459 C231 1.249 . S
C237 N596 2.150 . S
C493 C257 1.911 1_545 S
N536 C304 1.123 . S
C265 N776 2.182 1_556 S
C669 C244 1.158 . S
C673 C212 1.771 . S
