# Generated by pormake.
# Topology ssa, (4,4)-cn, num edge types: 1
# Building blocks:
#     Node 0, Type 0, BuildingBlock: NAWXER_clean_sbu_0, # of connection points: 4
#     Node 1, Type 0, BuildingBlock: NAWXER_clean_sbu_0, # of connection points: 4
#     Node 2, Type 0, BuildingBlock: NAWXER_clean_sbu_0, # of connection points: 4
#     Node 3, Type 0, BuildingBlock: NAWXER_clean_sbu_0, # of connection points: 4
#     Node 4, Type 0, BuildingBlock: NAWXER_clean_sbu_0, # of connection points: 4
#     Node 5, Type 0, BuildingBlock: NAWXER_clean_sbu_0, # of connection points: 4
#     Node 6, Type 1, BuildingBlock: NAWXER_clean_sbu_0, # of connection points: 4
#     Node 7, Type 1, BuildingBlock: NAWXER_clean_sbu_0, # of connection points: 4
#     Node 8, Type 1, BuildingBlock: NAWXER_clean_sbu_0, # of connection points: 4
#     Node 9, Type 1, BuildingBlock: NAWXER_clean_sbu_0, # of connection points: 4
#     Node 10, Type 1, BuildingBlock: NAWXER_clean_sbu_0, # of connection points: 4
#     Node 11, Type 1, BuildingBlock: NAWXER_clean_sbu_0, # of connection points: 4
#     Edge 12, Type (0, 1), BuildingBlock: XUDNAN_clean_linker_2, # of connection points: 2
#     Edge 13, Type (0, 1), BuildingBlock: XUDNAN_clean_linker_2, # of connection points: 2
#     Edge 14, Type (0, 1), BuildingBlock: XUDNAN_clean_linker_2, # of connection points: 2
#     Edge 15, Type (0, 1), BuildingBlock: XUDNAN_clean_linker_2, # of connection points: 2
#     Edge 16, Type (0, 1), BuildingBlock: XUDNAN_clean_linker_2, # of connection points: 2
#     Edge 17, Type (0, 1), BuildingBlock: XUDNAN_clean_linker_2, # of connection points: 2
#     Edge 18, Type (0, 1), BuildingBlock: XUDNAN_clean_linker_2, # of connection points: 2
#     Edge 19, Type (0, 1), BuildingBlock: XUDNAN_clean_linker_2, # of connection points: 2
#     Edge 20, Type (0, 1), BuildingBlock: XUDNAN_clean_linker_2, # of connection points: 2
#     Edge 21, Type (0, 1), BuildingBlock: XUDNAN_clean_linker_2, # of connection points: 2
#     Edge 22, Type (0, 1), BuildingBlock: XUDNAN_clean_linker_2, # of connection points: 2
#     Edge 23, Type (0, 1), BuildingBlock: XUDNAN_clean_linker_2, # of connection points: 2
#     Edge 24, Type (0, 1), BuildingBlock: XUDNAN_clean_linker_2, # of connection points: 2
#     Edge 25, Type (0, 1), BuildingBlock: XUDNAN_clean_linker_2, # of connection points: 2
#     Edge 26, Type (0, 1), BuildingBlock: XUDNAN_clean_linker_2, # of connection points: 2
#     Edge 27, Type (0, 1), BuildingBlock: XUDNAN_clean_linker_2, # of connection points: 2
#     Edge 28, Type (0, 1), BuildingBlock: XUDNAN_clean_linker_2, # of connection points: 2
#     Edge 29, Type (0, 1), BuildingBlock: XUDNAN_clean_linker_2, # of connection points: 2
#     Edge 30, Type (0, 1), BuildingBlock: XUDNAN_clean_linker_2, # of connection points: 2
#     Edge 31, Type (0, 1), BuildingBlock: XUDNAN_clean_linker_2, # of connection points: 2
#     Edge 32, Type (0, 1), BuildingBlock: XUDNAN_clean_linker_2, # of connection points: 2
#     Edge 33, Type (0, 1), BuildingBlock: XUDNAN_clean_linker_2, # of connection points: 2
#     Edge 34, Type (0, 1), BuildingBlock: XUDNAN_clean_linker_2, # of connection points: 2
#     Edge 35, Type (0, 1), BuildingBlock: XUDNAN_clean_linker_2, # of connection points: 2
# Relax obj value: 0.024
# Max RMSD: 0.040
# Mean RMSD: 0.033
data_MOF--net-ssa--node1-NAWXER_clean_sbu_0--node2-NAWXER_clean_sbu_0--edge1-XUDNAN_clean_linker_2
_symmetry_space_group_name_H-M    P1
_symmetry_Int_Tables_number       1
_symmetry_cell_setting            triclinic
loop_
_symmetry_equiv_pos_as_xyz
'x, y, z'
_cell_length_a     43.980226
_cell_length_b     44.095416
_cell_length_c     36.332808
_cell_angle_alpha  89.924373
_cell_angle_beta   90.324883
_cell_angle_gamma 120.07357
loop_
_atom_site_label
_atom_site_type_symbol
_atom_site_fract_x
_atom_site_fract_y
_atom_site_fract_z
_atom_type_partial_charge
C0 C 1.00458 0.52266 0.0754 0.0
C1 C 0.95235 0.40733 0.01575 0.0
O2 O 0.97708 0.49462 0.08484 0.0
Zn3 Zn 0.9756 0.46417 0.04501 0.0
O4 O 0.0198 0.52327 0.04521 0.0
Zn5 Zn 0.0124 0.48784 1.00132 0.0
O6 O 0.99767 0.50424 0.95791 0.0
O7 O 0.95524 0.47719 0.99825 0.0
O8 O 0.97764 0.43188 0.99761 0.0
O9 O 0.9419 0.41422 0.04558 0.0
O10 O 0.02392 0.46332 0.05094 0.0
O11 O 0.05712 0.4891 1.00244 0.0
C12 C 0.96563 0.49165 0.96677 0.0
C13 C 0.05242 0.47317 0.033 0.0
C14 C 0.48033 0.0511 0.53051 0.0
C15 C 0.52646 0.99135 0.45675 0.0
O16 O 0.47423 0.02197 0.5449 0.0
Zn17 Zn 0.4839 0.97971 0.53153 0.0
O18 O 0.49713 0.06152 0.50046 0.0
Zn19 Zn 0.50482 0.02263 0.49441 0.0
O20 O 0.45175 0.98191 0.48297 0.0
O21 O 0.4367 0.94024 0.52462 0.0
O22 O 0.53114 0.02192 0.45199 0.0
O23 O 0.50951 0.97354 0.4849 0.0
O24 O 0.51241 0.98002 0.57273 0.0
O25 O 0.53839 0.02897 0.5406 0.0
C26 C 0.42904 0.95222 0.49639 0.0
C27 C 0.53829 0.01076 0.5682 0.0
C28 C 0.49255 0.48942 0.93616 0.0
C29 C 0.54567 0.59947 1.00493 0.0
O30 O 0.48815 0.51545 0.93095 0.0
Zn31 Zn 0.5174 0.54477 0.97139 0.0
O32 O 0.51105 0.48966 0.96362 0.0
Zn33 Zn 0.54012 0.52371 0.00781 0.0
O34 O 0.51461 0.49984 0.05205 0.0
O35 O 0.48738 0.5216 0.01998 0.0
O36 O 0.55308 0.57697 0.01822 0.0
O37 O 0.52508 0.59163 0.97734 0.0
O38 O 0.56994 0.55603 0.9578 0.0
O39 O 0.58609 0.52976 0.99908 0.0
C40 C 0.48928 0.50578 0.04871 0.0
C41 C 0.59286 0.54881 0.97057 0.0
C42 C 0.0775 0.55024 0.51554 0.0
C43 C 0.98641 0.43907 0.566 0.0
O44 O 0.07932 0.537 0.54604 0.0
Zn45 Zn 0.0325 0.49564 0.54232 0.0
O46 O 0.04958 0.53474 0.49585 0.0
Zn47 Zn 1.00027 0.48752 0.49504 0.0
O48 O 0.96706 0.50404 0.4951 0.0
O49 O 0.99729 0.51603 0.54692 0.0
O50 O 0.97829 0.44553 0.53416 0.0
O51 O 0.01543 0.46085 0.58101 0.0
O52 O 0.04183 0.47075 0.49625 0.0
O53 O 0.00683 0.46736 0.45052 0.0
C54 C 0.97356 0.51719 0.52726 0.0
C55 C 0.03137 0.4628 0.46282 0.0
C56 C 0.48549 0.95601 0.01516 0.0
C57 C 0.45009 0.03715 0.96546 0.0
O58 O 0.49391 0.98253 0.03599 0.0
Zn59 Zn 0.48854 0.0282 0.03676 0.0
O60 O 0.47077 0.95371 0.9842 0.0
Zn61 Zn 0.46714 0.99565 0.98927 0.0
O62 O 0.51983 0.03841 0.9839 0.0
O63 O 0.53673 0.06634 0.03721 0.0
O64 O 0.44424 0.00837 0.95117 0.0
O65 O 0.46526 0.04639 0.99697 0.0
O66 O 0.45989 0.0194 0.08 0.0
O67 O 0.43303 0.98021 0.03593 0.0
C68 C 0.543 0.06352 1.00366 0.0
C69 C 0.4336 0.991 0.06878 0.0
C70 C 0.54335 0.52927 0.56008 0.0
C71 C 0.44342 0.4623 0.47777 0.0
O72 O 0.51099 0.51572 0.56788 0.0
Zn73 Zn 0.49246 0.49753 0.51907 0.0
O74 O 0.55261 0.52827 0.52699 0.0
Zn75 Zn 0.52844 0.50621 0.47528 0.0
O76 O 0.54316 0.54664 0.44316 0.0
O77 O 0.50457 0.54182 0.48466 0.0
O78 O 0.47324 0.47466 0.46167 0.0
O79 O 0.44236 0.46839 0.51181 0.0
O80 O 0.50887 0.46 0.51439 0.0
O81 O 0.54669 0.474 0.46888 0.0
C82 C 0.52367 0.55749 0.4566 0.0
C83 C 0.52957 0.45383 0.4954 0.0
C84 C 0.25848 0.40809 0.30004 0.0
C85 C 0.19917 0.42317 0.19295 0.0
O86 O 0.23465 0.38307 0.28108 0.0
Zn87 Zn 0.22625 0.41294 0.24781 0.0
O88 O 0.26721 0.43992 0.293 0.0
Zn89 Zn 0.25408 0.46935 0.25559 0.0
O90 O 0.23176 0.48874 0.28787 0.0
O91 O 0.20191 0.43107 0.28459 0.0
O92 O 0.22098 0.45187 0.2088 0.0
O93 O 0.19305 0.39405 0.2065 0.0
O94 O 0.27675 0.44107 0.22226 0.0
O95 O 0.29984 0.498 0.23206 0.0
C96 C 0.20573 0.45961 0.29785 0.0
C97 C 0.30202 0.47259 0.21823 0.0
C98 C 0.80287 0.26383 0.72493 0.0
C99 C 0.72059 0.20606 0.82571 0.0
O100 O 0.78136 0.27205 0.73836 0.0
Zn101 Zn 0.75934 0.23414 0.77373 0.0
O102 O 0.80392 0.23719 0.73745 0.0
Zn103 Zn 0.77905 0.19882 0.77979 0.0
O104 O 0.75579 0.15445 0.7535 0.0
O105 O 0.73223 0.18727 0.74122 0.0
O106 O 0.73986 0.19266 0.81859 0.0
O107 O 0.72194 0.23025 0.80541 0.0
O108 O 0.80029 0.24882 0.81385 0.0
O109 O 0.81784 0.20985 0.81372 0.0
C110 C 0.73301 0.15886 0.73636 0.0
C111 C 0.81995 0.23759 0.82691 0.0
C112 C 0.56077 0.83844 0.28725 0.0
C113 C 0.56658 0.7621 0.19469 0.0
O114 O 0.58782 0.84036 0.27263 0.0
Zn115 Zn 0.56398 0.79851 0.243 0.0
O116 O 0.53027 0.81261 0.27931 0.0
Zn117 Zn 0.50884 0.76712 0.24433 0.0
O118 O 0.48715 0.72853 0.27827 0.0
O119 O 0.54493 0.75559 0.28185 0.0
O120 O 0.53502 0.75155 0.20514 0.0
O121 O 0.59207 0.78838 0.21032 0.0
O122 O 0.53531 0.81236 0.20401 0.0
O123 O 0.47875 0.77477 0.21135 0.0
C124 C 0.51475 0.73101 0.29245 0.0
C125 C 0.50316 0.80095 0.19465 0.0
C126 C 0.80886 0.51074 0.78586 0.0
C127 C 0.73225 0.53732 0.70945 0.0
O128 O 0.77919 0.48883 0.77199 0.0
Zn129 Zn 0.76975 0.52211 0.74633 0.0
O130 O 0.82173 0.54349 0.77949 0.0
Zn131 Zn 0.80803 0.57691 0.75 0.0
O132 O 0.80451 0.60515 0.78921 0.0
O133 O 0.76333 0.54934 0.79127 0.0
O134 O 0.76158 0.56419 0.71873 0.0
O135 O 0.72573 0.50696 0.71947 0.0
O136 O 0.80792 0.54156 0.70331 0.0
O137 O 0.84531 0.59771 0.71377 0.0
C138 C 0.77759 0.58035 0.80466 0.0
C139 C 0.83521 0.57041 0.69418 0.0
C140 C 0.26447 0.79967 0.22557 0.0
C141 C 0.20919 0.70596 0.31714 0.0
O142 O 0.23785 0.79803 0.24159 0.0
Zn143 Zn 0.19866 0.76632 0.27994 0.0
O144 O 0.27207 0.77573 0.23117 0.0
Zn145 Zn 0.23565 0.74917 0.26781 0.0
O146 O 0.18757 0.72254 0.2367 0.0
O147 O 0.15423 0.74434 0.25317 0.0
O148 O 0.23473 0.71094 0.29666 0.0
O149 O 0.19456 0.7245 0.31239 0.0
O150 O 0.20882 0.80094 0.31849 0.0
O151 O 0.25039 0.78722 0.31129 0.0
C152 C 0.15861 0.72279 0.2339 0.0
C153 C 0.23839 0.80456 0.32809 0.0
C154 C 0.44721 0.29282 0.77413 0.0
C155 C 0.43713 0.19968 0.69354 0.0
O156 O 0.47596 0.29209 0.772 0.0
Zn157 Zn 0.49513 0.26215 0.74398 0.0
O158 O 0.42035 0.27048 0.75627 0.0
Zn159 Zn 0.441 0.24526 0.73392 0.0
O160 O 0.45066 0.21968 0.77925 0.0
O161 O 0.50814 0.24143 0.78355 0.0
O162 O 0.41301 0.20665 0.70074 0.0
O163 O 0.46773 0.21797 0.70798 0.0
O164 O 0.53111 0.29648 0.71103 0.0
O165 O 0.47705 0.28228 0.69557 0.0
C166 C 0.47725 0.2204 0.79481 0.0
C167 C 0.51009 0.29951 0.68916 0.0
H168 H 0.04422 0.42972 0.09041 0.0
H169 H 0.12061 0.49867 0.01035 0.0
H170 H 0.16512 0.48691 0.03838 0.0
H171 H 0.10089 0.45538 0.16599 0.0
H172 H 0.08161 0.41231 0.18611 0.0
H173 H 0.05534 0.42366 0.15748 0.0
H174 H 0.03958 0.3702 0.11555 0.0
H175 H 0.06606 0.35879 0.14399 0.0
H176 H 0.07427 0.36543 0.09527 0.0
H177 H 0.20272 0.47321 0.07974 0.0
H178 H 0.23042 0.45842 0.13081 0.0
H179 H 0.12881 0.39592 0.18183 0.0
C180 C 0.07019 0.4421 0.07842 0.0
C181 C 0.07898 0.46521 0.04818 0.0
C182 C 0.11327 0.48082 0.03342 0.0
C183 C 0.13866 0.4742 0.0491 0.0
C184 C 0.12913 0.45151 0.07913 0.0
C185 C 0.09563 0.43552 0.09347 0.0
C186 C 0.09251 0.41379 0.12709 0.0
C187 C 0.08198 0.4271 0.16117 0.0
C188 C 0.06657 0.37473 0.12004 0.0
C189 C 0.12984 0.42087 0.13025 0.0
C190 C 0.15051 0.44252 0.10215 0.0
C191 C 0.18663 0.45556 0.10127 0.0
C192 C 0.20212 0.44696 0.13026 0.0
C193 C 0.18147 0.4252 0.1594 0.0
C194 C 0.14482 0.41139 0.15899 0.0
H195 H 0.5803 0.08 0.58487 0.0
H196 H 0.56234 0.97662 0.61252 0.0
H197 H 0.61209 0.00331 0.65684 0.0
H198 H 0.67467 0.12717 0.59164 0.0
H199 H 0.67681 0.16527 0.6125 0.0
H200 H 0.64101 0.13805 0.58192 0.0
H201 H 0.59626 0.12972 0.63265 0.0
H202 H 0.63191 0.15705 0.66331 0.0
H203 H 0.59949 0.11337 0.67713 0.0
H204 H 0.66513 0.04219 0.69742 0.0
H205 H 0.71265 0.08889 0.73499 0.0
H206 H 0.69278 0.166 0.68307 0.0
C207 C 0.58703 0.06298 0.60002 0.0
C208 C 0.56777 0.02627 0.59499 0.0
C209 C 0.57685 0.00482 0.61592 0.0
C210 C 0.60513 0.01977 0.64102 0.0
C211 C 0.62366 0.05614 0.64525 0.0
C212 C 0.61462 0.07738 0.62564 0.0
C213 C 0.63732 0.11547 0.63661 0.0
C214 C 0.65872 0.1378 0.6037 0.0
C215 C 0.61491 0.12973 0.65343 0.0
C216 C 0.6608 0.11249 0.66529 0.0
C217 C 0.65284 0.07814 0.66964 0.0
C218 C 0.67144 0.06914 0.69432 0.0
C219 C 0.6985 0.09585 0.71543 0.0
C220 C 0.70638 0.13108 0.71209 0.0
C221 C 0.68731 0.13932 0.68644 0.0
H222 H 0.50809 0.62989 0.02625 0.0
H223 H 0.61184 0.64157 0.03051 0.0
H224 H 0.631 0.69028 0.07499 0.0
H225 H 0.53526 0.72498 0.04257 0.0
H226 H 0.49761 0.71267 0.07138 0.0
H227 H 0.49476 0.68476 0.03372 0.0
H228 H 0.47418 0.63307 0.07896 0.0
H229 H 0.47778 0.66059 0.1171 0.0
H230 H 0.50131 0.63686 0.11808 0.0
H231 H 0.63656 0.73225 0.12455 0.0
H232 H 0.62771 0.76355 0.17619 0.0
H233 H 0.51896 0.72103 0.14255 0.0
C234 C 0.53526 0.64392 0.03529 0.0
C235 C 0.55887 0.63287 0.02445 0.0
C236 C 0.59372 0.65036 0.03814 0.0
C237 C 0.60478 0.67797 0.06335 0.0
C238 C 0.58048 0.68741 0.0748 0.0
C239 C 0.54645 0.67102 0.0611 0.0
C240 C 0.52416 0.68266 0.08154 0.0
C241 C 0.51226 0.70246 0.05576 0.0
C242 C 0.49252 0.65144 0.10004 0.0
C243 C 0.55055 0.70707 0.10968 0.0
C244 C 0.5831 0.71015 0.10483 0.0
C245 C 0.61129 0.73037 0.12838 0.0
C246 C 0.60602 0.74793 0.15767 0.0
C247 C 0.57264 0.74448 0.16346 0.0
C248 C 0.54474 0.72396 0.13895 0.0
H249 H 0.98269 0.54944 0.59423 0.0
H250 H 0.91559 0.51603 0.4972 0.0
H251 H 0.87626 0.53327 0.52718 0.0
H252 H 0.91621 0.51722 0.65863 0.0
H253 H 0.93832 0.55277 0.69099 0.0
H254 H 0.96354 0.54216 0.66025 0.0
H255 H 0.99583 0.606 0.63603 0.0
H256 H 0.9707 0.61687 0.66683 0.0
H257 H 0.97064 0.62483 0.61816 0.0
H258 H 0.83981 0.54546 0.57092 0.0
H259 H 0.81058 0.55469 0.62429 0.0
H260 H 0.9026 0.58339 0.69169 0.0
C261 C 0.96016 0.54646 0.5789 0.0
C262 C 0.9523 0.53142 0.54327 0.0
C263 C 0.92231 0.52765 0.5244 0.0
C264 C 0.89981 0.5374 0.54121 0.0
C265 C 0.9079 0.55135 0.57669 0.0
C266 C 0.9376 0.55629 0.59516 0.0
C267 C 0.93908 0.56957 0.63399 0.0
C268 C 0.93928 0.54389 0.66263 0.0
C269 C 0.97096 0.60652 0.63904 0.0
C270 C 0.905 0.57025 0.63492 0.0
C271 C 0.88746 0.55976 0.60151 0.0
C272 C 0.85372 0.55468 0.59684 0.0
C273 C 0.83733 0.55997 0.62718 0.0
C274 C 0.85489 0.57074 0.66148 0.0
C275 C 0.88932 0.57651 0.66524 0.0
H276 H 0.40536 0.92066 0.07423 0.0
H277 H 0.40195 0.00875 0.12259 0.0
H278 H 0.35726 0.96853 0.16709 0.0
H279 H 0.31418 0.85525 0.08405 0.0
H280 H 0.323 0.8208 0.0965 0.0
H281 H 0.35315 0.85611 0.06738 0.0
H282 H 0.40407 0.86964 0.11262 0.0
H283 H 0.37418 0.83439 0.14197 0.0
H284 H 0.40004 0.87807 0.16036 0.0
H285 H 0.3121 0.9189 0.20425 0.0
H286 H 0.27285 0.86403 0.23655 0.0
H287 H 0.30927 0.8082 0.16791 0.0
C288 C 0.39475 0.93133 0.0939 0.0
C289 C 0.40629 0.96757 0.09469 0.0
C290 C 0.39296 0.98097 0.12146 0.0
C291 C 0.36767 0.95835 0.14671 0.0
C292 C 0.35683 0.9227 0.14521 0.0
C293 C 0.3703 0.90931 0.11988 0.0
C294 C 0.35575 0.87033 0.12555 0.0
C295 C 0.3353 0.84939 0.09133 0.0
C296 C 0.38527 0.86267 0.13574 0.0
C297 C 0.33143 0.86369 0.15775 0.0
C298 C 0.33229 0.89427 0.16828 0.0
C299 C 0.31135 0.89486 0.19644 0.0
C300 C 0.289 0.86345 0.21446 0.0
C301 C 0.28796 0.83181 0.20471 0.0
C302 C 0.30966 0.83201 0.17607 0.0
H303 H 0.4807 0.38902 0.51576 0.0
H304 H 0.59302 0.4591 0.51077 0.0
H305 H 0.60196 0.42199 0.55588 0.0
H306 H 0.47585 0.38076 0.60609 0.0
H307 H 0.44194 0.33536 0.60852 0.0
H308 H 0.44469 0.36091 0.56888 0.0
H309 H 0.44935 0.31667 0.52578 0.0
H310 H 0.44543 0.29013 0.56522 0.0
H311 H 0.4823 0.30464 0.53468 0.0
H312 H 0.59679 0.3843 0.61213 0.0
H313 H 0.57841 0.34646 0.66771 0.0
H314 H 0.46939 0.30283 0.63472 0.0
C315 C 0.50726 0.39532 0.52257 0.0
C316 C 0.5362 0.42629 0.50926 0.0
C317 C 0.5706 0.43476 0.51978 0.0
C318 C 0.57583 0.41403 0.54575 0.0
C319 C 0.54638 0.38487 0.56045 0.0
C320 C 0.51277 0.37507 0.54837 0.0
C321 C 0.48514 0.34558 0.57121 0.0
C322 C 0.4605 0.35633 0.58975 0.0
C323 C 0.46434 0.31227 0.54783 0.0
C324 C 0.50819 0.34125 0.59914 0.0
C325 C 0.54346 0.36372 0.59254 0.0
C326 C 0.56925 0.36602 0.61694 0.0
C327 C 0.5586 0.3446 0.64855 0.0
C328 C 0.52247 0.32161 0.65563 0.0
C329 C 0.49725 0.31993 0.63022 0.0
H330 H 0.49548 0.92234 0.43928 0.0
H331 H 0.58451 0.02389 0.41233 0.0
H332 H 0.60491 0.99546 0.36762 0.0
H333 H 0.53807 0.8713 0.43205 0.0
H334 H 0.50066 0.83437 0.41099 0.0
H335 H 0.49428 0.86264 0.44181 0.0
H336 H 0.4591 0.87365 0.39129 0.0
H337 H 0.46517 0.84527 0.36038 0.0
H338 H 0.47875 0.88959 0.34686 0.0
H339 H 0.61609 0.95489 0.32725 0.0
H340 H 0.61361 0.90702 0.2894 0.0
H341 H 0.51465 0.83327 0.34023 0.0
C342 C 0.51944 0.93857 0.42416 0.0
C343 C 0.53876 0.97521 0.42947 0.0
C344 C 0.56947 0.99573 0.40863 0.0
C345 C 0.58127 0.9798 0.38338 0.0
C346 C 0.56165 0.94348 0.37895 0.0
C347 C 0.53107 0.92325 0.3984 0.0
C348 C 0.51359 0.88509 0.38724 0.0
C349 C 0.51155 0.862 0.41998 0.0
C350 C 0.477 0.87269 0.37044 0.0
C351 C 0.5392 0.88685 0.35857 0.0
C352 C 0.56703 0.92062 0.35451 0.0
C353 C 0.59431 0.92841 0.33007 0.0
C354 C 0.59278 0.90106 0.30885 0.0
C355 C 0.56388 0.86654 0.31183 0.0
C356 C 0.53695 0.85946 0.33721 0.0
H357 H 0.6282 0.51432 0.95448 0.0
H358 H 0.63273 0.61426 0.94264 0.0
H359 H 0.68727 0.63678 0.90632 0.0
H360 H 0.72438 0.54688 0.95594 0.0
H361 H 0.71947 0.51088 0.92806 0.0
H362 H 0.68472 0.50483 0.95864 0.0
H363 H 0.64065 0.48318 0.90393 0.0
H364 H 0.67515 0.48902 0.87335 0.0
H365 H 0.65029 0.51052 0.8638 0.0
H366 H 0.73846 0.64672 0.86696 0.0
H367 H 0.77749 0.64087 0.82216 0.0
H368 H 0.73688 0.5332 0.85655 0.0
C369 C 0.64137 0.54125 0.94512 0.0
C370 C 0.62686 0.56286 0.95178 0.0
C371 C 0.64381 0.59751 0.93797 0.0
C372 C 0.67486 0.61055 0.91756 0.0
C373 C 0.68831 0.58843 0.91084 0.0
C374 C 0.67189 0.55437 0.92391 0.0
C375 C 0.68877 0.53444 0.90869 0.0
C376 C 0.70532 0.52363 0.93969 0.0
C377 C 0.66214 0.50242 0.8861 0.0
C378 C 0.71668 0.5623 0.8844 0.0
C379 C 0.71664 0.59355 0.88667 0.0
C380 C 0.73901 0.6225 0.86524 0.0
C381 C 0.7612 0.61903 0.84001 0.0
C382 C 0.76022 0.58665 0.83601 0.0
C383 C 0.73831 0.55835 0.8592 0.0
H384 H 0.07759 0.60248 0.47766 0.0
H385 H 0.14475 0.56183 0.51161 0.0
H386 H 0.1887 0.59913 0.46486 0.0
H387 H 0.08865 0.59848 0.38618 0.0
H388 H 0.08773 0.63763 0.37388 0.0
H389 H 0.06538 0.61365 0.41446 0.0
H390 H 0.10069 0.669 0.45506 0.0
H391 H 0.12229 0.69362 0.41438 0.0
H392 H 0.148 0.69289 0.45282 0.0
H393 H 0.22108 0.63547 0.40694 0.0
H394 H 0.24102 0.67181 0.35012 0.0
H395 H 0.14937 0.68435 0.35534 0.0
C396 C 0.10234 0.60275 0.47646 0.0
C397 C 0.10826 0.58001 0.49858 0.0
C398 C 0.14033 0.57999 0.49556 0.0
C399 C 0.16515 0.60071 0.46873 0.0
C400 C 0.15742 0.62135 0.44564 0.0
C401 C 0.12701 0.62297 0.44998 0.0
C402 C 0.1228 0.64442 0.42021 0.0
C403 C 0.08916 0.6222 0.39735 0.0
C404 C 0.12351 0.67692 0.4366 0.0
C405 C 0.15524 0.6543 0.39794 0.0
C406 C 0.17516 0.64102 0.41272 0.0
C407 C 0.20583 0.64634 0.3955 0.0
C408 C 0.21678 0.66666 0.36307 0.0
C409 C 0.19688 0.68107 0.34835 0.0
C410 C 0.1655 0.67409 0.36592 0.0
H411 H 0.45211 0.04613 0.8904 0.0
H412 H 0.43892 0.08787 0.99331 0.0
H413 H 0.44229 0.13829 0.96016 0.0
H414 H 0.51541 0.12576 0.85289 0.0
H415 H 0.49934 0.11573 0.8063 0.0
H416 H 0.49152 0.08086 0.83754 0.0
H417 H 0.42449 0.05203 0.82456 0.0
H418 H 0.43269 0.08725 0.79357 0.0
H419 H 0.40293 0.07718 0.83152 0.0
H420 H 0.45227 0.18667 0.91729 0.0
H421 H 0.46563 0.22879 0.86619 0.0
H422 H 0.47436 0.15726 0.79122 0.0
C423 C 0.44867 0.06525 0.90569 0.0
C424 C 0.44472 0.06284 0.94438 0.0
C425 C 0.44157 0.08902 0.96364 0.0
C426 C 0.44356 0.11782 0.94507 0.0
C427 C 0.4488 0.12016 0.90718 0.0
C428 C 0.45095 0.09445 0.88754 0.0
C429 C 0.45866 0.10448 0.84726 0.0
C430 C 0.49328 0.10683 0.83533 0.0
C431 C 0.42785 0.07871 0.82279 0.0
C432 C 0.46171 0.14031 0.84771 0.0
C433 C 0.45547 0.14862 0.88247 0.0
C434 C 0.45706 0.18042 0.88991 0.0
C435 C 0.46485 0.20422 0.86093 0.0
C436 C 0.47141 0.19623 0.82529 0.0
C437 C 0.46985 0.16396 0.81854 0.0
H438 H 0.43656 0.46795 0.4042 0.0
H439 H 0.37639 0.41613 0.50169 0.0
H440 H 0.32167 0.38891 0.46422 0.0
H441 H 0.37754 0.49152 0.37033 0.0
H442 H 0.38493 0.48646 0.32255 0.0
H443 H 0.4191 0.49685 0.35592 0.0
H444 H 0.42242 0.44223 0.33548 0.0
H445 H 0.38799 0.43159 0.30214 0.0
H446 H 0.38326 0.39966 0.33607 0.0
H447 H 0.27282 0.37078 0.41576 0.0
H448 H 0.23519 0.36913 0.36347 0.0
H449 H 0.3284 0.43631 0.30057 0.0
C450 C 0.41201 0.45013 0.41756 0.0
C451 C 0.41073 0.44366 0.45571 0.0
C452 C 0.37793 0.42117 0.47238 0.0
C453 C 0.34679 0.40548 0.45128 0.0
C454 C 0.34896 0.41281 0.41367 0.0
C455 C 0.38084 0.43491 0.39714 0.0
C456 C 0.37613 0.44217 0.35749 0.0
C457 C 0.39024 0.48157 0.35124 0.0
C458 C 0.39348 0.42806 0.33126 0.0
C459 C 0.33658 0.42126 0.35432 0.0
C460 C 0.32119 0.40377 0.3866 0.0
C461 C 0.28466 0.38403 0.39025 0.0
C462 C 0.26349 0.38301 0.36047 0.0
C463 C 0.27912 0.40214 0.32806 0.0
C464 C 0.31596 0.4209 0.32487 0.0
H465 H 0.88507 0.37391 0.99171 0.0
H466 H 0.97897 0.36572 0.99707 0.0
H467 H 0.95211 0.31543 0.95387 0.0
H468 H 0.81895 0.27817 0.97627 0.0
H469 H 0.79465 0.289 0.94392 0.0
H470 H 0.81771 0.31817 0.98172 0.0
H471 H 0.85075 0.3689 0.93553 0.0
H472 H 0.82863 0.34002 0.89747 0.0
H473 H 0.87596 0.36434 0.89924 0.0
H474 H 0.91766 0.27087 0.90397 0.0
H475 H 0.87953 0.23747 0.85109 0.0
H476 H 0.81091 0.27898 0.87557 0.0
C477 C 0.89906 0.3602 0.98524 0.0
C478 C 0.93338 0.3725 0.99864 0.0
C479 C 0.95211 0.35567 0.98788 0.0
C480 C 0.93712 0.32726 0.96328 0.0
C481 C 0.90361 0.31647 0.9493 0.0
C482 C 0.88478 0.33241 0.96003 0.0
C483 C 0.85172 0.31962 0.93715 0.0
C484 C 0.81881 0.30007 0.9612 0.0
C485 C 0.85181 0.35002 0.9161 0.0
C486 C 0.85536 0.29478 0.91128 0.0
C487 C 0.88499 0.29265 0.91909 0.0
C488 C 0.89418 0.27208 0.89785 0.0
C489 C 0.8725 0.25329 0.86786 0.0
C490 C 0.84253 0.25591 0.85904 0.0
C491 C 0.83387 0.2767 0.88137 0.0
H492 H 0.97095 0.53787 0.91173 0.0
H493 H 0.8994 0.43717 0.96075 0.0
H494 H 0.85313 0.42911 0.91678 0.0
H495 H 0.90639 0.56369 0.89913 0.0
H496 H 0.92378 0.58583 0.85605 0.0
H497 H 0.95252 0.5826 0.8893 0.0
H498 H 0.97227 0.55359 0.84016 0.0
H499 H 0.94341 0.5566 0.80679 0.0
H500 H 0.93969 0.51478 0.81654 0.0
H501 H 0.81398 0.43187 0.86833 0.0
H502 H 0.78306 0.44808 0.82218 0.0
H503 H 0.87823 0.54823 0.80644 0.0
C504 C 0.94562 0.51408 0.9129 0.0
C505 C 0.93876 0.48818 0.93967 0.0
C506 C 0.90515 0.45753 0.94069 0.0
C507 C 0.87873 0.45254 0.91564 0.0
C508 C 0.88606 0.47859 0.88981 0.0
C509 C 0.91851 0.50895 0.88843 0.0
C510 C 0.91849 0.53379 0.85949 0.0
C511 C 0.92571 0.56852 0.87705 0.0
C512 C 0.94505 0.54005 0.82893 0.0
C513 C 0.88097 0.51278 0.84528 0.0
C514 C 0.86292 0.48076 0.8627 0.0
C515 C 0.82783 0.45689 0.85444 0.0
C516 C 0.81049 0.46624 0.82811 0.0
C517 C 0.82812 0.4994 0.81077 0.0
C518 C 0.86396 0.5227 0.81928 0.0
H519 H 0.39728 0.8848 0.47138 0.0
H520 H 0.38492 0.97607 0.47794 0.0
H521 H 0.33026 0.94549 0.4408 0.0
H522 H 0.37422 0.86876 0.37849 0.0
H523 H 0.35216 0.82166 0.38169 0.0
H524 H 0.38661 0.84821 0.41382 0.0
H525 H 0.34435 0.81734 0.46826 0.0
H526 H 0.30973 0.79054 0.43624 0.0
H527 H 0.30295 0.81647 0.46999 0.0
H528 H 0.27882 0.90604 0.39955 0.0
H529 H 0.23818 0.86326 0.35344 0.0
H530 H 0.28732 0.80008 0.37024 0.0
C531 C 0.38234 0.89777 0.46592 0.0
C532 C 0.39454 0.93232 0.47816 0.0
C533 C 0.37542 0.9493 0.4692 0.0
C534 C 0.3444 0.93213 0.44822 0.0
C535 C 0.33324 0.8982 0.4359 0.0
C536 C 0.35181 0.88131 0.44418 0.0
C537 C 0.33671 0.84668 0.424 0.0
C538 C 0.36405 0.84633 0.39796 0.0
C539 C 0.32259 0.81594 0.45126 0.0
C540 C 0.30709 0.84693 0.40277 0.0
C541 C 0.30501 0.87649 0.41049 0.0
C542 C 0.28009 0.88269 0.39343 0.0
C543 C 0.25708 0.85827 0.36737 0.0
C544 C 0.2597 0.8285 0.3582 0.0
C545 C 0.28476 0.8227 0.37659 0.0
H546 H 0.51753 0.44499 0.92412 0.0
H547 H 0.43645 0.46725 0.88845 0.0
H548 H 0.414 0.41748 0.84452 0.0
H549 H 0.53587 0.42494 0.83489 0.0
H550 H 0.54443 0.39128 0.85112 0.0
H551 H 0.55238 0.42713 0.88093 0.0
H552 H 0.51151 0.38307 0.93008 0.0
H553 H 0.50338 0.34706 0.90039 0.0
H554 H 0.46708 0.35083 0.91768 0.0
H555 H 0.40037 0.36424 0.80483 0.0
H556 H 0.39978 0.31595 0.76947 0.0
H557 H 0.49225 0.33183 0.82942 0.0
C558 C 0.49479 0.4392 0.90737 0.0
C559 C 0.47841 0.45968 0.90997 0.0
C560 C 0.44926 0.45176 0.88696 0.0
C561 C 0.43631 0.42351 0.86205 0.0
C562 C 0.45315 0.40384 0.86021 0.0
C563 C 0.48201 0.41165 0.88204 0.0
C564 C 0.49669 0.38788 0.8736 0.0
C565 C 0.53458 0.40908 0.85928 0.0
C566 C 0.49452 0.36591 0.90745 0.0
C567 C 0.47154 0.3653 0.84362 0.0
C568 C 0.44634 0.37454 0.83651 0.0
C569 C 0.42008 0.35692 0.81012 0.0
C570 C 0.41987 0.32946 0.79027 0.0
C571 C 0.44604 0.32024 0.79657 0.0
C572 C 0.47201 0.33839 0.82377 0.0
H573 H 0.06791 0.49858 0.4021 0.0
H574 H 0.04377 0.40879 0.4705 0.0
H575 H 0.08622 0.39903 0.43542 0.0
H576 H 0.08326 0.46571 0.31533 0.0
H577 H 0.11975 0.50773 0.30258 0.0
H578 H 0.08495 0.50543 0.33054 0.0
H579 H 0.13072 0.54417 0.37988 0.0
H580 H 0.16564 0.54615 0.35241 0.0
H581 H 0.1598 0.53052 0.39915 0.0
H582 H 0.13142 0.39967 0.3947 0.0
H583 H 0.17738 0.40993 0.35 0.0
H584 H 0.17673 0.50232 0.30971 0.0
C585 C 0.07084 0.47622 0.40874 0.0
C586 C 0.05184 0.45357 0.43806 0.0
C587 C 0.05748 0.42569 0.44745 0.0
C588 C 0.08166 0.42017 0.42786 0.0
C589 C 0.10053 0.44331 0.39956 0.0
C590 C 0.09556 0.47085 0.38996 0.0
C591 C 0.12102 0.49311 0.35995 0.0
C592 C 0.10105 0.49297 0.32503 0.0
C593 C 0.14575 0.5307 0.37368 0.0
C594 C 0.14081 0.47348 0.35391 0.0
C595 C 0.1283 0.44482 0.3771 0.0
C596 C 0.14146 0.42201 0.37645 0.0
C597 C 0.16758 0.4281 0.35094 0.0
C598 C 0.1807 0.45696 0.3265 0.0
C599 C 0.16752 0.48034 0.3284 0.0
H600 H 0.54596 0.09136 0.9367 0.0
H601 H 0.61077 0.09785 0.03003 0.0
H602 H 0.66384 0.14169 0.9965 0.0
H603 H 0.59957 0.0957 0.86666 0.0
H604 H 0.59129 0.1235 0.83683 0.0
H605 H 0.55873 0.09586 0.86969 0.0
H606 H 0.55901 0.1502 0.89952 0.0
H607 H 0.58969 0.17657 0.86422 0.0
H608 H 0.6004 0.18767 0.91211 0.0
H609 H 0.70948 0.17777 0.94949 0.0
H610 H 0.74458 0.20557 0.89384 0.0
H611 H 0.6496 0.1791 0.83269 0.0
C612 C 0.57137 0.1023 0.95014 0.0
C613 C 0.57466 0.09111 0.9856 0.0
C614 C 0.60799 0.1062 1.00279 0.0
C615 C 0.6381 0.1311 0.984 0.0
C616 C 0.634 0.14122 0.9487 0.0
C617 C 0.60137 0.12774 0.93226 0.0
C618 C 0.60401 0.14218 0.89383 0.0
C619 C 0.58744 0.11254 0.86508 0.0
C620 C 0.58729 0.16554 0.89228 0.0
C621 C 0.6435 0.16382 0.88995 0.0
C622 C 0.66029 0.16344 0.92222 0.0
C623 C 0.69667 0.17896 0.92446 0.0
C624 C 0.71634 0.1946 0.89277 0.0
C625 C 0.69963 0.19484 0.85947 0.0
C626 C 0.66288 0.18005 0.85822 0.0
H627 H 0.56465 0.60333 0.40155 0.0
H628 H 0.47301 0.57445 0.46923 0.0
H629 H 0.46198 0.61645 0.43563 0.0
H630 H 0.59244 0.69708 0.39586 0.0
H631 H 0.60696 0.70101 0.34891 0.0
H632 H 0.60863 0.66938 0.37905 0.0
H633 H 0.5712 0.62003 0.33237 0.0
H634 H 0.56923 0.65145 0.30221 0.0
H635 H 0.52923 0.61374 0.31757 0.0
H636 H 0.45731 0.65726 0.39152 0.0
H637 H 0.463 0.69929 0.34328 0.0
H638 H 0.55972 0.70579 0.30633 0.0
C639 C 0.54254 0.60619 0.40959 0.0
C640 C 0.51975 0.5855 0.43816 0.0
C641 C 0.49104 0.59003 0.44769 0.0
C642 C 0.48442 0.61378 0.42865 0.0
C643 C 0.50698 0.63334 0.40037 0.0
C644 C 0.5358 0.63031 0.39116 0.0
C645 C 0.55578 0.65462 0.35949 0.0
C646 C 0.59317 0.68216 0.37156 0.0
C647 C 0.55638 0.6337 0.32593 0.0
C648 C 0.53335 0.67128 0.35208 0.0
C649 C 0.50516 0.65832 0.37583 0.0
C650 C 0.47956 0.66803 0.37312 0.0
C651 C 0.48292 0.69178 0.34555 0.0
C652 C 0.51194 0.70604 0.32137 0.0
C653 C 0.53757 0.69575 0.32487 0.0
H654 H 0.4866 0.06713 0.60315 0.0
H655 H 0.4467 0.08291 0.49994 0.0
H656 H 0.42416 0.11703 0.53252 0.0
H657 H 0.41861 0.06175 0.6639 0.0
H658 H 0.44929 0.08674 0.70001 0.0
H659 H 0.45875 0.06051 0.6693 0.0
H660 H 0.51817 0.11509 0.65202 0.0
H661 H 0.50907 0.14128 0.68302 0.0
H662 H 0.51863 0.15386 0.63541 0.0
H663 H 0.40631 0.14963 0.57692 0.0
H664 H 0.40384 0.1866 0.6269 0.0
H665 H 0.46037 0.15346 0.6992 0.0
C666 C 0.47274 0.07749 0.58759 0.0
C667 C 0.46785 0.07223 0.54929 0.0
C668 C 0.45051 0.08678 0.52941 0.0
C669 C 0.43741 0.10585 0.54771 0.0
C670 C 0.4425 0.1105 0.58568 0.0
C671 C 0.46042 0.09733 0.60523 0.0
C672 C 0.46584 0.1091 0.64497 0.0
C673 C 0.44699 0.07764 0.67108 0.0
C674 C 0.50525 0.13115 0.65439 0.0
C675 C 0.44836 0.13115 0.64476 0.0
C676 C 0.43424 0.13096 0.6106 0.0
C677 C 0.4172 0.14993 0.60379 0.0
C678 C 0.41564 0.17058 0.63232 0.0
C679 C 0.43175 0.17254 0.66669 0.0
C680 C 0.44765 0.15209 0.67312 0.0
H681 H 0.44437 0.5312 0.05853 0.0
H682 H 0.4762 0.4613 0.10703 0.0
H683 H 0.43407 0.44827 0.1577 0.0
H684 H 0.43451 0.56673 0.1442 0.0
H685 H 0.39677 0.56923 0.12883 0.0
H686 H 0.42908 0.57296 0.09609 0.0
H687 H 0.38114 0.52186 0.05787 0.0
H688 H 0.3484 0.51805 0.09001 0.0
H689 H 0.35292 0.48049 0.07995 0.0
H690 H 0.38626 0.44019 0.20067 0.0
H691 H 0.33664 0.43827 0.23404 0.0
H692 H 0.33828 0.51651 0.16049 0.0
C693 C 0.44239 0.513 0.0797 0.0
C694 C 0.46341 0.497 0.07866 0.0
C695 C 0.46033 0.47375 0.10719 0.0
C696 C 0.43653 0.46627 0.1361 0.0
C697 C 0.41638 0.48263 0.13633 0.0
C698 C 0.41914 0.50562 0.10898 0.0
C699 C 0.39436 0.51961 0.1157 0.0
C700 C 0.41492 0.55951 0.12159 0.0
C701 C 0.36762 0.50938 0.08401 0.0
C702 C 0.37678 0.50051 0.1509 0.0
C703 C 0.38988 0.47924 0.16219 0.0
C704 C 0.37624 0.45715 0.19245 0.0
C705 C 0.34814 0.4563 0.21128 0.0
C706 C 0.33429 0.47781 0.20029 0.0
C707 C 0.34913 0.5006 0.17004 0.0
H708 H 0.95873 0.43658 0.63357 0.0
H709 H 0.95415 0.37166 0.54191 0.0
H710 H 0.90647 0.31938 0.57282 0.0
H711 H 0.93855 0.37326 0.70714 0.0
H712 H 0.91125 0.38617 0.73154 0.0
H713 H 0.94696 0.4176 0.70367 0.0
H714 H 0.90353 0.42999 0.66727 0.0
H715 H 0.86763 0.39832 0.69474 0.0
H716 H 0.86572 0.3942 0.64532 0.0
H717 H 0.8605 0.27427 0.61451 0.0
H718 H 0.81633 0.23981 0.662 0.0
H719 H 0.84592 0.33507 0.7231 0.0
C720 C 0.9481 0.41115 0.62052 0.0
C721 C 0.9605 0.40768 0.58593 0.0
C722 C 0.94524 0.37447 0.56876 0.0
C723 C 0.91818 0.34477 0.58605 0.0
C724 C 0.90616 0.34904 0.62002 0.0
C725 C 0.92036 0.38144 0.63692 0.0
C726 C 0.90106 0.37924 0.67218 0.0
C727 C 0.92594 0.38968 0.70561 0.0
C728 C 0.88344 0.40178 0.66971 0.0
C729 C 0.874 0.34049 0.67267 0.0
C730 C 0.87773 0.32349 0.64256 0.0
C731 C 0.85702 0.28734 0.63793 0.0
C732 C 0.83204 0.26802 0.66493 0.0
C733 C 0.82742 0.28497 0.69561 0.0
C734 C 0.84843 0.32169 0.69934 0.0
H735 H 0.53426 0.95848 0.06339 0.0
H736 H 0.4388 0.88633 1.00499 0.0
H737 H 0.43343 0.83758 0.04358 0.0
H738 H 0.56727 0.89591 0.0765 0.0
H739 H 0.58499 0.91368 0.12131 0.0
H740 H 0.58297 0.94151 0.08617 0.0
H741 H 0.54793 0.95845 0.13055 0.0
H742 H 0.54908 0.9301 0.1655 0.0
H743 H 0.50752 0.92446 0.1501 0.0
H744 H 0.43411 0.79882 0.09509 0.0
H745 H 0.4457 0.77127 0.14876 0.0
H746 H 0.54249 0.86843 0.17077 0.0
C747 C 0.51293 0.93218 0.05787 0.0
C748 C 0.48719 0.92602 0.03094 0.0
C749 C 0.45923 0.89143 0.02493 0.0
C750 C 0.45579 0.86367 0.04699 0.0
C751 C 0.48093 0.87091 0.07435 0.0
C752 C 0.50949 0.90419 0.07915 0.0
C753 C 0.53224 0.90545 0.1112 0.0
C754 C 0.56904 0.91467 0.098 0.0
C755 C 0.53429 0.93113 0.14109 0.0
C756 C 0.51163 0.86792 0.12432 0.0
C757 C 0.48195 0.84841 0.10296 0.0
C758 C 0.45765 0.81367 0.1115 0.0
C759 C 0.46428 0.79833 0.14219 0.0
C760 C 0.49512 0.81764 0.16367 0.0
C761 C 0.51895 0.85287 0.15451 0.0
H762 H 0.5495 0.48665 0.60951 0.0
H763 H 0.59958 0.59408 0.57171 0.0
H764 H 0.65207 0.60831 0.60961 0.0
H765 H 0.58918 0.50422 0.70445 0.0
H766 H 0.59434 0.46618 0.70287 0.0
H767 H 0.55858 0.46616 0.67838 0.0
H768 H 0.57888 0.4504 0.6185 0.0
H769 H 0.61527 0.4512 0.64227 0.0
H770 H 0.62307 0.47846 0.60239 0.0
H771 H 0.70072 0.60939 0.64571 0.0
H772 H 0.74288 0.59838 0.67923 0.0
H773 H 0.66293 0.48888 0.69175 0.0
C774 C 0.57092 0.51351 0.61078 0.0
C775 C 0.57019 0.53977 0.58908 0.0
C776 C 0.59939 0.5741 0.58927 0.0
C777 C 0.62929 0.58227 0.61048 0.0
C778 C 0.6297 0.55557 0.63077 0.0
C779 C 0.60125 0.52189 0.6313 0.0
C780 C 0.60992 0.49732 0.65233 0.0
C781 C 0.58662 0.48261 0.68655 0.0
C782 C 0.6066 0.46761 0.62737 0.0
C783 C 0.64792 0.52234 0.66293 0.0
C784 C 0.65854 0.55583 0.65049 0.0
C785 C 0.69262 0.58338 0.65593 0.0
C786 C 0.71644 0.57675 0.67495 0.0
C787 C 0.70634 0.54274 0.68826 0.0
C788 C 0.67153 0.51515 0.68196 0.0
H789 H 0.07425 0.57092 0.08261 0.0
H790 H 0.97168 0.54376 0.12479 0.0
H791 H 0.99962 0.59492 0.16697 0.0
H792 H 0.11743 0.59397 0.16952 0.0
H793 H 0.15826 0.62877 0.15167 0.0
H794 H 0.12983 0.59221 0.1227 0.0
H795 H 0.12856 0.63488 0.07441 0.0
H796 H 0.15694 0.6716 0.10332 0.0
H797 H 0.11523 0.66575 0.08817 0.0
H798 H 0.03962 0.64954 0.20488 0.0
H799 H 0.08785 0.69832 0.2397 0.0
H800 H 0.16413 0.68642 0.17558 0.0
C801 C 0.0576 0.57606 0.1003 0.0
C802 C 0.02072 0.55372 0.10003 0.0
C803 C 0.99995 0.56071 0.12439 0.0
C804 C 0.0156 0.58976 0.14832 0.0
C805 C 0.05211 0.61122 0.14797 0.0
C806 C 0.07284 0.60438 0.12488 0.0
C807 C 0.11156 0.62963 0.13178 0.0
C808 C 0.13036 0.60997 0.14469 0.0
C809 C 0.1291 0.65178 0.09737 0.0
C810 C 0.10951 0.65181 0.16241 0.0
C811 C 0.07502 0.64121 0.17098 0.0
C812 C 0.06669 0.65797 0.19838 0.0
C813 C 0.09427 0.68578 0.21791 0.0
C814 C 0.12978 0.6962 0.21043 0.0
C815 C 0.13729 0.67907 0.18202 0.0
loop_
_geom_bond_atom_site_label_1
_geom_bond_atom_site_label_2
_geom_bond_distance
_geom_bond_site_symmetry_2
_ccdc_geom_bond_type
C0 O2 1.258 . S
C0 O4 1.258 . S
C1 O8 1.252 . S
C1 O9 1.258 . S
O2 C0 1.258 . S
O2 Zn3 2.025 1_455 S
Zn3 O2 2.025 1_655 S
Zn3 O7 2.035 1_554 S
Zn3 O9 2.035 1_554 S
Zn3 O10 2.014 1_655 S
O4 C0 1.258 . S
O4 Zn5 2.035 1_554 S
Zn5 O4 2.035 1_556 S
Zn5 O6 2.021 1_455 S
Zn5 O8 2.027 1_455 S
Zn5 O11 2.035 1_556 S
O6 Zn5 2.021 1_655 S
O6 C12 1.254 . S
O7 Zn3 2.035 1_556 S
O7 C12 1.258 . S
O8 C1 1.252 . S
O8 Zn5 2.027 1_655 S
O9 C1 1.258 . S
O9 Zn3 2.035 1_556 S
O10 Zn3 2.014 1_455 S
O10 C13 1.262 . S
O11 Zn5 2.035 1_554 S
O11 C13 1.258 . S
C12 O6 1.254 . S
C12 O7 1.258 . S
C13 O10 1.262 . S
C13 O11 1.258 . S
C14 O16 1.262 . S
C14 O18 1.258 . S
C15 O22 1.254 . S
C15 O23 1.258 . S
O16 C14 1.262 . S
O16 Zn17 2.014 1_545 S
Zn17 O16 2.014 1_565 S
Zn17 O21 2.035 . S
Zn17 O23 2.035 . S
Zn17 O24 2.025 1_565 S
O18 C14 1.258 . S
O18 Zn19 2.035 . S
Zn19 O18 2.035 . S
Zn19 O20 2.027 1_545 S
Zn19 O22 2.021 1_545 S
Zn19 O25 2.035 . S
O20 Zn19 2.027 1_565 S
O20 C26 1.252 . S
O21 Zn17 2.035 . S
O21 C26 1.258 . S
O22 C15 1.254 . S
O22 Zn19 2.021 1_565 S
O23 C15 1.258 . S
O23 Zn17 2.035 . S
O24 Zn17 2.025 1_545 S
O24 C27 1.258 . S
O25 Zn19 2.035 . S
O25 C27 1.258 . S
C26 O20 1.252 . S
C26 O21 1.258 . S
C27 O24 1.258 . S
C27 O25 1.258 . S
C28 O30 1.247 . S
C28 O32 1.258 . S
C29 O36 1.247 . S
C29 O37 1.258 . S
O30 C28 1.247 . S
O30 Zn31 2.028 . S
Zn31 O30 2.028 . S
Zn31 O35 2.035 1_556 S
Zn31 O37 2.035 1_556 S
Zn31 O38 2.028 . S
O32 C28 1.258 . S
O32 Zn33 2.035 1_556 S
Zn33 O32 2.035 1_554 S
Zn33 O34 2.028 . S
Zn33 O36 2.028 . S
Zn33 O39 2.035 1_554 S
O34 Zn33 2.028 . S
O34 C40 1.247 . S
O35 Zn31 2.035 1_554 S
O35 C40 1.258 . S
O36 C29 1.247 . S
O36 Zn33 2.028 . S
O37 C29 1.258 . S
O37 Zn31 2.035 1_554 S
O38 Zn31 2.028 . S
O38 C41 1.247 . S
O39 Zn33 2.035 1_556 S
O39 C41 1.258 . S
C40 O34 1.247 . S
C40 O35 1.258 . S
C41 O38 1.247 . S
C41 O39 1.258 . S
C42 O44 1.247 . S
C42 O46 1.271 . S
C43 O50 1.247 . S
C43 O51 1.265 . S
O44 C42 1.247 . S
O44 Zn45 2.028 . S
Zn45 O44 2.028 . S
Zn45 O49 2.027 1_455 S
Zn45 O51 2.034 1_455 S
Zn45 O52 2.028 . S
O46 C42 1.271 . S
O46 Zn47 2.032 1_455 S
Zn47 O46 2.032 1_655 S
Zn47 O48 2.028 . S
Zn47 O50 2.028 . S
Zn47 O53 2.020 1_655 S
O48 Zn47 2.028 . S
O48 C54 1.247 . S
O49 Zn45 2.027 1_655 S
O49 C54 1.267 . S
O50 C43 1.247 . S
O50 Zn47 2.028 . S
O51 C43 1.265 . S
O51 Zn45 2.034 1_655 S
O52 Zn45 2.028 . S
O52 C55 1.247 . S
O53 Zn47 2.020 1_455 S
O53 C55 1.276 . S
C54 O48 1.247 . S
C54 O49 1.267 . S
C55 O52 1.247 . S
C55 O53 1.276 . S
C56 O58 1.254 . S
C56 O60 1.258 . S
C57 O64 1.262 . S
C57 O65 1.258 . S
O58 C56 1.254 . S
O58 Zn59 2.021 1_565 S
Zn59 O58 2.021 1_545 S
Zn59 O63 2.035 1_554 S
Zn59 O65 2.035 1_554 S
Zn59 O66 2.027 1_545 S
O60 C56 1.258 . S
O60 Zn61 2.035 1_554 S
Zn61 O60 2.035 1_556 S
Zn61 O62 2.025 1_565 S
Zn61 O64 2.014 1_565 S
Zn61 O67 2.035 1_556 S
O62 Zn61 2.025 1_545 S
O62 C68 1.258 . S
O63 Zn59 2.035 1_556 S
O63 C68 1.258 . S
O64 C57 1.262 . S
O64 Zn61 2.014 1_545 S
O65 C57 1.258 . S
O65 Zn59 2.035 1_556 S
O66 Zn59 2.027 1_565 S
O66 C69 1.252 . S
O67 Zn61 2.035 1_554 S
O67 C69 1.258 . S
C68 O62 1.258 . S
C68 O63 1.258 . S
C69 O66 1.252 . S
C69 O67 1.258 . S
C70 O72 1.247 . S
C70 O74 1.258 . S
C71 O78 1.247 . S
C71 O79 1.258 . S
O72 C70 1.247 . S
O72 Zn73 2.028 . S
Zn73 O72 2.028 . S
Zn73 O77 2.035 . S
Zn73 O79 2.035 . S
Zn73 O80 2.028 . S
O74 C70 1.258 . S
O74 Zn75 2.035 . S
Zn75 O74 2.035 . S
Zn75 O76 2.028 . S
Zn75 O78 2.028 . S
Zn75 O81 2.035 . S
O76 Zn75 2.028 . S
O76 C82 1.247 . S
O77 Zn73 2.035 . S
O77 C82 1.258 . S
O78 C71 1.247 . S
O78 Zn75 2.028 . S
O79 C71 1.258 . S
O79 Zn73 2.035 . S
O80 Zn73 2.028 . S
O80 C83 1.247 . S
O81 Zn75 2.035 . S
O81 C83 1.258 . S
C82 O76 1.247 . S
C82 O77 1.258 . S
C83 O80 1.247 . S
C83 O81 1.258 . S
C84 O86 1.247 . S
C84 O88 1.258 . S
C85 O92 1.247 . S
C85 O93 1.258 . S
O86 C84 1.247 . S
O86 Zn87 2.028 . S
Zn87 O86 2.028 . S
Zn87 O91 2.035 . S
Zn87 O93 2.035 . S
Zn87 O94 2.028 . S
O88 C84 1.258 . S
O88 Zn89 2.035 . S
Zn89 O88 2.035 . S
Zn89 O90 2.028 . S
Zn89 O92 2.028 . S
Zn89 O95 2.035 . S
O90 Zn89 2.028 . S
O90 C96 1.247 . S
O91 Zn87 2.035 . S
O91 C96 1.258 . S
O92 C85 1.247 . S
O92 Zn89 2.028 . S
O93 C85 1.258 . S
O93 Zn87 2.035 . S
O94 Zn87 2.028 . S
O94 C97 1.247 . S
O95 Zn89 2.035 . S
O95 C97 1.258 . S
C96 O90 1.247 . S
C96 O91 1.258 . S
C97 O94 1.247 . S
C97 O95 1.258 . S
C98 O100 1.247 . S
C98 O102 1.258 . S
C99 O106 1.247 . S
C99 O107 1.258 . S
O100 C98 1.247 . S
O100 Zn101 2.028 . S
Zn101 O100 2.028 . S
Zn101 O105 2.035 . S
Zn101 O107 2.035 . S
Zn101 O108 2.028 . S
O102 C98 1.258 . S
O102 Zn103 2.035 . S
Zn103 O102 2.035 . S
Zn103 O104 2.028 . S
Zn103 O106 2.028 . S
Zn103 O109 2.035 . S
O104 Zn103 2.028 . S
O104 C110 1.247 . S
O105 Zn101 2.035 . S
O105 C110 1.258 . S
O106 C99 1.247 . S
O106 Zn103 2.028 . S
O107 C99 1.258 . S
O107 Zn101 2.035 . S
O108 Zn101 2.028 . S
O108 C111 1.247 . S
O109 Zn103 2.035 . S
O109 C111 1.258 . S
C110 O104 1.247 . S
C110 O105 1.258 . S
C111 O108 1.247 . S
C111 O109 1.258 . S
C112 O114 1.247 . S
C112 O116 1.258 . S
C113 O120 1.247 . S
C113 O121 1.258 . S
O114 C112 1.247 . S
O114 Zn115 2.028 . S
Zn115 O114 2.028 . S
Zn115 O119 2.035 . S
Zn115 O121 2.035 . S
Zn115 O122 2.028 . S
O116 C112 1.258 . S
O116 Zn117 2.035 . S
Zn117 O116 2.035 . S
Zn117 O118 2.028 . S
Zn117 O120 2.028 . S
Zn117 O123 2.035 . S
O118 Zn117 2.028 . S
O118 C124 1.247 . S
O119 Zn115 2.035 . S
O119 C124 1.258 . S
O120 C113 1.247 . S
O120 Zn117 2.028 . S
O121 C113 1.258 . S
O121 Zn115 2.035 . S
O122 Zn115 2.028 . S
O122 C125 1.247 . S
O123 Zn117 2.035 . S
O123 C125 1.258 . S
C124 O118 1.247 . S
C124 O119 1.258 . S
C125 O122 1.247 . S
C125 O123 1.258 . S
C126 O128 1.247 . S
C126 O130 1.258 . S
C127 O134 1.247 . S
C127 O135 1.258 . S
O128 C126 1.247 . S
O128 Zn129 2.028 . S
Zn129 O128 2.028 . S
Zn129 O133 2.035 . S
Zn129 O135 2.035 . S
Zn129 O136 2.028 . S
O130 C126 1.258 . S
O130 Zn131 2.035 . S
Zn131 O130 2.035 . S
Zn131 O132 2.028 . S
Zn131 O134 2.028 . S
Zn131 O137 2.035 . S
O132 Zn131 2.028 . S
O132 C138 1.247 . S
O133 Zn129 2.035 . S
O133 C138 1.258 . S
O134 C127 1.247 . S
O134 Zn131 2.028 . S
O135 C127 1.258 . S
O135 Zn129 2.035 . S
O136 Zn129 2.028 . S
O136 C139 1.247 . S
O137 Zn131 2.035 . S
O137 C139 1.258 . S
C138 O132 1.247 . S
C138 O133 1.258 . S
C139 O136 1.247 . S
C139 O137 1.258 . S
C140 O142 1.247 . S
C140 O144 1.258 . S
C141 O148 1.247 . S
C141 O149 1.258 . S
O142 C140 1.247 . S
O142 Zn143 2.028 . S
Zn143 O142 2.028 . S
Zn143 O147 2.035 . S
Zn143 O149 2.035 . S
Zn143 O150 2.028 . S
O144 C140 1.258 . S
O144 Zn145 2.035 . S
Zn145 O144 2.035 . S
Zn145 O146 2.028 . S
Zn145 O148 2.028 . S
Zn145 O151 2.035 . S
O146 Zn145 2.028 . S
O146 C152 1.247 . S
O147 Zn143 2.035 . S
O147 C152 1.258 . S
O148 C141 1.247 . S
O148 Zn145 2.028 . S
O149 C141 1.258 . S
O149 Zn143 2.035 . S
O150 Zn143 2.028 . S
O150 C153 1.247 . S
O151 Zn145 2.035 . S
O151 C153 1.258 . S
C152 O146 1.247 . S
C152 O147 1.258 . S
C153 O150 1.247 . S
C153 O151 1.258 . S
C154 O156 1.247 . S
C154 O158 1.258 . S
C155 O162 1.247 . S
C155 O163 1.258 . S
O156 C154 1.247 . S
O156 Zn157 2.028 . S
Zn157 O156 2.028 . S
Zn157 O161 2.035 . S
Zn157 O163 2.035 . S
Zn157 O164 2.028 . S
O158 C154 1.258 . S
O158 Zn159 2.035 . S
Zn159 O158 2.035 . S
Zn159 O160 2.028 . S
Zn159 O162 2.028 . S
Zn159 O165 2.035 . S
O160 Zn159 2.028 . S
O160 C166 1.247 . S
O161 Zn157 2.035 . S
O161 C166 1.258 . S
O162 C155 1.247 . S
O162 Zn159 2.028 . S
O163 C155 1.258 . S
O163 Zn157 2.035 . S
O164 Zn157 2.028 . S
O164 C167 1.247 . S
O165 Zn159 2.035 . S
O165 C167 1.258 . S
C166 O160 1.247 . S
C166 O161 1.258 . S
C167 O164 1.247 . S
C167 O165 1.258 . S
H168 C180 0.930 . S
H169 C182 0.930 . S
H170 C183 0.930 . S
H171 C187 0.959 . S
H172 C187 0.959 . S
H173 C187 0.961 . S
H174 C188 0.960 . S
H175 C188 0.961 . S
H176 C188 0.959 . S
H177 C191 0.929 . S
H178 C192 0.931 . S
H179 C194 0.930 . S
C180 H168 0.930 . S
C180 C181 1.399 . S
C180 C185 1.399 . S
C181 C180 1.399 . S
C181 C182 1.376 . S
C182 H169 0.930 . S
C182 C181 1.376 . S
C182 C183 1.388 . S
C183 H170 0.930 . S
C183 C182 1.388 . S
C183 C184 1.390 . S
C184 C183 1.390 . S
C184 C185 1.394 . S
C184 C190 1.465 . S
C185 C180 1.399 . S
C185 C184 1.394 . S
C185 C186 1.516 . S
C186 C185 1.516 . S
C186 C187 1.502 . S
C186 C188 1.561 . S
C186 C189 1.526 . S
C187 H171 0.959 . S
C187 H172 0.959 . S
C187 H173 0.961 . S
C187 C186 1.502 . S
C188 H174 0.960 . S
C188 H175 0.961 . S
C188 H176 0.959 . S
C188 C186 1.561 . S
C189 C186 1.526 . S
C189 C190 1.396 . S
C189 C194 1.390 . S
C190 C184 1.465 . S
C190 C189 1.396 . S
C190 C191 1.399 . S
C191 H177 0.929 . S
C191 C190 1.399 . S
C191 C192 1.385 . S
C192 H178 0.931 . S
C192 C191 1.385 . S
C192 C193 1.389 . S
C193 C192 1.389 . S
C193 C194 1.387 . S
C194 H179 0.930 . S
C194 C189 1.390 . S
C194 C193 1.387 . S
H195 C207 0.930 . S
H196 C209 0.930 . S
H197 C210 0.930 . S
H198 C214 0.959 . S
H199 C214 0.959 . S
H200 C214 0.961 . S
H201 C215 0.960 . S
H202 C215 0.961 . S
H203 C215 0.959 . S
H204 C218 0.929 . S
H205 C219 0.931 . S
H206 C221 0.930 . S
C207 H195 0.930 . S
C207 C208 1.399 . S
C207 C212 1.399 . S
C208 C207 1.399 . S
C208 C209 1.376 . S
C209 H196 0.930 . S
C209 C208 1.376 . S
C209 C210 1.388 . S
C210 H197 0.930 . S
C210 C209 1.388 . S
C210 C211 1.390 . S
C211 C210 1.390 . S
C211 C212 1.394 . S
C211 C217 1.465 . S
C212 C207 1.399 . S
C212 C211 1.394 . S
C212 C213 1.516 . S
C213 C212 1.516 . S
C213 C214 1.502 . S
C213 C215 1.561 . S
C213 C216 1.526 . S
C214 H198 0.959 . S
C214 H199 0.959 . S
C214 H200 0.961 . S
C214 C213 1.502 . S
C215 H201 0.960 . S
C215 H202 0.961 . S
C215 H203 0.959 . S
C215 C213 1.561 . S
C216 C213 1.526 . S
C216 C217 1.396 . S
C216 C221 1.390 . S
C217 C211 1.465 . S
C217 C216 1.396 . S
C217 C218 1.399 . S
C218 H204 0.929 . S
C218 C217 1.399 . S
C218 C219 1.385 . S
C219 H205 0.931 . S
C219 C218 1.385 . S
C219 C220 1.389 . S
C220 C219 1.389 . S
C220 C221 1.387 . S
C221 H206 0.930 . S
C221 C216 1.390 . S
C221 C220 1.387 . S
H222 C234 0.930 . S
H223 C236 0.930 . S
H224 C237 0.930 . S
H225 C241 0.959 . S
H226 C241 0.959 . S
H227 C241 0.961 . S
H228 C242 0.960 . S
H229 C242 0.961 . S
H230 C242 0.959 . S
H231 C245 0.929 . S
H232 C246 0.931 . S
H233 C248 0.930 . S
C234 H222 0.930 . S
C234 C235 1.399 . S
C234 C239 1.399 . S
C235 C234 1.399 . S
C235 C236 1.376 . S
C236 H223 0.930 . S
C236 C235 1.376 . S
C236 C237 1.388 . S
C237 H224 0.930 . S
C237 C236 1.388 . S
C237 C238 1.390 . S
C238 C237 1.390 . S
C238 C239 1.394 . S
C238 C244 1.465 . S
C239 C234 1.399 . S
C239 C238 1.394 . S
C239 C240 1.516 . S
C240 C239 1.516 . S
C240 C241 1.502 . S
C240 C242 1.561 . S
C240 C243 1.526 . S
C241 H225 0.959 . S
C241 H226 0.959 . S
C241 H227 0.961 . S
C241 C240 1.502 . S
C242 H228 0.960 . S
C242 H229 0.961 . S
C242 H230 0.959 . S
C242 C240 1.561 . S
C243 C240 1.526 . S
C243 C244 1.396 . S
C243 C248 1.390 . S
C244 C238 1.465 . S
C244 C243 1.396 . S
C244 C245 1.399 . S
C245 H231 0.929 . S
C245 C244 1.399 . S
C245 C246 1.385 . S
C246 H232 0.931 . S
C246 C245 1.385 . S
C246 C247 1.389 . S
C247 C246 1.389 . S
C247 C248 1.387 . S
C248 H233 0.930 . S
C248 C243 1.390 . S
C248 C247 1.387 . S
H249 C261 0.930 . S
H250 C263 0.930 . S
H251 C264 0.930 . S
H252 C268 0.959 . S
H253 C268 0.959 . S
H254 C268 0.961 . S
H255 C269 0.960 . S
H256 C269 0.961 . S
H257 C269 0.959 . S
H258 C272 0.929 . S
H259 C273 0.931 . S
H260 C275 0.930 . S
C261 H249 0.930 . S
C261 C262 1.399 . S
C261 C266 1.399 . S
C262 C261 1.399 . S
C262 C263 1.376 . S
C263 H250 0.930 . S
C263 C262 1.376 . S
C263 C264 1.388 . S
C264 H251 0.930 . S
C264 C263 1.388 . S
C264 C265 1.390 . S
C265 C264 1.390 . S
C265 C266 1.394 . S
C265 C271 1.465 . S
C266 C261 1.399 . S
C266 C265 1.394 . S
C266 C267 1.516 . S
C267 C266 1.516 . S
C267 C268 1.502 . S
C267 C269 1.561 . S
C267 C270 1.526 . S
C268 H252 0.959 . S
C268 H253 0.959 . S
C268 H254 0.961 . S
C268 C267 1.502 . S
C269 H255 0.960 . S
C269 H256 0.961 . S
C269 H257 0.959 . S
C269 C267 1.561 . S
C270 C267 1.526 . S
C270 C271 1.396 . S
C270 C275 1.390 . S
C271 C265 1.465 . S
C271 C270 1.396 . S
C271 C272 1.399 . S
C272 H258 0.929 . S
C272 C271 1.399 . S
C272 C273 1.385 . S
C273 H259 0.931 . S
C273 C272 1.385 . S
C273 C274 1.389 . S
C274 C273 1.389 . S
C274 C275 1.387 . S
C275 H260 0.930 . S
C275 C270 1.390 . S
C275 C274 1.387 . S
H276 C288 0.930 . S
H277 C290 0.930 . S
H278 C291 0.930 . S
H279 C295 0.959 . S
H280 C295 0.959 . S
H281 C295 0.961 . S
H282 C296 0.960 . S
H283 C296 0.961 . S
H284 C296 0.959 . S
H285 C299 0.929 . S
H286 C300 0.931 . S
H287 C302 0.930 . S
C288 H276 0.930 . S
C288 C289 1.399 . S
C288 C293 1.399 . S
C289 C288 1.399 . S
C289 C290 1.376 . S
C290 H277 0.930 . S
C290 C289 1.376 . S
C290 C291 1.388 . S
C291 H278 0.930 . S
C291 C290 1.388 . S
C291 C292 1.390 . S
C292 C291 1.390 . S
C292 C293 1.394 . S
C292 C298 1.465 . S
C293 C288 1.399 . S
C293 C292 1.394 . S
C293 C294 1.516 . S
C294 C293 1.516 . S
C294 C295 1.502 . S
C294 C296 1.561 . S
C294 C297 1.526 . S
C295 H279 0.959 . S
C295 H280 0.959 . S
C295 H281 0.961 . S
C295 C294 1.502 . S
C296 H282 0.960 . S
C296 H283 0.961 . S
C296 H284 0.959 . S
C296 C294 1.561 . S
C297 C294 1.526 . S
C297 C298 1.396 . S
C297 C302 1.390 . S
C298 C292 1.465 . S
C298 C297 1.396 . S
C298 C299 1.399 . S
C299 H285 0.929 . S
C299 C298 1.399 . S
C299 C300 1.385 . S
C300 H286 0.931 . S
C300 C299 1.385 . S
C300 C301 1.389 . S
C301 C300 1.389 . S
C301 C302 1.387 . S
C302 H287 0.930 . S
C302 C297 1.390 . S
C302 C301 1.387 . S
H303 C315 0.930 . S
H304 C317 0.930 . S
H305 C318 0.930 . S
H306 C322 0.959 . S
H307 C322 0.959 . S
H308 C322 0.961 . S
H309 C323 0.960 . S
H310 C323 0.961 . S
H311 C323 0.959 . S
H312 C326 0.929 . S
H313 C327 0.931 . S
H314 C329 0.930 . S
C315 H303 0.930 . S
C315 C316 1.399 . S
C315 C320 1.399 . S
C316 C315 1.399 . S
C316 C317 1.376 . S
C317 H304 0.930 . S
C317 C316 1.376 . S
C317 C318 1.388 . S
C318 H305 0.930 . S
C318 C317 1.388 . S
C318 C319 1.390 . S
C319 C318 1.390 . S
C319 C320 1.394 . S
C319 C325 1.465 . S
C320 C315 1.399 . S
C320 C319 1.394 . S
C320 C321 1.516 . S
C321 C320 1.516 . S
C321 C322 1.502 . S
C321 C323 1.561 . S
C321 C324 1.526 . S
C322 H306 0.959 . S
C322 H307 0.959 . S
C322 H308 0.961 . S
C322 C321 1.502 . S
C323 H309 0.960 . S
C323 H310 0.961 . S
C323 H311 0.959 . S
C323 C321 1.561 . S
C324 C321 1.526 . S
C324 C325 1.396 . S
C324 C329 1.390 . S
C325 C319 1.465 . S
C325 C324 1.396 . S
C325 C326 1.399 . S
C326 H312 0.929 . S
C326 C325 1.399 . S
C326 C327 1.385 . S
C327 H313 0.931 . S
C327 C326 1.385 . S
C327 C328 1.389 . S
C328 C327 1.389 . S
C328 C329 1.387 . S
C329 H314 0.930 . S
C329 C324 1.390 . S
C329 C328 1.387 . S
H330 C342 0.930 . S
H331 C344 0.930 . S
H332 C345 0.930 . S
H333 C349 0.959 . S
H334 C349 0.959 . S
H335 C349 0.961 . S
H336 C350 0.960 . S
H337 C350 0.961 . S
H338 C350 0.959 . S
H339 C353 0.929 . S
H340 C354 0.931 . S
H341 C356 0.930 . S
C342 H330 0.930 . S
C342 C343 1.399 . S
C342 C347 1.399 . S
C343 C342 1.399 . S
C343 C344 1.376 . S
C344 H331 0.930 . S
C344 C343 1.376 . S
C344 C345 1.388 . S
C345 H332 0.930 . S
C345 C344 1.388 . S
C345 C346 1.390 . S
C346 C345 1.390 . S
C346 C347 1.394 . S
C346 C352 1.465 . S
C347 C342 1.399 . S
C347 C346 1.394 . S
C347 C348 1.516 . S
C348 C347 1.516 . S
C348 C349 1.502 . S
C348 C350 1.561 . S
C348 C351 1.526 . S
C349 H333 0.959 . S
C349 H334 0.959 . S
C349 H335 0.961 . S
C349 C348 1.502 . S
C350 H336 0.960 . S
C350 H337 0.961 . S
C350 H338 0.959 . S
C350 C348 1.561 . S
C351 C348 1.526 . S
C351 C352 1.396 . S
C351 C356 1.390 . S
C352 C346 1.465 . S
C352 C351 1.396 . S
C352 C353 1.399 . S
C353 H339 0.929 . S
C353 C352 1.399 . S
C353 C354 1.385 . S
C354 H340 0.931 . S
C354 C353 1.385 . S
C354 C355 1.389 . S
C355 C354 1.389 . S
C355 C356 1.387 . S
C356 H341 0.930 . S
C356 C351 1.390 . S
C356 C355 1.387 . S
H357 C369 0.930 . S
H358 C371 0.930 . S
H359 C372 0.930 . S
H360 C376 0.959 . S
H361 C376 0.959 . S
H362 C376 0.961 . S
H363 C377 0.960 . S
H364 C377 0.961 . S
H365 C377 0.959 . S
H366 C380 0.929 . S
H367 C381 0.931 . S
H368 C383 0.930 . S
C369 H357 0.930 . S
C369 C370 1.399 . S
C369 C374 1.399 . S
C370 C369 1.399 . S
C370 C371 1.376 . S
C371 H358 0.930 . S
C371 C370 1.376 . S
C371 C372 1.388 . S
C372 H359 0.930 . S
C372 C371 1.388 . S
C372 C373 1.390 . S
C373 C372 1.390 . S
C373 C374 1.394 . S
C373 C379 1.465 . S
C374 C369 1.399 . S
C374 C373 1.394 . S
C374 C375 1.516 . S
C375 C374 1.516 . S
C375 C376 1.502 . S
C375 C377 1.561 . S
C375 C378 1.526 . S
C376 H360 0.959 . S
C376 H361 0.959 . S
C376 H362 0.961 . S
C376 C375 1.502 . S
C377 H363 0.960 . S
C377 H364 0.961 . S
C377 H365 0.959 . S
C377 C375 1.561 . S
C378 C375 1.526 . S
C378 C379 1.396 . S
C378 C383 1.390 . S
C379 C373 1.465 . S
C379 C378 1.396 . S
C379 C380 1.399 . S
C380 H366 0.929 . S
C380 C379 1.399 . S
C380 C381 1.385 . S
C381 H367 0.931 . S
C381 C380 1.385 . S
C381 C382 1.389 . S
C382 C381 1.389 . S
C382 C383 1.387 . S
C383 H368 0.930 . S
C383 C378 1.390 . S
C383 C382 1.387 . S
H384 C396 0.930 . S
H385 C398 0.930 . S
H386 C399 0.930 . S
H387 C403 0.959 . S
H388 C403 0.959 . S
H389 C403 0.961 . S
H390 C404 0.960 . S
H391 C404 0.961 . S
H392 C404 0.959 . S
H393 C407 0.929 . S
H394 C408 0.931 . S
H395 C410 0.930 . S
C396 H384 0.930 . S
C396 C397 1.399 . S
C396 C401 1.399 . S
C397 C396 1.399 . S
C397 C398 1.376 . S
C398 H385 0.930 . S
C398 C397 1.376 . S
C398 C399 1.388 . S
C399 H386 0.930 . S
C399 C398 1.388 . S
C399 C400 1.390 . S
C400 C399 1.390 . S
C400 C401 1.394 . S
C400 C406 1.465 . S
C401 C396 1.399 . S
C401 C400 1.394 . S
C401 C402 1.516 . S
C402 C401 1.516 . S
C402 C403 1.502 . S
C402 C404 1.561 . S
C402 C405 1.526 . S
C403 H387 0.959 . S
C403 H388 0.959 . S
C403 H389 0.961 . S
C403 C402 1.502 . S
C404 H390 0.960 . S
C404 H391 0.961 . S
C404 H392 0.959 . S
C404 C402 1.561 . S
C405 C402 1.526 . S
C405 C406 1.396 . S
C405 C410 1.390 . S
C406 C400 1.465 . S
C406 C405 1.396 . S
C406 C407 1.399 . S
C407 H393 0.929 . S
C407 C406 1.399 . S
C407 C408 1.385 . S
C408 H394 0.931 . S
C408 C407 1.385 . S
C408 C409 1.389 . S
C409 C408 1.389 . S
C409 C410 1.387 . S
C410 H395 0.930 . S
C410 C405 1.390 . S
C410 C409 1.387 . S
H411 C423 0.930 . S
H412 C425 0.930 . S
H413 C426 0.930 . S
H414 C430 0.959 . S
H415 C430 0.959 . S
H416 C430 0.961 . S
H417 C431 0.960 . S
H418 C431 0.961 . S
H419 C431 0.959 . S
H420 C434 0.929 . S
H421 C435 0.931 . S
H422 C437 0.930 . S
C423 H411 0.930 . S
C423 C424 1.399 . S
C423 C428 1.399 . S
C424 C423 1.399 . S
C424 C425 1.376 . S
C425 H412 0.930 . S
C425 C424 1.376 . S
C425 C426 1.388 . S
C426 H413 0.930 . S
C426 C425 1.388 . S
C426 C427 1.390 . S
C427 C426 1.390 . S
C427 C428 1.394 . S
C427 C433 1.465 . S
C428 C423 1.399 . S
C428 C427 1.394 . S
C428 C429 1.516 . S
C429 C428 1.516 . S
C429 C430 1.502 . S
C429 C431 1.561 . S
C429 C432 1.526 . S
C430 H414 0.959 . S
C430 H415 0.959 . S
C430 H416 0.961 . S
C430 C429 1.502 . S
C431 H417 0.960 . S
C431 H418 0.961 . S
C431 H419 0.959 . S
C431 C429 1.561 . S
C432 C429 1.526 . S
C432 C433 1.396 . S
C432 C437 1.390 . S
C433 C427 1.465 . S
C433 C432 1.396 . S
C433 C434 1.399 . S
C434 H420 0.929 . S
C434 C433 1.399 . S
C434 C435 1.385 . S
C435 H421 0.931 . S
C435 C434 1.385 . S
C435 C436 1.389 . S
C436 C435 1.389 . S
C436 C437 1.387 . S
C437 H422 0.930 . S
C437 C432 1.390 . S
C437 C436 1.387 . S
H438 C450 0.930 . S
H439 C452 0.930 . S
H440 C453 0.930 . S
H441 C457 0.959 . S
H442 C457 0.959 . S
H443 C457 0.961 . S
H444 C458 0.960 . S
H445 C458 0.961 . S
H446 C458 0.959 . S
H447 C461 0.929 . S
H448 C462 0.931 . S
H449 C464 0.930 . S
C450 H438 0.930 . S
C450 C451 1.399 . S
C450 C455 1.399 . S
C451 C450 1.399 . S
C451 C452 1.376 . S
C452 H439 0.930 . S
C452 C451 1.376 . S
C452 C453 1.388 . S
C453 H440 0.930 . S
C453 C452 1.388 . S
C453 C454 1.390 . S
C454 C453 1.390 . S
C454 C455 1.394 . S
C454 C460 1.465 . S
C455 C450 1.399 . S
C455 C454 1.394 . S
C455 C456 1.516 . S
C456 C455 1.516 . S
C456 C457 1.502 . S
C456 C458 1.561 . S
C456 C459 1.526 . S
C457 H441 0.959 . S
C457 H442 0.959 . S
C457 H443 0.961 . S
C457 C456 1.502 . S
C458 H444 0.960 . S
C458 H445 0.961 . S
C458 H446 0.959 . S
C458 C456 1.561 . S
C459 C456 1.526 . S
C459 C460 1.396 . S
C459 C464 1.390 . S
C460 C454 1.465 . S
C460 C459 1.396 . S
C460 C461 1.399 . S
C461 H447 0.929 . S
C461 C460 1.399 . S
C461 C462 1.385 . S
C462 H448 0.931 . S
C462 C461 1.385 . S
C462 C463 1.389 . S
C463 C462 1.389 . S
C463 C464 1.387 . S
C464 H449 0.930 . S
C464 C459 1.390 . S
C464 C463 1.387 . S
H465 C477 0.930 . S
H466 C479 0.930 . S
H467 C480 0.930 . S
H468 C484 0.959 . S
H469 C484 0.959 . S
H470 C484 0.961 . S
H471 C485 0.960 . S
H472 C485 0.961 . S
H473 C485 0.959 . S
H474 C488 0.929 . S
H475 C489 0.931 . S
H476 C491 0.930 . S
C477 H465 0.930 . S
C477 C478 1.399 . S
C477 C482 1.399 . S
C478 C477 1.399 . S
C478 C479 1.376 . S
C479 H466 0.930 . S
C479 C478 1.376 . S
C479 C480 1.388 . S
C480 H467 0.930 . S
C480 C479 1.388 . S
C480 C481 1.390 . S
C481 C480 1.390 . S
C481 C482 1.394 . S
C481 C487 1.465 . S
C482 C477 1.399 . S
C482 C481 1.394 . S
C482 C483 1.516 . S
C483 C482 1.516 . S
C483 C484 1.502 . S
C483 C485 1.561 . S
C483 C486 1.526 . S
C484 H468 0.959 . S
C484 H469 0.959 . S
C484 H470 0.961 . S
C484 C483 1.502 . S
C485 H471 0.960 . S
C485 H472 0.961 . S
C485 H473 0.959 . S
C485 C483 1.561 . S
C486 C483 1.526 . S
C486 C487 1.396 . S
C486 C491 1.390 . S
C487 C481 1.465 . S
C487 C486 1.396 . S
C487 C488 1.399 . S
C488 H474 0.929 . S
C488 C487 1.399 . S
C488 C489 1.385 . S
C489 H475 0.931 . S
C489 C488 1.385 . S
C489 C490 1.389 . S
C490 C489 1.389 . S
C490 C491 1.387 . S
C491 H476 0.930 . S
C491 C486 1.390 . S
C491 C490 1.387 . S
H492 C504 0.930 . S
H493 C506 0.930 . S
H494 C507 0.930 . S
H495 C511 0.959 . S
H496 C511 0.959 . S
H497 C511 0.961 . S
H498 C512 0.960 . S
H499 C512 0.961 . S
H500 C512 0.959 . S
H501 C515 0.929 . S
H502 C516 0.931 . S
H503 C518 0.930 . S
C504 H492 0.930 . S
C504 C505 1.399 . S
C504 C509 1.399 . S
C505 C504 1.399 . S
C505 C506 1.376 . S
C506 H493 0.930 . S
C506 C505 1.376 . S
C506 C507 1.388 . S
C507 H494 0.930 . S
C507 C506 1.388 . S
C507 C508 1.390 . S
C508 C507 1.390 . S
C508 C509 1.394 . S
C508 C514 1.465 . S
C509 C504 1.399 . S
C509 C508 1.394 . S
C509 C510 1.516 . S
C510 C509 1.516 . S
C510 C511 1.502 . S
C510 C512 1.561 . S
C510 C513 1.526 . S
C511 H495 0.959 . S
C511 H496 0.959 . S
C511 H497 0.961 . S
C511 C510 1.502 . S
C512 H498 0.960 . S
C512 H499 0.961 . S
C512 H500 0.959 . S
C512 C510 1.561 . S
C513 C510 1.526 . S
C513 C514 1.396 . S
C513 C518 1.390 . S
C514 C508 1.465 . S
C514 C513 1.396 . S
C514 C515 1.399 . S
C515 H501 0.929 . S
C515 C514 1.399 . S
C515 C516 1.385 . S
C516 H502 0.931 . S
C516 C515 1.385 . S
C516 C517 1.389 . S
C517 C516 1.389 . S
C517 C518 1.387 . S
C518 H503 0.930 . S
C518 C513 1.390 . S
C518 C517 1.387 . S
H519 C531 0.930 . S
H520 C533 0.941 . S
H521 C534 0.930 . S
H522 C538 0.959 . S
H523 C538 0.959 . S
H524 C538 0.961 . S
H525 C539 0.960 . S
H526 C539 0.961 . S
H527 C539 0.959 . S
H528 C542 0.929 . S
H529 C543 0.931 . S
H530 C545 0.930 . S
C531 H519 0.930 . S
C531 C532 1.399 . S
C531 C536 1.399 . S
C532 C531 1.399 . S
C532 C533 1.376 . S
C533 H520 0.941 . S
C533 C532 1.376 . S
C533 C534 1.388 . S
C534 H521 0.930 . S
C534 C533 1.388 . S
C534 C535 1.390 . S
C535 C534 1.390 . S
C535 C536 1.394 . S
C535 C541 1.465 . S
C536 C531 1.399 . S
C536 C535 1.394 . S
C536 C537 1.516 . S
C537 C536 1.516 . S
C537 C538 1.502 . S
C537 C539 1.561 . S
C537 C540 1.526 . S
C538 H522 0.959 . S
C538 H523 0.959 . S
C538 H524 0.961 . S
C538 C537 1.502 . S
C539 H525 0.960 . S
C539 H526 0.961 . S
C539 H527 0.959 . S
C539 C537 1.561 . S
C540 C537 1.526 . S
C540 C541 1.396 . S
C540 C545 1.390 . S
C541 C535 1.465 . S
C541 C540 1.396 . S
C541 C542 1.399 . S
C542 H528 0.929 . S
C542 C541 1.399 . S
C542 C543 1.385 . S
C543 H529 0.931 . S
C543 C542 1.385 . S
C543 C544 1.389 . S
C544 C543 1.389 . S
C544 C545 1.387 . S
C545 H530 0.930 . S
C545 C540 1.390 . S
C545 C544 1.387 . S
H546 C558 0.930 . S
H547 C560 0.930 . S
H548 C561 0.930 . S
H549 C565 0.959 . S
H550 C565 0.959 . S
H551 C565 0.961 . S
H552 C566 0.960 . S
H553 C566 0.961 . S
H554 C566 0.959 . S
H555 C569 0.929 . S
H556 C570 0.931 . S
H557 C572 0.930 . S
C558 H546 0.930 . S
C558 C559 1.399 . S
C558 C563 1.399 . S
C559 C558 1.399 . S
C559 C560 1.376 . S
C560 H547 0.930 . S
C560 C559 1.376 . S
C560 C561 1.388 . S
C561 H548 0.930 . S
C561 C560 1.388 . S
C561 C562 1.390 . S
C562 C561 1.390 . S
C562 C563 1.394 . S
C562 C568 1.465 . S
C563 C558 1.399 . S
C563 C562 1.394 . S
C563 C564 1.516 . S
C564 C563 1.516 . S
C564 C565 1.502 . S
C564 C566 1.561 . S
C564 C567 1.526 . S
C565 H549 0.959 . S
C565 H550 0.959 . S
C565 H551 0.961 . S
C565 C564 1.502 . S
C566 H552 0.960 . S
C566 H553 0.961 . S
C566 H554 0.959 . S
C566 C564 1.561 . S
C567 C564 1.526 . S
C567 C568 1.396 . S
C567 C572 1.390 . S
C568 C562 1.465 . S
C568 C567 1.396 . S
C568 C569 1.399 . S
C569 H555 0.929 . S
C569 C568 1.399 . S
C569 C570 1.385 . S
C570 H556 0.931 . S
C570 C569 1.385 . S
C570 C571 1.389 . S
C571 C570 1.389 . S
C571 C572 1.387 . S
C572 H557 0.930 . S
C572 C567 1.390 . S
C572 C571 1.387 . S
H573 C585 0.930 . S
H574 C587 0.930 . S
H575 C588 0.930 . S
H576 C592 0.959 . S
H577 C592 0.959 . S
H578 C592 0.961 . S
H579 C593 0.960 . S
H580 C593 0.961 . S
H581 C593 0.959 . S
H582 C596 0.929 . S
H583 C597 0.931 . S
H584 C599 0.930 . S
C585 H573 0.930 . S
C585 C586 1.399 . S
C585 C590 1.399 . S
C586 C585 1.399 . S
C586 C587 1.376 . S
C587 H574 0.930 . S
C587 C586 1.376 . S
C587 C588 1.388 . S
C588 H575 0.930 . S
C588 C587 1.388 . S
C588 C589 1.390 . S
C589 C588 1.390 . S
C589 C590 1.394 . S
C589 C595 1.465 . S
C590 C585 1.399 . S
C590 C589 1.394 . S
C590 C591 1.516 . S
C591 C590 1.516 . S
C591 C592 1.502 . S
C591 C593 1.561 . S
C591 C594 1.526 . S
C592 H576 0.959 . S
C592 H577 0.959 . S
C592 H578 0.961 . S
C592 C591 1.502 . S
C593 H579 0.960 . S
C593 H580 0.961 . S
C593 H581 0.959 . S
C593 C591 1.561 . S
C594 C591 1.526 . S
C594 C595 1.396 . S
C594 C599 1.390 . S
C595 C589 1.465 . S
C595 C594 1.396 . S
C595 C596 1.399 . S
C596 H582 0.929 . S
C596 C595 1.399 . S
C596 C597 1.385 . S
C597 H583 0.931 . S
C597 C596 1.385 . S
C597 C598 1.389 . S
C598 C597 1.389 . S
C598 C599 1.387 . S
C599 H584 0.930 . S
C599 C594 1.390 . S
C599 C598 1.387 . S
H600 C612 0.930 . S
H601 C614 0.930 . S
H602 C615 0.930 . S
H603 C619 0.959 . S
H604 C619 0.959 . S
H605 C619 0.961 . S
H606 C620 0.960 . S
H607 C620 0.961 . S
H608 C620 0.959 . S
H609 C623 0.929 . S
H610 C624 0.931 . S
H611 C626 0.930 . S
C612 H600 0.930 . S
C612 C613 1.399 . S
C612 C617 1.399 . S
C613 C612 1.399 . S
C613 C614 1.376 . S
C614 H601 0.930 . S
C614 C613 1.376 . S
C614 C615 1.388 . S
C615 H602 0.930 . S
C615 C614 1.388 . S
C615 C616 1.390 . S
C616 C615 1.390 . S
C616 C617 1.394 . S
C616 C622 1.465 . S
C617 C612 1.399 . S
C617 C616 1.394 . S
C617 C618 1.516 . S
C618 C617 1.516 . S
C618 C619 1.502 . S
C618 C620 1.561 . S
C618 C621 1.526 . S
C619 H603 0.959 . S
C619 H604 0.959 . S
C619 H605 0.961 . S
C619 C618 1.502 . S
C620 H606 0.960 . S
C620 H607 0.961 . S
C620 H608 0.959 . S
C620 C618 1.561 . S
C621 C618 1.526 . S
C621 C622 1.396 . S
C621 C626 1.390 . S
C622 C616 1.465 . S
C622 C621 1.396 . S
C622 C623 1.399 . S
C623 H609 0.929 . S
C623 C622 1.399 . S
C623 C624 1.385 . S
C624 H610 0.931 . S
C624 C623 1.385 . S
C624 C625 1.389 . S
C625 C624 1.389 . S
C625 C626 1.387 . S
C626 H611 0.930 . S
C626 C621 1.390 . S
C626 C625 1.387 . S
H627 C639 0.930 . S
H628 C641 0.930 . S
H629 C642 0.930 . S
H630 C646 0.959 . S
H631 C646 0.959 . S
H632 C646 0.961 . S
H633 C647 0.960 . S
H634 C647 0.961 . S
H635 C647 0.959 . S
H636 C650 0.929 . S
H637 C651 0.931 . S
H638 C653 0.930 . S
C639 H627 0.930 . S
C639 C640 1.399 . S
C639 C644 1.399 . S
C640 C639 1.399 . S
C640 C641 1.376 . S
C641 H628 0.930 . S
C641 C640 1.376 . S
C641 C642 1.388 . S
C642 H629 0.930 . S
C642 C641 1.388 . S
C642 C643 1.390 . S
C643 C642 1.390 . S
C643 C644 1.394 . S
C643 C649 1.465 . S
C644 C639 1.399 . S
C644 C643 1.394 . S
C644 C645 1.516 . S
C645 C644 1.516 . S
C645 C646 1.502 . S
C645 C647 1.561 . S
C645 C648 1.526 . S
C646 H630 0.959 . S
C646 H631 0.959 . S
C646 H632 0.961 . S
C646 C645 1.502 . S
C647 H633 0.960 . S
C647 H634 0.961 . S
C647 H635 0.959 . S
C647 C645 1.561 . S
C648 C645 1.526 . S
C648 C649 1.396 . S
C648 C653 1.390 . S
C649 C643 1.465 . S
C649 C648 1.396 . S
C649 C650 1.399 . S
C650 H636 0.929 . S
C650 C649 1.399 . S
C650 C651 1.385 . S
C651 H637 0.931 . S
C651 C650 1.385 . S
C651 C652 1.389 . S
C652 C651 1.389 . S
C652 C653 1.387 . S
C653 H638 0.930 . S
C653 C648 1.390 . S
C653 C652 1.387 . S
H654 C666 0.930 . S
H655 C668 0.930 . S
H656 C669 0.930 . S
H657 C673 0.959 . S
H658 C673 0.959 . S
H659 C673 0.961 . S
H660 C674 0.960 . S
H661 C674 0.961 . S
H662 C674 0.959 . S
H663 C677 0.929 . S
H664 C678 0.931 . S
H665 C680 0.930 . S
C666 H654 0.930 . S
C666 C667 1.399 . S
C666 C671 1.399 . S
C667 C666 1.399 . S
C667 C668 1.376 . S
C668 H655 0.930 . S
C668 C667 1.376 . S
C668 C669 1.388 . S
C669 H656 0.930 . S
C669 C668 1.388 . S
C669 C670 1.390 . S
C670 C669 1.390 . S
C670 C671 1.394 . S
C670 C676 1.465 . S
C671 C666 1.399 . S
C671 C670 1.394 . S
C671 C672 1.516 . S
C672 C671 1.516 . S
C672 C673 1.502 . S
C672 C674 1.561 . S
C672 C675 1.526 . S
C673 H657 0.959 . S
C673 H658 0.959 . S
C673 H659 0.961 . S
C673 C672 1.502 . S
C674 H660 0.960 . S
C674 H661 0.961 . S
C674 H662 0.959 . S
C674 C672 1.561 . S
C675 C672 1.526 . S
C675 C676 1.396 . S
C675 C680 1.390 . S
C676 C670 1.465 . S
C676 C675 1.396 . S
C676 C677 1.399 . S
C677 H663 0.929 . S
C677 C676 1.399 . S
C677 C678 1.385 . S
C678 H664 0.931 . S
C678 C677 1.385 . S
C678 C679 1.389 . S
C679 C678 1.389 . S
C679 C680 1.387 . S
C680 H665 0.930 . S
C680 C675 1.390 . S
C680 C679 1.387 . S
H681 C693 0.930 . S
H682 C695 0.930 . S
H683 C696 0.930 . S
H684 C700 0.959 . S
H685 C700 0.959 . S
H686 C700 0.961 . S
H687 C701 0.960 . S
H688 C701 0.961 . S
H689 C701 0.959 . S
H690 C704 0.929 . S
H691 C705 0.931 . S
H692 C707 0.930 . S
C693 H681 0.930 . S
C693 C694 1.399 . S
C693 C698 1.399 . S
C694 C693 1.399 . S
C694 C695 1.376 . S
C695 H682 0.930 . S
C695 C694 1.376 . S
C695 C696 1.388 . S
C696 H683 0.930 . S
C696 C695 1.388 . S
C696 C697 1.390 . S
C697 C696 1.390 . S
C697 C698 1.394 . S
C697 C703 1.465 . S
C698 C693 1.399 . S
C698 C697 1.394 . S
C698 C699 1.516 . S
C699 C698 1.516 . S
C699 C700 1.502 . S
C699 C701 1.561 . S
C699 C702 1.526 . S
C700 H684 0.959 . S
C700 H685 0.959 . S
C700 H686 0.961 . S
C700 C699 1.502 . S
C701 H687 0.960 . S
C701 H688 0.961 . S
C701 H689 0.959 . S
C701 C699 1.561 . S
C702 C699 1.526 . S
C702 C703 1.396 . S
C702 C707 1.390 . S
C703 C697 1.465 . S
C703 C702 1.396 . S
C703 C704 1.399 . S
C704 H690 0.929 . S
C704 C703 1.399 . S
C704 C705 1.385 . S
C705 H691 0.931 . S
C705 C704 1.385 . S
C705 C706 1.389 . S
C706 C705 1.389 . S
C706 C707 1.387 . S
C707 H692 0.930 . S
C707 C702 1.390 . S
C707 C706 1.387 . S
H708 C720 0.930 . S
H709 C722 0.930 . S
H710 C723 0.930 . S
H711 C727 0.959 . S
H712 C727 0.959 . S
H713 C727 0.961 . S
H714 C728 0.960 . S
H715 C728 0.961 . S
H716 C728 0.959 . S
H717 C731 0.929 . S
H718 C732 0.931 . S
H719 C734 0.930 . S
C720 H708 0.930 . S
C720 C721 1.399 . S
C720 C725 1.399 . S
C721 C720 1.399 . S
C721 C722 1.376 . S
C722 H709 0.930 . S
C722 C721 1.376 . S
C722 C723 1.388 . S
C723 H710 0.930 . S
C723 C722 1.388 . S
C723 C724 1.390 . S
C724 C723 1.390 . S
C724 C725 1.394 . S
C724 C730 1.465 . S
C725 C720 1.399 . S
C725 C724 1.394 . S
C725 C726 1.516 . S
C726 C725 1.516 . S
C726 C727 1.502 . S
C726 C728 1.561 . S
C726 C729 1.526 . S
C727 H711 0.959 . S
C727 H712 0.959 . S
C727 H713 0.961 . S
C727 C726 1.502 . S
C728 H714 0.960 . S
C728 H715 0.961 . S
C728 H716 0.959 . S
C728 C726 1.561 . S
C729 C726 1.526 . S
C729 C730 1.396 . S
C729 C734 1.390 . S
C730 C724 1.465 . S
C730 C729 1.396 . S
C730 C731 1.399 . S
C731 H717 0.929 . S
C731 C730 1.399 . S
C731 C732 1.385 . S
C732 H718 0.931 . S
C732 C731 1.385 . S
C732 C733 1.389 . S
C733 C732 1.389 . S
C733 C734 1.387 . S
C734 H719 0.930 . S
C734 C729 1.390 . S
C734 C733 1.387 . S
H735 C747 0.930 . S
H736 C749 0.930 . S
H737 C750 0.930 . S
H738 C754 0.959 . S
H739 C754 0.959 . S
H740 C754 0.961 . S
H741 C755 0.960 . S
H742 C755 0.961 . S
H743 C755 0.959 . S
H744 C758 0.929 . S
H745 C759 0.931 . S
H746 C761 0.930 . S
C747 H735 0.930 . S
C747 C748 1.399 . S
C747 C752 1.399 . S
C748 C747 1.399 . S
C748 C749 1.376 . S
C749 H736 0.930 . S
C749 C748 1.376 . S
C749 C750 1.388 . S
C750 H737 0.930 . S
C750 C749 1.388 . S
C750 C751 1.390 . S
C751 C750 1.390 . S
C751 C752 1.394 . S
C751 C757 1.465 . S
C752 C747 1.399 . S
C752 C751 1.394 . S
C752 C753 1.516 . S
C753 C752 1.516 . S
C753 C754 1.502 . S
C753 C755 1.561 . S
C753 C756 1.526 . S
C754 H738 0.959 . S
C754 H739 0.959 . S
C754 H740 0.961 . S
C754 C753 1.502 . S
C755 H741 0.960 . S
C755 H742 0.961 . S
C755 H743 0.959 . S
C755 C753 1.561 . S
C756 C753 1.526 . S
C756 C757 1.396 . S
C756 C761 1.390 . S
C757 C751 1.465 . S
C757 C756 1.396 . S
C757 C758 1.399 . S
C758 H744 0.929 . S
C758 C757 1.399 . S
C758 C759 1.385 . S
C759 H745 0.931 . S
C759 C758 1.385 . S
C759 C760 1.389 . S
C760 C759 1.389 . S
C760 C761 1.387 . S
C761 H746 0.930 . S
C761 C756 1.390 . S
C761 C760 1.387 . S
H762 C774 0.930 . S
H763 C776 0.930 . S
H764 C777 0.930 . S
H765 C781 0.959 . S
H766 C781 0.959 . S
H767 C781 0.961 . S
H768 C782 0.960 . S
H769 C782 0.961 . S
H770 C782 0.959 . S
H771 C785 0.929 . S
H772 C786 0.931 . S
H773 C788 0.930 . S
C774 H762 0.930 . S
C774 C775 1.399 . S
C774 C779 1.399 . S
C775 C774 1.399 . S
C775 C776 1.376 . S
C776 H763 0.930 . S
C776 C775 1.376 . S
C776 C777 1.388 . S
C777 H764 0.930 . S
C777 C776 1.388 . S
C777 C778 1.390 . S
C778 C777 1.390 . S
C778 C779 1.394 . S
C778 C784 1.465 . S
C779 C774 1.399 . S
C779 C778 1.394 . S
C779 C780 1.516 . S
C780 C779 1.516 . S
C780 C781 1.502 . S
C780 C782 1.561 . S
C780 C783 1.526 . S
C781 H765 0.959 . S
C781 H766 0.959 . S
C781 H767 0.961 . S
C781 C780 1.502 . S
C782 H768 0.960 . S
C782 H769 0.961 . S
C782 H770 0.959 . S
C782 C780 1.561 . S
C783 C780 1.526 . S
C783 C784 1.396 . S
C783 C788 1.390 . S
C784 C778 1.465 . S
C784 C783 1.396 . S
C784 C785 1.399 . S
C785 H771 0.929 . S
C785 C784 1.399 . S
C785 C786 1.385 . S
C786 H772 0.931 . S
C786 C785 1.385 . S
C786 C787 1.389 . S
C787 C786 1.389 . S
C787 C788 1.387 . S
C788 H773 0.930 . S
C788 C783 1.390 . S
C788 C787 1.387 . S
H789 C801 0.930 . S
H790 C803 0.930 . S
H791 C804 0.930 . S
H792 C808 0.959 . S
H793 C808 0.959 . S
H794 C808 0.961 . S
H795 C809 0.960 . S
H796 C809 0.961 . S
H797 C809 0.959 . S
H798 C812 0.929 . S
H799 C813 0.931 . S
H800 C815 0.930 . S
C801 H789 0.930 . S
C801 C802 1.399 . S
C801 C806 1.399 . S
C802 C801 1.399 . S
C802 C803 1.376 . S
C803 H790 0.930 . S
C803 C802 1.376 . S
C803 C804 1.388 . S
C804 H791 0.930 . S
C804 C803 1.388 . S
C804 C805 1.390 . S
C805 C804 1.390 . S
C805 C806 1.394 . S
C805 C811 1.465 . S
C806 C801 1.399 . S
C806 C805 1.394 . S
C806 C807 1.516 . S
C807 C806 1.516 . S
C807 C808 1.502 . S
C807 C809 1.561 . S
C807 C810 1.526 . S
C808 H792 0.959 . S
C808 H793 0.959 . S
C808 H794 0.961 . S
C808 C807 1.502 . S
C809 H795 0.960 . S
C809 H796 0.961 . S
C809 H797 0.959 . S
C809 C807 1.561 . S
C810 C807 1.526 . S
C810 C811 1.396 . S
C810 C815 1.390 . S
C811 C805 1.465 . S
C811 C810 1.396 . S
C811 C812 1.399 . S
C812 H798 0.929 . S
C812 C811 1.399 . S
C812 C813 1.385 . S
C813 H799 0.931 . S
C813 C812 1.385 . S
C813 C814 1.389 . S
C814 C813 1.389 . S
C814 C815 1.387 . S
C815 H800 0.930 . S
C815 C810 1.390 . S
C815 C814 1.387 . S
C181 C13 1.653 . S
C193 C85 1.582 . S
C208 C27 1.635 . S
C220 C110 1.633 . S
C247 C113 1.618 . S
C235 C29 1.646 . S
C274 C139 1.588 . S
C262 C54 1.657 . S
C301 C140 1.626 . S
C289 C69 1.645 . S
C328 C167 1.594 . S
C316 C83 1.655 . S
C343 C15 1.646 . S
C355 C112 1.630 . S
C370 C41 1.643 . S
C382 C138 1.637 . S
C409 C141 1.604 . S
C397 C42 1.653 . S
C436 C166 1.629 . S
C424 C57 1.635 . S
C451 C71 1.651 . S
C463 C84 1.591 . S
C490 C111 1.615 . S
C478 C1 1.653 . S
C517 C126 1.587 . S
C505 C12 1.660 . S
C532 C26 1.635 . S
C544 C153 1.643 . S
C571 C154 1.610 . S
C559 C28 1.648 . S
C586 C55 1.644 . S
C598 C96 1.611 . S
C613 C68 1.639 . S
C625 C99 1.632 . S
C640 C82 1.653 . S
C652 C124 1.593 . S
C667 C14 1.637 . S
C679 C155 1.633 . S
C706 C97 1.641 . S
C694 C40 1.633 . S
C721 C43 1.647 . S
C733 C98 1.608 . S
C748 C56 1.646 . S
C760 C125 1.614 . S
C775 C70 1.644 . S
C787 C127 1.618 . S
C802 C0 1.648 . S
C814 C152 1.602 . S
