# Generated by pormake.
# Topology gar, (4,6)-cn, num edge types: 1
# Building blocks:
#     Node 0, Type 0, BuildingBlock: QUQFOY_clean_sbu_1, # of connection points: 4
#     Node 1, Type 0, BuildingBlock: QUQFOY_clean_sbu_1, # of connection points: 4
#     Node 2, Type 0, BuildingBlock: QUQFOY_clean_sbu_1, # of connection points: 4
#     Node 3, Type 0, BuildingBlock: QUQFOY_clean_sbu_1, # of connection points: 4
#     Node 4, Type 0, BuildingBlock: QUQFOY_clean_sbu_1, # of connection points: 4
#     Node 5, Type 0, BuildingBlock: QUQFOY_clean_sbu_1, # of connection points: 4
#     Node 6, Type 0, BuildingBlock: QUQFOY_clean_sbu_1, # of connection points: 4
#     Node 7, Type 0, BuildingBlock: QUQFOY_clean_sbu_1, # of connection points: 4
#     Node 8, Type 0, BuildingBlock: QUQFOY_clean_sbu_1, # of connection points: 4
#     Node 9, Type 0, BuildingBlock: QUQFOY_clean_sbu_1, # of connection points: 4
#     Node 10, Type 0, BuildingBlock: QUQFOY_clean_sbu_1, # of connection points: 4
#     Node 11, Type 0, BuildingBlock: QUQFOY_clean_sbu_1, # of connection points: 4
#     Node 12, Type 0, BuildingBlock: QUQFOY_clean_sbu_1, # of connection points: 4
#     Node 13, Type 0, BuildingBlock: QUQFOY_clean_sbu_1, # of connection points: 4
#     Node 14, Type 0, BuildingBlock: QUQFOY_clean_sbu_1, # of connection points: 4
#     Node 15, Type 0, BuildingBlock: QUQFOY_clean_sbu_1, # of connection points: 4
#     Node 16, Type 0, BuildingBlock: QUQFOY_clean_sbu_1, # of connection points: 4
#     Node 17, Type 0, BuildingBlock: QUQFOY_clean_sbu_1, # of connection points: 4
#     Node 18, Type 0, BuildingBlock: QUQFOY_clean_sbu_1, # of connection points: 4
#     Node 19, Type 0, BuildingBlock: QUQFOY_clean_sbu_1, # of connection points: 4
#     Node 20, Type 0, BuildingBlock: QUQFOY_clean_sbu_1, # of connection points: 4
#     Node 21, Type 0, BuildingBlock: QUQFOY_clean_sbu_1, # of connection points: 4
#     Node 22, Type 0, BuildingBlock: QUQFOY_clean_sbu_1, # of connection points: 4
#     Node 23, Type 0, BuildingBlock: QUQFOY_clean_sbu_1, # of connection points: 4
#     Node 24, Type 1, BuildingBlock: KUMBOL_clean_sbu_0, # of connection points: 6
#     Node 25, Type 1, BuildingBlock: KUMBOL_clean_sbu_0, # of connection points: 6
#     Node 26, Type 1, BuildingBlock: KUMBOL_clean_sbu_0, # of connection points: 6
#     Node 27, Type 1, BuildingBlock: KUMBOL_clean_sbu_0, # of connection points: 6
#     Node 28, Type 1, BuildingBlock: KUMBOL_clean_sbu_0, # of connection points: 6
#     Node 29, Type 1, BuildingBlock: KUMBOL_clean_sbu_0, # of connection points: 6
#     Node 30, Type 1, BuildingBlock: KUMBOL_clean_sbu_0, # of connection points: 6
#     Node 31, Type 1, BuildingBlock: KUMBOL_clean_sbu_0, # of connection points: 6
#     Node 32, Type 1, BuildingBlock: KUMBOL_clean_sbu_0, # of connection points: 6
#     Node 33, Type 1, BuildingBlock: KUMBOL_clean_sbu_0, # of connection points: 6
#     Node 34, Type 1, BuildingBlock: KUMBOL_clean_sbu_0, # of connection points: 6
#     Node 35, Type 1, BuildingBlock: KUMBOL_clean_sbu_0, # of connection points: 6
#     Node 36, Type 1, BuildingBlock: KUMBOL_clean_sbu_0, # of connection points: 6
#     Node 37, Type 1, BuildingBlock: KUMBOL_clean_sbu_0, # of connection points: 6
#     Node 38, Type 1, BuildingBlock: KUMBOL_clean_sbu_0, # of connection points: 6
#     Node 39, Type 1, BuildingBlock: KUMBOL_clean_sbu_0, # of connection points: 6
#     Edge 40, Type (0, 1), BuildingBlock: OJICUG_clean_linker_0, # of connection points: 2
#     Edge 41, Type (0, 1), BuildingBlock: OJICUG_clean_linker_0, # of connection points: 2
#     Edge 42, Type (0, 1), BuildingBlock: OJICUG_clean_linker_0, # of connection points: 2
#     Edge 43, Type (0, 1), BuildingBlock: OJICUG_clean_linker_0, # of connection points: 2
#     Edge 44, Type (0, 1), BuildingBlock: OJICUG_clean_linker_0, # of connection points: 2
#     Edge 45, Type (0, 1), BuildingBlock: OJICUG_clean_linker_0, # of connection points: 2
#     Edge 46, Type (0, 1), BuildingBlock: OJICUG_clean_linker_0, # of connection points: 2
#     Edge 47, Type (0, 1), BuildingBlock: OJICUG_clean_linker_0, # of connection points: 2
#     Edge 48, Type (0, 1), BuildingBlock: OJICUG_clean_linker_0, # of connection points: 2
#     Edge 49, Type (0, 1), BuildingBlock: OJICUG_clean_linker_0, # of connection points: 2
#     Edge 50, Type (0, 1), BuildingBlock: OJICUG_clean_linker_0, # of connection points: 2
#     Edge 51, Type (0, 1), BuildingBlock: OJICUG_clean_linker_0, # of connection points: 2
#     Edge 52, Type (0, 1), BuildingBlock: OJICUG_clean_linker_0, # of connection points: 2
#     Edge 53, Type (0, 1), BuildingBlock: OJICUG_clean_linker_0, # of connection points: 2
#     Edge 54, Type (0, 1), BuildingBlock: OJICUG_clean_linker_0, # of connection points: 2
#     Edge 55, Type (0, 1), BuildingBlock: OJICUG_clean_linker_0, # of connection points: 2
#     Edge 56, Type (0, 1), BuildingBlock: OJICUG_clean_linker_0, # of connection points: 2
#     Edge 57, Type (0, 1), BuildingBlock: OJICUG_clean_linker_0, # of connection points: 2
#     Edge 58, Type (0, 1), BuildingBlock: OJICUG_clean_linker_0, # of connection points: 2
#     Edge 59, Type (0, 1), BuildingBlock: OJICUG_clean_linker_0, # of connection points: 2
#     Edge 60, Type (0, 1), BuildingBlock: OJICUG_clean_linker_0, # of connection points: 2
#     Edge 61, Type (0, 1), BuildingBlock: OJICUG_clean_linker_0, # of connection points: 2
#     Edge 62, Type (0, 1), BuildingBlock: OJICUG_clean_linker_0, # of connection points: 2
#     Edge 63, Type (0, 1), BuildingBlock: OJICUG_clean_linker_0, # of connection points: 2
#     Edge 64, Type (0, 1), BuildingBlock: OJICUG_clean_linker_0, # of connection points: 2
#     Edge 65, Type (0, 1), BuildingBlock: OJICUG_clean_linker_0, # of connection points: 2
#     Edge 66, Type (0, 1), BuildingBlock: OJICUG_clean_linker_0, # of connection points: 2
#     Edge 67, Type (0, 1), BuildingBlock: OJICUG_clean_linker_0, # of connection points: 2
#     Edge 68, Type (0, 1), BuildingBlock: OJICUG_clean_linker_0, # of connection points: 2
#     Edge 69, Type (0, 1), BuildingBlock: OJICUG_clean_linker_0, # of connection points: 2
#     Edge 70, Type (0, 1), BuildingBlock: OJICUG_clean_linker_0, # of connection points: 2
#     Edge 71, Type (0, 1), BuildingBlock: OJICUG_clean_linker_0, # of connection points: 2
#     Edge 72, Type (0, 1), BuildingBlock: OJICUG_clean_linker_0, # of connection points: 2
#     Edge 73, Type (0, 1), BuildingBlock: OJICUG_clean_linker_0, # of connection points: 2
#     Edge 74, Type (0, 1), BuildingBlock: OJICUG_clean_linker_0, # of connection points: 2
#     Edge 75, Type (0, 1), BuildingBlock: OJICUG_clean_linker_0, # of connection points: 2
#     Edge 76, Type (0, 1), BuildingBlock: OJICUG_clean_linker_0, # of connection points: 2
#     Edge 77, Type (0, 1), BuildingBlock: OJICUG_clean_linker_0, # of connection points: 2
#     Edge 78, Type (0, 1), BuildingBlock: OJICUG_clean_linker_0, # of connection points: 2
#     Edge 79, Type (0, 1), BuildingBlock: OJICUG_clean_linker_0, # of connection points: 2
#     Edge 80, Type (0, 1), BuildingBlock: OJICUG_clean_linker_0, # of connection points: 2
#     Edge 81, Type (0, 1), BuildingBlock: OJICUG_clean_linker_0, # of connection points: 2
#     Edge 82, Type (0, 1), BuildingBlock: OJICUG_clean_linker_0, # of connection points: 2
#     Edge 83, Type (0, 1), BuildingBlock: OJICUG_clean_linker_0, # of connection points: 2
#     Edge 84, Type (0, 1), BuildingBlock: OJICUG_clean_linker_0, # of connection points: 2
#     Edge 85, Type (0, 1), BuildingBlock: OJICUG_clean_linker_0, # of connection points: 2
#     Edge 86, Type (0, 1), BuildingBlock: OJICUG_clean_linker_0, # of connection points: 2
#     Edge 87, Type (0, 1), BuildingBlock: OJICUG_clean_linker_0, # of connection points: 2
#     Edge 88, Type (0, 1), BuildingBlock: OJICUG_clean_linker_0, # of connection points: 2
#     Edge 89, Type (0, 1), BuildingBlock: OJICUG_clean_linker_0, # of connection points: 2
#     Edge 90, Type (0, 1), BuildingBlock: OJICUG_clean_linker_0, # of connection points: 2
#     Edge 91, Type (0, 1), BuildingBlock: OJICUG_clean_linker_0, # of connection points: 2
#     Edge 92, Type (0, 1), BuildingBlock: OJICUG_clean_linker_0, # of connection points: 2
#     Edge 93, Type (0, 1), BuildingBlock: OJICUG_clean_linker_0, # of connection points: 2
#     Edge 94, Type (0, 1), BuildingBlock: OJICUG_clean_linker_0, # of connection points: 2
#     Edge 95, Type (0, 1), BuildingBlock: OJICUG_clean_linker_0, # of connection points: 2
#     Edge 96, Type (0, 1), BuildingBlock: OJICUG_clean_linker_0, # of connection points: 2
#     Edge 97, Type (0, 1), BuildingBlock: OJICUG_clean_linker_0, # of connection points: 2
#     Edge 98, Type (0, 1), BuildingBlock: OJICUG_clean_linker_0, # of connection points: 2
#     Edge 99, Type (0, 1), BuildingBlock: OJICUG_clean_linker_0, # of connection points: 2
#     Edge 100, Type (0, 1), BuildingBlock: OJICUG_clean_linker_0, # of connection points: 2
#     Edge 101, Type (0, 1), BuildingBlock: OJICUG_clean_linker_0, # of connection points: 2
#     Edge 102, Type (0, 1), BuildingBlock: OJICUG_clean_linker_0, # of connection points: 2
#     Edge 103, Type (0, 1), BuildingBlock: OJICUG_clean_linker_0, # of connection points: 2
#     Edge 104, Type (0, 1), BuildingBlock: OJICUG_clean_linker_0, # of connection points: 2
#     Edge 105, Type (0, 1), BuildingBlock: OJICUG_clean_linker_0, # of connection points: 2
#     Edge 106, Type (0, 1), BuildingBlock: OJICUG_clean_linker_0, # of connection points: 2
#     Edge 107, Type (0, 1), BuildingBlock: OJICUG_clean_linker_0, # of connection points: 2
#     Edge 108, Type (0, 1), BuildingBlock: OJICUG_clean_linker_0, # of connection points: 2
#     Edge 109, Type (0, 1), BuildingBlock: OJICUG_clean_linker_0, # of connection points: 2
#     Edge 110, Type (0, 1), BuildingBlock: OJICUG_clean_linker_0, # of connection points: 2
#     Edge 111, Type (0, 1), BuildingBlock: OJICUG_clean_linker_0, # of connection points: 2
#     Edge 112, Type (0, 1), BuildingBlock: OJICUG_clean_linker_0, # of connection points: 2
#     Edge 113, Type (0, 1), BuildingBlock: OJICUG_clean_linker_0, # of connection points: 2
#     Edge 114, Type (0, 1), BuildingBlock: OJICUG_clean_linker_0, # of connection points: 2
#     Edge 115, Type (0, 1), BuildingBlock: OJICUG_clean_linker_0, # of connection points: 2
#     Edge 116, Type (0, 1), BuildingBlock: OJICUG_clean_linker_0, # of connection points: 2
#     Edge 117, Type (0, 1), BuildingBlock: OJICUG_clean_linker_0, # of connection points: 2
#     Edge 118, Type (0, 1), BuildingBlock: OJICUG_clean_linker_0, # of connection points: 2
#     Edge 119, Type (0, 1), BuildingBlock: OJICUG_clean_linker_0, # of connection points: 2
#     Edge 120, Type (0, 1), BuildingBlock: OJICUG_clean_linker_0, # of connection points: 2
#     Edge 121, Type (0, 1), BuildingBlock: OJICUG_clean_linker_0, # of connection points: 2
#     Edge 122, Type (0, 1), BuildingBlock: OJICUG_clean_linker_0, # of connection points: 2
#     Edge 123, Type (0, 1), BuildingBlock: OJICUG_clean_linker_0, # of connection points: 2
#     Edge 124, Type (0, 1), BuildingBlock: OJICUG_clean_linker_0, # of connection points: 2
#     Edge 125, Type (0, 1), BuildingBlock: OJICUG_clean_linker_0, # of connection points: 2
#     Edge 126, Type (0, 1), BuildingBlock: OJICUG_clean_linker_0, # of connection points: 2
#     Edge 127, Type (0, 1), BuildingBlock: OJICUG_clean_linker_0, # of connection points: 2
#     Edge 128, Type (0, 1), BuildingBlock: OJICUG_clean_linker_0, # of connection points: 2
#     Edge 129, Type (0, 1), BuildingBlock: OJICUG_clean_linker_0, # of connection points: 2
#     Edge 130, Type (0, 1), BuildingBlock: OJICUG_clean_linker_0, # of connection points: 2
#     Edge 131, Type (0, 1), BuildingBlock: OJICUG_clean_linker_0, # of connection points: 2
#     Edge 132, Type (0, 1), BuildingBlock: OJICUG_clean_linker_0, # of connection points: 2
#     Edge 133, Type (0, 1), BuildingBlock: OJICUG_clean_linker_0, # of connection points: 2
#     Edge 134, Type (0, 1), BuildingBlock: OJICUG_clean_linker_0, # of connection points: 2
#     Edge 135, Type (0, 1), BuildingBlock: OJICUG_clean_linker_0, # of connection points: 2
# Relax obj value: 0.161
# Max RMSD: 0.360
# Mean RMSD: 0.181
data_MOF--net-gar--node1-QUQFOY_clean_sbu_1--node2-KUMBOL_clean_sbu_0--edge1-OJICUG_clean_linker_0
_symmetry_space_group_name_H-M    P1
_symmetry_Int_Tables_number       1
_symmetry_cell_setting            triclinic
loop_
_symmetry_equiv_pos_as_xyz
'x, y, z'
_cell_length_a     48.272108
_cell_length_b     42.420638
_cell_length_c     42.639882
_cell_angle_alpha  101.33716
_cell_angle_beta   94.718936
_cell_angle_gamma 105.05943
loop_
_atom_site_label
_atom_site_type_symbol
_atom_site_fract_x
_atom_site_fract_y
_atom_site_fract_z
_atom_type_partial_charge
O0 O 0.15062 0.29762 0.41018 0.0
Cd1 Cd 0.1586 0.32406 0.37479 0.0
Cd2 Cd 0.15636 0.37721 0.42694 0.0
O3 O 0.16546 0.34247 0.45023 0.0
O4 O 0.17445 0.29955 0.33934 0.0
O5 O 0.19871 0.34908 0.37087 0.0
C6 C 0.19757 0.32455 0.34688 0.0
C7 C 0.16019 0.42787 0.46268 0.0
C8 C 0.15691 0.31091 0.44017 0.0
C9 C 0.10863 0.35057 0.36899 0.0
O10 O 0.11737 0.36634 0.39806 0.0
O11 O 0.12359 0.33408 0.35356 0.0
O12 O 0.14353 0.4 0.46547 0.0
O13 O 0.17649 0.4274 0.44023 0.0
O14 O 0.9934 0.69216 0.68747 0.0
Cd15 Cd 1.00237 0.74126 0.71186 0.0
Cd16 Cd 1.01285 0.74894 0.65356 0.0
O17 O 0.97988 0.70581 0.64357 0.0
O18 O 0.97906 0.74932 0.74648 0.0
O19 O 0.97672 0.76739 0.70069 0.0
C20 C 0.96781 0.76516 0.72824 0.0
C21 C 0.02166 0.78402 0.6189 0.0
C22 C 0.98673 0.68425 0.65697 0.0
C23 C 0.06197 0.75859 0.70491 0.0
O24 O 0.05177 0.7473 0.67528 0.0
O25 O 0.04539 0.76467 0.72544 0.0
O26 O 0.02405 0.75404 0.61152 0.0
O27 O 1.01102 0.79323 0.64485 0.0
O28 O 0.71164 0.85941 0.89918 0.0
Cd29 Cd 0.68257 0.86078 0.93204 0.0
Cd30 Cd 0.65609 0.87831 0.88448 0.0
O31 O 0.68292 0.85992 0.85654 0.0
O32 O 0.6905 0.8354 0.96444 0.0
O33 O 0.65085 0.81901 0.92823 0.0
C34 C 0.6656 0.81419 0.95268 0.0
C35 C 0.60887 0.86923 0.86331 0.0
C36 C 0.70631 0.85627 0.86881 0.0
C37 C 0.67134 0.9276 0.94485 0.0
O38 O 0.67017 0.92463 0.91466 0.0
O39 O 0.67475 0.90372 0.95709 0.0
O40 O 0.62981 0.88908 0.85382 0.0
O41 O 0.6147 0.85215 0.88362 0.0
O42 O 0.49585 0.18017 0.17476 0.0
Cd43 Cd 0.5039 0.22778 0.20295 0.0
Cd44 Cd 0.51934 0.23943 0.15033 0.0
O45 O 0.48368 0.19965 0.13417 0.0
O46 O 0.4808 0.2299 0.2383 0.0
O47 O 0.47649 0.25391 0.19656 0.0
C48 C 0.46852 0.24761 0.22349 0.0
C49 C 0.53248 0.28055 0.12286 0.0
C50 C 0.48777 0.1751 0.14468 0.0
C51 C 0.56402 0.24293 0.20245 0.0
O52 O 0.55553 0.23137 0.17249 0.0
O53 O 0.54635 0.2509 0.2207 0.0
O54 O 0.53407 0.25071 0.11161 0.0
O55 O 0.52095 0.28667 0.14886 0.0
O56 O 0.12924 0.78033 0.13122 0.0
Cd57 Cd 0.12999 0.82776 0.15377 0.0
Cd58 Cd 0.14647 0.84629 0.10131 0.0
O59 O 0.12874 0.79022 0.08251 0.0
O60 O 0.1042 0.81861 0.18681 0.0
O61 O 0.09337 0.84187 0.14704 0.0
C62 C 0.086 0.82965 0.17151 0.0
C63 C 0.13064 0.89575 0.08694 0.0
C64 C 0.12703 0.76907 0.10106 0.0
C65 C 0.19195 0.85726 0.16279 0.0
O66 O 0.18758 0.85464 0.13203 0.0
O67 O 0.17039 0.8542 0.17834 0.0
O68 O 0.14542 0.87974 0.0692 0.0
O69 O 0.12405 0.88369 0.11185 0.0
O70 O 0.59272 0.78577 0.44599 0.0
Cd71 Cd 0.57009 0.78437 0.48576 0.0
Cd72 Cd 0.52752 0.80377 0.42642 0.0
O73 O 0.56394 0.79426 0.40631 0.0
O74 O 0.59011 0.7608 0.51658 0.0
O75 O 0.54771 0.73569 0.48802 0.0
C76 C 0.56906 0.7335 0.50714 0.0
C77 C 0.48283 0.79989 0.3925 0.0
C78 C 0.58765 0.78923 0.41716 0.0
C79 C 0.55422 0.85461 0.49392 0.0
O80 O 0.53976 0.84453 0.46559 0.0
O81 O 0.56613 0.83502 0.50662 0.0
O82 O 0.50726 0.82055 0.3912 0.0
O83 O 0.48337 0.78041 0.41214 0.0
O84 O 0.63783 0.27322 0.6327 0.0
Cd85 Cd 0.63978 0.31905 0.66022 0.0
Cd86 Cd 0.65924 0.34415 0.61039 0.0
O87 O 0.64218 0.28913 0.58682 0.0
O88 O 0.61037 0.30637 0.68904 0.0
O89 O 0.6054 0.33742 0.65406 0.0
C90 C 0.59473 0.32141 0.67505 0.0
C91 C 0.64141 0.39204 0.5951 0.0
C92 C 0.63771 0.26535 0.60246 0.0
C93 C 0.70252 0.3503 0.67455 0.0
O94 O 0.69939 0.35266 0.64469 0.0
O95 O 0.67999 0.34135 0.68784 0.0
O96 O 0.65909 0.37894 0.57943 0.0
O97 O 0.63362 0.37843 0.61877 0.0
O98 O 0.04226 0.22308 0.948 0.0
Cd99 Cd 0.04169 0.25862 0.92009 0.0
Cd100 Cd 0.02634 0.29502 0.97879 0.0
O101 O 0.04039 0.25298 0.99589 0.0
O102 O 0.06553 0.24672 0.88515 0.0
O103 O 0.08039 0.29329 0.92315 0.0
C104 C 0.0857 0.27385 0.89841 0.0
C105 C 0.0452 0.35606 1.00141 0.0
C106 C 0.04431 0.22605 0.97855 0.0
C107 C 0.98392 0.27734 0.91265 0.0
O108 O 0.98806 0.28684 0.94369 0.0
O109 O 1.00292 0.26593 0.89862 0.0
O110 O 0.0271 0.33683 0.01509 0.0
O111 O 0.05468 0.34072 0.97712 0.0
O112 O 0.4323 0.03141 0.28756 0.0
Cd113 Cd 0.4196 0.04442 0.33245 0.0
Cd114 Cd 0.47242 0.05368 0.34124 0.0
O115 O 0.46927 0.07535 0.30327 0.0
O116 O 0.41492 0.0897 0.34443 0.0
O117 O 0.37944 0.0429 0.32286 0.0
C118 C 0.3883 0.0752 0.33135 0.0
C119 C 0.51003 0.07098 0.38047 0.0
C120 C 0.45376 0.05198 0.28057 0.0
C121 C 0.43101 0.99222 0.3465 0.0
O122 O 0.45296 1.0032 0.33329 0.0
O123 O 0.42046 1.01348 0.36256 0.0
O124 O 0.51277 0.0561 0.35194 0.0
O125 O 0.48637 0.07887 0.38565 0.0
O126 O 0.32742 0.21681 0.57706 0.0
Cd127 Cd 0.32391 0.18451 0.53284 0.0
Cd128 Cd 0.30605 0.23432 0.51274 0.0
O129 O 0.32086 0.26155 0.56205 0.0
O130 O 0.34246 0.15174 0.54658 0.0
O131 O 0.36167 0.18442 0.51492 0.0
C132 C 0.36356 0.16237 0.53133 0.0
C133 C 0.32005 0.24995 0.46335 0.0
C134 C 0.32654 0.24702 0.58446 0.0
C135 C 0.26131 0.16703 0.5083 0.0
O136 O 0.26614 0.19816 0.50863 0.0
O137 O 0.28233 0.15489 0.51322 0.0
O138 O 0.30365 0.26385 0.4804 0.0
O139 O 0.32985 0.22834 0.47496 0.0
O140 O 0.19607 1.01614 0.71968 0.0
Cd141 Cd 0.2336 1.01429 0.75416 0.0
Cd142 Cd 0.18521 0.0531 0.80024 0.0
O143 O 0.16645 0.04133 0.7474 0.0
O144 O 0.26121 0.98281 0.73489 0.0
O145 O 0.24072 0.97407 0.77633 0.0
C146 C 0.25773 0.96504 0.75655 0.0
C147 C 0.16133 0.05091 0.85303 0.0
C148 C 0.17406 0.02894 0.71985 0.0
C149 C 0.24987 0.09402 0.79015 0.0
O150 O 0.22594 0.09032 0.80246 0.0
O151 O 0.25634 0.06831 0.77354 0.0
O152 O 0.16277 0.07449 0.83749 0.0
O153 O 0.17201 0.02778 0.83879 0.0
O154 O 0.36419 0.97495 0.06841 0.0
Cd155 Cd 0.36739 0.99972 0.03149 0.0
Cd156 Cd 0.36536 0.94147 1.00435 0.0
O157 O 0.33882 0.92738 0.03659 0.0
O158 O 0.35058 0.03745 0.04201 0.0
O159 O 0.32958 0.99086 1.00412 0.0
C160 C 0.32831 1.01903 0.02147 0.0
C161 C 0.36102 0.90924 0.95329 0.0
C162 C 0.34912 0.94473 0.06488 0.0
C163 C 0.42202 0.99106 0.02285 0.0
O164 O 0.40751 0.96174 0.02312 0.0
O165 O 0.40888 1.01285 0.01952 0.0
O166 O 0.36975 0.89966 0.97816 0.0
O167 O 0.35295 0.93633 0.95744 0.0
O168 O 0.35353 0.39752 0.10414 0.0
Cd169 Cd 0.36217 0.42952 0.07364 0.0
Cd170 Cd 0.37457 0.3719 0.03526 0.0
O171 O 0.35609 0.35007 0.07356 0.0
O172 O 0.341 0.46357 0.08824 0.0
O173 O 0.32904 0.42744 0.04089 0.0
C174 C 0.32362 0.45111 0.06143 0.0
C175 C 0.35943 0.35121 0.9777 0.0
C176 C 0.35041 0.36623 0.09994 0.0
C177 C 0.42355 0.4395 0.05959 0.0
O178 O 0.41563 0.40815 0.04636 0.0
O179 O 0.40518 0.45372 0.07112 0.0
O180 O 0.37563 0.33805 0.99357 0.0
O181 O 0.3502 0.37421 0.99467 0.0
O182 O 0.80781 0.14433 0.11617 0.0
Cd183 Cd 0.79979 0.10567 0.07719 0.0
Cd184 Cd 0.80712 0.15813 0.05159 0.0
O185 O 0.8382 0.17405 0.09075 0.0
O186 O 0.82399 0.07424 0.0783 0.0
O187 O 0.82925 0.11234 0.04844 0.0
C188 C 0.83838 0.08986 0.05886 0.0
C189 C 0.8137 0.17818 1.00625 0.0
C190 C 0.82682 0.17122 0.11608 0.0
C191 C 0.74805 0.11905 0.05649 0.0
O192 O 0.7651 0.14813 0.05962 0.0
O193 O 0.758 0.09392 0.05578 0.0
O194 O 0.81266 0.19745 0.03325 0.0
O195 O 0.81264 0.14728 1.00518 0.0
O196 O 0.22319 0.56489 0.19527 0.0
Cd197 Cd 0.26151 0.56665 0.22079 0.0
Cd198 Cd 0.22458 0.57162 0.26712 0.0
O199 O 0.19874 0.53859 0.22824 0.0
O200 O 0.28037 0.52974 0.21107 0.0
O201 O 0.25489 0.53794 0.25129 0.0
C202 C 0.27024 0.52114 0.23628 0.0
C203 C 0.20744 0.5768 0.31469 0.0
C204 C 0.19944 0.54841 0.20217 0.0
C205 C 0.27231 0.63123 0.25977 0.0
O206 O 0.24706 0.61833 0.26542 0.0
O207 O 0.2861 0.6133 0.24407 0.0
O208 O 0.19561 0.5849 0.29054 0.0
O209 O 0.22789 0.56249 0.31122 0.0
O210 O 0.85526 0.90436 0.61256 0.0
Cd211 Cd 0.86344 0.93264 0.57926 0.0
Cd212 Cd 0.8738 0.87597 0.54241 0.0
O213 O 0.85398 0.8556 0.58164 0.0
O214 O 0.84094 0.96552 0.58934 0.0
O215 O 0.83131 0.92605 0.54407 0.0
C216 C 0.82474 0.95057 0.5621 0.0
C217 C 0.86025 0.85316 0.48451 0.0
C218 C 0.84987 0.87283 0.60846 0.0
C219 C 0.92356 0.94354 0.5651 0.0
O220 O 0.9155 0.91192 0.55282 0.0
O221 O 0.9054 0.95797 0.57651 0.0
O222 O 0.87535 0.84041 0.50218 0.0
O223 O 0.85106 0.87714 0.49961 0.0
O224 O 0.9757 0.08515 0.22577 0.0
Cd225 Cd 0.93862 0.08687 0.25506 0.0
Cd226 Cd 0.99605 0.05677 0.29869 0.0
O227 O 1.01114 0.06985 0.25196 0.0
O228 O 0.90894 0.11156 0.23482 0.0
O229 O 0.93165 0.13336 0.28269 0.0
C230 C 0.91343 0.13602 0.25996 0.0
C231 C 0.02287 0.06189 0.35515 0.0
C232 C 1.00072 0.07848 0.22651 0.0
C233 C 0.92759 1.01328 0.2775 0.0
O234 O 0.95439 1.01998 0.28959 0.0
O235 O 0.91839 0.03518 0.26489 0.0
O236 O 0.02473 0.04053 0.32972 0.0
O237 O 1.00801 0.08183 0.34877 0.0
O238 O 0.31704 0.65302 0.61423 0.0
Cd239 Cd 0.30513 0.61292 0.57658 0.0
Cd240 Cd 0.3103 0.66389 0.54662 0.0
O241 O 0.34313 0.68045 0.58385 0.0
O242 O 0.32731 0.5799 0.57791 0.0
O243 O 0.33231 0.61513 0.54483 0.0
C244 C 0.34097 0.59285 0.55645 0.0
C245 C 0.31403 0.68469 0.50116 0.0
C246 C 0.33294 0.68038 0.61022 0.0
C247 C 0.25226 0.62753 0.55975 0.0
O248 O 0.26937 0.65531 0.55829 0.0
O249 O 0.26172 0.60222 0.56051 0.0
O250 O 0.31439 0.70362 0.52883 0.0
O251 O 0.31314 0.6537 0.49934 0.0
O252 O 0.47906 0.58801 0.73023 0.0
Cd253 Cd 0.44016 0.59022 0.75654 0.0
Cd254 Cd 0.49865 0.55953 0.80409 0.0
O255 O 0.51379 0.57221 0.7576 0.0
O256 O 0.41106 0.61418 0.73297 0.0
O257 O 0.43115 0.63717 0.78146 0.0
C258 C 0.41408 0.63919 0.75727 0.0
C259 C 0.52519 0.5625 0.86068 0.0
C260 C 0.50394 0.58089 0.7319 0.0
C261 C 0.43019 0.51581 0.77843 0.0
O262 O 0.45679 0.52346 0.79166 0.0
O263 O 0.4205 0.53763 0.76599 0.0
O264 O 0.52659 0.54148 0.83475 0.0
O265 O 0.51067 0.58298 0.85488 0.0
O266 O 0.72549 0.06307 0.68694 0.0
Cd267 Cd 0.76414 0.06721 0.71327 0.0
Cd268 Cd 0.72793 0.06895 0.75876 0.0
O269 O 0.70113 0.03676 0.72005 0.0
O270 O 0.78885 0.03678 0.70295 0.0
O271 O 0.75941 0.0351 0.74064 0.0
C272 C 0.7788 0.02441 0.72651 0.0
C273 C 0.7122 0.07086 0.80772 0.0
C274 C 0.70178 0.04651 0.69392 0.0
C275 C 0.77166 0.13115 0.75304 0.0
O276 O 0.74618 0.11715 0.75726 0.0
O277 O 0.78652 0.11416 0.73817 0.0
O278 O 0.69866 0.07853 0.78451 0.0
O279 O 0.73401 0.05924 0.80272 0.0
O280 O 0.81985 0.71994 0.08445 0.0
Cd281 Cd 0.82279 0.69064 0.04075 0.0
Cd282 Cd 0.80595 0.74006 0.02037 0.0
O283 O 0.81965 0.7671 0.07029 0.0
O284 O 0.84104 0.65901 0.05712 0.0
O285 O 0.86287 0.693 0.02788 0.0
C286 C 0.86361 0.67081 0.04448 0.0
C287 C 0.81941 0.75698 0.97106 0.0
C288 C 0.82059 0.75065 0.09243 0.0
C289 C 0.76199 0.67107 0.01311 0.0
O290 O 0.76632 0.70256 0.01558 0.0
O291 O 0.7834 0.65929 0.01674 0.0
O292 O 0.80273 0.77001 0.98844 0.0
O293 O 0.82983 0.73557 0.98227 0.0
O294 O 0.93301 0.53636 0.79964 0.0
Cd295 Cd 0.92103 0.54705 0.84531 0.0
Cd296 Cd 0.97295 0.56137 0.85192 0.0
O297 O 0.9663 0.5836 0.81515 0.0
O298 O 0.91459 0.59116 0.85835 0.0
O299 O 0.88039 0.54304 0.83694 0.0
C300 C 0.88811 0.57535 0.8455 0.0
C301 C 1.00925 0.5822 0.89223 0.0
C302 C 0.95211 0.55952 0.79236 0.0
C303 C 0.93856 0.49778 0.86132 0.0
O304 O 0.95782 0.51003 0.84516 0.0
O305 O 0.92457 0.51649 0.87513 0.0
O306 O 0.0141 0.56967 0.86377 0.0
O307 O 0.98406 0.58633 0.89651 0.0
O308 O 0.8782 0.48305 0.5773 0.0
Cd309 Cd 0.87527 0.50248 0.53734 0.0
Cd310 Cd 0.87145 0.44205 0.51422 0.0
O311 O 0.84557 0.43867 0.54947 0.0
O312 O 0.8561 0.53788 0.54503 0.0
O313 O 0.8358 0.48715 0.51264 0.0
C314 C 0.83358 0.51591 0.52749 0.0
C315 C 0.86316 0.40239 0.4673 0.0
C316 C 0.86092 0.45456 0.57619 0.0
C317 C 0.92788 0.49299 0.52378 0.0
O318 O 0.91475 0.4644 0.52791 0.0
O319 O 0.91362 0.51342 0.51928 0.0
O320 O 0.87004 0.39538 0.4944 0.0
O321 O 0.85897 0.43125 0.46715 0.0
O322 O 0.69936 0.51262 0.22644 0.0
Cd323 Cd 0.73642 0.51249 0.26254 0.0
Cd324 Cd 0.68728 0.54955 0.30669 0.0
O325 O 0.66867 0.53626 0.25352 0.0
O326 O 0.76457 0.48071 0.24513 0.0
O327 O 0.74285 0.47249 0.28584 0.0
C328 C 0.76029 0.46306 0.26686 0.0
C329 C 0.66414 0.54597 0.35985 0.0
C330 C 0.67683 0.52446 0.22612 0.0
C331 C 0.75057 0.59322 0.29669 0.0
O332 O 0.72642 0.58905 0.30859 0.0
O333 O 0.75797 0.56754 0.28122 0.0
O334 O 0.66004 0.56564 0.3413 0.0
O335 O 0.68008 0.52738 0.34841 0.0
Gd336 Gd 0.12075 0.09238 0.06362 0.0
Gd337 Gd 0.05573 0.03905 0.02253 0.0
C338 C 0.02188 0.93002 0.03184 0.0
C339 C 1.00961 0.89978 0.97579 0.0
C340 C 0.03295 0.96002 0.98953 0.0
C341 C 0.03338 0.96023 0.02201 0.0
C342 C 0.02139 0.92962 0.96609 0.0
C343 C 1.00971 0.90002 1.0086 0.0
C344 C 0.02269 0.93074 0.06476 0.0
C345 C 0.03509 0.96087 0.08707 0.0
N346 N 0.04472 0.98982 0.04395 0.0
C347 C 0.04589 0.9901 0.0763 0.0
H348 H 0.05615 1.01234 0.09454 0.0
C349 C 0.04106 0.99009 0.9485 0.0
N350 N 0.04314 0.98949 0.98071 0.0
C351 C 0.03098 0.96053 0.9246 0.0
C352 C 0.02145 0.93009 0.93345 0.0
H353 H 0.04696 1.0136 0.94101 0.0
H354 H 1.00042 0.87682 0.01576 0.0
H355 H 0.12021 0.11933 0.99033 0.0
H356 H 0.01409 0.90814 0.0732 0.0
H357 H 0.03643 0.96167 0.11269 0.0
H358 H 1.00014 0.87643 0.95808 0.0
H359 H 0.12407 0.12045 0.14558 0.0
H360 H 0.16799 0.22162 0.01224 0.0
H361 H 0.14377 0.16878 0.97263 0.0
H362 H 0.17698 0.25491 0.12676 0.0
H363 H 0.03011 0.96135 0.89933 0.0
H364 H 0.01375 0.90715 0.9149 0.0
H365 H 0.1806 0.25314 0.06945 0.0
H366 H 0.13524 0.17366 0.18509 0.0
N367 N 0.13156 0.14132 0.04123 0.0
C368 C 0.15767 0.19948 0.02059 0.0
C369 C 0.14422 0.16974 0.99823 0.0
C370 C 0.15697 0.20055 0.05339 0.0
C371 C 0.14337 0.17088 0.06316 0.0
C372 C 0.13129 0.14105 1.00888 0.0
N373 N 0.13023 0.14266 0.10465 0.0
C374 C 0.14191 0.17174 0.09557 0.0
C375 C 0.13757 0.17349 0.16006 0.0
C376 C 0.15017 0.20314 0.15111 0.0
C377 C 0.12958 0.14328 0.13696 0.0
C378 C 0.15323 0.20244 0.11876 0.0
H379 H 0.15798 0.22629 0.16943 0.0
O380 O 0.16003 0.10861 0.09795 0.0
O381 O 0.09941 0.03663 0.04373 0.0
O382 O 0.04505 0.05598 0.07478 0.0
O383 O 0.08887 0.08942 0.10319 0.0
O384 O 0.1187 0.05103 0.09113 0.0
O385 O 0.16174 0.08772 0.04802 0.0
O386 O 0.02207 0.03906 0.98635 0.0
O387 O 0.07722 0.09533 0.04237 0.0
O388 O 0.12885 0.07628 1.00985 0.0
O389 O 0.08738 0.03533 0.98414 0.0
O390 O 0.06105 0.07915 0.99392 0.0
O391 O 1.01176 0.03517 0.0349 0.0
C392 C 0.10629 0.02509 0.06815 0.0
C393 C 0.16749 0.23149 0.10915 0.0
C394 C 0.16957 0.23048 0.07656 0.0
C395 C 0.17624 0.10011 0.0769 0.0
C396 C 0.19919 0.0857 0.0875 0.0
C397 C 0.20867 0.09065 0.1207 0.0
C398 C 0.21438 0.07089 0.0648 0.0
C399 C 0.23824 0.06061 0.07528 0.0
C400 C 0.23243 0.08047 0.13102 0.0
C401 C 0.24709 0.0654 0.10847 0.0
C402 C 0.06065 0.07452 0.10277 0.0
C403 C 0.07141 0.1056 0.0167 0.0
C404 C 1.00259 0.03609 1.00554 0.0
C405 C 0.97261 0.03307 0.99351 0.0
C406 C 0.96176 1.01816 0.96085 0.0
C407 C 0.95551 0.04741 0.01361 0.0
C408 C 0.92805 0.0478 1.00068 0.0
C409 C 0.93417 1.01807 0.94822 0.0
C410 C 0.91744 0.03313 0.96797 0.0
C411 C 0.11391 0.05427 0.98302 0.0
H412 H 0.19818 0.10313 0.13878 0.0
H413 H 0.20814 0.06803 0.03916 0.0
H414 H 0.23981 0.08481 0.15659 0.0
H415 H 0.26586 0.05823 0.11691 0.0
H416 H 0.97474 1.00691 0.94503 0.0
H417 H 0.96388 0.05932 0.03874 0.0
H418 H 0.92586 1.00664 0.92305 0.0
H419 H 0.89611 0.03315 0.95782 0.0
Gd420 Gd 0.31961 0.83235 0.31105 0.0
Gd421 Gd 0.35009 0.80697 0.23745 0.0
C422 C 0.30468 0.70776 0.1643 0.0
C423 C 0.34455 0.68338 0.15661 0.0
C424 C 0.35125 0.73491 0.19727 0.0
C425 C 0.32295 0.73469 0.18838 0.0
C426 C 0.3623 0.70917 0.18148 0.0
C427 C 0.31578 0.6826 0.14811 0.0
C428 C 0.2756 0.70648 0.15744 0.0
C429 C 0.26507 0.73086 0.17521 0.0
N430 N 0.31304 0.76001 0.20393 0.0
C431 C 0.28393 0.75722 0.19856 0.0
H432 H 0.27436 0.7745 0.21248 0.0
C433 C 0.39657 0.76199 0.22931 0.0
N434 N 0.3681 0.76036 0.22122 0.0
C435 C 0.4083 0.73697 0.21471 0.0
C436 C 0.39109 0.71037 0.19067 0.0
H437 H 0.41111 0.78378 0.24535 0.0
H438 H 0.30217 0.66219 0.1292 0.0
H439 H 0.39156 0.86915 0.34096 0.0
H440 H 0.26093 0.68622 0.13921 0.0
H441 H 0.24229 0.72935 0.171 0.0
H442 H 0.35282 0.66376 0.14395 0.0
H443 H 0.25468 0.84548 0.30079 0.0
H444 H 0.39687 0.95317 0.41686 0.0
H445 H 0.41991 0.91378 0.38599 0.0
H446 H 0.30086 0.96528 0.40726 0.0
H447 H 0.43092 0.73888 0.22125 0.0
H448 H 0.40038 0.69128 0.17892 0.0
H449 H 0.35242 0.97229 0.42449 0.0
H450 H 0.22886 0.88462 0.32602 0.0
N451 N 0.35153 0.88089 0.34642 0.0
C452 C 0.38401 0.93313 0.39715 0.0
C453 C 0.39703 0.91088 0.3799 0.0
C454 C 0.3547 0.92975 0.38819 0.0
C455 C 0.33893 0.90322 0.36226 0.0
C456 C 0.38051 0.88501 0.35444 0.0
N457 N 0.29596 0.87387 0.32719 0.0
C458 C 0.31025 0.89974 0.35213 0.0
C459 C 0.25189 0.88956 0.33326 0.0
C460 C 0.2666 0.91688 0.35822 0.0
C461 C 0.2668 0.86785 0.31849 0.0
C462 C 0.29606 0.92205 0.36823 0.0
H463 H 0.25489 0.93328 0.37011 0.0
O464 O 0.28063 0.80817 0.32832 0.0
O465 O 0.32741 0.79031 0.27633 0.0
O466 O 0.31104 0.82408 0.22059 0.0
O467 O 0.29572 0.84697 0.26896 0.0
O468 O 0.28484 0.78811 0.28231 0.0
O469 O 0.32302 0.81688 0.35696 0.0
O470 O 0.39489 0.83187 0.23393 0.0
O471 O 0.35271 0.84644 0.28048 0.0
O472 O 0.35862 0.81533 0.32773 0.0
O473 O 0.37859 0.80051 0.28074 0.0
O474 O 0.35533 0.86153 0.23745 0.0
O475 O 0.36389 0.80568 0.19069 0.0
C476 C 0.30205 0.77158 0.2708 0.0
C477 C 0.31145 0.94813 0.39441 0.0
C478 C 0.34075 0.95202 0.40432 0.0
C479 C 0.2949 0.80549 0.3543 0.0
C480 C 0.27971 0.79103 0.37854 0.0
C481 C 0.25278 0.79589 0.38461 0.0
C482 C 0.29125 0.77043 0.39422 0.0
C483 C 0.27572 0.75394 0.41536 0.0
C484 C 0.23746 0.7799 0.40618 0.0
C485 C 0.24874 0.7587 0.42136 0.0
C486 C 0.29355 0.83929 0.23659 0.0
C487 C 0.35588 0.87144 0.26818 0.0
C488 C 0.39059 0.82286 0.20247 0.0
C489 C 0.40482 0.84674 0.18456 0.0
C490 C 0.43342 0.84881 0.17905 0.0
C491 C 0.38894 0.864 0.16929 0.0
C492 C 0.40122 0.88238 0.14775 0.0
C493 C 0.4459 0.86778 0.15786 0.0
C494 C 0.42976 0.88441 0.14197 0.0
C495 C 0.37907 0.80538 0.31273 0.0
H496 H 0.24363 0.81192 0.37263 0.0
H497 H 0.31196 0.76648 0.38935 0.0
H498 H 0.2168 0.78382 0.41104 0.0
H499 H 0.23674 0.74654 0.43817 0.0
H500 H 0.44569 0.83492 0.19032 0.0
H501 H 0.36662 0.86193 0.17299 0.0
H502 H 0.46779 0.8689 0.15314 0.0
H503 H 0.43923 0.89825 0.1248 0.0
Gd504 Gd 0.55982 0.06128 0.56654 0.0
Gd505 Gd 0.62664 0.05742 0.53758 0.0
C506 C 0.68941 0.16094 0.54956 0.0
C507 C 0.69179 0.16564 0.4939 0.0
C508 C 0.66169 0.11489 0.50571 0.0
C509 C 0.66972 0.12872 0.53858 0.0
C510 C 0.6733 0.13292 0.48305 0.0
C511 C 0.69981 0.17962 0.52707 0.0
C512 C 0.69879 0.17298 0.58277 0.0
C513 C 0.6892 0.15263 0.60403 0.0
N514 N 0.65953 0.11001 0.55979 0.0
C515 C 0.66955 0.12095 0.59198 0.0
H516 H 0.66244 0.10519 0.60829 0.0
C517 C 0.63937 0.06666 0.46401 0.0
N518 N 0.64397 0.08308 0.49592 0.0
C519 C 0.65012 0.08368 0.44068 0.0
C520 C 0.66679 0.11711 0.45018 0.0
H521 H 0.62657 0.04071 0.45671 0.0
H522 H 0.71472 0.20455 0.53507 0.0
H523 H 0.50531 0.02441 0.50288 0.0
H524 H 0.71396 0.19756 0.59215 0.0
H525 H 0.69682 0.16136 0.62967 0.0
H526 H 0.70068 0.18 0.47683 0.0
H527 H 0.56556 0.0702 0.64878 0.0
H528 H 0.46023 0.92791 0.5148 0.0
H529 H 0.46824 0.971 0.48253 0.0
H530 H 0.49414 0.93012 0.62349 0.0
H531 H 0.64567 0.07096 0.41541 0.0
H532 H 0.6753 0.13015 0.43206 0.0
H533 H 0.47071 0.91248 0.56712 0.0
H534 H 0.55348 0.03504 0.68752 0.0
N535 N 0.52156 1.01112 0.54529 0.0
C536 C 0.47732 0.95115 0.52365 0.0
C537 C 0.48179 0.97538 0.50537 0.0
C538 C 0.49359 0.95819 0.55411 0.0
C539 C 0.51552 0.98903 0.56467 0.0
C540 C 0.5036 1.00555 0.51687 0.0
N541 N 0.54649 0.03067 0.60694 0.0
C542 C 0.52856 0.99906 0.59648 0.0
C543 C 0.54677 0.02434 0.66193 0.0
C544 C 0.53041 0.99104 0.65123 0.0
C545 C 0.55395 0.04408 0.63954 0.0
C546 C 0.52023 0.97832 0.61833 0.0
H547 H 0.52438 0.97598 0.66871 0.0
O548 O 0.54367 0.09247 0.60317 0.0
O549 O 0.60551 0.09363 0.56599 0.0
O550 O 0.62404 0.04318 0.58506 0.0
O551 O 0.59573 0.07459 0.60832 0.0
O552 O 0.57136 0.10989 0.54999 0.0
O553 O 0.52459 0.08088 0.55285 0.0
O554 O 0.64406 1.01863 0.51353 0.0
O555 O 0.58576 0.02516 0.54971 0.0
O556 O 0.55451 0.04985 0.51252 0.0
O557 O 0.60049 0.07253 0.50111 0.0
O558 O 0.59761 1.00946 0.50519 0.0
O559 O 0.66819 0.05281 0.55758 0.0
C560 C 0.59908 0.11807 0.55634 0.0
C561 C 0.50047 0.94643 0.60711 0.0
C562 C 0.48714 0.93638 0.57502 0.0
C563 C 0.52403 0.09609 0.58233 0.0
C564 C 0.49543 0.09633 0.59164 0.0
C565 C 0.48675 0.08666 0.61979 0.0
C566 C 0.47758 0.10958 0.57331 0.0
C567 C 0.45177 0.11412 0.58357 0.0
C568 C 0.46087 0.09088 0.62984 0.0
C569 C 0.44359 0.10485 0.61204 0.0
C570 C 0.61387 0.0565 0.61035 0.0
C571 C 0.57953 1.00074 0.52485 0.0
C572 C 0.66761 0.02768 0.53417 0.0
C573 C 0.69446 0.02736 0.52042 0.0
C574 C 0.70084 0.04107 0.49359 0.0
C575 C 0.7126 1.01017 0.53245 0.0
C576 C 0.73643 1.00576 0.5171 0.0
C577 C 0.72444 0.0367 0.47827 0.0
C578 C 0.74205 1.01891 0.48975 0.0
C579 C 0.57239 0.06229 0.49362 0.0
H580 H 0.50016 0.07648 0.63431 0.0
H581 H 0.48427 0.11748 0.55174 0.0
H582 H 0.45438 0.08378 0.65175 0.0
H583 H 0.4238 0.10843 0.62045 0.0
H584 H 0.68743 0.05462 0.4841 0.0
H585 H 0.70774 0.99943 0.55313 0.0
H586 H 0.72902 0.047 0.45734 0.0
H587 H 0.76039 1.01594 0.47765 0.0
Gd588 Gd 0.37304 0.29413 0.78151 0.0
Gd589 Gd 0.30464 0.31154 0.77975 0.0
C590 C 0.23939 0.27449 0.68677 0.0
C591 C 0.23029 0.32608 0.67851 0.0
C592 C 0.26532 0.32724 0.72357 0.0
C593 C 0.25979 0.29281 0.71427 0.0
C594 C 0.25052 0.34422 0.70578 0.0
C595 C 0.22461 0.29128 0.66915 0.0
C596 C 0.23476 0.23988 0.67736 0.0
C597 C 0.25093 0.22443 0.6945 0.0
N598 N 0.27524 0.27743 0.73112 0.0
C599 C 0.27121 0.24357 0.72116 0.0
H600 H 0.28385 0.23071 0.73286 0.0
C601 C 0.28829 0.37768 0.76197 0.0
N602 N 0.28462 0.34411 0.75036 0.0
C603 C 0.27483 0.39567 0.74466 0.0
C604 C 0.25603 0.37891 0.71626 0.0
H605 H 0.30148 0.39068 0.78493 0.0
H606 H 0.20891 0.27759 0.64805 0.0
H607 H 0.39738 0.37163 0.83334 0.0
H608 H 0.21916 0.22496 0.65658 0.0
H609 H 0.24793 0.19771 0.68707 0.0
H610 H 0.21874 0.33872 0.66463 0.0
H611 H 0.37411 0.21333 0.76777 0.0
H612 H 0.45749 0.36642 0.90927 0.0
H613 H 0.43243 0.39914 0.8814 0.0
H614 H 0.45371 0.25055 0.88986 0.0
H615 H 0.27849 0.42233 0.75362 0.0
H616 H 0.24527 0.39282 0.70311 0.0
H617 H 0.46501 0.31107 0.91239 0.0
H618 H 0.3952 0.17674 0.79442 0.0
N619 N 0.4021 0.32259 0.83194 0.0
C620 C 0.44198 0.35388 0.88774 0.0
C621 C 0.42797 0.37242 0.87204 0.0
C622 C 0.43572 0.31935 0.87559 0.0
C623 C 0.41545 0.30418 0.84729 0.0
C624 C 0.40815 0.35643 0.84415 0.0
N625 N 0.39043 0.25642 0.80671 0.0
C626 C 0.40897 0.27004 0.8347 0.0
C627 C 0.39897 0.2028 0.80625 0.0
C628 C 0.41701 0.21618 0.83568 0.0
C629 C 0.3866 0.22354 0.79155 0.0
C630 C 0.42281 0.25028 0.84988 0.0
H631 H 0.42715 0.20026 0.84668 0.0
O632 O 0.39402 0.2704 0.74455 0.0
O633 O 0.33842 0.30302 0.74805 0.0
O634 O 0.29709 0.25714 0.7872 0.0
O635 O 0.34156 0.24573 0.78875 0.0
O636 O 0.34865 0.25851 0.73578 0.0
O637 O 0.41543 0.32075 0.77091 0.0
O638 O 0.28305 0.33779 0.81456 0.0
O639 O 0.33984 0.30408 0.81314 0.0
O640 O 0.38108 0.35031 0.77916 0.0
O641 O 0.33616 0.35993 0.77084 0.0
O642 O 0.32864 0.34839 0.82472 0.0
O643 O 0.26388 0.28523 0.79393 0.0
C644 C 0.33529 0.27762 0.72485 0.0
C645 C 0.44279 0.26529 0.87805 0.0
C646 C 0.4493 0.29976 0.89081 0.0
C647 C 0.41703 0.2956 0.74877 0.0
C648 C 0.44492 0.28718 0.74825 0.0
C649 C 0.45136 0.26526 0.76658 0.0
C650 C 0.46426 0.29868 0.72714 0.0
C651 C 0.48907 0.28726 0.72394 0.0
C652 C 0.47567 0.25375 0.76322 0.0
C653 C 0.49432 0.26445 0.74188 0.0
C654 C 0.31318 0.23616 0.78928 0.0
C655 C 0.34299 0.33012 0.83556 0.0
C656 C 0.26127 0.31176 0.81339 0.0
C657 C 0.23207 0.31728 0.81293 0.0
C658 C 0.22385 0.33688 0.79298 0.0
C659 C 0.2128 0.30472 0.83388 0.0
C660 C 0.18611 0.31268 0.83506 0.0
C661 C 0.19758 0.34461 0.79409 0.0
C662 C 0.17894 0.33283 0.81508 0.0
C663 C 0.36505 0.37083 0.77439 0.0
H664 H 0.43759 0.25658 0.78329 0.0
H665 H 0.45976 0.31575 0.71287 0.0
H666 H 0.48008 0.23647 0.77724 0.0
H667 H 0.5133 0.25544 0.73987 0.0
H668 H 0.23779 0.34669 0.77674 0.0
H669 H 0.21873 0.28953 0.8495 0.0
H670 H 0.19172 0.36001 0.77869 0.0
H671 H 0.15862 0.33921 0.81554 0.0
Gd672 Gd 0.10036 1.01688 0.5244 0.0
Gd673 Gd 0.08911 0.09303 0.55836 0.0
C674 C 0.12785 0.15236 0.66181 0.0
C675 C 0.086 0.16563 0.68273 0.0
C676 C 0.08086 0.13089 0.62859 0.0
C677 C 0.11014 0.13353 0.63254 0.0
C678 C 0.06852 0.14718 0.65359 0.0
C679 C 0.11559 0.16819 0.68683 0.0
C680 C 0.15749 0.15532 0.66497 0.0
C681 C 0.16894 0.14001 0.63931 0.0
N682 N 0.12147 0.11854 0.60759 0.0
C683 C 0.15074 0.12201 0.61073 0.0
H684 H 0.16072 0.11058 0.59173 0.0
C685 C 0.03605 0.11265 0.5943 0.0
N686 N 0.06462 0.11356 0.59992 0.0
C687 C 0.02281 0.12796 0.61846 0.0
C688 C 0.03909 0.14523 0.64829 0.0
H689 H 0.02347 0.10026 0.57088 0.0
H690 H 0.1289 0.18281 0.70932 0.0
H691 H 0.02741 0.99906 0.49333 0.0
H692 H 0.17176 0.16959 0.68697 0.0
H693 H 0.19191 0.14223 0.64141 0.0
H694 H 0.07691 0.17837 0.70209 0.0
H695 H 0.16535 1.0103 0.50814 0.0
H696 H 0.01492 0.94625 0.39575 0.0
H697 H 0.99558 0.97024 0.44367 0.0
H698 H 0.1095 0.94106 0.37523 0.0
H699 H 1.00016 0.12688 0.61385 0.0
H700 H 0.02888 0.15749 0.66684 0.0
H701 H 0.05736 0.93577 0.37051 0.0
H702 H 0.18791 0.98776 0.46224 0.0
N703 N 0.06633 0.99142 0.47604 0.0
C704 C 0.02945 0.95867 0.41805 0.0
C705 C 0.01846 0.97203 0.44504 0.0
C706 C 0.05905 0.96161 0.42011 0.0
C707 C 0.07717 0.97819 0.44975 0.0
C708 C 0.03707 0.98811 0.47381 0.0
N709 N 0.12339 0.99728 0.48095 0.0
C710 C 0.10655 0.98144 0.45225 0.0
C711 C 0.16503 0.98596 0.45901 0.0
C712 C 0.14818 0.97057 0.42908 0.0
C713 C 0.15218 0.99881 0.48488 0.0
C714 C 0.11854 0.96784 0.42545 0.0
H715 H 0.15815 0.96046 0.40908 0.0
O716 O 0.1233 0.98298 0.53796 0.0
O717 O 0.10189 0.04955 0.57449 0.0
O718 O 0.13346 0.10323 0.5428 0.0
O719 O 0.13727 0.05459 0.51029 0.0
O720 O 0.13845 0.0357 0.56458 0.0
O721 O 0.07631 0.97046 0.53496 0.0
O722 O 0.06748 0.12708 0.54232 0.0
O723 O 0.08839 0.06009 0.5092 0.0
O724 O 0.0563 1.00658 0.54071 0.0
O725 O 0.05051 0.05571 0.57028 0.0
O726 O 0.05215 0.07549 0.51644 0.0
O727 O 0.11455 0.14026 0.55016 0.0
C728 C 0.1266 0.04836 0.58814 0.0
C729 C 0.10064 0.95156 0.39602 0.0
C730 C 0.07096 0.94849 0.39336 0.0
C731 C 0.09962 0.96149 0.54121 0.0
C732 C 0.09747 0.92605 0.5317 0.0
C733 C 0.11255 0.91319 0.50793 0.0
C734 C 0.08148 0.90518 0.54931 0.0
C735 C 0.08079 0.87146 0.54393 0.0
C736 C 0.11178 0.8794 0.50224 0.0
C737 C 0.09612 0.8586 0.52025 0.0
C738 C 0.14746 0.08701 0.52321 0.0
C739 C 0.06438 0.06108 0.49429 0.0
C740 C 0.09169 0.14873 0.54087 0.0
C741 C 0.09305 0.18419 0.54806 0.0
C742 C 0.08005 0.19871 0.57306 0.0
C743 C 0.10641 0.20329 0.5274 0.0
C744 C 0.10715 0.23707 0.53135 0.0
C745 C 0.08058 0.23238 0.57721 0.0
C746 C 0.09402 0.25153 0.55652 0.0
C747 C 0.04107 0.02303 0.55822 0.0
H748 H 0.1252 0.92922 0.49428 0.0
H749 H 0.07053 0.91563 0.56824 0.0
H750 H 0.12362 0.86939 0.48416 0.0
H751 H 0.09599 0.83252 0.51568 0.0
H752 H 0.06935 0.18405 0.589 0.0
H753 H 0.11546 0.19132 0.50748 0.0
H754 H 0.07044 0.24366 0.5964 0.0
H755 H 0.09425 0.2776 0.56036 0.0
Gd756 Gd 0.30418 0.78093 0.77004 0.0
Gd757 Gd 0.3702 0.82803 0.75504 0.0
C758 C 0.37724 0.93408 0.74051 0.0
C759 C 0.39117 0.9304 0.68679 0.0
C760 C 0.38437 0.88234 0.71148 0.0
C761 C 0.37703 0.90037 0.73861 0.0
C762 C 0.39239 0.89749 0.68569 0.0
C763 C 0.38358 0.94865 0.71416 0.0
C764 C 0.37194 0.95255 0.76916 0.0
C765 C 0.36754 0.93777 0.79538 0.0
N766 N 0.37136 0.88565 0.76383 0.0
C767 C 0.36765 0.90443 0.79248 0.0
H768 H 0.36375 0.89415 0.81331 0.0
C769 C 0.39719 0.834 0.68738 0.0
N770 N 0.38548 0.85066 0.71116 0.0
C771 C 0.40535 0.84793 0.66123 0.0
C772 C 0.4024 0.87956 0.66006 0.0
H773 H 0.39925 0.80936 0.68805 0.0
H774 H 0.3835 0.97434 0.71509 0.0
H775 H 0.3075 0.71522 0.71154 0.0
H776 H 0.37187 0.97844 0.77153 0.0
H777 H 0.3639 0.95198 0.8179 0.0
H778 H 0.39689 0.9423 0.66703 0.0
H779 H 0.27697 0.80011 0.83877 0.0
H780 H 0.30089 0.63046 0.75275 0.0
H781 H 0.30623 0.6565 0.70579 0.0
H782 H 0.28179 0.66809 0.85983 0.0
H783 H 0.41374 0.83417 0.64192 0.0
H784 H 0.40874 0.89032 0.6398 0.0
H785 H 0.29246 0.63527 0.8104 0.0
H786 H 0.26556 0.77638 0.88629 0.0
N787 N 0.30336 0.72381 0.76174 0.0
C788 C 0.3015 0.65658 0.75554 0.0
C789 C 0.30435 0.6711 0.72896 0.0
C790 C 0.29832 0.67558 0.78507 0.0
C791 C 0.29919 0.70953 0.78743 0.0
C792 C 0.30493 0.7047 0.7324 0.0
N793 N 0.29169 0.75958 0.81564 0.0
C794 C 0.29329 0.72803 0.8153 0.0
C795 C 0.27364 0.76266 0.86666 0.0
C796 C 0.27709 0.7312 0.86771 0.0
C797 C 0.28029 0.77613 0.83989 0.0
C798 C 0.2862 0.71305 0.84146 0.0
H799 H 0.27148 0.72057 0.88825 0.0
O800 O 0.26298 0.79166 0.773 0.0
O801 O 0.32308 0.82993 0.75456 0.0
O802 O 0.36701 0.84091 0.80799 0.0
O803 O 0.33018 0.79924 0.81882 0.0
O804 O 0.2986 0.8322 0.79145 0.0
O805 O 0.26549 0.74817 0.73836 0.0
O806 O 0.41064 0.81573 0.75115 0.0
O807 O 0.35108 0.77836 0.76961 0.0
O808 O 0.30762 0.7713 0.71731 0.0
O809 O 0.34373 0.81342 0.70617 0.0
O810 O 0.37375 0.776 0.73119 0.0
O811 O 0.40887 0.85747 0.78873 0.0
C812 C 0.31122 0.8499 0.77252 0.0
C813 C 0.28695 0.67991 0.83989 0.0
C814 C 0.29299 0.66121 0.81173 0.0
C815 C 0.24885 0.76552 0.75075 0.0
C816 C 0.22075 0.74745 0.75753 0.0
C817 C 0.21814 0.7266 0.77955 0.0
C818 C 0.19622 0.75425 0.74399 0.0
C819 C 0.16926 0.74128 0.75319 0.0
C820 C 0.19109 0.71331 0.7885 0.0
C821 C 0.1667 0.72086 0.77559 0.0
C822 C 0.35209 0.82626 0.82809 0.0
C823 C 0.36185 0.7581 0.75037 0.0
C824 C 0.42484 0.8396 0.77549 0.0
C825 C 0.45445 0.85665 0.77224 0.0
C826 C 0.4612 0.87142 0.7461 0.0
C827 C 0.47664 0.85538 0.79473 0.0
C828 C 0.50551 0.86898 0.79133 0.0
C829 C 0.49011 0.88462 0.74244 0.0
C830 C 0.51225 0.88355 0.76505 0.0
C831 C 0.32114 0.78694 0.69677 0.0
H832 H 0.23687 0.72103 0.79014 0.0
H833 H 0.19825 0.77067 0.72721 0.0
H834 H 0.1891 0.6975 0.80574 0.0
H835 H 0.14586 0.7107 0.7829 0.0
H836 H 0.44436 0.87257 0.7285 0.0
H837 H 0.47146 0.84376 0.81484 0.0
H838 H 0.49536 0.89563 0.72206 0.0
H839 H 0.53462 0.89385 0.76197 0.0
Gd840 Gd 0.5803 0.0755 1.00929 0.0
Gd841 Gd 0.59235 0.04411 0.08373 0.0
C842 C 0.67871 0.09706 0.14991 0.0
C843 C 0.69885 0.05067 0.15273 0.0
C844 C 0.65171 0.04078 0.1214 0.0
C845 C 0.65384 0.0745 0.12998 0.0
C846 C 0.67386 0.02832 0.1333 0.0
C847 C 0.70134 0.08502 0.16088 0.0
C848 C 0.68004 0.13102 0.15839 0.0
C849 C 0.65663 0.14158 0.14773 0.0
N850 N 0.63152 0.08519 0.11893 0.0
C851 C 0.63228 0.11822 0.12844 0.0
H852 H 0.61474 0.12727 0.12027 0.0
C853 C 0.62301 0.98606 0.0961 0.0
N854 N 0.62759 1.02 0.10206 0.0
C855 C 0.64423 0.97243 0.1075 0.0
C856 C 0.66998 0.99369 0.12581 0.0
H857 H 0.60314 0.96951 0.08181 0.0
H858 H 0.72064 0.10199 0.17607 0.0
H859 H 0.5583 0.99157 0.97394 0.0
H860 H 0.69885 0.14918 0.17339 0.0
H861 H 0.6574 0.16779 0.15419 0.0
H862 H 0.71621 0.04161 0.16187 0.0
H863 H 0.56808 0.14946 0.01237 0.0
H864 H 0.47782 0.97002 0.91367 0.0
H865 H 0.51772 0.95135 0.93686 0.0
H866 H 0.46005 0.07712 0.92309 0.0
H867 H 0.64074 0.94556 0.10208 0.0
H868 H 0.68642 0.98311 0.13457 0.0
H869 H 0.45655 1.01701 0.90863 0.0
H870 H 0.53119 0.17303 0.98988 0.0
N871 N 0.54244 0.03399 0.97255 0.0
C872 C 0.49587 0.98816 0.92994 0.0
C873 C 0.51836 0.97756 0.94292 0.0
C874 C 0.49698 1.02207 0.93801 0.0
C875 C 0.52084 0.04464 0.95959 0.0
C876 C 0.54167 1.00087 0.96394 0.0
N877 N 0.54528 0.09902 0.98957 0.0
C878 C 0.5224 0.07823 0.96827 0.0
C879 C 0.5283 0.14627 0.98379 0.0
C880 C 0.50384 0.12497 0.96313 0.0
C881 C 0.54908 0.13284 0.99652 0.0
C882 C 0.50075 0.09052 0.95489 0.0
H883 H 0.48774 0.1354 0.95329 0.0
O884 O 0.60639 0.11785 0.99437 0.0
O885 O 0.61025 0.07356 0.04968 0.0
O886 O 0.57151 0.08675 0.09381 0.0
O887 O 0.55827 0.10196 0.04578 0.0
O888 O 0.61495 0.12002 0.04011 0.0
O889 O 0.60101 0.06679 0.96653 0.0
O890 O 0.56664 1.00342 0.1015 0.0
O891 O 0.56216 0.046 0.04336 0.0
O892 O 0.60086 0.0327 0.99888 0.0
O893 O 0.61202 1.01518 0.04622 0.0
O894 O 0.5571 0.99979 0.05378 0.0
O895 O 0.57335 0.05543 0.1272 0.0
C896 C 0.62654 0.10292 0.05641 0.0
C897 C 0.47696 0.06818 0.93348 0.0
C898 C 0.47501 0.03399 0.92518 0.0
C899 C 0.61303 0.09888 0.96996 0.0
C900 C 0.61807 0.11186 0.94133 0.0
C901 C 0.60615 0.1365 0.93312 0.0
C902 C 0.63858 0.10166 0.9241 0.0
C903 C 0.64787 0.11603 0.89885 0.0
C904 C 0.61537 0.15103 0.90766 0.0
C905 C 0.6364 0.14105 0.89064 0.0
C906 C 0.55827 0.10335 0.07707 0.0
C907 C 0.54581 1.01668 0.03689 0.0
C908 C 0.56122 0.02377 0.12575 0.0
C909 C 0.55873 1.0132 0.15593 0.0
C910 C 0.57548 0.99419 0.16729 0.0
C911 C 0.53698 1.02096 0.17259 0.0
C912 C 0.5313 1.00975 0.20055 0.0
C913 C 0.56983 0.98271 0.19537 0.0
C914 C 0.54761 0.99023 0.21193 0.0
C915 C 0.61252 1.01437 0.01503 0.0
H916 H 0.59037 0.14489 0.94666 0.0
H917 H 0.64806 0.08298 0.931 0.0
H918 H 0.6064 0.17018 0.90127 0.0
H919 H 0.64331 0.15234 0.87087 0.0
H920 H 0.59246 0.98799 0.1544 0.0
H921 H 0.52397 0.03546 0.16339 0.0
H922 H 0.58259 0.96794 0.20426 0.0
H923 H 0.54354 0.98145 0.23377 0.0
Gd924 Gd 0.30914 0.25404 0.25708 0.0
Gd925 Gd 0.35492 0.33752 0.29183 0.0
C926 C 0.44863 0.36677 0.27256 0.0
C927 C 0.47422 0.3877 0.3271 0.0
C928 C 0.42251 0.35853 0.31791 0.0
C929 C 0.42241 0.35555 0.28495 0.0
C930 C 0.44851 0.37508 0.3393 0.0
C931 C 0.47435 0.38319 0.29379 0.0
C932 C 0.44828 0.36142 0.23915 0.0
C933 C 0.42238 0.34482 0.21892 0.0
N934 N 0.39681 0.34183 0.26503 0.0
C935 C 0.39687 0.33526 0.23224 0.0
H936 H 0.37785 0.32132 0.21574 0.0
C937 C 0.39668 0.35196 0.36201 0.0
N938 N 0.3971 0.34693 0.3292 0.0
C939 C 0.42188 0.36792 0.38387 0.0
C940 C 0.44783 0.37977 0.37249 0.0
H941 H 0.37672 0.34657 0.37218 0.0
H942 H 0.49445 0.39268 0.28469 0.0
H943 H 0.28233 0.27377 0.33045 0.0
H944 H 0.46796 0.3694 0.22876 0.0
H945 H 0.42196 0.3394 0.19297 0.0
H946 H 0.49417 0.40094 0.34326 0.0
H947 H 0.28791 0.2421 0.17621 0.0
H948 H 0.19627 0.20998 0.31724 0.0
H949 H 0.23874 0.25075 0.35285 0.0
H950 H 0.17692 0.16333 0.20342 0.0
H951 H 0.42097 0.37246 0.4096 0.0
H952 H 0.46703 0.3933 0.38955 0.0
H953 H 0.17373 0.17655 0.26145 0.0
H954 H 0.24613 0.20723 0.13768 0.0
N955 N 0.26618 0.24593 0.28205 0.0
C956 C 0.21554 0.22034 0.3071 0.0
C957 C 0.23952 0.24305 0.32727 0.0
C958 C 0.21644 0.21208 0.27392 0.0
C959 C 0.2419 0.22674 0.26187 0.0
C960 C 0.26471 0.25555 0.31435 0.0
N961 N 0.26691 0.23778 0.21826 0.0
C962 C 0.24241 0.22209 0.22895 0.0
C963 C 0.24456 0.21165 0.16327 0.0
C964 C 0.21982 0.1947 0.17413 0.0
C965 C 0.2681 0.23265 0.18561 0.0
C966 C 0.21844 0.19988 0.20727 0.0
H967 H 0.20213 0.17733 0.15678 0.0
O968 O 0.32018 0.22278 0.21588 0.0
O969 O 0.35338 0.28851 0.26244 0.0
O970 O 0.34108 0.34146 0.24136 0.0
O971 O 0.31449 0.28581 0.21841 0.0
O972 O 0.35006 0.24322 0.27505 0.0
O973 O 0.29343 0.20034 0.24899 0.0
O974 O 0.35116 0.37316 0.33402 0.0
O975 O 0.31053 0.3034 0.28663 0.0
O976 O 0.32068 0.25063 0.30897 0.0
O977 O 0.34559 0.30695 0.33099 0.0
O978 O 0.31344 0.34989 0.27821 0.0
O979 O 0.37452 0.39038 0.29618 0.0
C980 C 0.36782 0.27061 0.27201 0.0
C981 C 0.19438 0.18243 0.2194 0.0
C982 C 0.19293 0.18931 0.25255 0.0
C983 C 0.30539 0.19518 0.22275 0.0
C984 C 0.31743 0.16683 0.21767 0.0
C985 C 0.31285 0.14585 0.18674 0.0
C986 C 0.33034 0.15829 0.24399 0.0
C987 C 0.33734 0.12805 0.23983 0.0
C988 C 0.32074 0.11602 0.18237 0.0
C989 C 0.33267 0.10686 0.20895 0.0
C990 C 0.32614 0.31736 0.21639 0.0
C991 C 0.29547 0.32193 0.27964 0.0
C992 C 0.36696 0.39864 0.3247 0.0
C993 C 0.35858 0.42935 0.33178 0.0
C994 C 0.37159 0.45351 0.36021 0.0
C995 C 0.3384 0.43518 0.31008 0.0
C996 C 0.33107 0.46519 0.31673 0.0
C997 C 0.36417 0.48356 0.36696 0.0
C998 C 0.34384 0.48944 0.3453 0.0
C999 C 0.33443 0.27562 0.33395 0.0
H1000 H 0.30247 0.15208 0.16621 0.0
H1001 H 0.33338 0.17416 0.26803 0.0
H1002 H 0.31694 0.09963 0.15858 0.0
H1003 H 0.33805 0.08327 0.20553 0.0
H1004 H 0.38757 0.44918 0.37699 0.0
H1005 H 0.32863 0.41662 0.28792 0.0
H1006 H 0.37435 0.50236 0.38877 0.0
H1007 H 0.33856 0.51308 0.35042 0.0
Gd1008 Gd 0.6045 0.51478 0.02886 0.0
Gd1009 Gd 0.5918 0.58907 0.06486 0.0
C1010 C 0.63361 0.64305 0.16859 0.0
C1011 C 0.59245 0.65377 0.19318 0.0
C1012 C 0.58553 0.62152 0.13767 0.0
C1013 C 0.61502 0.62518 0.1396 0.0
C1014 C 0.57401 0.63608 0.16445 0.0
C1015 C 0.62216 0.6572 0.19526 0.0
C1016 C 0.66331 0.64673 0.16989 0.0
C1017 C 0.67398 0.63313 0.14271 0.0
N1018 N 0.62566 0.612 0.1131 0.0
C1019 C 0.65495 0.61623 0.1144 0.0
H1020 H 0.66422 0.60599 0.09411 0.0
C1021 C 0.53944 0.60373 0.10591 0.0
N1022 N 0.56825 0.60508 0.10932 0.0
C1023 C 0.52704 0.61718 0.13189 0.0
C1024 C 0.54437 0.63334 0.16135 0.0
H1025 H 0.52598 0.59274 0.08275 0.0
H1026 H 0.63617 0.6712 0.21752 0.0
H1027 H 0.53304 0.49707 0.99311 0.0
H1028 H 0.67817 0.66018 0.1917 0.0
H1029 H 0.69696 0.63585 0.14342 0.0
H1030 H 0.58398 0.66527 0.21384 0.0
H1031 H 0.67129 0.51155 0.01691 0.0
H1032 H 0.52515 0.44208 0.89686 0.0
H1033 H 0.50335 0.4668 0.94234 0.0
H1034 H 0.62147 0.43845 0.88314 0.0
H1035 H 0.50421 0.61569 0.12894 0.0
H1036 H 0.53481 0.6443 0.18131 0.0
H1037 H 0.56913 0.4318 0.87508 0.0
H1038 H 0.69638 0.48913 0.97338 0.0
N1039 N 0.57299 0.48973 0.97877 0.0
C1040 C 0.5387 0.45527 0.91962 0.0
C1041 C 0.52633 0.46906 0.94522 0.0
C1042 C 0.56843 0.45883 0.9236 0.0
C1043 C 0.58524 0.47636 0.95378 0.0
C1044 C 0.54368 0.48604 0.9746 0.0
N1045 N 0.63029 0.49701 0.98739 0.0
C1046 C 0.61474 0.48033 0.95817 0.0
C1047 C 0.67345 0.48664 0.96869 0.0
C1048 C 0.6579 0.47022 0.93829 0.0
C1049 C 0.65918 0.49947 0.99319 0.0
C1050 C 0.62817 0.46658 0.93277 0.0
H1051 H 0.66895 0.46002 0.91939 0.0
O1052 O 0.62748 0.48185 0.04417 0.0
O1053 O 0.60449 0.54505 0.07996 0.0
O1054 O 0.635 0.60184 0.04673 0.0
O1055 O 0.64104 0.55369 0.01548 0.0
O1056 O 0.64164 0.53244 0.07026 0.0
O1057 O 0.58021 0.46594 0.03452 0.0
O1058 O 0.56817 0.62414 0.05593 0.0
O1059 O 0.59188 0.55838 0.01462 0.0
O1060 O 0.55911 0.5022 0.04194 0.0
O1061 O 0.5528 0.54993 0.07349 0.0
O1062 O 0.55593 0.57417 0.02187 0.0
O1063 O 0.61577 0.63955 0.06185 0.0
C1064 C 0.62908 0.54365 0.09385 0.0
C1065 C 0.61153 0.4492 0.90285 0.0
C1066 C 0.58173 0.44535 0.89828 0.0
C1067 C 0.60372 0.45872 0.04398 0.0
C1068 C 0.60422 0.42405 0.03604 0.0
C1069 C 0.62153 0.41246 0.01424 0.0
C1070 C 0.58916 0.40314 0.05415 0.0
C1071 C 0.59162 0.37074 0.05137 0.0
C1072 C 0.62387 0.37987 1.01108 0.0
C1073 C 0.60916 0.35909 0.02974 0.0
C1074 C 0.64993 0.58635 0.02779 0.0
C1075 C 0.56807 0.55992 0.99954 0.0
C1076 C 0.59181 0.64765 0.05675 0.0
C1077 C 0.59101 0.68089 0.0528 0.0
C1078 C 0.57028 0.69512 0.06631 0.0
C1079 C 0.60952 0.69759 0.03383 0.0
C1080 C 0.60657 0.72789 0.02764 0.0
C1081 C 0.56791 0.72571 0.06079 0.0
C1082 C 0.58581 0.74194 0.04132 0.0
C1083 C 0.54333 0.51772 0.05954 0.0
H1084 H 0.6336 0.42867 1.00034 0.0
H1085 H 0.57651 0.41275 0.07163 0.0
H1086 H 0.63741 0.37085 0.99453 0.0
H1087 H 0.61141 0.334 0.02721 0.0
H1088 H 0.55583 0.68246 0.08097 0.0
H1089 H 0.62527 0.68647 0.02288 0.0
H1090 H 0.55189 0.7366 0.07123 0.0
H1091 H 0.58339 0.76539 0.03673 0.0
Gd1092 Gd 0.80572 0.2778 0.2829 0.0
Gd1093 Gd 0.87227 0.327 0.26947 0.0
C1094 C 0.87651 0.43326 0.25802 0.0
C1095 C 0.89095 0.432 0.20468 0.0
C1096 C 0.88493 0.38287 0.22764 0.0
C1097 C 0.87686 0.3996 0.25498 0.0
C1098 C 0.89299 0.39925 0.20263 0.0
C1099 C 0.88277 0.44899 0.23237 0.0
C1100 C 0.87082 0.4505 0.28712 0.0
C1101 C 0.86644 0.43451 0.31258 0.0
N1102 N 0.8713 0.38378 0.27947 0.0
C1103 C 0.86701 0.40121 0.30847 0.0
H1104 H 0.86278 0.3896 0.32843 0.0
C1105 C 0.90139 0.33724 0.20391 0.0
N1106 N 0.88749 0.35166 0.22681 0.0
C1107 C 0.90912 0.35203 0.17816 0.0
C1108 C 0.90428 0.38288 0.17713 0.0
H1109 H 0.90656 0.31432 0.20572 0.0
H1110 H 0.88226 0.47467 0.23416 0.0
H1111 H 0.80815 0.21126 0.22432 0.0
H1112 H 0.87039 0.47635 0.29041 0.0
H1113 H 0.86238 0.44771 0.33539 0.0
H1114 H 0.89674 0.44485 0.18556 0.0
H1115 H 0.77691 0.29625 0.35044 0.0
H1116 H 0.80522 0.1282 0.26723 0.0
H1117 H 0.80851 0.15315 0.2195 0.0
H1118 H 0.78514 0.16592 0.37377 0.0
H1119 H 0.91925 0.33994 0.15948 0.0
H1120 H 0.91068 0.39459 0.15744 0.0
H1121 H 0.79738 0.13356 0.32511 0.0
H1122 H 0.7638 0.27167 0.39717 0.0
N1123 N 0.80549 0.22079 0.27495 0.0
C1124 C 0.80517 0.15409 0.26966 0.0
C1125 C 0.80688 0.16801 0.24266 0.0
C1126 C 0.80192 0.17323 0.29907 0.0
C1127 C 0.80192 0.20687 0.30094 0.0
C1128 C 0.80667 0.20133 0.24563 0.0
N1129 N 0.79293 0.25637 0.32832 0.0
C1130 C 0.79534 0.2252 0.32848 0.0
C1131 C 0.77292 0.2585 0.37818 0.0
C1132 C 0.77754 0.22771 0.38002 0.0
C1133 C 0.7803 0.2723 0.35173 0.0
C1134 C 0.78816 0.21024 0.35462 0.0
H1135 H 0.77167 0.217 0.40044 0.0
O1136 O 0.76389 0.28729 0.28469 0.0
O1137 O 0.8246 0.32718 0.2679 0.0
O1138 O 0.86835 0.33638 0.32211 0.0
O1139 O 0.8317 0.29414 0.33216 0.0
O1140 O 0.79932 0.32891 0.30409 0.0
O1141 O 0.76775 0.24437 0.25039 0.0
O1142 O 0.9132 0.31507 0.26909 0.0
O1143 O 0.85276 0.27631 0.28173 0.0
O1144 O 0.81088 0.2679 0.23055 0.0
O1145 O 0.84778 0.30981 0.21975 0.0
O1146 O 0.87765 0.27636 0.24489 0.0
O1147 O 0.91058 0.35938 0.30228 0.0
C1148 C 0.812 0.34674 0.28524 0.0
C1149 C 0.79016 0.17763 0.35373 0.0
C1150 C 0.7971 0.15919 0.32601 0.0
C1151 C 0.75039 0.26085 0.26245 0.0
C1152 C 0.72247 0.24168 0.26896 0.0
C1153 C 0.72035 0.22258 0.29251 0.0
C1154 C 0.69737 0.24541 0.25323 0.0
C1155 C 0.67035 0.23121 0.26175 0.0
C1156 C 0.69332 0.20833 0.30101 0.0
C1157 C 0.66834 0.2129 0.28591 0.0
C1158 C 0.8541 0.32069 0.34205 0.0
C1159 C 0.8641 0.25705 0.26206 0.0
C1160 C 0.92709 0.34103 0.29161 0.0
C1161 C 0.95647 0.35779 0.28691 0.0
C1162 C 0.96186 0.37488 0.26203 0.0
C1163 C 0.97964 0.35343 0.30587 0.0
C1164 C 1.00794 0.36517 0.29942 0.0
C1165 C 0.99013 0.38627 0.25536 0.0
C1166 C 1.01315 0.38124 0.27386 0.0
C1167 C 0.82578 0.28267 0.21035 0.0
H1168 H 0.73939 0.21899 0.30459 0.0
H1169 H 0.69891 0.26032 0.23513 0.0
H1170 H 0.69177 0.19403 0.31952 0.0
H1171 H 0.6475 0.20201 0.29283 0.0
H1172 H 0.9444 0.3792 0.24764 0.0
H1173 H 0.97562 0.34009 0.32506 0.0
H1174 H 0.99418 0.39881 0.23571 0.0
H1175 H 0.03499 0.38995 0.26839 0.0
Gd1176 Gd 0.08479 0.59074 0.52165 0.0
Gd1177 Gd 0.0977 0.56369 0.59819 0.0
C1178 C 0.18616 0.61543 0.66089 0.0
C1179 C 0.2044 0.568 0.66526 0.0
C1180 C 0.15673 0.55916 0.63562 0.0
C1181 C 0.16031 0.5932 0.64256 0.0
C1182 C 0.17841 0.54604 0.64751 0.0
C1183 C 0.20832 0.60266 0.67182 0.0
C1184 C 0.18897 0.64979 0.66776 0.0
C1185 C 0.16609 0.66113 0.65708 0.0
N1186 N 0.13847 0.60456 0.63138 0.0
C1187 C 0.14073 0.63813 0.63939 0.0
H1188 H 0.1237 0.64792 0.63118 0.0
C1189 C 0.12571 0.50481 0.6136 0.0
N1190 N 0.1317 0.53876 0.61779 0.0
C1191 C 0.14642 0.4905 0.62503 0.0
C1192 C 0.1731 0.51122 0.64165 0.0
H1193 H 0.10509 0.48872 0.60067 0.0
H1194 H 0.22838 0.61936 0.68572 0.0
H1195 H 0.06352 0.5065 0.48672 0.0
H1196 H 0.20857 0.6677 0.68148 0.0
H1197 H 0.16809 0.68768 0.66219 0.0
H1198 H 0.22143 0.55842 0.67432 0.0
H1199 H 0.07115 0.66429 0.52548 0.0
H1200 H 0.98403 0.48435 0.42459 0.0
H1201 H 0.0236 0.46606 0.44901 0.0
H1202 H 0.96553 0.59088 0.43275 0.0
H1203 H 0.14182 0.46354 0.62092 0.0
H1204 H 0.18916 0.50011 0.6504 0.0
H1205 H 0.96269 0.53097 0.41851 0.0
H1206 H 0.03441 0.68722 0.50165 0.0
N1207 N 0.04763 0.54878 0.48453 0.0
C1208 C 1.00179 0.50262 0.44114 0.0
C1209 C 0.02412 0.49224 0.4548 0.0
C1210 C 1.00267 0.53646 0.44896 0.0
C1211 C 0.0261 0.55923 0.47105 0.0
C1212 C 0.04708 0.5157 0.47619 0.0
N1213 N 0.04943 0.61375 0.50179 0.0
C1214 C 0.02715 0.59273 0.47981 0.0
C1215 C 0.03194 0.66055 0.49552 0.0
C1216 C 1.00815 0.63902 0.474 0.0
C1217 C 0.05263 0.64748 0.509 0.0
C1218 C 1.00558 0.60469 0.46574 0.0
H1219 H 0.99213 0.64919 0.46357 0.0
O1220 O 0.10945 0.63292 0.50518 0.0
O1221 O 0.11533 0.59033 0.56219 0.0
O1222 O 0.08007 0.60885 0.60627 0.0
O1223 O 0.06026 0.61527 0.55673 0.0
O1224 O 0.12063 0.63567 0.55045 0.0
O1225 O 0.1055 0.58137 0.4793 0.0
O1226 O 0.06939 0.52593 0.61691 0.0
O1227 O 0.0669 0.5627 0.55686 0.0
O1228 O 0.1053 0.54753 0.51285 0.0
O1229 O 0.11631 0.53246 0.56174 0.0
O1230 O 0.0633 0.51764 0.56977 0.0
O1231 O 0.08036 0.57851 0.64232 0.0
C1232 C 0.13235 0.61915 0.56734 0.0
C1233 C 0.98236 0.58217 0.44367 0.0
C1234 C 0.9808 0.5481 0.43548 0.0
C1235 C 0.11613 0.61347 0.4811 0.0
C1236 C 0.11819 0.62423 0.45105 0.0
C1237 C 0.10302 0.64553 0.44123 0.0
C1238 C 0.13822 0.61427 0.43294 0.0
C1239 C 0.14361 0.62531 0.40496 0.0
C1240 C 0.10852 0.65694 0.41308 0.0
C1241 C 0.12898 0.64703 0.39497 0.0
C1242 C 0.06326 0.62103 0.58862 0.0
C1243 C 0.05183 0.53276 0.55106 0.0
C1244 C 0.06609 0.5476 0.64139 0.0
C1245 C 0.06386 0.53704 0.67156 0.0
C1246 C 0.08086 0.51809 0.68256 0.0
C1247 C 0.04126 0.54311 0.68757 0.0
C1248 C 0.03472 0.52977 0.71423 0.0
C1249 C 0.07454 0.50481 0.70954 0.0
C1250 C 0.0513 0.51032 0.72524 0.0
C1251 C 0.11655 0.52983 0.53027 0.0
H1252 H 0.08743 0.65357 0.45532 0.0
H1253 H 0.1501 0.59808 0.44096 0.0
H1254 H 0.09702 0.67346 0.40534 0.0
H1255 H 0.13296 0.65571 0.37306 0.0
H1256 H 0.09838 0.51301 0.67004 0.0
H1257 H 0.02793 0.55734 0.67848 0.0
H1258 H 0.08742 0.48994 0.71802 0.0
H1259 H 0.0465 0.49986 0.74605 0.0
Gd1260 Gd 0.86953 0.79442 0.28428 0.0
Gd1261 Gd 0.80159 0.81319 0.2914 0.0
C1262 C 0.74217 0.77571 0.19351 0.0
C1263 C 0.74113 0.82771 0.17864 0.0
C1264 C 0.76913 0.82862 0.22925 0.0
C1265 C 0.76134 0.79401 0.222 0.0
C1266 C 0.75816 0.84578 0.20813 0.0
C1267 C 0.73306 0.7927 0.17138 0.0
C1268 C 0.73137 0.74098 0.18885 0.0
C1269 C 0.73895 0.72541 0.21269 0.0
N1270 N 0.77007 0.7783 0.24421 0.0
C1271 C 0.75819 0.74442 0.24025 0.0
H1272 H 0.76239 0.73131 0.25828 0.0
C1273 C 0.78614 0.87851 0.26975 0.0
N1274 N 0.78436 0.84531 0.25865 0.0
C1275 C 0.77639 0.89669 0.24944 0.0
C1276 C 0.76291 0.88039 0.21818 0.0
H1277 H 0.79554 0.89129 0.29435 0.0
H1278 H 0.71871 0.77901 0.14927 0.0
H1279 H 0.91656 0.87224 0.31528 0.0
H1280 H 0.71641 0.72615 0.16753 0.0
H1281 H 0.73001 0.69866 0.2099 0.0
H1282 H 0.73281 0.84051 0.16205 0.0
H1283 H 0.873 0.71459 0.27942 0.0
H1284 H 0.95806 0.87495 0.40775 0.0
H1285 H 0.94896 0.90342 0.3644 0.0
H1286 H 0.93393 0.75992 0.41259 0.0
H1287 H 0.77884 0.92315 0.25812 0.0
H1288 H 0.75481 0.89438 0.20269 0.0
H1289 H 0.95143 0.82139 0.42604 0.0
H1290 H 0.88662 0.68044 0.315 0.0
N1291 N 0.90311 0.82645 0.331 0.0
C1292 C 0.94268 0.86114 0.38642 0.0
C1293 C 0.93757 0.87729 0.36208 0.0
C1294 C 0.92944 0.82682 0.38188 0.0
C1295 C 0.90986 0.80985 0.35335 0.0
C1296 C 0.91811 0.85942 0.33432 0.0
N1297 N 0.885 0.76 0.31603 0.0
C1298 C 0.90021 0.77539 0.3457 0.0
C1299 C 0.89009 0.70702 0.32424 0.0
C1300 C 0.90334 0.72214 0.35581 0.0
C1301 C 0.88197 0.72654 0.30431 0.0
C1302 C 0.90962 0.75688 0.36649 0.0
H1303 H 0.91024 0.70711 0.371 0.0
O1304 O 0.88957 0.76575 0.25014 0.0
O1305 O 0.83235 0.80405 0.25587 0.0
O1306 O 0.79728 0.75991 0.30146 0.0
O1307 O 0.83695 0.74408 0.28452 0.0
O1308 O 0.84366 0.76074 0.23832 0.0
O1309 O 0.90832 0.8191 0.26567 0.0
O1310 O 0.77876 0.84048 0.32383 0.0
O1311 O 0.83941 0.80513 0.31997 0.0
O1312 O 0.87579 0.84957 0.27886 0.0
O1313 O 0.83322 0.86357 0.28736 0.0
O1314 O 0.82761 0.84814 0.33695 0.0
O1315 O 0.76236 0.78704 0.30835 0.0
C1316 C 0.82755 0.77911 0.2318 0.0
C1317 C 0.92682 0.77373 0.39622 0.0
C1318 C 0.93679 0.80871 0.40388 0.0
C1319 C 0.91084 0.79121 0.24879 0.0
C1320 C 0.93979 0.78592 0.25046 0.0
C1321 C 0.94762 0.76613 0.27052 0.0
C1322 C 0.95902 0.7986 0.22991 0.0
C1323 C 0.9854 0.79054 0.22877 0.0
C1324 C 0.9738 0.75811 0.26932 0.0
C1325 C 0.99251 0.76999 0.24837 0.0
C1326 C 0.81113 0.73648 0.29414 0.0
C1327 C 0.84468 0.83073 0.34347 0.0
C1328 C 0.75791 0.81418 0.32453 0.0
C1329 C 0.72791 0.81722 0.32028 0.0
C1330 C 0.71892 0.82998 0.29452 0.0
C1331 C 0.70841 0.80873 0.34249 0.0
C1332 C 0.68064 0.81417 0.33919 0.0
C1333 C 0.69164 0.8352 0.29116 0.0
C1334 C 0.67274 0.82759 0.31333 0.0
C1335 C 0.8607 0.87207 0.28202 0.0
H1336 H 0.93336 0.75637 0.28669 0.0
H1337 H 0.95319 0.81392 0.21434 0.0
H1338 H 0.97952 0.74246 0.28453 0.0
H1339 H 1.01276 0.76347 0.2477 0.0
H1340 H 0.73306 0.8363 0.27706 0.0
H1341 H 0.71506 0.79893 0.36258 0.0
H1342 H 0.68517 0.84546 0.27136 0.0
H1343 H 0.65172 0.83212 0.3102 0.0
Gd1344 Gd 0.82917 0.33474 0.82821 0.0
Gd1345 Gd 0.86167 0.304 0.75693 0.0
C1346 C 0.82828 0.2076 0.6766 0.0
C1347 C 0.87267 0.19226 0.66865 0.0
C1348 C 0.87264 0.23917 0.71196 0.0
C1349 C 0.84369 0.23441 0.70253 0.0
C1350 C 0.88752 0.21802 0.69533 0.0
C1351 C 0.84304 0.187 0.65934 0.0
C1352 C 0.79844 0.2019 0.66911 0.0
C1353 C 0.78459 0.22198 0.68793 0.0
N1354 N 0.83038 0.25516 0.71964 0.0
C1355 C 0.80083 0.24835 0.71311 0.0
H1356 H 0.78902 0.26218 0.72777 0.0
C1357 C 0.91505 0.27001 0.7479 0.0
N1358 N 0.88623 0.26434 0.73771 0.0
C1359 C 0.93072 0.24956 0.73246 0.0
C1360 C 0.91692 0.22352 0.70592 0.0
H1361 H 0.92631 0.29122 0.76732 0.0
H1362 H 0.83167 0.16667 0.63908 0.0
H1363 H 0.89442 0.36639 0.87832 0.0
H1364 H 0.78582 0.18155 0.6495 0.0
H1365 H 0.76131 0.21714 0.68316 0.0
H1366 H 0.8838 0.17603 0.65532 0.0
H1367 H 0.76457 0.34566 0.80785 0.0
H1368 H 0.89544 0.45973 0.93754 0.0
H1369 H 0.91865 0.41479 0.92138 0.0
H1370 H 0.80358 0.47424 0.90416 0.0
H1371 H 0.95356 0.25435 0.74062 0.0
H1372 H 0.92916 0.20795 0.69373 0.0
H1373 H 0.85258 0.4816 0.93098 0.0
H1374 H 0.73741 0.3867 0.8232 0.0
N1375 N 0.85682 0.38258 0.86818 0.0
C1376 C 0.88441 0.43828 0.91817 0.0
C1377 C 0.8975 0.41292 0.90922 0.0
C1378 C 0.8571 0.43546 0.90232 0.0
C1379 C 0.84371 0.40711 0.87699 0.0
C1380 C 0.88325 0.38502 0.88452 0.0
N1381 N 0.80393 0.37577 0.83755 0.0
C1382 C 0.81648 0.40354 0.86126 0.0
C1383 C 0.75978 0.39208 0.83373 0.0
C1384 C 0.77294 0.42157 0.85685 0.0
C1385 C 0.77542 0.36909 0.82484 0.0
C1386 C 0.80144 0.42743 0.87127 0.0
H1387 H 0.76063 0.43914 0.86412 0.0
O1388 O 0.78804 0.31159 0.84242 0.0
O1389 O 0.83539 0.29152 0.79454 0.0
O1390 O 0.8193 0.31603 0.74058 0.0
O1391 O 0.81132 0.35287 0.78487 0.0
O1392 O 0.79315 0.29042 0.80143 0.0
O1393 O 0.82926 0.3186 0.87341 0.0
O1394 O 0.89983 0.32873 0.7387 0.0
O1395 O 0.85899 0.34713 0.79381 0.0
O1396 O 0.8692 0.31692 0.84461 0.0
O1397 O 0.88311 0.28727 0.79884 0.0
O1398 O 0.9004 0.34315 0.78671 0.0
O1399 O 0.85741 0.33065 0.71909 0.0
C1400 C 0.80974 0.2736 0.78885 0.0
C1401 C 0.8148 0.4557 0.89619 0.0
C1402 C 0.84264 0.45982 0.91153 0.0
C1403 C 0.80093 0.30767 0.86874 0.0
C1404 C 0.78469 0.29245 0.89171 0.0
C1405 C 0.75779 0.29751 0.89742 0.0
C1406 C 0.79481 0.26962 0.90527 0.0
C1407 C 0.7782 0.25139 0.92441 0.0
C1408 C 0.7412 0.27962 0.91693 0.0
C1409 C 0.75125 0.2564 0.93029 0.0
C1410 C 0.8051 0.33733 0.75363 0.0
C1411 C 0.88569 0.36113 0.80169 0.0
C1412 C 0.8852 0.33885 0.71782 0.0
C1413 C 0.89469 0.33806 0.68621 0.0
C1414 C 0.91516 0.32159 0.67556 0.0
C1415 C 0.88555 0.35838 0.66824 0.0
C1416 C 0.89712 0.36344 0.64023 0.0
C1417 C 0.92668 0.32639 0.64722 0.0
C1418 C 0.91799 0.34769 0.62972 0.0
C1419 C 0.88583 0.29849 0.83094 0.0
H1420 H 0.74958 0.31497 0.8866 0.0
H1421 H 0.81532 0.26523 0.9001 0.0
H1422 H 0.72052 0.28362 0.92156 0.0
H1423 H 0.73832 0.24288 0.94561 0.0
H1424 H 0.92275 0.3059 0.68943 0.0
H1425 H 0.87029 0.37174 0.67696 0.0
H1426 H 0.94273 0.31413 0.63918 0.0
H1427 H 0.9274 0.35183 0.60815 0.0
Gd1428 Gd 0.80724 0.76627 0.76604 0.0
Gd1429 Gd 0.85221 0.85035 0.80286 0.0
C1430 C 0.94687 0.88522 0.78483 0.0
C1431 C 0.97256 0.89842 0.83905 0.0
C1432 C 0.92031 0.87185 0.82866 0.0
C1433 C 0.92028 0.8728 0.79625 0.0
C1434 C 0.9465 0.8856 0.85041 0.0
C1435 C 0.9728 0.8978 0.8063 0.0
C1436 C 0.94679 0.8855 0.75221 0.0
C1437 C 0.92074 0.87425 0.73173 0.0
N1438 N 0.89456 0.86274 0.77618 0.0
C1439 C 0.89492 0.86344 0.74404 0.0
H1440 H 0.87607 0.85446 0.7264 0.0
C1441 C 0.89418 0.86352 0.87223 0.0
N1442 N 0.89475 0.86001 0.83953 0.0
C1443 C 0.91944 0.87674 0.8943 0.0
C1444 C 0.9457 0.88774 0.88338 0.0
H1445 H 0.87423 0.8587 0.88242 0.0
H1446 H 0.99314 0.90786 0.7979 0.0
H1447 H 0.7809 0.7814 0.83768 0.0
H1448 H 0.96673 0.89446 0.74261 0.0
H1449 H 0.92042 0.87396 0.70625 0.0
H1450 H 0.99266 0.90925 0.8555 0.0
H1451 H 0.78865 0.7453 0.68564 0.0
H1452 H 0.69479 0.71795 0.82529 0.0
H1453 H 0.73713 0.75948 0.86044 0.0
H1454 H 0.67883 0.66313 0.71335 0.0
H1455 H 0.91844 0.87975 0.91996 0.0
H1456 H 0.965 0.89907 0.90079 0.0
H1457 H 0.67371 0.68087 0.77044 0.0
H1458 H 0.74918 0.70397 0.64695 0.0
N1459 N 0.76345 0.75628 0.78906 0.0
C1460 C 0.71371 0.72885 0.81486 0.0
C1461 C 0.73756 0.75213 0.83473 0.0
C1462 C 0.7149 0.71936 0.78184 0.0
C1463 C 0.73994 0.73466 0.76943 0.0
C1464 C 0.76252 0.76483 0.82151 0.0
N1465 N 0.76594 0.74241 0.72632 0.0
C1466 C 0.74151 0.72683 0.73695 0.0
C1467 C 0.74654 0.71051 0.67215 0.0
C1468 C 0.72195 0.69331 0.6832 0.0
C1469 C 0.76857 0.73475 0.69415 0.0
C1470 C 0.71903 0.70158 0.7159 0.0
H1471 H 0.70558 0.67347 0.6664 0.0
O1472 O 0.81529 0.72573 0.73224 0.0
O1473 O 0.85299 0.79871 0.78254 0.0
O1474 O 0.83685 0.85076 0.75083 0.0
O1475 O 0.805 0.7972 0.72779 0.0
O1476 O 0.84132 0.77295 0.73413 0.0
O1477 O 0.80702 0.71986 0.78094 0.0
O1478 O 0.84369 0.88117 0.84596 0.0
O1479 O 0.80865 0.81494 0.79694 0.0
O1480 O 0.82354 0.76374 0.8172 0.0
O1481 O 0.84281 0.8201 0.84171 0.0
O1482 O 0.81037 0.86074 0.787 0.0
O1483 O 0.87 0.90407 0.81313 0.0
C1484 C 0.86219 0.79146 0.75598 0.0
C1485 C 0.69511 0.68435 0.72848 0.0
C1486 C 0.69255 0.69396 0.76118 0.0
C1487 C 0.81184 0.70645 0.75243 0.0
C1488 C 0.81401 0.67254 0.74336 0.0
C1489 C 0.80742 0.65439 0.71111 0.0
C1490 C 0.82474 0.65909 0.76711 0.0
C1491 C 0.82931 0.62768 0.75903 0.0
C1492 C 0.81129 0.62238 0.70306 0.0
C1493 C 0.82219 0.60888 0.72704 0.0
C1494 C 0.82007 0.82774 0.7258 0.0
C1495 C 0.79303 0.83306 0.79031 0.0
C1496 C 0.85872 0.9089 0.83984 0.0
C1497 C 0.8467 0.9372 0.84584 0.0
C1498 C 0.85199 0.95811 0.87686 0.0
C1499 C 0.8326 0.94547 0.82015 0.0
C1500 C 0.8253 0.97553 0.82487 0.0
C1501 C 0.8438 0.98778 0.88184 0.0
C1502 C 0.83085 0.99682 0.85577 0.0
C1503 C 0.83448 0.78819 0.8433 0.0
H1504 H 0.79958 0.6651 0.69233 0.0
H1505 H 0.8304 0.6735 0.79193 0.0
H1506 H 0.80642 0.60828 0.67828 0.0
H1507 H 0.8258 0.5844 0.72057 0.0
H1508 H 0.86313 0.95196 0.89693 0.0
H1509 H 0.82894 0.92959 0.79603 0.0
H1510 H 0.84823 1.00417 0.90568 0.0
H1511 H 0.82545 1.0204 0.85955 0.0
Gd1512 Gd 0.62476 0.58217 0.5707 0.0
Gd1513 Gd 0.55816 0.53309 0.52947 0.0
C1514 C 0.52257 0.42384 0.53789 0.0
C1515 C 0.50882 0.39428 0.48173 0.0
C1516 C 0.53297 0.45433 0.49582 0.0
C1517 C 0.53411 0.45413 0.52822 0.0
C1518 C 0.52044 0.42428 0.47221 0.0
C1519 C 0.50979 0.39409 0.51451 0.0
C1520 C 0.52383 0.42426 0.57079 0.0
C1521 C 0.53652 0.45424 0.59321 0.0
N1522 N 0.54596 0.48349 0.55027 0.0
C1523 C 0.54734 0.48356 0.58258 0.0
H1524 H 0.55781 0.50572 0.60089 0.0
C1525 C 0.54023 0.48515 0.45529 0.0
N1526 N 0.5432 0.48395 0.48729 0.0
C1527 C 0.52899 0.45592 0.43111 0.0
C1528 C 0.51931 0.42529 0.43962 0.0
H1529 H 0.54616 0.50884 0.44816 0.0
H1530 H 0.50051 0.37081 0.52155 0.0
H1531 H 0.62557 0.60796 0.49665 0.0
H1532 H 0.51522 0.40159 0.57911 0.0
H1533 H 0.53808 0.45486 0.61881 0.0
H1534 H 0.49872 0.37116 0.46391 0.0
H1535 H 0.6267 0.6143 0.65193 0.0
H1536 H 0.68077 0.7069 0.51573 0.0
H1537 H 0.65257 0.65477 0.4773 0.0
H1538 H 0.68775 0.74486 0.62959 0.0
H1539 H 0.52729 0.45714 0.40593 0.0
H1540 H 0.51061 0.40262 0.42091 0.0
H1541 H 0.69404 0.74005 0.57248 0.0
H1542 H 0.63742 0.669 0.6888 0.0
N1543 N 0.64019 0.62987 0.54706 0.0
C1544 C 0.66945 0.68564 0.52474 0.0
C1545 C 0.65367 0.65629 0.50304 0.0
C1546 C 0.66899 0.68786 0.55773 0.0
C1547 C 0.65406 0.65928 0.56834 0.0
C1548 C 0.63885 0.62895 0.51454 0.0
N1549 N 0.63714 0.63392 0.61026 0.0
C1550 C 0.65141 0.66172 0.60065 0.0
C1551 C 0.64191 0.66733 0.66419 0.0
C1552 C 0.65654 0.69585 0.65459 0.0
C1553 C 0.63434 0.63628 0.64239 0.0
C1554 C 0.66242 0.69311 0.62284 0.0
H1555 H 0.66374 0.71968 0.67202 0.0
O1556 O 0.6607 0.58982 0.60815 0.0
O1557 O 0.60138 0.52722 0.54947 0.0
O1558 O 0.54814 0.55006 0.58175 0.0
O1559 O 0.59222 0.58359 0.60932 0.0
O1560 O 0.61886 0.54051 0.59772 0.0
O1561 O 0.66566 0.5761 0.55684 0.0
O1562 O 0.5258 0.53963 0.49586 0.0
O1563 O 0.58255 0.58777 0.55128 0.0
O1564 O 0.6327 0.56352 0.51702 0.0
O1565 O 0.58791 0.53158 0.48914 0.0
O1566 O 0.56584 0.57503 0.50307 0.0
O1567 O 0.51445 0.53074 0.54247 0.0
C1568 C 0.60731 0.51516 0.57397 0.0
C1569 C 0.67847 0.72094 0.61265 0.0
C1570 C 0.68209 0.71819 0.58019 0.0
C1571 C 0.67752 0.58354 0.58689 0.0
C1572 C 0.70748 0.58434 0.5961 0.0
C1573 C 0.7228 0.60459 0.62565 0.0
C1574 C 0.7211 0.56532 0.57525 0.0
C1575 C 0.74986 0.56635 0.58419 0.0
C1576 C 0.75159 0.60596 0.63426 0.0
C1577 C 0.76515 0.58682 0.61371 0.0
C1578 C 0.56397 0.56932 0.60923 0.0
C1579 C 0.57783 0.60009 0.52686 0.0
C1580 C 0.50637 0.53742 0.51518 0.0
C1581 C 0.47603 0.52973 0.50114 0.0
C1582 C 0.46649 0.51227 0.46883 0.0
C1583 C 0.45781 0.54513 0.51851 0.0
C1584 C 0.4307 0.54422 0.5033 0.0
C1585 C 0.43929 0.51103 0.45384 0.0
C1586 C 0.42158 0.52728 0.47085 0.0
C1587 C 0.61603 0.54562 0.48917 0.0
H1588 H 0.71261 0.6196 0.6419 0.0
H1589 H 0.70938 0.54954 0.55234 0.0
H1590 H 0.76326 0.62194 0.65684 0.0
H1591 H 0.7876 0.58817 0.62059 0.0
H1592 H 0.48041 0.50059 0.45489 0.0
H1593 H 0.46527 0.55922 0.54326 0.0
H1594 H 0.43211 0.498 0.42881 0.0
H1595 H 0.40065 0.52645 0.45881 0.0
Gd1596 Gd 0.05558 0.56211 0.07754 0.0
Gd1597 Gd 0.12297 0.5619 0.04859 0.0
C1598 C 0.18379 0.66671 0.0612 0.0
C1599 C 0.18699 0.67125 1.0056 0.0
C1600 C 0.15759 0.62 0.01717 0.0
C1601 C 0.16475 0.63412 0.05005 0.0
C1602 C 0.16917 0.63821 0.99463 0.0
C1603 C 0.19433 0.68545 0.0388 0.0
C1604 C 0.19237 0.67909 0.09451 0.0
C1605 C 0.18247 0.65881 0.11573 0.0
N1606 N 0.15429 0.61541 0.07116 0.0
C1607 C 0.16338 0.6268 0.1035 0.0
H1608 H 0.15595 0.61108 0.11973 0.0
C1609 C 0.13659 0.57141 0.97546 0.0
N1610 N 0.14063 0.58783 1.0073 0.0
C1611 C 0.14721 0.58862 0.95221 0.0
C1612 C 0.16324 0.6223 0.96178 0.0
H1613 H 0.12435 0.54526 0.9681 0.0
H1614 H 0.20874 0.71064 0.0469 0.0
H1615 H 1.0125 0.51185 1.00802 0.0
H1616 H 0.20711 0.7039 0.10402 0.0
H1617 H 0.18944 0.66784 0.14147 0.0
H1618 H 0.19587 0.68573 0.98861 0.0
H1619 H 0.05965 0.57633 0.15986 0.0
H1620 H 0.97158 0.41753 0.02723 0.0
H1621 H 0.98153 0.45484 0.98934 0.0
H1622 H 0.99487 0.43419 0.14122 0.0
H1623 H 0.14316 0.57587 0.92696 0.0
H1624 H 0.17166 0.6355 0.94373 0.0
H1625 H 0.97687 0.41001 0.08369 0.0
H1626 H 0.04706 0.54426 0.20108 0.0
N1627 N 0.02295 0.50774 0.05669 0.0
C1628 C 0.98582 0.44276 0.03579 0.0
C1629 C 0.9914 0.46372 0.01436 0.0
C1630 C 0.99774 0.45503 0.06827 0.0
C1631 C 0.01635 0.48811 0.07824 0.0
C1632 C 1.00956 0.49637 0.02531 0.0
N1633 N 0.04304 0.53413 0.11985 0.0
C1634 C 0.02678 0.50162 0.11067 0.0
C1635 C 0.04159 0.53179 0.17576 0.0
C1636 C 0.02674 0.49784 0.16663 0.0
C1637 C 0.04898 0.54977 0.15206 0.0
C1638 C 0.0185 0.48252 0.13385 0.0
H1639 H 0.02072 0.48404 0.18507 0.0
O1640 O 0.03887 0.59516 0.11158 0.0
O1641 O 0.10061 0.59656 0.07725 0.0
O1642 O 0.11911 0.5448 0.09469 0.0
O1643 O 0.09111 0.5755 0.11947 0.0
O1644 O 0.0651 0.61201 0.06357 0.0
O1645 O 0.01421 0.57053 0.06386 0.0
O1646 O 0.14141 0.52291 0.02685 0.0
O1647 O 0.08183 0.52694 0.05776 0.0
O1648 O 0.0502 0.55902 0.02448 0.0
O1649 O 0.09688 0.5768 0.01185 0.0
O1650 O 0.09476 0.5168 0.01237 0.0
O1651 O 0.16541 0.55971 0.06909 0.0
C1652 C 0.09288 0.62079 0.06839 0.0
C1653 C 1.00119 0.44921 0.12377 0.0
C1654 C 0.99088 0.43547 0.09104 0.0
C1655 C 0.01604 0.59168 0.09116 0.0
C1656 C 0.9893 0.59539 0.10336 0.0
C1657 C 0.98192 0.58711 0.13244 0.0
C1658 C 0.97222 0.61064 0.08657 0.0
C1659 C 0.9484 0.6187 0.0992 0.0
C1660 C 0.9579 0.59463 0.14486 0.0
C1661 C 0.94138 0.61063 0.12855 0.0
C1662 C 0.10959 0.55781 0.1206 0.0
C1663 C 0.07658 0.50505 0.03081 0.0
C1664 C 0.16518 0.53347 0.0472 0.0
C1665 C 0.192 0.5328 0.03313 0.0
C1666 C 0.19805 0.54682 1.00643 0.0
C1667 C 0.21018 0.5149 0.04423 0.0
C1668 C 0.2335 0.5101 0.02784 0.0
C1669 C 0.22104 0.54208 0.99018 0.0
C1670 C 0.23852 0.52361 1.00059 0.0
C1671 C 0.06871 0.56976 1.00537 0.0
H1672 H 0.99493 0.57544 0.14572 0.0
H1673 H 0.97812 0.61742 0.06427 0.0
H1674 H 0.95227 0.58843 0.1674 0.0
H1675 H 0.92299 0.61649 0.13871 0.0
H1676 H 0.18475 0.5609 0.9977 0.0
H1677 H 0.20567 0.50386 0.0648 0.0
H1678 H 0.22522 0.55256 0.96928 0.0
H1679 H 0.2563 0.52028 0.9876 0.0
C1680 C 0.05861 0.17116 0.96973 0.0
C1681 C 0.05252 0.19728 0.99187 0.0
H1682 H 0.06938 0.1246 0.96003 0.0
C1683 C 0.05488 0.19413 0.02467 0.0
H1684 H 0.05777 0.17161 0.94438 0.0
C1685 C 0.06215 0.16588 0.03409 0.0
C1686 C 0.06738 0.13951 1.01111 0.0
H1687 H 0.05073 0.21319 0.04307 0.0
H1688 H 0.06285 0.16434 0.05916 0.0
C1689 C 0.06558 0.14354 0.97892 0.0
C1690 C 0.23886 0.83996 0.16508 0.0
C1691 C 0.22071 0.85759 0.18029 0.0
H1692 H 0.27524 0.81996 0.17036 0.0
C1693 C 0.22792 0.87075 0.21394 0.0
H1694 H 0.23375 0.82857 0.13947 0.0
C1695 C 0.25197 0.86607 0.23174 0.0
C1696 C 0.26952 0.84731 0.21689 0.0
H1697 H 0.21448 0.88417 0.22678 0.0
H1698 H 0.25641 0.87682 0.25739 0.0
C1699 C 0.26269 0.83478 0.18303 0.0
C1700 C 0.58389 0.91226 0.52986 0.0
C1701 C 0.55843 0.89145 0.50959 0.0
H1702 H 0.61024 0.96297 0.55131 0.0
C1703 C 0.53855 0.90771 0.49875 0.0
H1704 H 0.6003 0.90133 0.53801 0.0
C1705 C 0.54462 0.9429 0.50567 0.0
C1706 C 0.5701 0.96382 0.52517 0.0
H1707 H 0.5188 0.89317 0.48283 0.0
H1708 H 0.53004 0.95382 0.49387 0.0
C1709 C 0.58959 0.94784 0.53752 0.0
C1710 C 0.54502 0.28423 0.66878 0.0
C1711 C 0.56433 0.31633 0.68023 0.0
H1712 H 0.50487 0.25013 0.67299 0.0
C1713 C 0.55557 0.34096 0.70074 0.0
H1714 H 0.55141 0.26493 0.65281 0.0
C1715 C 0.52882 0.3325 0.71226 0.0
C1716 C 0.51082 0.29937 0.70335 0.0
H1717 H 0.57029 0.36583 0.70987 0.0
H1718 H 0.52352 0.35092 0.7304 0.0
C1719 C 0.51839 0.27583 0.68014 0.0
C1720 C 0.0232 0.8306 0.59034 0.0
C1721 C 0.03633 0.80829 0.60143 0.0
H1722 H 0.02695 0.86784 0.56219 0.0
C1723 C 0.06447 0.80841 0.59545 0.0
H1724 H 1.00161 0.83104 0.59518 0.0
C1725 C 0.07898 0.82939 0.57726 0.0
C1726 C 0.06546 0.85039 0.56435 0.0
H1727 H 0.07529 0.79209 0.60487 0.0
H1728 H 0.10079 0.82912 0.57323 0.0
C1729 C 0.03768 0.85148 0.57161 0.0
C1730 C 0.55865 0.83757 0.83722 0.0
C1731 C 0.57931 0.86803 0.8517 0.0
H1732 H 0.51827 0.81409 0.8059 0.0
C1733 C 0.57333 0.89843 0.85049 0.0
H1734 H 0.56308 0.81395 0.83799 0.0
C1735 C 0.5482 0.89854 0.8323 0.0
C1736 C 0.52879 0.86826 0.81519 0.0
H1737 H 0.58895 0.92216 0.8621 0.0
H1738 H 0.5446 0.92228 0.83023 0.0
C1739 C 0.53331 0.83769 0.81887 0.0
C1740 C 0.50846 0.12657 0.1357 0.0
C1741 C 0.50003 0.15172 0.12371 0.0
H1742 H 0.53396 0.09212 0.13081 0.0
C1743 C 0.50969 0.15946 0.09511 0.0
H1744 H 0.50139 0.12005 0.15765 0.0
C1745 C 0.52898 0.14414 0.08026 0.0
C1746 C 0.53871 0.12045 0.09335 0.0
H1747 H 0.50393 0.17895 0.08528 0.0
H1748 H 0.53688 0.15166 0.0591 0.0
C1749 C 0.52766 0.11114 0.12072 0.0
C1750 C 0.21797 0.30755 0.29615 0.0
C1751 C 0.22224 0.32481 0.32873 0.0
H1752 H 0.23813 0.29406 0.25427 0.0
C1753 C 0.2504 0.34203 0.34413 0.0
H1754 H 0.19636 0.29424 0.28373 0.0
C1755 C 0.27398 0.34122 0.32762 0.0
C1756 C 0.26983 0.32368 0.29527 0.0
H1757 H 0.25427 0.35535 0.36923 0.0
H1758 H 0.29559 0.3538 0.34036 0.0
C1759 C 0.24168 0.30745 0.27931 0.0
C1760 C 1.00499 0.05407 0.16561 0.0
C1761 C 0.01681 0.07799 0.19531 0.0
H1762 H 1.00832 0.03372 0.1156 0.0
C1763 C 0.0438 0.10114 0.19373 0.0
H1764 H 0.98467 0.03531 0.16459 0.0
C1765 C 0.05768 0.1004 0.16474 0.0
C1766 C 0.0458 0.07634 0.13499 0.0
H1767 H 0.05425 0.1205 0.21506 0.0
H1768 H 0.07785 0.11931 0.16576 0.0
C1769 C 0.0189 0.05321 0.1368 0.0
C1770 C 0.32582 0.72974 0.47189 0.0
C1771 C 0.30942 0.69743 0.47251 0.0
H1772 H 0.32777 0.77302 0.45264 0.0
C1773 C 0.2837 0.68191 0.45099 0.0
H1774 H 0.34546 0.74218 0.4888 0.0
C1775 C 0.27305 0.6999 0.4312 0.0
C1776 C 0.28848 0.73313 0.43235 0.0
H1777 H 0.27048 0.65722 0.45174 0.0
H1778 H 0.25223 0.6885 0.41617 0.0
C1779 C 0.31557 0.74739 0.45158 0.0
C1780 C 0.67022 0.07997 0.6793 0.0
C1781 C 0.67479 0.04841 0.67803 0.0
H1782 H 0.64401 0.1072 0.65994 0.0
C1783 C 0.65348 1.0193 0.66194 0.0
H1784 H 0.6862 0.10262 0.69286 0.0
C1785 C 0.62958 1.02196 0.64325 0.0
C1786 C 0.62699 0.05371 0.64106 0.0
H1787 H 0.65647 0.99482 0.66176 0.0
H1788 H 0.61496 0.99944 0.62763 0.0
C1789 C 0.64588 0.08257 0.66131 0.0
C1790 C 0.33918 0.3611 0.92526 0.0
C1791 C 0.3535 0.34257 0.94116 0.0
H1792 H 0.32543 0.37222 0.88101 0.0
C1793 C 0.36326 0.31767 0.92164 0.0
H1794 H 0.33086 0.38009 0.93898 0.0
C1795 C 0.35917 0.31215 0.88737 0.0
C1796 C 0.34659 0.33254 0.87177 0.0
H1797 H 0.37418 0.30253 0.93281 0.0
H1798 H 0.36605 0.29221 0.87331 0.0
C1799 C 0.33616 0.35652 0.89155 0.0
C1800 C 0.05865 0.04908 0.3984 0.0
C1801 C 0.03524 0.06218 0.39042 0.0
H1802 H 0.08758 0.04018 0.43557 0.0
C1803 C 0.02288 0.07511 0.41727 0.0
H1804 H 0.06935 0.03891 0.37917 0.0
C1805 C 0.03242 0.07415 0.4496 0.0
C1806 C 0.0557 0.06114 0.45793 0.0
H1807 H 1.00501 0.08553 0.41327 0.0
H1808 H 0.02125 0.08405 0.46849 0.0
C1809 C 0.06907 0.04938 0.43125 0.0
C1810 C 0.34444 0.74264 0.62675 0.0
C1811 C 0.32614 0.71082 0.62601 0.0
H1812 H 0.35409 0.79505 0.64695 0.0
C1813 C 0.29969 0.70828 0.63832 0.0
H1814 H 0.36373 0.74547 0.61501 0.0
C1815 C 0.29425 0.73661 0.65598 0.0
C1816 C 0.31611 0.76718 0.66335 0.0
H1817 H 0.28378 0.68428 0.6358 0.0
H1818 H 0.27516 0.73336 0.66811 0.0
C1819 C 0.33893 0.77096 0.64483 0.0
C1820 C 0.71154 0.11351 0.8545 0.0
C1821 C 0.70402 0.07933 0.83943 0.0
H1822 H 0.69883 0.15233 0.88501 0.0
C1823 C 0.68058 0.05679 0.84755 0.0
H1824 H 0.72934 0.13126 0.84777 0.0
C1825 C 0.66302 0.0688 0.8683 0.0
C1826 C 0.66871 0.10346 0.88067 0.0
H1827 H 0.67413 0.03052 0.83536 0.0
H1828 H 0.64381 0.05129 0.87276 0.0
C1829 C 0.6938 0.12563 0.87497 0.0
C1830 C 0.33013 0.3688 0.15267 0.0
C1831 C 0.34022 0.3501 0.12714 0.0
H1832 H 0.31757 0.3731 0.20009 0.0
C1833 C 0.34179 0.31793 0.12966 0.0
H1834 H 0.32797 0.3934 0.15176 0.0
C1835 C 0.33498 0.30588 0.15766 0.0
C1836 C 0.32673 0.32584 0.18386 0.0
H1837 H 0.34939 0.30269 0.1107 0.0
H1838 H 0.33794 0.28186 0.15965 0.0
C1839 C 0.32384 0.35708 0.18052 0.0
C1840 C 0.29815 0.0587 0.02498 0.0
C1841 C 0.30041 0.02627 0.02422 0.0
H1842 H 0.27525 0.09469 0.0409 0.0
C1843 C 0.27868 1.00337 0.03484 0.0
H1844 H 0.31495 0.0768 0.0173 0.0
C1845 C 0.25667 1.01386 0.04925 0.0
C1846 C 0.25568 0.04704 0.05227 0.0
H1847 H 0.28044 0.97848 0.03521 0.0
H1848 H 0.24172 0.99683 0.06014 0.0
C1849 C 0.27558 0.0689 0.03852 0.0
C1850 C 0.72352 0.61486 0.99837 0.0
C1851 C 0.73223 0.64938 0.01297 0.0
H1852 H 0.6904 0.56782 0.9906 0.0
C1853 C 0.71337 0.66272 0.03121 0.0
H1854 H 0.73774 0.60377 0.98439 0.0
C1855 C 0.68683 0.64221 0.03545 0.0
C1856 C 0.6779 0.60758 0.02115 0.0
H1857 H 0.71969 0.68894 0.04357 0.0
H1858 H 0.6736 0.65368 0.05067 0.0
C1859 C 0.69645 0.59423 1.00209 0.0
C1860 C 0.77242 0.41885 0.29761 0.0
C1861 C 0.77467 0.43368 0.27043 0.0
H1862 H 0.78184 0.38287 0.32336 0.0
C1863 C 0.79074 0.41936 0.24748 0.0
H1864 H 0.76075 0.42794 0.31637 0.0
C1865 C 0.80305 0.39214 0.25139 0.0
C1866 C 0.80072 0.37757 0.27893 0.0
H1867 H 0.79361 0.42895 0.22589 0.0
H1868 H 0.81424 0.38238 0.23247 0.0
C1869 C 0.78492 0.39227 0.30168 0.0
C1870 C 0.97534 0.53595 0.52903 0.0
C1871 C 0.95965 0.50282 0.5275 0.0
H1872 H 0.01658 0.5715 0.53841 0.0
C1873 C 0.97459 0.47931 0.5321 0.0
H1874 H 0.96444 0.5547 0.52596 0.0
C1875 C 1.00469 0.48887 0.53835 0.0
C1876 C 0.02039 0.52213 0.54044 0.0
H1877 H 0.96303 0.45359 0.53157 0.0
H1878 H 0.01562 0.47044 0.54249 0.0
C1879 C 1.00539 0.54557 0.53602 0.0
C1880 C 0.34352 0.07647 0.30034 0.0
C1881 C 0.37104 0.09411 0.31762 0.0
H1882 H 0.31187 0.07307 0.26073 0.0
C1883 C 0.38499 0.12594 0.31293 0.0
H1884 H 0.33212 0.05207 0.30382 0.0
C1885 C 0.37334 0.13781 0.28823 0.0
C1886 C 0.34778 0.11789 0.26825 0.0
H1887 H 0.4062 0.1401 0.32597 0.0
H1888 H 0.38522 0.16136 0.28333 0.0
C1889 C 0.33217 0.08807 0.27538 0.0
C1890 C 0.39441 0.12329 0.523 0.0
C1891 C 0.39078 0.15412 0.53829 0.0
H1892 H 0.41765 0.08665 0.52525 0.0
C1893 C 0.40999 0.17362 0.56588 0.0
H1894 H 0.37946 0.10766 0.50201 0.0
C1895 C 0.43114 0.16136 0.57953 0.0
C1896 C 0.4336 0.1296 0.56552 0.0
H1897 H 0.40716 0.1972 0.57833 0.0
H1898 H 0.44453 0.17587 0.602 0.0
C1899 C 0.41602 0.11125 0.53637 0.0
C1900 C 0.79098 0.63821 0.2793 0.0
C1901 C 0.7684 0.62985 0.29811 0.0
H1902 H 0.82158 0.67674 0.26308 0.0
C1903 C 0.76082 0.65759 0.31613 0.0
H1904 H 0.79752 0.61837 0.26443 0.0
C1905 C 0.77452 0.69142 0.31504 0.0
C1906 C 0.79686 0.69978 0.29609 0.0
H1907 H 0.74368 0.65318 0.33095 0.0
H1908 H 0.76741 0.71121 0.32922 0.0
C1909 C 0.80489 0.6722 0.27846 0.0
C1910 C 0.89509 0.45163 0.8376 0.0
C1911 C 0.92437 0.4621 0.85124 0.0
H1912 H 0.86016 0.41123 0.80967 0.0
C1913 C 0.9408 0.43922 0.84878 0.0
H1914 H 0.88237 0.46931 0.8382 0.0
C1915 C 0.92791 0.40591 0.83305 0.0
C1916 C 0.89868 0.39555 0.81932 0.0
H1917 H 0.96365 0.44732 0.85828 0.0
H1918 H 0.94079 0.38835 0.8313 0.0
C1919 C 0.8825 0.41866 0.82104 0.0
C1920 C 0.11783 0.95158 0.10582 0.0
C1921 C 0.12272 0.9276 0.08033 0.0
H1922 H 0.1095 0.99929 0.12209 0.0
C1923 C 0.12038 0.93542 0.04932 0.0
H1924 H 0.11929 0.94749 0.1301 0.0
C1925 C 0.11367 0.96549 0.04439 0.0
C1926 C 0.10971 0.98988 0.07037 0.0
H1927 H 0.12373 0.91817 0.02863 0.0
H1928 H 0.11249 0.97007 0.02028 0.0
C1929 C 0.11206 0.98179 0.10109 0.0
C1930 C 0.93874 0.29903 0.90578 0.0
C1931 C 0.95757 0.28112 0.89229 0.0
H1932 H 0.90208 0.3183 0.89813 0.0
C1933 C 0.95159 0.26811 0.85844 0.0
H1934 H 0.94228 0.30981 0.93149 0.0
C1935 C 0.92827 0.27296 0.83912 0.0
C1936 C 0.90973 0.29138 0.85244 0.0
H1937 H 0.96517 0.25418 0.84659 0.0
H1938 H 0.92502 0.26234 0.81343 0.0
C1939 C 0.91546 0.30404 0.88637 0.0
C1940 C 0.62068 0.21214 0.5552 0.0
C1941 C 0.63213 0.22785 0.58772 0.0
H1942 H 0.6018 0.16546 0.51985 0.0
C1943 C 0.63594 0.20631 0.60837 0.0
H1944 H 0.61696 0.22717 0.53836 0.0
C1945 C 0.62739 0.17101 0.59776 0.0
C1946 C 0.61511 0.15524 0.56569 0.0
H1947 H 0.64466 0.21675 0.63361 0.0
H1948 H 0.62894 0.156 0.61529 0.0
C1949 C 0.61207 0.17653 0.54454 0.0
C1950 C 0.62435 0.76884 0.38546 0.0
C1951 C 0.61226 0.79463 0.3982 0.0
H1952 H 0.6558 0.75473 0.35663 0.0
C1953 C 0.62481 0.82706 0.39414 0.0
H1954 H 0.61524 0.74367 0.3886 0.0
C1955 C 0.6482 0.8335 0.37675 0.0
C1956 C 0.6596 0.80763 0.36262 0.0
H1957 H 0.61642 0.84755 0.40443 0.0
H1958 H 0.65696 0.85873 0.37355 0.0
C1959 C 0.64775 0.77525 0.36758 0.0
C1960 C 0.1578 0.26862 0.47334 0.0
C1961 C 0.14498 0.29153 0.46314 0.0
H1962 H 0.15647 0.23421 0.50412 0.0
C1963 C 0.12005 0.29678 0.47537 0.0
H1964 H 0.17713 0.26446 0.46415 0.0
C1965 C 0.10788 0.27926 0.49758 0.0
C1966 C 0.12068 0.25644 0.50836 0.0
H1967 H 0.1098 0.31431 0.4674 0.0
H1968 H 0.08816 0.2832 0.50584 0.0
C1969 C 0.14586 0.25135 0.49605 0.0
C1970 C 0.60901 0.22484 0.19843 0.0
C1971 C 0.59286 0.2431 0.21648 0.0
H1972 H 0.64651 0.20667 0.19919 0.0
C1973 C 0.60344 0.25919 0.24892 0.0
H1974 H 0.60132 0.21211 0.17338 0.0
C1975 C 0.62899 0.25568 0.26357 0.0
C1976 C 0.64433 0.23629 0.24588 0.0
H1977 H 0.59161 0.2738 0.2632 0.0
H1978 H 0.63662 0.26775 0.28878 0.0
C1979 C 0.63466 0.22154 0.21309 0.0
C1980 C 0.66051 0.95696 0.99714 0.0
C1981 C 0.66097 0.95417 0.96386 0.0
H1982 H 0.64497 0.97801 0.0393 0.0
C1983 C 0.6467 0.9728 0.9479 0.0
H1984 H 0.67125 0.94291 1.01012 0.0
C1985 C 0.63094 0.99226 0.96449 0.0
C1986 C 0.62933 0.99382 0.99749 0.0
H1987 H 0.6464 0.97106 0.92218 0.0
H1988 H 0.61958 1.0055 0.95117 0.0
C1989 C 0.64497 0.97669 0.01378 0.0
C1990 C 0.93686 0.78133 0.76914 0.0
C1991 C 0.94351 0.7779 0.73736 0.0
H1992 H 0.90554 0.7895 0.80049 0.0
C1993 C 0.92504 0.78351 0.71329 0.0
H1994 H 0.95092 0.77719 0.7881 0.0
C1995 C 0.89917 0.78975 0.72022 0.0
C1996 C 0.89185 0.79172 0.75154 0.0
H1997 H 0.92962 0.781 0.68862 0.0
H1998 H 0.88436 0.792 0.70079 0.0
C1999 C 0.91114 0.78853 0.77629 0.0
C2000 C 0.12801 0.02361 0.89256 0.0
C2001 C 0.14918 0.0512 0.88632 0.0
H2002 H 0.10017 1.00273 0.92545 0.0
C2003 C 0.15886 0.07926 0.91303 0.0
H2004 H 0.11951 1.00121 0.87348 0.0
C2005 C 0.14853 0.07961 0.94381 0.0
C2006 C 0.12672 0.05249 0.94991 0.0
H2007 H 0.17513 0.1012 0.91038 0.0
H2008 H 0.1576 0.10184 0.9629 0.0
C2009 C 0.11674 0.02449 0.92299 0.0
C2010 C 0.84903 0.40486 0.60005 0.0
C2011 C 0.86912 0.43442 0.59753 0.0
H2012 H 0.84259 0.35862 0.61526 0.0
C2013 C 0.89859 0.44053 0.60929 0.0
H2014 H 0.82633 0.39946 0.5907 0.0
C2015 C 0.90796 0.41672 0.62208 0.0
C2016 C 0.88793 0.38687 0.62374 0.0
H2017 H 0.91468 0.46282 0.60699 0.0
H2018 H 0.93074 0.42167 0.63085 0.0
C2019 C 0.85837 0.38135 0.61337 0.0
C2020 C 0.54204 0.04516 0.40744 0.0
C2021 C 0.5308 0.07259 0.40759 0.0
H2022 H 0.56394 1.02021 0.4359 0.0
C2023 C 0.53548 0.09793 0.43558 0.0
H2024 H 0.53784 0.02486 0.3862 0.0
C2025 C 0.55041 0.0952 0.46369 0.0
C2026 C 0.56017 0.06694 0.46373 0.0
H2027 H 0.52664 0.11899 0.43599 0.0
H2028 H 0.55337 0.11438 0.48561 0.0
C2029 C 0.55659 0.04225 0.43564 0.0
C2030 C 0.83813 0.79382 0.14701 0.0
C2031 C 0.81882 0.76415 0.12749 0.0
H2032 H 0.85559 0.82264 0.19573 0.0
C2033 C 0.79999 0.74302 0.14306 0.0
H2034 H 0.85377 0.81012 0.13619 0.0
C2035 C 0.80153 0.74974 0.17676 0.0
C2036 C 0.82079 0.77881 0.19663 0.0
H2037 H 0.78513 0.71972 0.12914 0.0
H2038 H 0.78895 0.73066 0.18741 0.0
C2039 C 0.83905 0.80108 0.18123 0.0
C2040 C 0.13928 0.05214 0.68363 0.0
C2041 C 0.15888 0.03225 0.68659 0.0
H2042 H 0.11347 0.07272 0.65282 0.0
C2043 C 0.16573 1.01742 0.65649 0.0
H2044 H 0.1331 0.06478 0.70539 0.0
C2045 C 0.15466 0.02244 0.62614 0.0
C2046 C 0.13554 0.0426 0.62283 0.0
H2047 H 0.18038 1.00192 0.6562 0.0
H2048 H 0.16162 1.01021 0.60471 0.0
C2049 C 0.12785 0.05697 0.65283 0.0
C2050 C 0.84545 0.3463 0.42972 0.0
C2051 C 0.86315 0.3794 0.43709 0.0
H2052 H 0.82962 0.3006 0.39372 0.0
C2053 C 0.88169 0.39065 0.41562 0.0
H2054 H 0.83174 0.33701 0.44671 0.0
C2055 C 0.8809 0.36984 0.38583 0.0
C2056 C 0.86067 0.33791 0.37654 0.0
H2057 H 0.89646 0.41574 0.42169 0.0
H2058 H 0.89503 0.37969 0.36946 0.0
C2059 C 0.84417 0.32561 0.39946 0.0
C2060 C 0.48979 0.06433 0.2436 0.0
C2061 C 0.46804 0.04073 0.25328 0.0
H2062 H 0.52737 0.07276 0.21979 0.0
C2063 C 0.46549 1.00634 0.24286 0.0
H2064 H 0.49227 0.09093 0.25155 0.0
C2065 C 0.48603 0.99601 0.22547 0.0
C2066 C 0.50891 1.01991 0.21786 0.0
H2067 H 0.44906 0.9876 0.25029 0.0
H2068 H 0.48447 0.96955 0.21863 0.0
C2069 C 0.51003 0.05398 0.22592 0.0
C2070 C 0.83293 0.74323 0.91404 0.0
C2071 C 0.82527 0.76549 0.93886 0.0
H2072 H 0.84122 0.73224 0.86455 0.0
C2073 C 0.82178 0.79549 0.93194 0.0
H2074 H 0.83569 0.71978 0.91818 0.0
C2075 C 0.82583 0.80305 0.90156 0.0
C2076 C 0.83263 0.78047 0.87641 0.0
H2077 H 0.81582 0.81328 0.95011 0.0
H2078 H 0.8227 0.82636 0.89749 0.0
C2079 C 0.83606 0.75034 0.88316 0.0
C2080 C 0.87527 0.05803 0.05875 0.0
C2081 C 0.86457 0.08247 0.04818 0.0
H2082 H 0.90497 0.02823 0.05202 0.0
C2083 C 0.87864 0.09947 0.02617 0.0
H2084 H 0.86529 0.04526 0.07635 0.0
C2085 C 0.90107 0.08977 0.01244 0.0
C2086 C 0.90995 0.0633 0.02084 0.0
H2087 H 0.87145 0.11918 0.0183 0.0
H2088 H 0.91048 0.10171 0.99402 0.0
C2089 C 0.89803 0.04855 0.04516 0.0
C2090 C 0.47315 0.44601 0.04244 0.0
C2091 C 0.45441 0.45963 0.06083 0.0
H2092 H 0.51514 0.45305 0.02772 0.0
C2093 C 0.46551 0.4926 0.07986 0.0
H2094 H 0.46554 0.42091 0.0273 0.0
C2095 C 0.4944 0.51135 0.08021 0.0
C2096 C 0.51301 0.49776 0.06142 0.0
H2097 H 0.45186 0.50399 0.09453 0.0
H2098 H 0.50203 0.53652 0.09509 0.0
C2099 C 0.50184 0.46467 0.04273 0.0
C2100 C 0.3886 0.676 0.72756 0.0
C2101 C 0.39924 0.66896 0.75684 0.0
H2102 H 0.3698 0.70726 0.7028 0.0
C2103 C 0.39547 0.6915 0.78502 0.0
H2104 H 0.39045 0.66048 0.70487 0.0
C2105 C 0.38228 0.71866 0.78382 0.0
C2106 C 0.37235 0.72598 0.75426 0.0
H2107 H 0.40286 0.68824 0.80852 0.0
H2108 H 0.38079 0.73467 0.80637 0.0
C2109 C 0.37631 0.7035 0.72638 0.0
C2110 C 0.21164 0.65417 0.56183 0.0
C2111 C 0.2219 0.6261 0.563 0.0
H2112 H 0.17518 0.6743 0.56313 0.0
C2113 C 0.20322 0.5973 0.56867 0.0
H2114 H 0.22571 0.67702 0.55779 0.0
C2115 C 0.1747 0.59616 0.57209 0.0
C2116 C 0.16391 0.62354 0.57 0.0
H2117 H 0.21047 0.57546 0.57023 0.0
H2118 H 0.16114 0.57329 0.57574 0.0
C2119 C 0.18283 0.65286 0.56525 0.0
C2120 C 0.82108 0.02365 0.76077 0.0
C2121 C 0.79377 1.00588 0.74332 0.0
H2122 H 0.85184 0.02855 0.80183 0.0
C2123 C 0.77763 0.97675 0.75134 0.0
H2124 H 0.83325 0.04692 0.75555 0.0
C2125 C 0.78823 0.96628 0.77766 0.0
C2126 C 0.81448 0.98565 0.79663 0.0
H2127 H 0.75609 0.96348 0.73864 0.0
H2128 H 0.77537 0.9441 0.78415 0.0
C2129 C 0.83125 1.01379 0.78763 0.0
C2130 C 0.78549 0.94984 0.51978 0.0
C2131 C 0.79981 0.96186 0.55162 0.0
H2132 H 0.75388 0.95437 0.48392 0.0
C2133 C 0.79076 0.9857 0.57302 0.0
H2134 H 0.79166 0.93107 0.50292 0.0
C2135 C 0.76891 0.99868 0.56222 0.0
C2136 C 0.75604 0.9883 0.5298 0.0
H2137 H 0.80106 0.99499 0.59788 0.0
H2138 H 0.76308 1.018 0.57878 0.0
C2139 C 0.76392 0.96313 0.50891 0.0
C2140 C 0.42451 0.45724 0.79071 0.0
C2141 C 0.4117 0.47907 0.77707 0.0
H2142 H 0.42135 0.40844 0.80014 0.0
C2143 C 0.38255 0.4641 0.76194 0.0
H2144 H 0.44665 0.46645 0.80273 0.0
C2145 C 0.3674 0.42968 0.76096 0.0
C2146 C 0.38066 0.40807 0.7745 0.0
H2147 H 0.37134 0.4789 0.75064 0.0
H2148 H 0.34524 0.41987 0.74906 0.0
C2149 C 0.40972 0.4231 0.78921 0.0
C2150 C 0.26519 0.68634 0.28188 0.0
C2151 C 0.28308 0.6677 0.26796 0.0
H2152 H 0.25648 0.73367 0.29203 0.0
C2153 C 0.30933 0.68422 0.25922 0.0
H2154 H 0.2455 0.67456 0.29058 0.0
C2155 C 0.31618 0.71859 0.26171 0.0
C2156 C 0.29611 0.73611 0.27071 0.0
H2157 H 0.32409 0.67062 0.24974 0.0
H2158 H 0.33689 0.73129 0.25624 0.0
C2159 C 0.27131 0.72018 0.28251 0.0
C2160 C 0.55601 0.66965 0.49265 0.0
C2161 C 0.57042 0.69998 0.51488 0.0
H2162 H 0.54766 0.61637 0.4786 0.0
C2163 C 0.58661 0.69718 0.54307 0.0
H2164 H 0.54322 0.67005 0.47072 0.0
C2165 C 0.58802 0.66533 0.54857 0.0
C2166 C 0.57507 0.63519 0.52509 0.0
H2167 H 0.59794 0.71962 0.56117 0.0
H2168 H 0.59949 0.6645 0.57105 0.0
C2169 C 0.5587 0.6384 0.49732 0.0
C2170 C 0.73777 0.31872 0.68911 0.0
C2171 C 0.73117 0.34955 0.69202 0.0
H2172 H 0.7651 0.29088 0.70481 0.0
C2173 C 0.74951 0.37693 0.71561 0.0
H2174 H 0.72372 0.29662 0.67238 0.0
C2175 C 0.77344 0.3734 0.73535 0.0
C2176 C 0.7801 0.34238 0.73218 0.0
H2177 H 0.74498 0.40098 0.71935 0.0
H2178 H 0.78674 0.39504 0.75318 0.0
C2179 C 0.76174 0.31535 0.70828 0.0
C2180 C 0.05533 0.41313 0.04263 0.0
C2181 C 0.05236 0.39426 1.01052 0.0
H2182 H 0.06616 0.46238 0.07492 0.0
C2183 C 0.05549 0.41245 0.98611 0.0
H2184 H 0.05303 0.40033 0.06228 0.0
C2185 C 0.06149 0.44769 0.9932 0.0
C2186 C 0.06545 0.46691 0.02515 0.0
H2187 H 0.05298 0.39929 0.9611 0.0
H2188 H 0.06375 0.46015 0.97329 0.0
C2189 C 0.06245 0.4489 0.04991 0.0
C2190 C 0.04838 0.84679 0.20195 0.0
C2191 C 0.05631 0.82324 0.17919 0.0
H2192 H 0.01845 0.85467 0.23527 0.0
C2193 C 0.03781 0.79057 0.16873 0.0
H2194 H 0.06264 0.87199 0.21054 0.0
C2195 C 1.01292 0.78063 0.18293 0.0
C2196 C 1.00618 0.80336 0.20764 0.0
H2197 H 0.04379 0.77202 0.15134 0.0
H2198 H 1.00006 0.75463 0.17626 0.0
C2199 C 0.02323 0.8369 0.21601 0.0
C2200 C 0.53317 0.32661 0.09451 0.0
C2201 C 0.54774 0.30732 0.10868 0.0
H2202 H 0.53578 0.36161 0.06411 0.0
C2203 C 0.5771 0.31085 0.10627 0.0
H2204 H 0.51045 0.32401 0.09626 0.0
C2205 C 0.59154 0.33212 0.08824 0.0
C2206 C 0.57667 0.34987 0.0721 0.0
H2207 H 0.58867 0.29638 0.11767 0.0
H2208 H 0.6142 0.33428 0.08649 0.0
C2209 C 0.5476 0.34781 0.07613 0.0
C2210 C 0.06938 0.37861 0.36514 0.0
C2211 C 0.08132 0.35262 0.35272 0.0
H2212 H 0.0364 0.40293 0.35744 0.0
C2213 C 0.06756 0.32938 0.32391 0.0
H2214 H 0.0795 0.39682 0.38739 0.0
C2215 C 0.04302 0.33295 0.30701 0.0
C2216 C 0.03204 0.35977 0.31871 0.0
H2217 H 0.07601 0.30878 0.31418 0.0
H2218 H 0.03295 0.31521 0.28449 0.0
C2219 C 0.04487 0.3822 0.34813 0.0
C2220 C 0.99976 0.65582 0.60523 0.0
C2221 C 1.00368 0.66403 0.6392 0.0
H2222 H 0.01566 0.63608 0.56242 0.0
C2223 C 0.02759 0.65835 0.65605 0.0
H2224 H 0.98178 0.66029 0.59157 0.0
C2225 C 0.04745 0.64576 0.6395 0.0
C2226 C 0.04373 0.63778 0.60563 0.0
H2227 H 0.03186 0.66499 0.68219 0.0
H2228 H 0.0658 0.64233 0.65346 0.0
C2229 C 0.01951 0.64264 0.58858 0.0
C2230 C 0.75495 0.84917 0.86206 0.0
C2231 C 0.72766 0.84889 0.8479 0.0
H2232 H 0.79662 0.84411 0.85461 0.0
C2233 C 0.72137 0.84202 0.81393 0.0
H2234 H 0.76053 0.85432 0.88805 0.0
C2235 C 0.74234 0.83593 0.79458 0.0
C2236 C 0.76957 0.83648 0.8091 0.0
H2237 H 0.7004 0.84159 0.80236 0.0
H2238 H 0.73744 0.83111 0.76853 0.0
C2239 C 0.7757 0.8434 0.84288 0.0
C2240 C 0.51161 0.54999 0.67486 0.0
C2241 C 0.52018 0.57868 0.70104 0.0
H2242 H 0.5173 0.52454 0.62751 0.0
C2243 C 0.54398 0.60459 0.6963 0.0
H2244 H 0.49382 0.52901 0.67654 0.0
C2245 C 0.55813 0.6018 0.66759 0.0
C2246 C 0.54928 0.57307 0.64125 0.0
H2247 H 0.55173 0.62749 0.7149 0.0
H2248 H 0.57587 0.62277 0.66585 0.0
C2249 C 0.52542 0.54739 0.64611 0.0
C2250 C 0.78321 0.17674 0.95715 0.0
C2251 C 0.81 0.19019 0.97712 0.0
H2252 H 0.75153 0.18648 0.92499 0.0
C2253 C 0.82803 0.22138 0.9757 0.0
H2254 H 0.76882 0.15292 0.95861 0.0
C2255 C 0.81821 0.24046 0.95674 0.0
C2256 C 0.79007 0.22867 0.93955 0.0
H2257 H 0.84852 0.23222 0.99147 0.0
H2258 H 0.8317 0.26549 0.9576 0.0
C2259 C 0.7731 0.19613 0.93862 0.0
C2260 C 0.16745 0.58164 0.18815 0.0
C2261 C 0.17247 0.55024 0.18631 0.0
H2262 H 0.14007 0.60848 0.1703 0.0
C2263 C 0.15129 0.52099 0.17033 0.0
H2264 H 0.18334 0.60437 0.2017 0.0
C2265 C 0.12687 0.52337 0.15238 0.0
C2266 C 0.12361 0.55499 0.15083 0.0
H2267 H 0.15465 0.49662 0.16978 0.0
H2268 H 0.11225 0.50079 0.13688 0.0
C2269 C 0.14254 0.58394 0.17098 0.0
C2270 C 0.83659 0.81622 0.4287 0.0
C2271 C 0.85758 0.8445 0.44812 0.0
H2272 H 0.81655 0.789 0.38031 0.0
C2273 C 0.876 0.86577 0.43233 0.0
H2274 H 0.82159 0.79964 0.43993 0.0
C2275 C 0.87294 0.85983 0.39834 0.0
C2276 C 0.85223 0.83161 0.37869 0.0
H2277 H 0.89232 0.88782 0.44638 0.0
H2278 H 0.88609 0.87827 0.38738 0.0
C2279 C 0.83396 0.80986 0.39446 0.0
C2280 C 0.56071 0.5478 0.90317 0.0
C2281 C 0.53794 0.56216 0.8958 0.0
H2282 H 0.58949 0.53746 0.93955 0.0
C2283 C 0.52673 0.57603 0.92324 0.0
H2284 H 0.57059 0.53685 0.88355 0.0
C2285 C 0.53667 0.57478 0.95543 0.0
C2286 C 0.55929 0.5605 0.96317 0.0
H2287 H 0.50945 0.58751 0.91985 0.0
H2288 H 0.52629 0.58549 0.9747 0.0
C2289 C 0.57155 0.54776 0.93587 0.0
C2290 C 0.85035 0.22947 0.14573 0.0
C2291 C 0.82584 0.20187 0.13766 0.0
H2292 H 0.86895 0.27844 0.17391 0.0
C2293 C 0.79931 0.20502 0.14712 0.0
H2294 H 0.87071 0.22781 0.13756 0.0
C2295 C 0.79811 0.23459 0.16712 0.0
C2296 C 0.82356 0.26091 0.17853 0.0
H2297 H 0.77963 0.18449 0.13958 0.0
H2298 H 0.77796 0.23561 0.1762 0.0
C2299 C 0.84914 0.25886 0.16593 0.0
C2300 C 0.17716 0.56528 0.35635 0.0
C2301 C 0.19905 0.58754 0.34571 0.0
H2302 H 0.14162 0.56041 0.38345 0.0
C2303 C 0.2052 0.62223 0.35775 0.0
H2304 H 0.17188 0.53851 0.34653 0.0
C2305 C 0.18749 0.63481 0.37783 0.0
C2306 C 0.16387 0.61262 0.38613 0.0
H2307 H 0.22192 0.6396 0.34912 0.0
H2308 H 0.19148 0.66169 0.38576 0.0
C2309 C 0.15962 0.57783 0.37672 0.0
C2310 C 0.83739 0.8252 0.63913 0.0
C2311 C 0.83836 0.85794 0.63598 0.0
H2312 H 0.83022 0.78967 0.66972 0.0
C2313 C 0.82936 0.87846 0.6612 0.0
H2314 H 0.84412 0.80857 0.62056 0.0
C2315 C 0.82159 0.86778 0.68921 0.0
C2316 C 0.82175 0.83579 0.69306 0.0
H2317 H 0.82916 0.90363 0.6599 0.0
H2318 H 0.81633 0.88512 0.70848 0.0
C2319 C 0.82911 0.81426 0.66728 0.0
C2320 C 0.79144 0.50584 0.55583 0.0
C2321 C 0.80528 0.52047 0.53239 0.0
H2322 H 0.76286 0.50981 0.59137 0.0
C2323 C 0.79664 0.54617 0.52193 0.0
H2324 H 0.79842 0.48647 0.56467 0.0
C2325 C 0.77593 0.55905 0.53677 0.0
C2326 C 0.76456 0.54686 0.56269 0.0
H2327 H 0.80752 0.55799 0.50423 0.0
H2328 H 0.77076 0.5804 0.53002 0.0
C2329 C 0.77138 0.51928 0.57124 0.0
C2330 C 0.22164 0.11185 0.49431 0.0
C2331 C 0.23125 0.14645 0.50845 0.0
H2332 H 0.18731 0.06593 0.48681 0.0
C2333 C 0.2128 0.16111 0.52618 0.0
H2334 H 0.23551 0.09982 0.48064 0.0
C2335 C 0.18578 0.14175 0.53045 0.0
C2336 C 0.17595 0.10704 0.51665 0.0
H2337 H 0.21979 0.18748 0.53806 0.0
H2338 H 0.17285 0.1542 0.54525 0.0
C2339 C 0.19408 0.09242 0.49799 0.0
C2340 C 0.28821 0.92193 0.73566 0.0
C2341 C 0.27266 0.93605 0.75936 0.0
H2342 H 0.31188 0.88536 0.71968 0.0
C2343 C 0.27159 0.92155 0.78672 0.0
H2344 H 0.29019 0.9314 0.71392 0.0
C2345 C 0.28462 0.89532 0.79026 0.0
C2346 C 0.29978 0.88067 0.76672 0.0
H2347 H 0.26044 0.93062 0.80604 0.0
H2348 H 0.28243 0.8861 0.81213 0.0
C2349 C 0.3011 0.89504 0.73906 0.0
C2350 C 0.47129 0.02942 0.02408 0.0
C2351 C 0.4537 0.99822 0.02598 0.0
H2352 H 0.51403 0.05966 0.02614 0.0
C2353 C 0.46658 0.97291 0.03062 0.0
H2354 H 0.46205 0.04944 0.02077 0.0
C2355 C 0.49641 0.9785 0.03259 0.0
C2356 C 0.51408 1.00964 0.03049 0.0
H2357 H 0.45364 0.94863 0.03283 0.0
H2358 H 0.50567 0.95869 0.03657 0.0
C2359 C 0.50121 0.03512 0.02676 0.0
C2360 C 0.84199 0.5744 0.81568 0.0
C2361 C 0.86973 0.593 0.83186 0.0
H2362 H 0.80794 0.57041 0.77836 0.0
C2363 C 0.88263 0.62471 0.82632 0.0
H2364 H 0.8316 0.54988 0.81963 0.0
C2365 C 0.86926 0.63603 0.80251 0.0
C2366 C 0.8428 0.61591 0.7844 0.0
H2367 H 0.90412 0.63942 0.83818 0.0
H2368 H 0.88012 0.6598 0.79725 0.0
C2369 C 0.82876 0.58563 0.79168 0.0
C2370 C 0.90565 0.6786 0.08479 0.0
C2371 C 0.89043 0.66279 0.05386 0.0
H2372 H 0.93614 0.67688 0.12342 0.0
C2373 C 0.89708 0.63484 0.03611 0.0
H2374 H 0.90055 0.70001 0.09894 0.0
C2375 C 0.91754 0.62163 0.05008 0.0
C2376 C 0.93095 0.63584 0.08215 0.0
H2377 H 0.88519 0.62203 0.01239 0.0
H2378 H 0.92141 0.59905 0.03669 0.0
C2379 C 0.9257 0.66519 0.09888 0.0
C2380 C 0.29108 0.13817 0.77329 0.0
C2381 C 0.26847 0.13031 0.79217 0.0
H2382 H 0.32247 0.17636 0.75752 0.0
C2383 C 0.26163 0.15826 0.81073 0.0
H2384 H 0.29697 0.11808 0.75795 0.0
C2385 C 0.27599 0.19194 0.80995 0.0
C2386 C 0.29844 0.19976 0.79105 0.0
H2387 H 0.24451 0.15416 0.82563 0.0
H2388 H 0.26945 0.21206 0.82439 0.0
C2389 C 0.30582 0.17201 0.77297 0.0
C2390 C 0.38125 0.95658 0.32291 0.0
C2391 C 0.41121 0.96022 0.32866 0.0
H2392 H 0.33988 0.92545 0.29751 0.0
C2393 C 0.42264 0.93571 0.31198 0.0
H2394 H 0.37195 0.97561 0.33475 0.0
C2395 C 0.40439 0.90762 0.29058 0.0
C2396 C 0.37455 0.9037 0.28562 0.0
H2397 H 0.4457 0.93842 0.3153 0.0
H2398 H 0.41347 0.8884 0.27874 0.0
C2399 C 0.36299 0.92848 0.30117 0.0
C2400 C 0.63259 0.43231 0.55752 0.0
C2401 C 0.63104 0.42206 0.58742 0.0
H2402 H 0.62577 0.46761 0.52877 0.0
C2403 C 0.61952 0.44168 0.61082 0.0
H2404 H 0.64117 0.41846 0.53845 0.0
C2405 C 0.61116 0.47026 0.60539 0.0
C2406 C 0.61259 0.48073 0.57577 0.0
H2407 H 0.61772 0.43555 0.63419 0.0
H2408 H 0.60375 0.48476 0.6251 0.0
C2409 C 0.62335 0.46067 0.55172 0.0
C2410 C 0.43003 0.8007 0.38556 0.0
C2411 C 0.45548 0.79894 0.37213 0.0
H2412 H 0.38645 0.80466 0.37797 0.0
C2413 C 0.45517 0.79832 0.33903 0.0
H2414 H 0.42961 0.80193 0.41112 0.0
C2415 C 0.43034 0.7994 0.31991 0.0
C2416 C 0.40483 0.80156 0.33308 0.0
H2417 H 0.47434 0.79718 0.32784 0.0
H2418 H 0.43179 0.7998 0.29497 0.0
C2419 C 0.40522 0.80235 0.36644 0.0
C2420 C 0.12728 0.71249 0.11329 0.0
C2421 C 0.12244 0.73104 0.08997 0.0
H2422 H 0.12247 0.6644 0.12525 0.0
C2423 C 0.11162 0.7121 0.05819 0.0
H2424 H 0.13561 0.7254 0.13815 0.0
C2425 C 0.10456 0.67638 0.05075 0.0
C2426 C 0.10858 0.65804 0.07446 0.0
H2427 H 0.10727 0.72467 0.03937 0.0
H2428 H 0.0946 0.66284 0.02648 0.0
C2429 C 0.12028 0.67703 0.10583 0.0
C2430 C 0.13353 0.31449 0.89589 0.0
C2431 C 0.11383 0.28237 0.88539 0.0
H2432 H 0.17232 0.34907 0.88837 0.0
C2433 C 0.12093 0.25873 0.86159 0.0
H2434 H 0.12898 0.33322 0.91436 0.0
C2435 C 0.14617 0.26765 0.84726 0.0
C2436 C 0.16475 0.30043 0.85629 0.0
H2437 H 0.10651 0.23359 0.85325 0.0
H2438 H 0.1502 0.24957 0.82771 0.0
C2439 C 0.15854 0.32349 0.88128 0.0
C2440 C 0.62551 0.76492 0.95658 0.0
C2441 C 0.65302 0.78727 0.96895 0.0
H2442 H 0.58925 0.72811 0.9659 0.0
C2443 C 0.6668 0.78618 0.99896 0.0
H2444 H 0.61447 0.76494 0.93342 0.0
C2445 C 0.65237 0.76499 0.01736 0.0
C2446 C 0.62408 0.74464 1.00592 0.0
H2447 H 0.68804 0.80304 1.00909 0.0
H2448 H 0.66259 0.76591 0.04125 0.0
C2449 C 0.6111 0.74385 0.97504 0.0
C2450 C 0.10403 0.77359 0.74822 0.0
C2451 C 0.09179 0.75934 0.71588 0.0
H2452 H 0.13859 0.77874 0.78547 0.0
C2453 C 0.10695 0.74226 0.69503 0.0
H2454 H 0.09302 0.78737 0.7646 0.0
C2455 C 0.1329 0.73751 0.707 0.0
C2456 C 0.14386 0.7496 0.73984 0.0
H2457 H 0.09806 0.73102 0.66993 0.0
H2458 H 0.14369 0.72311 0.691 0.0
C2459 C 0.12989 0.76859 0.76018 0.0
C2460 C 0.15066 0.45889 0.51363 0.0
C2461 C 0.15685 0.45879 0.48213 0.0
H2462 H 0.13245 0.48059 0.55293 0.0
C2463 C 0.15231 0.48412 0.46732 0.0
H2464 H 0.15371 0.43931 0.52535 0.0
C2465 C 0.13961 0.50782 0.4831 0.0
C2466 C 0.13161 0.5065 0.51393 0.0
H2467 H 0.15646 0.48406 0.44272 0.0
H2468 H 0.13525 0.5264 0.47077 0.0
C2469 C 0.13822 0.48248 0.52935 0.0
C2470 C 0.44419 0.26648 0.26967 0.0
C2471 C 0.44446 0.25822 0.23616 0.0
H2472 H 0.41918 0.27766 0.3076 0.0
C2473 C 0.42025 0.25658 0.21481 0.0
H2474 H 0.46285 0.26791 0.28642 0.0
C2475 C 0.3954 0.26133 0.22684 0.0
C2476 C 0.39494 0.269 0.2603 0.0
H2477 H 0.41996 0.24981 0.18889 0.0
H2478 H 0.37633 0.25843 0.21003 0.0
C2479 C 0.41944 0.27194 0.28173 0.0
C2480 C 0.66271 0.53135 0.41744 0.0
C2481 C 0.65163 0.54526 0.39296 0.0
H2482 H 0.66172 0.52103 0.4655 0.0
C2483 C 0.62855 0.559 0.40125 0.0
H2484 H 0.68038 0.52045 0.41317 0.0
C2485 C 0.61709 0.55835 0.43136 0.0
C2486 C 0.62843 0.54494 0.456 0.0
H2487 H 0.61893 0.57023 0.38413 0.0
H2488 H 0.59938 0.56919 0.43564 0.0
C2489 C 0.65185 0.5317 0.44806 0.0
C2490 C 0.34976 0.89247 0.08245 0.0
C2491 C 0.35401 0.92736 0.09051 0.0
H2492 H 0.36253 0.85103 0.09441 0.0
C2493 C 0.37032 0.94621 0.12027 0.0
H2494 H 0.33726 0.8772 0.05976 0.0
C2495 C 0.38514 0.93125 0.13957 0.0
C2496 C 0.38327 0.8973 0.12958 0.0
H2497 H 0.37374 0.97305 0.12726 0.0
H2498 H 0.3991 0.94644 0.16146 0.0
C2499 C 0.3645 0.87755 0.10188 0.0
C2500 C 0.04503 0.56044 0.91848 0.0
C2501 C 0.02961 0.58448 0.92005 0.0
H2502 H 0.06937 0.53659 0.94547 0.0
C2503 C 0.0293 0.60553 0.94965 0.0
H2504 H 0.04465 0.54313 0.89596 0.0
C2505 C 0.04315 0.60145 0.97775 0.0
C2506 C 0.05721 0.57633 0.9761 0.0
H2507 H 0.01721 0.6239 0.95119 0.0
H2508 H 0.04212 0.61705 1.00078 0.0
C2509 C 0.05883 0.55637 0.94657 0.0
C2510 C 0.35425 0.25739 0.6393 0.0
C2511 C 0.33231 0.26368 0.61987 0.0
H2512 H 0.3725 0.25707 0.68617 0.0
C2513 C 0.31362 0.28009 0.63565 0.0
H2514 H 0.36936 0.24527 0.62823 0.0
C2515 C 0.31585 0.2878 0.66995 0.0
C2516 C 0.3359 0.278 0.68923 0.0
H2517 H 0.29632 0.2853 0.62156 0.0
H2518 H 0.30122 0.30024 0.68093 0.0
C2519 C 0.35593 0.26422 0.67301 0.0
C2520 C 0.64088 0.5459 0.18934 0.0
C2521 C 0.66166 0.52751 0.1926 0.0
H2522 H 0.61385 0.56497 0.15836 0.0
C2523 C 0.66961 0.51406 0.16258 0.0
H2524 H 0.63373 0.55743 0.21097 0.0
C2525 C 0.65849 0.51906 0.13216 0.0
C2526 C 0.63815 0.53777 0.1286 0.0
H2527 H 0.68518 0.49971 0.16243 0.0
H2528 H 0.66635 0.50797 0.11086 0.0
C2529 C 0.62933 0.55059 0.15848 0.0
C2530 C 0.38315 0.87717 0.91223 0.0
C2531 C 0.35957 0.88893 0.92108 0.0
H2532 H 0.39943 0.84801 0.87477 0.0
C2533 C 0.33404 0.87997 0.89946 0.0
H2534 H 0.40323 0.88443 0.92867 0.0
C2535 C 0.33158 0.85843 0.86965 0.0
C2536 C 0.35481 0.84615 0.8608 0.0
H2537 H 0.31578 0.88903 0.90591 0.0
H2538 H 0.31171 0.85215 0.8532 0.0
C2539 C 0.38097 0.85633 0.88179 0.0
C2540 C 0.96634 0.51798 0.75236 0.0
C2541 C 0.9669 0.5515 0.76451 0.0
H2542 H 0.98839 0.48486 0.72766 0.0
C2543 C 0.98776 0.57738 0.75646 0.0
H2544 H 0.95052 0.49751 0.75827 0.0
C2545 C 1.00948 0.57008 0.7394 0.0
C2546 C 1.01057 0.53684 0.73019 0.0
H2547 H 0.98865 0.60339 0.7656 0.0
H2548 H 0.02629 0.59055 0.73489 0.0
C2549 C 0.9883 0.51072 0.73557 0.0
C2550 C 0.32113 0.28622 0.42231 0.0
C2551 C 0.32605 0.25748 0.4309 0.0
H2552 H 0.32057 0.31467 0.3858 0.0
C2553 C 0.33514 0.23529 0.4074 0.0
H2554 H 0.31405 0.3039 0.43945 0.0
C2555 C 0.3381 0.24105 0.37607 0.0
C2556 C 0.33304 0.26976 0.36762 0.0
H2557 H 0.33913 0.21286 0.41289 0.0
H2558 H 0.34439 0.22303 0.35845 0.0
C2559 C 0.32499 0.29248 0.39144 0.0
C2560 C 0.3801 0.59692 0.52168 0.0
C2561 C 0.36629 0.58307 0.54562 0.0
H2562 H 0.41195 0.5955 0.48971 0.0
C2563 C 0.37695 0.56001 0.5589 0.0
H2564 H 0.37298 0.61555 0.51168 0.0
C2565 C 0.39962 0.54906 0.54664 0.0
C2566 C 0.41158 0.56083 0.52084 0.0
H2567 H 0.36722 0.54965 0.578 0.0
H2568 H 0.40668 0.53006 0.55604 0.0
C2569 C 0.40248 0.58571 0.50924 0.0
C2570 C 0.96408 0.9983 0.58063 0.0
C2571 C 0.95403 0.96395 0.56504 0.0
H2572 H 0.99918 0.04388 0.59123 0.0
C2573 C 0.9732 0.94949 0.54837 0.0
H2574 H 0.94998 1.01045 0.59375 0.0
C2575 C 1.00131 0.96862 0.54697 0.0
C2576 C 1.01142 1.00304 0.56217 0.0
H2577 H 0.96637 0.92333 0.53584 0.0
H2578 H 0.01495 0.95622 0.53333 0.0
C2579 C 0.99239 1.01758 0.57924 0.0
C2580 C 0.8877 0.1743 0.23374 0.0
C2581 C 0.89898 0.16602 0.26192 0.0
H2582 H 0.86896 0.20737 0.2118 0.0
C2583 C 0.89634 0.18752 0.29133 0.0
H2584 H 0.88873 0.15948 0.21033 0.0
C2585 C 0.88362 0.21521 0.29224 0.0
C2586 C 0.87316 0.22388 0.26375 0.0
H2587 H 0.90431 0.18306 0.31405 0.0
H2588 H 0.88303 0.23062 0.31551 0.0
C2589 C 0.87593 0.20234 0.23465 0.0
C2590 C 0.706 0.14315 0.0573 0.0
C2591 C 0.71712 0.11551 0.05705 0.0
H2592 H 0.66831 0.16103 0.05821 0.0
C2593 C 0.69872 0.08489 0.05914 0.0
H2594 H 0.71985 0.16726 0.05586 0.0
C2595 C 0.66969 0.0817 0.06087 0.0
C2596 C 0.65816 0.10883 0.06058 0.0
H2597 H 0.70664 0.06325 0.05941 0.0
H2598 H 0.65637 0.05756 0.06186 0.0
C2599 C 0.67665 0.13979 0.05902 0.0
C2600 C 0.30225 0.4846 0.24086 0.0
C2601 C 0.27981 0.49724 0.25165 0.0
H2602 H 0.33656 0.46427 0.25389 0.0
C2603 C 0.27084 0.49303 0.28152 0.0
H2604 H 0.30925 0.48721 0.21777 0.0
C2605 C 0.28684 0.48093 0.30232 0.0
C2606 C 0.31125 0.47191 0.29296 0.0
H2607 H 0.25313 0.50192 0.29018 0.0
H2608 H 0.2811 0.48029 0.32628 0.0
C2609 C 0.31792 0.47179 0.26152 0.0
C2610 C 0.29182 0.48854 0.07736 0.0
C2611 C 0.29837 0.46374 0.05435 0.0
H2612 H 0.26553 0.52227 0.08713 0.0
C2613 C 0.28082 0.4515 0.02417 0.0
H2614 H 0.30461 0.49814 0.10106 0.0
C2615 C 0.25857 0.4653 0.01632 0.0
C2616 C 0.25313 0.49139 0.03859 0.0
H2617 H 0.28486 0.43198 1.00613 0.0
H2618 H 0.24617 0.45634 0.99237 0.0
C2619 C 0.2693 0.50215 0.06957 0.0
C2620 C 0.91336 0.96322 0.30484 0.0
C2621 C 0.90764 0.97825 0.27896 0.0
H2622 H 0.90314 0.92079 0.32696 0.0
C2623 C 0.88497 0.95769 0.25422 0.0
H2624 H 0.9302 0.97739 0.32471 0.0
C2625 C 0.8696 0.92394 0.25518 0.0
C2626 C 0.87598 0.90893 0.28093 0.0
H2627 H 0.87969 0.96723 0.23344 0.0
H2628 H 0.85302 0.90927 0.23523 0.0
C2629 C 0.89787 0.92996 0.30596 0.0
C2630 C 0.81173 0.18425 0.76362 0.0
C2631 C 0.78283 0.1674 0.76463 0.0
H2632 H 0.84349 0.23173 0.77222 0.0
C2633 C 0.76397 0.18555 0.77671 0.0
H2634 H 0.82687 0.17068 0.75526 0.0
C2635 C 0.77307 0.22015 0.78485 0.0
C2636 C 0.80136 0.23713 0.78188 0.0
H2637 H 0.7418 0.17318 0.77893 0.0
H2638 H 0.75776 0.23354 0.79307 0.0
C2639 C 0.82115 0.21905 0.77307 0.0
loop_
_geom_bond_atom_site_label_1
_geom_bond_atom_site_label_2
_geom_bond_distance
_geom_bond_site_symmetry_2
_ccdc_geom_bond_type
O0 Cd1 2.223 . S
O0 C8 1.315 . S
Cd1 O0 2.223 . S
Cd1 O4 2.297 . S
Cd1 O5 2.439 . S
Cd1 O11 2.240 . S
Cd2 O3 2.240 . S
Cd2 O10 2.223 . S
Cd2 O12 2.297 . S
Cd2 O13 2.439 . S
O3 Cd2 2.240 . S
O3 C8 1.279 . S
O4 Cd1 2.297 . S
O4 C6 1.247 . S
O5 Cd1 2.439 . S
O5 C6 1.208 . S
C6 O4 1.247 . S
C6 O5 1.208 . S
C7 O12 1.247 . S
C7 O13 1.208 . S
C8 O0 1.315 . S
C8 O3 1.279 . S
C9 O10 1.315 . S
C9 O11 1.279 . S
O10 Cd2 2.223 . S
O10 C9 1.315 . S
O11 Cd1 2.240 . S
O11 C9 1.279 . S
O12 Cd2 2.297 . S
O12 C7 1.247 . S
O13 Cd2 2.439 . S
O13 C7 1.208 . S
O14 Cd15 2.223 . S
O14 C22 1.315 . S
Cd15 O14 2.223 . S
Cd15 O18 2.297 . S
Cd15 O19 2.439 . S
Cd15 O25 2.240 1_655 S
Cd16 O17 2.240 1_455 S
Cd16 O24 2.223 . S
Cd16 O26 2.297 . S
Cd16 O27 2.439 . S
O17 Cd16 2.240 1_655 S
O17 C22 1.279 . S
O18 Cd15 2.297 . S
O18 C20 1.247 . S
O19 Cd15 2.439 . S
O19 C20 1.208 . S
C20 O18 1.247 . S
C20 O19 1.208 . S
C21 O26 1.247 . S
C21 O27 1.208 . S
C22 O14 1.315 . S
C22 O17 1.279 . S
C23 O24 1.315 . S
C23 O25 1.279 . S
O24 Cd16 2.223 . S
O24 C23 1.315 . S
O25 Cd15 2.240 1_455 S
O25 C23 1.279 . S
O26 Cd16 2.297 . S
O26 C21 1.247 . S
O27 Cd16 2.439 . S
O27 C21 1.208 . S
O28 Cd29 2.223 . S
O28 C36 1.315 . S
Cd29 O28 2.223 . S
Cd29 O32 2.297 . S
Cd29 O33 2.439 . S
Cd29 O39 2.240 . S
Cd30 O31 2.240 . S
Cd30 O38 2.223 . S
Cd30 O40 2.297 . S
Cd30 O41 2.439 . S
O31 Cd30 2.240 . S
O31 C36 1.279 . S
O32 Cd29 2.297 . S
O32 C34 1.247 . S
O33 Cd29 2.439 . S
O33 C34 1.208 . S
C34 O32 1.247 . S
C34 O33 1.208 . S
C35 O40 1.247 . S
C35 O41 1.208 . S
C36 O28 1.315 . S
C36 O31 1.279 . S
C37 O38 1.315 . S
C37 O39 1.279 . S
O38 Cd30 2.223 . S
O38 C37 1.315 . S
O39 Cd29 2.240 . S
O39 C37 1.279 . S
O40 Cd30 2.297 . S
O40 C35 1.247 . S
O41 Cd30 2.439 . S
O41 C35 1.208 . S
O42 Cd43 2.223 . S
O42 C50 1.315 . S
Cd43 O42 2.223 . S
Cd43 O46 2.297 . S
Cd43 O47 2.439 . S
Cd43 O53 2.240 . S
Cd44 O45 2.240 . S
Cd44 O52 2.223 . S
Cd44 O54 2.297 . S
Cd44 O55 2.439 . S
O45 Cd44 2.240 . S
O45 C50 1.279 . S
O46 Cd43 2.297 . S
O46 C48 1.247 . S
O47 Cd43 2.439 . S
O47 C48 1.208 . S
C48 O46 1.247 . S
C48 O47 1.208 . S
C49 O54 1.247 . S
C49 O55 1.208 . S
C50 O42 1.315 . S
C50 O45 1.279 . S
C51 O52 1.315 . S
C51 O53 1.279 . S
O52 Cd44 2.223 . S
O52 C51 1.315 . S
O53 Cd43 2.240 . S
O53 C51 1.279 . S
O54 Cd44 2.297 . S
O54 C49 1.247 . S
O55 Cd44 2.439 . S
O55 C49 1.208 . S
O56 Cd57 2.223 . S
O56 C64 1.315 . S
Cd57 O56 2.223 . S
Cd57 O60 2.297 . S
Cd57 O61 2.439 . S
Cd57 O67 2.240 . S
Cd58 O59 2.240 . S
Cd58 O66 2.223 . S
Cd58 O68 2.297 . S
Cd58 O69 2.439 . S
O59 Cd58 2.240 . S
O59 C64 1.279 . S
O60 Cd57 2.297 . S
O60 C62 1.247 . S
O61 Cd57 2.439 . S
O61 C62 1.208 . S
C62 O60 1.247 . S
C62 O61 1.208 . S
C63 O68 1.247 . S
C63 O69 1.208 . S
C64 O56 1.315 . S
C64 O59 1.279 . S
C65 O66 1.315 . S
C65 O67 1.279 . S
O66 Cd58 2.223 . S
O66 C65 1.315 . S
O67 Cd57 2.240 . S
O67 C65 1.279 . S
O68 Cd58 2.297 . S
O68 C63 1.247 . S
O69 Cd58 2.439 . S
O69 C63 1.208 . S
O70 Cd71 2.223 . S
O70 C78 1.315 . S
Cd71 O70 2.223 . S
Cd71 O74 2.297 . S
Cd71 O75 2.439 . S
Cd71 O81 2.240 . S
Cd72 O73 2.240 . S
Cd72 O80 2.223 . S
Cd72 O82 2.297 . S
Cd72 O83 2.439 . S
O73 Cd72 2.240 . S
O73 C78 1.279 . S
O74 Cd71 2.297 . S
O74 C76 1.247 . S
O75 Cd71 2.439 . S
O75 C76 1.208 . S
C76 O74 1.247 . S
C76 O75 1.208 . S
C77 O82 1.247 . S
C77 O83 1.208 . S
C78 O70 1.315 . S
C78 O73 1.279 . S
C79 O80 1.315 . S
C79 O81 1.279 . S
O80 Cd72 2.223 . S
O80 C79 1.315 . S
O81 Cd71 2.240 . S
O81 C79 1.279 . S
O82 Cd72 2.297 . S
O82 C77 1.247 . S
O83 Cd72 2.439 . S
O83 C77 1.208 . S
O84 Cd85 2.223 . S
O84 C92 1.315 . S
Cd85 O84 2.223 . S
Cd85 O88 2.297 . S
Cd85 O89 2.439 . S
Cd85 O95 2.240 . S
Cd86 O87 2.240 . S
Cd86 O94 2.223 . S
Cd86 O96 2.297 . S
Cd86 O97 2.439 . S
O87 Cd86 2.240 . S
O87 C92 1.279 . S
O88 Cd85 2.297 . S
O88 C90 1.247 . S
O89 Cd85 2.439 . S
O89 C90 1.208 . S
C90 O88 1.247 . S
C90 O89 1.208 . S
C91 O96 1.247 . S
C91 O97 1.208 . S
C92 O84 1.315 . S
C92 O87 1.279 . S
C93 O94 1.315 . S
C93 O95 1.279 . S
O94 Cd86 2.223 . S
O94 C93 1.315 . S
O95 Cd85 2.240 . S
O95 C93 1.279 . S
O96 Cd86 2.297 . S
O96 C91 1.247 . S
O97 Cd86 2.439 . S
O97 C91 1.208 . S
O98 Cd99 2.223 . S
O98 C106 1.315 . S
Cd99 O98 2.223 . S
Cd99 O102 2.297 . S
Cd99 O103 2.439 . S
Cd99 O109 2.240 . S
Cd100 O101 2.240 . S
Cd100 O108 2.223 1_455 S
Cd100 O110 2.297 1_556 S
Cd100 O111 2.439 . S
O101 Cd100 2.240 . S
O101 C106 1.279 . S
O102 Cd99 2.297 . S
O102 C104 1.247 . S
O103 Cd99 2.439 . S
O103 C104 1.208 . S
C104 O102 1.247 . S
C104 O103 1.208 . S
C105 O110 1.247 1_556 S
C105 O111 1.208 . S
C106 O98 1.315 . S
C106 O101 1.279 . S
C107 O108 1.315 . S
C107 O109 1.279 1_655 S
O108 Cd100 2.223 1_655 S
O108 C107 1.315 . S
O109 Cd99 2.240 . S
O109 C107 1.279 1_455 S
O110 Cd100 2.297 1_554 S
O110 C105 1.247 1_554 S
O111 Cd100 2.439 . S
O111 C105 1.208 . S
O112 Cd113 2.223 1_565 S
O112 C120 1.315 1_565 S
Cd113 O112 2.223 1_545 S
Cd113 O116 2.297 . S
Cd113 O117 2.439 . S
Cd113 O123 2.240 1_545 S
Cd114 O115 2.240 . S
Cd114 O122 2.223 1_545 S
Cd114 O124 2.297 1_545 S
Cd114 O125 2.439 . S
O115 Cd114 2.240 . S
O115 C120 1.279 . S
O116 Cd113 2.297 . S
O116 C118 1.247 . S
O117 Cd113 2.439 . S
O117 C118 1.208 . S
C118 O116 1.247 . S
C118 O117 1.208 . S
C119 O124 1.247 1_545 S
C119 O125 1.208 . S
C120 O112 1.315 1_545 S
C120 O115 1.279 . S
C121 O122 1.315 . S
C121 O123 1.279 . S
O122 Cd114 2.223 1_565 S
O122 C121 1.315 . S
O123 Cd113 2.240 1_565 S
O123 C121 1.279 . S
O124 Cd114 2.297 1_565 S
O124 C119 1.247 1_565 S
O125 Cd114 2.439 . S
O125 C119 1.208 . S
O126 Cd127 2.223 . S
O126 C134 1.315 . S
Cd127 O126 2.223 . S
Cd127 O130 2.297 . S
Cd127 O131 2.439 . S
Cd127 O137 2.240 . S
Cd128 O129 2.240 . S
Cd128 O136 2.223 . S
Cd128 O138 2.297 . S
Cd128 O139 2.439 . S
O129 Cd128 2.240 . S
O129 C134 1.279 . S
O130 Cd127 2.297 . S
O130 C132 1.247 . S
O131 Cd127 2.439 . S
O131 C132 1.208 . S
C132 O130 1.247 . S
C132 O131 1.208 . S
C133 O138 1.247 . S
C133 O139 1.208 . S
C134 O126 1.315 . S
C134 O129 1.279 . S
C135 O136 1.315 . S
C135 O137 1.279 . S
O136 Cd128 2.223 . S
O136 C135 1.315 . S
O137 Cd127 2.240 . S
O137 C135 1.279 . S
O138 Cd128 2.297 . S
O138 C133 1.247 . S
O139 Cd128 2.439 . S
O139 C133 1.208 . S
O140 Cd141 2.223 1_545 S
O140 C148 1.315 1_545 S
Cd141 O140 2.223 1_565 S
Cd141 O144 2.297 . S
Cd141 O145 2.439 . S
Cd141 O151 2.240 1_565 S
Cd142 O143 2.240 1_545 S
Cd142 O150 2.223 . S
Cd142 O152 2.297 . S
Cd142 O153 2.439 1_545 S
O143 Cd142 2.240 1_565 S
O143 C148 1.279 . S
O144 Cd141 2.297 . S
O144 C146 1.247 . S
O145 Cd141 2.439 . S
O145 C146 1.208 . S
C146 O144 1.247 . S
C146 O145 1.208 . S
C147 O152 1.247 . S
C147 O153 1.208 1_545 S
C148 O140 1.315 1_565 S
C148 O143 1.279 . S
C149 O150 1.315 . S
C149 O151 1.279 . S
O150 Cd142 2.223 . S
O150 C149 1.315 . S
O151 Cd141 2.240 1_545 S
O151 C149 1.279 . S
O152 Cd142 2.297 . S
O152 C147 1.247 . S
O153 Cd142 2.439 1_565 S
O153 C147 1.208 1_565 S
O154 Cd155 2.223 . S
O154 C162 1.315 . S
Cd155 O154 2.223 . S
Cd155 O158 2.297 . S
Cd155 O159 2.439 1_554 S
Cd155 O165 2.227 1_554 S
Cd156 O157 2.240 1_556 S
Cd156 O164 2.223 1_556 S
Cd156 O166 2.297 . S
Cd156 O167 2.439 . S
O157 Cd156 2.240 1_554 S
O157 C162 1.279 . S
O158 Cd155 2.297 . S
O158 C160 1.247 . S
O159 Cd155 2.439 1_556 S
O159 C160 1.208 1_556 S
C160 O158 1.247 . S
C160 O159 1.208 1_554 S
C161 O166 1.247 . S
C161 O167 1.208 . S
C162 O154 1.315 . S
C162 O157 1.279 . S
C163 O164 1.315 . S
C163 O165 1.271 1_554 S
O164 Cd156 2.223 1_554 S
O164 C163 1.315 . S
O165 Cd155 2.227 1_556 S
O165 C163 1.271 1_556 S
O166 Cd156 2.297 . S
O166 C161 1.247 . S
O167 Cd156 2.439 . S
O167 C161 1.208 . S
O168 Cd169 2.223 . S
O168 C176 1.315 . S
Cd169 O168 2.223 . S
Cd169 O172 2.297 . S
Cd169 O173 2.439 . S
Cd169 O179 2.240 . S
Cd170 O171 2.240 . S
Cd170 O178 2.223 . S
Cd170 O180 2.297 1_554 S
Cd170 O181 2.439 1_554 S
O171 Cd170 2.240 . S
O171 C176 1.279 . S
O172 Cd169 2.297 . S
O172 C174 1.247 . S
O173 Cd169 2.439 . S
O173 C174 1.208 . S
C174 O172 1.247 . S
C174 O173 1.208 . S
C175 O180 1.247 . S
C175 O181 1.208 . S
C176 O168 1.315 . S
C176 O171 1.279 . S
C177 O178 1.315 . S
C177 O179 1.279 . S
O178 Cd170 2.223 . S
O178 C177 1.315 . S
O179 Cd169 2.240 . S
O179 C177 1.279 . S
O180 Cd170 2.297 1_556 S
O180 C175 1.247 . S
O181 Cd170 2.439 1_556 S
O181 C175 1.208 . S
O182 Cd183 2.223 . S
O182 C190 1.315 . S
Cd183 O182 2.223 . S
Cd183 O186 2.297 . S
Cd183 O187 2.439 . S
Cd183 O193 2.240 . S
Cd184 O185 2.240 . S
Cd184 O192 2.223 . S
Cd184 O194 2.297 1_554 S
Cd184 O195 2.439 1_554 S
O185 Cd184 2.240 . S
O185 C190 1.279 . S
O186 Cd183 2.297 . S
O186 C188 1.247 . S
O187 Cd183 2.439 . S
O187 C188 1.208 . S
C188 O186 1.247 . S
C188 O187 1.208 . S
C189 O194 1.247 . S
C189 O195 1.208 . S
C190 O182 1.315 . S
C190 O185 1.279 . S
C191 O192 1.315 . S
C191 O193 1.279 . S
O192 Cd184 2.223 . S
O192 C191 1.315 . S
O193 Cd183 2.240 . S
O193 C191 1.279 . S
O194 Cd184 2.297 1_556 S
O194 C189 1.247 . S
O195 Cd184 2.439 1_556 S
O195 C189 1.208 . S
O196 Cd197 2.223 . S
O196 C204 1.315 . S
Cd197 O196 2.223 . S
Cd197 O200 2.297 . S
Cd197 O201 2.439 . S
Cd197 O207 2.240 . S
Cd198 O199 2.240 . S
Cd198 O206 2.223 . S
Cd198 O208 2.297 . S
Cd198 O209 2.439 . S
O199 Cd198 2.240 . S
O199 C204 1.279 . S
O200 Cd197 2.297 . S
O200 C202 1.247 . S
O201 Cd197 2.439 . S
O201 C202 1.208 . S
C202 O200 1.247 . S
C202 O201 1.208 . S
C203 O208 1.247 . S
C203 O209 1.208 . S
C204 O196 1.315 . S
C204 O199 1.279 . S
C205 O206 1.315 . S
C205 O207 1.279 . S
O206 Cd198 2.223 . S
O206 C205 1.315 . S
O207 Cd197 2.240 . S
O207 C205 1.279 . S
O208 Cd198 2.297 . S
O208 C203 1.247 . S
O209 Cd198 2.439 . S
O209 C203 1.208 . S
O210 Cd211 2.223 . S
O210 C218 1.315 . S
Cd211 O210 2.223 . S
Cd211 O214 2.297 . S
Cd211 O215 2.439 . S
Cd211 O221 2.240 . S
Cd212 O213 2.240 . S
Cd212 O220 2.223 . S
Cd212 O222 2.297 . S
Cd212 O223 2.439 . S
O213 Cd212 2.240 . S
O213 C218 1.279 . S
O214 Cd211 2.297 . S
O214 C216 1.247 . S
O215 Cd211 2.439 . S
O215 C216 1.208 . S
C216 O214 1.247 . S
C216 O215 1.208 . S
C217 O222 1.247 . S
C217 O223 1.208 . S
C218 O210 1.315 . S
C218 O213 1.279 . S
C219 O220 1.315 . S
C219 O221 1.279 . S
O220 Cd212 2.223 . S
O220 C219 1.315 . S
O221 Cd211 2.240 . S
O221 C219 1.279 . S
O222 Cd212 2.297 . S
O222 C217 1.247 . S
O223 Cd212 2.439 . S
O223 C217 1.208 . S
O224 Cd225 2.223 . S
O224 C232 1.315 . S
Cd225 O224 2.223 . S
Cd225 O228 2.297 . S
Cd225 O229 2.439 . S
Cd225 O235 2.240 . S
Cd226 O227 2.243 . S
Cd226 O234 2.225 . S
Cd226 O236 2.296 1_655 S
Cd226 O237 2.442 . S
O227 Cd226 2.243 . S
O227 C232 1.279 . S
O228 Cd225 2.297 . S
O228 C230 1.247 . S
O229 Cd225 2.439 . S
O229 C230 1.208 . S
C230 O228 1.247 . S
C230 O229 1.208 . S
C231 O236 1.247 1_655 S
C231 O237 1.208 . S
C232 O224 1.315 . S
C232 O227 1.279 . S
C233 O234 1.315 . S
C233 O235 1.279 . S
O234 Cd226 2.225 . S
O234 C233 1.315 . S
O235 Cd225 2.240 . S
O235 C233 1.279 . S
O236 Cd226 2.296 1_455 S
O236 C231 1.247 1_455 S
O237 Cd226 2.442 . S
O237 C231 1.208 . S
O238 Cd239 2.223 . S
O238 C246 1.315 . S
Cd239 O238 2.223 . S
Cd239 O242 2.297 . S
Cd239 O243 2.439 . S
Cd239 O249 2.240 . S
Cd240 O241 2.240 . S
Cd240 O248 2.223 . S
Cd240 O250 2.297 . S
Cd240 O251 2.439 . S
O241 Cd240 2.240 . S
O241 C246 1.279 . S
O242 Cd239 2.297 . S
O242 C244 1.247 . S
O243 Cd239 2.439 . S
O243 C244 1.208 . S
C244 O242 1.247 . S
C244 O243 1.208 . S
C245 O250 1.247 . S
C245 O251 1.208 . S
C246 O238 1.315 . S
C246 O241 1.279 . S
C247 O248 1.315 . S
C247 O249 1.279 . S
O248 Cd240 2.223 . S
O248 C247 1.315 . S
O249 Cd239 2.240 . S
O249 C247 1.279 . S
O250 Cd240 2.297 . S
O250 C245 1.247 . S
O251 Cd240 2.439 . S
O251 C245 1.208 . S
O252 Cd253 2.223 . S
O252 C260 1.315 . S
Cd253 O252 2.223 . S
Cd253 O256 2.297 . S
Cd253 O257 2.439 . S
Cd253 O263 2.240 . S
Cd254 O255 2.240 . S
Cd254 O262 2.223 . S
Cd254 O264 2.297 . S
Cd254 O265 2.439 . S
O255 Cd254 2.240 . S
O255 C260 1.279 . S
O256 Cd253 2.297 . S
O256 C258 1.247 . S
O257 Cd253 2.439 . S
O257 C258 1.208 . S
C258 O256 1.247 . S
C258 O257 1.208 . S
C259 O264 1.247 . S
C259 O265 1.208 . S
C260 O252 1.315 . S
C260 O255 1.279 . S
C261 O262 1.315 . S
C261 O263 1.279 . S
O262 Cd254 2.223 . S
O262 C261 1.315 . S
O263 Cd253 2.240 . S
O263 C261 1.279 . S
O264 Cd254 2.297 . S
O264 C259 1.247 . S
O265 Cd254 2.439 . S
O265 C259 1.208 . S
O266 Cd267 2.223 . S
O266 C274 1.315 . S
Cd267 O266 2.223 . S
Cd267 O270 2.297 . S
Cd267 O271 2.439 . S
Cd267 O277 2.240 . S
Cd268 O269 2.240 . S
Cd268 O276 2.223 . S
Cd268 O278 2.297 . S
Cd268 O279 2.439 . S
O269 Cd268 2.240 . S
O269 C274 1.279 . S
O270 Cd267 2.297 . S
O270 C272 1.247 . S
O271 Cd267 2.439 . S
O271 C272 1.208 . S
C272 O270 1.247 . S
C272 O271 1.208 . S
C273 O278 1.247 . S
C273 O279 1.208 . S
C274 O266 1.315 . S
C274 O269 1.279 . S
C275 O276 1.315 . S
C275 O277 1.279 . S
O276 Cd268 2.223 . S
O276 C275 1.315 . S
O277 Cd267 2.240 . S
O277 C275 1.279 . S
O278 Cd268 2.297 . S
O278 C273 1.247 . S
O279 Cd268 2.439 . S
O279 C273 1.208 . S
O280 Cd281 2.223 . S
O280 C288 1.315 . S
Cd281 O280 2.223 . S
Cd281 O284 2.297 . S
Cd281 O285 2.439 . S
Cd281 O291 2.240 1_554 S
Cd282 O283 2.240 . S
Cd282 O290 2.223 . S
Cd282 O292 2.297 1_554 S
Cd282 O293 2.439 1_554 S
O283 Cd282 2.240 . S
O283 C288 1.279 . S
O284 Cd281 2.297 . S
O284 C286 1.247 . S
O285 Cd281 2.439 . S
O285 C286 1.208 . S
C286 O284 1.247 . S
C286 O285 1.208 . S
C287 O292 1.247 . S
C287 O293 1.208 . S
C288 O280 1.315 . S
C288 O283 1.279 . S
C289 O290 1.315 . S
C289 O291 1.279 1_554 S
O290 Cd282 2.223 . S
O290 C289 1.315 . S
O291 Cd281 2.240 1_556 S
O291 C289 1.279 1_556 S
O292 Cd282 2.297 1_556 S
O292 C287 1.247 . S
O293 Cd282 2.439 1_556 S
O293 C287 1.208 . S
O294 Cd295 2.223 . S
O294 C302 1.315 . S
Cd295 O294 2.223 . S
Cd295 O298 2.297 . S
Cd295 O299 2.439 . S
Cd295 O305 2.240 . S
Cd296 O297 2.240 . S
Cd296 O304 2.223 . S
Cd296 O306 2.297 . S
Cd296 O307 2.439 . S
O297 Cd296 2.240 . S
O297 C302 1.279 . S
O298 Cd295 2.297 . S
O298 C300 1.247 . S
O299 Cd295 2.439 . S
O299 C300 1.208 . S
C300 O298 1.247 . S
C300 O299 1.208 . S
C301 O306 1.247 . S
C301 O307 1.208 . S
C302 O294 1.315 . S
C302 O297 1.279 . S
C303 O304 1.315 . S
C303 O305 1.279 . S
O304 Cd296 2.223 . S
O304 C303 1.315 . S
O305 Cd295 2.240 . S
O305 C303 1.279 . S
O306 Cd296 2.297 . S
O306 C301 1.247 . S
O307 Cd296 2.439 . S
O307 C301 1.208 . S
O308 Cd309 2.223 . S
O308 C316 1.315 . S
Cd309 O308 2.223 . S
Cd309 O312 2.297 . S
Cd309 O313 2.439 . S
Cd309 O319 2.240 . S
Cd310 O311 2.240 . S
Cd310 O318 2.223 . S
Cd310 O320 2.297 . S
Cd310 O321 2.439 . S
O311 Cd310 2.240 . S
O311 C316 1.279 . S
O312 Cd309 2.297 . S
O312 C314 1.247 . S
O313 Cd309 2.439 . S
O313 C314 1.208 . S
C314 O312 1.247 . S
C314 O313 1.208 . S
C315 O320 1.247 . S
C315 O321 1.208 . S
C316 O308 1.315 . S
C316 O311 1.279 . S
C317 O318 1.315 . S
C317 O319 1.279 . S
O318 Cd310 2.223 . S
O318 C317 1.315 . S
O319 Cd309 2.240 . S
O319 C317 1.279 . S
O320 Cd310 2.297 . S
O320 C315 1.247 . S
O321 Cd310 2.439 . S
O321 C315 1.208 . S
O322 Cd323 2.223 . S
O322 C330 1.315 . S
Cd323 O322 2.223 . S
Cd323 O326 2.297 . S
Cd323 O327 2.439 . S
Cd323 O333 2.240 . S
Cd324 O325 2.240 . S
Cd324 O332 2.223 . S
Cd324 O334 2.297 . S
Cd324 O335 2.439 . S
O325 Cd324 2.240 . S
O325 C330 1.279 . S
O326 Cd323 2.297 . S
O326 C328 1.247 . S
O327 Cd323 2.439 . S
O327 C328 1.208 . S
C328 O326 1.247 . S
C328 O327 1.208 . S
C329 O334 1.247 . S
C329 O335 1.208 . S
C330 O322 1.315 . S
C330 O325 1.279 . S
C331 O332 1.315 . S
C331 O333 1.279 . S
O332 Cd324 2.223 . S
O332 C331 1.315 . S
O333 Cd323 2.240 . S
O333 C331 1.279 . S
O334 Cd324 2.297 . S
O334 C329 1.247 . S
O335 Cd324 2.439 . S
O335 C329 1.208 . S
Gd336 N367 2.661 . S
Gd336 N373 2.601 . S
Gd336 O380 2.545 . S
Gd336 O381 2.606 . S
Gd336 O383 2.429 . S
Gd336 O384 2.545 . S
Gd336 O385 2.412 . S
Gd336 O387 2.362 . S
Gd336 O388 2.306 1_554 S
Gd336 C395 2.828 . S
Gd337 N346 2.661 1_545 S
Gd337 N350 2.601 1_544 S
Gd337 O381 2.362 . S
Gd337 O382 2.324 . S
Gd337 O386 2.545 1_454 S
Gd337 O387 2.606 . S
Gd337 O389 2.429 1_554 S
Gd337 O390 2.545 . S
Gd337 O391 2.412 1_455 S
Gd337 C404 2.828 1_454 S
C338 C341 1.417 1_655 S
C338 C343 1.431 . S
C338 C344 1.412 . S
C339 C342 1.437 . S
C339 C343 1.317 1_556 S
C339 H358 0.929 . S
C340 C341 1.426 1_556 S
C340 C342 1.413 1_455 S
C340 N350 1.359 . S
C341 C338 1.417 1_455 S
C341 C340 1.426 1_554 S
C341 N346 1.350 . S
C342 C339 1.437 . S
C342 C340 1.413 1_655 S
C342 C352 1.391 . S
C343 C338 1.431 . S
C343 C339 1.317 1_554 S
C343 H354 0.930 . S
C344 C338 1.412 . S
C344 C345 1.355 1_655 S
C344 H356 0.930 . S
C345 C344 1.355 1_455 S
C345 C347 1.402 . S
C345 H357 0.930 . S
N346 Gd337 2.661 1_565 S
N346 C341 1.350 . S
N346 C347 1.307 . S
C347 C345 1.402 . S
C347 N346 1.307 . S
C347 H348 0.930 . S
H348 C347 0.930 . S
C349 N350 1.334 . S
C349 C351 1.394 1_455 S
C349 H353 0.930 . S
N350 Gd337 2.601 1_566 S
N350 C340 1.359 . S
N350 C349 1.334 . S
C351 C349 1.394 1_655 S
C351 C352 1.359 . S
C351 H363 0.930 . S
C352 C342 1.391 . S
C352 C351 1.359 . S
C352 H364 0.929 . S
H353 C349 0.930 . S
H354 C343 0.930 . S
H355 C372 0.930 1_556 S
H356 C344 0.930 . S
H357 C345 0.930 . S
H358 C339 0.929 . S
H359 C377 0.930 . S
H360 C368 0.930 . S
H361 C369 0.930 . S
H362 C393 0.929 . S
H363 C351 0.930 . S
H364 C352 0.929 . S
H365 C394 0.930 . S
H366 C375 0.930 . S
N367 Gd336 2.661 . S
N367 C371 1.350 . S
N367 C372 1.307 . S
C368 H360 0.930 . S
C368 C369 1.355 1_554 S
C368 C370 1.412 . S
C369 H361 0.930 . S
C369 C368 1.355 1_556 S
C369 C372 1.402 1_556 S
C370 C368 1.412 . S
C370 C371 1.417 . S
C370 C394 1.431 . S
C371 N367 1.350 . S
C371 C370 1.417 . S
C371 C374 1.426 . S
C372 H355 0.930 1_554 S
C372 N367 1.307 . S
C372 C369 1.402 1_554 S
N373 Gd336 2.601 . S
N373 C374 1.359 . S
N373 C377 1.334 . S
C374 C371 1.426 . S
C374 N373 1.359 . S
C374 C378 1.413 . S
C375 H366 0.930 . S
C375 C376 1.359 . S
C375 C377 1.394 . S
C376 C375 1.359 . S
C376 C378 1.391 . S
C376 H379 0.929 . S
C377 H359 0.930 . S
C377 N373 1.334 . S
C377 C375 1.394 . S
C378 C374 1.413 . S
C378 C376 1.391 . S
C378 C393 1.437 . S
H379 C376 0.929 . S
O380 Gd336 2.545 . S
O380 C395 1.258 . S
O381 Gd336 2.606 . S
O381 Gd337 2.362 . S
O381 C392 1.284 1_545 S
O382 Gd337 2.324 . S
O382 C402 1.254 . S
O383 Gd336 2.429 . S
O383 C402 1.268 . S
O384 Gd336 2.545 . S
O384 C392 1.250 1_545 S
O385 Gd336 2.412 . S
O385 C395 1.252 . S
O386 Gd337 2.545 1_656 S
O386 C404 1.258 . S
O387 Gd336 2.362 . S
O387 Gd337 2.606 . S
O387 C403 1.284 . S
O388 Gd336 2.306 1_556 S
O388 C411 1.265 . S
O389 Gd337 2.429 1_556 S
O389 C411 1.268 . S
O390 Gd337 2.545 . S
O390 C403 1.250 . S
O391 Gd337 2.412 1_655 S
O391 C404 1.252 1_554 S
C392 O381 1.284 1_565 S
C392 O384 1.250 1_565 S
C393 H362 0.929 . S
C393 C378 1.437 . S
C393 C394 1.317 . S
C394 H365 0.930 . S
C394 C370 1.431 . S
C394 C393 1.317 . S
C395 Gd336 2.828 . S
C395 O380 1.258 . S
C395 O385 1.252 . S
C395 C396 1.497 . S
C396 C395 1.497 . S
C396 C397 1.395 . S
C396 C398 1.380 . S
C397 C396 1.395 . S
C397 C400 1.398 . S
C397 H412 0.930 . S
C398 C396 1.380 . S
C398 C399 1.391 . S
C398 H413 0.930 . S
C399 C398 1.391 . S
C399 C401 1.387 . S
C400 C397 1.398 . S
C400 C401 1.380 . S
C400 H414 0.930 . S
C401 C399 1.387 . S
C401 C400 1.380 . S
C401 H415 0.930 . S
C402 O382 1.254 . S
C402 O383 1.268 . S
C403 O387 1.284 . S
C403 O390 1.250 . S
C404 Gd337 2.828 1_656 S
C404 O386 1.258 . S
C404 O391 1.252 1_556 S
C404 C405 1.497 . S
C405 C404 1.497 . S
C405 C406 1.395 . S
C405 C407 1.380 1_556 S
C406 C405 1.395 . S
C406 C409 1.398 . S
C406 H416 0.930 1_545 S
C407 C405 1.380 1_554 S
C407 C408 1.391 . S
C407 H417 0.930 . S
C408 C407 1.391 . S
C408 C410 1.387 1_554 S
C409 C406 1.398 . S
C409 C410 1.380 . S
C409 H418 0.930 . S
C410 C408 1.387 1_556 S
C410 C409 1.380 . S
C410 H419 0.930 . S
C411 O388 1.265 . S
C411 O389 1.268 . S
H412 C397 0.930 . S
H413 C398 0.930 . S
H414 C400 0.930 . S
H415 C401 0.930 . S
H416 C406 0.930 1_565 S
H417 C407 0.930 . S
H418 C409 0.930 . S
H419 C410 0.930 . S
Gd420 N451 2.661 . S
Gd420 N457 2.601 . S
Gd420 O464 2.545 . S
Gd420 O465 2.606 . S
Gd420 O467 2.429 . S
Gd420 O468 2.545 . S
Gd420 O469 2.412 . S
Gd420 O471 2.362 . S
Gd420 O472 2.324 . S
Gd420 C479 2.828 . S
Gd421 N430 2.661 . S
Gd421 N434 2.601 . S
Gd421 O465 2.362 . S
Gd421 O466 2.324 . S
Gd421 O470 2.545 . S
Gd421 O471 2.606 . S
Gd421 O473 2.429 . S
Gd421 O474 2.545 . S
Gd421 O475 2.412 . S
Gd421 C488 2.828 . S
C422 C425 1.417 . S
C422 C427 1.431 . S
C422 C428 1.412 . S
C423 C426 1.437 . S
C423 C427 1.317 . S
C423 H442 0.929 . S
C424 C425 1.426 . S
C424 C426 1.413 . S
C424 N434 1.359 . S
C425 C422 1.417 . S
C425 C424 1.426 . S
C425 N430 1.350 . S
C426 C423 1.437 . S
C426 C424 1.413 . S
C426 C436 1.391 . S
C427 C422 1.431 . S
C427 C423 1.317 . S
C427 H438 0.930 . S
C428 C422 1.412 . S
C428 C429 1.355 . S
C428 H440 0.930 . S
C429 C428 1.355 . S
C429 C431 1.402 . S
C429 H441 0.930 . S
N430 Gd421 2.661 . S
N430 C425 1.350 . S
N430 C431 1.307 . S
C431 C429 1.402 . S
C431 N430 1.307 . S
C431 H432 0.930 . S
H432 C431 0.930 . S
C433 N434 1.334 . S
C433 C435 1.394 . S
C433 H437 0.930 . S
N434 Gd421 2.601 . S
N434 C424 1.359 . S
N434 C433 1.334 . S
C435 C433 1.394 . S
C435 C436 1.359 . S
C435 H447 0.930 . S
C436 C426 1.391 . S
C436 C435 1.359 . S
C436 H448 0.929 . S
H437 C433 0.930 . S
H438 C427 0.930 . S
H439 C456 0.930 . S
H440 C428 0.930 . S
H441 C429 0.930 . S
H442 C423 0.929 . S
H443 C461 0.930 . S
H444 C452 0.930 . S
H445 C453 0.930 . S
H446 C477 0.929 . S
H447 C435 0.930 . S
H448 C436 0.929 . S
H449 C478 0.930 . S
H450 C459 0.930 . S
N451 Gd420 2.661 . S
N451 C455 1.350 . S
N451 C456 1.307 . S
C452 H444 0.930 . S
C452 C453 1.355 . S
C452 C454 1.412 . S
C453 H445 0.930 . S
C453 C452 1.355 . S
C453 C456 1.402 . S
C454 C452 1.412 . S
C454 C455 1.417 . S
C454 C478 1.431 . S
C455 N451 1.350 . S
C455 C454 1.417 . S
C455 C458 1.426 . S
C456 H439 0.930 . S
C456 N451 1.307 . S
C456 C453 1.402 . S
N457 Gd420 2.601 . S
N457 C458 1.359 . S
N457 C461 1.334 . S
C458 C455 1.426 . S
C458 N457 1.359 . S
C458 C462 1.413 . S
C459 H450 0.930 . S
C459 C460 1.359 . S
C459 C461 1.394 . S
C460 C459 1.359 . S
C460 C462 1.391 . S
C460 H463 0.929 . S
C461 H443 0.930 . S
C461 N457 1.334 . S
C461 C459 1.394 . S
C462 C458 1.413 . S
C462 C460 1.391 . S
C462 C477 1.437 . S
H463 C460 0.929 . S
O464 Gd420 2.545 . S
O464 C479 1.258 . S
O465 Gd420 2.606 . S
O465 Gd421 2.362 . S
O465 C476 1.284 . S
O466 Gd421 2.324 . S
O466 C486 1.254 . S
O467 Gd420 2.429 . S
O467 C486 1.268 . S
O468 Gd420 2.545 . S
O468 C476 1.250 . S
O469 Gd420 2.412 . S
O469 C479 1.252 . S
O470 Gd421 2.545 . S
O470 C488 1.258 . S
O471 Gd420 2.362 . S
O471 Gd421 2.606 . S
O471 C487 1.284 . S
O472 Gd420 2.324 . S
O472 C495 1.254 . S
O473 Gd421 2.429 . S
O473 C495 1.268 . S
O474 Gd421 2.545 . S
O474 C487 1.250 . S
O475 Gd421 2.412 . S
O475 C488 1.252 . S
C476 O465 1.284 . S
C476 O468 1.250 . S
C477 H446 0.929 . S
C477 C462 1.437 . S
C477 C478 1.317 . S
C478 H449 0.930 . S
C478 C454 1.431 . S
C478 C477 1.317 . S
C479 Gd420 2.828 . S
C479 O464 1.258 . S
C479 O469 1.252 . S
C479 C480 1.497 . S
C480 C479 1.497 . S
C480 C481 1.395 . S
C480 C482 1.380 . S
C481 C480 1.395 . S
C481 C484 1.398 . S
C481 H496 0.930 . S
C482 C480 1.380 . S
C482 C483 1.391 . S
C482 H497 0.930 . S
C483 C482 1.391 . S
C483 C485 1.387 . S
C484 C481 1.398 . S
C484 C485 1.380 . S
C484 H498 0.930 . S
C485 C483 1.387 . S
C485 C484 1.380 . S
C485 H499 0.930 . S
C486 O466 1.254 . S
C486 O467 1.268 . S
C487 O471 1.284 . S
C487 O474 1.250 . S
C488 Gd421 2.828 . S
C488 O470 1.258 . S
C488 O475 1.252 . S
C488 C489 1.497 . S
C489 C488 1.497 . S
C489 C490 1.395 . S
C489 C491 1.380 . S
C490 C489 1.395 . S
C490 C493 1.398 . S
C490 H500 0.930 . S
C491 C489 1.380 . S
C491 C492 1.391 . S
C491 H501 0.930 . S
C492 C491 1.391 . S
C492 C494 1.387 . S
C493 C490 1.398 . S
C493 C494 1.380 . S
C493 H502 0.930 . S
C494 C492 1.387 . S
C494 C493 1.380 . S
C494 H503 0.930 . S
C495 O472 1.254 . S
C495 O473 1.268 . S
H496 C481 0.930 . S
H497 C482 0.930 . S
H498 C484 0.930 . S
H499 C485 0.930 . S
H500 C490 0.930 . S
H501 C491 0.930 . S
H502 C493 0.930 . S
H503 C494 0.930 . S
Gd504 N535 2.661 1_545 S
Gd504 N541 2.601 1_545 S
Gd504 O548 2.545 . S
Gd504 O549 2.606 . S
Gd504 O551 2.429 . S
Gd504 O552 2.545 . S
Gd504 O553 2.412 . S
Gd504 O555 2.382 . S
Gd504 O556 2.324 . S
Gd504 C563 2.828 . S
Gd505 N514 2.661 . S
Gd505 N518 2.601 . S
Gd505 O549 2.362 . S
Gd505 O550 2.324 . S
Gd505 O554 2.545 . S
Gd505 O555 2.619 . S
Gd505 O557 2.429 . S
Gd505 O558 2.545 1_545 S
Gd505 O559 2.412 . S
Gd505 C572 2.828 . S
C506 C509 1.417 . S
C506 C511 1.431 . S
C506 C512 1.412 . S
C507 C510 1.437 . S
C507 C511 1.317 . S
C507 H526 0.929 . S
C508 C509 1.426 . S
C508 C510 1.413 . S
C508 N518 1.359 . S
C509 C506 1.417 . S
C509 C508 1.426 . S
C509 N514 1.350 . S
C510 C507 1.437 . S
C510 C508 1.413 . S
C510 C520 1.391 . S
C511 C506 1.431 . S
C511 C507 1.317 . S
C511 H522 0.930 . S
C512 C506 1.412 . S
C512 C513 1.355 . S
C512 H524 0.930 . S
C513 C512 1.355 . S
C513 C515 1.402 . S
C513 H525 0.930 . S
N514 Gd505 2.661 . S
N514 C509 1.350 . S
N514 C515 1.307 . S
C515 C513 1.402 . S
C515 N514 1.307 . S
C515 H516 0.930 . S
H516 C515 0.930 . S
C517 N518 1.334 . S
C517 C519 1.394 . S
C517 H521 0.930 . S
N518 Gd505 2.601 . S
N518 C508 1.359 . S
N518 C517 1.334 . S
C519 C517 1.394 . S
C519 C520 1.359 . S
C519 H531 0.930 . S
C520 C510 1.391 . S
C520 C519 1.359 . S
C520 H532 0.929 . S
H521 C517 0.930 . S
H522 C511 0.930 . S
H523 C540 0.930 . S
H524 C512 0.930 . S
H525 C513 0.930 . S
H526 C507 0.929 . S
H527 C545 0.930 . S
H528 C536 0.930 . S
H529 C537 0.930 . S
H530 C561 0.929 . S
H531 C519 0.930 . S
H532 C520 0.929 . S
H533 C562 0.930 . S
H534 C543 0.930 1_545 S
N535 Gd504 2.661 1_565 S
N535 C539 1.350 . S
N535 C540 1.307 . S
C536 H528 0.930 . S
C536 C537 1.355 . S
C536 C538 1.412 . S
C537 H529 0.930 . S
C537 C536 1.355 . S
C537 C540 1.402 . S
C538 C536 1.412 . S
C538 C539 1.417 . S
C538 C562 1.431 . S
C539 N535 1.350 . S
C539 C538 1.417 . S
C539 C542 1.426 . S
C540 H523 0.930 . S
C540 N535 1.307 . S
C540 C537 1.402 . S
N541 Gd504 2.601 1_565 S
N541 C542 1.359 . S
N541 C545 1.334 1_565 S
C542 C539 1.426 . S
C542 N541 1.359 . S
C542 C546 1.413 . S
C543 H534 0.930 1_565 S
C543 C544 1.359 . S
C543 C545 1.394 1_565 S
C544 C543 1.359 . S
C544 C546 1.391 . S
C544 H547 0.929 . S
C545 H527 0.930 . S
C545 N541 1.334 1_545 S
C545 C543 1.394 1_545 S
C546 C542 1.413 . S
C546 C544 1.391 . S
C546 C561 1.437 . S
H547 C544 0.929 . S
O548 Gd504 2.545 . S
O548 C563 1.258 . S
O549 Gd504 2.606 . S
O549 Gd505 2.362 . S
O549 C560 1.284 . S
O550 Gd505 2.324 . S
O550 C570 1.254 . S
O551 Gd504 2.429 . S
O551 C570 1.268 . S
O552 Gd504 2.545 . S
O552 C560 1.250 . S
O553 Gd504 2.412 . S
O553 C563 1.252 . S
O554 Gd505 2.545 . S
O554 C572 1.258 . S
O555 Gd504 2.382 . S
O555 Gd505 2.619 . S
O555 C571 1.260 1_545 S
O556 Gd504 2.324 . S
O556 C579 1.254 . S
O557 Gd505 2.429 . S
O557 C579 1.268 . S
O558 Gd505 2.545 1_565 S
O558 C571 1.250 . S
O559 Gd505 2.412 . S
O559 C572 1.252 . S
C560 O549 1.284 . S
C560 O552 1.250 . S
C561 H530 0.929 . S
C561 C546 1.437 . S
C561 C562 1.317 . S
C562 H533 0.930 . S
C562 C538 1.431 . S
C562 C561 1.317 . S
C563 Gd504 2.828 . S
C563 O548 1.258 . S
C563 O553 1.252 . S
C563 C564 1.497 . S
C564 C563 1.497 . S
C564 C565 1.395 . S
C564 C566 1.380 . S
C565 C564 1.395 . S
C565 C568 1.398 . S
C565 H580 0.930 . S
C566 C564 1.380 . S
C566 C567 1.391 . S
C566 H581 0.930 . S
C567 C566 1.391 . S
C567 C569 1.387 . S
C568 C565 1.398 . S
C568 C569 1.380 . S
C568 H582 0.930 . S
C569 C567 1.387 . S
C569 C568 1.380 . S
C569 H583 0.930 . S
C570 O550 1.254 . S
C570 O551 1.268 . S
C571 O555 1.260 1_565 S
C571 O558 1.250 . S
C572 Gd505 2.828 . S
C572 O554 1.258 . S
C572 O559 1.252 . S
C572 C573 1.491 1_545 S
C573 C572 1.491 1_565 S
C573 C574 1.394 . S
C573 C575 1.387 . S
C574 C573 1.394 . S
C574 C577 1.398 . S
C574 H584 0.930 1_565 S
C575 C573 1.387 . S
C575 C576 1.391 . S
C575 H585 0.930 . S
C576 C575 1.391 . S
C576 C578 1.387 . S
C577 C574 1.398 . S
C577 C578 1.380 . S
C577 H586 0.930 . S
C578 C576 1.387 . S
C578 C577 1.380 . S
C578 H587 0.930 . S
C579 O556 1.254 . S
C579 O557 1.268 . S
H580 C565 0.930 . S
H581 C566 0.930 . S
H582 C568 0.930 . S
H583 C569 0.930 . S
H584 C574 0.930 1_545 S
H585 C575 0.930 . S
H586 C577 0.930 . S
H587 C578 0.930 . S
Gd588 N619 2.661 . S
Gd588 N625 2.601 . S
Gd588 O632 2.545 . S
Gd588 O633 2.606 . S
Gd588 O635 2.429 . S
Gd588 O636 2.545 . S
Gd588 O637 2.412 . S
Gd588 O639 2.362 . S
Gd588 O640 2.324 . S
Gd588 C647 2.828 . S
Gd589 N598 2.661 . S
Gd589 N602 2.601 . S
Gd589 O633 2.362 . S
Gd589 O634 2.324 . S
Gd589 O638 2.545 . S
Gd589 O639 2.606 . S
Gd589 O641 2.429 . S
Gd589 O642 2.545 . S
Gd589 O643 2.412 . S
Gd589 C656 2.828 . S
C590 C593 1.417 . S
C590 C595 1.431 . S
C590 C596 1.412 . S
C591 C594 1.437 . S
C591 C595 1.317 . S
C591 H610 0.929 . S
C592 C593 1.426 . S
C592 C594 1.413 . S
C592 N602 1.359 . S
C593 C590 1.417 . S
C593 C592 1.426 . S
C593 N598 1.350 . S
C594 C591 1.437 . S
C594 C592 1.413 . S
C594 C604 1.391 . S
C595 C590 1.431 . S
C595 C591 1.317 . S
C595 H606 0.930 . S
C596 C590 1.412 . S
C596 C597 1.355 . S
C596 H608 0.930 . S
C597 C596 1.355 . S
C597 C599 1.402 . S
C597 H609 0.930 . S
N598 Gd589 2.661 . S
N598 C593 1.350 . S
N598 C599 1.307 . S
C599 C597 1.402 . S
C599 N598 1.307 . S
C599 H600 0.930 . S
H600 C599 0.930 . S
C601 N602 1.334 . S
C601 C603 1.394 . S
C601 H605 0.930 . S
N602 Gd589 2.601 . S
N602 C592 1.359 . S
N602 C601 1.334 . S
C603 C601 1.394 . S
C603 C604 1.359 . S
C603 H615 0.930 . S
C604 C594 1.391 . S
C604 C603 1.359 . S
C604 H616 0.929 . S
H605 C601 0.930 . S
H606 C595 0.930 . S
H607 C624 0.930 . S
H608 C596 0.930 . S
H609 C597 0.930 . S
H610 C591 0.929 . S
H611 C629 0.930 . S
H612 C620 0.930 . S
H613 C621 0.930 . S
H614 C645 0.929 . S
H615 C603 0.930 . S
H616 C604 0.929 . S
H617 C646 0.930 . S
H618 C627 0.930 . S
N619 Gd588 2.661 . S
N619 C623 1.350 . S
N619 C624 1.307 . S
C620 H612 0.930 . S
C620 C621 1.355 . S
C620 C622 1.412 . S
C621 H613 0.930 . S
C621 C620 1.355 . S
C621 C624 1.402 . S
C622 C620 1.412 . S
C622 C623 1.417 . S
C622 C646 1.431 . S
C623 N619 1.350 . S
C623 C622 1.417 . S
C623 C626 1.426 . S
C624 H607 0.930 . S
C624 N619 1.307 . S
C624 C621 1.402 . S
N625 Gd588 2.601 . S
N625 C626 1.359 . S
N625 C629 1.334 . S
C626 C623 1.426 . S
C626 N625 1.359 . S
C626 C630 1.413 . S
C627 H618 0.930 . S
C627 C628 1.359 . S
C627 C629 1.394 . S
C628 C627 1.359 . S
C628 C630 1.391 . S
C628 H631 0.929 . S
C629 H611 0.930 . S
C629 N625 1.334 . S
C629 C627 1.394 . S
C630 C626 1.413 . S
C630 C628 1.391 . S
C630 C645 1.437 . S
H631 C628 0.929 . S
O632 Gd588 2.545 . S
O632 C647 1.258 . S
O633 Gd588 2.606 . S
O633 Gd589 2.362 . S
O633 C644 1.284 . S
O634 Gd589 2.324 . S
O634 C654 1.254 . S
O635 Gd588 2.429 . S
O635 C654 1.268 . S
O636 Gd588 2.545 . S
O636 C644 1.250 . S
O637 Gd588 2.412 . S
O637 C647 1.252 . S
O638 Gd589 2.545 . S
O638 C656 1.258 . S
O639 Gd588 2.362 . S
O639 Gd589 2.606 . S
O639 C655 1.284 . S
O640 Gd588 2.324 . S
O640 C663 1.254 . S
O641 Gd589 2.429 . S
O641 C663 1.268 . S
O642 Gd589 2.545 . S
O642 C655 1.250 . S
O643 Gd589 2.412 . S
O643 C656 1.252 . S
C644 O633 1.284 . S
C644 O636 1.250 . S
C645 H614 0.929 . S
C645 C630 1.437 . S
C645 C646 1.317 . S
C646 H617 0.930 . S
C646 C622 1.431 . S
C646 C645 1.317 . S
C647 Gd588 2.828 . S
C647 O632 1.258 . S
C647 O637 1.252 . S
C647 C648 1.497 . S
C648 C647 1.497 . S
C648 C649 1.395 . S
C648 C650 1.380 . S
C649 C648 1.395 . S
C649 C652 1.398 . S
C649 H664 0.930 . S
C650 C648 1.380 . S
C650 C651 1.391 . S
C650 H665 0.930 . S
C651 C650 1.391 . S
C651 C653 1.387 . S
C652 C649 1.398 . S
C652 C653 1.380 . S
C652 H666 0.930 . S
C653 C651 1.387 . S
C653 C652 1.380 . S
C653 H667 0.930 . S
C654 O634 1.254 . S
C654 O635 1.268 . S
C655 O639 1.284 . S
C655 O642 1.250 . S
C656 Gd589 2.828 . S
C656 O638 1.258 . S
C656 O643 1.252 . S
C656 C657 1.497 . S
C657 C656 1.497 . S
C657 C658 1.395 . S
C657 C659 1.380 . S
C658 C657 1.395 . S
C658 C661 1.398 . S
C658 H668 0.930 . S
C659 C657 1.380 . S
C659 C660 1.391 . S
C659 H669 0.930 . S
C660 C659 1.391 . S
C660 C662 1.387 . S
C661 C658 1.398 . S
C661 C662 1.380 . S
C661 H670 0.930 . S
C662 C660 1.387 . S
C662 C661 1.380 . S
C662 H671 0.930 . S
C663 O640 1.254 . S
C663 O641 1.268 . S
H664 C649 0.930 . S
H665 C650 0.930 . S
H666 C652 0.930 . S
H667 C653 0.930 . S
H668 C658 0.930 . S
H669 C659 0.930 . S
H670 C661 0.930 . S
H671 C662 0.930 . S
Gd672 N703 2.661 . S
Gd672 N709 2.601 . S
Gd672 O716 2.545 . S
Gd672 O717 2.606 1_565 S
Gd672 O719 2.429 1_565 S
Gd672 O720 2.545 . S
Gd672 O721 2.412 . S
Gd672 O723 2.362 1_565 S
Gd672 O724 2.324 . S
Gd672 C731 2.828 . S
Gd673 N682 2.661 . S
Gd673 N686 2.601 . S
Gd673 O717 2.362 . S
Gd673 O718 2.324 . S
Gd673 O722 2.545 . S
Gd673 O723 2.606 . S
Gd673 O725 2.429 . S
Gd673 O726 2.545 . S
Gd673 O727 2.412 . S
Gd673 C740 2.828 . S
C674 C677 1.417 . S
C674 C679 1.431 . S
C674 C680 1.412 . S
C675 C678 1.437 . S
C675 C679 1.317 . S
C675 H694 0.929 . S
C676 C677 1.426 . S
C676 C678 1.413 . S
C676 N686 1.359 . S
C677 C674 1.417 . S
C677 C676 1.426 . S
C677 N682 1.350 . S
C678 C675 1.437 . S
C678 C676 1.413 . S
C678 C688 1.391 . S
C679 C674 1.431 . S
C679 C675 1.317 . S
C679 H690 0.930 . S
C680 C674 1.412 . S
C680 C681 1.355 . S
C680 H692 0.930 . S
C681 C680 1.355 . S
C681 C683 1.402 . S
C681 H693 0.930 . S
N682 Gd673 2.661 . S
N682 C677 1.350 . S
N682 C683 1.307 . S
C683 C681 1.402 . S
C683 N682 1.307 . S
C683 H684 0.930 . S
H684 C683 0.930 . S
C685 N686 1.334 . S
C685 C687 1.394 . S
C685 H689 0.930 . S
N686 Gd673 2.601 . S
N686 C676 1.359 . S
N686 C685 1.334 . S
C687 C685 1.394 . S
C687 C688 1.359 . S
C687 H699 0.930 1_455 S
C688 C678 1.391 . S
C688 C687 1.359 . S
C688 H700 0.929 . S
H689 C685 0.930 . S
H690 C679 0.930 . S
H691 C708 0.930 . S
H692 C680 0.930 . S
H693 C681 0.930 . S
H694 C675 0.929 . S
H695 C713 0.930 . S
H696 C704 0.930 1_655 S
H697 C705 0.930 . S
H698 C729 0.929 . S
H699 C687 0.930 1_655 S
H700 C688 0.929 . S
H701 C730 0.930 . S
H702 C711 0.930 . S
N703 Gd672 2.661 . S
N703 C707 1.350 . S
N703 C708 1.307 . S
C704 H696 0.930 1_455 S
C704 C705 1.355 1_455 S
C704 C706 1.412 . S
C705 H697 0.930 . S
C705 C704 1.355 1_655 S
C705 C708 1.402 1_655 S
C706 C704 1.412 . S
C706 C707 1.417 . S
C706 C730 1.431 . S
C707 N703 1.350 . S
C707 C706 1.417 . S
C707 C710 1.426 . S
C708 H691 0.930 . S
C708 N703 1.307 . S
C708 C705 1.402 1_455 S
N709 Gd672 2.601 . S
N709 C710 1.359 . S
N709 C713 1.334 . S
C710 C707 1.426 . S
C710 N709 1.359 . S
C710 C714 1.413 . S
C711 H702 0.930 . S
C711 C712 1.359 . S
C711 C713 1.394 . S
C712 C711 1.359 . S
C712 C714 1.391 . S
C712 H715 0.929 . S
C713 H695 0.930 . S
C713 N709 1.334 . S
C713 C711 1.394 . S
C714 C710 1.413 . S
C714 C712 1.391 . S
C714 C729 1.437 . S
H715 C712 0.929 . S
O716 Gd672 2.545 . S
O716 C731 1.258 . S
O717 Gd672 2.606 1_545 S
O717 Gd673 2.362 . S
O717 C728 1.284 . S
O718 Gd673 2.324 . S
O718 C738 1.254 . S
O719 Gd672 2.429 1_545 S
O719 C738 1.268 . S
O720 Gd672 2.545 . S
O720 C728 1.250 1_565 S
O721 Gd672 2.412 . S
O721 C731 1.252 . S
O722 Gd673 2.545 . S
O722 C740 1.258 . S
O723 Gd672 2.362 1_545 S
O723 Gd673 2.606 . S
O723 C739 1.284 . S
O724 Gd672 2.324 . S
O724 C747 1.254 1_565 S
O725 Gd673 2.429 . S
O725 C747 1.268 . S
O726 Gd673 2.545 . S
O726 C739 1.250 . S
O727 Gd673 2.412 . S
O727 C740 1.252 . S
C728 O717 1.284 . S
C728 O720 1.250 1_545 S
C729 H698 0.929 . S
C729 C714 1.437 . S
C729 C730 1.317 . S
C730 H701 0.930 . S
C730 C706 1.431 . S
C730 C729 1.317 . S
C731 Gd672 2.828 . S
C731 O716 1.258 . S
C731 O721 1.252 . S
C731 C732 1.497 . S
C732 C731 1.497 . S
C732 C733 1.395 . S
C732 C734 1.380 . S
C733 C732 1.395 . S
C733 C736 1.398 . S
C733 H748 0.930 . S
C734 C732 1.380 . S
C734 C735 1.391 . S
C734 H749 0.930 . S
C735 C734 1.391 . S
C735 C737 1.387 . S
C736 C733 1.398 . S
C736 C737 1.380 . S
C736 H750 0.930 . S
C737 C735 1.387 . S
C737 C736 1.380 . S
C737 H751 0.930 . S
C738 O718 1.254 . S
C738 O719 1.268 . S
C739 O723 1.284 . S
C739 O726 1.250 . S
C740 Gd673 2.828 . S
C740 O722 1.258 . S
C740 O727 1.252 . S
C740 C741 1.497 . S
C741 C740 1.497 . S
C741 C742 1.395 . S
C741 C743 1.380 . S
C742 C741 1.395 . S
C742 C745 1.398 . S
C742 H752 0.930 . S
C743 C741 1.380 . S
C743 C744 1.391 . S
C743 H753 0.930 . S
C744 C743 1.391 . S
C744 C746 1.387 . S
C745 C742 1.398 . S
C745 C746 1.380 . S
C745 H754 0.930 . S
C746 C744 1.387 . S
C746 C745 1.380 . S
C746 H755 0.930 . S
C747 O724 1.254 1_545 S
C747 O725 1.268 . S
H748 C733 0.930 . S
H749 C734 0.930 . S
H750 C736 0.930 . S
H751 C737 0.930 . S
H752 C742 0.930 . S
H753 C743 0.930 . S
H754 C745 0.930 . S
H755 C746 0.930 . S
Gd756 N787 2.661 . S
Gd756 N793 2.601 . S
Gd756 O800 2.545 . S
Gd756 O801 2.606 . S
Gd756 O803 2.429 . S
Gd756 O804 2.545 . S
Gd756 O805 2.412 . S
Gd756 O807 2.362 . S
Gd756 O808 2.324 . S
Gd756 C815 2.828 . S
Gd757 N766 2.661 . S
Gd757 N770 2.601 . S
Gd757 O801 2.362 . S
Gd757 O802 2.324 . S
Gd757 O806 2.545 . S
Gd757 O807 2.606 . S
Gd757 O809 2.429 . S
Gd757 O810 2.545 . S
Gd757 O811 2.412 . S
Gd757 C824 2.828 . S
C758 C761 1.417 . S
C758 C763 1.431 . S
C758 C764 1.412 . S
C759 C762 1.437 . S
C759 C763 1.317 . S
C759 H778 0.929 . S
C760 C761 1.426 . S
C760 C762 1.413 . S
C760 N770 1.359 . S
C761 C758 1.417 . S
C761 C760 1.426 . S
C761 N766 1.350 . S
C762 C759 1.437 . S
C762 C760 1.413 . S
C762 C772 1.391 . S
C763 C758 1.431 . S
C763 C759 1.317 . S
C763 H774 0.930 . S
C764 C758 1.412 . S
C764 C765 1.355 . S
C764 H776 0.930 . S
C765 C764 1.355 . S
C765 C767 1.402 . S
C765 H777 0.930 . S
N766 Gd757 2.661 . S
N766 C761 1.350 . S
N766 C767 1.307 . S
C767 C765 1.402 . S
C767 N766 1.307 . S
C767 H768 0.930 . S
H768 C767 0.930 . S
C769 N770 1.334 . S
C769 C771 1.394 . S
C769 H773 0.930 . S
N770 Gd757 2.601 . S
N770 C760 1.359 . S
N770 C769 1.334 . S
C771 C769 1.394 . S
C771 C772 1.359 . S
C771 H783 0.930 . S
C772 C762 1.391 . S
C772 C771 1.359 . S
C772 H784 0.929 . S
H773 C769 0.930 . S
H774 C763 0.930 . S
H775 C792 0.930 . S
H776 C764 0.930 . S
H777 C765 0.930 . S
H778 C759 0.929 . S
H779 C797 0.930 . S
H780 C788 0.930 . S
H781 C789 0.930 . S
H782 C813 0.929 . S
H783 C771 0.930 . S
H784 C772 0.929 . S
H785 C814 0.930 . S
H786 C795 0.930 . S
N787 Gd756 2.661 . S
N787 C791 1.350 . S
N787 C792 1.307 . S
C788 H780 0.930 . S
C788 C789 1.355 . S
C788 C790 1.412 . S
C789 H781 0.930 . S
C789 C788 1.355 . S
C789 C792 1.402 . S
C790 C788 1.412 . S
C790 C791 1.417 . S
C790 C814 1.431 . S
C791 N787 1.350 . S
C791 C790 1.417 . S
C791 C794 1.426 . S
C792 H775 0.930 . S
C792 N787 1.307 . S
C792 C789 1.402 . S
N793 Gd756 2.601 . S
N793 C794 1.359 . S
N793 C797 1.334 . S
C794 C791 1.426 . S
C794 N793 1.359 . S
C794 C798 1.413 . S
C795 H786 0.930 . S
C795 C796 1.359 . S
C795 C797 1.394 . S
C796 C795 1.359 . S
C796 C798 1.391 . S
C796 H799 0.929 . S
C797 H779 0.930 . S
C797 N793 1.334 . S
C797 C795 1.394 . S
C798 C794 1.413 . S
C798 C796 1.391 . S
C798 C813 1.437 . S
H799 C796 0.929 . S
O800 Gd756 2.545 . S
O800 C815 1.258 . S
O801 Gd756 2.606 . S
O801 Gd757 2.362 . S
O801 C812 1.284 . S
O802 Gd757 2.324 . S
O802 C822 1.254 . S
O803 Gd756 2.429 . S
O803 C822 1.268 . S
O804 Gd756 2.545 . S
O804 C812 1.250 . S
O805 Gd756 2.412 . S
O805 C815 1.252 . S
O806 Gd757 2.545 . S
O806 C824 1.258 . S
O807 Gd756 2.362 . S
O807 Gd757 2.606 . S
O807 C823 1.284 . S
O808 Gd756 2.324 . S
O808 C831 1.254 . S
O809 Gd757 2.429 . S
O809 C831 1.268 . S
O810 Gd757 2.545 . S
O810 C823 1.250 . S
O811 Gd757 2.412 . S
O811 C824 1.252 . S
C812 O801 1.284 . S
C812 O804 1.250 . S
C813 H782 0.929 . S
C813 C798 1.437 . S
C813 C814 1.317 . S
C814 H785 0.930 . S
C814 C790 1.431 . S
C814 C813 1.317 . S
C815 Gd756 2.828 . S
C815 O800 1.258 . S
C815 O805 1.252 . S
C815 C816 1.497 . S
C816 C815 1.497 . S
C816 C817 1.395 . S
C816 C818 1.380 . S
C817 C816 1.395 . S
C817 C820 1.398 . S
C817 H832 0.930 . S
C818 C816 1.380 . S
C818 C819 1.391 . S
C818 H833 0.930 . S
C819 C818 1.391 . S
C819 C821 1.387 . S
C820 C817 1.398 . S
C820 C821 1.380 . S
C820 H834 0.930 . S
C821 C819 1.387 . S
C821 C820 1.380 . S
C821 H835 0.930 . S
C822 O802 1.254 . S
C822 O803 1.268 . S
C823 O807 1.284 . S
C823 O810 1.250 . S
C824 Gd757 2.828 . S
C824 O806 1.258 . S
C824 O811 1.252 . S
C824 C825 1.497 . S
C825 C824 1.497 . S
C825 C826 1.395 . S
C825 C827 1.380 . S
C826 C825 1.395 . S
C826 C829 1.398 . S
C826 H836 0.930 . S
C827 C825 1.380 . S
C827 C828 1.391 . S
C827 H837 0.930 . S
C828 C827 1.391 . S
C828 C830 1.387 . S
C829 C826 1.398 . S
C829 C830 1.380 . S
C829 H838 0.930 . S
C830 C828 1.387 . S
C830 C829 1.380 . S
C830 H839 0.930 . S
C831 O808 1.254 . S
C831 O809 1.268 . S
H832 C817 0.930 . S
H833 C818 0.930 . S
H834 C820 0.930 . S
H835 C821 0.930 . S
H836 C826 0.930 . S
H837 C827 0.930 . S
H838 C829 0.930 . S
H839 C830 0.930 . S
Gd840 N871 2.661 . S
Gd840 N877 2.601 . S
Gd840 O884 2.545 . S
Gd840 O885 2.606 1_556 S
Gd840 O887 2.429 1_556 S
Gd840 O888 2.545 1_556 S
Gd840 O889 2.412 . S
Gd840 O891 2.362 1_556 S
Gd840 O892 2.324 . S
Gd840 C899 2.828 . S
Gd841 N850 2.661 . S
Gd841 N854 2.601 . S
Gd841 O885 2.362 . S
Gd841 O886 2.324 . S
Gd841 O890 2.545 1_545 S
Gd841 O891 2.606 . S
Gd841 O893 2.429 1_545 S
Gd841 O894 2.542 1_545 S
Gd841 O895 2.412 . S
Gd841 C908 2.828 . S
C842 C845 1.417 . S
C842 C847 1.431 . S
C842 C848 1.412 . S
C843 C846 1.437 . S
C843 C847 1.317 . S
C843 H862 0.929 . S
C844 C845 1.426 . S
C844 C846 1.413 . S
C844 N854 1.359 . S
C845 C842 1.417 . S
C845 C844 1.426 . S
C845 N850 1.350 . S
C846 C843 1.437 . S
C846 C844 1.413 . S
C846 C856 1.391 1_545 S
C847 C842 1.431 . S
C847 C843 1.317 . S
C847 H858 0.930 . S
C848 C842 1.412 . S
C848 C849 1.355 . S
C848 H860 0.930 . S
C849 C848 1.355 . S
C849 C851 1.402 . S
C849 H861 0.930 . S
N850 Gd841 2.661 . S
N850 C845 1.350 . S
N850 C851 1.307 . S
C851 C849 1.402 . S
C851 N850 1.307 . S
C851 H852 0.930 . S
H852 C851 0.930 . S
C853 N854 1.334 1_565 S
C853 C855 1.394 . S
C853 H857 0.930 . S
N854 Gd841 2.601 . S
N854 C844 1.359 . S
N854 C853 1.334 1_545 S
C855 C853 1.394 . S
C855 C856 1.359 . S
C855 H867 0.930 . S
C856 C846 1.391 1_565 S
C856 C855 1.359 . S
C856 H868 0.929 . S
H857 C853 0.930 . S
H858 C847 0.930 . S
H859 C876 0.930 . S
H860 C848 0.930 . S
H861 C849 0.930 . S
H862 C843 0.929 . S
H863 C881 0.940 . S
H864 C872 0.930 . S
H865 C873 0.930 . S
H866 C897 0.929 . S
H867 C855 0.930 . S
H868 C856 0.929 . S
H869 C898 0.930 1_565 S
H870 C879 0.930 . S
N871 Gd840 2.661 . S
N871 C875 1.350 . S
N871 C876 1.307 1_545 S
C872 H864 0.930 . S
C872 C873 1.355 . S
C872 C874 1.402 1_565 S
C873 H865 0.930 . S
C873 C872 1.355 . S
C873 C876 1.402 . S
C874 C872 1.402 1_545 S
C874 C875 1.420 . S
C874 C898 1.438 . S
C875 N871 1.350 . S
C875 C874 1.420 . S
C875 C878 1.426 . S
C876 H859 0.930 . S
C876 N871 1.307 1_565 S
C876 C873 1.402 . S
N877 Gd840 2.601 . S
N877 C878 1.359 . S
N877 C881 1.334 . S
C878 C875 1.426 . S
C878 N877 1.359 . S
C878 C882 1.413 . S
C879 H870 0.930 . S
C879 C880 1.359 . S
C879 C881 1.394 . S
C880 C879 1.359 . S
C880 C882 1.391 . S
C880 H883 0.929 . S
C881 H863 0.940 . S
C881 N877 1.334 . S
C881 C879 1.394 . S
C882 C878 1.413 . S
C882 C880 1.391 . S
C882 C897 1.437 . S
H883 C880 0.929 . S
O884 Gd840 2.545 . S
O884 C899 1.258 . S
O885 Gd840 2.606 1_554 S
O885 Gd841 2.362 . S
O885 C896 1.284 . S
O886 Gd841 2.324 . S
O886 C906 1.254 . S
O887 Gd840 2.429 1_554 S
O887 C906 1.268 . S
O888 Gd840 2.545 1_554 S
O888 C896 1.250 . S
O889 Gd840 2.412 . S
O889 C899 1.252 . S
O890 Gd841 2.545 1_565 S
O890 C908 1.258 1_565 S
O891 Gd840 2.362 1_554 S
O891 Gd841 2.606 . S
O891 C907 1.284 . S
O892 Gd840 2.324 . S
O892 C915 1.254 1_546 S
O893 Gd841 2.429 1_565 S
O893 C915 1.268 . S
O894 Gd841 2.542 1_565 S
O894 C907 1.235 1_565 S
O895 Gd841 2.412 . S
O895 C908 1.252 . S
C896 O885 1.284 . S
C896 O888 1.250 . S
C897 H866 0.929 . S
C897 C882 1.437 . S
C897 C898 1.317 . S
C898 H869 0.930 1_545 S
C898 C874 1.438 . S
C898 C897 1.317 . S
C899 Gd840 2.828 . S
C899 O884 1.258 . S
C899 O889 1.252 . S
C899 C900 1.497 . S
C900 C899 1.497 . S
C900 C901 1.395 . S
C900 C902 1.380 . S
C901 C900 1.395 . S
C901 C904 1.398 . S
C901 H916 0.930 . S
C902 C900 1.380 . S
C902 C903 1.391 . S
C902 H917 0.930 . S
C903 C902 1.391 . S
C903 C905 1.387 . S
C904 C901 1.398 . S
C904 C905 1.380 . S
C904 H918 0.930 . S
C905 C903 1.387 . S
C905 C904 1.380 . S
C905 H919 0.930 . S
C906 O886 1.254 . S
C906 O887 1.268 . S
C907 O891 1.284 . S
C907 O894 1.235 1_545 S
C908 Gd841 2.828 . S
C908 O890 1.258 1_545 S
C908 O895 1.252 . S
C908 C909 1.497 1_545 S
C909 C908 1.497 1_565 S
C909 C910 1.395 . S
C909 C911 1.380 1_565 S
C910 C909 1.395 . S
C910 C913 1.398 . S
C910 H920 0.930 . S
C911 C909 1.380 1_545 S
C911 C912 1.404 . S
C911 H921 0.930 . S
C912 C911 1.404 . S
C912 C914 1.353 1_545 S
C913 C910 1.398 . S
C913 C914 1.380 . S
C913 H922 0.930 . S
C914 C912 1.353 1_565 S
C914 C913 1.380 . S
C914 H923 0.930 . S
C915 O892 1.254 1_564 S
C915 O893 1.268 . S
H916 C901 0.930 . S
H917 C902 0.930 . S
H918 C904 0.930 . S
H919 C905 0.930 . S
H920 C910 0.930 . S
H921 C911 0.930 . S
H922 C913 0.930 . S
H923 C914 0.930 . S
Gd924 N955 2.661 . S
Gd924 N961 2.601 . S
Gd924 O968 2.545 . S
Gd924 O969 2.606 . S
Gd924 O971 2.429 . S
Gd924 O972 2.545 . S
Gd924 O973 2.412 . S
Gd924 O975 2.362 . S
Gd924 O976 2.324 . S
Gd924 C983 2.828 . S
Gd925 N934 2.661 . S
Gd925 N938 2.601 . S
Gd925 O969 2.362 . S
Gd925 O970 2.324 . S
Gd925 O974 2.545 . S
Gd925 O975 2.606 . S
Gd925 O977 2.429 . S
Gd925 O978 2.545 . S
Gd925 O979 2.412 . S
Gd925 C992 2.828 . S
C926 C929 1.417 . S
C926 C931 1.431 . S
C926 C932 1.412 . S
C927 C930 1.437 . S
C927 C931 1.317 . S
C927 H946 0.929 . S
C928 C929 1.426 . S
C928 C930 1.413 . S
C928 N938 1.359 . S
C929 C926 1.417 . S
C929 C928 1.426 . S
C929 N934 1.350 . S
C930 C927 1.437 . S
C930 C928 1.413 . S
C930 C940 1.391 . S
C931 C926 1.431 . S
C931 C927 1.317 . S
C931 H942 0.930 . S
C932 C926 1.412 . S
C932 C933 1.355 . S
C932 H944 0.930 . S
C933 C932 1.355 . S
C933 C935 1.402 . S
C933 H945 0.930 . S
N934 Gd925 2.661 . S
N934 C929 1.350 . S
N934 C935 1.307 . S
C935 C933 1.402 . S
C935 N934 1.307 . S
C935 H936 0.930 . S
H936 C935 0.930 . S
C937 N938 1.334 . S
C937 C939 1.394 . S
C937 H941 0.930 . S
N938 Gd925 2.601 . S
N938 C928 1.359 . S
N938 C937 1.334 . S
C939 C937 1.394 . S
C939 C940 1.359 . S
C939 H951 0.930 . S
C940 C930 1.391 . S
C940 C939 1.359 . S
C940 H952 0.929 . S
H941 C937 0.930 . S
H942 C931 0.930 . S
H943 C960 0.930 . S
H944 C932 0.930 . S
H945 C933 0.930 . S
H946 C927 0.929 . S
H947 C965 0.930 . S
H948 C956 0.930 . S
H949 C957 0.930 . S
H950 C981 0.929 . S
H951 C939 0.930 . S
H952 C940 0.929 . S
H953 C982 0.930 . S
H954 C963 0.930 . S
N955 Gd924 2.661 . S
N955 C959 1.350 . S
N955 C960 1.307 . S
C956 H948 0.930 . S
C956 C957 1.355 . S
C956 C958 1.412 . S
C957 H949 0.930 . S
C957 C956 1.355 . S
C957 C960 1.402 . S
C958 C956 1.412 . S
C958 C959 1.417 . S
C958 C982 1.431 . S
C959 N955 1.350 . S
C959 C958 1.417 . S
C959 C962 1.426 . S
C960 H943 0.930 . S
C960 N955 1.307 . S
C960 C957 1.402 . S
N961 Gd924 2.601 . S
N961 C962 1.359 . S
N961 C965 1.334 . S
C962 C959 1.426 . S
C962 N961 1.359 . S
C962 C966 1.413 . S
C963 H954 0.930 . S
C963 C964 1.359 . S
C963 C965 1.394 . S
C964 C963 1.359 . S
C964 C966 1.391 . S
C964 H967 0.929 . S
C965 H947 0.930 . S
C965 N961 1.334 . S
C965 C963 1.394 . S
C966 C962 1.413 . S
C966 C964 1.391 . S
C966 C981 1.437 . S
H967 C964 0.929 . S
O968 Gd924 2.545 . S
O968 C983 1.258 . S
O969 Gd924 2.606 . S
O969 Gd925 2.362 . S
O969 C980 1.284 . S
O970 Gd925 2.324 . S
O970 C990 1.254 . S
O971 Gd924 2.429 . S
O971 C990 1.268 . S
O972 Gd924 2.545 . S
O972 C980 1.250 . S
O973 Gd924 2.412 . S
O973 C983 1.252 . S
O974 Gd925 2.545 . S
O974 C992 1.258 . S
O975 Gd924 2.362 . S
O975 Gd925 2.606 . S
O975 C991 1.284 . S
O976 Gd924 2.324 . S
O976 C999 1.254 . S
O977 Gd925 2.429 . S
O977 C999 1.268 . S
O978 Gd925 2.545 . S
O978 C991 1.250 . S
O979 Gd925 2.412 . S
O979 C992 1.252 . S
C980 O969 1.284 . S
C980 O972 1.250 . S
C981 H950 0.929 . S
C981 C966 1.437 . S
C981 C982 1.317 . S
C982 H953 0.930 . S
C982 C958 1.431 . S
C982 C981 1.317 . S
C983 Gd924 2.828 . S
C983 O968 1.258 . S
C983 O973 1.252 . S
C983 C984 1.497 . S
C984 C983 1.497 . S
C984 C985 1.395 . S
C984 C986 1.380 . S
C985 C984 1.395 . S
C985 C988 1.398 . S
C985 H1000 0.930 . S
C986 C984 1.380 . S
C986 C987 1.391 . S
C986 H1001 0.930 . S
C987 C986 1.391 . S
C987 C989 1.387 . S
C988 C985 1.398 . S
C988 C989 1.380 . S
C988 H1002 0.930 . S
C989 C987 1.387 . S
C989 C988 1.380 . S
C989 H1003 0.930 . S
C990 O970 1.254 . S
C990 O971 1.268 . S
C991 O975 1.284 . S
C991 O978 1.250 . S
C992 Gd925 2.828 . S
C992 O974 1.258 . S
C992 O979 1.252 . S
C992 C993 1.497 . S
C993 C992 1.497 . S
C993 C994 1.395 . S
C993 C995 1.380 . S
C994 C993 1.395 . S
C994 C997 1.398 . S
C994 H1004 0.930 . S
C995 C993 1.380 . S
C995 C996 1.391 . S
C995 H1005 0.930 . S
C996 C995 1.391 . S
C996 C998 1.387 . S
C997 C994 1.398 . S
C997 C998 1.380 . S
C997 H1006 0.930 . S
C998 C996 1.387 . S
C998 C997 1.380 . S
C998 H1007 0.930 . S
C999 O976 1.254 . S
C999 O977 1.268 . S
H1000 C985 0.930 . S
H1001 C986 0.930 . S
H1002 C988 0.930 . S
H1003 C989 0.930 . S
H1004 C994 0.930 . S
H1005 C995 0.930 . S
H1006 C997 0.930 . S
H1007 C998 0.930 . S
Gd1008 N1039 2.661 1_554 S
Gd1008 N1045 2.601 1_554 S
Gd1008 O1052 2.545 . S
Gd1008 O1053 2.606 . S
Gd1008 O1055 2.429 . S
Gd1008 O1056 2.545 . S
Gd1008 O1057 2.412 . S
Gd1008 O1059 2.362 1_554 S
Gd1008 O1060 2.324 . S
Gd1008 C1067 2.828 . S
Gd1009 N1018 2.661 . S
Gd1009 N1022 2.601 . S
Gd1009 O1053 2.362 . S
Gd1009 O1054 2.324 . S
Gd1009 O1058 2.545 . S
Gd1009 O1059 2.606 1_554 S
Gd1009 O1061 2.429 . S
Gd1009 O1062 2.545 1_554 S
Gd1009 O1063 2.412 . S
Gd1009 C1076 2.828 . S
C1010 C1013 1.417 . S
C1010 C1015 1.431 . S
C1010 C1016 1.412 . S
C1011 C1014 1.437 . S
C1011 C1015 1.317 . S
C1011 H1030 0.929 . S
C1012 C1013 1.426 . S
C1012 C1014 1.413 . S
C1012 N1022 1.359 . S
C1013 C1010 1.417 . S
C1013 C1012 1.426 . S
C1013 N1018 1.350 . S
C1014 C1011 1.437 . S
C1014 C1012 1.413 . S
C1014 C1024 1.391 . S
C1015 C1010 1.431 . S
C1015 C1011 1.317 . S
C1015 H1026 0.930 . S
C1016 C1010 1.412 . S
C1016 C1017 1.355 . S
C1016 H1028 0.930 . S
C1017 C1016 1.355 . S
C1017 C1019 1.402 . S
C1017 H1029 0.930 . S
N1018 Gd1009 2.661 . S
N1018 C1013 1.350 . S
N1018 C1019 1.307 . S
C1019 C1017 1.402 . S
C1019 N1018 1.307 . S
C1019 H1020 0.930 . S
H1020 C1019 0.930 . S
C1021 N1022 1.334 . S
C1021 C1023 1.394 . S
C1021 H1025 0.930 . S
N1022 Gd1009 2.601 . S
N1022 C1012 1.359 . S
N1022 C1021 1.334 . S
C1023 C1021 1.394 . S
C1023 C1024 1.359 . S
C1023 H1035 0.930 . S
C1024 C1014 1.391 . S
C1024 C1023 1.359 . S
C1024 H1036 0.929 . S
H1025 C1021 0.930 . S
H1026 C1015 0.930 . S
H1027 C1044 0.930 . S
H1028 C1016 0.930 . S
H1029 C1017 0.930 . S
H1030 C1011 0.929 . S
H1031 C1049 0.930 . S
H1032 C1040 0.930 . S
H1033 C1041 0.930 . S
H1034 C1065 0.929 . S
H1035 C1023 0.930 . S
H1036 C1024 0.929 . S
H1037 C1066 0.930 . S
H1038 C1047 0.930 . S
N1039 Gd1008 2.661 1_556 S
N1039 C1043 1.350 . S
N1039 C1044 1.307 . S
C1040 H1032 0.930 . S
C1040 C1041 1.355 . S
C1040 C1042 1.412 . S
C1041 H1033 0.930 . S
C1041 C1040 1.355 . S
C1041 C1044 1.402 . S
C1042 C1040 1.412 . S
C1042 C1043 1.417 . S
C1042 C1066 1.431 . S
C1043 N1039 1.350 . S
C1043 C1042 1.417 . S
C1043 C1046 1.426 . S
C1044 H1027 0.930 . S
C1044 N1039 1.307 . S
C1044 C1041 1.402 . S
N1045 Gd1008 2.601 1_556 S
N1045 C1046 1.359 . S
N1045 C1049 1.334 . S
C1046 C1043 1.426 . S
C1046 N1045 1.359 . S
C1046 C1050 1.413 . S
C1047 H1038 0.930 . S
C1047 C1048 1.359 . S
C1047 C1049 1.394 . S
C1048 C1047 1.359 . S
C1048 C1050 1.391 . S
C1048 H1051 0.929 . S
C1049 H1031 0.930 . S
C1049 N1045 1.334 . S
C1049 C1047 1.394 . S
C1050 C1046 1.413 . S
C1050 C1048 1.391 . S
C1050 C1065 1.437 . S
H1051 C1048 0.929 . S
O1052 Gd1008 2.545 . S
O1052 C1067 1.258 . S
O1053 Gd1008 2.606 . S
O1053 Gd1009 2.362 . S
O1053 C1064 1.284 . S
O1054 Gd1009 2.324 . S
O1054 C1074 1.254 . S
O1055 Gd1008 2.429 . S
O1055 C1074 1.268 . S
O1056 Gd1008 2.545 . S
O1056 C1064 1.250 . S
O1057 Gd1008 2.412 . S
O1057 C1067 1.252 . S
O1058 Gd1009 2.545 . S
O1058 C1076 1.258 . S
O1059 Gd1008 2.362 1_556 S
O1059 Gd1009 2.606 1_556 S
O1059 C1075 1.284 . S
O1060 Gd1008 2.324 . S
O1060 C1083 1.254 . S
O1061 Gd1009 2.429 . S
O1061 C1083 1.268 . S
O1062 Gd1009 2.545 1_556 S
O1062 C1075 1.250 . S
O1063 Gd1009 2.412 . S
O1063 C1076 1.252 . S
C1064 O1053 1.284 . S
C1064 O1056 1.250 . S
C1065 H1034 0.929 . S
C1065 C1050 1.437 . S
C1065 C1066 1.317 . S
C1066 H1037 0.930 . S
C1066 C1042 1.431 . S
C1066 C1065 1.317 . S
C1067 Gd1008 2.828 . S
C1067 O1052 1.258 . S
C1067 O1057 1.252 . S
C1067 C1068 1.497 . S
C1068 C1067 1.497 . S
C1068 C1069 1.395 . S
C1068 C1070 1.380 . S
C1069 C1068 1.395 . S
C1069 C1072 1.398 . S
C1069 H1084 0.930 . S
C1070 C1068 1.380 . S
C1070 C1071 1.391 . S
C1070 H1085 0.930 . S
C1071 C1070 1.391 . S
C1071 C1073 1.387 . S
C1072 C1069 1.398 . S
C1072 C1073 1.380 . S
C1072 H1086 0.930 . S
C1073 C1071 1.387 . S
C1073 C1072 1.380 . S
C1073 H1087 0.930 . S
C1074 O1054 1.254 . S
C1074 O1055 1.268 . S
C1075 O1059 1.284 . S
C1075 O1062 1.250 . S
C1076 Gd1009 2.828 . S
C1076 O1058 1.258 . S
C1076 O1063 1.252 . S
C1076 C1077 1.497 . S
C1077 C1076 1.497 . S
C1077 C1078 1.395 . S
C1077 C1079 1.380 . S
C1078 C1077 1.395 . S
C1078 C1081 1.398 . S
C1078 H1088 0.930 . S
C1079 C1077 1.380 . S
C1079 C1080 1.391 . S
C1079 H1089 0.930 . S
C1080 C1079 1.391 . S
C1080 C1082 1.387 . S
C1081 C1078 1.398 . S
C1081 C1082 1.380 . S
C1081 H1090 0.930 . S
C1082 C1080 1.387 . S
C1082 C1081 1.380 . S
C1082 H1091 0.930 . S
C1083 O1060 1.254 . S
C1083 O1061 1.268 . S
H1084 C1069 0.930 . S
H1085 C1070 0.930 . S
H1086 C1072 0.930 . S
H1087 C1073 0.930 . S
H1088 C1078 0.930 . S
H1089 C1079 0.930 . S
H1090 C1081 0.930 . S
H1091 C1082 0.930 . S
Gd1092 N1123 2.661 . S
Gd1092 N1129 2.601 . S
Gd1092 O1136 2.545 . S
Gd1092 O1137 2.606 . S
Gd1092 O1139 2.429 . S
Gd1092 O1140 2.545 . S
Gd1092 O1141 2.412 . S
Gd1092 O1143 2.362 . S
Gd1092 O1144 2.324 . S
Gd1092 C1151 2.828 . S
Gd1093 N1102 2.661 . S
Gd1093 N1106 2.601 . S
Gd1093 O1137 2.362 . S
Gd1093 O1138 2.324 . S
Gd1093 O1142 2.545 . S
Gd1093 O1143 2.606 . S
Gd1093 O1145 2.429 . S
Gd1093 O1146 2.545 . S
Gd1093 O1147 2.412 . S
Gd1093 C1160 2.828 . S
C1094 C1097 1.417 . S
C1094 C1099 1.431 . S
C1094 C1100 1.412 . S
C1095 C1098 1.437 . S
C1095 C1099 1.317 . S
C1095 H1114 0.929 . S
C1096 C1097 1.426 . S
C1096 C1098 1.413 . S
C1096 N1106 1.359 . S
C1097 C1094 1.417 . S
C1097 C1096 1.426 . S
C1097 N1102 1.350 . S
C1098 C1095 1.437 . S
C1098 C1096 1.413 . S
C1098 C1108 1.391 . S
C1099 C1094 1.431 . S
C1099 C1095 1.317 . S
C1099 H1110 0.930 . S
C1100 C1094 1.412 . S
C1100 C1101 1.355 . S
C1100 H1112 0.930 . S
C1101 C1100 1.355 . S
C1101 C1103 1.402 . S
C1101 H1113 0.930 . S
N1102 Gd1093 2.661 . S
N1102 C1097 1.350 . S
N1102 C1103 1.307 . S
C1103 C1101 1.402 . S
C1103 N1102 1.307 . S
C1103 H1104 0.930 . S
H1104 C1103 0.930 . S
C1105 N1106 1.334 . S
C1105 C1107 1.394 . S
C1105 H1109 0.930 . S
N1106 Gd1093 2.601 . S
N1106 C1096 1.359 . S
N1106 C1105 1.334 . S
C1107 C1105 1.394 . S
C1107 C1108 1.359 . S
C1107 H1119 0.930 . S
C1108 C1098 1.391 . S
C1108 C1107 1.359 . S
C1108 H1120 0.929 . S
H1109 C1105 0.930 . S
H1110 C1099 0.930 . S
H1111 C1128 0.930 . S
H1112 C1100 0.930 . S
H1113 C1101 0.930 . S
H1114 C1095 0.929 . S
H1115 C1133 0.930 . S
H1116 C1124 0.930 . S
H1117 C1125 0.930 . S
H1118 C1149 0.929 . S
H1119 C1107 0.930 . S
H1120 C1108 0.929 . S
H1121 C1150 0.930 . S
H1122 C1131 0.930 . S
N1123 Gd1092 2.661 . S
N1123 C1127 1.350 . S
N1123 C1128 1.307 . S
C1124 H1116 0.930 . S
C1124 C1125 1.355 . S
C1124 C1126 1.412 . S
C1125 H1117 0.930 . S
C1125 C1124 1.355 . S
C1125 C1128 1.402 . S
C1126 C1124 1.412 . S
C1126 C1127 1.417 . S
C1126 C1150 1.431 . S
C1127 N1123 1.350 . S
C1127 C1126 1.417 . S
C1127 C1130 1.426 . S
C1128 H1111 0.930 . S
C1128 N1123 1.307 . S
C1128 C1125 1.402 . S
N1129 Gd1092 2.601 . S
N1129 C1130 1.359 . S
N1129 C1133 1.334 . S
C1130 C1127 1.426 . S
C1130 N1129 1.359 . S
C1130 C1134 1.413 . S
C1131 H1122 0.930 . S
C1131 C1132 1.359 . S
C1131 C1133 1.394 . S
C1132 C1131 1.359 . S
C1132 C1134 1.391 . S
C1132 H1135 0.929 . S
C1133 H1115 0.930 . S
C1133 N1129 1.334 . S
C1133 C1131 1.394 . S
C1134 C1130 1.413 . S
C1134 C1132 1.391 . S
C1134 C1149 1.437 . S
H1135 C1132 0.929 . S
O1136 Gd1092 2.545 . S
O1136 C1151 1.258 . S
O1137 Gd1092 2.606 . S
O1137 Gd1093 2.362 . S
O1137 C1148 1.284 . S
O1138 Gd1093 2.324 . S
O1138 C1158 1.254 . S
O1139 Gd1092 2.429 . S
O1139 C1158 1.268 . S
O1140 Gd1092 2.545 . S
O1140 C1148 1.250 . S
O1141 Gd1092 2.412 . S
O1141 C1151 1.252 . S
O1142 Gd1093 2.545 . S
O1142 C1160 1.258 . S
O1143 Gd1092 2.362 . S
O1143 Gd1093 2.606 . S
O1143 C1159 1.284 . S
O1144 Gd1092 2.324 . S
O1144 C1167 1.254 . S
O1145 Gd1093 2.429 . S
O1145 C1167 1.268 . S
O1146 Gd1093 2.545 . S
O1146 C1159 1.250 . S
O1147 Gd1093 2.412 . S
O1147 C1160 1.252 . S
C1148 O1137 1.284 . S
C1148 O1140 1.250 . S
C1149 H1118 0.929 . S
C1149 C1134 1.437 . S
C1149 C1150 1.317 . S
C1150 H1121 0.930 . S
C1150 C1126 1.431 . S
C1150 C1149 1.317 . S
C1151 Gd1092 2.828 . S
C1151 O1136 1.258 . S
C1151 O1141 1.252 . S
C1151 C1152 1.497 . S
C1152 C1151 1.497 . S
C1152 C1153 1.395 . S
C1152 C1154 1.380 . S
C1153 C1152 1.395 . S
C1153 C1156 1.398 . S
C1153 H1168 0.930 . S
C1154 C1152 1.380 . S
C1154 C1155 1.391 . S
C1154 H1169 0.930 . S
C1155 C1154 1.391 . S
C1155 C1157 1.387 . S
C1156 C1153 1.398 . S
C1156 C1157 1.380 . S
C1156 H1170 0.930 . S
C1157 C1155 1.387 . S
C1157 C1156 1.380 . S
C1157 H1171 0.930 . S
C1158 O1138 1.254 . S
C1158 O1139 1.268 . S
C1159 O1143 1.284 . S
C1159 O1146 1.250 . S
C1160 Gd1093 2.828 . S
C1160 O1142 1.258 . S
C1160 O1147 1.252 . S
C1160 C1161 1.497 . S
C1161 C1160 1.497 . S
C1161 C1162 1.395 . S
C1161 C1163 1.380 . S
C1162 C1161 1.395 . S
C1162 C1165 1.398 1_655 S
C1162 H1172 0.930 . S
C1163 C1161 1.380 . S
C1163 C1164 1.367 1_655 S
C1163 H1173 0.930 . S
C1164 C1163 1.367 1_455 S
C1164 C1166 1.403 . S
C1165 C1162 1.398 1_455 S
C1165 C1166 1.380 . S
C1165 H1174 0.930 . S
C1166 C1164 1.403 . S
C1166 C1165 1.380 . S
C1166 H1175 0.930 . S
C1167 O1144 1.254 . S
C1167 O1145 1.268 . S
H1168 C1153 0.930 . S
H1169 C1154 0.930 . S
H1170 C1156 0.930 . S
H1171 C1157 0.930 . S
H1172 C1162 0.930 . S
H1173 C1163 0.930 . S
H1174 C1165 0.930 . S
H1175 C1166 0.930 . S
Gd1176 N1207 2.661 . S
Gd1176 N1213 2.601 . S
Gd1176 O1220 2.545 . S
Gd1176 O1221 2.606 . S
Gd1176 O1223 2.429 . S
Gd1176 O1224 2.545 . S
Gd1176 O1225 2.412 . S
Gd1176 O1227 2.362 . S
Gd1176 O1228 2.324 . S
Gd1176 C1235 2.828 . S
Gd1177 N1186 2.661 . S
Gd1177 N1190 2.601 . S
Gd1177 O1221 2.362 . S
Gd1177 O1222 2.324 . S
Gd1177 O1226 2.545 . S
Gd1177 O1227 2.606 . S
Gd1177 O1229 2.429 . S
Gd1177 O1230 2.545 . S
Gd1177 O1231 2.412 . S
Gd1177 C1244 2.828 . S
C1178 C1181 1.417 . S
C1178 C1183 1.431 . S
C1178 C1184 1.412 . S
C1179 C1182 1.437 . S
C1179 C1183 1.317 . S
C1179 H1198 0.929 . S
C1180 C1181 1.426 . S
C1180 C1182 1.413 . S
C1180 N1190 1.359 . S
C1181 C1178 1.417 . S
C1181 C1180 1.426 . S
C1181 N1186 1.350 . S
C1182 C1179 1.437 . S
C1182 C1180 1.413 . S
C1182 C1192 1.391 . S
C1183 C1178 1.431 . S
C1183 C1179 1.317 . S
C1183 H1194 0.930 . S
C1184 C1178 1.412 . S
C1184 C1185 1.355 . S
C1184 H1196 0.930 . S
C1185 C1184 1.355 . S
C1185 C1187 1.402 . S
C1185 H1197 0.930 . S
N1186 Gd1177 2.661 . S
N1186 C1181 1.350 . S
N1186 C1187 1.307 . S
C1187 C1185 1.402 . S
C1187 N1186 1.307 . S
C1187 H1188 0.930 . S
H1188 C1187 0.930 . S
C1189 N1190 1.334 . S
C1189 C1191 1.394 . S
C1189 H1193 0.930 . S
N1190 Gd1177 2.601 . S
N1190 C1180 1.359 . S
N1190 C1189 1.334 . S
C1191 C1189 1.394 . S
C1191 C1192 1.359 . S
C1191 H1203 0.930 . S
C1192 C1182 1.391 . S
C1192 C1191 1.359 . S
C1192 H1204 0.929 . S
H1193 C1189 0.930 . S
H1194 C1183 0.930 . S
H1195 C1212 0.930 . S
H1196 C1184 0.930 . S
H1197 C1185 0.930 . S
H1198 C1179 0.929 . S
H1199 C1217 0.930 . S
H1200 C1208 0.930 . S
H1201 C1209 0.930 . S
H1202 C1233 0.929 . S
H1203 C1191 0.930 . S
H1204 C1192 0.929 . S
H1205 C1234 0.930 . S
H1206 C1215 0.930 . S
N1207 Gd1176 2.661 . S
N1207 C1211 1.350 . S
N1207 C1212 1.307 . S
C1208 H1200 0.930 . S
C1208 C1209 1.355 . S
C1208 C1210 1.412 . S
C1209 H1201 0.930 . S
C1209 C1208 1.355 . S
C1209 C1212 1.402 1_655 S
C1210 C1208 1.412 . S
C1210 C1211 1.417 1_655 S
C1210 C1234 1.431 . S
C1211 N1207 1.350 . S
C1211 C1210 1.417 1_455 S
C1211 C1214 1.426 . S
C1212 H1195 0.930 . S
C1212 N1207 1.307 . S
C1212 C1209 1.402 1_455 S
N1213 Gd1176 2.601 . S
N1213 C1214 1.359 . S
N1213 C1217 1.334 . S
C1214 C1211 1.426 . S
C1214 N1213 1.359 . S
C1214 C1218 1.413 1_455 S
C1215 H1206 0.930 . S
C1215 C1216 1.359 1_455 S
C1215 C1217 1.394 . S
C1216 C1215 1.359 1_655 S
C1216 C1218 1.391 . S
C1216 H1219 0.929 . S
C1217 H1199 0.930 . S
C1217 N1213 1.334 . S
C1217 C1215 1.394 . S
C1218 C1214 1.413 1_655 S
C1218 C1216 1.391 . S
C1218 C1233 1.437 . S
H1219 C1216 0.929 . S
O1220 Gd1176 2.545 . S
O1220 C1235 1.258 . S
O1221 Gd1176 2.606 . S
O1221 Gd1177 2.362 . S
O1221 C1232 1.284 . S
O1222 Gd1177 2.324 . S
O1222 C1242 1.254 . S
O1223 Gd1176 2.429 . S
O1223 C1242 1.268 . S
O1224 Gd1176 2.545 . S
O1224 C1232 1.250 . S
O1225 Gd1176 2.412 . S
O1225 C1235 1.252 . S
O1226 Gd1177 2.545 . S
O1226 C1244 1.258 . S
O1227 Gd1176 2.362 . S
O1227 Gd1177 2.606 . S
O1227 C1243 1.284 . S
O1228 Gd1176 2.324 . S
O1228 C1251 1.254 . S
O1229 Gd1177 2.429 . S
O1229 C1251 1.268 . S
O1230 Gd1177 2.545 . S
O1230 C1243 1.250 . S
O1231 Gd1177 2.412 . S
O1231 C1244 1.252 . S
C1232 O1221 1.284 . S
C1232 O1224 1.250 . S
C1233 H1202 0.929 . S
C1233 C1218 1.437 . S
C1233 C1234 1.317 . S
C1234 H1205 0.930 . S
C1234 C1210 1.431 . S
C1234 C1233 1.317 . S
C1235 Gd1176 2.828 . S
C1235 O1220 1.258 . S
C1235 O1225 1.252 . S
C1235 C1236 1.497 . S
C1236 C1235 1.497 . S
C1236 C1237 1.395 . S
C1236 C1238 1.380 . S
C1237 C1236 1.395 . S
C1237 C1240 1.398 . S
C1237 H1252 0.930 . S
C1238 C1236 1.380 . S
C1238 C1239 1.391 . S
C1238 H1253 0.930 . S
C1239 C1238 1.391 . S
C1239 C1241 1.387 . S
C1240 C1237 1.398 . S
C1240 C1241 1.380 . S
C1240 H1254 0.930 . S
C1241 C1239 1.387 . S
C1241 C1240 1.380 . S
C1241 H1255 0.930 . S
C1242 O1222 1.254 . S
C1242 O1223 1.268 . S
C1243 O1227 1.284 . S
C1243 O1230 1.250 . S
C1244 Gd1177 2.828 . S
C1244 O1226 1.258 . S
C1244 O1231 1.252 . S
C1244 C1245 1.497 . S
C1245 C1244 1.497 . S
C1245 C1246 1.395 . S
C1245 C1247 1.380 . S
C1246 C1245 1.395 . S
C1246 C1249 1.398 . S
C1246 H1256 0.930 . S
C1247 C1245 1.380 . S
C1247 C1248 1.391 . S
C1247 H1257 0.930 . S
C1248 C1247 1.391 . S
C1248 C1250 1.387 . S
C1249 C1246 1.398 . S
C1249 C1250 1.380 . S
C1249 H1258 0.930 . S
C1250 C1248 1.387 . S
C1250 C1249 1.380 . S
C1250 H1259 0.930 . S
C1251 O1228 1.254 . S
C1251 O1229 1.268 . S
H1252 C1237 0.930 . S
H1253 C1238 0.930 . S
H1254 C1240 0.930 . S
H1255 C1241 0.930 . S
H1256 C1246 0.930 . S
H1257 C1247 0.930 . S
H1258 C1249 0.930 . S
H1259 C1250 0.930 . S
Gd1260 N1291 2.661 . S
Gd1260 N1297 2.601 . S
Gd1260 O1304 2.545 . S
Gd1260 O1305 2.606 . S
Gd1260 O1307 2.429 . S
Gd1260 O1308 2.545 . S
Gd1260 O1309 2.412 . S
Gd1260 O1311 2.362 . S
Gd1260 O1312 2.324 . S
Gd1260 C1319 2.828 . S
Gd1261 N1270 2.661 . S
Gd1261 N1274 2.601 . S
Gd1261 O1305 2.362 . S
Gd1261 O1306 2.324 . S
Gd1261 O1310 2.545 . S
Gd1261 O1311 2.606 . S
Gd1261 O1313 2.429 . S
Gd1261 O1314 2.545 . S
Gd1261 O1315 2.412 . S
Gd1261 C1328 2.828 . S
C1262 C1265 1.417 . S
C1262 C1267 1.431 . S
C1262 C1268 1.412 . S
C1263 C1266 1.437 . S
C1263 C1267 1.317 . S
C1263 H1282 0.929 . S
C1264 C1265 1.426 . S
C1264 C1266 1.413 . S
C1264 N1274 1.359 . S
C1265 C1262 1.417 . S
C1265 C1264 1.426 . S
C1265 N1270 1.350 . S
C1266 C1263 1.437 . S
C1266 C1264 1.413 . S
C1266 C1276 1.391 . S
C1267 C1262 1.431 . S
C1267 C1263 1.317 . S
C1267 H1278 0.930 . S
C1268 C1262 1.412 . S
C1268 C1269 1.355 . S
C1268 H1280 0.930 . S
C1269 C1268 1.355 . S
C1269 C1271 1.402 . S
C1269 H1281 0.930 . S
N1270 Gd1261 2.661 . S
N1270 C1265 1.350 . S
N1270 C1271 1.307 . S
C1271 C1269 1.402 . S
C1271 N1270 1.307 . S
C1271 H1272 0.930 . S
H1272 C1271 0.930 . S
C1273 N1274 1.334 . S
C1273 C1275 1.394 . S
C1273 H1277 0.930 . S
N1274 Gd1261 2.601 . S
N1274 C1264 1.359 . S
N1274 C1273 1.334 . S
C1275 C1273 1.394 . S
C1275 C1276 1.359 . S
C1275 H1287 0.930 . S
C1276 C1266 1.391 . S
C1276 C1275 1.359 . S
C1276 H1288 0.929 . S
H1277 C1273 0.930 . S
H1278 C1267 0.930 . S
H1279 C1296 0.930 . S
H1280 C1268 0.930 . S
H1281 C1269 0.930 . S
H1282 C1263 0.929 . S
H1283 C1301 0.930 . S
H1284 C1292 0.930 . S
H1285 C1293 0.930 . S
H1286 C1317 0.929 . S
H1287 C1275 0.930 . S
H1288 C1276 0.929 . S
H1289 C1318 0.930 . S
H1290 C1299 0.930 . S
N1291 Gd1260 2.661 . S
N1291 C1295 1.350 . S
N1291 C1296 1.307 . S
C1292 H1284 0.930 . S
C1292 C1293 1.355 . S
C1292 C1294 1.412 . S
C1293 H1285 0.930 . S
C1293 C1292 1.355 . S
C1293 C1296 1.402 . S
C1294 C1292 1.412 . S
C1294 C1295 1.417 . S
C1294 C1318 1.431 . S
C1295 N1291 1.350 . S
C1295 C1294 1.417 . S
C1295 C1298 1.426 . S
C1296 H1279 0.930 . S
C1296 N1291 1.307 . S
C1296 C1293 1.402 . S
N1297 Gd1260 2.601 . S
N1297 C1298 1.359 . S
N1297 C1301 1.334 . S
C1298 C1295 1.426 . S
C1298 N1297 1.359 . S
C1298 C1302 1.413 . S
C1299 H1290 0.930 . S
C1299 C1300 1.359 . S
C1299 C1301 1.394 . S
C1300 C1299 1.359 . S
C1300 C1302 1.391 . S
C1300 H1303 0.929 . S
C1301 H1283 0.930 . S
C1301 N1297 1.334 . S
C1301 C1299 1.394 . S
C1302 C1298 1.413 . S
C1302 C1300 1.391 . S
C1302 C1317 1.437 . S
H1303 C1300 0.929 . S
O1304 Gd1260 2.545 . S
O1304 C1319 1.258 . S
O1305 Gd1260 2.606 . S
O1305 Gd1261 2.362 . S
O1305 C1316 1.284 . S
O1306 Gd1261 2.324 . S
O1306 C1326 1.254 . S
O1307 Gd1260 2.429 . S
O1307 C1326 1.268 . S
O1308 Gd1260 2.545 . S
O1308 C1316 1.250 . S
O1309 Gd1260 2.412 . S
O1309 C1319 1.252 . S
O1310 Gd1261 2.545 . S
O1310 C1328 1.258 . S
O1311 Gd1260 2.362 . S
O1311 Gd1261 2.606 . S
O1311 C1327 1.284 . S
O1312 Gd1260 2.324 . S
O1312 C1335 1.254 . S
O1313 Gd1261 2.429 . S
O1313 C1335 1.268 . S
O1314 Gd1261 2.545 . S
O1314 C1327 1.250 . S
O1315 Gd1261 2.412 . S
O1315 C1328 1.252 . S
C1316 O1305 1.284 . S
C1316 O1308 1.250 . S
C1317 H1286 0.929 . S
C1317 C1302 1.437 . S
C1317 C1318 1.317 . S
C1318 H1289 0.930 . S
C1318 C1294 1.431 . S
C1318 C1317 1.317 . S
C1319 Gd1260 2.828 . S
C1319 O1304 1.258 . S
C1319 O1309 1.252 . S
C1319 C1320 1.497 . S
C1320 C1319 1.497 . S
C1320 C1321 1.395 . S
C1320 C1322 1.380 . S
C1321 C1320 1.395 . S
C1321 C1324 1.398 . S
C1321 H1336 0.930 . S
C1322 C1320 1.380 . S
C1322 C1323 1.391 . S
C1322 H1337 0.930 . S
C1323 C1322 1.391 . S
C1323 C1325 1.387 . S
C1324 C1321 1.398 . S
C1324 C1325 1.380 . S
C1324 H1338 0.930 . S
C1325 C1323 1.387 . S
C1325 C1324 1.380 . S
C1325 H1339 0.968 . S
C1326 O1306 1.254 . S
C1326 O1307 1.268 . S
C1327 O1311 1.284 . S
C1327 O1314 1.250 . S
C1328 Gd1261 2.828 . S
C1328 O1310 1.258 . S
C1328 O1315 1.252 . S
C1328 C1329 1.497 . S
C1329 C1328 1.497 . S
C1329 C1330 1.395 . S
C1329 C1331 1.380 . S
C1330 C1329 1.395 . S
C1330 C1333 1.398 . S
C1330 H1340 0.930 . S
C1331 C1329 1.380 . S
C1331 C1332 1.391 . S
C1331 H1341 0.930 . S
C1332 C1331 1.391 . S
C1332 C1334 1.387 . S
C1333 C1330 1.398 . S
C1333 C1334 1.380 . S
C1333 H1342 0.930 . S
C1334 C1332 1.387 . S
C1334 C1333 1.380 . S
C1334 H1343 0.930 . S
C1335 O1312 1.254 . S
C1335 O1313 1.268 . S
H1336 C1321 0.930 . S
H1337 C1322 0.930 . S
H1338 C1324 0.930 . S
H1339 C1325 0.968 . S
H1340 C1330 0.930 . S
H1341 C1331 0.930 . S
H1342 C1333 0.930 . S
H1343 C1334 0.930 . S
Gd1344 N1375 2.661 . S
Gd1344 N1381 2.601 . S
Gd1344 O1388 2.545 . S
Gd1344 O1389 2.606 . S
Gd1344 O1391 2.429 . S
Gd1344 O1392 2.545 . S
Gd1344 O1393 2.412 . S
Gd1344 O1395 2.362 . S
Gd1344 O1396 2.324 . S
Gd1344 C1403 2.828 . S
Gd1345 N1354 2.661 . S
Gd1345 N1358 2.601 . S
Gd1345 O1389 2.362 . S
Gd1345 O1390 2.324 . S
Gd1345 O1394 2.545 . S
Gd1345 O1395 2.606 . S
Gd1345 O1397 2.429 . S
Gd1345 O1398 2.545 . S
Gd1345 O1399 2.412 . S
Gd1345 C1412 2.828 . S
C1346 C1349 1.417 . S
C1346 C1351 1.431 . S
C1346 C1352 1.412 . S
C1347 C1350 1.437 . S
C1347 C1351 1.317 . S
C1347 H1366 0.929 . S
C1348 C1349 1.426 . S
C1348 C1350 1.413 . S
C1348 N1358 1.359 . S
C1349 C1346 1.417 . S
C1349 C1348 1.426 . S
C1349 N1354 1.350 . S
C1350 C1347 1.437 . S
C1350 C1348 1.413 . S
C1350 C1360 1.391 . S
C1351 C1346 1.431 . S
C1351 C1347 1.317 . S
C1351 H1362 0.930 . S
C1352 C1346 1.412 . S
C1352 C1353 1.355 . S
C1352 H1364 0.930 . S
C1353 C1352 1.355 . S
C1353 C1355 1.402 . S
C1353 H1365 0.930 . S
N1354 Gd1345 2.661 . S
N1354 C1349 1.350 . S
N1354 C1355 1.307 . S
C1355 C1353 1.402 . S
C1355 N1354 1.307 . S
C1355 H1356 0.930 . S
H1356 C1355 0.930 . S
C1357 N1358 1.334 . S
C1357 C1359 1.394 . S
C1357 H1361 0.930 . S
N1358 Gd1345 2.601 . S
N1358 C1348 1.359 . S
N1358 C1357 1.334 . S
C1359 C1357 1.394 . S
C1359 C1360 1.359 . S
C1359 H1371 0.930 . S
C1360 C1350 1.391 . S
C1360 C1359 1.359 . S
C1360 H1372 0.929 . S
H1361 C1357 0.930 . S
H1362 C1351 0.930 . S
H1363 C1380 0.930 . S
H1364 C1352 0.930 . S
H1365 C1353 0.930 . S
H1366 C1347 0.929 . S
H1367 C1385 0.930 . S
H1368 C1376 0.930 . S
H1369 C1377 0.930 . S
H1370 C1401 0.929 . S
H1371 C1359 0.930 . S
H1372 C1360 0.929 . S
H1373 C1402 0.930 . S
H1374 C1383 0.930 . S
N1375 Gd1344 2.661 . S
N1375 C1379 1.350 . S
N1375 C1380 1.307 . S
C1376 H1368 0.930 . S
C1376 C1377 1.355 . S
C1376 C1378 1.412 . S
C1377 H1369 0.930 . S
C1377 C1376 1.355 . S
C1377 C1380 1.402 . S
C1378 C1376 1.412 . S
C1378 C1379 1.417 . S
C1378 C1402 1.431 . S
C1379 N1375 1.350 . S
C1379 C1378 1.417 . S
C1379 C1382 1.426 . S
C1380 H1363 0.930 . S
C1380 N1375 1.307 . S
C1380 C1377 1.402 . S
N1381 Gd1344 2.601 . S
N1381 C1382 1.359 . S
N1381 C1385 1.334 . S
C1382 C1379 1.426 . S
C1382 N1381 1.359 . S
C1382 C1386 1.413 . S
C1383 H1374 0.930 . S
C1383 C1384 1.359 . S
C1383 C1385 1.394 . S
C1384 C1383 1.359 . S
C1384 C1386 1.391 . S
C1384 H1387 0.929 . S
C1385 H1367 0.930 . S
C1385 N1381 1.334 . S
C1385 C1383 1.394 . S
C1386 C1382 1.413 . S
C1386 C1384 1.391 . S
C1386 C1401 1.437 . S
H1387 C1384 0.929 . S
O1388 Gd1344 2.545 . S
O1388 C1403 1.258 . S
O1389 Gd1344 2.606 . S
O1389 Gd1345 2.362 . S
O1389 C1400 1.284 . S
O1390 Gd1345 2.324 . S
O1390 C1410 1.254 . S
O1391 Gd1344 2.429 . S
O1391 C1410 1.268 . S
O1392 Gd1344 2.545 . S
O1392 C1400 1.250 . S
O1393 Gd1344 2.412 . S
O1393 C1403 1.252 . S
O1394 Gd1345 2.545 . S
O1394 C1412 1.258 . S
O1395 Gd1344 2.362 . S
O1395 Gd1345 2.606 . S
O1395 C1411 1.284 . S
O1396 Gd1344 2.324 . S
O1396 C1419 1.254 . S
O1397 Gd1345 2.429 . S
O1397 C1419 1.268 . S
O1398 Gd1345 2.545 . S
O1398 C1411 1.250 . S
O1399 Gd1345 2.412 . S
O1399 C1412 1.252 . S
C1400 O1389 1.284 . S
C1400 O1392 1.250 . S
C1401 H1370 0.929 . S
C1401 C1386 1.437 . S
C1401 C1402 1.317 . S
C1402 H1373 0.930 . S
C1402 C1378 1.431 . S
C1402 C1401 1.317 . S
C1403 Gd1344 2.828 . S
C1403 O1388 1.258 . S
C1403 O1393 1.252 . S
C1403 C1404 1.497 . S
C1404 C1403 1.497 . S
C1404 C1405 1.395 . S
C1404 C1406 1.380 . S
C1405 C1404 1.395 . S
C1405 C1408 1.398 . S
C1405 H1420 0.930 . S
C1406 C1404 1.380 . S
C1406 C1407 1.391 . S
C1406 H1421 0.930 . S
C1407 C1406 1.391 . S
C1407 C1409 1.387 . S
C1408 C1405 1.398 . S
C1408 C1409 1.380 . S
C1408 H1422 0.930 . S
C1409 C1407 1.387 . S
C1409 C1408 1.380 . S
C1409 H1423 0.930 . S
C1410 O1390 1.254 . S
C1410 O1391 1.268 . S
C1411 O1395 1.284 . S
C1411 O1398 1.250 . S
C1412 Gd1345 2.828 . S
C1412 O1394 1.258 . S
C1412 O1399 1.252 . S
C1412 C1413 1.497 . S
C1413 C1412 1.497 . S
C1413 C1414 1.395 . S
C1413 C1415 1.380 . S
C1414 C1413 1.395 . S
C1414 C1417 1.398 . S
C1414 H1424 0.930 . S
C1415 C1413 1.380 . S
C1415 C1416 1.391 . S
C1415 H1425 0.930 . S
C1416 C1415 1.391 . S
C1416 C1418 1.387 . S
C1417 C1414 1.398 . S
C1417 C1418 1.380 . S
C1417 H1426 0.930 . S
C1418 C1416 1.387 . S
C1418 C1417 1.380 . S
C1418 H1427 0.930 . S
C1419 O1396 1.254 . S
C1419 O1397 1.268 . S
H1420 C1405 0.930 . S
H1421 C1406 0.930 . S
H1422 C1408 0.930 . S
H1423 C1409 0.930 . S
H1424 C1414 0.930 . S
H1425 C1415 0.930 . S
H1426 C1417 0.930 . S
H1427 C1418 0.930 . S
Gd1428 N1459 2.661 . S
Gd1428 N1465 2.601 . S
Gd1428 O1472 2.545 . S
Gd1428 O1473 2.606 . S
Gd1428 O1475 2.429 . S
Gd1428 O1476 2.545 . S
Gd1428 O1477 2.412 . S
Gd1428 O1479 2.362 . S
Gd1428 O1480 2.324 . S
Gd1428 C1487 2.828 . S
Gd1429 N1438 2.661 . S
Gd1429 N1442 2.601 . S
Gd1429 O1473 2.362 . S
Gd1429 O1474 2.324 . S
Gd1429 O1478 2.545 . S
Gd1429 O1479 2.606 . S
Gd1429 O1481 2.429 . S
Gd1429 O1482 2.545 . S
Gd1429 O1483 2.412 . S
Gd1429 C1496 2.828 . S
C1430 C1433 1.417 . S
C1430 C1435 1.431 . S
C1430 C1436 1.412 . S
C1431 C1434 1.437 . S
C1431 C1435 1.317 . S
C1431 H1450 0.929 . S
C1432 C1433 1.426 . S
C1432 C1434 1.413 . S
C1432 N1442 1.359 . S
C1433 C1430 1.417 . S
C1433 C1432 1.426 . S
C1433 N1438 1.350 . S
C1434 C1431 1.437 . S
C1434 C1432 1.413 . S
C1434 C1444 1.391 . S
C1435 C1430 1.431 . S
C1435 C1431 1.317 . S
C1435 H1446 0.930 . S
C1436 C1430 1.412 . S
C1436 C1437 1.355 . S
C1436 H1448 0.930 . S
C1437 C1436 1.355 . S
C1437 C1439 1.402 . S
C1437 H1449 0.930 . S
N1438 Gd1429 2.661 . S
N1438 C1433 1.350 . S
N1438 C1439 1.307 . S
C1439 C1437 1.402 . S
C1439 N1438 1.307 . S
C1439 H1440 0.930 . S
H1440 C1439 0.930 . S
C1441 N1442 1.334 . S
C1441 C1443 1.394 . S
C1441 H1445 0.930 . S
N1442 Gd1429 2.601 . S
N1442 C1432 1.359 . S
N1442 C1441 1.334 . S
C1443 C1441 1.394 . S
C1443 C1444 1.359 . S
C1443 H1455 0.930 . S
C1444 C1434 1.391 . S
C1444 C1443 1.359 . S
C1444 H1456 0.929 . S
H1445 C1441 0.930 . S
H1446 C1435 0.930 . S
H1447 C1464 0.930 . S
H1448 C1436 0.930 . S
H1449 C1437 0.930 . S
H1450 C1431 0.929 . S
H1451 C1469 0.930 . S
H1452 C1460 0.930 . S
H1453 C1461 0.930 . S
H1454 C1485 0.929 . S
H1455 C1443 0.930 . S
H1456 C1444 0.929 . S
H1457 C1486 0.930 . S
H1458 C1467 0.930 . S
N1459 Gd1428 2.661 . S
N1459 C1463 1.350 . S
N1459 C1464 1.307 . S
C1460 H1452 0.930 . S
C1460 C1461 1.355 . S
C1460 C1462 1.412 . S
C1461 H1453 0.930 . S
C1461 C1460 1.355 . S
C1461 C1464 1.402 . S
C1462 C1460 1.412 . S
C1462 C1463 1.417 . S
C1462 C1486 1.431 . S
C1463 N1459 1.350 . S
C1463 C1462 1.417 . S
C1463 C1466 1.426 . S
C1464 H1447 0.930 . S
C1464 N1459 1.307 . S
C1464 C1461 1.402 . S
N1465 Gd1428 2.601 . S
N1465 C1466 1.359 . S
N1465 C1469 1.334 . S
C1466 C1463 1.426 . S
C1466 N1465 1.359 . S
C1466 C1470 1.413 . S
C1467 H1458 0.930 . S
C1467 C1468 1.359 . S
C1467 C1469 1.394 . S
C1468 C1467 1.359 . S
C1468 C1470 1.391 . S
C1468 H1471 0.929 . S
C1469 H1451 0.930 . S
C1469 N1465 1.334 . S
C1469 C1467 1.394 . S
C1470 C1466 1.413 . S
C1470 C1468 1.391 . S
C1470 C1485 1.437 . S
H1471 C1468 0.929 . S
O1472 Gd1428 2.545 . S
O1472 C1487 1.258 . S
O1473 Gd1428 2.606 . S
O1473 Gd1429 2.362 . S
O1473 C1484 1.284 . S
O1474 Gd1429 2.324 . S
O1474 C1494 1.254 . S
O1475 Gd1428 2.429 . S
O1475 C1494 1.268 . S
O1476 Gd1428 2.545 . S
O1476 C1484 1.250 . S
O1477 Gd1428 2.412 . S
O1477 C1487 1.252 . S
O1478 Gd1429 2.545 . S
O1478 C1496 1.258 . S
O1479 Gd1428 2.362 . S
O1479 Gd1429 2.606 . S
O1479 C1495 1.284 . S
O1480 Gd1428 2.324 . S
O1480 C1503 1.254 . S
O1481 Gd1429 2.429 . S
O1481 C1503 1.268 . S
O1482 Gd1429 2.545 . S
O1482 C1495 1.250 . S
O1483 Gd1429 2.412 . S
O1483 C1496 1.252 . S
C1484 O1473 1.284 . S
C1484 O1476 1.250 . S
C1485 H1454 0.929 . S
C1485 C1470 1.437 . S
C1485 C1486 1.317 . S
C1486 H1457 0.930 . S
C1486 C1462 1.431 . S
C1486 C1485 1.317 . S
C1487 Gd1428 2.828 . S
C1487 O1472 1.258 . S
C1487 O1477 1.252 . S
C1487 C1488 1.497 . S
C1488 C1487 1.497 . S
C1488 C1489 1.395 . S
C1488 C1490 1.380 . S
C1489 C1488 1.395 . S
C1489 C1492 1.398 . S
C1489 H1504 0.930 . S
C1490 C1488 1.380 . S
C1490 C1491 1.391 . S
C1490 H1505 0.930 . S
C1491 C1490 1.391 . S
C1491 C1493 1.387 . S
C1492 C1489 1.398 . S
C1492 C1493 1.380 . S
C1492 H1506 0.930 . S
C1493 C1491 1.387 . S
C1493 C1492 1.380 . S
C1493 H1507 0.930 . S
C1494 O1474 1.254 . S
C1494 O1475 1.268 . S
C1495 O1479 1.284 . S
C1495 O1482 1.250 . S
C1496 Gd1429 2.828 . S
C1496 O1478 1.258 . S
C1496 O1483 1.252 . S
C1496 C1497 1.497 . S
C1497 C1496 1.497 . S
C1497 C1498 1.395 . S
C1497 C1499 1.380 . S
C1498 C1497 1.395 . S
C1498 C1501 1.398 . S
C1498 H1508 0.930 . S
C1499 C1497 1.380 . S
C1499 C1500 1.391 . S
C1499 H1509 0.930 . S
C1500 C1499 1.391 . S
C1500 C1502 1.387 . S
C1501 C1498 1.398 . S
C1501 C1502 1.380 . S
C1501 H1510 0.930 . S
C1502 C1500 1.387 . S
C1502 C1501 1.380 . S
C1502 H1511 0.930 1_565 S
C1503 O1480 1.254 . S
C1503 O1481 1.268 . S
H1504 C1489 0.930 . S
H1505 C1490 0.930 . S
H1506 C1492 0.930 . S
H1507 C1493 0.930 . S
H1508 C1498 0.930 . S
H1509 C1499 0.930 . S
H1510 C1501 0.930 . S
H1511 C1502 0.930 1_545 S
Gd1512 N1543 2.661 . S
Gd1512 N1549 2.601 . S
Gd1512 O1556 2.545 . S
Gd1512 O1557 2.606 . S
Gd1512 O1559 2.429 . S
Gd1512 O1560 2.545 . S
Gd1512 O1561 2.412 . S
Gd1512 O1563 2.362 . S
Gd1512 O1564 2.324 . S
Gd1512 C1571 2.828 . S
Gd1513 N1522 2.661 . S
Gd1513 N1526 2.601 . S
Gd1513 O1557 2.362 . S
Gd1513 O1558 2.324 . S
Gd1513 O1562 2.545 . S
Gd1513 O1563 2.606 . S
Gd1513 O1565 2.429 . S
Gd1513 O1566 2.545 . S
Gd1513 O1567 2.412 . S
Gd1513 C1580 2.828 . S
C1514 C1517 1.417 . S
C1514 C1519 1.431 . S
C1514 C1520 1.412 . S
C1515 C1518 1.437 . S
C1515 C1519 1.317 . S
C1515 H1534 0.929 . S
C1516 C1517 1.426 . S
C1516 C1518 1.413 . S
C1516 N1526 1.359 . S
C1517 C1514 1.417 . S
C1517 C1516 1.426 . S
C1517 N1522 1.350 . S
C1518 C1515 1.437 . S
C1518 C1516 1.413 . S
C1518 C1528 1.391 . S
C1519 C1514 1.431 . S
C1519 C1515 1.317 . S
C1519 H1530 0.930 . S
C1520 C1514 1.412 . S
C1520 C1521 1.355 . S
C1520 H1532 0.930 . S
C1521 C1520 1.355 . S
C1521 C1523 1.402 . S
C1521 H1533 0.930 . S
N1522 Gd1513 2.661 . S
N1522 C1517 1.350 . S
N1522 C1523 1.307 . S
C1523 C1521 1.402 . S
C1523 N1522 1.307 . S
C1523 H1524 0.930 . S
H1524 C1523 0.930 . S
C1525 N1526 1.334 . S
C1525 C1527 1.394 . S
C1525 H1529 0.930 . S
N1526 Gd1513 2.601 . S
N1526 C1516 1.359 . S
N1526 C1525 1.334 . S
C1527 C1525 1.394 . S
C1527 C1528 1.359 . S
C1527 H1539 0.930 . S
C1528 C1518 1.391 . S
C1528 C1527 1.359 . S
C1528 H1540 0.929 . S
H1529 C1525 0.930 . S
H1530 C1519 0.930 . S
H1531 C1548 0.930 . S
H1532 C1520 0.930 . S
H1533 C1521 0.930 . S
H1534 C1515 0.929 . S
H1535 C1553 0.930 . S
H1536 C1544 0.930 . S
H1537 C1545 0.930 . S
H1538 C1569 0.929 . S
H1539 C1527 0.930 . S
H1540 C1528 0.929 . S
H1541 C1570 0.930 . S
H1542 C1551 0.930 . S
N1543 Gd1512 2.661 . S
N1543 C1547 1.350 . S
N1543 C1548 1.307 . S
C1544 H1536 0.930 . S
C1544 C1545 1.355 . S
C1544 C1546 1.412 . S
C1545 H1537 0.930 . S
C1545 C1544 1.355 . S
C1545 C1548 1.402 . S
C1546 C1544 1.412 . S
C1546 C1547 1.417 . S
C1546 C1570 1.431 . S
C1547 N1543 1.350 . S
C1547 C1546 1.417 . S
C1547 C1550 1.426 . S
C1548 H1531 0.930 . S
C1548 N1543 1.307 . S
C1548 C1545 1.402 . S
N1549 Gd1512 2.601 . S
N1549 C1550 1.359 . S
N1549 C1553 1.334 . S
C1550 C1547 1.426 . S
C1550 N1549 1.359 . S
C1550 C1554 1.413 . S
C1551 H1542 0.930 . S
C1551 C1552 1.359 . S
C1551 C1553 1.394 . S
C1552 C1551 1.359 . S
C1552 C1554 1.391 . S
C1552 H1555 0.929 . S
C1553 H1535 0.930 . S
C1553 N1549 1.334 . S
C1553 C1551 1.394 . S
C1554 C1550 1.413 . S
C1554 C1552 1.391 . S
C1554 C1569 1.437 . S
H1555 C1552 0.929 . S
O1556 Gd1512 2.545 . S
O1556 C1571 1.258 . S
O1557 Gd1512 2.606 . S
O1557 Gd1513 2.362 . S
O1557 C1568 1.284 . S
O1558 Gd1513 2.324 . S
O1558 C1578 1.254 . S
O1559 Gd1512 2.429 . S
O1559 C1578 1.268 . S
O1560 Gd1512 2.545 . S
O1560 C1568 1.250 . S
O1561 Gd1512 2.412 . S
O1561 C1571 1.252 . S
O1562 Gd1513 2.545 . S
O1562 C1580 1.258 . S
O1563 Gd1512 2.362 . S
O1563 Gd1513 2.606 . S
O1563 C1579 1.284 . S
O1564 Gd1512 2.324 . S
O1564 C1587 1.254 . S
O1565 Gd1513 2.429 . S
O1565 C1587 1.268 . S
O1566 Gd1513 2.545 . S
O1566 C1579 1.250 . S
O1567 Gd1513 2.412 . S
O1567 C1580 1.252 . S
C1568 O1557 1.284 . S
C1568 O1560 1.250 . S
C1569 H1538 0.929 . S
C1569 C1554 1.437 . S
C1569 C1570 1.317 . S
C1570 H1541 0.930 . S
C1570 C1546 1.431 . S
C1570 C1569 1.317 . S
C1571 Gd1512 2.828 . S
C1571 O1556 1.258 . S
C1571 O1561 1.252 . S
C1571 C1572 1.497 . S
C1572 C1571 1.497 . S
C1572 C1573 1.395 . S
C1572 C1574 1.380 . S
C1573 C1572 1.395 . S
C1573 C1576 1.398 . S
C1573 H1588 0.930 . S
C1574 C1572 1.380 . S
C1574 C1575 1.391 . S
C1574 H1589 0.930 . S
C1575 C1574 1.391 . S
C1575 C1577 1.387 . S
C1576 C1573 1.398 . S
C1576 C1577 1.380 . S
C1576 H1590 0.930 . S
C1577 C1575 1.387 . S
C1577 C1576 1.380 . S
C1577 H1591 0.930 . S
C1578 O1558 1.254 . S
C1578 O1559 1.268 . S
C1579 O1563 1.284 . S
C1579 O1566 1.250 . S
C1580 Gd1513 2.828 . S
C1580 O1562 1.258 . S
C1580 O1567 1.252 . S
C1580 C1581 1.497 . S
C1581 C1580 1.497 . S
C1581 C1582 1.395 . S
C1581 C1583 1.380 . S
C1582 C1581 1.395 . S
C1582 C1585 1.398 . S
C1582 H1592 0.930 . S
C1583 C1581 1.380 . S
C1583 C1584 1.391 . S
C1583 H1593 0.930 . S
C1584 C1583 1.391 . S
C1584 C1586 1.387 . S
C1585 C1582 1.398 . S
C1585 C1586 1.380 . S
C1585 H1594 0.930 . S
C1586 C1584 1.387 . S
C1586 C1585 1.380 . S
C1586 H1595 0.930 . S
C1587 O1564 1.254 . S
C1587 O1565 1.268 . S
H1588 C1573 0.930 . S
H1589 C1574 0.930 . S
H1590 C1576 0.930 . S
H1591 C1577 0.930 . S
H1592 C1582 0.930 . S
H1593 C1583 0.930 . S
H1594 C1585 0.930 . S
H1595 C1586 0.930 . S
Gd1596 N1627 2.661 . S
Gd1596 N1633 2.601 . S
Gd1596 O1640 2.545 . S
Gd1596 O1641 2.606 . S
Gd1596 O1643 2.429 . S
Gd1596 O1644 2.545 . S
Gd1596 O1645 2.412 1_455 S
Gd1596 O1647 2.362 . S
Gd1596 O1648 2.324 . S
Gd1596 C1655 2.828 1_455 S
Gd1597 N1606 2.661 . S
Gd1597 N1610 2.601 1_554 S
Gd1597 O1641 2.362 . S
Gd1597 O1642 2.324 . S
Gd1597 O1646 2.545 1_554 S
Gd1597 O1647 2.606 . S
Gd1597 O1649 2.429 1_554 S
Gd1597 O1650 2.545 . S
Gd1597 O1651 2.412 . S
Gd1597 C1664 2.828 . S
C1598 C1601 1.417 . S
C1598 C1603 1.431 . S
C1598 C1604 1.412 . S
C1599 C1602 1.437 1_554 S
C1599 C1603 1.317 . S
C1599 H1618 0.929 1_554 S
C1600 C1601 1.426 . S
C1600 C1602 1.413 1_554 S
C1600 N1610 1.359 1_554 S
C1601 C1598 1.417 . S
C1601 C1600 1.426 . S
C1601 N1606 1.350 . S
C1602 C1599 1.437 1_556 S
C1602 C1600 1.413 1_556 S
C1602 C1612 1.391 . S
C1603 C1598 1.431 . S
C1603 C1599 1.317 . S
C1603 H1614 0.930 . S
C1604 C1598 1.412 . S
C1604 C1605 1.355 . S
C1604 H1616 0.930 . S
C1605 C1604 1.355 . S
C1605 C1607 1.402 . S
C1605 H1617 0.930 . S
N1606 Gd1597 2.661 . S
N1606 C1601 1.350 . S
N1606 C1607 1.307 . S
C1607 C1605 1.402 . S
C1607 N1606 1.307 . S
C1607 H1608 0.930 . S
H1608 C1607 0.930 . S
C1609 N1610 1.334 . S
C1609 C1611 1.394 . S
C1609 H1613 0.930 . S
N1610 Gd1597 2.601 1_556 S
N1610 C1600 1.359 1_556 S
N1610 C1609 1.334 . S
C1611 C1609 1.394 . S
C1611 C1612 1.359 . S
C1611 H1623 0.930 . S
C1612 C1602 1.391 . S
C1612 C1611 1.359 . S
C1612 H1624 0.929 . S
H1613 C1609 0.930 . S
H1614 C1603 0.930 . S
H1615 C1632 0.930 1_455 S
H1616 C1604 0.930 . S
H1617 C1605 0.930 . S
H1618 C1599 0.929 1_556 S
H1619 C1637 0.930 . S
H1620 C1628 0.930 . S
H1621 C1629 0.930 1_556 S
H1622 C1653 0.929 . S
H1623 C1611 0.930 . S
H1624 C1612 0.929 . S
H1625 C1654 0.930 . S
H1626 C1635 0.930 . S
N1627 Gd1596 2.661 . S
N1627 C1631 1.350 1_455 S
N1627 C1632 1.307 1_455 S
C1628 H1620 0.930 . S
C1628 C1629 1.355 . S
C1628 C1630 1.412 . S
C1629 H1621 0.930 1_554 S
C1629 C1628 1.355 . S
C1629 C1632 1.402 . S
C1630 C1628 1.412 . S
C1630 C1631 1.417 . S
C1630 C1654 1.431 . S
C1631 N1627 1.350 1_655 S
C1631 C1630 1.417 . S
C1631 C1634 1.430 . S
C1632 H1615 0.930 1_655 S
C1632 N1627 1.307 1_655 S
C1632 C1629 1.402 . S
N1633 Gd1596 2.601 . S
N1633 C1634 1.342 1_455 S
N1633 C1637 1.334 . S
C1634 C1631 1.430 . S
C1634 N1633 1.342 1_655 S
C1634 C1638 1.427 . S
C1635 H1626 0.930 . S
C1635 C1636 1.359 1_455 S
C1635 C1637 1.394 . S
C1636 C1635 1.359 1_655 S
C1636 C1638 1.391 . S
C1636 H1639 0.929 . S
C1637 H1619 0.930 . S
C1637 N1633 1.334 . S
C1637 C1635 1.394 . S
C1638 C1634 1.427 . S
C1638 C1636 1.391 . S
C1638 C1653 1.437 . S
H1639 C1636 0.929 . S
O1640 Gd1596 2.545 . S
O1640 C1655 1.258 1_455 S
O1641 Gd1596 2.606 . S
O1641 Gd1597 2.362 . S
O1641 C1652 1.284 . S
O1642 Gd1597 2.324 . S
O1642 C1662 1.254 . S
O1643 Gd1596 2.429 . S
O1643 C1662 1.268 . S
O1644 Gd1596 2.545 . S
O1644 C1652 1.250 . S
O1645 Gd1596 2.412 1_655 S
O1645 C1655 1.252 . S
O1646 Gd1597 2.545 1_556 S
O1646 C1664 1.258 1_556 S
O1647 Gd1596 2.362 . S
O1647 Gd1597 2.606 . S
O1647 C1663 1.284 . S
O1648 Gd1596 2.324 . S
O1648 C1671 1.254 1_554 S
O1649 Gd1597 2.429 1_556 S
O1649 C1671 1.268 . S
O1650 Gd1597 2.545 . S
O1650 C1663 1.250 . S
O1651 Gd1597 2.412 . S
O1651 C1664 1.252 . S
C1652 O1641 1.284 . S
C1652 O1644 1.250 . S
C1653 H1622 0.929 . S
C1653 C1638 1.437 . S
C1653 C1654 1.317 . S
C1654 H1625 0.930 . S
C1654 C1630 1.431 . S
C1654 C1653 1.317 . S
C1655 Gd1596 2.828 1_655 S
C1655 O1640 1.258 1_655 S
C1655 O1645 1.252 . S
C1655 C1656 1.497 . S
C1656 C1655 1.497 . S
C1656 C1657 1.395 . S
C1656 C1658 1.380 . S
C1657 C1656 1.395 . S
C1657 C1660 1.398 . S
C1657 H1672 0.930 . S
C1658 C1656 1.380 . S
C1658 C1659 1.391 . S
C1658 H1673 0.930 . S
C1659 C1658 1.391 . S
C1659 C1661 1.387 . S
C1660 C1657 1.398 . S
C1660 C1661 1.380 . S
C1660 H1674 0.930 . S
C1661 C1659 1.387 . S
C1661 C1660 1.380 . S
C1661 H1675 0.930 . S
C1662 O1642 1.254 . S
C1662 O1643 1.268 . S
C1663 O1647 1.284 . S
C1663 O1650 1.250 . S
C1664 Gd1597 2.828 . S
C1664 O1646 1.258 1_554 S
C1664 O1651 1.252 . S
C1664 C1665 1.497 . S
C1665 C1664 1.497 . S
C1665 C1666 1.395 1_554 S
C1665 C1667 1.380 . S
C1666 C1665 1.395 1_556 S
C1666 C1669 1.398 . S
C1666 H1676 0.930 . S
C1667 C1665 1.380 . S
C1667 C1668 1.391 . S
C1667 H1677 0.930 . S
C1668 C1667 1.391 . S
C1668 C1670 1.387 1_554 S
C1669 C1666 1.398 . S
C1669 C1670 1.380 . S
C1669 H1678 0.930 . S
C1670 C1668 1.387 1_556 S
C1670 C1669 1.380 . S
C1670 H1679 0.930 . S
C1671 O1648 1.254 1_556 S
C1671 O1649 1.268 . S
H1672 C1657 0.930 . S
H1673 C1658 0.930 . S
H1674 C1660 0.930 . S
H1675 C1661 0.930 . S
H1676 C1666 0.930 . S
H1677 C1667 0.930 . S
H1678 C1669 0.930 . S
H1679 C1670 0.930 . S
C1680 C1681 1.387 . S
C1680 H1684 0.950 . S
C1680 C1689 1.390 . S
C1681 C1680 1.387 . S
C1681 C1683 1.387 1_556 S
H1682 C1689 0.950 . S
C1683 C1681 1.387 1_554 S
C1683 C1685 1.390 . S
C1683 H1687 0.950 . S
H1684 C1680 0.950 . S
C1685 C1683 1.390 . S
C1685 C1686 1.387 . S
C1685 H1688 0.950 . S
C1686 C1685 1.387 . S
C1686 C1689 1.387 1_554 S
H1687 C1683 0.950 . S
H1688 C1685 0.950 . S
C1689 C1680 1.390 . S
C1689 H1682 0.950 . S
C1689 C1686 1.387 1_556 S
C1690 C1691 1.387 . S
C1690 H1694 0.950 . S
C1690 C1699 1.390 . S
C1691 C1690 1.387 . S
C1691 C1693 1.387 . S
H1692 C1699 0.950 . S
C1693 C1691 1.387 . S
C1693 C1695 1.390 . S
C1693 H1697 0.950 . S
H1694 C1690 0.950 . S
C1695 C1693 1.390 . S
C1695 C1696 1.387 . S
C1695 H1698 0.950 . S
C1696 C1695 1.387 . S
C1696 C1699 1.387 . S
H1697 C1693 0.950 . S
H1698 C1695 0.950 . S
C1699 C1690 1.390 . S
C1699 H1692 0.950 . S
C1699 C1696 1.387 . S
C1700 C1701 1.387 . S
C1700 H1704 0.950 . S
C1700 C1709 1.390 . S
C1701 C1700 1.387 . S
C1701 C1703 1.387 . S
H1702 C1709 0.950 . S
C1703 C1701 1.387 . S
C1703 C1705 1.390 . S
C1703 H1707 0.950 . S
H1704 C1700 0.950 . S
C1705 C1703 1.390 . S
C1705 C1706 1.387 . S
C1705 H1708 0.950 . S
C1706 C1705 1.387 . S
C1706 C1709 1.387 . S
H1707 C1703 0.950 . S
H1708 C1705 0.950 . S
C1709 C1700 1.390 . S
C1709 H1702 0.950 . S
C1709 C1706 1.387 . S
C1710 C1711 1.387 . S
C1710 H1714 0.950 . S
C1710 C1719 1.390 . S
C1711 C1710 1.387 . S
C1711 C1713 1.387 . S
H1712 C1719 0.950 . S
C1713 C1711 1.387 . S
C1713 C1715 1.390 . S
C1713 H1717 0.950 . S
H1714 C1710 0.950 . S
C1715 C1713 1.390 . S
C1715 C1716 1.387 . S
C1715 H1718 0.950 . S
C1716 C1715 1.387 . S
C1716 C1719 1.387 . S
H1717 C1713 0.950 . S
H1718 C1715 0.950 . S
C1719 C1710 1.390 . S
C1719 H1712 0.950 . S
C1719 C1716 1.387 . S
C1720 C1721 1.387 . S
C1720 H1724 0.950 . S
C1720 C1729 1.390 . S
C1721 C1720 1.387 . S
C1721 C1723 1.387 . S
H1722 C1729 0.950 . S
C1723 C1721 1.387 . S
C1723 C1725 1.390 . S
C1723 H1727 0.950 . S
H1724 C1720 0.950 . S
C1725 C1723 1.390 . S
C1725 C1726 1.387 . S
C1725 H1728 0.950 . S
C1726 C1725 1.387 . S
C1726 C1729 1.387 . S
H1727 C1723 0.950 . S
H1728 C1725 0.950 . S
C1729 C1720 1.390 . S
C1729 H1722 0.950 . S
C1729 C1726 1.387 . S
C1730 C1731 1.387 . S
C1730 H1734 0.950 . S
C1730 C1739 1.390 . S
C1731 C1730 1.387 . S
C1731 C1733 1.387 . S
H1732 C1739 0.950 . S
C1733 C1731 1.387 . S
C1733 C1735 1.390 . S
C1733 H1737 0.950 . S
H1734 C1730 0.950 . S
C1735 C1733 1.390 . S
C1735 C1736 1.387 . S
C1735 H1738 0.950 . S
C1736 C1735 1.387 . S
C1736 C1739 1.387 . S
H1737 C1733 0.950 . S
H1738 C1735 0.950 . S
C1739 C1730 1.390 . S
C1739 H1732 0.950 . S
C1739 C1736 1.387 . S
C1740 C1741 1.387 . S
C1740 H1744 0.950 . S
C1740 C1749 1.390 . S
C1741 C1740 1.387 . S
C1741 C1743 1.387 . S
H1742 C1749 0.950 . S
C1743 C1741 1.387 . S
C1743 C1745 1.390 . S
C1743 H1747 0.950 . S
H1744 C1740 0.950 . S
C1745 C1743 1.390 . S
C1745 C1746 1.387 . S
C1745 H1748 0.950 . S
C1746 C1745 1.387 . S
C1746 C1749 1.387 . S
H1747 C1743 0.950 . S
H1748 C1745 0.950 . S
C1749 C1740 1.390 . S
C1749 H1742 0.950 . S
C1749 C1746 1.387 . S
C1750 C1751 1.387 . S
C1750 H1754 0.950 . S
C1750 C1759 1.390 . S
C1751 C1750 1.387 . S
C1751 C1753 1.387 . S
H1752 C1759 0.950 . S
C1753 C1751 1.387 . S
C1753 C1755 1.390 . S
C1753 H1757 0.950 . S
H1754 C1750 0.950 . S
C1755 C1753 1.390 . S
C1755 C1756 1.387 . S
C1755 H1758 0.950 . S
C1756 C1755 1.387 . S
C1756 C1759 1.387 . S
H1757 C1753 0.950 . S
H1758 C1755 0.950 . S
C1759 C1750 1.390 . S
C1759 H1752 0.950 . S
C1759 C1756 1.387 . S
C1760 C1761 1.403 . S
C1760 H1764 0.950 1_455 S
C1760 C1769 1.390 . S
C1761 C1760 1.403 . S
C1761 C1763 1.396 . S
H1762 C1769 0.950 . S
C1763 C1761 1.396 . S
C1763 C1765 1.390 . S
C1763 H1767 0.950 . S
H1764 C1760 0.950 1_655 S
C1765 C1763 1.390 . S
C1765 C1766 1.387 . S
C1765 H1768 0.950 . S
C1766 C1765 1.387 . S
C1766 C1769 1.387 . S
H1767 C1763 0.950 . S
H1768 C1765 0.950 . S
C1769 C1760 1.390 . S
C1769 H1762 0.950 . S
C1769 C1766 1.387 . S
C1770 C1771 1.387 . S
C1770 H1774 0.950 . S
C1770 C1779 1.390 . S
C1771 C1770 1.387 . S
C1771 C1773 1.387 . S
H1772 C1779 0.950 . S
C1773 C1771 1.387 . S
C1773 C1775 1.390 . S
C1773 H1777 0.950 . S
H1774 C1770 0.950 . S
C1775 C1773 1.390 . S
C1775 C1776 1.387 . S
C1775 H1778 0.950 . S
C1776 C1775 1.387 . S
C1776 C1779 1.387 . S
H1777 C1773 0.950 . S
H1778 C1775 0.950 . S
C1779 C1770 1.390 . S
C1779 H1772 0.950 . S
C1779 C1776 1.387 . S
C1780 C1781 1.387 . S
C1780 H1784 0.950 . S
C1780 C1789 1.390 . S
C1781 C1780 1.387 . S
C1781 C1783 1.387 . S
H1782 C1789 0.950 . S
C1783 C1781 1.387 . S
C1783 C1785 1.390 . S
C1783 H1787 0.950 . S
H1784 C1780 0.950 . S
C1785 C1783 1.390 . S
C1785 C1786 1.387 . S
C1785 H1788 0.950 1_545 S
C1786 C1785 1.387 . S
C1786 C1789 1.387 . S
H1787 C1783 0.950 . S
H1788 C1785 0.950 1_565 S
C1789 C1780 1.390 . S
C1789 H1782 0.950 . S
C1789 C1786 1.387 . S
C1790 C1791 1.387 . S
C1790 H1794 0.950 . S
C1790 C1799 1.390 . S
C1791 C1790 1.387 . S
C1791 C1793 1.387 . S
H1792 C1799 0.950 . S
C1793 C1791 1.387 . S
C1793 C1795 1.390 . S
C1793 H1797 0.950 . S
H1794 C1790 0.950 . S
C1795 C1793 1.390 . S
C1795 C1796 1.387 . S
C1795 H1798 0.950 . S
C1796 C1795 1.387 . S
C1796 C1799 1.387 . S
H1797 C1793 0.950 . S
H1798 C1795 0.950 . S
C1799 C1790 1.390 . S
C1799 H1792 0.950 . S
C1799 C1796 1.387 . S
C1800 C1801 1.387 . S
C1800 H1804 0.950 . S
C1800 C1809 1.390 . S
C1801 C1800 1.387 . S
C1801 C1803 1.387 . S
H1802 C1809 0.950 . S
C1803 C1801 1.387 . S
C1803 C1805 1.390 . S
C1803 H1807 0.950 . S
H1804 C1800 0.950 . S
C1805 C1803 1.390 . S
C1805 C1806 1.387 . S
C1805 H1808 0.950 . S
C1806 C1805 1.387 . S
C1806 C1809 1.387 . S
H1807 C1803 0.950 . S
H1808 C1805 0.950 . S
C1809 C1800 1.390 . S
C1809 H1802 0.950 . S
C1809 C1806 1.387 . S
C1810 C1811 1.387 . S
C1810 H1814 0.950 . S
C1810 C1819 1.390 . S
C1811 C1810 1.387 . S
C1811 C1813 1.387 . S
H1812 C1819 0.950 . S
C1813 C1811 1.387 . S
C1813 C1815 1.390 . S
C1813 H1817 0.950 . S
H1814 C1810 0.950 . S
C1815 C1813 1.390 . S
C1815 C1816 1.387 . S
C1815 H1818 0.950 . S
C1816 C1815 1.387 . S
C1816 C1819 1.387 . S
H1817 C1813 0.950 . S
H1818 C1815 0.950 . S
C1819 C1810 1.390 . S
C1819 H1812 0.950 . S
C1819 C1816 1.387 . S
C1820 C1821 1.387 . S
C1820 H1824 0.950 . S
C1820 C1829 1.390 . S
C1821 C1820 1.387 . S
C1821 C1823 1.387 . S
H1822 C1829 0.950 . S
C1823 C1821 1.387 . S
C1823 C1825 1.390 . S
C1823 H1827 0.950 . S
H1824 C1820 0.950 . S
C1825 C1823 1.390 . S
C1825 C1826 1.387 . S
C1825 H1828 0.950 . S
C1826 C1825 1.387 . S
C1826 C1829 1.387 . S
H1827 C1823 0.950 . S
H1828 C1825 0.950 . S
C1829 C1820 1.390 . S
C1829 H1822 0.950 . S
C1829 C1826 1.387 . S
C1830 C1831 1.387 . S
C1830 H1834 0.950 . S
C1830 C1839 1.390 . S
C1831 C1830 1.387 . S
C1831 C1833 1.387 . S
H1832 C1839 0.950 . S
C1833 C1831 1.387 . S
C1833 C1835 1.390 . S
C1833 H1837 0.950 . S
H1834 C1830 0.950 . S
C1835 C1833 1.390 . S
C1835 C1836 1.387 . S
C1835 H1838 0.950 . S
C1836 C1835 1.387 . S
C1836 C1839 1.387 . S
H1837 C1833 0.950 . S
H1838 C1835 0.950 . S
C1839 C1830 1.390 . S
C1839 H1832 0.950 . S
C1839 C1836 1.387 . S
C1840 C1841 1.387 1_545 S
C1840 H1844 0.950 1_554 S
C1840 C1849 1.390 . S
C1841 C1840 1.387 1_565 S
C1841 C1843 1.387 . S
H1842 C1849 0.950 . S
C1843 C1841 1.387 . S
C1843 C1845 1.390 . S
C1843 H1847 0.950 . S
H1844 C1840 0.950 1_556 S
C1845 C1843 1.390 . S
C1845 C1846 1.387 1_565 S
C1845 H1848 0.950 . S
C1846 C1845 1.387 1_545 S
C1846 C1849 1.387 . S
H1847 C1843 0.950 . S
H1848 C1845 0.950 . S
C1849 C1840 1.390 . S
C1849 H1842 0.950 . S
C1849 C1846 1.387 . S
C1850 C1851 1.387 1_556 S
C1850 H1854 0.950 . S
C1850 C1859 1.390 . S
C1851 C1850 1.387 1_554 S
C1851 C1853 1.387 . S
H1852 C1859 0.950 . S
C1853 C1851 1.387 . S
C1853 C1855 1.390 . S
C1853 H1857 0.950 . S
H1854 C1850 0.950 . S
C1855 C1853 1.390 . S
C1855 C1856 1.387 . S
C1855 H1858 0.950 . S
C1856 C1855 1.387 . S
C1856 C1859 1.387 1_554 S
H1857 C1853 0.950 . S
H1858 C1855 0.950 . S
C1859 C1850 1.390 . S
C1859 H1852 0.950 . S
C1859 C1856 1.387 1_556 S
C1860 C1861 1.387 . S
C1860 H1864 0.950 . S
C1860 C1869 1.390 . S
C1861 C1860 1.387 . S
C1861 C1863 1.387 . S
H1862 C1869 0.950 . S
C1863 C1861 1.387 . S
C1863 C1865 1.390 . S
C1863 H1867 0.950 . S
H1864 C1860 0.950 . S
C1865 C1863 1.390 . S
C1865 C1866 1.387 . S
C1865 H1868 0.950 . S
C1866 C1865 1.387 . S
C1866 C1869 1.387 . S
H1867 C1863 0.950 . S
H1868 C1865 0.950 . S
C1869 C1860 1.390 . S
C1869 H1862 0.950 . S
C1869 C1866 1.387 . S
C1870 C1871 1.387 . S
C1870 H1874 0.950 . S
C1870 C1879 1.390 . S
C1871 C1870 1.387 . S
C1871 C1873 1.387 . S
H1872 C1879 0.950 . S
C1873 C1871 1.387 . S
C1873 C1875 1.390 . S
C1873 H1877 0.950 . S
H1874 C1870 0.950 . S
C1875 C1873 1.390 . S
C1875 C1876 1.387 1_655 S
C1875 H1878 0.950 1_655 S
C1876 C1875 1.387 1_455 S
C1876 C1879 1.387 1_455 S
H1877 C1873 0.950 . S
H1878 C1875 0.950 1_455 S
C1879 C1870 1.390 . S
C1879 H1872 0.950 . S
C1879 C1876 1.387 1_655 S
C1880 C1881 1.387 . S
C1880 H1884 0.950 . S
C1880 C1889 1.390 . S
C1881 C1880 1.387 . S
C1881 C1883 1.387 . S
H1882 C1889 0.950 . S
C1883 C1881 1.387 . S
C1883 C1885 1.390 . S
C1883 H1887 0.950 . S
H1884 C1880 0.950 . S
C1885 C1883 1.390 . S
C1885 C1886 1.387 . S
C1885 H1888 0.950 . S
C1886 C1885 1.387 . S
C1886 C1889 1.387 . S
H1887 C1883 0.950 . S
H1888 C1885 0.950 . S
C1889 C1880 1.390 . S
C1889 H1882 0.950 . S
C1889 C1886 1.387 . S
C1890 C1891 1.387 . S
C1890 H1894 0.950 . S
C1890 C1899 1.390 . S
C1891 C1890 1.387 . S
C1891 C1893 1.387 . S
H1892 C1899 0.950 . S
C1893 C1891 1.387 . S
C1893 C1895 1.390 . S
C1893 H1897 0.950 . S
H1894 C1890 0.950 . S
C1895 C1893 1.390 . S
C1895 C1896 1.387 . S
C1895 H1898 0.950 . S
C1896 C1895 1.387 . S
C1896 C1899 1.387 . S
H1897 C1893 0.950 . S
H1898 C1895 0.950 . S
C1899 C1890 1.390 . S
C1899 H1892 0.950 . S
C1899 C1896 1.387 . S
C1900 C1901 1.387 . S
C1900 H1904 0.950 . S
C1900 C1909 1.390 . S
C1901 C1900 1.387 . S
C1901 C1903 1.387 . S
H1902 C1909 0.950 . S
C1903 C1901 1.387 . S
C1903 C1905 1.390 . S
C1903 H1907 0.950 . S
H1904 C1900 0.950 . S
C1905 C1903 1.390 . S
C1905 C1906 1.387 . S
C1905 H1908 0.950 . S
C1906 C1905 1.387 . S
C1906 C1909 1.387 . S
H1907 C1903 0.950 . S
H1908 C1905 0.950 . S
C1909 C1900 1.390 . S
C1909 H1902 0.950 . S
C1909 C1906 1.387 . S
C1910 C1911 1.387 . S
C1910 H1914 0.950 . S
C1910 C1919 1.390 . S
C1911 C1910 1.387 . S
C1911 C1913 1.387 . S
H1912 C1919 0.950 . S
C1913 C1911 1.387 . S
C1913 C1915 1.390 . S
C1913 H1917 0.950 . S
H1914 C1910 0.950 . S
C1915 C1913 1.390 . S
C1915 C1916 1.387 . S
C1915 H1918 0.950 . S
C1916 C1915 1.387 . S
C1916 C1919 1.387 . S
H1917 C1913 0.950 . S
H1918 C1915 0.950 . S
C1919 C1910 1.390 . S
C1919 H1912 0.950 . S
C1919 C1916 1.387 . S
C1920 C1921 1.387 . S
C1920 H1924 0.950 . S
C1920 C1929 1.390 . S
C1921 C1920 1.387 . S
C1921 C1923 1.387 . S
H1922 C1929 0.950 . S
C1923 C1921 1.387 . S
C1923 C1925 1.390 . S
C1923 H1927 0.950 . S
H1924 C1920 0.950 . S
C1925 C1923 1.390 . S
C1925 C1926 1.387 . S
C1925 H1928 0.950 . S
C1926 C1925 1.387 . S
C1926 C1929 1.387 . S
H1927 C1923 0.950 . S
H1928 C1925 0.950 . S
C1929 C1920 1.390 . S
C1929 H1922 0.950 . S
C1929 C1926 1.387 . S
C1930 C1931 1.387 . S
C1930 H1934 0.950 . S
C1930 C1939 1.390 . S
C1931 C1930 1.387 . S
C1931 C1933 1.387 . S
H1932 C1939 0.950 . S
C1933 C1931 1.387 . S
C1933 C1935 1.390 . S
C1933 H1937 0.950 . S
H1934 C1930 0.950 . S
C1935 C1933 1.390 . S
C1935 C1936 1.387 . S
C1935 H1938 0.950 . S
C1936 C1935 1.387 . S
C1936 C1939 1.387 . S
H1937 C1933 0.950 . S
H1938 C1935 0.950 . S
C1939 C1930 1.390 . S
C1939 H1932 0.950 . S
C1939 C1936 1.387 . S
C1940 C1941 1.387 . S
C1940 H1944 0.950 . S
C1940 C1949 1.390 . S
C1941 C1940 1.387 . S
C1941 C1943 1.387 . S
H1942 C1949 0.950 . S
C1943 C1941 1.387 . S
C1943 C1945 1.390 . S
C1943 H1947 0.950 . S
H1944 C1940 0.950 . S
C1945 C1943 1.390 . S
C1945 C1946 1.387 . S
C1945 H1948 0.950 . S
C1946 C1945 1.387 . S
C1946 C1949 1.387 . S
H1947 C1943 0.950 . S
H1948 C1945 0.950 . S
C1949 C1940 1.390 . S
C1949 H1942 0.950 . S
C1949 C1946 1.387 . S
C1950 C1951 1.387 . S
C1950 H1954 0.950 . S
C1950 C1959 1.390 . S
C1951 C1950 1.387 . S
C1951 C1953 1.387 . S
H1952 C1959 0.950 . S
C1953 C1951 1.387 . S
C1953 C1955 1.390 . S
C1953 H1957 0.950 . S
H1954 C1950 0.950 . S
C1955 C1953 1.390 . S
C1955 C1956 1.387 . S
C1955 H1958 0.950 . S
C1956 C1955 1.387 . S
C1956 C1959 1.387 . S
H1957 C1953 0.950 . S
H1958 C1955 0.950 . S
C1959 C1950 1.390 . S
C1959 H1952 0.950 . S
C1959 C1956 1.387 . S
C1960 C1961 1.387 . S
C1960 H1964 0.950 . S
C1960 C1969 1.390 . S
C1961 C1960 1.387 . S
C1961 C1963 1.387 . S
H1962 C1969 0.950 . S
C1963 C1961 1.387 . S
C1963 C1965 1.390 . S
C1963 H1967 0.950 . S
H1964 C1960 0.950 . S
C1965 C1963 1.390 . S
C1965 C1966 1.387 . S
C1965 H1968 0.950 . S
C1966 C1965 1.387 . S
C1966 C1969 1.387 . S
H1967 C1963 0.950 . S
H1968 C1965 0.950 . S
C1969 C1960 1.390 . S
C1969 H1962 0.950 . S
C1969 C1966 1.387 . S
C1970 C1971 1.387 . S
C1970 H1974 0.950 . S
C1970 C1979 1.390 . S
C1971 C1970 1.387 . S
C1971 C1973 1.387 . S
H1972 C1979 0.950 . S
C1973 C1971 1.387 . S
C1973 C1975 1.390 . S
C1973 H1977 0.950 . S
H1974 C1970 0.950 . S
C1975 C1973 1.390 . S
C1975 C1976 1.387 . S
C1975 H1978 0.950 . S
C1976 C1975 1.387 . S
C1976 C1979 1.387 . S
H1977 C1973 0.950 . S
H1978 C1975 0.950 . S
C1979 C1970 1.390 . S
C1979 H1972 0.950 . S
C1979 C1976 1.387 . S
C1980 C1981 1.387 . S
C1980 H1984 0.950 . S
C1980 C1989 1.390 . S
C1981 C1980 1.387 . S
C1981 C1983 1.387 . S
H1982 C1989 0.950 1_554 S
C1983 C1981 1.387 . S
C1983 C1985 1.390 . S
C1983 H1987 0.950 . S
H1984 C1980 0.950 . S
C1985 C1983 1.390 . S
C1985 C1986 1.387 . S
C1985 H1988 0.950 . S
C1986 C1985 1.387 . S
C1986 C1989 1.387 . S
H1987 C1983 0.950 . S
H1988 C1985 0.950 . S
C1989 C1980 1.390 . S
C1989 H1982 0.950 1_556 S
C1989 C1986 1.387 . S
C1990 C1991 1.387 . S
C1990 H1994 0.950 . S
C1990 C1999 1.390 . S
C1991 C1990 1.387 . S
C1991 C1993 1.387 . S
H1992 C1999 0.950 . S
C1993 C1991 1.387 . S
C1993 C1995 1.390 . S
C1993 H1997 0.950 . S
H1994 C1990 0.950 . S
C1995 C1993 1.390 . S
C1995 C1996 1.387 . S
C1995 H1998 0.950 . S
C1996 C1995 1.387 . S
C1996 C1999 1.387 . S
H1997 C1993 0.950 . S
H1998 C1995 0.950 . S
C1999 C1990 1.390 . S
C1999 H1992 0.950 . S
C1999 C1996 1.387 . S
C2000 C2001 1.387 1_565 S
C2000 H2004 0.950 . S
C2000 C2009 1.390 . S
C2001 C2000 1.387 1_545 S
C2001 C2003 1.387 . S
H2002 C2009 0.950 . S
C2003 C2001 1.387 . S
C2003 C2005 1.390 . S
C2003 H2007 0.950 . S
H2004 C2000 0.950 . S
C2005 C2003 1.390 . S
C2005 C2006 1.387 . S
C2005 H2008 0.950 . S
C2006 C2005 1.387 . S
C2006 C2009 1.387 1_545 S
H2007 C2003 0.950 . S
H2008 C2005 0.950 . S
C2009 C2000 1.390 . S
C2009 H2002 0.950 . S
C2009 C2006 1.387 1_565 S
C2010 C2011 1.387 . S
C2010 H2014 0.950 . S
C2010 C2019 1.390 . S
C2011 C2010 1.387 . S
C2011 C2013 1.387 . S
H2012 C2019 0.950 . S
C2013 C2011 1.387 . S
C2013 C2015 1.390 . S
C2013 H2017 0.950 . S
H2014 C2010 0.950 . S
C2015 C2013 1.390 . S
C2015 C2016 1.387 . S
C2015 H2018 0.950 . S
C2016 C2015 1.387 . S
C2016 C2019 1.387 . S
H2017 C2013 0.950 . S
H2018 C2015 0.950 . S
C2019 C2010 1.390 . S
C2019 H2012 0.950 . S
C2019 C2016 1.387 . S
C2020 C2021 1.387 1_565 S
C2020 H2024 0.950 . S
C2020 C2029 1.390 1_565 S
C2021 C2020 1.387 1_545 S
C2021 C2023 1.387 . S
H2022 C2029 0.950 1_565 S
C2023 C2021 1.387 . S
C2023 C2025 1.390 . S
C2023 H2027 0.950 . S
H2024 C2020 0.950 . S
C2025 C2023 1.390 . S
C2025 C2026 1.387 . S
C2025 H2028 0.950 . S
C2026 C2025 1.387 . S
C2026 C2029 1.387 . S
H2027 C2023 0.950 . S
H2028 C2025 0.950 . S
C2029 C2020 1.390 1_545 S
C2029 H2022 0.950 1_545 S
C2029 C2026 1.387 . S
C2030 C2031 1.387 . S
C2030 H2034 0.950 . S
C2030 C2039 1.390 . S
C2031 C2030 1.387 . S
C2031 C2033 1.387 . S
H2032 C2039 0.950 . S
C2033 C2031 1.387 . S
C2033 C2035 1.390 . S
C2033 H2037 0.950 . S
H2034 C2030 0.950 . S
C2035 C2033 1.390 . S
C2035 C2036 1.387 . S
C2035 H2038 0.950 . S
C2036 C2035 1.387 . S
C2036 C2039 1.387 . S
H2037 C2033 0.950 . S
H2038 C2035 0.950 . S
C2039 C2030 1.390 . S
C2039 H2032 0.950 . S
C2039 C2036 1.387 . S
C2040 C2041 1.387 . S
C2040 H2044 0.950 . S
C2040 C2049 1.390 . S
C2041 C2040 1.387 . S
C2041 C2043 1.387 1_545 S
H2042 C2049 0.950 . S
C2043 C2041 1.387 1_565 S
C2043 C2045 1.390 . S
C2043 H2047 0.950 . S
H2044 C2040 0.950 . S
C2045 C2043 1.390 . S
C2045 C2046 1.387 1_565 S
C2045 H2048 0.950 . S
C2046 C2045 1.387 1_545 S
C2046 C2049 1.387 . S
H2047 C2043 0.950 . S
H2048 C2045 0.950 . S
C2049 C2040 1.390 . S
C2049 H2042 0.950 . S
C2049 C2046 1.387 . S
C2050 C2051 1.387 . S
C2050 H2054 0.950 . S
C2050 C2059 1.390 . S
C2051 C2050 1.387 . S
C2051 C2053 1.387 . S
H2052 C2059 0.950 . S
C2053 C2051 1.387 . S
C2053 C2055 1.390 . S
C2053 H2057 0.950 . S
H2054 C2050 0.950 . S
C2055 C2053 1.390 . S
C2055 C2056 1.387 . S
C2055 H2058 0.950 . S
C2056 C2055 1.387 . S
C2056 C2059 1.387 . S
H2057 C2053 0.950 . S
H2058 C2055 0.950 . S
C2059 C2050 1.390 . S
C2059 H2052 0.950 . S
C2059 C2056 1.387 . S
C2060 C2061 1.396 . S
C2060 H2064 0.950 . S
C2060 C2069 1.390 . S
C2061 C2060 1.396 . S
C2061 C2063 1.380 1_545 S
H2062 C2069 0.950 . S
C2063 C2061 1.380 1_565 S
C2063 C2065 1.390 . S
C2063 H2067 0.950 . S
H2064 C2060 0.950 . S
C2065 C2063 1.390 . S
C2065 C2066 1.387 1_565 S
C2065 H2068 0.950 . S
C2066 C2065 1.387 1_545 S
C2066 C2069 1.387 . S
H2067 C2063 0.950 . S
H2068 C2065 0.950 . S
C2069 C2060 1.390 . S
C2069 H2062 0.950 . S
C2069 C2066 1.387 . S
C2070 C2071 1.387 . S
C2070 H2074 0.950 . S
C2070 C2079 1.390 . S
C2071 C2070 1.387 . S
C2071 C2073 1.387 . S
H2072 C2079 0.950 . S
C2073 C2071 1.387 . S
C2073 C2075 1.390 . S
C2073 H2077 0.950 . S
H2074 C2070 0.950 . S
C2075 C2073 1.390 . S
C2075 C2076 1.387 . S
C2075 H2078 0.950 . S
C2076 C2075 1.387 . S
C2076 C2079 1.387 . S
H2077 C2073 0.950 . S
H2078 C2075 0.950 . S
C2079 C2070 1.390 . S
C2079 H2072 0.950 . S
C2079 C2076 1.387 . S
C2080 C2081 1.387 . S
C2080 H2084 0.950 . S
C2080 C2089 1.390 . S
C2081 C2080 1.387 . S
C2081 C2083 1.387 . S
H2082 C2089 0.950 . S
C2083 C2081 1.387 . S
C2083 C2085 1.390 . S
C2083 H2087 0.950 . S
H2084 C2080 0.950 . S
C2085 C2083 1.390 . S
C2085 C2086 1.387 . S
C2085 H2088 0.950 1_554 S
C2086 C2085 1.387 . S
C2086 C2089 1.387 . S
H2087 C2083 0.950 . S
H2088 C2085 0.950 1_556 S
C2089 C2080 1.390 . S
C2089 H2082 0.950 . S
C2089 C2086 1.387 . S
C2090 C2091 1.387 . S
C2090 H2094 0.950 . S
C2090 C2099 1.390 . S
C2091 C2090 1.387 . S
C2091 C2093 1.387 . S
H2092 C2099 0.950 . S
C2093 C2091 1.387 . S
C2093 C2095 1.390 . S
C2093 H2097 0.950 . S
H2094 C2090 0.950 . S
C2095 C2093 1.390 . S
C2095 C2096 1.387 . S
C2095 H2098 0.950 . S
C2096 C2095 1.387 . S
C2096 C2099 1.387 . S
H2097 C2093 0.950 . S
H2098 C2095 0.950 . S
C2099 C2090 1.390 . S
C2099 H2092 0.950 . S
C2099 C2096 1.387 . S
C2100 C2101 1.387 . S
C2100 H2104 0.950 . S
C2100 C2109 1.390 . S
C2101 C2100 1.387 . S
C2101 C2103 1.387 . S
H2102 C2109 0.950 . S
C2103 C2101 1.387 . S
C2103 C2105 1.390 . S
C2103 H2107 0.950 . S
H2104 C2100 0.950 . S
C2105 C2103 1.390 . S
C2105 C2106 1.387 . S
C2105 H2108 0.950 . S
C2106 C2105 1.387 . S
C2106 C2109 1.387 . S
H2107 C2103 0.950 . S
H2108 C2105 0.950 . S
C2109 C2100 1.390 . S
C2109 H2102 0.950 . S
C2109 C2106 1.387 . S
C2110 C2111 1.387 . S
C2110 H2114 0.950 . S
C2110 C2119 1.390 . S
C2111 C2110 1.387 . S
C2111 C2113 1.387 . S
H2112 C2119 0.950 . S
C2113 C2111 1.387 . S
C2113 C2115 1.390 . S
C2113 H2117 0.950 . S
H2114 C2110 0.950 . S
C2115 C2113 1.390 . S
C2115 C2116 1.387 . S
C2115 H2118 0.950 . S
C2116 C2115 1.387 . S
C2116 C2119 1.387 . S
H2117 C2113 0.950 . S
H2118 C2115 0.950 . S
C2119 C2110 1.390 . S
C2119 H2112 0.950 . S
C2119 C2116 1.387 . S
C2120 C2121 1.387 1_545 S
C2120 H2124 0.950 . S
C2120 C2129 1.390 . S
C2121 C2120 1.387 1_565 S
C2121 C2123 1.387 . S
H2122 C2129 0.950 . S
C2123 C2121 1.387 . S
C2123 C2125 1.390 . S
C2123 H2127 0.950 . S
H2124 C2120 0.950 . S
C2125 C2123 1.390 . S
C2125 C2126 1.387 . S
C2125 H2128 0.950 . S
C2126 C2125 1.387 . S
C2126 C2129 1.387 1_565 S
H2127 C2123 0.950 . S
H2128 C2125 0.950 . S
C2129 C2120 1.390 . S
C2129 H2122 0.950 . S
C2129 C2126 1.387 1_545 S
C2130 C2131 1.387 . S
C2130 H2134 0.950 . S
C2130 C2139 1.390 . S
C2131 C2130 1.387 . S
C2131 C2133 1.387 . S
H2132 C2139 0.950 . S
C2133 C2131 1.387 . S
C2133 C2135 1.390 . S
C2133 H2137 0.950 . S
H2134 C2130 0.950 . S
C2135 C2133 1.390 . S
C2135 C2136 1.387 . S
C2135 H2138 0.950 . S
C2136 C2135 1.387 . S
C2136 C2139 1.387 . S
H2137 C2133 0.950 . S
H2138 C2135 0.950 . S
C2139 C2130 1.390 . S
C2139 H2132 0.950 . S
C2139 C2136 1.387 . S
C2140 C2141 1.387 . S
C2140 H2144 0.950 . S
C2140 C2149 1.390 . S
C2141 C2140 1.387 . S
C2141 C2143 1.387 . S
H2142 C2149 0.950 . S
C2143 C2141 1.387 . S
C2143 C2145 1.390 . S
C2143 H2147 0.950 . S
H2144 C2140 0.950 . S
C2145 C2143 1.390 . S
C2145 C2146 1.387 . S
C2145 H2148 0.950 . S
C2146 C2145 1.387 . S
C2146 C2149 1.387 . S
H2147 C2143 0.950 . S
H2148 C2145 0.950 . S
C2149 C2140 1.390 . S
C2149 H2142 0.950 . S
C2149 C2146 1.387 . S
C2150 C2151 1.387 . S
C2150 H2154 0.950 . S
C2150 C2159 1.390 . S
C2151 C2150 1.387 . S
C2151 C2153 1.387 . S
H2152 C2159 0.950 . S
C2153 C2151 1.387 . S
C2153 C2155 1.390 . S
C2153 H2157 0.950 . S
H2154 C2150 0.950 . S
C2155 C2153 1.390 . S
C2155 C2156 1.387 . S
C2155 H2158 0.950 . S
C2156 C2155 1.387 . S
C2156 C2159 1.387 . S
H2157 C2153 0.950 . S
H2158 C2155 0.950 . S
C2159 C2150 1.390 . S
C2159 H2152 0.950 . S
C2159 C2156 1.387 . S
C2160 C2161 1.387 . S
C2160 H2164 0.950 . S
C2160 C2169 1.390 . S
C2161 C2160 1.387 . S
C2161 C2163 1.387 . S
H2162 C2169 0.950 . S
C2163 C2161 1.387 . S
C2163 C2165 1.390 . S
C2163 H2167 0.950 . S
H2164 C2160 0.950 . S
C2165 C2163 1.390 . S
C2165 C2166 1.387 . S
C2165 H2168 0.950 . S
C2166 C2165 1.387 . S
C2166 C2169 1.387 . S
H2167 C2163 0.950 . S
H2168 C2165 0.950 . S
C2169 C2160 1.390 . S
C2169 H2162 0.950 . S
C2169 C2166 1.387 . S
C2170 C2171 1.387 . S
C2170 H2174 0.950 . S
C2170 C2179 1.390 . S
C2171 C2170 1.387 . S
C2171 C2173 1.387 . S
H2172 C2179 0.950 . S
C2173 C2171 1.387 . S
C2173 C2175 1.390 . S
C2173 H2177 0.950 . S
H2174 C2170 0.950 . S
C2175 C2173 1.390 . S
C2175 C2176 1.387 . S
C2175 H2178 0.950 . S
C2176 C2175 1.387 . S
C2176 C2179 1.387 . S
H2177 C2173 0.950 . S
H2178 C2175 0.950 . S
C2179 C2170 1.390 . S
C2179 H2172 0.950 . S
C2179 C2176 1.387 . S
C2180 C2181 1.387 . S
C2180 H2184 0.950 . S
C2180 C2189 1.390 . S
C2181 C2180 1.387 . S
C2181 C2183 1.387 1_554 S
H2182 C2189 0.950 . S
C2183 C2181 1.387 1_556 S
C2183 C2185 1.390 1_556 S
C2183 H2187 0.950 . S
H2184 C2180 0.950 . S
C2185 C2183 1.390 1_554 S
C2185 C2186 1.387 . S
C2185 H2188 0.950 1_554 S
C2186 C2185 1.387 . S
C2186 C2189 1.387 . S
H2187 C2183 0.950 . S
H2188 C2185 0.950 1_556 S
C2189 C2180 1.390 . S
C2189 H2182 0.950 . S
C2189 C2186 1.387 . S
C2190 C2191 1.387 . S
C2190 H2194 0.950 . S
C2190 C2199 1.390 . S
C2191 C2190 1.387 . S
C2191 C2193 1.387 . S
H2192 C2199 0.950 1_655 S
C2193 C2191 1.387 . S
C2193 C2195 1.390 1_455 S
C2193 H2197 0.950 . S
H2194 C2190 0.950 . S
C2195 C2193 1.390 1_655 S
C2195 C2196 1.387 . S
C2195 H2198 0.950 . S
C2196 C2195 1.387 . S
C2196 C2199 1.387 1_655 S
H2197 C2193 0.950 . S
H2198 C2195 0.950 . S
C2199 C2190 1.390 . S
C2199 H2192 0.950 1_455 S
C2199 C2196 1.387 1_455 S
C2200 C2201 1.387 . S
C2200 H2204 0.950 . S
C2200 C2209 1.390 . S
C2201 C2200 1.387 . S
C2201 C2203 1.387 . S
H2202 C2209 0.950 . S
C2203 C2201 1.387 . S
C2203 C2205 1.390 . S
C2203 H2207 0.950 . S
H2204 C2200 0.950 . S
C2205 C2203 1.390 . S
C2205 C2206 1.387 . S
C2205 H2208 0.950 . S
C2206 C2205 1.387 . S
C2206 C2209 1.387 . S
H2207 C2203 0.950 . S
H2208 C2205 0.950 . S
C2209 C2200 1.390 . S
C2209 H2202 0.950 . S
C2209 C2206 1.387 . S
C2210 C2211 1.387 . S
C2210 H2214 0.950 . S
C2210 C2219 1.390 . S
C2211 C2210 1.387 . S
C2211 C2213 1.387 . S
H2212 C2219 0.950 . S
C2213 C2211 1.387 . S
C2213 C2215 1.390 . S
C2213 H2217 0.950 . S
H2214 C2210 0.950 . S
C2215 C2213 1.390 . S
C2215 C2216 1.387 . S
C2215 H2218 0.950 . S
C2216 C2215 1.387 . S
C2216 C2219 1.387 . S
H2217 C2213 0.950 . S
H2218 C2215 0.950 . S
C2219 C2210 1.390 . S
C2219 H2212 0.950 . S
C2219 C2216 1.387 . S
C2220 C2221 1.387 1_655 S
C2220 H2224 0.950 . S
C2220 C2229 1.390 1_655 S
C2221 C2220 1.387 1_455 S
C2221 C2223 1.387 . S
H2222 C2229 0.950 . S
C2223 C2221 1.387 . S
C2223 C2225 1.390 . S
C2223 H2227 0.950 . S
H2224 C2220 0.950 . S
C2225 C2223 1.390 . S
C2225 C2226 1.387 . S
C2225 H2228 0.950 . S
C2226 C2225 1.387 . S
C2226 C2229 1.387 . S
H2227 C2223 0.950 . S
H2228 C2225 0.950 . S
C2229 C2220 1.390 1_455 S
C2229 H2222 0.950 . S
C2229 C2226 1.387 . S
C2230 C2231 1.387 . S
C2230 H2234 0.950 . S
C2230 C2239 1.390 . S
C2231 C2230 1.387 . S
C2231 C2233 1.387 . S
H2232 C2239 0.950 . S
C2233 C2231 1.387 . S
C2233 C2235 1.390 . S
C2233 H2237 0.950 . S
H2234 C2230 0.950 . S
C2235 C2233 1.390 . S
C2235 C2236 1.387 . S
C2235 H2238 0.950 . S
C2236 C2235 1.387 . S
C2236 C2239 1.387 . S
H2237 C2233 0.950 . S
H2238 C2235 0.950 . S
C2239 C2230 1.390 . S
C2239 H2232 0.950 . S
C2239 C2236 1.387 . S
C2240 C2241 1.387 . S
C2240 H2244 0.950 . S
C2240 C2249 1.390 . S
C2241 C2240 1.387 . S
C2241 C2243 1.387 . S
H2242 C2249 0.950 . S
C2243 C2241 1.387 . S
C2243 C2245 1.390 . S
C2243 H2247 0.950 . S
H2244 C2240 0.950 . S
C2245 C2243 1.390 . S
C2245 C2246 1.387 . S
C2245 H2248 0.950 . S
C2246 C2245 1.387 . S
C2246 C2249 1.387 . S
H2247 C2243 0.950 . S
H2248 C2245 0.950 . S
C2249 C2240 1.390 . S
C2249 H2242 0.950 . S
C2249 C2246 1.387 . S
C2250 C2251 1.387 . S
C2250 H2254 0.950 . S
C2250 C2259 1.390 . S
C2251 C2250 1.387 . S
C2251 C2253 1.387 . S
H2252 C2259 0.950 . S
C2253 C2251 1.387 . S
C2253 C2255 1.390 . S
C2253 H2257 0.950 . S
H2254 C2250 0.950 . S
C2255 C2253 1.390 . S
C2255 C2256 1.387 . S
C2255 H2258 0.950 . S
C2256 C2255 1.387 . S
C2256 C2259 1.387 . S
H2257 C2253 0.950 . S
H2258 C2255 0.950 . S
C2259 C2250 1.390 . S
C2259 H2252 0.950 . S
C2259 C2256 1.387 . S
C2260 C2261 1.387 . S
C2260 H2264 0.950 . S
C2260 C2269 1.390 . S
C2261 C2260 1.387 . S
C2261 C2263 1.387 . S
H2262 C2269 0.950 . S
C2263 C2261 1.387 . S
C2263 C2265 1.390 . S
C2263 H2267 0.950 . S
H2264 C2260 0.950 . S
C2265 C2263 1.390 . S
C2265 C2266 1.387 . S
C2265 H2268 0.950 . S
C2266 C2265 1.387 . S
C2266 C2269 1.387 . S
H2267 C2263 0.950 . S
H2268 C2265 0.950 . S
C2269 C2260 1.390 . S
C2269 H2262 0.950 . S
C2269 C2266 1.387 . S
C2270 C2271 1.387 . S
C2270 H2274 0.950 . S
C2270 C2279 1.390 . S
C2271 C2270 1.387 . S
C2271 C2273 1.387 . S
H2272 C2279 0.950 . S
C2273 C2271 1.387 . S
C2273 C2275 1.390 . S
C2273 H2277 0.950 . S
H2274 C2270 0.950 . S
C2275 C2273 1.390 . S
C2275 C2276 1.387 . S
C2275 H2278 0.950 . S
C2276 C2275 1.387 . S
C2276 C2279 1.387 . S
H2277 C2273 0.950 . S
H2278 C2275 0.950 . S
C2279 C2270 1.390 . S
C2279 H2272 0.950 . S
C2279 C2276 1.387 . S
C2280 C2281 1.387 . S
C2280 H2284 0.950 . S
C2280 C2289 1.390 . S
C2281 C2280 1.387 . S
C2281 C2283 1.387 . S
H2282 C2289 0.950 . S
C2283 C2281 1.387 . S
C2283 C2285 1.390 . S
C2283 H2287 0.950 . S
H2284 C2280 0.950 . S
C2285 C2283 1.390 . S
C2285 C2286 1.387 . S
C2285 H2288 0.950 . S
C2286 C2285 1.387 . S
C2286 C2289 1.387 . S
H2287 C2283 0.950 . S
H2288 C2285 0.950 . S
C2289 C2280 1.390 . S
C2289 H2282 0.950 . S
C2289 C2286 1.387 . S
C2290 C2291 1.387 . S
C2290 H2294 0.950 . S
C2290 C2299 1.390 . S
C2291 C2290 1.387 . S
C2291 C2293 1.387 . S
H2292 C2299 0.950 . S
C2293 C2291 1.387 . S
C2293 C2295 1.390 . S
C2293 H2297 0.950 . S
H2294 C2290 0.950 . S
C2295 C2293 1.390 . S
C2295 C2296 1.387 . S
C2295 H2298 0.950 . S
C2296 C2295 1.387 . S
C2296 C2299 1.387 . S
H2297 C2293 0.950 . S
H2298 C2295 0.950 . S
C2299 C2290 1.390 . S
C2299 H2292 0.950 . S
C2299 C2296 1.387 . S
C2300 C2301 1.387 . S
C2300 H2304 0.950 . S
C2300 C2309 1.390 . S
C2301 C2300 1.387 . S
C2301 C2303 1.387 . S
H2302 C2309 0.950 . S
C2303 C2301 1.387 . S
C2303 C2305 1.390 . S
C2303 H2307 0.950 . S
H2304 C2300 0.950 . S
C2305 C2303 1.390 . S
C2305 C2306 1.387 . S
C2305 H2308 0.950 . S
C2306 C2305 1.387 . S
C2306 C2309 1.387 . S
H2307 C2303 0.950 . S
H2308 C2305 0.950 . S
C2309 C2300 1.390 . S
C2309 H2302 0.950 . S
C2309 C2306 1.387 . S
C2310 C2311 1.387 . S
C2310 H2314 0.950 . S
C2310 C2319 1.390 . S
C2311 C2310 1.387 . S
C2311 C2313 1.387 . S
H2312 C2319 0.950 . S
C2313 C2311 1.387 . S
C2313 C2315 1.390 . S
C2313 H2317 0.950 . S
H2314 C2310 0.950 . S
C2315 C2313 1.390 . S
C2315 C2316 1.387 . S
C2315 H2318 0.950 . S
C2316 C2315 1.387 . S
C2316 C2319 1.387 . S
H2317 C2313 0.950 . S
H2318 C2315 0.950 . S
C2319 C2310 1.390 . S
C2319 H2312 0.950 . S
C2319 C2316 1.387 . S
C2320 C2321 1.387 . S
C2320 H2324 0.950 . S
C2320 C2329 1.390 . S
C2321 C2320 1.387 . S
C2321 C2323 1.387 . S
H2322 C2329 0.950 . S
C2323 C2321 1.387 . S
C2323 C2325 1.390 . S
C2323 H2327 0.950 . S
H2324 C2320 0.950 . S
C2325 C2323 1.390 . S
C2325 C2326 1.387 . S
C2325 H2328 0.950 . S
C2326 C2325 1.387 . S
C2326 C2329 1.387 . S
H2327 C2323 0.950 . S
H2328 C2325 0.950 . S
C2329 C2320 1.390 . S
C2329 H2322 0.950 . S
C2329 C2326 1.387 . S
C2330 C2331 1.387 . S
C2330 H2334 0.950 . S
C2330 C2339 1.390 . S
C2331 C2330 1.387 . S
C2331 C2333 1.387 . S
H2332 C2339 0.950 . S
C2333 C2331 1.387 . S
C2333 C2335 1.390 . S
C2333 H2337 0.950 . S
H2334 C2330 0.950 . S
C2335 C2333 1.390 . S
C2335 C2336 1.387 . S
C2335 H2338 0.950 . S
C2336 C2335 1.387 . S
C2336 C2339 1.387 . S
H2337 C2333 0.950 . S
H2338 C2335 0.950 . S
C2339 C2330 1.390 . S
C2339 H2332 0.950 . S
C2339 C2336 1.387 . S
C2340 C2341 1.387 . S
C2340 H2344 0.950 . S
C2340 C2349 1.390 . S
C2341 C2340 1.387 . S
C2341 C2343 1.387 . S
H2342 C2349 0.950 . S
C2343 C2341 1.387 . S
C2343 C2345 1.390 . S
C2343 H2347 0.950 . S
H2344 C2340 0.950 . S
C2345 C2343 1.390 . S
C2345 C2346 1.387 . S
C2345 H2348 0.950 . S
C2346 C2345 1.387 . S
C2346 C2349 1.387 . S
H2347 C2343 0.950 . S
H2348 C2345 0.950 . S
C2349 C2340 1.390 . S
C2349 H2342 0.950 . S
C2349 C2346 1.387 . S
C2350 C2351 1.387 1_556 S
C2350 H2354 0.950 . S
C2350 C2359 1.390 1_566 S
C2351 C2350 1.387 1_554 S
C2351 C2353 1.387 . S
H2352 C2359 0.921 1_556 S
C2353 C2351 1.387 . S
C2353 C2355 1.390 . S
C2353 H2357 0.950 . S
H2354 C2350 0.950 . S
C2355 C2353 1.390 . S
C2355 C2356 1.387 1_565 S
C2355 H2358 0.950 . S
C2356 C2355 1.387 1_545 S
C2356 C2359 1.417 . S
H2357 C2353 0.950 . S
H2358 C2355 0.950 . S
C2359 C2350 1.390 1_544 S
C2359 H2352 0.921 1_554 S
C2359 C2356 1.417 . S
C2360 C2361 1.387 . S
C2360 H2364 0.950 . S
C2360 C2369 1.390 . S
C2361 C2360 1.387 . S
C2361 C2363 1.387 . S
H2362 C2369 0.950 . S
C2363 C2361 1.387 . S
C2363 C2365 1.390 . S
C2363 H2367 0.950 . S
H2364 C2360 0.950 . S
C2365 C2363 1.390 . S
C2365 C2366 1.387 . S
C2365 H2368 0.950 . S
C2366 C2365 1.387 . S
C2366 C2369 1.387 . S
H2367 C2363 0.950 . S
H2368 C2365 0.950 . S
C2369 C2360 1.390 . S
C2369 H2362 0.950 . S
C2369 C2366 1.387 . S
C2370 C2371 1.387 . S
C2370 H2374 0.950 . S
C2370 C2379 1.390 . S
C2371 C2370 1.387 . S
C2371 C2373 1.387 . S
H2372 C2379 0.950 . S
C2373 C2371 1.387 . S
C2373 C2375 1.390 . S
C2373 H2377 0.950 1_554 S
H2374 C2370 0.950 . S
C2375 C2373 1.390 . S
C2375 C2376 1.387 . S
C2375 H2378 0.950 . S
C2376 C2375 1.387 . S
C2376 C2379 1.387 . S
H2377 C2373 0.950 1_556 S
H2378 C2375 0.950 . S
C2379 C2370 1.390 . S
C2379 H2372 0.950 . S
C2379 C2376 1.387 . S
C2380 C2381 1.387 . S
C2380 H2384 0.950 . S
C2380 C2389 1.390 . S
C2381 C2380 1.387 . S
C2381 C2383 1.387 . S
H2382 C2389 0.950 . S
C2383 C2381 1.387 . S
C2383 C2385 1.390 . S
C2383 H2387 0.950 . S
H2384 C2380 0.950 . S
C2385 C2383 1.390 . S
C2385 C2386 1.387 . S
C2385 H2388 0.950 . S
C2386 C2385 1.387 . S
C2386 C2389 1.387 . S
H2387 C2383 0.950 . S
H2388 C2385 0.950 . S
C2389 C2380 1.390 . S
C2389 H2382 0.950 . S
C2389 C2386 1.387 . S
C2390 C2391 1.387 . S
C2390 H2394 0.950 . S
C2390 C2399 1.390 . S
C2391 C2390 1.387 . S
C2391 C2393 1.387 . S
H2392 C2399 0.950 . S
C2393 C2391 1.387 . S
C2393 C2395 1.390 . S
C2393 H2397 0.950 . S
H2394 C2390 0.950 . S
C2395 C2393 1.390 . S
C2395 C2396 1.387 . S
C2395 H2398 0.950 . S
C2396 C2395 1.387 . S
C2396 C2399 1.387 . S
H2397 C2393 0.950 . S
H2398 C2395 0.950 . S
C2399 C2390 1.390 . S
C2399 H2392 0.950 . S
C2399 C2396 1.387 . S
C2400 C2401 1.387 . S
C2400 H2404 0.950 . S
C2400 C2409 1.390 . S
C2401 C2400 1.387 . S
C2401 C2403 1.387 . S
H2402 C2409 0.950 . S
C2403 C2401 1.387 . S
C2403 C2405 1.390 . S
C2403 H2407 0.950 . S
H2404 C2400 0.950 . S
C2405 C2403 1.390 . S
C2405 C2406 1.387 . S
C2405 H2408 0.950 . S
C2406 C2405 1.387 . S
C2406 C2409 1.387 . S
H2407 C2403 0.950 . S
H2408 C2405 0.950 . S
C2409 C2400 1.390 . S
C2409 H2402 0.950 . S
C2409 C2406 1.387 . S
C2410 C2411 1.387 . S
C2410 H2414 0.950 . S
C2410 C2419 1.390 . S
C2411 C2410 1.387 . S
C2411 C2413 1.387 . S
H2412 C2419 0.950 . S
C2413 C2411 1.387 . S
C2413 C2415 1.390 . S
C2413 H2417 0.950 . S
H2414 C2410 0.950 . S
C2415 C2413 1.390 . S
C2415 C2416 1.387 . S
C2415 H2418 0.950 . S
C2416 C2415 1.387 . S
C2416 C2419 1.387 . S
H2417 C2413 0.950 . S
H2418 C2415 0.950 . S
C2419 C2410 1.390 . S
C2419 H2412 0.950 . S
C2419 C2416 1.387 . S
C2420 C2421 1.387 . S
C2420 H2424 0.950 . S
C2420 C2429 1.390 . S
C2421 C2420 1.387 . S
C2421 C2423 1.387 . S
H2422 C2429 0.950 . S
C2423 C2421 1.387 . S
C2423 C2425 1.390 . S
C2423 H2427 0.950 . S
H2424 C2420 0.950 . S
C2425 C2423 1.390 . S
C2425 C2426 1.387 . S
C2425 H2428 0.950 . S
C2426 C2425 1.387 . S
C2426 C2429 1.387 . S
H2427 C2423 0.950 . S
H2428 C2425 0.950 . S
C2429 C2420 1.390 . S
C2429 H2422 0.950 . S
C2429 C2426 1.387 . S
C2430 C2431 1.387 . S
C2430 H2434 0.950 . S
C2430 C2439 1.390 . S
C2431 C2430 1.387 . S
C2431 C2433 1.387 . S
H2432 C2439 0.950 . S
C2433 C2431 1.387 . S
C2433 C2435 1.390 . S
C2433 H2437 0.950 . S
H2434 C2430 0.950 . S
C2435 C2433 1.390 . S
C2435 C2436 1.387 . S
C2435 H2438 0.950 . S
C2436 C2435 1.387 . S
C2436 C2439 1.387 . S
H2437 C2433 0.950 . S
H2438 C2435 0.950 . S
C2439 C2430 1.390 . S
C2439 H2432 0.950 . S
C2439 C2436 1.387 . S
C2440 C2441 1.387 . S
C2440 H2444 0.950 . S
C2440 C2449 1.390 . S
C2441 C2440 1.387 . S
C2441 C2443 1.387 . S
H2442 C2449 0.950 . S
C2443 C2441 1.387 . S
C2443 C2445 1.390 . S
C2443 H2447 0.950 . S
H2444 C2440 0.950 . S
C2445 C2443 1.390 . S
C2445 C2446 1.387 . S
C2445 H2448 0.950 1_556 S
C2446 C2445 1.387 . S
C2446 C2449 1.387 . S
H2447 C2443 0.950 . S
H2448 C2445 0.950 1_554 S
C2449 C2440 1.390 . S
C2449 H2442 0.950 . S
C2449 C2446 1.387 . S
C2450 C2451 1.387 . S
C2450 H2454 0.950 . S
C2450 C2459 1.390 . S
C2451 C2450 1.387 . S
C2451 C2453 1.387 . S
H2452 C2459 0.950 . S
C2453 C2451 1.387 . S
C2453 C2455 1.390 . S
C2453 H2457 0.950 . S
H2454 C2450 0.950 . S
C2455 C2453 1.390 . S
C2455 C2456 1.387 . S
C2455 H2458 0.950 . S
C2456 C2455 1.387 . S
C2456 C2459 1.387 . S
H2457 C2453 0.950 . S
H2458 C2455 0.950 . S
C2459 C2450 1.390 . S
C2459 H2452 0.950 . S
C2459 C2456 1.387 . S
C2460 C2461 1.387 . S
C2460 H2464 0.950 . S
C2460 C2469 1.390 . S
C2461 C2460 1.387 . S
C2461 C2463 1.387 . S
H2462 C2469 0.950 . S
C2463 C2461 1.387 . S
C2463 C2465 1.390 . S
C2463 H2467 0.950 . S
H2464 C2460 0.950 . S
C2465 C2463 1.390 . S
C2465 C2466 1.387 . S
C2465 H2468 0.950 . S
C2466 C2465 1.387 . S
C2466 C2469 1.387 . S
H2467 C2463 0.950 . S
H2468 C2465 0.950 . S
C2469 C2460 1.390 . S
C2469 H2462 0.950 . S
C2469 C2466 1.387 . S
C2470 C2471 1.387 . S
C2470 H2474 0.950 . S
C2470 C2479 1.390 . S
C2471 C2470 1.387 . S
C2471 C2473 1.387 . S
H2472 C2479 0.950 . S
C2473 C2471 1.387 . S
C2473 C2475 1.390 . S
C2473 H2477 0.950 . S
H2474 C2470 0.950 . S
C2475 C2473 1.390 . S
C2475 C2476 1.387 . S
C2475 H2478 0.950 . S
C2476 C2475 1.387 . S
C2476 C2479 1.387 . S
H2477 C2473 0.950 . S
H2478 C2475 0.950 . S
C2479 C2470 1.390 . S
C2479 H2472 0.950 . S
C2479 C2476 1.387 . S
C2480 C2481 1.387 . S
C2480 H2484 0.950 . S
C2480 C2489 1.390 . S
C2481 C2480 1.387 . S
C2481 C2483 1.387 . S
H2482 C2489 0.950 . S
C2483 C2481 1.387 . S
C2483 C2485 1.390 . S
C2483 H2487 0.950 . S
H2484 C2480 0.950 . S
C2485 C2483 1.390 . S
C2485 C2486 1.387 . S
C2485 H2488 0.950 . S
C2486 C2485 1.387 . S
C2486 C2489 1.387 . S
H2487 C2483 0.950 . S
H2488 C2485 0.950 . S
C2489 C2480 1.390 . S
C2489 H2482 0.950 . S
C2489 C2486 1.387 . S
C2490 C2491 1.387 . S
C2490 H2494 0.950 . S
C2490 C2499 1.390 . S
C2491 C2490 1.387 . S
C2491 C2493 1.387 . S
H2492 C2499 0.950 . S
C2493 C2491 1.387 . S
C2493 C2495 1.390 . S
C2493 H2497 0.950 . S
H2494 C2490 0.950 . S
C2495 C2493 1.390 . S
C2495 C2496 1.387 . S
C2495 H2498 0.950 . S
C2496 C2495 1.387 . S
C2496 C2499 1.387 . S
H2497 C2493 0.950 . S
H2498 C2495 0.950 . S
C2499 C2490 1.390 . S
C2499 H2492 0.950 . S
C2499 C2496 1.387 . S
C2500 C2501 1.387 . S
C2500 H2504 0.950 . S
C2500 C2509 1.390 1_655 S
C2501 C2500 1.387 . S
C2501 C2503 1.390 . S
H2502 C2509 0.950 . S
C2503 C2501 1.390 . S
C2503 C2505 1.381 1_655 S
C2503 H2507 0.956 . S
H2504 C2500 0.950 . S
C2505 C2503 1.381 1_455 S
C2505 C2506 1.387 . S
C2505 H2508 0.950 . S
C2506 C2505 1.387 . S
C2506 C2509 1.387 . S
H2507 C2503 0.956 . S
H2508 C2505 0.950 . S
C2509 C2500 1.390 1_455 S
C2509 H2502 0.950 . S
C2509 C2506 1.387 . S
C2510 C2511 1.387 . S
C2510 H2514 0.950 . S
C2510 C2519 1.390 . S
C2511 C2510 1.387 . S
C2511 C2513 1.387 . S
H2512 C2519 0.950 . S
C2513 C2511 1.387 . S
C2513 C2515 1.390 . S
C2513 H2517 0.950 . S
H2514 C2510 0.950 . S
C2515 C2513 1.390 . S
C2515 C2516 1.387 . S
C2515 H2518 0.950 . S
C2516 C2515 1.387 . S
C2516 C2519 1.387 . S
H2517 C2513 0.950 . S
H2518 C2515 0.950 . S
C2519 C2510 1.390 . S
C2519 H2512 0.950 . S
C2519 C2516 1.387 . S
C2520 C2521 1.387 . S
C2520 H2524 0.950 . S
C2520 C2529 1.390 . S
C2521 C2520 1.387 . S
C2521 C2523 1.387 . S
H2522 C2529 0.950 . S
C2523 C2521 1.387 . S
C2523 C2525 1.390 . S
C2523 H2527 0.950 . S
H2524 C2520 0.950 . S
C2525 C2523 1.390 . S
C2525 C2526 1.387 . S
C2525 H2528 0.950 . S
C2526 C2525 1.387 . S
C2526 C2529 1.387 . S
H2527 C2523 0.950 . S
H2528 C2525 0.950 . S
C2529 C2520 1.390 . S
C2529 H2522 0.950 . S
C2529 C2526 1.387 . S
C2530 C2531 1.387 . S
C2530 H2534 0.950 . S
C2530 C2539 1.390 . S
C2531 C2530 1.387 . S
C2531 C2533 1.387 . S
H2532 C2539 0.950 . S
C2533 C2531 1.387 . S
C2533 C2535 1.390 . S
C2533 H2537 0.950 . S
H2534 C2530 0.950 . S
C2535 C2533 1.390 . S
C2535 C2536 1.387 . S
C2535 H2538 0.950 . S
C2536 C2535 1.387 . S
C2536 C2539 1.387 . S
H2537 C2533 0.950 . S
H2538 C2535 0.950 . S
C2539 C2530 1.390 . S
C2539 H2532 0.950 . S
C2539 C2536 1.387 . S
C2540 C2541 1.387 . S
C2540 H2544 0.950 . S
C2540 C2549 1.390 . S
C2541 C2540 1.387 . S
C2541 C2543 1.387 . S
H2542 C2549 0.950 . S
C2543 C2541 1.387 . S
C2543 C2545 1.390 . S
C2543 H2547 0.950 . S
H2544 C2540 0.950 . S
C2545 C2543 1.390 . S
C2545 C2546 1.387 . S
C2545 H2548 0.950 . S
C2546 C2545 1.387 . S
C2546 C2549 1.387 . S
H2547 C2543 0.950 . S
H2548 C2545 0.950 . S
C2549 C2540 1.390 . S
C2549 H2542 0.950 . S
C2549 C2546 1.387 . S
C2550 C2551 1.387 . S
C2550 H2554 0.950 . S
C2550 C2559 1.390 . S
C2551 C2550 1.387 . S
C2551 C2553 1.387 . S
H2552 C2559 0.950 . S
C2553 C2551 1.387 . S
C2553 C2555 1.390 . S
C2553 H2557 0.950 . S
H2554 C2550 0.950 . S
C2555 C2553 1.390 . S
C2555 C2556 1.387 . S
C2555 H2558 0.950 . S
C2556 C2555 1.387 . S
C2556 C2559 1.387 . S
H2557 C2553 0.950 . S
H2558 C2555 0.950 . S
C2559 C2550 1.390 . S
C2559 H2552 0.950 . S
C2559 C2556 1.387 . S
C2560 C2561 1.387 . S
C2560 H2564 0.950 . S
C2560 C2569 1.390 . S
C2561 C2560 1.387 . S
C2561 C2563 1.387 . S
H2562 C2569 0.950 . S
C2563 C2561 1.387 . S
C2563 C2565 1.390 . S
C2563 H2567 0.950 . S
H2564 C2560 0.950 . S
C2565 C2563 1.390 . S
C2565 C2566 1.387 . S
C2565 H2568 0.950 . S
C2566 C2565 1.387 . S
C2566 C2569 1.387 . S
H2567 C2563 0.950 . S
H2568 C2565 0.950 . S
C2569 C2560 1.390 . S
C2569 H2562 0.950 . S
C2569 C2566 1.387 . S
C2570 C2571 1.387 . S
C2570 H2574 0.950 . S
C2570 C2579 1.390 . S
C2571 C2570 1.387 . S
C2571 C2573 1.387 . S
H2572 C2579 0.950 1_545 S
C2573 C2571 1.387 . S
C2573 C2575 1.390 . S
C2573 H2577 0.950 . S
H2574 C2570 0.950 . S
C2575 C2573 1.390 . S
C2575 C2576 1.387 . S
C2575 H2578 0.950 . S
C2576 C2575 1.387 . S
C2576 C2579 1.387 . S
H2577 C2573 0.950 . S
H2578 C2575 0.950 . S
C2579 C2570 1.390 . S
C2579 H2572 0.950 1_565 S
C2579 C2576 1.387 . S
C2580 C2581 1.387 . S
C2580 H2584 0.950 . S
C2580 C2589 1.390 . S
C2581 C2580 1.387 . S
C2581 C2583 1.387 . S
H2582 C2589 0.950 . S
C2583 C2581 1.387 . S
C2583 C2585 1.390 . S
C2583 H2587 0.950 . S
H2584 C2580 0.950 . S
C2585 C2583 1.390 . S
C2585 C2586 1.387 . S
C2585 H2588 0.950 . S
C2586 C2585 1.387 . S
C2586 C2589 1.387 . S
H2587 C2583 0.950 . S
H2588 C2585 0.950 . S
C2589 C2580 1.390 . S
C2589 H2582 0.950 . S
C2589 C2586 1.387 . S
C2590 C2591 1.387 . S
C2590 H2594 0.950 . S
C2590 C2599 1.390 . S
C2591 C2590 1.387 . S
C2591 C2593 1.387 . S
H2592 C2599 0.950 . S
C2593 C2591 1.387 . S
C2593 C2595 1.390 . S
C2593 H2597 0.950 . S
H2594 C2590 0.950 . S
C2595 C2593 1.390 . S
C2595 C2596 1.387 . S
C2595 H2598 0.950 . S
C2596 C2595 1.387 . S
C2596 C2599 1.387 . S
H2597 C2593 0.950 . S
H2598 C2595 0.950 . S
C2599 C2590 1.390 . S
C2599 H2592 0.950 . S
C2599 C2596 1.387 . S
C2600 C2601 1.387 . S
C2600 H2604 0.950 . S
C2600 C2609 1.390 . S
C2601 C2600 1.387 . S
C2601 C2603 1.387 . S
H2602 C2609 0.950 . S
C2603 C2601 1.387 . S
C2603 C2605 1.390 . S
C2603 H2607 0.950 . S
H2604 C2600 0.950 . S
C2605 C2603 1.390 . S
C2605 C2606 1.387 . S
C2605 H2608 0.950 . S
C2606 C2605 1.387 . S
C2606 C2609 1.387 . S
H2607 C2603 0.950 . S
H2608 C2605 0.950 . S
C2609 C2600 1.390 . S
C2609 H2602 0.950 . S
C2609 C2606 1.387 . S
C2610 C2611 1.387 . S
C2610 H2614 0.950 . S
C2610 C2619 1.390 . S
C2611 C2610 1.387 . S
C2611 C2613 1.387 . S
H2612 C2619 0.950 . S
C2613 C2611 1.387 . S
C2613 C2615 1.390 . S
C2613 H2617 0.950 . S
H2614 C2610 0.950 . S
C2615 C2613 1.390 . S
C2615 C2616 1.387 . S
C2615 H2618 0.950 1_554 S
C2616 C2615 1.387 . S
C2616 C2619 1.387 . S
H2617 C2613 0.950 . S
H2618 C2615 0.950 1_556 S
C2619 C2610 1.390 . S
C2619 H2612 0.950 . S
C2619 C2616 1.387 . S
C2620 C2621 1.387 . S
C2620 H2624 0.950 . S
C2620 C2629 1.390 . S
C2621 C2620 1.387 . S
C2621 C2623 1.387 . S
H2622 C2629 0.950 . S
C2623 C2621 1.387 . S
C2623 C2625 1.390 . S
C2623 H2627 0.950 . S
H2624 C2620 0.950 . S
C2625 C2623 1.390 . S
C2625 C2626 1.387 . S
C2625 H2628 0.950 . S
C2626 C2625 1.387 . S
C2626 C2629 1.387 . S
H2627 C2623 0.950 . S
H2628 C2625 0.950 . S
C2629 C2620 1.390 . S
C2629 H2622 0.950 . S
C2629 C2626 1.387 . S
C2630 C2631 1.387 . S
C2630 H2634 0.950 . S
C2630 C2639 1.390 . S
C2631 C2630 1.387 . S
C2631 C2633 1.387 . S
H2632 C2639 0.950 . S
C2633 C2631 1.387 . S
C2633 C2635 1.390 . S
C2633 H2637 0.950 . S
H2634 C2630 0.950 . S
C2635 C2633 1.390 . S
C2635 C2636 1.387 . S
C2635 H2638 0.950 . S
C2636 C2635 1.387 . S
C2636 C2639 1.387 . S
H2637 C2633 0.950 . S
H2638 C2635 0.950 . S
C2639 C2630 1.390 . S
C2639 H2632 0.950 . S
C2639 C2636 1.387 . S
C1681 C106 2.332 . S
C1686 C403 2.160 . S
C1691 C65 2.298 . S
C1696 C486 2.214 . S
C1701 C79 1.932 . S
C1706 C571 1.767 . S
C1716 C651 1.181 . S
C1711 C90 1.252 . S
C1721 C21 1.328 . S
C1726 C735 1.454 . S
C1736 C828 1.087 . S
C1731 C35 1.058 . S
C1746 C906 1.326 . S
C1741 C50 1.253 . S
C1751 C6 1.786 . S
C1756 C991 1.612 . S
C1766 C402 2.262 . S
C1761 C232 2.369 1_455 S
C1771 C245 0.909 . S
C1776 C483 0.953 . S
C1786 C570 1.319 . S
C1781 C274 1.417 . S
C1796 C655 1.611 . S
C1791 C175 1.695 . S
C1801 C231 1.907 1_455 S
C1806 C739 1.814 . S
C1816 C831 1.236 . S
C1811 C246 1.421 . S
C1826 C903 0.792 . S
C1821 C273 0.812 . S
C1836 C990 1.841 . S
C1831 C176 2.027 . S
C1846 C399 1.517 . S
C1841 C160 1.465 . S
C1851 C289 1.923 . S
C1856 C1074 1.842 . S
C1866 C1148 2.319 . S
C1861 C328 2.439 . S
C1876 C1243 0.861 . S
C1871 C317 0.889 . S
C1881 C118 1.478 . S
C1886 C987 1.869 . S
C1891 C132 1.474 . S
C1896 C567 1.601 . S
C1901 C331 2.245 . S
C1906 C1326 2.159 . S
C1916 C1411 1.013 . S
C1911 C303 1.122 . S
C1926 C392 1.850 . S
C1921 C63 2.010 . S
C1936 C1419 2.642 . S
C1931 C107 2.595 . S
C1941 C92 1.767 . S
C1946 C560 1.763 . S
C1951 C78 1.768 . S
C1956 C1332 1.597 . S
C1966 C744 1.773 . S
C1961 C8 1.812 . S
C1971 C51 1.257 . S
C1976 C1155 1.170 . S
C1986 C915 1.856 1_556 S
C1981 C37 1.628 . S
C1996 C1484 1.558 . S
C1991 C20 1.748 . S
C2006 C411 2.131 . S
C2001 C147 2.193 . S
C2016 C1416 0.945 . S
C2011 C316 0.986 . S
C2021 C119 1.214 . S
C2026 C579 1.253 . S
C2031 C288 1.799 . S
C2036 C1316 1.733 . S
C2041 C148 2.409 1_545 S
C2046 C728 2.163 . S
C2056 C1158 1.271 . S
C2051 C315 1.310 . S
C2061 C120 1.017 . S
C2066 C912 0.975 . S
C2071 C287 1.864 . S
C2076 C1503 1.704 . S
C2081 C188 1.408 . S
C2086 C408 1.399 . S
C2091 C177 2.183 . S
C2096 C1083 2.144 . S
C2101 C258 2.547 . S
C2106 C823 2.428 . S
C2111 C247 0.821 . S
C2116 C1232 0.808 . S
C2126 C1500 1.394 . S
C2121 C272 1.219 1_565 S
C2131 C216 1.417 . S
C2136 C576 1.493 . S
C2146 C663 2.355 . S
C2141 C261 2.413 . S
C2156 C476 0.915 . S
C2151 C205 0.969 . S
C2161 C76 1.905 . S
C2166 C1579 1.783 . S
C2176 C1410 2.287 . S
C2171 C93 2.381 . S
C2181 C105 1.639 1_554 S
C2186 C1663 1.515 . S
C2191 C62 1.282 . S
C2196 C1323 1.222 . S
C2201 C49 1.320 . S
C2206 C1071 1.454 . S
C2216 C1164 1.343 . S
C2211 C9 1.352 . S
C2226 C1242 1.300 . S
C2221 C22 1.208 1_455 S
C2236 C1495 1.988 . S
C2231 C36 2.283 . S
C2246 C1578 2.211 . S
C2241 C260 2.332 . S
C2251 C189 0.836 . S
C2256 C1407 0.839 . S
C2266 C1662 1.274 . S
C2261 C204 1.364 . S
C2276 C1327 1.514 . S
C2271 C217 1.583 . S
C2286 C1075 2.056 . S
C2281 C259 2.156 . S
C2291 C190 1.425 . S
C2296 C1167 1.278 . S
C2306 C1239 0.875 . S
C2301 C203 0.878 . S
C2311 C218 2.110 . S
C2316 C1494 1.914 . S
C2326 C1575 1.504 . S
C2321 C314 1.444 . S
C2331 C135 1.999 . S
C2336 C738 1.912 . S
C2346 C812 2.230 . S
C2341 C146 2.371 . S
C2356 C907 0.853 . S
C2351 C163 0.867 . S
C2366 C1491 1.834 . S
C2361 C300 1.463 . S
C2371 C286 1.483 . S
C2376 C1659 1.646 . S
C2386 C654 2.081 . S
C2381 C149 2.161 . S
C2396 C487 0.975 . S
C2391 C121 1.093 . S
C2401 C91 2.003 . S
C2406 C1568 1.851 . S
C2416 C495 2.224 . S
C2411 C77 2.119 . S
C2421 C64 1.737 . S
C2426 C1652 1.761 . S
C2431 C104 1.439 . S
C2436 C660 1.409 . S
C2441 C34 1.498 . S
C2446 C1080 1.618 1_556 S
C2456 C819 1.113 . S
C2451 C23 1.229 . S
C2461 C7 1.245 . S
C2466 C1251 1.494 . S
C2471 C48 1.720 . S
C2476 C980 1.543 . S
C2486 C1587 2.084 . S
C2481 C329 2.152 . S
C2491 C162 1.014 . S
C2496 C492 0.960 . S
C2506 C1671 1.209 . S
C2501 C301 1.172 . S
C2511 C134 1.816 . S
C2516 C644 1.755 . S
C2521 C330 2.367 . S
C2526 C1064 2.137 . S
C2536 C822 1.253 . S
C2531 C161 1.286 . S
C2541 C302 1.054 . S
C2546 C1248 0.988 1_655 S
C2556 C999 1.672 . S
C2551 C133 1.833 . S
C2566 C1584 1.499 . S
C2561 C244 1.521 . S
C2576 C747 2.103 1_665 S
C2571 C219 2.114 . S
C2581 C230 2.299 . S
C2586 C1159 2.150 . S
C2596 C896 0.785 . S
C2591 C191 0.795 . S
C2601 C202 1.287 . S
C2606 C996 1.438 . S
C2611 C174 1.533 . S
C2616 C1668 1.569 . S
C2626 C1335 2.340 . S
C2621 C233 2.377 1_565 S
C2636 C1400 0.929 . S
C2631 C275 0.999 . S
