# Generated by pormake.
# Topology ocu, (6,8)-cn, num edge types: 1
# Building blocks:
#     Node 0, Type 0, BuildingBlock: KUMJIN_clean_sbu_1, # of connection points: 6
#     Node 1, Type 0, BuildingBlock: KUMJIN_clean_sbu_1, # of connection points: 6
#     Node 2, Type 0, BuildingBlock: KUMJIN_clean_sbu_1, # of connection points: 6
#     Node 3, Type 0, BuildingBlock: KUMJIN_clean_sbu_1, # of connection points: 6
#     Node 4, Type 0, BuildingBlock: KUMJIN_clean_sbu_1, # of connection points: 6
#     Node 5, Type 0, BuildingBlock: KUMJIN_clean_sbu_1, # of connection points: 6
#     Node 6, Type 0, BuildingBlock: KUMJIN_clean_sbu_1, # of connection points: 6
#     Node 7, Type 0, BuildingBlock: KUMJIN_clean_sbu_1, # of connection points: 6
#     Node 8, Type 1, BuildingBlock: VETTIZ_charged_sbu_0, # of connection points: 8
#     Node 9, Type 1, BuildingBlock: VETTIZ_charged_sbu_0, # of connection points: 8
#     Node 10, Type 1, BuildingBlock: VETTIZ_charged_sbu_0, # of connection points: 8
#     Node 11, Type 1, BuildingBlock: VETTIZ_charged_sbu_0, # of connection points: 8
#     Node 12, Type 1, BuildingBlock: VETTIZ_charged_sbu_0, # of connection points: 8
#     Node 13, Type 1, BuildingBlock: VETTIZ_charged_sbu_0, # of connection points: 8
#     Edge 14, Type (0, 1), BuildingBlock: OJICUG_clean_linker_0, # of connection points: 2
#     Edge 15, Type (0, 1), BuildingBlock: OJICUG_clean_linker_0, # of connection points: 2
#     Edge 16, Type (0, 1), BuildingBlock: OJICUG_clean_linker_0, # of connection points: 2
#     Edge 17, Type (0, 1), BuildingBlock: OJICUG_clean_linker_0, # of connection points: 2
#     Edge 18, Type (0, 1), BuildingBlock: OJICUG_clean_linker_0, # of connection points: 2
#     Edge 19, Type (0, 1), BuildingBlock: OJICUG_clean_linker_0, # of connection points: 2
#     Edge 20, Type (0, 1), BuildingBlock: OJICUG_clean_linker_0, # of connection points: 2
#     Edge 21, Type (0, 1), BuildingBlock: OJICUG_clean_linker_0, # of connection points: 2
#     Edge 22, Type (0, 1), BuildingBlock: OJICUG_clean_linker_0, # of connection points: 2
#     Edge 23, Type (0, 1), BuildingBlock: OJICUG_clean_linker_0, # of connection points: 2
#     Edge 24, Type (0, 1), BuildingBlock: OJICUG_clean_linker_0, # of connection points: 2
#     Edge 25, Type (0, 1), BuildingBlock: OJICUG_clean_linker_0, # of connection points: 2
#     Edge 26, Type (0, 1), BuildingBlock: OJICUG_clean_linker_0, # of connection points: 2
#     Edge 27, Type (0, 1), BuildingBlock: OJICUG_clean_linker_0, # of connection points: 2
#     Edge 28, Type (0, 1), BuildingBlock: OJICUG_clean_linker_0, # of connection points: 2
#     Edge 29, Type (0, 1), BuildingBlock: OJICUG_clean_linker_0, # of connection points: 2
#     Edge 30, Type (0, 1), BuildingBlock: OJICUG_clean_linker_0, # of connection points: 2
#     Edge 31, Type (0, 1), BuildingBlock: OJICUG_clean_linker_0, # of connection points: 2
#     Edge 32, Type (0, 1), BuildingBlock: OJICUG_clean_linker_0, # of connection points: 2
#     Edge 33, Type (0, 1), BuildingBlock: OJICUG_clean_linker_0, # of connection points: 2
#     Edge 34, Type (0, 1), BuildingBlock: OJICUG_clean_linker_0, # of connection points: 2
#     Edge 35, Type (0, 1), BuildingBlock: OJICUG_clean_linker_0, # of connection points: 2
#     Edge 36, Type (0, 1), BuildingBlock: OJICUG_clean_linker_0, # of connection points: 2
#     Edge 37, Type (0, 1), BuildingBlock: OJICUG_clean_linker_0, # of connection points: 2
#     Edge 38, Type (0, 1), BuildingBlock: OJICUG_clean_linker_0, # of connection points: 2
#     Edge 39, Type (0, 1), BuildingBlock: OJICUG_clean_linker_0, # of connection points: 2
#     Edge 40, Type (0, 1), BuildingBlock: OJICUG_clean_linker_0, # of connection points: 2
#     Edge 41, Type (0, 1), BuildingBlock: OJICUG_clean_linker_0, # of connection points: 2
#     Edge 42, Type (0, 1), BuildingBlock: OJICUG_clean_linker_0, # of connection points: 2
#     Edge 43, Type (0, 1), BuildingBlock: OJICUG_clean_linker_0, # of connection points: 2
#     Edge 44, Type (0, 1), BuildingBlock: OJICUG_clean_linker_0, # of connection points: 2
#     Edge 45, Type (0, 1), BuildingBlock: OJICUG_clean_linker_0, # of connection points: 2
#     Edge 46, Type (0, 1), BuildingBlock: OJICUG_clean_linker_0, # of connection points: 2
#     Edge 47, Type (0, 1), BuildingBlock: OJICUG_clean_linker_0, # of connection points: 2
#     Edge 48, Type (0, 1), BuildingBlock: OJICUG_clean_linker_0, # of connection points: 2
#     Edge 49, Type (0, 1), BuildingBlock: OJICUG_clean_linker_0, # of connection points: 2
#     Edge 50, Type (0, 1), BuildingBlock: OJICUG_clean_linker_0, # of connection points: 2
#     Edge 51, Type (0, 1), BuildingBlock: OJICUG_clean_linker_0, # of connection points: 2
#     Edge 52, Type (0, 1), BuildingBlock: OJICUG_clean_linker_0, # of connection points: 2
#     Edge 53, Type (0, 1), BuildingBlock: OJICUG_clean_linker_0, # of connection points: 2
#     Edge 54, Type (0, 1), BuildingBlock: OJICUG_clean_linker_0, # of connection points: 2
#     Edge 55, Type (0, 1), BuildingBlock: OJICUG_clean_linker_0, # of connection points: 2
#     Edge 56, Type (0, 1), BuildingBlock: OJICUG_clean_linker_0, # of connection points: 2
#     Edge 57, Type (0, 1), BuildingBlock: OJICUG_clean_linker_0, # of connection points: 2
#     Edge 58, Type (0, 1), BuildingBlock: OJICUG_clean_linker_0, # of connection points: 2
#     Edge 59, Type (0, 1), BuildingBlock: OJICUG_clean_linker_0, # of connection points: 2
#     Edge 60, Type (0, 1), BuildingBlock: OJICUG_clean_linker_0, # of connection points: 2
#     Edge 61, Type (0, 1), BuildingBlock: OJICUG_clean_linker_0, # of connection points: 2
# Relax obj value: 0.101
# Max RMSD: 0.134
# Mean RMSD: 0.107
data_MOF--net-ocu--node1-KUMJIN_clean_sbu_1--node2-VETTIZ_charged_sbu_0--edge1-OJICUG_clean_linker_0
_symmetry_space_group_name_H-M    P1
_symmetry_Int_Tables_number       1
_symmetry_cell_setting            triclinic
loop_
_symmetry_equiv_pos_as_xyz
'x, y, z'
_cell_length_a     30.145789
_cell_length_b     30.542094
_cell_length_c     31.539418
_cell_angle_alpha  102.64789
_cell_angle_beta   78.150508
_cell_angle_gamma 107.09688
loop_
_atom_site_label
_atom_site_type_symbol
_atom_site_fract_x
_atom_site_fract_y
_atom_site_fract_z
_atom_type_partial_charge
Eu0 Eu 0.23913 0.2603 0.24667 0.0
C1 C 0.37581 0.40398 0.37262 0.0
N2 N 0.38743 0.37743 0.33355 0.0
C3 C 0.45375 0.43972 0.31455 0.0
C4 C 0.40264 0.45005 0.38382 0.0
C5 C 0.4264 0.3941 0.30502 0.0
C6 C 0.44162 0.46796 0.35394 0.0
C7 C 0.32633 0.41054 0.44379 0.0
C8 C 0.33796 0.38453 0.40228 0.0
C9 C 0.35232 0.45676 0.45459 0.0
C10 C 0.3903 0.47648 0.42467 0.0
Eu11 Eu 0.33736 0.30193 0.31995 0.0
N12 N 0.31292 0.33989 0.39079 0.0
C13 C 0.28935 0.38906 0.47351 0.0
C14 C 0.27846 0.31806 0.42039 0.0
C15 C 0.2657 0.34245 0.46192 0.0
H16 H 0.43688 0.37209 0.27511 0.0
H17 H 0.23779 0.32524 0.48503 0.0
H18 H 0.14305 0.18516 0.29087 0.0
H19 H 0.34258 0.24172 0.08331 0.0
H20 H 0.26065 0.28198 0.41197 0.0
H21 H 0.2794 0.40786 0.50575 0.0
H22 H 0.31711 0.28309 0.1567 0.0
H23 H 0.4844 0.45295 0.29167 0.0
H24 H 0.34371 0.47737 0.48623 0.0
H25 H 0.41037 0.51201 0.43372 0.0
H26 H 0.09885 0.10336 0.27311 0.0
H27 H 0.46308 0.5032 0.36134 0.0
H28 H 0.30346 0.15868 0.06075 0.0
N29 N 0.19258 0.183 0.23212 0.0
C30 C 0.20505 0.15765 0.19265 0.0
C31 C 0.12887 0.11808 0.25035 0.0
C32 C 0.18007 0.11097 0.18078 0.0
C33 C 0.15447 0.1643 0.26057 0.0
C34 C 0.1419 0.09118 0.21042 0.0
N35 N 0.26578 0.22373 0.17597 0.0
C36 C 0.30035 0.24682 0.14736 0.0
C37 C 0.2554 0.15378 0.12189 0.0
C38 C 0.2423 0.17874 0.16354 0.0
C39 C 0.29233 0.17666 0.09304 0.0
C40 C 0.31459 0.22351 0.10569 0.0
H41 H 0.12183 0.05543 0.20251 0.0
H42 H 0.17489 0.04979 0.13004 0.0
H43 H 0.2408 0.08728 0.07848 0.0
O44 O 0.22621 0.31282 0.21689 0.0
O45 O 0.29437 0.21737 0.23278 0.0
O46 O 0.36268 0.26992 0.25003 0.0
O47 O 0.1702 0.25171 0.22984 0.0
O48 O 0.29305 0.33023 0.23838 0.0
O49 O 0.36207 0.32435 0.253 0.0
O50 O 0.35252 0.24192 0.33446 0.0
O51 O 0.28007 0.34365 0.33794 0.0
O52 O 0.21243 0.29352 0.31551 0.0
O53 O 0.40109 0.30978 0.34704 0.0
O54 O 0.28198 0.23499 0.33393 0.0
O55 O 0.21438 0.23872 0.31391 0.0
C56 C 0.34081 0.23002 0.22851 0.0
C57 C 0.16683 0.28747 0.1715 0.0
C58 C 0.13996 0.32614 0.12575 0.0
C59 C 0.12645 0.28351 0.09784 0.0
C60 C 0.15483 0.24536 0.14238 0.0
C61 C 0.13471 0.24353 0.10568 0.0
C62 C 0.16029 0.328 0.16249 0.0
C63 C 0.33923 0.34089 0.23169 0.0
C64 C 0.183 0.28959 0.21293 0.0
C65 C 0.19357 0.08573 0.13964 0.0
C66 C 0.23109 0.10708 0.11026 0.0
C67 C 0.23369 0.33148 0.34012 0.0
C68 C 0.39363 0.25537 0.39312 0.0
C69 C 0.40768 0.20186 0.43288 0.0
C70 C 0.39222 0.22832 0.47261 0.0
C71 C 0.37951 0.28197 0.43312 0.0
C72 C 0.40791 0.21559 0.39311 0.0
C73 C 0.37862 0.26827 0.47271 0.0
C74 C 0.23603 0.22343 0.33755 0.0
C75 C 0.39028 0.26614 0.35104 0.0
H76 H 0.10963 0.28127 0.06996 0.0
H77 H 0.16002 0.2138 0.14848 0.0
H78 H 0.12482 0.21091 0.08365 0.0
H79 H 0.16955 0.36063 0.18482 0.0
H80 H 0.39153 0.21853 0.50366 0.0
H81 H 0.36872 0.31291 0.4338 0.0
H82 H 0.4184 0.19495 0.36207 0.0
H83 H 0.36737 0.28863 0.50355 0.0
Eu84 Eu 0.7517 0.32761 0.29838 0.0
C85 C 0.90962 0.23425 0.19918 0.0
N86 N 0.86283 0.21333 0.2053 0.0
C87 C 0.86697 0.17823 0.12926 0.0
C88 C 0.93684 0.22872 0.15723 0.0
C89 C 0.84142 0.18476 0.17143 0.0
C90 C 0.9148 0.20064 0.12202 0.0
C91 C 0.97929 0.28078 0.23028 0.0
C92 C 0.93033 0.26063 0.23521 0.0
C93 C 1.00633 0.27654 0.18837 0.0
C94 C 0.98513 0.25073 0.1519 0.0
Eu95 Eu 0.82132 0.22925 0.27663 0.0
N96 N 0.90334 0.26371 0.27547 0.0
C97 C 0.99998 0.30278 0.2679 0.0
C98 C 0.92435 0.28021 0.31238 0.0
C99 C 0.97252 0.30149 0.30921 0.0
H100 H 0.80448 0.16759 0.17691 0.0
H101 H 0.98856 0.31599 0.33868 0.0
H102 H 0.80319 0.41556 0.37193 0.0
H103 H 0.57468 0.20932 0.31421 0.0
H104 H 0.90434 0.27653 0.34452 0.0
H105 H 0.03743 0.31869 0.26551 0.0
H106 H 0.65389 0.24076 0.27671 0.0
H107 H 0.84975 0.15604 0.10235 0.0
H108 H 0.04389 0.29199 0.18406 0.0
H109 H 1.0066 0.24712 0.1199 0.0
H110 H 0.78367 0.45312 0.44848 0.0
H111 H 0.93449 0.19555 0.0893 0.0
H112 H 0.54892 0.24548 0.38993 0.0
N113 N 0.73612 0.36717 0.37062 0.0
C114 C 0.69204 0.35245 0.39251 0.0
C115 C 0.75756 0.42503 0.43302 0.0
C116 C 0.67916 0.37374 0.43594 0.0
C117 C 0.7687 0.4032 0.38991 0.0
C118 C 0.71256 0.41044 0.45606 0.0
N119 N 0.67437 0.29323 0.33088 0.0
C120 C 0.64386 0.25654 0.3098 0.0
C121 C 0.61486 0.29781 0.39467 0.0
C122 C 0.66025 0.31467 0.37206 0.0
C123 C 0.58402 0.25936 0.37359 0.0
C124 C 0.59851 0.2388 0.33093 0.0
H125 H 0.70407 0.42752 0.48946 0.0
H126 H 0.62332 0.37325 0.49157 0.0
H127 H 0.56705 0.30693 0.45544 0.0
O128 O 0.71429 0.34439 0.25411 0.0
O129 O 0.74262 0.28679 0.35309 0.0
O130 O 0.74591 0.21825 0.30955 0.0
O131 O 0.74714 0.39857 0.30321 0.0
O132 O 0.73393 0.26899 0.23939 0.0
O133 O 0.75419 0.20292 0.24579 0.0
O134 O 0.83119 0.19376 0.32638 0.0
O135 O 0.83321 0.27175 0.22142 0.0
O136 O 0.82466 0.3431 0.25876 0.0
O137 O 0.81969 0.15507 0.26106 0.0
O138 O 0.83195 0.28828 0.33656 0.0
O139 O 0.82652 0.35307 0.31401 0.0
C140 C 0.7334 0.24168 0.34779 0.0
C141 C 0.73809 0.42094 0.23901 0.0
C142 C 0.71562 0.46452 0.19417 0.0
C143 C 0.76367 0.48525 0.18154 0.0
C144 C 0.78563 0.44127 0.22535 0.0
C145 C 0.79825 0.47337 0.19676 0.0
C146 C 0.70332 0.43226 0.22312 0.0
C147 C 0.73154 0.22393 0.22822 0.0
C148 C 0.72375 0.38853 0.27047 0.0
C149 C 0.63382 0.35726 0.45822 0.0
C150 C 0.60178 0.31945 0.43765 0.0
C151 C 0.84281 0.31715 0.22454 0.0
C152 C 0.82861 0.11087 0.31357 0.0
C153 C 0.84175 0.07081 0.36811 0.0
C154 C 0.83498 0.02938 0.3371 0.0
C155 C 0.82191 0.06884 0.28378 0.0
C156 C 0.83746 0.11136 0.35598 0.0
C157 C 0.82484 0.02849 0.29563 0.0
C158 C 0.84383 0.33382 0.33822 0.0
C159 C 0.82599 0.15379 0.30029 0.0
H160 H 0.77473 0.51103 0.16016 0.0
H161 H 0.81284 0.43264 0.23708 0.0
H162 H 0.83498 0.48937 0.18659 0.0
H163 H 0.66672 0.41545 0.23309 0.0
H164 H 0.83898 0.99772 0.34403 0.0
H165 H 0.81457 0.06712 0.25116 0.0
H166 H 0.84122 0.14353 0.37925 0.0
H167 H 0.82018 0.99645 0.27214 0.0
Eu168 Eu 0.76963 0.73222 0.32204 0.0
C169 C 0.91393 0.87801 0.20339 0.0
N170 N 0.88609 0.88619 0.24245 0.0
C171 C 0.94493 0.95469 0.26569 0.0
C172 C 0.95908 0.90782 0.1943 0.0
C173 C 0.90023 0.92451 0.27297 0.0
C174 C 0.97468 0.94609 0.22634 0.0
C175 C 0.92375 0.83276 0.13004 0.0
C176 C 0.8966 0.8407 0.17166 0.0
C177 C 0.9691 0.86185 0.12125 0.0
C178 C 0.98676 0.89915 0.15333 0.0
Eu179 Eu 0.81145 0.83345 0.25117 0.0
N180 N 0.85298 0.81237 0.18136 0.0
C181 C 0.90431 0.796 0.09837 0.0
C182 C 0.83292 0.77798 0.15003 0.0
C183 C 0.85855 0.76878 0.1083 0.0
H184 H 0.87653 0.93247 0.3024 0.0
H185 H 0.84294 0.74089 0.08376 0.0
H186 H 0.68003 0.65483 0.27428 0.0
H187 H 0.77171 0.83157 0.48804 0.0
H188 H 0.79735 0.75751 0.15746 0.0
H189 H 0.92406 0.78877 0.06601 0.0
H190 H 0.80565 0.80505 0.41211 0.0
H191 H 0.95612 0.9849 0.29012 0.0
H192 H 0.99062 0.85607 0.08958 0.0
H193 H 1.02161 0.92159 0.14585 0.0
H194 H 0.59575 0.61997 0.29516 0.0
H195 H 1.00915 0.96979 0.22061 0.0
H196 H 0.68773 0.80013 0.51377 0.0
N197 N 0.68824 0.69811 0.33657 0.0
C198 C 0.66768 0.70979 0.37863 0.0
C199 C 0.61547 0.6455 0.31879 0.0
C200 C 0.61961 0.69006 0.39207 0.0
C201 C 0.66319 0.66594 0.30686 0.0
C202 C 0.59353 0.65769 0.3615 0.0
N203 N 0.74079 0.76164 0.39437 0.0
C204 C 0.76866 0.79232 0.42256 0.0
C205 C 0.67398 0.75555 0.45175 0.0
C206 C 0.69467 0.74216 0.40834 0.0
C207 C 0.70208 0.78859 0.48034 0.0
C208 C 0.74962 0.80678 0.4658 0.0
H209 H 0.55655 0.64167 0.37063 0.0
H210 H 0.56221 0.68828 0.44633 0.0
H211 H 0.60963 0.74555 0.49839 0.0
O212 O 0.80989 0.70754 0.3592 0.0
O213 O 0.72456 0.78559 0.33639 0.0
O214 O 0.77535 0.85493 0.32099 0.0
O215 O 0.75043 0.65975 0.3291 0.0
O216 O 0.8409 0.78396 0.32877 0.0
O217 O 0.83257 0.85329 0.31869 0.0
O218 O 0.7607 0.83927 0.21359 0.0
O219 O 0.85731 0.78011 0.2315 0.0
O220 O 0.81203 0.71225 0.25591 0.0
O221 O 0.81302 0.90069 0.23696 0.0
O222 O 0.74183 0.77944 0.24885 0.0
O223 O 0.75316 0.71055 0.25276 0.0
C224 C 0.73604 0.83158 0.34232 0.0
C225 C 0.78767 0.6257 0.36949 0.0
C226 C 0.83205 0.58873 0.40072 0.0
C227 C 0.79276 0.55044 0.40399 0.0
C228 C 0.74891 0.58675 0.3728 0.0
C229 C 0.75157 0.54938 0.38991 0.0
C230 C 0.82955 0.62644 0.38323 0.0
C231 C 0.85215 0.82968 0.336 0.0
C232 C 0.78312 0.66523 0.35243 0.0
C233 C 0.59908 0.70315 0.43544 0.0
C234 C 0.62613 0.7358 0.46514 0.0
C235 C 0.84944 0.73511 0.23212 0.0
C236 C 0.73989 0.91029 0.23068 0.0
C237 C 0.68564 0.94445 0.20964 0.0
C238 C 0.6712 0.95995 0.25437 0.0
C239 C 0.72536 0.92628 0.27504 0.0
C240 C 0.71981 0.91915 0.19819 0.0
C241 C 0.69101 0.95085 0.28681 0.0
C242 C 0.73719 0.73538 0.23357 0.0
C243 C 0.77591 0.88436 0.21752 0.0
H244 H 0.79414 0.52122 0.41734 0.0
H245 H 0.71625 0.58534 0.36261 0.0
H246 H 0.7215 0.51962 0.39251 0.0
H247 H 0.85967 0.65627 0.38097 0.0
H248 H 0.64541 0.97999 0.26424 0.0
H249 H 0.74093 0.92012 0.30036 0.0
H250 H 0.73088 0.90623 0.16395 0.0
H251 H 0.68008 0.96328 0.32114 0.0
Eu252 Eu 0.25908 0.81828 0.28734 0.0
C253 C 0.33439 0.67684 0.3501 0.0
N254 N 0.35939 0.71409 0.33074 0.0
C255 C 0.41753 0.73182 0.37802 0.0
C256 C 0.34988 0.66602 0.38489 0.0
C257 C 0.40077 0.7412 0.3437 0.0
C258 C 0.3919 0.69417 0.39883 0.0
C259 C 0.26596 0.61093 0.35509 0.0
C260 C 0.29294 0.64957 0.33532 0.0
C261 C 0.28121 0.60019 0.38982 0.0
C262 C 0.32306 0.62762 0.40465 0.0
Eu263 Eu 0.32792 0.72759 0.27363 0.0
N264 N 0.27856 0.66129 0.30218 0.0
C265 C 0.22434 0.5843 0.33946 0.0
C266 C 0.23889 0.63445 0.2858 0.0
C267 C 0.21094 0.59595 0.30446 0.0
H268 H 0.42146 0.76961 0.32708 0.0
H269 H 0.17922 0.57511 0.29163 0.0
H270 H 0.14694 0.78347 0.26921 0.0
H271 H 0.40403 0.95864 0.23076 0.0
H272 H 0.22869 0.64213 0.25814 0.0
H273 H 0.20257 0.55447 0.35387 0.0
H274 H 0.36431 0.89545 0.27391 0.0
H275 H 0.45033 0.75347 0.38823 0.0
H276 H 0.26088 0.57069 0.40543 0.0
H277 H 0.33441 0.61883 0.43143 0.0
H278 H 0.09942 0.79758 0.22066 0.0
H279 H 0.405 0.68698 0.42541 0.0
H280 H 0.36258 0.97536 0.17856 0.0
N281 N 0.20958 0.83055 0.245 0.0
C282 C 0.23034 0.86249 0.21802 0.0
C283 C 0.13619 0.81593 0.21954 0.0
C284 C 0.20428 0.87248 0.19067 0.0
C285 C 0.16317 0.80769 0.24664 0.0
C286 C 0.15685 0.84833 0.19134 0.0
N287 N 0.30197 0.87628 0.24534 0.0
C288 C 0.34615 0.90269 0.25115 0.0
C289 C 0.29877 0.92203 0.19339 0.0
C290 C 0.27741 0.88661 0.21884 0.0
C291 C 0.34506 0.9477 0.19738 0.0
C292 C 0.36859 0.9384 0.22684 0.0
H293 H 0.13571 0.85492 0.17068 0.0
H294 H 0.20658 0.91466 0.14282 0.0
H295 H 0.289 0.95833 0.14559 0.0
O296 O 0.21523 0.86636 0.31579 0.0
O297 O 0.30453 0.80568 0.22094 0.0
O298 O 0.36571 0.79019 0.24043 0.0
O299 O 0.26813 0.86131 0.35111 0.0
O300 O 0.31244 0.83089 0.33414 0.0
O301 O 0.37136 0.8002 0.29439 0.0
O302 O 0.33479 0.67459 0.21608 0.0
O303 O 0.27894 0.73943 0.33894 0.0
O304 O 0.21701 0.75771 0.3212 0.0
O305 O 0.39437 0.70834 0.25054 0.0
O306 O 0.27443 0.71463 0.22674 0.0
O307 O 0.21399 0.74653 0.26352 0.0
C308 C 0.34802 0.80293 0.2121 0.0
C309 C 0.26903 0.9362 0.34266 0.0
C310 C 0.26416 1.01444 0.34609 0.0
C311 C 0.31238 0.03174 0.34833 0.0
C312 C 0.31684 0.95378 0.34752 0.0
C313 C 0.33892 1.00104 0.34794 0.0
C314 C 0.24504 0.96616 0.33638 0.0
C315 C 0.35646 0.82964 0.32687 0.0
C316 C 0.24337 0.88729 0.3449 0.0
C317 C 0.22605 0.90662 0.1641 0.0
C318 C 0.27304 0.93146 0.16562 0.0
C319 C 0.23443 0.74041 0.34678 0.0
C320 C 0.40567 0.70792 0.17386 0.0
C321 C 0.40612 0.71445 0.0976 0.0
C322 C 0.44587 0.75276 0.10085 0.0
C323 C 0.44731 0.74386 0.17512 0.0
C324 C 0.38435 0.69546 0.13603 0.0
C325 C 0.46664 0.76668 0.13907 0.0
C326 C 0.23065 0.71737 0.23126 0.0
C327 C 0.38051 0.687 0.21311 0.0
H328 H 0.32779 0.06881 0.35613 0.0
H329 H 0.33714 0.93134 0.35127 0.0
H330 H 0.37559 1.01434 0.35181 0.0
H331 H 0.20794 0.95239 0.33388 0.0
H332 H 0.46316 0.76935 0.07262 0.0
H333 H 0.46412 0.75536 0.2043 0.0
H334 H 0.35204 0.66808 0.13599 0.0
H335 H 0.49827 0.7949 0.14052 0.0
Eu336 Eu 0.24941 0.82238 0.79004 0.0
C337 C 0.37903 0.68632 0.68183 0.0
N338 N 0.33425 0.6767 0.70351 0.0
C339 C 0.31181 0.60979 0.64867 0.0
C340 C 0.39188 0.65758 0.64243 0.0
C341 C 0.30074 0.63896 0.6878 0.0
C342 C 0.35755 0.61912 0.62586 0.0
C343 C 0.45907 0.73542 0.67744 0.0
C344 C 0.41223 0.72511 0.69904 0.0
C345 C 0.47195 0.70658 0.63843 0.0
C346 C 0.43845 0.6679 0.6209 0.0
Eu347 Eu 0.32073 0.72608 0.77081 0.0
N348 N 0.39851 0.75341 0.73618 0.0
C349 C 0.49148 0.77483 0.69537 0.0
C350 C 0.43012 0.79153 0.75406 0.0
C351 C 0.47689 0.80299 0.7338 0.0
H352 H 0.26577 0.63041 0.70607 0.0
H353 H 0.50174 0.83341 0.748 0.0
H354 H 0.27433 0.89499 0.88331 0.0
H355 H 0.078 0.71184 0.75114 0.0
H356 H 0.4198 0.81309 0.78408 0.0
H357 H 0.52774 0.7839 0.67974 0.0
H358 H 0.15884 0.75949 0.73452 0.0
H359 H 0.28522 0.57977 0.63642 0.0
H360 H 0.50772 0.71407 0.62138 0.0
H361 H 0.44894 0.64613 0.59066 0.0
H362 H 0.23714 0.91098 0.96056 0.0
H363 H 0.36607 0.59623 0.59569 0.0
H364 H 0.03954 0.71357 0.82855 0.0
N365 N 0.21504 0.84244 0.86362 0.0
C366 C 0.1697 0.81913 0.87539 0.0
C367 C 0.21787 0.88485 0.937 0.0
C368 C 0.14711 0.82675 0.91914 0.0
C369 C 0.23896 0.87566 0.89332 0.0
C370 C 0.17188 0.86 0.95008 0.0
N371 N 0.16886 0.78106 0.80149 0.0
C372 C 0.14373 0.75756 0.76829 0.0
C373 C 0.09922 0.76231 0.85469 0.0
C374 C 0.14631 0.7869 0.84358 0.0
C375 C 0.0754 0.7332 0.82117 0.0
C376 C 0.09722 0.73186 0.77759 0.0
H377 H 0.15575 0.86692 0.98401 0.0
H378 H 0.08302 0.80588 0.96415 0.0
H379 H 0.0409 0.74955 0.90757 0.0
O380 O 0.21847 0.84962 0.74764 0.0
O381 O 0.24361 0.78176 0.84529 0.0
O382 O 0.24616 0.71014 0.80633 0.0
O383 O 0.25102 0.89617 0.80086 0.0
O384 O 0.24178 0.76482 0.72865 0.0
O385 O 0.2472 0.70069 0.75212 0.0
O386 O 0.34922 0.71536 0.82512 0.0
O387 O 0.33735 0.76715 0.71497 0.0
O388 O 0.32208 0.83665 0.75005 0.0
O389 O 0.33102 0.65869 0.77172 0.0
O390 O 0.34037 0.7888 0.82541 0.0
O391 O 0.31936 0.85325 0.81607 0.0
C392 C 0.23054 0.73628 0.84167 0.0
C393 C 0.25533 0.92694 0.73626 0.0
C394 C 0.25219 0.96322 0.67497 0.0
C395 C 0.29864 0.98968 0.67734 0.0
C396 C 0.30175 0.95401 0.73788 0.0
C397 C 0.32312 0.98515 0.70858 0.0
C398 C 0.23074 0.93193 0.70487 0.0
C399 C 0.23155 0.71923 0.72607 0.0
C400 C 0.23229 0.89269 0.76622 0.0
C401 C 0.10082 0.80087 0.93062 0.0
C402 C 0.07694 0.76864 0.89846 0.0
C403 C 0.33848 0.81042 0.71513 0.0
C404 C 0.33175 0.63858 0.83931 0.0
C405 C 0.35302 0.59058 0.8803 0.0
C406 C 0.30482 0.57007 0.89242 0.0
C407 C 0.28403 0.61828 0.85204 0.0
C408 C 0.36593 0.62514 0.8538 0.0
C409 C 0.27071 0.58424 0.87872 0.0
C410 C 0.3431 0.8339 0.83421 0.0
C411 C 0.34727 0.67186 0.80884 0.0
H412 H 0.3164 1.013 0.65426 0.0
H413 H 0.32177 0.95074 0.76134 0.0
H414 H 0.35908 1.00542 0.70968 0.0
H415 H 0.19478 0.91141 0.70385 0.0
H416 H 0.29333 0.54269 0.91208 0.0
H417 H 0.25732 0.62822 0.84083 0.0
H418 H 0.40268 0.64187 0.84435 0.0
H419 H 0.23384 0.56818 0.88821 0.0
Eu420 Eu 0.26107 0.22437 0.81491 0.0
C421 C 0.4111 0.35943 0.6989 0.0
N422 N 0.38342 0.36968 0.73766 0.0
C423 C 0.44732 0.4316 0.76299 0.0
C424 C 0.45856 0.38467 0.6912 0.0
C425 C 0.4004 0.40601 0.76909 0.0
C426 C 0.47663 0.42069 0.72405 0.0
C427 C 0.41938 0.31383 0.62552 0.0
C428 C 0.39167 0.32439 0.66615 0.0
C429 C 0.46678 0.3385 0.6181 0.0
C430 C 0.4863 0.37378 0.65082 0.0
Eu431 Eu 0.30465 0.32464 0.74278 0.0
N432 N 0.3459 0.30003 0.67434 0.0
C433 C 0.39862 0.2787 0.59345 0.0
C434 C 0.32478 0.26722 0.64261 0.0
C435 C 0.35104 0.25555 0.60182 0.0
H436 H 0.37766 0.4163 0.79847 0.0
H437 H 0.33458 0.22886 0.57687 0.0
H438 H 0.19139 0.12605 0.76679 0.0
H439 H 0.23483 0.32505 0.9794 0.0
H440 H 0.2879 0.24983 0.64909 0.0
H441 H 0.4192 0.26969 0.5621 0.0
H442 H 0.27864 0.30379 0.90608 0.0
H443 H 0.46068 0.46018 0.78809 0.0
H444 H 0.48861 0.33073 0.58704 0.0
H445 H 0.52283 0.39275 0.6444 0.0
H446 H 0.11075 0.07666 0.78184 0.0
H447 H 0.51289 0.44088 0.71931 0.0
H448 H 0.15319 0.28006 0.99956 0.0
N449 N 0.18508 0.17431 0.82599 0.0
C450 C 0.15852 0.1845 0.86537 0.0
C451 C 0.12356 0.10715 0.8054 0.0
C452 C 0.11278 0.1564 0.87599 0.0
C453 C 0.16889 0.13566 0.79655 0.0
C454 C 0.09523 0.11773 0.84515 0.0
N455 N 0.22158 0.24923 0.88458 0.0
C456 C 0.24284 0.2846 0.91444 0.0
C457 C 0.15141 0.23285 0.93744 0.0
C458 C 0.17754 0.22242 0.89578 0.0
C459 C 0.17217 0.27068 0.96743 0.0
C460 C 0.21822 0.29636 0.95605 0.0
H461 H 0.06026 0.09531 0.85208 0.0
H462 H 0.05112 0.14611 0.92585 0.0
H463 H 0.08498 0.21293 0.97964 0.0
O464 O 0.31051 0.21782 0.85353 0.0
O465 O 0.2152 0.2775 0.83122 0.0
O466 O 0.26273 0.34585 0.80923 0.0
O467 O 0.25733 0.15705 0.83037 0.0
O468 O 0.33141 0.27756 0.81591 0.0
O469 O 0.31923 0.34621 0.81267 0.0
O470 O 0.25653 0.34197 0.70919 0.0
O471 O 0.34749 0.26938 0.72726 0.0
O472 O 0.29758 0.20085 0.74612 0.0
O473 O 0.32225 0.3914 0.72133 0.0
O474 O 0.23589 0.27047 0.73151 0.0
O475 O 0.24048 0.20175 0.7472 0.0
C476 C 0.22401 0.32281 0.8316 0.0
C477 C 0.32986 0.1461 0.83654 0.0
C478 C 0.38368 0.11132 0.85738 0.0
C479 C 0.39766 0.09537 0.81266 0.0
C480 C 0.34383 0.12956 0.79215 0.0
C481 C 0.37783 0.10458 0.7803 0.0
C482 C 0.35003 0.13722 0.86891 0.0
C483 C 0.33657 0.32173 0.83098 0.0
C484 C 0.29448 0.1728 0.84978 0.0
C485 C 0.08634 0.16726 0.91718 0.0
C486 C 0.10563 0.2053 0.94784 0.0
C487 C 0.33634 0.22361 0.72369 0.0
C488 C 0.25961 0.42224 0.72102 0.0
C489 C 0.20989 0.4657 0.7063 0.0
C490 C 0.2182 0.49682 0.74572 0.0
C491 C 0.2671 0.45351 0.7604 0.0
C492 C 0.23113 0.42856 0.69392 0.0
C493 C 0.24652 0.49059 0.77253 0.0
C494 C 0.22379 0.22483 0.72646 0.0
C495 C 0.28273 0.38409 0.70723 0.0
H496 H 0.42311 0.07494 0.80276 0.0
H497 H 0.32827 0.13575 0.76684 0.0
H498 H 0.38849 0.09194 0.74596 0.0
H499 H 0.33943 0.15056 0.90315 0.0
H500 H 0.20259 0.52593 0.7559 0.0
H501 H 0.28919 0.44953 0.78163 0.0
H502 H 0.22485 0.40415 0.66378 0.0
H503 H 0.25248 0.51453 0.80284 0.0
Eu504 Eu 0.7387 0.32706 0.79344 0.0
C505 C 0.83314 0.1901 0.84879 0.0
N506 N 0.85508 0.22282 0.82283 0.0
C507 C 0.9269 0.23649 0.85081 0.0
C508 C 0.85777 0.17923 0.87686 0.0
C509 C 0.90132 0.24566 0.823 0.0
C510 C 0.90503 0.20325 0.87794 0.0
C511 C 0.7636 0.13044 0.87112 0.0
C512 C 0.78623 0.16632 0.84644 0.0
C513 C 0.78795 0.12001 0.89947 0.0
C514 C 0.83479 0.14446 0.90249 0.0
Eu515 Eu 0.80792 0.23634 0.77885 0.0
N516 N 0.76296 0.1777 0.81948 0.0
C517 C 0.71741 0.10545 0.86593 0.0
C518 C 0.71878 0.15212 0.81271 0.0
C519 C 0.69515 0.11596 0.83618 0.0
H520 H 0.91857 0.27048 0.80119 0.0
H521 H 0.65977 0.09628 0.83137 0.0
H522 H 0.64368 0.28547 0.74209 0.0
H523 H 0.88671 0.47985 0.77413 0.0
H524 H 0.70158 0.16015 0.78968 0.0
H525 H 0.69894 0.07746 0.88414 0.0
H526 H 0.83833 0.41233 0.80749 0.0
H527 H 0.96355 0.25478 0.85106 0.0
H528 H 0.77101 0.09274 0.9189 0.0
H529 H 0.85316 0.13571 0.92428 0.0
H530 H 0.61304 0.30206 0.68227 0.0
H531 H 0.92508 0.19598 0.89919 0.0
H532 H 0.8616 0.50103 0.71319 0.0
N533 N 0.70562 0.34106 0.73767 0.0
C534 C 0.73007 0.37842 0.71828 0.0
C535 C 0.64613 0.32365 0.69189 0.0
C536 C 0.71357 0.3895 0.68425 0.0
C537 C 0.66388 0.31402 0.72545 0.0
C538 C 0.67116 0.36145 0.67107 0.0
N539 N 0.78718 0.39364 0.76478 0.0
C540 C 0.8273 0.42034 0.78045 0.0
C541 C 0.79828 0.44444 0.71261 0.0
C542 C 0.77189 0.40561 0.73234 0.0
C543 C 0.84028 0.47102 0.72757 0.0
C544 C 0.85466 0.45907 0.76184 0.0
H545 H 0.65729 0.36885 0.64509 0.0
H546 H 0.7277 0.43708 0.63829 0.0
H547 H 0.80191 0.48508 0.66303 0.0
O548 O 0.73248 0.37939 0.85166 0.0
O549 O 0.78776 0.31631 0.72814 0.0
O550 O 0.84954 0.29729 0.74542 0.0
O551 O 0.67214 0.34573 0.81823 0.0
O552 O 0.793 0.34024 0.83969 0.0
O553 O 0.85322 0.30795 0.8028 0.0
O554 O 0.85375 0.19015 0.7506 0.0
O555 O 0.76295 0.24931 0.84544 0.0
O556 O 0.70158 0.26371 0.82547 0.0
O557 O 0.79973 0.1926 0.71524 0.0
O558 O 0.7554 0.22442 0.73144 0.0
O559 O 0.69605 0.25437 0.77137 0.0
C560 C 0.83208 0.31476 0.72001 0.0
C561 C 0.66238 0.34573 0.89475 0.0
C562 C 0.66344 0.33893 0.9706 0.0
C563 C 0.62315 0.30115 0.96805 0.0
C564 C 0.62025 0.31041 0.89424 0.0
C565 C 0.6014 0.28767 0.93041 0.0
C566 C 0.68473 0.35762 0.93193 0.0
C567 C 0.83676 0.33734 0.83499 0.0
C568 C 0.6867 0.36686 0.85542 0.0
C569 C 0.73981 0.42808 0.6645 0.0
C570 C 0.78206 0.45544 0.67861 0.0
C571 C 0.71941 0.25185 0.85422 0.0
C572 C 0.80152 0.11892 0.72455 0.0
C573 C 0.80779 0.04222 0.72631 0.0
C574 C 0.75958 1.02375 0.72452 0.0
C575 C 0.75377 0.09987 0.71994 0.0
C576 C 0.8265 0.09067 0.73245 0.0
C577 C 0.73244 0.05295 0.72223 0.0
C578 C 0.7114 0.22565 0.7384 0.0
C579 C 0.82578 0.16796 0.72162 0.0
H580 H 0.60619 0.28477 0.99646 0.0
H581 H 0.60262 0.29936 0.86557 0.0
H582 H 0.56936 0.25991 0.92953 0.0
H583 H 0.7174 0.38452 0.93141 0.0
H584 H 0.74454 0.98648 0.71928 0.0
H585 H 0.73284 0.12099 0.71466 0.0
H586 H 0.86358 0.10547 0.73453 0.0
H587 H 0.69574 0.03857 0.71875 0.0
Eu588 Eu 0.7295 0.75285 0.74794 0.0
C589 C 0.86102 0.89901 0.87443 0.0
N590 N 0.87425 0.87176 0.8364 0.0
C591 C 0.93964 0.93477 0.81702 0.0
C592 C 0.88647 0.94579 0.88479 0.0
C593 C 0.91358 0.88853 0.80824 0.0
C594 C 0.92585 0.96363 0.85528 0.0
C595 C 0.80861 0.90697 0.94378 0.0
C596 C 0.82245 0.87987 0.90367 0.0
C597 C 0.83348 0.95374 0.9538 0.0
C598 C 0.87224 0.97309 0.92439 0.0
Eu599 Eu 0.82698 0.7946 0.825 0.0
N600 N 0.79825 0.83478 0.89277 0.0
C601 C 0.77029 0.88613 0.97275 0.0
C602 C 0.76229 0.81364 0.92158 0.0
C603 C 0.74732 0.83916 0.96176 0.0
H604 H 0.92557 0.86615 0.77933 0.0
H605 H 0.71817 0.8226 0.98425 0.0
H606 H 0.63657 0.67493 0.79403 0.0
H607 H 0.81684 0.74112 0.57819 0.0
H608 H 0.74485 0.77729 0.91324 0.0
H609 H 0.75855 0.90582 1.00387 0.0
H610 H 0.79541 0.78003 0.65399 0.0
H611 H 0.9706 0.948 0.79448 0.0
H612 H 0.82322 0.97517 0.98438 0.0
H613 H 0.89128 1.00913 0.93279 0.0
H614 H 0.59535 0.59224 0.7771 0.0
H615 H 0.9463 0.99939 0.86207 0.0
H616 H 0.78249 0.65675 0.55656 0.0
N617 N 0.68503 0.67436 0.73439 0.0
C618 C 0.69636 0.64976 0.69408 0.0
C619 C 0.6241 0.60782 0.75368 0.0
C620 C 0.67263 0.6026 0.68251 0.0
C621 C 0.64823 0.65461 0.76349 0.0
C622 C 0.63673 0.58151 0.71324 0.0
N623 N 0.75177 0.71806 0.67525 0.0
C624 C 0.78114 0.74317 0.64494 0.0
C625 C 0.74105 0.64872 0.62055 0.0
C626 C 0.73021 0.67239 0.66342 0.0
C627 C 0.77333 0.67365 0.58988 0.0
C628 C 0.79287 0.72127 0.60197 0.0
H629 H 0.61765 0.54537 0.7056 0.0
H630 H 0.66692 0.54204 0.631 0.0
H631 H 0.72672 0.58248 0.57673 0.0
O632 O 0.71402 0.80959 0.72699 0.0
O633 O 0.79056 0.7166 0.72312 0.0
O634 O 0.8542 0.7534 0.76051 0.0
O635 O 0.66174 0.74355 0.72816 0.0
O636 O 0.7863 0.82067 0.73947 0.0
O637 O 0.85372 0.81358 0.75698 0.0
O638 O 0.83424 0.75091 0.86818 0.0
O639 O 0.77244 0.83769 0.83444 0.0
O640 O 0.70428 0.78484 0.81776 0.0
O641 O 0.89489 0.80292 0.84435 0.0
O642 O 0.77475 0.72335 0.82811 0.0
O643 O 0.70586 0.73056 0.81536 0.0
C644 C 0.83453 0.72256 0.72878 0.0
C645 C 0.66129 0.78827 0.67593 0.0
C646 C 0.6377 0.83294 0.6336 0.0
C647 C 0.6357 0.79592 0.59807 0.0
C648 C 0.66053 0.75203 0.63971 0.0
C649 C 0.64765 0.75594 0.60092 0.0
C650 C 0.65018 0.82871 0.67264 0.0
C651 C 0.83219 0.82774 0.73234 0.0
C652 C 0.67289 0.78478 0.71772 0.0
C653 C 0.68456 0.57835 0.64034 0.0
C654 C 0.71862 0.60138 0.60941 0.0
C655 C 0.72604 0.82514 0.83854 0.0
C656 C 0.90645 0.7315 0.8511 0.0
C657 C 0.93046 0.66848 0.86887 0.0
C658 C 0.95293 0.66058 0.82513 0.0
C659 C 0.93017 0.72362 0.80809 0.0
C660 C 0.90645 0.70374 0.88121 0.0
C661 C 0.95295 0.68814 0.79521 0.0
C662 C 0.72881 0.71388 0.83644 0.0
C663 C 0.87975 0.76697 0.8643 0.0
H664 H 0.62403 0.79776 0.56844 0.0
H665 H 0.66919 0.7206 0.64156 0.0
H666 H 0.64638 0.72774 0.57321 0.0
H667 H 0.65131 0.85691 0.70047 0.0
H668 H 0.97255 0.6346 0.81428 0.0
H669 H 0.93083 0.74457 0.78426 0.0
H670 H 0.88732 0.70956 0.9141 0.0
H671 H 0.97133 0.68238 0.76203 0.0
Fe672 Fe 1.02558 0.12609 0.5468 0.0
O673 O 1.02921 0.06134 0.5198 0.0
Fe674 Fe 0.08786 0.04208 0.52672 0.0
Fe675 Fe 0.9819 1.00694 0.5422 0.0
O676 O 1.03335 0.06397 0.52212 0.0
O677 O 0.04068 0.98794 0.5498 0.0
O678 O 0.03637 0.98521 0.54739 0.0
Fe679 Fe 0.04415 0.92306 0.52237 0.0
C680 C 0.96762 0.07283 0.61923 0.0
O681 O 0.97308 0.10712 0.51007 0.0
O682 O 0.93031 0.03675 0.53018 0.0
O683 O 0.09793 0.94369 0.47102 0.0
O684 O 0.07874 1.00531 0.46593 0.0
O685 O 0.13133 0.09976 0.49692 0.0
O686 O 0.08051 0.1435 0.49658 0.0
O687 O 0.97579 0.97101 0.48003 0.0
O688 O 0.99364 0.90595 0.48182 0.0
C689 C 0.1198 0.1316 0.4827 0.0
O690 O 0.09708 0.94192 0.55895 0.0
O691 O 0.13957 1.01206 0.53786 0.0
O692 O 0.97198 0.10551 0.59828 0.0
O693 O 0.98988 0.04299 0.60343 0.0
C694 C 0.93619 0.07227 0.51054 0.0
C695 C 0.97433 0.92863 0.46522 0.0
C696 C 0.94954 0.91703 0.58582 0.0
O697 O 0.93818 0.94881 0.57131 0.0
O698 O 0.98901 0.9054 0.57242 0.0
C699 C 0.10228 0.97654 0.45033 0.0
O700 O 0.09526 0.07879 0.58854 0.0
O701 O 0.07621 0.14333 0.58691 0.0
C702 C 0.13435 0.97637 0.55705 0.0
C703 C 0.09662 0.12125 0.603 0.0
Fe704 Fe 0.53278 0.97441 1.02499 0.0
O705 O 0.57349 0.03287 1.00398 0.0
Fe706 Fe 0.42596 1.00445 0.06506 0.0
Fe707 Fe 0.6425 0.05157 1.00192 0.0
O708 O 0.49442 1.01758 0.06105 0.0
O709 O 0.49505 1.02331 0.06375 0.0
O710 O 0.57407 0.03847 1.00657 0.0
Fe711 Fe 0.53574 0.08169 0.04246 0.0
C712 C 0.61346 0.99168 0.07371 0.0
O713 O 0.58135 0.9374 0.98281 0.0
O714 O 0.63841 0.99498 0.95134 0.0
O715 O 0.49889 0.0684 0.99084 0.0
O716 O 0.42598 0.05054 1.02627 0.0
O717 O 0.42194 0.95294 1.00971 0.0
O718 O 0.49447 0.95794 0.97281 0.0
O719 O 0.64074 0.10129 0.96776 0.0
O720 O 0.58392 0.13579 1.01135 0.0
C721 C 0.44984 0.94498 0.97441 0.0
O722 O 0.48687 0.11855 0.08456 0.0
O723 O 0.42966 0.06086 0.11587 0.0
O724 O 0.56972 0.98719 0.0765 0.0
O725 O 0.64275 1.00594 0.04121 0.0
C726 C 0.6188 0.95148 0.95426 0.0
C727 C 0.61917 0.13415 0.97939 0.0
C728 C 0.6195 0.11237 0.09201 0.0
O729 O 0.64692 0.10355 0.05662 0.0
O730 O 0.57473 0.09903 0.09439 0.0
C731 C 0.45527 0.0643 0.99362 0.0
O732 O 0.42722 0.95427 0.09895 0.0
O733 O 0.48435 0.92004 0.05568 0.0
C734 C 0.44922 0.10439 0.11294 0.0
C735 C 0.44884 0.92144 0.08742 0.0
Fe736 Fe 0.0404 0.58234 0.04073 0.0
O737 O 0.9966 0.52558 0.06267 0.0
Fe738 Fe 0.14205 0.54329 0.99972 0.0
Fe739 Fe 0.92762 0.51122 0.0654 0.0
O740 O 0.07436 0.53521 1.00501 0.0
O741 O 0.07301 0.52893 1.00166 0.0
O742 O 0.99537 0.51933 0.05955 0.0
Fe743 Fe 1.02907 0.47212 1.02349 0.0
C744 C 0.95805 0.61119 0.11272 0.0
O745 O 1.00351 0.57109 0.9897 0.0
O746 O 0.93039 0.55785 1.02552 0.0
O747 O 0.07467 0.43117 0.98025 0.0
O748 O 0.1337 0.48745 0.94909 0.0
O749 O 0.14403 0.59381 0.96515 0.0
O750 O 0.09162 0.63411 1.0079 0.0
O751 O 0.91939 0.45809 1.01193 0.0
O752 O 0.98958 0.45755 0.97223 0.0
C753 C 0.12518 0.62857 0.97496 0.0
O754 O 0.06632 0.48317 0.07396 0.0
O755 O 0.13881 0.49494 0.03801 0.0
O756 O 0.99517 0.62359 0.08316 0.0
O757 O 0.93612 0.5681 0.11523 0.0
C758 C 0.96079 0.57084 0.9932 0.0
C759 C 0.94477 0.44708 0.97576 0.0
C760 C 0.94509 0.42662 0.09074 0.0
O761 O 0.92648 0.46162 0.10071 0.0
O762 O 0.97781 0.42051 0.057 0.0
C763 C 0.11217 0.44418 0.95109 0.0
O764 O 0.14978 0.59524 0.05404 0.0
O765 O 0.07935 0.59729 0.09249 0.0
C766 C 0.10758 0.47843 0.06836 0.0
C767 C 0.12407 0.60721 0.08961 0.0
Fe768 Fe 0.56376 0.48078 0.93696 0.0
O769 O 0.54726 0.49501 1.00048 0.0
Fe770 Fe 0.48358 0.50782 1.03014 0.0
Fe771 Fe 0.58772 0.54584 0.03815 0.0
O772 O 0.54304 0.49109 1.00149 0.0
O773 O 0.52405 0.55829 0.06804 0.0
O774 O 0.52818 0.5622 0.067 0.0
Fe775 Fe 0.50743 0.57292 0.13141 0.0
C776 C 0.64073 0.47818 0.98526 0.0
O777 O 0.61666 0.54181 0.93275 0.0
O778 O 0.60124 0.5916 0.99346 0.0
O779 O 0.4596 0.5977 0.11091 0.0
O780 O 0.42693 0.53329 0.06309 0.0
O781 O 0.49489 0.55237 0.98675 0.0
O782 O 0.51638 0.51118 0.92212 0.0
O783 O 0.62244 0.59956 0.08228 0.0
O784 O 0.56506 0.6308 0.12806 0.0
C785 C 0.49446 0.54033 0.9456 0.0
O786 O 0.45429 0.51204 0.1356 0.0
O787 O 0.46919 0.462 0.0748 0.0
O788 O 0.61196 0.45624 0.95709 0.0
O789 O 0.64452 0.52071 1.0049 0.0
C790 C 0.61982 0.58322 0.95321 0.0
C791 C 0.60868 0.63043 0.11355 0.0
C792 C 0.57672 0.51322 0.12318 0.0
O793 O 0.57742 0.50168 0.08181 0.0
O794 O 0.55443 0.5422 0.14647 0.0
C795 C 0.43089 0.57585 0.08267 0.0
O796 O 0.44887 0.45441 0.98558 0.0
O797 O 0.5063 0.42286 0.9403 0.0
C798 C 0.45051 0.47059 0.115 0.0
C799 C 0.46269 0.42356 0.95428 0.0
Fe800 Fe 1.033 0.47349 0.52839 0.0
O801 O 1.00123 0.52042 0.56833 0.0
Fe802 Fe 0.0769 0.52664 0.43571 0.0
Fe803 Fe 0.99161 0.52705 0.63301 0.0
O804 O 0.06816 0.52862 0.49945 0.0
O805 O 0.06889 0.53465 0.5008 0.0
O806 O 1.00224 0.52626 0.56979 0.0
Fe807 Fe 0.03693 0.58146 0.54109 0.0
C808 C 0.95236 0.42619 0.59773 0.0
O809 O 0.08419 0.48956 0.56876 0.0
O810 O 0.03592 0.48746 0.63229 0.0
O811 O 0.07963 0.63202 0.50167 0.0
O812 O 0.1237 0.59034 0.44807 0.0
O813 O 0.12086 0.485 0.43538 0.0
O814 O 0.07521 0.43308 0.48063 0.0
O815 O 0.04636 0.58595 0.64553 0.0
O816 O 0.08899 0.60168 0.58112 0.0
C817 C 0.11121 0.44615 0.4502 0.0
O818 O 0.98566 0.56401 0.50257 0.0
O819 O 1.02802 0.56294 0.43576 0.0
O820 O 0.98868 0.42293 0.56709 0.0
O821 O 0.94321 0.46485 0.61885 0.0
C822 C 0.07582 0.487 0.60963 0.0
C823 C 0.08447 0.60546 0.62288 0.0
C824 C 0.9597 0.60966 0.62029 0.0
O825 O 0.95021 0.57054 0.6342 0.0
O826 O 0.99448 0.62227 0.58868 0.0
C827 C 0.11469 0.62885 0.4696 0.0
O828 O 1.02511 0.46566 0.4238 0.0
O829 O 0.98083 0.45391 0.48814 0.0
C830 C 0.99067 0.56695 0.46226 0.0
C831 C 0.98616 0.44821 0.44622 0.0
Fe832 Fe 0.5299 0.97239 0.5254 0.0
O833 O 0.49837 1.01973 0.56488 0.0
Fe834 Fe 0.5821 0.02696 0.43553 0.0
Fe835 Fe 0.48673 0.02602 0.62991 0.0
O836 O 0.56859 0.02746 0.49866 0.0
O837 O 0.57014 0.03335 0.50046 0.0
O838 O 0.50047 1.02556 0.56697 0.0
Fe839 Fe 0.53802 0.08055 0.53942 0.0
C840 C 0.44602 0.92579 0.59234 0.0
O841 O 0.57779 0.98704 0.56732 0.0
O842 O 0.53034 0.98509 0.63114 0.0
O843 O 0.58235 0.13115 0.50121 0.0
O844 O 0.6291 0.08911 0.45232 0.0
O845 O 0.62301 0.98378 0.43726 0.0
O846 O 0.57285 0.931 0.47935 0.0
O847 O 0.5397 0.08492 0.64432 0.0
O848 O 0.5876 0.0996 0.58206 0.0
C849 C 0.61081 0.94408 0.45081 0.0
O850 O 0.48919 0.06397 0.49805 0.0
O851 O 0.53623 0.06563 0.4338 0.0
O852 O 0.48252 0.9217 0.56221 0.0
O853 O 0.43832 0.96484 0.61389 0.0
C854 C 0.56722 0.97766 0.60595 0.0
C855 C 0.57893 0.10508 0.62403 0.0
C856 C 0.45866 0.10963 0.61455 0.0
O857 O 0.44682 0.07041 0.62884 0.0
O858 O 0.49566 0.12204 0.58504 0.0
C859 C 0.61769 0.12753 0.46977 0.0
O860 O 0.53065 0.96688 0.42051 0.0
O861 O 0.48107 0.95543 0.48234 0.0
C862 C 0.49854 0.07136 0.45872 0.0
C863 C 0.49042 0.94869 0.44043 0.0
C864 C 0.22565 0.17306 0.3956 0.0
C865 C 0.20713 0.19772 0.37358 0.0
H866 H 0.21303 0.13237 0.44696 0.0
C867 C 0.16049 0.20004 0.38797 0.0
H868 H 0.26153 0.17058 0.38552 0.0
C869 C 0.1333 0.17913 0.42331 0.0
C870 C 0.15133 0.15451 0.44572 0.0
H871 H 0.14489 0.21895 0.37245 0.0
H872 H 0.09759 0.18222 0.4328 0.0
C873 C 0.1979 0.15129 0.43099 0.0
C874 C 0.84753 0.03229 0.43046 0.0
C875 C 0.85751 0.07241 0.41092 0.0
H876 H 0.86378 1.0004 0.4779 0.0
C877 C 0.88666 0.1136 0.43068 0.0
H878 H 0.82389 1.0001 0.41763 0.0
C879 C 0.9078 0.11398 0.46615 0.0
C880 C 0.90203 0.07291 0.48255 0.0
H881 H 0.89604 0.14536 0.41727 0.0
H882 H 0.93154 0.14633 0.47866 0.0
C883 C 0.86979 0.03247 0.4657 0.0
C884 C 0.89009 0.90295 0.38341 0.0
C885 C 0.88572 0.85546 0.36698 0.0
H886 H 0.92248 0.96346 0.42588 0.0
C887 C 0.91228 0.83258 0.38185 0.0
H888 H 0.86923 0.92149 0.37382 0.0
C889 C 0.94204 0.85653 0.41287 0.0
C890 C 0.9461 0.90399 0.42953 0.0
H891 H 0.90959 0.79595 0.37004 0.0
H892 H 0.96125 0.83761 0.42429 0.0
C893 C 0.9203 0.927 0.41384 0.0
C894 C 0.22975 0.03212 0.41992 0.0
C895 C 0.23134 0.03789 0.3766 0.0
H896 H 0.18971 0.995 0.47074 0.0
C897 C 0.18903 0.0346 0.36246 0.0
H898 H 0.2619 0.03656 0.43263 0.0
C899 C 0.14652 1.01333 0.38623 0.0
C900 C 0.14662 0.99565 0.4238 0.0
H901 H 0.18923 0.04084 0.32991 0.0
H902 H 0.11398 1.00826 0.37401 0.0
C903 C 0.18839 1.00672 0.44127 0.0
C904 C 0.19819 0.92718 0.61874 0.0
C905 C 0.22651 0.96725 0.64076 0.0
H906 H 0.14868 0.89863 0.57406 0.0
C907 C 0.22942 1.01069 0.63009 0.0
H908 H 0.19621 0.89308 0.62492 0.0
C909 C 0.20224 1.01398 0.60011 0.0
C910 C 0.17147 0.97394 0.58054 0.0
H911 H 0.2512 0.04234 0.64624 0.0
H912 H 0.20356 0.04791 0.59405 0.0
C913 C 0.17123 0.93045 0.58911 0.0
C914 C 0.16341 0.22035 0.68051 0.0
C915 C 0.19 0.19812 0.6961 0.0
H916 H 0.11272 0.21358 0.6394 0.0
C917 C 0.18423 0.15006 0.68211 0.0
H918 H 0.16699 0.25732 0.69062 0.0
C919 C 0.15247 0.12477 0.65338 0.0
C920 C 0.12643 0.14708 0.63715 0.0
H921 H 0.20494 0.13195 0.69254 0.0
H922 H 0.14909 0.08788 0.6432 0.0
C923 C 0.13201 0.19514 0.65135 0.0
C924 C 0.88382 1.02424 0.7137 0.0
C925 C 0.84089 1.017 0.69887 0.0
H926 H 0.95861 0.05234 0.70047 0.0
C927 C 0.84153 1.01635 0.65411 0.0
H928 H 0.8844 1.02273 0.74757 0.0
C929 C 0.88216 0.03964 0.6301 0.0
C930 C 0.9242 0.05556 0.64768 0.0
H931 H 0.809 1.0084 0.64092 0.0
H932 H 0.88005 0.04598 0.59839 0.0
C933 C 0.92566 0.04385 0.68796 0.0
C934 C 0.84425 0.8792 0.67483 0.0
C935 C 0.86115 0.85182 0.69526 0.0
H936 H 0.85835 0.92143 0.62453 0.0
C937 C 0.90629 0.84581 0.67877 0.0
H938 H 0.80954 0.88454 0.68656 0.0
C939 C 0.93372 0.86616 0.64311 0.0
C940 C 0.91744 0.89385 0.62251 0.0
H941 H 0.9205 0.82466 0.69307 0.0
H942 H 0.96828 0.86031 0.63206 0.0
C943 C 0.8722 0.90026 0.63911 0.0
C944 C 0.41797 0.21533 0.18375 0.0
C945 C 0.36919 0.19898 0.19796 0.0
H946 H 0.4815 0.19952 0.14568 0.0
C947 C 0.34778 0.15209 0.18293 0.0
H948 H 0.43594 0.25127 0.19424 0.0
C949 C 0.374 0.12244 0.15573 0.0
C950 C 0.42282 0.13834 0.14168 0.0
H951 H 0.31057 0.13785 0.19273 0.0
H952 H 0.35553 0.08662 0.14544 0.0
C953 C 0.44427 0.18564 0.15568 0.0
C954 C 0.89853 0.38878 0.20061 0.0
C955 C 0.87602 0.34143 0.1896 0.0
H956 H 0.93898 0.45171 0.17806 0.0
C957 C 0.88317 0.31991 0.14521 0.0
H958 H 0.89478 0.40649 0.23438 0.0
C959 C 0.9092 0.34634 0.1123 0.0
C960 C 0.92859 0.39453 0.12351 0.0
H961 H 0.86644 0.28343 0.13563 0.0
H962 H 0.91147 0.32982 0.07813 0.0
C963 C 0.92431 0.41475 0.16821 0.0
C964 C 0.61854 0.95377 0.17922 0.0
C965 C 0.66649 0.95591 0.17484 0.0
H966 H 0.56403 0.96331 0.15077 0.0
C967 C 0.6965 0.96962 0.13696 0.0
H968 H 0.59443 0.94289 0.20783 0.0
C969 C 0.67912 0.98094 0.10424 0.0
C970 C 0.63123 0.97898 0.10855 0.0
H971 H 0.73372 0.97235 0.13282 0.0
H972 H 0.70346 0.99148 0.07562 0.0
C973 C 0.60107 0.96517 0.14639 0.0
C974 C 0.22264 0.66377 0.15878 0.0
C975 C 0.20132 0.68825 0.19673 0.0
H976 H 0.21575 0.61976 0.09665 0.0
C977 C 0.15295 0.68467 0.20012 0.0
H978 H 0.25961 0.66526 0.15448 0.0
C979 C 0.1271 0.65792 0.16615 0.0
C980 C 0.14904 0.63422 0.12785 0.0
H981 H 0.135 0.7025 0.22895 0.0
H982 H 0.0902 0.65637 0.16962 0.0
C983 C 0.19717 0.63748 0.12516 0.0
C984 C 0.37496 0.91116 0.88254 0.0
C985 C 0.37432 0.86402 0.86715 0.0
H986 H 0.39857 0.97315 0.92868 0.0
C987 C 0.40281 0.8454 0.88493 0.0
H988 H 0.35469 0.92747 0.86932 0.0
C989 C 0.42961 0.87244 0.91786 0.0
C990 C 0.42818 0.91867 0.93456 0.0
H991 H 0.40387 0.80951 0.87399 0.0
H992 H 0.44989 0.85653 0.9316 0.0
C993 C 0.4007 0.93772 0.91632 0.0
C994 C 0.15036 0.33226 0.88902 0.0
C995 C 0.19216 0.35118 0.86156 0.0
H996 H 0.09226 0.34544 0.93904 0.0
C997 C 0.20453 0.39952 0.86297 0.0
H998 H 0.13866 0.29518 0.88855 0.0
C999 C 0.17748 0.42783 0.89048 0.0
C1000 C 0.1365 0.40986 0.9192 0.0
H1001 H 0.23596 0.41625 0.84295 0.0
H1002 H 0.18997 0.46472 0.88951 0.0
C1003 C 0.12322 0.36117 0.91777 0.0
C1004 C 0.64268 0.203 0.88784 0.0
C1005 C 0.68915 0.22932 0.89107 0.0
H1006 H 0.58304 0.15269 0.91469 0.0
C1007 C 0.7091 0.22883 0.92746 0.0
H1008 H 0.62672 0.20201 0.85973 0.0
C1009 C 0.68423 0.20072 0.9586 0.0
C1010 C 0.63868 0.17285 0.95438 0.0
H1011 H 0.74496 0.24838 0.93062 0.0
H1012 H 0.70167 0.19865 0.98465 0.0
C1013 C 0.61759 0.175 0.91936 0.0
C1014 C 0.93823 0.59546 0.88873 0.0
C1015 C 0.934 0.64149 0.90171 0.0
H1016 H 0.95065 0.53713 0.9077 0.0
C1017 C 0.93572 0.66238 0.94609 0.0
H1018 H 0.93602 0.57758 0.85527 0.0
C1019 C 0.9423 0.63834 0.97624 0.0
C1020 C 0.94829 0.59336 0.96253 0.0
H1021 H 0.93371 0.69794 0.95746 0.0
H1022 H 0.94459 0.65557 1.00993 0.0
C1023 C 0.94604 0.57192 0.91873 0.0
C1024 C 0.0859 0.37027 0.11686 0.0
C1025 C 0.13176 0.36831 0.11678 0.0
H1026 H 0.04221 0.40766 0.10333 0.0
C1027 C 0.1697 0.40549 0.10548 0.0
H1028 H 0.05618 0.34197 0.1255 0.0
C1029 C 0.16191 0.44287 0.09175 0.0
C1030 C 0.11599 0.44402 0.09018 0.0
H1031 H 0.20538 0.40453 0.10528 0.0
H1032 H 0.19181 0.47006 0.08106 0.0
C1033 C 0.07802 0.40807 0.10433 0.0
C1034 C 0.19278 0.73397 0.9214 0.0
C1035 C 0.19686 0.71291 0.87675 0.0
H1036 H 0.16576 0.7239 0.98854 0.0
C1037 C 0.17051 0.66693 0.86552 0.0
H1038 H 0.21261 0.76941 0.93109 0.0
C1039 C 0.14369 0.64146 0.89796 0.0
C1040 C 0.14218 0.66104 0.94275 0.0
H1041 H 0.17208 0.64978 0.83152 0.0
H1042 H 0.12612 0.60522 0.88804 0.0
C1043 C 0.16567 0.70812 0.95427 0.0
C1044 C 0.45051 0.10132 0.88763 0.0
C1045 C 0.40269 0.09973 0.89215 0.0
H1046 H 0.50479 0.09141 0.91613 0.0
C1047 C 0.37265 0.08655 0.93019 0.0
H1048 H 0.47462 0.11175 0.85886 0.0
C1049 C 0.3899 0.07534 0.96302 0.0
C1050 C 0.43767 0.07686 0.95864 0.0
H1051 H 0.3355 0.08422 0.9344 0.0
H1052 H 0.36555 0.06526 0.9918 0.0
C1053 C 0.46785 0.09 0.92058 0.0
C1054 C 0.84538 0.3909 0.90747 0.0
C1055 C 0.86641 0.36652 0.86926 0.0
H1056 H 0.85287 0.43473 0.96966 0.0
C1057 C 0.91486 0.37018 0.86536 0.0
H1058 H 0.80838 0.38938 0.91212 0.0
C1059 C 0.94106 0.39684 0.89911 0.0
C1060 C 0.91938 0.42032 0.93773 0.0
H1061 H 0.9326 0.35247 0.8363 0.0
H1062 H 0.978 0.39842 0.89525 0.0
C1063 C 0.8712 0.41709 0.9409 0.0
C1064 C 0.64941 0.83994 0.88436 0.0
C1065 C 0.69776 0.85648 0.8686 0.0
H1066 H 0.58654 0.85579 0.92389 0.0
C1067 C 0.71906 0.90377 0.88197 0.0
H1068 H 0.63161 0.80368 0.87515 0.0
C1069 C 0.69317 0.93356 0.90933 0.0
C1070 C 0.64479 0.91746 0.92511 0.0
H1071 H 0.75595 0.91816 0.87083 0.0
H1072 H 0.71161 0.96965 0.91843 0.0
C1073 C 0.62343 0.86983 0.91254 0.0
C1074 C 0.8709 0.65884 0.20466 0.0
C1075 C 0.88102 0.70637 0.20236 0.0
H1076 H 0.88664 0.59365 0.1807 0.0
C1077 C 0.92021 0.72394 0.17159 0.0
H1078 H 0.84187 0.64321 0.22785 0.0
C1079 C 0.94664 0.69434 0.14296 0.0
C1080 C 0.93518 0.64636 0.14484 0.0
H1081 H 0.93026 0.7604 0.16926 0.0
H1082 H 0.97538 0.70889 0.11897 0.0
C1083 C 0.89723 0.62988 0.17703 0.0
C1084 C 0.35854 0.82651 0.13901 0.0
C1085 C 0.37843 0.82559 0.17531 0.0
H1086 H 0.36607 0.85721 0.08212 0.0
C1087 C 0.42495 0.85178 0.17858 0.0
H1088 H 0.32264 0.80712 0.13581 0.0
C1089 C 0.45015 0.87998 0.14721 0.0
C1090 C 0.42912 0.88255 0.11229 0.0
H1091 H 0.44086 0.85252 0.20664 0.0
H1092 H 0.48475 0.90213 0.15194 0.0
C1093 C 0.38349 0.85485 0.10805 0.0
C1094 C 0.66955 0.21279 0.17966 0.0
C1095 C 0.69987 0.19458 0.19542 0.0
H1096 H 0.6192 0.20082 0.13584 0.0
C1097 C 0.69967 0.14765 0.17925 0.0
H1098 H 0.66825 0.24855 0.19126 0.0
C1099 C 0.67201 0.12068 0.14712 0.0
C1100 C 0.64232 0.13907 0.13109 0.0
H1101 H 0.72172 0.13175 0.19065 0.0
H1102 H 0.67446 0.08542 0.13417 0.0
C1103 C 0.64092 0.1853 0.14819 0.0
C1104 C 0.65475 0.68241 0.88759 0.0
C1105 C 0.70181 0.68307 0.86939 0.0
H1106 H 0.59227 0.65141 0.92933 0.0
C1107 C 0.72246 0.65358 0.88278 0.0
H1108 H 0.6377 0.70492 0.87851 0.0
C1109 C 0.69624 0.6228 0.91166 0.0
C1110 C 0.64904 0.62152 0.92909 0.0
H1111 H 0.75851 0.65312 0.8698 0.0
H1112 H 0.71263 0.59911 0.91968 0.0
C1113 C 0.62879 0.65222 0.91724 0.0
C1114 C 0.38143 0.56541 0.93807 0.0
C1115 C 0.38966 0.57677 0.89587 0.0
H1116 H 0.40714 0.54256 0.9851 0.0
C1117 C 0.43321 0.57523 0.86922 0.0
H1118 H 0.34874 0.56638 0.95978 0.0
C1119 C 0.4678 0.56342 0.88488 0.0
C1120 C 0.45944 0.5531 0.92744 0.0
H1121 H 0.4405 0.58276 0.83613 0.0
H1122 H 0.50103 0.56272 0.86398 0.0
C1123 C 0.41554 0.55307 0.95323 0.0
C1124 C 0.3605 0.3869 0.89143 0.0
C1125 C 0.36696 0.34543 0.86472 0.0
H1126 H 0.38478 0.44315 0.94164 0.0
C1127 C 0.4028 0.3273 0.8703 0.0
H1128 H 0.33284 0.40135 0.88805 0.0
C1129 C 0.43318 0.35158 0.90074 0.0
C1130 C 0.42723 0.39361 0.92692 0.0
H1131 H 0.40839 0.29523 0.85009 0.0
H1132 H 0.46181 0.33802 0.90318 0.0
C1133 C 0.38994 0.41046 0.92252 0.0
C1134 C 0.71119 0.40848 1.01257 0.0
C1135 C 0.67278 0.3686 1.01435 0.0
H1136 H 0.73061 0.47518 0.9911 0.0
C1137 C 0.63128 0.37838 0.0388 0.0
H1138 H 0.74662 0.40452 1.00322 0.0
C1139 C 0.61996 0.41632 1.03002 0.0
C1140 C 0.65509 0.44873 1.00763 0.0
H1141 H 0.60289 0.35108 0.05145 0.0
H1142 H 0.58372 0.41801 0.03695 0.0
C1143 C 0.70217 0.44839 1.00447 0.0
C1144 C 0.68743 0.48522 0.1335 0.0
C1145 C 0.67877 0.4761 0.17661 0.0
H1146 H 0.66325 0.50685 0.08469 0.0
C1147 C 0.63514 0.47882 0.2025 0.0
H1148 H 0.72009 0.48307 0.1122 0.0
C1149 C 0.60127 0.49044 0.18551 0.0
C1150 C 0.61039 0.49934 0.14233 0.0
H1151 H 0.62742 0.47281 0.23613 0.0
H1152 H 0.56814 0.49248 0.20602 0.0
C1153 C 0.65412 0.49747 0.11706 0.0
C1154 C 0.66942 0.72843 0.19574 0.0
C1155 C 0.70657 0.71147 0.2001 0.0
H1156 H 0.60863 0.7158 0.16479 0.0
C1157 C 0.7136 0.67039 0.17304 0.0
H1158 H 0.66334 0.76015 0.21633 0.0
C1159 C 0.68331 0.64589 0.14292 0.0
C1160 C 0.64466 0.66143 0.13986 0.0
H1161 H 0.74222 0.65684 0.17557 0.0
H1162 H 0.68893 0.61344 0.12361 0.0
C1163 C 0.63824 0.70321 0.16625 0.0
C1164 C 0.43983 0.67591 1.0297 0.0
C1165 C 0.39778 0.68491 0.05359 0.0
H1166 H 0.48786 0.63687 1.03176 0.0
C1167 C 0.35982 0.64459 0.05469 0.0
H1168 H 0.46803 0.7036 1.01747 0.0
C1169 C 0.36928 0.60493 0.06287 0.0
C1170 C 0.41646 0.60529 0.06033 0.0
H1171 H 0.32415 0.64792 0.06356 0.0
H1172 H 0.34097 0.57773 0.07577 0.0
C1173 C 0.4515 0.63812 0.03839 0.0
C1174 C 0.34641 0.40039 0.18411 0.0
C1175 C 0.36678 0.37156 0.19879 0.0
H1176 H 0.35705 0.45417 0.14612 0.0
C1177 C 0.41417 0.37252 0.18182 0.0
H1178 H 0.31011 0.40055 0.19611 0.0
C1179 C 0.44072 0.40241 0.15215 0.0
C1180 C 0.42073 0.43248 0.13901 0.0
H1181 H 0.43103 0.35045 0.19183 0.0
H1182 H 0.47744 0.40348 0.14103 0.0
C1183 C 0.37322 0.4309 0.15517 0.0
C1184 C 0.88435 0.6996 0.65482 0.0
C1185 C 0.86465 0.69324 0.69858 0.0
H1186 H 0.93014 0.67943 0.59549 0.0
C1187 C 0.87805 0.6612 0.71562 0.0
H1188 H 0.87584 0.72494 0.64085 0.0
C1189 C 0.9092 0.63579 0.69016 0.0
C1190 C 0.92906 0.64131 0.64624 0.0
H1191 H 0.8644 0.65578 0.74917 0.0
H1192 H 0.91797 0.61158 0.70547 0.0
C1193 C 0.91622 0.67405 0.62898 0.0
C1194 C 0.34285 0.86137 0.66209 0.0
C1195 C 0.36266 0.83188 0.676 0.0
H1196 H 0.35294 0.91215 0.62164 0.0
C1197 C 0.40638 0.82552 0.6537 0.0
H1198 H 0.30855 0.86571 0.67768 0.0
C1199 C 0.43224 0.85227 0.6215 0.0
C1200 C 0.41413 0.88511 0.61067 0.0
H1201 H 0.42215 0.8026 0.6633 0.0
H1202 H 0.46787 0.85031 0.60826 0.0
C1203 C 0.368 0.88725 0.62943 0.0
C1204 C 0.18682 0.4676 0.63409 0.0
C1205 C 0.17656 0.47063 0.68012 0.0
H1206 H 0.16326 0.47099 0.57516 0.0
C1207 C 0.13356 0.47865 0.70192 0.0
H1208 H 0.21992 0.46155 0.61652 0.0
C1209 C 0.10162 0.48394 0.67864 0.0
C1210 C 0.11153 0.48138 0.63267 0.0
H1211 H 0.12428 0.48041 0.7372 0.0
H1212 H 0.06893 0.4902 0.69713 0.0
C1213 C 0.1546 0.47323 0.6105 0.0
C1214 C 0.62992 0.18445 0.7229 0.0
C1215 C 0.67846 0.19481 0.70828 0.0
H1216 H 0.56116 0.14871 0.70805 0.0
C1217 C 0.69457 0.17604 0.66482 0.0
H1218 H 0.61622 0.19808 0.75612 0.0
C1219 C 0.66264 0.14779 0.63664 0.0
C1220 C 0.61402 0.13706 0.65169 0.0
H1221 H 0.73181 0.18351 0.65246 0.0
H1222 H 0.676 0.13369 0.60348 0.0
C1223 C 0.59829 0.15591 0.69519 0.0
C1224 C 0.90838 0.4059 0.35634 0.0
C1225 C 0.87773 0.36436 0.36803 0.0
H1226 H 0.96636 0.46427 0.3715 0.0
C1227 C 0.88099 0.35193 0.40762 0.0
H1228 H 0.9069 0.41668 0.32625 0.0
C1229 C 0.91471 0.37987 0.43424 0.0
C1230 C 0.9467 0.42036 0.42138 0.0
H1231 H 0.85767 0.32033 0.41781 0.0
H1232 H 0.91683 0.36892 0.46403 0.0
C1233 C 0.94264 0.43312 0.38228 0.0
C1234 C 0.65705 0.83722 0.39096 0.0
C1235 C 0.70409 0.85842 0.37422 0.0
H1236 H 0.59079 0.84652 0.42871 0.0
C1237 C 0.7204 0.90673 0.38756 0.0
H1238 H 0.64281 0.80016 0.38181 0.0
C1239 C 0.6906 0.93315 0.41413 0.0
C1240 C 0.64303 0.91266 0.42939 0.0
H1241 H 0.7563 0.92471 0.37654 0.0
H1242 H 0.70487 0.97041 0.42187 0.0
C1243 C 0.62704 0.86387 0.41823 0.0
C1244 C 0.15416 0.71282 0.39048 0.0
C1245 C 0.20326 0.7203 0.385 0.0
H1246 H 0.08704 0.67916 0.42368 0.0
C1247 C 0.22216 0.70564 0.41506 0.0
H1248 H 0.13827 0.72379 0.36817 0.0
C1249 C 0.19278 0.68023 0.44682 0.0
C1250 C 0.14372 0.66998 0.45028 0.0
H1251 H 0.25973 0.71163 0.41269 0.0
H1252 H 0.2084 0.66572 0.46665 0.0
C1253 C 0.12472 0.68794 0.42283 0.0
C1254 C 0.40512 0.13292 0.46537 0.0
C1255 C 0.42574 0.16167 0.43351 0.0
H1256 H 0.41158 0.08112 0.49788 0.0
C1257 C 0.46648 0.15452 0.40508 0.0
H1258 H 0.37295 0.13648 0.48691 0.0
C1259 C 0.48838 0.12228 0.41099 0.0
C1260 C 0.47 0.09664 0.44551 0.0
H1261 H 0.48316 0.17581 0.38 0.0
H1262 H 0.52134 0.11981 0.39035 0.0
C1263 C 0.42708 0.10088 0.47141 0.0
C1264 C 0.644 0.89652 0.59295 0.0
C1265 C 0.62518 0.87513 0.63013 0.0
H1266 H 0.6416 0.94699 0.55678 0.0
C1267 C 0.59213 0.89245 0.6625 0.0
H1268 H 0.67019 0.88426 0.56793 0.0
C1269 C 0.57556 0.92837 0.65621 0.0
C1270 C 0.59199 0.94769 0.6175 0.0
H1271 H 0.57718 0.87652 0.6915 0.0
H1272 H 0.54806 0.93914 0.68055 0.0
C1273 C 0.62781 0.93266 0.58681 0.0
C1274 C 0.69857 0.2337 0.42626 0.0
C1275 C 0.69859 0.2174 0.38084 0.0
H1276 H 0.67214 0.21752 0.49157 0.0
C1277 C 0.6657 0.17644 0.36677 0.0
H1278 H 0.72333 0.26577 0.43775 0.0
C1279 C 0.6356 0.15042 0.39717 0.0
C1280 C 0.6385 0.16393 0.44233 0.0
H1281 H 0.66408 0.16375 0.33208 0.0
H1282 H 0.61223 0.11763 0.38497 0.0
C1283 C 0.66899 0.20665 0.45701 0.0
C1284 C 0.9169 0.58842 0.38811 0.0
C1285 C 0.8747 0.58872 0.41688 0.0
H1286 H 0.98684 0.58059 0.3796 0.0
C1287 C 0.87167 0.58409 0.46069 0.0
H1288 H 0.91973 0.5915 0.35403 0.0
C1289 C 0.90968 0.57802 0.47536 0.0
C1290 C 0.95158 0.57587 0.4464 0.0
H1291 H 0.8394 0.58425 0.48342 0.0
H1292 H 0.9057 0.57402 0.50934 0.0
C1293 C 0.95504 0.58181 0.40269 0.0
C1294 C 0.37411 0.87922 0.40022 0.0
C1295 C 0.38976 0.86047 0.35663 0.0
H1296 H 0.39341 0.92116 0.46143 0.0
C1297 C 0.43822 0.87059 0.34158 0.0
H1298 H 0.33695 0.87191 0.41289 0.0
C1299 C 0.47025 0.89876 0.36905 0.0
C1300 C 0.45499 0.91749 0.41274 0.0
H1301 H 0.45155 0.85692 0.30824 0.0
H1302 H 0.50729 0.90569 0.35589 0.0
C1303 C 0.40643 0.90715 0.42813 0.0
C1304 C 0.15486 0.34023 0.38517 0.0
C1305 C 0.20339 0.35983 0.3724 0.0
H1306 H 0.0883 0.35082 0.42039 0.0
C1307 C 0.22153 0.40704 0.3895 0.0
H1308 H 0.13919 0.30403 0.37316 0.0
C1309 C 0.19194 0.43407 0.41617 0.0
C1310 C 0.14322 0.41479 0.42804 0.0
H1311 H 0.25841 0.4237 0.38087 0.0
H1312 H 0.20719 0.47072 0.42684 0.0
C1313 C 0.12546 0.36703 0.41281 0.0
C1314 C 0.35038 0.1482 0.67815 0.0
C1315 C 0.36759 0.19627 0.6919 0.0
H1316 H 0.36482 0.08452 0.64256 0.0
C1317 C 0.41481 0.21699 0.67543 0.0
H1318 H 0.31427 0.1307 0.68905 0.0
C1319 C 0.44417 0.19002 0.64778 0.0
C1320 C 0.4272 0.14146 0.63606 0.0
H1321 H 0.42969 0.25384 0.68514 0.0
H1322 H 0.48064 0.20685 0.6375 0.0
C1323 C 0.37953 0.12152 0.65106 0.0
C1324 C 0.91214 0.34122 0.67576 0.0
C1325 C 0.86317 0.33482 0.68183 0.0
H1326 H 0.97936 0.37407 0.64218 0.0
C1327 C 0.84434 0.3505 0.65245 0.0
H1328 H 0.92794 0.32938 0.69753 0.0
C1329 C 0.87382 0.37596 0.62083 0.0
C1330 C 0.92282 0.38522 0.61688 0.0
H1331 H 0.80683 0.34531 0.65528 0.0
H1332 H 0.85839 0.39127 0.60153 0.0
C1333 C 0.94167 0.36613 0.64351 0.0
C1334 C 0.16618 0.64719 0.70973 0.0
C1335 C 0.19685 0.68837 0.6971 0.0
H1336 H 0.10667 0.58966 0.69689 0.0
C1337 C 0.19178 0.70095 0.65826 0.0
H1338 H 0.16876 0.63645 0.73947 0.0
C1339 C 0.15652 0.67341 0.63315 0.0
C1340 C 0.12461 0.63329 0.64693 0.0
H1341 H 0.21478 0.73242 0.64754 0.0
H1342 H 0.15325 0.68439 0.60378 0.0
C1343 C 0.13028 0.62047 0.68539 0.0
loop_
_geom_bond_atom_site_label_1
_geom_bond_atom_site_label_2
_geom_bond_distance
_geom_bond_site_symmetry_2
_ccdc_geom_bond_type
Eu0 N29 2.600 . S
Eu0 N35 2.562 . S
Eu0 O44 2.462 . S
Eu0 O45 2.373 . S
Eu0 O47 2.432 . S
Eu0 O48 2.291 . S
Eu0 O52 2.335 . S
Eu0 O55 2.372 . S
Eu0 C64 2.787 . S
C1 N2 1.365 . S
C1 C4 1.405 . S
C1 C8 1.448 . S
N2 C1 1.365 . S
N2 C5 1.319 . S
N2 Eu11 2.600 . S
C3 C5 1.397 . S
C3 C6 1.367 . S
C3 H23 0.931 . S
C4 C1 1.405 . S
C4 C6 1.403 . S
C4 C10 1.439 . S
C5 N2 1.319 . S
C5 C3 1.397 . S
C5 H16 0.930 . S
C6 C3 1.367 . S
C6 C4 1.403 . S
C6 H27 0.929 . S
C7 C8 1.430 . S
C7 C9 1.387 . S
C7 C13 1.404 . S
C8 C1 1.448 . S
C8 C7 1.430 . S
C8 N12 1.351 . S
C9 C7 1.387 . S
C9 C10 1.374 . S
C9 H24 0.931 . S
C10 C4 1.439 . S
C10 C9 1.374 . S
C10 H25 0.931 . S
Eu11 N2 2.600 . S
Eu11 N12 2.562 . S
Eu11 O46 2.335 . S
Eu11 O49 2.372 . S
Eu11 O50 2.462 . S
Eu11 O51 2.373 . S
Eu11 O53 2.432 . S
Eu11 O54 2.291 . S
Eu11 C75 2.787 . S
N12 C8 1.351 . S
N12 Eu11 2.562 . S
N12 C14 1.325 . S
C13 C7 1.404 . S
C13 C15 1.366 . S
C13 H21 0.930 . S
C14 N12 1.325 . S
C14 C15 1.416 . S
C14 H20 0.929 . S
C15 C13 1.366 . S
C15 C14 1.416 . S
C15 H17 0.930 . S
H16 C5 0.930 . S
H17 C15 0.930 . S
H18 C33 0.930 . S
H19 C40 0.930 . S
H20 C14 0.929 . S
H21 C13 0.930 . S
H22 C36 0.929 . S
H23 C3 0.931 . S
H24 C9 0.931 . S
H25 C10 0.931 . S
H26 C31 0.931 . S
H27 C6 0.929 . S
H28 C39 0.930 . S
N29 Eu0 2.600 . S
N29 C30 1.365 . S
N29 C33 1.319 . S
C30 N29 1.365 . S
C30 C32 1.405 . S
C30 C38 1.448 . S
C31 H26 0.931 . S
C31 C33 1.397 . S
C31 C34 1.367 . S
C32 C30 1.405 . S
C32 C34 1.403 . S
C32 C65 1.439 . S
C33 H18 0.930 . S
C33 N29 1.319 . S
C33 C31 1.397 . S
C34 C31 1.367 . S
C34 C32 1.403 . S
C34 H41 0.929 . S
N35 Eu0 2.562 . S
N35 C36 1.325 . S
N35 C38 1.351 . S
C36 H22 0.929 . S
C36 N35 1.325 . S
C36 C40 1.416 . S
C37 C38 1.430 . S
C37 C39 1.404 . S
C37 C66 1.387 . S
C38 C30 1.448 . S
C38 N35 1.351 . S
C38 C37 1.430 . S
C39 H28 0.930 . S
C39 C37 1.404 . S
C39 C40 1.366 . S
C40 H19 0.930 . S
C40 C36 1.416 . S
C40 C39 1.366 . S
H41 C34 0.929 . S
H42 C65 0.931 . S
H43 C66 0.931 . S
O44 Eu0 2.462 . S
O44 C64 1.252 . S
O45 Eu0 2.373 . S
O45 C56 1.249 . S
O46 Eu11 2.335 . S
O46 C56 1.264 . S
O47 Eu0 2.432 . S
O47 C64 1.268 . S
O48 Eu0 2.291 . S
O48 C63 1.255 . S
O49 Eu11 2.372 . S
O49 C63 1.257 . S
O50 Eu11 2.462 . S
O50 C75 1.252 . S
O51 Eu11 2.373 . S
O51 C67 1.249 . S
O52 Eu0 2.335 . S
O52 C67 1.264 . S
O53 Eu11 2.432 . S
O53 C75 1.268 . S
O54 Eu11 2.291 . S
O54 C74 1.255 . S
O55 Eu0 2.372 . S
O55 C74 1.257 . S
C56 O45 1.249 . S
C56 O46 1.264 . S
C57 C60 1.382 . S
C57 C62 1.390 . S
C57 C64 1.506 . S
C58 C59 1.398 . S
C58 C62 1.392 . S
C59 C58 1.398 . S
C59 C61 1.372 . S
C59 H76 0.931 . S
C60 C57 1.382 . S
C60 C61 1.390 . S
C60 H77 0.931 . S
C61 C59 1.372 . S
C61 C60 1.390 . S
C61 H78 0.929 . S
C62 C57 1.390 . S
C62 C58 1.392 . S
C62 H79 0.930 . S
C63 O48 1.255 . S
C63 O49 1.257 . S
C64 Eu0 2.787 . S
C64 O44 1.252 . S
C64 O47 1.268 . S
C64 C57 1.506 . S
C65 C32 1.439 . S
C65 H42 0.931 . S
C65 C66 1.374 . S
C66 C37 1.387 . S
C66 H43 0.931 . S
C66 C65 1.374 . S
C67 O51 1.249 . S
C67 O52 1.264 . S
C68 C71 1.382 . S
C68 C72 1.390 . S
C68 C75 1.506 . S
C69 C70 1.398 . S
C69 C72 1.392 . S
C70 C69 1.398 . S
C70 C73 1.372 . S
C70 H80 0.931 . S
C71 C68 1.382 . S
C71 C73 1.390 . S
C71 H81 0.931 . S
C72 C68 1.390 . S
C72 C69 1.392 . S
C72 H82 0.930 . S
C73 C70 1.372 . S
C73 C71 1.390 . S
C73 H83 0.929 . S
C74 O54 1.255 . S
C74 O55 1.257 . S
C75 Eu11 2.787 . S
C75 O50 1.252 . S
C75 O53 1.268 . S
C75 C68 1.506 . S
H76 C59 0.931 . S
H77 C60 0.931 . S
H78 C61 0.929 . S
H79 C62 0.930 . S
H80 C70 0.931 . S
H81 C71 0.931 . S
H82 C72 0.930 . S
H83 C73 0.929 . S
Eu84 N113 2.600 . S
Eu84 N119 2.562 . S
Eu84 O128 2.462 . S
Eu84 O129 2.373 . S
Eu84 O131 2.432 . S
Eu84 O132 2.291 . S
Eu84 O136 2.335 . S
Eu84 O139 2.372 . S
Eu84 C148 2.787 . S
C85 N86 1.365 . S
C85 C88 1.405 . S
C85 C92 1.448 . S
N86 C85 1.365 . S
N86 C89 1.319 . S
N86 Eu95 2.600 . S
C87 C89 1.397 . S
C87 C90 1.367 . S
C87 H107 0.931 . S
C88 C85 1.405 . S
C88 C90 1.403 . S
C88 C94 1.439 . S
C89 N86 1.319 . S
C89 C87 1.397 . S
C89 H100 0.930 . S
C90 C87 1.367 . S
C90 C88 1.403 . S
C90 H111 0.929 . S
C91 C92 1.430 . S
C91 C93 1.387 . S
C91 C97 1.404 . S
C92 C85 1.448 . S
C92 C91 1.430 . S
C92 N96 1.351 . S
C93 C91 1.387 . S
C93 C94 1.374 . S
C93 H108 0.931 . S
C94 C88 1.439 . S
C94 C93 1.374 . S
C94 H109 0.931 . S
Eu95 N86 2.600 . S
Eu95 N96 2.562 . S
Eu95 O130 2.335 . S
Eu95 O133 2.372 . S
Eu95 O134 2.462 . S
Eu95 O135 2.373 . S
Eu95 O137 2.432 . S
Eu95 O138 2.291 . S
Eu95 C159 2.787 . S
N96 C92 1.351 . S
N96 Eu95 2.562 . S
N96 C98 1.325 . S
C97 C91 1.404 . S
C97 C99 1.366 . S
C97 H105 0.930 . S
C98 N96 1.325 . S
C98 C99 1.416 . S
C98 H104 0.929 . S
C99 C97 1.366 . S
C99 C98 1.416 . S
C99 H101 0.930 . S
H100 C89 0.930 . S
H101 C99 0.930 . S
H102 C117 0.930 . S
H103 C124 0.930 . S
H104 C98 0.929 . S
H105 C97 0.930 . S
H106 C120 0.929 . S
H107 C87 0.931 . S
H108 C93 0.931 . S
H109 C94 0.931 . S
H110 C115 0.931 . S
H111 C90 0.929 . S
H112 C123 0.930 . S
N113 Eu84 2.600 . S
N113 C114 1.365 . S
N113 C117 1.319 . S
C114 N113 1.365 . S
C114 C116 1.405 . S
C114 C122 1.448 . S
C115 H110 0.931 . S
C115 C117 1.397 . S
C115 C118 1.367 . S
C116 C114 1.405 . S
C116 C118 1.403 . S
C116 C149 1.439 . S
C117 H102 0.930 . S
C117 N113 1.319 . S
C117 C115 1.397 . S
C118 C115 1.367 . S
C118 C116 1.403 . S
C118 H125 0.929 . S
N119 Eu84 2.562 . S
N119 C120 1.325 . S
N119 C122 1.351 . S
C120 H106 0.929 . S
C120 N119 1.325 . S
C120 C124 1.416 . S
C121 C122 1.430 . S
C121 C123 1.404 . S
C121 C150 1.387 . S
C122 C114 1.448 . S
C122 N119 1.351 . S
C122 C121 1.430 . S
C123 H112 0.930 . S
C123 C121 1.404 . S
C123 C124 1.366 . S
C124 H103 0.930 . S
C124 C120 1.416 . S
C124 C123 1.366 . S
H125 C118 0.929 . S
H126 C149 0.931 . S
H127 C150 0.931 . S
O128 Eu84 2.462 . S
O128 C148 1.252 . S
O129 Eu84 2.373 . S
O129 C140 1.249 . S
O130 Eu95 2.335 . S
O130 C140 1.264 . S
O131 Eu84 2.432 . S
O131 C148 1.268 . S
O132 Eu84 2.291 . S
O132 C147 1.255 . S
O133 Eu95 2.372 . S
O133 C147 1.257 . S
O134 Eu95 2.462 . S
O134 C159 1.252 . S
O135 Eu95 2.373 . S
O135 C151 1.249 . S
O136 Eu84 2.335 . S
O136 C151 1.264 . S
O137 Eu95 2.432 . S
O137 C159 1.268 . S
O138 Eu95 2.291 . S
O138 C158 1.255 . S
O139 Eu84 2.372 . S
O139 C158 1.257 . S
C140 O129 1.249 . S
C140 O130 1.264 . S
C141 C144 1.382 . S
C141 C146 1.390 . S
C141 C148 1.506 . S
C142 C143 1.398 . S
C142 C146 1.392 . S
C143 C142 1.398 . S
C143 C145 1.372 . S
C143 H160 0.931 . S
C144 C141 1.382 . S
C144 C145 1.390 . S
C144 H161 0.931 . S
C145 C143 1.372 . S
C145 C144 1.390 . S
C145 H162 0.929 . S
C146 C141 1.390 . S
C146 C142 1.392 . S
C146 H163 0.930 . S
C147 O132 1.255 . S
C147 O133 1.257 . S
C148 Eu84 2.787 . S
C148 O128 1.252 . S
C148 O131 1.268 . S
C148 C141 1.506 . S
C149 C116 1.439 . S
C149 H126 0.931 . S
C149 C150 1.374 . S
C150 C121 1.387 . S
C150 H127 0.931 . S
C150 C149 1.374 . S
C151 O135 1.249 . S
C151 O136 1.264 . S
C152 C155 1.382 . S
C152 C156 1.390 . S
C152 C159 1.506 . S
C153 C154 1.398 . S
C153 C156 1.392 . S
C154 C153 1.398 . S
C154 C157 1.372 . S
C154 H164 0.931 . S
C155 C152 1.382 . S
C155 C157 1.390 . S
C155 H165 0.931 . S
C156 C152 1.390 . S
C156 C153 1.392 . S
C156 H166 0.930 . S
C157 C154 1.372 . S
C157 C155 1.390 . S
C157 H167 0.929 . S
C158 O138 1.255 . S
C158 O139 1.257 . S
C159 Eu95 2.787 . S
C159 O134 1.252 . S
C159 O137 1.268 . S
C159 C152 1.506 . S
H160 C143 0.931 . S
H161 C144 0.931 . S
H162 C145 0.929 . S
H163 C146 0.930 . S
H164 C154 0.931 . S
H165 C155 0.931 . S
H166 C156 0.930 . S
H167 C157 0.929 . S
Eu168 N197 2.600 . S
Eu168 N203 2.562 . S
Eu168 O212 2.462 . S
Eu168 O213 2.373 . S
Eu168 O215 2.432 . S
Eu168 O216 2.291 . S
Eu168 O220 2.335 . S
Eu168 O223 2.372 . S
Eu168 C232 2.787 . S
C169 N170 1.365 . S
C169 C172 1.405 . S
C169 C176 1.448 . S
N170 C169 1.365 . S
N170 C173 1.319 . S
N170 Eu179 2.600 . S
C171 C173 1.397 . S
C171 C174 1.367 . S
C171 H191 0.931 . S
C172 C169 1.405 . S
C172 C174 1.403 . S
C172 C178 1.439 . S
C173 N170 1.319 . S
C173 C171 1.397 . S
C173 H184 0.930 . S
C174 C171 1.367 . S
C174 C172 1.403 . S
C174 H195 0.929 . S
C175 C176 1.430 . S
C175 C177 1.387 . S
C175 C181 1.404 . S
C176 C169 1.448 . S
C176 C175 1.430 . S
C176 N180 1.351 . S
C177 C175 1.387 . S
C177 C178 1.374 . S
C177 H192 0.931 . S
C178 C172 1.439 . S
C178 C177 1.374 . S
C178 H193 0.931 . S
Eu179 N170 2.600 . S
Eu179 N180 2.562 . S
Eu179 O214 2.335 . S
Eu179 O217 2.372 . S
Eu179 O218 2.462 . S
Eu179 O219 2.373 . S
Eu179 O221 2.432 . S
Eu179 O222 2.291 . S
Eu179 C243 2.787 . S
N180 C176 1.351 . S
N180 Eu179 2.562 . S
N180 C182 1.325 . S
C181 C175 1.404 . S
C181 C183 1.366 . S
C181 H189 0.930 . S
C182 N180 1.325 . S
C182 C183 1.416 . S
C182 H188 0.929 . S
C183 C181 1.366 . S
C183 C182 1.416 . S
C183 H185 0.930 . S
H184 C173 0.930 . S
H185 C183 0.930 . S
H186 C201 0.930 . S
H187 C208 0.930 . S
H188 C182 0.929 . S
H189 C181 0.930 . S
H190 C204 0.929 . S
H191 C171 0.931 . S
H192 C177 0.931 . S
H193 C178 0.931 . S
H194 C199 0.931 . S
H195 C174 0.929 . S
H196 C207 0.930 . S
N197 Eu168 2.600 . S
N197 C198 1.365 . S
N197 C201 1.319 . S
C198 N197 1.365 . S
C198 C200 1.405 . S
C198 C206 1.448 . S
C199 H194 0.931 . S
C199 C201 1.397 . S
C199 C202 1.367 . S
C200 C198 1.405 . S
C200 C202 1.403 . S
C200 C233 1.439 . S
C201 H186 0.930 . S
C201 N197 1.319 . S
C201 C199 1.397 . S
C202 C199 1.367 . S
C202 C200 1.403 . S
C202 H209 0.929 . S
N203 Eu168 2.562 . S
N203 C204 1.325 . S
N203 C206 1.351 . S
C204 H190 0.929 . S
C204 N203 1.325 . S
C204 C208 1.416 . S
C205 C206 1.430 . S
C205 C207 1.404 . S
C205 C234 1.387 . S
C206 C198 1.448 . S
C206 N203 1.351 . S
C206 C205 1.430 . S
C207 H196 0.930 . S
C207 C205 1.404 . S
C207 C208 1.366 . S
C208 H187 0.930 . S
C208 C204 1.416 . S
C208 C207 1.366 . S
H209 C202 0.929 . S
H210 C233 0.931 . S
H211 C234 0.931 . S
O212 Eu168 2.462 . S
O212 C232 1.252 . S
O213 Eu168 2.373 . S
O213 C224 1.249 . S
O214 Eu179 2.335 . S
O214 C224 1.264 . S
O215 Eu168 2.432 . S
O215 C232 1.268 . S
O216 Eu168 2.291 . S
O216 C231 1.255 . S
O217 Eu179 2.372 . S
O217 C231 1.257 . S
O218 Eu179 2.462 . S
O218 C243 1.252 . S
O219 Eu179 2.373 . S
O219 C235 1.249 . S
O220 Eu168 2.335 . S
O220 C235 1.264 . S
O221 Eu179 2.432 . S
O221 C243 1.268 . S
O222 Eu179 2.291 . S
O222 C242 1.255 . S
O223 Eu168 2.372 . S
O223 C242 1.257 . S
C224 O213 1.249 . S
C224 O214 1.264 . S
C225 C228 1.382 . S
C225 C230 1.390 . S
C225 C232 1.506 . S
C226 C227 1.398 . S
C226 C230 1.392 . S
C227 C226 1.398 . S
C227 C229 1.372 . S
C227 H244 0.931 . S
C228 C225 1.382 . S
C228 C229 1.390 . S
C228 H245 0.931 . S
C229 C227 1.372 . S
C229 C228 1.390 . S
C229 H246 0.929 . S
C230 C225 1.390 . S
C230 C226 1.392 . S
C230 H247 0.930 . S
C231 O216 1.255 . S
C231 O217 1.257 . S
C232 Eu168 2.787 . S
C232 O212 1.252 . S
C232 O215 1.268 . S
C232 C225 1.506 . S
C233 C200 1.439 . S
C233 H210 0.931 . S
C233 C234 1.374 . S
C234 C205 1.387 . S
C234 H211 0.931 . S
C234 C233 1.374 . S
C235 O219 1.249 . S
C235 O220 1.264 . S
C236 C239 1.382 . S
C236 C240 1.390 . S
C236 C243 1.506 . S
C237 C238 1.398 . S
C237 C240 1.392 . S
C238 C237 1.398 . S
C238 C241 1.372 . S
C238 H248 0.931 . S
C239 C236 1.382 . S
C239 C241 1.390 . S
C239 H249 0.931 . S
C240 C236 1.390 . S
C240 C237 1.392 . S
C240 H250 0.930 . S
C241 C238 1.372 . S
C241 C239 1.390 . S
C241 H251 0.929 . S
C242 O222 1.255 . S
C242 O223 1.257 . S
C243 Eu179 2.787 . S
C243 O218 1.252 . S
C243 O221 1.268 . S
C243 C236 1.506 . S
H244 C227 0.931 . S
H245 C228 0.931 . S
H246 C229 0.929 . S
H247 C230 0.930 . S
H248 C238 0.931 . S
H249 C239 0.931 . S
H250 C240 0.930 . S
H251 C241 0.929 . S
Eu252 N281 2.600 . S
Eu252 N287 2.562 . S
Eu252 O296 2.462 . S
Eu252 O297 2.373 . S
Eu252 O299 2.432 . S
Eu252 O300 2.291 . S
Eu252 O304 2.335 . S
Eu252 O307 2.372 . S
Eu252 C316 2.787 . S
C253 N254 1.365 . S
C253 C256 1.405 . S
C253 C260 1.448 . S
N254 C253 1.365 . S
N254 C257 1.319 . S
N254 Eu263 2.600 . S
C255 C257 1.397 . S
C255 C258 1.367 . S
C255 H275 0.931 . S
C256 C253 1.405 . S
C256 C258 1.403 . S
C256 C262 1.439 . S
C257 N254 1.319 . S
C257 C255 1.397 . S
C257 H268 0.930 . S
C258 C255 1.367 . S
C258 C256 1.403 . S
C258 H279 0.929 . S
C259 C260 1.430 . S
C259 C261 1.387 . S
C259 C265 1.404 . S
C260 C253 1.448 . S
C260 C259 1.430 . S
C260 N264 1.351 . S
C261 C259 1.387 . S
C261 C262 1.374 . S
C261 H276 0.931 . S
C262 C256 1.439 . S
C262 C261 1.374 . S
C262 H277 0.931 . S
Eu263 N254 2.600 . S
Eu263 N264 2.562 . S
Eu263 O298 2.335 . S
Eu263 O301 2.372 . S
Eu263 O302 2.462 . S
Eu263 O303 2.373 . S
Eu263 O305 2.432 . S
Eu263 O306 2.291 . S
Eu263 C327 2.787 . S
N264 C260 1.351 . S
N264 Eu263 2.562 . S
N264 C266 1.325 . S
C265 C259 1.404 . S
C265 C267 1.366 . S
C265 H273 0.930 . S
C266 N264 1.325 . S
C266 C267 1.416 . S
C266 H272 0.929 . S
C267 C265 1.366 . S
C267 C266 1.416 . S
C267 H269 0.930 . S
H268 C257 0.930 . S
H269 C267 0.930 . S
H270 C285 0.930 . S
H271 C292 0.930 . S
H272 C266 0.929 . S
H273 C265 0.930 . S
H274 C288 0.929 . S
H275 C255 0.931 . S
H276 C261 0.931 . S
H277 C262 0.931 . S
H278 C283 0.931 . S
H279 C258 0.929 . S
H280 C291 0.930 . S
N281 Eu252 2.600 . S
N281 C282 1.365 . S
N281 C285 1.319 . S
C282 N281 1.365 . S
C282 C284 1.405 . S
C282 C290 1.448 . S
C283 H278 0.931 . S
C283 C285 1.397 . S
C283 C286 1.367 . S
C284 C282 1.405 . S
C284 C286 1.403 . S
C284 C317 1.439 . S
C285 H270 0.930 . S
C285 N281 1.319 . S
C285 C283 1.397 . S
C286 C283 1.367 . S
C286 C284 1.403 . S
C286 H293 0.929 . S
N287 Eu252 2.562 . S
N287 C288 1.325 . S
N287 C290 1.351 . S
C288 H274 0.929 . S
C288 N287 1.325 . S
C288 C292 1.416 . S
C289 C290 1.430 . S
C289 C291 1.404 . S
C289 C318 1.387 . S
C290 C282 1.448 . S
C290 N287 1.351 . S
C290 C289 1.430 . S
C291 H280 0.930 . S
C291 C289 1.404 . S
C291 C292 1.366 . S
C292 H271 0.930 . S
C292 C288 1.416 . S
C292 C291 1.366 . S
H293 C286 0.929 . S
H294 C317 0.931 . S
H295 C318 0.931 . S
O296 Eu252 2.462 . S
O296 C316 1.252 . S
O297 Eu252 2.373 . S
O297 C308 1.249 . S
O298 Eu263 2.335 . S
O298 C308 1.264 . S
O299 Eu252 2.432 . S
O299 C316 1.268 . S
O300 Eu252 2.291 . S
O300 C315 1.255 . S
O301 Eu263 2.372 . S
O301 C315 1.257 . S
O302 Eu263 2.462 . S
O302 C327 1.252 . S
O303 Eu263 2.373 . S
O303 C319 1.249 . S
O304 Eu252 2.335 . S
O304 C319 1.264 . S
O305 Eu263 2.432 . S
O305 C327 1.268 . S
O306 Eu263 2.291 . S
O306 C326 1.255 . S
O307 Eu252 2.372 . S
O307 C326 1.257 . S
C308 O297 1.249 . S
C308 O298 1.264 . S
C309 C312 1.382 . S
C309 C314 1.390 . S
C309 C316 1.506 . S
C310 C311 1.398 . S
C310 C314 1.392 . S
C311 C310 1.398 . S
C311 C313 1.372 . S
C311 H328 0.931 . S
C312 C309 1.382 . S
C312 C313 1.390 . S
C312 H329 0.931 . S
C313 C311 1.372 . S
C313 C312 1.390 . S
C313 H330 0.929 . S
C314 C309 1.390 . S
C314 C310 1.392 . S
C314 H331 0.930 . S
C315 O300 1.255 . S
C315 O301 1.257 . S
C316 Eu252 2.787 . S
C316 O296 1.252 . S
C316 O299 1.268 . S
C316 C309 1.506 . S
C317 C284 1.439 . S
C317 H294 0.931 . S
C317 C318 1.374 . S
C318 C289 1.387 . S
C318 H295 0.931 . S
C318 C317 1.374 . S
C319 O303 1.249 . S
C319 O304 1.264 . S
C320 C323 1.382 . S
C320 C324 1.390 . S
C320 C327 1.506 . S
C321 C322 1.398 . S
C321 C324 1.392 . S
C322 C321 1.398 . S
C322 C325 1.372 . S
C322 H332 0.931 . S
C323 C320 1.382 . S
C323 C325 1.390 . S
C323 H333 0.931 . S
C324 C320 1.390 . S
C324 C321 1.392 . S
C324 H334 0.930 . S
C325 C322 1.372 . S
C325 C323 1.390 . S
C325 H335 0.929 . S
C326 O306 1.255 . S
C326 O307 1.257 . S
C327 Eu263 2.787 . S
C327 O302 1.252 . S
C327 O305 1.268 . S
C327 C320 1.506 . S
H328 C311 0.931 . S
H329 C312 0.931 . S
H330 C313 0.929 . S
H331 C314 0.930 . S
H332 C322 0.931 . S
H333 C323 0.931 . S
H334 C324 0.930 . S
H335 C325 0.929 . S
Eu336 N365 2.600 . S
Eu336 N371 2.562 . S
Eu336 O380 2.462 . S
Eu336 O381 2.373 . S
Eu336 O383 2.432 . S
Eu336 O384 2.291 . S
Eu336 O388 2.335 . S
Eu336 O391 2.372 . S
Eu336 C400 2.787 . S
C337 N338 1.365 . S
C337 C340 1.405 . S
C337 C344 1.448 . S
N338 C337 1.365 . S
N338 C341 1.319 . S
N338 Eu347 2.600 . S
C339 C341 1.397 . S
C339 C342 1.367 . S
C339 H359 0.931 . S
C340 C337 1.405 . S
C340 C342 1.403 . S
C340 C346 1.439 . S
C341 N338 1.319 . S
C341 C339 1.397 . S
C341 H352 0.930 . S
C342 C339 1.367 . S
C342 C340 1.403 . S
C342 H363 0.929 . S
C343 C344 1.430 . S
C343 C345 1.387 . S
C343 C349 1.404 . S
C344 C337 1.448 . S
C344 C343 1.430 . S
C344 N348 1.351 . S
C345 C343 1.387 . S
C345 C346 1.374 . S
C345 H360 0.931 . S
C346 C340 1.439 . S
C346 C345 1.374 . S
C346 H361 0.931 . S
Eu347 N338 2.600 . S
Eu347 N348 2.562 . S
Eu347 O382 2.335 . S
Eu347 O385 2.372 . S
Eu347 O386 2.462 . S
Eu347 O387 2.373 . S
Eu347 O389 2.432 . S
Eu347 O390 2.291 . S
Eu347 C411 2.787 . S
N348 C344 1.351 . S
N348 Eu347 2.562 . S
N348 C350 1.325 . S
C349 C343 1.404 . S
C349 C351 1.366 . S
C349 H357 0.930 . S
C350 N348 1.325 . S
C350 C351 1.416 . S
C350 H356 0.929 . S
C351 C349 1.366 . S
C351 C350 1.416 . S
C351 H353 0.930 . S
H352 C341 0.930 . S
H353 C351 0.930 . S
H354 C369 0.930 . S
H355 C376 0.930 . S
H356 C350 0.929 . S
H357 C349 0.930 . S
H358 C372 0.929 . S
H359 C339 0.931 . S
H360 C345 0.931 . S
H361 C346 0.931 . S
H362 C367 0.931 . S
H363 C342 0.929 . S
H364 C375 0.930 . S
N365 Eu336 2.600 . S
N365 C366 1.365 . S
N365 C369 1.319 . S
C366 N365 1.365 . S
C366 C368 1.405 . S
C366 C374 1.448 . S
C367 H362 0.931 . S
C367 C369 1.397 . S
C367 C370 1.367 . S
C368 C366 1.405 . S
C368 C370 1.403 . S
C368 C401 1.439 . S
C369 H354 0.930 . S
C369 N365 1.319 . S
C369 C367 1.397 . S
C370 C367 1.367 . S
C370 C368 1.403 . S
C370 H377 0.929 . S
N371 Eu336 2.562 . S
N371 C372 1.325 . S
N371 C374 1.351 . S
C372 H358 0.929 . S
C372 N371 1.325 . S
C372 C376 1.416 . S
C373 C374 1.430 . S
C373 C375 1.404 . S
C373 C402 1.387 . S
C374 C366 1.448 . S
C374 N371 1.351 . S
C374 C373 1.430 . S
C375 H364 0.930 . S
C375 C373 1.404 . S
C375 C376 1.366 . S
C376 H355 0.930 . S
C376 C372 1.416 . S
C376 C375 1.366 . S
H377 C370 0.929 . S
H378 C401 0.931 . S
H379 C402 0.931 . S
O380 Eu336 2.462 . S
O380 C400 1.252 . S
O381 Eu336 2.373 . S
O381 C392 1.249 . S
O382 Eu347 2.335 . S
O382 C392 1.264 . S
O383 Eu336 2.432 . S
O383 C400 1.268 . S
O384 Eu336 2.291 . S
O384 C399 1.255 . S
O385 Eu347 2.372 . S
O385 C399 1.257 . S
O386 Eu347 2.462 . S
O386 C411 1.252 . S
O387 Eu347 2.373 . S
O387 C403 1.249 . S
O388 Eu336 2.335 . S
O388 C403 1.264 . S
O389 Eu347 2.432 . S
O389 C411 1.268 . S
O390 Eu347 2.291 . S
O390 C410 1.255 . S
O391 Eu336 2.372 . S
O391 C410 1.257 . S
C392 O381 1.249 . S
C392 O382 1.264 . S
C393 C396 1.382 . S
C393 C398 1.390 . S
C393 C400 1.506 . S
C394 C395 1.398 . S
C394 C398 1.392 . S
C395 C394 1.398 . S
C395 C397 1.372 . S
C395 H412 0.931 . S
C396 C393 1.382 . S
C396 C397 1.390 . S
C396 H413 0.931 . S
C397 C395 1.372 . S
C397 C396 1.390 . S
C397 H414 0.929 . S
C398 C393 1.390 . S
C398 C394 1.392 . S
C398 H415 0.930 . S
C399 O384 1.255 . S
C399 O385 1.257 . S
C400 Eu336 2.787 . S
C400 O380 1.252 . S
C400 O383 1.268 . S
C400 C393 1.506 . S
C401 C368 1.439 . S
C401 H378 0.931 . S
C401 C402 1.374 . S
C402 C373 1.387 . S
C402 H379 0.931 . S
C402 C401 1.374 . S
C403 O387 1.249 . S
C403 O388 1.264 . S
C404 C407 1.382 . S
C404 C408 1.390 . S
C404 C411 1.506 . S
C405 C406 1.398 . S
C405 C408 1.392 . S
C406 C405 1.398 . S
C406 C409 1.372 . S
C406 H416 0.931 . S
C407 C404 1.382 . S
C407 C409 1.390 . S
C407 H417 0.931 . S
C408 C404 1.390 . S
C408 C405 1.392 . S
C408 H418 0.930 . S
C409 C406 1.372 . S
C409 C407 1.390 . S
C409 H419 0.929 . S
C410 O390 1.255 . S
C410 O391 1.257 . S
C411 Eu347 2.787 . S
C411 O386 1.252 . S
C411 O389 1.268 . S
C411 C404 1.506 . S
H412 C395 0.931 . S
H413 C396 0.931 . S
H414 C397 0.929 . S
H415 C398 0.930 . S
H416 C406 0.931 . S
H417 C407 0.931 . S
H418 C408 0.930 . S
H419 C409 0.929 . S
Eu420 N449 2.600 . S
Eu420 N455 2.562 . S
Eu420 O464 2.462 . S
Eu420 O465 2.373 . S
Eu420 O467 2.432 . S
Eu420 O468 2.291 . S
Eu420 O472 2.335 . S
Eu420 O475 2.372 . S
Eu420 C484 2.787 . S
C421 N422 1.365 . S
C421 C424 1.405 . S
C421 C428 1.448 . S
N422 C421 1.365 . S
N422 C425 1.319 . S
N422 Eu431 2.600 . S
C423 C425 1.397 . S
C423 C426 1.367 . S
C423 H443 0.931 . S
C424 C421 1.405 . S
C424 C426 1.403 . S
C424 C430 1.439 . S
C425 N422 1.319 . S
C425 C423 1.397 . S
C425 H436 0.930 . S
C426 C423 1.367 . S
C426 C424 1.403 . S
C426 H447 0.929 . S
C427 C428 1.430 . S
C427 C429 1.387 . S
C427 C433 1.404 . S
C428 C421 1.448 . S
C428 C427 1.430 . S
C428 N432 1.351 . S
C429 C427 1.387 . S
C429 C430 1.374 . S
C429 H444 0.931 . S
C430 C424 1.439 . S
C430 C429 1.374 . S
C430 H445 0.931 . S
Eu431 N422 2.600 . S
Eu431 N432 2.562 . S
Eu431 O466 2.335 . S
Eu431 O469 2.372 . S
Eu431 O470 2.462 . S
Eu431 O471 2.373 . S
Eu431 O473 2.432 . S
Eu431 O474 2.291 . S
Eu431 C495 2.787 . S
N432 C428 1.351 . S
N432 Eu431 2.562 . S
N432 C434 1.325 . S
C433 C427 1.404 . S
C433 C435 1.366 . S
C433 H441 0.930 . S
C434 N432 1.325 . S
C434 C435 1.416 . S
C434 H440 0.929 . S
C435 C433 1.366 . S
C435 C434 1.416 . S
C435 H437 0.930 . S
H436 C425 0.930 . S
H437 C435 0.930 . S
H438 C453 0.930 . S
H439 C460 0.930 . S
H440 C434 0.929 . S
H441 C433 0.930 . S
H442 C456 0.929 . S
H443 C423 0.931 . S
H444 C429 0.931 . S
H445 C430 0.931 . S
H446 C451 0.931 . S
H447 C426 0.929 . S
H448 C459 0.930 . S
N449 Eu420 2.600 . S
N449 C450 1.365 . S
N449 C453 1.319 . S
C450 N449 1.365 . S
C450 C452 1.405 . S
C450 C458 1.448 . S
C451 H446 0.931 . S
C451 C453 1.397 . S
C451 C454 1.367 . S
C452 C450 1.405 . S
C452 C454 1.403 . S
C452 C485 1.439 . S
C453 H438 0.930 . S
C453 N449 1.319 . S
C453 C451 1.397 . S
C454 C451 1.367 . S
C454 C452 1.403 . S
C454 H461 0.929 . S
N455 Eu420 2.562 . S
N455 C456 1.325 . S
N455 C458 1.351 . S
C456 H442 0.929 . S
C456 N455 1.325 . S
C456 C460 1.416 . S
C457 C458 1.430 . S
C457 C459 1.404 . S
C457 C486 1.387 . S
C458 C450 1.448 . S
C458 N455 1.351 . S
C458 C457 1.430 . S
C459 H448 0.930 . S
C459 C457 1.404 . S
C459 C460 1.366 . S
C460 H439 0.930 . S
C460 C456 1.416 . S
C460 C459 1.366 . S
H461 C454 0.929 . S
H462 C485 0.931 . S
H463 C486 0.931 . S
O464 Eu420 2.462 . S
O464 C484 1.252 . S
O465 Eu420 2.373 . S
O465 C476 1.249 . S
O466 Eu431 2.335 . S
O466 C476 1.264 . S
O467 Eu420 2.432 . S
O467 C484 1.268 . S
O468 Eu420 2.291 . S
O468 C483 1.255 . S
O469 Eu431 2.372 . S
O469 C483 1.257 . S
O470 Eu431 2.462 . S
O470 C495 1.252 . S
O471 Eu431 2.373 . S
O471 C487 1.249 . S
O472 Eu420 2.335 . S
O472 C487 1.264 . S
O473 Eu431 2.432 . S
O473 C495 1.268 . S
O474 Eu431 2.291 . S
O474 C494 1.255 . S
O475 Eu420 2.372 . S
O475 C494 1.257 . S
C476 O465 1.249 . S
C476 O466 1.264 . S
C477 C480 1.382 . S
C477 C482 1.390 . S
C477 C484 1.506 . S
C478 C479 1.398 . S
C478 C482 1.392 . S
C479 C478 1.398 . S
C479 C481 1.372 . S
C479 H496 0.931 . S
C480 C477 1.382 . S
C480 C481 1.390 . S
C480 H497 0.931 . S
C481 C479 1.372 . S
C481 C480 1.390 . S
C481 H498 0.929 . S
C482 C477 1.390 . S
C482 C478 1.392 . S
C482 H499 0.930 . S
C483 O468 1.255 . S
C483 O469 1.257 . S
C484 Eu420 2.787 . S
C484 O464 1.252 . S
C484 O467 1.268 . S
C484 C477 1.506 . S
C485 C452 1.439 . S
C485 H462 0.931 . S
C485 C486 1.374 . S
C486 C457 1.387 . S
C486 H463 0.931 . S
C486 C485 1.374 . S
C487 O471 1.249 . S
C487 O472 1.264 . S
C488 C491 1.382 . S
C488 C492 1.390 . S
C488 C495 1.506 . S
C489 C490 1.398 . S
C489 C492 1.392 . S
C490 C489 1.398 . S
C490 C493 1.372 . S
C490 H500 0.931 . S
C491 C488 1.382 . S
C491 C493 1.390 . S
C491 H501 0.931 . S
C492 C488 1.390 . S
C492 C489 1.392 . S
C492 H502 0.930 . S
C493 C490 1.372 . S
C493 C491 1.390 . S
C493 H503 0.929 . S
C494 O474 1.255 . S
C494 O475 1.257 . S
C495 Eu431 2.787 . S
C495 O470 1.252 . S
C495 O473 1.268 . S
C495 C488 1.506 . S
H496 C479 0.931 . S
H497 C480 0.931 . S
H498 C481 0.929 . S
H499 C482 0.930 . S
H500 C490 0.931 . S
H501 C491 0.931 . S
H502 C492 0.930 . S
H503 C493 0.929 . S
Eu504 N533 2.600 . S
Eu504 N539 2.562 . S
Eu504 O548 2.462 . S
Eu504 O549 2.373 . S
Eu504 O551 2.432 . S
Eu504 O552 2.291 . S
Eu504 O556 2.335 . S
Eu504 O559 2.372 . S
Eu504 C568 2.787 . S
C505 N506 1.365 . S
C505 C508 1.405 . S
C505 C512 1.448 . S
N506 C505 1.365 . S
N506 C509 1.319 . S
N506 Eu515 2.600 . S
C507 C509 1.397 . S
C507 C510 1.367 . S
C507 H527 0.931 . S
C508 C505 1.405 . S
C508 C510 1.403 . S
C508 C514 1.439 . S
C509 N506 1.319 . S
C509 C507 1.397 . S
C509 H520 0.930 . S
C510 C507 1.367 . S
C510 C508 1.403 . S
C510 H531 0.929 . S
C511 C512 1.430 . S
C511 C513 1.387 . S
C511 C517 1.404 . S
C512 C505 1.448 . S
C512 C511 1.430 . S
C512 N516 1.351 . S
C513 C511 1.387 . S
C513 C514 1.374 . S
C513 H528 0.931 . S
C514 C508 1.439 . S
C514 C513 1.374 . S
C514 H529 0.931 . S
Eu515 N506 2.600 . S
Eu515 N516 2.562 . S
Eu515 O550 2.335 . S
Eu515 O553 2.372 . S
Eu515 O554 2.462 . S
Eu515 O555 2.373 . S
Eu515 O557 2.432 . S
Eu515 O558 2.291 . S
Eu515 C579 2.787 . S
N516 C512 1.351 . S
N516 Eu515 2.562 . S
N516 C518 1.325 . S
C517 C511 1.404 . S
C517 C519 1.366 . S
C517 H525 0.930 . S
C518 N516 1.325 . S
C518 C519 1.416 . S
C518 H524 0.929 . S
C519 C517 1.366 . S
C519 C518 1.416 . S
C519 H521 0.930 . S
H520 C509 0.930 . S
H521 C519 0.930 . S
H522 C537 0.930 . S
H523 C544 0.930 . S
H524 C518 0.929 . S
H525 C517 0.930 . S
H526 C540 0.929 . S
H527 C507 0.931 . S
H528 C513 0.931 . S
H529 C514 0.931 . S
H530 C535 0.931 . S
H531 C510 0.929 . S
H532 C543 0.930 . S
N533 Eu504 2.600 . S
N533 C534 1.365 . S
N533 C537 1.319 . S
C534 N533 1.365 . S
C534 C536 1.405 . S
C534 C542 1.448 . S
C535 H530 0.931 . S
C535 C537 1.397 . S
C535 C538 1.367 . S
C536 C534 1.405 . S
C536 C538 1.403 . S
C536 C569 1.439 . S
C537 H522 0.930 . S
C537 N533 1.319 . S
C537 C535 1.397 . S
C538 C535 1.367 . S
C538 C536 1.403 . S
C538 H545 0.929 . S
N539 Eu504 2.562 . S
N539 C540 1.325 . S
N539 C542 1.351 . S
C540 H526 0.929 . S
C540 N539 1.325 . S
C540 C544 1.416 . S
C541 C542 1.430 . S
C541 C543 1.404 . S
C541 C570 1.387 . S
C542 C534 1.448 . S
C542 N539 1.351 . S
C542 C541 1.430 . S
C543 H532 0.930 . S
C543 C541 1.404 . S
C543 C544 1.366 . S
C544 H523 0.930 . S
C544 C540 1.416 . S
C544 C543 1.366 . S
H545 C538 0.929 . S
H546 C569 0.931 . S
H547 C570 0.931 . S
O548 Eu504 2.462 . S
O548 C568 1.252 . S
O549 Eu504 2.373 . S
O549 C560 1.249 . S
O550 Eu515 2.335 . S
O550 C560 1.264 . S
O551 Eu504 2.432 . S
O551 C568 1.268 . S
O552 Eu504 2.291 . S
O552 C567 1.255 . S
O553 Eu515 2.372 . S
O553 C567 1.257 . S
O554 Eu515 2.462 . S
O554 C579 1.252 . S
O555 Eu515 2.373 . S
O555 C571 1.249 . S
O556 Eu504 2.335 . S
O556 C571 1.264 . S
O557 Eu515 2.432 . S
O557 C579 1.268 . S
O558 Eu515 2.291 . S
O558 C578 1.255 . S
O559 Eu504 2.372 . S
O559 C578 1.257 . S
C560 O549 1.249 . S
C560 O550 1.264 . S
C561 C564 1.382 . S
C561 C566 1.390 . S
C561 C568 1.506 . S
C562 C563 1.398 . S
C562 C566 1.392 . S
C563 C562 1.398 . S
C563 C565 1.372 . S
C563 H580 0.931 . S
C564 C561 1.382 . S
C564 C565 1.390 . S
C564 H581 0.931 . S
C565 C563 1.372 . S
C565 C564 1.390 . S
C565 H582 0.929 . S
C566 C561 1.390 . S
C566 C562 1.392 . S
C566 H583 0.930 . S
C567 O552 1.255 . S
C567 O553 1.257 . S
C568 Eu504 2.787 . S
C568 O548 1.252 . S
C568 O551 1.268 . S
C568 C561 1.506 . S
C569 C536 1.439 . S
C569 H546 0.931 . S
C569 C570 1.374 . S
C570 C541 1.387 . S
C570 H547 0.931 . S
C570 C569 1.374 . S
C571 O555 1.249 . S
C571 O556 1.264 . S
C572 C575 1.382 . S
C572 C576 1.390 . S
C572 C579 1.506 . S
C573 C574 1.398 . S
C573 C576 1.392 . S
C574 C573 1.398 . S
C574 C577 1.372 . S
C574 H584 0.931 . S
C575 C572 1.382 . S
C575 C577 1.390 . S
C575 H585 0.931 . S
C576 C572 1.390 . S
C576 C573 1.392 . S
C576 H586 0.930 . S
C577 C574 1.372 . S
C577 C575 1.390 . S
C577 H587 0.929 . S
C578 O558 1.255 . S
C578 O559 1.257 . S
C579 Eu515 2.787 . S
C579 O554 1.252 . S
C579 O557 1.268 . S
C579 C572 1.506 . S
H580 C563 0.931 . S
H581 C564 0.931 . S
H582 C565 0.929 . S
H583 C566 0.930 . S
H584 C574 0.931 . S
H585 C575 0.931 . S
H586 C576 0.930 . S
H587 C577 0.929 . S
Eu588 N617 2.600 . S
Eu588 N623 2.562 . S
Eu588 O632 2.462 . S
Eu588 O633 2.373 . S
Eu588 O635 2.432 . S
Eu588 O636 2.291 . S
Eu588 O640 2.335 . S
Eu588 O643 2.372 . S
Eu588 C652 2.787 . S
C589 N590 1.365 . S
C589 C592 1.405 . S
C589 C596 1.448 . S
N590 C589 1.365 . S
N590 C593 1.319 . S
N590 Eu599 2.600 . S
C591 C593 1.397 . S
C591 C594 1.367 . S
C591 H611 0.931 . S
C592 C589 1.405 . S
C592 C594 1.403 . S
C592 C598 1.439 . S
C593 N590 1.319 . S
C593 C591 1.397 . S
C593 H604 0.930 . S
C594 C591 1.367 . S
C594 C592 1.403 . S
C594 H615 0.929 . S
C595 C596 1.430 . S
C595 C597 1.387 . S
C595 C601 1.404 . S
C596 C589 1.448 . S
C596 C595 1.430 . S
C596 N600 1.351 . S
C597 C595 1.387 . S
C597 C598 1.374 . S
C597 H612 0.931 . S
C598 C592 1.439 . S
C598 C597 1.374 . S
C598 H613 0.931 . S
Eu599 N590 2.600 . S
Eu599 N600 2.562 . S
Eu599 O634 2.335 . S
Eu599 O637 2.372 . S
Eu599 O638 2.462 . S
Eu599 O639 2.373 . S
Eu599 O641 2.432 . S
Eu599 O642 2.291 . S
Eu599 C663 2.787 . S
N600 C596 1.351 . S
N600 Eu599 2.562 . S
N600 C602 1.325 . S
C601 C595 1.404 . S
C601 C603 1.366 . S
C601 H609 0.930 . S
C602 N600 1.325 . S
C602 C603 1.416 . S
C602 H608 0.929 . S
C603 C601 1.366 . S
C603 C602 1.416 . S
C603 H605 0.930 . S
H604 C593 0.930 . S
H605 C603 0.930 . S
H606 C621 0.930 . S
H607 C628 0.930 . S
H608 C602 0.929 . S
H609 C601 0.930 . S
H610 C624 0.929 . S
H611 C591 0.931 . S
H612 C597 0.931 . S
H613 C598 0.931 . S
H614 C619 0.931 . S
H615 C594 0.929 . S
H616 C627 0.930 . S
N617 Eu588 2.600 . S
N617 C618 1.365 . S
N617 C621 1.319 . S
C618 N617 1.365 . S
C618 C620 1.405 . S
C618 C626 1.448 . S
C619 H614 0.931 . S
C619 C621 1.397 . S
C619 C622 1.367 . S
C620 C618 1.405 . S
C620 C622 1.403 . S
C620 C653 1.439 . S
C621 H606 0.930 . S
C621 N617 1.319 . S
C621 C619 1.397 . S
C622 C619 1.367 . S
C622 C620 1.403 . S
C622 H629 0.929 . S
N623 Eu588 2.562 . S
N623 C624 1.325 . S
N623 C626 1.351 . S
C624 H610 0.929 . S
C624 N623 1.325 . S
C624 C628 1.416 . S
C625 C626 1.430 . S
C625 C627 1.404 . S
C625 C654 1.387 . S
C626 C618 1.448 . S
C626 N623 1.351 . S
C626 C625 1.430 . S
C627 H616 0.930 . S
C627 C625 1.404 . S
C627 C628 1.366 . S
C628 H607 0.930 . S
C628 C624 1.416 . S
C628 C627 1.366 . S
H629 C622 0.929 . S
H630 C653 0.931 . S
H631 C654 0.931 . S
O632 Eu588 2.462 . S
O632 C652 1.252 . S
O633 Eu588 2.373 . S
O633 C644 1.249 . S
O634 Eu599 2.335 . S
O634 C644 1.264 . S
O635 Eu588 2.432 . S
O635 C652 1.268 . S
O636 Eu588 2.291 . S
O636 C651 1.255 . S
O637 Eu599 2.372 . S
O637 C651 1.257 . S
O638 Eu599 2.462 . S
O638 C663 1.252 . S
O639 Eu599 2.373 . S
O639 C655 1.249 . S
O640 Eu588 2.335 . S
O640 C655 1.264 . S
O641 Eu599 2.432 . S
O641 C663 1.268 . S
O642 Eu599 2.291 . S
O642 C662 1.255 . S
O643 Eu588 2.372 . S
O643 C662 1.257 . S
C644 O633 1.249 . S
C644 O634 1.264 . S
C645 C648 1.382 . S
C645 C650 1.390 . S
C645 C652 1.506 . S
C646 C647 1.398 . S
C646 C650 1.392 . S
C647 C646 1.398 . S
C647 C649 1.372 . S
C647 H664 0.931 . S
C648 C645 1.382 . S
C648 C649 1.390 . S
C648 H665 0.931 . S
C649 C647 1.372 . S
C649 C648 1.390 . S
C649 H666 0.929 . S
C650 C645 1.390 . S
C650 C646 1.392 . S
C650 H667 0.930 . S
C651 O636 1.255 . S
C651 O637 1.257 . S
C652 Eu588 2.787 . S
C652 O632 1.252 . S
C652 O635 1.268 . S
C652 C645 1.506 . S
C653 C620 1.439 . S
C653 H630 0.931 . S
C653 C654 1.374 . S
C654 C625 1.387 . S
C654 H631 0.931 . S
C654 C653 1.374 . S
C655 O639 1.249 . S
C655 O640 1.264 . S
C656 C659 1.382 . S
C656 C660 1.390 . S
C656 C663 1.506 . S
C657 C658 1.398 . S
C657 C660 1.392 . S
C658 C657 1.398 . S
C658 C661 1.372 . S
C658 H668 0.931 . S
C659 C656 1.382 . S
C659 C661 1.390 . S
C659 H669 0.931 . S
C660 C656 1.390 . S
C660 C657 1.392 . S
C660 H670 0.930 . S
C661 C658 1.372 . S
C661 C659 1.390 . S
C661 H671 0.929 . S
C662 O642 1.255 . S
C662 O643 1.257 . S
C663 Eu599 2.787 . S
C663 O638 1.252 . S
C663 O641 1.268 . S
C663 C656 1.506 . S
H664 C647 0.931 . S
H665 C648 0.931 . S
H666 C649 0.929 . S
H667 C650 0.930 . S
H668 C658 0.931 . S
H669 C659 0.931 . S
H670 C660 0.930 . S
H671 C661 0.929 . S
Fe672 O673 1.886 1_455 S
Fe672 O676 1.715 . S
Fe672 O681 2.077 1_455 S
Fe672 O686 1.935 . S
Fe672 O692 2.077 1_455 S
Fe672 O701 1.935 . S
O673 Fe672 1.886 1_655 S
O673 Fe675 1.715 1_545 S
Fe674 O676 1.886 . S
Fe674 O677 1.715 1_545 S
Fe674 O684 1.935 1_545 S
Fe674 O685 2.077 . S
Fe674 O691 1.935 1_545 S
Fe674 O700 2.077 . S
Fe675 O673 1.715 1_565 S
Fe675 O678 1.886 . S
Fe675 O682 1.935 1_565 S
Fe675 O687 2.077 . S
Fe675 O693 1.935 1_565 S
Fe675 O697 2.077 . S
O676 Fe672 1.715 . S
O676 Fe674 1.886 . S
O677 Fe674 1.715 1_565 S
O677 Fe679 1.886 1_455 S
O678 Fe675 1.886 . S
O678 Fe679 1.715 . S
Fe679 O677 1.886 1_655 S
Fe679 O678 1.715 . S
Fe679 O683 2.077 1_655 S
Fe679 O688 1.935 . S
Fe679 O690 2.077 1_655 S
Fe679 O698 1.935 . S
C680 O692 1.381 . S
C680 O693 1.421 . S
O681 Fe672 2.077 1_655 S
O681 C694 1.381 . S
O682 Fe675 1.935 1_545 S
O682 C694 1.421 . S
O683 Fe679 2.077 1_455 S
O683 C699 1.381 . S
O684 Fe674 1.935 1_565 S
O684 C699 1.421 . S
O685 Fe674 2.077 . S
O685 C689 1.381 . S
O686 Fe672 1.935 . S
O686 C689 1.421 . S
O687 Fe675 2.077 . S
O687 C695 1.381 . S
O688 Fe679 1.935 . S
O688 C695 1.421 . S
C689 O685 1.381 . S
C689 O686 1.421 . S
O690 Fe679 2.077 1_455 S
O690 C702 1.381 . S
O691 Fe674 1.935 1_565 S
O691 C702 1.421 . S
O692 Fe672 2.077 1_655 S
O692 C680 1.381 . S
O693 Fe675 1.935 1_545 S
O693 C680 1.421 . S
C694 O681 1.381 . S
C694 O682 1.421 . S
C695 O687 1.381 . S
C695 O688 1.421 . S
C696 O697 1.381 . S
C696 O698 1.421 . S
O697 Fe675 2.077 . S
O697 C696 1.381 . S
O698 Fe679 1.935 . S
O698 C696 1.421 . S
C699 O683 1.381 . S
C699 O684 1.421 . S
O700 Fe674 2.077 . S
O700 C703 1.381 . S
O701 Fe672 1.935 . S
O701 C703 1.421 . S
C702 O690 1.381 . S
C702 O691 1.421 . S
C703 O700 1.381 . S
C703 O701 1.421 . S
Fe704 O705 1.886 . S
Fe704 O708 1.714 . S
Fe704 O713 2.077 . S
Fe704 O718 1.935 . S
Fe704 O724 2.077 1_556 S
Fe704 O733 1.935 1_556 S
O705 Fe704 1.886 . S
O705 Fe707 1.715 1_565 S
Fe706 O708 1.886 1_554 S
Fe706 O709 1.715 1_565 S
Fe706 O716 1.935 1_564 S
Fe706 O717 2.077 1_554 S
Fe706 O723 1.935 1_565 S
Fe706 O732 2.077 . S
Fe707 O705 1.715 1_545 S
Fe707 O710 1.888 1_556 S
Fe707 O714 1.935 1_545 S
Fe707 O719 2.077 . S
Fe707 O725 1.935 1_546 S
Fe707 O729 2.077 1_556 S
O708 Fe704 1.714 . S
O708 Fe706 1.886 1_556 S
O709 Fe706 1.715 1_545 S
O709 Fe711 1.886 . S
O710 Fe707 1.888 1_554 S
O710 Fe711 1.713 . S
Fe711 O709 1.886 . S
Fe711 O710 1.713 . S
Fe711 O715 2.077 1_554 S
Fe711 O720 1.935 1_554 S
Fe711 O722 2.077 . S
Fe711 O730 1.935 . S
C712 O724 1.381 . S
C712 O725 1.421 . S
O713 Fe704 2.077 . S
O713 C726 1.381 . S
O714 Fe707 1.935 1_565 S
O714 C726 1.421 . S
O715 Fe711 2.077 1_556 S
O715 C731 1.381 . S
O716 Fe706 1.935 1_546 S
O716 C731 1.421 . S
O717 Fe706 2.077 1_556 S
O717 C721 1.381 . S
O718 Fe704 1.935 . S
O718 C721 1.421 . S
O719 Fe707 2.077 . S
O719 C727 1.381 . S
O720 Fe711 1.935 1_556 S
O720 C727 1.421 . S
C721 O717 1.381 . S
C721 O718 1.421 . S
O722 Fe711 2.077 . S
O722 C734 1.381 . S
O723 Fe706 1.935 1_545 S
O723 C734 1.421 . S
O724 Fe704 2.077 1_554 S
O724 C712 1.381 . S
O725 Fe707 1.935 1_564 S
O725 C712 1.421 . S
C726 O713 1.381 . S
C726 O714 1.421 . S
C727 O719 1.381 . S
C727 O720 1.421 . S
C728 O729 1.381 . S
C728 O730 1.421 . S
O729 Fe707 2.077 1_554 S
O729 C728 1.381 . S
O730 Fe711 1.935 . S
O730 C728 1.421 . S
C731 O715 1.381 . S
C731 O716 1.421 . S
O732 Fe706 2.077 . S
O732 C735 1.381 . S
O733 Fe704 1.935 1_554 S
O733 C735 1.421 . S
C734 O722 1.381 . S
C734 O723 1.421 . S
C735 O732 1.381 . S
C735 O733 1.421 . S
Fe736 O737 1.886 1_455 S
Fe736 O740 1.713 . S
Fe736 O745 2.077 1_454 S
Fe736 O750 1.935 1_554 S
Fe736 O756 2.077 1_455 S
Fe736 O765 1.935 . S
O737 Fe736 1.886 1_655 S
O737 Fe739 1.715 . S
Fe738 O740 1.888 1_556 S
Fe738 O741 1.715 . S
Fe738 O748 1.935 . S
Fe738 O749 2.077 . S
Fe738 O755 1.935 1_556 S
Fe738 O764 2.077 1_556 S
Fe739 O737 1.715 . S
Fe739 O742 1.886 1_554 S
Fe739 O746 1.935 1_554 S
Fe739 O751 2.077 1_554 S
Fe739 O757 1.935 . S
Fe739 O761 2.077 . S
O740 Fe736 1.713 . S
O740 Fe738 1.888 1_554 S
O741 Fe738 1.715 . S
O741 Fe743 1.886 1_455 S
O742 Fe739 1.886 1_556 S
O742 Fe743 1.714 . S
Fe743 O741 1.886 1_655 S
Fe743 O742 1.714 . S
Fe743 O747 2.077 1_655 S
Fe743 O752 1.935 . S
Fe743 O754 2.077 1_656 S
Fe743 O762 1.935 1_556 S
C744 O756 1.381 . S
C744 O757 1.421 . S
O745 Fe736 2.077 1_656 S
O745 C758 1.381 . S
O746 Fe739 1.935 1_556 S
O746 C758 1.421 . S
O747 Fe743 2.077 1_455 S
O747 C763 1.381 . S
O748 Fe738 1.935 . S
O748 C763 1.421 . S
O749 Fe738 2.077 . S
O749 C753 1.381 . S
O750 Fe736 1.935 1_556 S
O750 C753 1.421 . S
O751 Fe739 2.077 1_556 S
O751 C759 1.381 . S
O752 Fe743 1.935 . S
O752 C759 1.421 . S
C753 O749 1.381 . S
C753 O750 1.421 . S
O754 Fe743 2.077 1_454 S
O754 C766 1.381 . S
O755 Fe738 1.935 1_554 S
O755 C766 1.421 . S
O756 Fe736 2.077 1_655 S
O756 C744 1.381 . S
O757 Fe739 1.935 . S
O757 C744 1.421 . S
C758 O745 1.381 . S
C758 O746 1.421 . S
C759 O751 1.381 . S
C759 O752 1.421 . S
C760 O761 1.381 . S
C760 O762 1.421 . S
O761 Fe739 2.077 . S
O761 C760 1.381 . S
O762 Fe743 1.935 1_554 S
O762 C760 1.421 . S
C763 O747 1.381 . S
C763 O748 1.421 . S
O764 Fe738 2.077 1_554 S
O764 C767 1.381 . S
O765 Fe736 1.935 . S
O765 C767 1.421 . S
C766 O754 1.381 . S
C766 O755 1.421 . S
C767 O764 1.381 . S
C767 O765 1.421 . S
Fe768 O769 1.886 . S
Fe768 O772 1.715 . S
Fe768 O777 2.077 . S
Fe768 O782 1.935 . S
Fe768 O788 2.077 . S
Fe768 O797 1.935 . S
O769 Fe768 1.886 . S
O769 Fe771 1.715 . S
Fe770 O772 1.886 1_554 S
Fe770 O773 1.715 . S
Fe770 O780 1.935 . S
Fe770 O781 2.077 1_554 S
Fe770 O787 1.935 . S
Fe770 O796 2.077 1_554 S
Fe771 O769 1.715 . S
Fe771 O774 1.886 1_556 S
Fe771 O778 1.935 . S
Fe771 O783 2.077 1_556 S
Fe771 O789 1.935 . S
Fe771 O793 2.077 1_556 S
O772 Fe768 1.715 . S
O772 Fe770 1.886 1_556 S
O773 Fe770 1.715 . S
O773 Fe775 1.886 . S
O774 Fe771 1.886 1_554 S
O774 Fe775 1.715 . S
Fe775 O773 1.886 . S
Fe775 O774 1.715 . S
Fe775 O779 2.077 . S
Fe775 O784 1.935 . S
Fe775 O786 2.077 . S
Fe775 O794 1.935 . S
C776 O788 1.381 . S
C776 O789 1.421 . S
O777 Fe768 2.077 . S
O777 C790 1.381 . S
O778 Fe771 1.935 . S
O778 C790 1.421 . S
O779 Fe775 2.077 . S
O779 C795 1.381 . S
O780 Fe770 1.935 . S
O780 C795 1.421 . S
O781 Fe770 2.077 1_556 S
O781 C785 1.381 . S
O782 Fe768 1.935 . S
O782 C785 1.421 . S
O783 Fe771 2.077 1_554 S
O783 C791 1.381 . S
O784 Fe775 1.935 . S
O784 C791 1.421 . S
C785 O781 1.381 . S
C785 O782 1.421 . S
O786 Fe775 2.077 . S
O786 C798 1.381 . S
O787 Fe770 1.935 . S
O787 C798 1.421 . S
O788 Fe768 2.077 . S
O788 C776 1.381 . S
O789 Fe771 1.935 . S
O789 C776 1.421 . S
C790 O777 1.381 . S
C790 O778 1.421 . S
C791 O783 1.381 . S
C791 O784 1.421 . S
C792 O793 1.381 . S
C792 O794 1.421 . S
O793 Fe771 2.077 1_554 S
O793 C792 1.381 . S
O794 Fe775 1.935 . S
O794 C792 1.421 . S
C795 O779 1.381 . S
C795 O780 1.421 . S
O796 Fe770 2.077 1_556 S
O796 C799 1.381 . S
O797 Fe768 1.935 . S
O797 C799 1.421 . S
C798 O786 1.381 . S
C798 O787 1.421 . S
C799 O796 1.381 . S
C799 O797 1.421 . S
Fe800 O801 1.886 . S
Fe800 O804 1.715 . S
Fe800 O809 2.077 1_655 S
Fe800 O814 1.935 1_655 S
Fe800 O820 2.077 . S
Fe800 O829 1.935 . S
O801 Fe800 1.886 . S
O801 Fe803 1.715 . S
Fe802 O804 1.886 1_455 S
Fe802 O805 1.715 . S
Fe802 O812 1.935 . S
Fe802 O813 2.077 . S
Fe802 O819 1.935 1_455 S
Fe802 O828 2.077 1_455 S
Fe803 O801 1.715 . S
Fe803 O806 1.886 1_655 S
Fe803 O810 1.935 1_655 S
Fe803 O815 2.077 1_655 S
Fe803 O821 1.935 . S
Fe803 O825 2.077 . S
O804 Fe800 1.715 . S
O804 Fe802 1.886 1_655 S
O805 Fe802 1.715 . S
O805 Fe807 1.886 . S
O806 Fe803 1.886 1_455 S
O806 Fe807 1.715 . S
Fe807 O805 1.886 . S
Fe807 O806 1.715 . S
Fe807 O811 2.077 . S
Fe807 O816 1.935 . S
Fe807 O818 2.077 1_455 S
Fe807 O826 1.935 1_455 S
C808 O820 1.381 . S
C808 O821 1.421 . S
O809 Fe800 2.077 1_455 S
O809 C822 1.381 . S
O810 Fe803 1.935 1_455 S
O810 C822 1.421 . S
O811 Fe807 2.077 . S
O811 C827 1.381 . S
O812 Fe802 1.935 . S
O812 C827 1.421 . S
O813 Fe802 2.077 . S
O813 C817 1.381 . S
O814 Fe800 1.935 1_455 S
O814 C817 1.421 . S
O815 Fe803 2.077 1_455 S
O815 C823 1.381 . S
O816 Fe807 1.935 . S
O816 C823 1.421 . S
C817 O813 1.381 . S
C817 O814 1.421 . S
O818 Fe807 2.077 1_655 S
O818 C830 1.381 . S
O819 Fe802 1.935 1_655 S
O819 C830 1.421 . S
O820 Fe800 2.077 . S
O820 C808 1.381 . S
O821 Fe803 1.935 . S
O821 C808 1.421 . S
C822 O809 1.381 . S
C822 O810 1.421 . S
C823 O815 1.381 . S
C823 O816 1.421 . S
C824 O825 1.381 . S
C824 O826 1.421 . S
O825 Fe803 2.077 . S
O825 C824 1.381 . S
O826 Fe807 1.935 1_655 S
O826 C824 1.421 . S
C827 O811 1.381 . S
C827 O812 1.421 . S
O828 Fe802 2.077 1_655 S
O828 C831 1.381 . S
O829 Fe800 1.935 . S
O829 C831 1.421 . S
C830 O818 1.381 . S
C830 O819 1.421 . S
C831 O828 1.381 . S
C831 O829 1.421 . S
Fe832 O833 1.886 . S
Fe832 O836 1.715 . S
Fe832 O841 2.077 . S
Fe832 O846 1.935 . S
Fe832 O852 2.077 . S
Fe832 O861 1.935 . S
O833 Fe832 1.886 . S
O833 Fe835 1.715 1_565 S
Fe834 O836 1.886 . S
Fe834 O837 1.715 1_565 S
Fe834 O844 1.935 1_565 S
Fe834 O845 2.077 . S
Fe834 O851 1.935 1_565 S
Fe834 O860 2.077 . S
Fe835 O833 1.715 1_545 S
Fe835 O838 1.886 . S
Fe835 O842 1.935 1_545 S
Fe835 O847 2.077 . S
Fe835 O853 1.935 1_545 S
Fe835 O857 2.077 . S
O836 Fe832 1.715 . S
O836 Fe834 1.886 . S
O837 Fe834 1.715 1_545 S
O837 Fe839 1.886 . S
O838 Fe835 1.886 . S
O838 Fe839 1.715 . S
Fe839 O837 1.886 . S
Fe839 O838 1.715 . S
Fe839 O843 2.077 . S
Fe839 O848 1.935 . S
Fe839 O850 2.077 . S
Fe839 O858 1.935 . S
C840 O852 1.381 . S
C840 O853 1.421 . S
O841 Fe832 2.077 . S
O841 C854 1.381 . S
O842 Fe835 1.935 1_565 S
O842 C854 1.421 . S
O843 Fe839 2.077 . S
O843 C859 1.381 . S
O844 Fe834 1.935 1_545 S
O844 C859 1.421 . S
O845 Fe834 2.077 . S
O845 C849 1.381 . S
O846 Fe832 1.935 . S
O846 C849 1.421 . S
O847 Fe835 2.077 . S
O847 C855 1.381 . S
O848 Fe839 1.935 . S
O848 C855 1.421 . S
C849 O845 1.381 . S
C849 O846 1.421 . S
O850 Fe839 2.077 . S
O850 C862 1.381 . S
O851 Fe834 1.935 1_545 S
O851 C862 1.421 . S
O852 Fe832 2.077 . S
O852 C840 1.381 . S
O853 Fe835 1.935 1_565 S
O853 C840 1.421 . S
C854 O841 1.381 . S
C854 O842 1.421 . S
C855 O847 1.381 . S
C855 O848 1.421 . S
C856 O857 1.381 . S
C856 O858 1.421 . S
O857 Fe835 2.077 . S
O857 C856 1.381 . S
O858 Fe839 1.935 . S
O858 C856 1.421 . S
C859 O843 1.381 . S
C859 O844 1.421 . S
O860 Fe834 2.077 . S
O860 C863 1.381 . S
O861 Fe832 1.935 . S
O861 C863 1.421 . S
C862 O850 1.381 . S
C862 O851 1.421 . S
C863 O860 1.381 . S
C863 O861 1.421 . S
C864 C865 1.387 . S
C864 H868 0.950 . S
C864 C873 1.390 . S
C865 C864 1.387 . S
C865 C867 1.387 . S
H866 C873 0.950 . S
C867 C865 1.387 . S
C867 C869 1.390 . S
C867 H871 0.950 . S
H868 C864 0.950 . S
C869 C867 1.390 . S
C869 C870 1.387 . S
C869 H872 0.950 . S
C870 C869 1.387 . S
C870 C873 1.387 . S
H871 C867 0.950 . S
H872 C869 0.950 . S
C873 C864 1.390 . S
C873 H866 0.950 . S
C873 C870 1.387 . S
C874 C875 1.387 . S
C874 H878 0.950 . S
C874 C883 1.390 . S
C875 C874 1.387 . S
C875 C877 1.387 . S
H876 C883 0.950 . S
C877 C875 1.387 . S
C877 C879 1.390 . S
C877 H881 0.950 . S
H878 C874 0.950 . S
C879 C877 1.390 . S
C879 C880 1.387 . S
C879 H882 0.950 . S
C880 C879 1.387 . S
C880 C883 1.387 . S
H881 C877 0.950 . S
H882 C879 0.950 . S
C883 C874 1.390 . S
C883 H876 0.950 . S
C883 C880 1.387 . S
C884 C885 1.387 . S
C884 H888 0.950 . S
C884 C893 1.390 . S
C885 C884 1.387 . S
C885 C887 1.387 . S
H886 C893 0.950 . S
C887 C885 1.387 . S
C887 C889 1.390 . S
C887 H891 0.950 . S
H888 C884 0.950 . S
C889 C887 1.390 . S
C889 C890 1.387 . S
C889 H892 0.950 . S
C890 C889 1.387 . S
C890 C893 1.387 . S
H891 C887 0.950 . S
H892 C889 0.950 . S
C893 C884 1.390 . S
C893 H886 0.950 . S
C893 C890 1.387 . S
C894 C895 1.387 . S
C894 H898 0.950 . S
C894 C903 1.390 . S
C895 C894 1.387 . S
C895 C897 1.387 . S
H896 C903 0.950 . S
C897 C895 1.387 . S
C897 C899 1.390 . S
C897 H901 0.950 . S
H898 C894 0.950 . S
C899 C897 1.390 . S
C899 C900 1.387 . S
C899 H902 0.950 . S
C900 C899 1.387 . S
C900 C903 1.387 . S
H901 C897 0.950 . S
H902 C899 0.950 . S
C903 C894 1.390 . S
C903 H896 0.950 . S
C903 C900 1.387 . S
C904 C905 1.387 . S
C904 H908 0.950 . S
C904 C913 1.390 . S
C905 C904 1.387 . S
C905 C907 1.387 . S
H906 C913 0.950 . S
C907 C905 1.387 . S
C907 C909 1.390 . S
C907 H911 0.950 . S
H908 C904 0.950 . S
C909 C907 1.390 . S
C909 C910 1.387 . S
C909 H912 0.950 . S
C910 C909 1.387 . S
C910 C913 1.387 . S
H911 C907 0.950 . S
H912 C909 0.950 . S
C913 C904 1.390 . S
C913 H906 0.950 . S
C913 C910 1.387 . S
C914 C915 1.387 . S
C914 H918 0.950 . S
C914 C923 1.390 . S
C915 C914 1.387 . S
C915 C917 1.387 . S
H916 C923 0.950 . S
C917 C915 1.387 . S
C917 C919 1.390 . S
C917 H921 0.950 . S
H918 C914 0.950 . S
C919 C917 1.390 . S
C919 C920 1.387 . S
C919 H922 0.950 . S
C920 C919 1.387 . S
C920 C923 1.387 . S
H921 C917 0.950 . S
H922 C919 0.950 . S
C923 C914 1.390 . S
C923 H916 0.950 . S
C923 C920 1.387 . S
C924 C925 1.387 . S
C924 H928 0.950 . S
C924 C933 1.390 . S
C925 C924 1.387 . S
C925 C927 1.387 . S
H926 C933 0.950 . S
C927 C925 1.387 . S
C927 C929 1.390 . S
C927 H931 0.950 . S
H928 C924 0.950 . S
C929 C927 1.390 . S
C929 C930 1.387 . S
C929 H932 0.950 . S
C930 C929 1.387 . S
C930 C933 1.387 . S
H931 C927 0.950 . S
H932 C929 0.950 . S
C933 C924 1.390 . S
C933 H926 0.950 . S
C933 C930 1.387 . S
C934 C935 1.387 . S
C934 H938 0.950 . S
C934 C943 1.390 . S
C935 C934 1.387 . S
C935 C937 1.387 . S
H936 C943 0.950 . S
C937 C935 1.387 . S
C937 C939 1.390 . S
C937 H941 0.950 . S
H938 C934 0.950 . S
C939 C937 1.390 . S
C939 C940 1.387 . S
C939 H942 0.950 . S
C940 C939 1.387 . S
C940 C943 1.387 . S
H941 C937 0.950 . S
H942 C939 0.950 . S
C943 C934 1.390 . S
C943 H936 0.950 . S
C943 C940 1.387 . S
C944 C945 1.387 . S
C944 H948 0.950 . S
C944 C953 1.390 . S
C945 C944 1.387 . S
C945 C947 1.387 . S
H946 C953 0.950 . S
C947 C945 1.387 . S
C947 C949 1.390 . S
C947 H951 0.950 . S
H948 C944 0.950 . S
C949 C947 1.390 . S
C949 C950 1.387 . S
C949 H952 0.950 . S
C950 C949 1.387 . S
C950 C953 1.387 . S
H951 C947 0.950 . S
H952 C949 0.950 . S
C953 C944 1.390 . S
C953 H946 0.950 . S
C953 C950 1.387 . S
C954 C955 1.387 . S
C954 H958 0.950 . S
C954 C963 1.390 . S
C955 C954 1.387 . S
C955 C957 1.387 . S
H956 C963 0.950 . S
C957 C955 1.387 . S
C957 C959 1.390 . S
C957 H961 0.950 . S
H958 C954 0.950 . S
C959 C957 1.390 . S
C959 C960 1.387 . S
C959 H962 0.950 . S
C960 C959 1.387 . S
C960 C963 1.387 . S
H961 C957 0.950 . S
H962 C959 0.950 . S
C963 C954 1.390 . S
C963 H956 0.950 . S
C963 C960 1.387 . S
C964 C965 1.387 . S
C964 H968 0.950 . S
C964 C973 1.390 . S
C965 C964 1.387 . S
C965 C967 1.387 . S
H966 C973 0.950 . S
C967 C965 1.387 . S
C967 C969 1.390 . S
C967 H971 0.950 . S
H968 C964 0.950 . S
C969 C967 1.390 . S
C969 C970 1.387 . S
C969 H972 0.950 . S
C970 C969 1.387 . S
C970 C973 1.387 . S
H971 C967 0.950 . S
H972 C969 0.950 . S
C973 C964 1.390 . S
C973 H966 0.950 . S
C973 C970 1.387 . S
C974 C975 1.387 . S
C974 H978 0.950 . S
C974 C983 1.390 . S
C975 C974 1.387 . S
C975 C977 1.387 . S
H976 C983 0.950 . S
C977 C975 1.387 . S
C977 C979 1.390 . S
C977 H981 0.950 . S
H978 C974 0.950 . S
C979 C977 1.390 . S
C979 C980 1.387 . S
C979 H982 0.950 . S
C980 C979 1.387 . S
C980 C983 1.387 . S
H981 C977 0.950 . S
H982 C979 0.950 . S
C983 C974 1.390 . S
C983 H976 0.950 . S
C983 C980 1.387 . S
C984 C985 1.387 . S
C984 H988 0.950 . S
C984 C993 1.390 . S
C985 C984 1.387 . S
C985 C987 1.387 . S
H986 C993 0.950 . S
C987 C985 1.387 . S
C987 C989 1.390 . S
C987 H991 0.950 . S
H988 C984 0.950 . S
C989 C987 1.390 . S
C989 C990 1.387 . S
C989 H992 0.950 . S
C990 C989 1.387 . S
C990 C993 1.387 . S
H991 C987 0.950 . S
H992 C989 0.950 . S
C993 C984 1.390 . S
C993 H986 0.950 . S
C993 C990 1.387 . S
C994 C995 1.387 . S
C994 H998 0.950 . S
C994 C1003 1.390 . S
C995 C994 1.387 . S
C995 C997 1.387 . S
H996 C1003 0.950 . S
C997 C995 1.387 . S
C997 C999 1.390 . S
C997 H1001 0.950 . S
H998 C994 0.950 . S
C999 C997 1.390 . S
C999 C1000 1.387 . S
C999 H1002 0.950 . S
C1000 C999 1.387 . S
C1000 C1003 1.387 . S
H1001 C997 0.950 . S
H1002 C999 0.950 . S
C1003 C994 1.390 . S
C1003 H996 0.950 . S
C1003 C1000 1.387 . S
C1004 C1005 1.387 . S
C1004 H1008 0.950 . S
C1004 C1013 1.390 . S
C1005 C1004 1.387 . S
C1005 C1007 1.387 . S
H1006 C1013 0.950 . S
C1007 C1005 1.387 . S
C1007 C1009 1.390 . S
C1007 H1011 0.950 . S
H1008 C1004 0.950 . S
C1009 C1007 1.390 . S
C1009 C1010 1.387 . S
C1009 H1012 0.950 . S
C1010 C1009 1.387 . S
C1010 C1013 1.387 . S
H1011 C1007 0.950 . S
H1012 C1009 0.950 . S
C1013 C1004 1.390 . S
C1013 H1006 0.950 . S
C1013 C1010 1.387 . S
C1014 C1015 1.387 . S
C1014 H1018 0.950 . S
C1014 C1023 1.390 . S
C1015 C1014 1.387 . S
C1015 C1017 1.387 . S
H1016 C1023 0.950 . S
C1017 C1015 1.387 . S
C1017 C1019 1.390 . S
C1017 H1021 0.950 . S
H1018 C1014 0.950 . S
C1019 C1017 1.390 . S
C1019 C1020 1.387 . S
C1019 H1022 0.950 . S
C1020 C1019 1.387 . S
C1020 C1023 1.387 . S
H1021 C1017 0.950 . S
H1022 C1019 0.950 . S
C1023 C1014 1.390 . S
C1023 H1016 0.950 . S
C1023 C1020 1.387 . S
C1024 C1025 1.387 . S
C1024 H1028 0.950 . S
C1024 C1033 1.390 . S
C1025 C1024 1.387 . S
C1025 C1027 1.387 . S
H1026 C1033 0.950 . S
C1027 C1025 1.387 . S
C1027 C1029 1.390 . S
C1027 H1031 0.950 . S
H1028 C1024 0.950 . S
C1029 C1027 1.390 . S
C1029 C1030 1.387 . S
C1029 H1032 0.950 . S
C1030 C1029 1.387 . S
C1030 C1033 1.387 . S
H1031 C1027 0.950 . S
H1032 C1029 0.950 . S
C1033 C1024 1.390 . S
C1033 H1026 0.950 . S
C1033 C1030 1.387 . S
C1034 C1035 1.387 . S
C1034 H1038 0.950 . S
C1034 C1043 1.390 . S
C1035 C1034 1.387 . S
C1035 C1037 1.387 . S
H1036 C1043 0.950 . S
C1037 C1035 1.387 . S
C1037 C1039 1.390 . S
C1037 H1041 0.950 . S
H1038 C1034 0.950 . S
C1039 C1037 1.390 . S
C1039 C1040 1.387 . S
C1039 H1042 0.950 . S
C1040 C1039 1.387 . S
C1040 C1043 1.387 . S
H1041 C1037 0.950 . S
H1042 C1039 0.950 . S
C1043 C1034 1.390 . S
C1043 H1036 0.950 . S
C1043 C1040 1.387 . S
C1044 C1045 1.387 . S
C1044 H1048 0.950 . S
C1044 C1053 1.390 . S
C1045 C1044 1.387 . S
C1045 C1047 1.387 . S
H1046 C1053 0.950 . S
C1047 C1045 1.387 . S
C1047 C1049 1.390 . S
C1047 H1051 0.950 . S
H1048 C1044 0.950 . S
C1049 C1047 1.390 . S
C1049 C1050 1.387 . S
C1049 H1052 0.950 . S
C1050 C1049 1.387 . S
C1050 C1053 1.387 . S
H1051 C1047 0.950 . S
H1052 C1049 0.950 . S
C1053 C1044 1.390 . S
C1053 H1046 0.950 . S
C1053 C1050 1.387 . S
C1054 C1055 1.387 . S
C1054 H1058 0.950 . S
C1054 C1063 1.390 . S
C1055 C1054 1.387 . S
C1055 C1057 1.387 . S
H1056 C1063 0.950 . S
C1057 C1055 1.387 . S
C1057 C1059 1.390 . S
C1057 H1061 0.950 . S
H1058 C1054 0.950 . S
C1059 C1057 1.390 . S
C1059 C1060 1.387 . S
C1059 H1062 0.950 . S
C1060 C1059 1.387 . S
C1060 C1063 1.387 . S
H1061 C1057 0.950 . S
H1062 C1059 0.950 . S
C1063 C1054 1.390 . S
C1063 H1056 0.950 . S
C1063 C1060 1.387 . S
C1064 C1065 1.387 . S
C1064 H1068 0.950 . S
C1064 C1073 1.390 . S
C1065 C1064 1.387 . S
C1065 C1067 1.387 . S
H1066 C1073 0.950 . S
C1067 C1065 1.387 . S
C1067 C1069 1.390 . S
C1067 H1071 0.950 . S
H1068 C1064 0.950 . S
C1069 C1067 1.390 . S
C1069 C1070 1.387 . S
C1069 H1072 0.950 . S
C1070 C1069 1.387 . S
C1070 C1073 1.387 . S
H1071 C1067 0.950 . S
H1072 C1069 0.950 . S
C1073 C1064 1.390 . S
C1073 H1066 0.950 . S
C1073 C1070 1.387 . S
C1074 C1075 1.387 . S
C1074 H1078 0.950 . S
C1074 C1083 1.390 . S
C1075 C1074 1.387 . S
C1075 C1077 1.387 . S
H1076 C1083 0.950 . S
C1077 C1075 1.387 . S
C1077 C1079 1.390 . S
C1077 H1081 0.950 . S
H1078 C1074 0.950 . S
C1079 C1077 1.390 . S
C1079 C1080 1.387 . S
C1079 H1082 0.950 . S
C1080 C1079 1.387 . S
C1080 C1083 1.387 . S
H1081 C1077 0.950 . S
H1082 C1079 0.950 . S
C1083 C1074 1.390 . S
C1083 H1076 0.950 . S
C1083 C1080 1.387 . S
C1084 C1085 1.387 . S
C1084 H1088 0.950 . S
C1084 C1093 1.390 . S
C1085 C1084 1.387 . S
C1085 C1087 1.387 . S
H1086 C1093 0.950 . S
C1087 C1085 1.387 . S
C1087 C1089 1.390 . S
C1087 H1091 0.950 . S
H1088 C1084 0.950 . S
C1089 C1087 1.390 . S
C1089 C1090 1.387 . S
C1089 H1092 0.950 . S
C1090 C1089 1.387 . S
C1090 C1093 1.387 . S
H1091 C1087 0.950 . S
H1092 C1089 0.950 . S
C1093 C1084 1.390 . S
C1093 H1086 0.950 . S
C1093 C1090 1.387 . S
C1094 C1095 1.387 . S
C1094 H1098 0.950 . S
C1094 C1103 1.390 . S
C1095 C1094 1.387 . S
C1095 C1097 1.387 . S
H1096 C1103 0.950 . S
C1097 C1095 1.387 . S
C1097 C1099 1.390 . S
C1097 H1101 0.950 . S
H1098 C1094 0.950 . S
C1099 C1097 1.390 . S
C1099 C1100 1.387 . S
C1099 H1102 0.950 . S
C1100 C1099 1.387 . S
C1100 C1103 1.387 . S
H1101 C1097 0.950 . S
H1102 C1099 0.950 . S
C1103 C1094 1.390 . S
C1103 H1096 0.950 . S
C1103 C1100 1.387 . S
C1104 C1105 1.387 . S
C1104 H1108 0.950 . S
C1104 C1113 1.390 . S
C1105 C1104 1.387 . S
C1105 C1107 1.387 . S
H1106 C1113 0.950 . S
C1107 C1105 1.387 . S
C1107 C1109 1.390 . S
C1107 H1111 0.950 . S
H1108 C1104 0.950 . S
C1109 C1107 1.390 . S
C1109 C1110 1.387 . S
C1109 H1112 0.950 . S
C1110 C1109 1.387 . S
C1110 C1113 1.387 . S
H1111 C1107 0.950 . S
H1112 C1109 0.950 . S
C1113 C1104 1.390 . S
C1113 H1106 0.950 . S
C1113 C1110 1.387 . S
C1114 C1115 1.387 . S
C1114 H1118 0.950 . S
C1114 C1123 1.390 . S
C1115 C1114 1.387 . S
C1115 C1117 1.387 . S
H1116 C1123 0.950 . S
C1117 C1115 1.387 . S
C1117 C1119 1.390 . S
C1117 H1121 0.950 . S
H1118 C1114 0.950 . S
C1119 C1117 1.390 . S
C1119 C1120 1.387 . S
C1119 H1122 0.950 . S
C1120 C1119 1.387 . S
C1120 C1123 1.387 . S
H1121 C1117 0.950 . S
H1122 C1119 0.950 . S
C1123 C1114 1.390 . S
C1123 H1116 0.950 . S
C1123 C1120 1.387 . S
C1124 C1125 1.387 . S
C1124 H1128 0.950 . S
C1124 C1133 1.390 . S
C1125 C1124 1.387 . S
C1125 C1127 1.387 . S
H1126 C1133 0.950 . S
C1127 C1125 1.387 . S
C1127 C1129 1.390 . S
C1127 H1131 0.950 . S
H1128 C1124 0.950 . S
C1129 C1127 1.390 . S
C1129 C1130 1.387 . S
C1129 H1132 0.950 . S
C1130 C1129 1.387 . S
C1130 C1133 1.387 . S
H1131 C1127 0.950 . S
H1132 C1129 0.950 . S
C1133 C1124 1.390 . S
C1133 H1126 0.950 . S
C1133 C1130 1.387 . S
C1134 C1135 1.387 . S
C1134 H1138 0.950 . S
C1134 C1143 1.390 . S
C1135 C1134 1.387 . S
C1135 C1137 1.387 . S
H1136 C1143 0.950 . S
C1137 C1135 1.387 . S
C1137 C1139 1.390 . S
C1137 H1141 0.950 . S
H1138 C1134 0.950 . S
C1139 C1137 1.390 . S
C1139 C1140 1.387 . S
C1139 H1142 0.950 . S
C1140 C1139 1.387 . S
C1140 C1143 1.387 . S
H1141 C1137 0.950 . S
H1142 C1139 0.950 . S
C1143 C1134 1.390 . S
C1143 H1136 0.950 . S
C1143 C1140 1.387 . S
C1144 C1145 1.387 . S
C1144 H1148 0.950 . S
C1144 C1153 1.390 . S
C1145 C1144 1.387 . S
C1145 C1147 1.387 . S
H1146 C1153 0.950 . S
C1147 C1145 1.387 . S
C1147 C1149 1.390 . S
C1147 H1151 0.950 . S
H1148 C1144 0.950 . S
C1149 C1147 1.390 . S
C1149 C1150 1.387 . S
C1149 H1152 0.950 . S
C1150 C1149 1.387 . S
C1150 C1153 1.387 . S
H1151 C1147 0.950 . S
H1152 C1149 0.950 . S
C1153 C1144 1.390 . S
C1153 H1146 0.950 . S
C1153 C1150 1.387 . S
C1154 C1155 1.387 . S
C1154 H1158 0.950 . S
C1154 C1163 1.390 . S
C1155 C1154 1.387 . S
C1155 C1157 1.387 . S
H1156 C1163 0.950 . S
C1157 C1155 1.387 . S
C1157 C1159 1.390 . S
C1157 H1161 0.950 . S
H1158 C1154 0.950 . S
C1159 C1157 1.390 . S
C1159 C1160 1.387 . S
C1159 H1162 0.950 . S
C1160 C1159 1.387 . S
C1160 C1163 1.387 . S
H1161 C1157 0.950 . S
H1162 C1159 0.950 . S
C1163 C1154 1.390 . S
C1163 H1156 0.950 . S
C1163 C1160 1.387 . S
C1164 C1165 1.387 . S
C1164 H1168 0.950 . S
C1164 C1173 1.390 . S
C1165 C1164 1.387 . S
C1165 C1167 1.387 . S
H1166 C1173 0.950 . S
C1167 C1165 1.387 . S
C1167 C1169 1.390 . S
C1167 H1171 0.950 . S
H1168 C1164 0.950 . S
C1169 C1167 1.390 . S
C1169 C1170 1.387 . S
C1169 H1172 0.950 . S
C1170 C1169 1.387 . S
C1170 C1173 1.387 . S
H1171 C1167 0.950 . S
H1172 C1169 0.950 . S
C1173 C1164 1.390 . S
C1173 H1166 0.950 . S
C1173 C1170 1.387 . S
C1174 C1175 1.387 . S
C1174 H1178 0.950 . S
C1174 C1183 1.390 . S
C1175 C1174 1.387 . S
C1175 C1177 1.387 . S
H1176 C1183 0.950 . S
C1177 C1175 1.387 . S
C1177 C1179 1.390 . S
C1177 H1181 0.950 . S
H1178 C1174 0.950 . S
C1179 C1177 1.390 . S
C1179 C1180 1.387 . S
C1179 H1182 0.950 . S
C1180 C1179 1.387 . S
C1180 C1183 1.387 . S
H1181 C1177 0.950 . S
H1182 C1179 0.950 . S
C1183 C1174 1.390 . S
C1183 H1176 0.950 . S
C1183 C1180 1.387 . S
C1184 C1185 1.387 . S
C1184 H1188 0.950 . S
C1184 C1193 1.390 . S
C1185 C1184 1.387 . S
C1185 C1187 1.387 . S
H1186 C1193 0.950 . S
C1187 C1185 1.387 . S
C1187 C1189 1.390 . S
C1187 H1191 0.950 . S
H1188 C1184 0.950 . S
C1189 C1187 1.390 . S
C1189 C1190 1.387 . S
C1189 H1192 0.950 . S
C1190 C1189 1.387 . S
C1190 C1193 1.387 . S
H1191 C1187 0.950 . S
H1192 C1189 0.950 . S
C1193 C1184 1.390 . S
C1193 H1186 0.950 . S
C1193 C1190 1.387 . S
C1194 C1195 1.387 . S
C1194 H1198 0.950 . S
C1194 C1203 1.390 . S
C1195 C1194 1.387 . S
C1195 C1197 1.387 . S
H1196 C1203 0.950 . S
C1197 C1195 1.387 . S
C1197 C1199 1.390 . S
C1197 H1201 0.950 . S
H1198 C1194 0.950 . S
C1199 C1197 1.390 . S
C1199 C1200 1.387 . S
C1199 H1202 0.950 . S
C1200 C1199 1.387 . S
C1200 C1203 1.387 . S
H1201 C1197 0.950 . S
H1202 C1199 0.950 . S
C1203 C1194 1.390 . S
C1203 H1196 0.950 . S
C1203 C1200 1.387 . S
C1204 C1205 1.387 . S
C1204 H1208 0.950 . S
C1204 C1213 1.390 . S
C1205 C1204 1.387 . S
C1205 C1207 1.387 . S
H1206 C1213 0.950 . S
C1207 C1205 1.387 . S
C1207 C1209 1.390 . S
C1207 H1211 0.950 . S
H1208 C1204 0.950 . S
C1209 C1207 1.390 . S
C1209 C1210 1.387 . S
C1209 H1212 0.950 . S
C1210 C1209 1.387 . S
C1210 C1213 1.387 . S
H1211 C1207 0.950 . S
H1212 C1209 0.950 . S
C1213 C1204 1.390 . S
C1213 H1206 0.950 . S
C1213 C1210 1.387 . S
C1214 C1215 1.387 . S
C1214 H1218 0.950 . S
C1214 C1223 1.390 . S
C1215 C1214 1.387 . S
C1215 C1217 1.387 . S
H1216 C1223 0.950 . S
C1217 C1215 1.387 . S
C1217 C1219 1.390 . S
C1217 H1221 0.950 . S
H1218 C1214 0.950 . S
C1219 C1217 1.390 . S
C1219 C1220 1.387 . S
C1219 H1222 0.950 . S
C1220 C1219 1.387 . S
C1220 C1223 1.387 . S
H1221 C1217 0.950 . S
H1222 C1219 0.950 . S
C1223 C1214 1.390 . S
C1223 H1216 0.950 . S
C1223 C1220 1.387 . S
C1224 C1225 1.387 . S
C1224 H1228 0.950 . S
C1224 C1233 1.390 . S
C1225 C1224 1.387 . S
C1225 C1227 1.387 . S
H1226 C1233 0.950 . S
C1227 C1225 1.387 . S
C1227 C1229 1.390 . S
C1227 H1231 0.950 . S
H1228 C1224 0.950 . S
C1229 C1227 1.390 . S
C1229 C1230 1.387 . S
C1229 H1232 0.950 . S
C1230 C1229 1.387 . S
C1230 C1233 1.387 . S
H1231 C1227 0.950 . S
H1232 C1229 0.950 . S
C1233 C1224 1.390 . S
C1233 H1226 0.950 . S
C1233 C1230 1.387 . S
C1234 C1235 1.387 . S
C1234 H1238 0.950 . S
C1234 C1243 1.390 . S
C1235 C1234 1.387 . S
C1235 C1237 1.387 . S
H1236 C1243 0.950 . S
C1237 C1235 1.387 . S
C1237 C1239 1.390 . S
C1237 H1241 0.950 . S
H1238 C1234 0.950 . S
C1239 C1237 1.390 . S
C1239 C1240 1.387 . S
C1239 H1242 0.950 . S
C1240 C1239 1.387 . S
C1240 C1243 1.387 . S
H1241 C1237 0.950 . S
H1242 C1239 0.950 . S
C1243 C1234 1.390 . S
C1243 H1236 0.950 . S
C1243 C1240 1.387 . S
C1244 C1245 1.387 . S
C1244 H1248 0.950 . S
C1244 C1253 1.390 . S
C1245 C1244 1.387 . S
C1245 C1247 1.387 . S
H1246 C1253 0.950 . S
C1247 C1245 1.387 . S
C1247 C1249 1.390 . S
C1247 H1251 0.950 . S
H1248 C1244 0.950 . S
C1249 C1247 1.390 . S
C1249 C1250 1.387 . S
C1249 H1252 0.950 . S
C1250 C1249 1.387 . S
C1250 C1253 1.387 . S
H1251 C1247 0.950 . S
H1252 C1249 0.950 . S
C1253 C1244 1.390 . S
C1253 H1246 0.950 . S
C1253 C1250 1.387 . S
C1254 C1255 1.387 . S
C1254 H1258 0.950 . S
C1254 C1263 1.390 . S
C1255 C1254 1.387 . S
C1255 C1257 1.387 . S
H1256 C1263 0.950 . S
C1257 C1255 1.387 . S
C1257 C1259 1.390 . S
C1257 H1261 0.950 . S
H1258 C1254 0.950 . S
C1259 C1257 1.390 . S
C1259 C1260 1.387 . S
C1259 H1262 0.950 . S
C1260 C1259 1.387 . S
C1260 C1263 1.387 . S
H1261 C1257 0.950 . S
H1262 C1259 0.950 . S
C1263 C1254 1.390 . S
C1263 H1256 0.950 . S
C1263 C1260 1.387 . S
C1264 C1265 1.387 . S
C1264 H1268 0.950 . S
C1264 C1273 1.390 . S
C1265 C1264 1.387 . S
C1265 C1267 1.387 . S
H1266 C1273 0.950 . S
C1267 C1265 1.387 . S
C1267 C1269 1.390 . S
C1267 H1271 0.950 . S
H1268 C1264 0.950 . S
C1269 C1267 1.390 . S
C1269 C1270 1.387 . S
C1269 H1272 0.950 . S
C1270 C1269 1.387 . S
C1270 C1273 1.387 . S
H1271 C1267 0.950 . S
H1272 C1269 0.950 . S
C1273 C1264 1.390 . S
C1273 H1266 0.950 . S
C1273 C1270 1.387 . S
C1274 C1275 1.387 . S
C1274 H1278 0.950 . S
C1274 C1283 1.390 . S
C1275 C1274 1.387 . S
C1275 C1277 1.387 . S
H1276 C1283 0.950 . S
C1277 C1275 1.387 . S
C1277 C1279 1.390 . S
C1277 H1281 0.950 . S
H1278 C1274 0.950 . S
C1279 C1277 1.390 . S
C1279 C1280 1.387 . S
C1279 H1282 0.950 . S
C1280 C1279 1.387 . S
C1280 C1283 1.387 . S
H1281 C1277 0.950 . S
H1282 C1279 0.950 . S
C1283 C1274 1.390 . S
C1283 H1276 0.950 . S
C1283 C1280 1.387 . S
C1284 C1285 1.387 . S
C1284 H1288 0.950 . S
C1284 C1293 1.390 . S
C1285 C1284 1.387 . S
C1285 C1287 1.387 . S
H1286 C1293 0.950 . S
C1287 C1285 1.387 . S
C1287 C1289 1.390 . S
C1287 H1291 0.950 . S
H1288 C1284 0.950 . S
C1289 C1287 1.390 . S
C1289 C1290 1.387 . S
C1289 H1292 0.950 . S
C1290 C1289 1.387 . S
C1290 C1293 1.387 . S
H1291 C1287 0.950 . S
H1292 C1289 0.950 . S
C1293 C1284 1.390 . S
C1293 H1286 0.950 . S
C1293 C1290 1.387 . S
C1294 C1295 1.387 . S
C1294 H1298 0.950 . S
C1294 C1303 1.390 . S
C1295 C1294 1.387 . S
C1295 C1297 1.387 . S
H1296 C1303 0.950 . S
C1297 C1295 1.387 . S
C1297 C1299 1.390 . S
C1297 H1301 0.950 . S
H1298 C1294 0.950 . S
C1299 C1297 1.390 . S
C1299 C1300 1.387 . S
C1299 H1302 0.950 . S
C1300 C1299 1.387 . S
C1300 C1303 1.387 . S
H1301 C1297 0.950 . S
H1302 C1299 0.950 . S
C1303 C1294 1.390 . S
C1303 H1296 0.950 . S
C1303 C1300 1.387 . S
C1304 C1305 1.387 . S
C1304 H1308 0.950 . S
C1304 C1313 1.390 . S
C1305 C1304 1.387 . S
C1305 C1307 1.387 . S
H1306 C1313 0.950 . S
C1307 C1305 1.387 . S
C1307 C1309 1.390 . S
C1307 H1311 0.950 . S
H1308 C1304 0.950 . S
C1309 C1307 1.390 . S
C1309 C1310 1.387 . S
C1309 H1312 0.950 . S
C1310 C1309 1.387 . S
C1310 C1313 1.387 . S
H1311 C1307 0.950 . S
H1312 C1309 0.950 . S
C1313 C1304 1.390 . S
C1313 H1306 0.950 . S
C1313 C1310 1.387 . S
C1314 C1315 1.387 . S
C1314 H1318 0.950 . S
C1314 C1323 1.390 . S
C1315 C1314 1.387 . S
C1315 C1317 1.387 . S
H1316 C1323 0.950 . S
C1317 C1315 1.387 . S
C1317 C1319 1.390 . S
C1317 H1321 0.950 . S
H1318 C1314 0.950 . S
C1319 C1317 1.390 . S
C1319 C1320 1.387 . S
C1319 H1322 0.950 . S
C1320 C1319 1.387 . S
C1320 C1323 1.387 . S
H1321 C1317 0.950 . S
H1322 C1319 0.950 . S
C1323 C1314 1.390 . S
C1323 H1316 0.950 . S
C1323 C1320 1.387 . S
C1324 C1325 1.387 . S
C1324 H1328 0.950 . S
C1324 C1333 1.390 . S
C1325 C1324 1.387 . S
C1325 C1327 1.387 . S
H1326 C1333 0.950 . S
C1327 C1325 1.387 . S
C1327 C1329 1.390 . S
C1327 H1331 0.950 . S
H1328 C1324 0.950 . S
C1329 C1327 1.390 . S
C1329 C1330 1.387 . S
C1329 H1332 0.950 . S
C1330 C1329 1.387 . S
C1330 C1333 1.387 . S
H1331 C1327 0.950 . S
H1332 C1329 0.950 . S
C1333 C1324 1.390 . S
C1333 H1326 0.950 . S
C1333 C1330 1.387 . S
C1334 C1335 1.387 . S
C1334 H1338 0.950 . S
C1334 C1343 1.390 . S
C1335 C1334 1.387 . S
C1335 C1337 1.387 . S
H1336 C1343 0.950 . S
C1337 C1335 1.387 . S
C1337 C1339 1.390 . S
C1337 H1341 0.950 . S
H1338 C1334 0.950 . S
C1339 C1337 1.390 . S
C1339 C1340 1.387 . S
C1339 H1342 0.950 . S
C1340 C1339 1.387 . S
C1340 C1343 1.387 . S
H1341 C1337 0.950 . S
H1342 C1339 0.950 . S
C1343 C1334 1.390 . S
C1343 H1336 0.950 . S
C1343 C1340 1.387 . S
C870 C689 1.749 . S
C865 C74 1.715 . S
C880 C694 1.205 . S
C875 C153 1.145 . S
C890 C695 1.705 . S
C885 C231 1.667 . S
C895 C310 0.956 . S
C900 C699 0.876 . S
C905 C394 1.141 . S
C910 C702 1.206 . S
C920 C703 1.705 . S
C915 C494 1.667 . S
C925 C573 0.954 . S
C930 C680 0.874 . S
C935 C651 1.714 . S
C940 C696 1.750 . S
C950 C734 2.373 . S
C945 C56 2.480 . S
C955 C151 1.640 . S
C960 C760 1.615 . S
C970 C712 1.198 . S
C965 C237 1.185 . S
C980 C767 1.649 . S
C975 C326 1.624 . S
C985 C410 1.653 . S
C990 C721 1.646 . S
C1000 C763 2.369 . S
C995 C476 2.469 . S
C1005 C571 1.662 . S
C1010 C727 1.638 . S
C1015 C657 1.183 . S
C1020 C758 1.203 . S
C1025 C58 1.180 . S
C1030 C766 1.204 . S
C1035 C392 1.640 . S
C1040 C753 1.617 . S
C1050 C731 1.199 . S
C1045 C478 1.182 . S
C1060 C759 1.649 . S
C1055 C567 1.624 . S
C1065 C655 2.480 . S
C1070 C726 2.372 . S
C1075 C235 2.469 . S
C1080 C744 2.369 . S
C1090 C735 1.639 . S
C1085 C308 1.662 . S
C1095 C147 1.653 . S
C1100 C728 1.646 . S
C1105 C662 1.689 . S
C1110 C790 1.656 . S
C1115 C405 1.124 . S
C1120 C785 1.178 . S
C1130 C799 1.575 . S
C1125 C483 1.645 . S
C1140 C776 0.604 . S
C1135 C562 0.961 . S
C1145 C142 1.118 . S
C1150 C792 1.181 . S
C1160 C791 1.576 . S
C1155 C242 1.644 . S
C1165 C321 0.962 . S
C1170 C795 0.605 . S
C1175 C63 1.689 . S
C1180 C798 1.655 . S
C1185 C644 2.490 . S
C1190 C824 2.455 . S
C1200 C840 1.540 . S
C1195 C403 1.639 . S
C1205 C489 1.187 . S
C1210 C822 1.250 . S
C1215 C578 1.630 . S
C1220 C855 1.640 . S
C1230 C831 1.610 . S
C1225 C158 1.637 . S
C1235 C224 2.496 . S
C1240 C849 2.422 . S
C1250 C827 1.540 . S
C1245 C319 1.641 . S
C1260 C862 1.226 . S
C1255 C69 1.194 . S
C1270 C854 1.223 . S
C1265 C646 1.199 . S
C1275 C140 1.640 . S
C1280 C859 1.541 . S
C1285 C226 1.189 . S
C1290 C830 1.250 . S
C1300 C863 1.640 . S
C1295 C315 1.630 . S
C1305 C67 2.490 . S
C1310 C817 2.455 . S
C1315 C487 2.496 . S
C1320 C856 2.422 . S
C1330 C808 1.536 . S
C1325 C560 1.640 . S
C1340 C823 1.608 . S
C1335 C399 1.637 . S
