# Generated by pormake.
# Topology gar, (4,6)-cn, num edge types: 1
# Building blocks:
#     Node 0, Type 0, BuildingBlock: AZAVOO_clean_sbu_0, # of connection points: 4
#     Node 1, Type 0, BuildingBlock: AZAVOO_clean_sbu_0, # of connection points: 4
#     Node 2, Type 0, BuildingBlock: AZAVOO_clean_sbu_0, # of connection points: 4
#     Node 3, Type 0, BuildingBlock: AZAVOO_clean_sbu_0, # of connection points: 4
#     Node 4, Type 0, BuildingBlock: AZAVOO_clean_sbu_0, # of connection points: 4
#     Node 5, Type 0, BuildingBlock: AZAVOO_clean_sbu_0, # of connection points: 4
#     Node 6, Type 0, BuildingBlock: AZAVOO_clean_sbu_0, # of connection points: 4
#     Node 7, Type 0, BuildingBlock: AZAVOO_clean_sbu_0, # of connection points: 4
#     Node 8, Type 0, BuildingBlock: AZAVOO_clean_sbu_0, # of connection points: 4
#     Node 9, Type 0, BuildingBlock: AZAVOO_clean_sbu_0, # of connection points: 4
#     Node 10, Type 0, BuildingBlock: AZAVOO_clean_sbu_0, # of connection points: 4
#     Node 11, Type 0, BuildingBlock: AZAVOO_clean_sbu_0, # of connection points: 4
#     Node 12, Type 0, BuildingBlock: AZAVOO_clean_sbu_0, # of connection points: 4
#     Node 13, Type 0, BuildingBlock: AZAVOO_clean_sbu_0, # of connection points: 4
#     Node 14, Type 0, BuildingBlock: AZAVOO_clean_sbu_0, # of connection points: 4
#     Node 15, Type 0, BuildingBlock: AZAVOO_clean_sbu_0, # of connection points: 4
#     Node 16, Type 0, BuildingBlock: AZAVOO_clean_sbu_0, # of connection points: 4
#     Node 17, Type 0, BuildingBlock: AZAVOO_clean_sbu_0, # of connection points: 4
#     Node 18, Type 0, BuildingBlock: AZAVOO_clean_sbu_0, # of connection points: 4
#     Node 19, Type 0, BuildingBlock: AZAVOO_clean_sbu_0, # of connection points: 4
#     Node 20, Type 0, BuildingBlock: AZAVOO_clean_sbu_0, # of connection points: 4
#     Node 21, Type 0, BuildingBlock: AZAVOO_clean_sbu_0, # of connection points: 4
#     Node 22, Type 0, BuildingBlock: AZAVOO_clean_sbu_0, # of connection points: 4
#     Node 23, Type 0, BuildingBlock: AZAVOO_clean_sbu_0, # of connection points: 4
#     Node 24, Type 1, BuildingBlock: HISSIN_clean_sbu_0, # of connection points: 6
#     Node 25, Type 1, BuildingBlock: HISSIN_clean_sbu_0, # of connection points: 6
#     Node 26, Type 1, BuildingBlock: HISSIN_clean_sbu_0, # of connection points: 6
#     Node 27, Type 1, BuildingBlock: HISSIN_clean_sbu_0, # of connection points: 6
#     Node 28, Type 1, BuildingBlock: HISSIN_clean_sbu_0, # of connection points: 6
#     Node 29, Type 1, BuildingBlock: HISSIN_clean_sbu_0, # of connection points: 6
#     Node 30, Type 1, BuildingBlock: HISSIN_clean_sbu_0, # of connection points: 6
#     Node 31, Type 1, BuildingBlock: HISSIN_clean_sbu_0, # of connection points: 6
#     Node 32, Type 1, BuildingBlock: HISSIN_clean_sbu_0, # of connection points: 6
#     Node 33, Type 1, BuildingBlock: HISSIN_clean_sbu_0, # of connection points: 6
#     Node 34, Type 1, BuildingBlock: HISSIN_clean_sbu_0, # of connection points: 6
#     Node 35, Type 1, BuildingBlock: HISSIN_clean_sbu_0, # of connection points: 6
#     Node 36, Type 1, BuildingBlock: HISSIN_clean_sbu_0, # of connection points: 6
#     Node 37, Type 1, BuildingBlock: HISSIN_clean_sbu_0, # of connection points: 6
#     Node 38, Type 1, BuildingBlock: HISSIN_clean_sbu_0, # of connection points: 6
#     Node 39, Type 1, BuildingBlock: HISSIN_clean_sbu_0, # of connection points: 6
#     Edge 40, Type (0, 1), None
#     Edge 41, Type (0, 1), None
#     Edge 42, Type (0, 1), None
#     Edge 43, Type (0, 1), None
#     Edge 44, Type (0, 1), None
#     Edge 45, Type (0, 1), None
#     Edge 46, Type (0, 1), None
#     Edge 47, Type (0, 1), None
#     Edge 48, Type (0, 1), None
#     Edge 49, Type (0, 1), None
#     Edge 50, Type (0, 1), None
#     Edge 51, Type (0, 1), None
#     Edge 52, Type (0, 1), None
#     Edge 53, Type (0, 1), None
#     Edge 54, Type (0, 1), None
#     Edge 55, Type (0, 1), None
#     Edge 56, Type (0, 1), None
#     Edge 57, Type (0, 1), None
#     Edge 58, Type (0, 1), None
#     Edge 59, Type (0, 1), None
#     Edge 60, Type (0, 1), None
#     Edge 61, Type (0, 1), None
#     Edge 62, Type (0, 1), None
#     Edge 63, Type (0, 1), None
#     Edge 64, Type (0, 1), None
#     Edge 65, Type (0, 1), None
#     Edge 66, Type (0, 1), None
#     Edge 67, Type (0, 1), None
#     Edge 68, Type (0, 1), None
#     Edge 69, Type (0, 1), None
#     Edge 70, Type (0, 1), None
#     Edge 71, Type (0, 1), None
#     Edge 72, Type (0, 1), None
#     Edge 73, Type (0, 1), None
#     Edge 74, Type (0, 1), None
#     Edge 75, Type (0, 1), None
#     Edge 76, Type (0, 1), None
#     Edge 77, Type (0, 1), None
#     Edge 78, Type (0, 1), None
#     Edge 79, Type (0, 1), None
#     Edge 80, Type (0, 1), None
#     Edge 81, Type (0, 1), None
#     Edge 82, Type (0, 1), None
#     Edge 83, Type (0, 1), None
#     Edge 84, Type (0, 1), None
#     Edge 85, Type (0, 1), None
#     Edge 86, Type (0, 1), None
#     Edge 87, Type (0, 1), None
#     Edge 88, Type (0, 1), None
#     Edge 89, Type (0, 1), None
#     Edge 90, Type (0, 1), None
#     Edge 91, Type (0, 1), None
#     Edge 92, Type (0, 1), None
#     Edge 93, Type (0, 1), None
#     Edge 94, Type (0, 1), None
#     Edge 95, Type (0, 1), None
#     Edge 96, Type (0, 1), None
#     Edge 97, Type (0, 1), None
#     Edge 98, Type (0, 1), None
#     Edge 99, Type (0, 1), None
#     Edge 100, Type (0, 1), None
#     Edge 101, Type (0, 1), None
#     Edge 102, Type (0, 1), None
#     Edge 103, Type (0, 1), None
#     Edge 104, Type (0, 1), None
#     Edge 105, Type (0, 1), None
#     Edge 106, Type (0, 1), None
#     Edge 107, Type (0, 1), None
#     Edge 108, Type (0, 1), None
#     Edge 109, Type (0, 1), None
#     Edge 110, Type (0, 1), None
#     Edge 111, Type (0, 1), None
#     Edge 112, Type (0, 1), None
#     Edge 113, Type (0, 1), None
#     Edge 114, Type (0, 1), None
#     Edge 115, Type (0, 1), None
#     Edge 116, Type (0, 1), None
#     Edge 117, Type (0, 1), None
#     Edge 118, Type (0, 1), None
#     Edge 119, Type (0, 1), None
#     Edge 120, Type (0, 1), None
#     Edge 121, Type (0, 1), None
#     Edge 122, Type (0, 1), None
#     Edge 123, Type (0, 1), None
#     Edge 124, Type (0, 1), None
#     Edge 125, Type (0, 1), None
#     Edge 126, Type (0, 1), None
#     Edge 127, Type (0, 1), None
#     Edge 128, Type (0, 1), None
#     Edge 129, Type (0, 1), None
#     Edge 130, Type (0, 1), None
#     Edge 131, Type (0, 1), None
#     Edge 132, Type (0, 1), None
#     Edge 133, Type (0, 1), None
#     Edge 134, Type (0, 1), None
#     Edge 135, Type (0, 1), None
# Relax obj value: 0.481
# Max RMSD: 0.408
# Mean RMSD: 0.238
data_MOF--net-gar--node1-AZAVOO_clean_sbu_0--node2-HISSIN_clean_sbu_0--edge1-none
_symmetry_space_group_name_H-M    P1
_symmetry_Int_Tables_number       1
_symmetry_cell_setting            triclinic
loop_
_symmetry_equiv_pos_as_xyz
'x, y, z'
_cell_length_a     30.731137
_cell_length_b     29.26022
_cell_length_c     28.17311
_cell_angle_alpha  108.69054
_cell_angle_beta   92.225486
_cell_angle_gamma 104.73717
loop_
_atom_site_label
_atom_site_type_symbol
_atom_site_fract_x
_atom_site_fract_y
_atom_site_fract_z
_atom_type_partial_charge
Mg0 Mg 0.23556 0.41597 0.42702 0.0
O1 O 0.18717 0.45937 0.46207 0.0
O2 O 0.1144 0.41464 0.43305 0.0
Mg3 Mg 0.1229 0.33778 0.41175 0.0
C4 C 0.14499 0.45569 0.45517 0.0
C5 C 0.28306 0.3589 0.33891 0.0
O6 O 0.24563 0.34541 0.30783 0.0
O7 O 0.23343 0.37976 0.48825 0.0
O8 O 0.15997 0.36955 0.49293 0.0
O9 O 0.21866 0.43231 0.35793 0.0
O10 O 0.18107 0.36567 0.37428 0.0
C11 C 0.19914 0.37217 0.51173 0.0
C12 C 0.18305 0.39468 0.34801 0.0
O13 O 0.28426 0.37772 0.38663 0.0
Mg14 Mg 0.0709 0.79721 0.68844 0.0
O15 O 0.11926 0.74688 0.67271 0.0
O16 O 0.07406 0.72335 0.60226 0.0
Mg17 Mg 0.04226 0.77603 0.65316 0.0
C18 C 0.10796 0.71977 0.62636 0.0
C19 C 0.14181 0.87017 0.78787 0.0
O20 O 0.15784 0.91255 0.82586 0.0
O21 O 0.10681 0.83704 0.6354 0.0
O22 O 0.0402 0.81188 0.59242 0.0
O23 O 1.0308 0.77568 0.74566 0.0
O24 O 1.01616 0.83032 0.7116 0.0
C25 C 0.08168 0.83568 0.59796 0.0
C26 C 1.01176 0.81063 0.74685 0.0
O27 O 0.11186 0.86695 0.75401 0.0
Mg28 Mg 0.73124 0.9145 0.91879 0.0
O29 O 0.68449 0.95811 0.95271 0.0
O30 O 0.61074 0.91562 0.93099 0.0
Mg31 Mg 0.61298 0.83598 0.89159 0.0
C32 C 0.64271 0.95566 0.95251 0.0
C33 C 0.78073 0.85719 0.83381 0.0
O34 O 0.74424 0.84447 0.80153 0.0
O35 O 0.72623 0.88121 0.98234 0.0
O36 O 0.65199 0.84201 0.96487 0.0
O37 O 0.71726 0.93195 0.84904 0.0
O38 O 0.67632 0.86567 0.86311 0.0
C39 C 0.68948 0.85785 0.99393 0.0
C40 C 0.68079 0.89523 0.83741 0.0
O41 O 0.78042 0.87534 0.88126 0.0
Mg42 Mg 0.5712 0.2977 0.19041 0.0
O43 O 0.62046 0.24864 0.17582 0.0
O44 O 0.57629 0.22472 0.10456 0.0
Mg45 Mg 0.54306 0.27621 0.1547 0.0
C46 C 0.61012 0.22179 0.12934 0.0
C47 C 0.64018 0.37104 0.29134 0.0
O48 O 0.65489 0.41313 0.32993 0.0
O49 O 0.60748 0.33831 0.13808 0.0
O50 O 0.54125 0.31223 0.09413 0.0
O51 O 0.5307 0.27512 0.24673 0.0
O52 O 0.51568 0.32952 0.21248 0.0
C53 C 0.58262 0.33661 0.10026 0.0
C54 C 0.51136 0.30979 0.24769 0.0
O55 O 0.61064 0.36754 0.25691 0.0
Mg56 Mg 0.21561 0.83279 0.13668 0.0
O57 O 0.23277 0.75797 0.11816 0.0
O58 O 0.20895 0.7455 0.04168 0.0
Mg59 Mg 0.13438 0.73679 0.0421 0.0
C60 C 0.22277 0.72857 0.073 0.0
C61 C 0.28834 0.88236 0.2259 0.0
O62 O 0.25217 0.88911 0.24719 0.0
O63 O 0.22846 0.8465 0.06098 0.0
O64 O 0.16107 0.80018 1.01462 0.0
O65 O 0.18208 0.81067 0.19448 0.0
O66 O 0.14423 0.7963 0.1198 0.0
C67 C 0.19854 0.83451 0.02249 0.0
C68 C 0.14441 0.79248 0.16434 0.0
O69 O 0.28644 0.86857 0.17792 0.0
Mg70 Mg 0.53723 0.8185 0.43518 0.0
O71 O 0.57024 0.90014 0.48918 0.0
O72 O 0.51529 0.93485 0.51727 0.0
Mg73 Mg 0.46656 0.86201 0.5083 0.0
C74 C 0.55658 0.93836 0.51135 0.0
C75 C 0.61365 0.79836 0.39052 0.0
O76 O 0.57873 0.77879 0.35478 0.0
O77 O 0.51683 0.78092 0.4893 0.0
O78 O 0.52867 0.85087 0.55067 0.0
O79 O 0.53696 0.85489 0.38157 0.0
O80 O 0.47817 0.83266 0.42366 0.0
C81 C 0.53739 0.80926 0.53193 0.0
C82 C 0.49539 0.85181 0.39025 0.0
O83 O 0.60631 0.80885 0.43603 0.0
Mg84 Mg 0.7166 0.33418 0.63793 0.0
O85 O 0.73192 0.25822 0.61896 0.0
O86 O 0.70709 0.24571 0.54272 0.0
Mg87 Mg 0.633 0.23881 0.54561 0.0
C88 C 0.72129 0.22876 0.57381 0.0
C89 C 0.79166 0.38416 0.72443 0.0
O90 O 0.75621 0.39195 0.74676 0.0
O91 O 0.72809 0.34676 0.56163 0.0
O92 O 0.65965 0.30146 0.51729 0.0
O93 O 0.68392 0.31375 0.69731 0.0
O94 O 0.64521 0.29896 0.623 0.0
C95 C 0.69742 0.33504 0.52396 0.0
C96 C 0.6459 0.29559 0.6677 0.0
O97 O 0.78841 0.36914 0.67636 0.0
Mg98 Mg 0.03642 0.31841 0.93522 0.0
O99 O 0.06992 0.4005 0.98802 0.0
O100 O 1.01518 0.43587 1.01531 0.0
Mg101 Mg 0.96679 0.36313 1.00683 0.0
C102 C 0.05644 0.43901 1.00958 0.0
C103 C 0.11203 0.29386 0.89179 0.0
O104 O 0.07697 0.27328 0.85622 0.0
O105 O 1.015 0.28216 0.99021 0.0
O106 O 1.02893 0.35306 0.05022 0.0
O107 O 0.03804 0.35341 0.88045 0.0
O108 O 0.97781 0.3332 0.92163 0.0
C109 C 0.03672 0.31091 0.03214 0.0
C110 C 0.9962 0.35071 0.88758 0.0
O111 O 0.10486 0.30737 0.93734 0.0
Mg112 Mg 0.49539 0.11724 0.39166 0.0
O113 O 0.4749 0.03321 0.34769 0.0
O114 O 0.4315 0.03584 0.40679 0.0
Mg115 Mg 0.469 0.11674 0.41673 0.0
C116 C 0.44442 1.01024 0.36754 0.0
C117 C 0.59097 0.14692 0.33406 0.0
O118 O 0.6309 0.17982 0.34246 0.0
O119 O 0.46865 0.11916 0.31839 0.0
O120 O 0.41203 0.11708 0.36217 0.0
O121 O 0.55825 0.09469 0.39053 0.0
O122 O 0.52945 0.11079 0.46144 0.0
C123 C 0.42717 0.11669 0.3207 0.0
C124 C 0.5612 0.09887 0.43664 0.0
O125 O 0.56519 0.15218 0.36872 0.0
Mg126 Mg 0.35835 0.27521 0.53296 0.0
O127 O 0.3519 0.28266 0.61903 0.0
O128 O 0.39323 0.36059 0.64126 0.0
Mg129 Mg 0.40014 0.35029 0.558 0.0
C130 C 0.37094 0.32456 0.65401 0.0
C131 C 0.27181 0.17235 0.50268 0.0
O132 O 0.30286 0.14914 0.48811 0.0
O133 O 0.36787 0.27367 0.44556 0.0
O134 O 0.41447 0.34911 0.47864 0.0
O135 O 0.38907 0.21462 0.52739 0.0
O136 O 0.4371 0.2904 0.55458 0.0
C137 C 0.39502 0.31233 0.43922 0.0
C138 C 0.42898 0.24285 0.5457 0.0
O139 O 0.28251 0.2206 0.51561 0.0
Mg140 Mg 0.26752 0.07249 0.79536 0.0
O141 O 0.28492 0.167 0.80599 0.0
O142 O 0.35053 0.17957 0.84658 0.0
Mg143 Mg 0.33404 0.09323 0.84423 0.0
C144 C 0.3248 0.19792 0.82599 0.0
C145 C 0.20727 0.09151 0.68999 0.0
O146 O 0.20258 0.12932 0.72797 0.0
O147 O 0.28636 0.97806 0.78102 0.0
O148 O 0.34492 1.01128 0.83808 0.0
O149 O 0.2032 0.0693 0.84585 0.0
O150 O 0.26732 0.0936 0.89131 0.0
C151 C 0.32151 0.97053 0.80406 0.0
C152 C 0.22328 0.08565 0.89123 0.0
O153 O 0.22853 0.06174 0.70211 0.0
Mg154 Mg 0.39043 0.05272 0.02529 0.0
O155 O 0.38041 0.96774 0.96206 0.0
O156 O 0.42528 0.91895 0.96939 0.0
Mg157 Mg 0.48273 0.96393 0.03229 0.0
C158 C 0.39165 0.92573 0.94726 0.0
C159 C 0.29087 0.09016 0.05834 0.0
O160 O 0.32002 0.12515 0.09551 0.0
O161 O 0.3858 0.03407 0.1005 0.0
O162 O 0.43605 1.00984 0.05667 0.0
O163 O 0.47144 0.10496 0.02641 0.0
O164 O 0.46536 0.03476 0.02864 0.0
C165 C 0.41644 1.01209 0.09527 0.0
C166 C 0.49297 0.07432 0.02844 0.0
O167 O 0.30697 0.05762 0.02553 0.0
Mg168 Mg 0.44107 0.46618 0.10035 0.0
O169 O 0.41059 0.41555 1.0131 0.0
O170 O 0.47078 0.39137 0.99403 0.0
Mg171 Mg 0.47158 0.39612 0.07654 0.0
C172 C 0.43368 0.39695 0.97916 0.0
C173 C 0.37635 0.52187 0.08057 0.0
O174 O 0.41519 0.55683 0.08998 0.0
O175 O 0.40754 0.41706 0.15119 0.0
O176 O 0.46829 0.39333 0.15789 0.0
O177 O 0.48381 0.51895 0.06758 0.0
O178 O 0.51938 0.47588 0.09877 0.0
C179 C 0.43123 0.39853 0.17424 0.0
C180 C 0.52115 0.5115 0.08013 0.0
O181 O 0.37437 0.48314 0.09244 0.0
Mg182 Mg 0.91068 0.13191 0.06601 0.0
O183 O 0.89897 0.20026 0.13419 0.0
O184 O 0.96432 0.26135 0.15613 0.0
Mg185 Mg 1.01535 0.24354 0.09987 0.0
C186 C 0.92303 0.24442 0.16206 0.0
C187 C 0.79397 0.13013 0.05227 0.0
O188 O 0.8127 0.17478 0.04976 0.0
O189 O 0.90322 0.17462 1.01276 0.0
O190 O 0.95763 0.24686 0.04751 0.0
O191 O 0.96666 0.08859 0.0192 0.0
O192 O 0.99268 0.15925 0.0736 0.0
C193 C 0.92124 0.22044 0.01789 0.0
C194 C 1.00355 0.12284 0.04131 0.0
O195 O 0.82157 0.10369 0.05669 0.0
Mg196 Mg 0.32691 0.59718 0.20442 0.0
O197 O 0.36652 0.67114 0.19088 0.0
O198 O 0.32357 0.67716 0.24969 0.0
Mg199 Mg 0.31909 0.70564 0.33105 0.0
C200 C 0.35184 0.6992 0.22721 0.0
C201 C 0.22505 0.57031 0.14802 0.0
O202 O 0.21009 0.5526 0.18324 0.0
O203 O 0.38162 0.60947 0.26861 0.0
O204 O 0.36809 0.66023 0.34243 0.0
O205 O 0.2763 0.5549 0.24446 0.0
O206 O 0.29195 0.636 0.26208 0.0
C207 C 0.38908 0.62979 0.31691 0.0
C208 C 0.26912 0.59684 0.26944 0.0
O209 O 0.26751 0.58604 0.14575 0.0
Mg210 Mg 0.9412 0.96633 0.59941 0.0
O211 O 0.91092 0.91581 0.51213 0.0
O212 O 0.9713 0.8919 0.49342 0.0
Mg213 Mg 0.97187 0.89657 0.57585 0.0
C214 C 0.93424 0.89741 0.47835 0.0
C215 C 0.87661 1.02234 0.58021 0.0
O216 O 0.91547 0.05732 0.58991 0.0
O217 O 0.90747 0.91706 0.65004 0.0
O218 O 0.96835 0.8937 0.65718 0.0
O219 O 0.98379 1.01911 0.56656 0.0
O220 O 1.0196 0.97635 0.59791 0.0
C221 C 0.93113 0.89862 0.67324 0.0
C222 C 1.02121 1.01183 0.57909 0.0
O223 O 0.87457 0.98333 0.59156 0.0
Mg224 Mg 0.03733 0.12285 0.30756 0.0
O225 O 0.99084 1.03106 0.29002 0.0
O226 O 0.94252 0.05013 0.34244 0.0
Mg227 Mg 0.98222 0.13779 0.35855 0.0
C228 C 0.95798 1.01547 0.31385 0.0
C229 C 0.10833 0.12279 0.19804 0.0
O230 O 0.14184 0.1513 0.23402 0.0
O231 O 0.98884 0.19436 0.30137 0.0
O232 O 0.92692 0.1733 0.33302 0.0
O233 O 0.08936 0.0939 0.3528 0.0
O234 O 0.04325 0.12596 0.39888 0.0
C235 C 0.94979 0.20452 0.31389 0.0
C236 C 0.07691 0.10657 0.39717 0.0
O237 O 0.06823 0.10817 0.21344 0.0
Mg238 Mg 0.40848 0.6294 0.56315 0.0
O239 O 0.39654 0.69689 0.63125 0.0
O240 O 0.46089 0.75952 0.65455 0.0
Mg241 Mg 0.5138 0.74184 0.6005 0.0
C242 C 0.41948 0.74143 0.65924 0.0
C243 C 0.29082 0.62828 0.54874 0.0
O244 O 0.30933 0.67295 0.54615 0.0
O245 O 0.4025 0.6741 0.51161 0.0
O246 O 0.45744 0.74589 0.54713 0.0
O247 O 0.46571 0.5874 0.51713 0.0
O248 O 0.49096 0.65732 0.57256 0.0
C249 C 0.42114 0.71992 0.51717 0.0
C250 C 0.5024 0.62145 0.54016 0.0
O251 O 0.31873 0.60209 0.55333 0.0
Mg252 Mg 0.53673 0.62151 0.80783 0.0
O253 O 0.48968 0.52969 0.79045 0.0
O254 O 0.44196 0.54932 0.84342 0.0
Mg255 Mg 0.48202 0.63669 0.85871 0.0
C256 C 0.45696 0.51437 0.81461 0.0
C257 C 0.60781 0.61975 0.69789 0.0
O258 O 0.64181 0.64637 0.73385 0.0
O259 O 0.4885 0.69326 0.80103 0.0
O260 O 0.42665 0.67174 0.83244 0.0
O261 O 0.58868 0.59239 0.85325 0.0
O262 O 0.54303 0.62505 0.8995 0.0
C263 C 0.44932 0.70315 0.81338 0.0
C264 C 0.57653 0.60541 0.89777 0.0
O265 O 0.56747 0.60657 0.71343 0.0
Mg266 Mg 0.82564 0.09479 0.70397 0.0
O267 O 0.86499 0.1676 0.68895 0.0
O268 O 0.82146 0.1751 0.74731 0.0
Mg269 Mg 0.81832 0.2053 0.82899 0.0
C270 C 0.85005 0.1963 0.72449 0.0
C271 C 0.72363 0.06831 0.64817 0.0
O272 O 0.70866 0.05103 0.68367 0.0
O273 O 0.88072 0.1081 0.76824 0.0
O274 O 0.8671 0.16002 0.84128 0.0
O275 O 0.77556 0.05345 0.74489 0.0
O276 O 0.79089 0.13446 0.76114 0.0
C277 C 0.8881 0.12926 0.81645 0.0
C278 C 0.76845 0.09559 0.76934 0.0
O279 O 0.76608 0.08328 0.64547 0.0
Mg280 Mg 0.8581 0.77492 0.03218 0.0
O281 O 0.85183 0.78339 0.11872 0.0
O282 O 0.89519 0.86036 0.14006 0.0
Mg283 Mg 0.90074 0.84975 0.05667 0.0
C284 C 0.87208 0.82512 0.15336 0.0
C285 C 0.77179 0.67135 1.00305 0.0
O286 O 0.80239 0.6479 0.98701 0.0
O287 O 0.86707 0.77286 0.94431 0.0
O288 O 0.91402 0.84814 0.97699 0.0
O289 O 0.88868 0.71409 0.02673 0.0
O290 O 0.93713 0.78944 0.05286 0.0
C291 C 0.89419 0.8114 0.9377 0.0
C292 C 0.92881 0.74196 0.04429 0.0
O293 O 0.78258 0.71964 1.01616 0.0
Mg294 Mg 0.99663 0.61532 0.88693 0.0
O295 O 0.97982 0.5314 0.84367 0.0
O296 O 0.93354 0.53301 0.90001 0.0
Mg297 Mg 0.96978 0.61453 0.91194 0.0
C298 C 0.94853 0.50785 0.86221 0.0
C299 C 0.08845 0.63748 0.82121 0.0
O300 O 0.1293 0.66742 0.82532 0.0
O301 O 0.97001 0.61824 0.81402 0.0
O302 O 0.91305 0.61469 0.85723 0.0
O303 O 0.06529 0.60643 0.89232 0.0
O304 O 1.0297 0.60909 0.95773 0.0
C305 C 0.92841 0.61511 0.81607 0.0
C306 C 0.06477 0.6042 0.93614 0.0
O307 O 0.06665 0.64555 0.85954 0.0
Mg308 Mg 0.88843 0.5475 0.5274 0.0
O309 O 0.87994 0.46404 0.46258 0.0
O310 O 0.93593 0.43251 0.48158 0.0
Mg311 Mg 0.98567 0.47736 0.55495 0.0
C312 C 0.90089 0.42914 0.45296 0.0
C313 C 0.78875 0.58438 0.55595 0.0
O314 O 0.81669 0.61498 0.59646 0.0
O315 O 0.86503 0.50823 0.58553 0.0
O316 O 0.93567 0.52045 0.576 0.0
O317 O 0.96375 0.58724 0.50271 0.0
O318 O 0.9648 0.54392 0.54794 0.0
C319 C 0.90275 0.50153 0.59555 0.0
C320 C 0.9887 0.57119 0.5267 0.0
O321 O 0.80557 0.55422 0.52116 0.0
Mg322 Mg 0.76909 0.5738 0.29699 0.0
O323 O 0.78591 0.66814 0.3068 0.0
O324 O 0.85148 0.68179 0.34811 0.0
Mg325 Mg 0.83559 0.5959 0.34704 0.0
C326 C 0.82562 0.69949 0.32685 0.0
C327 C 0.70773 0.59164 0.19127 0.0
O328 O 0.70277 0.62927 0.22924 0.0
O329 O 0.78968 0.48041 0.28436 0.0
O330 O 0.84742 0.51486 0.34252 0.0
O331 O 0.7042 0.5696 0.34659 0.0
O332 O 0.768 0.59532 0.39288 0.0
C333 C 0.82488 0.47378 0.30832 0.0
C334 C 0.72384 0.58641 0.39217 0.0
O335 O 0.72954 0.56231 0.20347 0.0
Eu336 Eu 0.17184 0.15974 0.05842 0.0
Eu337 Eu 0.12786 0.05209 0.01756 0.0
C338 C 0.19562 0.09354 0.94069 0.0
C339 C 0.15925 0.27734 0.06598 0.0
C340 C 0.12711 0.24616 0.02415 0.0
C341 C 0.11114 0.33353 0.08861 0.0
C342 C 0.08716 0.25672 1.0159 0.0
C343 C 0.15123 0.32128 0.09857 0.0
C344 C 0.07861 0.3007 0.04726 0.0
C345 C 0.1945 0.25602 0.07852 0.0
O346 O 0.20627 0.05797 0.02689 0.0
O347 O 0.23375 0.13749 0.08088 0.0
C348 C 0.24153 0.09462 0.05513 0.0
O349 O 0.15608 0.14942 0.13531 0.0
O350 O 0.10309 0.97721 0.95941 0.0
O351 O 0.10862 0.98582 0.0392 0.0
O352 O 0.10368 0.07442 0.10067 0.0
C353 C 0.1214 0.11505 0.14183 0.0
O354 O 0.09191 0.15456 0.05369 0.0
O355 O 0.0601 0.07289 1.0076 0.0
O356 O 0.15806 0.05932 0.94257 0.0
O357 O 0.18648 0.23613 0.11364 0.0
O358 O 0.2059 0.22561 0.03925 0.0
O359 O 0.20752 0.13498 0.98222 0.0
C360 C 0.14312 0.92977 0.98791 0.0
C361 C 0.18213 0.9498 0.02422 0.0
C362 C 0.16614 0.85429 0.95318 0.0
C363 C 0.21096 0.92096 0.02698 0.0
C364 C 0.13754 0.88364 0.94959 0.0
C365 C 0.19854 0.87042 0.99632 0.0
C366 C 0.10802 0.95631 0.99315 0.0
C367 C 0.05383 0.11711 0.03287 0.0
H368 H 0.13137 0.21135 0.9987 0.0
H369 H 0.10532 0.36773 0.11332 0.0
H370 H 0.06312 0.22994 0.98386 0.0
H371 H 0.17514 0.34512 0.13186 0.0
H372 H 0.18786 0.9855 0.05427 0.0
H373 H 0.15719 0.81558 0.92803 0.0
H374 H 0.23678 0.93509 0.05954 0.0
H375 H 0.10884 0.86837 0.92008 0.0
Eu376 Eu 0.42779 0.86062 0.25257 0.0
Eu377 Eu 0.36438 0.84909 0.34441 0.0
C378 C 0.32579 0.87679 0.25495 0.0
C379 C 0.45378 0.91258 0.1569 0.0
C380 C 0.40763 0.91094 0.14949 0.0
C381 C 0.4744 0.98861 0.13665 0.0
C382 C 0.39497 0.94755 0.13518 0.0
C383 C 0.48712 0.95231 0.1514 0.0
C384 C 0.42831 0.98573 0.12735 0.0
C385 C 0.46677 0.87836 0.17916 0.0
O386 O 0.3426 0.77766 0.27653 0.0
O387 O 0.4089 0.77798 0.24127 0.0
C388 C 0.36872 0.75405 0.24814 0.0
O389 O 0.47744 0.87557 0.31976 0.0
O390 O 0.31308 0.80496 0.37667 0.0
O391 O 0.36475 0.86978 0.42613 0.0
O392 O 0.4244 0.8214 0.34228 0.0
C393 C 0.46431 0.85273 0.35158 0.0
O394 O 0.42232 0.93716 0.295 0.0
O395 O 0.40881 0.92912 0.37204 0.0
O396 O 0.32366 0.88121 0.30277 0.0
O397 O 0.48642 0.90012 0.22579 0.0
O398 O 0.43554 0.83632 0.17248 0.0
O399 O 0.35662 0.85986 0.22931 0.0
C400 C 0.35261 0.79621 0.44583 0.0
C401 C 0.38039 0.76772 0.41989 0.0
C402 C 0.36933 0.77362 0.51899 0.0
C403 C 0.40268 0.74287 0.44303 0.0
C404 C 0.34723 0.79902 0.49579 0.0
C405 C 0.39722 0.74549 0.49255 0.0
C406 C 0.33506 0.82768 0.42236 0.0
C407 C 0.42395 0.95641 0.34404 0.0
H408 H 0.38109 0.88091 0.15387 0.0
H409 H 0.50043 1.01727 0.12921 0.0
H410 H 0.35929 0.94392 0.12676 0.0
H411 H 0.52279 0.95503 0.15818 0.0
H412 H 0.38564 0.76524 0.38174 0.0
H413 H 0.36516 0.77641 0.55774 0.0
H414 H 0.42485 0.72236 0.42259 0.0
H415 H 0.32687 0.82159 0.5171 0.0
Eu416 Eu 0.67434 0.05958 0.48947 0.0
Eu417 Eu 0.60644 0.10523 0.58468 0.0
C418 C 0.69111 0.07195 0.61219 0.0
C419 C 0.77266 1.01445 0.46998 0.0
C420 C 0.76318 0.98532 0.5016 0.0
C421 C 0.85055 0.04815 0.51054 0.0
C422 C 0.79684 0.98839 0.53793 0.0
C423 C 0.81698 0.04472 0.4738 0.0
C424 C 0.84047 1.0208 0.54358 0.0
C425 C 0.73517 1.02302 0.44322 0.0
O426 O 0.66965 0.16832 0.59762 0.0
O427 O 0.69766 0.14421 0.52047 0.0
C428 C 0.69801 0.17671 0.56554 0.0
O429 O 0.62941 0.07276 0.43373 0.0
O430 O 0.58208 0.16217 0.63969 0.0
O431 O 0.53408 0.09728 0.58439 0.0
O432 O 0.60436 0.09496 0.50577 0.0
C433 C 0.59956 0.09014 0.45902 0.0
O434 O 0.61466 0.99638 0.49097 0.0
O435 O 0.58393 1.0225 0.56641 0.0
O436 O 0.65271 0.08039 0.62704 0.0
O437 O 0.69459 0.99489 0.44287 0.0
O438 O 0.73648 0.07026 0.45446 0.0
O439 O 0.70409 0.06902 0.56753 0.0
C440 C 0.51514 0.17337 0.60458 0.0
C441 C 0.52971 0.19623 0.56877 0.0
C442 C 0.44664 0.20008 0.60375 0.0
C443 C 0.50303 0.22124 0.55075 0.0
C444 C 0.47369 0.17618 0.62243 0.0
C445 C 0.46075 0.22223 0.56734 0.0
C446 C 0.5398 0.14137 0.61872 0.0
C447 C 0.58802 0.98806 0.52475 0.0
H448 H 0.72922 0.96201 0.50017 0.0
H449 H 0.88436 0.07235 0.51308 0.0
H450 H 0.78843 0.96626 0.56237 0.0
H451 H 0.82498 0.06787 0.45028 0.0
H452 H 0.56082 0.19291 0.55343 0.0
H453 H 0.41412 0.20054 0.61718 0.0
H454 H 0.51438 0.23764 0.52238 0.0
H455 H 0.46144 0.15831 0.64949 0.0
Eu456 Eu 0.34825 0.36771 0.82448 0.0
Eu457 Eu 0.43818 0.34055 0.80861 0.0
C458 C 0.34501 0.25268 0.82244 0.0
C459 C 0.2344 0.37781 0.86038 0.0
C460 C 0.23592 0.35445 0.89663 0.0
C461 C 0.15294 0.34674 0.84597 0.0
C462 C 0.19581 0.32685 0.90718 0.0
C463 C 0.19283 0.37517 0.83628 0.0
C464 C 0.15439 0.32136 0.88042 0.0
C465 C 0.27525 0.39647 0.84041 0.0
O466 O 0.41331 0.32577 0.72753 0.0
O467 O 0.34648 0.34578 0.73817 0.0
C468 C 0.3756 0.3298 0.70862 0.0
O469 O 0.39519 0.4446 0.82516 0.0
O470 O 0.4649 0.27687 0.77753 0.0
O471 O 0.5112 0.35043 0.81854 0.0
O472 O 0.45911 0.4227 0.80158 0.0
C473 C 0.43627 0.45754 0.81199 0.0
O474 O 0.37677 0.37584 0.905 0.0
O475 O 0.45004 0.37761 0.89318 0.0
O476 O 0.38982 0.27068 0.82407 0.0
O477 O 0.31254 0.41673 0.87212 0.0
O478 O 0.28037 0.3652 0.79765 0.0
O479 O 0.32003 0.28265 0.81849 0.0
C480 C 0.53787 0.29359 0.75497 0.0
C481 C 0.53384 0.30471 0.71042 0.0
C482 C 0.60584 0.26956 0.73288 0.0
C483 C 0.56703 0.30019 0.6781 0.0
C484 C 0.57274 0.27395 0.76493 0.0
C485 C 0.60429 0.28471 0.69051 0.0
C486 C 0.50701 0.30341 0.79238 0.0
C487 C 0.41914 0.38312 0.92348 0.0
H488 H 0.26803 0.35587 0.9152 0.0
H489 H 0.12097 0.34464 0.82655 0.0
H490 H 0.19716 0.30864 0.93497 0.0
H491 H 0.19142 0.39304 0.80819 0.0
H492 H 0.50637 0.31905 0.70197 0.0
H493 H 0.63426 0.25738 0.74299 0.0
H494 H 0.56536 0.31241 0.64579 0.0
H495 H 0.57557 0.2643 0.79877 0.0
Eu496 Eu 0.13548 0.14508 0.57095 0.0
Eu497 Eu 0.15319 0.04285 0.51071 0.0
C498 C 0.22738 0.143 0.51188 0.0
C499 C 0.15788 0.27634 0.5945 0.0
C500 C 0.17015 0.2593 0.54587 0.0
C501 C 0.18617 0.3621 0.59539 0.0
C502 C 0.19158 0.29262 0.52296 0.0
C503 C 0.16733 0.32824 0.62013 0.0
C504 C 0.19797 0.34408 0.54633 0.0
C505 C 0.13681 0.23796 0.61639 0.0
O506 O 0.19282 0.05952 0.59147 0.0
O507 O 0.16066 0.1194 0.63553 0.0
C508 C 0.18587 0.08845 0.63615 0.0
O509 O 0.06879 0.08949 0.57192 0.0
O510 O 0.18899 0.98506 0.48758 0.0
O511 O 0.11743 0.96654 0.46107 0.0
O512 O 0.09771 1.02294 0.5579 0.0
C513 C 0.06473 0.04324 0.57049 0.0
O514 O 0.10156 0.13517 0.49117 0.0
O515 O 0.11952 0.06437 0.44498 0.0
O516 O 0.21607 0.09361 0.49558 0.0
O517 O 0.10053 0.20394 0.589 0.0
O518 O 0.16533 0.21745 0.63103 0.0
O519 O 0.20242 0.16754 0.54055 0.0
C520 C 0.13894 0.9146 0.49982 0.0
C521 C 0.15476 0.93255 0.55181 0.0
C522 C 0.08591 0.84234 0.51114 0.0
C523 C 0.13596 0.90662 0.58313 0.0
C524 C 0.10488 0.86862 0.47949 0.0
C525 C 0.10086 0.86184 0.56341 0.0
C526 C 0.15069 0.94934 0.47094 0.0
C527 C 0.10079 0.1016 0.44622 0.0
H528 H 0.16109 0.21985 0.52409 0.0
H529 H 0.18927 0.40173 0.61326 0.0
H530 H 0.19818 0.27763 0.48428 0.0
H531 H 0.15825 0.34225 0.65777 0.0
H532 H 0.18064 0.96781 0.56899 0.0
H533 H 0.05945 0.80716 0.49493 0.0
H534 H 0.14809 0.92248 0.62325 0.0
H535 H 0.09168 0.85421 0.4397 0.0
Eu536 Eu 0.43071 0.86747 0.79617 0.0
Eu537 Eu 0.34081 0.79886 0.79491 0.0
C538 C 0.38014 0.89284 0.8938 0.0
C539 C 0.55587 0.91207 0.79517 0.0
C540 C 0.55918 0.86353 0.78857 0.0
C541 C 0.63739 0.9436 0.80805 0.0
C542 C 0.6015 0.85601 0.79576 0.0
C543 C 0.59503 0.95143 0.80188 0.0
C544 C 0.64056 0.89703 0.80935 0.0
C545 C 0.51279 0.92318 0.80402 0.0
O546 O 0.31702 0.87252 0.78989 0.0
O547 O 0.38615 0.92473 0.79408 0.0
C548 C 0.34109 0.91947 0.79291 0.0
O549 O 0.41596 0.8229 0.71349 0.0
O550 O 0.2809 0.76535 0.82489 0.0
O551 O 0.28244 0.74422 0.74395 0.0
O552 O 0.37091 0.75564 0.72656 0.0
C553 C 0.39896 0.77423 0.69912 0.0
O554 O 0.45196 0.79375 0.8049 0.0
O555 O 0.38345 0.74517 0.81009 0.0
O556 O 0.36228 0.84385 0.8792 0.0
O557 O 0.48309 0.90965 0.76404 0.0
O558 O 0.49522 0.91136 0.84157 0.0
O559 O 0.40323 0.91119 0.86326 0.0
C560 C 0.2185 0.76646 0.77455 0.0
C561 C 0.21735 0.79008 0.73824 0.0
C562 C 0.16155 0.80411 0.81437 0.0
C563 C 0.19085 0.82262 0.74195 0.0
C564 C 0.18923 0.7724 0.81169 0.0
C565 C 0.16364 0.83043 0.78052 0.0
C566 C 0.25692 0.7464 0.7801 0.0
C567 C 0.42796 0.74909 0.80815 0.0
H568 H 0.52907 0.83252 0.78233 0.0
H569 H 0.66717 0.97531 0.81747 0.0
H570 H 0.60323 0.8194 0.79548 0.0
H571 H 0.59289 0.98899 0.80652 0.0
H572 H 0.23946 0.7867 0.70905 0.0
H573 H 0.13993 0.80974 0.84382 0.0
H574 H 0.19276 0.84299 0.71566 0.0
H575 H 0.19011 0.75541 0.84054 0.0
Eu576 Eu 0.63978 0.07214 0.08393 0.0
Eu577 Eu 0.64387 0.11555 0.99357 0.0
C578 C 0.63274 0.1851 0.10337 0.0
C579 C 0.60539 0.04657 0.19823 0.0
C580 C 0.5781 0.07847 0.19829 0.0
C581 C 0.60296 0.06474 0.28784 0.0
C582 C 0.56574 0.10574 0.24337 0.0
C583 C 0.61497 0.03694 0.24243 0.0
C584 C 0.58119 0.10188 0.28883 0.0
C585 C 0.63208 0.03457 0.15645 0.0
O586 O 0.71966 0.13735 0.02449 0.0
O587 O 0.71622 0.08208 0.06706 0.0
C588 C 0.74094 0.11399 0.04686 0.0
O589 O 0.61002 1.00695 1.01354 0.0
O590 O 0.66803 0.16676 0.95276 0.0
O591 O 0.61504 0.09629 0.91599 0.0
O592 O 0.65986 0.04233 0.9711 0.0
C593 C 0.63278 1.00242 0.97562 0.0
O594 O 0.5659 0.07612 0.07095 0.0
O595 O 0.56708 0.09445 0.99779 0.0
O596 O 0.63334 0.17872 0.05544 0.0
O597 O 0.60885 1.01129 0.11174 0.0
O598 O 0.6658 0.0724 0.15708 0.0
O599 O 0.63848 0.15204 0.12355 0.0
C600 C 0.67186 0.12013 0.8701 0.0
C601 C 0.6913 0.0806 0.86598 0.0
C602 C 0.71287 0.1395 0.80523 0.0
C603 C 0.72195 0.0708 0.83171 0.0
C604 C 0.68215 0.14906 0.83919 0.0
C605 C 0.73347 0.10094 0.80206 0.0
C606 C 0.64478 0.1342 0.91021 0.0
C607 C 0.54449 0.08313 0.03319 0.0
H608 H 0.57069 0.08672 0.16463 0.0
H609 H 0.61564 0.06162 0.32274 0.0
H610 H 0.5495 0.13458 0.24343 0.0
H611 H 0.63595 1.01237 0.24295 0.0
H612 H 0.68381 0.05828 0.89024 0.0
H613 H 0.7212 0.163 0.78207 0.0
H614 H 0.73793 0.04137 0.82986 0.0
H615 H 0.66764 0.17987 0.84245 0.0
Eu616 Eu 0.43352 0.40719 0.33771 0.0
Eu617 Eu 0.38063 0.2911 0.26467 0.0
C618 C 0.41547 0.38021 0.21706 0.0
C619 C 0.4464 0.54057 0.37998 0.0
C620 C 0.40142 0.52359 0.35635 0.0
C621 C 0.45338 0.62136 0.36914 0.0
C622 C 0.38302 0.55431 0.33827 0.0
C623 C 0.47218 0.59006 0.38735 0.0
C624 C 0.40907 0.60274 0.34322 0.0
C625 C 0.46654 0.5029 0.38843 0.0
O626 O 0.45011 0.29346 0.29329 0.0
O627 O 0.48504 0.37358 0.2989 0.0
C628 C 0.48465 0.32663 0.28702 0.0
O629 O 0.43458 0.36003 0.3889 0.0
O630 O 0.37822 0.22841 0.19608 0.0
O631 O 0.32414 0.22267 0.24231 0.0
O632 O 0.37547 0.2896 0.34622 0.0
C633 C 0.40267 0.31937 0.3885 0.0
O634 O 0.36193 0.38827 0.35187 0.0
O635 O 0.32856 0.33278 0.27408 0.0
O636 O 0.41226 0.33325 0.21268 0.0
O637 O 0.44069 0.47165 0.4067 0.0
O638 O 0.48398 0.47927 0.34994 0.0
O639 O 0.41051 0.41174 0.26082 0.0
C640 C 0.35526 0.15455 0.21615 0.0
C641 C 0.3978 0.14654 0.20662 0.0
C642 C 0.35343 0.11647 0.28094 0.0
C643 C 0.41997 0.12904 0.23806 0.0
C644 C 0.33115 0.13367 0.24918 0.0
C645 C 0.3993 0.11856 0.27842 0.0
C646 C 0.34478 0.19798 0.20769 0.0
C647 C 0.32596 0.36077 0.31973 0.0
H648 H 0.38103 0.4854 0.34942 0.0
H649 H 0.47384 0.65883 0.37326 0.0
H650 H 0.34874 0.5394 0.31843 0.0
H651 H 0.50711 0.60358 0.40505 0.0
H652 H 0.41662 0.1603 0.17987 0.0
H653 H 0.33617 0.10627 0.31043 0.0
H654 H 0.45486 0.12891 0.23394 0.0
H655 H 0.29752 0.13741 0.25575 0.0
Eu656 Eu 0.63591 0.6448 0.07216 0.0
Eu657 Eu 0.65324 0.54222 1.01146 0.0
C658 C 0.72764 0.64215 1.01299 0.0
C659 C 0.65662 0.77428 0.09029 0.0
C660 C 0.67081 0.75474 0.04319 0.0
C661 C 0.67709 0.85663 0.08112 0.0
C662 C 0.68929 0.78516 1.01622 0.0
C663 C 0.66118 0.82606 0.11025 0.0
C664 C 0.69047 0.83567 0.03344 0.0
C665 C 0.63653 0.73793 0.11501 0.0
O666 O 0.69306 0.55962 0.09256 0.0
O667 O 0.66051 0.61911 0.13695 0.0
C668 C 0.68602 0.58836 0.13739 0.0
O669 O 0.56943 0.58949 0.07436 0.0
O670 O 0.68985 0.48515 0.98915 0.0
O671 O 0.6183 0.46567 0.96188 0.0
O672 O 0.59704 0.52169 0.05751 0.0
C673 C 0.56477 0.54274 0.07158 0.0
O674 O 0.60262 0.63474 0.99176 0.0
O675 O 0.61847 0.56264 0.94564 0.0
O676 O 0.71422 0.59288 0.99303 0.0
O677 O 0.60018 0.70304 0.08904 0.0
O678 O 0.6655 0.71849 0.13062 0.0
O679 O 0.70514 0.6663 0.04581 0.0
C680 C 0.64015 0.41435 1.00125 0.0
C681 C 0.65709 0.4318 0.05292 0.0
C682 C 0.58598 0.3434 1.0135 0.0
C683 C 0.63831 0.40619 0.08455 0.0
C684 C 0.60498 0.36924 0.98155 0.0
C685 C 0.60203 0.3624 0.06549 0.0
C686 C 0.65179 0.44904 0.97232 0.0
C687 C 0.60066 0.6005 0.94684 0.0
H688 H 0.66465 0.71505 0.02502 0.0
H689 H 0.67635 0.89547 0.09425 0.0
H690 H 0.69752 0.76775 0.97879 0.0
H691 H 0.6502 0.84204 0.14643 0.0
H692 H 0.68374 0.46656 0.0697 0.0
H693 H 0.55857 0.30899 0.99774 0.0
H694 H 0.65134 0.42165 0.12443 0.0
H695 H 0.59088 0.35529 0.94206 0.0
Eu696 Eu 0.93515 0.37043 0.3061 0.0
Eu697 Eu 0.84266 0.30393 0.29626 0.0
C698 C 0.89155 0.38707 0.40305 0.0
C699 C 0.05876 0.41556 0.3108 0.0
C700 C 0.06015 0.36932 0.31454 0.0
C701 C 0.1397 0.4382 0.31024 0.0
C702 C 0.10115 0.35843 0.31827 0.0
C703 C 0.09829 0.44878 0.30554 0.0
C704 C 0.14151 0.395 0.32106 0.0
C705 C 1.01643 0.42934 0.31558 0.0
O706 O 0.82013 0.37428 0.28316 0.0
O707 O 0.88931 0.42899 0.31182 0.0
C708 C 0.84472 0.42309 0.29916 0.0
O709 O 0.92844 0.32513 0.22388 0.0
O710 O 0.78384 0.26938 0.32719 0.0
O711 O 0.78403 0.2497 0.24595 0.0
O712 O 0.87006 0.26102 0.22519 0.0
C713 C 0.90478 0.27819 0.20385 0.0
O714 O 0.95454 0.29311 0.30191 0.0
O715 O 0.88662 0.25273 0.31733 0.0
O716 O 0.85324 0.36944 0.37262 0.0
O717 O 0.9882 0.41219 0.2741 0.0
O718 O 0.99661 0.42245 0.35379 0.0
O719 O 0.92585 0.37234 0.38488 0.0
C720 C 0.72037 0.27071 0.27813 0.0
C721 C 0.71782 0.29378 0.24155 0.0
C722 C 0.6625 0.30643 0.31814 0.0
C723 C 0.69031 0.32527 0.24533 0.0
C724 C 0.6915 0.27612 0.31567 0.0
C725 C 0.66323 0.33232 0.28406 0.0
C726 C 0.75922 0.25102 0.28267 0.0
C727 C 0.92976 0.25163 0.30981 0.0
H728 H 1.03015 0.34316 0.31847 0.0
H729 H 0.17046 0.46582 0.31001 0.0
H730 H 0.10138 0.32376 0.32429 0.0
H731 H 0.09755 0.48402 0.30113 0.0
H732 H 0.73945 0.29071 0.21191 0.0
H733 H 0.64075 0.31124 0.34745 0.0
H734 H 0.69117 0.34529 0.21881 0.0
H735 H 0.69351 0.25965 0.34474 0.0
Eu736 Eu 0.13611 0.56932 0.57943 0.0
Eu737 Eu 0.13967 0.61223 0.4891 0.0
C738 C 0.12965 0.68228 0.59973 0.0
C739 C 0.09748 0.53315 0.68839 0.0
C740 C 0.06603 0.56054 0.68807 0.0
C741 C 0.09912 0.55448 0.77871 0.0
C742 C 0.05512 0.58907 0.73354 0.0
C743 C 0.11055 0.52635 0.73319 0.0
C744 C 0.07526 0.5897 0.77914 0.0
C745 C 0.12611 0.52623 0.64783 0.0
O746 O 0.21595 0.63411 0.5197 0.0
O747 O 0.21313 0.58062 0.56433 0.0
C748 C 0.23762 0.61179 0.54319 0.0
O749 O 0.10641 0.50683 0.50719 0.0
O750 O 0.16249 0.66375 0.44828 0.0
O751 O 0.11127 0.59183 0.41116 0.0
O752 O 0.1595 0.54129 0.468 0.0
C753 C 0.13244 0.50143 0.4723 0.0
O754 O 0.06307 0.57613 0.56824 0.0
O755 O 0.06224 0.58773 0.49177 0.0
O756 O 0.12907 0.67524 0.55151 0.0
O757 O 0.10482 0.50492 0.60205 0.0
O758 O 0.15895 0.56632 0.65228 0.0
O759 O 0.13597 0.64947 0.62005 0.0
C760 C 0.16836 0.61751 0.366 0.0
C761 C 0.18527 0.57565 0.35871 0.0
C762 C 0.21524 0.64254 0.30763 0.0
C763 C 0.21766 0.56762 0.3262 0.0
C764 C 0.18292 0.65044 0.33985 0.0
C765 C 0.23337 0.60164 0.30141 0.0
C766 C 0.1403 0.63036 0.40554 0.0
C767 C 0.04036 0.57928 0.52887 0.0
H768 H 0.05494 0.56558 0.6537 0.0
H769 H 0.11477 0.55434 0.81379 0.0
H770 H 0.03669 0.61601 0.73319 0.0
H771 H 0.13435 0.50481 0.73396 0.0
H772 H 0.17463 0.55021 0.37941 0.0
H773 H 0.22656 0.66906 0.28816 0.0
H774 H 0.23176 0.5364 0.32203 0.0
H775 H 0.1705 0.68309 0.34565 0.0
Eu776 Eu 0.84928 0.86823 0.32317 0.0
Eu777 Eu 0.93928 0.84209 0.30826 0.0
C778 C 0.84553 0.754 0.32256 0.0
C779 C 0.73655 0.8823 0.35997 0.0
C780 C 0.7377 0.85957 0.39679 0.0
C781 C 0.65505 0.85222 0.34573 0.0
C782 C 0.6974 0.83246 0.40746 0.0
C783 C 0.69515 0.88014 0.33589 0.0
C784 C 0.65615 0.8269 0.38031 0.0
C785 C 0.77741 0.89929 0.33921 0.0
O786 O 0.91753 0.83549 0.22876 0.0
O787 O 0.84473 0.83837 0.23625 0.0
C788 C 0.87723 0.83093 0.20813 0.0
O789 O 0.89559 0.94443 0.32116 0.0
O790 O 0.96374 0.77738 0.274 0.0
O791 O 1.01181 0.84899 0.31797 0.0
O792 O 0.96161 0.92492 0.30348 0.0
C793 C 0.93766 0.95856 0.31099 0.0
O794 O 0.87771 0.87621 0.40378 0.0
O795 O 0.95129 0.87886 0.39271 0.0
O796 O 0.89016 0.77148 0.32219 0.0
O797 O 0.81492 0.91906 0.37052 0.0
O798 O 0.78169 0.86698 0.2967 0.0
O799 O 0.82052 0.78437 0.32024 0.0
C800 C 0.037 0.79251 0.25223 0.0
C801 C 1.03346 0.80464 0.2082 0.0
C802 C 0.10363 0.76611 0.2288 0.0
C803 C 0.06627 0.79936 0.17547 0.0
C804 C 0.07092 0.77125 0.26125 0.0
C805 C 0.10263 0.7821 0.18693 0.0
C806 C 1.0062 0.8022 0.28973 0.0
C807 C 0.92008 0.88386 0.42267 0.0
H808 H 0.76967 0.86075 0.41548 0.0
H809 H 0.62323 0.85013 0.32601 0.0
H810 H 0.69851 0.81433 0.43536 0.0
H811 H 0.69402 0.89765 0.30745 0.0
H812 H 1.00665 0.82019 0.20043 0.0
H813 H 0.13142 0.75267 0.23824 0.0
H814 H 0.0651 0.81235 0.14362 0.0
H815 H 0.07332 0.76077 0.29463 0.0
Eu816 Eu 0.92952 0.35539 0.74671 0.0
Eu817 Eu 0.86673 0.34726 0.84076 0.0
C818 C 0.82916 0.37773 0.75257 0.0
C819 C 0.95143 0.40228 0.64772 0.0
C820 C 0.95836 0.45267 0.67876 0.0
C821 C 0.90146 0.41481 0.58688 0.0
C822 C 0.93735 0.48362 0.66391 0.0
C823 C 0.92264 0.38362 0.60165 0.0
C824 C 0.90884 0.46499 0.618 0.0
C825 C 0.96436 0.36704 0.669 0.0
O826 O 0.84252 0.27594 0.77307 0.0
O827 O 0.90851 0.27348 0.73795 0.0
C828 C 0.86789 0.25099 0.74489 0.0
O829 O 0.97988 0.37048 0.81356 0.0
O830 O 0.81523 0.30505 0.8745 0.0
O831 O 0.86859 0.36886 0.92268 0.0
O832 O 0.92605 0.31843 0.83759 0.0
C833 C 0.96608 0.3495 0.84669 0.0
O834 O 0.93078 0.43426 0.79026 0.0
O835 O 0.91072 0.42742 0.86643 0.0
O836 O 0.82649 0.38017 0.79982 0.0
O837 O 0.98812 0.3869 0.71391 0.0
O838 O 0.93089 0.32776 0.6653 0.0
O839 O 0.86025 0.36196 0.72635 0.0
C840 C 0.85423 0.29603 0.94387 0.0
C841 C 0.88156 0.26663 0.9185 0.0
C842 C 0.86966 0.27409 0.01787 0.0
C843 C 0.90306 0.24168 0.9424 0.0
C844 C 0.8483 0.2995 0.9939 0.0
C845 C 0.89728 0.24519 0.99213 0.0
C846 C 0.83785 0.32781 0.91987 0.0
C847 C 0.9291 0.45385 0.83873 0.0
H848 H 0.97952 0.4683 0.71502 0.0
H849 H 0.88122 0.40053 0.55013 0.0
H850 H 0.9451 0.52293 0.68725 0.0
H851 H 0.91589 0.34469 0.57759 0.0
H852 H 0.88728 0.26378 0.88033 0.0
H853 H 0.86525 0.27764 0.05673 0.0
H854 H 0.92505 0.22057 0.92245 0.0
H855 H 0.82823 0.32275 1.01473 0.0
Eu856 Eu 0.93196 0.90645 0.83641 0.0
Eu857 Eu 0.88035 0.79058 0.76305 0.0
C858 C 0.91512 0.88006 0.71585 0.0
C859 C 0.9449 0.04044 0.88044 0.0
C860 C 0.89911 1.02488 0.8597 0.0
C861 C 0.95313 0.12024 0.86691 0.0
C862 C 0.88086 0.05579 0.8417 0.0
C863 C 0.9717 0.08885 0.88519 0.0
C864 C 0.90791 0.10288 0.84374 0.0
C865 C 0.96473 1.00209 0.88782 0.0
O866 O 0.95 0.79325 0.79155 0.0
O867 O 0.98408 0.8737 0.79762 0.0
C868 C 0.98437 0.82694 0.78573 0.0
O869 O 0.93352 0.85916 0.88731 0.0
O870 O 0.87799 0.72856 0.69389 0.0
O871 O 0.82444 0.72163 0.74064 0.0
O872 O 0.87452 0.7888 0.84454 0.0
C873 C 0.90166 0.81847 0.8869 0.0
O874 O 0.85983 0.8869 0.84934 0.0
O875 O 0.82805 0.8318 0.77093 0.0
O876 O 0.91228 0.83317 0.7115 0.0
O877 O 0.93895 0.97047 0.90575 0.0
O878 O 0.98198 0.97888 0.84894 0.0
O879 O 0.90961 0.91133 0.75947 0.0
C880 C 0.85606 0.65408 0.71297 0.0
C881 C 0.89888 0.64696 0.7034 0.0
C882 C 0.85449 0.61433 0.77634 0.0
C883 C 0.92127 0.62907 0.73424 0.0
C884 C 0.832 0.63197 0.7452 0.0
C885 C 0.90053 0.61729 0.77399 0.0
C886 C 0.84498 0.69759 0.70542 0.0
C887 C 0.82439 0.85934 0.81634 0.0
H888 H 0.87788 0.98747 0.85466 0.0
H889 H 0.97439 0.15664 0.86868 0.0
H890 H 0.84592 0.04181 0.82381 0.0
H891 H 1.00724 0.10124 0.90057 0.0
H892 H 0.91768 0.66168 0.6772 0.0
H893 H 0.8372 0.60314 0.80533 0.0
H894 H 0.95632 0.62967 0.73028 0.0
H895 H 0.79818 0.63505 0.75174 0.0
Eu896 Eu 0.67128 0.65784 0.5592 0.0
Eu897 Eu 0.62632 0.55087 0.51639 0.0
C898 C 0.69557 0.59365 0.44114 0.0
C899 C 0.65897 0.77543 0.5682 0.0
C900 C 0.62662 0.7436 0.52683 0.0
C901 C 0.61141 0.83229 0.58927 0.0
C902 C 0.58683 0.7542 0.51807 0.0
C903 C 0.65134 0.82001 0.59984 0.0
C904 C 0.5787 0.79885 0.54832 0.0
C905 C 0.69429 0.75432 0.58094 0.0
O906 O 0.70434 0.55493 0.52425 0.0
O907 O 0.73288 0.63362 0.57961 0.0
C908 C 0.74004 0.59073 0.55258 0.0
O909 O 0.65623 0.64654 0.63571 0.0
O910 O 0.60179 0.47612 0.45797 0.0
O911 O 0.60521 0.48449 0.53766 0.0
O912 O 0.60238 0.57295 0.59987 0.0
C913 C 0.62083 0.61268 0.64169 0.0
O914 O 0.59107 0.65268 0.55478 0.0
O915 O 0.55917 0.57221 0.5053 0.0
O916 O 0.6578 0.55921 0.44225 0.0
O917 O 0.68582 0.73371 0.61547 0.0
O918 O 0.70618 0.72449 0.54165 0.0
O919 O 0.70729 0.6346 0.4831 0.0
C920 C 0.6408 0.42879 0.48797 0.0
C921 C 0.67923 0.44928 0.52511 0.0
C922 C 0.665 0.35398 0.45429 0.0
C923 C 0.70857 0.42118 0.52848 0.0
C924 C 0.63604 0.38272 0.44992 0.0
C925 C 0.69713 0.37073 0.49771 0.0
C926 C 0.60562 0.45509 0.49187 0.0
C927 C 0.55288 0.61592 0.53215 0.0
H928 H 0.63068 0.70838 0.50207 0.0
H929 H 0.60597 0.86712 0.613 0.0
H930 H 0.56258 0.72689 0.48649 0.0
H931 H 0.6755 0.84446 0.63271 0.0
H932 H 0.68419 0.48487 0.55514 0.0
H933 H 0.65654 0.31517 0.4295 0.0
H934 H 0.73398 0.43566 0.56146 0.0
H935 H 0.60768 0.36704 0.41996 0.0
Eu936 Eu 0.17495 0.55947 0.98888 0.0
Eu937 Eu 0.10728 0.60526 0.08364 0.0
C938 C 0.19239 0.57325 0.11176 0.0
C939 C 0.27233 0.51283 0.96969 0.0
C940 C 0.26293 0.48398 1.00158 0.0
C941 C 0.3502 0.54696 1.01038 0.0
C942 C 0.29659 0.48743 0.03814 0.0
C943 C 0.31662 0.54316 0.97345 0.0
C944 C 0.34018 0.51992 0.04371 0.0
C945 C 0.23476 0.52099 0.94255 0.0
O946 O 0.17015 0.6686 0.09635 0.0
O947 O 0.19974 0.64391 0.0202 0.0
C948 C 0.19919 0.67667 0.06477 0.0
O949 O 0.13178 0.57586 0.93435 0.0
O950 O 0.08249 0.66188 0.13853 0.0
O951 O 1.03478 0.59671 0.08329 0.0
O952 O 0.10396 0.59818 1.00552 0.0
C953 C 0.10187 0.594 0.95894 0.0
O954 O 0.11365 0.49728 0.98851 0.0
O955 O 0.08543 0.52255 0.0655 0.0
O956 O 0.15392 0.58145 0.12647 0.0
O957 O 0.19416 0.4936 0.94331 0.0
O958 O 0.23639 0.56816 0.95234 0.0
O959 O 0.2051 0.56959 0.06691 0.0
C960 C 1.01543 0.67263 0.10293 0.0
C961 C 1.02981 0.6954 0.06696 0.0
C962 C 0.94679 0.69917 0.10217 0.0
C963 C 1.00293 0.72024 0.0489 0.0
C964 C 0.97399 0.67542 0.12086 0.0
C965 C 0.96068 0.72121 0.06563 0.0
C966 C 0.04028 0.64088 0.1174 0.0
C967 C 0.08819 0.48847 0.02297 0.0
H968 H 0.22902 0.46057 1.00019 0.0
H969 H 0.38397 0.57119 1.01285 0.0
H970 H 0.28823 0.46553 0.06278 0.0
H971 H 0.3246 0.56608 0.9497 0.0
H972 H 0.06102 0.69233 0.05166 0.0
H973 H 0.91434 0.69967 0.11577 0.0
H974 H 1.01417 0.73664 0.02049 0.0
H975 H 0.9619 0.65771 0.14808 0.0
loop_
_geom_bond_atom_site_label_1
_geom_bond_atom_site_label_2
_geom_bond_distance
_geom_bond_site_symmetry_2
_ccdc_geom_bond_type
Mg0 O1 2.028 . S
Mg0 O7 1.986 . S
Mg0 O9 2.114 . S
Mg0 O10 2.251 . S
Mg0 O13 2.010 . S
O1 Mg0 2.028 . S
O1 C4 1.250 . S
O2 Mg3 2.028 . S
O2 C4 1.248 . S
Mg3 O2 2.028 . S
Mg3 O8 2.032 . S
Mg3 O10 2.079 . S
C4 O1 1.250 . S
C4 O2 1.248 . S
C5 O6 1.264 . S
C5 O13 1.249 . S
O6 C5 1.264 . S
O7 Mg0 1.986 . S
O7 C11 1.246 . S
O8 Mg3 2.032 . S
O8 C11 1.259 . S
O9 Mg0 2.114 . S
O9 C12 1.252 . S
O10 Mg0 2.251 . S
O10 Mg3 2.079 . S
O10 C12 1.273 . S
C11 O7 1.246 . S
C11 O8 1.259 . S
C12 O9 1.252 . S
C12 O10 1.273 . S
O13 Mg0 2.010 . S
O13 C5 1.249 . S
Mg14 O15 2.028 . S
Mg14 O21 1.986 . S
Mg14 O23 2.114 1_455 S
Mg14 O24 2.251 1_455 S
Mg14 O27 2.010 . S
O15 Mg14 2.028 . S
O15 C18 1.250 1_455 S
O16 Mg17 2.028 . S
O16 C18 1.248 . S
Mg17 O16 2.028 . S
Mg17 O22 2.032 . S
Mg17 O24 2.079 . S
C18 O15 1.250 1_655 S
C18 O16 1.248 . S
C19 O20 1.264 . S
C19 O27 1.249 . S
O20 C19 1.264 . S
O21 Mg14 1.986 . S
O21 C25 1.246 1_455 S
O22 Mg17 2.032 . S
O22 C25 1.259 . S
O23 Mg14 2.114 1_655 S
O23 C26 1.252 . S
O24 Mg14 2.251 1_655 S
O24 Mg17 2.079 . S
O24 C26 1.273 . S
C25 O21 1.246 1_655 S
C25 O22 1.259 . S
C26 O23 1.252 . S
C26 O24 1.273 . S
O27 Mg14 2.010 . S
O27 C19 1.249 . S
Mg28 O29 2.028 . S
Mg28 O35 1.986 . S
Mg28 O37 2.114 . S
Mg28 O38 2.251 . S
Mg28 O41 2.010 . S
O29 Mg28 2.028 . S
O29 C32 1.250 1_566 S
O30 Mg31 2.028 1_554 S
O30 C32 1.248 1_565 S
Mg31 O30 2.028 1_556 S
Mg31 O36 2.033 1_556 S
Mg31 O38 2.078 . S
C32 O29 1.250 1_544 S
C32 O30 1.248 1_545 S
C33 O34 1.264 . S
C33 O41 1.249 . S
O34 C33 1.264 . S
O35 Mg28 1.986 . S
O35 C39 1.246 1_556 S
O36 Mg31 2.033 1_554 S
O36 C39 1.259 . S
O37 Mg28 2.114 . S
O37 C40 1.252 . S
O38 Mg28 2.251 . S
O38 Mg31 2.078 . S
O38 C40 1.273 . S
C39 O35 1.246 1_554 S
C39 O36 1.259 . S
C40 O37 1.252 . S
C40 O38 1.273 . S
O41 Mg28 2.010 . S
O41 C33 1.249 . S
Mg42 O43 2.028 . S
Mg42 O49 1.986 . S
Mg42 O51 2.114 . S
Mg42 O52 2.251 . S
Mg42 O55 2.010 . S
O43 Mg42 2.028 . S
O43 C46 1.250 . S
O44 Mg45 2.028 . S
O44 C46 1.248 . S
Mg45 O44 2.028 . S
Mg45 O50 2.032 . S
Mg45 O52 2.079 . S
C46 O43 1.250 . S
C46 O44 1.248 . S
C47 O48 1.264 . S
C47 O55 1.249 . S
O48 C47 1.264 . S
O49 Mg42 1.986 . S
O49 C53 1.246 . S
O50 Mg45 2.032 . S
O50 C53 1.259 . S
O51 Mg42 2.114 . S
O51 C54 1.252 . S
O52 Mg42 2.251 . S
O52 Mg45 2.079 . S
O52 C54 1.273 . S
C53 O49 1.246 . S
C53 O50 1.259 . S
C54 O51 1.252 . S
C54 O52 1.273 . S
O55 Mg42 2.010 . S
O55 C47 1.249 . S
Mg56 O57 2.028 . S
Mg56 O63 1.986 . S
Mg56 O65 2.114 . S
Mg56 O66 2.251 . S
Mg56 O69 2.010 . S
O57 Mg56 2.028 . S
O57 C60 1.250 . S
O58 Mg59 2.028 . S
O58 C60 1.248 . S
Mg59 O58 2.028 . S
Mg59 O64 2.032 . S
Mg59 O66 2.079 . S
C60 O57 1.250 . S
C60 O58 1.248 . S
C61 O62 1.264 . S
C61 O69 1.249 . S
O62 C61 1.264 . S
O63 Mg56 1.986 . S
O63 C67 1.246 . S
O64 Mg59 2.032 . S
O64 C67 1.259 . S
O65 Mg56 2.114 . S
O65 C68 1.252 . S
O66 Mg56 2.251 . S
O66 Mg59 2.079 . S
O66 C68 1.273 . S
C67 O63 1.246 . S
C67 O64 1.259 . S
C68 O65 1.252 . S
C68 O66 1.273 . S
O69 Mg56 2.010 . S
O69 C61 1.249 . S
Mg70 O71 2.028 . S
Mg70 O77 1.986 . S
Mg70 O79 2.114 . S
Mg70 O80 2.251 . S
Mg70 O83 2.010 . S
O71 Mg70 2.028 . S
O71 C74 1.250 . S
O72 Mg73 2.028 . S
O72 C74 1.248 . S
Mg73 O72 2.028 . S
Mg73 O78 2.032 . S
Mg73 O80 2.079 . S
C74 O71 1.250 . S
C74 O72 1.248 . S
C75 O76 1.264 . S
C75 O83 1.249 . S
O76 C75 1.264 . S
O77 Mg70 1.986 . S
O77 C81 1.246 . S
O78 Mg73 2.032 . S
O78 C81 1.259 . S
O79 Mg70 2.114 . S
O79 C82 1.252 . S
O80 Mg70 2.251 . S
O80 Mg73 2.079 . S
O80 C82 1.273 . S
C81 O77 1.246 . S
C81 O78 1.259 . S
C82 O79 1.252 . S
C82 O80 1.273 . S
O83 Mg70 2.010 . S
O83 C75 1.249 . S
Mg84 O85 2.028 . S
Mg84 O91 1.986 . S
Mg84 O93 2.114 . S
Mg84 O94 2.251 . S
Mg84 O97 2.010 . S
O85 Mg84 2.028 . S
O85 C88 1.250 . S
O86 Mg87 2.028 . S
O86 C88 1.248 . S
Mg87 O86 2.028 . S
Mg87 O92 2.032 . S
Mg87 O94 2.079 . S
C88 O85 1.250 . S
C88 O86 1.248 . S
C89 O90 1.264 . S
C89 O97 1.249 . S
O90 C89 1.264 . S
O91 Mg84 1.986 . S
O91 C95 1.246 . S
O92 Mg87 2.032 . S
O92 C95 1.259 . S
O93 Mg84 2.114 . S
O93 C96 1.252 . S
O94 Mg84 2.251 . S
O94 Mg87 2.079 . S
O94 C96 1.273 . S
C95 O91 1.246 . S
C95 O92 1.259 . S
C96 O93 1.252 . S
C96 O94 1.273 . S
O97 Mg84 2.010 . S
O97 C89 1.249 . S
Mg98 O99 2.028 . S
Mg98 O105 1.986 . S
Mg98 O107 2.114 . S
Mg98 O108 2.251 1_455 S
Mg98 O111 2.010 . S
O99 Mg98 2.028 . S
O99 C102 1.250 1_556 S
O100 Mg101 2.028 1_454 S
O100 C102 1.248 . S
Mg101 O100 2.028 1_656 S
Mg101 O106 2.032 1_656 S
Mg101 O108 2.079 . S
C102 O99 1.250 1_554 S
C102 O100 1.248 . S
C103 O104 1.264 . S
C103 O111 1.249 . S
O104 C103 1.264 . S
O105 Mg98 1.986 . S
O105 C109 1.246 . S
O106 Mg101 2.032 1_454 S
O106 C109 1.259 1_554 S
O107 Mg98 2.114 . S
O107 C110 1.252 1_455 S
O108 Mg98 2.251 1_655 S
O108 Mg101 2.079 . S
O108 C110 1.273 . S
C109 O105 1.246 . S
C109 O106 1.259 1_556 S
C110 O107 1.252 1_655 S
C110 O108 1.273 . S
O111 Mg98 2.010 . S
O111 C103 1.249 . S
Mg112 O113 2.028 1_545 S
Mg112 O119 1.986 . S
Mg112 O121 2.114 . S
Mg112 O122 2.251 . S
Mg112 O125 2.010 . S
O113 Mg112 2.028 1_565 S
O113 C116 1.250 . S
O114 Mg115 2.028 1_565 S
O114 C116 1.248 . S
Mg115 O114 2.028 1_545 S
Mg115 O120 2.032 . S
Mg115 O122 2.079 . S
C116 O113 1.250 . S
C116 O114 1.248 . S
C117 O118 1.264 . S
C117 O125 1.249 . S
O118 C117 1.264 . S
O119 Mg112 1.986 . S
O119 C123 1.246 . S
O120 Mg115 2.032 . S
O120 C123 1.259 . S
O121 Mg112 2.114 . S
O121 C124 1.252 . S
O122 Mg112 2.251 . S
O122 Mg115 2.079 . S
O122 C124 1.273 . S
C123 O119 1.246 . S
C123 O120 1.259 . S
C124 O121 1.252 . S
C124 O122 1.273 . S
O125 Mg112 2.010 . S
O125 C117 1.249 . S
Mg126 O127 2.028 . S
Mg126 O133 1.986 . S
Mg126 O135 2.114 . S
Mg126 O136 2.251 . S
Mg126 O139 2.010 . S
O127 Mg126 2.028 . S
O127 C130 1.250 . S
O128 Mg129 2.028 . S
O128 C130 1.248 . S
Mg129 O128 2.028 . S
Mg129 O134 2.032 . S
Mg129 O136 2.079 . S
C130 O127 1.250 . S
C130 O128 1.248 . S
C131 O132 1.264 . S
C131 O139 1.249 . S
O132 C131 1.264 . S
O133 Mg126 1.986 . S
O133 C137 1.246 . S
O134 Mg129 2.032 . S
O134 C137 1.259 . S
O135 Mg126 2.114 . S
O135 C138 1.252 . S
O136 Mg126 2.251 . S
O136 Mg129 2.079 . S
O136 C138 1.273 . S
C137 O133 1.246 . S
C137 O134 1.259 . S
C138 O135 1.252 . S
C138 O136 1.273 . S
O139 Mg126 2.010 . S
O139 C131 1.249 . S
Mg140 O141 2.028 . S
Mg140 O147 1.986 1_545 S
Mg140 O149 2.114 . S
Mg140 O150 2.251 . S
Mg140 O153 2.010 1_545 S
O141 Mg140 2.028 . S
O141 C144 1.250 . S
O142 Mg143 2.028 . S
O142 C144 1.248 . S
Mg143 O142 2.028 . S
Mg143 O148 2.032 . S
Mg143 O150 2.079 . S
C144 O141 1.250 . S
C144 O142 1.248 . S
C145 O146 1.264 . S
C145 O153 1.249 . S
O146 C145 1.264 . S
O147 Mg140 1.986 1_565 S
O147 C151 1.246 . S
O148 Mg143 2.032 . S
O148 C151 1.259 1_545 S
O149 Mg140 2.114 . S
O149 C152 1.252 . S
O150 Mg140 2.251 . S
O150 Mg143 2.079 . S
O150 C152 1.273 . S
C151 O147 1.246 . S
C151 O148 1.259 1_565 S
C152 O149 1.252 . S
C152 O150 1.273 . S
O153 Mg140 2.010 1_565 S
O153 C145 1.249 . S
Mg154 O155 2.028 1_544 S
Mg154 O161 1.986 1_545 S
Mg154 O163 2.114 . S
Mg154 O164 2.251 . S
Mg154 O167 2.010 . S
O155 Mg154 2.028 1_566 S
O155 C158 1.250 . S
O156 Mg157 2.028 . S
O156 C158 1.248 . S
Mg157 O156 2.028 . S
Mg157 O162 2.032 1_556 S
Mg157 O164 2.079 1_566 S
C158 O155 1.250 . S
C158 O156 1.248 . S
C159 O160 1.264 . S
C159 O167 1.249 . S
O160 C159 1.264 . S
O161 Mg154 1.986 1_565 S
O161 C165 1.246 . S
O162 Mg157 2.032 1_554 S
O162 C165 1.259 . S
O163 Mg154 2.114 . S
O163 C166 1.252 . S
O164 Mg154 2.251 . S
O164 Mg157 2.079 1_544 S
O164 C166 1.273 . S
C165 O161 1.246 . S
C165 O162 1.259 . S
C166 O163 1.252 . S
C166 O164 1.273 . S
O167 Mg154 2.010 . S
O167 C159 1.249 . S
Mg168 O169 2.028 1_554 S
Mg168 O175 1.986 . S
Mg168 O177 2.114 . S
Mg168 O178 2.251 . S
Mg168 O181 2.010 . S
O169 Mg168 2.028 1_556 S
O169 C172 1.250 . S
O170 Mg171 2.028 1_556 S
O170 C172 1.248 . S
Mg171 O170 2.028 1_554 S
Mg171 O176 2.032 . S
Mg171 O178 2.079 . S
C172 O169 1.250 . S
C172 O170 1.248 . S
C173 O174 1.264 . S
C173 O181 1.249 . S
O174 C173 1.264 . S
O175 Mg168 1.986 . S
O175 C179 1.246 . S
O176 Mg171 2.032 . S
O176 C179 1.259 . S
O177 Mg168 2.114 . S
O177 C180 1.252 . S
O178 Mg168 2.251 . S
O178 Mg171 2.079 . S
O178 C180 1.273 . S
C179 O175 1.246 . S
C179 O176 1.259 . S
C180 O177 1.252 . S
C180 O178 1.273 . S
O181 Mg168 2.010 . S
O181 C173 1.249 . S
Mg182 O183 2.028 . S
Mg182 O189 1.992 . S
Mg182 O191 2.114 . S
Mg182 O192 2.251 . S
Mg182 O195 2.010 . S
O183 Mg182 2.028 . S
O183 C186 1.250 . S
O184 Mg185 2.028 . S
O184 C186 1.248 . S
Mg185 O184 2.028 . S
Mg185 O190 2.032 . S
Mg185 O192 2.079 . S
C186 O183 1.250 . S
C186 O184 1.248 . S
C187 O188 1.264 1_544 S
C187 O195 1.249 . S
O188 C187 1.264 1_566 S
O189 Mg182 1.992 . S
O189 C193 1.242 1_554 S
O190 Mg185 2.032 . S
O190 C193 1.259 1_554 S
O191 Mg182 2.114 . S
O191 C194 1.252 . S
O192 Mg182 2.251 . S
O192 Mg185 2.079 . S
O192 C194 1.273 . S
C193 O189 1.242 1_556 S
C193 O190 1.259 1_556 S
C194 O191 1.252 . S
C194 O192 1.273 . S
O195 Mg182 2.010 . S
O195 C187 1.249 . S
Mg196 O197 2.028 . S
Mg196 O203 1.986 . S
Mg196 O205 2.114 . S
Mg196 O206 2.251 . S
Mg196 O209 2.010 . S
O197 Mg196 2.028 . S
O197 C200 1.250 . S
O198 Mg199 2.028 . S
O198 C200 1.248 . S
Mg199 O198 2.028 . S
Mg199 O204 2.032 . S
Mg199 O206 2.079 . S
C200 O197 1.250 . S
C200 O198 1.248 . S
C201 O202 1.264 . S
C201 O209 1.249 . S
O202 C201 1.264 . S
O203 Mg196 1.986 . S
O203 C207 1.246 . S
O204 Mg199 2.032 . S
O204 C207 1.259 . S
O205 Mg196 2.114 . S
O205 C208 1.252 . S
O206 Mg196 2.251 . S
O206 Mg199 2.079 . S
O206 C208 1.273 . S
C207 O203 1.246 . S
C207 O204 1.259 . S
C208 O205 1.252 . S
C208 O206 1.273 . S
O209 Mg196 2.010 . S
O209 C201 1.249 . S
Mg210 O211 2.028 . S
Mg210 O217 1.986 . S
Mg210 O219 2.114 . S
Mg210 O220 2.251 . S
Mg210 O223 2.010 . S
O211 Mg210 2.028 . S
O211 C214 1.250 . S
O212 Mg213 2.028 . S
O212 C214 1.248 . S
Mg213 O212 2.028 . S
Mg213 O218 2.032 . S
Mg213 O220 2.079 . S
C214 O211 1.250 . S
C214 O212 1.248 . S
C215 O216 1.264 1_565 S
C215 O223 1.249 . S
O216 C215 1.264 1_545 S
O217 Mg210 1.986 . S
O217 C221 1.246 . S
O218 Mg213 2.032 . S
O218 C221 1.259 . S
O219 Mg210 2.114 . S
O219 C222 1.252 . S
O220 Mg210 2.251 . S
O220 Mg213 2.079 . S
O220 C222 1.273 . S
C221 O217 1.246 . S
C221 O218 1.259 . S
C222 O219 1.252 . S
C222 O220 1.273 . S
O223 Mg210 2.010 . S
O223 C215 1.249 . S
Mg224 O225 2.028 1_455 S
Mg224 O231 1.986 1_455 S
Mg224 O233 2.114 . S
Mg224 O234 2.251 . S
Mg224 O237 2.010 . S
O225 Mg224 2.028 1_655 S
O225 C228 1.250 . S
O226 Mg227 2.028 . S
O226 C228 1.248 . S
Mg227 O226 2.028 . S
Mg227 O232 2.032 . S
Mg227 O234 2.079 1_655 S
C228 O225 1.250 . S
C228 O226 1.248 . S
C229 O230 1.264 . S
C229 O237 1.249 . S
O230 C229 1.264 . S
O231 Mg224 1.986 1_655 S
O231 C235 1.246 . S
O232 Mg227 2.032 . S
O232 C235 1.259 . S
O233 Mg224 2.114 . S
O233 C236 1.252 . S
O234 Mg224 2.251 . S
O234 Mg227 2.079 1_455 S
O234 C236 1.273 . S
C235 O231 1.246 . S
C235 O232 1.259 . S
C236 O233 1.252 . S
C236 O234 1.273 . S
O237 Mg224 2.010 . S
O237 C229 1.249 . S
Mg238 O239 2.028 . S
Mg238 O245 1.986 . S
Mg238 O247 2.114 . S
Mg238 O248 2.251 . S
Mg238 O251 2.010 . S
O239 Mg238 2.028 . S
O239 C242 1.250 . S
O240 Mg241 2.028 . S
O240 C242 1.248 . S
Mg241 O240 2.028 . S
Mg241 O246 2.032 . S
Mg241 O248 2.079 . S
C242 O239 1.250 . S
C242 O240 1.248 . S
C243 O244 1.264 . S
C243 O251 1.249 . S
O244 C243 1.264 . S
O245 Mg238 1.986 . S
O245 C249 1.246 . S
O246 Mg241 2.032 . S
O246 C249 1.259 . S
O247 Mg238 2.114 . S
O247 C250 1.252 . S
O248 Mg238 2.251 . S
O248 Mg241 2.079 . S
O248 C250 1.273 . S
C249 O245 1.246 . S
C249 O246 1.259 . S
C250 O247 1.252 . S
C250 O248 1.273 . S
O251 Mg238 2.010 . S
O251 C243 1.249 . S
Mg252 O253 2.028 . S
Mg252 O259 1.986 . S
Mg252 O261 2.114 . S
Mg252 O262 2.251 . S
Mg252 O265 2.010 . S
O253 Mg252 2.028 . S
O253 C256 1.250 . S
O254 Mg255 2.028 . S
O254 C256 1.248 . S
Mg255 O254 2.028 . S
Mg255 O260 2.032 . S
Mg255 O262 2.079 . S
C256 O253 1.250 . S
C256 O254 1.248 . S
C257 O258 1.264 . S
C257 O265 1.249 . S
O258 C257 1.264 . S
O259 Mg252 1.986 . S
O259 C263 1.246 . S
O260 Mg255 2.032 . S
O260 C263 1.259 . S
O261 Mg252 2.114 . S
O261 C264 1.252 . S
O262 Mg252 2.251 . S
O262 Mg255 2.079 . S
O262 C264 1.273 . S
C263 O259 1.246 . S
C263 O260 1.259 . S
C264 O261 1.252 . S
C264 O262 1.273 . S
O265 Mg252 2.010 . S
O265 C257 1.249 . S
Mg266 O267 2.028 . S
Mg266 O273 1.986 . S
Mg266 O275 2.114 . S
Mg266 O276 2.251 . S
Mg266 O279 2.010 . S
O267 Mg266 2.028 . S
O267 C270 1.250 . S
O268 Mg269 2.028 . S
O268 C270 1.248 . S
Mg269 O268 2.028 . S
Mg269 O274 2.032 . S
Mg269 O276 2.079 . S
C270 O267 1.250 . S
C270 O268 1.248 . S
C271 O272 1.264 . S
C271 O279 1.249 . S
O272 C271 1.264 . S
O273 Mg266 1.986 . S
O273 C277 1.246 . S
O274 Mg269 2.032 . S
O274 C277 1.259 . S
O275 Mg266 2.114 . S
O275 C278 1.252 . S
O276 Mg266 2.251 . S
O276 Mg269 2.079 . S
O276 C278 1.273 . S
C277 O273 1.246 . S
C277 O274 1.259 . S
C278 O275 1.252 . S
C278 O276 1.273 . S
O279 Mg266 2.010 . S
O279 C271 1.249 . S
Mg280 O281 2.028 1_556 S
Mg280 O287 1.986 . S
Mg280 O289 2.114 1_556 S
Mg280 O290 2.251 1_556 S
Mg280 O293 2.010 . S
O281 Mg280 2.028 1_554 S
O281 C284 1.250 . S
O282 Mg283 2.028 . S
O282 C284 1.248 . S
Mg283 O282 2.028 . S
Mg283 O288 2.032 1_554 S
Mg283 O290 2.079 . S
C284 O281 1.250 . S
C284 O282 1.248 . S
C285 O286 1.264 . S
C285 O293 1.249 . S
O286 C285 1.264 . S
O287 Mg280 1.986 . S
O287 C291 1.246 . S
O288 Mg283 2.032 1_556 S
O288 C291 1.259 . S
O289 Mg280 2.114 1_554 S
O289 C292 1.252 . S
O290 Mg280 2.251 1_554 S
O290 Mg283 2.079 . S
O290 C292 1.273 . S
C291 O287 1.246 . S
C291 O288 1.259 . S
C292 O289 1.252 . S
C292 O290 1.273 . S
O293 Mg280 2.010 . S
O293 C285 1.249 . S
Mg294 O295 2.028 . S
Mg294 O301 1.986 . S
Mg294 O303 2.114 1_655 S
Mg294 O304 2.251 . S
Mg294 O307 2.010 1_655 S
O295 Mg294 2.028 . S
O295 C298 1.250 . S
O296 Mg297 2.028 . S
O296 C298 1.248 . S
Mg297 O296 2.028 . S
Mg297 O302 2.032 . S
Mg297 O304 2.079 . S
C298 O295 1.250 . S
C298 O296 1.248 . S
C299 O300 1.264 . S
C299 O307 1.249 . S
O300 C299 1.264 . S
O301 Mg294 1.986 . S
O301 C305 1.246 . S
O302 Mg297 2.032 . S
O302 C305 1.259 . S
O303 Mg294 2.114 1_455 S
O303 C306 1.252 . S
O304 Mg294 2.251 . S
O304 Mg297 2.079 . S
O304 C306 1.273 1_655 S
C305 O301 1.246 . S
C305 O302 1.259 . S
C306 O303 1.252 . S
C306 O304 1.273 1_455 S
O307 Mg294 2.010 1_455 S
O307 C299 1.249 . S
Mg308 O309 2.028 . S
Mg308 O315 1.986 . S
Mg308 O317 2.114 . S
Mg308 O318 2.251 . S
Mg308 O321 2.010 . S
O309 Mg308 2.028 . S
O309 C312 1.250 . S
O310 Mg311 2.028 . S
O310 C312 1.248 . S
Mg311 O310 2.028 . S
Mg311 O316 2.032 . S
Mg311 O318 2.079 . S
C312 O309 1.250 . S
C312 O310 1.248 . S
C313 O314 1.264 . S
C313 O321 1.249 . S
O314 C313 1.264 . S
O315 Mg308 1.986 . S
O315 C319 1.246 . S
O316 Mg311 2.032 . S
O316 C319 1.259 . S
O317 Mg308 2.114 . S
O317 C320 1.252 . S
O318 Mg308 2.251 . S
O318 Mg311 2.079 . S
O318 C320 1.273 . S
C319 O315 1.246 . S
C319 O316 1.259 . S
C320 O317 1.252 . S
C320 O318 1.273 . S
O321 Mg308 2.010 . S
O321 C313 1.249 . S
Mg322 O323 2.028 . S
Mg322 O329 1.986 . S
Mg322 O331 2.114 . S
Mg322 O332 2.251 . S
Mg322 O335 2.010 . S
O323 Mg322 2.028 . S
O323 C326 1.250 . S
O324 Mg325 2.028 . S
O324 C326 1.248 . S
Mg325 O324 2.028 . S
Mg325 O330 2.032 . S
Mg325 O332 2.079 . S
C326 O323 1.250 . S
C326 O324 1.248 . S
C327 O328 1.264 . S
C327 O335 1.249 . S
O328 C327 1.264 . S
O329 Mg322 1.986 . S
O329 C333 1.246 . S
O330 Mg325 2.032 . S
O330 C333 1.259 . S
O331 Mg322 2.114 . S
O331 C334 1.252 . S
O332 Mg322 2.251 . S
O332 Mg325 2.079 . S
O332 C334 1.273 . S
C333 O329 1.246 . S
C333 O330 1.259 . S
C334 O331 1.252 . S
C334 O332 1.273 . S
O335 Mg322 2.010 . S
O335 C327 1.249 . S
Eu336 C345 2.828 . S
Eu336 O347 2.392 . S
Eu336 O349 2.418 . S
Eu336 O354 2.373 . S
Eu336 O357 2.488 . S
Eu336 O358 2.471 1_554 S
Eu336 O359 2.349 1_554 S
Eu337 O346 2.373 1_566 S
Eu337 O350 2.488 . S
Eu337 O351 2.471 1_556 S
Eu337 O352 2.349 1_566 S
Eu337 O355 2.392 1_565 S
Eu337 O356 2.418 . S
Eu337 C366 2.828 1_556 S
C338 O356 1.244 1_545 S
C338 O359 1.265 . S
C339 C340 1.379 1_554 S
C339 C343 1.373 . S
C339 C345 1.505 . S
C340 C339 1.379 1_556 S
C340 C342 1.369 . S
C340 H368 0.930 . S
C341 C343 1.383 . S
C341 C344 1.382 . S
C341 H369 0.930 . S
C342 C340 1.369 . S
C342 C344 1.392 1_556 S
C342 H370 0.930 . S
C343 C339 1.373 . S
C343 C341 1.383 . S
C343 H371 0.931 . S
C344 C341 1.382 . S
C344 C342 1.392 1_554 S
C345 Eu336 2.828 . S
C345 C339 1.505 . S
C345 O357 1.249 . S
C345 O358 1.244 1_554 S
O346 Eu337 2.373 1_544 S
O346 C348 1.258 . S
O347 Eu336 2.392 . S
O347 C348 1.242 . S
C348 O346 1.258 . S
C348 O347 1.242 . S
O349 Eu336 2.418 . S
O349 C353 1.244 . S
O350 Eu337 2.488 . S
O350 C366 1.249 1_556 S
O351 Eu337 2.471 1_554 S
O351 C366 1.244 . S
O352 Eu337 2.349 1_544 S
O352 C353 1.265 . S
C353 O349 1.244 . S
C353 O352 1.265 . S
O354 Eu336 2.373 . S
O354 C367 1.258 1_554 S
O355 Eu337 2.392 1_545 S
O355 C367 1.242 . S
O356 Eu337 2.418 . S
O356 C338 1.244 1_565 S
O357 Eu336 2.488 . S
O357 C345 1.249 . S
O358 Eu336 2.471 1_556 S
O358 C345 1.244 1_556 S
O359 Eu336 2.349 1_556 S
O359 C338 1.265 . S
C360 C361 1.379 . S
C360 C364 1.373 1_554 S
C360 C366 1.505 . S
C361 C360 1.379 . S
C361 C363 1.369 . S
C361 H372 0.930 . S
C362 C364 1.383 . S
C362 C365 1.382 1_556 S
C362 H373 0.930 . S
C363 C361 1.369 . S
C363 C365 1.392 . S
C363 H374 0.930 . S
C364 C360 1.373 1_556 S
C364 C362 1.383 . S
C364 H375 0.931 . S
C365 C362 1.382 1_554 S
C365 C363 1.392 . S
C366 Eu337 2.828 1_554 S
C366 O350 1.249 1_554 S
C366 O351 1.244 . S
C366 C360 1.505 . S
C367 O354 1.258 1_556 S
C367 O355 1.242 . S
H368 C340 0.930 . S
H369 C341 0.930 . S
H370 C342 0.930 . S
H371 C343 0.931 . S
H372 C361 0.930 . S
H373 C362 0.930 . S
H374 C363 0.930 . S
H375 C364 0.931 . S
Eu376 C385 2.828 . S
Eu376 O387 2.392 . S
Eu376 O389 2.418 . S
Eu376 O394 2.373 . S
Eu376 O397 2.488 . S
Eu376 O398 2.471 . S
Eu376 O399 2.349 . S
Eu377 O386 2.373 . S
Eu377 O390 2.488 . S
Eu377 O391 2.471 . S
Eu377 O392 2.349 . S
Eu377 O395 2.392 . S
Eu377 O396 2.418 . S
Eu377 C406 2.828 . S
C378 O396 1.244 . S
C378 O399 1.265 . S
C379 C380 1.379 . S
C379 C383 1.373 . S
C379 C385 1.505 . S
C380 C379 1.379 . S
C380 C382 1.369 . S
C380 H408 0.930 . S
C381 C383 1.383 . S
C381 C384 1.382 . S
C381 H409 0.930 . S
C382 C380 1.369 . S
C382 C384 1.392 . S
C382 H410 0.930 . S
C383 C379 1.373 . S
C383 C381 1.383 . S
C383 H411 0.931 . S
C384 C381 1.382 . S
C384 C382 1.392 . S
C385 Eu376 2.828 . S
C385 C379 1.505 . S
C385 O397 1.249 . S
C385 O398 1.244 . S
O386 Eu377 2.373 . S
O386 C388 1.258 . S
O387 Eu376 2.392 . S
O387 C388 1.242 . S
C388 O386 1.258 . S
C388 O387 1.242 . S
O389 Eu376 2.418 . S
O389 C393 1.244 . S
O390 Eu377 2.488 . S
O390 C406 1.249 . S
O391 Eu377 2.471 . S
O391 C406 1.244 . S
O392 Eu377 2.349 . S
O392 C393 1.265 . S
C393 O389 1.244 . S
C393 O392 1.265 . S
O394 Eu376 2.373 . S
O394 C407 1.258 . S
O395 Eu377 2.392 . S
O395 C407 1.242 . S
O396 Eu377 2.418 . S
O396 C378 1.244 . S
O397 Eu376 2.488 . S
O397 C385 1.249 . S
O398 Eu376 2.471 . S
O398 C385 1.244 . S
O399 Eu376 2.349 . S
O399 C378 1.265 . S
C400 C401 1.379 . S
C400 C404 1.373 . S
C400 C406 1.505 . S
C401 C400 1.379 . S
C401 C403 1.369 . S
C401 H412 0.930 . S
C402 C404 1.383 . S
C402 C405 1.382 . S
C402 H413 0.930 . S
C403 C401 1.369 . S
C403 C405 1.392 . S
C403 H414 0.930 . S
C404 C400 1.373 . S
C404 C402 1.383 . S
C404 H415 0.931 . S
C405 C402 1.382 . S
C405 C403 1.392 . S
C406 Eu377 2.828 . S
C406 O390 1.249 . S
C406 O391 1.244 . S
C406 C400 1.505 . S
C407 O394 1.258 . S
C407 O395 1.242 . S
H408 C380 0.930 . S
H409 C381 0.930 . S
H410 C382 0.930 . S
H411 C383 0.931 . S
H412 C401 0.930 . S
H413 C402 0.930 . S
H414 C403 0.930 . S
H415 C404 0.931 . S
Eu416 C425 2.828 . S
Eu416 O427 2.392 . S
Eu416 O429 2.418 . S
Eu416 O434 2.373 1_545 S
Eu416 O437 2.488 . S
Eu416 O438 2.471 . S
Eu416 O439 2.349 . S
Eu417 O426 2.373 . S
Eu417 O430 2.488 . S
Eu417 O431 2.471 . S
Eu417 O432 2.349 . S
Eu417 O435 2.392 1_545 S
Eu417 O436 2.418 . S
Eu417 C446 2.828 . S
C418 O436 1.244 . S
C418 O439 1.265 . S
C419 C420 1.379 . S
C419 C423 1.373 . S
C419 C425 1.505 1_565 S
C420 C419 1.379 . S
C420 C422 1.369 . S
C420 H448 0.930 . S
C421 C423 1.383 . S
C421 C424 1.382 . S
C421 H449 0.930 . S
C422 C420 1.369 . S
C422 C424 1.392 . S
C422 H450 0.930 . S
C423 C419 1.373 . S
C423 C421 1.383 . S
C423 H451 0.931 . S
C424 C421 1.382 . S
C424 C422 1.392 . S
C425 Eu416 2.828 . S
C425 C419 1.505 1_545 S
C425 O437 1.249 . S
C425 O438 1.244 . S
O426 Eu417 2.373 . S
O426 C428 1.258 . S
O427 Eu416 2.392 . S
O427 C428 1.242 . S
C428 O426 1.258 . S
C428 O427 1.242 . S
O429 Eu416 2.418 . S
O429 C433 1.244 . S
O430 Eu417 2.488 . S
O430 C446 1.249 . S
O431 Eu417 2.471 . S
O431 C446 1.244 . S
O432 Eu417 2.349 . S
O432 C433 1.265 . S
C433 O429 1.244 . S
C433 O432 1.265 . S
O434 Eu416 2.373 1_565 S
O434 C447 1.258 . S
O435 Eu417 2.392 1_565 S
O435 C447 1.242 . S
O436 Eu417 2.418 . S
O436 C418 1.244 . S
O437 Eu416 2.488 . S
O437 C425 1.249 . S
O438 Eu416 2.471 . S
O438 C425 1.244 . S
O439 Eu416 2.349 . S
O439 C418 1.265 . S
C440 C441 1.379 . S
C440 C444 1.373 . S
C440 C446 1.505 . S
C441 C440 1.379 . S
C441 C443 1.369 . S
C441 H452 0.930 . S
C442 C444 1.383 . S
C442 C445 1.382 . S
C442 H453 0.930 . S
C443 C441 1.369 . S
C443 C445 1.392 . S
C443 H454 0.930 . S
C444 C440 1.373 . S
C444 C442 1.383 . S
C444 H455 0.931 . S
C445 C442 1.382 . S
C445 C443 1.392 . S
C446 Eu417 2.828 . S
C446 O430 1.249 . S
C446 O431 1.244 . S
C446 C440 1.505 . S
C447 O434 1.258 . S
C447 O435 1.242 . S
H448 C420 0.930 . S
H449 C421 0.930 . S
H450 C422 0.930 . S
H451 C423 0.931 . S
H452 C441 0.930 . S
H453 C442 0.930 . S
H454 C443 0.930 . S
H455 C444 0.931 . S
Eu456 C465 2.828 . S
Eu456 O467 2.392 . S
Eu456 O469 2.418 . S
Eu456 O474 2.373 . S
Eu456 O477 2.488 . S
Eu456 O478 2.471 . S
Eu456 O479 2.349 . S
Eu457 O466 2.373 . S
Eu457 O470 2.488 . S
Eu457 O471 2.471 . S
Eu457 O472 2.349 . S
Eu457 O475 2.392 . S
Eu457 O476 2.418 . S
Eu457 C486 2.828 . S
C458 O476 1.244 . S
C458 O479 1.265 . S
C459 C460 1.379 . S
C459 C463 1.373 . S
C459 C465 1.505 . S
C460 C459 1.379 . S
C460 C462 1.369 . S
C460 H488 0.930 . S
C461 C463 1.383 . S
C461 C464 1.382 . S
C461 H489 0.930 . S
C462 C460 1.369 . S
C462 C464 1.392 . S
C462 H490 0.930 . S
C463 C459 1.373 . S
C463 C461 1.383 . S
C463 H491 0.931 . S
C464 C461 1.382 . S
C464 C462 1.392 . S
C465 Eu456 2.828 . S
C465 C459 1.505 . S
C465 O477 1.249 . S
C465 O478 1.244 . S
O466 Eu457 2.373 . S
O466 C468 1.258 . S
O467 Eu456 2.392 . S
O467 C468 1.242 . S
C468 O466 1.258 . S
C468 O467 1.242 . S
O469 Eu456 2.418 . S
O469 C473 1.244 . S
O470 Eu457 2.488 . S
O470 C486 1.249 . S
O471 Eu457 2.471 . S
O471 C486 1.244 . S
O472 Eu457 2.349 . S
O472 C473 1.265 . S
C473 O469 1.244 . S
C473 O472 1.265 . S
O474 Eu456 2.373 . S
O474 C487 1.258 . S
O475 Eu457 2.392 . S
O475 C487 1.242 . S
O476 Eu457 2.418 . S
O476 C458 1.244 . S
O477 Eu456 2.488 . S
O477 C465 1.249 . S
O478 Eu456 2.471 . S
O478 C465 1.244 . S
O479 Eu456 2.349 . S
O479 C458 1.265 . S
C480 C481 1.379 . S
C480 C484 1.373 . S
C480 C486 1.505 . S
C481 C480 1.379 . S
C481 C483 1.369 . S
C481 H492 0.930 . S
C482 C484 1.383 . S
C482 C485 1.382 . S
C482 H493 0.930 . S
C483 C481 1.369 . S
C483 C485 1.392 . S
C483 H494 0.930 . S
C484 C480 1.373 . S
C484 C482 1.383 . S
C484 H495 0.931 . S
C485 C482 1.382 . S
C485 C483 1.392 . S
C486 Eu457 2.828 . S
C486 O470 1.249 . S
C486 O471 1.244 . S
C486 C480 1.505 . S
C487 O474 1.258 . S
C487 O475 1.242 . S
H488 C460 0.930 . S
H489 C461 0.930 . S
H490 C462 0.930 . S
H491 C463 0.931 . S
H492 C481 0.930 . S
H493 C482 0.930 . S
H494 C483 0.930 . S
H495 C484 0.931 . S
Eu496 C505 2.828 . S
Eu496 O507 2.392 . S
Eu496 O509 2.418 . S
Eu496 O514 2.373 . S
Eu496 O517 2.488 . S
Eu496 O518 2.471 . S
Eu496 O519 2.349 . S
Eu497 O506 2.373 1_565 S
Eu497 O510 2.488 . S
Eu497 O511 2.471 . S
Eu497 O512 2.349 1_565 S
Eu497 O515 2.392 1_565 S
Eu497 O516 2.418 1_565 S
Eu497 C526 2.828 . S
C498 O516 1.244 . S
C498 O519 1.265 . S
C499 C500 1.379 . S
C499 C503 1.373 . S
C499 C505 1.505 . S
C500 C499 1.379 . S
C500 C502 1.369 . S
C500 H528 0.930 . S
C501 C503 1.383 . S
C501 C504 1.382 . S
C501 H529 0.930 . S
C502 C500 1.369 . S
C502 C504 1.392 . S
C502 H530 0.930 . S
C503 C499 1.373 . S
C503 C501 1.383 . S
C503 H531 0.931 . S
C504 C501 1.382 . S
C504 C502 1.392 . S
C505 Eu496 2.828 . S
C505 C499 1.505 . S
C505 O517 1.249 . S
C505 O518 1.244 . S
O506 Eu497 2.373 1_545 S
O506 C508 1.258 . S
O507 Eu496 2.392 . S
O507 C508 1.242 . S
C508 O506 1.258 . S
C508 O507 1.242 . S
O509 Eu496 2.418 . S
O509 C513 1.244 . S
O510 Eu497 2.488 . S
O510 C526 1.249 . S
O511 Eu497 2.471 . S
O511 C526 1.244 . S
O512 Eu497 2.349 1_545 S
O512 C513 1.265 . S
C513 O509 1.244 . S
C513 O512 1.265 . S
O514 Eu496 2.373 . S
O514 C527 1.258 . S
O515 Eu497 2.392 1_545 S
O515 C527 1.242 . S
O516 Eu497 2.418 1_545 S
O516 C498 1.244 . S
O517 Eu496 2.488 . S
O517 C505 1.249 . S
O518 Eu496 2.471 . S
O518 C505 1.244 . S
O519 Eu496 2.349 . S
O519 C498 1.265 . S
C520 C521 1.379 . S
C520 C524 1.373 . S
C520 C526 1.505 . S
C521 C520 1.379 . S
C521 C523 1.369 . S
C521 H532 0.930 . S
C522 C524 1.383 . S
C522 C525 1.382 . S
C522 H533 0.930 . S
C523 C521 1.369 . S
C523 C525 1.392 . S
C523 H534 0.930 . S
C524 C520 1.373 . S
C524 C522 1.383 . S
C524 H535 0.931 . S
C525 C522 1.382 . S
C525 C523 1.392 . S
C526 Eu497 2.828 . S
C526 O510 1.249 . S
C526 O511 1.244 . S
C526 C520 1.505 . S
C527 O514 1.258 . S
C527 O515 1.242 . S
H528 C500 0.930 . S
H529 C501 0.930 . S
H530 C502 0.930 . S
H531 C503 0.931 . S
H532 C521 0.930 . S
H533 C522 0.930 . S
H534 C523 0.930 . S
H535 C524 0.931 . S
Eu536 C545 2.828 . S
Eu536 O547 2.392 . S
Eu536 O549 2.418 . S
Eu536 O554 2.373 . S
Eu536 O557 2.488 . S
Eu536 O558 2.471 . S
Eu536 O559 2.349 . S
Eu537 O546 2.373 . S
Eu537 O550 2.488 . S
Eu537 O551 2.471 . S
Eu537 O552 2.349 . S
Eu537 O555 2.392 . S
Eu537 O556 2.418 . S
Eu537 C566 2.828 . S
C538 O556 1.244 . S
C538 O559 1.265 . S
C539 C540 1.379 . S
C539 C543 1.373 . S
C539 C545 1.505 . S
C540 C539 1.379 . S
C540 C542 1.369 . S
C540 H568 0.930 . S
C541 C543 1.383 . S
C541 C544 1.382 . S
C541 H569 0.930 . S
C542 C540 1.369 . S
C542 C544 1.392 . S
C542 H570 0.930 . S
C543 C539 1.373 . S
C543 C541 1.383 . S
C543 H571 0.931 . S
C544 C541 1.382 . S
C544 C542 1.392 . S
C545 Eu536 2.828 . S
C545 C539 1.505 . S
C545 O557 1.249 . S
C545 O558 1.244 . S
O546 Eu537 2.373 . S
O546 C548 1.258 . S
O547 Eu536 2.392 . S
O547 C548 1.242 . S
C548 O546 1.258 . S
C548 O547 1.242 . S
O549 Eu536 2.418 . S
O549 C553 1.244 . S
O550 Eu537 2.488 . S
O550 C566 1.249 . S
O551 Eu537 2.471 . S
O551 C566 1.244 . S
O552 Eu537 2.349 . S
O552 C553 1.265 . S
C553 O549 1.244 . S
C553 O552 1.265 . S
O554 Eu536 2.373 . S
O554 C567 1.258 . S
O555 Eu537 2.392 . S
O555 C567 1.242 . S
O556 Eu537 2.418 . S
O556 C538 1.244 . S
O557 Eu536 2.488 . S
O557 C545 1.249 . S
O558 Eu536 2.471 . S
O558 C545 1.244 . S
O559 Eu536 2.349 . S
O559 C538 1.265 . S
C560 C561 1.379 . S
C560 C564 1.373 . S
C560 C566 1.505 . S
C561 C560 1.379 . S
C561 C563 1.369 . S
C561 H572 0.930 . S
C562 C564 1.383 . S
C562 C565 1.382 . S
C562 H573 0.930 . S
C563 C561 1.369 . S
C563 C565 1.392 . S
C563 H574 0.930 . S
C564 C560 1.373 . S
C564 C562 1.383 . S
C564 H575 0.931 . S
C565 C562 1.382 . S
C565 C563 1.392 . S
C566 Eu537 2.828 . S
C566 O550 1.249 . S
C566 O551 1.244 . S
C566 C560 1.505 . S
C567 O554 1.258 . S
C567 O555 1.242 . S
H568 C540 0.930 . S
H569 C541 0.930 . S
H570 C542 0.930 . S
H571 C543 0.931 . S
H572 C561 0.930 . S
H573 C562 0.930 . S
H574 C563 0.930 . S
H575 C564 0.931 . S
Eu576 C585 2.828 . S
Eu576 O587 2.392 . S
Eu576 O589 2.418 1_545 S
Eu576 O594 2.373 1_545 S
Eu576 O597 2.488 1_545 S
Eu576 O598 2.471 . S
Eu576 O599 2.349 . S
Eu577 O586 2.373 1_556 S
Eu577 O590 2.488 . S
Eu577 O591 2.471 . S
Eu577 O592 2.349 . S
Eu577 O595 2.392 . S
Eu577 O596 2.418 1_556 S
Eu577 C606 2.828 . S
C578 O596 1.244 . S
C578 O599 1.265 . S
C579 C580 1.372 1_565 S
C579 C583 1.384 . S
C579 C585 1.501 1_565 S
C580 C579 1.372 1_545 S
C580 C582 1.369 . S
C580 H608 0.930 . S
C581 C583 1.383 . S
C581 C584 1.382 . S
C581 H609 0.930 . S
C582 C580 1.369 . S
C582 C584 1.392 1_545 S
C582 H610 0.930 . S
C583 C579 1.384 . S
C583 C581 1.383 . S
C583 H611 0.931 . S
C584 C581 1.382 . S
C584 C582 1.392 1_565 S
C585 Eu576 2.828 . S
C585 C579 1.501 1_545 S
C585 O597 1.249 1_545 S
C585 O598 1.244 . S
O586 Eu577 2.373 1_554 S
O586 C588 1.258 . S
O587 Eu576 2.392 . S
O587 C588 1.242 . S
C588 O586 1.258 . S
C588 O587 1.242 . S
O589 Eu576 2.418 1_565 S
O589 C593 1.244 1_554 S
O590 Eu577 2.488 . S
O590 C606 1.249 . S
O591 Eu577 2.471 . S
O591 C606 1.244 . S
O592 Eu577 2.349 . S
O592 C593 1.265 1_545 S
C593 O589 1.244 1_556 S
C593 O592 1.265 1_565 S
O594 Eu576 2.373 1_565 S
O594 C607 1.258 1_554 S
O595 Eu577 2.392 . S
O595 C607 1.242 1_545 S
O596 Eu577 2.418 1_554 S
O596 C578 1.244 . S
O597 Eu576 2.488 1_565 S
O597 C585 1.249 1_565 S
O598 Eu576 2.471 . S
O598 C585 1.244 . S
O599 Eu576 2.349 . S
O599 C578 1.265 . S
C600 C601 1.379 . S
C600 C604 1.373 . S
C600 C606 1.505 . S
C601 C600 1.379 . S
C601 C603 1.369 . S
C601 H612 0.930 . S
C602 C604 1.383 . S
C602 C605 1.382 . S
C602 H613 0.930 . S
C603 C601 1.369 . S
C603 C605 1.392 . S
C603 H614 0.930 . S
C604 C600 1.373 . S
C604 C602 1.383 . S
C604 H615 0.931 . S
C605 C602 1.382 . S
C605 C603 1.392 . S
C606 Eu577 2.828 . S
C606 O590 1.249 . S
C606 O591 1.244 . S
C606 C600 1.505 . S
C607 O594 1.258 1_556 S
C607 O595 1.242 1_565 S
H608 C580 0.930 . S
H609 C581 0.930 . S
H610 C582 0.930 . S
H611 C583 0.931 . S
H612 C601 0.930 . S
H613 C602 0.930 . S
H614 C603 0.930 . S
H615 C604 0.931 . S
Eu616 C625 2.828 . S
Eu616 O627 2.392 . S
Eu616 O629 2.418 . S
Eu616 O634 2.373 . S
Eu616 O637 2.488 . S
Eu616 O638 2.471 . S
Eu616 O639 2.349 . S
Eu617 O626 2.373 . S
Eu617 O630 2.488 . S
Eu617 O631 2.471 . S
Eu617 O632 2.349 . S
Eu617 O635 2.392 . S
Eu617 O636 2.418 . S
Eu617 C646 2.828 . S
C618 O636 1.244 . S
C618 O639 1.265 . S
C619 C620 1.379 . S
C619 C623 1.373 . S
C619 C625 1.505 . S
C620 C619 1.379 . S
C620 C622 1.369 . S
C620 H648 0.930 . S
C621 C623 1.383 . S
C621 C624 1.382 . S
C621 H649 0.930 . S
C622 C620 1.369 . S
C622 C624 1.392 . S
C622 H650 0.930 . S
C623 C619 1.373 . S
C623 C621 1.383 . S
C623 H651 0.931 . S
C624 C621 1.382 . S
C624 C622 1.392 . S
C625 Eu616 2.828 . S
C625 C619 1.505 . S
C625 O637 1.249 . S
C625 O638 1.244 . S
O626 Eu617 2.373 . S
O626 C628 1.258 . S
O627 Eu616 2.392 . S
O627 C628 1.242 . S
C628 O626 1.258 . S
C628 O627 1.242 . S
O629 Eu616 2.418 . S
O629 C633 1.244 . S
O630 Eu617 2.488 . S
O630 C646 1.249 . S
O631 Eu617 2.471 . S
O631 C646 1.244 . S
O632 Eu617 2.349 . S
O632 C633 1.265 . S
C633 O629 1.244 . S
C633 O632 1.265 . S
O634 Eu616 2.373 . S
O634 C647 1.258 . S
O635 Eu617 2.392 . S
O635 C647 1.242 . S
O636 Eu617 2.418 . S
O636 C618 1.244 . S
O637 Eu616 2.488 . S
O637 C625 1.249 . S
O638 Eu616 2.471 . S
O638 C625 1.244 . S
O639 Eu616 2.349 . S
O639 C618 1.265 . S
C640 C641 1.379 . S
C640 C644 1.373 . S
C640 C646 1.505 . S
C641 C640 1.379 . S
C641 C643 1.369 . S
C641 H652 0.930 . S
C642 C644 1.383 . S
C642 C645 1.382 . S
C642 H653 0.930 . S
C643 C641 1.369 . S
C643 C645 1.392 . S
C643 H654 0.930 . S
C644 C640 1.373 . S
C644 C642 1.383 . S
C644 H655 0.931 . S
C645 C642 1.382 . S
C645 C643 1.392 . S
C646 Eu617 2.828 . S
C646 O630 1.249 . S
C646 O631 1.244 . S
C646 C640 1.505 . S
C647 O634 1.258 . S
C647 O635 1.242 . S
H648 C620 0.930 . S
H649 C621 0.930 . S
H650 C622 0.930 . S
H651 C623 0.931 . S
H652 C641 0.930 . S
H653 C642 0.930 . S
H654 C643 0.930 . S
H655 C644 0.931 . S
Eu656 C665 2.828 . S
Eu656 O667 2.392 . S
Eu656 O669 2.418 . S
Eu656 O674 2.373 1_554 S
Eu656 O677 2.488 . S
Eu656 O678 2.471 . S
Eu656 O679 2.349 . S
Eu657 O666 2.373 1_556 S
Eu657 O670 2.488 . S
Eu657 O671 2.471 1_556 S
Eu657 O672 2.349 1_556 S
Eu657 O675 2.392 . S
Eu657 O676 2.418 . S
Eu657 C686 2.828 1_556 S
C658 O676 1.244 1_554 S
C658 O679 1.265 . S
C659 C660 1.379 . S
C659 C663 1.373 . S
C659 C665 1.505 . S
C660 C659 1.379 . S
C660 C662 1.369 1_554 S
C660 H688 0.930 1_554 S
C661 C663 1.383 . S
C661 C664 1.382 . S
C661 H689 0.930 . S
C662 C660 1.369 1_556 S
C662 C664 1.392 1_556 S
C662 H690 0.930 . S
C663 C659 1.373 . S
C663 C661 1.383 . S
C663 H691 0.931 . S
C664 C661 1.382 . S
C664 C662 1.392 1_554 S
C665 Eu656 2.828 . S
C665 C659 1.505 . S
C665 O677 1.249 . S
C665 O678 1.244 . S
O666 Eu657 2.373 1_554 S
O666 C668 1.258 . S
O667 Eu656 2.392 . S
O667 C668 1.242 . S
C668 O666 1.258 . S
C668 O667 1.242 . S
O669 Eu656 2.418 . S
O669 C673 1.244 . S
O670 Eu657 2.488 . S
O670 C686 1.249 1_556 S
O671 Eu657 2.471 1_554 S
O671 C686 1.244 . S
O672 Eu657 2.349 1_554 S
O672 C673 1.265 . S
C673 O669 1.244 . S
C673 O672 1.265 . S
O674 Eu656 2.373 1_556 S
O674 C687 1.258 . S
O675 Eu657 2.392 . S
O675 C687 1.242 . S
O676 Eu657 2.418 . S
O676 C658 1.244 1_556 S
O677 Eu656 2.488 . S
O677 C665 1.249 . S
O678 Eu656 2.471 . S
O678 C665 1.244 . S
O679 Eu656 2.349 . S
O679 C658 1.265 . S
C680 C681 1.379 . S
C680 C684 1.373 . S
C680 C686 1.505 . S
C681 C680 1.379 . S
C681 C683 1.369 . S
C681 H692 0.930 . S
C682 C684 1.383 . S
C682 C685 1.382 . S
C682 H693 0.930 . S
C683 C681 1.369 . S
C683 C685 1.392 . S
C683 H694 0.930 . S
C684 C680 1.373 . S
C684 C682 1.383 . S
C684 H695 0.931 1_554 S
C685 C682 1.382 . S
C685 C683 1.392 . S
C686 Eu657 2.828 1_554 S
C686 O670 1.249 1_554 S
C686 O671 1.244 . S
C686 C680 1.505 . S
C687 O674 1.258 . S
C687 O675 1.242 . S
H688 C660 0.930 1_556 S
H689 C661 0.930 . S
H690 C662 0.930 . S
H691 C663 0.931 . S
H692 C681 0.930 . S
H693 C682 0.930 . S
H694 C683 0.930 . S
H695 C684 0.931 1_556 S
Eu696 C705 2.828 1_655 S
Eu696 O707 2.392 . S
Eu696 O709 2.418 . S
Eu696 O714 2.373 . S
Eu696 O717 2.488 . S
Eu696 O718 2.471 . S
Eu696 O719 2.349 . S
Eu697 O706 2.373 . S
Eu697 O710 2.488 . S
Eu697 O711 2.471 . S
Eu697 O712 2.349 . S
Eu697 O715 2.392 . S
Eu697 O716 2.418 . S
Eu697 C726 2.828 . S
C698 O716 1.244 . S
C698 O719 1.265 . S
C699 C700 1.379 . S
C699 C703 1.373 . S
C699 C705 1.505 . S
C700 C699 1.379 . S
C700 C702 1.369 . S
C700 H728 0.930 . S
C701 C703 1.383 . S
C701 C704 1.382 . S
C701 H729 0.930 . S
C702 C700 1.369 . S
C702 C704 1.392 . S
C702 H730 0.930 . S
C703 C699 1.373 . S
C703 C701 1.383 . S
C703 H731 0.931 . S
C704 C701 1.382 . S
C704 C702 1.392 . S
C705 Eu696 2.828 1_455 S
C705 C699 1.505 . S
C705 O717 1.249 1_455 S
C705 O718 1.244 1_455 S
O706 Eu697 2.373 . S
O706 C708 1.258 . S
O707 Eu696 2.392 . S
O707 C708 1.242 . S
C708 O706 1.258 . S
C708 O707 1.242 . S
O709 Eu696 2.418 . S
O709 C713 1.244 . S
O710 Eu697 2.488 . S
O710 C726 1.249 . S
O711 Eu697 2.471 . S
O711 C726 1.244 . S
O712 Eu697 2.349 . S
O712 C713 1.265 . S
C713 O709 1.244 . S
C713 O712 1.265 . S
O714 Eu696 2.373 . S
O714 C727 1.258 . S
O715 Eu697 2.392 . S
O715 C727 1.242 . S
O716 Eu697 2.418 . S
O716 C698 1.244 . S
O717 Eu696 2.488 . S
O717 C705 1.249 1_655 S
O718 Eu696 2.471 . S
O718 C705 1.244 1_655 S
O719 Eu696 2.349 . S
O719 C698 1.265 . S
C720 C721 1.379 . S
C720 C724 1.373 . S
C720 C726 1.505 . S
C721 C720 1.379 . S
C721 C723 1.369 . S
C721 H732 0.930 . S
C722 C724 1.383 . S
C722 C725 1.382 . S
C722 H733 0.930 . S
C723 C721 1.369 . S
C723 C725 1.392 . S
C723 H734 0.930 . S
C724 C720 1.373 . S
C724 C722 1.383 . S
C724 H735 0.931 . S
C725 C722 1.382 . S
C725 C723 1.392 . S
C726 Eu697 2.828 . S
C726 O710 1.249 . S
C726 O711 1.244 . S
C726 C720 1.505 . S
C727 O714 1.258 . S
C727 O715 1.242 . S
H728 C700 0.930 . S
H729 C701 0.930 . S
H730 C702 0.930 . S
H731 C703 0.931 . S
H732 C721 0.930 . S
H733 C722 0.930 . S
H734 C723 0.930 . S
H735 C724 0.931 . S
Eu736 C745 2.828 . S
Eu736 O747 2.392 . S
Eu736 O749 2.418 . S
Eu736 O754 2.373 . S
Eu736 O757 2.488 . S
Eu736 O758 2.471 . S
Eu736 O759 2.349 . S
Eu737 O746 2.373 . S
Eu737 O750 2.488 . S
Eu737 O751 2.471 . S
Eu737 O752 2.349 . S
Eu737 O755 2.392 . S
Eu737 O756 2.418 . S
Eu737 C766 2.828 . S
C738 O756 1.244 . S
C738 O759 1.265 . S
C739 C740 1.379 1_455 S
C739 C743 1.373 . S
C739 C745 1.505 . S
C740 C739 1.379 1_655 S
C740 C742 1.369 . S
C740 H768 0.930 . S
C741 C743 1.383 . S
C741 C744 1.382 1_455 S
C741 H769 0.930 . S
C742 C740 1.369 . S
C742 C744 1.392 . S
C742 H770 0.930 . S
C743 C739 1.373 . S
C743 C741 1.383 . S
C743 H771 0.931 . S
C744 C741 1.382 1_655 S
C744 C742 1.392 . S
C745 Eu736 2.828 . S
C745 C739 1.505 . S
C745 O757 1.249 . S
C745 O758 1.244 . S
O746 Eu737 2.373 . S
O746 C748 1.258 . S
O747 Eu736 2.392 . S
O747 C748 1.242 . S
C748 O746 1.258 . S
C748 O747 1.242 . S
O749 Eu736 2.418 . S
O749 C753 1.244 . S
O750 Eu737 2.488 . S
O750 C766 1.249 . S
O751 Eu737 2.471 . S
O751 C766 1.244 . S
O752 Eu737 2.349 . S
O752 C753 1.265 . S
C753 O749 1.244 . S
C753 O752 1.265 . S
O754 Eu736 2.373 . S
O754 C767 1.258 . S
O755 Eu737 2.392 . S
O755 C767 1.242 . S
O756 Eu737 2.418 . S
O756 C738 1.244 . S
O757 Eu736 2.488 . S
O757 C745 1.249 . S
O758 Eu736 2.471 . S
O758 C745 1.244 . S
O759 Eu736 2.349 . S
O759 C738 1.265 . S
C760 C761 1.379 . S
C760 C764 1.373 . S
C760 C766 1.505 . S
C761 C760 1.379 . S
C761 C763 1.369 . S
C761 H772 0.930 . S
C762 C764 1.383 . S
C762 C765 1.382 . S
C762 H773 0.930 . S
C763 C761 1.369 . S
C763 C765 1.392 . S
C763 H774 0.930 . S
C764 C760 1.373 . S
C764 C762 1.383 . S
C764 H775 0.931 . S
C765 C762 1.382 . S
C765 C763 1.392 . S
C766 Eu737 2.828 . S
C766 O750 1.249 . S
C766 O751 1.244 . S
C766 C760 1.505 . S
C767 O754 1.258 . S
C767 O755 1.242 . S
H768 C740 0.930 . S
H769 C741 0.930 . S
H770 C742 0.930 . S
H771 C743 0.931 . S
H772 C761 0.930 . S
H773 C762 0.930 . S
H774 C763 0.930 . S
H775 C764 0.931 . S
Eu776 C785 2.828 . S
Eu776 O787 2.392 . S
Eu776 O789 2.418 . S
Eu776 O794 2.373 . S
Eu776 O797 2.488 . S
Eu776 O798 2.471 . S
Eu776 O799 2.349 . S
Eu777 O786 2.373 . S
Eu777 O790 2.488 . S
Eu777 O791 2.471 . S
Eu777 O792 2.349 . S
Eu777 O795 2.392 . S
Eu777 O796 2.418 . S
Eu777 C806 2.828 . S
C778 O796 1.244 . S
C778 O799 1.265 . S
C779 C780 1.379 . S
C779 C783 1.373 . S
C779 C785 1.505 . S
C780 C779 1.379 . S
C780 C782 1.369 . S
C780 H808 0.930 . S
C781 C783 1.383 . S
C781 C784 1.382 . S
C781 H809 0.930 . S
C782 C780 1.369 . S
C782 C784 1.392 . S
C782 H810 0.930 . S
C783 C779 1.373 . S
C783 C781 1.383 . S
C783 H811 0.931 . S
C784 C781 1.382 . S
C784 C782 1.392 . S
C785 Eu776 2.828 . S
C785 C779 1.505 . S
C785 O797 1.249 . S
C785 O798 1.244 . S
O786 Eu777 2.373 . S
O786 C788 1.258 . S
O787 Eu776 2.392 . S
O787 C788 1.242 . S
C788 O786 1.258 . S
C788 O787 1.242 . S
O789 Eu776 2.418 . S
O789 C793 1.244 . S
O790 Eu777 2.488 . S
O790 C806 1.249 . S
O791 Eu777 2.471 . S
O791 C806 1.244 . S
O792 Eu777 2.349 . S
O792 C793 1.265 . S
C793 O789 1.244 . S
C793 O792 1.265 . S
O794 Eu776 2.373 . S
O794 C807 1.258 . S
O795 Eu777 2.392 . S
O795 C807 1.242 . S
O796 Eu777 2.418 . S
O796 C778 1.244 . S
O797 Eu776 2.488 . S
O797 C785 1.249 . S
O798 Eu776 2.471 . S
O798 C785 1.244 . S
O799 Eu776 2.349 . S
O799 C778 1.265 . S
C800 C801 1.379 . S
C800 C804 1.373 . S
C800 C806 1.505 1_455 S
C801 C800 1.379 . S
C801 C803 1.369 . S
C801 H812 0.930 . S
C802 C804 1.383 . S
C802 C805 1.382 . S
C802 H813 0.930 . S
C803 C801 1.369 . S
C803 C805 1.392 . S
C803 H814 0.930 . S
C804 C800 1.373 . S
C804 C802 1.383 . S
C804 H815 0.931 . S
C805 C802 1.382 . S
C805 C803 1.392 . S
C806 Eu777 2.828 . S
C806 O790 1.249 . S
C806 O791 1.244 . S
C806 C800 1.505 1_655 S
C807 O794 1.258 . S
C807 O795 1.242 . S
H808 C780 0.930 . S
H809 C781 0.930 . S
H810 C782 0.930 . S
H811 C783 0.931 . S
H812 C801 0.930 . S
H813 C802 0.930 . S
H814 C803 0.930 . S
H815 C804 0.931 . S
Eu816 C825 2.828 . S
Eu816 O827 2.392 . S
Eu816 O829 2.418 . S
Eu816 O834 2.373 . S
Eu816 O837 2.488 . S
Eu816 O838 2.471 . S
Eu816 O839 2.349 . S
Eu817 O826 2.373 . S
Eu817 O830 2.488 . S
Eu817 O831 2.471 . S
Eu817 O832 2.349 . S
Eu817 O835 2.392 . S
Eu817 O836 2.418 . S
Eu817 C846 2.828 . S
C818 O836 1.244 . S
C818 O839 1.265 . S
C819 C820 1.379 . S
C819 C823 1.373 . S
C819 C825 1.505 . S
C820 C819 1.379 . S
C820 C822 1.369 . S
C820 H848 0.930 . S
C821 C823 1.383 . S
C821 C824 1.382 . S
C821 H849 0.930 . S
C822 C820 1.369 . S
C822 C824 1.392 . S
C822 H850 0.930 . S
C823 C819 1.373 . S
C823 C821 1.383 . S
C823 H851 0.931 . S
C824 C821 1.382 . S
C824 C822 1.392 . S
C825 Eu816 2.828 . S
C825 C819 1.505 . S
C825 O837 1.249 . S
C825 O838 1.244 . S
O826 Eu817 2.373 . S
O826 C828 1.258 . S
O827 Eu816 2.392 . S
O827 C828 1.242 . S
C828 O826 1.258 . S
C828 O827 1.242 . S
O829 Eu816 2.418 . S
O829 C833 1.244 . S
O830 Eu817 2.488 . S
O830 C846 1.249 . S
O831 Eu817 2.471 . S
O831 C846 1.244 . S
O832 Eu817 2.349 . S
O832 C833 1.265 . S
C833 O829 1.244 . S
C833 O832 1.265 . S
O834 Eu816 2.373 . S
O834 C847 1.258 . S
O835 Eu817 2.392 . S
O835 C847 1.242 . S
O836 Eu817 2.418 . S
O836 C818 1.244 . S
O837 Eu816 2.488 . S
O837 C825 1.249 . S
O838 Eu816 2.471 . S
O838 C825 1.244 . S
O839 Eu816 2.349 . S
O839 C818 1.265 . S
C840 C841 1.379 . S
C840 C844 1.373 . S
C840 C846 1.505 . S
C841 C840 1.379 . S
C841 C843 1.369 . S
C841 H852 0.930 . S
C842 C844 1.383 . S
C842 C845 1.382 . S
C842 H853 0.930 . S
C843 C841 1.369 . S
C843 C845 1.392 . S
C843 H854 0.930 . S
C844 C840 1.373 . S
C844 C842 1.383 . S
C844 H855 0.931 . S
C845 C842 1.382 . S
C845 C843 1.392 . S
C846 Eu817 2.828 . S
C846 O830 1.249 . S
C846 O831 1.244 . S
C846 C840 1.505 . S
C847 O834 1.258 . S
C847 O835 1.242 . S
H848 C820 0.930 . S
H849 C821 0.930 . S
H850 C822 0.930 . S
H851 C823 0.931 . S
H852 C841 0.930 . S
H853 C842 0.930 . S
H854 C843 0.930 . S
H855 C844 0.931 . S
Eu856 C865 2.828 . S
Eu856 O867 2.392 . S
Eu856 O869 2.418 . S
Eu856 O874 2.373 . S
Eu856 O877 2.488 . S
Eu856 O878 2.471 . S
Eu856 O879 2.349 . S
Eu857 O866 2.373 . S
Eu857 O870 2.488 . S
Eu857 O871 2.471 . S
Eu857 O872 2.349 . S
Eu857 O875 2.392 . S
Eu857 O876 2.418 . S
Eu857 C886 2.828 . S
C858 O876 1.244 . S
C858 O879 1.265 . S
C859 C860 1.379 . S
C859 C863 1.373 . S
C859 C865 1.505 1_545 S
C860 C859 1.379 . S
C860 C862 1.369 . S
C860 H888 0.930 . S
C861 C863 1.383 . S
C861 C864 1.382 . S
C861 H889 0.930 . S
C862 C860 1.369 . S
C862 C864 1.392 . S
C862 H890 0.930 . S
C863 C859 1.373 . S
C863 C861 1.383 . S
C863 H891 0.931 . S
C864 C861 1.382 . S
C864 C862 1.392 . S
C865 Eu856 2.828 . S
C865 C859 1.505 1_565 S
C865 O877 1.249 . S
C865 O878 1.244 . S
O866 Eu857 2.373 . S
O866 C868 1.258 . S
O867 Eu856 2.392 . S
O867 C868 1.242 . S
C868 O866 1.258 . S
C868 O867 1.242 . S
O869 Eu856 2.418 . S
O869 C873 1.244 . S
O870 Eu857 2.488 . S
O870 C886 1.249 . S
O871 Eu857 2.471 . S
O871 C886 1.244 . S
O872 Eu857 2.349 . S
O872 C873 1.265 . S
C873 O869 1.244 . S
C873 O872 1.265 . S
O874 Eu856 2.373 . S
O874 C887 1.258 . S
O875 Eu857 2.392 . S
O875 C887 1.242 . S
O876 Eu857 2.418 . S
O876 C858 1.244 . S
O877 Eu856 2.488 . S
O877 C865 1.249 . S
O878 Eu856 2.471 . S
O878 C865 1.244 . S
O879 Eu856 2.349 . S
O879 C858 1.265 . S
C880 C881 1.379 . S
C880 C884 1.373 . S
C880 C886 1.505 . S
C881 C880 1.379 . S
C881 C883 1.369 . S
C881 H892 0.930 . S
C882 C884 1.383 . S
C882 C885 1.382 . S
C882 H893 0.930 . S
C883 C881 1.369 . S
C883 C885 1.392 . S
C883 H894 0.930 . S
C884 C880 1.373 . S
C884 C882 1.383 . S
C884 H895 0.931 . S
C885 C882 1.382 . S
C885 C883 1.392 . S
C886 Eu857 2.828 . S
C886 O870 1.249 . S
C886 O871 1.244 . S
C886 C880 1.505 . S
C887 O874 1.258 . S
C887 O875 1.242 . S
H888 C860 0.930 . S
H889 C861 0.930 . S
H890 C862 0.930 . S
H891 C863 0.931 . S
H892 C881 0.930 . S
H893 C882 0.930 . S
H894 C883 0.930 . S
H895 C884 0.931 . S
Eu896 C905 2.828 . S
Eu896 O907 2.392 . S
Eu896 O909 2.418 . S
Eu896 O914 2.373 . S
Eu896 O917 2.488 . S
Eu896 O918 2.471 . S
Eu896 O919 2.349 . S
Eu897 O906 2.373 . S
Eu897 O910 2.488 . S
Eu897 O911 2.471 . S
Eu897 O912 2.349 . S
Eu897 O915 2.392 . S
Eu897 O916 2.418 . S
Eu897 C926 2.828 . S
C898 O916 1.244 . S
C898 O919 1.265 . S
C899 C900 1.379 . S
C899 C903 1.373 . S
C899 C905 1.505 . S
C900 C899 1.379 . S
C900 C902 1.369 . S
C900 H928 0.930 . S
C901 C903 1.383 . S
C901 C904 1.382 . S
C901 H929 0.930 . S
C902 C900 1.369 . S
C902 C904 1.392 . S
C902 H930 0.930 . S
C903 C899 1.373 . S
C903 C901 1.383 . S
C903 H931 0.931 . S
C904 C901 1.382 . S
C904 C902 1.392 . S
C905 Eu896 2.828 . S
C905 C899 1.505 . S
C905 O917 1.249 . S
C905 O918 1.244 . S
O906 Eu897 2.373 . S
O906 C908 1.258 . S
O907 Eu896 2.392 . S
O907 C908 1.242 . S
C908 O906 1.258 . S
C908 O907 1.242 . S
O909 Eu896 2.418 . S
O909 C913 1.244 . S
O910 Eu897 2.488 . S
O910 C926 1.249 . S
O911 Eu897 2.471 . S
O911 C926 1.244 . S
O912 Eu897 2.349 . S
O912 C913 1.265 . S
C913 O909 1.244 . S
C913 O912 1.265 . S
O914 Eu896 2.373 . S
O914 C927 1.258 . S
O915 Eu897 2.392 . S
O915 C927 1.242 . S
O916 Eu897 2.418 . S
O916 C898 1.244 . S
O917 Eu896 2.488 . S
O917 C905 1.249 . S
O918 Eu896 2.471 . S
O918 C905 1.244 . S
O919 Eu896 2.349 . S
O919 C898 1.265 . S
C920 C921 1.379 . S
C920 C924 1.373 . S
C920 C926 1.505 . S
C921 C920 1.379 . S
C921 C923 1.369 . S
C921 H932 0.930 . S
C922 C924 1.383 . S
C922 C925 1.382 . S
C922 H933 0.930 . S
C923 C921 1.369 . S
C923 C925 1.392 . S
C923 H934 0.930 . S
C924 C920 1.373 . S
C924 C922 1.383 . S
C924 H935 0.931 . S
C925 C922 1.382 . S
C925 C923 1.392 . S
C926 Eu897 2.828 . S
C926 O910 1.249 . S
C926 O911 1.244 . S
C926 C920 1.505 . S
C927 O914 1.258 . S
C927 O915 1.242 . S
H928 C900 0.930 . S
H929 C901 0.930 . S
H930 C902 0.930 . S
H931 C903 0.931 . S
H932 C921 0.930 . S
H933 C922 0.930 . S
H934 C923 0.930 . S
H935 C924 0.931 . S
Eu936 C945 2.828 1_554 S
Eu936 O947 2.392 . S
Eu936 O949 2.415 1_554 S
Eu936 O954 2.374 1_554 S
Eu936 O957 2.486 1_554 S
Eu936 O958 2.473 . S
Eu936 O959 2.353 . S
Eu937 O946 2.373 . S
Eu937 O950 2.488 . S
Eu937 O951 2.471 . S
Eu937 O952 2.349 1_554 S
Eu937 O955 2.392 . S
Eu937 O956 2.418 . S
Eu937 C966 2.830 . S
C938 O956 1.244 . S
C938 O959 1.265 . S
C939 C940 1.379 . S
C939 C943 1.373 . S
C939 C945 1.505 . S
C940 C939 1.379 . S
C940 C942 1.369 . S
C940 H968 0.930 1_556 S
C941 C943 1.383 . S
C941 C944 1.382 . S
C941 H969 0.930 . S
C942 C940 1.369 . S
C942 C944 1.392 . S
C942 H970 0.930 1_556 S
C943 C939 1.373 . S
C943 C941 1.383 . S
C943 H971 0.931 . S
C944 C941 1.382 . S
C944 C942 1.392 . S
C945 Eu936 2.828 1_556 S
C945 C939 1.505 . S
C945 O957 1.249 . S
C945 O958 1.244 1_556 S
O946 Eu937 2.373 . S
O946 C948 1.258 . S
O947 Eu936 2.392 . S
O947 C948 1.242 . S
C948 O946 1.258 . S
C948 O947 1.242 . S
O949 Eu936 2.415 1_556 S
O949 C953 1.244 . S
O950 Eu937 2.488 . S
O950 C966 1.251 . S
O951 Eu937 2.471 . S
O951 C966 1.245 . S
O952 Eu937 2.349 1_556 S
O952 C953 1.265 . S
C953 O949 1.244 . S
C953 O952 1.265 . S
O954 Eu936 2.374 1_556 S
O954 C967 1.258 . S
O955 Eu937 2.392 . S
O955 C967 1.242 1_554 S
O956 Eu937 2.418 . S
O956 C938 1.244 . S
O957 Eu936 2.486 1_556 S
O957 C945 1.249 . S
O958 Eu936 2.473 . S
O958 C945 1.244 1_554 S
O959 Eu936 2.353 . S
O959 C938 1.265 . S
C960 C961 1.379 . S
C960 C964 1.373 . S
C960 C966 1.503 1_655 S
C961 C960 1.379 . S
C961 C963 1.369 . S
C961 H972 0.930 . S
C962 C964 1.383 . S
C962 C965 1.382 . S
C962 H973 0.930 . S
C963 C961 1.369 . S
C963 C965 1.392 . S
C963 H974 0.930 . S
C964 C960 1.373 . S
C964 C962 1.383 . S
C964 H975 0.931 . S
C965 C962 1.382 . S
C965 C963 1.392 . S
C966 Eu937 2.830 . S
C966 O950 1.251 . S
C966 O951 1.245 . S
C966 C960 1.503 1_455 S
C967 O954 1.258 . S
C967 O955 1.242 1_556 S
H968 C940 0.930 1_554 S
H969 C941 0.930 . S
H970 C942 0.930 1_554 S
H971 C943 0.931 . S
H972 C961 0.930 . S
H973 C962 0.930 . S
H974 C963 0.930 . S
H975 C964 0.931 . S
C109 C344 1.219 1_556 S
C61 C378 1.328 . S
C74 C447 0.914 . S
C485 C96 1.596 . S
C25 C525 3.971 1_655 S
C544 C40 0.244 . S
C578 C46 3.496 . S
C5 C647 2.212 . S
C353 C229 2.911 . S
C249 C405 3.005 . S
C418 C271 0.925 . S
C487 C172 2.927 . S
C236 C527 3.001 . S
C553 C242 2.729 . S
C605 C278 1.211 . S
C618 C179 3.820 . S
C348 C159 3.504 . S
C285 C658 2.388 1_556 S
C708 C333 3.919 . S
C767 C320 3.466 1_455 S
C123 C645 4.377 . S
C138 C445 2.750 . S
C326 C778 3.804 . S
C847 C298 0.816 . S
C365 C67 1.146 . S
C833 C110 2.007 . S
C88 C428 0.509 . S
C75 C784 1.954 . S
C504 C11 3.470 . S
C47 C725 0.794 . S
C593 C32 3.019 1_566 S
C868 C26 3.576 . S
C338 C152 3.732 . S
C824 C319 2.660 . S
C124 C433 1.566 . S
C284 C788 2.794 . S
C145 C508 3.067 1_565 S
C698 C312 2.397 . S
C117 C584 1.979 1_545 S
C291 C873 3.592 . S
C194 C367 3.861 1_654 S
C180 C673 2.673 . S
C263 C567 3.769 . S
C243 C748 3.476 . S
C864 C277 4.102 . S
C215 C424 3.379 . S
C473 C256 3.339 . S
C388 C200 1.154 . S
C81 C904 1.216 . S
C818 C89 1.315 . S
C102 C967 0.907 1_554 S
C68 C805 1.601 . S
C53 C685 3.969 . S
C704 C12 0.242 . S
C738 C18 3.497 1_455 S
C887 C33 2.221 . S
C913 C257 2.909 . S
C193 C845 2.999 . S
C938 C201 0.934 . S
C807 C214 2.928 . S
C687 C264 3.000 . S
C186 C713 2.737 . S
C765 C208 1.220 . S
C221 C858 3.824 . S
C908 C313 3.512 . S
C131 C498 2.391 . S
C548 C151 3.925 . S
C607 C166 3.446 1_566 S
C885 C305 4.360 . S
C292 C965 2.735 . S
C458 C144 3.806 . S
C407 C116 0.858 . S
C95 C925 1.130 . S
C393 C82 1.992 . S
C60 C948 0.518 . S
C103 C464 1.952 . S
C39 C664 3.471 . S
C565 C19 0.799 . S
C4 C753 3.018 . S
C54 C628 3.587 . S
C898 C334 3.730 . S
C165 C384 2.655 . S
C953 C306 1.606 . S
C130 C468 2.796 . S
C327 C668 3.068 . S
C538 C158 2.363 . S
C299 C744 1.943 1_455 S
C633 C137 3.600 . S
C927 C250 3.860 . S
C513 C222 2.677 1_445 S
C235 C727 3.776 . S
C588 C187 3.476 . S
C207 C624 4.099 . S
C173 C944 3.377 1_554 S
C793 C228 3.340 1_565 S
C828 C270 1.156 . S
