# Generated by pormake.
# Topology nia, (6,6)-cn, num edge types: 1
# Building blocks:
#     Node 0, Type 0, BuildingBlock: CIFDUS_clean_sbu_1, # of connection points: 6
#     Node 1, Type 0, BuildingBlock: CIFDUS_clean_sbu_1, # of connection points: 6
#     Node 2, Type 1, BuildingBlock: MIDCAF_clean_sbu_0, # of connection points: 6
#     Node 3, Type 1, BuildingBlock: MIDCAF_clean_sbu_0, # of connection points: 6
#     Edge 4, Type (0, 1), BuildingBlock: FUNLAD_clean_linker_1, # of connection points: 2
#     Edge 5, Type (0, 1), BuildingBlock: FUNLAD_clean_linker_1, # of connection points: 2
#     Edge 6, Type (0, 1), BuildingBlock: FUNLAD_clean_linker_1, # of connection points: 2
#     Edge 7, Type (0, 1), BuildingBlock: FUNLAD_clean_linker_1, # of connection points: 2
#     Edge 8, Type (0, 1), BuildingBlock: FUNLAD_clean_linker_1, # of connection points: 2
#     Edge 9, Type (0, 1), BuildingBlock: FUNLAD_clean_linker_1, # of connection points: 2
#     Edge 10, Type (0, 1), BuildingBlock: FUNLAD_clean_linker_1, # of connection points: 2
#     Edge 11, Type (0, 1), BuildingBlock: FUNLAD_clean_linker_1, # of connection points: 2
#     Edge 12, Type (0, 1), BuildingBlock: FUNLAD_clean_linker_1, # of connection points: 2
#     Edge 13, Type (0, 1), BuildingBlock: FUNLAD_clean_linker_1, # of connection points: 2
#     Edge 14, Type (0, 1), BuildingBlock: FUNLAD_clean_linker_1, # of connection points: 2
#     Edge 15, Type (0, 1), BuildingBlock: FUNLAD_clean_linker_1, # of connection points: 2
# Relax obj value: 0.123
# Max RMSD: 0.237
# Mean RMSD: 0.158
data_MOF--net-nia--node1-CIFDUS_clean_sbu_1--node2-MIDCAF_clean_sbu_0--edge1-FUNLAD_clean_linker_1
_symmetry_space_group_name_H-M    P1
_symmetry_Int_Tables_number       1
_symmetry_cell_setting            triclinic
loop_
_symmetry_equiv_pos_as_xyz
'x, y, z'
_cell_length_a     24.278579
_cell_length_b     24.226738
_cell_length_c     35.382838
_cell_angle_alpha  89.271997
_cell_angle_beta   89.529373
_cell_angle_gamma 126.84786
loop_
_atom_site_label
_atom_site_type_symbol
_atom_site_fract_x
_atom_site_fract_y
_atom_site_fract_z
_atom_type_partial_charge
O0 O 0.99382 0.95986 0.95707 0.0
Mn1 Mn 0.00754 0.01792 1.0051 0.0
O2 O 0.89713 0.85263 0.96724 0.0
Mn3 Mn 0.89488 0.86174 0.0187 0.0
O4 O 0.0219 0.07614 0.05306 0.0
O5 O 0.10132 0.0929 0.98429 0.0
Mn6 Mn 0.12137 0.17471 0.99148 0.0
O7 O 0.96666 0.0604 0.97478 0.0
O8 O 0.12038 0.18246 0.04316 0.0
O9 O 0.0486 0.97595 0.03525 0.0
O10 O 0.96073 0.86389 0.04658 0.0
O11 O 0.19496 0.18914 0.96478 0.0
O12 O 0.05429 0.17358 0.96601 0.0
C13 C 0.85601 0.9114 0.04508 0.0
C14 C 0.94685 0.89842 0.94582 0.0
C15 C 0.07002 0.13706 0.06448 0.0
C16 C 0.15829 0.12246 0.9654 0.0
C17 C 0.99206 0.12126 0.96147 0.0
C18 C 0.02319 0.91655 0.05057 0.0
O19 O 0.91329 0.94291 0.02607 0.0
O20 O 0.81927 0.84479 0.0438 0.0
O21 O 0.07502 0.03306 0.55205 0.0
Mn22 Mn 0.01299 0.02073 0.50674 0.0
O23 O 0.18506 0.11605 0.53396 0.0
Mn24 Mn 0.16869 0.11548 0.4829 0.0
O25 O 0.95192 0.00979 0.46132 0.0
O26 O 0.93305 0.93314 0.53146 0.0
Mn27 Mn 0.85827 0.92914 0.53006 0.0
O28 O 0.98942 0.07818 0.53731 0.0
O29 O 0.84108 0.93248 0.47953 0.0
O30 O 0.03759 0.96405 0.47645 0.0
O31 O 0.14811 0.03983 0.45637 0.0
O32 O 0.83366 0.84987 0.55517 0.0
O33 O 0.87988 1.00264 0.55863 0.0
C34 C 0.12291 0.16297 0.46177 0.0
C35 C 0.13979 0.07505 0.55901 0.0
C36 C 0.88709 0.97273 0.45467 0.0
C37 C 0.89817 0.87624 0.55097 0.0
C38 C 0.93762 0.06239 0.55785 0.0
C39 C 0.09062 0.97963 0.45721 0.0
O40 O 0.09198 0.10739 0.48196 0.0
O41 O 0.18764 0.19195 0.45621 0.0
Zn42 Zn 0.33809 0.70004 0.18154 0.0
Zn43 Zn 0.32428 0.68649 0.32649 0.0
Zn44 Zn 0.33651 0.69683 0.25355 0.0
C45 C 0.46608 0.76558 0.30884 0.0
C46 C 0.25398 0.55328 0.30453 0.0
O47 O 0.28164 0.73989 0.23386 0.0
O48 O 0.27789 0.72716 0.17199 0.0
C49 C 0.47422 0.79125 0.20125 0.0
O50 O 0.44472 0.75854 0.27468 0.0
O51 O 0.42356 0.73751 0.33621 0.0
O52 O 0.2664 0.58654 0.33433 0.0
O53 O 0.27728 0.58562 0.27228 0.0
O54 O 0.43593 0.77391 0.1732 0.0
O55 O 0.44789 0.76538 0.23447 0.0
O56 O 0.28268 0.58882 0.23275 0.0
O57 O 0.30407 0.60444 0.17113 0.0
C58 C 0.27812 0.56451 0.19969 0.0
O59 O 0.28388 0.74228 0.27312 0.0
O60 O 0.27868 0.73015 0.33543 0.0
C61 C 0.26309 0.74602 0.20096 0.0
C62 C 0.26574 0.7498 0.30589 0.0
Zn63 Zn 0.67582 0.32845 0.83455 0.0
Zn64 Zn 0.70332 0.34349 0.68868 0.0
Zn65 Zn 0.68612 0.33591 0.7612 0.0
C66 C 0.77505 0.47812 0.71056 0.0
C67 C 0.56142 0.26492 0.70159 0.0
O68 O 0.72921 0.28313 0.78455 0.0
O69 O 0.73192 0.29647 0.84638 0.0
C70 C 0.74215 0.4668 0.81519 0.0
O71 O 0.75055 0.44737 0.74306 0.0
O72 O 0.76067 0.44362 0.68107 0.0
O73 O 0.60507 0.28628 0.67497 0.0
O74 O 0.58126 0.2786 0.73617 0.0
O75 O 0.713 0.42593 0.84327 0.0
O76 O 0.74046 0.44345 0.78228 0.0
O77 O 0.57411 0.27145 0.776 0.0
O78 O 0.57503 0.25631 0.83778 0.0
C79 C 0.54201 0.24281 0.80771 0.0
O80 O 0.73987 0.28976 0.74527 0.0
O81 O 0.75389 0.30497 0.68326 0.0
C82 C 0.74407 0.27415 0.81793 0.0
C83 C 0.76348 0.2847 0.71375 0.0
H84 H 0.1237 0.94634 0.07081 0.0
C85 C 0.06822 0.9083 0.07382 0.0
H86 H 0.98623 0.816 0.10104 0.0
H87 H 0.15091 0.69381 0.12182 0.0
H88 H 0.07448 0.62387 0.07128 0.0
H89 H 0.0024 0.65145 0.04082 0.0
H90 H 0.00604 0.74879 0.06087 0.0
C91 C 0.04168 0.85425 0.09801 0.0
C92 C 0.0854 0.83858 0.11697 0.0
C93 C 0.08261 0.78147 0.10482 0.0
C94 C 0.1251 0.76643 0.12185 0.0
C95 C 0.12087 0.70863 0.10933 0.0
C96 C 0.07693 0.66775 0.08046 0.0
C97 C 0.03626 0.68318 0.06337 0.0
C98 C 0.03883 0.73924 0.07526 0.0
H99 H 0.18906 0.7666 0.21912 0.0
C100 C 0.22259 0.77285 0.19622 0.0
H101 H 0.25771 0.8055 0.14 0.0
H102 H 0.09545 0.94525 0.15056 0.0
H103 H 0.17098 0.01448 0.20182 0.0
H104 H 0.24848 0.99147 0.22955 0.0
H105 H 0.25029 0.8985 0.20665 0.0
C106 C 0.22362 0.79975 0.16245 0.0
C107 C 0.17098 0.80898 0.15069 0.0
C108 C 0.17158 0.86423 0.16406 0.0
C109 C 0.12812 0.87863 0.14738 0.0
C110 C 0.12848 0.9331 0.16171 0.0
C111 C 0.17145 0.97308 0.19114 0.0
C112 C 0.21508 0.96009 0.20677 0.0
C113 C 0.21552 0.90649 0.19343 0.0
H114 H 0.12763 0.0392 0.61899 0.0
C115 C 0.16397 0.07655 0.59767 0.0
H116 H 0.26619 0.16287 0.58535 0.0
H117 H 0.40627 0.29532 0.73106 0.0
H118 H 0.3604 0.35958 0.71952 0.0
H119 H 0.26771 0.31882 0.67377 0.0
H120 H 0.22039 0.21323 0.63915 0.0
C121 C 0.23061 0.12393 0.60632 0.0
C122 C 0.26083 0.13029 0.64388 0.0
C123 C 0.28632 0.19036 0.66482 0.0
C124 C 0.33945 0.21356 0.69134 0.0
C125 C 0.36594 0.27539 0.71062 0.0
C126 C 0.33992 0.31263 0.70431 0.0
C127 C 0.28775 0.28972 0.67852 0.0
C128 C 0.26128 0.22944 0.65878 0.0
H129 H 0.47701 0.20456 0.6623 0.0
C130 C 0.4883 0.22308 0.69111 0.0
H131 H 0.44744 0.23399 0.74064 0.0
H132 H 0.21102 0.00408 0.6155 0.0
H133 H 0.24653 0.93249 0.63297 0.0
H134 H 0.33531 0.97058 0.68097 0.0
H135 H 0.39007 0.08138 0.71131 0.0
C136 C 0.43671 0.21132 0.71305 0.0
C137 C 0.3669 0.17642 0.69659 0.0
C138 C 0.33291 0.11029 0.68061 0.0
C139 C 0.28035 0.08751 0.65376 0.0
C140 C 0.25056 0.02339 0.63638 0.0
C141 C 0.27039 0.98181 0.64624 0.0
C142 C 0.32047 0.00329 0.67323 0.0
C143 C 0.35171 0.06691 0.69024 0.0
H144 H 0.01962 0.12328 0.12044 0.0
C145 C 0.0649 0.1585 0.10271 0.0
H146 H 0.15977 0.25743 0.09663 0.0
H147 H 0.06366 0.40367 0.19078 0.0
H148 H 0.96363 0.35162 0.15099 0.0
H149 H 0.9296 0.25449 0.11008 0.0
H150 H 0.9952 0.2088 0.10875 0.0
C151 C 0.11367 0.22329 0.11403 0.0
C152 C 0.11072 0.25482 0.14909 0.0
C153 C 0.07033 0.27928 0.15037 0.0
C154 C 0.09013 0.33554 0.17391 0.0
C155 C 0.0509 0.36116 0.17346 0.0
C156 C 0.99337 0.33171 0.15078 0.0
C157 C 0.97422 0.27703 0.12773 0.0
C158 C 0.0124 0.25129 0.12718 0.0
H159 H 0.2691 0.47921 0.17203 0.0
C160 C 0.24589 0.49092 0.19384 0.0
H161 H 0.15744 0.45017 0.22813 0.0
H162 H 0.18498 0.2061 0.16114 0.0
H163 H 0.27859 0.25081 0.20552 0.0
H164 H 0.31321 0.3484 0.2462 0.0
H165 H 0.25448 0.40182 0.24296 0.0
C166 C 0.18499 0.439 0.2093 0.0
C167 C 0.15052 0.3673 0.1956 0.0
C168 C 0.18363 0.3353 0.19889 0.0
C169 C 0.16365 0.27902 0.17554 0.0
C170 C 0.19899 0.2494 0.17822 0.0
C171 C 0.25228 0.2743 0.20362 0.0
C172 C 0.27171 0.32921 0.22659 0.0
C173 C 0.23797 0.35962 0.22435 0.0
H174 H 0.97458 0.16848 0.57212 0.0
C175 C 0.94319 0.1149 0.58176 0.0
H176 H 0.87398 0.04109 0.6231 0.0
H177 H 0.95789 0.31902 0.71211 0.0
H178 H 0.07014 0.34403 0.72075 0.0
H179 H 0.1 0.27442 0.68951 0.0
H180 H 0.01819 0.17981 0.64908 0.0
C181 C 0.9047 0.09488 0.61374 0.0
C182 C 0.88898 0.13854 0.63236 0.0
C183 C 0.93726 0.19321 0.65593 0.0
C184 C 0.91988 0.23304 0.67416 0.0
C185 C 0.9689 0.28759 0.69746 0.0
C186 C 0.03324 0.30222 0.70275 0.0
C187 C 0.05005 0.26299 0.68516 0.0
C188 C 0.00277 0.20897 0.662 0.0
H189 H 0.78283 0.20952 0.73136 0.0
C190 C 0.79812 0.25143 0.71171 0.0
H191 H 0.85582 0.30863 0.66273 0.0
H192 H 0.78361 0.03545 0.58984 0.0
H193 H 0.67177 0.01016 0.58164 0.0
H194 H 0.64201 0.07983 0.61277 0.0
H195 H 0.72368 0.1747 0.65239 0.0
C196 C 0.84009 0.26597 0.68198 0.0
C197 C 0.85436 0.21781 0.66881 0.0
C198 C 0.8055 0.16206 0.64586 0.0
C199 C 0.82274 0.12218 0.62779 0.0
C200 C 0.77327 0.06727 0.60458 0.0
C201 C 0.7088 0.05225 0.59947 0.0
C202 C 0.69207 0.09146 0.61697 0.0
C203 C 0.73963 0.14586 0.63977 0.0
H204 H 0.88119 0.98664 0.08947 0.0
C205 C 0.83949 0.94335 0.07388 0.0
H206 H 0.73422 0.86304 0.07063 0.0
H207 H 0.61597 0.74079 0.22109 0.0
H208 H 0.64894 0.66865 0.20256 0.0
H209 H 0.73286 0.70459 0.15037 0.0
H210 H 0.78342 0.8132 0.11622 0.0
C211 C 0.77407 0.90672 0.08694 0.0
C212 C 0.75444 0.90442 0.12721 0.0
C213 C 0.72876 0.84336 0.14864 0.0
C214 C 0.68211 0.82384 0.17947 0.0
C215 C 0.65277 0.75947 0.19808 0.0
C216 C 0.67126 0.71725 0.18765 0.0
C217 C 0.71837 0.73738 0.15824 0.0
C218 C 0.74663 0.79947 0.13873 0.0
H219 H 0.56288 0.87059 0.16719 0.0
C220 C 0.54869 0.83995 0.19314 0.0
H221 H 0.57985 0.80093 0.23326 0.0
H222 H 0.81153 0.03376 0.09907 0.0
H223 H 0.79646 0.11684 0.12502 0.0
H224 H 0.72338 0.08738 0.18198 0.0
H225 H 0.66346 0.97383 0.21287 0.0
C226 C 0.59615 0.83673 0.20973 0.0
C227 C 0.6635 0.86724 0.18948 0.0
C228 C 0.70169 0.93505 0.17341 0.0
C229 C 0.74573 0.95298 0.14138 0.0
C230 C 0.77841 0.01847 0.12377 0.0
C231 C 0.77028 0.06639 0.13846 0.0
C232 C 0.72906 0.04977 0.17054 0.0
C233 C 0.6948 0.98474 0.18787 0.0
H234 H 0.97655 0.85765 0.56056 0.0
C235 C 0.92763 0.84526 0.57017 0.0
H236 H 0.8441 0.79041 0.60911 0.0
H237 H 0.85568 0.53749 0.61589 0.0
H238 H 0.83607 0.52764 0.54876 0.0
H239 H 0.84955 0.62199 0.51164 0.0
H240 H 0.88285 0.72673 0.54163 0.0
C241 C 0.89118 0.7994 0.59869 0.0
C242 C 0.90826 0.75606 0.61693 0.0
C243 C 0.89141 0.6962 0.5986 0.0
C244 C 0.88389 0.64194 0.62007 0.0
C245 C 0.8633 0.58105 0.60127 0.0
C246 C 0.85154 0.57445 0.56257 0.0
C247 C 0.85907 0.62751 0.54169 0.0
C248 C 0.8783 0.68753 0.55935 0.0
H249 H 0.79497 0.57917 0.71492 0.0
C250 C 0.81714 0.55359 0.70593 0.0
H251 H 0.89355 0.5588 0.67422 0.0
H252 H 0.95288 0.86894 0.65879 0.0
H253 H 0.98082 0.88294 0.72563 0.0
H254 H 0.97191 0.79059 0.76241 0.0
H255 H 0.93264 0.68257 0.73303 0.0
C256 C 0.87283 0.5861 0.6827 0.0
C257 C 0.89353 0.64801 0.65981 0.0
C258 C 0.91781 0.71095 0.67723 0.0
C259 C 0.92455 0.7648 0.65579 0.0
C260 C 0.94678 0.82646 0.674 0.0
C261 C 0.9633 0.83522 0.71217 0.0
C262 C 0.95813 0.78311 0.73291 0.0
C263 C 0.93534 0.7214 0.71583 0.0
H264 H 0.04608 0.87144 0.44307 0.0
C265 C 0.0864 0.92524 0.43576 0.0
H266 H 0.1727 0.99534 0.40036 0.0
H267 H 0.22317 0.76107 0.40341 0.0
H268 H 0.24764 0.78789 0.46937 0.0
H269 H 0.2243 0.86248 0.5006 0.0
H270 H 0.17627 0.91044 0.46593 0.0
C271 C 0.13406 0.94177 0.40892 0.0
C272 C 0.13969 0.8899 0.39127 0.0
C273 C 0.16716 0.86151 0.41218 0.0
C274 C 0.1806 0.8185 0.39411 0.0
C275 C 0.21024 0.79276 0.41555 0.0
C276 C 0.22516 0.80816 0.45355 0.0
C277 C 0.21205 0.85013 0.47112 0.0
C278 C 0.18394 0.87703 0.4508 0.0
H279 H 0.25303 0.83177 0.29519 0.0
C280 C 0.23169 0.78329 0.31022 0.0
H281 H 0.16164 0.71019 0.35107 0.0
H282 H 0.08741 0.93635 0.34326 0.0
H283 H 0.06141 0.90862 0.27694 0.0
H284 H 0.0803 0.83026 0.24621 0.0
H285 H 0.12679 0.78042 0.28121 0.0
C286 C 0.18222 0.75939 0.33704 0.0
C287 C 0.16655 0.80387 0.35509 0.0
C288 C 0.13781 0.83117 0.33438 0.0
C289 C 0.12527 0.87501 0.3524 0.0
C290 C 0.09783 0.90274 0.33093 0.0
C291 C 0.08243 0.88702 0.29294 0.0
C292 C 0.09319 0.84299 0.2756 0.0
C293 C 0.12034 0.81507 0.29596 0.0
H294 H 0.15391 0.03153 0.94831 0.0
C295 C 0.17927 0.08624 0.94341 0.0
H296 H 0.25376 0.17677 0.91224 0.0
H297 H 0.45939 0.10461 0.89396 0.0
H298 H 0.45782 0.09364 0.9619 0.0
H299 H 0.36702 0.08289 1.00086 0.0
H300 H 0.27709 0.08298 0.97175 0.0
C301 C 0.23136 0.12286 0.91794 0.0
C302 C 0.26337 0.09641 0.89625 0.0
C303 C 0.31382 0.09327 0.91354 0.0
C304 C 0.36612 0.09945 0.89092 0.0
C305 C 0.4181 0.09991 0.90926 0.0
C306 C 0.41789 0.09361 0.94846 0.0
C307 C 0.36681 0.08758 0.9704 0.0
C308 C 0.31553 0.08784 0.95332 0.0
H309 H 0.44167 0.22372 0.80686 0.0
C310 C 0.46645 0.19889 0.81107 0.0
H311 H 0.45918 0.11436 0.8334 0.0
H312 H 0.16336 0.08506 0.85488 0.0
H313 H 0.1566 0.08312 0.78609 0.0
H314 H 0.24455 0.08955 0.74668 0.0
H315 H 0.34136 0.10008 0.77564 0.0
C316 C 0.43239 0.13706 0.82903 0.0
C317 C 0.36743 0.10888 0.85105 0.0
C318 C 0.31042 0.1003 0.8337 0.0
C319 C 0.25874 0.09482 0.85641 0.0
C320 C 0.20388 0.08951 0.8386 0.0
C321 C 0.1993 0.08796 0.79933 0.0
C322 C 0.24907 0.09182 0.7771 0.0
C323 C 0.30429 0.09813 0.79395 0.0
H324 H 0.09553 0.23277 0.45378 0.0
C325 C 0.08922 0.18823 0.44182 0.0
H326 H 0.07894 0.1364 0.39227 0.0
H327 H 0.06129 0.39807 0.34933 0.0
H328 H 0.94513 0.32492 0.37624 0.0
H329 H 0.89867 0.21069 0.40444 0.0
H330 H 0.96783 0.16846 0.40549 0.0
C331 C 0.08049 0.1783 0.40443 0.0
C332 C 0.09971 0.23713 0.37912 0.0
C333 C 0.05859 0.26046 0.37814 0.0
C334 C 0.0857 0.32644 0.3621 0.0
C335 C 0.04352 0.34872 0.36169 0.0
C336 C 0.97673 0.30713 0.37685 0.0
C337 C 0.9505 0.24275 0.39269 0.0
C338 C 0.99073 0.21934 0.39336 0.0
H339 H 0.21193 0.44932 0.2833 0.0
C340 C 0.21497 0.47753 0.3076 0.0
H341 H 0.18874 0.47182 0.36523 0.0
H342 H 0.18613 0.2006 0.36883 0.0
H343 H 0.30097 0.27184 0.3413 0.0
H344 H 0.35183 0.38979 0.31777 0.0
H345 H 0.28783 0.43628 0.32074 0.0
C346 C 0.18772 0.44407 0.34101 0.0
C347 C 0.15429 0.36929 0.34753 0.0
C348 C 0.19342 0.34332 0.34558 0.0
C349 C 0.16513 0.27623 0.36052 0.0
C350 C 0.2051 0.25137 0.35842 0.0
C351 C 0.2713 0.29177 0.34268 0.0
C352 C 0.29984 0.35807 0.32936 0.0
C353 C 0.26191 0.38397 0.33096 0.0
H354 H 0.96997 0.1883 0.93564 0.0
C355 C 0.94963 0.13448 0.93955 0.0
H356 H 0.86937 0.03176 0.92512 0.0
H357 H 0.68275 0.13466 0.89667 0.0
H358 H 0.61771 0.04775 0.94642 0.0
H359 H 0.66131 0.9875 0.97478 0.0
H360 H 0.76994 0.01331 0.95325 0.0
C361 C 0.89154 0.08608 0.92194 0.0
C362 C 0.85651 0.108 0.89859 0.0
C363 C 0.7927 0.09156 0.91104 0.0
C364 C 0.7683 0.12725 0.89512 0.0
C365 C 0.70444 0.11016 0.90832 0.0
C366 C 0.66644 0.06016 0.93672 0.0
C367 C 0.69095 0.02618 0.95266 0.0
C368 C 0.7534 0.04158 0.94013 0.0
H369 H 0.77236 0.20658 0.79986 0.0
C370 C 0.7712 0.23392 0.82354 0.0
H371 H 0.78673 0.25315 0.88182 0.0
H372 H 0.96889 0.13517 0.86075 0.0
H373 H 0.03358 0.22016 0.80989 0.0
H374 H 0.99766 0.29004 0.78603 0.0
H375 H 0.89637 0.27422 0.8117 0.0
C376 C 0.7903 0.22753 0.85797 0.0
C377 C 0.80823 0.17988 0.86709 0.0
C378 C 0.86886 0.19151 0.85206 0.0
C379 C 0.89175 0.15389 0.86717 0.0
C380 C 0.95103 0.16442 0.85108 0.0
C381 C 0.98827 0.21263 0.82184 0.0
C382 C 0.96785 0.25174 0.80827 0.0
C383 C 0.90914 0.2418 0.8232 0.0
H384 H 0.90113 1.0003 0.39318 0.0
C385 C 0.86396 0.97572 0.4165 0.0
H386 H 0.76046 0.92436 0.43414 0.0
H387 H 0.62998 0.98512 0.31033 0.0
H388 H 0.67985 0.09186 0.34381 0.0
H389 H 0.77067 0.13079 0.3905 0.0
H390 H 0.81271 0.06309 0.40387 0.0
C391 C 0.7971 0.94676 0.41053 0.0
C392 C 0.76738 0.94083 0.37287 0.0
C393 C 0.74502 0.98165 0.36436 0.0
C394 C 0.69266 0.95913 0.33734 0.0
C395 C 0.66954 0.99975 0.33054 0.0
C396 C 0.69785 0.06117 0.34951 0.0
C397 C 0.74905 0.08312 0.37583 0.0
C398 C 0.77242 0.04385 0.38339 0.0
H399 H 0.54812 0.78015 0.34286 0.0
C400 C 0.539 0.80053 0.31808 0.0
H401 H 0.58459 0.88486 0.27966 0.0
H402 H 0.81181 0.86066 0.37561 0.0
H403 H 0.76994 0.75962 0.33806 0.0
H404 H 0.67906 0.72029 0.29124 0.0
H405 H 0.62917 0.78143 0.28227 0.0
C406 C 0.59286 0.85956 0.30199 0.0
C407 C 0.66224 0.89516 0.31939 0.0
C408 C 0.69224 0.86008 0.32381 0.0
C409 C 0.74491 0.883 0.35059 0.0
C410 C 0.77181 0.84536 0.35558 0.0
C411 C 0.74837 0.78748 0.33415 0.0
C412 C 0.69723 0.76534 0.3078 0.0
C413 C 0.66907 0.80081 0.3028 0.0
H414 H 0.00172 0.90848 0.89227 0.0
C415 C 0.95334 0.87631 0.90808 0.0
H416 H 0.85322 0.78235 0.91096 0.0
H417 H 0.78182 0.64122 0.76204 0.0
H418 H 0.73964 0.70856 0.74836 0.0
H419 H 0.7749 0.80865 0.78705 0.0
H420 H 0.85264 0.84198 0.83973 0.0
C421 C 0.90224 0.81316 0.89564 0.0
C422 C 0.90782 0.77789 0.86327 0.0
C423 C 0.86413 0.76009 0.83218 0.0
C424 C 0.84409 0.70267 0.80978 0.0
C425 C 0.7983 0.6844 0.77982 0.0
C426 C 0.77401 0.72268 0.7717 0.0
C427 C 0.79387 0.77906 0.7935 0.0
C428 C 0.83809 0.7975 0.82363 0.0
H429 H 0.75574 0.55244 0.84533 0.0
C430 C 0.77542 0.54058 0.82153 0.0
H431 H 0.85776 0.58278 0.78194 0.0
H432 H 0.00374 0.80669 0.91577 0.0
H433 H 0.05391 0.74619 0.92519 0.0
H434 H 0.02172 0.64893 0.8849 0.0
H435 H 0.93831 0.61115 0.83509 0.0
C436 C 0.83286 0.5928 0.80345 0.0
C437 C 0.86885 0.66395 0.81813 0.0
C438 C 0.92046 0.68805 0.8455 0.0
C439 C 0.93959 0.74475 0.86842 0.0
C440 C 0.98763 0.76443 0.89738 0.0
C441 C 0.01694 0.73016 0.90303 0.0
C442 C -0.0012 0.67537 0.88036 0.0
C443 C 0.95091 0.65414 0.85197 0.0
loop_
_geom_bond_atom_site_label_1
_geom_bond_atom_site_label_2
_geom_bond_distance
_geom_bond_site_symmetry_2
_ccdc_geom_bond_type
O0 Mn1 2.163 1_666 S
O0 C14 1.244 . S
Mn1 O0 2.163 1_444 S
Mn1 O4 2.160 . S
Mn1 O5 2.221 1_554 S
Mn1 O7 2.163 1_454 S
Mn1 O9 2.160 1_545 S
Mn1 O19 2.221 1_445 S
O2 Mn3 2.087 1_556 S
O2 C14 1.256 . S
Mn3 O2 2.087 1_554 S
Mn3 O10 2.089 1_655 S
Mn3 O19 2.290 . S
Mn3 O20 2.251 . S
O4 Mn1 2.160 . S
O4 C15 1.239 . S
O5 Mn1 2.221 1_556 S
O5 Mn6 2.290 . S
O5 C16 1.278 . S
Mn6 O5 2.290 . S
Mn6 O8 2.089 1_556 S
Mn6 O11 2.251 . S
Mn6 O12 2.087 . S
O7 Mn1 2.163 1_656 S
O7 C17 1.244 . S
O8 Mn6 2.089 1_554 S
O8 C15 1.256 . S
O9 Mn1 2.160 1_565 S
O9 C18 1.239 . S
O10 Mn3 2.089 1_455 S
O10 C18 1.256 . S
O11 Mn6 2.251 . S
O11 C16 1.241 . S
O12 Mn6 2.087 . S
O12 C17 1.256 1_455 S
C13 O19 1.278 . S
C13 O20 1.241 . S
C14 O0 1.244 . S
C14 O2 1.256 . S
C15 O4 1.239 . S
C15 O8 1.256 . S
C16 O5 1.278 . S
C16 O11 1.241 . S
C17 O7 1.244 . S
C17 O12 1.256 1_655 S
C18 O9 1.239 . S
C18 O10 1.256 . S
O19 Mn1 2.221 1_665 S
O19 Mn3 2.290 . S
O19 C13 1.278 . S
O20 Mn3 2.251 . S
O20 C13 1.241 . S
O21 Mn22 2.163 1_545 S
O21 C35 1.244 . S
Mn22 O21 2.163 1_565 S
Mn22 O25 2.160 1_455 S
Mn22 O26 2.220 1_455 S
Mn22 O28 2.164 1_465 S
Mn22 O30 2.159 . S
Mn22 O40 2.222 1_565 S
O23 Mn24 2.087 . S
O23 C35 1.256 . S
Mn24 O23 2.087 . S
Mn24 O31 2.089 . S
Mn24 O40 2.290 . S
Mn24 O41 2.251 . S
O25 Mn22 2.160 1_655 S
O25 C36 1.239 . S
O26 Mn22 2.220 1_655 S
O26 Mn27 2.290 . S
O26 C37 1.278 . S
Mn27 O26 2.290 . S
Mn27 O29 2.089 . S
Mn27 O32 2.251 . S
Mn27 O33 2.087 . S
O28 Mn22 2.164 1_645 S
O28 C38 1.244 . S
O29 Mn27 2.089 . S
O29 C36 1.256 . S
O30 Mn22 2.159 . S
O30 C39 1.239 . S
O31 Mn24 2.089 . S
O31 C39 1.256 1_545 S
O32 Mn27 2.251 . S
O32 C37 1.241 . S
O33 Mn27 2.087 . S
O33 C38 1.256 1_565 S
C34 O40 1.278 . S
C34 O41 1.241 . S
C35 O21 1.244 . S
C35 O23 1.256 . S
C36 O25 1.239 . S
C36 O29 1.256 . S
C37 O26 1.278 . S
C37 O32 1.241 . S
C38 O28 1.244 . S
C38 O33 1.256 1_545 S
C39 O30 1.239 . S
C39 O31 1.256 1_565 S
O40 Mn22 2.222 1_545 S
O40 Mn24 2.290 . S
O40 C34 1.278 . S
O41 Mn24 2.251 . S
O41 C34 1.241 . S
Zn42 O48 1.920 . S
Zn42 O54 1.898 . S
Zn42 O57 1.905 . S
Zn43 O51 1.905 . S
Zn43 O52 1.898 . S
Zn43 O60 1.920 . S
Zn44 O47 2.080 . S
Zn44 O50 2.114 . S
Zn44 O53 2.120 . S
Zn44 O55 2.120 . S
Zn44 O56 2.114 . S
Zn44 O59 2.080 . S
C45 O50 1.166 . S
C45 O51 1.182 . S
C46 O52 1.167 . S
C46 O53 1.299 . S
O47 Zn44 2.080 . S
O47 C61 1.305 . S
O48 Zn42 1.920 . S
O48 C61 1.234 . S
C49 O54 1.167 . S
C49 O55 1.299 . S
O50 Zn44 2.114 . S
O50 C45 1.166 . S
O51 Zn43 1.905 . S
O51 C45 1.182 . S
O52 Zn43 1.898 . S
O52 C46 1.167 . S
O53 Zn44 2.120 . S
O53 C46 1.299 . S
O54 Zn42 1.898 . S
O54 C49 1.167 . S
O55 Zn44 2.120 . S
O55 C49 1.299 . S
O56 Zn44 2.114 . S
O56 C58 1.166 . S
O57 Zn42 1.905 . S
O57 C58 1.182 . S
C58 O56 1.166 . S
C58 O57 1.182 . S
O59 Zn44 2.080 . S
O59 C62 1.305 . S
O60 Zn43 1.920 . S
O60 C62 1.234 . S
C61 O47 1.305 . S
C61 O48 1.234 . S
C62 O59 1.305 . S
C62 O60 1.234 . S
Zn63 O69 1.920 . S
Zn63 O75 1.898 . S
Zn63 O78 1.905 . S
Zn64 O72 1.905 . S
Zn64 O73 1.898 . S
Zn64 O81 1.920 . S
Zn65 O68 2.080 . S
Zn65 O71 2.114 . S
Zn65 O74 2.120 . S
Zn65 O76 2.120 . S
Zn65 O77 2.114 . S
Zn65 O80 2.080 . S
C66 O71 1.166 . S
C66 O72 1.182 . S
C67 O73 1.167 . S
C67 O74 1.299 . S
O68 Zn65 2.080 . S
O68 C82 1.305 . S
O69 Zn63 1.920 . S
O69 C82 1.234 . S
C70 O75 1.167 . S
C70 O76 1.299 . S
O71 Zn65 2.114 . S
O71 C66 1.166 . S
O72 Zn64 1.905 . S
O72 C66 1.182 . S
O73 Zn64 1.898 . S
O73 C67 1.167 . S
O74 Zn65 2.120 . S
O74 C67 1.299 . S
O75 Zn63 1.898 . S
O75 C70 1.167 . S
O76 Zn65 2.120 . S
O76 C70 1.299 . S
O77 Zn65 2.114 . S
O77 C79 1.166 . S
O78 Zn63 1.905 . S
O78 C79 1.182 . S
C79 O77 1.166 . S
C79 O78 1.182 . S
O80 Zn65 2.080 . S
O80 C83 1.305 . S
O81 Zn64 1.920 . S
O81 C83 1.234 . S
C82 O68 1.305 . S
C82 O69 1.234 . S
C83 O80 1.305 . S
C83 O81 1.234 . S
H84 C85 0.951 . S
C85 H84 0.951 . S
C85 C91 1.265 . S
H86 C91 0.950 . S
H87 C95 0.949 . S
H88 C96 0.950 . S
H89 C97 0.951 . S
H90 C98 0.951 . S
C91 C85 1.265 . S
C91 H86 0.950 . S
C91 C92 1.478 . S
C92 C91 1.478 . S
C92 C93 1.397 . S
C92 C109 1.394 . S
C93 C92 1.397 . S
C93 C94 1.438 . S
C93 C98 1.429 . S
C94 C93 1.438 . S
C94 C95 1.428 . S
C94 C107 1.394 . S
C95 H87 0.949 . S
C95 C94 1.428 . S
C95 C96 1.345 . S
C96 H88 0.950 . S
C96 C95 1.345 . S
C96 C97 1.424 . S
C97 H89 0.951 . S
C97 C96 1.424 . S
C97 C98 1.347 . S
C98 H90 0.951 . S
C98 C93 1.429 . S
C98 C97 1.347 . S
H99 C100 0.951 . S
C100 H99 0.951 . S
C100 C106 1.265 . S
H101 C106 0.950 . S
H102 C110 0.949 . S
H103 C111 0.950 1_545 S
H104 C112 0.951 . S
H105 C113 0.951 . S
C106 C100 1.265 . S
C106 H101 0.950 . S
C106 C107 1.478 . S
C107 C94 1.394 . S
C107 C106 1.478 . S
C107 C108 1.397 . S
C108 C107 1.397 . S
C108 C109 1.438 . S
C108 C113 1.429 . S
C109 C92 1.394 . S
C109 C108 1.438 . S
C109 C110 1.428 . S
C110 H102 0.949 . S
C110 C109 1.428 . S
C110 C111 1.345 . S
C111 H103 0.950 1_565 S
C111 C110 1.345 . S
C111 C112 1.424 . S
C112 H104 0.951 . S
C112 C111 1.424 . S
C112 C113 1.347 . S
C113 H105 0.951 . S
C113 C108 1.429 . S
C113 C112 1.347 . S
H114 C115 0.951 . S
C115 H114 0.951 . S
C115 C121 1.265 . S
H116 C121 0.950 . S
H117 C125 0.949 . S
H118 C126 0.950 . S
H119 C127 0.951 . S
H120 C128 0.951 . S
C121 C115 1.265 . S
C121 H116 0.950 . S
C121 C122 1.478 . S
C122 C121 1.478 . S
C122 C123 1.397 . S
C122 C139 1.394 . S
C123 C122 1.397 . S
C123 C124 1.438 . S
C123 C128 1.429 . S
C124 C123 1.438 . S
C124 C125 1.428 . S
C124 C137 1.394 . S
C125 H117 0.949 . S
C125 C124 1.428 . S
C125 C126 1.345 . S
C126 H118 0.950 . S
C126 C125 1.345 . S
C126 C127 1.424 . S
C127 H119 0.951 . S
C127 C126 1.424 . S
C127 C128 1.347 . S
C128 H120 0.951 . S
C128 C123 1.429 . S
C128 C127 1.347 . S
H129 C130 0.951 . S
C130 H129 0.951 . S
C130 C136 1.265 . S
H131 C136 0.950 . S
H132 C140 0.949 1_565 S
H133 C141 0.950 . S
H134 C142 0.951 1_565 S
H135 C143 0.951 . S
C136 C130 1.265 . S
C136 H131 0.950 . S
C136 C137 1.478 . S
C137 C124 1.394 . S
C137 C136 1.478 . S
C137 C138 1.397 . S
C138 C137 1.397 . S
C138 C139 1.438 . S
C138 C143 1.429 . S
C139 C122 1.394 . S
C139 C138 1.438 . S
C139 C140 1.428 . S
C140 H132 0.949 1_545 S
C140 C139 1.428 . S
C140 C141 1.345 1_545 S
C141 H133 0.950 . S
C141 C140 1.345 1_565 S
C141 C142 1.424 1_565 S
C142 H134 0.951 1_545 S
C142 C141 1.424 1_545 S
C142 C143 1.347 . S
C143 H135 0.951 . S
C143 C138 1.429 . S
C143 C142 1.347 . S
H144 C145 0.951 . S
C145 H144 0.951 . S
C145 C151 1.265 . S
H146 C151 0.950 . S
H147 C155 0.949 . S
H148 C156 0.950 . S
H149 C157 0.951 . S
H150 C158 0.951 . S
C151 C145 1.265 . S
C151 H146 0.950 . S
C151 C152 1.478 . S
C152 C151 1.478 . S
C152 C153 1.397 . S
C152 C169 1.394 . S
C153 C152 1.397 . S
C153 C154 1.438 . S
C153 C158 1.429 . S
C154 C153 1.438 . S
C154 C155 1.428 . S
C154 C167 1.394 . S
C155 H147 0.949 . S
C155 C154 1.428 . S
C155 C156 1.345 . S
C156 H148 0.950 . S
C156 C155 1.345 . S
C156 C157 1.424 . S
C157 H149 0.951 . S
C157 C156 1.424 . S
C157 C158 1.347 . S
C158 H150 0.951 . S
C158 C153 1.429 . S
C158 C157 1.347 . S
H159 C160 0.951 . S
C160 H159 0.951 . S
C160 C166 1.265 . S
H161 C166 0.950 . S
H162 C170 0.949 . S
H163 C171 0.950 . S
H164 C172 0.951 . S
H165 C173 0.951 . S
C166 C160 1.265 . S
C166 H161 0.950 . S
C166 C167 1.478 . S
C167 C154 1.394 . S
C167 C166 1.478 . S
C167 C168 1.397 . S
C168 C167 1.397 . S
C168 C169 1.438 . S
C168 C173 1.429 . S
C169 C152 1.394 . S
C169 C168 1.438 . S
C169 C170 1.428 . S
C170 H162 0.949 . S
C170 C169 1.428 . S
C170 C171 1.345 . S
C171 H163 0.950 . S
C171 C170 1.345 . S
C171 C172 1.424 . S
C172 H164 0.951 . S
C172 C171 1.424 . S
C172 C173 1.347 . S
C173 H165 0.951 . S
C173 C168 1.429 . S
C173 C172 1.347 . S
H174 C175 0.951 . S
C175 H174 0.951 . S
C175 C181 1.265 . S
H176 C181 0.950 . S
H177 C185 0.949 . S
H178 C186 0.950 1_455 S
H179 C187 0.951 . S
H180 C188 0.951 . S
C181 C175 1.265 . S
C181 H176 0.950 . S
C181 C182 1.478 . S
C182 C181 1.478 . S
C182 C183 1.397 . S
C182 C199 1.394 . S
C183 C182 1.397 . S
C183 C184 1.438 . S
C183 C188 1.429 . S
C184 C183 1.438 . S
C184 C185 1.428 . S
C184 C197 1.394 . S
C185 H177 0.949 . S
C185 C184 1.428 . S
C185 C186 1.345 . S
C186 H178 0.950 1_655 S
C186 C185 1.345 . S
C186 C187 1.424 1_655 S
C187 H179 0.951 . S
C187 C186 1.424 1_455 S
C187 C188 1.347 1_455 S
C188 H180 0.951 . S
C188 C183 1.429 . S
C188 C187 1.347 1_655 S
H189 C190 0.951 . S
C190 H189 0.951 . S
C190 C196 1.265 . S
H191 C196 0.950 . S
H192 C200 0.949 . S
H193 C201 0.950 . S
H194 C202 0.951 . S
H195 C203 0.951 . S
C196 C190 1.265 . S
C196 H191 0.950 . S
C196 C197 1.478 . S
C197 C184 1.394 . S
C197 C196 1.478 . S
C197 C198 1.397 . S
C198 C197 1.397 . S
C198 C199 1.438 . S
C198 C203 1.429 . S
C199 C182 1.394 . S
C199 C198 1.438 . S
C199 C200 1.428 . S
C200 H192 0.949 . S
C200 C199 1.428 . S
C200 C201 1.345 . S
C201 H193 0.950 . S
C201 C200 1.345 . S
C201 C202 1.424 . S
C202 H194 0.951 . S
C202 C201 1.424 . S
C202 C203 1.347 . S
C203 H195 0.951 . S
C203 C198 1.429 . S
C203 C202 1.347 . S
H204 C205 0.951 . S
C205 H204 0.951 . S
C205 C211 1.265 . S
H206 C211 0.950 . S
H207 C215 0.949 . S
H208 C216 0.950 . S
H209 C217 0.951 . S
H210 C218 0.951 . S
C211 C205 1.265 . S
C211 H206 0.950 . S
C211 C212 1.478 . S
C212 C211 1.478 . S
C212 C213 1.397 . S
C212 C229 1.394 . S
C213 C212 1.397 . S
C213 C214 1.438 . S
C213 C218 1.429 . S
C214 C213 1.438 . S
C214 C215 1.428 . S
C214 C227 1.394 . S
C215 H207 0.949 . S
C215 C214 1.428 . S
C215 C216 1.345 . S
C216 H208 0.950 . S
C216 C215 1.345 . S
C216 C217 1.424 . S
C217 H209 0.951 . S
C217 C216 1.424 . S
C217 C218 1.347 . S
C218 H210 0.951 . S
C218 C213 1.429 . S
C218 C217 1.347 . S
H219 C220 0.951 . S
C220 H219 0.951 . S
C220 C226 1.265 . S
H221 C226 0.950 . S
H222 C230 0.949 . S
H223 C231 0.950 1_545 S
H224 C232 0.951 . S
H225 C233 0.951 . S
C226 C220 1.265 . S
C226 H221 0.950 . S
C226 C227 1.478 . S
C227 C214 1.394 . S
C227 C226 1.478 . S
C227 C228 1.397 . S
C228 C227 1.397 . S
C228 C229 1.438 . S
C228 C233 1.429 . S
C229 C212 1.394 . S
C229 C228 1.438 . S
C229 C230 1.428 . S
C230 H222 0.949 . S
C230 C229 1.428 . S
C230 C231 1.345 . S
C231 H223 0.950 1_565 S
C231 C230 1.345 . S
C231 C232 1.424 . S
C232 H224 0.951 . S
C232 C231 1.424 . S
C232 C233 1.347 . S
C233 H225 0.951 . S
C233 C228 1.429 . S
C233 C232 1.347 . S
H234 C235 0.951 . S
C235 H234 0.951 . S
C235 C241 1.265 . S
H236 C241 0.950 . S
H237 C245 0.949 . S
H238 C246 0.950 . S
H239 C247 0.951 . S
H240 C248 0.951 . S
C241 C235 1.265 . S
C241 H236 0.950 . S
C241 C242 1.478 . S
C242 C241 1.478 . S
C242 C243 1.397 . S
C242 C259 1.394 . S
C243 C242 1.397 . S
C243 C244 1.438 . S
C243 C248 1.429 . S
C244 C243 1.438 . S
C244 C245 1.428 . S
C244 C257 1.394 . S
C245 H237 0.949 . S
C245 C244 1.428 . S
C245 C246 1.345 . S
C246 H238 0.950 . S
C246 C245 1.345 . S
C246 C247 1.424 . S
C247 H239 0.951 . S
C247 C246 1.424 . S
C247 C248 1.347 . S
C248 H240 0.951 . S
C248 C243 1.429 . S
C248 C247 1.347 . S
H249 C250 0.951 . S
C250 H249 0.951 . S
C250 C256 1.265 . S
H251 C256 0.950 . S
H252 C260 0.949 . S
H253 C261 0.950 1_455 S
H254 C262 0.951 . S
H255 C263 0.951 . S
C256 C250 1.265 . S
C256 H251 0.950 . S
C256 C257 1.478 . S
C257 C244 1.394 . S
C257 C256 1.478 . S
C257 C258 1.397 . S
C258 C257 1.397 . S
C258 C259 1.438 . S
C258 C263 1.429 . S
C259 C242 1.394 . S
C259 C258 1.438 . S
C259 C260 1.428 . S
C260 H252 0.949 . S
C260 C259 1.428 . S
C260 C261 1.345 . S
C261 H253 0.950 1_655 S
C261 C260 1.345 . S
C261 C262 1.424 . S
C262 H254 0.951 . S
C262 C261 1.424 . S
C262 C263 1.347 . S
C263 H255 0.951 . S
C263 C258 1.429 . S
C263 C262 1.347 . S
H264 C265 0.951 . S
C265 H264 0.951 . S
C265 C271 1.265 . S
H266 C271 0.950 . S
H267 C275 0.949 . S
H268 C276 0.950 . S
H269 C277 0.951 . S
H270 C278 0.951 . S
C271 C265 1.265 . S
C271 H266 0.950 . S
C271 C272 1.478 . S
C272 C271 1.478 . S
C272 C273 1.397 . S
C272 C289 1.394 . S
C273 C272 1.397 . S
C273 C274 1.438 . S
C273 C278 1.429 . S
C274 C273 1.438 . S
C274 C275 1.428 . S
C274 C287 1.394 . S
C275 H267 0.949 . S
C275 C274 1.428 . S
C275 C276 1.345 . S
C276 H268 0.950 . S
C276 C275 1.345 . S
C276 C277 1.424 . S
C277 H269 0.951 . S
C277 C276 1.424 . S
C277 C278 1.347 . S
C278 H270 0.951 . S
C278 C273 1.429 . S
C278 C277 1.347 . S
H279 C280 0.951 . S
C280 H279 0.951 . S
C280 C286 1.265 . S
H281 C286 0.950 . S
H282 C290 0.949 . S
H283 C291 0.950 . S
H284 C292 0.951 . S
H285 C293 0.951 . S
C286 C280 1.265 . S
C286 H281 0.950 . S
C286 C287 1.478 . S
C287 C274 1.394 . S
C287 C286 1.478 . S
C287 C288 1.397 . S
C288 C287 1.397 . S
C288 C289 1.438 . S
C288 C293 1.429 . S
C289 C272 1.394 . S
C289 C288 1.438 . S
C289 C290 1.428 . S
C290 H282 0.949 . S
C290 C289 1.428 . S
C290 C291 1.345 . S
C291 H283 0.950 . S
C291 C290 1.345 . S
C291 C292 1.424 . S
C292 H284 0.951 . S
C292 C291 1.424 . S
C292 C293 1.347 . S
C293 H285 0.951 . S
C293 C288 1.429 . S
C293 C292 1.347 . S
H294 C295 0.951 . S
C295 H294 0.951 . S
C295 C301 1.265 . S
H296 C301 0.950 . S
H297 C305 0.949 . S
H298 C306 0.950 . S
H299 C307 0.952 . S
H300 C308 0.951 . S
C301 C295 1.265 . S
C301 H296 0.950 . S
C301 C302 1.478 . S
C302 C301 1.478 . S
C302 C303 1.397 . S
C302 C319 1.394 . S
C303 C302 1.397 . S
C303 C304 1.438 . S
C303 C308 1.429 . S
C304 C303 1.438 . S
C304 C305 1.428 . S
C304 C317 1.394 . S
C305 H297 0.949 . S
C305 C304 1.428 . S
C305 C306 1.345 . S
C306 H298 0.950 . S
C306 C305 1.345 . S
C306 C307 1.424 1_545 S
C307 H299 0.952 . S
C307 C306 1.424 1_565 S
C307 C308 1.346 1_565 S
C308 H300 0.951 . S
C308 C303 1.429 . S
C308 C307 1.346 1_545 S
H309 C310 0.951 . S
C310 H309 0.951 . S
C310 C316 1.265 . S
H311 C316 0.950 . S
H312 C320 0.949 . S
H313 C321 0.950 . S
H314 C322 0.951 . S
H315 C323 0.951 . S
C316 C310 1.265 . S
C316 H311 0.950 . S
C316 C317 1.478 . S
C317 C304 1.394 . S
C317 C316 1.478 . S
C317 C318 1.397 . S
C318 C317 1.397 . S
C318 C319 1.438 . S
C318 C323 1.429 . S
C319 C302 1.394 . S
C319 C318 1.438 . S
C319 C320 1.428 . S
C320 H312 0.949 . S
C320 C319 1.428 . S
C320 C321 1.345 . S
C321 H313 0.950 . S
C321 C320 1.345 . S
C321 C322 1.424 . S
C322 H314 0.951 . S
C322 C321 1.424 . S
C322 C323 1.347 . S
C323 H315 0.951 . S
C323 C318 1.429 . S
C323 C322 1.347 . S
H324 C325 0.951 . S
C325 H324 0.951 . S
C325 C331 1.265 . S
H326 C331 0.950 . S
H327 C335 0.949 . S
H328 C336 0.950 . S
H329 C337 0.951 . S
H330 C338 0.951 . S
C331 C325 1.265 . S
C331 H326 0.950 . S
C331 C332 1.478 . S
C332 C331 1.478 . S
C332 C333 1.397 . S
C332 C349 1.394 . S
C333 C332 1.397 . S
C333 C334 1.438 . S
C333 C338 1.429 . S
C334 C333 1.438 . S
C334 C335 1.428 . S
C334 C347 1.394 . S
C335 H327 0.949 . S
C335 C334 1.428 . S
C335 C336 1.345 . S
C336 H328 0.950 . S
C336 C335 1.345 . S
C336 C337 1.424 . S
C337 H329 0.951 . S
C337 C336 1.424 . S
C337 C338 1.347 . S
C338 H330 0.951 . S
C338 C333 1.429 . S
C338 C337 1.347 . S
H339 C340 0.951 . S
C340 H339 0.951 . S
C340 C346 1.265 . S
H341 C346 0.950 . S
H342 C350 0.949 . S
H343 C351 0.950 . S
H344 C352 0.951 . S
H345 C353 0.951 . S
C346 C340 1.265 . S
C346 H341 0.950 . S
C346 C347 1.478 . S
C347 C334 1.394 . S
C347 C346 1.478 . S
C347 C348 1.397 . S
C348 C347 1.397 . S
C348 C349 1.438 . S
C348 C353 1.429 . S
C349 C332 1.394 . S
C349 C348 1.438 . S
C349 C350 1.428 . S
C350 H342 0.949 . S
C350 C349 1.428 . S
C350 C351 1.345 . S
C351 H343 0.950 . S
C351 C350 1.345 . S
C351 C352 1.424 . S
C352 H344 0.951 . S
C352 C351 1.424 . S
C352 C353 1.347 . S
C353 H345 0.951 . S
C353 C348 1.429 . S
C353 C352 1.347 . S
H354 C355 0.951 . S
C355 H354 0.951 . S
C355 C361 1.265 . S
H356 C361 0.950 . S
H357 C365 0.949 . S
H358 C366 0.950 . S
H359 C367 0.951 . S
H360 C368 0.951 . S
C361 C355 1.265 . S
C361 H356 0.950 . S
C361 C362 1.478 . S
C362 C361 1.478 . S
C362 C363 1.397 . S
C362 C379 1.394 . S
C363 C362 1.397 . S
C363 C364 1.438 . S
C363 C368 1.429 . S
C364 C363 1.438 . S
C364 C365 1.428 . S
C364 C377 1.394 . S
C365 H357 0.949 . S
C365 C364 1.428 . S
C365 C366 1.345 . S
C366 H358 0.950 . S
C366 C365 1.345 . S
C366 C367 1.424 . S
C367 H359 0.951 . S
C367 C366 1.424 . S
C367 C368 1.347 . S
C368 H360 0.951 . S
C368 C363 1.429 . S
C368 C367 1.347 . S
H369 C370 0.951 . S
C370 H369 0.951 . S
C370 C376 1.265 . S
H371 C376 0.950 . S
H372 C380 0.949 . S
H373 C381 0.950 1_565 S
H374 C382 0.951 . S
H375 C383 0.951 . S
C376 C370 1.265 . S
C376 H371 0.950 . S
C376 C377 1.478 . S
C377 C364 1.394 . S
C377 C376 1.478 . S
C377 C378 1.397 . S
C378 C377 1.397 . S
C378 C379 1.438 . S
C378 C383 1.429 . S
C379 C362 1.394 . S
C379 C378 1.438 . S
C379 C380 1.428 . S
C380 H372 0.949 . S
C380 C379 1.428 . S
C380 C381 1.345 . S
C381 H373 0.950 1_545 S
C381 C380 1.345 . S
C381 C382 1.424 . S
C382 H374 0.951 . S
C382 C381 1.424 . S
C382 C383 1.347 . S
C383 H375 0.951 . S
C383 C378 1.429 . S
C383 C382 1.347 . S
H384 C385 0.951 . S
C385 H384 0.951 . S
C385 C391 1.265 . S
H386 C391 0.950 . S
H387 C395 0.949 . S
H388 C396 0.950 . S
H389 C397 0.951 . S
H390 C398 0.951 . S
C391 C385 1.265 . S
C391 H386 0.950 . S
C391 C392 1.478 . S
C392 C391 1.478 . S
C392 C393 1.397 . S
C392 C409 1.394 . S
C393 C392 1.397 . S
C393 C394 1.438 . S
C393 C398 1.429 . S
C394 C393 1.438 . S
C394 C395 1.428 . S
C394 C407 1.394 . S
C395 H387 0.949 . S
C395 C394 1.428 . S
C395 C396 1.345 . S
C396 H388 0.950 . S
C396 C395 1.345 . S
C396 C397 1.424 . S
C397 H389 0.951 . S
C397 C396 1.424 . S
C397 C398 1.347 . S
C398 H390 0.951 . S
C398 C393 1.429 . S
C398 C397 1.347 . S
H399 C400 0.951 . S
C400 H399 0.951 . S
C400 C406 1.265 . S
H401 C406 0.950 . S
H402 C410 0.949 . S
H403 C411 0.950 . S
H404 C412 0.951 . S
H405 C413 0.951 . S
C406 C400 1.265 . S
C406 H401 0.950 . S
C406 C407 1.478 . S
C407 C394 1.394 . S
C407 C406 1.478 . S
C407 C408 1.397 . S
C408 C407 1.397 . S
C408 C409 1.438 . S
C408 C413 1.429 . S
C409 C392 1.394 . S
C409 C408 1.438 . S
C409 C410 1.428 . S
C410 H402 0.949 . S
C410 C409 1.428 . S
C410 C411 1.345 . S
C411 H403 0.950 . S
C411 C410 1.345 . S
C411 C412 1.424 . S
C412 H404 0.951 . S
C412 C411 1.424 . S
C412 C413 1.347 . S
C413 H405 0.951 . S
C413 C408 1.429 . S
C413 C412 1.347 . S
H414 C415 0.951 . S
C415 H414 0.951 . S
C415 C421 1.265 . S
H416 C421 0.950 . S
H417 C425 0.949 . S
H418 C426 0.950 . S
H419 C427 0.951 . S
H420 C428 0.951 . S
C421 C415 1.265 . S
C421 H416 0.950 . S
C421 C422 1.478 . S
C422 C421 1.478 . S
C422 C423 1.397 . S
C422 C439 1.394 . S
C423 C422 1.397 . S
C423 C424 1.438 . S
C423 C428 1.429 . S
C424 C423 1.438 . S
C424 C425 1.428 . S
C424 C437 1.394 . S
C425 H417 0.949 . S
C425 C424 1.428 . S
C425 C426 1.345 . S
C426 H418 0.950 . S
C426 C425 1.345 . S
C426 C427 1.424 . S
C427 H419 0.951 . S
C427 C426 1.424 . S
C427 C428 1.347 . S
C428 H420 0.951 . S
C428 C423 1.429 . S
C428 C427 1.347 . S
H429 C430 0.951 . S
C430 H429 0.951 . S
C430 C436 1.265 . S
H431 C436 0.950 . S
H432 C440 0.949 . S
H433 C441 0.950 . S
H434 C442 0.951 . S
H435 C443 0.951 . S
C436 C430 1.265 . S
C436 H431 0.950 . S
C436 C437 1.478 . S
C437 C424 1.394 . S
C437 C436 1.478 . S
C437 C438 1.397 . S
C438 C437 1.397 . S
C438 C439 1.438 . S
C438 C443 1.429 . S
C439 C422 1.394 . S
C439 C438 1.438 . S
C439 C440 1.428 . S
C440 H432 0.949 . S
C440 C439 1.428 . S
C440 C441 1.345 . S
C441 H433 0.950 . S
C441 C440 1.345 . S
C441 C442 1.424 . S
C442 H434 0.951 . S
C442 C441 1.424 . S
C442 C443 1.347 . S
C443 H435 0.951 . S
C443 C438 1.429 . S
C443 C442 1.347 . S
C85 C18 1.413 . S
C100 C61 1.340 . S
C115 C35 1.514 . S
C130 C67 1.339 . S
C145 C15 1.377 . S
C160 C58 1.208 . S
C175 C38 1.565 . S
C190 C83 1.457 . S
C205 C13 1.296 . S
C220 C49 1.355 . S
C250 C66 1.405 . S
C235 C37 1.355 . S
C265 C39 1.401 . S
C280 C62 1.273 . S
C310 C79 1.323 . S
C295 C16 1.185 . S
C340 C46 1.406 . S
C325 C34 1.285 . S
C370 C82 1.368 . S
C355 C17 1.492 . S
C400 C45 1.180 . S
C385 C36 1.375 . S
C430 C70 1.340 . S
C415 C14 1.521 . S
