# Generated by pormake.
# Topology myd, (4,6)-cn, num edge types: 1
# Building blocks:
#     Node 0, Type 0, BuildingBlock: KOZSID_clean_sbu_0, # of connection points: 4
#     Node 1, Type 0, BuildingBlock: KOZSID_clean_sbu_0, # of connection points: 4
#     Node 2, Type 0, BuildingBlock: KOZSID_clean_sbu_0, # of connection points: 4
#     Node 3, Type 0, BuildingBlock: KOZSID_clean_sbu_0, # of connection points: 4
#     Node 4, Type 0, BuildingBlock: KOZSID_clean_sbu_0, # of connection points: 4
#     Node 5, Type 0, BuildingBlock: KOZSID_clean_sbu_0, # of connection points: 4
#     Node 6, Type 0, BuildingBlock: KOZSID_clean_sbu_0, # of connection points: 4
#     Node 7, Type 0, BuildingBlock: KOZSID_clean_sbu_0, # of connection points: 4
#     Node 8, Type 0, BuildingBlock: KOZSID_clean_sbu_0, # of connection points: 4
#     Node 9, Type 0, BuildingBlock: KOZSID_clean_sbu_0, # of connection points: 4
#     Node 10, Type 0, BuildingBlock: KOZSID_clean_sbu_0, # of connection points: 4
#     Node 11, Type 0, BuildingBlock: KOZSID_clean_sbu_0, # of connection points: 4
#     Node 12, Type 1, BuildingBlock: FUNLAD_clean_sbu_0, # of connection points: 6
#     Node 13, Type 1, BuildingBlock: FUNLAD_clean_sbu_0, # of connection points: 6
#     Node 14, Type 1, BuildingBlock: FUNLAD_clean_sbu_0, # of connection points: 6
#     Node 15, Type 1, BuildingBlock: FUNLAD_clean_sbu_0, # of connection points: 6
#     Node 16, Type 1, BuildingBlock: FUNLAD_clean_sbu_0, # of connection points: 6
#     Node 17, Type 1, BuildingBlock: FUNLAD_clean_sbu_0, # of connection points: 6
#     Node 18, Type 1, BuildingBlock: FUNLAD_clean_sbu_0, # of connection points: 6
#     Node 19, Type 1, BuildingBlock: FUNLAD_clean_sbu_0, # of connection points: 6
#     Edge 20, Type (0, 1), BuildingBlock: AJUNOK_clean_linker_0, # of connection points: 2
#     Edge 21, Type (0, 1), BuildingBlock: AJUNOK_clean_linker_0, # of connection points: 2
#     Edge 22, Type (0, 1), BuildingBlock: AJUNOK_clean_linker_0, # of connection points: 2
#     Edge 23, Type (0, 1), BuildingBlock: AJUNOK_clean_linker_0, # of connection points: 2
#     Edge 24, Type (0, 1), BuildingBlock: AJUNOK_clean_linker_0, # of connection points: 2
#     Edge 25, Type (0, 1), BuildingBlock: AJUNOK_clean_linker_0, # of connection points: 2
#     Edge 26, Type (0, 1), BuildingBlock: AJUNOK_clean_linker_0, # of connection points: 2
#     Edge 27, Type (0, 1), BuildingBlock: AJUNOK_clean_linker_0, # of connection points: 2
#     Edge 28, Type (0, 1), BuildingBlock: AJUNOK_clean_linker_0, # of connection points: 2
#     Edge 29, Type (0, 1), BuildingBlock: AJUNOK_clean_linker_0, # of connection points: 2
#     Edge 30, Type (0, 1), BuildingBlock: AJUNOK_clean_linker_0, # of connection points: 2
#     Edge 31, Type (0, 1), BuildingBlock: AJUNOK_clean_linker_0, # of connection points: 2
#     Edge 32, Type (0, 1), BuildingBlock: AJUNOK_clean_linker_0, # of connection points: 2
#     Edge 33, Type (0, 1), BuildingBlock: AJUNOK_clean_linker_0, # of connection points: 2
#     Edge 34, Type (0, 1), BuildingBlock: AJUNOK_clean_linker_0, # of connection points: 2
#     Edge 35, Type (0, 1), BuildingBlock: AJUNOK_clean_linker_0, # of connection points: 2
#     Edge 36, Type (0, 1), BuildingBlock: AJUNOK_clean_linker_0, # of connection points: 2
#     Edge 37, Type (0, 1), BuildingBlock: AJUNOK_clean_linker_0, # of connection points: 2
#     Edge 38, Type (0, 1), BuildingBlock: AJUNOK_clean_linker_0, # of connection points: 2
#     Edge 39, Type (0, 1), BuildingBlock: AJUNOK_clean_linker_0, # of connection points: 2
#     Edge 40, Type (0, 1), BuildingBlock: AJUNOK_clean_linker_0, # of connection points: 2
#     Edge 41, Type (0, 1), BuildingBlock: AJUNOK_clean_linker_0, # of connection points: 2
#     Edge 42, Type (0, 1), BuildingBlock: AJUNOK_clean_linker_0, # of connection points: 2
#     Edge 43, Type (0, 1), BuildingBlock: AJUNOK_clean_linker_0, # of connection points: 2
#     Edge 44, Type (0, 1), BuildingBlock: AJUNOK_clean_linker_0, # of connection points: 2
#     Edge 45, Type (0, 1), BuildingBlock: AJUNOK_clean_linker_0, # of connection points: 2
#     Edge 46, Type (0, 1), BuildingBlock: AJUNOK_clean_linker_0, # of connection points: 2
#     Edge 47, Type (0, 1), BuildingBlock: AJUNOK_clean_linker_0, # of connection points: 2
#     Edge 48, Type (0, 1), BuildingBlock: AJUNOK_clean_linker_0, # of connection points: 2
#     Edge 49, Type (0, 1), BuildingBlock: AJUNOK_clean_linker_0, # of connection points: 2
#     Edge 50, Type (0, 1), BuildingBlock: AJUNOK_clean_linker_0, # of connection points: 2
#     Edge 51, Type (0, 1), BuildingBlock: AJUNOK_clean_linker_0, # of connection points: 2
#     Edge 52, Type (0, 1), BuildingBlock: AJUNOK_clean_linker_0, # of connection points: 2
#     Edge 53, Type (0, 1), BuildingBlock: AJUNOK_clean_linker_0, # of connection points: 2
#     Edge 54, Type (0, 1), BuildingBlock: AJUNOK_clean_linker_0, # of connection points: 2
#     Edge 55, Type (0, 1), BuildingBlock: AJUNOK_clean_linker_0, # of connection points: 2
#     Edge 56, Type (0, 1), BuildingBlock: AJUNOK_clean_linker_0, # of connection points: 2
#     Edge 57, Type (0, 1), BuildingBlock: AJUNOK_clean_linker_0, # of connection points: 2
#     Edge 58, Type (0, 1), BuildingBlock: AJUNOK_clean_linker_0, # of connection points: 2
#     Edge 59, Type (0, 1), BuildingBlock: AJUNOK_clean_linker_0, # of connection points: 2
#     Edge 60, Type (0, 1), BuildingBlock: AJUNOK_clean_linker_0, # of connection points: 2
#     Edge 61, Type (0, 1), BuildingBlock: AJUNOK_clean_linker_0, # of connection points: 2
#     Edge 62, Type (0, 1), BuildingBlock: AJUNOK_clean_linker_0, # of connection points: 2
#     Edge 63, Type (0, 1), BuildingBlock: AJUNOK_clean_linker_0, # of connection points: 2
#     Edge 64, Type (0, 1), BuildingBlock: AJUNOK_clean_linker_0, # of connection points: 2
#     Edge 65, Type (0, 1), BuildingBlock: AJUNOK_clean_linker_0, # of connection points: 2
#     Edge 66, Type (0, 1), BuildingBlock: AJUNOK_clean_linker_0, # of connection points: 2
#     Edge 67, Type (0, 1), BuildingBlock: AJUNOK_clean_linker_0, # of connection points: 2
# Relax obj value: 0.268
# Max RMSD: 0.242
# Mean RMSD: 0.155
data_MOF--net-myd--node1-KOZSID_clean_sbu_0--node2-FUNLAD_clean_sbu_0--edge1-AJUNOK_clean_linker_0
_symmetry_space_group_name_H-M    P1
_symmetry_Int_Tables_number       1
_symmetry_cell_setting            triclinic
loop_
_symmetry_equiv_pos_as_xyz
'x, y, z'
_cell_length_a     38.659892
_cell_length_b     38.390116
_cell_length_c     43.546172
_cell_angle_alpha  85.1591
_cell_angle_beta   82.42205
_cell_angle_gamma 90.501932
loop_
_atom_site_label
_atom_site_type_symbol
_atom_site_fract_x
_atom_site_fract_y
_atom_site_fract_z
_atom_type_partial_charge
C0 C 0.99035 0.32212 0.3966 0.0
C1 C 0.95709 0.33113 0.40905 0.0
C2 C 0.93444 0.30811 0.39935 0.0
C3 C 0.95512 0.28647 0.3816 0.0
N4 N 0.98961 0.29341 0.38043 0.0
Co5 Co 0.02869 0.27259 0.35346 0.0
N6 N 0.99565 0.24698 0.33118 0.0
C7 C 0.96068 0.24378 0.33912 0.0
C8 C 0.94481 0.22352 0.32035 0.0
C9 C 0.97127 0.21288 0.29942 0.0
C10 C 1.00195 0.2272 0.30669 0.0
N11 N 0.06813 0.25402 0.32524 0.0
C12 C 0.06777 0.23475 0.30058 0.0
C13 C 0.10142 0.22755 0.28748 0.0
C14 C 0.12371 0.24289 0.30442 0.0
C15 C 0.10256 0.25856 0.3268 0.0
N16 N 0.06141 0.29763 0.37653 0.0
C17 C 0.09627 0.29369 0.37461 0.0
C18 C 0.11215 0.31696 0.39079 0.0
C19 C 0.08606 0.33763 0.40287 0.0
C20 C 0.05547 0.32562 0.39357 0.0
N21 N 0.02868 0.22944 0.38288 0.0
C22 C 0.0217 0.15718 0.40132 0.0
C23 C 0.05423 0.17238 0.38974 0.0
C24 C 0.0573 0.20844 0.38168 0.0
C25 C 0.99378 0.17949 0.40766 0.0
C26 C 0.99808 0.21544 0.39899 0.0
N27 N 0.02829 0.31386 0.32361 0.0
C28 C 0.05901 0.3586 0.28788 0.0
C29 C 0.02831 0.36685 0.27535 0.0
C30 C 0.99736 0.34938 0.28853 0.0
C31 C 0.99787 0.32338 0.31267 0.0
C32 C 0.05841 0.33216 0.31203 0.0
H33 H 0.97362 0.31034 0.32149 0.0
H34 H 0.08265 0.32605 0.32044 0.0
H35 H 0.08292 0.21832 0.37338 0.0
H36 H 0.97584 0.23099 0.40454 0.0
C37 C 0.94326 0.26263 0.36248 0.0
C38 C 0.02178 0.34292 0.39884 0.0
C39 C 0.03641 0.22113 0.28984 0.0
C40 C 0.11393 0.27585 0.35078 0.0
H41 H 0.94999 0.35306 0.42249 0.0
H42 H 0.90621 0.30859 0.40309 0.0
H43 H 0.91722 0.2177 0.32139 0.0
H44 H 0.9683 0.19647 0.28088 0.0
H45 H 0.10913 0.21213 0.26812 0.0
H46 H 0.15193 0.24211 0.30119 0.0
H47 H 0.13988 0.32089 0.39104 0.0
H48 H 0.0898 0.36021 0.41536 0.0
H49 H 0.07716 0.15641 0.38633 0.0
H50 H 0.96834 0.16918 0.418 0.0
H51 H 0.08351 0.3717 0.27843 0.0
H52 H 0.97306 0.35435 0.27923 0.0
C53 C 0.9947 0.7022 0.12105 0.0
C54 C 0.96309 0.69458 0.11095 0.0
C55 C 0.93821 0.71229 0.12813 0.0
C56 C 0.95589 0.72957 0.1477 0.0
N57 N 0.99066 0.72426 0.14399 0.0
Co58 Co 0.02596 0.74407 0.16808 0.0
N59 N 0.98863 0.76726 0.19506 0.0
C60 C 0.95379 0.76526 0.19444 0.0
C61 C 0.93485 0.7853 0.21488 0.0
C62 C 0.95906 0.80132 0.22925 0.0
C63 C 0.99149 0.78983 0.21677 0.0
N64 N 0.06154 0.76458 0.19113 0.0
C65 C 0.05741 0.78733 0.21327 0.0
C66 C 0.08907 0.79575 0.22298 0.0
C67 C 0.11419 0.77853 0.20556 0.0
C68 C 0.09651 0.7605 0.1865 0.0
N69 N 0.06298 0.71966 0.14145 0.0
C70 C 0.09769 0.72002 0.14304 0.0
C71 C 0.11642 0.69981 0.12256 0.0
C72 C 0.09221 0.68515 0.10722 0.0
C73 C 0.06001 0.69731 0.11933 0.0
N74 N 0.03156 0.78755 0.13869 0.0
C75 C 0.04256 0.85898 0.11597 0.0
C76 C 0.07021 0.8356 0.1153 0.0
C77 C 0.06419 0.80033 0.12642 0.0
C78 C 1.00885 0.84491 0.12511 0.0
C79 C 1.00394 0.80928 0.13566 0.0
N80 N 0.02053 0.70211 0.19933 0.0
C81 C 0.04446 0.66824 0.24104 0.0
C82 C 1.01132 0.65579 0.25479 0.0
C83 C 0.98318 0.66514 0.23856 0.0
C84 C 0.9883 0.68801 0.21118 0.0
C85 C 0.04849 0.69016 0.21327 0.0
H86 H 0.96563 0.69484 0.20052 0.0
H87 H 0.07452 0.69833 0.20424 0.0
H88 H 0.08659 0.78429 0.12629 0.0
H89 H 0.97763 0.8002 0.14257 0.0
C90 C 0.94013 0.74812 0.1717 0.0
C91 C 0.02737 0.6861 0.10952 0.0
C92 C 0.02435 0.80243 0.22493 0.0
C93 C 0.11192 0.73952 0.16408 0.0
H94 H 0.95825 0.67723 0.09359 0.0
H95 H 0.91036 0.71161 0.12725 0.0
H96 H 0.90694 0.78915 0.21786 0.0
H97 H 0.95344 0.82024 0.2462 0.0
H98 H 0.09367 0.81298 0.24052 0.0
H99 H 0.14203 0.77936 0.20645 0.0
H100 H 0.14432 0.69591 0.1194 0.0
H101 H 0.09753 0.66721 0.08936 0.0
H102 H 0.09676 0.84479 0.10757 0.0
H103 H 0.98632 0.8614 0.12459 0.0
H104 H 0.06741 0.66265 0.2522 0.0
H105 H 0.95701 0.65555 0.24729 0.0
C106 C 0.3747 0.98737 0.27724 0.0
C107 C 0.3856 0.9548 0.2881 0.0
C108 C 0.372 0.93088 0.27129 0.0
C109 C 0.3534 0.95001 0.25133 0.0
N110 N 0.35485 0.98484 0.25389 0.0
Co111 Co 0.32829 0.02168 0.23172 0.0
N112 N 0.30367 0.98591 0.21078 0.0
C113 C 0.30752 0.95086 0.214 0.0
C114 C 0.2889 0.93304 0.19543 0.0
C115 C 0.27256 0.95822 0.17895 0.0
C116 C 0.28211 0.9901 0.18851 0.0
N117 N 0.3018 0.05857 0.20969 0.0
C118 C 0.28033 0.05597 0.18763 0.0
C119 C 0.26819 0.08844 0.17783 0.0
C120 C 0.28321 0.11245 0.19359 0.0
C121 C 0.30342 0.09342 0.21218 0.0
N122 N 0.35291 0.05741 0.25264 0.0
C123 C 0.34997 0.09253 0.24874 0.0
C124 C 0.36876 0.11031 0.26722 0.0
C125 C 0.38401 0.08503 0.28453 0.0
C126 C 0.37344 0.05317 0.27567 0.0
N127 N 0.36597 0.02568 0.19512 0.0
C128 C 0.40893 0.03132 0.13664 0.0
C129 C 0.39846 0.06104 0.15167 0.0
C130 C 0.37734 0.05767 0.18065 0.0
C131 C 0.3992 0.99873 0.15234 0.0
C132 C 0.37843 0.99652 0.18144 0.0
N133 N 0.29032 0.0176 0.268 0.0
C134 C 0.25084 0.04399 0.30731 0.0
C135 C 0.23813 1.01117 0.32082 0.0
C136 C 0.25225 0.98173 0.30736 0.0
C137 C 0.27787 0.98547 0.28126 0.0
C138 C 0.27661 0.04658 0.28116 0.0
H139 H 0.28723 0.96189 0.27223 0.0
H140 H 0.28518 0.07234 0.27207 0.0
H141 H 0.36959 0.08138 0.19038 0.0
H142 H 0.37195 0.97087 0.19197 0.0
C143 C 0.33097 0.93575 0.2328 0.0
C144 C 0.38196 0.01967 0.29112 0.0
C145 C 0.27144 0.02365 0.1746 0.0
C146 C 0.32637 0.1077 0.23018 0.0
H147 H 0.40068 0.9487 0.30701 0.0
H148 H 0.37388 0.90272 0.27443 0.0
H149 H 0.28831 0.90516 0.19329 0.0
H150 H 0.2563 0.95369 0.1612 0.0
H151 H 0.2509 0.0943 0.16054 0.0
H152 H 0.2806 0.14056 0.19102 0.0
H153 H 0.36991 0.13825 0.26894 0.0
H154 H 0.4001 0.08945 0.30244 0.0
H155 H 0.40524 0.08695 0.14054 0.0
H156 H 0.40717 0.9749 0.14196 0.0
H157 H 0.24119 0.06767 0.31699 0.0
H158 H 0.2431 0.9557 0.31659 0.0
C159 C 0.65472 0.47825 0.21664 0.0
C160 C 0.63914 0.44625 0.21349 0.0
C161 C 0.65934 0.42113 0.22576 0.0
C162 C 0.68596 0.43914 0.23564 0.0
N163 N 0.68365 0.47424 0.23081 0.0
Co164 Co 0.71625 0.51038 0.24199 0.0
N165 N 0.74849 0.4735 0.25598 0.0
C166 C 0.74623 0.43878 0.25317 0.0
C167 C 0.77177 0.42006 0.26571 0.0
C168 C 0.79103 0.44418 0.2778 0.0
C169 C 0.77605 0.47636 0.27181 0.0
N170 N 0.74775 0.54634 0.25504 0.0
C171 C 0.77464 0.54185 0.27182 0.0
C172 C 0.78836 0.57353 0.27825 0.0
C173 C 0.76863 0.59902 0.26583 0.0
C174 C 0.74414 0.58143 0.25263 0.0
N175 N 0.6851 0.54727 0.2263 0.0
C176 C 0.6895 0.58232 0.22565 0.0
C177 C 0.66504 0.60089 0.21135 0.0
C178 C 0.64432 0.57618 0.20161 0.0
C179 C 0.65737 0.54399 0.21074 0.0
N180 N 0.68942 0.50806 0.28444 0.0
C181 C 0.65839 0.50663 0.34716 0.0
C182 C 0.65835 0.5369 0.32686 0.0
C183 C 0.67411 0.53716 0.29602 0.0
C184 C 0.67315 0.47673 0.335 0.0
C185 C 0.68766 0.4778 0.30376 0.0
N186 N 0.74361 0.51274 0.19966 0.0
C187 C 0.78449 0.54386 0.15938 0.0
C188 C 0.79139 0.5133 0.14455 0.0
C189 C 0.77169 0.48323 0.15638 0.0
C190 C 0.74815 0.48351 0.18366 0.0
C191 C 0.76034 0.5431 0.18641 0.0
H192 H 0.73482 0.4594 0.1919 0.0
H193 H 0.75661 0.5672 0.19673 0.0
H194 H 0.67426 0.56148 0.28225 0.0
H195 H 0.69824 0.45398 0.29605 0.0
C196 C 0.71608 0.42405 0.24481 0.0
C197 C 0.6444 0.51121 0.20184 0.0
C198 C 0.78566 0.50819 0.28472 0.0
C199 C 0.71692 0.59684 0.23857 0.0
H200 H 0.61663 0.44135 0.20205 0.0
H201 H 0.65619 0.39309 0.2257 0.0
H202 H 0.77443 0.39195 0.26797 0.0
H203 H 0.81235 0.43826 0.29099 0.0
H204 H 0.80955 0.57757 0.29161 0.0
H205 H 0.7711 0.62694 0.26717 0.0
H206 H 0.66301 0.62901 0.20782 0.0
H207 H 0.62264 0.5811 0.18854 0.0
H208 H 0.64689 0.56071 0.33485 0.0
H209 H 0.67488 0.45277 0.34966 0.0
H210 H 0.79903 0.56785 0.1513 0.0
H211 H 0.77551 0.45904 0.14535 0.0
C212 C 0.3433 0.39006 0.9725 0.0
C213 C 0.35254 0.40648 0.94292 0.0
C214 C 0.3269 0.39786 0.92555 0.0
C215 C 0.3033 0.37685 0.94545 0.0
N216 N 0.31258 0.37202 0.97414 0.0
Co217 Co 0.28715 0.34225 0.00946 0.0
N218 N 0.26269 0.31478 0.98187 0.0
C219 C 0.25903 0.32529 0.9522 0.0
C220 C 0.23921 0.30223 0.93906 0.0
C221 C 0.22942 0.27591 0.96205 0.0
C222 C 0.24388 0.28426 0.98809 0.0
N223 N 0.26211 0.31264 0.04537 0.0
C224 C 0.24472 0.28158 0.04644 0.0
C225 C 0.23272 0.26946 0.07701 0.0
C226 C 0.24155 0.29447 0.09538 0.0
C227 C 0.25891 0.32017 0.07525 0.0
N228 N 0.31195 0.36981 0.03679 0.0
C229 C 0.30267 0.37161 0.06748 0.0
C230 C 0.32681 0.3895 0.08085 0.0
C231 C 0.35298 0.39933 0.0572 0.0
C232 C 0.34315 0.38738 0.03032 0.0
N233 N 0.24788 0.37506 0.01144 0.0
C234 C 0.19101 0.41851 1.00206 0.0
C235 C 0.18608 0.38266 0.01032 0.0
C236 C 0.21449 0.36166 0.01507 0.0
C237 C 0.22493 0.43266 1.00065 0.0
C238 C 0.25305 0.41046 1.00531 0.0
N239 N 0.32545 0.30926 1.00632 0.0
C240 C 0.36303 0.26785 0.02938 0.0
C241 C 0.3769 0.25882 0.99982 0.0
C242 C 0.3653 0.27601 0.97372 0.0
C243 C 0.33936 0.30071 0.97746 0.0
C244 C 0.33763 0.29368 0.03212 0.0
H245 H 0.32995 0.3122 0.95683 0.0
H246 H 0.32723 0.30041 0.05502 0.0
H247 H 0.20926 0.33414 0.02045 0.0
H248 H 0.27909 0.4217 1.0029 0.0
C249 C 0.27754 0.35492 0.93677 0.0
C250 C 0.36328 0.3931 0.99892 0.0
C251 C 0.23565 0.265 0.01912 0.0
C252 C 0.27725 0.34854 0.08388 0.0
H253 H 0.37561 0.42251 0.93471 0.0
H254 H 0.32672 0.40438 0.9009 0.0
H255 H 0.23287 0.30412 0.91551 0.0
H256 H 0.21271 0.25364 0.96013 0.0
H257 H 0.21851 0.24535 0.08526 0.0
H258 H 0.23688 0.29343 0.12051 0.0
H259 H 0.32697 0.39237 0.10535 0.0
H260 H 0.37692 0.4125 0.06017 0.0
H261 H 0.16025 0.3707 0.01294 0.0
H262 H 0.22985 0.46044 0.99509 0.0
H263 H 0.37129 0.25465 0.05008 0.0
H264 H 0.37508 0.26918 0.95055 0.0
C265 C 0.27428 0.66398 0.4749 0.0
C266 C 0.27683 0.65176 0.44561 0.0
C267 C 0.30321 0.67058 0.42755 0.0
C268 C 0.31503 0.69321 0.44673 0.0
N269 N 0.29844 0.68945 0.47615 0.0
Co270 Co 0.30465 0.71935 0.51068 0.0
N271 N 0.33944 0.75077 0.48284 0.0
C272 C 0.35123 0.74741 0.4526 0.0
C273 C 0.3769 0.77118 0.44004 0.0
C274 C 0.38221 0.79074 0.46374 0.0
C275 C 0.3591 0.77791 0.48949 0.0
N276 N 0.31038 0.74956 0.54516 0.0
C277 C 0.33193 0.77756 0.5457 0.0
C278 C 0.32732 0.79115 0.57449 0.0
C279 C 0.30267 0.77051 0.59299 0.0
C280 C 0.2934 0.74576 0.57451 0.0
N281 N 0.27032 0.68757 0.53866 0.0
C282 C 0.26015 0.6892 0.56943 0.0
C283 C 0.23494 0.66477 0.58186 0.0
C284 C 0.22803 0.647 0.55741 0.0
C285 C 0.24945 0.6618 0.53145 0.0
N286 N 0.34406 0.68959 0.52285 0.0
C287 C 0.40211 0.65201 0.54165 0.0
C288 C 0.37417 0.66078 0.56323 0.0
C289 C 0.34606 0.67951 0.55353 0.0
C290 C 0.39958 0.66104 0.51017 0.0
C291 C 0.37057 0.67955 0.50135 0.0
N292 N 0.26512 0.74899 0.49871 0.0
C293 C 0.20811 0.77356 0.51278 0.0
C294 C 0.20738 0.78932 0.48268 0.0
C295 C 0.23593 0.78339 0.46039 0.0
C296 C 0.26419 0.7632 0.46877 0.0
C297 C 0.23699 0.75451 0.52032 0.0
H298 H 0.28508 0.75946 0.45072 0.0
H299 H 0.2358 0.74438 0.54394 0.0
H300 H 0.32648 0.6859 0.57153 0.0
H301 H 0.37043 0.68588 0.47704 0.0
C302 C 0.33902 0.72048 0.43706 0.0
C303 C 0.24679 0.65278 0.50007 0.0
C304 C 0.35771 0.79164 0.51993 0.0
C305 C 0.27093 0.71716 0.58474 0.0
H306 H 0.26048 0.63227 0.43772 0.0
H307 H 0.31156 0.66916 0.40297 0.0
H308 H 0.39083 0.77335 0.41668 0.0
H309 H 0.40154 0.81156 0.46233 0.0
H310 H 0.34085 0.81329 0.58159 0.0
H311 H 0.29329 0.77274 0.61727 0.0
H312 H 0.22168 0.66165 0.60545 0.0
H313 H 0.20836 0.62658 0.55819 0.0
H314 H 0.37394 0.65341 0.58782 0.0
H315 H 0.42029 0.65464 0.49238 0.0
H316 H 0.18636 0.77594 0.53084 0.0
H317 H 0.23683 0.79477 0.43668 0.0
C318 C 0.82053 0.84853 0.46709 0.0
C319 C 0.82722 0.85787 0.43535 0.0
C320 C 0.7988 0.84669 0.42255 0.0
C321 C 0.77636 0.83082 0.44694 0.0
N322 N 0.789 0.83147 0.47419 0.0
Co323 Co 0.76721 0.80768 0.51449 0.0
N324 N 0.73778 0.77601 0.49441 0.0
C325 C 0.73036 0.78173 0.46507 0.0
C326 C 0.70761 0.75707 0.45766 0.0
C327 C 0.69981 0.73481 0.48414 0.0
C328 C 0.71839 0.747 0.50639 0.0
N329 N 0.74623 0.78416 0.55527 0.0
C330 C 0.72726 0.75385 0.56229 0.0
C331 C 0.71887 0.74717 0.59429 0.0
C332 C 0.73157 0.77488 0.60753 0.0
C333 C 0.7475 0.79669 0.5831 0.0
N334 N 0.79645 0.83947 0.53445 0.0
C335 C 0.79072 0.84727 0.56417 0.0
C336 C 0.81568 0.86972 0.5715 0.0
C337 C 0.83867 0.87616 0.54474 0.0
C338 C 0.82654 0.85701 0.52259 0.0
N339 N 0.7287 0.84167 0.51615 0.0
C340 C 0.67169 0.88592 0.50832 0.0
C341 C 0.66646 0.85108 0.52051 0.0
C342 C 0.69497 0.82972 0.52449 0.0
C343 C 0.70632 0.89876 0.5018 0.0
C344 C 0.73441 0.8762 0.50568 0.0
N345 N 0.80495 0.77365 0.51151 0.0
C346 C 0.85175 0.74171 0.53185 0.0
C347 C 0.86108 0.72783 0.50311 0.0
C348 C 0.84147 0.73707 0.47907 0.0
C349 C 0.8136 0.75953 0.48378 0.0
C350 C 0.82364 0.76482 0.53552 0.0
H351 H 0.79927 0.76571 0.46457 0.0
H352 H 0.81717 0.77571 0.55757 0.0
H353 H 0.68939 0.80301 0.53339 0.0
H354 H 0.76075 0.88641 0.49934 0.0
C355 C 0.74835 0.80805 0.44441 0.0
C356 C 0.8436 0.85678 0.49034 0.0
C357 C 0.7136 0.73293 0.53944 0.0
C358 C 0.76727 0.82681 0.58565 0.0
H359 H 0.8504 0.87055 0.42251 0.0
H360 H 0.79608 0.8478 0.39807 0.0
H361 H 0.69807 0.75522 0.43557 0.0
H362 H 0.68174 0.71273 0.48699 0.0
H363 H 0.70452 0.72495 0.60691 0.0
H364 H 0.73002 0.77831 0.63209 0.0
H365 H 0.81818 0.87854 0.59408 0.0
H366 H 0.862 0.89252 0.542 0.0
H367 H 0.64029 0.84022 0.52692 0.0
H368 H 0.71168 0.92573 0.49291 0.0
H369 H 0.86619 0.73505 0.55114 0.0
H370 H 0.84727 0.72646 0.45672 0.0
C371 C 0.50414 0.84791 0.91145 0.0
C372 C 0.47263 0.85983 0.92536 0.0
C373 C 0.44738 0.83694 0.91972 0.0
C374 C 0.46487 0.81234 0.90288 0.0
N375 N 0.49983 0.81767 0.89824 0.0
Co376 Co 0.53511 0.79021 0.87295 0.0
N377 N 0.49788 0.76336 0.85625 0.0
C378 C 0.463 0.76654 0.86354 0.0
C379 C 0.44377 0.74624 0.84734 0.0
C380 C 0.46777 0.72909 0.82853 0.0
C381 C 0.50047 0.73961 0.83458 0.0
N382 N 0.57058 0.76233 0.84808 0.0
C383 C 0.56643 0.73735 0.82845 0.0
C384 C 0.59818 0.72308 0.81771 0.0
C385 C 0.62322 0.73995 0.83056 0.0
C386 C 0.60549 0.76328 0.84861 0.0
N387 N 0.57221 0.81828 0.88858 0.0
C388 C 0.60706 0.81383 0.88322 0.0
C389 C 0.62616 0.83978 0.89339 0.0
C390 C 0.60212 0.86278 0.90507 0.0
C391 C 0.56961 0.84935 0.90154 0.0
N392 N 0.53446 0.75356 0.90827 0.0
C393 C 0.53621 0.68532 0.93577 0.0
C394 C 0.56667 0.70579 0.92932 0.0
C395 C 0.565 0.74023 0.91655 0.0
C396 C 0.50439 0.70123 0.93335 0.0
C397 C 0.50412 0.73565 0.92015 0.0
N398 N 0.53569 0.8256 0.8376 0.0
C399 C 0.5664 0.85566 0.79107 0.0
C400 C 0.53502 0.8685 0.7829 0.0
C401 C 0.50438 0.86168 0.8032 0.0
C402 C 0.50526 0.84012 0.83036 0.0
C403 C 0.56622 0.83467 0.81878 0.0
H404 H 0.48089 0.83448 0.84458 0.0
H405 H 0.59076 0.82493 0.82402 0.0
H406 H 0.58899 0.75462 0.91174 0.0
H407 H 0.47917 0.74614 0.9179 0.0
C408 C 0.44914 0.789 0.88561 0.0
C409 C 0.537 0.86785 0.90871 0.0
C410 C 0.53315 0.72617 0.81932 0.0
C411 C 0.62099 0.78782 0.86483 0.0
H412 H 0.46825 0.88368 0.93679 0.0
H413 H 0.41943 0.83957 0.92506 0.0
H414 H 0.41564 0.74431 0.84886 0.0
H415 H 0.46179 0.7109 0.81221 0.0
H416 H 0.60284 0.7026 0.80213 0.0
H417 H 0.65109 0.73595 0.82691 0.0
H418 H 0.65428 0.8428 0.89079 0.0
H419 H 0.60803 0.88733 0.91391 0.0
H420 H 0.5918 0.69461 0.93221 0.0
H421 H 0.48009 0.68643 0.93927 0.0
H422 H 0.59059 0.8606 0.77558 0.0
H423 H 0.4796 0.87127 0.79727 0.0
C424 C 0.5525 0.30895 0.65515 0.0
C425 C 0.58556 0.31907 0.64067 0.0
C426 C 0.60624 0.29013 0.64316 0.0
C427 C 0.58473 0.26383 0.65889 0.0
N428 N 0.55193 0.27465 0.66604 0.0
Co429 Co 0.51346 0.24682 0.69129 0.0
N430 N 0.54585 0.21546 0.71123 0.0
C431 C 0.57917 0.21035 0.69939 0.0
C432 C 0.59533 0.18668 0.71799 0.0
C433 C 0.57048 0.1763 0.7428 0.0
C434 C 0.54042 0.19439 0.73816 0.0
N435 N 0.47473 0.21965 0.71699 0.0
C436 C 0.47471 0.19878 0.74389 0.0
C437 C 0.44101 0.18665 0.75488 0.0
C438 C 0.41986 0.19969 0.73371 0.0
C439 C 0.44146 0.2194 0.71107 0.0
N440 N 0.48168 0.27889 0.67118 0.0
C441 C 0.4478 0.27223 0.66969 0.0
C442 C 0.43161 0.30095 0.65741 0.0
C443 C 0.45687 0.32709 0.65117 0.0
C444 C 0.48742 0.31293 0.65978 0.0
N445 N 0.51258 0.21463 0.65861 0.0
C446 C 0.50931 0.16681 0.61377 0.0
C447 C 0.51371 0.20272 0.60489 0.0
C448 C 0.5152 0.22631 0.62778 0.0
C449 C 0.5071 0.15539 0.64525 0.0
C450 C 0.50891 0.17951 0.66715 0.0
N451 N 0.51408 0.27785 0.72361 0.0
C452 C 0.48449 0.31837 0.75621 0.0
C453 C 0.51654 0.32898 0.76392 0.0
C454 C 0.54707 0.31255 0.75251 0.0
C455 C 0.54527 0.28697 0.7323 0.0
C456 C 0.4838 0.29227 0.73612 0.0
H457 H 0.56923 0.27555 0.72275 0.0
H458 H 0.45897 0.28462 0.72987 0.0
H459 H 0.51812 0.25396 0.62069 0.0
H460 H 0.50699 0.16955 0.6912 0.0
C461 C 0.59569 0.23294 0.67437 0.0
C462 C 0.52166 0.33171 0.65714 0.0
C463 C 0.50648 0.18884 0.7582 0.0
C464 C 0.43076 0.24354 0.68809 0.0
H465 H 0.59393 0.34477 0.62999 0.0
H466 H 0.63414 0.28921 0.63633 0.0
H467 H 0.62232 0.17891 0.71461 0.0
H468 H 0.57402 0.15742 0.76199 0.0
H469 H 0.43225 0.1705 0.77605 0.0
H470 H 0.39178 0.1967 0.73561 0.0
H471 H 0.40406 0.30364 0.65576 0.0
H472 H 0.45269 0.35368 0.64243 0.0
H473 H 0.51535 0.21244 0.58065 0.0
H474 H 0.50365 0.12784 0.65294 0.0
H475 H 0.46045 0.33035 0.76531 0.0
H476 H 0.57229 0.32039 0.75823 0.0
C477 C 0.88704 0.49129 0.77766 0.0
C478 C 0.90301 0.46067 0.78688 0.0
C479 C 0.89128 0.43507 0.77035 0.0
C480 C 0.8687 0.45136 0.75217 0.0
N481 N 0.86569 0.48559 0.75615 0.0
Co482 Co 0.83367 0.51844 0.73692 0.0
N483 N 0.80423 0.47952 0.72631 0.0
C484 C 0.81362 0.4458 0.72593 0.0
C485 C 0.78914 0.42484 0.71602 0.0
C486 C 0.76299 0.4468 0.70907 0.0
C487 C 0.77302 0.48007 0.71516 0.0
N488 N 0.80194 0.5519 0.71783 0.0
C489 C 0.77066 0.54638 0.70793 0.0
C490 C 0.75806 0.57735 0.69514 0.0
C491 C 0.78284 0.60278 0.6961 0.0
C492 C 0.809 0.58613 0.70958 0.0
N493 N 0.86339 0.55692 0.74739 0.0
C494 C 0.86477 0.59019 0.73485 0.0
C495 C 0.88724 0.61093 0.74766 0.0
C496 C 0.9006 0.5893 0.76976 0.0
C497 C 0.88535 0.5566 0.76916 0.0
N498 N 0.86244 0.51752 0.69596 0.0
C499 C 0.90136 0.51608 0.63645 0.0
C500 C 0.8649 0.5149 0.64052 0.0
C501 C 0.84622 0.51549 0.67007 0.0
C502 C 0.91811 0.51795 0.66312 0.0
C503 C 0.89817 0.51873 0.69263 0.0
N504 N 0.80469 0.51919 0.77765 0.0
C505 C 0.77224 0.55108 0.81709 0.0
C506 C 0.76189 0.51991 0.83537 0.0
C507 C 0.77412 0.48842 0.82422 0.0
C508 C 0.7954 0.48863 0.7955 0.0
C509 C 0.79358 0.55017 0.78849 0.0
H510 H 0.80384 0.4639 0.78752 0.0
H511 H 0.80076 0.57459 0.77499 0.0
H512 H 0.81842 0.51438 0.67164 0.0
H513 H 0.9116 0.52026 0.71273 0.0
C514 C 0.84426 0.43443 0.73726 0.0
C515 C 0.89261 0.5256 0.78905 0.0
C516 C 0.75482 0.51185 0.70574 0.0
C517 C 0.83913 0.60224 0.71695 0.0
H518 H 0.92061 0.45684 0.80414 0.0
H519 H 0.89673 0.40745 0.77295 0.0
H520 H 0.79019 0.39696 0.71399 0.0
H521 H 0.73983 0.4394 0.69947 0.0
H522 H 0.73412 0.58092 0.68496 0.0
H523 H 0.78187 0.63013 0.6879 0.0
H524 H 0.8917 0.63886 0.74297 0.0
H525 H 0.91889 0.59676 0.78495 0.0
H526 H 0.85057 0.51402 0.62082 0.0
H527 H 0.9463 0.51847 0.66133 0.0
H528 H 0.7635 0.57608 0.82462 0.0
H529 H 0.76618 0.46357 0.83695 0.0
C530 C 0.19349 0.05677 0.77994 0.0
C531 C 0.18521 0.08942 0.79006 0.0
C532 C 0.19753 0.1136 0.76625 0.0
C533 C 0.2121 0.09452 0.74282 0.0
N534 N 0.20925 0.05956 0.75003 0.0
Co535 Co 0.22537 0.0224 0.72201 0.0
N536 N 0.24942 0.05773 0.68932 0.0
C537 C 0.25036 0.09282 0.69042 0.0
C538 C 0.27066 0.11019 0.66551 0.0
C539 C 0.28396 0.08462 0.64764 0.0
C540 C 0.27085 0.05305 0.66271 0.0
N541 N 0.24048 0.9854 0.69345 0.0
C542 C 0.26138 0.98776 0.66568 0.0
C543 C 0.26497 0.95555 0.65352 0.0
C544 C 0.24594 0.93194 0.67446 0.0
C545 C 0.23182 0.951 0.69812 0.0
N546 N 0.20307 0.98695 0.75559 0.0
C547 C 0.20244 0.95184 0.75424 0.0
C548 C 0.19211 0.93351 0.78234 0.0
C549 C 0.18624 0.95826 0.80302 0.0
C550 C 0.19233 0.99063 0.7862 0.0
N551 N 0.18133 0.02678 0.7033 0.0
C552 C 0.12587 0.03005 0.66761 0.0
C553 C 0.13328 0.99888 0.68413 0.0
C554 C 0.16052 0.998 0.7021 0.0
C555 C 0.14424 0.06029 0.67188 0.0
C556 C 0.17168 0.05807 0.68968 0.0
N557 N 0.26861 0.01772 0.74086 0.0
C558 C 0.30077 0.98001 0.77321 0.0
C559 C 0.3094 1.00866 0.78842 0.0
C560 C 0.30259 0.04225 0.77611 0.0
C561 C 0.28268 0.04622 0.75179 0.0
C562 C 0.28082 0.98527 0.7489 0.0
H563 H 0.27634 0.07226 0.74403 0.0
H564 H 0.27307 0.96253 0.7388 0.0
H565 H 0.16511 0.9733 0.71353 0.0
H566 H 0.18542 0.08183 0.69087 0.0
C567 C 0.2322 0.10853 0.71541 0.0
C568 C 0.18809 0.02417 0.80024 0.0
C569 C 0.28018 0.01933 0.65111 0.0
C570 C 0.21508 0.93677 0.72691 0.0
H571 H 0.17262 0.09525 0.81269 0.0
H572 H 0.19719 0.14177 0.76649 0.0
H573 H 0.27563 0.13807 0.66111 0.0
H574 H 0.30159 0.0886 0.62612 0.0
H575 H 0.28061 0.94954 0.63221 0.0
H576 H 0.24408 0.90394 0.67331 0.0
H577 H 0.19084 0.90541 0.78749 0.0
H578 H 0.17937 0.95273 0.82783 0.0
H579 H 0.12003 0.97457 0.68145 0.0
H580 H 0.13895 0.08517 0.65989 0.0
H581 H 0.30682 0.95368 0.78159 0.0
H582 H 0.31036 0.06514 0.7867 0.0
C583 C 0.78978 0.18909 0.95749 0.0
C584 C 0.79188 0.17458 0.92921 0.0
C585 C 0.82224 0.18749 0.91189 0.0
C586 C 0.83678 0.2092 0.93045 0.0
N587 N 0.81748 0.21054 0.95834 0.0
Co588 Co 0.82713 0.23986 0.99174 0.0
N589 N 0.85902 0.27145 0.96212 0.0
C590 C 0.87322 0.26434 0.93341 0.0
C591 C 0.89594 0.29002 0.9188 0.0
C592 C 0.89662 0.31455 0.93978 0.0
C593 C 0.8741 0.30246 0.96618 0.0
N594 N 0.83709 0.26831 0.0257 0.0
C595 C 0.85336 0.29985 0.02431 0.0
C596 C 0.85429 0.31043 0.05396 0.0
C597 C 0.83949 0.28386 0.07454 0.0
C598 C 0.82993 0.25882 0.05646 0.0
N599 N 0.79508 0.20831 0.02096 0.0
C600 C 0.79322 0.20442 0.05209 0.0
C601 C 0.76723 0.18126 0.06573 0.0
C602 C 0.75173 0.17012 0.04158 0.0
C603 C 0.76926 0.18725 0.01465 0.0
N604 N 0.86699 0.21011 0.99962 0.0
C605 C 0.92473 0.16864 0.01005 0.0
C606 C 0.89235 0.1532 1.00735 0.0
C607 C 0.86392 0.17438 1.00184 0.0
C608 C 0.92752 0.20509 1.00743 0.0
C609 C 0.89848 0.22521 1.00262 0.0
N610 N 0.78732 0.26979 0.98366 0.0
C611 C 0.73726 0.3032 1.00231 0.0
C612 C 0.72908 0.3111 0.97195 0.0
C613 C 0.75096 0.29721 0.94771 0.0
C614 C 0.78019 0.27767 0.95392 0.0
C615 C 0.7658 0.28218 1.00766 0.0
H616 H 0.79675 0.26851 0.93449 0.0
H617 H 0.77033 0.27594 0.03137 0.0
H618 H 0.83943 0.16186 0.99943 0.0
H619 H 0.90176 0.25309 1.0015 0.0
C620 C 0.86294 0.23449 0.92025 0.0
C621 C 0.76166 0.18244 0.98332 0.0
C622 C 0.87203 0.31826 0.99595 0.0
C623 C 0.8106 0.22827 0.06748 0.0
H624 H 0.77322 0.15719 0.92158 0.0
H625 H 0.8313 0.18341 0.88789 0.0
H626 H 0.91045 0.29075 0.89572 0.0
H627 H 0.913 0.33791 0.93646 0.0
H628 H 0.86538 0.33443 0.06015 0.0
H629 H 0.83566 0.28317 0.09966 0.0
H630 H 0.7591 0.17486 0.09032 0.0
H631 H 0.72984 0.15193 0.04349 0.0
H632 H 0.88909 0.12502 0.00933 0.0
H633 H 0.95191 0.21806 0.00985 0.0
H634 H 0.7218 0.3132 0.0221 0.0
H635 H 0.74555 0.30072 0.92394 0.0
C636 C 0.16941 0.04921 0.08978 0.0
N637 N 0.13722 0.04958 0.9977 0.0
C638 C 0.17129 0.04697 0.9854 0.0
C639 C 0.18018 0.03934 0.95432 0.0
C640 C 0.15391 0.03539 0.93513 0.0
C641 C 0.11908 0.0383 0.94873 0.0
C642 C 0.11135 0.04421 0.98008 0.0
Zn643 Zn 0.12217 0.06607 0.04215 0.0
C644 C 0.07885 1.00841 0.08331 0.0
N645 N 0.08415 0.10201 0.13147 0.0
C646 C 0.10795 0.12249 0.14237 0.0
C647 C 0.0512 0.09717 0.14693 0.0
C648 C 0.04096 0.11412 0.17393 0.0
C649 C 0.06474 0.13653 0.18474 0.0
C650 C 0.09869 0.14021 0.16884 0.0
Zn651 Zn 0.09945 0.08306 0.08872 0.0
O652 O 0.16864 0.0452 0.06099 0.0
C653 C 0.14615 0.1387 0.04648 0.0
O654 O 0.14454 0.06444 0.10484 0.0
H655 H 0.03256 0.081 0.13784 0.0
H656 H 0.19171 0.0514 0.99946 0.0
H657 H 0.13405 0.12598 0.12999 0.0
O658 O 0.14968 0.11414 0.02859 0.0
O659 O 0.12592 0.13366 0.07221 0.0
H660 H 0.08434 0.0455 0.98992 0.0
O661 O 0.0534 0.101 0.07342 0.0
O662 O 0.07436 0.0889 0.0264 0.0
O663 O 0.07496 0.03154 0.10296 0.0
O664 O 0.09574 1.01686 0.0565 0.0
C665 C 0.04972 0.10057 0.045 0.0
H666 H 0.20748 0.03712 0.94537 0.0
H667 H 0.09759 0.03733 0.93526 0.0
H668 H 0.01445 0.11079 0.18556 0.0
H669 H 0.11782 0.15705 0.17661 0.0
C670 C 0.92181 0.50634 0.0613 0.0
N671 N 0.96807 0.52896 0.96687 0.0
C672 C 0.93408 0.52191 0.96393 0.0
C673 C 0.92205 0.52558 0.93507 0.0
C674 C 0.94479 0.53715 0.9083 0.0
C675 C 0.9796 0.54541 0.91184 0.0
C676 C 0.99077 0.54104 0.94145 0.0
Zn677 Zn 0.98291 0.51005 0.00973 0.0
C678 C 1.00991 0.55951 0.04797 0.0
N679 N 1.00546 0.45943 0.09539 0.0
C680 C 0.98145 0.43781 0.11339 0.0
C681 C 0.03563 0.46898 0.10571 0.0
C682 C 0.04233 0.45706 0.13547 0.0
C683 C 0.01739 0.43577 0.15474 0.0
C684 C 0.98684 0.42579 0.14342 0.0
Zn685 Zn 0.9942 0.48069 0.05364 0.0
O686 O 0.93044 0.52085 0.03388 0.0
C687 C 0.96343 0.43258 0.01649 0.0
O688 O 0.94414 0.48852 0.07402 0.0
H689 H 0.05424 0.4864 0.09107 0.0
H690 H 0.91638 0.51093 0.98362 0.0
H691 H 0.95775 0.43042 0.10469 0.0
O692 O 0.96412 0.46137 0.99994 0.0
O693 O 0.97722 0.4311 0.04152 0.0
H694 H 0.01788 0.54576 0.94379 0.0
O695 O 0.04468 0.47233 0.03427 0.0
O696 O 0.03684 0.49767 0.9886 0.0
O697 O 1.0094 0.53083 0.06503 0.0
O698 O 1.00083 0.55943 0.02085 0.0
C699 C 0.05672 0.48189 1.0064 0.0
H700 H 0.89548 0.51741 0.93365 0.0
H701 H 0.99821 0.55426 0.89184 0.0
H702 H 0.06626 0.46498 0.14362 0.0
H703 H 0.96737 0.40888 0.15769 0.0
C704 C 0.02404 1.00643 0.42475 0.0
N705 N 0.04717 0.91988 0.37407 0.0
C706 C 0.01558 0.92401 0.36385 0.0
C707 C 1.00977 0.91133 0.33601 0.0
C708 C 0.03704 0.89514 0.31865 0.0
C709 C 0.06987 0.89285 0.32874 0.0
C710 C 0.07438 0.90535 0.35697 0.0
Zn711 Zn 0.05301 0.93484 0.41579 0.0
C712 C 0.11865 0.97459 0.41238 0.0
N713 N 0.06235 0.96801 0.50371 0.0
C714 C 0.03479 0.98186 0.52107 0.0
C715 C 0.09457 0.96692 0.51289 0.0
C716 C 0.10025 0.98069 0.5403 0.0
C717 C 0.07254 0.99579 0.55833 0.0
C718 C 0.03933 0.99599 0.5488 0.0
Zn719 Zn 0.05701 0.95134 0.46191 0.0
O720 O 0.02874 0.9846 0.40419 0.0
C721 C 0.98889 0.91144 0.46168 0.0
O722 O 0.03219 0.99785 0.45148 0.0
H723 H 0.11605 0.95587 0.49866 0.0
H724 H 0.99453 0.93601 0.37784 0.0
H725 H 1.00946 0.98264 0.51307 0.0
O726 O 1.00289 0.91119 0.43368 0.0
O727 O 1.00583 0.92578 0.48071 0.0
H728 H 0.09921 0.90245 0.3657 0.0
O729 O 0.08366 0.90583 0.47318 0.0
O730 O 0.08165 0.8863 0.42785 0.0
O731 O 0.10802 0.97687 0.44118 0.0
O732 O 0.1002 0.9579 0.39658 0.0
C733 C 0.0928 0.88319 0.45433 0.0
H734 H 0.98404 0.91279 0.32873 0.0
H735 H 0.09107 0.87973 0.31584 0.0
H736 H 0.12614 0.97974 0.54728 0.0
H737 H 0.01749 1.00762 0.56219 0.0
C738 C 0.9503 0.61654 0.46338 0.0
N739 N 0.05158 0.57605 0.45504 0.0
C740 C 0.06557 0.60731 0.4419 0.0
C741 C 0.0979 0.61884 0.44854 0.0
C742 C 0.11596 0.59818 0.46911 0.0
C743 C 0.10095 0.56597 0.48226 0.0
C744 C 0.06869 0.55527 0.47472 0.0
Zn745 Zn 1.00289 0.56165 0.44653 0.0
C746 C 0.96035 0.52812 0.50525 0.0
N747 N 0.90179 0.53313 0.43014 0.0
C748 C 0.88342 0.55912 0.41702 0.0
C749 C 0.89299 0.49884 0.42927 0.0
C750 C 0.86764 0.4896 0.41125 0.0
C751 C 0.85076 0.51605 0.3952 0.0
C752 C 0.8573 0.55106 0.39958 0.0
Zn753 Zn 0.94972 0.54639 0.43998 0.0
O754 O 0.98326 0.61296 0.45814 0.0
C755 C 0.99049 0.58365 0.38138 0.0
O756 O 0.93025 0.59219 0.45796 0.0
H757 H 0.90779 0.47859 0.44004 0.0
H758 H 0.05141 0.62358 0.42654 0.0
H759 H 0.89125 0.58616 0.41732 0.0
O760 O 0.01545 0.5805 0.39774 0.0
O761 O 0.96017 0.57294 0.39362 0.0
H762 H 0.05699 0.53062 0.48507 0.0
O763 O 0.96944 0.49943 0.42263 0.0
O764 O 0.02102 0.50919 0.43602 0.0
O765 O 0.93904 0.5217 0.48636 0.0
O766 O 0.98904 0.54399 0.49468 0.0
C767 C 1.00008 0.48911 0.42508 0.0
H768 H 0.10858 0.64378 0.4378 0.0
H769 H 0.11353 0.54959 0.4988 0.0
H770 H 0.86304 0.46232 0.40814 0.0
H771 H 0.8449 0.57201 0.38708 0.0
C772 C 0.40853 0.99567 0.56943 0.0
N773 N 0.45227 1.00302 0.47288 0.0
C774 C 0.41965 0.99281 0.46824 0.0
C775 C 0.40886 0.9974 0.43877 0.0
C776 C 0.43161 1.01289 0.41336 0.0
C777 C 0.46478 0.02438 0.41897 0.0
C778 C 0.4747 0.01896 0.44895 0.0
Zn779 Zn 0.46667 0.98822 0.51668 0.0
C780 C 0.49638 0.04442 0.54811 0.0
N781 N 0.4923 0.95055 0.6051 0.0
C782 C 0.47034 0.9276 0.6239 0.0
C783 C 0.52244 0.96229 0.61405 0.0
C784 C 0.5317 0.95056 0.64294 0.0
C785 C 0.5099 0.92626 0.66226 0.0
C786 C 0.47882 0.91487 0.65275 0.0
Zn787 Zn 0.48002 0.96699 0.56276 0.0
O788 O 0.41497 1.00302 0.54002 0.0
C789 C 0.44608 0.9121 0.53284 0.0
O790 O 0.43119 0.97972 0.58336 0.0
H791 H 0.53951 0.98046 0.59863 0.0
H792 H 0.40213 0.97991 0.48729 0.0
H793 H 0.44636 0.91896 0.61641 0.0
O794 O 0.44624 0.93791 0.51263 0.0
O795 O 0.46061 0.91562 0.55697 0.0
H796 H 0.50056 0.02684 0.45291 0.0
O797 O 0.52971 0.95427 0.54355 0.0
O798 O 0.51999 0.97173 0.49621 0.0
O799 O 0.49733 0.01857 0.56822 0.0
O800 O 0.48566 0.03977 0.52227 0.0
C801 C 0.54048 0.95844 0.51479 0.0
H802 H 0.38318 0.98786 0.43578 0.0
H803 H 0.48299 0.0373 0.40041 0.0
H804 H 0.5559 0.95967 0.64984 0.0
H805 H 0.4614 0.89627 0.66746 0.0
C806 C 0.63961 0.52484 0.63365 0.0
N807 N 0.60511 0.52106 0.54394 0.0
C808 C 0.63856 0.52627 0.52989 0.0
C809 C 0.64732 0.52066 0.49854 0.0
C810 C 0.6215 0.50941 0.48151 0.0
C811 C 0.58765 0.50246 0.49702 0.0
C812 C 0.58 0.50846 0.5284 0.0
Zn813 Zn 0.59041 0.53964 0.58651 0.0
C814 C 0.54806 0.48461 0.63049 0.0
N815 N 0.55893 0.58471 0.67371 0.0
C816 C 0.58561 0.60274 0.68317 0.0
C817 C 0.52581 0.58643 0.68878 0.0
C818 C 0.51862 0.60751 0.71377 0.0
C819 C 0.54567 0.62733 0.72303 0.0
C820 C 0.57954 0.62419 0.70761 0.0
Zn821 Zn 0.57213 0.56128 0.63202 0.0
O822 O 0.6368 0.51901 0.60558 0.0
C823 C 0.61972 0.61225 0.58603 0.0
O824 O 0.61628 0.54192 0.64869 0.0
H825 H 0.50474 0.57251 0.68077 0.0
H826 H 0.6581 0.53642 0.54257 0.0
H827 H 0.61174 0.60163 0.67096 0.0
O828 O 0.61919 0.58624 0.57004 0.0
O829 O 0.6012 0.61048 0.61271 0.0
H830 H 0.55351 0.50478 0.5399 0.0
O831 O 0.52681 0.5813 0.615 0.0
O832 O 0.54356 0.56243 0.56939 0.0
O833 O 0.54612 0.50904 0.64916 0.0
O834 O 0.563 0.49157 0.6028 0.0
C835 C 0.52175 0.57919 0.58696 0.0
H836 H 0.67379 0.52616 0.48744 0.0
H837 H 0.56686 0.49429 0.48466 0.0
H838 H 0.49202 0.60939 0.72488 0.0
H839 H 0.60121 0.63876 0.71407 0.0
C840 C 0.55039 0.53533 0.95095 0.0
N841 N 0.56446 0.46283 0.88792 0.0
C842 C 0.53133 0.46688 0.88106 0.0
C843 C 0.52259 0.45616 0.85341 0.0
C844 C 0.54844 0.44147 0.83325 0.0
C845 C 0.58337 0.44297 0.83855 0.0
C846 C 0.59083 0.45328 0.86671 0.0
Zn847 Zn 0.57322 0.46735 0.93125 0.0
C848 C 0.64258 0.49965 0.92973 0.0
N849 N 0.59181 0.47903 0.02196 0.0
C850 C 0.56794 0.49649 0.04037 0.0
C851 C 0.62194 0.46763 0.03192 0.0
C852 C 0.62905 0.47381 0.06153 0.0
C853 C 0.60519 0.49238 0.08083 0.0
C854 C 0.57432 0.50385 0.06993 0.0
Zn855 Zn 0.58314 0.47197 0.97814 0.0
O856 O 0.5467 0.51528 0.92988 0.0
C857 C 0.51158 0.4391 0.97551 0.0
O858 O 0.56538 0.52403 0.97385 0.0
H859 H 0.64064 0.45403 0.01677 0.0
H860 H 0.51106 0.47538 0.89819 0.0
H861 H 0.54418 0.50536 0.0319 0.0
O862 O 0.52585 0.43906 0.9476 0.0
O863 O 0.52863 0.45276 0.99489 0.0
H864 H 0.61703 0.45077 0.87266 0.0
O865 O 0.60276 0.42044 0.98258 0.0
O866 O 0.60345 0.41947 0.93233 0.0
O867 O 0.63719 0.49097 0.95898 0.0
O868 O 0.61834 0.49484 0.91373 0.0
C869 C 0.61242 0.40593 0.95781 0.0
H870 H 0.49539 0.45505 0.84987 0.0
H871 H 0.60374 0.43161 0.82317 0.0
H872 H 0.65305 0.46428 0.06919 0.0
H873 H 0.55564 0.51897 0.08375 0.0
C874 C 0.45583 0.13896 0.96286 0.0
N875 N 0.55951 0.10594 0.95571 0.0
C876 C 0.57049 0.1385 0.94327 0.0
C877 C 0.60301 0.15163 0.9478 0.0
C878 C 0.62429 0.13128 0.96568 0.0
C879 C 0.61232 0.09777 0.97826 0.0
C880 C 0.57967 0.08554 0.97295 0.0
Zn881 Zn 0.51197 0.08784 0.94784 0.0
C882 C 0.47108 0.05148 1.00594 0.0
N883 N 0.4142 0.05029 0.93126 0.0
C884 C 0.39417 0.07223 0.91538 0.0
C885 C 0.40737 1.01524 0.93568 0.0
C886 C 0.38238 1.00041 0.9202 0.0
C887 C 0.36417 0.02224 0.90085 0.0
C888 C 0.36854 0.05862 0.90007 0.0
Zn889 Zn 0.46053 0.06872 0.93956 0.0
O890 O 0.48882 0.13614 0.96047 0.0
C891 C 0.49823 0.10943 0.88168 0.0
O892 O 0.43749 0.11423 0.95543 0.0
H893 H 0.42352 0.99842 0.94875 0.0
H894 H 0.55404 0.1543 0.92965 0.0
H895 H 0.4003 0.09993 0.91205 0.0
O896 O 0.52211 0.11003 0.89926 0.0
O897 O 0.4697 0.09333 0.89235 0.0
H898 H 0.5704 0.05974 0.98261 0.0
O899 O 0.4834 0.02267 0.92409 0.0
O900 O 0.53447 0.0374 0.93591 0.0
O901 O 0.4506 0.04561 0.98629 0.0
O902 O 0.49977 0.06792 0.99627 0.0
C903 C 0.51491 1.01518 0.92592 0.0
H904 H 0.61157 0.17728 0.93708 0.0
H905 H 0.62794 0.08131 0.99224 0.0
H906 H 0.37937 0.97223 0.92126 0.0
H907 H 0.35497 0.07614 0.88509 0.0
C908 C 0.02993 0.09719 0.38275 0.0
C909 C 0.01736 0.1184 0.40655 0.0
C910 C 0.02897 0.06049 0.38781 0.0
C911 C 0.01586 0.04364 0.41704 0.0
H912 H 0.04147 0.10911 0.36025 0.0
H913 H 0.04063 0.04541 0.36933 0.0
S914 S 0.97749 0.08704 0.48633 0.0
N915 N 0.9894 0.11967 0.45974 0.0
N916 N 0.98779 0.05095 0.46939 0.0
C917 C 1.00161 0.06453 0.44049 0.0
C918 C 1.00231 0.10182 0.43524 0.0
C919 C 0.02975 0.3943 0.43092 0.0
C920 C 0.01907 0.38111 0.4043 0.0
C921 C 0.02565 0.42983 0.43662 0.0
C922 C 1.00965 0.45328 0.41645 0.0
H923 H 0.04044 0.37685 0.44796 0.0
H924 H 0.03346 0.43857 0.45775 0.0
S925 S 0.97726 0.43208 0.34355 0.0
N926 N 0.99279 0.39483 0.35724 0.0
N927 N 0.98345 0.46071 0.36866 0.0
C928 C 0.99893 0.44038 0.38981 0.0
C929 C 1.00391 0.40459 0.38363 0.0
C930 C 0.07167 0.90914 0.08022 0.0
C931 C 0.04922 0.89754 0.10735 0.0
C932 C 0.08002 0.94486 0.07245 0.0
C933 C 0.06684 0.97094 0.09165 0.0
H934 H 0.08304 0.89038 0.06479 0.0
H935 H 0.09775 0.95192 0.05139 0.0
S936 S 1.00653 0.95464 0.16537 0.0
N937 N 1.01339 0.91529 0.15335 0.0
N938 N 0.02946 0.98219 0.13905 0.0
C939 C 0.04403 0.95976 0.11876 0.0
C940 C 0.03512 0.92327 0.12647 0.0
C941 C 0.03003 0.62148 0.10713 0.0
C942 C 0.02651 0.65461 0.09185 0.0
C943 C 0.02607 0.59107 0.09218 0.0
C944 C 0.01823 0.59258 0.06133 0.0
H945 H 0.03492 0.61905 0.13115 0.0
H946 H 0.02818 0.56615 0.10538 0.0
S947 S 1.00938 0.67385 0.01053 0.0
N948 N 0.0173 0.68782 0.04384 0.0
N949 N 1.00932 0.6307 0.01552 0.0
C950 C 0.01609 0.62585 0.04539 0.0
C951 C 0.02035 0.65685 0.06071 0.0
C952 C 0.41476 1.01616 0.08105 0.0
C953 C 0.42774 0.03424 0.10409 0.0
C954 C 0.42989 0.02071 0.04971 0.0
C955 C 0.45906 0.04319 0.03996 0.0
H956 H 0.39183 0.9993 0.08708 0.0
H957 H 0.41799 1.00711 0.03285 0.0
S958 S 0.50487 0.09445 0.09166 0.0
N959 N 0.47275 0.07397 0.11529 0.0
N960 N 0.50141 0.08234 0.05667 0.0
C961 C 0.47322 0.06028 0.06305 0.0
C962 C 0.45749 0.05595 0.09494 0.0
C963 C 0.65647 0.51672 0.14437 0.0
C964 C 0.63214 0.51077 0.17122 0.0
C965 C 0.64713 0.51174 0.11514 0.0
C966 C 0.61323 0.50027 0.11185 0.0
H967 H 0.6832 0.52419 0.14614 0.0
H968 H 0.66681 0.5163 0.09501 0.0
S969 S 0.53972 0.48285 0.17555 0.0
N970 N 0.57254 0.49522 0.19312 0.0
N971 N 0.55499 0.48414 0.1382 0.0
C972 C 0.58833 0.4954 0.13862 0.0
C973 C 0.59782 0.50105 0.16835 0.0
C974 C 0.3741 0.02746 0.34838 0.0
C975 C 0.39581 0.01864 0.32178 0.0
C976 C 0.38613 0.02626 0.37757 0.0
C977 C 0.42044 1.01621 0.38146 0.0
H978 H 0.34746 0.03507 0.34663 0.0
H979 H 0.36827 0.03326 0.3973 0.0
S980 S 0.48782 0.99138 0.31846 0.0
N981 N 0.45348 1.00084 0.30065 0.0
N982 N 0.47591 0.99731 0.35547 0.0
C983 C 0.44256 1.00785 0.35474 0.0
C984 C 0.43029 1.00935 0.32498 0.0
C985 C 0.65364 0.53662 0.39662 0.0
C986 C 0.64598 0.50725 0.38117 0.0
C987 C 0.64582 0.53684 0.42893 0.0
C988 C 0.6293 0.508 0.44726 0.0
H989 H 0.66683 0.55943 0.38386 0.0
H990 H 0.65271 0.55994 0.43966 0.0
S991 S 0.59958 0.42618 0.41837 0.0
N992 N 0.61781 0.44964 0.38676 0.0
N993 N 0.60343 0.45006 0.4476 0.0
C994 C 0.62002 0.47901 0.43218 0.0
C995 C 0.62825 0.47864 0.39917 0.0
C996 C 0.15175 0.46897 0.01416 0.0
C997 C 0.16017 0.44046 0.99651 0.0
C998 C 0.1191 0.48503 0.01446 0.0
C999 C 0.09384 0.47381 0.99661 0.0
H1000 H 0.16936 0.47719 0.02967 0.0
H1001 H 0.1126 0.50481 0.0305 0.0
S1002 S 0.1047 0.40334 0.94334 0.0
N1003 N 0.14184 0.40406 0.95824 0.0
N1004 N 0.08075 0.43445 0.95886 0.0
C1005 C 0.10301 0.44728 0.97699 0.0
C1006 C 0.13608 0.43058 0.97693 0.0
C1007 C 0.18433 0.65897 0.49239 0.0
C1008 C 0.2136 0.6377 0.49296 0.0
C1009 C 0.15288 0.64588 0.48481 0.0
C1010 C 0.14961 0.61102 0.47752 0.0
H1011 H 0.1859 0.686 0.49762 0.0
H1012 H 0.13089 0.66317 0.48481 0.0
S1013 S 0.21924 0.54493 0.47597 0.0
N1014 N 0.23769 0.5803 0.48636 0.0
N1015 N 0.17889 0.55567 0.47118 0.0
C1016 C 0.17884 0.58945 0.4783 0.0
C1017 C 0.21077 0.60281 0.48623 0.0
C1018 C 0.8902 0.90006 0.46192 0.0
C1019 C 0.88119 0.86976 0.48217 0.0
C1020 C 0.92492 0.91328 0.45574 0.0
C1021 C 0.95207 0.89777 0.47047 0.0
H1022 H 0.87019 0.91413 0.45112 0.0
H1023 H 0.9305 0.93624 0.43952 0.0
S1024 S 0.94266 0.81849 0.52596 0.0
N1025 N 0.90287 0.82467 0.51688 0.0
N1026 N 0.96739 0.85042 0.50633 0.0
C1027 C 0.94341 0.86796 0.49121 0.0
C1028 C 0.90824 0.85391 0.49688 0.0
C1029 C 0.44895 0.60567 0.53776 0.0
C1030 C 0.43363 0.63434 0.55234 0.0
C1031 C 0.47752 0.58803 0.54872 0.0
C1032 C 0.49181 0.59813 0.57488 0.0
H1033 H 0.43836 0.59633 0.51808 0.0
H1034 H 0.48806 0.56594 0.53692 0.0
S1035 S 0.46451 0.67444 0.61885 0.0
N1036 N 0.43767 0.67408 0.59239 0.0
N1037 N 0.49009 0.64074 0.61333 0.0
C1038 C 0.47736 0.6274 0.58903 0.0
C1039 C 0.44869 0.64549 0.57771 0.0
C1040 C 0.52797 0.62818 0.96855 0.0
C1041 C 0.53813 0.64694 0.93963 0.0
C1042 C 0.53093 0.59164 0.97201 0.0
C1043 C 0.54308 0.57288 0.94643 0.0
H1044 H 0.51853 0.6419 0.98865 0.0
H1045 H 0.52404 0.57801 0.99485 0.0
S1046 S 0.57295 0.61052 0.86591 0.0
N1047 N 0.56088 0.6446 0.88518 0.0
N1048 N 0.56558 0.57602 0.89137 0.0
C1049 C 0.55247 0.59148 0.91727 0.0
C1050 C 0.5502 0.62855 0.91395 0.0
C1051 C 0.54814 0.92224 0.93571 0.0
C1052 C 0.53635 0.9067 0.91068 0.0
C1053 C 0.54371 0.95822 0.93934 0.0
C1054 C 0.52671 0.9797 0.91838 0.0
H1055 H 0.55962 0.90622 0.95324 0.0
H1056 H 0.55172 0.96878 0.95966 0.0
S1057 S 0.49365 0.95219 0.84775 0.0
N1058 N 0.50943 0.91613 0.86353 0.0
N1059 N 0.50004 0.98306 0.87076 0.0
C1060 C 0.51596 0.9646 0.89276 0.0
C1061 C 0.52098 0.92831 0.88884 0.0
C1062 C 0.51491 0.39053 0.62607 0.0
C1063 C 0.52581 0.37147 0.65214 0.0
C1064 C 0.52044 0.4272 0.62032 0.0
C1065 C 0.5368 0.44702 0.64049 0.0
H1066 H 0.50314 0.37683 0.60921 0.0
H1067 H 0.5126 0.44009 0.59931 0.0
S1068 S 0.57409 0.40961 0.71007 0.0
N1069 N 0.55632 0.37541 0.69703 0.0
N1070 N 0.56609 0.44381 0.68657 0.0
C1071 C 0.548 0.42831 0.66655 0.0
C1072 C 0.54282 0.39085 0.67216 0.0
C1073 C 0.5347 0.12662 0.57435 0.0
C1074 C 0.50522 0.14063 0.59122 0.0
C1075 C 0.53173 0.09648 0.55836 0.0
C1076 C 0.49913 0.07987 0.55847 0.0
H1077 H 0.56038 0.13779 0.57504 0.0
H1078 H 0.55517 0.08519 0.54715 0.0
S1079 S 0.41425 0.10658 0.5987 0.0
N1080 N 0.44261 0.13587 0.60664 0.0
N1081 N 0.43696 0.07994 0.57627 0.0
C1082 C 0.46945 0.09452 0.57421 0.0
C1083 C 0.47249 0.12477 0.59065 0.0
C1084 C 0.90923 0.49409 0.58304 0.0
C1085 C 0.92073 0.5161 0.60422 0.0
C1086 C 0.92317 0.49704 0.5514 0.0
C1087 C 0.94969 0.52174 0.53952 0.0
H1088 H 0.88847 0.47499 0.5908 0.0
H1089 H 0.91245 0.48036 0.53598 0.0
S1090 S 0.98971 0.58526 0.585 0.0
N1091 N 0.96067 0.56327 0.61079 0.0
N1092 N 0.9876 0.56814 0.55176 0.0
C1093 C 0.96257 0.54289 0.56066 0.0
C1094 C 0.948 0.5402 0.59284 0.0
C1095 C 0.12012 0.04386 0.61196 0.0
C1096 C 0.10514 0.0292 0.64147 0.0
C1097 C 0.10738 0.03504 0.58509 0.0
C1098 C 0.07925 1.01131 0.58679 0.0
H1099 H 0.14373 0.05986 0.60928 0.0
H1100 H 0.12111 0.04504 0.56272 0.0
S1101 S 0.02654 0.97122 0.65845 0.0
N1102 N 0.05716 0.99441 0.67105 0.0
N1103 N 0.0336 0.97712 0.6201 0.0
C1104 C 0.06175 0.99926 0.6161 0.0
C1105 C 0.07468 1.00835 0.6436 0.0
C1106 C 0.94034 0.51948 0.82369 0.0
C1107 C 0.90636 0.5296 0.81912 0.0
C1108 C 0.95308 0.52314 0.85213 0.0
C1109 C 0.93249 0.53753 0.87699 0.0
H1110 H 0.95714 0.50848 0.8052 0.0
H1111 H 0.97888 0.5137 0.85493 0.0
S1112 S 0.84314 0.57202 0.87501 0.0
N1113 N 0.85335 0.55679 0.84071 0.0
N1114 N 0.87737 0.56501 0.89357 0.0
C1115 C 0.89904 0.54932 0.87195 0.0
C1116 C 0.88604 0.54516 0.84318 0.0
C1117 C 0.20072 0.04432 0.85139 0.0
C1118 C 0.17893 0.02568 0.83482 0.0
C1119 C 0.19277 0.0468 0.88357 0.0
C1120 C 0.16275 0.03034 0.90097 0.0
H1121 H 0.2238 0.05787 0.83914 0.0
H1122 H 0.21 0.06262 0.89463 0.0
S1123 S 0.09684 0.97817 0.86824 0.0
N1124 N 0.12487 0.99226 0.83772 0.0
N1125 N 0.11186 0.99307 0.8985 0.0
C1126 C 0.14095 1.01105 0.88456 0.0
C1127 C 0.14848 1.00975 0.85153 0.0
C1128 C 0.63591 0.93952 0.51866 0.0
C1129 C 0.64079 0.90844 0.50378 0.0
C1130 C 0.60422 0.95759 0.51947 0.0
C1131 C 0.57634 0.94601 0.50473 0.0
H1132 H 0.65582 0.94867 0.53156 0.0
H1133 H 0.60073 0.97977 0.53333 0.0
S1134 S 0.57698 0.86815 0.45989 0.0
N1135 N 0.61578 0.86838 0.47191 0.0
N1136 N 0.55673 0.90268 0.47315 0.0
C1137 C 0.58174 0.91637 0.48801 0.0
C1138 C 0.61377 0.89756 0.48762 0.0
C1139 C 0.72174 0.13564 0.9703 0.0
C1140 C 0.72668 0.16973 0.97853 0.0
C1141 C 0.6885 0.12334 0.96633 0.0
C1142 C 0.65909 0.14467 0.97069 0.0
H1143 H 0.7437 0.11838 0.96703 0.0
H1144 H 0.68588 0.09708 0.95946 0.0
S1145 S 0.6584 0.23511 0.9949 0.0
N1146 N 0.6998 0.22404 0.99235 0.0
N1147 N 0.63708 0.20091 0.98556 0.0
C1148 C 0.66377 0.17859 0.97966 0.0
C1149 C 0.69761 0.19106 0.98354 0.0
C1150 C 0.41368 0.43433 1.00609 0.0
C1151 C 0.40151 0.40436 0.99366 0.0
C1152 C 0.44948 0.44421 1.00186 0.0
C1153 C 0.47461 0.42555 0.98373 0.0
H1154 H 0.39533 0.4509 0.01863 0.0
H1155 H 0.45727 0.46761 0.01165 0.0
S1156 S 0.45633 0.34733 0.94331 0.0
N1157 N 0.41785 0.35701 0.9615 0.0
N1158 N 0.48422 0.37675 0.95177 0.0
C1159 C 0.46262 0.39634 0.97024 0.0
C1160 C 0.42643 0.38564 0.97543 0.0
C1161 C 0.98735 0.15103 0.9975 0.0
C1162 C 0.95527 0.14744 0.0172 0.0
C1163 C 0.01755 0.13425 1.0057 0.0
C1164 C 0.01694 0.11411 0.03431 0.0
H1165 H 0.98924 0.1675 0.97586 0.0
H1166 H 0.04183 0.13842 0.99022 0.0
S1167 S 0.93923 0.09547 0.09354 0.0
N1168 N 0.92451 0.12094 0.06583 0.0
N1169 N 0.98108 0.09028 0.08167 0.0
C1170 C 0.98479 0.10966 0.05379 0.0
C1171 C 0.95402 0.12609 0.04514 0.0
C1172 C 0.05156 0.21462 0.23288 0.0
C1173 C 0.04019 0.19917 0.26296 0.0
C1174 C 0.05865 0.19415 0.20765 0.0
C1175 C 0.05429 0.1575 0.21153 0.0
H1176 H 0.05581 0.24267 0.22903 0.0
H1177 H 0.06803 0.20705 0.18495 0.0
S1178 S 0.02539 0.10449 0.28579 0.0
N1179 N 0.02519 0.14522 0.29542 0.0
N1180 N 0.03781 0.10671 0.24785 0.0
C1181 C 0.04221 0.14183 0.24141 0.0
C1182 C 0.03537 0.16267 0.26717 0.0
C1183 C 0.05382 0.38461 0.22057 0.0
C1184 C 0.02896 0.39003 0.24633 0.0
C1185 C 0.05102 0.4011 0.1911 0.0
C1186 C 0.02316 0.42326 0.1865 0.0
H1187 H 0.07438 0.36593 0.22276 0.0
H1188 H 0.06962 0.39499 0.17152 0.0
S1189 S 0.9547 0.45063 0.24695 0.0
N1190 N 0.97835 0.42278 0.26591 0.0
N1191 N 0.97269 0.45309 0.21023 0.0
C1192 C 0.9995 0.43071 0.21227 0.0
C1193 C 1.00252 0.41426 0.2423 0.0
C1194 C 1.0103 0.8192 0.27863 0.0
C1195 C 0.02406 0.8286 0.24761 0.0
C1196 C 1.01282 0.84222 0.30129 0.0
C1197 C 0.02981 0.87479 0.2935 0.0
H1198 H 0.99845 0.79355 0.28548 0.0
H1199 H 1.00292 0.8339 0.32527 0.0
S1200 S 0.06946 0.9116 0.21546 0.0
N1201 N 0.05379 0.8728 0.20979 0.0
N1202 N 0.05997 0.91583 0.25309 0.0
C1203 C 0.04308 0.88482 0.26253 0.0
C1204 C 0.03982 0.86167 0.23931 0.0
C1205 C 0.97602 0.64059 0.30784 0.0
C1206 C 1.00589 0.6352 0.28641 0.0
C1207 C 0.97106 0.62344 0.3381 0.0
C1208 C 0.99607 0.60064 0.3488 0.0
H1209 H 0.95648 0.65892 0.30155 0.0
H1210 H 0.94777 0.62884 0.35356 0.0
S1211 S 0.07686 0.57374 0.30179 0.0
N1212 N 0.05913 0.60177 0.27785 0.0
N1213 N 0.05065 0.57162 0.33508 0.0
C1214 C 0.02571 0.5944 0.32774 0.0
C1215 C 0.0304 0.61111 0.29659 0.0
C1216 C 0.21221 1.01494 0.15893 0.0
C1217 C 0.24738 0.02486 0.15031 0.0
C1218 C 0.18781 0.02046 0.13799 0.0
C1219 C 0.19755 0.03598 0.1075 0.0
H1220 H 0.20322 1.00431 0.18251 0.0
H1221 H 0.16063 1.01401 0.14624 0.0
S1222 S 0.28704 0.06461 0.073 0.0
N1223 N 0.29137 0.04915 0.10886 0.0
N1224 N 0.24528 0.0596 0.06936 0.0
C1225 C 0.233 0.04432 0.09803 0.0
C1226 C 0.25795 0.03883 0.11952 0.0
C1227 C 0.84501 0.48325 0.1232 0.0
C1228 C 0.82216 0.51121 0.12015 0.0
C1229 C 0.87622 0.48173 0.10323 0.0
C1230 C 0.88634 0.50809 0.07909 0.0
H1231 H 0.8395 0.46287 0.14205 0.0
H1232 H 0.89298 0.45982 0.10733 0.0
S1233 S 0.83455 0.58554 0.05909 0.0
N1234 N 0.81063 0.56491 0.08959 0.0
N1235 N 0.86986 0.56203 0.05194 0.0
C1236 C 0.86319 0.53554 0.07474 0.0
C1237 C 0.83112 0.5372 0.09536 0.0
C1238 C 0.21167 0.98161 0.37293 0.0
C1239 C 0.20956 1.00716 0.34794 0.0
C1240 C 0.18312 0.97373 0.3963 0.0
C1241 C 0.15136 0.99118 0.39569 0.0
H1242 H 0.23513 0.96653 0.37374 0.0
H1243 H 0.18511 0.95217 0.41366 0.0
S1244 S 0.13214 0.06099 0.33655 0.0
N1245 N 0.17296 0.05074 0.32513 0.0
N1246 N 0.11976 0.03585 0.36888 0.0
C1247 C 0.14944 0.01788 0.37184 0.0
C1248 C 0.1784 0.02598 0.3481 0.0
C1249 C 0.83525 0.49574 0.31523 0.0
C1250 C 0.80069 0.50621 0.3143 0.0
C1251 C 0.85048 0.49638 0.34259 0.0
C1252 C 0.83178 0.50828 0.36949 0.0
H1253 H 0.85089 0.48813 0.29444 0.0
H1254 H 0.87764 0.48945 0.34221 0.0
S1255 S 0.74081 0.53819 0.3789 0.0
N1256 N 0.74793 0.52768 0.34264 0.0
N1257 N 0.7773 0.53023 0.39384 0.0
C1258 C 0.79715 0.51823 0.36899 0.0
C1259 C 0.78143 0.51696 0.34137 0.0
C1260 C 0.22246 0.20122 0.01412 0.0
C1261 C 0.21114 0.23369 0.02389 0.0
C1262 C 0.20092 0.17095 0.02086 0.0
C1263 C 0.16736 0.17177 0.03812 0.0
H1264 H 0.24847 0.19906 1.00177 0.0
H1265 H 0.21112 0.14645 0.0133 0.0
S1266 S 0.12408 0.25115 0.06619 0.0
N1267 N 0.16281 0.26553 0.04896 0.0
N1268 N 0.12318 0.20858 0.06294 0.0
C1269 C 0.1554 0.20433 0.04721 0.0
C1270 C 0.17698 0.23526 0.03967 0.0
C1271 C 0.16219 0.81131 0.44791 0.0
C1272 C 0.17768 0.81272 0.47546 0.0
C1273 C 0.13406 0.83306 0.44148 0.0
C1274 C 0.12 0.8571 0.46238 0.0
H1275 H 0.17177 0.79314 0.4312 0.0
H1276 H 0.12362 0.83132 0.41976 0.0
S1277 S 0.15259 0.87266 0.53705 0.0
N1278 N 0.17792 0.84199 0.52275 0.0
N1279 N 0.12485 0.88099 0.51184 0.0
C1280 C 0.13535 0.85852 0.49006 0.0
C1281 C 0.16413 0.83694 0.49626 0.0
C1282 C 0.91487 0.70746 0.47114 0.0
C1283 C 0.88955 0.70221 0.49771 0.0
C1284 C 0.937 0.68044 0.46135 0.0
C1285 C 0.93423 0.64717 0.47763 0.0
H1286 H 0.9163 0.73211 0.45691 0.0
H1287 H 0.95459 0.6849 0.43982 0.0
S1288 S 0.87492 0.62065 0.55007 0.0
N1289 N 0.86529 0.66185 0.54136 0.0
N1290 N 0.90647 0.61114 0.52281 0.0
C1291 C 0.91063 0.64223 0.5052 0.0
C1292 C 0.88844 0.66976 0.51535 0.0
C1293 C 0.37659 0.85434 0.50786 0.0
C1294 C 0.38092 0.82174 0.52388 0.0
C1295 C 0.39849 0.88289 0.51039 0.0
C1296 C 0.42524 0.88024 0.52954 0.0
H1297 H 0.35613 0.85771 0.49315 0.0
H1298 H 0.39384 0.90749 0.49763 0.0
S1299 S 0.44721 0.80016 0.57632 0.0
N1300 N 0.41407 0.78788 0.55907 0.0
N1301 N 0.45468 0.842 0.56481 0.0
C1302 C 0.42965 0.84773 0.54592 0.0
C1303 C 0.40761 0.81841 0.54287 0.0
C1304 C 0.5486 0.71115 0.76407 0.0
C1305 C 0.53308 0.70109 0.79463 0.0
C1306 C 0.55173 0.68737 0.74105 0.0
C1307 C 0.53915 0.65257 0.74748 0.0
H1308 H 0.55907 0.73749 0.75811 0.0
H1309 H 0.56446 0.69622 0.71801 0.0
S1310 S 0.49581 0.6133 0.82377 0.0
N1311 N 0.50481 0.65402 0.83012 0.0
N1312 N 0.50998 0.60955 0.78672 0.0
C1313 C 0.52273 0.64244 0.77776 0.0
C1314 C 0.51993 0.66659 0.80134 0.0
C1315 C 0.5277 0.91986 0.74567 0.0
C1316 C 0.53297 0.88392 0.75137 0.0
C1317 C 0.52154 0.93384 0.71617 0.0
C1318 C 0.51977 0.91199 0.69209 0.0
H1319 H 0.52759 0.93697 0.76424 0.0
H1320 H 0.51688 0.96157 0.71245 0.0
S1321 S 0.53243 0.81629 0.69565 0.0
N1322 N 0.53697 0.82699 0.73088 0.0
N1323 N 0.52471 0.85317 0.6755 0.0
C1324 C 0.52563 0.87615 0.69749 0.0
C1325 C 0.5324 0.86209 0.72723 0.0
C1326 C 0.53699 0.35174 0.80924 0.0
C1327 C 0.51914 0.35756 0.78342 0.0
C1328 C 0.54624 0.3795 0.82496 0.0
C1329 C 0.53803 0.41389 0.81525 0.0
H1330 H 0.54481 0.32565 0.81666 0.0
H1331 H 0.56023 0.37405 0.84478 0.0
S1332 S 0.48842 0.44229 0.75087 0.0
N1333 N 0.49107 0.39941 0.74998 0.0
N1334 N 0.50868 0.45231 0.7802 0.0
C1335 C 0.51844 0.42 0.79061 0.0
C1336 C 0.50885 0.39152 0.77449 0.0
C1337 C 0.48679 0.13603 0.79652 0.0
C1338 C 0.50476 0.16852 0.78982 0.0
C1339 C 0.48502 0.1171 0.82601 0.0
C1340 C 0.5023 0.129 0.84988 0.0
H1341 H 0.47401 0.12501 0.77878 0.0
H1342 H 0.47019 0.0927 0.83005 0.0
S1343 S 0.55422 0.21175 0.844 0.0
N1344 N 0.54061 0.21136 0.80962 0.0
N1345 N 0.53864 0.17535 0.86424 0.0
C1346 C 0.52132 0.16087 0.84313 0.0
C1347 C 0.52234 0.18056 0.81337 0.0
C1348 C 0.69183 0.50329 0.69997 0.0
C1349 C 0.72632 0.50933 0.68594 0.0
C1350 C 0.66409 0.50565 0.68219 0.0
C1351 C 0.6698 0.51399 0.64969 0.0
H1352 H 0.68617 0.49824 0.725 0.0
H1353 H 0.63772 0.50249 0.69424 0.0
S1354 S 0.75584 0.52951 0.60167 0.0
N1355 N 0.76518 0.52166 0.63753 0.0
N1356 N 0.71289 0.52624 0.60411 0.0
C1357 C 0.70437 0.51801 0.63516 0.0
C1358 C 0.73268 0.51573 0.65332 0.0
C1359 C 0.31229 1.01129 0.59754 0.0
C1360 C 0.31294 1.0163 0.62917 0.0
C1361 C 0.34339 1.00628 0.57752 0.0
C1362 C 0.37598 1.00581 0.58869 0.0
H1363 H 0.28756 1.01053 0.58846 0.0
H1364 H 0.34178 1.00141 0.55361 0.0
S1365 S 0.39133 0.02081 0.66918 0.0
N1366 N 0.34858 0.02269 0.67013 0.0
N1367 N 0.40672 1.01344 0.63317 0.0
C1368 C 0.37671 1.01217 0.62009 0.0
C1369 C 0.34529 1.01738 0.64016 0.0
C1370 C 0.70483 0.5396 0.86209 0.0
C1371 C 0.73516 0.5199 0.8637 0.0
C1372 C 0.67633 0.5356 0.8857 0.0
C1373 C 0.67676 0.51187 0.91217 0.0
H1374 H 0.70201 0.55653 0.84142 0.0
H1375 H 0.65269 0.54947 0.88211 0.0
S1376 S 0.75212 0.45881 0.93067 0.0
N1377 N 0.76576 0.4794 0.89625 0.0
N1378 N 0.71173 0.47158 0.94045 0.0
C1379 C 0.70794 0.49426 0.91551 0.0
C1380 C 0.73714 0.49823 0.89128 0.0
C1381 C 0.30038 1.01744 0.84431 0.0
C1382 C 0.32095 1.00397 0.81918 0.0
C1383 C 0.31301 0.01962 0.87262 0.0
C1384 C 0.34662 1.00825 0.87653 0.0
H1385 H 0.27516 0.02816 0.84143 0.0
H1386 H 0.29757 0.03271 0.89067 0.0
S1387 S 0.40864 0.96645 0.81899 0.0
N1388 N 0.3745 0.97544 0.80077 0.0
N1389 N 0.39886 0.97962 0.8542 0.0
C1390 C 0.36616 0.99168 0.8525 0.0
C1391 C 0.35317 0.98954 0.82362 0.0
C1392 C 0.6575 0.70608 0.57009 0.0
C1393 C 0.68914 0.7021 0.55046 0.0
C1394 C 0.63538 0.67714 0.58192 0.0
C1395 C 0.64337 0.64307 0.57385 0.0
H1396 H 0.64999 0.73182 0.57666 0.0
H1397 H 0.61163 0.68157 0.59716 0.0
S1398 S 0.7228 0.61865 0.52279 0.0
N1399 N 0.72712 0.66138 0.52363 0.0
N1400 N 0.6855 0.60741 0.54463 0.0
C1401 C 0.67461 0.63898 0.55368 0.0
C1402 C 0.69735 0.66831 0.54221 0.0
C1403 C 0.66778 0.33234 0.98835 0.0
C1404 C 0.69799 0.33337 0.96605 0.0
C1405 C 0.63947 0.35452 0.98481 0.0
C1406 C 0.6393 0.37818 0.95834 0.0
H1407 H 0.66598 0.31456 0.00917 0.0
H1408 H 0.61772 0.35359 1.00333 0.0
S1409 S 0.71087 0.39204 0.89258 0.0
N1410 N 0.72546 0.3615 0.91635 0.0
N1411 N 0.67149 0.40117 0.90909 0.0
C1412 C 0.66846 0.37874 0.93522 0.0
C1413 C 0.69785 0.35688 0.93917 0.0
C1414 C 0.38515 0.19484 1.00098 0.0
C1415 C 0.39989 0.22866 0.99551 0.0
C1416 C 0.40388 0.16596 0.99088 0.0
C1417 C 0.43818 0.16984 0.97526 0.0
H1418 H 0.35832 0.19092 0.01172 0.0
H1419 H 0.39109 0.14044 0.99482 0.0
S1420 S 0.48914 0.25296 0.95719 0.0
N1421 N 0.45098 0.26455 0.97476 0.0
N1422 N 0.48675 0.21005 0.95637 0.0
C1423 C 0.45382 0.20338 0.97102 0.0
C1424 C 0.43447 0.23288 0.98093 0.0
C1425 C 0.92502 0.34117 0.01613 0.0
C1426 C 0.8968 0.34718 0.99906 0.0
C1427 C 0.94713 0.36871 0.02118 0.0
C1428 C 0.94237 0.40297 1.00852 0.0
H1429 H 0.92941 0.31511 0.0263 0.0
H1430 H 0.9678 0.36321 0.03532 0.0
S1431 S 0.87331 0.43137 0.96026 0.0
N1432 N 0.86582 0.38904 0.96875 0.0
N1433 N 0.90786 0.44074 0.97684 0.0
C1434 C 0.91503 0.4088 0.99019 0.0
C1435 C 0.89216 0.3809 0.98575 0.0
loop_
_geom_bond_atom_site_label_1
_geom_bond_atom_site_label_2
_geom_bond_distance
_geom_bond_site_symmetry_2
_ccdc_geom_bond_type
C0 C1 1.443 . S
C0 N4 1.376 . S
C0 C38 1.389 . S
C1 C0 1.443 . S
C1 C2 1.340 . S
C1 H41 0.951 . S
C2 C1 1.340 . S
C2 C3 1.439 . S
C2 H42 0.950 . S
C3 C2 1.439 . S
C3 N4 1.374 . S
C3 C37 1.395 . S
N4 C0 1.376 . S
N4 C3 1.374 . S
N4 Co5 2.008 1_655 S
Co5 N4 2.008 1_455 S
Co5 N6 1.995 1_455 S
Co5 N11 2.008 . S
Co5 N16 1.995 . S
Co5 N21 2.282 . S
Co5 N27 2.282 . S
N6 Co5 1.995 1_655 S
N6 C7 1.376 . S
N6 C10 1.383 . S
C7 N6 1.376 . S
C7 C8 1.446 . S
C7 C37 1.391 . S
C8 C7 1.446 . S
C8 C9 1.339 . S
C8 H43 0.949 . S
C9 C8 1.339 . S
C9 C10 1.439 . S
C9 H44 0.950 . S
C10 N6 1.383 . S
C10 C9 1.439 . S
C10 C39 1.392 1_655 S
N11 Co5 2.008 . S
N11 C12 1.376 . S
N11 C15 1.374 . S
C12 N11 1.376 . S
C12 C13 1.443 . S
C12 C39 1.389 . S
C13 C12 1.443 . S
C13 C14 1.340 . S
C13 H45 0.951 . S
C14 C13 1.340 . S
C14 C15 1.439 . S
C14 H46 0.950 . S
C15 N11 1.374 . S
C15 C14 1.439 . S
C15 C40 1.395 . S
N16 Co5 1.995 . S
N16 C17 1.376 . S
N16 C20 1.383 . S
C17 N16 1.376 . S
C17 C18 1.446 . S
C17 C40 1.391 . S
C18 C17 1.446 . S
C18 C19 1.339 . S
C18 H47 0.949 . S
C19 C18 1.339 . S
C19 C20 1.439 . S
C19 H48 0.950 . S
C20 N16 1.383 . S
C20 C19 1.439 . S
C20 C38 1.392 1_455 S
N21 Co5 2.282 . S
N21 C24 1.332 . S
N21 C26 1.332 1_455 S
C22 C23 1.386 . S
C22 C25 1.388 1_455 S
C23 C22 1.386 . S
C23 C24 1.382 . S
C23 H49 0.950 . S
C24 N21 1.332 . S
C24 C23 1.382 . S
C24 H35 0.952 . S
C25 C22 1.388 1_655 S
C25 C26 1.382 . S
C25 H50 0.950 . S
C26 N21 1.332 1_655 S
C26 C25 1.382 . S
C26 H36 0.948 . S
N27 Co5 2.282 . S
N27 C31 1.332 1_455 S
N27 C32 1.332 . S
C28 C29 1.388 1_455 S
C28 C32 1.382 . S
C28 H51 0.950 . S
C29 C28 1.388 1_655 S
C29 C30 1.386 . S
C30 C29 1.386 . S
C30 C31 1.382 . S
C30 H52 0.950 . S
C31 N27 1.332 1_655 S
C31 C30 1.382 . S
C31 H33 0.952 . S
C32 N27 1.332 . S
C32 C28 1.382 . S
C32 H34 0.948 . S
H33 C31 0.952 . S
H34 C32 0.948 . S
H35 C24 0.952 . S
H36 C26 0.948 . S
C37 C3 1.395 . S
C37 C7 1.391 . S
C38 C0 1.389 . S
C38 C20 1.392 1_655 S
C39 C10 1.392 1_455 S
C39 C12 1.389 . S
C40 C15 1.395 . S
C40 C17 1.391 . S
H41 C1 0.951 . S
H42 C2 0.950 . S
H43 C8 0.949 . S
H44 C9 0.950 . S
H45 C13 0.951 . S
H46 C14 0.950 . S
H47 C18 0.949 . S
H48 C19 0.950 . S
H49 C23 0.950 . S
H50 C25 0.950 . S
H51 C28 0.950 . S
H52 C30 0.950 . S
C53 C54 1.443 . S
C53 N57 1.376 . S
C53 C91 1.389 1_655 S
C54 C53 1.443 . S
C54 C55 1.340 . S
C54 H94 0.951 . S
C55 C54 1.340 . S
C55 C56 1.439 . S
C55 H95 0.950 . S
C56 C55 1.439 . S
C56 N57 1.374 . S
C56 C90 1.395 . S
N57 C53 1.376 . S
N57 C56 1.374 . S
N57 Co58 2.008 1_655 S
Co58 N57 2.008 1_455 S
Co58 N59 1.995 1_455 S
Co58 N64 2.008 . S
Co58 N69 1.995 . S
Co58 N74 2.282 . S
Co58 N80 2.282 . S
N59 Co58 1.995 1_655 S
N59 C60 1.376 . S
N59 C63 1.383 . S
C60 N59 1.376 . S
C60 C61 1.446 . S
C60 C90 1.391 . S
C61 C60 1.446 . S
C61 C62 1.339 . S
C61 H96 0.949 . S
C62 C61 1.339 . S
C62 C63 1.439 . S
C62 H97 0.950 . S
C63 N59 1.383 . S
C63 C62 1.439 . S
C63 C92 1.392 1_655 S
N64 Co58 2.008 . S
N64 C65 1.376 . S
N64 C68 1.374 . S
C65 N64 1.376 . S
C65 C66 1.443 . S
C65 C92 1.389 . S
C66 C65 1.443 . S
C66 C67 1.340 . S
C66 H98 0.951 . S
C67 C66 1.340 . S
C67 C68 1.439 . S
C67 H99 0.950 . S
C68 N64 1.374 . S
C68 C67 1.439 . S
C68 C93 1.395 . S
N69 Co58 1.995 . S
N69 C70 1.376 . S
N69 C73 1.383 . S
C70 N69 1.376 . S
C70 C71 1.446 . S
C70 C93 1.391 . S
C71 C70 1.446 . S
C71 C72 1.339 . S
C71 H100 0.949 . S
C72 C71 1.339 . S
C72 C73 1.439 . S
C72 H101 0.950 . S
C73 N69 1.383 . S
C73 C72 1.439 . S
C73 C91 1.392 . S
N74 Co58 2.282 . S
N74 C77 1.332 . S
N74 C79 1.331 . S
C75 C76 1.386 . S
C75 C78 1.388 . S
C76 C75 1.386 . S
C76 C77 1.382 . S
C76 H102 0.950 . S
C77 N74 1.332 . S
C77 C76 1.382 . S
C77 H88 0.952 . S
C78 C75 1.388 . S
C78 C79 1.382 . S
C78 H103 0.950 1_455 S
C79 N74 1.331 . S
C79 C78 1.382 . S
C79 H89 0.949 1_455 S
N80 Co58 2.282 . S
N80 C84 1.332 1_455 S
N80 C85 1.332 . S
C81 C82 1.388 1_455 S
C81 C85 1.382 . S
C81 H104 0.950 . S
C82 C81 1.388 1_655 S
C82 C83 1.386 . S
C83 C82 1.386 . S
C83 C84 1.382 . S
C83 H105 0.950 . S
C84 N80 1.332 1_655 S
C84 C83 1.382 . S
C84 H86 0.952 . S
C85 N80 1.332 . S
C85 C81 1.382 . S
C85 H87 0.948 . S
H86 C84 0.952 . S
H87 C85 0.948 . S
H88 C77 0.952 . S
H89 C79 0.949 1_655 S
C90 C56 1.395 . S
C90 C60 1.391 . S
C91 C53 1.389 1_455 S
C91 C73 1.392 . S
C92 C63 1.392 1_455 S
C92 C65 1.389 . S
C93 C68 1.395 . S
C93 C70 1.391 . S
H94 C54 0.951 . S
H95 C55 0.950 . S
H96 C61 0.949 . S
H97 C62 0.950 . S
H98 C66 0.951 . S
H99 C67 0.950 . S
H100 C71 0.949 . S
H101 C72 0.950 . S
H102 C76 0.950 . S
H103 C78 0.950 1_655 S
H104 C81 0.950 . S
H105 C83 0.950 . S
C106 C107 1.443 . S
C106 N110 1.376 . S
C106 C144 1.389 . S
C107 C106 1.443 . S
C107 C108 1.340 . S
C107 H147 0.951 . S
C108 C107 1.340 . S
C108 C109 1.439 . S
C108 H148 0.950 . S
C109 C108 1.439 . S
C109 N110 1.374 . S
C109 C143 1.395 . S
N110 C106 1.376 . S
N110 C109 1.374 . S
N110 Co111 2.008 1_565 S
Co111 N110 2.008 1_545 S
Co111 N112 1.995 1_545 S
Co111 N117 2.008 . S
Co111 N122 1.995 . S
Co111 N127 2.282 . S
Co111 N133 2.282 . S
N112 Co111 1.995 1_565 S
N112 C113 1.376 . S
N112 C116 1.383 . S
C113 N112 1.376 . S
C113 C114 1.446 . S
C113 C143 1.391 . S
C114 C113 1.446 . S
C114 C115 1.339 . S
C114 H149 0.949 . S
C115 C114 1.339 . S
C115 C116 1.439 . S
C115 H150 0.950 . S
C116 N112 1.383 . S
C116 C115 1.439 . S
C116 C145 1.392 1_565 S
N117 Co111 2.008 . S
N117 C118 1.376 . S
N117 C121 1.374 . S
C118 N117 1.376 . S
C118 C119 1.443 . S
C118 C145 1.389 . S
C119 C118 1.443 . S
C119 C120 1.340 . S
C119 H151 0.951 . S
C120 C119 1.340 . S
C120 C121 1.439 . S
C120 H152 0.950 . S
C121 N117 1.374 . S
C121 C120 1.439 . S
C121 C146 1.395 . S
N122 Co111 1.995 . S
N122 C123 1.376 . S
N122 C126 1.383 . S
C123 N122 1.376 . S
C123 C124 1.446 . S
C123 C146 1.391 . S
C124 C123 1.446 . S
C124 C125 1.339 . S
C124 H153 0.949 . S
C125 C124 1.339 . S
C125 C126 1.439 . S
C125 H154 0.950 . S
C126 N122 1.383 . S
C126 C125 1.439 . S
C126 C144 1.392 1_545 S
N127 Co111 2.282 . S
N127 C130 1.332 . S
N127 C132 1.334 . S
C128 C129 1.386 . S
C128 C131 1.388 . S
C129 C128 1.386 . S
C129 C130 1.382 . S
C129 H155 0.950 . S
C130 N127 1.332 . S
C130 C129 1.382 . S
C130 H141 0.952 . S
C131 C128 1.388 . S
C131 C132 1.383 . S
C131 H156 0.950 1_545 S
C132 N127 1.334 . S
C132 C131 1.383 . S
C132 H142 0.945 1_545 S
N133 Co111 2.282 . S
N133 C137 1.332 1_545 S
N133 C138 1.332 . S
C134 C135 1.388 1_545 S
C134 C138 1.382 . S
C134 H157 0.950 . S
C135 C134 1.388 1_565 S
C135 C136 1.386 . S
C136 C135 1.386 . S
C136 C137 1.382 . S
C136 H158 0.950 . S
C137 N133 1.332 1_565 S
C137 C136 1.382 . S
C137 H139 0.952 . S
C138 N133 1.332 . S
C138 C134 1.382 . S
C138 H140 0.948 . S
H139 C137 0.952 . S
H140 C138 0.948 . S
H141 C130 0.952 . S
H142 C132 0.945 1_565 S
C143 C109 1.395 . S
C143 C113 1.391 . S
C144 C106 1.389 . S
C144 C126 1.392 1_565 S
C145 C116 1.392 1_545 S
C145 C118 1.389 . S
C146 C121 1.395 . S
C146 C123 1.391 . S
H147 C107 0.951 . S
H148 C108 0.950 . S
H149 C114 0.949 . S
H150 C115 0.950 . S
H151 C119 0.951 . S
H152 C120 0.950 . S
H153 C124 0.949 . S
H154 C125 0.950 . S
H155 C129 0.950 . S
H156 C131 0.950 1_565 S
H157 C134 0.950 . S
H158 C136 0.950 . S
C159 C160 1.443 . S
C159 N163 1.376 . S
C159 C197 1.389 . S
C160 C159 1.443 . S
C160 C161 1.340 . S
C160 H200 0.951 . S
C161 C160 1.340 . S
C161 C162 1.439 . S
C161 H201 0.950 . S
C162 C161 1.439 . S
C162 N163 1.374 . S
C162 C196 1.395 . S
N163 C159 1.376 . S
N163 C162 1.374 . S
N163 Co164 2.008 . S
Co164 N163 2.008 . S
Co164 N165 1.995 . S
Co164 N170 2.008 . S
Co164 N175 1.995 . S
Co164 N180 2.282 . S
Co164 N186 2.282 . S
N165 Co164 1.995 . S
N165 C166 1.376 . S
N165 C169 1.383 . S
C166 N165 1.376 . S
C166 C167 1.446 . S
C166 C196 1.391 . S
C167 C166 1.446 . S
C167 C168 1.339 . S
C167 H202 0.949 . S
C168 C167 1.339 . S
C168 C169 1.439 . S
C168 H203 0.950 . S
C169 N165 1.383 . S
C169 C168 1.439 . S
C169 C198 1.392 . S
N170 Co164 2.008 . S
N170 C171 1.376 . S
N170 C174 1.374 . S
C171 N170 1.376 . S
C171 C172 1.443 . S
C171 C198 1.389 . S
C172 C171 1.443 . S
C172 C173 1.340 . S
C172 H204 0.951 . S
C173 C172 1.340 . S
C173 C174 1.439 . S
C173 H205 0.950 . S
C174 N170 1.374 . S
C174 C173 1.439 . S
C174 C199 1.395 . S
N175 Co164 1.995 . S
N175 C176 1.376 . S
N175 C179 1.383 . S
C176 N175 1.376 . S
C176 C177 1.446 . S
C176 C199 1.391 . S
C177 C176 1.446 . S
C177 C178 1.339 . S
C177 H206 0.949 . S
C178 C177 1.339 . S
C178 C179 1.439 . S
C178 H207 0.950 . S
C179 N175 1.383 . S
C179 C178 1.439 . S
C179 C197 1.392 . S
N180 Co164 2.282 . S
N180 C183 1.332 . S
N180 C185 1.332 . S
C181 C182 1.386 . S
C181 C184 1.388 . S
C182 C181 1.386 . S
C182 C183 1.382 . S
C182 H208 0.950 . S
C183 N180 1.332 . S
C183 C182 1.382 . S
C183 H194 0.952 . S
C184 C181 1.388 . S
C184 C185 1.382 . S
C184 H209 0.950 . S
C185 N180 1.332 . S
C185 C184 1.382 . S
C185 H195 0.948 . S
N186 Co164 2.282 . S
N186 C190 1.332 . S
N186 C191 1.332 . S
C187 C188 1.388 . S
C187 C191 1.382 . S
C187 H210 0.950 . S
C188 C187 1.388 . S
C188 C189 1.386 . S
C189 C188 1.386 . S
C189 C190 1.382 . S
C189 H211 0.950 . S
C190 N186 1.332 . S
C190 C189 1.382 . S
C190 H192 0.952 . S
C191 N186 1.332 . S
C191 C187 1.382 . S
C191 H193 0.948 . S
H192 C190 0.952 . S
H193 C191 0.948 . S
H194 C183 0.952 . S
H195 C185 0.948 . S
C196 C162 1.395 . S
C196 C166 1.391 . S
C197 C159 1.389 . S
C197 C179 1.392 . S
C198 C169 1.392 . S
C198 C171 1.389 . S
C199 C174 1.395 . S
C199 C176 1.391 . S
H200 C160 0.951 . S
H201 C161 0.950 . S
H202 C167 0.949 . S
H203 C168 0.950 . S
H204 C172 0.951 . S
H205 C173 0.950 . S
H206 C177 0.949 . S
H207 C178 0.950 . S
H208 C182 0.950 . S
H209 C184 0.950 . S
H210 C187 0.950 . S
H211 C189 0.950 . S
C212 C213 1.443 . S
C212 N216 1.376 . S
C212 C250 1.389 . S
C213 C212 1.443 . S
C213 C214 1.340 . S
C213 H253 0.951 . S
C214 C213 1.340 . S
C214 C215 1.439 . S
C214 H254 0.950 . S
C215 C214 1.439 . S
C215 N216 1.374 . S
C215 C249 1.395 . S
N216 C212 1.376 . S
N216 C215 1.374 . S
N216 Co217 2.008 1_556 S
Co217 N216 2.008 1_554 S
Co217 N218 1.995 1_554 S
Co217 N223 2.008 . S
Co217 N228 1.995 . S
Co217 N233 2.282 . S
Co217 N239 2.282 1_554 S
N218 Co217 1.995 1_556 S
N218 C219 1.376 . S
N218 C222 1.383 . S
C219 N218 1.376 . S
C219 C220 1.446 . S
C219 C249 1.391 . S
C220 C219 1.446 . S
C220 C221 1.339 . S
C220 H255 0.949 . S
C221 C220 1.339 . S
C221 C222 1.439 . S
C221 H256 0.950 . S
C222 N218 1.383 . S
C222 C221 1.439 . S
C222 C251 1.392 1_556 S
N223 Co217 2.008 . S
N223 C224 1.376 . S
N223 C227 1.374 . S
C224 N223 1.376 . S
C224 C225 1.443 . S
C224 C251 1.389 . S
C225 C224 1.443 . S
C225 C226 1.340 . S
C225 H257 0.951 . S
C226 C225 1.340 . S
C226 C227 1.439 . S
C226 H258 0.950 . S
C227 N223 1.374 . S
C227 C226 1.439 . S
C227 C252 1.395 . S
N228 Co217 1.995 . S
N228 C229 1.376 . S
N228 C232 1.383 . S
C229 N228 1.376 . S
C229 C230 1.446 . S
C229 C252 1.391 . S
C230 C229 1.446 . S
C230 C231 1.339 . S
C230 H259 0.949 . S
C231 C230 1.339 . S
C231 C232 1.439 . S
C231 H260 0.950 . S
C232 N228 1.383 . S
C232 C231 1.439 . S
C232 C250 1.392 1_554 S
N233 Co217 2.282 . S
N233 C236 1.332 . S
N233 C238 1.332 1_554 S
C234 C235 1.386 . S
C234 C237 1.388 1_554 S
C235 C234 1.386 . S
C235 C236 1.382 . S
C235 H261 0.950 . S
C236 N233 1.332 . S
C236 C235 1.382 . S
C236 H247 0.952 . S
C237 C234 1.388 1_556 S
C237 C238 1.382 . S
C237 H262 0.950 . S
C238 N233 1.332 1_556 S
C238 C237 1.382 . S
C238 H248 0.948 . S
N239 Co217 2.282 1_556 S
N239 C243 1.332 . S
N239 C244 1.332 1_556 S
C240 C241 1.388 1_554 S
C240 C244 1.382 . S
C240 H263 0.950 . S
C241 C240 1.388 1_556 S
C241 C242 1.386 . S
C242 C241 1.386 . S
C242 C243 1.382 . S
C242 H264 0.950 . S
C243 N239 1.332 . S
C243 C242 1.382 . S
C243 H245 0.952 . S
C244 N239 1.332 1_554 S
C244 C240 1.382 . S
C244 H246 0.948 . S
H245 C243 0.952 . S
H246 C244 0.948 . S
H247 C236 0.952 . S
H248 C238 0.948 . S
C249 C215 1.395 . S
C249 C219 1.391 . S
C250 C212 1.389 . S
C250 C232 1.392 1_556 S
C251 C222 1.392 1_554 S
C251 C224 1.389 . S
C252 C227 1.395 . S
C252 C229 1.391 . S
H253 C213 0.951 . S
H254 C214 0.950 . S
H255 C220 0.949 . S
H256 C221 0.950 . S
H257 C225 0.951 . S
H258 C226 0.950 . S
H259 C230 0.949 . S
H260 C231 0.950 . S
H261 C235 0.950 . S
H262 C237 0.950 . S
H263 C240 0.950 . S
H264 C242 0.950 . S
C265 C266 1.443 . S
C265 N269 1.376 . S
C265 C303 1.389 . S
C266 C265 1.443 . S
C266 C267 1.340 . S
C266 H306 0.951 . S
C267 C266 1.340 . S
C267 C268 1.439 . S
C267 H307 0.950 . S
C268 C267 1.439 . S
C268 N269 1.374 . S
C268 C302 1.395 . S
N269 C265 1.376 . S
N269 C268 1.374 . S
N269 Co270 2.008 . S
Co270 N269 2.008 . S
Co270 N271 1.995 . S
Co270 N276 2.008 . S
Co270 N281 1.995 . S
Co270 N286 2.282 . S
Co270 N292 2.282 . S
N271 Co270 1.995 . S
N271 C272 1.376 . S
N271 C275 1.383 . S
C272 N271 1.376 . S
C272 C273 1.446 . S
C272 C302 1.391 . S
C273 C272 1.446 . S
C273 C274 1.339 . S
C273 H308 0.949 . S
C274 C273 1.339 . S
C274 C275 1.439 . S
C274 H309 0.950 . S
C275 N271 1.383 . S
C275 C274 1.439 . S
C275 C304 1.392 . S
N276 Co270 2.008 . S
N276 C277 1.376 . S
N276 C280 1.374 . S
C277 N276 1.376 . S
C277 C278 1.443 . S
C277 C304 1.389 . S
C278 C277 1.443 . S
C278 C279 1.340 . S
C278 H310 0.951 . S
C279 C278 1.340 . S
C279 C280 1.439 . S
C279 H311 0.950 . S
C280 N276 1.374 . S
C280 C279 1.439 . S
C280 C305 1.395 . S
N281 Co270 1.995 . S
N281 C282 1.376 . S
N281 C285 1.383 . S
C282 N281 1.376 . S
C282 C283 1.446 . S
C282 C305 1.391 . S
C283 C282 1.446 . S
C283 C284 1.339 . S
C283 H312 0.949 . S
C284 C283 1.339 . S
C284 C285 1.439 . S
C284 H313 0.950 . S
C285 N281 1.383 . S
C285 C284 1.439 . S
C285 C303 1.392 . S
N286 Co270 2.282 . S
N286 C289 1.332 . S
N286 C291 1.332 . S
C287 C288 1.386 . S
C287 C290 1.388 . S
C288 C287 1.386 . S
C288 C289 1.382 . S
C288 H314 0.950 . S
C289 N286 1.332 . S
C289 C288 1.382 . S
C289 H300 0.952 . S
C290 C287 1.388 . S
C290 C291 1.382 . S
C290 H315 0.950 . S
C291 N286 1.332 . S
C291 C290 1.382 . S
C291 H301 0.948 . S
N292 Co270 2.282 . S
N292 C296 1.332 . S
N292 C297 1.332 . S
C293 C294 1.388 . S
C293 C297 1.382 . S
C293 H316 0.950 . S
C294 C293 1.388 . S
C294 C295 1.386 . S
C295 C294 1.386 . S
C295 C296 1.382 . S
C295 H317 0.950 . S
C296 N292 1.332 . S
C296 C295 1.382 . S
C296 H298 0.952 . S
C297 N292 1.332 . S
C297 C293 1.382 . S
C297 H299 0.948 . S
H298 C296 0.952 . S
H299 C297 0.948 . S
H300 C289 0.952 . S
H301 C291 0.948 . S
C302 C268 1.395 . S
C302 C272 1.391 . S
C303 C265 1.389 . S
C303 C285 1.392 . S
C304 C275 1.392 . S
C304 C277 1.389 . S
C305 C280 1.395 . S
C305 C282 1.391 . S
H306 C266 0.951 . S
H307 C267 0.950 . S
H308 C273 0.949 . S
H309 C274 0.950 . S
H310 C278 0.951 . S
H311 C279 0.950 . S
H312 C283 0.949 . S
H313 C284 0.950 . S
H314 C288 0.950 . S
H315 C290 0.950 . S
H316 C293 0.950 . S
H317 C295 0.950 . S
C318 C319 1.443 . S
C318 N322 1.376 . S
C318 C356 1.389 . S
C319 C318 1.443 . S
C319 C320 1.340 . S
C319 H359 0.951 . S
C320 C319 1.340 . S
C320 C321 1.439 . S
C320 H360 0.950 . S
C321 C320 1.439 . S
C321 N322 1.374 . S
C321 C355 1.395 . S
N322 C318 1.376 . S
N322 C321 1.374 . S
N322 Co323 2.008 . S
Co323 N322 2.008 . S
Co323 N324 1.995 . S
Co323 N329 2.008 . S
Co323 N334 1.995 . S
Co323 N339 2.282 . S
Co323 N345 2.282 . S
N324 Co323 1.995 . S
N324 C325 1.376 . S
N324 C328 1.383 . S
C325 N324 1.376 . S
C325 C326 1.446 . S
C325 C355 1.391 . S
C326 C325 1.446 . S
C326 C327 1.339 . S
C326 H361 0.949 . S
C327 C326 1.339 . S
C327 C328 1.439 . S
C327 H362 0.950 . S
C328 N324 1.383 . S
C328 C327 1.439 . S
C328 C357 1.392 . S
N329 Co323 2.008 . S
N329 C330 1.376 . S
N329 C333 1.374 . S
C330 N329 1.376 . S
C330 C331 1.443 . S
C330 C357 1.389 . S
C331 C330 1.443 . S
C331 C332 1.340 . S
C331 H363 0.951 . S
C332 C331 1.340 . S
C332 C333 1.439 . S
C332 H364 0.950 . S
C333 N329 1.374 . S
C333 C332 1.439 . S
C333 C358 1.395 . S
N334 Co323 1.995 . S
N334 C335 1.376 . S
N334 C338 1.383 . S
C335 N334 1.376 . S
C335 C336 1.446 . S
C335 C358 1.391 . S
C336 C335 1.446 . S
C336 C337 1.339 . S
C336 H365 0.949 . S
C337 C336 1.339 . S
C337 C338 1.439 . S
C337 H366 0.950 . S
C338 N334 1.383 . S
C338 C337 1.439 . S
C338 C356 1.392 . S
N339 Co323 2.282 . S
N339 C342 1.332 . S
N339 C344 1.332 . S
C340 C341 1.386 . S
C340 C343 1.388 . S
C341 C340 1.386 . S
C341 C342 1.382 . S
C341 H367 0.950 . S
C342 N339 1.332 . S
C342 C341 1.382 . S
C342 H353 0.952 . S
C343 C340 1.388 . S
C343 C344 1.382 . S
C343 H368 0.950 . S
C344 N339 1.332 . S
C344 C343 1.382 . S
C344 H354 0.948 . S
N345 Co323 2.282 . S
N345 C349 1.332 . S
N345 C350 1.332 . S
C346 C347 1.388 . S
C346 C350 1.382 . S
C346 H369 0.950 . S
C347 C346 1.388 . S
C347 C348 1.386 . S
C348 C347 1.386 . S
C348 C349 1.382 . S
C348 H370 0.950 . S
C349 N345 1.332 . S
C349 C348 1.382 . S
C349 H351 0.952 . S
C350 N345 1.332 . S
C350 C346 1.382 . S
C350 H352 0.948 . S
H351 C349 0.952 . S
H352 C350 0.948 . S
H353 C342 0.952 . S
H354 C344 0.948 . S
C355 C321 1.395 . S
C355 C325 1.391 . S
C356 C318 1.389 . S
C356 C338 1.392 . S
C357 C328 1.392 . S
C357 C330 1.389 . S
C358 C333 1.395 . S
C358 C335 1.391 . S
H359 C319 0.951 . S
H360 C320 0.950 . S
H361 C326 0.949 . S
H362 C327 0.950 . S
H363 C331 0.951 . S
H364 C332 0.950 . S
H365 C336 0.949 . S
H366 C337 0.950 . S
H367 C341 0.950 . S
H368 C343 0.950 . S
H369 C346 0.950 . S
H370 C348 0.950 . S
C371 C372 1.443 . S
C371 N375 1.376 . S
C371 C409 1.389 . S
C372 C371 1.443 . S
C372 C373 1.340 . S
C372 H412 0.951 . S
C373 C372 1.340 . S
C373 C374 1.439 . S
C373 H413 0.950 . S
C374 C373 1.439 . S
C374 N375 1.374 . S
C374 C408 1.395 . S
N375 C371 1.376 . S
N375 C374 1.374 . S
N375 Co376 2.008 . S
Co376 N375 2.008 . S
Co376 N377 1.995 . S
Co376 N382 2.008 . S
Co376 N387 1.995 . S
Co376 N392 2.282 . S
Co376 N398 2.282 . S
N377 Co376 1.995 . S
N377 C378 1.376 . S
N377 C381 1.383 . S
C378 N377 1.376 . S
C378 C379 1.446 . S
C378 C408 1.391 . S
C379 C378 1.446 . S
C379 C380 1.339 . S
C379 H414 0.949 . S
C380 C379 1.339 . S
C380 C381 1.439 . S
C380 H415 0.950 . S
C381 N377 1.383 . S
C381 C380 1.439 . S
C381 C410 1.392 . S
N382 Co376 2.008 . S
N382 C383 1.376 . S
N382 C386 1.374 . S
C383 N382 1.376 . S
C383 C384 1.443 . S
C383 C410 1.389 . S
C384 C383 1.443 . S
C384 C385 1.340 . S
C384 H416 0.951 . S
C385 C384 1.340 . S
C385 C386 1.439 . S
C385 H417 0.950 . S
C386 N382 1.374 . S
C386 C385 1.439 . S
C386 C411 1.395 . S
N387 Co376 1.995 . S
N387 C388 1.376 . S
N387 C391 1.383 . S
C388 N387 1.376 . S
C388 C389 1.446 . S
C388 C411 1.391 . S
C389 C388 1.446 . S
C389 C390 1.339 . S
C389 H418 0.949 . S
C390 C389 1.339 . S
C390 C391 1.439 . S
C390 H419 0.950 . S
C391 N387 1.383 . S
C391 C390 1.439 . S
C391 C409 1.392 . S
N392 Co376 2.282 . S
N392 C395 1.332 . S
N392 C397 1.332 . S
C393 C394 1.386 . S
C393 C396 1.388 . S
C394 C393 1.386 . S
C394 C395 1.382 . S
C394 H420 0.950 . S
C395 N392 1.332 . S
C395 C394 1.382 . S
C395 H406 0.952 . S
C396 C393 1.388 . S
C396 C397 1.382 . S
C396 H421 0.950 . S
C397 N392 1.332 . S
C397 C396 1.382 . S
C397 H407 0.948 . S
N398 Co376 2.282 . S
N398 C402 1.332 . S
N398 C403 1.332 . S
C399 C400 1.388 . S
C399 C403 1.382 . S
C399 H422 0.950 . S
C400 C399 1.388 . S
C400 C401 1.386 . S
C401 C400 1.386 . S
C401 C402 1.382 . S
C401 H423 0.950 . S
C402 N398 1.332 . S
C402 C401 1.382 . S
C402 H404 0.952 . S
C403 N398 1.332 . S
C403 C399 1.382 . S
C403 H405 0.948 . S
H404 C402 0.952 . S
H405 C403 0.948 . S
H406 C395 0.952 . S
H407 C397 0.948 . S
C408 C374 1.395 . S
C408 C378 1.391 . S
C409 C371 1.389 . S
C409 C391 1.392 . S
C410 C381 1.392 . S
C410 C383 1.389 . S
C411 C386 1.395 . S
C411 C388 1.391 . S
H412 C372 0.951 . S
H413 C373 0.950 . S
H414 C379 0.949 . S
H415 C380 0.950 . S
H416 C384 0.951 . S
H417 C385 0.950 . S
H418 C389 0.949 . S
H419 C390 0.950 . S
H420 C394 0.950 . S
H421 C396 0.950 . S
H422 C399 0.950 . S
H423 C401 0.950 . S
C424 C425 1.443 . S
C424 N428 1.376 . S
C424 C462 1.389 . S
C425 C424 1.443 . S
C425 C426 1.340 . S
C425 H465 0.951 . S
C426 C425 1.340 . S
C426 C427 1.439 . S
C426 H466 0.950 . S
C427 C426 1.439 . S
C427 N428 1.374 . S
C427 C461 1.395 . S
N428 C424 1.376 . S
N428 C427 1.374 . S
N428 Co429 2.008 . S
Co429 N428 2.008 . S
Co429 N430 1.995 . S
Co429 N435 2.008 . S
Co429 N440 1.995 . S
Co429 N445 2.282 . S
Co429 N451 2.282 . S
N430 Co429 1.995 . S
N430 C431 1.376 . S
N430 C434 1.383 . S
C431 N430 1.376 . S
C431 C432 1.446 . S
C431 C461 1.391 . S
C432 C431 1.446 . S
C432 C433 1.339 . S
C432 H467 0.949 . S
C433 C432 1.339 . S
C433 C434 1.439 . S
C433 H468 0.950 . S
C434 N430 1.383 . S
C434 C433 1.439 . S
C434 C463 1.392 . S
N435 Co429 2.008 . S
N435 C436 1.376 . S
N435 C439 1.374 . S
C436 N435 1.376 . S
C436 C437 1.443 . S
C436 C463 1.389 . S
C437 C436 1.443 . S
C437 C438 1.340 . S
C437 H469 0.951 . S
C438 C437 1.340 . S
C438 C439 1.439 . S
C438 H470 0.950 . S
C439 N435 1.374 . S
C439 C438 1.439 . S
C439 C464 1.395 . S
N440 Co429 1.995 . S
N440 C441 1.376 . S
N440 C444 1.383 . S
C441 N440 1.376 . S
C441 C442 1.446 . S
C441 C464 1.391 . S
C442 C441 1.446 . S
C442 C443 1.339 . S
C442 H471 0.949 . S
C443 C442 1.339 . S
C443 C444 1.439 . S
C443 H472 0.950 . S
C444 N440 1.383 . S
C444 C443 1.439 . S
C444 C462 1.392 . S
N445 Co429 2.282 . S
N445 C448 1.332 . S
N445 C450 1.332 . S
C446 C447 1.386 . S
C446 C449 1.388 . S
C447 C446 1.386 . S
C447 C448 1.382 . S
C447 H473 0.950 . S
C448 N445 1.332 . S
C448 C447 1.382 . S
C448 H459 0.952 . S
C449 C446 1.388 . S
C449 C450 1.382 . S
C449 H474 0.950 . S
C450 N445 1.332 . S
C450 C449 1.382 . S
C450 H460 0.948 . S
N451 Co429 2.282 . S
N451 C455 1.332 . S
N451 C456 1.332 . S
C452 C453 1.388 . S
C452 C456 1.382 . S
C452 H475 0.950 . S
C453 C452 1.388 . S
C453 C454 1.386 . S
C454 C453 1.386 . S
C454 C455 1.382 . S
C454 H476 0.950 . S
C455 N451 1.332 . S
C455 C454 1.382 . S
C455 H457 0.952 . S
C456 N451 1.332 . S
C456 C452 1.382 . S
C456 H458 0.948 . S
H457 C455 0.952 . S
H458 C456 0.948 . S
H459 C448 0.952 . S
H460 C450 0.948 . S
C461 C427 1.395 . S
C461 C431 1.391 . S
C462 C424 1.389 . S
C462 C444 1.392 . S
C463 C434 1.392 . S
C463 C436 1.389 . S
C464 C439 1.395 . S
C464 C441 1.391 . S
H465 C425 0.951 . S
H466 C426 0.950 . S
H467 C432 0.949 . S
H468 C433 0.950 . S
H469 C437 0.951 . S
H470 C438 0.950 . S
H471 C442 0.949 . S
H472 C443 0.950 . S
H473 C447 0.950 . S
H474 C449 0.950 . S
H475 C452 0.950 . S
H476 C454 0.950 . S
C477 C478 1.443 . S
C477 N481 1.376 . S
C477 C515 1.389 . S
C478 C477 1.443 . S
C478 C479 1.340 . S
C478 H518 0.951 . S
C479 C478 1.340 . S
C479 C480 1.439 . S
C479 H519 0.950 . S
C480 C479 1.439 . S
C480 N481 1.374 . S
C480 C514 1.395 . S
N481 C477 1.376 . S
N481 C480 1.374 . S
N481 Co482 2.008 . S
Co482 N481 2.008 . S
Co482 N483 1.995 . S
Co482 N488 2.008 . S
Co482 N493 1.995 . S
Co482 N498 2.282 . S
Co482 N504 2.282 . S
N483 Co482 1.995 . S
N483 C484 1.376 . S
N483 C487 1.383 . S
C484 N483 1.376 . S
C484 C485 1.446 . S
C484 C514 1.391 . S
C485 C484 1.446 . S
C485 C486 1.339 . S
C485 H520 0.949 . S
C486 C485 1.339 . S
C486 C487 1.439 . S
C486 H521 0.950 . S
C487 N483 1.383 . S
C487 C486 1.439 . S
C487 C516 1.392 . S
N488 Co482 2.008 . S
N488 C489 1.376 . S
N488 C492 1.374 . S
C489 N488 1.376 . S
C489 C490 1.443 . S
C489 C516 1.389 . S
C490 C489 1.443 . S
C490 C491 1.340 . S
C490 H522 0.951 . S
C491 C490 1.340 . S
C491 C492 1.439 . S
C491 H523 0.950 . S
C492 N488 1.374 . S
C492 C491 1.439 . S
C492 C517 1.395 . S
N493 Co482 1.995 . S
N493 C494 1.376 . S
N493 C497 1.383 . S
C494 N493 1.376 . S
C494 C495 1.446 . S
C494 C517 1.391 . S
C495 C494 1.446 . S
C495 C496 1.339 . S
C495 H524 0.949 . S
C496 C495 1.339 . S
C496 C497 1.439 . S
C496 H525 0.950 . S
C497 N493 1.383 . S
C497 C496 1.439 . S
C497 C515 1.392 . S
N498 Co482 2.282 . S
N498 C501 1.332 . S
N498 C503 1.332 . S
C499 C500 1.386 . S
C499 C502 1.388 . S
C500 C499 1.386 . S
C500 C501 1.382 . S
C500 H526 0.950 . S
C501 N498 1.332 . S
C501 C500 1.382 . S
C501 H512 0.952 . S
C502 C499 1.388 . S
C502 C503 1.382 . S
C502 H527 0.950 . S
C503 N498 1.332 . S
C503 C502 1.382 . S
C503 H513 0.948 . S
N504 Co482 2.282 . S
N504 C508 1.332 . S
N504 C509 1.332 . S
C505 C506 1.388 . S
C505 C509 1.382 . S
C505 H528 0.950 . S
C506 C505 1.388 . S
C506 C507 1.386 . S
C507 C506 1.386 . S
C507 C508 1.382 . S
C507 H529 0.950 . S
C508 N504 1.332 . S
C508 C507 1.382 . S
C508 H510 0.952 . S
C509 N504 1.332 . S
C509 C505 1.382 . S
C509 H511 0.948 . S
H510 C508 0.952 . S
H511 C509 0.948 . S
H512 C501 0.952 . S
H513 C503 0.948 . S
C514 C480 1.395 . S
C514 C484 1.391 . S
C515 C477 1.389 . S
C515 C497 1.392 . S
C516 C487 1.392 . S
C516 C489 1.389 . S
C517 C492 1.395 . S
C517 C494 1.391 . S
H518 C478 0.951 . S
H519 C479 0.950 . S
H520 C485 0.949 . S
H521 C486 0.950 . S
H522 C490 0.951 . S
H523 C491 0.950 . S
H524 C495 0.949 . S
H525 C496 0.950 . S
H526 C500 0.950 . S
H527 C502 0.950 . S
H528 C505 0.950 . S
H529 C507 0.950 . S
C530 C531 1.443 . S
C530 N534 1.376 . S
C530 C568 1.389 . S
C531 C530 1.443 . S
C531 C532 1.340 . S
C531 H571 0.951 . S
C532 C531 1.340 . S
C532 C533 1.439 . S
C532 H572 0.950 . S
C533 C532 1.439 . S
C533 N534 1.374 . S
C533 C567 1.395 . S
N534 C530 1.376 . S
N534 C533 1.374 . S
N534 Co535 2.008 . S
Co535 N534 2.008 . S
Co535 N536 1.995 . S
Co535 N541 2.008 1_545 S
Co535 N546 1.995 1_545 S
Co535 N551 2.282 1_545 S
Co535 N557 2.282 . S
N536 Co535 1.995 . S
N536 C537 1.376 . S
N536 C540 1.383 . S
C537 N536 1.376 . S
C537 C538 1.446 . S
C537 C567 1.391 . S
C538 C537 1.446 . S
C538 C539 1.339 . S
C538 H573 0.949 . S
C539 C538 1.339 . S
C539 C540 1.439 . S
C539 H574 0.950 . S
C540 N536 1.383 . S
C540 C539 1.439 . S
C540 C569 1.392 1_545 S
N541 Co535 2.008 1_565 S
N541 C542 1.376 . S
N541 C545 1.374 . S
C542 N541 1.376 . S
C542 C543 1.443 . S
C542 C569 1.389 . S
C543 C542 1.443 . S
C543 C544 1.340 . S
C543 H575 0.951 . S
C544 C543 1.340 . S
C544 C545 1.439 . S
C544 H576 0.950 . S
C545 N541 1.374 . S
C545 C544 1.439 . S
C545 C570 1.395 . S
N546 Co535 1.995 1_565 S
N546 C547 1.376 . S
N546 C550 1.383 . S
C547 N546 1.376 . S
C547 C548 1.446 . S
C547 C570 1.391 . S
C548 C547 1.446 . S
C548 C549 1.339 . S
C548 H577 0.949 . S
C549 C548 1.339 . S
C549 C550 1.439 . S
C549 H578 0.950 . S
C550 N546 1.383 . S
C550 C549 1.439 . S
C550 C568 1.392 1_565 S
N551 Co535 2.282 1_565 S
N551 C554 1.332 . S
N551 C556 1.332 1_565 S
C552 C553 1.386 . S
C552 C555 1.388 1_565 S
C553 C552 1.386 . S
C553 C554 1.382 . S
C553 H579 0.950 . S
C554 N551 1.332 . S
C554 C553 1.382 . S
C554 H565 0.952 . S
C555 C552 1.388 1_545 S
C555 C556 1.382 . S
C555 H580 0.950 . S
C556 N551 1.332 1_545 S
C556 C555 1.382 . S
C556 H566 0.948 . S
N557 Co535 2.282 . S
N557 C561 1.332 . S
N557 C562 1.332 1_545 S
C558 C559 1.388 1_565 S
C558 C562 1.382 . S
C558 H581 0.950 . S
C559 C558 1.388 1_545 S
C559 C560 1.386 . S
C560 C559 1.386 . S
C560 C561 1.382 . S
C560 H582 0.950 . S
C561 N557 1.332 . S
C561 C560 1.382 . S
C561 H563 0.952 . S
C562 N557 1.332 1_565 S
C562 C558 1.382 . S
C562 H564 0.948 . S
H563 C561 0.952 . S
H564 C562 0.948 . S
H565 C554 0.952 . S
H566 C556 0.948 . S
C567 C533 1.395 . S
C567 C537 1.391 . S
C568 C530 1.389 . S
C568 C550 1.392 1_545 S
C569 C540 1.392 1_565 S
C569 C542 1.389 . S
C570 C545 1.395 . S
C570 C547 1.391 . S
H571 C531 0.951 . S
H572 C532 0.950 . S
H573 C538 0.949 . S
H574 C539 0.950 . S
H575 C543 0.951 . S
H576 C544 0.950 . S
H577 C548 0.949 . S
H578 C549 0.950 . S
H579 C553 0.950 . S
H580 C555 0.950 . S
H581 C558 0.950 . S
H582 C560 0.950 . S
C583 C584 1.443 . S
C583 N587 1.376 . S
C583 C621 1.389 . S
C584 C583 1.443 . S
C584 C585 1.340 . S
C584 H624 0.951 . S
C585 C584 1.340 . S
C585 C586 1.439 . S
C585 H625 0.950 . S
C586 C585 1.439 . S
C586 N587 1.374 . S
C586 C620 1.395 . S
N587 C583 1.376 . S
N587 C586 1.374 . S
N587 Co588 2.008 1_556 S
Co588 N587 2.008 1_554 S
Co588 N589 1.995 1_554 S
Co588 N594 2.008 . S
Co588 N599 1.995 . S
Co588 N604 2.282 . S
Co588 N610 2.282 . S
N589 Co588 1.995 1_556 S
N589 C590 1.376 . S
N589 C593 1.383 . S
C590 N589 1.376 . S
C590 C591 1.446 . S
C590 C620 1.391 . S
C591 C590 1.446 . S
C591 C592 1.339 . S
C591 H626 0.949 . S
C592 C591 1.339 . S
C592 C593 1.439 . S
C592 H627 0.950 . S
C593 N589 1.383 . S
C593 C592 1.439 . S
C593 C622 1.392 1_556 S
N594 Co588 2.008 . S
N594 C595 1.376 . S
N594 C598 1.374 . S
C595 N594 1.376 . S
C595 C596 1.443 . S
C595 C622 1.389 . S
C596 C595 1.443 . S
C596 C597 1.340 . S
C596 H628 0.951 . S
C597 C596 1.340 . S
C597 C598 1.439 . S
C597 H629 0.950 . S
C598 N594 1.374 . S
C598 C597 1.439 . S
C598 C623 1.395 . S
N599 Co588 1.995 . S
N599 C600 1.376 . S
N599 C603 1.383 . S
C600 N599 1.376 . S
C600 C601 1.446 . S
C600 C623 1.391 . S
C601 C600 1.446 . S
C601 C602 1.339 . S
C601 H630 0.949 . S
C602 C601 1.339 . S
C602 C603 1.439 . S
C602 H631 0.950 . S
C603 N599 1.383 . S
C603 C602 1.439 . S
C603 C621 1.392 1_554 S
N604 Co588 2.282 . S
N604 C607 1.332 . S
N604 C609 1.332 1_554 S
C605 C606 1.386 . S
C605 C608 1.388 . S
C606 C605 1.386 . S
C606 C607 1.382 . S
C606 H632 0.950 . S
C607 N604 1.332 . S
C607 C606 1.382 . S
C607 H618 0.952 . S
C608 C605 1.388 . S
C608 C609 1.382 1_554 S
C608 H633 0.950 1_554 S
C609 N604 1.332 1_556 S
C609 C608 1.382 1_556 S
C609 H619 0.948 . S
N610 Co588 2.282 . S
N610 C614 1.332 1_554 S
N610 C615 1.332 . S
C611 C612 1.388 1_554 S
C611 C615 1.382 . S
C611 H634 0.950 . S
C612 C611 1.388 1_556 S
C612 C613 1.386 . S
C613 C612 1.386 . S
C613 C614 1.382 . S
C613 H635 0.950 . S
C614 N610 1.332 1_556 S
C614 C613 1.382 . S
C614 H616 0.952 . S
C615 N610 1.332 . S
C615 C611 1.382 . S
C615 H617 0.948 . S
H616 C614 0.952 . S
H617 C615 0.948 . S
H618 C607 0.952 . S
H619 C609 0.948 . S
C620 C586 1.395 . S
C620 C590 1.391 . S
C621 C583 1.389 . S
C621 C603 1.392 1_556 S
C622 C593 1.392 1_554 S
C622 C595 1.389 . S
C623 C598 1.395 . S
C623 C600 1.391 . S
H624 C584 0.951 . S
H625 C585 0.950 . S
H626 C591 0.949 . S
H627 C592 0.950 . S
H628 C596 0.951 . S
H629 C597 0.950 . S
H630 C601 0.949 . S
H631 C602 0.950 . S
H632 C606 0.950 . S
H633 C608 0.950 1_556 S
H634 C611 0.950 . S
H635 C613 0.950 . S
C636 O652 1.251 . S
C636 O654 1.254 . S
N637 C638 1.333 . S
N637 C642 1.307 . S
N637 Zn643 2.020 1_556 S
C638 N637 1.333 . S
C638 C639 1.379 . S
C638 H656 0.952 . S
C639 C638 1.379 . S
C639 C640 1.390 . S
C639 H666 0.949 . S
C640 C639 1.390 . S
C640 C641 1.357 . S
C641 C640 1.357 . S
C641 C642 1.370 . S
C641 H667 0.950 . S
C642 N637 1.307 . S
C642 C641 1.370 . S
C642 H660 0.948 . S
Zn643 N637 2.020 1_554 S
Zn643 O652 2.039 . S
Zn643 O658 2.034 . S
Zn643 O662 2.025 . S
Zn643 O664 2.024 . S
C644 O663 1.246 . S
C644 O664 1.249 . S
N645 C646 1.307 . S
N645 C647 1.333 . S
N645 Zn651 2.020 . S
C646 N645 1.307 . S
C646 C650 1.370 . S
C646 H657 0.948 . S
C647 N645 1.333 . S
C647 C648 1.379 . S
C647 H655 0.952 . S
C648 C647 1.379 . S
C648 C649 1.390 . S
C648 H668 0.949 1_455 S
C649 C648 1.390 . S
C649 C650 1.357 . S
C650 C646 1.370 . S
C650 C649 1.357 . S
C650 H669 0.950 . S
Zn651 N645 2.020 . S
Zn651 O654 2.025 . S
Zn651 O659 2.024 . S
Zn651 O661 2.039 . S
Zn651 O663 2.034 . S
O652 C636 1.251 . S
O652 Zn643 2.039 . S
C653 O658 1.246 . S
C653 O659 1.249 . S
O654 C636 1.254 . S
O654 Zn651 2.025 . S
H655 C647 0.952 . S
H656 C638 0.952 . S
H657 C646 0.948 . S
O658 Zn643 2.034 . S
O658 C653 1.246 . S
O659 Zn651 2.024 . S
O659 C653 1.249 . S
H660 C642 0.948 . S
O661 Zn651 2.039 . S
O661 C665 1.251 . S
O662 Zn643 2.025 . S
O662 C665 1.254 . S
O663 C644 1.246 . S
O663 Zn651 2.034 . S
O664 Zn643 2.024 . S
O664 C644 1.249 . S
C665 O661 1.251 . S
C665 O662 1.254 . S
H666 C639 0.949 . S
H667 C641 0.950 . S
H668 C648 0.949 1_655 S
H669 C650 0.950 . S
C670 O686 1.251 . S
C670 O688 1.254 . S
N671 C672 1.333 . S
N671 C676 1.307 . S
N671 Zn677 2.020 1_556 S
C672 N671 1.333 . S
C672 C673 1.379 . S
C672 H690 0.952 . S
C673 C672 1.379 . S
C673 C674 1.390 . S
C673 H700 0.949 . S
C674 C673 1.390 . S
C674 C675 1.357 . S
C675 C674 1.357 . S
C675 C676 1.370 . S
C675 H701 0.950 . S
C676 N671 1.307 . S
C676 C675 1.370 . S
C676 H694 0.926 1_655 S
Zn677 N671 2.020 1_554 S
Zn677 O686 2.039 . S
Zn677 O692 2.034 . S
Zn677 O696 2.025 1_654 S
Zn677 O698 2.024 . S
C678 O697 1.246 . S
C678 O698 1.249 . S
N679 C680 1.307 . S
N679 C681 1.333 1_655 S
N679 Zn685 2.020 . S
C680 N679 1.307 . S
C680 C684 1.370 . S
C680 H691 0.948 . S
C681 N679 1.333 1_455 S
C681 C682 1.379 . S
C681 H689 0.952 . S
C682 C681 1.379 . S
C682 C683 1.390 . S
C682 H702 0.949 . S
C683 C682 1.390 . S
C683 C684 1.357 1_455 S
C684 C680 1.370 . S
C684 C683 1.357 1_655 S
C684 H703 0.950 . S
Zn685 N679 2.020 . S
Zn685 O688 2.025 . S
Zn685 O693 2.024 . S
Zn685 O695 2.039 1_655 S
Zn685 O697 2.034 . S
O686 C670 1.251 . S
O686 Zn677 2.039 . S
C687 O692 1.246 . S
C687 O693 1.249 . S
O688 C670 1.254 . S
O688 Zn685 2.025 . S
H689 C681 0.952 . S
H690 C672 0.952 . S
H691 C680 0.948 . S
O692 Zn677 2.034 . S
O692 C687 1.246 . S
O693 Zn685 2.024 . S
O693 C687 1.249 . S
H694 C676 0.926 1_455 S
O695 Zn685 2.039 1_455 S
O695 C699 1.251 . S
O696 Zn677 2.025 1_456 S
O696 C699 1.254 1_556 S
O697 C678 1.246 . S
O697 Zn685 2.034 . S
O698 Zn677 2.024 . S
O698 C678 1.249 . S
C699 O695 1.251 . S
C699 O696 1.254 1_554 S
H700 C673 0.949 . S
H701 C675 0.950 . S
H702 C682 0.949 . S
H703 C684 0.950 . S
C704 O720 1.251 . S
C704 O722 1.254 . S
N705 C706 1.333 . S
N705 C710 1.307 . S
N705 Zn711 2.020 . S
C706 N705 1.333 . S
C706 C707 1.379 1_455 S
C706 H724 0.952 1_455 S
C707 C706 1.379 1_655 S
C707 C708 1.390 1_655 S
C707 H734 0.949 . S
C708 C707 1.390 1_455 S
C708 C709 1.357 . S
C709 C708 1.357 . S
C709 C710 1.370 . S
C709 H735 0.950 . S
C710 N705 1.307 . S
C710 C709 1.370 . S
C710 H728 0.948 . S
Zn711 N705 2.020 . S
Zn711 O720 2.039 . S
Zn711 O726 2.054 . S
Zn711 O730 2.025 . S
Zn711 O732 2.024 . S
C712 O731 1.246 . S
C712 O732 1.249 . S
N713 C714 1.307 . S
N713 C715 1.333 . S
N713 Zn719 2.020 . S
C714 N713 1.307 . S
C714 C718 1.370 . S
C714 H725 0.948 . S
C715 N713 1.333 . S
C715 C716 1.379 . S
C715 H723 0.952 . S
C716 C715 1.379 . S
C716 C717 1.390 . S
C716 H736 0.949 . S
C717 C716 1.390 . S
C717 C718 1.357 . S
C718 C714 1.370 . S
C718 C717 1.357 . S
C718 H737 0.950 1_565 S
Zn719 N713 2.020 . S
Zn719 O722 2.025 . S
Zn719 O727 2.024 . S
Zn719 O729 2.039 . S
Zn719 O731 2.034 . S
O720 C704 1.251 . S
O720 Zn711 2.039 . S
C721 O726 1.244 1_655 S
C721 O727 1.249 1_655 S
O722 C704 1.254 . S
O722 Zn719 2.025 . S
H723 C715 0.952 . S
H724 C706 0.952 1_655 S
H725 C714 0.948 . S
O726 Zn711 2.054 . S
O726 C721 1.244 1_455 S
O727 Zn719 2.024 . S
O727 C721 1.249 1_455 S
H728 C710 0.948 . S
O729 Zn719 2.039 . S
O729 C733 1.251 . S
O730 Zn711 2.025 . S
O730 C733 1.254 . S
O731 C712 1.246 . S
O731 Zn719 2.034 . S
O732 Zn711 2.024 . S
O732 C712 1.249 . S
C733 O729 1.251 . S
C733 O730 1.254 . S
H734 C707 0.949 . S
H735 C709 0.950 . S
H736 C716 0.949 . S
H737 C718 0.950 1_545 S
C738 O754 1.251 . S
C738 O756 1.254 . S
N739 C740 1.333 . S
N739 C744 1.307 . S
N739 Zn745 2.020 1_455 S
C740 N739 1.333 . S
C740 C741 1.379 . S
C740 H758 0.952 . S
C741 C740 1.379 . S
C741 C742 1.390 . S
C741 H768 0.949 . S
C742 C741 1.390 . S
C742 C743 1.357 . S
C743 C742 1.357 . S
C743 C744 1.370 . S
C743 H769 0.950 . S
C744 N739 1.307 . S
C744 C743 1.370 . S
C744 H762 0.948 . S
Zn745 N739 2.020 1_655 S
Zn745 O754 2.039 . S
Zn745 O760 2.034 . S
Zn745 O764 2.025 1_655 S
Zn745 O766 2.024 . S
C746 O765 1.246 . S
C746 O766 1.249 . S
N747 C748 1.307 . S
N747 C749 1.333 . S
N747 Zn753 2.020 . S
C748 N747 1.307 . S
C748 C752 1.370 . S
C748 H759 0.948 . S
C749 N747 1.333 . S
C749 C750 1.379 . S
C749 H757 0.952 . S
C750 C749 1.379 . S
C750 C751 1.390 . S
C750 H770 0.949 . S
C751 C750 1.390 . S
C751 C752 1.357 . S
C752 C748 1.370 . S
C752 C751 1.357 . S
C752 H771 0.950 . S
Zn753 N747 2.020 . S
Zn753 O756 2.025 . S
Zn753 O761 2.024 . S
Zn753 O763 2.039 . S
Zn753 O765 2.034 . S
O754 C738 1.251 . S
O754 Zn745 2.039 . S
C755 O760 1.246 . S
C755 O761 1.249 . S
O756 C738 1.254 . S
O756 Zn753 2.025 . S
H757 C749 0.952 . S
H758 C740 0.952 . S
H759 C748 0.948 . S
O760 Zn745 2.034 . S
O760 C755 1.246 . S
O761 Zn753 2.024 . S
O761 C755 1.249 . S
H762 C744 0.948 . S
O763 Zn753 2.039 . S
O763 C767 1.251 . S
O764 Zn745 2.025 1_455 S
O764 C767 1.254 1_455 S
O765 C746 1.246 . S
O765 Zn753 2.034 . S
O766 Zn745 2.024 . S
O766 C746 1.249 . S
C767 O763 1.251 . S
C767 O764 1.254 1_655 S
H768 C741 0.949 . S
H769 C743 0.950 . S
H770 C750 0.949 . S
H771 C752 0.950 . S
C772 O788 1.251 . S
C772 O790 1.254 . S
N773 C774 1.333 . S
N773 C778 1.307 1_565 S
N773 Zn779 2.020 . S
C774 N773 1.333 . S
C774 C775 1.379 1_565 S
C774 H792 0.952 . S
C775 C774 1.379 1_545 S
C775 C776 1.390 . S
C775 H802 0.949 . S
C776 C775 1.390 . S
C776 C777 1.357 . S
C777 C776 1.357 . S
C777 C778 1.370 . S
C777 H803 0.950 . S
C778 N773 1.307 1_545 S
C778 C777 1.370 . S
C778 H796 0.948 . S
Zn779 N773 2.020 . S
Zn779 O788 2.039 . S
Zn779 O794 2.034 . S
Zn779 O798 2.025 . S
Zn779 O800 2.024 1_565 S
C780 O799 1.246 1_545 S
C780 O800 1.249 . S
N781 C782 1.307 . S
N781 C783 1.333 . S
N781 Zn787 2.020 . S
C782 N781 1.307 . S
C782 C786 1.370 . S
C782 H793 0.948 . S
C783 N781 1.333 . S
C783 C784 1.379 . S
C783 H791 0.952 . S
C784 C783 1.379 . S
C784 C785 1.390 . S
C784 H804 0.949 . S
C785 C784 1.390 . S
C785 C786 1.357 . S
C786 C782 1.370 . S
C786 C785 1.357 . S
C786 H805 0.950 . S
Zn787 N781 2.020 . S
Zn787 O790 2.025 . S
Zn787 O795 2.024 . S
Zn787 O797 2.039 . S
Zn787 O799 2.034 . S
O788 C772 1.251 . S
O788 Zn779 2.039 . S
C789 O794 1.246 . S
C789 O795 1.249 . S
O790 C772 1.254 . S
O790 Zn787 2.025 . S
H791 C783 0.952 . S
H792 C774 0.952 . S
H793 C782 0.948 . S
O794 Zn779 2.034 . S
O794 C789 1.246 . S
O795 Zn787 2.024 . S
O795 C789 1.249 . S
H796 C778 0.948 . S
O797 Zn787 2.039 . S
O797 C801 1.251 . S
O798 Zn779 2.025 . S
O798 C801 1.254 . S
O799 C780 1.246 1_565 S
O799 Zn787 2.034 . S
O800 Zn779 2.024 1_545 S
O800 C780 1.249 . S
C801 O797 1.251 . S
C801 O798 1.254 . S
H802 C775 0.949 . S
H803 C777 0.950 . S
H804 C784 0.949 . S
H805 C786 0.950 . S
C806 O822 1.251 . S
C806 O824 1.254 . S
N807 C808 1.333 . S
N807 C812 1.307 . S
N807 Zn813 2.020 . S
C808 N807 1.333 . S
C808 C809 1.379 . S
C808 H826 0.952 . S
C809 C808 1.379 . S
C809 C810 1.390 . S
C809 H836 0.949 . S
C810 C809 1.390 . S
C810 C811 1.357 . S
C811 C810 1.357 . S
C811 C812 1.370 . S
C811 H837 0.950 . S
C812 N807 1.307 . S
C812 C811 1.370 . S
C812 H830 0.948 . S
Zn813 N807 2.020 . S
Zn813 O822 2.039 . S
Zn813 O828 2.034 . S
Zn813 O832 2.025 . S
Zn813 O834 2.024 . S
C814 O833 1.246 . S
C814 O834 1.249 . S
N815 C816 1.307 . S
N815 C817 1.333 . S
N815 Zn821 2.020 . S
C816 N815 1.307 . S
C816 C820 1.370 . S
C816 H827 0.948 . S
C817 N815 1.333 . S
C817 C818 1.379 . S
C817 H825 0.952 . S
C818 C817 1.379 . S
C818 C819 1.390 . S
C818 H838 0.949 . S
C819 C818 1.390 . S
C819 C820 1.357 . S
C820 C816 1.370 . S
C820 C819 1.357 . S
C820 H839 0.950 . S
Zn821 N815 2.020 . S
Zn821 O824 2.025 . S
Zn821 O829 2.024 . S
Zn821 O831 2.039 . S
Zn821 O833 2.034 . S
O822 C806 1.251 . S
O822 Zn813 2.039 . S
C823 O828 1.246 . S
C823 O829 1.249 . S
O824 C806 1.254 . S
O824 Zn821 2.025 . S
H825 C817 0.952 . S
H826 C808 0.952 . S
H827 C816 0.948 . S
O828 Zn813 2.034 . S
O828 C823 1.246 . S
O829 Zn821 2.024 . S
O829 C823 1.249 . S
H830 C812 0.948 . S
O831 Zn821 2.039 . S
O831 C835 1.251 . S
O832 Zn813 2.025 . S
O832 C835 1.254 . S
O833 C814 1.246 . S
O833 Zn821 2.034 . S
O834 Zn813 2.024 . S
O834 C814 1.249 . S
C835 O831 1.251 . S
C835 O832 1.254 . S
H836 C809 0.949 . S
H837 C811 0.950 . S
H838 C818 0.949 . S
H839 C820 0.950 . S
C840 O856 1.251 . S
C840 O858 1.254 . S
N841 C842 1.333 . S
N841 C846 1.307 . S
N841 Zn847 2.020 . S
C842 N841 1.333 . S
C842 C843 1.379 . S
C842 H860 0.952 . S
C843 C842 1.379 . S
C843 C844 1.390 . S
C843 H870 0.949 . S
C844 C843 1.390 . S
C844 C845 1.357 . S
C845 C844 1.357 . S
C845 C846 1.370 . S
C845 H871 0.950 . S
C846 N841 1.307 . S
C846 C845 1.370 . S
C846 H864 0.948 . S
Zn847 N841 2.020 . S
Zn847 O856 2.039 . S
Zn847 O862 2.034 . S
Zn847 O866 2.025 . S
Zn847 O868 2.024 . S
C848 O867 1.246 . S
C848 O868 1.249 . S
N849 C850 1.307 . S
N849 C851 1.333 . S
N849 Zn855 2.020 1_554 S
C850 N849 1.307 . S
C850 C854 1.370 . S
C850 H861 0.948 . S
C851 N849 1.333 . S
C851 C852 1.379 . S
C851 H859 0.952 . S
C852 C851 1.379 . S
C852 C853 1.390 . S
C852 H872 0.949 . S
C853 C852 1.390 . S
C853 C854 1.357 . S
C854 C850 1.370 . S
C854 C853 1.357 . S
C854 H873 0.950 . S
Zn855 N849 2.020 1_556 S
Zn855 O858 2.025 . S
Zn855 O863 2.024 . S
Zn855 O865 2.039 . S
Zn855 O867 2.034 . S
O856 C840 1.251 . S
O856 Zn847 2.039 . S
C857 O862 1.246 . S
C857 O863 1.249 . S
O858 C840 1.254 . S
O858 Zn855 2.025 . S
H859 C851 0.952 . S
H860 C842 0.952 . S
H861 C850 0.948 . S
O862 Zn847 2.034 . S
O862 C857 1.246 . S
O863 Zn855 2.024 . S
O863 C857 1.249 . S
H864 C846 0.948 . S
O865 Zn855 2.039 . S
O865 C869 1.251 . S
O866 Zn847 2.025 . S
O866 C869 1.254 . S
O867 C848 1.246 . S
O867 Zn855 2.034 . S
O868 Zn847 2.024 . S
O868 C848 1.249 . S
C869 O865 1.251 . S
C869 O866 1.254 . S
H870 C843 0.949 . S
H871 C845 0.950 . S
H872 C852 0.949 . S
H873 C854 0.950 . S
C874 O890 1.251 . S
C874 O892 1.254 . S
N875 C876 1.333 . S
N875 C880 1.307 . S
N875 Zn881 2.020 . S
C876 N875 1.333 . S
C876 C877 1.379 . S
C876 H894 0.952 . S
C877 C876 1.379 . S
C877 C878 1.390 . S
C877 H904 0.949 . S
C878 C877 1.390 . S
C878 C879 1.357 . S
C879 C878 1.357 . S
C879 C880 1.370 . S
C879 H905 0.950 . S
C880 N875 1.307 . S
C880 C879 1.370 . S
C880 H898 0.948 . S
Zn881 N875 2.020 . S
Zn881 O890 2.039 . S
Zn881 O896 2.034 . S
Zn881 O900 2.025 . S
Zn881 O902 2.024 . S
C882 O901 1.246 . S
C882 O902 1.249 . S
N883 C884 1.307 . S
N883 C885 1.333 . S
N883 Zn889 2.020 . S
C884 N883 1.307 . S
C884 C888 1.370 . S
C884 H895 0.948 . S
C885 N883 1.333 . S
C885 C886 1.379 1_545 S
C885 H893 0.952 1_545 S
C886 C885 1.379 1_565 S
C886 C887 1.390 1_565 S
C886 H906 0.949 . S
C887 C886 1.390 1_545 S
C887 C888 1.357 . S
C888 C884 1.370 . S
C888 C887 1.357 . S
C888 H907 0.950 . S
Zn889 N883 2.020 . S
Zn889 O892 2.025 . S
Zn889 O897 2.024 . S
Zn889 O899 2.039 . S
Zn889 O901 2.034 . S
O890 C874 1.251 . S
O890 Zn881 2.039 . S
C891 O896 1.246 . S
C891 O897 1.249 . S
O892 C874 1.254 . S
O892 Zn889 2.025 . S
H893 C885 0.952 1_565 S
H894 C876 0.952 . S
H895 C884 0.948 . S
O896 Zn881 2.034 . S
O896 C891 1.246 . S
O897 Zn889 2.024 . S
O897 C891 1.249 . S
H898 C880 0.948 . S
O899 Zn889 2.039 . S
O899 C903 1.258 . S
O900 Zn881 2.025 . S
O900 C903 1.274 . S
O901 C882 1.246 . S
O901 Zn889 2.034 . S
O902 Zn881 2.024 . S
O902 C882 1.249 . S
C903 O899 1.258 . S
C903 O900 1.274 . S
H904 C877 0.949 . S
H905 C879 0.950 . S
H906 C886 0.949 . S
H907 C888 0.950 . S
C908 C909 1.369 . S
C908 C910 1.419 . S
C908 H912 0.930 . S
C909 C908 1.369 . S
C909 C918 1.429 . S
C910 C908 1.419 . S
C910 C911 1.363 . S
C910 H913 0.929 . S
C911 C910 1.363 . S
C911 C917 1.428 . S
H912 C908 0.930 . S
H913 C910 0.929 . S
S914 N915 1.613 . S
S914 N916 1.610 . S
N915 S914 1.613 . S
N915 C918 1.350 . S
N916 S914 1.610 . S
N916 C917 1.351 . S
C917 C911 1.428 . S
C917 N916 1.351 . S
C917 C918 1.434 . S
C918 C909 1.429 . S
C918 N915 1.350 . S
C918 C917 1.434 . S
C919 C920 1.369 1_455 S
C919 C921 1.419 . S
C919 H923 0.930 . S
C920 C919 1.369 1_655 S
C920 C929 1.429 . S
C921 C919 1.419 . S
C921 C922 1.363 1_455 S
C921 H924 0.929 . S
C922 C921 1.363 1_655 S
C922 C928 1.428 . S
H923 C919 0.930 . S
H924 C921 0.929 . S
S925 N926 1.613 . S
S925 N927 1.610 . S
N926 S925 1.613 . S
N926 C929 1.350 . S
N927 S925 1.610 . S
N927 C928 1.351 . S
C928 C922 1.428 . S
C928 N927 1.351 . S
C928 C929 1.434 . S
C929 C920 1.429 . S
C929 N926 1.350 . S
C929 C928 1.434 . S
C930 C931 1.369 . S
C930 C932 1.419 . S
C930 H934 0.930 . S
C931 C930 1.369 . S
C931 C940 1.429 . S
C932 C930 1.419 . S
C932 C933 1.363 . S
C932 H935 0.929 . S
C933 C932 1.363 . S
C933 C939 1.428 . S
H934 C930 0.930 . S
H935 C932 0.929 . S
S936 N937 1.613 . S
S936 N938 1.610 . S
N937 S936 1.613 . S
N937 C940 1.350 1_655 S
N938 S936 1.610 . S
N938 C939 1.351 1_655 S
C939 C933 1.428 . S
C939 N938 1.351 1_455 S
C939 C940 1.434 . S
C940 C931 1.429 . S
C940 N937 1.350 1_455 S
C940 C939 1.434 . S
C941 C942 1.359 1_655 S
C941 C943 1.419 . S
C941 H945 0.930 . S
C942 C941 1.359 1_455 S
C942 C951 1.438 . S
C943 C941 1.419 . S
C943 C944 1.363 1_655 S
C943 H946 0.929 . S
C944 C943 1.363 1_455 S
C944 C950 1.428 . S
H945 C941 0.930 . S
H946 C943 0.929 . S
S947 N948 1.613 . S
S947 N949 1.610 . S
N948 S947 1.613 . S
N948 C951 1.350 . S
N949 S947 1.610 . S
N949 C950 1.351 . S
C950 C944 1.428 . S
C950 N949 1.351 . S
C950 C951 1.434 . S
C951 C942 1.438 . S
C951 N948 1.350 . S
C951 C950 1.434 . S
C952 C953 1.369 . S
C952 C954 1.419 . S
C952 H956 0.930 . S
C953 C952 1.369 . S
C953 C962 1.429 . S
C954 C952 1.419 . S
C954 C955 1.363 . S
C954 H957 0.945 . S
C955 C954 1.363 . S
C955 C961 1.428 . S
H956 C952 0.930 . S
H957 C954 0.945 . S
S958 N959 1.613 . S
S958 N960 1.610 . S
N959 S958 1.613 . S
N959 C962 1.350 . S
N960 S958 1.610 . S
N960 C961 1.351 . S
C961 C955 1.428 . S
C961 N960 1.351 . S
C961 C962 1.434 . S
C962 C953 1.429 . S
C962 N959 1.350 . S
C962 C961 1.434 . S
C963 C964 1.369 . S
C963 C965 1.419 . S
C963 H967 0.930 . S
C964 C963 1.369 . S
C964 C973 1.429 . S
C965 C963 1.419 . S
C965 C966 1.363 . S
C965 H968 0.929 . S
C966 C965 1.363 . S
C966 C972 1.428 . S
H967 C963 0.930 . S
H968 C965 0.929 . S
S969 N970 1.613 . S
S969 N971 1.610 . S
N970 S969 1.613 . S
N970 C973 1.350 . S
N971 S969 1.610 . S
N971 C972 1.351 . S
C972 C966 1.428 . S
C972 N971 1.351 . S
C972 C973 1.434 . S
C973 C964 1.429 . S
C973 N970 1.350 . S
C973 C972 1.434 . S
C974 C975 1.369 . S
C974 C976 1.419 . S
C974 H978 0.930 . S
C975 C974 1.369 . S
C975 C984 1.429 1_545 S
C976 C974 1.419 . S
C976 C977 1.363 . S
C976 H979 0.929 . S
C977 C976 1.363 . S
C977 C983 1.428 . S
H978 C974 0.930 . S
H979 C976 0.929 . S
S980 N981 1.613 . S
S980 N982 1.610 . S
N981 S980 1.613 . S
N981 C984 1.350 . S
N982 S980 1.610 . S
N982 C983 1.351 1_565 S
C983 C977 1.428 . S
C983 N982 1.351 1_545 S
C983 C984 1.434 1_545 S
C984 C975 1.429 1_565 S
C984 N981 1.350 . S
C984 C983 1.434 1_565 S
C985 C986 1.369 . S
C985 C987 1.419 . S
C985 H989 0.930 . S
C986 C985 1.369 . S
C986 C995 1.429 . S
C987 C985 1.419 . S
C987 C988 1.363 . S
C987 H990 0.929 . S
C988 C987 1.363 . S
C988 C994 1.428 . S
H989 C985 0.930 . S
H990 C987 0.929 . S
S991 N992 1.613 . S
S991 N993 1.610 . S
N992 S991 1.613 . S
N992 C995 1.350 . S
N993 S991 1.610 . S
N993 C994 1.351 . S
C994 C988 1.428 . S
C994 N993 1.351 . S
C994 C995 1.434 . S
C995 C986 1.429 . S
C995 N992 1.350 . S
C995 C994 1.434 . S
C996 C997 1.369 . S
C996 C998 1.419 . S
C996 H1000 0.930 . S
C997 C996 1.369 . S
C997 C1006 1.429 1_554 S
C998 C996 1.419 . S
C998 C999 1.363 . S
C998 H1001 0.929 . S
C999 C998 1.363 . S
C999 C1005 1.428 1_554 S
H1000 C996 0.930 . S
H1001 C998 0.929 . S
S1002 N1003 1.613 . S
S1002 N1004 1.610 . S
N1003 S1002 1.613 . S
N1003 C1006 1.350 . S
N1004 S1002 1.610 . S
N1004 C1005 1.351 . S
C1005 C999 1.428 1_556 S
C1005 N1004 1.351 . S
C1005 C1006 1.434 . S
C1006 C997 1.429 1_556 S
C1006 N1003 1.350 . S
C1006 C1005 1.434 . S
C1007 C1008 1.369 . S
C1007 C1009 1.419 . S
C1007 H1011 0.930 . S
C1008 C1007 1.369 . S
C1008 C1017 1.429 . S
C1009 C1007 1.419 . S
C1009 C1010 1.363 . S
C1009 H1012 0.929 . S
C1010 C1009 1.363 . S
C1010 C1016 1.428 . S
H1011 C1007 0.930 . S
H1012 C1009 0.929 . S
S1013 N1014 1.613 . S
S1013 N1015 1.610 . S
N1014 S1013 1.613 . S
N1014 C1017 1.350 . S
N1015 S1013 1.610 . S
N1015 C1016 1.351 . S
C1016 C1010 1.428 . S
C1016 N1015 1.351 . S
C1016 C1017 1.434 . S
C1017 C1008 1.429 . S
C1017 N1014 1.350 . S
C1017 C1016 1.434 . S
C1018 C1019 1.369 . S
C1018 C1020 1.419 . S
C1018 H1022 0.930 . S
C1019 C1018 1.369 . S
C1019 C1028 1.429 . S
C1020 C1018 1.419 . S
C1020 C1021 1.363 . S
C1020 H1023 0.929 . S
C1021 C1020 1.363 . S
C1021 C1027 1.428 . S
H1022 C1018 0.930 . S
H1023 C1020 0.929 . S
S1024 N1025 1.613 . S
S1024 N1026 1.610 . S
N1025 S1024 1.613 . S
N1025 C1028 1.350 . S
N1026 S1024 1.610 . S
N1026 C1027 1.351 . S
C1027 C1021 1.428 . S
C1027 N1026 1.351 . S
C1027 C1028 1.434 . S
C1028 C1019 1.429 . S
C1028 N1025 1.350 . S
C1028 C1027 1.434 . S
C1029 C1030 1.369 . S
C1029 C1031 1.419 . S
C1029 H1033 0.930 . S
C1030 C1029 1.369 . S
C1030 C1039 1.429 . S
C1031 C1029 1.419 . S
C1031 C1032 1.363 . S
C1031 H1034 0.929 . S
C1032 C1031 1.363 . S
C1032 C1038 1.428 . S
H1033 C1029 0.930 . S
H1034 C1031 0.929 . S
S1035 N1036 1.613 . S
S1035 N1037 1.610 . S
N1036 S1035 1.613 . S
N1036 C1039 1.350 . S
N1037 S1035 1.610 . S
N1037 C1038 1.351 . S
C1038 C1032 1.428 . S
C1038 N1037 1.351 . S
C1038 C1039 1.434 . S
C1039 C1030 1.429 . S
C1039 N1036 1.350 . S
C1039 C1038 1.434 . S
C1040 C1041 1.369 . S
C1040 C1042 1.419 . S
C1040 H1044 0.930 . S
C1041 C1040 1.369 . S
C1041 C1050 1.429 . S
C1042 C1040 1.419 . S
C1042 C1043 1.363 . S
C1042 H1045 0.929 . S
C1043 C1042 1.363 . S
C1043 C1049 1.428 . S
H1044 C1040 0.930 . S
H1045 C1042 0.929 . S
S1046 N1047 1.613 . S
S1046 N1048 1.610 . S
N1047 S1046 1.613 . S
N1047 C1050 1.350 . S
N1048 S1046 1.610 . S
N1048 C1049 1.351 . S
C1049 C1043 1.428 . S
C1049 N1048 1.351 . S
C1049 C1050 1.434 . S
C1050 C1041 1.429 . S
C1050 N1047 1.350 . S
C1050 C1049 1.434 . S
C1051 C1052 1.369 . S
C1051 C1053 1.419 . S
C1051 H1055 0.930 . S
C1052 C1051 1.369 . S
C1052 C1061 1.429 . S
C1053 C1051 1.419 . S
C1053 C1054 1.363 . S
C1053 H1056 0.929 . S
C1054 C1053 1.363 . S
C1054 C1060 1.428 . S
H1055 C1051 0.930 . S
H1056 C1053 0.929 . S
S1057 N1058 1.613 . S
S1057 N1059 1.610 . S
N1058 S1057 1.613 . S
N1058 C1061 1.350 . S
N1059 S1057 1.610 . S
N1059 C1060 1.351 . S
C1060 C1054 1.428 . S
C1060 N1059 1.351 . S
C1060 C1061 1.434 . S
C1061 C1052 1.429 . S
C1061 N1058 1.350 . S
C1061 C1060 1.434 . S
C1062 C1063 1.369 . S
C1062 C1064 1.419 . S
C1062 H1066 0.930 . S
C1063 C1062 1.369 . S
C1063 C1072 1.429 . S
C1064 C1062 1.419 . S
C1064 C1065 1.363 . S
C1064 H1067 0.929 . S
C1065 C1064 1.363 . S
C1065 C1071 1.428 . S
H1066 C1062 0.930 . S
H1067 C1064 0.929 . S
S1068 N1069 1.613 . S
S1068 N1070 1.610 . S
N1069 S1068 1.613 . S
N1069 C1072 1.350 . S
N1070 S1068 1.610 . S
N1070 C1071 1.351 . S
C1071 C1065 1.428 . S
C1071 N1070 1.351 . S
C1071 C1072 1.434 . S
C1072 C1063 1.429 . S
C1072 N1069 1.350 . S
C1072 C1071 1.434 . S
C1073 C1074 1.369 . S
C1073 C1075 1.419 . S
C1073 H1077 0.930 . S
C1074 C1073 1.369 . S
C1074 C1083 1.429 . S
C1075 C1073 1.419 . S
C1075 C1076 1.363 . S
C1075 H1078 0.929 . S
C1076 C1075 1.363 . S
C1076 C1082 1.428 . S
H1077 C1073 0.930 . S
H1078 C1075 0.929 . S
S1079 N1080 1.613 . S
S1079 N1081 1.610 . S
N1080 S1079 1.613 . S
N1080 C1083 1.350 . S
N1081 S1079 1.610 . S
N1081 C1082 1.351 . S
C1082 C1076 1.428 . S
C1082 N1081 1.351 . S
C1082 C1083 1.434 . S
C1083 C1074 1.429 . S
C1083 N1080 1.350 . S
C1083 C1082 1.434 . S
C1084 C1085 1.369 . S
C1084 C1086 1.419 . S
C1084 H1088 0.930 . S
C1085 C1084 1.369 . S
C1085 C1094 1.429 . S
C1086 C1084 1.419 . S
C1086 C1087 1.363 . S
C1086 H1089 0.929 . S
C1087 C1086 1.363 . S
C1087 C1093 1.428 . S
H1088 C1084 0.930 . S
H1089 C1086 0.929 . S
S1090 N1091 1.613 . S
S1090 N1092 1.610 . S
N1091 S1090 1.613 . S
N1091 C1094 1.350 . S
N1092 S1090 1.610 . S
N1092 C1093 1.351 . S
C1093 C1087 1.428 . S
C1093 N1092 1.351 . S
C1093 C1094 1.434 . S
C1094 C1085 1.429 . S
C1094 N1091 1.350 . S
C1094 C1093 1.434 . S
C1095 C1096 1.369 1_545 S
C1095 C1097 1.419 . S
C1095 H1099 0.930 . S
C1096 C1095 1.369 1_565 S
C1096 C1105 1.429 . S
C1097 C1095 1.419 . S
C1097 C1098 1.363 1_545 S
C1097 H1100 0.929 . S
C1098 C1097 1.363 1_565 S
C1098 C1104 1.428 . S
H1099 C1095 0.930 . S
H1100 C1097 0.929 . S
S1101 N1102 1.613 . S
S1101 N1103 1.610 . S
N1102 S1101 1.613 . S
N1102 C1105 1.350 . S
N1103 S1101 1.610 . S
N1103 C1104 1.351 . S
C1104 C1098 1.428 . S
C1104 N1103 1.351 . S
C1104 C1105 1.434 . S
C1105 C1096 1.429 . S
C1105 N1102 1.350 . S
C1105 C1104 1.434 . S
C1106 C1107 1.369 . S
C1106 C1108 1.419 . S
C1106 H1110 0.930 . S
C1107 C1106 1.369 . S
C1107 C1116 1.429 . S
C1108 C1106 1.419 . S
C1108 C1109 1.363 . S
C1108 H1111 0.929 . S
C1109 C1108 1.363 . S
C1109 C1115 1.428 . S
H1110 C1106 0.930 . S
H1111 C1108 0.929 . S
S1112 N1113 1.613 . S
S1112 N1114 1.610 . S
N1113 S1112 1.613 . S
N1113 C1116 1.350 . S
N1114 S1112 1.610 . S
N1114 C1115 1.351 . S
C1115 C1109 1.428 . S
C1115 N1114 1.351 . S
C1115 C1116 1.434 . S
C1116 C1107 1.429 . S
C1116 N1113 1.350 . S
C1116 C1115 1.434 . S
C1117 C1118 1.369 . S
C1117 C1119 1.419 . S
C1117 H1121 0.930 . S
C1118 C1117 1.369 . S
C1118 C1127 1.429 1_545 S
C1119 C1117 1.419 . S
C1119 C1120 1.363 . S
C1119 H1122 0.929 . S
C1120 C1119 1.363 . S
C1120 C1126 1.428 1_545 S
H1121 C1117 0.930 . S
H1122 C1119 0.929 . S
S1123 N1124 1.613 . S
S1123 N1125 1.610 . S
N1124 S1123 1.613 . S
N1124 C1127 1.350 . S
N1125 S1123 1.610 . S
N1125 C1126 1.351 . S
C1126 C1120 1.428 1_565 S
C1126 N1125 1.351 . S
C1126 C1127 1.434 . S
C1127 C1118 1.429 1_565 S
C1127 N1124 1.350 . S
C1127 C1126 1.434 . S
C1128 C1129 1.369 . S
C1128 C1130 1.419 . S
C1128 H1132 0.930 . S
C1129 C1128 1.369 . S
C1129 C1138 1.429 . S
C1130 C1128 1.419 . S
C1130 C1131 1.363 . S
C1130 H1133 0.929 . S
C1131 C1130 1.363 . S
C1131 C1137 1.428 . S
H1132 C1128 0.930 . S
H1133 C1130 0.929 . S
S1134 N1135 1.613 . S
S1134 N1136 1.610 . S
N1135 S1134 1.613 . S
N1135 C1138 1.350 . S
N1136 S1134 1.610 . S
N1136 C1137 1.351 . S
C1137 C1131 1.428 . S
C1137 N1136 1.351 . S
C1137 C1138 1.434 . S
C1138 C1129 1.429 . S
C1138 N1135 1.350 . S
C1138 C1137 1.434 . S
C1139 C1140 1.369 . S
C1139 C1141 1.419 . S
C1139 H1143 0.930 . S
C1140 C1139 1.369 . S
C1140 C1149 1.429 1_556 S
C1141 C1139 1.419 . S
C1141 C1142 1.363 . S
C1141 H1144 0.929 . S
C1142 C1141 1.363 . S
C1142 C1148 1.428 1_556 S
H1143 C1139 0.930 . S
H1144 C1141 0.929 . S
S1145 N1146 1.613 . S
S1145 N1147 1.610 . S
N1146 S1145 1.613 . S
N1146 C1149 1.350 . S
N1147 S1145 1.610 . S
N1147 C1148 1.351 . S
C1148 C1142 1.428 1_554 S
C1148 N1147 1.351 . S
C1148 C1149 1.434 . S
C1149 C1140 1.429 1_554 S
C1149 N1146 1.350 . S
C1149 C1148 1.434 . S
C1150 C1151 1.369 1_554 S
C1150 C1152 1.419 . S
C1150 H1154 0.930 . S
C1151 C1150 1.369 1_556 S
C1151 C1160 1.429 . S
C1152 C1150 1.419 . S
C1152 C1153 1.363 1_554 S
C1152 H1155 0.929 . S
C1153 C1152 1.363 1_556 S
C1153 C1159 1.428 . S
H1154 C1150 0.930 . S
H1155 C1152 0.929 . S
S1156 N1157 1.613 . S
S1156 N1158 1.610 . S
N1157 S1156 1.613 . S
N1157 C1160 1.350 . S
N1158 S1156 1.610 . S
N1158 C1159 1.351 . S
C1159 C1153 1.428 . S
C1159 N1158 1.351 . S
C1159 C1160 1.434 . S
C1160 C1151 1.429 . S
C1160 N1157 1.350 . S
C1160 C1159 1.434 . S
C1161 C1162 1.369 . S
C1161 C1163 1.419 . S
C1161 H1165 0.930 1_554 S
C1162 C1161 1.369 . S
C1162 C1171 1.429 . S
C1163 C1161 1.419 . S
C1163 C1164 1.363 1_655 S
C1163 H1166 0.929 1_654 S
C1164 C1163 1.363 1_455 S
C1164 C1170 1.428 1_455 S
H1165 C1161 0.930 1_556 S
H1166 C1163 0.929 1_456 S
S1167 N1168 1.613 . S
S1167 N1169 1.610 . S
N1168 S1167 1.613 . S
N1168 C1171 1.350 . S
N1169 S1167 1.610 . S
N1169 C1170 1.351 . S
C1170 C1164 1.428 1_655 S
C1170 N1169 1.351 . S
C1170 C1171 1.434 . S
C1171 C1162 1.429 . S
C1171 N1168 1.350 . S
C1171 C1170 1.434 . S
C1172 C1173 1.369 . S
C1172 C1174 1.419 . S
C1172 H1176 0.930 . S
C1173 C1172 1.369 . S
C1173 C1182 1.429 . S
C1174 C1172 1.419 . S
C1174 C1175 1.363 . S
C1174 H1177 0.929 . S
C1175 C1174 1.363 . S
C1175 C1181 1.428 . S
H1176 C1172 0.930 . S
H1177 C1174 0.929 . S
S1178 N1179 1.613 . S
S1178 N1180 1.610 . S
N1179 S1178 1.613 . S
N1179 C1182 1.350 1_655 S
N1180 S1178 1.610 . S
N1180 C1181 1.351 1_655 S
C1181 C1175 1.428 . S
C1181 N1180 1.351 1_455 S
C1181 C1182 1.434 . S
C1182 C1173 1.429 . S
C1182 N1179 1.350 1_455 S
C1182 C1181 1.434 . S
C1183 C1184 1.369 1_455 S
C1183 C1185 1.419 . S
C1183 H1187 0.930 . S
C1184 C1183 1.369 1_655 S
C1184 C1193 1.429 . S
C1185 C1183 1.419 . S
C1185 C1186 1.363 . S
C1185 H1188 0.929 . S
C1186 C1185 1.363 . S
C1186 C1192 1.428 1_455 S
H1187 C1183 0.930 . S
H1188 C1185 0.929 . S
S1189 N1190 1.613 . S
S1189 N1191 1.610 . S
N1190 S1189 1.613 . S
N1190 C1193 1.350 . S
N1191 S1189 1.610 . S
N1191 C1192 1.351 . S
C1192 C1186 1.428 1_655 S
C1192 N1191 1.351 . S
C1192 C1193 1.434 . S
C1193 C1184 1.429 . S
C1193 N1190 1.350 . S
C1193 C1192 1.434 . S
C1194 C1195 1.369 1_655 S
C1194 C1196 1.419 . S
C1194 H1198 0.930 . S
C1195 C1194 1.369 1_455 S
C1195 C1204 1.429 . S
C1196 C1194 1.419 . S
C1196 C1197 1.363 1_655 S
C1196 H1199 0.929 . S
C1197 C1196 1.363 1_455 S
C1197 C1203 1.428 . S
H1198 C1194 0.930 . S
H1199 C1196 0.929 . S
S1200 N1201 1.613 . S
S1200 N1202 1.610 . S
N1201 S1200 1.613 . S
N1201 C1204 1.350 . S
N1202 S1200 1.610 . S
N1202 C1203 1.351 . S
C1203 C1197 1.428 . S
C1203 N1202 1.351 . S
C1203 C1204 1.434 . S
C1204 C1195 1.429 . S
C1204 N1201 1.350 . S
C1204 C1203 1.434 . S
C1205 C1206 1.369 . S
C1205 C1207 1.419 . S
C1205 H1209 0.930 . S
C1206 C1205 1.369 . S
C1206 C1215 1.429 1_655 S
C1207 C1205 1.419 . S
C1207 C1208 1.363 . S
C1207 H1210 0.929 . S
C1208 C1207 1.363 . S
C1208 C1214 1.428 1_655 S
H1209 C1205 0.930 . S
H1210 C1207 0.929 . S
S1211 N1212 1.613 . S
S1211 N1213 1.610 . S
N1212 S1211 1.613 . S
N1212 C1215 1.350 . S
N1213 S1211 1.610 . S
N1213 C1214 1.351 . S
C1214 C1208 1.428 1_455 S
C1214 N1213 1.351 . S
C1214 C1215 1.434 . S
C1215 C1206 1.429 1_455 S
C1215 N1212 1.350 . S
C1215 C1214 1.434 . S
C1216 C1217 1.369 . S
C1216 C1218 1.419 . S
C1216 H1220 0.930 . S
C1217 C1216 1.369 . S
C1217 C1226 1.429 . S
C1218 C1216 1.419 . S
C1218 C1219 1.363 . S
C1218 H1221 0.929 . S
C1219 C1218 1.363 . S
C1219 C1225 1.428 . S
H1220 C1216 0.930 . S
H1221 C1218 0.929 . S
S1222 N1223 1.613 . S
S1222 N1224 1.610 . S
N1223 S1222 1.613 . S
N1223 C1226 1.350 . S
N1224 S1222 1.610 . S
N1224 C1225 1.351 . S
C1225 C1219 1.428 . S
C1225 N1224 1.351 . S
C1225 C1226 1.434 . S
C1226 C1217 1.429 . S
C1226 N1223 1.350 . S
C1226 C1225 1.434 . S
C1227 C1228 1.369 . S
C1227 C1229 1.419 . S
C1227 H1231 0.930 . S
C1228 C1227 1.369 . S
C1228 C1237 1.429 . S
C1229 C1227 1.419 . S
C1229 C1230 1.363 . S
C1229 H1232 0.929 . S
C1230 C1229 1.363 . S
C1230 C1236 1.428 . S
H1231 C1227 0.930 . S
H1232 C1229 0.929 . S
S1233 N1234 1.613 . S
S1233 N1235 1.610 . S
N1234 S1233 1.613 . S
N1234 C1237 1.350 . S
N1235 S1233 1.610 . S
N1235 C1236 1.351 . S
C1236 C1230 1.428 . S
C1236 N1235 1.351 . S
C1236 C1237 1.434 . S
C1237 C1228 1.429 . S
C1237 N1234 1.350 . S
C1237 C1236 1.434 . S
C1238 C1239 1.369 . S
C1238 C1240 1.419 . S
C1238 H1242 0.930 . S
C1239 C1238 1.369 . S
C1239 C1248 1.429 1_565 S
C1240 C1238 1.419 . S
C1240 C1241 1.363 . S
C1240 H1243 0.929 . S
C1241 C1240 1.363 . S
C1241 C1247 1.428 . S
H1242 C1238 0.930 . S
H1243 C1240 0.929 . S
S1244 N1245 1.613 . S
S1244 N1246 1.610 . S
N1245 S1244 1.613 . S
N1245 C1248 1.350 . S
N1246 S1244 1.610 . S
N1246 C1247 1.351 1_545 S
C1247 C1241 1.428 . S
C1247 N1246 1.351 1_565 S
C1247 C1248 1.434 1_565 S
C1248 C1239 1.429 1_545 S
C1248 N1245 1.350 . S
C1248 C1247 1.434 1_545 S
C1249 C1250 1.369 . S
C1249 C1251 1.419 . S
C1249 H1253 0.930 . S
C1250 C1249 1.369 . S
C1250 C1259 1.429 . S
C1251 C1249 1.419 . S
C1251 C1252 1.363 . S
C1251 H1254 0.929 . S
C1252 C1251 1.363 . S
C1252 C1258 1.428 . S
H1253 C1249 0.930 . S
H1254 C1251 0.929 . S
S1255 N1256 1.613 . S
S1255 N1257 1.610 . S
N1256 S1255 1.613 . S
N1256 C1259 1.350 . S
N1257 S1255 1.610 . S
N1257 C1258 1.351 . S
C1258 C1252 1.428 . S
C1258 N1257 1.351 . S
C1258 C1259 1.434 . S
C1259 C1250 1.429 . S
C1259 N1256 1.350 . S
C1259 C1258 1.434 . S
C1260 C1261 1.369 . S
C1260 C1262 1.419 . S
C1260 H1264 0.930 . S
C1261 C1260 1.369 . S
C1261 C1270 1.429 . S
C1262 C1260 1.419 . S
C1262 C1263 1.363 . S
C1262 H1265 0.929 . S
C1263 C1262 1.363 . S
C1263 C1269 1.428 . S
H1264 C1260 0.930 . S
H1265 C1262 0.929 . S
S1266 N1267 1.613 . S
S1266 N1268 1.610 . S
N1267 S1266 1.613 . S
N1267 C1270 1.350 . S
N1268 S1266 1.610 . S
N1268 C1269 1.351 . S
C1269 C1263 1.428 . S
C1269 N1268 1.351 . S
C1269 C1270 1.434 . S
C1270 C1261 1.429 . S
C1270 N1267 1.350 . S
C1270 C1269 1.434 . S
C1271 C1272 1.369 . S
C1271 C1273 1.419 . S
C1271 H1275 0.930 . S
C1272 C1271 1.369 . S
C1272 C1281 1.429 . S
C1273 C1271 1.419 . S
C1273 C1274 1.363 . S
C1273 H1276 0.929 . S
C1274 C1273 1.363 . S
C1274 C1280 1.428 . S
H1275 C1271 0.930 . S
H1276 C1273 0.929 . S
S1277 N1278 1.613 . S
S1277 N1279 1.610 . S
N1278 S1277 1.613 . S
N1278 C1281 1.350 . S
N1279 S1277 1.610 . S
N1279 C1280 1.351 . S
C1280 C1274 1.428 . S
C1280 N1279 1.351 . S
C1280 C1281 1.434 . S
C1281 C1272 1.429 . S
C1281 N1278 1.350 . S
C1281 C1280 1.434 . S
C1282 C1283 1.369 . S
C1282 C1284 1.419 . S
C1282 H1286 0.930 . S
C1283 C1282 1.369 . S
C1283 C1292 1.429 . S
C1284 C1282 1.419 . S
C1284 C1285 1.363 . S
C1284 H1287 0.929 . S
C1285 C1284 1.363 . S
C1285 C1291 1.428 . S
H1286 C1282 0.930 . S
H1287 C1284 0.929 . S
S1288 N1289 1.613 . S
S1288 N1290 1.610 . S
N1289 S1288 1.613 . S
N1289 C1292 1.350 . S
N1290 S1288 1.610 . S
N1290 C1291 1.351 . S
C1291 C1285 1.428 . S
C1291 N1290 1.351 . S
C1291 C1292 1.434 . S
C1292 C1283 1.429 . S
C1292 N1289 1.350 . S
C1292 C1291 1.434 . S
C1293 C1294 1.369 . S
C1293 C1295 1.419 . S
C1293 H1297 0.930 . S
C1294 C1293 1.369 . S
C1294 C1303 1.429 . S
C1295 C1293 1.419 . S
C1295 C1296 1.363 . S
C1295 H1298 0.929 . S
C1296 C1295 1.363 . S
C1296 C1302 1.428 . S
H1297 C1293 0.930 . S
H1298 C1295 0.929 . S
S1299 N1300 1.613 . S
S1299 N1301 1.610 . S
N1300 S1299 1.613 . S
N1300 C1303 1.350 . S
N1301 S1299 1.610 . S
N1301 C1302 1.351 . S
C1302 C1296 1.428 . S
C1302 N1301 1.351 . S
C1302 C1303 1.434 . S
C1303 C1294 1.429 . S
C1303 N1300 1.350 . S
C1303 C1302 1.434 . S
C1304 C1305 1.369 . S
C1304 C1306 1.419 . S
C1304 H1308 0.930 . S
C1305 C1304 1.369 . S
C1305 C1314 1.429 . S
C1306 C1304 1.419 . S
C1306 C1307 1.363 . S
C1306 H1309 0.929 . S
C1307 C1306 1.363 . S
C1307 C1313 1.428 . S
H1308 C1304 0.930 . S
H1309 C1306 0.929 . S
S1310 N1311 1.613 . S
S1310 N1312 1.610 . S
N1311 S1310 1.613 . S
N1311 C1314 1.350 . S
N1312 S1310 1.610 . S
N1312 C1313 1.351 . S
C1313 C1307 1.428 . S
C1313 N1312 1.351 . S
C1313 C1314 1.434 . S
C1314 C1305 1.429 . S
C1314 N1311 1.350 . S
C1314 C1313 1.434 . S
C1315 C1316 1.369 . S
C1315 C1317 1.419 . S
C1315 H1319 0.930 . S
C1316 C1315 1.369 . S
C1316 C1325 1.429 . S
C1317 C1315 1.419 . S
C1317 C1318 1.363 . S
C1317 H1320 0.929 . S
C1318 C1317 1.363 . S
C1318 C1324 1.428 . S
H1319 C1315 0.930 . S
H1320 C1317 0.929 . S
S1321 N1322 1.613 . S
S1321 N1323 1.610 . S
N1322 S1321 1.613 . S
N1322 C1325 1.350 . S
N1323 S1321 1.610 . S
N1323 C1324 1.351 . S
C1324 C1318 1.428 . S
C1324 N1323 1.351 . S
C1324 C1325 1.434 . S
C1325 C1316 1.429 . S
C1325 N1322 1.350 . S
C1325 C1324 1.434 . S
C1326 C1327 1.369 . S
C1326 C1328 1.419 . S
C1326 H1330 0.930 . S
C1327 C1326 1.369 . S
C1327 C1336 1.429 . S
C1328 C1326 1.419 . S
C1328 C1329 1.363 . S
C1328 H1331 0.929 . S
C1329 C1328 1.363 . S
C1329 C1335 1.428 . S
H1330 C1326 0.930 . S
H1331 C1328 0.929 . S
S1332 N1333 1.613 . S
S1332 N1334 1.610 . S
N1333 S1332 1.613 . S
N1333 C1336 1.350 . S
N1334 S1332 1.610 . S
N1334 C1335 1.351 . S
C1335 C1329 1.428 . S
C1335 N1334 1.351 . S
C1335 C1336 1.434 . S
C1336 C1327 1.429 . S
C1336 N1333 1.350 . S
C1336 C1335 1.434 . S
C1337 C1338 1.369 . S
C1337 C1339 1.419 . S
C1337 H1341 0.930 . S
C1338 C1337 1.369 . S
C1338 C1347 1.429 . S
C1339 C1337 1.419 . S
C1339 C1340 1.363 . S
C1339 H1342 0.929 . S
C1340 C1339 1.363 . S
C1340 C1346 1.428 . S
H1341 C1337 0.930 . S
H1342 C1339 0.929 . S
S1343 N1344 1.613 . S
S1343 N1345 1.610 . S
N1344 S1343 1.613 . S
N1344 C1347 1.350 . S
N1345 S1343 1.610 . S
N1345 C1346 1.351 . S
C1346 C1340 1.428 . S
C1346 N1345 1.351 . S
C1346 C1347 1.434 . S
C1347 C1338 1.429 . S
C1347 N1344 1.350 . S
C1347 C1346 1.434 . S
C1348 C1349 1.369 . S
C1348 C1350 1.419 . S
C1348 H1352 0.930 . S
C1349 C1348 1.369 . S
C1349 C1358 1.429 . S
C1350 C1348 1.419 . S
C1350 C1351 1.363 . S
C1350 H1353 0.929 . S
C1351 C1350 1.363 . S
C1351 C1357 1.428 . S
H1352 C1348 0.930 . S
H1353 C1350 0.929 . S
S1354 N1355 1.613 . S
S1354 N1356 1.610 . S
N1355 S1354 1.613 . S
N1355 C1358 1.350 . S
N1356 S1354 1.610 . S
N1356 C1357 1.351 . S
C1357 C1351 1.428 . S
C1357 N1356 1.351 . S
C1357 C1358 1.434 . S
C1358 C1349 1.429 . S
C1358 N1355 1.350 . S
C1358 C1357 1.434 . S
C1359 C1360 1.369 . S
C1359 C1361 1.419 . S
C1359 H1363 0.930 . S
C1360 C1359 1.369 . S
C1360 C1369 1.429 1_565 S
C1361 C1359 1.419 . S
C1361 C1362 1.363 . S
C1361 H1364 0.929 . S
C1362 C1361 1.363 . S
C1362 C1368 1.428 1_565 S
H1363 C1359 0.930 . S
H1364 C1361 0.929 . S
S1365 N1366 1.613 . S
S1365 N1367 1.610 . S
N1366 S1365 1.613 . S
N1366 C1369 1.350 . S
N1367 S1365 1.610 . S
N1367 C1368 1.351 . S
C1368 C1362 1.428 1_545 S
C1368 N1367 1.351 . S
C1368 C1369 1.434 . S
C1369 C1360 1.429 1_545 S
C1369 N1366 1.350 . S
C1369 C1368 1.434 . S
C1370 C1371 1.369 . S
C1370 C1372 1.419 . S
C1370 H1374 0.930 . S
C1371 C1370 1.369 . S
C1371 C1380 1.429 . S
C1372 C1370 1.419 . S
C1372 C1373 1.363 . S
C1372 H1375 0.929 . S
C1373 C1372 1.363 . S
C1373 C1379 1.428 . S
H1374 C1370 0.930 . S
H1375 C1372 0.929 . S
S1376 N1377 1.613 . S
S1376 N1378 1.610 . S
N1377 S1376 1.613 . S
N1377 C1380 1.350 . S
N1378 S1376 1.610 . S
N1378 C1379 1.351 . S
C1379 C1373 1.428 . S
C1379 N1378 1.351 . S
C1379 C1380 1.434 . S
C1380 C1371 1.429 . S
C1380 N1377 1.350 . S
C1380 C1379 1.434 . S
C1381 C1382 1.369 . S
C1381 C1383 1.419 . S
C1381 H1385 0.930 . S
C1382 C1381 1.369 . S
C1382 C1391 1.429 1_545 S
C1383 C1381 1.419 . S
C1383 C1384 1.363 . S
C1383 H1386 0.929 . S
C1384 C1383 1.363 . S
C1384 C1390 1.428 1_545 S
H1385 C1381 0.930 . S
H1386 C1383 0.929 . S
S1387 N1388 1.613 . S
S1387 N1389 1.610 . S
N1388 S1387 1.613 . S
N1388 C1391 1.350 . S
N1389 S1387 1.610 . S
N1389 C1390 1.351 . S
C1390 C1384 1.428 1_565 S
C1390 N1389 1.351 . S
C1390 C1391 1.434 . S
C1391 C1382 1.429 1_565 S
C1391 N1388 1.350 . S
C1391 C1390 1.434 . S
C1392 C1393 1.369 . S
C1392 C1394 1.419 . S
C1392 H1396 0.930 . S
C1393 C1392 1.369 . S
C1393 C1402 1.429 . S
C1394 C1392 1.419 . S
C1394 C1395 1.363 . S
C1394 H1397 0.929 . S
C1395 C1394 1.363 . S
C1395 C1401 1.428 . S
H1396 C1392 0.930 . S
H1397 C1394 0.929 . S
S1398 N1399 1.613 . S
S1398 N1400 1.610 . S
N1399 S1398 1.613 . S
N1399 C1402 1.350 . S
N1400 S1398 1.610 . S
N1400 C1401 1.351 . S
C1401 C1395 1.428 . S
C1401 N1400 1.351 . S
C1401 C1402 1.434 . S
C1402 C1393 1.429 . S
C1402 N1399 1.350 . S
C1402 C1401 1.434 . S
C1403 C1404 1.369 1_554 S
C1403 C1405 1.418 1_554 S
C1403 H1407 0.930 . S
C1404 C1403 1.369 1_556 S
C1404 C1413 1.429 . S
C1405 C1403 1.418 1_556 S
C1405 C1406 1.363 . S
C1405 H1408 0.929 1_556 S
C1406 C1405 1.363 . S
C1406 C1412 1.428 . S
H1407 C1403 0.930 . S
H1408 C1405 0.929 1_554 S
S1409 N1410 1.613 . S
S1409 N1411 1.610 . S
N1410 S1409 1.613 . S
N1410 C1413 1.350 . S
N1411 S1409 1.610 . S
N1411 C1412 1.351 . S
C1412 C1406 1.428 . S
C1412 N1411 1.351 . S
C1412 C1413 1.434 . S
C1413 C1404 1.429 . S
C1413 N1410 1.350 . S
C1413 C1412 1.434 . S
C1414 C1415 1.369 . S
C1414 C1416 1.419 . S
C1414 H1418 0.930 1_556 S
C1415 C1414 1.369 . S
C1415 C1424 1.429 . S
C1416 C1414 1.419 . S
C1416 C1417 1.363 . S
C1416 H1419 0.929 . S
C1417 C1416 1.363 . S
C1417 C1423 1.428 . S
H1418 C1414 0.930 1_554 S
H1419 C1416 0.929 . S
S1420 N1421 1.613 . S
S1420 N1422 1.610 . S
N1421 S1420 1.613 . S
N1421 C1424 1.350 . S
N1422 S1420 1.610 . S
N1422 C1423 1.351 . S
C1423 C1417 1.428 . S
C1423 N1422 1.351 . S
C1423 C1424 1.434 . S
C1424 C1415 1.429 . S
C1424 N1421 1.350 . S
C1424 C1423 1.434 . S
C1425 C1426 1.369 . S
C1425 C1427 1.419 . S
C1425 H1429 0.930 . S
C1426 C1425 1.369 . S
C1426 C1435 1.429 . S
C1427 C1425 1.419 . S
C1427 C1428 1.363 . S
C1427 H1430 0.929 . S
C1428 C1427 1.363 . S
C1428 C1434 1.428 . S
H1429 C1425 0.930 . S
H1430 C1427 0.929 . S
S1431 N1432 1.613 1_556 S
S1431 N1433 1.612 . S
N1432 S1431 1.613 1_554 S
N1432 C1435 1.350 . S
N1433 S1431 1.612 . S
N1433 C1434 1.349 1_556 S
C1434 C1428 1.428 . S
C1434 N1433 1.349 1_554 S
C1434 C1435 1.434 . S
C1435 C1426 1.429 . S
C1435 N1432 1.350 . S
C1435 C1434 1.434 . S
C909 C22 1.811 . S
C911 C704 1.818 1_545 S
C922 C767 2.042 . S
C920 C38 2.041 . S
C933 C644 1.968 1_565 S
C931 C75 1.938 . S
C942 C91 1.830 . S
C944 C678 1.820 1_455 S
C953 C128 1.872 . S
C955 C882 1.876 1_554 S
C964 C197 1.242 . S
C966 C853 1.218 . S
C977 C776 2.025 . S
C975 C144 2.098 1_545 S
C986 C181 1.610 . S
C988 C810 1.581 . S
C999 C699 2.041 . S
C997 C234 2.072 . S
C1010 C742 1.459 . S
C1008 C303 1.472 . S
C1019 C356 2.055 . S
C1021 C721 2.030 . S
C1030 C287 1.720 . S
C1032 C835 1.726 . S
C1043 C840 1.719 . S
C1041 C393 1.674 . S
C1054 C903 2.092 1_565 S
C1052 C409 2.149 . S
C1063 C462 2.107 . S
C1065 C814 2.115 . S
C1076 C780 1.662 . S
C1074 C446 1.655 . S
C1085 C499 1.889 . S
C1087 C746 1.871 . S
C1096 C552 1.148 . S
C1098 C717 1.148 . S
C1109 C674 2.044 . S
C1107 C515 2.135 . S
C1118 C568 1.721 . S
C1120 C640 1.702 . S
C1131 C801 2.086 . S
C1129 C340 2.109 . S
C1142 C878 1.453 . S
C1140 C621 1.463 . S
C1151 C250 2.013 . S
C1153 C857 1.941 . S
C1162 C605 1.612 . S
C1164 C665 1.598 . S
C1175 C649 1.171 . S
C1173 C39 1.164 . S
C1184 C29 1.053 . S
C1186 C683 1.068 . S
C1197 C708 1.152 . S
C1195 C92 1.180 . S
C1208 C755 1.965 . S
C1206 C82 1.888 . S
C1217 C145 1.659 . S
C1219 C636 1.646 . S
C1228 C188 1.368 . S
C1230 C670 1.385 . S
C1241 C712 1.452 . S
C1239 C135 1.445 . S
C1250 C198 1.220 . S
C1252 C751 1.123 . S
C1261 C251 1.807 . S
C1263 C653 1.806 . S
C1274 C733 1.537 . S
C1272 C294 1.565 . S
C1283 C347 1.515 . S
C1285 C738 1.557 . S
C1294 C304 1.777 . S
C1296 C789 1.794 . S
C1307 C819 1.273 . S
C1305 C410 1.295 . S
C1316 C400 1.026 . S
C1318 C785 1.082 . S
C1327 C453 0.931 . S
C1329 C844 0.924 . S
C1338 C463 2.196 . S
C1340 C891 2.220 . S
C1349 C516 1.709 . S
C1351 C806 1.712 . S
C1362 C772 1.679 . S
C1360 C569 1.676 . S
C1371 C506 1.381 . S
C1373 C848 1.353 . S
C1384 C887 0.841 . S
C1382 C559 0.843 . S
C1395 C823 1.772 . S
C1393 C357 1.770 . S
C1406 C869 1.460 . S
C1404 C612 1.491 . S
C1417 C874 1.519 . S
C1415 C241 1.474 . S
C1426 C622 1.673 . S
C1428 C687 1.683 . S
