# Generated by pormake.
# Topology ibd, (4,6)-cn, num edge types: 1
# Building blocks:
#     Node 0, Type 0, BuildingBlock: QUQFOY_clean_sbu_3, # of connection points: 4
#     Node 1, Type 0, BuildingBlock: QUQFOY_clean_sbu_3, # of connection points: 4
#     Node 2, Type 0, BuildingBlock: QUQFOY_clean_sbu_3, # of connection points: 4
#     Node 3, Type 0, BuildingBlock: QUQFOY_clean_sbu_3, # of connection points: 4
#     Node 4, Type 0, BuildingBlock: QUQFOY_clean_sbu_3, # of connection points: 4
#     Node 5, Type 0, BuildingBlock: QUQFOY_clean_sbu_3, # of connection points: 4
#     Node 6, Type 0, BuildingBlock: QUQFOY_clean_sbu_3, # of connection points: 4
#     Node 7, Type 0, BuildingBlock: QUQFOY_clean_sbu_3, # of connection points: 4
#     Node 8, Type 0, BuildingBlock: QUQFOY_clean_sbu_3, # of connection points: 4
#     Node 9, Type 0, BuildingBlock: QUQFOY_clean_sbu_3, # of connection points: 4
#     Node 10, Type 0, BuildingBlock: QUQFOY_clean_sbu_3, # of connection points: 4
#     Node 11, Type 0, BuildingBlock: QUQFOY_clean_sbu_3, # of connection points: 4
#     Node 12, Type 0, BuildingBlock: QUQFOY_clean_sbu_3, # of connection points: 4
#     Node 13, Type 0, BuildingBlock: QUQFOY_clean_sbu_3, # of connection points: 4
#     Node 14, Type 0, BuildingBlock: QUQFOY_clean_sbu_3, # of connection points: 4
#     Node 15, Type 0, BuildingBlock: QUQFOY_clean_sbu_3, # of connection points: 4
#     Node 16, Type 0, BuildingBlock: QUQFOY_clean_sbu_3, # of connection points: 4
#     Node 17, Type 0, BuildingBlock: QUQFOY_clean_sbu_3, # of connection points: 4
#     Node 18, Type 0, BuildingBlock: QUQFOY_clean_sbu_3, # of connection points: 4
#     Node 19, Type 0, BuildingBlock: QUQFOY_clean_sbu_3, # of connection points: 4
#     Node 20, Type 0, BuildingBlock: QUQFOY_clean_sbu_3, # of connection points: 4
#     Node 21, Type 0, BuildingBlock: QUQFOY_clean_sbu_3, # of connection points: 4
#     Node 22, Type 0, BuildingBlock: QUQFOY_clean_sbu_3, # of connection points: 4
#     Node 23, Type 0, BuildingBlock: QUQFOY_clean_sbu_3, # of connection points: 4
#     Node 24, Type 1, BuildingBlock: OJICUG_clean_sbu_0, # of connection points: 6
#     Node 25, Type 1, BuildingBlock: OJICUG_clean_sbu_0, # of connection points: 6
#     Node 26, Type 1, BuildingBlock: OJICUG_clean_sbu_0, # of connection points: 6
#     Node 27, Type 1, BuildingBlock: OJICUG_clean_sbu_0, # of connection points: 6
#     Node 28, Type 1, BuildingBlock: OJICUG_clean_sbu_0, # of connection points: 6
#     Node 29, Type 1, BuildingBlock: OJICUG_clean_sbu_0, # of connection points: 6
#     Node 30, Type 1, BuildingBlock: OJICUG_clean_sbu_0, # of connection points: 6
#     Node 31, Type 1, BuildingBlock: OJICUG_clean_sbu_0, # of connection points: 6
#     Node 32, Type 1, BuildingBlock: OJICUG_clean_sbu_0, # of connection points: 6
#     Node 33, Type 1, BuildingBlock: OJICUG_clean_sbu_0, # of connection points: 6
#     Node 34, Type 1, BuildingBlock: OJICUG_clean_sbu_0, # of connection points: 6
#     Node 35, Type 1, BuildingBlock: OJICUG_clean_sbu_0, # of connection points: 6
#     Node 36, Type 1, BuildingBlock: OJICUG_clean_sbu_0, # of connection points: 6
#     Node 37, Type 1, BuildingBlock: OJICUG_clean_sbu_0, # of connection points: 6
#     Node 38, Type 1, BuildingBlock: OJICUG_clean_sbu_0, # of connection points: 6
#     Node 39, Type 1, BuildingBlock: OJICUG_clean_sbu_0, # of connection points: 6
#     Edge 40, Type (0, 1), BuildingBlock: KIFKEQ_clean_linker_1, # of connection points: 2
#     Edge 41, Type (0, 1), BuildingBlock: KIFKEQ_clean_linker_1, # of connection points: 2
#     Edge 42, Type (0, 1), BuildingBlock: KIFKEQ_clean_linker_1, # of connection points: 2
#     Edge 43, Type (0, 1), BuildingBlock: KIFKEQ_clean_linker_1, # of connection points: 2
#     Edge 44, Type (0, 1), BuildingBlock: KIFKEQ_clean_linker_1, # of connection points: 2
#     Edge 45, Type (0, 1), BuildingBlock: KIFKEQ_clean_linker_1, # of connection points: 2
#     Edge 46, Type (0, 1), BuildingBlock: KIFKEQ_clean_linker_1, # of connection points: 2
#     Edge 47, Type (0, 1), BuildingBlock: KIFKEQ_clean_linker_1, # of connection points: 2
#     Edge 48, Type (0, 1), BuildingBlock: KIFKEQ_clean_linker_1, # of connection points: 2
#     Edge 49, Type (0, 1), BuildingBlock: KIFKEQ_clean_linker_1, # of connection points: 2
#     Edge 50, Type (0, 1), BuildingBlock: KIFKEQ_clean_linker_1, # of connection points: 2
#     Edge 51, Type (0, 1), BuildingBlock: KIFKEQ_clean_linker_1, # of connection points: 2
#     Edge 52, Type (0, 1), BuildingBlock: KIFKEQ_clean_linker_1, # of connection points: 2
#     Edge 53, Type (0, 1), BuildingBlock: KIFKEQ_clean_linker_1, # of connection points: 2
#     Edge 54, Type (0, 1), BuildingBlock: KIFKEQ_clean_linker_1, # of connection points: 2
#     Edge 55, Type (0, 1), BuildingBlock: KIFKEQ_clean_linker_1, # of connection points: 2
#     Edge 56, Type (0, 1), BuildingBlock: KIFKEQ_clean_linker_1, # of connection points: 2
#     Edge 57, Type (0, 1), BuildingBlock: KIFKEQ_clean_linker_1, # of connection points: 2
#     Edge 58, Type (0, 1), BuildingBlock: KIFKEQ_clean_linker_1, # of connection points: 2
#     Edge 59, Type (0, 1), BuildingBlock: KIFKEQ_clean_linker_1, # of connection points: 2
#     Edge 60, Type (0, 1), BuildingBlock: KIFKEQ_clean_linker_1, # of connection points: 2
#     Edge 61, Type (0, 1), BuildingBlock: KIFKEQ_clean_linker_1, # of connection points: 2
#     Edge 62, Type (0, 1), BuildingBlock: KIFKEQ_clean_linker_1, # of connection points: 2
#     Edge 63, Type (0, 1), BuildingBlock: KIFKEQ_clean_linker_1, # of connection points: 2
#     Edge 64, Type (0, 1), BuildingBlock: KIFKEQ_clean_linker_1, # of connection points: 2
#     Edge 65, Type (0, 1), BuildingBlock: KIFKEQ_clean_linker_1, # of connection points: 2
#     Edge 66, Type (0, 1), BuildingBlock: KIFKEQ_clean_linker_1, # of connection points: 2
#     Edge 67, Type (0, 1), BuildingBlock: KIFKEQ_clean_linker_1, # of connection points: 2
#     Edge 68, Type (0, 1), BuildingBlock: KIFKEQ_clean_linker_1, # of connection points: 2
#     Edge 69, Type (0, 1), BuildingBlock: KIFKEQ_clean_linker_1, # of connection points: 2
#     Edge 70, Type (0, 1), BuildingBlock: KIFKEQ_clean_linker_1, # of connection points: 2
#     Edge 71, Type (0, 1), BuildingBlock: KIFKEQ_clean_linker_1, # of connection points: 2
#     Edge 72, Type (0, 1), BuildingBlock: KIFKEQ_clean_linker_1, # of connection points: 2
#     Edge 73, Type (0, 1), BuildingBlock: KIFKEQ_clean_linker_1, # of connection points: 2
#     Edge 74, Type (0, 1), BuildingBlock: KIFKEQ_clean_linker_1, # of connection points: 2
#     Edge 75, Type (0, 1), BuildingBlock: KIFKEQ_clean_linker_1, # of connection points: 2
#     Edge 76, Type (0, 1), BuildingBlock: KIFKEQ_clean_linker_1, # of connection points: 2
#     Edge 77, Type (0, 1), BuildingBlock: KIFKEQ_clean_linker_1, # of connection points: 2
#     Edge 78, Type (0, 1), BuildingBlock: KIFKEQ_clean_linker_1, # of connection points: 2
#     Edge 79, Type (0, 1), BuildingBlock: KIFKEQ_clean_linker_1, # of connection points: 2
#     Edge 80, Type (0, 1), BuildingBlock: KIFKEQ_clean_linker_1, # of connection points: 2
#     Edge 81, Type (0, 1), BuildingBlock: KIFKEQ_clean_linker_1, # of connection points: 2
#     Edge 82, Type (0, 1), BuildingBlock: KIFKEQ_clean_linker_1, # of connection points: 2
#     Edge 83, Type (0, 1), BuildingBlock: KIFKEQ_clean_linker_1, # of connection points: 2
#     Edge 84, Type (0, 1), BuildingBlock: KIFKEQ_clean_linker_1, # of connection points: 2
#     Edge 85, Type (0, 1), BuildingBlock: KIFKEQ_clean_linker_1, # of connection points: 2
#     Edge 86, Type (0, 1), BuildingBlock: KIFKEQ_clean_linker_1, # of connection points: 2
#     Edge 87, Type (0, 1), BuildingBlock: KIFKEQ_clean_linker_1, # of connection points: 2
#     Edge 88, Type (0, 1), BuildingBlock: KIFKEQ_clean_linker_1, # of connection points: 2
#     Edge 89, Type (0, 1), BuildingBlock: KIFKEQ_clean_linker_1, # of connection points: 2
#     Edge 90, Type (0, 1), BuildingBlock: KIFKEQ_clean_linker_1, # of connection points: 2
#     Edge 91, Type (0, 1), BuildingBlock: KIFKEQ_clean_linker_1, # of connection points: 2
#     Edge 92, Type (0, 1), BuildingBlock: KIFKEQ_clean_linker_1, # of connection points: 2
#     Edge 93, Type (0, 1), BuildingBlock: KIFKEQ_clean_linker_1, # of connection points: 2
#     Edge 94, Type (0, 1), BuildingBlock: KIFKEQ_clean_linker_1, # of connection points: 2
#     Edge 95, Type (0, 1), BuildingBlock: KIFKEQ_clean_linker_1, # of connection points: 2
#     Edge 96, Type (0, 1), BuildingBlock: KIFKEQ_clean_linker_1, # of connection points: 2
#     Edge 97, Type (0, 1), BuildingBlock: KIFKEQ_clean_linker_1, # of connection points: 2
#     Edge 98, Type (0, 1), BuildingBlock: KIFKEQ_clean_linker_1, # of connection points: 2
#     Edge 99, Type (0, 1), BuildingBlock: KIFKEQ_clean_linker_1, # of connection points: 2
#     Edge 100, Type (0, 1), BuildingBlock: KIFKEQ_clean_linker_1, # of connection points: 2
#     Edge 101, Type (0, 1), BuildingBlock: KIFKEQ_clean_linker_1, # of connection points: 2
#     Edge 102, Type (0, 1), BuildingBlock: KIFKEQ_clean_linker_1, # of connection points: 2
#     Edge 103, Type (0, 1), BuildingBlock: KIFKEQ_clean_linker_1, # of connection points: 2
#     Edge 104, Type (0, 1), BuildingBlock: KIFKEQ_clean_linker_1, # of connection points: 2
#     Edge 105, Type (0, 1), BuildingBlock: KIFKEQ_clean_linker_1, # of connection points: 2
#     Edge 106, Type (0, 1), BuildingBlock: KIFKEQ_clean_linker_1, # of connection points: 2
#     Edge 107, Type (0, 1), BuildingBlock: KIFKEQ_clean_linker_1, # of connection points: 2
#     Edge 108, Type (0, 1), BuildingBlock: KIFKEQ_clean_linker_1, # of connection points: 2
#     Edge 109, Type (0, 1), BuildingBlock: KIFKEQ_clean_linker_1, # of connection points: 2
#     Edge 110, Type (0, 1), BuildingBlock: KIFKEQ_clean_linker_1, # of connection points: 2
#     Edge 111, Type (0, 1), BuildingBlock: KIFKEQ_clean_linker_1, # of connection points: 2
#     Edge 112, Type (0, 1), BuildingBlock: KIFKEQ_clean_linker_1, # of connection points: 2
#     Edge 113, Type (0, 1), BuildingBlock: KIFKEQ_clean_linker_1, # of connection points: 2
#     Edge 114, Type (0, 1), BuildingBlock: KIFKEQ_clean_linker_1, # of connection points: 2
#     Edge 115, Type (0, 1), BuildingBlock: KIFKEQ_clean_linker_1, # of connection points: 2
#     Edge 116, Type (0, 1), BuildingBlock: KIFKEQ_clean_linker_1, # of connection points: 2
#     Edge 117, Type (0, 1), BuildingBlock: KIFKEQ_clean_linker_1, # of connection points: 2
#     Edge 118, Type (0, 1), BuildingBlock: KIFKEQ_clean_linker_1, # of connection points: 2
#     Edge 119, Type (0, 1), BuildingBlock: KIFKEQ_clean_linker_1, # of connection points: 2
#     Edge 120, Type (0, 1), BuildingBlock: KIFKEQ_clean_linker_1, # of connection points: 2
#     Edge 121, Type (0, 1), BuildingBlock: KIFKEQ_clean_linker_1, # of connection points: 2
#     Edge 122, Type (0, 1), BuildingBlock: KIFKEQ_clean_linker_1, # of connection points: 2
#     Edge 123, Type (0, 1), BuildingBlock: KIFKEQ_clean_linker_1, # of connection points: 2
#     Edge 124, Type (0, 1), BuildingBlock: KIFKEQ_clean_linker_1, # of connection points: 2
#     Edge 125, Type (0, 1), BuildingBlock: KIFKEQ_clean_linker_1, # of connection points: 2
#     Edge 126, Type (0, 1), BuildingBlock: KIFKEQ_clean_linker_1, # of connection points: 2
#     Edge 127, Type (0, 1), BuildingBlock: KIFKEQ_clean_linker_1, # of connection points: 2
#     Edge 128, Type (0, 1), BuildingBlock: KIFKEQ_clean_linker_1, # of connection points: 2
#     Edge 129, Type (0, 1), BuildingBlock: KIFKEQ_clean_linker_1, # of connection points: 2
#     Edge 130, Type (0, 1), BuildingBlock: KIFKEQ_clean_linker_1, # of connection points: 2
#     Edge 131, Type (0, 1), BuildingBlock: KIFKEQ_clean_linker_1, # of connection points: 2
#     Edge 132, Type (0, 1), BuildingBlock: KIFKEQ_clean_linker_1, # of connection points: 2
#     Edge 133, Type (0, 1), BuildingBlock: KIFKEQ_clean_linker_1, # of connection points: 2
#     Edge 134, Type (0, 1), BuildingBlock: KIFKEQ_clean_linker_1, # of connection points: 2
#     Edge 135, Type (0, 1), BuildingBlock: KIFKEQ_clean_linker_1, # of connection points: 2
# Relax obj value: 0.375
# Max RMSD: 0.287
# Mean RMSD: 0.282
data_MOF--net-ibd--node1-QUQFOY_clean_sbu_3--node2-OJICUG_clean_sbu_0--edge1-KIFKEQ_clean_linker_1
_symmetry_space_group_name_H-M    P1
_symmetry_Int_Tables_number       1
_symmetry_cell_setting            triclinic
loop_
_symmetry_equiv_pos_as_xyz
'x, y, z'
_cell_length_a     50.489461
_cell_length_b     50.458695
_cell_length_c     50.5003
_cell_angle_alpha  90.143421
_cell_angle_beta   90.153957
_cell_angle_gamma 91.307888
loop_
_atom_site_label
_atom_site_type_symbol
_atom_site_fract_x
_atom_site_fract_y
_atom_site_fract_z
_atom_type_partial_charge
C0 C 0.96703 0.23082 0.40599 0.0
O1 O 0.9525 0.25073 0.40238 0.0
Cd2 Cd 0.94963 0.27838 0.36406 0.0
O3 O 0.98415 0.22398 0.38894 0.0
Cd4 Cd 0.00022 0.24451 0.3474 0.0
C5 C 0.00947 0.30671 0.37425 0.0
O6 O 0.95629 0.24824 0.32845 0.0
O7 O 0.98846 0.2632 0.30445 0.0
O8 O 0.01809 0.20234 0.33312 0.0
C9 C 0.9639 0.25817 0.30676 0.0
O10 O 0.98488 0.31112 0.37176 0.0
C11 C 0.04053 0.21232 0.3267 0.0
O12 O 0.01858 0.28416 0.36841 0.0
O13 O 0.04434 0.23687 0.33119 0.0
C14 C 0.04718 0.80851 0.60261 0.0
O15 O 0.02727 0.82332 0.60505 0.0
Cd16 Cd 0.98593 0.81167 0.62555 0.0
O17 O 0.04698 0.78526 0.61239 0.0
Cd18 Cd 0.01878 0.75521 0.63882 0.0
C19 C 0.97227 0.75454 0.58977 0.0
O20 O -0.00045 0.78952 0.66406 0.0
O21 O 0.98412 0.7505 0.67301 0.0
O22 O 0.05871 0.7413 0.66073 0.0
C23 C 0.98294 0.77529 0.67658 0.0
O24 O 0.96623 0.77821 0.59581 0.0
C25 C 0.05357 0.71664 0.65816 0.0
O26 O -0.00891 0.74285 0.60145 0.0
O27 O 0.03235 0.70999 0.64602 0.0
C28 C 0.45754 0.71249 0.89177 0.0
O29 O 0.43778 0.72634 0.88554 0.0
Cd30 Cd 0.43863 0.76111 0.85359 0.0
O31 O 0.47978 0.71539 0.88019 0.0
Cd32 Cd 0.49746 0.74149 0.84267 0.0
C33 C 0.49042 0.79876 0.8773 0.0
O34 O 0.45698 0.73716 0.81721 0.0
O35 O 0.48813 0.76036 0.79881 0.0
O36 O 0.52433 0.70355 0.83252 0.0
C37 C 0.46514 0.74984 0.79719 0.0
O38 O 0.46538 0.79701 0.87447 0.0
C39 C 0.54557 0.71715 0.82931 0.0
O40 O 0.50516 0.78107 0.86786 0.0
O41 O 0.54435 0.74199 0.83293 0.0
C42 C 0.53174 0.31611 0.1064 0.0
O43 O 0.51035 0.32777 0.11177 0.0
Cd44 Cd 0.47282 0.3062 0.1324 0.0
O45 O 0.53489 0.29206 0.11302 0.0
Cd46 Cd 0.51331 0.25496 0.13612 0.0
C47 C 0.46631 0.2541 0.0882 0.0
O48 O 0.49073 0.28119 0.16764 0.0
O49 O 0.47867 0.24001 0.16701 0.0
O50 O 0.55611 0.24582 0.15496 0.0
C51 C 0.47561 0.26298 0.17655 0.0
O52 O 0.45667 0.27506 0.09811 0.0
C53 C 0.55487 0.22108 0.15018 0.0
O54 O 0.4873 0.24413 0.09754 0.0
O55 O 0.5343 0.21214 0.13832 0.0
C56 C 0.90613 0.71346 0.13685 0.0
O57 O 0.89328 0.73484 0.13591 0.0
Cd58 Cd 0.90748 0.77524 0.11468 0.0
O59 O 0.92848 0.71163 0.12544 0.0
Cd60 Cd 0.9589 0.73784 0.09747 0.0
C61 C 0.96747 0.784 0.14642 0.0
O62 O 0.92408 0.75879 0.07423 0.0
O63 O 0.96324 0.77139 0.06217 0.0
O64 O 0.96886 0.69638 0.07569 0.0
C65 C 0.93841 0.77374 0.05994 0.0
O66 O 0.94413 0.79228 0.14246 0.0
C67 C -0.00615 0.69983 0.07697 0.0
O68 O 0.97625 0.76437 0.13354 0.0
O69 O 0.00249 0.72101 0.08794 0.0
C70 C 0.52425 0.78801 0.33663 0.0
O71 O 0.51472 0.81102 0.33794 0.0
Cd72 Cd 0.47402 0.81869 0.35959 0.0
O73 O 0.51469 0.76892 0.35028 0.0
Cd74 Cd 0.48288 0.76324 0.38733 0.0
C75 C 0.43863 0.7627 0.33842 0.0
O76 O 0.48377 0.80816 0.40436 0.0
O77 O 0.45047 0.78362 0.41645 0.0
O78 O 0.51861 0.74304 0.41119 0.0
C79 C 0.46314 0.80554 0.41832 0.0
O80 O 0.44347 0.78752 0.33639 0.0
C81 C 0.50528 0.72262 0.41821 0.0
O82 O 0.45031 0.74893 0.3557 0.0
O83 O 0.48113 0.72121 0.4111 0.0
C84 C 0.41369 0.19105 0.64443 0.0
O85 O 0.39677 0.20903 0.64752 0.0
Cd86 Cd 0.40331 0.25312 0.63056 0.0
O87 O 0.43425 0.19537 0.63048 0.0
Cd88 Cd 0.45391 0.23042 0.60293 0.0
C89 C 0.46444 0.2673 0.65734 0.0
O90 O 0.41412 0.24953 0.58468 0.0
O91 O 0.45026 0.27302 0.58101 0.0
O92 O 0.46476 0.197 0.57032 0.0
C93 C 0.42586 0.27001 0.57555 0.0
O94 O 0.43996 0.2729 0.65661 0.0
C95 C 0.48927 0.20322 0.56943 0.0
O96 O 0.47405 0.2509 0.64106 0.0
O97 O 0.49725 0.22229 0.58407 0.0
C98 C 0.01562 0.29674 0.8361 0.0
O99 O -0.00016 0.31501 0.84224 0.0
Cd100 Cd 0.96539 0.31431 0.87381 0.0
O101 O 0.01536 0.27458 0.8483 0.0
Cd102 Cd -0.00914 0.25563 0.88721 0.0
C103 C 0.93348 0.25739 0.85206 0.0
O104 O 0.98854 0.29685 0.91031 0.0
O105 O 0.9644 0.26577 0.92702 0.0
O106 O 0.02928 0.23273 0.90478 0.0
C107 C 0.97258 0.28966 0.92817 0.0
O108 O 0.93324 0.28254 0.8543 0.0
C109 C 0.01705 0.21052 0.90702 0.0
O110 O 0.95231 0.24402 0.86149 0.0
O111 O -0.00684 0.20935 0.89917 0.0
C112 C 0.40442 0.94959 0.21921 0.0
O113 O 0.39948 0.93158 0.23611 0.0
Cd114 Cd 0.37365 0.93917 0.27437 0.0
O115 O 0.39466 0.97254 0.22114 0.0
Cd116 Cd 0.36214 -0.00467 0.24888 0.0
C117 C 0.40422 -0.00504 0.30057 0.0
O118 O 0.33569 0.95536 0.25167 0.0
O119 O 0.32005 0.98839 0.27311 0.0
O120 O 0.35137 0.01268 0.20588 0.0
C121 C 0.31687 0.96484 0.26472 0.0
O122 O 0.40079 0.96991 0.30139 0.0
C123 C 0.34532 0.03555 0.21399 0.0
O124 O 0.39231 0.00877 0.28349 0.0
O125 O 0.34827 0.04022 0.23856 0.0
C126 C 0.27992 0.09378 0.55287 0.0
O127 O 0.29356 0.09533 0.53182 0.0
Cd128 Cd 0.27391 0.10315 0.48945 0.0
O129 O 0.25503 0.09716 0.55233 0.0
Cd130 Cd 0.21986 0.11038 0.52177 0.0
C131 C 0.22429 0.0549 0.48553 0.0
O132 O 0.24816 0.14112 0.4982 0.0
O133 O 0.20865 0.13675 0.48234 0.0
O134 O 0.20715 0.13333 0.5612 0.0
C135 C 0.2313 0.14797 0.48113 0.0
O136 O 0.24641 0.0641 0.47708 0.0
C137 C 0.18238 0.1301 0.5579 0.0
O138 O 0.2113 0.06728 0.50297 0.0
O139 O 0.17478 0.11678 0.53778 0.0
C140 C 0.14051 0.92143 0.73025 0.0
O141 O 0.1418 0.91027 0.75272 0.0
Cd142 Cd 0.13131 0.93282 0.79291 0.0
O143 O 0.13285 0.94521 0.72822 0.0
Cd144 Cd 0.1154 0.98083 0.75608 0.0
C145 C 0.17269 0.98766 0.78984 0.0
O146 O 0.089 0.95062 0.78262 0.0
O147 O 0.08814 -0.00839 0.79474 0.0
O148 O 0.08888 -0.01034 0.71713 0.0
C149 C 0.07937 0.96807 0.79757 0.0
O150 O 0.16713 0.96567 0.80108 0.0
C151 C 0.0915 0.0147 0.71862 0.0
O152 O 0.15759 -0.00318 0.77212 0.0
O153 O 0.10569 0.02399 0.7374 0.0
C154 C 0.29134 0.82693 -0.00068 0.0
O155 O 0.30621 0.83379 0.98016 0.0
Cd156 Cd 0.29329 0.86329 0.94623 0.0
O157 O 0.26799 0.83571 0.0017 0.0
Cd158 Cd 0.24018 0.86823 0.97882 0.0
C159 C 0.23783 0.83239 0.92175 0.0
O160 O 0.2783 0.89684 0.97622 0.0
O161 O 0.24315 0.91398 0.96021 0.0
O162 O 0.22132 0.87497 0.02251 0.0
C163 C 0.26714 0.91701 0.96727 0.0
O164 O 0.26222 0.8378 0.9178 0.0
C165 C 0.19775 0.87742 0.01417 0.0
O166 O 0.2263 0.84104 0.94219 0.0
O167 O 0.19396 0.87461 -0.01053 0.0
C168 C 0.26414 0.30265 0.02827 0.0
O169 O 0.28884 0.30213 0.03296 0.0
Cd170 Cd 0.31993 0.33428 0.01594 0.0
O171 O 0.25469 0.32044 0.01337 0.0
Cd172 Cd 0.27218 0.35894 0.98855 0.0
C173 C 0.31385 0.32574 0.94932 0.0
O174 O 0.29995 0.37605 0.02445 0.0
O175 O 0.30501 0.39555 0.98681 0.0
O176 O 0.23116 0.38236 -0.00265 0.0
C177 C 0.30969 0.39529 0.01147 0.0
O178 O 0.32909 0.32455 0.96938 0.0
C179 C 0.22651 0.38722 0.97315 0.0
O180 O 0.29096 0.3354 0.95148 0.0
O181 O 0.2428 0.37843 0.95638 0.0
C182 C 0.71877 0.08257 0.02698 0.0
O183 O 0.73752 0.0914 0.04166 0.0
Cd184 Cd 0.76654 0.12844 0.03085 0.0
O185 O 0.71371 0.09332 0.00483 0.0
Cd186 Cd 0.72809 0.12962 0.97628 0.0
C187 C 0.79087 0.10597 0.972 0.0
O188 O 0.73621 0.15897 0.01247 0.0
O189 O 0.74398 0.17585 0.97406 0.0
O190 O 0.68257 0.13412 0.96204 0.0
C191 C 0.74438 0.17858 -0.00099 0.0
O192 O 0.7956 0.1112 -0.00372 0.0
C193 C 0.68773 0.13253 0.93747 0.0
O194 O 0.76834 0.11017 0.96174 0.0
O195 O 0.71172 0.12892 0.93114 0.0
C196 C 0.14588 0.55378 0.21527 0.0
O197 O 0.13415 0.54281 0.19568 0.0
Cd198 Cd 0.10046 0.50887 0.19774 0.0
O199 O 0.13885 0.54901 0.23902 0.0
Cd200 Cd 0.10313 0.52493 0.26262 0.0
C201 C 0.12909 0.4668 0.24295 0.0
O202 O 0.07053 0.52675 0.22839 0.0
O203 O 0.0602 0.50158 0.26118 0.0
O204 O 0.09574 0.56387 0.28899 0.0
C205 C 0.05425 0.5103 0.23849 0.0
O206 O 0.12215 0.47133 0.21912 0.0
C207 C 0.0962 0.55201 0.31115 0.0
O208 O 0.12526 0.48334 0.26156 0.0
O209 O 0.10137 0.52747 0.3108 0.0
C210 C 0.76587 0.8276 0.53863 0.0
O211 O 0.79099 0.82668 0.53944 0.0
Cd212 Cd 0.82029 0.85723 0.51684 0.0
O213 O 0.75443 0.84491 0.52466 0.0
Cd214 Cd 0.76652 0.88138 0.49495 0.0
C215 C 0.80309 0.84594 0.45228 0.0
O216 O 0.80102 0.89929 0.52346 0.0
O217 O 0.79694 0.91854 0.4855 0.0
O218 O 0.72949 0.90905 0.50748 0.0
C219 C 0.80804 0.91786 0.50803 0.0
O220 O 0.82097 0.84518 0.47007 0.0
C221 C 0.71851 0.90778 0.48485 0.0
O222 O 0.78088 0.85624 0.45701 0.0
O223 O 0.72953 0.89369 0.4674 0.0
C224 C 0.91514 0.96297 0.20796 0.0
O225 O 0.91742 0.93797 0.20638 0.0
Cd226 Cd 0.8864 0.90622 0.22494 0.0
O227 O 0.89672 0.97303 0.22159 0.0
Cd228 Cd 0.86079 0.95681 0.25024 0.0
C229 C 0.89569 0.91642 0.29053 0.0
O230 O 0.8443 0.92561 0.21714 0.0
O231 O 0.82218 0.92659 0.25365 0.0
O232 O 0.8351 -0.00335 0.243 0.0
C233 C 0.82435 0.9177 0.23026 0.0
O234 O 0.89705 0.8999 0.27155 0.0
C235 C 0.83592 0.00378 0.26714 0.0
O236 O 0.88534 0.93883 0.28703 0.0
O237 O 0.84839 -0.01084 0.28304 0.0
C238 C 0.2367 0.58382 0.50471 0.0
O239 O 0.25561 0.59358 0.51853 0.0
Cd240 Cd 0.28564 0.62733 0.50335 0.0
O241 O 0.23191 0.59262 0.48159 0.0
Cd242 Cd 0.24887 0.62775 0.45161 0.0
C243 C 0.3073 0.59684 0.44736 0.0
O244 O 0.2567 0.65997 0.48575 0.0
O245 O 0.27327 0.67054 0.44788 0.0
O246 O 0.20365 0.63557 0.43772 0.0
C247 C 0.26847 0.67711 0.47159 0.0
O248 O 0.31299 0.60425 0.47086 0.0
C249 C 0.20861 0.63502 0.41308 0.0
O250 O 0.28519 0.60232 0.43694 0.0
O251 O 0.23227 0.63034 0.40642 0.0
C252 C 0.40856 0.49058 0.68728 0.0
O253 O 0.41105 0.46609 0.68216 0.0
Cd254 Cd 0.38718 0.43067 0.70338 0.0
O255 O 0.39261 0.49816 0.70509 0.0
Cd256 Cd 0.36132 0.47692 0.73592 0.0
C257 C 0.40758 0.4415 0.76679 0.0
O258 O 0.34293 0.44606 0.70386 0.0
O259 O 0.32964 0.43977 0.7439 0.0
O260 O 0.33356 0.51602 0.73468 0.0
C261 C 0.3278 0.4336 0.71961 0.0
O262 O 0.40665 0.42517 0.74753 0.0
C263 C 0.33322 0.51858 0.75973 0.0
O264 O 0.39465 0.46271 0.76608 0.0
O265 O 0.34593 0.50185 0.77314 0.0
C266 C 0.63604 0.05166 0.70402 0.0
O267 O 0.62362 0.03799 0.68659 0.0
Cd268 Cd 0.58941 0.00508 0.69411 0.0
O269 O 0.63019 0.04972 0.72849 0.0
Cd270 Cd 0.59875 0.02628 0.75784 0.0
C271 C 0.6242 0.9672 0.73787 0.0
O272 O 0.5629 0.02501 0.72698 0.0
O273 O 0.55534 0.00459 0.76355 0.0
O274 O 0.59475 0.06543 0.78521 0.0
C275 C 0.54744 0.01039 0.7405 0.0
O276 O 0.6145 0.96952 0.71469 0.0
C277 C 0.59938 0.05367 0.80693 0.0
O278 O 0.62167 0.985 0.75553 0.0
O279 O 0.60497 0.02927 0.80556 0.0
C280 C 0.81571 0.60202 0.00824 0.0
O281 O 0.82758 0.60047 0.98615 0.0
Cd282 Cd 0.80408 0.60744 0.94516 0.0
O283 O 0.79119 0.60708 0.00904 0.0
Cd284 Cd 0.75369 0.61778 0.98102 0.0
C285 C 0.75462 0.55989 0.94806 0.0
O286 O 0.77999 0.64704 0.95344 0.0
O287 O 0.73878 0.64251 0.9423 0.0
O288 O 0.74343 0.6422 0.02047 0.0
C289 C 0.76116 0.65365 0.9384 0.0
O290 O 0.77527 0.56841 0.93606 0.0
C291 C 0.71868 0.63732 0.01966 0.0
O292 O 0.74418 0.5734 0.96634 0.0
O293 O 0.71 0.62306 0.00063 0.0
C294 C 0.90691 0.44811 0.70957 0.0
O295 O 0.90338 0.42762 0.7238 0.0
Cd296 Cd 0.87546 0.42759 0.76168 0.0
O297 O 0.89481 0.46936 0.71451 0.0
Cd298 Cd 0.86057 0.48608 0.7439 0.0
C299 C 0.90093 0.48104 0.79665 0.0
O300 O 0.83588 0.4448 0.74264 0.0
O301 O 0.82058 0.47416 0.76935 0.0
O302 O 0.84767 0.50622 0.70297 0.0
C303 C 0.81788 0.45158 0.75841 0.0
O304 O 0.89878 0.45596 0.79423 0.0
C305 C 0.84363 0.52901 0.71255 0.0
O306 O 0.88938 0.49636 0.78064 0.0
O307 O 0.84748 0.53202 0.73727 0.0
C308 C 0.78054 0.34082 0.52956 0.0
O309 O 0.7995 0.34693 0.51407 0.0
Cd310 Cd 0.79615 0.37233 0.47482 0.0
O311 O 0.75702 0.34865 0.52561 0.0
Cd312 Cd 0.73394 0.37886 0.4952 0.0
C313 C 0.74516 0.33935 0.44204 0.0
O314 O 0.77247 0.40663 0.49557 0.0
O315 O 0.74014 0.42293 0.47381 0.0
O316 O 0.70933 0.3878 0.53504 0.0
C317 C 0.76368 0.4256 0.48232 0.0
O318 O 0.76992 0.34434 0.44413 0.0
C319 C 0.68737 0.39133 0.52343 0.0
O320 O 0.72865 0.34933 0.45793 0.0
O321 O 0.68678 0.38777 0.49853 0.0
C322 C 0.63844 0.4129 0.25211 0.0
O323 O 0.64135 0.40414 0.27549 0.0
Cd324 Cd 0.6248 0.42748 0.3135 0.0
O325 O 0.62685 0.43463 0.24811 0.0
Cd326 Cd 0.6047 0.46956 0.27206 0.0
C327 C 0.6591 0.48608 0.30838 0.0
O328 O 0.5807 0.43828 0.29995 0.0
O329 O 0.57228 0.4796 0.30629 0.0
O330 O 0.58051 0.47328 0.2306 0.0
C331 C 0.56714 0.45552 0.31165 0.0
O332 O 0.65529 0.46521 0.3221 0.0
C333 C 0.58197 0.49844 0.22997 0.0
O334 O 0.64431 0.49103 0.28875 0.0
O335 O 0.59394 0.51002 0.24903 0.0
Sc336 Sc 0.0945 0.12478 0.11145 0.0
Sc337 Sc 0.12147 0.06879 0.14195 0.0
Sc338 Sc 0.14418 0.08853 0.0796 0.0
O339 O 0.11993 0.09411 0.11094 0.0
C340 C 0.09192 0.10772 0.0506 0.0
C341 C 0.05997 0.07562 0.1333 0.0
C342 C 0.1285 0.02931 0.09318 0.0
C343 C 0.11115 0.12326 0.17204 0.0
C344 C 0.14748 0.15106 0.08765 0.0
C345 C 0.18198 0.0782 0.12925 0.0
O346 O 0.08196 0.11799 0.0712 0.0
O347 O 0.07973 0.06183 0.13965 0.0
O348 O 0.13352 0.04728 0.07626 0.0
O349 O 0.10388 0.13579 0.15161 0.0
O350 O 0.15674 0.12912 0.0801 0.0
O351 O 0.16337 0.07472 0.14585 0.0
O352 O 0.12494 0.15302 0.09872 0.0
O353 O 0.11695 0.09897 0.17141 0.0
O354 O 0.17791 0.08087 0.10454 0.0
O355 O 0.06181 0.0992 0.12435 0.0
O356 O 0.1142 0.09657 0.05066 0.0
O357 O 0.12593 0.03418 0.11767 0.0
Sc358 Sc 0.14335 0.83839 0.37463 0.0
Sc359 Sc 0.07606 0.82011 0.36846 0.0
Sc360 Sc 0.09873 0.88224 0.34525 0.0
O361 O 0.10605 0.84691 0.36269 0.0
C362 C 0.13947 0.89974 0.39012 0.0
C363 C 0.10753 0.8194 0.42309 0.0
C364 C 0.04565 0.87388 0.37833 0.0
C365 C 0.1231 0.78159 0.3545 0.0
C366 C 0.15522 0.86805 0.3209 0.0
C367 C 0.0655 0.8407 0.30993 0.0
O368 O 0.15043 0.87734 0.39073 0.0
O369 O 0.0866 0.81598 0.40931 0.0
O370 O 0.06253 0.88844 0.36635 0.0
O371 O 0.14135 0.79848 0.35982 0.0
O372 O 0.13416 0.88134 0.32183 0.0
O373 O 0.06362 0.82319 0.32798 0.0
O374 O 0.16057 0.85022 0.33766 0.0
O375 O 0.09877 0.78654 0.35715 0.0
O376 O 0.07733 0.86306 0.31315 0.0
O377 O 0.12973 0.82652 0.41327 0.0
O378 O 0.1194 0.9044 0.37572 0.0
O379 O 0.04816 0.84907 0.3806 0.0
Sc380 Sc 0.38576 0.86172 0.60486 0.0
Sc381 Sc 0.32991 0.89591 0.58517 0.0
Sc382 Sc 0.34305 0.88823 0.65213 0.0
O383 O 0.353 0.88166 0.61413 0.0
C384 C 0.36609 0.82985 0.65528 0.0
C385 C 0.34017 0.83842 0.56578 0.0
C386 C 0.28697 0.8789 0.6283 0.0
C387 C 0.38648 0.90091 0.55732 0.0
C388 C 0.40494 0.89897 0.65296 0.0
C389 C 0.33501 0.94372 0.62393 0.0
O390 O 0.37734 0.83086 0.63285 0.0
O391 O 0.32404 0.85705 0.56968 0.0
O392 O 0.30384 0.87302 0.64581 0.0
O393 O 0.39881 0.89026 0.57621 0.0
O394 O 0.38168 0.90318 0.66119 0.0
O395 O 0.3367 0.93478 0.60046 0.0
O396 O 0.40985 0.88363 0.63353 0.0
O397 O 0.36146 0.90243 0.55717 0.0
O398 O 0.33208 0.9289 0.64417 0.0
O399 O 0.36376 0.83848 0.5752 0.0
O400 O 0.35369 0.84924 0.66495 0.0
O401 O 0.2934 0.89109 0.60722 0.0
Sc402 Sc 0.39605 0.08559 0.86592 0.0
Sc403 Sc 0.41601 0.15263 0.86393 0.0
Sc404 Sc 0.35434 0.13398 0.89066 0.0
O405 O 0.38884 0.12413 0.87343 0.0
C406 C 0.33443 0.09035 0.851 0.0
C407 C 0.41654 0.11383 0.81377 0.0
C408 C 0.36409 0.18379 0.85232 0.0
C409 C 0.45346 0.10717 0.88374 0.0
C410 C 0.3665 0.07909 0.91953 0.0
C411 C 0.39619 0.16963 0.92162 0.0
O412 O 0.35579 0.07762 0.85337 0.0
O413 O 0.42272 0.13554 0.8254 0.0
O414 O 0.35073 0.17008 0.86879 0.0
O415 O 0.43709 0.08858 0.87776 0.0
O416 O 0.35243 0.09915 0.91508 0.0
O417 O 0.41148 0.17179 0.90167 0.0
O418 O 0.38652 0.07363 0.90554 0.0
O419 O 0.44812 0.13142 0.88094 0.0
O420 O 0.37522 0.15509 0.92169 0.0
O421 O 0.40555 0.0942 0.82541 0.0
O422 O 0.33149 0.11336 0.86078 0.0
O423 O 0.38768 0.17836 0.84609 0.0
Sc424 Sc 0.64354 0.33875 0.8839 0.0
Sc425 Sc 0.57578 0.32796 0.87255 0.0
Sc426 Sc 0.60973 0.37896 0.83879 0.0
O427 O 0.60974 0.34861 0.86502 0.0
C428 C 0.64901 0.40124 0.88399 0.0
C429 C 0.60036 0.33479 0.92979 0.0
C430 C 0.55481 0.38701 0.86681 0.0
C431 C 0.61801 0.28212 0.8719 0.0
C432 C 0.66454 0.35288 0.82579 0.0
C433 C 0.57175 0.33551 0.81084 0.0
O434 O 0.65254 0.37898 0.89497 0.0
O435 O 0.58057 0.33366 0.91422 0.0
O436 O 0.57576 0.39678 0.85648 0.0
O437 O 0.63811 0.29757 0.87403 0.0
O438 O 0.64379 0.3646 0.81835 0.0
O439 O 0.56842 0.32131 0.83134 0.0
O440 O 0.6672 0.34331 0.84888 0.0
O441 O 0.59445 0.29017 0.87337 0.0
O442 O 0.58468 0.35746 0.81095 0.0
O443 O 0.62418 0.33425 0.92173 0.0
O444 O 0.63491 0.40398 0.86329 0.0
O445 O 0.55206 0.36256 0.87219 0.0
Sc446 Sc 0.8804 0.36667 0.11096 0.0
Sc447 Sc 0.85004 0.41148 0.15286 0.0
Sc448 Sc 0.82494 0.40016 0.0895 0.0
O449 O 0.85166 0.39251 0.11789 0.0
C450 C 0.87801 0.39374 0.05605 0.0
C451 C 0.91083 0.41299 0.14256 0.0
C452 C 0.83956 0.45671 0.11123 0.0
C453 C 0.86649 0.35269 0.16935 0.0
C454 C 0.82901 0.33944 0.08335 0.0
C455 C 0.79032 0.39875 0.14209 0.0
O456 O 0.89188 0.387 0.07575 0.0
O457 O 0.89 0.42469 0.14942 0.0
O458 O 0.83573 0.44099 0.09188 0.0
O459 O 0.87095 0.34499 0.14589 0.0
O460 O 0.8144 0.35945 0.08561 0.0
O461 O 0.81 0.39897 0.15772 0.0
O462 O 0.8536 0.33993 0.08933 0.0
O463 O 0.86122 0.37663 0.17501 0.0
O464 O 0.79252 0.40347 0.11742 0.0
O465 O 0.91062 0.39021 0.13164 0.0
O466 O 0.85306 0.39641 0.05742 0.0
O467 O 0.83968 0.4491 0.13523 0.0
Sc468 Sc 0.87858 0.59714 0.35802 0.0
Sc469 Sc 0.90003 0.6634 0.36637 0.0
Sc470 Sc 0.84264 0.64042 0.39879 0.0
O471 O 0.87369 0.63359 0.37442 0.0
C472 C 0.81586 0.60195 0.35562 0.0
C473 C 0.89155 0.6361 0.31012 0.0
C474 C 0.84535 0.69396 0.36603 0.0
C475 C 0.93809 0.61421 0.37191 0.0
C476 C 0.85957 0.58286 0.41662 0.0
C477 C 0.89 0.67239 0.42751 0.0
O478 O 0.83753 0.59288 0.34713 0.0
O479 O 0.89714 0.65583 0.32491 0.0
O480 O 0.83241 0.6763 0.37877 0.0
O481 O 0.9201 0.59671 0.36763 0.0
O482 O 0.84924 0.60515 0.42111 0.0
O483 O 0.90473 0.67362 0.40721 0.0
O484 O 0.87088 0.57724 0.3949 0.0
O485 O 0.93379 0.63885 0.37107 0.0
O486 O 0.86681 0.66203 0.42719 0.0
O487 O 0.88578 0.61314 0.31899 0.0
O488 O 0.81472 0.61912 0.37401 0.0
O489 O 0.86987 0.69218 0.36106 0.0
Sc490 Sc 0.86394 0.85794 0.8565 0.0
Sc491 Sc 0.80653 0.88756 0.87954 0.0
Sc492 Sc 0.84085 0.91434 0.82483 0.0
O493 O 0.83705 0.88654 0.85354 0.0
C494 C 0.89997 0.90931 0.84395 0.0
C495 C 0.85409 0.87036 0.91667 0.0
C496 C 0.82401 0.94774 0.87544 0.0
C497 C 0.80902 0.82664 0.86709 0.0
C498 C 0.85853 0.86212 0.79466 0.0
C499 C 0.77944 0.90292 0.82461 0.0
O500 O 0.89686 0.88508 0.85035 0.0
O501 O 0.83003 0.87633 0.91331 0.0
O502 O 0.83012 0.94604 0.8511 0.0
O503 O 0.83388 0.82781 0.86305 0.0
O504 O 0.8532 0.88659 0.79506 0.0
O505 O 0.77865 0.8986 0.84939 0.0
O506 O 0.86109 0.84837 0.81542 0.0
O507 O 0.79538 0.84691 0.87208 0.0
O508 O 0.80084 0.90716 0.81202 0.0
O509 O 0.86952 0.86498 0.89778 0.0
O510 O 0.88121 0.92329 0.83538 0.0
O511 O 0.81622 0.92794 0.88906 0.0
Sc512 Sc 0.8533 0.1363 0.60396 0.0
Sc513 Sc 0.90715 0.1639 0.63887 0.0
Sc514 Sc 0.87679 0.10424 0.66053 0.0
O515 O 0.87915 0.13474 0.63447 0.0
C516 C 0.81609 0.11408 0.65034 0.0
C517 C 0.85593 0.19582 0.62221 0.0
C518 C 0.88745 0.15449 0.69766 0.0
C519 C 0.90737 0.15683 0.577 0.0
C520 C 0.86774 0.07592 0.60439 0.0
C521 C 0.93891 0.11211 0.65429 0.0
O522 O 0.81997 0.12304 0.62717 0.0
O523 O 0.88009 0.19491 0.62921 0.0
O524 O 0.88169 0.13002 0.69451 0.0
O525 O 0.88303 0.14987 0.57631 0.0
O526 O 0.87156 0.07518 0.62931 0.0
O527 O 0.93799 0.13668 0.64894 0.0
O528 O 0.86211 0.09692 0.59201 0.0
O529 O 0.91989 0.16103 0.5985 0.0
O530 O 0.91834 0.09772 0.65805 0.0
O531 O 0.84268 0.17574 0.61407 0.0
O532 O 0.83486 0.10758 0.66557 0.0
O533 O 0.8961 0.16944 0.6793 0.0
Sc534 Sc 0.6316 0.085 0.34043 0.0
Sc535 Sc 0.65573 0.11844 0.39631 0.0
Sc536 Sc 0.60347 0.14424 0.35971 0.0
O537 O 0.63023 0.11592 0.36558 0.0
C538 C 0.62034 0.13292 0.30133 0.0
C539 C 0.69168 0.09794 0.34878 0.0
C540 C 0.65525 0.17752 0.37729 0.0
C541 C 0.6424 0.05784 0.39651 0.0
C542 C 0.57064 0.09057 0.34767 0.0
C543 C 0.6016 0.13879 0.42147 0.0
O544 O 0.62297 0.10831 0.30566 0.0
O545 O 0.68856 0.10371 0.37314 0.0
O546 O 0.63101 0.17605 0.37034 0.0
O547 O 0.64068 0.0571 0.37138 0.0
O548 O 0.57245 0.11579 0.34865 0.0
O549 O 0.62607 0.13336 0.42331 0.0
O550 O 0.59064 0.0758 0.347 0.0
O551 O 0.64496 0.07934 0.40945 0.0
O552 O 0.58975 0.14106 0.39943 0.0
O553 O 0.67254 0.09311 0.33303 0.0
O554 O 0.61569 0.14943 0.31962 0.0
O555 O 0.66815 0.15767 0.38507 0.0
Sc556 Sc 0.63493 0.85103 0.07364 0.0
Sc557 Sc 0.57666 0.82347 0.10179 0.0
Sc558 Sc 0.6078 0.8789 0.13065 0.0
O559 O 0.60652 0.85111 0.1019 0.0
C560 C 0.6673 0.86119 0.1274 0.0
C561 C 0.62536 0.7893 0.08345 0.0
C562 C 0.58836 0.82741 0.16259 0.0
C563 C 0.58112 0.84025 0.04126 0.0
C564 C 0.62985 0.91269 0.08184 0.0
C565 C 0.54732 0.87676 0.11758 0.0
O566 O 0.66648 0.85588 0.10269 0.0
O567 O 0.6017 0.79129 0.09139 0.0
O568 O 0.59473 0.8518 0.16072 0.0
O569 O 0.60567 0.84668 0.04242 0.0
O570 O 0.62152 0.91029 0.10537 0.0
O571 O 0.54747 0.85205 0.11255 0.0
O572 O 0.63405 0.89293 0.06702 0.0
O573 O 0.56803 0.83179 0.06113 0.0
O574 O 0.5682 0.89047 0.12227 0.0
O575 O 0.63975 0.80917 0.07699 0.0
O576 O 0.6474 0.86872 0.14054 0.0
O577 O 0.58313 0.81299 0.14253 0.0
Sc578 Sc 0.35453 0.62513 0.098 0.0
Sc579 Sc 0.41502 0.64849 0.12238 0.0
Sc580 Sc 0.3812 0.59601 0.15437 0.0
O581 O 0.38369 0.62299 0.12497 0.0
C582 C 0.32123 0.61091 0.1497 0.0
C583 C 0.36649 0.68484 0.10663 0.0
C584 C 0.40056 0.64949 0.18317 0.0
C585 C 0.40662 0.63584 0.06297 0.0
C586 C 0.3625 0.56368 0.10251 0.0
C587 C 0.44248 0.59582 0.14238 0.0
O588 O 0.32319 0.61647 0.12532 0.0
O589 O 0.39119 0.68092 0.10889 0.0
O590 O 0.39306 0.6252 0.18399 0.0
O591 O 0.38169 0.63423 0.06636 0.0
O592 O 0.36906 0.56466 0.12695 0.0
O593 O 0.44358 0.61986 0.13498 0.0
O594 O 0.35811 0.58419 0.08878 0.0
O595 O 0.42295 0.63739 0.08214 0.0
O596 O 0.42094 0.58393 0.14832 0.0
O597 O 0.34929 0.66615 0.10628 0.0
O598 O 0.34098 0.60503 0.16388 0.0
O599 O 0.40801 0.6612 0.16211 0.0
Sc600 Sc 0.11854 0.57007 0.85069 0.0
Sc601 Sc 0.14898 0.6043 0.90401 0.0
Sc602 Sc 0.09214 0.62958 0.8734 0.0
O603 O 0.11987 0.60126 0.87614 0.0
C604 C 0.1038 0.6183 0.81303 0.0
C605 C 0.17988 0.58532 0.85245 0.0
C606 C 0.14446 0.6643 0.8857 0.0
C607 C 0.13667 0.54228 0.90439 0.0
C608 C 0.05793 0.57624 0.86383 0.0
C609 C 0.09754 0.62187 0.93561 0.0
O610 O 0.10974 0.59423 0.8166 0.0
O611 O 0.17951 0.59515 0.87569 0.0
O612 O 0.12056 0.66186 0.87799 0.0
O613 O 0.12755 0.54171 0.88093 0.0
O614 O 0.05994 0.6011 0.86786 0.0
O615 O 0.12135 0.61411 0.93508 0.0
O616 O 0.07758 0.56193 0.85856 0.0
O617 O 0.14456 0.56356 0.91566 0.0
O618 O 0.08457 0.62775 0.91493 0.0
O619 O 0.15937 0.57578 0.84098 0.0
O620 O 0.09782 0.63374 0.83182 0.0
O621 O 0.15718 0.64519 0.89534 0.0
Sc622 Sc 0.1414 0.35924 0.5773 0.0
Sc623 Sc 0.07549 0.34721 0.59781 0.0
Sc624 Sc 0.11423 0.39707 0.6287 0.0
O625 O 0.11038 0.36787 0.60121 0.0
C626 C 0.17008 0.3691 0.63269 0.0
C627 C 0.11718 0.30175 0.58995 0.0
C628 C 0.0828 0.35164 0.66028 0.0
C629 C 0.09204 0.3566 0.53768 0.0
C630 C 0.14512 0.42244 0.57983 0.0
C631 C 0.0555 0.40567 0.6085 0.0
O632 O 0.16941 0.35895 0.60963 0.0
O633 O 0.09408 0.30966 0.59491 0.0
O634 O 0.09721 0.37257 0.65911 0.0
O635 O 0.11676 0.35878 0.54235 0.0
O636 O 0.13219 0.4243 0.60125 0.0
O637 O 0.05226 0.38202 0.60036 0.0
O638 O 0.15019 0.40035 0.569 0.0
O639 O 0.07495 0.35225 0.55569 0.0
O640 O 0.07684 0.41406 0.61924 0.0
O641 O 0.13615 0.31731 0.58334 0.0
O642 O 0.15185 0.3835 0.64159 0.0
O643 O 0.07306 0.34024 0.63985 0.0
Sc644 Sc 0.60299 0.64624 0.62258 0.0
Sc645 Sc 0.63062 0.5886 0.64883 0.0
Sc646 Sc 0.64981 0.61074 0.58571 0.0
O647 O 0.62776 0.61522 0.619 0.0
C648 C 0.59559 0.6307 0.56162 0.0
C649 C 0.56861 0.59763 0.64506 0.0
C650 C 0.63246 0.55112 0.59794 0.0
C651 C 0.62533 0.64207 0.6815 0.0
C652 C 0.65428 0.67301 0.59651 0.0
C653 C 0.69059 0.59715 0.63175 0.0
O654 O 0.58834 0.6418 0.5829 0.0
O655 O 0.58864 0.58422 0.65137 0.0
O656 O 0.63963 0.56934 0.58202 0.0
O657 O 0.6146 0.65468 0.66275 0.0
O658 O 0.66199 0.65158 0.58611 0.0
O659 O 0.67281 0.5913 0.64859 0.0
O660 O 0.6333 0.67444 0.61032 0.0
O661 O 0.63189 0.61808 0.67935 0.0
O662 O 0.68543 0.60317 0.60789 0.0
O663 O 0.57038 0.62068 0.63494 0.0
O664 O 0.61721 0.6185 0.55957 0.0
O665 O 0.62948 0.55511 0.62255 0.0
Sc666 Sc 0.29711 0.36487 0.38458 0.0
Sc667 Sc 0.33093 0.38219 0.32643 0.0
Sc668 Sc 0.35202 0.32882 0.36425 0.0
O669 O 0.32656 0.35843 0.35833 0.0
C670 C 0.34475 0.34968 0.42267 0.0
C671 C 0.31745 0.42295 0.37229 0.0
C672 C 0.38996 0.37649 0.34543 0.0
C673 C 0.26928 0.37483 0.32848 0.0
C674 C 0.29585 0.30264 0.38053 0.0
C675 C 0.3457 0.32562 0.30251 0.0
O676 O 0.32113 0.35702 0.419 0.0
O677 O 0.32232 0.41768 0.34821 0.0
O678 O 0.38635 0.35295 0.35387 0.0
O679 O 0.26904 0.37361 0.35365 0.0
O680 O 0.3205 0.30166 0.37547 0.0
O681 O 0.34123 0.35021 0.30035 0.0
O682 O 0.28363 0.32427 0.38289 0.0
O683 O 0.29048 0.37577 0.31503 0.0
O684 O 0.34786 0.31422 0.32472 0.0
O685 O 0.3093 0.40556 0.38865 0.0
O686 O 0.359 0.34062 0.40427 0.0
O687 O 0.37152 0.39039 0.33609 0.0
H688 H 0.03806 0.15971 0.31398 0.0
H689 H 0.08624 0.23089 0.304 0.0
H690 H 0.06374 0.13772 0.27999 0.0
H691 H 0.11195 0.20878 0.26999 0.0
H692 H 0.11643 0.10102 0.22109 0.0
H693 H 0.10755 0.12166 0.26373 0.0
H694 H 0.09519 0.19641 0.22464 0.0
H695 H 0.10413 0.17596 0.18201 0.0
C696 C 0.05461 0.1704 0.30509 0.0
C697 C 0.05981 0.19715 0.31128 0.0
C698 C 0.06943 0.15776 0.28571 0.0
C699 C 0.08959 0.17171 0.27212 0.0
C700 C 0.09628 0.19772 0.27995 0.0
C701 C 0.08159 0.2103 0.29947 0.0
C702 C 0.11239 0.122 0.22159 0.0
C703 C 0.11048 0.13674 0.19806 0.0
C704 C 0.10728 0.13376 0.24604 0.0
C705 C 0.10048 0.16053 0.24745 0.0
C706 C 0.10059 0.17575 0.22418 0.0
C707 C 0.10548 0.16397 0.19971 0.0
H708 H 0.05352 0.85568 0.57676 0.0
H709 H 0.08851 0.77871 0.58561 0.0
H710 H 0.07669 0.86161 0.53492 0.0
H711 H 0.11159 0.78491 0.54366 0.0
H712 H 0.14715 0.81612 0.46045 0.0
H713 H 0.14205 0.81867 0.50884 0.0
H714 H 0.05742 0.82399 0.49904 0.0
H715 H 0.06211 0.82096 0.45144 0.0
C716 C 0.06696 0.84051 0.57039 0.0
C717 C 0.06834 0.81626 0.58389 0.0
C718 C 0.0803 0.84401 0.54652 0.0
C719 C 0.0953 0.82342 0.53604 0.0
C720 C 0.10002 0.80097 0.55145 0.0
C721 C 0.08662 0.79741 0.57537 0.0
C722 C 0.12748 0.81763 0.46873 0.0
C723 C 0.10502 0.81825 0.45214 0.0
C724 C 0.12466 0.81927 0.49626 0.0
C725 C 0.09946 0.82221 0.50731 0.0
C726 C 0.07712 0.82237 0.4908 0.0
C727 C 0.07982 0.82025 0.46356 0.0
H728 H 0.41224 0.73841 0.79305 0.0
H729 H 0.47909 0.7701 0.74916 0.0
H730 H 0.38288 0.74849 0.75603 0.0
H731 H 0.44982 0.78007 0.71228 0.0
H732 H 0.39783 0.78786 0.64475 0.0
H733 H 0.41888 0.76015 0.67768 0.0
H734 H 0.36952 0.79322 0.73851 0.0
H735 H 0.34831 0.82091 0.70574 0.0
C736 C 0.4207 0.74715 0.77537 0.0
C737 C 0.44789 0.75378 0.77405 0.0
C738 C 0.40392 0.75286 0.75421 0.0
C739 C 0.41412 0.76491 0.73129 0.0
C740 C 0.4415 0.77037 0.72953 0.0
C741 C 0.4582 0.76495 0.75076 0.0
C742 C 0.39078 0.78863 0.66497 0.0
C743 C 0.372 0.80728 0.67278 0.0
C744 C 0.40294 0.77279 0.68381 0.0
C745 C 0.39628 0.77511 0.71066 0.0
C746 C 0.37511 0.79114 0.71793 0.0
C747 C 0.36303 0.8071 0.69912 0.0
H748 H 0.4185 0.2655 0.06533 0.0
H749 H 0.48545 0.21391 0.05841 0.0
H750 H 0.39921 0.24562 0.02512 0.0
H751 H 0.46622 0.19442 0.01858 0.0
H752 H 0.44344 0.1947 0.93171 0.0
H753 H 0.4581 0.21552 0.9727 0.0
H754 H 0.38206 0.19791 0.00819 0.0
H755 H 0.36703 0.17676 0.96688 0.0
C756 C 0.42901 0.2499 0.05536 0.0
C757 C 0.45361 0.24144 0.06491 0.0
C758 C 0.41791 0.2385 0.03251 0.0
C759 C 0.43143 0.21876 0.0188 0.0
C760 C 0.45562 0.20987 0.0287 0.0
C761 C 0.46655 0.22101 0.05156 0.0
C762 C 0.42965 0.19537 0.94808 0.0
C763 C 0.4041 0.18385 0.94607 0.0
C764 C 0.43814 0.20721 0.97157 0.0
C765 C 0.42125 0.20801 -0.00648 0.0
C766 C 0.39537 0.19749 -0.00859 0.0
C767 C 0.38688 0.18531 0.96787 0.0
H768 H 0.0169 0.76942 0.16146 0.0
H769 H 0.95622 0.82609 0.17875 0.0
H770 H 0.04267 0.78577 0.19905 0.0
H771 H 0.98231 0.8424 0.21656 0.0
H772 H 0.04987 0.87546 0.2716 0.0
H773 H 0.0279 0.86456 0.22946 0.0
H774 H 0.03158 0.78125 0.24808 0.0
H775 H 0.05327 0.79192 0.28991 0.0
C776 C 0.00916 0.78557 0.17307 0.0
C777 C 0.98429 0.79619 0.16734 0.0
C778 C 0.02395 0.79487 0.1946 0.0
C779 C 0.01429 0.8151 0.21075 0.0
C780 C -0.00982 0.82682 0.20427 0.0
C781 C 0.97522 0.81737 0.18276 0.0
C782 C 0.04613 0.85484 0.26655 0.0
C783 C 0.05323 0.83453 0.28405 0.0
C784 C 0.03349 0.84866 0.24257 0.0
C785 C 0.02823 0.82211 0.23559 0.0
C786 C 0.03571 0.80188 0.25289 0.0
C787 C 0.04795 0.80802 0.27692 0.0
H788 H 0.48918 0.85165 0.43189 0.0
H789 H 0.41372 0.8101 0.43877 0.0
H790 H 0.47257 0.88764 0.45948 0.0
H791 H 0.39722 0.84589 0.46596 0.0
H792 H 0.44009 0.90067 0.54931 0.0
H793 H 0.46053 0.88616 0.50846 0.0
H794 H 0.38629 0.8949 0.46717 0.0
H795 H 0.36563 0.90928 0.50804 0.0
C796 C 0.46896 0.8504 0.43898 0.0
C797 C 0.4528 0.82797 0.43352 0.0
C798 C 0.45947 0.87103 0.45459 0.0
C799 C 0.43355 0.8697 0.46454 0.0
C800 C 0.41711 0.84775 0.45807 0.0
C801 C 0.42668 0.82704 0.44284 0.0
C802 C 0.42838 0.90068 0.5313 0.0
C803 C 0.40094 0.90487 0.53217 0.0
C804 C 0.44016 0.89245 0.50782 0.0
C805 C 0.42466 0.88848 0.48498 0.0
C806 C 0.39845 0.8972 0.48477 0.0
C807 C 0.38667 0.90554 0.50822 0.0
H808 H 0.45208 0.15462 0.65232 0.0
H809 H 0.37174 0.17302 0.67399 0.0
H810 H 0.45435 0.12383 0.68929 0.0
H811 H 0.37407 0.142 0.71071 0.0
H812 H 0.45503 0.13776 0.78428 0.0
H813 H 0.45437 0.14443 0.73656 0.0
H814 H 0.38353 0.09518 0.73029 0.0
H815 H 0.3845 0.088 0.77822 0.0
C816 C 0.43455 0.15138 0.66431 0.0
C817 C 0.41198 0.16686 0.66079 0.0
C818 C 0.4359 0.13369 0.68542 0.0
C819 C 0.41456 0.13093 0.703 0.0
C820 C 0.39079 0.14374 0.69739 0.0
C821 C 0.38954 0.16169 0.67648 0.0
C822 C 0.43984 0.12765 0.77259 0.0
C823 C 0.41965 0.11269 0.78486 0.0
C824 C 0.43958 0.13124 0.74526 0.0
C825 C 0.41882 0.12035 0.72984 0.0
C826 C 0.39974 0.1037 0.74182 0.0
C827 C 0.40033 0.09962 0.76917 0.0
H828 H 0.06843 0.20562 0.92301 0.0
H829 H -0.00767 0.16461 0.92268 0.0
H830 H 0.08568 0.17234 0.95301 0.0
H831 H 0.00964 0.13142 0.95283 0.0
H832 H 0.04059 0.12138 0.04183 0.0
H833 H 0.02242 0.13928 0.00108 0.0
H834 H 0.09557 0.12348 0.96051 0.0
H835 H 0.11384 0.1054 0.00125 0.0
C836 C 0.05559 0.18918 0.92884 0.0
C837 C 0.02895 0.18794 0.92082 0.0
C838 C 0.06551 0.17001 0.94586 0.0
C839 C 0.04889 0.14943 0.95535 0.0
C840 C 0.02277 0.1472 0.94592 0.0
C841 C 0.01293 0.16619 0.92865 0.0
C842 C 0.05255 0.12103 0.02406 0.0
C843 C 0.07879 0.11238 0.02489 0.0
C844 C 0.04208 0.13114 0.00067 0.0
C845 C 0.05775 0.13302 0.97777 0.0
C846 C 0.08321 0.12244 0.978 0.0
C847 C 0.09358 0.112 0.00132 0.0
H848 H 0.33554 0.02973 0.16126 0.0
H849 H 0.32163 0.08178 0.22763 0.0
H850 H 0.29907 0.04917 0.13745 0.0
H851 H 0.2854 0.10182 0.20339 0.0
H852 H 0.1984 0.07725 0.18069 0.0
H853 H 0.24338 0.07756 0.1973 0.0
H854 H 0.27325 0.08429 0.11743 0.0
H855 H 0.22788 0.08355 0.10053 0.0
C856 C 0.32538 0.04609 0.17034 0.0
C857 C 0.33074 0.05359 0.19665 0.0
C858 C 0.30453 0.05739 0.15658 0.0
C859 C 0.28886 0.07643 0.16893 0.0
C860 C 0.29676 0.08664 0.19372 0.0
C861 C 0.31758 0.07526 0.20754 0.0
C862 C 0.21447 0.079 0.16659 0.0
C863 C 0.2095 0.07983 0.13923 0.0
C864 C 0.24033 0.07964 0.17618 0.0
C865 C 0.2619 0.08112 0.15867 0.0
C866 C 0.257 0.08306 0.13136 0.0
C867 C 0.23103 0.08249 0.12172 0.0
H868 H 0.24722 0.02064 0.45074 0.0
H869 H 0.17469 0.03397 0.49371 0.0
H870 H 0.22637 0.98217 0.42908 0.0
H871 H 0.15407 -0.00445 0.47208 0.0
H872 H 0.11904 0.94853 0.40042 0.0
H873 H 0.14 0.985 0.42513 0.0
H874 H 0.20781 0.93673 0.44064 0.0
H875 H 0.18708 0.90028 0.41594 0.0
C876 C 0.22695 0.01526 0.45574 0.0
C877 C 0.2126 0.03043 0.47386 0.0
C878 C 0.21507 -0.0068 0.44341 0.0
C879 C 0.18858 0.98605 0.44884 0.0
C880 C 0.17442 0.00085 0.46733 0.0
C881 C 0.18633 0.02275 0.47981 0.0
C882 C 0.13835 0.94563 0.40919 0.0
C883 C 0.15138 0.9215 0.40615 0.0
C884 C 0.15028 0.96646 0.42344 0.0
C885 C 0.17553 0.96363 0.4347 0.0
C886 C 0.18844 0.93947 0.43192 0.0
C887 C 0.17645 0.91858 0.41791 0.0
H888 H 0.15516 0.94371 0.68338 0.0
H889 H 0.14896 0.86845 0.72376 0.0
H890 H 0.18299 0.92422 0.65012 0.0
H891 H 0.1758 0.84831 0.68943 0.0
H892 H 0.24353 0.89502 0.60022 0.0
H893 H 0.19811 0.89628 0.61639 0.0
H894 H 0.2217 0.85404 0.68677 0.0
H895 H 0.26622 0.85179 0.67021 0.0
C896 C 0.15894 0.9227 0.6846 0.0
C897 C 0.15083 0.90784 0.70671 0.0
C898 C 0.17472 0.91135 0.66526 0.0
C899 C 0.18238 0.8848 0.6675 0.0
C900 C 0.17103 0.86905 0.68763 0.0
C901 C 0.15566 0.88056 0.70729 0.0
C902 C 0.23875 0.88532 0.61877 0.0
C903 C 0.25867 0.87424 0.63445 0.0
C904 C 0.21273 0.88608 0.62805 0.0
C905 C 0.20634 0.876 0.65326 0.0
C906 C 0.22566 0.86208 0.66729 0.0
C907 C 0.2515 0.86113 0.65794 0.0
H908 H 0.316 0.9283 0.98729 0.0
H909 H 0.25087 0.96365 0.94554 0.0
H910 H 0.34121 0.96979 0.98461 0.0
H911 H 0.27651 0.00519 0.94228 0.0
H912 H 0.32125 0.08075 0.94917 0.0
H913 H 0.29701 0.04264 0.96708 0.0
H914 H 0.36262 -0.00738 0.94795 0.0
H915 H 0.38703 0.03059 0.93042 0.0
C916 C 0.30703 0.94498 0.97754 0.0
C917 C 0.28158 0.94267 0.96626 0.0
C918 C 0.3215 0.96874 0.97608 0.0
C919 C 0.3109 -0.00932 0.9632 0.0
C920 C 0.28506 0.98869 0.95268 0.0
C921 C 0.27049 0.96487 0.95426 0.0
C922 C 0.33088 0.06179 0.94951 0.0
C923 C 0.35583 0.05859 0.9377 0.0
C924 C 0.31685 0.03994 0.95958 0.0
C925 C 0.32763 0.01459 0.95824 0.0
C926 C 0.35373 0.01192 0.94919 0.0
C927 C 0.36775 0.03374 0.93908 0.0
H928 H 0.30696 0.91363 0.25027 0.0
H929 H 0.27096 0.98113 0.28745 0.0
H930 H 0.26608 0.88774 0.25614 0.0
H931 H 0.23015 0.95504 0.29358 0.0
H932 H 0.15466 0.91028 0.28702 0.0
H933 H 0.19333 0.93268 0.26808 0.0
H934 H 0.24274 0.86955 0.29547 0.0
H935 H 0.2042 0.84691 0.31421 0.0
C936 C 0.29029 0.92295 0.25968 0.0
C937 C 0.29215 0.94936 0.26859 0.0
C938 C 0.26693 0.90811 0.26297 0.0
C939 C 0.24495 0.91944 0.27511 0.0
C940 C 0.24667 0.94597 0.2837 0.0
C941 C 0.2701 0.9608 0.2805 0.0
C942 C 0.17361 0.90072 0.28836 0.0
C943 C 0.17645 0.87713 0.30277 0.0
C944 C 0.19576 0.9137 0.27766 0.0
C945 C 0.22103 0.90317 0.28096 0.0
C946 C 0.22347 0.87817 0.29275 0.0
C947 C 0.20135 0.86522 0.30354 0.0
H948 H 0.25564 0.06969 0.5946 0.0
H949 H 0.33221 0.09747 0.56701 0.0
H950 H 0.27676 0.0416 0.62653 0.0
H951 H 0.35366 0.07054 0.60047 0.0
H952 H 0.30987 0.97393 0.66116 0.0
H953 H 0.30358 0.02186 0.65866 0.0
H954 H 0.35632 0.02555 0.5912 0.0
H955 H 0.36285 0.97865 0.59432 0.0
C956 C 0.27704 0.07068 0.59619 0.0
C957 C 0.29238 0.08458 0.57746 0.0
C958 C 0.28927 0.05475 0.61486 0.0
C959 C 0.31703 0.05276 0.61519 0.0
C960 C 0.33222 0.0707 0.59985 0.0
C961 C 0.31998 0.08607 0.58064 0.0
C962 C 0.3207 0.98535 0.64644 0.0
C963 C 0.3359 0.97266 0.62718 0.0
C964 C 0.31715 0.01274 0.64498 0.0
C965 C 0.32871 0.02756 0.62422 0.0
C966 C 0.34687 0.0151 0.60745 0.0
C967 C 0.3503 0.98795 0.60886 0.0
H968 H 0.18751 0.03735 0.77356 0.0
H969 H 0.21251 0.97267 0.82309 0.0
H970 H 0.22723 0.0628 0.78592 0.0
H971 H 0.25215 -0.00165 0.83556 0.0
H972 H 0.33231 0.04023 0.83041 0.0
H973 H 0.29353 0.01578 0.81414 0.0
H974 H 0.24566 0.08448 0.82681 0.0
H975 H 0.28451 0.10923 0.84301 0.0
C976 C 0.20147 0.02853 0.78708 0.0
C977 C 0.19685 0.00296 0.79737 0.0
C978 C 0.22413 0.04319 0.79421 0.0
C979 C 0.24273 0.03252 0.81163 0.0
C980 C 0.23824 0.00692 0.82183 0.0
C981 C 0.21548 -0.00771 0.81482 0.0
C982 C 0.31362 0.05031 0.82951 0.0
C983 C 0.31151 0.07668 0.83825 0.0
C984 C 0.29138 0.03619 0.82034 0.0
C985 C 0.26659 0.04815 0.81953 0.0
C986 C 0.2646 0.07482 0.82716 0.0
C987 C 0.28685 0.08896 0.83649 0.0
H988 H 0.20178 0.89063 0.06641 0.0
H989 H 0.14669 0.88818 0.00075 0.0
H990 H 0.17384 0.92164 0.08934 0.0
H991 H 0.11837 0.91896 0.02403 0.0
H992 H 0.12747 0.98455 0.12382 0.0
H993 H 0.13318 0.93903 0.10887 0.0
H994 H 0.13256 0.9657 0.02762 0.0
H995 H 0.12658 0.01087 0.04238 0.0
C996 C 0.18315 0.89586 0.05735 0.0
C997 C 0.17689 0.88782 0.0314 0.0
C998 C 0.16697 0.91352 0.0706 0.0
C999 C 0.14431 0.92332 0.05809 0.0
C1000 C 0.13609 0.91219 0.03382 0.0
C1001 C 0.1523 0.89455 0.02053 0.0
C1002 C 0.12793 0.98059 0.10274 0.0
C1003 C 0.1273 0.00141 0.08427 0.0
C1004 C 0.13112 0.95451 0.09423 0.0
C1005 C 0.13353 0.94881 0.06713 0.0
C1006 C 0.13051 0.96933 0.04865 0.0
C1007 C 0.12747 -0.00464 0.05713 0.0
H1008 H 0.21104 0.29494 0.01927 0.0
H1009 H 0.27658 0.26516 0.06482 0.0
H1010 H 0.18213 0.26017 0.03741 0.0
H1011 H 0.24753 0.23088 0.08334 0.0
H1012 H 0.13291 0.20332 0.08902 0.0
H1013 H 0.16067 0.24224 0.07806 0.0
H1014 H 0.22695 0.19138 0.06418 0.0
H1015 H 0.19981 0.15302 0.07547 0.0
C1016 C 0.21922 0.28116 0.03335 0.0
C1017 C 0.24621 0.28255 0.04029 0.0
C1018 C 0.20258 0.26141 0.04392 0.0
C1019 C 0.21261 0.24273 0.06167 0.0
C1020 C 0.23934 0.24477 0.06938 0.0
C1021 C 0.25598 0.26441 0.05875 0.0
C1022 C 0.15349 0.20058 0.08392 0.0
C1023 C 0.16407 0.17507 0.08291 0.0
C1024 C 0.16931 0.2228 0.07752 0.0
C1025 C 0.19597 0.21983 0.0703 0.0
C1026 C 0.20661 0.1944 0.07003 0.0
C1027 C 0.19089 0.17233 0.07626 0.0
H1028 H 0.63647 0.14616 0.94561 0.0
H1029 H 0.69428 0.13546 0.88381 0.0
H1030 H 0.61182 0.17508 0.91701 0.0
H1031 H 0.66912 0.16405 0.85476 0.0
H1032 H 0.66439 0.25761 0.86149 0.0
H1033 H 0.67312 0.21093 0.8655 0.0
H1034 H 0.58987 0.19431 0.87905 0.0
H1035 H 0.58111 0.24152 0.87543 0.0
C1036 C 0.64327 0.149 0.92547 0.0
C1037 C 0.66797 0.13976 0.91737 0.0
C1038 C 0.62895 0.16545 0.90887 0.0
C1039 C 0.63922 0.17279 0.88402 0.0
C1040 C 0.66125 0.15941 0.87418 0.0
C1041 C 0.67567 0.14305 0.89085 0.0
C1042 C 0.64782 0.24401 0.86479 0.0
C1043 C 0.62224 0.25338 0.8691 0.0
C1044 C 0.65273 0.21706 0.86663 0.0
C1045 C 0.63218 0.19886 0.87294 0.0
C1046 C 0.60613 0.20791 0.8745 0.0
C1047 C 0.60118 0.23497 0.87256 0.0
H1048 H 0.03929 0.52251 0.18816 0.0
H1049 H 0.02466 0.46643 0.25137 0.0
H1050 H 0.00852 0.49746 0.15967 0.0
H1051 H -0.00601 0.44154 0.2229 0.0
H1052 H 0.9563 0.39047 0.16 0.0
H1053 H -0.00576 0.414 0.1804 0.0
H1054 H 0.95917 0.48892 0.16131 0.0
H1055 H 0.92155 0.46556 0.14109 0.0
C1056 C 0.02942 0.50493 0.19599 0.0
C1057 C 0.03422 0.49648 0.22201 0.0
C1058 C 0.01199 0.49056 0.17965 0.0
C1059 C -0.00073 0.46742 0.18903 0.0
C1060 C 0.00402 0.45902 0.21504 0.0
C1061 C 0.02126 0.47348 0.23144 0.0
C1062 C 0.9572 0.41194 0.15954 0.0
C1063 C 0.93604 0.42629 0.14935 0.0
C1064 C 0.97869 0.42535 0.17134 0.0
C1065 C 0.97935 0.45321 0.17264 0.0
C1066 C 0.95917 0.46746 0.16048 0.0
C1067 C 0.93763 0.45411 0.14906 0.0
H1068 H 0.76587 0.83137 0.41519 0.0
H1069 H 0.84987 0.82997 0.43168 0.0
H1070 H 0.77173 0.8002 0.37873 0.0
H1071 H 0.85566 0.79893 0.39565 0.0
H1072 H 0.79501 0.70831 0.37878 0.0
H1073 H 0.78135 0.75328 0.38658 0.0
H1074 H 0.85297 0.78325 0.34955 0.0
H1075 H 0.86699 0.73804 0.34203 0.0
C1076 C 0.78568 0.82503 0.41056 0.0
C1077 C 0.80733 0.83242 0.42677 0.0
C1078 C 0.78901 0.80726 0.38964 0.0
C1079 C 0.81404 0.79682 0.38454 0.0
C1080 C 0.83609 0.80667 0.39888 0.0
C1081 C 0.83274 0.82421 0.41986 0.0
C1082 C 0.80743 0.7244 0.37135 0.0
C1083 C 0.83271 0.71963 0.36105 0.0
C1084 C 0.79945 0.75032 0.3756 0.0
C1085 C 0.8166 0.77178 0.36954 0.0
C1086 C 0.83972 0.767 0.35506 0.0
C1087 C 0.84776 0.74106 0.35084 0.0
H1088 H 0.9094 0.01533 0.19618 0.0
H1089 H 0.96319 0.95048 0.18759 0.0
H1090 H 0.94056 0.04454 0.1729 0.0
H1091 H -0.00524 0.97979 0.16546 0.0
H1092 H 0.04229 0.02947 0.11234 0.0
H1093 H 0.00368 0.00335 0.12638 0.0
H1094 H 0.98205 0.06655 0.17964 0.0
H1095 H 0.01999 0.09316 0.16418 0.0
C1096 C 0.92795 0.00736 0.18941 0.0
C1097 C 0.93391 0.98062 0.19374 0.0
C1098 C 0.94582 0.02412 0.17613 0.0
C1099 C 0.97014 0.01455 0.16716 0.0
C1100 C 0.97596 0.98775 0.17147 0.0
C1101 C 0.95797 0.97094 0.18441 0.0
C1102 C 0.02869 0.03799 0.12641 0.0
C1103 C 0.03385 0.06316 0.13725 0.0
C1104 C 0.00681 0.02296 0.13473 0.0
C1105 C -0.00988 0.03254 0.15466 0.0
C1106 C -0.00562 0.05858 0.16417 0.0
C1107 C 0.01605 0.07387 0.15537 0.0
H1108 H 0.25396 0.69889 0.51818 0.0
H1109 H 0.3069 0.71074 0.4519 0.0
H1110 H 0.27235 0.73863 0.53932 0.0
H1111 H 0.3255 0.75071 0.47338 0.0
H1112 H 0.36924 0.799 0.5431 0.0
H1113 H 0.35214 0.76059 0.51799 0.0
H1114 H 0.27244 0.7882 0.5276 0.0
H1115 H 0.28913 0.82626 0.55248 0.0
C1116 C 0.26948 0.71006 0.5081 0.0
C1117 C 0.279 0.70183 0.48341 0.0
C1118 C 0.27993 0.73279 0.52017 0.0
C1119 C 0.30027 0.74758 0.5079 0.0
C1120 C 0.3099 0.73943 0.48321 0.0
C1121 C 0.29915 0.71678 0.4709 0.0
C1122 C 0.3481 0.79687 0.53977 0.0
C1123 C 0.33055 0.81556 0.54993 0.0
C1124 C 0.33839 0.77507 0.52526 0.0
C1125 C 0.31104 0.77156 0.52107 0.0
C1126 C 0.29361 0.79044 0.5308 0.0
C1127 C 0.30324 0.81225 0.54498 0.0
H1128 H 0.08074 0.52844 0.35747 0.0
H1129 H 0.08664 0.60437 0.31836 0.0
H1130 H 0.04687 0.5456 0.38677 0.0
H1131 H 0.05258 0.62126 0.34698 0.0
H1132 H 0.98136 0.64513 0.38556 0.0
H1133 H 0.02756 0.63219 0.38566 0.0
H1134 H 0.00291 0.55124 0.36893 0.0
H1135 H 0.957 0.56394 0.36946 0.0
C1136 C 0.07565 0.54911 0.35586 0.0
C1137 C 0.08542 0.56478 0.33494 0.0
C1138 C 0.05613 0.5589 0.37256 0.0
C1139 C 0.04623 0.58439 0.36844 0.0
C1140 C 0.05943 0.60141 0.35056 0.0
C1141 C 0.07893 0.59165 0.33393 0.0
C1142 C 0.9858 0.62445 0.38245 0.0
C1143 C 0.96554 0.60569 0.37663 0.0
C1144 C 0.01228 0.61705 0.38267 0.0
C1145 C 0.019 0.5908 0.37692 0.0
C1146 C -0.00145 0.57162 0.37367 0.0
C1147 C 0.97212 0.57898 0.37358 0.0
H1148 H 0.42651 0.47753 0.80287 0.0
H1149 H 0.42672 0.39415 0.78293 0.0
H1150 H 0.45813 0.46988 0.83866 0.0
H1151 H 0.4579 0.38657 0.81887 0.0
H1152 H 0.50601 0.37294 0.88623 0.0
H1153 H 0.46445 0.39042 0.87022 0.0
H1154 H 0.5071 0.45489 0.83231 0.0
H1155 H 0.54879 0.43744 0.84796 0.0
C1156 C 0.43289 0.4575 0.80647 0.0
C1157 C 0.42447 0.43643 0.78993 0.0
C1158 C 0.45085 0.4532 0.82699 0.0
C1159 C 0.46016 0.42767 0.83161 0.0
C1160 C 0.45062 0.4064 0.81599 0.0
C1161 C 0.43307 0.41076 0.79521 0.0
C1162 C 0.50655 0.39143 0.87536 0.0
C1163 C 0.53077 0.40315 0.86729 0.0
C1164 C 0.4827 0.4014 0.86626 0.0
C1165 C 0.4828 0.42344 0.84943 0.0
C1166 C 0.50659 0.43769 0.84512 0.0
C1167 C 0.53051 0.4276 0.85403 0.0
H1168 H 0.95518 0.75541 0.71831 0.0
H1169 H 0.95899 0.8212 0.66393 0.0
H1170 H 0.9186 0.77589 0.74129 0.0
H1171 H 0.92096 0.84053 0.68499 0.0
H1172 H 0.88639 0.88592 0.75544 0.0
H1173 H 0.91245 0.86371 0.72246 0.0
H1174 H 0.87524 0.78863 0.74395 0.0
H1175 H 0.85062 0.81103 0.77856 0.0
C1176 C 0.9478 0.77404 0.71103 0.0
C1177 C 0.96014 0.78699 0.68975 0.0
C1178 C 0.92654 0.78565 0.72388 0.0
C1179 C 0.9167 0.81006 0.71512 0.0
C1180 C 0.92833 0.82216 0.69282 0.0
C1181 C 0.95013 0.81101 0.68062 0.0
C1182 C 0.88318 0.8648 0.75252 0.0
C1183 C 0.86692 0.85007 0.76971 0.0
C1184 C 0.89814 0.85193 0.7335 0.0
C1185 C 0.89656 0.82413 0.7309 0.0
C1186 C 0.87776 0.80989 0.74607 0.0
C1187 C 0.86336 0.82271 0.76562 0.0
H1188 H 0.96685 0.25171 0.45502 0.0
H1189 H 0.96085 0.17742 0.41268 0.0
H1190 H 0.95775 0.22875 0.49658 0.0
H1191 H 0.9509 0.15428 0.45446 0.0
H1192 H 0.95669 0.17916 0.56944 0.0
H1193 H 0.97657 0.19275 0.52749 0.0
H1194 H 0.90933 0.1592 0.48524 0.0
H1195 H 0.88928 0.14557 0.52702 0.0
C1196 C 0.96389 0.23037 0.45478 0.0
C1197 C 0.96441 0.21622 0.4309 0.0
C1198 C 0.9589 0.21723 0.4785 0.0
C1199 C 0.95371 0.18978 0.47863 0.0
C1200 C 0.95491 0.17546 0.45477 0.0
C1201 C 0.96062 0.1886 0.43102 0.0
C1202 C 0.94632 0.17425 0.55122 0.0
C1203 C 0.92116 0.16172 0.55162 0.0
C1204 C 0.95774 0.182 0.52725 0.0
C1205 C 0.94438 0.17709 0.50327 0.0
C1206 C 0.9201 0.16301 0.50349 0.0
C1207 C 0.90855 0.15546 0.52745 0.0
H1208 H 0.54879 0.16832 0.16004 0.0
H1209 H 0.60511 0.23376 0.1663 0.0
H1210 H 0.57472 0.14311 0.19123 0.0
H1211 H 0.63191 0.20802 0.19662 0.0
H1212 H 0.62514 0.18416 0.28543 0.0
H1213 H 0.61902 0.20141 0.24141 0.0
H1214 H 0.61226 0.12158 0.21033 0.0
H1215 H 0.61775 0.10413 0.25509 0.0
C1216 C 0.56735 0.17686 0.16721 0.0
C1217 C 0.57453 0.20327 0.16154 0.0
C1218 C 0.58238 0.16232 0.18499 0.0
C1219 C 0.60498 0.17391 0.19706 0.0
C1220 C 0.61413 0.1989 0.18828 0.0
C1221 C 0.59884 0.21361 0.17089 0.0
C1222 C 0.62275 0.1702 0.26922 0.0
C1223 C 0.6212 0.1428 0.27386 0.0
C1224 C 0.61966 0.18011 0.24377 0.0
C1225 C 0.61497 0.16287 0.22227 0.0
C1226 C 0.61552 0.13536 0.22656 0.0
C1227 C 0.61868 0.12539 0.25217 0.0
H1228 H 0.54269 0.81213 0.88188 0.0
H1229 H 0.46591 0.82948 0.9144 0.0
H1230 H 0.564 0.83127 0.92061 0.0
H1231 H 0.48741 0.84978 0.95299 0.0
H1232 H 0.53032 0.82437 0.03007 0.0
H1233 H 0.50758 0.82557 0.98796 0.0
H1234 H 0.57599 0.86425 0.95247 0.0
H1235 H 0.59929 0.86232 -0.00517 0.0
C1236 C 0.53036 0.82097 0.89689 0.0
C1237 C 0.5026 0.81848 0.89554 0.0
C1238 C 0.54264 0.83218 0.9191 0.0
C1239 C 0.52738 0.84132 0.94032 0.0
C1240 C 0.49968 0.84215 0.93729 0.0
C1241 C 0.48735 0.83075 0.91506 0.0
C1242 C 0.54054 0.83336 0.01341 0.0
C1243 C 0.56687 0.84277 0.01576 0.0
C1244 C 0.52728 0.83443 -0.01076 0.0
C1245 C 0.5399 0.84507 0.96676 0.0
C1246 C 0.5658 0.85567 0.96935 0.0
C1247 C 0.57918 0.85447 -0.0064 0.0
H1248 H 0.91127 0.27579 0.80702 0.0
H1249 H 0.91293 0.20753 0.85822 0.0
H1250 H 0.89123 0.24896 0.77227 0.0
H1251 H 0.89097 0.1807 0.8241 0.0
H1252 H 0.90614 0.13716 0.74481 0.0
H1253 H 0.90757 0.16186 0.78623 0.0
H1254 H 0.86031 0.22298 0.75066 0.0
H1255 H 0.86096 0.19898 0.70874 0.0
C1256 C 0.90615 0.25526 0.81122 0.0
C1257 C 0.91405 0.24355 0.83498 0.0
C1258 C 0.89452 0.23974 0.79128 0.0
C1259 C 0.89003 0.21232 0.79502 0.0
C1260 C 0.89501 0.20148 0.82014 0.0
C1261 C 0.9073 0.21687 0.8398 0.0
C1262 C 0.89574 0.15567 0.74617 0.0
C1263 C 0.8839 0.16655 0.72375 0.0
C1264 C 0.89627 0.16981 0.76996 0.0
C1265 C 0.88438 0.19479 0.77184 0.0
C1266 C 0.8704 0.2043 0.74982 0.0
C1267 C 0.87059 0.19053 0.72586 0.0
H1268 H 0.54101 0.21607 0.559 0.0
H1269 H 0.47854 0.15937 0.53933 0.0
H1270 H 0.56943 0.19624 0.52579 0.0
H1271 H 0.50719 0.13911 0.50664 0.0
H1272 H 0.54813 0.14282 0.42541 0.0
H1273 H 0.52257 0.15462 0.46395 0.0
H1274 H 0.59387 0.15701 0.51151 0.0
H1275 H 0.61989 0.14563 0.47244 0.0
C1276 C 0.53352 0.1991 0.54789 0.0
C1277 C 0.50742 0.18953 0.55143 0.0
C1278 C 0.54988 0.1876 0.52903 0.0
C1279 C 0.54045 0.16627 0.51345 0.0
C1280 C 0.51483 0.15584 0.51803 0.0
C1281 C 0.49844 0.1674 0.53677 0.0
C1282 C 0.55847 0.14567 0.44407 0.0
C1283 C 0.58614 0.14357 0.44576 0.0
C1284 C 0.54371 0.15218 0.46627 0.0
C1285 C 0.55619 0.15672 0.49078 0.0
C1286 C 0.58376 0.15383 0.49278 0.0
C1287 C 0.59861 0.1472 0.47047 0.0
H1288 H 0.57283 0.81106 0.33078 0.0
H1289 H 0.51797 0.75463 0.29531 0.0
H1290 H 0.5979 0.81325 0.28959 0.0
H1291 H 0.5414 0.75833 0.25342 0.0
H1292 H 0.59131 0.8541 0.20924 0.0
H1293 H 0.58442 0.83717 0.2531 0.0
H1294 H 0.57548 0.75758 0.22168 0.0
H1295 H 0.58136 0.77505 0.17688 0.0
C1296 C 0.56668 0.79856 0.3143 0.0
C1297 C 0.54353 0.7829 0.31584 0.0
C1298 C 0.58076 0.79999 0.29062 0.0
C1299 C 0.57105 0.78682 0.26783 0.0
C1300 C 0.54952 0.76881 0.27043 0.0
C1301 C 0.53598 0.76671 0.29442 0.0
C1302 C 0.58817 0.83292 0.21152 0.0
C1303 C 0.58644 0.816 0.18945 0.0
C1304 C 0.5846 0.82306 0.23693 0.0
C1305 C 0.57952 0.79589 0.24113 0.0
C1306 C 0.57908 0.77866 0.21915 0.0
C1307 C 0.58241 0.78865 0.1935 0.0
H1308 H 0.89081 0.79684 0.0665 0.0
H1309 H 0.95988 0.79694 0.01631 0.0
H1310 H 0.87013 0.82893 0.03756 0.0
H1311 H 0.93875 0.82759 0.98635 0.0
H1312 H 0.90226 0.88535 0.93596 0.0
H1313 H 0.92296 0.86913 0.97626 0.0
H1314 H 0.84978 0.82763 -0.00358 0.0
H1315 H 0.82888 0.84549 0.95716 0.0
C1316 C 0.90151 0.80375 0.04919 0.0
C1317 C 0.92674 0.79424 0.04332 0.0
C1318 C 0.88967 0.82208 0.03258 0.0
C1319 C 0.90257 0.83074 0.00942 0.0
C1320 C 0.92831 0.82185 0.00421 0.0
C1321 C 0.94038 0.804 0.02117 0.0
C1322 C 0.89048 0.87349 0.94961 0.0
C1323 C 0.86417 0.86634 0.94353 0.0
C1324 C 0.90235 0.86396 0.97252 0.0
C1325 C 0.88834 0.84639 -0.01076 0.0
C1326 C 0.86125 0.8412 0.98419 0.0
C1327 C 0.84919 0.85135 0.96162 0.0
H1328 H 0.61883 0.93185 0.77775 0.0
H1329 H 0.66907 0.95472 0.71244 0.0
H1330 H 0.65422 0.90534 0.7961 0.0
H1331 H 0.70526 0.93028 0.73158 0.0
H1332 H 0.77085 0.89153 0.77238 0.0
H1333 H 0.72952 0.89544 0.74772 0.0
H1334 H 0.69061 0.92096 0.81941 0.0
H1335 H 0.73124 0.91544 0.84397 0.0
C1336 C 0.63731 0.9305 0.767 0.0
C1337 C 0.64155 0.94528 0.74393 0.0
C1338 C 0.6577 0.91568 0.77762 0.0
C1339 C 0.68299 0.91647 0.76593 0.0
C1340 C 0.68617 0.92908 0.74124 0.0
C1341 C 0.66545 0.94319 0.7302 0.0
C1342 C 0.75326 0.89764 0.7828 0.0
C1343 C 0.75425 0.90359 0.80996 0.0
C1344 C 0.72959 0.89987 0.7687 0.0
C1345 C 0.70663 0.90869 0.78141 0.0
C1346 C 0.70757 0.91355 0.80889 0.0
C1347 C 0.73103 0.91075 0.82302 0.0
H1348 H 0.84467 0.91505 0.54726 0.0
H1349 H 0.81178 0.96849 0.48987 0.0
H1350 H 0.86844 0.95204 0.56833 0.0
H1351 H 0.83433 0.00567 0.51158 0.0
H1352 H 0.87771 0.07029 0.55176 0.0
H1353 H 0.8724 0.03013 0.52523 0.0
H1354 H 0.85261 0.98585 0.59601 0.0
H1355 H 0.85909 0.02568 0.62249 0.0
C1356 C 0.84285 0.93471 0.53897 0.0
C1357 C 0.82609 0.93912 0.51729 0.0
C1358 C 0.85634 0.95589 0.55108 0.0
C1359 C 0.85285 0.98188 0.54203 0.0
C1360 C 0.83768 0.98591 0.51901 0.0
C1361 C 0.82457 0.96464 0.50661 0.0
C1362 C 0.87268 0.05181 0.56164 0.0
C1363 C 0.86834 0.0511 0.5891 0.0
C1364 C 0.8696 0.02885 0.54645 0.0
C1365 C 0.86169 0.00485 0.55839 0.0
C1366 C 0.85903 0.00389 0.58612 0.0
C1367 C 0.86253 0.02677 0.60135 0.0
H1368 H 0.8439 0.0312 0.31309 0.0
H1369 H 0.79408 0.02714 0.24351 0.0
H1370 H 0.81448 0.06328 0.33293 0.0
H1371 H 0.76387 0.0578 0.26371 0.0
H1372 H 0.73289 0.07469 0.37357 0.0
H1373 H 0.77307 0.05919 0.35278 0.0
H1374 H 0.75147 0.09859 0.28006 0.0
H1375 H 0.71041 0.11247 0.30061 0.0
C1376 C 0.82678 0.03745 0.30194 0.0
C1377 C 0.82098 0.02646 0.27697 0.0
C1378 C 0.80983 0.0557 0.31335 0.0
C1379 C 0.78646 0.06283 0.30024 0.0
C1380 C 0.78177 0.05314 0.27441 0.0
C1381 C 0.799 0.03533 0.26281 0.0
C1382 C 0.73714 0.08051 0.35335 0.0
C1383 C 0.7185 0.09427 0.33848 0.0
C1384 C 0.76027 0.07178 0.34139 0.0
C1385 C 0.76535 0.07716 0.31447 0.0
C1386 C 0.74782 0.09334 0.30052 0.0
C1387 C 0.72442 0.10147 0.3123 0.0
H1388 H 0.68045 0.05634 -0.00159 0.0
H1389 H 0.7207 0.05613 0.07417 0.0
H1390 H 0.65493 0.01696 0.0112 0.0
H1391 H 0.69519 0.01654 0.08677 0.0
H1392 H 0.62963 0.95912 0.1098 0.0
H1393 H 0.64826 0.00188 0.09632 0.0
H1394 H 0.66637 0.96964 0.01934 0.0
H1395 H 0.64759 0.92682 0.03258 0.0
C1396 C 0.68379 0.04799 0.01784 0.0
C1397 C 0.70271 0.05928 0.03526 0.0
C1398 C 0.6692 0.0254 0.02508 0.0
C1399 C 0.67311 0.01379 0.04992 0.0
C1400 C 0.69159 0.02534 0.06759 0.0
C1401 C 0.70632 0.04787 0.0603 0.0
C1402 C 0.63719 0.96119 0.08984 0.0
C1403 C 0.63741 0.93944 0.07235 0.0
C1404 C 0.64799 0.98564 0.08223 0.0
C1405 C 0.659 0.98889 0.05696 0.0
C1406 C 0.6579 0.96765 0.03894 0.0
C1407 C 0.64723 0.94312 0.04657 0.0
H1408 H 0.66942 0.08084 0.73605 0.0
H1409 H 0.65583 0.05883 0.65421 0.0
H1410 H 0.71175 0.10148 0.7239 0.0
H1411 H 0.69827 0.07897 0.64227 0.0
H1412 H 0.77066 0.12857 0.6251 0.0
H1413 H 0.72516 0.11962 0.63889 0.0
H1414 H 0.75358 0.08217 0.71003 0.0
H1415 H 0.79903 0.0915 0.69662 0.0
C1416 C 0.67525 0.08073 0.71542 0.0
C1417 C 0.65942 0.06786 0.69614 0.0
C1418 C 0.69955 0.09243 0.70852 0.0
C1419 C 0.70845 0.09155 0.68222 0.0
C1420 C 0.69188 0.08015 0.66269 0.0
C1421 C 0.66759 0.06845 0.66957 0.0
C1422 C 0.76723 0.11863 0.64381 0.0
C1423 C 0.78851 0.11044 0.6596 0.0
C1424 C 0.74115 0.1135 0.65166 0.0
C1425 C 0.73582 0.1001 0.67545 0.0
C1426 C 0.75705 0.09284 0.69174 0.0
C1427 C 0.78313 0.09799 0.68392 0.0
H1428 H 0.68221 0.89988 0.44551 0.0
H1429 H 0.70554 0.95442 0.50775 0.0
H1430 H 0.65334 0.9331 0.42681 0.0
H1431 H 0.67826 0.98819 0.48831 0.0
H1432 H 0.65553 0.00966 0.37693 0.0
H1433 H 0.66476 0.97002 0.40173 0.0
H1434 H 0.64 0.00862 0.47388 0.0
H1435 H 0.63211 0.04902 0.44895 0.0
C1436 C 0.68073 0.91884 0.45545 0.0
C1437 C 0.69641 0.92485 0.47773 0.0
C1438 C 0.66439 0.93796 0.44464 0.0
C1439 C 0.66407 0.96367 0.4555 0.0
C1440 C 0.67783 0.96868 0.47935 0.0
C1441 C 0.69365 0.94932 0.4905 0.0
C1442 C 0.65162 0.00957 0.39801 0.0
C1443 C 0.64364 0.03261 0.41108 0.0
C1444 C 0.65666 0.98665 0.41231 0.0
C1445 C 0.65339 0.98607 0.43998 0.0
C1446 C 0.64335 0.00853 0.45272 0.0
C1447 C 0.63876 0.03166 0.43844 0.0
H1448 H 0.82816 0.888 0.18548 0.0
H1449 H 0.77319 0.91094 0.2463 0.0
H1450 H 0.79213 0.86614 0.16102 0.0
H1451 H 0.737 0.89027 0.22144 0.0
H1452 H 0.6749 0.84647 0.17835 0.0
H1453 H 0.71516 0.85227 0.20457 0.0
H1454 H 0.75655 0.88117 0.13512 0.0
H1455 H 0.71654 0.87398 0.10875 0.0
C1456 C 0.80837 0.88814 0.19371 0.0
C1457 C 0.80334 0.9014 0.2176 0.0
C1458 C 0.78772 0.87575 0.17964 0.0
C1459 C 0.76158 0.8767 0.18903 0.0
C1460 C 0.75689 0.88877 0.21371 0.0
C1461 C 0.77761 0.90082 0.22794 0.0
C1462 C 0.69284 0.85349 0.16864 0.0
C1463 C 0.69266 0.86014 0.14167 0.0
C1464 C 0.71584 0.85697 0.18367 0.0
C1465 C 0.73897 0.86773 0.17214 0.0
C1466 C 0.7392 0.87264 0.14467 0.0
C1467 C 0.71626 0.86865 0.12952 0.0
H1468 H 0.79387 0.10325 0.91845 0.0
H1469 H 0.83023 0.07426 -0.01004 0.0
H1470 H 0.8122 0.0669 0.89359 0.0
H1471 H 0.84921 0.03797 0.96483 0.0
H1472 H 0.81554 0.9589 0.92754 0.0
H1473 H 0.82007 0.00137 0.94962 0.0
H1474 H 0.84604 0.03771 0.87647 0.0
H1475 H 0.84108 -0.005 0.85399 0.0
C1476 C 0.80672 0.08969 0.92863 0.0
C1477 C 0.80986 0.09092 0.95625 0.0
C1478 C 0.81743 0.06893 0.91433 0.0
C1479 C 0.83141 0.04914 0.92748 0.0
C1480 C 0.83791 0.05267 0.95438 0.0
C1481 C 0.82719 0.07352 0.96873 0.0
C1482 C 0.82235 0.97584 0.9161 0.0
C1483 C 0.82739 0.97363 0.88886 0.0
C1484 C 0.82545 0.00015 0.92891 0.0
C1485 C 0.83365 0.02285 0.91482 0.0
C1486 C 0.83967 0.02052 0.88779 0.0
C1487 C 0.8366 -0.00389 0.87492 0.0
H1488 H 0.8077 0.67375 0.92008 0.0
H1489 H 0.72298 0.68249 0.91382 0.0
H1490 H 0.81471 0.71379 0.89444 0.0
H1491 H 0.73003 0.72284 0.88764 0.0
H1492 H 0.82577 0.78144 0.84364 0.0
H1493 H 0.80975 0.73641 0.85224 0.0
H1494 H 0.74755 0.76704 0.90147 0.0
H1495 H 0.76314 0.81213 0.89231 0.0
C1496 C 0.79056 0.68398 0.91272 0.0
C1497 C 0.76483 0.67529 0.91924 0.0
C1498 C 0.79455 0.7068 0.89776 0.0
C1499 C 0.77289 0.72149 0.88907 0.0
C1500 C 0.74706 0.71196 0.89426 0.0
C1501 C 0.74305 0.68888 0.90913 0.0
C1502 C 0.80832 0.77856 0.85583 0.0
C1503 C 0.7961 0.8002 0.86789 0.0
C1504 C 0.79913 0.75281 0.8607 0.0
C1505 C 0.77777 0.74823 0.87794 0.0
C1506 C 0.76401 0.76996 0.888 0.0
C1507 C 0.77306 0.79579 0.88291 0.0
H1508 H 0.2661 0.78635 0.02483 0.0
H1509 H 0.34033 0.83018 0.02078 0.0
H1510 H 0.28514 0.75636 0.057 0.0
H1511 H 0.35896 0.80178 0.05458 0.0
H1512 H 0.39342 0.72171 0.07796 0.0
H1513 H 0.37508 0.75992 0.05648 0.0
H1514 H 0.30132 0.74686 0.09859 0.0
H1515 H 0.31942 0.70724 0.11863 0.0
C1516 C 0.28637 0.78977 0.03131 0.0
C1517 C 0.30203 0.81 0.02006 0.0
C1518 C 0.29726 0.77286 0.05002 0.0
C1519 C 0.32377 0.77644 0.05837 0.0
C1520 C 0.33878 0.79787 0.04813 0.0
C1521 C 0.32814 0.8142 0.02883 0.0
C1522 C 0.37353 0.72742 0.08313 0.0
C1523 C 0.35766 0.7114 0.09958 0.0
C1524 C 0.36294 0.74948 0.07087 0.0
C1525 C 0.33643 0.75631 0.07534 0.0
C1526 C 0.32149 0.74169 0.09397 0.0
C1527 C 0.33189 0.71919 0.1057 0.0
H1528 H 0.8972 0.52851 0.82188 0.0
H1529 H 0.9466 0.46021 0.81478 0.0
H1530 H 0.93178 0.55151 0.84734 0.0
H1531 H 0.98188 0.48355 0.83841 0.0
H1532 H 0.04429 0.52693 0.88125 0.0
H1533 H 0.00226 0.5032 0.87434 0.0
H1534 H 0.971 0.57267 0.83622 0.0
H1535 H 0.01231 0.59666 0.84501 0.0
C1536 C 0.9154 0.51835 0.82609 0.0
C1537 C 0.91943 0.49275 0.81618 0.0
C1538 C 0.93534 0.53157 0.84045 0.0
C1539 C 0.96 0.51975 0.84449 0.0
C1540 C 0.96318 0.49336 0.83607 0.0
C1541 C 0.94298 0.47991 0.82233 0.0
C1542 C 0.0281 0.53718 0.87196 0.0
C1543 C 0.0315 0.56345 0.86336 0.0
C1544 C 0.00408 0.52357 0.8678 0.0
C1545 C 0.98325 0.53571 0.85419 0.0
C1546 C 0.9863 0.56261 0.84706 0.0
C1547 C 0.01009 0.57641 0.8519 0.0
H1548 H 0.19121 0.1518 0.60649 0.0
H1549 H 0.13229 0.1441 0.5446 0.0
H1550 H 0.16918 0.19074 0.6235 0.0
H1551 H 0.11064 0.18336 0.56123 0.0
H1552 H 0.08091 0.26061 0.59258 0.0
H1553 H 0.09 0.21325 0.59503 0.0
H1554 H 0.17401 0.23163 0.59615 0.0
H1555 H 0.16509 0.27854 0.59382 0.0
C1556 C 0.17295 0.15782 0.59718 0.0
C1557 C 0.16391 0.14562 0.57373 0.0
C1558 C 0.1604 0.18011 0.60687 0.0
C1559 C 0.13884 0.19052 0.59307 0.0
C1560 C 0.12737 0.17585 0.57214 0.0
C1561 C 0.13982 0.15338 0.56255 0.0
C1562 C 0.1013 0.25448 0.59366 0.0
C1563 C 0.12233 0.27325 0.5926 0.0
C1564 C 0.10644 0.22743 0.59519 0.0
C1565 C 0.13264 0.21881 0.59609 0.0
C1566 C 0.15356 0.23768 0.59606 0.0
C1567 C 0.14847 0.26458 0.59427 0.0
H1568 H 0.06112 0.9191 0.81109 0.0
H1569 H 0.04565 0.00234 0.82164 0.0
H1570 H 0.01855 0.90766 0.83043 0.0
H1571 H 0.00289 -0.00919 0.84172 0.0
H1572 H 0.94322 0.88978 0.86928 0.0
H1573 H -0.01137 0.907 0.86752 0.0
H1574 H 0.96283 0.97306 0.82045 0.0
H1575 H 0.91742 0.95632 0.82279 0.0
C1576 C 0.04885 0.93495 0.81819 0.0
C1577 C 0.0564 0.9616 0.81439 0.0
C1578 C 0.02452 0.92839 0.82954 0.0
C1579 C 0.00722 0.94836 0.83734 0.0
C1580 C 0.0157 0.97503 0.83551 0.0
C1581 C 0.04018 0.98162 0.82416 0.0
C1582 C 0.94719 0.90818 0.85886 0.0
C1583 C 0.92683 0.92137 0.84564 0.0
C1584 C 0.97318 0.91806 0.85793 0.0
C1585 C 0.97935 0.94119 0.84359 0.0
C1586 C 0.95872 0.95532 0.8319 0.0
C1587 C 0.93269 0.94556 0.83299 0.0
H1588 H 0.70008 0.34067 0.4127 0.0
H1589 H 0.76788 0.29292 0.42928 0.0
H1590 H 0.67954 0.30402 0.38808 0.0
H1591 H 0.74674 0.25552 0.40677 0.0
H1592 H 0.70666 0.18935 0.36534 0.0
H1593 H 0.73014 0.23162 0.37178 0.0
H1594 H 0.65752 0.26593 0.39993 0.0
H1595 H 0.63403 0.22434 0.39143 0.0
C1596 C 0.71067 0.32233 0.41074 0.0
C1597 C 0.73539 0.3194 0.42296 0.0
C1598 C 0.69882 0.3012 0.39692 0.0
C1599 C 0.71103 0.2764 0.39594 0.0
C1600 C 0.73667 0.27422 0.40673 0.0
C1601 C 0.74886 0.29565 0.41982 0.0
C1602 C 0.69576 0.20621 0.37239 0.0
C1603 C 0.66866 0.20367 0.37815 0.0
C1604 C 0.70921 0.2304 0.37628 0.0
C1605 C 0.69598 0.25229 0.38684 0.0
C1606 C 0.66849 0.24986 0.39137 0.0
C1607 C 0.65493 0.2259 0.38674 0.0
H1608 H 0.9237 0.40426 0.68403 0.0
H1609 H 0.92969 0.48987 0.68305 0.0
H1610 H 0.95543 0.40223 0.64817 0.0
H1611 H 0.96187 0.48777 0.64695 0.0
H1612 H 0.05028 0.45275 0.63474 0.0
H1613 H 0.00865 0.47001 0.65034 0.0
H1614 H 0.96569 0.41419 0.60045 0.0
H1615 H 0.00735 0.39661 0.58489 0.0
C1616 C 0.9316 0.42265 0.67592 0.0
C1617 C 0.92465 0.44717 0.68661 0.0
C1618 C 0.94942 0.42154 0.65505 0.0
C1619 C 0.96088 0.44491 0.64464 0.0
C1620 C 0.95313 0.46953 0.65456 0.0
C1621 C 0.93492 0.47067 0.67527 0.0
C1622 C 0.03203 0.44485 0.62622 0.0
C1623 C 0.03201 0.42246 0.6096 0.0
C1624 C 0.00813 0.45492 0.63503 0.0
C1625 C 0.98408 0.44275 0.62721 0.0
C1626 C 0.98409 0.42343 0.60719 0.0
C1627 C 0.00796 0.41332 0.5984 0.0
H1628 H 0.55845 0.47932 0.18487 0.0
H1629 H 0.57525 0.55179 0.22814 0.0
H1630 H 0.52996 0.5034 0.15468 0.0
H1631 H 0.54618 0.57562 0.19865 0.0
H1632 H 0.49356 0.61576 0.14273 0.0
H1633 H 0.53336 0.59235 0.15573 0.0
H1634 H 0.48676 0.51987 0.16367 0.0
H1635 H 0.44752 0.54284 0.1501 0.0
C1636 C 0.55635 0.50045 0.18769 0.0
C1637 C 0.56855 0.51359 0.20919 0.0
C1638 C 0.54005 0.51423 0.17043 0.0
C1639 C 0.53544 0.54131 0.17455 0.0
C1640 C 0.54941 0.55482 0.19477 0.0
C1641 C 0.56589 0.5411 0.21187 0.0
C1642 C 0.49199 0.5947 0.14668 0.0
C1643 C 0.46729 0.58128 0.14598 0.0
C1644 C 0.51475 0.58133 0.15419 0.0
C1645 C 0.51318 0.55433 0.16101 0.0
C1646 C 0.48881 0.54058 0.15832 0.0
C1647 C 0.46616 0.55388 0.15086 0.0
H1648 H 0.59101 0.74264 0.81324 0.0
H1649 H 0.55389 0.66489 0.81961 0.0
H1650 H 0.62377 0.7249 0.78297 0.0
H1651 H 0.5863 0.64733 0.78929 0.0
H1652 H 0.63805 0.61914 0.72883 0.0
H1653 H 0.63111 0.63779 0.77276 0.0
H1654 H 0.61074 0.7125 0.73733 0.0
H1655 H 0.6179 0.69413 0.69363 0.0
C1656 C 0.59036 0.7216 0.80889 0.0
C1657 C 0.56942 0.70527 0.81804 0.0
C1658 C 0.60914 0.71148 0.79158 0.0
C1659 C 0.60722 0.68491 0.78331 0.0
C1660 C 0.58835 0.6679 0.79527 0.0
C1661 C 0.56956 0.67803 0.81248 0.0
C1662 C 0.63285 0.63979 0.73044 0.0
C1663 C 0.62764 0.65493 0.70773 0.0
C1664 C 0.62896 0.65044 0.75562 0.0
C1665 C 0.61996 0.67641 0.75846 0.0
C1666 C 0.61778 0.69243 0.73586 0.0
C1667 C 0.62155 0.68178 0.71072 0.0
H1668 H 0.57881 0.29639 0.08987 0.0
H1669 H 0.52812 0.36374 0.08089 0.0
H1670 H 0.60141 0.3082 0.04914 0.0
H1671 H 0.55137 0.37594 0.04036 0.0
H1672 H 0.55331 0.34525 0.95326 0.0
H1673 H 0.54407 0.3495 -1e-05 0.0
H1674 H 0.62651 0.33705 0.01828 0.0
H1675 H 0.63591 0.33244 0.971 0.0
C1676 C 0.57314 0.31431 0.07976 0.0
C1677 C 0.55097 0.32853 0.088 0.0
C1678 C 0.58629 0.32119 0.05646 0.0
C1679 C 0.57755 0.34249 0.04117 0.0
C1680 C 0.55799 0.35897 0.05147 0.0
C1681 C 0.54475 0.35203 0.07474 0.0
C1682 C 0.56959 0.34352 0.96712 0.0
C1683 C 0.59528 0.33805 0.95838 0.0
C1684 C 0.56435 0.34644 -0.00604 0.0
C1685 C 0.58464 0.34391 0.01281 0.0
C1686 C 0.61053 0.33915 0.00414 0.0
C1687 C 0.61584 0.33638 0.97712 0.0
H1688 H 0.97353 0.2684 0.25489 0.0
H1689 H 0.91148 0.26792 0.31369 0.0
H1690 H 0.94288 0.28641 0.22252 0.0
H1691 H 0.88088 0.28648 0.28123 0.0
H1692 H 0.86516 0.36178 0.22293 0.0
H1693 H 0.88373 0.33364 0.25724 0.0
H1694 H 0.89792 0.27289 0.19903 0.0
H1695 H 0.8792 0.30058 0.16473 0.0
C1696 C 0.95324 0.2719 0.26079 0.0
C1697 C 0.94483 0.2669 0.28675 0.0
C1698 C 0.93572 0.282 0.24223 0.0
C1699 C 0.9096 0.28763 0.24947 0.0
C1700 C 0.90096 0.28216 0.27528 0.0
C1701 C 0.91839 0.27155 0.29376 0.0
C1702 C 0.87149 0.34213 0.21755 0.0
C1703 C 0.87134 0.33373 0.19098 0.0
C1704 C 0.88201 0.32601 0.23722 0.0
C1705 C 0.89256 0.3014 0.23052 0.0
C1706 C 0.89015 0.29198 0.20449 0.0
C1707 C 0.87945 0.30792 0.18491 0.0
H1708 H 0.98454 0.70752 0.56665 0.0
H1709 H 0.92746 0.77014 0.56401 0.0
H1710 H 0.96286 0.68616 0.52886 0.0
H1711 H 0.90584 0.74857 0.52607 0.0
H1712 H 0.94168 0.68267 0.43982 0.0
H1713 H 0.95967 0.70099 0.48083 0.0
H1714 H 0.88076 0.70501 0.51313 0.0
H1715 H 0.86249 0.68652 0.47188 0.0
C1716 C 0.96724 0.71662 0.55819 0.0
C1717 C 0.95787 0.74068 0.56816 0.0
C1718 C 0.95492 0.70441 0.53652 0.0
C1719 C 0.93285 0.71586 0.52455 0.0
C1720 C 0.92277 0.73931 0.5351 0.0
C1721 C 0.93526 0.75171 0.55666 0.0
C1722 C 0.9281 0.68743 0.45562 0.0
C1723 C 0.90065 0.68322 0.45261 0.0
C1724 C 0.93844 0.69772 0.47915 0.0
C1725 C 0.92157 0.70425 0.50007 0.0
C1726 C 0.89412 0.70015 0.49717 0.0
C1727 C 0.88373 0.68951 0.47367 0.0
H1728 H 0.45467 0.30976 0.68947 0.0
H1729 H 0.51382 0.2518 0.6713 0.0
H1730 H 0.48319 0.32781 0.72472 0.0
H1731 H 0.54199 0.26977 0.70654 0.0
H1732 H 0.55909 0.28482 0.79664 0.0
H1733 H 0.53471 0.2699 0.7574 0.0
H1734 H 0.53044 0.35077 0.73028 0.0
H1735 H 0.55518 0.36585 0.76953 0.0
C1736 C 0.47376 0.30099 0.69289 0.0
C1737 C 0.48193 0.27926 0.67775 0.0
C1738 C 0.4901 0.31143 0.71288 0.0
C1739 C 0.51466 0.30006 0.71824 0.0
C1740 C 0.52305 0.27873 0.70281 0.0
C1741 C 0.50692 0.26853 0.68264 0.0
C1742 C 0.55317 0.2994 0.78219 0.0
C1743 C 0.55897 0.32648 0.7861 0.0
C1744 C 0.53935 0.29085 0.75973 0.0
C1745 C 0.53075 0.30925 0.74098 0.0
C1746 C 0.53683 0.33629 0.74461 0.0
C1747 C 0.55109 0.34484 0.76691 0.0
H1748 H 0.92734 0.28271 0.9569 0.0
H1749 H 0.98648 0.34173 0.93451 0.0
H1750 H 0.90326 0.31644 0.98087 0.0
H1751 H 0.96226 0.37553 0.95862 0.0
H1752 H 0.93003 0.40251 0.04432 0.0
H1753 H 0.95303 0.38188 0.00763 0.0
H1754 H 0.87788 0.35886 0.97251 0.0
H1755 H 0.85477 0.37943 0.00929 0.0
C1756 C 0.9352 0.30287 0.95713 0.0
C1757 C 0.95884 0.30958 0.94401 0.0
C1758 C 0.9212 0.32226 0.97046 0.0
C1759 C 0.9307 0.34865 0.97111 0.0
C1760 C 0.95445 0.35536 0.95817 0.0
C1761 C 0.96833 0.336 0.94458 0.0
C1762 C 0.91842 0.39407 0.02817 0.0
C1763 C 0.89068 0.39192 0.02994 0.0
C1764 C 0.93159 0.38228 0.00716 0.0
C1765 C 0.91715 0.36815 0.98777 0.0
C1766 C 0.88938 0.36923 0.98761 0.0
C1767 C 0.87618 0.38124 0.00852 0.0
H1768 H 0.85804 0.70815 0.16113 0.0
H1769 H 0.93356 0.67023 0.15297 0.0
H1770 H 0.84838 0.68107 0.19992 0.0
H1771 H 0.92397 0.64361 0.19206 0.0
H1772 H 0.87897 0.68234 0.28735 0.0
H1773 H 0.8756 0.69243 0.24075 0.0
H1774 H 0.89489 0.61178 0.22102 0.0
H1775 H 0.89806 0.60137 0.26855 0.0
C1776 C 0.87223 0.69351 0.16711 0.0
C1777 C 0.89697 0.692 0.15463 0.0
C1778 C 0.86663 0.67795 0.18923 0.0
C1779 C 0.88576 0.66084 0.19929 0.0
C1780 C 0.90893 0.65672 0.18474 0.0
C1781 C 0.91449 0.67218 0.16246 0.0
C1782 C 0.88242 0.66663 0.27318 0.0
C1783 C 0.8892 0.64117 0.28154 0.0
C1784 C 0.88002 0.67231 0.24645 0.0
C1785 C 0.88459 0.65276 0.22732 0.0
C1786 C 0.89104 0.62708 0.2355 0.0
C1787 C 0.89297 0.6212 0.26254 0.0
H1788 H 0.55756 0.7165 0.4287 0.0
H1789 H 0.48004 0.68229 0.44486 0.0
H1790 H 0.57722 0.68597 0.45985 0.0
H1791 H 0.49988 0.65152 0.47618 0.0
H1792 H 0.60986 0.62362 0.50988 0.0
H1793 H 0.58594 0.63859 0.47082 0.0
H1794 H 0.5207 0.66158 0.52034 0.0
H1795 H 0.54434 0.64648 0.55928 0.0
C1796 C 0.54478 0.70216 0.43862 0.0
C1797 C 0.51725 0.70201 0.43468 0.0
C1798 C 0.55607 0.68446 0.45624 0.0
C1799 C 0.54004 0.66639 0.47043 0.0
C1800 C 0.51263 0.66535 0.46555 0.0
C1801 C 0.50132 0.68293 0.44767 0.0
C1802 C 0.59013 0.63121 0.51236 0.0
C1803 C 0.57922 0.63443 0.53771 0.0
C1804 C 0.57649 0.63983 0.49 0.0
C1805 C 0.55166 0.65154 0.49264 0.0
C1806 C 0.53977 0.65253 0.5177 0.0
C1807 C 0.55344 0.64411 0.54004 0.0
H1808 H 0.83174 0.52629 0.66008 0.0
H1809 H 0.82873 0.57855 0.72788 0.0
H1810 H 0.80054 0.55359 0.63685 0.0
H1811 H 0.79807 0.60668 0.70408 0.0
H1812 H 0.70813 0.59777 0.68253 0.0
H1813 H 0.75277 0.5923 0.69823 0.0
H1814 H 0.78132 0.59251 0.61756 0.0
H1815 H 0.73588 0.59746 0.6016 0.0
C1816 C 0.82513 0.54418 0.66968 0.0
C1817 C 0.83173 0.54973 0.69618 0.0
C1818 C 0.80744 0.56008 0.65618 0.0
C1819 C 0.7962 0.58185 0.66896 0.0
C1820 C 0.80588 0.58955 0.69404 0.0
C1821 C 0.82342 0.57347 0.70767 0.0
C1822 C 0.72388 0.59693 0.66805 0.0
C1823 C 0.71838 0.59719 0.64079 0.0
C1824 C 0.74967 0.59432 0.67711 0.0
C1825 C 0.77067 0.59187 0.65914 0.0
C1826 C 0.76548 0.59412 0.63186 0.0
C1827 C 0.7395 0.59684 0.62274 0.0
H1828 H 0.71847 0.53066 0.976 0.0
H1829 H 0.76054 0.53276 0.90154 0.0
H1830 H 0.69307 0.49181 0.96101 0.0
H1831 H 0.73497 0.49373 0.88659 0.0
H1832 H 0.6587 0.4486 0.85937 0.0
H1833 H 0.68595 0.48578 0.8755 0.0
H1834 H 0.70018 0.44383 0.94839 0.0
H1835 H 0.6729 0.40655 0.93241 0.0
C1836 C 0.72246 0.52268 0.95652 0.0
C1837 C 0.7414 0.53482 0.93987 0.0
C1838 C 0.70799 0.50039 0.94802 0.0
C1839 C 0.71197 0.48998 0.92261 0.0
C1840 C 0.73137 0.50164 0.90618 0.0
C1841 C 0.74611 0.52379 0.91481 0.0
C1842 C 0.66741 0.44737 0.87894 0.0
C1843 C 0.66362 0.42463 0.89463 0.0
C1844 C 0.68324 0.46853 0.88801 0.0
C1845 C 0.69531 0.46749 0.91304 0.0
C1846 C 0.69104 0.44509 0.92901 0.0
C1847 C 0.67545 0.42378 0.91984 0.0
H1848 H 0.66481 0.36599 0.25178 0.0
H1849 H 0.64198 0.43078 0.20137 0.0
H1850 H 0.6966 0.35226 0.21849 0.0
H1851 H 0.67445 0.418 0.16901 0.0
H1852 H 0.74153 0.3994 0.11753 0.0
H1853 H 0.69827 0.39165 0.13821 0.0
H1854 H 0.73719 0.3761 0.21281 0.0
H1855 H 0.77968 0.38295 0.19234 0.0
C1856 C 0.66613 0.37693 0.23338 0.0
C1857 C 0.65175 0.4001 0.22966 0.0
C1858 C 0.68434 0.3691 0.21432 0.0
C1859 C 0.68878 0.38466 0.1916 0.0
C1860 C 0.67175 0.40563 0.18633 0.0
C1861 C 0.65328 0.41318 0.20514 0.0
C1862 C 0.74072 0.39397 0.13826 0.0
C1863 C 0.76401 0.39248 0.15344 0.0
C1864 C 0.71599 0.38942 0.15005 0.0
C1865 C 0.71422 0.38328 0.17717 0.0
C1866 C 0.73765 0.38029 0.19179 0.0
C1867 C 0.76217 0.38477 0.18009 0.0
H1868 H 0.7481 0.4735 0.46379 0.0
H1869 H 0.81692 0.43081 0.48923 0.0
H1870 H 0.77624 0.51254 0.45515 0.0
H1871 H 0.845 0.46984 0.48039 0.0
H1872 H 0.87749 0.53206 0.41503 0.0
H1873 H 0.85658 0.49383 0.43647 0.0
H1874 H 0.80665 0.54572 0.48125 0.0
H1875 H 0.82748 0.58406 0.46008 0.0
C1876 C 0.76918 0.47252 0.46758 0.0
C1877 C 0.78037 0.4492 0.47704 0.0
C1878 C 0.78521 0.49487 0.46295 0.0
C1879 C 0.81268 0.49412 0.46742 0.0
C1880 C 0.82386 0.47084 0.47694 0.0
C1881 C 0.80779 0.4486 0.48191 0.0
C1882 C 0.86269 0.53542 0.43008 0.0
C1883 C 0.85363 0.56106 0.43527 0.0
C1884 C 0.85076 0.51352 0.44237 0.0
C1885 C 0.82963 0.51699 0.45992 0.0
C1886 C 0.82261 0.54266 0.46734 0.0
C1887 C 0.83468 0.56457 0.45528 0.0
H1888 H 0.79944 0.40961 0.72931 0.0
H1889 H 0.78755 0.45171 0.80286 0.0
H1890 H 0.76367 0.37805 0.74101 0.0
H1891 H 0.75242 0.41972 0.81469 0.0
H1892 H 0.6681 0.37123 0.77478 0.0
H1893 H 0.70799 0.39072 0.75478 0.0
H1894 H 0.75489 0.36207 0.81969 0.0
H1895 H 0.71547 0.34206 0.8396 0.0
C1896 C 0.78928 0.41198 0.74796 0.0
C1897 C 0.79615 0.43302 0.76521 0.0
C1898 C 0.76896 0.39398 0.75459 0.0
C1899 C 0.75582 0.39647 0.77879 0.0
C1900 C 0.76269 0.41739 0.79604 0.0
C1901 C 0.78255 0.43568 0.78918 0.0
C1902 C 0.68703 0.3681 0.78427 0.0
C1903 C 0.68848 0.35575 0.80918 0.0
C1904 C 0.7098 0.37924 0.77278 0.0
C1905 C 0.7341 0.37817 0.78612 0.0
C1906 C 0.73614 0.3632 0.8093 0.0
C1907 C 0.71353 0.35173 0.82059 0.0
H1908 H 0.86803 0.59013 0.0157 0.0
H1909 H 0.79362 0.59642 0.05712 0.0
H1910 H 0.88516 0.56356 0.05188 0.0
H1911 H 0.80998 0.56878 0.09212 0.0
H1912 H 0.82976 0.50165 0.1405 0.0
H1913 H 0.83541 0.54764 0.12532 0.0
H1914 H 0.8701 0.5191 0.05261 0.0
H1915 H 0.86494 0.47426 0.06785 0.0
C1916 C 0.85558 0.58644 0.0328 0.0
C1917 C 0.82903 0.59407 0.03293 0.0
C1918 C 0.86538 0.57127 0.05356 0.0
C1919 C 0.84845 0.56283 0.07416 0.0
C1920 C 0.82351 0.5744 0.0764 0.0
C1921 C 0.81392 0.59002 0.05598 0.0
C1922 C 0.83908 0.50552 0.12156 0.0
C1923 C 0.84593 0.48453 0.10483 0.0
C1924 C 0.84244 0.53175 0.11291 0.0
C1925 C 0.85287 0.53717 0.08757 0.0
C1926 C 0.86218 0.51602 0.07229 0.0
C1927 C 0.85866 0.49009 0.08078 0.0
H1928 H 0.68653 0.49089 0.35501 0.0
H1929 H 0.68147 0.52336 0.27605 0.0
H1930 H 0.72309 0.52201 0.36511 0.0
H1931 H 0.71814 0.55412 0.28615 0.0
H1932 H 0.80756 0.57427 0.30961 0.0
H1933 H 0.76824 0.54771 0.29754 0.0
H1934 H 0.72895 0.57383 0.36845 0.0
H1935 H 0.768 0.60063 0.38048 0.0
C1936 C 0.69321 0.50463 0.33986 0.0
C1937 C 0.68114 0.50472 0.31478 0.0
C1938 C 0.71396 0.5225 0.34568 0.0
C1939 C 0.72324 0.54043 0.32639 0.0
C1940 C 0.71132 0.54043 0.30129 0.0
C1941 C 0.69031 0.52289 0.29561 0.0
C1942 C 0.79036 0.57473 0.32237 0.0
C1943 C 0.7909 0.58947 0.34602 0.0
C1944 C 0.76791 0.55956 0.31545 0.0
C1945 C 0.74582 0.55858 0.33227 0.0
C1946 C 0.74592 0.5741 0.35535 0.0
C1947 C 0.76817 0.5896 0.36205 0.0
H1948 H 0.64211 0.41113 0.50211 0.0
H1949 H 0.68347 0.40103 0.57629 0.0
H1950 H 0.61592 0.44588 0.52207 0.0
H1951 H 0.6579 0.43597 0.59596 0.0
H1952 H 0.63601 0.53443 0.54663 0.0
H1953 H 0.63644 0.48919 0.53066 0.0
H1954 H 0.61944 0.46053 0.60953 0.0
H1955 H 0.6195 0.50607 0.62578 0.0
C1956 C 0.64492 0.4156 0.52294 0.0
C1957 C 0.66549 0.40413 0.53741 0.0
C1958 C 0.62999 0.43558 0.53433 0.0
C1959 C 0.6355 0.44429 0.56027 0.0
C1960 C 0.65323 0.42991 0.57586 0.0
C1961 C 0.6681 0.40994 0.56451 0.0
C1962 C 0.63191 0.51857 0.56054 0.0
C1963 C 0.62851 0.52387 0.58761 0.0
C1964 C 0.63174 0.49254 0.55129 0.0
C1965 C 0.62814 0.47121 0.56889 0.0
C1966 C 0.62255 0.47657 0.59557 0.0
C1967 C 0.62271 0.50266 0.60486 0.0
H1968 H 0.7119 0.82333 0.54029 0.0
H1969 H 0.78297 0.78668 0.56921 0.0
H1970 H 0.68518 0.7874 0.55909 0.0
H1971 H 0.75605 0.75099 0.58846 0.0
H1972 H 0.70381 0.67577 0.5755 0.0
H1973 H 0.73082 0.71497 0.56667 0.0
H1974 H 0.67028 0.76417 0.59984 0.0
H1975 H 0.64269 0.72464 0.60844 0.0
C1976 C 0.72181 0.80784 0.55102 0.0
C1977 C 0.74961 0.8076 0.55285 0.0
C1978 C 0.70644 0.78738 0.562 0.0
C1979 C 0.71857 0.76631 0.57501 0.0
C1980 C 0.74624 0.76683 0.57816 0.0
C1981 C 0.76163 0.78728 0.56717 0.0
C1982 C 0.69616 0.69488 0.58104 0.0
C1983 C 0.67092 0.69708 0.59242 0.0
C1984 C 0.71185 0.71735 0.57625 0.0
C1985 C 0.7027 0.7426 0.58268 0.0
C1986 C 0.67772 0.7449 0.59457 0.0
C1987 C 0.66198 0.7223 0.59952 0.0
H1988 H 0.15695 0.6467 0.4218 0.0
H1989 H 0.21598 0.64368 0.36016 0.0
H1990 H 0.13038 0.67522 0.39447 0.0
H1991 H 0.18903 0.67202 0.33244 0.0
H1992 H 0.09129 0.73681 0.35393 0.0
H1993 H 0.10617 0.69124 0.35606 0.0
H1994 H 0.1868 0.71892 0.34358 0.0
H1995 H 0.17201 0.76411 0.34107 0.0
C1996 C 0.16375 0.65127 0.40197 0.0
C1997 C 0.18899 0.64388 0.39351 0.0
C1998 C 0.14835 0.66746 0.3861 0.0
C1999 C 0.15801 0.67654 0.36157 0.0
C2000 C 0.18141 0.66582 0.35153 0.0
C2001 C 0.19683 0.6496 0.36743 0.0
C2002 C 0.11207 0.73307 0.35074 0.0
C2003 C 0.13064 0.75414 0.34829 0.0
C2004 C 0.12056 0.70693 0.35193 0.0
C2005 C 0.1477 0.70151 0.3506 0.0
C2006 C 0.16573 0.7223 0.34468 0.0
C2007 C 0.15728 0.74837 0.34358 0.0
H2008 H 0.53242 0.01066 0.68853 0.0
H2009 H 0.51327 0.97555 0.76431 0.0
H2010 H 0.49868 0.9823 0.66735 0.0
H2011 H 0.47996 0.947 0.74309 0.0
H2012 H 0.40292 0.92449 0.7003 0.0
H2013 H 0.43709 0.95183 0.72112 0.0
H2014 H 0.49087 0.93399 0.65745 0.0
H2015 H 0.45621 0.90673 0.63601 0.0
C2016 C 0.52088 -0.00296 0.70067 0.0
C2017 C 0.52541 -0.00467 0.72807 0.0
C2018 C 0.50183 0.98061 0.6885 0.0
C2019 C 0.48692 0.96234 0.70356 0.0
C2020 C 0.49109 0.96103 0.73103 0.0
C2021 C 0.51014 0.97738 0.74317 0.0
C2022 C 0.42203 0.92622 0.69068 0.0
C2023 C 0.42682 0.9135 0.6664 0.0
C2024 C 0.44166 0.94181 0.70274 0.0
C2025 C 0.46656 0.94507 0.69086 0.0
C2026 C 0.47166 0.932 0.66684 0.0
C2027 C 0.45196 0.91623 0.65473 0.0
H2028 H 0.28398 0.31841 0.90438 0.0
H2029 H 0.36234 0.30684 0.9364 0.0
H2030 H 0.29526 0.2921 0.86556 0.0
H2031 H 0.37342 0.28046 0.89804 0.0
H2032 H 0.39287 0.22823 0.83853 0.0
H2033 H 0.38009 0.27287 0.85059 0.0
H2034 H 0.30027 0.24413 0.86539 0.0
H2035 H 0.31287 0.19982 0.85294 0.0
C2036 C 0.30379 0.31076 0.90289 0.0
C2037 C 0.32206 0.3141 0.9238 0.0
C2038 C 0.31025 0.29578 0.88059 0.0
C2039 C 0.33513 0.28399 0.87875 0.0
C2040 C 0.35415 0.28946 0.89857 0.0
C2041 C 0.34768 0.3043 0.92085 0.0
C2042 C 0.37224 0.23168 0.84292 0.0
C2043 C 0.35411 0.21035 0.84599 0.0
C2044 C 0.36498 0.25729 0.85004 0.0
C2045 C 0.33953 0.26176 0.8601 0.0
C2046 C 0.32018 0.24136 0.85813 0.0
C2047 C 0.32744 0.2158 0.85106 0.0
H2048 H 0.44085 0.48258 0.64499 0.0
H2049 H 0.41638 0.54286 0.70025 0.0
H2050 H 0.47651 0.51192 0.6297 0.0
H2051 H 0.45245 0.572 0.68511 0.0
H2052 H 0.51938 0.62006 0.64239 0.0
H2053 H 0.47621 0.59702 0.64678 0.0
H2054 H 0.51596 0.52307 0.65857 0.0
H2055 H 0.55843 0.54551 0.65428 0.0
C2056 C 0.44275 0.50225 0.65352 0.0
C2057 C 0.42628 0.51016 0.67431 0.0
C2058 C 0.46312 0.51904 0.64472 0.0
C2059 C 0.46745 0.54394 0.65664 0.0
C2060 C 0.44947 0.55289 0.67561 0.0
C2061 C 0.42896 0.53611 0.68438 0.0
C2062 C 0.51878 0.59888 0.64587 0.0
C2063 C 0.54232 0.58466 0.64814 0.0
C2064 C 0.49416 0.58577 0.64832 0.0
C2065 C 0.49286 0.55827 0.65256 0.0
C2066 C 0.51638 0.54419 0.6547 0.0
C2067 C 0.54077 0.55719 0.65259 0.0
H2068 H 0.75659 0.22605 0.97618 0.0
H2069 H 0.76052 0.18356 0.05029 0.0
H2070 H 0.77808 0.26462 -0.00287 0.0
H2071 H 0.78221 0.22213 0.07108 0.0
H2072 H 0.84748 0.28878 0.08533 0.0
H2073 H 0.82721 0.24906 0.06495 0.0
H2074 H 0.76342 0.29601 0.03484 0.0
H2075 H 0.78325 0.33543 0.05509 0.0
C2076 C 0.76206 0.22498 -0.00309 0.0
C2077 C 0.75681 0.20196 0.01168 0.0
C2078 C 0.77429 0.24698 0.00884 0.0
C2079 C 0.78176 0.24615 0.03562 0.0
C2080 C 0.77678 0.22306 0.05034 0.0
C2081 C 0.76421 0.20117 0.0385 0.0
C2082 C 0.82911 0.29055 0.0744 0.0
C2083 C 0.81694 0.31517 0.07185 0.0
C2084 C 0.81753 0.26789 0.06288 0.0
C2085 C 0.79391 0.2697 0.04831 0.0
C2086 C 0.78178 0.29425 0.04579 0.0
C2087 C 0.79308 0.31673 0.05756 0.0
H2088 H 0.59545 0.03023 0.85563 0.0
H2089 H 0.58852 0.10552 0.81603 0.0
H2090 H 0.5678 0.04606 0.89155 0.0
H2091 H 0.56065 0.1211 0.85133 0.0
H2092 H 0.49488 0.14108 0.89648 0.0
H2093 H 0.54173 0.13108 0.89346 0.0
H2094 H 0.52117 0.04808 0.88284 0.0
H2095 H 0.47476 0.05791 0.88647 0.0
C2096 C 0.58896 0.05054 0.8551 0.0
C2097 C 0.59303 0.06626 0.83247 0.0
C2098 C 0.57306 0.05959 0.87569 0.0
C2099 C 0.56098 0.08435 0.87374 0.0
C2100 C 0.56919 0.10173 0.85343 0.0
C2101 C 0.58507 0.0927 0.83291 0.0
C2102 C 0.50042 0.12056 0.8944 0.0
C2103 C 0.48105 0.10041 0.89047 0.0
C2104 C 0.52731 0.11485 0.89275 0.0
C2105 C 0.53523 0.08896 0.88697 0.0
C2106 C 0.51596 0.06834 0.88713 0.0
C2107 C 0.48913 0.07401 0.88889 0.0
H2108 H 0.90671 0.95081 0.33132 0.0
H2109 H 0.91377 0.86891 0.30758 0.0
H2110 H 0.93657 0.94336 0.36851 0.0
H2111 H 0.94352 0.86158 0.3444 0.0
H2112 H 0.02965 0.92485 0.3711 0.0
H2113 H 0.98436 0.93703 0.36263 0.0
H2114 H 0.95661 0.86083 0.39143 0.0
H2115 H 0.00215 0.84834 0.39961 0.0
C2116 C 0.91402 0.93104 0.33444 0.0
C2117 C 0.90856 0.9106 0.31608 0.0
C2118 C 0.93104 0.9268 0.3558 0.0
C2119 C 0.94267 0.90202 0.35923 0.0
C2120 C 0.9348 0.8809 0.34251 0.0
C2121 C 0.918 0.88517 0.3211 0.0
C2122 C 0.01392 0.91105 0.37671 0.0
C2123 C 0.01957 0.8851 0.38464 0.0
C2124 C 0.98779 0.91814 0.37203 0.0
C2125 C 0.96702 0.89941 0.37535 0.0
C2126 C 0.97237 0.87534 0.38795 0.0
C2127 C -0.00148 0.86821 0.39261 0.0
H2128 H 0.46108 0.31156 0.19354 0.0
H2129 H 0.43674 0.22885 0.19437 0.0
H2130 H 0.42184 0.3227 0.21839 0.0
H2131 H 0.39695 0.24017 0.21912 0.0
H2132 H 0.34712 0.3432 0.25127 0.0
H2133 H 0.37327 0.32439 0.21575 0.0
H2134 H 0.38899 0.25622 0.26441 0.0
H2135 H 0.3624 0.27451 0.29962 0.0
C2136 C 0.44725 0.29576 0.19893 0.0
C2137 C 0.45207 0.26932 0.19222 0.0
C2138 C 0.42453 0.30219 0.21281 0.0
C2139 C 0.40611 0.28233 0.22031 0.0
C2140 C 0.4108 0.25586 0.21349 0.0
C2141 C 0.4336 0.2494 0.19948 0.0
C2142 C 0.35539 0.32379 0.25409 0.0
C2143 C 0.35352 0.31082 0.27863 0.0
C2144 C 0.37046 0.31309 0.23378 0.0
C2145 C 0.38386 0.28933 0.23773 0.0
C2146 C 0.37906 0.27468 0.26087 0.0
C2147 C 0.36389 0.2853 0.28114 0.0
H2148 H 0.48883 0.70838 0.93513 0.0
H2149 H 0.41973 0.67414 0.89675 0.0
H2150 H 0.47902 0.68275 0.97491 0.0
H2151 H 0.41095 0.64663 0.93547 0.0
H2152 H 0.3773 0.64491 0.01896 0.0
H2153 H 0.39279 0.65686 0.9756 0.0
H2154 H 0.47368 0.64451 0.00047 0.0
H2155 H 0.45796 0.63387 0.04498 0.0
C2156 C 0.47204 0.6946 0.93503 0.0
C2157 C 0.45467 0.69343 0.91337 0.0
C2158 C 0.46649 0.67972 0.95769 0.0
C2159 C 0.44381 0.66296 0.9587 0.0
C2160 C 0.42802 0.66001 0.93581 0.0
C2161 C 0.43308 0.67556 0.91356 0.0
C2162 C 0.3984 0.64431 0.01522 0.0
C2163 C 0.41642 0.6388 0.03559 0.0
C2164 C 0.40735 0.65094 -0.00993 0.0
C2165 C 0.43459 0.65176 0.98435 0.0
C2166 C 0.4526 0.64458 0.00428 0.0
C2167 C 0.4436 0.63834 0.02975 0.0
H2168 H 0.04044 0.66489 0.66792 0.0
H2169 H 0.10277 0.72388 0.67963 0.0
H2170 H 0.06062 0.63685 0.7011 0.0
H2171 H 0.12348 0.6954 0.71222 0.0
H2172 H 0.10831 0.67006 0.79948 0.0
H2173 H 0.10437 0.68934 0.75597 0.0
H2174 H 0.09653 0.61109 0.72137 0.0
H2175 H 0.10023 0.59151 0.76561 0.0
C2176 C 0.059 0.67142 0.67685 0.0
C2177 C 0.06962 0.69689 0.67187 0.0
C2178 C 0.07069 0.65524 0.69575 0.0
C2179 C 0.09326 0.66426 0.70973 0.0
C2180 C 0.1057 0.68827 0.70219 0.0
C2181 C 0.09387 0.70455 0.68354 0.0
C2182 C 0.106 0.65686 0.78263 0.0
C2183 C 0.10405 0.62929 0.78601 0.0
C2184 C 0.10418 0.66793 0.75756 0.0
C2185 C 0.10026 0.65172 0.73518 0.0
C2186 C 0.0995 0.62403 0.73832 0.0
C2187 C 0.10158 0.61286 0.76357 0.0
H2188 H -0.00444 0.35385 0.39683 0.0
H2189 H 0.06218 0.30277 0.38525 0.0
H2190 H 0.01935 0.37644 0.43266 0.0
H2191 H 0.08545 0.32471 0.42142 0.0
H2192 H 0.12161 0.36157 0.49227 0.0
H2193 H 0.10537 0.36083 0.44666 0.0
H2194 H 0.02485 0.35586 0.47541 0.0
H2195 H 0.04083 0.35718 0.52054 0.0
C2196 C 0.01557 0.34796 0.40133 0.0
C2197 C 0.0266 0.32586 0.38889 0.0
C2198 C 0.02915 0.36085 0.42195 0.0
C2199 C 0.05386 0.35174 0.43046 0.0
C2200 C 0.06637 0.33214 0.41551 0.0
C2201 C 0.05288 0.31938 0.39483 0.0
C2202 C 0.10043 0.36074 0.48881 0.0
C2203 C 0.08254 0.35883 0.51006 0.0
C2204 C 0.09116 0.3604 0.46269 0.0
C2205 C 0.06385 0.35823 0.45738 0.0
C2206 C 0.046 0.35798 0.4787 0.0
C2207 C 0.05522 0.3583 0.50468 0.0
H2208 H 0.41247 0.71499 0.34248 0.0
H2209 H 0.4304 0.77847 0.28774 0.0
H2210 H 0.39595 0.6875 0.306 0.0
H2211 H 0.41553 0.75076 0.25122 0.0
H2212 H 0.41407 0.63507 0.23338 0.0
H2213 H 0.41611 0.66354 0.27246 0.0
H2214 H 0.38409 0.72784 0.22664 0.0
H2215 H 0.38396 0.69979 0.18741 0.0
C2216 C 0.41243 0.7232 0.32267 0.0
C2217 C 0.42293 0.74875 0.31786 0.0
C2218 C 0.40326 0.70736 0.30172 0.0
C2219 C 0.40494 0.71657 0.2755 0.0
C2220 C 0.41362 0.74292 0.27107 0.0
C2221 C 0.42225 0.75892 0.29207 0.0
C2222 C 0.40737 0.65526 0.23187 0.0
C2223 C 0.39942 0.6655 0.20744 0.0
C2224 C 0.40823 0.67156 0.25429 0.0
C2225 C 0.4005 0.69821 0.25275 0.0
C2226 C 0.39093 0.70774 0.22849 0.0
C2227 C 0.39076 0.69168 0.20601 0.0
H2228 H 0.98184 0.65052 0.05759 0.0
H2229 H 0.0466 0.70721 0.06732 0.0
H2230 H 0.00947 0.62362 0.02913 0.0
H2231 H 0.07389 0.68084 0.03819 0.0
H2232 H 0.1199 0.62877 0.9849 0.0
H2233 H 0.09685 0.64043 0.02581 0.0
H2234 H 0.02192 0.63422 0.98437 0.0
H2235 H 0.04462 0.62222 0.94418 0.0
C2236 C 0.00211 0.65701 0.05399 0.0
C2237 C 0.0119 0.68124 0.06412 0.0
C2238 C 0.01792 0.64162 0.0377 0.0
C2239 C 0.04367 0.65038 0.03099 0.0
C2240 C 0.0542 0.67345 0.04306 0.0
C2241 C 0.03846 0.6887 0.05957 0.0
C2242 C 0.09847 0.62935 0.98481 0.0
C2243 C 0.08408 0.62508 0.96127 0.0
C2244 C 0.08531 0.63609 0.00815 0.0
C2245 C 0.05758 0.63837 0.0083 0.0
C2246 C 0.04323 0.63233 0.98512 0.0
C2247 C 0.05631 0.62578 0.96191 0.0
H2248 H 0.03312 0.26042 0.8001 0.0
H2249 H 0.03666 0.34367 0.82024 0.0
H2250 H 0.05459 0.27039 0.75759 0.0
H2251 H 0.05772 0.35358 0.77821 0.0
H2252 H 0.10677 0.36514 0.70701 0.0
H2253 H 0.09707 0.34783 0.75085 0.0
H2254 H 0.03788 0.2943 0.71743 0.0
H2255 H 0.04789 0.31125 0.67325 0.0
C2256 C 0.03912 0.28068 0.79572 0.0
C2257 C 0.0331 0.30133 0.81324 0.0
C2258 C 0.05115 0.28641 0.77138 0.0
C2259 C 0.05765 0.31277 0.76455 0.0
C2260 C 0.05319 0.33306 0.78297 0.0
C2261 C 0.04098 0.3274 0.80699 0.0
C2262 C 0.09176 0.34958 0.70889 0.0
C2263 C 0.07769 0.33996 0.68665 0.0
C2264 C 0.08632 0.3396 0.73403 0.0
C2265 C 0.06661 0.31987 0.73756 0.0
C2266 C 0.05338 0.30933 0.71525 0.0
C2267 C 0.0589 0.31926 0.69 0.0
H2268 H 0.37489 0.26661 0.55796 0.0
H2269 H 0.44487 0.31755 0.55722 0.0
H2270 H 0.35372 0.29541 0.5262 0.0
H2271 H 0.42335 0.34689 0.5259 0.0
H2272 H 0.31767 0.34883 0.46962 0.0
H2273 H 0.33588 0.33801 0.51308 0.0
H2274 H 0.41461 0.33818 0.47962 0.0
H2275 H 0.39663 0.34944 0.43674 0.0
C2276 C 0.38551 0.2843 0.55145 0.0
C2277 C 0.41174 0.2895 0.55951 0.0
C2278 C 0.37325 0.30103 0.5335 0.0
C2279 C 0.38697 0.32332 0.52337 0.0
C2280 C 0.41245 0.32963 0.53309 0.0
C2281 C 0.42478 0.31281 0.55094 0.0
C2282 C 0.33893 0.34735 0.47182 0.0
C2283 C 0.3557 0.34928 0.44972 0.0
C2284 C 0.34933 0.34106 0.49664 0.0
C2285 C 0.3766 0.33681 0.49966 0.0
C2286 C 0.39353 0.34142 0.47806 0.0
C2287 C 0.38318 0.34757 0.45335 0.0
H2288 H 0.17295 0.44844 0.21909 0.0
H2289 H 0.11717 0.43174 0.28167 0.0
H2290 H 0.20312 0.41649 0.23767 0.0
H2291 H 0.14622 0.3981 0.29935 0.0
H2292 H 0.22287 0.39195 0.3487 0.0
H2293 H 0.18415 0.4049 0.32426 0.0
H2294 H 0.2189 0.37588 0.25178 0.0
H2295 H 0.25856 0.36421 0.27638 0.0
C2296 C 0.16673 0.43695 0.23617 0.0
C2297 C 0.14321 0.44269 0.24936 0.0
C2298 C 0.1839 0.41847 0.24681 0.0
C2299 C 0.17744 0.40513 0.27051 0.0
C2300 C 0.15226 0.40868 0.28166 0.0
C2301 C 0.13551 0.42773 0.27147 0.0
C2302 C 0.22206 0.38784 0.32764 0.0
C2303 C 0.24396 0.37767 0.31435 0.0
C2304 C 0.19963 0.39503 0.31353 0.0
C2305 C 0.19842 0.39178 0.28585 0.0
C2306 C 0.21942 0.3793 0.27295 0.0
C2307 C 0.24211 0.37255 0.28704 0.0
H2308 H 0.31391 0.40401 0.06451 0.0
H2309 H 0.33755 0.4362 0.98873 0.0
H2310 H 0.33151 0.44353 0.08654 0.0
H2311 H 0.35622 0.47537 0.01089 0.0
H2312 H 0.37516 0.51443 0.1214 0.0
H2313 H 0.36854 0.47179 0.09896 0.0
H2314 H 0.33549 0.51195 0.0314 0.0
H2315 H 0.34273 0.55412 0.05317 0.0
C2316 C 0.32343 0.4193 0.05261 0.0
C2317 C 0.32395 0.4173 0.02487 0.0
C2318 C 0.33372 0.44187 0.06528 0.0
C2319 C 0.34495 0.46276 0.05045 0.0
C2320 C 0.34712 0.45987 0.02282 0.0
C2321 C 0.33654 0.43742 0.01012 0.0
C2322 C 0.36666 0.51409 0.10169 0.0
C2323 C 0.35935 0.53769 0.08917 0.0
C2324 C 0.36285 0.48969 0.08885 0.0
C2325 C 0.3516 0.48848 0.06334 0.0
C2326 C 0.34475 0.51214 0.05077 0.0
C2327 C 0.34867 0.5364 0.06345 0.0
H2328 H 0.30211 0.55592 0.73687 0.0
H2329 H 0.32731 0.52582 0.81271 0.0
H2330 H 0.26854 0.58202 0.75899 0.0
H2331 H 0.29338 0.55098 0.83458 0.0
H2332 H 0.23005 0.59731 0.87088 0.0
H2333 H 0.27179 0.59113 0.84749 0.0
H2334 H 0.2282 0.56494 0.77804 0.0
H2335 H 0.18696 0.57172 0.80084 0.0
C2336 C 0.3008 0.55527 0.75827 0.0
C2337 C 0.31681 0.53834 0.77302 0.0
C2338 C 0.28158 0.57015 0.77093 0.0
C2339 C 0.27794 0.56813 0.79847 0.0
C2340 C 0.29568 0.55313 0.81337 0.0
C2341 C 0.31498 0.53843 0.80076 0.0
C2342 C 0.22945 0.59066 0.85048 0.0
C2343 C 0.20521 0.58442 0.83794 0.0
C2344 C 0.25333 0.58715 0.83709 0.0
C2345 C 0.25332 0.57741 0.81097 0.0
C2346 C 0.22901 0.57281 0.79801 0.0
C2347 C 0.20527 0.57631 0.8113 0.0
H2348 H 0.23607 0.56532 0.55539 0.0
H2349 H 0.201 0.55193 0.47813 0.0
H2350 H 0.21132 0.52718 0.57257 0.0
H2351 H 0.17613 0.51371 0.49552 0.0
H2352 H 0.16892 0.42818 0.53143 0.0
H2353 H 0.18859 0.46852 0.51266 0.0
H2354 H 0.16426 0.51277 0.58138 0.0
H2355 H 0.14472 0.47259 0.60033 0.0
C2356 C 0.22296 0.55435 0.54211 0.0
C2357 C 0.22057 0.56157 0.51537 0.0
C2358 C 0.20867 0.53262 0.55201 0.0
C2359 C 0.19185 0.51756 0.53534 0.0
C2360 C 0.18914 0.52493 0.5087 0.0
C2361 C 0.20327 0.54685 0.49883 0.0
C2362 C 0.1676 0.44653 0.54248 0.0
C2363 C 0.15546 0.44709 0.56749 0.0
C2364 C 0.17871 0.46963 0.53163 0.0
C2365 C 0.17802 0.49366 0.54567 0.0
C2366 C 0.16529 0.4944 0.57031 0.0
C2367 C 0.15403 0.47139 0.58107 0.0
H2368 H 0.15283 0.58974 0.17597 0.0
H2369 H 0.19178 0.55501 0.24318 0.0
H2370 H 0.19423 0.61185 0.16319 0.0
H2371 H 0.2337 0.57522 0.22946 0.0
H2372 H 0.27467 0.60321 0.12374 0.0
H2373 H 0.23126 0.5961 0.14257 0.0
H2374 H 0.2635 0.60997 0.22106 0.0
H2375 H 0.30765 0.61555 0.20196 0.0
C2376 C 0.17031 0.58708 0.18808 0.0
C2377 C 0.16941 0.57051 0.21027 0.0
C2378 C 0.19407 0.59953 0.18071 0.0
C2379 C 0.21756 0.59476 0.19483 0.0
C2380 C 0.21609 0.57957 0.21815 0.0
C2381 C 0.19211 0.56781 0.22597 0.0
C2382 C 0.27248 0.60508 0.145 0.0
C2383 C 0.29457 0.60963 0.16141 0.0
C2384 C 0.24743 0.60127 0.15587 0.0
C2385 C 0.2437 0.60247 0.18344 0.0
C2386 C 0.26568 0.60841 0.19979 0.0
C2387 C 0.29095 0.6117 0.18889 0.0
H2388 H 0.19304 0.41501 0.00477 0.0
H2389 H 0.21114 0.39854 0.92286 0.0
H2390 H 0.16273 0.4494 -0.00921 0.0
H2391 H 0.18142 0.43301 0.90898 0.0
H2392 H 0.12334 0.49222 0.88699 0.0
H2393 H 0.13697 0.45043 0.90617 0.0
H2394 H 0.17291 0.49295 0.9719 0.0
H2395 H 0.15889 0.53459 0.95316 0.0
C2396 C 0.19015 0.41836 0.9838 0.0
C2397 C 0.20477 0.40442 0.96491 0.0
C2398 C 0.17288 0.4381 0.97581 0.0
C2399 C 0.1699 0.44411 0.94881 0.0
C2400 C 0.18305 0.42874 0.92992 0.0
C2401 C 0.2003 0.40911 0.93789 0.0
C2402 C 0.13367 0.49264 0.90581 0.0
C2403 C 0.14055 0.51683 0.91823 0.0
C2404 C 0.1415 0.46867 0.91676 0.0
C2405 C 0.15634 0.46842 0.94033 0.0
C2406 C 0.16134 0.49242 0.9538 0.0
C2407 C 0.15349 0.51637 0.9429 0.0
H2408 H 0.32034 0.41817 0.66863 0.0
H2409 H 0.29231 0.40334 0.74812 0.0
H2410 H 0.28422 0.39134 0.6509 0.0
H2411 H 0.25635 0.37532 0.73032 0.0
H2412 H 0.21765 0.34744 0.61915 0.0
H2413 H 0.25909 0.3516 0.64394 0.0
H2414 H 0.21749 0.38888 0.70831 0.0
H2415 H 0.17635 0.38374 0.68428 0.0
C2416 C 0.30679 0.40859 0.68238 0.0
C2417 C 0.30867 0.41345 0.70971 0.0
C2418 C 0.28621 0.39282 0.67221 0.0
C2419 C 0.26712 0.3814 0.68916 0.0
C2420 C 0.27045 0.38428 0.71671 0.0
C2421 C 0.29101 0.40031 0.72691 0.0
C2422 C 0.21729 0.35583 0.6389 0.0
C2423 C 0.1939 0.36611 0.64936 0.0
C2424 C 0.24104 0.35827 0.65308 0.0
C2425 C 0.24175 0.37118 0.67782 0.0
C2426 C 0.21781 0.37879 0.68937 0.0
C2427 C 0.19415 0.3762 0.67534 0.0
H2428 H 0.34182 0.56217 0.46924 0.0
H2429 H 0.30902 0.58724 0.39452 0.0
H2430 H 0.35405 0.5202 0.44908 0.0
H2431 H 0.32064 0.54532 0.37463 0.0
H2432 H 0.33915 0.46488 0.34486 0.0
H2433 H 0.34937 0.50937 0.36152 0.0
H2434 H 0.31958 0.48656 0.4385 0.0
H2435 H 0.30979 0.4422 0.42217 0.0
C2436 C 0.33827 0.5592 0.44826 0.0
C2437 C 0.32374 0.57749 0.4336 0.0
C2438 C 0.34504 0.53509 0.43679 0.0
C2439 C 0.33745 0.52918 0.41058 0.0
C2440 C 0.32659 0.54917 0.39493 0.0
C2441 C 0.31979 0.57319 0.40638 0.0
C2442 C 0.33484 0.46934 0.36537 0.0
C2443 C 0.32322 0.45009 0.38207 0.0
C2444 C 0.34092 0.49475 0.37492 0.0
C2445 C 0.33555 0.50137 0.40135 0.0
C2446 C 0.32457 0.48192 0.41819 0.0
C2447 C 0.3185 0.45658 0.40868 0.0
H2448 H 0.28049 0.16601 0.46831 0.0
H2449 H 0.19791 0.17393 0.4477 0.0
H2450 H 0.29248 0.20054 0.43696 0.0
H2451 H 0.21006 0.20878 0.41591 0.0
H2452 H 0.31227 0.25234 0.37109 0.0
H2453 H 0.29333 0.2115 0.38922 0.0
H2454 H 0.22851 0.25517 0.42205 0.0
H2455 H 0.24714 0.29604 0.40361 0.0
C2456 C 0.26491 0.17497 0.45683 0.0
C2457 C 0.23826 0.1675 0.46059 0.0
C2458 C 0.27181 0.19455 0.43864 0.0
C2459 C 0.25219 0.20722 0.42389 0.0
C2460 C 0.22553 0.1993 0.42708 0.0
C2461 C 0.21862 0.17941 0.4452 0.0
C2462 C 0.29368 0.25319 0.38169 0.0
C2463 C 0.28156 0.27752 0.38651 0.0
C2464 C 0.28285 0.2298 0.39203 0.0
C2465 C 0.25977 0.23032 0.40744 0.0
C2466 C 0.24631 0.25421 0.41018 0.0
C2467 C 0.25709 0.27764 0.39974 0.0
H2468 H 0.81825 0.35061 0.56641 0.0
H2469 H 0.75572 0.29517 0.54447 0.0
H2470 H 0.833 0.32049 0.60081 0.0
H2471 H 0.77152 0.2639 0.57713 0.0
H2472 H 0.80397 0.20645 0.63016 0.0
H2473 H 0.78166 0.24711 0.61833 0.0
H2474 H 0.85744 0.28293 0.59714 0.0
H2475 H 0.87946 0.24314 0.61065 0.0
C2476 C 0.80758 0.33196 0.56925 0.0
C2477 C 0.78628 0.32473 0.55274 0.0
C2478 C 0.81604 0.31465 0.5888 0.0
C2479 C 0.804 0.28938 0.59135 0.0
C2480 C 0.78126 0.28319 0.57605 0.0
C2481 C 0.77229 0.30093 0.55708 0.0
C2482 C 0.81577 0.22342 0.62369 0.0
C2483 C 0.84329 0.22164 0.62073 0.0
C2484 C 0.80303 0.24664 0.61677 0.0
C2485 C 0.81757 0.26814 0.60604 0.0
C2486 C 0.84543 0.26701 0.60547 0.0
C2487 C 0.85818 0.24405 0.61303 0.0
H2488 H 0.44991 0.97354 0.31795 0.0
H2489 H 0.40572 0.04575 0.31889 0.0
H2490 H 0.48868 -0.00252 0.3346 0.0
H2491 H 0.444 0.06964 0.33736 0.0
H2492 H 0.52585 0.10909 0.3248 0.0
H2493 H 0.4834 0.08588 0.31994 0.0
H2494 H 0.51297 0.02059 0.36606 0.0
H2495 H 0.55594 0.04326 0.36922 0.0
C2496 C 0.44823 -0.00562 0.32273 0.0
C2497 C 0.42501 0.00791 0.31682 0.0
C2498 C 0.47049 0.00819 0.33239 0.0
C2499 C 0.46976 0.03573 0.3369 0.0
C2500 C 0.44561 0.04867 0.3333 0.0
C2501 C 0.42357 0.03496 0.32301 0.0
C2502 C 0.52311 0.08987 0.33402 0.0
C2503 C 0.54419 0.07775 0.34698 0.0
C2504 C 0.49868 0.07659 0.33151 0.0
C2505 C 0.49463 0.05116 0.34249 0.0
C2506 C 0.51546 0.03979 0.35676 0.0
C2507 C 0.54007 0.05279 0.35868 0.0
H2508 H 0.73136 0.6593 0.06731 0.0
H2509 H 0.66583 0.64534 0.01349 0.0
H2510 H 0.70533 0.69132 0.09158 0.0
H2511 H 0.64009 0.67796 0.03724 0.0
H2512 H 0.59938 0.74093 0.08359 0.0
H2513 H 0.61888 0.69745 0.07694 0.0
H2514 H 0.69663 0.73484 0.0726 0.0
H2515 H 0.67745 0.77778 0.07948 0.0
C2516 C 0.71114 0.6626 0.0611 0.0
C2517 C 0.7008 0.65051 0.03813 0.0
C2518 C 0.69627 0.68089 0.07497 0.0
C2519 C 0.67102 0.68763 0.06582 0.0
C2520 C 0.65953 0.67319 0.04473 0.0
C2521 C 0.67432 0.65462 0.03102 0.0
C2522 C 0.62067 0.73973 0.08161 0.0
C2523 C 0.63687 0.76279 0.08161 0.0
C2524 C 0.63178 0.71488 0.07785 0.0
C2525 C 0.65924 0.71275 0.07439 0.0
C2526 C 0.67544 0.73573 0.07569 0.0
C2527 C 0.66439 0.76044 0.07922 0.0
H2528 H 0.55917 0.41122 0.34105 0.0
H2529 H 0.52051 0.48119 0.31296 0.0
H2530 H 0.51682 0.39318 0.35656 0.0
H2531 H 0.47794 0.46262 0.32651 0.0
H2532 H 0.40291 0.42772 0.35664 0.0
H2533 H 0.44687 0.44857 0.35691 0.0
H2534 H 0.48071 0.37329 0.33591 0.0
H2535 H 0.4369 0.35234 0.3376 0.0
C2536 C 0.54156 0.42284 0.33856 0.0
C2537 C 0.54291 0.44742 0.3257 0.0
C2538 C 0.51725 0.41243 0.34712 0.0
C2539 C 0.49374 0.42607 0.34223 0.0
C2540 C 0.49552 0.45155 0.33092 0.0
C2541 C 0.51994 0.46225 0.32302 0.0
C2542 C 0.41989 0.41569 0.35237 0.0
C2543 C 0.41666 0.38855 0.34679 0.0
C2544 C 0.44507 0.42761 0.35242 0.0
C2545 C 0.46747 0.41277 0.34615 0.0
C2546 C 0.46412 0.38536 0.34133 0.0
C2547 C 0.43899 0.37332 0.34199 0.0
H2548 H 0.18454 0.82398 0.9188 0.0
H2549 H 0.25848 0.79601 0.88759 0.0
H2550 H 0.16176 0.78449 0.90218 0.0
H2551 H 0.23542 0.75651 0.87032 0.0
H2552 H 0.12428 0.71131 0.86832 0.0
H2553 H 0.14681 0.75463 0.86708 0.0
H2554 H 0.21829 0.71944 0.89656 0.0
H2555 H 0.19617 0.67635 0.89734 0.0
C2556 C 0.19579 0.80976 0.90763 0.0
C2557 C 0.22341 0.81277 0.90506 0.0
C2558 C 0.18266 0.78716 0.89791 0.0
C2559 C 0.19689 0.7671 0.88542 0.0
C2560 C 0.22405 0.77143 0.88037 0.0
C2561 C 0.23721 0.79414 0.89007 0.0
C2562 C 0.14488 0.71279 0.87427 0.0
C2563 C 0.15826 0.6904 0.88335 0.0
C2564 C 0.15779 0.7376 0.8735 0.0
C2565 C 0.18434 0.74048 0.8817 0.0
C2566 C 0.19798 0.71789 0.88967 0.0
C2567 C 0.18512 0.69317 0.89048 0.0
H2568 H 0.39474 0.91169 0.1826 0.0
H2569 H 0.45048 0.97379 0.20492 0.0
H2570 H 0.42423 0.89776 0.14728 0.0
H2571 H 0.48121 0.95875 0.17132 0.0
H2572 H 0.50084 0.85261 0.13117 0.0
H2573 H 0.46207 0.87366 0.1483 0.0
H2574 H 0.49622 0.95067 0.12887 0.0
H2575 H 0.53608 0.92927 0.11321 0.0
C2576 C 0.41339 0.92233 0.17974 0.0
C2577 C 0.42083 0.94338 0.19645 0.0
C2578 C 0.43033 0.91436 0.15966 0.0
C2579 C 0.45544 0.92667 0.15674 0.0
C2580 C 0.46199 0.9489 0.17263 0.0
C2581 C 0.44462 0.95739 0.19214 0.0
C2582 C 0.49984 0.874 0.12997 0.0
C2583 C 0.52168 0.88936 0.12153 0.0
C2584 C 0.4774 0.88619 0.13963 0.0
C2585 C 0.47613 0.91402 0.14053 0.0
C2586 C 0.49689 0.92924 0.12929 0.0
C2587 C 0.51964 0.91702 0.12018 0.0
H2588 H 0.08277 0.06742 0.72507 0.0
H2589 H 0.0657 0.00114 0.67294 0.0
H2590 H 0.04946 0.09318 0.70244 0.0
H2591 H 0.03301 0.02724 0.64965 0.0
H2592 H 0.98835 0.13612 0.65591 0.0
H2593 H 0.03066 0.11477 0.66374 0.0
H2594 H -0.00991 0.03845 0.66625 0.0
H2595 H 0.94837 0.05941 0.65792 0.0
C2596 C 0.0725 0.05867 0.70822 0.0
C2597 C 0.07629 0.03209 0.70116 0.0
C2598 C 0.05352 0.0735 0.69511 0.0
C2599 C 0.03822 0.06203 0.67461 0.0
C2600 C 0.04405 0.03637 0.66582 0.0
C2601 C 0.0628 0.02145 0.6791 0.0
C2602 C -0.0114 0.11475 0.65775 0.0
C2603 C 0.96494 0.09951 0.65672 0.0
C2604 C 0.0128 0.10255 0.66225 0.0
C2605 C 0.01374 0.07494 0.66561 0.0
C2606 C -0.00979 0.05971 0.66332 0.0
C2607 C 0.96615 0.07182 0.65891 0.0
loop_
_geom_bond_atom_site_label_1
_geom_bond_atom_site_label_2
_geom_bond_distance
_geom_bond_site_symmetry_2
_ccdc_geom_bond_type
C0 O1 1.306 . S
C0 O3 1.160 . S
O1 C0 1.306 . S
O1 Cd2 2.228 . S
Cd2 O1 2.228 . S
Cd2 O6 2.273 . S
Cd2 O10 2.277 . S
O3 C0 1.160 . S
O3 Cd4 2.203 1_655 S
Cd4 O3 2.203 1_455 S
Cd4 O6 2.411 1_455 S
Cd4 O7 2.333 . S
Cd4 O8 2.352 . S
Cd4 O12 2.277 . S
Cd4 O13 2.356 . S
C5 O10 1.209 1_455 S
C5 O12 1.226 . S
O6 Cd2 2.273 . S
O6 Cd4 2.411 1_655 S
O6 C9 1.320 . S
O7 Cd4 2.333 . S
O7 C9 1.214 1_455 S
O8 Cd4 2.352 . S
O8 C11 1.258 . S
C9 O6 1.320 . S
C9 O7 1.214 1_655 S
O10 Cd2 2.277 . S
O10 C5 1.209 1_655 S
C11 O8 1.258 . S
C11 O13 1.282 . S
O12 Cd4 2.277 . S
O12 C5 1.226 . S
O13 Cd4 2.356 . S
O13 C11 1.282 . S
C14 O15 1.306 . S
C14 O17 1.160 . S
O15 C14 1.306 . S
O15 Cd16 2.228 1_455 S
Cd16 O15 2.228 1_655 S
Cd16 O20 2.273 . S
Cd16 O24 2.277 . S
O17 C14 1.160 . S
O17 Cd18 2.203 . S
Cd18 O17 2.203 . S
Cd18 O20 2.411 1_455 S
Cd18 O21 2.333 1_455 S
Cd18 O22 2.352 . S
Cd18 O26 2.277 1_455 S
Cd18 O27 2.356 . S
C19 O24 1.209 . S
C19 O26 1.226 . S
O20 Cd16 2.273 . S
O20 Cd18 2.411 1_655 S
O20 C23 1.320 . S
O21 Cd18 2.333 1_655 S
O21 C23 1.214 . S
O22 Cd18 2.352 . S
O22 C25 1.258 . S
C23 O20 1.320 . S
C23 O21 1.214 . S
O24 Cd16 2.277 . S
O24 C19 1.209 . S
C25 O22 1.258 . S
C25 O27 1.282 . S
O26 Cd18 2.277 1_655 S
O26 C19 1.226 . S
O27 Cd18 2.356 . S
O27 C25 1.282 . S
C28 O29 1.306 . S
C28 O31 1.160 . S
O29 C28 1.306 . S
O29 Cd30 2.228 . S
Cd30 O29 2.228 . S
Cd30 O34 2.273 . S
Cd30 O38 2.277 . S
O31 C28 1.160 . S
O31 Cd32 2.203 . S
Cd32 O31 2.203 . S
Cd32 O34 2.411 . S
Cd32 O35 2.333 . S
Cd32 O36 2.352 . S
Cd32 O40 2.277 . S
Cd32 O41 2.356 . S
C33 O38 1.209 . S
C33 O40 1.226 . S
O34 Cd30 2.273 . S
O34 Cd32 2.411 . S
O34 C37 1.320 . S
O35 Cd32 2.333 . S
O35 C37 1.214 . S
O36 Cd32 2.352 . S
O36 C39 1.258 . S
C37 O34 1.320 . S
C37 O35 1.214 . S
O38 Cd30 2.277 . S
O38 C33 1.209 . S
C39 O36 1.258 . S
C39 O41 1.282 . S
O40 Cd32 2.277 . S
O40 C33 1.226 . S
O41 Cd32 2.356 . S
O41 C39 1.282 . S
C42 O43 1.306 . S
C42 O45 1.160 . S
O43 C42 1.306 . S
O43 Cd44 2.228 . S
Cd44 O43 2.228 . S
Cd44 O48 2.273 . S
Cd44 O52 2.277 . S
O45 C42 1.160 . S
O45 Cd46 2.203 . S
Cd46 O45 2.203 . S
Cd46 O48 2.411 . S
Cd46 O49 2.333 . S
Cd46 O50 2.352 . S
Cd46 O54 2.277 . S
Cd46 O55 2.356 . S
C47 O52 1.209 . S
C47 O54 1.226 . S
O48 Cd44 2.273 . S
O48 Cd46 2.411 . S
O48 C51 1.320 . S
O49 Cd46 2.333 . S
O49 C51 1.214 . S
O50 Cd46 2.352 . S
O50 C53 1.258 . S
C51 O48 1.320 . S
C51 O49 1.214 . S
O52 Cd44 2.277 . S
O52 C47 1.209 . S
C53 O50 1.258 . S
C53 O55 1.282 . S
O54 Cd46 2.277 . S
O54 C47 1.226 . S
O55 Cd46 2.356 . S
O55 C53 1.282 . S
C56 O57 1.306 . S
C56 O59 1.160 . S
O57 C56 1.306 . S
O57 Cd58 2.228 . S
Cd58 O57 2.228 . S
Cd58 O62 2.273 . S
Cd58 O66 2.277 . S
O59 C56 1.160 . S
O59 Cd60 2.203 1_655 S
Cd60 O59 2.203 1_455 S
Cd60 O62 2.411 1_455 S
Cd60 O63 2.333 . S
Cd60 O64 2.352 . S
Cd60 O68 2.277 . S
Cd60 O69 2.356 . S
C61 O66 1.209 1_455 S
C61 O68 1.226 . S
O62 Cd58 2.273 . S
O62 Cd60 2.411 1_655 S
O62 C65 1.320 . S
O63 Cd60 2.333 . S
O63 C65 1.214 1_455 S
O64 Cd60 2.352 . S
O64 C67 1.258 . S
C65 O62 1.320 . S
C65 O63 1.214 1_655 S
O66 Cd58 2.277 . S
O66 C61 1.209 1_655 S
C67 O64 1.258 . S
C67 O69 1.282 . S
O68 Cd60 2.277 . S
O68 C61 1.226 . S
O69 Cd60 2.356 . S
O69 C67 1.282 . S
C70 O71 1.306 . S
C70 O73 1.160 . S
O71 C70 1.306 . S
O71 Cd72 2.228 . S
Cd72 O71 2.228 . S
Cd72 O76 2.273 . S
Cd72 O80 2.277 . S
O73 C70 1.160 . S
O73 Cd74 2.203 . S
Cd74 O73 2.203 . S
Cd74 O76 2.411 . S
Cd74 O77 2.333 . S
Cd74 O78 2.352 . S
Cd74 O82 2.277 . S
Cd74 O83 2.356 . S
C75 O80 1.209 . S
C75 O82 1.226 . S
O76 Cd72 2.273 . S
O76 Cd74 2.411 . S
O76 C79 1.320 . S
O77 Cd74 2.333 . S
O77 C79 1.214 . S
O78 Cd74 2.352 . S
O78 C81 1.258 . S
C79 O76 1.320 . S
C79 O77 1.214 . S
O80 Cd72 2.277 . S
O80 C75 1.209 . S
C81 O78 1.258 . S
C81 O83 1.282 . S
O82 Cd74 2.277 . S
O82 C75 1.226 . S
O83 Cd74 2.356 . S
O83 C81 1.282 . S
C84 O85 1.306 . S
C84 O87 1.160 . S
O85 C84 1.306 . S
O85 Cd86 2.228 . S
Cd86 O85 2.228 . S
Cd86 O90 2.273 . S
Cd86 O94 2.277 . S
O87 C84 1.160 . S
O87 Cd88 2.203 . S
Cd88 O87 2.203 . S
Cd88 O90 2.411 . S
Cd88 O91 2.333 . S
Cd88 O92 2.352 . S
Cd88 O96 2.277 . S
Cd88 O97 2.356 . S
C89 O94 1.209 . S
C89 O96 1.226 . S
O90 Cd86 2.273 . S
O90 Cd88 2.411 . S
O90 C93 1.320 . S
O91 Cd88 2.333 . S
O91 C93 1.214 . S
O92 Cd88 2.352 . S
O92 C95 1.258 . S
C93 O90 1.320 . S
C93 O91 1.214 . S
O94 Cd86 2.277 . S
O94 C89 1.209 . S
C95 O92 1.258 . S
C95 O97 1.282 . S
O96 Cd88 2.277 . S
O96 C89 1.226 . S
O97 Cd88 2.356 . S
O97 C95 1.282 . S
C98 O99 1.306 . S
C98 O101 1.160 . S
O99 C98 1.306 . S
O99 Cd100 2.228 1_455 S
Cd100 O99 2.228 1_655 S
Cd100 O104 2.273 . S
Cd100 O108 2.277 . S
O101 C98 1.160 . S
O101 Cd102 2.203 . S
Cd102 O101 2.203 . S
Cd102 O104 2.411 1_455 S
Cd102 O105 2.333 1_455 S
Cd102 O106 2.352 . S
Cd102 O110 2.277 1_455 S
Cd102 O111 2.356 . S
C103 O108 1.209 . S
C103 O110 1.226 . S
O104 Cd100 2.273 . S
O104 Cd102 2.411 1_655 S
O104 C107 1.320 . S
O105 Cd102 2.333 1_655 S
O105 C107 1.214 . S
O106 Cd102 2.352 . S
O106 C109 1.258 . S
C107 O104 1.320 . S
C107 O105 1.214 . S
O108 Cd100 2.277 . S
O108 C103 1.209 . S
C109 O106 1.258 . S
C109 O111 1.282 . S
O110 Cd102 2.277 1_655 S
O110 C103 1.226 . S
O111 Cd102 2.356 . S
O111 C109 1.282 . S
C112 O113 1.306 . S
C112 O115 1.135 1_565 S
O113 C112 1.306 . S
O113 Cd114 2.228 . S
Cd114 O113 2.228 . S
Cd114 O118 2.273 . S
Cd114 O122 2.277 1_565 S
O115 C112 1.135 1_545 S
O115 Cd116 2.211 . S
Cd116 O115 2.211 . S
Cd116 O118 2.411 1_545 S
Cd116 O119 2.333 . S
Cd116 O120 2.352 . S
Cd116 O124 2.277 . S
Cd116 O125 2.356 . S
C117 O122 1.209 . S
C117 O124 1.226 . S
O118 Cd114 2.273 . S
O118 Cd116 2.411 1_565 S
O118 C121 1.320 . S
O119 Cd116 2.333 . S
O119 C121 1.214 1_545 S
O120 Cd116 2.352 . S
O120 C123 1.258 . S
C121 O118 1.320 . S
C121 O119 1.214 1_565 S
O122 Cd114 2.277 1_545 S
O122 C117 1.209 . S
C123 O120 1.258 . S
C123 O125 1.282 . S
O124 Cd116 2.277 . S
O124 C117 1.226 . S
O125 Cd116 2.356 . S
O125 C123 1.282 . S
C126 O127 1.306 . S
C126 O129 1.160 . S
O127 C126 1.306 . S
O127 Cd128 2.228 . S
Cd128 O127 2.228 . S
Cd128 O132 2.273 . S
Cd128 O136 2.277 . S
O129 C126 1.160 . S
O129 Cd130 2.203 . S
Cd130 O129 2.203 . S
Cd130 O132 2.411 . S
Cd130 O133 2.333 . S
Cd130 O134 2.352 . S
Cd130 O138 2.277 . S
Cd130 O139 2.356 . S
C131 O136 1.209 . S
C131 O138 1.226 . S
O132 Cd128 2.273 . S
O132 Cd130 2.411 . S
O132 C135 1.320 . S
O133 Cd130 2.333 . S
O133 C135 1.214 . S
O134 Cd130 2.352 . S
O134 C137 1.258 . S
C135 O132 1.320 . S
C135 O133 1.214 . S
O136 Cd128 2.277 . S
O136 C131 1.209 . S
C137 O134 1.258 . S
C137 O139 1.282 . S
O138 Cd130 2.277 . S
O138 C131 1.226 . S
O139 Cd130 2.356 . S
O139 C137 1.282 . S
C140 O141 1.306 . S
C140 O143 1.160 . S
O141 C140 1.306 . S
O141 Cd142 2.228 . S
Cd142 O141 2.228 . S
Cd142 O146 2.273 . S
Cd142 O150 2.277 . S
O143 C140 1.160 . S
O143 Cd144 2.203 1_565 S
Cd144 O143 2.203 1_545 S
Cd144 O146 2.411 1_545 S
Cd144 O147 2.333 . S
Cd144 O148 2.352 . S
Cd144 O152 2.277 . S
Cd144 O153 2.356 . S
C145 O150 1.209 1_545 S
C145 O152 1.226 . S
O146 Cd142 2.273 . S
O146 Cd144 2.411 1_565 S
O146 C149 1.320 . S
O147 Cd144 2.333 . S
O147 C149 1.214 1_545 S
O148 Cd144 2.352 . S
O148 C151 1.258 . S
C149 O146 1.320 . S
C149 O147 1.214 1_565 S
O150 Cd142 2.277 . S
O150 C145 1.209 1_565 S
C151 O148 1.258 . S
C151 O153 1.282 . S
O152 Cd144 2.277 . S
O152 C145 1.226 . S
O153 Cd144 2.356 . S
O153 C151 1.282 . S
C154 O155 1.306 . S
C154 O157 1.160 . S
O155 C154 1.306 . S
O155 Cd156 2.228 1_554 S
Cd156 O155 2.228 1_556 S
Cd156 O160 2.273 . S
Cd156 O164 2.277 . S
O157 C154 1.160 . S
O157 Cd158 2.203 . S
Cd158 O157 2.203 . S
Cd158 O160 2.411 1_554 S
Cd158 O161 2.333 1_554 S
Cd158 O162 2.352 . S
Cd158 O166 2.277 1_554 S
Cd158 O167 2.356 . S
C159 O164 1.209 . S
C159 O166 1.226 . S
O160 Cd156 2.273 . S
O160 Cd158 2.411 1_556 S
O160 C163 1.320 . S
O161 Cd158 2.333 1_556 S
O161 C163 1.214 . S
O162 Cd158 2.352 . S
O162 C165 1.258 . S
C163 O160 1.320 . S
C163 O161 1.214 . S
O164 Cd156 2.277 . S
O164 C159 1.209 . S
C165 O162 1.258 . S
C165 O167 1.282 . S
O166 Cd158 2.277 1_556 S
O166 C159 1.226 . S
O167 Cd158 2.356 . S
O167 C165 1.282 . S
C168 O169 1.306 . S
C168 O171 1.160 . S
O169 C168 1.306 . S
O169 Cd170 2.228 . S
Cd170 O169 2.228 . S
Cd170 O174 2.273 . S
Cd170 O178 2.277 . S
O171 C168 1.160 . S
O171 Cd172 2.203 1_554 S
Cd172 O171 2.203 1_556 S
Cd172 O174 2.411 1_556 S
Cd172 O175 2.333 . S
Cd172 O176 2.348 1_556 S
Cd172 O180 2.277 . S
Cd172 O181 2.356 . S
C173 O178 1.209 1_556 S
C173 O180 1.226 . S
O174 Cd170 2.273 . S
O174 Cd172 2.411 1_554 S
O174 C177 1.320 . S
O175 Cd172 2.333 . S
O175 C177 1.214 1_556 S
O176 Cd172 2.348 1_554 S
O176 C179 1.235 1_554 S
C177 O174 1.320 . S
C177 O175 1.214 1_554 S
O178 Cd170 2.277 . S
O178 C173 1.209 1_554 S
C179 O176 1.235 1_556 S
C179 O181 1.282 . S
O180 Cd172 2.277 . S
O180 C173 1.226 . S
O181 Cd172 2.356 . S
O181 C179 1.282 . S
C182 O183 1.306 . S
C182 O185 1.160 . S
O183 C182 1.306 . S
O183 Cd184 2.228 . S
Cd184 O183 2.228 . S
Cd184 O188 2.273 . S
Cd184 O192 2.277 . S
O185 C182 1.160 . S
O185 Cd186 2.203 1_554 S
Cd186 O185 2.203 1_556 S
Cd186 O188 2.411 1_556 S
Cd186 O189 2.333 . S
Cd186 O190 2.352 . S
Cd186 O194 2.277 . S
Cd186 O195 2.356 . S
C187 O192 1.209 1_556 S
C187 O194 1.226 . S
O188 Cd184 2.273 . S
O188 Cd186 2.411 1_554 S
O188 C191 1.320 . S
O189 Cd186 2.333 . S
O189 C191 1.214 1_556 S
O190 Cd186 2.352 . S
O190 C193 1.258 . S
C191 O188 1.320 . S
C191 O189 1.214 1_554 S
O192 Cd184 2.277 . S
O192 C187 1.209 1_554 S
C193 O190 1.258 . S
C193 O195 1.282 . S
O194 Cd186 2.277 . S
O194 C187 1.226 . S
O195 Cd186 2.356 . S
O195 C193 1.282 . S
C196 O197 1.306 . S
C196 O199 1.160 . S
O197 C196 1.306 . S
O197 Cd198 2.228 . S
Cd198 O197 2.228 . S
Cd198 O202 2.273 . S
Cd198 O206 2.277 . S
O199 C196 1.160 . S
O199 Cd200 2.203 . S
Cd200 O199 2.203 . S
Cd200 O202 2.411 . S
Cd200 O203 2.333 . S
Cd200 O204 2.352 . S
Cd200 O208 2.277 . S
Cd200 O209 2.356 . S
C201 O206 1.209 . S
C201 O208 1.226 . S
O202 Cd198 2.273 . S
O202 Cd200 2.411 . S
O202 C205 1.320 . S
O203 Cd200 2.333 . S
O203 C205 1.214 . S
O204 Cd200 2.352 . S
O204 C207 1.258 . S
C205 O202 1.320 . S
C205 O203 1.214 . S
O206 Cd198 2.277 . S
O206 C201 1.209 . S
C207 O204 1.258 . S
C207 O209 1.282 . S
O208 Cd200 2.277 . S
O208 C201 1.226 . S
O209 Cd200 2.356 . S
O209 C207 1.282 . S
C210 O211 1.306 . S
C210 O213 1.160 . S
O211 C210 1.306 . S
O211 Cd212 2.228 . S
Cd212 O211 2.228 . S
Cd212 O216 2.273 . S
Cd212 O220 2.277 . S
O213 C210 1.160 . S
O213 Cd214 2.203 . S
Cd214 O213 2.203 . S
Cd214 O216 2.411 . S
Cd214 O217 2.333 . S
Cd214 O218 2.352 . S
Cd214 O222 2.277 . S
Cd214 O223 2.356 . S
C215 O220 1.209 . S
C215 O222 1.226 . S
O216 Cd212 2.273 . S
O216 Cd214 2.411 . S
O216 C219 1.320 . S
O217 Cd214 2.333 . S
O217 C219 1.214 . S
O218 Cd214 2.352 . S
O218 C221 1.258 . S
C219 O216 1.320 . S
C219 O217 1.214 . S
O220 Cd212 2.277 . S
O220 C215 1.209 . S
C221 O218 1.258 . S
C221 O223 1.282 . S
O222 Cd214 2.277 . S
O222 C215 1.226 . S
O223 Cd214 2.356 . S
O223 C221 1.282 . S
C224 O225 1.306 . S
C224 O227 1.160 . S
O225 C224 1.306 . S
O225 Cd226 2.228 1_545 S
Cd226 O225 2.228 1_565 S
Cd226 O230 2.273 . S
Cd226 O234 2.277 . S
O227 C224 1.160 . S
O227 Cd228 2.203 . S
Cd228 O227 2.203 . S
Cd228 O230 2.411 1_545 S
Cd228 O231 2.333 1_545 S
Cd228 O232 2.352 . S
Cd228 O236 2.277 1_545 S
Cd228 O237 2.356 . S
C229 O234 1.209 . S
C229 O236 1.226 . S
O230 Cd226 2.273 . S
O230 Cd228 2.411 1_565 S
O230 C233 1.320 . S
O231 Cd228 2.333 1_565 S
O231 C233 1.214 . S
O232 Cd228 2.352 . S
O232 C235 1.258 . S
C233 O230 1.320 . S
C233 O231 1.214 . S
O234 Cd226 2.277 . S
O234 C229 1.209 . S
C235 O232 1.258 . S
C235 O237 1.282 . S
O236 Cd228 2.277 1_565 S
O236 C229 1.226 . S
O237 Cd228 2.356 . S
O237 C235 1.282 . S
C238 O239 1.306 . S
C238 O241 1.160 . S
O239 C238 1.306 . S
O239 Cd240 2.228 . S
Cd240 O239 2.228 . S
Cd240 O244 2.273 . S
Cd240 O248 2.277 . S
O241 C238 1.160 . S
O241 Cd242 2.203 . S
Cd242 O241 2.203 . S
Cd242 O244 2.411 . S
Cd242 O245 2.333 . S
Cd242 O246 2.352 . S
Cd242 O250 2.277 . S
Cd242 O251 2.356 . S
C243 O248 1.209 . S
C243 O250 1.226 . S
O244 Cd240 2.273 . S
O244 Cd242 2.411 . S
O244 C247 1.320 . S
O245 Cd242 2.333 . S
O245 C247 1.214 . S
O246 Cd242 2.352 . S
O246 C249 1.258 . S
C247 O244 1.320 . S
C247 O245 1.214 . S
O248 Cd240 2.277 . S
O248 C243 1.209 . S
C249 O246 1.258 . S
C249 O251 1.282 . S
O250 Cd242 2.277 . S
O250 C243 1.226 . S
O251 Cd242 2.356 . S
O251 C249 1.282 . S
C252 O253 1.306 . S
C252 O255 1.160 . S
O253 C252 1.306 . S
O253 Cd254 2.228 . S
Cd254 O253 2.228 . S
Cd254 O258 2.273 . S
Cd254 O262 2.277 . S
O255 C252 1.160 . S
O255 Cd256 2.203 . S
Cd256 O255 2.203 . S
Cd256 O258 2.411 . S
Cd256 O259 2.333 . S
Cd256 O260 2.352 . S
Cd256 O264 2.277 . S
Cd256 O265 2.356 . S
C257 O262 1.209 . S
C257 O264 1.226 . S
O258 Cd254 2.273 . S
O258 Cd256 2.411 . S
O258 C261 1.320 . S
O259 Cd256 2.333 . S
O259 C261 1.214 . S
O260 Cd256 2.352 . S
O260 C263 1.258 . S
C261 O258 1.320 . S
C261 O259 1.214 . S
O262 Cd254 2.277 . S
O262 C257 1.209 . S
C263 O260 1.258 . S
C263 O265 1.282 . S
O264 Cd256 2.277 . S
O264 C257 1.226 . S
O265 Cd256 2.356 . S
O265 C263 1.282 . S
C266 O267 1.306 . S
C266 O269 1.160 . S
O267 C266 1.306 . S
O267 Cd268 2.228 1_545 S
Cd268 O267 2.228 1_565 S
Cd268 O272 2.273 . S
Cd268 O276 2.277 . S
O269 C266 1.160 . S
O269 Cd270 2.203 . S
Cd270 O269 2.203 . S
Cd270 O272 2.411 1_545 S
Cd270 O273 2.333 1_545 S
Cd270 O274 2.352 . S
Cd270 O278 2.277 1_545 S
Cd270 O279 2.356 . S
C271 O276 1.209 . S
C271 O278 1.226 . S
O272 Cd268 2.273 . S
O272 Cd270 2.411 1_565 S
O272 C275 1.320 . S
O273 Cd270 2.333 1_565 S
O273 C275 1.214 . S
O274 Cd270 2.352 . S
O274 C277 1.258 . S
C275 O272 1.320 . S
C275 O273 1.214 . S
O276 Cd268 2.277 . S
O276 C271 1.209 . S
C277 O274 1.258 . S
C277 O279 1.282 . S
O278 Cd270 2.277 1_565 S
O278 C271 1.226 . S
O279 Cd270 2.356 . S
O279 C277 1.282 . S
C280 O281 1.306 . S
C280 O283 1.160 . S
O281 C280 1.306 . S
O281 Cd282 2.228 1_554 S
Cd282 O281 2.228 1_556 S
Cd282 O286 2.273 . S
Cd282 O290 2.277 . S
O283 C280 1.160 . S
O283 Cd284 2.203 . S
Cd284 O283 2.203 . S
Cd284 O286 2.411 1_554 S
Cd284 O287 2.333 1_554 S
Cd284 O288 2.352 . S
Cd284 O292 2.277 1_554 S
Cd284 O293 2.356 . S
C285 O290 1.209 . S
C285 O292 1.226 . S
O286 Cd282 2.273 . S
O286 Cd284 2.411 1_556 S
O286 C289 1.320 . S
O287 Cd284 2.333 1_556 S
O287 C289 1.214 . S
O288 Cd284 2.352 . S
O288 C291 1.258 . S
C289 O286 1.320 . S
C289 O287 1.214 . S
O290 Cd282 2.277 . S
O290 C285 1.209 . S
C291 O288 1.258 . S
C291 O293 1.282 . S
O292 Cd284 2.277 1_556 S
O292 C285 1.226 . S
O293 Cd284 2.356 . S
O293 C291 1.282 . S
C294 O295 1.306 . S
C294 O297 1.160 . S
O295 C294 1.306 . S
O295 Cd296 2.228 . S
Cd296 O295 2.228 . S
Cd296 O300 2.273 . S
Cd296 O304 2.277 . S
O297 C294 1.160 . S
O297 Cd298 2.203 . S
Cd298 O297 2.203 . S
Cd298 O300 2.411 . S
Cd298 O301 2.333 . S
Cd298 O302 2.352 . S
Cd298 O306 2.277 . S
Cd298 O307 2.356 . S
C299 O304 1.209 . S
C299 O306 1.226 . S
O300 Cd296 2.273 . S
O300 Cd298 2.411 . S
O300 C303 1.320 . S
O301 Cd298 2.333 . S
O301 C303 1.214 . S
O302 Cd298 2.352 . S
O302 C305 1.258 . S
C303 O300 1.320 . S
C303 O301 1.214 . S
O304 Cd296 2.277 . S
O304 C299 1.209 . S
C305 O302 1.258 . S
C305 O307 1.282 . S
O306 Cd298 2.277 . S
O306 C299 1.226 . S
O307 Cd298 2.356 . S
O307 C305 1.282 . S
C308 O309 1.306 . S
C308 O311 1.160 . S
O309 C308 1.306 . S
O309 Cd310 2.228 . S
Cd310 O309 2.228 . S
Cd310 O314 2.273 . S
Cd310 O318 2.277 . S
O311 C308 1.160 . S
O311 Cd312 2.203 . S
Cd312 O311 2.203 . S
Cd312 O314 2.411 . S
Cd312 O315 2.333 . S
Cd312 O316 2.352 . S
Cd312 O320 2.277 . S
Cd312 O321 2.356 . S
C313 O318 1.209 . S
C313 O320 1.226 . S
O314 Cd310 2.273 . S
O314 Cd312 2.411 . S
O314 C317 1.320 . S
O315 Cd312 2.333 . S
O315 C317 1.214 . S
O316 Cd312 2.352 . S
O316 C319 1.258 . S
C317 O314 1.320 . S
C317 O315 1.214 . S
O318 Cd310 2.277 . S
O318 C313 1.209 . S
C319 O316 1.258 . S
C319 O321 1.282 . S
O320 Cd312 2.277 . S
O320 C313 1.226 . S
O321 Cd312 2.356 . S
O321 C319 1.282 . S
C322 O323 1.306 . S
C322 O325 1.160 . S
O323 C322 1.306 . S
O323 Cd324 2.228 . S
Cd324 O323 2.228 . S
Cd324 O328 2.273 . S
Cd324 O332 2.277 . S
O325 C322 1.160 . S
O325 Cd326 2.203 . S
Cd326 O325 2.203 . S
Cd326 O328 2.411 . S
Cd326 O329 2.333 . S
Cd326 O330 2.352 . S
Cd326 O334 2.277 . S
Cd326 O335 2.356 . S
C327 O332 1.209 . S
C327 O334 1.226 . S
O328 Cd324 2.273 . S
O328 Cd326 2.411 . S
O328 C331 1.320 . S
O329 Cd326 2.333 . S
O329 C331 1.214 . S
O330 Cd326 2.352 . S
O330 C333 1.258 . S
C331 O328 1.320 . S
C331 O329 1.214 . S
O332 Cd324 2.277 . S
O332 C327 1.209 . S
C333 O330 1.258 . S
C333 O335 1.282 . S
O334 Cd326 2.277 . S
O334 C327 1.226 . S
O335 Cd326 2.356 . S
O335 C333 1.282 . S
Sc336 O339 2.025 . S
Sc336 O346 2.105 . S
Sc336 O349 2.105 . S
Sc336 O352 2.105 . S
Sc336 O355 2.105 . S
Sc337 O339 2.025 . S
Sc337 O347 2.105 . S
Sc337 O351 2.105 . S
Sc337 O353 2.105 . S
Sc337 O357 2.105 . S
Sc338 O339 2.025 . S
Sc338 O348 2.105 . S
Sc338 O350 2.105 . S
Sc338 O354 2.105 . S
Sc338 O356 2.105 . S
O339 Sc336 2.025 . S
O339 Sc337 2.025 . S
O339 Sc338 2.025 . S
C340 O346 1.268 . S
C340 O356 1.268 . S
C341 O347 1.268 . S
C341 O355 1.268 . S
C342 O348 1.268 . S
C342 O357 1.268 . S
C343 O349 1.268 . S
C343 O353 1.268 . S
C344 O350 1.268 . S
C344 O352 1.268 . S
C345 O351 1.268 . S
C345 O354 1.268 . S
O346 Sc336 2.105 . S
O346 C340 1.268 . S
O347 Sc337 2.105 . S
O347 C341 1.268 . S
O348 Sc338 2.105 . S
O348 C342 1.268 . S
O349 Sc336 2.105 . S
O349 C343 1.268 . S
O350 Sc338 2.105 . S
O350 C344 1.268 . S
O351 Sc337 2.105 . S
O351 C345 1.268 . S
O352 Sc336 2.105 . S
O352 C344 1.268 . S
O353 Sc337 2.105 . S
O353 C343 1.268 . S
O354 Sc338 2.105 . S
O354 C345 1.268 . S
O355 Sc336 2.105 . S
O355 C341 1.268 . S
O356 Sc338 2.105 . S
O356 C340 1.268 . S
O357 Sc337 2.105 . S
O357 C342 1.268 . S
Sc358 O361 2.025 . S
Sc358 O368 2.105 . S
Sc358 O371 2.105 . S
Sc358 O374 2.105 . S
Sc358 O377 2.105 . S
Sc359 O361 2.025 . S
Sc359 O369 2.105 . S
Sc359 O373 2.105 . S
Sc359 O375 2.105 . S
Sc359 O379 2.105 . S
Sc360 O361 2.025 . S
Sc360 O370 2.105 . S
Sc360 O372 2.105 . S
Sc360 O376 2.105 . S
Sc360 O378 2.105 . S
O361 Sc358 2.025 . S
O361 Sc359 2.025 . S
O361 Sc360 2.025 . S
C362 O368 1.268 . S
C362 O378 1.268 . S
C363 O369 1.268 . S
C363 O377 1.268 . S
C364 O370 1.268 . S
C364 O379 1.268 . S
C365 O371 1.268 . S
C365 O375 1.268 . S
C366 O372 1.268 . S
C366 O374 1.268 . S
C367 O373 1.268 . S
C367 O376 1.268 . S
O368 Sc358 2.105 . S
O368 C362 1.268 . S
O369 Sc359 2.105 . S
O369 C363 1.268 . S
O370 Sc360 2.105 . S
O370 C364 1.268 . S
O371 Sc358 2.105 . S
O371 C365 1.268 . S
O372 Sc360 2.105 . S
O372 C366 1.268 . S
O373 Sc359 2.105 . S
O373 C367 1.268 . S
O374 Sc358 2.105 . S
O374 C366 1.268 . S
O375 Sc359 2.105 . S
O375 C365 1.268 . S
O376 Sc360 2.105 . S
O376 C367 1.268 . S
O377 Sc358 2.105 . S
O377 C363 1.268 . S
O378 Sc360 2.105 . S
O378 C362 1.268 . S
O379 Sc359 2.105 . S
O379 C364 1.268 . S
Sc380 O383 2.025 . S
Sc380 O390 2.105 . S
Sc380 O393 2.105 . S
Sc380 O396 2.105 . S
Sc380 O399 2.105 . S
Sc381 O383 2.025 . S
Sc381 O391 2.105 . S
Sc381 O395 2.105 . S
Sc381 O397 2.105 . S
Sc381 O401 2.105 . S
Sc382 O383 2.025 . S
Sc382 O392 2.105 . S
Sc382 O394 2.105 . S
Sc382 O398 2.105 . S
Sc382 O400 2.105 . S
O383 Sc380 2.025 . S
O383 Sc381 2.025 . S
O383 Sc382 2.025 . S
C384 O390 1.268 . S
C384 O400 1.268 . S
C385 O391 1.268 . S
C385 O399 1.268 . S
C386 O392 1.268 . S
C386 O401 1.268 . S
C387 O393 1.268 . S
C387 O397 1.268 . S
C388 O394 1.268 . S
C388 O396 1.268 . S
C389 O395 1.268 . S
C389 O398 1.268 . S
O390 Sc380 2.105 . S
O390 C384 1.268 . S
O391 Sc381 2.105 . S
O391 C385 1.268 . S
O392 Sc382 2.105 . S
O392 C386 1.268 . S
O393 Sc380 2.105 . S
O393 C387 1.268 . S
O394 Sc382 2.105 . S
O394 C388 1.268 . S
O395 Sc381 2.105 . S
O395 C389 1.268 . S
O396 Sc380 2.105 . S
O396 C388 1.268 . S
O397 Sc381 2.105 . S
O397 C387 1.268 . S
O398 Sc382 2.105 . S
O398 C389 1.268 . S
O399 Sc380 2.105 . S
O399 C385 1.268 . S
O400 Sc382 2.105 . S
O400 C384 1.268 . S
O401 Sc381 2.105 . S
O401 C386 1.268 . S
Sc402 O405 2.025 . S
Sc402 O412 2.105 . S
Sc402 O415 2.105 . S
Sc402 O418 2.105 . S
Sc402 O421 2.105 . S
Sc403 O405 2.025 . S
Sc403 O413 2.105 . S
Sc403 O417 2.105 . S
Sc403 O419 2.105 . S
Sc403 O423 2.105 . S
Sc404 O405 2.025 . S
Sc404 O414 2.105 . S
Sc404 O416 2.105 . S
Sc404 O420 2.105 . S
Sc404 O422 2.105 . S
O405 Sc402 2.025 . S
O405 Sc403 2.025 . S
O405 Sc404 2.025 . S
C406 O412 1.268 . S
C406 O422 1.268 . S
C407 O413 1.268 . S
C407 O421 1.268 . S
C408 O414 1.268 . S
C408 O423 1.268 . S
C409 O415 1.268 . S
C409 O419 1.268 . S
C410 O416 1.268 . S
C410 O418 1.268 . S
C411 O417 1.268 . S
C411 O420 1.268 . S
O412 Sc402 2.105 . S
O412 C406 1.268 . S
O413 Sc403 2.105 . S
O413 C407 1.268 . S
O414 Sc404 2.105 . S
O414 C408 1.268 . S
O415 Sc402 2.105 . S
O415 C409 1.268 . S
O416 Sc404 2.105 . S
O416 C410 1.268 . S
O417 Sc403 2.105 . S
O417 C411 1.268 . S
O418 Sc402 2.105 . S
O418 C410 1.268 . S
O419 Sc403 2.105 . S
O419 C409 1.268 . S
O420 Sc404 2.105 . S
O420 C411 1.268 . S
O421 Sc402 2.105 . S
O421 C407 1.268 . S
O422 Sc404 2.105 . S
O422 C406 1.268 . S
O423 Sc403 2.105 . S
O423 C408 1.268 . S
Sc424 O427 2.025 . S
Sc424 O434 2.105 . S
Sc424 O437 2.105 . S
Sc424 O440 2.105 . S
Sc424 O443 2.105 . S
Sc425 O427 2.025 . S
Sc425 O435 2.105 . S
Sc425 O439 2.105 . S
Sc425 O441 2.105 . S
Sc425 O445 2.105 . S
Sc426 O427 2.025 . S
Sc426 O436 2.105 . S
Sc426 O438 2.105 . S
Sc426 O442 2.105 . S
Sc426 O444 2.105 . S
O427 Sc424 2.025 . S
O427 Sc425 2.025 . S
O427 Sc426 2.025 . S
C428 O434 1.268 . S
C428 O444 1.268 . S
C429 O435 1.268 . S
C429 O443 1.268 . S
C430 O436 1.268 . S
C430 O445 1.268 . S
C431 O437 1.268 . S
C431 O441 1.268 . S
C432 O438 1.268 . S
C432 O440 1.268 . S
C433 O439 1.268 . S
C433 O442 1.268 . S
O434 Sc424 2.105 . S
O434 C428 1.268 . S
O435 Sc425 2.105 . S
O435 C429 1.268 . S
O436 Sc426 2.105 . S
O436 C430 1.268 . S
O437 Sc424 2.105 . S
O437 C431 1.268 . S
O438 Sc426 2.105 . S
O438 C432 1.268 . S
O439 Sc425 2.105 . S
O439 C433 1.268 . S
O440 Sc424 2.105 . S
O440 C432 1.268 . S
O441 Sc425 2.105 . S
O441 C431 1.268 . S
O442 Sc426 2.105 . S
O442 C433 1.268 . S
O443 Sc424 2.105 . S
O443 C429 1.268 . S
O444 Sc426 2.105 . S
O444 C428 1.268 . S
O445 Sc425 2.105 . S
O445 C430 1.268 . S
Sc446 O449 2.025 . S
Sc446 O456 2.105 . S
Sc446 O459 2.105 . S
Sc446 O462 2.105 . S
Sc446 O465 2.105 . S
Sc447 O449 2.025 . S
Sc447 O457 2.105 . S
Sc447 O461 2.105 . S
Sc447 O463 2.105 . S
Sc447 O467 2.105 . S
Sc448 O449 2.025 . S
Sc448 O458 2.105 . S
Sc448 O460 2.105 . S
Sc448 O464 2.105 . S
Sc448 O466 2.105 . S
O449 Sc446 2.025 . S
O449 Sc447 2.025 . S
O449 Sc448 2.025 . S
C450 O456 1.268 . S
C450 O466 1.268 . S
C451 O457 1.268 . S
C451 O465 1.268 . S
C452 O458 1.268 . S
C452 O467 1.268 . S
C453 O459 1.268 . S
C453 O463 1.268 . S
C454 O460 1.268 . S
C454 O462 1.268 . S
C455 O461 1.268 . S
C455 O464 1.268 . S
O456 Sc446 2.105 . S
O456 C450 1.268 . S
O457 Sc447 2.105 . S
O457 C451 1.268 . S
O458 Sc448 2.105 . S
O458 C452 1.268 . S
O459 Sc446 2.105 . S
O459 C453 1.268 . S
O460 Sc448 2.105 . S
O460 C454 1.268 . S
O461 Sc447 2.105 . S
O461 C455 1.268 . S
O462 Sc446 2.105 . S
O462 C454 1.268 . S
O463 Sc447 2.105 . S
O463 C453 1.268 . S
O464 Sc448 2.105 . S
O464 C455 1.268 . S
O465 Sc446 2.105 . S
O465 C451 1.268 . S
O466 Sc448 2.105 . S
O466 C450 1.268 . S
O467 Sc447 2.105 . S
O467 C452 1.268 . S
Sc468 O471 2.025 . S
Sc468 O478 2.105 . S
Sc468 O481 2.105 . S
Sc468 O484 2.105 . S
Sc468 O487 2.105 . S
Sc469 O471 2.025 . S
Sc469 O479 2.105 . S
Sc469 O483 2.105 . S
Sc469 O485 2.105 . S
Sc469 O489 2.105 . S
Sc470 O471 2.025 . S
Sc470 O480 2.105 . S
Sc470 O482 2.105 . S
Sc470 O486 2.105 . S
Sc470 O488 2.105 . S
O471 Sc468 2.025 . S
O471 Sc469 2.025 . S
O471 Sc470 2.025 . S
C472 O478 1.268 . S
C472 O488 1.268 . S
C473 O479 1.268 . S
C473 O487 1.268 . S
C474 O480 1.268 . S
C474 O489 1.268 . S
C475 O481 1.268 . S
C475 O485 1.268 . S
C476 O482 1.268 . S
C476 O484 1.268 . S
C477 O483 1.268 . S
C477 O486 1.268 . S
O478 Sc468 2.105 . S
O478 C472 1.268 . S
O479 Sc469 2.105 . S
O479 C473 1.268 . S
O480 Sc470 2.105 . S
O480 C474 1.268 . S
O481 Sc468 2.105 . S
O481 C475 1.268 . S
O482 Sc470 2.105 . S
O482 C476 1.268 . S
O483 Sc469 2.105 . S
O483 C477 1.268 . S
O484 Sc468 2.105 . S
O484 C476 1.268 . S
O485 Sc469 2.105 . S
O485 C475 1.268 . S
O486 Sc470 2.105 . S
O486 C477 1.268 . S
O487 Sc468 2.105 . S
O487 C473 1.268 . S
O488 Sc470 2.105 . S
O488 C472 1.268 . S
O489 Sc469 2.105 . S
O489 C474 1.268 . S
Sc490 O493 2.025 . S
Sc490 O500 2.105 . S
Sc490 O503 2.105 . S
Sc490 O506 2.105 . S
Sc490 O509 2.105 . S
Sc491 O493 2.025 . S
Sc491 O501 2.105 . S
Sc491 O505 2.105 . S
Sc491 O507 2.105 . S
Sc491 O511 2.105 . S
Sc492 O493 2.025 . S
Sc492 O502 2.105 . S
Sc492 O504 2.105 . S
Sc492 O508 2.105 . S
Sc492 O510 2.105 . S
O493 Sc490 2.025 . S
O493 Sc491 2.025 . S
O493 Sc492 2.025 . S
C494 O500 1.268 . S
C494 O510 1.268 . S
C495 O501 1.268 . S
C495 O509 1.268 . S
C496 O502 1.268 . S
C496 O511 1.268 . S
C497 O503 1.268 . S
C497 O507 1.268 . S
C498 O504 1.268 . S
C498 O506 1.268 . S
C499 O505 1.268 . S
C499 O508 1.268 . S
O500 Sc490 2.105 . S
O500 C494 1.268 . S
O501 Sc491 2.105 . S
O501 C495 1.268 . S
O502 Sc492 2.105 . S
O502 C496 1.268 . S
O503 Sc490 2.105 . S
O503 C497 1.268 . S
O504 Sc492 2.105 . S
O504 C498 1.268 . S
O505 Sc491 2.105 . S
O505 C499 1.268 . S
O506 Sc490 2.105 . S
O506 C498 1.268 . S
O507 Sc491 2.105 . S
O507 C497 1.268 . S
O508 Sc492 2.105 . S
O508 C499 1.268 . S
O509 Sc490 2.105 . S
O509 C495 1.268 . S
O510 Sc492 2.105 . S
O510 C494 1.268 . S
O511 Sc491 2.105 . S
O511 C496 1.268 . S
Sc512 O515 2.025 . S
Sc512 O522 2.105 . S
Sc512 O525 2.105 . S
Sc512 O528 2.105 . S
Sc512 O531 2.105 . S
Sc513 O515 2.025 . S
Sc513 O523 2.105 . S
Sc513 O527 2.105 . S
Sc513 O529 2.105 . S
Sc513 O533 2.105 . S
Sc514 O515 2.025 . S
Sc514 O524 2.105 . S
Sc514 O526 2.105 . S
Sc514 O530 2.105 . S
Sc514 O532 2.105 . S
O515 Sc512 2.025 . S
O515 Sc513 2.025 . S
O515 Sc514 2.025 . S
C516 O522 1.268 . S
C516 O532 1.268 . S
C517 O523 1.268 . S
C517 O531 1.268 . S
C518 O524 1.268 . S
C518 O533 1.268 . S
C519 O525 1.268 . S
C519 O529 1.268 . S
C520 O526 1.268 . S
C520 O528 1.268 . S
C521 O527 1.268 . S
C521 O530 1.268 . S
O522 Sc512 2.105 . S
O522 C516 1.268 . S
O523 Sc513 2.105 . S
O523 C517 1.268 . S
O524 Sc514 2.105 . S
O524 C518 1.268 . S
O525 Sc512 2.105 . S
O525 C519 1.268 . S
O526 Sc514 2.105 . S
O526 C520 1.268 . S
O527 Sc513 2.105 . S
O527 C521 1.268 . S
O528 Sc512 2.105 . S
O528 C520 1.268 . S
O529 Sc513 2.105 . S
O529 C519 1.268 . S
O530 Sc514 2.105 . S
O530 C521 1.268 . S
O531 Sc512 2.105 . S
O531 C517 1.268 . S
O532 Sc514 2.105 . S
O532 C516 1.268 . S
O533 Sc513 2.105 . S
O533 C518 1.268 . S
Sc534 O537 2.025 . S
Sc534 O544 2.105 . S
Sc534 O547 2.105 . S
Sc534 O550 2.105 . S
Sc534 O553 2.105 . S
Sc535 O537 2.025 . S
Sc535 O545 2.105 . S
Sc535 O549 2.105 . S
Sc535 O551 2.105 . S
Sc535 O555 2.105 . S
Sc536 O537 2.025 . S
Sc536 O546 2.105 . S
Sc536 O548 2.105 . S
Sc536 O552 2.105 . S
Sc536 O554 2.105 . S
O537 Sc534 2.025 . S
O537 Sc535 2.025 . S
O537 Sc536 2.025 . S
C538 O544 1.268 . S
C538 O554 1.268 . S
C539 O545 1.268 . S
C539 O553 1.268 . S
C540 O546 1.268 . S
C540 O555 1.268 . S
C541 O547 1.268 . S
C541 O551 1.268 . S
C542 O548 1.268 . S
C542 O550 1.268 . S
C543 O549 1.268 . S
C543 O552 1.268 . S
O544 Sc534 2.105 . S
O544 C538 1.268 . S
O545 Sc535 2.105 . S
O545 C539 1.268 . S
O546 Sc536 2.105 . S
O546 C540 1.268 . S
O547 Sc534 2.105 . S
O547 C541 1.268 . S
O548 Sc536 2.105 . S
O548 C542 1.268 . S
O549 Sc535 2.105 . S
O549 C543 1.268 . S
O550 Sc534 2.105 . S
O550 C542 1.268 . S
O551 Sc535 2.105 . S
O551 C541 1.268 . S
O552 Sc536 2.105 . S
O552 C543 1.268 . S
O553 Sc534 2.105 . S
O553 C539 1.268 . S
O554 Sc536 2.105 . S
O554 C538 1.268 . S
O555 Sc535 2.105 . S
O555 C540 1.268 . S
Sc556 O559 2.025 . S
Sc556 O566 2.105 . S
Sc556 O569 2.105 . S
Sc556 O572 2.105 . S
Sc556 O575 2.105 . S
Sc557 O559 2.025 . S
Sc557 O567 2.105 . S
Sc557 O571 2.105 . S
Sc557 O573 2.105 . S
Sc557 O577 2.105 . S
Sc558 O559 2.025 . S
Sc558 O568 2.105 . S
Sc558 O570 2.105 . S
Sc558 O574 2.105 . S
Sc558 O576 2.105 . S
O559 Sc556 2.025 . S
O559 Sc557 2.025 . S
O559 Sc558 2.025 . S
C560 O566 1.268 . S
C560 O576 1.268 . S
C561 O567 1.268 . S
C561 O575 1.268 . S
C562 O568 1.268 . S
C562 O577 1.268 . S
C563 O569 1.268 . S
C563 O573 1.268 . S
C564 O570 1.268 . S
C564 O572 1.268 . S
C565 O571 1.268 . S
C565 O574 1.268 . S
O566 Sc556 2.105 . S
O566 C560 1.268 . S
O567 Sc557 2.105 . S
O567 C561 1.268 . S
O568 Sc558 2.105 . S
O568 C562 1.268 . S
O569 Sc556 2.105 . S
O569 C563 1.268 . S
O570 Sc558 2.105 . S
O570 C564 1.268 . S
O571 Sc557 2.105 . S
O571 C565 1.268 . S
O572 Sc556 2.105 . S
O572 C564 1.268 . S
O573 Sc557 2.105 . S
O573 C563 1.268 . S
O574 Sc558 2.105 . S
O574 C565 1.268 . S
O575 Sc556 2.105 . S
O575 C561 1.268 . S
O576 Sc558 2.105 . S
O576 C560 1.268 . S
O577 Sc557 2.105 . S
O577 C562 1.268 . S
Sc578 O581 2.025 . S
Sc578 O588 2.105 . S
Sc578 O591 2.105 . S
Sc578 O594 2.105 . S
Sc578 O597 2.105 . S
Sc579 O581 2.025 . S
Sc579 O589 2.105 . S
Sc579 O593 2.105 . S
Sc579 O595 2.105 . S
Sc579 O599 2.105 . S
Sc580 O581 2.025 . S
Sc580 O590 2.105 . S
Sc580 O592 2.105 . S
Sc580 O596 2.105 . S
Sc580 O598 2.105 . S
O581 Sc578 2.025 . S
O581 Sc579 2.025 . S
O581 Sc580 2.025 . S
C582 O588 1.268 . S
C582 O598 1.268 . S
C583 O589 1.268 . S
C583 O597 1.268 . S
C584 O590 1.268 . S
C584 O599 1.268 . S
C585 O591 1.268 . S
C585 O595 1.268 . S
C586 O592 1.268 . S
C586 O594 1.268 . S
C587 O593 1.268 . S
C587 O596 1.268 . S
O588 Sc578 2.105 . S
O588 C582 1.268 . S
O589 Sc579 2.105 . S
O589 C583 1.268 . S
O590 Sc580 2.105 . S
O590 C584 1.268 . S
O591 Sc578 2.105 . S
O591 C585 1.268 . S
O592 Sc580 2.105 . S
O592 C586 1.268 . S
O593 Sc579 2.105 . S
O593 C587 1.268 . S
O594 Sc578 2.105 . S
O594 C586 1.268 . S
O595 Sc579 2.105 . S
O595 C585 1.268 . S
O596 Sc580 2.105 . S
O596 C587 1.268 . S
O597 Sc578 2.105 . S
O597 C583 1.268 . S
O598 Sc580 2.105 . S
O598 C582 1.268 . S
O599 Sc579 2.105 . S
O599 C584 1.268 . S
Sc600 O603 2.025 . S
Sc600 O610 2.105 . S
Sc600 O613 2.105 . S
Sc600 O616 2.105 . S
Sc600 O619 2.105 . S
Sc601 O603 2.025 . S
Sc601 O611 2.105 . S
Sc601 O615 2.105 . S
Sc601 O617 2.105 . S
Sc601 O621 2.105 . S
Sc602 O603 2.025 . S
Sc602 O612 2.105 . S
Sc602 O614 2.105 . S
Sc602 O618 2.105 . S
Sc602 O620 2.105 . S
O603 Sc600 2.025 . S
O603 Sc601 2.025 . S
O603 Sc602 2.025 . S
C604 O610 1.268 . S
C604 O620 1.268 . S
C605 O611 1.268 . S
C605 O619 1.268 . S
C606 O612 1.268 . S
C606 O621 1.268 . S
C607 O613 1.268 . S
C607 O617 1.268 . S
C608 O614 1.268 . S
C608 O616 1.268 . S
C609 O615 1.268 . S
C609 O618 1.268 . S
O610 Sc600 2.105 . S
O610 C604 1.268 . S
O611 Sc601 2.105 . S
O611 C605 1.268 . S
O612 Sc602 2.105 . S
O612 C606 1.268 . S
O613 Sc600 2.105 . S
O613 C607 1.268 . S
O614 Sc602 2.105 . S
O614 C608 1.268 . S
O615 Sc601 2.105 . S
O615 C609 1.268 . S
O616 Sc600 2.105 . S
O616 C608 1.268 . S
O617 Sc601 2.105 . S
O617 C607 1.268 . S
O618 Sc602 2.105 . S
O618 C609 1.268 . S
O619 Sc600 2.105 . S
O619 C605 1.268 . S
O620 Sc602 2.105 . S
O620 C604 1.268 . S
O621 Sc601 2.105 . S
O621 C606 1.268 . S
Sc622 O625 2.025 . S
Sc622 O632 2.105 . S
Sc622 O635 2.105 . S
Sc622 O638 2.105 . S
Sc622 O641 2.105 . S
Sc623 O625 2.025 . S
Sc623 O633 2.105 . S
Sc623 O637 2.105 . S
Sc623 O639 2.105 . S
Sc623 O643 2.105 . S
Sc624 O625 2.025 . S
Sc624 O634 2.105 . S
Sc624 O636 2.105 . S
Sc624 O640 2.105 . S
Sc624 O642 2.105 . S
O625 Sc622 2.025 . S
O625 Sc623 2.025 . S
O625 Sc624 2.025 . S
C626 O632 1.268 . S
C626 O642 1.268 . S
C627 O633 1.268 . S
C627 O641 1.268 . S
C628 O634 1.268 . S
C628 O643 1.268 . S
C629 O635 1.268 . S
C629 O639 1.268 . S
C630 O636 1.268 . S
C630 O638 1.268 . S
C631 O637 1.268 . S
C631 O640 1.268 . S
O632 Sc622 2.105 . S
O632 C626 1.268 . S
O633 Sc623 2.105 . S
O633 C627 1.268 . S
O634 Sc624 2.105 . S
O634 C628 1.268 . S
O635 Sc622 2.105 . S
O635 C629 1.268 . S
O636 Sc624 2.105 . S
O636 C630 1.268 . S
O637 Sc623 2.105 . S
O637 C631 1.268 . S
O638 Sc622 2.105 . S
O638 C630 1.268 . S
O639 Sc623 2.105 . S
O639 C629 1.268 . S
O640 Sc624 2.105 . S
O640 C631 1.268 . S
O641 Sc622 2.105 . S
O641 C627 1.268 . S
O642 Sc624 2.105 . S
O642 C626 1.268 . S
O643 Sc623 2.105 . S
O643 C628 1.268 . S
Sc644 O647 2.025 . S
Sc644 O654 2.105 . S
Sc644 O657 2.105 . S
Sc644 O660 2.105 . S
Sc644 O663 2.105 . S
Sc645 O647 2.025 . S
Sc645 O655 2.105 . S
Sc645 O659 2.105 . S
Sc645 O661 2.105 . S
Sc645 O665 2.105 . S
Sc646 O647 2.025 . S
Sc646 O656 2.105 . S
Sc646 O658 2.105 . S
Sc646 O662 2.105 . S
Sc646 O664 2.105 . S
O647 Sc644 2.025 . S
O647 Sc645 2.025 . S
O647 Sc646 2.025 . S
C648 O654 1.268 . S
C648 O664 1.268 . S
C649 O655 1.268 . S
C649 O663 1.268 . S
C650 O656 1.268 . S
C650 O665 1.268 . S
C651 O657 1.268 . S
C651 O661 1.268 . S
C652 O658 1.268 . S
C652 O660 1.268 . S
C653 O659 1.268 . S
C653 O662 1.268 . S
O654 Sc644 2.105 . S
O654 C648 1.268 . S
O655 Sc645 2.105 . S
O655 C649 1.268 . S
O656 Sc646 2.105 . S
O656 C650 1.268 . S
O657 Sc644 2.105 . S
O657 C651 1.268 . S
O658 Sc646 2.105 . S
O658 C652 1.268 . S
O659 Sc645 2.105 . S
O659 C653 1.268 . S
O660 Sc644 2.105 . S
O660 C652 1.268 . S
O661 Sc645 2.105 . S
O661 C651 1.268 . S
O662 Sc646 2.105 . S
O662 C653 1.268 . S
O663 Sc644 2.105 . S
O663 C649 1.268 . S
O664 Sc646 2.105 . S
O664 C648 1.268 . S
O665 Sc645 2.105 . S
O665 C650 1.268 . S
Sc666 O669 2.025 . S
Sc666 O676 2.105 . S
Sc666 O679 2.105 . S
Sc666 O682 2.105 . S
Sc666 O685 2.105 . S
Sc667 O669 2.025 . S
Sc667 O677 2.105 . S
Sc667 O681 2.105 . S
Sc667 O683 2.105 . S
Sc667 O687 2.105 . S
Sc668 O669 2.025 . S
Sc668 O678 2.105 . S
Sc668 O680 2.105 . S
Sc668 O684 2.105 . S
Sc668 O686 2.105 . S
O669 Sc666 2.025 . S
O669 Sc667 2.025 . S
O669 Sc668 2.025 . S
C670 O676 1.268 . S
C670 O686 1.268 . S
C671 O677 1.268 . S
C671 O685 1.268 . S
C672 O678 1.268 . S
C672 O687 1.268 . S
C673 O679 1.268 . S
C673 O683 1.268 . S
C674 O680 1.268 . S
C674 O682 1.268 . S
C675 O681 1.268 . S
C675 O684 1.268 . S
O676 Sc666 2.105 . S
O676 C670 1.268 . S
O677 Sc667 2.105 . S
O677 C671 1.268 . S
O678 Sc668 2.105 . S
O678 C672 1.268 . S
O679 Sc666 2.105 . S
O679 C673 1.268 . S
O680 Sc668 2.105 . S
O680 C674 1.268 . S
O681 Sc667 2.105 . S
O681 C675 1.268 . S
O682 Sc666 2.105 . S
O682 C674 1.268 . S
O683 Sc667 2.105 . S
O683 C673 1.268 . S
O684 Sc668 2.105 . S
O684 C675 1.268 . S
O685 Sc666 2.105 . S
O685 C671 1.268 . S
O686 Sc668 2.105 . S
O686 C670 1.268 . S
O687 Sc667 2.105 . S
O687 C672 1.268 . S
H688 C696 0.950 . S
H689 C701 0.950 . S
H690 C698 0.950 . S
H691 C700 0.950 . S
H692 C702 0.950 . S
H693 C704 0.950 . S
H694 C706 0.950 . S
H695 C707 0.950 . S
C696 H688 0.950 . S
C696 C697 1.386 . S
C696 C698 1.391 . S
C697 C696 1.386 . S
C697 C701 1.393 . S
C698 H690 0.950 . S
C698 C696 1.391 . S
C698 C699 1.400 . S
C699 C698 1.400 . S
C699 C700 1.398 . S
C699 C705 1.491 . S
C700 H691 0.950 . S
C700 C699 1.398 . S
C700 C701 1.391 . S
C701 H689 0.950 . S
C701 C697 1.393 . S
C701 C700 1.391 . S
C702 H692 0.950 . S
C702 C703 1.386 . S
C702 C704 1.391 . S
C703 C702 1.386 . S
C703 C707 1.393 . S
C704 H693 0.950 . S
C704 C702 1.391 . S
C704 C705 1.400 . S
C705 C699 1.491 . S
C705 C704 1.400 . S
C705 C706 1.398 . S
C706 H694 0.950 . S
C706 C705 1.398 . S
C706 C707 1.391 . S
C707 H695 0.950 . S
C707 C703 1.393 . S
C707 C706 1.391 . S
H708 C716 0.950 . S
H709 C721 0.950 . S
H710 C718 0.950 . S
H711 C720 0.950 . S
H712 C722 0.950 . S
H713 C724 0.950 . S
H714 C726 0.950 . S
H715 C727 0.950 . S
C716 H708 0.950 . S
C716 C717 1.386 . S
C716 C718 1.391 . S
C717 C716 1.386 . S
C717 C721 1.393 . S
C718 H710 0.950 . S
C718 C716 1.391 . S
C718 C719 1.400 . S
C719 C718 1.400 . S
C719 C720 1.398 . S
C719 C725 1.491 . S
C720 H711 0.950 . S
C720 C719 1.398 . S
C720 C721 1.391 . S
C721 H709 0.950 . S
C721 C717 1.393 . S
C721 C720 1.391 . S
C722 H712 0.950 . S
C722 C723 1.386 . S
C722 C724 1.391 . S
C723 C722 1.386 . S
C723 C727 1.393 . S
C724 H713 0.950 . S
C724 C722 1.391 . S
C724 C725 1.400 . S
C725 C719 1.491 . S
C725 C724 1.400 . S
C725 C726 1.398 . S
C726 H714 0.950 . S
C726 C725 1.398 . S
C726 C727 1.391 . S
C727 H715 0.950 . S
C727 C723 1.393 . S
C727 C726 1.391 . S
H728 C736 0.950 . S
H729 C741 0.950 . S
H730 C738 0.950 . S
H731 C740 0.950 . S
H732 C742 0.950 . S
H733 C744 0.950 . S
H734 C746 0.950 . S
H735 C747 0.950 . S
C736 H728 0.950 . S
C736 C737 1.386 . S
C736 C738 1.391 . S
C737 C736 1.386 . S
C737 C741 1.393 . S
C738 H730 0.950 . S
C738 C736 1.391 . S
C738 C739 1.400 . S
C739 C738 1.400 . S
C739 C740 1.398 . S
C739 C745 1.491 . S
C740 H731 0.950 . S
C740 C739 1.398 . S
C740 C741 1.391 . S
C741 H729 0.950 . S
C741 C737 1.393 . S
C741 C740 1.391 . S
C742 H732 0.950 . S
C742 C743 1.386 . S
C742 C744 1.391 . S
C743 C742 1.386 . S
C743 C747 1.393 . S
C744 H733 0.950 . S
C744 C742 1.391 . S
C744 C745 1.400 . S
C745 C739 1.491 . S
C745 C744 1.400 . S
C745 C746 1.398 . S
C746 H734 0.950 . S
C746 C745 1.398 . S
C746 C747 1.391 . S
C747 H735 0.950 . S
C747 C743 1.393 . S
C747 C746 1.391 . S
H748 C756 0.950 . S
H749 C761 0.950 . S
H750 C758 0.950 . S
H751 C760 0.950 . S
H752 C762 0.950 . S
H753 C764 0.950 . S
H754 C766 0.950 . S
H755 C767 0.950 . S
C756 H748 0.950 . S
C756 C757 1.386 . S
C756 C758 1.391 . S
C757 C756 1.386 . S
C757 C761 1.393 . S
C758 H750 0.950 . S
C758 C756 1.391 . S
C758 C759 1.400 . S
C759 C758 1.400 . S
C759 C760 1.398 . S
C759 C765 1.491 . S
C760 H751 0.950 . S
C760 C759 1.398 . S
C760 C761 1.391 . S
C761 H749 0.950 . S
C761 C757 1.393 . S
C761 C760 1.391 . S
C762 H752 0.950 . S
C762 C763 1.386 . S
C762 C764 1.391 1_556 S
C763 C762 1.386 . S
C763 C767 1.393 . S
C764 H753 0.950 . S
C764 C762 1.391 1_554 S
C764 C765 1.400 . S
C765 C759 1.491 . S
C765 C764 1.400 . S
C765 C766 1.398 1_554 S
C766 H754 0.950 . S
C766 C765 1.398 1_556 S
C766 C767 1.391 . S
C767 H755 0.950 . S
C767 C763 1.393 . S
C767 C766 1.391 . S
H768 C776 0.950 . S
H769 C781 0.950 . S
H770 C778 0.950 . S
H771 C780 0.950 . S
H772 C782 0.950 . S
H773 C784 0.950 . S
H774 C786 0.950 . S
H775 C787 0.950 . S
C776 H768 0.950 . S
C776 C777 1.386 . S
C776 C778 1.391 . S
C777 C776 1.386 . S
C777 C781 1.393 . S
C778 H770 0.950 . S
C778 C776 1.391 . S
C778 C779 1.400 . S
C779 C778 1.400 . S
C779 C780 1.398 . S
C779 C785 1.491 . S
C780 H771 0.950 . S
C780 C779 1.398 . S
C780 C781 1.391 . S
C781 H769 0.950 . S
C781 C777 1.393 . S
C781 C780 1.391 . S
C782 H772 0.950 . S
C782 C783 1.386 . S
C782 C784 1.391 . S
C783 C782 1.386 . S
C783 C787 1.393 . S
C784 H773 0.950 . S
C784 C782 1.391 . S
C784 C785 1.400 . S
C785 C779 1.491 . S
C785 C784 1.400 . S
C785 C786 1.398 . S
C786 H774 0.950 . S
C786 C785 1.398 . S
C786 C787 1.391 . S
C787 H775 0.950 . S
C787 C783 1.393 . S
C787 C786 1.391 . S
H788 C796 0.950 . S
H789 C801 0.950 . S
H790 C798 0.950 . S
H791 C800 0.950 . S
H792 C802 0.950 . S
H793 C804 0.950 . S
H794 C806 0.950 . S
H795 C807 0.950 . S
C796 H788 0.950 . S
C796 C797 1.386 . S
C796 C798 1.391 . S
C797 C796 1.386 . S
C797 C801 1.393 . S
C798 H790 0.950 . S
C798 C796 1.391 . S
C798 C799 1.400 . S
C799 C798 1.400 . S
C799 C800 1.398 . S
C799 C805 1.491 . S
C800 H791 0.950 . S
C800 C799 1.398 . S
C800 C801 1.391 . S
C801 H789 0.950 . S
C801 C797 1.393 . S
C801 C800 1.391 . S
C802 H792 0.950 . S
C802 C803 1.386 . S
C802 C804 1.391 . S
C803 C802 1.386 . S
C803 C807 1.393 . S
C804 H793 0.950 . S
C804 C802 1.391 . S
C804 C805 1.400 . S
C805 C799 1.491 . S
C805 C804 1.400 . S
C805 C806 1.398 . S
C806 H794 0.950 . S
C806 C805 1.398 . S
C806 C807 1.391 . S
C807 H795 0.950 . S
C807 C803 1.393 . S
C807 C806 1.391 . S
H808 C816 0.950 . S
H809 C821 0.950 . S
H810 C818 0.950 . S
H811 C820 0.950 . S
H812 C822 0.950 . S
H813 C824 0.950 . S
H814 C826 0.950 . S
H815 C827 0.950 . S
C816 H808 0.950 . S
C816 C817 1.386 . S
C816 C818 1.391 . S
C817 C816 1.386 . S
C817 C821 1.393 . S
C818 H810 0.950 . S
C818 C816 1.391 . S
C818 C819 1.400 . S
C819 C818 1.400 . S
C819 C820 1.398 . S
C819 C825 1.491 . S
C820 H811 0.950 . S
C820 C819 1.398 . S
C820 C821 1.391 . S
C821 H809 0.950 . S
C821 C817 1.393 . S
C821 C820 1.391 . S
C822 H812 0.950 . S
C822 C823 1.386 . S
C822 C824 1.391 . S
C823 C822 1.386 . S
C823 C827 1.393 . S
C824 H813 0.950 . S
C824 C822 1.391 . S
C824 C825 1.400 . S
C825 C819 1.491 . S
C825 C824 1.400 . S
C825 C826 1.398 . S
C826 H814 0.950 . S
C826 C825 1.398 . S
C826 C827 1.391 . S
C827 H815 0.950 . S
C827 C823 1.393 . S
C827 C826 1.391 . S
H828 C836 0.950 . S
H829 C841 0.950 . S
H830 C838 0.950 . S
H831 C840 0.950 . S
H832 C842 0.950 . S
H833 C844 0.950 . S
H834 C846 0.950 . S
H835 C847 0.950 . S
C836 H828 0.950 . S
C836 C837 1.386 . S
C836 C838 1.391 . S
C837 C836 1.386 . S
C837 C841 1.393 . S
C838 H830 0.950 . S
C838 C836 1.391 . S
C838 C839 1.400 . S
C839 C838 1.400 . S
C839 C840 1.398 . S
C839 C845 1.491 1_556 S
C840 H831 0.950 . S
C840 C839 1.398 . S
C840 C841 1.391 . S
C841 H829 0.950 . S
C841 C837 1.393 . S
C841 C840 1.391 . S
C842 H832 0.950 . S
C842 C843 1.386 . S
C842 C844 1.391 . S
C843 C842 1.386 . S
C843 C847 1.393 . S
C844 H833 0.950 . S
C844 C842 1.391 . S
C844 C845 1.400 . S
C845 C839 1.491 1_554 S
C845 C844 1.400 . S
C845 C846 1.398 . S
C846 H834 0.950 . S
C846 C845 1.398 . S
C846 C847 1.391 . S
C847 H835 0.950 . S
C847 C843 1.393 . S
C847 C846 1.391 . S
H848 C856 0.950 . S
H849 C861 0.950 . S
H850 C858 0.950 . S
H851 C860 0.950 . S
H852 C862 0.950 . S
H853 C864 0.950 . S
H854 C866 0.950 . S
H855 C867 0.950 . S
C856 H848 0.950 . S
C856 C857 1.386 . S
C856 C858 1.391 . S
C857 C856 1.386 . S
C857 C861 1.393 . S
C858 H850 0.950 . S
C858 C856 1.391 . S
C858 C859 1.400 . S
C859 C858 1.400 . S
C859 C860 1.398 . S
C859 C865 1.491 . S
C860 H851 0.950 . S
C860 C859 1.398 . S
C860 C861 1.391 . S
C861 H849 0.950 . S
C861 C857 1.393 . S
C861 C860 1.391 . S
C862 H852 0.950 . S
C862 C863 1.386 . S
C862 C864 1.391 . S
C863 C862 1.386 . S
C863 C867 1.393 . S
C864 H853 0.950 . S
C864 C862 1.391 . S
C864 C865 1.400 . S
C865 C859 1.491 . S
C865 C864 1.400 . S
C865 C866 1.398 . S
C866 H854 0.950 . S
C866 C865 1.398 . S
C866 C867 1.391 . S
C867 H855 0.950 . S
C867 C863 1.393 . S
C867 C866 1.391 . S
H868 C876 0.950 . S
H869 C881 0.950 . S
H870 C878 0.950 . S
H871 C880 0.950 . S
H872 C882 0.950 . S
H873 C884 0.950 . S
H874 C886 0.950 . S
H875 C887 0.950 . S
C876 H868 0.950 . S
C876 C877 1.386 . S
C876 C878 1.391 . S
C877 C876 1.386 . S
C877 C881 1.393 . S
C878 H870 0.950 . S
C878 C876 1.391 . S
C878 C879 1.400 . S
C879 C878 1.400 . S
C879 C880 1.398 . S
C879 C885 1.491 . S
C880 H871 0.950 . S
C880 C879 1.398 . S
C880 C881 1.391 . S
C881 H869 0.950 . S
C881 C877 1.393 . S
C881 C880 1.391 . S
C882 H872 0.950 . S
C882 C883 1.386 . S
C882 C884 1.391 1_565 S
C883 C882 1.386 . S
C883 C887 1.393 . S
C884 H873 0.950 . S
C884 C882 1.391 1_545 S
C884 C885 1.400 . S
C885 C879 1.491 . S
C885 C884 1.400 . S
C885 C886 1.398 1_545 S
C886 H874 0.950 . S
C886 C885 1.398 1_565 S
C886 C887 1.391 . S
C887 H875 0.950 . S
C887 C883 1.393 . S
C887 C886 1.391 . S
H888 C896 0.950 . S
H889 C901 0.950 . S
H890 C898 0.950 . S
H891 C900 0.950 . S
H892 C902 0.950 . S
H893 C904 0.950 . S
H894 C906 0.950 . S
H895 C907 0.950 . S
C896 H888 0.950 . S
C896 C897 1.386 . S
C896 C898 1.391 . S
C897 C896 1.386 . S
C897 C901 1.393 . S
C898 H890 0.950 . S
C898 C896 1.391 . S
C898 C899 1.400 . S
C899 C898 1.400 . S
C899 C900 1.398 . S
C899 C905 1.491 . S
C900 H891 0.950 . S
C900 C899 1.398 . S
C900 C901 1.391 . S
C901 H889 0.950 . S
C901 C897 1.393 . S
C901 C900 1.391 . S
C902 H892 0.950 . S
C902 C903 1.386 . S
C902 C904 1.391 . S
C903 C902 1.386 . S
C903 C907 1.393 . S
C904 H893 0.950 . S
C904 C902 1.391 . S
C904 C905 1.400 . S
C905 C899 1.491 . S
C905 C904 1.400 . S
C905 C906 1.398 . S
C906 H894 0.950 . S
C906 C905 1.398 . S
C906 C907 1.391 . S
C907 H895 0.950 . S
C907 C903 1.393 . S
C907 C906 1.391 . S
H908 C916 0.950 . S
H909 C921 0.950 . S
H910 C918 0.950 . S
H911 C920 0.950 . S
H912 C922 0.950 . S
H913 C924 0.950 . S
H914 C926 0.950 . S
H915 C927 0.950 . S
C916 H908 0.950 . S
C916 C917 1.386 . S
C916 C918 1.391 . S
C917 C916 1.386 . S
C917 C921 1.393 . S
C918 H910 0.950 . S
C918 C916 1.391 . S
C918 C919 1.400 . S
C919 C918 1.400 . S
C919 C920 1.398 . S
C919 C925 1.490 . S
C920 H911 0.950 . S
C920 C919 1.398 . S
C920 C921 1.391 . S
C921 H909 0.950 . S
C921 C917 1.393 . S
C921 C920 1.391 . S
C922 H912 0.950 . S
C922 C923 1.386 . S
C922 C924 1.391 . S
C923 C922 1.386 . S
C923 C927 1.393 . S
C924 H913 0.950 . S
C924 C922 1.391 . S
C924 C925 1.401 1_545 S
C925 C919 1.490 . S
C925 C924 1.401 1_565 S
C925 C926 1.398 . S
C926 H914 0.950 . S
C926 C925 1.398 . S
C926 C927 1.391 1_565 S
C927 H915 0.950 . S
C927 C923 1.393 . S
C927 C926 1.391 1_545 S
H928 C936 0.950 . S
H929 C941 0.950 . S
H930 C938 0.950 . S
H931 C940 0.950 . S
H932 C942 0.950 . S
H933 C944 0.950 . S
H934 C946 0.950 . S
H935 C947 0.950 . S
C936 H928 0.950 . S
C936 C937 1.386 . S
C936 C938 1.391 . S
C937 C936 1.386 . S
C937 C941 1.393 . S
C938 H930 0.950 . S
C938 C936 1.391 . S
C938 C939 1.400 . S
C939 C938 1.400 . S
C939 C940 1.398 . S
C939 C945 1.491 . S
C940 H931 0.950 . S
C940 C939 1.398 . S
C940 C941 1.391 . S
C941 H929 0.950 . S
C941 C937 1.393 . S
C941 C940 1.391 . S
C942 H932 0.950 . S
C942 C943 1.386 . S
C942 C944 1.391 . S
C943 C942 1.386 . S
C943 C947 1.393 . S
C944 H933 0.950 . S
C944 C942 1.391 . S
C944 C945 1.400 . S
C945 C939 1.491 . S
C945 C944 1.400 . S
C945 C946 1.398 . S
C946 H934 0.950 . S
C946 C945 1.398 . S
C946 C947 1.391 . S
C947 H935 0.950 . S
C947 C943 1.393 . S
C947 C946 1.391 . S
H948 C956 0.950 . S
H949 C961 0.950 . S
H950 C958 0.950 . S
H951 C960 0.950 . S
H952 C962 0.950 . S
H953 C964 0.950 . S
H954 C966 0.950 . S
H955 C967 0.950 . S
C956 H948 0.950 . S
C956 C957 1.386 . S
C956 C958 1.391 . S
C957 C956 1.386 . S
C957 C961 1.393 . S
C958 H950 0.950 . S
C958 C956 1.391 . S
C958 C959 1.400 . S
C959 C958 1.400 . S
C959 C960 1.398 . S
C959 C965 1.491 . S
C960 H951 0.950 . S
C960 C959 1.398 . S
C960 C961 1.391 . S
C961 H949 0.950 . S
C961 C957 1.393 . S
C961 C960 1.391 . S
C962 H952 0.950 . S
C962 C963 1.386 . S
C962 C964 1.391 1_565 S
C963 C962 1.386 . S
C963 C967 1.393 . S
C964 H953 0.950 . S
C964 C962 1.391 1_545 S
C964 C965 1.400 . S
C965 C959 1.491 . S
C965 C964 1.400 . S
C965 C966 1.398 1_545 S
C966 H954 0.950 . S
C966 C965 1.398 1_565 S
C966 C967 1.391 . S
C967 H955 0.950 . S
C967 C963 1.393 . S
C967 C966 1.391 . S
H968 C976 0.950 . S
H969 C981 0.950 . S
H970 C978 0.950 . S
H971 C980 0.950 . S
H972 C982 0.950 . S
H973 C984 0.950 . S
H974 C986 0.950 . S
H975 C987 0.950 . S
C976 H968 0.950 . S
C976 C977 1.386 . S
C976 C978 1.391 . S
C977 C976 1.386 . S
C977 C981 1.393 . S
C978 H970 0.950 . S
C978 C976 1.391 . S
C978 C979 1.400 . S
C979 C978 1.400 . S
C979 C980 1.398 . S
C979 C985 1.491 . S
C980 H971 0.950 . S
C980 C979 1.398 . S
C980 C981 1.391 . S
C981 H969 0.950 . S
C981 C977 1.393 . S
C981 C980 1.391 . S
C982 H972 0.950 . S
C982 C983 1.386 . S
C982 C984 1.391 . S
C983 C982 1.386 . S
C983 C987 1.393 . S
C984 H973 0.950 . S
C984 C982 1.391 . S
C984 C985 1.400 . S
C985 C979 1.491 . S
C985 C984 1.400 . S
C985 C986 1.398 . S
C986 H974 0.950 . S
C986 C985 1.398 . S
C986 C987 1.391 . S
C987 H975 0.950 . S
C987 C983 1.393 . S
C987 C986 1.391 . S
H988 C996 0.950 . S
H989 C1001 0.950 . S
H990 C998 0.975 . S
H991 C1000 0.950 . S
H992 C1002 0.950 . S
H993 C1004 0.930 1_565 S
H994 C1006 0.950 . S
H995 C1007 0.950 . S
C996 H988 0.950 . S
C996 C997 1.386 . S
C996 C998 1.391 . S
C997 C996 1.386 . S
C997 C1001 1.393 . S
C998 H990 0.975 . S
C998 C996 1.391 . S
C998 C999 1.400 . S
C999 C998 1.400 . S
C999 C1000 1.398 . S
C999 C1005 1.491 1_565 S
C1000 H991 0.950 . S
C1000 C999 1.398 . S
C1000 C1001 1.391 . S
C1001 H989 0.950 . S
C1001 C997 1.393 . S
C1001 C1000 1.391 . S
C1002 H992 0.950 . S
C1002 C1003 1.386 . S
C1002 C1004 1.409 . S
C1003 C1002 1.386 . S
C1003 C1007 1.393 . S
C1004 H993 0.930 1_545 S
C1004 C1002 1.409 . S
C1004 C1005 1.402 . S
C1005 C999 1.491 1_545 S
C1005 C1004 1.402 . S
C1005 C1006 1.398 . S
C1006 H994 0.950 . S
C1006 C1005 1.398 . S
C1006 C1007 1.391 . S
C1007 H995 0.950 . S
C1007 C1003 1.393 . S
C1007 C1006 1.391 . S
H1008 C1016 0.950 . S
H1009 C1021 0.950 . S
H1010 C1018 0.950 . S
H1011 C1020 0.950 . S
H1012 C1022 0.950 . S
H1013 C1024 0.950 . S
H1014 C1026 0.950 . S
H1015 C1027 0.950 . S
C1016 H1008 0.950 . S
C1016 C1017 1.386 . S
C1016 C1018 1.391 . S
C1017 C1016 1.386 . S
C1017 C1021 1.393 . S
C1018 H1010 0.950 . S
C1018 C1016 1.391 . S
C1018 C1019 1.400 . S
C1019 C1018 1.400 . S
C1019 C1020 1.398 . S
C1019 C1025 1.491 . S
C1020 H1011 0.950 . S
C1020 C1019 1.398 . S
C1020 C1021 1.391 . S
C1021 H1009 0.950 . S
C1021 C1017 1.393 . S
C1021 C1020 1.391 . S
C1022 H1012 0.950 . S
C1022 C1023 1.386 . S
C1022 C1024 1.391 . S
C1023 C1022 1.386 . S
C1023 C1027 1.393 . S
C1024 H1013 0.950 . S
C1024 C1022 1.391 . S
C1024 C1025 1.400 . S
C1025 C1019 1.491 . S
C1025 C1024 1.400 . S
C1025 C1026 1.398 . S
C1026 H1014 0.950 . S
C1026 C1025 1.398 . S
C1026 C1027 1.391 . S
C1027 H1015 0.950 . S
C1027 C1023 1.393 . S
C1027 C1026 1.391 . S
H1028 C1036 0.950 . S
H1029 C1041 0.950 . S
H1030 C1038 0.950 . S
H1031 C1040 0.950 . S
H1032 C1042 0.950 . S
H1033 C1044 0.950 . S
H1034 C1046 0.950 . S
H1035 C1047 0.950 . S
C1036 H1028 0.950 . S
C1036 C1037 1.386 . S
C1036 C1038 1.391 . S
C1037 C1036 1.386 . S
C1037 C1041 1.393 . S
C1038 H1030 0.950 . S
C1038 C1036 1.391 . S
C1038 C1039 1.400 . S
C1039 C1038 1.400 . S
C1039 C1040 1.398 . S
C1039 C1045 1.491 . S
C1040 H1031 0.950 . S
C1040 C1039 1.398 . S
C1040 C1041 1.391 . S
C1041 H1029 0.950 . S
C1041 C1037 1.393 . S
C1041 C1040 1.391 . S
C1042 H1032 0.950 . S
C1042 C1043 1.386 . S
C1042 C1044 1.391 . S
C1043 C1042 1.386 . S
C1043 C1047 1.393 . S
C1044 H1033 0.950 . S
C1044 C1042 1.391 . S
C1044 C1045 1.400 . S
C1045 C1039 1.491 . S
C1045 C1044 1.400 . S
C1045 C1046 1.398 . S
C1046 H1034 0.950 . S
C1046 C1045 1.398 . S
C1046 C1047 1.391 . S
C1047 H1035 0.950 . S
C1047 C1043 1.393 . S
C1047 C1046 1.391 . S
H1048 C1056 0.950 . S
H1049 C1061 0.950 . S
H1050 C1058 0.950 . S
H1051 C1060 0.950 . S
H1052 C1062 0.950 . S
H1053 C1064 0.950 1_455 S
H1054 C1066 0.950 1_455 S
H1055 C1067 0.950 . S
C1056 H1048 0.950 . S
C1056 C1057 1.386 . S
C1056 C1058 1.391 . S
C1057 C1056 1.386 . S
C1057 C1061 1.393 . S
C1058 H1050 0.950 . S
C1058 C1056 1.391 . S
C1058 C1059 1.400 . S
C1059 C1058 1.400 . S
C1059 C1060 1.398 . S
C1059 C1065 1.491 . S
C1060 H1051 0.950 . S
C1060 C1059 1.398 . S
C1060 C1061 1.391 . S
C1061 H1049 0.950 . S
C1061 C1057 1.393 . S
C1061 C1060 1.391 . S
C1062 H1052 0.950 . S
C1062 C1063 1.386 . S
C1062 C1064 1.391 . S
C1063 C1062 1.386 . S
C1063 C1067 1.393 . S
C1064 H1053 0.950 1_655 S
C1064 C1062 1.391 . S
C1064 C1065 1.400 1_655 S
C1065 C1059 1.491 . S
C1065 C1064 1.400 1_455 S
C1065 C1066 1.398 1_455 S
C1066 H1054 0.950 1_655 S
C1066 C1065 1.398 1_655 S
C1066 C1067 1.391 . S
C1067 H1055 0.950 . S
C1067 C1063 1.393 . S
C1067 C1066 1.391 . S
H1068 C1076 0.950 . S
H1069 C1081 0.950 . S
H1070 C1078 0.950 . S
H1071 C1080 0.950 . S
H1072 C1082 0.950 . S
H1073 C1084 0.950 . S
H1074 C1086 0.950 . S
H1075 C1087 0.950 . S
C1076 H1068 0.950 . S
C1076 C1077 1.386 . S
C1076 C1078 1.391 . S
C1077 C1076 1.386 . S
C1077 C1081 1.393 . S
C1078 H1070 0.950 . S
C1078 C1076 1.391 . S
C1078 C1079 1.400 . S
C1079 C1078 1.400 . S
C1079 C1080 1.398 . S
C1079 C1085 1.491 . S
C1080 H1071 0.950 . S
C1080 C1079 1.398 . S
C1080 C1081 1.391 . S
C1081 H1069 0.950 . S
C1081 C1077 1.393 . S
C1081 C1080 1.391 . S
C1082 H1072 0.950 . S
C1082 C1083 1.386 . S
C1082 C1084 1.391 . S
C1083 C1082 1.386 . S
C1083 C1087 1.393 . S
C1084 H1073 0.950 . S
C1084 C1082 1.391 . S
C1084 C1085 1.400 . S
C1085 C1079 1.491 . S
C1085 C1084 1.400 . S
C1085 C1086 1.398 . S
C1086 H1074 0.950 . S
C1086 C1085 1.398 . S
C1086 C1087 1.391 . S
C1087 H1075 0.950 . S
C1087 C1083 1.393 . S
C1087 C1086 1.391 . S
H1088 C1096 0.950 . S
H1089 C1101 0.950 . S
H1090 C1098 0.950 . S
H1091 C1100 0.950 . S
H1092 C1102 0.950 . S
H1093 C1104 0.950 . S
H1094 C1106 0.947 1_655 S
H1095 C1107 0.950 . S
C1096 H1088 0.950 . S
C1096 C1097 1.386 . S
C1096 C1098 1.391 . S
C1097 C1096 1.386 . S
C1097 C1101 1.393 . S
C1098 H1090 0.950 . S
C1098 C1096 1.391 . S
C1098 C1099 1.400 . S
C1099 C1098 1.400 . S
C1099 C1100 1.398 . S
C1099 C1105 1.494 1_655 S
C1100 H1091 0.950 . S
C1100 C1099 1.398 . S
C1100 C1101 1.391 . S
C1101 H1089 0.950 . S
C1101 C1097 1.393 . S
C1101 C1100 1.391 . S
C1102 H1092 0.950 . S
C1102 C1103 1.386 . S
C1102 C1104 1.391 . S
C1103 C1102 1.386 . S
C1103 C1107 1.393 . S
C1104 H1093 0.950 . S
C1104 C1102 1.391 . S
C1104 C1105 1.396 . S
C1105 C1099 1.494 1_455 S
C1105 C1104 1.396 . S
C1105 C1106 1.398 . S
C1106 H1094 0.947 1_455 S
C1106 C1105 1.398 . S
C1106 C1107 1.394 . S
C1107 H1095 0.950 . S
C1107 C1103 1.393 . S
C1107 C1106 1.394 . S
H1108 C1116 0.950 . S
H1109 C1121 0.950 . S
H1110 C1118 0.950 . S
H1111 C1120 0.950 . S
H1112 C1122 0.950 . S
H1113 C1124 0.950 . S
H1114 C1126 0.950 . S
H1115 C1127 0.950 . S
C1116 H1108 0.950 . S
C1116 C1117 1.386 . S
C1116 C1118 1.391 . S
C1117 C1116 1.386 . S
C1117 C1121 1.393 . S
C1118 H1110 0.950 . S
C1118 C1116 1.391 . S
C1118 C1119 1.400 . S
C1119 C1118 1.400 . S
C1119 C1120 1.398 . S
C1119 C1125 1.491 . S
C1120 H1111 0.950 . S
C1120 C1119 1.398 . S
C1120 C1121 1.391 . S
C1121 H1109 0.950 . S
C1121 C1117 1.393 . S
C1121 C1120 1.391 . S
C1122 H1112 0.950 . S
C1122 C1123 1.386 . S
C1122 C1124 1.391 . S
C1123 C1122 1.386 . S
C1123 C1127 1.393 . S
C1124 H1113 0.950 . S
C1124 C1122 1.391 . S
C1124 C1125 1.400 . S
C1125 C1119 1.491 . S
C1125 C1124 1.400 . S
C1125 C1126 1.398 . S
C1126 H1114 0.950 . S
C1126 C1125 1.398 . S
C1126 C1127 1.391 . S
C1127 H1115 0.950 . S
C1127 C1123 1.393 . S
C1127 C1126 1.391 . S
H1128 C1136 0.950 . S
H1129 C1141 0.950 . S
H1130 C1138 0.950 . S
H1131 C1140 0.950 . S
H1132 C1142 0.950 . S
H1133 C1144 0.950 1_455 S
H1134 C1146 0.950 . S
H1135 C1147 0.950 . S
C1136 H1128 0.950 . S
C1136 C1137 1.386 . S
C1136 C1138 1.391 . S
C1137 C1136 1.386 . S
C1137 C1141 1.393 . S
C1138 H1130 0.950 . S
C1138 C1136 1.391 . S
C1138 C1139 1.400 . S
C1139 C1138 1.400 . S
C1139 C1140 1.398 . S
C1139 C1145 1.491 . S
C1140 H1131 0.950 . S
C1140 C1139 1.398 . S
C1140 C1141 1.391 . S
C1141 H1129 0.950 . S
C1141 C1137 1.393 . S
C1141 C1140 1.391 . S
C1142 H1132 0.950 . S
C1142 C1143 1.386 . S
C1142 C1144 1.391 . S
C1143 C1142 1.386 . S
C1143 C1147 1.393 . S
C1144 H1133 0.950 1_655 S
C1144 C1142 1.391 . S
C1144 C1145 1.400 1_655 S
C1145 C1139 1.491 . S
C1145 C1144 1.400 1_455 S
C1145 C1146 1.398 1_455 S
C1146 H1134 0.950 . S
C1146 C1145 1.398 1_655 S
C1146 C1147 1.391 . S
C1147 H1135 0.950 . S
C1147 C1143 1.393 . S
C1147 C1146 1.391 . S
H1148 C1156 0.950 . S
H1149 C1161 0.950 . S
H1150 C1158 0.950 . S
H1151 C1160 0.950 . S
H1152 C1162 0.950 . S
H1153 C1164 0.950 . S
H1154 C1166 0.950 . S
H1155 C1167 0.950 . S
C1156 H1148 0.950 . S
C1156 C1157 1.386 . S
C1156 C1158 1.391 . S
C1157 C1156 1.386 . S
C1157 C1161 1.393 . S
C1158 H1150 0.950 . S
C1158 C1156 1.391 . S
C1158 C1159 1.400 . S
C1159 C1158 1.400 . S
C1159 C1160 1.398 . S
C1159 C1165 1.491 . S
C1160 H1151 0.950 . S
C1160 C1159 1.398 . S
C1160 C1161 1.391 . S
C1161 H1149 0.950 . S
C1161 C1157 1.393 . S
C1161 C1160 1.391 . S
C1162 H1152 0.950 . S
C1162 C1163 1.386 . S
C1162 C1164 1.391 . S
C1163 C1162 1.386 . S
C1163 C1167 1.393 . S
C1164 H1153 0.950 . S
C1164 C1162 1.391 . S
C1164 C1165 1.400 . S
C1165 C1159 1.491 . S
C1165 C1164 1.400 . S
C1165 C1166 1.398 . S
C1166 H1154 0.950 . S
C1166 C1165 1.398 . S
C1166 C1167 1.391 . S
C1167 H1155 0.950 . S
C1167 C1163 1.393 . S
C1167 C1166 1.391 . S
H1168 C1176 0.950 . S
H1169 C1181 0.950 . S
H1170 C1178 0.950 . S
H1171 C1180 0.950 . S
H1172 C1182 0.950 . S
H1173 C1184 0.950 . S
H1174 C1186 0.950 . S
H1175 C1187 0.950 . S
C1176 H1168 0.950 . S
C1176 C1177 1.386 . S
C1176 C1178 1.391 . S
C1177 C1176 1.386 . S
C1177 C1181 1.393 . S
C1178 H1170 0.950 . S
C1178 C1176 1.391 . S
C1178 C1179 1.400 . S
C1179 C1178 1.400 . S
C1179 C1180 1.398 . S
C1179 C1185 1.491 . S
C1180 H1171 0.950 . S
C1180 C1179 1.398 . S
C1180 C1181 1.391 . S
C1181 H1169 0.950 . S
C1181 C1177 1.393 . S
C1181 C1180 1.391 . S
C1182 H1172 0.950 . S
C1182 C1183 1.386 . S
C1182 C1184 1.391 . S
C1183 C1182 1.386 . S
C1183 C1187 1.393 . S
C1184 H1173 0.950 . S
C1184 C1182 1.391 . S
C1184 C1185 1.400 . S
C1185 C1179 1.491 . S
C1185 C1184 1.400 . S
C1185 C1186 1.398 . S
C1186 H1174 0.950 . S
C1186 C1185 1.398 . S
C1186 C1187 1.391 . S
C1187 H1175 0.950 . S
C1187 C1183 1.393 . S
C1187 C1186 1.391 . S
H1188 C1196 0.950 . S
H1189 C1201 0.950 . S
H1190 C1198 0.950 . S
H1191 C1200 0.950 . S
H1192 C1202 0.950 . S
H1193 C1204 0.950 . S
H1194 C1206 0.950 . S
H1195 C1207 0.950 . S
C1196 H1188 0.950 . S
C1196 C1197 1.386 . S
C1196 C1198 1.391 . S
C1197 C1196 1.386 . S
C1197 C1201 1.393 . S
C1198 H1190 0.950 . S
C1198 C1196 1.391 . S
C1198 C1199 1.400 . S
C1199 C1198 1.400 . S
C1199 C1200 1.398 . S
C1199 C1205 1.491 . S
C1200 H1191 0.950 . S
C1200 C1199 1.398 . S
C1200 C1201 1.391 . S
C1201 H1189 0.950 . S
C1201 C1197 1.393 . S
C1201 C1200 1.391 . S
C1202 H1192 0.950 . S
C1202 C1203 1.386 . S
C1202 C1204 1.391 . S
C1203 C1202 1.386 . S
C1203 C1207 1.393 . S
C1204 H1193 0.950 . S
C1204 C1202 1.391 . S
C1204 C1205 1.400 . S
C1205 C1199 1.491 . S
C1205 C1204 1.400 . S
C1205 C1206 1.398 . S
C1206 H1194 0.950 . S
C1206 C1205 1.398 . S
C1206 C1207 1.391 . S
C1207 H1195 0.950 . S
C1207 C1203 1.393 . S
C1207 C1206 1.391 . S
H1208 C1216 0.950 . S
H1209 C1221 0.950 . S
H1210 C1218 0.950 . S
H1211 C1220 0.950 . S
H1212 C1222 0.950 . S
H1213 C1224 0.950 . S
H1214 C1226 0.950 . S
H1215 C1227 0.950 . S
C1216 H1208 0.950 . S
C1216 C1217 1.386 . S
C1216 C1218 1.391 . S
C1217 C1216 1.386 . S
C1217 C1221 1.393 . S
C1218 H1210 0.950 . S
C1218 C1216 1.391 . S
C1218 C1219 1.400 . S
C1219 C1218 1.400 . S
C1219 C1220 1.398 . S
C1219 C1225 1.491 . S
C1220 H1211 0.950 . S
C1220 C1219 1.398 . S
C1220 C1221 1.391 . S
C1221 H1209 0.950 . S
C1221 C1217 1.393 . S
C1221 C1220 1.391 . S
C1222 H1212 0.950 . S
C1222 C1223 1.386 . S
C1222 C1224 1.391 . S
C1223 C1222 1.386 . S
C1223 C1227 1.393 . S
C1224 H1213 0.950 . S
C1224 C1222 1.391 . S
C1224 C1225 1.400 . S
C1225 C1219 1.491 . S
C1225 C1224 1.400 . S
C1225 C1226 1.398 . S
C1226 H1214 0.950 . S
C1226 C1225 1.398 . S
C1226 C1227 1.391 . S
C1227 H1215 0.950 . S
C1227 C1223 1.393 . S
C1227 C1226 1.391 . S
H1228 C1236 0.950 . S
H1229 C1241 0.950 . S
H1230 C1238 0.950 . S
H1231 C1240 0.950 . S
H1232 C1242 0.950 . S
H1233 C1244 0.950 . S
H1234 C1246 0.950 1_556 S
H1235 C1247 0.950 . S
C1236 H1228 0.950 . S
C1236 C1237 1.386 . S
C1236 C1238 1.391 . S
C1237 C1236 1.386 . S
C1237 C1241 1.393 . S
C1238 H1230 0.950 . S
C1238 C1236 1.391 . S
C1238 C1239 1.400 . S
C1239 C1238 1.400 . S
C1239 C1240 1.398 . S
C1239 C1245 1.491 1_556 S
C1240 H1231 0.950 . S
C1240 C1239 1.398 . S
C1240 C1241 1.391 . S
C1241 H1229 0.950 . S
C1241 C1237 1.393 . S
C1241 C1240 1.391 . S
C1242 H1232 0.950 . S
C1242 C1243 1.386 . S
C1242 C1244 1.391 . S
C1243 C1242 1.386 . S
C1243 C1247 1.393 . S
C1244 H1233 0.950 . S
C1244 C1242 1.391 . S
C1244 C1245 1.400 . S
C1245 C1239 1.491 1_554 S
C1245 C1244 1.400 . S
C1245 C1246 1.398 . S
C1246 H1234 0.950 1_554 S
C1246 C1245 1.398 . S
C1246 C1247 1.391 . S
C1247 H1235 0.950 . S
C1247 C1243 1.393 . S
C1247 C1246 1.391 . S
H1248 C1256 0.950 . S
H1249 C1261 0.950 . S
H1250 C1258 0.950 . S
H1251 C1260 0.950 . S
H1252 C1262 0.950 . S
H1253 C1264 0.950 . S
H1254 C1266 0.950 . S
H1255 C1267 0.950 . S
C1256 H1248 0.950 . S
C1256 C1257 1.386 . S
C1256 C1258 1.391 . S
C1257 C1256 1.386 . S
C1257 C1261 1.393 . S
C1258 H1250 0.950 . S
C1258 C1256 1.391 . S
C1258 C1259 1.400 . S
C1259 C1258 1.400 . S
C1259 C1260 1.398 . S
C1259 C1265 1.491 . S
C1260 H1251 0.950 . S
C1260 C1259 1.398 . S
C1260 C1261 1.391 . S
C1261 H1249 0.950 . S
C1261 C1257 1.393 . S
C1261 C1260 1.391 . S
C1262 H1252 0.950 . S
C1262 C1263 1.386 . S
C1262 C1264 1.391 . S
C1263 C1262 1.386 . S
C1263 C1267 1.393 . S
C1264 H1253 0.950 . S
C1264 C1262 1.391 . S
C1264 C1265 1.400 . S
C1265 C1259 1.491 . S
C1265 C1264 1.400 . S
C1265 C1266 1.398 . S
C1266 H1254 0.950 . S
C1266 C1265 1.398 . S
C1266 C1267 1.391 . S
C1267 H1255 0.950 . S
C1267 C1263 1.393 . S
C1267 C1266 1.391 . S
H1268 C1276 0.950 . S
H1269 C1281 0.950 . S
H1270 C1278 0.950 . S
H1271 C1280 0.950 . S
H1272 C1282 0.950 . S
H1273 C1284 0.950 . S
H1274 C1286 0.950 . S
H1275 C1287 0.950 . S
C1276 H1268 0.950 . S
C1276 C1277 1.386 . S
C1276 C1278 1.391 . S
C1277 C1276 1.386 . S
C1277 C1281 1.393 . S
C1278 H1270 0.950 . S
C1278 C1276 1.391 . S
C1278 C1279 1.400 . S
C1279 C1278 1.400 . S
C1279 C1280 1.398 . S
C1279 C1285 1.491 . S
C1280 H1271 0.950 . S
C1280 C1279 1.398 . S
C1280 C1281 1.391 . S
C1281 H1269 0.950 . S
C1281 C1277 1.393 . S
C1281 C1280 1.391 . S
C1282 H1272 0.950 . S
C1282 C1283 1.386 . S
C1282 C1284 1.391 . S
C1283 C1282 1.386 . S
C1283 C1287 1.393 . S
C1284 H1273 0.950 . S
C1284 C1282 1.391 . S
C1284 C1285 1.400 . S
C1285 C1279 1.491 . S
C1285 C1284 1.400 . S
C1285 C1286 1.398 . S
C1286 H1274 0.950 . S
C1286 C1285 1.398 . S
C1286 C1287 1.391 . S
C1287 H1275 0.950 . S
C1287 C1283 1.393 . S
C1287 C1286 1.391 . S
H1288 C1296 0.950 . S
H1289 C1301 0.950 . S
H1290 C1298 0.950 . S
H1291 C1300 0.950 . S
H1292 C1302 0.950 . S
H1293 C1304 0.950 . S
H1294 C1306 0.950 . S
H1295 C1307 0.950 . S
C1296 H1288 0.950 . S
C1296 C1297 1.386 . S
C1296 C1298 1.391 . S
C1297 C1296 1.386 . S
C1297 C1301 1.393 . S
C1298 H1290 0.950 . S
C1298 C1296 1.391 . S
C1298 C1299 1.400 . S
C1299 C1298 1.400 . S
C1299 C1300 1.398 . S
C1299 C1305 1.491 . S
C1300 H1291 0.950 . S
C1300 C1299 1.398 . S
C1300 C1301 1.391 . S
C1301 H1289 0.950 . S
C1301 C1297 1.393 . S
C1301 C1300 1.391 . S
C1302 H1292 0.950 . S
C1302 C1303 1.386 . S
C1302 C1304 1.391 . S
C1303 C1302 1.386 . S
C1303 C1307 1.393 . S
C1304 H1293 0.950 . S
C1304 C1302 1.391 . S
C1304 C1305 1.400 . S
C1305 C1299 1.491 . S
C1305 C1304 1.400 . S
C1305 C1306 1.398 . S
C1306 H1294 0.950 . S
C1306 C1305 1.398 . S
C1306 C1307 1.391 . S
C1307 H1295 0.950 . S
C1307 C1303 1.393 . S
C1307 C1306 1.391 . S
H1308 C1316 0.950 . S
H1309 C1321 0.950 . S
H1310 C1318 0.950 . S
H1311 C1320 0.950 . S
H1312 C1322 0.950 . S
H1313 C1324 0.950 1_554 S
H1314 C1326 0.950 . S
H1315 C1327 0.950 . S
C1316 H1308 0.950 . S
C1316 C1317 1.386 . S
C1316 C1318 1.391 . S
C1317 C1316 1.386 . S
C1317 C1321 1.393 . S
C1318 H1310 0.950 . S
C1318 C1316 1.391 . S
C1318 C1319 1.400 . S
C1319 C1318 1.400 . S
C1319 C1320 1.398 . S
C1319 C1325 1.491 . S
C1320 H1311 0.950 . S
C1320 C1319 1.398 . S
C1320 C1321 1.391 . S
C1321 H1309 0.950 . S
C1321 C1317 1.393 . S
C1321 C1320 1.391 . S
C1322 H1312 0.950 . S
C1322 C1323 1.386 . S
C1322 C1324 1.391 . S
C1323 C1322 1.386 . S
C1323 C1327 1.393 . S
C1324 H1313 0.950 1_556 S
C1324 C1322 1.391 . S
C1324 C1325 1.400 1_556 S
C1325 C1319 1.491 . S
C1325 C1324 1.400 1_554 S
C1325 C1326 1.398 1_554 S
C1326 H1314 0.950 . S
C1326 C1325 1.398 1_556 S
C1326 C1327 1.391 . S
C1327 H1315 0.950 . S
C1327 C1323 1.393 . S
C1327 C1326 1.391 . S
H1328 C1336 0.950 . S
H1329 C1341 0.950 . S
H1330 C1338 0.950 . S
H1331 C1340 0.950 . S
H1332 C1342 0.950 . S
H1333 C1344 0.950 . S
H1334 C1346 0.950 . S
H1335 C1347 0.950 . S
C1336 H1328 0.950 . S
C1336 C1337 1.386 . S
C1336 C1338 1.391 . S
C1337 C1336 1.386 . S
C1337 C1341 1.393 . S
C1338 H1330 0.950 . S
C1338 C1336 1.391 . S
C1338 C1339 1.400 . S
C1339 C1338 1.400 . S
C1339 C1340 1.398 . S
C1339 C1345 1.491 . S
C1340 H1331 0.950 . S
C1340 C1339 1.398 . S
C1340 C1341 1.391 . S
C1341 H1329 0.950 . S
C1341 C1337 1.393 . S
C1341 C1340 1.391 . S
C1342 H1332 0.950 . S
C1342 C1343 1.386 . S
C1342 C1344 1.391 . S
C1343 C1342 1.386 . S
C1343 C1347 1.393 . S
C1344 H1333 0.950 . S
C1344 C1342 1.391 . S
C1344 C1345 1.400 . S
C1345 C1339 1.491 . S
C1345 C1344 1.400 . S
C1345 C1346 1.398 . S
C1346 H1334 0.950 . S
C1346 C1345 1.398 . S
C1346 C1347 1.391 . S
C1347 H1335 0.950 . S
C1347 C1343 1.393 . S
C1347 C1346 1.391 . S
H1348 C1356 0.950 . S
H1349 C1361 0.950 . S
H1350 C1358 0.950 . S
H1351 C1360 0.950 . S
H1352 C1362 0.950 . S
H1353 C1364 0.950 . S
H1354 C1366 0.980 . S
H1355 C1367 0.950 . S
C1356 H1348 0.950 . S
C1356 C1357 1.386 . S
C1356 C1358 1.391 . S
C1357 C1356 1.386 . S
C1357 C1361 1.393 . S
C1358 H1350 0.950 . S
C1358 C1356 1.391 . S
C1358 C1359 1.400 . S
C1359 C1358 1.400 . S
C1359 C1360 1.398 . S
C1359 C1365 1.494 . S
C1360 H1351 0.950 . S
C1360 C1359 1.398 . S
C1360 C1361 1.391 . S
C1361 H1349 0.950 . S
C1361 C1357 1.393 . S
C1361 C1360 1.391 . S
C1362 H1352 0.950 . S
C1362 C1363 1.386 . S
C1362 C1364 1.391 . S
C1363 C1362 1.386 . S
C1363 C1367 1.393 . S
C1364 H1353 0.950 . S
C1364 C1362 1.391 . S
C1364 C1365 1.397 1_545 S
C1365 C1359 1.494 . S
C1365 C1364 1.397 1_565 S
C1365 C1366 1.398 . S
C1366 H1354 0.980 . S
C1366 C1365 1.398 . S
C1366 C1367 1.363 1_565 S
C1367 H1355 0.950 . S
C1367 C1363 1.393 . S
C1367 C1366 1.363 1_545 S
H1368 C1376 0.950 . S
H1369 C1381 0.950 . S
H1370 C1378 0.950 . S
H1371 C1380 0.950 . S
H1372 C1382 0.950 . S
H1373 C1384 0.950 . S
H1374 C1386 0.950 . S
H1375 C1387 0.950 . S
C1376 H1368 0.950 . S
C1376 C1377 1.386 . S
C1376 C1378 1.391 . S
C1377 C1376 1.386 . S
C1377 C1381 1.393 . S
C1378 H1370 0.950 . S
C1378 C1376 1.391 . S
C1378 C1379 1.400 . S
C1379 C1378 1.400 . S
C1379 C1380 1.398 . S
C1379 C1385 1.491 . S
C1380 H1371 0.950 . S
C1380 C1379 1.398 . S
C1380 C1381 1.391 . S
C1381 H1369 0.950 . S
C1381 C1377 1.393 . S
C1381 C1380 1.391 . S
C1382 H1372 0.950 . S
C1382 C1383 1.386 . S
C1382 C1384 1.391 . S
C1383 C1382 1.386 . S
C1383 C1387 1.393 . S
C1384 H1373 0.950 . S
C1384 C1382 1.391 . S
C1384 C1385 1.400 . S
C1385 C1379 1.491 . S
C1385 C1384 1.400 . S
C1385 C1386 1.398 . S
C1386 H1374 0.950 . S
C1386 C1385 1.398 . S
C1386 C1387 1.391 . S
C1387 H1375 0.950 . S
C1387 C1383 1.393 . S
C1387 C1386 1.391 . S
H1388 C1396 0.950 . S
H1389 C1401 0.950 . S
H1390 C1398 0.950 . S
H1391 C1400 0.950 . S
H1392 C1402 0.950 . S
H1393 C1404 0.950 1_545 S
H1394 C1406 0.950 1_545 S
H1395 C1407 0.950 . S
C1396 H1388 0.950 . S
C1396 C1397 1.386 . S
C1396 C1398 1.391 . S
C1397 C1396 1.386 . S
C1397 C1401 1.393 . S
C1398 H1390 0.950 . S
C1398 C1396 1.391 . S
C1398 C1399 1.400 . S
C1399 C1398 1.400 . S
C1399 C1400 1.398 . S
C1399 C1405 1.491 . S
C1400 H1391 0.950 . S
C1400 C1399 1.398 . S
C1400 C1401 1.391 . S
C1401 H1389 0.950 . S
C1401 C1397 1.393 . S
C1401 C1400 1.391 . S
C1402 H1392 0.950 . S
C1402 C1403 1.386 . S
C1402 C1404 1.391 . S
C1403 C1402 1.386 . S
C1403 C1407 1.393 . S
C1404 H1393 0.950 1_565 S
C1404 C1402 1.391 . S
C1404 C1405 1.400 1_565 S
C1405 C1399 1.491 . S
C1405 C1404 1.400 1_545 S
C1405 C1406 1.398 1_545 S
C1406 H1394 0.950 1_565 S
C1406 C1405 1.398 1_565 S
C1406 C1407 1.391 . S
C1407 H1395 0.950 . S
C1407 C1403 1.393 . S
C1407 C1406 1.391 . S
H1408 C1416 0.950 . S
H1409 C1421 0.950 . S
H1410 C1418 0.950 . S
H1411 C1420 0.950 . S
H1412 C1422 0.950 . S
H1413 C1424 0.950 . S
H1414 C1426 0.950 . S
H1415 C1427 0.950 . S
C1416 H1408 0.950 . S
C1416 C1417 1.386 . S
C1416 C1418 1.391 . S
C1417 C1416 1.386 . S
C1417 C1421 1.393 . S
C1418 H1410 0.950 . S
C1418 C1416 1.391 . S
C1418 C1419 1.400 . S
C1419 C1418 1.400 . S
C1419 C1420 1.398 . S
C1419 C1425 1.491 . S
C1420 H1411 0.950 . S
C1420 C1419 1.398 . S
C1420 C1421 1.391 . S
C1421 H1409 0.950 . S
C1421 C1417 1.393 . S
C1421 C1420 1.391 . S
C1422 H1412 0.950 . S
C1422 C1423 1.386 . S
C1422 C1424 1.391 . S
C1423 C1422 1.386 . S
C1423 C1427 1.393 . S
C1424 H1413 0.950 . S
C1424 C1422 1.391 . S
C1424 C1425 1.400 . S
C1425 C1419 1.491 . S
C1425 C1424 1.400 . S
C1425 C1426 1.398 . S
C1426 H1414 0.950 . S
C1426 C1425 1.398 . S
C1426 C1427 1.391 . S
C1427 H1415 0.950 . S
C1427 C1423 1.393 . S
C1427 C1426 1.391 . S
H1428 C1436 0.950 . S
H1429 C1441 0.950 . S
H1430 C1438 0.950 . S
H1431 C1440 0.950 . S
H1432 C1442 0.950 . S
H1433 C1444 0.950 . S
H1434 C1446 0.950 1_565 S
H1435 C1447 0.950 . S
C1436 H1428 0.950 . S
C1436 C1437 1.386 . S
C1436 C1438 1.391 . S
C1437 C1436 1.386 . S
C1437 C1441 1.393 . S
C1438 H1430 0.950 . S
C1438 C1436 1.391 . S
C1438 C1439 1.400 . S
C1439 C1438 1.400 . S
C1439 C1440 1.398 . S
C1439 C1445 1.491 1_565 S
C1440 H1431 0.950 . S
C1440 C1439 1.398 . S
C1440 C1441 1.391 . S
C1441 H1429 0.950 . S
C1441 C1437 1.393 . S
C1441 C1440 1.391 . S
C1442 H1432 0.950 . S
C1442 C1443 1.386 . S
C1442 C1444 1.391 . S
C1443 C1442 1.386 . S
C1443 C1447 1.393 . S
C1444 H1433 0.950 . S
C1444 C1442 1.391 . S
C1444 C1445 1.400 . S
C1445 C1439 1.491 1_545 S
C1445 C1444 1.400 . S
C1445 C1446 1.398 . S
C1446 H1434 0.950 1_545 S
C1446 C1445 1.398 . S
C1446 C1447 1.391 . S
C1447 H1435 0.950 . S
C1447 C1443 1.393 . S
C1447 C1446 1.391 . S
H1448 C1456 0.950 . S
H1449 C1461 0.950 . S
H1450 C1458 0.950 . S
H1451 C1460 0.950 . S
H1452 C1462 0.950 . S
H1453 C1464 0.950 . S
H1454 C1466 0.950 . S
H1455 C1467 0.950 . S
C1456 H1448 0.950 . S
C1456 C1457 1.386 . S
C1456 C1458 1.391 . S
C1457 C1456 1.386 . S
C1457 C1461 1.393 . S
C1458 H1450 0.950 . S
C1458 C1456 1.391 . S
C1458 C1459 1.400 . S
C1459 C1458 1.400 . S
C1459 C1460 1.398 . S
C1459 C1465 1.491 . S
C1460 H1451 0.950 . S
C1460 C1459 1.398 . S
C1460 C1461 1.391 . S
C1461 H1449 0.950 . S
C1461 C1457 1.393 . S
C1461 C1460 1.391 . S
C1462 H1452 0.950 . S
C1462 C1463 1.386 . S
C1462 C1464 1.391 . S
C1463 C1462 1.386 . S
C1463 C1467 1.393 . S
C1464 H1453 0.950 . S
C1464 C1462 1.391 . S
C1464 C1465 1.400 . S
C1465 C1459 1.491 . S
C1465 C1464 1.400 . S
C1465 C1466 1.398 . S
C1466 H1454 0.950 . S
C1466 C1465 1.398 . S
C1466 C1467 1.391 . S
C1467 H1455 0.950 . S
C1467 C1463 1.393 . S
C1467 C1466 1.391 . S
H1468 C1476 0.950 . S
H1469 C1481 0.950 1_554 S
H1470 C1478 0.950 . S
H1471 C1480 0.950 . S
H1472 C1482 0.950 . S
H1473 C1484 0.950 . S
H1474 C1486 0.950 1_545 S
H1475 C1487 0.950 . S
C1476 H1468 0.950 . S
C1476 C1477 1.386 . S
C1476 C1478 1.391 . S
C1477 C1476 1.386 . S
C1477 C1481 1.393 . S
C1478 H1470 0.950 . S
C1478 C1476 1.391 . S
C1478 C1479 1.400 . S
C1479 C1478 1.400 . S
C1479 C1480 1.398 . S
C1479 C1485 1.491 . S
C1480 H1471 0.950 . S
C1480 C1479 1.398 . S
C1480 C1481 1.391 . S
C1481 H1469 0.950 1_556 S
C1481 C1477 1.393 . S
C1481 C1480 1.391 . S
C1482 H1472 0.950 . S
C1482 C1483 1.386 . S
C1482 C1484 1.391 . S
C1483 C1482 1.386 . S
C1483 C1487 1.393 . S
C1484 H1473 0.950 . S
C1484 C1482 1.391 . S
C1484 C1485 1.400 1_565 S
C1485 C1479 1.491 . S
C1485 C1484 1.400 1_545 S
C1485 C1486 1.398 1_545 S
C1486 H1474 0.950 1_565 S
C1486 C1485 1.398 1_565 S
C1486 C1487 1.391 . S
C1487 H1475 0.950 . S
C1487 C1483 1.393 . S
C1487 C1486 1.391 . S
H1488 C1496 0.950 . S
H1489 C1501 0.950 . S
H1490 C1498 0.950 . S
H1491 C1500 0.950 . S
H1492 C1502 0.950 . S
H1493 C1504 0.950 . S
H1494 C1506 0.950 . S
H1495 C1507 0.950 . S
C1496 H1488 0.950 . S
C1496 C1497 1.386 . S
C1496 C1498 1.391 . S
C1497 C1496 1.386 . S
C1497 C1501 1.393 . S
C1498 H1490 0.950 . S
C1498 C1496 1.391 . S
C1498 C1499 1.400 . S
C1499 C1498 1.400 . S
C1499 C1500 1.398 . S
C1499 C1505 1.491 . S
C1500 H1491 0.950 . S
C1500 C1499 1.398 . S
C1500 C1501 1.391 . S
C1501 H1489 0.950 . S
C1501 C1497 1.393 . S
C1501 C1500 1.391 . S
C1502 H1492 0.950 . S
C1502 C1503 1.386 . S
C1502 C1504 1.391 . S
C1503 C1502 1.386 . S
C1503 C1507 1.393 . S
C1504 H1493 0.950 . S
C1504 C1502 1.391 . S
C1504 C1505 1.400 . S
C1505 C1499 1.491 . S
C1505 C1504 1.400 . S
C1505 C1506 1.398 . S
C1506 H1494 0.950 . S
C1506 C1505 1.398 . S
C1506 C1507 1.391 . S
C1507 H1495 0.950 . S
C1507 C1503 1.393 . S
C1507 C1506 1.391 . S
H1508 C1516 0.950 . S
H1509 C1521 0.950 . S
H1510 C1518 0.950 . S
H1511 C1520 0.950 . S
H1512 C1522 0.950 . S
H1513 C1524 0.950 . S
H1514 C1526 0.950 . S
H1515 C1527 0.950 . S
C1516 H1508 0.950 . S
C1516 C1517 1.386 . S
C1516 C1518 1.391 . S
C1517 C1516 1.386 . S
C1517 C1521 1.393 . S
C1518 H1510 0.950 . S
C1518 C1516 1.391 . S
C1518 C1519 1.400 . S
C1519 C1518 1.400 . S
C1519 C1520 1.398 . S
C1519 C1525 1.491 . S
C1520 H1511 0.950 . S
C1520 C1519 1.398 . S
C1520 C1521 1.391 . S
C1521 H1509 0.950 . S
C1521 C1517 1.393 . S
C1521 C1520 1.391 . S
C1522 H1512 0.950 . S
C1522 C1523 1.386 . S
C1522 C1524 1.391 . S
C1523 C1522 1.386 . S
C1523 C1527 1.393 . S
C1524 H1513 0.950 . S
C1524 C1522 1.391 . S
C1524 C1525 1.400 . S
C1525 C1519 1.491 . S
C1525 C1524 1.400 . S
C1525 C1526 1.398 . S
C1526 H1514 0.950 . S
C1526 C1525 1.398 . S
C1526 C1527 1.391 . S
C1527 H1515 0.950 . S
C1527 C1523 1.393 . S
C1527 C1526 1.391 . S
H1528 C1536 0.950 . S
H1529 C1541 0.950 . S
H1530 C1538 0.950 . S
H1531 C1540 0.950 . S
H1532 C1542 0.950 . S
H1533 C1544 0.944 1_655 S
H1534 C1546 0.950 . S
H1535 C1547 0.950 . S
C1536 H1528 0.950 . S
C1536 C1537 1.386 . S
C1536 C1538 1.391 . S
C1537 C1536 1.386 . S
C1537 C1541 1.393 . S
C1538 H1530 0.950 . S
C1538 C1536 1.391 . S
C1538 C1539 1.400 . S
C1539 C1538 1.400 . S
C1539 C1540 1.398 . S
C1539 C1545 1.481 1_655 S
C1540 H1531 0.950 . S
C1540 C1539 1.398 . S
C1540 C1541 1.391 . S
C1541 H1529 0.950 . S
C1541 C1537 1.393 . S
C1541 C1540 1.391 . S
C1542 H1532 0.950 . S
C1542 C1543 1.386 . S
C1542 C1544 1.391 . S
C1543 C1542 1.386 . S
C1543 C1547 1.393 . S
C1544 H1533 0.944 1_455 S
C1544 C1542 1.391 . S
C1544 C1545 1.404 . S
C1545 C1539 1.481 1_455 S
C1545 C1544 1.404 . S
C1545 C1546 1.405 . S
C1546 H1534 0.950 . S
C1546 C1545 1.405 . S
C1546 C1547 1.391 . S
C1547 H1535 0.950 . S
C1547 C1543 1.393 . S
C1547 C1546 1.391 . S
H1548 C1556 0.950 . S
H1549 C1561 0.950 . S
H1550 C1558 0.950 . S
H1551 C1560 0.950 . S
H1552 C1562 0.950 . S
H1553 C1564 0.950 . S
H1554 C1566 0.950 . S
H1555 C1567 0.950 . S
C1556 H1548 0.950 . S
C1556 C1557 1.386 . S
C1556 C1558 1.391 . S
C1557 C1556 1.386 . S
C1557 C1561 1.393 . S
C1558 H1550 0.950 . S
C1558 C1556 1.391 . S
C1558 C1559 1.400 . S
C1559 C1558 1.400 . S
C1559 C1560 1.398 . S
C1559 C1565 1.491 . S
C1560 H1551 0.950 . S
C1560 C1559 1.398 . S
C1560 C1561 1.391 . S
C1561 H1549 0.950 . S
C1561 C1557 1.393 . S
C1561 C1560 1.391 . S
C1562 H1552 0.950 . S
C1562 C1563 1.386 . S
C1562 C1564 1.391 . S
C1563 C1562 1.386 . S
C1563 C1567 1.393 . S
C1564 H1553 0.950 . S
C1564 C1562 1.391 . S
C1564 C1565 1.400 . S
C1565 C1559 1.491 . S
C1565 C1564 1.400 . S
C1565 C1566 1.398 . S
C1566 H1554 0.950 . S
C1566 C1565 1.398 . S
C1566 C1567 1.391 . S
C1567 H1555 0.950 . S
C1567 C1563 1.393 . S
C1567 C1566 1.391 . S
H1568 C1576 0.950 . S
H1569 C1581 0.950 . S
H1570 C1578 0.950 . S
H1571 C1580 0.950 . S
H1572 C1582 0.950 . S
H1573 C1584 0.950 . S
H1574 C1586 0.950 . S
H1575 C1587 0.950 . S
C1576 H1568 0.950 . S
C1576 C1577 1.386 . S
C1576 C1578 1.391 . S
C1577 C1576 1.386 . S
C1577 C1581 1.393 . S
C1578 H1570 0.950 . S
C1578 C1576 1.391 . S
C1578 C1579 1.400 . S
C1579 C1578 1.400 . S
C1579 C1580 1.398 . S
C1579 C1585 1.491 . S
C1580 H1571 0.950 . S
C1580 C1579 1.398 . S
C1580 C1581 1.391 . S
C1581 H1569 0.950 . S
C1581 C1577 1.393 . S
C1581 C1580 1.391 . S
C1582 H1572 0.950 . S
C1582 C1583 1.386 . S
C1582 C1584 1.391 1_655 S
C1583 C1582 1.386 . S
C1583 C1587 1.393 . S
C1584 H1573 0.950 . S
C1584 C1582 1.391 1_455 S
C1584 C1585 1.400 . S
C1585 C1579 1.491 . S
C1585 C1584 1.400 . S
C1585 C1586 1.398 1_455 S
C1586 H1574 0.950 . S
C1586 C1585 1.398 1_655 S
C1586 C1587 1.391 . S
C1587 H1575 0.950 . S
C1587 C1583 1.393 . S
C1587 C1586 1.391 . S
H1588 C1596 0.950 . S
H1589 C1601 0.950 . S
H1590 C1598 0.950 . S
H1591 C1600 0.950 . S
H1592 C1602 0.950 . S
H1593 C1604 0.950 . S
H1594 C1606 0.950 . S
H1595 C1607 0.950 . S
C1596 H1588 0.950 . S
C1596 C1597 1.386 . S
C1596 C1598 1.391 . S
C1597 C1596 1.386 . S
C1597 C1601 1.393 . S
C1598 H1590 0.950 . S
C1598 C1596 1.391 . S
C1598 C1599 1.400 . S
C1599 C1598 1.400 . S
C1599 C1600 1.398 . S
C1599 C1605 1.491 . S
C1600 H1591 0.950 . S
C1600 C1599 1.398 . S
C1600 C1601 1.391 . S
C1601 H1589 0.950 . S
C1601 C1597 1.393 . S
C1601 C1600 1.391 . S
C1602 H1592 0.950 . S
C1602 C1603 1.386 . S
C1602 C1604 1.391 . S
C1603 C1602 1.386 . S
C1603 C1607 1.393 . S
C1604 H1593 0.950 . S
C1604 C1602 1.391 . S
C1604 C1605 1.400 . S
C1605 C1599 1.491 . S
C1605 C1604 1.400 . S
C1605 C1606 1.398 . S
C1606 H1594 0.950 . S
C1606 C1605 1.398 . S
C1606 C1607 1.391 . S
C1607 H1595 0.950 . S
C1607 C1603 1.393 . S
C1607 C1606 1.391 . S
H1608 C1616 0.950 . S
H1609 C1621 0.950 . S
H1610 C1618 0.950 . S
H1611 C1620 0.950 . S
H1612 C1622 0.950 . S
H1613 C1624 0.950 . S
H1614 C1626 0.950 . S
H1615 C1627 0.950 . S
C1616 H1608 0.950 . S
C1616 C1617 1.386 . S
C1616 C1618 1.391 . S
C1617 C1616 1.386 . S
C1617 C1621 1.393 . S
C1618 H1610 0.950 . S
C1618 C1616 1.391 . S
C1618 C1619 1.400 . S
C1619 C1618 1.400 . S
C1619 C1620 1.398 . S
C1619 C1625 1.486 1_655 S
C1620 H1611 0.950 . S
C1620 C1619 1.398 . S
C1620 C1621 1.391 . S
C1621 H1609 0.950 . S
C1621 C1617 1.393 . S
C1621 C1620 1.391 . S
C1622 H1612 0.950 . S
C1622 C1623 1.386 . S
C1622 C1624 1.391 . S
C1623 C1622 1.386 . S
C1623 C1627 1.393 . S
C1624 H1613 0.950 . S
C1624 C1622 1.391 . S
C1624 C1625 1.406 . S
C1625 C1619 1.486 1_455 S
C1625 C1624 1.406 . S
C1625 C1626 1.398 1_455 S
C1626 H1614 0.950 . S
C1626 C1625 1.398 1_655 S
C1626 C1627 1.391 1_655 S
C1627 H1615 0.950 . S
C1627 C1623 1.393 . S
C1627 C1626 1.391 1_455 S
H1628 C1636 0.950 . S
H1629 C1641 0.950 . S
H1630 C1638 0.950 . S
H1631 C1640 0.950 . S
H1632 C1642 0.950 . S
H1633 C1644 0.950 . S
H1634 C1646 0.950 . S
H1635 C1647 0.950 . S
C1636 H1628 0.950 . S
C1636 C1637 1.386 . S
C1636 C1638 1.391 . S
C1637 C1636 1.386 . S
C1637 C1641 1.393 . S
C1638 H1630 0.950 . S
C1638 C1636 1.391 . S
C1638 C1639 1.400 . S
C1639 C1638 1.400 . S
C1639 C1640 1.398 . S
C1639 C1645 1.491 . S
C1640 H1631 0.950 . S
C1640 C1639 1.398 . S
C1640 C1641 1.391 . S
C1641 H1629 0.950 . S
C1641 C1637 1.393 . S
C1641 C1640 1.391 . S
C1642 H1632 0.950 . S
C1642 C1643 1.386 . S
C1642 C1644 1.391 . S
C1643 C1642 1.386 . S
C1643 C1647 1.393 . S
C1644 H1633 0.950 . S
C1644 C1642 1.391 . S
C1644 C1645 1.400 . S
C1645 C1639 1.491 . S
C1645 C1644 1.400 . S
C1645 C1646 1.398 . S
C1646 H1634 0.950 . S
C1646 C1645 1.398 . S
C1646 C1647 1.391 . S
C1647 H1635 0.950 . S
C1647 C1643 1.393 . S
C1647 C1646 1.391 . S
H1648 C1656 0.950 . S
H1649 C1661 0.950 . S
H1650 C1658 0.950 . S
H1651 C1660 0.950 . S
H1652 C1662 0.950 . S
H1653 C1664 0.950 . S
H1654 C1666 0.950 . S
H1655 C1667 0.950 . S
C1656 H1648 0.950 . S
C1656 C1657 1.386 . S
C1656 C1658 1.391 . S
C1657 C1656 1.386 . S
C1657 C1661 1.393 . S
C1658 H1650 0.950 . S
C1658 C1656 1.391 . S
C1658 C1659 1.400 . S
C1659 C1658 1.400 . S
C1659 C1660 1.398 . S
C1659 C1665 1.491 . S
C1660 H1651 0.950 . S
C1660 C1659 1.398 . S
C1660 C1661 1.391 . S
C1661 H1649 0.950 . S
C1661 C1657 1.393 . S
C1661 C1660 1.391 . S
C1662 H1652 0.950 . S
C1662 C1663 1.386 . S
C1662 C1664 1.391 . S
C1663 C1662 1.386 . S
C1663 C1667 1.393 . S
C1664 H1653 0.950 . S
C1664 C1662 1.391 . S
C1664 C1665 1.400 . S
C1665 C1659 1.491 . S
C1665 C1664 1.400 . S
C1665 C1666 1.398 . S
C1666 H1654 0.950 . S
C1666 C1665 1.398 . S
C1666 C1667 1.391 . S
C1667 H1655 0.950 . S
C1667 C1663 1.393 . S
C1667 C1666 1.391 . S
H1668 C1676 0.950 . S
H1669 C1681 0.950 . S
H1670 C1678 0.950 . S
H1671 C1680 0.950 . S
H1672 C1682 0.950 . S
H1673 C1684 0.951 1_554 S
H1674 C1686 0.950 . S
H1675 C1687 0.950 . S
C1676 H1668 0.950 . S
C1676 C1677 1.386 . S
C1676 C1678 1.391 . S
C1677 C1676 1.386 . S
C1677 C1681 1.393 . S
C1678 H1670 0.950 . S
C1678 C1676 1.391 . S
C1678 C1679 1.400 . S
C1679 C1678 1.400 . S
C1679 C1680 1.398 . S
C1679 C1685 1.491 . S
C1680 H1671 0.950 . S
C1680 C1679 1.398 . S
C1680 C1681 1.391 . S
C1681 H1669 0.950 . S
C1681 C1677 1.393 . S
C1681 C1680 1.391 . S
C1682 H1672 0.950 . S
C1682 C1683 1.386 . S
C1682 C1684 1.390 . S
C1683 C1682 1.386 . S
C1683 C1687 1.393 . S
C1684 H1673 0.951 1_556 S
C1684 C1682 1.390 . S
C1684 C1685 1.401 1_556 S
C1685 C1679 1.491 . S
C1685 C1684 1.401 1_554 S
C1685 C1686 1.398 1_554 S
C1686 H1674 0.950 . S
C1686 C1685 1.398 1_556 S
C1686 C1687 1.391 . S
C1687 H1675 0.950 . S
C1687 C1683 1.393 . S
C1687 C1686 1.391 . S
H1688 C1696 0.950 . S
H1689 C1701 0.950 . S
H1690 C1698 0.950 . S
H1691 C1700 0.950 . S
H1692 C1702 0.950 . S
H1693 C1704 0.950 . S
H1694 C1706 0.950 . S
H1695 C1707 0.950 . S
C1696 H1688 0.950 . S
C1696 C1697 1.386 . S
C1696 C1698 1.391 . S
C1697 C1696 1.386 . S
C1697 C1701 1.393 . S
C1698 H1690 0.950 . S
C1698 C1696 1.391 . S
C1698 C1699 1.400 . S
C1699 C1698 1.400 . S
C1699 C1700 1.398 . S
C1699 C1705 1.491 . S
C1700 H1691 0.950 . S
C1700 C1699 1.398 . S
C1700 C1701 1.391 . S
C1701 H1689 0.950 . S
C1701 C1697 1.393 . S
C1701 C1700 1.391 . S
C1702 H1692 0.950 . S
C1702 C1703 1.386 . S
C1702 C1704 1.391 . S
C1703 C1702 1.386 . S
C1703 C1707 1.393 . S
C1704 H1693 0.950 . S
C1704 C1702 1.391 . S
C1704 C1705 1.400 . S
C1705 C1699 1.491 . S
C1705 C1704 1.400 . S
C1705 C1706 1.398 . S
C1706 H1694 0.950 . S
C1706 C1705 1.398 . S
C1706 C1707 1.391 . S
C1707 H1695 0.950 . S
C1707 C1703 1.393 . S
C1707 C1706 1.391 . S
H1708 C1716 0.950 . S
H1709 C1721 0.950 . S
H1710 C1718 0.950 . S
H1711 C1720 0.950 . S
H1712 C1722 0.950 . S
H1713 C1724 0.950 . S
H1714 C1726 0.950 . S
H1715 C1727 0.950 . S
C1716 H1708 0.950 . S
C1716 C1717 1.386 . S
C1716 C1718 1.391 . S
C1717 C1716 1.386 . S
C1717 C1721 1.393 . S
C1718 H1710 0.950 . S
C1718 C1716 1.391 . S
C1718 C1719 1.400 . S
C1719 C1718 1.400 . S
C1719 C1720 1.398 . S
C1719 C1725 1.491 . S
C1720 H1711 0.950 . S
C1720 C1719 1.398 . S
C1720 C1721 1.391 . S
C1721 H1709 0.950 . S
C1721 C1717 1.393 . S
C1721 C1720 1.391 . S
C1722 H1712 0.950 . S
C1722 C1723 1.386 . S
C1722 C1724 1.391 . S
C1723 C1722 1.386 . S
C1723 C1727 1.393 . S
C1724 H1713 0.950 . S
C1724 C1722 1.391 . S
C1724 C1725 1.400 . S
C1725 C1719 1.491 . S
C1725 C1724 1.400 . S
C1725 C1726 1.398 . S
C1726 H1714 0.950 . S
C1726 C1725 1.398 . S
C1726 C1727 1.391 . S
C1727 H1715 0.950 . S
C1727 C1723 1.393 . S
C1727 C1726 1.391 . S
H1728 C1736 0.950 . S
H1729 C1741 0.950 . S
H1730 C1738 0.950 . S
H1731 C1740 0.950 . S
H1732 C1742 0.950 . S
H1733 C1744 0.950 . S
H1734 C1746 0.950 . S
H1735 C1747 0.950 . S
C1736 H1728 0.950 . S
C1736 C1737 1.386 . S
C1736 C1738 1.391 . S
C1737 C1736 1.386 . S
C1737 C1741 1.393 . S
C1738 H1730 0.950 . S
C1738 C1736 1.391 . S
C1738 C1739 1.400 . S
C1739 C1738 1.400 . S
C1739 C1740 1.398 . S
C1739 C1745 1.491 . S
C1740 H1731 0.950 . S
C1740 C1739 1.398 . S
C1740 C1741 1.391 . S
C1741 H1729 0.950 . S
C1741 C1737 1.393 . S
C1741 C1740 1.391 . S
C1742 H1732 0.950 . S
C1742 C1743 1.386 . S
C1742 C1744 1.391 . S
C1743 C1742 1.386 . S
C1743 C1747 1.393 . S
C1744 H1733 0.950 . S
C1744 C1742 1.391 . S
C1744 C1745 1.400 . S
C1745 C1739 1.491 . S
C1745 C1744 1.400 . S
C1745 C1746 1.398 . S
C1746 H1734 0.950 . S
C1746 C1745 1.398 . S
C1746 C1747 1.391 . S
C1747 H1735 0.950 . S
C1747 C1743 1.393 . S
C1747 C1746 1.391 . S
H1748 C1756 0.950 . S
H1749 C1761 0.950 . S
H1750 C1758 0.950 . S
H1751 C1760 0.950 . S
H1752 C1762 0.950 . S
H1753 C1764 0.950 1_556 S
H1754 C1766 0.950 . S
H1755 C1767 0.950 . S
C1756 H1748 0.950 . S
C1756 C1757 1.386 . S
C1756 C1758 1.391 . S
C1757 C1756 1.386 . S
C1757 C1761 1.393 . S
C1758 H1750 0.950 . S
C1758 C1756 1.391 . S
C1758 C1759 1.400 . S
C1759 C1758 1.400 . S
C1759 C1760 1.398 . S
C1759 C1765 1.508 . S
C1760 H1751 0.950 . S
C1760 C1759 1.398 . S
C1760 C1761 1.391 . S
C1761 H1749 0.950 . S
C1761 C1757 1.393 . S
C1761 C1760 1.391 . S
C1762 H1752 0.950 . S
C1762 C1763 1.386 . S
C1762 C1764 1.391 . S
C1763 C1762 1.386 . S
C1763 C1767 1.393 . S
C1764 H1753 0.950 1_554 S
C1764 C1762 1.391 . S
C1764 C1765 1.397 1_554 S
C1765 C1759 1.508 . S
C1765 C1764 1.397 1_556 S
C1765 C1766 1.384 1_556 S
C1766 H1754 0.950 . S
C1766 C1765 1.384 1_554 S
C1766 C1767 1.391 . S
C1767 H1755 0.950 . S
C1767 C1763 1.393 . S
C1767 C1766 1.391 . S
H1768 C1776 0.950 . S
H1769 C1781 0.950 . S
H1770 C1778 0.950 . S
H1771 C1780 0.950 . S
H1772 C1782 0.950 . S
H1773 C1784 0.950 . S
H1774 C1786 0.950 . S
H1775 C1787 0.950 . S
C1776 H1768 0.950 . S
C1776 C1777 1.386 . S
C1776 C1778 1.391 . S
C1777 C1776 1.386 . S
C1777 C1781 1.393 . S
C1778 H1770 0.950 . S
C1778 C1776 1.391 . S
C1778 C1779 1.400 . S
C1779 C1778 1.400 . S
C1779 C1780 1.398 . S
C1779 C1785 1.491 . S
C1780 H1771 0.950 . S
C1780 C1779 1.398 . S
C1780 C1781 1.391 . S
C1781 H1769 0.950 . S
C1781 C1777 1.393 . S
C1781 C1780 1.391 . S
C1782 H1772 0.950 . S
C1782 C1783 1.386 . S
C1782 C1784 1.391 . S
C1783 C1782 1.386 . S
C1783 C1787 1.393 . S
C1784 H1773 0.950 . S
C1784 C1782 1.391 . S
C1784 C1785 1.400 . S
C1785 C1779 1.491 . S
C1785 C1784 1.400 . S
C1785 C1786 1.398 . S
C1786 H1774 0.950 . S
C1786 C1785 1.398 . S
C1786 C1787 1.391 . S
C1787 H1775 0.950 . S
C1787 C1783 1.393 . S
C1787 C1786 1.391 . S
H1788 C1796 0.950 . S
H1789 C1801 0.950 . S
H1790 C1798 0.950 . S
H1791 C1800 0.950 . S
H1792 C1802 0.950 . S
H1793 C1804 0.950 . S
H1794 C1806 0.950 . S
H1795 C1807 0.950 . S
C1796 H1788 0.950 . S
C1796 C1797 1.386 . S
C1796 C1798 1.391 . S
C1797 C1796 1.386 . S
C1797 C1801 1.393 . S
C1798 H1790 0.950 . S
C1798 C1796 1.391 . S
C1798 C1799 1.400 . S
C1799 C1798 1.400 . S
C1799 C1800 1.398 . S
C1799 C1805 1.491 . S
C1800 H1791 0.950 . S
C1800 C1799 1.398 . S
C1800 C1801 1.391 . S
C1801 H1789 0.950 . S
C1801 C1797 1.393 . S
C1801 C1800 1.391 . S
C1802 H1792 0.950 . S
C1802 C1803 1.386 . S
C1802 C1804 1.391 . S
C1803 C1802 1.386 . S
C1803 C1807 1.393 . S
C1804 H1793 0.950 . S
C1804 C1802 1.391 . S
C1804 C1805 1.400 . S
C1805 C1799 1.491 . S
C1805 C1804 1.400 . S
C1805 C1806 1.398 . S
C1806 H1794 0.950 . S
C1806 C1805 1.398 . S
C1806 C1807 1.391 . S
C1807 H1795 0.950 . S
C1807 C1803 1.393 . S
C1807 C1806 1.391 . S
H1808 C1816 0.950 . S
H1809 C1821 0.950 . S
H1810 C1818 0.950 . S
H1811 C1820 0.950 . S
H1812 C1822 0.950 . S
H1813 C1824 0.950 . S
H1814 C1826 0.950 . S
H1815 C1827 0.950 . S
C1816 H1808 0.950 . S
C1816 C1817 1.386 . S
C1816 C1818 1.391 . S
C1817 C1816 1.386 . S
C1817 C1821 1.393 . S
C1818 H1810 0.950 . S
C1818 C1816 1.391 . S
C1818 C1819 1.400 . S
C1819 C1818 1.400 . S
C1819 C1820 1.398 . S
C1819 C1825 1.491 . S
C1820 H1811 0.950 . S
C1820 C1819 1.398 . S
C1820 C1821 1.391 . S
C1821 H1809 0.950 . S
C1821 C1817 1.393 . S
C1821 C1820 1.391 . S
C1822 H1812 0.950 . S
C1822 C1823 1.386 . S
C1822 C1824 1.391 . S
C1823 C1822 1.386 . S
C1823 C1827 1.393 . S
C1824 H1813 0.950 . S
C1824 C1822 1.391 . S
C1824 C1825 1.400 . S
C1825 C1819 1.491 . S
C1825 C1824 1.400 . S
C1825 C1826 1.398 . S
C1826 H1814 0.950 . S
C1826 C1825 1.398 . S
C1826 C1827 1.391 . S
C1827 H1815 0.950 . S
C1827 C1823 1.393 . S
C1827 C1826 1.391 . S
H1828 C1836 0.950 . S
H1829 C1841 0.950 . S
H1830 C1838 0.950 . S
H1831 C1840 0.950 . S
H1832 C1842 0.950 . S
H1833 C1844 0.950 . S
H1834 C1846 0.950 . S
H1835 C1847 0.950 . S
C1836 H1828 0.950 . S
C1836 C1837 1.386 . S
C1836 C1838 1.391 . S
C1837 C1836 1.386 . S
C1837 C1841 1.393 . S
C1838 H1830 0.950 . S
C1838 C1836 1.391 . S
C1838 C1839 1.400 . S
C1839 C1838 1.400 . S
C1839 C1840 1.398 . S
C1839 C1845 1.491 . S
C1840 H1831 0.950 . S
C1840 C1839 1.398 . S
C1840 C1841 1.391 . S
C1841 H1829 0.950 . S
C1841 C1837 1.393 . S
C1841 C1840 1.391 . S
C1842 H1832 0.950 . S
C1842 C1843 1.386 . S
C1842 C1844 1.391 . S
C1843 C1842 1.386 . S
C1843 C1847 1.393 . S
C1844 H1833 0.950 . S
C1844 C1842 1.391 . S
C1844 C1845 1.400 . S
C1845 C1839 1.491 . S
C1845 C1844 1.400 . S
C1845 C1846 1.398 . S
C1846 H1834 0.950 . S
C1846 C1845 1.398 . S
C1846 C1847 1.391 . S
C1847 H1835 0.950 . S
C1847 C1843 1.393 . S
C1847 C1846 1.391 . S
H1848 C1856 0.950 . S
H1849 C1861 0.950 . S
H1850 C1858 0.950 . S
H1851 C1860 0.950 . S
H1852 C1862 0.950 . S
H1853 C1864 0.950 . S
H1854 C1866 0.950 . S
H1855 C1867 0.950 . S
C1856 H1848 0.950 . S
C1856 C1857 1.386 . S
C1856 C1858 1.391 . S
C1857 C1856 1.386 . S
C1857 C1861 1.393 . S
C1858 H1850 0.950 . S
C1858 C1856 1.391 . S
C1858 C1859 1.400 . S
C1859 C1858 1.400 . S
C1859 C1860 1.398 . S
C1859 C1865 1.491 . S
C1860 H1851 0.950 . S
C1860 C1859 1.398 . S
C1860 C1861 1.391 . S
C1861 H1849 0.950 . S
C1861 C1857 1.393 . S
C1861 C1860 1.391 . S
C1862 H1852 0.950 . S
C1862 C1863 1.386 . S
C1862 C1864 1.391 . S
C1863 C1862 1.386 . S
C1863 C1867 1.393 . S
C1864 H1853 0.950 . S
C1864 C1862 1.391 . S
C1864 C1865 1.400 . S
C1865 C1859 1.491 . S
C1865 C1864 1.400 . S
C1865 C1866 1.398 . S
C1866 H1854 0.950 . S
C1866 C1865 1.398 . S
C1866 C1867 1.391 . S
C1867 H1855 0.950 . S
C1867 C1863 1.393 . S
C1867 C1866 1.391 . S
H1868 C1876 0.950 . S
H1869 C1881 0.950 . S
H1870 C1878 0.950 . S
H1871 C1880 0.950 . S
H1872 C1882 0.950 . S
H1873 C1884 0.950 . S
H1874 C1886 0.950 . S
H1875 C1887 0.950 . S
C1876 H1868 0.950 . S
C1876 C1877 1.386 . S
C1876 C1878 1.391 . S
C1877 C1876 1.386 . S
C1877 C1881 1.393 . S
C1878 H1870 0.950 . S
C1878 C1876 1.391 . S
C1878 C1879 1.400 . S
C1879 C1878 1.400 . S
C1879 C1880 1.398 . S
C1879 C1885 1.491 . S
C1880 H1871 0.950 . S
C1880 C1879 1.398 . S
C1880 C1881 1.391 . S
C1881 H1869 0.950 . S
C1881 C1877 1.393 . S
C1881 C1880 1.391 . S
C1882 H1872 0.950 . S
C1882 C1883 1.386 . S
C1882 C1884 1.391 . S
C1883 C1882 1.386 . S
C1883 C1887 1.393 . S
C1884 H1873 0.950 . S
C1884 C1882 1.391 . S
C1884 C1885 1.400 . S
C1885 C1879 1.491 . S
C1885 C1884 1.400 . S
C1885 C1886 1.398 . S
C1886 H1874 0.950 . S
C1886 C1885 1.398 . S
C1886 C1887 1.391 . S
C1887 H1875 0.950 . S
C1887 C1883 1.393 . S
C1887 C1886 1.391 . S
H1888 C1896 0.950 . S
H1889 C1901 0.950 . S
H1890 C1898 0.950 . S
H1891 C1900 0.950 . S
H1892 C1902 0.950 . S
H1893 C1904 0.950 . S
H1894 C1906 0.950 . S
H1895 C1907 0.950 . S
C1896 H1888 0.950 . S
C1896 C1897 1.386 . S
C1896 C1898 1.391 . S
C1897 C1896 1.386 . S
C1897 C1901 1.393 . S
C1898 H1890 0.950 . S
C1898 C1896 1.391 . S
C1898 C1899 1.400 . S
C1899 C1898 1.400 . S
C1899 C1900 1.398 . S
C1899 C1905 1.491 . S
C1900 H1891 0.950 . S
C1900 C1899 1.398 . S
C1900 C1901 1.391 . S
C1901 H1889 0.950 . S
C1901 C1897 1.393 . S
C1901 C1900 1.391 . S
C1902 H1892 0.950 . S
C1902 C1903 1.386 . S
C1902 C1904 1.391 . S
C1903 C1902 1.386 . S
C1903 C1907 1.393 . S
C1904 H1893 0.950 . S
C1904 C1902 1.391 . S
C1904 C1905 1.400 . S
C1905 C1899 1.491 . S
C1905 C1904 1.400 . S
C1905 C1906 1.398 . S
C1906 H1894 0.950 . S
C1906 C1905 1.398 . S
C1906 C1907 1.391 . S
C1907 H1895 0.950 . S
C1907 C1903 1.393 . S
C1907 C1906 1.391 . S
H1908 C1916 0.950 . S
H1909 C1921 0.950 . S
H1910 C1918 0.950 . S
H1911 C1920 0.950 . S
H1912 C1922 0.950 . S
H1913 C1924 0.950 . S
H1914 C1926 0.950 . S
H1915 C1927 0.950 . S
C1916 H1908 0.950 . S
C1916 C1917 1.386 . S
C1916 C1918 1.391 . S
C1917 C1916 1.386 . S
C1917 C1921 1.393 . S
C1918 H1910 0.950 . S
C1918 C1916 1.391 . S
C1918 C1919 1.400 . S
C1919 C1918 1.400 . S
C1919 C1920 1.398 . S
C1919 C1925 1.491 . S
C1920 H1911 0.950 . S
C1920 C1919 1.398 . S
C1920 C1921 1.391 . S
C1921 H1909 0.950 . S
C1921 C1917 1.393 . S
C1921 C1920 1.391 . S
C1922 H1912 0.950 . S
C1922 C1923 1.386 . S
C1922 C1924 1.391 . S
C1923 C1922 1.386 . S
C1923 C1927 1.393 . S
C1924 H1913 0.950 . S
C1924 C1922 1.391 . S
C1924 C1925 1.400 . S
C1925 C1919 1.491 . S
C1925 C1924 1.400 . S
C1925 C1926 1.398 . S
C1926 H1914 0.950 . S
C1926 C1925 1.398 . S
C1926 C1927 1.391 . S
C1927 H1915 0.950 . S
C1927 C1923 1.393 . S
C1927 C1926 1.391 . S
H1928 C1936 0.950 . S
H1929 C1941 0.950 . S
H1930 C1938 0.950 . S
H1931 C1940 0.950 . S
H1932 C1942 0.950 . S
H1933 C1944 0.950 . S
H1934 C1946 0.950 . S
H1935 C1947 0.950 . S
C1936 H1928 0.950 . S
C1936 C1937 1.386 . S
C1936 C1938 1.391 . S
C1937 C1936 1.386 . S
C1937 C1941 1.393 . S
C1938 H1930 0.950 . S
C1938 C1936 1.391 . S
C1938 C1939 1.400 . S
C1939 C1938 1.400 . S
C1939 C1940 1.398 . S
C1939 C1945 1.491 . S
C1940 H1931 0.950 . S
C1940 C1939 1.398 . S
C1940 C1941 1.391 . S
C1941 H1929 0.950 . S
C1941 C1937 1.393 . S
C1941 C1940 1.391 . S
C1942 H1932 0.950 . S
C1942 C1943 1.386 . S
C1942 C1944 1.391 . S
C1943 C1942 1.386 . S
C1943 C1947 1.393 . S
C1944 H1933 0.950 . S
C1944 C1942 1.391 . S
C1944 C1945 1.400 . S
C1945 C1939 1.491 . S
C1945 C1944 1.400 . S
C1945 C1946 1.398 . S
C1946 H1934 0.950 . S
C1946 C1945 1.398 . S
C1946 C1947 1.391 . S
C1947 H1935 0.950 . S
C1947 C1943 1.393 . S
C1947 C1946 1.391 . S
H1948 C1956 0.950 . S
H1949 C1961 0.950 . S
H1950 C1958 0.950 . S
H1951 C1960 0.950 . S
H1952 C1962 0.950 . S
H1953 C1964 0.950 . S
H1954 C1966 0.950 . S
H1955 C1967 0.950 . S
C1956 H1948 0.950 . S
C1956 C1957 1.386 . S
C1956 C1958 1.391 . S
C1957 C1956 1.386 . S
C1957 C1961 1.393 . S
C1958 H1950 0.950 . S
C1958 C1956 1.391 . S
C1958 C1959 1.400 . S
C1959 C1958 1.400 . S
C1959 C1960 1.398 . S
C1959 C1965 1.491 . S
C1960 H1951 0.950 . S
C1960 C1959 1.398 . S
C1960 C1961 1.391 . S
C1961 H1949 0.950 . S
C1961 C1957 1.393 . S
C1961 C1960 1.391 . S
C1962 H1952 0.950 . S
C1962 C1963 1.386 . S
C1962 C1964 1.391 . S
C1963 C1962 1.386 . S
C1963 C1967 1.393 . S
C1964 H1953 0.950 . S
C1964 C1962 1.391 . S
C1964 C1965 1.400 . S
C1965 C1959 1.491 . S
C1965 C1964 1.400 . S
C1965 C1966 1.398 . S
C1966 H1954 0.950 . S
C1966 C1965 1.398 . S
C1966 C1967 1.391 . S
C1967 H1955 0.950 . S
C1967 C1963 1.393 . S
C1967 C1966 1.391 . S
H1968 C1976 0.950 . S
H1969 C1981 0.950 . S
H1970 C1978 0.950 . S
H1971 C1980 0.950 . S
H1972 C1982 0.950 . S
H1973 C1984 0.950 . S
H1974 C1986 0.950 . S
H1975 C1987 0.950 . S
C1976 H1968 0.950 . S
C1976 C1977 1.386 . S
C1976 C1978 1.391 . S
C1977 C1976 1.386 . S
C1977 C1981 1.393 . S
C1978 H1970 0.950 . S
C1978 C1976 1.391 . S
C1978 C1979 1.400 . S
C1979 C1978 1.400 . S
C1979 C1980 1.398 . S
C1979 C1985 1.491 . S
C1980 H1971 0.950 . S
C1980 C1979 1.398 . S
C1980 C1981 1.391 . S
C1981 H1969 0.950 . S
C1981 C1977 1.393 . S
C1981 C1980 1.391 . S
C1982 H1972 0.950 . S
C1982 C1983 1.386 . S
C1982 C1984 1.391 . S
C1983 C1982 1.386 . S
C1983 C1987 1.393 . S
C1984 H1973 0.950 . S
C1984 C1982 1.391 . S
C1984 C1985 1.400 . S
C1985 C1979 1.491 . S
C1985 C1984 1.400 . S
C1985 C1986 1.398 . S
C1986 H1974 0.950 . S
C1986 C1985 1.398 . S
C1986 C1987 1.391 . S
C1987 H1975 0.950 . S
C1987 C1983 1.393 . S
C1987 C1986 1.391 . S
H1988 C1996 0.950 . S
H1989 C2001 0.950 . S
H1990 C1998 0.950 . S
H1991 C2000 0.950 . S
H1992 C2002 0.950 . S
H1993 C2004 0.950 . S
H1994 C2006 0.950 . S
H1995 C2007 0.950 . S
C1996 H1988 0.950 . S
C1996 C1997 1.386 . S
C1996 C1998 1.391 . S
C1997 C1996 1.386 . S
C1997 C2001 1.393 . S
C1998 H1990 0.950 . S
C1998 C1996 1.391 . S
C1998 C1999 1.400 . S
C1999 C1998 1.400 . S
C1999 C2000 1.398 . S
C1999 C2005 1.491 . S
C2000 H1991 0.950 . S
C2000 C1999 1.398 . S
C2000 C2001 1.391 . S
C2001 H1989 0.950 . S
C2001 C1997 1.393 . S
C2001 C2000 1.391 . S
C2002 H1992 0.950 . S
C2002 C2003 1.386 . S
C2002 C2004 1.391 . S
C2003 C2002 1.386 . S
C2003 C2007 1.393 . S
C2004 H1993 0.950 . S
C2004 C2002 1.391 . S
C2004 C2005 1.400 . S
C2005 C1999 1.491 . S
C2005 C2004 1.400 . S
C2005 C2006 1.398 . S
C2006 H1994 0.950 . S
C2006 C2005 1.398 . S
C2006 C2007 1.391 . S
C2007 H1995 0.950 . S
C2007 C2003 1.393 . S
C2007 C2006 1.391 . S
H2008 C2016 0.950 . S
H2009 C2021 0.950 . S
H2010 C2018 0.950 . S
H2011 C2020 0.950 . S
H2012 C2022 0.950 . S
H2013 C2024 0.950 . S
H2014 C2026 0.950 . S
H2015 C2027 0.950 . S
C2016 H2008 0.950 . S
C2016 C2017 1.386 . S
C2016 C2018 1.391 . S
C2017 C2016 1.386 . S
C2017 C2021 1.393 . S
C2018 H2010 0.950 . S
C2018 C2016 1.391 . S
C2018 C2019 1.400 . S
C2019 C2018 1.400 . S
C2019 C2020 1.398 . S
C2019 C2025 1.491 . S
C2020 H2011 0.950 . S
C2020 C2019 1.398 . S
C2020 C2021 1.391 . S
C2021 H2009 0.950 . S
C2021 C2017 1.393 . S
C2021 C2020 1.391 . S
C2022 H2012 0.950 . S
C2022 C2023 1.386 . S
C2022 C2024 1.391 . S
C2023 C2022 1.386 . S
C2023 C2027 1.393 . S
C2024 H2013 0.950 . S
C2024 C2022 1.391 . S
C2024 C2025 1.400 . S
C2025 C2019 1.491 . S
C2025 C2024 1.400 . S
C2025 C2026 1.398 . S
C2026 H2014 0.950 . S
C2026 C2025 1.398 . S
C2026 C2027 1.391 . S
C2027 H2015 0.950 . S
C2027 C2023 1.393 . S
C2027 C2026 1.391 . S
H2028 C2036 0.950 . S
H2029 C2041 0.950 . S
H2030 C2038 0.950 . S
H2031 C2040 0.950 . S
H2032 C2042 0.950 . S
H2033 C2044 0.950 . S
H2034 C2046 0.950 . S
H2035 C2047 0.950 . S
C2036 H2028 0.950 . S
C2036 C2037 1.386 . S
C2036 C2038 1.391 . S
C2037 C2036 1.386 . S
C2037 C2041 1.393 . S
C2038 H2030 0.950 . S
C2038 C2036 1.391 . S
C2038 C2039 1.400 . S
C2039 C2038 1.400 . S
C2039 C2040 1.398 . S
C2039 C2045 1.491 . S
C2040 H2031 0.950 . S
C2040 C2039 1.398 . S
C2040 C2041 1.391 . S
C2041 H2029 0.950 . S
C2041 C2037 1.393 . S
C2041 C2040 1.391 . S
C2042 H2032 0.950 . S
C2042 C2043 1.386 . S
C2042 C2044 1.391 . S
C2043 C2042 1.386 . S
C2043 C2047 1.393 . S
C2044 H2033 0.950 . S
C2044 C2042 1.391 . S
C2044 C2045 1.400 . S
C2045 C2039 1.491 . S
C2045 C2044 1.400 . S
C2045 C2046 1.398 . S
C2046 H2034 0.950 . S
C2046 C2045 1.398 . S
C2046 C2047 1.391 . S
C2047 H2035 0.950 . S
C2047 C2043 1.393 . S
C2047 C2046 1.391 . S
H2048 C2056 0.950 . S
H2049 C2061 0.950 . S
H2050 C2058 0.950 . S
H2051 C2060 0.950 . S
H2052 C2062 0.950 . S
H2053 C2064 0.950 . S
H2054 C2066 0.950 . S
H2055 C2067 0.950 . S
C2056 H2048 0.950 . S
C2056 C2057 1.386 . S
C2056 C2058 1.391 . S
C2057 C2056 1.386 . S
C2057 C2061 1.393 . S
C2058 H2050 0.950 . S
C2058 C2056 1.391 . S
C2058 C2059 1.400 . S
C2059 C2058 1.400 . S
C2059 C2060 1.398 . S
C2059 C2065 1.491 . S
C2060 H2051 0.950 . S
C2060 C2059 1.398 . S
C2060 C2061 1.391 . S
C2061 H2049 0.950 . S
C2061 C2057 1.393 . S
C2061 C2060 1.391 . S
C2062 H2052 0.950 . S
C2062 C2063 1.386 . S
C2062 C2064 1.391 . S
C2063 C2062 1.386 . S
C2063 C2067 1.393 . S
C2064 H2053 0.950 . S
C2064 C2062 1.391 . S
C2064 C2065 1.400 . S
C2065 C2059 1.491 . S
C2065 C2064 1.400 . S
C2065 C2066 1.398 . S
C2066 H2054 0.950 . S
C2066 C2065 1.398 . S
C2066 C2067 1.391 . S
C2067 H2055 0.950 . S
C2067 C2063 1.393 . S
C2067 C2066 1.391 . S
H2068 C2076 0.950 . S
H2069 C2081 0.950 . S
H2070 C2078 0.950 . S
H2071 C2080 0.950 . S
H2072 C2082 0.950 . S
H2073 C2084 0.950 . S
H2074 C2086 0.950 . S
H2075 C2087 0.950 . S
C2076 H2068 0.950 . S
C2076 C2077 1.386 . S
C2076 C2078 1.391 . S
C2077 C2076 1.386 . S
C2077 C2081 1.393 . S
C2078 H2070 0.950 . S
C2078 C2076 1.391 . S
C2078 C2079 1.400 . S
C2079 C2078 1.400 . S
C2079 C2080 1.398 . S
C2079 C2085 1.491 . S
C2080 H2071 0.950 . S
C2080 C2079 1.398 . S
C2080 C2081 1.391 . S
C2081 H2069 0.950 . S
C2081 C2077 1.393 . S
C2081 C2080 1.391 . S
C2082 H2072 0.950 . S
C2082 C2083 1.386 . S
C2082 C2084 1.391 . S
C2083 C2082 1.386 . S
C2083 C2087 1.393 . S
C2084 H2073 0.950 . S
C2084 C2082 1.391 . S
C2084 C2085 1.400 . S
C2085 C2079 1.491 . S
C2085 C2084 1.400 . S
C2085 C2086 1.398 . S
C2086 H2074 0.950 . S
C2086 C2085 1.398 . S
C2086 C2087 1.391 . S
C2087 H2075 0.950 . S
C2087 C2083 1.393 . S
C2087 C2086 1.391 . S
H2088 C2096 0.950 . S
H2089 C2101 0.950 . S
H2090 C2098 0.950 . S
H2091 C2100 0.950 . S
H2092 C2102 0.950 . S
H2093 C2104 0.950 . S
H2094 C2106 0.950 . S
H2095 C2107 0.950 . S
C2096 H2088 0.950 . S
C2096 C2097 1.386 . S
C2096 C2098 1.391 . S
C2097 C2096 1.386 . S
C2097 C2101 1.393 . S
C2098 H2090 0.950 . S
C2098 C2096 1.391 . S
C2098 C2099 1.400 . S
C2099 C2098 1.400 . S
C2099 C2100 1.398 . S
C2099 C2105 1.491 . S
C2100 H2091 0.950 . S
C2100 C2099 1.398 . S
C2100 C2101 1.391 . S
C2101 H2089 0.950 . S
C2101 C2097 1.393 . S
C2101 C2100 1.391 . S
C2102 H2092 0.950 . S
C2102 C2103 1.386 . S
C2102 C2104 1.391 . S
C2103 C2102 1.386 . S
C2103 C2107 1.393 . S
C2104 H2093 0.950 . S
C2104 C2102 1.391 . S
C2104 C2105 1.400 . S
C2105 C2099 1.491 . S
C2105 C2104 1.400 . S
C2105 C2106 1.398 . S
C2106 H2094 0.950 . S
C2106 C2105 1.398 . S
C2106 C2107 1.391 . S
C2107 H2095 0.950 . S
C2107 C2103 1.393 . S
C2107 C2106 1.391 . S
H2108 C2116 0.950 . S
H2109 C2121 0.950 . S
H2110 C2118 0.950 . S
H2111 C2120 0.950 . S
H2112 C2122 0.950 . S
H2113 C2124 0.950 . S
H2114 C2126 0.950 1_655 S
H2115 C2127 0.950 . S
C2116 H2108 0.950 . S
C2116 C2117 1.386 . S
C2116 C2118 1.391 . S
C2117 C2116 1.386 . S
C2117 C2121 1.393 . S
C2118 H2110 0.950 . S
C2118 C2116 1.391 . S
C2118 C2119 1.400 . S
C2119 C2118 1.400 . S
C2119 C2120 1.398 . S
C2119 C2125 1.470 1_655 S
C2120 H2111 0.950 . S
C2120 C2119 1.398 . S
C2120 C2121 1.391 . S
C2121 H2109 0.950 . S
C2121 C2117 1.393 . S
C2121 C2120 1.391 . S
C2122 H2112 0.950 . S
C2122 C2123 1.386 . S
C2122 C2124 1.391 . S
C2123 C2122 1.386 . S
C2123 C2127 1.393 . S
C2124 H2113 0.950 . S
C2124 C2122 1.391 . S
C2124 C2125 1.417 . S
C2125 C2119 1.470 1_455 S
C2125 C2124 1.417 . S
C2125 C2126 1.404 . S
C2126 H2114 0.950 1_455 S
C2126 C2125 1.404 . S
C2126 C2127 1.391 . S
C2127 H2115 0.950 . S
C2127 C2123 1.393 . S
C2127 C2126 1.391 . S
H2128 C2136 0.950 . S
H2129 C2141 0.950 . S
H2130 C2138 0.950 . S
H2131 C2140 0.950 . S
H2132 C2142 0.950 . S
H2133 C2144 0.950 . S
H2134 C2146 0.950 . S
H2135 C2147 0.950 . S
C2136 H2128 0.950 . S
C2136 C2137 1.386 . S
C2136 C2138 1.391 . S
C2137 C2136 1.386 . S
C2137 C2141 1.393 . S
C2138 H2130 0.950 . S
C2138 C2136 1.391 . S
C2138 C2139 1.400 . S
C2139 C2138 1.400 . S
C2139 C2140 1.398 . S
C2139 C2145 1.491 . S
C2140 H2131 0.950 . S
C2140 C2139 1.398 . S
C2140 C2141 1.391 . S
C2141 H2129 0.950 . S
C2141 C2137 1.393 . S
C2141 C2140 1.391 . S
C2142 H2132 0.950 . S
C2142 C2143 1.386 . S
C2142 C2144 1.391 . S
C2143 C2142 1.386 . S
C2143 C2147 1.393 . S
C2144 H2133 0.950 . S
C2144 C2142 1.391 . S
C2144 C2145 1.400 . S
C2145 C2139 1.491 . S
C2145 C2144 1.400 . S
C2145 C2146 1.398 . S
C2146 H2134 0.950 . S
C2146 C2145 1.398 . S
C2146 C2147 1.391 . S
C2147 H2135 0.950 . S
C2147 C2143 1.393 . S
C2147 C2146 1.391 . S
H2148 C2156 0.950 . S
H2149 C2161 0.950 . S
H2150 C2158 0.950 . S
H2151 C2160 0.950 . S
H2152 C2162 0.950 . S
H2153 C2164 0.950 1_556 S
H2154 C2166 0.950 . S
H2155 C2167 0.950 . S
C2156 H2148 0.950 . S
C2156 C2157 1.386 . S
C2156 C2158 1.391 . S
C2157 C2156 1.386 . S
C2157 C2161 1.393 . S
C2158 H2150 0.950 . S
C2158 C2156 1.391 . S
C2158 C2159 1.400 . S
C2159 C2158 1.400 . S
C2159 C2160 1.398 . S
C2159 C2165 1.491 1_556 S
C2160 H2151 0.950 . S
C2160 C2159 1.398 . S
C2160 C2161 1.391 . S
C2161 H2149 0.950 . S
C2161 C2157 1.393 . S
C2161 C2160 1.391 . S
C2162 H2152 0.950 . S
C2162 C2163 1.386 . S
C2162 C2164 1.391 . S
C2163 C2162 1.386 . S
C2163 C2167 1.393 . S
C2164 H2153 0.950 1_554 S
C2164 C2162 1.391 . S
C2164 C2165 1.400 . S
C2165 C2159 1.491 1_554 S
C2165 C2164 1.400 . S
C2165 C2166 1.398 . S
C2166 H2154 0.950 . S
C2166 C2165 1.398 . S
C2166 C2167 1.391 . S
C2167 H2155 0.950 . S
C2167 C2163 1.393 . S
C2167 C2166 1.391 . S
H2168 C2176 0.950 . S
H2169 C2181 0.950 . S
H2170 C2178 0.950 . S
H2171 C2180 0.950 . S
H2172 C2182 0.950 . S
H2173 C2184 0.950 . S
H2174 C2186 0.950 . S
H2175 C2187 0.950 . S
C2176 H2168 0.950 . S
C2176 C2177 1.386 . S
C2176 C2178 1.391 . S
C2177 C2176 1.386 . S
C2177 C2181 1.393 . S
C2178 H2170 0.950 . S
C2178 C2176 1.391 . S
C2178 C2179 1.400 . S
C2179 C2178 1.400 . S
C2179 C2180 1.398 . S
C2179 C2185 1.491 . S
C2180 H2171 0.950 . S
C2180 C2179 1.398 . S
C2180 C2181 1.391 . S
C2181 H2169 0.950 . S
C2181 C2177 1.393 . S
C2181 C2180 1.391 . S
C2182 H2172 0.950 . S
C2182 C2183 1.386 . S
C2182 C2184 1.391 . S
C2183 C2182 1.386 . S
C2183 C2187 1.393 . S
C2184 H2173 0.950 . S
C2184 C2182 1.391 . S
C2184 C2185 1.400 . S
C2185 C2179 1.491 . S
C2185 C2184 1.400 . S
C2185 C2186 1.398 . S
C2186 H2174 0.950 . S
C2186 C2185 1.398 . S
C2186 C2187 1.391 . S
C2187 H2175 0.950 . S
C2187 C2183 1.393 . S
C2187 C2186 1.391 . S
H2188 C2196 0.950 . S
H2189 C2201 0.950 . S
H2190 C2198 0.950 . S
H2191 C2200 0.950 . S
H2192 C2202 0.950 . S
H2193 C2204 0.950 . S
H2194 C2206 0.950 . S
H2195 C2207 0.950 . S
C2196 H2188 0.950 . S
C2196 C2197 1.386 . S
C2196 C2198 1.391 . S
C2197 C2196 1.386 . S
C2197 C2201 1.393 . S
C2198 H2190 0.950 . S
C2198 C2196 1.391 . S
C2198 C2199 1.400 . S
C2199 C2198 1.400 . S
C2199 C2200 1.398 . S
C2199 C2205 1.491 . S
C2200 H2191 0.950 . S
C2200 C2199 1.398 . S
C2200 C2201 1.391 . S
C2201 H2189 0.950 . S
C2201 C2197 1.393 . S
C2201 C2200 1.391 . S
C2202 H2192 0.950 . S
C2202 C2203 1.386 . S
C2202 C2204 1.391 . S
C2203 C2202 1.386 . S
C2203 C2207 1.393 . S
C2204 H2193 0.950 . S
C2204 C2202 1.391 . S
C2204 C2205 1.400 . S
C2205 C2199 1.491 . S
C2205 C2204 1.400 . S
C2205 C2206 1.398 . S
C2206 H2194 0.950 . S
C2206 C2205 1.398 . S
C2206 C2207 1.391 . S
C2207 H2195 0.950 . S
C2207 C2203 1.393 . S
C2207 C2206 1.391 . S
H2208 C2216 0.950 . S
H2209 C2221 0.950 . S
H2210 C2218 0.950 . S
H2211 C2220 0.950 . S
H2212 C2222 0.950 . S
H2213 C2224 0.950 . S
H2214 C2226 0.950 . S
H2215 C2227 0.950 . S
C2216 H2208 0.950 . S
C2216 C2217 1.386 . S
C2216 C2218 1.391 . S
C2217 C2216 1.386 . S
C2217 C2221 1.393 . S
C2218 H2210 0.950 . S
C2218 C2216 1.391 . S
C2218 C2219 1.400 . S
C2219 C2218 1.400 . S
C2219 C2220 1.398 . S
C2219 C2225 1.491 . S
C2220 H2211 0.950 . S
C2220 C2219 1.398 . S
C2220 C2221 1.391 . S
C2221 H2209 0.950 . S
C2221 C2217 1.393 . S
C2221 C2220 1.391 . S
C2222 H2212 0.950 . S
C2222 C2223 1.386 . S
C2222 C2224 1.391 . S
C2223 C2222 1.386 . S
C2223 C2227 1.393 . S
C2224 H2213 0.950 . S
C2224 C2222 1.391 . S
C2224 C2225 1.400 . S
C2225 C2219 1.491 . S
C2225 C2224 1.400 . S
C2225 C2226 1.398 . S
C2226 H2214 0.950 . S
C2226 C2225 1.398 . S
C2226 C2227 1.391 . S
C2227 H2215 0.950 . S
C2227 C2223 1.393 . S
C2227 C2226 1.391 . S
H2228 C2236 0.950 1_655 S
H2229 C2241 0.950 . S
H2230 C2238 0.950 . S
H2231 C2240 0.950 . S
H2232 C2242 0.950 . S
H2233 C2244 0.966 . S
H2234 C2246 0.950 . S
H2235 C2247 0.950 . S
C2236 H2228 0.950 1_455 S
C2236 C2237 1.386 . S
C2236 C2238 1.391 . S
C2237 C2236 1.386 . S
C2237 C2241 1.393 . S
C2238 H2230 0.950 . S
C2238 C2236 1.391 . S
C2238 C2239 1.400 . S
C2239 C2238 1.400 . S
C2239 C2240 1.398 . S
C2239 C2245 1.491 . S
C2240 H2231 0.950 . S
C2240 C2239 1.398 . S
C2240 C2241 1.391 . S
C2241 H2229 0.950 . S
C2241 C2237 1.393 . S
C2241 C2240 1.391 . S
C2242 H2232 0.950 . S
C2242 C2243 1.386 . S
C2242 C2244 1.373 1_556 S
C2243 C2242 1.386 . S
C2243 C2247 1.393 . S
C2244 H2233 0.966 . S
C2244 C2242 1.373 1_554 S
C2244 C2245 1.403 . S
C2245 C2239 1.491 . S
C2245 C2244 1.403 . S
C2245 C2246 1.398 1_554 S
C2246 H2234 0.950 . S
C2246 C2245 1.398 1_556 S
C2246 C2247 1.391 . S
C2247 H2235 0.950 . S
C2247 C2243 1.393 . S
C2247 C2246 1.391 . S
H2248 C2256 0.950 . S
H2249 C2261 0.950 . S
H2250 C2258 0.950 . S
H2251 C2260 0.950 . S
H2252 C2262 0.950 . S
H2253 C2264 0.950 . S
H2254 C2266 0.950 . S
H2255 C2267 0.950 . S
C2256 H2248 0.950 . S
C2256 C2257 1.386 . S
C2256 C2258 1.391 . S
C2257 C2256 1.386 . S
C2257 C2261 1.393 . S
C2258 H2250 0.950 . S
C2258 C2256 1.391 . S
C2258 C2259 1.400 . S
C2259 C2258 1.400 . S
C2259 C2260 1.398 . S
C2259 C2265 1.491 . S
C2260 H2251 0.950 . S
C2260 C2259 1.398 . S
C2260 C2261 1.391 . S
C2261 H2249 0.950 . S
C2261 C2257 1.393 . S
C2261 C2260 1.391 . S
C2262 H2252 0.950 . S
C2262 C2263 1.386 . S
C2262 C2264 1.391 . S
C2263 C2262 1.386 . S
C2263 C2267 1.393 . S
C2264 H2253 0.950 . S
C2264 C2262 1.391 . S
C2264 C2265 1.400 . S
C2265 C2259 1.491 . S
C2265 C2264 1.400 . S
C2265 C2266 1.398 . S
C2266 H2254 0.950 . S
C2266 C2265 1.398 . S
C2266 C2267 1.391 . S
C2267 H2255 0.950 . S
C2267 C2263 1.393 . S
C2267 C2266 1.391 . S
H2268 C2276 0.950 . S
H2269 C2281 0.950 . S
H2270 C2278 0.950 . S
H2271 C2280 0.950 . S
H2272 C2282 0.950 . S
H2273 C2284 0.950 . S
H2274 C2286 0.950 . S
H2275 C2287 0.950 . S
C2276 H2268 0.950 . S
C2276 C2277 1.386 . S
C2276 C2278 1.391 . S
C2277 C2276 1.386 . S
C2277 C2281 1.393 . S
C2278 H2270 0.950 . S
C2278 C2276 1.391 . S
C2278 C2279 1.400 . S
C2279 C2278 1.400 . S
C2279 C2280 1.398 . S
C2279 C2285 1.491 . S
C2280 H2271 0.950 . S
C2280 C2279 1.398 . S
C2280 C2281 1.391 . S
C2281 H2269 0.950 . S
C2281 C2277 1.393 . S
C2281 C2280 1.391 . S
C2282 H2272 0.950 . S
C2282 C2283 1.386 . S
C2282 C2284 1.391 . S
C2283 C2282 1.386 . S
C2283 C2287 1.393 . S
C2284 H2273 0.950 . S
C2284 C2282 1.391 . S
C2284 C2285 1.400 . S
C2285 C2279 1.491 . S
C2285 C2284 1.400 . S
C2285 C2286 1.398 . S
C2286 H2274 0.950 . S
C2286 C2285 1.398 . S
C2286 C2287 1.391 . S
C2287 H2275 0.950 . S
C2287 C2283 1.393 . S
C2287 C2286 1.391 . S
H2288 C2296 0.950 . S
H2289 C2301 0.950 . S
H2290 C2298 0.950 . S
H2291 C2300 0.950 . S
H2292 C2302 0.950 . S
H2293 C2304 0.950 . S
H2294 C2306 0.950 . S
H2295 C2307 0.950 . S
C2296 H2288 0.950 . S
C2296 C2297 1.386 . S
C2296 C2298 1.391 . S
C2297 C2296 1.386 . S
C2297 C2301 1.393 . S
C2298 H2290 0.950 . S
C2298 C2296 1.391 . S
C2298 C2299 1.400 . S
C2299 C2298 1.400 . S
C2299 C2300 1.398 . S
C2299 C2305 1.491 . S
C2300 H2291 0.950 . S
C2300 C2299 1.398 . S
C2300 C2301 1.391 . S
C2301 H2289 0.950 . S
C2301 C2297 1.393 . S
C2301 C2300 1.391 . S
C2302 H2292 0.950 . S
C2302 C2303 1.386 . S
C2302 C2304 1.391 . S
C2303 C2302 1.386 . S
C2303 C2307 1.393 . S
C2304 H2293 0.950 . S
C2304 C2302 1.391 . S
C2304 C2305 1.400 . S
C2305 C2299 1.491 . S
C2305 C2304 1.400 . S
C2305 C2306 1.398 . S
C2306 H2294 0.950 . S
C2306 C2305 1.398 . S
C2306 C2307 1.391 . S
C2307 H2295 0.950 . S
C2307 C2303 1.393 . S
C2307 C2306 1.391 . S
H2308 C2316 0.950 . S
H2309 C2321 0.950 . S
H2310 C2318 0.950 . S
H2311 C2320 0.950 . S
H2312 C2322 0.950 . S
H2313 C2324 0.950 . S
H2314 C2326 0.950 . S
H2315 C2327 0.950 . S
C2316 H2308 0.950 . S
C2316 C2317 1.386 . S
C2316 C2318 1.391 . S
C2317 C2316 1.386 . S
C2317 C2321 1.393 . S
C2318 H2310 0.950 . S
C2318 C2316 1.391 . S
C2318 C2319 1.400 . S
C2319 C2318 1.400 . S
C2319 C2320 1.398 . S
C2319 C2325 1.491 . S
C2320 H2311 0.950 . S
C2320 C2319 1.398 . S
C2320 C2321 1.391 . S
C2321 H2309 0.950 . S
C2321 C2317 1.393 . S
C2321 C2320 1.391 . S
C2322 H2312 0.950 . S
C2322 C2323 1.386 . S
C2322 C2324 1.391 . S
C2323 C2322 1.386 . S
C2323 C2327 1.393 . S
C2324 H2313 0.950 . S
C2324 C2322 1.391 . S
C2324 C2325 1.400 . S
C2325 C2319 1.491 . S
C2325 C2324 1.400 . S
C2325 C2326 1.398 . S
C2326 H2314 0.950 . S
C2326 C2325 1.398 . S
C2326 C2327 1.391 . S
C2327 H2315 0.950 . S
C2327 C2323 1.393 . S
C2327 C2326 1.391 . S
H2328 C2336 0.950 . S
H2329 C2341 0.950 . S
H2330 C2338 0.950 . S
H2331 C2340 0.950 . S
H2332 C2342 0.950 . S
H2333 C2344 0.950 . S
H2334 C2346 0.950 . S
H2335 C2347 0.950 . S
C2336 H2328 0.950 . S
C2336 C2337 1.386 . S
C2336 C2338 1.391 . S
C2337 C2336 1.386 . S
C2337 C2341 1.393 . S
C2338 H2330 0.950 . S
C2338 C2336 1.391 . S
C2338 C2339 1.400 . S
C2339 C2338 1.400 . S
C2339 C2340 1.398 . S
C2339 C2345 1.491 . S
C2340 H2331 0.950 . S
C2340 C2339 1.398 . S
C2340 C2341 1.391 . S
C2341 H2329 0.950 . S
C2341 C2337 1.393 . S
C2341 C2340 1.391 . S
C2342 H2332 0.950 . S
C2342 C2343 1.386 . S
C2342 C2344 1.391 . S
C2343 C2342 1.386 . S
C2343 C2347 1.393 . S
C2344 H2333 0.950 . S
C2344 C2342 1.391 . S
C2344 C2345 1.400 . S
C2345 C2339 1.491 . S
C2345 C2344 1.400 . S
C2345 C2346 1.398 . S
C2346 H2334 0.950 . S
C2346 C2345 1.398 . S
C2346 C2347 1.391 . S
C2347 H2335 0.950 . S
C2347 C2343 1.393 . S
C2347 C2346 1.391 . S
H2348 C2356 0.950 . S
H2349 C2361 0.950 . S
H2350 C2358 0.950 . S
H2351 C2360 0.950 . S
H2352 C2362 0.950 . S
H2353 C2364 0.950 . S
H2354 C2366 0.950 . S
H2355 C2367 0.950 . S
C2356 H2348 0.950 . S
C2356 C2357 1.386 . S
C2356 C2358 1.391 . S
C2357 C2356 1.386 . S
C2357 C2361 1.393 . S
C2358 H2350 0.950 . S
C2358 C2356 1.391 . S
C2358 C2359 1.400 . S
C2359 C2358 1.400 . S
C2359 C2360 1.398 . S
C2359 C2365 1.491 . S
C2360 H2351 0.950 . S
C2360 C2359 1.398 . S
C2360 C2361 1.391 . S
C2361 H2349 0.950 . S
C2361 C2357 1.393 . S
C2361 C2360 1.391 . S
C2362 H2352 0.950 . S
C2362 C2363 1.386 . S
C2362 C2364 1.391 . S
C2363 C2362 1.386 . S
C2363 C2367 1.393 . S
C2364 H2353 0.950 . S
C2364 C2362 1.391 . S
C2364 C2365 1.400 . S
C2365 C2359 1.491 . S
C2365 C2364 1.400 . S
C2365 C2366 1.398 . S
C2366 H2354 0.950 . S
C2366 C2365 1.398 . S
C2366 C2367 1.391 . S
C2367 H2355 0.950 . S
C2367 C2363 1.393 . S
C2367 C2366 1.391 . S
H2368 C2376 0.950 . S
H2369 C2381 0.950 . S
H2370 C2378 0.950 . S
H2371 C2380 0.950 . S
H2372 C2382 0.950 . S
H2373 C2384 0.950 . S
H2374 C2386 0.950 . S
H2375 C2387 0.950 . S
C2376 H2368 0.950 . S
C2376 C2377 1.386 . S
C2376 C2378 1.391 . S
C2377 C2376 1.386 . S
C2377 C2381 1.393 . S
C2378 H2370 0.950 . S
C2378 C2376 1.391 . S
C2378 C2379 1.400 . S
C2379 C2378 1.400 . S
C2379 C2380 1.398 . S
C2379 C2385 1.491 . S
C2380 H2371 0.950 . S
C2380 C2379 1.398 . S
C2380 C2381 1.391 . S
C2381 H2369 0.950 . S
C2381 C2377 1.393 . S
C2381 C2380 1.391 . S
C2382 H2372 0.950 . S
C2382 C2383 1.386 . S
C2382 C2384 1.391 . S
C2383 C2382 1.386 . S
C2383 C2387 1.393 . S
C2384 H2373 0.950 . S
C2384 C2382 1.391 . S
C2384 C2385 1.400 . S
C2385 C2379 1.491 . S
C2385 C2384 1.400 . S
C2385 C2386 1.398 . S
C2386 H2374 0.950 . S
C2386 C2385 1.398 . S
C2386 C2387 1.391 . S
C2387 H2375 0.950 . S
C2387 C2383 1.393 . S
C2387 C2386 1.391 . S
H2388 C2396 0.950 . S
H2389 C2401 0.950 . S
H2390 C2398 0.950 . S
H2391 C2400 0.950 . S
H2392 C2402 0.950 . S
H2393 C2404 0.950 . S
H2394 C2406 0.950 . S
H2395 C2407 0.950 . S
C2396 H2388 0.950 . S
C2396 C2397 1.386 . S
C2396 C2398 1.391 . S
C2397 C2396 1.386 . S
C2397 C2401 1.393 . S
C2398 H2390 0.950 . S
C2398 C2396 1.391 . S
C2398 C2399 1.400 . S
C2399 C2398 1.400 . S
C2399 C2400 1.398 . S
C2399 C2405 1.491 . S
C2400 H2391 0.950 . S
C2400 C2399 1.398 . S
C2400 C2401 1.391 . S
C2401 H2389 0.950 . S
C2401 C2397 1.393 . S
C2401 C2400 1.391 . S
C2402 H2392 0.950 . S
C2402 C2403 1.386 . S
C2402 C2404 1.391 . S
C2403 C2402 1.386 . S
C2403 C2407 1.393 . S
C2404 H2393 0.950 . S
C2404 C2402 1.391 . S
C2404 C2405 1.400 . S
C2405 C2399 1.491 . S
C2405 C2404 1.400 . S
C2405 C2406 1.398 . S
C2406 H2394 0.950 . S
C2406 C2405 1.398 . S
C2406 C2407 1.391 . S
C2407 H2395 0.950 . S
C2407 C2403 1.393 . S
C2407 C2406 1.391 . S
H2408 C2416 0.950 . S
H2409 C2421 0.950 . S
H2410 C2418 0.950 . S
H2411 C2420 0.950 . S
H2412 C2422 0.950 . S
H2413 C2424 0.950 . S
H2414 C2426 0.950 . S
H2415 C2427 0.950 . S
C2416 H2408 0.950 . S
C2416 C2417 1.386 . S
C2416 C2418 1.391 . S
C2417 C2416 1.386 . S
C2417 C2421 1.393 . S
C2418 H2410 0.950 . S
C2418 C2416 1.391 . S
C2418 C2419 1.400 . S
C2419 C2418 1.400 . S
C2419 C2420 1.398 . S
C2419 C2425 1.491 . S
C2420 H2411 0.950 . S
C2420 C2419 1.398 . S
C2420 C2421 1.391 . S
C2421 H2409 0.950 . S
C2421 C2417 1.393 . S
C2421 C2420 1.391 . S
C2422 H2412 0.950 . S
C2422 C2423 1.386 . S
C2422 C2424 1.391 . S
C2423 C2422 1.386 . S
C2423 C2427 1.393 . S
C2424 H2413 0.950 . S
C2424 C2422 1.391 . S
C2424 C2425 1.400 . S
C2425 C2419 1.491 . S
C2425 C2424 1.400 . S
C2425 C2426 1.398 . S
C2426 H2414 0.950 . S
C2426 C2425 1.398 . S
C2426 C2427 1.391 . S
C2427 H2415 0.950 . S
C2427 C2423 1.393 . S
C2427 C2426 1.391 . S
H2428 C2436 0.950 . S
H2429 C2441 0.950 . S
H2430 C2438 0.950 . S
H2431 C2440 0.950 . S
H2432 C2442 0.950 . S
H2433 C2444 0.950 . S
H2434 C2446 0.950 . S
H2435 C2447 0.950 . S
C2436 H2428 0.950 . S
C2436 C2437 1.386 . S
C2436 C2438 1.391 . S
C2437 C2436 1.386 . S
C2437 C2441 1.393 . S
C2438 H2430 0.950 . S
C2438 C2436 1.391 . S
C2438 C2439 1.400 . S
C2439 C2438 1.400 . S
C2439 C2440 1.398 . S
C2439 C2445 1.491 . S
C2440 H2431 0.950 . S
C2440 C2439 1.398 . S
C2440 C2441 1.391 . S
C2441 H2429 0.950 . S
C2441 C2437 1.393 . S
C2441 C2440 1.391 . S
C2442 H2432 0.950 . S
C2442 C2443 1.386 . S
C2442 C2444 1.391 . S
C2443 C2442 1.386 . S
C2443 C2447 1.393 . S
C2444 H2433 0.950 . S
C2444 C2442 1.391 . S
C2444 C2445 1.400 . S
C2445 C2439 1.491 . S
C2445 C2444 1.400 . S
C2445 C2446 1.398 . S
C2446 H2434 0.950 . S
C2446 C2445 1.398 . S
C2446 C2447 1.391 . S
C2447 H2435 0.950 . S
C2447 C2443 1.393 . S
C2447 C2446 1.391 . S
H2448 C2456 0.950 . S
H2449 C2461 0.950 . S
H2450 C2458 0.950 . S
H2451 C2460 0.950 . S
H2452 C2462 0.950 . S
H2453 C2464 0.950 . S
H2454 C2466 0.950 . S
H2455 C2467 0.950 . S
C2456 H2448 0.950 . S
C2456 C2457 1.386 . S
C2456 C2458 1.391 . S
C2457 C2456 1.386 . S
C2457 C2461 1.393 . S
C2458 H2450 0.950 . S
C2458 C2456 1.391 . S
C2458 C2459 1.400 . S
C2459 C2458 1.400 . S
C2459 C2460 1.398 . S
C2459 C2465 1.491 . S
C2460 H2451 0.950 . S
C2460 C2459 1.398 . S
C2460 C2461 1.391 . S
C2461 H2449 0.950 . S
C2461 C2457 1.393 . S
C2461 C2460 1.391 . S
C2462 H2452 0.950 . S
C2462 C2463 1.386 . S
C2462 C2464 1.391 . S
C2463 C2462 1.386 . S
C2463 C2467 1.393 . S
C2464 H2453 0.950 . S
C2464 C2462 1.391 . S
C2464 C2465 1.400 . S
C2465 C2459 1.491 . S
C2465 C2464 1.400 . S
C2465 C2466 1.398 . S
C2466 H2454 0.950 . S
C2466 C2465 1.398 . S
C2466 C2467 1.391 . S
C2467 H2455 0.950 . S
C2467 C2463 1.393 . S
C2467 C2466 1.391 . S
H2468 C2476 0.950 . S
H2469 C2481 0.950 . S
H2470 C2478 0.950 . S
H2471 C2480 0.950 . S
H2472 C2482 0.950 . S
H2473 C2484 0.950 . S
H2474 C2486 0.950 . S
H2475 C2487 0.950 . S
C2476 H2468 0.950 . S
C2476 C2477 1.386 . S
C2476 C2478 1.391 . S
C2477 C2476 1.386 . S
C2477 C2481 1.393 . S
C2478 H2470 0.950 . S
C2478 C2476 1.391 . S
C2478 C2479 1.400 . S
C2479 C2478 1.400 . S
C2479 C2480 1.398 . S
C2479 C2485 1.491 . S
C2480 H2471 0.950 . S
C2480 C2479 1.398 . S
C2480 C2481 1.391 . S
C2481 H2469 0.950 . S
C2481 C2477 1.393 . S
C2481 C2480 1.391 . S
C2482 H2472 0.950 . S
C2482 C2483 1.386 . S
C2482 C2484 1.391 . S
C2483 C2482 1.386 . S
C2483 C2487 1.393 . S
C2484 H2473 0.950 . S
C2484 C2482 1.391 . S
C2484 C2485 1.400 . S
C2485 C2479 1.491 . S
C2485 C2484 1.400 . S
C2485 C2486 1.398 . S
C2486 H2474 0.950 . S
C2486 C2485 1.398 . S
C2486 C2487 1.391 . S
C2487 H2475 0.950 . S
C2487 C2483 1.393 . S
C2487 C2486 1.391 . S
H2488 C2496 0.950 . S
H2489 C2501 0.950 . S
H2490 C2498 0.950 . S
H2491 C2500 0.950 . S
H2492 C2502 0.950 . S
H2493 C2504 0.950 . S
H2494 C2506 0.950 . S
H2495 C2507 0.950 . S
C2496 H2488 0.950 . S
C2496 C2497 1.386 . S
C2496 C2498 1.391 . S
C2497 C2496 1.386 . S
C2497 C2501 1.393 . S
C2498 H2490 0.950 . S
C2498 C2496 1.391 . S
C2498 C2499 1.400 . S
C2499 C2498 1.400 . S
C2499 C2500 1.398 . S
C2499 C2505 1.491 . S
C2500 H2491 0.950 . S
C2500 C2499 1.398 . S
C2500 C2501 1.391 . S
C2501 H2489 0.950 . S
C2501 C2497 1.393 . S
C2501 C2500 1.391 . S
C2502 H2492 0.950 . S
C2502 C2503 1.386 . S
C2502 C2504 1.391 . S
C2503 C2502 1.386 . S
C2503 C2507 1.393 . S
C2504 H2493 0.950 . S
C2504 C2502 1.391 . S
C2504 C2505 1.400 . S
C2505 C2499 1.491 . S
C2505 C2504 1.400 . S
C2505 C2506 1.398 . S
C2506 H2494 0.950 . S
C2506 C2505 1.398 . S
C2506 C2507 1.391 . S
C2507 H2495 0.950 . S
C2507 C2503 1.393 . S
C2507 C2506 1.391 . S
H2508 C2516 0.950 . S
H2509 C2521 0.950 . S
H2510 C2518 0.950 . S
H2511 C2520 0.950 . S
H2512 C2522 0.950 . S
H2513 C2524 0.950 . S
H2514 C2526 0.950 . S
H2515 C2527 0.950 . S
C2516 H2508 0.950 . S
C2516 C2517 1.386 . S
C2516 C2518 1.391 . S
C2517 C2516 1.386 . S
C2517 C2521 1.393 . S
C2518 H2510 0.950 . S
C2518 C2516 1.391 . S
C2518 C2519 1.400 . S
C2519 C2518 1.400 . S
C2519 C2520 1.398 . S
C2519 C2525 1.491 . S
C2520 H2511 0.950 . S
C2520 C2519 1.398 . S
C2520 C2521 1.391 . S
C2521 H2509 0.950 . S
C2521 C2517 1.393 . S
C2521 C2520 1.391 . S
C2522 H2512 0.950 . S
C2522 C2523 1.386 . S
C2522 C2524 1.391 . S
C2523 C2522 1.386 . S
C2523 C2527 1.393 . S
C2524 H2513 0.950 . S
C2524 C2522 1.391 . S
C2524 C2525 1.400 . S
C2525 C2519 1.491 . S
C2525 C2524 1.400 . S
C2525 C2526 1.398 . S
C2526 H2514 0.950 . S
C2526 C2525 1.398 . S
C2526 C2527 1.391 . S
C2527 H2515 0.950 . S
C2527 C2523 1.393 . S
C2527 C2526 1.391 . S
H2528 C2536 0.950 . S
H2529 C2541 0.950 . S
H2530 C2538 0.950 . S
H2531 C2540 0.950 . S
H2532 C2542 0.950 . S
H2533 C2544 0.950 . S
H2534 C2546 0.950 . S
H2535 C2547 0.950 . S
C2536 H2528 0.950 . S
C2536 C2537 1.386 . S
C2536 C2538 1.391 . S
C2537 C2536 1.386 . S
C2537 C2541 1.393 . S
C2538 H2530 0.950 . S
C2538 C2536 1.391 . S
C2538 C2539 1.400 . S
C2539 C2538 1.400 . S
C2539 C2540 1.398 . S
C2539 C2545 1.491 . S
C2540 H2531 0.950 . S
C2540 C2539 1.398 . S
C2540 C2541 1.391 . S
C2541 H2529 0.950 . S
C2541 C2537 1.393 . S
C2541 C2540 1.391 . S
C2542 H2532 0.950 . S
C2542 C2543 1.386 . S
C2542 C2544 1.391 . S
C2543 C2542 1.386 . S
C2543 C2547 1.393 . S
C2544 H2533 0.950 . S
C2544 C2542 1.391 . S
C2544 C2545 1.400 . S
C2545 C2539 1.491 . S
C2545 C2544 1.400 . S
C2545 C2546 1.398 . S
C2546 H2534 0.950 . S
C2546 C2545 1.398 . S
C2546 C2547 1.391 . S
C2547 H2535 0.950 . S
C2547 C2543 1.393 . S
C2547 C2546 1.391 . S
H2548 C2556 0.950 . S
H2549 C2561 0.950 . S
H2550 C2558 0.950 . S
H2551 C2560 0.950 . S
H2552 C2562 0.950 . S
H2553 C2564 0.950 . S
H2554 C2566 0.950 . S
H2555 C2567 0.950 . S
C2556 H2548 0.950 . S
C2556 C2557 1.386 . S
C2556 C2558 1.391 . S
C2557 C2556 1.386 . S
C2557 C2561 1.393 . S
C2558 H2550 0.950 . S
C2558 C2556 1.391 . S
C2558 C2559 1.400 . S
C2559 C2558 1.400 . S
C2559 C2560 1.398 . S
C2559 C2565 1.491 . S
C2560 H2551 0.950 . S
C2560 C2559 1.398 . S
C2560 C2561 1.391 . S
C2561 H2549 0.950 . S
C2561 C2557 1.393 . S
C2561 C2560 1.391 . S
C2562 H2552 0.950 . S
C2562 C2563 1.386 . S
C2562 C2564 1.391 . S
C2563 C2562 1.386 . S
C2563 C2567 1.393 . S
C2564 H2553 0.950 . S
C2564 C2562 1.391 . S
C2564 C2565 1.400 . S
C2565 C2559 1.491 . S
C2565 C2564 1.400 . S
C2565 C2566 1.398 . S
C2566 H2554 0.950 . S
C2566 C2565 1.398 . S
C2566 C2567 1.391 . S
C2567 H2555 0.950 . S
C2567 C2563 1.393 . S
C2567 C2566 1.391 . S
H2568 C2576 0.950 . S
H2569 C2581 0.950 . S
H2570 C2578 0.950 . S
H2571 C2580 0.950 . S
H2572 C2582 0.950 . S
H2573 C2584 0.950 . S
H2574 C2586 0.950 . S
H2575 C2587 0.950 . S
C2576 H2568 0.950 . S
C2576 C2577 1.386 . S
C2576 C2578 1.391 . S
C2577 C2576 1.386 . S
C2577 C2581 1.393 . S
C2578 H2570 0.950 . S
C2578 C2576 1.391 . S
C2578 C2579 1.400 . S
C2579 C2578 1.400 . S
C2579 C2580 1.398 . S
C2579 C2585 1.491 . S
C2580 H2571 0.950 . S
C2580 C2579 1.398 . S
C2580 C2581 1.391 . S
C2581 H2569 0.950 . S
C2581 C2577 1.393 . S
C2581 C2580 1.391 . S
C2582 H2572 0.950 . S
C2582 C2583 1.386 . S
C2582 C2584 1.391 . S
C2583 C2582 1.386 . S
C2583 C2587 1.393 . S
C2584 H2573 0.950 . S
C2584 C2582 1.391 . S
C2584 C2585 1.400 . S
C2585 C2579 1.491 . S
C2585 C2584 1.400 . S
C2585 C2586 1.398 . S
C2586 H2574 0.950 . S
C2586 C2585 1.398 . S
C2586 C2587 1.391 . S
C2587 H2575 0.950 . S
C2587 C2583 1.393 . S
C2587 C2586 1.391 . S
H2588 C2596 0.950 . S
H2589 C2601 0.950 . S
H2590 C2598 0.950 . S
H2591 C2600 0.950 . S
H2592 C2602 0.950 . S
H2593 C2604 0.968 . S
H2594 C2606 0.950 . S
H2595 C2607 0.950 . S
C2596 H2588 0.950 . S
C2596 C2597 1.386 . S
C2596 C2598 1.391 . S
C2597 C2596 1.386 . S
C2597 C2601 1.393 . S
C2598 H2590 0.950 . S
C2598 C2596 1.391 . S
C2598 C2599 1.400 . S
C2599 C2598 1.400 . S
C2599 C2600 1.398 . S
C2599 C2605 1.524 . S
C2600 H2591 0.950 . S
C2600 C2599 1.398 . S
C2600 C2601 1.391 . S
C2601 H2589 0.950 . S
C2601 C2597 1.393 . S
C2601 C2600 1.391 . S
C2602 H2592 0.950 . S
C2602 C2603 1.386 . S
C2602 C2604 1.373 1_655 S
C2603 C2602 1.386 . S
C2603 C2607 1.393 . S
C2604 H2593 0.968 . S
C2604 C2602 1.373 1_455 S
C2604 C2605 1.400 . S
C2605 C2599 1.524 . S
C2605 C2604 1.400 . S
C2605 C2606 1.364 1_455 S
C2606 H2594 0.950 . S
C2606 C2605 1.364 1_655 S
C2606 C2607 1.391 . S
C2607 H2595 0.950 . S
C2607 C2603 1.393 . S
C2607 C2606 1.391 . S
C703 C343 0.998 . S
C697 C11 1.049 . S
C717 C14 1.172 . S
C723 C363 1.129 . S
C743 C384 1.193 . S
C737 C37 1.215 . S
C763 C411 1.114 . S
C757 C47 1.157 . S
C783 C367 1.105 . S
C777 C61 1.171 . S
C797 C79 1.221 . S
C803 C387 1.190 . S
C823 C407 1.126 . S
C817 C84 1.143 . S
C837 C109 1.050 . S
C843 C340 1.035 . S
C857 C123 1.056 . S
C863 C345 1.030 . S
C883 C362 1.080 . S
C877 C131 1.149 . S
C903 C386 1.162 . S
C897 C140 1.210 . S
C923 C410 1.134 . S
C917 C163 1.161 . S
C943 C366 1.135 . S
C937 C121 1.161 . S
C963 C389 1.166 . S
C957 C126 1.202 . S
C977 C145 1.162 . S
C983 C406 1.119 . S
C1003 C342 1.020 . S
C997 C165 1.056 . S
C1017 C168 1.087 . S
C1023 C344 1.041 . S
C1037 C193 1.101 . S
C1043 C431 1.078 . S
C1063 C451 1.135 . S
C1057 C205 1.197 . S
C1083 C474 1.162 . S
C1077 C215 1.213 . S
C1097 C224 1.098 . S
C1103 C341 1.086 . S
C1117 C247 1.196 . S
C1123 C385 1.132 . S
C1143 C475 1.061 . S
C1137 C207 1.115 . S
C1163 C430 1.135 . S
C1157 C257 1.206 . S
C1183 C498 1.163 . S
C1177 C23 1.164 . S
C1203 C519 1.079 . S
C1197 C0 1.097 . S
C1217 C53 1.027 . S
C1223 C538 0.995 . S
C1237 C33 1.182 . S
C1243 C563 1.121 . S
C1257 C103 1.171 . S
C1263 C518 1.151 . S
C1277 C95 1.030 . S
C1283 C543 0.991 . S
C1303 C562 1.073 . S
C1297 C70 1.094 . S
C1317 C65 1.184 . S
C1323 C495 1.141 . S
C1337 C271 1.208 . S
C1343 C499 1.144 . S
C1363 C520 1.100 . S
C1357 C219 1.143 . S
C1383 C539 0.998 . S
C1377 C235 1.032 . S
C1403 C564 1.084 . S
C1397 C182 1.085 . S
C1423 C516 1.080 . S
C1417 C266 1.092 . S
C1443 C541 1.002 . S
C1437 C221 1.029 . S
C1463 C560 1.111 . S
C1457 C233 1.150 . S
C1477 C187 1.211 . S
C1483 C496 1.146 . S
C1503 C497 1.107 . S
C1497 C289 1.131 . S
C1517 C154 1.138 . S
C1523 C583 1.142 . S
C1543 C608 1.050 . S
C1537 C299 1.100 . S
C1557 C137 1.092 . S
C1563 C627 1.080 . S
C1583 C494 1.103 . S
C1577 C149 1.136 . S
C1603 C540 1.040 . S
C1597 C313 1.099 . S
C1623 C631 1.112 . S
C1617 C294 1.154 . S
C1637 C333 1.093 . S
C1643 C587 1.078 . S
C1657 C39 1.054 . S
C1663 C651 1.001 . S
C1677 C42 1.144 . S
C1683 C429 1.131 . S
C1703 C453 1.155 . S
C1697 C9 1.206 . S
C1717 C19 1.171 . S
C1723 C477 1.139 . S
C1737 C89 1.165 . S
C1743 C433 1.134 . S
C1757 C107 1.200 . S
C1763 C450 1.173 . S
C1783 C473 1.151 . S
C1777 C56 1.165 . S
C1803 C648 0.998 . S
C1797 C81 1.049 . S
C1823 C653 1.050 . S
C1817 C305 1.065 . S
C1843 C428 1.099 . S
C1837 C285 1.162 . S
C1863 C455 1.167 . S
C1857 C322 1.219 . S
C1877 C317 1.158 . S
C1883 C476 1.099 . S
C1903 C432 1.138 . S
C1897 C303 1.152 . S
C1917 C280 1.230 . S
C1923 C452 1.185 . S
C1943 C472 1.098 . S
C1937 C327 1.142 . S
C1957 C319 1.088 . S
C1963 C650 1.053 . S
C1983 C652 1.078 . S
C1977 C210 1.085 . S
C1997 C249 1.100 . S
C2003 C365 1.061 . S
C2023 C388 1.145 . S
C2017 C275 1.200 . S
C2037 C173 1.205 . S
C2043 C408 1.133 . S
C2063 C649 1.059 . S
C2057 C252 1.104 . S
C2083 C454 1.126 . S
C2077 C191 1.176 . S
C2103 C409 1.061 . S
C2097 C277 1.115 . S
C2123 C364 1.148 . S
C2117 C229 1.212 . S
C2137 C51 1.180 . S
C2143 C675 1.148 . S
C2157 C28 1.085 . S
C2163 C585 1.092 . S
C2177 C25 1.031 . S
C2183 C604 0.989 . S
C2203 C629 1.143 . S
C2197 C5 1.168 . S
C2223 C584 1.136 . S
C2217 C75 1.170 . S
C2237 C67 1.013 . S
C2243 C609 1.018 . S
C2263 C628 1.081 . S
C2257 C98 1.095 . S
C2277 C93 1.183 . S
C2283 C670 1.142 . S
C2303 C673 1.173 . S
C2297 C201 1.202 . S
C2317 C177 1.147 . S
C2323 C586 1.119 . S
C2337 C263 1.017 . S
C2343 C605 1.025 . S
C2363 C630 1.068 . S
C2357 C238 1.096 . S
C2383 C582 1.071 . S
C2377 C196 1.094 . S
C2397 C179 1.027 . S
C2403 C607 1.006 . S
C2423 C626 1.125 . S
C2417 C261 1.143 . S
C2443 C671 1.177 . S
C2437 C243 1.195 . S
C2463 C674 1.110 . S
C2457 C135 1.128 . S
C2483 C517 1.107 . S
C2477 C308 1.161 . S
C2497 C117 1.086 . S
C2503 C542 1.077 . S
C2517 C291 1.094 . S
C2523 C561 1.076 . S
C2543 C672 1.087 . S
C2537 C331 1.138 . S
C2563 C606 1.054 . S
C2557 C159 1.098 . S
C2583 C565 1.128 . S
C2577 C112 1.143 . S
C2603 C521 1.078 . S
C2597 C151 1.094 . S
