# Generated by pormake.
# Topology ocu, (6,8)-cn, num edge types: 1
# Building blocks:
#     Node 0, Type 0, BuildingBlock: KUMBUR_clean_sbu_1, # of connection points: 6
#     Node 1, Type 0, BuildingBlock: KUMBUR_clean_sbu_1, # of connection points: 6
#     Node 2, Type 0, BuildingBlock: KUMBUR_clean_sbu_1, # of connection points: 6
#     Node 3, Type 0, BuildingBlock: KUMBUR_clean_sbu_1, # of connection points: 6
#     Node 4, Type 0, BuildingBlock: KUMBUR_clean_sbu_1, # of connection points: 6
#     Node 5, Type 0, BuildingBlock: KUMBUR_clean_sbu_1, # of connection points: 6
#     Node 6, Type 0, BuildingBlock: KUMBUR_clean_sbu_1, # of connection points: 6
#     Node 7, Type 0, BuildingBlock: KUMBUR_clean_sbu_1, # of connection points: 6
#     Node 8, Type 1, BuildingBlock: TAGTUT_clean_sbu_1, # of connection points: 8
#     Node 9, Type 1, BuildingBlock: TAGTUT_clean_sbu_1, # of connection points: 8
#     Node 10, Type 1, BuildingBlock: TAGTUT_clean_sbu_1, # of connection points: 8
#     Node 11, Type 1, BuildingBlock: TAGTUT_clean_sbu_1, # of connection points: 8
#     Node 12, Type 1, BuildingBlock: TAGTUT_clean_sbu_1, # of connection points: 8
#     Node 13, Type 1, BuildingBlock: TAGTUT_clean_sbu_1, # of connection points: 8
#     Edge 14, Type (0, 1), BuildingBlock: XIVTED_clean_linker_0, # of connection points: 2
#     Edge 15, Type (0, 1), BuildingBlock: XIVTED_clean_linker_0, # of connection points: 2
#     Edge 16, Type (0, 1), BuildingBlock: XIVTED_clean_linker_0, # of connection points: 2
#     Edge 17, Type (0, 1), BuildingBlock: XIVTED_clean_linker_0, # of connection points: 2
#     Edge 18, Type (0, 1), BuildingBlock: XIVTED_clean_linker_0, # of connection points: 2
#     Edge 19, Type (0, 1), BuildingBlock: XIVTED_clean_linker_0, # of connection points: 2
#     Edge 20, Type (0, 1), BuildingBlock: XIVTED_clean_linker_0, # of connection points: 2
#     Edge 21, Type (0, 1), BuildingBlock: XIVTED_clean_linker_0, # of connection points: 2
#     Edge 22, Type (0, 1), BuildingBlock: XIVTED_clean_linker_0, # of connection points: 2
#     Edge 23, Type (0, 1), BuildingBlock: XIVTED_clean_linker_0, # of connection points: 2
#     Edge 24, Type (0, 1), BuildingBlock: XIVTED_clean_linker_0, # of connection points: 2
#     Edge 25, Type (0, 1), BuildingBlock: XIVTED_clean_linker_0, # of connection points: 2
#     Edge 26, Type (0, 1), BuildingBlock: XIVTED_clean_linker_0, # of connection points: 2
#     Edge 27, Type (0, 1), BuildingBlock: XIVTED_clean_linker_0, # of connection points: 2
#     Edge 28, Type (0, 1), BuildingBlock: XIVTED_clean_linker_0, # of connection points: 2
#     Edge 29, Type (0, 1), BuildingBlock: XIVTED_clean_linker_0, # of connection points: 2
#     Edge 30, Type (0, 1), BuildingBlock: XIVTED_clean_linker_0, # of connection points: 2
#     Edge 31, Type (0, 1), BuildingBlock: XIVTED_clean_linker_0, # of connection points: 2
#     Edge 32, Type (0, 1), BuildingBlock: XIVTED_clean_linker_0, # of connection points: 2
#     Edge 33, Type (0, 1), BuildingBlock: XIVTED_clean_linker_0, # of connection points: 2
#     Edge 34, Type (0, 1), BuildingBlock: XIVTED_clean_linker_0, # of connection points: 2
#     Edge 35, Type (0, 1), BuildingBlock: XIVTED_clean_linker_0, # of connection points: 2
#     Edge 36, Type (0, 1), BuildingBlock: XIVTED_clean_linker_0, # of connection points: 2
#     Edge 37, Type (0, 1), BuildingBlock: XIVTED_clean_linker_0, # of connection points: 2
#     Edge 38, Type (0, 1), BuildingBlock: XIVTED_clean_linker_0, # of connection points: 2
#     Edge 39, Type (0, 1), BuildingBlock: XIVTED_clean_linker_0, # of connection points: 2
#     Edge 40, Type (0, 1), BuildingBlock: XIVTED_clean_linker_0, # of connection points: 2
#     Edge 41, Type (0, 1), BuildingBlock: XIVTED_clean_linker_0, # of connection points: 2
#     Edge 42, Type (0, 1), BuildingBlock: XIVTED_clean_linker_0, # of connection points: 2
#     Edge 43, Type (0, 1), BuildingBlock: XIVTED_clean_linker_0, # of connection points: 2
#     Edge 44, Type (0, 1), BuildingBlock: XIVTED_clean_linker_0, # of connection points: 2
#     Edge 45, Type (0, 1), BuildingBlock: XIVTED_clean_linker_0, # of connection points: 2
#     Edge 46, Type (0, 1), BuildingBlock: XIVTED_clean_linker_0, # of connection points: 2
#     Edge 47, Type (0, 1), BuildingBlock: XIVTED_clean_linker_0, # of connection points: 2
#     Edge 48, Type (0, 1), BuildingBlock: XIVTED_clean_linker_0, # of connection points: 2
#     Edge 49, Type (0, 1), BuildingBlock: XIVTED_clean_linker_0, # of connection points: 2
#     Edge 50, Type (0, 1), BuildingBlock: XIVTED_clean_linker_0, # of connection points: 2
#     Edge 51, Type (0, 1), BuildingBlock: XIVTED_clean_linker_0, # of connection points: 2
#     Edge 52, Type (0, 1), BuildingBlock: XIVTED_clean_linker_0, # of connection points: 2
#     Edge 53, Type (0, 1), BuildingBlock: XIVTED_clean_linker_0, # of connection points: 2
#     Edge 54, Type (0, 1), BuildingBlock: XIVTED_clean_linker_0, # of connection points: 2
#     Edge 55, Type (0, 1), BuildingBlock: XIVTED_clean_linker_0, # of connection points: 2
#     Edge 56, Type (0, 1), BuildingBlock: XIVTED_clean_linker_0, # of connection points: 2
#     Edge 57, Type (0, 1), BuildingBlock: XIVTED_clean_linker_0, # of connection points: 2
#     Edge 58, Type (0, 1), BuildingBlock: XIVTED_clean_linker_0, # of connection points: 2
#     Edge 59, Type (0, 1), BuildingBlock: XIVTED_clean_linker_0, # of connection points: 2
#     Edge 60, Type (0, 1), BuildingBlock: XIVTED_clean_linker_0, # of connection points: 2
#     Edge 61, Type (0, 1), BuildingBlock: XIVTED_clean_linker_0, # of connection points: 2
# Relax obj value: 0.069
# Max RMSD: 0.174
# Mean RMSD: 0.095
data_MOF--net-ocu--node1-KUMBUR_clean_sbu_1--node2-TAGTUT_clean_sbu_1--edge1-XIVTED_clean_linker_0
_symmetry_space_group_name_H-M    P1
_symmetry_Int_Tables_number       1
_symmetry_cell_setting            triclinic
loop_
_symmetry_equiv_pos_as_xyz
'x, y, z'
_cell_length_a     40.276199
_cell_length_b     38.969127
_cell_length_c     42.848787
_cell_angle_alpha  100.44927
_cell_angle_beta   82.066949
_cell_angle_gamma 113.26473
loop_
_atom_site_label
_atom_site_type_symbol
_atom_site_fract_x
_atom_site_fract_y
_atom_site_fract_z
_atom_type_partial_charge
Tb0 Tb 0.23421 0.24315 0.22352 0.0
C1 C 0.32634 0.34844 0.32771 0.0
N2 N 0.33824 0.33208 0.30012 0.0
C3 C 0.38486 0.3921 0.29168 0.0
C4 C 0.34204 0.38763 0.33758 0.0
C5 C 0.36876 0.353 0.28327 0.0
C6 C 0.37096 0.40964 0.3186 0.0
C7 C 0.28919 0.34038 0.3775 0.0
C8 C 0.30048 0.32532 0.34746 0.0
C9 C 0.30313 0.37962 0.38668 0.0
C10 C 0.32951 0.40323 0.36673 0.0
Tb11 Tb 0.30766 0.2681 0.28783 0.0
N12 N 0.28747 0.28761 0.33762 0.0
C13 C 0.2652 0.3154 0.3977 0.0
C14 C 0.26628 0.26298 0.35806 0.0
C15 C 0.25423 0.2765 0.38816 0.0
H16 H 0.38116 0.33969 0.26349 0.0
H17 H 0.23656 0.25694 0.40396 0.0
H18 H 0.18424 0.15481 0.23322 0.0
H19 H 0.30605 0.30595 0.11863 0.0
H20 H 0.25805 0.23301 0.3507 0.0
H21 H 0.25589 0.32582 0.42103 0.0
H22 H 0.2754 0.30563 0.17246 0.0
H23 H 0.4084 0.40859 0.2777 0.0
H24 H 0.29453 0.39187 0.40953 0.0
H25 H 0.34095 0.43333 0.37457 0.0
H26 H 0.17078 0.09156 0.20201 0.0
H27 H 0.38381 0.43986 0.32532 0.0
H28 H 0.3032 0.24573 0.08591 0.0
N29 N 0.22066 0.18352 0.19694 0.0
C30 C 0.23486 0.1806 0.16639 0.0
C31 C 0.18912 0.11637 0.19181 0.0
C32 C 0.22797 0.14517 0.14767 0.0
C33 C 0.19698 0.15221 0.20952 0.0
C34 C 0.20496 0.11279 0.16086 0.0
N35 N 0.26077 0.24697 0.17264 0.0
C36 C 0.27653 0.27969 0.15955 0.0
C37 C 0.27166 0.21185 0.12248 0.0
C38 C 0.25642 0.21346 0.15411 0.0
C39 C 0.29101 0.24569 0.11009 0.0
C40 C 0.29285 0.27974 0.12854 0.0
H41 H 0.19891 0.085 0.14725 0.0
H42 H 0.23946 0.11633 0.10181 0.0
H43 H 0.27772 0.17477 0.07969 0.0
O44 O 0.20395 0.25478 0.19319 0.0
O45 O 0.26606 0.2075 0.22247 0.0
O46 O 0.32182 0.24832 0.23858 0.0
O47 O 0.1781 0.22743 0.23408 0.0
O48 O 0.27772 0.30003 0.22731 0.0
O49 O 0.32699 0.29256 0.24295 0.0
O50 O 0.31634 0.22457 0.30387 0.0
O51 O 0.25683 0.27742 0.30144 0.0
O52 O 0.24491 0.29529 0.25761 0.0
O53 O 0.35694 0.28035 0.30749 0.0
O54 O 0.26349 0.21199 0.2837 0.0
O55 O 0.21336 0.21756 0.26765 0.0
C56 C 0.30162 0.21853 0.22017 0.0
C57 C 0.15387 0.26832 0.21941 0.0
C58 C 0.12049 0.30181 0.20273 0.0
C59 C 0.11249 0.3135 0.23487 0.0
C60 C 0.14594 0.28096 0.25137 0.0
C61 C 0.1254 0.30337 0.25895 0.0
C62 C 0.14139 0.27927 0.19514 0.0
C63 C 0.31303 0.30986 0.22788 0.0
C64 C 0.17415 0.24299 0.21116 0.0
C65 C 0.24411 0.14331 0.11651 0.0
C66 C 0.26601 0.17659 0.10397 0.0
C67 C 0.24369 0.29707 0.28864 0.0
C68 C 0.37685 0.22994 0.29987 0.0
C69 C 0.4157 0.19885 0.30988 0.0
C70 C 0.42738 0.19653 0.27736 0.0
C71 C 0.38926 0.22783 0.26764 0.0
C72 C 0.39037 0.21576 0.32101 0.0
C73 C 0.41435 0.21112 0.25646 0.0
C74 C 0.22813 0.20277 0.28452 0.0
C75 C 0.34902 0.24572 0.31151 0.0
H76 H 0.09686 0.33119 0.24135 0.0
H77 H 0.15539 0.27337 0.27058 0.0
H78 H 0.11945 0.31294 0.28362 0.0
H79 H 0.14751 0.26985 0.17042 0.0
H80 H 0.44695 0.18381 0.26818 0.0
H81 H 0.37947 0.23902 0.25118 0.0
H82 H 0.38063 0.21718 0.34591 0.0
H83 H 0.42367 0.20942 0.23151 0.0
Tb84 Tb 0.73599 0.28355 0.26226 0.0
C85 C 0.86069 0.24704 0.18891 0.0
N86 N 0.82772 0.22259 0.19897 0.0
C87 C 0.82198 0.18582 0.14709 0.0
C88 C 0.87478 0.24292 0.15707 0.0
C89 C 0.80968 0.19072 0.17911 0.0
C90 C 0.85433 0.2125 0.13583 0.0
C91 C 0.91693 0.29901 0.20252 0.0
C92 C 0.88149 0.27473 0.21119 0.0
C93 C 0.9305 0.29616 0.17056 0.0
C94 C 0.90938 0.26828 0.14784 0.0
Tb95 Tb 0.80993 0.23497 0.25164 0.0
N96 N 0.86704 0.27741 0.24165 0.0
C97 C 0.93763 0.3252 0.22633 0.0
C98 C 0.88763 0.30154 0.26527 0.0
C99 C 0.92305 0.32616 0.2579 0.0
H100 H 0.78621 0.16845 0.18796 0.0
H101 H 0.93908 0.34578 0.27655 0.0
H102 H 0.7389 0.32368 0.33663 0.0
H103 H 0.62307 0.18251 0.19649 0.0
H104 H 0.8765 0.30203 0.28971 0.0
H105 H 0.96502 0.34435 0.22067 0.0
H106 H 0.6826 0.23414 0.20235 0.0
H107 H 0.80695 0.16103 0.13131 0.0
H108 H 0.95748 0.31493 0.16327 0.0
H109 H 0.9205 0.26581 0.1234 0.0
H110 H 0.69948 0.31406 0.38666 0.0
H111 H 0.86412 0.20833 0.11114 0.0
H112 H 0.58325 0.16091 0.24425 0.0
N113 N 0.7016 0.27678 0.30926 0.0
C114 C 0.66784 0.24946 0.30839 0.0
C115 C 0.69038 0.29548 0.36485 0.0
C116 C 0.64448 0.24275 0.33621 0.0
C117 C 0.7127 0.30077 0.3366 0.0
C118 C 0.65631 0.266 0.36476 0.0
N119 N 0.67945 0.23816 0.25291 0.0
C120 C 0.66679 0.22343 0.22341 0.0
C121 C 0.62157 0.20066 0.27714 0.0
C122 C 0.65671 0.22881 0.27929 0.0
C123 C 0.61002 0.18274 0.24698 0.0
C124 C 0.63247 0.19476 0.21997 0.0
H125 H 0.63916 0.26183 0.38669 0.0
H126 H 0.59185 0.20752 0.35563 0.0
H127 H 0.57173 0.17061 0.30384 0.0
O128 O 0.70093 0.30679 0.25065 0.0
O129 O 0.73612 0.24786 0.29616 0.0
O130 O 0.7537 0.20137 0.26726 0.0
O131 O 0.75115 0.34236 0.27106 0.0
O132 O 0.74257 0.25015 0.21634 0.0
O133 O 0.75942 0.20357 0.22766 0.0
O134 O 0.82774 0.22232 0.29039 0.0
O135 O 0.82407 0.29303 0.24209 0.0
O136 O 0.77476 0.29207 0.2207 0.0
O137 O 0.83221 0.19327 0.24346 0.0
O138 O 0.80542 0.26847 0.2976 0.0
O139 O 0.78452 0.3139 0.28924 0.0
C140 C 0.73359 0.21276 0.29035 0.0
C141 C 0.73076 0.36628 0.23379 0.0
C142 C 0.70879 0.39973 0.20389 0.0
C143 C 0.7433 0.41362 0.18775 0.0
C144 C 0.76494 0.38007 0.21717 0.0
C145 C 0.7711 0.4037 0.19432 0.0
C146 C 0.70278 0.37603 0.22694 0.0
C147 C 0.74417 0.21639 0.20964 0.0
C148 C 0.72341 0.34122 0.25793 0.0
C149 C 0.61009 0.21352 0.33446 0.0
C150 C 0.59869 0.19243 0.30498 0.0
C151 C 0.80995 0.30229 0.22073 0.0
C152 C 0.82646 0.16086 0.28637 0.0
C153 C 0.84428 0.11813 0.30906 0.0
C154 C 0.80749 0.09425 0.31259 0.0
C155 C 0.79 0.1368 0.28998 0.0
C156 C 0.85341 0.15141 0.2957 0.0
C157 C 0.78061 0.10358 0.30305 0.0
C158 C 0.80107 0.30086 0.30599 0.0
C159 C 0.8373 0.1962 0.27321 0.0
H160 H 0.74858 0.43155 0.16958 0.0
H161 H 0.78684 0.37259 0.22176 0.0
H162 H 0.79746 0.41419 0.18153 0.0
H163 H 0.67638 0.36531 0.23971 0.0
H164 H 0.79936 0.06873 0.32328 0.0
H165 H 0.76897 0.14375 0.28277 0.0
H166 H 0.88156 0.17003 0.29237 0.0
H167 H 0.7524 0.08513 0.30602 0.0
Tb168 Tb 0.75449 0.70433 0.28857 0.0
C169 C 0.85431 0.83419 0.201 0.0
N170 N 0.83154 0.83632 0.22702 0.0
C171 C 0.87506 0.89667 0.24706 0.0
C172 C 0.88895 0.86275 0.19731 0.0
C173 C 0.8407 0.86789 0.24925 0.0
C174 C 0.89955 0.89381 0.22121 0.0
C175 C 0.86228 0.80368 0.14766 0.0
C176 C 0.84138 0.80505 0.17673 0.0
C177 C 0.89772 0.83069 0.14445 0.0
C178 C 0.91108 0.86016 0.1693 0.0
Tb179 Tb 0.77731 0.7862 0.22973 0.0
N180 N 0.80691 0.77991 0.18069 0.0
C181 C 0.84623 0.77648 0.12226 0.0
C182 C 0.79002 0.75581 0.1551 0.0
C183 C 0.80965 0.75304 0.12578 0.0
H184 H 0.82154 0.87069 0.26888 0.0
H185 H 0.79655 0.73289 0.10595 0.0
H186 H 0.67791 0.64038 0.25671 0.0
H187 H 0.77993 0.78639 0.40486 0.0
H188 H 0.76176 0.73776 0.15773 0.0
H189 H 0.86133 0.77449 0.09949 0.0
H190 H 0.79665 0.76363 0.34988 0.0
H191 H 0.88248 0.92118 0.26513 0.0
H192 H 0.91445 0.82988 0.12246 0.0
H193 H 0.93795 0.8816 0.16612 0.0
H194 H 0.61375 0.61248 0.27467 0.0
H195 H 0.92596 0.91637 0.21933 0.0
H196 H 0.71607 0.76075 0.42654 0.0
N197 N 0.69344 0.67666 0.30049 0.0
C198 C 0.68239 0.68595 0.33128 0.0
C199 C 0.63273 0.63343 0.2907 0.0
C200 C 0.64572 0.67007 0.34258 0.0
C201 C 0.66933 0.64998 0.28043 0.0
C202 C 0.62082 0.64364 0.32181 0.0
N203 N 0.74285 0.72839 0.33948 0.0
C204 C 0.76871 0.75379 0.35849 0.0
C205 C 0.69705 0.72397 0.38292 0.0
C206 C 0.70784 0.71257 0.35137 0.0
C207 C 0.72328 0.75124 0.40216 0.0
C208 C 0.7593 0.766 0.38994 0.0
H209 H 0.59242 0.63075 0.32961 0.0
H210 H 0.60691 0.6693 0.38315 0.0
H211 H 0.65176 0.71651 0.41837 0.0
O212 O 0.78091 0.68878 0.31976 0.0
O213 O 0.72498 0.74364 0.29684 0.0
O214 O 0.76086 0.80125 0.27961 0.0
O215 O 0.74092 0.64634 0.28881 0.0
O216 O 0.80861 0.74891 0.2869 0.0
O217 O 0.80451 0.80265 0.27424 0.0
O218 O 0.73375 0.7775 0.20377 0.0
O219 O 0.79952 0.74243 0.21108 0.0
O220 O 0.79798 0.7067 0.25046 0.0
O221 O 0.76729 0.83343 0.22228 0.0
O222 O 0.72997 0.73585 0.238 0.0
O223 O 0.73612 0.68193 0.241 0.0
C224 C 0.73533 0.7807 0.29901 0.0
C225 C 0.76794 0.62285 0.32327 0.0
C226 C 0.80548 0.59877 0.34597 0.0
C227 C 0.77654 0.56346 0.34506 0.0
C228 C 0.73955 0.58732 0.32249 0.0
C229 C 0.74381 0.55792 0.33356 0.0
C230 C 0.8008 0.62871 0.33553 0.0
C231 C 0.81897 0.7857 0.28914 0.0
C232 C 0.76323 0.65314 0.3105 0.0
C233 C 0.63499 0.68119 0.3741 0.0
C234 C 0.66055 0.70808 0.39418 0.0
C235 C 0.80861 0.71802 0.22209 0.0
C236 C 0.70531 0.82035 0.21807 0.0
C237 C 0.658 0.83927 0.20609 0.0
C238 C 0.63882 0.82864 0.23505 0.0
C239 C 0.68555 0.80947 0.24663 0.0
C240 C 0.69154 0.83534 0.1979 0.0
C241 C 0.65267 0.81398 0.25523 0.0
C242 C 0.72678 0.70182 0.22507 0.0
C243 C 0.73832 0.81272 0.20756 0.0
H244 H 0.77919 0.54011 0.35342 0.0
H245 H 0.714 0.5823 0.31338 0.0
H246 H 0.72173 0.53063 0.33302 0.0
H247 H 0.82299 0.65598 0.33592 0.0
H248 H 0.61315 0.83174 0.2421 0.0
H249 H 0.6951 0.79664 0.26181 0.0
H250 H 0.7063 0.84265 0.17535 0.0
H251 H 0.63762 0.80556 0.27737 0.0
Tb252 Tb 0.23986 0.77401 0.24562 0.0
C253 C 0.2747 0.67066 0.31427 0.0
N254 N 0.29273 0.7083 0.31478 0.0
C255 C 0.29286 0.71651 0.37159 0.0
C256 C 0.26323 0.65445 0.34263 0.0
C257 C 0.30357 0.73117 0.3427 0.0
C258 C 0.27197 0.67806 0.37161 0.0
C259 C 0.25343 0.60883 0.2832 0.0
C260 C 0.26995 0.64839 0.28507 0.0
C261 C 0.23968 0.59242 0.31128 0.0
C262 C 0.24462 0.61523 0.34099 0.0
Tb263 Tb 0.30692 0.73027 0.26695 0.0
N264 N 0.28449 0.66543 0.2587 0.0
C265 C 0.25276 0.58699 0.25336 0.0
C266 C 0.2869 0.64406 0.23001 0.0
C267 C 0.27026 0.60468 0.22676 0.0
H268 H 0.31976 0.76084 0.34264 0.0
H269 H 0.27133 0.58799 0.20379 0.0
H270 H 0.19148 0.71205 0.18761 0.0
H271 H 0.31518 0.92367 0.24861 0.0
H272 H 0.30147 0.65714 0.20941 0.0
H273 H 0.2403 0.55648 0.25085 0.0
H274 H 0.2808 0.86473 0.2718 0.0
H275 H 0.30063 0.73485 0.39378 0.0
H276 H 0.22645 0.56209 0.31034 0.0
H277 H 0.23505 0.60218 0.3625 0.0
H278 H 0.19262 0.7055 0.12924 0.0
H279 H 0.2637 0.66674 0.39398 0.0
H280 H 0.32535 0.92179 0.19009 0.0
N281 N 0.23644 0.76476 0.19156 0.0
C282 C 0.25754 0.7948 0.17645 0.0
C283 C 0.21164 0.73045 0.14214 0.0
C284 C 0.25836 0.79285 0.14319 0.0
C285 C 0.21162 0.73395 0.17522 0.0
C286 C 0.2359 0.75958 0.12592 0.0
N287 N 0.27219 0.83002 0.22687 0.0
C288 C 0.28489 0.86375 0.24627 0.0
C289 C 0.29512 0.86156 0.18047 0.0
C290 C 0.27547 0.82879 0.19477 0.0
C291 C 0.3101 0.89594 0.20015 0.0
C292 C 0.3044 0.89712 0.2332 0.0
H293 H 0.23559 0.75694 0.10033 0.0
H294 H 0.2813 0.82367 0.10296 0.0
H295 H 0.31376 0.88385 0.13566 0.0
O296 O 0.20377 0.78794 0.28058 0.0
O297 O 0.29941 0.80035 0.23902 0.0
O298 O 0.31723 0.75147 0.22126 0.0
O299 O 0.19698 0.78426 0.23119 0.0
O300 O 0.26316 0.80103 0.29177 0.0
O301 O 0.31454 0.78686 0.29233 0.0
O302 O 0.34943 0.71165 0.26642 0.0
O303 O 0.25999 0.73203 0.29904 0.0
O304 O 0.21515 0.72161 0.26702 0.0
O305 O 0.35933 0.77076 0.27402 0.0
O306 O 0.28406 0.71032 0.21984 0.0
O307 O 0.2277 0.7138 0.22891 0.0
C308 C 0.32017 0.78578 0.21978 0.0
C309 C 0.18697 0.83393 0.26582 0.0
C310 C 0.20116 0.89494 0.29946 0.0
C311 C 0.18123 0.9045 0.28024 0.0
C312 C 0.16715 0.84383 0.2471 0.0
C313 C 0.16504 0.87936 0.2539 0.0
C314 C 0.20553 0.86043 0.2906 0.0
C315 C 0.29421 0.8067 0.30298 0.0
C316 C 0.18783 0.79588 0.26008 0.0
C317 C 0.27989 0.82479 0.12854 0.0
C318 C 0.29824 0.85911 0.14717 0.0
C319 C 0.22593 0.716 0.29254 0.0
C320 C 0.40046 0.75222 0.23936 0.0
C321 C 0.41332 0.73848 0.18239 0.0
C322 C 0.44723 0.76855 0.18454 0.0
C323 C 0.43434 0.78203 0.24142 0.0
C324 C 0.38995 0.73121 0.20976 0.0
C325 C 0.45758 0.79025 0.21398 0.0
C326 C 0.24977 0.69784 0.21375 0.0
C327 C 0.37386 0.74573 0.2668 0.0
H328 H 0.17651 0.93046 0.2862 0.0
H329 H 0.15312 0.82402 0.22747 0.0
H330 H 0.1495 0.88684 0.23952 0.0
H331 H 0.22238 0.85339 0.30386 0.0
H332 H 0.46608 0.77463 0.16376 0.0
H333 H 0.44244 0.79928 0.26402 0.0
H334 H 0.36319 0.70914 0.2079 0.0
H335 H 0.48374 0.81331 0.21554 0.0
Tb336 Tb 0.24035 0.78107 0.76012 0.0
C337 C 0.3664 0.7318 0.69269 0.0
N338 N 0.33195 0.70927 0.70141 0.0
C339 C 0.32922 0.66814 0.65203 0.0
C340 C 0.3834 0.7237 0.66285 0.0
C341 C 0.31346 0.67739 0.68185 0.0
C342 C 0.36429 0.69147 0.64241 0.0
C343 C 0.41949 0.78857 0.70482 0.0
C344 C 0.38417 0.7639 0.7134 0.0
C345 C 0.43663 0.78052 0.67516 0.0
C346 C 0.41863 0.7482 0.65423 0.0
Tb347 Tb 0.30932 0.72735 0.75054 0.0
N348 N 0.36611 0.77166 0.74137 0.0
C349 C 0.43642 0.82072 0.72621 0.0
C350 C 0.38325 0.80203 0.76293 0.0
C351 C 0.41835 0.82725 0.75551 0.0
H352 H 0.28695 0.65849 0.68961 0.0
H353 H 0.43158 0.85154 0.77255 0.0
H354 H 0.25087 0.83069 0.83206 0.0
H355 H 0.12395 0.66684 0.70826 0.0
H356 H 0.3706 0.80682 0.78614 0.0
H357 H 0.46356 0.84039 0.72053 0.0
H358 H 0.18374 0.71783 0.70676 0.0
H359 H 0.31442 0.64289 0.63658 0.0
H360 H 0.46374 0.79922 0.66811 0.0
H361 H 0.43212 0.74249 0.63137 0.0
H362 H 0.21502 0.82978 0.88378 0.0
H363 H 0.37639 0.68427 0.61926 0.0
H364 H 0.08649 0.65738 0.75914 0.0
N365 N 0.2098 0.78311 0.80895 0.0
C366 C 0.17531 0.75718 0.8113 0.0
C367 C 0.20362 0.80908 0.86363 0.0
C368 C 0.15383 0.75569 0.84031 0.0
C369 C 0.22402 0.80928 0.83443 0.0
C370 C 0.16842 0.7821 0.86664 0.0
N371 N 0.18399 0.73331 0.75716 0.0
C372 C 0.16954 0.71224 0.72958 0.0
C373 C 0.12682 0.70336 0.78647 0.0
C374 C 0.16228 0.73104 0.78475 0.0
C375 C 0.11357 0.67901 0.75884 0.0
C376 C 0.13476 0.68403 0.73014 0.0
H377 H 0.15279 0.78187 0.88936 0.0
H378 H 0.10202 0.72581 0.8644 0.0
H379 H 0.07823 0.68024 0.8172 0.0
O380 O 0.21858 0.79863 0.72672 0.0
O381 O 0.23654 0.74448 0.79487 0.0
O382 O 0.25304 0.69642 0.76767 0.0
O383 O 0.22807 0.82938 0.77362 0.0
O384 O 0.24683 0.74677 0.71467 0.0
O385 O 0.25836 0.69791 0.72808 0.0
O386 O 0.33526 0.72073 0.78704 0.0
O387 O 0.31735 0.76696 0.71711 0.0
O388 O 0.29625 0.81285 0.74274 0.0
O389 O 0.32028 0.67819 0.74621 0.0
O390 O 0.30626 0.76433 0.79503 0.0
O391 O 0.29034 0.812 0.7842 0.0
C392 C 0.23365 0.7093 0.79038 0.0
C393 C 0.2307 0.86394 0.73325 0.0
C394 C 0.21637 0.90811 0.70903 0.0
C395 C 0.25148 0.93516 0.71456 0.0
C396 C 0.26558 0.89107 0.73821 0.0
C397 C 0.27595 0.92644 0.72865 0.0
C398 C 0.2066 0.87222 0.71814 0.0
C399 C 0.24747 0.7126 0.7082 0.0
C400 C 0.21754 0.82807 0.74607 0.0
C401 C 0.11888 0.72758 0.84226 0.0
C402 C 0.10542 0.70149 0.81542 0.0
C403 C 0.31715 0.80109 0.72075 0.0
C404 C 0.32339 0.65832 0.79387 0.0
C405 C 0.33999 0.61761 0.82021 0.0
C406 C 0.30385 0.60192 0.8328 0.0
C407 C 0.28759 0.64264 0.80667 0.0
C408 C 0.34938 0.64577 0.80059 0.0
C409 C 0.27786 0.61444 0.82603 0.0
C410 C 0.30401 0.79778 0.80243 0.0
C411 C 0.33453 0.68778 0.77339 0.0
H412 H 0.26002 0.9634 0.70868 0.0
H413 H 0.28436 0.88523 0.75016 0.0
H414 H 0.30276 0.9475 0.73284 0.0
H415 H 0.18006 0.85056 0.71392 0.0
H416 H 0.29582 0.58053 0.84836 0.0
H417 H 0.26737 0.65223 0.80169 0.0
H418 H 0.37695 0.65785 0.79029 0.0
H419 H 0.25018 0.60243 0.83597 0.0
Tb420 Tb 0.26707 0.21952 0.78606 0.0
C421 C 0.35874 0.30816 0.6835 0.0
N422 N 0.34902 0.31918 0.7143 0.0
C423 C 0.41169 0.35692 0.72279 0.0
C424 C 0.39549 0.31912 0.67197 0.0
C425 C 0.37493 0.34562 0.73306 0.0
C426 C 0.42207 0.34298 0.69237 0.0
C427 C 0.34064 0.2752 0.63093 0.0
C428 C 0.33174 0.28697 0.66294 0.0
C429 C 0.37719 0.28499 0.61977 0.0
C430 C 0.40453 0.30692 0.64022 0.0
Tb431 Tb 0.2874 0.29774 0.72726 0.0
N432 N 0.29656 0.27681 0.67475 0.0
C433 C 0.31249 0.2538 0.61114 0.0
C434 C 0.26902 0.25707 0.65531 0.0
C435 C 0.27653 0.24498 0.62334 0.0
H436 H 0.36789 0.35937 0.75564 0.0
H437 H 0.25459 0.22893 0.60812 0.0
H438 H 0.18613 0.15784 0.75876 0.0
H439 H 0.30211 0.28539 0.90539 0.0
H440 H 0.24132 0.25091 0.66447 0.0
H441 H 0.31823 0.24423 0.5864 0.0
H442 H 0.3142 0.26365 0.84872 0.0
H443 H 0.43197 0.37711 0.73814 0.0
H444 H 0.3846 0.27604 0.59529 0.0
H445 H 0.43262 0.31485 0.63109 0.0
H446 H 0.12225 0.13989 0.77719 0.0
H447 H 0.45058 0.35211 0.6844 0.0
H448 H 0.23882 0.27053 0.92807 0.0
N449 N 0.20564 0.19766 0.80012 0.0
C450 C 0.19644 0.20822 0.83117 0.0
C451 C 0.14279 0.15994 0.79237 0.0
C452 C 0.15986 0.19717 0.84324 0.0
C453 C 0.17941 0.17137 0.78158 0.0
C454 C 0.1329 0.17358 0.82309 0.0
N455 N 0.25881 0.23896 0.83908 0.0
C456 C 0.28671 0.25805 0.85823 0.0
C457 C 0.21553 0.24031 0.88368 0.0
C458 C 0.22383 0.22894 0.85142 0.0
C459 C 0.24408 0.26124 0.90315 0.0
C460 C 0.27984 0.26983 0.89041 0.0
H461 H 0.10451 0.16436 0.83146 0.0
H462 H 0.12343 0.20106 0.88478 0.0
H463 H 0.17218 0.23924 0.92006 0.0
O464 O 0.29322 0.19764 0.81243 0.0
O465 O 0.2567 0.2711 0.80605 0.0
O466 O 0.24196 0.29098 0.76403 0.0
O467 O 0.25239 0.16064 0.78006 0.0
O468 O 0.32087 0.26388 0.78068 0.0
O469 O 0.3121 0.31656 0.77314 0.0
O470 O 0.26025 0.31768 0.70027 0.0
O471 O 0.29631 0.24506 0.70795 0.0
O472 O 0.31353 0.22869 0.75029 0.0
O473 O 0.30303 0.35661 0.73 0.0
O474 O 0.23307 0.25496 0.73319 0.0
O475 O 0.24098 0.20177 0.74079 0.0
C476 C 0.24006 0.28867 0.79463 0.0
C477 C 0.27863 0.12997 0.80868 0.0
C478 C 0.31262 0.10123 0.83095 0.0
C479 C 0.28476 0.06572 0.82373 0.0
C480 C 0.2515 0.09414 0.80149 0.0
C481 C 0.25454 0.06229 0.80913 0.0
C482 C 0.30911 0.13347 0.82365 0.0
C483 C 0.32777 0.30017 0.78728 0.0
C484 C 0.2747 0.16328 0.80045 0.0
C485 C 0.15139 0.20901 0.87524 0.0
C486 C 0.17914 0.23058 0.89538 0.0
C487 C 0.31384 0.22853 0.7195 0.0
C488 C 0.2752 0.38475 0.70029 0.0
C489 C 0.23953 0.41123 0.67761 0.0
C490 C 0.2677 0.44697 0.68251 0.0
C491 C 0.30269 0.42077 0.70511 0.0
C492 C 0.2437 0.37999 0.68624 0.0
C493 C 0.29897 0.4516 0.6961 0.0
C494 C 0.22487 0.21846 0.72744 0.0
C495 C 0.27958 0.35253 0.71021 0.0
H496 H 0.2861 0.04047 0.8297 0.0
H497 H 0.22773 0.09072 0.79018 0.0
H498 H 0.23333 0.03481 0.80375 0.0
H499 H 0.33033 0.16101 0.82896 0.0
H500 H 0.26572 0.47141 0.67552 0.0
H501 H 0.32721 0.42509 0.71569 0.0
H502 H 0.22219 0.35233 0.68275 0.0
H503 H 0.32043 0.47923 0.69969 0.0
Tb504 Tb 0.7352 0.26543 0.74632 0.0
C505 C 0.81273 0.22576 0.83884 0.0
N506 N 0.82842 0.25214 0.819 0.0
C507 C 0.86183 0.29569 0.86161 0.0
C508 C 0.81921 0.23388 0.87137 0.0
C509 C 0.85425 0.28619 0.82955 0.0
C510 C 0.84343 0.2698 0.88284 0.0
C511 C 0.77862 0.16009 0.84444 0.0
C512 C 0.79314 0.18956 0.82567 0.0
C513 C 0.78255 0.16837 0.87736 0.0
C514 C 0.80291 0.20526 0.89083 0.0
Tb515 Tb 0.81335 0.23432 0.76712 0.0
N516 N 0.79049 0.18291 0.79381 0.0
C517 C 0.76199 0.12316 0.8293 0.0
C518 C 0.77681 0.14667 0.77855 0.0
C519 C 0.76173 0.11635 0.79612 0.0
H520 H 0.86907 0.30622 0.81324 0.0
H521 H 0.74977 0.08782 0.7841 0.0
H522 H 0.71614 0.2249 0.67354 0.0
H523 H 0.76865 0.41196 0.79846 0.0
H524 H 0.77612 0.1415 0.75293 0.0
H525 H 0.7504 0.09966 0.84284 0.0
H526 H 0.74242 0.34348 0.79915 0.0
H527 H 0.8819 0.32293 0.86988 0.0
H528 H 0.7712 0.14624 0.89236 0.0
H529 H 0.8071 0.21101 0.91599 0.0
H530 H 0.72701 0.24396 0.61964 0.0
H531 H 0.84938 0.27721 0.90764 0.0
H532 H 0.79167 0.43757 0.74753 0.0
N533 N 0.74305 0.28062 0.69626 0.0
C534 C 0.75777 0.31788 0.69347 0.0
C535 C 0.73619 0.26501 0.64016 0.0
C536 C 0.76448 0.33023 0.66348 0.0
C537 C 0.73027 0.25423 0.67052 0.0
C538 C 0.75405 0.30315 0.63654 0.0
N539 N 0.75457 0.32986 0.74941 0.0
C540 C 0.75403 0.35398 0.77685 0.0
C541 C 0.7783 0.38244 0.71937 0.0
C542 C 0.76447 0.34342 0.72103 0.0
C543 C 0.78115 0.40736 0.74773 0.0
C544 C 0.76824 0.39301 0.77653 0.0
H545 H 0.75866 0.31146 0.61302 0.0
H546 H 0.78619 0.37923 0.6387 0.0
H547 H 0.79834 0.42505 0.68771 0.0
O548 O 0.6902 0.28082 0.74979 0.0
O549 O 0.78166 0.26799 0.71148 0.0
O550 O 0.82792 0.28402 0.74333 0.0
O551 O 0.68385 0.22283 0.73856 0.0
O552 O 0.75948 0.29118 0.79253 0.0
O553 O 0.81758 0.29316 0.78043 0.0
O554 O 0.83777 0.20084 0.73713 0.0
O555 O 0.75581 0.20381 0.7813 0.0
O556 O 0.73043 0.24831 0.79328 0.0
O557 O 0.86983 0.24897 0.76768 0.0
O558 O 0.78798 0.20615 0.72175 0.0
O559 O 0.73017 0.20698 0.73068 0.0
C560 C 0.81625 0.28409 0.71632 0.0
C561 C 0.64005 0.2362 0.77384 0.0
C562 C 0.62551 0.24441 0.83102 0.0
C563 C 0.59019 0.21762 0.82648 0.0
C564 C 0.60488 0.20963 0.7694 0.0
C565 C 0.5801 0.20014 0.79578 0.0
C566 C 0.65036 0.25238 0.80457 0.0
C567 C 0.794 0.30507 0.79837 0.0
C568 C 0.6673 0.24596 0.74717 0.0
C569 C 0.78028 0.36907 0.66155 0.0
C570 C 0.78726 0.39515 0.68947 0.0
C571 C 0.73199 0.21655 0.79773 0.0
C572 C 0.89311 0.23984 0.71467 0.0
C573 C 0.89723 0.24183 0.65764 0.0
C574 C 0.93527 0.25923 0.65815 0.0
C575 C 0.93087 0.25674 0.71484 0.0
C576 C 0.87672 0.23569 0.68667 0.0
C577 C 0.95179 0.26751 0.68678 0.0
C578 C 0.75384 0.19366 0.71479 0.0
C579 C 0.87027 0.22472 0.74278 0.0
H580 H 0.57009 0.21101 0.84636 0.0
H581 H 0.59674 0.19621 0.74573 0.0
H582 H 0.55286 0.17969 0.7924 0.0
H583 H 0.67801 0.27185 0.80781 0.0
H584 H 0.95254 0.26455 0.63643 0.0
H585 H 0.94408 0.26108 0.73641 0.0
H586 H 0.84755 0.22497 0.68699 0.0
H587 H 0.98102 0.28038 0.68684 0.0
Tb588 Tb 0.73169 0.73547 0.72997 0.0
C589 C 0.81921 0.83341 0.84282 0.0
N590 N 0.82976 0.8274 0.81147 0.0
C591 C 0.86265 0.89386 0.81161 0.0
C592 C 0.82887 0.8702 0.85956 0.0
C593 C 0.8522 0.85681 0.79596 0.0
C594 C 0.85069 0.90063 0.84347 0.0
C595 C 0.78652 0.80734 0.89031 0.0
C596 C 0.79823 0.80238 0.85784 0.0
C597 C 0.79521 0.84398 0.90698 0.0
C598 C 0.81642 0.87534 0.89166 0.0
Tb599 Tb 0.8124 0.766 0.78851 0.0
N600 N 0.79066 0.76737 0.84096 0.0
C601 C 0.7674 0.77532 0.90527 0.0
C602 C 0.77494 0.73632 0.8563 0.0
C603 C 0.76216 0.73967 0.88831 0.0
H604 H 0.8622 0.85182 0.77158 0.0
H605 H 0.7491 0.71479 0.90008 0.0
H606 H 0.66593 0.6612 0.75919 0.0
H607 H 0.78487 0.75087 0.609 0.0
H608 H 0.77358 0.70908 0.8445 0.0
H609 H 0.75791 0.77788 0.93018 0.0
H610 H 0.77228 0.77265 0.66569 0.0
H611 H 0.88006 0.91716 0.79913 0.0
H612 H 0.78627 0.84833 0.93189 0.0
H613 H 0.8233 0.9034 0.90491 0.0
H614 H 0.63974 0.59252 0.74445 0.0
H615 H 0.85876 0.92936 0.85549 0.0
H616 H 0.76378 0.68243 0.58933 0.0
N617 N 0.70321 0.67104 0.7182 0.0
C618 C 0.71125 0.65573 0.68846 0.0
C619 C 0.66043 0.60986 0.7287 0.0
C620 C 0.69526 0.61665 0.67809 0.0
C621 C 0.67628 0.64891 0.73745 0.0
C622 C 0.67048 0.59352 0.6991 0.0
N623 N 0.74629 0.71735 0.67803 0.0
C624 C 0.76374 0.74286 0.65734 0.0
C625 C 0.73911 0.66596 0.6353 0.0
C626 C 0.73294 0.67982 0.66738 0.0
C627 C 0.75857 0.6919 0.61421 0.0
C628 C 0.77057 0.73056 0.62523 0.0
H629 H 0.65758 0.56336 0.6921 0.0
H630 H 0.69123 0.57229 0.63833 0.0
H631 H 0.72959 0.61559 0.60077 0.0
O632 O 0.7173 0.77564 0.71388 0.0
O633 O 0.78118 0.72468 0.71148 0.0
O634 O 0.79945 0.71307 0.75543 0.0
O635 O 0.67759 0.72116 0.72105 0.0
O636 O 0.77499 0.79203 0.73031 0.0
O637 O 0.82765 0.78823 0.74266 0.0
O638 O 0.84471 0.75483 0.81737 0.0
O639 O 0.77901 0.80074 0.79223 0.0
O640 O 0.72291 0.75723 0.77983 0.0
O641 O 0.86791 0.77999 0.77405 0.0
O642 O 0.77018 0.70868 0.78895 0.0
O643 O 0.71837 0.71341 0.77596 0.0
C644 C 0.79941 0.70998 0.72438 0.0
C645 C 0.66938 0.74843 0.6795 0.0
C646 C 0.63919 0.76955 0.64566 0.0
C647 C 0.63794 0.73864 0.62239 0.0
C648 C 0.66707 0.71737 0.65612 0.0
C649 C 0.65191 0.71284 0.62761 0.0
C650 C 0.65561 0.77469 0.67405 0.0
C651 C 0.81051 0.80167 0.72691 0.0
C652 C 0.68402 0.75237 0.71026 0.0
C653 C 0.70304 0.60226 0.64665 0.0
C654 C 0.72481 0.62691 0.62523 0.0
C655 C 0.74339 0.78909 0.79571 0.0
C656 C 0.90945 0.7692 0.80407 0.0
C657 C 0.94781 0.74839 0.82978 0.0
C658 C 0.9784 0.77252 0.81337 0.0
C659 C 0.94056 0.79295 0.78816 0.0
C660 C 0.91318 0.74691 0.82496 0.0
C661 C 0.97474 0.7946 0.79287 0.0
C662 C 0.73457 0.69748 0.79008 0.0
C663 C 0.87347 0.76786 0.79844 0.0
H664 H 0.62606 0.73438 0.6001 0.0
H665 H 0.67624 0.69611 0.66006 0.0
H666 H 0.65047 0.68891 0.6097 0.0
H667 H 0.65657 0.79827 0.69226 0.0
H668 H 1.00531 0.77394 0.81593 0.0
H669 H 0.93851 0.8104 0.77209 0.0
H670 H 0.88929 0.72862 0.83744 0.0
H671 H 0.99854 0.81295 0.7804 0.0
C672 C 0.92475 0.07251 0.51382 0.0
C673 C 0.98744 0.05274 0.43522 0.0
C674 C 0.96705 0.92379 0.47377 0.0
Mg675 Mg 1.00592 0.08237 0.50382 0.0
O676 O 0.98557 0.03384 0.51553 0.0
Mg677 Mg 0.94451 0.99546 0.49151 0.0
Mg678 Mg 1.01907 0.00626 0.50876 0.0
O679 O 0.05357 0.97938 0.50343 0.0
Mg680 Mg 0.02937 0.92622 0.51353 0.0
Mg681 Mg 0.09923 0.0242 0.52551 0.0
C682 C 0.06574 0.08743 0.5476 0.0
C683 C 0.0897 0.05478 0.46254 0.0
O684 O 0.9138 0.03633 0.50772 0.0
O685 O 0.95822 0.09436 0.51477 0.0
O686 O 0.96349 0.02378 0.44619 0.0
O687 O 1.01101 0.07828 0.45274 0.0
O688 O 0.05062 0.10506 0.53549 0.0
O689 O 0.05688 0.05158 0.54082 0.0
C690 C 0.94843 0.96292 0.55579 0.0
O691 O 0.98308 0.97419 0.55017 0.0
O692 O 0.92867 0.96844 0.53762 0.0
O693 O 0.07975 0.96864 0.49207 0.0
O694 O 0.07181 0.90946 0.48718 0.0
O695 O 0.08361 0.99022 0.56758 0.0
C696 C 0.0935 0.94317 0.48468 0.0
O697 O 0.03805 0.93315 0.564 0.0
O698 O 0.98021 0.90584 0.48762 0.0
C699 C 0.06288 0.96033 0.57948 0.0
O700 O 0.97988 0.95988 0.47676 0.0
O701 O 0.05493 0.0387 0.46647 0.0
O702 O 0.11025 0.05394 0.48239 0.0
C703 C 0.44162 0.0827 0.0698 0.0
C704 C 0.47242 0.07066 0.969 0.0
C705 C 0.45567 0.93016 0.97598 0.0
Mg706 Mg 0.51373 0.0874 0.02876 0.0
O707 O 0.4954 0.03569 0.0325 0.0
Mg708 Mg 0.44502 0.00509 0.01913 0.0
Mg709 Mg 0.52133 1.00307 0.00803 0.0
O710 O 0.54719 0.97053 0.98329 0.0
Mg711 Mg 0.52846 0.91871 0.98622 0.0
Mg712 Mg 0.59742 1.00071 0.99715 0.0
C713 C 0.58695 0.07627 0.03904 0.0
C714 C 0.57759 0.04774 0.95219 0.0
O715 O 0.42601 0.04862 0.05594 0.0
O716 O 0.47545 0.102 0.06387 0.0
O717 O 0.45136 0.04005 0.97943 0.0
O718 O 0.50042 0.09353 0.98314 0.0
O719 O 0.56954 0.09782 0.03874 0.0
O720 O 0.57269 0.04025 0.03154 0.0
C721 C 0.46524 0.95816 0.06417 0.0
O722 O 0.4966 0.96539 0.04892 0.0
O723 O 0.44239 0.97074 0.05764 0.0
O724 O 0.61683 0.95749 0.96031 0.0
O725 O 0.5676 0.90407 0.95185 0.0
O726 O 0.59027 0.96496 0.0364 0.0
C727 C 0.6015 0.92346 0.94629 0.0
O728 O 0.53971 0.91311 0.03258 0.0
O729 O 0.47297 0.90833 0.97541 0.0
C730 C 0.56806 0.93476 0.04683 0.0
O731 O 0.46997 0.96592 0.98472 0.0
O732 O 0.54611 0.0406 0.96717 0.0
O733 O 0.60036 0.03524 0.95899 0.0
C734 C 0.94985 0.58885 0.06709 0.0
C735 C 0.99392 0.59222 0.96966 0.0
C736 C 0.95652 0.43917 0.96501 0.0
Mg737 Mg 0.02415 0.59143 0.03238 0.0
O738 O 0.99976 0.53893 0.0278 0.0
Mg739 Mg 0.95145 0.51615 0.00905 0.0
Mg740 Mg 1.02296 0.50379 1.00458 0.0
O741 O 0.04581 0.46797 0.98174 0.0
Mg742 Mg 1.02089 0.41567 0.98125 0.0
Mg743 Mg 0.09454 0.49166 0.99975 0.0
C744 C 0.08908 0.56804 0.04581 0.0
C745 C 0.08801 0.54656 0.95405 0.0
O746 O 0.93387 0.55877 0.04787 0.0
O747 O 0.98453 0.60502 0.06658 0.0
O748 O 0.96866 0.5604 0.97407 0.0
O749 O 1.01993 0.60835 0.98802 0.0
O750 O 0.0758 0.59342 0.04668 0.0
O751 O 0.07231 0.53337 0.03408 0.0
C752 C 0.95632 0.45779 0.05237 0.0
O753 O 0.9895 0.46465 0.04201 0.0
O754 O 0.93757 0.47368 0.04331 0.0
O755 O 0.11106 0.44749 0.9627 0.0
O756 O 0.05967 0.39954 0.94745 0.0
O757 O 0.07894 0.45068 0.03629 0.0
C758 C 0.09439 0.41597 0.94545 0.0
O759 O 0.02649 0.40229 0.02736 0.0
O760 O 0.96924 0.41383 0.96645 0.0
C761 C 0.05415 0.42003 0.04372 0.0
O762 O 0.97388 0.47448 0.97462 0.0
O763 O 0.05611 0.54253 0.96677 0.0
O764 O 0.10676 0.53049 0.96275 0.0
C765 C 0.47766 0.59325 0.01965 0.0
C766 C 0.49127 0.5477 0.93226 0.0
C767 C 0.46637 0.42507 0.97899 0.0
Mg768 Mg 0.53488 0.58391 0.99259 0.0
O769 O 0.50034 0.54013 0.01384 0.0
Mg770 Mg 0.44922 0.50099 0.99646 0.0
Mg771 Mg 0.5264 0.50405 0.00908 0.0
O772 O 0.55146 0.46798 1.00309 0.0
Mg773 Mg 0.52634 0.42199 0.01897 0.0
Mg774 Mg 0.59839 0.50185 0.0213 0.0
C775 C 0.59354 0.58153 0.03282 0.0
C776 C 0.59539 0.53134 0.9555 0.0
O777 O 0.48009 0.56151 0.02123 0.0
O778 O 0.50681 0.61986 0.01202 0.0
O779 O 0.46626 0.52488 0.94892 0.0
O780 O 0.52146 0.57059 0.94328 0.0
O781 O 0.58521 0.59984 0.01519 0.0
O782 O 0.57377 0.54717 0.03592 0.0
C783 C 0.45651 0.4733 0.06224 0.0
O784 O 0.49055 0.48079 0.05481 0.0
O785 O 0.43683 0.47888 0.04416 0.0
O786 O 0.6176 0.45213 1.00453 0.0
O787 O 0.5668 0.3993 1.00279 0.0
O788 O 0.58077 0.48038 0.06953 0.0
C789 C 0.60132 0.41604 0.99971 0.0
O790 O 0.5287 0.43041 0.06989 0.0
O791 O 0.47845 0.40541 0.99206 0.0
C792 C 0.55575 0.45532 0.0841 0.0
O793 O 0.48104 0.46132 0.98224 0.0
O794 O 0.56197 0.52647 0.96348 0.0
O795 O 0.61392 0.52329 0.97303 0.0
C796 C 0.94251 0.57887 0.57457 0.0
C797 C 0.97575 0.57609 0.47355 0.0
C798 C 0.958 0.43194 0.47547 0.0
Mg799 Mg 1.01498 0.58778 0.53375 0.0
O800 O 0.99692 0.53517 0.53361 0.0
Mg801 Mg 0.94716 0.50548 0.51858 0.0
Mg802 Mg 0.02328 0.5039 0.50786 0.0
O803 O 0.04949 0.4724 0.48223 0.0
Mg804 Mg 0.03094 0.42037 0.4853 0.0
Mg805 Mg 0.09964 0.5027 0.49626 0.0
C806 C 0.08865 0.57621 0.54079 0.0
C807 C 0.07982 0.55241 0.45414 0.0
O808 O 0.92736 0.54661 0.55755 0.0
O809 O 0.97652 0.59874 0.57082 0.0
O810 O 0.95507 0.54401 0.48156 0.0
O811 O 1.00244 0.59848 0.48952 0.0
O812 O 0.07096 0.59785 0.54235 0.0
O813 O 0.07443 0.54038 0.53225 0.0
C814 C 0.96518 0.45375 0.55996 0.0
O815 O 0.99782 0.46376 0.547 0.0
O816 O 0.94249 0.46653 0.55344 0.0
O817 O 0.11843 0.46058 0.45743 0.0
O818 O 0.06933 0.40658 0.45 0.0
O819 O 0.09323 0.46577 0.53432 0.0
C820 C 0.10284 0.42652 0.4435 0.0
O821 O 0.04388 0.41264 0.53052 0.0
O822 O 0.97508 0.41002 0.47546 0.0
C823 C 0.07217 0.43504 0.54449 0.0
O824 O 0.97261 0.46787 0.48315 0.0
O825 O 0.04792 0.54334 0.46849 0.0
O826 O 0.10308 0.54021 0.46029 0.0
C827 C 0.45454 0.09707 0.56607 0.0
C828 C 0.49572 0.09179 0.46733 0.0
C829 C 0.45803 0.94218 0.46843 0.0
Mg830 Mg 0.52789 0.09718 0.53082 0.0
O831 O 0.50346 0.04474 0.5288 0.0
Mg832 Mg 0.45432 0.02082 0.51165 0.0
Mg833 Mg 0.52567 0.00831 0.50615 0.0
O834 O 0.54789 0.97186 0.48347 0.0
Mg835 Mg 0.5231 0.9198 0.48317 0.0
Mg836 Mg 0.59703 0.99573 0.50063 0.0
C837 C 0.59321 0.07417 0.54468 0.0
C838 C 0.58943 0.04842 0.45341 0.0
O839 O 0.4381 0.06592 0.54825 0.0
O840 O 0.48926 0.11311 0.5648 0.0
O841 O 0.47076 0.06067 0.47373 0.0
O842 O 0.5219 0.11031 0.48519 0.0
O843 O 0.57997 0.09946 0.54478 0.0
O844 O 0.57609 0.03914 0.53406 0.0
C845 C 0.46155 0.96768 0.55867 0.0
O846 O 0.4934 0.9716 0.54575 0.0
O847 O 0.44247 0.98318 0.5496 0.0
O848 O 0.61281 0.95028 0.46419 0.0
O849 O 0.56133 0.90161 0.45055 0.0
O850 O 0.58123 0.9561 0.53881 0.0
C851 C 0.59602 0.91797 0.44799 0.0
O852 O 0.52822 0.90857 0.52945 0.0
O853 O 0.47123 0.91705 0.46899 0.0
C854 C 0.55543 0.92603 0.5463 0.0
O855 O 0.47525 0.97742 0.47825 0.0
O856 O 0.55776 0.04484 0.46655 0.0
O857 O 0.60856 0.03294 0.46241 0.0
H858 H 0.15497 0.18375 0.30184 0.0
H859 H 0.16229 0.08693 0.44728 0.0
H860 H 0.24739 0.16159 0.31876 0.0
H861 H 0.05971 0.06634 0.4122 0.0
H862 H 0.19337 0.11918 0.40219 0.0
H863 H 0.11893 0.14505 0.34323 0.0
C864 C 0.16763 0.17051 0.31393 0.0
C865 C 0.2045 0.17637 0.30693 0.0
C866 C 0.16402 0.10777 0.4043 0.0
C867 C 0.16351 0.13255 0.3545 0.0
C868 C 0.14604 0.08936 0.43029 0.0
C869 C 0.10794 0.07435 0.43427 0.0
C870 C 0.14413 0.11189 0.38183 0.0
C871 C 0.08891 0.07826 0.41081 0.0
C872 C 0.14701 0.14846 0.33757 0.0
C873 C 0.21929 0.15838 0.32343 0.0
N874 N 0.10718 0.09698 0.38574 0.0
N875 N 0.19894 0.13776 0.34656 0.0
H876 H 0.90519 0.16678 0.33879 0.0
H877 H 0.94762 1.00299 0.38775 0.0
H878 H 0.84903 0.04884 0.30463 0.0
H879 H 1.01074 0.12129 0.41392 0.0
H880 H 0.91904 0.01926 0.34916 0.0
H881 H 0.95003 0.15107 0.35946 0.0
C882 C 0.90251 0.1376 0.33518 0.0
C883 C 0.87297 0.10906 0.32012 0.0
C884 C 0.93975 0.04166 0.36278 0.0
C885 C 0.92422 0.09078 0.3443 0.0
C886 C 0.95636 0.03235 0.38467 0.0
C887 C 0.98106 0.06087 0.40464 0.0
C888 C 0.94763 0.07977 0.36108 0.0
C889 C 0.99155 0.09837 0.39933 0.0
C890 C 0.92817 0.12864 0.3471 0.0
C891 C 0.87083 0.07171 0.31665 0.0
N892 N 0.9741 0.1068 0.37862 0.0
N893 N 0.89586 0.06364 0.32892 0.0
H894 H 0.86813 0.76736 0.31321 0.0
H895 H 0.92787 0.95007 0.44351 0.0
H896 H 0.82678 0.85556 0.32119 0.0
H897 H 0.94561 0.84909 0.44891 0.0
H898 H 0.89303 0.91773 0.39749 0.0
H899 H 0.90149 0.80007 0.36028 0.0
C900 C 0.86665 0.794 0.3245 0.0
C901 C 0.8447 0.80881 0.31324 0.0
C902 C 0.90421 0.90253 0.40897 0.0
C903 C 0.88237 0.84606 0.3673 0.0
C904 C 0.92401 0.92095 0.43544 0.0
C905 C 0.93999 0.90246 0.45014 0.0
C906 C 0.90065 0.86543 0.39684 0.0
C907 C 0.93386 0.86456 0.43842 0.0
C908 C 0.88536 0.81242 0.35156 0.0
C909 C 0.84371 0.84337 0.32879 0.0
N910 N 0.91503 0.84744 0.41221 0.0
N911 N 0.86213 0.86075 0.35518 0.0
H912 H 0.21821 0.97155 0.31987 0.0
H913 H 0.13772 0.00671 0.4594 0.0
H914 H 0.20909 0.86956 0.35323 0.0
H915 H 0.13411 0.9 0.47724 0.0
H916 H 0.18938 0.01216 0.42161 0.0
H917 H 0.2143 0.99999 0.37474 0.0
C918 C 0.21589 0.95518 0.33852 0.0
C919 C 0.21163 0.91709 0.33133 0.0
C920 C 0.17809 0.9878 0.43403 0.0
C921 C 0.20757 0.94969 0.39471 0.0
C922 C 0.14854 0.98491 0.45604 0.0
C923 C 0.1307 0.95209 0.47034 0.0
C924 C 0.18922 0.95717 0.42606 0.0
C925 C 0.14627 0.92509 0.46568 0.0
C926 C 0.21393 0.97167 0.37017 0.0
C927 C 0.21145 0.89854 0.35672 0.0
N928 N 0.17419 0.92784 0.44337 0.0
N929 N 0.20856 0.91474 0.38708 0.0
H930 H 0.23038 0.957 0.66537 0.0
H931 H 0.04136 0.89466 0.6061 0.0
H932 H 0.14138 0.88038 0.71865 0.0
H933 H 0.11135 0.01267 0.61959 0.0
H934 H 0.07562 0.88304 0.64349 0.0
H935 H 0.18697 0.97219 0.64212 0.0
C936 C 0.20191 0.94358 0.67258 0.0
C937 C 0.18991 0.91737 0.69432 0.0
C938 C 0.08272 0.91155 0.6387 0.0
C939 C 0.13993 0.93385 0.66657 0.0
C940 C 0.06309 0.91828 0.61757 0.0
C941 C 0.07404 0.95454 0.60902 0.0
C942 C 0.11362 0.94113 0.65069 0.0
C943 C 0.10241 0.98407 0.62479 0.0
C944 C 0.17713 0.95221 0.65909 0.0
C945 C 0.15221 0.90012 0.70157 0.0
N946 N 0.12188 0.97653 0.64411 0.0
N947 N 0.1285 0.9083 0.6874 0.0
H948 H 0.21853 0.15059 0.69184 0.0
H949 H 0.08692 0.16201 0.57383 0.0
H950 H 0.1746 0.23743 0.70608 0.0
H951 H 0.10529 0.0609 0.57701 0.0
H952 H 0.12555 0.19358 0.61809 0.0
H953 H 0.18175 0.1194 0.64628 0.0
C954 C 0.20077 0.16278 0.68565 0.0
C955 C 0.19968 0.19668 0.70261 0.0
C956 C 0.12122 0.16449 0.60885 0.0
C957 C 0.15827 0.16175 0.65031 0.0
C958 C 0.09941 0.14651 0.58341 0.0
C959 C 0.09273 0.10855 0.57146 0.0
C960 C 0.13665 0.14444 0.62229 0.0
C961 C 0.10962 0.09002 0.58508 0.0
C962 C 0.18004 0.14518 0.65952 0.0
C963 C 0.17641 0.21143 0.69347 0.0
N964 N 0.13068 0.10806 0.60975 0.0
N965 N 0.15685 0.19405 0.66776 0.0
H966 H 0.83452 0.17784 0.6489 0.0
H967 H 0.92956 0.13344 0.48925 0.0
H968 H 0.91815 0.26031 0.59624 0.0
H969 H 0.86153 0.05427 0.55204 0.0
H970 H 0.90054 0.17726 0.51322 0.0
H971 H 0.81889 0.13572 0.60039 0.0
C972 C 0.84911 0.18817 0.62724 0.0
C973 C 0.87946 0.22256 0.6274 0.0
C974 C 0.89097 0.14981 0.52104 0.0
C975 C 0.86231 0.17218 0.57142 0.0
C976 C 0.90756 0.12485 0.50745 0.0
C977 C 0.89873 0.09107 0.51975 0.0
C978 C 0.86625 0.14118 0.54762 0.0
C979 C 0.8696 0.08057 0.54255 0.0
C980 C 0.84005 0.16342 0.59924 0.0
C981 C 0.89623 0.23324 0.59782 0.0
N982 N 0.85505 0.10617 0.55655 0.0
N983 N 0.88836 0.20754 0.57111 0.0
H984 H 0.78737 0.8424 0.69515 0.0
H985 H 0.97786 0.93738 0.59706 0.0
H986 H 0.88297 0.82271 0.70643 0.0
H987 H 0.87683 0.94038 0.57754 0.0
H988 H 0.94569 0.90014 0.64019 0.0
H989 H 0.82178 0.88323 0.65539 0.0
C990 C 0.81565 0.84672 0.68941 0.0
C991 C 0.83206 0.82865 0.70412 0.0
C992 C 0.93064 0.90906 0.62647 0.0
C993 C 0.872 0.87592 0.65832 0.0
C994 C 0.94903 0.93038 0.60181 0.0
C995 C 0.93014 0.94197 0.5833 0.0
C996 C 0.89308 0.89947 0.63295 0.0
C997 C 0.89269 0.93207 0.59088 0.0
C998 C 0.83534 0.8701 0.66658 0.0
C999 C 0.86902 0.83583 0.69571 0.0
N1000 N 0.87554 0.91151 0.61497 0.0
N1001 N 0.88767 0.85876 0.67335 0.0
H1002 H 0.27463 0.14325 0.19407 0.0
H1003 H 0.46586 0.15408 0.10285 0.0
H1004 H 0.37133 0.2444 0.19441 0.0
H1005 H 0.36822 0.05438 0.08936 0.0
H1006 H 0.43117 0.18572 0.13858 0.0
H1007 H 0.30726 0.10899 0.15712 0.0
C1008 C 0.30254 0.15836 0.18612 0.0
C1009 C 0.3201 0.19688 0.19723 0.0
C1010 C 0.41717 0.15692 0.12787 0.0
C1011 C 0.35803 0.15761 0.15572 0.0
C1012 C 0.43708 0.13865 0.10738 0.0
C1013 C 0.42012 0.10131 0.09276 0.0
C1014 C 0.37971 0.13801 0.13417 0.0
C1015 C 0.38259 0.08313 0.09994 0.0
C1016 C 0.32127 0.1387 0.16525 0.0
C1017 C 0.35663 0.21471 0.18673 0.0
N1018 N 0.36368 0.10162 0.12008 0.0
N1019 N 0.37427 0.195 0.16679 0.0
H1020 H 0.79281 0.29707 0.16066 0.0
H1021 H 0.98588 0.43979 0.09857 0.0
H1022 H 0.87979 0.35472 0.22267 0.0
H1023 H 0.8851 0.41386 0.05779 0.0
H1024 H 0.95193 0.39897 0.13945 0.0
H1025 H 0.83093 0.33061 0.11791 0.0
C1026 C 0.82006 0.3167 0.16522 0.0
C1027 C 0.83337 0.32279 0.19507 0.0
C1028 C 0.93749 0.40223 0.12138 0.0
C1029 C 0.87731 0.36141 0.14621 0.0
C1030 C 0.95678 0.42523 0.09803 0.0
C1031 C 0.93812 0.43057 0.07513 0.0
C1032 C 0.8996 0.38409 0.12117 0.0
C1033 C 0.90047 0.41103 0.07533 0.0
C1034 C 0.84187 0.33578 0.14079 0.0
C1035 C 0.86889 0.3487 0.19971 0.0
N1036 N 0.88252 0.38876 0.09796 0.0
N1037 N 0.88979 0.36713 0.17546 0.0
H1038 H 0.58832 0.81145 0.18833 0.0
H1039 H 0.62774 0.97267 0.08074 0.0
H1040 H 0.69303 0.89992 0.17398 0.0
H1041 H 0.5315 0.8704 0.07504 0.0
H1042 H 0.64824 0.95018 0.12079 0.0
H1043 H 0.56388 0.83596 0.15201 0.0
C1044 C 0.60609 0.83618 0.17769 0.0
C1045 C 0.64276 0.85376 0.18421 0.0
C1046 C 0.62256 0.93269 0.11092 0.0
C1047 C 0.61501 0.88185 0.14274 0.0
C1048 C 0.61066 0.94559 0.0881 0.0
C1049 C 0.57793 0.92323 0.07418 0.0
C1050 C 0.60158 0.89722 0.12018 0.0
C1051 C 0.55699 0.8885 0.08496 0.0
C1052 C 0.59217 0.85 0.15687 0.0
C1053 C 0.6647 0.88535 0.16944 0.0
N1054 N 0.56928 0.87645 0.10725 0.0
N1055 N 0.65046 0.89844 0.14949 0.0
H1056 H 0.27892 0.69656 0.15222 0.0
H1057 H 0.10398 0.527 0.08339 0.0
H1058 H 0.18828 0.63484 0.21277 0.0
H1059 H 0.14825 0.6344 0.04837 0.0
H1060 H 0.15086 0.55159 0.12184 0.0
H1061 H 0.24643 0.65808 0.10528 0.0
C1062 C 0.25289 0.67386 0.15557 0.0
C1063 C 0.23602 0.6688 0.18623 0.0
C1064 C 0.15084 0.56927 0.10504 0.0
C1065 C 0.1993 0.62478 0.13313 0.0
C1066 C 0.12432 0.55525 0.083 0.0
C1067 C 0.12215 0.57882 0.06282 0.0
C1068 C 0.17588 0.60669 0.10623 0.0
C1069 C 0.14891 0.61541 0.06364 0.0
C1070 C 0.23432 0.65224 0.12889 0.0
C1071 C 0.20199 0.63959 0.18943 0.0
N1072 N 0.17458 0.62832 0.08513 0.0
N1073 N 0.18461 0.61877 0.1632 0.0
H1074 H 0.30269 0.76863 0.85552 0.0
H1075 H 0.42542 0.96597 0.94613 0.0
H1076 H 0.33147 0.87458 0.82058 0.0
H1077 H 0.40741 0.85732 0.97119 0.0
H1078 H 0.3779 0.93511 0.90884 0.0
H1079 H 0.32792 0.80271 0.90567 0.0
C1080 C 0.31432 0.79919 0.85849 0.0
C1081 C 0.31593 0.8189 0.83367 0.0
C1082 C 0.38377 0.91816 0.92307 0.0
C1083 C 0.34499 0.85815 0.89106 0.0
C1084 C 0.41066 0.93578 0.94457 0.0
C1085 C 0.4208 0.914 0.96125 0.0
C1086 C 0.36695 0.87863 0.91851 0.0
C1087 C 0.40087 0.87504 0.95831 0.0
C1088 C 0.32851 0.81865 0.88722 0.0
C1089 C 0.33024 0.85843 0.83908 0.0
N1090 N 0.37528 0.85854 0.93694 0.0
N1091 N 0.34487 0.87686 0.8671 0.0
H1092 H 0.25109 0.31864 0.85712 0.0
H1093 H 0.07252 0.36521 0.89168 0.0
H1094 H 0.18107 0.30182 0.78345 0.0
H1095 H 0.16535 0.42474 0.94716 0.0
H1096 H 0.108 0.33444 0.85492 0.0
H1097 H 0.21589 0.3499 0.89386 0.0
C1098 C 0.22817 0.3213 0.84873 0.0
C1099 C 0.21893 0.30748 0.81719 0.0
C1100 C 0.1206 0.35429 0.87511 0.0
C1101 C 0.17856 0.34324 0.8591 0.0
C1102 C 0.10034 0.37179 0.89619 0.0
C1103 C 0.11594 0.39768 0.92261 0.0
C1104 C 0.15656 0.36204 0.88076 0.0
C1105 C 0.15222 0.40516 0.92707 0.0
C1106 C 0.20828 0.3394 0.86964 0.0
C1107 C 0.18924 0.31219 0.80751 0.0
N1108 N 0.17118 0.3872 0.90655 0.0
N1109 N 0.16997 0.32941 0.82842 0.0
H1110 H 0.70187 0.14013 0.78783 0.0
H1111 H 0.57719 0.11821 0.95174 0.0
H1112 H 0.69544 0.23609 0.85268 0.0
H1113 H 0.60638 0.03021 0.89399 0.0
H1114 H 0.60993 0.16039 0.91148 0.0
H1115 H 0.65717 0.09832 0.82244 0.0
C1116 C 0.6911 0.15239 0.80952 0.0
C1117 C 0.70289 0.19158 0.81777 0.0
C1118 C 0.60853 0.13161 0.90743 0.0
C1119 C 0.65096 0.14375 0.8575 0.0
C1120 C 0.58956 0.10751 0.93017 0.0
C1121 C 0.58918 0.0708 0.926 0.0
C1122 C 0.62672 0.11852 0.88043 0.0
C1123 C 0.60612 0.05837 0.89804 0.0
C1124 C 0.66529 0.1285 0.82919 0.0
C1125 C 0.68705 0.20595 0.84559 0.0
N1126 N 0.62428 0.08217 0.87648 0.0
N1127 N 0.66205 0.18201 0.8647 0.0
H1128 H 0.90609 0.67429 0.83749 0.0
H1129 H 0.03877 0.66276 0.95555 0.0
H1130 H 1.00094 0.76828 0.87101 0.0
H1131 H 0.93938 0.57032 0.92932 0.0
H1132 H 0.02698 0.70028 0.9218 0.0
H1133 H 0.9181 0.63501 0.86971 0.0
C1134 C 0.92923 0.68681 0.85181 0.0
C1135 C 0.95268 0.72467 0.85122 0.0
C1136 C 1.00782 0.67171 0.92327 0.0
C1137 C 0.96699 0.6796 0.88777 0.0
C1138 C 1.01468 0.6501 0.94242 0.0
C1139 C 0.99001 0.61323 0.94551 0.0
C1140 C 0.97601 0.6565 0.90696 0.0
C1141 C 0.95922 0.59857 0.9278 0.0
C1142 C 0.93626 0.66425 0.86999 0.0
C1143 C 0.98246 0.73911 0.87011 0.0
N1144 N 0.95301 0.62027 0.90949 0.0
N1145 N 0.98879 0.71661 0.88742 0.0
H1146 H 0.05177 0.29636 0.19585 0.0
H1147 H 0.11758 0.44094 0.07115 0.0
H1148 H 0.16101 0.33711 0.15281 0.0
H1149 H 1.00745 0.35921 0.07379 0.0
H1150 H 0.13208 0.40929 0.10805 0.0
H1151 H 0.03321 0.3236 0.15704 0.0
C1152 C 0.07175 0.31079 0.17806 0.0
C1153 C 0.108 0.31455 0.1775 0.0
C1154 C 0.10471 0.39828 0.10064 0.0
C1155 C 0.08715 0.34634 0.13372 0.0
C1156 C 0.09618 0.41655 0.07973 0.0
C1157 C 0.06111 0.40275 0.06913 0.0
C1158 C 0.07796 0.3662 0.11176 0.0
C1159 C 0.03482 0.37082 0.08121 0.0
C1160 C 0.06112 0.3262 0.15596 0.0
C1161 C 0.13279 0.3334 0.15395 0.0
N1162 N 0.04374 0.35367 0.10204 0.0
N1163 N 0.12202 0.34902 0.13331 0.0
H1164 H 0.21114 0.73017 0.85109 0.0
H1165 H 0.12584 0.52817 0.90122 0.0
H1166 H 0.20136 0.63193 0.78192 0.0
H1167 H 0.08593 0.61424 0.94615 0.0
H1168 H 0.15742 0.56649 0.85898 0.0
H1169 H 0.16922 0.68955 0.88823 0.0
C1170 C 0.19976 0.70004 0.84353 0.0
C1171 C 0.20929 0.68443 0.81316 0.0
C1172 C 0.14142 0.57682 0.87785 0.0
C1173 C 0.16246 0.63774 0.8561 0.0
C1174 C 0.12357 0.55512 0.90201 0.0
C1175 C 0.10357 0.56833 0.92724 0.0
C1176 C 0.14004 0.61243 0.87934 0.0
C1177 C 0.10114 0.60318 0.92706 0.0
C1178 C 0.17594 0.67692 0.86482 0.0
C1179 C 0.19478 0.64511 0.80513 0.0
N1180 N 0.1198 0.62447 0.9037 0.0
N1181 N 0.17233 0.62301 0.82664 0.0
H1182 H 0.3489 0.154 0.87969 0.0
H1183 H 0.4434 0.02416 0.91616 0.0
H1184 H 0.34996 0.05443 0.81682 0.0
H1185 H 0.47318 0.13932 0.96143 0.0
H1186 H 0.41165 0.03678 0.87784 0.0
H1187 H 0.39671 0.15202 0.9084 0.0
C1188 C 0.35954 0.1321 0.87159 0.0
C1189 C 0.34481 0.10386 0.84618 0.0
C1190 C 0.42569 0.05962 0.8957 0.0
C1191 C 0.39915 0.10124 0.87908 0.0
C1192 C 0.44392 0.0524 0.91751 0.0
C1193 C 0.46096 0.08076 0.94187 0.0
C1194 C 0.42358 0.09524 0.8987 0.0
C1195 C 0.46062 0.11682 0.94275 0.0
C1196 C 0.38678 0.13095 0.88803 0.0
C1197 C 0.35968 0.07616 0.83681 0.0
N1198 N 0.44154 0.12289 0.92184 0.0
N1199 N 0.38558 0.07527 0.85347 0.0
H1200 H 0.7682 0.3005 0.86048 0.0
H1201 H 0.9395 0.47824 0.92683 0.0
H1202 H 0.85061 0.37265 0.79994 0.0
H1203 H 0.89834 0.3719 0.96344 0.0
H1204 H 0.89156 0.45195 0.88939 0.0
H1205 H 0.80063 0.33966 0.90721 0.0
C1206 C 0.7923 0.32546 0.85719 0.0
C1207 C 0.80698 0.33345 0.82648 0.0
C1208 C 0.89255 0.4348 0.90624 0.0
C1209 C 0.84381 0.37813 0.8794 0.0
C1210 C 0.91971 0.44981 0.92772 0.0
C1211 C 0.9231 0.42709 0.94808 0.0
C1212 C 0.86811 0.39717 0.9057 0.0
C1213 C 0.89688 0.39027 0.94796 0.0
C1214 C 0.81089 0.34754 0.88374 0.0
C1215 C 0.83862 0.36562 0.82331 0.0
N1216 N 0.87062 0.37637 0.92697 0.0
N1217 N 0.85616 0.38666 0.84942 0.0
H1218 H 0.7709 0.86397 0.82401 0.0
H1219 H 0.57791 0.85249 0.91234 0.0
H1220 H 0.67269 0.7642 0.81909 0.0
H1221 H 0.67526 0.95204 0.92785 0.0
H1222 H 0.61317 0.82149 0.87662 0.0
H1223 H 0.73795 0.89786 0.86111 0.0
C1224 C 0.74265 0.84902 0.83099 0.0
C1225 C 0.72484 0.81092 0.81859 0.0
C1226 C 0.62701 0.85012 0.88776 0.0
C1227 C 0.68654 0.84989 0.8603 0.0
C1228 C 0.60675 0.86802 0.90827 0.0
C1229 C 0.62342 0.90513 0.92345 0.0
C1230 C 0.66456 0.86916 0.88198 0.0
C1231 C 0.66107 0.92345 0.91683 0.0
C1232 C 0.72372 0.86851 0.85195 0.0
C1233 C 0.68779 0.79348 0.82782 0.0
N1234 N 0.68033 0.90532 0.89666 0.0
N1235 N 0.67007 0.813 0.8479 0.0
H1236 H 0.86483 0.70103 0.23487 0.0
H1237 H 0.87956 0.58195 0.06423 0.0
H1238 H 0.80004 0.69048 0.15904 0.0
H1239 H 0.96977 0.63508 0.1234 0.0
H1240 H 0.84506 0.6131 0.10213 0.0
H1241 H 0.89891 0.66859 0.19765 0.0
C1242 C 0.85792 0.69208 0.21036 0.0
C1243 C 0.83009 0.69924 0.19985 0.0
C1244 C 0.87239 0.61784 0.1068 0.0
C1245 C 0.86828 0.66135 0.15737 0.0
C1246 C 0.89204 0.5999 0.08527 0.0
C1247 C 0.92773 0.60598 0.0905 0.0
C1248 C 0.8882 0.64143 0.13416 0.0
C1249 C 0.94247 0.62974 0.11821 0.0
C1250 C 0.87737 0.67365 0.18914 0.0
C1251 C 0.82199 0.68665 0.1679 0.0
N1252 N 0.92263 0.64638 0.13902 0.0
N1253 N 0.84078 0.66815 0.14788 0.0
H1254 H 0.35031 0.76479 0.16147 0.0
H1255 H 0.43637 0.97471 0.12278 0.0
H1256 H 0.35737 0.86146 0.2315 0.0
H1257 H 0.46643 0.88786 0.06405 0.0
H1258 H 0.40736 0.93254 0.16272 0.0
H1259 H 0.39318 0.80737 0.1252 0.0
C1260 C 0.36119 0.79491 0.16931 0.0
C1261 C 0.34951 0.80982 0.19913 0.0
C1262 C 0.4208 0.92273 0.14141 0.0
C1263 C 0.39817 0.85843 0.15799 0.0
C1264 C 0.43742 0.94687 0.11864 0.0
C1265 C 0.454 0.93481 0.09026 0.0
C1266 C 0.41982 0.88569 0.13555 0.0
C1267 C 0.4543 0.89832 0.08587 0.0
C1268 C 0.3856 0.81915 0.14865 0.0
C1269 C 0.36468 0.84892 0.20829 0.0
N1270 N 0.43687 0.87472 0.10808 0.0
N1271 N 0.38774 0.87183 0.1877 0.0
H1272 H 0.71487 0.13912 0.19595 0.0
H1273 H 0.63617 0.1483 0.03943 0.0
H1274 H 0.74002 0.24086 0.15548 0.0
H1275 H 0.61617 0.04362 0.07321 0.0
H1276 H 0.68363 0.18083 0.07616 0.0
H1277 H 0.68648 0.102 0.14714 0.0
C1278 C 0.71484 0.15356 0.17661 0.0
C1279 C 0.72947 0.19308 0.17978 0.0
C1280 C 0.66941 0.15062 0.07521 0.0
C1281 C 0.69721 0.15111 0.12415 0.0
C1282 C 0.64243 0.13203 0.05408 0.0
C1283 C 0.62187 0.09341 0.05371 0.0
C1284 C 0.67532 0.13057 0.09662 0.0
C1285 C 0.63129 0.07353 0.07293 0.0
C1286 C 0.69874 0.13244 0.14878 0.0
C1287 C 0.72876 0.21049 0.15414 0.0
N1288 N 0.6568 0.09253 0.09423 0.0
N1289 N 0.71263 0.18944 0.12757 0.0
H1290 H 0.66605 0.68588 0.81755 0.0
H1291 H 0.66754 0.55295 0.93561 0.0
H1292 H 0.75129 0.64343 0.8101 0.0
H1293 H 0.56722 0.5511 0.90935 0.0
H1294 H 0.69987 0.58934 0.89245 0.0
H1295 H 0.63039 0.64069 0.85403 0.0
C1296 C 0.67714 0.66677 0.82327 0.0
C1297 C 0.71184 0.66856 0.81073 0.0
C1298 C 0.67073 0.58089 0.89611 0.0
C1299 C 0.67136 0.61733 0.85316 0.0
C1300 C 0.65213 0.56005 0.9208 0.0
C1301 C 0.61444 0.54972 0.92692 0.0
C1302 C 0.65176 0.5921 0.87753 0.0
C1303 C 0.59625 0.55966 0.90652 0.0
C1304 C 0.65675 0.64104 0.84416 0.0
C1305 C 0.72485 0.6433 0.81938 0.0
N1306 N 0.61509 0.58077 0.88308 0.0
N1307 N 0.70484 0.61911 0.84038 0.0
H1308 H 0.40986 0.66184 0.83433 0.0
H1309 H 0.44061 0.49615 0.89354 0.0
H1310 H 0.33436 0.54596 0.82417 0.0
H1311 H 0.51649 0.6118 0.90399 0.0
H1312 H 0.40845 0.51132 0.85723 0.0
H1313 H 0.45463 0.64207 0.85034 0.0
C1314 C 0.40283 0.63213 0.83502 0.0
C1315 C 0.36811 0.60555 0.82818 0.0
C1316 C 0.43261 0.53324 0.86685 0.0
C1317 C 0.41927 0.58276 0.84686 0.0
C1318 C 0.4512 0.5245 0.88738 0.0
C1319 C 0.48083 0.55295 0.90231 0.0
C1320 C 0.44352 0.57077 0.8615 0.0
C1321 C 0.49358 0.58907 0.89323 0.0
C1322 C 0.42844 0.62087 0.84424 0.0
C1323 C 0.3605 0.56752 0.82986 0.0
N1324 N 0.4743 0.59719 0.874 0.0
N1325 N 0.38574 0.55732 0.8393 0.0
H1326 H 0.3824 0.28715 0.80705 0.0
H1327 H 0.43687 0.3492 0.9585 0.0
H1328 H 0.32384 0.36142 0.82832 0.0
H1329 H 0.43271 0.45463 0.94547 0.0
H1330 H 0.40249 0.31854 0.91186 0.0
H1331 H 0.41258 0.31566 0.8563 0.0
C1332 C 0.37614 0.30969 0.82204 0.0
C1333 C 0.35028 0.32163 0.81395 0.0
C1334 C 0.40931 0.34848 0.91914 0.0
C1335 C 0.38386 0.35363 0.87069 0.0
C1336 C 0.42846 0.36596 0.94612 0.0
C1337 C 0.43864 0.40496 0.95559 0.0
C1338 C 0.40025 0.37009 0.90142 0.0
C1339 C 0.4263 0.42484 0.9387 0.0
C1340 C 0.39289 0.32551 0.85038 0.0
C1341 C 0.34356 0.35137 0.83387 0.0
N1342 N 0.40798 0.40727 0.91224 0.0
N1343 N 0.36021 0.36637 0.86151 0.0
H1344 H 0.60537 0.22196 0.89065 0.0
H1345 H 0.66658 0.43514 0.96459 0.0
H1346 H 0.67032 0.31863 0.84314 0.0
H1347 H 0.5834 0.3429 0.00697 0.0
H1348 H 0.6891 0.39014 0.93078 0.0
H1349 H 0.61643 0.26318 0.94177 0.0
C1350 C 0.62228 0.25158 0.89091 0.0
C1351 C 0.63609 0.26688 0.86244 0.0
C1352 C 0.66656 0.37986 0.94816 0.0
C1353 C 0.64949 0.31378 0.92057 0.0
C1354 C 0.65381 0.40557 0.96749 0.0
C1355 C 0.62216 0.39232 0.98739 0.0
C1356 C 0.64708 0.34096 0.94867 0.0
C1357 C 0.60702 0.35391 0.9908 0.0
C1358 C 0.62902 0.27495 0.92006 0.0
C1359 C 0.65896 0.30524 0.86427 0.0
N1360 N 0.61901 0.32933 0.97092 0.0
N1361 N 0.66444 0.32737 0.89276 0.0
H1362 H 0.63868 0.35216 0.19356 0.0
H1363 H 0.59875 0.50898 0.12737 0.0
H1364 H 0.71104 0.4688 0.19624 0.0
H1365 H 0.53304 0.39011 0.11065 0.0
H1366 H 0.63005 0.49675 0.1663 0.0
H1367 H 0.59172 0.36748 0.17538 0.0
C1368 C 0.64447 0.38111 0.19082 0.0
C1369 C 0.67896 0.40919 0.19598 0.0
C1370 C 0.60821 0.4734 0.15471 0.0
C1371 C 0.62544 0.42688 0.17526 0.0
C1372 C 0.59004 0.48043 0.1327 0.0
C1373 C 0.56376 0.4504 0.11526 0.0
C1374 C 0.60027 0.43606 0.15911 0.0
C1375 C 0.55336 0.41406 0.12334 0.0
C1376 C 0.6177 0.38981 0.1804 0.0
C1377 C 0.68506 0.44617 0.19193 0.0
N1378 N 0.5723 0.40773 0.14414 0.0
N1379 N 0.65869 0.45387 0.18158 0.0
H1380 H 0.67755 0.71874 0.19997 0.0
H1381 H 0.62922 0.65783 0.04672 0.0
H1382 H 0.7373 0.64566 0.1816 0.0
H1383 H 0.62612 0.55198 0.06704 0.0
H1384 H 0.66739 0.69053 0.09099 0.0
H1385 H 0.65396 0.69441 0.14767 0.0
C1386 C 0.68651 0.69832 0.18451 0.0
C1387 C 0.71069 0.68541 0.19441 0.0
C1388 C 0.65853 0.66015 0.08547 0.0
C1389 C 0.68298 0.65663 0.13497 0.0
C1390 C 0.63714 0.64147 0.05999 0.0
C1391 C 0.62369 0.60195 0.05362 0.0
C1392 C 0.66656 0.63911 0.10454 0.0
C1393 C 0.63519 0.58235 0.07151 0.0
C1394 C 0.67301 0.68443 0.15469 0.0
C1395 C 0.71925 0.65683 0.17445 0.0
N1396 N 0.6557 0.60113 0.09645 0.0
N1397 N 0.70519 0.64313 0.14559 0.0
H1398 H 0.42292 0.75551 0.12145 0.0
H1399 H 0.42206 0.55684 0.06106 0.0
H1400 H 0.37986 0.66186 0.17548 0.0
H1401 H 0.45934 0.64769 1.00443 0.0
H1402 H 0.38384 0.58632 0.09477 0.0
H1403 H 0.41552 0.71075 0.07245 0.0
C1404 C 0.41148 0.72555 0.12295 0.0
C1405 C 0.40316 0.71242 0.1525 0.0
C1406 C 0.39945 0.59926 0.07435 0.0
C1407 C 0.39471 0.66113 0.09684 0.0
C1408 C 0.42111 0.58225 0.05502 0.0
C1409 C 0.44502 0.60103 0.03109 0.0
C1410 C 0.40262 0.63536 0.06978 0.0
C1411 C 0.4423 0.63334 0.02369 0.0
C1412 C 0.40684 0.69995 0.09502 0.0
C1413 C 0.38718 0.67332 0.15319 0.0
N1414 N 0.42236 0.65023 0.04362 0.0
N1415 N 0.38426 0.64909 0.12579 0.0
H1416 H 0.38193 0.31944 0.20205 0.0
H1417 H 0.38565 0.45596 0.08491 0.0
H1418 H 0.30088 0.36759 0.20972 0.0
H1419 H 0.48464 0.45054 0.10679 0.0
H1420 H 0.35353 0.42094 0.12869 0.0
H1421 H 0.41969 0.36419 0.16565 0.0
C1422 C 0.37225 0.33972 0.19642 0.0
C1423 C 0.3379 0.33939 0.20863 0.0
C1424 C 0.38234 0.42744 0.12398 0.0
C1425 C 0.38076 0.39021 0.16658 0.0
C1426 C 0.40084 0.44746 0.09884 0.0
C1427 C 0.43804 0.45545 0.09128 0.0
C1428 C 0.40082 0.41462 0.14168 0.0
C1429 C 0.45594 0.44393 0.11078 0.0
C1430 C 0.39381 0.36519 0.17559 0.0
C1431 C 0.32686 0.36636 0.20046 0.0
N1432 N 0.43711 0.42358 0.13474 0.0
N1433 N 0.34791 0.39021 0.17959 0.0
H1434 H 0.80838 0.70052 0.65918 0.0
H1435 H 0.96126 0.62047 0.63277 0.0
H1436 H 0.84093 0.67463 0.74078 0.0
H1437 H 0.87316 0.574 0.57129 0.0
H1438 H 0.92559 0.65027 0.67086 0.0
H1439 H 0.8397 0.66435 0.62431 0.0
C1440 C 0.82132 0.68658 0.66989 0.0
C1441 C 0.82037 0.68943 0.70313 0.0
C1442 C 0.91404 0.63326 0.64915 0.0
C1443 C 0.85887 0.64991 0.66298 0.0
C1444 C 0.93434 0.61637 0.62737 0.0
C1445 C 0.9201 0.59459 0.59883 0.0
C1446 C 0.87974 0.62946 0.64187 0.0
C1447 C 0.88507 0.59027 0.59307 0.0
C1448 C 0.83966 0.66626 0.64986 0.0
C1449 C 0.84016 0.6727 0.71535 0.0
N1450 N 0.86636 0.60807 0.61411 0.0
N1451 N 0.85889 0.65396 0.69529 0.0
H1452 H 0.35032 0.78254 0.6639 0.0
H1453 H 0.41967 0.98338 0.60972 0.0
H1454 H 0.33977 0.87832 0.72656 0.0
H1455 H 0.4676 0.90257 0.56865 0.0
H1456 H 0.38833 0.94464 0.65166 0.0
H1457 H 0.39138 0.82482 0.62767 0.0
C1458 C 0.35693 0.81253 0.6703 0.0
C1459 C 0.34167 0.82688 0.69855 0.0
C1460 C 0.40601 0.93554 0.63372 0.0
C1461 C 0.38786 0.8754 0.65641 0.0
C1462 C 0.42378 0.95752 0.6097 0.0
C1463 C 0.44603 0.94595 0.58559 0.0
C1464 C 0.40983 0.90124 0.63329 0.0
C1465 C 0.45074 0.91247 0.58685 0.0
C1466 C 0.38033 0.83663 0.64947 0.0
C1467 C 0.35048 0.86593 0.70494 0.0
N1468 N 0.43227 0.89089 0.61007 0.0
N1469 N 0.37276 0.88882 0.68388 0.0
H1470 H 0.20122 0.3561 0.63123 0.0
H1471 H 0.09777 0.48021 0.59875 0.0
H1472 H 0.20169 0.45745 0.69206 0.0
H1473 H 0.07528 0.36739 0.54997 0.0
H1474 H 0.13117 0.46885 0.6364 0.0
H1475 H 0.15113 0.35572 0.60412 0.0
C1476 C 0.19043 0.3779 0.63922 0.0
C1477 C 0.20618 0.4073 0.66354 0.0
C1478 C 0.11838 0.44616 0.61793 0.0
C1479 C 0.14916 0.40718 0.63256 0.0
C1480 C 0.09914 0.45265 0.59654 0.0
C1481 C 0.08373 0.42467 0.57137 0.0
C1482 C 0.12316 0.41173 0.61368 0.0
C1483 C 0.08652 0.38953 0.56932 0.0
C1484 C 0.16189 0.37771 0.6237 0.0
C1485 C 0.19109 0.43481 0.67288 0.0
N1486 N 0.10656 0.38426 0.58984 0.0
N1487 N 0.16383 0.4343 0.65718 0.0
H1488 H 0.69738 0.12623 0.71153 0.0
H1489 H 0.65033 0.14232 0.54897 0.0
H1490 H 0.77937 0.20156 0.65304 0.0
H1491 H 0.61136 0.03282 0.57978 0.0
H1492 H 0.69816 0.16515 0.58613 0.0
H1493 H 0.66551 0.0908 0.66395 0.0
C1494 C 0.7093 0.13443 0.68843 0.0
C1495 C 0.74123 0.16645 0.68602 0.0
C1496 C 0.67971 0.13587 0.58416 0.0
C1497 C 0.70406 0.12735 0.6318 0.0
C1498 C 0.65238 0.12283 0.56301 0.0
C1499 C 0.62674 0.08562 0.56132 0.0
C1500 C 0.68075 0.1119 0.60451 0.0
C1501 C 0.63061 0.06165 0.58019 0.0
C1502 C 0.69105 0.11437 0.66133 0.0
C1503 C 0.75517 0.17656 0.6557 0.0
N1504 N 0.65649 0.07545 0.60159 0.0
N1505 N 0.73597 0.15771 0.62981 0.0
H1506 H 0.82131 0.37697 0.32619 0.0
H1507 H 0.90877 0.3598 0.47456 0.0
H1508 H 0.8084 0.27251 0.35672 0.0
H1509 H 0.92688 0.46629 0.44501 0.0
H1510 H 0.85917 0.32888 0.43978 0.0
H1511 H 0.84843 0.41125 0.37628 0.0
C1512 C 0.82379 0.36129 0.34359 0.0
C1513 C 0.81363 0.32206 0.33703 0.0
C1514 C 0.8735 0.35914 0.44126 0.0
C1515 C 0.84403 0.36069 0.39413 0.0
C1516 C 0.90175 0.37678 0.46121 0.0
C1517 C 0.92243 0.41541 0.462 0.0
C1518 C 0.86647 0.38018 0.42144 0.0
C1519 C 0.91182 0.43628 0.44474 0.0
C1520 C 0.83915 0.38078 0.37214 0.0
C1521 C 0.81691 0.30292 0.36043 0.0
N1522 N 0.88509 0.41822 0.42446 0.0
N1523 N 0.83215 0.32245 0.38775 0.0
H1524 H 0.66627 0.75037 0.32717 0.0
H1525 H 0.6686 0.9464 0.42767 0.0
H1526 H 0.75746 0.8559 0.32277 0.0
H1527 H 0.5722 0.8448 0.41793 0.0
H1528 H 0.70276 0.91317 0.39206 0.0
H1529 H 0.63294 0.78356 0.36369 0.0
C1530 C 0.67954 0.78041 0.33423 0.0
C1531 C 0.715 0.80017 0.32217 0.0
C1532 C 0.67412 0.89817 0.39771 0.0
C1533 C 0.67651 0.83876 0.36358 0.0
C1534 C 0.65456 0.91713 0.41813 0.0
C1535 C 0.61733 0.8985 0.42597 0.0
C1536 C 0.65654 0.86008 0.38518 0.0
C1537 C 0.60076 0.86051 0.41262 0.0
C1538 C 0.66029 0.79948 0.35484 0.0
C1539 C 0.73024 0.83941 0.3315 0.0
N1540 N 0.62043 0.84262 0.39308 0.0
N1541 N 0.711 0.85734 0.35163 0.0
H1542 H 0.16223 0.65499 0.28203 0.0
H1543 H 0.12868 0.62318 0.46517 0.0
H1544 H 0.22838 0.72857 0.35678 0.0
H1545 H 0.06191 0.54465 0.39294 0.0
H1546 H 0.16031 0.66596 0.42607 0.0
H1547 H 0.12071 0.61745 0.32208 0.0
C1548 C 0.16778 0.66341 0.30689 0.0
C1549 C 0.19898 0.69458 0.31614 0.0
C1550 C 0.1384 0.6397 0.41867 0.0
C1551 C 0.15185 0.65211 0.3619 0.0
C1552 C 0.12017 0.61547 0.44109 0.0
C1553 C 0.09254 0.58073 0.43219 0.0
C1554 C 0.1294 0.62884 0.38685 0.0
C1555 C 0.08282 0.57155 0.40067 0.0
C1556 C 0.1442 0.64196 0.32969 0.0
C1557 C 0.20504 0.7043 0.34856 0.0
N1558 N 0.10154 0.59534 0.37893 0.0
N1559 N 0.18186 0.68311 0.37017 0.0
H1560 H 0.42032 0.12967 0.30172 0.0
H1561 H 0.52042 0.16662 0.46037 0.0
H1562 H 0.44293 0.23233 0.3679 0.0
H1563 H 0.4589 0.05518 0.41442 0.0
H1564 H 0.50298 0.1937 0.42091 0.0
H1565 H 0.44418 0.10432 0.33778 0.0
C1566 C 0.43048 0.14692 0.3238 0.0
C1567 C 0.42964 0.18313 0.33187 0.0
C1568 C 0.49366 0.16334 0.41934 0.0
C1569 C 0.45729 0.15447 0.37306 0.0
C1570 C 0.50393 0.14787 0.44159 0.0
C1571 C 0.49105 0.10857 0.44069 0.0
C1572 C 0.47088 0.13933 0.39575 0.0
C1573 C 0.46933 0.08562 0.41607 0.0
C1574 C 0.44398 0.13242 0.34438 0.0
C1575 C 0.44285 0.20417 0.36092 0.0
N1576 N 0.45991 0.10132 0.39463 0.0
N1577 N 0.45632 0.18962 0.38042 0.0
H1578 H 0.66803 0.84704 0.65421 0.0
H1579 H 0.51122 0.85782 0.56535 0.0
H1580 H 0.57278 0.75129 0.62429 0.0
H1581 H 0.61196 0.95183 0.58471 0.0
H1582 H 0.52756 0.822 0.59751 0.0
H1583 H 0.64261 0.88877 0.63874 0.0
C1584 C 0.64154 0.83489 0.64485 0.0
C1585 C 0.62271 0.79567 0.64004 0.0
C1586 C 0.54586 0.85067 0.5951 0.0
C1587 C 0.59351 0.84302 0.6223 0.0
C1588 C 0.53643 0.87127 0.57686 0.0
C1589 C 0.56056 0.90768 0.57171 0.0
C1590 C 0.5797 0.8665 0.60823 0.0
C1591 C 0.59271 0.92365 0.58756 0.0
C1592 C 0.62709 0.85866 0.63593 0.0
C1593 C 0.58851 0.78135 0.62777 0.0
N1594 N 0.60161 0.90276 0.60466 0.0
N1595 N 0.57517 0.80495 0.6191 0.0
H1596 H 0.71361 0.23188 0.3521 0.0
H1597 H 0.62654 0.02922 0.40023 0.0
H1598 H 0.70212 0.13515 0.28079 0.0
H1599 H 0.58737 0.11583 0.44516 0.0
H1600 H 0.65838 0.06753 0.35791 0.0
H1601 H 0.67215 0.19051 0.3888 0.0
C1602 C 0.70197 0.20192 0.344 0.0
C1603 C 0.71061 0.18703 0.31306 0.0
C1604 C 0.64244 0.07792 0.37678 0.0
C1605 C 0.66434 0.13932 0.35554 0.0
C1606 C 0.62442 0.05624 0.40096 0.0
C1607 C 0.6046 0.06965 0.42624 0.0
C1608 C 0.64144 0.11371 0.37839 0.0
C1609 C 0.60239 0.10458 0.42603 0.0
C1610 C 0.67841 0.17834 0.36504 0.0
C1611 C 0.69609 0.14778 0.30441 0.0
N1612 N 0.62124 0.12584 0.40273 0.0
N1613 N 0.67379 0.12515 0.32568 0.0
H1614 H 0.84332 0.55322 0.32774 0.0
H1615 H 0.97444 0.64508 0.46989 0.0
H1616 H 0.84686 0.65451 0.39017 0.0
H1617 H 0.95058 0.53333 0.41819 0.0
H1618 H 0.94065 0.65766 0.43257 0.0
H1619 H 0.89514 0.55465 0.35214 0.0
C1620 C 0.85529 0.57599 0.34646 0.0
C1621 C 0.84034 0.60333 0.35742 0.0
C1622 C 0.9436 0.63075 0.42899 0.0
C1623 C 0.89969 0.60508 0.38572 0.0
C1624 C 0.96319 0.62373 0.45003 0.0
C1625 C 0.96507 0.58807 0.44709 0.0
C1626 C 0.92624 0.60196 0.40482 0.0
C1627 C 0.94956 0.56112 0.42133 0.0
C1628 C 0.88493 0.57686 0.36036 0.0
C1629 C 0.85744 0.63273 0.38122 0.0
N1630 N 0.93055 0.5685 0.40142 0.0
N1631 N 0.8859 0.6325 0.39501 0.0
H1632 H 0.34543 0.8776 0.30322 0.0
H1633 H 0.39955 0.87612 0.47033 0.0
H1634 H 0.27457 0.79905 0.3652 0.0
H1635 H 0.4406 0.97887 0.42828 0.0
H1636 H 0.35124 0.84914 0.43374 0.0
H1637 H 0.37842 0.91752 0.34919 0.0
C1638 C 0.33609 0.86956 0.32677 0.0
C1639 C 0.30705 0.83544 0.33071 0.0
C1640 C 0.37024 0.87791 0.43295 0.0
C1641 C 0.34539 0.87981 0.38299 0.0
C1642 C 0.3978 0.89334 0.45388 0.0
C1643 C 0.42413 0.92974 0.45229 0.0
C1644 C 0.36957 0.89858 0.40954 0.0
C1645 C 0.42072 0.95076 0.4304 0.0
C1646 C 0.35499 0.89216 0.35294 0.0
C1647 C 0.29653 0.82552 0.36141 0.0
N1648 N 0.39447 0.93456 0.40934 0.0
N1649 N 0.31611 0.84721 0.38631 0.0
H1650 H 0.23756 0.36356 0.28266 0.0
H1651 H 0.08975 0.35155 0.42866 0.0
H1652 H 0.20189 0.27622 0.34275 0.0
H1653 H 0.16412 0.45987 0.40442 0.0
H1654 H 0.1238 0.32108 0.39024 0.0
H1655 H 0.20411 0.39694 0.32006 0.0
C1656 C 0.22262 0.35139 0.30361 0.0
C1657 C 0.22274 0.31726 0.30978 0.0
C1658 C 0.1327 0.35152 0.39328 0.0
C1659 C 0.18427 0.35483 0.3522 0.0
C1660 C 0.11319 0.36901 0.41516 0.0
C1661 C 0.12407 0.40845 0.41993 0.0
C1662 C 0.16308 0.37335 0.37533 0.0
C1663 C 0.15488 0.42944 0.4017 0.0
C1664 C 0.2038 0.37053 0.32499 0.0
C1665 C 0.20298 0.30271 0.33729 0.0
N1666 N 0.17317 0.41162 0.38 0.0
N1667 N 0.18442 0.32138 0.35728 0.0
H1668 H 0.37395 0.21725 0.73036 0.0
H1669 H 0.3832 0.08744 0.56455 0.0
H1670 H 0.30095 0.19508 0.65786 0.0
H1671 H 0.47621 0.14854 0.61957 0.0
H1672 H 0.34878 0.11936 0.60164 0.0
H1673 H 0.40796 0.18501 0.69323 0.0
C1674 C 0.36504 0.20554 0.70664 0.0
C1675 C 0.33467 0.20908 0.69715 0.0
C1676 C 0.37673 0.12574 0.60554 0.0
C1677 C 0.37325 0.17169 0.6546 0.0
C1678 C 0.39637 0.10739 0.58448 0.0
C1679 C 0.43278 0.11534 0.5888 0.0
C1680 C 0.39331 0.15172 0.63156 0.0
C1681 C 0.44834 0.14164 0.61509 0.0
C1682 C 0.38455 0.18729 0.68541 0.0
C1683 C 0.32444 0.19341 0.66605 0.0
N1684 N 0.42851 0.15864 0.6355 0.0
N1685 N 0.34351 0.17521 0.64598 0.0
H1686 H 0.80873 0.27319 0.65255 0.0
H1687 H 0.99219 0.44725 0.61372 0.0
H1688 H 0.884 0.33958 0.72333 0.0
H1689 H 0.90439 0.39189 0.55228 0.0
H1690 H 0.95948 0.40114 0.65105 0.0
H1691 H 0.84978 0.30958 0.61247 0.0
C1692 C 0.83381 0.29564 0.65969 0.0
C1693 C 0.84236 0.30416 0.69149 0.0
C1694 C 0.94773 0.39886 0.62914 0.0
C1695 C 0.89013 0.34571 0.64555 0.0
C1696 C 0.96648 0.42494 0.60783 0.0
C1697 C 0.95067 0.42342 0.58018 0.0
C1698 C 0.91334 0.37109 0.62231 0.0
C1699 C 0.91725 0.3942 0.57359 0.0
C1700 C 0.85746 0.31626 0.63675 0.0
C1701 C 0.87606 0.3325 0.69913 0.0
N1702 N 0.89968 0.36942 0.59452 0.0
N1703 N 0.89859 0.3526 0.6764 0.0
H1704 H 0.21743 0.63566 0.6939 0.0
H1705 H 0.13776 0.64823 0.54071 0.0
H1706 H 0.24787 0.73831 0.65321 0.0
H1707 H 0.12016 0.54256 0.57149 0.0
H1708 H 0.18727 0.67997 0.57554 0.0
H1709 H 0.18994 0.59951 0.6447 0.0
C1710 C 0.21885 0.65049 0.67437 0.0
C1711 C 0.23447 0.68998 0.67766 0.0
C1712 C 0.17318 0.6497 0.57425 0.0
C1713 C 0.20287 0.64904 0.6216 0.0
C1714 C 0.14498 0.63159 0.55427 0.0
C1715 C 0.12446 0.59293 0.55381 0.0
C1716 C 0.18029 0.62912 0.59442 0.0
C1717 C 0.13516 0.57252 0.57144 0.0
C1718 C 0.2032 0.62989 0.6463 0.0
C1719 C 0.23551 0.70789 0.65179 0.0
N1720 N 0.1618 0.59105 0.59173 0.0
N1721 N 0.2195 0.68732 0.62499 0.0
loop_
_geom_bond_atom_site_label_1
_geom_bond_atom_site_label_2
_geom_bond_distance
_geom_bond_site_symmetry_2
_ccdc_geom_bond_type
Tb0 N29 2.617 . S
Tb0 N35 2.572 . S
Tb0 O44 2.465 . S
Tb0 O45 2.387 . S
Tb0 O47 2.428 . S
Tb0 O48 2.308 . S
Tb0 O52 2.349 . S
Tb0 O55 2.393 . S
Tb0 C64 2.802 . S
C1 N2 1.379 . S
C1 C4 1.416 . S
C1 C8 1.424 . S
N2 C1 1.379 . S
N2 C5 1.334 . S
N2 Tb11 2.617 . S
C3 C5 1.390 . S
C3 C6 1.339 . S
C3 H23 0.930 . S
C4 C1 1.416 . S
C4 C6 1.416 . S
C4 C10 1.448 . S
C5 N2 1.334 . S
C5 C3 1.390 . S
C5 H16 0.930 . S
C6 C3 1.339 . S
C6 C4 1.416 . S
C6 H27 0.930 . S
C7 C8 1.413 . S
C7 C9 1.427 . S
C7 C13 1.416 . S
C8 C1 1.424 . S
C8 C7 1.413 . S
C8 N12 1.361 . S
C9 C7 1.427 . S
C9 C10 1.328 . S
C9 H24 0.929 . S
C10 C4 1.448 . S
C10 C9 1.328 . S
C10 H25 0.930 . S
Tb11 N2 2.617 . S
Tb11 N12 2.572 . S
Tb11 O46 2.349 . S
Tb11 O49 2.393 . S
Tb11 O50 2.465 . S
Tb11 O51 2.387 . S
Tb11 O53 2.428 . S
Tb11 O54 2.308 . S
Tb11 C75 2.802 . S
N12 C8 1.361 . S
N12 Tb11 2.572 . S
N12 C14 1.340 . S
C13 C7 1.416 . S
C13 C15 1.332 . S
C13 H21 0.931 . S
C14 N12 1.340 . S
C14 C15 1.407 . S
C14 H20 0.930 . S
C15 C13 1.332 . S
C15 C14 1.407 . S
C15 H17 0.929 . S
H16 C5 0.930 . S
H17 C15 0.929 . S
H18 C33 0.930 . S
H19 C40 0.929 . S
H20 C14 0.930 . S
H21 C13 0.931 . S
H22 C36 0.930 . S
H23 C3 0.930 . S
H24 C9 0.929 . S
H25 C10 0.930 . S
H26 C31 0.930 . S
H27 C6 0.930 . S
H28 C39 0.931 . S
N29 Tb0 2.617 . S
N29 C30 1.379 . S
N29 C33 1.334 . S
C30 N29 1.379 . S
C30 C32 1.416 . S
C30 C38 1.424 . S
C31 H26 0.930 . S
C31 C33 1.390 . S
C31 C34 1.339 . S
C32 C30 1.416 . S
C32 C34 1.416 . S
C32 C65 1.448 . S
C33 H18 0.930 . S
C33 N29 1.334 . S
C33 C31 1.390 . S
C34 C31 1.339 . S
C34 C32 1.416 . S
C34 H41 0.930 . S
N35 Tb0 2.572 . S
N35 C36 1.340 . S
N35 C38 1.361 . S
C36 H22 0.930 . S
C36 N35 1.340 . S
C36 C40 1.407 . S
C37 C38 1.413 . S
C37 C39 1.416 . S
C37 C66 1.427 . S
C38 C30 1.424 . S
C38 N35 1.361 . S
C38 C37 1.413 . S
C39 H28 0.931 . S
C39 C37 1.416 . S
C39 C40 1.332 . S
C40 H19 0.929 . S
C40 C36 1.407 . S
C40 C39 1.332 . S
H41 C34 0.930 . S
H42 C65 0.930 . S
H43 C66 0.929 . S
O44 Tb0 2.465 . S
O44 C64 1.264 . S
O45 Tb0 2.387 . S
O45 C56 1.264 . S
O46 Tb11 2.349 . S
O46 C56 1.243 . S
O47 Tb0 2.428 . S
O47 C64 1.256 . S
O48 Tb0 2.308 . S
O48 C63 1.266 . S
O49 Tb11 2.393 . S
O49 C63 1.248 . S
O50 Tb11 2.465 . S
O50 C75 1.264 . S
O51 Tb11 2.387 . S
O51 C67 1.264 . S
O52 Tb0 2.349 . S
O52 C67 1.243 . S
O53 Tb11 2.428 . S
O53 C75 1.256 . S
O54 Tb11 2.308 . S
O54 C74 1.266 . S
O55 Tb0 2.393 . S
O55 C74 1.248 . S
C56 O45 1.264 . S
C56 O46 1.243 . S
C57 C60 1.399 . S
C57 C62 1.383 . S
C57 C64 1.496 . S
C58 C59 1.399 . S
C58 C62 1.389 . S
C59 C58 1.399 . S
C59 C61 1.380 . S
C59 H76 0.929 . S
C60 C57 1.399 . S
C60 C61 1.392 . S
C60 H77 0.929 . S
C61 C59 1.380 . S
C61 C60 1.392 . S
C61 H78 0.929 . S
C62 C57 1.383 . S
C62 C58 1.389 . S
C62 H79 0.931 . S
C63 O48 1.266 . S
C63 O49 1.248 . S
C64 Tb0 2.802 . S
C64 O44 1.264 . S
C64 O47 1.256 . S
C64 C57 1.496 . S
C65 C32 1.448 . S
C65 H42 0.930 . S
C65 C66 1.328 . S
C66 C37 1.427 . S
C66 H43 0.929 . S
C66 C65 1.328 . S
C67 O51 1.264 . S
C67 O52 1.243 . S
C68 C71 1.399 . S
C68 C72 1.383 . S
C68 C75 1.496 . S
C69 C70 1.399 . S
C69 C72 1.389 . S
C70 C69 1.399 . S
C70 C73 1.380 . S
C70 H80 0.929 . S
C71 C68 1.399 . S
C71 C73 1.392 . S
C71 H81 0.929 . S
C72 C68 1.383 . S
C72 C69 1.389 . S
C72 H82 0.931 . S
C73 C70 1.380 . S
C73 C71 1.392 . S
C73 H83 0.929 . S
C74 O54 1.266 . S
C74 O55 1.248 . S
C75 Tb11 2.802 . S
C75 O50 1.264 . S
C75 O53 1.256 . S
C75 C68 1.496 . S
H76 C59 0.929 . S
H77 C60 0.929 . S
H78 C61 0.929 . S
H79 C62 0.931 . S
H80 C70 0.929 . S
H81 C71 0.929 . S
H82 C72 0.931 . S
H83 C73 0.929 . S
Tb84 N113 2.617 . S
Tb84 N119 2.572 . S
Tb84 O128 2.465 . S
Tb84 O129 2.387 . S
Tb84 O131 2.428 . S
Tb84 O132 2.308 . S
Tb84 O136 2.349 . S
Tb84 O139 2.393 . S
Tb84 C148 2.802 . S
C85 N86 1.379 . S
C85 C88 1.416 . S
C85 C92 1.424 . S
N86 C85 1.379 . S
N86 C89 1.334 . S
N86 Tb95 2.617 . S
C87 C89 1.390 . S
C87 C90 1.339 . S
C87 H107 0.930 . S
C88 C85 1.416 . S
C88 C90 1.416 . S
C88 C94 1.448 . S
C89 N86 1.334 . S
C89 C87 1.390 . S
C89 H100 0.930 . S
C90 C87 1.339 . S
C90 C88 1.416 . S
C90 H111 0.930 . S
C91 C92 1.413 . S
C91 C93 1.427 . S
C91 C97 1.416 . S
C92 C85 1.424 . S
C92 C91 1.413 . S
C92 N96 1.361 . S
C93 C91 1.427 . S
C93 C94 1.328 . S
C93 H108 0.929 . S
C94 C88 1.448 . S
C94 C93 1.328 . S
C94 H109 0.930 . S
Tb95 N86 2.617 . S
Tb95 N96 2.572 . S
Tb95 O130 2.349 . S
Tb95 O133 2.393 . S
Tb95 O134 2.465 . S
Tb95 O135 2.387 . S
Tb95 O137 2.428 . S
Tb95 O138 2.308 . S
Tb95 C159 2.802 . S
N96 C92 1.361 . S
N96 Tb95 2.572 . S
N96 C98 1.340 . S
C97 C91 1.416 . S
C97 C99 1.332 . S
C97 H105 0.931 . S
C98 N96 1.340 . S
C98 C99 1.407 . S
C98 H104 0.930 . S
C99 C97 1.332 . S
C99 C98 1.407 . S
C99 H101 0.929 . S
H100 C89 0.930 . S
H101 C99 0.929 . S
H102 C117 0.930 . S
H103 C124 0.929 . S
H104 C98 0.930 . S
H105 C97 0.931 . S
H106 C120 0.930 . S
H107 C87 0.930 . S
H108 C93 0.929 . S
H109 C94 0.930 . S
H110 C115 0.930 . S
H111 C90 0.930 . S
H112 C123 0.931 . S
N113 Tb84 2.617 . S
N113 C114 1.379 . S
N113 C117 1.334 . S
C114 N113 1.379 . S
C114 C116 1.416 . S
C114 C122 1.424 . S
C115 H110 0.930 . S
C115 C117 1.390 . S
C115 C118 1.339 . S
C116 C114 1.416 . S
C116 C118 1.416 . S
C116 C149 1.448 . S
C117 H102 0.930 . S
C117 N113 1.334 . S
C117 C115 1.390 . S
C118 C115 1.339 . S
C118 C116 1.416 . S
C118 H125 0.930 . S
N119 Tb84 2.572 . S
N119 C120 1.340 . S
N119 C122 1.361 . S
C120 H106 0.930 . S
C120 N119 1.340 . S
C120 C124 1.407 . S
C121 C122 1.413 . S
C121 C123 1.416 . S
C121 C150 1.427 . S
C122 C114 1.424 . S
C122 N119 1.361 . S
C122 C121 1.413 . S
C123 H112 0.931 . S
C123 C121 1.416 . S
C123 C124 1.332 . S
C124 H103 0.929 . S
C124 C120 1.407 . S
C124 C123 1.332 . S
H125 C118 0.930 . S
H126 C149 0.930 . S
H127 C150 0.929 . S
O128 Tb84 2.465 . S
O128 C148 1.264 . S
O129 Tb84 2.387 . S
O129 C140 1.264 . S
O130 Tb95 2.349 . S
O130 C140 1.243 . S
O131 Tb84 2.428 . S
O131 C148 1.256 . S
O132 Tb84 2.308 . S
O132 C147 1.266 . S
O133 Tb95 2.393 . S
O133 C147 1.248 . S
O134 Tb95 2.465 . S
O134 C159 1.264 . S
O135 Tb95 2.387 . S
O135 C151 1.264 . S
O136 Tb84 2.349 . S
O136 C151 1.243 . S
O137 Tb95 2.428 . S
O137 C159 1.256 . S
O138 Tb95 2.308 . S
O138 C158 1.266 . S
O139 Tb84 2.393 . S
O139 C158 1.248 . S
C140 O129 1.264 . S
C140 O130 1.243 . S
C141 C144 1.399 . S
C141 C146 1.383 . S
C141 C148 1.496 . S
C142 C143 1.399 . S
C142 C146 1.389 . S
C143 C142 1.399 . S
C143 C145 1.380 . S
C143 H160 0.929 . S
C144 C141 1.399 . S
C144 C145 1.392 . S
C144 H161 0.929 . S
C145 C143 1.380 . S
C145 C144 1.392 . S
C145 H162 0.929 . S
C146 C141 1.383 . S
C146 C142 1.389 . S
C146 H163 0.931 . S
C147 O132 1.266 . S
C147 O133 1.248 . S
C148 Tb84 2.802 . S
C148 O128 1.264 . S
C148 O131 1.256 . S
C148 C141 1.496 . S
C149 C116 1.448 . S
C149 H126 0.930 . S
C149 C150 1.328 . S
C150 C121 1.427 . S
C150 H127 0.929 . S
C150 C149 1.328 . S
C151 O135 1.264 . S
C151 O136 1.243 . S
C152 C155 1.399 . S
C152 C156 1.383 . S
C152 C159 1.496 . S
C153 C154 1.399 . S
C153 C156 1.389 . S
C154 C153 1.399 . S
C154 C157 1.380 . S
C154 H164 0.929 . S
C155 C152 1.399 . S
C155 C157 1.392 . S
C155 H165 0.929 . S
C156 C152 1.383 . S
C156 C153 1.389 . S
C156 H166 0.931 . S
C157 C154 1.380 . S
C157 C155 1.392 . S
C157 H167 0.929 . S
C158 O138 1.266 . S
C158 O139 1.248 . S
C159 Tb95 2.802 . S
C159 O134 1.264 . S
C159 O137 1.256 . S
C159 C152 1.496 . S
H160 C143 0.929 . S
H161 C144 0.929 . S
H162 C145 0.929 . S
H163 C146 0.931 . S
H164 C154 0.929 . S
H165 C155 0.929 . S
H166 C156 0.931 . S
H167 C157 0.929 . S
Tb168 N197 2.617 . S
Tb168 N203 2.572 . S
Tb168 O212 2.465 . S
Tb168 O213 2.387 . S
Tb168 O215 2.428 . S
Tb168 O216 2.308 . S
Tb168 O220 2.349 . S
Tb168 O223 2.393 . S
Tb168 C232 2.802 . S
C169 N170 1.379 . S
C169 C172 1.416 . S
C169 C176 1.424 . S
N170 C169 1.379 . S
N170 C173 1.334 . S
N170 Tb179 2.617 . S
C171 C173 1.390 . S
C171 C174 1.339 . S
C171 H191 0.930 . S
C172 C169 1.416 . S
C172 C174 1.416 . S
C172 C178 1.448 . S
C173 N170 1.334 . S
C173 C171 1.390 . S
C173 H184 0.930 . S
C174 C171 1.339 . S
C174 C172 1.416 . S
C174 H195 0.930 . S
C175 C176 1.413 . S
C175 C177 1.427 . S
C175 C181 1.416 . S
C176 C169 1.424 . S
C176 C175 1.413 . S
C176 N180 1.361 . S
C177 C175 1.427 . S
C177 C178 1.328 . S
C177 H192 0.929 . S
C178 C172 1.448 . S
C178 C177 1.328 . S
C178 H193 0.930 . S
Tb179 N170 2.617 . S
Tb179 N180 2.572 . S
Tb179 O214 2.349 . S
Tb179 O217 2.393 . S
Tb179 O218 2.465 . S
Tb179 O219 2.387 . S
Tb179 O221 2.428 . S
Tb179 O222 2.308 . S
Tb179 C243 2.802 . S
N180 C176 1.361 . S
N180 Tb179 2.572 . S
N180 C182 1.340 . S
C181 C175 1.416 . S
C181 C183 1.332 . S
C181 H189 0.931 . S
C182 N180 1.340 . S
C182 C183 1.407 . S
C182 H188 0.930 . S
C183 C181 1.332 . S
C183 C182 1.407 . S
C183 H185 0.929 . S
H184 C173 0.930 . S
H185 C183 0.929 . S
H186 C201 0.930 . S
H187 C208 0.929 . S
H188 C182 0.930 . S
H189 C181 0.931 . S
H190 C204 0.930 . S
H191 C171 0.930 . S
H192 C177 0.929 . S
H193 C178 0.930 . S
H194 C199 0.930 . S
H195 C174 0.930 . S
H196 C207 0.931 . S
N197 Tb168 2.617 . S
N197 C198 1.379 . S
N197 C201 1.334 . S
C198 N197 1.379 . S
C198 C200 1.416 . S
C198 C206 1.424 . S
C199 H194 0.930 . S
C199 C201 1.390 . S
C199 C202 1.339 . S
C200 C198 1.416 . S
C200 C202 1.416 . S
C200 C233 1.448 . S
C201 H186 0.930 . S
C201 N197 1.334 . S
C201 C199 1.390 . S
C202 C199 1.339 . S
C202 C200 1.416 . S
C202 H209 0.930 . S
N203 Tb168 2.572 . S
N203 C204 1.340 . S
N203 C206 1.361 . S
C204 H190 0.930 . S
C204 N203 1.340 . S
C204 C208 1.407 . S
C205 C206 1.413 . S
C205 C207 1.416 . S
C205 C234 1.427 . S
C206 C198 1.424 . S
C206 N203 1.361 . S
C206 C205 1.413 . S
C207 H196 0.931 . S
C207 C205 1.416 . S
C207 C208 1.332 . S
C208 H187 0.929 . S
C208 C204 1.407 . S
C208 C207 1.332 . S
H209 C202 0.930 . S
H210 C233 0.930 . S
H211 C234 0.929 . S
O212 Tb168 2.465 . S
O212 C232 1.264 . S
O213 Tb168 2.387 . S
O213 C224 1.264 . S
O214 Tb179 2.349 . S
O214 C224 1.243 . S
O215 Tb168 2.428 . S
O215 C232 1.256 . S
O216 Tb168 2.308 . S
O216 C231 1.266 . S
O217 Tb179 2.393 . S
O217 C231 1.248 . S
O218 Tb179 2.465 . S
O218 C243 1.264 . S
O219 Tb179 2.387 . S
O219 C235 1.264 . S
O220 Tb168 2.349 . S
O220 C235 1.243 . S
O221 Tb179 2.428 . S
O221 C243 1.256 . S
O222 Tb179 2.308 . S
O222 C242 1.266 . S
O223 Tb168 2.393 . S
O223 C242 1.248 . S
C224 O213 1.264 . S
C224 O214 1.243 . S
C225 C228 1.399 . S
C225 C230 1.383 . S
C225 C232 1.496 . S
C226 C227 1.399 . S
C226 C230 1.389 . S
C227 C226 1.399 . S
C227 C229 1.380 . S
C227 H244 0.929 . S
C228 C225 1.399 . S
C228 C229 1.392 . S
C228 H245 0.929 . S
C229 C227 1.380 . S
C229 C228 1.392 . S
C229 H246 0.929 . S
C230 C225 1.383 . S
C230 C226 1.389 . S
C230 H247 0.931 . S
C231 O216 1.266 . S
C231 O217 1.248 . S
C232 Tb168 2.802 . S
C232 O212 1.264 . S
C232 O215 1.256 . S
C232 C225 1.496 . S
C233 C200 1.448 . S
C233 H210 0.930 . S
C233 C234 1.328 . S
C234 C205 1.427 . S
C234 H211 0.929 . S
C234 C233 1.328 . S
C235 O219 1.264 . S
C235 O220 1.243 . S
C236 C239 1.399 . S
C236 C240 1.383 . S
C236 C243 1.496 . S
C237 C238 1.399 . S
C237 C240 1.389 . S
C238 C237 1.399 . S
C238 C241 1.380 . S
C238 H248 0.929 . S
C239 C236 1.399 . S
C239 C241 1.392 . S
C239 H249 0.929 . S
C240 C236 1.383 . S
C240 C237 1.389 . S
C240 H250 0.931 . S
C241 C238 1.380 . S
C241 C239 1.392 . S
C241 H251 0.929 . S
C242 O222 1.266 . S
C242 O223 1.248 . S
C243 Tb179 2.802 . S
C243 O218 1.264 . S
C243 O221 1.256 . S
C243 C236 1.496 . S
H244 C227 0.929 . S
H245 C228 0.929 . S
H246 C229 0.929 . S
H247 C230 0.931 . S
H248 C238 0.929 . S
H249 C239 0.929 . S
H250 C240 0.931 . S
H251 C241 0.929 . S
Tb252 N281 2.617 . S
Tb252 N287 2.572 . S
Tb252 O296 2.465 . S
Tb252 O297 2.387 . S
Tb252 O299 2.428 . S
Tb252 O300 2.308 . S
Tb252 O304 2.349 . S
Tb252 O307 2.393 . S
Tb252 C316 2.802 . S
C253 N254 1.379 . S
C253 C256 1.416 . S
C253 C260 1.424 . S
N254 C253 1.379 . S
N254 C257 1.334 . S
N254 Tb263 2.617 . S
C255 C257 1.390 . S
C255 C258 1.339 . S
C255 H275 0.930 . S
C256 C253 1.416 . S
C256 C258 1.416 . S
C256 C262 1.448 . S
C257 N254 1.334 . S
C257 C255 1.390 . S
C257 H268 0.930 . S
C258 C255 1.339 . S
C258 C256 1.416 . S
C258 H279 0.930 . S
C259 C260 1.413 . S
C259 C261 1.427 . S
C259 C265 1.416 . S
C260 C253 1.424 . S
C260 C259 1.413 . S
C260 N264 1.361 . S
C261 C259 1.427 . S
C261 C262 1.328 . S
C261 H276 0.929 . S
C262 C256 1.448 . S
C262 C261 1.328 . S
C262 H277 0.930 . S
Tb263 N254 2.617 . S
Tb263 N264 2.572 . S
Tb263 O298 2.349 . S
Tb263 O301 2.393 . S
Tb263 O302 2.465 . S
Tb263 O303 2.387 . S
Tb263 O305 2.428 . S
Tb263 O306 2.308 . S
Tb263 C327 2.802 . S
N264 C260 1.361 . S
N264 Tb263 2.572 . S
N264 C266 1.340 . S
C265 C259 1.416 . S
C265 C267 1.332 . S
C265 H273 0.931 . S
C266 N264 1.340 . S
C266 C267 1.407 . S
C266 H272 0.930 . S
C267 C265 1.332 . S
C267 C266 1.407 . S
C267 H269 0.929 . S
H268 C257 0.930 . S
H269 C267 0.929 . S
H270 C285 0.930 . S
H271 C292 0.929 . S
H272 C266 0.930 . S
H273 C265 0.931 . S
H274 C288 0.930 . S
H275 C255 0.930 . S
H276 C261 0.929 . S
H277 C262 0.930 . S
H278 C283 0.930 . S
H279 C258 0.930 . S
H280 C291 0.931 . S
N281 Tb252 2.617 . S
N281 C282 1.379 . S
N281 C285 1.334 . S
C282 N281 1.379 . S
C282 C284 1.416 . S
C282 C290 1.424 . S
C283 H278 0.930 . S
C283 C285 1.390 . S
C283 C286 1.339 . S
C284 C282 1.416 . S
C284 C286 1.416 . S
C284 C317 1.448 . S
C285 H270 0.930 . S
C285 N281 1.334 . S
C285 C283 1.390 . S
C286 C283 1.339 . S
C286 C284 1.416 . S
C286 H293 0.930 . S
N287 Tb252 2.572 . S
N287 C288 1.340 . S
N287 C290 1.361 . S
C288 H274 0.930 . S
C288 N287 1.340 . S
C288 C292 1.407 . S
C289 C290 1.413 . S
C289 C291 1.416 . S
C289 C318 1.427 . S
C290 C282 1.424 . S
C290 N287 1.361 . S
C290 C289 1.413 . S
C291 H280 0.931 . S
C291 C289 1.416 . S
C291 C292 1.332 . S
C292 H271 0.929 . S
C292 C288 1.407 . S
C292 C291 1.332 . S
H293 C286 0.930 . S
H294 C317 0.930 . S
H295 C318 0.929 . S
O296 Tb252 2.465 . S
O296 C316 1.264 . S
O297 Tb252 2.387 . S
O297 C308 1.264 . S
O298 Tb263 2.349 . S
O298 C308 1.243 . S
O299 Tb252 2.428 . S
O299 C316 1.256 . S
O300 Tb252 2.308 . S
O300 C315 1.266 . S
O301 Tb263 2.393 . S
O301 C315 1.248 . S
O302 Tb263 2.465 . S
O302 C327 1.264 . S
O303 Tb263 2.387 . S
O303 C319 1.264 . S
O304 Tb252 2.349 . S
O304 C319 1.243 . S
O305 Tb263 2.428 . S
O305 C327 1.256 . S
O306 Tb263 2.308 . S
O306 C326 1.266 . S
O307 Tb252 2.393 . S
O307 C326 1.248 . S
C308 O297 1.264 . S
C308 O298 1.243 . S
C309 C312 1.399 . S
C309 C314 1.383 . S
C309 C316 1.496 . S
C310 C311 1.399 . S
C310 C314 1.389 . S
C311 C310 1.399 . S
C311 C313 1.380 . S
C311 H328 0.929 . S
C312 C309 1.399 . S
C312 C313 1.392 . S
C312 H329 0.929 . S
C313 C311 1.380 . S
C313 C312 1.392 . S
C313 H330 0.929 . S
C314 C309 1.383 . S
C314 C310 1.389 . S
C314 H331 0.931 . S
C315 O300 1.266 . S
C315 O301 1.248 . S
C316 Tb252 2.802 . S
C316 O296 1.264 . S
C316 O299 1.256 . S
C316 C309 1.496 . S
C317 C284 1.448 . S
C317 H294 0.930 . S
C317 C318 1.328 . S
C318 C289 1.427 . S
C318 H295 0.929 . S
C318 C317 1.328 . S
C319 O303 1.264 . S
C319 O304 1.243 . S
C320 C323 1.399 . S
C320 C324 1.383 . S
C320 C327 1.496 . S
C321 C322 1.399 . S
C321 C324 1.389 . S
C322 C321 1.399 . S
C322 C325 1.380 . S
C322 H332 0.929 . S
C323 C320 1.399 . S
C323 C325 1.392 . S
C323 H333 0.929 . S
C324 C320 1.383 . S
C324 C321 1.389 . S
C324 H334 0.931 . S
C325 C322 1.380 . S
C325 C323 1.392 . S
C325 H335 0.929 . S
C326 O306 1.266 . S
C326 O307 1.248 . S
C327 Tb263 2.802 . S
C327 O302 1.264 . S
C327 O305 1.256 . S
C327 C320 1.496 . S
H328 C311 0.929 . S
H329 C312 0.929 . S
H330 C313 0.929 . S
H331 C314 0.931 . S
H332 C322 0.929 . S
H333 C323 0.929 . S
H334 C324 0.931 . S
H335 C325 0.929 . S
Tb336 N365 2.617 . S
Tb336 N371 2.572 . S
Tb336 O380 2.465 . S
Tb336 O381 2.387 . S
Tb336 O383 2.428 . S
Tb336 O384 2.308 . S
Tb336 O388 2.349 . S
Tb336 O391 2.393 . S
Tb336 C400 2.802 . S
C337 N338 1.379 . S
C337 C340 1.416 . S
C337 C344 1.424 . S
N338 C337 1.379 . S
N338 C341 1.334 . S
N338 Tb347 2.617 . S
C339 C341 1.390 . S
C339 C342 1.339 . S
C339 H359 0.930 . S
C340 C337 1.416 . S
C340 C342 1.416 . S
C340 C346 1.448 . S
C341 N338 1.334 . S
C341 C339 1.390 . S
C341 H352 0.930 . S
C342 C339 1.339 . S
C342 C340 1.416 . S
C342 H363 0.930 . S
C343 C344 1.413 . S
C343 C345 1.427 . S
C343 C349 1.416 . S
C344 C337 1.424 . S
C344 C343 1.413 . S
C344 N348 1.361 . S
C345 C343 1.427 . S
C345 C346 1.328 . S
C345 H360 0.929 . S
C346 C340 1.448 . S
C346 C345 1.328 . S
C346 H361 0.930 . S
Tb347 N338 2.617 . S
Tb347 N348 2.572 . S
Tb347 O382 2.349 . S
Tb347 O385 2.393 . S
Tb347 O386 2.465 . S
Tb347 O387 2.387 . S
Tb347 O389 2.428 . S
Tb347 O390 2.308 . S
Tb347 C411 2.802 . S
N348 C344 1.361 . S
N348 Tb347 2.572 . S
N348 C350 1.340 . S
C349 C343 1.416 . S
C349 C351 1.332 . S
C349 H357 0.931 . S
C350 N348 1.340 . S
C350 C351 1.407 . S
C350 H356 0.930 . S
C351 C349 1.332 . S
C351 C350 1.407 . S
C351 H353 0.929 . S
H352 C341 0.930 . S
H353 C351 0.929 . S
H354 C369 0.930 . S
H355 C376 0.929 . S
H356 C350 0.930 . S
H357 C349 0.931 . S
H358 C372 0.930 . S
H359 C339 0.930 . S
H360 C345 0.929 . S
H361 C346 0.930 . S
H362 C367 0.930 . S
H363 C342 0.930 . S
H364 C375 0.931 . S
N365 Tb336 2.617 . S
N365 C366 1.379 . S
N365 C369 1.334 . S
C366 N365 1.379 . S
C366 C368 1.416 . S
C366 C374 1.424 . S
C367 H362 0.930 . S
C367 C369 1.390 . S
C367 C370 1.339 . S
C368 C366 1.416 . S
C368 C370 1.416 . S
C368 C401 1.448 . S
C369 H354 0.930 . S
C369 N365 1.334 . S
C369 C367 1.390 . S
C370 C367 1.339 . S
C370 C368 1.416 . S
C370 H377 0.930 . S
N371 Tb336 2.572 . S
N371 C372 1.340 . S
N371 C374 1.361 . S
C372 H358 0.930 . S
C372 N371 1.340 . S
C372 C376 1.407 . S
C373 C374 1.413 . S
C373 C375 1.416 . S
C373 C402 1.427 . S
C374 C366 1.424 . S
C374 N371 1.361 . S
C374 C373 1.413 . S
C375 H364 0.931 . S
C375 C373 1.416 . S
C375 C376 1.332 . S
C376 H355 0.929 . S
C376 C372 1.407 . S
C376 C375 1.332 . S
H377 C370 0.930 . S
H378 C401 0.930 . S
H379 C402 0.929 . S
O380 Tb336 2.465 . S
O380 C400 1.264 . S
O381 Tb336 2.387 . S
O381 C392 1.264 . S
O382 Tb347 2.349 . S
O382 C392 1.243 . S
O383 Tb336 2.428 . S
O383 C400 1.256 . S
O384 Tb336 2.308 . S
O384 C399 1.266 . S
O385 Tb347 2.393 . S
O385 C399 1.248 . S
O386 Tb347 2.465 . S
O386 C411 1.264 . S
O387 Tb347 2.387 . S
O387 C403 1.264 . S
O388 Tb336 2.349 . S
O388 C403 1.243 . S
O389 Tb347 2.428 . S
O389 C411 1.256 . S
O390 Tb347 2.308 . S
O390 C410 1.266 . S
O391 Tb336 2.393 . S
O391 C410 1.248 . S
C392 O381 1.264 . S
C392 O382 1.243 . S
C393 C396 1.399 . S
C393 C398 1.383 . S
C393 C400 1.496 . S
C394 C395 1.399 . S
C394 C398 1.389 . S
C395 C394 1.399 . S
C395 C397 1.380 . S
C395 H412 0.929 . S
C396 C393 1.399 . S
C396 C397 1.392 . S
C396 H413 0.929 . S
C397 C395 1.380 . S
C397 C396 1.392 . S
C397 H414 0.929 . S
C398 C393 1.383 . S
C398 C394 1.389 . S
C398 H415 0.931 . S
C399 O384 1.266 . S
C399 O385 1.248 . S
C400 Tb336 2.802 . S
C400 O380 1.264 . S
C400 O383 1.256 . S
C400 C393 1.496 . S
C401 C368 1.448 . S
C401 H378 0.930 . S
C401 C402 1.328 . S
C402 C373 1.427 . S
C402 H379 0.929 . S
C402 C401 1.328 . S
C403 O387 1.264 . S
C403 O388 1.243 . S
C404 C407 1.399 . S
C404 C408 1.383 . S
C404 C411 1.496 . S
C405 C406 1.399 . S
C405 C408 1.389 . S
C406 C405 1.399 . S
C406 C409 1.380 . S
C406 H416 0.929 . S
C407 C404 1.399 . S
C407 C409 1.392 . S
C407 H417 0.929 . S
C408 C404 1.383 . S
C408 C405 1.389 . S
C408 H418 0.931 . S
C409 C406 1.380 . S
C409 C407 1.392 . S
C409 H419 0.929 . S
C410 O390 1.266 . S
C410 O391 1.248 . S
C411 Tb347 2.802 . S
C411 O386 1.264 . S
C411 O389 1.256 . S
C411 C404 1.496 . S
H412 C395 0.929 . S
H413 C396 0.929 . S
H414 C397 0.929 . S
H415 C398 0.931 . S
H416 C406 0.929 . S
H417 C407 0.929 . S
H418 C408 0.931 . S
H419 C409 0.929 . S
Tb420 N449 2.617 . S
Tb420 N455 2.572 . S
Tb420 O464 2.465 . S
Tb420 O465 2.387 . S
Tb420 O467 2.428 . S
Tb420 O468 2.308 . S
Tb420 O472 2.349 . S
Tb420 O475 2.393 . S
Tb420 C484 2.802 . S
C421 N422 1.379 . S
C421 C424 1.416 . S
C421 C428 1.424 . S
N422 C421 1.379 . S
N422 C425 1.334 . S
N422 Tb431 2.617 . S
C423 C425 1.390 . S
C423 C426 1.339 . S
C423 H443 0.930 . S
C424 C421 1.416 . S
C424 C426 1.416 . S
C424 C430 1.448 . S
C425 N422 1.334 . S
C425 C423 1.390 . S
C425 H436 0.930 . S
C426 C423 1.339 . S
C426 C424 1.416 . S
C426 H447 0.930 . S
C427 C428 1.413 . S
C427 C429 1.427 . S
C427 C433 1.416 . S
C428 C421 1.424 . S
C428 C427 1.413 . S
C428 N432 1.361 . S
C429 C427 1.427 . S
C429 C430 1.328 . S
C429 H444 0.929 . S
C430 C424 1.448 . S
C430 C429 1.328 . S
C430 H445 0.930 . S
Tb431 N422 2.617 . S
Tb431 N432 2.572 . S
Tb431 O466 2.349 . S
Tb431 O469 2.393 . S
Tb431 O470 2.465 . S
Tb431 O471 2.387 . S
Tb431 O473 2.428 . S
Tb431 O474 2.308 . S
Tb431 C495 2.802 . S
N432 C428 1.361 . S
N432 Tb431 2.572 . S
N432 C434 1.340 . S
C433 C427 1.416 . S
C433 C435 1.332 . S
C433 H441 0.931 . S
C434 N432 1.340 . S
C434 C435 1.407 . S
C434 H440 0.930 . S
C435 C433 1.332 . S
C435 C434 1.407 . S
C435 H437 0.929 . S
H436 C425 0.930 . S
H437 C435 0.929 . S
H438 C453 0.930 . S
H439 C460 0.929 . S
H440 C434 0.930 . S
H441 C433 0.931 . S
H442 C456 0.930 . S
H443 C423 0.930 . S
H444 C429 0.929 . S
H445 C430 0.930 . S
H446 C451 0.930 . S
H447 C426 0.930 . S
H448 C459 0.931 . S
N449 Tb420 2.617 . S
N449 C450 1.379 . S
N449 C453 1.334 . S
C450 N449 1.379 . S
C450 C452 1.416 . S
C450 C458 1.424 . S
C451 H446 0.930 . S
C451 C453 1.390 . S
C451 C454 1.339 . S
C452 C450 1.416 . S
C452 C454 1.416 . S
C452 C485 1.448 . S
C453 H438 0.930 . S
C453 N449 1.334 . S
C453 C451 1.390 . S
C454 C451 1.339 . S
C454 C452 1.416 . S
C454 H461 0.930 . S
N455 Tb420 2.572 . S
N455 C456 1.340 . S
N455 C458 1.361 . S
C456 H442 0.930 . S
C456 N455 1.340 . S
C456 C460 1.407 . S
C457 C458 1.413 . S
C457 C459 1.416 . S
C457 C486 1.427 . S
C458 C450 1.424 . S
C458 N455 1.361 . S
C458 C457 1.413 . S
C459 H448 0.931 . S
C459 C457 1.416 . S
C459 C460 1.332 . S
C460 H439 0.929 . S
C460 C456 1.407 . S
C460 C459 1.332 . S
H461 C454 0.930 . S
H462 C485 0.930 . S
H463 C486 0.929 . S
O464 Tb420 2.465 . S
O464 C484 1.264 . S
O465 Tb420 2.387 . S
O465 C476 1.264 . S
O466 Tb431 2.349 . S
O466 C476 1.243 . S
O467 Tb420 2.428 . S
O467 C484 1.256 . S
O468 Tb420 2.308 . S
O468 C483 1.266 . S
O469 Tb431 2.393 . S
O469 C483 1.248 . S
O470 Tb431 2.465 . S
O470 C495 1.264 . S
O471 Tb431 2.387 . S
O471 C487 1.264 . S
O472 Tb420 2.349 . S
O472 C487 1.243 . S
O473 Tb431 2.428 . S
O473 C495 1.256 . S
O474 Tb431 2.308 . S
O474 C494 1.266 . S
O475 Tb420 2.393 . S
O475 C494 1.248 . S
C476 O465 1.264 . S
C476 O466 1.243 . S
C477 C480 1.399 . S
C477 C482 1.383 . S
C477 C484 1.496 . S
C478 C479 1.399 . S
C478 C482 1.389 . S
C479 C478 1.399 . S
C479 C481 1.380 . S
C479 H496 0.929 . S
C480 C477 1.399 . S
C480 C481 1.392 . S
C480 H497 0.929 . S
C481 C479 1.380 . S
C481 C480 1.392 . S
C481 H498 0.929 . S
C482 C477 1.383 . S
C482 C478 1.389 . S
C482 H499 0.931 . S
C483 O468 1.266 . S
C483 O469 1.248 . S
C484 Tb420 2.802 . S
C484 O464 1.264 . S
C484 O467 1.256 . S
C484 C477 1.496 . S
C485 C452 1.448 . S
C485 H462 0.930 . S
C485 C486 1.328 . S
C486 C457 1.427 . S
C486 H463 0.929 . S
C486 C485 1.328 . S
C487 O471 1.264 . S
C487 O472 1.243 . S
C488 C491 1.399 . S
C488 C492 1.383 . S
C488 C495 1.496 . S
C489 C490 1.399 . S
C489 C492 1.389 . S
C490 C489 1.399 . S
C490 C493 1.380 . S
C490 H500 0.929 . S
C491 C488 1.399 . S
C491 C493 1.392 . S
C491 H501 0.929 . S
C492 C488 1.383 . S
C492 C489 1.389 . S
C492 H502 0.931 . S
C493 C490 1.380 . S
C493 C491 1.392 . S
C493 H503 0.929 . S
C494 O474 1.266 . S
C494 O475 1.248 . S
C495 Tb431 2.802 . S
C495 O470 1.264 . S
C495 O473 1.256 . S
C495 C488 1.496 . S
H496 C479 0.929 . S
H497 C480 0.929 . S
H498 C481 0.929 . S
H499 C482 0.931 . S
H500 C490 0.929 . S
H501 C491 0.929 . S
H502 C492 0.931 . S
H503 C493 0.929 . S
Tb504 N533 2.617 . S
Tb504 N539 2.572 . S
Tb504 O548 2.465 . S
Tb504 O549 2.387 . S
Tb504 O551 2.428 . S
Tb504 O552 2.308 . S
Tb504 O556 2.349 . S
Tb504 O559 2.393 . S
Tb504 C568 2.802 . S
C505 N506 1.379 . S
C505 C508 1.416 . S
C505 C512 1.424 . S
N506 C505 1.379 . S
N506 C509 1.334 . S
N506 Tb515 2.617 . S
C507 C509 1.390 . S
C507 C510 1.339 . S
C507 H527 0.930 . S
C508 C505 1.416 . S
C508 C510 1.416 . S
C508 C514 1.448 . S
C509 N506 1.334 . S
C509 C507 1.390 . S
C509 H520 0.930 . S
C510 C507 1.339 . S
C510 C508 1.416 . S
C510 H531 0.930 . S
C511 C512 1.413 . S
C511 C513 1.427 . S
C511 C517 1.416 . S
C512 C505 1.424 . S
C512 C511 1.413 . S
C512 N516 1.361 . S
C513 C511 1.427 . S
C513 C514 1.328 . S
C513 H528 0.929 . S
C514 C508 1.448 . S
C514 C513 1.328 . S
C514 H529 0.930 . S
Tb515 N506 2.617 . S
Tb515 N516 2.572 . S
Tb515 O550 2.349 . S
Tb515 O553 2.393 . S
Tb515 O554 2.465 . S
Tb515 O555 2.387 . S
Tb515 O557 2.428 . S
Tb515 O558 2.308 . S
Tb515 C579 2.802 . S
N516 C512 1.361 . S
N516 Tb515 2.572 . S
N516 C518 1.340 . S
C517 C511 1.416 . S
C517 C519 1.332 . S
C517 H525 0.931 . S
C518 N516 1.340 . S
C518 C519 1.407 . S
C518 H524 0.930 . S
C519 C517 1.332 . S
C519 C518 1.407 . S
C519 H521 0.929 . S
H520 C509 0.930 . S
H521 C519 0.929 . S
H522 C537 0.930 . S
H523 C544 0.929 . S
H524 C518 0.930 . S
H525 C517 0.931 . S
H526 C540 0.930 . S
H527 C507 0.930 . S
H528 C513 0.929 . S
H529 C514 0.930 . S
H530 C535 0.930 . S
H531 C510 0.930 . S
H532 C543 0.931 . S
N533 Tb504 2.617 . S
N533 C534 1.379 . S
N533 C537 1.334 . S
C534 N533 1.379 . S
C534 C536 1.416 . S
C534 C542 1.424 . S
C535 H530 0.930 . S
C535 C537 1.390 . S
C535 C538 1.339 . S
C536 C534 1.416 . S
C536 C538 1.416 . S
C536 C569 1.448 . S
C537 H522 0.930 . S
C537 N533 1.334 . S
C537 C535 1.390 . S
C538 C535 1.339 . S
C538 C536 1.416 . S
C538 H545 0.930 . S
N539 Tb504 2.572 . S
N539 C540 1.340 . S
N539 C542 1.361 . S
C540 H526 0.930 . S
C540 N539 1.340 . S
C540 C544 1.407 . S
C541 C542 1.413 . S
C541 C543 1.416 . S
C541 C570 1.427 . S
C542 C534 1.424 . S
C542 N539 1.361 . S
C542 C541 1.413 . S
C543 H532 0.931 . S
C543 C541 1.416 . S
C543 C544 1.332 . S
C544 H523 0.929 . S
C544 C540 1.407 . S
C544 C543 1.332 . S
H545 C538 0.930 . S
H546 C569 0.930 . S
H547 C570 0.929 . S
O548 Tb504 2.465 . S
O548 C568 1.264 . S
O549 Tb504 2.387 . S
O549 C560 1.264 . S
O550 Tb515 2.349 . S
O550 C560 1.243 . S
O551 Tb504 2.428 . S
O551 C568 1.256 . S
O552 Tb504 2.308 . S
O552 C567 1.266 . S
O553 Tb515 2.393 . S
O553 C567 1.248 . S
O554 Tb515 2.465 . S
O554 C579 1.264 . S
O555 Tb515 2.387 . S
O555 C571 1.264 . S
O556 Tb504 2.349 . S
O556 C571 1.243 . S
O557 Tb515 2.428 . S
O557 C579 1.256 . S
O558 Tb515 2.308 . S
O558 C578 1.266 . S
O559 Tb504 2.393 . S
O559 C578 1.248 . S
C560 O549 1.264 . S
C560 O550 1.243 . S
C561 C564 1.399 . S
C561 C566 1.383 . S
C561 C568 1.496 . S
C562 C563 1.399 . S
C562 C566 1.389 . S
C563 C562 1.399 . S
C563 C565 1.380 . S
C563 H580 0.929 . S
C564 C561 1.399 . S
C564 C565 1.392 . S
C564 H581 0.929 . S
C565 C563 1.380 . S
C565 C564 1.392 . S
C565 H582 0.929 . S
C566 C561 1.383 . S
C566 C562 1.389 . S
C566 H583 0.931 . S
C567 O552 1.266 . S
C567 O553 1.248 . S
C568 Tb504 2.802 . S
C568 O548 1.264 . S
C568 O551 1.256 . S
C568 C561 1.496 . S
C569 C536 1.448 . S
C569 H546 0.930 . S
C569 C570 1.328 . S
C570 C541 1.427 . S
C570 H547 0.929 . S
C570 C569 1.328 . S
C571 O555 1.264 . S
C571 O556 1.243 . S
C572 C575 1.399 . S
C572 C576 1.383 . S
C572 C579 1.496 . S
C573 C574 1.399 . S
C573 C576 1.389 . S
C574 C573 1.399 . S
C574 C577 1.380 . S
C574 H584 0.929 . S
C575 C572 1.399 . S
C575 C577 1.392 . S
C575 H585 0.929 . S
C576 C572 1.383 . S
C576 C573 1.389 . S
C576 H586 0.931 . S
C577 C574 1.380 . S
C577 C575 1.392 . S
C577 H587 0.929 . S
C578 O558 1.266 . S
C578 O559 1.248 . S
C579 Tb515 2.802 . S
C579 O554 1.264 . S
C579 O557 1.256 . S
C579 C572 1.496 . S
H580 C563 0.929 . S
H581 C564 0.929 . S
H582 C565 0.929 . S
H583 C566 0.931 . S
H584 C574 0.929 . S
H585 C575 0.929 . S
H586 C576 0.931 . S
H587 C577 0.929 . S
Tb588 N617 2.617 . S
Tb588 N623 2.572 . S
Tb588 O632 2.465 . S
Tb588 O633 2.387 . S
Tb588 O635 2.428 . S
Tb588 O636 2.308 . S
Tb588 O640 2.349 . S
Tb588 O643 2.393 . S
Tb588 C652 2.802 . S
C589 N590 1.379 . S
C589 C592 1.416 . S
C589 C596 1.424 . S
N590 C589 1.379 . S
N590 C593 1.334 . S
N590 Tb599 2.617 . S
C591 C593 1.390 . S
C591 C594 1.339 . S
C591 H611 0.930 . S
C592 C589 1.416 . S
C592 C594 1.416 . S
C592 C598 1.448 . S
C593 N590 1.334 . S
C593 C591 1.390 . S
C593 H604 0.930 . S
C594 C591 1.339 . S
C594 C592 1.416 . S
C594 H615 0.930 . S
C595 C596 1.413 . S
C595 C597 1.427 . S
C595 C601 1.416 . S
C596 C589 1.424 . S
C596 C595 1.413 . S
C596 N600 1.361 . S
C597 C595 1.427 . S
C597 C598 1.328 . S
C597 H612 0.929 . S
C598 C592 1.448 . S
C598 C597 1.328 . S
C598 H613 0.930 . S
Tb599 N590 2.617 . S
Tb599 N600 2.572 . S
Tb599 O634 2.349 . S
Tb599 O637 2.393 . S
Tb599 O638 2.465 . S
Tb599 O639 2.387 . S
Tb599 O641 2.428 . S
Tb599 O642 2.308 . S
Tb599 C663 2.802 . S
N600 C596 1.361 . S
N600 Tb599 2.572 . S
N600 C602 1.340 . S
C601 C595 1.416 . S
C601 C603 1.332 . S
C601 H609 0.931 . S
C602 N600 1.340 . S
C602 C603 1.407 . S
C602 H608 0.930 . S
C603 C601 1.332 . S
C603 C602 1.407 . S
C603 H605 0.929 . S
H604 C593 0.930 . S
H605 C603 0.929 . S
H606 C621 0.930 . S
H607 C628 0.929 . S
H608 C602 0.930 . S
H609 C601 0.931 . S
H610 C624 0.930 . S
H611 C591 0.930 . S
H612 C597 0.929 . S
H613 C598 0.930 . S
H614 C619 0.930 . S
H615 C594 0.930 . S
H616 C627 0.931 . S
N617 Tb588 2.617 . S
N617 C618 1.379 . S
N617 C621 1.334 . S
C618 N617 1.379 . S
C618 C620 1.416 . S
C618 C626 1.424 . S
C619 H614 0.930 . S
C619 C621 1.390 . S
C619 C622 1.339 . S
C620 C618 1.416 . S
C620 C622 1.416 . S
C620 C653 1.448 . S
C621 H606 0.930 . S
C621 N617 1.334 . S
C621 C619 1.390 . S
C622 C619 1.339 . S
C622 C620 1.416 . S
C622 H629 0.930 . S
N623 Tb588 2.572 . S
N623 C624 1.340 . S
N623 C626 1.361 . S
C624 H610 0.930 . S
C624 N623 1.340 . S
C624 C628 1.407 . S
C625 C626 1.413 . S
C625 C627 1.416 . S
C625 C654 1.427 . S
C626 C618 1.424 . S
C626 N623 1.361 . S
C626 C625 1.413 . S
C627 H616 0.931 . S
C627 C625 1.416 . S
C627 C628 1.332 . S
C628 H607 0.929 . S
C628 C624 1.407 . S
C628 C627 1.332 . S
H629 C622 0.930 . S
H630 C653 0.930 . S
H631 C654 0.929 . S
O632 Tb588 2.465 . S
O632 C652 1.264 . S
O633 Tb588 2.387 . S
O633 C644 1.264 . S
O634 Tb599 2.349 . S
O634 C644 1.243 . S
O635 Tb588 2.428 . S
O635 C652 1.256 . S
O636 Tb588 2.308 . S
O636 C651 1.266 . S
O637 Tb599 2.393 . S
O637 C651 1.248 . S
O638 Tb599 2.465 . S
O638 C663 1.264 . S
O639 Tb599 2.387 . S
O639 C655 1.264 . S
O640 Tb588 2.349 . S
O640 C655 1.243 . S
O641 Tb599 2.428 . S
O641 C663 1.256 . S
O642 Tb599 2.308 . S
O642 C662 1.266 . S
O643 Tb588 2.393 . S
O643 C662 1.248 . S
C644 O633 1.264 . S
C644 O634 1.243 . S
C645 C648 1.399 . S
C645 C650 1.383 . S
C645 C652 1.496 . S
C646 C647 1.399 . S
C646 C650 1.389 . S
C647 C646 1.399 . S
C647 C649 1.380 . S
C647 H664 0.929 . S
C648 C645 1.399 . S
C648 C649 1.392 . S
C648 H665 0.929 . S
C649 C647 1.380 . S
C649 C648 1.392 . S
C649 H666 0.929 . S
C650 C645 1.383 . S
C650 C646 1.389 . S
C650 H667 0.931 . S
C651 O636 1.266 . S
C651 O637 1.248 . S
C652 Tb588 2.802 . S
C652 O632 1.264 . S
C652 O635 1.256 . S
C652 C645 1.496 . S
C653 C620 1.448 . S
C653 H630 0.930 . S
C653 C654 1.328 . S
C654 C625 1.427 . S
C654 H631 0.929 . S
C654 C653 1.328 . S
C655 O639 1.264 . S
C655 O640 1.243 . S
C656 C659 1.399 . S
C656 C660 1.383 . S
C656 C663 1.496 . S
C657 C658 1.399 . S
C657 C660 1.389 . S
C658 C657 1.399 . S
C658 C661 1.380 . S
C658 H668 0.929 . S
C659 C656 1.399 . S
C659 C661 1.392 . S
C659 H669 0.929 . S
C660 C656 1.383 . S
C660 C657 1.389 . S
C660 H670 0.931 . S
C661 C658 1.380 . S
C661 C659 1.392 . S
C661 H671 0.929 . S
C662 O642 1.266 . S
C662 O643 1.248 . S
C663 Tb599 2.802 . S
C663 O638 1.264 . S
C663 O641 1.256 . S
C663 C656 1.496 . S
H664 C647 0.929 . S
H665 C648 0.929 . S
H666 C649 0.929 . S
H667 C650 0.931 . S
H668 C658 0.929 . S
H669 C659 0.929 . S
H670 C660 0.931 . S
H671 C661 0.929 . S
C672 O684 1.241 . S
C672 O685 1.280 . S
C673 O686 1.277 . S
C673 O687 1.245 . S
C674 O698 1.247 . S
C674 O700 1.289 . S
Mg675 O676 1.926 . S
Mg675 O685 1.984 . S
Mg675 O687 1.988 . S
Mg675 O688 2.061 1_655 S
O676 Mg675 1.926 . S
O676 Mg677 1.986 1_545 S
O676 Mg678 1.914 1_655 S
Mg677 O676 1.986 1_565 S
Mg677 O684 2.042 1_565 S
Mg677 O686 2.041 1_565 S
Mg677 O692 2.038 . S
Mg677 O700 2.238 . S
Mg678 O676 1.914 1_455 S
Mg678 O679 1.920 1_545 S
Mg678 O689 2.109 . S
Mg678 O691 2.078 1_445 S
Mg678 O700 2.104 1_445 S
Mg678 O701 2.079 . S
O679 Mg678 1.920 1_565 S
O679 Mg680 1.926 . S
O679 Mg681 1.986 1_565 S
Mg680 O679 1.926 . S
Mg680 O694 1.984 . S
Mg680 O697 1.988 . S
Mg680 O698 2.061 1_455 S
Mg681 O679 1.986 1_545 S
Mg681 O689 2.238 . S
Mg681 O693 2.042 1_545 S
Mg681 O695 2.041 1_545 S
Mg681 O702 2.038 . S
C682 O688 1.247 . S
C682 O689 1.289 . S
C683 O701 1.245 . S
C683 O702 1.274 . S
O684 C672 1.241 . S
O684 Mg677 2.042 1_545 S
O685 C672 1.280 . S
O685 Mg675 1.984 . S
O686 C673 1.277 . S
O686 Mg677 2.041 1_545 S
O687 C673 1.245 . S
O687 Mg675 1.988 . S
O688 Mg675 2.061 1_455 S
O688 C682 1.247 . S
O689 Mg678 2.109 . S
O689 Mg681 2.238 . S
O689 C682 1.289 . S
C690 O691 1.245 . S
C690 O692 1.274 . S
O691 Mg678 2.078 1_665 S
O691 C690 1.245 . S
O692 Mg677 2.038 . S
O692 C690 1.274 . S
O693 Mg681 2.042 1_565 S
O693 C696 1.241 . S
O694 Mg680 1.984 . S
O694 C696 1.280 . S
O695 Mg681 2.041 1_565 S
O695 C699 1.277 . S
C696 O693 1.241 . S
C696 O694 1.280 . S
O697 Mg680 1.988 . S
O697 C699 1.245 . S
O698 C674 1.247 . S
O698 Mg680 2.061 1_655 S
C699 O695 1.277 . S
C699 O697 1.245 . S
O700 C674 1.289 . S
O700 Mg677 2.238 . S
O700 Mg678 2.104 1_665 S
O701 Mg678 2.079 . S
O701 C683 1.245 . S
O702 Mg681 2.038 . S
O702 C683 1.274 . S
C703 O715 1.241 . S
C703 O716 1.280 . S
C704 O717 1.277 . S
C704 O718 1.245 . S
C705 O729 1.247 . S
C705 O731 1.289 . S
Mg706 O707 1.926 . S
Mg706 O716 1.984 . S
Mg706 O718 1.988 1_554 S
Mg706 O719 2.061 . S
O707 Mg706 1.926 . S
O707 Mg708 1.986 1_545 S
O707 Mg709 1.918 . S
Mg708 O707 1.986 1_565 S
Mg708 O715 2.042 1_565 S
Mg708 O717 2.041 1_564 S
Mg708 O723 2.038 . S
Mg708 O731 2.238 1_554 S
Mg709 O707 1.918 . S
Mg709 O710 1.916 1_544 S
Mg709 O720 2.109 . S
Mg709 O722 2.082 1_545 S
Mg709 O731 2.104 1_544 S
Mg709 O732 2.076 1_554 S
O710 Mg709 1.916 1_566 S
O710 Mg711 1.926 . S
O710 Mg712 1.986 1_565 S
Mg711 O710 1.926 . S
Mg711 O725 1.984 . S
Mg711 O728 1.988 1_556 S
Mg711 O729 2.061 . S
Mg712 O710 1.986 1_545 S
Mg712 O720 2.238 1_556 S
Mg712 O724 2.042 1_545 S
Mg712 O726 2.041 1_546 S
Mg712 O733 2.038 . S
C713 O719 1.247 . S
C713 O720 1.289 . S
C714 O732 1.245 . S
C714 O733 1.274 . S
O715 C703 1.241 . S
O715 Mg708 2.042 1_545 S
O716 C703 1.280 . S
O716 Mg706 1.984 . S
O717 C704 1.277 . S
O717 Mg708 2.041 1_546 S
O718 C704 1.245 . S
O718 Mg706 1.988 1_556 S
O719 Mg706 2.061 . S
O719 C713 1.247 . S
O720 Mg709 2.109 . S
O720 Mg712 2.238 1_554 S
O720 C713 1.289 . S
C721 O722 1.245 . S
C721 O723 1.274 . S
O722 Mg709 2.082 1_565 S
O722 C721 1.245 . S
O723 Mg708 2.038 . S
O723 C721 1.274 . S
O724 Mg712 2.042 1_565 S
O724 C727 1.241 . S
O725 Mg711 1.984 . S
O725 C727 1.280 . S
O726 Mg712 2.041 1_564 S
O726 C730 1.277 . S
C727 O724 1.241 . S
C727 O725 1.280 . S
O728 Mg711 1.988 1_554 S
O728 C730 1.245 . S
O729 C705 1.247 . S
O729 Mg711 2.061 . S
C730 O726 1.277 . S
C730 O728 1.245 . S
O731 C705 1.289 . S
O731 Mg708 2.238 1_556 S
O731 Mg709 2.104 1_566 S
O732 Mg709 2.076 1_556 S
O732 C714 1.245 . S
O733 Mg712 2.038 . S
O733 C714 1.274 . S
C734 O746 1.241 . S
C734 O747 1.280 . S
C735 O748 1.277 . S
C735 O749 1.245 . S
C736 O760 1.247 . S
C736 O762 1.289 . S
Mg737 O738 1.926 . S
Mg737 O747 1.984 . S
Mg737 O749 1.988 1_554 S
Mg737 O750 2.061 1_655 S
O738 Mg737 1.926 . S
O738 Mg739 1.986 . S
O738 Mg740 1.914 1_655 S
Mg739 O738 1.986 . S
Mg739 O746 2.042 . S
Mg739 O748 2.041 1_554 S
Mg739 O754 2.038 . S
Mg739 O762 2.238 1_554 S
Mg740 O738 1.914 1_455 S
Mg740 O741 1.919 1_554 S
Mg740 O751 2.111 . S
Mg740 O753 2.081 1_455 S
Mg740 O762 2.101 1_454 S
Mg740 O763 2.076 1_554 S
O741 Mg740 1.919 1_556 S
O741 Mg742 1.926 . S
O741 Mg743 1.986 . S
Mg742 O741 1.926 . S
Mg742 O756 1.984 . S
Mg742 O759 1.988 1_556 S
Mg742 O760 2.061 1_455 S
Mg743 O741 1.986 . S
Mg743 O751 2.238 1_556 S
Mg743 O755 2.042 . S
Mg743 O757 2.041 1_556 S
Mg743 O764 2.038 . S
C744 O750 1.247 . S
C744 O751 1.289 . S
C745 O763 1.245 . S
C745 O764 1.274 . S
O746 C734 1.241 . S
O746 Mg739 2.042 . S
O747 C734 1.280 . S
O747 Mg737 1.984 . S
O748 C735 1.277 . S
O748 Mg739 2.041 1_556 S
O749 C735 1.245 . S
O749 Mg737 1.988 1_556 S
O750 Mg737 2.061 1_455 S
O750 C744 1.247 . S
O751 Mg740 2.111 . S
O751 Mg743 2.238 1_554 S
O751 C744 1.289 . S
C752 O753 1.245 . S
C752 O754 1.274 . S
O753 Mg740 2.081 1_655 S
O753 C752 1.245 . S
O754 Mg739 2.038 . S
O754 C752 1.274 . S
O755 Mg743 2.042 . S
O755 C758 1.241 . S
O756 Mg742 1.984 . S
O756 C758 1.280 . S
O757 Mg743 2.041 1_554 S
O757 C761 1.277 . S
C758 O755 1.241 . S
C758 O756 1.280 . S
O759 Mg742 1.988 1_554 S
O759 C761 1.245 . S
O760 C736 1.247 . S
O760 Mg742 2.061 1_655 S
C761 O757 1.277 . S
C761 O759 1.245 . S
O762 C736 1.289 . S
O762 Mg739 2.238 1_556 S
O762 Mg740 2.101 1_656 S
O763 Mg740 2.076 1_556 S
O763 C745 1.245 . S
O764 Mg743 2.038 . S
O764 C745 1.274 . S
C765 O777 1.241 . S
C765 O778 1.280 . S
C766 O779 1.277 . S
C766 O780 1.245 . S
C767 O791 1.247 . S
C767 O793 1.289 . S
Mg768 O769 1.926 . S
Mg768 O778 1.984 . S
Mg768 O780 1.988 1_554 S
Mg768 O781 2.061 . S
O769 Mg768 1.926 . S
O769 Mg770 1.986 . S
O769 Mg771 1.918 . S
Mg770 O769 1.986 . S
Mg770 O777 2.042 . S
Mg770 O779 2.041 1_554 S
Mg770 O785 2.038 . S
Mg770 O793 2.238 1_554 S
Mg771 O769 1.918 . S
Mg771 O772 1.916 1_554 S
Mg771 O782 2.109 . S
Mg771 O784 2.082 . S
Mg771 O793 2.104 1_554 S
Mg771 O794 2.075 1_554 S
O772 Mg771 1.916 1_556 S
O772 Mg773 1.926 . S
O772 Mg774 1.986 . S
Mg773 O772 1.926 . S
Mg773 O787 1.984 . S
Mg773 O790 1.988 1_556 S
Mg773 O791 2.061 . S
Mg774 O772 1.986 . S
Mg774 O782 2.238 1_556 S
Mg774 O786 2.042 . S
Mg774 O788 2.041 1_556 S
Mg774 O795 2.038 . S
C775 O781 1.247 . S
C775 O782 1.289 . S
C776 O794 1.245 . S
C776 O795 1.274 . S
O777 C765 1.241 . S
O777 Mg770 2.042 . S
O778 C765 1.280 . S
O778 Mg768 1.984 . S
O779 C766 1.277 . S
O779 Mg770 2.041 1_556 S
O780 C766 1.245 . S
O780 Mg768 1.988 1_556 S
O781 Mg768 2.061 . S
O781 C775 1.247 . S
O782 Mg771 2.109 . S
O782 Mg774 2.238 1_554 S
O782 C775 1.289 . S
C783 O784 1.245 . S
C783 O785 1.274 . S
O784 Mg771 2.082 . S
O784 C783 1.245 . S
O785 Mg770 2.038 . S
O785 C783 1.274 . S
O786 Mg774 2.042 . S
O786 C789 1.241 . S
O787 Mg773 1.984 . S
O787 C789 1.280 . S
O788 Mg774 2.041 1_554 S
O788 C792 1.277 . S
C789 O786 1.241 . S
C789 O787 1.280 . S
O790 Mg773 1.988 1_554 S
O790 C792 1.245 . S
O791 C767 1.247 . S
O791 Mg773 2.061 . S
C792 O788 1.277 . S
C792 O790 1.245 . S
O793 C767 1.289 . S
O793 Mg770 2.238 1_556 S
O793 Mg771 2.104 1_556 S
O794 Mg771 2.075 1_556 S
O794 C776 1.245 . S
O795 Mg774 2.038 . S
O795 C776 1.274 . S
C796 O808 1.241 . S
C796 O809 1.280 . S
C797 O810 1.277 . S
C797 O811 1.245 . S
C798 O822 1.247 . S
C798 O824 1.289 . S
Mg799 O800 1.926 . S
Mg799 O809 1.984 . S
Mg799 O811 1.988 . S
Mg799 O812 2.061 1_655 S
O800 Mg799 1.926 . S
O800 Mg801 1.986 . S
O800 Mg802 1.914 1_655 S
Mg801 O800 1.986 . S
Mg801 O808 2.042 . S
Mg801 O810 2.041 . S
Mg801 O816 2.038 . S
Mg801 O824 2.238 . S
Mg802 O800 1.914 1_455 S
Mg802 O803 1.920 . S
Mg802 O813 2.109 . S
Mg802 O815 2.078 1_455 S
Mg802 O824 2.104 1_455 S
Mg802 O825 2.079 . S
O803 Mg802 1.920 . S
O803 Mg804 1.926 . S
O803 Mg805 1.986 . S
Mg804 O803 1.926 . S
Mg804 O818 1.984 . S
Mg804 O821 1.988 . S
Mg804 O822 2.061 1_455 S
Mg805 O803 1.986 . S
Mg805 O813 2.238 . S
Mg805 O817 2.042 . S
Mg805 O819 2.041 . S
Mg805 O826 2.038 . S
C806 O812 1.247 . S
C806 O813 1.289 . S
C807 O825 1.245 . S
C807 O826 1.274 . S
O808 C796 1.241 . S
O808 Mg801 2.042 . S
O809 C796 1.280 . S
O809 Mg799 1.984 . S
O810 C797 1.277 . S
O810 Mg801 2.041 . S
O811 C797 1.245 . S
O811 Mg799 1.988 . S
O812 Mg799 2.061 1_455 S
O812 C806 1.247 . S
O813 Mg802 2.109 . S
O813 Mg805 2.238 . S
O813 C806 1.289 . S
C814 O815 1.245 . S
C814 O816 1.274 . S
O815 Mg802 2.078 1_655 S
O815 C814 1.245 . S
O816 Mg801 2.038 . S
O816 C814 1.274 . S
O817 Mg805 2.042 . S
O817 C820 1.241 . S
O818 Mg804 1.984 . S
O818 C820 1.280 . S
O819 Mg805 2.041 . S
O819 C823 1.277 . S
C820 O817 1.241 . S
C820 O818 1.280 . S
O821 Mg804 1.988 . S
O821 C823 1.245 . S
O822 C798 1.247 . S
O822 Mg804 2.061 1_655 S
C823 O819 1.277 . S
C823 O821 1.245 . S
O824 C798 1.289 . S
O824 Mg801 2.238 . S
O824 Mg802 2.104 1_655 S
O825 Mg802 2.079 . S
O825 C807 1.245 . S
O826 Mg805 2.038 . S
O826 C807 1.274 . S
C827 O839 1.241 . S
C827 O840 1.280 . S
C828 O841 1.277 . S
C828 O842 1.245 . S
C829 O853 1.247 . S
C829 O855 1.289 . S
Mg830 O831 1.926 . S
Mg830 O840 1.984 . S
Mg830 O842 1.988 . S
Mg830 O843 2.061 . S
O831 Mg830 1.926 . S
O831 Mg832 1.986 1_545 S
O831 Mg833 1.917 . S
Mg832 O831 1.986 1_565 S
Mg832 O839 2.042 1_565 S
Mg832 O841 2.041 1_565 S
Mg832 O847 2.038 . S
Mg832 O855 2.238 . S
Mg833 O831 1.917 . S
Mg833 O834 1.917 1_545 S
Mg833 O844 2.106 . S
Mg833 O846 2.079 1_545 S
Mg833 O855 2.106 1_545 S
Mg833 O856 2.079 . S
O834 Mg833 1.917 1_565 S
O834 Mg835 1.926 . S
O834 Mg836 1.986 1_565 S
Mg835 O834 1.926 . S
Mg835 O849 1.984 . S
Mg835 O852 1.988 . S
Mg835 O853 2.061 . S
Mg836 O834 1.986 1_545 S
Mg836 O844 2.238 . S
Mg836 O848 2.042 1_545 S
Mg836 O850 2.041 1_545 S
Mg836 O857 2.038 . S
C837 O843 1.247 . S
C837 O844 1.289 . S
C838 O856 1.245 . S
C838 O857 1.274 . S
O839 C827 1.241 . S
O839 Mg832 2.042 1_545 S
O840 C827 1.280 . S
O840 Mg830 1.984 . S
O841 C828 1.277 . S
O841 Mg832 2.041 1_545 S
O842 C828 1.245 . S
O842 Mg830 1.988 . S
O843 Mg830 2.061 . S
O843 C837 1.247 . S
O844 Mg833 2.106 . S
O844 Mg836 2.238 . S
O844 C837 1.289 . S
C845 O846 1.245 . S
C845 O847 1.274 . S
O846 Mg833 2.079 1_565 S
O846 C845 1.245 . S
O847 Mg832 2.038 . S
O847 C845 1.274 . S
O848 Mg836 2.042 1_565 S
O848 C851 1.241 . S
O849 Mg835 1.984 . S
O849 C851 1.280 . S
O850 Mg836 2.041 1_565 S
O850 C854 1.277 . S
C851 O848 1.241 . S
C851 O849 1.280 . S
O852 Mg835 1.988 . S
O852 C854 1.245 . S
O853 C829 1.247 . S
O853 Mg835 2.061 . S
C854 O850 1.277 . S
C854 O852 1.245 . S
O855 C829 1.289 . S
O855 Mg832 2.238 . S
O855 Mg833 2.106 1_565 S
O856 Mg833 2.079 . S
O856 C838 1.245 . S
O857 Mg836 2.038 . S
O857 C838 1.274 . S
H858 C864 0.930 . S
H859 C868 0.930 . S
H860 C873 0.929 . S
H861 C871 0.929 . S
H862 C866 0.929 . S
H863 C872 0.929 . S
C864 H858 0.930 . S
C864 C865 1.367 . S
C864 C872 1.378 . S
C865 C864 1.367 . S
C865 C873 1.433 . S
C866 H862 0.929 . S
C866 C868 1.378 . S
C866 C870 1.350 . S
C867 C870 1.463 . S
C867 C872 1.350 . S
C867 N875 1.427 . S
C868 H859 0.930 . S
C868 C866 1.378 . S
C868 C869 1.367 . S
C869 C868 1.367 . S
C869 C871 1.433 . S
C870 C866 1.350 . S
C870 C867 1.463 . S
C870 N874 1.427 . S
C871 H861 0.929 . S
C871 C869 1.433 . S
C871 N874 1.384 . S
C872 H863 0.929 . S
C872 C864 1.378 . S
C872 C867 1.350 . S
C873 H860 0.929 . S
C873 C865 1.433 . S
C873 N875 1.384 . S
N874 C870 1.427 . S
N874 C871 1.384 . S
N875 C867 1.427 . S
N875 C873 1.384 . S
H876 C882 0.930 . S
H877 C886 0.930 . S
H878 C891 0.929 . S
H879 C889 0.929 . S
H880 C884 0.929 . S
H881 C890 0.929 . S
C882 H876 0.930 . S
C882 C883 1.367 . S
C882 C890 1.378 . S
C883 C882 1.367 . S
C883 C891 1.433 . S
C884 H880 0.929 . S
C884 C886 1.378 . S
C884 C888 1.350 . S
C885 C888 1.463 . S
C885 C890 1.350 . S
C885 N893 1.427 . S
C886 H877 0.930 . S
C886 C884 1.378 . S
C886 C887 1.367 . S
C887 C886 1.367 . S
C887 C889 1.433 . S
C888 C884 1.350 . S
C888 C885 1.463 . S
C888 N892 1.427 . S
C889 H879 0.929 . S
C889 C887 1.433 . S
C889 N892 1.384 . S
C890 H881 0.929 . S
C890 C882 1.378 . S
C890 C885 1.350 . S
C891 H878 0.929 . S
C891 C883 1.433 . S
C891 N893 1.384 . S
N892 C888 1.427 . S
N892 C889 1.384 . S
N893 C885 1.427 . S
N893 C891 1.384 . S
H894 C900 0.930 . S
H895 C904 0.930 . S
H896 C909 0.929 . S
H897 C907 0.929 . S
H898 C902 0.929 . S
H899 C908 0.929 . S
C900 H894 0.930 . S
C900 C901 1.367 . S
C900 C908 1.378 . S
C901 C900 1.367 . S
C901 C909 1.433 . S
C902 H898 0.929 . S
C902 C904 1.378 . S
C902 C906 1.350 . S
C903 C906 1.463 . S
C903 C908 1.350 . S
C903 N911 1.427 . S
C904 H895 0.930 . S
C904 C902 1.378 . S
C904 C905 1.367 . S
C905 C904 1.367 . S
C905 C907 1.433 . S
C906 C902 1.350 . S
C906 C903 1.463 . S
C906 N910 1.427 . S
C907 H897 0.929 . S
C907 C905 1.433 . S
C907 N910 1.384 . S
C908 H899 0.929 . S
C908 C900 1.378 . S
C908 C903 1.350 . S
C909 H896 0.929 . S
C909 C901 1.433 . S
C909 N911 1.384 . S
N910 C906 1.427 . S
N910 C907 1.384 . S
N911 C903 1.427 . S
N911 C909 1.384 . S
H912 C918 0.930 . S
H913 C922 0.930 . S
H914 C927 0.929 . S
H915 C925 0.929 . S
H916 C920 0.929 . S
H917 C926 0.929 . S
C918 H912 0.930 . S
C918 C919 1.367 . S
C918 C926 1.378 . S
C919 C918 1.367 . S
C919 C927 1.433 . S
C920 H916 0.929 . S
C920 C922 1.378 . S
C920 C924 1.350 . S
C921 C924 1.463 . S
C921 C926 1.350 . S
C921 N929 1.427 . S
C922 H913 0.930 . S
C922 C920 1.378 . S
C922 C923 1.367 . S
C923 C922 1.367 . S
C923 C925 1.433 . S
C924 C920 1.350 . S
C924 C921 1.463 . S
C924 N928 1.427 . S
C925 H915 0.929 . S
C925 C923 1.433 . S
C925 N928 1.384 . S
C926 H917 0.929 . S
C926 C918 1.378 . S
C926 C921 1.350 . S
C927 H914 0.929 . S
C927 C919 1.433 . S
C927 N929 1.384 . S
N928 C924 1.427 . S
N928 C925 1.384 . S
N929 C921 1.427 . S
N929 C927 1.384 . S
H930 C936 0.930 . S
H931 C940 0.930 . S
H932 C945 0.929 . S
H933 C943 0.929 . S
H934 C938 0.929 . S
H935 C944 0.929 . S
C936 H930 0.930 . S
C936 C937 1.367 . S
C936 C944 1.378 . S
C937 C936 1.367 . S
C937 C945 1.433 . S
C938 H934 0.929 . S
C938 C940 1.378 . S
C938 C942 1.350 . S
C939 C942 1.463 . S
C939 C944 1.350 . S
C939 N947 1.427 . S
C940 H931 0.930 . S
C940 C938 1.378 . S
C940 C941 1.367 . S
C941 C940 1.367 . S
C941 C943 1.433 . S
C942 C938 1.350 . S
C942 C939 1.463 . S
C942 N946 1.427 . S
C943 H933 0.929 . S
C943 C941 1.433 . S
C943 N946 1.384 . S
C944 H935 0.929 . S
C944 C936 1.378 . S
C944 C939 1.350 . S
C945 H932 0.929 . S
C945 C937 1.433 . S
C945 N947 1.384 . S
N946 C942 1.427 . S
N946 C943 1.384 . S
N947 C939 1.427 . S
N947 C945 1.384 . S
H948 C954 0.930 . S
H949 C958 0.930 . S
H950 C963 0.929 . S
H951 C961 0.929 . S
H952 C956 0.929 . S
H953 C962 0.929 . S
C954 H948 0.930 . S
C954 C955 1.367 . S
C954 C962 1.378 . S
C955 C954 1.367 . S
C955 C963 1.433 . S
C956 H952 0.929 . S
C956 C958 1.378 . S
C956 C960 1.350 . S
C957 C960 1.463 . S
C957 C962 1.350 . S
C957 N965 1.427 . S
C958 H949 0.930 . S
C958 C956 1.378 . S
C958 C959 1.367 . S
C959 C958 1.367 . S
C959 C961 1.433 . S
C960 C956 1.350 . S
C960 C957 1.463 . S
C960 N964 1.427 . S
C961 H951 0.929 . S
C961 C959 1.433 . S
C961 N964 1.384 . S
C962 H953 0.929 . S
C962 C954 1.378 . S
C962 C957 1.350 . S
C963 H950 0.929 . S
C963 C955 1.433 . S
C963 N965 1.384 . S
N964 C960 1.427 . S
N964 C961 1.384 . S
N965 C957 1.427 . S
N965 C963 1.384 . S
H966 C972 0.930 . S
H967 C976 0.930 . S
H968 C981 0.929 . S
H969 C979 0.929 . S
H970 C974 0.929 . S
H971 C980 0.929 . S
C972 H966 0.930 . S
C972 C973 1.367 . S
C972 C980 1.378 . S
C973 C972 1.367 . S
C973 C981 1.433 . S
C974 H970 0.929 . S
C974 C976 1.378 . S
C974 C978 1.350 . S
C975 C978 1.463 . S
C975 C980 1.350 . S
C975 N983 1.427 . S
C976 H967 0.930 . S
C976 C974 1.378 . S
C976 C977 1.367 . S
C977 C976 1.367 . S
C977 C979 1.433 . S
C978 C974 1.350 . S
C978 C975 1.463 . S
C978 N982 1.427 . S
C979 H969 0.929 . S
C979 C977 1.433 . S
C979 N982 1.384 . S
C980 H971 0.929 . S
C980 C972 1.378 . S
C980 C975 1.350 . S
C981 H968 0.929 . S
C981 C973 1.433 . S
C981 N983 1.384 . S
N982 C978 1.427 . S
N982 C979 1.384 . S
N983 C975 1.427 . S
N983 C981 1.384 . S
H984 C990 0.930 . S
H985 C994 0.930 . S
H986 C999 0.929 . S
H987 C997 0.929 . S
H988 C992 0.929 . S
H989 C998 0.929 . S
C990 H984 0.930 . S
C990 C991 1.367 . S
C990 C998 1.378 . S
C991 C990 1.367 . S
C991 C999 1.433 . S
C992 H988 0.929 . S
C992 C994 1.378 . S
C992 C996 1.350 . S
C993 C996 1.463 . S
C993 C998 1.350 . S
C993 N1001 1.427 . S
C994 H985 0.930 . S
C994 C992 1.378 . S
C994 C995 1.367 . S
C995 C994 1.367 . S
C995 C997 1.433 . S
C996 C992 1.350 . S
C996 C993 1.463 . S
C996 N1000 1.427 . S
C997 H987 0.929 . S
C997 C995 1.433 . S
C997 N1000 1.384 . S
C998 H989 0.929 . S
C998 C990 1.378 . S
C998 C993 1.350 . S
C999 H986 0.929 . S
C999 C991 1.433 . S
C999 N1001 1.384 . S
N1000 C996 1.427 . S
N1000 C997 1.384 . S
N1001 C993 1.427 . S
N1001 C999 1.384 . S
H1002 C1008 0.930 . S
H1003 C1012 0.930 . S
H1004 C1017 0.929 . S
H1005 C1015 0.929 . S
H1006 C1010 0.929 . S
H1007 C1016 0.929 . S
C1008 H1002 0.930 . S
C1008 C1009 1.367 . S
C1008 C1016 1.378 . S
C1009 C1008 1.367 . S
C1009 C1017 1.433 . S
C1010 H1006 0.929 . S
C1010 C1012 1.378 . S
C1010 C1014 1.350 . S
C1011 C1014 1.463 . S
C1011 C1016 1.350 . S
C1011 N1019 1.427 . S
C1012 H1003 0.930 . S
C1012 C1010 1.378 . S
C1012 C1013 1.367 . S
C1013 C1012 1.367 . S
C1013 C1015 1.433 . S
C1014 C1010 1.350 . S
C1014 C1011 1.463 . S
C1014 N1018 1.427 . S
C1015 H1005 0.929 . S
C1015 C1013 1.433 . S
C1015 N1018 1.384 . S
C1016 H1007 0.929 . S
C1016 C1008 1.378 . S
C1016 C1011 1.350 . S
C1017 H1004 0.929 . S
C1017 C1009 1.433 . S
C1017 N1019 1.384 . S
N1018 C1014 1.427 . S
N1018 C1015 1.384 . S
N1019 C1011 1.427 . S
N1019 C1017 1.384 . S
H1020 C1026 0.930 . S
H1021 C1030 0.930 . S
H1022 C1035 0.929 . S
H1023 C1033 0.929 . S
H1024 C1028 0.929 . S
H1025 C1034 0.929 . S
C1026 H1020 0.930 . S
C1026 C1027 1.367 . S
C1026 C1034 1.378 . S
C1027 C1026 1.367 . S
C1027 C1035 1.433 . S
C1028 H1024 0.929 . S
C1028 C1030 1.378 . S
C1028 C1032 1.350 . S
C1029 C1032 1.463 . S
C1029 C1034 1.350 . S
C1029 N1037 1.427 . S
C1030 H1021 0.930 . S
C1030 C1028 1.378 . S
C1030 C1031 1.367 . S
C1031 C1030 1.367 . S
C1031 C1033 1.433 . S
C1032 C1028 1.350 . S
C1032 C1029 1.463 . S
C1032 N1036 1.427 . S
C1033 H1023 0.929 . S
C1033 C1031 1.433 . S
C1033 N1036 1.384 . S
C1034 H1025 0.929 . S
C1034 C1026 1.378 . S
C1034 C1029 1.350 . S
C1035 H1022 0.929 . S
C1035 C1027 1.433 . S
C1035 N1037 1.384 . S
N1036 C1032 1.427 . S
N1036 C1033 1.384 . S
N1037 C1029 1.427 . S
N1037 C1035 1.384 . S
H1038 C1044 0.930 . S
H1039 C1048 0.930 . S
H1040 C1053 0.929 . S
H1041 C1051 0.929 . S
H1042 C1046 0.929 . S
H1043 C1052 0.929 . S
C1044 H1038 0.930 . S
C1044 C1045 1.367 . S
C1044 C1052 1.378 . S
C1045 C1044 1.367 . S
C1045 C1053 1.433 . S
C1046 H1042 0.929 . S
C1046 C1048 1.378 . S
C1046 C1050 1.350 . S
C1047 C1050 1.463 . S
C1047 C1052 1.350 . S
C1047 N1055 1.427 . S
C1048 H1039 0.930 . S
C1048 C1046 1.378 . S
C1048 C1049 1.367 . S
C1049 C1048 1.367 . S
C1049 C1051 1.433 . S
C1050 C1046 1.350 . S
C1050 C1047 1.463 . S
C1050 N1054 1.427 . S
C1051 H1041 0.929 . S
C1051 C1049 1.433 . S
C1051 N1054 1.384 . S
C1052 H1043 0.929 . S
C1052 C1044 1.378 . S
C1052 C1047 1.350 . S
C1053 H1040 0.929 . S
C1053 C1045 1.433 . S
C1053 N1055 1.384 . S
N1054 C1050 1.427 . S
N1054 C1051 1.384 . S
N1055 C1047 1.427 . S
N1055 C1053 1.384 . S
H1056 C1062 0.930 . S
H1057 C1066 0.930 . S
H1058 C1071 0.929 . S
H1059 C1069 0.929 . S
H1060 C1064 0.929 . S
H1061 C1070 0.929 . S
C1062 H1056 0.930 . S
C1062 C1063 1.367 . S
C1062 C1070 1.378 . S
C1063 C1062 1.367 . S
C1063 C1071 1.433 . S
C1064 H1060 0.929 . S
C1064 C1066 1.378 . S
C1064 C1068 1.350 . S
C1065 C1068 1.463 . S
C1065 C1070 1.350 . S
C1065 N1073 1.427 . S
C1066 H1057 0.930 . S
C1066 C1064 1.378 . S
C1066 C1067 1.367 . S
C1067 C1066 1.367 . S
C1067 C1069 1.433 . S
C1068 C1064 1.350 . S
C1068 C1065 1.463 . S
C1068 N1072 1.427 . S
C1069 H1059 0.929 . S
C1069 C1067 1.433 . S
C1069 N1072 1.384 . S
C1070 H1061 0.929 . S
C1070 C1062 1.378 . S
C1070 C1065 1.350 . S
C1071 H1058 0.929 . S
C1071 C1063 1.433 . S
C1071 N1073 1.384 . S
N1072 C1068 1.427 . S
N1072 C1069 1.384 . S
N1073 C1065 1.427 . S
N1073 C1071 1.384 . S
H1074 C1080 0.930 . S
H1075 C1084 0.930 . S
H1076 C1089 0.929 . S
H1077 C1087 0.929 . S
H1078 C1082 0.929 . S
H1079 C1088 0.929 . S
C1080 H1074 0.930 . S
C1080 C1081 1.367 . S
C1080 C1088 1.378 . S
C1081 C1080 1.367 . S
C1081 C1089 1.433 . S
C1082 H1078 0.929 . S
C1082 C1084 1.378 . S
C1082 C1086 1.350 . S
C1083 C1086 1.463 . S
C1083 C1088 1.350 . S
C1083 N1091 1.427 . S
C1084 H1075 0.930 . S
C1084 C1082 1.378 . S
C1084 C1085 1.367 . S
C1085 C1084 1.367 . S
C1085 C1087 1.433 . S
C1086 C1082 1.350 . S
C1086 C1083 1.463 . S
C1086 N1090 1.427 . S
C1087 H1077 0.929 . S
C1087 C1085 1.433 . S
C1087 N1090 1.384 . S
C1088 H1079 0.929 . S
C1088 C1080 1.378 . S
C1088 C1083 1.350 . S
C1089 H1076 0.929 . S
C1089 C1081 1.433 . S
C1089 N1091 1.384 . S
N1090 C1086 1.427 . S
N1090 C1087 1.384 . S
N1091 C1083 1.427 . S
N1091 C1089 1.384 . S
H1092 C1098 0.930 . S
H1093 C1102 0.930 . S
H1094 C1107 0.929 . S
H1095 C1105 0.929 . S
H1096 C1100 0.929 . S
H1097 C1106 0.929 . S
C1098 H1092 0.930 . S
C1098 C1099 1.367 . S
C1098 C1106 1.378 . S
C1099 C1098 1.367 . S
C1099 C1107 1.433 . S
C1100 H1096 0.929 . S
C1100 C1102 1.378 . S
C1100 C1104 1.350 . S
C1101 C1104 1.463 . S
C1101 C1106 1.350 . S
C1101 N1109 1.427 . S
C1102 H1093 0.930 . S
C1102 C1100 1.378 . S
C1102 C1103 1.367 . S
C1103 C1102 1.367 . S
C1103 C1105 1.433 . S
C1104 C1100 1.350 . S
C1104 C1101 1.463 . S
C1104 N1108 1.427 . S
C1105 H1095 0.929 . S
C1105 C1103 1.433 . S
C1105 N1108 1.384 . S
C1106 H1097 0.929 . S
C1106 C1098 1.378 . S
C1106 C1101 1.350 . S
C1107 H1094 0.929 . S
C1107 C1099 1.433 . S
C1107 N1109 1.384 . S
N1108 C1104 1.427 . S
N1108 C1105 1.384 . S
N1109 C1101 1.427 . S
N1109 C1107 1.384 . S
H1110 C1116 0.930 . S
H1111 C1120 0.930 . S
H1112 C1125 0.929 . S
H1113 C1123 0.929 . S
H1114 C1118 0.929 . S
H1115 C1124 0.929 . S
C1116 H1110 0.930 . S
C1116 C1117 1.367 . S
C1116 C1124 1.378 . S
C1117 C1116 1.367 . S
C1117 C1125 1.433 . S
C1118 H1114 0.929 . S
C1118 C1120 1.378 . S
C1118 C1122 1.350 . S
C1119 C1122 1.463 . S
C1119 C1124 1.350 . S
C1119 N1127 1.427 . S
C1120 H1111 0.930 . S
C1120 C1118 1.378 . S
C1120 C1121 1.367 . S
C1121 C1120 1.367 . S
C1121 C1123 1.433 . S
C1122 C1118 1.350 . S
C1122 C1119 1.463 . S
C1122 N1126 1.427 . S
C1123 H1113 0.929 . S
C1123 C1121 1.433 . S
C1123 N1126 1.384 . S
C1124 H1115 0.929 . S
C1124 C1116 1.378 . S
C1124 C1119 1.350 . S
C1125 H1112 0.929 . S
C1125 C1117 1.433 . S
C1125 N1127 1.384 . S
N1126 C1122 1.427 . S
N1126 C1123 1.384 . S
N1127 C1119 1.427 . S
N1127 C1125 1.384 . S
H1128 C1134 0.930 . S
H1129 C1138 0.930 . S
H1130 C1143 0.929 . S
H1131 C1141 0.929 . S
H1132 C1136 0.929 . S
H1133 C1142 0.929 . S
C1134 H1128 0.930 . S
C1134 C1135 1.367 . S
C1134 C1142 1.378 . S
C1135 C1134 1.367 . S
C1135 C1143 1.433 . S
C1136 H1132 0.929 . S
C1136 C1138 1.378 . S
C1136 C1140 1.350 . S
C1137 C1140 1.463 . S
C1137 C1142 1.350 . S
C1137 N1145 1.427 . S
C1138 H1129 0.930 . S
C1138 C1136 1.378 . S
C1138 C1139 1.367 . S
C1139 C1138 1.367 . S
C1139 C1141 1.433 . S
C1140 C1136 1.350 . S
C1140 C1137 1.463 . S
C1140 N1144 1.427 . S
C1141 H1131 0.929 . S
C1141 C1139 1.433 . S
C1141 N1144 1.384 . S
C1142 H1133 0.929 . S
C1142 C1134 1.378 . S
C1142 C1137 1.350 . S
C1143 H1130 0.929 . S
C1143 C1135 1.433 . S
C1143 N1145 1.384 . S
N1144 C1140 1.427 . S
N1144 C1141 1.384 . S
N1145 C1137 1.427 . S
N1145 C1143 1.384 . S
H1146 C1152 0.930 . S
H1147 C1156 0.930 . S
H1148 C1161 0.929 . S
H1149 C1159 0.929 . S
H1150 C1154 0.929 . S
H1151 C1160 0.929 . S
C1152 H1146 0.930 . S
C1152 C1153 1.367 . S
C1152 C1160 1.378 . S
C1153 C1152 1.367 . S
C1153 C1161 1.433 . S
C1154 H1150 0.929 . S
C1154 C1156 1.378 . S
C1154 C1158 1.350 . S
C1155 C1158 1.463 . S
C1155 C1160 1.350 . S
C1155 N1163 1.427 . S
C1156 H1147 0.930 . S
C1156 C1154 1.378 . S
C1156 C1157 1.367 . S
C1157 C1156 1.367 . S
C1157 C1159 1.433 . S
C1158 C1154 1.350 . S
C1158 C1155 1.463 . S
C1158 N1162 1.427 . S
C1159 H1149 0.929 . S
C1159 C1157 1.433 . S
C1159 N1162 1.384 . S
C1160 H1151 0.929 . S
C1160 C1152 1.378 . S
C1160 C1155 1.350 . S
C1161 H1148 0.929 . S
C1161 C1153 1.433 . S
C1161 N1163 1.384 . S
N1162 C1158 1.427 . S
N1162 C1159 1.384 . S
N1163 C1155 1.427 . S
N1163 C1161 1.384 . S
H1164 C1170 0.930 . S
H1165 C1174 0.930 . S
H1166 C1179 0.929 . S
H1167 C1177 0.929 . S
H1168 C1172 0.929 . S
H1169 C1178 0.929 . S
C1170 H1164 0.930 . S
C1170 C1171 1.367 . S
C1170 C1178 1.378 . S
C1171 C1170 1.367 . S
C1171 C1179 1.433 . S
C1172 H1168 0.929 . S
C1172 C1174 1.378 . S
C1172 C1176 1.350 . S
C1173 C1176 1.463 . S
C1173 C1178 1.350 . S
C1173 N1181 1.427 . S
C1174 H1165 0.930 . S
C1174 C1172 1.378 . S
C1174 C1175 1.367 . S
C1175 C1174 1.367 . S
C1175 C1177 1.433 . S
C1176 C1172 1.350 . S
C1176 C1173 1.463 . S
C1176 N1180 1.427 . S
C1177 H1167 0.929 . S
C1177 C1175 1.433 . S
C1177 N1180 1.384 . S
C1178 H1169 0.929 . S
C1178 C1170 1.378 . S
C1178 C1173 1.350 . S
C1179 H1166 0.929 . S
C1179 C1171 1.433 . S
C1179 N1181 1.384 . S
N1180 C1176 1.427 . S
N1180 C1177 1.384 . S
N1181 C1173 1.427 . S
N1181 C1179 1.384 . S
H1182 C1188 0.930 . S
H1183 C1192 0.930 . S
H1184 C1197 0.929 . S
H1185 C1195 0.929 . S
H1186 C1190 0.929 . S
H1187 C1196 0.929 . S
C1188 H1182 0.930 . S
C1188 C1189 1.367 . S
C1188 C1196 1.378 . S
C1189 C1188 1.367 . S
C1189 C1197 1.433 . S
C1190 H1186 0.929 . S
C1190 C1192 1.378 . S
C1190 C1194 1.350 . S
C1191 C1194 1.463 . S
C1191 C1196 1.350 . S
C1191 N1199 1.427 . S
C1192 H1183 0.930 . S
C1192 C1190 1.378 . S
C1192 C1193 1.367 . S
C1193 C1192 1.367 . S
C1193 C1195 1.433 . S
C1194 C1190 1.350 . S
C1194 C1191 1.463 . S
C1194 N1198 1.427 . S
C1195 H1185 0.929 . S
C1195 C1193 1.433 . S
C1195 N1198 1.384 . S
C1196 H1187 0.929 . S
C1196 C1188 1.378 . S
C1196 C1191 1.350 . S
C1197 H1184 0.929 . S
C1197 C1189 1.433 . S
C1197 N1199 1.384 . S
N1198 C1194 1.427 . S
N1198 C1195 1.384 . S
N1199 C1191 1.427 . S
N1199 C1197 1.384 . S
H1200 C1206 0.930 . S
H1201 C1210 0.930 . S
H1202 C1215 0.929 . S
H1203 C1213 0.929 . S
H1204 C1208 0.929 . S
H1205 C1214 0.929 . S
C1206 H1200 0.930 . S
C1206 C1207 1.367 . S
C1206 C1214 1.378 . S
C1207 C1206 1.367 . S
C1207 C1215 1.433 . S
C1208 H1204 0.929 . S
C1208 C1210 1.378 . S
C1208 C1212 1.350 . S
C1209 C1212 1.463 . S
C1209 C1214 1.350 . S
C1209 N1217 1.427 . S
C1210 H1201 0.930 . S
C1210 C1208 1.378 . S
C1210 C1211 1.367 . S
C1211 C1210 1.367 . S
C1211 C1213 1.433 . S
C1212 C1208 1.350 . S
C1212 C1209 1.463 . S
C1212 N1216 1.427 . S
C1213 H1203 0.929 . S
C1213 C1211 1.433 . S
C1213 N1216 1.384 . S
C1214 H1205 0.929 . S
C1214 C1206 1.378 . S
C1214 C1209 1.350 . S
C1215 H1202 0.929 . S
C1215 C1207 1.433 . S
C1215 N1217 1.384 . S
N1216 C1212 1.427 . S
N1216 C1213 1.384 . S
N1217 C1209 1.427 . S
N1217 C1215 1.384 . S
H1218 C1224 0.930 . S
H1219 C1228 0.930 . S
H1220 C1233 0.929 . S
H1221 C1231 0.929 . S
H1222 C1226 0.929 . S
H1223 C1232 0.929 . S
C1224 H1218 0.930 . S
C1224 C1225 1.367 . S
C1224 C1232 1.378 . S
C1225 C1224 1.367 . S
C1225 C1233 1.433 . S
C1226 H1222 0.929 . S
C1226 C1228 1.378 . S
C1226 C1230 1.350 . S
C1227 C1230 1.463 . S
C1227 C1232 1.350 . S
C1227 N1235 1.427 . S
C1228 H1219 0.930 . S
C1228 C1226 1.378 . S
C1228 C1229 1.367 . S
C1229 C1228 1.367 . S
C1229 C1231 1.433 . S
C1230 C1226 1.350 . S
C1230 C1227 1.463 . S
C1230 N1234 1.427 . S
C1231 H1221 0.929 . S
C1231 C1229 1.433 . S
C1231 N1234 1.384 . S
C1232 H1223 0.929 . S
C1232 C1224 1.378 . S
C1232 C1227 1.350 . S
C1233 H1220 0.929 . S
C1233 C1225 1.433 . S
C1233 N1235 1.384 . S
N1234 C1230 1.427 . S
N1234 C1231 1.384 . S
N1235 C1227 1.427 . S
N1235 C1233 1.384 . S
H1236 C1242 0.930 . S
H1237 C1246 0.930 . S
H1238 C1251 0.929 . S
H1239 C1249 0.929 . S
H1240 C1244 0.929 . S
H1241 C1250 0.929 . S
C1242 H1236 0.930 . S
C1242 C1243 1.367 . S
C1242 C1250 1.378 . S
C1243 C1242 1.367 . S
C1243 C1251 1.433 . S
C1244 H1240 0.929 . S
C1244 C1246 1.378 . S
C1244 C1248 1.350 . S
C1245 C1248 1.463 . S
C1245 C1250 1.350 . S
C1245 N1253 1.427 . S
C1246 H1237 0.930 . S
C1246 C1244 1.378 . S
C1246 C1247 1.367 . S
C1247 C1246 1.367 . S
C1247 C1249 1.433 . S
C1248 C1244 1.350 . S
C1248 C1245 1.463 . S
C1248 N1252 1.427 . S
C1249 H1239 0.929 . S
C1249 C1247 1.433 . S
C1249 N1252 1.384 . S
C1250 H1241 0.929 . S
C1250 C1242 1.378 . S
C1250 C1245 1.350 . S
C1251 H1238 0.929 . S
C1251 C1243 1.433 . S
C1251 N1253 1.384 . S
N1252 C1248 1.427 . S
N1252 C1249 1.384 . S
N1253 C1245 1.427 . S
N1253 C1251 1.384 . S
H1254 C1260 0.930 . S
H1255 C1264 0.930 . S
H1256 C1269 0.929 . S
H1257 C1267 0.929 . S
H1258 C1262 0.929 . S
H1259 C1268 0.929 . S
C1260 H1254 0.930 . S
C1260 C1261 1.367 . S
C1260 C1268 1.378 . S
C1261 C1260 1.367 . S
C1261 C1269 1.433 . S
C1262 H1258 0.929 . S
C1262 C1264 1.378 . S
C1262 C1266 1.350 . S
C1263 C1266 1.463 . S
C1263 C1268 1.350 . S
C1263 N1271 1.427 . S
C1264 H1255 0.930 . S
C1264 C1262 1.378 . S
C1264 C1265 1.367 . S
C1265 C1264 1.367 . S
C1265 C1267 1.433 . S
C1266 C1262 1.350 . S
C1266 C1263 1.463 . S
C1266 N1270 1.427 . S
C1267 H1257 0.929 . S
C1267 C1265 1.433 . S
C1267 N1270 1.384 . S
C1268 H1259 0.929 . S
C1268 C1260 1.378 . S
C1268 C1263 1.350 . S
C1269 H1256 0.929 . S
C1269 C1261 1.433 . S
C1269 N1271 1.384 . S
N1270 C1266 1.427 . S
N1270 C1267 1.384 . S
N1271 C1263 1.427 . S
N1271 C1269 1.384 . S
H1272 C1278 0.930 . S
H1273 C1282 0.930 . S
H1274 C1287 0.929 . S
H1275 C1285 0.929 . S
H1276 C1280 0.929 . S
H1277 C1286 0.929 . S
C1278 H1272 0.930 . S
C1278 C1279 1.367 . S
C1278 C1286 1.378 . S
C1279 C1278 1.367 . S
C1279 C1287 1.433 . S
C1280 H1276 0.929 . S
C1280 C1282 1.378 . S
C1280 C1284 1.350 . S
C1281 C1284 1.463 . S
C1281 C1286 1.350 . S
C1281 N1289 1.427 . S
C1282 H1273 0.930 . S
C1282 C1280 1.378 . S
C1282 C1283 1.367 . S
C1283 C1282 1.367 . S
C1283 C1285 1.433 . S
C1284 C1280 1.350 . S
C1284 C1281 1.463 . S
C1284 N1288 1.427 . S
C1285 H1275 0.929 . S
C1285 C1283 1.433 . S
C1285 N1288 1.384 . S
C1286 H1277 0.929 . S
C1286 C1278 1.378 . S
C1286 C1281 1.350 . S
C1287 H1274 0.929 . S
C1287 C1279 1.433 . S
C1287 N1289 1.384 . S
N1288 C1284 1.427 . S
N1288 C1285 1.384 . S
N1289 C1281 1.427 . S
N1289 C1287 1.384 . S
H1290 C1296 0.930 . S
H1291 C1300 0.930 . S
H1292 C1305 0.929 . S
H1293 C1303 0.929 . S
H1294 C1298 0.929 . S
H1295 C1304 0.929 . S
C1296 H1290 0.930 . S
C1296 C1297 1.367 . S
C1296 C1304 1.378 . S
C1297 C1296 1.367 . S
C1297 C1305 1.433 . S
C1298 H1294 0.929 . S
C1298 C1300 1.378 . S
C1298 C1302 1.350 . S
C1299 C1302 1.463 . S
C1299 C1304 1.350 . S
C1299 N1307 1.427 . S
C1300 H1291 0.930 . S
C1300 C1298 1.378 . S
C1300 C1301 1.367 . S
C1301 C1300 1.367 . S
C1301 C1303 1.433 . S
C1302 C1298 1.350 . S
C1302 C1299 1.463 . S
C1302 N1306 1.427 . S
C1303 H1293 0.929 . S
C1303 C1301 1.433 . S
C1303 N1306 1.384 . S
C1304 H1295 0.929 . S
C1304 C1296 1.378 . S
C1304 C1299 1.350 . S
C1305 H1292 0.929 . S
C1305 C1297 1.433 . S
C1305 N1307 1.384 . S
N1306 C1302 1.427 . S
N1306 C1303 1.384 . S
N1307 C1299 1.427 . S
N1307 C1305 1.384 . S
H1308 C1314 0.930 . S
H1309 C1318 0.930 . S
H1310 C1323 0.929 . S
H1311 C1321 0.929 . S
H1312 C1316 0.929 . S
H1313 C1322 0.929 . S
C1314 H1308 0.930 . S
C1314 C1315 1.367 . S
C1314 C1322 1.378 . S
C1315 C1314 1.367 . S
C1315 C1323 1.433 . S
C1316 H1312 0.929 . S
C1316 C1318 1.378 . S
C1316 C1320 1.350 . S
C1317 C1320 1.463 . S
C1317 C1322 1.350 . S
C1317 N1325 1.427 . S
C1318 H1309 0.930 . S
C1318 C1316 1.378 . S
C1318 C1319 1.367 . S
C1319 C1318 1.367 . S
C1319 C1321 1.433 . S
C1320 C1316 1.350 . S
C1320 C1317 1.463 . S
C1320 N1324 1.427 . S
C1321 H1311 0.929 . S
C1321 C1319 1.433 . S
C1321 N1324 1.384 . S
C1322 H1313 0.929 . S
C1322 C1314 1.378 . S
C1322 C1317 1.350 . S
C1323 H1310 0.929 . S
C1323 C1315 1.433 . S
C1323 N1325 1.384 . S
N1324 C1320 1.427 . S
N1324 C1321 1.384 . S
N1325 C1317 1.427 . S
N1325 C1323 1.384 . S
H1326 C1332 0.930 . S
H1327 C1336 0.930 . S
H1328 C1341 0.929 . S
H1329 C1339 0.929 . S
H1330 C1334 0.929 . S
H1331 C1340 0.929 . S
C1332 H1326 0.930 . S
C1332 C1333 1.367 . S
C1332 C1340 1.378 . S
C1333 C1332 1.367 . S
C1333 C1341 1.433 . S
C1334 H1330 0.929 . S
C1334 C1336 1.378 . S
C1334 C1338 1.350 . S
C1335 C1338 1.463 . S
C1335 C1340 1.350 . S
C1335 N1343 1.427 . S
C1336 H1327 0.930 . S
C1336 C1334 1.378 . S
C1336 C1337 1.367 . S
C1337 C1336 1.367 . S
C1337 C1339 1.433 . S
C1338 C1334 1.350 . S
C1338 C1335 1.463 . S
C1338 N1342 1.427 . S
C1339 H1329 0.929 . S
C1339 C1337 1.433 . S
C1339 N1342 1.384 . S
C1340 H1331 0.929 . S
C1340 C1332 1.378 . S
C1340 C1335 1.350 . S
C1341 H1328 0.929 . S
C1341 C1333 1.433 . S
C1341 N1343 1.384 . S
N1342 C1338 1.427 . S
N1342 C1339 1.384 . S
N1343 C1335 1.427 . S
N1343 C1341 1.384 . S
H1344 C1350 0.930 . S
H1345 C1354 0.930 . S
H1346 C1359 0.929 . S
H1347 C1357 0.929 . S
H1348 C1352 0.929 . S
H1349 C1358 0.929 . S
C1350 H1344 0.930 . S
C1350 C1351 1.367 . S
C1350 C1358 1.378 . S
C1351 C1350 1.367 . S
C1351 C1359 1.433 . S
C1352 H1348 0.929 . S
C1352 C1354 1.378 . S
C1352 C1356 1.350 . S
C1353 C1356 1.463 . S
C1353 C1358 1.350 . S
C1353 N1361 1.427 . S
C1354 H1345 0.930 . S
C1354 C1352 1.378 . S
C1354 C1355 1.367 . S
C1355 C1354 1.367 . S
C1355 C1357 1.433 . S
C1356 C1352 1.350 . S
C1356 C1353 1.463 . S
C1356 N1360 1.427 . S
C1357 H1347 0.929 . S
C1357 C1355 1.433 . S
C1357 N1360 1.384 . S
C1358 H1349 0.929 . S
C1358 C1350 1.378 . S
C1358 C1353 1.350 . S
C1359 H1346 0.929 . S
C1359 C1351 1.433 . S
C1359 N1361 1.384 . S
N1360 C1356 1.427 . S
N1360 C1357 1.384 . S
N1361 C1353 1.427 . S
N1361 C1359 1.384 . S
H1362 C1368 0.930 . S
H1363 C1372 0.930 . S
H1364 C1377 0.929 . S
H1365 C1375 0.929 . S
H1366 C1370 0.929 . S
H1367 C1376 0.929 . S
C1368 H1362 0.930 . S
C1368 C1369 1.367 . S
C1368 C1376 1.378 . S
C1369 C1368 1.367 . S
C1369 C1377 1.433 . S
C1370 H1366 0.929 . S
C1370 C1372 1.378 . S
C1370 C1374 1.350 . S
C1371 C1374 1.463 . S
C1371 C1376 1.350 . S
C1371 N1379 1.427 . S
C1372 H1363 0.930 . S
C1372 C1370 1.378 . S
C1372 C1373 1.367 . S
C1373 C1372 1.367 . S
C1373 C1375 1.433 . S
C1374 C1370 1.350 . S
C1374 C1371 1.463 . S
C1374 N1378 1.427 . S
C1375 H1365 0.929 . S
C1375 C1373 1.433 . S
C1375 N1378 1.384 . S
C1376 H1367 0.929 . S
C1376 C1368 1.378 . S
C1376 C1371 1.350 . S
C1377 H1364 0.929 . S
C1377 C1369 1.433 . S
C1377 N1379 1.384 . S
N1378 C1374 1.427 . S
N1378 C1375 1.384 . S
N1379 C1371 1.427 . S
N1379 C1377 1.384 . S
H1380 C1386 0.930 . S
H1381 C1390 0.930 . S
H1382 C1395 0.929 . S
H1383 C1393 0.929 . S
H1384 C1388 0.929 . S
H1385 C1394 0.929 . S
C1386 H1380 0.930 . S
C1386 C1387 1.367 . S
C1386 C1394 1.378 . S
C1387 C1386 1.367 . S
C1387 C1395 1.433 . S
C1388 H1384 0.929 . S
C1388 C1390 1.378 . S
C1388 C1392 1.350 . S
C1389 C1392 1.463 . S
C1389 C1394 1.350 . S
C1389 N1397 1.427 . S
C1390 H1381 0.930 . S
C1390 C1388 1.378 . S
C1390 C1391 1.367 . S
C1391 C1390 1.367 . S
C1391 C1393 1.433 . S
C1392 C1388 1.350 . S
C1392 C1389 1.463 . S
C1392 N1396 1.427 . S
C1393 H1383 0.929 . S
C1393 C1391 1.433 . S
C1393 N1396 1.384 . S
C1394 H1385 0.929 . S
C1394 C1386 1.378 . S
C1394 C1389 1.350 . S
C1395 H1382 0.929 . S
C1395 C1387 1.433 . S
C1395 N1397 1.384 . S
N1396 C1392 1.427 . S
N1396 C1393 1.384 . S
N1397 C1389 1.427 . S
N1397 C1395 1.384 . S
H1398 C1404 0.930 . S
H1399 C1408 0.930 . S
H1400 C1413 0.929 . S
H1401 C1411 0.929 . S
H1402 C1406 0.929 . S
H1403 C1412 0.929 . S
C1404 H1398 0.930 . S
C1404 C1405 1.367 . S
C1404 C1412 1.378 . S
C1405 C1404 1.367 . S
C1405 C1413 1.433 . S
C1406 H1402 0.929 . S
C1406 C1408 1.378 . S
C1406 C1410 1.350 . S
C1407 C1410 1.463 . S
C1407 C1412 1.350 . S
C1407 N1415 1.427 . S
C1408 H1399 0.930 . S
C1408 C1406 1.378 . S
C1408 C1409 1.367 . S
C1409 C1408 1.367 . S
C1409 C1411 1.433 . S
C1410 C1406 1.350 . S
C1410 C1407 1.463 . S
C1410 N1414 1.427 . S
C1411 H1401 0.929 . S
C1411 C1409 1.433 . S
C1411 N1414 1.384 . S
C1412 H1403 0.929 . S
C1412 C1404 1.378 . S
C1412 C1407 1.350 . S
C1413 H1400 0.929 . S
C1413 C1405 1.433 . S
C1413 N1415 1.384 . S
N1414 C1410 1.427 . S
N1414 C1411 1.384 . S
N1415 C1407 1.427 . S
N1415 C1413 1.384 . S
H1416 C1422 0.930 . S
H1417 C1426 0.930 . S
H1418 C1431 0.929 . S
H1419 C1429 0.929 . S
H1420 C1424 0.929 . S
H1421 C1430 0.929 . S
C1422 H1416 0.930 . S
C1422 C1423 1.367 . S
C1422 C1430 1.378 . S
C1423 C1422 1.367 . S
C1423 C1431 1.433 . S
C1424 H1420 0.929 . S
C1424 C1426 1.378 . S
C1424 C1428 1.350 . S
C1425 C1428 1.463 . S
C1425 C1430 1.350 . S
C1425 N1433 1.427 . S
C1426 H1417 0.930 . S
C1426 C1424 1.378 . S
C1426 C1427 1.367 . S
C1427 C1426 1.367 . S
C1427 C1429 1.433 . S
C1428 C1424 1.350 . S
C1428 C1425 1.463 . S
C1428 N1432 1.427 . S
C1429 H1419 0.929 . S
C1429 C1427 1.433 . S
C1429 N1432 1.384 . S
C1430 H1421 0.929 . S
C1430 C1422 1.378 . S
C1430 C1425 1.350 . S
C1431 H1418 0.929 . S
C1431 C1423 1.433 . S
C1431 N1433 1.384 . S
N1432 C1428 1.427 . S
N1432 C1429 1.384 . S
N1433 C1425 1.427 . S
N1433 C1431 1.384 . S
H1434 C1440 0.930 . S
H1435 C1444 0.930 . S
H1436 C1449 0.929 . S
H1437 C1447 0.929 . S
H1438 C1442 0.929 . S
H1439 C1448 0.929 . S
C1440 H1434 0.930 . S
C1440 C1441 1.367 . S
C1440 C1448 1.378 . S
C1441 C1440 1.367 . S
C1441 C1449 1.433 . S
C1442 H1438 0.929 . S
C1442 C1444 1.378 . S
C1442 C1446 1.350 . S
C1443 C1446 1.463 . S
C1443 C1448 1.350 . S
C1443 N1451 1.427 . S
C1444 H1435 0.930 . S
C1444 C1442 1.378 . S
C1444 C1445 1.367 . S
C1445 C1444 1.367 . S
C1445 C1447 1.433 . S
C1446 C1442 1.350 . S
C1446 C1443 1.463 . S
C1446 N1450 1.427 . S
C1447 H1437 0.929 . S
C1447 C1445 1.433 . S
C1447 N1450 1.384 . S
C1448 H1439 0.929 . S
C1448 C1440 1.378 . S
C1448 C1443 1.350 . S
C1449 H1436 0.929 . S
C1449 C1441 1.433 . S
C1449 N1451 1.384 . S
N1450 C1446 1.427 . S
N1450 C1447 1.384 . S
N1451 C1443 1.427 . S
N1451 C1449 1.384 . S
H1452 C1458 0.930 . S
H1453 C1462 0.930 . S
H1454 C1467 0.929 . S
H1455 C1465 0.929 . S
H1456 C1460 0.929 . S
H1457 C1466 0.929 . S
C1458 H1452 0.930 . S
C1458 C1459 1.367 . S
C1458 C1466 1.378 . S
C1459 C1458 1.367 . S
C1459 C1467 1.433 . S
C1460 H1456 0.929 . S
C1460 C1462 1.378 . S
C1460 C1464 1.350 . S
C1461 C1464 1.463 . S
C1461 C1466 1.350 . S
C1461 N1469 1.427 . S
C1462 H1453 0.930 . S
C1462 C1460 1.378 . S
C1462 C1463 1.367 . S
C1463 C1462 1.367 . S
C1463 C1465 1.433 . S
C1464 C1460 1.350 . S
C1464 C1461 1.463 . S
C1464 N1468 1.427 . S
C1465 H1455 0.929 . S
C1465 C1463 1.433 . S
C1465 N1468 1.384 . S
C1466 H1457 0.929 . S
C1466 C1458 1.378 . S
C1466 C1461 1.350 . S
C1467 H1454 0.929 . S
C1467 C1459 1.433 . S
C1467 N1469 1.384 . S
N1468 C1464 1.427 . S
N1468 C1465 1.384 . S
N1469 C1461 1.427 . S
N1469 C1467 1.384 . S
H1470 C1476 0.930 . S
H1471 C1480 0.930 . S
H1472 C1485 0.929 . S
H1473 C1483 0.929 . S
H1474 C1478 0.929 . S
H1475 C1484 0.929 . S
C1476 H1470 0.930 . S
C1476 C1477 1.367 . S
C1476 C1484 1.378 . S
C1477 C1476 1.367 . S
C1477 C1485 1.433 . S
C1478 H1474 0.929 . S
C1478 C1480 1.378 . S
C1478 C1482 1.350 . S
C1479 C1482 1.463 . S
C1479 C1484 1.350 . S
C1479 N1487 1.427 . S
C1480 H1471 0.930 . S
C1480 C1478 1.378 . S
C1480 C1481 1.367 . S
C1481 C1480 1.367 . S
C1481 C1483 1.433 . S
C1482 C1478 1.350 . S
C1482 C1479 1.463 . S
C1482 N1486 1.427 . S
C1483 H1473 0.929 . S
C1483 C1481 1.433 . S
C1483 N1486 1.384 . S
C1484 H1475 0.929 . S
C1484 C1476 1.378 . S
C1484 C1479 1.350 . S
C1485 H1472 0.929 . S
C1485 C1477 1.433 . S
C1485 N1487 1.384 . S
N1486 C1482 1.427 . S
N1486 C1483 1.384 . S
N1487 C1479 1.427 . S
N1487 C1485 1.384 . S
H1488 C1494 0.930 . S
H1489 C1498 0.930 . S
H1490 C1503 0.929 . S
H1491 C1501 0.929 . S
H1492 C1496 0.929 . S
H1493 C1502 0.929 . S
C1494 H1488 0.930 . S
C1494 C1495 1.367 . S
C1494 C1502 1.378 . S
C1495 C1494 1.367 . S
C1495 C1503 1.433 . S
C1496 H1492 0.929 . S
C1496 C1498 1.378 . S
C1496 C1500 1.350 . S
C1497 C1500 1.463 . S
C1497 C1502 1.350 . S
C1497 N1505 1.427 . S
C1498 H1489 0.930 . S
C1498 C1496 1.378 . S
C1498 C1499 1.367 . S
C1499 C1498 1.367 . S
C1499 C1501 1.433 . S
C1500 C1496 1.350 . S
C1500 C1497 1.463 . S
C1500 N1504 1.427 . S
C1501 H1491 0.929 . S
C1501 C1499 1.433 . S
C1501 N1504 1.384 . S
C1502 H1493 0.929 . S
C1502 C1494 1.378 . S
C1502 C1497 1.350 . S
C1503 H1490 0.929 . S
C1503 C1495 1.433 . S
C1503 N1505 1.384 . S
N1504 C1500 1.427 . S
N1504 C1501 1.384 . S
N1505 C1497 1.427 . S
N1505 C1503 1.384 . S
H1506 C1512 0.930 . S
H1507 C1516 0.930 . S
H1508 C1521 0.929 . S
H1509 C1519 0.929 . S
H1510 C1514 0.929 . S
H1511 C1520 0.929 . S
C1512 H1506 0.930 . S
C1512 C1513 1.367 . S
C1512 C1520 1.378 . S
C1513 C1512 1.367 . S
C1513 C1521 1.433 . S
C1514 H1510 0.929 . S
C1514 C1516 1.378 . S
C1514 C1518 1.350 . S
C1515 C1518 1.463 . S
C1515 C1520 1.350 . S
C1515 N1523 1.427 . S
C1516 H1507 0.930 . S
C1516 C1514 1.378 . S
C1516 C1517 1.367 . S
C1517 C1516 1.367 . S
C1517 C1519 1.433 . S
C1518 C1514 1.350 . S
C1518 C1515 1.463 . S
C1518 N1522 1.427 . S
C1519 H1509 0.929 . S
C1519 C1517 1.433 . S
C1519 N1522 1.384 . S
C1520 H1511 0.929 . S
C1520 C1512 1.378 . S
C1520 C1515 1.350 . S
C1521 H1508 0.929 . S
C1521 C1513 1.433 . S
C1521 N1523 1.384 . S
N1522 C1518 1.427 . S
N1522 C1519 1.384 . S
N1523 C1515 1.427 . S
N1523 C1521 1.384 . S
H1524 C1530 0.930 . S
H1525 C1534 0.930 . S
H1526 C1539 0.929 . S
H1527 C1537 0.929 . S
H1528 C1532 0.929 . S
H1529 C1538 0.929 . S
C1530 H1524 0.930 . S
C1530 C1531 1.367 . S
C1530 C1538 1.378 . S
C1531 C1530 1.367 . S
C1531 C1539 1.433 . S
C1532 H1528 0.929 . S
C1532 C1534 1.378 . S
C1532 C1536 1.350 . S
C1533 C1536 1.463 . S
C1533 C1538 1.350 . S
C1533 N1541 1.427 . S
C1534 H1525 0.930 . S
C1534 C1532 1.378 . S
C1534 C1535 1.367 . S
C1535 C1534 1.367 . S
C1535 C1537 1.433 . S
C1536 C1532 1.350 . S
C1536 C1533 1.463 . S
C1536 N1540 1.427 . S
C1537 H1527 0.929 . S
C1537 C1535 1.433 . S
C1537 N1540 1.384 . S
C1538 H1529 0.929 . S
C1538 C1530 1.378 . S
C1538 C1533 1.350 . S
C1539 H1526 0.929 . S
C1539 C1531 1.433 . S
C1539 N1541 1.384 . S
N1540 C1536 1.427 . S
N1540 C1537 1.384 . S
N1541 C1533 1.427 . S
N1541 C1539 1.384 . S
H1542 C1548 0.930 . S
H1543 C1552 0.930 . S
H1544 C1557 0.929 . S
H1545 C1555 0.929 . S
H1546 C1550 0.929 . S
H1547 C1556 0.929 . S
C1548 H1542 0.930 . S
C1548 C1549 1.367 . S
C1548 C1556 1.378 . S
C1549 C1548 1.367 . S
C1549 C1557 1.433 . S
C1550 H1546 0.929 . S
C1550 C1552 1.378 . S
C1550 C1554 1.350 . S
C1551 C1554 1.463 . S
C1551 C1556 1.350 . S
C1551 N1559 1.427 . S
C1552 H1543 0.930 . S
C1552 C1550 1.378 . S
C1552 C1553 1.367 . S
C1553 C1552 1.367 . S
C1553 C1555 1.433 . S
C1554 C1550 1.350 . S
C1554 C1551 1.463 . S
C1554 N1558 1.427 . S
C1555 H1545 0.929 . S
C1555 C1553 1.433 . S
C1555 N1558 1.384 . S
C1556 H1547 0.929 . S
C1556 C1548 1.378 . S
C1556 C1551 1.350 . S
C1557 H1544 0.929 . S
C1557 C1549 1.433 . S
C1557 N1559 1.384 . S
N1558 C1554 1.427 . S
N1558 C1555 1.384 . S
N1559 C1551 1.427 . S
N1559 C1557 1.384 . S
H1560 C1566 0.930 . S
H1561 C1570 0.930 . S
H1562 C1575 0.929 . S
H1563 C1573 0.929 . S
H1564 C1568 0.929 . S
H1565 C1574 0.929 . S
C1566 H1560 0.930 . S
C1566 C1567 1.367 . S
C1566 C1574 1.378 . S
C1567 C1566 1.367 . S
C1567 C1575 1.433 . S
C1568 H1564 0.929 . S
C1568 C1570 1.378 . S
C1568 C1572 1.350 . S
C1569 C1572 1.463 . S
C1569 C1574 1.350 . S
C1569 N1577 1.427 . S
C1570 H1561 0.930 . S
C1570 C1568 1.378 . S
C1570 C1571 1.367 . S
C1571 C1570 1.367 . S
C1571 C1573 1.433 . S
C1572 C1568 1.350 . S
C1572 C1569 1.463 . S
C1572 N1576 1.427 . S
C1573 H1563 0.929 . S
C1573 C1571 1.433 . S
C1573 N1576 1.384 . S
C1574 H1565 0.929 . S
C1574 C1566 1.378 . S
C1574 C1569 1.350 . S
C1575 H1562 0.929 . S
C1575 C1567 1.433 . S
C1575 N1577 1.384 . S
N1576 C1572 1.427 . S
N1576 C1573 1.384 . S
N1577 C1569 1.427 . S
N1577 C1575 1.384 . S
H1578 C1584 0.930 . S
H1579 C1588 0.930 . S
H1580 C1593 0.929 . S
H1581 C1591 0.929 . S
H1582 C1586 0.929 . S
H1583 C1592 0.929 . S
C1584 H1578 0.930 . S
C1584 C1585 1.367 . S
C1584 C1592 1.378 . S
C1585 C1584 1.367 . S
C1585 C1593 1.433 . S
C1586 H1582 0.929 . S
C1586 C1588 1.378 . S
C1586 C1590 1.350 . S
C1587 C1590 1.463 . S
C1587 C1592 1.350 . S
C1587 N1595 1.427 . S
C1588 H1579 0.930 . S
C1588 C1586 1.378 . S
C1588 C1589 1.367 . S
C1589 C1588 1.367 . S
C1589 C1591 1.433 . S
C1590 C1586 1.350 . S
C1590 C1587 1.463 . S
C1590 N1594 1.427 . S
C1591 H1581 0.929 . S
C1591 C1589 1.433 . S
C1591 N1594 1.384 . S
C1592 H1583 0.929 . S
C1592 C1584 1.378 . S
C1592 C1587 1.350 . S
C1593 H1580 0.929 . S
C1593 C1585 1.433 . S
C1593 N1595 1.384 . S
N1594 C1590 1.427 . S
N1594 C1591 1.384 . S
N1595 C1587 1.427 . S
N1595 C1593 1.384 . S
H1596 C1602 0.930 . S
H1597 C1606 0.930 . S
H1598 C1611 0.929 . S
H1599 C1609 0.929 . S
H1600 C1604 0.929 . S
H1601 C1610 0.929 . S
C1602 H1596 0.930 . S
C1602 C1603 1.367 . S
C1602 C1610 1.378 . S
C1603 C1602 1.367 . S
C1603 C1611 1.433 . S
C1604 H1600 0.929 . S
C1604 C1606 1.378 . S
C1604 C1608 1.350 . S
C1605 C1608 1.463 . S
C1605 C1610 1.350 . S
C1605 N1613 1.427 . S
C1606 H1597 0.930 . S
C1606 C1604 1.378 . S
C1606 C1607 1.367 . S
C1607 C1606 1.367 . S
C1607 C1609 1.433 . S
C1608 C1604 1.350 . S
C1608 C1605 1.463 . S
C1608 N1612 1.427 . S
C1609 H1599 0.929 . S
C1609 C1607 1.433 . S
C1609 N1612 1.384 . S
C1610 H1601 0.929 . S
C1610 C1602 1.378 . S
C1610 C1605 1.350 . S
C1611 H1598 0.929 . S
C1611 C1603 1.433 . S
C1611 N1613 1.384 . S
N1612 C1608 1.427 . S
N1612 C1609 1.384 . S
N1613 C1605 1.427 . S
N1613 C1611 1.384 . S
H1614 C1620 0.930 . S
H1615 C1624 0.930 . S
H1616 C1629 0.929 . S
H1617 C1627 0.929 . S
H1618 C1622 0.929 . S
H1619 C1628 0.929 . S
C1620 H1614 0.930 . S
C1620 C1621 1.367 . S
C1620 C1628 1.378 . S
C1621 C1620 1.367 . S
C1621 C1629 1.433 . S
C1622 H1618 0.929 . S
C1622 C1624 1.378 . S
C1622 C1626 1.350 . S
C1623 C1626 1.463 . S
C1623 C1628 1.350 . S
C1623 N1631 1.427 . S
C1624 H1615 0.930 . S
C1624 C1622 1.378 . S
C1624 C1625 1.367 . S
C1625 C1624 1.367 . S
C1625 C1627 1.433 . S
C1626 C1622 1.350 . S
C1626 C1623 1.463 . S
C1626 N1630 1.427 . S
C1627 H1617 0.929 . S
C1627 C1625 1.433 . S
C1627 N1630 1.384 . S
C1628 H1619 0.929 . S
C1628 C1620 1.378 . S
C1628 C1623 1.350 . S
C1629 H1616 0.929 . S
C1629 C1621 1.433 . S
C1629 N1631 1.384 . S
N1630 C1626 1.427 . S
N1630 C1627 1.384 . S
N1631 C1623 1.427 . S
N1631 C1629 1.384 . S
H1632 C1638 0.930 . S
H1633 C1642 0.930 . S
H1634 C1647 0.929 . S
H1635 C1645 0.929 . S
H1636 C1640 0.929 . S
H1637 C1646 0.929 . S
C1638 H1632 0.930 . S
C1638 C1639 1.367 . S
C1638 C1646 1.378 . S
C1639 C1638 1.367 . S
C1639 C1647 1.433 . S
C1640 H1636 0.929 . S
C1640 C1642 1.378 . S
C1640 C1644 1.350 . S
C1641 C1644 1.463 . S
C1641 C1646 1.350 . S
C1641 N1649 1.427 . S
C1642 H1633 0.930 . S
C1642 C1640 1.378 . S
C1642 C1643 1.367 . S
C1643 C1642 1.367 . S
C1643 C1645 1.433 . S
C1644 C1640 1.350 . S
C1644 C1641 1.463 . S
C1644 N1648 1.427 . S
C1645 H1635 0.929 . S
C1645 C1643 1.433 . S
C1645 N1648 1.384 . S
C1646 H1637 0.929 . S
C1646 C1638 1.378 . S
C1646 C1641 1.350 . S
C1647 H1634 0.929 . S
C1647 C1639 1.433 . S
C1647 N1649 1.384 . S
N1648 C1644 1.427 . S
N1648 C1645 1.384 . S
N1649 C1641 1.427 . S
N1649 C1647 1.384 . S
H1650 C1656 0.930 . S
H1651 C1660 0.930 . S
H1652 C1665 0.929 . S
H1653 C1663 0.929 . S
H1654 C1658 0.929 . S
H1655 C1664 0.929 . S
C1656 H1650 0.930 . S
C1656 C1657 1.367 . S
C1656 C1664 1.378 . S
C1657 C1656 1.367 . S
C1657 C1665 1.433 . S
C1658 H1654 0.929 . S
C1658 C1660 1.378 . S
C1658 C1662 1.350 . S
C1659 C1662 1.463 . S
C1659 C1664 1.350 . S
C1659 N1667 1.427 . S
C1660 H1651 0.930 . S
C1660 C1658 1.378 . S
C1660 C1661 1.367 . S
C1661 C1660 1.367 . S
C1661 C1663 1.433 . S
C1662 C1658 1.350 . S
C1662 C1659 1.463 . S
C1662 N1666 1.427 . S
C1663 H1653 0.929 . S
C1663 C1661 1.433 . S
C1663 N1666 1.384 . S
C1664 H1655 0.929 . S
C1664 C1656 1.378 . S
C1664 C1659 1.350 . S
C1665 H1652 0.929 . S
C1665 C1657 1.433 . S
C1665 N1667 1.384 . S
N1666 C1662 1.427 . S
N1666 C1663 1.384 . S
N1667 C1659 1.427 . S
N1667 C1665 1.384 . S
H1668 C1674 0.930 . S
H1669 C1678 0.930 . S
H1670 C1683 0.929 . S
H1671 C1681 0.929 . S
H1672 C1676 0.929 . S
H1673 C1682 0.929 . S
C1674 H1668 0.930 . S
C1674 C1675 1.367 . S
C1674 C1682 1.378 . S
C1675 C1674 1.367 . S
C1675 C1683 1.433 . S
C1676 H1672 0.929 . S
C1676 C1678 1.378 . S
C1676 C1680 1.350 . S
C1677 C1680 1.463 . S
C1677 C1682 1.350 . S
C1677 N1685 1.427 . S
C1678 H1669 0.930 . S
C1678 C1676 1.378 . S
C1678 C1679 1.367 . S
C1679 C1678 1.367 . S
C1679 C1681 1.433 . S
C1680 C1676 1.350 . S
C1680 C1677 1.463 . S
C1680 N1684 1.427 . S
C1681 H1671 0.929 . S
C1681 C1679 1.433 . S
C1681 N1684 1.384 . S
C1682 H1673 0.929 . S
C1682 C1674 1.378 . S
C1682 C1677 1.350 . S
C1683 H1670 0.929 . S
C1683 C1675 1.433 . S
C1683 N1685 1.384 . S
N1684 C1680 1.427 . S
N1684 C1681 1.384 . S
N1685 C1677 1.427 . S
N1685 C1683 1.384 . S
H1686 C1692 0.930 . S
H1687 C1696 0.930 . S
H1688 C1701 0.929 . S
H1689 C1699 0.929 . S
H1690 C1694 0.929 . S
H1691 C1700 0.929 . S
C1692 H1686 0.930 . S
C1692 C1693 1.367 . S
C1692 C1700 1.378 . S
C1693 C1692 1.367 . S
C1693 C1701 1.433 . S
C1694 H1690 0.929 . S
C1694 C1696 1.378 . S
C1694 C1698 1.350 . S
C1695 C1698 1.463 . S
C1695 C1700 1.350 . S
C1695 N1703 1.427 . S
C1696 H1687 0.930 . S
C1696 C1694 1.378 . S
C1696 C1697 1.367 . S
C1697 C1696 1.367 . S
C1697 C1699 1.433 . S
C1698 C1694 1.350 . S
C1698 C1695 1.463 . S
C1698 N1702 1.427 . S
C1699 H1689 0.929 . S
C1699 C1697 1.433 . S
C1699 N1702 1.384 . S
C1700 H1691 0.929 . S
C1700 C1692 1.378 . S
C1700 C1695 1.350 . S
C1701 H1688 0.929 . S
C1701 C1693 1.433 . S
C1701 N1703 1.384 . S
N1702 C1698 1.427 . S
N1702 C1699 1.384 . S
N1703 C1695 1.427 . S
N1703 C1701 1.384 . S
H1704 C1710 0.930 . S
H1705 C1714 0.930 . S
H1706 C1719 0.929 . S
H1707 C1717 0.929 . S
H1708 C1712 0.929 . S
H1709 C1718 0.929 . S
C1710 H1704 0.930 . S
C1710 C1711 1.367 . S
C1710 C1718 1.378 . S
C1711 C1710 1.367 . S
C1711 C1719 1.433 . S
C1712 H1708 0.929 . S
C1712 C1714 1.378 . S
C1712 C1716 1.350 . S
C1713 C1716 1.463 . S
C1713 C1718 1.350 . S
C1713 N1721 1.427 . S
C1714 H1705 0.930 . S
C1714 C1712 1.378 . S
C1714 C1715 1.367 . S
C1715 C1714 1.367 . S
C1715 C1717 1.433 . S
C1716 C1712 1.350 . S
C1716 C1713 1.463 . S
C1716 N1720 1.427 . S
C1717 H1707 0.929 . S
C1717 C1715 1.433 . S
C1717 N1720 1.384 . S
C1718 H1709 0.929 . S
C1718 C1710 1.378 . S
C1718 C1713 1.350 . S
C1719 H1706 0.929 . S
C1719 C1711 1.433 . S
C1719 N1721 1.384 . S
N1720 C1716 1.427 . S
N1720 C1717 1.384 . S
N1721 C1713 1.427 . S
N1721 C1719 1.384 . S
C869 C683 1.653 . S
C865 C74 1.641 . S
C887 C673 1.394 . S
C883 C153 1.328 . S
C905 C674 1.254 . S
C901 C231 1.255 . S
C919 C310 0.797 . S
C923 C696 0.588 . S
C937 C394 1.313 . S
C941 C699 1.393 . S
C959 C682 1.251 . S
C955 C494 1.243 . S
C973 C573 0.763 . S
C977 C672 0.551 . S
C991 C651 1.651 . S
C995 C690 1.654 . S
C1013 C703 2.453 . S
C1009 C56 2.541 . S
C1027 C151 1.613 . S
C1031 C752 1.579 . S
C1049 C730 1.410 . S
C1045 C237 1.386 . S
C1067 C744 1.240 . S
C1063 C326 1.226 . S
C1081 C410 1.240 . S
C1085 C705 1.228 . S
C1103 C758 2.457 . S
C1099 C476 2.550 . S
C1117 C571 1.617 . S
C1121 C714 1.583 . S
C1135 C657 1.333 . S
C1139 C735 1.388 . S
C1153 C58 1.317 . S
C1157 C761 1.389 . S
C1171 C392 1.614 . S
C1175 C745 1.573 . S
C1193 C704 1.421 . S
C1189 C478 1.382 . S
C1211 C736 1.241 . S
C1207 C567 1.228 . S
C1225 C655 2.542 . S
C1229 C727 2.461 . S
C1243 C235 2.550 . S
C1247 C734 2.449 . S
C1265 C721 1.588 . S
C1261 C308 1.616 . S
C1279 C147 1.233 . S
C1283 C713 1.219 . S
C1297 C662 1.641 . S
C1301 C776 1.653 . S
C1315 C405 1.328 . S
C1319 C766 1.394 . S
C1337 C767 1.246 . S
C1333 C483 1.249 . S
C1355 C789 0.597 . S
C1351 C562 0.774 . S
C1369 C142 1.329 . S
C1373 C792 1.391 . S
C1391 C775 1.246 . S
C1387 C242 1.249 . S
C1405 C321 0.797 . S
C1409 C765 0.594 . S
C1423 C63 1.644 . S
C1427 C783 1.656 . S
C1441 C644 2.541 . S
C1445 C796 2.461 . S
C1463 C845 1.578 . S
C1459 C403 1.613 . S
C1477 C489 1.378 . S
C1481 C823 1.422 . S
C1495 C578 1.223 . S
C1499 C837 1.233 . S
C1517 C798 1.217 . S
C1513 C158 1.231 . S
C1531 C224 2.551 . S
C1535 C851 2.458 . S
C1553 C807 1.577 . S
C1549 C319 1.619 . S
C1571 C828 1.385 . S
C1567 C69 1.322 . S
C1589 C854 1.397 . S
C1585 C646 1.340 . S
C1603 C140 1.613 . S
C1607 C838 1.577 . S
C1621 C226 1.379 . S
C1625 C797 1.407 . S
C1643 C829 1.228 . S
C1639 C315 1.226 . S
C1657 C67 2.541 . S
C1661 C820 2.452 . S
C1675 C487 2.550 . S
C1679 C827 2.448 . S
C1697 C814 1.586 . S
C1693 C560 1.617 . S
C1715 C806 1.217 . S
C1711 C399 1.232 . S
