# Generated by pormake.
# Topology gar, (4,6)-cn, num edge types: 1
# Building blocks:
#     Node 0, Type 0, BuildingBlock: NAHDIM_clean_sbu_0, # of connection points: 4
#     Node 1, Type 0, BuildingBlock: NAHDIM_clean_sbu_0, # of connection points: 4
#     Node 2, Type 0, BuildingBlock: NAHDIM_clean_sbu_0, # of connection points: 4
#     Node 3, Type 0, BuildingBlock: NAHDIM_clean_sbu_0, # of connection points: 4
#     Node 4, Type 0, BuildingBlock: NAHDIM_clean_sbu_0, # of connection points: 4
#     Node 5, Type 0, BuildingBlock: NAHDIM_clean_sbu_0, # of connection points: 4
#     Node 6, Type 0, BuildingBlock: NAHDIM_clean_sbu_0, # of connection points: 4
#     Node 7, Type 0, BuildingBlock: NAHDIM_clean_sbu_0, # of connection points: 4
#     Node 8, Type 0, BuildingBlock: NAHDIM_clean_sbu_0, # of connection points: 4
#     Node 9, Type 0, BuildingBlock: NAHDIM_clean_sbu_0, # of connection points: 4
#     Node 10, Type 0, BuildingBlock: NAHDIM_clean_sbu_0, # of connection points: 4
#     Node 11, Type 0, BuildingBlock: NAHDIM_clean_sbu_0, # of connection points: 4
#     Node 12, Type 0, BuildingBlock: NAHDIM_clean_sbu_0, # of connection points: 4
#     Node 13, Type 0, BuildingBlock: NAHDIM_clean_sbu_0, # of connection points: 4
#     Node 14, Type 0, BuildingBlock: NAHDIM_clean_sbu_0, # of connection points: 4
#     Node 15, Type 0, BuildingBlock: NAHDIM_clean_sbu_0, # of connection points: 4
#     Node 16, Type 0, BuildingBlock: NAHDIM_clean_sbu_0, # of connection points: 4
#     Node 17, Type 0, BuildingBlock: NAHDIM_clean_sbu_0, # of connection points: 4
#     Node 18, Type 0, BuildingBlock: NAHDIM_clean_sbu_0, # of connection points: 4
#     Node 19, Type 0, BuildingBlock: NAHDIM_clean_sbu_0, # of connection points: 4
#     Node 20, Type 0, BuildingBlock: NAHDIM_clean_sbu_0, # of connection points: 4
#     Node 21, Type 0, BuildingBlock: NAHDIM_clean_sbu_0, # of connection points: 4
#     Node 22, Type 0, BuildingBlock: NAHDIM_clean_sbu_0, # of connection points: 4
#     Node 23, Type 0, BuildingBlock: NAHDIM_clean_sbu_0, # of connection points: 4
#     Node 24, Type 1, BuildingBlock: BETDEL_clean_sbu_0, # of connection points: 6
#     Node 25, Type 1, BuildingBlock: BETDEL_clean_sbu_0, # of connection points: 6
#     Node 26, Type 1, BuildingBlock: BETDEL_clean_sbu_0, # of connection points: 6
#     Node 27, Type 1, BuildingBlock: BETDEL_clean_sbu_0, # of connection points: 6
#     Node 28, Type 1, BuildingBlock: BETDEL_clean_sbu_0, # of connection points: 6
#     Node 29, Type 1, BuildingBlock: BETDEL_clean_sbu_0, # of connection points: 6
#     Node 30, Type 1, BuildingBlock: BETDEL_clean_sbu_0, # of connection points: 6
#     Node 31, Type 1, BuildingBlock: BETDEL_clean_sbu_0, # of connection points: 6
#     Node 32, Type 1, BuildingBlock: BETDEL_clean_sbu_0, # of connection points: 6
#     Node 33, Type 1, BuildingBlock: BETDEL_clean_sbu_0, # of connection points: 6
#     Node 34, Type 1, BuildingBlock: BETDEL_clean_sbu_0, # of connection points: 6
#     Node 35, Type 1, BuildingBlock: BETDEL_clean_sbu_0, # of connection points: 6
#     Node 36, Type 1, BuildingBlock: BETDEL_clean_sbu_0, # of connection points: 6
#     Node 37, Type 1, BuildingBlock: BETDEL_clean_sbu_0, # of connection points: 6
#     Node 38, Type 1, BuildingBlock: BETDEL_clean_sbu_0, # of connection points: 6
#     Node 39, Type 1, BuildingBlock: BETDEL_clean_sbu_0, # of connection points: 6
#     Edge 40, Type (0, 1), BuildingBlock: XIVTED_clean_linker_0, # of connection points: 2
#     Edge 41, Type (0, 1), BuildingBlock: XIVTED_clean_linker_0, # of connection points: 2
#     Edge 42, Type (0, 1), BuildingBlock: XIVTED_clean_linker_0, # of connection points: 2
#     Edge 43, Type (0, 1), BuildingBlock: XIVTED_clean_linker_0, # of connection points: 2
#     Edge 44, Type (0, 1), BuildingBlock: XIVTED_clean_linker_0, # of connection points: 2
#     Edge 45, Type (0, 1), BuildingBlock: XIVTED_clean_linker_0, # of connection points: 2
#     Edge 46, Type (0, 1), BuildingBlock: XIVTED_clean_linker_0, # of connection points: 2
#     Edge 47, Type (0, 1), BuildingBlock: XIVTED_clean_linker_0, # of connection points: 2
#     Edge 48, Type (0, 1), BuildingBlock: XIVTED_clean_linker_0, # of connection points: 2
#     Edge 49, Type (0, 1), BuildingBlock: XIVTED_clean_linker_0, # of connection points: 2
#     Edge 50, Type (0, 1), BuildingBlock: XIVTED_clean_linker_0, # of connection points: 2
#     Edge 51, Type (0, 1), BuildingBlock: XIVTED_clean_linker_0, # of connection points: 2
#     Edge 52, Type (0, 1), BuildingBlock: XIVTED_clean_linker_0, # of connection points: 2
#     Edge 53, Type (0, 1), BuildingBlock: XIVTED_clean_linker_0, # of connection points: 2
#     Edge 54, Type (0, 1), BuildingBlock: XIVTED_clean_linker_0, # of connection points: 2
#     Edge 55, Type (0, 1), BuildingBlock: XIVTED_clean_linker_0, # of connection points: 2
#     Edge 56, Type (0, 1), BuildingBlock: XIVTED_clean_linker_0, # of connection points: 2
#     Edge 57, Type (0, 1), BuildingBlock: XIVTED_clean_linker_0, # of connection points: 2
#     Edge 58, Type (0, 1), BuildingBlock: XIVTED_clean_linker_0, # of connection points: 2
#     Edge 59, Type (0, 1), BuildingBlock: XIVTED_clean_linker_0, # of connection points: 2
#     Edge 60, Type (0, 1), BuildingBlock: XIVTED_clean_linker_0, # of connection points: 2
#     Edge 61, Type (0, 1), BuildingBlock: XIVTED_clean_linker_0, # of connection points: 2
#     Edge 62, Type (0, 1), BuildingBlock: XIVTED_clean_linker_0, # of connection points: 2
#     Edge 63, Type (0, 1), BuildingBlock: XIVTED_clean_linker_0, # of connection points: 2
#     Edge 64, Type (0, 1), BuildingBlock: XIVTED_clean_linker_0, # of connection points: 2
#     Edge 65, Type (0, 1), BuildingBlock: XIVTED_clean_linker_0, # of connection points: 2
#     Edge 66, Type (0, 1), BuildingBlock: XIVTED_clean_linker_0, # of connection points: 2
#     Edge 67, Type (0, 1), BuildingBlock: XIVTED_clean_linker_0, # of connection points: 2
#     Edge 68, Type (0, 1), BuildingBlock: XIVTED_clean_linker_0, # of connection points: 2
#     Edge 69, Type (0, 1), BuildingBlock: XIVTED_clean_linker_0, # of connection points: 2
#     Edge 70, Type (0, 1), BuildingBlock: XIVTED_clean_linker_0, # of connection points: 2
#     Edge 71, Type (0, 1), BuildingBlock: XIVTED_clean_linker_0, # of connection points: 2
#     Edge 72, Type (0, 1), BuildingBlock: XIVTED_clean_linker_0, # of connection points: 2
#     Edge 73, Type (0, 1), BuildingBlock: XIVTED_clean_linker_0, # of connection points: 2
#     Edge 74, Type (0, 1), BuildingBlock: XIVTED_clean_linker_0, # of connection points: 2
#     Edge 75, Type (0, 1), BuildingBlock: XIVTED_clean_linker_0, # of connection points: 2
#     Edge 76, Type (0, 1), BuildingBlock: XIVTED_clean_linker_0, # of connection points: 2
#     Edge 77, Type (0, 1), BuildingBlock: XIVTED_clean_linker_0, # of connection points: 2
#     Edge 78, Type (0, 1), BuildingBlock: XIVTED_clean_linker_0, # of connection points: 2
#     Edge 79, Type (0, 1), BuildingBlock: XIVTED_clean_linker_0, # of connection points: 2
#     Edge 80, Type (0, 1), BuildingBlock: XIVTED_clean_linker_0, # of connection points: 2
#     Edge 81, Type (0, 1), BuildingBlock: XIVTED_clean_linker_0, # of connection points: 2
#     Edge 82, Type (0, 1), BuildingBlock: XIVTED_clean_linker_0, # of connection points: 2
#     Edge 83, Type (0, 1), BuildingBlock: XIVTED_clean_linker_0, # of connection points: 2
#     Edge 84, Type (0, 1), BuildingBlock: XIVTED_clean_linker_0, # of connection points: 2
#     Edge 85, Type (0, 1), BuildingBlock: XIVTED_clean_linker_0, # of connection points: 2
#     Edge 86, Type (0, 1), BuildingBlock: XIVTED_clean_linker_0, # of connection points: 2
#     Edge 87, Type (0, 1), BuildingBlock: XIVTED_clean_linker_0, # of connection points: 2
#     Edge 88, Type (0, 1), BuildingBlock: XIVTED_clean_linker_0, # of connection points: 2
#     Edge 89, Type (0, 1), BuildingBlock: XIVTED_clean_linker_0, # of connection points: 2
#     Edge 90, Type (0, 1), BuildingBlock: XIVTED_clean_linker_0, # of connection points: 2
#     Edge 91, Type (0, 1), BuildingBlock: XIVTED_clean_linker_0, # of connection points: 2
#     Edge 92, Type (0, 1), BuildingBlock: XIVTED_clean_linker_0, # of connection points: 2
#     Edge 93, Type (0, 1), BuildingBlock: XIVTED_clean_linker_0, # of connection points: 2
#     Edge 94, Type (0, 1), BuildingBlock: XIVTED_clean_linker_0, # of connection points: 2
#     Edge 95, Type (0, 1), BuildingBlock: XIVTED_clean_linker_0, # of connection points: 2
#     Edge 96, Type (0, 1), BuildingBlock: XIVTED_clean_linker_0, # of connection points: 2
#     Edge 97, Type (0, 1), BuildingBlock: XIVTED_clean_linker_0, # of connection points: 2
#     Edge 98, Type (0, 1), BuildingBlock: XIVTED_clean_linker_0, # of connection points: 2
#     Edge 99, Type (0, 1), BuildingBlock: XIVTED_clean_linker_0, # of connection points: 2
#     Edge 100, Type (0, 1), BuildingBlock: XIVTED_clean_linker_0, # of connection points: 2
#     Edge 101, Type (0, 1), BuildingBlock: XIVTED_clean_linker_0, # of connection points: 2
#     Edge 102, Type (0, 1), BuildingBlock: XIVTED_clean_linker_0, # of connection points: 2
#     Edge 103, Type (0, 1), BuildingBlock: XIVTED_clean_linker_0, # of connection points: 2
#     Edge 104, Type (0, 1), BuildingBlock: XIVTED_clean_linker_0, # of connection points: 2
#     Edge 105, Type (0, 1), BuildingBlock: XIVTED_clean_linker_0, # of connection points: 2
#     Edge 106, Type (0, 1), BuildingBlock: XIVTED_clean_linker_0, # of connection points: 2
#     Edge 107, Type (0, 1), BuildingBlock: XIVTED_clean_linker_0, # of connection points: 2
#     Edge 108, Type (0, 1), BuildingBlock: XIVTED_clean_linker_0, # of connection points: 2
#     Edge 109, Type (0, 1), BuildingBlock: XIVTED_clean_linker_0, # of connection points: 2
#     Edge 110, Type (0, 1), BuildingBlock: XIVTED_clean_linker_0, # of connection points: 2
#     Edge 111, Type (0, 1), BuildingBlock: XIVTED_clean_linker_0, # of connection points: 2
#     Edge 112, Type (0, 1), BuildingBlock: XIVTED_clean_linker_0, # of connection points: 2
#     Edge 113, Type (0, 1), BuildingBlock: XIVTED_clean_linker_0, # of connection points: 2
#     Edge 114, Type (0, 1), BuildingBlock: XIVTED_clean_linker_0, # of connection points: 2
#     Edge 115, Type (0, 1), BuildingBlock: XIVTED_clean_linker_0, # of connection points: 2
#     Edge 116, Type (0, 1), BuildingBlock: XIVTED_clean_linker_0, # of connection points: 2
#     Edge 117, Type (0, 1), BuildingBlock: XIVTED_clean_linker_0, # of connection points: 2
#     Edge 118, Type (0, 1), BuildingBlock: XIVTED_clean_linker_0, # of connection points: 2
#     Edge 119, Type (0, 1), BuildingBlock: XIVTED_clean_linker_0, # of connection points: 2
#     Edge 120, Type (0, 1), BuildingBlock: XIVTED_clean_linker_0, # of connection points: 2
#     Edge 121, Type (0, 1), BuildingBlock: XIVTED_clean_linker_0, # of connection points: 2
#     Edge 122, Type (0, 1), BuildingBlock: XIVTED_clean_linker_0, # of connection points: 2
#     Edge 123, Type (0, 1), BuildingBlock: XIVTED_clean_linker_0, # of connection points: 2
#     Edge 124, Type (0, 1), BuildingBlock: XIVTED_clean_linker_0, # of connection points: 2
#     Edge 125, Type (0, 1), BuildingBlock: XIVTED_clean_linker_0, # of connection points: 2
#     Edge 126, Type (0, 1), BuildingBlock: XIVTED_clean_linker_0, # of connection points: 2
#     Edge 127, Type (0, 1), BuildingBlock: XIVTED_clean_linker_0, # of connection points: 2
#     Edge 128, Type (0, 1), BuildingBlock: XIVTED_clean_linker_0, # of connection points: 2
#     Edge 129, Type (0, 1), BuildingBlock: XIVTED_clean_linker_0, # of connection points: 2
#     Edge 130, Type (0, 1), BuildingBlock: XIVTED_clean_linker_0, # of connection points: 2
#     Edge 131, Type (0, 1), BuildingBlock: XIVTED_clean_linker_0, # of connection points: 2
#     Edge 132, Type (0, 1), BuildingBlock: XIVTED_clean_linker_0, # of connection points: 2
#     Edge 133, Type (0, 1), BuildingBlock: XIVTED_clean_linker_0, # of connection points: 2
#     Edge 134, Type (0, 1), BuildingBlock: XIVTED_clean_linker_0, # of connection points: 2
#     Edge 135, Type (0, 1), BuildingBlock: XIVTED_clean_linker_0, # of connection points: 2
# Relax obj value: 0.156
# Max RMSD: 0.268
# Mean RMSD: 0.174
data_MOF--net-gar--node1-NAHDIM_clean_sbu_0--node2-BETDEL_clean_sbu_0--edge1-XIVTED_clean_linker_0
_symmetry_space_group_name_H-M    P1
_symmetry_Int_Tables_number       1
_symmetry_cell_setting            triclinic
loop_
_symmetry_equiv_pos_as_xyz
'x, y, z'
_cell_length_a     57.252481
_cell_length_b     53.426704
_cell_length_c     53.579254
_cell_angle_alpha  95.493817
_cell_angle_beta   92.679428
_cell_angle_gamma 101.24792
loop_
_atom_site_label
_atom_site_type_symbol
_atom_site_fract_x
_atom_site_fract_y
_atom_site_fract_z
_atom_type_partial_charge
C0 C 0.06147 0.26265 0.34714 0.0
O1 O 0.04456 0.24201 0.34646 0.0
O2 O 0.02696 0.24897 0.40153 0.0
Zn3 Zn 0.03364 0.28198 0.38522 0.0
O4 O 0.04178 0.31265 0.41121 0.0
C5 C 0.98626 0.28976 0.37721 0.0
O6 O 0.98771 0.29072 0.40184 0.0
O7 O 0.06055 0.28212 0.36238 0.0
C8 C 0.04212 0.33435 0.40326 0.0
O9 O 0.03872 0.33543 0.37899 0.0
C10 C 0.03037 0.24814 0.42503 0.0
O11 O 0.03887 0.26951 0.43959 0.0
O12 O 0.00398 0.28549 0.36523 0.0
C13 C 0.95621 0.75632 0.6561 0.0
O14 O 0.96321 0.73444 0.6514 0.0
O15 O 0.98181 0.73925 0.59934 0.0
Zn16 Zn 0.99163 0.77252 0.62149 0.0
O17 O 0.99598 0.80238 0.60047 0.0
C18 C 0.0397 0.76617 0.62682 0.0
O19 O 0.03699 0.76542 0.60226 0.0
O20 O 0.9662 0.7757 0.64573 0.0
C21 C 0.01258 0.822 0.60592 0.0
O22 O 0.02718 0.82297 0.62582 0.0
C23 C 0.98503 0.73687 0.576 0.0
O24 O 0.99356 0.75736 0.565 0.0
O25 O 0.02258 0.77016 0.63994 0.0
C26 C 0.55858 0.75633 0.84931 0.0
O27 O 0.5423 0.73522 0.84898 0.0
O28 O 0.52359 0.74371 0.90435 0.0
Zn29 Zn 0.52968 0.77587 0.88658 0.0
O30 O 0.53703 0.80761 0.91135 0.0
C31 C 0.48165 0.78094 0.87823 0.0
O32 O 0.48317 0.78175 0.90286 0.0
O33 O 0.55684 0.77596 0.86394 0.0
C34 C 0.53627 0.82862 0.90238 0.0
O35 O 0.53228 0.82836 0.87799 0.0
C36 C 0.52623 0.74396 0.92809 0.0
O37 O 0.53379 0.76594 0.94199 0.0
O38 O 0.49967 0.77775 0.86624 0.0
C39 C 0.46107 0.25577 0.16674 0.0
O40 O 0.46796 0.23381 0.16218 0.0
O41 O 0.48399 0.23829 0.1076 0.0
Zn42 Zn 0.49448 0.27146 0.12977 0.0
O43 O 0.49742 0.30134 0.10893 0.0
C44 C 0.54264 0.26524 0.13257 0.0
O45 O 0.53884 0.26433 0.1081 0.0
O46 O 0.4703 0.2747 0.15535 0.0
C47 C 0.51363 0.32139 0.11384 0.0
O48 O 0.52908 0.32286 0.1331 0.0
C49 C 0.48553 0.23659 0.08394 0.0
O50 O 0.49253 0.25755 0.07306 0.0
O51 O 0.52616 0.26933 0.14659 0.0
C52 C 0.00154 0.78647 0.19178 0.0
O53 O 0.01271 0.76724 0.19227 0.0
O54 O 0.03367 0.76925 0.13713 0.0
Zn55 Zn 0.03598 0.80427 0.15573 0.0
O56 O 0.03347 0.83001 0.13116 0.0
C57 C 0.0853 0.80754 0.16569 0.0
O58 O 0.08255 0.79813 0.14195 0.0
O59 O 0.00864 0.80411 0.17796 0.0
C60 C 0.04292 0.83087 0.11017 0.0
O61 O 0.05625 0.81436 0.10328 0.0
C62 C 0.01756 0.75963 0.1199 0.0
O63 O 0.00123 0.77268 0.11408 0.0
O64 O 0.06734 0.81301 0.17644 0.0
C65 C 0.53301 0.73488 0.33696 0.0
O66 O 0.52126 0.71292 0.34313 0.0
O67 O 0.50033 0.72727 0.39006 0.0
Zn68 Zn 0.49906 0.75457 0.36692 0.0
O69 O 0.50313 0.78881 0.38753 0.0
C70 C 0.44931 0.7329 0.3489 0.0
O71 O 0.44863 0.71971 0.36839 0.0
O72 O 0.52654 0.75552 0.34478 0.0
C73 C 0.48543 0.79788 0.39501 0.0
O74 O 0.46371 0.78461 0.38911 0.0
C75 C 0.48945 0.7249 0.41011 0.0
O76 O 0.47527 0.74062 0.41668 0.0
O77 O 0.46854 0.74797 0.34492 0.0
C78 C 0.49765 0.28448 0.69328 0.0
O79 O 0.50869 0.26563 0.69693 0.0
O80 O 0.52522 0.25817 0.63784 0.0
Zn81 Zn 0.53072 0.29449 0.65413 0.0
O82 O 0.53052 0.31861 0.6275 0.0
C83 C 0.57877 0.29196 0.66289 0.0
O84 O 0.57421 0.28105 0.63967 0.0
O85 O 0.50435 0.29904 0.67648 0.0
C86 C 0.5484 0.33512 0.62255 0.0
O87 O 0.56903 0.33694 0.63508 0.0
C88 C 0.51211 0.24985 0.61786 0.0
O89 O 0.50007 0.26513 0.60741 0.0
O90 O 0.56246 0.30084 0.6739 0.0
C91 C 0.03239 0.24269 0.84033 0.0
O92 O 0.02252 0.22148 0.84949 0.0
O93 O 0.00222 0.23701 0.89485 0.0
Zn94 Zn -0.0005 0.26324 0.87108 0.0
O95 O 0.004 0.29786 0.89107 0.0
C96 C 0.95997 0.24062 0.83326 0.0
O97 O 0.97462 0.22721 0.82293 0.0
O98 O 0.02509 0.26327 0.84657 0.0
C99 C 0.98615 0.3043 0.90129 0.0
O100 O 0.96551 0.28812 0.89863 0.0
C101 C 0.9846 0.22435 0.90479 0.0
O102 O 0.96306 0.22835 0.89963 0.0
O103 O 0.96704 0.256 0.85292 0.0
C104 C 0.34944 0.05813 0.28299 0.0
O105 O 0.34713 0.04408 0.3019 0.0
O106 O 0.41896 0.04422 0.25713 0.0
Zn107 Zn 0.39309 0.04089 0.281 0.0
O108 O 0.40669 0.0523 0.31616 0.0
C109 C 0.37596 0.99032 0.29674 0.0
O110 O 0.38567 0.00074 0.31894 0.0
O111 O 0.36839 0.06035 0.27128 0.0
C112 C 0.42543 0.06924 0.32237 0.0
O113 O 0.43655 0.08177 0.30503 0.0
C114 C 0.42609 0.06418 0.24629 0.0
O115 O 0.41645 0.08438 0.25103 0.0
O116 O 0.3772 0.00379 0.27837 0.0
C117 C 0.29365 0.10658 0.50467 0.0
O118 O 0.27829 0.10374 0.52217 0.0
O119 O 0.27096 0.16386 0.52742 0.0
Zn120 Zn 0.2681 0.14524 0.49271 0.0
O121 O 0.272 0.16985 0.46601 0.0
C122 C 0.21892 0.13018 0.50005 0.0
O123 O 0.22339 0.1534 0.51203 0.0
O124 O 0.29282 0.12353 0.48975 0.0
C125 C 0.2547 0.17041 0.45045 0.0
O126 O 0.23396 0.15533 0.45235 0.0
C127 C 0.28218 0.18645 0.53487 0.0
O128 O 0.29492 0.2 0.51923 0.0
O129 O 0.23559 0.12199 0.48904 0.0
C130 C 0.17039 0.96445 0.75027 0.0
O131 O 0.15589 0.96786 0.73174 0.0
O132 O 0.13351 0.00904 0.74432 0.0
Zn133 Zn 0.15104 0.00487 0.77679 0.0
O134 O 0.12784 0.99625 0.80346 0.0
C135 C 0.16271 0.05863 0.7894 0.0
O136 O 0.13935 0.05507 0.78657 0.0
O137 O 0.17114 0.9779 0.77132 0.0
C138 C 0.1344 0.00414 0.82631 0.0
O139 O 0.1564 0.01673 0.83203 0.0
C140 C 0.11247 0.01342 0.74288 0.0
O141 O 0.10042 0.01367 0.76314 0.0
O142 O 0.17257 0.03926 0.78712 0.0
C143 C 0.21507 0.94297 0.98831 0.0
O144 O 0.231 0.94563 0.97138 0.0
O145 O 0.23282 0.87847 0.02681 0.0
Zn146 Zn 0.23588 0.90017 -0.00187 0.0
O147 O 0.23088 0.87765 0.96512 0.0
C148 C 0.28028 0.9343 0.01926 0.0
O149 O 0.2707 0.93368 0.04105 0.0
O150 O 0.21315 0.92404 0.00125 0.0
C151 C 0.24961 0.87222 0.95596 0.0
O152 O 0.27041 0.88126 0.96821 0.0
C153 C 0.23803 0.85634 0.02534 0.0
O154 O 0.24578 0.84709 0.00442 0.0
O155 O 0.26857 0.92192 -0.00023 0.0
C156 C 0.22391 0.44479 0.02369 0.0
O157 O 0.2422 0.45314 0.01069 0.0
O158 O 0.24557 0.38049 0.05957 0.0
Zn159 Zn 0.24983 0.40471 0.03256 0.0
O160 O 0.24809 0.38455 -0.00181 0.0
C161 C 0.29964 0.42524 0.04982 0.0
O162 O 0.29763 0.40376 0.06028 0.0
O163 O 0.22332 0.42441 0.03428 0.0
C164 C 0.2672 0.38065 0.9887 0.0
O165 O 0.28772 0.38959 0.00152 0.0
C166 C 0.25478 0.36066 0.05928 0.0
O167 O 0.26781 0.35523 0.04075 0.0
O168 O 0.28154 0.43005 0.03797 0.0
C169 C 0.7945 0.07564 0.99053 0.0
O170 O 0.78087 0.07731 0.97059 0.0
O171 O 0.78324 0.14112 0.04386 0.0
Zn172 Zn 0.77562 0.11852 0.01125 0.0
O173 O 0.78168 0.14021 0.98256 0.0
C174 C 0.72669 0.11542 0.01929 0.0
O175 O 0.73519 0.13904 0.02935 0.0
O176 O 0.79516 0.09144 0.00995 0.0
C177 C 0.76475 0.14137 0.96679 0.0
O178 O 0.74366 0.12681 0.96816 0.0
C179 C 0.79242 0.16493 0.04553 0.0
O180 O 0.7993 0.17548 0.02524 0.0
O181 O 0.74093 0.10203 0.01016 0.0
C182 C 0.15712 0.46491 0.25936 0.0
O183 O 0.15748 0.48393 0.27693 0.0
O184 O 0.09883 0.47667 0.20779 0.0
Zn185 Zn 0.116 0.48168 0.24159 0.0
O186 O 0.09256 0.4764 0.26813 0.0
C187 C 0.14566 0.52602 0.22769 0.0
O188 O 0.14443 0.51071 0.20676 0.0
O189 O 0.14001 0.45929 0.24254 0.0
C190 C 0.08887 0.45708 0.28055 0.0
O191 O 0.10122 0.43895 0.27649 0.0
C192 C 0.07764 0.46449 0.20201 0.0
O193 O 0.06537 0.45251 0.21898 0.0
O194 O 0.13437 0.51788 0.24612 0.0
C195 C 0.72819 0.94562 0.51931 0.0
O196 O 0.7439 0.95171 0.50267 0.0
O197 O 0.75589 0.88575 0.55752 0.0
Zn198 Zn 0.75617 0.90741 0.5288 0.0
O199 O 0.75127 0.88502 0.49562 0.0
C200 C 0.80677 0.92446 0.53724 0.0
O201 O 0.80474 0.90215 0.54618 0.0
O202 O 0.72998 0.92739 0.5324 0.0
C203 C 0.76435 0.86861 0.49122 0.0
O204 O 0.7799 0.8656 0.50891 0.0
C205 C 0.73782 0.8686 0.56069 0.0
O206 O 0.71905 0.86479 0.54469 0.0
O207 O 0.78807 0.93161 0.52941 0.0
C208 C 0.86183 0.07836 0.24735 0.0
O209 O 0.87934 0.0788 0.26422 0.0
O210 O 0.89791 0.03544 0.19717 0.0
Zn211 Zn 0.87728 0.03298 0.22654 0.0
O212 O 0.89623 0.03322 0.25934 0.0
C213 C 0.86505 0.97929 0.22187 0.0
O214 O 0.88845 0.98295 0.22376 0.0
O215 O 0.85783 0.06076 0.22905 0.0
C216 C 0.91712 0.02858 0.26176 0.0
O217 O 0.92883 0.02493 0.24166 0.0
C218 C 0.91247 0.05539 0.19261 0.0
O219 O 0.91492 0.07655 0.20798 0.0
O220 O 0.85518 -0.0014 0.22159 0.0
C221 C 0.2966 0.5669 0.5004 0.0
O222 O 0.28174 0.56554 0.48066 0.0
O223 O 0.28367 0.63531 0.54871 0.0
Zn224 Zn 0.27804 0.61155 0.51686 0.0
O225 O 0.28436 0.63202 0.48754 0.0
C226 C 0.22914 0.6102 0.51791 0.0
O227 O 0.23774 0.63488 0.52342 0.0
O228 O 0.29802 0.58502 0.51791 0.0
C229 C 0.2707 0.62567 0.46765 0.0
O230 O 0.25422 0.60459 0.46593 0.0
C231 C 0.29354 0.6589 0.55001 0.0
O232 O 0.30256 0.66837 0.53 0.0
O233 O 0.24347 0.59504 0.5143 0.0
C234 C 0.3505 0.57156 0.75897 0.0
O235 O 0.3579 0.56325 0.77964 0.0
O236 O 0.39833 0.53915 0.70657 0.0
Zn237 Zn 0.379 0.53777 0.73701 0.0
O238 O 0.40002 0.54234 0.76886 0.0
C239 C 0.34698 0.48869 0.71849 0.0
O240 O 0.34488 0.49809 0.6969 0.0
O241 O 0.35735 0.5634 0.73803 0.0
C242 C 0.41256 0.52549 0.7717 0.0
O243 O 0.41343 0.50824 0.75274 0.0
C244 C 0.41414 0.55848 0.70291 0.0
O245 O 0.41813 0.57886 0.7195 0.0
O246 O 0.35964 0.50239 0.73675 0.0
C247 C 0.66517 0.96719 0.76558 0.0
O248 O 0.66322 0.98412 0.78443 0.0
O249 O 0.60788 0.97852 0.71201 0.0
Zn250 Zn 0.62469 0.98371 0.74607 0.0
O251 O 0.60145 0.9756 0.77226 0.0
C252 C 0.65487 0.02771 0.73424 0.0
O253 O 0.65574 0.01141 0.71448 0.0
O254 O 0.64975 0.96277 0.74705 0.0
C255 C 0.5823 0.98424 0.77179 0.0
O256 O 0.57812 -0.00155 0.75403 0.0
C257 C 0.58972 0.96142 0.70409 0.0
O258 O 0.58054 0.94431 0.71884 0.0
O259 O 0.64176 0.02035 0.75169 0.0
C260 C 0.80148 0.62822 0.97673 0.0
O261 O 0.80337 0.64703 0.9624 0.0
O262 O 0.7607 0.66774 0.02289 0.0
Zn263 Zn 0.75864 0.64562 0.99008 0.0
O264 O 0.76188 0.667 0.96096 0.0
C265 C 0.709 0.63327 0.99346 0.0
O266 O 0.71325 0.6582 -0.00026 0.0
O267 O 0.78388 0.62411 0.99041 0.0
C268 C 0.75378 0.65619 0.93928 0.0
O269 O 0.74312 0.63189 0.93685 0.0
C270 C 0.77953 0.68053 0.03495 0.0
O271 O 0.80032 0.68056 0.02553 0.0
O272 O 0.72622 0.62263 0.9874 0.0
C273 C 0.85471 0.56285 0.75215 0.0
O274 O 0.8628 0.54888 0.73431 0.0
O275 O 0.9161 0.55197 0.75672 0.0
Zn276 Zn 0.89178 0.5491 0.78242 0.0
O277 O 0.90756 0.56252 0.81635 0.0
C278 C 0.87485 0.4964 0.76332 0.0
O279 O 0.88282 0.50478 0.74243 0.0
O280 O 0.86509 0.56658 0.77406 0.0
C281 C 0.92678 0.57926 0.82047 0.0
O282 O 0.93677 0.59019 0.80163 0.0
C283 C 0.92238 0.5711 0.74448 0.0
O284 O 0.91264 0.59132 0.74848 0.0
O285 O 0.87723 0.51191 0.7832 0.0
C286 C 0.71578 0.4411 0.51924 0.0
O287 O 0.7305 0.439 0.53812 0.0
O288 O 0.73295 0.3784 0.52457 0.0
Zn289 Zn 0.73711 0.40188 0.49743 0.0
O290 O 0.73383 0.38033 0.46388 0.0
C291 C 0.78359 0.42921 0.52126 0.0
O292 O 0.77651 0.42026 0.54223 0.0
O293 O 0.71433 0.42583 0.49927 0.0
C294 C 0.75284 0.37825 0.45318 0.0
O295 O 0.77352 0.39058 0.46384 0.0
C296 C 0.74563 0.36134 0.52442 0.0
O297 O 0.76071 0.36001 0.50685 0.0
O298 O 0.76971 0.42407 0.50151 0.0
C299 C 0.6671 0.46343 0.25603 0.0
O300 O 0.65299 0.46732 0.23737 0.0
O301 O 0.62798 0.50635 0.25165 0.0
Zn302 Zn 0.64745 0.50334 0.28325 0.0
O303 O 0.62648 0.49656 0.31215 0.0
C304 C 0.66027 0.55748 0.29239 0.0
O305 O 0.63694 0.55458 0.28994 0.0
O306 O 0.66734 0.47624 0.27735 0.0
C307 C 0.63482 0.50574 0.33426 0.0
O308 O 0.65705 0.5183 0.33769 0.0
C309 C 0.60703 0.51099 0.25132 0.0
O310 O 0.59615 0.51197 0.27233 0.0
O311 O 0.66955 0.53769 0.29109 0.0
Dy312 Dy 0.98598 0.01195 0.99342 0.0
C313 C 0.08824 0.04069 0.00872 0.0
C314 C 0.93742 0.00312 0.99126 0.0
Dy315 Dy 0.03977 0.03395 0.00762 0.0
O316 O 0.95017 0.00361 0.97182 0.0
O317 O 0.95122 0.00723 0.01175 0.0
O318 O 0.996 0.98897 0.95931 0.0
O319 O 0.0171 0.02474 0.97324 0.0
C320 C 0.01561 0.00553 0.95734 0.0
C321 C 0.01065 0.04168 0.04361 0.0
O322 O 0.03036 0.06837 0.99257 0.0
O323 O 0.98911 0.05456 0.99239 0.0
O324 O 0.07573 0.03884 0.02832 0.0
O325 O 0.07425 0.03959 0.98875 0.0
O326 O 0.03072 0.05747 0.04144 0.0
O327 O 0.00856 0.02189 0.02815 0.0
O328 O 0.99503 0.97825 0.00988 0.0
O329 O 0.03617 0.99119 0.00892 0.0
C330 C 0.0083 0.07252 0.99004 0.0
C331 C 0.01691 0.97375 0.01232 0.0
Dy332 Dy 0.2626 0.7589 0.22717 0.0
C333 C 0.26231 0.74162 0.33436 0.0
C334 C 0.25004 0.77217 0.18169 0.0
Dy335 Dy 0.26041 0.75621 0.28732 0.0
O336 O 0.25879 0.75184 0.18496 0.0
O337 O 0.24834 0.78503 0.20313 0.0
O338 O 0.30017 0.75096 0.22438 0.0
O339 O 0.28384 0.75167 0.25799 0.0
C340 C 0.30258 0.7483 0.24826 0.0
C341 C 0.22594 0.77407 0.26351 0.0
O342 O 0.28487 0.79395 0.28687 0.0
O343 O 0.27695 0.7993 0.2446 0.0
O344 O 0.28077 0.75233 0.32317 0.0
O345 O 0.24291 0.73956 0.32008 0.0
O346 O 0.23278 0.78134 0.28707 0.0
O347 O 0.23633 0.75668 0.25523 0.0
O348 O 0.24155 0.71917 0.22823 0.0
O349 O 0.25068 0.71513 0.27057 0.0
C350 C 0.28652 0.80802 0.26767 0.0
C351 C 0.24153 0.70535 0.24761 0.0
Dy352 Dy 0.53582 0.02631 0.51593 0.0
C353 C 0.43403 0.02269 0.50631 0.0
C354 C 0.58169 0.02041 0.52445 0.0
Dy355 Dy 0.48012 0.01747 0.51432 0.0
O356 O 0.57467 0.03396 0.50776 0.0
O357 O 0.56374 0.01052 0.53671 0.0
O358 O 0.53607 0.05211 0.48504 0.0
O359 O 0.50713 0.0215 0.48716 0.0
C360 C 0.51471 0.04085 0.47603 0.0
C361 C 0.5015 0.00272 0.55396 0.0
O362 O 0.48311 0.98113 0.49183 0.0
O363 O 0.52375 0.98422 0.50186 0.0
O364 O 0.44235 0.01369 0.5258 0.0
O365 O 0.45079 0.02843 0.49113 0.0
O366 O 0.48032 0.99115 0.54467 0.0
O367 O 0.50886 0.02233 0.5431 0.0
O368 O 0.53213 0.06241 0.53881 0.0
O369 O 0.49218 0.05984 0.52605 0.0
C370 C 0.5026 0.97114 0.49198 0.0
C371 C 0.51291 0.07278 0.53699 0.0
Dy372 Dy 0.2369 0.26931 0.75999 0.0
C373 C 0.33969 0.28528 0.76292 0.0
C374 C 0.18897 0.25645 0.76492 0.0
Dy375 Dy 0.29152 0.27458 0.7672 0.0
O376 O 0.19958 0.27637 0.75478 0.0
O377 O 0.2045 0.24343 0.7721 0.0
O378 O 0.24162 0.30186 0.73626 0.0
O379 O 0.26738 0.3013 0.76562 0.0
C380 C 0.26241 0.31269 0.74709 0.0
C381 C 0.26518 0.23027 0.77809 0.0
O382 O 0.28584 0.29538 0.8037 0.0
O383 O 0.24466 0.28109 0.80173 0.0
O384 O 0.3283 0.26672 0.77432 0.0
O385 O 0.3248 0.29829 0.75415 0.0
O386 O 0.2857 0.24056 0.78975 0.0
O387 O 0.26106 0.24291 0.76038 0.0
O388 O 0.24322 0.24997 0.72269 0.0
O389 O 0.2843 0.26537 0.72538 0.0
C390 C 0.26514 0.29254 0.81428 0.0
C391 C 0.26407 0.25418 0.71232 0.0
Dy392 Dy 0.00382 0.01678 0.47962 0.0
C393 C 0.04186 0.05176 0.58034 0.0
C394 C 0.98029 0.00468 0.43326 0.0
Dy395 Dy 0.01814 0.04033 0.53401 0.0
O396 O 0.00236 0.00327 0.43839 0.0
O397 O 0.97087 0.01188 0.45365 0.0
O398 O 0.04182 0.01335 0.47389 0.0
O399 O 0.03441 0.04331 0.49851 0.0
C400 C 0.05069 0.03253 0.49062 0.0
C401 C 0.97115 0.02446 0.52289 0.0
O402 O 0.01908 0.07704 0.51717 0.0
O403 O -0.00128 0.05779 0.47949 0.0
O404 O 0.01927 0.0512 0.57579 0.0
O405 O 0.05156 0.04695 0.55946 0.0
O406 O 0.98021 0.04413 0.53901 0.0
O407 O 0.98743 0.01348 0.51523 0.0
O408 O 0.00321 0.98018 0.49694 0.0
O409 O 0.02507 0.00019 0.53348 0.0
C410 C 0.00786 0.07854 0.4953 0.0
C411 C 0.01569 0.97922 0.51822 0.0
Dy412 Dy 0.28601 0.7799 0.75926 0.0
C413 C 0.19163 0.74191 0.71169 0.0
C414 C 0.32806 0.79319 0.78802 0.0
Dy415 Dy 0.23403 0.75492 0.73982 0.0
O416 O 0.32558 0.79576 0.76423 0.0
O417 O 0.30748 0.78397 0.79618 0.0
O418 O 0.29597 0.78422 0.71952 0.0
O419 O 0.26921 0.75376 0.72709 0.0
C420 C 0.27945 0.76501 0.70985 0.0
C421 C 0.24074 0.7698 0.78917 0.0
O422 O 0.24827 0.7191 0.74284 0.0
O423 O 0.2818 0.73901 0.76875 0.0
O424 O 0.19446 0.73937 0.73545 0.0
O425 O 0.21214 0.75076 0.70313 0.0
O426 O 0.2241 0.75064 0.77966 0.0
O427 O 0.25086 0.78099 0.77186 0.0
O428 O 0.27175 0.8157 0.75624 0.0
O429 O 0.2382 0.79583 0.7304 0.0
C430 C 0.26691 0.71802 0.75813 0.0
C431 C 0.25305 0.81683 0.74106 0.0
Dy432 Dy 0.50554 0.02501 0.03814 0.0
C433 C 0.50445 -0.00199 0.92998 0.0
C434 C 0.5024 0.0363 0.08817 0.0
Dy435 Dy 0.50031 0.01904 0.97724 0.0
O436 O 0.50922 0.05317 0.07269 0.0
O437 O 0.49741 0.01331 0.07633 0.0
O438 O 0.52504 0.9919 0.0352 0.0
O439 O 0.49884 0.99455 0.00744 0.0
C440 C 0.51424 0.98205 0.01353 0.0
C441 C 0.49713 0.06621 0.99716 0.0
O442 O 0.46303 0.00276 0.98646 0.0
O443 O 0.46609 0.01833 0.02921 0.0
O444 O 0.48848 0.01147 0.93607 0.0
O445 O 0.51796 0.99621 0.94961 0.0
O446 O 0.49573 0.05985 0.97294 0.0
O447 O 0.5007 0.04731 0.00782 0.0
O448 O 0.54093 0.04647 0.02973 0.0
O449 O 0.53988 0.03129 0.98712 0.0
C450 C 0.45341 0.00747 0.00816 0.0
C451 C 0.55129 0.04367 0.00831 0.0
Dy452 Dy 0.2679 0.29533 0.26095 0.0
C453 C 0.25402 0.18544 0.25012 0.0
C454 C 0.26708 0.34569 0.25799 0.0
Dy455 Dy 0.2552 0.23637 0.24825 0.0
O456 O 0.27242 0.33612 0.27843 0.0
O457 O 0.26288 0.32781 0.23924 0.0
O458 O 0.28541 0.29064 0.29839 0.0
O459 O 0.25633 0.26296 0.28157 0.0
C460 C 0.27194 0.26816 0.2996 0.0
C461 C 0.25027 0.26372 0.21003 0.0
O462 O 0.21934 0.24176 0.25911 0.0
O463 O 0.22756 0.28636 0.26073 0.0
O464 O 0.25496 0.19675 0.22966 0.0
O465 O 0.25335 0.20191 0.26937 0.0
O466 O 0.23654 0.2415 0.21173 0.0
O467 O 0.26656 0.26876 0.22744 0.0
O468 O 0.30339 0.28966 0.24929 0.0
O469 O 0.29563 0.24544 0.25087 0.0
C470 C 0.21248 0.26413 0.26156 0.0
C471 C 0.31053 0.26747 0.24862 0.0
Dy472 Dy 0.49633 0.51603 0.99086 0.0
C473 C 0.53606 0.55258 0.09037 0.0
C474 C 0.47156 0.50352 0.9452 0.0
Dy475 Dy 0.51179 0.54059 0.04432 0.0
O476 O 0.49294 0.49974 0.95023 0.0
O477 O 0.46343 0.51319 0.96538 0.0
O478 O 0.53402 0.51261 0.98387 0.0
O479 O 0.5274 0.5431 0.00831 0.0
C480 C 0.54343 0.53215 -4e-05 0.0
C481 C 0.4646 0.52396 0.03473 0.0
O482 O 0.51207 0.57703 0.02717 0.0
O483 O 0.49136 0.557 0.98998 0.0
O484 O 0.51323 0.55071 0.08622 0.0
O485 O 0.54568 0.54889 0.06923 0.0
O486 O 0.47386 0.54424 0.05001 0.0
O487 O 0.48085 0.51303 0.0269 0.0
O488 O 0.49635 0.47993 0.00885 0.0
O489 O 0.51987 0.50095 0.04391 0.0
C490 C 0.50063 0.57806 0.0053 0.0
C491 C 0.50999 0.47959 0.02946 0.0
Dy492 Dy 0.79166 0.28624 0.25703 0.0
C493 C 0.69748 0.24267 0.21143 0.0
C494 C 0.83356 0.3018 0.28575 0.0
Dy495 Dy 0.74014 0.25814 0.23875 0.0
O496 O 0.83098 0.30357 0.2618 0.0
O497 O 0.81316 0.29216 0.29403 0.0
O498 O 0.80049 0.29079 0.21698 0.0
O499 O 0.7754 0.25916 0.22534 0.0
C500 C 0.78467 0.27071 0.20778 0.0
C501 C 0.7473 0.27373 0.28794 0.0
O502 O 0.75648 0.22369 0.24183 0.0
O503 O 0.79 0.2457 0.26663 0.0
O504 O 0.70099 0.24046 0.23518 0.0
O505 O 0.7175 0.25253 0.20243 0.0
O506 O 0.73134 0.25372 0.27892 0.0
O507 O 0.75643 0.28514 0.27028 0.0
O508 O 0.77526 0.32065 0.25399 0.0
O509 O 0.74169 0.29874 0.22921 0.0
C510 C 0.77587 0.22395 0.25656 0.0
C511 C 0.75581 0.32046 0.23939 0.0
Dy512 Dy 0.00742 0.52714 0.53969 0.0
C513 C 0.00817 0.49178 0.43368 0.0
C514 C 0.00309 0.5413 0.58899 0.0
Dy515 Dy 0.00247 0.51676 0.47878 0.0
O516 O 0.00935 0.5572 0.57247 0.0
O517 O -0.00056 0.51774 0.57862 0.0
O518 O 0.02725 0.49422 0.53913 0.0
O519 O 0.00081 0.49492 0.51096 0.0
C520 C 0.01617 0.48286 0.51807 0.0
C521 C -0.00115 0.5648 0.49523 0.0
O522 O 0.96517 0.50104 0.48834 0.0
O523 O 0.96799 0.51915 0.53035 0.0
O524 O 0.9918 0.50534 0.43761 0.0
O525 O 0.02126 0.49214 0.4542 0.0
O526 O -0.00243 0.55675 0.47133 0.0
O527 O 0.00254 0.54691 0.50742 0.0
O528 O 0.04271 0.54815 0.53057 0.0
O529 O 0.04194 0.52997 0.48889 0.0
C530 C 0.95547 0.50685 0.50973 0.0
C531 C 0.05317 0.54385 0.50948 0.0
Dy532 Dy 0.74007 0.76608 0.26085 0.0
C533 C 0.84292 0.77989 0.26305 0.0
C534 C 0.69209 0.75393 0.26571 0.0
Dy535 Dy 0.79483 0.76967 0.26798 0.0
O536 O 0.70295 0.77371 0.25553 0.0
O537 O 0.7074 0.74067 0.27297 0.0
O538 O 0.7457 0.80026 0.23913 0.0
O539 O 0.77126 0.79701 0.26765 0.0
C540 C 0.76674 0.80979 0.25007 0.0
C541 C 0.76749 0.72569 0.27781 0.0
O542 O 0.78935 0.78853 0.30565 0.0
O543 O 0.74784 0.77644 0.30266 0.0
O544 O 0.83123 0.75989 0.27223 0.0
O545 O 0.8284 0.7945 0.25694 0.0
O546 O 0.78821 0.73506 0.2895 0.0
O547 O 0.76365 0.73897 0.26049 0.0
O548 O 0.74601 0.74781 0.223 0.0
O549 O 0.78731 0.76156 0.22604 0.0
C550 C 0.76841 0.78631 0.31578 0.0
C551 C 0.76693 0.75141 0.21275 0.0
Dy552 Dy 0.76522 0.26021 0.72351 0.0
C553 C 0.77404 0.25424 0.8302 0.0
C554 C 0.75387 0.26969 0.67597 0.0
Dy555 Dy 0.76613 0.26332 0.78175 0.0
O556 O 0.77115 0.25839 0.68213 0.0
O557 O 0.74294 0.27559 0.69566 0.0
O558 O 0.7962 0.2399 0.72337 0.0
O559 O 0.79255 0.26636 0.75394 0.0
C560 C 0.80417 0.24984 0.74605 0.0
C561 C 0.72738 0.2737 0.75873 0.0
O562 O 0.78609 0.303 0.77869 0.0
O563 O 0.77727 0.30253 0.7357 0.0
O564 O 0.78798 0.25082 0.81231 0.0
O565 O 0.75599 0.26309 0.8217 0.0
O566 O 0.73571 0.28447 0.78103 0.0
O567 O 0.73886 0.25692 0.75129 0.0
O568 O 0.74551 0.2206 0.72685 0.0
O569 O 0.75529 0.22081 0.76958 0.0
C570 C 0.78596 0.31478 0.75799 0.0
C571 C 0.74629 0.20866 0.74736 0.0
Dy572 Dy 0.76198 0.7876 0.7557 0.0
C573 C 0.74613 0.67815 0.73275 0.0
C574 C 0.76416 0.83914 0.75939 0.0
Dy575 Dy 0.74809 0.72973 0.73787 0.0
O576 O 0.76593 0.82605 0.77836 0.0
O577 O 0.76146 0.82408 0.73855 0.0
O578 O 0.78217 0.77938 0.79002 0.0
O579 O 0.75189 0.75298 0.77383 0.0
C580 C 0.76885 0.75669 0.79046 0.0
C581 C 0.74065 0.76079 0.70357 0.0
O582 O 0.71333 0.73456 0.75258 0.0
O583 O 0.72183 0.77926 0.75714 0.0
O584 O 0.74896 0.69264 0.71456 0.0
O585 O 0.74393 0.69184 0.75351 0.0
O586 O 0.72724 0.7382 0.70419 0.0
O587 O 0.75802 0.76434 0.71971 0.0
O588 O 0.79657 0.78256 0.74093 0.0
O589 O 0.78844 0.73803 0.73908 0.0
C590 C 0.70681 0.75691 0.7575 0.0
C591 C 0.80337 0.76023 0.73773 0.0
Dy592 Dy 0.49396 0.51769 0.50812 0.0
C593 C 0.5959 0.54792 0.52489 0.0
C594 C 0.44545 0.5072 0.50638 0.0
Dy595 Dy 0.54735 0.54065 0.52239 0.0
O596 O 0.45802 0.50703 0.48682 0.0
O597 O 0.45939 0.51312 0.52674 0.0
O598 O 0.50391 0.49369 0.47492 0.0
O599 O 0.52517 0.52981 0.48765 0.0
C600 C 0.52362 0.50993 0.47252 0.0
C601 C 0.51767 0.54859 0.55783 0.0
O602 O 0.53793 0.57389 0.50531 0.0
O603 O 0.49667 0.56003 0.50473 0.0
O604 O 0.58292 0.54665 0.54416 0.0
O605 O 0.5823 0.54608 0.50449 0.0
O606 O 0.53737 0.56482 0.5553 0.0
O607 O 0.51616 0.52851 0.54293 0.0
O608 O 0.50368 0.48433 0.5249 0.0
O609 O 0.54469 0.49824 0.52418 0.0
C610 C 0.5159 0.5778 0.5019 0.0
C611 C 0.52575 0.48039 0.52741 0.0
Dy612 Dy 0.03708 0.53576 0.01377 0.0
C613 C 0.93764 0.53914 0.99548 0.0
C614 C 0.08163 0.52706 0.0247 0.0
Dy615 Dy 0.98144 0.53008 0.00896 0.0
O616 O 0.07657 0.54229 0.00862 0.0
O617 O 0.06246 0.51706 0.03506 0.0
O618 O 0.03984 0.56008 0.98126 0.0
O619 O 0.00983 0.53101 0.98367 0.0
C620 C 0.01859 0.54921 0.97166 0.0
C621 C -0.00083 0.51522 0.05048 0.0
O622 O 0.98377 0.49251 0.98823 0.0
O623 O 0.02364 0.49366 0.00058 0.0
O624 O 0.94205 0.5263 0.01398 0.0
O625 O 0.95701 0.54665 0.98437 0.0
O626 O 0.97771 0.50535 0.04072 0.0
O627 O 0.00859 0.53393 0.03928 0.0
O628 O 0.03435 0.57272 0.03576 0.0
O629 O 0.995 0.57205 0.02189 0.0
C630 C 0.00248 0.48133 0.99004 0.0
C631 C 0.01582 0.58411 0.03335 0.0
H632 H 0.02703 0.21313 0.92079 0.0
H633 H 0.96612 0.08873 0.98298 0.0
H634 H 0.95092 0.19024 0.92578 0.0
H635 H 0.04227 0.11301 0.97908 0.0
H636 H 0.96033 0.1278 0.96558 0.0
H637 H 0.03301 0.17854 0.94535 0.0
C638 C 0.01155 0.2009 0.92716 0.0
C639 C 0.9884 0.20445 0.92102 0.0
C640 C 0.97832 0.12468 0.96873 0.0
C641 C 0.99516 0.16469 0.94915 0.0
C642 C 0.98166 0.10236 0.9787 0.0
C643 C 0.00473 0.0974 0.98227 0.0
C644 C -0.00184 0.14214 0.96218 0.0
C645 C 0.02415 0.11589 0.97651 0.0
C646 C 0.015 0.18115 0.94123 0.0
C647 C 0.96906 0.18812 0.92995 0.0
N648 N 0.0204 0.13732 0.96655 0.0
N649 N 0.97287 0.1688 0.94342 0.0
H650 H 0.09706 0.82285 0.21604 0.0
H651 H 0.20833 0.75589 0.21611 0.0
H652 H 0.12544 0.79375 0.14839 0.0
H653 H 0.19964 0.81025 0.27817 0.0
H654 H 0.17653 0.76862 0.19186 0.0
H655 H 0.13327 0.81827 0.24011 0.0
C656 C 0.11099 0.81582 0.20621 0.0
C657 C 0.10807 0.80834 0.18021 0.0
C658 C 0.18167 0.77803 0.21068 0.0
C659 C 0.1492 0.80285 0.20757 0.0
C660 C 0.19989 0.7708 0.22453 0.0
C661 C 0.20687 0.78236 0.24901 0.0
C662 C 0.16977 0.79648 0.22159 0.0
C663 C 0.19485 0.80104 0.25924 0.0
C664 C 0.13162 0.81325 0.21995 0.0
C665 C 0.12674 0.79949 0.16842 0.0
N666 N 0.17664 0.80741 0.24553 0.0
N667 N 0.14633 0.79669 0.18223 0.0
H668 H 0.5279 0.83063 0.40967 0.0
H669 H 0.53779 0.943 0.48971 0.0
H670 H 0.45182 0.8228 0.41469 0.0
H671 H 0.46403 0.9394 0.46569 0.0
H672 H 0.53546 0.90052 0.46779 0.0
H673 H 0.53394 0.87244 0.43399 0.0
C674 C 0.51245 0.8376 0.41615 0.0
C675 C 0.48931 0.82311 0.41021 0.0
C676 C 0.51987 0.9091 0.46684 0.0
C677 C 0.49611 0.8709 0.43883 0.0
C678 C 0.52113 0.93336 0.47965 0.0
C679 C 0.50115 0.94497 0.47936 0.0
C680 C 0.4985 0.89637 0.45341 0.0
C681 C 0.47995 0.93132 0.46632 0.0
C682 C 0.51593 0.86147 0.43033 0.0
C683 C 0.46998 0.83326 0.41889 0.0
N684 N 0.47921 0.90777 0.45385 0.0
N685 N 0.47382 0.85656 0.43269 0.0
H686 H 0.47089 0.32139 0.68995 0.0
H687 H 0.37175 0.25696 0.77733 0.0
H688 H 0.47622 0.25504 0.72832 0.0
H689 H 0.36498 0.32076 0.73582 0.0
H690 H 0.41225 0.25925 0.76375 0.0
H691 H 0.43432 0.32456 0.71054 0.0
C692 C 0.46447 0.30757 0.70284 0.0
C693 C 0.47654 0.28775 0.70722 0.0
C694 C 0.40202 0.27292 0.7578 0.0
C695 C 0.43456 0.29127 0.73085 0.0
C696 C 0.37894 0.27167 0.76561 0.0
C697 C 0.36503 0.2886 0.75751 0.0
C698 C 0.41118 0.29119 0.74173 0.0
C699 C 0.37514 0.30729 0.74238 0.0
C700 C 0.44356 0.3094 0.7146 0.0
C701 C 0.46743 0.27052 0.72425 0.0
N702 N 0.39755 0.30796 0.73479 0.0
N703 N 0.44689 0.27257 0.7353 0.0
H704 H 0.04634 0.86638 0.6122 0.0
H705 H 0.98867 0.9313 0.5022 0.0
H706 H 0.98457 0.82741 0.56447 0.0
H707 H 0.04696 0.97029 0.55454 0.0
H708 H 0.98948 0.89142 0.52121 0.0
H709 H 0.04923 0.90305 0.58795 0.0
C710 C 0.0334 0.86548 0.59656 0.0
C711 C 0.01506 0.84385 0.59053 0.0
C712 C 0.00222 0.90868 0.52834 0.0
C713 C 0.01824 0.88594 0.56258 0.0
C714 C 0.00184 0.9314 0.51741 0.0
C715 C 0.01762 0.95421 0.52694 0.0
C716 C 0.01855 0.90884 0.54883 0.0
C717 C 0.03426 0.95325 0.54675 0.0
C718 C 0.03507 0.88646 0.58268 0.0
C719 C -0.00108 0.84376 0.5699 0.0
N720 N 0.03418 0.93104 0.55709 0.0
N721 N 0.00081 0.86455 0.55675 0.0
H722 H 0.47387 0.7859 0.82818 0.0
H723 H 0.33554 0.78885 0.83788 0.0
H724 H 0.43907 0.7845 0.89794 0.0
H725 H 0.37277 0.80296 0.7709 0.0
H726 H 0.37346 0.78788 0.86041 0.0
H727 H 0.43707 0.79211 0.80678 0.0
C728 C 0.45849 0.78686 0.839 0.0
C729 C 0.45953 0.78454 0.86488 0.0
C730 C 0.37341 0.79144 0.84085 0.0
C731 C 0.41737 0.79172 0.84051 0.0
C732 C 0.35178 0.79207 0.82803 0.0
C733 C 0.35109 0.79593 0.80252 0.0
C734 C 0.39445 0.79443 0.82799 0.0
C735 C 0.37258 0.79994 0.79059 0.0
C736 C 0.43752 0.79053 0.82679 0.0
C737 C 0.43908 0.78611 0.87796 0.0
N738 N 0.39339 0.79885 0.80336 0.0
N739 N 0.41883 0.78948 0.86562 0.0
H740 H 0.49098 0.22551 0.03381 0.0
H741 H 0.48543 0.07633 0.0452 0.0
H742 H 0.47484 0.18955 0.1015 0.0
H743 H 0.49934 0.11128 0.97682 0.0
H744 H 0.47981 0.1174 0.06572 0.0
H745 H 0.49164 0.18347 0.0118 0.0
C746 C 0.48731 0.20876 0.04398 0.0
C747 C 0.48305 0.21109 0.06959 0.0
C748 C 0.48414 0.11617 0.04624 0.0
C749 C 0.48401 0.16297 0.04459 0.0
C750 C 0.48765 0.09281 0.03468 0.0
C751 C 0.49345 0.09072 0.00959 0.0
C752 C 0.48643 0.13756 0.03252 0.0
C753 C 0.49511 0.11228 0.99633 0.0
C754 C 0.48776 0.18476 0.03142 0.0
C755 C 0.47835 0.1887 0.08179 0.0
N756 N 0.49175 0.1349 0.008 0.0
N757 N 0.47916 0.16561 0.06922 0.0
H758 H 0.07226 0.22265 0.31694 0.0
H759 H 0.19319 0.30611 0.27538 0.0
H760 H 0.09687 0.3035 0.34035 0.0
H761 H 0.17574 0.22325 0.26457 0.0
H762 H 0.15464 0.30619 0.29297 0.0
H763 H 0.10702 0.22333 0.29196 0.0
C764 C 0.08488 0.24058 0.31673 0.0
C765 C 0.08175 0.263 0.33095 0.0
C766 C 0.15918 0.28801 0.28654 0.0
C767 C 0.1215 0.26393 0.30231 0.0
C768 C 0.18116 0.28792 0.27636 0.0
C769 C 0.18789 0.26461 0.26871 0.0
C770 C 0.14374 0.26462 0.28904 0.0
C771 C 0.17145 0.24169 0.27042 0.0
C772 C 0.10473 0.24094 0.30247 0.0
C773 C 0.09866 0.2857 0.32986 0.0
N774 N 0.15022 0.24227 0.28057 0.0
N775 N 0.11783 0.28556 0.31587 0.0
H776 H 0.94637 0.09366 0.1772 0.0
H777 H 0.97403 0.00558 0.05688 0.0
H778 H 0.91057 0.01491 0.15676 0.0
H779 H 0.01207 0.08331 0.07784 0.0
H780 H 0.94925 0.00956 0.09236 0.0
H781 H 0.96954 0.0911 0.1401 0.0
C782 C 0.94334 0.07586 0.16492 0.0
C783 C 0.92653 0.05446 0.17016 0.0
C784 C 0.96294 0.02582 0.08919 0.0
C785 C 0.95294 0.05141 0.12767 0.0
C786 C 0.97699 0.02359 0.06884 0.0
C787 C 0.99501 0.0442 0.0644 0.0
C788 C 0.967 0.04882 0.10531 0.0
C789 C -0.00165 0.06696 0.08068 0.0
C790 C 0.95658 0.07441 0.14374 0.0
C791 C 0.92336 0.0319 0.15354 0.0
N792 N 0.9845 0.06866 0.10047 0.0
N793 N 0.93644 0.03097 0.13311 0.0
H794 H 0.30502 0.66798 0.46173 0.0
H795 H 0.22542 0.71349 0.35567 0.0
H796 H 0.2368 0.62435 0.42996 0.0
H797 H 0.30183 0.73984 0.36441 0.0
H798 H 0.22798 0.68626 0.38932 0.0
H799 H 0.3032 0.69909 0.43117 0.0
C800 C 0.28975 0.66487 0.44826 0.0
C801 C 0.27105 0.64353 0.4483 0.0
C802 C 0.24418 0.69814 0.38401 0.0
C803 C 0.26869 0.67914 0.41392 0.0
C804 C 0.2427 0.71383 0.36498 0.0
C805 C 0.26347 0.72874 0.35724 0.0
C806 C 0.26656 0.69748 0.39546 0.0
C807 C 0.28543 0.72851 0.36988 0.0
C808 C 0.28873 0.68262 0.43093 0.0
C809 C 0.25167 0.64043 0.43052 0.0
N810 N 0.28645 0.71295 0.38838 0.0
N811 N 0.25093 0.65814 0.41416 0.0
H812 H 0.54611 0.93425 0.68348 0.0
H813 H 0.54337 0.02844 0.5776 0.0
H814 H 0.60591 0.99278 0.66887 0.0
H815 H 0.48994 0.95928 0.57781 0.0
H816 H 0.56602 0.01533 0.61181 0.0
H817 H 0.52485 0.94207 0.64505 0.0
C818 C 0.55487 0.94848 0.67206 0.0
C819 C 0.57767 0.96313 0.67956 0.0
C820 C 0.54943 0.00286 0.60433 0.0
C821 C 0.5535 0.97229 0.63597 0.0
C822 C 0.5365 0.01036 0.58479 0.0
C823 C 0.51493 0.99477 0.57479 0.0
C824 C 0.54052 0.97978 0.6143 0.0
C825 C 0.50659 0.97177 0.58506 0.0
C826 C 0.54273 0.95295 0.6502 0.0
C827 C 0.58823 0.98126 0.66404 0.0
N828 N 0.51938 0.96497 0.60443 0.0
N829 N 0.57597 0.98548 0.64316 0.0
H830 H 0.30508 0.37056 0.96327 0.0
H831 H 0.22616 0.29575 0.8416 0.0
H832 H 0.22815 0.35837 0.95664 0.0
H833 H 0.3032 0.31523 0.84695 0.0
H834 H 0.22617 0.31611 0.8845 0.0
H835 H 0.30432 0.34792 0.92151 0.0
C836 C 0.28799 0.36309 0.95305 0.0
C837 C 0.26664 0.36646 0.96348 0.0
C838 C 0.24305 0.31587 0.87627 0.0
C839 C 0.26565 0.34041 0.91544 0.0
C840 C 0.24308 0.30419 0.85178 0.0
C841 C 0.26472 0.30384 0.84056 0.0
C842 C 0.26482 0.32718 0.88966 0.0
C843 C 0.28607 0.31511 0.85472 0.0
C844 C 0.28757 0.35015 0.92914 0.0
C845 C 0.24504 0.35627 0.94931 0.0
N846 N 0.28556 0.32632 0.87847 0.0
N847 N 0.2451 0.34372 0.92598 0.0
H848 H 0.95976 0.01505 0.27399 0.0
H849 H 0.93566 0.01158 0.4199 0.0
H850 H 0.89648 0.0325 0.30661 0.0
H851 H 0.00022 0.99649 0.38863 0.0
H852 H 0.91986 0.01627 0.3778 0.0
H853 H 0.97428 0.00629 0.31531 0.0
C854 C 0.94897 0.01717 0.28984 0.0
C855 C 0.92689 0.02459 0.28681 0.0
C856 C 0.93741 0.01172 0.38007 0.0
C857 C 0.94329 0.01434 0.33409 0.0
C858 C 0.94635 0.00889 0.40408 0.0
C859 C 0.96927 0.0037 0.40769 0.0
C860 C 0.95154 0.00945 0.35952 0.0
C861 C 0.98244 0.00049 0.38661 0.0
C862 C 0.95722 0.01205 0.3134 0.0
C863 C 0.91363 0.02689 0.30802 0.0
N864 N 0.97346 0.0036 0.36342 0.0
N865 N 0.92202 0.02177 0.33071 0.0
H866 H 0.31448 0.70986 0.56128 0.0
H867 H 0.24945 0.72147 0.68941 0.0
H868 H 0.26896 0.64679 0.59095 0.0
H869 H 0.30872 0.77926 0.67237 0.0
H870 H 0.25236 0.69676 0.6495 0.0
H871 H 0.30957 0.73795 0.59887 0.0
C872 C 0.30357 0.7019 0.57571 0.0
C873 C 0.29218 0.67593 0.57303 0.0
C874 C 0.26467 0.7149 0.65437 0.0
C875 C 0.28623 0.70791 0.61563 0.0
C876 C 0.26292 0.72909 0.67709 0.0
C877 C 0.27905 0.75226 0.68424 0.0
C878 C 0.28266 0.72395 0.63863 0.0
C879 C 0.29605 0.76137 0.66752 0.0
C880 C 0.30074 0.71793 0.59708 0.0
C881 C 0.27819 0.66664 0.59224 0.0
N882 N 0.29756 0.74705 0.64546 0.0
N883 N 0.27555 0.68263 0.61264 0.0
H884 H 0.58447 0.95384 0.80969 0.0
H885 H 0.48677 0.01087 0.88567 0.0
H886 H 0.54275 0.00484 0.78015 0.0
H887 H 0.53313 0.96506 0.91617 0.0
H888 H 0.50103 0.00175 0.84395 0.0
H889 H 0.56003 0.95083 0.84573 0.0
C890 C 0.57003 0.96425 0.81068 0.0
C891 C 0.56593 0.98 0.79213 0.0
C892 C 0.50779 0.99337 0.85971 0.0
C893 C 0.53792 0.97674 0.83344 0.0
C894 C 0.49958 -0.00152 0.88345 0.0
C895 C 0.50915 0.98904 0.9043 0.0
C896 C 0.52561 0.97872 0.85702 0.0
C897 C 0.52563 0.97304 0.90055 0.0
C898 C 0.55605 0.96249 0.83126 0.0
C899 C 0.54674 0.99273 0.7942 0.0
N900 N 0.53356 0.96862 0.8774 0.0
N901 N 0.53362 0.9911 0.81469 0.0
H902 H 0.2179 0.35214 0.09008 0.0
H903 H 0.28784 0.29585 0.19364 0.0
H904 H 0.28712 0.33462 0.0775 0.0
H905 H 0.21286 0.26446 0.1766 0.0
H906 H 0.28824 0.31874 0.1561 0.0
H907 H 0.2158 0.32771 0.12688 0.0
C908 C 0.2326 0.34312 0.09506 0.0
C909 C 0.25269 0.34528 0.08078 0.0
C910 C 0.27173 0.30684 0.16065 0.0
C911 C 0.25062 0.31811 0.12284 0.0
C912 C 0.27143 0.29392 0.18205 0.0
C913 C 0.25028 0.2782 0.18802 0.0
C914 C 0.2506 0.30456 0.14555 0.0
C915 C 0.22952 0.27631 0.17243 0.0
C916 C 0.23133 0.32918 0.1159 0.0
C917 C 0.27125 0.33324 0.08794 0.0
N918 N 0.23011 0.28957 0.15192 0.0
N919 N 0.26992 0.32044 0.10871 0.0
H920 H 0.19038 0.95086 0.0296 0.0
H921 H 0.11534 0.0403 0.96828 0.0
H922 H 0.20619 0.97926 0.95825 0.0
H923 H 0.11626 0.03002 0.04718 0.0
H924 H 0.15089 0.02152 0.96482 0.0
H925 H 0.1647 0.98183 0.03694 0.0
C926 C 0.18845 0.96366 0.01547 0.0
C927 C 0.20015 0.96227 0.99312 0.0
C928 C 0.14367 0.02393 0.98302 0.0
C929 C 0.17078 -0.00217 0.00141 0.0
C930 C 0.12345 0.03475 0.98502 0.0
C931 C 0.11276 0.03635 0.00798 0.0
C932 C 0.1529 0.01434 0.00405 0.0
C933 C 0.12389 0.02891 0.02909 0.0
C934 C 0.17396 0.98151 0.01977 0.0
C935 C 0.19732 0.97959 0.97565 0.0
N936 N 0.14311 0.01772 0.02651 0.0
N937 N 0.18262 0.99645 0.98 0.0
H938 H 0.67037 0.64935 0.01229 0.0
H939 H 0.58025 0.515 0.97768 0.0
H940 H 0.69265 0.58201 0.97827 0.0
H941 H 0.56401 0.57835 0.02525 0.0
H942 H 0.62136 0.53888 0.97689 0.0
H943 H 0.6308 0.62361 0.01571 0.0
C944 C 0.66693 0.62914 0.00546 0.0
C945 C 0.68484 0.61782 0.99493 0.0
C946 C 0.60883 0.54744 0.98766 0.0
C947 C 0.63949 0.58816 -0.00113 0.0
C948 C 0.58543 0.53382 0.98814 0.0
C949 C 0.56876 0.54485 0.00139 0.0
C950 C 0.61543 0.57227 0.00037 0.0
C951 C 0.5763 0.56922 0.01469 0.0
C952 C 0.64433 0.61441 0.00755 0.0
C953 C 0.67935 0.5915 0.98651 0.0
N954 N 0.59903 0.5822 0.01366 0.0
N955 N 0.65709 0.57755 0.98858 0.0
H956 H 0.70268 0.45497 0.28828 0.0
H957 H 0.72224 0.32986 0.20552 0.0
H958 H 0.66698 0.4287 0.21499 0.0
H959 H 0.76864 0.36553 0.2703 0.0
H960 H 0.70275 0.3667 0.20783 0.0
H961 H 0.72748 0.42279 0.28178 0.0
C962 C 0.70007 0.44246 0.2708 0.0
C963 C 0.6826 0.44442 0.25222 0.0
C964 C 0.71741 0.36666 0.22134 0.0
C965 C 0.71096 0.40756 0.24466 0.0
C966 C 0.72859 0.34564 0.22 0.0
C967 C 0.74701 0.34454 0.23783 0.0
C968 C 0.72446 0.38659 0.24087 0.0
C969 C 0.75454 0.36558 0.25613 0.0
C970 C 0.71433 0.42419 0.26705 0.0
C971 C 0.68016 0.42783 0.22988 0.0
N972 N 0.743 0.38559 0.2574 0.0
N973 N 0.69404 0.40998 0.22681 0.0
H974 H 0.80496 0.44444 0.47928 0.0
H975 H 0.93039 0.50768 0.55187 0.0
H976 H 0.81822 0.44637 0.55955 0.0
H977 H 0.92148 0.48597 0.47167 0.0
H978 H 0.888 0.49114 0.55492 0.0
H979 H 0.84629 0.4656 0.47635 0.0
C980 C 0.81652 0.44946 0.49635 0.0
C981 C 0.80817 0.44348 0.51973 0.0
C982 C 0.89532 0.49007 0.53666 0.0
C983 C 0.85551 0.46772 0.51639 0.0
C984 C 0.91953 0.49959 0.53483 0.0
C985 C 0.92957 0.49809 0.51144 0.0
C986 C 0.88098 0.47915 0.51494 0.0
C987 C 0.91455 0.48738 0.49009 0.0
C988 C 0.84014 0.46147 0.4946 0.0
C989 C 0.82396 0.4505 0.54116 0.0
N990 N 0.89097 0.47828 0.49236 0.0
N991 N 0.84694 0.46224 0.53897 0.0
H992 H 0.3438 0.07918 0.23927 0.0
H993 H 0.25218 0.15958 0.29154 0.0
H994 H 0.31183 0.06734 0.30968 0.0
H995 H 0.26868 0.15391 0.21372 0.0
H996 H 0.27042 0.12268 0.29748 0.0
H997 H 0.314 0.10401 0.22844 0.0
C998 C 0.33041 0.08171 0.2524 0.0
C999 C 0.33047 0.07155 0.27557 0.0
C1000 C 0.26959 0.12912 0.27896 0.0
C1001 C 0.29635 0.09998 0.26334 0.0
C1002 C 0.25913 0.15012 0.27556 0.0
C1003 C 0.25929 0.1599 0.2522 0.0
C1004 C 0.28061 0.11823 0.25896 0.0
C1005 C 0.26841 0.14701 0.23208 0.0
C1006 C 0.31328 0.09572 0.24613 0.0
C1007 C 0.31252 0.07506 0.29171 0.0
N1008 N 0.27918 0.1271 0.23604 0.0
N1009 N 0.29637 0.08934 0.28546 0.0
H1010 H 0.32516 0.10447 0.46813 0.0
H1011 H 0.3987 0.01682 0.53908 0.0
H1012 H 0.30415 0.07266 0.5367 0.0
H1013 H 0.41609 0.04451 0.46784 0.0
H1014 H 0.36204 0.03393 0.53695 0.0
H1015 H 0.35685 0.07993 0.46626 0.0
C1016 C 0.32716 0.09225 0.48277 0.0
C1017 C 0.31212 0.0908 0.50273 0.0
C1018 C 0.37372 0.03599 0.52164 0.0
C1019 C 0.34845 0.06263 0.50073 0.0
C1020 C 0.39458 0.02617 0.52282 0.0
C1021 C 0.41042 0.02947 0.50369 0.0
C1022 C 0.36885 0.04931 0.50125 0.0
C1023 C 0.40435 0.04171 0.48305 0.0
C1024 C 0.34523 0.07816 0.48165 0.0
C1025 C 0.31542 0.07446 0.52104 0.0
N1026 N 0.38414 0.05141 0.48249 0.0
N1027 N 0.33337 0.06116 0.5197 0.0
H1028 H 0.64717 0.60142 0.28042 0.0
H1029 H 0.77426 0.69316 0.31272 0.0
H1030 H 0.70787 0.57225 0.30723 0.0
H1031 H 0.72541 0.70282 0.25226 0.0
H1032 H 0.74768 0.65246 0.31896 0.0
H1033 H 0.67319 0.64327 0.27891 0.0
C1034 C 0.66591 0.6039 0.28628 0.0
C1035 C 0.67545 0.58331 0.29377 0.0
C1036 C 0.74281 0.66368 0.30448 0.0
C1037 C 0.70516 0.63108 0.29219 0.0
C1038 C 0.75788 0.68681 0.30093 0.0
C1039 C 0.7518 0.70144 0.28216 0.0
C1040 C 0.72145 0.65553 0.28943 0.0
C1041 C 0.7305 0.69236 0.26726 0.0
C1042 C 0.68073 0.62772 0.28527 0.0
C1043 C 0.69988 0.5876 0.30113 0.0
N1044 N 0.71598 0.67006 0.27133 0.0
N1045 N 0.71397 0.61109 0.30017 0.0
H1046 H 0.85945 0.47148 0.80373 0.0
H1047 H 0.79365 0.34394 0.71883 0.0
H1048 H 0.86088 0.46044 0.72295 0.0
H1049 H 0.8052 0.34787 0.79951 0.0
H1050 H 0.81511 0.38816 0.72046 0.0
H1051 H 0.83694 0.42746 0.80294 0.0
C1052 C 0.85508 0.45979 0.78584 0.0
C1053 C 0.86205 0.46962 0.76336 0.0
C1054 C 0.81294 0.37937 0.73782 0.0
C1055 C 0.8362 0.41944 0.76234 0.0
C1056 C 0.80058 0.35411 0.73694 0.0
C1057 C 0.79769 0.34209 0.75908 0.0
C1058 C 0.8224 0.39284 0.761 0.0
C1059 C 0.80708 0.35633 0.78197 0.0
C1060 C 0.84225 0.43469 0.78542 0.0
C1061 C 0.85593 0.45364 0.74074 0.0
N1062 N 0.81905 0.38099 0.78234 0.0
N1063 N 0.84328 0.42937 0.7408 0.0
H1064 H 0.00655 0.857 0.11117 0.0
H1065 H 0.05768 0.9539 0.01506 0.0
H1066 H 0.06868 0.84826 0.07118 0.0
H1067 H 0.98357 0.9387 0.03213 0.0
H1068 H 0.06349 0.91683 0.03651 0.0
H1069 H -0.00068 0.88922 0.08404 0.0
C1070 C 0.01869 0.86188 0.09666 0.0
C1071 C 0.03831 0.85004 0.09347 0.0
C1072 C 0.04591 0.92148 0.03522 0.0
C1073 C 0.03018 0.88699 0.06241 0.0
C1074 C 0.04257 0.94262 0.02302 0.0
C1075 C 0.02014 0.94954 0.02195 0.0
C1076 C 0.02679 0.90752 0.04676 0.0
C1077 C 0.0012 0.93417 0.03252 0.0
C1078 C 0.01446 0.88015 0.08107 0.0
C1079 C 0.05334 0.85695 0.07423 0.0
N1080 N 0.00504 0.91411 0.04478 0.0
N1081 N 0.04912 0.87523 0.05955 0.0
H1082 H 0.92542 0.26481 0.85104 0.0
H1083 H 0.83248 0.21575 0.73191 0.0
H1084 H 0.93939 0.21336 0.78885 0.0
H1085 H 0.82591 0.27541 0.78981 0.0
H1086 H 0.86974 0.21099 0.75395 0.0
H1087 H 0.88664 0.26485 0.83059 0.0
C1088 C 0.92031 0.25342 0.83309 0.0
C1089 C 0.9358 0.23923 0.82154 0.0
C1090 C 0.86002 0.225 0.76186 0.0
C1091 C 0.89125 0.23929 0.79788 0.0
C1092 C 0.83882 0.22771 0.74931 0.0
C1093 C 0.82613 0.24591 0.75916 0.0
C1094 C 0.86841 0.24059 0.78436 0.0
C1095 C 0.83503 0.26096 0.7817 0.0
C1096 C 0.89812 0.25348 0.82138 0.0
C1097 C 0.92805 0.22467 0.79836 0.0
N1098 N 0.85561 0.25797 0.79351 0.0
N1099 N 0.90633 0.22518 0.78719 0.0
H1100 H 0.48329 0.22366 0.57762 0.0
H1101 H 0.54751 0.103 0.57011 0.0
H1102 H 0.54048 0.21664 0.63029 0.0
H1103 H 0.48053 0.10314 0.52961 0.0
H1104 H 0.54754 0.14638 0.58965 0.0
H1105 H 0.48408 0.18088 0.55725 0.0
C1106 C 0.49597 0.21312 0.58493 0.0
C1107 C 0.51178 0.22371 0.60574 0.0
C1108 C 0.53286 0.13687 0.57647 0.0
C1109 C 0.51293 0.17488 0.5824 0.0
C1110 C 0.53289 0.11217 0.56523 0.0
C1111 C 0.51394 0.09936 0.54829 0.0
C1112 C 0.51387 0.1489 0.57053 0.0
C1113 C 0.49543 0.11217 0.5427 0.0
C1114 C 0.49641 0.1887 0.57331 0.0
C1115 C 0.52787 0.20918 0.61438 0.0
N1116 N 0.49587 0.13622 0.55377 0.0
N1117 N 0.52808 0.18555 0.60263 0.0
H1118 H 0.55662 0.69595 0.32478 0.0
H1119 H 0.6599 0.78455 0.25887 0.0
H1120 H 0.55829 0.77581 0.31619 0.0
H1121 H 0.66694 0.71247 0.28537 0.0
H1122 H 0.6192 0.77844 0.27269 0.0
H1123 H 0.59374 0.69873 0.30346 0.0
C1124 C 0.56467 0.71401 0.31823 0.0
C1125 C 0.55446 0.73576 0.32248 0.0
C1126 C 0.62958 0.76386 0.27529 0.0
C1127 C 0.59686 0.739 0.29803 0.0
C1128 C 0.65274 0.76728 0.26731 0.0
C1129 C 0.66676 0.74906 0.27119 0.0
C1130 C 0.6204 0.74199 0.28708 0.0
C1131 C 0.65669 0.72703 0.2822 0.0
C1132 C 0.58589 0.71559 0.30612 0.0
C1133 C 0.56566 0.75863 0.31352 0.0
N1134 N 0.63413 0.72415 0.28989 0.0
N1135 N 0.5863 0.75968 0.30179 0.0
H1136 H 0.01021 0.2008 0.40083 0.0
H1137 H 0.02571 0.12598 0.52093 0.0
H1138 H 0.03821 0.23888 0.47387 0.0
H1139 H 0.99061 0.08951 0.4499 0.0
H1140 H 0.02939 0.16765 0.5046 0.0
H1141 H 0.00226 0.15995 0.41884 0.0
C1142 C 0.01466 0.2006 0.42067 0.0
C1143 C 0.025 0.22332 0.43583 0.0
C1144 C 0.02072 0.15053 0.49267 0.0
C1145 C 0.01593 0.17651 0.45661 0.0
C1146 C 0.01857 0.12671 0.502 0.0
C1147 C 0.00796 0.10412 0.48675 0.0
C1148 C 0.01234 0.1518 0.46784 0.0
C1149 C -0.00099 0.10634 0.46236 0.0
C1150 C 0.01005 0.17724 0.43097 0.0
C1151 C 0.03028 0.22185 0.46145 0.0
N1152 N 0.00157 0.1297 0.45363 0.0
N1153 N 0.02579 0.19884 0.471 0.0
H1154 H 0.58269 0.26012 0.10831 0.0
H1155 H 0.65399 0.23123 0.23091 0.0
H1156 H 0.55406 0.25835 0.18139 0.0
H1157 H 0.68729 0.2495 0.16257 0.0
H1158 H 0.61549 0.23454 0.21105 0.0
H1159 H 0.61965 0.25072 0.12625 0.0
C1160 C 0.58417 0.25779 0.12814 0.0
C1161 C 0.56529 0.26019 0.1434 0.0
C1162 C 0.63118 0.23757 0.20032 0.0
C1163 C 0.60748 0.24915 0.16399 0.0
C1164 C 0.6531 0.23549 0.21157 0.0
C1165 C 0.6738 0.24022 0.19836 0.0
C1166 C 0.62998 0.24435 0.17566 0.0
C1167 C 0.67171 0.24577 0.1734 0.0
C1168 C 0.60527 0.25238 0.13835 0.0
C1169 C 0.56821 0.25686 0.16896 0.0
N1170 N 0.65019 0.24784 0.16289 0.0
N1171 N 0.5889 0.25149 0.17844 0.0
H1172 H 0.55031 0.83877 0.95273 0.0
H1173 H 0.48925 0.9585 0.97078 0.0
H1174 H 0.52275 0.87228 0.89029 0.0
H1175 H 0.54885 0.95378 0.02122 0.0
H1176 H 0.49736 0.92245 0.94355 0.0
H1177 H 0.54689 0.87703 0.98064 0.0
C1178 C 0.54375 0.85422 0.94487 0.0
C1179 C 0.53668 0.8523 0.91918 0.0
C1180 C 0.50874 0.92934 0.96051 0.0
C1181 C 0.53238 0.89556 0.95091 0.0
C1182 C 0.50415 0.9499 0.97607 0.0
C1183 C 0.51875 0.95945 -0.00203 0.0
C1184 C 0.52764 0.91762 0.96726 0.0
C1185 C 0.53737 0.94711 0.0043 0.0
C1186 C 0.54188 0.876 0.96077 0.0
C1187 C 0.52837 0.8729 0.90995 0.0
N1188 N 0.54127 0.92663 0.98901 0.0
N1189 N 0.52615 0.8935 0.92586 0.0
H1190 H 0.93797 0.79876 0.67086 0.0
H1191 H 0.82469 0.71863 0.72943 0.0
H1192 H 0.92787 0.71744 0.67705 0.0
H1193 H 0.83801 0.80095 0.72864 0.0
H1194 H 0.8636 0.71812 0.71275 0.0
H1195 H 0.90258 0.80028 0.69426 0.0
C1196 C 0.9284 0.78124 0.67727 0.0
C1197 C 0.93582 0.7579 0.67181 0.0
C1198 C 0.8581 0.73632 0.71644 0.0
C1199 C 0.89517 0.75947 0.69856 0.0
C1200 C 0.83586 0.73664 0.726 0.0
C1201 C 0.82792 0.75985 0.73029 0.0
C1202 C 0.87248 0.75935 0.71096 0.0
C1203 C 0.84327 0.78257 0.72554 0.0
C1204 C 0.90819 0.78212 0.69067 0.0
C1205 C 0.92277 0.73584 0.68072 0.0
N1206 N 0.86469 0.78171 0.71594 0.0
N1207 N 0.90299 0.73714 0.69348 0.0
H1208 H 0.08987 0.9729 0.82378 0.0
H1209 H 0.0516 0.04332 0.94698 0.0
H1210 H 0.13924 0.02951 0.87344 0.0
H1211 H 0.01779 0.96484 0.92238 0.0
H1212 H 0.08111 0.0409 0.91603 0.0
H1213 H 0.06054 0.97141 0.85598 0.0
C1214 C 0.09459 0.98488 0.84147 0.0
C1215 C 0.11701 0.00143 0.84592 0.0
C1216 C 0.06736 0.02412 0.91749 0.0
C1217 C 0.08355 7e-05 0.8824 0.0
C1218 C 0.05058 0.02542 0.93525 0.0
C1219 C 0.03266 0.004 0.93771 0.0
C1220 C 0.06587 0.00145 0.90149 0.0
C1221 C 0.03154 0.98168 0.92123 0.0
C1222 C 0.07789 0.98394 0.85979 0.0
C1223 C 0.12222 0.01647 0.86917 0.0
N1224 N 0.04793 0.98097 0.90364 0.0
N1225 N 0.10552 0.01564 0.8864 0.0
H1226 H 0.77223 0.3249 0.53111 0.0
H1227 H 0.71795 0.29276 0.66169 0.0
H1228 H 0.716 0.35825 0.56312 0.0
H1229 H 0.77912 0.26553 0.63421 0.0
H1230 H 0.71316 0.31158 0.6225 0.0
H1231 H 0.77145 0.29822 0.56573 0.0
C1232 C 0.75961 0.32651 0.54534 0.0
C1233 C 0.74431 0.34402 0.54438 0.0
C1234 C 0.72752 0.3013 0.62489 0.0
C1235 C 0.74332 0.31352 0.58398 0.0
C1236 C 0.73021 0.29051 0.64723 0.0
C1237 C 0.74911 0.27787 0.65117 0.0
C1238 C 0.74392 0.29952 0.60645 0.0
C1239 C 0.7644 0.27529 0.63185 0.0
C1240 C 0.75918 0.31125 0.56508 0.0
C1241 C 0.72825 0.34517 0.56323 0.0
N1242 N 0.76162 0.28628 0.61035 0.0
N1243 N 0.72827 0.33023 0.58234 0.0
H1244 H 0.40662 0.04638 0.36225 0.0
H1245 H 0.52618 0.08423 0.45196 0.0
H1246 H 0.46966 0.09635 0.34097 0.0
H1247 H 0.47327 0.01462 0.45198 0.0
H1248 H 0.50296 0.09605 0.41665 0.0
H1249 H 0.42766 0.04318 0.40198 0.0
C1250 C 0.4248 0.05698 0.36605 0.0
C1251 C 0.43658 0.07123 0.34805 0.0
C1252 C 0.49642 0.07834 0.42465 0.0
C1253 C 0.46077 0.06745 0.39344 0.0
C1254 C 0.50963 0.07158 0.44464 0.0
C1255 C 0.5014 0.04858 0.45497 0.0
C1256 C 0.47485 0.06207 0.41532 0.0
C1257 C 0.47998 0.03276 0.44487 0.0
C1258 C 0.43681 0.05504 0.3887 0.0
C1259 C 0.46003 0.08488 0.35422 0.0
N1260 N 0.46739 0.03984 0.42567 0.0
N1261 N 0.47153 0.08241 0.37636 0.0
H1262 H 0.81585 0.70867 0.06737 0.0
H1263 H 0.73006 0.72773 0.17862 0.0
H1264 H 0.73935 0.68225 0.06015 0.0
H1265 H 0.80638 0.75571 0.18532 0.0
H1266 H 0.73288 0.71257 0.13456 0.0
H1267 H 0.81254 0.72787 0.11005 0.0
C1268 C 0.79836 0.70702 0.07469 0.0
C1269 C 0.77788 0.6937 0.0602 0.0
C1270 C 0.74899 0.72211 0.14567 0.0
C1271 C 0.77395 0.7155 0.10905 0.0
C1272 C 0.74739 0.73077 0.17085 0.0
C1273 C 0.76802 0.74288 0.18579 0.0
C1274 C 0.77138 0.72555 0.13535 0.0
C1275 C 0.78999 0.74635 0.17462 0.0
C1276 C 0.79647 0.71796 0.09907 0.0
C1277 C 0.75566 0.69224 0.07065 0.0
N1278 N 0.79109 0.73765 0.15014 0.0
N1279 N 0.75431 0.70287 0.09446 0.0
H1280 H 0.13371 0.0174 0.69832 0.0
H1281 H 0.02206 0.05459 0.62569 0.0
H1282 H 0.06884 0.02575 0.73329 0.0
H1283 H 0.08773 0.04781 0.59184 0.0
H1284 H 0.03977 0.04711 0.66612 0.0
H1285 H 0.11772 0.03042 0.65971 0.0
C1286 C 0.11606 0.02189 0.69788 0.0
C1287 C 0.10256 0.02036 0.71908 0.0
C1288 C 0.05041 0.04753 0.64992 0.0
C1289 C 0.08416 0.03549 0.67487 0.0
C1290 C 0.04035 0.05197 0.6269 0.0
C1291 C 0.05346 0.05171 0.60546 0.0
C1292 C 0.07368 0.04271 0.6514 0.0
C1293 C 0.07702 0.04811 0.60796 0.0
C1294 C 0.10697 0.02945 0.67583 0.0
C1295 C 0.07984 0.02656 0.71739 0.0
N1296 N 0.08631 0.04352 0.63047 0.0
N1297 N 0.07134 0.0338 0.69566 0.0
H1298 H 0.78885 0.37712 0.42216 0.0
H1299 H 0.71917 0.25991 0.32647 0.0
H1300 H 0.7156 0.34138 0.43052 0.0
H1301 H 0.77879 0.31631 0.30774 0.0
H1302 H 0.72049 0.2842 0.36811 0.0
H1303 H 0.78828 0.34937 0.38331 0.0
C1304 C 0.77262 0.36341 0.41582 0.0
C1305 C 0.75218 0.36165 0.42948 0.0
C1306 C 0.73336 0.29102 0.35487 0.0
C1307 C 0.75149 0.32969 0.38507 0.0
C1308 C 0.73272 0.27715 0.33127 0.0
C1309 C 0.74899 0.28612 0.31381 0.0
C1310 C 0.75059 0.31368 0.36092 0.0
C1311 C 0.76608 0.30861 0.32076 0.0
C1312 C 0.77231 0.34759 0.39362 0.0
C1313 C 0.73166 0.34348 0.42039 0.0
N1314 N 0.76644 0.3216 0.34378 0.0
N1315 N 0.73183 0.32809 0.39867 0.0
H1316 H 0.44238 0.10118 0.21552 0.0
H1317 H 0.49399 0.00329 0.12369 0.0
H1318 H 0.44913 0.02541 0.23257 0.0
H1319 H 0.50023 0.08308 0.11226 0.0
H1320 H 0.48101 0.01249 0.16571 0.0
H1321 H 0.46689 0.09674 0.17977 0.0
C1322 C 0.44925 0.08376 0.21195 0.0
C1323 C 0.44334 0.06345 0.22676 0.0
C1324 C 0.48552 0.02811 0.15421 0.0
C1325 C 0.47122 0.05821 0.18594 0.0
C1326 C 0.49291 0.02283 0.13023 0.0
C1327 C 0.49791 0.04242 0.11456 0.0
C1328 C 0.48273 0.05309 0.16235 0.0
C1329 C 0.4964 0.06745 0.12386 0.0
C1330 C 0.46326 0.08125 0.19157 0.0
C1331 C 0.4529 0.04141 0.22142 0.0
N1332 N 0.48855 0.07203 0.14708 0.0
N1333 N 0.4661 0.03926 0.20127 0.0
H1334 H 0.73341 0.64095 0.8918 0.0
H1335 H 0.80026 0.76485 0.83206 0.0
H1336 H 0.78151 0.70366 0.93577 0.0
H1337 H 0.73701 0.71346 0.79748 0.0
H1338 H 0.79785 0.73983 0.86836 0.0
H1339 H 0.73876 0.66452 0.85497 0.0
C1340 C 0.74511 0.65968 0.89371 0.0
C1341 C 0.75691 0.67042 0.91693 0.0
C1342 C 0.78464 0.73397 0.85269 0.0
C1343 C 0.76324 0.69745 0.87477 0.0
C1344 C 0.78606 0.74815 0.83199 0.0
C1345 C 0.76893 0.74105 0.81168 0.0
C1346 C 0.76607 0.71249 0.85289 0.0
C1347 C 0.75081 0.71936 0.81254 0.0
C1348 C 0.74814 0.67314 0.87268 0.0
C1349 C 0.77192 0.69475 0.91826 0.0
N1350 N 0.74986 0.70585 0.83278 0.0
N1351 N 0.77469 0.70745 0.89744 0.0
H1352 H 0.80689 0.04738 0.94958 0.0
H1353 H 0.90953 0.00445 0.03083 0.0
H1354 H 0.81822 0.06138 0.03036 0.0
H1355 H 0.90739 0.00311 0.95012 0.0
H1356 H 0.86966 0.01435 0.03034 0.0
H1357 H 0.83742 0.02098 0.94912 0.0
C1358 C 0.81554 0.0446 0.96723 0.0
C1359 C 0.8104 0.05699 0.99 0.0
C1360 C 0.87772 0.01148 0.01268 0.0
C1361 C 0.84511 0.02685 0.9896 0.0
C1362 C 0.90042 0.00573 0.01295 0.0
C1363 C 0.91181 0.00344 0.99052 0.0
C1364 C 0.86648 0.01515 0.98982 0.0
C1365 C 0.89924 0.00505 0.96784 0.0
C1366 C 0.83295 0.02956 0.96695 0.0
C1367 C 0.82197 0.05258 0.01233 0.0
N1368 N 0.87733 0.01125 0.96809 0.0
N1369 N 0.83895 0.03808 0.01154 0.0
H1370 H 0.31065 0.47589 0.04105 0.0
H1371 H 0.44622 0.47364 0.01961 0.0
H1372 H 0.34274 0.41139 0.0549 0.0
H1373 H 0.42608 0.54375 0.04941 0.0
H1374 H 0.40552 0.45047 0.02334 0.0
H1375 H 0.35064 0.50133 0.03623 0.0
C1376 C 0.32608 0.46715 0.04318 0.0
C1377 C 0.32344 0.44155 0.04848 0.0
C1378 C 0.41 0.47095 0.02893 0.0
C1379 C 0.36875 0.47015 0.04236 0.0
C1380 C 0.43315 0.48422 0.02667 0.0
C1381 C 0.4395 0.5106 0.03442 0.0
C1382 C 0.39297 0.48423 0.03855 0.0
C1383 C 0.42185 0.52336 0.04341 0.0
C1384 C 0.34879 0.48164 0.04045 0.0
C1385 C 0.34397 0.43111 0.05102 0.0
N1386 N 0.39926 0.51003 0.0452 0.0
N1387 N 0.36573 0.44535 0.04766 0.0
H1388 H 0.34073 0.60057 0.80056 0.0
H1389 H 0.25609 0.67432 0.72514 0.0
H1390 H 0.32479 0.58604 0.72032 0.0
H1391 H 0.29419 0.7054 0.79623 0.0
H1392 H 0.27358 0.636 0.72633 0.0
H1393 H 0.31646 0.63355 0.80207 0.0
C1394 C 0.332 0.60418 0.78327 0.0
C1395 C 0.33497 0.5907 0.76023 0.0
C1396 C 0.27783 0.6511 0.74179 0.0
C1397 C 0.307 0.62822 0.76191 0.0
C1398 C 0.2677 0.67284 0.74125 0.0
C1399 C 0.27382 0.6931 0.76057 0.0
C1400 C 0.29389 0.64953 0.76194 0.0
C1401 C 0.28915 0.69029 0.78087 0.0
C1402 C 0.31818 0.62302 0.78417 0.0
C1403 C 0.32318 0.59616 0.73845 0.0
N1404 N 0.29873 0.66896 0.78099 0.0
N1405 N 0.30971 0.61453 0.73981 0.0
H1406 H 0.20494 0.56329 0.49627 0.0
H1407 H 0.07899 0.58483 0.53952 0.0
H1408 H 0.19437 0.63501 0.53385 0.0
H1409 H 0.08561 0.52761 0.47908 0.0
H1410 H 0.12187 0.6015 0.5405 0.0
H1411 H 0.16163 0.54766 0.4926 0.0
C1412 C 0.19351 0.57571 0.50378 0.0
C1413 C 0.20319 0.60043 0.51547 0.0
C1414 C 0.11391 0.5854 0.52692 0.0
C1415 C 0.1539 0.5827 0.5114 0.0
C1416 C 0.08948 0.5758 0.52642 0.0
C1417 C 0.0788 0.55476 0.50924 0.0
C1418 C 0.12781 0.57363 0.5104 0.0
C1419 C 0.09318 0.54393 0.49255 0.0
C1420 C 0.16885 0.56685 0.50154 0.0
C1421 C 0.18762 0.61582 0.5247 0.0
N1422 N 0.11707 0.55335 0.4937 0.0
N1423 N 0.16372 0.60663 0.52263 0.0
H1424 H 0.69513 0.96214 0.80539 0.0
H1425 H 0.75877 0.86762 0.72103 0.0
H1426 H 0.68141 0.94242 0.7253 0.0
H1427 H 0.75819 0.86949 0.80167 0.0
H1428 H 0.74054 0.90535 0.72296 0.0
H1429 H 0.72704 0.93741 0.80459 0.0
C1430 C 0.69898 0.95281 0.78764 0.0
C1431 C 0.68536 0.95386 0.76545 0.0
C1432 C 0.74481 0.89781 0.74029 0.0
C1433 C 0.72187 0.92611 0.76437 0.0
C1434 C 0.75533 0.8764 0.73921 0.0
C1435 C 0.75946 0.86525 0.76118 0.0
C1436 C 0.73825 0.90792 0.76349 0.0
C1437 C 0.75494 0.87743 0.78428 0.0
C1438 C 0.71718 0.9388 0.7872 0.0
C1439 C 0.69117 0.94167 0.74292 0.0
N1440 N 0.7441 0.89792 0.78482 0.0
N1441 N 0.7089 0.92818 0.74299 0.0
H1442 H 0.69402 0.93918 0.55345 0.0
H1443 H 0.61955 0.03486 0.49617 0.0
H1444 H 0.71683 0.98326 0.49234 0.0
H1445 H 0.5976 0.99071 0.55736 0.0
H1446 H 0.65705 0.01924 0.4968 0.0
H1447 H 0.66023 0.96055 0.55723 0.0
C1448 C 0.69198 0.95342 0.54085 0.0
C1449 C 0.70821 0.95929 0.52241 0.0
C1450 C 0.64414 0.01317 0.51025 0.0
C1451 C 0.66943 0.98387 0.52665 0.0
C1452 C 0.6228 0.02215 0.50994 0.0
C1453 C 0.60548 0.01391 0.52664 0.0
C1454 C 0.64809 0.99578 0.52733 0.0
C1455 C 0.61048 -0.00259 0.54409 0.0
C1456 C 0.67266 0.96566 0.54306 0.0
C1457 C 0.7047 0.97804 0.50675 0.0
N1458 N 0.63126 0.98874 0.54386 0.0
N1459 N 0.68561 0.98955 0.50913 0.0
H1460 H 0.35366 0.46196 0.75817 0.0
H1461 H 0.25394 0.33897 0.70767 0.0
H1462 H 0.31415 0.45475 0.6863 0.0
H1463 H 0.30199 0.34238 0.77293 0.0
H1464 H 0.27548 0.38128 0.69933 0.0
H1465 H 0.33445 0.4183 0.76389 0.0
C1466 C 0.3409 0.4512 0.74355 0.0
C1467 C 0.33541 0.46209 0.72174 0.0
C1468 C 0.28141 0.37272 0.71538 0.0
C1469 C 0.31331 0.41192 0.72825 0.0
C1470 C 0.26912 0.34862 0.72017 0.0
C1471 C 0.27616 0.33736 0.74111 0.0
C1472 C 0.30075 0.38565 0.73178 0.0
C1473 C 0.29597 0.3505 0.75663 0.0
C1474 C 0.33 0.42619 0.74682 0.0
C1475 C 0.31887 0.44711 0.70341 0.0
N1476 N 0.30749 0.37406 0.75175 0.0
N1477 N 0.30829 0.42279 0.70714 0.0
H1478 H 0.16603 0.55218 0.19014 0.0
H1479 H 0.23227 0.67282 0.28388 0.0
H1480 H 0.15896 0.5592 0.27026 0.0
H1481 H 0.22287 0.67567 0.20376 0.0
H1482 H 0.20978 0.62887 0.27869 0.0
H1483 H 0.19078 0.59544 0.1944 0.0
C1484 C 0.1697 0.56281 0.20862 0.0
C1485 C 0.1604 0.55213 0.22989 0.0
C1486 C 0.21268 0.63909 0.26223 0.0
C1487 C 0.18877 0.60139 0.23486 0.0
C1488 C 0.22564 0.66419 0.26513 0.0
C1489 C 0.2294 0.67807 0.24421 0.0
C1490 C 0.20349 0.62762 0.23823 0.0
C1491 C 0.22032 0.66575 0.22042 0.0
C1492 C 0.18377 0.58747 0.21101 0.0
C1493 C 0.16567 0.56674 0.25335 0.0
N1494 N 0.20774 0.64118 0.21807 0.0
N1495 N 0.17958 0.5906 0.25522 0.0
H1496 H 0.46129 0.7046 0.44625 0.0
H1497 H 0.54978 0.6142 0.48453 0.0
H1498 H 0.52622 0.69939 0.41004 0.0
H1499 H 0.47462 0.59653 0.49704 0.0
H1500 H 0.54357 0.65162 0.46446 0.0
H1501 H 0.46797 0.67036 0.47162 0.0
C1502 C 0.47697 0.69636 0.44374 0.0
C1503 C 0.49317 0.70471 0.42595 0.0
C1504 C 0.52847 0.63963 0.47174 0.0
C1505 C 0.50102 0.66606 0.455 0.0
C1506 C 0.532 0.61831 0.48335 0.0
C1507 C 0.51264 0.60202 0.4923 0.0
C1508 C 0.50547 0.6449 0.46924 0.0
C1509 C 0.49001 0.60844 0.4902 0.0
C1510 C 0.48072 0.67684 0.45814 0.0
C1511 C 0.51318 0.69338 0.4234 0.0
N1512 N 0.48702 0.62938 0.4788 0.0
N1513 N 0.51658 0.67471 0.43782 0.0
H1514 H 0.61504 0.27027 0.64567 0.0
H1515 H 0.70079 0.31 0.77101 0.0
H1516 H 0.59528 0.31385 0.71061 0.0
H1517 H 0.70524 0.2474 0.71544 0.0
H1518 H 0.66516 0.31681 0.74723 0.0
H1519 H 0.65195 0.26764 0.66879 0.0
C1520 C 0.61851 0.27944 0.66477 0.0
C1521 C 0.60194 0.29212 0.6763 0.0
C1522 C 0.67405 0.30167 0.74027 0.0
C1523 C 0.64423 0.28908 0.70293 0.0
C1524 C 0.69431 0.29779 0.75379 0.0
C1525 C 0.70602 0.27829 0.74499 0.0
C1526 C 0.66573 0.28604 0.71779 0.0
C1527 C 0.69693 0.2629 0.72268 0.0
C1528 C 0.63957 0.27783 0.67799 0.0
C1529 C 0.60751 0.30374 0.70107 0.0
N1530 N 0.67739 0.26718 0.7098 0.0
N1531 N 0.62821 0.30189 0.71363 0.0
H1532 H 0.95039 0.32643 0.91973 0.0
H1533 H 0.03811 0.45441 0.98246 0.0
H1534 H 0.02687 0.34036 0.91524 0.0
H1535 H 0.96182 0.44741 0.97108 0.0
H1536 H 0.03422 0.41089 0.96186 0.0
H1537 H 0.95424 0.36904 0.94248 0.0
C1538 C 0.96801 0.33841 0.92358 0.0
C1539 C 0.98835 0.32984 0.9155 0.0
C1540 C 0.01834 0.41888 0.9639 0.0
C1541 C 0.99285 0.37861 0.9416 0.0
C1542 C 0.02052 0.44371 0.97574 0.0
C1543 C 0.00025 0.45465 0.97843 0.0
C1544 C 0.99573 0.40477 0.95484 0.0
C1545 C 0.97794 0.43983 0.96931 0.0
C1546 C 0.97017 0.36276 0.93652 0.0
C1547 C 0.01071 0.34622 0.92103 0.0
N1548 N 0.97628 0.41564 0.95794 0.0
N1549 N 0.01236 0.36981 0.93377 0.0
H1550 H 0.97967 0.75091 0.22143 0.0
H1551 H 0.86892 0.82 0.24217 0.0
H1552 H 0.97429 0.82329 0.19439 0.0
H1553 H 0.87396 0.74793 0.26988 0.0
H1554 H 0.90926 0.82339 0.22789 0.0
H1555 H 0.94264 0.75111 0.24239 0.0
C1556 C 0.97081 0.76692 0.22002 0.0
C1557 C 0.98003 0.78701 0.20595 0.0
C1558 C 0.90167 0.80693 0.23729 0.0
C1559 C 0.93762 0.78734 0.22986 0.0
C1560 C 0.87867 0.80504 0.2455 0.0
C1561 C 0.86814 0.7836 0.25707 0.0
C1562 C 0.91414 0.78715 0.24057 0.0
C1563 C 0.88148 0.76475 0.26096 0.0
C1564 C 0.94966 0.76703 0.232 0.0
C1565 C 0.9678 0.8073 0.20488 0.0
N1566 N 0.90374 0.76685 0.25253 0.0
N1567 N 0.94718 0.80686 0.21653 0.0
H1568 H 0.48392 0.32528 0.07325 0.0
H1569 H 0.5435 0.47209 0.06414 0.0
H1570 H 0.54545 0.36726 0.11961 0.0
H1571 H 0.48334 0.43108 0.01526 0.0
H1572 H 0.54601 0.43263 0.08229 0.0
H1573 H 0.48475 0.36252 0.04977 0.0
C1574 C 0.49768 0.34227 0.07843 0.0
C1575 C 0.51454 0.34321 0.09859 0.0
C1576 C 0.53234 0.43212 0.06748 0.0
C1577 C 0.51557 0.38586 0.07176 0.0
C1578 C 0.53088 0.4547 0.05707 0.0
C1579 C 0.51304 0.45495 0.03827 0.0
C1580 C 0.51572 0.40951 0.05924 0.0
C1581 C 0.49737 0.43175 0.02972 0.0
C1582 C 0.49814 0.36351 0.06498 0.0
C1583 C 0.532 0.36568 0.10435 0.0
N1584 N 0.49892 0.40997 0.04046 0.0
N1585 N 0.53197 0.38611 0.0911 0.0
H1586 H 0.97882 0.29426 0.32702 0.0
H1587 H 0.84107 0.29967 0.33599 0.0
H1588 H 0.94412 0.29547 0.39683 0.0
H1589 H 0.87831 0.31133 0.26861 0.0
H1590 H 0.87896 0.29946 0.35891 0.0
H1591 H 0.94242 0.30113 0.30533 0.0
C1592 C 0.96356 0.29597 0.33779 0.0
C1593 C 0.96448 0.29411 0.36377 0.0
C1594 C 0.87893 0.30235 0.33918 0.0
C1595 C 0.92278 0.30203 0.33906 0.0
C1596 C 0.85732 0.30255 0.32612 0.0
C1597 C 0.85662 0.30544 0.3004 0.0
C1598 C 0.89996 0.30476 0.32632 0.0
C1599 C 0.87813 0.30906 0.28847 0.0
C1600 C 0.94282 0.30001 0.32541 0.0
C1601 C 0.94421 0.29666 0.37678 0.0
N1602 N 0.89892 0.30834 0.30147 0.0
N1603 N 0.92416 0.30034 0.36427 0.0
H1604 H 0.97044 0.69063 0.59414 0.0
H1605 H 0.00195 0.60837 0.47202 0.0
H1606 H 0.9947 0.72402 0.52732 0.0
H1607 H 0.98568 0.57771 0.54208 0.0
H1608 H 0.99542 0.65014 0.49023 0.0
H1609 H 0.97153 0.64826 0.57347 0.0
C1610 C 0.97576 0.68905 0.57501 0.0
C1611 C 0.98271 0.71097 0.56252 0.0
C1612 C 0.99336 0.63429 0.50167 0.0
C1613 C 0.98417 0.66243 0.5388 0.0
C1614 C -0.0029 0.61053 0.4913 0.0
C1615 C 0.99492 0.58989 0.50588 0.0
C1616 C 0.98717 0.63725 0.52669 0.0
C1617 C 0.98834 0.59345 0.53059 0.0
C1618 C 0.97646 0.66482 0.56325 0.0
C1619 C 0.98932 0.70768 0.53771 0.0
N1620 N 0.98473 0.6167 0.54027 0.0
N1621 N 0.99006 0.68386 0.52671 0.0
H1622 H 0.59332 0.79784 0.84257 0.0
H1623 H 0.67021 0.71574 0.76007 0.0
H1624 H 0.57041 0.71676 0.81931 0.0
H1625 H 0.68858 0.79826 0.77599 0.0
H1626 H 0.63273 0.7159 0.77996 0.0
H1627 H 0.62764 0.79852 0.81707 0.0
C1628 C 0.59546 0.78017 0.83205 0.0
C1629 C 0.57901 0.75716 0.83322 0.0
C1630 C 0.64485 0.734 0.77889 0.0
C1631 C 0.61836 0.75781 0.80395 0.0
C1632 C 0.66628 0.73394 0.76748 0.0
C1633 C 0.68273 0.75701 0.76648 0.0
C1634 C 0.63986 0.75727 0.78957 0.0
C1635 C 0.67655 0.77997 0.77636 0.0
C1636 C 0.61505 0.7806 0.81742 0.0
C1637 C 0.58266 0.73492 0.81905 0.0
N1638 N 0.65573 0.77949 0.78769 0.0
N1639 N 0.60202 0.73576 0.80514 0.0
H1640 H 0.41087 0.5189 0.66569 0.0
H1641 H 0.5174 0.59093 0.59069 0.0
H1642 H 0.44972 0.59595 0.68908 0.0
H1643 H 0.48183 0.512 0.57168 0.0
H1644 H 0.49134 0.59424 0.6254 0.0
H1645 H 0.43512 0.51716 0.62959 0.0
C1646 C 0.42447 0.53551 0.66322 0.0
C1647 C 0.42831 0.55758 0.68054 0.0
C1648 C 0.48916 0.57624 0.61355 0.0
C1649 C 0.45625 0.55568 0.63913 0.0
C1650 C 0.50401 0.57436 0.59376 0.0
C1651 C 0.50162 0.55121 0.57825 0.0
C1652 C 0.47185 0.55479 0.61782 0.0
C1653 C 0.48405 0.5303 0.58301 0.0
C1654 C 0.43835 0.53448 0.64257 0.0
C1655 C 0.44618 0.57851 0.67627 0.0
N1656 N 0.46986 0.53258 0.60238 0.0
N1657 N 0.45952 0.57702 0.65602 0.0
H1658 H 0.80675 0.16794 0.95155 0.0
H1659 H 0.74064 0.24974 0.86477 0.0
H1660 H 0.73019 0.1586 0.94089 0.0
H1661 H 0.81047 0.23486 0.85045 0.0
H1662 H 0.73988 0.22499 0.90091 0.0
H1663 H 0.81118 0.20013 0.92138 0.0
C1664 C 0.79091 0.17268 0.9429 0.0
C1665 C 0.76806 0.16045 0.94851 0.0
C1666 C 0.7555 0.22745 0.89005 0.0
C1667 C 0.77303 0.19741 0.91468 0.0
C1668 C 0.75602 0.24171 0.86958 0.0
C1669 C 0.77553 0.24403 0.85457 0.0
C1670 C 0.77471 0.21566 0.89556 0.0
C1671 C 0.79502 0.23328 0.86154 0.0
C1672 C 0.79347 0.19102 0.92579 0.0
C1673 C 0.74813 0.16735 0.9369 0.0
N1674 N 0.79406 0.21931 0.88151 0.0
N1675 N 0.75109 0.18542 0.92059 0.0
H1676 H 0.03116 0.44562 0.1838 0.0
H1677 H 0.04218 0.53665 0.07463 0.0
H1678 H 0.09801 0.49011 0.16445 0.0
H1679 H 0.98228 0.47365 0.07519 0.0
H1680 H 0.06187 0.52102 0.10955 0.0
H1681 H 0.01183 0.45596 0.14533 0.0
C1682 C 0.04181 0.45726 0.17136 0.0
C1683 C 0.06615 0.46728 0.1775 0.0
C1684 C 0.04449 0.51047 0.10195 0.0
C1685 C 0.0442 0.47936 0.13392 0.0
C1686 C 0.03326 0.5194 0.08204 0.0
C1687 C 0.01077 0.5062 0.07192 0.0
C1688 C 0.03291 0.48847 0.11214 0.0
C1689 C -0.00028 0.48427 0.08251 0.0
C1690 C 0.03078 0.46315 0.14946 0.0
C1691 C 0.07914 0.48218 0.16066 0.0
N1692 N 0.01088 0.4761 0.10222 0.0
N1693 N 0.06794 0.488 0.13981 0.0
H1694 H 0.73033 0.86382 0.45232 0.0
H1695 H 0.80528 0.79938 0.35216 0.0
H1696 H 0.79676 0.84171 0.47245 0.0
H1697 H 0.72978 0.79705 0.33974 0.0
H1698 H 0.80364 0.81794 0.39546 0.0
H1699 H 0.73077 0.84229 0.40992 0.0
C1700 C 0.74494 0.85436 0.44786 0.0
C1701 C 0.76354 0.85457 0.46594 0.0
C1702 C 0.78742 0.81322 0.38326 0.0
C1703 C 0.76429 0.83021 0.41748 0.0
C1704 C 0.78836 0.80272 0.35853 0.0
C1705 C 0.76765 0.79667 0.34228 0.0
C1706 C 0.7657 0.81807 0.39169 0.0
C1707 C 0.74619 0.80133 0.35161 0.0
C1708 C 0.74516 0.84204 0.4237 0.0
C1709 C 0.78202 0.84196 0.45914 0.0
N1710 N 0.74581 0.81194 0.37563 0.0
N1711 N 0.78203 0.83048 0.43539 0.0
H1712 H 0.4437 0.49495 0.78385 0.0
H1713 H 0.43157 0.52071 0.93162 0.0
H1714 H 0.40396 0.549 0.81704 0.0
H1715 H 0.48728 0.48581 0.90077 0.0
H1716 H 0.41731 0.52588 0.88905 0.0
H1717 H 0.457 0.48729 0.82604 0.0
C1718 C 0.43793 0.50536 0.79999 0.0
C1719 C 0.42274 0.52269 0.79691 0.0
C1720 C 0.43256 0.51693 0.89157 0.0
C1721 C 0.43751 0.51363 0.84515 0.0
C1722 C 0.44055 0.51375 0.91583 0.0
C1723 C 0.46064 0.50286 0.91964 0.0
C1724 C 0.44465 0.509 0.87098 0.0
C1725 C 0.47172 0.49431 0.89857 0.0
C1726 C 0.44548 0.50092 0.82404 0.0
C1727 C 0.41577 0.53559 0.81851 0.0
N1728 N 0.46362 0.49763 0.87509 0.0
N1729 N 0.42308 0.53066 0.8417 0.0
H1730 H 0.77285 0.15017 0.08852 0.0
H1731 H 0.8114 0.28682 0.16894 0.0
H1732 H 0.81144 0.21633 0.05707 0.0
H1733 H 0.75717 0.22509 0.18872 0.0
H1734 H 0.81366 0.26167 0.12855 0.0
H1735 H 0.77 0.17727 0.12691 0.0
C1736 C 0.7809 0.1704 0.08974 0.0
C1737 C 0.79238 0.18101 0.06951 0.0
C1738 C 0.80114 0.25381 0.14169 0.0
C1739 C 0.78899 0.21227 0.11349 0.0
C1740 C 0.79979 0.26815 0.16463 0.0
C1741 C 0.78423 0.25787 0.18218 0.0
C1742 C 0.78696 0.22905 0.13656 0.0
C1743 C 0.76955 0.23364 0.17579 0.0
C1744 C 0.7791 0.18592 0.11163 0.0
C1745 C 0.80239 0.20738 0.0722 0.0
N1746 N 0.77145 0.21997 0.15361 0.0
N1747 N 0.80049 0.22216 0.09385 0.0
H1748 H 0.08422 0.42614 0.31875 0.0
H1749 H 0.99194 0.50002 0.38693 0.0
H1750 H 0.05477 0.48583 0.28766 0.0
H1751 H 0.03671 0.45734 0.42497 0.0
H1752 H 0.00678 0.4859 0.34681 0.0
H1753 H 0.05896 0.42868 0.3542 0.0
C1754 C 0.07223 0.43953 0.31921 0.0
C1755 C 0.07189 0.45612 0.3005 0.0
C1756 C 0.01305 0.47932 0.36392 0.0
C1757 C 0.04297 0.45903 0.34079 0.0
C1758 C 0.00452 0.48728 0.38673 0.0
C1759 C 0.01344 0.48011 0.40917 0.0
C1760 C 0.03044 0.46401 0.3637 0.0
C1761 C 0.02966 0.46354 0.40802 0.0
C1762 C 0.05786 0.44099 0.33944 0.0
C1763 C 0.0559 0.47299 0.30193 0.0
N1764 N 0.03784 0.45623 0.38566 0.0
N1765 N 0.04222 0.47416 0.32185 0.0
H1766 H 0.77313 0.87285 0.59799 0.0
H1767 H 0.70435 0.75661 0.66748 0.0
H1768 H 0.70282 0.82957 0.57271 0.0
H1769 H 0.77335 0.80238 0.6936 0.0
H1770 H 0.70294 0.78341 0.63297 0.0
H1771 H 0.77313 0.84745 0.63344 0.0
C1772 C 0.75767 0.858 0.59988 0.0
C1773 C 0.73795 0.85331 0.58229 0.0
C1774 C 0.71833 0.78767 0.64634 0.0
C1775 C 0.73784 0.82408 0.62295 0.0
C1776 C 0.71913 0.77239 0.666 0.0
C1777 C 0.73895 0.77738 0.6834 0.0
C1778 C 0.73757 0.80797 0.64405 0.0
C1779 C 0.75764 0.79802 0.68069 0.0
C1780 C 0.75767 0.8435 0.62018 0.0
C1781 C 0.71842 0.83383 0.58578 0.0
N1782 N 0.75652 0.8125 0.66135 0.0
N1783 N 0.71887 0.81989 0.60568 0.0
H1784 H 0.70949 0.47239 0.56085 0.0
H1785 H 0.62233 0.54208 0.4847 0.0
H1786 H 0.69131 0.45729 0.48097 0.0
H1787 H 0.62413 0.54119 0.5652 0.0
H1788 H 0.65655 0.52106 0.48354 0.0
H1789 H 0.68598 0.50613 0.56287 0.0
C1790 C 0.70064 0.47624 0.54373 0.0
C1791 C 0.70204 0.46177 0.52076 0.0
C1792 C 0.64977 0.52593 0.50152 0.0
C1793 C 0.67555 0.50051 0.52291 0.0
C1794 C 0.63039 0.53814 0.50223 0.0
C1795 C 0.62022 0.54291 0.52505 0.0
C1796 C 0.65893 0.51848 0.52379 0.0
C1797 C 0.63136 0.53754 0.5472 0.0
C1798 C 0.68733 0.49554 0.54491 0.0
C1799 C 0.69041 0.46771 0.49914 0.0
N1800 N 0.64993 0.52515 0.546 0.0
N1801 N 0.67758 0.48657 0.50077 0.0
H1802 H 0.20205 0.0824 0.47458 0.0
H1803 H 0.07049 0.0755 0.52136 0.0
H1804 H 0.18092 0.14111 0.52455 0.0
H1805 H 0.08859 0.01727 0.46851 0.0
H1806 H 0.11202 0.09777 0.5252 0.0
H1807 H 0.1616 0.05655 0.47402 0.0
C1808 C 0.18894 0.08983 0.48545 0.0
C1809 C 0.19481 0.11401 0.49952 0.0
C1810 C 0.10703 0.08006 0.51285 0.0
C1811 C 0.1487 0.08457 0.49906 0.0
C1812 C 0.08331 0.06727 0.51073 0.0
C1813 C 0.07615 0.04459 0.49452 0.0
C1814 C 0.12376 0.07019 0.49853 0.0
C1815 C 0.09345 0.03479 0.48116 0.0
C1816 C 0.16589 0.07506 0.48514 0.0
C1817 C 0.17718 0.12267 0.51331 0.0
N1818 N 0.11652 0.04777 0.48332 0.0
N1819 N 0.15495 0.10799 0.51268 0.0
H1820 H 0.16985 0.92944 0.7094 0.0
H1821 H 0.26787 0.86191 0.77168 0.0
H1822 H 0.20515 0.95493 0.78301 0.0
H1823 H 0.22145 0.82827 0.70626 0.0
H1824 H 0.25042 0.90029 0.77216 0.0
H1825 H 0.19356 0.89616 0.70451 0.0
C1826 C 0.18267 0.92814 0.72451 0.0
C1827 C 0.18535 0.94487 0.74676 0.0
C1828 C 0.24427 0.88461 0.75754 0.0
C1829 C 0.21266 0.90683 0.74119 0.0
C1830 C 0.25436 0.86278 0.75712 0.0
C1831 C 0.24595 0.84175 0.73903 0.0
C1832 C 0.22578 0.88544 0.73964 0.0
C1833 C 0.22831 0.84392 0.72071 0.0
C1834 C 0.19621 0.90911 0.72168 0.0
C1835 C 0.20233 0.94231 0.76562 0.0
N1836 N 0.21871 0.86527 0.72159 0.0
N1837 N 0.21529 0.92357 0.76245 0.0
H1838 H 0.30434 0.93917 0.9767 0.0
H1839 H 0.42728 0.01231 0.04922 0.0
H1840 H 0.31259 0.96043 0.05693 0.0
H1841 H 0.42003 0.98427 0.97029 0.0
H1842 H 0.38461 -0.00297 0.05172 0.0
H1843 H 0.34587 0.95931 0.97349 0.0
C1844 C 0.31486 0.94819 0.99367 0.0
C1845 C 0.30501 0.94795 0.01719 0.0
C1846 C 0.39234 0.99431 0.03384 0.0
C1847 C 0.35269 0.97103 0.01357 0.0
C1848 C 0.41674 0.00304 0.03235 0.0
C1849 C 0.42735 -0.00059 0.0095 0.0
C1850 C 0.37839 0.98188 0.01235 0.0
C1851 C 0.41269 0.98737 0.98832 0.0
C1852 C 0.33861 0.95967 0.9918 0.0
C1853 C 0.31948 0.96007 0.03846 0.0
N1854 N 0.38896 0.97895 0.99029 0.0
N1855 N 0.34267 0.97103 0.03616 0.0
H1856 H 0.83365 0.56809 0.70646 0.0
H1857 H 0.74388 0.64737 0.77041 0.0
H1858 H 0.82712 0.58182 0.78632 0.0
H1859 H 0.76272 0.65147 0.69368 0.0
H1860 H 0.76488 0.61204 0.77319 0.0
H1861 H 0.79959 0.58862 0.69893 0.0
C1862 C 0.82493 0.57522 0.72238 0.0
C1863 C 0.83346 0.57373 0.74706 0.0
C1864 C 0.76401 0.6203 0.75557 0.0
C1865 C 0.79447 0.59672 0.73859 0.0
C1866 C 0.75188 0.64032 0.75392 0.0
C1867 C 0.75207 0.6526 0.73196 0.0
C1868 C 0.7765 0.61274 0.73517 0.0
C1869 C 0.76248 0.64265 0.71106 0.0
C1870 C 0.80549 0.58683 0.71806 0.0
C1871 C 0.82141 0.58302 0.767 0.0
N1872 N 0.77477 0.62356 0.71332 0.0
N1873 N 0.80262 0.59426 0.76232 0.0
H1874 H 0.8394 0.62977 0.94743 0.0
H1875 H 0.89687 0.5307 0.02077 0.0
H1876 H 0.8055 0.59048 0.00704 0.0
H1877 H 0.9275 0.56677 0.95791 0.0
H1878 H 0.86168 0.54971 0.01424 0.0
H1879 H 0.87053 0.60464 0.94945 0.0
C1880 C 0.83846 0.61579 0.96091 0.0
C1881 C 0.81991 0.61236 0.97722 0.0
C1882 C 0.87599 0.55324 0.00172 0.0
C1883 C 0.85558 0.58348 0.97966 0.0
C1884 C 0.896 0.54234 0.0054 0.0
C1885 C 0.91509 0.5474 0.98997 0.0
C1886 C 0.87523 0.56935 0.98255 0.0
C1887 C 0.91318 0.56257 0.97033 0.0
C1888 C 0.85623 0.60138 0.96201 0.0
C1889 C 0.81954 0.59384 0.99419 0.0
N1890 N 0.8937 0.57319 0.96731 0.0
N1891 N 0.83722 0.5802 0.99508 0.0
H1892 H 0.14814 0.10261 0.78014 0.0
H1893 H 0.27334 0.19785 0.81277 0.0
H1894 H 0.21037 0.0744 0.80406 0.0
H1895 H 0.22352 0.20611 0.75264 0.0
H1896 H 0.24802 0.1562 0.81864 0.0
H1897 H 0.17307 0.14524 0.77989 0.0
C1898 C 0.16699 0.10544 0.78567 0.0
C1899 C 0.17727 0.08489 0.79192 0.0
C1900 C 0.24266 0.16735 0.80435 0.0
C1901 C 0.20575 0.13361 0.79177 0.0
C1902 C 0.257 0.19102 0.80101 0.0
C1903 C 0.25028 0.20552 0.78243 0.0
C1904 C 0.22135 0.15858 0.78931 0.0
C1905 C 0.22908 0.19579 0.76753 0.0
C1906 C 0.18119 0.12973 0.78538 0.0
C1907 C 0.20182 0.08971 0.79891 0.0
N1908 N 0.21527 0.17302 0.77142 0.0
N1909 N 0.2153 0.11365 0.79864 0.0
H1910 H 0.36946 0.9556 0.33159 0.0
H1911 H 0.2937 0.84337 0.23365 0.0
H1912 H 0.35355 0.96342 0.25346 0.0
H1913 H 0.30957 0.83402 0.31147 0.0
H1914 H 0.31572 0.88746 0.24088 0.0
H1915 H 0.34782 0.911 0.32484 0.0
C1916 C 0.36145 0.94795 0.31303 0.0
C1917 C 0.36329 0.96326 0.29306 0.0
C1918 C 0.3144 0.87579 0.25639 0.0
C1919 C 0.33853 0.91236 0.28524 0.0
C1920 C 0.30179 0.85055 0.25229 0.0
C1921 C 0.29974 0.83489 0.27199 0.0
C1922 C 0.32507 0.88556 0.28037 0.0
C1923 C 0.31065 0.84537 0.29572 0.0
C1924 C 0.3491 0.9225 0.3092 0.0
C1925 C 0.35258 0.95234 0.26941 0.0
N1926 N 0.32286 0.87007 0.29925 0.0
N1927 N 0.34065 0.92759 0.26618 0.0
H1928 H 0.50745 0.33896 0.59599 0.0
H1929 H 0.56838 0.46651 0.53841 0.0
H1930 H 0.58255 0.37298 0.60727 0.0
H1931 H 0.49215 0.43878 0.53671 0.0
H1932 H 0.57444 0.42853 0.55769 0.0
H1933 H 0.50226 0.37165 0.56852 0.0
C1934 C 0.5229 0.35318 0.59255 0.0
C1935 C 0.54544 0.35341 0.60419 0.0
C1936 C 0.5564 0.43066 0.5529 0.0
C1937 C 0.53957 0.39089 0.57276 0.0
C1938 C 0.55289 0.45233 0.54182 0.0
C1939 C 0.52968 0.45603 0.5362 0.0
C1940 C 0.53657 0.41253 0.55839 0.0
C1941 C 0.51035 0.43688 0.54093 0.0
C1942 C 0.5199 0.37185 0.57687 0.0
C1943 C 0.56481 0.3722 0.59888 0.0
N1944 N 0.51423 0.41605 0.55194 0.0
N1945 N 0.5614 0.3903 0.58368 0.0
H1946 H 0.40331 0.71059 0.35678 0.0
H1947 H 0.34772 0.75555 0.23277 0.0
H1948 H 0.44554 0.75305 0.30422 0.0
H1949 H 0.3059 0.7296 0.29354 0.0
H1950 H 0.38361 0.74922 0.256 0.0
H1951 H 0.36719 0.71194 0.33109 0.0
C1952 C 0.40501 0.72001 0.33974 0.0
C1953 C 0.42746 0.73187 0.33271 0.0
C1954 C 0.36659 0.74494 0.2643 0.0
C1955 C 0.38627 0.73347 0.30329 0.0
C1956 C 0.34615 0.74849 0.25103 0.0
C1957 C 0.32403 0.74357 0.2616 0.0
C1958 C 0.36476 0.73612 0.28814 0.0
C1959 C 0.3228 0.73429 0.28518 0.0
C1960 C 0.38439 0.72085 0.32515 0.0
C1961 C 0.42859 0.74381 0.31045 0.0
N1962 N 0.34292 0.73088 0.29773 0.0
N1963 N 0.40828 0.74434 0.29656 0.0
H1964 H 0.98491 0.73221 0.08341 0.0
H1965 H 0.05211 0.61404 0.0648 0.0
H1966 H 0.05034 0.72907 0.12537 0.0
H1967 H 0.98334 0.61493 0.02853 0.0
H1968 H 0.05321 0.65729 0.08525 0.0
H1969 H 0.98533 0.69015 0.06133 0.0
C1970 C -0.00063 0.72269 0.08798 0.0
C1971 C 0.01756 0.73416 0.10633 0.0
C1972 C 0.03792 0.648 0.07276 0.0
C1973 C 0.0182 0.68598 0.08107 0.0
C1974 C 0.03731 0.62333 0.06102 0.0
C1975 C 0.01756 0.61073 0.04501 0.0
C1976 C 0.01867 0.66017 0.06837 0.0
C1977 C -0.00111 0.62376 0.04084 0.0
C1978 C -0.0004 0.69866 0.07536 0.0
C1979 C 0.03588 0.72092 0.11143 0.0
N1980 N -0.0001 0.64769 0.05246 0.0
N1981 N 0.03573 0.69754 0.09887 0.0
H1982 H 0.05492 0.28195 0.81531 0.0
H1983 H 0.16446 0.21499 0.78506 0.0
H1984 H 0.05683 0.2042 0.82967 0.0
H1985 H 0.15637 0.28669 0.75841 0.0
H1986 H 0.12405 0.20958 0.79951 0.0
H1987 H 0.09106 0.28325 0.79254 0.0
C1988 C 0.06284 0.26509 0.81352 0.0
C1989 C 0.05297 0.24302 0.82463 0.0
C1990 C 0.13098 0.22635 0.79023 0.0
C1991 C 0.09441 0.24443 0.79872 0.0
C1992 C 0.15402 0.22942 0.78198 0.0
C1993 C 0.16372 0.25139 0.77072 0.0
C1994 C 0.11771 0.24556 0.78745 0.0
C1995 C 0.14952 0.26951 0.76711 0.0
C1996 C 0.08345 0.26582 0.80046 0.0
C1997 C 0.06389 0.22167 0.82154 0.0
N1998 N 0.12729 0.26634 0.77572 0.0
N1999 N 0.08416 0.22301 0.80911 0.0
H2000 H 0.5063 0.69587 0.90549 0.0
H2001 H 0.51945 0.62607 0.02935 0.0
H2002 H 0.53322 0.73684 0.9777 0.0
H2003 H 0.48296 0.58774 0.95961 0.0
H2004 H 0.52399 0.66697 0.01131 0.0
H2005 H 0.4975 0.6561 0.92528 0.0
C2006 C 0.51036 0.69652 0.92552 0.0
C2007 C 0.52062 0.71974 0.93993 0.0
C2008 C 0.51481 0.64962 6e-05 0.0
C2009 C 0.51056 0.67417 0.96276 0.0
C2010 C 0.51215 0.62624 0.01037 0.0
C2011 C 0.50093 0.60334 0.99595 0.0
C2012 C 0.50634 0.6501 0.9751 0.0
C2013 C 0.49183 0.60483 0.97145 0.0
C2014 C 0.50525 0.67379 0.93684 0.0
C2015 C 0.52537 0.71939 0.96584 0.0
N2016 N 0.49492 0.62774 0.96175 0.0
N2017 N 0.52041 0.69695 0.9764 0.0
H2018 H 0.08071 0.761 0.60448 0.0
H2019 H 0.1475 0.73226 0.73005 0.0
H2020 H 0.04929 0.75953 0.67615 0.0
H2021 H 0.18304 0.74893 0.66258 0.0
H2022 H 0.10979 0.73634 0.70891 0.0
H2023 H 0.11698 0.75168 0.62408 0.0
C2024 C 0.08143 0.75875 0.62436 0.0
C2025 C 0.06195 0.76118 0.63872 0.0
C2026 C 0.12579 0.73889 0.69866 0.0
C2027 C 0.1034 0.75026 0.66124 0.0
C2028 C 0.14727 0.73637 0.71064 0.0
C2029 C 0.16837 0.74036 0.69802 0.0
C2030 C 0.12544 0.74534 0.67385 0.0
C2031 C 0.16714 0.74576 0.67296 0.0
C2032 C 0.10215 0.7534 0.63553 0.0
C2033 C 0.06392 0.75798 0.66439 0.0
N2034 N 0.14604 0.74823 0.66172 0.0
N2035 N 0.08427 0.75266 0.67482 0.0
H2036 H 0.05571 0.34196 0.45378 0.0
H2037 H 0.98931 0.45562 0.47823 0.0
H2038 H 0.02903 0.37888 0.39333 0.0
H2039 H 0.05361 0.45781 0.52445 0.0
H2040 H -0.00142 0.42046 0.45066 0.0
H2041 H 0.05145 0.37868 0.4835 0.0
C2042 C 0.04922 0.35785 0.44674 0.0
C2043 C 0.04255 0.35731 0.42108 0.0
C2044 C 0.01064 0.4286 0.46686 0.0
C2045 C 0.03724 0.39865 0.45481 0.0
C2046 C 0.00537 0.44858 0.48265 0.0
C2047 C 0.02103 0.45997 0.50329 0.0
C2048 C 0.03138 0.41932 0.47211 0.0
C2049 C 0.04128 0.44969 0.50848 0.0
C2050 C 0.04688 0.37872 0.46366 0.0
C2051 C 0.03433 0.37842 0.41292 0.0
N2052 N 0.04593 0.42977 0.49291 0.0
N2053 N 0.03152 0.39801 0.42979 0.0
H2054 H 0.43389 0.21782 0.19003 0.0
H2055 H 0.34592 0.30781 0.24038 0.0
H2056 H 0.44353 0.29864 0.18137 0.0
H2057 H 0.33173 0.22559 0.24213 0.0
H2058 H 0.38476 0.30565 0.2245 0.0
H2059 H 0.39943 0.22122 0.21451 0.0
C2060 C 0.4289 0.23633 0.19344 0.0
C2061 C 0.44148 0.25793 0.18339 0.0
C2062 C 0.37325 0.2881 0.22857 0.0
C2063 C 0.40205 0.26193 0.2114 0.0
C2064 C 0.35104 0.28931 0.23772 0.0
C2065 C 0.33534 0.2668 0.24235 0.0
C2066 C 0.37987 0.2642 0.22394 0.0
C2067 C 0.34312 0.24343 0.23866 0.0
C2068 C 0.4092 0.23824 0.20741 0.0
C2069 C 0.43425 0.28143 0.18854 0.0
N2070 N 0.36474 0.24271 0.22945 0.0
N2071 N 0.41494 0.28276 0.20204 0.0
H2072 H 0.64376 0.53291 0.38061 0.0
H2073 H 0.52312 0.46871 0.43766 0.0
H2074 H 0.59045 0.47535 0.33644 0.0
H2075 H 0.56092 0.54604 0.46117 0.0
H2076 H 0.55078 0.46587 0.40415 0.0
H2077 H 0.61701 0.53246 0.4148 0.0
C2078 C 0.6265 0.52001 0.37815 0.0
C2079 C 0.61927 0.50424 0.35556 0.0
C2080 C 0.55303 0.48335 0.41682 0.0
C2081 C 0.58862 0.50362 0.3947 0.0
C2082 C 0.53733 0.48497 0.43589 0.0
C2083 C 0.54004 0.50749 0.45244 0.0
C2084 C 0.57165 0.50428 0.41462 0.0
C2085 C 0.5586 0.52808 0.44927 0.0
C2086 C 0.61121 0.51987 0.39764 0.0
C2087 C 0.59666 0.48793 0.35349 0.0
N2088 N 0.57379 0.52593 0.43085 0.0
N2089 N 0.5821 0.48801 0.37285 0.0
H2090 H 0.22045 0.86863 0.07043 0.0
H2091 H 0.25889 0.75252 0.13475 0.0
H2092 H 0.25148 0.8105 0.03033 0.0
H2093 H 0.22827 0.81159 0.17361 0.0
H2094 H 0.25269 0.77066 0.09516 0.0
H2095 H 0.2197 0.84535 0.10739 0.0
C2096 C 0.22703 0.8509 0.06936 0.0
C2097 C 0.23625 0.84162 0.04734 0.0
C2098 C 0.24715 0.7795 0.11233 0.0
C2099 C 0.23553 0.81486 0.08967 0.0
C2100 C 0.25064 0.76913 0.13485 0.0
C2101 C 0.24432 0.78082 0.15737 0.0
C2102 C 0.23729 0.80165 0.11252 0.0
C2103 C 0.23364 0.80222 0.15663 0.0
C2104 C 0.22657 0.83758 0.09048 0.0
C2105 C 0.24435 0.81842 0.04699 0.0
N2106 N 0.23061 0.81206 0.13458 0.0
N2107 N 0.24397 0.80592 0.06793 0.0
H2108 H 0.97305 0.60409 0.83422 0.0
H2109 H 0.97796 0.52235 0.94711 0.0
H2110 H 0.91021 0.56099 0.86333 0.0
H2111 H 0.03059 0.59209 0.94648 0.0
H2112 H 0.95489 0.5349 0.91304 0.0
H2113 H 0.99612 0.6004 0.87305 0.0
C2114 C 0.964 0.59434 0.84894 0.0
C2115 C 0.93979 0.5823 0.84533 0.0
C2116 C 0.97138 0.54762 0.92041 0.0
C2117 C 0.96601 0.57781 0.88923 0.0
C2118 C 0.98462 0.54042 0.9398 0.0
C2119 C 0.00593 0.55648 0.94988 0.0
C2120 C 0.9798 0.57075 0.91044 0.0
C2121 C 0.01408 0.57934 0.93926 0.0
C2122 C 0.97718 0.59225 0.87101 0.0
C2123 C 0.92893 0.57009 0.86506 0.0
N2124 N 0.00099 0.58583 0.91988 0.0
N2125 N 0.94221 0.56777 0.88596 0.0
H2126 H 0.30785 0.23107 0.56053 0.0
H2127 H 0.23089 0.21945 0.68139 0.0
H2128 H 0.25023 0.16726 0.56788 0.0
H2129 H 0.30032 0.26888 0.68222 0.0
H2130 H 0.23476 0.20384 0.63758 0.0
H2131 H 0.30258 0.24884 0.60334 0.0
C2132 C 0.29411 0.22082 0.57112 0.0
C2133 C 0.27957 0.19759 0.56068 0.0
C2134 C 0.2491 0.21815 0.64739 0.0
C2135 C 0.27329 0.21787 0.60941 0.0
C2136 C 0.24686 0.22713 0.67233 0.0
C2137 C 0.26537 0.24535 0.68553 0.0
C2138 C 0.26988 0.22768 0.6355 0.0
C2139 C 0.2857 0.25463 0.67285 0.0
C2140 C 0.29113 0.23094 0.59552 0.0
C2141 C 0.26199 0.18513 0.57523 0.0
N2142 N 0.2874 0.24571 0.64855 0.0
N2143 N 0.25931 0.19546 0.59881 0.0
H2144 H 0.56314 0.52347 0.24379 0.0
H2145 H 0.58262 0.55067 0.101 0.0
H2146 H 0.62657 0.51526 0.20589 0.0
H2147 H 0.51654 0.55249 0.13594 0.0
H2148 H 0.60044 0.54221 0.14088 0.0
H2149 H 0.54672 0.53732 0.20566 0.0
C2150 C 0.57358 0.52446 0.22744 0.0
C2151 C 0.59623 0.51808 0.22803 0.0
C2152 C 0.58211 0.5447 0.13994 0.0
C2153 C 0.57766 0.53421 0.18443 0.0
C2154 C 0.572 0.54973 0.11722 0.0
C2155 C 0.54808 0.55219 0.11522 0.0
C2156 C 0.56815 0.54203 0.16078 0.0
C2157 C 0.53506 0.5507 0.13675 0.0
C2158 C 0.56423 0.53248 0.20571 0.0
C2159 C 0.60899 0.51988 0.2063 0.0
N2160 N 0.54521 0.5455 0.15861 0.0
N2161 N 0.59953 0.52778 0.18543 0.0
H2162 H 0.28627 0.86638 0.92708 0.0
H2163 H 0.21081 0.75759 0.82663 0.0
H2164 H 0.21039 0.8401 0.93095 0.0
H2165 H 0.27445 0.80986 0.81042 0.0
H2166 H 0.2128 0.78122 0.86869 0.0
H2167 H 0.28458 0.83898 0.88774 0.0
C2168 C 0.26924 0.85478 0.91967 0.0
C2169 C 0.24839 0.85561 0.93218 0.0
C2170 C 0.22638 0.78726 0.8559 0.0
C2171 C 0.24643 0.82408 0.88728 0.0
C2172 C 0.22536 0.77376 0.83207 0.0
C2173 C 0.24259 0.78177 0.8152 0.0
C2174 C 0.24497 0.80852 0.8628 0.0
C2175 C 0.26096 0.80292 0.82296 0.0
C2176 C 0.2683 0.83919 0.89721 0.0
C2177 C 0.22682 0.84015 0.92173 0.0
N2178 N 0.2617 0.81554 0.84623 0.0
N2179 N 0.22638 0.8249 0.89981 0.0
H2180 H 0.94683 0.53292 0.73358 0.0
H2181 H -0.00122 0.58871 0.60993 0.0
H2182 H 0.93687 0.60571 0.71075 0.0
H2183 H 0.99432 0.51049 0.62631 0.0
H2184 H 0.98365 0.59883 0.65102 0.0
H2185 H 0.97184 0.52825 0.69865 0.0
C2186 C 0.95003 0.54804 0.72131 0.0
C2187 C 0.93943 0.56957 0.72485 0.0
C2188 C 0.9863 0.57956 0.64572 0.0
C2189 C 0.96805 0.56424 0.68471 0.0
C2190 C 0.99501 0.57382 0.62239 0.0
C2191 C -0.00247 0.5487 0.61479 0.0
C2192 C 0.98028 0.56002 0.66144 0.0
C2193 C 0.99241 0.53005 0.63147 0.0
C2194 C 0.96434 0.54534 0.70136 0.0
C2195 C 0.9445 0.58868 0.70855 0.0
N2196 N 0.98386 0.53605 0.65397 0.0
N2197 N 0.95829 0.58545 0.68897 0.0
H2198 H 0.2951 0.20412 0.44002 0.0
H2199 H 0.23663 0.22908 0.30876 0.0
H2200 H 0.22199 0.17322 0.41276 0.0
H2201 H 0.3036 0.27494 0.34114 0.0
H2202 H 0.233 0.20611 0.34581 0.0
H2203 H 0.30027 0.22858 0.40345 0.0
C2204 C 0.28012 0.20256 0.42645 0.0
C2205 C 0.25809 0.18649 0.42941 0.0
C2206 C 0.24854 0.22117 0.34492 0.0
C2207 C 0.26396 0.2142 0.3876 0.0
C2208 C 0.25071 0.23419 0.32365 0.0
C2209 C 0.27052 0.25386 0.32186 0.0
C2210 C 0.26632 0.22774 0.36468 0.0
C2211 C 0.28806 0.25986 0.34186 0.0
C2212 C 0.2831 0.21652 0.40561 0.0
C2213 C 0.23931 0.18525 0.41127 0.0
N2214 N 0.28559 0.24678 0.36252 0.0
N2215 N 0.24273 0.19878 0.39114 0.0
H2216 H 0.30921 0.536 0.46161 0.0
H2217 H 0.41777 0.50871 0.54607 0.0
H2218 H 0.32184 0.55748 0.54156 0.0
H2219 H 0.41445 0.50209 0.46505 0.0
H2220 H 0.37649 0.51449 0.54497 0.0
H2221 H 0.3416 0.51208 0.46312 0.0
C2222 C 0.31851 0.5353 0.47953 0.0
C2223 C 0.31325 0.54917 0.50141 0.0
C2224 C 0.38464 0.51135 0.5274 0.0
C2225 C 0.35005 0.52193 0.50326 0.0
C2226 C 0.40816 0.508 0.52803 0.0
C2227 C 0.41953 0.50546 0.50562 0.0
C2228 C 0.37258 0.51238 0.5042 0.0
C2229 C 0.4063 0.50436 0.48274 0.0
C2230 C 0.33698 0.5217 0.48037 0.0
C2231 C 0.32568 0.54749 0.52416 0.0
N2232 N 0.38356 0.50828 0.4826 0.0
N2233 N 0.34368 0.53437 0.52445 0.0
H2234 H 0.84885 0.90809 0.53622 0.0
H2235 H 0.93299 0.04438 0.53816 0.0
H2236 H 0.81895 0.9758 0.53147 0.0
H2237 H 0.95207 0.97492 0.50503 0.0
H2238 H 0.89188 0.02063 0.5402 0.0
H2239 H 0.8882 0.93327 0.53018 0.0
C2240 C 0.85059 0.92831 0.53405 0.0
C2241 C 0.83064 0.93992 0.53439 0.0
C2242 C 0.90507 0.01075 0.53225 0.0
C2243 C 0.87561 0.9688 0.52754 0.0
C2244 C 0.92844 0.02422 0.5311 0.0
C2245 C 0.94589 0.0115 0.52156 0.0
C2246 C 0.89939 0.98434 0.5243 0.0
C2247 C 0.93916 0.98542 0.51259 0.0
C2248 C 0.87301 0.9426 0.5304 0.0
C2249 C 0.83391 0.96615 0.53127 0.0
N2250 N 0.91651 0.9726 0.51451 0.0
N2251 N 0.85607 0.97983 0.52819 0.0
H2252 H 0.82314 0.08264 0.2169 0.0
H2253 H 0.8092 0.21536 0.29104 0.0
H2254 H 0.86617 0.11869 0.28385 0.0
H2255 H 0.7626 0.17794 0.22701 0.0
H2256 H 0.82805 0.17821 0.29048 0.0
H2257 H 0.79911 0.11579 0.22151 0.0
C2258 C 0.82752 0.09748 0.23259 0.0
C2259 C 0.84682 0.09798 0.24992 0.0
C2260 C 0.81353 0.17794 0.27669 0.0
C2261 C 0.81933 0.1359 0.25534 0.0
C2262 C 0.8027 0.19916 0.27704 0.0
C2263 C 0.78441 0.19985 0.25891 0.0
C2264 C 0.80622 0.1573 0.25792 0.0
C2265 C 0.77663 0.17822 0.24135 0.0
C2266 C 0.81373 0.11635 0.23525 0.0
C2267 C 0.85156 0.11759 0.26995 0.0
N2268 N 0.78779 0.15793 0.24109 0.0
N2269 N 0.838 0.1358 0.27202 0.0
H2270 H 0.69233 0.13609 0.04237 0.0
H2271 H 0.58317 0.03171 0.9747 0.0
H2272 H 0.70208 0.07174 0.99153 0.0
H2273 H 0.57778 0.08099 0.04206 0.0
H2274 H 0.62611 0.04959 0.97654 0.0
H2275 H 0.64936 0.11934 0.03849 0.0
C2276 C 0.68543 0.11842 0.03041 0.0
C2277 C 0.70077 0.10519 0.01736 0.0
C2278 C 0.61545 0.05644 0.99087 0.0
C2279 C 0.65166 0.08605 0.01271 0.0
C2280 C 0.59098 0.04637 0.98977 0.0
C2281 C 0.57694 0.05479 0.00833 0.0
C2282 C 0.62579 0.07526 0.01047 0.0
C2283 C 0.58796 0.07376 0.02748 0.0
C2284 C 0.66092 0.10886 0.02823 0.0
C2285 C 0.69086 0.08242 0.00206 0.0
N2286 N 0.61172 0.08338 0.02802 0.0
N2287 N 0.66687 0.07357 9e-05 0.0
H2288 H 0.16746 0.43366 0.21997 0.0
H2289 H 0.26472 0.38128 0.29752 0.0
H2290 H 0.19239 0.46532 0.29588 0.0
H2291 H 0.25139 0.3655 0.21709 0.0
H2292 H 0.24168 0.41535 0.29707 0.0
H2293 H 0.20015 0.41059 0.21829 0.0
C2294 C 0.17983 0.43574 0.23632 0.0
C2295 C 0.17705 0.45115 0.25822 0.0
C2296 C 0.24426 0.40482 0.27946 0.0
C2297 C 0.21463 0.42484 0.25642 0.0
C2298 C 0.25751 0.3855 0.2797 0.0
C2299 C 0.25955 0.37037 0.25736 0.0
C2300 C 0.23285 0.40868 0.25676 0.0
C2301 C 0.24994 0.37656 0.23477 0.0
C2302 C 0.19864 0.42274 0.23527 0.0
C2303 C 0.19382 0.45346 0.27869 0.0
N2304 N 0.23661 0.39493 0.2351 0.0
N2305 N 0.21177 0.44016 0.27742 0.0
H2306 H 0.18535 0.43473 0.05207 0.0
H2307 H 0.12221 0.54233 0.00056 0.0
H2308 H 0.21741 0.48697 0.00081 0.0
H2309 H 0.09313 0.49305 0.05551 0.0
H2310 H 0.15842 0.52434 0.00223 0.0
H2311 H 0.15238 0.45742 0.05502 0.0
C2312 C 0.18549 0.45101 0.04144 0.0
C2313 C 0.20412 0.45885 0.02603 0.0
C2314 C 0.14422 0.51764 0.01411 0.0
C2315 C 0.16633 0.485 0.02935 0.0
C2316 C 0.12361 0.52797 0.01322 0.0
C2317 C 0.10468 0.51902 0.02782 0.0
C2318 C 0.14577 0.49817 0.02962 0.0
C2319 C 0.10732 0.50038 0.04387 0.0
C2320 C 0.16666 0.46403 0.0432 0.0
C2321 C 0.20339 0.4802 0.01285 0.0
N2322 N 0.1274 0.49042 0.04419 0.0
N2323 N 0.18472 0.49244 0.01469 0.0
H2324 H 0.81722 0.96232 0.20947 0.0
H2325 H 0.80977 0.83379 0.27331 0.0
H2326 H 0.88006 0.93762 0.23736 0.0
H2327 H 0.75748 0.84115 0.21525 0.0
H2328 H 0.83445 0.87422 0.26409 0.0
H2329 H 0.79335 0.92 0.21482 0.0
C2330 C 0.82599 0.94795 0.21656 0.0
C2331 C 0.85062 0.95344 0.22303 0.0
C2332 C 0.81766 0.86685 0.25325 0.0
C2333 C 0.82349 0.90545 0.22953 0.0
C2334 C 0.80363 0.8438 0.25845 0.0
C2335 C 0.78178 0.83403 0.24476 0.0
C2336 C 0.80946 0.88047 0.23466 0.0
C2337 C 0.77431 0.84804 0.22614 0.0
C2338 C 0.8124 0.92386 0.21954 0.0
C2339 C 0.86113 0.93416 0.23208 0.0
N2340 N 0.78807 0.87072 0.22173 0.0
N2341 N 0.84745 0.91109 0.23534 0.0
H2342 H 0.67882 0.05148 0.6974 0.0
H2343 H 0.73469 0.17988 0.78628 0.0
H2344 H 0.66374 0.06366 0.77534 0.0
H2345 H 0.73175 0.17503 0.70521 0.0
H2346 H 0.71334 0.1353 0.78337 0.0
H2347 H 0.70268 0.095 0.70076 0.0
C2348 C 0.68055 0.0633 0.71523 0.0
C2349 C 0.66922 0.054 0.73611 0.0
C2350 C 0.71744 0.14401 0.76625 0.0
C2351 C 0.6966 0.10369 0.74009 0.0
C2352 C 0.72974 0.16941 0.76787 0.0
C2353 C 0.73491 0.18124 0.74594 0.0
C2354 C 0.71048 0.1303 0.74255 0.0
C2355 C 0.72799 0.16673 0.72261 0.0
C2356 C 0.69413 0.08814 0.71711 0.0
C2357 C 0.67207 0.07014 0.75875 0.0
N2358 N 0.71612 0.142 0.72153 0.0
N2359 N 0.68554 0.09423 0.76016 0.0
loop_
_geom_bond_atom_site_label_1
_geom_bond_atom_site_label_2
_geom_bond_distance
_geom_bond_site_symmetry_2
_ccdc_geom_bond_type
C0 O1 1.160 . S
C0 O7 1.185 . S
O1 C0 1.160 . S
O2 Zn3 1.899 . S
O2 C10 1.284 . S
Zn3 O2 1.899 . S
Zn3 O4 2.032 . S
Zn3 O7 2.086 . S
Zn3 O12 1.977 1_455 S
O4 Zn3 2.032 . S
O4 C8 1.278 . S
C5 O6 1.203 . S
C5 O12 1.267 . S
O6 C5 1.203 . S
O7 C0 1.185 . S
O7 Zn3 2.086 . S
C8 O4 1.278 . S
C8 O9 1.210 . S
O9 C8 1.210 . S
C10 O2 1.284 . S
C10 O11 1.273 . S
O11 C10 1.273 . S
O12 Zn3 1.977 1_655 S
O12 C5 1.267 . S
C13 O14 1.160 . S
C13 O20 1.185 . S
O14 C13 1.160 . S
O15 Zn16 1.899 . S
O15 C23 1.284 . S
Zn16 O15 1.899 . S
Zn16 O17 2.032 1_455 S
Zn16 O20 2.086 1_455 S
Zn16 O25 1.977 . S
O17 Zn16 2.032 1_655 S
O17 C21 1.278 1_655 S
C18 O19 1.203 . S
C18 O25 1.267 . S
O19 C18 1.203 . S
O20 C13 1.185 . S
O20 Zn16 2.086 1_655 S
C21 O17 1.278 1_455 S
C21 O22 1.211 . S
O22 C21 1.211 . S
C23 O15 1.284 . S
C23 O24 1.273 . S
O24 C23 1.273 . S
O25 Zn16 1.977 . S
O25 C18 1.267 . S
C26 O27 1.160 . S
C26 O33 1.185 . S
O27 C26 1.160 . S
O28 Zn29 1.899 . S
O28 C36 1.284 . S
Zn29 O28 1.899 . S
Zn29 O30 2.032 . S
Zn29 O33 2.086 . S
Zn29 O38 1.977 . S
O30 Zn29 2.032 . S
O30 C34 1.278 . S
C31 O32 1.203 . S
C31 O38 1.267 . S
O32 C31 1.203 . S
O33 C26 1.185 . S
O33 Zn29 2.086 . S
C34 O30 1.278 . S
C34 O35 1.211 . S
O35 C34 1.211 . S
C36 O28 1.284 . S
C36 O37 1.273 . S
O37 C36 1.273 . S
O38 Zn29 1.977 . S
O38 C31 1.267 . S
C39 O40 1.160 . S
C39 O46 1.185 . S
O40 C39 1.160 . S
O41 Zn42 1.899 . S
O41 C49 1.284 . S
Zn42 O41 1.899 . S
Zn42 O43 2.032 . S
Zn42 O46 2.086 . S
Zn42 O51 1.977 . S
O43 Zn42 2.032 . S
O43 C47 1.278 . S
C44 O45 1.203 . S
C44 O51 1.267 . S
O45 C44 1.203 . S
O46 C39 1.185 . S
O46 Zn42 2.086 . S
C47 O43 1.278 . S
C47 O48 1.211 . S
O48 C47 1.211 . S
C49 O41 1.284 . S
C49 O50 1.273 . S
O50 C49 1.273 . S
O51 Zn42 1.977 . S
O51 C44 1.267 . S
C52 O53 1.160 . S
C52 O59 1.202 . S
O53 C52 1.160 . S
O54 Zn55 1.899 . S
O54 C62 1.284 . S
Zn55 O54 1.899 . S
Zn55 O56 2.032 . S
Zn55 O59 2.072 1_455 S
Zn55 O64 1.977 . S
O56 Zn55 2.032 . S
O56 C60 1.278 . S
C57 O58 1.203 . S
C57 O64 1.267 . S
O58 C57 1.203 . S
O59 C52 1.202 . S
O59 Zn55 2.072 1_655 S
C60 O56 1.278 . S
C60 O61 1.211 . S
O61 C60 1.211 . S
C62 O54 1.284 . S
C62 O63 1.273 . S
O63 C62 1.273 . S
O64 Zn55 1.977 . S
O64 C57 1.267 . S
C65 O66 1.160 . S
C65 O72 1.185 . S
O66 C65 1.160 . S
O67 Zn68 1.899 . S
O67 C75 1.284 . S
Zn68 O67 1.899 . S
Zn68 O69 2.032 . S
Zn68 O72 2.086 . S
Zn68 O77 1.977 . S
O69 Zn68 2.032 . S
O69 C73 1.278 . S
C70 O71 1.203 . S
C70 O77 1.267 . S
O71 C70 1.203 . S
O72 C65 1.185 . S
O72 Zn68 2.086 . S
C73 O69 1.278 . S
C73 O74 1.211 . S
O74 C73 1.211 . S
C75 O67 1.284 . S
C75 O76 1.273 . S
O76 C75 1.273 . S
O77 Zn68 1.977 . S
O77 C70 1.267 . S
C78 O79 1.160 . S
C78 O85 1.185 . S
O79 C78 1.160 . S
O80 Zn81 1.899 . S
O80 C88 1.284 . S
Zn81 O80 1.899 . S
Zn81 O82 2.032 . S
Zn81 O85 2.086 . S
Zn81 O90 1.977 . S
O82 Zn81 2.032 . S
O82 C86 1.278 . S
C83 O84 1.203 . S
C83 O90 1.267 . S
O84 C83 1.203 . S
O85 C78 1.185 . S
O85 Zn81 2.086 . S
C86 O82 1.278 . S
C86 O87 1.211 . S
O87 C86 1.211 . S
C88 O80 1.284 . S
C88 O89 1.273 . S
O89 C88 1.273 . S
O90 Zn81 1.977 . S
O90 C83 1.267 . S
C91 O92 1.160 . S
C91 O98 1.185 . S
O92 C91 1.160 . S
O93 Zn94 1.899 . S
O93 C101 1.284 1_455 S
Zn94 O93 1.899 . S
Zn94 O95 2.032 . S
Zn94 O98 2.086 . S
Zn94 O103 1.977 1_455 S
O95 Zn94 2.032 . S
O95 C99 1.278 . S
C96 O97 1.203 . S
C96 O103 1.267 . S
O97 C96 1.203 . S
O98 C91 1.185 . S
O98 Zn94 2.086 . S
C99 O95 1.278 . S
C99 O100 1.211 1_455 S
O100 C99 1.211 1_655 S
C101 O93 1.284 1_655 S
C101 O102 1.273 . S
O102 C101 1.273 . S
O103 Zn94 1.977 1_655 S
O103 C96 1.267 . S
C104 O105 1.160 . S
C104 O111 1.185 . S
O105 C104 1.160 . S
O106 Zn107 1.899 . S
O106 C114 1.284 . S
Zn107 O106 1.899 . S
Zn107 O108 2.032 . S
Zn107 O111 2.086 . S
Zn107 O116 1.977 1_545 S
O108 Zn107 2.032 . S
O108 C112 1.278 . S
C109 O110 1.203 . S
C109 O116 1.267 . S
O110 C109 1.203 . S
O111 C104 1.185 . S
O111 Zn107 2.086 . S
C112 O108 1.278 . S
C112 O113 1.211 1_545 S
O113 C112 1.211 1_565 S
C114 O106 1.284 . S
C114 O115 1.273 . S
O115 C114 1.273 . S
O116 Zn107 1.977 1_565 S
O116 C109 1.267 . S
C117 O118 1.160 . S
C117 O124 1.185 . S
O118 C117 1.160 . S
O119 Zn120 1.899 . S
O119 C127 1.284 . S
Zn120 O119 1.899 . S
Zn120 O121 2.032 . S
Zn120 O124 2.086 . S
Zn120 O129 1.977 . S
O121 Zn120 2.032 . S
O121 C125 1.278 . S
C122 O123 1.203 . S
C122 O129 1.267 . S
O123 C122 1.203 . S
O124 C117 1.185 . S
O124 Zn120 2.086 . S
C125 O121 1.278 . S
C125 O126 1.211 . S
O126 C125 1.211 . S
C127 O119 1.284 . S
C127 O128 1.273 . S
O128 C127 1.273 . S
O129 Zn120 1.977 . S
O129 C122 1.267 . S
C130 O131 1.160 . S
C130 O137 1.185 . S
O131 C130 1.160 . S
O132 Zn133 1.899 . S
O132 C140 1.284 . S
Zn133 O132 1.899 . S
Zn133 O134 2.032 . S
Zn133 O137 2.086 . S
Zn133 O142 1.977 1_565 S
O134 Zn133 2.032 . S
O134 C138 1.278 1_565 S
C135 O136 1.203 . S
C135 O142 1.267 . S
O136 C135 1.203 . S
O137 C130 1.185 . S
O137 Zn133 2.086 . S
C138 O134 1.278 1_545 S
C138 O139 1.211 . S
O139 C138 1.211 . S
C140 O132 1.284 . S
C140 O141 1.273 1_565 S
O141 C140 1.273 1_545 S
O142 Zn133 1.977 1_545 S
O142 C135 1.267 . S
C143 O144 1.160 . S
C143 O150 1.185 . S
O144 C143 1.160 . S
O145 Zn146 1.899 . S
O145 C153 1.284 . S
Zn146 O145 1.899 . S
Zn146 O147 2.032 1_554 S
Zn146 O150 2.086 . S
Zn146 O155 1.977 . S
O147 Zn146 2.032 1_556 S
O147 C151 1.278 . S
C148 O149 1.203 . S
C148 O155 1.267 . S
O149 C148 1.203 . S
O150 C143 1.185 . S
O150 Zn146 2.086 . S
C151 O147 1.278 . S
C151 O152 1.211 . S
O152 C151 1.211 . S
C153 O145 1.284 . S
C153 O154 1.273 . S
O154 C153 1.273 . S
O155 Zn146 1.977 . S
O155 C148 1.267 . S
C156 O157 1.160 . S
C156 O163 1.185 . S
O157 C156 1.160 . S
O158 Zn159 1.899 . S
O158 C166 1.284 . S
Zn159 O158 1.899 . S
Zn159 O160 2.032 1_554 S
Zn159 O163 2.086 . S
Zn159 O168 1.977 . S
O160 Zn159 2.032 1_556 S
O160 C164 1.278 . S
C161 O162 1.203 . S
C161 O168 1.267 . S
O162 C161 1.203 . S
O163 C156 1.185 . S
O163 Zn159 2.086 . S
C164 O160 1.278 . S
C164 O165 1.211 . S
O165 C164 1.211 . S
C166 O158 1.284 . S
C166 O167 1.273 . S
O167 C166 1.273 . S
O168 Zn159 1.977 . S
O168 C161 1.267 . S
C169 O170 1.160 . S
C169 O176 1.185 1_554 S
O170 C169 1.160 . S
O171 Zn172 1.899 . S
O171 C179 1.284 . S
Zn172 O171 1.899 . S
Zn172 O173 2.032 1_554 S
Zn172 O176 2.086 1_554 S
Zn172 O181 1.977 1_554 S
O173 Zn172 2.032 1_556 S
O173 C177 1.278 . S
C174 O175 1.217 . S
C174 O181 1.257 1_554 S
O175 C174 1.217 . S
O176 C169 1.185 1_556 S
O176 Zn172 2.086 1_556 S
C177 O173 1.278 . S
C177 O178 1.211 . S
O178 C177 1.211 . S
C179 O171 1.284 . S
C179 O180 1.273 . S
O180 C179 1.273 . S
O181 Zn172 1.977 1_556 S
O181 C174 1.257 1_556 S
C182 O183 1.160 . S
C182 O189 1.185 . S
O183 C182 1.160 . S
O184 Zn185 1.899 . S
O184 C192 1.284 . S
Zn185 O184 1.899 . S
Zn185 O186 2.032 . S
Zn185 O189 2.086 . S
Zn185 O194 1.977 . S
O186 Zn185 2.032 . S
O186 C190 1.278 . S
C187 O188 1.203 . S
C187 O194 1.267 . S
O188 C187 1.203 . S
O189 C182 1.185 . S
O189 Zn185 2.086 . S
C190 O186 1.278 . S
C190 O191 1.211 . S
O191 C190 1.211 . S
C192 O184 1.284 . S
C192 O193 1.273 . S
O193 C192 1.273 . S
O194 Zn185 1.977 . S
O194 C187 1.267 . S
C195 O196 1.160 . S
C195 O202 1.185 . S
O196 C195 1.160 . S
O197 Zn198 1.899 . S
O197 C205 1.284 . S
Zn198 O197 1.899 . S
Zn198 O199 2.032 . S
Zn198 O202 2.086 . S
Zn198 O207 1.977 . S
O199 Zn198 2.032 . S
O199 C203 1.278 . S
C200 O201 1.203 . S
C200 O207 1.267 . S
O201 C200 1.203 . S
O202 C195 1.185 . S
O202 Zn198 2.086 . S
C203 O199 1.278 . S
C203 O204 1.211 . S
O204 C203 1.211 . S
C205 O197 1.284 . S
C205 O206 1.273 . S
O206 C205 1.273 . S
O207 Zn198 1.977 . S
O207 C200 1.267 . S
C208 O209 1.160 . S
C208 O215 1.185 . S
O209 C208 1.160 . S
O210 Zn211 1.899 . S
O210 C218 1.284 . S
Zn211 O210 1.899 . S
Zn211 O212 2.032 . S
Zn211 O215 2.086 . S
Zn211 O220 1.977 . S
O212 Zn211 2.032 . S
O212 C216 1.278 . S
C213 O214 1.203 . S
C213 O220 1.267 1_565 S
O214 C213 1.203 . S
O215 C208 1.185 . S
O215 Zn211 2.086 . S
C216 O212 1.278 . S
C216 O217 1.211 . S
O217 C216 1.211 . S
C218 O210 1.284 . S
C218 O219 1.273 . S
O219 C218 1.273 . S
O220 Zn211 1.977 . S
O220 C213 1.267 1_545 S
C221 O222 1.160 . S
C221 O228 1.185 . S
O222 C221 1.160 . S
O223 Zn224 1.899 . S
O223 C231 1.284 . S
Zn224 O223 1.899 . S
Zn224 O225 2.032 . S
Zn224 O228 2.086 . S
Zn224 O233 1.977 . S
O225 Zn224 2.032 . S
O225 C229 1.278 . S
C226 O227 1.203 . S
C226 O233 1.267 . S
O227 C226 1.203 . S
O228 C221 1.185 . S
O228 Zn224 2.086 . S
C229 O225 1.278 . S
C229 O230 1.211 . S
O230 C229 1.211 . S
C231 O223 1.284 . S
C231 O232 1.273 . S
O232 C231 1.273 . S
O233 Zn224 1.977 . S
O233 C226 1.267 . S
C234 O235 1.160 . S
C234 O241 1.185 . S
O235 C234 1.160 . S
O236 Zn237 1.899 . S
O236 C244 1.284 . S
Zn237 O236 1.899 . S
Zn237 O238 2.032 . S
Zn237 O241 2.086 . S
Zn237 O246 1.977 . S
O238 Zn237 2.032 . S
O238 C242 1.278 . S
C239 O240 1.203 . S
C239 O246 1.267 . S
O240 C239 1.203 . S
O241 C234 1.185 . S
O241 Zn237 2.086 . S
C242 O238 1.278 . S
C242 O243 1.211 . S
O243 C242 1.211 . S
C244 O236 1.284 . S
C244 O245 1.273 . S
O245 C244 1.273 . S
O246 Zn237 1.977 . S
O246 C239 1.267 . S
C247 O248 1.160 . S
C247 O254 1.198 . S
O248 C247 1.160 . S
O249 Zn250 1.899 . S
O249 C257 1.284 . S
Zn250 O249 1.899 . S
Zn250 O251 2.032 . S
Zn250 O254 2.075 1_545 S
Zn250 O259 1.977 . S
O251 Zn250 2.032 . S
O251 C255 1.278 . S
C252 O253 1.203 . S
C252 O259 1.267 . S
O253 C252 1.203 . S
O254 C247 1.198 . S
O254 Zn250 2.075 1_565 S
C255 O251 1.278 . S
C255 O256 1.211 . S
O256 C255 1.211 . S
C257 O249 1.284 . S
C257 O258 1.273 . S
O258 C257 1.273 . S
O259 Zn250 1.977 . S
O259 C252 1.267 . S
C260 O261 1.160 . S
C260 O267 1.185 . S
O261 C260 1.160 . S
O262 Zn263 1.899 . S
O262 C270 1.284 . S
Zn263 O262 1.899 . S
Zn263 O264 2.032 1_554 S
Zn263 O267 2.086 . S
Zn263 O272 1.977 . S
O264 Zn263 2.032 1_556 S
O264 C268 1.278 . S
C265 O266 1.203 . S
C265 O272 1.267 . S
O266 C265 1.203 . S
O267 C260 1.185 . S
O267 Zn263 2.086 . S
C268 O264 1.278 . S
C268 O269 1.211 . S
O269 C268 1.211 . S
C270 O262 1.284 . S
C270 O271 1.273 . S
O271 C270 1.273 . S
O272 Zn263 1.977 . S
O272 C265 1.267 . S
C273 O274 1.160 . S
C273 O280 1.185 . S
O274 C273 1.160 . S
O275 Zn276 1.899 . S
O275 C283 1.284 . S
Zn276 O275 1.899 . S
Zn276 O277 2.032 . S
Zn276 O280 2.086 . S
Zn276 O285 1.977 . S
O277 Zn276 2.032 . S
O277 C281 1.278 . S
C278 O279 1.203 . S
C278 O285 1.267 . S
O279 C278 1.203 . S
O280 C273 1.185 . S
O280 Zn276 2.086 . S
C281 O277 1.278 . S
C281 O282 1.211 . S
O282 C281 1.211 . S
C283 O275 1.284 . S
C283 O284 1.273 . S
O284 C283 1.273 . S
O285 Zn276 1.977 . S
O285 C278 1.267 . S
C286 O287 1.160 . S
C286 O293 1.185 . S
O287 C286 1.160 . S
O288 Zn289 1.899 . S
O288 C296 1.284 . S
Zn289 O288 1.899 . S
Zn289 O290 2.032 . S
Zn289 O293 2.086 . S
Zn289 O298 1.977 . S
O290 Zn289 2.032 . S
O290 C294 1.278 . S
C291 O292 1.203 . S
C291 O298 1.267 . S
O292 C291 1.203 . S
O293 C286 1.185 . S
O293 Zn289 2.086 . S
C294 O290 1.278 . S
C294 O295 1.211 . S
O295 C294 1.211 . S
C296 O288 1.284 . S
C296 O297 1.273 . S
O297 C296 1.273 . S
O298 Zn289 1.977 . S
O298 C291 1.267 . S
C299 O300 1.160 . S
C299 O306 1.185 . S
O300 C299 1.160 . S
O301 Zn302 1.899 . S
O301 C309 1.284 . S
Zn302 O301 1.899 . S
Zn302 O303 2.032 . S
Zn302 O306 2.086 . S
Zn302 O311 1.977 . S
O303 Zn302 2.032 . S
O303 C307 1.278 . S
C304 O305 1.203 . S
C304 O311 1.267 . S
O305 C304 1.203 . S
O306 C299 1.185 . S
O306 Zn302 2.086 . S
C307 O303 1.278 . S
C307 O308 1.211 . S
O308 C307 1.211 . S
C309 O301 1.284 . S
C309 O310 1.273 . S
O310 C309 1.273 . S
O311 Zn302 1.977 . S
O311 C304 1.267 . S
Dy312 O316 2.398 . S
Dy312 O317 2.491 1_556 S
Dy312 O318 2.403 . S
Dy312 O319 2.664 1_655 S
Dy312 O323 2.326 . S
Dy312 O327 2.310 1_556 S
Dy312 O328 2.351 1_546 S
C313 O324 1.185 . S
C313 O325 1.355 1_545 S
C314 O316 1.185 . S
C314 O317 1.355 1_556 S
Dy315 O319 2.310 1_554 S
Dy315 O322 2.351 . S
Dy315 O324 2.398 . S
Dy315 O325 2.492 1_545 S
Dy315 O326 2.403 . S
Dy315 O327 2.664 1_455 S
Dy315 O329 2.326 1_545 S
O316 Dy312 2.398 . S
O316 C314 1.185 . S
O317 Dy312 2.491 1_554 S
O317 C314 1.355 1_554 S
O318 Dy312 2.403 . S
O318 C320 1.254 1_655 S
O319 Dy312 2.664 1_455 S
O319 Dy315 2.310 1_556 S
O319 C320 1.268 . S
C320 O318 1.254 1_455 S
C320 O319 1.268 . S
C321 O326 1.254 . S
C321 O327 1.268 1_455 S
O322 Dy315 2.351 . S
O322 C330 1.249 1_554 S
O323 Dy312 2.326 . S
O323 C330 1.267 1_655 S
O324 C313 1.185 . S
O324 Dy315 2.398 . S
O325 C313 1.355 1_565 S
O325 Dy315 2.492 1_565 S
O326 Dy315 2.403 . S
O326 C321 1.254 . S
O327 Dy312 2.310 1_554 S
O327 Dy315 2.664 1_655 S
O327 C321 1.268 1_655 S
O328 Dy312 2.351 1_564 S
O328 C331 1.249 1_655 S
O329 Dy315 2.326 1_565 S
O329 C331 1.267 . S
C330 O322 1.249 1_556 S
C330 O323 1.267 1_455 S
C331 O328 1.249 1_455 S
C331 O329 1.267 . S
Dy332 O336 2.398 . S
Dy332 O337 2.491 . S
Dy332 O338 2.403 . S
Dy332 O339 2.664 . S
Dy332 O343 2.326 . S
Dy332 O347 2.310 . S
Dy332 O348 2.351 . S
C333 O344 1.185 . S
C333 O345 1.355 . S
C334 O336 1.185 . S
C334 O337 1.355 . S
Dy335 O339 2.310 . S
Dy335 O342 2.351 . S
Dy335 O344 2.398 . S
Dy335 O345 2.491 . S
Dy335 O346 2.403 . S
Dy335 O347 2.664 . S
Dy335 O349 2.326 . S
O336 Dy332 2.398 . S
O336 C334 1.185 . S
O337 Dy332 2.491 . S
O337 C334 1.355 . S
O338 Dy332 2.403 . S
O338 C340 1.254 . S
O339 Dy332 2.664 . S
O339 Dy335 2.310 . S
O339 C340 1.268 . S
C340 O338 1.254 . S
C340 O339 1.268 . S
C341 O346 1.254 . S
C341 O347 1.268 . S
O342 Dy335 2.351 . S
O342 C350 1.249 . S
O343 Dy332 2.326 . S
O343 C350 1.267 . S
O344 C333 1.185 . S
O344 Dy335 2.398 . S
O345 C333 1.355 . S
O345 Dy335 2.491 . S
O346 Dy335 2.403 . S
O346 C341 1.254 . S
O347 Dy332 2.310 . S
O347 Dy335 2.664 . S
O347 C341 1.268 . S
O348 Dy332 2.351 . S
O348 C351 1.249 . S
O349 Dy335 2.326 . S
O349 C351 1.267 . S
C350 O342 1.249 . S
C350 O343 1.267 . S
C351 O348 1.249 . S
C351 O349 1.267 . S
Dy352 O356 2.398 . S
Dy352 O357 2.491 1_545 S
Dy352 O358 2.403 . S
Dy352 O359 2.664 . S
Dy352 O363 2.326 1_545 S
Dy352 O367 2.310 . S
Dy352 O368 2.351 . S
C353 O364 1.185 . S
C353 O365 1.355 . S
C354 O356 1.185 1_565 S
C354 O357 1.356 . S
Dy355 O359 2.310 . S
Dy355 O362 2.351 1_545 S
Dy355 O364 2.398 . S
Dy355 O365 2.491 . S
Dy355 O366 2.403 . S
Dy355 O367 2.664 . S
Dy355 O369 2.326 . S
O356 Dy352 2.398 . S
O356 C354 1.185 1_545 S
O357 Dy352 2.491 1_565 S
O357 C354 1.356 . S
O358 Dy352 2.403 . S
O358 C360 1.254 . S
O359 Dy352 2.664 . S
O359 Dy355 2.310 . S
O359 C360 1.268 . S
C360 O358 1.254 . S
C360 O359 1.268 . S
C361 O366 1.254 . S
C361 O367 1.268 . S
O362 Dy355 2.351 1_565 S
O362 C370 1.249 . S
O363 Dy352 2.326 1_565 S
O363 C370 1.267 . S
O364 C353 1.185 . S
O364 Dy355 2.398 . S
O365 C353 1.355 . S
O365 Dy355 2.491 . S
O366 Dy355 2.403 . S
O366 C361 1.254 . S
O367 Dy352 2.310 . S
O367 Dy355 2.664 . S
O367 C361 1.268 . S
O368 Dy352 2.351 . S
O368 C371 1.249 . S
O369 Dy355 2.326 . S
O369 C371 1.267 . S
C370 O362 1.249 . S
C370 O363 1.267 . S
C371 O368 1.249 . S
C371 O369 1.267 . S
Dy372 O376 2.398 . S
Dy372 O377 2.491 . S
Dy372 O378 2.403 . S
Dy372 O379 2.664 . S
Dy372 O383 2.326 . S
Dy372 O387 2.310 . S
Dy372 O388 2.351 . S
C373 O384 1.185 . S
C373 O385 1.355 . S
C374 O376 1.185 . S
C374 O377 1.355 . S
Dy375 O379 2.310 . S
Dy375 O382 2.351 . S
Dy375 O384 2.398 . S
Dy375 O385 2.491 . S
Dy375 O386 2.403 . S
Dy375 O387 2.664 . S
Dy375 O389 2.326 . S
O376 Dy372 2.398 . S
O376 C374 1.185 . S
O377 Dy372 2.491 . S
O377 C374 1.355 . S
O378 Dy372 2.403 . S
O378 C380 1.254 . S
O379 Dy372 2.664 . S
O379 Dy375 2.310 . S
O379 C380 1.268 . S
C380 O378 1.254 . S
C380 O379 1.268 . S
C381 O386 1.254 . S
C381 O387 1.268 . S
O382 Dy375 2.351 . S
O382 C390 1.249 . S
O383 Dy372 2.326 . S
O383 C390 1.267 . S
O384 C373 1.185 . S
O384 Dy375 2.398 . S
O385 C373 1.355 . S
O385 Dy375 2.491 . S
O386 Dy375 2.403 . S
O386 C381 1.254 . S
O387 Dy372 2.310 . S
O387 Dy375 2.664 . S
O387 C381 1.268 . S
O388 Dy372 2.351 . S
O388 C391 1.249 . S
O389 Dy375 2.326 . S
O389 C391 1.267 . S
C390 O382 1.249 . S
C390 O383 1.267 . S
C391 O388 1.249 . S
C391 O389 1.267 . S
Dy392 O396 2.398 . S
Dy392 O397 2.491 1_455 S
Dy392 O398 2.403 . S
Dy392 O399 2.664 . S
Dy392 O403 2.326 . S
Dy392 O407 2.310 1_455 S
Dy392 O408 2.351 1_545 S
C393 O404 1.185 . S
C393 O405 1.355 . S
C394 O396 1.185 1_655 S
C394 O397 1.355 . S
Dy395 O399 2.310 . S
Dy395 O402 2.351 . S
Dy395 O404 2.398 . S
Dy395 O405 2.491 . S
Dy395 O406 2.403 1_455 S
Dy395 O407 2.664 1_455 S
Dy395 O409 2.326 1_545 S
O396 Dy392 2.398 . S
O396 C394 1.185 1_455 S
O397 Dy392 2.491 1_655 S
O397 C394 1.355 . S
O398 Dy392 2.403 . S
O398 C400 1.254 . S
O399 Dy392 2.664 . S
O399 Dy395 2.310 . S
O399 C400 1.268 . S
C400 O398 1.254 . S
C400 O399 1.268 . S
C401 O406 1.254 . S
C401 O407 1.268 . S
O402 Dy395 2.351 . S
O402 C410 1.249 . S
O403 Dy392 2.326 . S
O403 C410 1.267 . S
O404 C393 1.185 . S
O404 Dy395 2.398 . S
O405 C393 1.355 . S
O405 Dy395 2.491 . S
O406 Dy395 2.403 1_655 S
O406 C401 1.254 . S
O407 Dy392 2.310 1_655 S
O407 Dy395 2.664 1_655 S
O407 C401 1.268 . S
O408 Dy392 2.351 1_565 S
O408 C411 1.249 . S
O409 Dy395 2.326 1_565 S
O409 C411 1.267 . S
C410 O402 1.249 . S
C410 O403 1.267 . S
C411 O408 1.249 . S
C411 O409 1.267 . S
Dy412 O416 2.398 . S
Dy412 O417 2.491 . S
Dy412 O418 2.403 . S
Dy412 O419 2.664 . S
Dy412 O423 2.326 . S
Dy412 O427 2.310 . S
Dy412 O428 2.351 . S
C413 O424 1.185 . S
C413 O425 1.355 . S
C414 O416 1.185 . S
C414 O417 1.355 . S
Dy415 O419 2.310 . S
Dy415 O422 2.351 . S
Dy415 O424 2.398 . S
Dy415 O425 2.491 . S
Dy415 O426 2.403 . S
Dy415 O427 2.664 . S
Dy415 O429 2.326 . S
O416 Dy412 2.398 . S
O416 C414 1.185 . S
O417 Dy412 2.491 . S
O417 C414 1.355 . S
O418 Dy412 2.403 . S
O418 C420 1.254 . S
O419 Dy412 2.664 . S
O419 Dy415 2.310 . S
O419 C420 1.268 . S
C420 O418 1.254 . S
C420 O419 1.268 . S
C421 O426 1.254 . S
C421 O427 1.268 . S
O422 Dy415 2.351 . S
O422 C430 1.249 . S
O423 Dy412 2.326 . S
O423 C430 1.267 . S
O424 C413 1.185 . S
O424 Dy415 2.398 . S
O425 C413 1.355 . S
O425 Dy415 2.491 . S
O426 Dy415 2.403 . S
O426 C421 1.254 . S
O427 Dy412 2.310 . S
O427 Dy415 2.664 . S
O427 C421 1.268 . S
O428 Dy412 2.351 . S
O428 C431 1.249 . S
O429 Dy415 2.326 . S
O429 C431 1.267 . S
C430 O422 1.249 . S
C430 O423 1.267 . S
C431 O428 1.249 . S
C431 O429 1.267 . S
Dy432 O436 2.398 1_545 S
Dy432 O437 2.491 . S
Dy432 O438 2.403 1_545 S
Dy432 O439 2.664 1_544 S
Dy432 O443 2.326 1_545 S
Dy432 O447 2.310 . S
Dy432 O448 2.351 . S
C433 O444 1.185 . S
C433 O445 1.355 . S
C434 O436 1.185 1_545 S
C434 O437 1.355 . S
Dy435 O439 2.310 1_545 S
Dy435 O442 2.351 . S
Dy435 O444 2.398 . S
Dy435 O445 2.491 . S
Dy435 O446 2.403 . S
Dy435 O447 2.664 1_556 S
Dy435 O449 2.326 . S
O436 Dy432 2.398 1_565 S
O436 C434 1.185 1_565 S
O437 Dy432 2.491 . S
O437 C434 1.355 . S
O438 Dy432 2.403 1_565 S
O438 C440 1.254 . S
O439 Dy432 2.664 1_566 S
O439 Dy435 2.310 1_565 S
O439 C440 1.268 1_556 S
C440 O438 1.254 . S
C440 O439 1.268 1_554 S
C441 O446 1.254 1_554 S
C441 O447 1.268 . S
O442 Dy435 2.351 . S
O442 C450 1.249 1_556 S
O443 Dy432 2.326 1_565 S
O443 C450 1.267 1_565 S
O444 C433 1.185 . S
O444 Dy435 2.398 . S
O445 C433 1.355 . S
O445 Dy435 2.491 . S
O446 Dy435 2.403 . S
O446 C441 1.254 1_556 S
O447 Dy432 2.310 . S
O447 Dy435 2.664 1_554 S
O447 C441 1.268 . S
O448 Dy432 2.351 . S
O448 C451 1.249 . S
O449 Dy435 2.326 . S
O449 C451 1.267 1_556 S
C450 O442 1.249 1_554 S
C450 O443 1.267 1_545 S
C451 O448 1.249 . S
C451 O449 1.267 1_554 S
Dy452 O456 2.398 . S
Dy452 O457 2.491 . S
Dy452 O458 2.403 . S
Dy452 O459 2.664 . S
Dy452 O463 2.326 . S
Dy452 O467 2.310 . S
Dy452 O468 2.351 . S
C453 O464 1.185 . S
C453 O465 1.355 . S
C454 O456 1.185 . S
C454 O457 1.355 . S
Dy455 O459 2.310 . S
Dy455 O462 2.351 . S
Dy455 O464 2.398 . S
Dy455 O465 2.491 . S
Dy455 O466 2.403 . S
Dy455 O467 2.664 . S
Dy455 O469 2.326 . S
O456 Dy452 2.398 . S
O456 C454 1.185 . S
O457 Dy452 2.491 . S
O457 C454 1.355 . S
O458 Dy452 2.403 . S
O458 C460 1.254 . S
O459 Dy452 2.664 . S
O459 Dy455 2.310 . S
O459 C460 1.268 . S
C460 O458 1.254 . S
C460 O459 1.268 . S
C461 O466 1.254 . S
C461 O467 1.268 . S
O462 Dy455 2.351 . S
O462 C470 1.249 . S
O463 Dy452 2.326 . S
O463 C470 1.267 . S
O464 C453 1.185 . S
O464 Dy455 2.398 . S
O465 C453 1.355 . S
O465 Dy455 2.491 . S
O466 Dy455 2.403 . S
O466 C461 1.254 . S
O467 Dy452 2.310 . S
O467 Dy455 2.664 . S
O467 C461 1.268 . S
O468 Dy452 2.351 . S
O468 C471 1.249 . S
O469 Dy455 2.326 . S
O469 C471 1.267 . S
C470 O462 1.249 . S
C470 O463 1.267 . S
C471 O468 1.249 . S
C471 O469 1.267 . S
Dy472 O476 2.398 . S
Dy472 O477 2.491 . S
Dy472 O478 2.403 . S
Dy472 O479 2.664 1_556 S
Dy472 O483 2.326 . S
Dy472 O487 2.310 1_556 S
Dy472 O488 2.351 1_556 S
C473 O484 1.185 . S
C473 O485 1.355 . S
C474 O476 1.185 . S
C474 O477 1.355 . S
Dy475 O479 2.310 . S
Dy475 O482 2.351 . S
Dy475 O484 2.398 . S
Dy475 O485 2.491 . S
Dy475 O486 2.403 . S
Dy475 O487 2.664 . S
Dy475 O489 2.326 . S
O476 Dy472 2.398 . S
O476 C474 1.185 . S
O477 Dy472 2.491 . S
O477 C474 1.355 . S
O478 Dy472 2.403 . S
O478 C480 1.254 1_556 S
O479 Dy472 2.664 1_554 S
O479 Dy475 2.310 . S
O479 C480 1.268 . S
C480 O478 1.254 1_554 S
C480 O479 1.268 . S
C481 O486 1.254 . S
C481 O487 1.268 . S
O482 Dy475 2.351 . S
O482 C490 1.249 1_554 S
O483 Dy472 2.326 . S
O483 C490 1.267 . S
O484 C473 1.185 . S
O484 Dy475 2.398 . S
O485 C473 1.355 . S
O485 Dy475 2.491 . S
O486 Dy475 2.403 . S
O486 C481 1.254 . S
O487 Dy472 2.310 1_554 S
O487 Dy475 2.664 . S
O487 C481 1.268 . S
O488 Dy472 2.351 1_554 S
O488 C491 1.249 . S
O489 Dy475 2.326 . S
O489 C491 1.267 . S
C490 O482 1.249 1_556 S
C490 O483 1.267 . S
C491 O488 1.249 . S
C491 O489 1.267 . S
Dy492 O496 2.398 . S
Dy492 O497 2.491 . S
Dy492 O498 2.403 . S
Dy492 O499 2.664 . S
Dy492 O503 2.326 . S
Dy492 O507 2.310 . S
Dy492 O508 2.351 . S
C493 O504 1.185 . S
C493 O505 1.355 . S
C494 O496 1.185 . S
C494 O497 1.355 . S
Dy495 O499 2.310 . S
Dy495 O502 2.351 . S
Dy495 O504 2.398 . S
Dy495 O505 2.491 . S
Dy495 O506 2.403 . S
Dy495 O507 2.664 . S
Dy495 O509 2.326 . S
O496 Dy492 2.398 . S
O496 C494 1.185 . S
O497 Dy492 2.491 . S
O497 C494 1.355 . S
O498 Dy492 2.403 . S
O498 C500 1.254 . S
O499 Dy492 2.664 . S
O499 Dy495 2.310 . S
O499 C500 1.268 . S
C500 O498 1.254 . S
C500 O499 1.268 . S
C501 O506 1.254 . S
C501 O507 1.268 . S
O502 Dy495 2.351 . S
O502 C510 1.249 . S
O503 Dy492 2.326 . S
O503 C510 1.267 . S
O504 C493 1.185 . S
O504 Dy495 2.398 . S
O505 C493 1.355 . S
O505 Dy495 2.491 . S
O506 Dy495 2.403 . S
O506 C501 1.254 . S
O507 Dy492 2.310 . S
O507 Dy495 2.664 . S
O507 C501 1.268 . S
O508 Dy492 2.351 . S
O508 C511 1.249 . S
O509 Dy495 2.326 . S
O509 C511 1.267 . S
C510 O502 1.249 . S
C510 O503 1.267 . S
C511 O508 1.249 . S
C511 O509 1.267 . S
Dy512 O516 2.398 . S
Dy512 O517 2.491 1_455 S
Dy512 O518 2.403 . S
Dy512 O519 2.664 . S
Dy512 O523 2.326 1_455 S
Dy512 O527 2.310 . S
Dy512 O528 2.351 . S
C513 O524 1.185 . S
C513 O525 1.355 . S
C514 O516 1.185 1_655 S
C514 O517 1.355 . S
Dy515 O519 2.310 . S
Dy515 O522 2.351 1_455 S
Dy515 O524 2.398 . S
Dy515 O525 2.491 . S
Dy515 O526 2.403 . S
Dy515 O527 2.664 . S
Dy515 O529 2.326 . S
O516 Dy512 2.398 . S
O516 C514 1.185 1_455 S
O517 Dy512 2.491 1_655 S
O517 C514 1.355 . S
O518 Dy512 2.403 . S
O518 C520 1.254 . S
O519 Dy512 2.664 . S
O519 Dy515 2.310 . S
O519 C520 1.268 . S
C520 O518 1.254 . S
C520 O519 1.268 . S
C521 O526 1.254 . S
C521 O527 1.268 . S
O522 Dy515 2.351 1_655 S
O522 C530 1.249 . S
O523 Dy512 2.326 1_655 S
O523 C530 1.267 . S
O524 C513 1.185 . S
O524 Dy515 2.398 . S
O525 C513 1.355 . S
O525 Dy515 2.491 . S
O526 Dy515 2.403 . S
O526 C521 1.254 . S
O527 Dy512 2.310 . S
O527 Dy515 2.664 . S
O527 C521 1.268 . S
O528 Dy512 2.351 . S
O528 C531 1.249 . S
O529 Dy515 2.326 . S
O529 C531 1.267 . S
C530 O522 1.249 . S
C530 O523 1.267 . S
C531 O528 1.249 . S
C531 O529 1.267 . S
Dy532 O536 2.398 . S
Dy532 O537 2.491 . S
Dy532 O538 2.403 . S
Dy532 O539 2.664 . S
Dy532 O543 2.326 . S
Dy532 O547 2.310 . S
Dy532 O548 2.351 . S
C533 O544 1.185 . S
C533 O545 1.355 . S
C534 O536 1.185 . S
C534 O537 1.355 . S
Dy535 O539 2.310 . S
Dy535 O542 2.351 . S
Dy535 O544 2.398 . S
Dy535 O545 2.491 . S
Dy535 O546 2.403 . S
Dy535 O547 2.664 . S
Dy535 O549 2.326 . S
O536 Dy532 2.398 . S
O536 C534 1.185 . S
O537 Dy532 2.491 . S
O537 C534 1.355 . S
O538 Dy532 2.403 . S
O538 C540 1.254 . S
O539 Dy532 2.664 . S
O539 Dy535 2.310 . S
O539 C540 1.268 . S
C540 O538 1.254 . S
C540 O539 1.268 . S
C541 O546 1.254 . S
C541 O547 1.268 . S
O542 Dy535 2.351 . S
O542 C550 1.249 . S
O543 Dy532 2.326 . S
O543 C550 1.267 . S
O544 C533 1.185 . S
O544 Dy535 2.398 . S
O545 C533 1.355 . S
O545 Dy535 2.491 . S
O546 Dy535 2.403 . S
O546 C541 1.254 . S
O547 Dy532 2.310 . S
O547 Dy535 2.664 . S
O547 C541 1.268 . S
O548 Dy532 2.351 . S
O548 C551 1.249 . S
O549 Dy535 2.326 . S
O549 C551 1.267 . S
C550 O542 1.249 . S
C550 O543 1.267 . S
C551 O548 1.249 . S
C551 O549 1.267 . S
Dy552 O556 2.398 . S
Dy552 O557 2.491 . S
Dy552 O558 2.403 . S
Dy552 O559 2.664 . S
Dy552 O563 2.326 . S
Dy552 O567 2.310 . S
Dy552 O568 2.351 . S
C553 O564 1.185 . S
C553 O565 1.355 . S
C554 O556 1.185 . S
C554 O557 1.355 . S
Dy555 O559 2.310 . S
Dy555 O562 2.351 . S
Dy555 O564 2.398 . S
Dy555 O565 2.491 . S
Dy555 O566 2.403 . S
Dy555 O567 2.664 . S
Dy555 O569 2.326 . S
O556 Dy552 2.398 . S
O556 C554 1.185 . S
O557 Dy552 2.491 . S
O557 C554 1.355 . S
O558 Dy552 2.403 . S
O558 C560 1.254 . S
O559 Dy552 2.664 . S
O559 Dy555 2.310 . S
O559 C560 1.268 . S
C560 O558 1.254 . S
C560 O559 1.268 . S
C561 O566 1.254 . S
C561 O567 1.268 . S
O562 Dy555 2.351 . S
O562 C570 1.249 . S
O563 Dy552 2.326 . S
O563 C570 1.267 . S
O564 C553 1.185 . S
O564 Dy555 2.398 . S
O565 C553 1.355 . S
O565 Dy555 2.491 . S
O566 Dy555 2.403 . S
O566 C561 1.254 . S
O567 Dy552 2.310 . S
O567 Dy555 2.664 . S
O567 C561 1.268 . S
O568 Dy552 2.351 . S
O568 C571 1.249 . S
O569 Dy555 2.326 . S
O569 C571 1.267 . S
C570 O562 1.249 . S
C570 O563 1.267 . S
C571 O568 1.249 . S
C571 O569 1.267 . S
Dy572 O576 2.398 . S
Dy572 O577 2.491 . S
Dy572 O578 2.403 . S
Dy572 O579 2.664 . S
Dy572 O583 2.326 . S
Dy572 O587 2.310 . S
Dy572 O588 2.351 . S
C573 O584 1.185 . S
C573 O585 1.355 . S
C574 O576 1.185 . S
C574 O577 1.355 . S
Dy575 O579 2.310 . S
Dy575 O582 2.351 . S
Dy575 O584 2.398 . S
Dy575 O585 2.491 . S
Dy575 O586 2.403 . S
Dy575 O587 2.664 . S
Dy575 O589 2.326 . S
O576 Dy572 2.398 . S
O576 C574 1.185 . S
O577 Dy572 2.491 . S
O577 C574 1.355 . S
O578 Dy572 2.403 . S
O578 C580 1.254 . S
O579 Dy572 2.664 . S
O579 Dy575 2.310 . S
O579 C580 1.268 . S
C580 O578 1.254 . S
C580 O579 1.268 . S
C581 O586 1.254 . S
C581 O587 1.268 . S
O582 Dy575 2.351 . S
O582 C590 1.249 . S
O583 Dy572 2.326 . S
O583 C590 1.267 . S
O584 C573 1.185 . S
O584 Dy575 2.398 . S
O585 C573 1.355 . S
O585 Dy575 2.491 . S
O586 Dy575 2.403 . S
O586 C581 1.254 . S
O587 Dy572 2.310 . S
O587 Dy575 2.664 . S
O587 C581 1.268 . S
O588 Dy572 2.351 . S
O588 C591 1.249 . S
O589 Dy575 2.326 . S
O589 C591 1.267 . S
C590 O582 1.249 . S
C590 O583 1.267 . S
C591 O588 1.249 . S
C591 O589 1.267 . S
Dy592 O596 2.398 . S
Dy592 O597 2.491 . S
Dy592 O598 2.403 . S
Dy592 O599 2.664 . S
Dy592 O603 2.326 . S
Dy592 O607 2.310 . S
Dy592 O608 2.351 . S
C593 O604 1.185 . S
C593 O605 1.355 . S
C594 O596 1.185 . S
C594 O597 1.355 . S
Dy595 O599 2.310 . S
Dy595 O602 2.351 . S
Dy595 O604 2.398 . S
Dy595 O605 2.491 . S
Dy595 O606 2.403 . S
Dy595 O607 2.664 . S
Dy595 O609 2.326 . S
O596 Dy592 2.398 . S
O596 C594 1.185 . S
O597 Dy592 2.491 . S
O597 C594 1.355 . S
O598 Dy592 2.403 . S
O598 C600 1.254 . S
O599 Dy592 2.664 . S
O599 Dy595 2.310 . S
O599 C600 1.268 . S
C600 O598 1.254 . S
C600 O599 1.268 . S
C601 O606 1.254 . S
C601 O607 1.268 . S
O602 Dy595 2.351 . S
O602 C610 1.249 . S
O603 Dy592 2.326 . S
O603 C610 1.267 . S
O604 C593 1.185 . S
O604 Dy595 2.398 . S
O605 C593 1.355 . S
O605 Dy595 2.491 . S
O606 Dy595 2.403 . S
O606 C601 1.254 . S
O607 Dy592 2.310 . S
O607 Dy595 2.664 . S
O607 C601 1.268 . S
O608 Dy592 2.351 . S
O608 C611 1.249 . S
O609 Dy595 2.326 . S
O609 C611 1.267 . S
C610 O602 1.249 . S
C610 O603 1.267 . S
C611 O608 1.249 . S
C611 O609 1.267 . S
Dy612 O616 2.398 . S
Dy612 O617 2.491 1_556 S
Dy612 O618 2.403 . S
Dy612 O619 2.664 . S
Dy612 O623 2.326 . S
Dy612 O627 2.310 1_556 S
Dy612 O628 2.351 1_556 S
C613 O624 1.185 . S
C613 O625 1.355 . S
C614 O616 1.185 . S
C614 O617 1.355 1_556 S
Dy615 O619 2.310 1_654 S
Dy615 O622 2.351 . S
Dy615 O624 2.398 . S
Dy615 O625 2.491 . S
Dy615 O626 2.403 1_655 S
Dy615 O627 2.664 1_655 S
Dy615 O629 2.326 1_655 S
O616 Dy612 2.398 . S
O616 C614 1.185 . S
O617 Dy612 2.491 1_554 S
O617 C614 1.355 1_554 S
O618 Dy612 2.403 . S
O618 C620 1.254 . S
O619 Dy612 2.664 . S
O619 Dy615 2.310 1_456 S
O619 C620 1.268 . S
C620 O618 1.254 . S
C620 O619 1.268 . S
C621 O626 1.254 . S
C621 O627 1.268 . S
O622 Dy615 2.351 . S
O622 C630 1.249 1_654 S
O623 Dy612 2.326 . S
O623 C630 1.267 . S
O624 C613 1.185 . S
O624 Dy615 2.398 . S
O625 C613 1.355 . S
O625 Dy615 2.491 . S
O626 Dy615 2.403 1_455 S
O626 C621 1.254 . S
O627 Dy612 2.310 1_554 S
O627 Dy615 2.664 1_455 S
O627 C621 1.268 . S
O628 Dy612 2.351 1_554 S
O628 C631 1.249 . S
O629 Dy615 2.326 1_455 S
O629 C631 1.267 . S
C630 O622 1.249 1_456 S
C630 O623 1.267 . S
C631 O628 1.249 . S
C631 O629 1.267 . S
H632 C638 0.930 . S
H633 C642 0.930 1_554 S
H634 C647 0.929 . S
H635 C645 0.929 . S
H636 C640 0.929 . S
H637 C646 0.929 . S
C638 H632 0.930 . S
C638 C639 1.367 1_455 S
C638 C646 1.378 . S
C639 C638 1.367 1_655 S
C639 C647 1.433 . S
C640 H636 0.929 . S
C640 C642 1.378 . S
C640 C644 1.350 1_655 S
C641 C644 1.463 . S
C641 C646 1.350 . S
C641 N649 1.427 1_455 S
C642 H633 0.930 1_556 S
C642 C640 1.378 . S
C642 C643 1.367 1_655 S
C643 C642 1.367 1_455 S
C643 C645 1.433 . S
C644 C640 1.350 1_455 S
C644 C641 1.463 . S
C644 N648 1.427 . S
C645 H635 0.929 . S
C645 C643 1.433 . S
C645 N648 1.384 . S
C646 H637 0.929 . S
C646 C638 1.378 . S
C646 C641 1.350 . S
C647 H634 0.929 . S
C647 C639 1.433 . S
C647 N649 1.384 . S
N648 C644 1.427 . S
N648 C645 1.384 . S
N649 C641 1.427 1_655 S
N649 C647 1.384 . S
H650 C656 0.930 . S
H651 C660 0.930 . S
H652 C665 0.929 . S
H653 C663 0.929 . S
H654 C658 0.929 . S
H655 C664 0.929 . S
C656 H650 0.930 . S
C656 C657 1.367 . S
C656 C664 1.378 . S
C657 C656 1.367 . S
C657 C665 1.433 . S
C658 H654 0.929 . S
C658 C660 1.378 . S
C658 C662 1.350 . S
C659 C662 1.463 . S
C659 C664 1.350 . S
C659 N667 1.427 . S
C660 H651 0.930 . S
C660 C658 1.378 . S
C660 C661 1.367 . S
C661 C660 1.367 . S
C661 C663 1.433 . S
C662 C658 1.350 . S
C662 C659 1.463 . S
C662 N666 1.427 . S
C663 H653 0.929 . S
C663 C661 1.433 . S
C663 N666 1.384 . S
C664 H655 0.929 . S
C664 C656 1.378 . S
C664 C659 1.350 . S
C665 H652 0.929 . S
C665 C657 1.433 . S
C665 N667 1.384 . S
N666 C662 1.427 . S
N666 C663 1.384 . S
N667 C659 1.427 . S
N667 C665 1.384 . S
H668 C674 0.930 . S
H669 C678 0.930 . S
H670 C683 0.929 . S
H671 C681 0.929 . S
H672 C676 0.929 . S
H673 C682 0.929 . S
C674 H668 0.930 . S
C674 C675 1.367 . S
C674 C682 1.378 . S
C675 C674 1.367 . S
C675 C683 1.433 . S
C676 H672 0.929 . S
C676 C678 1.378 . S
C676 C680 1.350 . S
C677 C680 1.463 . S
C677 C682 1.350 . S
C677 N685 1.427 . S
C678 H669 0.930 . S
C678 C676 1.378 . S
C678 C679 1.367 . S
C679 C678 1.367 . S
C679 C681 1.433 . S
C680 C676 1.350 . S
C680 C677 1.463 . S
C680 N684 1.427 . S
C681 H671 0.929 . S
C681 C679 1.433 . S
C681 N684 1.384 . S
C682 H673 0.929 . S
C682 C674 1.378 . S
C682 C677 1.350 . S
C683 H670 0.929 . S
C683 C675 1.433 . S
C683 N685 1.384 . S
N684 C680 1.427 . S
N684 C681 1.384 . S
N685 C677 1.427 . S
N685 C683 1.384 . S
H686 C692 0.930 . S
H687 C696 0.930 . S
H688 C701 0.929 . S
H689 C699 0.929 . S
H690 C694 0.929 . S
H691 C700 0.929 . S
C692 H686 0.930 . S
C692 C693 1.367 . S
C692 C700 1.378 . S
C693 C692 1.367 . S
C693 C701 1.433 . S
C694 H690 0.929 . S
C694 C696 1.378 . S
C694 C698 1.350 . S
C695 C698 1.463 . S
C695 C700 1.350 . S
C695 N703 1.427 . S
C696 H687 0.930 . S
C696 C694 1.378 . S
C696 C697 1.367 . S
C697 C696 1.367 . S
C697 C699 1.433 . S
C698 C694 1.350 . S
C698 C695 1.463 . S
C698 N702 1.427 . S
C699 H689 0.929 . S
C699 C697 1.433 . S
C699 N702 1.384 . S
C700 H691 0.929 . S
C700 C692 1.378 . S
C700 C695 1.350 . S
C701 H688 0.929 . S
C701 C693 1.433 . S
C701 N703 1.384 . S
N702 C698 1.427 . S
N702 C699 1.384 . S
N703 C695 1.427 . S
N703 C701 1.384 . S
H704 C710 0.930 . S
H705 C714 0.930 1_655 S
H706 C719 0.929 . S
H707 C717 0.929 . S
H708 C712 0.929 1_655 S
H709 C718 0.929 . S
C710 H704 0.930 . S
C710 C711 1.367 . S
C710 C718 1.378 . S
C711 C710 1.367 . S
C711 C719 1.433 1_455 S
C712 H708 0.929 1_455 S
C712 C714 1.378 . S
C712 C716 1.350 . S
C713 C716 1.463 . S
C713 C718 1.350 . S
C713 N721 1.425 . S
C714 H705 0.930 1_455 S
C714 C712 1.378 . S
C714 C715 1.367 . S
C715 C714 1.367 . S
C715 C717 1.433 . S
C716 C712 1.350 . S
C716 C713 1.463 . S
C716 N720 1.427 . S
C717 H707 0.929 . S
C717 C715 1.433 . S
C717 N720 1.384 . S
C718 H709 0.929 . S
C718 C710 1.378 . S
C718 C713 1.350 . S
C719 H706 0.929 . S
C719 C711 1.433 1_655 S
C719 N721 1.383 1_655 S
N720 C716 1.427 . S
N720 C717 1.384 . S
N721 C713 1.425 . S
N721 C719 1.383 1_455 S
H722 C728 0.930 . S
H723 C732 0.930 . S
H724 C737 0.929 . S
H725 C735 0.929 . S
H726 C730 0.929 . S
H727 C736 0.929 . S
C728 H722 0.930 . S
C728 C729 1.367 . S
C728 C736 1.378 . S
C729 C728 1.367 . S
C729 C737 1.433 . S
C730 H726 0.929 . S
C730 C732 1.378 . S
C730 C734 1.350 . S
C731 C734 1.463 . S
C731 C736 1.350 . S
C731 N739 1.427 . S
C732 H723 0.930 . S
C732 C730 1.378 . S
C732 C733 1.367 . S
C733 C732 1.367 . S
C733 C735 1.433 . S
C734 C730 1.350 . S
C734 C731 1.463 . S
C734 N738 1.427 . S
C735 H725 0.929 . S
C735 C733 1.433 . S
C735 N738 1.384 . S
C736 H727 0.929 . S
C736 C728 1.378 . S
C736 C731 1.350 . S
C737 H724 0.929 . S
C737 C729 1.433 . S
C737 N739 1.384 . S
N738 C734 1.427 . S
N738 C735 1.384 . S
N739 C731 1.427 . S
N739 C737 1.384 . S
H740 C746 0.930 . S
H741 C750 0.930 . S
H742 C755 0.929 . S
H743 C753 0.929 . S
H744 C748 0.929 . S
H745 C754 0.929 . S
C746 H740 0.930 . S
C746 C747 1.367 . S
C746 C754 1.378 . S
C747 C746 1.367 . S
C747 C755 1.433 . S
C748 H744 0.929 . S
C748 C750 1.378 . S
C748 C752 1.350 . S
C749 C752 1.463 . S
C749 C754 1.350 . S
C749 N757 1.427 . S
C750 H741 0.930 . S
C750 C748 1.378 . S
C750 C751 1.367 . S
C751 C750 1.367 . S
C751 C753 1.433 . S
C752 C748 1.350 . S
C752 C749 1.463 . S
C752 N756 1.427 . S
C753 H743 0.929 . S
C753 C751 1.433 . S
C753 N756 1.384 . S
C754 H745 0.929 . S
C754 C746 1.378 . S
C754 C749 1.350 . S
C755 H742 0.929 . S
C755 C747 1.433 . S
C755 N757 1.384 . S
N756 C752 1.427 . S
N756 C753 1.384 . S
N757 C749 1.427 . S
N757 C755 1.384 . S
H758 C764 0.930 . S
H759 C768 0.930 . S
H760 C773 0.929 . S
H761 C771 0.929 . S
H762 C766 0.929 . S
H763 C772 0.929 . S
C764 H758 0.930 . S
C764 C765 1.367 . S
C764 C772 1.378 . S
C765 C764 1.367 . S
C765 C773 1.433 . S
C766 H762 0.929 . S
C766 C768 1.378 . S
C766 C770 1.350 . S
C767 C770 1.463 . S
C767 C772 1.350 . S
C767 N775 1.427 . S
C768 H759 0.930 . S
C768 C766 1.378 . S
C768 C769 1.367 . S
C769 C768 1.367 . S
C769 C771 1.433 . S
C770 C766 1.350 . S
C770 C767 1.463 . S
C770 N774 1.427 . S
C771 H761 0.929 . S
C771 C769 1.433 . S
C771 N774 1.384 . S
C772 H763 0.929 . S
C772 C764 1.378 . S
C772 C767 1.350 . S
C773 H760 0.929 . S
C773 C765 1.433 . S
C773 N775 1.384 . S
N774 C770 1.427 . S
N774 C771 1.384 . S
N775 C767 1.427 . S
N775 C773 1.384 . S
H776 C782 0.930 . S
H777 C786 0.930 1_565 S
H778 C791 0.929 . S
H779 C789 0.939 . S
H780 C784 0.950 . S
H781 C790 0.929 . S
C782 H776 0.930 . S
C782 C783 1.367 . S
C782 C790 1.378 . S
C783 C782 1.367 . S
C783 C791 1.433 . S
C784 H780 0.950 . S
C784 C786 1.378 . S
C784 C788 1.350 . S
C785 C788 1.463 . S
C785 C790 1.350 . S
C785 N793 1.427 . S
C786 H777 0.930 1_545 S
C786 C784 1.378 . S
C786 C787 1.367 . S
C787 C786 1.367 . S
C787 C789 1.433 . S
C788 C784 1.350 . S
C788 C785 1.463 . S
C788 N792 1.427 . S
C789 H779 0.939 . S
C789 C787 1.433 . S
C789 N792 1.384 . S
C790 H781 0.929 . S
C790 C782 1.378 . S
C790 C785 1.350 . S
C791 H778 0.929 . S
C791 C783 1.433 . S
C791 N793 1.384 . S
N792 C788 1.427 . S
N792 C789 1.384 . S
N793 C785 1.427 . S
N793 C791 1.384 . S
H794 C800 0.930 . S
H795 C804 0.930 . S
H796 C809 0.929 . S
H797 C807 0.929 . S
H798 C802 0.929 . S
H799 C808 0.929 . S
C800 H794 0.930 . S
C800 C801 1.367 . S
C800 C808 1.378 . S
C801 C800 1.367 . S
C801 C809 1.433 . S
C802 H798 0.929 . S
C802 C804 1.378 . S
C802 C806 1.350 . S
C803 C806 1.463 . S
C803 C808 1.350 . S
C803 N811 1.427 . S
C804 H795 0.930 . S
C804 C802 1.378 . S
C804 C805 1.367 . S
C805 C804 1.367 . S
C805 C807 1.433 . S
C806 C802 1.350 . S
C806 C803 1.463 . S
C806 N810 1.427 . S
C807 H797 0.929 . S
C807 C805 1.433 . S
C807 N810 1.384 . S
C808 H799 0.929 . S
C808 C800 1.378 . S
C808 C803 1.350 . S
C809 H796 0.929 . S
C809 C801 1.433 . S
C809 N811 1.384 . S
N810 C806 1.427 . S
N810 C807 1.384 . S
N811 C803 1.427 . S
N811 C809 1.384 . S
H812 C818 0.930 1_565 S
H813 C822 0.930 . S
H814 C827 0.929 . S
H815 C825 0.929 1_565 S
H816 C820 0.929 . S
H817 C826 0.929 1_565 S
C818 H812 0.930 1_545 S
C818 C819 1.367 . S
C818 C826 1.378 . S
C819 C818 1.367 . S
C819 C827 1.433 . S
C820 H816 0.929 . S
C820 C822 1.378 . S
C820 C824 1.350 . S
C821 C824 1.463 . S
C821 C826 1.350 . S
C821 N829 1.427 . S
C822 H813 0.930 . S
C822 C820 1.378 . S
C822 C823 1.367 . S
C823 C822 1.367 . S
C823 C825 1.433 . S
C824 C820 1.350 . S
C824 C821 1.463 . S
C824 N828 1.427 . S
C825 H815 0.929 1_545 S
C825 C823 1.433 . S
C825 N828 1.384 . S
C826 H817 0.929 1_545 S
C826 C818 1.378 . S
C826 C821 1.350 . S
C827 H814 0.929 . S
C827 C819 1.433 . S
C827 N829 1.384 . S
N828 C824 1.427 . S
N828 C825 1.384 . S
N829 C821 1.427 . S
N829 C827 1.384 . S
H830 C836 0.930 . S
H831 C840 0.930 . S
H832 C845 0.929 . S
H833 C843 0.929 . S
H834 C838 0.929 . S
H835 C844 0.929 . S
C836 H830 0.930 . S
C836 C837 1.367 . S
C836 C844 1.378 . S
C837 C836 1.367 . S
C837 C845 1.433 . S
C838 H834 0.929 . S
C838 C840 1.378 . S
C838 C842 1.350 . S
C839 C842 1.463 . S
C839 C844 1.350 . S
C839 N847 1.427 . S
C840 H831 0.930 . S
C840 C838 1.378 . S
C840 C841 1.367 . S
C841 C840 1.367 . S
C841 C843 1.433 . S
C842 C838 1.350 . S
C842 C839 1.463 . S
C842 N846 1.427 . S
C843 H833 0.929 . S
C843 C841 1.433 . S
C843 N846 1.384 . S
C844 H835 0.929 . S
C844 C836 1.378 . S
C844 C839 1.350 . S
C845 H832 0.929 . S
C845 C837 1.433 . S
C845 N847 1.384 . S
N846 C842 1.427 . S
N846 C843 1.384 . S
N847 C839 1.427 . S
N847 C845 1.384 . S
H848 C854 0.930 . S
H849 C858 0.930 . S
H850 C863 0.929 . S
H851 C861 0.929 1_455 S
H852 C856 0.929 . S
H853 C862 0.929 . S
C854 H848 0.930 . S
C854 C855 1.367 . S
C854 C862 1.378 . S
C855 C854 1.367 . S
C855 C863 1.433 . S
C856 H852 0.929 . S
C856 C858 1.378 . S
C856 C860 1.350 . S
C857 C860 1.463 . S
C857 C862 1.350 . S
C857 N865 1.427 . S
C858 H849 0.930 . S
C858 C856 1.378 . S
C858 C859 1.367 . S
C859 C858 1.367 . S
C859 C861 1.433 . S
C860 C856 1.350 . S
C860 C857 1.463 . S
C860 N864 1.427 . S
C861 H851 0.929 1_655 S
C861 C859 1.433 . S
C861 N864 1.384 . S
C862 H853 0.929 . S
C862 C854 1.378 . S
C862 C857 1.350 . S
C863 H850 0.929 . S
C863 C855 1.433 . S
C863 N865 1.384 . S
N864 C860 1.427 . S
N864 C861 1.384 . S
N865 C857 1.427 . S
N865 C863 1.384 . S
H866 C872 0.930 . S
H867 C876 0.930 . S
H868 C881 0.929 . S
H869 C879 0.929 . S
H870 C874 0.929 . S
H871 C880 0.929 . S
C872 H866 0.930 . S
C872 C873 1.367 . S
C872 C880 1.378 . S
C873 C872 1.367 . S
C873 C881 1.433 . S
C874 H870 0.929 . S
C874 C876 1.378 . S
C874 C878 1.350 . S
C875 C878 1.463 . S
C875 C880 1.350 . S
C875 N883 1.427 . S
C876 H867 0.930 . S
C876 C874 1.378 . S
C876 C877 1.367 . S
C877 C876 1.367 . S
C877 C879 1.433 . S
C878 C874 1.350 . S
C878 C875 1.463 . S
C878 N882 1.427 . S
C879 H869 0.929 . S
C879 C877 1.433 . S
C879 N882 1.384 . S
C880 H871 0.929 . S
C880 C872 1.378 . S
C880 C875 1.350 . S
C881 H868 0.929 . S
C881 C873 1.433 . S
C881 N883 1.384 . S
N882 C878 1.427 . S
N882 C879 1.384 . S
N883 C875 1.427 . S
N883 C881 1.384 . S
H884 C890 0.930 1_565 S
H885 C894 0.930 . S
H886 C899 0.929 . S
H887 C897 0.929 . S
H888 C892 0.929 . S
H889 C898 0.929 1_565 S
C890 H884 0.930 1_545 S
C890 C891 1.367 . S
C890 C898 1.378 . S
C891 C890 1.367 . S
C891 C899 1.433 . S
C892 H888 0.929 . S
C892 C894 1.378 . S
C892 C896 1.350 . S
C893 C896 1.463 . S
C893 C898 1.350 . S
C893 N901 1.427 . S
C894 H885 0.930 . S
C894 C892 1.378 . S
C894 C895 1.367 . S
C895 C894 1.367 . S
C895 C897 1.433 . S
C896 C892 1.350 . S
C896 C893 1.463 . S
C896 N900 1.427 . S
C897 H887 0.929 . S
C897 C895 1.433 . S
C897 N900 1.384 . S
C898 H889 0.929 1_545 S
C898 C890 1.378 . S
C898 C893 1.350 . S
C899 H886 0.929 . S
C899 C891 1.433 . S
C899 N901 1.384 . S
N900 C896 1.427 . S
N900 C897 1.384 . S
N901 C893 1.427 . S
N901 C899 1.384 . S
H902 C908 0.930 . S
H903 C912 0.930 . S
H904 C917 0.929 . S
H905 C915 0.929 . S
H906 C910 0.929 . S
H907 C916 0.929 . S
C908 H902 0.930 . S
C908 C909 1.367 . S
C908 C916 1.378 . S
C909 C908 1.367 . S
C909 C917 1.433 . S
C910 H906 0.929 . S
C910 C912 1.378 . S
C910 C914 1.350 . S
C911 C914 1.463 . S
C911 C916 1.350 . S
C911 N919 1.427 . S
C912 H903 0.930 . S
C912 C910 1.378 . S
C912 C913 1.367 . S
C913 C912 1.367 . S
C913 C915 1.433 . S
C914 C910 1.350 . S
C914 C911 1.463 . S
C914 N918 1.427 . S
C915 H905 0.929 . S
C915 C913 1.433 . S
C915 N918 1.384 . S
C916 H907 0.929 . S
C916 C908 1.378 . S
C916 C911 1.350 . S
C917 H904 0.929 . S
C917 C909 1.433 . S
C917 N919 1.384 . S
N918 C914 1.427 . S
N918 C915 1.384 . S
N919 C911 1.427 . S
N919 C917 1.384 . S
H920 C926 0.930 . S
H921 C930 0.930 . S
H922 C935 0.929 1_556 S
H923 C933 0.929 . S
H924 C928 0.900 1_556 S
H925 C934 0.929 . S
C926 H920 0.930 . S
C926 C927 1.367 . S
C926 C934 1.378 . S
C927 C926 1.367 . S
C927 C935 1.433 . S
C928 H924 0.900 1_554 S
C928 C930 1.378 . S
C928 C932 1.350 . S
C929 C932 1.463 . S
C929 C934 1.350 . S
C929 N937 1.427 . S
C930 H921 0.930 . S
C930 C928 1.378 . S
C930 C931 1.367 . S
C931 C930 1.367 . S
C931 C933 1.433 1_565 S
C932 C928 1.350 . S
C932 C929 1.463 . S
C932 N936 1.427 . S
C933 H923 0.929 . S
C933 C931 1.433 1_545 S
C933 N936 1.384 1_545 S
C934 H925 0.929 . S
C934 C926 1.378 . S
C934 C929 1.350 . S
C935 H922 0.929 1_554 S
C935 C927 1.433 . S
C935 N937 1.384 . S
N936 C932 1.427 . S
N936 C933 1.384 1_565 S
N937 C929 1.427 . S
N937 C935 1.384 . S
H938 C944 0.930 . S
H939 C948 0.930 . S
H940 C953 0.929 . S
H941 C951 0.929 . S
H942 C946 0.929 . S
H943 C952 0.929 . S
C944 H938 0.930 . S
C944 C945 1.367 . S
C944 C952 1.378 . S
C945 C944 1.367 . S
C945 C953 1.433 . S
C946 H942 0.929 . S
C946 C948 1.378 . S
C946 C950 1.350 . S
C947 C950 1.463 . S
C947 C952 1.350 . S
C947 N955 1.427 . S
C948 H939 0.930 . S
C948 C946 1.378 . S
C948 C949 1.367 . S
C949 C948 1.367 . S
C949 C951 1.433 . S
C950 C946 1.350 . S
C950 C947 1.463 . S
C950 N954 1.427 . S
C951 H941 0.929 . S
C951 C949 1.433 . S
C951 N954 1.384 . S
C952 H943 0.929 . S
C952 C944 1.378 . S
C952 C947 1.350 . S
C953 H940 0.929 . S
C953 C945 1.433 . S
C953 N955 1.384 . S
N954 C950 1.427 . S
N954 C951 1.384 . S
N955 C947 1.427 . S
N955 C953 1.384 . S
H956 C962 0.930 . S
H957 C966 0.930 . S
H958 C971 0.929 . S
H959 C969 0.929 . S
H960 C964 0.929 . S
H961 C970 0.929 . S
C962 H956 0.930 . S
C962 C963 1.367 . S
C962 C970 1.378 . S
C963 C962 1.367 . S
C963 C971 1.433 . S
C964 H960 0.929 . S
C964 C966 1.378 . S
C964 C968 1.350 . S
C965 C968 1.463 . S
C965 C970 1.350 . S
C965 N973 1.427 . S
C966 H957 0.930 . S
C966 C964 1.378 . S
C966 C967 1.367 . S
C967 C966 1.367 . S
C967 C969 1.433 . S
C968 C964 1.350 . S
C968 C965 1.463 . S
C968 N972 1.427 . S
C969 H959 0.929 . S
C969 C967 1.433 . S
C969 N972 1.384 . S
C970 H961 0.929 . S
C970 C962 1.378 . S
C970 C965 1.350 . S
C971 H958 0.929 . S
C971 C963 1.433 . S
C971 N973 1.384 . S
N972 C968 1.427 . S
N972 C969 1.384 . S
N973 C965 1.427 . S
N973 C971 1.384 . S
H974 C980 0.930 . S
H975 C984 0.930 . S
H976 C989 0.929 . S
H977 C987 0.929 . S
H978 C982 0.929 . S
H979 C988 0.929 . S
C980 H974 0.930 . S
C980 C981 1.367 . S
C980 C988 1.378 . S
C981 C980 1.367 . S
C981 C989 1.433 . S
C982 H978 0.929 . S
C982 C984 1.378 . S
C982 C986 1.350 . S
C983 C986 1.463 . S
C983 C988 1.350 . S
C983 N991 1.427 . S
C984 H975 0.930 . S
C984 C982 1.378 . S
C984 C985 1.367 . S
C985 C984 1.367 . S
C985 C987 1.433 . S
C986 C982 1.350 . S
C986 C983 1.463 . S
C986 N990 1.427 . S
C987 H977 0.929 . S
C987 C985 1.433 . S
C987 N990 1.384 . S
C988 H979 0.929 . S
C988 C980 1.378 . S
C988 C983 1.350 . S
C989 H976 0.929 . S
C989 C981 1.433 . S
C989 N991 1.384 . S
N990 C986 1.427 . S
N990 C987 1.384 . S
N991 C983 1.427 . S
N991 C989 1.384 . S
H992 C998 0.930 . S
H993 C1002 0.930 . S
H994 C1007 0.929 . S
H995 C1005 0.929 . S
H996 C1000 0.929 . S
H997 C1006 0.929 . S
C998 H992 0.930 . S
C998 C999 1.367 . S
C998 C1006 1.378 . S
C999 C998 1.367 . S
C999 C1007 1.433 . S
C1000 H996 0.929 . S
C1000 C1002 1.378 . S
C1000 C1004 1.350 . S
C1001 C1004 1.463 . S
C1001 C1006 1.350 . S
C1001 N1009 1.427 . S
C1002 H993 0.930 . S
C1002 C1000 1.378 . S
C1002 C1003 1.367 . S
C1003 C1002 1.367 . S
C1003 C1005 1.433 . S
C1004 C1000 1.350 . S
C1004 C1001 1.463 . S
C1004 N1008 1.427 . S
C1005 H995 0.929 . S
C1005 C1003 1.433 . S
C1005 N1008 1.384 . S
C1006 H997 0.929 . S
C1006 C998 1.378 . S
C1006 C1001 1.350 . S
C1007 H994 0.929 . S
C1007 C999 1.433 . S
C1007 N1009 1.384 . S
N1008 C1004 1.427 . S
N1008 C1005 1.384 . S
N1009 C1001 1.427 . S
N1009 C1007 1.384 . S
H1010 C1016 0.930 . S
H1011 C1020 0.930 . S
H1012 C1025 0.929 . S
H1013 C1023 0.929 . S
H1014 C1018 0.929 . S
H1015 C1024 0.929 . S
C1016 H1010 0.930 . S
C1016 C1017 1.367 . S
C1016 C1024 1.378 . S
C1017 C1016 1.367 . S
C1017 C1025 1.433 . S
C1018 H1014 0.929 . S
C1018 C1020 1.378 . S
C1018 C1022 1.350 . S
C1019 C1022 1.463 . S
C1019 C1024 1.350 . S
C1019 N1027 1.427 . S
C1020 H1011 0.930 . S
C1020 C1018 1.378 . S
C1020 C1021 1.367 . S
C1021 C1020 1.367 . S
C1021 C1023 1.433 . S
C1022 C1018 1.350 . S
C1022 C1019 1.463 . S
C1022 N1026 1.427 . S
C1023 H1013 0.929 . S
C1023 C1021 1.433 . S
C1023 N1026 1.384 . S
C1024 H1015 0.929 . S
C1024 C1016 1.378 . S
C1024 C1019 1.350 . S
C1025 H1012 0.929 . S
C1025 C1017 1.433 . S
C1025 N1027 1.384 . S
N1026 C1022 1.427 . S
N1026 C1023 1.384 . S
N1027 C1019 1.427 . S
N1027 C1025 1.384 . S
H1028 C1034 0.930 . S
H1029 C1038 0.930 . S
H1030 C1043 0.929 . S
H1031 C1041 0.929 . S
H1032 C1036 0.929 . S
H1033 C1042 0.929 . S
C1034 H1028 0.930 . S
C1034 C1035 1.367 . S
C1034 C1042 1.378 . S
C1035 C1034 1.367 . S
C1035 C1043 1.433 . S
C1036 H1032 0.929 . S
C1036 C1038 1.378 . S
C1036 C1040 1.350 . S
C1037 C1040 1.463 . S
C1037 C1042 1.350 . S
C1037 N1045 1.427 . S
C1038 H1029 0.930 . S
C1038 C1036 1.378 . S
C1038 C1039 1.367 . S
C1039 C1038 1.367 . S
C1039 C1041 1.433 . S
C1040 C1036 1.350 . S
C1040 C1037 1.463 . S
C1040 N1044 1.427 . S
C1041 H1031 0.929 . S
C1041 C1039 1.433 . S
C1041 N1044 1.384 . S
C1042 H1033 0.929 . S
C1042 C1034 1.378 . S
C1042 C1037 1.350 . S
C1043 H1030 0.929 . S
C1043 C1035 1.433 . S
C1043 N1045 1.384 . S
N1044 C1040 1.427 . S
N1044 C1041 1.384 . S
N1045 C1037 1.427 . S
N1045 C1043 1.384 . S
H1046 C1052 0.930 . S
H1047 C1056 0.930 . S
H1048 C1061 0.929 . S
H1049 C1059 0.929 . S
H1050 C1054 0.929 . S
H1051 C1060 0.929 . S
C1052 H1046 0.930 . S
C1052 C1053 1.367 . S
C1052 C1060 1.378 . S
C1053 C1052 1.367 . S
C1053 C1061 1.433 . S
C1054 H1050 0.929 . S
C1054 C1056 1.378 . S
C1054 C1058 1.350 . S
C1055 C1058 1.463 . S
C1055 C1060 1.350 . S
C1055 N1063 1.427 . S
C1056 H1047 0.930 . S
C1056 C1054 1.378 . S
C1056 C1057 1.367 . S
C1057 C1056 1.367 . S
C1057 C1059 1.433 . S
C1058 C1054 1.350 . S
C1058 C1055 1.463 . S
C1058 N1062 1.427 . S
C1059 H1049 0.929 . S
C1059 C1057 1.433 . S
C1059 N1062 1.384 . S
C1060 H1051 0.929 . S
C1060 C1052 1.378 . S
C1060 C1055 1.350 . S
C1061 H1048 0.929 . S
C1061 C1053 1.433 . S
C1061 N1063 1.384 . S
N1062 C1058 1.427 . S
N1062 C1059 1.384 . S
N1063 C1055 1.427 . S
N1063 C1061 1.384 . S
H1064 C1070 0.930 . S
H1065 C1074 0.930 1_556 S
H1066 C1079 0.929 . S
H1067 C1077 0.929 . S
H1068 C1072 0.929 . S
H1069 C1078 0.929 . S
C1070 H1064 0.930 . S
C1070 C1071 1.367 . S
C1070 C1078 1.378 . S
C1071 C1070 1.367 . S
C1071 C1079 1.433 . S
C1072 H1068 0.929 . S
C1072 C1074 1.378 . S
C1072 C1076 1.350 . S
C1073 C1076 1.463 . S
C1073 C1078 1.350 . S
C1073 N1081 1.427 . S
C1074 H1065 0.930 1_554 S
C1074 C1072 1.378 . S
C1074 C1075 1.367 . S
C1075 C1074 1.367 . S
C1075 C1077 1.433 . S
C1076 C1072 1.350 . S
C1076 C1073 1.463 . S
C1076 N1080 1.427 . S
C1077 H1067 0.929 . S
C1077 C1075 1.433 . S
C1077 N1080 1.384 . S
C1078 H1069 0.929 . S
C1078 C1070 1.378 . S
C1078 C1073 1.350 . S
C1079 H1066 0.929 . S
C1079 C1071 1.433 . S
C1079 N1081 1.384 . S
N1080 C1076 1.427 . S
N1080 C1077 1.384 . S
N1081 C1073 1.427 . S
N1081 C1079 1.384 . S
H1082 C1088 0.930 . S
H1083 C1092 0.930 . S
H1084 C1097 0.929 . S
H1085 C1095 0.929 . S
H1086 C1090 0.929 . S
H1087 C1096 0.929 . S
C1088 H1082 0.930 . S
C1088 C1089 1.367 . S
C1088 C1096 1.378 . S
C1089 C1088 1.367 . S
C1089 C1097 1.433 . S
C1090 H1086 0.929 . S
C1090 C1092 1.378 . S
C1090 C1094 1.350 . S
C1091 C1094 1.463 . S
C1091 C1096 1.350 . S
C1091 N1099 1.427 . S
C1092 H1083 0.930 . S
C1092 C1090 1.378 . S
C1092 C1093 1.367 . S
C1093 C1092 1.367 . S
C1093 C1095 1.433 . S
C1094 C1090 1.350 . S
C1094 C1091 1.463 . S
C1094 N1098 1.427 . S
C1095 H1085 0.929 . S
C1095 C1093 1.433 . S
C1095 N1098 1.384 . S
C1096 H1087 0.929 . S
C1096 C1088 1.378 . S
C1096 C1091 1.350 . S
C1097 H1084 0.929 . S
C1097 C1089 1.433 . S
C1097 N1099 1.384 . S
N1098 C1094 1.427 . S
N1098 C1095 1.384 . S
N1099 C1091 1.427 . S
N1099 C1097 1.384 . S
H1100 C1106 0.930 . S
H1101 C1110 0.930 . S
H1102 C1115 0.929 . S
H1103 C1113 0.929 . S
H1104 C1108 0.929 . S
H1105 C1114 0.929 . S
C1106 H1100 0.930 . S
C1106 C1107 1.367 . S
C1106 C1114 1.378 . S
C1107 C1106 1.367 . S
C1107 C1115 1.433 . S
C1108 H1104 0.929 . S
C1108 C1110 1.378 . S
C1108 C1112 1.350 . S
C1109 C1112 1.463 . S
C1109 C1114 1.350 . S
C1109 N1117 1.427 . S
C1110 H1101 0.930 . S
C1110 C1108 1.378 . S
C1110 C1111 1.367 . S
C1111 C1110 1.367 . S
C1111 C1113 1.433 . S
C1112 C1108 1.350 . S
C1112 C1109 1.463 . S
C1112 N1116 1.427 . S
C1113 H1103 0.929 . S
C1113 C1111 1.433 . S
C1113 N1116 1.384 . S
C1114 H1105 0.929 . S
C1114 C1106 1.378 . S
C1114 C1109 1.350 . S
C1115 H1102 0.929 . S
C1115 C1107 1.433 . S
C1115 N1117 1.384 . S
N1116 C1112 1.427 . S
N1116 C1113 1.384 . S
N1117 C1109 1.427 . S
N1117 C1115 1.384 . S
H1118 C1124 0.930 . S
H1119 C1128 0.930 . S
H1120 C1133 0.929 . S
H1121 C1131 0.929 . S
H1122 C1126 0.929 . S
H1123 C1132 0.929 . S
C1124 H1118 0.930 . S
C1124 C1125 1.367 . S
C1124 C1132 1.378 . S
C1125 C1124 1.367 . S
C1125 C1133 1.433 . S
C1126 H1122 0.929 . S
C1126 C1128 1.378 . S
C1126 C1130 1.350 . S
C1127 C1130 1.463 . S
C1127 C1132 1.350 . S
C1127 N1135 1.427 . S
C1128 H1119 0.930 . S
C1128 C1126 1.378 . S
C1128 C1129 1.367 . S
C1129 C1128 1.367 . S
C1129 C1131 1.433 . S
C1130 C1126 1.350 . S
C1130 C1127 1.463 . S
C1130 N1134 1.427 . S
C1131 H1121 0.929 . S
C1131 C1129 1.433 . S
C1131 N1134 1.384 . S
C1132 H1123 0.929 . S
C1132 C1124 1.378 . S
C1132 C1127 1.350 . S
C1133 H1120 0.929 . S
C1133 C1125 1.433 . S
C1133 N1135 1.384 . S
N1134 C1130 1.427 . S
N1134 C1131 1.384 . S
N1135 C1127 1.427 . S
N1135 C1133 1.384 . S
H1136 C1142 0.930 . S
H1137 C1146 0.930 . S
H1138 C1151 0.929 . S
H1139 C1149 0.929 . S
H1140 C1144 0.929 . S
H1141 C1150 0.929 . S
C1142 H1136 0.930 . S
C1142 C1143 1.367 1_655 S
C1142 C1150 1.378 . S
C1143 C1142 1.367 1_455 S
C1143 C1151 1.433 . S
C1144 H1140 0.929 . S
C1144 C1146 1.378 . S
C1144 C1148 1.350 . S
C1145 C1148 1.463 . S
C1145 C1150 1.350 1_455 S
C1145 N1153 1.427 . S
C1146 H1137 0.930 . S
C1146 C1144 1.378 . S
C1146 C1147 1.367 . S
C1147 C1146 1.367 . S
C1147 C1149 1.433 1_455 S
C1148 C1144 1.350 . S
C1148 C1145 1.463 . S
C1148 N1152 1.427 1_455 S
C1149 H1139 0.929 . S
C1149 C1147 1.433 1_655 S
C1149 N1152 1.384 . S
C1150 H1141 0.929 . S
C1150 C1142 1.378 . S
C1150 C1145 1.350 1_655 S
C1151 H1138 0.929 . S
C1151 C1143 1.433 . S
C1151 N1153 1.384 . S
N1152 C1148 1.427 1_655 S
N1152 C1149 1.384 . S
N1153 C1145 1.427 . S
N1153 C1151 1.384 . S
H1154 C1160 0.930 . S
H1155 C1164 0.930 . S
H1156 C1169 0.929 . S
H1157 C1167 0.929 . S
H1158 C1162 0.929 . S
H1159 C1168 0.929 . S
C1160 H1154 0.930 . S
C1160 C1161 1.367 . S
C1160 C1168 1.378 . S
C1161 C1160 1.367 . S
C1161 C1169 1.433 . S
C1162 H1158 0.929 . S
C1162 C1164 1.378 . S
C1162 C1166 1.350 . S
C1163 C1166 1.463 . S
C1163 C1168 1.350 . S
C1163 N1171 1.427 . S
C1164 H1155 0.930 . S
C1164 C1162 1.378 . S
C1164 C1165 1.367 . S
C1165 C1164 1.367 . S
C1165 C1167 1.433 . S
C1166 C1162 1.350 . S
C1166 C1163 1.463 . S
C1166 N1170 1.427 . S
C1167 H1157 0.929 . S
C1167 C1165 1.433 . S
C1167 N1170 1.384 . S
C1168 H1159 0.929 . S
C1168 C1160 1.378 . S
C1168 C1163 1.350 . S
C1169 H1156 0.929 . S
C1169 C1161 1.433 . S
C1169 N1171 1.384 . S
N1170 C1166 1.427 . S
N1170 C1167 1.384 . S
N1171 C1163 1.427 . S
N1171 C1169 1.384 . S
H1172 C1178 0.930 . S
H1173 C1182 0.930 . S
H1174 C1187 0.929 . S
H1175 C1185 0.929 . S
H1176 C1180 0.929 . S
H1177 C1186 0.929 . S
C1178 H1172 0.930 . S
C1178 C1179 1.367 . S
C1178 C1186 1.378 . S
C1179 C1178 1.367 . S
C1179 C1187 1.433 . S
C1180 H1176 0.929 . S
C1180 C1182 1.378 . S
C1180 C1184 1.350 . S
C1181 C1184 1.463 . S
C1181 C1186 1.350 . S
C1181 N1189 1.427 . S
C1182 H1173 0.930 . S
C1182 C1180 1.378 . S
C1182 C1183 1.367 . S
C1183 C1182 1.367 . S
C1183 C1185 1.433 1_556 S
C1184 C1180 1.350 . S
C1184 C1181 1.463 . S
C1184 N1188 1.427 . S
C1185 H1175 0.929 . S
C1185 C1183 1.433 1_554 S
C1185 N1188 1.384 1_554 S
C1186 H1177 0.929 . S
C1186 C1178 1.378 . S
C1186 C1181 1.350 . S
C1187 H1174 0.929 . S
C1187 C1179 1.433 . S
C1187 N1189 1.384 . S
N1188 C1184 1.427 . S
N1188 C1185 1.384 1_556 S
N1189 C1181 1.427 . S
N1189 C1187 1.384 . S
H1190 C1196 0.930 . S
H1191 C1200 0.930 . S
H1192 C1205 0.929 . S
H1193 C1203 0.929 . S
H1194 C1198 0.929 . S
H1195 C1204 0.929 . S
C1196 H1190 0.930 . S
C1196 C1197 1.367 . S
C1196 C1204 1.378 . S
C1197 C1196 1.367 . S
C1197 C1205 1.433 . S
C1198 H1194 0.929 . S
C1198 C1200 1.378 . S
C1198 C1202 1.350 . S
C1199 C1202 1.463 . S
C1199 C1204 1.350 . S
C1199 N1207 1.427 . S
C1200 H1191 0.930 . S
C1200 C1198 1.378 . S
C1200 C1201 1.367 . S
C1201 C1200 1.367 . S
C1201 C1203 1.433 . S
C1202 C1198 1.350 . S
C1202 C1199 1.463 . S
C1202 N1206 1.427 . S
C1203 H1193 0.929 . S
C1203 C1201 1.433 . S
C1203 N1206 1.384 . S
C1204 H1195 0.929 . S
C1204 C1196 1.378 . S
C1204 C1199 1.350 . S
C1205 H1192 0.929 . S
C1205 C1197 1.433 . S
C1205 N1207 1.384 . S
N1206 C1202 1.427 . S
N1206 C1203 1.384 . S
N1207 C1199 1.427 . S
N1207 C1205 1.384 . S
H1208 C1214 0.930 . S
H1209 C1218 0.930 . S
H1210 C1223 0.929 . S
H1211 C1221 0.929 . S
H1212 C1216 0.929 . S
H1213 C1222 0.929 . S
C1214 H1208 0.930 . S
C1214 C1215 1.367 . S
C1214 C1222 1.378 . S
C1215 C1214 1.367 . S
C1215 C1223 1.433 1_565 S
C1216 H1212 0.929 . S
C1216 C1218 1.378 . S
C1216 C1220 1.350 . S
C1217 C1220 1.463 . S
C1217 C1222 1.347 1_545 S
C1217 N1225 1.430 . S
C1218 H1209 0.930 . S
C1218 C1216 1.378 . S
C1218 C1219 1.367 . S
C1219 C1218 1.367 . S
C1219 C1221 1.433 1_545 S
C1220 C1216 1.350 . S
C1220 C1217 1.463 . S
C1220 N1224 1.427 1_545 S
C1221 H1211 0.929 . S
C1221 C1219 1.433 1_565 S
C1221 N1224 1.384 . S
C1222 H1213 0.929 . S
C1222 C1214 1.378 . S
C1222 C1217 1.347 1_565 S
C1223 H1210 0.929 . S
C1223 C1215 1.433 1_545 S
C1223 N1225 1.384 . S
N1224 C1220 1.427 1_565 S
N1224 C1221 1.384 . S
N1225 C1217 1.430 . S
N1225 C1223 1.384 . S
H1226 C1232 0.930 . S
H1227 C1236 0.930 . S
H1228 C1241 0.929 . S
H1229 C1239 0.929 . S
H1230 C1234 0.929 . S
H1231 C1240 0.929 . S
C1232 H1226 0.930 . S
C1232 C1233 1.367 . S
C1232 C1240 1.378 . S
C1233 C1232 1.367 . S
C1233 C1241 1.433 . S
C1234 H1230 0.929 . S
C1234 C1236 1.378 . S
C1234 C1238 1.350 . S
C1235 C1238 1.463 . S
C1235 C1240 1.350 . S
C1235 N1243 1.427 . S
C1236 H1227 0.930 . S
C1236 C1234 1.378 . S
C1236 C1237 1.367 . S
C1237 C1236 1.367 . S
C1237 C1239 1.433 . S
C1238 C1234 1.350 . S
C1238 C1235 1.463 . S
C1238 N1242 1.427 . S
C1239 H1229 0.929 . S
C1239 C1237 1.433 . S
C1239 N1242 1.384 . S
C1240 H1231 0.929 . S
C1240 C1232 1.378 . S
C1240 C1235 1.350 . S
C1241 H1228 0.929 . S
C1241 C1233 1.433 . S
C1241 N1243 1.384 . S
N1242 C1238 1.427 . S
N1242 C1239 1.384 . S
N1243 C1235 1.427 . S
N1243 C1241 1.384 . S
H1244 C1250 0.930 . S
H1245 C1254 0.930 . S
H1246 C1259 0.929 1_565 S
H1247 C1257 0.929 . S
H1248 C1252 0.929 . S
H1249 C1258 0.929 . S
C1250 H1244 0.930 . S
C1250 C1251 1.367 . S
C1250 C1258 1.378 . S
C1251 C1250 1.367 . S
C1251 C1259 1.433 . S
C1252 H1248 0.929 . S
C1252 C1254 1.378 . S
C1252 C1256 1.350 . S
C1253 C1256 1.463 . S
C1253 C1258 1.350 . S
C1253 N1261 1.427 . S
C1254 H1245 0.930 . S
C1254 C1252 1.378 . S
C1254 C1255 1.367 . S
C1255 C1254 1.367 . S
C1255 C1257 1.433 . S
C1256 C1252 1.350 . S
C1256 C1253 1.463 . S
C1256 N1260 1.427 . S
C1257 H1247 0.929 . S
C1257 C1255 1.433 . S
C1257 N1260 1.384 . S
C1258 H1249 0.929 . S
C1258 C1250 1.378 . S
C1258 C1253 1.350 . S
C1259 H1246 0.929 1_545 S
C1259 C1251 1.433 . S
C1259 N1261 1.384 . S
N1260 C1256 1.427 . S
N1260 C1257 1.384 . S
N1261 C1253 1.427 . S
N1261 C1259 1.384 . S
H1262 C1268 0.930 . S
H1263 C1272 0.930 . S
H1264 C1277 0.929 . S
H1265 C1275 0.929 . S
H1266 C1270 0.929 . S
H1267 C1276 0.929 . S
C1268 H1262 0.930 . S
C1268 C1269 1.367 . S
C1268 C1276 1.378 . S
C1269 C1268 1.367 . S
C1269 C1277 1.433 . S
C1270 H1266 0.929 . S
C1270 C1272 1.378 . S
C1270 C1274 1.350 . S
C1271 C1274 1.463 . S
C1271 C1276 1.350 . S
C1271 N1279 1.427 . S
C1272 H1263 0.930 . S
C1272 C1270 1.378 . S
C1272 C1273 1.367 . S
C1273 C1272 1.367 . S
C1273 C1275 1.433 . S
C1274 C1270 1.350 . S
C1274 C1271 1.463 . S
C1274 N1278 1.427 . S
C1275 H1265 0.929 . S
C1275 C1273 1.433 . S
C1275 N1278 1.384 . S
C1276 H1267 0.929 . S
C1276 C1268 1.378 . S
C1276 C1271 1.350 . S
C1277 H1264 0.929 . S
C1277 C1269 1.433 . S
C1277 N1279 1.384 . S
N1278 C1274 1.427 . S
N1278 C1275 1.384 . S
N1279 C1271 1.427 . S
N1279 C1277 1.384 . S
H1280 C1286 0.930 . S
H1281 C1290 0.930 1_565 S
H1282 C1295 0.929 . S
H1283 C1293 0.929 . S
H1284 C1288 0.929 . S
H1285 C1294 0.929 . S
C1286 H1280 0.930 . S
C1286 C1287 1.367 1_545 S
C1286 C1294 1.378 . S
C1287 C1286 1.367 1_565 S
C1287 C1295 1.433 . S
C1288 H1284 0.929 . S
C1288 C1290 1.378 1_565 S
C1288 C1292 1.350 1_565 S
C1289 C1292 1.463 . S
C1289 C1294 1.350 . S
C1289 N1297 1.427 1_545 S
C1290 H1281 0.930 1_545 S
C1290 C1288 1.378 1_545 S
C1290 C1291 1.367 . S
C1291 C1290 1.367 . S
C1291 C1293 1.433 . S
C1292 C1288 1.350 1_545 S
C1292 C1289 1.463 . S
C1292 N1296 1.427 . S
C1293 H1283 0.929 . S
C1293 C1291 1.433 . S
C1293 N1296 1.384 . S
C1294 H1285 0.929 . S
C1294 C1286 1.378 . S
C1294 C1289 1.350 . S
C1295 H1282 0.929 . S
C1295 C1287 1.433 . S
C1295 N1297 1.384 . S
N1296 C1292 1.427 . S
N1296 C1293 1.384 . S
N1297 C1289 1.427 1_565 S
N1297 C1295 1.384 . S
H1298 C1304 0.930 . S
H1299 C1308 0.930 . S
H1300 C1313 0.929 . S
H1301 C1311 0.929 . S
H1302 C1306 0.929 . S
H1303 C1312 0.929 . S
C1304 H1298 0.930 . S
C1304 C1305 1.367 . S
C1304 C1312 1.378 . S
C1305 C1304 1.367 . S
C1305 C1313 1.433 . S
C1306 H1302 0.929 . S
C1306 C1308 1.378 . S
C1306 C1310 1.350 . S
C1307 C1310 1.463 . S
C1307 C1312 1.350 . S
C1307 N1315 1.427 . S
C1308 H1299 0.930 . S
C1308 C1306 1.378 . S
C1308 C1309 1.367 . S
C1309 C1308 1.367 . S
C1309 C1311 1.433 . S
C1310 C1306 1.350 . S
C1310 C1307 1.463 . S
C1310 N1314 1.427 . S
C1311 H1301 0.929 . S
C1311 C1309 1.433 . S
C1311 N1314 1.384 . S
C1312 H1303 0.929 . S
C1312 C1304 1.378 . S
C1312 C1307 1.350 . S
C1313 H1300 0.929 . S
C1313 C1305 1.433 . S
C1313 N1315 1.384 . S
N1314 C1310 1.427 . S
N1314 C1311 1.384 . S
N1315 C1307 1.427 . S
N1315 C1313 1.384 . S
H1316 C1322 0.930 . S
H1317 C1326 0.930 . S
H1318 C1331 0.929 . S
H1319 C1329 0.929 . S
H1320 C1324 0.929 . S
H1321 C1330 0.929 . S
C1322 H1316 0.930 . S
C1322 C1323 1.367 . S
C1322 C1330 1.378 . S
C1323 C1322 1.367 . S
C1323 C1331 1.433 1_545 S
C1324 H1320 0.929 . S
C1324 C1326 1.378 . S
C1324 C1328 1.350 1_565 S
C1325 C1328 1.463 . S
C1325 C1330 1.350 . S
C1325 N1333 1.427 1_545 S
C1326 H1317 0.930 . S
C1326 C1324 1.378 . S
C1326 C1327 1.367 . S
C1327 C1326 1.367 . S
C1327 C1329 1.433 1_565 S
C1328 C1324 1.350 1_545 S
C1328 C1325 1.463 . S
C1328 N1332 1.427 . S
C1329 H1319 0.929 . S
C1329 C1327 1.433 1_545 S
C1329 N1332 1.384 . S
C1330 H1321 0.929 . S
C1330 C1322 1.378 . S
C1330 C1325 1.350 . S
C1331 H1318 0.929 . S
C1331 C1323 1.433 1_565 S
C1331 N1333 1.384 . S
N1332 C1328 1.427 . S
N1332 C1329 1.384 . S
N1333 C1325 1.427 1_565 S
N1333 C1331 1.384 . S
H1334 C1340 0.930 . S
H1335 C1344 0.930 . S
H1336 C1349 0.929 . S
H1337 C1347 0.929 . S
H1338 C1342 0.929 . S
H1339 C1348 0.929 . S
C1340 H1334 0.930 . S
C1340 C1341 1.367 . S
C1340 C1348 1.378 . S
C1341 C1340 1.367 . S
C1341 C1349 1.433 . S
C1342 H1338 0.929 . S
C1342 C1344 1.378 . S
C1342 C1346 1.350 . S
C1343 C1346 1.463 . S
C1343 C1348 1.350 . S
C1343 N1351 1.427 . S
C1344 H1335 0.930 . S
C1344 C1342 1.378 . S
C1344 C1345 1.367 . S
C1345 C1344 1.367 . S
C1345 C1347 1.433 . S
C1346 C1342 1.350 . S
C1346 C1343 1.463 . S
C1346 N1350 1.427 . S
C1347 H1337 0.929 . S
C1347 C1345 1.433 . S
C1347 N1350 1.384 . S
C1348 H1339 0.929 . S
C1348 C1340 1.378 . S
C1348 C1343 1.350 . S
C1349 H1336 0.929 . S
C1349 C1341 1.433 . S
C1349 N1351 1.384 . S
N1350 C1346 1.427 . S
N1350 C1347 1.384 . S
N1351 C1343 1.427 . S
N1351 C1349 1.384 . S
H1352 C1358 0.930 . S
H1353 C1362 0.930 1_554 S
H1354 C1367 0.929 . S
H1355 C1365 0.929 . S
H1356 C1360 0.929 1_554 S
H1357 C1366 0.929 . S
C1358 H1352 0.930 . S
C1358 C1359 1.367 . S
C1358 C1366 1.378 . S
C1359 C1358 1.367 . S
C1359 C1367 1.433 1_556 S
C1360 H1356 0.929 1_556 S
C1360 C1362 1.378 . S
C1360 C1364 1.350 . S
C1361 C1364 1.463 . S
C1361 C1366 1.350 . S
C1361 N1369 1.427 1_556 S
C1362 H1353 0.930 1_556 S
C1362 C1360 1.378 . S
C1362 C1363 1.367 . S
C1363 C1362 1.367 . S
C1363 C1365 1.433 . S
C1364 C1360 1.350 . S
C1364 C1361 1.463 . S
C1364 N1368 1.427 . S
C1365 H1355 0.929 . S
C1365 C1363 1.433 . S
C1365 N1368 1.384 . S
C1366 H1357 0.929 . S
C1366 C1358 1.378 . S
C1366 C1361 1.350 . S
C1367 H1354 0.929 . S
C1367 C1359 1.433 1_554 S
C1367 N1369 1.384 . S
N1368 C1364 1.427 . S
N1368 C1365 1.384 . S
N1369 C1361 1.427 1_554 S
N1369 C1367 1.384 . S
H1370 C1376 0.914 1_556 S
H1371 C1380 0.930 . S
H1372 C1385 0.929 . S
H1373 C1383 0.908 1_556 S
H1374 C1378 0.929 . S
H1375 C1384 0.906 1_556 S
C1376 H1370 0.914 1_554 S
C1376 C1377 1.386 . S
C1376 C1384 1.378 . S
C1377 C1376 1.386 . S
C1377 C1385 1.433 . S
C1378 H1374 0.929 . S
C1378 C1380 1.378 . S
C1378 C1382 1.350 . S
C1379 C1382 1.463 . S
C1379 C1384 1.370 . S
C1379 N1387 1.427 . S
C1380 H1371 0.930 . S
C1380 C1378 1.378 . S
C1380 C1381 1.367 . S
C1381 C1380 1.367 . S
C1381 C1383 1.453 . S
C1382 C1378 1.350 . S
C1382 C1379 1.463 . S
C1382 N1386 1.455 . S
C1383 H1373 0.908 1_554 S
C1383 C1381 1.453 . S
C1383 N1386 1.383 . S
C1384 H1375 0.906 1_554 S
C1384 C1376 1.378 . S
C1384 C1379 1.370 . S
C1385 H1372 0.929 . S
C1385 C1377 1.433 . S
C1385 N1387 1.384 . S
N1386 C1382 1.455 . S
N1386 C1383 1.383 . S
N1387 C1379 1.427 . S
N1387 C1385 1.384 . S
H1388 C1394 0.930 . S
H1389 C1398 0.930 . S
H1390 C1403 0.929 . S
H1391 C1401 0.929 . S
H1392 C1396 0.929 . S
H1393 C1402 0.929 . S
C1394 H1388 0.930 . S
C1394 C1395 1.367 . S
C1394 C1402 1.378 . S
C1395 C1394 1.367 . S
C1395 C1403 1.433 . S
C1396 H1392 0.929 . S
C1396 C1398 1.378 . S
C1396 C1400 1.350 . S
C1397 C1400 1.463 . S
C1397 C1402 1.350 . S
C1397 N1405 1.427 . S
C1398 H1389 0.930 . S
C1398 C1396 1.378 . S
C1398 C1399 1.367 . S
C1399 C1398 1.367 . S
C1399 C1401 1.433 . S
C1400 C1396 1.350 . S
C1400 C1397 1.463 . S
C1400 N1404 1.427 . S
C1401 H1391 0.929 . S
C1401 C1399 1.433 . S
C1401 N1404 1.384 . S
C1402 H1393 0.929 . S
C1402 C1394 1.378 . S
C1402 C1397 1.350 . S
C1403 H1390 0.929 . S
C1403 C1395 1.433 . S
C1403 N1405 1.384 . S
N1404 C1400 1.427 . S
N1404 C1401 1.384 . S
N1405 C1397 1.427 . S
N1405 C1403 1.384 . S
H1406 C1412 0.930 . S
H1407 C1416 0.930 . S
H1408 C1421 0.929 . S
H1409 C1419 0.929 . S
H1410 C1414 0.929 . S
H1411 C1420 0.929 . S
C1412 H1406 0.930 . S
C1412 C1413 1.367 . S
C1412 C1420 1.378 . S
C1413 C1412 1.367 . S
C1413 C1421 1.433 . S
C1414 H1410 0.929 . S
C1414 C1416 1.378 . S
C1414 C1418 1.350 . S
C1415 C1418 1.463 . S
C1415 C1420 1.350 . S
C1415 N1423 1.427 . S
C1416 H1407 0.930 . S
C1416 C1414 1.378 . S
C1416 C1417 1.367 . S
C1417 C1416 1.367 . S
C1417 C1419 1.433 . S
C1418 C1414 1.350 . S
C1418 C1415 1.463 . S
C1418 N1422 1.427 . S
C1419 H1409 0.929 . S
C1419 C1417 1.433 . S
C1419 N1422 1.384 . S
C1420 H1411 0.929 . S
C1420 C1412 1.378 . S
C1420 C1415 1.350 . S
C1421 H1408 0.929 . S
C1421 C1413 1.433 . S
C1421 N1423 1.384 . S
N1422 C1418 1.427 . S
N1422 C1419 1.384 . S
N1423 C1415 1.427 . S
N1423 C1421 1.384 . S
H1424 C1430 0.930 . S
H1425 C1434 0.930 . S
H1426 C1439 0.929 . S
H1427 C1437 0.929 . S
H1428 C1432 0.929 . S
H1429 C1438 0.929 . S
C1430 H1424 0.930 . S
C1430 C1431 1.367 . S
C1430 C1438 1.378 . S
C1431 C1430 1.367 . S
C1431 C1439 1.433 . S
C1432 H1428 0.929 . S
C1432 C1434 1.378 . S
C1432 C1436 1.350 . S
C1433 C1436 1.463 . S
C1433 C1438 1.350 . S
C1433 N1441 1.427 . S
C1434 H1425 0.930 . S
C1434 C1432 1.378 . S
C1434 C1435 1.367 . S
C1435 C1434 1.367 . S
C1435 C1437 1.433 . S
C1436 C1432 1.350 . S
C1436 C1433 1.463 . S
C1436 N1440 1.427 . S
C1437 H1427 0.929 . S
C1437 C1435 1.433 . S
C1437 N1440 1.384 . S
C1438 H1429 0.929 . S
C1438 C1430 1.378 . S
C1438 C1433 1.350 . S
C1439 H1426 0.929 . S
C1439 C1431 1.433 . S
C1439 N1441 1.384 . S
N1440 C1436 1.427 . S
N1440 C1437 1.384 . S
N1441 C1433 1.427 . S
N1441 C1439 1.384 . S
H1442 C1448 0.930 . S
H1443 C1452 0.930 . S
H1444 C1457 0.929 . S
H1445 C1455 0.931 . S
H1446 C1450 0.929 . S
H1447 C1456 0.929 . S
C1448 H1442 0.930 . S
C1448 C1449 1.367 . S
C1448 C1456 1.378 . S
C1449 C1448 1.367 . S
C1449 C1457 1.433 . S
C1450 H1446 0.929 . S
C1450 C1452 1.378 . S
C1450 C1454 1.350 . S
C1451 C1454 1.463 . S
C1451 C1456 1.350 . S
C1451 N1459 1.427 . S
C1452 H1443 0.930 . S
C1452 C1450 1.378 . S
C1452 C1453 1.367 . S
C1453 C1452 1.367 . S
C1453 C1455 1.433 . S
C1454 C1450 1.350 . S
C1454 C1451 1.463 . S
C1454 N1458 1.427 . S
C1455 H1445 0.931 . S
C1455 C1453 1.433 . S
C1455 N1458 1.384 . S
C1456 H1447 0.929 . S
C1456 C1448 1.378 . S
C1456 C1451 1.350 . S
C1457 H1444 0.929 . S
C1457 C1449 1.433 . S
C1457 N1459 1.384 . S
N1458 C1454 1.427 . S
N1458 C1455 1.384 . S
N1459 C1451 1.427 . S
N1459 C1457 1.384 . S
H1460 C1466 0.930 . S
H1461 C1470 0.930 . S
H1462 C1475 0.929 . S
H1463 C1473 0.929 . S
H1464 C1468 0.929 . S
H1465 C1474 0.929 . S
C1466 H1460 0.930 . S
C1466 C1467 1.367 . S
C1466 C1474 1.378 . S
C1467 C1466 1.367 . S
C1467 C1475 1.433 . S
C1468 H1464 0.929 . S
C1468 C1470 1.378 . S
C1468 C1472 1.350 . S
C1469 C1472 1.463 . S
C1469 C1474 1.350 . S
C1469 N1477 1.427 . S
C1470 H1461 0.930 . S
C1470 C1468 1.378 . S
C1470 C1471 1.367 . S
C1471 C1470 1.367 . S
C1471 C1473 1.433 . S
C1472 C1468 1.350 . S
C1472 C1469 1.463 . S
C1472 N1476 1.427 . S
C1473 H1463 0.929 . S
C1473 C1471 1.433 . S
C1473 N1476 1.384 . S
C1474 H1465 0.929 . S
C1474 C1466 1.378 . S
C1474 C1469 1.350 . S
C1475 H1462 0.929 . S
C1475 C1467 1.433 . S
C1475 N1477 1.384 . S
N1476 C1472 1.427 . S
N1476 C1473 1.384 . S
N1477 C1469 1.427 . S
N1477 C1475 1.384 . S
H1478 C1484 0.930 . S
H1479 C1488 0.930 . S
H1480 C1493 0.929 . S
H1481 C1491 0.929 . S
H1482 C1486 0.929 . S
H1483 C1492 0.929 . S
C1484 H1478 0.930 . S
C1484 C1485 1.367 . S
C1484 C1492 1.378 . S
C1485 C1484 1.367 . S
C1485 C1493 1.433 . S
C1486 H1482 0.929 . S
C1486 C1488 1.378 . S
C1486 C1490 1.350 . S
C1487 C1490 1.463 . S
C1487 C1492 1.350 . S
C1487 N1495 1.427 . S
C1488 H1479 0.930 . S
C1488 C1486 1.378 . S
C1488 C1489 1.367 . S
C1489 C1488 1.367 . S
C1489 C1491 1.433 . S
C1490 C1486 1.350 . S
C1490 C1487 1.463 . S
C1490 N1494 1.427 . S
C1491 H1481 0.929 . S
C1491 C1489 1.433 . S
C1491 N1494 1.384 . S
C1492 H1483 0.929 . S
C1492 C1484 1.378 . S
C1492 C1487 1.350 . S
C1493 H1480 0.929 . S
C1493 C1485 1.433 . S
C1493 N1495 1.384 . S
N1494 C1490 1.427 . S
N1494 C1491 1.384 . S
N1495 C1487 1.427 . S
N1495 C1493 1.384 . S
H1496 C1502 0.930 . S
H1497 C1506 0.930 . S
H1498 C1511 0.929 . S
H1499 C1509 0.929 . S
H1500 C1504 0.929 . S
H1501 C1510 0.929 . S
C1502 H1496 0.930 . S
C1502 C1503 1.367 . S
C1502 C1510 1.378 . S
C1503 C1502 1.367 . S
C1503 C1511 1.433 . S
C1504 H1500 0.929 . S
C1504 C1506 1.378 . S
C1504 C1508 1.350 . S
C1505 C1508 1.463 . S
C1505 C1510 1.350 . S
C1505 N1513 1.427 . S
C1506 H1497 0.930 . S
C1506 C1504 1.378 . S
C1506 C1507 1.367 . S
C1507 C1506 1.367 . S
C1507 C1509 1.433 . S
C1508 C1504 1.350 . S
C1508 C1505 1.463 . S
C1508 N1512 1.427 . S
C1509 H1499 0.929 . S
C1509 C1507 1.433 . S
C1509 N1512 1.384 . S
C1510 H1501 0.929 . S
C1510 C1502 1.378 . S
C1510 C1505 1.350 . S
C1511 H1498 0.929 . S
C1511 C1503 1.433 . S
C1511 N1513 1.384 . S
N1512 C1508 1.427 . S
N1512 C1509 1.384 . S
N1513 C1505 1.427 . S
N1513 C1511 1.384 . S
H1514 C1520 0.930 . S
H1515 C1524 0.930 . S
H1516 C1529 0.929 . S
H1517 C1527 0.929 . S
H1518 C1522 0.929 . S
H1519 C1528 0.929 . S
C1520 H1514 0.930 . S
C1520 C1521 1.367 . S
C1520 C1528 1.378 . S
C1521 C1520 1.367 . S
C1521 C1529 1.433 . S
C1522 H1518 0.929 . S
C1522 C1524 1.378 . S
C1522 C1526 1.350 . S
C1523 C1526 1.463 . S
C1523 C1528 1.350 . S
C1523 N1531 1.427 . S
C1524 H1515 0.930 . S
C1524 C1522 1.378 . S
C1524 C1525 1.367 . S
C1525 C1524 1.367 . S
C1525 C1527 1.433 . S
C1526 C1522 1.350 . S
C1526 C1523 1.463 . S
C1526 N1530 1.427 . S
C1527 H1517 0.929 . S
C1527 C1525 1.433 . S
C1527 N1530 1.384 . S
C1528 H1519 0.929 . S
C1528 C1520 1.378 . S
C1528 C1523 1.350 . S
C1529 H1516 0.929 . S
C1529 C1521 1.433 . S
C1529 N1531 1.384 . S
N1530 C1526 1.427 . S
N1530 C1527 1.384 . S
N1531 C1523 1.427 . S
N1531 C1529 1.384 . S
H1532 C1538 0.930 . S
H1533 C1542 0.930 . S
H1534 C1547 0.929 . S
H1535 C1545 0.953 . S
H1536 C1540 0.915 1_554 S
H1537 C1546 0.929 . S
C1538 H1532 0.930 . S
C1538 C1539 1.367 1_655 S
C1538 C1546 1.378 . S
C1539 C1538 1.367 1_455 S
C1539 C1547 1.433 . S
C1540 H1536 0.915 1_556 S
C1540 C1542 1.378 1_556 S
C1540 C1544 1.350 . S
C1541 C1544 1.463 . S
C1541 C1546 1.350 1_455 S
C1541 N1549 1.427 . S
C1542 H1533 0.930 . S
C1542 C1540 1.378 1_554 S
C1542 C1543 1.367 1_554 S
C1543 C1542 1.367 1_556 S
C1543 C1545 1.417 1_455 S
C1544 C1540 1.350 . S
C1544 C1541 1.463 . S
C1544 N1548 1.427 1_455 S
C1545 H1535 0.953 . S
C1545 C1543 1.417 1_655 S
C1545 N1548 1.377 . S
C1546 H1537 0.929 . S
C1546 C1538 1.378 . S
C1546 C1541 1.350 1_655 S
C1547 H1534 0.929 . S
C1547 C1539 1.433 . S
C1547 N1549 1.384 . S
N1548 C1544 1.427 1_655 S
N1548 C1545 1.377 . S
N1549 C1541 1.427 . S
N1549 C1547 1.384 . S
H1550 C1556 0.930 . S
H1551 C1560 0.930 . S
H1552 C1565 0.929 . S
H1553 C1563 0.929 . S
H1554 C1558 0.929 . S
H1555 C1564 0.929 . S
C1556 H1550 0.930 . S
C1556 C1557 1.367 . S
C1556 C1564 1.378 . S
C1557 C1556 1.367 . S
C1557 C1565 1.433 . S
C1558 H1554 0.929 . S
C1558 C1560 1.378 . S
C1558 C1562 1.350 . S
C1559 C1562 1.463 . S
C1559 C1564 1.350 . S
C1559 N1567 1.427 . S
C1560 H1551 0.930 . S
C1560 C1558 1.378 . S
C1560 C1561 1.367 . S
C1561 C1560 1.367 . S
C1561 C1563 1.433 . S
C1562 C1558 1.350 . S
C1562 C1559 1.463 . S
C1562 N1566 1.427 . S
C1563 H1553 0.929 . S
C1563 C1561 1.433 . S
C1563 N1566 1.384 . S
C1564 H1555 0.929 . S
C1564 C1556 1.378 . S
C1564 C1559 1.350 . S
C1565 H1552 0.929 . S
C1565 C1557 1.433 . S
C1565 N1567 1.384 . S
N1566 C1562 1.427 . S
N1566 C1563 1.384 . S
N1567 C1559 1.427 . S
N1567 C1565 1.384 . S
H1568 C1574 0.930 . S
H1569 C1578 0.930 . S
H1570 C1583 0.929 . S
H1571 C1581 0.929 . S
H1572 C1576 0.929 . S
H1573 C1582 0.929 . S
C1574 H1568 0.930 . S
C1574 C1575 1.367 . S
C1574 C1582 1.378 . S
C1575 C1574 1.367 . S
C1575 C1583 1.433 . S
C1576 H1572 0.929 . S
C1576 C1578 1.378 . S
C1576 C1580 1.350 . S
C1577 C1580 1.463 . S
C1577 C1582 1.350 . S
C1577 N1585 1.427 . S
C1578 H1569 0.930 . S
C1578 C1576 1.378 . S
C1578 C1579 1.367 . S
C1579 C1578 1.367 . S
C1579 C1581 1.433 . S
C1580 C1576 1.350 . S
C1580 C1577 1.463 . S
C1580 N1584 1.427 . S
C1581 H1571 0.929 . S
C1581 C1579 1.433 . S
C1581 N1584 1.384 . S
C1582 H1573 0.929 . S
C1582 C1574 1.378 . S
C1582 C1577 1.350 . S
C1583 H1570 0.929 . S
C1583 C1575 1.433 . S
C1583 N1585 1.384 . S
N1584 C1580 1.427 . S
N1584 C1581 1.384 . S
N1585 C1577 1.427 . S
N1585 C1583 1.384 . S
H1586 C1592 0.930 . S
H1587 C1596 0.930 . S
H1588 C1601 0.929 . S
H1589 C1599 0.929 . S
H1590 C1594 0.929 . S
H1591 C1600 0.929 . S
C1592 H1586 0.930 . S
C1592 C1593 1.367 . S
C1592 C1600 1.378 . S
C1593 C1592 1.367 . S
C1593 C1601 1.433 . S
C1594 H1590 0.929 . S
C1594 C1596 1.378 . S
C1594 C1598 1.350 . S
C1595 C1598 1.463 . S
C1595 C1600 1.350 . S
C1595 N1603 1.427 . S
C1596 H1587 0.930 . S
C1596 C1594 1.378 . S
C1596 C1597 1.367 . S
C1597 C1596 1.367 . S
C1597 C1599 1.433 . S
C1598 C1594 1.350 . S
C1598 C1595 1.463 . S
C1598 N1602 1.427 . S
C1599 H1589 0.929 . S
C1599 C1597 1.433 . S
C1599 N1602 1.384 . S
C1600 H1591 0.929 . S
C1600 C1592 1.378 . S
C1600 C1595 1.350 . S
C1601 H1588 0.929 . S
C1601 C1593 1.433 . S
C1601 N1603 1.384 . S
N1602 C1598 1.427 . S
N1602 C1599 1.384 . S
N1603 C1595 1.427 . S
N1603 C1601 1.384 . S
H1604 C1610 0.930 . S
H1605 C1614 0.930 . S
H1606 C1619 0.929 . S
H1607 C1617 0.929 . S
H1608 C1612 0.929 . S
H1609 C1618 0.929 . S
C1610 H1604 0.930 . S
C1610 C1611 1.367 . S
C1610 C1618 1.378 . S
C1611 C1610 1.367 . S
C1611 C1619 1.433 1_455 S
C1612 H1608 0.929 . S
C1612 C1614 1.378 . S
C1612 C1616 1.350 1_655 S
C1613 C1616 1.463 . S
C1613 C1618 1.350 . S
C1613 N1621 1.427 1_455 S
C1614 H1605 0.930 . S
C1614 C1612 1.378 . S
C1614 C1615 1.367 1_655 S
C1615 C1614 1.367 1_455 S
C1615 C1617 1.433 . S
C1616 C1612 1.350 1_455 S
C1616 C1613 1.463 . S
C1616 N1620 1.427 . S
C1617 H1607 0.929 . S
C1617 C1615 1.433 . S
C1617 N1620 1.384 . S
C1618 H1609 0.929 . S
C1618 C1610 1.378 . S
C1618 C1613 1.350 . S
C1619 H1606 0.929 . S
C1619 C1611 1.433 1_655 S
C1619 N1621 1.384 . S
N1620 C1616 1.427 . S
N1620 C1617 1.384 . S
N1621 C1613 1.427 1_655 S
N1621 C1619 1.384 . S
H1622 C1628 0.930 . S
H1623 C1632 0.930 . S
H1624 C1637 0.929 . S
H1625 C1635 0.929 . S
H1626 C1630 0.929 . S
H1627 C1636 0.929 . S
C1628 H1622 0.930 . S
C1628 C1629 1.367 . S
C1628 C1636 1.378 . S
C1629 C1628 1.367 . S
C1629 C1637 1.433 . S
C1630 H1626 0.929 . S
C1630 C1632 1.378 . S
C1630 C1634 1.350 . S
C1631 C1634 1.463 . S
C1631 C1636 1.350 . S
C1631 N1639 1.427 . S
C1632 H1623 0.930 . S
C1632 C1630 1.378 . S
C1632 C1633 1.367 . S
C1633 C1632 1.367 . S
C1633 C1635 1.433 . S
C1634 C1630 1.350 . S
C1634 C1631 1.463 . S
C1634 N1638 1.427 . S
C1635 H1625 0.929 . S
C1635 C1633 1.433 . S
C1635 N1638 1.384 . S
C1636 H1627 0.929 . S
C1636 C1628 1.378 . S
C1636 C1631 1.350 . S
C1637 H1624 0.929 . S
C1637 C1629 1.433 . S
C1637 N1639 1.384 . S
N1638 C1634 1.427 . S
N1638 C1635 1.384 . S
N1639 C1631 1.427 . S
N1639 C1637 1.384 . S
H1640 C1646 0.930 . S
H1641 C1650 0.930 . S
H1642 C1655 0.929 . S
H1643 C1653 0.929 . S
H1644 C1648 0.929 . S
H1645 C1654 0.929 . S
C1646 H1640 0.930 . S
C1646 C1647 1.367 . S
C1646 C1654 1.378 . S
C1647 C1646 1.367 . S
C1647 C1655 1.433 . S
C1648 H1644 0.929 . S
C1648 C1650 1.378 . S
C1648 C1652 1.350 . S
C1649 C1652 1.463 . S
C1649 C1654 1.350 . S
C1649 N1657 1.427 . S
C1650 H1641 0.930 . S
C1650 C1648 1.378 . S
C1650 C1651 1.367 . S
C1651 C1650 1.367 . S
C1651 C1653 1.433 . S
C1652 C1648 1.350 . S
C1652 C1649 1.463 . S
C1652 N1656 1.427 . S
C1653 H1643 0.929 . S
C1653 C1651 1.433 . S
C1653 N1656 1.384 . S
C1654 H1645 0.929 . S
C1654 C1646 1.378 . S
C1654 C1649 1.350 . S
C1655 H1642 0.929 . S
C1655 C1647 1.433 . S
C1655 N1657 1.384 . S
N1656 C1652 1.427 . S
N1656 C1653 1.384 . S
N1657 C1649 1.427 . S
N1657 C1655 1.384 . S
H1658 C1664 0.930 . S
H1659 C1668 0.930 . S
H1660 C1673 0.929 . S
H1661 C1671 0.929 . S
H1662 C1666 0.929 . S
H1663 C1672 0.929 . S
C1664 H1658 0.930 . S
C1664 C1665 1.367 . S
C1664 C1672 1.378 . S
C1665 C1664 1.367 . S
C1665 C1673 1.433 . S
C1666 H1662 0.929 . S
C1666 C1668 1.378 . S
C1666 C1670 1.350 . S
C1667 C1670 1.463 . S
C1667 C1672 1.350 . S
C1667 N1675 1.427 . S
C1668 H1659 0.930 . S
C1668 C1666 1.378 . S
C1668 C1669 1.367 . S
C1669 C1668 1.367 . S
C1669 C1671 1.433 . S
C1670 C1666 1.350 . S
C1670 C1667 1.463 . S
C1670 N1674 1.427 . S
C1671 H1661 0.929 . S
C1671 C1669 1.433 . S
C1671 N1674 1.384 . S
C1672 H1663 0.929 . S
C1672 C1664 1.378 . S
C1672 C1667 1.350 . S
C1673 H1660 0.929 . S
C1673 C1665 1.433 . S
C1673 N1675 1.384 . S
N1674 C1670 1.427 . S
N1674 C1671 1.384 . S
N1675 C1667 1.427 . S
N1675 C1673 1.384 . S
H1676 C1682 0.930 . S
H1677 C1686 0.930 . S
H1678 C1691 0.929 . S
H1679 C1689 0.929 . S
H1680 C1684 0.929 . S
H1681 C1690 0.929 . S
C1682 H1676 0.930 . S
C1682 C1683 1.367 . S
C1682 C1690 1.378 . S
C1683 C1682 1.367 . S
C1683 C1691 1.433 . S
C1684 H1680 0.929 . S
C1684 C1686 1.378 . S
C1684 C1688 1.350 . S
C1685 C1688 1.463 . S
C1685 C1690 1.350 . S
C1685 N1693 1.427 . S
C1686 H1677 0.930 . S
C1686 C1684 1.378 . S
C1686 C1687 1.367 . S
C1687 C1686 1.367 . S
C1687 C1689 1.433 . S
C1688 C1684 1.350 . S
C1688 C1685 1.463 . S
C1688 N1692 1.427 . S
C1689 H1679 0.929 . S
C1689 C1687 1.433 . S
C1689 N1692 1.384 . S
C1690 H1681 0.929 . S
C1690 C1682 1.378 . S
C1690 C1685 1.350 . S
C1691 H1678 0.929 . S
C1691 C1683 1.433 . S
C1691 N1693 1.384 . S
N1692 C1688 1.427 . S
N1692 C1689 1.384 . S
N1693 C1685 1.427 . S
N1693 C1691 1.384 . S
H1694 C1700 0.930 . S
H1695 C1704 0.930 . S
H1696 C1709 0.929 . S
H1697 C1707 0.929 . S
H1698 C1702 0.929 . S
H1699 C1708 0.929 . S
C1700 H1694 0.930 . S
C1700 C1701 1.367 . S
C1700 C1708 1.378 . S
C1701 C1700 1.367 . S
C1701 C1709 1.433 . S
C1702 H1698 0.929 . S
C1702 C1704 1.378 . S
C1702 C1706 1.350 . S
C1703 C1706 1.463 . S
C1703 C1708 1.350 . S
C1703 N1711 1.427 . S
C1704 H1695 0.930 . S
C1704 C1702 1.378 . S
C1704 C1705 1.367 . S
C1705 C1704 1.367 . S
C1705 C1707 1.433 . S
C1706 C1702 1.350 . S
C1706 C1703 1.463 . S
C1706 N1710 1.427 . S
C1707 H1697 0.929 . S
C1707 C1705 1.433 . S
C1707 N1710 1.384 . S
C1708 H1699 0.929 . S
C1708 C1700 1.378 . S
C1708 C1703 1.350 . S
C1709 H1696 0.929 . S
C1709 C1701 1.433 . S
C1709 N1711 1.384 . S
N1710 C1706 1.427 . S
N1710 C1707 1.384 . S
N1711 C1703 1.427 . S
N1711 C1709 1.384 . S
H1712 C1718 0.930 . S
H1713 C1722 0.930 . S
H1714 C1727 0.929 . S
H1715 C1725 0.929 . S
H1716 C1720 0.929 . S
H1717 C1726 0.929 . S
C1718 H1712 0.930 . S
C1718 C1719 1.367 . S
C1718 C1726 1.378 . S
C1719 C1718 1.367 . S
C1719 C1727 1.433 . S
C1720 H1716 0.929 . S
C1720 C1722 1.378 . S
C1720 C1724 1.350 . S
C1721 C1724 1.463 . S
C1721 C1726 1.350 . S
C1721 N1729 1.427 . S
C1722 H1713 0.930 . S
C1722 C1720 1.378 . S
C1722 C1723 1.367 . S
C1723 C1722 1.367 . S
C1723 C1725 1.433 . S
C1724 C1720 1.350 . S
C1724 C1721 1.463 . S
C1724 N1728 1.427 . S
C1725 H1715 0.929 . S
C1725 C1723 1.433 . S
C1725 N1728 1.384 . S
C1726 H1717 0.929 . S
C1726 C1718 1.378 . S
C1726 C1721 1.350 . S
C1727 H1714 0.929 . S
C1727 C1719 1.433 . S
C1727 N1729 1.384 . S
N1728 C1724 1.427 . S
N1728 C1725 1.384 . S
N1729 C1721 1.427 . S
N1729 C1727 1.384 . S
H1730 C1736 0.930 . S
H1731 C1740 0.930 . S
H1732 C1745 0.929 . S
H1733 C1743 0.929 . S
H1734 C1738 0.929 . S
H1735 C1744 0.929 . S
C1736 H1730 0.930 . S
C1736 C1737 1.367 . S
C1736 C1744 1.378 . S
C1737 C1736 1.367 . S
C1737 C1745 1.433 . S
C1738 H1734 0.929 . S
C1738 C1740 1.378 . S
C1738 C1742 1.350 . S
C1739 C1742 1.463 . S
C1739 C1744 1.350 . S
C1739 N1747 1.427 . S
C1740 H1731 0.930 . S
C1740 C1738 1.378 . S
C1740 C1741 1.367 . S
C1741 C1740 1.367 . S
C1741 C1743 1.433 . S
C1742 C1738 1.350 . S
C1742 C1739 1.463 . S
C1742 N1746 1.427 . S
C1743 H1733 0.929 . S
C1743 C1741 1.433 . S
C1743 N1746 1.384 . S
C1744 H1735 0.929 . S
C1744 C1736 1.378 . S
C1744 C1739 1.350 . S
C1745 H1732 0.929 . S
C1745 C1737 1.433 . S
C1745 N1747 1.384 . S
N1746 C1742 1.427 . S
N1746 C1743 1.384 . S
N1747 C1739 1.427 . S
N1747 C1745 1.384 . S
H1748 C1754 0.930 . S
H1749 C1758 0.930 . S
H1750 C1763 0.929 . S
H1751 C1761 0.929 . S
H1752 C1756 0.929 . S
H1753 C1762 0.929 . S
C1754 H1748 0.930 . S
C1754 C1755 1.367 . S
C1754 C1762 1.378 . S
C1755 C1754 1.367 . S
C1755 C1763 1.433 . S
C1756 H1752 0.929 . S
C1756 C1758 1.378 . S
C1756 C1760 1.350 . S
C1757 C1760 1.463 . S
C1757 C1762 1.350 . S
C1757 N1765 1.427 . S
C1758 H1749 0.930 . S
C1758 C1756 1.378 . S
C1758 C1759 1.367 . S
C1759 C1758 1.367 . S
C1759 C1761 1.433 . S
C1760 C1756 1.350 . S
C1760 C1757 1.463 . S
C1760 N1764 1.427 . S
C1761 H1751 0.929 . S
C1761 C1759 1.433 . S
C1761 N1764 1.384 . S
C1762 H1753 0.929 . S
C1762 C1754 1.378 . S
C1762 C1757 1.350 . S
C1763 H1750 0.929 . S
C1763 C1755 1.433 . S
C1763 N1765 1.384 . S
N1764 C1760 1.427 . S
N1764 C1761 1.384 . S
N1765 C1757 1.427 . S
N1765 C1763 1.384 . S
H1766 C1772 0.930 . S
H1767 C1776 0.930 . S
H1768 C1781 0.929 . S
H1769 C1779 0.929 . S
H1770 C1774 0.929 . S
H1771 C1780 0.929 . S
C1772 H1766 0.930 . S
C1772 C1773 1.367 . S
C1772 C1780 1.378 . S
C1773 C1772 1.367 . S
C1773 C1781 1.433 . S
C1774 H1770 0.929 . S
C1774 C1776 1.378 . S
C1774 C1778 1.350 . S
C1775 C1778 1.463 . S
C1775 C1780 1.350 . S
C1775 N1783 1.427 . S
C1776 H1767 0.930 . S
C1776 C1774 1.378 . S
C1776 C1777 1.367 . S
C1777 C1776 1.367 . S
C1777 C1779 1.433 . S
C1778 C1774 1.350 . S
C1778 C1775 1.463 . S
C1778 N1782 1.427 . S
C1779 H1769 0.929 . S
C1779 C1777 1.433 . S
C1779 N1782 1.384 . S
C1780 H1771 0.929 . S
C1780 C1772 1.378 . S
C1780 C1775 1.350 . S
C1781 H1768 0.929 . S
C1781 C1773 1.433 . S
C1781 N1783 1.384 . S
N1782 C1778 1.427 . S
N1782 C1779 1.384 . S
N1783 C1775 1.427 . S
N1783 C1781 1.384 . S
H1784 C1790 0.930 . S
H1785 C1794 0.930 . S
H1786 C1799 0.929 . S
H1787 C1797 0.929 . S
H1788 C1792 0.929 . S
H1789 C1798 0.929 . S
C1790 H1784 0.930 . S
C1790 C1791 1.367 . S
C1790 C1798 1.378 . S
C1791 C1790 1.367 . S
C1791 C1799 1.433 . S
C1792 H1788 0.929 . S
C1792 C1794 1.378 . S
C1792 C1796 1.350 . S
C1793 C1796 1.463 . S
C1793 C1798 1.350 . S
C1793 N1801 1.427 . S
C1794 H1785 0.930 . S
C1794 C1792 1.378 . S
C1794 C1795 1.367 . S
C1795 C1794 1.367 . S
C1795 C1797 1.433 . S
C1796 C1792 1.350 . S
C1796 C1793 1.463 . S
C1796 N1800 1.427 . S
C1797 H1787 0.929 . S
C1797 C1795 1.433 . S
C1797 N1800 1.384 . S
C1798 H1789 0.929 . S
C1798 C1790 1.378 . S
C1798 C1793 1.350 . S
C1799 H1786 0.929 . S
C1799 C1791 1.433 . S
C1799 N1801 1.384 . S
N1800 C1796 1.427 . S
N1800 C1797 1.384 . S
N1801 C1793 1.427 . S
N1801 C1799 1.384 . S
H1802 C1808 0.930 . S
H1803 C1812 0.930 . S
H1804 C1817 0.929 . S
H1805 C1815 0.929 . S
H1806 C1810 0.929 . S
H1807 C1816 0.929 . S
C1808 H1802 0.930 . S
C1808 C1809 1.367 . S
C1808 C1816 1.378 . S
C1809 C1808 1.367 . S
C1809 C1817 1.433 . S
C1810 H1806 0.929 . S
C1810 C1812 1.378 . S
C1810 C1814 1.350 . S
C1811 C1814 1.463 . S
C1811 C1816 1.350 . S
C1811 N1819 1.427 . S
C1812 H1803 0.930 . S
C1812 C1810 1.378 . S
C1812 C1813 1.367 . S
C1813 C1812 1.367 . S
C1813 C1815 1.433 . S
C1814 C1810 1.350 . S
C1814 C1811 1.463 . S
C1814 N1818 1.427 . S
C1815 H1805 0.929 . S
C1815 C1813 1.433 . S
C1815 N1818 1.384 . S
C1816 H1807 0.929 . S
C1816 C1808 1.378 . S
C1816 C1811 1.350 . S
C1817 H1804 0.929 . S
C1817 C1809 1.433 . S
C1817 N1819 1.384 . S
N1818 C1814 1.427 . S
N1818 C1815 1.384 . S
N1819 C1811 1.427 . S
N1819 C1817 1.384 . S
H1820 C1826 0.930 . S
H1821 C1830 0.930 . S
H1822 C1835 0.929 . S
H1823 C1833 0.929 . S
H1824 C1828 0.929 . S
H1825 C1834 0.929 . S
C1826 H1820 0.930 . S
C1826 C1827 1.367 . S
C1826 C1834 1.378 . S
C1827 C1826 1.367 . S
C1827 C1835 1.433 . S
C1828 H1824 0.929 . S
C1828 C1830 1.378 . S
C1828 C1832 1.350 . S
C1829 C1832 1.463 . S
C1829 C1834 1.350 . S
C1829 N1837 1.427 . S
C1830 H1821 0.930 . S
C1830 C1828 1.378 . S
C1830 C1831 1.367 . S
C1831 C1830 1.367 . S
C1831 C1833 1.433 . S
C1832 C1828 1.350 . S
C1832 C1829 1.463 . S
C1832 N1836 1.427 . S
C1833 H1823 0.929 . S
C1833 C1831 1.433 . S
C1833 N1836 1.384 . S
C1834 H1825 0.929 . S
C1834 C1826 1.378 . S
C1834 C1829 1.350 . S
C1835 H1822 0.929 . S
C1835 C1827 1.433 . S
C1835 N1837 1.384 . S
N1836 C1832 1.427 . S
N1836 C1833 1.384 . S
N1837 C1829 1.427 . S
N1837 C1835 1.384 . S
H1838 C1844 0.930 1_556 S
H1839 C1848 0.931 . S
H1840 C1853 0.929 . S
H1841 C1851 0.927 1_545 S
H1842 C1846 0.929 . S
H1843 C1852 0.912 1_556 S
C1844 H1838 0.930 1_554 S
C1844 C1845 1.367 . S
C1844 C1852 1.381 . S
C1845 C1844 1.367 . S
C1845 C1853 1.433 . S
C1846 H1842 0.929 . S
C1846 C1848 1.378 . S
C1846 C1850 1.350 . S
C1847 C1850 1.463 . S
C1847 C1852 1.364 . S
C1847 N1855 1.427 . S
C1848 H1839 0.931 . S
C1848 C1846 1.378 . S
C1848 C1849 1.367 1_565 S
C1849 C1848 1.367 1_545 S
C1849 C1851 1.433 1_544 S
C1850 C1846 1.350 . S
C1850 C1847 1.463 . S
C1850 N1854 1.427 1_554 S
C1851 H1841 0.927 1_565 S
C1851 C1849 1.433 1_566 S
C1851 N1854 1.384 . S
C1852 H1843 0.912 1_554 S
C1852 C1844 1.381 . S
C1852 C1847 1.364 . S
C1853 H1840 0.929 . S
C1853 C1845 1.433 . S
C1853 N1855 1.384 . S
N1854 C1850 1.427 1_556 S
N1854 C1851 1.384 . S
N1855 C1847 1.427 . S
N1855 C1853 1.384 . S
H1856 C1862 0.930 . S
H1857 C1866 0.930 . S
H1858 C1871 0.929 . S
H1859 C1869 0.929 . S
H1860 C1864 0.929 . S
H1861 C1870 0.929 . S
C1862 H1856 0.930 . S
C1862 C1863 1.367 . S
C1862 C1870 1.378 . S
C1863 C1862 1.367 . S
C1863 C1871 1.433 . S
C1864 H1860 0.929 . S
C1864 C1866 1.378 . S
C1864 C1868 1.350 . S
C1865 C1868 1.463 . S
C1865 C1870 1.350 . S
C1865 N1873 1.427 . S
C1866 H1857 0.930 . S
C1866 C1864 1.378 . S
C1866 C1867 1.367 . S
C1867 C1866 1.367 . S
C1867 C1869 1.433 . S
C1868 C1864 1.350 . S
C1868 C1865 1.463 . S
C1868 N1872 1.427 . S
C1869 H1859 0.929 . S
C1869 C1867 1.433 . S
C1869 N1872 1.384 . S
C1870 H1861 0.929 . S
C1870 C1862 1.378 . S
C1870 C1865 1.350 . S
C1871 H1858 0.929 . S
C1871 C1863 1.433 . S
C1871 N1873 1.384 . S
N1872 C1868 1.427 . S
N1872 C1869 1.384 . S
N1873 C1865 1.427 . S
N1873 C1871 1.384 . S
H1874 C1880 0.930 . S
H1875 C1884 0.930 . S
H1876 C1889 0.929 . S
H1877 C1887 0.929 1_556 S
H1878 C1882 0.929 . S
H1879 C1888 0.929 . S
C1880 H1874 0.930 . S
C1880 C1881 1.367 1_556 S
C1880 C1888 1.378 . S
C1881 C1880 1.367 1_554 S
C1881 C1889 1.433 . S
C1882 H1878 0.929 . S
C1882 C1884 1.378 . S
C1882 C1886 1.350 . S
C1883 C1886 1.463 . S
C1883 C1888 1.350 1_554 S
C1883 N1891 1.427 . S
C1884 H1875 0.930 . S
C1884 C1882 1.378 . S
C1884 C1885 1.367 . S
C1885 C1884 1.367 . S
C1885 C1887 1.433 . S
C1886 C1882 1.350 . S
C1886 C1883 1.463 . S
C1886 N1890 1.427 . S
C1887 H1877 0.929 1_554 S
C1887 C1885 1.433 . S
C1887 N1890 1.384 . S
C1888 H1879 0.929 . S
C1888 C1880 1.378 . S
C1888 C1883 1.350 1_556 S
C1889 H1876 0.929 . S
C1889 C1881 1.433 . S
C1889 N1891 1.384 . S
N1890 C1886 1.427 . S
N1890 C1887 1.384 . S
N1891 C1883 1.427 . S
N1891 C1889 1.384 . S
H1892 C1898 0.930 . S
H1893 C1902 0.930 . S
H1894 C1907 0.929 . S
H1895 C1905 0.929 . S
H1896 C1900 0.929 . S
H1897 C1906 0.929 . S
C1898 H1892 0.930 . S
C1898 C1899 1.367 . S
C1898 C1906 1.378 . S
C1899 C1898 1.367 . S
C1899 C1907 1.433 . S
C1900 H1896 0.929 . S
C1900 C1902 1.378 . S
C1900 C1904 1.350 . S
C1901 C1904 1.463 . S
C1901 C1906 1.350 . S
C1901 N1909 1.427 . S
C1902 H1893 0.930 . S
C1902 C1900 1.378 . S
C1902 C1903 1.367 . S
C1903 C1902 1.367 . S
C1903 C1905 1.433 . S
C1904 C1900 1.350 . S
C1904 C1901 1.463 . S
C1904 N1908 1.427 . S
C1905 H1895 0.929 . S
C1905 C1903 1.433 . S
C1905 N1908 1.384 . S
C1906 H1897 0.929 . S
C1906 C1898 1.378 . S
C1906 C1901 1.350 . S
C1907 H1894 0.929 . S
C1907 C1899 1.433 . S
C1907 N1909 1.384 . S
N1908 C1904 1.427 . S
N1908 C1905 1.384 . S
N1909 C1901 1.427 . S
N1909 C1907 1.384 . S
H1910 C1916 0.930 . S
H1911 C1920 0.930 . S
H1912 C1925 0.929 . S
H1913 C1923 0.929 . S
H1914 C1918 0.929 . S
H1915 C1924 0.929 . S
C1916 H1910 0.930 . S
C1916 C1917 1.367 . S
C1916 C1924 1.378 . S
C1917 C1916 1.367 . S
C1917 C1925 1.433 . S
C1918 H1914 0.929 . S
C1918 C1920 1.378 . S
C1918 C1922 1.350 . S
C1919 C1922 1.463 . S
C1919 C1924 1.350 . S
C1919 N1927 1.427 . S
C1920 H1911 0.930 . S
C1920 C1918 1.378 . S
C1920 C1921 1.367 . S
C1921 C1920 1.367 . S
C1921 C1923 1.433 . S
C1922 C1918 1.350 . S
C1922 C1919 1.463 . S
C1922 N1926 1.427 . S
C1923 H1913 0.929 . S
C1923 C1921 1.433 . S
C1923 N1926 1.384 . S
C1924 H1915 0.929 . S
C1924 C1916 1.378 . S
C1924 C1919 1.350 . S
C1925 H1912 0.929 . S
C1925 C1917 1.433 . S
C1925 N1927 1.384 . S
N1926 C1922 1.427 . S
N1926 C1923 1.384 . S
N1927 C1919 1.427 . S
N1927 C1925 1.384 . S
H1928 C1934 0.930 . S
H1929 C1938 0.930 . S
H1930 C1943 0.929 . S
H1931 C1941 0.929 . S
H1932 C1936 0.929 . S
H1933 C1942 0.929 . S
C1934 H1928 0.930 . S
C1934 C1935 1.367 . S
C1934 C1942 1.378 . S
C1935 C1934 1.367 . S
C1935 C1943 1.433 . S
C1936 H1932 0.929 . S
C1936 C1938 1.378 . S
C1936 C1940 1.350 . S
C1937 C1940 1.463 . S
C1937 C1942 1.350 . S
C1937 N1945 1.427 . S
C1938 H1929 0.930 . S
C1938 C1936 1.378 . S
C1938 C1939 1.367 . S
C1939 C1938 1.367 . S
C1939 C1941 1.433 . S
C1940 C1936 1.350 . S
C1940 C1937 1.463 . S
C1940 N1944 1.427 . S
C1941 H1931 0.929 . S
C1941 C1939 1.433 . S
C1941 N1944 1.384 . S
C1942 H1933 0.929 . S
C1942 C1934 1.378 . S
C1942 C1937 1.350 . S
C1943 H1930 0.929 . S
C1943 C1935 1.433 . S
C1943 N1945 1.384 . S
N1944 C1940 1.427 . S
N1944 C1941 1.384 . S
N1945 C1937 1.427 . S
N1945 C1943 1.384 . S
H1946 C1952 0.930 . S
H1947 C1956 0.930 . S
H1948 C1961 0.929 . S
H1949 C1959 0.929 . S
H1950 C1954 0.929 . S
H1951 C1960 0.929 . S
C1952 H1946 0.930 . S
C1952 C1953 1.367 . S
C1952 C1960 1.378 . S
C1953 C1952 1.367 . S
C1953 C1961 1.433 . S
C1954 H1950 0.929 . S
C1954 C1956 1.378 . S
C1954 C1958 1.350 . S
C1955 C1958 1.463 . S
C1955 C1960 1.350 . S
C1955 N1963 1.427 . S
C1956 H1947 0.930 . S
C1956 C1954 1.378 . S
C1956 C1957 1.367 . S
C1957 C1956 1.367 . S
C1957 C1959 1.433 . S
C1958 C1954 1.350 . S
C1958 C1955 1.463 . S
C1958 N1962 1.427 . S
C1959 H1949 0.929 . S
C1959 C1957 1.433 . S
C1959 N1962 1.384 . S
C1960 H1951 0.929 . S
C1960 C1952 1.378 . S
C1960 C1955 1.350 . S
C1961 H1948 0.929 . S
C1961 C1953 1.433 . S
C1961 N1963 1.384 . S
N1962 C1958 1.427 . S
N1962 C1959 1.384 . S
N1963 C1955 1.427 . S
N1963 C1961 1.384 . S
H1964 C1970 0.930 . S
H1965 C1974 0.930 . S
H1966 C1979 0.929 . S
H1967 C1977 0.929 1_556 S
H1968 C1972 0.929 . S
H1969 C1978 0.929 . S
C1970 H1964 0.930 . S
C1970 C1971 1.367 . S
C1970 C1978 1.378 . S
C1971 C1970 1.367 . S
C1971 C1979 1.433 . S
C1972 H1968 0.929 . S
C1972 C1974 1.378 . S
C1972 C1976 1.350 . S
C1973 C1976 1.463 . S
C1973 C1978 1.350 . S
C1973 N1981 1.427 . S
C1974 H1965 0.930 . S
C1974 C1972 1.378 . S
C1974 C1975 1.367 . S
C1975 C1974 1.367 . S
C1975 C1977 1.433 . S
C1976 C1972 1.350 . S
C1976 C1973 1.463 . S
C1976 N1980 1.427 . S
C1977 H1967 0.929 1_554 S
C1977 C1975 1.433 . S
C1977 N1980 1.384 . S
C1978 H1969 0.929 . S
C1978 C1970 1.378 . S
C1978 C1973 1.350 . S
C1979 H1966 0.929 . S
C1979 C1971 1.433 . S
C1979 N1981 1.384 . S
N1980 C1976 1.427 . S
N1980 C1977 1.384 . S
N1981 C1973 1.427 . S
N1981 C1979 1.384 . S
H1982 C1988 0.930 . S
H1983 C1992 0.930 . S
H1984 C1997 0.929 . S
H1985 C1995 0.929 . S
H1986 C1990 0.929 . S
H1987 C1996 0.929 . S
C1988 H1982 0.930 . S
C1988 C1989 1.367 . S
C1988 C1996 1.378 . S
C1989 C1988 1.367 . S
C1989 C1997 1.433 . S
C1990 H1986 0.929 . S
C1990 C1992 1.378 . S
C1990 C1994 1.350 . S
C1991 C1994 1.463 . S
C1991 C1996 1.350 . S
C1991 N1999 1.427 . S
C1992 H1983 0.930 . S
C1992 C1990 1.378 . S
C1992 C1993 1.367 . S
C1993 C1992 1.367 . S
C1993 C1995 1.433 . S
C1994 C1990 1.350 . S
C1994 C1991 1.463 . S
C1994 N1998 1.427 . S
C1995 H1985 0.929 . S
C1995 C1993 1.433 . S
C1995 N1998 1.384 . S
C1996 H1987 0.929 . S
C1996 C1988 1.378 . S
C1996 C1991 1.350 . S
C1997 H1984 0.929 . S
C1997 C1989 1.433 . S
C1997 N1999 1.384 . S
N1998 C1994 1.427 . S
N1998 C1995 1.384 . S
N1999 C1991 1.427 . S
N1999 C1997 1.384 . S
H2000 C2006 0.930 . S
H2001 C2010 0.930 1_554 S
H2002 C2015 0.929 . S
H2003 C2013 0.929 . S
H2004 C2008 0.929 . S
H2005 C2014 0.929 . S
C2006 H2000 0.930 . S
C2006 C2007 1.367 . S
C2006 C2014 1.378 . S
C2007 C2006 1.367 . S
C2007 C2015 1.433 . S
C2008 H2004 0.929 . S
C2008 C2010 1.378 . S
C2008 C2012 1.350 . S
C2009 C2012 1.463 . S
C2009 C2014 1.350 . S
C2009 N2017 1.427 . S
C2010 H2001 0.930 1_556 S
C2010 C2008 1.378 . S
C2010 C2011 1.367 . S
C2011 C2010 1.367 . S
C2011 C2013 1.433 . S
C2012 C2008 1.350 . S
C2012 C2009 1.463 . S
C2012 N2016 1.427 . S
C2013 H2003 0.929 . S
C2013 C2011 1.433 . S
C2013 N2016 1.384 . S
C2014 H2005 0.929 . S
C2014 C2006 1.378 . S
C2014 C2009 1.350 . S
C2015 H2002 0.929 . S
C2015 C2007 1.433 . S
C2015 N2017 1.384 . S
N2016 C2012 1.427 . S
N2016 C2013 1.384 . S
N2017 C2009 1.427 . S
N2017 C2015 1.384 . S
H2018 C2024 0.930 . S
H2019 C2028 0.930 . S
H2020 C2033 0.929 . S
H2021 C2031 0.929 . S
H2022 C2026 0.929 . S
H2023 C2032 0.929 . S
C2024 H2018 0.930 . S
C2024 C2025 1.367 . S
C2024 C2032 1.378 . S
C2025 C2024 1.367 . S
C2025 C2033 1.433 . S
C2026 H2022 0.929 . S
C2026 C2028 1.378 . S
C2026 C2030 1.350 . S
C2027 C2030 1.463 . S
C2027 C2032 1.350 . S
C2027 N2035 1.427 . S
C2028 H2019 0.930 . S
C2028 C2026 1.378 . S
C2028 C2029 1.367 . S
C2029 C2028 1.367 . S
C2029 C2031 1.433 . S
C2030 C2026 1.350 . S
C2030 C2027 1.463 . S
C2030 N2034 1.427 . S
C2031 H2021 0.929 . S
C2031 C2029 1.433 . S
C2031 N2034 1.384 . S
C2032 H2023 0.929 . S
C2032 C2024 1.378 . S
C2032 C2027 1.350 . S
C2033 H2020 0.929 . S
C2033 C2025 1.433 . S
C2033 N2035 1.384 . S
N2034 C2030 1.427 . S
N2034 C2031 1.384 . S
N2035 C2027 1.427 . S
N2035 C2033 1.384 . S
H2036 C2042 0.930 . S
H2037 C2046 0.930 1_655 S
H2038 C2051 0.929 . S
H2039 C2049 0.929 . S
H2040 C2044 0.907 1_655 S
H2041 C2050 0.929 . S
C2042 H2036 0.930 . S
C2042 C2043 1.367 . S
C2042 C2050 1.378 . S
C2043 C2042 1.367 . S
C2043 C2051 1.433 . S
C2044 H2040 0.907 1_455 S
C2044 C2046 1.378 . S
C2044 C2048 1.350 . S
C2045 C2048 1.463 . S
C2045 C2050 1.350 . S
C2045 N2053 1.427 . S
C2046 H2037 0.930 1_455 S
C2046 C2044 1.378 . S
C2046 C2047 1.367 . S
C2047 C2046 1.367 . S
C2047 C2049 1.433 . S
C2048 C2044 1.350 . S
C2048 C2045 1.463 . S
C2048 N2052 1.427 . S
C2049 H2039 0.929 . S
C2049 C2047 1.433 . S
C2049 N2052 1.384 . S
C2050 H2041 0.929 . S
C2050 C2042 1.378 . S
C2050 C2045 1.350 . S
C2051 H2038 0.929 . S
C2051 C2043 1.433 . S
C2051 N2053 1.384 . S
N2052 C2048 1.427 . S
N2052 C2049 1.384 . S
N2053 C2045 1.427 . S
N2053 C2051 1.384 . S
H2054 C2060 0.930 . S
H2055 C2064 0.930 . S
H2056 C2069 0.929 . S
H2057 C2067 0.929 . S
H2058 C2062 0.929 . S
H2059 C2068 0.929 . S
C2060 H2054 0.930 . S
C2060 C2061 1.367 . S
C2060 C2068 1.378 . S
C2061 C2060 1.367 . S
C2061 C2069 1.433 . S
C2062 H2058 0.929 . S
C2062 C2064 1.378 . S
C2062 C2066 1.350 . S
C2063 C2066 1.463 . S
C2063 C2068 1.350 . S
C2063 N2071 1.427 . S
C2064 H2055 0.930 . S
C2064 C2062 1.378 . S
C2064 C2065 1.367 . S
C2065 C2064 1.367 . S
C2065 C2067 1.433 . S
C2066 C2062 1.350 . S
C2066 C2063 1.463 . S
C2066 N2070 1.427 . S
C2067 H2057 0.929 . S
C2067 C2065 1.433 . S
C2067 N2070 1.384 . S
C2068 H2059 0.929 . S
C2068 C2060 1.378 . S
C2068 C2063 1.350 . S
C2069 H2056 0.929 . S
C2069 C2061 1.433 . S
C2069 N2071 1.384 . S
N2070 C2066 1.427 . S
N2070 C2067 1.384 . S
N2071 C2063 1.427 . S
N2071 C2069 1.384 . S
H2072 C2078 0.930 . S
H2073 C2082 0.930 . S
H2074 C2087 0.929 . S
H2075 C2085 0.929 . S
H2076 C2080 0.929 . S
H2077 C2086 0.929 . S
C2078 H2072 0.930 . S
C2078 C2079 1.367 . S
C2078 C2086 1.378 . S
C2079 C2078 1.367 . S
C2079 C2087 1.433 . S
C2080 H2076 0.929 . S
C2080 C2082 1.378 . S
C2080 C2084 1.350 . S
C2081 C2084 1.463 . S
C2081 C2086 1.350 . S
C2081 N2089 1.427 . S
C2082 H2073 0.930 . S
C2082 C2080 1.378 . S
C2082 C2083 1.367 . S
C2083 C2082 1.367 . S
C2083 C2085 1.433 . S
C2084 C2080 1.350 . S
C2084 C2081 1.463 . S
C2084 N2088 1.427 . S
C2085 H2075 0.929 . S
C2085 C2083 1.433 . S
C2085 N2088 1.384 . S
C2086 H2077 0.929 . S
C2086 C2078 1.378 . S
C2086 C2081 1.350 . S
C2087 H2074 0.929 . S
C2087 C2079 1.433 . S
C2087 N2089 1.384 . S
N2088 C2084 1.427 . S
N2088 C2085 1.384 . S
N2089 C2081 1.427 . S
N2089 C2087 1.384 . S
H2090 C2096 0.930 . S
H2091 C2100 0.930 . S
H2092 C2105 0.929 . S
H2093 C2103 0.929 . S
H2094 C2098 0.929 . S
H2095 C2104 0.929 . S
C2096 H2090 0.930 . S
C2096 C2097 1.367 . S
C2096 C2104 1.378 . S
C2097 C2096 1.367 . S
C2097 C2105 1.433 . S
C2098 H2094 0.929 . S
C2098 C2100 1.378 . S
C2098 C2102 1.350 . S
C2099 C2102 1.463 . S
C2099 C2104 1.350 . S
C2099 N2107 1.427 . S
C2100 H2091 0.930 . S
C2100 C2098 1.378 . S
C2100 C2101 1.367 . S
C2101 C2100 1.367 . S
C2101 C2103 1.433 . S
C2102 C2098 1.350 . S
C2102 C2099 1.463 . S
C2102 N2106 1.427 . S
C2103 H2093 0.929 . S
C2103 C2101 1.433 . S
C2103 N2106 1.384 . S
C2104 H2095 0.929 . S
C2104 C2096 1.378 . S
C2104 C2099 1.350 . S
C2105 H2092 0.929 . S
C2105 C2097 1.433 . S
C2105 N2107 1.384 . S
N2106 C2102 1.427 . S
N2106 C2103 1.384 . S
N2107 C2099 1.427 . S
N2107 C2105 1.384 . S
H2108 C2114 0.930 . S
H2109 C2118 0.930 . S
H2110 C2123 0.929 . S
H2111 C2121 0.929 . S
H2112 C2116 0.929 . S
H2113 C2122 0.929 . S
C2114 H2108 0.930 . S
C2114 C2115 1.367 . S
C2114 C2122 1.378 . S
C2115 C2114 1.367 . S
C2115 C2123 1.433 . S
C2116 H2112 0.929 . S
C2116 C2118 1.378 . S
C2116 C2120 1.350 . S
C2117 C2120 1.463 . S
C2117 C2122 1.350 . S
C2117 N2125 1.427 . S
C2118 H2109 0.930 . S
C2118 C2116 1.378 . S
C2118 C2119 1.367 . S
C2119 C2118 1.367 . S
C2119 C2121 1.433 1_655 S
C2120 C2116 1.350 . S
C2120 C2117 1.463 . S
C2120 N2124 1.427 . S
C2121 H2111 0.929 . S
C2121 C2119 1.433 1_455 S
C2121 N2124 1.384 1_455 S
C2122 H2113 0.929 . S
C2122 C2114 1.378 . S
C2122 C2117 1.350 . S
C2123 H2110 0.929 . S
C2123 C2115 1.433 . S
C2123 N2125 1.384 . S
N2124 C2120 1.427 . S
N2124 C2121 1.384 1_655 S
N2125 C2117 1.427 . S
N2125 C2123 1.384 . S
H2126 C2132 0.930 . S
H2127 C2136 0.930 . S
H2128 C2141 0.929 . S
H2129 C2139 0.929 . S
H2130 C2134 0.929 . S
H2131 C2140 0.929 . S
C2132 H2126 0.930 . S
C2132 C2133 1.367 . S
C2132 C2140 1.378 . S
C2133 C2132 1.367 . S
C2133 C2141 1.433 . S
C2134 H2130 0.929 . S
C2134 C2136 1.378 . S
C2134 C2138 1.350 . S
C2135 C2138 1.463 . S
C2135 C2140 1.350 . S
C2135 N2143 1.427 . S
C2136 H2127 0.930 . S
C2136 C2134 1.378 . S
C2136 C2137 1.367 . S
C2137 C2136 1.367 . S
C2137 C2139 1.433 . S
C2138 C2134 1.350 . S
C2138 C2135 1.463 . S
C2138 N2142 1.427 . S
C2139 H2129 0.929 . S
C2139 C2137 1.433 . S
C2139 N2142 1.384 . S
C2140 H2131 0.929 . S
C2140 C2132 1.378 . S
C2140 C2135 1.350 . S
C2141 H2128 0.929 . S
C2141 C2133 1.433 . S
C2141 N2143 1.384 . S
N2142 C2138 1.427 . S
N2142 C2139 1.384 . S
N2143 C2135 1.427 . S
N2143 C2141 1.384 . S
H2144 C2150 0.930 . S
H2145 C2154 0.930 . S
H2146 C2159 0.929 . S
H2147 C2157 0.929 . S
H2148 C2152 0.929 . S
H2149 C2158 0.929 . S
C2150 H2144 0.930 . S
C2150 C2151 1.367 . S
C2150 C2158 1.378 . S
C2151 C2150 1.367 . S
C2151 C2159 1.433 . S
C2152 H2148 0.929 . S
C2152 C2154 1.378 . S
C2152 C2156 1.350 . S
C2153 C2156 1.463 . S
C2153 C2158 1.350 . S
C2153 N2161 1.427 . S
C2154 H2145 0.930 . S
C2154 C2152 1.378 . S
C2154 C2155 1.367 . S
C2155 C2154 1.367 . S
C2155 C2157 1.433 . S
C2156 C2152 1.350 . S
C2156 C2153 1.463 . S
C2156 N2160 1.427 . S
C2157 H2147 0.929 . S
C2157 C2155 1.433 . S
C2157 N2160 1.384 . S
C2158 H2149 0.929 . S
C2158 C2150 1.378 . S
C2158 C2153 1.350 . S
C2159 H2146 0.929 . S
C2159 C2151 1.433 . S
C2159 N2161 1.384 . S
N2160 C2156 1.427 . S
N2160 C2157 1.384 . S
N2161 C2153 1.427 . S
N2161 C2159 1.384 . S
H2162 C2168 0.930 . S
H2163 C2172 0.930 . S
H2164 C2177 0.929 . S
H2165 C2175 0.929 . S
H2166 C2170 0.929 . S
H2167 C2176 0.929 . S
C2168 H2162 0.930 . S
C2168 C2169 1.367 . S
C2168 C2176 1.378 . S
C2169 C2168 1.367 . S
C2169 C2177 1.433 . S
C2170 H2166 0.929 . S
C2170 C2172 1.378 . S
C2170 C2174 1.350 . S
C2171 C2174 1.463 . S
C2171 C2176 1.350 . S
C2171 N2179 1.427 . S
C2172 H2163 0.930 . S
C2172 C2170 1.378 . S
C2172 C2173 1.367 . S
C2173 C2172 1.367 . S
C2173 C2175 1.433 . S
C2174 C2170 1.350 . S
C2174 C2171 1.463 . S
C2174 N2178 1.427 . S
C2175 H2165 0.929 . S
C2175 C2173 1.433 . S
C2175 N2178 1.384 . S
C2176 H2167 0.929 . S
C2176 C2168 1.378 . S
C2176 C2171 1.350 . S
C2177 H2164 0.929 . S
C2177 C2169 1.433 . S
C2177 N2179 1.384 . S
N2178 C2174 1.427 . S
N2178 C2175 1.384 . S
N2179 C2171 1.427 . S
N2179 C2177 1.384 . S
H2180 C2186 0.930 . S
H2181 C2190 0.930 . S
H2182 C2195 0.929 . S
H2183 C2193 0.929 . S
H2184 C2188 0.929 . S
H2185 C2194 0.929 . S
C2186 H2180 0.930 . S
C2186 C2187 1.367 . S
C2186 C2194 1.378 . S
C2187 C2186 1.367 . S
C2187 C2195 1.433 . S
C2188 H2184 0.929 . S
C2188 C2190 1.378 . S
C2188 C2192 1.350 . S
C2189 C2192 1.463 . S
C2189 C2194 1.350 . S
C2189 N2197 1.427 . S
C2190 H2181 0.930 . S
C2190 C2188 1.378 . S
C2190 C2191 1.367 . S
C2191 C2190 1.367 . S
C2191 C2193 1.433 . S
C2192 C2188 1.350 . S
C2192 C2189 1.463 . S
C2192 N2196 1.427 . S
C2193 H2183 0.929 . S
C2193 C2191 1.433 . S
C2193 N2196 1.384 . S
C2194 H2185 0.929 . S
C2194 C2186 1.378 . S
C2194 C2189 1.350 . S
C2195 H2182 0.929 . S
C2195 C2187 1.433 . S
C2195 N2197 1.384 . S
N2196 C2192 1.427 . S
N2196 C2193 1.384 . S
N2197 C2189 1.427 . S
N2197 C2195 1.384 . S
H2198 C2204 0.930 . S
H2199 C2208 0.930 . S
H2200 C2213 0.929 . S
H2201 C2211 0.929 . S
H2202 C2206 0.929 . S
H2203 C2212 0.929 . S
C2204 H2198 0.930 . S
C2204 C2205 1.367 . S
C2204 C2212 1.378 . S
C2205 C2204 1.367 . S
C2205 C2213 1.433 . S
C2206 H2202 0.929 . S
C2206 C2208 1.378 . S
C2206 C2210 1.350 . S
C2207 C2210 1.463 . S
C2207 C2212 1.350 . S
C2207 N2215 1.427 . S
C2208 H2199 0.930 . S
C2208 C2206 1.378 . S
C2208 C2209 1.367 . S
C2209 C2208 1.367 . S
C2209 C2211 1.433 . S
C2210 C2206 1.350 . S
C2210 C2207 1.463 . S
C2210 N2214 1.427 . S
C2211 H2201 0.929 . S
C2211 C2209 1.433 . S
C2211 N2214 1.384 . S
C2212 H2203 0.929 . S
C2212 C2204 1.378 . S
C2212 C2207 1.350 . S
C2213 H2200 0.929 . S
C2213 C2205 1.433 . S
C2213 N2215 1.384 . S
N2214 C2210 1.427 . S
N2214 C2211 1.384 . S
N2215 C2207 1.427 . S
N2215 C2213 1.384 . S
H2216 C2222 0.930 . S
H2217 C2226 0.930 . S
H2218 C2231 0.929 . S
H2219 C2229 0.929 . S
H2220 C2224 0.929 . S
H2221 C2230 0.929 . S
C2222 H2216 0.930 . S
C2222 C2223 1.367 . S
C2222 C2230 1.378 . S
C2223 C2222 1.367 . S
C2223 C2231 1.433 . S
C2224 H2220 0.929 . S
C2224 C2226 1.378 . S
C2224 C2228 1.350 . S
C2225 C2228 1.463 . S
C2225 C2230 1.350 . S
C2225 N2233 1.427 . S
C2226 H2217 0.930 . S
C2226 C2224 1.378 . S
C2226 C2227 1.367 . S
C2227 C2226 1.367 . S
C2227 C2229 1.433 . S
C2228 C2224 1.350 . S
C2228 C2225 1.463 . S
C2228 N2232 1.427 . S
C2229 H2219 0.929 . S
C2229 C2227 1.433 . S
C2229 N2232 1.384 . S
C2230 H2221 0.929 . S
C2230 C2222 1.378 . S
C2230 C2225 1.350 . S
C2231 H2218 0.929 . S
C2231 C2223 1.433 . S
C2231 N2233 1.384 . S
N2232 C2228 1.427 . S
N2232 C2229 1.384 . S
N2233 C2225 1.427 . S
N2233 C2231 1.384 . S
H2234 C2240 0.930 . S
H2235 C2244 0.930 . S
H2236 C2249 0.929 . S
H2237 C2247 0.929 . S
H2238 C2242 0.929 1_545 S
H2239 C2248 0.929 . S
C2240 H2234 0.930 . S
C2240 C2241 1.367 . S
C2240 C2248 1.378 . S
C2241 C2240 1.367 . S
C2241 C2249 1.433 . S
C2242 H2238 0.929 1_565 S
C2242 C2244 1.378 1_565 S
C2242 C2246 1.350 . S
C2243 C2246 1.463 . S
C2243 C2248 1.350 . S
C2243 N2251 1.427 . S
C2244 H2235 0.930 . S
C2244 C2242 1.378 1_545 S
C2244 C2245 1.367 1_545 S
C2245 C2244 1.367 1_565 S
C2245 C2247 1.433 . S
C2246 C2242 1.350 . S
C2246 C2243 1.463 . S
C2246 N2250 1.427 . S
C2247 H2237 0.929 . S
C2247 C2245 1.433 . S
C2247 N2250 1.384 . S
C2248 H2239 0.929 . S
C2248 C2240 1.378 . S
C2248 C2243 1.350 . S
C2249 H2236 0.929 . S
C2249 C2241 1.433 . S
C2249 N2251 1.384 . S
N2250 C2246 1.427 . S
N2250 C2247 1.384 . S
N2251 C2243 1.427 . S
N2251 C2249 1.384 . S
H2252 C2258 0.930 . S
H2253 C2262 0.930 . S
H2254 C2267 0.929 . S
H2255 C2265 0.929 . S
H2256 C2260 0.929 . S
H2257 C2266 0.929 . S
C2258 H2252 0.930 . S
C2258 C2259 1.367 . S
C2258 C2266 1.378 . S
C2259 C2258 1.367 . S
C2259 C2267 1.433 . S
C2260 H2256 0.929 . S
C2260 C2262 1.378 . S
C2260 C2264 1.350 . S
C2261 C2264 1.463 . S
C2261 C2266 1.350 . S
C2261 N2269 1.427 . S
C2262 H2253 0.930 . S
C2262 C2260 1.378 . S
C2262 C2263 1.367 . S
C2263 C2262 1.367 . S
C2263 C2265 1.433 . S
C2264 C2260 1.350 . S
C2264 C2261 1.463 . S
C2264 N2268 1.427 . S
C2265 H2255 0.929 . S
C2265 C2263 1.433 . S
C2265 N2268 1.384 . S
C2266 H2257 0.929 . S
C2266 C2258 1.378 . S
C2266 C2261 1.350 . S
C2267 H2254 0.929 . S
C2267 C2259 1.433 . S
C2267 N2269 1.384 . S
N2268 C2264 1.427 . S
N2268 C2265 1.384 . S
N2269 C2261 1.427 . S
N2269 C2267 1.384 . S
H2270 C2276 0.930 . S
H2271 C2280 0.930 . S
H2272 C2285 0.929 . S
H2273 C2283 0.929 . S
H2274 C2278 0.929 . S
H2275 C2284 0.929 . S
C2276 H2270 0.930 . S
C2276 C2277 1.367 . S
C2276 C2284 1.378 . S
C2277 C2276 1.367 . S
C2277 C2285 1.433 1_556 S
C2278 H2274 0.929 . S
C2278 C2280 1.378 . S
C2278 C2282 1.350 . S
C2279 C2282 1.463 . S
C2279 C2284 1.350 1_554 S
C2279 N2287 1.427 . S
C2280 H2271 0.930 . S
C2280 C2278 1.378 . S
C2280 C2281 1.367 . S
C2281 C2280 1.367 . S
C2281 C2283 1.433 . S
C2282 C2278 1.350 . S
C2282 C2279 1.463 . S
C2282 N2286 1.427 . S
C2283 H2273 0.929 . S
C2283 C2281 1.433 . S
C2283 N2286 1.384 . S
C2284 H2275 0.929 . S
C2284 C2276 1.378 . S
C2284 C2279 1.350 1_556 S
C2285 H2272 0.929 . S
C2285 C2277 1.433 1_554 S
C2285 N2287 1.384 . S
N2286 C2282 1.427 . S
N2286 C2283 1.384 . S
N2287 C2279 1.427 . S
N2287 C2285 1.384 . S
H2288 C2294 0.930 . S
H2289 C2298 0.930 . S
H2290 C2303 0.929 . S
H2291 C2301 0.929 . S
H2292 C2296 0.929 . S
H2293 C2302 0.929 . S
C2294 H2288 0.930 . S
C2294 C2295 1.367 . S
C2294 C2302 1.378 . S
C2295 C2294 1.367 . S
C2295 C2303 1.433 . S
C2296 H2292 0.929 . S
C2296 C2298 1.378 . S
C2296 C2300 1.350 . S
C2297 C2300 1.463 . S
C2297 C2302 1.350 . S
C2297 N2305 1.427 . S
C2298 H2289 0.930 . S
C2298 C2296 1.378 . S
C2298 C2299 1.367 . S
C2299 C2298 1.367 . S
C2299 C2301 1.433 . S
C2300 C2296 1.350 . S
C2300 C2297 1.463 . S
C2300 N2304 1.427 . S
C2301 H2291 0.929 . S
C2301 C2299 1.433 . S
C2301 N2304 1.384 . S
C2302 H2293 0.929 . S
C2302 C2294 1.378 . S
C2302 C2297 1.350 . S
C2303 H2290 0.929 . S
C2303 C2295 1.433 . S
C2303 N2305 1.384 . S
N2304 C2300 1.427 . S
N2304 C2301 1.384 . S
N2305 C2297 1.427 . S
N2305 C2303 1.384 . S
H2306 C2312 0.930 . S
H2307 C2316 0.930 . S
H2308 C2321 0.929 . S
H2309 C2319 0.929 . S
H2310 C2314 0.929 . S
H2311 C2320 0.929 . S
C2312 H2306 0.930 . S
C2312 C2313 1.367 . S
C2312 C2320 1.378 . S
C2313 C2312 1.367 . S
C2313 C2321 1.433 1_554 S
C2314 H2310 0.929 . S
C2314 C2316 1.378 . S
C2314 C2318 1.350 . S
C2315 C2318 1.452 1_554 S
C2315 C2320 1.393 . S
C2315 N2323 1.392 1_554 S
C2316 H2307 0.930 . S
C2316 C2314 1.378 . S
C2316 C2317 1.367 . S
C2317 C2316 1.367 . S
C2317 C2319 1.433 1_556 S
C2318 C2314 1.350 . S
C2318 C2315 1.452 1_556 S
C2318 N2322 1.427 1_556 S
C2319 H2309 0.929 . S
C2319 C2317 1.433 1_554 S
C2319 N2322 1.384 . S
C2320 H2311 0.929 . S
C2320 C2312 1.378 . S
C2320 C2315 1.393 . S
C2321 H2308 0.929 . S
C2321 C2313 1.433 1_556 S
C2321 N2323 1.384 . S
N2322 C2318 1.427 1_554 S
N2322 C2319 1.384 . S
N2323 C2315 1.392 1_556 S
N2323 C2321 1.384 . S
H2324 C2330 0.930 . S
H2325 C2334 0.930 . S
H2326 C2339 0.929 . S
H2327 C2337 0.929 . S
H2328 C2332 0.929 . S
H2329 C2338 0.929 . S
C2330 H2324 0.930 . S
C2330 C2331 1.367 . S
C2330 C2338 1.378 . S
C2331 C2330 1.367 . S
C2331 C2339 1.433 . S
C2332 H2328 0.929 . S
C2332 C2334 1.378 . S
C2332 C2336 1.350 . S
C2333 C2336 1.463 . S
C2333 C2338 1.350 . S
C2333 N2341 1.427 . S
C2334 H2325 0.930 . S
C2334 C2332 1.378 . S
C2334 C2335 1.367 . S
C2335 C2334 1.367 . S
C2335 C2337 1.433 . S
C2336 C2332 1.350 . S
C2336 C2333 1.463 . S
C2336 N2340 1.427 . S
C2337 H2327 0.929 . S
C2337 C2335 1.433 . S
C2337 N2340 1.384 . S
C2338 H2329 0.929 . S
C2338 C2330 1.378 . S
C2338 C2333 1.350 . S
C2339 H2326 0.929 . S
C2339 C2331 1.433 . S
C2339 N2341 1.384 . S
N2340 C2336 1.427 . S
N2340 C2337 1.384 . S
N2341 C2333 1.427 . S
N2341 C2339 1.384 . S
H2342 C2348 0.930 . S
H2343 C2352 0.930 . S
H2344 C2357 0.929 . S
H2345 C2355 0.929 . S
H2346 C2350 0.929 . S
H2347 C2356 0.929 . S
C2348 H2342 0.930 . S
C2348 C2349 1.367 . S
C2348 C2356 1.378 . S
C2349 C2348 1.367 . S
C2349 C2357 1.433 . S
C2350 H2346 0.929 . S
C2350 C2352 1.378 . S
C2350 C2354 1.350 . S
C2351 C2354 1.463 . S
C2351 C2356 1.350 . S
C2351 N2359 1.427 . S
C2352 H2343 0.930 . S
C2352 C2350 1.378 . S
C2352 C2353 1.367 . S
C2353 C2352 1.367 . S
C2353 C2355 1.433 . S
C2354 C2350 1.350 . S
C2354 C2351 1.463 . S
C2354 N2358 1.427 . S
C2355 H2345 0.929 . S
C2355 C2353 1.433 . S
C2355 N2358 1.384 . S
C2356 H2347 0.929 . S
C2356 C2348 1.378 . S
C2356 C2351 1.350 . S
C2357 H2344 0.929 . S
C2357 C2349 1.433 . S
C2357 N2359 1.384 . S
N2358 C2354 1.427 . S
N2358 C2355 1.384 . S
N2359 C2351 1.427 . S
N2359 C2357 1.384 . S
C639 C101 1.611 . S
C643 C330 1.589 . S
C657 C57 1.585 . S
C661 C341 1.610 . S
C675 C73 1.047 . S
C679 C370 1.078 . S
C697 C373 1.408 . S
C693 C78 1.387 . S
C711 C21 1.633 . S
C715 C411 1.619 . S
C733 C414 0.991 . S
C729 C31 0.987 . S
C751 C441 1.502 . S
C747 C49 1.508 . S
C765 C0 1.574 . S
C769 C470 1.578 . S
C787 C321 1.538 1_655 S
C783 C218 1.541 . S
C801 C229 0.852 . S
C805 C333 0.861 . S
C823 C361 1.564 . S
C819 C257 1.575 . S
C841 C390 1.147 . S
C837 C164 1.086 . S
C855 C216 0.949 . S
C859 C394 0.998 . S
C877 C420 1.603 . S
C873 C231 1.623 . S
C895 C433 0.765 . S
C891 C255 0.770 . S
C913 C461 1.577 . S
C909 C166 1.600 . S
C931 C313 1.473 1_565 S
C927 C143 1.443 . S
C945 C265 1.697 . S
C949 C480 1.716 . S
C967 C511 1.440 . S
C963 C299 1.463 . S
C985 C530 0.971 . S
C981 C291 0.973 . S
C999 C104 1.234 . S
C1003 C453 1.262 . S
C1017 C117 1.409 . S
C1021 C353 1.439 . S
C1035 C304 1.504 . S
C1039 C541 1.536 . S
C1057 C570 0.858 . S
C1053 C278 0.863 . S
C1075 C331 1.542 . S
C1071 C60 1.561 . S
C1093 C560 1.546 . S
C1089 C96 1.536 . S
C1107 C88 0.999 . S
C1111 C371 0.973 . S
C1125 C65 1.331 . S
C1129 C534 1.351 . S
C1147 C410 1.539 . S
C1143 C10 1.597 . S
C1161 C44 0.920 . S
C1165 C493 0.953 . S
C1183 C440 1.433 1_556 S
C1179 C34 1.391 . S
C1201 C591 1.528 . S
C1197 C13 1.565 . S
C1219 C320 1.493 . S
C1215 C138 1.468 1_565 S
C1237 C554 0.781 . S
C1233 C296 0.783 . S
C1251 C112 1.479 . S
C1255 C360 1.509 . S
C1269 C270 1.057 . S
C1273 C551 1.039 . S
C1287 C140 0.913 . S
C1291 C393 0.923 . S
C1309 C501 1.554 . S
C1305 C294 1.532 . S
C1323 C114 0.689 . S
C1327 C434 0.703 1_565 S
C1341 C268 1.495 . S
C1345 C580 1.528 . S
C1359 C169 1.446 1_556 S
C1363 C314 1.437 . S
C1377 C161 1.665 . S
C1381 C481 1.658 . S
C1395 C234 1.478 . S
C1399 C430 1.401 . S
C1413 C226 0.882 . S
C1417 C531 0.870 . S
C1435 C574 1.223 . S
C1431 C247 1.246 . S
C1449 C195 1.410 . S
C1453 C354 1.403 . S
C1471 C380 1.468 . S
C1467 C239 1.457 . S
C1489 C351 0.793 . S
C1485 C187 0.784 . S
C1503 C75 1.613 . S
C1507 C610 1.581 . S
C1525 C561 1.606 . S
C1521 C83 1.575 . S
C1539 C99 1.043 . S
C1543 C630 1.077 . S
C1557 C52 1.373 . S
C1561 C533 1.401 . S
C1575 C47 1.643 . S
C1579 C491 1.625 . S
C1597 C494 0.990 . S
C1593 C5 0.989 . S
C1615 C521 1.495 . S
C1611 C23 1.510 . S
C1633 C590 1.565 . S
C1629 C26 1.583 . S
C1651 C601 1.535 . S
C1647 C244 1.543 . S
C1665 C177 0.858 . S
C1669 C553 0.867 . S
C1687 C621 1.565 . S
C1683 C192 1.574 . S
C1705 C550 1.137 . S
C1701 C203 1.109 . S
C1723 C474 0.998 . S
C1719 C242 0.949 . S
C1737 C179 1.626 . S
C1741 C500 1.599 . S
C1759 C513 0.761 . S
C1755 C190 0.765 . S
C1773 C205 1.600 . S
C1777 C581 1.576 . S
C1795 C593 1.470 . S
C1791 C286 1.440 . S
C1809 C122 1.706 . S
C1813 C400 1.716 . S
C1831 C431 1.442 . S
C1827 C130 1.467 . S
C1849 C450 0.976 . S
C1845 C148 0.967 . S
C1867 C573 1.255 . S
C1863 C273 1.226 . S
C1881 C260 1.406 . S
C1885 C613 1.436 . S
C1903 C381 1.538 . S
C1899 C135 1.503 . S
C1921 C350 0.866 . S
C1917 C109 0.855 . S
C1935 C86 1.567 . S
C1939 C611 1.532 . S
C1957 C340 1.545 . S
C1953 C70 1.534 . S
C1971 C62 0.998 . S
C1975 C631 0.975 . S
C1989 C91 1.342 . S
C1993 C374 1.345 . S
C2007 C36 1.597 . S
C2011 C490 1.548 . S
C2029 C413 0.949 . S
C2025 C18 0.920 . S
C2043 C8 1.392 . S
C2047 C520 1.433 . S
C2061 C39 1.558 . S
C2065 C471 1.522 . S
C2083 C600 1.496 . S
C2079 C307 1.457 . S
C2097 C153 0.797 . S
C2101 C334 0.787 . S
C2119 C620 1.515 1_655 S
C2115 C281 1.478 . S
C2133 C127 1.055 . S
C2137 C391 1.040 . S
C2151 C309 0.917 . S
C2155 C473 0.919 . S
C2173 C421 1.553 . S
C2169 C151 1.531 . S
C2187 C283 0.686 . S
C2191 C514 0.679 . S
C2209 C460 1.530 . S
C2205 C125 1.507 . S
C2227 C594 1.438 . S
C2223 C221 1.445 . S
C2245 C401 1.663 1_565 S
C2241 C200 1.658 . S
C2259 C208 1.472 . S
C2263 C510 1.417 . S
C2281 C451 0.886 . S
C2277 C174 0.860 1_556 S
C2295 C182 1.240 . S
C2299 C454 1.235 . S
C2313 C156 1.409 . S
C2317 C614 1.403 . S
C2335 C540 1.470 . S
C2331 C213 1.459 . S
C2353 C571 0.802 . S
C2349 C252 0.783 . S
