# Generated by pormake.
# Topology zzz, (3,6)-cn, num edge types: 1
# Building blocks:
#     Node 0, Type 0, BuildingBlock: WUSLED_clean_sbu_0, # of connection points: 3
#     Node 1, Type 0, BuildingBlock: WUSLED_clean_sbu_0, # of connection points: 3
#     Node 2, Type 0, BuildingBlock: WUSLED_clean_sbu_0, # of connection points: 3
#     Node 3, Type 0, BuildingBlock: WUSLED_clean_sbu_0, # of connection points: 3
#     Node 4, Type 0, BuildingBlock: WUSLED_clean_sbu_0, # of connection points: 3
#     Node 5, Type 0, BuildingBlock: WUSLED_clean_sbu_0, # of connection points: 3
#     Node 6, Type 0, BuildingBlock: WUSLED_clean_sbu_0, # of connection points: 3
#     Node 7, Type 0, BuildingBlock: WUSLED_clean_sbu_0, # of connection points: 3
#     Node 8, Type 1, BuildingBlock: BETDEL_clean_sbu_0, # of connection points: 6
#     Node 9, Type 1, BuildingBlock: BETDEL_clean_sbu_0, # of connection points: 6
#     Node 10, Type 1, BuildingBlock: BETDEL_clean_sbu_0, # of connection points: 6
#     Node 11, Type 1, BuildingBlock: BETDEL_clean_sbu_0, # of connection points: 6
#     Edge 12, Type (0, 1), BuildingBlock: OJICUG_clean_linker_0, # of connection points: 2
#     Edge 13, Type (0, 1), BuildingBlock: OJICUG_clean_linker_0, # of connection points: 2
#     Edge 14, Type (0, 1), BuildingBlock: OJICUG_clean_linker_0, # of connection points: 2
#     Edge 15, Type (0, 1), BuildingBlock: OJICUG_clean_linker_0, # of connection points: 2
#     Edge 16, Type (0, 1), BuildingBlock: OJICUG_clean_linker_0, # of connection points: 2
#     Edge 17, Type (0, 1), BuildingBlock: OJICUG_clean_linker_0, # of connection points: 2
#     Edge 18, Type (0, 1), BuildingBlock: OJICUG_clean_linker_0, # of connection points: 2
#     Edge 19, Type (0, 1), BuildingBlock: OJICUG_clean_linker_0, # of connection points: 2
#     Edge 20, Type (0, 1), BuildingBlock: OJICUG_clean_linker_0, # of connection points: 2
#     Edge 21, Type (0, 1), BuildingBlock: OJICUG_clean_linker_0, # of connection points: 2
#     Edge 22, Type (0, 1), BuildingBlock: OJICUG_clean_linker_0, # of connection points: 2
#     Edge 23, Type (0, 1), BuildingBlock: OJICUG_clean_linker_0, # of connection points: 2
#     Edge 24, Type (0, 1), BuildingBlock: OJICUG_clean_linker_0, # of connection points: 2
#     Edge 25, Type (0, 1), BuildingBlock: OJICUG_clean_linker_0, # of connection points: 2
#     Edge 26, Type (0, 1), BuildingBlock: OJICUG_clean_linker_0, # of connection points: 2
#     Edge 27, Type (0, 1), BuildingBlock: OJICUG_clean_linker_0, # of connection points: 2
#     Edge 28, Type (0, 1), BuildingBlock: OJICUG_clean_linker_0, # of connection points: 2
#     Edge 29, Type (0, 1), BuildingBlock: OJICUG_clean_linker_0, # of connection points: 2
#     Edge 30, Type (0, 1), BuildingBlock: OJICUG_clean_linker_0, # of connection points: 2
#     Edge 31, Type (0, 1), BuildingBlock: OJICUG_clean_linker_0, # of connection points: 2
#     Edge 32, Type (0, 1), BuildingBlock: OJICUG_clean_linker_0, # of connection points: 2
#     Edge 33, Type (0, 1), BuildingBlock: OJICUG_clean_linker_0, # of connection points: 2
#     Edge 34, Type (0, 1), BuildingBlock: OJICUG_clean_linker_0, # of connection points: 2
#     Edge 35, Type (0, 1), BuildingBlock: OJICUG_clean_linker_0, # of connection points: 2
# Relax obj value: 0.325
# Max RMSD: 0.220
# Mean RMSD: 0.205
data_MOF--net-zzz--node1-WUSLED_clean_sbu_0--node2-BETDEL_clean_sbu_0--edge1-OJICUG_clean_linker_0
_symmetry_space_group_name_H-M    P1
_symmetry_Int_Tables_number       1
_symmetry_cell_setting            triclinic
loop_
_symmetry_equiv_pos_as_xyz
'x, y, z'
_cell_length_a     47.773002
_cell_length_b     47.838266
_cell_length_c     16.746265
_cell_angle_alpha  90.833946
_cell_angle_beta   89.492275
_cell_angle_gamma 95.064299
loop_
_atom_site_label
_atom_site_type_symbol
_atom_site_fract_x
_atom_site_fract_y
_atom_site_fract_z
_atom_type_partial_charge
C0 C 0.81041 0.50408 0.23002 0.0
C1 C 0.83571 0.50644 0.18619 0.0
C2 C 0.86281 0.5057 0.30939 0.0
C3 C 0.86161 0.507 0.22537 0.0
C4 C 0.83731 0.50355 0.3527 0.0
C5 C 0.81151 0.50261 0.31345 0.0
U6 U 0.75537 0.48509 0.06347 0.0
O7 O 0.72516 0.51293 0.01834 0.0
O8 O 0.70974 0.47336 0.0747 0.0
C9 C 0.70328 0.49524 0.03431 0.0
C10 C 0.78265 0.50441 0.19154 0.0
C11 C 0.68326 0.48965 0.96811 0.0
C12 C 0.63541 0.4888 0.91948 0.0
C13 C 0.65452 0.49122 0.98256 0.0
C14 C 0.67343 0.48224 0.82646 0.0
C15 C 0.64466 0.48491 0.84031 0.0
C16 C 0.69256 0.48459 0.88979 0.0
C17 C 0.81076 0.44817 0.94667 0.0
C18 C 0.8468 0.43513 0.8543 0.0
C19 C 0.85962 0.4525 0.98696 0.0
C20 C 0.83125 0.45459 1.00511 0.0
C21 C 0.86773 0.44366 0.91033 0.0
C22 C 0.81855 0.43751 0.8723 0.0
C23 C 0.78208 0.45607 0.95795 0.0
O24 O 0.78173 0.51861 0.12512 0.0
O25 O 0.76679 0.4805 0.18972 0.0
O26 O 0.77968 0.48312 0.95227 0.0
O27 O 0.76768 0.44445 0.01795 0.0
H28 H 0.83551 0.50806 0.12179 0.0
H29 H 0.88065 0.50832 0.1896 0.0
H30 H 0.83717 0.50312 0.41731 0.0
H31 H 0.7923 0.50117 0.34862 0.0
H32 H 0.61337 0.49039 0.9327 0.0
H33 H 0.64689 0.49498 0.04256 0.0
H34 H 0.68135 0.47941 0.76636 0.0
H35 H 0.7147 0.48327 0.87733 0.0
H36 H 0.85236 0.42858 0.79447 0.0
H37 H 0.87528 0.45898 0.03147 0.0
H38 H 0.82539 0.46249 0.06316 0.0
H39 H 0.80293 0.43256 0.82649 0.0
C40 C 0.97957 0.79213 0.27753 0.0
C41 C 0.97561 0.8148 0.22768 0.0
C42 C 0.98476 0.84763 0.33926 0.0
C43 C 0.97807 0.84232 0.25836 0.0
C44 C 0.98915 0.82474 0.38822 0.0
C45 C 0.98646 0.79733 0.35771 0.0
U46 U 0.98388 0.73866 0.10782 0.0
O47 O 1.00137 0.69763 0.10899 0.0
O48 O 0.9568 0.70004 0.08178 0.0
C49 C 0.9779 0.68414 0.08339 0.0
C50 C 0.97715 0.763 0.24711 0.0
C51 C 0.98083 0.66467 0.01469 0.0
C52 C 1.00593 0.62829 0.95014 0.0
C53 C 1.0026 0.64678 0.01421 0.0
C54 C 0.96533 0.64468 0.88613 0.0
C55 C 0.98737 0.62698 0.88513 0.0
C56 C 0.9621 0.66332 0.9501 0.0
C57 C 1.00317 0.803 0.9788 0.0
C58 C 0.03316 0.84674 0.99098 0.0
C59 C 0.98912 0.84572 0.92006 0.0
C60 C 0.98382 0.81717 0.93583 0.0
C61 C 0.01406 0.86072 0.94626 0.0
C62 C 0.02775 0.81816 1.00729 0.0
C63 C 0.99801 0.77231 0.98938 0.0
O64 O 0.95629 0.75617 0.19783 0.0
O65 O 1.0009 0.75335 0.22425 0.0
O66 O 0.01646 0.76016 0.03165 0.0
O67 O 0.97186 0.76285 1.00486 0.0
H68 H 0.97054 0.81123 0.16521 0.0
H69 H 0.97441 0.85934 0.21894 0.0
H70 H 0.99506 0.82796 0.45017 0.0
H71 H 0.98994 0.78013 0.3968 0.0
H72 H 0.02341 0.61535 0.95107 0.0
H73 H 0.01724 0.64722 0.06336 0.0
H74 H 0.95038 0.64398 0.83775 0.0
H75 H 0.94491 0.67663 0.94875 0.0
H76 H 0.0525 0.8578 0.01212 0.0
H77 H 0.97422 0.85572 0.88415 0.0
H78 H 0.96484 0.80601 0.91256 0.0
H79 H 0.04313 0.8079 0.04067 0.0
C80 C 0.72342 0.99705 0.2431 0.0
C81 C 0.7052 0.01773 0.22667 0.0
C82 C 0.66971 0.99567 0.3181 0.0
C83 C 0.67861 0.01706 0.26392 0.0
C84 C 0.68819 0.97512 0.33396 0.0
C85 C 0.7146 0.97581 0.29693 0.0
U86 U 0.7831 0.01074 0.08143 0.0
O87 O 0.81484 0.98145 0.05188 0.0
O88 O 0.82813 0.02315 0.10069 0.0
C89 C 0.83604 1.00009 0.06702 0.0
C90 C 0.75209 0.99717 0.20839 0.0
C91 C 0.85708 1.00397 1.00193 0.0
C92 C 0.90141 0.99289 0.94142 0.0
C93 C 0.88186 0.99032 1.00447 0.0
C94 C 0.87169 0.02297 0.87243 0.0
C95 C 0.89659 0.00923 0.87443 0.0
C96 C 0.85212 0.02029 0.93536 0.0
C97 C 0.73506 0.04315 0.92725 0.0
C98 C 0.70612 0.04888 0.81167 0.0
C99 C 0.68996 0.06249 0.94304 0.0
C100 C 0.71468 0.05419 0.97646 0.0
C101 C 0.68536 0.05977 0.86014 0.0
C102 C 0.73068 0.04079 0.84489 0.0
C103 C 0.76125 0.03391 0.95838 0.0
O104 O 0.75533 0.97984 0.14806 0.0
O105 O 0.76684 0.02155 0.20058 0.0
O106 O 0.77326 0.04853 0.01788 0.0
O107 O 0.76203 1.00667 0.96525 0.0
H108 H 0.71152 0.03437 0.18538 0.0
H109 H 0.66489 0.0331 0.24955 0.0
H110 H 0.68246 0.95862 0.37617 0.0
H111 H 0.72836 0.95977 0.31113 0.0
H112 H 0.92043 0.98226 0.94552 0.0
H113 H 0.88603 0.97751 0.05511 0.0
H114 H 0.86703 0.03539 0.82147 0.0
H115 H 0.83297 0.03074 0.9317 0.0
H116 H 0.70308 0.04572 0.74807 0.0
H117 H 0.67445 0.07086 0.98203 0.0
H118 H 0.71777 0.05621 0.04035 0.0
H119 H 0.7462 0.03226 0.8061 0.0
C120 C 0.53678 0.71984 0.27556 0.0
C121 C 0.52568 0.69806 0.22464 0.0
C122 C 0.53999 0.66297 0.31666 0.0
C123 C 0.52752 0.66995 0.24455 0.0
C124 C 0.55057 0.68496 0.36799 0.0
C125 C 0.54913 0.71299 0.34738 0.0
U126 U 0.54633 0.78077 0.12909 0.0
O127 O 0.51961 0.81542 0.11565 0.0
O128 O 0.56416 0.82458 0.14501 0.0
C129 C 0.54091 0.83467 0.12144 0.0
C130 C 0.53575 0.74973 0.25557 0.0
C131 C 0.54401 0.85374 0.05325 0.0
C132 C 0.54405 0.90048 0.99868 0.0
C133 C 0.5431 0.88271 0.06457 0.0
C134 C 0.54729 0.86044 0.90977 0.0
C135 C 0.54571 0.88945 0.9205 0.0
C136 C 0.54657 0.84277 0.97556 0.0
C137 C 0.56576 0.7263 0.97522 0.0
C138 C 0.57044 0.69211 0.86935 0.0
C139 C 0.56183 0.67663 1.00542 0.0
C140 C 0.56233 0.70463 0.03089 0.0
C141 C 0.56551 0.67019 0.92415 0.0
C142 C 0.57038 0.71997 0.89471 0.0
C143 C 0.56198 0.75526 0.99879 0.0
O144 O 0.5602 0.76389 0.24248 0.0
O145 O 0.51628 0.75556 0.20486 0.0
O146 O 0.53582 0.76009 0.01417 0.0
O147 O 0.5799 0.76677 0.05135 0.0
H148 H 0.51577 0.70272 0.16904 0.0
H149 H 0.51933 0.65373 0.20311 0.0
H150 H 0.55958 0.68062 0.42509 0.0
H151 H 0.55753 0.7294 0.38804 0.0
H152 H 0.54257 0.92272 1.00877 0.0
H153 H 0.54108 0.8915 0.12411 0.0
H154 H 0.54892 0.85139 0.85041 0.0
H155 H 0.54743 0.82043 0.96575 0.0
H156 H 0.57302 0.68767 0.80622 0.0
H157 H 0.55816 0.66007 0.04871 0.0
H158 H 0.55933 0.70944 0.09342 0.0
H159 H 0.57299 0.73653 0.85106 0.0
C160 C 0.23109 0.51368 0.89374 0.0
C161 C 0.20584 0.51129 0.93781 0.0
C162 C 0.17859 0.51183 0.81482 0.0
C163 C 0.17989 0.51061 0.89884 0.0
C164 C 0.20405 0.51398 0.77129 0.0
C165 C 0.22989 0.51504 0.81031 0.0
U166 U 0.28622 0.53301 0.05985 0.0
O167 O 0.33173 0.54522 0.04782 0.0
O168 O 0.31687 0.50549 0.10422 0.0
C169 C 0.33854 0.5234 0.08787 0.0
C170 C 0.25891 0.51359 0.93196 0.0
C171 C 0.35871 0.52915 0.1536 0.0
C172 C 0.40671 0.53025 0.2012 0.0
C173 C 0.38743 0.52766 0.13856 0.0
C174 C 0.3689 0.53685 0.29494 0.0
C175 C 0.39765 0.53425 0.28051 0.0
C176 C 0.3496 0.53431 0.23204 0.0
C177 C 0.23068 0.56932 0.17804 0.0
C178 C 0.19473 0.58209 0.27109 0.0
C179 C 0.18176 0.56497 0.13831 0.0
C180 C 0.21012 0.56296 0.11978 0.0
C181 C 0.17375 0.57368 0.21515 0.0
C182 C 0.22297 0.57978 0.25271 0.0
C183 C 0.25943 0.56164 0.16611 0.0
O184 O 0.27454 0.53763 0.93384 0.0
O185 O 0.26004 0.49934 0.99825 0.0
O186 O 0.26206 0.53464 0.17143 0.0
O187 O 0.27361 0.57345 0.10601 0.0
H188 H 0.20612 0.50975 1.00222 0.0
H189 H 0.16089 0.50929 0.93478 0.0
H190 H 0.20412 0.51433 0.70667 0.0
H191 H 0.24907 0.5165 0.77497 0.0
H192 H 0.42872 0.52872 0.18755 0.0
H193 H 0.3949 0.52383 0.07845 0.0
H194 H 0.36114 0.53976 0.35518 0.0
H195 H 0.32748 0.53557 0.24495 0.0
H196 H 0.18925 0.58853 0.33108 0.0
H197 H 0.16605 0.55858 0.09386 0.0
H198 H 0.21592 0.5552 0.0615 0.0
H199 H 0.23864 0.58469 0.29838 0.0
C200 C 0.06418 0.22511 0.85017 0.0
C201 C 0.06824 0.20259 0.9005 0.0
C202 C 0.05994 0.16953 0.7891 0.0
C203 C 0.06625 0.17504 0.87015 0.0
C204 C 0.05544 0.19227 0.73964 0.0
C205 C 0.05766 0.21972 0.76984 0.0
U206 U 0.05946 0.2786 0.01957 0.0
O207 O 0.04116 0.31923 0.0185 0.0
O208 O 0.08594 0.31769 0.04452 0.0
C209 C 0.0645 0.33317 0.04329 0.0
C210 C 0.06613 0.25426 0.88026 0.0
C211 C 0.06143 0.35265 0.11183 0.0
C212 C 0.03623 0.38912 0.17553 0.0
C213 C 0.03974 0.37062 0.11159 0.0
C214 C 0.07651 0.37257 0.24083 0.0
C215 C 0.05454 0.39034 0.24112 0.0
C216 C 0.07991 0.35391 0.177 0.0
C217 C 0.04174 0.21423 0.14961 0.0
C218 C 0.05609 0.1721 0.21093 0.0
C219 C 1.01289 0.16985 0.13568 0.0
C220 C 0.01784 0.19845 0.11904 0.0
C221 C 0.03179 0.15647 0.18267 0.0
C222 C 0.06093 0.20066 0.19489 0.0
C223 C 0.04637 0.24492 0.13867 0.0
O224 O 0.04224 0.26344 0.90379 0.0
O225 O 0.08708 0.26155 0.92886 0.0
O226 O 0.02751 0.25671 0.09692 0.0
O227 O 0.07233 0.25476 0.12227 0.0
H228 H 0.07303 0.20633 0.96309 0.0
H229 H 0.06997 0.15814 0.90994 0.0
H230 H 0.04981 0.18888 0.67754 0.0
H231 H 0.05411 0.2368 0.73038 0.0
H232 H 0.0188 0.40211 0.17405 0.0
H233 H 0.02529 0.37022 0.062 0.0
H234 H 0.09127 0.37319 0.28967 0.0
H235 H 0.09701 0.34051 0.17892 0.0
H236 H 0.07081 0.16253 0.24855 0.0
H237 H 0.99403 0.1583 0.11294 0.0
H238 H 1.00263 0.20824 0.08373 0.0
H239 H 0.07939 0.21232 0.21969 0.0
C240 C 0.32386 0.01797 0.88749 0.0
C241 C 0.34724 0.03502 0.91629 0.0
C242 C 0.37684 0.01909 0.8079 0.0
C243 C 0.37334 0.03554 0.8771 0.0
C244 C 0.35371 1.00137 0.78062 0.0
C245 C 0.32755 1.00095 0.81961 0.0
U246 U 0.26294 1.00482 0.04422 0.0
O247 O 0.21731 0.99672 0.0248 0.0
O248 O 0.23402 0.03553 0.0849 0.0
C249 C 0.21147 0.01926 0.06539 0.0
C250 C 0.29512 0.02033 0.92113 0.0
C251 C 0.19024 0.01487 0.12978 0.0
C252 C 0.14587 0.02575 0.19032 0.0
C253 C 0.16559 0.02874 0.12782 0.0
C254 C 0.17513 0.99477 0.25753 0.0
C255 C 0.15039 0.00878 0.25624 0.0
C256 C 0.19486 0.99783 0.19507 0.0
C257 C 0.31037 0.96362 0.17555 0.0
C258 C 0.33513 0.93437 0.26291 0.0
C259 C 0.36128 0.96907 0.18083 0.0
C260 C 0.33616 0.97646 0.14836 0.0
C261 C 0.36094 0.9487 0.2408 0.0
C262 C 0.31004 0.94186 0.23068 0.0
C263 C 0.28377 0.97482 0.15537 0.0
O264 O 0.27757 0.99752 0.9208 0.0
O265 O 0.29302 0.03577 0.9862 0.0
O266 O 0.28399 1.0023 0.15914 0.0
O267 O 0.2703 0.96353 0.09311 0.0
H268 H 0.34527 0.0486 0.96797 0.0
H269 H 0.39076 0.04912 0.90064 0.0
H270 H 0.3555 0.98859 0.72721 0.0
H271 H 0.30993 0.98792 0.79498 0.0
H272 H 0.12696 0.03657 0.18665 0.0
H273 H 0.16167 0.04206 0.07809 0.0
H274 H 0.17956 0.98185 0.30765 0.0
H275 H 0.21389 0.98715 0.19813 0.0
H276 H 0.33421 0.91829 0.30797 0.0
H277 H 0.38075 0.98068 0.16288 0.0
H278 H 0.33678 0.99328 0.10553 0.0
H279 H 0.29028 0.93165 0.25196 0.0
C280 C 0.50631 0.2998 0.84199 0.0
C281 C 0.51746 0.32152 0.89299 0.0
C282 C 0.50287 0.35668 0.80165 0.0
C283 C 0.51549 0.34965 0.87347 0.0
C284 C 0.49222 0.33475 0.75027 0.0
C285 C 0.49376 0.3067 0.77051 0.0
U286 U 0.49779 0.2387 0.98804 0.0
O287 O 0.52469 0.20411 0.99964 0.0
O288 O 0.48 0.19487 0.97206 0.0
C289 C 0.50342 0.18481 0.99426 0.0
C290 C 0.50751 0.2699 0.86153 0.0
C291 C 0.50075 0.1655 0.06194 0.0
C292 C 0.50116 0.11859 0.1149 0.0
C293 C 0.5018 0.1366 0.04962 0.0
C294 C 0.49798 0.15825 0.20524 0.0
C295 C 0.49966 0.1293 0.19347 0.0
C296 C 0.49841 0.17617 0.14003 0.0
C297 C 0.47902 0.29287 0.14371 0.0
C298 C 0.47467 0.32688 0.25026 0.0
C299 C 0.48219 0.34256 0.11398 0.0
C300 C 0.48184 0.31461 0.08817 0.0
C301 C 0.47896 0.34888 0.19549 0.0
C302 C 0.4749 0.29907 0.22454 0.0
C303 C 0.48281 0.26397 0.11948 0.0
O304 O 0.52731 0.26406 0.91116 0.0
O305 O 0.48317 0.2557 0.87567 0.0
O306 O 0.50891 0.25927 0.10271 0.0
O307 O 0.46462 0.25244 0.06766 0.0
H308 H 0.52751 0.31681 0.94831 0.0
H309 H 0.52373 0.36583 0.91496 0.0
H310 H 0.48308 0.33913 0.69337 0.0
H311 H 0.48532 0.29032 0.72982 0.0
H312 H 0.50272 0.0964 0.104 0.0
H313 H 0.50366 0.12805 0.98974 0.0
H314 H 0.49646 0.16706 0.26491 0.0
H315 H 0.49745 0.19847 0.1506 0.0
H316 H 0.47243 0.33124 0.31355 0.0
H317 H 0.48536 0.35919 0.07072 0.0
H318 H 0.48444 0.3099 0.02542 0.0
H319 H 0.47274 0.28246 0.26809 0.0
Dy320 Dy 0.03112 0.99148 0.63649 0.0
C321 C 0.01345 0.05423 0.35269 0.0
C322 C 0.03312 0.96282 0.77601 0.0
Dy323 Dy 0.01516 0.02553 0.49221 0.0
O324 O 0.05351 0.96627 0.72431 0.0
O325 O 1.01208 0.97591 0.75252 0.0
O326 O 0.06601 0.97494 0.5635 0.0
O327 O 0.05454 0.01557 0.54369 0.0
C328 C 0.06985 0.99701 0.51912 0.0
C329 C 0.97653 0.02013 0.60997 0.0
O330 O 1.00892 0.9814 0.44213 0.0
O331 O 1.00783 0.95794 0.56288 0.0
O332 O 0.99282 0.05047 0.40354 0.0
O333 O 0.03456 0.04143 0.377 0.0
O334 O 0.98035 0.04217 0.56542 0.0
O335 O 0.99176 1.00154 0.58509 0.0
O336 O 0.03732 0.03559 0.68669 0.0
O337 O 0.03828 0.05911 0.56603 0.0
C338 C 1.00468 0.95809 0.48433 0.0
C339 C 0.04145 0.05893 0.64457 0.0
Dy340 Dy 0.50444 0.98753 0.50869 0.0
C341 C 0.58213 0.05772 0.69228 0.0
C342 C 0.46079 0.95966 0.42805 0.0
Dy343 Dy 0.53984 0.03026 0.60527 0.0
O344 O 0.48588 0.96544 0.39914 0.0
O345 O 0.4598 0.9686 0.50142 0.0
O346 O 0.54254 0.96635 0.47101 0.0
O347 O 0.54587 0.01007 0.48932 0.0
C348 C 0.55951 0.98919 0.47304 0.0
C349 C 0.48468 0.02824 0.64079 0.0
O350 O 0.53191 0.05808 0.50401 0.0
O351 O 0.49565 0.02817 0.45171 0.0
O352 O 0.55814 0.04753 0.72087 0.0
O353 O 0.58274 0.05353 0.61554 0.0
O354 O 0.50147 0.05118 0.64283 0.0
O355 O 0.49864 1.00759 0.62474 0.0
O356 O 0.51245 0.96005 0.61056 0.0
O357 O 0.55002 0.9893 0.65772 0.0
C358 C 0.5111 0.05259 0.45289 0.0
C359 C 0.53405 0.9652 0.65911 0.0
Dy360 Dy 0.52309 0.53168 0.63188 0.0
C361 C 0.5026 0.4514 0.36782 0.0
C362 C 0.54067 0.56808 0.75111 0.0
Dy363 Dy 0.51995 0.48796 0.48695 0.0
O364 O 0.51738 0.55169 0.75335 0.0
O365 O 0.55395 0.56442 0.68451 0.0
O366 O 0.48529 0.5522 0.58683 0.0
O367 O 0.49063 0.51061 0.55688 0.0
C368 C 0.47655 0.53094 0.54175 0.0
C369 C 0.56646 0.4887 0.57743 0.0
O370 O 0.52417 0.5295 0.4241 0.0
O371 O 0.54244 0.55678 0.53112 0.0
O372 O 0.52581 0.46791 0.3656 0.0
O373 O 0.48926 0.45505 0.43431 0.0
O374 O 0.55775 0.46743 0.53232 0.0
O375 O 0.55233 0.50896 0.56204 0.0
O376 O 0.51873 0.49014 0.6947 0.0
O377 O 0.50046 0.4629 0.58762 0.0
C378 C 0.53617 0.55339 0.4545 0.0
C379 C 0.5067 0.46629 0.66426 0.0
Dy380 Dy 1.00634 0.49017 0.62728 0.0
C381 C 0.06991 0.54728 0.37798 0.0
C382 C 0.97143 0.47032 0.74727 0.0
Dy383 Dy 0.03493 0.52736 0.49778 0.0
O384 O 0.98139 0.45498 0.69102 0.0
O385 O 0.98076 0.49639 0.73818 0.0
O386 O 0.02883 0.45371 0.58283 0.0
O387 O 0.01731 0.48398 0.50234 0.0
C388 C 0.03042 0.46238 0.50945 0.0
C389 C 1.01081 0.55504 0.61597 0.0
O390 O 0.99285 0.52013 0.44032 0.0
O391 O 0.96966 0.50078 0.55195 0.0
O392 O 0.06006 0.56257 0.43453 0.0
O393 O 0.06042 0.52124 0.38665 0.0
O394 O 1.01232 0.56376 0.54263 0.0
O395 O 0.02403 0.53351 0.62262 0.0
O396 O 0.04844 0.49742 0.68469 0.0
O397 O 0.07161 0.51665 0.5729 0.0
C398 C 0.96947 0.51068 0.4781 0.0
C399 C 0.07182 0.50679 0.64679 0.0
C400 C 0.12312 0.97975 0.36038 0.0
C401 C 0.12952 1.00582 0.32348 0.0
H402 H 0.09923 0.95659 0.45044 0.0
C403 C 0.11596 0.02905 0.35185 0.0
H404 H 0.13281 0.96132 0.33965 0.0
C405 C 0.09666 0.02628 0.41547 0.0
C406 C 0.09029 1.00019 0.4519 0.0
H407 H 0.12063 0.04955 0.32586 0.0
H408 H 0.08696 0.04465 0.43667 0.0
C409 C 0.10376 0.97699 0.42374 0.0
C410 C 0.48539 0.08418 0.26366 0.0
C411 C 0.50095 0.11049 0.26292 0.0
H412 H 0.47598 0.04552 0.32465 0.0
C413 C 0.51856 0.11835 0.32781 0.0
H414 H 0.4714 0.07768 0.21497 0.0
C415 C 0.52126 0.09992 0.39081 0.0
C416 C 0.50624 0.0733 0.39058 0.0
H417 H 0.53098 0.13842 0.32866 0.0
H418 H 0.53558 0.10634 0.43879 0.0
C419 C 0.4879 0.06585 0.32692 0.0
C420 C 0.41671 0.55238 0.41412 0.0
C421 C 0.41791 0.53401 0.34785 0.0
H422 H 0.4345 0.56593 0.52732 0.0
C423 C 0.4386 0.51485 0.34656 0.0
H424 H 0.40126 0.56762 0.41678 0.0
C425 C 0.45743 0.514 0.40955 0.0
C426 C 0.45613 0.53198 0.47589 0.0
H427 H 0.44016 0.50023 0.29707 0.0
H428 H 0.47353 0.49976 0.40513 0.0
C429 C 0.43579 0.5515 0.47725 0.0
C430 C 0.04103 0.4364 0.29771 0.0
C431 C 0.05028 0.40967 0.31001 0.0
H432 H 0.02734 0.47387 0.35092 0.0
C433 C 0.05442 0.4012 0.38889 0.0
H434 H 0.03809 0.44389 0.23791 0.0
C435 C 0.04878 0.4187 0.45367 0.0
C436 C 0.03872 0.44497 0.44108 0.0
H437 H 0.06119 0.38067 0.40087 0.0
H438 H 0.05163 0.41134 0.51367 0.0
C439 C 0.03518 0.45377 0.36248 0.0
C440 C 0.93091 0.98862 0.77911 0.0
C441 C 0.91733 0.01192 0.80686 0.0
H442 H 0.95975 0.97275 0.69423 0.0
C443 C 0.92357 0.03783 0.76899 0.0
H444 H 0.92636 0.96825 0.80596 0.0
C445 C 0.94279 0.04038 0.70529 0.0
C446 C 0.95626 0.0171 0.67764 0.0
H447 H 0.91385 0.0563 0.78923 0.0
H448 H 0.9472 0.06068 0.67786 0.0
C449 C 0.95005 0.99117 0.71503 0.0
C450 C 0.5268 0.89989 0.78586 0.0
C451 C 0.54452 0.90795 0.85035 0.0
H452 H 0.50962 0.91155 0.67475 0.0
C453 C 0.5602 0.93419 0.84859 0.0
H454 H 0.51428 0.87987 0.78579 0.0
C455 C 0.55768 0.95228 0.78473 0.0
C456 C 0.53917 0.94465 0.72157 0.0
H457 H 0.57425 0.94084 0.897 0.0
H458 H 0.56963 0.9726 0.78625 0.0
C459 C 0.52406 0.91809 0.72233 0.0
C460 C 0.62599 0.4671 0.70597 0.0
C461 C 0.62459 0.48531 0.77252 0.0
H462 H 0.60853 0.45378 0.59218 0.0
C463 C 0.60388 0.50445 0.77366 0.0
H464 H 0.64145 0.45186 0.70339 0.0
C465 C 0.58523 0.50542 0.71029 0.0
C466 C 0.58673 0.4876 0.64367 0.0
H467 H 0.60216 0.51896 0.82336 0.0
H468 H 0.56907 0.5196 0.71466 0.0
C469 C 0.60709 0.46811 0.64245 0.0
C470 C 0.98701 0.61613 0.73734 0.0
C471 C 0.99144 0.60767 0.81607 0.0
H472 H 0.98943 0.60601 0.61246 0.0
C473 C 1.00078 0.58096 0.82805 0.0
H474 H 0.98015 0.63664 0.72561 0.0
C475 C 1.00646 0.5636 0.76307 0.0
C476 C 1.00266 0.5724 0.6846 0.0
H477 H 1.00394 0.57348 0.88774 0.0
H478 H 0.01438 0.54352 0.77437 0.0
C479 C 0.99249 0.59865 0.67236 0.0
C480 C 0.0464 0.10873 0.21343 0.0
C481 C 0.02514 0.12718 0.20939 0.0
H482 H 0.05905 0.07052 0.26084 0.0
C483 C 0.99838 0.11871 0.24077 0.0
H484 H 0.06708 0.11452 0.18861 0.0
C485 C 0.99376 0.09348 0.28187 0.0
C486 C 0.01578 0.07631 0.29198 0.0
H487 H 0.98161 0.13251 0.23885 0.0
H488 H 0.97354 0.08842 0.3104 0.0
C489 C 0.04173 0.08347 0.25424 0.0
C490 C 0.38499 0.94486 0.37162 0.0
C491 C 0.38665 0.9455 0.28773 0.0
H492 H 0.40737 0.94856 0.48187 0.0
C493 C 0.41325 0.94663 0.25066 0.0
H494 H 0.36489 0.94433 0.40224 0.0
C495 C 0.43767 0.94911 0.29665 0.0
C496 C 0.43582 0.95065 0.38031 0.0
H497 H 0.41519 0.94681 0.18618 0.0
H498 H 0.4579 0.95149 0.26664 0.0
C499 C 0.40934 0.94744 0.41741 0.0
C500 C 0.50656 0.3956 0.20784 0.0
C501 C 0.48216 0.37811 0.22561 0.0
H502 H 0.53236 0.43308 0.23965 0.0
C503 C 0.46275 0.38723 0.28132 0.0
H504 H 0.52188 0.38889 0.16521 0.0
C505 C 0.46867 0.41234 0.32334 0.0
C506 C 0.49419 0.42865 0.31078 0.0
H507 H 0.44367 0.3742 0.29529 0.0
H508 H 0.45394 0.41815 0.36894 0.0
C509 C 0.5126 0.42077 0.25045 0.0
C510 C 0.13289 0.58985 0.29293 0.0
C511 C 0.14399 0.56999 0.24171 0.0
H512 H 0.10014 0.59831 0.37572 0.0
C513 C 0.12803 0.54441 0.22625 0.0
H514 H 0.14464 0.60984 0.30525 0.0
C515 C 0.10269 0.53781 0.2667 0.0
C516 C 0.09283 0.55673 0.32282 0.0
H517 H 0.1361 0.52858 0.18763 0.0
H518 H 0.09172 0.51722 0.25758 0.0
C519 C 0.10742 0.5833 0.333 0.0
C520 C 0.04772 0.89791 0.88646 0.0
C521 C 0.0211 0.88996 0.91954 0.0
H522 H 0.07259 0.92777 0.81552 0.0
C523 C 1.00025 0.90891 0.91714 0.0
H524 H 0.06419 0.88374 0.88706 0.0
C525 C 1.00509 0.93413 0.87619 0.0
C526 C 0.03083 0.94077 0.83679 0.0
H527 H 0.97969 0.90355 0.94333 0.0
H528 H 0.98802 0.94746 0.87084 0.0
C529 C 0.05254 0.92312 0.84534 0.0
C530 C 0.65767 0.07633 0.74592 0.0
C531 C 0.65827 0.06581 0.82396 0.0
H532 H 0.63277 0.08204 0.6426 0.0
C533 C 0.63266 0.05766 0.86266 0.0
H534 H 0.67694 0.08356 0.71517 0.0
C535 C 0.60732 0.05753 0.8216 0.0
C536 C 0.60721 0.0652 0.741 0.0
H537 H 0.63228 0.04939 0.92253 0.0
H538 H 0.58812 0.04931 0.85109 0.0
C539 C 0.63239 0.07574 0.70452 0.0
C540 C 0.58136 0.63152 0.83888 0.0
C541 C 0.56197 0.64096 0.89414 0.0
H542 H 0.58985 0.60048 0.75127 0.0
C543 C 0.53726 0.62384 0.91133 0.0
H544 H 0.60068 0.64424 0.82538 0.0
C545 C 0.53093 0.59877 0.86851 0.0
C546 C 0.54932 0.59063 0.8085 0.0
H547 H 0.52195 0.63079 0.95361 0.0
H548 H 0.51095 0.58677 0.87881 0.0
C549 C 0.57512 0.60652 0.79659 0.0
C550 C 0.9087 0.42754 0.833 0.0
C551 C 0.89749 0.44742 0.88392 0.0
H552 H 0.9415 0.41913 0.7503 0.0
C553 C 0.91332 0.4731 0.89904 0.0
H554 H 0.89706 0.40748 0.82093 0.0
C555 C 0.93862 0.47978 0.85848 0.0
C556 C 0.94858 0.46083 0.8026 0.0
H557 H 0.90516 0.48894 0.93743 0.0
H558 H 0.94947 0.50044 0.86731 0.0
C559 C 0.93414 0.43417 0.79282 0.0
C560 C 0.06678 0.13525 0.67703 0.0
C561 C 0.0577 0.14035 0.75563 0.0
H562 H 0.06888 0.10565 0.58083 0.0
C563 C 0.04547 0.11758 0.80007 0.0
H564 H 0.07702 0.15201 0.64165 0.0
C565 C 0.04134 0.09068 0.76542 0.0
C566 C 0.0491 0.08612 0.68548 0.0
H567 H 0.03805 0.12069 0.86055 0.0
H568 H 0.03095 0.07379 0.80005 0.0
C569 C 0.06232 0.10857 0.64225 0.0
C570 C 0.41931 0.04755 0.7519 0.0
C571 C 0.40418 0.02125 0.76293 0.0
H572 H 0.45614 0.07036 0.70387 0.0
C573 C 0.41536 0.99727 0.73026 0.0
H574 H 0.41117 0.06654 0.77479 0.0
C575 C 0.44123 0.99951 0.68928 0.0
C576 C 0.45644 0.02579 0.67944 0.0
H577 H 0.40441 0.97667 0.73786 0.0
H578 H 0.44953 0.98059 0.6664 0.0
C579 C 0.44502 0.04978 0.71057 0.0
C580 C 0.47911 0.3945 0.73266 0.0
C581 C 0.50168 0.38659 0.77821 0.0
H582 H 0.46301 0.42612 0.66121 0.0
C583 C 0.52391 0.40706 0.79596 0.0
H584 H 0.46117 0.37973 0.71979 0.0
C585 C 0.52439 0.43409 0.76449 0.0
C586 C 0.50288 0.441 0.71381 0.0
H587 H 0.54178 0.40183 0.83024 0.0
H588 H 0.54257 0.44885 0.77498 0.0
C589 C 0.47991 0.42124 0.69996 0.0
C590 C 0.14828 0.52564 0.70149 0.0
C591 C 0.151 0.51063 0.77237 0.0
H592 H 0.12159 0.53603 0.60637 0.0
C593 C 0.12722 0.49422 0.80134 0.0
H594 H 0.16578 0.53901 0.67787 0.0
C595 C 0.10157 0.49291 0.76073 0.0
C596 C 0.09907 0.50771 0.68955 0.0
H597 H 0.12844 0.48197 0.85484 0.0
H598 H 0.08377 0.48005 0.78481 0.0
C599 C 0.12278 0.52404 0.66044 0.0
C600 C 0.97879 0.88187 0.45205 0.0
C601 C 0.98747 0.87678 0.37308 0.0
H602 H 0.9773 0.91142 0.5486 0.0
C603 C 0.99973 0.89951 0.32851 0.0
H604 H 0.96855 0.86516 0.48758 0.0
C605 C 1.00422 0.92636 0.36329 0.0
C606 C 0.99681 0.93092 0.44351 0.0
H607 H 1.00686 0.89639 0.26774 0.0
H608 H 0.01458 0.94321 0.32847 0.0
C609 C 0.98361 0.9085 0.48695 0.0
C610 C 0.62976 0.01887 0.38557 0.0
C611 C 0.64137 0.99439 0.35791 0.0
H612 H 0.59505 0.03648 0.4445 0.0
C613 C 0.62583 0.96836 0.36996 0.0
H614 H 0.64118 0.03926 0.3783 0.0
C615 C 0.5996 0.96678 0.40845 0.0
C616 C 0.58802 0.99118 0.43588 0.0
H617 H 0.63374 0.94906 0.34861 0.0
H618 H 0.58824 0.94636 0.41598 0.0
C619 C 0.60342 0.01727 0.42422 0.0
C620 C 0.56368 0.62522 0.38615 0.0
C621 C 0.54115 0.63309 0.34036 0.0
H622 H 0.57976 0.59364 0.4578 0.0
C623 C 0.51896 0.61258 0.32252 0.0
H624 H 0.58159 0.64002 0.39912 0.0
C625 C 0.51848 0.58555 0.35408 0.0
C626 C 0.53996 0.57869 0.40494 0.0
H627 H 0.50112 0.61777 0.28803 0.0
H628 H 0.50033 0.57077 0.34349 0.0
C629 C 0.56289 0.59849 0.41892 0.0
C630 C 0.89303 0.49184 0.42293 0.0
C631 C 0.89037 0.50687 0.35207 0.0
H632 H 0.91966 0.48142 0.51819 0.0
C633 C 0.91417 0.52331 0.32331 0.0
H634 H 0.87551 0.47846 0.44641 0.0
C635 C 0.93979 0.5246 0.36408 0.0
C636 C 0.94224 0.50977 0.43522 0.0
H637 H 0.91299 0.53558 0.26984 0.0
H638 H 0.9576 0.53747 0.34013 0.0
C639 C 0.9185 0.49342 0.46415 0.0
loop_
_geom_bond_atom_site_label_1
_geom_bond_atom_site_label_2
_geom_bond_distance
_geom_bond_site_symmetry_2
_ccdc_geom_bond_type
C0 C1 1.264 . S
C0 C5 1.479 . S
C0 C10 1.465 . S
C1 C0 1.264 . S
C1 C3 1.339 . S
C1 H28 0.931 . S
C2 C3 1.395 . S
C2 C4 1.320 . S
C3 C1 1.339 . S
C3 C2 1.395 . S
C3 H29 0.929 . S
C4 C2 1.320 . S
C4 C5 1.405 . S
C4 H30 0.930 . S
C5 C0 1.479 . S
C5 C4 1.405 . S
C5 H31 0.931 . S
U6 O7 2.454 . S
U6 O8 2.458 1_554 S
U6 C9 2.984 1_554 S
U6 C10 2.847 . S
U6 C23 2.882 1_554 S
U6 O24 2.441 . S
U6 O25 2.420 . S
U6 O26 2.455 1_554 S
U6 O27 2.449 1_554 S
O7 U6 2.454 . S
O7 C9 1.353 1_554 S
O8 U6 2.458 1_556 S
O8 C9 1.286 . S
C9 U6 2.984 1_556 S
C9 O7 1.353 1_556 S
C9 O8 1.286 . S
C9 C11 1.363 . S
C10 C0 1.465 . S
C10 U6 2.847 . S
C10 O24 1.249 . S
C10 O25 1.202 . S
C11 C9 1.363 . S
C11 C13 1.408 1_556 S
C11 C16 1.342 . S
C12 C13 1.310 . S
C12 C15 1.461 1_554 S
C12 H32 0.932 . S
C13 C11 1.408 1_554 S
C13 C12 1.310 . S
C13 H33 0.930 . S
C14 C15 1.474 . S
C14 C16 1.285 . S
C14 H34 0.929 . S
C15 C12 1.461 1_556 S
C15 C14 1.474 . S
C16 C11 1.342 . S
C16 C14 1.285 . S
C16 H35 0.930 . S
C17 C20 1.424 . S
C17 C22 1.245 . S
C17 C23 1.428 . S
C18 C21 1.260 . S
C18 C22 1.477 . S
C18 H36 0.932 . S
C19 C20 1.384 . S
C19 C21 1.479 . S
C19 H37 0.929 . S
C20 C17 1.424 . S
C20 C19 1.384 . S
C20 H38 0.928 . S
C21 C18 1.260 . S
C21 C19 1.479 . S
C22 C17 1.245 . S
C22 C18 1.477 . S
C22 H39 0.932 . S
C23 U6 2.882 1_556 S
C23 C17 1.428 . S
C23 O26 1.301 . S
C23 O27 1.282 . S
O24 U6 2.441 . S
O24 C10 1.249 . S
O25 U6 2.420 . S
O25 C10 1.202 . S
O26 U6 2.455 1_556 S
O26 C23 1.301 . S
O27 U6 2.449 1_556 S
O27 C23 1.282 . S
H28 C1 0.931 . S
H29 C3 0.929 . S
H30 C4 0.930 . S
H31 C5 0.931 . S
H32 C12 0.932 . S
H33 C13 0.930 . S
H34 C14 0.929 . S
H35 C16 0.930 . S
H36 C18 0.932 . S
H37 C19 0.929 . S
H38 C20 0.928 . S
H39 C22 0.932 . S
C40 C41 1.264 . S
C40 C45 1.479 . S
C40 C50 1.465 . S
C41 C40 1.264 . S
C41 C43 1.339 . S
C41 H68 0.931 . S
C42 C43 1.395 . S
C42 C44 1.320 . S
C43 C41 1.339 . S
C43 C42 1.395 . S
C43 H69 0.929 . S
C44 C42 1.320 . S
C44 C45 1.405 . S
C44 H70 0.930 . S
C45 C40 1.479 . S
C45 C44 1.405 . S
C45 H71 0.931 . S
U46 O47 2.454 . S
U46 O48 2.458 1_554 S
U46 C49 2.984 1_554 S
U46 C50 2.847 . S
U46 C63 2.882 1_554 S
U46 O64 2.441 . S
U46 O65 2.420 . S
U46 O66 2.455 1_554 S
U46 O67 2.449 1_554 S
O47 U46 2.454 . S
O47 C49 1.353 1_554 S
O48 U46 2.458 1_556 S
O48 C49 1.286 . S
C49 U46 2.984 1_556 S
C49 O47 1.353 1_556 S
C49 O48 1.286 . S
C49 C51 1.363 . S
C50 C40 1.465 . S
C50 U46 2.847 . S
C50 O64 1.249 . S
C50 O65 1.202 . S
C51 C49 1.363 . S
C51 C53 1.408 1_556 S
C51 C56 1.342 . S
C52 C53 1.310 1_556 S
C52 C55 1.461 . S
C52 H72 0.932 1_556 S
C53 C51 1.408 1_554 S
C53 C52 1.310 1_554 S
C53 H73 0.930 . S
C54 C55 1.474 . S
C54 C56 1.285 . S
C54 H74 0.929 . S
C55 C52 1.461 . S
C55 C54 1.474 . S
C56 C51 1.342 . S
C56 C54 1.285 . S
C56 H75 0.930 . S
C57 C60 1.424 . S
C57 C62 1.245 . S
C57 C63 1.428 . S
C58 C61 1.260 . S
C58 C62 1.477 . S
C58 H76 0.932 . S
C59 C60 1.384 . S
C59 C61 1.479 . S
C59 H77 0.929 . S
C60 C57 1.424 . S
C60 C59 1.384 . S
C60 H78 0.928 . S
C61 C58 1.260 . S
C61 C59 1.479 . S
C62 C57 1.245 . S
C62 C58 1.477 . S
C62 H79 0.932 . S
C63 U46 2.882 1_556 S
C63 C57 1.428 . S
C63 O66 1.301 . S
C63 O67 1.282 . S
O64 U46 2.441 . S
O64 C50 1.249 . S
O65 U46 2.420 . S
O65 C50 1.202 . S
O66 U46 2.455 1_556 S
O66 C63 1.301 . S
O67 U46 2.449 1_556 S
O67 C63 1.282 . S
H68 C41 0.931 . S
H69 C43 0.929 . S
H70 C44 0.930 . S
H71 C45 0.931 . S
H72 C52 0.932 1_554 S
H73 C53 0.930 . S
H74 C54 0.929 . S
H75 C56 0.930 . S
H76 C58 0.932 . S
H77 C59 0.929 . S
H78 C60 0.928 . S
H79 C62 0.932 . S
C80 C81 1.264 . S
C80 C85 1.479 . S
C80 C90 1.465 . S
C81 C80 1.264 . S
C81 C83 1.339 . S
C81 H108 0.931 . S
C82 C83 1.395 . S
C82 C84 1.320 . S
C83 C81 1.339 . S
C83 C82 1.395 . S
C83 H109 0.929 . S
C84 C82 1.320 . S
C84 C85 1.405 . S
C84 H110 0.930 1_545 S
C85 C80 1.479 . S
C85 C84 1.405 . S
C85 H111 0.931 . S
U86 O87 2.454 . S
U86 O88 2.458 1_554 S
U86 C89 2.984 1_554 S
U86 C90 2.847 . S
U86 C103 2.882 1_554 S
U86 O104 2.441 . S
U86 O105 2.420 . S
U86 O106 2.455 1_554 S
U86 O107 2.449 1_554 S
O87 U86 2.454 . S
O87 C89 1.353 1_554 S
O88 U86 2.458 1_556 S
O88 C89 1.286 . S
C89 U86 2.984 1_556 S
C89 O87 1.353 1_556 S
C89 O88 1.286 . S
C89 C91 1.363 . S
C90 C80 1.465 . S
C90 U86 2.847 . S
C90 O104 1.249 . S
C90 O105 1.202 . S
C91 C89 1.363 . S
C91 C93 1.408 1_556 S
C91 C96 1.342 . S
C92 C93 1.310 . S
C92 C95 1.461 1_554 S
C92 H112 0.932 . S
C93 C91 1.408 1_554 S
C93 C92 1.310 . S
C93 H113 0.930 . S
C94 C95 1.475 1_565 S
C94 C96 1.284 1_565 S
C94 H114 0.930 . S
C95 C92 1.461 1_556 S
C95 C94 1.475 1_545 S
C96 C91 1.342 . S
C96 C94 1.284 1_545 S
C96 H115 0.929 . S
C97 C100 1.424 . S
C97 C102 1.245 . S
C97 C103 1.428 . S
C98 C101 1.260 . S
C98 C102 1.477 . S
C98 H116 0.932 . S
C99 C100 1.384 . S
C99 C101 1.479 . S
C99 H117 0.929 . S
C100 C97 1.424 . S
C100 C99 1.384 . S
C100 H118 0.928 . S
C101 C98 1.260 . S
C101 C99 1.479 . S
C102 C97 1.245 . S
C102 C98 1.477 . S
C102 H119 0.932 . S
C103 U86 2.882 1_556 S
C103 C97 1.428 . S
C103 O106 1.301 . S
C103 O107 1.282 . S
O104 U86 2.441 . S
O104 C90 1.249 . S
O105 U86 2.420 . S
O105 C90 1.202 . S
O106 U86 2.455 1_556 S
O106 C103 1.301 . S
O107 U86 2.449 1_556 S
O107 C103 1.282 . S
H108 C81 0.931 . S
H109 C83 0.929 . S
H110 C84 0.930 1_565 S
H111 C85 0.931 . S
H112 C92 0.932 . S
H113 C93 0.930 . S
H114 C94 0.930 . S
H115 C96 0.929 . S
H116 C98 0.932 . S
H117 C99 0.929 . S
H118 C100 0.928 . S
H119 C102 0.932 . S
C120 C121 1.264 . S
C120 C125 1.479 . S
C120 C130 1.465 . S
C121 C120 1.264 . S
C121 C123 1.339 . S
C121 H148 0.931 . S
C122 C123 1.395 . S
C122 C124 1.320 . S
C123 C121 1.339 . S
C123 C122 1.395 . S
C123 H149 0.929 . S
C124 C122 1.320 . S
C124 C125 1.405 . S
C124 H150 0.930 . S
C125 C120 1.479 . S
C125 C124 1.405 . S
C125 H151 0.931 . S
U126 O127 2.454 . S
U126 O128 2.458 1_554 S
U126 C129 2.984 . S
U126 C130 2.847 . S
U126 C143 2.882 1_554 S
U126 O144 2.441 . S
U126 O145 2.420 . S
U126 O146 2.455 1_554 S
U126 O147 2.449 . S
O127 U126 2.454 . S
O127 C129 1.353 . S
O128 U126 2.458 1_556 S
O128 C129 1.286 1_556 S
C129 U126 2.984 . S
C129 O127 1.353 . S
C129 O128 1.286 1_554 S
C129 C131 1.363 . S
C130 C120 1.465 . S
C130 U126 2.847 . S
C130 O144 1.249 . S
C130 O145 1.202 . S
C131 C129 1.363 . S
C131 C133 1.408 . S
C131 C136 1.342 1_554 S
C132 C133 1.310 . S
C132 C135 1.461 1_554 S
C132 H152 0.932 . S
C133 C131 1.408 . S
C133 C132 1.310 . S
C133 H153 0.930 . S
C134 C135 1.474 . S
C134 C136 1.285 . S
C134 H154 0.929 . S
C135 C132 1.461 1_556 S
C135 C134 1.474 . S
C136 C131 1.342 1_556 S
C136 C134 1.285 . S
C136 H155 0.930 . S
C137 C140 1.424 . S
C137 C142 1.245 . S
C137 C143 1.428 . S
C138 C141 1.260 . S
C138 C142 1.477 . S
C138 H156 0.932 . S
C139 C140 1.384 . S
C139 C141 1.479 . S
C139 H157 0.929 . S
C140 C137 1.424 . S
C140 C139 1.384 . S
C140 H158 0.928 . S
C141 C138 1.260 . S
C141 C139 1.479 . S
C142 C137 1.245 . S
C142 C138 1.477 . S
C142 H159 0.932 . S
C143 U126 2.882 1_556 S
C143 C137 1.428 . S
C143 O146 1.301 . S
C143 O147 1.282 1_556 S
O144 U126 2.441 . S
O144 C130 1.249 . S
O145 U126 2.420 . S
O145 C130 1.202 . S
O146 U126 2.455 1_556 S
O146 C143 1.301 . S
O147 U126 2.449 . S
O147 C143 1.282 1_554 S
H148 C121 0.931 . S
H149 C123 0.929 . S
H150 C124 0.930 . S
H151 C125 0.931 . S
H152 C132 0.932 . S
H153 C133 0.930 . S
H154 C134 0.929 . S
H155 C136 0.930 . S
H156 C138 0.932 . S
H157 C139 0.929 . S
H158 C140 0.928 . S
H159 C142 0.932 . S
C160 C161 1.264 . S
C160 C165 1.479 . S
C160 C170 1.465 . S
C161 C160 1.264 . S
C161 C163 1.339 . S
C161 H188 0.931 . S
C162 C163 1.395 . S
C162 C164 1.320 . S
C163 C161 1.339 . S
C163 C162 1.395 . S
C163 H189 0.929 . S
C164 C162 1.320 . S
C164 C165 1.405 . S
C164 H190 0.930 . S
C165 C160 1.479 . S
C165 C164 1.405 . S
C165 H191 0.931 . S
U166 O167 2.454 . S
U166 O168 2.458 . S
U166 C169 2.984 . S
U166 C170 2.847 1_554 S
U166 C183 2.882 . S
U166 O184 2.441 1_554 S
U166 O185 2.420 1_554 S
U166 O186 2.455 . S
U166 O187 2.449 . S
O167 U166 2.454 . S
O167 C169 1.353 . S
O168 U166 2.458 . S
O168 C169 1.286 . S
C169 U166 2.984 . S
C169 O167 1.353 . S
C169 O168 1.286 . S
C169 C171 1.363 . S
C170 C160 1.465 . S
C170 U166 2.847 1_556 S
C170 O184 1.249 . S
C170 O185 1.202 . S
C171 C169 1.363 . S
C171 C173 1.408 . S
C171 C176 1.342 . S
C172 C173 1.310 . S
C172 C175 1.461 . S
C172 H192 0.932 . S
C173 C171 1.408 . S
C173 C172 1.310 . S
C173 H193 0.930 . S
C174 C175 1.474 . S
C174 C176 1.285 . S
C174 H194 0.929 . S
C175 C172 1.461 . S
C175 C174 1.474 . S
C176 C171 1.342 . S
C176 C174 1.285 . S
C176 H195 0.930 . S
C177 C180 1.424 . S
C177 C182 1.245 . S
C177 C183 1.428 . S
C178 C181 1.260 . S
C178 C182 1.477 . S
C178 H196 0.932 . S
C179 C180 1.384 . S
C179 C181 1.479 . S
C179 H197 0.929 . S
C180 C177 1.424 . S
C180 C179 1.384 . S
C180 H198 0.928 . S
C181 C178 1.260 . S
C181 C179 1.479 . S
C182 C177 1.245 . S
C182 C178 1.477 . S
C182 H199 0.932 . S
C183 U166 2.882 . S
C183 C177 1.428 . S
C183 O186 1.301 . S
C183 O187 1.282 . S
O184 U166 2.441 1_556 S
O184 C170 1.249 . S
O185 U166 2.420 1_556 S
O185 C170 1.202 . S
O186 U166 2.455 . S
O186 C183 1.301 . S
O187 U166 2.449 . S
O187 C183 1.282 . S
H188 C161 0.931 . S
H189 C163 0.929 . S
H190 C164 0.930 . S
H191 C165 0.931 . S
H192 C172 0.932 . S
H193 C173 0.930 . S
H194 C174 0.929 . S
H195 C176 0.930 . S
H196 C178 0.932 . S
H197 C179 0.929 . S
H198 C180 0.928 . S
H199 C182 0.932 . S
C200 C201 1.264 . S
C200 C205 1.479 . S
C200 C210 1.465 . S
C201 C200 1.264 . S
C201 C203 1.339 . S
C201 H228 0.931 . S
C202 C203 1.395 . S
C202 C204 1.320 . S
C203 C201 1.339 . S
C203 C202 1.395 . S
C203 H229 0.929 . S
C204 C202 1.320 . S
C204 C205 1.405 . S
C204 H230 0.930 . S
C205 C200 1.479 . S
C205 C204 1.405 . S
C205 H231 0.931 . S
U206 O207 2.454 . S
U206 O208 2.458 . S
U206 C209 2.984 . S
U206 C210 2.847 1_554 S
U206 C223 2.882 . S
U206 O224 2.441 1_554 S
U206 O225 2.420 1_554 S
U206 O226 2.455 . S
U206 O227 2.449 . S
O207 U206 2.454 . S
O207 C209 1.353 . S
O208 U206 2.458 . S
O208 C209 1.286 . S
C209 U206 2.984 . S
C209 O207 1.353 . S
C209 O208 1.286 . S
C209 C211 1.363 . S
C210 C200 1.465 . S
C210 U206 2.847 1_556 S
C210 O224 1.249 . S
C210 O225 1.202 . S
C211 C209 1.363 . S
C211 C213 1.408 . S
C211 C216 1.342 . S
C212 C213 1.310 . S
C212 C215 1.461 . S
C212 H232 0.932 . S
C213 C211 1.408 . S
C213 C212 1.310 . S
C213 H233 0.930 . S
C214 C215 1.474 . S
C214 C216 1.285 . S
C214 H234 0.929 . S
C215 C212 1.461 . S
C215 C214 1.474 . S
C216 C211 1.342 . S
C216 C214 1.285 . S
C216 H235 0.930 . S
C217 C220 1.424 . S
C217 C222 1.245 . S
C217 C223 1.428 . S
C218 C221 1.260 . S
C218 C222 1.477 . S
C218 H236 0.932 . S
C219 C220 1.384 . S
C219 C221 1.479 . S
C219 H237 0.929 . S
C220 C217 1.424 . S
C220 C219 1.384 . S
C220 H238 0.928 . S
C221 C218 1.260 . S
C221 C219 1.479 . S
C222 C217 1.245 . S
C222 C218 1.477 . S
C222 H239 0.932 . S
C223 U206 2.882 . S
C223 C217 1.428 . S
C223 O226 1.301 . S
C223 O227 1.282 . S
O224 U206 2.441 1_556 S
O224 C210 1.249 . S
O225 U206 2.420 1_556 S
O225 C210 1.202 . S
O226 U206 2.455 . S
O226 C223 1.301 . S
O227 U206 2.449 . S
O227 C223 1.282 . S
H228 C201 0.931 . S
H229 C203 0.929 . S
H230 C204 0.930 . S
H231 C205 0.931 . S
H232 C212 0.932 . S
H233 C213 0.930 . S
H234 C214 0.929 . S
H235 C216 0.930 . S
H236 C218 0.932 . S
H237 C219 0.929 . S
H238 C220 0.928 . S
H239 C222 0.932 . S
C240 C241 1.264 . S
C240 C245 1.479 . S
C240 C250 1.465 . S
C241 C240 1.264 . S
C241 C243 1.339 . S
C241 H268 0.931 . S
C242 C243 1.395 . S
C242 C244 1.320 . S
C243 C241 1.339 . S
C243 C242 1.395 . S
C243 H269 0.929 . S
C244 C242 1.320 . S
C244 C245 1.405 . S
C244 H270 0.926 1_545 S
C245 C240 1.479 . S
C245 C244 1.405 . S
C245 H271 0.931 . S
U246 O247 2.454 . S
U246 O248 2.458 . S
U246 C249 2.984 . S
U246 C250 2.847 1_554 S
U246 C263 2.882 . S
U246 O264 2.441 1_554 S
U246 O265 2.420 1_554 S
U246 O266 2.455 . S
U246 O267 2.449 . S
O247 U246 2.454 . S
O247 C249 1.353 . S
O248 U246 2.458 . S
O248 C249 1.286 . S
C249 U246 2.984 . S
C249 O247 1.353 . S
C249 O248 1.286 . S
C249 C251 1.363 . S
C250 C240 1.465 . S
C250 U246 2.847 1_556 S
C250 O264 1.249 . S
C250 O265 1.202 . S
C251 C249 1.363 . S
C251 C253 1.408 . S
C251 C256 1.342 . S
C252 C253 1.310 . S
C252 C255 1.462 . S
C252 H272 0.932 . S
C253 C251 1.408 . S
C253 C252 1.310 . S
C253 H273 0.930 . S
C254 C255 1.472 1_565 S
C254 C256 1.285 1_565 S
C254 H274 0.929 . S
C255 C252 1.462 . S
C255 C254 1.472 1_545 S
C256 C251 1.342 . S
C256 C254 1.285 1_545 S
C256 H275 0.930 . S
C257 C260 1.424 . S
C257 C262 1.245 . S
C257 C263 1.428 . S
C258 C261 1.260 . S
C258 C262 1.477 . S
C258 H276 0.932 . S
C259 C260 1.384 . S
C259 C261 1.479 . S
C259 H277 0.929 . S
C260 C257 1.424 . S
C260 C259 1.384 . S
C260 H278 0.928 . S
C261 C258 1.260 . S
C261 C259 1.479 . S
C262 C257 1.245 . S
C262 C258 1.477 . S
C262 H279 0.932 . S
C263 U246 2.882 . S
C263 C257 1.428 . S
C263 O266 1.301 . S
C263 O267 1.282 . S
O264 U246 2.441 1_556 S
O264 C250 1.249 . S
O265 U246 2.420 1_556 S
O265 C250 1.202 . S
O266 U246 2.455 . S
O266 C263 1.301 . S
O267 U246 2.449 . S
O267 C263 1.282 . S
H268 C241 0.931 . S
H269 C243 0.929 . S
H270 C244 0.926 1_565 S
H271 C245 0.931 . S
H272 C252 0.932 . S
H273 C253 0.930 . S
H274 C254 0.929 . S
H275 C256 0.930 . S
H276 C258 0.932 . S
H277 C259 0.929 . S
H278 C260 0.928 . S
H279 C262 0.932 . S
C280 C281 1.264 . S
C280 C285 1.479 . S
C280 C290 1.465 . S
C281 C280 1.264 . S
C281 C283 1.339 . S
C281 H308 0.931 . S
C282 C283 1.395 . S
C282 C284 1.320 . S
C283 C281 1.339 . S
C283 C282 1.395 . S
C283 H309 0.929 . S
C284 C282 1.320 . S
C284 C285 1.405 . S
C284 H310 0.930 . S
C285 C280 1.479 . S
C285 C284 1.405 . S
C285 H311 0.931 . S
U286 O287 2.454 . S
U286 O288 2.458 . S
U286 C289 2.984 . S
U286 C290 2.847 1_554 S
U286 C303 2.882 . S
U286 O304 2.441 1_554 S
U286 O305 2.420 1_554 S
U286 O306 2.455 . S
U286 O307 2.449 . S
O287 U286 2.454 . S
O287 C289 1.353 . S
O288 U286 2.458 . S
O288 C289 1.286 . S
C289 U286 2.984 . S
C289 O287 1.353 . S
C289 O288 1.286 . S
C289 C291 1.363 . S
C290 C280 1.465 . S
C290 U286 2.847 1_556 S
C290 O304 1.249 . S
C290 O305 1.202 . S
C291 C289 1.363 . S
C291 C293 1.408 . S
C291 C296 1.342 . S
C292 C293 1.310 . S
C292 C295 1.461 . S
C292 H312 0.932 . S
C293 C291 1.408 . S
C293 C292 1.310 . S
C293 H313 0.930 1_554 S
C294 C295 1.474 . S
C294 C296 1.285 . S
C294 H314 0.929 . S
C295 C292 1.461 . S
C295 C294 1.474 . S
C296 C291 1.342 . S
C296 C294 1.285 . S
C296 H315 0.930 . S
C297 C300 1.424 . S
C297 C302 1.245 . S
C297 C303 1.428 . S
C298 C301 1.260 . S
C298 C302 1.477 . S
C298 H316 0.932 . S
C299 C300 1.384 . S
C299 C301 1.479 . S
C299 H317 0.929 . S
C300 C297 1.424 . S
C300 C299 1.384 . S
C300 H318 0.928 . S
C301 C298 1.260 . S
C301 C299 1.479 . S
C302 C297 1.245 . S
C302 C298 1.477 . S
C302 H319 0.932 . S
C303 U286 2.882 . S
C303 C297 1.428 . S
C303 O306 1.301 . S
C303 O307 1.282 . S
O304 U286 2.441 1_556 S
O304 C290 1.249 . S
O305 U286 2.420 1_556 S
O305 C290 1.202 . S
O306 U286 2.455 . S
O306 C303 1.301 . S
O307 U286 2.449 . S
O307 C303 1.282 . S
H308 C281 0.931 . S
H309 C283 0.929 . S
H310 C284 0.930 . S
H311 C285 0.931 . S
H312 C292 0.932 . S
H313 C293 0.930 1_556 S
H314 C294 0.929 . S
H315 C296 0.930 . S
H316 C298 0.932 . S
H317 C299 0.929 . S
H318 C300 0.928 . S
H319 C302 0.932 . S
Dy320 O324 2.398 . S
Dy320 O325 2.491 1_455 S
Dy320 O326 2.403 . S
Dy320 O327 2.664 1_565 S
Dy320 O331 2.326 . S
Dy320 O335 2.310 1_455 S
Dy320 O336 2.351 1_565 S
C321 O332 1.185 1_455 S
C321 O333 1.355 . S
C322 O324 1.185 . S
C322 O325 1.355 1_455 S
Dy323 O327 2.310 1_655 S
Dy323 O330 2.351 1_545 S
Dy323 O332 2.398 . S
Dy323 O333 2.491 1_655 S
Dy323 O334 2.403 . S
Dy323 O335 2.664 1_545 S
Dy323 O337 2.326 1_655 S
O324 Dy320 2.398 . S
O324 C322 1.185 . S
O325 Dy320 2.491 1_655 S
O325 C322 1.355 1_655 S
O326 Dy320 2.403 . S
O326 C328 1.254 . S
O327 Dy320 2.664 1_545 S
O327 Dy323 2.310 1_455 S
O327 C328 1.268 1_545 S
C328 O326 1.254 . S
C328 O327 1.268 1_565 S
C329 O334 1.254 . S
C329 O335 1.268 1_545 S
O330 Dy323 2.351 1_565 S
O330 C338 1.249 . S
O331 Dy320 2.326 . S
O331 C338 1.267 1_455 S
O332 C321 1.185 1_655 S
O332 Dy323 2.398 . S
O333 C321 1.355 . S
O333 Dy323 2.491 1_455 S
O334 Dy323 2.403 . S
O334 C329 1.254 . S
O335 Dy320 2.310 1_655 S
O335 Dy323 2.664 1_565 S
O335 C329 1.268 1_565 S
O336 Dy320 2.351 1_545 S
O336 C339 1.249 . S
O337 Dy323 2.326 1_455 S
O337 C339 1.267 . S
C338 O330 1.249 . S
C338 O331 1.267 1_655 S
C339 O336 1.249 . S
C339 O337 1.267 . S
Dy340 O344 2.398 . S
Dy340 O345 2.491 . S
Dy340 O346 2.403 . S
Dy340 O347 2.664 . S
Dy340 O351 2.326 1_565 S
Dy340 O355 2.310 1_565 S
Dy340 O356 2.351 . S
C341 O352 1.185 . S
C341 O353 1.355 . S
C342 O344 1.185 . S
C342 O345 1.355 . S
Dy343 O347 2.310 1_545 S
Dy343 O350 2.351 . S
Dy343 O352 2.398 . S
Dy343 O353 2.491 . S
Dy343 O354 2.403 . S
Dy343 O355 2.664 . S
Dy343 O357 2.326 1_545 S
O344 Dy340 2.398 . S
O344 C342 1.185 . S
O345 Dy340 2.491 . S
O345 C342 1.355 . S
O346 Dy340 2.403 . S
O346 C348 1.254 . S
O347 Dy340 2.664 . S
O347 Dy343 2.310 1_565 S
O347 C348 1.268 . S
C348 O346 1.254 . S
C348 O347 1.268 . S
C349 O354 1.254 . S
C349 O355 1.268 . S
O350 Dy343 2.351 . S
O350 C358 1.249 . S
O351 Dy340 2.326 1_545 S
O351 C358 1.267 . S
O352 C341 1.185 . S
O352 Dy343 2.398 . S
O353 C341 1.355 . S
O353 Dy343 2.491 . S
O354 Dy343 2.403 . S
O354 C349 1.254 . S
O355 Dy340 2.310 1_545 S
O355 Dy343 2.664 . S
O355 C349 1.268 . S
O356 Dy340 2.351 . S
O356 C359 1.249 . S
O357 Dy343 2.326 1_565 S
O357 C359 1.267 . S
C358 O350 1.249 . S
C358 O351 1.267 . S
C359 O356 1.249 . S
C359 O357 1.267 . S
Dy360 O364 2.398 . S
Dy360 O365 2.491 . S
Dy360 O366 2.403 . S
Dy360 O367 2.664 . S
Dy360 O371 2.326 . S
Dy360 O375 2.310 . S
Dy360 O376 2.351 . S
C361 O372 1.185 . S
C361 O373 1.355 . S
C362 O364 1.185 . S
C362 O365 1.355 . S
Dy363 O367 2.310 . S
Dy363 O370 2.351 . S
Dy363 O372 2.398 . S
Dy363 O373 2.491 . S
Dy363 O374 2.403 . S
Dy363 O375 2.664 . S
Dy363 O377 2.326 . S
O364 Dy360 2.398 . S
O364 C362 1.185 . S
O365 Dy360 2.491 . S
O365 C362 1.355 . S
O366 Dy360 2.403 . S
O366 C368 1.254 . S
O367 Dy360 2.664 . S
O367 Dy363 2.310 . S
O367 C368 1.268 . S
C368 O366 1.254 . S
C368 O367 1.268 . S
C369 O374 1.254 . S
C369 O375 1.268 . S
O370 Dy363 2.351 . S
O370 C378 1.249 . S
O371 Dy360 2.326 . S
O371 C378 1.267 . S
O372 C361 1.185 . S
O372 Dy363 2.398 . S
O373 C361 1.355 . S
O373 Dy363 2.491 . S
O374 Dy363 2.403 . S
O374 C369 1.254 . S
O375 Dy360 2.310 . S
O375 Dy363 2.664 . S
O375 C369 1.268 . S
O376 Dy360 2.351 . S
O376 C379 1.249 . S
O377 Dy363 2.326 . S
O377 C379 1.267 . S
C378 O370 1.249 . S
C378 O371 1.267 . S
C379 O376 1.249 . S
C379 O377 1.267 . S
Dy380 O384 2.398 . S
Dy380 O385 2.491 . S
Dy380 O386 2.403 1_655 S
Dy380 O387 2.664 1_655 S
Dy380 O391 2.326 . S
Dy380 O395 2.310 . S
Dy380 O396 2.351 1_655 S
C381 O392 1.185 . S
C381 O393 1.355 . S
C382 O384 1.185 . S
C382 O385 1.355 . S
Dy383 O387 2.310 . S
Dy383 O390 2.351 1_455 S
Dy383 O392 2.398 . S
Dy383 O393 2.491 . S
Dy383 O394 2.403 . S
Dy383 O395 2.664 1_455 S
Dy383 O397 2.326 . S
O384 Dy380 2.398 . S
O384 C382 1.185 . S
O385 Dy380 2.491 . S
O385 C382 1.355 . S
O386 Dy380 2.403 1_455 S
O386 C388 1.254 . S
O387 Dy380 2.664 1_455 S
O387 Dy383 2.310 . S
O387 C388 1.268 . S
C388 O386 1.254 . S
C388 O387 1.268 . S
C389 O394 1.254 1_655 S
C389 O395 1.268 . S
O390 Dy383 2.351 1_655 S
O390 C398 1.249 . S
O391 Dy380 2.326 . S
O391 C398 1.267 . S
O392 C381 1.185 . S
O392 Dy383 2.398 . S
O393 C381 1.355 . S
O393 Dy383 2.491 . S
O394 Dy383 2.403 . S
O394 C389 1.254 1_455 S
O395 Dy380 2.310 . S
O395 Dy383 2.664 1_655 S
O395 C389 1.268 . S
O396 Dy380 2.351 1_455 S
O396 C399 1.249 . S
O397 Dy383 2.326 . S
O397 C399 1.267 . S
C398 O390 1.249 . S
C398 O391 1.267 . S
C399 O396 1.249 . S
C399 O397 1.267 . S
C400 C401 1.425 . S
C400 H404 0.950 . S
C400 C409 1.390 . S
C401 C400 1.425 . S
C401 C403 1.351 1_565 S
H402 C409 0.950 . S
C403 C401 1.351 1_545 S
C403 C405 1.390 . S
C403 H407 0.950 . S
H404 C400 0.950 . S
C405 C403 1.390 . S
C405 C406 1.387 1_545 S
C405 H408 0.950 . S
C406 C405 1.387 1_565 S
C406 C409 1.387 . S
H407 C403 0.950 . S
H408 C405 0.950 . S
C409 C400 1.390 . S
C409 H402 0.950 . S
C409 C406 1.387 . S
C410 C411 1.387 . S
C410 H414 0.950 . S
C410 C419 1.390 . S
C411 C410 1.387 . S
C411 C413 1.387 . S
H412 C419 0.950 . S
C413 C411 1.387 . S
C413 C415 1.390 . S
C413 H417 0.950 . S
H414 C410 0.950 . S
C415 C413 1.390 . S
C415 C416 1.387 . S
C415 H418 0.950 . S
C416 C415 1.387 . S
C416 C419 1.387 . S
H417 C413 0.950 . S
H418 C415 0.950 . S
C419 C410 1.390 . S
C419 H412 0.950 . S
C419 C416 1.387 . S
C420 C421 1.387 . S
C420 H424 0.950 . S
C420 C429 1.390 . S
C421 C420 1.387 . S
C421 C423 1.387 . S
H422 C429 0.950 . S
C423 C421 1.387 . S
C423 C425 1.390 . S
C423 H427 0.950 . S
H424 C420 0.950 . S
C425 C423 1.390 . S
C425 C426 1.387 . S
C425 H428 0.950 . S
C426 C425 1.387 . S
C426 C429 1.387 . S
H427 C423 0.950 . S
H428 C425 0.950 . S
C429 C420 1.390 . S
C429 H422 0.950 . S
C429 C426 1.387 . S
C430 C431 1.387 . S
C430 H434 0.950 . S
C430 C439 1.390 . S
C431 C430 1.387 . S
C431 C433 1.387 . S
H432 C439 0.950 . S
C433 C431 1.387 . S
C433 C435 1.390 . S
C433 H437 0.950 . S
H434 C430 0.950 . S
C435 C433 1.390 . S
C435 C436 1.387 . S
C435 H438 0.950 . S
C436 C435 1.387 . S
C436 C439 1.387 . S
H437 C433 0.950 . S
H438 C435 0.950 . S
C439 C430 1.390 . S
C439 H432 0.950 . S
C439 C436 1.387 . S
C440 C441 1.387 1_565 S
C440 H444 0.950 . S
C440 C449 1.390 . S
C441 C440 1.387 1_545 S
C441 C443 1.387 . S
H442 C449 0.950 . S
C443 C441 1.387 . S
C443 C445 1.390 . S
C443 H447 0.950 . S
H444 C440 0.950 . S
C445 C443 1.390 . S
C445 C446 1.387 . S
C445 H448 0.950 . S
C446 C445 1.387 . S
C446 C449 1.387 1_545 S
H447 C443 0.950 . S
H448 C445 0.950 . S
C449 C440 1.390 . S
C449 H442 0.950 . S
C449 C446 1.387 1_565 S
C450 C451 1.387 . S
C450 H454 0.950 . S
C450 C459 1.390 . S
C451 C450 1.387 . S
C451 C453 1.387 . S
H452 C459 0.950 . S
C453 C451 1.387 . S
C453 C455 1.390 . S
C453 H457 0.950 . S
H454 C450 0.950 . S
C455 C453 1.390 . S
C455 C456 1.387 . S
C455 H458 0.950 . S
C456 C455 1.387 . S
C456 C459 1.387 . S
H457 C453 0.950 . S
H458 C455 0.950 . S
C459 C450 1.390 . S
C459 H452 0.950 . S
C459 C456 1.387 . S
C460 C461 1.387 . S
C460 H464 0.950 . S
C460 C469 1.390 . S
C461 C460 1.387 . S
C461 C463 1.387 . S
H462 C469 0.950 . S
C463 C461 1.387 . S
C463 C465 1.390 . S
C463 H467 0.950 . S
H464 C460 0.950 . S
C465 C463 1.390 . S
C465 C466 1.387 . S
C465 H468 0.950 . S
C466 C465 1.387 . S
C466 C469 1.387 . S
H467 C463 0.950 . S
H468 C465 0.950 . S
C469 C460 1.390 . S
C469 H462 0.950 . S
C469 C466 1.387 . S
C470 C471 1.387 . S
C470 H474 0.950 . S
C470 C479 1.390 . S
C471 C470 1.387 . S
C471 C473 1.387 . S
H472 C479 0.950 . S
C473 C471 1.387 . S
C473 C475 1.390 . S
C473 H477 0.950 . S
H474 C470 0.950 . S
C475 C473 1.390 . S
C475 C476 1.387 . S
C475 H478 0.950 . S
C476 C475 1.387 . S
C476 C479 1.387 . S
H477 C473 0.950 . S
H478 C475 0.950 . S
C479 C470 1.390 . S
C479 H472 0.950 . S
C479 C476 1.387 . S
C480 C481 1.387 . S
C480 H484 0.950 . S
C480 C489 1.390 . S
C481 C480 1.387 . S
C481 C483 1.387 . S
H482 C489 0.950 . S
C483 C481 1.387 . S
C483 C485 1.390 . S
C483 H487 0.950 . S
H484 C480 0.950 . S
C485 C483 1.390 . S
C485 C486 1.387 . S
C485 H488 0.950 . S
C486 C485 1.387 . S
C486 C489 1.387 . S
H487 C483 0.950 . S
H488 C485 0.950 . S
C489 C480 1.390 . S
C489 H482 0.950 . S
C489 C486 1.387 . S
C490 C491 1.388 . S
C490 H494 0.950 . S
C490 C499 1.390 . S
C491 C490 1.388 . S
C491 C493 1.387 1_545 S
H492 C499 0.950 . S
C493 C491 1.387 1_565 S
C493 C495 1.390 . S
C493 H497 0.950 . S
H494 C490 0.950 . S
C495 C493 1.390 . S
C495 C496 1.387 . S
C495 H498 0.950 . S
C496 C495 1.387 . S
C496 C499 1.387 1_565 S
H497 C493 0.950 . S
H498 C495 0.950 . S
C499 C490 1.390 . S
C499 H492 0.950 . S
C499 C496 1.387 1_545 S
C500 C501 1.387 . S
C500 H504 0.950 . S
C500 C509 1.390 . S
C501 C500 1.387 . S
C501 C503 1.387 . S
H502 C509 0.950 . S
C503 C501 1.387 . S
C503 C505 1.390 . S
C503 H507 0.950 . S
H504 C500 0.950 . S
C505 C503 1.390 . S
C505 C506 1.387 . S
C505 H508 0.950 . S
C506 C505 1.387 . S
C506 C509 1.387 . S
H507 C503 0.950 . S
H508 C505 0.950 . S
C509 C500 1.390 . S
C509 H502 0.950 . S
C509 C506 1.387 . S
C510 C511 1.387 . S
C510 H514 0.950 . S
C510 C519 1.390 . S
C511 C510 1.387 . S
C511 C513 1.387 . S
H512 C519 0.950 . S
C513 C511 1.387 . S
C513 C515 1.390 . S
C513 H517 0.950 . S
H514 C510 0.950 . S
C515 C513 1.390 . S
C515 C516 1.387 . S
C515 H518 0.950 . S
C516 C515 1.387 . S
C516 C519 1.387 . S
H517 C513 0.950 . S
H518 C515 0.950 . S
C519 C510 1.390 . S
C519 H512 0.950 . S
C519 C516 1.387 . S
C520 C521 1.387 . S
C520 H524 0.950 . S
C520 C529 1.390 . S
C521 C520 1.387 . S
C521 C523 1.387 . S
H522 C529 0.950 . S
C523 C521 1.387 . S
C523 C525 1.390 . S
C523 H527 0.950 . S
H524 C520 0.950 . S
C525 C523 1.390 . S
C525 C526 1.387 . S
C525 H528 0.950 . S
C526 C525 1.387 . S
C526 C529 1.387 . S
H527 C523 0.950 . S
H528 C525 0.950 . S
C529 C520 1.390 . S
C529 H522 0.950 . S
C529 C526 1.387 . S
C530 C531 1.392 . S
C530 H534 0.950 . S
C530 C539 1.390 . S
C531 C530 1.392 . S
C531 C533 1.385 1_545 S
H532 C539 0.950 . S
C533 C531 1.385 1_565 S
C533 C535 1.390 . S
C533 H537 0.950 . S
H534 C530 0.950 . S
C535 C533 1.390 . S
C535 C536 1.387 1_565 S
C535 H538 0.950 . S
C536 C535 1.387 1_545 S
C536 C539 1.387 . S
H537 C533 0.950 . S
H538 C535 0.950 . S
C539 C530 1.390 . S
C539 H532 0.950 . S
C539 C536 1.387 . S
C540 C541 1.387 . S
C540 H544 0.950 . S
C540 C549 1.390 . S
C541 C540 1.387 . S
C541 C543 1.387 . S
H542 C549 0.950 . S
C543 C541 1.387 . S
C543 C545 1.390 . S
C543 H547 0.950 . S
H544 C540 0.950 . S
C545 C543 1.390 . S
C545 C546 1.387 . S
C545 H548 0.950 . S
C546 C545 1.387 . S
C546 C549 1.387 . S
H547 C543 0.950 . S
H548 C545 0.950 . S
C549 C540 1.390 . S
C549 H542 0.950 . S
C549 C546 1.387 . S
C550 C551 1.387 . S
C550 H554 0.950 . S
C550 C559 1.390 . S
C551 C550 1.387 . S
C551 C553 1.387 . S
H552 C559 0.950 . S
C553 C551 1.387 . S
C553 C555 1.390 . S
C553 H557 0.950 . S
H554 C550 0.950 . S
C555 C553 1.390 . S
C555 C556 1.387 . S
C555 H558 0.950 . S
C556 C555 1.387 . S
C556 C559 1.387 . S
H557 C553 0.950 . S
H558 C555 0.950 . S
C559 C550 1.390 . S
C559 H552 0.950 . S
C559 C556 1.387 . S
C560 C561 1.387 . S
C560 H564 0.950 . S
C560 C569 1.390 . S
C561 C560 1.387 . S
C561 C563 1.387 . S
H562 C569 0.950 . S
C563 C561 1.387 . S
C563 C565 1.390 . S
C563 H567 0.950 . S
H564 C560 0.950 . S
C565 C563 1.390 . S
C565 C566 1.387 . S
C565 H568 0.950 . S
C566 C565 1.387 . S
C566 C569 1.387 . S
H567 C563 0.950 . S
H568 C565 0.950 . S
C569 C560 1.390 . S
C569 H562 0.950 . S
C569 C566 1.387 . S
C570 C571 1.387 . S
C570 H574 0.950 . S
C570 C579 1.390 . S
C571 C570 1.387 . S
C571 C573 1.387 1_545 S
H572 C579 0.950 . S
C573 C571 1.387 1_565 S
C573 C575 1.390 . S
C573 H577 0.950 . S
H574 C570 0.950 . S
C575 C573 1.390 . S
C575 C576 1.387 1_565 S
C575 H578 0.950 . S
C576 C575 1.387 1_545 S
C576 C579 1.387 . S
H577 C573 0.950 . S
H578 C575 0.950 . S
C579 C570 1.390 . S
C579 H572 0.950 . S
C579 C576 1.387 . S
C580 C581 1.387 . S
C580 H584 0.950 . S
C580 C589 1.390 . S
C581 C580 1.387 . S
C581 C583 1.387 . S
H582 C589 0.950 . S
C583 C581 1.387 . S
C583 C585 1.390 . S
C583 H587 0.950 . S
H584 C580 0.950 . S
C585 C583 1.390 . S
C585 C586 1.387 . S
C585 H588 0.950 . S
C586 C585 1.387 . S
C586 C589 1.387 . S
H587 C583 0.950 . S
H588 C585 0.950 . S
C589 C580 1.390 . S
C589 H582 0.950 . S
C589 C586 1.387 . S
C590 C591 1.387 . S
C590 H594 0.950 . S
C590 C599 1.390 . S
C591 C590 1.387 . S
C591 C593 1.387 . S
H592 C599 0.950 . S
C593 C591 1.387 . S
C593 C595 1.390 . S
C593 H597 0.950 . S
H594 C590 0.950 . S
C595 C593 1.390 . S
C595 C596 1.387 . S
C595 H598 0.950 . S
C596 C595 1.387 . S
C596 C599 1.387 . S
H597 C593 0.950 . S
H598 C595 0.950 . S
C599 C590 1.390 . S
C599 H592 0.950 . S
C599 C596 1.387 . S
C600 C601 1.387 . S
C600 H604 0.950 . S
C600 C609 1.390 . S
C601 C600 1.387 . S
C601 C603 1.387 . S
H602 C609 0.950 . S
C603 C601 1.387 . S
C603 C605 1.390 . S
C603 H607 0.950 . S
H604 C600 0.950 . S
C605 C603 1.390 . S
C605 C606 1.387 . S
C605 H608 0.950 . S
C606 C605 1.387 . S
C606 C609 1.387 . S
H607 C603 0.950 . S
H608 C605 0.950 . S
C609 C600 1.390 . S
C609 H602 0.950 . S
C609 C606 1.387 . S
C610 C611 1.387 1_545 S
C610 H614 0.950 . S
C610 C619 1.390 . S
C611 C610 1.387 1_565 S
C611 C613 1.387 . S
H612 C619 0.950 . S
C613 C611 1.387 . S
C613 C615 1.390 . S
C613 H617 0.950 . S
H614 C610 0.950 . S
C615 C613 1.390 . S
C615 C616 1.387 . S
C615 H618 0.950 . S
C616 C615 1.387 . S
C616 C619 1.387 1_565 S
H617 C613 0.950 . S
H618 C615 0.950 . S
C619 C610 1.390 . S
C619 H612 0.950 . S
C619 C616 1.387 1_545 S
C620 C621 1.387 . S
C620 H624 0.950 . S
C620 C629 1.390 . S
C621 C620 1.387 . S
C621 C623 1.387 . S
H622 C629 0.950 . S
C623 C621 1.387 . S
C623 C625 1.390 . S
C623 H627 0.950 . S
H624 C620 0.950 . S
C625 C623 1.390 . S
C625 C626 1.387 . S
C625 H628 0.950 . S
C626 C625 1.387 . S
C626 C629 1.387 . S
H627 C623 0.950 . S
H628 C625 0.950 . S
C629 C620 1.390 . S
C629 H622 0.950 . S
C629 C626 1.387 . S
C630 C631 1.387 . S
C630 H634 0.950 . S
C630 C639 1.390 . S
C631 C630 1.387 . S
C631 C633 1.387 . S
H632 C639 0.950 . S
C633 C631 1.387 . S
C633 C635 1.390 . S
C633 H637 0.950 . S
H634 C630 0.950 . S
C635 C633 1.390 . S
C635 C636 1.387 . S
C635 H638 0.950 . S
C636 C635 1.387 . S
C636 C639 1.387 . S
H637 C633 0.950 . S
H638 C635 0.950 . S
C639 C630 1.390 . S
C639 H632 0.950 . S
C639 C636 1.387 . S
C401 C255 1.944 1_565 S
C406 C328 2.106 . S
C416 C358 2.708 . S
C411 C295 2.535 . S
C426 C368 2.250 . S
C421 C175 2.077 . S
C436 C388 2.206 . S
C431 C215 1.959 . S
C446 C329 2.105 . S
C441 C95 1.940 . S
C451 C135 2.523 . S
C456 C359 2.711 . S
C461 C15 2.083 . S
C466 C369 2.247 . S
C471 C55 1.949 . S
C476 C389 2.207 . S
C486 C321 1.324 . S
C481 C221 1.258 . S
C496 C342 0.751 . S
C491 C261 0.750 . S
C506 C361 1.573 . S
C501 C301 1.496 . S
C511 C181 0.838 . S
C516 C381 0.895 . S
C521 C61 1.086 . S
C526 C322 1.323 1_655 S
C536 C341 0.752 . S
C531 C101 0.748 . S
C546 C362 1.573 . S
C541 C141 1.288 . S
C551 C21 0.864 . S
C556 C382 0.897 . S
C561 C202 2.703 . S
C566 C339 2.948 . S
C571 C242 2.335 . S
C576 C349 2.665 . S
C586 C379 3.231 . S
C581 C282 2.949 . S
C596 C399 3.042 . S
C591 C162 2.711 . S
C601 C42 2.609 . S
C606 C338 2.956 . S
C616 C348 2.665 . S
C611 C82 2.347 1_565 S
C626 C378 3.230 . S
C621 C122 2.830 . S
C631 C2 2.826 . S
C636 C398 3.041 . S
