# Generated by pormake.
# Topology eea, (3,6)-cn, num edge types: 1
# Building blocks:
#     Node 0, Type 0, BuildingBlock: WUSLED_clean_sbu_0, # of connection points: 3
#     Node 1, Type 0, BuildingBlock: WUSLED_clean_sbu_0, # of connection points: 3
#     Node 2, Type 0, BuildingBlock: WUSLED_clean_sbu_0, # of connection points: 3
#     Node 3, Type 0, BuildingBlock: WUSLED_clean_sbu_0, # of connection points: 3
#     Node 4, Type 0, BuildingBlock: WUSLED_clean_sbu_0, # of connection points: 3
#     Node 5, Type 0, BuildingBlock: WUSLED_clean_sbu_0, # of connection points: 3
#     Node 6, Type 0, BuildingBlock: WUSLED_clean_sbu_0, # of connection points: 3
#     Node 7, Type 0, BuildingBlock: WUSLED_clean_sbu_0, # of connection points: 3
#     Node 8, Type 0, BuildingBlock: WUSLED_clean_sbu_0, # of connection points: 3
#     Node 9, Type 0, BuildingBlock: WUSLED_clean_sbu_0, # of connection points: 3
#     Node 10, Type 0, BuildingBlock: WUSLED_clean_sbu_0, # of connection points: 3
#     Node 11, Type 0, BuildingBlock: WUSLED_clean_sbu_0, # of connection points: 3
#     Node 12, Type 0, BuildingBlock: WUSLED_clean_sbu_0, # of connection points: 3
#     Node 13, Type 0, BuildingBlock: WUSLED_clean_sbu_0, # of connection points: 3
#     Node 14, Type 0, BuildingBlock: WUSLED_clean_sbu_0, # of connection points: 3
#     Node 15, Type 0, BuildingBlock: WUSLED_clean_sbu_0, # of connection points: 3
#     Node 16, Type 0, BuildingBlock: WUSLED_clean_sbu_0, # of connection points: 3
#     Node 17, Type 0, BuildingBlock: WUSLED_clean_sbu_0, # of connection points: 3
#     Node 18, Type 1, BuildingBlock: KUMBUR_clean_sbu_0, # of connection points: 6
#     Node 19, Type 1, BuildingBlock: KUMBUR_clean_sbu_0, # of connection points: 6
#     Node 20, Type 1, BuildingBlock: KUMBUR_clean_sbu_0, # of connection points: 6
#     Node 21, Type 1, BuildingBlock: KUMBUR_clean_sbu_0, # of connection points: 6
#     Node 22, Type 1, BuildingBlock: KUMBUR_clean_sbu_0, # of connection points: 6
#     Node 23, Type 1, BuildingBlock: KUMBUR_clean_sbu_0, # of connection points: 6
#     Node 24, Type 1, BuildingBlock: KUMBUR_clean_sbu_0, # of connection points: 6
#     Node 25, Type 1, BuildingBlock: KUMBUR_clean_sbu_0, # of connection points: 6
#     Node 26, Type 1, BuildingBlock: KUMBUR_clean_sbu_0, # of connection points: 6
#     Edge 27, Type (0, 1), BuildingBlock: KIFKEQ_clean_linker_1, # of connection points: 2
#     Edge 28, Type (0, 1), BuildingBlock: KIFKEQ_clean_linker_1, # of connection points: 2
#     Edge 29, Type (0, 1), BuildingBlock: KIFKEQ_clean_linker_1, # of connection points: 2
#     Edge 30, Type (0, 1), BuildingBlock: KIFKEQ_clean_linker_1, # of connection points: 2
#     Edge 31, Type (0, 1), BuildingBlock: KIFKEQ_clean_linker_1, # of connection points: 2
#     Edge 32, Type (0, 1), BuildingBlock: KIFKEQ_clean_linker_1, # of connection points: 2
#     Edge 33, Type (0, 1), BuildingBlock: KIFKEQ_clean_linker_1, # of connection points: 2
#     Edge 34, Type (0, 1), BuildingBlock: KIFKEQ_clean_linker_1, # of connection points: 2
#     Edge 35, Type (0, 1), BuildingBlock: KIFKEQ_clean_linker_1, # of connection points: 2
#     Edge 36, Type (0, 1), BuildingBlock: KIFKEQ_clean_linker_1, # of connection points: 2
#     Edge 37, Type (0, 1), BuildingBlock: KIFKEQ_clean_linker_1, # of connection points: 2
#     Edge 38, Type (0, 1), BuildingBlock: KIFKEQ_clean_linker_1, # of connection points: 2
#     Edge 39, Type (0, 1), BuildingBlock: KIFKEQ_clean_linker_1, # of connection points: 2
#     Edge 40, Type (0, 1), BuildingBlock: KIFKEQ_clean_linker_1, # of connection points: 2
#     Edge 41, Type (0, 1), BuildingBlock: KIFKEQ_clean_linker_1, # of connection points: 2
#     Edge 42, Type (0, 1), BuildingBlock: KIFKEQ_clean_linker_1, # of connection points: 2
#     Edge 43, Type (0, 1), BuildingBlock: KIFKEQ_clean_linker_1, # of connection points: 2
#     Edge 44, Type (0, 1), BuildingBlock: KIFKEQ_clean_linker_1, # of connection points: 2
#     Edge 45, Type (0, 1), BuildingBlock: KIFKEQ_clean_linker_1, # of connection points: 2
#     Edge 46, Type (0, 1), BuildingBlock: KIFKEQ_clean_linker_1, # of connection points: 2
#     Edge 47, Type (0, 1), BuildingBlock: KIFKEQ_clean_linker_1, # of connection points: 2
#     Edge 48, Type (0, 1), BuildingBlock: KIFKEQ_clean_linker_1, # of connection points: 2
#     Edge 49, Type (0, 1), BuildingBlock: KIFKEQ_clean_linker_1, # of connection points: 2
#     Edge 50, Type (0, 1), BuildingBlock: KIFKEQ_clean_linker_1, # of connection points: 2
#     Edge 51, Type (0, 1), BuildingBlock: KIFKEQ_clean_linker_1, # of connection points: 2
#     Edge 52, Type (0, 1), BuildingBlock: KIFKEQ_clean_linker_1, # of connection points: 2
#     Edge 53, Type (0, 1), BuildingBlock: KIFKEQ_clean_linker_1, # of connection points: 2
#     Edge 54, Type (0, 1), BuildingBlock: KIFKEQ_clean_linker_1, # of connection points: 2
#     Edge 55, Type (0, 1), BuildingBlock: KIFKEQ_clean_linker_1, # of connection points: 2
#     Edge 56, Type (0, 1), BuildingBlock: KIFKEQ_clean_linker_1, # of connection points: 2
#     Edge 57, Type (0, 1), BuildingBlock: KIFKEQ_clean_linker_1, # of connection points: 2
#     Edge 58, Type (0, 1), BuildingBlock: KIFKEQ_clean_linker_1, # of connection points: 2
#     Edge 59, Type (0, 1), BuildingBlock: KIFKEQ_clean_linker_1, # of connection points: 2
#     Edge 60, Type (0, 1), BuildingBlock: KIFKEQ_clean_linker_1, # of connection points: 2
#     Edge 61, Type (0, 1), BuildingBlock: KIFKEQ_clean_linker_1, # of connection points: 2
#     Edge 62, Type (0, 1), BuildingBlock: KIFKEQ_clean_linker_1, # of connection points: 2
#     Edge 63, Type (0, 1), BuildingBlock: KIFKEQ_clean_linker_1, # of connection points: 2
#     Edge 64, Type (0, 1), BuildingBlock: KIFKEQ_clean_linker_1, # of connection points: 2
#     Edge 65, Type (0, 1), BuildingBlock: KIFKEQ_clean_linker_1, # of connection points: 2
#     Edge 66, Type (0, 1), BuildingBlock: KIFKEQ_clean_linker_1, # of connection points: 2
#     Edge 67, Type (0, 1), BuildingBlock: KIFKEQ_clean_linker_1, # of connection points: 2
#     Edge 68, Type (0, 1), BuildingBlock: KIFKEQ_clean_linker_1, # of connection points: 2
#     Edge 69, Type (0, 1), BuildingBlock: KIFKEQ_clean_linker_1, # of connection points: 2
#     Edge 70, Type (0, 1), BuildingBlock: KIFKEQ_clean_linker_1, # of connection points: 2
#     Edge 71, Type (0, 1), BuildingBlock: KIFKEQ_clean_linker_1, # of connection points: 2
#     Edge 72, Type (0, 1), BuildingBlock: KIFKEQ_clean_linker_1, # of connection points: 2
#     Edge 73, Type (0, 1), BuildingBlock: KIFKEQ_clean_linker_1, # of connection points: 2
#     Edge 74, Type (0, 1), BuildingBlock: KIFKEQ_clean_linker_1, # of connection points: 2
#     Edge 75, Type (0, 1), BuildingBlock: KIFKEQ_clean_linker_1, # of connection points: 2
#     Edge 76, Type (0, 1), BuildingBlock: KIFKEQ_clean_linker_1, # of connection points: 2
#     Edge 77, Type (0, 1), BuildingBlock: KIFKEQ_clean_linker_1, # of connection points: 2
#     Edge 78, Type (0, 1), BuildingBlock: KIFKEQ_clean_linker_1, # of connection points: 2
#     Edge 79, Type (0, 1), BuildingBlock: KIFKEQ_clean_linker_1, # of connection points: 2
#     Edge 80, Type (0, 1), BuildingBlock: KIFKEQ_clean_linker_1, # of connection points: 2
# Relax obj value: 0.009
# Max RMSD: 0.093
# Mean RMSD: 0.060
data_MOF--net-eea--node1-WUSLED_clean_sbu_0--node2-KUMBUR_clean_sbu_0--edge1-KIFKEQ_clean_linker_1
_symmetry_space_group_name_H-M    P1
_symmetry_Int_Tables_number       1
_symmetry_cell_setting            triclinic
loop_
_symmetry_equiv_pos_as_xyz
'x, y, z'
_cell_length_a     67.861553
_cell_length_b     69.395017
_cell_length_c     92.176975
_cell_angle_alpha  89.838403
_cell_angle_beta   90.149667
_cell_angle_gamma 120.00052
loop_
_atom_site_label
_atom_site_type_symbol
_atom_site_fract_x
_atom_site_fract_y
_atom_site_fract_z
_atom_type_partial_charge
C0 C 0.2183 0.15066 0.41222 0.0
C1 C 0.23142 0.17233 0.41771 0.0
C2 C 0.21192 0.1856 0.40165 0.0
C3 C 0.22825 0.18963 0.41249 0.0
C4 C 0.19855 0.16372 0.39644 0.0
C5 C 0.20174 0.14651 0.40165 0.0
U6 U 0.23726 0.11975 0.43908 0.0
O7 O 0.22145 0.08372 0.44302 0.0
O8 O 0.25614 0.10226 0.43432 0.0
C9 C 0.23894 0.08269 0.43784 0.0
C10 C 0.22205 0.13227 0.41674 0.0
C11 C 0.23393 0.06414 0.42785 0.0
C12 C 0.21135 0.03783 0.40887 0.0
C13 C 0.21617 0.05622 0.41763 0.0
C14 C 0.24217 0.03534 0.42026 0.0
C15 C 0.22427 0.02709 0.4101 0.0
C16 C 0.24691 0.05361 0.429 0.0
C17 C 0.26158 0.14425 0.47709 0.0
C18 C 0.25832 0.13023 0.50184 0.0
C19 C 0.29347 0.16221 0.49398 0.0
C20 C 0.28398 0.16091 0.48025 0.0
C21 C 0.28076 0.14696 0.50499 0.0
C22 C 0.24884 0.12887 0.48806 0.0
C23 C 0.25155 0.14424 0.46271 0.0
O24 O 0.24333 0.13713 0.41815 0.0
O25 O 0.20876 0.11909 0.42705 0.0
O26 O 0.23015 0.12908 0.46045 0.0
O27 O 0.26453 0.1476 0.45133 0.0
H28 H 0.24433 0.17594 0.42587 0.0
H29 H 0.23899 0.20625 0.41669 0.0
H30 H 0.18553 0.15983 0.38833 0.0
H31 H 0.19138 0.12991 0.39729 0.0
H32 H 0.19759 0.0321 0.40108 0.0
H33 H 0.20594 0.06412 0.41652 0.0
H34 H 0.25225 0.02735 0.42174 0.0
H35 H 0.26061 0.05934 0.43686 0.0
H36 H 0.24809 0.11807 0.50999 0.0
H37 H 0.31066 0.17554 0.49604 0.0
H38 H 0.29412 0.17322 0.47214 0.0
H39 H 0.23147 0.11588 0.48607 0.0
C40 C 0.95483 0.16 0.40939 0.0
C41 C 0.97459 0.17018 0.418 0.0
C42 C 0.99605 0.19576 0.3982 0.0
C43 C 0.99496 0.18784 0.41246 0.0
C44 C 0.9761 0.18559 0.38972 0.0
C45 C 0.95583 0.16798 0.39524 0.0
U46 U 0.9064 0.12426 0.43714 0.0
O47 O 0.86944 0.10454 0.43298 0.0
O48 O 0.88806 0.08784 0.43997 0.0
C49 C 0.86849 0.08548 0.43564 0.0
C50 C 0.93334 0.1403 0.41436 0.0
C51 C 0.85437 0.06676 0.42567 0.0
C52 C 0.84943 0.03847 0.40803 0.0
C53 C 0.8637 0.05737 0.41637 0.0
C54 C 0.81642 0.0383 0.41801 0.0
C55 C 0.82553 0.02855 0.40881 0.0
C56 C 0.83063 0.05711 0.42629 0.0
C57 C 0.90751 0.14576 0.47634 0.0
C58 C 0.87645 0.13825 0.49292 0.0
C59 C 0.91498 0.15503 0.50203 0.0
C60 C 0.92271 0.15427 0.48807 0.0
C61 C 0.89177 0.14732 0.50466 0.0
C62 C 0.88422 0.13749 0.47892 0.0
C63 C 0.91668 0.14714 0.46151 0.0
O64 O 0.93493 0.1272 0.42406 0.0
O65 O 0.91593 0.14328 0.41661 0.0
O66 O 0.9056 0.14989 0.45073 0.0
O67 O 0.92384 0.13318 0.45841 0.0
H68 H 0.97436 0.1644 0.42896 0.0
H69 H 1.00983 0.1954 0.41941 0.0
H70 H 0.97622 0.19088 0.37864 0.0
H71 H 0.94092 0.1603 0.38832 0.0
H72 H 0.85713 0.03164 0.40097 0.0
H73 H 0.88196 0.06445 0.41567 0.0
H74 H 0.79819 0.03104 0.41916 0.0
H75 H 0.82299 0.06386 0.43348 0.0
H76 H 0.8585 0.13233 0.49443 0.0
H77 H 0.92727 0.16174 0.51077 0.0
H78 H 0.94074 0.16074 0.48638 0.0
H79 H 0.87208 0.13085 0.47009 0.0
C80 C 0.86437 0.80076 0.40911 0.0
C81 C 0.85446 0.81007 0.41799 0.0
C82 C 0.82733 0.80539 0.39877 0.0
C83 C 0.83617 0.81236 0.41287 0.0
C84 C 0.8372 0.79584 0.39004 0.0
C85 C 0.85543 0.79358 0.39514 0.0
U86 U 0.90254 0.78887 0.43552 0.0
O87 O 0.92379 0.7741 0.43016 0.0
O88 O 0.93991 0.80838 0.43821 0.0
C89 C 0.94299 0.79241 0.43309 0.0
C90 C 0.88493 0.7997 0.41355 0.0
C91 C 0.96242 0.79897 0.42299 0.0
C92 C 0.97833 0.79651 0.39976 0.0
C93 C 0.95944 0.79196 0.40844 0.0
C94 C 1.00347 0.81555 0.41989 0.0
C95 C 1.00067 0.80814 0.40541 0.0
C96 C 0.98465 0.81103 0.42851 0.0
C97 C 0.88105 0.76662 0.47496 0.0
C98 C 0.8792 0.73815 0.49152 0.0
C99 C 0.87809 0.76993 0.50116 0.0
C100 C 0.87985 0.77829 0.48705 0.0
C101 C 0.87734 0.74953 0.50363 0.0
C102 C 0.88097 0.74653 0.47739 0.0
C103 C 0.87974 0.77445 0.46007 0.0
O104 O 0.89838 0.814 0.42335 0.0
O105 O 0.88248 0.7798 0.41521 0.0
O106 O 0.87733 0.7614 0.44907 0.0
O107 O 0.89334 0.79564 0.45713 0.0
H108 H 0.86097 0.8158 0.42881 0.0
H109 H 0.82889 0.81951 0.42002 0.0
H110 H 0.83123 0.79056 0.37907 0.0
H111 H 0.86288 0.78658 0.38801 0.0
H112 H 0.97539 0.79076 0.38864 0.0
H113 H 0.94251 0.7826 0.40386 0.0
H114 H 0.02021 0.8242 0.4248 0.0
H115 H 0.98746 0.81644 0.43972 0.0
H116 H 0.87845 0.7223 0.49289 0.0
H117 H 0.87709 0.77942 0.51015 0.0
H118 H 0.87968 0.7937 0.48557 0.0
H119 H 0.88162 0.73693 0.46835 0.0
C120 C 0.07242 0.21521 0.63088 0.0
C121 C 0.05276 0.206 0.62216 0.0
C122 C 0.03084 0.21022 0.64178 0.0
C123 C 0.03223 0.20354 0.62755 0.0
C124 C 0.05069 0.21962 0.65037 0.0
C125 C 0.07111 0.22205 0.64499 0.0
U126 U 0.12312 0.22893 0.60439 0.0
O127 O 0.15937 0.24372 0.61006 0.0
O128 O 0.14097 0.20994 0.60114 0.0
C129 C 0.16017 0.22573 0.60666 0.0
C130 C 0.09403 0.21651 0.62615 0.0
C131 C 0.17286 0.21882 0.6166 0.0
C132 C 0.19154 0.22087 0.63972 0.0
C133 C 0.17719 0.22555 0.6312 0.0
C134 C 0.19701 0.20222 0.61933 0.0
C135 C 0.20196 0.20939 0.63385 0.0
C136 C 0.1827 0.20688 0.61087 0.0
C137 C 0.12604 0.25483 0.56595 0.0
C138 C 0.13551 0.25088 0.54093 0.0
C139 C 0.13955 0.28584 0.54886 0.0
C140 C 0.13201 0.27689 0.56274 0.0
C141 C 0.14129 0.27297 0.53768 0.0
C142 C 0.12797 0.24192 0.55487 0.0
C143 C 0.11579 0.24527 0.58038 0.0
O144 O 0.09292 0.20295 0.61583 0.0
O145 O 0.112 0.23648 0.62505 0.0
O146 O 0.12604 0.25741 0.59187 0.0
O147 O 0.10789 0.2239 0.58256 0.0
H148 H 0.05317 0.2005 0.61123 0.0
H149 H 0.01747 0.19651 0.62051 0.0
H150 H 0.05037 0.22465 0.66143 0.0
H151 H 0.0859 0.22895 0.65202 0.0
H152 H 0.19461 0.22642 0.65089 0.0
H153 H 0.16989 0.23482 0.63596 0.0
H154 H 0.20488 0.19369 0.61427 0.0
H155 H 0.17988 0.2017 0.59961 0.0
H156 H 0.13681 0.24048 0.5327 0.0
H157 H 0.14338 0.30274 0.5468 0.0
H158 H 0.13031 0.28716 0.57091 0.0
H159 H 0.12333 0.22478 0.55688 0.0
C160 C 0.80788 0.86579 0.6282 0.0
C161 C 0.79477 0.84414 0.62267 0.0
C162 C 0.81426 0.83084 0.63872 0.0
C163 C 0.79794 0.82683 0.62788 0.0
C164 C 0.82759 0.8527 0.64397 0.0
C165 C 0.8244 0.86992 0.63878 0.0
U166 U 0.78881 0.89641 0.60123 0.0
O167 O 0.77015 0.91416 0.60588 0.0
O168 O 0.80471 0.93235 0.59694 0.0
C169 C 0.78732 0.93358 0.60208 0.0
C170 C 0.80419 0.8842 0.62363 0.0
C171 C 0.79249 0.95258 0.61169 0.0
C172 C 0.81574 0.98016 0.62989 0.0
C173 C 0.81047 0.96105 0.62177 0.0
C174 C 0.78483 0.98215 0.61819 0.0
C175 C 0.80319 0.99118 0.62801 0.0
C176 C 0.77959 0.96313 0.61015 0.0
C177 C 0.76411 0.87148 0.56341 0.0
C178 C 0.76722 0.88559 0.53871 0.0
C179 C 0.73216 0.85351 0.54658 0.0
C180 C 0.74172 0.85478 0.56027 0.0
C181 C 0.74479 0.86883 0.53558 0.0
C182 C 0.77677 0.88692 0.55246 0.0
C183 C 0.7742 0.87153 0.57778 0.0
O184 O 0.8174 0.8972 0.61322 0.0
O185 O 0.78292 0.87941 0.62229 0.0
O186 O 0.76133 0.86842 0.58919 0.0
O187 O 0.79566 0.8866 0.57995 0.0
H188 H 0.7819 0.84055 0.6145 0.0
H189 H 0.78723 0.81022 0.62365 0.0
H190 H 0.84061 0.85657 0.65209 0.0
H191 H 0.83475 0.88651 0.64316 0.0
H192 H 0.83002 0.98668 0.63731 0.0
H193 H 0.82066 0.95315 0.62317 0.0
H194 H 0.7745 0.98988 0.61666 0.0
H195 H 0.76559 0.95685 0.60248 0.0
H196 H 0.77739 0.8978 0.53056 0.0
H197 H 0.71498 0.84017 0.54453 0.0
H198 H 0.73165 0.84244 0.56839 0.0
H199 H 0.79413 0.89995 0.55443 0.0
C200 C 0.07142 0.85624 0.6302 0.0
C201 C 0.0516 0.84606 0.62163 0.0
C202 C 0.03023 0.82053 0.64149 0.0
C203 C 0.03125 0.82842 0.62722 0.0
C204 C 0.05023 0.83071 0.64992 0.0
C205 C 0.07047 0.84829 0.64435 0.0
U206 U 0.12069 0.89161 0.60279 0.0
O207 O 0.13918 0.92801 0.59975 0.0
O208 O 0.15746 0.91134 0.6075 0.0
C209 C 0.15858 0.93038 0.60448 0.0
C210 C 0.09291 0.87593 0.62521 0.0
C211 C 0.17247 0.94926 0.61439 0.0
C212 C 0.17702 0.97747 0.63198 0.0
C213 C 0.16292 0.95854 0.6236 0.0
C214 C 0.21026 0.97789 0.62218 0.0
C215 C 0.20094 0.98751 0.63132 0.0
C216 C 0.19622 0.95907 0.61387 0.0
C217 C 0.12208 0.86923 0.56418 0.0
C218 C 0.13052 0.88253 0.5391 0.0
C219 C 0.138 0.85365 0.54721 0.0
C220 C 0.12993 0.8544 0.56105 0.0
C221 C 0.13835 0.86762 0.53598 0.0
C222 C 0.12248 0.88333 0.55301 0.0
C223 C 0.11186 0.86827 0.57868 0.0
O224 O 0.11054 0.87314 0.62351 0.0
O225 O 0.09148 0.88863 0.61511 0.0
O226 O 0.10442 0.88219 0.58122 0.0
O227 O 0.1221 0.86555 0.58997 0.0
H228 H 0.05176 0.85183 0.61068 0.0
H229 H 0.01634 0.82087 0.62031 0.0
H230 H 0.05017 0.82545 0.66099 0.0
H231 H 0.08542 0.85597 0.65125 0.0
H232 H 0.16916 0.9842 0.63898 0.0
H233 H 0.14464 0.95134 0.62422 0.0
H234 H 0.22851 0.98525 0.6211 0.0
H235 H 0.20402 0.95239 0.60675 0.0
H236 H 0.1307 0.8937 0.53081 0.0
H237 H 0.14345 0.84166 0.54522 0.0
H238 H 0.12945 0.84301 0.56929 0.0
H239 H 0.11636 0.89482 0.55493 0.0
C240 C 0.88466 0.48399 0.74492 0.0
C241 C 0.89773 0.5056 0.75052 0.0
C242 C 0.87839 0.51904 0.73447 0.0
C243 C 0.89462 0.52295 0.74535 0.0
C244 C 0.86508 0.49722 0.72915 0.0
C245 C 0.86821 0.47995 0.73431 0.0
U246 U 0.90352 0.45313 0.77183 0.0
O247 O 0.88769 0.41713 0.77588 0.0
O248 O 0.92239 0.43561 0.76718 0.0
C249 C 0.90519 0.41606 0.77074 0.0
C250 C 0.88834 0.46556 0.74943 0.0
C251 C 0.90018 0.39745 0.76081 0.0
C252 C 0.87765 0.3711 0.74184 0.0
C253 C 0.88246 0.38953 0.75056 0.0
C254 C 0.90837 0.36857 0.75336 0.0
C255 C 0.89052 0.36032 0.74317 0.0
C256 C 0.91311 0.38689 0.76205 0.0
C257 C 0.92779 0.47781 0.80979 0.0
C258 C 0.92458 0.46366 0.83449 0.0
C259 C 0.95959 0.49591 0.82672 0.0
C260 C 0.95011 0.49461 0.813 0.0
C261 C 0.94695 0.48052 0.83769 0.0
C262 C 0.91511 0.4623 0.82071 0.0
C263 C 0.91778 0.47777 0.7954 0.0
O264 O 0.90961 0.47038 0.75086 0.0
O265 O 0.87503 0.45242 0.75975 0.0
O266 O 0.89638 0.4626 0.79314 0.0
O267 O 0.93077 0.48105 0.78403 0.0
H268 H 0.91055 0.50912 0.75873 0.0
H269 H 0.90531 0.53953 0.74964 0.0
H270 H 0.85212 0.49342 0.721 0.0
H271 H 0.85789 0.4634 0.72987 0.0
H272 H 0.86392 0.36536 0.73403 0.0
H273 H 0.87227 0.39746 0.74938 0.0
H274 H 0.91841 0.36055 0.7549 0.0
H275 H 0.92677 0.39263 0.76993 0.0
H276 H 0.91442 0.45141 0.84261 0.0
H277 H 0.97672 0.50933 0.82882 0.0
H278 H 0.96019 0.50701 0.80491 0.0
H279 H 0.89781 0.4492 0.81868 0.0
C280 C 0.62401 0.49283 0.74493 0.0
C281 C 0.62755 0.51461 0.74487 0.0
C282 C 0.66508 0.52889 0.73372 0.0
C283 C 0.6478 0.53238 0.73934 0.0
C284 C 0.6616 0.5071 0.73406 0.0
C285 C 0.64134 0.48936 0.73955 0.0
U286 U 0.57368 0.45755 0.77152 0.0
O287 O 0.53685 0.43851 0.76675 0.0
O288 O 0.55451 0.42115 0.77438 0.0
C289 C 0.53529 0.41925 0.76971 0.0
C290 C 0.60185 0.47328 0.7493 0.0
C291 C 0.52095 0.40038 0.75991 0.0
C292 C 0.51535 0.37092 0.74307 0.0
C293 C 0.52994 0.39026 0.75095 0.0
C294 C 0.48275 0.37188 0.75273 0.0
C295 C 0.49152 0.36122 0.74409 0.0
C296 C 0.49726 0.39115 0.76052 0.0
C297 C 0.57382 0.47906 0.81053 0.0
C298 C 0.54188 0.47042 0.82657 0.0
C299 C 0.58021 0.48907 0.83616 0.0
C300 C 0.58861 0.48847 0.82239 0.0
C301 C 0.55674 0.48031 0.83845 0.0
C302 C 0.55032 0.46978 0.81278 0.0
C303 C 0.58355 0.48037 0.79591 0.0
O304 O 0.6025 0.45972 0.75904 0.0
O305 O 0.5845 0.47653 0.75109 0.0
O306 O 0.5731 0.4835 0.78489 0.0
O307 O 0.5903 0.46603 0.79305 0.0
H308 H 0.61452 0.51792 0.74881 0.0
H309 H 0.64961 0.54879 0.73914 0.0
H310 H 0.67455 0.5037 0.73008 0.0
H311 H 0.63907 0.47275 0.73936 0.0
H312 H 0.52271 0.36315 0.73657 0.0
H313 H 0.54815 0.39697 0.7503 0.0
H314 H 0.46456 0.36519 0.75359 0.0
H315 H 0.48989 0.39859 0.76734 0.0
H316 H 0.52369 0.46319 0.82792 0.0
H317 H 0.59224 0.49705 0.84492 0.0
H318 H 0.60681 0.49583 0.82093 0.0
H319 H 0.5385 0.46232 0.80385 0.0
C320 C 0.53243 0.13769 0.74455 0.0
C321 C 0.51026 0.1192 0.74416 0.0
C322 C 0.49522 0.1421 0.73421 0.0
C323 C 0.49192 0.12139 0.73909 0.0
C324 C 0.51739 0.16061 0.73487 0.0
C325 C 0.53569 0.15841 0.73993 0.0
U326 U 0.56988 0.12332 0.76985 0.0
O327 O 0.5903 0.10787 0.76394 0.0
O328 O 0.60727 0.1419 0.77249 0.0
C329 C 0.60978 0.12579 0.76702 0.0
C330 C 0.55264 0.13557 0.74841 0.0
C331 C 0.62911 0.13227 0.75684 0.0
C332 C 0.64479 0.12967 0.73355 0.0
C333 C 0.62598 0.12518 0.7423 0.0
C334 C 0.67012 0.14878 0.75358 0.0
C335 C 0.66717 0.14131 0.73912 0.0
C336 C 0.65139 0.14432 0.76228 0.0
C337 C 0.54849 0.10088 0.80929 0.0
C338 C 0.54637 0.07207 0.82564 0.0
C339 C 0.54562 0.10391 0.83553 0.0
C340 C 0.54745 0.11247 0.82148 0.0
C341 C 0.54466 0.08339 0.83783 0.0
C342 C 0.54819 0.08066 0.81155 0.0
C343 C 0.5473 0.10902 0.79449 0.0
O344 O 0.56672 0.14949 0.75814 0.0
O345 O 0.54964 0.1154 0.74976 0.0
O346 O 0.54439 0.09598 0.78338 0.0
O347 O 0.56133 0.13015 0.79165 0.0
H348 H 0.50709 0.10293 0.74751 0.0
H349 H 0.47523 0.10666 0.73862 0.0
H350 H 0.52068 0.1769 0.73147 0.0
H351 H 0.55258 0.17293 0.73998 0.0
H352 H 0.64174 0.12387 0.72244 0.0
H353 H 0.60902 0.11582 0.73777 0.0
H354 H 0.6869 0.15743 0.75843 0.0
H355 H 0.65431 0.14977 0.77348 0.0
H356 H 0.54546 0.05613 0.82689 0.0
H357 H 0.54475 0.11335 0.84459 0.0
H358 H 0.54745 0.12799 0.82012 0.0
H359 H 0.54873 0.07113 0.80244 0.0
C360 C 0.73625 0.54518 0.96239 0.0
C361 C 0.73299 0.56366 0.96309 0.0
C362 C 0.69479 0.54061 0.97327 0.0
C363 C 0.71255 0.56139 0.96844 0.0
C364 C 0.698 0.52211 0.97231 0.0
C365 C 0.71843 0.52439 0.96698 0.0
U366 U 0.78799 0.55975 0.93673 0.0
O367 O 0.82431 0.57528 0.94251 0.0
O368 O 0.80643 0.54127 0.93393 0.0
C369 C 0.82549 0.55741 0.93934 0.0
C370 C 0.75857 0.54738 0.95831 0.0
C371 C 0.8385 0.551 0.94937 0.0
C372 C 0.85769 0.55388 0.97242 0.0
C373 C 0.84318 0.55828 0.96385 0.0
C374 C 0.8627 0.53448 0.9523 0.0
C375 C 0.86794 0.54213 0.96671 0.0
C376 C 0.84823 0.53885 0.94379 0.0
C377 C 0.78919 0.58236 0.89751 0.0
C378 C 0.82055 0.60596 0.88127 0.0
C379 C 0.78225 0.58526 0.87179 0.0
C380 C 0.77425 0.57642 0.88565 0.0
C381 C 0.8055 0.60039 0.86939 0.0
C382 C 0.81251 0.59706 0.89516 0.0
C383 C 0.77961 0.5741 0.91221 0.0
O384 O 0.75826 0.53352 0.9485 0.0
O385 O 0.77614 0.56758 0.95693 0.0
O386 O 0.79023 0.5871 0.9233 0.0
O387 O 0.7722 0.55298 0.91496 0.0
H388 H 0.7464 0.57999 0.9598 0.0
H389 H 0.71095 0.57612 0.96914 0.0
H390 H 0.68471 0.50577 0.97567 0.0
H391 H 0.72046 0.50987 0.9667 0.0
H392 H 0.86099 0.55982 0.9835 0.0
H393 H 0.83599 0.56773 0.96848 0.0
H394 H 0.87044 0.52575 0.94734 0.0
H395 H 0.84515 0.53325 0.93262 0.0
H396 H 0.8386 0.61725 0.87987 0.0
H397 H 0.77002 0.58074 0.86307 0.0
H398 H 0.75618 0.56525 0.88717 0.0
H399 H 0.82447 0.60193 0.90408 0.0
C400 C 0.47266 0.19833 0.96273 0.0
C401 C 0.46131 0.17724 0.95621 0.0
C402 C 0.47908 0.16341 0.97329 0.0
C403 C 0.46448 0.15994 0.96143 0.0
C404 C 0.49063 0.18473 0.97959 0.0
C405 C 0.48742 0.20192 0.97438 0.0
U406 U 0.4548 0.22914 0.93512 0.0
O407 O 0.43594 0.24687 0.93919 0.0
O408 O 0.47092 0.26511 0.93094 0.0
C409 C 0.45334 0.26634 0.9357 0.0
C410 C 0.46904 0.21669 0.95798 0.0
C411 C 0.4582 0.28519 0.94537 0.0
C412 C 0.48101 0.31256 0.9638 0.0
C413 C 0.47586 0.29348 0.95568 0.0
C414 C 0.45059 0.31488 0.95166 0.0
C415 C 0.46866 0.32373 0.9617 0.0
C416 C 0.44546 0.29589 0.94361 0.0
C417 C 0.43291 0.20496 0.89689 0.0
C418 C 0.4107 0.21434 0.88051 0.0
C419 C 0.42769 0.1932 0.87162 0.0
C420 C 0.43684 0.19409 0.8854 0.0
C421 C 0.4143 0.20313 0.86899 0.0
C422 C 0.41996 0.2153 0.89431 0.0
C423 C 0.44185 0.20458 0.91149 0.0
O424 O 0.48277 0.22991 0.94785 0.0
O425 O 0.44781 0.21174 0.9561 0.0
O426 O 0.42824 0.20141 0.92248 0.0
O427 O 0.46308 0.21984 0.91406 0.0
H428 H 0.44981 0.17408 0.94719 0.0
H429 H 0.45514 0.14375 0.95637 0.0
H430 H 0.50233 0.18823 0.98853 0.0
H431 H 0.49641 0.21809 0.97955 0.0
H432 H 0.49508 0.31894 0.97138 0.0
H433 H 0.48592 0.28549 0.95724 0.0
H434 H 0.44041 0.32272 0.94995 0.0
H435 H 0.43173 0.28976 0.93576 0.0
H436 H 0.40075 0.22244 0.87886 0.0
H437 H 0.43063 0.18421 0.8631 0.0
H438 H 0.44675 0.18596 0.88716 0.0
H439 H 0.4168 0.22391 0.90298 0.0
C440 C 0.73774 0.18961 0.96359 0.0
C441 C 0.71783 0.17941 0.95512 0.0
C442 C 0.69666 0.15401 0.97507 0.0
C443 C 0.69752 0.16182 0.9608 0.0
C444 C 0.71676 0.16422 0.98341 0.0
C445 C 0.73695 0.18174 0.97774 0.0
U446 U 0.78619 0.2252 0.93572 0.0
O447 O 0.80457 0.26163 0.93289 0.0
O448 O 0.82313 0.2449 0.93994 0.0
C449 C 0.82412 0.26397 0.93724 0.0
C450 C 0.75919 0.20926 0.95849 0.0
C451 C 0.83825 0.28271 0.94719 0.0
C452 C 0.8432 0.31085 0.96496 0.0
C453 C 0.82892 0.29195 0.95661 0.0
C454 C 0.87622 0.31132 0.95473 0.0
C455 C 0.8671 0.32092 0.96406 0.0
C456 C 0.862 0.29252 0.94645 0.0
C457 C 0.78556 0.20375 0.89664 0.0
C458 C 0.8173 0.2128 0.88031 0.0
C459 C 0.77879 0.19354 0.87104 0.0
C460 C 0.77058 0.19407 0.8849 0.0
C461 C 0.80227 0.20263 0.86855 0.0
C462 C 0.80906 0.21338 0.89418 0.0
C463 C 0.77609 0.20228 0.91137 0.0
O464 O 0.77661 0.20629 0.95629 0.0
O465 O 0.75756 0.22224 0.94871 0.0
O466 O 0.76894 0.21627 0.91439 0.0
O467 O 0.78702 0.19951 0.92224 0.0
H468 H 0.71788 0.18512 0.94416 0.0
H469 H 0.68254 0.15425 0.95396 0.0
H470 H 0.71682 0.15902 0.99449 0.0
H471 H 0.75198 0.18945 0.98456 0.0
H472 H 0.83549 0.31756 0.97212 0.0
H473 H 0.81065 0.28476 0.95741 0.0
H474 H 0.89444 0.31869 0.95348 0.0
H475 H 0.86964 0.28588 0.93916 0.0
H476 H 0.8355 0.2203 0.87881 0.0
H477 H 0.76663 0.18534 0.86238 0.0
H478 H 0.75239 0.18643 0.88652 0.0
H479 H 0.82103 0.22104 0.90301 0.0
C480 C 0.55133 0.81723 0.07868 0.0
C481 C 0.56406 0.83865 0.08463 0.0
C482 C 0.54472 0.85232 0.06876 0.0
C483 C 0.56083 0.85604 0.07969 0.0
C484 C 0.53187 0.83073 0.06301 0.0
C485 C 0.53516 0.81343 0.06791 0.0
U486 U 0.569 0.78577 0.10582 0.0
O487 O 0.55302 0.74972 0.10962 0.0
O488 O 0.58813 0.76835 0.10163 0.0
C489 C 0.57073 0.74873 0.10484 0.0
C490 C 0.55497 0.79873 0.0831 0.0
C491 C 0.56611 0.7303 0.09483 0.0
C492 C 0.54391 0.70396 0.07577 0.0
C493 C 0.54858 0.72239 0.08445 0.0
C494 C 0.57446 0.70145 0.08755 0.0
C495 C 0.55673 0.69316 0.07726 0.0
C496 C 0.57906 0.71977 0.0962 0.0
C497 C 0.59015 0.80956 0.14433 0.0
C498 C 0.61354 0.80192 0.16084 0.0
C499 C 0.59382 0.82048 0.16972 0.0
C500 C 0.58477 0.81925 0.15586 0.0
C501 C 0.60858 0.81209 0.17239 0.0
C502 C 0.60442 0.80065 0.14696 0.0
C503 C 0.58142 0.80986 0.12965 0.0
O504 O 0.57619 0.80366 0.08501 0.0
O505 O 0.54112 0.78512 0.09305 0.0
O506 O 0.56028 0.7945 0.12693 0.0
O507 O 0.59525 0.8133 0.11874 0.0
H508 H 0.57659 0.84197 0.093 0.0
H509 H 0.57084 0.87236 0.08449 0.0
H510 H 0.51956 0.82726 0.05446 0.0
H511 H 0.52523 0.79707 0.06313 0.0
H512 H 0.53029 0.69822 0.06787 0.0
H513 H 0.53837 0.73028 0.08316 0.0
H514 H 0.58448 0.69343 0.08921 0.0
H515 H 0.59257 0.72549 0.10419 0.0
H516 H 0.62497 0.79544 0.16242 0.0
H517 H 0.58923 0.82805 0.17835 0.0
H518 H 0.57373 0.82615 0.1541 0.0
H519 H 0.60881 0.79306 0.13824 0.0
C520 C 0.28922 0.82528 0.07622 0.0
C521 C 0.30542 0.84078 0.08586 0.0
C522 C 0.33047 0.86151 0.06556 0.0
C523 C 0.32582 0.85872 0.08058 0.0
C524 C 0.314 0.84596 0.05601 0.0
C525 C 0.29369 0.82812 0.06128 0.0
U526 U 0.24073 0.79061 0.10405 0.0
O527 O 0.20409 0.76931 0.09967 0.0
O528 O 0.22368 0.75444 0.10819 0.0
C529 C 0.20396 0.75088 0.10321 0.0
C530 C 0.26786 0.80567 0.08129 0.0
C531 C 0.19098 0.7311 0.09376 0.0
C532 C 0.16894 0.71325 0.07191 0.0
C533 C 0.18347 0.73261 0.07977 0.0
C534 C 0.16967 0.69065 0.09168 0.0
C535 C 0.16147 0.69198 0.07788 0.0
C536 C 0.18417 0.70992 0.09949 0.0
C537 C 0.24095 0.81379 0.14256 0.0
C538 C 0.20985 0.80636 0.15909 0.0
C539 C 0.2484 0.82343 0.16821 0.0
C540 C 0.25615 0.82255 0.15428 0.0
C541 C 0.22516 0.81561 0.17082 0.0
C542 C 0.21765 0.80547 0.14513 0.0
C543 C 0.25014 0.8148 0.12779 0.0
O544 O 0.26976 0.79352 0.09157 0.0
O545 O 0.25022 0.80842 0.08307 0.0
O546 O 0.2386 0.81631 0.11679 0.0
O547 O 0.25823 0.80144 0.12521 0.0
H548 H 0.30239 0.83892 0.09745 0.0
H549 H 0.33811 0.87018 0.08831 0.0
H550 H 0.31667 0.84767 0.04439 0.0
H551 H 0.28143 0.81639 0.05363 0.0
H552 H 0.1629 0.71497 0.06137 0.0
H553 H 0.18831 0.74868 0.07505 0.0
H554 H 0.16468 0.67463 0.09655 0.0
H555 H 0.18962 0.70824 0.11025 0.0
H556 H 0.19188 0.80034 0.16059 0.0
H557 H 0.26069 0.83028 0.17694 0.0
H558 H 0.27419 0.82906 0.15261 0.0
H559 H 0.2055 0.79863 0.13631 0.0
C560 C 0.19962 0.47217 0.07751 0.0
C561 C 0.17743 0.45371 0.07724 0.0
C562 C 0.16239 0.47645 0.06703 0.0
C563 C 0.15909 0.45583 0.07208 0.0
C564 C 0.18459 0.49495 0.06755 0.0
C565 C 0.2029 0.49281 0.07268 0.0
U566 U 0.23629 0.45744 0.10319 0.0
O567 O 0.25667 0.44184 0.09757 0.0
O568 O 0.27358 0.47575 0.10633 0.0
C569 C 0.27607 0.45946 0.10117 0.0
C570 C 0.2198 0.47009 0.08152 0.0
C571 C 0.29609 0.46553 0.09176 0.0
C572 C 0.314 0.46854 0.06824 0.0
C573 C 0.29488 0.46463 0.07652 0.0
C574 C 0.33569 0.47465 0.0903 0.0
C575 C 0.33452 0.47314 0.07507 0.0
C576 C 0.31678 0.47093 0.0985 0.0
C577 C 0.21379 0.43423 0.14221 0.0
C578 C 0.21473 0.40648 0.15815 0.0
C579 C 0.2079 0.43466 0.16833 0.0
C580 C 0.2097 0.44375 0.15445 0.0
C581 C 0.21002 0.41566 0.17039 0.0
C582 C 0.21659 0.41562 0.14424 0.0
C583 C 0.21289 0.44277 0.12751 0.0
O584 O 0.23359 0.48386 0.09143 0.0
O585 O 0.2168 0.44991 0.0828 0.0
O586 O 0.21019 0.42996 0.11631 0.0
O587 O 0.22712 0.46393 0.12491 0.0
H588 H 0.17424 0.43749 0.08075 0.0
H589 H 0.14238 0.4411 0.07172 0.0
H590 H 0.18788 0.51118 0.06401 0.0
H591 H 0.2198 0.50731 0.07265 0.0
H592 H 0.31246 0.46718 0.05654 0.0
H593 H 0.2791 0.46045 0.07105 0.0
H594 H 0.35125 0.47849 0.09594 0.0
H595 H 0.31817 0.47175 0.11022 0.0
H596 H 0.21683 0.39207 0.15928 0.0
H597 H 0.204 0.4421 0.17739 0.0
H598 H 0.20722 0.45793 0.15322 0.0
H599 H 0.21975 0.40784 0.13507 0.0
C600 C 0.40545 0.87953 0.29789 0.0
C601 C 0.38968 0.87975 0.28808 0.0
C602 C 0.36352 0.87452 0.30802 0.0
C603 C 0.36896 0.87731 0.29309 0.0
C604 C 0.37954 0.87446 0.31774 0.0
C605 C 0.40017 0.87693 0.31273 0.0
U606 U 0.45515 0.89346 0.27071 0.0
O607 O 0.49176 0.90894 0.27564 0.0
O608 O 0.47331 0.87484 0.26721 0.0
C609 C 0.49278 0.89114 0.27203 0.0
C610 C 0.42723 0.88141 0.29311 0.0
C611 C 0.50687 0.8851 0.28126 0.0
C612 C 0.52242 0.88222 0.3046 0.0
C613 C 0.50711 0.88616 0.2965 0.0
C614 C 0.53701 0.87575 0.28235 0.0
C615 C 0.53791 0.87741 0.29758 0.0
C616 C 0.52171 0.87951 0.27434 0.0
C617 C 0.45507 0.91612 0.23182 0.0
C618 C 0.48635 0.93908 0.21535 0.0
C619 C 0.44778 0.91942 0.20622 0.0
C620 C 0.43992 0.91066 0.22011 0.0
C621 C 0.4711 0.93399 0.20362 0.0
C622 C 0.47844 0.93026 0.22927 0.0
C623 C 0.44578 0.9079 0.24658 0.0
O624 O 0.42604 0.86756 0.28298 0.0
O625 O 0.44458 0.90162 0.29136 0.0
O626 O 0.45683 0.92085 0.2576 0.0
O627 O 0.43829 0.88675 0.24927 0.0
H628 H 0.39331 0.88167 0.27656 0.0
H629 H 0.35705 0.87724 0.28523 0.0
H630 H 0.3763 0.87278 0.3293 0.0
H631 H 0.41207 0.87674 0.32052 0.0
H632 H 0.52268 0.88371 0.3163 0.0
H633 H 0.49586 0.8905 0.30211 0.0
H634 H 0.54837 0.87173 0.27657 0.0
H635 H 0.52186 0.87855 0.26261 0.0
H636 H 0.50445 0.94994 0.2138 0.0
H637 H 0.43543 0.91527 0.19761 0.0
H638 H 0.4218 0.89991 0.22178 0.0
H639 H 0.49057 0.93473 0.23807 0.0
C640 C 0.13728 0.52995 0.29542 0.0
C641 C 0.14838 0.52155 0.28685 0.0
C642 C 0.14402 0.49518 0.30598 0.0
C643 C 0.15172 0.50437 0.29207 0.0
C644 C 0.13251 0.50339 0.31437 0.0
C645 C 0.12925 0.52056 0.30916 0.0
U646 U 0.1222 0.56302 0.26781 0.0
O647 O 0.10389 0.58134 0.27168 0.0
O648 O 0.13927 0.59916 0.26408 0.0
C649 C 0.12171 0.60071 0.26853 0.0
C650 C 0.13475 0.54907 0.29074 0.0
C651 C 0.12645 0.61947 0.27827 0.0
C652 C 0.14937 0.6471 0.29654 0.0
C653 C 0.14434 0.62805 0.28841 0.0
C654 C 0.11838 0.6488 0.28474 0.0
C655 C 0.13667 0.65795 0.2946 0.0
C656 C 0.11337 0.62984 0.27668 0.0
C657 C 0.10088 0.53977 0.2293 0.0
C658 C 0.07859 0.54907 0.21294 0.0
C659 C 0.09605 0.52841 0.20395 0.0
C660 C 0.10512 0.52922 0.21775 0.0
C661 C 0.08242 0.53808 0.20138 0.0
C662 C 0.08776 0.54995 0.22674 0.0
C663 C 0.10941 0.53898 0.24396 0.0
O664 O 0.14911 0.56253 0.28092 0.0
O665 O 0.11384 0.54499 0.28868 0.0
O666 O 0.09562 0.53589 0.25483 0.0
O667 O 0.13069 0.55386 0.24676 0.0
H668 H 0.15479 0.52846 0.2762 0.0
H669 H 0.16083 0.49867 0.28534 0.0
H670 H 0.12594 0.49651 0.32499 0.0
H671 H 0.12061 0.52671 0.31598 0.0
H672 H 0.16362 0.65371 0.304 0.0
H673 H 0.15469 0.62033 0.28985 0.0
H674 H 0.10793 0.65639 0.28315 0.0
H675 H 0.09946 0.62349 0.26896 0.0
H676 H 0.06846 0.55698 0.21132 0.0
H677 H 0.09918 0.51961 0.1954 0.0
H678 H 0.11514 0.5212 0.21949 0.0
H679 H 0.08435 0.55831 0.23546 0.0
C680 C 0.40392 0.52425 0.29722 0.0
C681 C 0.38774 0.50879 0.28756 0.0
C682 C 0.36238 0.48831 0.30781 0.0
C683 C 0.36719 0.491 0.2928 0.0
C684 C 0.37881 0.50388 0.31738 0.0
C685 C 0.39926 0.52158 0.31214 0.0
U686 U 0.45254 0.55874 0.26937 0.0
O687 O 0.47132 0.59511 0.2663 0.0
O688 O 0.48951 0.57813 0.27359 0.0
C689 C 0.49075 0.59728 0.27077 0.0
C690 C 0.42561 0.54353 0.29221 0.0
C691 C 0.50486 0.61602 0.28072 0.0
C692 C 0.50973 0.64414 0.29848 0.0
C693 C 0.49549 0.62525 0.29011 0.0
C694 C 0.54279 0.64459 0.28834 0.0
C695 C 0.53363 0.65419 0.29764 0.0
C696 C 0.52861 0.6258 0.28003 0.0
C697 C 0.45111 0.53668 0.2303 0.0
C698 C 0.48211 0.54392 0.21373 0.0
C699 C 0.44358 0.5272 0.20464 0.0
C700 C 0.43589 0.5281 0.21858 0.0
C701 C 0.46677 0.53482 0.202 0.0
C702 C 0.47438 0.54484 0.22771 0.0
C703 C 0.44198 0.53556 0.24511 0.0
O704 O 0.44262 0.53995 0.28996 0.0
O705 O 0.4242 0.55649 0.28233 0.0
O706 O 0.43508 0.54976 0.2481 0.0
O707 O 0.45293 0.53274 0.25595 0.0
H708 H 0.39093 0.51054 0.27598 0.0
H709 H 0.35493 0.47954 0.28506 0.0
H710 H 0.37604 0.50226 0.32899 0.0
H711 H 0.41152 0.53326 0.3198 0.0
H712 H 0.50199 0.65084 0.30561 0.0
H713 H 0.47722 0.61807 0.29087 0.0
H714 H 0.56102 0.65195 0.28714 0.0
H715 H 0.53628 0.61916 0.27277 0.0
H716 H 0.50005 0.54978 0.21223 0.0
H717 H 0.43127 0.52046 0.1959 0.0
H718 H 0.41787 0.52172 0.22027 0.0
H719 H 0.48653 0.55152 0.23654 0.0
Tb720 Tb 0.50448 0.99547 1.00309 0.0
C721 C 0.55086 0.07257 0.04605 0.0
C722 C 0.59058 0.08323 0.04465 0.0
C723 C 0.57994 0.11094 0.05055 0.0
C724 C 0.56736 0.06703 0.04345 0.0
C725 C 0.55686 0.09443 0.04999 0.0
C726 C 0.5968 0.10534 0.04786 0.0
C727 C 0.51695 0.0815 0.05378 0.0
N728 N 0.52884 0.05608 0.04552 0.0
C729 C 0.51189 0.06004 0.04985 0.0
C730 C 0.53951 0.09885 0.05367 0.0
Tb731 Tb 0.52207 0.02164 0.03841 0.0
N732 N 0.56057 0.04544 0.0406 0.0
C733 C 0.57631 0.03863 0.03995 0.0
C734 C 0.60679 0.07656 0.04305 0.0
C735 C 0.59959 0.0541 0.04092 0.0
H736 H 0.49438 0.04679 0.04988 0.0
H737 H 0.61195 0.04866 0.03998 0.0
H738 H 0.61455 0.11809 0.04868 0.0
H739 H 0.50343 0.08464 0.05687 0.0
H740 H 0.57119 0.0214 0.03822 0.0
H741 H 0.41468 0.96884 1.00138 0.0
H742 H 0.62481 0.08849 0.04384 0.0
H743 H 0.53199 0.96999 0.99191 0.0
H744 H 0.45546 0.99597 1.00315 0.0
H745 H 0.52277 0.93202 0.98514 0.0
H746 H 0.58494 0.12791 0.05341 0.0
H747 H 0.40165 0.92896 0.99764 0.0
H748 H 0.41173 0.89919 0.99297 0.0
H749 H 0.54339 0.11544 0.05676 0.0
H750 H 0.44122 0.88914 0.98841 0.0
N751 N 0.46595 0.97182 1.00086 0.0
C752 C 0.45028 0.97872 1.00146 0.0
C753 C 0.41969 0.94083 0.99841 0.0
C754 C 0.43582 0.93405 0.99688 0.0
C755 C 0.42699 0.96333 1.00048 0.0
C756 C 0.45907 0.95019 0.99807 0.0
H757 H 0.48273 0.90137 0.9852 0.0
N758 N 0.49756 0.96093 0.99611 0.0
C759 C 0.5093 0.93528 0.98811 0.0
C760 C 0.4755 0.94453 0.99555 0.0
C761 C 0.51445 0.95682 0.99192 0.0
C762 C 0.48669 0.91802 0.9882 0.0
C763 C 0.4694 0.92259 0.99173 0.0
O764 O 0.52252 1.00334 0.98331 0.0
O765 O 0.53081 0.02197 1.01587 0.0
O766 O 0.51925 0.04551 0.02412 0.0
O767 O 0.4951 0.0215 1.00622 0.0
O768 O 0.54094 0.00713 1.00104 0.0
O769 O 0.49311 0.00699 0.98557 0.0
O770 O 0.50416 0.01365 0.05826 0.0
O771 O 0.49576 0.99526 0.02561 0.0
O772 O 0.50702 0.97156 0.01747 0.0
O773 O 0.53151 0.99564 0.0352 0.0
O774 O 0.48559 0.00988 0.04053 0.0
O775 O 0.53351 0.00997 0.05583 0.0
C776 C 0.54831 0.0229 1.0104 0.0
C777 C 0.50121 0.99916 0.962 0.0
C778 C 0.50369 1.00373 0.93545 0.0
C779 C 0.51063 0.0127 0.94956 0.0
C780 C 0.48702 0.9811 0.93414 0.0
C781 C 0.48468 0.97672 0.96025 0.0
C782 C 0.47765 0.96779 0.94642 0.0
C783 C 0.50524 0.04105 1.01295 0.0
C784 C 0.50875 0.00845 0.97673 0.0
C785 C 0.44629 0.90616 0.99118 0.0
C786 C 0.42951 0.91189 0.99377 0.0
C787 C 0.47823 0.99423 0.03108 0.0
C788 C 0.52562 0.01765 0.07949 0.0
C789 C 0.51736 1.00377 0.0919 0.0
C790 C 0.52507 0.01256 0.10597 0.0
C791 C 0.54077 0.03547 0.1073 0.0
C792 C 0.54138 0.04031 0.08127 0.0
C793 C 0.5488 0.04914 0.09507 0.0
C794 C 0.52112 0.97601 0.02858 0.0
C795 C 0.51793 0.00846 0.06475 0.0
H796 H 0.5235 0.03003 0.95087 0.0
H797 H 0.4809 0.97367 0.92358 0.0
H798 H 0.47713 0.9661 0.96958 0.0
H799 H 0.4648 0.95045 0.9452 0.0
H800 H 0.50532 0.9862 0.09057 0.0
H801 H 0.54673 0.04296 0.11787 0.0
H802 H 0.548 0.0512 0.07198 0.0
H803 H 0.56088 0.0667 0.09631 0.0
Tb804 Tb 0.02762 0.51355 1.00307 0.0
C805 C 0.94452 0.47856 0.04282 0.0
C806 C 0.93302 0.5063 0.04117 0.0
C807 C 0.90475 0.46769 0.04593 0.0
C808 C 0.94999 0.50026 0.0405 0.0
C809 C 0.92194 0.46204 0.04587 0.0
C810 C 0.91028 0.48981 0.04357 0.0
C811 C 0.93544 0.43615 0.04976 0.0
N812 N 0.96167 0.4739 0.04278 0.0
C813 C 0.95759 0.45318 0.04674 0.0
C814 C 0.91748 0.44053 0.04916 0.0
Tb815 Tb 0.99725 0.50256 0.03706 0.0
N816 N 0.97217 0.51564 0.03837 0.0
C817 C 0.97874 0.53776 0.03791 0.0
C818 C 0.93953 0.52878 0.03982 0.0
C819 C 0.96254 0.54461 0.0384 0.0
H820 H 0.97132 0.44957 0.04714 0.0
H821 H 0.96783 0.5621 0.03762 0.0
H822 H 0.89696 0.49408 0.04398 0.0
H823 H 0.93224 0.41967 0.05254 0.0
H824 H 0.99637 0.55031 0.03672 0.0
H825 H 0.05754 0.4544 1.0027 0.0
H826 H 0.92703 0.53413 0.04022 0.0
H827 H 0.05326 0.56639 0.99265 0.0
H828 H 0.02882 0.46598 1.00344 0.0
H829 H 0.09224 0.59637 0.98715 0.0
H830 H 0.88724 0.45521 0.04813 0.0
H831 H 0.09832 0.48255 1.00027 0.0
H832 H 0.12824 0.52265 0.99651 0.0
H833 H 0.90035 0.42734 0.05156 0.0
H834 H 0.13772 0.5614 0.99215 0.0
N835 N 0.05288 0.50068 1.00186 0.0
C836 C 0.04644 0.47859 1.00231 0.0
C837 C 0.08574 0.48779 1.00059 0.0
C838 C 0.09212 0.51024 0.9992 0.0
C839 C 0.06274 0.47187 1.00191 0.0
C840 C 0.07505 0.51615 0.99977 0.0
H841 H 0.12433 0.58901 0.98837 0.0
N842 N 0.06314 0.5423 0.99728 0.0
C843 C 0.08917 0.57998 0.99007 0.0
C844 C 0.08039 0.53779 0.99736 0.0
C845 C 0.06706 0.5629 0.99316 0.0
C846 C 0.10724 0.57578 0.99081 0.0
C847 C 0.10293 0.55437 0.99428 0.0
O848 O 0.02136 0.52359 0.98277 0.0
O849 O 0.99897 0.51165 1.01454 0.0
O850 O 0.97461 0.47653 0.02183 0.0
O851 O 1.00147 0.47791 1.00549 0.0
O852 O 0.01489 0.53684 1.00006 0.0
O853 O 0.01746 0.49111 0.98558 0.0
O854 O 1.00331 0.49229 0.05733 0.0
O855 O 0.02587 0.50445 0.02559 0.0
O856 O 0.05027 0.5397 0.01825 0.0
O857 O 0.02345 0.53815 0.0347 0.0
O858 O 1.00997 0.47925 0.04006 0.0
O859 O 1.00758 0.52493 0.05459 0.0
C860 C 0.998 0.52772 1.00885 0.0
C861 C 0.02748 0.50708 0.96217 0.0
C862 C 0.02431 0.50333 0.93568 0.0
C863 C 0.01434 0.50184 0.94938 0.0
C864 C 0.0477 0.51044 0.93507 0.0
C865 C 0.05069 0.51399 0.96121 0.0
C866 C 0.06072 0.51571 0.94773 0.0
C867 C 0.98069 0.46774 1.01119 0.0
C868 C 0.01676 0.50508 0.97641 0.0
C869 C 0.12024 0.54887 0.99435 0.0
C870 C 0.11484 0.52681 0.99683 0.0
C871 C 0.02688 0.48841 0.03128 0.0
C872 C 0.99767 0.50899 0.07802 0.0
C873 C 1.01103 0.51432 0.09071 0.0
C874 C 1.00133 0.51303 0.10448 0.0
C875 C 0.97799 0.50606 0.10526 0.0
C876 C 0.9745 0.50218 0.07914 0.0
C877 C 0.96474 0.50068 0.09269 0.0
C878 C 0.04423 0.54836 0.02899 0.0
C879 C 1.00816 0.51086 0.06371 0.0
H880 H 0.99633 0.49626 0.95014 0.0
H881 H 0.05606 0.51221 0.92476 0.0
H882 H 0.06104 0.51802 0.97086 0.0
H883 H 0.07868 0.52116 0.94708 0.0
H884 H 0.029 0.51981 0.08983 0.0
H885 H 0.96985 0.50449 0.11563 0.0
H886 H 0.96398 0.49808 0.06956 0.0
H887 H 0.94681 0.49532 0.09347 0.0
Tb888 Tb 0.5212 0.50223 0.03744 0.0
C889 C 0.47583 0.53806 0.99643 0.0
C890 C 0.43586 0.51052 0.99753 0.0
C891 C 0.44748 0.54923 0.99272 0.0
C892 C 0.45894 0.5164 0.99858 0.0
C893 C 0.4704 0.55471 0.99316 0.0
C894 C 0.43021 0.52714 0.99493 0.0
C895 C 0.51053 0.58041 0.98984 0.0
N896 N 0.49769 0.54256 0.99684 0.0
C897 C 0.51502 0.56326 0.99308 0.0
C898 C 0.48814 0.57619 0.99005 0.0
Tb899 Tb 0.50352 0.51372 1.00293 0.0
N900 N 0.46518 0.5009 1.00091 0.0
C901 C 0.449 0.4788 1.00115 0.0
C902 C 0.41923 0.48807 0.9987 0.0
C903 C 0.42586 0.47211 1.00029 0.0
H904 H 0.5324 0.56677 0.99297 0.0
H905 H 0.41315 0.45464 1.0009 0.0
H906 H 0.41258 0.523 0.99422 0.0
H907 H 0.52435 0.59686 0.9872 0.0
H908 H 0.45366 0.46616 1.00246 0.0
H909 H 0.6115 0.56169 0.0394 0.0
H910 H 0.4013 0.48284 0.99801 0.0
H911 H 0.49262 0.44919 0.04747 0.0
H912 H 0.57095 0.54996 0.03788 0.0
H913 H 0.50091 0.41924 0.05319 0.0
H914 H 0.44292 0.56181 0.99036 0.0
H915 H 0.62357 0.53365 0.04227 0.0
H916 H 0.61252 0.49354 0.04602 0.0
H917 H 0.4847 0.58948 0.98749 0.0
H918 H 0.58235 0.45467 0.04989 0.0
N919 N 0.5596 0.51526 0.03947 0.0
C920 C 0.57569 0.53738 0.0392 0.0
C921 C 0.60562 0.52833 0.04161 0.0
C922 C 0.58908 0.50585 0.04279 0.0
C923 C 0.59887 0.54419 0.04003 0.0
C924 C 0.56597 0.49984 0.04178 0.0
H925 H 0.54063 0.42683 0.05282 0.0
N926 N 0.52728 0.47353 0.04354 0.0
C927 C 0.51466 0.43573 0.05053 0.0
C928 C 0.54917 0.47815 0.04393 0.0
C929 C 0.51004 0.4528 0.04732 0.0
C930 C 0.53709 0.44006 0.05028 0.0
C931 C 0.55473 0.46158 0.04717 0.0
O932 O 0.50341 0.49189 0.05728 0.0
O933 O 0.49491 0.50427 0.02535 0.0
O934 O 0.50683 0.5395 0.01808 0.0
O935 O 0.53157 0.53782 0.03498 0.0
O936 O 0.48468 0.47857 0.03951 0.0
O937 O 0.53308 0.52419 0.05524 0.0
O938 O 0.52106 0.52399 0.983 0.0
O939 O 0.52973 0.51167 1.01504 0.0
O940 O 0.51777 0.47634 0.0223 0.0
O941 O 0.49308 0.47814 1.0054 0.0
O942 O 0.54015 0.53714 1.00071 0.0
O943 O 0.49155 0.49159 0.98522 0.0
C944 C 0.47737 0.48786 0.03064 0.0
C945 C 0.52479 0.5078 0.07864 0.0
C946 C 0.52361 0.51118 0.10515 0.0
C947 C 0.51639 0.5132 0.09108 0.0
C948 C 0.53911 0.50336 0.10643 0.0
C949 C 0.5403 0.50021 0.08033 0.0
C950 C 0.54734 0.49795 0.09414 0.0
C951 C 0.52146 0.54809 0.02899 0.0
C952 C 0.51735 0.5102 0.06399 0.0
C953 C 0.57769 0.46719 0.04756 0.0
C954 C 0.59486 0.48931 0.04536 0.0
C955 C 0.54737 0.52786 1.00968 0.0
C956 C 0.49937 0.50779 0.96178 0.0
C957 C 0.50764 0.50236 0.94929 0.0
C958 C 0.5 0.50404 0.93529 0.0
C959 C 0.48425 0.51157 0.93411 0.0
C960 C 0.48362 0.51511 0.9602 0.0
C961 C 0.47619 0.51703 0.94645 0.0
C962 C 0.50315 0.46782 1.01136 0.0
C963 C 0.5071 0.50558 0.97638 0.0
H964 H 0.50456 0.51927 0.08977 0.0
H965 H 0.54471 0.50111 0.11699 0.0
H966 H 0.54697 0.49602 0.07097 0.0
H967 H 0.55922 0.49195 0.09534 0.0
H968 H 0.51967 0.49651 0.9505 0.0
H969 H 0.47831 0.5135 0.92358 0.0
H970 H 0.47705 0.5193 0.9696 0.0
H971 H 0.4641 0.5228 0.94533 0.0
Tb972 Tb 0.17095 0.32825 0.33582 0.0
C973 C 0.21807 0.40558 0.37843 0.0
C974 C 0.25772 0.41604 0.3768 0.0
C975 C 0.24735 0.44399 0.38257 0.0
C976 C 0.23445 0.39991 0.37577 0.0
C977 C 0.22423 0.42755 0.3822 0.0
C978 C 0.26409 0.43824 0.37986 0.0
C979 C 0.1844 0.4149 0.38608 0.0
N980 N 0.19601 0.38917 0.37804 0.0
C981 C 0.17918 0.39333 0.38233 0.0
C982 C 0.20701 0.43216 0.38584 0.0
Tb983 Tb 0.18895 0.35459 0.37107 0.0
N984 N 0.22751 0.37825 0.37304 0.0
C985 C 0.24316 0.37133 0.37235 0.0
C986 C 0.27381 0.40924 0.37516 0.0
C987 C 0.26647 0.38672 0.37317 0.0
H988 H 0.16164 0.38015 0.38244 0.0
H989 H 0.27876 0.38119 0.3722 0.0
H990 H 0.28188 0.45094 0.38053 0.0
H991 H 0.17098 0.4182 0.38913 0.0
H992 H 0.23794 0.35406 0.37072 0.0
H993 H 0.08105 0.3012 0.3343 0.0
H994 H 0.29186 0.42112 0.37581 0.0
H995 H 0.19867 0.30298 0.32458 0.0
H996 H 0.1218 0.32846 0.33607 0.0
H997 H 0.18961 0.26508 0.31776 0.0
H998 H 0.25247 0.46104 0.3853 0.0
H999 H 0.06821 0.26138 0.33042 0.0
H1000 H 0.07847 0.23178 0.32562 0.0
H1001 H 0.21101 0.44884 0.38879 0.0
H1002 H 0.10809 0.22192 0.32101 0.0
N1003 N 0.13245 0.30444 0.33366 0.0
C1004 C 0.1167 0.31123 0.33433 0.0
C1005 C 0.08623 0.27331 0.33121 0.0
C1006 C 0.10244 0.26665 0.32962 0.0
C1007 C 0.09342 0.29577 0.33335 0.0
C1008 C 0.12566 0.28285 0.33082 0.0
H1009 H 0.14963 0.23432 0.31781 0.0
N1010 N 0.1642 0.29377 0.32882 0.0
C1011 C 0.17609 0.26826 0.32076 0.0
C1012 C 0.14217 0.2773 0.32826 0.0
C1013 C 0.18115 0.28975 0.3246 0.0
C1014 C 0.15351 0.25093 0.32084 0.0
C1015 C 0.13616 0.2554 0.3244 0.0
O1016 O 0.18902 0.3365 0.31604 0.0
O1017 O 0.19742 0.3548 0.34849 0.0
O1018 O 0.18607 0.37836 0.35673 0.0
O1019 O 0.16146 0.35418 0.33908 0.0
O1020 O 0.20739 0.3399 0.33363 0.0
O1021 O 0.15919 0.33942 0.31829 0.0
O1022 O 0.17153 0.34725 0.39109 0.0
O1023 O 0.16247 0.32818 0.35837 0.0
O1024 O 0.17358 0.30436 0.35018 0.0
O1025 O 0.19822 0.32849 0.36784 0.0
O1026 O 0.15247 0.34278 0.37342 0.0
O1027 O 0.20031 0.34269 0.38837 0.0
C1028 C 0.21486 0.35572 0.34296 0.0
C1029 C 0.16766 0.33191 0.29472 0.0
C1030 C 0.17039 0.33639 0.26818 0.0
C1031 C 0.17685 0.34553 0.28228 0.0
C1032 C 0.15441 0.31357 0.26685 0.0
C1033 C 0.15174 0.30929 0.29296 0.0
C1034 C 0.14518 0.30022 0.27912 0.0
C1035 C 0.17181 0.37382 0.3457 0.0
C1036 C 0.175 0.34125 0.30946 0.0
C1037 C 0.11308 0.23891 0.32382 0.0
C1038 C 0.09623 0.24452 0.32645 0.0
C1039 C 0.14501 0.32714 0.36397 0.0
C1040 C 0.19351 0.35128 0.41205 0.0
C1041 C 0.18366 0.3384 0.42471 0.0
C1042 C 0.1915 0.34764 0.43867 0.0
C1043 C 0.20952 0.36978 0.4396 0.0
C1044 C 0.21134 0.37326 0.41345 0.0
C1045 C 0.21928 0.3824 0.42713 0.0
C1046 C 0.18777 0.30883 0.36124 0.0
C1047 C 0.18518 0.34179 0.39745 0.0
H1048 H 0.18923 0.36302 0.28357 0.0
H1049 H 0.14877 0.30604 0.25626 0.0
H1050 H 0.14437 0.29861 0.30228 0.0
H1051 H 0.13284 0.28272 0.2779 0.0
H1052 H 0.16978 0.32143 0.42369 0.0
H1053 H 0.21633 0.37735 0.45004 0.0
H1054 H 0.21922 0.38336 0.40397 0.0
H1055 H 0.23314 0.39938 0.42807 0.0
Tb1056 Tb 0.6946 0.84645 0.33648 0.0
C1057 C 0.61127 0.8126 0.3758 0.0
C1058 C 0.60012 0.84056 0.37378 0.0
C1059 C 0.57153 0.80208 0.37859 0.0
C1060 C 0.61695 0.83433 0.37334 0.0
C1061 C 0.58859 0.79624 0.37877 0.0
C1062 C 0.57729 0.82422 0.37608 0.0
C1063 C 0.60173 0.77016 0.38307 0.0
N1064 N 0.62829 0.80776 0.37599 0.0
C1065 C 0.62399 0.78703 0.38011 0.0
C1066 C 0.5839 0.77471 0.38223 0.0
Tb1067 Tb 0.66405 0.83617 0.37033 0.0
N1068 N 0.63922 0.84956 0.37132 0.0
C1069 C 0.64599 0.87173 0.37081 0.0
C1070 C 0.60685 0.86309 0.37234 0.0
C1071 C 0.62993 0.87877 0.37108 0.0
H1072 H 0.63761 0.78328 0.3807 0.0
H1073 H 0.63539 0.89629 0.37025 0.0
H1074 H 0.56407 0.82864 0.37631 0.0
H1075 H 0.59836 0.75366 0.38598 0.0
H1076 H 0.66369 0.88415 0.36973 0.0
H1077 H 0.72303 0.78612 0.33628 0.0
H1078 H 0.59446 0.86858 0.37257 0.0
H1079 H 0.72115 0.89939 0.32617 0.0
H1080 H 0.69485 0.79837 0.33708 0.0
H1081 H 0.76035 0.92889 0.32074 0.0
H1082 H 0.55395 0.78972 0.38071 0.0
H1083 H 0.76393 0.81371 0.33365 0.0
H1084 H 0.79434 0.8536 0.32977 0.0
H1085 H 0.5667 0.76164 0.38457 0.0
H1086 H 0.80454 0.89255 0.32545 0.0
N1087 N 0.71934 0.83294 0.3353 0.0
C1088 C 0.71253 0.81076 0.33585 0.0
C1089 C 0.75159 0.81926 0.33398 0.0
C1090 C 0.75836 0.8418 0.33254 0.0
C1091 C 0.72852 0.80365 0.33543 0.0
C1092 C 0.74159 0.84811 0.33313 0.0
H1093 H 0.79191 0.92076 0.32185 0.0
N1094 N 0.73035 0.87477 0.33069 0.0
C1095 C 0.75694 0.91237 0.32359 0.0
C1096 C 0.74732 0.86986 0.33072 0.0
C1097 C 0.7347 0.89555 0.32664 0.0
C1098 C 0.77472 0.90773 0.32427 0.0
C1099 C 0.76998 0.88616 0.32764 0.0
O1100 O 0.68844 0.85656 0.31618 0.0
O1101 O 0.66601 0.8451 0.34775 0.0
O1102 O 0.64129 0.81012 0.35513 0.0
O1103 O 0.66815 0.81096 0.33903 0.0
O1104 O 0.68269 0.87032 0.33336 0.0
O1105 O 0.68415 0.82394 0.31901 0.0
O1106 O 0.66981 0.82604 0.39074 0.0
O1107 O 0.69252 0.83751 0.35903 0.0
O1108 O 0.71742 0.87245 0.35167 0.0
O1109 O 0.69064 0.87164 0.36785 0.0
O1110 O 0.67644 0.81264 0.37369 0.0
O1111 O 0.67433 0.85874 0.38775 0.0
C1112 C 0.66561 0.86145 0.34202 0.0
C1113 C 0.69392 0.83973 0.29552 0.0
C1114 C 0.69009 0.83605 0.26905 0.0
C1115 C 0.68049 0.83461 0.28287 0.0
C1116 C 0.71341 0.84292 0.26818 0.0
C1117 C 0.71704 0.84642 0.29432 0.0
C1118 C 0.7267 0.84803 0.28072 0.0
C1119 C 0.64731 0.80107 0.34463 0.0
C1120 C 0.68353 0.83795 0.30985 0.0
C1121 C 0.78698 0.88024 0.32766 0.0
C1122 C 0.78117 0.85807 0.33012 0.0
C1123 C 0.69333 0.82147 0.36489 0.0
C1124 C 0.664 0.84299 0.41122 0.0
C1125 C 0.67709 0.84806 0.42402 0.0
C1126 C 0.66717 0.84678 0.4377 0.0
C1127 C 0.64387 0.84007 0.43828 0.0
C1128 C 0.64089 0.83647 0.41214 0.0
C1129 C 0.63091 0.83499 0.4256 0.0
C1130 C 0.71146 0.88151 0.36219 0.0
C1131 C 0.67469 0.8447 0.397 0.0
H1132 H 0.66255 0.82921 0.28384 0.0
H1133 H 0.72151 0.84465 0.25777 0.0
H1134 H 0.72761 0.85037 0.30387 0.0
H1135 H 0.7446 0.85331 0.27987 0.0
H1136 H 0.69503 0.85332 0.42328 0.0
H1137 H 0.63552 0.83847 0.44858 0.0
H1138 H 0.63058 0.83257 0.40247 0.0
H1139 H 0.61302 0.82984 0.42622 0.0
Tb1140 Tb 0.18882 0.83663 0.37002 0.0
C1141 C 0.14363 0.87235 0.32871 0.0
C1142 C 0.10362 0.84496 0.32986 0.0
C1143 C 0.1154 0.88364 0.32484 0.0
C1144 C 0.12666 0.85074 0.33094 0.0
C1145 C 0.1383 0.88904 0.32532 0.0
C1146 C 0.09807 0.86161 0.32712 0.0
C1147 C 0.17846 0.91457 0.32199 0.0
N1148 N 0.16545 0.87677 0.32917 0.0
C1149 C 0.18285 0.89739 0.32534 0.0
C1150 C 0.1561 0.91045 0.32214 0.0
Tb1151 Tb 0.17112 0.84788 0.33541 0.0
N1152 N 0.1328 0.83519 0.33341 0.0
C1153 C 0.11654 0.81313 0.33381 0.0
C1154 C 0.0869 0.82255 0.33116 0.0
C1155 C 0.09342 0.80654 0.33293 0.0
H1156 H 0.20021 0.90082 0.32527 0.0
H1157 H 0.08065 0.7891 0.33366 0.0
H1158 H 0.08047 0.85755 0.32639 0.0
H1159 H 0.19233 0.93097 0.3193 0.0
H1160 H 0.1211 0.80045 0.33526 0.0
H1161 H 0.27919 0.89586 0.37185 0.0
H1162 H 0.06899 0.8174 0.33045 0.0
H1163 H 0.16009 0.78367 0.38012 0.0
H1164 H 0.23867 0.88427 0.37034 0.0
H1165 H 0.16824 0.75363 0.38592 0.0
H1166 H 0.11092 0.89625 0.32238 0.0
H1167 H 0.29112 0.86773 0.37479 0.0
H1168 H 0.27993 0.8276 0.37863 0.0
H1169 H 0.15274 0.92376 0.31949 0.0
H1170 H 0.24967 0.78879 0.38258 0.0
N1171 N 0.2272 0.84955 0.37201 0.0
C1172 C 0.24335 0.87165 0.37169 0.0
C1173 C 0.27319 0.86247 0.37414 0.0
C1174 C 0.25659 0.84001 0.37537 0.0
C1175 C 0.26651 0.87839 0.37252 0.0
C1176 C 0.2335 0.83409 0.37436 0.0
H1177 H 0.20792 0.76108 0.38556 0.0
N1178 N 0.19478 0.80788 0.37618 0.0
C1179 C 0.18203 0.77009 0.38324 0.0
C1180 C 0.21664 0.81243 0.37656 0.0
C1181 C 0.17749 0.7872 0.38 0.0
C1182 C 0.20443 0.77434 0.38299 0.0
C1183 C 0.22213 0.79582 0.37984 0.0
O1184 O 0.17152 0.82637 0.39004 0.0
O1185 O 0.16262 0.83868 0.35787 0.0
O1186 O 0.17466 0.8739 0.35042 0.0
O1187 O 0.19934 0.87224 0.36738 0.0
O1188 O 0.15219 0.81334 0.37233 0.0
O1189 O 0.20061 0.85899 0.3876 0.0
O1190 O 0.18872 0.85782 0.31549 0.0
O1191 O 0.19729 0.84579 0.34756 0.0
O1192 O 0.18522 0.81059 0.35496 0.0
O1193 O 0.16045 0.81227 0.33809 0.0
O1194 O 0.20778 0.87111 0.3331 0.0
O1195 O 0.1589 0.82565 0.31776 0.0
C1196 C 0.14499 0.82258 0.36332 0.0
C1197 C 0.19343 0.84311 0.41111 0.0
C1198 C 0.19323 0.84715 0.4376 0.0
C1199 C 0.18501 0.84823 0.42367 0.0
C1200 C 0.20967 0.84047 0.43866 0.0
C1201 C 0.20983 0.83659 0.41258 0.0
C1202 C 0.21782 0.83523 0.42627 0.0
C1203 C 0.18929 0.88252 0.36132 0.0
C1204 C 0.18532 0.84494 0.39655 0.0
C1205 C 0.24507 0.80134 0.38022 0.0
C1206 C 0.26229 0.82343 0.37797 0.0
C1207 C 0.21495 0.86186 0.34213 0.0
C1208 C 0.16696 0.84177 0.29427 0.0
C1209 C 0.17539 0.83647 0.28181 0.0
C1210 C 0.16803 0.83841 0.26777 0.0
C1211 C 0.15236 0.84604 0.26654 0.0
C1212 C 0.15129 0.84917 0.29265 0.0
C1213 C 0.14411 0.85133 0.27886 0.0
C1214 C 0.17053 0.80198 0.34407 0.0
C1215 C 0.17456 0.83946 0.30889 0.0
H1216 H 0.17246 0.85345 0.42256 0.0
H1217 H 0.21609 0.83906 0.44914 0.0
H1218 H 0.21652 0.83264 0.40314 0.0
H1219 H 0.23044 0.83012 0.4273 0.0
H1220 H 0.18735 0.83055 0.28307 0.0
H1221 H 0.14665 0.84821 0.256 0.0
H1222 H 0.14459 0.85326 0.30202 0.0
H1223 H 0.13209 0.85718 0.27771 0.0
Tb1224 Tb 0.83759 0.66197 0.66902 0.0
C1225 C 0.88444 0.73919 0.71178 0.0
C1226 C 0.92412 0.74968 0.71044 0.0
C1227 C 0.91364 0.77757 0.71614 0.0
C1228 C 0.90088 0.73354 0.70926 0.0
C1229 C 0.89054 0.76113 0.71559 0.0
C1230 C 0.93043 0.77185 0.71354 0.0
C1231 C 0.85064 0.74843 0.71924 0.0
N1232 N 0.86239 0.72278 0.71125 0.0
C1233 C 0.8455 0.72689 0.71546 0.0
C1234 C 0.87325 0.7657 0.71913 0.0
Tb1235 Tb 0.85548 0.68823 0.7043 0.0
N1236 N 0.894 0.71191 0.70647 0.0
C1237 C 0.90968 0.70502 0.70583 0.0
C1238 C 0.94026 0.74291 0.70888 0.0
C1239 C 0.93297 0.72042 0.7068 0.0
H1240 H 0.82796 0.71371 0.71549 0.0
H1241 H 0.94528 0.71491 0.70588 0.0
H1242 H 0.94821 0.78454 0.71435 0.0
H1243 H 0.83717 0.75169 0.72222 0.0
H1244 H 0.90449 0.68777 0.70414 0.0
H1245 H 0.74776 0.63526 0.66765 0.0
H1246 H 0.9583 0.75479 0.70965 0.0
H1247 H 0.86507 0.63652 0.65771 0.0
H1248 H 0.78856 0.66242 0.6693 0.0
H1249 H 0.85583 0.59854 0.65093 0.0
H1250 H 0.91871 0.79459 0.71891 0.0
H1251 H 0.73475 0.59538 0.66387 0.0
H1252 H 0.74482 0.56564 0.6591 0.0
H1253 H 0.8772 0.78235 0.72211 0.0
H1254 H 0.77431 0.55562 0.65441 0.0
N1255 N 0.79906 0.63829 0.6669 0.0
C1256 C 0.78338 0.64517 0.66759 0.0
C1257 C 0.75279 0.60727 0.6646 0.0
C1258 C 0.76892 0.60051 0.66297 0.0
C1259 C 0.76008 0.62976 0.66668 0.0
C1260 C 0.79217 0.61666 0.66409 0.0
H1261 H 0.8158 0.56788 0.65108 0.0
N1262 N 0.83065 0.62744 0.662 0.0
C1263 C 0.84237 0.6018 0.65394 0.0
C1264 C 0.8086 0.61103 0.66149 0.0
C1265 C 0.84753 0.62333 0.65775 0.0
C1266 C 0.81977 0.58453 0.65408 0.0
C1267 C 0.80249 0.58909 0.65767 0.0
O1268 O 0.85546 0.66987 0.64917 0.0
O1269 O 0.86405 0.6884 0.68175 0.0
O1270 O 0.85288 0.71212 0.68992 0.0
O1271 O 0.82826 0.68802 0.67225 0.0
O1272 O 0.87404 0.67363 0.66681 0.0
O1273 O 0.82608 0.67352 0.65158 0.0
O1274 O 0.8377 0.68048 0.72418 0.0
O1275 O 0.82904 0.66182 0.69157 0.0
O1276 O 0.84022 0.63808 0.68336 0.0
O1277 O 0.8648 0.66216 0.70107 0.0
O1278 O 0.81903 0.67657 0.7065 0.0
O1279 O 0.8669 0.67655 0.72172 0.0
C1280 C 0.8815 0.68933 0.67622 0.0
C1281 C 0.83399 0.66573 0.62795 0.0
C1282 C 0.83635 0.67031 0.60139 0.0
C1283 C 0.84338 0.67927 0.6155 0.0
C1284 C 0.8196 0.64771 0.6001 0.0
C1285 C 0.81738 0.64332 0.62621 0.0
C1286 C 0.81025 0.63441 0.61238 0.0
C1287 C 0.83869 0.70766 0.67886 0.0
C1288 C 0.84165 0.67499 0.64267 0.0
C1289 C 0.77938 0.57264 0.65718 0.0
C1290 C 0.7626 0.57835 0.65985 0.0
C1291 C 0.81157 0.66085 0.69709 0.0
C1292 C 0.85922 0.68446 0.74538 0.0
C1293 C 0.85118 0.67059 0.7578 0.0
C1294 C 0.85892 0.67943 0.77185 0.0
C1295 C 0.87443 0.7024 0.77315 0.0
C1296 C 0.8748 0.70717 0.74712 0.0
C1297 C 0.88226 0.71605 0.76091 0.0
C1298 C 0.85438 0.64253 0.69444 0.0
C1299 C 0.85142 0.6752 0.73066 0.0
H1300 H 0.85632 0.69658 0.6168 0.0
H1301 H 0.81341 0.6403 0.58954 0.0
H1302 H 0.80985 0.6327 0.63554 0.0
H1303 H 0.79734 0.61709 0.61117 0.0
H1304 H 0.83928 0.65297 0.75649 0.0
H1305 H 0.8804 0.70994 0.7837 0.0
H1306 H 0.88123 0.71805 0.73782 0.0
H1307 H 0.89419 0.73366 0.76212 0.0
Tb1308 Tb 0.36117 0.18009 0.67047 0.0
C1309 C 0.2778 0.14515 0.71004 0.0
C1310 C 0.26621 0.1728 0.70824 0.0
C1311 C 0.23799 0.13419 0.71305 0.0
C1312 C 0.28322 0.16681 0.70765 0.0
C1313 C 0.25523 0.1286 0.71308 0.0
C1314 C 0.24347 0.15628 0.71063 0.0
C1315 C 0.26881 0.1028 0.71709 0.0
N1316 N 0.29499 0.14054 0.71008 0.0
C1317 C 0.29095 0.11986 0.71409 0.0
C1318 C 0.25081 0.10712 0.71642 0.0
Tb1319 Tb 0.33057 0.16924 0.70437 0.0
N1320 N 0.3054 0.18222 0.70554 0.0
C1321 C 0.3119 0.20433 0.70502 0.0
C1322 C 0.27266 0.19526 0.70682 0.0
C1323 C 0.29566 0.21112 0.70542 0.0
H1324 H 0.30469 0.11628 0.71455 0.0
H1325 H 0.30091 0.2286 0.7046 0.0
H1326 H 0.23012 0.1605 0.71097 0.0
H1327 H 0.26564 0.08635 0.71992 0.0
H1328 H 0.32953 0.2169 0.70384 0.0
H1329 H 0.39065 0.12058 0.67011 0.0
H1330 H 0.26012 0.20056 0.70716 0.0
H1331 H 0.38721 0.23308 0.66035 0.0
H1332 H 0.36207 0.13235 0.67078 0.0
H1333 H 0.42637 0.26302 0.6552 0.0
H1334 H 0.22048 0.12169 0.71524 0.0
H1335 H 0.4315 0.1486 0.66787 0.0
H1336 H 0.46162 0.18869 0.66434 0.0
H1337 H 0.23368 0.09391 0.71881 0.0
H1338 H 0.47139 0.22756 0.66018 0.0
N1339 N 0.38628 0.16703 0.6693 0.0
C1340 C 0.37972 0.1449 0.66972 0.0
C1341 C 0.41898 0.15393 0.66814 0.0
C1342 C 0.4255 0.17641 0.66682 0.0
C1343 C 0.39594 0.13808 0.66936 0.0
C1344 C 0.4085 0.18243 0.66733 0.0
H1345 H 0.45828 0.25541 0.65651 0.0
N1346 N 0.39683 0.20877 0.66488 0.0
C1347 C 0.42314 0.24654 0.65801 0.0
C1348 C 0.41399 0.20413 0.66501 0.0
C1349 C 0.40094 0.22948 0.66089 0.0
C1350 C 0.44112 0.2422 0.6588 0.0
C1351 C 0.43662 0.22068 0.66211 0.0
O1352 O 0.35527 0.19031 0.65013 0.0
O1353 O 0.33247 0.17827 0.68182 0.0
O1354 O 0.30799 0.14318 0.68914 0.0
O1355 O 0.33492 0.14447 0.67288 0.0
O1356 O 0.34852 0.20342 0.66732 0.0
O1357 O 0.35096 0.15768 0.65296 0.0
O1358 O 0.33664 0.15915 0.72471 0.0
O1359 O 0.35919 0.17099 0.69299 0.0
O1360 O 0.38373 0.2061 0.68575 0.0
O1361 O 0.35671 0.20484 0.7019 0.0
O1362 O 0.34324 0.14592 0.70754 0.0
O1363 O 0.34085 0.19174 0.72183 0.0
C1364 C 0.33157 0.19433 0.67606 0.0
C1365 C 0.36123 0.17365 0.62955 0.0
C1366 C 0.35808 0.16982 0.60306 0.0
C1367 C 0.3481 0.16841 0.61675 0.0
C1368 C 0.38145 0.17683 0.60247 0.0
C1369 C 0.38441 0.18047 0.62862 0.0
C1370 C 0.39444 0.18209 0.61515 0.0
C1371 C 0.3141 0.13435 0.67855 0.0
C1372 C 0.3505 0.17175 0.64378 0.0
C1373 C 0.45384 0.21506 0.66224 0.0
C1374 C 0.44828 0.19293 0.66461 0.0
C1375 C 0.36013 0.15496 0.69874 0.0
C1376 C 0.33087 0.17594 0.7453 0.0
C1377 C 0.34409 0.18097 0.75804 0.0
C1378 C 0.33432 0.17974 0.77178 0.0
C1379 C 0.31105 0.17311 0.77248 0.0
C1380 C 0.30778 0.16946 0.74634 0.0
C1381 C 0.29795 0.16802 0.75986 0.0
C1382 C 0.37756 0.21494 0.6963 0.0
C1383 C 0.34144 0.17775 0.73102 0.0
H1384 H 0.33011 0.16291 0.61749 0.0
H1385 H 0.38982 0.17853 0.59218 0.0
H1386 H 0.39475 0.18451 0.63828 0.0
H1387 H 0.41239 0.18748 0.61452 0.0
H1388 H 0.362 0.18619 0.75723 0.0
H1389 H 0.30286 0.17159 0.78282 0.0
H1390 H 0.29737 0.16558 0.73672 0.0
H1391 H 0.28008 0.16292 0.76057 0.0
Tb1392 Tb 0.85498 0.16955 0.70367 0.0
C1393 C 0.80984 0.2051 0.66214 0.0
C1394 C 0.76984 0.17765 0.66326 0.0
C1395 C 0.78157 0.2163 0.65816 0.0
C1396 C 0.79289 0.18348 0.66438 0.0
C1397 C 0.80448 0.22174 0.65869 0.0
C1398 C 0.76426 0.19427 0.66046 0.0
C1399 C 0.84464 0.24732 0.65539 0.0
N1400 N 0.83167 0.20955 0.66264 0.0
C1401 C 0.84905 0.23017 0.6588 0.0
C1402 C 0.82226 0.24316 0.6555 0.0
Tb1403 Tb 0.8374 0.18073 0.66899 0.0
N1404 N 0.79907 0.16797 0.66691 0.0
C1405 C 0.78283 0.1459 0.66734 0.0
C1406 C 0.75315 0.15524 0.66458 0.0
C1407 C 0.75971 0.13926 0.66641 0.0
H1408 H 0.86643 0.23364 0.65877 0.0
H1409 H 0.74696 0.12182 0.66716 0.0
H1410 H 0.74665 0.19017 0.65969 0.0
H1411 H 0.85849 0.26372 0.6527 0.0
H1412 H 0.78743 0.13325 0.66883 0.0
H1413 H 0.94529 0.22886 0.70586 0.0
H1414 H 0.73524 0.15005 0.66384 0.0
H1415 H 0.82619 0.11653 0.71367 0.0
H1416 H 0.90478 0.21721 0.70413 0.0
H1417 H 0.83434 0.08652 0.71955 0.0
H1418 H 0.77707 0.22888 0.65566 0.0
H1419 H 0.95725 0.20077 0.70896 0.0
H1420 H 0.94607 0.16066 0.71283 0.0
H1421 H 0.81888 0.25644 0.65281 0.0
H1422 H 0.91581 0.12181 0.71666 0.0
N1423 N 0.89334 0.1825 0.70582 0.0
C1424 C 0.90947 0.20461 0.70554 0.0
C1425 C 0.93932 0.19549 0.7082 0.0
C1426 C 0.92273 0.17302 0.70937 0.0
C1427 C 0.93263 0.21138 0.7065 0.0
C1428 C 0.89964 0.16706 0.70823 0.0
H1429 H 0.87404 0.09404 0.71941 0.0
N1430 N 0.86091 0.14079 0.70987 0.0
C1431 C 0.84814 0.10299 0.71692 0.0
C1432 C 0.88278 0.14537 0.71036 0.0
C1433 C 0.8436 0.12009 0.71363 0.0
C1434 C 0.87056 0.10728 0.71679 0.0
C1435 C 0.88827 0.12878 0.71371 0.0
O1436 O 0.8374 0.15929 0.7236 0.0
O1437 O 0.82882 0.17157 0.69145 0.0
O1438 O 0.84088 0.20679 0.68394 0.0
O1439 O 0.86544 0.20514 0.70103 0.0
O1440 O 0.81835 0.14621 0.7059 0.0
O1441 O 0.86676 0.19178 0.72134 0.0
O1442 O 0.85509 0.1906 0.6491 0.0
O1443 O 0.86355 0.17877 0.68124 0.0
O1444 O 0.8516 0.14359 0.68862 0.0
O1445 O 0.82678 0.14515 0.67174 0.0
O1446 O 0.87404 0.20402 0.66672 0.0
O1447 O 0.82529 0.15842 0.65137 0.0
C1448 C 0.81118 0.15545 0.69687 0.0
C1449 C 0.85906 0.17567 0.74481 0.0
C1450 C 0.85849 0.17949 0.77131 0.0
C1451 C 0.85073 0.18103 0.75731 0.0
C1452 C 0.8744 0.17216 0.77248 0.0
C1453 C 0.87496 0.16855 0.74639 0.0
C1454 C 0.8825 0.16675 0.76014 0.0
C1455 C 0.85544 0.21542 0.69488 0.0
C1456 C 0.85127 0.17776 0.7302 0.0
C1457 C 0.91121 0.13435 0.71423 0.0
C1458 C 0.92843 0.15645 0.71206 0.0
C1459 C 0.8812 0.19486 0.67582 0.0
C1460 C 0.83347 0.17443 0.62786 0.0
C1461 C 0.84188 0.16897 0.61545 0.0
C1462 C 0.83461 0.17083 0.60137 0.0
C1463 C 0.81903 0.17855 0.60004 0.0
C1464 C 0.81788 0.18191 0.62612 0.0
C1465 C 0.81078 0.184 0.6123 0.0
C1466 C 0.83693 0.13493 0.67773 0.0
C1467 C 0.84099 0.1722 0.64252 0.0
H1468 H 0.83857 0.18672 0.75611 0.0
H1469 H 0.88043 0.17034 0.783 0.0
H1470 H 0.88159 0.16441 0.737 0.0
H1471 H 0.89472 0.16114 0.76125 0.0
H1472 H 0.85378 0.16298 0.6168 0.0
H1473 H 0.81338 0.18068 0.58946 0.0
H1474 H 0.8112 0.18613 0.63545 0.0
H1475 H 0.79883 0.18992 0.61106 0.0
H1476 H 0.35681 0.86159 0.0428 0.0
H1477 H 0.35365 0.9048 0.07519 0.0
H1478 H 0.39148 0.89288 0.03296 0.0
H1479 H 0.3887 0.93579 0.06573 0.0
H1480 H 0.4387 0.99244 0.03771 0.0
H1481 H 0.40284 0.96022 0.04516 0.0
H1482 H 0.43162 0.91778 0.03826 0.0
H1483 H 0.46747 0.95016 0.0307 0.0
C1484 C 0.36345 0.87774 0.04784 0.0
C1485 C 0.35222 0.88056 0.05981 0.0
C1486 C 0.38352 0.89567 0.04226 0.0
C1487 C 0.39295 0.917 0.04846 0.0
C1488 C 0.38183 0.91975 0.06049 0.0
C1489 C 0.36181 0.90183 0.06608 0.0
C1490 C 0.43722 0.97615 0.03757 0.0
C1491 C 0.45581 0.97384 0.0334 0.0
C1492 C 0.41672 0.95768 0.04198 0.0
C1493 C 0.41429 0.93632 0.04253 0.0
C1494 C 0.43273 0.93389 0.0379 0.0
C1495 C 0.45332 0.95246 0.0335 0.0
H1496 H 0.16232 0.50207 0.04404 0.0
H1497 H 0.11799 0.45578 0.0765 0.0
H1498 H 0.13052 0.50524 0.03437 0.0
H1499 H 0.08629 0.45885 0.06679 0.0
H1500 H 0.02875 0.45157 0.03818 0.0
H1501 H 0.06157 0.4487 0.04599 0.0
H1502 H 0.10486 0.51953 0.03994 0.0
H1503 H 0.07183 0.52225 0.03207 0.0
C1504 C 0.14588 0.49269 0.04923 0.0
C1505 C 0.14289 0.4786 0.0611 0.0
C1506 C 0.12758 0.49451 0.04364 0.0
C1507 C 0.10569 0.48223 0.0497 0.0
C1508 C 0.10274 0.46825 0.06161 0.0
C1509 C 0.12101 0.46647 0.06721 0.0
C1510 C 0.04534 0.46648 0.03835 0.0
C1511 C 0.04772 0.48704 0.03425 0.0
C1512 C 0.06417 0.46489 0.04295 0.0
C1513 C 0.08596 0.4839 0.04376 0.0
C1514 C 0.08843 0.50448 0.03935 0.0
C1515 C 0.0695 0.50606 0.03478 0.0
H1516 H 0.58673 0.68238 0.06494 0.0
H1517 H 0.51478 0.65813 0.06968 0.0
H1518 H 0.57832 0.64826 0.05239 0.0
H1519 H 0.50637 0.62396 0.05702 0.0
H1520 H 0.49994 0.57205 0.02342 0.0
H1521 H 0.50853 0.60785 0.03374 0.0
H1522 H 0.56324 0.60942 0.05872 0.0
H1523 H 0.55502 0.57406 0.04827 0.0
C1524 C 0.56909 0.66977 0.06334 0.0
C1525 C 0.55146 0.67301 0.06849 0.0
C1526 C 0.56427 0.65016 0.05612 0.0
C1527 C 0.54166 0.6332 0.05379 0.0
C1528 C 0.52398 0.63672 0.05849 0.0
C1529 C 0.52882 0.65636 0.06575 0.0
C1530 C 0.51397 0.58015 0.03099 0.0
C1531 C 0.52687 0.57015 0.03491 0.0
C1532 C 0.51876 0.60061 0.03701 0.0
C1533 C 0.53664 0.61163 0.04705 0.0
C1534 C 0.54958 0.60165 0.05087 0.0
C1535 C 0.54474 0.58122 0.04492 0.0
H1536 H 0.90791 0.33203 0.97716 0.0
H1537 H 0.86174 0.35699 0.97002 0.0
H1538 H 0.93456 0.36671 0.9891 0.0
H1539 H 0.88839 0.39166 0.98218 0.0
H1540 H 0.93442 0.44439 1.01584 0.0
H1541 H 0.90642 0.40852 1.00557 0.0
H1542 H 0.95997 0.40541 0.98239 0.0
H1543 H 0.9879 0.44095 0.99277 0.0
C1544 C 0.90341 0.34491 0.97808 0.0
C1545 C 0.88263 0.34162 0.97243 0.0
C1546 C 0.91875 0.36486 0.98497 0.0
C1547 C 0.9138 0.38216 0.98653 0.0
C1548 C 0.89273 0.37867 0.98131 0.0
C1549 C 0.87739 0.35871 0.97434 0.0
C1550 C 0.94027 0.43597 1.00866 0.0
C1551 C 0.96353 0.44561 1.00524 0.0
C1552 C 0.92415 0.41545 1.00266 0.0
C1553 C 0.93086 0.40394 0.99315 0.0
C1554 C 0.95414 0.41356 0.98982 0.0
C1555 C 0.97021 0.4341 0.99573 0.0
H1556 H 0.67143 0.56161 0.96451 0.0
H1557 H 0.66885 0.51431 0.9961 0.0
H1558 H 0.63678 0.5583 0.97461 0.0
H1559 H 0.634 0.51093 1.00618 0.0
H1560 H 0.55788 0.49409 1.00906 0.0
H1561 H 0.59368 0.49697 1.00112 0.0
H1562 H 0.62278 0.5679 0.99562 0.0
H1563 H 0.58703 0.56486 1.00343 0.0
C1564 C 0.66365 0.55064 0.9737 0.0
C1565 C 0.67319 0.53831 0.97944 0.0
C1566 C 0.64368 0.54874 0.97953 0.0
C1567 C 0.63251 0.53443 0.99133 0.0
C1568 C 0.6419 0.52194 0.99702 0.0
C1569 C 0.66195 0.52387 0.99119 0.0
C1570 C 0.5721 0.51033 1.00648 0.0
C1571 C 0.56971 0.52931 1.00707 0.0
C1572 C 0.59266 0.51201 1.00186 0.0
C1573 C 0.61119 0.53266 0.99751 0.0
C1574 C 0.60885 0.55165 0.99856 0.0
C1575 C 0.5884 0.54996 1.00317 0.0
H1576 H 0.48347 0.15426 1.00176 0.0
H1577 H 0.48181 0.13059 0.95823 0.0
H1578 H 0.4896 0.12492 1.01137 0.0
H1579 H 0.48767 0.10105 0.9679 0.0
H1580 H 0.47522 0.03767 0.99174 0.0
H1581 H 0.46858 0.06676 0.98231 0.0
H1582 H 0.51881 0.11391 1.01195 0.0
H1583 H 0.5256 0.08487 0.02136 0.0
C1584 C 0.48459 0.14293 0.9942 0.0
C1585 C 0.48224 0.14498 0.97917 0.0
C1586 C 0.48808 0.12605 0.99974 0.0
C1587 C 0.4892 0.11061 0.99043 0.0
C1588 C 0.48661 0.11246 0.97541 0.0
C1589 C 0.48321 0.12942 0.96986 0.0
C1590 C 0.48486 0.05421 0.99631 0.0
C1591 C 0.50082 0.05877 1.00746 0.0
C1592 C 0.48111 0.07095 0.99081 0.0
C1593 C 0.49313 0.09272 0.99635 0.0
C1594 C 0.50901 0.09728 1.00756 0.0
C1595 C 0.51288 0.08056 1.01298 0.0
H1596 H 0.69135 0.12 0.99304 0.0
H1597 H 0.6527 0.14571 0.97145 0.0
H1598 H 0.65649 0.09015 1.00352 0.0
H1599 H 0.61762 0.1152 0.98149 0.0
H1600 H 0.55921 0.06703 1.01071 0.0
H1601 H 0.59533 0.09944 1.00344 0.0
H1602 H 0.6235 0.0566 0.99599 0.0
H1603 H 0.58771 0.02455 1.00361 0.0
C1604 C 0.67544 0.11939 0.99054 0.0
C1605 C 0.67502 0.13541 0.98133 0.0
C1606 C 0.65533 0.10205 0.99647 0.0
C1607 C 0.63407 0.1001 0.99338 0.0
C1608 C 0.63363 0.11623 0.98428 0.0
C1609 C 0.65378 0.13359 0.97833 0.0
C1610 C 0.57331 0.06467 1.00787 0.0
C1611 C 0.57075 0.04327 1.00801 0.0
C1612 C 0.59396 0.08321 1.0035 0.0
C1613 C 0.61247 0.08076 0.99905 0.0
C1614 C 0.60988 0.05933 0.99951 0.0
C1615 C 0.58931 0.04089 1.00384 0.0
H1616 H 0.90013 0.57065 0.98626 0.0
H1617 H 0.87427 0.50581 0.96686 0.0
H1618 H 0.92923 0.56625 0.99885 0.0
H1619 H 0.90413 0.50195 0.97881 0.0
H1620 H 0.95297 0.494 1.00834 0.0
H1621 H 0.91997 0.49674 1.00053 0.0
H1622 H 0.96368 0.56727 0.99327 0.0
H1623 H 0.99624 0.56451 1.00163 0.0
C1624 C 0.90044 0.55533 0.98475 0.0
C1625 C 0.88478 0.5387 0.97537 0.0
C1626 C 0.91742 0.55292 0.99186 0.0
C1627 C 0.91938 0.53383 0.98979 0.0
C1628 C 0.90321 0.51685 0.98082 0.0
C1629 C 0.88619 0.51922 0.97376 0.0
C1630 C 0.95538 0.51016 1.00546 0.0
C1631 C 0.97718 0.52914 1.00589 0.0
C1632 C 0.93648 0.51172 1.00075 0.0
C1633 C 0.93897 0.53225 0.99617 0.0
C1634 C 0.96081 0.55123 0.99691 0.0
C1635 C 0.9796 0.54966 1.00163 0.0
H1636 H 0.47048 0.36117 0.95065 0.0
H1637 H 0.4812 0.3345 0.99036 0.0
H1638 H 0.479 0.3952 0.9632 0.0
H1639 H 0.48967 0.36878 1.00305 0.0
H1640 H 0.52452 0.44357 0.01668 0.0
H1641 H 0.51685 0.40871 1.00523 0.0
H1642 H 0.46195 0.40764 0.98075 0.0
H1643 H 0.46976 0.44236 0.99192 0.0
C1644 C 0.47445 0.36247 0.96212 0.0
C1645 C 0.47484 0.34489 0.9695 0.0
C1646 C 0.47934 0.38205 0.96935 0.0
C1647 C 0.48474 0.38472 0.98423 0.0
C1648 C 0.48571 0.36739 0.99158 0.0
C1649 C 0.48084 0.34772 0.9843 0.0
C1650 C 0.51068 0.43578 1.00895 0.0
C1651 C 0.49783 0.44591 1.00522 0.0
C1652 C 0.50626 0.41575 1.00239 0.0
C1653 C 0.48892 0.40541 0.99191 0.0
C1654 C 0.47577 0.41531 0.9885 0.0
C1655 C 0.48018 0.43525 0.99501 0.0
H1656 H 0.12515 0.65486 0.0895 0.0
H1657 H 0.15905 0.68202 0.04872 0.0
H1658 H 0.09755 0.62095 0.07725 0.0
H1659 H 0.13088 0.64812 0.03633 0.0
H1660 H 0.09008 0.57316 0.02298 0.0
H1661 H 0.11834 0.60812 0.03412 0.0
H1662 H 0.06582 0.60797 0.06054 0.0
H1663 H 0.03766 0.57319 0.04945 0.0
C1664 C 0.12681 0.6536 0.07791 0.0
C1665 C 0.1445 0.67125 0.07015 0.0
C1666 C 0.11075 0.63418 0.07083 0.0
C1667 C 0.11184 0.63173 0.05576 0.0
C1668 C 0.12957 0.64932 0.04796 0.0
C1669 C 0.14561 0.66887 0.05505 0.0
C1670 C 0.08447 0.5807 0.03102 0.0
C1671 C 0.06146 0.57025 0.03523 0.0
C1672 C 0.10073 0.60081 0.03742 0.0
C1673 C 0.09446 0.61089 0.04832 0.0
C1674 C 0.0714 0.60057 0.05237 0.0
C1675 C 0.05517 0.58059 0.04592 0.0
H1676 H 0.36047 0.45431 0.08133 0.0
H1677 H 0.35366 0.49663 0.04974 0.0
H1678 H 0.39359 0.45826 0.06856 0.0
H1679 H 0.38707 0.50046 0.03671 0.0
H1680 H 0.46593 0.52106 0.03148 0.0
H1681 H 0.4301 0.51738 0.04039 0.0
H1682 H 0.40266 0.44666 0.04558 0.0
H1683 H 0.43823 0.4504 0.03672 0.0
C1684 C 0.36606 0.46451 0.07164 0.0
C1685 C 0.35439 0.47523 0.06664 0.0
C1686 C 0.38498 0.46661 0.0642 0.0
C1687 C 0.39302 0.4796 0.05152 0.0
C1688 C 0.38141 0.49039 0.04646 0.0
C1689 C 0.36218 0.48806 0.05386 0.0
C1690 C 0.452 0.50469 0.03414 0.0
C1691 C 0.45484 0.48597 0.03329 0.0
C1692 C 0.43147 0.50256 0.0393 0.0
C1693 C 0.41356 0.48175 0.04394 0.0
C1694 C 0.41618 0.46299 0.04238 0.0
C1695 C 0.43652 0.4651 0.03721 0.0
H1696 H 0.50471 0.85097 0.06173 0.0
H1697 H 0.57735 0.89565 0.06308 0.0
H1698 H 0.49941 0.88071 0.05194 0.0
H1699 H 0.57208 0.92542 0.0532 0.0
H1700 H 0.55211 0.97941 0.04907 0.0
H1701 H 0.55775 0.94991 0.0589 0.0
H1702 H 0.50531 0.9025 0.03044 0.0
H1703 H 0.49911 0.93185 0.02097 0.0
C1704 C 0.51959 0.8671 0.05984 0.0
C1705 C 0.54148 0.87083 0.06319 0.0
C1706 C 0.51655 0.8842 0.05418 0.0
C1707 C 0.5353 0.90554 0.05167 0.0
C1708 C 0.55718 0.90933 0.05514 0.0
C1709 C 0.56022 0.89222 0.06084 0.0
C1710 C 0.54178 0.96271 0.04486 0.0
C1711 C 0.52523 0.95812 0.03412 0.0
C1712 C 0.54513 0.94577 0.05046 0.0
C1713 C 0.53201 0.92373 0.0455 0.0
C1714 C 0.51556 0.91918 0.03468 0.0
C1715 C 0.51218 0.93612 0.0291 0.0
H1716 H 1.00164 0.22996 0.38032 0.0
H1717 H 0.03992 0.204 0.40209 0.0
H1718 H 0.0367 0.25996 0.37012 0.0
H1719 H 0.07517 0.23461 0.39233 0.0
H1720 H 0.13402 0.283 0.36353 0.0
H1721 H 0.09775 0.25056 0.37051 0.0
H1722 H 0.06963 0.29343 0.37797 0.0
H1723 H 0.10559 0.32553 0.37063 0.0
C1724 C 0.01751 0.23055 0.38292 0.0
C1725 C 0.01778 0.21442 0.3921 0.0
C1726 C 0.03773 0.24796 0.37715 0.0
C1727 C 0.05892 0.24987 0.38038 0.0
C1728 C 0.05921 0.23363 0.38944 0.0
C1729 C 0.03896 0.2162 0.39523 0.0
C1730 C 0.1199 0.28537 0.3663 0.0
C1731 C 0.12252 0.30679 0.36624 0.0
C1732 C 0.09917 0.26681 0.37052 0.0
C1733 C 0.08062 0.26926 0.37488 0.0
C1734 C 0.08327 0.29071 0.37451 0.0
C1735 C 0.10394 0.30918 0.37034 0.0
H1736 H 0.81932 0.84023 0.40315 0.0
H1737 H 0.79157 0.77695 0.3813 0.0
H1738 H 0.78795 0.8445 0.39395 0.0
H1739 H 0.76085 0.78168 0.37162 0.0
H1740 H 0.69447 0.78428 0.37188 0.0
H1741 H 0.72697 0.78075 0.37946 0.0
H1742 H 0.77138 0.85126 0.37263 0.0
H1743 H 0.73852 0.85475 0.36547 0.0
C1744 C 0.80656 0.82719 0.39641 0.0
C1745 C 0.8081 0.80817 0.39307 0.0
C1746 C 0.78868 0.82981 0.39093 0.0
C1747 C 0.77172 0.81347 0.38199 0.0
C1748 C 0.77336 0.79454 0.37858 0.0
C1749 C 0.79121 0.79193 0.38404 0.0
C1750 C 0.71124 0.79897 0.37183 0.0
C1751 C 0.71395 0.81968 0.36777 0.0
C1752 C 0.72995 0.79696 0.37612 0.0
C1753 C 0.75198 0.81568 0.37666 0.0
C1754 C 0.75471 0.83647 0.3725 0.0
C1755 C 0.7359 0.83846 0.36818 0.0
H1756 H 0.25426 0.01673 0.39733 0.0
H1757 H 0.1823 0.99197 0.40261 0.0
H1758 H 0.24591 0.98277 0.38459 0.0
H1759 H 0.17394 0.95796 0.38974 0.0
H1760 H 0.16761 0.90635 0.35583 0.0
H1761 H 0.17606 0.94207 0.36624 0.0
H1762 H 0.23109 0.94391 0.39099 0.0
H1763 H 0.22299 0.90863 0.38048 0.0
C1764 C 0.23663 1.00403 0.3958 0.0
C1765 C 0.21898 0.00708 0.40118 0.0
C1766 C 0.23184 0.98453 0.38847 0.0
C1767 C 0.20925 0.96747 0.38625 0.0
C1768 C 0.19154 0.9708 0.39114 0.0
C1769 C 0.19635 0.99034 0.39853 0.0
C1770 C 0.18168 0.91449 0.36337 0.0
C1771 C 0.19469 0.90459 0.36722 0.0
C1772 C 0.18639 0.9349 0.36944 0.0
C1773 C 0.20431 0.94596 0.37944 0.0
C1774 C 0.21739 0.93609 0.38317 0.0
C1775 C 0.21262 0.91571 0.37719 0.0
H1776 H 0.52832 0.69032 0.30347 0.0
H1777 H 0.57427 0.66519 0.31091 0.0
H1778 H 0.55493 0.72499 0.31564 0.0
H1779 H 0.60088 0.69985 0.32289 0.0
H1780 H 0.65441 0.77397 0.32645 0.0
H1781 H 0.62642 0.73841 0.31614 0.0
H1782 H 0.57291 0.74205 0.33898 0.0
H1783 H 0.60098 0.77797 0.34917 0.0
C1784 C 0.54391 0.692 0.30786 0.0
C1785 C 0.54911 0.67487 0.30603 0.0
C1786 C 0.55924 0.71196 0.31484 0.0
C1787 C 0.58023 0.7154 0.32016 0.0
C1788 C 0.58513 0.69804 0.31868 0.0
C1789 C 0.56981 0.6781 0.31177 0.0
C1790 C 0.63671 0.76723 0.32935 0.0
C1791 C 0.63008 0.77891 0.33875 0.0
C1792 C 0.62061 0.74668 0.32349 0.0
C1793 C 0.59732 0.73719 0.32674 0.0
C1794 C 0.59064 0.74887 0.33614 0.0
C1795 C 0.6068 0.76942 0.34209 0.0
H1796 H 0.34059 0.89556 0.29848 0.0
H1797 H 0.33616 0.84756 0.33013 0.0
H1798 H 0.30521 0.89185 0.30762 0.0
H1799 H 0.30116 0.8445 0.33966 0.0
H1800 H 0.2253 0.82798 0.34177 0.0
H1801 H 0.26114 0.83066 0.33414 0.0
H1802 H 0.29048 0.90155 0.32821 0.0
H1803 H 0.25469 0.8987 0.33573 0.0
C1804 C 0.33208 0.88414 0.30736 0.0
C1805 C 0.34145 0.87192 0.31352 0.0
C1806 C 0.31185 0.88222 0.31277 0.0
C1807 C 0.30026 0.86799 0.32452 0.0
C1808 C 0.30945 0.85554 0.33057 0.0
C1809 C 0.32973 0.8575 0.32518 0.0
C1810 C 0.23957 0.84417 0.33915 0.0
C1811 C 0.23726 0.8632 0.33958 0.0
C1812 C 0.26016 0.84574 0.3347 0.0
C1813 C 0.27879 0.86632 0.33035 0.0
C1814 C 0.27648 0.88535 0.33116 0.0
C1815 C 0.25601 0.88378 0.33562 0.0
H1816 H 0.14242 0.4598 0.29145 0.0
H1817 H 0.15526 0.49014 0.33385 0.0
H1818 H 0.1495 0.43104 0.30105 0.0
H1819 H 0.16131 0.46085 0.34357 0.0
H1820 H 0.19419 0.41818 0.35284 0.0
H1821 H 0.18768 0.44733 0.34331 0.0
H1822 H 0.13306 0.39891 0.31653 0.0
H1823 H 0.13974 0.36985 0.32592 0.0
C1824 C 0.14677 0.46039 0.30281 0.0
C1825 C 0.14821 0.47738 0.31184 0.0
C1826 C 0.15056 0.44369 0.30838 0.0
C1827 C 0.15593 0.44348 0.32313 0.0
C1828 C 0.15746 0.46052 0.33213 0.0
C1829 C 0.15367 0.47721 0.32657 0.0
C1830 C 0.18063 0.41368 0.34503 0.0
C1831 C 0.16741 0.39156 0.34026 0.0
C1832 C 0.17688 0.43044 0.33955 0.0
C1833 C 0.15984 0.42557 0.3291 0.0
C1834 C 0.14657 0.40342 0.32438 0.0
C1835 C 0.15032 0.38667 0.32986 0.0
H1836 H 0.33909 0.44499 0.29823 0.0
H1837 H 0.33598 0.48838 0.33051 0.0
H1838 H 0.30407 0.41405 0.30776 0.0
H1839 H 0.30138 0.45714 0.34043 0.0
H1840 H 0.22557 0.39977 0.34321 0.0
H1841 H 0.26127 0.43212 0.33539 0.0
H1842 H 0.29002 0.3897 0.32832 0.0
H1843 H 0.25431 0.35752 0.336 0.0
C1844 C 0.33095 0.44801 0.30733 0.0
C1845 C 0.34056 0.46932 0.31355 0.0
C1846 C 0.31095 0.43011 0.31296 0.0
C1847 C 0.29986 0.43292 0.325 0.0
C1848 C 0.30929 0.45429 0.33112 0.0
C1849 C 0.32935 0.4722 0.3255 0.0
C1850 C 0.23969 0.39747 0.34031 0.0
C1851 C 0.23723 0.37611 0.34043 0.0
C1852 C 0.26019 0.41603 0.33576 0.0
C1853 C 0.27858 0.4136 0.33102 0.0
C1854 C 0.27618 0.39225 0.33158 0.0
C1855 C 0.25577 0.3738 0.33612 0.0
H1856 H 0.53363 0.85431 0.32303 0.0
H1857 H 0.58285 0.89553 0.29078 0.0
H1858 H 0.56327 0.85025 0.33577 0.0
H1859 H 0.61208 0.89132 0.30327 0.0
H1860 H 0.66546 0.89902 0.33499 0.0
H1861 H 0.63394 0.9031 0.32594 0.0
H1862 H 0.58825 0.8327 0.33198 0.0
H1863 H 0.62009 0.82867 0.34102 0.0
C1864 C 0.55074 0.86258 0.31869 0.0
C1865 C 0.55577 0.87517 0.30581 0.0
C1866 C 0.56768 0.86011 0.32593 0.0
C1867 C 0.59014 0.87052 0.3206 0.0
C1868 C 0.5951 0.88327 0.30783 0.0
C1869 C 0.57822 0.88551 0.30056 0.0
C1870 C 0.64861 0.88446 0.33461 0.0
C1871 C 0.64527 0.86359 0.33887 0.0
C1872 C 0.63054 0.88676 0.32934 0.0
C1873 C 0.60853 0.8682 0.32804 0.0
C1874 C 0.60492 0.84738 0.33289 0.0
C1875 C 0.62315 0.84506 0.33812 0.0
H1876 H 0.14966 0.66901 0.32317 0.0
H1877 H 0.13773 0.69504 0.28358 0.0
H1878 H 0.1579 0.70324 0.33583 0.0
H1879 H 0.14604 0.72904 0.2961 0.0
H1880 H 0.1369 0.77621 0.32484 0.0
H1881 H 0.12919 0.74148 0.31372 0.0
H1882 H 0.18464 0.74316 0.3379 0.0
H1883 H 0.19219 0.778 0.34931 0.0
C1884 C 0.14898 0.68208 0.31713 0.0
C1885 C 0.14272 0.67909 0.30238 0.0
C1886 C 0.15372 0.70173 0.32439 0.0
C1887 C 0.15236 0.71887 0.31707 0.0
C1888 C 0.14668 0.71603 0.30223 0.0
C1889 C 0.14192 0.69647 0.29502 0.0
C1890 C 0.14746 0.76922 0.32788 0.0
C1891 C 0.16523 0.78004 0.33798 0.0
C1892 C 0.1431 0.74928 0.3214 0.0
C1893 C 0.15645 0.73955 0.32474 0.0
C1894 C 0.1739 0.75005 0.33512 0.0
C1895 C 0.17826 0.77008 0.34166 0.0
H1896 H 0.83066 0.99226 0.40316 0.0
H1897 H 0.78496 0.01762 0.39546 0.0
H1898 H 0.80394 0.95753 0.39109 0.0
H1899 H 0.75824 0.98288 0.38359 0.0
H1900 H 0.70449 0.90875 0.38033 0.0
H1901 H 0.73259 0.94435 0.39054 0.0
H1902 H 0.78594 0.94042 0.36771 0.0
H1903 H 0.75776 0.90447 0.35761 0.0
C1904 C 0.8151 0.99062 0.39874 0.0
C1905 C 0.81 0.00783 0.40046 0.0
C1906 C 0.79972 0.97062 0.39181 0.0
C1907 C 0.77876 0.96723 0.38646 0.0
C1908 C 0.77396 0.98466 0.38783 0.0
C1909 C 0.78934 1.00464 0.39468 0.0
C1910 C 0.72218 0.91543 0.37741 0.0
C1911 C 0.72874 0.90366 0.36804 0.0
C1912 C 0.73834 0.936 0.38322 0.0
C1913 C 0.7616 0.94541 0.37994 0.0
C1914 C 0.76822 0.93365 0.37058 0.0
C1915 C 0.752 0.91309 0.36467 0.0
H1916 H 0.04418 0.84443 0.40528 0.0
H1917 H 1.00336 0.77992 0.38552 0.0
H1918 H 0.0778 0.8484 0.3931 0.0
H1919 H 0.03676 0.78442 0.37273 0.0
H1920 H 0.10542 0.78582 0.37008 0.0
H1921 H 0.07009 0.78315 0.3783 0.0
H1922 H 0.09877 0.85376 0.37123 0.0
H1923 H 0.13453 0.8564 0.36349 0.0
C1924 C 0.04226 0.83112 0.39825 0.0
C1925 C 0.02089 0.8117 0.39661 0.0
C1926 C 0.0616 0.83356 0.39106 0.0
C1927 C 0.06024 0.81668 0.38194 0.0
C1928 C 0.03869 0.79766 0.37983 0.0
C1929 C 0.01936 0.79519 0.38706 0.0
C1930 C 0.10403 0.80071 0.37005 0.0
C1931 C 0.12269 0.82123 0.36592 0.0
C1932 C 0.08367 0.79919 0.37471 0.0
C1933 C 0.08134 0.81822 0.3755 0.0
C1934 C 0.09989 0.83874 0.37096 0.0
C1935 C 0.12036 0.84025 0.36631 0.0
H1936 H 0.20404 0.19241 0.37337 0.0
H1937 H 0.2131 0.22077 0.4162 0.0
H1938 H 0.19856 0.222 0.36353 0.0
H1939 H 0.20766 0.25044 0.40632 0.0
H1940 H 0.21918 0.31243 0.38145 0.0
H1941 H 0.22537 0.28312 0.391 0.0
H1942 H 0.17167 0.23524 0.36346 0.0
H1943 H 0.16556 0.26458 0.35383 0.0
C1944 C 0.20467 0.20483 0.38074 0.0
C1945 C 0.20893 0.20405 0.39563 0.0
C1946 C 0.20152 0.22186 0.37507 0.0
C1947 C 0.20259 0.23866 0.3841 0.0
C1948 C 0.20703 0.23799 0.39898 0.0
C1949 C 0.21016 0.22094 0.40466 0.0
C1950 C 0.2087 0.29568 0.37737 0.0
C1951 C 0.19196 0.29099 0.36675 0.0
C1952 C 0.21218 0.2788 0.38294 0.0
C1953 C 0.19903 0.25673 0.37804 0.0
C1954 C 0.18237 0.25207 0.36735 0.0
C1955 C 0.17885 0.26894 0.36181 0.0
H1956 H 0.68966 0.52861 0.70995 0.0
H1957 H 0.68929 0.57226 0.74314 0.0
H1958 H 0.7242 0.55953 0.69966 0.0
H1959 H 0.72357 0.60305 0.73279 0.0
H1960 H 0.7722 0.65917 0.70401 0.0
H1961 H 0.7365 0.62707 0.71181 0.0
H1962 H 0.76493 0.58443 0.70453 0.0
H1963 H 0.80067 0.61672 0.69666 0.0
C1964 C 0.69698 0.54471 0.71516 0.0
C1965 C 0.68646 0.54779 0.72742 0.0
C1966 C 0.71682 0.5625 0.7092 0.0
C1967 C 0.72669 0.58392 0.71529 0.0
C1968 C 0.71626 0.58695 0.72759 0.0
C1969 C 0.6965 0.5692 0.73355 0.0
C1970 C 0.77067 0.64286 0.70386 0.0
C1971 C 0.78916 0.64048 0.69952 0.0
C1972 C 0.75027 0.62446 0.70846 0.0
C1973 C 0.74781 0.60309 0.70902 0.0
C1974 C 0.76609 0.60056 0.70418 0.0
C1975 C 0.7866 0.61908 0.69959 0.0
H1976 H 0.45078 0.12131 0.74362 0.0
H1977 H 0.49528 0.16799 0.71138 0.0
H1978 H 0.41916 0.12459 0.73398 0.0
H1979 H 0.46355 0.17134 0.70177 0.0
H1980 H 0.40513 0.18863 0.69963 0.0
H1981 H 0.43803 0.18566 0.70744 0.0
H1982 H 0.39446 0.11481 0.71323 0.0
H1983 H 0.36175 0.11794 0.70549 0.0
C1984 C 0.45385 0.13213 0.73439 0.0
C1985 C 0.47576 0.14432 0.72832 0.0
C1986 C 0.43562 0.13402 0.72883 0.0
C1987 C 0.43865 0.14817 0.71701 0.0
C1988 C 0.46056 0.16048 0.71098 0.0
C1989 C 0.47882 0.15856 0.71653 0.0
C1990 C 0.40271 0.17239 0.70226 0.0
C1991 C 0.38089 0.15344 0.70168 0.0
C1992 C 0.42157 0.17066 0.7068 0.0
C1993 C 0.41899 0.14999 0.71112 0.0
C1994 C 0.39715 0.13106 0.71026 0.0
C1995 C 0.37839 0.1328 0.7057 0.0
H1996 H 0.84854 0.32521 0.73568 0.0
H1997 H 0.92049 0.34983 0.73052 0.0
H1998 H 0.84016 0.2911 0.72293 0.0
H1999 H 0.91211 0.31577 0.71789 0.0
H2000 H 0.88906 0.24157 0.71406 0.0
H2001 H 0.8972 0.27694 0.72445 0.0
H2002 H 0.84232 0.27507 0.6995 0.0
H2003 H 0.83384 0.23927 0.68922 0.0
C2004 C 0.86258 0.32353 0.73165 0.0
C2005 C 0.88522 0.34025 0.7343 0.0
C2006 C 0.85776 0.30394 0.72433 0.0
C2007 C 0.87545 0.30054 0.71951 0.0
C2008 C 0.89805 0.31759 0.72172 0.0
C2009 C 0.90286 0.33715 0.72899 0.0
C2010 C 0.87873 0.24866 0.7107 0.0
C2011 C 0.86084 0.23752 0.70072 0.0
C2012 C 0.88352 0.2691 0.71661 0.0
C2013 C 0.8705 0.27899 0.71278 0.0
C2014 C 0.85261 0.26789 0.70277 0.0
C2015 C 0.84788 0.24744 0.69677 0.0
H2016 H 0.19556 0.02366 0.637 0.0
H2017 H 0.2414 0.9985 0.64485 0.0
H2018 H 0.22206 0.05834 0.64922 0.0
H2019 H 0.26791 0.0332 0.65683 0.0
H2020 H 0.32139 0.10743 0.6603 0.0
H2021 H 0.29348 0.07186 0.64993 0.0
H2022 H 0.23981 0.07523 0.67275 0.0
H2023 H 0.26779 0.11112 0.68303 0.0
C2024 C 0.2111 0.02533 0.64148 0.0
C2025 C 0.21631 0.0082 0.63975 0.0
C2026 C 0.22636 0.0453 0.64848 0.0
C2027 C 0.2473 0.04874 0.65391 0.0
C2028 C 0.25219 0.03138 0.65254 0.0
C2029 C 0.23693 0.01142 0.64562 0.0
C2030 C 0.30367 0.10063 0.66319 0.0
C2031 C 0.29696 0.11221 0.6726 0.0
C2032 C 0.28763 0.08008 0.65728 0.0
C2033 C 0.26433 0.07053 0.66052 0.0
C2034 C 0.25756 0.08211 0.66993 0.0
C2035 C 0.27367 0.10264 0.67593 0.0
H2036 H 0.98702 0.17557 0.63746 0.0
H2037 H 0.0247 0.23834 0.65982 0.0
H2038 H 0.95153 0.17131 0.64704 0.0
H2039 H 0.98944 0.2336 0.66988 0.0
H2040 H 0.92082 0.23191 0.66965 0.0
H2041 H 0.95676 0.23513 0.66224 0.0
H2042 H 0.92821 0.16437 0.66848 0.0
H2043 H 0.89189 0.16121 0.6755 0.0
C2044 C 0.98781 0.18849 0.6444 0.0
C2045 C 1.00892 0.20737 0.64775 0.0
C2046 C 0.9674 0.18587 0.6501 0.0
C2047 C 0.96744 0.20208 0.65929 0.0
C2048 C 0.98857 0.22084 0.66274 0.0
C2049 C 1.00893 0.22345 0.65706 0.0
C2050 C 0.92235 0.21709 0.66965 0.0
C2051 C 0.90363 0.19641 0.67344 0.0
C2052 C 0.94302 0.21892 0.66545 0.0
C2053 C 0.9456 0.20003 0.66473 0.0
C2054 C 0.92689 0.17928 0.66874 0.0
C2055 C 0.90612 0.17748 0.67298 0.0
H2056 H 0.82215 0.82394 0.66697 0.0
H2057 H 0.81313 0.79576 0.62409 0.0
H2058 H 0.82772 0.79436 0.67674 0.0
H2059 H 0.81865 0.76609 0.63389 0.0
H2060 H 0.80723 0.70405 0.65868 0.0
H2061 H 0.80097 0.73335 0.6492 0.0
H2062 H 0.85474 0.78123 0.6767 0.0
H2063 H 0.86093 0.75192 0.68626 0.0
C2064 C 0.82155 0.81156 0.65958 0.0
C2065 C 0.81727 0.81239 0.6447 0.0
C2066 C 0.82475 0.79454 0.6652 0.0
C2067 C 0.82371 0.77779 0.65613 0.0
C2068 C 0.81926 0.7785 0.64126 0.0
C2069 C 0.81608 0.79555 0.63563 0.0
C2070 C 0.81771 0.7208 0.66277 0.0
C2071 C 0.83449 0.7255 0.67337 0.0
C2072 C 0.81419 0.73767 0.65724 0.0
C2073 C 0.82733 0.75973 0.66214 0.0
C2074 C 0.84404 0.76441 0.6728 0.0
C2075 C 0.8476 0.74754 0.67831 0.0
H2076 H 0.98632 0.81225 0.63769 0.0
H2077 H 0.02475 0.7864 0.65938 0.0
H2078 H 0.95114 0.78169 0.64757 0.0
H2079 H 0.98977 0.75646 0.6697 0.0
H2080 H 0.9209 0.6909 0.6695 0.0
H2081 H 0.95679 0.72294 0.66202 0.0
H2082 H 0.92871 0.76586 0.66944 0.0
H2083 H 0.8925 0.73347 0.67657 0.0
C2084 C 0.98733 0.80009 0.64455 0.0
C2085 C 1.00854 0.80188 0.64764 0.0
C2086 C 0.96712 0.78269 0.65041 0.0
C2087 C 0.96747 0.76649 0.65949 0.0
C2088 C 0.98869 0.76842 0.66266 0.0
C2089 C 1.00887 0.7858 0.65683 0.0
C2090 C 0.92254 0.70725 0.66976 0.0
C2091 C 0.90398 0.70966 0.67388 0.0
C2092 C 0.94317 0.72569 0.66551 0.0
C2093 C 0.94582 0.74714 0.66508 0.0
C2094 C 0.9273 0.74962 0.66947 0.0
C2095 C 0.9066 0.73108 0.67377 0.0
H2096 H 0.23386 0.23749 0.65367 0.0
H2097 H 0.2084 0.17314 0.63363 0.0
H2098 H 0.26286 0.23289 0.66623 0.0
H2099 H 0.23814 0.16907 0.6456 0.0
H2100 H 0.28654 0.16066 0.6754 0.0
H2101 H 0.25362 0.16349 0.66749 0.0
H2102 H 0.29745 0.23406 0.66046 0.0
H2103 H 0.32994 0.23119 0.66887 0.0
C2104 C 0.23423 0.22223 0.65202 0.0
C2105 C 0.21871 0.20579 0.64247 0.0
C2106 C 0.25115 0.21971 0.65911 0.0
C2107 C 0.25318 0.20069 0.65688 0.0
C2108 C 0.23716 0.18389 0.64773 0.0
C2109 C 0.2202 0.18639 0.64067 0.0
C2110 C 0.28899 0.17684 0.67254 0.0
C2111 C 0.3108 0.1958 0.67305 0.0
C2112 C 0.27015 0.17845 0.66779 0.0
C2113 C 0.2727 0.19903 0.66326 0.0
C2114 C 0.29455 0.21799 0.66407 0.0
C2115 C 0.31328 0.21635 0.66882 0.0
H2116 H 0.80459 0.02844 0.61705 0.0
H2117 H 0.81621 1.00208 0.65659 0.0
H2118 H 0.81294 0.06239 0.62965 0.0
H2119 H 0.82449 0.03626 0.66934 0.0
H2120 H 0.8587 0.11105 0.68296 0.0
H2121 H 0.85129 0.07628 0.6715 0.0
H2122 H 0.79578 0.07449 0.64733 0.0
H2123 H 0.80334 0.10913 0.6585 0.0
C2124 C 0.80874 0.0298 0.62849 0.0
C2125 C 0.80941 0.01233 0.63582 0.0
C2126 C 0.81352 0.04932 0.63575 0.0
C2127 C 0.81909 0.05204 0.6506 0.0
C2128 C 0.82038 0.03483 0.65789 0.0
C2129 C 0.81562 0.01521 0.65058 0.0
C2130 C 0.84479 0.10311 0.6753 0.0
C2131 C 0.8317 0.11302 0.67164 0.0
C2132 C 0.84051 0.08313 0.66873 0.0
C2133 C 0.82309 0.07263 0.65833 0.0
C2134 C 0.80968 0.0823 0.65502 0.0
C2135 C 0.81395 0.10219 0.66153 0.0
H2136 H 0.49425 0.34754 0.71643 0.0
H2137 H 0.45289 0.32589 0.75506 0.0
H2138 H 0.46728 0.31283 0.70432 0.0
H2139 H 0.42627 0.29128 0.74317 0.0
H2140 H 0.37005 0.24179 0.71442 0.0
H2141 H 0.39775 0.27697 0.72519 0.0
H2142 H 0.45194 0.27326 0.70325 0.0
H2143 H 0.42399 0.23813 0.69214 0.0
C2144 C 0.47953 0.33532 0.72239 0.0
C2145 C 0.47566 0.33972 0.73668 0.0
C2146 C 0.46403 0.31535 0.71545 0.0
C2147 C 0.44431 0.29919 0.72265 0.0
C2148 C 0.44084 0.30346 0.73707 0.0
C2149 C 0.4562 0.32338 0.74394 0.0
C2150 C 0.38784 0.24844 0.71181 0.0
C2151 C 0.39468 0.23699 0.70237 0.0
C2152 C 0.40384 0.26865 0.7181 0.0
C2153 C 0.42727 0.27804 0.71528 0.0
C2154 C 0.4341 0.26677 0.70562 0.0
C2155 C 0.41802 0.24653 0.69925 0.0
H2156 H 0.66967 0.11297 0.71924 0.0
H2157 H 0.71066 0.1776 0.73881 0.0
H2158 H 0.70297 0.11738 0.70637 0.0
H2159 H 0.74418 0.18148 0.72655 0.0
H2160 H 0.80074 0.18927 0.69693 0.0
H2161 H 0.76501 0.18669 0.70465 0.0
H2162 H 0.73631 0.11611 0.71189 0.0
H2163 H 0.77162 0.11873 0.70367 0.0
C2164 C 0.68569 0.12825 0.72072 0.0
C2165 C 0.6873 0.14482 0.73025 0.0
C2166 C 0.70496 0.13067 0.71344 0.0
C2167 C 0.72652 0.1497 0.71547 0.0
C2168 C 0.72796 0.16664 0.72457 0.0
C2169 C 0.70868 0.16425 0.73181 0.0
C2170 C 0.78657 0.17314 0.69978 0.0
C2171 C 0.78888 0.15411 0.69944 0.0
C2172 C 0.76612 0.17167 0.70442 0.0
C2173 C 0.74758 0.15118 0.70901 0.0
C2174 C 0.74988 0.13213 0.70826 0.0
C2175 C 0.77023 0.13362 0.70361 0.0
H2176 H 0.87945 0.55404 0.74916 0.0
H2177 H 0.87075 0.52615 0.70621 0.0
H2178 H 0.87407 0.58382 0.73939 0.0
H2179 H 0.86531 0.55583 0.69648 0.0
H2180 H 0.83218 0.59832 0.68695 0.0
H2181 H 0.83829 0.56895 0.69649 0.0
H2182 H 0.8919 0.61667 0.72416 0.0
H2183 H 0.88571 0.64603 0.71469 0.0
C2184 C 0.8766 0.55434 0.73762 0.0
C2185 C 0.87545 0.53755 0.72852 0.0
C2186 C 0.8735 0.57145 0.732 0.0
C2187 C 0.86917 0.57226 0.71712 0.0
C2188 C 0.86819 0.55557 0.70802 0.0
C2189 C 0.87131 0.53849 0.71363 0.0
C2190 C 0.84546 0.60265 0.69494 0.0
C2191 C 0.85855 0.62466 0.69992 0.0
C2192 C 0.84898 0.58575 0.70043 0.0
C2193 C 0.86561 0.59036 0.71112 0.0
C2194 C 0.87873 0.6124 0.71609 0.0
C2195 C 0.87526 0.6293 0.71057 0.0
H2196 H 0.50471 0.97661 0.19706 0.0
H2197 H 0.45597 0.91499 0.17662 0.0
H2198 H 0.51736 0.99378 0.17332 0.0
H2199 H 0.46865 0.93224 0.15279 0.0
H2200 H 0.4816 0.9795 0.11323 0.0
H2201 H 0.46861 0.95965 0.13638 0.0
H2202 H 0.53777 0.9938 0.15225 0.0
H2203 H 0.5506 0.01355 0.12931 0.0
C2204 C 0.49686 0.96656 0.18752 0.0
C2205 C 0.47931 0.9443 0.1889 0.0
C2206 C 0.50414 0.97647 0.17382 0.0
C2207 C 0.49415 0.96446 0.161 0.0
C2208 C 0.4766 0.94217 0.16235 0.0
C2209 C 0.46931 0.93224 0.17608 0.0
C2210 C 0.49405 0.98252 0.12159 0.0
C2211 C 0.51713 0.9984 0.1194 0.0
C2212 C 0.4866 0.97114 0.13491 0.0
C2213 C 0.50204 0.97531 0.14638 0.0
C2214 C 0.52522 0.99052 0.14391 0.0
C2215 C 0.53262 1.00185 0.13067 0.0
H2216 H 0.10108 0.54164 0.17433 0.0
H2217 H 0.03918 0.52956 0.19544 0.0
H2218 H 0.08292 0.53701 0.1507 0.0
H2219 H 0.02101 0.52477 0.1719 0.0
H2220 H 1.00024 0.53695 0.12772 0.0
H2221 H 0.02069 0.54425 0.15061 0.0
H2222 H 0.05424 0.50931 0.13511 0.0
H2223 H 0.03385 0.5022 0.11208 0.0
C2224 C 0.08356 0.5379 0.17395 0.0
C2225 C 0.07165 0.53604 0.18685 0.0
C2226 C 0.07312 0.5352 0.16037 0.0
C2227 C 0.05044 0.53052 0.1593 0.0
C2228 C 0.0386 0.52878 0.17222 0.0
C2229 C 0.04905 0.53153 0.18577 0.0
C2230 C 1.01195 0.53077 0.12919 0.0
C2231 C 0.0152 0.51879 0.11807 0.0
C2232 C 0.02367 0.53492 0.14236 0.0
C2233 C 0.039 0.52718 0.14486 0.0
C2234 C 0.04276 0.51573 0.13358 0.0
C2235 C 0.03105 0.51163 0.12035 0.0
H2236 H 0.44535 0.50049 0.18247 0.0
H2237 H 0.50638 0.56424 0.18785 0.0
H2238 H 0.45859 0.49647 0.15876 0.0
H2239 H 0.51964 0.56021 0.1641 0.0
H2240 H 0.54792 0.53288 0.12945 0.0
H2241 H 0.53396 0.53922 0.15217 0.0
H2242 H 0.46626 0.50968 0.13407 0.0
H2243 H 0.48018 0.50255 0.1114 0.0
C2244 C 0.46147 0.51384 0.17855 0.0
C2245 C 0.47475 0.53271 0.18721 0.0
C2246 C 0.46908 0.51152 0.16487 0.0
C2247 C 0.49025 0.52797 0.1594 0.0
C2248 C 0.50342 0.54698 0.16798 0.0
C2249 C 0.4958 0.5493 0.18167 0.0
C2250 C 0.53002 0.52765 0.13028 0.0
C2251 C 0.51517 0.51695 0.11856 0.0
C2252 C 0.52203 0.53155 0.14332 0.0
C2253 C 0.4989 0.52492 0.1451 0.0
C2254 C 0.48412 0.51476 0.13323 0.0
C2255 C 0.49215 0.51089 0.12014 0.0
H2256 H 0.99034 0.49025 0.84438 0.0
H2257 H 0.92663 0.47492 0.86437 0.0
H2258 H 1.0075 0.49466 0.86825 0.0
H2259 H 0.94365 0.47863 0.88835 0.0
H2260 H 0.99142 0.51363 0.92792 0.0
H2261 H 0.97167 0.50687 0.90463 0.0
H2262 H 1.00668 0.47336 0.88917 0.0
H2263 H 0.02635 0.48011 0.91232 0.0
C2264 C 0.97995 0.48779 0.85387 0.0
C2265 C 0.95709 0.48229 0.85239 0.0
C2266 C 0.98974 0.49007 0.8676 0.0
C2267 C 0.97698 0.48695 0.88029 0.0
C2268 C 0.95406 0.48134 0.87884 0.0
C2269 C 0.94423 0.47897 0.86507 0.0
C2270 C 0.99465 0.50455 0.91961 0.0
C2271 C 1.01071 0.49767 0.92197 0.0
C2272 C 0.98333 0.50067 0.90624 0.0
C2273 C 0.98775 0.48979 0.89491 0.0
C2274 C 1.00322 0.48225 0.89748 0.0
C2275 C 0.0145 0.48612 0.9108 0.0
H2276 H 0.57092 0.4755 0.86562 0.0
H2277 H 0.52279 0.4897 0.8444 0.0
H2278 H 0.55736 0.47981 0.88924 0.0
H2279 H 0.50931 0.49405 0.86792 0.0
H2280 H 0.47497 0.48093 0.91161 0.0
H2281 H 0.48832 0.47404 0.8888 0.0
H2282 H 0.55708 0.50703 0.9054 0.0
H2283 H 0.54357 0.51378 0.92837 0.0
C2284 C 0.55752 0.47964 0.86596 0.0
C2285 C 0.54796 0.48218 0.85301 0.0
C2286 C 0.54974 0.48214 0.87955 0.0
C2287 C 0.53215 0.48724 0.8806 0.0
C2288 C 0.52256 0.48969 0.86764 0.0
C2289 C 0.53031 0.48718 0.85408 0.0
C2290 C 0.49296 0.48677 0.91042 0.0
C2291 C 0.5082 0.49816 0.92183 0.0
C2292 C 0.50066 0.48286 0.89727 0.0
C2293 C 0.52388 0.49022 0.89507 0.0
C2294 C 0.53905 0.50095 0.90667 0.0
C2295 C 0.53131 0.50483 0.91988 0.0
H2296 H 0.56352 0.06 0.85014 0.0
H2297 H 0.5173 0.08406 0.85958 0.0
H2298 H 0.55635 0.04278 0.8741 0.0
H2299 H 0.51009 0.06683 0.88348 0.0
H2300 H 0.51293 0.04662 0.93011 0.0
H2301 H 0.52505 0.06738 0.90726 0.0
H2302 H 0.52724 0.01227 0.88726 0.0
H2303 H 0.51601 0.99204 0.9101 0.0
C2304 C 0.55176 0.06158 0.85728 0.0
C2305 C 0.541 0.07347 0.85279 0.0
C2306 C 0.54763 0.05168 0.87108 0.0
C2307 C 0.53256 0.05329 0.88085 0.0
C2308 C 0.52209 0.06548 0.87644 0.0
C2309 C 0.52624 0.07539 0.86265 0.0
C2310 C 0.5164 0.03912 0.9209 0.0
C2311 C 0.51326 0.01752 0.92199 0.0
C2312 C 0.52309 0.05092 0.90771 0.0
C2313 C 0.52698 0.04151 0.89525 0.0
C2314 C 0.52462 0.02024 0.89654 0.0
C2315 C 0.5179 0.00848 0.90967 0.0
H2316 H 0.1741 0.3154 0.53013 0.0
H2317 H 0.12542 0.25246 0.51111 0.0
H2318 H 0.18464 0.33185 0.50607 0.0
H2319 H 0.13615 0.26901 0.4869 0.0
H2320 H 0.17899 0.30401 0.44507 0.0
H2321 H 0.16659 0.28494 0.46855 0.0
H2322 H 0.16875 0.34323 0.48675 0.0
H2323 H 0.18105 0.36209 0.46349 0.0
C2324 C 0.16549 0.30504 0.52084 0.0
C2325 C 0.14868 0.28258 0.52271 0.0
C2326 C 0.17156 0.31453 0.50697 0.0
C2327 C 0.16107 0.30191 0.49444 0.0
C2328 C 0.14471 0.27926 0.49624 0.0
C2329 C 0.13858 0.26974 0.51017 0.0
C2330 C 0.1765 0.31261 0.45404 0.0
C2331 C 0.18138 0.33475 0.45238 0.0
C2332 C 0.16942 0.30169 0.46754 0.0
C2333 C 0.16705 0.31265 0.47971 0.0
C2334 C 0.17099 0.33442 0.47781 0.0
C2335 C 0.178 0.34525 0.4644 0.0
H2336 H 0.70145 0.85941 0.52902 0.0
H2337 H 0.76487 0.87423 0.50883 0.0
H2338 H 0.68417 0.85513 0.50519 0.0
H2339 H 0.74773 0.87063 0.4849 0.0
H2340 H 0.69967 0.83593 0.44544 0.0
H2341 H 0.71944 0.84245 0.46869 0.0
H2342 H 0.68511 0.87657 0.48428 0.0
H2343 H 0.66544 0.87007 0.46114 0.0
C2344 C 0.71174 0.86178 0.51949 0.0
C2345 C 0.73456 0.86711 0.5209 0.0
C2346 C 0.70189 0.85958 0.50579 0.0
C2347 C 0.71454 0.86259 0.49306 0.0
C2348 C 0.73741 0.86801 0.49445 0.0
C2349 C 0.74731 0.87032 0.50819 0.0
C2350 C 0.69658 0.84509 0.45376 0.0
C2351 C 0.68073 0.85223 0.45143 0.0
C2352 C 0.70792 0.84883 0.46712 0.0
C2353 C 0.7037 0.85982 0.47848 0.0
C2354 C 0.68841 0.86759 0.47594 0.0
C2355 C 0.67712 0.86386 0.46263 0.0
H2356 H 0.1212 0.87039 0.50934 0.0
H2357 H 0.1743 0.86185 0.52878 0.0
H2358 H 0.13437 0.86744 0.48522 0.0
H2359 H 0.18682 0.85801 0.50483 0.0
H2360 H 0.21866 0.87212 0.46057 0.0
H2361 H 0.2056 0.87851 0.48365 0.0
H2362 H 0.13605 0.84123 0.46867 0.0
H2363 H 0.1493 0.83509 0.44536 0.0
C2364 C 0.13574 0.86799 0.5085 0.0
C2365 C 0.14662 0.86635 0.52111 0.0
C2366 C 0.14314 0.86603 0.49464 0.0
C2367 C 0.16173 0.86249 0.49296 0.0
C2368 C 0.17267 0.86103 0.50558 0.0
C2369 C 0.16527 0.86295 0.5194 0.0
C2370 C 0.20056 0.86529 0.46216 0.0
C2371 C 0.18503 0.85284 0.45112 0.0
C2372 C 0.19303 0.86889 0.47547 0.0
C2373 C 0.16969 0.8601 0.47823 0.0
C2374 C 0.15416 0.84839 0.46697 0.0
C2375 C 0.16175 0.84485 0.45358 0.0
H2376 H 0.61652 0.78204 0.18711 0.0
H2377 H 0.62473 0.84767 0.19097 0.0
H2378 H 0.63444 0.78644 0.21079 0.0
H2379 H 0.64256 0.85204 0.2146 0.0
H2380 H 0.65698 0.84644 0.26219 0.0
H2381 H 0.6358 0.83931 0.23949 0.0
H2382 H 0.67112 0.8071 0.22227 0.0
H2383 H 0.69157 0.81346 0.24509 0.0
C2384 C 0.62224 0.79746 0.19295 0.0
C2385 C 0.61912 0.81448 0.18705 0.0
C2386 C 0.63251 0.79998 0.20657 0.0
C2387 C 0.63999 0.8196 0.21468 0.0
C2388 C 0.63669 0.83653 0.20883 0.0
C2389 C 0.62644 0.83402 0.19522 0.0
C2390 C 0.65997 0.83754 0.25365 0.0
C2391 C 0.67613 0.83067 0.2555 0.0
C2392 C 0.64801 0.83367 0.24054 0.0
C2393 C 0.65181 0.82274 0.22895 0.0
C2394 C 0.66756 0.8154 0.23095 0.0
C2395 C 0.67952 0.81929 0.24402 0.0
H2396 H 0.18571 0.78589 0.18498 0.0
H2397 H 0.24628 0.85002 0.19031 0.0
H2398 H 0.17237 0.78974 0.20876 0.0
H2399 H 0.23296 0.85385 0.21404 0.0
H2400 H 0.21157 0.84748 0.26143 0.0
H2401 H 0.22554 0.84054 0.23872 0.0
H2402 H 0.15773 0.81044 0.22074 0.0
H2403 H 0.14371 0.81657 0.2435 0.0
C2404 C 0.19616 0.80088 0.19116 0.0
C2405 C 0.21711 0.81763 0.1856 0.0
C2406 C 0.1885 0.80309 0.20485 0.0
C2407 C 0.20153 0.82213 0.21343 0.0
C2408 C 0.22259 0.83876 0.20793 0.0
C2409 C 0.23024 0.83656 0.19425 0.0
C2410 C 0.19958 0.83905 0.25271 0.0
C2411 C 0.17651 0.83277 0.25433 0.0
C2412 C 0.20765 0.8353 0.23959 0.0
C2413 C 0.19285 0.82505 0.22775 0.0
C2414 C 0.16968 0.8182 0.22957 0.0
C2415 C 0.16165 0.82198 0.24263 0.0
H2416 H 0.22343 0.43584 0.19722 0.0
H2417 H 0.18786 0.37111 0.17706 0.0
H2418 H 0.21613 0.41821 0.22109 0.0
H2419 H 0.18044 0.35355 0.2008 0.0
H2420 H 0.18602 0.32603 0.24381 0.0
H2421 H 0.19733 0.3459 0.2208 0.0
H2422 H 0.18695 0.39761 0.23869 0.0
H2423 H 0.176 0.37775 0.26191 0.0
C2424 C 0.21397 0.41784 0.19784 0.0
C2425 C 0.20634 0.40497 0.18509 0.0
C2426 C 0.20974 0.4077 0.21159 0.0
C2427 C 0.19772 0.38435 0.21302 0.0
C2428 C 0.19018 0.37153 0.20024 0.0
C2429 C 0.19445 0.38165 0.18654 0.0
C2430 C 0.18623 0.3417 0.24287 0.0
C2431 C 0.17984 0.35014 0.25471 0.0
C2432 C 0.19262 0.35309 0.2296 0.0
C2433 C 0.19272 0.37327 0.22767 0.0
C2434 C 0.18723 0.38221 0.23971 0.0
C2435 C 0.18094 0.37082 0.25307 0.0
H2436 H 0.79122 0.58124 0.84233 0.0
H2437 H 0.83839 0.64336 0.86292 0.0
H2438 H 0.80382 0.59866 0.81854 0.0
H2439 H 0.85101 0.66067 0.83921 0.0
H2440 H 0.88461 0.681 0.79527 0.0
H2441 H 0.87198 0.66117 0.8182 0.0
H2442 H 0.80293 0.62584 0.80218 0.0
H2443 H 0.8157 0.6458 0.77906 0.0
C2444 C 0.8042 0.59864 0.84184 0.0
C2445 C 0.81376 0.61079 0.85469 0.0
C2446 C 0.81144 0.60865 0.82813 0.0
C2447 C 0.82853 0.63113 0.82684 0.0
C2448 C 0.83813 0.64323 0.83968 0.0
C2449 C 0.83089 0.63325 0.85336 0.0
C2450 C 0.86669 0.66903 0.79659 0.0
C2451 C 0.85116 0.66529 0.78529 0.0
C2452 C 0.85942 0.65765 0.80982 0.0
C2453 C 0.83633 0.64207 0.81225 0.0
C2454 C 0.82087 0.63762 0.80075 0.0
C2455 C 0.82819 0.64906 0.78745 0.0
H2456 H 0.37133 0.19529 0.86293 0.0
H2457 H 0.43299 0.20634 0.84201 0.0
H2458 H 0.35339 0.19083 0.83932 0.0
H2459 H 0.41509 0.20204 0.81832 0.0
H2460 H 0.36624 0.16814 0.7795 0.0
H2461 H 0.38631 0.17475 0.80262 0.0
H2462 H 0.35361 0.21054 0.81804 0.0
H2463 H 0.33346 0.20372 0.79506 0.0
C2464 C 0.3812 0.19709 0.85329 0.0
C2465 C 0.40365 0.20121 0.85444 0.0
C2466 C 0.37089 0.19453 0.8397 0.0
C2467 C 0.38274 0.19609 0.82682 0.0
C2468 C 0.40527 0.20038 0.82796 0.0
C2469 C 0.41557 0.20288 0.84157 0.0
C2470 C 0.36355 0.17764 0.78776 0.0
C2471 C 0.34803 0.18519 0.78543 0.0
C2472 C 0.37508 0.18146 0.80105 0.0
C2473 C 0.37146 0.19301 0.81234 0.0
C2474 C 0.35647 0.20113 0.80979 0.0
C2475 C 0.34492 0.19726 0.79656 0.0
H2476 H 0.78732 0.20685 0.84148 0.0
H2477 H 0.8366 0.19391 0.86231 0.0
H2478 H 0.8007 0.2027 0.81775 0.0
H2479 H 0.84988 0.1897 0.83869 0.0
H2480 H 0.88362 0.20301 0.79484 0.0
H2481 H 0.87034 0.20974 0.81772 0.0
H2482 H 0.80136 0.17581 0.80149 0.0
H2483 H 0.81482 0.16924 0.77842 0.0
C2484 C 0.80094 0.20302 0.84104 0.0
C2485 C 0.81088 0.20081 0.85392 0.0
C2486 C 0.80861 0.20061 0.82738 0.0
C2487 C 0.82647 0.19591 0.82619 0.0
C2488 C 0.83642 0.19376 0.83908 0.0
C2489 C 0.82878 0.19619 0.8527 0.0
C2490 C 0.86559 0.19694 0.79612 0.0
C2491 C 0.85028 0.18533 0.78478 0.0
C2492 C 0.85793 0.20076 0.80931 0.0
C2493 C 0.83467 0.19306 0.81165 0.0
C2494 C 0.81941 0.18213 0.80012 0.0
C2495 C 0.82712 0.17836 0.78686 0.0
H2496 H 0.32408 0.15647 0.51171 0.0
H2497 H 0.26052 0.14163 0.53169 0.0
H2498 H 0.34125 0.16092 0.53558 0.0
H2499 H 0.27754 0.14537 0.55567 0.0
H2500 H 0.3253 0.18026 0.59523 0.0
H2501 H 0.30559 0.17352 0.57193 0.0
H2502 H 0.34041 0.13977 0.55655 0.0
H2503 H 0.36005 0.14652 0.57972 0.0
C2504 C 0.31373 0.15412 0.52119 0.0
C2505 C 0.2909 0.14875 0.51971 0.0
C2506 C 0.32352 0.15642 0.53493 0.0
C2507 C 0.3108 0.15345 0.54762 0.0
C2508 C 0.28792 0.14797 0.54616 0.0
C2509 C 0.27808 0.14558 0.53239 0.0
C2510 C 0.32851 0.17113 0.58694 0.0
C2511 C 0.3445 0.16418 0.58933 0.0
C2512 C 0.3172 0.16727 0.57356 0.0
C2513 C 0.32158 0.15632 0.56224 0.0
C2514 C 0.33699 0.14872 0.56485 0.0
C2515 C 0.34826 0.15258 0.57818 0.0
H2516 H 0.85222 0.11775 0.51879 0.0
H2517 H 0.91306 0.18164 0.52419 0.0
H2518 H 0.83888 0.1217 0.54254 0.0
H2519 H 0.89974 0.1856 0.54788 0.0
H2520 H 0.87809 0.1796 0.59518 0.0
H2521 H 0.89209 0.17243 0.57256 0.0
H2522 H 0.82439 0.14257 0.55443 0.0
H2523 H 0.81035 0.14893 0.57711 0.0
C2524 C 0.86274 0.1327 0.52498 0.0
C2525 C 0.88376 0.14936 0.51945 0.0
C2526 C 0.85508 0.13498 0.53866 0.0
C2527 C 0.86816 0.15401 0.54724 0.0
C2528 C 0.88931 0.17053 0.54178 0.0
C2529 C 0.89697 0.16825 0.52811 0.0
C2530 C 0.86613 0.17117 0.58645 0.0
C2531 C 0.84309 0.16503 0.588 0.0
C2532 C 0.87421 0.16729 0.57338 0.0
C2533 C 0.85946 0.15704 0.56152 0.0
C2534 C 0.83631 0.15032 0.56327 0.0
C2535 C 0.82827 0.15423 0.57629 0.0
H2536 H 0.89638 0.72643 0.51612 0.0
H2537 H 0.84993 0.75031 0.52533 0.0
H2538 H 0.88918 0.70934 0.54012 0.0
H2539 H 0.84274 0.73324 0.54927 0.0
H2540 H 0.8456 0.71321 0.59601 0.0
H2541 H 0.85772 0.73391 0.57313 0.0
H2542 H 0.85992 0.67876 0.55321 0.0
H2543 H 0.84865 0.65857 0.57608 0.0
C2544 C 0.88457 0.72801 0.52321 0.0
C2545 C 0.87374 0.7398 0.51864 0.0
C2546 C 0.88043 0.71818 0.53704 0.0
C2547 C 0.86529 0.71978 0.54675 0.0
C2548 C 0.85478 0.7319 0.54227 0.0
C2549 C 0.85892 0.74173 0.52846 0.0
C2550 C 0.84907 0.70568 0.58682 0.0
C2551 C 0.84592 0.68409 0.58792 0.0
C2552 C 0.85577 0.71745 0.57361 0.0
C2553 C 0.85967 0.70803 0.56117 0.0
C2554 C 0.85729 0.68675 0.56249 0.0
C2555 C 0.85056 0.67501 0.57562 0.0
loop_
_geom_bond_atom_site_label_1
_geom_bond_atom_site_label_2
_geom_bond_distance
_geom_bond_site_symmetry_2
_ccdc_geom_bond_type
C0 C1 1.264 . S
C0 C5 1.479 . S
C0 C10 1.465 . S
C1 C0 1.264 . S
C1 C3 1.339 . S
C1 H28 0.931 . S
C2 C3 1.395 . S
C2 C4 1.320 . S
C3 C1 1.339 . S
C3 C2 1.395 . S
C3 H29 0.929 . S
C4 C2 1.320 . S
C4 C5 1.405 . S
C4 H30 0.930 . S
C5 C0 1.479 . S
C5 C4 1.405 . S
C5 H31 0.931 . S
U6 O7 2.454 . S
U6 O8 2.458 . S
U6 C9 2.984 . S
U6 C10 2.847 . S
U6 C23 2.882 . S
U6 O24 2.441 . S
U6 O25 2.420 . S
U6 O26 2.455 . S
U6 O27 2.449 . S
O7 U6 2.454 . S
O7 C9 1.353 . S
O8 U6 2.458 . S
O8 C9 1.286 . S
C9 U6 2.984 . S
C9 O7 1.353 . S
C9 O8 1.286 . S
C9 C11 1.363 . S
C10 C0 1.465 . S
C10 U6 2.847 . S
C10 O24 1.249 . S
C10 O25 1.202 . S
C11 C9 1.363 . S
C11 C13 1.408 . S
C11 C16 1.342 . S
C12 C13 1.310 . S
C12 C15 1.461 . S
C12 H32 0.932 . S
C13 C11 1.408 . S
C13 C12 1.310 . S
C13 H33 0.930 . S
C14 C15 1.474 . S
C14 C16 1.285 . S
C14 H34 0.929 . S
C15 C12 1.461 . S
C15 C14 1.474 . S
C16 C11 1.342 . S
C16 C14 1.285 . S
C16 H35 0.930 . S
C17 C20 1.424 . S
C17 C22 1.245 . S
C17 C23 1.428 . S
C18 C21 1.260 . S
C18 C22 1.477 . S
C18 H36 0.932 . S
C19 C20 1.384 . S
C19 C21 1.479 . S
C19 H37 0.929 . S
C20 C17 1.424 . S
C20 C19 1.384 . S
C20 H38 0.928 . S
C21 C18 1.260 . S
C21 C19 1.479 . S
C22 C17 1.245 . S
C22 C18 1.477 . S
C22 H39 0.932 . S
C23 U6 2.882 . S
C23 C17 1.428 . S
C23 O26 1.301 . S
C23 O27 1.282 . S
O24 U6 2.441 . S
O24 C10 1.249 . S
O25 U6 2.420 . S
O25 C10 1.202 . S
O26 U6 2.455 . S
O26 C23 1.301 . S
O27 U6 2.449 . S
O27 C23 1.282 . S
H28 C1 0.931 . S
H29 C3 0.929 . S
H30 C4 0.930 . S
H31 C5 0.931 . S
H32 C12 0.932 . S
H33 C13 0.930 . S
H34 C14 0.929 . S
H35 C16 0.930 . S
H36 C18 0.932 . S
H37 C19 0.929 . S
H38 C20 0.928 . S
H39 C22 0.932 . S
C40 C41 1.264 . S
C40 C45 1.479 . S
C40 C50 1.465 . S
C41 C40 1.264 . S
C41 C43 1.339 . S
C41 H68 0.931 . S
C42 C43 1.395 . S
C42 C44 1.320 . S
C43 C41 1.339 . S
C43 C42 1.395 . S
C43 H69 0.929 . S
C44 C42 1.320 . S
C44 C45 1.405 . S
C44 H70 0.930 . S
C45 C40 1.479 . S
C45 C44 1.405 . S
C45 H71 0.931 . S
U46 O47 2.454 . S
U46 O48 2.458 . S
U46 C49 2.984 . S
U46 C50 2.847 . S
U46 C63 2.882 . S
U46 O64 2.441 . S
U46 O65 2.420 . S
U46 O66 2.455 . S
U46 O67 2.449 . S
O47 U46 2.454 . S
O47 C49 1.353 . S
O48 U46 2.458 . S
O48 C49 1.286 . S
C49 U46 2.984 . S
C49 O47 1.353 . S
C49 O48 1.286 . S
C49 C51 1.363 . S
C50 C40 1.465 . S
C50 U46 2.847 . S
C50 O64 1.249 . S
C50 O65 1.202 . S
C51 C49 1.363 . S
C51 C53 1.408 . S
C51 C56 1.342 . S
C52 C53 1.310 . S
C52 C55 1.461 . S
C52 H72 0.932 . S
C53 C51 1.408 . S
C53 C52 1.310 . S
C53 H73 0.930 . S
C54 C55 1.474 . S
C54 C56 1.285 . S
C54 H74 0.929 . S
C55 C52 1.461 . S
C55 C54 1.474 . S
C56 C51 1.342 . S
C56 C54 1.285 . S
C56 H75 0.930 . S
C57 C60 1.424 . S
C57 C62 1.245 . S
C57 C63 1.428 . S
C58 C61 1.260 . S
C58 C62 1.477 . S
C58 H76 0.932 . S
C59 C60 1.384 . S
C59 C61 1.479 . S
C59 H77 0.929 . S
C60 C57 1.424 . S
C60 C59 1.384 . S
C60 H78 0.928 . S
C61 C58 1.260 . S
C61 C59 1.479 . S
C62 C57 1.245 . S
C62 C58 1.477 . S
C62 H79 0.932 . S
C63 U46 2.882 . S
C63 C57 1.428 . S
C63 O66 1.301 . S
C63 O67 1.282 . S
O64 U46 2.441 . S
O64 C50 1.249 . S
O65 U46 2.420 . S
O65 C50 1.202 . S
O66 U46 2.455 . S
O66 C63 1.301 . S
O67 U46 2.449 . S
O67 C63 1.282 . S
H68 C41 0.931 . S
H69 C43 0.929 . S
H70 C44 0.930 . S
H71 C45 0.931 . S
H72 C52 0.932 . S
H73 C53 0.930 . S
H74 C54 0.929 . S
H75 C56 0.930 . S
H76 C58 0.932 . S
H77 C59 0.929 . S
H78 C60 0.928 . S
H79 C62 0.932 . S
C80 C81 1.264 . S
C80 C85 1.479 . S
C80 C90 1.465 . S
C81 C80 1.264 . S
C81 C83 1.339 . S
C81 H108 0.931 . S
C82 C83 1.395 . S
C82 C84 1.320 . S
C83 C81 1.339 . S
C83 C82 1.395 . S
C83 H109 0.929 . S
C84 C82 1.320 . S
C84 C85 1.405 . S
C84 H110 0.930 . S
C85 C80 1.479 . S
C85 C84 1.405 . S
C85 H111 0.931 . S
U86 O87 2.454 . S
U86 O88 2.458 . S
U86 C89 2.984 . S
U86 C90 2.847 . S
U86 C103 2.882 . S
U86 O104 2.441 . S
U86 O105 2.420 . S
U86 O106 2.455 . S
U86 O107 2.449 . S
O87 U86 2.454 . S
O87 C89 1.353 . S
O88 U86 2.458 . S
O88 C89 1.286 . S
C89 U86 2.984 . S
C89 O87 1.353 . S
C89 O88 1.286 . S
C89 C91 1.363 . S
C90 C80 1.465 . S
C90 U86 2.847 . S
C90 O104 1.249 . S
C90 O105 1.202 . S
C91 C89 1.363 . S
C91 C93 1.408 . S
C91 C96 1.342 . S
C92 C93 1.310 . S
C92 C95 1.461 . S
C92 H112 0.932 . S
C93 C91 1.408 . S
C93 C92 1.310 . S
C93 H113 0.930 . S
C94 C95 1.474 . S
C94 C96 1.285 . S
C94 H114 0.929 . S
C95 C92 1.461 . S
C95 C94 1.474 . S
C96 C91 1.342 . S
C96 C94 1.285 . S
C96 H115 0.930 . S
C97 C100 1.424 . S
C97 C102 1.245 . S
C97 C103 1.428 . S
C98 C101 1.260 . S
C98 C102 1.477 . S
C98 H116 0.932 . S
C99 C100 1.384 . S
C99 C101 1.479 . S
C99 H117 0.929 . S
C100 C97 1.424 . S
C100 C99 1.384 . S
C100 H118 0.928 . S
C101 C98 1.260 . S
C101 C99 1.479 . S
C102 C97 1.245 . S
C102 C98 1.477 . S
C102 H119 0.932 . S
C103 U86 2.882 . S
C103 C97 1.428 . S
C103 O106 1.301 . S
C103 O107 1.282 . S
O104 U86 2.441 . S
O104 C90 1.249 . S
O105 U86 2.420 . S
O105 C90 1.202 . S
O106 U86 2.455 . S
O106 C103 1.301 . S
O107 U86 2.449 . S
O107 C103 1.282 . S
H108 C81 0.931 . S
H109 C83 0.929 . S
H110 C84 0.930 . S
H111 C85 0.931 . S
H112 C92 0.932 . S
H113 C93 0.930 . S
H114 C94 0.929 . S
H115 C96 0.930 . S
H116 C98 0.932 . S
H117 C99 0.929 . S
H118 C100 0.928 . S
H119 C102 0.932 . S
C120 C121 1.264 . S
C120 C125 1.479 . S
C120 C130 1.465 . S
C121 C120 1.264 . S
C121 C123 1.339 . S
C121 H148 0.931 . S
C122 C123 1.395 . S
C122 C124 1.320 . S
C123 C121 1.339 . S
C123 C122 1.395 . S
C123 H149 0.929 . S
C124 C122 1.320 . S
C124 C125 1.405 . S
C124 H150 0.930 . S
C125 C120 1.479 . S
C125 C124 1.405 . S
C125 H151 0.931 . S
U126 O127 2.454 . S
U126 O128 2.458 . S
U126 C129 2.984 . S
U126 C130 2.847 . S
U126 C143 2.882 . S
U126 O144 2.441 . S
U126 O145 2.420 . S
U126 O146 2.455 . S
U126 O147 2.449 . S
O127 U126 2.454 . S
O127 C129 1.353 . S
O128 U126 2.458 . S
O128 C129 1.286 . S
C129 U126 2.984 . S
C129 O127 1.353 . S
C129 O128 1.286 . S
C129 C131 1.363 . S
C130 C120 1.465 . S
C130 U126 2.847 . S
C130 O144 1.249 . S
C130 O145 1.202 . S
C131 C129 1.363 . S
C131 C133 1.408 . S
C131 C136 1.342 . S
C132 C133 1.310 . S
C132 C135 1.461 . S
C132 H152 0.932 . S
C133 C131 1.408 . S
C133 C132 1.310 . S
C133 H153 0.930 . S
C134 C135 1.474 . S
C134 C136 1.285 . S
C134 H154 0.929 . S
C135 C132 1.461 . S
C135 C134 1.474 . S
C136 C131 1.342 . S
C136 C134 1.285 . S
C136 H155 0.930 . S
C137 C140 1.424 . S
C137 C142 1.245 . S
C137 C143 1.428 . S
C138 C141 1.260 . S
C138 C142 1.477 . S
C138 H156 0.932 . S
C139 C140 1.384 . S
C139 C141 1.479 . S
C139 H157 0.929 . S
C140 C137 1.424 . S
C140 C139 1.384 . S
C140 H158 0.928 . S
C141 C138 1.260 . S
C141 C139 1.479 . S
C142 C137 1.245 . S
C142 C138 1.477 . S
C142 H159 0.932 . S
C143 U126 2.882 . S
C143 C137 1.428 . S
C143 O146 1.301 . S
C143 O147 1.282 . S
O144 U126 2.441 . S
O144 C130 1.249 . S
O145 U126 2.420 . S
O145 C130 1.202 . S
O146 U126 2.455 . S
O146 C143 1.301 . S
O147 U126 2.449 . S
O147 C143 1.282 . S
H148 C121 0.931 . S
H149 C123 0.929 . S
H150 C124 0.930 . S
H151 C125 0.931 . S
H152 C132 0.932 . S
H153 C133 0.930 . S
H154 C134 0.929 . S
H155 C136 0.930 . S
H156 C138 0.932 . S
H157 C139 0.929 . S
H158 C140 0.928 . S
H159 C142 0.932 . S
C160 C161 1.264 . S
C160 C165 1.479 . S
C160 C170 1.465 . S
C161 C160 1.264 . S
C161 C163 1.339 . S
C161 H188 0.931 . S
C162 C163 1.395 . S
C162 C164 1.320 . S
C163 C161 1.339 . S
C163 C162 1.395 . S
C163 H189 0.929 . S
C164 C162 1.320 . S
C164 C165 1.405 . S
C164 H190 0.930 . S
C165 C160 1.479 . S
C165 C164 1.405 . S
C165 H191 0.931 . S
U166 O167 2.454 . S
U166 O168 2.458 . S
U166 C169 2.984 . S
U166 C170 2.847 . S
U166 C183 2.882 . S
U166 O184 2.441 . S
U166 O185 2.420 . S
U166 O186 2.455 . S
U166 O187 2.449 . S
O167 U166 2.454 . S
O167 C169 1.353 . S
O168 U166 2.458 . S
O168 C169 1.286 . S
C169 U166 2.984 . S
C169 O167 1.353 . S
C169 O168 1.286 . S
C169 C171 1.363 . S
C170 C160 1.465 . S
C170 U166 2.847 . S
C170 O184 1.249 . S
C170 O185 1.202 . S
C171 C169 1.363 . S
C171 C173 1.408 . S
C171 C176 1.342 . S
C172 C173 1.310 . S
C172 C175 1.461 . S
C172 H192 0.932 . S
C173 C171 1.408 . S
C173 C172 1.310 . S
C173 H193 0.930 . S
C174 C175 1.474 . S
C174 C176 1.285 . S
C174 H194 0.929 . S
C175 C172 1.461 . S
C175 C174 1.474 . S
C176 C171 1.342 . S
C176 C174 1.285 . S
C176 H195 0.930 . S
C177 C180 1.424 . S
C177 C182 1.245 . S
C177 C183 1.428 . S
C178 C181 1.260 . S
C178 C182 1.477 . S
C178 H196 0.932 . S
C179 C180 1.384 . S
C179 C181 1.479 . S
C179 H197 0.929 . S
C180 C177 1.424 . S
C180 C179 1.384 . S
C180 H198 0.928 . S
C181 C178 1.260 . S
C181 C179 1.479 . S
C182 C177 1.245 . S
C182 C178 1.477 . S
C182 H199 0.932 . S
C183 U166 2.882 . S
C183 C177 1.428 . S
C183 O186 1.301 . S
C183 O187 1.282 . S
O184 U166 2.441 . S
O184 C170 1.249 . S
O185 U166 2.420 . S
O185 C170 1.202 . S
O186 U166 2.455 . S
O186 C183 1.301 . S
O187 U166 2.449 . S
O187 C183 1.282 . S
H188 C161 0.931 . S
H189 C163 0.929 . S
H190 C164 0.930 . S
H191 C165 0.931 . S
H192 C172 0.932 . S
H193 C173 0.930 . S
H194 C174 0.929 . S
H195 C176 0.930 . S
H196 C178 0.932 . S
H197 C179 0.929 . S
H198 C180 0.928 . S
H199 C182 0.932 . S
C200 C201 1.264 . S
C200 C205 1.479 . S
C200 C210 1.465 . S
C201 C200 1.264 . S
C201 C203 1.339 . S
C201 H228 0.931 . S
C202 C203 1.395 . S
C202 C204 1.320 . S
C203 C201 1.339 . S
C203 C202 1.395 . S
C203 H229 0.929 . S
C204 C202 1.320 . S
C204 C205 1.405 . S
C204 H230 0.930 . S
C205 C200 1.479 . S
C205 C204 1.405 . S
C205 H231 0.931 . S
U206 O207 2.454 . S
U206 O208 2.458 . S
U206 C209 2.984 . S
U206 C210 2.847 . S
U206 C223 2.882 . S
U206 O224 2.441 . S
U206 O225 2.420 . S
U206 O226 2.455 . S
U206 O227 2.449 . S
O207 U206 2.454 . S
O207 C209 1.353 . S
O208 U206 2.458 . S
O208 C209 1.286 . S
C209 U206 2.984 . S
C209 O207 1.353 . S
C209 O208 1.286 . S
C209 C211 1.363 . S
C210 C200 1.465 . S
C210 U206 2.847 . S
C210 O224 1.249 . S
C210 O225 1.202 . S
C211 C209 1.363 . S
C211 C213 1.408 . S
C211 C216 1.342 . S
C212 C213 1.310 . S
C212 C215 1.461 . S
C212 H232 0.932 . S
C213 C211 1.408 . S
C213 C212 1.310 . S
C213 H233 0.930 . S
C214 C215 1.474 . S
C214 C216 1.285 . S
C214 H234 0.929 . S
C215 C212 1.461 . S
C215 C214 1.474 . S
C216 C211 1.342 . S
C216 C214 1.285 . S
C216 H235 0.930 . S
C217 C220 1.424 . S
C217 C222 1.245 . S
C217 C223 1.428 . S
C218 C221 1.260 . S
C218 C222 1.477 . S
C218 H236 0.932 . S
C219 C220 1.384 . S
C219 C221 1.479 . S
C219 H237 0.929 . S
C220 C217 1.424 . S
C220 C219 1.384 . S
C220 H238 0.928 . S
C221 C218 1.260 . S
C221 C219 1.479 . S
C222 C217 1.245 . S
C222 C218 1.477 . S
C222 H239 0.932 . S
C223 U206 2.882 . S
C223 C217 1.428 . S
C223 O226 1.301 . S
C223 O227 1.282 . S
O224 U206 2.441 . S
O224 C210 1.249 . S
O225 U206 2.420 . S
O225 C210 1.202 . S
O226 U206 2.455 . S
O226 C223 1.301 . S
O227 U206 2.449 . S
O227 C223 1.282 . S
H228 C201 0.931 . S
H229 C203 0.929 . S
H230 C204 0.930 . S
H231 C205 0.931 . S
H232 C212 0.932 . S
H233 C213 0.930 . S
H234 C214 0.929 . S
H235 C216 0.930 . S
H236 C218 0.932 . S
H237 C219 0.929 . S
H238 C220 0.928 . S
H239 C222 0.932 . S
C240 C241 1.264 . S
C240 C245 1.479 . S
C240 C250 1.465 . S
C241 C240 1.264 . S
C241 C243 1.339 . S
C241 H268 0.931 . S
C242 C243 1.395 . S
C242 C244 1.320 . S
C243 C241 1.339 . S
C243 C242 1.395 . S
C243 H269 0.929 . S
C244 C242 1.320 . S
C244 C245 1.405 . S
C244 H270 0.930 . S
C245 C240 1.479 . S
C245 C244 1.405 . S
C245 H271 0.931 . S
U246 O247 2.454 . S
U246 O248 2.458 . S
U246 C249 2.984 . S
U246 C250 2.847 . S
U246 C263 2.882 . S
U246 O264 2.441 . S
U246 O265 2.420 . S
U246 O266 2.455 . S
U246 O267 2.449 . S
O247 U246 2.454 . S
O247 C249 1.353 . S
O248 U246 2.458 . S
O248 C249 1.286 . S
C249 U246 2.984 . S
C249 O247 1.353 . S
C249 O248 1.286 . S
C249 C251 1.363 . S
C250 C240 1.465 . S
C250 U246 2.847 . S
C250 O264 1.249 . S
C250 O265 1.202 . S
C251 C249 1.363 . S
C251 C253 1.408 . S
C251 C256 1.342 . S
C252 C253 1.310 . S
C252 C255 1.461 . S
C252 H272 0.932 . S
C253 C251 1.408 . S
C253 C252 1.310 . S
C253 H273 0.930 . S
C254 C255 1.474 . S
C254 C256 1.285 . S
C254 H274 0.929 . S
C255 C252 1.461 . S
C255 C254 1.474 . S
C256 C251 1.342 . S
C256 C254 1.285 . S
C256 H275 0.930 . S
C257 C260 1.424 . S
C257 C262 1.245 . S
C257 C263 1.428 . S
C258 C261 1.260 . S
C258 C262 1.477 . S
C258 H276 0.932 . S
C259 C260 1.384 . S
C259 C261 1.479 . S
C259 H277 0.929 . S
C260 C257 1.424 . S
C260 C259 1.384 . S
C260 H278 0.928 . S
C261 C258 1.260 . S
C261 C259 1.479 . S
C262 C257 1.245 . S
C262 C258 1.477 . S
C262 H279 0.932 . S
C263 U246 2.882 . S
C263 C257 1.428 . S
C263 O266 1.301 . S
C263 O267 1.282 . S
O264 U246 2.441 . S
O264 C250 1.249 . S
O265 U246 2.420 . S
O265 C250 1.202 . S
O266 U246 2.455 . S
O266 C263 1.301 . S
O267 U246 2.449 . S
O267 C263 1.282 . S
H268 C241 0.931 . S
H269 C243 0.929 . S
H270 C244 0.930 . S
H271 C245 0.931 . S
H272 C252 0.932 . S
H273 C253 0.930 . S
H274 C254 0.929 . S
H275 C256 0.930 . S
H276 C258 0.932 . S
H277 C259 0.929 . S
H278 C260 0.928 . S
H279 C262 0.932 . S
C280 C281 1.264 . S
C280 C285 1.479 . S
C280 C290 1.465 . S
C281 C280 1.264 . S
C281 C283 1.339 . S
C281 H308 0.931 . S
C282 C283 1.395 . S
C282 C284 1.320 . S
C283 C281 1.339 . S
C283 C282 1.395 . S
C283 H309 0.929 . S
C284 C282 1.320 . S
C284 C285 1.405 . S
C284 H310 0.930 . S
C285 C280 1.479 . S
C285 C284 1.405 . S
C285 H311 0.931 . S
U286 O287 2.454 . S
U286 O288 2.458 . S
U286 C289 2.984 . S
U286 C290 2.847 . S
U286 C303 2.882 . S
U286 O304 2.441 . S
U286 O305 2.420 . S
U286 O306 2.455 . S
U286 O307 2.449 . S
O287 U286 2.454 . S
O287 C289 1.353 . S
O288 U286 2.458 . S
O288 C289 1.286 . S
C289 U286 2.984 . S
C289 O287 1.353 . S
C289 O288 1.286 . S
C289 C291 1.363 . S
C290 C280 1.465 . S
C290 U286 2.847 . S
C290 O304 1.249 . S
C290 O305 1.202 . S
C291 C289 1.363 . S
C291 C293 1.408 . S
C291 C296 1.342 . S
C292 C293 1.310 . S
C292 C295 1.461 . S
C292 H312 0.932 . S
C293 C291 1.408 . S
C293 C292 1.310 . S
C293 H313 0.930 . S
C294 C295 1.474 . S
C294 C296 1.285 . S
C294 H314 0.929 . S
C295 C292 1.461 . S
C295 C294 1.474 . S
C296 C291 1.342 . S
C296 C294 1.285 . S
C296 H315 0.930 . S
C297 C300 1.424 . S
C297 C302 1.245 . S
C297 C303 1.428 . S
C298 C301 1.260 . S
C298 C302 1.477 . S
C298 H316 0.932 . S
C299 C300 1.384 . S
C299 C301 1.479 . S
C299 H317 0.929 . S
C300 C297 1.424 . S
C300 C299 1.384 . S
C300 H318 0.928 . S
C301 C298 1.260 . S
C301 C299 1.479 . S
C302 C297 1.245 . S
C302 C298 1.477 . S
C302 H319 0.932 . S
C303 U286 2.882 . S
C303 C297 1.428 . S
C303 O306 1.301 . S
C303 O307 1.282 . S
O304 U286 2.441 . S
O304 C290 1.249 . S
O305 U286 2.420 . S
O305 C290 1.202 . S
O306 U286 2.455 . S
O306 C303 1.301 . S
O307 U286 2.449 . S
O307 C303 1.282 . S
H308 C281 0.931 . S
H309 C283 0.929 . S
H310 C284 0.930 . S
H311 C285 0.931 . S
H312 C292 0.932 . S
H313 C293 0.930 . S
H314 C294 0.929 . S
H315 C296 0.930 . S
H316 C298 0.932 . S
H317 C299 0.929 . S
H318 C300 0.928 . S
H319 C302 0.932 . S
C320 C321 1.264 . S
C320 C325 1.479 . S
C320 C330 1.465 . S
C321 C320 1.264 . S
C321 C323 1.339 . S
C321 H348 0.931 . S
C322 C323 1.395 . S
C322 C324 1.320 . S
C323 C321 1.339 . S
C323 C322 1.395 . S
C323 H349 0.929 . S
C324 C322 1.320 . S
C324 C325 1.405 . S
C324 H350 0.930 . S
C325 C320 1.479 . S
C325 C324 1.405 . S
C325 H351 0.931 . S
U326 O327 2.454 . S
U326 O328 2.458 . S
U326 C329 2.984 . S
U326 C330 2.847 . S
U326 C343 2.882 . S
U326 O344 2.441 . S
U326 O345 2.420 . S
U326 O346 2.455 . S
U326 O347 2.449 . S
O327 U326 2.454 . S
O327 C329 1.353 . S
O328 U326 2.458 . S
O328 C329 1.286 . S
C329 U326 2.984 . S
C329 O327 1.353 . S
C329 O328 1.286 . S
C329 C331 1.363 . S
C330 C320 1.465 . S
C330 U326 2.847 . S
C330 O344 1.249 . S
C330 O345 1.202 . S
C331 C329 1.363 . S
C331 C333 1.408 . S
C331 C336 1.342 . S
C332 C333 1.310 . S
C332 C335 1.461 . S
C332 H352 0.932 . S
C333 C331 1.408 . S
C333 C332 1.310 . S
C333 H353 0.930 . S
C334 C335 1.474 . S
C334 C336 1.285 . S
C334 H354 0.929 . S
C335 C332 1.461 . S
C335 C334 1.474 . S
C336 C331 1.342 . S
C336 C334 1.285 . S
C336 H355 0.930 . S
C337 C340 1.424 . S
C337 C342 1.245 . S
C337 C343 1.428 . S
C338 C341 1.260 . S
C338 C342 1.477 . S
C338 H356 0.932 . S
C339 C340 1.384 . S
C339 C341 1.479 . S
C339 H357 0.929 . S
C340 C337 1.424 . S
C340 C339 1.384 . S
C340 H358 0.928 . S
C341 C338 1.260 . S
C341 C339 1.479 . S
C342 C337 1.245 . S
C342 C338 1.477 . S
C342 H359 0.932 . S
C343 U326 2.882 . S
C343 C337 1.428 . S
C343 O346 1.301 . S
C343 O347 1.282 . S
O344 U326 2.441 . S
O344 C330 1.249 . S
O345 U326 2.420 . S
O345 C330 1.202 . S
O346 U326 2.455 . S
O346 C343 1.301 . S
O347 U326 2.449 . S
O347 C343 1.282 . S
H348 C321 0.931 . S
H349 C323 0.929 . S
H350 C324 0.930 . S
H351 C325 0.931 . S
H352 C332 0.932 . S
H353 C333 0.930 . S
H354 C334 0.929 . S
H355 C336 0.930 . S
H356 C338 0.932 . S
H357 C339 0.929 . S
H358 C340 0.928 . S
H359 C342 0.932 . S
C360 C361 1.264 . S
C360 C365 1.479 . S
C360 C370 1.465 . S
C361 C360 1.264 . S
C361 C363 1.339 . S
C361 H388 0.931 . S
C362 C363 1.395 . S
C362 C364 1.320 . S
C363 C361 1.339 . S
C363 C362 1.395 . S
C363 H389 0.929 . S
C364 C362 1.320 . S
C364 C365 1.405 . S
C364 H390 0.930 . S
C365 C360 1.479 . S
C365 C364 1.405 . S
C365 H391 0.931 . S
U366 O367 2.454 . S
U366 O368 2.458 . S
U366 C369 2.984 . S
U366 C370 2.847 . S
U366 C383 2.882 . S
U366 O384 2.441 . S
U366 O385 2.420 . S
U366 O386 2.455 . S
U366 O387 2.449 . S
O367 U366 2.454 . S
O367 C369 1.353 . S
O368 U366 2.458 . S
O368 C369 1.286 . S
C369 U366 2.984 . S
C369 O367 1.353 . S
C369 O368 1.286 . S
C369 C371 1.363 . S
C370 C360 1.465 . S
C370 U366 2.847 . S
C370 O384 1.249 . S
C370 O385 1.202 . S
C371 C369 1.363 . S
C371 C373 1.408 . S
C371 C376 1.342 . S
C372 C373 1.310 . S
C372 C375 1.461 . S
C372 H392 0.932 . S
C373 C371 1.408 . S
C373 C372 1.310 . S
C373 H393 0.930 . S
C374 C375 1.474 . S
C374 C376 1.285 . S
C374 H394 0.929 . S
C375 C372 1.461 . S
C375 C374 1.474 . S
C376 C371 1.342 . S
C376 C374 1.285 . S
C376 H395 0.930 . S
C377 C380 1.424 . S
C377 C382 1.245 . S
C377 C383 1.428 . S
C378 C381 1.260 . S
C378 C382 1.477 . S
C378 H396 0.932 . S
C379 C380 1.384 . S
C379 C381 1.479 . S
C379 H397 0.929 . S
C380 C377 1.424 . S
C380 C379 1.384 . S
C380 H398 0.928 . S
C381 C378 1.260 . S
C381 C379 1.479 . S
C382 C377 1.245 . S
C382 C378 1.477 . S
C382 H399 0.932 . S
C383 U366 2.882 . S
C383 C377 1.428 . S
C383 O386 1.301 . S
C383 O387 1.282 . S
O384 U366 2.441 . S
O384 C370 1.249 . S
O385 U366 2.420 . S
O385 C370 1.202 . S
O386 U366 2.455 . S
O386 C383 1.301 . S
O387 U366 2.449 . S
O387 C383 1.282 . S
H388 C361 0.931 . S
H389 C363 0.929 . S
H390 C364 0.930 . S
H391 C365 0.931 . S
H392 C372 0.932 . S
H393 C373 0.930 . S
H394 C374 0.929 . S
H395 C376 0.930 . S
H396 C378 0.932 . S
H397 C379 0.929 . S
H398 C380 0.928 . S
H399 C382 0.932 . S
C400 C401 1.264 . S
C400 C405 1.479 . S
C400 C410 1.465 . S
C401 C400 1.264 . S
C401 C403 1.339 . S
C401 H428 0.931 . S
C402 C403 1.395 . S
C402 C404 1.320 . S
C403 C401 1.339 . S
C403 C402 1.395 . S
C403 H429 0.929 . S
C404 C402 1.320 . S
C404 C405 1.405 . S
C404 H430 0.930 . S
C405 C400 1.479 . S
C405 C404 1.405 . S
C405 H431 0.931 . S
U406 O407 2.454 . S
U406 O408 2.458 . S
U406 C409 2.984 . S
U406 C410 2.847 . S
U406 C423 2.882 . S
U406 O424 2.441 . S
U406 O425 2.420 . S
U406 O426 2.455 . S
U406 O427 2.449 . S
O407 U406 2.454 . S
O407 C409 1.353 . S
O408 U406 2.458 . S
O408 C409 1.286 . S
C409 U406 2.984 . S
C409 O407 1.353 . S
C409 O408 1.286 . S
C409 C411 1.363 . S
C410 C400 1.465 . S
C410 U406 2.847 . S
C410 O424 1.249 . S
C410 O425 1.202 . S
C411 C409 1.363 . S
C411 C413 1.408 . S
C411 C416 1.342 . S
C412 C413 1.310 . S
C412 C415 1.461 . S
C412 H432 0.932 . S
C413 C411 1.408 . S
C413 C412 1.310 . S
C413 H433 0.930 . S
C414 C415 1.474 . S
C414 C416 1.285 . S
C414 H434 0.929 . S
C415 C412 1.461 . S
C415 C414 1.474 . S
C416 C411 1.342 . S
C416 C414 1.285 . S
C416 H435 0.930 . S
C417 C420 1.424 . S
C417 C422 1.245 . S
C417 C423 1.428 . S
C418 C421 1.260 . S
C418 C422 1.477 . S
C418 H436 0.932 . S
C419 C420 1.384 . S
C419 C421 1.479 . S
C419 H437 0.929 . S
C420 C417 1.424 . S
C420 C419 1.384 . S
C420 H438 0.928 . S
C421 C418 1.260 . S
C421 C419 1.479 . S
C422 C417 1.245 . S
C422 C418 1.477 . S
C422 H439 0.932 . S
C423 U406 2.882 . S
C423 C417 1.428 . S
C423 O426 1.301 . S
C423 O427 1.282 . S
O424 U406 2.441 . S
O424 C410 1.249 . S
O425 U406 2.420 . S
O425 C410 1.202 . S
O426 U406 2.455 . S
O426 C423 1.301 . S
O427 U406 2.449 . S
O427 C423 1.282 . S
H428 C401 0.931 . S
H429 C403 0.929 . S
H430 C404 0.930 . S
H431 C405 0.931 . S
H432 C412 0.932 . S
H433 C413 0.930 . S
H434 C414 0.929 . S
H435 C416 0.930 . S
H436 C418 0.932 . S
H437 C419 0.929 . S
H438 C420 0.928 . S
H439 C422 0.932 . S
C440 C441 1.264 . S
C440 C445 1.479 . S
C440 C450 1.465 . S
C441 C440 1.264 . S
C441 C443 1.339 . S
C441 H468 0.931 . S
C442 C443 1.395 . S
C442 C444 1.320 . S
C443 C441 1.339 . S
C443 C442 1.395 . S
C443 H469 0.929 . S
C444 C442 1.320 . S
C444 C445 1.405 . S
C444 H470 0.930 . S
C445 C440 1.479 . S
C445 C444 1.405 . S
C445 H471 0.931 . S
U446 O447 2.454 . S
U446 O448 2.458 . S
U446 C449 2.984 . S
U446 C450 2.847 . S
U446 C463 2.882 . S
U446 O464 2.441 . S
U446 O465 2.420 . S
U446 O466 2.455 . S
U446 O467 2.449 . S
O447 U446 2.454 . S
O447 C449 1.353 . S
O448 U446 2.458 . S
O448 C449 1.286 . S
C449 U446 2.984 . S
C449 O447 1.353 . S
C449 O448 1.286 . S
C449 C451 1.363 . S
C450 C440 1.465 . S
C450 U446 2.847 . S
C450 O464 1.249 . S
C450 O465 1.202 . S
C451 C449 1.363 . S
C451 C453 1.408 . S
C451 C456 1.342 . S
C452 C453 1.310 . S
C452 C455 1.461 . S
C452 H472 0.932 . S
C453 C451 1.408 . S
C453 C452 1.310 . S
C453 H473 0.930 . S
C454 C455 1.474 . S
C454 C456 1.285 . S
C454 H474 0.929 . S
C455 C452 1.461 . S
C455 C454 1.474 . S
C456 C451 1.342 . S
C456 C454 1.285 . S
C456 H475 0.930 . S
C457 C460 1.424 . S
C457 C462 1.245 . S
C457 C463 1.428 . S
C458 C461 1.260 . S
C458 C462 1.477 . S
C458 H476 0.932 . S
C459 C460 1.384 . S
C459 C461 1.479 . S
C459 H477 0.929 . S
C460 C457 1.424 . S
C460 C459 1.384 . S
C460 H478 0.928 . S
C461 C458 1.260 . S
C461 C459 1.479 . S
C462 C457 1.245 . S
C462 C458 1.477 . S
C462 H479 0.932 . S
C463 U446 2.882 . S
C463 C457 1.428 . S
C463 O466 1.301 . S
C463 O467 1.282 . S
O464 U446 2.441 . S
O464 C450 1.249 . S
O465 U446 2.420 . S
O465 C450 1.202 . S
O466 U446 2.455 . S
O466 C463 1.301 . S
O467 U446 2.449 . S
O467 C463 1.282 . S
H468 C441 0.931 . S
H469 C443 0.929 . S
H470 C444 0.930 . S
H471 C445 0.931 . S
H472 C452 0.932 . S
H473 C453 0.930 . S
H474 C454 0.929 . S
H475 C456 0.930 . S
H476 C458 0.932 . S
H477 C459 0.929 . S
H478 C460 0.928 . S
H479 C462 0.932 . S
C480 C481 1.264 . S
C480 C485 1.479 . S
C480 C490 1.465 . S
C481 C480 1.264 . S
C481 C483 1.339 . S
C481 H508 0.931 . S
C482 C483 1.395 . S
C482 C484 1.320 . S
C483 C481 1.339 . S
C483 C482 1.395 . S
C483 H509 0.929 . S
C484 C482 1.320 . S
C484 C485 1.405 . S
C484 H510 0.930 . S
C485 C480 1.479 . S
C485 C484 1.405 . S
C485 H511 0.931 . S
U486 O487 2.454 . S
U486 O488 2.458 . S
U486 C489 2.984 . S
U486 C490 2.847 . S
U486 C503 2.882 . S
U486 O504 2.441 . S
U486 O505 2.420 . S
U486 O506 2.455 . S
U486 O507 2.449 . S
O487 U486 2.454 . S
O487 C489 1.353 . S
O488 U486 2.458 . S
O488 C489 1.286 . S
C489 U486 2.984 . S
C489 O487 1.353 . S
C489 O488 1.286 . S
C489 C491 1.363 . S
C490 C480 1.465 . S
C490 U486 2.847 . S
C490 O504 1.249 . S
C490 O505 1.202 . S
C491 C489 1.363 . S
C491 C493 1.408 . S
C491 C496 1.342 . S
C492 C493 1.310 . S
C492 C495 1.461 . S
C492 H512 0.932 . S
C493 C491 1.408 . S
C493 C492 1.310 . S
C493 H513 0.930 . S
C494 C495 1.474 . S
C494 C496 1.285 . S
C494 H514 0.929 . S
C495 C492 1.461 . S
C495 C494 1.474 . S
C496 C491 1.342 . S
C496 C494 1.285 . S
C496 H515 0.930 . S
C497 C500 1.424 . S
C497 C502 1.245 . S
C497 C503 1.428 . S
C498 C501 1.260 . S
C498 C502 1.477 . S
C498 H516 0.932 . S
C499 C500 1.384 . S
C499 C501 1.479 . S
C499 H517 0.929 . S
C500 C497 1.424 . S
C500 C499 1.384 . S
C500 H518 0.928 . S
C501 C498 1.260 . S
C501 C499 1.479 . S
C502 C497 1.245 . S
C502 C498 1.477 . S
C502 H519 0.932 . S
C503 U486 2.882 . S
C503 C497 1.428 . S
C503 O506 1.301 . S
C503 O507 1.282 . S
O504 U486 2.441 . S
O504 C490 1.249 . S
O505 U486 2.420 . S
O505 C490 1.202 . S
O506 U486 2.455 . S
O506 C503 1.301 . S
O507 U486 2.449 . S
O507 C503 1.282 . S
H508 C481 0.931 . S
H509 C483 0.929 . S
H510 C484 0.930 . S
H511 C485 0.931 . S
H512 C492 0.932 . S
H513 C493 0.930 . S
H514 C494 0.929 . S
H515 C496 0.930 . S
H516 C498 0.932 . S
H517 C499 0.929 . S
H518 C500 0.928 . S
H519 C502 0.932 . S
C520 C521 1.264 . S
C520 C525 1.479 . S
C520 C530 1.465 . S
C521 C520 1.264 . S
C521 C523 1.339 . S
C521 H548 0.931 . S
C522 C523 1.395 . S
C522 C524 1.320 . S
C523 C521 1.339 . S
C523 C522 1.395 . S
C523 H549 0.929 . S
C524 C522 1.320 . S
C524 C525 1.405 . S
C524 H550 0.930 . S
C525 C520 1.479 . S
C525 C524 1.405 . S
C525 H551 0.931 . S
U526 O527 2.454 . S
U526 O528 2.458 . S
U526 C529 2.984 . S
U526 C530 2.847 . S
U526 C543 2.882 . S
U526 O544 2.441 . S
U526 O545 2.420 . S
U526 O546 2.455 . S
U526 O547 2.449 . S
O527 U526 2.454 . S
O527 C529 1.353 . S
O528 U526 2.458 . S
O528 C529 1.286 . S
C529 U526 2.984 . S
C529 O527 1.353 . S
C529 O528 1.286 . S
C529 C531 1.363 . S
C530 C520 1.465 . S
C530 U526 2.847 . S
C530 O544 1.249 . S
C530 O545 1.202 . S
C531 C529 1.363 . S
C531 C533 1.408 . S
C531 C536 1.342 . S
C532 C533 1.310 . S
C532 C535 1.461 . S
C532 H552 0.932 . S
C533 C531 1.408 . S
C533 C532 1.310 . S
C533 H553 0.930 . S
C534 C535 1.474 . S
C534 C536 1.285 . S
C534 H554 0.929 . S
C535 C532 1.461 . S
C535 C534 1.474 . S
C536 C531 1.342 . S
C536 C534 1.285 . S
C536 H555 0.930 . S
C537 C540 1.424 . S
C537 C542 1.245 . S
C537 C543 1.428 . S
C538 C541 1.260 . S
C538 C542 1.477 . S
C538 H556 0.932 . S
C539 C540 1.384 . S
C539 C541 1.479 . S
C539 H557 0.929 . S
C540 C537 1.424 . S
C540 C539 1.384 . S
C540 H558 0.928 . S
C541 C538 1.260 . S
C541 C539 1.479 . S
C542 C537 1.245 . S
C542 C538 1.477 . S
C542 H559 0.932 . S
C543 U526 2.882 . S
C543 C537 1.428 . S
C543 O546 1.301 . S
C543 O547 1.282 . S
O544 U526 2.441 . S
O544 C530 1.249 . S
O545 U526 2.420 . S
O545 C530 1.202 . S
O546 U526 2.455 . S
O546 C543 1.301 . S
O547 U526 2.449 . S
O547 C543 1.282 . S
H548 C521 0.931 . S
H549 C523 0.929 . S
H550 C524 0.930 . S
H551 C525 0.931 . S
H552 C532 0.932 . S
H553 C533 0.930 . S
H554 C534 0.929 . S
H555 C536 0.930 . S
H556 C538 0.932 . S
H557 C539 0.929 . S
H558 C540 0.928 . S
H559 C542 0.932 . S
C560 C561 1.264 . S
C560 C565 1.479 . S
C560 C570 1.465 . S
C561 C560 1.264 . S
C561 C563 1.339 . S
C561 H588 0.931 . S
C562 C563 1.395 . S
C562 C564 1.320 . S
C563 C561 1.339 . S
C563 C562 1.395 . S
C563 H589 0.929 . S
C564 C562 1.320 . S
C564 C565 1.405 . S
C564 H590 0.930 . S
C565 C560 1.479 . S
C565 C564 1.405 . S
C565 H591 0.931 . S
U566 O567 2.454 . S
U566 O568 2.458 . S
U566 C569 2.984 . S
U566 C570 2.847 . S
U566 C583 2.882 . S
U566 O584 2.441 . S
U566 O585 2.420 . S
U566 O586 2.455 . S
U566 O587 2.449 . S
O567 U566 2.454 . S
O567 C569 1.353 . S
O568 U566 2.458 . S
O568 C569 1.286 . S
C569 U566 2.984 . S
C569 O567 1.353 . S
C569 O568 1.286 . S
C569 C571 1.363 . S
C570 C560 1.465 . S
C570 U566 2.847 . S
C570 O584 1.249 . S
C570 O585 1.202 . S
C571 C569 1.363 . S
C571 C573 1.408 . S
C571 C576 1.342 . S
C572 C573 1.310 . S
C572 C575 1.461 . S
C572 H592 0.932 . S
C573 C571 1.408 . S
C573 C572 1.310 . S
C573 H593 0.930 . S
C574 C575 1.474 . S
C574 C576 1.285 . S
C574 H594 0.929 . S
C575 C572 1.461 . S
C575 C574 1.474 . S
C576 C571 1.342 . S
C576 C574 1.285 . S
C576 H595 0.930 . S
C577 C580 1.424 . S
C577 C582 1.245 . S
C577 C583 1.428 . S
C578 C581 1.260 . S
C578 C582 1.477 . S
C578 H596 0.932 . S
C579 C580 1.384 . S
C579 C581 1.479 . S
C579 H597 0.929 . S
C580 C577 1.424 . S
C580 C579 1.384 . S
C580 H598 0.928 . S
C581 C578 1.260 . S
C581 C579 1.479 . S
C582 C577 1.245 . S
C582 C578 1.477 . S
C582 H599 0.932 . S
C583 U566 2.882 . S
C583 C577 1.428 . S
C583 O586 1.301 . S
C583 O587 1.282 . S
O584 U566 2.441 . S
O584 C570 1.249 . S
O585 U566 2.420 . S
O585 C570 1.202 . S
O586 U566 2.455 . S
O586 C583 1.301 . S
O587 U566 2.449 . S
O587 C583 1.282 . S
H588 C561 0.931 . S
H589 C563 0.929 . S
H590 C564 0.930 . S
H591 C565 0.931 . S
H592 C572 0.932 . S
H593 C573 0.930 . S
H594 C574 0.929 . S
H595 C576 0.930 . S
H596 C578 0.932 . S
H597 C579 0.929 . S
H598 C580 0.928 . S
H599 C582 0.932 . S
C600 C601 1.264 . S
C600 C605 1.479 . S
C600 C610 1.465 . S
C601 C600 1.264 . S
C601 C603 1.339 . S
C601 H628 0.931 . S
C602 C603 1.395 . S
C602 C604 1.320 . S
C603 C601 1.339 . S
C603 C602 1.395 . S
C603 H629 0.929 . S
C604 C602 1.320 . S
C604 C605 1.405 . S
C604 H630 0.930 . S
C605 C600 1.479 . S
C605 C604 1.405 . S
C605 H631 0.931 . S
U606 O607 2.454 . S
U606 O608 2.458 . S
U606 C609 2.984 . S
U606 C610 2.847 . S
U606 C623 2.882 . S
U606 O624 2.441 . S
U606 O625 2.420 . S
U606 O626 2.455 . S
U606 O627 2.449 . S
O607 U606 2.454 . S
O607 C609 1.353 . S
O608 U606 2.458 . S
O608 C609 1.286 . S
C609 U606 2.984 . S
C609 O607 1.353 . S
C609 O608 1.286 . S
C609 C611 1.363 . S
C610 C600 1.465 . S
C610 U606 2.847 . S
C610 O624 1.249 . S
C610 O625 1.202 . S
C611 C609 1.363 . S
C611 C613 1.408 . S
C611 C616 1.342 . S
C612 C613 1.310 . S
C612 C615 1.461 . S
C612 H632 0.932 . S
C613 C611 1.408 . S
C613 C612 1.310 . S
C613 H633 0.930 . S
C614 C615 1.474 . S
C614 C616 1.285 . S
C614 H634 0.929 . S
C615 C612 1.461 . S
C615 C614 1.474 . S
C616 C611 1.342 . S
C616 C614 1.285 . S
C616 H635 0.930 . S
C617 C620 1.424 . S
C617 C622 1.245 . S
C617 C623 1.428 . S
C618 C621 1.260 . S
C618 C622 1.477 . S
C618 H636 0.932 . S
C619 C620 1.384 . S
C619 C621 1.479 . S
C619 H637 0.929 . S
C620 C617 1.424 . S
C620 C619 1.384 . S
C620 H638 0.928 . S
C621 C618 1.260 . S
C621 C619 1.479 . S
C622 C617 1.245 . S
C622 C618 1.477 . S
C622 H639 0.932 . S
C623 U606 2.882 . S
C623 C617 1.428 . S
C623 O626 1.301 . S
C623 O627 1.282 . S
O624 U606 2.441 . S
O624 C610 1.249 . S
O625 U606 2.420 . S
O625 C610 1.202 . S
O626 U606 2.455 . S
O626 C623 1.301 . S
O627 U606 2.449 . S
O627 C623 1.282 . S
H628 C601 0.931 . S
H629 C603 0.929 . S
H630 C604 0.930 . S
H631 C605 0.931 . S
H632 C612 0.932 . S
H633 C613 0.930 . S
H634 C614 0.929 . S
H635 C616 0.930 . S
H636 C618 0.932 . S
H637 C619 0.929 . S
H638 C620 0.928 . S
H639 C622 0.932 . S
C640 C641 1.264 . S
C640 C645 1.479 . S
C640 C650 1.465 . S
C641 C640 1.264 . S
C641 C643 1.339 . S
C641 H668 0.931 . S
C642 C643 1.395 . S
C642 C644 1.320 . S
C643 C641 1.339 . S
C643 C642 1.395 . S
C643 H669 0.929 . S
C644 C642 1.320 . S
C644 C645 1.405 . S
C644 H670 0.930 . S
C645 C640 1.479 . S
C645 C644 1.405 . S
C645 H671 0.931 . S
U646 O647 2.454 . S
U646 O648 2.458 . S
U646 C649 2.984 . S
U646 C650 2.847 . S
U646 C663 2.882 . S
U646 O664 2.441 . S
U646 O665 2.420 . S
U646 O666 2.455 . S
U646 O667 2.449 . S
O647 U646 2.454 . S
O647 C649 1.353 . S
O648 U646 2.458 . S
O648 C649 1.286 . S
C649 U646 2.984 . S
C649 O647 1.353 . S
C649 O648 1.286 . S
C649 C651 1.363 . S
C650 C640 1.465 . S
C650 U646 2.847 . S
C650 O664 1.249 . S
C650 O665 1.202 . S
C651 C649 1.363 . S
C651 C653 1.408 . S
C651 C656 1.342 . S
C652 C653 1.310 . S
C652 C655 1.461 . S
C652 H672 0.932 . S
C653 C651 1.408 . S
C653 C652 1.310 . S
C653 H673 0.930 . S
C654 C655 1.474 . S
C654 C656 1.285 . S
C654 H674 0.929 . S
C655 C652 1.461 . S
C655 C654 1.474 . S
C656 C651 1.342 . S
C656 C654 1.285 . S
C656 H675 0.930 . S
C657 C660 1.424 . S
C657 C662 1.245 . S
C657 C663 1.428 . S
C658 C661 1.260 . S
C658 C662 1.477 . S
C658 H676 0.932 . S
C659 C660 1.384 . S
C659 C661 1.479 . S
C659 H677 0.929 . S
C660 C657 1.424 . S
C660 C659 1.384 . S
C660 H678 0.928 . S
C661 C658 1.260 . S
C661 C659 1.479 . S
C662 C657 1.245 . S
C662 C658 1.477 . S
C662 H679 0.932 . S
C663 U646 2.882 . S
C663 C657 1.428 . S
C663 O666 1.301 . S
C663 O667 1.282 . S
O664 U646 2.441 . S
O664 C650 1.249 . S
O665 U646 2.420 . S
O665 C650 1.202 . S
O666 U646 2.455 . S
O666 C663 1.301 . S
O667 U646 2.449 . S
O667 C663 1.282 . S
H668 C641 0.931 . S
H669 C643 0.929 . S
H670 C644 0.930 . S
H671 C645 0.931 . S
H672 C652 0.932 . S
H673 C653 0.930 . S
H674 C654 0.929 . S
H675 C656 0.930 . S
H676 C658 0.932 . S
H677 C659 0.929 . S
H678 C660 0.928 . S
H679 C662 0.932 . S
C680 C681 1.264 . S
C680 C685 1.479 . S
C680 C690 1.465 . S
C681 C680 1.264 . S
C681 C683 1.339 . S
C681 H708 0.931 . S
C682 C683 1.395 . S
C682 C684 1.320 . S
C683 C681 1.339 . S
C683 C682 1.395 . S
C683 H709 0.929 . S
C684 C682 1.320 . S
C684 C685 1.405 . S
C684 H710 0.930 . S
C685 C680 1.479 . S
C685 C684 1.405 . S
C685 H711 0.931 . S
U686 O687 2.454 . S
U686 O688 2.458 . S
U686 C689 2.984 . S
U686 C690 2.847 . S
U686 C703 2.882 . S
U686 O704 2.441 . S
U686 O705 2.420 . S
U686 O706 2.455 . S
U686 O707 2.449 . S
O687 U686 2.454 . S
O687 C689 1.353 . S
O688 U686 2.458 . S
O688 C689 1.286 . S
C689 U686 2.984 . S
C689 O687 1.353 . S
C689 O688 1.286 . S
C689 C691 1.363 . S
C690 C680 1.465 . S
C690 U686 2.847 . S
C690 O704 1.249 . S
C690 O705 1.202 . S
C691 C689 1.363 . S
C691 C693 1.408 . S
C691 C696 1.342 . S
C692 C693 1.310 . S
C692 C695 1.461 . S
C692 H712 0.932 . S
C693 C691 1.408 . S
C693 C692 1.310 . S
C693 H713 0.930 . S
C694 C695 1.474 . S
C694 C696 1.285 . S
C694 H714 0.929 . S
C695 C692 1.461 . S
C695 C694 1.474 . S
C696 C691 1.342 . S
C696 C694 1.285 . S
C696 H715 0.930 . S
C697 C700 1.424 . S
C697 C702 1.245 . S
C697 C703 1.428 . S
C698 C701 1.260 . S
C698 C702 1.477 . S
C698 H716 0.932 . S
C699 C700 1.384 . S
C699 C701 1.479 . S
C699 H717 0.929 . S
C700 C697 1.424 . S
C700 C699 1.384 . S
C700 H718 0.928 . S
C701 C698 1.260 . S
C701 C699 1.479 . S
C702 C697 1.245 . S
C702 C698 1.477 . S
C702 H719 0.932 . S
C703 U686 2.882 . S
C703 C697 1.428 . S
C703 O706 1.301 . S
C703 O707 1.282 . S
O704 U686 2.441 . S
O704 C690 1.249 . S
O705 U686 2.420 . S
O705 C690 1.202 . S
O706 U686 2.455 . S
O706 C703 1.301 . S
O707 U686 2.449 . S
O707 C703 1.282 . S
H708 C681 0.931 . S
H709 C683 0.929 . S
H710 C684 0.930 . S
H711 C685 0.931 . S
H712 C692 0.932 . S
H713 C693 0.930 . S
H714 C694 0.929 . S
H715 C696 0.930 . S
H716 C698 0.932 . S
H717 C699 0.929 . S
H718 C700 0.928 . S
H719 C702 0.932 . S
Tb720 N751 2.660 . S
Tb720 N758 2.600 . S
Tb720 O764 2.546 . S
Tb720 O765 2.609 1_565 S
Tb720 O767 2.320 1_565 S
Tb720 O768 2.552 1_565 S
Tb720 O769 2.413 . S
Tb720 O771 2.362 1_556 S
Tb720 O772 2.421 . S
Tb720 C784 2.833 . S
C721 C724 1.432 . S
C721 C725 1.414 . S
C721 N728 1.359 . S
C722 C724 1.417 . S
C722 C726 1.432 . S
C722 C734 1.410 . S
C723 C725 1.444 . S
C723 C726 1.317 . S
C723 H746 0.929 . S
C724 C721 1.432 . S
C724 C722 1.417 . S
C724 N732 1.360 . S
C725 C721 1.414 . S
C725 C723 1.444 . S
C725 C730 1.385 . S
C726 C722 1.432 . S
C726 C723 1.317 . S
C726 H738 0.930 . S
C727 C729 1.392 . S
C727 C730 1.370 . S
C727 H739 0.931 . S
N728 C721 1.359 . S
N728 C729 1.327 . S
N728 Tb731 2.600 . S
C729 C727 1.392 . S
C729 N728 1.327 . S
C729 H736 0.930 . S
C730 C725 1.385 . S
C730 C727 1.370 . S
C730 H749 0.930 . S
Tb731 N728 2.600 . S
Tb731 N732 2.660 . S
Tb731 O765 2.362 1_554 S
Tb731 O766 2.421 . S
Tb731 O770 2.546 . S
Tb731 O771 2.610 1_545 S
Tb731 O773 2.320 1_545 S
Tb731 O774 2.552 1_545 S
Tb731 O775 2.413 . S
Tb731 C795 2.833 . S
N732 C724 1.360 . S
N732 Tb731 2.660 . S
N732 C733 1.305 . S
C733 N732 1.305 . S
C733 C735 1.407 . S
C733 H740 0.930 . S
C734 C722 1.410 . S
C734 C735 1.345 . S
C734 H742 0.930 . S
C735 C733 1.407 . S
C735 C734 1.345 . S
C735 H737 0.930 . S
H736 C729 0.930 . S
H737 C735 0.930 . S
H738 C726 0.930 . S
H739 C727 0.931 . S
H740 C733 0.930 . S
H741 C755 0.930 . S
H742 C734 0.930 . S
H743 C761 0.930 . S
H744 C752 0.930 . S
H745 C759 0.931 . S
H746 C723 0.929 . S
H747 C753 0.930 . S
H748 C786 0.930 . S
H749 C730 0.930 . S
H750 C785 0.929 . S
N751 Tb720 2.660 . S
N751 C752 1.305 . S
N751 C756 1.360 . S
C752 H744 0.930 . S
C752 N751 1.305 . S
C752 C755 1.407 . S
C753 H747 0.930 . S
C753 C754 1.410 . S
C753 C755 1.345 . S
C754 C753 1.410 . S
C754 C756 1.417 . S
C754 C786 1.432 . S
C755 H741 0.930 . S
C755 C752 1.407 . S
C755 C753 1.345 . S
C756 N751 1.360 . S
C756 C754 1.417 . S
C756 C760 1.432 . S
H757 C762 0.930 . S
N758 Tb720 2.600 . S
N758 C760 1.359 . S
N758 C761 1.327 . S
C759 H745 0.931 . S
C759 C761 1.392 . S
C759 C762 1.370 . S
C760 C756 1.432 . S
C760 N758 1.359 . S
C760 C763 1.414 . S
C761 H743 0.930 . S
C761 N758 1.327 . S
C761 C759 1.392 . S
C762 H757 0.930 . S
C762 C759 1.370 . S
C762 C763 1.385 . S
C763 C760 1.414 . S
C763 C762 1.385 . S
C763 C785 1.444 . S
O764 Tb720 2.546 . S
O764 C784 1.251 . S
O765 Tb720 2.609 1_545 S
O765 Tb731 2.362 1_556 S
O765 C776 1.283 . S
O766 Tb731 2.421 . S
O766 C783 1.262 1_554 S
O767 Tb720 2.320 1_545 S
O767 C783 1.260 . S
O768 Tb720 2.552 1_545 S
O768 C776 1.243 . S
O769 Tb720 2.413 . S
O769 C784 1.256 . S
O770 Tb731 2.546 . S
O770 C795 1.251 . S
O771 Tb720 2.362 1_554 S
O771 Tb731 2.610 1_565 S
O771 C787 1.283 . S
O772 Tb720 2.421 . S
O772 C794 1.262 1_556 S
O773 Tb731 2.320 1_565 S
O773 C794 1.260 . S
O774 Tb731 2.552 1_565 S
O774 C787 1.243 . S
O775 Tb731 2.413 . S
O775 C795 1.256 . S
C776 O765 1.283 . S
C776 O768 1.243 . S
C777 C779 1.382 1_565 S
C777 C781 1.393 . S
C777 C784 1.500 . S
C778 C779 1.400 . S
C778 C780 1.384 1_545 S
C779 C777 1.382 1_545 S
C779 C778 1.400 . S
C779 H796 0.930 . S
C780 C778 1.384 1_565 S
C780 C782 1.392 . S
C780 H797 0.932 . S
C781 C777 1.393 . S
C781 C782 1.401 . S
C781 H798 0.930 . S
C782 C780 1.392 . S
C782 C781 1.401 . S
C782 H799 0.930 . S
C783 O766 1.262 1_556 S
C783 O767 1.260 . S
C784 Tb720 2.833 . S
C784 O764 1.251 . S
C784 O769 1.256 . S
C784 C777 1.500 . S
C785 H750 0.929 . S
C785 C763 1.444 . S
C785 C786 1.317 . S
C786 H748 0.930 . S
C786 C754 1.432 . S
C786 C785 1.317 . S
C787 O771 1.283 . S
C787 O774 1.243 . S
C788 C789 1.382 1_545 S
C788 C792 1.393 . S
C788 C795 1.500 . S
C789 C788 1.382 1_565 S
C789 C790 1.400 . S
C789 H800 0.930 . S
C790 C789 1.400 . S
C790 C791 1.384 1_565 S
C791 C790 1.384 1_545 S
C791 C793 1.392 . S
C791 H801 0.931 . S
C792 C788 1.393 . S
C792 C793 1.401 . S
C792 H802 0.930 . S
C793 C791 1.392 . S
C793 C792 1.401 . S
C793 H803 0.930 . S
C794 O772 1.262 1_554 S
C794 O773 1.260 . S
C795 Tb731 2.833 . S
C795 O770 1.251 . S
C795 O775 1.256 . S
C795 C788 1.500 . S
H796 C779 0.930 . S
H797 C780 0.932 . S
H798 C781 0.930 . S
H799 C782 0.930 . S
H800 C789 0.930 . S
H801 C791 0.931 . S
H802 C792 0.930 . S
H803 C793 0.930 . S
Tb804 N835 2.660 . S
Tb804 N842 2.600 . S
Tb804 O848 2.546 . S
Tb804 O849 2.617 1_455 S
Tb804 O851 2.320 1_455 S
Tb804 O852 2.552 1_455 S
Tb804 O853 2.413 . S
Tb804 O855 2.362 1_556 S
Tb804 O856 2.453 . S
Tb804 C868 2.833 . S
C805 C808 1.432 . S
C805 C809 1.414 . S
C805 N812 1.359 . S
C806 C808 1.417 . S
C806 C810 1.432 . S
C806 C818 1.410 . S
C807 C809 1.444 . S
C807 C810 1.317 . S
C807 H830 0.929 . S
C808 C805 1.432 . S
C808 C806 1.417 . S
C808 N816 1.360 . S
C809 C805 1.414 . S
C809 C807 1.444 . S
C809 C814 1.385 . S
C810 C806 1.432 . S
C810 C807 1.317 . S
C810 H822 0.930 . S
C811 C813 1.392 . S
C811 C814 1.370 . S
C811 H823 0.931 . S
N812 C805 1.359 . S
N812 C813 1.327 . S
N812 Tb815 2.600 . S
C813 C811 1.392 . S
C813 N812 1.327 . S
C813 H820 0.930 . S
C814 C809 1.385 . S
C814 C811 1.370 . S
C814 H833 0.930 . S
Tb815 N812 2.600 . S
Tb815 N816 2.660 . S
Tb815 O849 2.349 1_554 S
Tb815 O850 2.421 . S
Tb815 O854 2.546 . S
Tb815 O855 2.610 1_655 S
Tb815 O857 2.320 1_655 S
Tb815 O858 2.552 1_655 S
Tb815 O859 2.413 . S
Tb815 C879 2.833 . S
N816 C808 1.360 . S
N816 Tb815 2.660 . S
N816 C817 1.305 . S
C817 N816 1.305 . S
C817 C819 1.407 . S
C817 H824 0.930 . S
C818 C806 1.410 . S
C818 C819 1.345 . S
C818 H826 0.930 . S
C819 C817 1.407 . S
C819 C818 1.345 . S
C819 H821 0.930 . S
H820 C813 0.930 . S
H821 C819 0.930 . S
H822 C810 0.930 . S
H823 C811 0.931 . S
H824 C817 0.930 . S
H825 C839 0.930 . S
H826 C818 0.930 . S
H827 C845 0.930 . S
H828 C836 0.930 . S
H829 C843 0.931 . S
H830 C807 0.929 . S
H831 C837 0.930 . S
H832 C870 0.930 . S
H833 C814 0.930 . S
H834 C869 0.929 . S
N835 Tb804 2.660 . S
N835 C836 1.305 . S
N835 C840 1.360 . S
C836 H828 0.930 . S
C836 N835 1.305 . S
C836 C839 1.407 . S
C837 H831 0.930 . S
C837 C838 1.410 . S
C837 C839 1.345 . S
C838 C837 1.410 . S
C838 C840 1.417 . S
C838 C870 1.432 . S
C839 H825 0.930 . S
C839 C836 1.407 . S
C839 C837 1.345 . S
C840 N835 1.360 . S
C840 C838 1.417 . S
C840 C844 1.432 . S
H841 C846 0.930 . S
N842 Tb804 2.600 . S
N842 C844 1.359 . S
N842 C845 1.327 . S
C843 H829 0.931 . S
C843 C845 1.392 . S
C843 C846 1.370 . S
C844 C840 1.432 . S
C844 N842 1.359 . S
C844 C847 1.414 . S
C845 H827 0.930 . S
C845 N842 1.327 . S
C845 C843 1.392 . S
C846 H841 0.930 . S
C846 C843 1.370 . S
C846 C847 1.385 . S
C847 C844 1.414 . S
C847 C846 1.385 . S
C847 C869 1.444 . S
O848 Tb804 2.546 . S
O848 C868 1.251 . S
O849 Tb804 2.617 1_655 S
O849 Tb815 2.349 1_556 S
O849 C860 1.294 . S
O850 Tb815 2.421 . S
O850 C867 1.262 1_554 S
O851 Tb804 2.320 1_655 S
O851 C867 1.260 . S
O852 Tb804 2.552 1_655 S
O852 C860 1.243 . S
O853 Tb804 2.413 . S
O853 C868 1.256 . S
O854 Tb815 2.546 . S
O854 C879 1.251 . S
O855 Tb804 2.362 1_554 S
O855 Tb815 2.610 1_455 S
O855 C871 1.283 . S
O856 Tb804 2.453 . S
O856 C878 1.205 1_556 S
O857 Tb815 2.320 1_455 S
O857 C878 1.260 . S
O858 Tb815 2.552 1_455 S
O858 C871 1.243 . S
O859 Tb815 2.413 . S
O859 C879 1.256 . S
C860 O849 1.294 . S
C860 O852 1.243 . S
C861 C863 1.382 1_455 S
C861 C865 1.393 . S
C861 C868 1.500 . S
C862 C863 1.400 . S
C862 C864 1.384 1_655 S
C863 C861 1.382 1_655 S
C863 C862 1.400 . S
C863 H880 0.930 . S
C864 C862 1.384 1_455 S
C864 C866 1.392 . S
C864 H881 0.931 . S
C865 C861 1.393 . S
C865 C866 1.401 . S
C865 H882 0.930 . S
C866 C864 1.392 . S
C866 C865 1.401 . S
C866 H883 0.930 . S
C867 O850 1.262 1_556 S
C867 O851 1.260 . S
C868 Tb804 2.833 . S
C868 O848 1.251 . S
C868 O853 1.256 . S
C868 C861 1.500 . S
C869 H834 0.929 . S
C869 C847 1.444 . S
C869 C870 1.317 . S
C870 H832 0.930 . S
C870 C838 1.432 . S
C870 C869 1.317 . S
C871 O855 1.283 . S
C871 O858 1.243 . S
C872 C873 1.382 1_655 S
C872 C876 1.393 . S
C872 C879 1.500 . S
C873 C872 1.382 1_455 S
C873 C874 1.400 . S
C873 H884 0.930 . S
C874 C873 1.400 . S
C874 C875 1.384 1_455 S
C875 C874 1.384 1_655 S
C875 C877 1.392 . S
C875 H885 0.931 . S
C876 C872 1.393 . S
C876 C877 1.401 . S
C876 H886 0.930 . S
C877 C875 1.392 . S
C877 C876 1.401 . S
C877 H887 0.930 . S
C878 O856 1.205 1_554 S
C878 O857 1.260 . S
C879 Tb815 2.833 . S
C879 O854 1.251 . S
C879 O859 1.256 . S
C879 C872 1.500 . S
H880 C863 0.930 . S
H881 C864 0.931 . S
H882 C865 0.930 . S
H883 C866 0.930 . S
H884 C873 0.930 . S
H885 C875 0.931 . S
H886 C876 0.930 . S
H887 C877 0.930 . S
Tb888 N919 2.660 . S
Tb888 N926 2.600 . S
Tb888 O932 2.546 . S
Tb888 O933 2.610 . S
Tb888 O935 2.320 . S
Tb888 O936 2.552 . S
Tb888 O937 2.413 . S
Tb888 O939 2.311 1_554 S
Tb888 O940 2.421 . S
Tb888 C952 2.833 . S
C889 C892 1.432 . S
C889 C893 1.414 . S
C889 N896 1.359 . S
C890 C892 1.417 . S
C890 C894 1.432 . S
C890 C902 1.410 . S
C891 C893 1.444 . S
C891 C894 1.317 . S
C891 H914 0.929 . S
C892 C889 1.432 . S
C892 C890 1.417 . S
C892 N900 1.360 . S
C893 C889 1.414 . S
C893 C891 1.444 . S
C893 C898 1.385 . S
C894 C890 1.432 . S
C894 C891 1.317 . S
C894 H906 0.930 . S
C895 C897 1.392 . S
C895 C898 1.370 . S
C895 H907 0.931 . S
N896 C889 1.359 . S
N896 C897 1.327 . S
N896 Tb899 2.600 . S
C897 C895 1.392 . S
C897 N896 1.327 . S
C897 H904 0.930 . S
C898 C893 1.385 . S
C898 C895 1.370 . S
C898 H917 0.930 . S
Tb899 N896 2.600 . S
Tb899 N900 2.660 . S
Tb899 O933 2.362 1_556 S
Tb899 O934 2.421 . S
Tb899 O938 2.546 . S
Tb899 O939 2.640 . S
Tb899 O941 2.320 . S
Tb899 O942 2.552 . S
Tb899 O943 2.413 . S
Tb899 C963 2.833 . S
N900 C892 1.360 . S
N900 Tb899 2.660 . S
N900 C901 1.305 . S
C901 N900 1.305 . S
C901 C903 1.407 . S
C901 H908 0.930 . S
C902 C890 1.410 . S
C902 C903 1.345 . S
C902 H910 0.930 . S
C903 C901 1.407 . S
C903 C902 1.345 . S
C903 H905 0.930 . S
H904 C897 0.930 . S
H905 C903 0.930 . S
H906 C894 0.930 . S
H907 C895 0.931 . S
H908 C901 0.930 . S
H909 C923 0.930 . S
H910 C902 0.930 . S
H911 C929 0.930 . S
H912 C920 0.930 . S
H913 C927 0.931 . S
H914 C891 0.929 . S
H915 C921 0.930 . S
H916 C954 0.930 . S
H917 C898 0.930 . S
H918 C953 0.929 . S
N919 Tb888 2.660 . S
N919 C920 1.305 . S
N919 C924 1.360 . S
C920 H912 0.930 . S
C920 N919 1.305 . S
C920 C923 1.407 . S
C921 H915 0.930 . S
C921 C922 1.410 . S
C921 C923 1.345 . S
C922 C921 1.410 . S
C922 C924 1.417 . S
C922 C954 1.432 . S
C923 H909 0.930 . S
C923 C920 1.407 . S
C923 C921 1.345 . S
C924 N919 1.360 . S
C924 C922 1.417 . S
C924 C928 1.432 . S
H925 C930 0.930 . S
N926 Tb888 2.600 . S
N926 C928 1.359 . S
N926 C929 1.327 . S
C927 H913 0.931 . S
C927 C929 1.392 . S
C927 C930 1.370 . S
C928 C924 1.432 . S
C928 N926 1.359 . S
C928 C931 1.414 . S
C929 H911 0.930 . S
C929 N926 1.327 . S
C929 C927 1.392 . S
C930 H925 0.930 . S
C930 C927 1.370 . S
C930 C931 1.385 . S
C931 C928 1.414 . S
C931 C930 1.385 . S
C931 C953 1.444 . S
O932 Tb888 2.546 . S
O932 C952 1.251 . S
O933 Tb888 2.610 . S
O933 Tb899 2.362 1_554 S
O933 C944 1.283 . S
O934 Tb899 2.421 . S
O934 C951 1.262 1_556 S
O935 Tb888 2.320 . S
O935 C951 1.260 . S
O936 Tb888 2.552 . S
O936 C944 1.243 . S
O937 Tb888 2.413 . S
O937 C952 1.256 . S
O938 Tb899 2.546 . S
O938 C963 1.251 . S
O939 Tb888 2.311 1_556 S
O939 Tb899 2.640 . S
O939 C955 1.325 . S
O940 Tb888 2.421 . S
O940 C962 1.262 1_554 S
O941 Tb899 2.320 . S
O941 C962 1.260 . S
O942 Tb899 2.552 . S
O942 C955 1.243 . S
O943 Tb899 2.413 . S
O943 C963 1.256 . S
C944 O933 1.283 . S
C944 O936 1.243 . S
C945 C947 1.382 . S
C945 C949 1.393 . S
C945 C952 1.500 . S
C946 C947 1.400 . S
C946 C948 1.384 . S
C947 C945 1.382 . S
C947 C946 1.400 . S
C947 H964 0.930 . S
C948 C946 1.384 . S
C948 C950 1.392 . S
C948 H965 0.931 . S
C949 C945 1.393 . S
C949 C950 1.401 . S
C949 H966 0.930 . S
C950 C948 1.392 . S
C950 C949 1.401 . S
C950 H967 0.930 . S
C951 O934 1.262 1_554 S
C951 O935 1.260 . S
C952 Tb888 2.833 . S
C952 O932 1.251 . S
C952 O937 1.256 . S
C952 C945 1.500 . S
C953 H918 0.929 . S
C953 C931 1.444 . S
C953 C954 1.317 . S
C954 H916 0.930 . S
C954 C922 1.432 . S
C954 C953 1.317 . S
C955 O939 1.325 . S
C955 O942 1.243 . S
C956 C957 1.382 . S
C956 C960 1.393 . S
C956 C963 1.500 . S
C957 C956 1.382 . S
C957 C958 1.400 . S
C957 H968 0.930 . S
C958 C957 1.400 . S
C958 C959 1.384 . S
C959 C958 1.384 . S
C959 C961 1.392 . S
C959 H969 0.931 . S
C960 C956 1.393 . S
C960 C961 1.401 . S
C960 H970 0.930 . S
C961 C959 1.392 . S
C961 C960 1.401 . S
C961 H971 0.930 . S
C962 O940 1.262 1_556 S
C962 O941 1.260 . S
C963 Tb899 2.833 . S
C963 O938 1.251 . S
C963 O943 1.256 . S
C963 C956 1.500 . S
H964 C947 0.930 . S
H965 C948 0.931 . S
H966 C949 0.930 . S
H967 C950 0.930 . S
H968 C957 0.930 . S
H969 C959 0.931 . S
H970 C960 0.930 . S
H971 C961 0.930 . S
Tb972 N1003 2.660 . S
Tb972 N1010 2.600 . S
Tb972 O1016 2.546 . S
Tb972 O1017 2.610 . S
Tb972 O1019 2.320 . S
Tb972 O1020 2.552 . S
Tb972 O1021 2.413 . S
Tb972 O1023 2.362 . S
Tb972 O1024 2.421 . S
Tb972 C1036 2.833 . S
C973 C976 1.432 . S
C973 C977 1.414 . S
C973 N980 1.359 . S
C974 C976 1.417 . S
C974 C978 1.432 . S
C974 C986 1.410 . S
C975 C977 1.444 . S
C975 C978 1.317 . S
C975 H998 0.929 . S
C976 C973 1.432 . S
C976 C974 1.417 . S
C976 N984 1.360 . S
C977 C973 1.414 . S
C977 C975 1.444 . S
C977 C982 1.385 . S
C978 C974 1.432 . S
C978 C975 1.317 . S
C978 H990 0.930 . S
C979 C981 1.392 . S
C979 C982 1.370 . S
C979 H991 0.931 . S
N980 C973 1.359 . S
N980 C981 1.327 . S
N980 Tb983 2.600 . S
C981 C979 1.392 . S
C981 N980 1.327 . S
C981 H988 0.930 . S
C982 C977 1.385 . S
C982 C979 1.370 . S
C982 H1001 0.930 . S
Tb983 N980 2.600 . S
Tb983 N984 2.660 . S
Tb983 O1017 2.362 . S
Tb983 O1018 2.421 . S
Tb983 O1022 2.546 . S
Tb983 O1023 2.610 . S
Tb983 O1025 2.320 . S
Tb983 O1026 2.552 . S
Tb983 O1027 2.413 . S
Tb983 C1047 2.833 . S
N984 C976 1.360 . S
N984 Tb983 2.660 . S
N984 C985 1.305 . S
C985 N984 1.305 . S
C985 C987 1.407 . S
C985 H992 0.930 . S
C986 C974 1.410 . S
C986 C987 1.345 . S
C986 H994 0.930 . S
C987 C985 1.407 . S
C987 C986 1.345 . S
C987 H989 0.930 . S
H988 C981 0.930 . S
H989 C987 0.930 . S
H990 C978 0.930 . S
H991 C979 0.931 . S
H992 C985 0.930 . S
H993 C1007 0.930 . S
H994 C986 0.930 . S
H995 C1013 0.930 . S
H996 C1004 0.930 . S
H997 C1011 0.931 . S
H998 C975 0.929 . S
H999 C1005 0.930 . S
H1000 C1038 0.930 . S
H1001 C982 0.930 . S
H1002 C1037 0.929 . S
N1003 Tb972 2.660 . S
N1003 C1004 1.305 . S
N1003 C1008 1.360 . S
C1004 H996 0.930 . S
C1004 N1003 1.305 . S
C1004 C1007 1.407 . S
C1005 H999 0.930 . S
C1005 C1006 1.410 . S
C1005 C1007 1.345 . S
C1006 C1005 1.410 . S
C1006 C1008 1.417 . S
C1006 C1038 1.432 . S
C1007 H993 0.930 . S
C1007 C1004 1.407 . S
C1007 C1005 1.345 . S
C1008 N1003 1.360 . S
C1008 C1006 1.417 . S
C1008 C1012 1.432 . S
H1009 C1014 0.930 . S
N1010 Tb972 2.600 . S
N1010 C1012 1.359 . S
N1010 C1013 1.327 . S
C1011 H997 0.931 . S
C1011 C1013 1.392 . S
C1011 C1014 1.370 . S
C1012 C1008 1.432 . S
C1012 N1010 1.359 . S
C1012 C1015 1.414 . S
C1013 H995 0.930 . S
C1013 N1010 1.327 . S
C1013 C1011 1.392 . S
C1014 H1009 0.930 . S
C1014 C1011 1.370 . S
C1014 C1015 1.385 . S
C1015 C1012 1.414 . S
C1015 C1014 1.385 . S
C1015 C1037 1.444 . S
O1016 Tb972 2.546 . S
O1016 C1036 1.251 . S
O1017 Tb972 2.610 . S
O1017 Tb983 2.362 . S
O1017 C1028 1.283 . S
O1018 Tb983 2.421 . S
O1018 C1035 1.262 . S
O1019 Tb972 2.320 . S
O1019 C1035 1.260 . S
O1020 Tb972 2.552 . S
O1020 C1028 1.243 . S
O1021 Tb972 2.413 . S
O1021 C1036 1.256 . S
O1022 Tb983 2.546 . S
O1022 C1047 1.251 . S
O1023 Tb972 2.362 . S
O1023 Tb983 2.610 . S
O1023 C1039 1.283 . S
O1024 Tb972 2.421 . S
O1024 C1046 1.262 . S
O1025 Tb983 2.320 . S
O1025 C1046 1.260 . S
O1026 Tb983 2.552 . S
O1026 C1039 1.243 . S
O1027 Tb983 2.413 . S
O1027 C1047 1.256 . S
C1028 O1017 1.283 . S
C1028 O1020 1.243 . S
C1029 C1031 1.382 . S
C1029 C1033 1.393 . S
C1029 C1036 1.500 . S
C1030 C1031 1.400 . S
C1030 C1032 1.384 . S
C1031 C1029 1.382 . S
C1031 C1030 1.400 . S
C1031 H1048 0.930 . S
C1032 C1030 1.384 . S
C1032 C1034 1.392 . S
C1032 H1049 0.931 . S
C1033 C1029 1.393 . S
C1033 C1034 1.401 . S
C1033 H1050 0.930 . S
C1034 C1032 1.392 . S
C1034 C1033 1.401 . S
C1034 H1051 0.930 . S
C1035 O1018 1.262 . S
C1035 O1019 1.260 . S
C1036 Tb972 2.833 . S
C1036 O1016 1.251 . S
C1036 O1021 1.256 . S
C1036 C1029 1.500 . S
C1037 H1002 0.929 . S
C1037 C1015 1.444 . S
C1037 C1038 1.317 . S
C1038 H1000 0.930 . S
C1038 C1006 1.432 . S
C1038 C1037 1.317 . S
C1039 O1023 1.283 . S
C1039 O1026 1.243 . S
C1040 C1041 1.382 . S
C1040 C1044 1.393 . S
C1040 C1047 1.500 . S
C1041 C1040 1.382 . S
C1041 C1042 1.400 . S
C1041 H1052 0.930 . S
C1042 C1041 1.400 . S
C1042 C1043 1.384 . S
C1043 C1042 1.384 . S
C1043 C1045 1.392 . S
C1043 H1053 0.931 . S
C1044 C1040 1.393 . S
C1044 C1045 1.401 . S
C1044 H1054 0.930 . S
C1045 C1043 1.392 . S
C1045 C1044 1.401 . S
C1045 H1055 0.930 . S
C1046 O1024 1.262 . S
C1046 O1025 1.260 . S
C1047 Tb983 2.833 . S
C1047 O1022 1.251 . S
C1047 O1027 1.256 . S
C1047 C1040 1.500 . S
H1048 C1031 0.930 . S
H1049 C1032 0.931 . S
H1050 C1033 0.930 . S
H1051 C1034 0.930 . S
H1052 C1041 0.930 . S
H1053 C1043 0.931 . S
H1054 C1044 0.930 . S
H1055 C1045 0.930 . S
Tb1056 N1087 2.660 . S
Tb1056 N1094 2.600 . S
Tb1056 O1100 2.546 . S
Tb1056 O1101 2.610 . S
Tb1056 O1103 2.320 . S
Tb1056 O1104 2.552 . S
Tb1056 O1105 2.413 . S
Tb1056 O1107 2.362 . S
Tb1056 O1108 2.421 . S
Tb1056 C1120 2.833 . S
C1057 C1060 1.432 . S
C1057 C1061 1.414 . S
C1057 N1064 1.359 . S
C1058 C1060 1.417 . S
C1058 C1062 1.432 . S
C1058 C1070 1.410 . S
C1059 C1061 1.444 . S
C1059 C1062 1.317 . S
C1059 H1082 0.929 . S
C1060 C1057 1.432 . S
C1060 C1058 1.417 . S
C1060 N1068 1.360 . S
C1061 C1057 1.414 . S
C1061 C1059 1.444 . S
C1061 C1066 1.385 . S
C1062 C1058 1.432 . S
C1062 C1059 1.317 . S
C1062 H1074 0.930 . S
C1063 C1065 1.392 . S
C1063 C1066 1.370 . S
C1063 H1075 0.931 . S
N1064 C1057 1.359 . S
N1064 C1065 1.327 . S
N1064 Tb1067 2.600 . S
C1065 C1063 1.392 . S
C1065 N1064 1.327 . S
C1065 H1072 0.930 . S
C1066 C1061 1.385 . S
C1066 C1063 1.370 . S
C1066 H1085 0.930 . S
Tb1067 N1064 2.600 . S
Tb1067 N1068 2.660 . S
Tb1067 O1101 2.362 . S
Tb1067 O1102 2.421 . S
Tb1067 O1106 2.546 . S
Tb1067 O1107 2.610 . S
Tb1067 O1109 2.320 . S
Tb1067 O1110 2.552 . S
Tb1067 O1111 2.413 . S
Tb1067 C1131 2.833 . S
N1068 C1060 1.360 . S
N1068 Tb1067 2.660 . S
N1068 C1069 1.305 . S
C1069 N1068 1.305 . S
C1069 C1071 1.407 . S
C1069 H1076 0.930 . S
C1070 C1058 1.410 . S
C1070 C1071 1.345 . S
C1070 H1078 0.930 . S
C1071 C1069 1.407 . S
C1071 C1070 1.345 . S
C1071 H1073 0.930 . S
H1072 C1065 0.930 . S
H1073 C1071 0.930 . S
H1074 C1062 0.930 . S
H1075 C1063 0.931 . S
H1076 C1069 0.930 . S
H1077 C1091 0.930 . S
H1078 C1070 0.930 . S
H1079 C1097 0.930 . S
H1080 C1088 0.930 . S
H1081 C1095 0.931 . S
H1082 C1059 0.929 . S
H1083 C1089 0.930 . S
H1084 C1122 0.930 . S
H1085 C1066 0.930 . S
H1086 C1121 0.929 . S
N1087 Tb1056 2.660 . S
N1087 C1088 1.305 . S
N1087 C1092 1.360 . S
C1088 H1080 0.930 . S
C1088 N1087 1.305 . S
C1088 C1091 1.407 . S
C1089 H1083 0.930 . S
C1089 C1090 1.410 . S
C1089 C1091 1.345 . S
C1090 C1089 1.410 . S
C1090 C1092 1.417 . S
C1090 C1122 1.432 . S
C1091 H1077 0.930 . S
C1091 C1088 1.407 . S
C1091 C1089 1.345 . S
C1092 N1087 1.360 . S
C1092 C1090 1.417 . S
C1092 C1096 1.432 . S
H1093 C1098 0.930 . S
N1094 Tb1056 2.600 . S
N1094 C1096 1.359 . S
N1094 C1097 1.327 . S
C1095 H1081 0.931 . S
C1095 C1097 1.392 . S
C1095 C1098 1.370 . S
C1096 C1092 1.432 . S
C1096 N1094 1.359 . S
C1096 C1099 1.414 . S
C1097 H1079 0.930 . S
C1097 N1094 1.327 . S
C1097 C1095 1.392 . S
C1098 H1093 0.930 . S
C1098 C1095 1.370 . S
C1098 C1099 1.385 . S
C1099 C1096 1.414 . S
C1099 C1098 1.385 . S
C1099 C1121 1.444 . S
O1100 Tb1056 2.546 . S
O1100 C1120 1.251 . S
O1101 Tb1056 2.610 . S
O1101 Tb1067 2.362 . S
O1101 C1112 1.283 . S
O1102 Tb1067 2.421 . S
O1102 C1119 1.262 . S
O1103 Tb1056 2.320 . S
O1103 C1119 1.260 . S
O1104 Tb1056 2.552 . S
O1104 C1112 1.243 . S
O1105 Tb1056 2.413 . S
O1105 C1120 1.256 . S
O1106 Tb1067 2.546 . S
O1106 C1131 1.251 . S
O1107 Tb1056 2.362 . S
O1107 Tb1067 2.610 . S
O1107 C1123 1.283 . S
O1108 Tb1056 2.421 . S
O1108 C1130 1.262 . S
O1109 Tb1067 2.320 . S
O1109 C1130 1.260 . S
O1110 Tb1067 2.552 . S
O1110 C1123 1.243 . S
O1111 Tb1067 2.413 . S
O1111 C1131 1.256 . S
C1112 O1101 1.283 . S
C1112 O1104 1.243 . S
C1113 C1115 1.382 . S
C1113 C1117 1.393 . S
C1113 C1120 1.500 . S
C1114 C1115 1.400 . S
C1114 C1116 1.384 . S
C1115 C1113 1.382 . S
C1115 C1114 1.400 . S
C1115 H1132 0.930 . S
C1116 C1114 1.384 . S
C1116 C1118 1.392 . S
C1116 H1133 0.931 . S
C1117 C1113 1.393 . S
C1117 C1118 1.401 . S
C1117 H1134 0.930 . S
C1118 C1116 1.392 . S
C1118 C1117 1.401 . S
C1118 H1135 0.930 . S
C1119 O1102 1.262 . S
C1119 O1103 1.260 . S
C1120 Tb1056 2.833 . S
C1120 O1100 1.251 . S
C1120 O1105 1.256 . S
C1120 C1113 1.500 . S
C1121 H1086 0.929 . S
C1121 C1099 1.444 . S
C1121 C1122 1.317 . S
C1122 H1084 0.930 . S
C1122 C1090 1.432 . S
C1122 C1121 1.317 . S
C1123 O1107 1.283 . S
C1123 O1110 1.243 . S
C1124 C1125 1.382 . S
C1124 C1128 1.393 . S
C1124 C1131 1.500 . S
C1125 C1124 1.382 . S
C1125 C1126 1.400 . S
C1125 H1136 0.930 . S
C1126 C1125 1.400 . S
C1126 C1127 1.384 . S
C1127 C1126 1.384 . S
C1127 C1129 1.392 . S
C1127 H1137 0.931 . S
C1128 C1124 1.393 . S
C1128 C1129 1.401 . S
C1128 H1138 0.930 . S
C1129 C1127 1.392 . S
C1129 C1128 1.401 . S
C1129 H1139 0.930 . S
C1130 O1108 1.262 . S
C1130 O1109 1.260 . S
C1131 Tb1067 2.833 . S
C1131 O1106 1.251 . S
C1131 O1111 1.256 . S
C1131 C1124 1.500 . S
H1132 C1115 0.930 . S
H1133 C1116 0.931 . S
H1134 C1117 0.930 . S
H1135 C1118 0.930 . S
H1136 C1125 0.930 . S
H1137 C1127 0.931 . S
H1138 C1128 0.930 . S
H1139 C1129 0.930 . S
Tb1140 N1171 2.660 . S
Tb1140 N1178 2.600 . S
Tb1140 O1184 2.546 . S
Tb1140 O1185 2.610 . S
Tb1140 O1187 2.320 . S
Tb1140 O1188 2.552 . S
Tb1140 O1189 2.413 . S
Tb1140 O1191 2.362 . S
Tb1140 O1192 2.421 . S
Tb1140 C1204 2.833 . S
C1141 C1144 1.432 . S
C1141 C1145 1.414 . S
C1141 N1148 1.359 . S
C1142 C1144 1.417 . S
C1142 C1146 1.432 . S
C1142 C1154 1.410 . S
C1143 C1145 1.444 . S
C1143 C1146 1.317 . S
C1143 H1166 0.929 . S
C1144 C1141 1.432 . S
C1144 C1142 1.417 . S
C1144 N1152 1.360 . S
C1145 C1141 1.414 . S
C1145 C1143 1.444 . S
C1145 C1150 1.385 . S
C1146 C1142 1.432 . S
C1146 C1143 1.317 . S
C1146 H1158 0.930 . S
C1147 C1149 1.392 . S
C1147 C1150 1.370 . S
C1147 H1159 0.931 . S
N1148 C1141 1.359 . S
N1148 C1149 1.327 . S
N1148 Tb1151 2.600 . S
C1149 C1147 1.392 . S
C1149 N1148 1.327 . S
C1149 H1156 0.930 . S
C1150 C1145 1.385 . S
C1150 C1147 1.370 . S
C1150 H1169 0.930 . S
Tb1151 N1148 2.600 . S
Tb1151 N1152 2.660 . S
Tb1151 O1185 2.362 . S
Tb1151 O1186 2.421 . S
Tb1151 O1190 2.546 . S
Tb1151 O1191 2.610 . S
Tb1151 O1193 2.320 . S
Tb1151 O1194 2.552 . S
Tb1151 O1195 2.413 . S
Tb1151 C1215 2.833 . S
N1152 C1144 1.360 . S
N1152 Tb1151 2.660 . S
N1152 C1153 1.305 . S
C1153 N1152 1.305 . S
C1153 C1155 1.407 . S
C1153 H1160 0.930 . S
C1154 C1142 1.410 . S
C1154 C1155 1.345 . S
C1154 H1162 0.930 . S
C1155 C1153 1.407 . S
C1155 C1154 1.345 . S
C1155 H1157 0.930 . S
H1156 C1149 0.930 . S
H1157 C1155 0.930 . S
H1158 C1146 0.930 . S
H1159 C1147 0.931 . S
H1160 C1153 0.930 . S
H1161 C1175 0.930 . S
H1162 C1154 0.930 . S
H1163 C1181 0.930 . S
H1164 C1172 0.930 . S
H1165 C1179 0.931 . S
H1166 C1143 0.929 . S
H1167 C1173 0.930 . S
H1168 C1206 0.930 . S
H1169 C1150 0.930 . S
H1170 C1205 0.929 . S
N1171 Tb1140 2.660 . S
N1171 C1172 1.305 . S
N1171 C1176 1.360 . S
C1172 H1164 0.930 . S
C1172 N1171 1.305 . S
C1172 C1175 1.407 . S
C1173 H1167 0.930 . S
C1173 C1174 1.410 . S
C1173 C1175 1.345 . S
C1174 C1173 1.410 . S
C1174 C1176 1.417 . S
C1174 C1206 1.432 . S
C1175 H1161 0.930 . S
C1175 C1172 1.407 . S
C1175 C1173 1.345 . S
C1176 N1171 1.360 . S
C1176 C1174 1.417 . S
C1176 C1180 1.432 . S
H1177 C1182 0.930 . S
N1178 Tb1140 2.600 . S
N1178 C1180 1.359 . S
N1178 C1181 1.327 . S
C1179 H1165 0.931 . S
C1179 C1181 1.392 . S
C1179 C1182 1.370 . S
C1180 C1176 1.432 . S
C1180 N1178 1.359 . S
C1180 C1183 1.414 . S
C1181 H1163 0.930 . S
C1181 N1178 1.327 . S
C1181 C1179 1.392 . S
C1182 H1177 0.930 . S
C1182 C1179 1.370 . S
C1182 C1183 1.385 . S
C1183 C1180 1.414 . S
C1183 C1182 1.385 . S
C1183 C1205 1.444 . S
O1184 Tb1140 2.546 . S
O1184 C1204 1.251 . S
O1185 Tb1140 2.610 . S
O1185 Tb1151 2.362 . S
O1185 C1196 1.283 . S
O1186 Tb1151 2.421 . S
O1186 C1203 1.262 . S
O1187 Tb1140 2.320 . S
O1187 C1203 1.260 . S
O1188 Tb1140 2.552 . S
O1188 C1196 1.243 . S
O1189 Tb1140 2.413 . S
O1189 C1204 1.256 . S
O1190 Tb1151 2.546 . S
O1190 C1215 1.251 . S
O1191 Tb1140 2.362 . S
O1191 Tb1151 2.610 . S
O1191 C1207 1.283 . S
O1192 Tb1140 2.421 . S
O1192 C1214 1.262 . S
O1193 Tb1151 2.320 . S
O1193 C1214 1.260 . S
O1194 Tb1151 2.552 . S
O1194 C1207 1.243 . S
O1195 Tb1151 2.413 . S
O1195 C1215 1.256 . S
C1196 O1185 1.283 . S
C1196 O1188 1.243 . S
C1197 C1199 1.382 . S
C1197 C1201 1.393 . S
C1197 C1204 1.500 . S
C1198 C1199 1.400 . S
C1198 C1200 1.384 . S
C1199 C1197 1.382 . S
C1199 C1198 1.400 . S
C1199 H1216 0.930 . S
C1200 C1198 1.384 . S
C1200 C1202 1.392 . S
C1200 H1217 0.931 . S
C1201 C1197 1.393 . S
C1201 C1202 1.401 . S
C1201 H1218 0.930 . S
C1202 C1200 1.392 . S
C1202 C1201 1.401 . S
C1202 H1219 0.930 . S
C1203 O1186 1.262 . S
C1203 O1187 1.260 . S
C1204 Tb1140 2.833 . S
C1204 O1184 1.251 . S
C1204 O1189 1.256 . S
C1204 C1197 1.500 . S
C1205 H1170 0.929 . S
C1205 C1183 1.444 . S
C1205 C1206 1.317 . S
C1206 H1168 0.930 . S
C1206 C1174 1.432 . S
C1206 C1205 1.317 . S
C1207 O1191 1.283 . S
C1207 O1194 1.243 . S
C1208 C1209 1.382 . S
C1208 C1212 1.393 . S
C1208 C1215 1.500 . S
C1209 C1208 1.382 . S
C1209 C1210 1.400 . S
C1209 H1220 0.930 . S
C1210 C1209 1.400 . S
C1210 C1211 1.384 . S
C1211 C1210 1.384 . S
C1211 C1213 1.392 . S
C1211 H1221 0.931 . S
C1212 C1208 1.393 . S
C1212 C1213 1.401 . S
C1212 H1222 0.930 . S
C1213 C1211 1.392 . S
C1213 C1212 1.401 . S
C1213 H1223 0.930 . S
C1214 O1192 1.262 . S
C1214 O1193 1.260 . S
C1215 Tb1151 2.833 . S
C1215 O1190 1.251 . S
C1215 O1195 1.256 . S
C1215 C1208 1.500 . S
H1216 C1199 0.930 . S
H1217 C1200 0.931 . S
H1218 C1201 0.930 . S
H1219 C1202 0.930 . S
H1220 C1209 0.930 . S
H1221 C1211 0.931 . S
H1222 C1212 0.930 . S
H1223 C1213 0.930 . S
Tb1224 N1255 2.660 . S
Tb1224 N1262 2.600 . S
Tb1224 O1268 2.546 . S
Tb1224 O1269 2.610 . S
Tb1224 O1271 2.320 . S
Tb1224 O1272 2.552 . S
Tb1224 O1273 2.413 . S
Tb1224 O1275 2.362 . S
Tb1224 O1276 2.421 . S
Tb1224 C1288 2.833 . S
C1225 C1228 1.432 . S
C1225 C1229 1.414 . S
C1225 N1232 1.359 . S
C1226 C1228 1.417 . S
C1226 C1230 1.432 . S
C1226 C1238 1.410 . S
C1227 C1229 1.444 . S
C1227 C1230 1.317 . S
C1227 H1250 0.929 . S
C1228 C1225 1.432 . S
C1228 C1226 1.417 . S
C1228 N1236 1.360 . S
C1229 C1225 1.414 . S
C1229 C1227 1.444 . S
C1229 C1234 1.385 . S
C1230 C1226 1.432 . S
C1230 C1227 1.317 . S
C1230 H1242 0.930 . S
C1231 C1233 1.392 . S
C1231 C1234 1.370 . S
C1231 H1243 0.931 . S
N1232 C1225 1.359 . S
N1232 C1233 1.327 . S
N1232 Tb1235 2.600 . S
C1233 C1231 1.392 . S
C1233 N1232 1.327 . S
C1233 H1240 0.930 . S
C1234 C1229 1.385 . S
C1234 C1231 1.370 . S
C1234 H1253 0.930 . S
Tb1235 N1232 2.600 . S
Tb1235 N1236 2.660 . S
Tb1235 O1269 2.362 . S
Tb1235 O1270 2.421 . S
Tb1235 O1274 2.546 . S
Tb1235 O1275 2.610 . S
Tb1235 O1277 2.320 . S
Tb1235 O1278 2.552 . S
Tb1235 O1279 2.413 . S
Tb1235 C1299 2.833 . S
N1236 C1228 1.360 . S
N1236 Tb1235 2.660 . S
N1236 C1237 1.305 . S
C1237 N1236 1.305 . S
C1237 C1239 1.407 . S
C1237 H1244 0.930 . S
C1238 C1226 1.410 . S
C1238 C1239 1.345 . S
C1238 H1246 0.930 . S
C1239 C1237 1.407 . S
C1239 C1238 1.345 . S
C1239 H1241 0.930 . S
H1240 C1233 0.930 . S
H1241 C1239 0.930 . S
H1242 C1230 0.930 . S
H1243 C1231 0.931 . S
H1244 C1237 0.930 . S
H1245 C1259 0.930 . S
H1246 C1238 0.930 . S
H1247 C1265 0.930 . S
H1248 C1256 0.930 . S
H1249 C1263 0.931 . S
H1250 C1227 0.929 . S
H1251 C1257 0.930 . S
H1252 C1290 0.930 . S
H1253 C1234 0.930 . S
H1254 C1289 0.929 . S
N1255 Tb1224 2.660 . S
N1255 C1256 1.305 . S
N1255 C1260 1.360 . S
C1256 H1248 0.930 . S
C1256 N1255 1.305 . S
C1256 C1259 1.407 . S
C1257 H1251 0.930 . S
C1257 C1258 1.410 . S
C1257 C1259 1.345 . S
C1258 C1257 1.410 . S
C1258 C1260 1.417 . S
C1258 C1290 1.432 . S
C1259 H1245 0.930 . S
C1259 C1256 1.407 . S
C1259 C1257 1.345 . S
C1260 N1255 1.360 . S
C1260 C1258 1.417 . S
C1260 C1264 1.432 . S
H1261 C1266 0.930 . S
N1262 Tb1224 2.600 . S
N1262 C1264 1.359 . S
N1262 C1265 1.327 . S
C1263 H1249 0.931 . S
C1263 C1265 1.392 . S
C1263 C1266 1.370 . S
C1264 C1260 1.432 . S
C1264 N1262 1.359 . S
C1264 C1267 1.414 . S
C1265 H1247 0.930 . S
C1265 N1262 1.327 . S
C1265 C1263 1.392 . S
C1266 H1261 0.930 . S
C1266 C1263 1.370 . S
C1266 C1267 1.385 . S
C1267 C1264 1.414 . S
C1267 C1266 1.385 . S
C1267 C1289 1.444 . S
O1268 Tb1224 2.546 . S
O1268 C1288 1.251 . S
O1269 Tb1224 2.610 . S
O1269 Tb1235 2.362 . S
O1269 C1280 1.283 . S
O1270 Tb1235 2.421 . S
O1270 C1287 1.262 . S
O1271 Tb1224 2.320 . S
O1271 C1287 1.260 . S
O1272 Tb1224 2.552 . S
O1272 C1280 1.243 . S
O1273 Tb1224 2.413 . S
O1273 C1288 1.256 . S
O1274 Tb1235 2.546 . S
O1274 C1299 1.251 . S
O1275 Tb1224 2.362 . S
O1275 Tb1235 2.610 . S
O1275 C1291 1.283 . S
O1276 Tb1224 2.421 . S
O1276 C1298 1.262 . S
O1277 Tb1235 2.320 . S
O1277 C1298 1.260 . S
O1278 Tb1235 2.552 . S
O1278 C1291 1.243 . S
O1279 Tb1235 2.413 . S
O1279 C1299 1.256 . S
C1280 O1269 1.283 . S
C1280 O1272 1.243 . S
C1281 C1283 1.382 . S
C1281 C1285 1.393 . S
C1281 C1288 1.500 . S
C1282 C1283 1.400 . S
C1282 C1284 1.384 . S
C1283 C1281 1.382 . S
C1283 C1282 1.400 . S
C1283 H1300 0.930 . S
C1284 C1282 1.384 . S
C1284 C1286 1.392 . S
C1284 H1301 0.931 . S
C1285 C1281 1.393 . S
C1285 C1286 1.401 . S
C1285 H1302 0.930 . S
C1286 C1284 1.392 . S
C1286 C1285 1.401 . S
C1286 H1303 0.930 . S
C1287 O1270 1.262 . S
C1287 O1271 1.260 . S
C1288 Tb1224 2.833 . S
C1288 O1268 1.251 . S
C1288 O1273 1.256 . S
C1288 C1281 1.500 . S
C1289 H1254 0.929 . S
C1289 C1267 1.444 . S
C1289 C1290 1.317 . S
C1290 H1252 0.930 . S
C1290 C1258 1.432 . S
C1290 C1289 1.317 . S
C1291 O1275 1.283 . S
C1291 O1278 1.243 . S
C1292 C1293 1.382 . S
C1292 C1296 1.393 . S
C1292 C1299 1.500 . S
C1293 C1292 1.382 . S
C1293 C1294 1.400 . S
C1293 H1304 0.930 . S
C1294 C1293 1.400 . S
C1294 C1295 1.384 . S
C1295 C1294 1.384 . S
C1295 C1297 1.392 . S
C1295 H1305 0.931 . S
C1296 C1292 1.393 . S
C1296 C1297 1.401 . S
C1296 H1306 0.930 . S
C1297 C1295 1.392 . S
C1297 C1296 1.401 . S
C1297 H1307 0.930 . S
C1298 O1276 1.262 . S
C1298 O1277 1.260 . S
C1299 Tb1235 2.833 . S
C1299 O1274 1.251 . S
C1299 O1279 1.256 . S
C1299 C1292 1.500 . S
H1300 C1283 0.930 . S
H1301 C1284 0.931 . S
H1302 C1285 0.930 . S
H1303 C1286 0.930 . S
H1304 C1293 0.930 . S
H1305 C1295 0.931 . S
H1306 C1296 0.930 . S
H1307 C1297 0.930 . S
Tb1308 N1339 2.660 . S
Tb1308 N1346 2.600 . S
Tb1308 O1352 2.546 . S
Tb1308 O1353 2.610 . S
Tb1308 O1355 2.320 . S
Tb1308 O1356 2.552 . S
Tb1308 O1357 2.413 . S
Tb1308 O1359 2.362 . S
Tb1308 O1360 2.421 . S
Tb1308 C1372 2.833 . S
C1309 C1312 1.432 . S
C1309 C1313 1.414 . S
C1309 N1316 1.359 . S
C1310 C1312 1.417 . S
C1310 C1314 1.432 . S
C1310 C1322 1.410 . S
C1311 C1313 1.444 . S
C1311 C1314 1.317 . S
C1311 H1334 0.929 . S
C1312 C1309 1.432 . S
C1312 C1310 1.417 . S
C1312 N1320 1.360 . S
C1313 C1309 1.414 . S
C1313 C1311 1.444 . S
C1313 C1318 1.385 . S
C1314 C1310 1.432 . S
C1314 C1311 1.317 . S
C1314 H1326 0.930 . S
C1315 C1317 1.392 . S
C1315 C1318 1.370 . S
C1315 H1327 0.931 . S
N1316 C1309 1.359 . S
N1316 C1317 1.327 . S
N1316 Tb1319 2.600 . S
C1317 C1315 1.392 . S
C1317 N1316 1.327 . S
C1317 H1324 0.930 . S
C1318 C1313 1.385 . S
C1318 C1315 1.370 . S
C1318 H1337 0.930 . S
Tb1319 N1316 2.600 . S
Tb1319 N1320 2.660 . S
Tb1319 O1353 2.362 . S
Tb1319 O1354 2.421 . S
Tb1319 O1358 2.546 . S
Tb1319 O1359 2.610 . S
Tb1319 O1361 2.320 . S
Tb1319 O1362 2.552 . S
Tb1319 O1363 2.413 . S
Tb1319 C1383 2.833 . S
N1320 C1312 1.360 . S
N1320 Tb1319 2.660 . S
N1320 C1321 1.305 . S
C1321 N1320 1.305 . S
C1321 C1323 1.407 . S
C1321 H1328 0.930 . S
C1322 C1310 1.410 . S
C1322 C1323 1.345 . S
C1322 H1330 0.930 . S
C1323 C1321 1.407 . S
C1323 C1322 1.345 . S
C1323 H1325 0.930 . S
H1324 C1317 0.930 . S
H1325 C1323 0.930 . S
H1326 C1314 0.930 . S
H1327 C1315 0.931 . S
H1328 C1321 0.930 . S
H1329 C1343 0.930 . S
H1330 C1322 0.930 . S
H1331 C1349 0.930 . S
H1332 C1340 0.930 . S
H1333 C1347 0.931 . S
H1334 C1311 0.929 . S
H1335 C1341 0.930 . S
H1336 C1374 0.930 . S
H1337 C1318 0.930 . S
H1338 C1373 0.929 . S
N1339 Tb1308 2.660 . S
N1339 C1340 1.305 . S
N1339 C1344 1.360 . S
C1340 H1332 0.930 . S
C1340 N1339 1.305 . S
C1340 C1343 1.407 . S
C1341 H1335 0.930 . S
C1341 C1342 1.410 . S
C1341 C1343 1.345 . S
C1342 C1341 1.410 . S
C1342 C1344 1.417 . S
C1342 C1374 1.432 . S
C1343 H1329 0.930 . S
C1343 C1340 1.407 . S
C1343 C1341 1.345 . S
C1344 N1339 1.360 . S
C1344 C1342 1.417 . S
C1344 C1348 1.432 . S
H1345 C1350 0.930 . S
N1346 Tb1308 2.600 . S
N1346 C1348 1.359 . S
N1346 C1349 1.327 . S
C1347 H1333 0.931 . S
C1347 C1349 1.392 . S
C1347 C1350 1.370 . S
C1348 C1344 1.432 . S
C1348 N1346 1.359 . S
C1348 C1351 1.414 . S
C1349 H1331 0.930 . S
C1349 N1346 1.327 . S
C1349 C1347 1.392 . S
C1350 H1345 0.930 . S
C1350 C1347 1.370 . S
C1350 C1351 1.385 . S
C1351 C1348 1.414 . S
C1351 C1350 1.385 . S
C1351 C1373 1.444 . S
O1352 Tb1308 2.546 . S
O1352 C1372 1.251 . S
O1353 Tb1308 2.610 . S
O1353 Tb1319 2.362 . S
O1353 C1364 1.283 . S
O1354 Tb1319 2.421 . S
O1354 C1371 1.262 . S
O1355 Tb1308 2.320 . S
O1355 C1371 1.260 . S
O1356 Tb1308 2.552 . S
O1356 C1364 1.243 . S
O1357 Tb1308 2.413 . S
O1357 C1372 1.256 . S
O1358 Tb1319 2.546 . S
O1358 C1383 1.251 . S
O1359 Tb1308 2.362 . S
O1359 Tb1319 2.610 . S
O1359 C1375 1.283 . S
O1360 Tb1308 2.421 . S
O1360 C1382 1.262 . S
O1361 Tb1319 2.320 . S
O1361 C1382 1.260 . S
O1362 Tb1319 2.552 . S
O1362 C1375 1.243 . S
O1363 Tb1319 2.413 . S
O1363 C1383 1.256 . S
C1364 O1353 1.283 . S
C1364 O1356 1.243 . S
C1365 C1367 1.382 . S
C1365 C1369 1.393 . S
C1365 C1372 1.500 . S
C1366 C1367 1.400 . S
C1366 C1368 1.384 . S
C1367 C1365 1.382 . S
C1367 C1366 1.400 . S
C1367 H1384 0.930 . S
C1368 C1366 1.384 . S
C1368 C1370 1.392 . S
C1368 H1385 0.931 . S
C1369 C1365 1.393 . S
C1369 C1370 1.401 . S
C1369 H1386 0.930 . S
C1370 C1368 1.392 . S
C1370 C1369 1.401 . S
C1370 H1387 0.930 . S
C1371 O1354 1.262 . S
C1371 O1355 1.260 . S
C1372 Tb1308 2.833 . S
C1372 O1352 1.251 . S
C1372 O1357 1.256 . S
C1372 C1365 1.500 . S
C1373 H1338 0.929 . S
C1373 C1351 1.444 . S
C1373 C1374 1.317 . S
C1374 H1336 0.930 . S
C1374 C1342 1.432 . S
C1374 C1373 1.317 . S
C1375 O1359 1.283 . S
C1375 O1362 1.243 . S
C1376 C1377 1.382 . S
C1376 C1380 1.393 . S
C1376 C1383 1.500 . S
C1377 C1376 1.382 . S
C1377 C1378 1.400 . S
C1377 H1388 0.930 . S
C1378 C1377 1.400 . S
C1378 C1379 1.384 . S
C1379 C1378 1.384 . S
C1379 C1381 1.392 . S
C1379 H1389 0.931 . S
C1380 C1376 1.393 . S
C1380 C1381 1.401 . S
C1380 H1390 0.930 . S
C1381 C1379 1.392 . S
C1381 C1380 1.401 . S
C1381 H1391 0.930 . S
C1382 O1360 1.262 . S
C1382 O1361 1.260 . S
C1383 Tb1319 2.833 . S
C1383 O1358 1.251 . S
C1383 O1363 1.256 . S
C1383 C1376 1.500 . S
H1384 C1367 0.930 . S
H1385 C1368 0.931 . S
H1386 C1369 0.930 . S
H1387 C1370 0.930 . S
H1388 C1377 0.930 . S
H1389 C1379 0.931 . S
H1390 C1380 0.930 . S
H1391 C1381 0.930 . S
Tb1392 N1423 2.660 . S
Tb1392 N1430 2.600 . S
Tb1392 O1436 2.546 . S
Tb1392 O1437 2.610 . S
Tb1392 O1439 2.320 . S
Tb1392 O1440 2.552 . S
Tb1392 O1441 2.413 . S
Tb1392 O1443 2.362 . S
Tb1392 O1444 2.421 . S
Tb1392 C1456 2.833 . S
C1393 C1396 1.432 . S
C1393 C1397 1.414 . S
C1393 N1400 1.359 . S
C1394 C1396 1.417 . S
C1394 C1398 1.432 . S
C1394 C1406 1.410 . S
C1395 C1397 1.444 . S
C1395 C1398 1.317 . S
C1395 H1418 0.929 . S
C1396 C1393 1.432 . S
C1396 C1394 1.417 . S
C1396 N1404 1.360 . S
C1397 C1393 1.414 . S
C1397 C1395 1.444 . S
C1397 C1402 1.385 . S
C1398 C1394 1.432 . S
C1398 C1395 1.317 . S
C1398 H1410 0.930 . S
C1399 C1401 1.392 . S
C1399 C1402 1.370 . S
C1399 H1411 0.931 . S
N1400 C1393 1.359 . S
N1400 C1401 1.327 . S
N1400 Tb1403 2.600 . S
C1401 C1399 1.392 . S
C1401 N1400 1.327 . S
C1401 H1408 0.930 . S
C1402 C1397 1.385 . S
C1402 C1399 1.370 . S
C1402 H1421 0.930 . S
Tb1403 N1400 2.600 . S
Tb1403 N1404 2.660 . S
Tb1403 O1437 2.362 . S
Tb1403 O1438 2.421 . S
Tb1403 O1442 2.546 . S
Tb1403 O1443 2.610 . S
Tb1403 O1445 2.320 . S
Tb1403 O1446 2.552 . S
Tb1403 O1447 2.413 . S
Tb1403 C1467 2.833 . S
N1404 C1396 1.360 . S
N1404 Tb1403 2.660 . S
N1404 C1405 1.305 . S
C1405 N1404 1.305 . S
C1405 C1407 1.407 . S
C1405 H1412 0.930 . S
C1406 C1394 1.410 . S
C1406 C1407 1.345 . S
C1406 H1414 0.930 . S
C1407 C1405 1.407 . S
C1407 C1406 1.345 . S
C1407 H1409 0.930 . S
H1408 C1401 0.930 . S
H1409 C1407 0.930 . S
H1410 C1398 0.930 . S
H1411 C1399 0.931 . S
H1412 C1405 0.930 . S
H1413 C1427 0.930 . S
H1414 C1406 0.930 . S
H1415 C1433 0.930 . S
H1416 C1424 0.930 . S
H1417 C1431 0.931 . S
H1418 C1395 0.929 . S
H1419 C1425 0.930 . S
H1420 C1458 0.930 . S
H1421 C1402 0.930 . S
H1422 C1457 0.929 . S
N1423 Tb1392 2.660 . S
N1423 C1424 1.305 . S
N1423 C1428 1.360 . S
C1424 H1416 0.930 . S
C1424 N1423 1.305 . S
C1424 C1427 1.407 . S
C1425 H1419 0.930 . S
C1425 C1426 1.410 . S
C1425 C1427 1.345 . S
C1426 C1425 1.410 . S
C1426 C1428 1.417 . S
C1426 C1458 1.432 . S
C1427 H1413 0.930 . S
C1427 C1424 1.407 . S
C1427 C1425 1.345 . S
C1428 N1423 1.360 . S
C1428 C1426 1.417 . S
C1428 C1432 1.432 . S
H1429 C1434 0.930 . S
N1430 Tb1392 2.600 . S
N1430 C1432 1.359 . S
N1430 C1433 1.327 . S
C1431 H1417 0.931 . S
C1431 C1433 1.392 . S
C1431 C1434 1.370 . S
C1432 C1428 1.432 . S
C1432 N1430 1.359 . S
C1432 C1435 1.414 . S
C1433 H1415 0.930 . S
C1433 N1430 1.327 . S
C1433 C1431 1.392 . S
C1434 H1429 0.930 . S
C1434 C1431 1.370 . S
C1434 C1435 1.385 . S
C1435 C1432 1.414 . S
C1435 C1434 1.385 . S
C1435 C1457 1.444 . S
O1436 Tb1392 2.546 . S
O1436 C1456 1.251 . S
O1437 Tb1392 2.610 . S
O1437 Tb1403 2.362 . S
O1437 C1448 1.283 . S
O1438 Tb1403 2.421 . S
O1438 C1455 1.262 . S
O1439 Tb1392 2.320 . S
O1439 C1455 1.260 . S
O1440 Tb1392 2.552 . S
O1440 C1448 1.243 . S
O1441 Tb1392 2.413 . S
O1441 C1456 1.256 . S
O1442 Tb1403 2.546 . S
O1442 C1467 1.251 . S
O1443 Tb1392 2.362 . S
O1443 Tb1403 2.610 . S
O1443 C1459 1.283 . S
O1444 Tb1392 2.421 . S
O1444 C1466 1.262 . S
O1445 Tb1403 2.320 . S
O1445 C1466 1.260 . S
O1446 Tb1403 2.552 . S
O1446 C1459 1.243 . S
O1447 Tb1403 2.413 . S
O1447 C1467 1.256 . S
C1448 O1437 1.283 . S
C1448 O1440 1.243 . S
C1449 C1451 1.382 . S
C1449 C1453 1.393 . S
C1449 C1456 1.500 . S
C1450 C1451 1.400 . S
C1450 C1452 1.384 . S
C1451 C1449 1.382 . S
C1451 C1450 1.400 . S
C1451 H1468 0.930 . S
C1452 C1450 1.384 . S
C1452 C1454 1.392 . S
C1452 H1469 0.931 . S
C1453 C1449 1.393 . S
C1453 C1454 1.401 . S
C1453 H1470 0.930 . S
C1454 C1452 1.392 . S
C1454 C1453 1.401 . S
C1454 H1471 0.930 . S
C1455 O1438 1.262 . S
C1455 O1439 1.260 . S
C1456 Tb1392 2.833 . S
C1456 O1436 1.251 . S
C1456 O1441 1.256 . S
C1456 C1449 1.500 . S
C1457 H1422 0.929 . S
C1457 C1435 1.444 . S
C1457 C1458 1.317 . S
C1458 H1420 0.930 . S
C1458 C1426 1.432 . S
C1458 C1457 1.317 . S
C1459 O1443 1.283 . S
C1459 O1446 1.243 . S
C1460 C1461 1.382 . S
C1460 C1464 1.393 . S
C1460 C1467 1.500 . S
C1461 C1460 1.382 . S
C1461 C1462 1.400 . S
C1461 H1472 0.930 . S
C1462 C1461 1.400 . S
C1462 C1463 1.384 . S
C1463 C1462 1.384 . S
C1463 C1465 1.392 . S
C1463 H1473 0.931 . S
C1464 C1460 1.393 . S
C1464 C1465 1.401 . S
C1464 H1474 0.930 . S
C1465 C1463 1.392 . S
C1465 C1464 1.401 . S
C1465 H1475 0.930 . S
C1466 O1444 1.262 . S
C1466 O1445 1.260 . S
C1467 Tb1403 2.833 . S
C1467 O1442 1.251 . S
C1467 O1447 1.256 . S
C1467 C1460 1.500 . S
H1468 C1451 0.930 . S
H1469 C1452 0.931 . S
H1470 C1453 0.930 . S
H1471 C1454 0.930 . S
H1472 C1461 0.930 . S
H1473 C1463 0.931 . S
H1474 C1464 0.930 . S
H1475 C1465 0.930 . S
H1476 C1484 0.950 . S
H1477 C1489 0.950 . S
H1478 C1486 0.950 . S
H1479 C1488 0.950 . S
H1480 C1490 0.950 . S
H1481 C1492 0.950 . S
H1482 C1494 0.950 . S
H1483 C1495 0.950 . S
C1484 H1476 0.950 . S
C1484 C1485 1.386 . S
C1484 C1486 1.391 . S
C1485 C1484 1.386 . S
C1485 C1489 1.393 . S
C1486 H1478 0.950 . S
C1486 C1484 1.391 . S
C1486 C1487 1.400 . S
C1487 C1486 1.400 . S
C1487 C1488 1.398 . S
C1487 C1493 1.491 . S
C1488 H1479 0.950 . S
C1488 C1487 1.398 . S
C1488 C1489 1.391 . S
C1489 H1477 0.950 . S
C1489 C1485 1.393 . S
C1489 C1488 1.391 . S
C1490 H1480 0.950 . S
C1490 C1491 1.386 . S
C1490 C1492 1.391 . S
C1491 C1490 1.386 . S
C1491 C1495 1.393 . S
C1492 H1481 0.950 . S
C1492 C1490 1.391 . S
C1492 C1493 1.400 . S
C1493 C1487 1.491 . S
C1493 C1492 1.400 . S
C1493 C1494 1.398 . S
C1494 H1482 0.950 . S
C1494 C1493 1.398 . S
C1494 C1495 1.391 . S
C1495 H1483 0.950 . S
C1495 C1491 1.393 . S
C1495 C1494 1.391 . S
H1496 C1504 0.950 . S
H1497 C1509 0.950 . S
H1498 C1506 0.950 . S
H1499 C1508 0.950 . S
H1500 C1510 0.950 . S
H1501 C1512 0.950 . S
H1502 C1514 0.950 . S
H1503 C1515 0.950 . S
C1504 H1496 0.950 . S
C1504 C1505 1.386 . S
C1504 C1506 1.391 . S
C1505 C1504 1.386 . S
C1505 C1509 1.393 . S
C1506 H1498 0.950 . S
C1506 C1504 1.391 . S
C1506 C1507 1.400 . S
C1507 C1506 1.400 . S
C1507 C1508 1.398 . S
C1507 C1513 1.491 . S
C1508 H1499 0.950 . S
C1508 C1507 1.398 . S
C1508 C1509 1.391 . S
C1509 H1497 0.950 . S
C1509 C1505 1.393 . S
C1509 C1508 1.391 . S
C1510 H1500 0.950 . S
C1510 C1511 1.386 . S
C1510 C1512 1.391 . S
C1511 C1510 1.386 . S
C1511 C1515 1.393 . S
C1512 H1501 0.950 . S
C1512 C1510 1.391 . S
C1512 C1513 1.400 . S
C1513 C1507 1.491 . S
C1513 C1512 1.400 . S
C1513 C1514 1.398 . S
C1514 H1502 0.950 . S
C1514 C1513 1.398 . S
C1514 C1515 1.391 . S
C1515 H1503 0.950 . S
C1515 C1511 1.393 . S
C1515 C1514 1.391 . S
H1516 C1524 0.950 . S
H1517 C1529 0.950 . S
H1518 C1526 0.950 . S
H1519 C1528 0.950 . S
H1520 C1530 0.950 . S
H1521 C1532 0.950 . S
H1522 C1534 0.950 . S
H1523 C1535 0.950 . S
C1524 H1516 0.950 . S
C1524 C1525 1.386 . S
C1524 C1526 1.391 . S
C1525 C1524 1.386 . S
C1525 C1529 1.393 . S
C1526 H1518 0.950 . S
C1526 C1524 1.391 . S
C1526 C1527 1.400 . S
C1527 C1526 1.400 . S
C1527 C1528 1.398 . S
C1527 C1533 1.491 . S
C1528 H1519 0.950 . S
C1528 C1527 1.398 . S
C1528 C1529 1.391 . S
C1529 H1517 0.950 . S
C1529 C1525 1.393 . S
C1529 C1528 1.391 . S
C1530 H1520 0.950 . S
C1530 C1531 1.386 . S
C1530 C1532 1.391 . S
C1531 C1530 1.386 . S
C1531 C1535 1.393 . S
C1532 H1521 0.950 . S
C1532 C1530 1.391 . S
C1532 C1533 1.400 . S
C1533 C1527 1.491 . S
C1533 C1532 1.400 . S
C1533 C1534 1.398 . S
C1534 H1522 0.950 . S
C1534 C1533 1.398 . S
C1534 C1535 1.391 . S
C1535 H1523 0.950 . S
C1535 C1531 1.393 . S
C1535 C1534 1.391 . S
H1536 C1544 0.950 . S
H1537 C1549 0.950 . S
H1538 C1546 0.950 . S
H1539 C1548 0.950 . S
H1540 C1550 0.950 . S
H1541 C1552 0.950 . S
H1542 C1554 0.950 . S
H1543 C1555 0.950 . S
C1544 H1536 0.950 . S
C1544 C1545 1.386 . S
C1544 C1546 1.391 . S
C1545 C1544 1.386 . S
C1545 C1549 1.393 . S
C1546 H1538 0.950 . S
C1546 C1544 1.391 . S
C1546 C1547 1.400 . S
C1547 C1546 1.400 . S
C1547 C1548 1.398 . S
C1547 C1553 1.491 . S
C1548 H1539 0.950 . S
C1548 C1547 1.398 . S
C1548 C1549 1.391 . S
C1549 H1537 0.950 . S
C1549 C1545 1.393 . S
C1549 C1548 1.391 . S
C1550 H1540 0.950 . S
C1550 C1551 1.386 . S
C1550 C1552 1.391 . S
C1551 C1550 1.386 . S
C1551 C1555 1.393 . S
C1552 H1541 0.950 . S
C1552 C1550 1.391 . S
C1552 C1553 1.400 . S
C1553 C1547 1.491 . S
C1553 C1552 1.400 . S
C1553 C1554 1.398 . S
C1554 H1542 0.950 . S
C1554 C1553 1.398 . S
C1554 C1555 1.391 . S
C1555 H1543 0.950 . S
C1555 C1551 1.393 . S
C1555 C1554 1.391 . S
H1556 C1564 0.950 . S
H1557 C1569 0.950 . S
H1558 C1566 0.950 . S
H1559 C1568 0.950 . S
H1560 C1570 0.950 1_554 S
H1561 C1572 0.950 . S
H1562 C1574 0.950 . S
H1563 C1575 0.950 . S
C1564 H1556 0.950 . S
C1564 C1565 1.386 . S
C1564 C1566 1.391 . S
C1565 C1564 1.386 . S
C1565 C1569 1.393 . S
C1566 H1558 0.950 . S
C1566 C1564 1.391 . S
C1566 C1567 1.400 . S
C1567 C1566 1.400 . S
C1567 C1568 1.398 . S
C1567 C1573 1.491 . S
C1568 H1559 0.950 . S
C1568 C1567 1.398 . S
C1568 C1569 1.391 . S
C1569 H1557 0.950 . S
C1569 C1565 1.393 . S
C1569 C1568 1.391 . S
C1570 H1560 0.950 1_556 S
C1570 C1571 1.386 . S
C1570 C1572 1.391 . S
C1571 C1570 1.386 . S
C1571 C1575 1.393 . S
C1572 H1561 0.950 . S
C1572 C1570 1.391 . S
C1572 C1573 1.400 . S
C1573 C1567 1.491 . S
C1573 C1572 1.400 . S
C1573 C1574 1.398 . S
C1574 H1562 0.950 . S
C1574 C1573 1.398 . S
C1574 C1575 1.391 . S
C1575 H1563 0.950 . S
C1575 C1571 1.393 . S
C1575 C1574 1.391 . S
H1576 C1584 0.950 . S
H1577 C1589 0.950 . S
H1578 C1586 0.950 . S
H1579 C1588 0.950 . S
H1580 C1590 0.950 . S
H1581 C1592 0.950 . S
H1582 C1594 0.950 . S
H1583 C1595 0.950 1_554 S
C1584 H1576 0.950 . S
C1584 C1585 1.386 . S
C1584 C1586 1.391 . S
C1585 C1584 1.386 . S
C1585 C1589 1.393 . S
C1586 H1578 0.950 . S
C1586 C1584 1.391 . S
C1586 C1587 1.400 . S
C1587 C1586 1.400 . S
C1587 C1588 1.398 . S
C1587 C1593 1.491 . S
C1588 H1579 0.950 . S
C1588 C1587 1.398 . S
C1588 C1589 1.391 . S
C1589 H1577 0.950 . S
C1589 C1585 1.393 . S
C1589 C1588 1.391 . S
C1590 H1580 0.950 . S
C1590 C1591 1.386 . S
C1590 C1592 1.391 . S
C1591 C1590 1.386 . S
C1591 C1595 1.393 . S
C1592 H1581 0.950 . S
C1592 C1590 1.391 . S
C1592 C1593 1.400 . S
C1593 C1587 1.491 . S
C1593 C1592 1.400 . S
C1593 C1594 1.398 . S
C1594 H1582 0.950 . S
C1594 C1593 1.398 . S
C1594 C1595 1.391 . S
C1595 H1583 0.950 1_556 S
C1595 C1591 1.393 . S
C1595 C1594 1.391 . S
H1596 C1604 0.950 . S
H1597 C1609 0.950 . S
H1598 C1606 0.950 . S
H1599 C1608 0.950 . S
H1600 C1610 0.950 . S
H1601 C1612 0.950 . S
H1602 C1614 0.950 . S
H1603 C1615 0.950 1_554 S
C1604 H1596 0.950 . S
C1604 C1605 1.386 . S
C1604 C1606 1.391 . S
C1605 C1604 1.386 . S
C1605 C1609 1.393 . S
C1606 H1598 0.950 . S
C1606 C1604 1.391 . S
C1606 C1607 1.400 . S
C1607 C1606 1.400 . S
C1607 C1608 1.398 . S
C1607 C1613 1.491 . S
C1608 H1599 0.950 . S
C1608 C1607 1.398 . S
C1608 C1609 1.391 . S
C1609 H1597 0.950 . S
C1609 C1605 1.393 . S
C1609 C1608 1.391 . S
C1610 H1600 0.950 . S
C1610 C1611 1.386 . S
C1610 C1612 1.391 . S
C1611 C1610 1.386 . S
C1611 C1615 1.393 . S
C1612 H1601 0.950 . S
C1612 C1610 1.391 . S
C1612 C1613 1.400 . S
C1613 C1607 1.491 . S
C1613 C1612 1.400 . S
C1613 C1614 1.398 . S
C1614 H1602 0.950 . S
C1614 C1613 1.398 . S
C1614 C1615 1.391 . S
C1615 H1603 0.950 1_556 S
C1615 C1611 1.393 . S
C1615 C1614 1.391 . S
H1616 C1624 0.950 . S
H1617 C1629 0.950 . S
H1618 C1626 0.950 . S
H1619 C1628 0.950 . S
H1620 C1630 0.950 . S
H1621 C1632 0.950 . S
H1622 C1634 0.950 . S
H1623 C1635 0.950 . S
C1624 H1616 0.950 . S
C1624 C1625 1.386 . S
C1624 C1626 1.391 . S
C1625 C1624 1.386 . S
C1625 C1629 1.393 . S
C1626 H1618 0.950 . S
C1626 C1624 1.391 . S
C1626 C1627 1.400 . S
C1627 C1626 1.400 . S
C1627 C1628 1.398 . S
C1627 C1633 1.491 . S
C1628 H1619 0.950 . S
C1628 C1627 1.398 . S
C1628 C1629 1.391 . S
C1629 H1617 0.950 . S
C1629 C1625 1.393 . S
C1629 C1628 1.391 . S
C1630 H1620 0.950 . S
C1630 C1631 1.386 . S
C1630 C1632 1.391 . S
C1631 C1630 1.386 . S
C1631 C1635 1.393 . S
C1632 H1621 0.950 . S
C1632 C1630 1.391 . S
C1632 C1633 1.400 . S
C1633 C1627 1.491 . S
C1633 C1632 1.400 . S
C1633 C1634 1.398 . S
C1634 H1622 0.950 . S
C1634 C1633 1.398 . S
C1634 C1635 1.391 . S
C1635 H1623 0.950 . S
C1635 C1631 1.393 . S
C1635 C1634 1.391 . S
H1636 C1644 0.950 . S
H1637 C1649 0.950 . S
H1638 C1646 0.950 . S
H1639 C1648 0.950 . S
H1640 C1650 0.950 1_554 S
H1641 C1652 0.940 1_554 S
H1642 C1654 0.950 . S
H1643 C1655 0.950 . S
C1644 H1636 0.950 . S
C1644 C1645 1.386 . S
C1644 C1646 1.391 . S
C1645 C1644 1.386 . S
C1645 C1649 1.393 . S
C1646 H1638 0.950 . S
C1646 C1644 1.391 . S
C1646 C1647 1.400 . S
C1647 C1646 1.400 . S
C1647 C1648 1.398 . S
C1647 C1653 1.491 . S
C1648 H1639 0.950 . S
C1648 C1647 1.398 . S
C1648 C1649 1.391 . S
C1649 H1637 0.950 . S
C1649 C1645 1.393 . S
C1649 C1648 1.391 . S
C1650 H1640 0.950 1_556 S
C1650 C1651 1.386 . S
C1650 C1652 1.391 . S
C1651 C1650 1.386 . S
C1651 C1655 1.393 . S
C1652 H1641 0.940 1_556 S
C1652 C1650 1.391 . S
C1652 C1653 1.400 . S
C1653 C1647 1.491 . S
C1653 C1652 1.400 . S
C1653 C1654 1.398 . S
C1654 H1642 0.950 . S
C1654 C1653 1.398 . S
C1654 C1655 1.391 . S
C1655 H1643 0.950 . S
C1655 C1651 1.393 . S
C1655 C1654 1.391 . S
H1656 C1664 0.950 . S
H1657 C1669 0.950 . S
H1658 C1666 0.950 . S
H1659 C1668 0.950 . S
H1660 C1670 0.950 . S
H1661 C1672 0.950 . S
H1662 C1674 0.950 . S
H1663 C1675 0.950 . S
C1664 H1656 0.950 . S
C1664 C1665 1.386 . S
C1664 C1666 1.391 . S
C1665 C1664 1.386 . S
C1665 C1669 1.393 . S
C1666 H1658 0.950 . S
C1666 C1664 1.391 . S
C1666 C1667 1.400 . S
C1667 C1666 1.400 . S
C1667 C1668 1.398 . S
C1667 C1673 1.491 . S
C1668 H1659 0.950 . S
C1668 C1667 1.398 . S
C1668 C1669 1.391 . S
C1669 H1657 0.950 . S
C1669 C1665 1.393 . S
C1669 C1668 1.391 . S
C1670 H1660 0.950 . S
C1670 C1671 1.386 . S
C1670 C1672 1.391 . S
C1671 C1670 1.386 . S
C1671 C1675 1.393 . S
C1672 H1661 0.950 . S
C1672 C1670 1.391 . S
C1672 C1673 1.400 . S
C1673 C1667 1.491 . S
C1673 C1672 1.400 . S
C1673 C1674 1.398 . S
C1674 H1662 0.950 . S
C1674 C1673 1.398 . S
C1674 C1675 1.391 . S
C1675 H1663 0.950 . S
C1675 C1671 1.393 . S
C1675 C1674 1.391 . S
H1676 C1684 0.950 . S
H1677 C1689 0.950 . S
H1678 C1686 0.950 . S
H1679 C1688 0.950 . S
H1680 C1690 0.950 . S
H1681 C1692 0.950 . S
H1682 C1694 0.950 . S
H1683 C1695 0.950 . S
C1684 H1676 0.950 . S
C1684 C1685 1.386 . S
C1684 C1686 1.391 . S
C1685 C1684 1.386 . S
C1685 C1689 1.393 . S
C1686 H1678 0.950 . S
C1686 C1684 1.391 . S
C1686 C1687 1.400 . S
C1687 C1686 1.400 . S
C1687 C1688 1.398 . S
C1687 C1693 1.491 . S
C1688 H1679 0.950 . S
C1688 C1687 1.398 . S
C1688 C1689 1.391 . S
C1689 H1677 0.950 . S
C1689 C1685 1.393 . S
C1689 C1688 1.391 . S
C1690 H1680 0.950 . S
C1690 C1691 1.386 . S
C1690 C1692 1.391 . S
C1691 C1690 1.386 . S
C1691 C1695 1.393 . S
C1692 H1681 0.950 . S
C1692 C1690 1.391 . S
C1692 C1693 1.400 . S
C1693 C1687 1.491 . S
C1693 C1692 1.400 . S
C1693 C1694 1.398 . S
C1694 H1682 0.950 . S
C1694 C1693 1.398 . S
C1694 C1695 1.391 . S
C1695 H1683 0.950 . S
C1695 C1691 1.393 . S
C1695 C1694 1.391 . S
H1696 C1704 0.950 . S
H1697 C1709 0.950 . S
H1698 C1706 0.950 . S
H1699 C1708 0.950 . S
H1700 C1710 0.950 . S
H1701 C1712 0.950 . S
H1702 C1714 0.950 . S
H1703 C1715 0.950 . S
C1704 H1696 0.950 . S
C1704 C1705 1.386 . S
C1704 C1706 1.391 . S
C1705 C1704 1.386 . S
C1705 C1709 1.393 . S
C1706 H1698 0.950 . S
C1706 C1704 1.391 . S
C1706 C1707 1.400 . S
C1707 C1706 1.400 . S
C1707 C1708 1.398 . S
C1707 C1713 1.491 . S
C1708 H1699 0.950 . S
C1708 C1707 1.398 . S
C1708 C1709 1.391 . S
C1709 H1697 0.950 . S
C1709 C1705 1.393 . S
C1709 C1708 1.391 . S
C1710 H1700 0.950 . S
C1710 C1711 1.386 . S
C1710 C1712 1.391 . S
C1711 C1710 1.386 . S
C1711 C1715 1.393 . S
C1712 H1701 0.950 . S
C1712 C1710 1.391 . S
C1712 C1713 1.400 . S
C1713 C1707 1.491 . S
C1713 C1712 1.400 . S
C1713 C1714 1.398 . S
C1714 H1702 0.950 . S
C1714 C1713 1.398 . S
C1714 C1715 1.391 . S
C1715 H1703 0.950 . S
C1715 C1711 1.393 . S
C1715 C1714 1.391 . S
H1716 C1724 0.950 1_655 S
H1717 C1729 0.950 . S
H1718 C1726 0.950 . S
H1719 C1728 0.950 . S
H1720 C1730 0.950 . S
H1721 C1732 0.950 . S
H1722 C1734 0.950 . S
H1723 C1735 0.950 . S
C1724 H1716 0.950 1_455 S
C1724 C1725 1.386 . S
C1724 C1726 1.391 . S
C1725 C1724 1.386 . S
C1725 C1729 1.393 . S
C1726 H1718 0.950 . S
C1726 C1724 1.391 . S
C1726 C1727 1.400 . S
C1727 C1726 1.400 . S
C1727 C1728 1.398 . S
C1727 C1733 1.491 . S
C1728 H1719 0.950 . S
C1728 C1727 1.398 . S
C1728 C1729 1.391 . S
C1729 H1717 0.950 . S
C1729 C1725 1.393 . S
C1729 C1728 1.391 . S
C1730 H1720 0.950 . S
C1730 C1731 1.386 . S
C1730 C1732 1.391 . S
C1731 C1730 1.386 . S
C1731 C1735 1.393 . S
C1732 H1721 0.950 . S
C1732 C1730 1.391 . S
C1732 C1733 1.400 . S
C1733 C1727 1.491 . S
C1733 C1732 1.400 . S
C1733 C1734 1.398 . S
C1734 H1722 0.950 . S
C1734 C1733 1.398 . S
C1734 C1735 1.391 . S
C1735 H1723 0.950 . S
C1735 C1731 1.393 . S
C1735 C1734 1.391 . S
H1736 C1744 0.950 . S
H1737 C1749 0.950 . S
H1738 C1746 0.950 . S
H1739 C1748 0.950 . S
H1740 C1750 0.950 . S
H1741 C1752 0.950 . S
H1742 C1754 0.950 . S
H1743 C1755 0.950 . S
C1744 H1736 0.950 . S
C1744 C1745 1.386 . S
C1744 C1746 1.391 . S
C1745 C1744 1.386 . S
C1745 C1749 1.393 . S
C1746 H1738 0.950 . S
C1746 C1744 1.391 . S
C1746 C1747 1.400 . S
C1747 C1746 1.400 . S
C1747 C1748 1.398 . S
C1747 C1753 1.491 . S
C1748 H1739 0.950 . S
C1748 C1747 1.398 . S
C1748 C1749 1.391 . S
C1749 H1737 0.950 . S
C1749 C1745 1.393 . S
C1749 C1748 1.391 . S
C1750 H1740 0.950 . S
C1750 C1751 1.386 . S
C1750 C1752 1.391 . S
C1751 C1750 1.386 . S
C1751 C1755 1.393 . S
C1752 H1741 0.950 . S
C1752 C1750 1.391 . S
C1752 C1753 1.400 . S
C1753 C1747 1.491 . S
C1753 C1752 1.400 . S
C1753 C1754 1.398 . S
C1754 H1742 0.950 . S
C1754 C1753 1.398 . S
C1754 C1755 1.391 . S
C1755 H1743 0.950 . S
C1755 C1751 1.393 . S
C1755 C1754 1.391 . S
H1756 C1764 0.950 1_545 S
H1757 C1769 0.973 . S
H1758 C1766 0.950 . S
H1759 C1768 0.950 . S
H1760 C1770 0.950 . S
H1761 C1772 0.950 . S
H1762 C1774 0.950 . S
H1763 C1775 0.950 . S
C1764 H1756 0.950 1_565 S
C1764 C1765 1.386 1_565 S
C1764 C1766 1.391 . S
C1765 C1764 1.386 1_545 S
C1765 C1769 1.393 1_545 S
C1766 H1758 0.950 . S
C1766 C1764 1.391 . S
C1766 C1767 1.400 . S
C1767 C1766 1.400 . S
C1767 C1768 1.398 . S
C1767 C1773 1.491 . S
C1768 H1759 0.950 . S
C1768 C1767 1.398 . S
C1768 C1769 1.391 . S
C1769 H1757 0.973 . S
C1769 C1765 1.393 1_565 S
C1769 C1768 1.391 . S
C1770 H1760 0.950 . S
C1770 C1771 1.386 . S
C1770 C1772 1.391 . S
C1771 C1770 1.386 . S
C1771 C1775 1.393 . S
C1772 H1761 0.950 . S
C1772 C1770 1.391 . S
C1772 C1773 1.400 . S
C1773 C1767 1.491 . S
C1773 C1772 1.400 . S
C1773 C1774 1.398 . S
C1774 H1762 0.950 . S
C1774 C1773 1.398 . S
C1774 C1775 1.391 . S
C1775 H1763 0.950 . S
C1775 C1771 1.393 . S
C1775 C1774 1.391 . S
H1776 C1784 0.950 . S
H1777 C1789 0.950 . S
H1778 C1786 0.950 . S
H1779 C1788 0.950 . S
H1780 C1790 0.950 . S
H1781 C1792 0.950 . S
H1782 C1794 0.950 . S
H1783 C1795 0.950 . S
C1784 H1776 0.950 . S
C1784 C1785 1.386 . S
C1784 C1786 1.391 . S
C1785 C1784 1.386 . S
C1785 C1789 1.393 . S
C1786 H1778 0.950 . S
C1786 C1784 1.391 . S
C1786 C1787 1.400 . S
C1787 C1786 1.400 . S
C1787 C1788 1.398 . S
C1787 C1793 1.491 . S
C1788 H1779 0.950 . S
C1788 C1787 1.398 . S
C1788 C1789 1.391 . S
C1789 H1777 0.950 . S
C1789 C1785 1.393 . S
C1789 C1788 1.391 . S
C1790 H1780 0.950 . S
C1790 C1791 1.386 . S
C1790 C1792 1.391 . S
C1791 C1790 1.386 . S
C1791 C1795 1.393 . S
C1792 H1781 0.950 . S
C1792 C1790 1.391 . S
C1792 C1793 1.400 . S
C1793 C1787 1.491 . S
C1793 C1792 1.400 . S
C1793 C1794 1.398 . S
C1794 H1782 0.950 . S
C1794 C1793 1.398 . S
C1794 C1795 1.391 . S
C1795 H1783 0.950 . S
C1795 C1791 1.393 . S
C1795 C1794 1.391 . S
H1796 C1804 0.950 . S
H1797 C1809 0.950 . S
H1798 C1806 0.950 . S
H1799 C1808 0.950 . S
H1800 C1810 0.950 . S
H1801 C1812 0.950 . S
H1802 C1814 0.950 . S
H1803 C1815 0.950 . S
C1804 H1796 0.950 . S
C1804 C1805 1.386 . S
C1804 C1806 1.391 . S
C1805 C1804 1.386 . S
C1805 C1809 1.393 . S
C1806 H1798 0.950 . S
C1806 C1804 1.391 . S
C1806 C1807 1.400 . S
C1807 C1806 1.400 . S
C1807 C1808 1.398 . S
C1807 C1813 1.491 . S
C1808 H1799 0.950 . S
C1808 C1807 1.398 . S
C1808 C1809 1.391 . S
C1809 H1797 0.950 . S
C1809 C1805 1.393 . S
C1809 C1808 1.391 . S
C1810 H1800 0.950 . S
C1810 C1811 1.386 . S
C1810 C1812 1.391 . S
C1811 C1810 1.386 . S
C1811 C1815 1.393 . S
C1812 H1801 0.950 . S
C1812 C1810 1.391 . S
C1812 C1813 1.400 . S
C1813 C1807 1.491 . S
C1813 C1812 1.400 . S
C1813 C1814 1.398 . S
C1814 H1802 0.950 . S
C1814 C1813 1.398 . S
C1814 C1815 1.391 . S
C1815 H1803 0.950 . S
C1815 C1811 1.393 . S
C1815 C1814 1.391 . S
H1816 C1824 0.950 . S
H1817 C1829 0.950 . S
H1818 C1826 0.950 . S
H1819 C1828 0.950 . S
H1820 C1830 0.950 . S
H1821 C1832 0.950 . S
H1822 C1834 0.950 . S
H1823 C1835 0.950 . S
C1824 H1816 0.950 . S
C1824 C1825 1.386 . S
C1824 C1826 1.391 . S
C1825 C1824 1.386 . S
C1825 C1829 1.393 . S
C1826 H1818 0.950 . S
C1826 C1824 1.391 . S
C1826 C1827 1.400 . S
C1827 C1826 1.400 . S
C1827 C1828 1.398 . S
C1827 C1833 1.491 . S
C1828 H1819 0.950 . S
C1828 C1827 1.398 . S
C1828 C1829 1.391 . S
C1829 H1817 0.950 . S
C1829 C1825 1.393 . S
C1829 C1828 1.391 . S
C1830 H1820 0.950 . S
C1830 C1831 1.386 . S
C1830 C1832 1.391 . S
C1831 C1830 1.386 . S
C1831 C1835 1.393 . S
C1832 H1821 0.950 . S
C1832 C1830 1.391 . S
C1832 C1833 1.400 . S
C1833 C1827 1.491 . S
C1833 C1832 1.400 . S
C1833 C1834 1.398 . S
C1834 H1822 0.950 . S
C1834 C1833 1.398 . S
C1834 C1835 1.391 . S
C1835 H1823 0.950 . S
C1835 C1831 1.393 . S
C1835 C1834 1.391 . S
H1836 C1844 0.950 . S
H1837 C1849 0.950 . S
H1838 C1846 0.950 . S
H1839 C1848 0.950 . S
H1840 C1850 0.950 . S
H1841 C1852 0.950 . S
H1842 C1854 0.950 . S
H1843 C1855 0.950 . S
C1844 H1836 0.950 . S
C1844 C1845 1.386 . S
C1844 C1846 1.391 . S
C1845 C1844 1.386 . S
C1845 C1849 1.393 . S
C1846 H1838 0.950 . S
C1846 C1844 1.391 . S
C1846 C1847 1.400 . S
C1847 C1846 1.400 . S
C1847 C1848 1.398 . S
C1847 C1853 1.491 . S
C1848 H1839 0.950 . S
C1848 C1847 1.398 . S
C1848 C1849 1.391 . S
C1849 H1837 0.950 . S
C1849 C1845 1.393 . S
C1849 C1848 1.391 . S
C1850 H1840 0.950 . S
C1850 C1851 1.386 . S
C1850 C1852 1.391 . S
C1851 C1850 1.386 . S
C1851 C1855 1.393 . S
C1852 H1841 0.950 . S
C1852 C1850 1.391 . S
C1852 C1853 1.400 . S
C1853 C1847 1.491 . S
C1853 C1852 1.400 . S
C1853 C1854 1.398 . S
C1854 H1842 0.950 . S
C1854 C1853 1.398 . S
C1854 C1855 1.391 . S
C1855 H1843 0.950 . S
C1855 C1851 1.393 . S
C1855 C1854 1.391 . S
H1856 C1864 0.950 . S
H1857 C1869 0.950 . S
H1858 C1866 0.950 . S
H1859 C1868 0.950 . S
H1860 C1870 0.950 . S
H1861 C1872 0.950 . S
H1862 C1874 0.950 . S
H1863 C1875 0.950 . S
C1864 H1856 0.950 . S
C1864 C1865 1.386 . S
C1864 C1866 1.391 . S
C1865 C1864 1.386 . S
C1865 C1869 1.393 . S
C1866 H1858 0.950 . S
C1866 C1864 1.391 . S
C1866 C1867 1.400 . S
C1867 C1866 1.400 . S
C1867 C1868 1.398 . S
C1867 C1873 1.491 . S
C1868 H1859 0.950 . S
C1868 C1867 1.398 . S
C1868 C1869 1.391 . S
C1869 H1857 0.950 . S
C1869 C1865 1.393 . S
C1869 C1868 1.391 . S
C1870 H1860 0.950 . S
C1870 C1871 1.386 . S
C1870 C1872 1.391 . S
C1871 C1870 1.386 . S
C1871 C1875 1.393 . S
C1872 H1861 0.950 . S
C1872 C1870 1.391 . S
C1872 C1873 1.400 . S
C1873 C1867 1.491 . S
C1873 C1872 1.400 . S
C1873 C1874 1.398 . S
C1874 H1862 0.950 . S
C1874 C1873 1.398 . S
C1874 C1875 1.391 . S
C1875 H1863 0.950 . S
C1875 C1871 1.393 . S
C1875 C1874 1.391 . S
H1876 C1884 0.950 . S
H1877 C1889 0.950 . S
H1878 C1886 0.950 . S
H1879 C1888 0.950 . S
H1880 C1890 0.950 . S
H1881 C1892 0.950 . S
H1882 C1894 0.950 . S
H1883 C1895 0.950 . S
C1884 H1876 0.950 . S
C1884 C1885 1.386 . S
C1884 C1886 1.391 . S
C1885 C1884 1.386 . S
C1885 C1889 1.393 . S
C1886 H1878 0.950 . S
C1886 C1884 1.391 . S
C1886 C1887 1.400 . S
C1887 C1886 1.400 . S
C1887 C1888 1.398 . S
C1887 C1893 1.491 . S
C1888 H1879 0.950 . S
C1888 C1887 1.398 . S
C1888 C1889 1.391 . S
C1889 H1877 0.950 . S
C1889 C1885 1.393 . S
C1889 C1888 1.391 . S
C1890 H1880 0.950 . S
C1890 C1891 1.386 . S
C1890 C1892 1.391 . S
C1891 C1890 1.386 . S
C1891 C1895 1.393 . S
C1892 H1881 0.950 . S
C1892 C1890 1.391 . S
C1892 C1893 1.400 . S
C1893 C1887 1.491 . S
C1893 C1892 1.400 . S
C1893 C1894 1.398 . S
C1894 H1882 0.950 . S
C1894 C1893 1.398 . S
C1894 C1895 1.391 . S
C1895 H1883 0.950 . S
C1895 C1891 1.393 . S
C1895 C1894 1.391 . S
H1896 C1904 0.950 1_545 S
H1897 C1909 0.950 . S
H1898 C1906 0.950 . S
H1899 C1908 0.950 . S
H1900 C1910 0.950 . S
H1901 C1912 0.950 . S
H1902 C1914 0.950 . S
H1903 C1915 0.950 . S
C1904 H1896 0.950 1_565 S
C1904 C1905 1.386 1_565 S
C1904 C1906 1.391 . S
C1905 C1904 1.386 1_545 S
C1905 C1909 1.393 1_545 S
C1906 H1898 0.950 . S
C1906 C1904 1.391 . S
C1906 C1907 1.400 . S
C1907 C1906 1.400 . S
C1907 C1908 1.398 . S
C1907 C1913 1.491 . S
C1908 H1899 0.950 . S
C1908 C1907 1.398 . S
C1908 C1909 1.391 . S
C1909 H1897 0.950 . S
C1909 C1905 1.393 1_565 S
C1909 C1908 1.391 . S
C1910 H1900 0.950 . S
C1910 C1911 1.386 . S
C1910 C1912 1.391 . S
C1911 C1910 1.386 . S
C1911 C1915 1.393 . S
C1912 H1901 0.950 . S
C1912 C1910 1.391 . S
C1912 C1913 1.400 . S
C1913 C1907 1.491 . S
C1913 C1912 1.400 . S
C1913 C1914 1.398 . S
C1914 H1902 0.950 . S
C1914 C1913 1.398 . S
C1914 C1915 1.391 . S
C1915 H1903 0.950 . S
C1915 C1911 1.393 . S
C1915 C1914 1.391 . S
H1916 C1924 0.950 . S
H1917 C1929 0.950 1_655 S
H1918 C1926 0.950 . S
H1919 C1928 0.950 . S
H1920 C1930 0.950 . S
H1921 C1932 0.950 . S
H1922 C1934 0.950 . S
H1923 C1935 0.950 . S
C1924 H1916 0.950 . S
C1924 C1925 1.386 . S
C1924 C1926 1.391 . S
C1925 C1924 1.386 . S
C1925 C1929 1.393 . S
C1926 H1918 0.950 . S
C1926 C1924 1.391 . S
C1926 C1927 1.400 . S
C1927 C1926 1.400 . S
C1927 C1928 1.398 . S
C1927 C1933 1.491 . S
C1928 H1919 0.950 . S
C1928 C1927 1.398 . S
C1928 C1929 1.391 . S
C1929 H1917 0.950 1_455 S
C1929 C1925 1.393 . S
C1929 C1928 1.391 . S
C1930 H1920 0.950 . S
C1930 C1931 1.386 . S
C1930 C1932 1.391 . S
C1931 C1930 1.386 . S
C1931 C1935 1.393 . S
C1932 H1921 0.950 . S
C1932 C1930 1.391 . S
C1932 C1933 1.400 . S
C1933 C1927 1.491 . S
C1933 C1932 1.400 . S
C1933 C1934 1.398 . S
C1934 H1922 0.950 . S
C1934 C1933 1.398 . S
C1934 C1935 1.391 . S
C1935 H1923 0.950 . S
C1935 C1931 1.393 . S
C1935 C1934 1.391 . S
H1936 C1944 0.950 . S
H1937 C1949 0.950 . S
H1938 C1946 0.950 . S
H1939 C1948 0.950 . S
H1940 C1950 0.950 . S
H1941 C1952 0.950 . S
H1942 C1954 0.950 . S
H1943 C1955 0.950 . S
C1944 H1936 0.950 . S
C1944 C1945 1.386 . S
C1944 C1946 1.391 . S
C1945 C1944 1.386 . S
C1945 C1949 1.393 . S
C1946 H1938 0.950 . S
C1946 C1944 1.391 . S
C1946 C1947 1.400 . S
C1947 C1946 1.400 . S
C1947 C1948 1.398 . S
C1947 C1953 1.491 . S
C1948 H1939 0.950 . S
C1948 C1947 1.398 . S
C1948 C1949 1.391 . S
C1949 H1937 0.950 . S
C1949 C1945 1.393 . S
C1949 C1948 1.391 . S
C1950 H1940 0.950 . S
C1950 C1951 1.386 . S
C1950 C1952 1.391 . S
C1951 C1950 1.386 . S
C1951 C1955 1.393 . S
C1952 H1941 0.950 . S
C1952 C1950 1.391 . S
C1952 C1953 1.400 . S
C1953 C1947 1.491 . S
C1953 C1952 1.400 . S
C1953 C1954 1.398 . S
C1954 H1942 0.950 . S
C1954 C1953 1.398 . S
C1954 C1955 1.391 . S
C1955 H1943 0.950 . S
C1955 C1951 1.393 . S
C1955 C1954 1.391 . S
H1956 C1964 0.950 . S
H1957 C1969 0.950 . S
H1958 C1966 0.950 . S
H1959 C1968 0.950 . S
H1960 C1970 0.950 . S
H1961 C1972 0.950 . S
H1962 C1974 0.950 . S
H1963 C1975 0.950 . S
C1964 H1956 0.950 . S
C1964 C1965 1.386 . S
C1964 C1966 1.391 . S
C1965 C1964 1.386 . S
C1965 C1969 1.393 . S
C1966 H1958 0.950 . S
C1966 C1964 1.391 . S
C1966 C1967 1.400 . S
C1967 C1966 1.400 . S
C1967 C1968 1.398 . S
C1967 C1973 1.491 . S
C1968 H1959 0.950 . S
C1968 C1967 1.398 . S
C1968 C1969 1.391 . S
C1969 H1957 0.950 . S
C1969 C1965 1.393 . S
C1969 C1968 1.391 . S
C1970 H1960 0.950 . S
C1970 C1971 1.386 . S
C1970 C1972 1.391 . S
C1971 C1970 1.386 . S
C1971 C1975 1.393 . S
C1972 H1961 0.950 . S
C1972 C1970 1.391 . S
C1972 C1973 1.400 . S
C1973 C1967 1.491 . S
C1973 C1972 1.400 . S
C1973 C1974 1.398 . S
C1974 H1962 0.950 . S
C1974 C1973 1.398 . S
C1974 C1975 1.391 . S
C1975 H1963 0.950 . S
C1975 C1971 1.393 . S
C1975 C1974 1.391 . S
H1976 C1984 0.950 . S
H1977 C1989 0.950 . S
H1978 C1986 0.950 . S
H1979 C1988 0.950 . S
H1980 C1990 0.950 . S
H1981 C1992 0.950 . S
H1982 C1994 0.950 . S
H1983 C1995 0.950 . S
C1984 H1976 0.950 . S
C1984 C1985 1.386 . S
C1984 C1986 1.391 . S
C1985 C1984 1.386 . S
C1985 C1989 1.393 . S
C1986 H1978 0.950 . S
C1986 C1984 1.391 . S
C1986 C1987 1.400 . S
C1987 C1986 1.400 . S
C1987 C1988 1.398 . S
C1987 C1993 1.491 . S
C1988 H1979 0.950 . S
C1988 C1987 1.398 . S
C1988 C1989 1.391 . S
C1989 H1977 0.950 . S
C1989 C1985 1.393 . S
C1989 C1988 1.391 . S
C1990 H1980 0.950 . S
C1990 C1991 1.386 . S
C1990 C1992 1.391 . S
C1991 C1990 1.386 . S
C1991 C1995 1.393 . S
C1992 H1981 0.950 . S
C1992 C1990 1.391 . S
C1992 C1993 1.400 . S
C1993 C1987 1.491 . S
C1993 C1992 1.400 . S
C1993 C1994 1.398 . S
C1994 H1982 0.950 . S
C1994 C1993 1.398 . S
C1994 C1995 1.391 . S
C1995 H1983 0.950 . S
C1995 C1991 1.393 . S
C1995 C1994 1.391 . S
H1996 C2004 0.950 . S
H1997 C2009 0.950 . S
H1998 C2006 0.950 . S
H1999 C2008 0.950 . S
H2000 C2010 0.950 . S
H2001 C2012 0.950 . S
H2002 C2014 0.950 . S
H2003 C2015 0.950 . S
C2004 H1996 0.950 . S
C2004 C2005 1.386 . S
C2004 C2006 1.391 . S
C2005 C2004 1.386 . S
C2005 C2009 1.393 . S
C2006 H1998 0.950 . S
C2006 C2004 1.391 . S
C2006 C2007 1.400 . S
C2007 C2006 1.400 . S
C2007 C2008 1.398 . S
C2007 C2013 1.491 . S
C2008 H1999 0.950 . S
C2008 C2007 1.398 . S
C2008 C2009 1.391 . S
C2009 H1997 0.950 . S
C2009 C2005 1.393 . S
C2009 C2008 1.391 . S
C2010 H2000 0.950 . S
C2010 C2011 1.386 . S
C2010 C2012 1.391 . S
C2011 C2010 1.386 . S
C2011 C2015 1.393 . S
C2012 H2001 0.950 . S
C2012 C2010 1.391 . S
C2012 C2013 1.400 . S
C2013 C2007 1.491 . S
C2013 C2012 1.400 . S
C2013 C2014 1.398 . S
C2014 H2002 0.950 . S
C2014 C2013 1.398 . S
C2014 C2015 1.391 . S
C2015 H2003 0.950 . S
C2015 C2011 1.393 . S
C2015 C2014 1.391 . S
H2016 C2024 0.950 . S
H2017 C2029 0.950 1_565 S
H2018 C2026 0.950 . S
H2019 C2028 0.950 . S
H2020 C2030 0.950 . S
H2021 C2032 0.950 . S
H2022 C2034 0.950 . S
H2023 C2035 0.950 . S
C2024 H2016 0.950 . S
C2024 C2025 1.356 1_545 S
C2024 C2026 1.391 . S
C2025 C2024 1.356 1_565 S
C2025 C2029 1.399 1_565 S
C2026 H2018 0.950 . S
C2026 C2024 1.391 . S
C2026 C2027 1.400 . S
C2027 C2026 1.400 . S
C2027 C2028 1.398 . S
C2027 C2033 1.491 . S
C2028 H2019 0.950 . S
C2028 C2027 1.398 . S
C2028 C2029 1.391 . S
C2029 H2017 0.950 1_545 S
C2029 C2025 1.399 1_545 S
C2029 C2028 1.391 . S
C2030 H2020 0.950 . S
C2030 C2031 1.386 . S
C2030 C2032 1.391 . S
C2031 C2030 1.386 . S
C2031 C2035 1.393 . S
C2032 H2021 0.950 . S
C2032 C2030 1.391 . S
C2032 C2033 1.400 . S
C2033 C2027 1.491 . S
C2033 C2032 1.400 . S
C2033 C2034 1.398 . S
C2034 H2022 0.950 . S
C2034 C2033 1.398 . S
C2034 C2035 1.391 . S
C2035 H2023 0.950 . S
C2035 C2031 1.393 . S
C2035 C2034 1.391 . S
H2036 C2044 0.950 . S
H2037 C2049 0.950 1_455 S
H2038 C2046 0.950 . S
H2039 C2048 0.950 . S
H2040 C2050 0.950 . S
H2041 C2052 0.950 . S
H2042 C2054 0.950 . S
H2043 C2055 0.950 . S
C2044 H2036 0.950 . S
C2044 C2045 1.386 . S
C2044 C2046 1.391 . S
C2045 C2044 1.386 . S
C2045 C2049 1.393 . S
C2046 H2038 0.950 . S
C2046 C2044 1.391 . S
C2046 C2047 1.400 . S
C2047 C2046 1.400 . S
C2047 C2048 1.398 . S
C2047 C2053 1.491 . S
C2048 H2039 0.950 . S
C2048 C2047 1.398 . S
C2048 C2049 1.391 . S
C2049 H2037 0.950 1_655 S
C2049 C2045 1.393 . S
C2049 C2048 1.391 . S
C2050 H2040 0.950 . S
C2050 C2051 1.386 . S
C2050 C2052 1.391 . S
C2051 C2050 1.386 . S
C2051 C2055 1.393 . S
C2052 H2041 0.950 . S
C2052 C2050 1.391 . S
C2052 C2053 1.400 . S
C2053 C2047 1.491 . S
C2053 C2052 1.400 . S
C2053 C2054 1.398 . S
C2054 H2042 0.950 . S
C2054 C2053 1.398 . S
C2054 C2055 1.391 . S
C2055 H2043 0.950 . S
C2055 C2051 1.393 . S
C2055 C2054 1.391 . S
H2056 C2064 0.950 . S
H2057 C2069 0.950 . S
H2058 C2066 0.950 . S
H2059 C2068 0.950 . S
H2060 C2070 0.950 . S
H2061 C2072 0.950 . S
H2062 C2074 0.950 . S
H2063 C2075 0.950 . S
C2064 H2056 0.950 . S
C2064 C2065 1.386 . S
C2064 C2066 1.391 . S
C2065 C2064 1.386 . S
C2065 C2069 1.393 . S
C2066 H2058 0.950 . S
C2066 C2064 1.391 . S
C2066 C2067 1.400 . S
C2067 C2066 1.400 . S
C2067 C2068 1.398 . S
C2067 C2073 1.491 . S
C2068 H2059 0.950 . S
C2068 C2067 1.398 . S
C2068 C2069 1.391 . S
C2069 H2057 0.950 . S
C2069 C2065 1.393 . S
C2069 C2068 1.391 . S
C2070 H2060 0.950 . S
C2070 C2071 1.386 . S
C2070 C2072 1.391 . S
C2071 C2070 1.386 . S
C2071 C2075 1.393 . S
C2072 H2061 0.950 . S
C2072 C2070 1.391 . S
C2072 C2073 1.400 . S
C2073 C2067 1.491 . S
C2073 C2072 1.400 . S
C2073 C2074 1.398 . S
C2074 H2062 0.950 . S
C2074 C2073 1.398 . S
C2074 C2075 1.391 . S
C2075 H2063 0.950 . S
C2075 C2071 1.393 . S
C2075 C2074 1.391 . S
H2076 C2084 0.950 . S
H2077 C2089 0.950 1_455 S
H2078 C2086 0.950 . S
H2079 C2088 0.950 . S
H2080 C2090 0.950 . S
H2081 C2092 0.950 . S
H2082 C2094 0.950 . S
H2083 C2095 0.950 . S
C2084 H2076 0.950 . S
C2084 C2085 1.382 1_655 S
C2084 C2086 1.391 . S
C2085 C2084 1.382 1_455 S
C2085 C2089 1.393 1_455 S
C2086 H2078 0.950 . S
C2086 C2084 1.391 . S
C2086 C2087 1.400 . S
C2087 C2086 1.400 . S
C2087 C2088 1.398 . S
C2087 C2093 1.491 . S
C2088 H2079 0.950 . S
C2088 C2087 1.398 . S
C2088 C2089 1.391 . S
C2089 H2077 0.950 1_655 S
C2089 C2085 1.393 1_655 S
C2089 C2088 1.391 . S
C2090 H2080 0.950 . S
C2090 C2091 1.386 . S
C2090 C2092 1.391 . S
C2091 C2090 1.386 . S
C2091 C2095 1.393 . S
C2092 H2081 0.950 . S
C2092 C2090 1.391 . S
C2092 C2093 1.400 . S
C2093 C2087 1.491 . S
C2093 C2092 1.400 . S
C2093 C2094 1.398 . S
C2094 H2082 0.950 . S
C2094 C2093 1.398 . S
C2094 C2095 1.391 . S
C2095 H2083 0.950 . S
C2095 C2091 1.393 . S
C2095 C2094 1.391 . S
H2096 C2104 0.950 . S
H2097 C2109 0.950 . S
H2098 C2106 0.950 . S
H2099 C2108 0.950 . S
H2100 C2110 0.950 . S
H2101 C2112 0.950 . S
H2102 C2114 0.950 . S
H2103 C2115 0.950 . S
C2104 H2096 0.950 . S
C2104 C2105 1.386 . S
C2104 C2106 1.391 . S
C2105 C2104 1.386 . S
C2105 C2109 1.393 . S
C2106 H2098 0.950 . S
C2106 C2104 1.391 . S
C2106 C2107 1.400 . S
C2107 C2106 1.400 . S
C2107 C2108 1.398 . S
C2107 C2113 1.491 . S
C2108 H2099 0.950 . S
C2108 C2107 1.398 . S
C2108 C2109 1.391 . S
C2109 H2097 0.950 . S
C2109 C2105 1.393 . S
C2109 C2108 1.391 . S
C2110 H2100 0.950 . S
C2110 C2111 1.386 . S
C2110 C2112 1.391 . S
C2111 C2110 1.386 . S
C2111 C2115 1.393 . S
C2112 H2101 0.950 . S
C2112 C2110 1.391 . S
C2112 C2113 1.400 . S
C2113 C2107 1.491 . S
C2113 C2112 1.400 . S
C2113 C2114 1.398 . S
C2114 H2102 0.950 . S
C2114 C2113 1.398 . S
C2114 C2115 1.391 . S
C2115 H2103 0.950 . S
C2115 C2111 1.393 . S
C2115 C2114 1.391 . S
H2116 C2124 0.950 . S
H2117 C2129 0.950 1_565 S
H2118 C2126 0.950 . S
H2119 C2128 0.950 . S
H2120 C2130 0.950 . S
H2121 C2132 0.950 . S
H2122 C2134 0.950 . S
H2123 C2135 0.950 . S
C2124 H2116 0.950 . S
C2124 C2125 1.386 1_545 S
C2124 C2126 1.391 . S
C2125 C2124 1.386 1_565 S
C2125 C2129 1.393 1_565 S
C2126 H2118 0.950 . S
C2126 C2124 1.391 . S
C2126 C2127 1.400 . S
C2127 C2126 1.400 . S
C2127 C2128 1.398 . S
C2127 C2133 1.491 . S
C2128 H2119 0.950 . S
C2128 C2127 1.398 . S
C2128 C2129 1.391 . S
C2129 H2117 0.950 1_545 S
C2129 C2125 1.393 1_545 S
C2129 C2128 1.391 . S
C2130 H2120 0.950 . S
C2130 C2131 1.386 . S
C2130 C2132 1.391 . S
C2131 C2130 1.386 . S
C2131 C2135 1.393 . S
C2132 H2121 0.950 . S
C2132 C2130 1.391 . S
C2132 C2133 1.400 . S
C2133 C2127 1.491 . S
C2133 C2132 1.400 . S
C2133 C2134 1.398 . S
C2134 H2122 0.950 . S
C2134 C2133 1.398 . S
C2134 C2135 1.391 . S
C2135 H2123 0.950 . S
C2135 C2131 1.393 . S
C2135 C2134 1.391 . S
H2136 C2144 0.950 . S
H2137 C2149 0.950 . S
H2138 C2146 0.950 . S
H2139 C2148 0.950 . S
H2140 C2150 0.950 . S
H2141 C2152 0.950 . S
H2142 C2154 0.950 . S
H2143 C2155 0.950 . S
C2144 H2136 0.950 . S
C2144 C2145 1.386 . S
C2144 C2146 1.391 . S
C2145 C2144 1.386 . S
C2145 C2149 1.393 . S
C2146 H2138 0.950 . S
C2146 C2144 1.391 . S
C2146 C2147 1.400 . S
C2147 C2146 1.400 . S
C2147 C2148 1.398 . S
C2147 C2153 1.491 . S
C2148 H2139 0.950 . S
C2148 C2147 1.398 . S
C2148 C2149 1.391 . S
C2149 H2137 0.950 . S
C2149 C2145 1.393 . S
C2149 C2148 1.391 . S
C2150 H2140 0.950 . S
C2150 C2151 1.386 . S
C2150 C2152 1.391 . S
C2151 C2150 1.386 . S
C2151 C2155 1.393 . S
C2152 H2141 0.950 . S
C2152 C2150 1.391 . S
C2152 C2153 1.400 . S
C2153 C2147 1.491 . S
C2153 C2152 1.400 . S
C2153 C2154 1.398 . S
C2154 H2142 0.950 . S
C2154 C2153 1.398 . S
C2154 C2155 1.391 . S
C2155 H2143 0.950 . S
C2155 C2151 1.393 . S
C2155 C2154 1.391 . S
H2156 C2164 0.950 . S
H2157 C2169 0.950 . S
H2158 C2166 0.950 . S
H2159 C2168 0.950 . S
H2160 C2170 0.950 . S
H2161 C2172 0.950 . S
H2162 C2174 0.950 . S
H2163 C2175 0.950 . S
C2164 H2156 0.950 . S
C2164 C2165 1.386 . S
C2164 C2166 1.391 . S
C2165 C2164 1.386 . S
C2165 C2169 1.393 . S
C2166 H2158 0.950 . S
C2166 C2164 1.391 . S
C2166 C2167 1.400 . S
C2167 C2166 1.400 . S
C2167 C2168 1.398 . S
C2167 C2173 1.491 . S
C2168 H2159 0.950 . S
C2168 C2167 1.398 . S
C2168 C2169 1.391 . S
C2169 H2157 0.950 . S
C2169 C2165 1.393 . S
C2169 C2168 1.391 . S
C2170 H2160 0.950 . S
C2170 C2171 1.386 . S
C2170 C2172 1.391 . S
C2171 C2170 1.386 . S
C2171 C2175 1.393 . S
C2172 H2161 0.950 . S
C2172 C2170 1.391 . S
C2172 C2173 1.400 . S
C2173 C2167 1.491 . S
C2173 C2172 1.400 . S
C2173 C2174 1.398 . S
C2174 H2162 0.950 . S
C2174 C2173 1.398 . S
C2174 C2175 1.391 . S
C2175 H2163 0.950 . S
C2175 C2171 1.393 . S
C2175 C2174 1.391 . S
H2176 C2184 0.950 . S
H2177 C2189 0.950 . S
H2178 C2186 0.950 . S
H2179 C2188 0.950 . S
H2180 C2190 0.950 . S
H2181 C2192 0.950 . S
H2182 C2194 0.950 . S
H2183 C2195 0.950 . S
C2184 H2176 0.950 . S
C2184 C2185 1.386 . S
C2184 C2186 1.391 . S
C2185 C2184 1.386 . S
C2185 C2189 1.393 . S
C2186 H2178 0.950 . S
C2186 C2184 1.391 . S
C2186 C2187 1.400 . S
C2187 C2186 1.400 . S
C2187 C2188 1.398 . S
C2187 C2193 1.491 . S
C2188 H2179 0.950 . S
C2188 C2187 1.398 . S
C2188 C2189 1.391 . S
C2189 H2177 0.950 . S
C2189 C2185 1.393 . S
C2189 C2188 1.391 . S
C2190 H2180 0.950 . S
C2190 C2191 1.386 . S
C2190 C2192 1.391 . S
C2191 C2190 1.386 . S
C2191 C2195 1.393 . S
C2192 H2181 0.950 . S
C2192 C2190 1.391 . S
C2192 C2193 1.400 . S
C2193 C2187 1.491 . S
C2193 C2192 1.400 . S
C2193 C2194 1.398 . S
C2194 H2182 0.950 . S
C2194 C2193 1.398 . S
C2194 C2195 1.391 . S
C2195 H2183 0.950 . S
C2195 C2191 1.393 . S
C2195 C2194 1.391 . S
H2196 C2204 0.950 . S
H2197 C2209 0.950 . S
H2198 C2206 0.950 . S
H2199 C2208 0.950 . S
H2200 C2210 0.950 . S
H2201 C2212 0.950 . S
H2202 C2214 0.950 . S
H2203 C2215 0.941 1_545 S
C2204 H2196 0.950 . S
C2204 C2205 1.386 . S
C2204 C2206 1.391 . S
C2205 C2204 1.386 . S
C2205 C2209 1.393 . S
C2206 H2198 0.950 . S
C2206 C2204 1.391 . S
C2206 C2207 1.400 . S
C2207 C2206 1.400 . S
C2207 C2208 1.398 . S
C2207 C2213 1.491 . S
C2208 H2199 0.950 . S
C2208 C2207 1.398 . S
C2208 C2209 1.391 . S
C2209 H2197 0.950 . S
C2209 C2205 1.393 . S
C2209 C2208 1.391 . S
C2210 H2200 0.950 . S
C2210 C2211 1.386 . S
C2210 C2212 1.391 . S
C2211 C2210 1.386 . S
C2211 C2215 1.393 . S
C2212 H2201 0.950 . S
C2212 C2210 1.391 . S
C2212 C2213 1.400 . S
C2213 C2207 1.491 . S
C2213 C2212 1.400 . S
C2213 C2214 1.398 . S
C2214 H2202 0.950 . S
C2214 C2213 1.398 . S
C2214 C2215 1.391 . S
C2215 H2203 0.941 1_565 S
C2215 C2211 1.393 . S
C2215 C2214 1.391 . S
H2216 C2224 0.950 . S
H2217 C2229 0.950 . S
H2218 C2226 0.950 . S
H2219 C2228 0.950 . S
H2220 C2230 0.950 1_655 S
H2221 C2232 0.950 . S
H2222 C2234 0.950 . S
H2223 C2235 0.950 . S
C2224 H2216 0.950 . S
C2224 C2225 1.386 . S
C2224 C2226 1.391 . S
C2225 C2224 1.386 . S
C2225 C2229 1.393 . S
C2226 H2218 0.950 . S
C2226 C2224 1.391 . S
C2226 C2227 1.400 . S
C2227 C2226 1.400 . S
C2227 C2228 1.398 . S
C2227 C2233 1.491 . S
C2228 H2219 0.950 . S
C2228 C2227 1.398 . S
C2228 C2229 1.391 . S
C2229 H2217 0.950 . S
C2229 C2225 1.393 . S
C2229 C2228 1.391 . S
C2230 H2220 0.950 1_455 S
C2230 C2231 1.386 . S
C2230 C2232 1.391 . S
C2231 C2230 1.386 . S
C2231 C2235 1.393 . S
C2232 H2221 0.950 . S
C2232 C2230 1.391 . S
C2232 C2233 1.400 . S
C2233 C2227 1.491 . S
C2233 C2232 1.400 . S
C2233 C2234 1.398 . S
C2234 H2222 0.950 . S
C2234 C2233 1.398 . S
C2234 C2235 1.391 . S
C2235 H2223 0.950 . S
C2235 C2231 1.393 . S
C2235 C2234 1.391 . S
H2236 C2244 0.950 . S
H2237 C2249 0.950 . S
H2238 C2246 0.950 . S
H2239 C2248 0.950 . S
H2240 C2250 0.950 . S
H2241 C2252 0.950 . S
H2242 C2254 0.950 . S
H2243 C2255 0.950 . S
C2244 H2236 0.950 . S
C2244 C2245 1.386 . S
C2244 C2246 1.391 . S
C2245 C2244 1.386 . S
C2245 C2249 1.393 . S
C2246 H2238 0.950 . S
C2246 C2244 1.391 . S
C2246 C2247 1.400 . S
C2247 C2246 1.400 . S
C2247 C2248 1.398 . S
C2247 C2253 1.491 . S
C2248 H2239 0.950 . S
C2248 C2247 1.398 . S
C2248 C2249 1.391 . S
C2249 H2237 0.950 . S
C2249 C2245 1.393 . S
C2249 C2248 1.391 . S
C2250 H2240 0.950 . S
C2250 C2251 1.386 . S
C2250 C2252 1.391 . S
C2251 C2250 1.386 . S
C2251 C2255 1.393 . S
C2252 H2241 0.950 . S
C2252 C2250 1.391 . S
C2252 C2253 1.400 . S
C2253 C2247 1.491 . S
C2253 C2252 1.400 . S
C2253 C2254 1.398 . S
C2254 H2242 0.950 . S
C2254 C2253 1.398 . S
C2254 C2255 1.391 . S
C2255 H2243 0.950 . S
C2255 C2251 1.393 . S
C2255 C2254 1.391 . S
H2256 C2264 0.950 . S
H2257 C2269 0.950 . S
H2258 C2266 0.950 . S
H2259 C2268 0.950 . S
H2260 C2270 0.950 . S
H2261 C2272 0.950 . S
H2262 C2274 0.950 1_455 S
H2263 C2275 0.950 1_455 S
C2264 H2256 0.950 . S
C2264 C2265 1.386 . S
C2264 C2266 1.391 . S
C2265 C2264 1.386 . S
C2265 C2269 1.393 . S
C2266 H2258 0.950 . S
C2266 C2264 1.391 . S
C2266 C2267 1.400 . S
C2267 C2266 1.400 . S
C2267 C2268 1.398 . S
C2267 C2273 1.491 . S
C2268 H2259 0.950 . S
C2268 C2267 1.398 . S
C2268 C2269 1.391 . S
C2269 H2257 0.950 . S
C2269 C2265 1.393 . S
C2269 C2268 1.391 . S
C2270 H2260 0.950 . S
C2270 C2271 1.386 . S
C2270 C2272 1.391 . S
C2271 C2270 1.386 . S
C2271 C2275 1.393 . S
C2272 H2261 0.950 . S
C2272 C2270 1.391 . S
C2272 C2273 1.400 . S
C2273 C2267 1.491 . S
C2273 C2272 1.400 . S
C2273 C2274 1.398 . S
C2274 H2262 0.950 1_655 S
C2274 C2273 1.398 . S
C2274 C2275 1.391 . S
C2275 H2263 0.950 1_655 S
C2275 C2271 1.393 . S
C2275 C2274 1.391 . S
H2276 C2284 0.950 . S
H2277 C2289 0.950 . S
H2278 C2286 0.950 . S
H2279 C2288 0.950 . S
H2280 C2290 0.950 . S
H2281 C2292 0.950 . S
H2282 C2294 0.950 . S
H2283 C2295 0.950 . S
C2284 H2276 0.950 . S
C2284 C2285 1.386 . S
C2284 C2286 1.391 . S
C2285 C2284 1.386 . S
C2285 C2289 1.393 . S
C2286 H2278 0.950 . S
C2286 C2284 1.391 . S
C2286 C2287 1.400 . S
C2287 C2286 1.400 . S
C2287 C2288 1.398 . S
C2287 C2293 1.491 . S
C2288 H2279 0.950 . S
C2288 C2287 1.398 . S
C2288 C2289 1.391 . S
C2289 H2277 0.950 . S
C2289 C2285 1.393 . S
C2289 C2288 1.391 . S
C2290 H2280 0.950 . S
C2290 C2291 1.386 . S
C2290 C2292 1.391 . S
C2291 C2290 1.386 . S
C2291 C2295 1.393 . S
C2292 H2281 0.950 . S
C2292 C2290 1.391 . S
C2292 C2293 1.400 . S
C2293 C2287 1.491 . S
C2293 C2292 1.400 . S
C2293 C2294 1.398 . S
C2294 H2282 0.950 . S
C2294 C2293 1.398 . S
C2294 C2295 1.391 . S
C2295 H2283 0.950 . S
C2295 C2291 1.393 . S
C2295 C2294 1.391 . S
H2296 C2304 0.950 . S
H2297 C2309 0.950 . S
H2298 C2306 0.950 . S
H2299 C2308 0.950 . S
H2300 C2310 0.950 . S
H2301 C2312 0.950 . S
H2302 C2314 0.950 . S
H2303 C2315 0.950 . S
C2304 H2296 0.950 . S
C2304 C2305 1.386 . S
C2304 C2306 1.391 . S
C2305 C2304 1.386 . S
C2305 C2309 1.393 . S
C2306 H2298 0.950 . S
C2306 C2304 1.391 . S
C2306 C2307 1.400 . S
C2307 C2306 1.400 . S
C2307 C2308 1.398 . S
C2307 C2313 1.491 . S
C2308 H2299 0.950 . S
C2308 C2307 1.398 . S
C2308 C2309 1.391 . S
C2309 H2297 0.950 . S
C2309 C2305 1.393 . S
C2309 C2308 1.391 . S
C2310 H2300 0.950 . S
C2310 C2311 1.386 . S
C2310 C2312 1.391 . S
C2311 C2310 1.386 . S
C2311 C2315 1.393 . S
C2312 H2301 0.950 . S
C2312 C2310 1.391 . S
C2312 C2313 1.400 . S
C2313 C2307 1.491 . S
C2313 C2312 1.400 . S
C2313 C2314 1.398 . S
C2314 H2302 0.950 . S
C2314 C2313 1.398 . S
C2314 C2315 1.391 . S
C2315 H2303 0.950 . S
C2315 C2311 1.393 . S
C2315 C2314 1.391 . S
H2316 C2324 0.950 . S
H2317 C2329 0.950 . S
H2318 C2326 0.950 . S
H2319 C2328 0.950 . S
H2320 C2330 0.950 . S
H2321 C2332 0.950 . S
H2322 C2334 0.950 . S
H2323 C2335 0.950 . S
C2324 H2316 0.950 . S
C2324 C2325 1.386 . S
C2324 C2326 1.391 . S
C2325 C2324 1.386 . S
C2325 C2329 1.393 . S
C2326 H2318 0.950 . S
C2326 C2324 1.391 . S
C2326 C2327 1.400 . S
C2327 C2326 1.400 . S
C2327 C2328 1.398 . S
C2327 C2333 1.491 . S
C2328 H2319 0.950 . S
C2328 C2327 1.398 . S
C2328 C2329 1.391 . S
C2329 H2317 0.950 . S
C2329 C2325 1.393 . S
C2329 C2328 1.391 . S
C2330 H2320 0.950 . S
C2330 C2331 1.386 . S
C2330 C2332 1.391 . S
C2331 C2330 1.386 . S
C2331 C2335 1.393 . S
C2332 H2321 0.950 . S
C2332 C2330 1.391 . S
C2332 C2333 1.400 . S
C2333 C2327 1.491 . S
C2333 C2332 1.400 . S
C2333 C2334 1.398 . S
C2334 H2322 0.950 . S
C2334 C2333 1.398 . S
C2334 C2335 1.391 . S
C2335 H2323 0.950 . S
C2335 C2331 1.393 . S
C2335 C2334 1.391 . S
H2336 C2344 0.950 . S
H2337 C2349 0.950 . S
H2338 C2346 0.950 . S
H2339 C2348 0.950 . S
H2340 C2350 0.950 . S
H2341 C2352 0.950 . S
H2342 C2354 0.950 . S
H2343 C2355 0.950 . S
C2344 H2336 0.950 . S
C2344 C2345 1.386 . S
C2344 C2346 1.391 . S
C2345 C2344 1.386 . S
C2345 C2349 1.393 . S
C2346 H2338 0.950 . S
C2346 C2344 1.391 . S
C2346 C2347 1.400 . S
C2347 C2346 1.400 . S
C2347 C2348 1.398 . S
C2347 C2353 1.491 . S
C2348 H2339 0.950 . S
C2348 C2347 1.398 . S
C2348 C2349 1.391 . S
C2349 H2337 0.950 . S
C2349 C2345 1.393 . S
C2349 C2348 1.391 . S
C2350 H2340 0.950 . S
C2350 C2351 1.386 . S
C2350 C2352 1.391 . S
C2351 C2350 1.386 . S
C2351 C2355 1.393 . S
C2352 H2341 0.950 . S
C2352 C2350 1.391 . S
C2352 C2353 1.400 . S
C2353 C2347 1.491 . S
C2353 C2352 1.400 . S
C2353 C2354 1.398 . S
C2354 H2342 0.950 . S
C2354 C2353 1.398 . S
C2354 C2355 1.391 . S
C2355 H2343 0.950 . S
C2355 C2351 1.393 . S
C2355 C2354 1.391 . S
H2356 C2364 0.950 . S
H2357 C2369 0.950 . S
H2358 C2366 0.950 . S
H2359 C2368 0.950 . S
H2360 C2370 0.950 . S
H2361 C2372 0.950 . S
H2362 C2374 0.950 . S
H2363 C2375 0.950 . S
C2364 H2356 0.950 . S
C2364 C2365 1.386 . S
C2364 C2366 1.391 . S
C2365 C2364 1.386 . S
C2365 C2369 1.393 . S
C2366 H2358 0.950 . S
C2366 C2364 1.391 . S
C2366 C2367 1.400 . S
C2367 C2366 1.400 . S
C2367 C2368 1.398 . S
C2367 C2373 1.491 . S
C2368 H2359 0.950 . S
C2368 C2367 1.398 . S
C2368 C2369 1.391 . S
C2369 H2357 0.950 . S
C2369 C2365 1.393 . S
C2369 C2368 1.391 . S
C2370 H2360 0.950 . S
C2370 C2371 1.386 . S
C2370 C2372 1.391 . S
C2371 C2370 1.386 . S
C2371 C2375 1.393 . S
C2372 H2361 0.950 . S
C2372 C2370 1.391 . S
C2372 C2373 1.400 . S
C2373 C2367 1.491 . S
C2373 C2372 1.400 . S
C2373 C2374 1.398 . S
C2374 H2362 0.950 . S
C2374 C2373 1.398 . S
C2374 C2375 1.391 . S
C2375 H2363 0.950 . S
C2375 C2371 1.393 . S
C2375 C2374 1.391 . S
H2376 C2384 0.950 . S
H2377 C2389 0.950 . S
H2378 C2386 0.950 . S
H2379 C2388 0.950 . S
H2380 C2390 0.950 . S
H2381 C2392 0.950 . S
H2382 C2394 0.950 . S
H2383 C2395 0.950 . S
C2384 H2376 0.950 . S
C2384 C2385 1.386 . S
C2384 C2386 1.391 . S
C2385 C2384 1.386 . S
C2385 C2389 1.393 . S
C2386 H2378 0.950 . S
C2386 C2384 1.391 . S
C2386 C2387 1.400 . S
C2387 C2386 1.400 . S
C2387 C2388 1.398 . S
C2387 C2393 1.491 . S
C2388 H2379 0.950 . S
C2388 C2387 1.398 . S
C2388 C2389 1.391 . S
C2389 H2377 0.950 . S
C2389 C2385 1.393 . S
C2389 C2388 1.391 . S
C2390 H2380 0.950 . S
C2390 C2391 1.386 . S
C2390 C2392 1.391 . S
C2391 C2390 1.386 . S
C2391 C2395 1.393 . S
C2392 H2381 0.950 . S
C2392 C2390 1.391 . S
C2392 C2393 1.400 . S
C2393 C2387 1.491 . S
C2393 C2392 1.400 . S
C2393 C2394 1.398 . S
C2394 H2382 0.950 . S
C2394 C2393 1.398 . S
C2394 C2395 1.391 . S
C2395 H2383 0.950 . S
C2395 C2391 1.393 . S
C2395 C2394 1.391 . S
H2396 C2404 0.950 . S
H2397 C2409 0.950 . S
H2398 C2406 0.950 . S
H2399 C2408 0.950 . S
H2400 C2410 0.950 . S
H2401 C2412 0.950 . S
H2402 C2414 0.950 . S
H2403 C2415 0.950 . S
C2404 H2396 0.950 . S
C2404 C2405 1.386 . S
C2404 C2406 1.391 . S
C2405 C2404 1.386 . S
C2405 C2409 1.393 . S
C2406 H2398 0.950 . S
C2406 C2404 1.391 . S
C2406 C2407 1.400 . S
C2407 C2406 1.400 . S
C2407 C2408 1.398 . S
C2407 C2413 1.491 . S
C2408 H2399 0.950 . S
C2408 C2407 1.398 . S
C2408 C2409 1.391 . S
C2409 H2397 0.950 . S
C2409 C2405 1.393 . S
C2409 C2408 1.391 . S
C2410 H2400 0.950 . S
C2410 C2411 1.386 . S
C2410 C2412 1.391 . S
C2411 C2410 1.386 . S
C2411 C2415 1.393 . S
C2412 H2401 0.950 . S
C2412 C2410 1.391 . S
C2412 C2413 1.400 . S
C2413 C2407 1.491 . S
C2413 C2412 1.400 . S
C2413 C2414 1.398 . S
C2414 H2402 0.950 . S
C2414 C2413 1.398 . S
C2414 C2415 1.391 . S
C2415 H2403 0.950 . S
C2415 C2411 1.393 . S
C2415 C2414 1.391 . S
H2416 C2424 0.950 . S
H2417 C2429 0.950 . S
H2418 C2426 0.950 . S
H2419 C2428 0.950 . S
H2420 C2430 0.950 . S
H2421 C2432 0.950 . S
H2422 C2434 0.950 . S
H2423 C2435 0.950 . S
C2424 H2416 0.950 . S
C2424 C2425 1.386 . S
C2424 C2426 1.391 . S
C2425 C2424 1.386 . S
C2425 C2429 1.393 . S
C2426 H2418 0.950 . S
C2426 C2424 1.391 . S
C2426 C2427 1.400 . S
C2427 C2426 1.400 . S
C2427 C2428 1.398 . S
C2427 C2433 1.491 . S
C2428 H2419 0.950 . S
C2428 C2427 1.398 . S
C2428 C2429 1.391 . S
C2429 H2417 0.950 . S
C2429 C2425 1.393 . S
C2429 C2428 1.391 . S
C2430 H2420 0.950 . S
C2430 C2431 1.386 . S
C2430 C2432 1.391 . S
C2431 C2430 1.386 . S
C2431 C2435 1.393 . S
C2432 H2421 0.950 . S
C2432 C2430 1.391 . S
C2432 C2433 1.400 . S
C2433 C2427 1.491 . S
C2433 C2432 1.400 . S
C2433 C2434 1.398 . S
C2434 H2422 0.950 . S
C2434 C2433 1.398 . S
C2434 C2435 1.391 . S
C2435 H2423 0.950 . S
C2435 C2431 1.393 . S
C2435 C2434 1.391 . S
H2436 C2444 0.950 . S
H2437 C2449 0.950 . S
H2438 C2446 0.950 . S
H2439 C2448 0.950 . S
H2440 C2450 0.950 . S
H2441 C2452 0.950 . S
H2442 C2454 0.950 . S
H2443 C2455 0.950 . S
C2444 H2436 0.950 . S
C2444 C2445 1.386 . S
C2444 C2446 1.391 . S
C2445 C2444 1.386 . S
C2445 C2449 1.393 . S
C2446 H2438 0.950 . S
C2446 C2444 1.391 . S
C2446 C2447 1.400 . S
C2447 C2446 1.400 . S
C2447 C2448 1.398 . S
C2447 C2453 1.491 . S
C2448 H2439 0.950 . S
C2448 C2447 1.398 . S
C2448 C2449 1.391 . S
C2449 H2437 0.950 . S
C2449 C2445 1.393 . S
C2449 C2448 1.391 . S
C2450 H2440 0.950 . S
C2450 C2451 1.386 . S
C2450 C2452 1.391 . S
C2451 C2450 1.386 . S
C2451 C2455 1.393 . S
C2452 H2441 0.950 . S
C2452 C2450 1.391 . S
C2452 C2453 1.400 . S
C2453 C2447 1.491 . S
C2453 C2452 1.400 . S
C2453 C2454 1.398 . S
C2454 H2442 0.950 . S
C2454 C2453 1.398 . S
C2454 C2455 1.391 . S
C2455 H2443 0.950 . S
C2455 C2451 1.393 . S
C2455 C2454 1.391 . S
H2456 C2464 0.950 . S
H2457 C2469 0.950 . S
H2458 C2466 0.950 . S
H2459 C2468 0.950 . S
H2460 C2470 0.950 . S
H2461 C2472 0.950 . S
H2462 C2474 0.950 . S
H2463 C2475 0.950 . S
C2464 H2456 0.950 . S
C2464 C2465 1.386 . S
C2464 C2466 1.391 . S
C2465 C2464 1.386 . S
C2465 C2469 1.393 . S
C2466 H2458 0.950 . S
C2466 C2464 1.391 . S
C2466 C2467 1.400 . S
C2467 C2466 1.400 . S
C2467 C2468 1.398 . S
C2467 C2473 1.491 . S
C2468 H2459 0.950 . S
C2468 C2467 1.398 . S
C2468 C2469 1.391 . S
C2469 H2457 0.950 . S
C2469 C2465 1.393 . S
C2469 C2468 1.391 . S
C2470 H2460 0.950 . S
C2470 C2471 1.386 . S
C2470 C2472 1.391 . S
C2471 C2470 1.386 . S
C2471 C2475 1.393 . S
C2472 H2461 0.950 . S
C2472 C2470 1.391 . S
C2472 C2473 1.400 . S
C2473 C2467 1.491 . S
C2473 C2472 1.400 . S
C2473 C2474 1.398 . S
C2474 H2462 0.950 . S
C2474 C2473 1.398 . S
C2474 C2475 1.391 . S
C2475 H2463 0.950 . S
C2475 C2471 1.393 . S
C2475 C2474 1.391 . S
H2476 C2484 0.950 . S
H2477 C2489 0.950 . S
H2478 C2486 0.950 . S
H2479 C2488 0.950 . S
H2480 C2490 0.950 . S
H2481 C2492 0.950 . S
H2482 C2494 0.950 . S
H2483 C2495 0.950 . S
C2484 H2476 0.950 . S
C2484 C2485 1.386 . S
C2484 C2486 1.391 . S
C2485 C2484 1.386 . S
C2485 C2489 1.393 . S
C2486 H2478 0.950 . S
C2486 C2484 1.391 . S
C2486 C2487 1.400 . S
C2487 C2486 1.400 . S
C2487 C2488 1.398 . S
C2487 C2493 1.491 . S
C2488 H2479 0.950 . S
C2488 C2487 1.398 . S
C2488 C2489 1.391 . S
C2489 H2477 0.950 . S
C2489 C2485 1.393 . S
C2489 C2488 1.391 . S
C2490 H2480 0.950 . S
C2490 C2491 1.386 . S
C2490 C2492 1.391 . S
C2491 C2490 1.386 . S
C2491 C2495 1.393 . S
C2492 H2481 0.950 . S
C2492 C2490 1.391 . S
C2492 C2493 1.400 . S
C2493 C2487 1.491 . S
C2493 C2492 1.400 . S
C2493 C2494 1.398 . S
C2494 H2482 0.950 . S
C2494 C2493 1.398 . S
C2494 C2495 1.391 . S
C2495 H2483 0.950 . S
C2495 C2491 1.393 . S
C2495 C2494 1.391 . S
H2496 C2504 0.950 . S
H2497 C2509 0.950 . S
H2498 C2506 0.950 . S
H2499 C2508 0.950 . S
H2500 C2510 0.950 . S
H2501 C2512 0.950 . S
H2502 C2514 0.950 . S
H2503 C2515 0.950 . S
C2504 H2496 0.950 . S
C2504 C2505 1.386 . S
C2504 C2506 1.391 . S
C2505 C2504 1.386 . S
C2505 C2509 1.393 . S
C2506 H2498 0.950 . S
C2506 C2504 1.391 . S
C2506 C2507 1.400 . S
C2507 C2506 1.400 . S
C2507 C2508 1.398 . S
C2507 C2513 1.491 . S
C2508 H2499 0.950 . S
C2508 C2507 1.398 . S
C2508 C2509 1.391 . S
C2509 H2497 0.950 . S
C2509 C2505 1.393 . S
C2509 C2508 1.391 . S
C2510 H2500 0.950 . S
C2510 C2511 1.386 . S
C2510 C2512 1.391 . S
C2511 C2510 1.386 . S
C2511 C2515 1.393 . S
C2512 H2501 0.950 . S
C2512 C2510 1.391 . S
C2512 C2513 1.400 . S
C2513 C2507 1.491 . S
C2513 C2512 1.400 . S
C2513 C2514 1.398 . S
C2514 H2502 0.950 . S
C2514 C2513 1.398 . S
C2514 C2515 1.391 . S
C2515 H2503 0.950 . S
C2515 C2511 1.393 . S
C2515 C2514 1.391 . S
H2516 C2524 0.950 . S
H2517 C2529 0.950 . S
H2518 C2526 0.950 . S
H2519 C2528 0.950 . S
H2520 C2530 0.950 . S
H2521 C2532 0.950 . S
H2522 C2534 0.950 . S
H2523 C2535 0.950 . S
C2524 H2516 0.950 . S
C2524 C2525 1.386 . S
C2524 C2526 1.391 . S
C2525 C2524 1.386 . S
C2525 C2529 1.393 . S
C2526 H2518 0.950 . S
C2526 C2524 1.391 . S
C2526 C2527 1.400 . S
C2527 C2526 1.400 . S
C2527 C2528 1.398 . S
C2527 C2533 1.491 . S
C2528 H2519 0.950 . S
C2528 C2527 1.398 . S
C2528 C2529 1.391 . S
C2529 H2517 0.950 . S
C2529 C2525 1.393 . S
C2529 C2528 1.391 . S
C2530 H2520 0.950 . S
C2530 C2531 1.386 . S
C2530 C2532 1.391 . S
C2531 C2530 1.386 . S
C2531 C2535 1.393 . S
C2532 H2521 0.950 . S
C2532 C2530 1.391 . S
C2532 C2533 1.400 . S
C2533 C2527 1.491 . S
C2533 C2532 1.400 . S
C2533 C2534 1.398 . S
C2534 H2522 0.950 . S
C2534 C2533 1.398 . S
C2534 C2535 1.391 . S
C2535 H2523 0.950 . S
C2535 C2531 1.393 . S
C2535 C2534 1.391 . S
H2536 C2544 0.950 . S
H2537 C2549 0.950 . S
H2538 C2546 0.950 . S
H2539 C2548 0.950 . S
H2540 C2550 0.950 . S
H2541 C2552 0.950 . S
H2542 C2554 0.950 . S
H2543 C2555 0.950 . S
C2544 H2536 0.950 . S
C2544 C2545 1.386 . S
C2544 C2546 1.391 . S
C2545 C2544 1.386 . S
C2545 C2549 1.393 . S
C2546 H2538 0.950 . S
C2546 C2544 1.391 . S
C2546 C2547 1.400 . S
C2547 C2546 1.400 . S
C2547 C2548 1.398 . S
C2547 C2553 1.491 . S
C2548 H2539 0.950 . S
C2548 C2547 1.398 . S
C2548 C2549 1.391 . S
C2549 H2537 0.950 . S
C2549 C2545 1.393 . S
C2549 C2548 1.391 . S
C2550 H2540 0.950 . S
C2550 C2551 1.386 . S
C2550 C2552 1.391 . S
C2551 C2550 1.386 . S
C2551 C2555 1.393 . S
C2552 H2541 0.950 . S
C2552 C2550 1.391 . S
C2552 C2553 1.400 . S
C2553 C2547 1.491 . S
C2553 C2552 1.400 . S
C2553 C2554 1.398 . S
C2554 H2542 0.950 . S
C2554 C2553 1.398 . S
C2554 C2555 1.391 . S
C2555 H2543 0.950 . S
C2555 C2551 1.393 . S
C2555 C2554 1.391 . S
C1485 C522 1.451 . S
C1491 C787 1.372 . S
C1505 C562 1.452 . S
C1511 C871 1.397 . S
C1525 C495 1.476 . S
C1531 C951 1.431 . S
C1545 C455 1.428 . S
C1551 C867 1.386 . S
C1571 C955 1.303 . S
C1565 C362 1.387 . S
C1585 C402 1.431 . S
C1591 C783 1.381 . S
C1611 C776 1.385 . S
C1605 C442 1.440 . S
C1631 C860 1.346 . S
C1625 C375 1.431 . S
C1645 C415 1.490 . S
C1651 C962 1.452 . S
C1665 C535 1.438 . S
C1671 C878 1.397 . S
C1685 C575 1.365 . S
C1691 C944 1.276 . S
C1711 C794 1.397 . S
C1705 C482 1.415 . S
C1731 C1039 1.388 . S
C1725 C42 1.453 1_455 S
C1745 C82 1.452 . S
C1751 C1123 1.369 . S
C1765 C15 1.477 . S
C1771 C1203 1.432 . S
C1785 C695 1.438 . S
C1791 C1119 1.405 . S
C1805 C602 1.390 . S
C1811 C1207 1.323 . S
C1825 C642 1.431 . S
C1831 C1035 1.373 . S
C1845 C682 1.459 . S
C1851 C1028 1.402 . S
C1865 C615 1.427 . S
C1871 C1112 1.369 . S
C1891 C1214 1.427 . S
C1885 C655 1.481 . S
C1905 C55 1.431 . S
C1911 C1130 1.382 . S
C1931 C1196 1.310 . S
C1925 C95 1.364 1_455 S
C1945 C2 1.412 . S
C1951 C1046 1.397 . S
C1971 C1291 1.385 . S
C1965 C282 1.453 . S
C1985 C322 1.455 . S
C1991 C1375 1.379 . S
C2011 C1455 1.452 . S
C2005 C255 1.489 . S
C2031 C1371 1.402 . S
C2025 C215 1.458 . S
C2051 C1459 1.299 . S
C2045 C122 1.385 1_655 S
C2065 C162 1.430 . S
C2071 C1287 1.391 . S
C2085 C202 1.462 . S
C2091 C1280 1.412 . S
C2105 C135 1.431 . S
C2111 C1364 1.347 . S
C2131 C1466 1.453 . S
C2125 C175 1.491 . S
C2145 C295 1.431 . S
C2151 C1382 1.381 . S
C2165 C335 1.364 . S
C2171 C1448 1.275 . S
C2185 C242 1.429 . S
C2191 C1298 1.414 . S
C2205 C621 1.416 . S
C2211 C790 1.287 . S
C2231 C874 1.371 . S
C2225 C661 1.501 . S
C2245 C701 1.467 . S
C2251 C946 1.328 . S
C2265 C261 1.503 . S
C2271 C862 1.370 . S
C2285 C301 1.456 . S
C2291 C958 1.351 . S
C2311 C778 1.286 . S
C2305 C341 1.416 . S
C2325 C141 1.409 . S
C2331 C1042 1.306 . S
C2345 C181 1.504 . S
C2351 C1126 1.347 . S
C2365 C221 1.475 . S
C2371 C1198 1.342 . S
C2385 C501 1.515 . S
C2391 C1114 1.391 . S
C2411 C1210 1.315 . S
C2405 C541 1.465 . S
C2425 C581 1.404 . S
C2431 C1030 1.325 . S
C2445 C381 1.405 . S
C2451 C1294 1.325 . S
C2465 C421 1.507 . S
C2471 C1378 1.333 . S
C2491 C1450 1.328 . S
C2485 C461 1.469 . S
C2505 C21 1.502 . S
C2511 C1366 1.368 . S
C2525 C61 1.465 . S
C2531 C1462 1.315 . S
C2545 C101 1.417 . S
C2551 C1282 1.285 . S
