# Generated by pormake.
# Topology zzz, (3,6)-cn, num edge types: 1
# Building blocks:
#     Node 0, Type 0, BuildingBlock: WUSLED_clean_sbu_0, # of connection points: 3
#     Node 1, Type 0, BuildingBlock: WUSLED_clean_sbu_0, # of connection points: 3
#     Node 2, Type 0, BuildingBlock: WUSLED_clean_sbu_0, # of connection points: 3
#     Node 3, Type 0, BuildingBlock: WUSLED_clean_sbu_0, # of connection points: 3
#     Node 4, Type 0, BuildingBlock: WUSLED_clean_sbu_0, # of connection points: 3
#     Node 5, Type 0, BuildingBlock: WUSLED_clean_sbu_0, # of connection points: 3
#     Node 6, Type 0, BuildingBlock: WUSLED_clean_sbu_0, # of connection points: 3
#     Node 7, Type 0, BuildingBlock: WUSLED_clean_sbu_0, # of connection points: 3
#     Node 8, Type 1, BuildingBlock: BETFAJ_clean_sbu_0, # of connection points: 6
#     Node 9, Type 1, BuildingBlock: BETFAJ_clean_sbu_0, # of connection points: 6
#     Node 10, Type 1, BuildingBlock: BETFAJ_clean_sbu_0, # of connection points: 6
#     Node 11, Type 1, BuildingBlock: BETFAJ_clean_sbu_0, # of connection points: 6
#     Edge 12, Type (0, 1), BuildingBlock: TEMPAE_clean_linker_10, # of connection points: 2
#     Edge 13, Type (0, 1), BuildingBlock: TEMPAE_clean_linker_10, # of connection points: 2
#     Edge 14, Type (0, 1), BuildingBlock: TEMPAE_clean_linker_10, # of connection points: 2
#     Edge 15, Type (0, 1), BuildingBlock: TEMPAE_clean_linker_10, # of connection points: 2
#     Edge 16, Type (0, 1), BuildingBlock: TEMPAE_clean_linker_10, # of connection points: 2
#     Edge 17, Type (0, 1), BuildingBlock: TEMPAE_clean_linker_10, # of connection points: 2
#     Edge 18, Type (0, 1), BuildingBlock: TEMPAE_clean_linker_10, # of connection points: 2
#     Edge 19, Type (0, 1), BuildingBlock: TEMPAE_clean_linker_10, # of connection points: 2
#     Edge 20, Type (0, 1), BuildingBlock: TEMPAE_clean_linker_10, # of connection points: 2
#     Edge 21, Type (0, 1), BuildingBlock: TEMPAE_clean_linker_10, # of connection points: 2
#     Edge 22, Type (0, 1), BuildingBlock: TEMPAE_clean_linker_10, # of connection points: 2
#     Edge 23, Type (0, 1), BuildingBlock: TEMPAE_clean_linker_10, # of connection points: 2
#     Edge 24, Type (0, 1), BuildingBlock: TEMPAE_clean_linker_10, # of connection points: 2
#     Edge 25, Type (0, 1), BuildingBlock: TEMPAE_clean_linker_10, # of connection points: 2
#     Edge 26, Type (0, 1), BuildingBlock: TEMPAE_clean_linker_10, # of connection points: 2
#     Edge 27, Type (0, 1), BuildingBlock: TEMPAE_clean_linker_10, # of connection points: 2
#     Edge 28, Type (0, 1), BuildingBlock: TEMPAE_clean_linker_10, # of connection points: 2
#     Edge 29, Type (0, 1), BuildingBlock: TEMPAE_clean_linker_10, # of connection points: 2
#     Edge 30, Type (0, 1), BuildingBlock: TEMPAE_clean_linker_10, # of connection points: 2
#     Edge 31, Type (0, 1), BuildingBlock: TEMPAE_clean_linker_10, # of connection points: 2
#     Edge 32, Type (0, 1), BuildingBlock: TEMPAE_clean_linker_10, # of connection points: 2
#     Edge 33, Type (0, 1), BuildingBlock: TEMPAE_clean_linker_10, # of connection points: 2
#     Edge 34, Type (0, 1), BuildingBlock: TEMPAE_clean_linker_10, # of connection points: 2
#     Edge 35, Type (0, 1), BuildingBlock: TEMPAE_clean_linker_10, # of connection points: 2
# Relax obj value: 0.417
# Max RMSD: 0.266
# Mean RMSD: 0.248
data_MOF--net-zzz--node1-WUSLED_clean_sbu_0--node2-BETFAJ_clean_sbu_0--edge1-TEMPAE_clean_linker_10
_symmetry_space_group_name_H-M    P1
_symmetry_Int_Tables_number       1
_symmetry_cell_setting            triclinic
loop_
_symmetry_equiv_pos_as_xyz
'x, y, z'
_cell_length_a     64.88473
_cell_length_b     64.777296
_cell_length_c     19.623701
_cell_angle_alpha  89.942193
_cell_angle_beta   89.963782
_cell_angle_gamma 90.090169
loop_
_atom_site_label
_atom_site_type_symbol
_atom_site_fract_x
_atom_site_fract_y
_atom_site_fract_z
_atom_type_partial_charge
C0 C 0.78063 0.53338 0.41619 0.0
C1 C 0.78598 0.51485 0.44934 0.0
C2 C 0.82114 0.52727 0.46766 0.0
C3 C 0.80604 0.51176 0.47412 0.0
C4 C 0.81574 0.54577 0.43459 0.0
C5 C 0.79579 0.54876 0.40918 0.0
U6 U 0.73439 0.52215 0.29764 0.0
O7 O 0.70077 0.52286 0.31511 0.0
O8 O 0.71502 0.5447 0.24382 0.0
C9 C 0.69775 0.53734 0.26914 0.0
C10 C 0.75935 0.5374 0.39075 0.0
C11 C 0.68115 0.53365 0.219 0.0
C12 C 0.6479 0.54361 0.17184 0.0
C13 C 0.66329 0.54579 0.2214 0.0
C14 C 0.66786 0.51678 0.11714 0.0
C15 C 0.65004 0.52922 0.11857 0.0
C16 C 0.68328 0.51901 0.16678 0.0
C17 C 0.7702 0.48172 0.23339 0.0
C18 C 0.80087 0.46993 0.17493 0.0
C19 C 0.80244 0.47823 0.29524 0.0
C20 C 0.78144 0.48286 0.29439 0.0
C21 C 0.81253 0.4724 0.23492 0.0
C22 C 0.77987 0.47461 0.1742 0.0
C23 C 0.74972 0.49122 0.22888 0.0
O24 O 0.75798 0.54481 0.32854 0.0
O25 O 0.74508 0.52352 0.40425 0.0
O26 O 0.7377 0.48866 0.28225 0.0
O27 O 0.75011 0.51034 0.20653 0.0
H28 H 0.77466 0.50274 0.45659 0.0
H29 H 0.80959 0.4974 0.49986 0.0
H30 H 0.82701 0.55797 0.42807 0.0
H31 H 0.79214 0.56325 0.38438 0.0
H32 H 0.63432 0.55324 0.17527 0.0
H33 H 0.66135 0.5572 0.26123 0.0
H34 H 0.67016 0.5057 0.07657 0.0
H35 H 0.69702 0.50957 0.16374 0.0
H36 H 0.80822 0.46576 0.12733 0.0
H37 H 0.81096 0.48012 0.34229 0.0
H38 H 0.7742 0.48839 0.34052 0.0
H39 H 0.77149 0.47388 0.12651 0.0
C40 C 0.99548 0.77919 0.43721 0.0
C41 C 0.01296 0.79127 0.42287 0.0
C42 C 0.99926 0.81985 0.4914 0.0
C43 C 0.01474 0.81143 0.44906 0.0
C44 C 0.98205 0.80735 0.50663 0.0
C45 C 0.98015 0.78743 0.47953 0.0
U46 U 1.00298 0.73461 0.30515 0.0
O47 O 1.00634 0.70106 0.3226 0.0
O48 O 0.97899 0.713 0.27062 0.0
C49 C 0.98969 0.69653 0.28737 0.0
C50 C 0.99265 0.75798 0.40989 0.0
C51 C 0.99154 0.68008 0.23435 0.0
C52 C 1.00643 0.64755 0.19472 0.0
C53 C 1.00534 0.66352 0.24295 0.0
C54 C 0.9798 0.66412 0.12835 0.0
C55 C 0.99361 0.64757 0.1368 0.0
C56 C 0.97874 0.68009 0.17639 0.0
C57 C 0.03677 0.77079 0.20028 0.0
C58 C 0.06114 0.79198 0.1378 0.0
C59 C 0.03906 0.80746 0.22334 0.0
C60 C 0.03023 0.78822 0.23644 0.0
C61 C 0.05431 0.80966 0.17275 0.0
C62 C 0.05247 0.77268 0.15171 0.0
C63 C 0.02691 0.75072 0.21136 0.0
O64 O 0.98146 0.75633 0.35437 0.0
O65 O 1.00877 0.74568 0.40979 0.0
O66 O 0.03399 0.74005 0.26325 0.0
O67 O 1.00668 0.75076 0.20754 0.0
H68 H 0.02523 0.78517 0.39144 0.0
H69 H 0.02817 0.82045 0.43528 0.0
H70 H 0.97001 0.8128 0.54028 0.0
H71 H 0.96663 0.77835 0.49211 0.0
H72 H 0.01709 0.63498 0.20348 0.0
H73 H 0.01519 0.6628 0.28743 0.0
H74 H 0.96988 0.66487 0.08405 0.0
H75 H 0.96776 0.6924 0.16806 0.0
H76 H 0.07261 0.79316 0.09786 0.0
H77 H 0.03363 0.82069 0.25183 0.0
H78 H 0.01794 0.787 0.27353 0.0
H79 H 0.05764 0.75932 0.12327 0.0
C80 C 0.7387 0.98997 0.44839 0.0
C81 C 0.73204 1.00971 0.46878 0.0
C82 C 0.69818 0.99599 0.50072 0.0
C83 C 0.71203 0.01268 0.49438 0.0
C84 C 0.70488 0.97633 0.4795 0.0
C85 C 0.72483 0.97339 0.45386 0.0
U86 U 0.78442 1.00031 0.3262 0.0
O87 O 0.81801 1.00141 0.34356 0.0
O88 O 0.8048 0.9775 0.27776 0.0
C89 C 0.8217 0.98619 0.30092 0.0
C90 C 0.76001 0.98609 0.42293 0.0
C91 C 0.83807 0.98964 0.24959 0.0
C92 C 0.87018 0.97839 0.19714 0.0
C93 C 0.855 0.97624 0.24749 0.0
C94 C 0.85188 1.0077 0.15048 0.0
C95 C 0.86879 0.99406 0.14755 0.0
C96 C 0.83664 1.00547 0.20086 0.0
C97 C 0.74725 0.03771 0.25185 0.0
C98 C 0.72109 0.0603 0.20525 0.0
C99 C 0.71167 0.03399 0.28765 0.0
C100 C 0.73223 0.02804 0.29212 0.0
C101 C 0.70575 0.04976 0.24253 0.0
C102 C 0.74174 0.05424 0.20974 0.0
C103 C 0.76813 0.0292 0.25031 0.0
O104 O 0.76148 0.97758 0.36234 0.0
O105 O 0.77385 1.00065 0.43301 0.0
O106 O 0.77947 0.03329 0.30412 0.0
O107 O 0.76882 1.0097 0.23206 0.0
H108 H 0.74229 0.02287 0.46517 0.0
H109 H 0.70756 0.02801 0.51053 0.0
H110 H 0.69463 0.96315 0.48227 0.0
H111 H 0.72948 0.95802 0.43851 0.0
H112 H 0.88306 0.96778 0.19716 0.0
H113 H 0.85639 0.9639 0.28451 0.0
H114 H 0.85016 0.0198 0.11279 0.0
H115 H 0.82361 0.0159 0.20121 0.0
H116 H 0.71703 0.07269 0.1707 0.0
H117 H 0.7003 0.02532 0.31631 0.0
H118 H 0.73627 0.01511 0.32434 0.0
H119 H 0.75321 0.0619 0.17853 0.0
C120 C 0.52106 0.74833 0.47205 0.0
C121 C 0.50692 0.73474 0.44128 0.0
C122 C 0.51989 0.70574 0.50921 0.0
C123 C 0.50639 0.71373 0.45942 0.0
C124 C 0.53397 0.71948 0.53993 0.0
C125 C 0.53455 0.74043 0.5215 0.0
U126 U 0.52 0.79242 0.34044 0.0
O127 O 0.50507 0.82305 0.34315 0.0
O128 O 0.53863 0.82077 0.33282 0.0
C129 C 0.52241 0.83292 0.33095 0.0
C130 C 0.52198 0.77068 0.45387 0.0
C131 C 0.52186 0.84845 0.27513 0.0
C132 C 0.51269 0.88297 0.23553 0.0
C133 C 0.51308 0.86792 0.28702 0.0
C134 C 0.52989 0.85936 0.15898 0.0
C135 C 0.52117 0.87896 0.1708 0.0
C136 C 0.53016 0.84427 0.21041 0.0
C137 C 0.51323 0.7475 0.22516 0.0
C138 C 0.49817 0.71759 0.17062 0.0
C139 C 0.51895 0.71332 0.27234 0.0
C140 C 0.52211 0.7346 0.27462 0.0
C141 C 0.50688 0.7046 0.22045 0.0
C142 C 0.50127 0.7389 0.17316 0.0
C143 C 0.51503 0.76995 0.23138 0.0
O144 O 0.53838 0.77672 0.41982 0.0
O145 O 0.50489 0.77911 0.43107 0.0
O146 O 0.49956 0.77869 0.26346 0.0
O147 O 0.53317 0.77669 0.25144 0.0
H148 H 0.49634 0.74029 0.40273 0.0
H149 H 0.49555 0.70371 0.43364 0.0
H150 H 0.54441 0.71414 0.57918 0.0
H151 H 0.54554 0.75054 0.54633 0.0
H152 H 0.506 0.89789 0.2468 0.0
H153 H 0.5066 0.87154 0.33646 0.0
H154 H 0.53628 0.85557 0.10957 0.0
H155 H 0.53689 0.82933 0.19955 0.0
H156 H 0.48915 0.71126 0.12917 0.0
H157 H 0.52575 0.70373 0.31158 0.0
H158 H 0.53124 0.74102 0.31567 0.0
H159 H 0.49421 0.74868 0.13493 0.0
C160 C 0.24007 0.48712 0.95273 0.0
C161 C 0.2232 0.49027 0.99664 0.0
C162 C 0.19993 0.4941 0.89944 0.0
C163 C 0.20341 0.49391 0.97029 0.0
C164 C 0.21685 0.49096 0.85576 0.0
C165 C 0.23665 0.48758 0.88209 0.0
U166 U 0.28714 0.49723 0.06978 0.0
O167 O 0.32059 0.49587 0.04878 0.0
O168 O 0.30654 0.47418 0.12098 0.0
C169 C 0.32374 0.48147 0.0949 0.0
C170 C 0.26113 0.48252 0.97878 0.0
C171 C 0.34052 0.48532 0.14443 0.0
C172 C 0.37617 0.48016 0.17956 0.0
C173 C 0.36039 0.47779 0.13133 0.0
C174 C 0.35246 0.49786 0.2546 0.0
C175 C 0.37236 0.49002 0.24222 0.0
C176 C 0.33673 0.49558 0.20619 0.0
C177 C 0.25382 0.53901 0.14202 0.0
C178 C 0.22755 0.55665 0.20728 0.0
C179 C 0.21854 0.53964 0.10141 0.0
C180 C 0.23916 0.53428 0.09201 0.0
C181 C 0.21235 0.55013 0.16072 0.0
C182 C 0.24812 0.55089 0.19838 0.0
C183 C 0.27388 0.52871 0.14094 0.0
O184 O 0.27562 0.49601 0.96389 0.0
O185 O 0.26253 0.47544 0.04143 0.0
O186 O 0.27319 0.50957 0.16302 0.0
O187 O 0.28462 0.53084 0.08453 0.0
H188 H 0.22525 0.48986 0.05139 0.0
H189 H 0.19073 0.49609 1.00548 0.0
H190 H 0.2148 0.49119 0.80099 0.0
H191 H 0.24932 0.48511 0.84706 0.0
H192 H 0.39122 0.47379 0.16846 0.0
H193 H 0.36364 0.46976 0.08414 0.0
H194 H 0.34903 0.50582 0.30177 0.0
H195 H 0.32152 0.50159 0.21737 0.0
H196 H 0.22341 0.56526 0.25251 0.0
H197 H 0.20735 0.53428 0.06453 0.0
H198 H 0.24348 0.52528 0.04785 0.0
H199 H 0.25931 0.55474 0.23732 0.0
C200 C 0.02381 0.24609 0.93955 0.0
C201 C 0.04117 0.23307 0.93827 0.0
C202 C 0.02008 0.20362 0.90248 0.0
C203 C 0.03932 0.21217 0.92029 0.0
C204 C 1.00268 0.21661 0.90451 0.0
C205 C 1.00452 0.23751 0.92258 0.0
U206 U 0.02163 0.2915 0.06568 0.0
O207 O 0.04225 0.31833 0.07875 0.0
O208 O 1.00955 0.32311 0.05539 0.0
C209 C 0.02711 0.3317 0.07353 0.0
C210 C 0.02604 0.26858 0.95586 0.0
C211 C 0.02613 0.34768 0.1277 0.0
C212 C 0.0401 0.37911 0.17846 0.0
C213 C 0.04065 0.36378 0.12803 0.0
C214 C 1.01035 0.3626 0.22923 0.0
C215 C 0.02491 0.37878 0.22971 0.0
C216 C 0.011 0.34719 0.17901 0.0
C217 C 1.00862 0.24763 0.17845 0.0
C218 C 0.99329 0.2178 0.23298 0.0
C219 C 0.01599 0.21324 0.13593 0.0
C220 C 0.0184 0.23457 0.13144 0.0
C221 C 1.00358 0.20458 0.18722 0.0
C222 C 0.99585 0.23919 0.22871 0.0
C223 C 0.01134 0.27001 0.17293 0.0
O224 O 1.00904 0.27875 0.97021 0.0
O225 O 0.04152 0.27384 0.99555 0.0
O226 O 0.03038 0.27592 0.16065 0.0
O227 O 0.99766 0.27934 0.13437 0.0
H228 H 0.05629 0.23908 0.95074 0.0
H229 H 0.05305 0.20269 0.92045 0.0
H230 H 0.98764 0.21077 0.89036 0.0
H231 H 0.9908 0.247 0.92231 0.0
H232 H 0.05144 0.39138 0.1768 0.0
H233 H 0.05246 0.36453 0.08903 0.0
H234 H 0.99862 0.36166 0.26841 0.0
H235 H 0.9997 0.33487 0.18047 0.0
H236 H 0.98329 0.21162 0.27224 0.0
H237 H 0.02428 0.20356 0.1003 0.0
H238 H 0.02814 0.24086 0.09169 0.0
H239 H 0.98793 0.2491 0.26459 0.0
C240 C 0.27596 0.03197 0.96217 0.0
C241 C 0.2928 0.03109 1.00724 0.0
C242 C 0.31669 0.02636 0.91212 0.0
C243 C 0.31291 0.0283 0.98249 0.0
C244 C 0.29978 0.02713 0.86727 0.0
C245 C 0.27968 0.02988 0.89203 0.0
U246 U 0.23143 0.02151 0.08698 0.0
O247 O 0.19787 0.01825 0.07075 0.0
O248 O 0.20988 0.04357 0.13333 0.0
C249 C 0.19343 0.03366 0.11179 0.0
C250 C 0.25456 0.03549 0.98677 0.0
C251 C 0.17725 0.02979 0.16357 0.0
C252 C 0.14113 0.03174 0.19718 0.0
C253 C 0.15661 0.03412 0.14788 0.0
C254 C 0.16668 0.02043 0.27878 0.0
C255 C 0.14595 0.02505 0.26358 0.0
C256 C 0.18215 0.02273 0.2293 0.0
C257 C 0.27093 0.98663 0.16315 0.0
C258 C 0.30209 0.97755 0.22396 0.0
C259 C 0.30329 0.98309 0.10183 0.0
C260 C 0.28211 0.98691 0.10181 0.0
C261 C 0.3136 0.97891 0.16323 0.0
C262 C 0.28093 0.98142 0.22388 0.0
C263 C 0.24977 0.99457 0.16541 0.0
O264 O 0.24162 0.02 0.97961 0.0
O265 O 0.25262 0.04495 0.04567 0.0
O266 O 0.24858 0.01429 0.1805 0.0
O267 O 0.23786 0.9892 0.1142 0.0
H268 H 0.29048 0.03266 0.06165 0.0
H269 H 0.32556 0.02813 0.01839 0.0
H270 H 0.30205 0.02549 0.81287 0.0
H271 H 0.26701 0.0305 0.85618 0.0
H272 H 0.12542 0.03564 0.1837 0.0
H273 H 0.15248 0.03966 0.09761 0.0
H274 H 0.17096 0.01495 0.32897 0.0
H275 H 0.19797 0.01922 0.24259 0.0
H276 H 0.30962 0.97469 0.2723 0.0
H277 H 0.31171 0.9841 0.05426 0.0
H278 H 0.27465 0.99101 0.05434 0.0
H279 H 0.27259 0.98137 0.27173 0.0
C280 C 0.5127 0.27961 0.95886 0.0
C281 C 0.49374 0.28846 0.93991 0.0
C282 C 0.51084 0.32079 0.9078 0.0
C283 C 0.49281 0.30879 0.91509 0.0
C284 C 0.52976 0.31187 0.92697 0.0
C285 C 0.53065 0.29161 0.95204 0.0
U286 U 0.50118 0.23606 0.08831 0.0
O287 O 0.49446 0.20275 0.07592 0.0
O288 O 0.5227 0.21276 0.12757 0.0
C289 C 0.51058 0.19716 0.11221 0.0
C290 C 0.51434 0.25785 0.98345 0.0
C291 C 0.50723 0.18135 0.16655 0.0
C292 C 0.49372 0.14768 0.2015 0.0
C293 C 0.49557 0.1635 0.1528 0.0
C294 C 0.51512 0.1672 0.27902 0.0
C295 C 0.50372 0.1492 0.26497 0.0
C296 C 0.51686 0.18304 0.23062 0.0
C297 C 0.47265 0.27875 0.17484 0.0
C298 C 0.47081 0.31116 0.23584 0.0
C299 C 0.46753 0.31085 0.11281 0.0
C300 C 0.46955 0.28938 0.11326 0.0
C301 C 0.46871 0.32205 0.17399 0.0
C302 C 0.47274 0.28972 0.23617 0.0
C303 C 0.47872 0.25692 0.17475 0.0
O304 O 0.52522 0.25503 0.03915 0.0
O305 O 0.49758 0.24637 0.98175 0.0
O306 O 0.47069 0.24547 0.12619 0.0
O307 O 0.49859 0.25394 0.18301 0.0
H308 H 0.47958 0.27968 0.94392 0.0
H309 H 0.47791 0.31512 0.90182 0.0
H310 H 0.54403 0.32038 0.92119 0.0
H311 H 0.54552 0.28519 0.96542 0.0
H312 H 0.48494 0.134 0.18868 0.0
H313 H 0.48817 0.16159 0.10374 0.0
H314 H 0.52277 0.16908 0.32768 0.0
H315 H 0.52603 0.19648 0.24329 0.0
H316 H 0.47219 0.31927 0.28385 0.0
H317 H 0.46576 0.31871 0.06443 0.0
H318 H 0.46953 0.28118 0.06526 0.0
H319 H 0.47538 0.28181 0.28406 0.0
Sm320 Sm 0.02144 1.00469 0.76843 0.0
Sm321 Sm 0.99456 0.01689 0.64187 0.0
C322 C 0.03938 0.9988 0.88769 0.0
C323 C 0.05236 0.98291 0.91888 0.0
C324 C 0.05032 0.97885 0.98858 0.0
C325 C 0.05997 0.96171 0.01735 0.0
C326 C 0.07187 0.94835 0.97673 0.0
C327 C 0.07496 0.95331 0.90764 0.0
C328 C 0.06515 0.97039 0.87879 0.0
C329 C 0.04236 1.00737 0.64654 0.0
C330 C 1.00593 0.96751 0.67146 0.0
C331 C 0.98259 0.02383 0.51522 0.0
C332 C 0.98842 0.03578 0.45504 0.0
C333 C 1.0042 0.0505 0.45846 0.0
C334 C 1.0082 0.06324 0.40262 0.0
C335 C 0.99633 0.06151 0.34286 0.0
C336 C 0.98124 0.04599 0.33863 0.0
C337 C 0.97734 0.03318 0.39444 0.0
C338 C 0.96854 1.00768 0.75088 0.0
C339 C 1.0093 0.05398 0.74276 0.0
O340 O 0.02041 0.99312 0.87467 0.0
O341 O 0.04771 1.00973 0.83869 0.0
O342 O 0.02854 0.01979 0.66627 0.0
O343 O 0.04601 0.99347 0.69273 0.0
O344 O 0.01148 0.97207 0.7346 0.0
O345 O 1.00123 0.98207 0.62674 0.0
O346 O 0.99499 1.00876 0.53221 0.0
O347 O 0.97585 0.03445 0.56752 0.0
O348 O 0.98788 1.00713 0.74945 0.0
O349 O 0.96201 0.01304 0.69108 0.0
O350 O 1.00318 0.04952 0.68003 0.0
O351 O 0.01469 0.03935 0.78642 0.0
H352 H 0.0404 0.98833 0.02007 0.0
H353 H 0.05695 0.95821 0.0704 0.0
H354 H 0.08421 0.94347 0.87521 0.0
H355 H 0.06685 0.97328 0.82469 0.0
H356 H 0.01279 0.05272 0.50516 0.0
H357 H 0.01969 0.07529 0.40782 0.0
H358 H 0.97194 0.0443 0.29314 0.0
H359 H 0.96517 0.02175 0.39113 0.0
Sm360 Sm 0.51361 0.026 0.77488 0.0
Sm361 Sm 0.50145 0.99624 0.64315 0.0
C362 C 0.52072 0.03931 0.89979 0.0
C363 C 0.53492 0.03669 0.95685 0.0
C364 C 0.55286 0.02491 0.94962 0.0
C365 C 0.56772 0.02503 1.00102 0.0
C366 C 0.56483 0.037 0.06013 0.0
C367 C 0.54626 0.04783 0.06855 0.0
C368 C 0.53141 0.04767 0.01714 0.0
C369 C 0.50331 0.04916 0.66006 0.0
C370 C 0.55059 1.00848 0.67428 0.0
C371 C 0.49386 0.98249 0.51889 0.0
C372 C 0.48082 0.9863 0.45929 0.0
C373 C 0.47186 1.00565 0.4474 0.0
C374 C 0.45801 1.00825 0.39351 0.0
C375 C 0.45267 0.99144 0.35151 0.0
C376 C 0.46243 0.97233 0.36224 0.0
C377 C 0.4764 0.96983 0.41556 0.0
C378 C 0.51133 0.97319 0.75894 0.0
C379 C 0.46451 0.01468 0.74231 0.0
O380 O 0.50824 0.0239 0.88645 0.0
O381 O 0.52852 0.048 0.84515 0.0
O382 O 0.50335 0.02984 0.66687 0.0
O383 O 0.50859 0.05725 0.71801 0.0
O384 O 0.5459 0.0164 0.73492 0.0
O385 O 0.53643 1.00161 0.63103 0.0
O386 O 0.50815 0.99621 0.53239 0.0
O387 O 0.48446 0.97544 0.57332 0.0
O388 O 0.51175 0.99244 0.75086 0.0
O389 O 0.5057 0.96504 0.70142 0.0
O390 O 0.46926 1.00649 0.68214 0.0
O391 O 0.47857 0.02139 0.78605 0.0
H392 H 0.55575 0.01637 0.90313 0.0
H393 H 0.58197 0.01672 0.99269 0.0
H394 H 0.54354 0.05699 0.11381 0.0
H395 H 0.51755 0.0568 0.02331 0.0
H396 H 0.47506 0.01853 0.48085 0.0
H397 H 0.45097 0.02323 0.38614 0.0
H398 H 0.45847 0.95896 0.33183 0.0
H399 H 0.4832 0.95478 0.42422 0.0
Sm400 Sm 0.4979 0.51646 0.73993 0.0
Sm401 Sm 0.52508 0.50469 0.61438 0.0
C402 C 0.48264 0.52192 0.86361 0.0
C403 C 0.4875 0.53623 0.91882 0.0
C404 C 0.50574 0.54779 0.91611 0.0
C405 C 0.50984 0.56257 0.96567 0.0
C406 C 0.49549 0.5664 0.01782 0.0
C407 C 0.47757 0.55421 0.02191 0.0
C408 C 0.47362 0.53916 0.97258 0.0
C409 C 0.47665 0.51165 0.6194 0.0
C410 C 0.51546 0.5537 0.64855 0.0
C411 C 0.5361 0.49718 0.48711 0.0
C412 C 0.52919 0.48464 0.42909 0.0
C413 C 0.5082 0.48282 0.41277 0.0
C414 C 0.50182 0.46921 0.36186 0.0
C415 C 0.51631 0.45719 0.32649 0.0
C416 C 0.5374 0.45998 0.34028 0.0
C417 C 0.54377 0.47356 0.39129 0.0
C418 C 0.55086 0.51574 0.72172 0.0
C419 C 0.50929 0.46697 0.71419 0.0
O420 O 0.49703 0.50848 0.8496 0.0
O421 O 0.47462 0.53031 0.80909 0.0
O422 O 0.49123 0.50024 0.63946 0.0
O423 O 0.47213 0.52536 0.66516 0.0
O424 O 0.51148 0.5483 0.71227 0.0
O425 O 0.5179 0.53955 0.60059 0.0
O426 O 0.52428 0.51266 0.50478 0.0
O427 O 0.5436 0.48701 0.53928 0.0
O428 O 0.53152 0.51551 0.72072 0.0
O429 O 0.55758 0.51018 0.66229 0.0
O430 O 0.51888 0.47179 0.65657 0.0
O431 O 0.50035 0.48114 0.7526 0.0
H432 H 0.51653 0.54583 0.87451 0.0
H433 H 0.5239 0.57153 0.96178 0.0
H434 H 0.46616 0.55699 0.06115 0.0
H435 H 0.45945 0.53032 0.9751 0.0
H436 H 0.49671 0.49143 0.44071 0.0
H437 H 0.48548 0.46731 0.35271 0.0
H438 H 0.54894 0.45113 0.31317 0.0
H439 H 0.56006 0.47495 0.40265 0.0
Sm440 Sm 1.00359 0.49672 0.75239 0.0
Sm441 Sm 0.01676 0.5267 0.62231 0.0
C442 C 0.99466 0.48239 0.87508 0.0
C443 C 0.98049 0.48512 0.93248 0.0
C444 C 0.96897 0.50323 0.94044 0.0
C445 C 0.95426 0.50462 0.99232 0.0
C446 C 0.95056 0.48773 0.03605 0.0
C447 C 0.96272 0.4699 0.02895 0.0
C448 C 0.97758 0.46867 0.97775 0.0
C449 C 0.01474 0.4738 0.63777 0.0
C450 C 0.96757 0.51431 0.64844 0.0
C451 C 0.02508 0.54124 0.4995 0.0
C452 C 0.03905 0.53888 0.44161 0.0
C453 C 0.05508 0.52443 0.443 0.0
C454 C 0.07015 0.5247 0.39211 0.0
C455 C 0.06941 0.53953 0.33966 0.0
C456 C 0.05259 0.55313 0.3365 0.0
C457 C 0.03752 0.55279 0.3872 0.0
C458 C 1.0056 0.54974 0.73666 0.0
C459 C 0.05295 0.50818 0.72413 0.0
O460 O 1.00833 0.49697 0.86434 0.0
O461 O 0.98655 0.475 0.81901 0.0
O462 O 0.01477 0.49307 0.64535 0.0
O463 O 1.00881 0.4656 0.69492 0.0
O464 O 0.97175 0.50685 0.71011 0.0
O465 O 0.9821 0.52082 0.60597 0.0
O466 O 0.0117 0.52643 0.51036 0.0
O467 O 0.03335 0.54856 0.55543 0.0
O468 O 1.00565 0.53043 0.72968 0.0
O469 O 0.01133 0.55783 0.67918 0.0
O470 O 0.04862 0.51634 0.66351 0.0
O471 O 0.03853 0.50154 0.76695 0.0
H472 H 0.97092 0.51604 0.90555 0.0
H473 H 0.94538 0.51869 0.99691 0.0
H474 H 0.9601 0.45647 0.06071 0.0
H475 H 0.98632 0.45453 0.97197 0.0
H476 H 0.05643 0.51362 0.48494 0.0
H477 H 0.08305 0.51417 0.39618 0.0
H478 H 0.05155 0.56456 0.29632 0.0
H479 H 0.02516 0.56402 0.38554 0.0
C480 C 0.11007 0.01492 0.30107 0.0
C481 C 0.12952 0.0232 0.31692 0.0
C482 C 0.0946 0.01287 0.35112 0.0
C483 C 0.09858 0.01931 0.41886 0.0
C484 C 0.11804 0.02801 0.43488 0.0
C485 C 0.13322 0.02981 0.38395 0.0
C486 C 0.07417 1.00338 0.33181 0.0
C487 C 0.12293 0.03522 0.50622 0.0
C488 C 0.05466 0.02818 0.54583 0.0
C489 C 0.05548 1.0101 0.58508 0.0
C490 C 0.06823 0.03125 0.49051 0.0
C491 C 0.08295 0.01584 0.47403 0.0
C492 C 0.08337 0.99733 0.5125 0.0
C493 C 0.0697 0.99471 0.56742 0.0
C494 C 0.0671 0.05114 0.45064 0.0
C495 C 0.09863 0.98041 0.49668 0.0
H496 H 0.10706 1.00959 0.2497 0.0
H497 H 0.14802 0.03658 0.3966 0.0
H498 H 0.07195 0.98869 0.36002 0.0
H499 H 0.06136 0.01379 0.34647 0.0
H500 H 0.07307 1.00016 0.27634 0.0
H501 H 0.13841 0.04248 0.50983 0.0
H502 H 0.11121 0.04655 0.52341 0.0
H503 H 0.12232 0.02194 0.54192 0.0
H504 H 0.0438 0.04015 0.55952 0.0
H505 H 0.07035 0.98064 0.59729 0.0
H506 H 0.06371 0.04779 0.39637 0.0
H507 H 0.08219 0.0592 0.45235 0.0
H508 H 0.05505 0.06171 0.47054 0.0
H509 H 0.09734 0.97577 0.44245 0.0
H510 H 0.0963 0.96654 0.52912 0.0
H511 H 0.11456 0.98619 0.50464 0.0
C512 C 0.4839 0.12194 0.33025 0.0
C513 C 0.5026 0.13205 0.31618 0.0
C514 C 0.48257 0.10663 0.38127 0.0
C515 C 0.50037 0.10114 0.41902 0.0
C516 C 0.51943 0.11074 0.40315 0.0
C517 C 0.52029 0.12605 0.3523 0.0
C518 C 0.46192 0.09692 0.39662 0.0
C519 C 0.53886 0.1053 0.44143 0.0
C520 C 0.49619 0.08261 0.60263 0.0
C521 C 0.50014 0.06141 0.5969 0.0
C522 C 0.49539 0.09545 0.54498 0.0
C523 C 0.49884 0.08699 0.47943 0.0
C524 C 0.50218 0.06541 0.47301 0.0
C525 C 0.50276 0.05286 0.53191 0.0
C526 C 0.49158 0.11826 0.55463 0.0
C527 C 0.50591 0.05572 0.40425 0.0
H528 H 0.47012 0.12648 0.30294 0.0
H529 H 0.5349 0.13344 0.34097 0.0
H530 H 0.46324 0.07985 0.39776 0.0
H531 H 0.45662 0.1019 0.4478 0.0
H532 H 0.45001 0.1013 0.35862 0.0
H533 H 0.55272 0.11288 0.41943 0.0
H534 H 0.53736 0.11014 0.49544 0.0
H535 H 0.54125 0.08834 0.44111 0.0
H536 H 0.49412 0.08932 0.65277 0.0
H537 H 0.50613 0.03658 0.52732 0.0
H538 H 0.47878 0.12346 0.52134 0.0
H539 H 0.50553 0.12709 0.53967 0.0
H540 H 0.48771 0.12217 0.60825 0.0
H541 H 0.49321 0.0597 0.36881 0.0
H542 H 0.50716 0.03864 0.40738 0.0
H543 H 0.52036 0.06194 0.382 0.0
C544 C 0.38449 0.48831 0.36397 0.0
C545 C 0.38894 0.49187 0.29491 0.0
C546 C 0.39974 0.49038 0.41446 0.0
C547 C 0.42001 0.4963 0.39583 0.0
C548 C 0.42474 0.49951 0.32609 0.0
C549 C 0.40919 0.49722 0.27655 0.0
C550 C 0.39406 0.48653 0.488 0.0
C551 C 0.44613 0.50583 0.30398 0.0
C552 C 0.45078 0.52359 0.53434 0.0
C553 C 0.46352 0.50779 0.55884 0.0
C554 C 0.43708 0.52019 0.48006 0.0
C555 C 0.43582 0.50037 0.44984 0.0
C556 C 0.44897 0.48442 0.4735 0.0
C557 C 0.46271 0.48833 0.52768 0.0
C558 C 0.42361 0.53774 0.45607 0.0
C559 C 0.44801 0.463 0.44349 0.0
H560 H 0.36902 0.48378 0.37865 0.0
H561 H 0.4128 0.50012 0.22346 0.0
H562 H 0.40459 0.47491 0.51058 0.0
H563 H 0.39587 0.50098 0.51772 0.0
H564 H 0.37794 0.48098 0.49381 0.0
H565 H 0.44765 0.50664 0.24765 0.0
H566 H 0.44994 0.52119 0.32562 0.0
H567 H 0.45767 0.49474 0.32386 0.0
H568 H 0.45141 0.53868 0.55812 0.0
H569 H 0.47245 0.47603 0.54673 0.0
H570 H 0.40718 0.53392 0.46552 0.0
H571 H 0.42547 0.54002 0.40036 0.0
H572 H 0.42726 0.55249 0.4823 0.0
H573 H 0.43368 0.45525 0.4609 0.0
H574 H 0.46138 0.45341 0.45921 0.0
H575 H 0.4475 0.46365 0.38703 0.0
C576 C 0.04266 0.40172 0.31555 0.0
C577 C 0.0244 0.39504 0.28396 0.0
C578 C 0.04231 0.41619 0.3691 0.0
C579 C 0.02324 0.42437 0.39169 0.0
C580 C 1.00483 0.41826 0.35835 0.0
C581 C 1.00563 0.40365 0.30529 0.0
C582 C 0.06228 0.42206 0.40342 0.0
C583 C 0.98418 0.42669 0.38015 0.0
C584 C 0.01749 0.44014 0.57757 0.0
C585 C 0.01836 0.46176 0.57438 0.0
C586 C 0.01946 0.42793 0.51885 0.0
C587 C 0.02226 0.4375 0.45459 0.0
C588 C 0.02358 0.45937 0.45102 0.0
C589 C 0.02172 0.47125 0.51109 0.0
C590 C 0.01816 0.40473 0.52563 0.0
C591 C 0.0266 0.47022 0.38369 0.0
H592 H 0.05724 0.39508 0.29996 0.0
H593 H 0.99147 0.3989 0.28055 0.0
H594 H 0.06371 0.4391 0.40687 0.0
H595 H 0.06241 0.41593 0.45624 0.0
H596 H 0.07594 0.41591 0.37599 0.0
H597 H 0.97156 0.4219 0.3453 0.0
H598 H 0.98047 0.42112 0.43223 0.0
H599 H 0.98468 0.4438 0.38209 0.0
H600 H 0.01501 0.43265 0.62633 0.0
H601 H 0.02255 0.4879 0.50835 0.0
H602 H 0.03208 0.39746 0.50325 0.0
H603 H 1.00463 0.39887 0.49698 0.0
H604 H 0.01675 0.39966 0.57953 0.0
H605 H 0.04093 0.4647 0.35887 0.0
H606 H 0.02753 0.48726 0.3895 0.0
H607 H 0.01362 0.46648 0.34899 0.0
C608 C 0.89207 0.01515 0.07112 0.0
C609 C 0.88464 0.9958 0.09225 0.0
C610 C 0.90668 0.01693 0.01825 0.0
C611 C 0.91403 0.99895 0.98512 0.0
C612 C 0.9068 0.97936 1.00676 0.0
C613 C 0.89226 0.97802 0.0599 0.0
C614 C 0.91403 0.03812 0.99717 0.0
C615 C 0.91404 0.95979 0.97262 0.0
C616 C 0.93354 1.00472 0.80273 0.0
C617 C 0.955 1.00456 0.81118 0.0
C618 C 0.92013 1.00276 0.85869 0.0
C619 C 0.92832 1.00069 0.92524 0.0
C620 C 0.95003 1.00036 0.93412 0.0
C621 C 0.96312 1.00226 0.87695 0.0
C622 C 0.89715 1.00308 0.84652 0.0
C623 C 0.95943 0.99823 1.00408 0.0
H624 H 0.88653 0.02896 0.09625 0.0
H625 H 0.88647 0.963 0.07505 0.0
H626 H 0.9311 0.03887 0.99928 0.0
H627 H 0.90943 0.04122 0.94369 0.0
H628 H 0.90762 0.0505 0.03006 0.0
H629 H 0.90776 0.94572 0.99753 0.0
H630 H 0.90921 0.95981 0.9184 0.0
H631 H 0.93111 0.95899 0.97344 0.0
H632 H 0.92714 1.0065 0.75205 0.0
H633 H 0.97967 1.00228 0.88386 0.0
H634 H 0.89012 0.01624 0.87411 0.0
H635 H 0.89003 0.98875 0.86679 0.0
H636 H 0.89324 1.00445 0.79159 0.0
H637 H 0.95451 1.01133 0.03664 0.0
H638 H 0.97654 0.9979 1.00239 0.0
H639 H 0.95385 0.98386 0.0288 0.0
C640 C 0.50313 0.90715 0.10472 0.0
C641 C 0.52078 0.89503 0.11567 0.0
C642 C 0.50219 0.92157 0.05096 0.0
C643 C 0.51933 0.92411 1.00685 0.0
C644 C 0.53744 0.91247 0.01912 0.0
C645 C 0.53791 0.89807 0.07298 0.0
C646 C 0.48252 0.93351 0.03976 0.0
C647 C 0.55615 0.91476 0.97397 0.0
C648 C 0.50882 0.94016 0.82333 0.0
C649 C 0.51387 0.96124 0.82322 0.0
C650 C 0.51049 0.9281 0.88255 0.0
C651 C 0.51754 0.93719 0.94387 0.0
C652 C 0.52282 0.95849 0.9442 0.0
C653 C 0.52094 0.97027 0.88379 0.0
C654 C 0.50457 0.90554 0.87941 0.0
C655 C 0.53059 0.9688 1.00812 0.0
H656 H 0.48974 0.90488 0.13689 0.0
H657 H 0.55176 0.8891 0.08158 0.0
H658 H 0.48588 0.95025 0.03511 0.0
H659 H 0.47526 0.92852 0.99128 0.0
H660 H 0.47126 0.93118 0.08176 0.0
H661 H 0.56961 0.90602 0.99368 0.0
H662 H 0.55252 0.90906 0.92203 0.0
H663 H 0.56048 0.93127 0.96923 0.0
H664 H 0.50335 0.93302 0.77679 0.0
H665 H 0.52511 0.98646 0.88386 0.0
H666 H 0.49212 0.90227 0.91669 0.0
H667 H 0.51796 0.89581 0.89347 0.0
H668 H 0.49918 0.90086 0.82797 0.0
H669 H 0.5199 0.96581 0.05117 0.0
H670 H 0.53237 0.98574 1.00171 0.0
H671 H 0.54576 0.96218 0.02228 0.0
C672 C 0.62798 0.50832 0.03812 0.0
C673 C 0.63401 0.52762 0.06389 0.0
C674 C 0.61339 0.5067 0.98526 0.0
C675 C 0.60461 0.52481 0.95694 0.0
C676 C 0.61035 0.54431 0.98351 0.0
C677 C 0.62493 0.54548 0.03649 0.0
C678 C 0.60762 0.48558 0.9589 0.0
C679 C 0.60151 0.56401 0.95469 0.0
C680 C 0.58553 0.52127 0.77363 0.0
C681 C 0.56417 0.51925 0.78213 0.0
C682 C 0.59875 0.52339 0.82994 0.0
C683 C 0.59046 0.52338 0.89678 0.0
C684 C 0.56882 0.5216 0.90565 0.0
C685 C 0.55594 0.51953 0.84819 0.0
C686 C 0.62165 0.52536 0.81785 0.0
C687 C 0.5593 0.52155 0.97583 0.0
H688 H 0.63463 0.49441 0.05948 0.0
H689 H 0.62962 0.56049 0.05527 0.0
H690 H 0.59065 0.48349 0.96081 0.0
H691 H 0.61238 0.48412 0.9048 0.0
H692 H 0.61498 0.47298 0.98857 0.0
H693 H 0.6066 0.57787 0.98347 0.0
H694 H 0.60634 0.56579 0.90075 0.0
H695 H 0.58442 0.56338 0.95534 0.0
H696 H 0.59198 0.52103 0.72267 0.0
H697 H 0.5395 0.51759 0.85502 0.0
H698 H 0.62981 0.51219 0.84184 0.0
H699 H 0.62757 0.53968 0.84194 0.0
H700 H 0.6256 0.52571 0.76276 0.0
H701 H 0.56565 0.5086 1.00628 0.0
H702 H 0.54224 0.52004 0.97412 0.0
H703 H 0.56326 0.53606 1.00285 0.0
C704 C 0.97664 0.62284 0.05461 0.0
C705 C 0.99468 0.63059 0.08498 0.0
C706 C 0.97746 0.60785 1.0027 0.0
C707 C 0.9968 0.60037 0.98006 0.0
C708 C 0.01501 0.60754 0.01224 0.0
C709 C 0.01374 0.6225 0.06415 0.0
C710 C 0.95765 0.60057 0.97039 0.0
C711 C 0.03596 0.6 0.98993 0.0
C712 C 1.00004 0.55282 0.86397 0.0
C713 C 1.00203 0.562 0.79962 0.0
C714 C 0.99812 0.56499 0.92337 0.0
C715 C 0.99813 0.58687 0.91811 0.0
C716 C 0.99982 0.59611 0.85291 0.0
C717 C 1.00174 0.58362 0.79484 0.0
C718 C 0.99616 0.55444 0.99164 0.0
C719 C 0.99993 0.6193 0.84441 0.0
H720 H 0.96179 0.62862 0.07112 0.0
H721 H 0.0278 0.62841 0.08674 0.0
H722 H 0.95701 0.60585 0.91662 0.0
H723 H 0.95703 0.58345 0.9699 0.0
H724 H 0.94383 0.60649 0.99745 0.0
H725 H 0.04848 0.60563 0.02378 0.0
H726 H 0.03629 0.58288 0.98916 0.0
H727 H 0.03914 0.60541 0.93728 0.0
H728 H 1.00041 0.53619 0.86798 0.0
H729 H 1.00327 0.59088 0.74529 0.0
H730 H 0.98046 0.55703 0.01233 0.0
H731 H 1.00728 0.56108 0.02857 0.0
H732 H 0.99883 0.53754 0.9881 0.0
H733 H 0.98568 0.62598 0.86642 0.0
H734 H 1.00104 0.62406 0.79014 0.0
H735 H 0.01317 0.62604 0.87247 0.0
C736 C 1.00266 0.17314 0.26043 0.0
C737 C 1.00225 0.18185 0.19512 0.0
C738 C 1.00187 0.15176 0.2696 0.0
C739 C 1.001 0.13866 0.2119 0.0
C740 C 1.00091 0.14726 0.1456 0.0
C741 C 1.0013 0.16881 0.138 0.0
C742 C 1.00198 0.14322 0.34137 0.0
C743 C 1.00008 0.13389 0.0827 0.0
C744 C 0.01676 0.08588 0.27048 0.0
C745 C 0.9976 0.0779 0.29048 0.0
C746 C 0.01806 0.10484 0.23622 0.0
C747 C 0.9998 0.11605 0.22295 0.0
C748 C 0.98039 0.10686 0.23553 0.0
C749 C 0.97951 0.08782 0.26923 0.0
C750 C 0.03902 0.11382 0.22081 0.0
C751 C 0.96056 0.11818 0.22095 0.0
H752 H 1.0039 0.18305 0.3047 0.0
H753 H 1.00076 0.17544 0.08728 0.0
H754 H 0.98803 0.13365 0.35007 0.0
H755 H 0.0156 0.13313 0.34876 0.0
H756 H 1.0024 0.15557 0.38058 0.0
H757 H 1.00585 0.14228 0.0371 0.0
H758 H 1.00923 0.11957 0.08924 0.0
H759 H 0.98387 0.12932 0.07284 0.0
H760 H 0.03076 0.07797 0.28552 0.0
H761 H 0.96464 0.0817 0.28441 0.0
H762 H 0.04288 0.12563 0.25972 0.0
H763 H 0.03906 0.12155 0.1703 0.0
H764 H 0.05122 0.10181 0.22148 0.0
H765 H 0.95839 0.13052 0.2595 0.0
H766 H 0.94699 0.10772 0.22288 0.0
H767 H 0.96115 0.12565 0.17013 0.0
C768 C 0.3464 0.96424 0.20903 0.0
C769 C 0.33643 0.97831 0.16602 0.0
C770 C 0.36739 0.96639 0.22405 0.0
C771 C 0.37865 0.98299 0.19517 0.0
C772 C 0.3692 0.99593 0.14626 0.0
C773 C 0.34812 0.99348 0.13245 0.0
C774 C 0.37701 0.95198 0.2755 0.0
C775 C 0.38079 0.01348 0.11306 0.0
C776 C 0.4171 1.00312 0.32274 0.0
C777 C 0.43515 0.99286 0.30301 0.0
C778 C 0.39897 1.00129 0.28468 0.0
C779 C 0.39879 0.98876 0.22559 0.0
C780 C 0.41732 0.97973 0.20217 0.0
C781 C 0.43533 0.9819 0.24124 0.0
C782 C 0.37957 1.01144 0.31096 0.0
C783 C 0.41786 0.96659 0.13875 0.0
H784 H 0.33752 0.95218 0.23377 0.0
H785 H 0.34054 1.00441 0.09912 0.0
H786 H 0.39215 0.94637 0.25698 0.0
H787 H 0.37973 0.96044 0.32385 0.0
H788 H 0.36702 0.93844 0.28658 0.0
H789 H 0.37268 0.01934 0.0671 0.0
H790 H 0.38232 0.02638 0.14988 0.0
H791 H 0.39656 1.00863 0.09831 0.0
H792 H 0.41668 0.01147 0.37054 0.0
H793 H 0.44934 0.97427 0.22486 0.0
H794 H 0.36877 0.99943 0.32986 0.0
H795 H 0.37169 0.01994 0.26941 0.0
H796 H 0.38277 0.02239 0.35324 0.0
H797 H 0.41152 0.95108 0.15064 0.0
H798 H 0.43383 0.96461 0.11934 0.0
H799 H 0.40822 0.97337 0.0978 0.0
C800 C 0.46149 0.35639 0.22692 0.0
C801 C 0.4702 0.34494 0.17367 0.0
C802 C 0.46707 0.37703 0.2375 0.0
C803 C 0.4814 0.38652 0.19289 0.0
C804 C 0.48817 0.37587 0.13408 0.0
C805 C 0.48266 0.35508 0.1255 0.0
C806 C 0.4593 0.38789 0.30056 0.0
C807 C 0.50278 0.3857 0.08367 0.0
C808 C 0.49253 0.44238 0.23788 0.0
C809 C 0.5093 0.44 0.28234 0.0
C810 C 0.48404 0.42527 0.20393 0.0
C811 C 0.49233 0.4054 0.21596 0.0
C812 C 0.50998 0.40316 0.25771 0.0
C813 C 0.51825 0.42048 0.29019 0.0
C814 C 0.46562 0.42835 0.1582 0.0
C815 C 0.51934 0.38224 0.27197 0.0
H816 H 0.45131 0.34883 0.263 0.0
H817 H 0.48942 0.34645 0.08381 0.0
H818 H 0.47204 0.38922 0.33807 0.0
H819 H 0.45412 0.40375 0.2881 0.0
H820 H 0.44634 0.37945 0.32502 0.0
H821 H 0.50189 0.37805 0.0331 0.0
H822 H 0.49948 0.40239 0.07721 0.0
H823 H 0.51881 0.38417 0.10268 0.0
H824 H 0.48572 0.45751 0.23103 0.0
H825 H 0.53103 0.41848 0.32511 0.0
H826 H 0.4514 0.42396 0.18609 0.0
H827 H 0.46666 0.41843 0.11227 0.0
H828 H 0.4641 0.44471 0.14186 0.0
H829 H 0.50814 0.37254 0.30042 0.0
H830 H 0.53373 0.38334 0.30241 0.0
H831 H 0.5229 0.3742 0.22351 0.0
C832 C 0.17513 0.55496 0.12757 0.0
C833 C 0.1901 0.55177 0.17819 0.0
C834 C 0.15401 0.55409 0.14322 0.0
C835 C 0.14779 0.55001 0.21105 0.0
C836 C 0.1628 0.54746 0.26262 0.0
C837 C 0.18371 0.54821 0.2455 0.0
C838 C 0.13847 0.55676 0.08672 0.0
C839 C 0.1568 0.54332 0.33585 0.0
C840 C 0.09572 0.56238 0.2858 0.0
C841 C 0.0874 0.54254 0.29425 0.0
C842 C 0.11478 0.56528 0.25363 0.0
C843 C 0.1257 0.54792 0.22924 0.0
C844 C 0.11658 0.52806 0.23252 0.0
C845 C 0.09756 0.52557 0.26555 0.0
C846 C 0.12395 0.5867 0.25078 0.0
C847 C 0.12757 0.50926 0.20542 0.0
H848 H 0.17989 0.55784 0.07548 0.0
H849 H 0.19504 0.5452 0.28478 0.0
H850 H 0.13245 0.54139 0.07168 0.0
H851 H 0.12518 0.5662 0.1037 0.0
H852 H 0.14544 0.56415 0.04105 0.0
H853 H 0.17037 0.54267 0.37029 0.0
H854 H 0.14625 0.55554 0.35441 0.0
H855 H 0.14844 0.5284 0.3394 0.0
H856 H 0.08799 0.57554 0.3083 0.0
H857 H 0.09098 0.51027 0.27114 0.0
H858 H 0.13042 0.58988 0.19948 0.0
H859 H 0.1368 0.58781 0.28793 0.0
H860 H 0.11243 0.5988 0.26316 0.0
H861 H 0.1337 0.51232 0.15359 0.0
H862 H 0.1173 0.49554 0.20336 0.0
H863 H 0.14087 0.50559 0.2388 0.0
C864 C 0.08231 0.83387 0.13376 0.0
C865 C 0.06167 0.83047 0.15225 0.0
C866 C 0.08875 0.85304 0.10776 0.0
C867 C 0.07418 0.8691 0.10028 0.0
C868 C 0.05355 0.86602 0.12159 0.0
C869 C 0.04755 0.84675 0.14693 0.0
C870 C 0.11087 0.85581 0.08575 0.0
C871 C 0.03751 0.8828 0.11468 0.0
C872 C 0.08433 0.92579 0.07219 0.0
C873 C 0.07811 0.92792 1.00408 0.0
C874 C 0.08512 0.90629 0.10323 0.0
C875 C 0.07962 0.88861 0.06498 0.0
C876 C 0.07555 0.89048 0.99443 0.0
C877 C 0.07476 0.91013 0.96486 0.0
C878 C 0.08986 0.90488 0.17836 0.0
C879 C 0.06986 0.87197 0.95159 0.0
H880 H 0.09338 0.82143 0.13858 0.0
H881 H 0.0315 0.84421 0.15989 0.0
H882 H 0.11166 0.85633 0.0293 0.0
H883 H 0.11714 0.87064 0.10498 0.0
H884 H 0.12085 0.84302 0.10391 0.0
H885 H 0.02252 0.87835 0.13789 0.0
H886 H 0.04297 0.89721 0.13933 0.0
H887 H 0.03492 0.88627 0.05996 0.0
H888 H 0.08742 0.93946 0.10236 0.0
H889 H 0.06983 0.91155 0.91231 0.0
H890 H 0.0996 0.89123 0.18957 0.0
H891 H 0.07524 0.90305 0.20715 0.0
H892 H 0.0978 0.91896 0.19718 0.0
H893 H 0.07048 0.87549 0.89619 0.0
H894 H 0.05395 0.86699 0.96444 0.0
H895 H 0.0803 0.85882 0.96232 0.0
C896 C 0.66876 0.05174 0.27983 0.0
C897 C 0.68357 0.05299 0.22776 0.0
C898 C 0.64765 0.05092 0.26453 0.0
C899 C 0.64131 0.05128 0.19558 0.0
C900 C 0.6561 0.05389 0.1432 0.0
C901 C 0.67704 0.05468 0.15993 0.0
C902 C 0.63241 0.04839 0.32207 0.0
C903 C 0.64995 0.05452 0.06894 0.0
C904 C 0.59476 0.02343 0.12661 0.0
C905 C 0.58213 0.04005 0.10828 0.0
C906 C 0.61344 0.02675 0.1607 0.0
C907 C 0.61958 0.04717 0.1765 0.0
C908 C 0.60604 0.0638 0.16371 0.0
C909 C 0.58746 0.06005 0.12947 0.0
C910 C 0.62729 1.00856 0.1751 0.0
C911 C 0.61188 0.08571 0.18131 0.0
H912 H 0.6737 0.05068 0.3325 0.0
H913 H 0.68834 0.05535 0.11929 0.0
H914 H 0.61752 0.05605 0.31061 0.0
H915 H 0.62934 0.03171 0.33012 0.0
H916 H 0.63861 0.0548 0.37037 0.0
H917 H 0.64346 0.03935 0.05377 0.0
H918 H 0.63781 0.06629 0.06065 0.0
H919 H 0.66318 0.05811 0.03494 0.0
H920 H 0.59046 1.00791 0.11157 0.0
H921 H 0.57779 0.07299 0.11536 0.0
H922 H 0.63295 1.00913 0.2284 0.0
H923 H 0.64095 1.00924 0.14107 0.0
H924 H 0.61932 0.99358 0.16684 0.0
H925 H 0.61847 0.0865 0.23342 0.0
H926 H 0.59848 0.09633 0.17823 0.0
H927 H 0.62389 0.09123 0.14532 0.0
C928 C 0.52102 0.66875 0.22443 0.0
C929 C 0.50412 0.68196 0.21588 0.0
C930 C 0.51951 0.64776 0.20791 0.0
C931 C 0.50073 0.64001 0.18169 0.0
C932 C 0.48309 0.6528 0.17976 0.0
C933 C 0.485 0.67368 0.197 0.0
C934 C 0.53855 0.63447 0.2119 0.0
C935 C 0.46271 0.64503 0.15287 0.0
C936 C 0.50406 0.60344 0.03299 0.0
C937 C 0.49811 0.58463 0.0623 0.0
C938 C 0.50546 0.62136 0.07204 0.0
C939 C 0.5007 0.62052 0.14239 0.0
C940 C 0.49512 0.60152 0.17298 0.0
C941 C 0.49376 0.58373 0.13229 0.0
C942 C 0.51145 0.64135 0.03731 0.0
C943 C 0.4901 0.60009 0.24795 0.0
H944 H 0.53583 0.67503 0.23942 0.0
H945 H 0.47174 0.68375 0.19239 0.0
H946 H 0.53471 0.61874 0.23034 0.0
H947 H 0.54535 0.63294 0.16024 0.0
H948 H 0.55038 0.6413 0.24607 0.0
H949 H 0.44984 0.65565 0.16557 0.0
H950 H 0.46361 0.64362 0.09658 0.0
H951 H 0.45913 0.62952 0.17369 0.0
H952 H 0.507 0.60431 0.97867 0.0
H953 H 0.48923 0.56915 0.15506 0.0
H954 H 0.52501 0.64828 0.06303 0.0
H955 H 0.4986 0.65258 0.04099 0.0
H956 H 0.51527 0.63914 0.9826 0.0
H957 H 0.50206 0.60804 0.27873 0.0
H958 H 0.48881 0.58383 0.26552 0.0
H959 H 0.47524 0.60796 0.25807 0.0
C960 C 0.84521 0.45686 0.19114 0.0
C961 C 0.83536 0.47169 0.2315 0.0
C962 C 0.86605 0.45897 0.17372 0.0
C963 C 0.87723 0.47635 0.19729 0.0
C964 C 0.868 0.49008 0.24421 0.0
C965 C 0.84709 0.48763 0.26063 0.0
C966 C 0.87549 0.44366 0.1249 0.0
C967 C 0.87948 0.50854 0.27187 0.0
C968 C 0.93372 0.47755 0.1468 0.0
C969 C 0.93267 0.48767 0.0835 0.0
C970 C 0.91596 0.47459 0.1867 0.0
C971 C 0.89681 0.48203 0.16278 0.0
C972 C 0.89592 0.49343 0.10123 0.0
C973 C 0.9138 0.49599 0.06223 0.0
C974 C 0.91755 0.46254 0.25236 0.0
C975 C 0.87581 0.50189 0.07432 0.0
H976 H 0.83631 0.44422 0.16994 0.0
H977 H 0.83963 0.49917 0.29207 0.0
H978 H 0.87703 0.45091 0.07386 0.0
H979 H 0.89114 0.43916 0.142 0.0
H980 H 0.86593 0.4295 0.11967 0.0
H981 H 0.87225 0.51445 0.31934 0.0
H982 H 0.89583 0.50474 0.28255 0.0
H983 H 0.87926 0.52108 0.23332 0.0
H984 H 0.94831 0.47139 0.16427 0.0
H985 H 0.9127 0.50358 0.01315 0.0
H986 H 0.91112 0.44684 0.24462 0.0
H987 H 0.90844 0.46999 0.29334 0.0
H988 H 0.93378 0.46099 0.26966 0.0
H989 H 0.86546 0.48894 0.06013 0.0
H990 H 0.87805 0.51186 0.0288 0.0
H991 H 0.86789 0.51103 0.11428 0.0
C992 C 0.03352 0.17249 0.83874 0.0
C993 C 0.01826 0.18149 0.88002 0.0
C994 C 0.03193 0.15189 0.81621 0.0
C995 C 0.01457 0.1398 0.83475 0.0
C996 C 0.99913 0.14872 0.87655 0.0
C997 C 1.00117 0.16935 0.8987 0.0
C998 C 0.04889 0.14304 0.77244 0.0
C999 C 0.98039 0.13647 0.89784 0.0
C1000 C 1.00238 0.09213 0.72599 0.0
C1001 C 1.01042 0.07601 0.76582 0.0
C1002 C 1.00337 0.11286 0.74809 0.0
C1003 C 0.01281 0.11775 0.81129 0.0
C1004 C 0.02097 0.10155 0.85159 0.0
C1005 C 0.01959 0.08099 0.82866 0.0
C1006 C 0.99429 0.12956 0.70371 0.0
C1007 C 0.0313 0.10593 0.91899 0.0
H1008 H 0.04665 0.18167 0.82296 0.0
H1009 H 0.98941 0.1759 0.93136 0.0
H1010 H 0.05552 0.12918 0.79736 0.0
H1011 H 0.04253 0.13805 0.72264 0.0
H1012 H 0.06149 0.15432 0.76303 0.0
H1013 H 0.97172 0.13147 0.85202 0.0
H1014 H 0.98516 0.12232 0.92546 0.0
H1015 H 0.96991 0.14548 0.93122 0.0
H1016 H 0.99519 0.08857 0.67758 0.0
H1017 H 0.02593 0.06879 0.86008 0.0
H1018 H 1.00647 0.14072 0.68876 0.0
H1019 H 0.98246 0.13827 0.73267 0.0
H1020 H 0.98708 0.12327 0.65676 0.0
H1021 H 0.04443 0.11669 0.91137 0.0
H1022 H 0.03711 0.09169 0.94398 0.0
H1023 H 0.02029 0.11359 0.95398 0.0
C1024 C 0.35229 1.0107 0.91766 0.0
C1025 C 0.3382 0.02394 0.88546 0.0
C1026 C 0.3726 1.00845 0.89315 0.0
C1027 C 0.37916 0.0199 0.83534 0.0
C1028 C 0.36499 0.0333 0.80274 0.0
C1029 C 0.34474 0.03507 0.82788 0.0
C1030 C 0.38707 0.99389 0.9294 0.0
C1031 C 0.37136 0.04615 0.74201 0.0
C1032 C 0.43675 0.03034 0.81487 0.0
C1033 C 0.44245 0.01636 0.76346 0.0
C1034 C 0.41629 0.0317 0.83822 0.0
C1035 C 0.40101 0.01853 0.81051 0.0
C1036 C 0.40661 1.00437 0.75857 0.0
C1037 C 0.42719 1.00359 0.73522 0.0
C1038 C 0.41104 0.04731 0.89263 0.0
C1039 C 0.39091 0.98982 0.72836 0.0
H1040 H 0.34737 1.00188 0.96175 0.0
H1041 H 0.33411 0.04557 0.80321 0.0
H1042 H 0.39353 0.98259 0.89271 0.0
H1043 H 0.4002 1.00265 0.95115 0.0
H1044 H 0.37933 0.98532 0.97136 0.0
H1045 H 0.35848 0.0556 0.72175 0.0
H1046 H 0.38418 0.05662 0.75651 0.0
H1047 H 0.37714 0.03602 0.70066 0.0
H1048 H 0.44833 0.04039 0.83689 0.0
H1049 H 0.43142 0.99261 0.69599 0.0
H1050 H 0.40494 0.03933 0.93845 0.0
H1051 H 0.39878 0.05782 0.87402 0.0
H1052 H 0.42459 0.05673 0.90792 0.0
H1053 H 0.38404 0.98015 0.76923 0.0
H1054 H 0.39771 0.97952 0.68913 0.0
H1055 H 0.37819 0.99873 0.70477 0.0
C1056 C 0.49674 0.34716 0.82483 0.0
C1057 C 0.51005 0.34229 0.87901 0.0
C1058 C 0.49622 0.36713 0.79622 0.0
C1059 C 0.50942 0.38276 0.82182 0.0
C1060 C 0.5228 0.378 0.87672 0.0
C1061 C 0.52291 0.35795 0.90465 0.0
C1062 C 0.48151 0.3715 0.73844 0.0
C1063 C 0.53703 0.39415 0.90618 0.0
C1064 C 0.52142 0.42986 0.70999 0.0
C1065 C 0.50864 0.44506 0.7385 0.0
C1066 C 0.52179 0.40956 0.73633 0.0
C1067 C 0.50894 0.40416 0.79215 0.0
C1068 C 0.49573 0.41932 0.82022 0.0
C1069 C 0.4958 0.43949 0.79339 0.0
C1070 C 0.53628 0.39398 0.70527 0.0
C1071 C 0.4816 0.4143 0.8792 0.0
H1072 H 0.4869 0.33523 0.8038 0.0
H1073 H 0.53299 0.35459 0.94724 0.0
H1074 H 0.471 0.3843 0.75264 0.0
H1075 H 0.49022 0.37655 0.6927 0.0
H1076 H 0.47207 0.3578 0.72477 0.0
H1077 H 0.54704 0.38784 0.94708 0.0
H1078 H 0.54695 0.40069 0.86544 0.0
H1079 H 0.52786 0.40704 0.92764 0.0
H1080 H 0.5315 0.43393 0.668 0.0
H1081 H 0.48578 0.45098 0.81594 0.0
H1082 H 0.5275 0.3803 0.68746 0.0
H1083 H 0.54735 0.38853 0.7444 0.0
H1084 H 0.54508 0.40045 0.66161 0.0
H1085 H 0.47144 0.40113 0.86575 0.0
H1086 H 0.47181 0.42762 0.89398 0.0
H1087 H 0.49082 0.40953 0.92413 0.0
C1088 C 0.16546 0.5122 0.89744 0.0
C1089 C 0.1787 0.49703 0.87109 0.0
C1090 C 0.1454 0.51491 0.87136 0.0
C1091 C 0.13813 0.5019 0.81844 0.0
C1092 C 0.15146 0.48661 0.79154 0.0
C1093 C 0.17154 0.48446 0.8178 0.0
C1094 C 0.1319 0.53153 0.9014 0.0
C1095 C 0.14433 0.47218 0.73594 0.0
C1096 C 0.08002 0.49389 0.80263 0.0
C1097 C 0.07491 0.50637 0.74646 0.0
C1098 C 0.10044 0.49227 0.82614 0.0
C1099 C 0.11632 0.50356 0.79341 0.0
C1100 C 0.11133 0.51621 0.73672 0.0
C1101 C 0.09075 0.51735 0.71364 0.0
C1102 C 0.105 0.4784 0.88617 0.0
C1103 C 0.1277 0.52877 0.70102 0.0
H1104 H 0.17087 0.52211 0.93819 0.0
H1105 H 0.18151 0.47252 0.79764 0.0
H1106 H 0.12398 0.54034 0.86058 0.0
H1107 H 0.11984 0.52431 0.93371 0.0
H1108 H 0.14084 0.5425 0.93326 0.0
H1109 H 0.1567 0.46148 0.71917 0.0
H1110 H 0.13106 0.46289 0.75435 0.0
H1111 H 0.13897 0.48115 0.69119 0.0
H1112 H 0.06803 0.48522 0.82839 0.0
H1113 H 0.08703 0.52715 0.67058 0.0
H1114 H 0.11155 0.48763 0.92855 0.0
H1115 H 0.1167 0.46672 0.87173 0.0
H1116 H 0.09103 0.47026 0.90503 0.0
H1117 H 0.13512 0.53944 0.73784 0.0
H1118 H 0.12136 0.53797 0.65807 0.0
H1119 H 0.13991 0.51845 0.68103 0.0
C1120 C 0.98309 0.85349 0.52993 0.0
C1121 C 1.00087 0.84146 0.51959 0.0
C1122 C 0.98418 0.87354 0.5575 0.0
C1123 C 1.00358 0.88225 0.57406 0.0
C1124 C 0.02163 0.87038 0.56324 0.0
C1125 C 0.02006 0.85017 0.53683 0.0
C1126 C 0.96449 0.88549 0.56838 0.0
C1127 C 0.04267 0.87911 0.57903 0.0
C1128 C 1.00625 0.94116 0.57764 0.0
C1129 C 1.00577 0.94557 0.64777 0.0
C1130 C 1.00602 0.92073 0.55331 0.0
C1131 C 1.00494 0.90406 0.59996 0.0
C1132 C 1.00455 0.90835 0.6709 0.0
C1133 C 1.00517 0.92901 0.69394 0.0
C1134 C 1.00686 0.91701 0.47739 0.0
C1135 C 1.00311 0.89112 0.72247 0.0
H1136 H 0.96816 0.84738 0.51562 0.0
H1137 H 0.03396 0.84113 0.53037 0.0
H1138 H 0.96442 0.89941 0.53542 0.0
H1139 H 0.95055 0.87616 0.55675 0.0
H1140 H 0.96352 0.89085 0.62197 0.0
H1141 H 0.05524 0.868 0.5677 0.0
H1142 H 0.0453 0.89335 0.54876 0.0
H1143 H 0.04357 0.88348 0.63358 0.0
H1144 H 1.00697 0.95376 0.5413 0.0
H1145 H 1.00478 0.93218 0.74814 0.0
H1146 H 0.99255 0.90917 0.46042 0.0
H1147 H 0.01994 0.90666 0.46488 0.0
H1148 H 1.00863 0.93156 0.44794 0.0
H1149 H 0.98868 0.88224 0.71426 0.0
H1150 H 1.00327 0.89692 0.77572 0.0
H1151 H 0.01613 0.88024 0.71572 0.0
C1152 C 0.6683 0.98387 0.57319 0.0
C1153 C 0.67697 0.99889 0.52996 0.0
C1154 C 0.64822 0.98596 0.59952 0.0
C1155 C 0.63633 1.0036 0.58293 0.0
C1156 C 0.64511 0.01906 0.54062 0.0
C1157 C 0.6652 0.01648 0.51447 0.0
C1158 C 0.63956 0.96906 0.64423 0.0
C1159 C 0.63309 0.03811 0.52126 0.0
C1160 C 0.57775 0.99814 0.58927 0.0
C1161 C 0.57267 1.00727 0.65213 0.0
C1162 C 0.59826 0.99701 0.56627 0.0
C1163 C 0.61436 1.00522 0.60674 0.0
C1164 C 0.60942 0.01453 0.67011 0.0
C1165 C 0.5887 0.01541 0.69209 0.0
C1166 C 0.6027 0.98693 0.49847 0.0
C1167 C 0.62606 0.02367 0.71455 0.0
H1168 H 0.67729 0.97039 0.58674 0.0
H1169 H 0.67151 0.0281 0.48051 0.0
H1170 H 0.63441 0.97556 0.69364 0.0
H1171 H 0.62586 0.96208 0.61944 0.0
H1172 H 0.65097 0.95666 0.65436 0.0
H1173 H 0.64314 0.05021 0.49863 0.0
H1174 H 0.62111 0.03392 0.48338 0.0
H1175 H 0.62512 0.04469 0.56628 0.0
H1176 H 0.56565 0.99179 0.55753 0.0
H1177 H 0.58507 0.02259 0.74049 0.0
H1178 H 0.61333 0.97371 0.5057 0.0
H1179 H 0.61047 0.99808 0.46404 0.0
H1180 H 0.58849 0.98125 0.47303 0.0
H1181 H 0.63738 0.01158 0.72857 0.0
H1182 H 0.61976 0.03057 0.762 0.0
H1183 H 0.63454 0.03579 0.68594 0.0
C1184 C 0.50043 0.67258 0.53413 0.0
C1185 C 0.51926 0.6833 0.52942 0.0
C1186 C 0.49963 0.65164 0.55386 0.0
C1187 C 0.51807 0.64094 0.5697 0.0
C1188 C 0.53711 0.65161 0.56493 0.0
C1189 C 0.53748 0.67252 0.54482 0.0
C1190 C 0.47898 0.64095 0.55794 0.0
C1191 C 0.55718 0.64089 0.58088 0.0
C1192 C 0.51501 0.59173 0.67835 0.0
C1193 C 0.51645 0.57607 0.62906 0.0
C1194 C 0.51555 0.61281 0.65989 0.0
C1195 C 0.51749 0.61854 0.59033 0.0
C1196 C 0.51894 0.60281 0.54039 0.0
C1197 C 0.51846 0.58189 0.56027 0.0
C1198 C 0.51403 0.62898 0.71496 0.0
C1199 C 0.5209 0.60807 0.46566 0.0
H1200 H 0.48619 0.68066 0.52342 0.0
H1201 H 0.55218 0.68037 0.54037 0.0
H1202 H 0.47878 0.62737 0.52353 0.0
H1203 H 0.47633 0.63516 0.61045 0.0
H1204 H 0.46605 0.65132 0.54377 0.0
H1205 H 0.5568 0.63467 0.63358 0.0
H1206 H 0.55936 0.6276 0.54602 0.0
H1207 H 0.57067 0.65136 0.5759 0.0
H1208 H 0.51344 0.58754 0.73158 0.0
H1209 H 0.5195 0.57005 0.52145 0.0
H1210 H 0.50042 0.63895 0.70572 0.0
H1211 H 0.52785 0.63908 0.71368 0.0
H1212 H 0.51267 0.62209 0.76663 0.0
H1213 H 0.50747 0.6174 0.4491 0.0
H1214 H 0.52182 0.5941 0.43302 0.0
H1215 H 0.5349 0.61757 0.457 0.0
C1216 C 0.8518 0.54048 0.53312 0.0
C1217 C 0.84229 0.52445 0.49659 0.0
C1218 C 0.87176 0.53827 0.56014 0.0
C1219 C 0.88269 0.51958 0.55039 0.0
C1220 C 0.87314 0.50327 0.51389 0.0
C1221 C 0.85308 0.50587 0.48765 0.0
C1222 C 0.88128 0.5561 0.59847 0.0
C1223 C 0.88427 0.48318 0.50143 0.0
C1224 C 0.94136 0.52259 0.55808 0.0
C1225 C 0.94572 0.51538 0.62421 0.0
C1226 C 0.92105 0.52373 0.53339 0.0
C1227 C 0.90443 0.51757 0.57559 0.0
C1228 C 0.90865 0.51013 0.64218 0.0
C1229 C 0.92919 0.50912 0.66568 0.0
C1230 C 0.91737 0.53174 0.46209 0.0
C1231 C 0.89141 0.50333 0.68877 0.0
H1232 H 0.84351 0.5548 0.54107 0.0
H1233 H 0.84599 0.49349 0.45883 0.0
H1234 H 0.886 0.55103 0.65017 0.0
H1235 H 0.89537 0.56144 0.57168 0.0
H1236 H 0.87055 0.56936 0.60356 0.0
H1237 H 0.87434 0.4716 0.47556 0.0
H1238 H 0.89806 0.48599 0.46928 0.0
H1239 H 0.88973 0.47659 0.5504 0.0
H1240 H 0.95387 0.52741 0.52508 0.0
H1241 H 0.93227 0.50347 0.71665 0.0
H1242 H 0.90774 0.54587 0.46411 0.0
H1243 H 0.90878 0.52012 0.43175 0.0
H1244 H 0.93196 0.53548 0.43507 0.0
H1245 H 0.89719 0.4975 0.73845 0.0
H1246 H 0.88224 0.49097 0.66398 0.0
H1247 H 0.88083 0.51645 0.69843 0.0
loop_
_geom_bond_atom_site_label_1
_geom_bond_atom_site_label_2
_geom_bond_distance
_geom_bond_site_symmetry_2
_ccdc_geom_bond_type
C0 C1 1.264 . S
C0 C5 1.479 . S
C0 C10 1.465 . S
C1 C0 1.264 . S
C1 C3 1.339 . S
C1 H28 0.931 . S
C2 C3 1.395 . S
C2 C4 1.320 . S
C3 C1 1.339 . S
C3 C2 1.395 . S
C3 H29 0.929 . S
C4 C2 1.320 . S
C4 C5 1.405 . S
C4 H30 0.930 . S
C5 C0 1.479 . S
C5 C4 1.405 . S
C5 H31 0.931 . S
U6 O7 2.454 . S
U6 O8 2.458 . S
U6 C9 2.984 . S
U6 C10 2.847 . S
U6 C23 2.882 . S
U6 O24 2.441 . S
U6 O25 2.420 . S
U6 O26 2.455 . S
U6 O27 2.449 . S
O7 U6 2.454 . S
O7 C9 1.353 . S
O8 U6 2.458 . S
O8 C9 1.286 . S
C9 U6 2.984 . S
C9 O7 1.353 . S
C9 O8 1.286 . S
C9 C11 1.363 . S
C10 C0 1.465 . S
C10 U6 2.847 . S
C10 O24 1.249 . S
C10 O25 1.202 . S
C11 C9 1.363 . S
C11 C13 1.408 . S
C11 C16 1.342 . S
C12 C13 1.310 . S
C12 C15 1.461 . S
C12 H32 0.932 . S
C13 C11 1.408 . S
C13 C12 1.310 . S
C13 H33 0.930 . S
C14 C15 1.474 . S
C14 C16 1.285 . S
C14 H34 0.929 . S
C15 C12 1.461 . S
C15 C14 1.474 . S
C16 C11 1.342 . S
C16 C14 1.285 . S
C16 H35 0.930 . S
C17 C20 1.424 . S
C17 C22 1.245 . S
C17 C23 1.428 . S
C18 C21 1.260 . S
C18 C22 1.477 . S
C18 H36 0.932 . S
C19 C20 1.384 . S
C19 C21 1.479 . S
C19 H37 0.929 . S
C20 C17 1.424 . S
C20 C19 1.384 . S
C20 H38 0.928 . S
C21 C18 1.260 . S
C21 C19 1.479 . S
C22 C17 1.245 . S
C22 C18 1.477 . S
C22 H39 0.932 . S
C23 U6 2.882 . S
C23 C17 1.428 . S
C23 O26 1.301 . S
C23 O27 1.282 . S
O24 U6 2.441 . S
O24 C10 1.249 . S
O25 U6 2.420 . S
O25 C10 1.202 . S
O26 U6 2.455 . S
O26 C23 1.301 . S
O27 U6 2.449 . S
O27 C23 1.282 . S
H28 C1 0.931 . S
H29 C3 0.929 . S
H30 C4 0.930 . S
H31 C5 0.931 . S
H32 C12 0.932 . S
H33 C13 0.930 . S
H34 C14 0.929 . S
H35 C16 0.930 . S
H36 C18 0.932 . S
H37 C19 0.929 . S
H38 C20 0.928 . S
H39 C22 0.932 . S
C40 C41 1.264 . S
C40 C45 1.479 . S
C40 C50 1.465 . S
C41 C40 1.264 . S
C41 C43 1.339 . S
C41 H68 0.931 . S
C42 C43 1.395 . S
C42 C44 1.320 . S
C43 C41 1.339 . S
C43 C42 1.395 . S
C43 H69 0.929 . S
C44 C42 1.320 . S
C44 C45 1.405 . S
C44 H70 0.921 1_455 S
C45 C40 1.479 . S
C45 C44 1.405 . S
C45 H71 0.931 . S
U46 O47 2.454 . S
U46 O48 2.458 . S
U46 C49 2.984 . S
U46 C50 2.847 . S
U46 C63 2.882 . S
U46 O64 2.441 . S
U46 O65 2.420 . S
U46 O66 2.455 . S
U46 O67 2.449 . S
O47 U46 2.454 . S
O47 C49 1.353 . S
O48 U46 2.458 . S
O48 C49 1.286 . S
C49 U46 2.984 . S
C49 O47 1.353 . S
C49 O48 1.286 . S
C49 C51 1.363 . S
C50 C40 1.465 . S
C50 U46 2.847 . S
C50 O64 1.249 . S
C50 O65 1.202 . S
C51 C49 1.363 . S
C51 C53 1.408 . S
C51 C56 1.342 . S
C52 C53 1.310 . S
C52 C55 1.461 . S
C52 H72 0.932 . S
C53 C51 1.408 . S
C53 C52 1.310 . S
C53 H73 0.930 . S
C54 C55 1.474 1_655 S
C54 C56 1.285 1_655 S
C54 H74 0.930 . S
C55 C52 1.461 . S
C55 C54 1.474 1_455 S
C56 C51 1.342 . S
C56 C54 1.285 1_455 S
C56 H75 0.932 . S
C57 C60 1.424 . S
C57 C62 1.245 . S
C57 C63 1.428 . S
C58 C61 1.260 . S
C58 C62 1.477 . S
C58 H76 0.932 . S
C59 C60 1.384 . S
C59 C61 1.479 . S
C59 H77 0.929 . S
C60 C57 1.424 . S
C60 C59 1.384 . S
C60 H78 0.928 . S
C61 C58 1.260 . S
C61 C59 1.479 . S
C62 C57 1.245 . S
C62 C58 1.477 . S
C62 H79 0.932 . S
C63 U46 2.882 . S
C63 C57 1.428 . S
C63 O66 1.301 . S
C63 O67 1.282 . S
O64 U46 2.441 . S
O64 C50 1.249 . S
O65 U46 2.420 . S
O65 C50 1.202 . S
O66 U46 2.455 . S
O66 C63 1.301 . S
O67 U46 2.449 . S
O67 C63 1.282 . S
H68 C41 0.931 . S
H69 C43 0.929 . S
H70 C44 0.921 1_655 S
H71 C45 0.931 . S
H72 C52 0.932 . S
H73 C53 0.930 . S
H74 C54 0.930 . S
H75 C56 0.932 . S
H76 C58 0.932 . S
H77 C59 0.929 . S
H78 C60 0.928 . S
H79 C62 0.932 . S
C80 C81 1.264 . S
C80 C85 1.479 . S
C80 C90 1.465 . S
C81 C80 1.264 . S
C81 C83 1.339 . S
C81 H108 0.931 . S
C82 C83 1.395 . S
C82 C84 1.320 . S
C83 C81 1.339 . S
C83 C82 1.395 . S
C83 H109 0.929 . S
C84 C82 1.320 . S
C84 C85 1.405 . S
C84 H110 0.921 1_545 S
C85 C80 1.479 . S
C85 C84 1.405 . S
C85 H111 0.931 . S
U86 O87 2.454 . S
U86 O88 2.458 . S
U86 C89 2.984 . S
U86 C90 2.847 . S
U86 C103 2.882 . S
U86 O104 2.441 . S
U86 O105 2.420 . S
U86 O106 2.455 . S
U86 O107 2.449 . S
O87 U86 2.454 . S
O87 C89 1.353 . S
O88 U86 2.458 . S
O88 C89 1.286 . S
C89 U86 2.984 . S
C89 O87 1.353 . S
C89 O88 1.286 . S
C89 C91 1.363 . S
C90 C80 1.465 . S
C90 U86 2.847 . S
C90 O104 1.249 . S
C90 O105 1.202 . S
C91 C89 1.363 . S
C91 C93 1.408 . S
C91 C96 1.342 . S
C92 C93 1.310 . S
C92 C95 1.461 . S
C92 H112 0.932 . S
C93 C91 1.408 . S
C93 C92 1.310 . S
C93 H113 0.930 . S
C94 C95 1.474 1_565 S
C94 C96 1.285 1_565 S
C94 H114 0.930 . S
C95 C92 1.461 . S
C95 C94 1.474 1_545 S
C96 C91 1.342 . S
C96 C94 1.285 1_545 S
C96 H115 0.932 . S
C97 C100 1.424 . S
C97 C102 1.245 . S
C97 C103 1.428 . S
C98 C101 1.260 . S
C98 C102 1.477 . S
C98 H116 0.932 . S
C99 C100 1.384 . S
C99 C101 1.479 . S
C99 H117 0.929 . S
C100 C97 1.424 . S
C100 C99 1.384 . S
C100 H118 0.928 . S
C101 C98 1.260 . S
C101 C99 1.479 . S
C102 C97 1.245 . S
C102 C98 1.477 . S
C102 H119 0.932 . S
C103 U86 2.882 . S
C103 C97 1.428 . S
C103 O106 1.301 . S
C103 O107 1.282 . S
O104 U86 2.441 . S
O104 C90 1.249 . S
O105 U86 2.420 . S
O105 C90 1.202 . S
O106 U86 2.455 . S
O106 C103 1.301 . S
O107 U86 2.449 . S
O107 C103 1.282 . S
H108 C81 0.931 . S
H109 C83 0.929 . S
H110 C84 0.921 1_565 S
H111 C85 0.931 . S
H112 C92 0.932 . S
H113 C93 0.930 . S
H114 C94 0.930 . S
H115 C96 0.932 . S
H116 C98 0.932 . S
H117 C99 0.929 . S
H118 C100 0.928 . S
H119 C102 0.932 . S
C120 C121 1.264 . S
C120 C125 1.479 . S
C120 C130 1.465 . S
C121 C120 1.264 . S
C121 C123 1.339 . S
C121 H148 0.931 . S
C122 C123 1.395 . S
C122 C124 1.320 . S
C123 C121 1.339 . S
C123 C122 1.395 . S
C123 H149 0.929 . S
C124 C122 1.320 . S
C124 C125 1.405 . S
C124 H150 0.930 . S
C125 C120 1.479 . S
C125 C124 1.405 . S
C125 H151 0.931 . S
U126 O127 2.454 . S
U126 O128 2.458 . S
U126 C129 2.984 . S
U126 C130 2.847 . S
U126 C143 2.882 . S
U126 O144 2.441 . S
U126 O145 2.420 . S
U126 O146 2.455 . S
U126 O147 2.449 . S
O127 U126 2.454 . S
O127 C129 1.353 . S
O128 U126 2.458 . S
O128 C129 1.286 . S
C129 U126 2.984 . S
C129 O127 1.353 . S
C129 O128 1.286 . S
C129 C131 1.363 . S
C130 C120 1.465 . S
C130 U126 2.847 . S
C130 O144 1.249 . S
C130 O145 1.202 . S
C131 C129 1.363 . S
C131 C133 1.408 . S
C131 C136 1.342 . S
C132 C133 1.310 . S
C132 C135 1.461 . S
C132 H152 0.932 . S
C133 C131 1.408 . S
C133 C132 1.310 . S
C133 H153 0.930 . S
C134 C135 1.474 . S
C134 C136 1.285 . S
C134 H154 0.929 . S
C135 C132 1.461 . S
C135 C134 1.474 . S
C136 C131 1.342 . S
C136 C134 1.285 . S
C136 H155 0.930 . S
C137 C140 1.424 . S
C137 C142 1.245 . S
C137 C143 1.428 . S
C138 C141 1.260 . S
C138 C142 1.477 . S
C138 H156 0.932 . S
C139 C140 1.384 . S
C139 C141 1.479 . S
C139 H157 0.929 . S
C140 C137 1.424 . S
C140 C139 1.384 . S
C140 H158 0.928 . S
C141 C138 1.260 . S
C141 C139 1.479 . S
C142 C137 1.245 . S
C142 C138 1.477 . S
C142 H159 0.932 . S
C143 U126 2.882 . S
C143 C137 1.428 . S
C143 O146 1.301 . S
C143 O147 1.282 . S
O144 U126 2.441 . S
O144 C130 1.249 . S
O145 U126 2.420 . S
O145 C130 1.202 . S
O146 U126 2.455 . S
O146 C143 1.301 . S
O147 U126 2.449 . S
O147 C143 1.282 . S
H148 C121 0.931 . S
H149 C123 0.929 . S
H150 C124 0.930 . S
H151 C125 0.931 . S
H152 C132 0.932 . S
H153 C133 0.930 . S
H154 C134 0.929 . S
H155 C136 0.930 . S
H156 C138 0.932 . S
H157 C139 0.929 . S
H158 C140 0.928 . S
H159 C142 0.932 . S
C160 C161 1.264 . S
C160 C165 1.479 . S
C160 C170 1.465 . S
C161 C160 1.264 . S
C161 C163 1.339 . S
C161 H188 0.931 . S
C162 C163 1.395 . S
C162 C164 1.320 . S
C163 C161 1.339 . S
C163 C162 1.395 . S
C163 H189 0.929 . S
C164 C162 1.320 . S
C164 C165 1.405 . S
C164 H190 0.930 . S
C165 C160 1.479 . S
C165 C164 1.405 . S
C165 H191 0.931 . S
U166 O167 2.454 . S
U166 O168 2.458 . S
U166 C169 2.984 . S
U166 C170 2.847 1_554 S
U166 C183 2.882 . S
U166 O184 2.441 1_554 S
U166 O185 2.420 1_554 S
U166 O186 2.455 . S
U166 O187 2.449 . S
O167 U166 2.454 . S
O167 C169 1.353 . S
O168 U166 2.458 . S
O168 C169 1.286 . S
C169 U166 2.984 . S
C169 O167 1.353 . S
C169 O168 1.286 . S
C169 C171 1.363 . S
C170 C160 1.465 . S
C170 U166 2.847 1_556 S
C170 O184 1.249 . S
C170 O185 1.202 . S
C171 C169 1.363 . S
C171 C173 1.408 . S
C171 C176 1.342 . S
C172 C173 1.310 . S
C172 C175 1.461 . S
C172 H192 0.932 . S
C173 C171 1.408 . S
C173 C172 1.310 . S
C173 H193 0.930 1_554 S
C174 C175 1.474 . S
C174 C176 1.285 . S
C174 H194 0.929 . S
C175 C172 1.461 . S
C175 C174 1.474 . S
C176 C171 1.342 . S
C176 C174 1.285 . S
C176 H195 0.930 . S
C177 C180 1.424 . S
C177 C182 1.245 . S
C177 C183 1.428 . S
C178 C181 1.260 . S
C178 C182 1.477 . S
C178 H196 0.932 . S
C179 C180 1.384 . S
C179 C181 1.479 . S
C179 H197 0.929 . S
C180 C177 1.424 . S
C180 C179 1.384 . S
C180 H198 0.928 . S
C181 C178 1.260 . S
C181 C179 1.479 . S
C182 C177 1.245 . S
C182 C178 1.477 . S
C182 H199 0.932 . S
C183 U166 2.882 . S
C183 C177 1.428 . S
C183 O186 1.301 . S
C183 O187 1.282 . S
O184 U166 2.441 1_556 S
O184 C170 1.249 . S
O185 U166 2.420 1_556 S
O185 C170 1.202 . S
O186 U166 2.455 . S
O186 C183 1.301 . S
O187 U166 2.449 . S
O187 C183 1.282 . S
H188 C161 0.931 . S
H189 C163 0.929 . S
H190 C164 0.930 . S
H191 C165 0.931 . S
H192 C172 0.932 . S
H193 C173 0.930 1_556 S
H194 C174 0.929 . S
H195 C176 0.930 . S
H196 C178 0.932 . S
H197 C179 0.929 . S
H198 C180 0.928 . S
H199 C182 0.932 . S
C200 C201 1.264 . S
C200 C205 1.479 . S
C200 C210 1.465 . S
C201 C200 1.264 . S
C201 C203 1.339 . S
C201 H228 0.931 . S
C202 C203 1.395 . S
C202 C204 1.320 . S
C203 C201 1.339 . S
C203 C202 1.395 . S
C203 H229 0.929 . S
C204 C202 1.320 . S
C204 C205 1.405 . S
C204 H230 0.923 1_455 S
C205 C200 1.479 . S
C205 C204 1.405 . S
C205 H231 0.931 . S
U206 O207 2.454 . S
U206 O208 2.458 . S
U206 C209 2.984 . S
U206 C210 2.847 1_554 S
U206 C223 2.882 . S
U206 O224 2.441 1_554 S
U206 O225 2.420 1_554 S
U206 O226 2.455 . S
U206 O227 2.449 . S
O207 U206 2.454 . S
O207 C209 1.353 . S
O208 U206 2.458 . S
O208 C209 1.286 . S
C209 U206 2.984 . S
C209 O207 1.353 . S
C209 O208 1.286 . S
C209 C211 1.363 . S
C210 C200 1.465 . S
C210 U206 2.847 1_556 S
C210 O224 1.249 . S
C210 O225 1.202 . S
C211 C209 1.363 . S
C211 C213 1.408 . S
C211 C216 1.342 . S
C212 C213 1.310 . S
C212 C215 1.462 . S
C212 H232 0.932 . S
C213 C211 1.408 . S
C213 C212 1.310 . S
C213 H233 0.930 1_554 S
C214 C215 1.474 1_655 S
C214 C216 1.286 1_655 S
C214 H234 0.929 . S
C215 C212 1.462 . S
C215 C214 1.474 1_455 S
C216 C211 1.342 . S
C216 C214 1.286 1_455 S
C216 H235 0.934 . S
C217 C220 1.424 . S
C217 C222 1.245 . S
C217 C223 1.428 . S
C218 C221 1.260 . S
C218 C222 1.477 . S
C218 H236 0.932 . S
C219 C220 1.384 . S
C219 C221 1.479 . S
C219 H237 0.929 . S
C220 C217 1.424 . S
C220 C219 1.384 . S
C220 H238 0.928 . S
C221 C218 1.260 . S
C221 C219 1.479 . S
C222 C217 1.245 . S
C222 C218 1.477 . S
C222 H239 0.932 . S
C223 U206 2.882 . S
C223 C217 1.428 . S
C223 O226 1.301 . S
C223 O227 1.282 . S
O224 U206 2.441 1_556 S
O224 C210 1.249 . S
O225 U206 2.420 1_556 S
O225 C210 1.202 . S
O226 U206 2.455 . S
O226 C223 1.301 . S
O227 U206 2.449 . S
O227 C223 1.282 . S
H228 C201 0.931 . S
H229 C203 0.929 . S
H230 C204 0.923 1_655 S
H231 C205 0.931 . S
H232 C212 0.932 . S
H233 C213 0.930 1_556 S
H234 C214 0.929 . S
H235 C216 0.934 . S
H236 C218 0.932 . S
H237 C219 0.929 . S
H238 C220 0.928 . S
H239 C222 0.932 . S
C240 C241 1.264 . S
C240 C245 1.479 . S
C240 C250 1.465 . S
C241 C240 1.264 . S
C241 C243 1.339 . S
C241 H268 0.931 . S
C242 C243 1.395 . S
C242 C244 1.320 . S
C243 C241 1.339 . S
C243 C242 1.395 . S
C243 H269 0.929 . S
C244 C242 1.320 . S
C244 C245 1.405 . S
C244 H270 0.923 1_545 S
C245 C240 1.479 . S
C245 C244 1.405 . S
C245 H271 0.931 . S
U246 O247 2.454 . S
U246 O248 2.458 . S
U246 C249 2.984 . S
U246 C250 2.847 1_554 S
U246 C263 2.882 . S
U246 O264 2.441 1_554 S
U246 O265 2.420 1_554 S
U246 O266 2.455 . S
U246 O267 2.449 . S
O247 U246 2.454 . S
O247 C249 1.353 . S
O248 U246 2.458 . S
O248 C249 1.286 . S
C249 U246 2.984 . S
C249 O247 1.353 . S
C249 O248 1.286 . S
C249 C251 1.363 . S
C250 C240 1.465 . S
C250 U246 2.847 1_556 S
C250 O264 1.249 . S
C250 O265 1.202 . S
C251 C249 1.363 . S
C251 C253 1.408 . S
C251 C256 1.342 . S
C252 C253 1.310 . S
C252 C255 1.462 . S
C252 H272 0.932 . S
C253 C251 1.408 . S
C253 C252 1.310 . S
C253 H273 0.930 1_554 S
C254 C255 1.474 1_565 S
C254 C256 1.286 1_565 S
C254 H274 0.929 . S
C255 C252 1.462 . S
C255 C254 1.474 1_545 S
C256 C251 1.342 . S
C256 C254 1.286 1_545 S
C256 H275 0.934 . S
C257 C260 1.424 . S
C257 C262 1.245 . S
C257 C263 1.428 . S
C258 C261 1.260 . S
C258 C262 1.477 . S
C258 H276 0.932 . S
C259 C260 1.384 . S
C259 C261 1.479 . S
C259 H277 0.929 . S
C260 C257 1.424 . S
C260 C259 1.384 . S
C260 H278 0.928 . S
C261 C258 1.260 . S
C261 C259 1.479 . S
C262 C257 1.245 . S
C262 C258 1.477 . S
C262 H279 0.932 . S
C263 U246 2.882 . S
C263 C257 1.428 . S
C263 O266 1.301 . S
C263 O267 1.282 . S
O264 U246 2.441 1_556 S
O264 C250 1.249 . S
O265 U246 2.420 1_556 S
O265 C250 1.202 . S
O266 U246 2.455 . S
O266 C263 1.301 . S
O267 U246 2.449 . S
O267 C263 1.282 . S
H268 C241 0.931 . S
H269 C243 0.929 . S
H270 C244 0.923 1_565 S
H271 C245 0.931 . S
H272 C252 0.932 . S
H273 C253 0.930 1_556 S
H274 C254 0.929 . S
H275 C256 0.934 . S
H276 C258 0.932 . S
H277 C259 0.929 . S
H278 C260 0.928 . S
H279 C262 0.932 . S
C280 C281 1.264 . S
C280 C285 1.479 . S
C280 C290 1.465 . S
C281 C280 1.264 . S
C281 C283 1.339 . S
C281 H308 0.931 . S
C282 C283 1.395 . S
C282 C284 1.320 . S
C283 C281 1.339 . S
C283 C282 1.395 . S
C283 H309 0.929 . S
C284 C282 1.320 . S
C284 C285 1.405 . S
C284 H310 0.930 . S
C285 C280 1.479 . S
C285 C284 1.405 . S
C285 H311 0.931 . S
U286 O287 2.454 . S
U286 O288 2.458 . S
U286 C289 2.984 . S
U286 C290 2.847 1_554 S
U286 C303 2.882 . S
U286 O304 2.441 1_554 S
U286 O305 2.420 1_554 S
U286 O306 2.455 . S
U286 O307 2.449 . S
O287 U286 2.454 . S
O287 C289 1.353 . S
O288 U286 2.458 . S
O288 C289 1.286 . S
C289 U286 2.984 . S
C289 O287 1.353 . S
C289 O288 1.286 . S
C289 C291 1.363 . S
C290 C280 1.465 . S
C290 U286 2.847 1_556 S
C290 O304 1.249 . S
C290 O305 1.202 . S
C291 C289 1.363 . S
C291 C293 1.408 . S
C291 C296 1.342 . S
C292 C293 1.310 . S
C292 C295 1.461 . S
C292 H312 0.932 . S
C293 C291 1.408 . S
C293 C292 1.310 . S
C293 H313 0.930 1_554 S
C294 C295 1.474 . S
C294 C296 1.285 . S
C294 H314 0.929 . S
C295 C292 1.461 . S
C295 C294 1.474 . S
C296 C291 1.342 . S
C296 C294 1.285 . S
C296 H315 0.930 . S
C297 C300 1.424 . S
C297 C302 1.245 . S
C297 C303 1.428 . S
C298 C301 1.260 . S
C298 C302 1.477 . S
C298 H316 0.932 . S
C299 C300 1.384 . S
C299 C301 1.479 . S
C299 H317 0.929 . S
C300 C297 1.424 . S
C300 C299 1.384 . S
C300 H318 0.928 . S
C301 C298 1.260 . S
C301 C299 1.479 . S
C302 C297 1.245 . S
C302 C298 1.477 . S
C302 H319 0.932 . S
C303 U286 2.882 . S
C303 C297 1.428 . S
C303 O306 1.301 . S
C303 O307 1.282 . S
O304 U286 2.441 1_556 S
O304 C290 1.249 . S
O305 U286 2.420 1_556 S
O305 C290 1.202 . S
O306 U286 2.455 . S
O306 C303 1.301 . S
O307 U286 2.449 . S
O307 C303 1.282 . S
H308 C281 0.931 . S
H309 C283 0.929 . S
H310 C284 0.930 . S
H311 C285 0.931 . S
H312 C292 0.932 . S
H313 C293 0.930 1_556 S
H314 C294 0.929 . S
H315 C296 0.930 . S
H316 C298 0.932 . S
H317 C299 0.929 . S
H318 C300 0.928 . S
H319 C302 0.932 . S
Sm320 C322 2.846 . S
Sm320 O340 2.543 . S
Sm320 O341 2.450 . S
Sm320 O342 2.681 1_565 S
Sm320 O343 2.464 . S
Sm320 O344 2.396 . S
Sm320 O348 2.386 1_455 S
Sm320 O351 2.408 1_565 S
Sm321 C331 2.846 . S
Sm321 O342 2.386 1_655 S
Sm321 O345 2.408 1_545 S
Sm321 O346 2.543 . S
Sm321 O347 2.450 . S
Sm321 O348 2.681 1_545 S
Sm321 O349 2.464 . S
Sm321 O350 2.396 . S
C322 Sm320 2.846 . S
C322 C323 1.506 . S
C322 O340 1.261 . S
C322 O341 1.242 . S
C323 C322 1.506 . S
C323 C324 1.358 . S
C323 C328 1.382 . S
C324 C323 1.358 . S
C324 C325 1.385 . S
C324 H352 0.930 1_455 S
C325 C324 1.385 . S
C325 C326 1.395 . S
C325 H353 0.929 1_455 S
C326 C325 1.395 . S
C326 C327 1.335 . S
C327 C326 1.335 . S
C327 C328 1.398 . S
C327 H354 0.930 . S
C328 C323 1.382 . S
C328 C327 1.398 . S
C328 H355 0.929 . S
C329 O342 1.256 1_565 S
C329 O343 1.278 . S
C330 O344 1.252 1_655 S
C330 O345 1.272 . S
C331 Sm321 2.846 . S
C331 C332 1.506 . S
C331 O346 1.261 . S
C331 O347 1.242 . S
C332 C331 1.506 . S
C332 C333 1.358 . S
C332 C337 1.382 . S
C333 C332 1.358 . S
C333 C334 1.385 . S
C333 H356 0.930 1_655 S
C334 C333 1.385 . S
C334 C335 1.395 . S
C334 H357 0.929 1_655 S
C335 C334 1.395 . S
C335 C336 1.335 . S
C336 C335 1.335 . S
C336 C337 1.398 . S
C336 H358 0.930 . S
C337 C332 1.382 . S
C337 C336 1.398 . S
C337 H359 0.929 . S
C338 O348 1.271 1_545 S
C338 O349 1.251 . S
C339 O350 1.252 1_455 S
C339 O351 1.272 . S
O340 Sm320 2.543 . S
O340 C322 1.261 . S
O341 Sm320 2.450 . S
O341 C322 1.242 . S
O342 Sm320 2.681 1_545 S
O342 Sm321 2.386 1_455 S
O342 C329 1.256 1_545 S
O343 Sm320 2.464 . S
O343 C329 1.278 . S
O344 Sm320 2.396 . S
O344 C330 1.252 1_455 S
O345 Sm321 2.408 1_565 S
O345 C330 1.272 . S
O346 Sm321 2.543 . S
O346 C331 1.261 . S
O347 Sm321 2.450 . S
O347 C331 1.242 . S
O348 Sm320 2.386 1_655 S
O348 Sm321 2.681 1_565 S
O348 C338 1.271 1_565 S
O349 Sm321 2.464 . S
O349 C338 1.251 . S
O350 Sm321 2.396 . S
O350 C339 1.252 1_655 S
O351 Sm320 2.408 1_545 S
O351 C339 1.272 . S
H352 C324 0.930 1_655 S
H353 C325 0.929 1_655 S
H354 C327 0.930 . S
H355 C328 0.929 . S
H356 C333 0.930 1_455 S
H357 C334 0.929 1_455 S
H358 C336 0.930 . S
H359 C337 0.929 . S
Sm360 C362 2.846 . S
Sm360 O380 2.543 . S
Sm360 O381 2.450 . S
Sm360 O382 2.681 . S
Sm360 O383 2.464 . S
Sm360 O384 2.396 . S
Sm360 O388 2.386 1_545 S
Sm360 O391 2.408 . S
Sm361 C371 2.846 . S
Sm361 O382 2.386 1_565 S
Sm361 O385 2.408 . S
Sm361 O386 2.543 . S
Sm361 O387 2.450 . S
Sm361 O388 2.681 . S
Sm361 O389 2.464 . S
Sm361 O390 2.396 . S
C362 Sm360 2.846 . S
C362 C363 1.506 . S
C362 O380 1.261 . S
C362 O381 1.242 . S
C363 C362 1.506 . S
C363 C364 1.358 . S
C363 C368 1.382 . S
C364 C363 1.358 . S
C364 C365 1.385 . S
C364 H392 0.930 1_545 S
C365 C364 1.385 . S
C365 C366 1.395 . S
C365 H393 0.929 1_545 S
C366 C365 1.395 . S
C366 C367 1.335 . S
C367 C366 1.335 . S
C367 C368 1.398 . S
C367 H394 0.930 . S
C368 C363 1.382 . S
C368 C367 1.398 . S
C368 H395 0.929 . S
C369 O382 1.271 . S
C369 O383 1.251 . S
C370 O384 1.252 1_565 S
C370 O385 1.272 . S
C371 Sm361 2.846 . S
C371 C372 1.506 . S
C371 O386 1.261 . S
C371 O387 1.242 . S
C372 C371 1.506 . S
C372 C373 1.358 . S
C372 C377 1.382 . S
C373 C372 1.358 . S
C373 C374 1.385 . S
C373 H396 0.930 1_565 S
C374 C373 1.385 . S
C374 C375 1.395 . S
C374 H397 0.929 1_565 S
C375 C374 1.395 . S
C375 C376 1.335 . S
C376 C375 1.335 . S
C376 C377 1.398 . S
C376 H398 0.930 . S
C377 C372 1.382 . S
C377 C376 1.398 . S
C377 H399 0.929 . S
C378 O388 1.271 . S
C378 O389 1.251 . S
C379 O390 1.252 1_545 S
C379 O391 1.272 . S
O380 Sm360 2.543 . S
O380 C362 1.261 . S
O381 Sm360 2.450 . S
O381 C362 1.242 . S
O382 Sm360 2.681 . S
O382 Sm361 2.386 1_545 S
O382 C369 1.271 . S
O383 Sm360 2.464 . S
O383 C369 1.251 . S
O384 Sm360 2.396 . S
O384 C370 1.252 1_545 S
O385 Sm361 2.408 . S
O385 C370 1.272 . S
O386 Sm361 2.543 . S
O386 C371 1.261 . S
O387 Sm361 2.450 . S
O387 C371 1.242 . S
O388 Sm360 2.386 1_565 S
O388 Sm361 2.681 . S
O388 C378 1.271 . S
O389 Sm361 2.464 . S
O389 C378 1.251 . S
O390 Sm361 2.396 . S
O390 C379 1.252 1_565 S
O391 Sm360 2.408 . S
O391 C379 1.272 . S
H392 C364 0.930 1_565 S
H393 C365 0.929 1_565 S
H394 C367 0.930 . S
H395 C368 0.929 . S
H396 C373 0.930 1_545 S
H397 C374 0.929 1_545 S
H398 C376 0.930 . S
H399 C377 0.929 . S
Sm400 C402 2.846 . S
Sm400 O420 2.543 . S
Sm400 O421 2.450 . S
Sm400 O422 2.681 . S
Sm400 O423 2.464 . S
Sm400 O424 2.396 . S
Sm400 O428 2.386 . S
Sm400 O431 2.408 . S
Sm401 C411 2.846 . S
Sm401 O422 2.386 . S
Sm401 O425 2.408 . S
Sm401 O426 2.543 . S
Sm401 O427 2.450 . S
Sm401 O428 2.681 . S
Sm401 O429 2.464 . S
Sm401 O430 2.396 . S
C402 Sm400 2.846 . S
C402 C403 1.506 . S
C402 O420 1.261 . S
C402 O421 1.242 . S
C403 C402 1.506 . S
C403 C404 1.358 . S
C403 C408 1.382 . S
C404 C403 1.358 . S
C404 C405 1.385 . S
C404 H432 0.930 . S
C405 C404 1.385 . S
C405 C406 1.395 . S
C405 H433 0.929 . S
C406 C405 1.395 . S
C406 C407 1.335 . S
C407 C406 1.335 . S
C407 C408 1.398 . S
C407 H434 0.930 . S
C408 C403 1.382 . S
C408 C407 1.398 . S
C408 H435 0.929 . S
C409 O422 1.271 . S
C409 O423 1.251 . S
C410 O424 1.252 . S
C410 O425 1.272 . S
C411 Sm401 2.846 . S
C411 C412 1.506 . S
C411 O426 1.261 . S
C411 O427 1.242 . S
C412 C411 1.506 . S
C412 C413 1.358 . S
C412 C417 1.382 . S
C413 C412 1.358 . S
C413 C414 1.385 . S
C413 H436 0.930 . S
C414 C413 1.385 . S
C414 C415 1.395 . S
C414 H437 0.929 . S
C415 C414 1.395 . S
C415 C416 1.335 . S
C416 C415 1.335 . S
C416 C417 1.398 . S
C416 H438 0.930 . S
C417 C412 1.382 . S
C417 C416 1.398 . S
C417 H439 0.929 . S
C418 O428 1.271 . S
C418 O429 1.251 . S
C419 O430 1.252 . S
C419 O431 1.272 . S
O420 Sm400 2.543 . S
O420 C402 1.261 . S
O421 Sm400 2.450 . S
O421 C402 1.242 . S
O422 Sm400 2.681 . S
O422 Sm401 2.386 . S
O422 C409 1.271 . S
O423 Sm400 2.464 . S
O423 C409 1.251 . S
O424 Sm400 2.396 . S
O424 C410 1.252 . S
O425 Sm401 2.408 . S
O425 C410 1.272 . S
O426 Sm401 2.543 . S
O426 C411 1.261 . S
O427 Sm401 2.450 . S
O427 C411 1.242 . S
O428 Sm400 2.386 . S
O428 Sm401 2.681 . S
O428 C418 1.271 . S
O429 Sm401 2.464 . S
O429 C418 1.251 . S
O430 Sm401 2.396 . S
O430 C419 1.252 . S
O431 Sm400 2.408 . S
O431 C419 1.272 . S
H432 C404 0.930 . S
H433 C405 0.929 . S
H434 C407 0.930 . S
H435 C408 0.929 . S
H436 C413 0.930 . S
H437 C414 0.929 . S
H438 C416 0.930 . S
H439 C417 0.929 . S
Sm440 C442 2.846 . S
Sm440 O460 2.543 . S
Sm440 O461 2.450 . S
Sm440 O462 2.681 1_655 S
Sm440 O463 2.464 . S
Sm440 O464 2.396 . S
Sm440 O468 2.386 . S
Sm440 O471 2.408 1_655 S
Sm441 C451 2.846 . S
Sm441 O462 2.386 . S
Sm441 O465 2.408 1_455 S
Sm441 O466 2.543 . S
Sm441 O467 2.450 . S
Sm441 O468 2.681 1_455 S
Sm441 O469 2.464 . S
Sm441 O470 2.396 . S
C442 Sm440 2.846 . S
C442 C443 1.506 . S
C442 O460 1.261 . S
C442 O461 1.242 . S
C443 C442 1.506 . S
C443 C444 1.358 . S
C443 C448 1.382 . S
C444 C443 1.358 . S
C444 C445 1.385 . S
C444 H472 0.930 . S
C445 C444 1.385 . S
C445 C446 1.395 . S
C445 H473 0.929 . S
C446 C445 1.395 . S
C446 C447 1.335 . S
C447 C446 1.335 . S
C447 C448 1.398 . S
C447 H474 0.930 . S
C448 C443 1.382 . S
C448 C447 1.398 . S
C448 H475 0.929 . S
C449 O462 1.257 1_655 S
C449 O463 1.276 . S
C450 O464 1.252 . S
C450 O465 1.272 . S
C451 Sm441 2.846 . S
C451 C452 1.506 . S
C451 O466 1.261 . S
C451 O467 1.242 . S
C452 C451 1.506 . S
C452 C453 1.358 . S
C452 C457 1.382 . S
C453 C452 1.358 . S
C453 C454 1.385 . S
C453 H476 0.930 . S
C454 C453 1.385 . S
C454 C455 1.395 . S
C454 H477 0.929 . S
C455 C454 1.395 . S
C455 C456 1.335 . S
C456 C455 1.335 . S
C456 C457 1.398 . S
C456 H478 0.930 . S
C457 C452 1.382 . S
C457 C456 1.398 . S
C457 H479 0.929 . S
C458 O468 1.271 1_455 S
C458 O469 1.251 . S
C459 O470 1.252 . S
C459 O471 1.272 . S
O460 Sm440 2.543 . S
O460 C442 1.261 . S
O461 Sm440 2.450 . S
O461 C442 1.242 . S
O462 Sm440 2.681 1_455 S
O462 Sm441 2.386 . S
O462 C449 1.257 1_455 S
O463 Sm440 2.464 . S
O463 C449 1.276 . S
O464 Sm440 2.396 . S
O464 C450 1.252 . S
O465 Sm441 2.408 1_655 S
O465 C450 1.272 . S
O466 Sm441 2.543 . S
O466 C451 1.261 . S
O467 Sm441 2.450 . S
O467 C451 1.242 . S
O468 Sm440 2.386 . S
O468 Sm441 2.681 1_655 S
O468 C458 1.271 1_655 S
O469 Sm441 2.464 . S
O469 C458 1.251 . S
O470 Sm441 2.396 . S
O470 C459 1.252 . S
O471 Sm440 2.408 1_455 S
O471 C459 1.272 . S
H472 C444 0.930 . S
H473 C445 0.929 . S
H474 C447 0.930 . S
H475 C448 0.929 . S
H476 C453 0.930 . S
H477 C454 0.929 . S
H478 C456 0.930 . S
H479 C457 0.929 . S
C480 C481 1.391 . S
C480 C482 1.394 . S
C480 H496 0.931 . S
C481 C480 1.391 . S
C481 C485 1.376 1_565 S
C482 C480 1.394 . S
C482 C483 1.369 . S
C482 C486 1.531 . S
C483 C482 1.369 . S
C483 C484 1.410 1_565 S
C483 C491 1.503 . S
C484 C483 1.410 1_545 S
C484 C485 1.392 . S
C484 C487 1.511 . S
C485 C481 1.376 1_545 S
C485 C484 1.392 . S
C485 H497 0.929 . S
C486 C482 1.531 . S
C486 H498 0.960 . S
C486 H499 0.962 . S
C486 H500 0.960 . S
C487 C484 1.511 . S
C487 H501 0.961 . S
C487 H502 0.961 . S
C487 H503 0.961 . S
C488 C489 1.394 . S
C488 C490 1.363 . S
C488 H504 0.931 . S
C489 C488 1.394 . S
C489 C493 1.382 1_545 S
C490 C488 1.363 . S
C490 C491 1.370 1_545 S
C490 C494 1.524 . S
C491 C483 1.503 . S
C491 C490 1.370 1_565 S
C491 C492 1.403 . S
C492 C491 1.403 . S
C492 C493 1.404 . S
C492 C495 1.539 . S
C493 C489 1.382 1_565 S
C493 C492 1.404 . S
C493 H505 0.930 . S
C494 C490 1.524 . S
C494 H506 0.956 . S
C494 H507 0.961 . S
C494 H508 0.961 . S
C495 C492 1.539 . S
C495 H509 0.958 . S
C495 H510 0.961 . S
C495 H511 0.960 . S
H496 C480 0.931 . S
H497 C485 0.929 . S
H498 C486 0.960 . S
H499 C486 0.962 . S
H500 C486 0.960 . S
H501 C487 0.961 . S
H502 C487 0.961 . S
H503 C487 0.961 . S
H504 C488 0.931 . S
H505 C493 0.930 . S
H506 C494 0.956 . S
H507 C494 0.961 . S
H508 C494 0.961 . S
H509 C495 0.958 . S
H510 C495 0.961 . S
H511 C495 0.960 . S
C512 C513 1.391 . S
C512 C514 1.394 . S
C512 H528 0.931 . S
C513 C512 1.391 . S
C513 C517 1.376 . S
C514 C512 1.394 . S
C514 C515 1.369 . S
C514 C518 1.531 . S
C515 C514 1.369 . S
C515 C516 1.410 . S
C515 C523 1.503 . S
C516 C515 1.410 . S
C516 C517 1.392 . S
C516 C519 1.511 . S
C517 C513 1.376 . S
C517 C516 1.392 . S
C517 H529 0.929 . S
C518 C514 1.531 . S
C518 H530 0.960 . S
C518 H531 0.962 . S
C518 H532 0.960 . S
C519 C516 1.511 . S
C519 H533 0.961 . S
C519 H534 0.961 . S
C519 H535 0.961 . S
C520 C521 1.370 . S
C520 C522 1.363 . S
C520 H536 0.931 . S
C521 C520 1.370 . S
C521 C525 1.408 . S
C522 C520 1.363 . S
C522 C523 1.370 . S
C522 C526 1.524 . S
C523 C515 1.503 . S
C523 C522 1.370 . S
C523 C524 1.403 . S
C524 C523 1.403 . S
C524 C525 1.404 . S
C524 C527 1.539 . S
C525 C521 1.408 . S
C525 C524 1.404 . S
C525 H537 0.930 . S
C526 C522 1.524 . S
C526 H538 0.956 . S
C526 H539 0.961 . S
C526 H540 0.961 . S
C527 C524 1.539 . S
C527 H541 0.958 . S
C527 H542 0.961 . S
C527 H543 0.960 . S
H528 C512 0.931 . S
H529 C517 0.929 . S
H530 C518 0.960 . S
H531 C518 0.962 . S
H532 C518 0.960 . S
H533 C519 0.961 . S
H534 C519 0.961 . S
H535 C519 0.961 . S
H536 C520 0.931 . S
H537 C525 0.930 . S
H538 C526 0.956 . S
H539 C526 0.961 . S
H540 C526 0.961 . S
H541 C527 0.958 . S
H542 C527 0.961 . S
H543 C527 0.960 . S
C544 C545 1.391 . S
C544 C546 1.394 . S
C544 H560 0.931 . S
C545 C544 1.391 . S
C545 C549 1.376 . S
C546 C544 1.394 . S
C546 C547 1.369 . S
C546 C550 1.531 . S
C547 C546 1.369 . S
C547 C548 1.410 . S
C547 C555 1.503 . S
C548 C547 1.410 . S
C548 C549 1.392 . S
C548 C551 1.511 . S
C549 C545 1.376 . S
C549 C548 1.392 . S
C549 H561 0.929 . S
C550 C546 1.531 . S
C550 H562 0.960 . S
C550 H563 0.962 . S
C550 H564 0.960 . S
C551 C548 1.511 . S
C551 H565 0.961 . S
C551 H566 0.961 . S
C551 H567 0.961 . S
C552 C553 1.370 . S
C552 C554 1.363 . S
C552 H568 0.931 . S
C553 C552 1.370 . S
C553 C557 1.408 . S
C554 C552 1.363 . S
C554 C555 1.370 . S
C554 C558 1.524 . S
C555 C547 1.503 . S
C555 C554 1.370 . S
C555 C556 1.403 . S
C556 C555 1.403 . S
C556 C557 1.404 . S
C556 C559 1.539 . S
C557 C553 1.408 . S
C557 C556 1.404 . S
C557 H569 0.930 . S
C558 C554 1.524 . S
C558 H570 0.956 . S
C558 H571 0.961 . S
C558 H572 0.961 . S
C559 C556 1.539 . S
C559 H573 0.958 . S
C559 H574 0.961 . S
C559 H575 0.960 . S
H560 C544 0.931 . S
H561 C549 0.929 . S
H562 C550 0.960 . S
H563 C550 0.962 . S
H564 C550 0.960 . S
H565 C551 0.961 . S
H566 C551 0.961 . S
H567 C551 0.961 . S
H568 C552 0.931 . S
H569 C557 0.930 . S
H570 C558 0.956 . S
H571 C558 0.961 . S
H572 C558 0.961 . S
H573 C559 0.958 . S
H574 C559 0.961 . S
H575 C559 0.960 . S
C576 C577 1.359 1_455 S
C576 C578 1.394 . S
C576 H592 0.931 . S
C577 C576 1.359 1_655 S
C577 C581 1.412 . S
C578 C576 1.394 . S
C578 C579 1.369 1_455 S
C578 C582 1.531 . S
C579 C578 1.369 1_655 S
C579 C580 1.410 . S
C579 C587 1.503 . S
C580 C579 1.410 . S
C580 C581 1.392 . S
C580 C583 1.511 . S
C581 C577 1.412 . S
C581 C580 1.392 . S
C581 H593 0.929 . S
C582 C578 1.531 . S
C582 H594 0.960 . S
C582 H595 0.962 . S
C582 H596 0.960 . S
C583 C580 1.511 . S
C583 H597 0.961 . S
C583 H598 0.961 . S
C583 H599 0.961 . S
C584 C585 1.391 . S
C584 C586 1.363 . S
C584 H600 0.931 . S
C585 C584 1.391 . S
C585 C589 1.386 1_455 S
C586 C584 1.363 . S
C586 C587 1.370 1_455 S
C586 C590 1.524 . S
C587 C579 1.503 . S
C587 C586 1.370 1_655 S
C587 C588 1.403 . S
C588 C587 1.403 . S
C588 C589 1.404 . S
C588 C591 1.539 . S
C589 C585 1.386 1_655 S
C589 C588 1.404 . S
C589 H601 0.930 . S
C590 C586 1.524 . S
C590 H602 0.956 . S
C590 H603 0.961 . S
C590 H604 0.961 . S
C591 C588 1.539 . S
C591 H605 0.958 . S
C591 H606 0.961 . S
C591 H607 0.960 . S
H592 C576 0.931 . S
H593 C581 0.929 . S
H594 C582 0.960 . S
H595 C582 0.962 . S
H596 C582 0.960 . S
H597 C583 0.961 . S
H598 C583 0.961 . S
H599 C583 0.961 . S
H600 C584 0.931 . S
H601 C589 0.930 . S
H602 C590 0.956 . S
H603 C590 0.961 . S
H604 C590 0.961 . S
H605 C591 0.958 . S
H606 C591 0.961 . S
H607 C591 0.960 . S
C608 C609 1.391 . S
C608 C610 1.394 . S
C608 H624 0.931 . S
C609 C608 1.391 . S
C609 C613 1.376 1_545 S
C610 C608 1.394 . S
C610 C611 1.369 . S
C610 C614 1.531 1_554 S
C611 C610 1.369 . S
C611 C612 1.410 1_545 S
C611 C619 1.503 1_554 S
C612 C611 1.410 1_565 S
C612 C613 1.392 . S
C612 C615 1.511 . S
C613 C609 1.376 1_565 S
C613 C612 1.392 . S
C613 H625 0.929 . S
C614 C610 1.531 1_556 S
C614 H626 0.960 . S
C614 H627 0.962 . S
C614 H628 0.960 1_556 S
C615 C612 1.511 . S
C615 H629 0.961 . S
C615 H630 0.961 . S
C615 H631 0.961 . S
C616 C617 1.384 . S
C616 C618 1.363 . S
C616 H632 0.931 . S
C617 C616 1.384 . S
C617 C621 1.393 1_565 S
C618 C616 1.363 . S
C618 C619 1.370 1_565 S
C618 C622 1.524 . S
C619 C611 1.503 1_556 S
C619 C618 1.370 1_545 S
C619 C620 1.403 . S
C620 C619 1.403 . S
C620 C621 1.404 . S
C620 C623 1.539 . S
C621 C617 1.393 1_545 S
C621 C620 1.404 . S
C621 H633 0.930 . S
C622 C618 1.524 . S
C622 H634 0.956 . S
C622 H635 0.961 . S
C622 H636 0.961 . S
C623 C620 1.539 . S
C623 H637 0.958 . S
C623 H638 0.961 . S
C623 H639 0.960 1_556 S
H624 C608 0.931 . S
H625 C613 0.929 . S
H626 C614 0.960 . S
H627 C614 0.962 . S
H628 C614 0.960 1_554 S
H629 C615 0.961 . S
H630 C615 0.961 . S
H631 C615 0.961 . S
H632 C616 0.931 . S
H633 C621 0.930 . S
H634 C622 0.956 . S
H635 C622 0.961 . S
H636 C622 0.961 . S
H637 C623 0.958 . S
H638 C623 0.961 . S
H639 C623 0.960 1_554 S
C640 C641 1.391 . S
C640 C642 1.394 . S
C640 H656 0.931 . S
C641 C640 1.391 . S
C641 C645 1.376 . S
C642 C640 1.394 . S
C642 C643 1.369 . S
C642 C646 1.531 . S
C643 C642 1.369 . S
C643 C644 1.410 . S
C643 C651 1.503 1_554 S
C644 C643 1.410 . S
C644 C645 1.392 . S
C644 C647 1.511 . S
C645 C641 1.376 . S
C645 C644 1.392 . S
C645 H657 0.929 . S
C646 C642 1.531 . S
C646 H658 0.960 . S
C646 H659 0.962 . S
C646 H660 0.960 . S
C647 C644 1.511 . S
C647 H661 0.961 . S
C647 H662 0.961 1_554 S
C647 H663 0.961 . S
C648 C649 1.370 . S
C648 C650 1.363 . S
C648 H664 0.931 . S
C649 C648 1.370 . S
C649 C653 1.408 . S
C650 C648 1.363 . S
C650 C651 1.370 . S
C650 C654 1.524 . S
C651 C643 1.503 1_556 S
C651 C650 1.370 . S
C651 C652 1.403 . S
C652 C651 1.403 . S
C652 C653 1.404 . S
C652 C655 1.539 1_556 S
C653 C649 1.408 . S
C653 C652 1.404 . S
C653 H665 0.930 . S
C654 C650 1.524 . S
C654 H666 0.956 . S
C654 H667 0.961 . S
C654 H668 0.961 . S
C655 C652 1.539 1_554 S
C655 H669 0.958 . S
C655 H670 0.961 1_554 S
C655 H671 0.960 . S
H656 C640 0.931 . S
H657 C645 0.929 . S
H658 C646 0.960 . S
H659 C646 0.962 . S
H660 C646 0.960 . S
H661 C647 0.961 . S
H662 C647 0.961 1_556 S
H663 C647 0.961 . S
H664 C648 0.931 . S
H665 C653 0.930 . S
H666 C654 0.956 . S
H667 C654 0.961 . S
H668 C654 0.961 . S
H669 C655 0.958 . S
H670 C655 0.961 1_556 S
H671 C655 0.960 . S
C672 C673 1.391 . S
C672 C674 1.394 . S
C672 H688 0.931 . S
C673 C672 1.391 . S
C673 C677 1.376 . S
C674 C672 1.394 . S
C674 C675 1.369 . S
C674 C678 1.531 1_554 S
C675 C674 1.369 . S
C675 C676 1.410 . S
C675 C683 1.503 1_554 S
C676 C675 1.410 . S
C676 C677 1.392 . S
C676 C679 1.511 . S
C677 C673 1.376 . S
C677 C676 1.392 . S
C677 H689 0.929 . S
C678 C674 1.531 1_556 S
C678 H690 0.960 . S
C678 H691 0.962 . S
C678 H692 0.960 1_556 S
C679 C676 1.511 . S
C679 H693 0.961 . S
C679 H694 0.961 . S
C679 H695 0.961 . S
C680 C681 1.370 . S
C680 C682 1.363 . S
C680 H696 0.931 . S
C681 C680 1.370 . S
C681 C685 1.408 . S
C682 C680 1.363 . S
C682 C683 1.370 . S
C682 C686 1.524 . S
C683 C675 1.503 1_556 S
C683 C682 1.370 . S
C683 C684 1.403 . S
C684 C683 1.403 . S
C684 C685 1.404 . S
C684 C687 1.539 . S
C685 C681 1.408 . S
C685 C684 1.404 . S
C685 H697 0.930 . S
C686 C682 1.524 . S
C686 H698 0.956 . S
C686 H699 0.961 . S
C686 H700 0.961 . S
C687 C684 1.539 . S
C687 H701 0.958 . S
C687 H702 0.961 . S
C687 H703 0.960 1_556 S
H688 C672 0.931 . S
H689 C677 0.929 . S
H690 C678 0.960 . S
H691 C678 0.962 . S
H692 C678 0.960 1_554 S
H693 C679 0.961 . S
H694 C679 0.961 . S
H695 C679 0.961 . S
H696 C680 0.931 . S
H697 C685 0.930 . S
H698 C686 0.956 . S
H699 C686 0.961 . S
H700 C686 0.961 . S
H701 C687 0.958 . S
H702 C687 0.961 . S
H703 C687 0.960 1_554 S
C704 C705 1.369 1_655 S
C704 C706 1.394 . S
C704 H720 0.931 . S
C705 C704 1.369 1_455 S
C705 C709 1.399 . S
C706 C704 1.394 . S
C706 C707 1.369 1_655 S
C706 C710 1.531 . S
C707 C706 1.369 1_455 S
C707 C708 1.410 . S
C707 C715 1.505 1_554 S
C708 C707 1.410 . S
C708 C709 1.392 . S
C708 C711 1.511 . S
C709 C705 1.399 . S
C709 C708 1.392 . S
C709 H721 0.929 . S
C710 C706 1.531 . S
C710 H722 0.960 1_554 S
C710 H723 0.962 . S
C710 H724 0.960 . S
C711 C708 1.511 . S
C711 H725 0.961 . S
C711 H726 0.961 . S
C711 H727 0.961 . S
C712 C713 1.389 . S
C712 C714 1.363 . S
C712 H728 0.931 . S
C713 C712 1.389 . S
C713 C717 1.390 1_655 S
C714 C712 1.363 . S
C714 C715 1.356 1_655 S
C714 C718 1.524 1_556 S
C715 C707 1.505 1_556 S
C715 C714 1.356 1_455 S
C715 C716 1.416 . S
C716 C715 1.416 . S
C716 C717 1.404 . S
C716 C719 1.539 . S
C717 C713 1.390 1_455 S
C717 C716 1.404 . S
C717 H729 0.930 . S
C718 C714 1.524 1_554 S
C718 H730 0.956 . S
C718 H731 0.961 . S
C718 H732 0.961 . S
C719 C716 1.539 . S
C719 H733 0.958 . S
C719 H734 0.961 . S
C719 H735 0.960 . S
H720 C704 0.931 . S
H721 C709 0.929 . S
H722 C710 0.960 1_556 S
H723 C710 0.962 . S
H724 C710 0.960 . S
H725 C711 0.961 . S
H726 C711 0.961 . S
H727 C711 0.961 . S
H728 C712 0.931 . S
H729 C717 0.930 . S
H730 C718 0.956 . S
H731 C718 0.961 . S
H732 C718 0.961 . S
H733 C719 0.958 . S
H734 C719 0.961 . S
H735 C719 0.960 . S
C736 C737 1.391 . S
C736 C738 1.394 . S
C736 H752 0.931 . S
C737 C736 1.391 . S
C737 C741 1.376 1_455 S
C738 C736 1.394 . S
C738 C739 1.369 1_455 S
C738 C742 1.531 . S
C739 C738 1.369 1_655 S
C739 C740 1.410 . S
C739 C747 1.503 . S
C740 C739 1.410 . S
C740 C741 1.392 . S
C740 C743 1.511 . S
C741 C737 1.376 1_655 S
C741 C740 1.392 . S
C741 H753 0.929 . S
C742 C738 1.531 . S
C742 H754 0.960 . S
C742 H755 0.962 . S
C742 H756 0.960 . S
C743 C740 1.511 . S
C743 H757 0.961 . S
C743 H758 0.961 . S
C743 H759 0.961 . S
C744 C745 1.370 . S
C744 C746 1.363 . S
C744 H760 0.931 . S
C745 C744 1.370 . S
C745 C749 1.408 . S
C746 C744 1.363 . S
C746 C747 1.370 . S
C746 C750 1.524 . S
C747 C739 1.503 . S
C747 C746 1.370 . S
C747 C748 1.403 . S
C748 C747 1.403 . S
C748 C749 1.404 . S
C748 C751 1.539 . S
C749 C745 1.408 . S
C749 C748 1.404 . S
C749 H761 0.930 . S
C750 C746 1.524 . S
C750 H762 0.956 1_655 S
C750 H763 0.961 . S
C750 H764 0.961 . S
C751 C748 1.539 . S
C751 H765 0.958 . S
C751 H766 0.961 . S
C751 H767 0.960 . S
H752 C736 0.931 . S
H753 C741 0.929 . S
H754 C742 0.960 . S
H755 C742 0.962 . S
H756 C742 0.960 . S
H757 C743 0.961 . S
H758 C743 0.961 . S
H759 C743 0.961 . S
H760 C744 0.931 . S
H761 C749 0.930 . S
H762 C750 0.956 1_455 S
H763 C750 0.961 . S
H764 C750 0.961 . S
H765 C751 0.958 . S
H766 C751 0.961 . S
H767 C751 0.960 . S
C768 C769 1.391 1_565 S
C768 C770 1.394 . S
C768 H784 0.931 . S
C769 C768 1.391 1_545 S
C769 C773 1.376 . S
C770 C768 1.394 . S
C770 C771 1.369 . S
C770 C774 1.531 . S
C771 C770 1.369 . S
C771 C772 1.410 1_565 S
C771 C779 1.503 . S
C772 C771 1.410 1_545 S
C772 C773 1.392 . S
C772 C775 1.511 . S
C773 C769 1.376 . S
C773 C772 1.392 . S
C773 H785 0.929 . S
C774 C770 1.531 . S
C774 H786 0.960 . S
C774 H787 0.962 . S
C774 H788 0.960 . S
C775 C772 1.511 . S
C775 H789 0.961 . S
C775 H790 0.961 . S
C775 H791 0.961 . S
C776 C777 1.370 . S
C776 C778 1.363 . S
C776 H792 0.931 . S
C777 C776 1.370 . S
C777 C781 1.408 . S
C778 C776 1.363 . S
C778 C779 1.370 . S
C778 C782 1.524 . S
C779 C771 1.503 . S
C779 C778 1.370 . S
C779 C780 1.403 . S
C780 C779 1.403 . S
C780 C781 1.404 . S
C780 C783 1.539 . S
C781 C777 1.408 . S
C781 C780 1.404 . S
C781 H793 0.930 . S
C782 C778 1.524 . S
C782 H794 0.956 . S
C782 H795 0.961 1_565 S
C782 H796 0.961 . S
C783 C780 1.539 . S
C783 H797 0.958 . S
C783 H798 0.961 . S
C783 H799 0.960 . S
H784 C768 0.931 . S
H785 C773 0.929 . S
H786 C774 0.960 . S
H787 C774 0.962 . S
H788 C774 0.960 . S
H789 C775 0.961 . S
H790 C775 0.961 . S
H791 C775 0.961 . S
H792 C776 0.931 . S
H793 C781 0.930 . S
H794 C782 0.956 . S
H795 C782 0.961 1_545 S
H796 C782 0.961 . S
H797 C783 0.958 . S
H798 C783 0.961 . S
H799 C783 0.960 . S
C800 C801 1.391 . S
C800 C802 1.394 . S
C800 H816 0.931 . S
C801 C800 1.391 . S
C801 C805 1.376 . S
C802 C800 1.394 . S
C802 C803 1.369 . S
C802 C806 1.531 . S
C803 C802 1.369 . S
C803 C804 1.410 . S
C803 C811 1.503 . S
C804 C803 1.410 . S
C804 C805 1.392 . S
C804 C807 1.511 . S
C805 C801 1.376 . S
C805 C804 1.392 . S
C805 H817 0.929 . S
C806 C802 1.531 . S
C806 H818 0.960 . S
C806 H819 0.962 . S
C806 H820 0.960 . S
C807 C804 1.511 . S
C807 H821 0.961 . S
C807 H822 0.961 . S
C807 H823 0.961 . S
C808 C809 1.370 . S
C808 C810 1.363 . S
C808 H824 0.931 . S
C809 C808 1.370 . S
C809 C813 1.408 . S
C810 C808 1.363 . S
C810 C811 1.370 . S
C810 C814 1.524 . S
C811 C803 1.503 . S
C811 C810 1.370 . S
C811 C812 1.403 . S
C812 C811 1.403 . S
C812 C813 1.404 . S
C812 C815 1.539 . S
C813 C809 1.408 . S
C813 C812 1.404 . S
C813 H825 0.930 . S
C814 C810 1.524 . S
C814 H826 0.956 . S
C814 H827 0.961 . S
C814 H828 0.961 . S
C815 C812 1.539 . S
C815 H829 0.958 . S
C815 H830 0.961 . S
C815 H831 0.960 . S
H816 C800 0.931 . S
H817 C805 0.929 . S
H818 C806 0.960 . S
H819 C806 0.962 . S
H820 C806 0.960 . S
H821 C807 0.961 . S
H822 C807 0.961 . S
H823 C807 0.961 . S
H824 C808 0.931 . S
H825 C813 0.930 . S
H826 C814 0.956 . S
H827 C814 0.961 . S
H828 C814 0.961 . S
H829 C815 0.958 . S
H830 C815 0.961 . S
H831 C815 0.960 . S
C832 C833 1.391 . S
C832 C834 1.394 . S
C832 H848 0.931 . S
C833 C832 1.391 . S
C833 C837 1.376 . S
C834 C832 1.394 . S
C834 C835 1.369 . S
C834 C838 1.531 . S
C835 C834 1.369 . S
C835 C836 1.410 . S
C835 C843 1.503 . S
C836 C835 1.410 . S
C836 C837 1.392 . S
C836 C839 1.511 . S
C837 C833 1.376 . S
C837 C836 1.392 . S
C837 H849 0.929 . S
C838 C834 1.531 . S
C838 H850 0.960 . S
C838 H851 0.962 . S
C838 H852 0.960 . S
C839 C836 1.511 . S
C839 H853 0.961 . S
C839 H854 0.961 . S
C839 H855 0.961 . S
C840 C841 1.370 . S
C840 C842 1.363 . S
C840 H856 0.931 . S
C841 C840 1.370 . S
C841 C845 1.408 . S
C842 C840 1.363 . S
C842 C843 1.370 . S
C842 C846 1.524 . S
C843 C835 1.503 . S
C843 C842 1.370 . S
C843 C844 1.403 . S
C844 C843 1.403 . S
C844 C845 1.404 . S
C844 C847 1.539 . S
C845 C841 1.408 . S
C845 C844 1.404 . S
C845 H857 0.930 . S
C846 C842 1.524 . S
C846 H858 0.956 . S
C846 H859 0.961 . S
C846 H860 0.961 . S
C847 C844 1.539 . S
C847 H861 0.958 . S
C847 H862 0.961 . S
C847 H863 0.960 . S
H848 C832 0.931 . S
H849 C837 0.929 . S
H850 C838 0.960 . S
H851 C838 0.962 . S
H852 C838 0.960 . S
H853 C839 0.961 . S
H854 C839 0.961 . S
H855 C839 0.961 . S
H856 C840 0.931 . S
H857 C845 0.930 . S
H858 C846 0.956 . S
H859 C846 0.961 . S
H860 C846 0.961 . S
H861 C847 0.958 . S
H862 C847 0.961 . S
H863 C847 0.960 . S
C864 C865 1.391 1_455 S
C864 C866 1.394 1_554 S
C864 H880 0.931 . S
C865 C864 1.391 1_655 S
C865 C869 1.376 . S
C866 C864 1.394 1_556 S
C866 C867 1.369 . S
C866 C870 1.531 . S
C867 C866 1.369 . S
C867 C868 1.410 1_456 S
C867 C875 1.503 . S
C868 C867 1.410 1_654 S
C868 C869 1.392 . S
C868 C871 1.511 . S
C869 C865 1.376 . S
C869 C868 1.392 . S
C869 H881 0.929 . S
C870 C866 1.531 . S
C870 H882 0.960 . S
C870 H883 0.962 . S
C870 H884 0.960 . S
C871 C868 1.511 . S
C871 H885 0.961 . S
C871 H886 0.961 . S
C871 H887 0.961 1_554 S
C872 C873 1.370 . S
C872 C874 1.363 1_556 S
C872 H888 0.931 1_556 S
C873 C872 1.370 . S
C873 C877 1.408 . S
C874 C872 1.363 1_554 S
C874 C875 1.370 1_554 S
C874 C878 1.524 . S
C875 C867 1.503 . S
C875 C874 1.370 1_556 S
C875 C876 1.403 . S
C876 C875 1.403 . S
C876 C877 1.404 . S
C876 C879 1.513 1_455 S
C877 C873 1.408 . S
C877 C876 1.404 . S
C877 H889 0.930 . S
C878 C874 1.524 . S
C878 H890 0.956 . S
C878 H891 0.961 . S
C878 H892 0.961 . S
C879 C876 1.513 1_655 S
C879 H893 0.933 1_655 S
C879 H894 0.986 . S
C879 H895 0.989 . S
H880 C864 0.931 . S
H881 C869 0.929 . S
H882 C870 0.960 . S
H883 C870 0.962 . S
H884 C870 0.960 . S
H885 C871 0.961 . S
H886 C871 0.961 . S
H887 C871 0.961 1_556 S
H888 C872 0.931 1_554 S
H889 C877 0.930 . S
H890 C878 0.956 . S
H891 C878 0.961 . S
H892 C878 0.961 . S
H893 C879 0.933 1_455 S
H894 C879 0.986 . S
H895 C879 0.989 . S
C896 C897 1.385 1_545 S
C896 C898 1.394 . S
C896 H912 0.931 . S
C897 C896 1.385 1_565 S
C897 C901 1.377 1_554 S
C898 C896 1.394 . S
C898 C899 1.354 1_554 S
C898 C902 1.531 . S
C899 C898 1.354 1_556 S
C899 C900 1.419 . S
C899 C907 1.509 . S
C900 C899 1.419 . S
C900 C901 1.392 1_545 S
C900 C903 1.511 . S
C901 C897 1.377 1_556 S
C901 C900 1.392 1_565 S
C901 H913 0.929 . S
C902 C898 1.531 . S
C902 H914 0.960 . S
C902 H915 0.962 . S
C902 H916 0.960 . S
C903 C900 1.511 . S
C903 H917 0.961 1_545 S
C903 H918 0.961 . S
C903 H919 0.961 . S
C904 C905 1.370 . S
C904 C906 1.363 . S
C904 H920 0.931 . S
C905 C904 1.370 . S
C905 C909 1.408 . S
C906 C904 1.363 . S
C906 C907 1.370 . S
C906 C910 1.521 1_546 S
C907 C899 1.509 . S
C907 C906 1.370 . S
C907 C908 1.403 . S
C908 C907 1.403 . S
C908 C909 1.404 . S
C908 C911 1.539 . S
C909 C905 1.408 . S
C909 C908 1.404 . S
C909 H921 0.930 . S
C910 C906 1.521 1_564 S
C910 H922 0.963 . S
C910 H923 0.957 1_554 S
C910 H924 0.959 1_554 S
C911 C908 1.539 . S
C911 H925 0.958 . S
C911 H926 0.961 . S
C911 H927 0.960 . S
H912 C896 0.931 . S
H913 C901 0.929 . S
H914 C902 0.960 . S
H915 C902 0.962 . S
H916 C902 0.960 . S
H917 C903 0.961 1_565 S
H918 C903 0.961 . S
H919 C903 0.961 . S
H920 C904 0.931 . S
H921 C909 0.930 . S
H922 C910 0.963 . S
H923 C910 0.957 1_556 S
H924 C910 0.959 1_556 S
H925 C911 0.958 . S
H926 C911 0.961 . S
H927 C911 0.960 . S
C928 C929 1.391 . S
C928 C930 1.394 . S
C928 H944 0.931 . S
C929 C928 1.391 . S
C929 C933 1.376 . S
C930 C928 1.394 . S
C930 C931 1.369 . S
C930 C934 1.531 . S
C931 C930 1.369 . S
C931 C932 1.410 . S
C931 C939 1.503 1_554 S
C932 C931 1.410 . S
C932 C933 1.392 . S
C932 C935 1.511 1_554 S
C933 C929 1.376 . S
C933 C932 1.392 . S
C933 H945 0.929 . S
C934 C930 1.531 . S
C934 H946 0.960 . S
C934 H947 0.962 . S
C934 H948 0.960 . S
C935 C932 1.511 1_556 S
C935 H949 0.961 . S
C935 H950 0.961 . S
C935 H951 0.961 1_556 S
C936 C937 1.370 . S
C936 C938 1.363 . S
C936 H952 0.931 . S
C937 C936 1.370 . S
C937 C941 1.408 . S
C938 C936 1.363 . S
C938 C939 1.370 . S
C938 C942 1.524 . S
C939 C931 1.503 1_556 S
C939 C938 1.370 . S
C939 C940 1.403 1_556 S
C940 C939 1.403 1_554 S
C940 C941 1.404 1_554 S
C940 C943 1.539 . S
C941 C937 1.408 . S
C941 C940 1.404 1_556 S
C941 H953 0.930 1_556 S
C942 C938 1.524 . S
C942 H954 0.956 . S
C942 H955 0.961 . S
C942 H956 0.961 . S
C943 C940 1.539 . S
C943 H957 0.958 . S
C943 H958 0.961 . S
C943 H959 0.960 . S
H944 C928 0.931 . S
H945 C933 0.929 . S
H946 C934 0.960 . S
H947 C934 0.962 . S
H948 C934 0.960 . S
H949 C935 0.961 . S
H950 C935 0.961 . S
H951 C935 0.961 1_554 S
H952 C936 0.931 . S
H953 C941 0.930 1_554 S
H954 C942 0.956 . S
H955 C942 0.961 . S
H956 C942 0.961 . S
H957 C943 0.958 . S
H958 C943 0.961 . S
H959 C943 0.960 . S
C960 C961 1.391 . S
C960 C962 1.394 1_554 S
C960 H976 0.931 . S
C961 C960 1.391 . S
C961 C965 1.376 . S
C962 C960 1.394 1_556 S
C962 C963 1.369 . S
C962 C966 1.531 . S
C963 C962 1.369 . S
C963 C964 1.410 1_556 S
C963 C971 1.503 . S
C964 C963 1.410 1_554 S
C964 C965 1.392 . S
C964 C967 1.511 1_554 S
C965 C961 1.376 . S
C965 C964 1.392 . S
C965 H977 0.929 . S
C966 C962 1.531 . S
C966 H978 0.960 . S
C966 H979 0.962 1_556 S
C966 H980 0.960 . S
C967 C964 1.511 1_556 S
C967 H981 0.961 1_556 S
C967 H982 0.961 . S
C967 H983 0.961 . S
C968 C969 1.370 . S
C968 C970 1.363 1_556 S
C968 H984 0.931 1_556 S
C969 C968 1.370 . S
C969 C973 1.408 . S
C970 C968 1.363 1_554 S
C970 C971 1.370 1_554 S
C970 C974 1.524 . S
C971 C963 1.503 . S
C971 C970 1.370 1_556 S
C971 C972 1.403 . S
C972 C971 1.403 . S
C972 C973 1.404 . S
C972 C975 1.539 . S
C973 C969 1.408 . S
C973 C972 1.404 . S
C973 H985 0.930 . S
C974 C970 1.524 . S
C974 H986 0.956 . S
C974 H987 0.961 . S
C974 H988 0.961 . S
C975 C972 1.539 . S
C975 H989 0.958 . S
C975 H990 0.961 . S
C975 H991 0.960 . S
H976 C960 0.931 . S
H977 C965 0.929 . S
H978 C966 0.960 . S
H979 C966 0.962 1_554 S
H980 C966 0.960 . S
H981 C967 0.961 1_554 S
H982 C967 0.961 . S
H983 C967 0.961 . S
H984 C968 0.931 1_554 S
H985 C973 0.930 . S
H986 C974 0.956 . S
H987 C974 0.961 . S
H988 C974 0.961 . S
H989 C975 0.958 . S
H990 C975 0.961 . S
H991 C975 0.960 . S
C992 C993 1.391 . S
C992 C994 1.394 . S
C992 H1008 0.931 . S
C993 C992 1.391 . S
C993 C997 1.376 1_455 S
C994 C992 1.394 . S
C994 C995 1.369 . S
C994 C998 1.531 . S
C995 C994 1.369 . S
C995 C996 1.410 1_455 S
C995 C1003 1.503 . S
C996 C995 1.410 1_655 S
C996 C997 1.392 . S
C996 C999 1.511 . S
C997 C993 1.376 1_655 S
C997 C996 1.392 . S
C997 H1009 0.929 . S
C998 C994 1.531 . S
C998 H1010 0.960 . S
C998 H1011 0.962 . S
C998 H1012 0.960 . S
C999 C996 1.511 . S
C999 H1013 0.961 . S
C999 H1014 0.961 . S
C999 H1015 0.961 . S
C1000 C1001 1.370 . S
C1000 C1002 1.363 . S
C1000 H1016 0.931 . S
C1001 C1000 1.370 . S
C1001 C1005 1.408 1_455 S
C1002 C1000 1.363 . S
C1002 C1003 1.370 . S
C1002 C1006 1.524 . S
C1003 C995 1.503 . S
C1003 C1002 1.370 . S
C1003 C1004 1.403 1_455 S
C1004 C1003 1.403 1_655 S
C1004 C1005 1.404 . S
C1004 C1007 1.539 . S
C1005 C1001 1.408 1_655 S
C1005 C1004 1.404 . S
C1005 H1017 0.930 . S
C1006 C1002 1.524 . S
C1006 H1018 0.956 . S
C1006 H1019 0.961 . S
C1006 H1020 0.961 . S
C1007 C1004 1.539 . S
C1007 H1021 0.958 . S
C1007 H1022 0.961 . S
C1007 H1023 0.960 . S
H1008 C992 0.931 . S
H1009 C997 0.929 . S
H1010 C998 0.960 . S
H1011 C998 0.962 . S
H1012 C998 0.960 . S
H1013 C999 0.961 . S
H1014 C999 0.961 . S
H1015 C999 0.961 . S
H1016 C1000 0.931 . S
H1017 C1005 0.930 . S
H1018 C1006 0.956 . S
H1019 C1006 0.961 . S
H1020 C1006 0.961 . S
H1021 C1007 0.958 . S
H1022 C1007 0.961 . S
H1023 C1007 0.960 . S
C1024 C1025 1.399 . S
C1024 C1026 1.394 . S
C1024 H1040 0.931 . S
C1025 C1024 1.399 . S
C1025 C1029 1.367 1_545 S
C1026 C1024 1.394 . S
C1026 C1027 1.372 . S
C1026 C1030 1.531 . S
C1027 C1026 1.372 . S
C1027 C1028 1.406 1_545 S
C1027 C1035 1.505 . S
C1028 C1027 1.406 1_565 S
C1028 C1029 1.392 . S
C1028 C1031 1.511 . S
C1029 C1025 1.367 1_565 S
C1029 C1028 1.392 . S
C1029 H1041 0.929 . S
C1030 C1026 1.531 . S
C1030 H1042 0.960 . S
C1030 H1043 0.962 . S
C1030 H1044 0.960 . S
C1031 C1028 1.511 . S
C1031 H1045 0.961 . S
C1031 H1046 0.961 . S
C1031 H1047 0.961 . S
C1032 C1033 1.370 . S
C1032 C1034 1.363 . S
C1032 H1048 0.931 . S
C1033 C1032 1.370 . S
C1033 C1037 1.408 1_545 S
C1034 C1032 1.363 . S
C1034 C1035 1.370 . S
C1034 C1038 1.524 . S
C1035 C1027 1.505 . S
C1035 C1034 1.370 . S
C1035 C1036 1.403 1_545 S
C1036 C1035 1.403 1_565 S
C1036 C1037 1.404 . S
C1036 C1039 1.539 . S
C1037 C1033 1.408 1_565 S
C1037 C1036 1.404 . S
C1037 H1049 0.930 . S
C1038 C1034 1.524 . S
C1038 H1050 0.956 . S
C1038 H1051 0.961 . S
C1038 H1052 0.961 . S
C1039 C1036 1.539 . S
C1039 H1053 0.958 . S
C1039 H1054 0.961 . S
C1039 H1055 0.960 . S
H1040 C1024 0.931 . S
H1041 C1029 0.929 . S
H1042 C1030 0.960 . S
H1043 C1030 0.962 . S
H1044 C1030 0.960 . S
H1045 C1031 0.961 . S
H1046 C1031 0.961 . S
H1047 C1031 0.961 . S
H1048 C1032 0.931 . S
H1049 C1037 0.930 . S
H1050 C1038 0.956 . S
H1051 C1038 0.961 . S
H1052 C1038 0.961 . S
H1053 C1039 0.958 . S
H1054 C1039 0.961 . S
H1055 C1039 0.960 . S
C1056 C1057 1.391 . S
C1056 C1058 1.394 . S
C1056 H1072 0.931 . S
C1057 C1056 1.391 . S
C1057 C1061 1.376 . S
C1058 C1056 1.394 . S
C1058 C1059 1.369 . S
C1058 C1062 1.531 . S
C1059 C1058 1.369 . S
C1059 C1060 1.410 . S
C1059 C1067 1.503 . S
C1060 C1059 1.410 . S
C1060 C1061 1.392 . S
C1060 C1063 1.511 . S
C1061 C1057 1.376 . S
C1061 C1060 1.392 . S
C1061 H1073 0.929 . S
C1062 C1058 1.531 . S
C1062 H1074 0.960 . S
C1062 H1075 0.962 . S
C1062 H1076 0.960 . S
C1063 C1060 1.511 . S
C1063 H1077 0.961 . S
C1063 H1078 0.961 . S
C1063 H1079 0.961 . S
C1064 C1065 1.370 . S
C1064 C1066 1.363 . S
C1064 H1080 0.931 . S
C1065 C1064 1.370 . S
C1065 C1069 1.408 . S
C1066 C1064 1.363 . S
C1066 C1067 1.370 . S
C1066 C1070 1.524 . S
C1067 C1059 1.503 . S
C1067 C1066 1.370 . S
C1067 C1068 1.403 . S
C1068 C1067 1.403 . S
C1068 C1069 1.404 . S
C1068 C1071 1.539 . S
C1069 C1065 1.408 . S
C1069 C1068 1.404 . S
C1069 H1081 0.930 . S
C1070 C1066 1.524 . S
C1070 H1082 0.956 . S
C1070 H1083 0.961 . S
C1070 H1084 0.961 . S
C1071 C1068 1.539 . S
C1071 H1085 0.958 . S
C1071 H1086 0.961 . S
C1071 H1087 0.960 . S
H1072 C1056 0.931 . S
H1073 C1061 0.929 . S
H1074 C1062 0.960 . S
H1075 C1062 0.962 . S
H1076 C1062 0.960 . S
H1077 C1063 0.961 . S
H1078 C1063 0.961 . S
H1079 C1063 0.961 . S
H1080 C1064 0.931 . S
H1081 C1069 0.930 . S
H1082 C1070 0.956 . S
H1083 C1070 0.961 . S
H1084 C1070 0.961 . S
H1085 C1071 0.958 . S
H1086 C1071 0.961 . S
H1087 C1071 0.960 . S
C1088 C1089 1.391 . S
C1088 C1090 1.394 . S
C1088 H1104 0.931 . S
C1089 C1088 1.391 . S
C1089 C1093 1.376 . S
C1090 C1088 1.394 . S
C1090 C1091 1.369 . S
C1090 C1094 1.531 . S
C1091 C1090 1.369 . S
C1091 C1092 1.410 . S
C1091 C1099 1.503 . S
C1092 C1091 1.410 . S
C1092 C1093 1.392 . S
C1092 C1095 1.511 . S
C1093 C1089 1.376 . S
C1093 C1092 1.392 . S
C1093 H1105 0.929 . S
C1094 C1090 1.531 . S
C1094 H1106 0.960 . S
C1094 H1107 0.962 . S
C1094 H1108 0.960 . S
C1095 C1092 1.511 . S
C1095 H1109 0.961 . S
C1095 H1110 0.961 . S
C1095 H1111 0.961 . S
C1096 C1097 1.370 . S
C1096 C1098 1.363 . S
C1096 H1112 0.931 . S
C1097 C1096 1.370 . S
C1097 C1101 1.408 . S
C1098 C1096 1.363 . S
C1098 C1099 1.370 . S
C1098 C1102 1.524 . S
C1099 C1091 1.503 . S
C1099 C1098 1.370 . S
C1099 C1100 1.403 . S
C1100 C1099 1.403 . S
C1100 C1101 1.404 . S
C1100 C1103 1.539 . S
C1101 C1097 1.408 . S
C1101 C1100 1.404 . S
C1101 H1113 0.930 . S
C1102 C1098 1.524 . S
C1102 H1114 0.956 . S
C1102 H1115 0.961 . S
C1102 H1116 0.961 . S
C1103 C1100 1.539 . S
C1103 H1117 0.958 . S
C1103 H1118 0.961 . S
C1103 H1119 0.960 . S
H1104 C1088 0.931 . S
H1105 C1093 0.929 . S
H1106 C1094 0.960 . S
H1107 C1094 0.962 . S
H1108 C1094 0.960 . S
H1109 C1095 0.961 . S
H1110 C1095 0.961 . S
H1111 C1095 0.961 . S
H1112 C1096 0.931 . S
H1113 C1101 0.930 . S
H1114 C1102 0.956 . S
H1115 C1102 0.961 . S
H1116 C1102 0.961 . S
H1117 C1103 0.958 . S
H1118 C1103 0.961 . S
H1119 C1103 0.960 . S
C1120 C1121 1.391 . S
C1120 C1122 1.394 . S
C1120 H1136 0.931 . S
C1121 C1120 1.391 . S
C1121 C1125 1.376 1_655 S
C1122 C1120 1.394 . S
C1122 C1123 1.369 . S
C1122 C1126 1.531 . S
C1123 C1122 1.369 . S
C1123 C1124 1.410 1_655 S
C1123 C1131 1.503 . S
C1124 C1123 1.410 1_455 S
C1124 C1125 1.392 . S
C1124 C1127 1.511 . S
C1125 C1121 1.376 1_455 S
C1125 C1124 1.392 . S
C1125 H1137 0.929 . S
C1126 C1122 1.531 . S
C1126 H1138 0.960 . S
C1126 H1139 0.962 . S
C1126 H1140 0.960 . S
C1127 C1124 1.511 . S
C1127 H1141 0.961 . S
C1127 H1142 0.961 . S
C1127 H1143 0.961 . S
C1128 C1129 1.370 . S
C1128 C1130 1.363 . S
C1128 H1144 0.931 . S
C1129 C1128 1.370 . S
C1129 C1133 1.408 . S
C1130 C1128 1.363 . S
C1130 C1131 1.370 . S
C1130 C1134 1.524 . S
C1131 C1123 1.503 . S
C1131 C1130 1.370 . S
C1131 C1132 1.403 . S
C1132 C1131 1.403 . S
C1132 C1133 1.404 . S
C1132 C1135 1.539 1_655 S
C1133 C1129 1.408 . S
C1133 C1132 1.404 . S
C1133 H1145 0.930 . S
C1134 C1130 1.524 . S
C1134 H1146 0.956 . S
C1134 H1147 0.961 1_655 S
C1134 H1148 0.961 . S
C1135 C1132 1.539 1_455 S
C1135 H1149 0.958 1_455 S
C1135 H1150 0.961 . S
C1135 H1151 0.960 . S
H1136 C1120 0.931 . S
H1137 C1125 0.929 . S
H1138 C1126 0.960 . S
H1139 C1126 0.962 . S
H1140 C1126 0.960 . S
H1141 C1127 0.961 . S
H1142 C1127 0.961 . S
H1143 C1127 0.961 . S
H1144 C1128 0.931 . S
H1145 C1133 0.930 . S
H1146 C1134 0.956 . S
H1147 C1134 0.961 1_455 S
H1148 C1134 0.961 . S
H1149 C1135 0.958 1_655 S
H1150 C1135 0.961 . S
H1151 C1135 0.960 . S
C1152 C1153 1.397 . S
C1152 C1154 1.394 . S
C1152 H1168 0.931 . S
C1153 C1152 1.397 . S
C1153 C1157 1.369 1_565 S
C1154 C1152 1.394 . S
C1154 C1155 1.370 . S
C1154 C1158 1.531 . S
C1155 C1154 1.370 . S
C1155 C1156 1.408 1_565 S
C1155 C1163 1.504 . S
C1156 C1155 1.408 1_545 S
C1156 C1157 1.392 . S
C1156 C1159 1.511 . S
C1157 C1153 1.369 1_545 S
C1157 C1156 1.392 . S
C1157 H1169 0.929 . S
C1158 C1154 1.531 . S
C1158 H1170 0.960 . S
C1158 H1171 0.962 . S
C1158 H1172 0.960 . S
C1159 C1156 1.511 . S
C1159 H1173 0.961 . S
C1159 H1174 0.961 . S
C1159 H1175 0.961 . S
C1160 C1161 1.370 . S
C1160 C1162 1.363 . S
C1160 H1176 0.931 . S
C1161 C1160 1.370 . S
C1161 C1165 1.408 1_565 S
C1162 C1160 1.363 . S
C1162 C1163 1.370 . S
C1162 C1166 1.524 . S
C1163 C1155 1.504 . S
C1163 C1162 1.370 . S
C1163 C1164 1.403 1_565 S
C1164 C1163 1.403 1_545 S
C1164 C1165 1.404 . S
C1164 C1167 1.539 . S
C1165 C1161 1.408 1_545 S
C1165 C1164 1.404 . S
C1165 H1177 0.930 . S
C1166 C1162 1.524 . S
C1166 H1178 0.956 . S
C1166 H1179 0.961 . S
C1166 H1180 0.961 . S
C1167 C1164 1.539 . S
C1167 H1181 0.958 . S
C1167 H1182 0.961 . S
C1167 H1183 0.960 . S
H1168 C1152 0.931 . S
H1169 C1157 0.929 . S
H1170 C1158 0.960 . S
H1171 C1158 0.962 . S
H1172 C1158 0.960 . S
H1173 C1159 0.961 . S
H1174 C1159 0.961 . S
H1175 C1159 0.961 . S
H1176 C1160 0.931 . S
H1177 C1165 0.930 . S
H1178 C1166 0.956 . S
H1179 C1166 0.961 . S
H1180 C1166 0.961 . S
H1181 C1167 0.958 . S
H1182 C1167 0.961 . S
H1183 C1167 0.960 . S
C1184 C1185 1.391 . S
C1184 C1186 1.394 . S
C1184 H1200 0.931 . S
C1185 C1184 1.391 . S
C1185 C1189 1.376 . S
C1186 C1184 1.394 . S
C1186 C1187 1.369 . S
C1186 C1190 1.531 . S
C1187 C1186 1.369 . S
C1187 C1188 1.410 . S
C1187 C1195 1.503 . S
C1188 C1187 1.410 . S
C1188 C1189 1.392 . S
C1188 C1191 1.511 . S
C1189 C1185 1.376 . S
C1189 C1188 1.392 . S
C1189 H1201 0.929 . S
C1190 C1186 1.531 . S
C1190 H1202 0.960 . S
C1190 H1203 0.962 . S
C1190 H1204 0.960 . S
C1191 C1188 1.511 . S
C1191 H1205 0.961 . S
C1191 H1206 0.961 . S
C1191 H1207 0.961 . S
C1192 C1193 1.370 . S
C1192 C1194 1.363 . S
C1192 H1208 0.931 . S
C1193 C1192 1.370 . S
C1193 C1197 1.408 . S
C1194 C1192 1.363 . S
C1194 C1195 1.370 . S
C1194 C1198 1.524 . S
C1195 C1187 1.503 . S
C1195 C1194 1.370 . S
C1195 C1196 1.403 . S
C1196 C1195 1.403 . S
C1196 C1197 1.404 . S
C1196 C1199 1.539 . S
C1197 C1193 1.408 . S
C1197 C1196 1.404 . S
C1197 H1209 0.930 . S
C1198 C1194 1.524 . S
C1198 H1210 0.956 . S
C1198 H1211 0.961 . S
C1198 H1212 0.961 . S
C1199 C1196 1.539 . S
C1199 H1213 0.958 . S
C1199 H1214 0.961 . S
C1199 H1215 0.960 . S
H1200 C1184 0.931 . S
H1201 C1189 0.929 . S
H1202 C1190 0.960 . S
H1203 C1190 0.962 . S
H1204 C1190 0.960 . S
H1205 C1191 0.961 . S
H1206 C1191 0.961 . S
H1207 C1191 0.961 . S
H1208 C1192 0.931 . S
H1209 C1197 0.930 . S
H1210 C1198 0.956 . S
H1211 C1198 0.961 . S
H1212 C1198 0.961 . S
H1213 C1199 0.958 . S
H1214 C1199 0.961 . S
H1215 C1199 0.960 . S
C1216 C1217 1.391 . S
C1216 C1218 1.394 . S
C1216 H1232 0.931 . S
C1217 C1216 1.391 . S
C1217 C1221 1.376 . S
C1218 C1216 1.394 . S
C1218 C1219 1.369 . S
C1218 C1222 1.531 . S
C1219 C1218 1.369 . S
C1219 C1220 1.410 . S
C1219 C1227 1.503 . S
C1220 C1219 1.410 . S
C1220 C1221 1.392 . S
C1220 C1223 1.511 . S
C1221 C1217 1.376 . S
C1221 C1220 1.392 . S
C1221 H1233 0.929 . S
C1222 C1218 1.531 . S
C1222 H1234 0.960 . S
C1222 H1235 0.962 . S
C1222 H1236 0.960 . S
C1223 C1220 1.511 . S
C1223 H1237 0.961 . S
C1223 H1238 0.961 . S
C1223 H1239 0.961 . S
C1224 C1225 1.370 . S
C1224 C1226 1.363 . S
C1224 H1240 0.931 . S
C1225 C1224 1.370 . S
C1225 C1229 1.408 . S
C1226 C1224 1.363 . S
C1226 C1227 1.370 . S
C1226 C1230 1.524 . S
C1227 C1219 1.503 . S
C1227 C1226 1.370 . S
C1227 C1228 1.403 . S
C1228 C1227 1.403 . S
C1228 C1229 1.404 . S
C1228 C1231 1.539 . S
C1229 C1225 1.408 . S
C1229 C1228 1.404 . S
C1229 H1241 0.930 . S
C1230 C1226 1.524 . S
C1230 H1242 0.956 . S
C1230 H1243 0.961 . S
C1230 H1244 0.961 . S
C1231 C1228 1.539 . S
C1231 H1245 0.958 . S
C1231 H1246 0.961 . S
C1231 H1247 0.960 . S
H1232 C1216 0.931 . S
H1233 C1221 0.929 . S
H1234 C1222 0.960 . S
H1235 C1222 0.962 . S
H1236 C1222 0.960 . S
H1237 C1223 0.961 . S
H1238 C1223 0.961 . S
H1239 C1223 0.961 . S
H1240 C1224 0.931 . S
H1241 C1229 0.930 . S
H1242 C1230 0.956 . S
H1243 C1230 0.961 . S
H1244 C1230 0.961 . S
H1245 C1231 0.958 . S
H1246 C1231 0.961 . S
H1247 C1231 0.960 . S
C481 C255 2.207 1_565 S
C489 C329 2.420 1_545 S
C521 C369 2.425 . S
C513 C295 2.231 . S
C553 C409 2.431 . S
C545 C175 2.234 . S
C585 C449 2.421 1_455 S
C577 C215 2.246 1_655 S
C617 C338 2.421 1_565 S
C609 C95 2.243 . S
C641 C135 2.248 . S
C649 C378 2.433 . S
C673 C15 2.244 . S
C681 C418 2.424 . S
C705 C55 2.195 . S
C713 C458 2.425 1_655 S
C745 C335 0.456 . S
C737 C221 0.497 . S
C777 C375 0.456 . S
C769 C261 0.339 . S
C809 C415 0.442 . S
C801 C301 0.507 . S
C833 C181 0.383 . S
C841 C455 0.403 . S
C865 C61 0.623 1_655 S
C873 C326 0.408 . S
C905 C366 0.469 . S
C897 C101 0.463 1_565 S
C937 C406 0.468 . S
C929 C141 0.413 . S
C961 C21 0.609 . S
C969 C446 0.421 . S
C993 C202 3.121 . S
C1001 C339 3.480 . S
C1025 C242 3.130 . S
C1033 C379 3.482 . S
C1065 C419 3.483 . S
C1057 C282 3.106 . S
C1097 C459 3.484 . S
C1089 C162 3.140 . S
C1121 C42 3.172 1_655 S
C1129 C330 3.493 . S
C1161 C370 3.481 . S
C1153 C82 3.142 1_565 S
C1193 C410 3.489 . S
C1185 C122 3.122 . S
C1217 C2 3.151 . S
C1225 C450 3.490 . S
