# Generated by pormake.
# Topology gar, (4,6)-cn, num edge types: 1
# Building blocks:
#     Node 0, Type 0, BuildingBlock: GALJAG_clean_sbu_0, # of connection points: 4
#     Node 1, Type 0, BuildingBlock: GALJAG_clean_sbu_0, # of connection points: 4
#     Node 2, Type 0, BuildingBlock: GALJAG_clean_sbu_0, # of connection points: 4
#     Node 3, Type 0, BuildingBlock: GALJAG_clean_sbu_0, # of connection points: 4
#     Node 4, Type 0, BuildingBlock: GALJAG_clean_sbu_0, # of connection points: 4
#     Node 5, Type 0, BuildingBlock: GALJAG_clean_sbu_0, # of connection points: 4
#     Node 6, Type 0, BuildingBlock: GALJAG_clean_sbu_0, # of connection points: 4
#     Node 7, Type 0, BuildingBlock: GALJAG_clean_sbu_0, # of connection points: 4
#     Node 8, Type 0, BuildingBlock: GALJAG_clean_sbu_0, # of connection points: 4
#     Node 9, Type 0, BuildingBlock: GALJAG_clean_sbu_0, # of connection points: 4
#     Node 10, Type 0, BuildingBlock: GALJAG_clean_sbu_0, # of connection points: 4
#     Node 11, Type 0, BuildingBlock: GALJAG_clean_sbu_0, # of connection points: 4
#     Node 12, Type 0, BuildingBlock: GALJAG_clean_sbu_0, # of connection points: 4
#     Node 13, Type 0, BuildingBlock: GALJAG_clean_sbu_0, # of connection points: 4
#     Node 14, Type 0, BuildingBlock: GALJAG_clean_sbu_0, # of connection points: 4
#     Node 15, Type 0, BuildingBlock: GALJAG_clean_sbu_0, # of connection points: 4
#     Node 16, Type 0, BuildingBlock: GALJAG_clean_sbu_0, # of connection points: 4
#     Node 17, Type 0, BuildingBlock: GALJAG_clean_sbu_0, # of connection points: 4
#     Node 18, Type 0, BuildingBlock: GALJAG_clean_sbu_0, # of connection points: 4
#     Node 19, Type 0, BuildingBlock: GALJAG_clean_sbu_0, # of connection points: 4
#     Node 20, Type 0, BuildingBlock: GALJAG_clean_sbu_0, # of connection points: 4
#     Node 21, Type 0, BuildingBlock: GALJAG_clean_sbu_0, # of connection points: 4
#     Node 22, Type 0, BuildingBlock: GALJAG_clean_sbu_0, # of connection points: 4
#     Node 23, Type 0, BuildingBlock: GALJAG_clean_sbu_0, # of connection points: 4
#     Node 24, Type 1, BuildingBlock: KUMBUR_clean_sbu_0, # of connection points: 6
#     Node 25, Type 1, BuildingBlock: KUMBUR_clean_sbu_0, # of connection points: 6
#     Node 26, Type 1, BuildingBlock: KUMBUR_clean_sbu_0, # of connection points: 6
#     Node 27, Type 1, BuildingBlock: KUMBUR_clean_sbu_0, # of connection points: 6
#     Node 28, Type 1, BuildingBlock: KUMBUR_clean_sbu_0, # of connection points: 6
#     Node 29, Type 1, BuildingBlock: KUMBUR_clean_sbu_0, # of connection points: 6
#     Node 30, Type 1, BuildingBlock: KUMBUR_clean_sbu_0, # of connection points: 6
#     Node 31, Type 1, BuildingBlock: KUMBUR_clean_sbu_0, # of connection points: 6
#     Node 32, Type 1, BuildingBlock: KUMBUR_clean_sbu_0, # of connection points: 6
#     Node 33, Type 1, BuildingBlock: KUMBUR_clean_sbu_0, # of connection points: 6
#     Node 34, Type 1, BuildingBlock: KUMBUR_clean_sbu_0, # of connection points: 6
#     Node 35, Type 1, BuildingBlock: KUMBUR_clean_sbu_0, # of connection points: 6
#     Node 36, Type 1, BuildingBlock: KUMBUR_clean_sbu_0, # of connection points: 6
#     Node 37, Type 1, BuildingBlock: KUMBUR_clean_sbu_0, # of connection points: 6
#     Node 38, Type 1, BuildingBlock: KUMBUR_clean_sbu_0, # of connection points: 6
#     Node 39, Type 1, BuildingBlock: KUMBUR_clean_sbu_0, # of connection points: 6
#     Edge 40, Type (0, 1), None
#     Edge 41, Type (0, 1), None
#     Edge 42, Type (0, 1), None
#     Edge 43, Type (0, 1), None
#     Edge 44, Type (0, 1), None
#     Edge 45, Type (0, 1), None
#     Edge 46, Type (0, 1), None
#     Edge 47, Type (0, 1), None
#     Edge 48, Type (0, 1), None
#     Edge 49, Type (0, 1), None
#     Edge 50, Type (0, 1), None
#     Edge 51, Type (0, 1), None
#     Edge 52, Type (0, 1), None
#     Edge 53, Type (0, 1), None
#     Edge 54, Type (0, 1), None
#     Edge 55, Type (0, 1), None
#     Edge 56, Type (0, 1), None
#     Edge 57, Type (0, 1), None
#     Edge 58, Type (0, 1), None
#     Edge 59, Type (0, 1), None
#     Edge 60, Type (0, 1), None
#     Edge 61, Type (0, 1), None
#     Edge 62, Type (0, 1), None
#     Edge 63, Type (0, 1), None
#     Edge 64, Type (0, 1), None
#     Edge 65, Type (0, 1), None
#     Edge 66, Type (0, 1), None
#     Edge 67, Type (0, 1), None
#     Edge 68, Type (0, 1), None
#     Edge 69, Type (0, 1), None
#     Edge 70, Type (0, 1), None
#     Edge 71, Type (0, 1), None
#     Edge 72, Type (0, 1), None
#     Edge 73, Type (0, 1), None
#     Edge 74, Type (0, 1), None
#     Edge 75, Type (0, 1), None
#     Edge 76, Type (0, 1), None
#     Edge 77, Type (0, 1), None
#     Edge 78, Type (0, 1), None
#     Edge 79, Type (0, 1), None
#     Edge 80, Type (0, 1), None
#     Edge 81, Type (0, 1), None
#     Edge 82, Type (0, 1), None
#     Edge 83, Type (0, 1), None
#     Edge 84, Type (0, 1), None
#     Edge 85, Type (0, 1), None
#     Edge 86, Type (0, 1), None
#     Edge 87, Type (0, 1), None
#     Edge 88, Type (0, 1), None
#     Edge 89, Type (0, 1), None
#     Edge 90, Type (0, 1), None
#     Edge 91, Type (0, 1), None
#     Edge 92, Type (0, 1), None
#     Edge 93, Type (0, 1), None
#     Edge 94, Type (0, 1), None
#     Edge 95, Type (0, 1), None
#     Edge 96, Type (0, 1), None
#     Edge 97, Type (0, 1), None
#     Edge 98, Type (0, 1), None
#     Edge 99, Type (0, 1), None
#     Edge 100, Type (0, 1), None
#     Edge 101, Type (0, 1), None
#     Edge 102, Type (0, 1), None
#     Edge 103, Type (0, 1), None
#     Edge 104, Type (0, 1), None
#     Edge 105, Type (0, 1), None
#     Edge 106, Type (0, 1), None
#     Edge 107, Type (0, 1), None
#     Edge 108, Type (0, 1), None
#     Edge 109, Type (0, 1), None
#     Edge 110, Type (0, 1), None
#     Edge 111, Type (0, 1), None
#     Edge 112, Type (0, 1), None
#     Edge 113, Type (0, 1), None
#     Edge 114, Type (0, 1), None
#     Edge 115, Type (0, 1), None
#     Edge 116, Type (0, 1), None
#     Edge 117, Type (0, 1), None
#     Edge 118, Type (0, 1), None
#     Edge 119, Type (0, 1), None
#     Edge 120, Type (0, 1), None
#     Edge 121, Type (0, 1), None
#     Edge 122, Type (0, 1), None
#     Edge 123, Type (0, 1), None
#     Edge 124, Type (0, 1), None
#     Edge 125, Type (0, 1), None
#     Edge 126, Type (0, 1), None
#     Edge 127, Type (0, 1), None
#     Edge 128, Type (0, 1), None
#     Edge 129, Type (0, 1), None
#     Edge 130, Type (0, 1), None
#     Edge 131, Type (0, 1), None
#     Edge 132, Type (0, 1), None
#     Edge 133, Type (0, 1), None
#     Edge 134, Type (0, 1), None
#     Edge 135, Type (0, 1), None
# Relax obj value: 0.239
# Max RMSD: 0.403
# Mean RMSD: 0.194
data_MOF--net-gar--node1-GALJAG_clean_sbu_0--node2-KUMBUR_clean_sbu_0--edge1-none
_symmetry_space_group_name_H-M    P1
_symmetry_Int_Tables_number       1
_symmetry_cell_setting            triclinic
loop_
_symmetry_equiv_pos_as_xyz
'x, y, z'
_cell_length_a     32.025682
_cell_length_b     25.913842
_cell_length_c     26.40754
_cell_angle_alpha  101.43835
_cell_angle_beta   95.10282
_cell_angle_gamma 100.93686
loop_
_atom_site_label
_atom_site_type_symbol
_atom_site_fract_x
_atom_site_fract_y
_atom_site_fract_z
_atom_type_partial_charge
In0 In 0.19685 0.41816 0.37255 0.0
O1 O 0.24189 0.37563 0.31805 0.0
O2 O 0.2712 0.44364 0.37591 0.0
C3 C 0.13389 0.4088 0.2954 0.0
C4 C 0.16239 0.34614 0.43033 0.0
C5 C 0.18162 0.51114 0.43287 0.0
O6 O 0.16953 0.44135 0.29929 0.0
O7 O 0.13113 0.37991 0.32862 0.0
O8 O 0.20235 0.47964 0.44938 0.0
O9 O 0.17217 0.49967 0.38406 0.0
C10 C 0.27664 0.40766 0.33873 0.0
O11 O 0.19119 0.38763 0.44937 0.0
O12 O 0.15478 0.33791 0.38133 0.0
In13 In 0.04402 0.78106 0.72003 0.0
O14 O 0.04806 0.81583 0.64447 0.0
O15 O 0.09013 0.85808 0.71172 0.0
C16 C 0.05882 0.68893 0.65717 0.0
C17 C 0.10549 0.78811 0.79778 0.0
C18 C 0.96899 0.79674 0.76443 0.0
O19 O 0.03733 0.72032 0.64152 0.0
O20 O 0.06901 0.70019 0.70584 0.0
O21 O 1.00284 0.83242 0.77038 0.0
O22 O 0.97166 0.75354 0.73399 0.0
C23 C 0.08004 0.85379 0.66353 0.0
O24 O 0.10885 0.81845 0.76593 0.0
O25 O 0.07009 0.75491 0.79201 0.0
In26 In 0.69553 0.91878 0.86994 0.0
O27 O 0.73858 0.86748 0.82281 0.0
O28 O 0.76723 0.94822 0.85498 0.0
C29 C 0.63259 0.90776 0.79236 0.0
C30 C 0.66197 0.84903 0.93049 0.0
C31 C 0.6814 1.01191 0.93106 0.0
O32 O 0.66794 0.94065 0.79622 0.0
O33 O 0.62985 0.87969 0.8262 0.0
O34 O 0.70492 0.98254 0.94659 0.0
O35 O 0.66849 0.99798 0.88293 0.0
C36 C 0.77158 0.90425 0.82747 0.0
O37 O 0.6926 0.88914 0.94775 0.0
O38 O 0.65191 0.84117 0.88184 0.0
In39 In 0.54254 0.27743 0.21965 0.0
O40 O 0.5354 0.21641 0.14155 0.0
O41 O 0.56887 0.19771 0.20559 0.0
C42 C 0.57827 0.35055 0.16289 0.0
C43 C 0.46742 0.29105 0.26509 0.0
C44 C 0.60425 0.28658 0.29766 0.0
O45 O 0.54734 0.31137 0.14331 0.0
O46 O 0.58718 0.35581 0.21141 0.0
O47 O 0.60698 0.31674 0.26561 0.0
O48 O 0.5696 0.25187 0.29145 0.0
C49 C 0.55789 0.18595 0.15701 0.0
O50 O 0.50216 0.32548 0.2739 0.0
O51 O 0.46904 0.25002 0.23083 0.0
In52 In 0.19169 0.8879 0.13929 0.0
O53 O 0.17939 0.79902 0.07275 0.0
O54 O 0.15983 0.79915 0.14509 0.0
C55 C 0.17309 0.98658 0.10115 0.0
C56 C 0.1294 0.88525 0.20266 0.0
C57 C 0.27431 0.8936 0.2007 0.0
O58 O 0.16867 0.9398 0.07152 0.0
O59 O 0.18991 0.9837 0.14566 0.0
O60 O 0.24301 0.91219 0.21694 0.0
O61 O 0.26658 0.87618 0.15133 0.0
C62 C 0.16248 0.76924 0.10215 0.0
O63 O 0.16883 0.89863 0.21986 0.0
O64 O 0.1218 0.87536 0.15364 0.0
In65 In 0.55284 0.8227 0.46642 0.0
O66 O 0.57154 0.81262 0.38407 0.0
O67 O 0.62153 0.83174 0.44719 0.0
C68 C 0.46741 0.81597 0.41259 0.0
C69 C 0.57202 0.72222 0.4999 0.0
C70 C 0.58359 0.942 0.50072 0.0
O71 O 0.49812 0.79857 0.3933 0.0
O72 O 0.47744 0.83326 0.46172 0.0
O73 O 0.56908 0.91278 0.53184 0.0
O74 O 0.58353 0.91134 0.4572 0.0
C75 C 0.61145 0.8233 0.39849 0.0
O76 O 0.57688 0.76827 0.53115 0.0
O77 O 0.55491 0.72677 0.45619 0.0
In78 In 0.69125 0.38789 0.63868 0.0
O79 O 0.67785 0.29902 0.57223 0.0
O80 O 0.6604 0.29919 0.64562 0.0
C81 C 0.67156 0.48603 0.60111 0.0
C82 C 0.62962 0.38534 0.70277 0.0
C83 C 0.77467 0.39492 0.69907 0.0
O84 O 0.66773 0.43958 0.57108 0.0
O85 O 0.68838 0.48312 0.6456 0.0
O86 O 0.74372 0.41438 0.71528 0.0
O87 O 0.76621 0.37602 0.64995 0.0
C88 C 0.66201 0.26929 0.60227 0.0
O89 O 0.66915 0.39725 0.71934 0.0
O90 O 0.6214 0.37693 0.65386 0.0
In91 In 0.05237 0.32184 0.96536 0.0
O92 O 0.07622 0.26648 0.02965 0.0
O93 O 0.0536 0.22525 0.95491 0.0
C94 C 0.08381 0.44131 0.99993 0.0
C95 C 0.11114 0.3226 0.89734 0.0
C96 C 0.96684 0.3168 0.91213 0.0
O97 O 0.06946 0.41201 0.03112 0.0
O98 O 0.08331 0.41062 0.95629 0.0
O99 O 0.99728 0.29891 0.89257 0.0
O100 O 0.97711 0.33358 0.96128 0.0
C101 C 0.07087 0.22029 0.99843 0.0
O102 O 0.07125 0.31204 0.8828 0.0
O103 O 0.12097 0.33073 0.94604 0.0
In104 In 0.49472 0.07511 0.34536 0.0
O105 O 0.52967 0.05751 0.27687 0.0
O106 O 0.52104 1.00006 0.3249 0.0
C107 C 0.55144 0.12918 0.42737 0.0
C108 C 0.45028 0.12313 0.28707 0.0
C109 C 0.43866 0.98796 0.35433 0.0
O110 O 0.56186 0.12105 0.38217 0.0
O111 O 0.51154 0.11878 0.42939 0.0
O112 O 0.42918 1.01724 0.32427 0.0
O113 O 0.47403 1.00607 0.38311 0.0
C114 C 0.53409 1.01217 0.2845 0.0
O115 O 0.44252 0.12132 0.33303 0.0
O116 O 0.48386 0.10811 0.27464 0.0
In117 In 0.32665 0.27196 0.5373 0.0
O118 O 0.33404 0.33899 0.62112 0.0
O119 O 0.3483 0.26353 0.61956 0.0
C120 C 0.36676 0.31545 0.4516 0.0
C121 C 0.38154 0.20797 0.53995 0.0
C122 C 0.24054 0.20629 0.53223 0.0
O123 O 0.35755 0.34548 0.49186 0.0
O124 O 0.35148 0.26697 0.45321 0.0
O125 O 0.27468 0.18927 0.52786 0.0
O126 O 0.24805 0.25689 0.53374 0.0
C127 C 0.34616 0.30736 0.64802 0.0
O128 O 0.34321 0.19028 0.5186 0.0
O129 O 0.3925 0.25837 0.5569 0.0
In130 In 0.23996 0.07466 0.79573 0.0
O131 O 0.17755 0.08839 0.73038 0.0
O132 O 0.22469 0.06109 0.69596 0.0
C133 C 0.18815 0.07922 0.89511 0.0
C134 C 0.29031 0.97505 0.79386 0.0
C135 C 0.29822 0.18566 0.80362 0.0
O136 O 0.17439 0.0544 0.84766 0.0
O137 O 0.22727 0.10079 0.89276 0.0
O138 O 0.31034 0.14102 0.79804 0.0
O139 O 0.25856 0.17498 0.80792 0.0
C140 C 0.1904 0.07802 0.68568 0.0
O141 O 0.30392 1.02566 0.81404 0.0
O142 O 0.2509 0.97419 0.77725 0.0
In143 In 0.43097 0.04331 1.00403 0.0
O144 O 0.4062 0.98546 0.04835 0.0
O145 O 0.45906 0.05075 0.08487 0.0
C146 C 0.40733 0.97207 0.91819 0.0
C147 C 0.38027 0.11289 0.0213 0.0
C148 C 0.51468 0.0456 1.00783 0.0
O149 O 0.4044 0.96111 0.9622 0.0
O150 O 0.41787 1.02113 0.91701 0.0
O151 O 0.50012 0.08589 0.02815 0.0
O152 O 0.48746 1.00633 0.98086 0.0
C153 C 0.4371 1.00487 0.08403 0.0
O154 O 0.41827 0.12642 1.01171 0.0
O155 O 0.36698 0.06337 0.01856 0.0
In156 In 0.41319 0.43579 0.05862 0.0
O157 O 0.38234 0.3625 0.10068 0.0
O158 O 0.39354 0.43941 0.14509 0.0
C159 C 0.38872 0.39023 0.94955 0.0
C160 C 0.36772 0.51075 0.05681 0.0
C161 C 0.49862 0.50077 0.06331 0.0
O162 O 0.41944 0.37818 0.97549 0.0
O163 O 0.36993 0.41956 0.97923 0.0
O164 O 0.46449 0.51792 0.0664 0.0
O165 O 0.49122 0.45014 0.06153 0.0
C166 C 0.37663 0.39076 0.14362 0.0
O167 O 0.40747 0.52285 0.07179 0.0
O168 O 0.3509 0.46107 0.0454 0.0
In169 In 0.81423 0.15493 0.08277 0.0
O170 O 0.82526 0.07183 0.07679 0.0
O171 O 0.879 0.13467 0.07718 0.0
C172 C 0.72925 0.13721 0.06938 0.0
C173 C 0.82973 0.22989 0.16895 0.0
C174 C 0.81251 0.20116 1.00485 0.0
O175 O 0.74956 0.1105 0.03897 0.0
O176 O 0.7515 0.16777 0.10954 0.0
O177 O 0.8434 0.21558 0.04109 0.0
O178 O 0.7897 0.15547 1.00195 0.0
C179 C 0.86439 0.08505 0.07208 0.0
O180 O 0.83067 0.24041 0.12452 0.0
O181 O 0.82442 0.1808 0.17055 0.0
In182 In 0.24551 0.63853 0.26648 0.0
O183 O 0.28675 0.57764 0.26244 0.0
O184 O 0.26235 0.60247 0.33382 0.0
C185 C 0.3095 0.72256 0.26771 0.0
C186 C 0.19356 0.59239 0.17842 0.0
C187 C 0.20444 0.70123 0.32528 0.0
O188 O 0.31014 0.69516 0.3019 0.0
O189 O 0.27869 0.70382 0.23165 0.0
O190 O 0.2199 0.71401 0.28629 0.0
O191 O 0.20629 0.65458 0.3317 0.0
C192 C 0.2885 0.57885 0.3107 0.0
O193 O 0.18011 0.59327 0.22203 0.0
O194 O 0.23346 0.60818 0.18017 0.0
In195 In 0.9128 0.9365 0.5589 0.0
O196 O 0.88205 0.86445 0.6035 0.0
O197 O 0.89167 0.94218 0.64499 0.0
C198 C 0.88839 0.89009 0.44974 0.0
C199 C 0.86763 1.01154 0.55544 0.0
C200 C 0.99884 1.00091 0.56307 0.0
O201 O 0.91919 0.87845 0.47594 0.0
O202 O 0.8694 0.91928 0.47929 0.0
O203 O 0.96484 1.01835 0.56681 0.0
O204 O 0.99107 0.95024 0.56113 0.0
C205 C 0.87518 0.8938 0.6453 0.0
O206 O 0.90741 1.02367 0.57036 0.0
O207 O 0.85073 0.96188 0.54455 0.0
In208 In 0.99962 0.12837 0.29577 0.0
O209 O 0.06622 0.14989 0.24532 0.0
O210 O 1.01418 0.10273 0.19928 0.0
C211 C 0.04922 0.12756 0.40609 0.0
C212 C 0.94783 0.2261 0.29586 0.0
C213 C 0.94134 1.01742 0.29002 0.0
O214 O 0.06068 0.11267 0.36129 0.0
O215 O 1.01635 0.14701 0.39546 0.0
O216 O 0.93002 0.06257 0.29891 0.0
O217 O 0.97995 1.02766 0.28104 0.0
C218 C 0.05335 0.12486 0.19771 0.0
O219 O 0.93539 0.17563 0.27437 0.0
O220 O 0.98694 0.22789 0.31441 0.0
In221 In 0.31692 0.64761 0.58548 0.0
O222 O 0.32437 0.56247 0.58115 0.0
O223 O 0.38072 0.623 0.5948 0.0
C224 C 0.23135 0.63406 0.56861 0.0
C225 C 0.33085 0.72651 0.66903 0.0
C226 C 0.32241 0.69304 0.50564 0.0
O227 O 0.25193 0.60885 0.5374 0.0
O228 O 0.25336 0.66146 0.61035 0.0
O229 O 0.35055 0.70774 0.54502 0.0
O230 O 0.30064 0.64616 0.5006 0.0
C231 C 0.36462 0.57333 0.58424 0.0
O232 O 0.33648 0.7345 0.62444 0.0
O233 O 0.32161 0.67798 0.67238 0.0
In234 In 0.49945 0.62916 0.7964 0.0
O235 O 0.43569 0.67623 0.7732 0.0
O236 O 0.48657 0.72857 0.81485 0.0
C237 C 0.44098 0.51826 0.79013 0.0
C238 C 0.55355 0.62634 0.69923 0.0
C239 C 0.54886 0.62785 0.90659 0.0
O240 O 0.43021 0.56362 0.80113 0.0
O241 O 0.47911 0.52832 0.77939 0.0
O242 O 0.56033 0.61304 0.86179 0.0
O243 O 0.51608 0.64752 0.89606 0.0
C244 C 0.44778 0.72663 0.79504 0.0
O245 O 0.56644 0.65077 0.74697 0.0
O246 O 0.51426 0.6044 0.70031 0.0
In247 In 0.74756 0.13861 0.76593 0.0
O248 O 0.79789 0.08923 0.76851 0.0
O249 O 0.7524 0.08647 0.82297 0.0
C250 C 0.81051 0.2242 0.76974 0.0
C251 C 0.69436 0.09305 0.67832 0.0
C252 C 0.7084 0.20254 0.82746 0.0
O253 O 0.80978 0.19801 0.80509 0.0
O254 O 0.78156 0.20368 0.73172 0.0
O255 O 0.71895 0.21232 0.78504 0.0
O256 O 0.71481 0.15855 0.8368 0.0
C257 C 0.78729 0.07593 0.80987 0.0
O258 O 0.68148 0.09552 0.72225 0.0
O259 O 0.73436 0.10714 0.67932 0.0
In260 In 0.82594 0.76674 0.03768 0.0
O261 O 0.84083 0.68425 0.0202 0.0
O262 O 0.8917 0.75223 0.05386 0.0
C263 C 0.74024 0.7031 0.03359 0.0
C264 C 0.84657 0.8046 0.14803 0.0
C265 C 0.86454 0.80814 0.95116 0.0
O266 O 0.77415 0.6854 0.03066 0.0
O267 O 0.74794 0.75342 0.03389 0.0
O268 O 0.86002 0.83796 0.99406 0.0
O269 O 0.84539 0.76042 0.95069 0.0
C270 C 0.87982 0.70172 0.03881 0.0
O271 O 0.83175 0.8342 0.12076 0.0
O272 O 0.85089 0.76153 0.11997 0.0
In273 In 0.99706 0.57581 0.84567 0.0
O274 O 0.94717 0.62456 0.83321 0.0
O275 O 0.98555 0.60493 0.77277 0.0
C276 C 0.94002 0.48957 0.85442 0.0
C277 C 0.03613 0.51215 0.7859 0.0
C278 C 0.05346 0.63111 0.92714 0.0
O279 O 0.93064 0.51985 0.82537 0.0
O280 O 0.97568 0.50653 0.88276 0.0
O281 O 0.06399 0.62234 0.88203 0.0
O282 O 1.01356 0.62069 0.9291 0.0
C283 C 0.95353 0.6232 0.78626 0.0
O284 O 0.03239 0.55774 0.7783 0.0
O285 O 0.02296 0.50022 0.82634 0.0
In286 In 0.93156 0.5455 0.50494 0.0
O287 O 0.90966 0.48113 0.54297 0.0
O288 O 0.95873 0.54857 0.58531 0.0
C289 C 0.90509 0.47573 0.4191 0.0
C290 C 0.88174 0.61551 0.5266 0.0
C291 C 1.01507 0.54771 0.50783 0.0
O292 O 0.89693 0.46655 0.46255 0.0
O293 O 0.92197 0.5234 0.41813 0.0
O294 O 1.0006 0.58744 0.52973 0.0
O295 O 0.98781 0.50902 0.47994 0.0
C296 C 0.9391 0.50062 0.58025 0.0
O297 O 0.91924 0.62951 0.51574 0.0
O298 O 0.86873 0.56587 0.52302 0.0
In299 In 0.73925 0.57453 0.29637 0.0
O300 O 0.80369 0.52545 0.3129 0.0
O301 O 0.74983 0.4739 0.27913 0.0
C302 C 0.79773 0.68541 0.30422 0.0
C303 C 0.68955 0.57751 0.1862 0.0
C304 C 0.68746 0.57972 0.39604 0.0
O305 O 0.80982 0.64078 0.29925 0.0
O306 O 0.75795 0.67478 0.3079 0.0
O307 O 0.67364 0.55488 0.3486 0.0
O308 O 0.72666 0.60088 0.39357 0.0
C309 C 0.78955 0.47465 0.2941 0.0
O310 O 0.67709 0.58886 0.23101 0.0
O311 O 0.72351 0.55993 0.19649 0.0
Tb312 Tb 0.07934 0.058 0.01882 0.0
C313 C 0.17064 0.27413 0.10436 0.0
C314 C 0.19729 0.30666 0.03125 0.0
C315 C 0.20256 0.36956 0.11366 0.0
C316 C 0.1784 0.26429 0.0538 0.0
C317 C 0.1819 0.32749 0.13476 0.0
C318 C 0.21026 0.35914 0.06178 0.0
C319 C 0.14881 0.29549 0.2033 0.0
N320 N 0.15409 0.23113 0.1245 0.0
C321 C 0.13833 0.24353 0.1719 0.0
C322 C 0.17304 0.33692 0.18584 0.0
Tb323 Tb 0.16445 0.14616 0.07504 0.0
N324 N 0.16661 0.2128 0.02612 0.0
C325 C 0.16423 0.20425 0.97284 0.0
C326 C 0.20271 0.29478 0.97871 0.0
C327 C 0.18459 0.2434 0.949 0.0
H328 H 0.12222 0.21519 0.19174 0.0
H329 H 0.18596 0.23285 0.9077 0.0
H330 H 0.22551 0.39197 0.04543 0.0
H331 H 0.13997 0.30265 0.24229 0.0
H332 H 0.14602 0.16827 0.9477 0.0
H333 H 0.05475 0.96772 0.18274 0.0
H334 H 0.21865 0.32558 0.96047 0.0
H335 H 0.11791 0.99205 0.89747 0.0
H336 H 0.09415 1.0349 0.14544 0.0
H337 H 0.10405 0.90477 0.84789 0.0
H338 H 0.21211 0.41036 0.13692 0.0
H339 H 0.02743 0.87439 0.12928 0.0
H340 H 0.02501 0.80942 0.04498 0.0
H341 H 0.18413 0.37613 0.21165 0.0
H342 H 0.03925 0.79318 0.95397 0.0
N343 N 0.07764 0.99044 0.06642 0.0
C344 C 0.07825 0.99824 0.11951 0.0
C345 C 0.04286 0.90618 0.11181 0.0
C346 C 0.05006 0.89553 0.05986 0.0
C347 C 0.05825 0.95785 0.14206 0.0
C348 C 0.06798 0.93908 0.03809 0.0
H349 H 0.0641 0.82951 0.87952 0.0
N350 N 0.09069 0.97431 0.96727 0.0
C351 C 0.09622 0.91121 0.8874 0.0
C352 C 0.07604 0.93049 0.98743 0.0
C353 C 0.10496 0.96311 0.91869 0.0
C354 C 0.07447 0.86868 0.90541 0.0
C355 C 0.06629 0.87717 0.9567 0.0
O356 O 1.01712 0.06165 0.98408 0.0
O357 O 0.09917 0.14587 0.04558 0.0
O358 O 0.12291 0.13703 0.14458 0.0
O359 O 0.059 0.09413 0.09808 0.0
O360 O 0.06646 0.11881 0.97292 0.0
O361 O 0.02447 1.02136 0.04718 0.0
O362 O 0.22659 0.14167 0.10984 0.0
O363 O 0.14451 0.05823 0.05005 0.0
O364 O 0.11952 0.06826 0.94911 0.0
O365 O 0.18382 0.10928 0.9953 0.0
O366 O 0.1766 0.08719 0.12309 0.0
O367 O 0.21973 0.17991 0.04523 0.0
C368 C 0.08147 0.16337 1.00722 0.0
C369 C 0.9528 1.02426 0.01789 0.0
C370 C 0.88796 0.04538 0.04967 0.0
C371 C 0.9318 0.06075 0.04617 0.0
C372 C 0.86513 0.99407 0.02365 0.0
C373 C 0.93035 0.97174 0.99574 0.0
C374 C 0.88628 0.95826 0.99603 0.0
C375 C 0.0798 0.12072 0.14489 0.0
C376 C 0.99896 1.03997 0.01906 0.0
C377 C 0.04742 0.83393 0.97747 0.0
C378 C 0.03927 0.84311 0.0291 0.0
C379 C 0.16181 0.04211 0.08975 0.0
C380 C 0.29147 0.1757 0.0747 0.0
C381 C 0.31243 0.13812 0.04739 0.0
C382 C 0.35656 0.15264 0.0441 0.0
C383 C 0.37953 0.20408 0.06922 0.0
C384 C 0.31449 0.22805 0.09649 0.0
C385 C 0.35858 0.24074 0.0959 0.0
C386 C 0.16256 0.08353 0.94848 0.0
C387 C 0.24499 0.16137 0.07394 0.0
H388 H 0.94945 0.10112 0.06479 0.0
H389 H 0.8307 0.98229 0.0227 0.0
H390 H 0.94629 0.94135 0.97785 0.0
H391 H 0.86796 0.92082 0.97366 0.0
H392 H 0.29455 0.09777 0.02921 0.0
H393 H 0.41398 0.21547 0.07002 0.0
H394 H 0.29898 0.25895 0.11462 0.0
H395 H 0.37712 0.27843 0.11716 0.0
Tb396 Tb 0.40346 0.84523 0.26294 0.0
C397 C 0.2901 0.95298 0.40833 0.0
C398 C 0.33711 1.00851 0.48371 0.0
C399 C 0.26089 0.99266 0.48426 0.0
C400 C 0.33072 0.97181 0.43536 0.0
C401 C 0.25436 0.96371 0.4323 0.0
C402 C 0.30185 1.02002 0.50756 0.0
C403 C 0.20987 0.91713 0.35167 0.0
N404 N 0.28519 0.91821 0.36166 0.0
C405 C 0.24526 0.89982 0.33319 0.0
C406 C 0.21371 0.94487 0.40328 0.0
Tb407 Tb 0.33829 0.87104 0.35525 0.0
N408 N 0.3629 0.94918 0.41757 0.0
C409 C 0.40268 0.9641 0.44663 0.0
C410 C 0.37847 1.02805 0.50918 0.0
C411 C 0.41185 1.00783 0.48911 0.0
H412 H 0.24013 0.86914 0.29766 0.0
H413 H 0.44393 1.02386 0.50867 0.0
H414 H 0.30601 0.04618 0.54599 0.0
H415 H 0.17896 0.90463 0.32778 0.0
H416 H 0.42777 0.94268 0.43805 0.0
H417 H 0.29113 0.69205 0.11349 0.0
H418 H 0.38452 0.05557 0.54604 0.0
H419 H 0.5008 0.82985 0.30777 0.0
H420 H 0.30887 0.77052 0.18497 0.0
H421 H 0.55925 0.79488 0.2687 0.0
H422 H 0.23491 0.99791 0.50612 0.0
H423 H 0.34679 0.66932 0.06034 0.0
H424 H 0.42526 0.68428 0.04919 0.0
H425 H 0.18513 0.95203 0.41946 0.0
H426 H 0.49957 0.72728 0.08704 0.0
N427 N 0.37705 0.77557 0.19034 0.0
C428 C 0.335 0.7553 0.16914 0.0
C429 C 0.35565 0.69839 0.09662 0.0
C430 C 0.39827 0.72185 0.11547 0.0
C431 C 0.32405 0.71259 0.12565 0.0
C432 C 0.4078 0.75732 0.16465 0.0
H433 H 0.55087 0.75983 0.17343 0.0
N434 N 0.45513 0.79845 0.23935 0.0
C435 C 0.52848 0.78912 0.24544 0.0
C436 C 0.44877 0.77155 0.18931 0.0
C437 C 0.49445 0.80629 0.26831 0.0
C438 C 0.52352 0.76889 0.19169 0.0
C439 C 0.48276 0.75826 0.16313 0.0
O440 O 0.46149 0.88977 0.25031 0.0
O441 O 0.38565 0.90786 0.31704 0.0
O442 O 0.31557 0.90727 0.28965 0.0
O443 O 0.34177 0.85843 0.22116 0.0
O444 O 0.44837 0.90045 0.32537 0.0
O445 O 0.40046 0.90322 0.21945 0.0
O446 O 0.2828 0.82272 0.37159 0.0
O447 O 0.35881 0.80717 0.30564 0.0
O448 O 0.42677 0.80671 0.32584 0.0
O449 O 0.39804 0.8497 0.39564 0.0
O450 O 0.2946 0.80633 0.30027 0.0
O451 O 0.3377 0.86137 0.4308 0.0
C452 C 0.42222 0.93017 0.34079 0.0
C453 C 0.45789 0.92229 0.17516 0.0
C454 C 0.45605 0.96887 0.10742 0.0
C455 C 0.44423 0.96141 0.15406 0.0
C456 C 0.48233 0.93808 0.08088 0.0
C457 C 0.48492 0.89139 0.15057 0.0
C458 C 0.49724 0.89948 0.10304 0.0
C459 C 0.31307 0.88729 0.23835 0.0
C460 C 0.44207 0.91603 0.22258 0.0
C461 C 0.47413 0.73364 0.10992 0.0
C462 C 0.43175 0.71046 0.08771 0.0
C463 C 0.32269 0.78064 0.2836 0.0
C464 C 0.2837 0.80047 0.45285 0.0
C465 C 0.30351 0.75767 0.45557 0.0
C466 C 0.29798 0.73299 0.49693 0.0
C467 C 0.27173 0.75058 0.53419 0.0
C468 C 0.25681 0.8171 0.48881 0.0
C469 C 0.25051 0.79156 0.5295 0.0
C470 C 0.42747 0.82227 0.37737 0.0
C471 C 0.2976 0.83611 0.4208 0.0
H472 H 0.42286 0.98474 0.17309 0.0
H473 H 0.49055 0.94304 0.0431 0.0
H474 H 0.49725 0.86261 0.16843 0.0
H475 H 0.51795 0.87599 0.08353 0.0
H476 H 0.32564 0.74693 0.42847 0.0
H477 H 0.26868 0.73484 0.56839 0.0
H478 H 0.24268 0.85167 0.48699 0.0
H479 H 0.23082 0.80498 0.55855 0.0
Tb480 Tb 0.66501 0.10112 0.51505 0.0
C481 C 0.54585 0.07059 0.67714 0.0
C482 C 0.48451 1.00034 0.63796 0.0
C483 C 0.49253 0.04165 0.72953 0.0
C484 C 0.52294 1.03359 0.63402 0.0
C485 C 0.53326 0.07137 0.72654 0.0
C486 C 0.46738 1.00926 0.68446 0.0
C487 C 0.59583 0.14195 0.76201 0.0
N488 N 0.57906 0.10756 0.66985 0.0
C489 C 0.6034 0.14473 0.71115 0.0
C490 C 0.56033 0.10522 0.76979 0.0
Tb491 Tb 0.58047 0.11071 0.5851 0.0
N492 N 0.53595 1.03411 0.58717 0.0
C493 C 0.51528 0.99728 0.54364 0.0
C494 C 0.46367 0.96128 0.5944 0.0
C495 C 0.48076 0.95722 0.54761 0.0
H496 H 0.62919 0.17541 0.70487 0.0
H497 H 0.46475 0.927 0.5137 0.0
H498 H 0.43487 0.99118 0.68544 0.0
H499 H 0.61587 0.16985 0.795 0.0
H500 H 0.5235 1.00062 0.5055 0.0
H501 H 0.78228 0.28351 0.58104 0.0
H502 H 0.43476 0.93435 0.59673 0.0
H503 H 0.61307 1.03528 0.39684 0.0
H504 H 0.72175 0.21313 0.59109 0.0
H505 H 0.62671 1.03631 0.30585 0.0
H506 H 0.47869 0.04556 0.765 0.0
H507 H 0.81269 0.2704 0.49832 0.0
H508 H 0.80938 0.21382 0.40946 0.0
H509 H 0.55351 0.10468 0.80906 0.0
H510 H 0.76367 0.15991 0.3304 0.0
N511 N 0.7086 0.17737 0.51008 0.0
C512 C 0.72987 0.21498 0.55265 0.0
C513 C 0.78251 0.24621 0.50085 0.0
C514 C 0.76034 0.20731 0.45789 0.0
C515 C 0.7655 0.25295 0.54767 0.0
C516 C 0.72129 0.17601 0.46285 0.0
H517 H 0.68964 0.09831 0.28912 0.0
N518 N 0.66435 0.10244 0.42958 0.0
C519 C 0.64689 0.06495 0.33802 0.0
C520 C 0.69777 0.13816 0.42073 0.0
C521 C 0.63918 0.06478 0.38936 0.0
C522 C 0.68283 0.0999 0.32872 0.0
C523 C 0.71014 0.13501 0.37095 0.0
O524 O 0.70196 0.04655 0.48389 0.0
O525 O 0.60924 0.05154 0.53713 0.0
O526 O 0.6241 0.07586 0.62964 0.0
O527 O 0.68226 0.11899 0.5989 0.0
O528 O 0.6385 1.01395 0.48322 0.0
O529 O 0.72423 0.10357 0.55725 0.0
O530 O 0.54529 0.16788 0.61479 0.0
O531 O 0.63674 0.16016 0.56406 0.0
O532 O 0.62261 0.13929 0.47201 0.0
O533 O 0.56503 0.09457 0.50135 0.0
O534 O 0.60697 0.19729 0.61806 0.0
O535 O 0.5211 0.10837 0.54329 0.0
C536 C 0.60874 1.00283 0.51109 0.0
C537 C 0.77632 0.06831 0.51344 0.0
C538 C 0.84514 0.04867 0.53647 0.0
C539 C 0.80227 0.04539 0.54355 0.0
C540 C 0.86294 0.07737 0.50103 0.0
C541 C 0.79311 0.09323 0.4751 0.0
C542 C 0.83678 0.09969 0.47038 0.0
C543 C 0.66585 0.09103 0.6315 0.0
C544 C 0.73207 0.0641 0.52339 0.0
C545 C 0.75086 0.16382 0.36666 0.0
C546 C 0.77686 0.1964 0.41115 0.0
C547 C 0.63707 0.20857 0.59071 0.0
C548 C 0.47112 0.14922 0.58624 0.0
C549 C 0.44682 0.17429 0.55627 0.0
C550 C 0.40442 0.1741 0.56365 0.0
C551 C 0.38617 0.1495 0.60153 0.0
C552 C 0.45324 0.1249 0.62447 0.0
C553 C 0.41043 0.12431 0.63131 0.0
C554 C 0.58087 0.12631 0.47163 0.0
C555 C 0.5148 0.14995 0.57575 0.0
H556 H 0.78864 1.02283 0.57088 0.0
H557 H 0.89613 0.0795 0.49465 0.0
H558 H 0.77257 0.10642 0.44844 0.0
H559 H 0.85024 0.12095 0.44243 0.0
H560 H 0.46107 0.1948 0.52788 0.0
H561 H 0.35334 0.15005 0.60824 0.0
H562 H 0.47206 0.10681 0.64883 0.0
H563 H 0.39533 0.10311 0.65829 0.0
Tb564 Tb 0.3249 0.37526 0.80433 0.0
C565 C 0.46772 0.25347 0.83573 0.0
C566 C 0.51679 0.30801 0.90973 0.0
C567 C 0.52818 0.22053 0.86948 0.0
C568 C 0.48119 0.30113 0.87179 0.0
C569 C 0.49057 0.21223 0.83496 0.0
C570 C 0.54039 0.26779 0.90793 0.0
C571 C 0.43951 0.15794 0.7632 0.0
N572 N 0.43454 0.24907 0.7985 0.0
C573 C 0.42029 0.20166 0.76184 0.0
C574 C 0.47565 0.16433 0.79849 0.0
Tb575 Tb 0.41535 0.32866 0.79263 0.0
N576 N 0.46093 0.3417 0.86804 0.0
C577 C 0.47512 0.39034 0.90191 0.0
C578 C 0.52856 0.35583 0.94725 0.0
C579 C 0.50714 0.39693 0.94365 0.0
H580 H 0.39382 0.19697 0.73187 0.0
H581 H 0.51586 0.43395 0.97247 0.0
H582 H 0.56752 0.27266 0.93669 0.0
H583 H 0.42746 0.11952 0.73689 0.0
H584 H 0.46097 0.42391 0.89812 0.0
H585 H 0.22478 0.2727 0.62342 0.0
H586 H 0.55455 0.36162 0.97826 0.0
H587 H 0.34656 0.50583 0.86814 0.0
H588 H 0.27787 0.28033 0.69889 0.0
H589 H 0.3146 0.58422 0.86414 0.0
H590 H 0.54718 0.19006 0.86774 0.0
H591 H 0.18736 0.34616 0.61793 0.0
H592 H 0.17597 0.43645 0.65963 0.0
H593 H 0.49087 0.13142 0.79918 0.0
H594 H 0.19632 0.51785 0.72964 0.0
N595 N 0.27999 0.36349 0.72872 0.0
C596 C 0.26543 0.3151 0.69436 0.0
C597 C 0.21325 0.35143 0.64904 0.0
C598 C 0.22521 0.39891 0.68719 0.0
C599 C 0.23406 0.30966 0.65228 0.0
C600 C 0.26042 0.40477 0.72539 0.0
H601 H 0.25313 0.57543 0.79881 0.0
N602 N 0.30668 0.4555 0.79988 0.0
C603 C 0.30249 0.54659 0.8365 0.0
C604 C 0.27406 0.45209 0.76222 0.0
C605 C 0.32079 0.50215 0.83759 0.0
C606 C 0.26737 0.54174 0.79994 0.0
C607 C 0.25194 0.49404 0.76314 0.0
O608 O 0.29194 0.39739 0.86811 0.0
O609 O 0.37413 0.3496 0.85103 0.0
O610 O 0.36924 0.25721 0.81154 0.0
O611 O 0.30584 0.28298 0.79219 0.0
O612 O 0.36019 0.42202 0.87835 0.0
O613 O 0.26474 0.32703 0.80778 0.0
O614 O 0.44775 0.30471 0.72874 0.0
O615 O 0.36601 0.35403 0.7459 0.0
O616 O 0.37039 0.44677 0.78476 0.0
O617 O 0.43408 0.42105 0.8029 0.0
O618 O 0.37975 0.28071 0.71963 0.0
O619 O 0.47454 0.37723 0.78668 0.0
C620 C 0.38196 0.389 0.89097 0.0
C621 C 0.21592 0.3715 0.8512 0.0
C622 C 0.14147 0.34822 0.86657 0.0
C623 C 0.18147 0.33447 0.86156 0.0
C624 C 0.13469 0.39641 0.85444 0.0
C625 C 0.20935 0.42183 0.84513 0.0
C626 C 0.16848 0.43271 0.84309 0.0
C627 C 0.32601 0.24447 0.80269 0.0
C628 C 0.25871 0.35823 0.85032 0.0
C629 C 0.21473 0.48676 0.72815 0.0
C630 C 0.20229 0.43987 0.68919 0.0
C631 C 0.35833 0.31392 0.7067 0.0
C632 C 0.52366 0.33282 0.74434 0.0
C633 C 0.55748 0.37031 0.73352 0.0
C634 C 0.59855 0.35901 0.73214 0.0
C635 C 0.60664 0.31275 0.74747 0.0
C636 C 0.53151 0.28377 0.75272 0.0
C637 C 0.57313 0.27542 0.75798 0.0
C638 C 0.41364 0.45948 0.79248 0.0
C639 C 0.48051 0.34486 0.74483 0.0
H640 H 0.18653 0.29656 0.86813 0.0
H641 H 0.10454 0.4085 0.85915 0.0
H642 H 0.23583 0.45359 0.84443 0.0
H643 H 0.16375 0.47087 0.83634 0.0
H644 H 0.55129 0.4068 0.72431 0.0
H645 H 0.63789 0.30282 0.7461 0.0
H646 H 0.50555 0.25129 0.75322 0.0
H647 H 0.5789 0.23858 0.76717 0.0
Tb648 Tb 0.10229 0.15776 0.5752 0.0
C649 C 0.16126 0.0434 0.39974 0.0
C650 C 0.09649 1.00729 0.34054 0.0
C651 C 0.16423 1.02676 0.30656 0.0
C652 C 0.11797 1.02598 0.39187 0.0
C653 C 0.18514 0.0452 0.35772 0.0
C654 C 0.11986 1.00738 0.29798 0.0
C655 C 0.24889 0.084 0.41951 0.0
N656 N 0.18185 0.05696 0.45172 0.0
C657 C 0.22628 0.07942 0.46205 0.0
C658 C 0.22925 0.06532 0.36819 0.0
Tb659 Tb 0.13613 0.0487 0.51687 0.0
N660 N 0.09675 1.02784 0.43431 0.0
C661 C 0.05296 1.01273 0.42676 0.0
C662 C 0.05216 0.99058 0.33342 0.0
C663 C 0.03023 0.9961 0.37659 0.0
H664 H 0.19767 0.06065 0.47373 0.0
H665 H 0.99579 0.98929 0.37118 0.0
H666 H 0.10394 0.99367 0.25843 0.0
H667 H 0.28266 0.10283 0.42701 0.0
H668 H 0.03502 1.01671 0.45914 0.0
H669 H 0.23521 0.21939 0.72964 0.0
H670 H 0.03467 0.97564 0.29471 0.0
H671 H 0.99384 0.13507 0.58357 0.0
H672 H 0.20039 0.19336 0.639 0.0
H673 H 0.94689 0.12238 0.64996 0.0
H674 H 0.18199 1.0273 0.27353 0.0
H675 H 0.19183 0.21844 0.80194 0.0
H676 H 0.11999 0.19622 0.83127 0.0
H677 H 0.24849 0.0682 0.33672 0.0
H678 H 0.04187 0.16555 0.80924 0.0
N679 N 0.13732 0.17567 0.65869 0.0
C680 C 0.18077 0.19358 0.66986 0.0
C681 C 0.17625 0.20677 0.76209 0.0
C682 C 0.13193 0.18858 0.75086 0.0
C683 C 0.20079 0.20842 0.72136 0.0
C684 C 0.11314 0.17363 0.69814 0.0
H685 H 0.97739 0.13656 0.74195 0.0
N686 N 0.0526 0.14979 0.63508 0.0
C687 C 0.98134 0.13208 0.66076 0.0
C688 C 0.0694 0.15836 0.68583 0.0
C689 C 1.00859 0.13928 0.62308 0.0
C690 C 0.99861 0.14007 0.71249 0.0
C691 C 0.04302 0.1548 0.72587 0.0
O692 O 0.07411 0.22543 0.58648 0.0
O693 O 0.09789 0.10854 0.49518 0.0
O694 O 0.19425 0.11912 0.54293 0.0
O695 O 0.16195 0.1893 0.54208 0.0
O696 O 0.06085 0.16288 0.50436 0.0
O697 O 0.14093 0.23479 0.57969 0.0
O698 O 0.16199 0.97911 0.50425 0.0
O699 O 0.14118 0.09812 0.59712 0.0
O700 O 0.04513 0.08851 0.55616 0.0
O701 O 0.07656 1.01679 0.54993 0.0
O702 O 0.17871 0.04398 0.58696 0.0
O703 O 0.09719 0.97343 0.51851 0.0
C704 C 0.07206 0.13074 0.4664 0.0
C705 C 0.10302 0.28652 0.5346 0.0
C706 C 0.12886 0.32511 0.46155 0.0
C707 C 0.13701 0.30291 0.50567 0.0
C708 C 0.08705 0.33156 0.44785 0.0
C709 C 0.06222 0.29557 0.52009 0.0
C710 C 0.05436 0.31762 0.47718 0.0
C711 C 0.19686 0.16961 0.53768 0.0
C712 C 0.10818 0.25738 0.57784 0.0
C713 C 0.06162 0.16772 0.77816 0.0
C714 C 0.10603 0.18521 0.79069 0.0
C715 C 0.1672 0.07542 0.62545 0.0
C716 C 0.13602 0.91969 0.55955 0.0
C717 C 0.10268 0.89987 0.5881 0.0
C718 C 0.11229 0.8769 0.6314 0.0
C719 C 0.15505 0.8735 0.64464 0.0
C720 C 0.17777 0.91323 0.57352 0.0
C721 C 0.18713 0.89084 0.61577 0.0
C722 C 0.04252 1.0374 0.55833 0.0
C723 C 0.12882 0.94889 0.51669 0.0
H724 H 0.16905 0.29759 0.51662 0.0
H725 H 0.07983 0.3491 0.41497 0.0
H726 H 0.03585 0.28468 0.54145 0.0
H727 H 0.02255 0.32385 0.46648 0.0
H728 H 0.07003 0.90331 0.57753 0.0
H729 H 0.1637 0.85592 0.67701 0.0
H730 H 0.20372 0.9264 0.55229 0.0
H731 H 0.21968 0.88704 0.62637 0.0
Tb732 Tb 0.40348 0.87601 0.7572 0.0
C733 C 0.36867 0.82334 0.94543 0.0
C734 C 0.40706 0.75162 0.94035 0.0
C735 C 0.41036 0.81441 0.02291 0.0
C736 C 0.38194 0.78086 0.91608 0.0
C737 C 0.38071 0.83905 0.99957 0.0
C738 C 0.42491 0.7721 0.99253 0.0
C739 C 0.32881 0.89609 1.00251 0.0
N740 N 0.34198 0.84777 0.92018 0.0
C741 C 0.32049 0.88219 0.94795 0.0
C742 C 0.35994 0.87559 0.02837 0.0
Tb743 Tb 0.33417 0.82441 0.83055 0.0
N744 N 0.36453 0.76352 0.86535 0.0
C745 C 0.36332 0.7115 0.84041 0.0
C746 C 0.41027 0.70084 0.91289 0.0
C747 C 0.38591 0.67931 0.86408 0.0
H748 H 0.29746 0.89942 0.92819 0.0
H749 H 0.38547 0.63852 0.84398 0.0
H750 H 0.44842 0.75386 1.00982 0.0
H751 H 0.31204 0.92363 0.0245 0.0
H752 H 0.34575 0.69454 0.80216 0.0
H753 H 0.35646 0.06521 0.74703 0.0
H754 H 0.42847 0.67629 0.93064 0.0
H755 H 0.43981 0.79872 0.66187 0.0
H756 H 0.39185 1.00624 0.78889 0.0
H757 H 0.4309 0.77899 0.56582 0.0
H758 H 0.42066 0.826 0.06444 0.0
H759 H 0.32105 1.03365 0.6562 0.0
H760 H 0.30817 0.96295 0.57359 0.0
H761 H 0.36679 0.88703 0.07048 0.0
H762 H 0.33477 0.89024 0.52174 0.0
N763 N 0.37574 0.9392 0.72315 0.0
C764 C 0.37644 0.99071 0.74951 0.0
C765 C 0.33644 1.007 0.67456 0.0
C766 C 0.34014 0.95685 0.64627 0.0
C767 C 0.35657 1.02503 0.72569 0.0
C768 C 0.3612 0.92421 0.67144 0.0
H769 H 0.38209 0.82157 0.51777 0.0
N770 N 0.39738 0.85323 0.66823 0.0
C771 C 0.4138 0.80671 0.58697 0.0
C772 C 0.37364 0.8805 0.64245 0.0
C773 C 0.41887 0.81809 0.64146 0.0
C774 C 0.38587 0.83044 0.55995 0.0
C775 C 0.36539 0.86797 0.58782 0.0
O776 O 0.44988 0.92163 0.72619 0.0
O777 O 0.39375 0.80578 0.79646 0.0
O778 O 0.38464 0.88228 0.8806 0.0
O779 O 0.40427 0.93745 0.82676 0.0
O780 O 0.44163 0.80996 0.75552 0.0
O781 O 0.46688 0.89967 0.79799 0.0
O782 O 0.28926 0.77914 0.86363 0.0
O783 O 0.34354 0.89453 0.79098 0.0
O784 O 0.35337 0.8178 0.70529 0.0
O785 O 0.33292 0.76328 0.76006 0.0
O786 O 0.2963 0.89097 0.83279 0.0
O787 O 0.27038 0.79881 0.79125 0.0
C788 C 0.42561 0.77925 0.7851 0.0
C789 C 0.51973 0.90665 0.73874 0.0
C790 C 0.59553 0.90607 0.75508 0.0
C791 C 0.55501 0.90289 0.77209 0.0
C792 C 0.60035 0.91101 0.70395 0.0
C793 C 0.52429 0.90553 0.68603 0.0
C794 C 0.56443 0.90829 0.66898 0.0
C795 C 0.40064 0.92914 0.8733 0.0
C796 C 0.48105 0.92048 0.7601 0.0
C797 C 0.341 0.89772 0.56329 0.0
C798 C 0.32701 0.94065 0.59271 0.0
C799 C 0.31202 0.92157 0.80283 0.0
C800 C 0.21835 0.79043 0.85136 0.0
C801 C 0.18283 0.79316 0.818 0.0
C802 C 0.14216 0.78788 0.83463 0.0
C803 C 0.13713 0.7801 0.88495 0.0
C804 C 0.21369 0.79025 0.90383 0.0
C805 C 0.17317 0.78388 0.9202 0.0
C806 C 0.33636 0.77113 0.71307 0.0
C807 C 0.2574 0.77835 0.82986 0.0
H808 H 0.55171 0.90093 0.81219 0.0
H809 H 0.63154 0.91642 0.69078 0.0
H810 H 0.49721 0.90464 0.65831 0.0
H811 H 0.56789 0.91009 0.62903 0.0
H812 H 0.1862 0.79618 0.77814 0.0
H813 H 0.10574 0.7723 0.89744 0.0
H814 H 0.24106 0.79291 0.93176 0.0
H815 H 0.16963 0.78049 0.95986 0.0
Tb816 Tb 0.63073 0.05548 0.08553 0.0
C817 C 0.52007 0.15926 0.96408 0.0
C818 C 0.49062 0.08652 0.88974 0.0
C819 C 0.44947 0.15401 0.91801 0.0
C820 C 0.52483 0.11378 0.92888 0.0
C821 C 0.48259 0.18017 0.9583 0.0
C822 C 0.45365 0.10761 0.88367 0.0
C823 C 0.51552 0.25626 0.02731 0.0
N824 N 0.55245 0.18383 1.00309 0.0
C825 C 0.55184 0.23411 0.03188 0.0
C826 C 0.48019 0.22833 0.99149 0.0
Tb827 Tb 0.6122 0.14622 1.00293 0.0
N828 N 0.56135 0.09422 0.93507 0.0
C829 C 0.56296 0.04486 0.9054 0.0
C830 C 0.493 1.03674 0.86006 0.0
C831 C 0.52907 1.01592 0.8682 0.0
H832 H 0.57963 0.25741 0.0586 0.0
H833 H 0.53046 0.9765 0.84747 0.0
H834 H 0.42753 0.0875 0.853 0.0
H835 H 0.51513 0.29566 0.05011 0.0
H836 H 0.58793 1.02386 0.91186 0.0
H837 H 0.7105 0.21875 0.2431 0.0
H838 H 0.46617 1.01284 0.83253 0.0
H839 H 0.65827 0.94059 0.03136 0.0
H840 H 0.65353 0.17218 0.17499 0.0
H841 H 0.72147 0.89884 0.03983 0.0
H842 H 0.42069 0.16965 0.91274 0.0
H843 H 0.77538 0.18219 0.25725 0.0
H844 H 0.81543 0.10887 0.23224 0.0
H845 H 0.45222 0.24583 0.98766 0.0
H846 H 0.82071 1.02588 0.17194 0.0
N847 N 0.68299 0.10579 0.14981 0.0
C848 C 0.68012 0.15348 0.18087 0.0
C849 C 0.7492 0.15956 0.22815 0.0
C850 C 0.75231 0.11089 0.19644 0.0
C851 C 0.71305 0.1808 0.22013 0.0
C852 C 0.71851 0.08488 0.15644 0.0
H853 H 0.78669 0.94869 0.0982 0.0
N854 N 0.68909 1.01535 0.08245 0.0
C855 C 0.72276 0.93956 0.06066 0.0
C856 C 0.72223 1.03932 0.12085 0.0
C857 C 0.68723 0.96335 0.05623 0.0
C858 C 0.75947 0.96754 0.09435 0.0
C859 C 0.75887 1.01698 0.12664 0.0
O860 O 0.60067 0.97598 0.08789 0.0
O861 O 0.58716 0.08388 0.03845 0.0
O862 O 0.58713 0.17025 0.07736 0.0
O863 O 0.59228 0.10839 0.13026 0.0
O864 O 0.57111 1.00472 0.03764 0.0
O865 O 0.63067 1.03699 0.15767 0.0
O866 O 0.64676 0.22767 0.02101 0.0
O867 O 0.65258 0.13138 0.06602 0.0
O868 O 0.66017 1.03427 0.01448 0.0
O869 O 0.64395 0.08708 0.95509 0.0
O870 O 0.68161 0.16008 1.00716 0.0
O871 O 0.60653 0.19048 0.94733 0.0
C872 C 0.55919 0.04301 0.01979 0.0
C873 C 0.58663 0.9607 0.17106 0.0
C874 C 0.55288 0.97612 0.24854 0.0
C875 C 0.56411 0.99114 0.20316 0.0
C876 C 0.5623 0.92884 0.26037 0.0
C877 C 0.59481 0.91251 0.18147 0.0
C878 C 0.584 0.89771 0.22707 0.0
C879 C 0.5795 0.15197 0.11986 0.0
C880 C 0.61266 0.98653 0.13802 0.0
C881 C 0.79244 0.04255 0.16682 0.0
C882 C 0.78915 0.08937 0.20157 0.0
C883 C 0.68817 0.14667 0.05111 0.0
C884 C 0.66045 0.25986 0.94432 0.0
C885 C 0.68202 0.228 0.91157 0.0
C886 C 0.69061 0.24001 0.86392 0.0
C887 C 0.67932 0.28564 0.85034 0.0
C888 C 0.65158 0.30701 0.93223 0.0
C889 C 0.65917 0.31838 0.88431 0.0
C890 C 0.66128 0.04754 0.96862 0.0
C891 C 0.63208 0.23381 0.97535 0.0
H892 H 0.55838 1.0287 0.19462 0.0
H893 H 0.55349 0.91674 0.29548 0.0
H894 H 0.61212 0.8883 0.15642 0.0
H895 H 0.5944 0.86354 0.23732 0.0
H896 H 0.68771 0.19072 0.92063 0.0
H897 H 0.68493 0.29489 0.81309 0.0
H898 H 0.63404 0.33141 0.95684 0.0
H899 H 0.64663 0.35055 0.8726 0.0
Tb900 Tb 0.4021 0.40847 0.30704 0.0
C901 C 0.24629 0.25341 0.27968 0.0
C902 C 0.22699 0.23864 0.36078 0.0
C903 C 0.1861 0.18208 0.28087 0.0
C904 C 0.25679 0.25955 0.3302 0.0
C905 C 0.2133 0.21251 0.25323 0.0
C906 C 0.19179 0.19726 0.33574 0.0
C907 C 0.23442 0.24102 0.17617 0.0
N908 N 0.27164 0.28636 0.25586 0.0
C909 C 0.2609 0.28643 0.20582 0.0
C910 C 0.21147 0.20287 0.20023 0.0
Tb911 Tb 0.33983 0.28966 0.28015 0.0
N912 N 0.29295 0.2959 0.34847 0.0
C913 C 0.29211 0.32808 0.39683 0.0
C914 C 0.23152 0.26422 0.41304 0.0
C915 C 0.26268 0.31177 0.43026 0.0
H916 H 0.27839 0.31561 0.18734 0.0
H917 H 0.26403 0.33616 0.46896 0.0
H918 H 0.16882 0.17826 0.35777 0.0
H919 H 0.2316 0.2376 0.13543 0.0
H920 H 0.31401 0.36624 0.4117 0.0
H921 H 0.47326 0.354 0.12072 0.0
H922 H 0.20863 0.25133 0.43818 0.0
H923 H 0.46343 0.39263 0.41244 0.0
H924 H 0.42504 0.32537 0.18184 0.0
H925 H 0.51098 0.4711 0.45789 0.0
H926 H 0.1599 0.14958 0.26057 0.0
H927 H 0.53049 0.43748 0.14998 0.0
H928 H 0.57236 0.51126 0.22841 0.0
H929 H 0.1904 0.16842 0.17879 0.0
H930 H 0.58157 0.5465 0.32468 0.0
N931 N 0.45011 0.39474 0.24348 0.0
C932 C 0.44807 0.36262 0.19471 0.0
C933 C 0.50885 0.42464 0.17644 0.0
C934 C 0.51541 0.45045 0.22891 0.0
C935 C 0.47653 0.37795 0.15997 0.0
C936 C 0.48665 0.43063 0.26101 0.0
H937 H 0.55175 0.53711 0.40868 0.0
N938 N 0.46981 0.41368 0.33938 0.0
C939 C 0.50774 0.46538 0.41698 0.0
C940 C 0.49643 0.44191 0.31251 0.0
C941 C 0.48003 0.41926 0.39079 0.0
C942 C 0.53079 0.50042 0.38966 0.0
C943 C 0.529 0.48509 0.33657 0.0
O944 O 0.43023 0.48429 0.35116 0.0
O945 O 0.33399 0.37178 0.29003 0.0
O946 O 0.35381 0.32157 0.20358 0.0
O947 O 0.36729 0.41223 0.23425 0.0
O948 O 0.35493 0.42967 0.35748 0.0
O949 O 0.40442 0.47572 0.27246 0.0
O950 O 0.32983 0.23172 0.20941 0.0
O951 O 0.40294 0.32955 0.2721 0.0
O952 O 0.39143 0.37957 0.38647 0.0
O953 O 0.36453 0.28825 0.35911 0.0
O954 O 0.40087 0.26544 0.30322 0.0
O955 O 0.31873 0.20757 0.28009 0.0
C956 C 0.32123 0.40076 0.32799 0.0
C957 C 0.39732 0.55152 0.33353 0.0
C958 C 0.32944 0.57835 0.33907 0.0
C959 C 0.35343 0.54269 0.31676 0.0
C960 C 0.3491 0.62228 0.38001 0.0
C961 C 0.41748 0.59729 0.37197 0.0
C962 C 0.39311 0.63188 0.3961 0.0
C963 C 0.36115 0.37231 0.1938 0.0
C964 C 0.42057 0.50963 0.31599 0.0
C965 C 0.55592 0.51242 0.30639 0.0
C966 C 0.55019 0.49323 0.25189 0.0
C967 C 0.42704 0.30125 0.28792 0.0
C968 C 0.35095 0.15314 0.22131 0.0
C969 C 0.38337 0.15145 0.26009 0.0
C970 C 0.41728 0.12712 0.24669 0.0
C971 C 0.4169 0.10065 0.19476 0.0
C972 C 0.34904 0.12282 0.17088 0.0
C973 C 0.38198 0.09664 0.15761 0.0
C974 C 0.37907 0.32989 0.39795 0.0
C975 C 0.32269 0.1913 0.23169 0.0
H976 H 0.33781 0.5086 0.28565 0.0
H977 H 0.33116 0.65132 0.39681 0.0
H978 H 0.45159 0.60484 0.38489 0.0
H979 H 0.40838 0.66654 0.42662 0.0
H980 H 0.38296 0.17003 0.30049 0.0
H981 H 0.44255 0.08083 0.18359 0.0
H982 H 0.32238 0.12016 0.14195 0.0
H983 H 0.38055 0.07356 0.11853 0.0
Tb984 Tb 0.60202 0.6576 0.07541 0.0
C985 C 0.66012 0.54314 0.90001 0.0
C986 C 0.59531 0.50747 0.84084 0.0
C987 C 0.66296 0.52751 0.80682 0.0
C988 C 0.61684 0.52569 0.89218 0.0
C989 C 0.6839 0.54569 0.85799 0.0
C990 C 0.61862 0.5079 0.79825 0.0
C991 C 0.7476 0.58465 0.9198 0.0
N992 N 0.68076 0.55637 0.95197 0.0
C993 C 0.72512 0.57916 0.9623 0.0
C994 C 0.72794 0.56635 0.86847 0.0
Tb995 Tb 0.63516 0.54771 0.01721 0.0
N996 N 0.59567 0.52744 0.93467 0.0
C997 C 0.55185 0.51302 0.92712 0.0
C998 C 0.55095 0.49121 0.83374 0.0
C999 C 0.52909 0.49706 0.87694 0.0
H1000 H 0.69659 0.56007 0.97391 0.0
H1001 H 0.49469 0.49111 0.87156 0.0
H1002 H 0.60266 0.4945 0.75868 0.0
H1003 H 0.78132 0.60376 0.92736 0.0
H1004 H 0.53395 0.51725 0.95954 0.0
H1005 H 0.73436 0.71909 0.23056 0.0
H1006 H 0.53345 0.47659 0.79501 0.0
H1007 H 0.49353 0.63559 0.08298 0.0
H1008 H 0.69992 0.69235 0.13978 0.0
H1009 H 0.44615 0.62343 0.1491 0.0
H1010 H 0.68067 0.52853 0.77379 0.0
H1011 H 0.69063 0.71931 0.30262 0.0
H1012 H 0.61853 0.69798 0.33155 0.0
H1013 H 0.7471 0.56986 0.83701 0.0
H1014 H 0.54039 0.66762 0.30907 0.0
N1015 N 0.63668 0.67557 0.15909 0.0
C1016 C 0.68014 0.6931 0.17049 0.0
C1017 C 0.6752 0.70733 0.26268 0.0
C1018 C 0.63087 0.68942 0.25122 0.0
C1019 C 0.69995 0.70832 0.22208 0.0
C1020 C 0.61229 0.67414 0.19841 0.0
H1021 H 0.47617 0.63825 0.24134 0.0
N1022 N 0.55201 0.65035 0.13497 0.0
C1023 C 0.48056 0.63308 0.16013 0.0
C1024 C 0.56856 0.65915 0.18584 0.0
C1025 C 0.50805 0.63992 0.12261 0.0
C1026 C 0.49757 0.64143 0.21202 0.0
C1027 C 0.54196 0.65606 0.2257 0.0
O1028 O 0.57495 0.72621 0.08682 0.0
O1029 O 0.59722 0.60807 0.99549 0.0
O1030 O 0.69348 0.61704 0.04434 0.0
O1031 O 0.66179 0.68756 0.04218 0.0
O1032 O 0.5607 0.66321 1.00479 0.0
O1033 O 0.64145 0.73395 0.07877 0.0
O1034 O 0.66053 0.47763 1.004 0.0
O1035 O 0.6404 0.59751 0.09745 0.0
O1036 O 0.54479 0.58839 0.05641 0.0
O1037 O 0.576 0.51649 0.0507 0.0
O1038 O 0.67759 0.54302 0.08748 0.0
O1039 O 0.59603 0.47267 0.01921 0.0
C1040 C 0.57166 0.63077 0.96683 0.0
C1041 C 0.60431 0.78849 0.03606 0.0
C1042 C 0.62952 0.82969 0.964 0.0
C1043 C 0.63768 0.8042 1.00591 0.0
C1044 C 0.58841 0.83997 0.95389 0.0
C1045 C 0.56431 0.80133 0.025 0.0
C1046 C 0.55647 0.82656 0.98437 0.0
C1047 C 0.69648 0.66737 0.03874 0.0
C1048 C 0.60928 0.75763 0.07808 0.0
C1049 C 0.56033 0.66934 0.27811 0.0
C1050 C 0.60473 0.68666 0.2909 0.0
C1051 C 0.66625 0.57473 0.12596 0.0
C1052 C 0.63482 0.41911 0.06052 0.0
C1053 C 0.60113 0.39721 0.08763 0.0
C1054 C 0.61069 0.37531 0.13176 0.0
C1055 C 0.65381 0.37518 0.14728 0.0
C1056 C 0.67701 0.41585 0.07688 0.0
C1057 C 0.68632 0.39469 0.11998 0.0
C1058 C 0.54212 0.53733 0.05886 0.0
C1059 C 0.62748 0.44782 0.01719 0.0
H1060 H 0.66917 0.796 0.01433 0.0
H1061 H 0.58114 0.85986 0.92276 0.0
H1062 H 0.53857 0.79128 0.04753 0.0
H1063 H 0.52526 0.83572 0.97637 0.0
H1064 H 0.56821 0.3984 0.07541 0.0
H1065 H 0.6625 0.35862 0.18034 0.0
H1066 H 0.70335 0.43078 0.057 0.0
H1067 H 0.71919 0.3935 0.13247 0.0
Tb1068 Tb 0.90388 0.37618 0.25966 0.0
C1069 C 0.86797 0.32403 0.44635 0.0
C1070 C 0.90708 0.25311 0.44196 0.0
C1071 C 0.90915 0.31554 0.52439 0.0
C1072 C 0.88186 0.28198 0.41729 0.0
C1073 C 0.87939 0.33969 0.50061 0.0
C1074 C 0.92439 0.27368 0.49432 0.0
C1075 C 0.82574 0.39431 0.503 0.0
N1076 N 0.84043 0.34715 0.42087 0.0
C1077 C 0.81757 0.38 0.44844 0.0
C1078 C 0.85761 0.3752 0.52914 0.0
Tb1079 Tb 0.83323 0.3241 0.33115 0.0
N1080 N 0.8646 0.26428 0.36655 0.0
C1081 C 0.86363 0.21218 0.34198 0.0
C1082 C 0.91064 0.20235 0.41483 0.0
C1083 C 0.88643 0.18041 0.36599 0.0
H1084 H 0.79389 0.39607 0.42832 0.0
H1085 H 0.88619 0.13957 0.34619 0.0
H1086 H 0.94782 0.25564 0.51205 0.0
H1087 H 0.80814 0.4209 0.52477 0.0
H1088 H 0.84603 0.19486 0.30379 0.0
H1089 H 0.85637 0.56416 0.24638 0.0
H1090 H 0.92889 0.17807 0.4329 0.0
H1091 H 0.93987 0.29565 0.16575 0.0
H1092 H 0.89124 0.50579 0.28985 0.0
H1093 H 0.93166 0.2744 0.06996 0.0
H1094 H 0.91879 0.3269 0.56605 0.0
H1095 H 0.82328 0.53237 0.15462 0.0
H1096 H 0.81306 0.46205 0.07201 0.0
H1097 H 0.86416 0.38672 0.57127 0.0
H1098 H 0.83947 0.38789 0.02222 0.0
N1099 N 0.87688 0.43882 0.22406 0.0
C1100 C 0.87686 0.49021 0.25001 0.0
C1101 C 0.83837 0.50595 0.17367 0.0
C1102 C 0.84276 0.45588 0.14595 0.0
C1103 C 0.85724 0.52414 0.22533 0.0
C1104 C 0.86322 0.42343 0.17212 0.0
H1105 H 0.88478 0.31798 0.02024 0.0
N1106 N 0.899 0.35214 0.17077 0.0
C1107 C 0.91519 0.30332 0.09039 0.0
C1108 C 0.87606 0.3795 0.14401 0.0
C1109 C 0.91979 0.31557 0.14487 0.0
C1110 C 0.8884 0.32767 0.06245 0.0
C1111 C 0.86828 0.36614 0.0894 0.0
O1112 O 0.95055 0.42213 0.22943 0.0
O1113 O 0.89355 0.30541 0.29818 0.0
O1114 O 0.87877 0.38646 0.38323 0.0
O1115 O 0.90593 0.43839 0.32904 0.0
O1116 O 0.94193 0.31022 0.25793 0.0
O1117 O 0.96715 0.3995 0.30113 0.0
O1118 O 0.78808 0.27816 0.36325 0.0
O1119 O 0.84333 0.39454 0.29198 0.0
O1120 O 0.85211 0.32037 0.20813 0.0
O1121 O 0.83343 0.26349 0.26093 0.0
O1122 O 0.79448 0.38946 0.33137 0.0
O1123 O 0.76957 0.29857 0.29126 0.0
C1124 C 0.92555 0.27898 0.28678 0.0
C1125 C 1.02039 0.4069 0.24215 0.0
C1126 C 0.0966 0.40791 0.25855 0.0
C1127 C 0.05599 0.40397 0.2756 0.0
C1128 C 0.10119 0.41376 0.20759 0.0
C1129 C 0.02482 0.40572 0.1894 0.0
C1130 C 0.06507 0.40996 0.1725 0.0
C1131 C 0.8981 0.43179 0.37517 0.0
C1132 C 0.98154 0.42048 0.26339 0.0
C1133 C 0.84481 0.39594 0.0638 0.0
C1134 C 0.83088 0.4395 0.09215 0.0
C1135 C 0.81131 0.4211 0.3029 0.0
C1136 C 0.71734 0.28998 0.35102 0.0
C1137 C 0.68161 0.29182 0.31752 0.0
C1138 C 0.64117 0.28769 0.33467 0.0
C1139 C 0.63655 0.28239 0.38576 0.0
C1140 C 0.71307 0.29141 0.40387 0.0
C1141 C 0.67279 0.28667 0.42088 0.0
C1142 C 0.83599 0.27286 0.21444 0.0
C1143 C 0.75634 0.27772 0.32952 0.0
H1144 H 0.05282 0.40231 0.31581 0.0
H1145 H 0.13235 0.4207 0.19456 0.0
H1146 H 0.99755 0.40407 0.16159 0.0
H1147 H 0.06842 0.41216 0.13256 0.0
H1148 H 0.68462 0.2933 0.27723 0.0
H1149 H 0.60533 0.27591 0.39883 0.0
H1150 H 0.74052 0.29416 0.43172 0.0
H1151 H 0.66959 0.28489 0.46098 0.0
Tb1152 Tb 0.13002 0.55623 0.58606 0.0
C1153 C 0.02202 0.66225 0.4669 0.0
C1154 C 0.99183 0.59077 0.39177 0.0
C1155 C 0.95103 0.65797 0.4223 0.0
C1156 C 0.02635 0.61713 0.43087 0.0
C1157 C 0.98466 0.68362 0.46206 0.0
C1158 C 0.95475 0.61195 0.38713 0.0
C1159 C 1.01914 0.76011 0.5297 0.0
N1160 N 0.05499 0.68659 0.50527 0.0
C1161 C 0.05519 0.73735 0.5337 0.0
C1162 C 0.98307 0.73211 0.4952 0.0
Tb1163 Tb 0.11428 0.64785 0.50411 0.0
N1164 N 0.063 0.59747 0.43563 0.0
C1165 C 0.06471 0.54931 0.40368 0.0
C1166 C 0.99406 0.54178 0.36041 0.0
C1167 C 0.03056 0.52129 0.36643 0.0
H1168 H 0.08342 0.76058 0.55968 0.0
H1169 H 0.03235 0.48294 0.34363 0.0
H1170 H 0.92827 0.59225 0.35674 0.0
H1171 H 1.01947 0.80003 0.55178 0.0
H1172 H 0.09022 0.52856 0.4075 0.0
H1173 H 0.21052 0.72126 0.74165 0.0
H1174 H 0.96686 0.51821 0.33321 0.0
H1175 H 0.15717 0.44082 0.5325 0.0
H1176 H 0.15374 0.67449 0.6734 0.0
H1177 H 0.21968 0.39826 0.54233 0.0
H1178 H 0.9223 0.6739 0.41789 0.0
H1179 H 0.27403 0.68303 0.75829 0.0
H1180 H 0.31271 0.60779 0.73626 0.0
H1181 H 0.95527 0.75005 0.49194 0.0
H1182 H 0.31753 0.52371 0.67741 0.0
N1183 N 0.18188 0.60643 0.65076 0.0
C1184 C 0.17958 0.65499 0.6806 0.0
C1185 C 0.24768 0.66011 0.72958 0.0
C1186 C 0.25014 0.6104 0.6993 0.0
C1187 C 0.21237 0.68238 0.71999 0.0
C1188 C 0.21663 0.58451 0.65891 0.0
H1189 H 0.28409 0.44692 0.60289 0.0
N1190 N 0.18779 0.51515 0.58459 0.0
C1191 C 0.22094 0.43883 0.56353 0.0
C1192 C 0.2203 0.53853 0.62388 0.0
C1193 C 0.18583 0.46318 0.55822 0.0
C1194 C 0.25715 0.46613 0.59842 0.0
C1195 C 0.25644 0.51553 0.63075 0.0
O1196 O 0.09896 0.47667 0.58731 0.0
O1197 O 0.08722 0.58595 0.53917 0.0
O1198 O 0.09019 0.6733 0.57893 0.0
O1199 O 0.0914 0.60948 0.63028 0.0
O1200 O 0.07124 0.50625 0.53619 0.0
O1201 O 0.12895 0.53676 0.65766 0.0
O1202 O 0.15038 0.72861 0.52205 0.0
O1203 O 0.15458 0.63143 0.56646 0.0
O1204 O 0.15913 0.53382 0.51522 0.0
O1205 O 0.14526 0.58784 0.45611 0.0
O1206 O 0.18376 0.65939 0.50741 0.0
O1207 O 0.10789 0.6932 0.44977 0.0
C1208 C 0.05958 0.54507 0.51906 0.0
C1209 C 0.08524 0.45973 0.67019 0.0
C1210 C 0.0538 0.47549 0.74928 0.0
C1211 C 0.06335 0.49003 0.70317 0.0
C1212 C 0.06363 0.42826 0.76073 0.0
C1213 C 0.09365 0.41138 0.68 0.0
C1214 C 0.08422 0.39676 0.7262 0.0
C1215 C 0.08042 0.6543 0.62043 0.0
C1216 C 0.11093 0.48641 0.63737 0.0
C1217 C 0.2896 0.54083 0.6715 0.0
C1218 C 0.28652 0.58822 0.7055 0.0
C1219 C 0.19037 0.64531 0.55109 0.0
C1220 C 0.16178 0.76131 0.44514 0.0
C1221 C 0.18172 0.7285 0.41108 0.0
C1222 C 0.18786 0.7392 0.36241 0.0
C1223 C 0.17615 0.78463 0.34901 0.0
C1224 C 0.15214 0.80809 0.43295 0.0
C1225 C 0.15731 0.8181 0.38396 0.0
C1226 C 0.1611 0.54716 0.46949 0.0
C1227 C 0.13449 0.73582 0.47737 0.0
H1228 H 0.05712 0.52744 0.69475 0.0
H1229 H 0.05591 0.41644 0.79632 0.0
H1230 H 0.11016 0.38698 0.65395 0.0
H1231 H 0.09474 0.3624 0.73589 0.0
H1232 H 0.18807 0.69156 0.42034 0.0
H1233 H 0.1804 0.79305 0.31118 0.0
H1234 H 0.13539 0.83285 0.45839 0.0
H1235 H 0.14405 0.84988 0.37242 0.0
Tb1236 Tb 0.82495 0.87492 0.304 0.0
C1237 C 0.96797 0.75254 0.33582 0.0
C1238 C 1.01743 0.80726 0.40938 0.0
C1239 C 0.02878 0.71976 0.36885 0.0
C1240 C 0.98154 0.80023 0.37184 0.0
C1241 C 0.99091 0.71129 0.33474 0.0
C1242 C 0.04119 0.76713 0.40719 0.0
C1243 C 0.9391 0.65676 0.26391 0.0
N1244 N 0.93449 0.74809 0.299 0.0
C1245 C 0.91986 0.70049 0.26268 0.0
C1246 C 0.97566 0.6632 0.29849 0.0
Tb1247 Tb 0.9153 0.82778 0.29313 0.0
N1248 N 0.96102 0.84067 0.36843 0.0
C1249 C 0.97524 0.88934 0.40229 0.0
C1250 C 0.02933 0.85515 0.44687 0.0
C1251 C 1.00764 0.8961 0.44364 0.0
H1252 H 0.89303 0.69553 0.23313 0.0
H1253 H 1.01657 0.93325 0.47232 0.0
H1254 H 0.06862 0.77216 0.43558 0.0
H1255 H 0.92669 0.61816 0.23815 0.0
H1256 H 0.96106 0.92291 0.39857 0.0
H1257 H 0.7252 0.7708 0.12342 0.0
H1258 H 0.05564 0.86114 0.47758 0.0
H1259 H 0.84538 1.00517 0.36786 0.0
H1260 H 0.7776 0.77905 0.19968 0.0
H1261 H 0.8141 0.08379 0.36245 0.0
H1262 H 0.04791 0.6894 0.36684 0.0
H1263 H 0.6894 0.84504 0.11522 0.0
H1264 H 0.6781 0.93568 0.15552 0.0
H1265 H 0.99067 0.62994 0.29881 0.0
H1266 H 0.69859 1.01786 0.22471 0.0
N1267 N 0.78067 0.86272 0.22777 0.0
C1268 C 0.76567 0.8139 0.19423 0.0
C1269 C 0.71495 0.85043 0.14676 0.0
C1270 C 0.72722 0.89847 0.18409 0.0
C1271 C 0.7348 0.80822 0.15157 0.0
C1272 C 0.762 0.90442 0.22295 0.0
H1273 H 0.75434 0.07554 0.29472 0.0
N1274 N 0.80725 0.95524 0.29822 0.0
C1275 C 0.80268 0.0464 0.33424 0.0
C1276 C 0.77568 0.95208 0.25931 0.0
C1277 C 0.8206 1.00179 0.33623 0.0
C1278 C 0.76868 0.04192 0.29621 0.0
C1279 C 0.75393 0.99429 0.25911 0.0
O1280 O 0.79147 0.8983 0.36698 0.0
O1281 O 0.87398 0.84933 0.35119 0.0
O1282 O 0.86894 0.75668 0.31227 0.0
O1283 O 0.80567 0.78269 0.2926 0.0
O1284 O 0.86016 0.92179 0.37817 0.0
O1285 O 0.76488 0.82681 0.30776 0.0
O1286 O 0.94772 0.80391 0.22927 0.0
O1287 O 0.86597 0.85257 0.24571 0.0
O1288 O 0.87068 0.94613 0.28445 0.0
O1289 O 0.93416 0.92023 0.30323 0.0
O1290 O 0.87979 0.77913 0.22047 0.0
O1291 O 0.97442 0.87652 0.28714 0.0
C1292 C 0.88183 0.88879 0.39107 0.0
C1293 C 0.71552 0.87114 0.34997 0.0
C1294 C 0.64157 0.84794 0.367 0.0
C1295 C 0.68201 0.8352 0.3634 0.0
C1296 C 0.63353 0.89397 0.35125 0.0
C1297 C 0.70768 0.91953 0.33971 0.0
C1298 C 0.66642 0.92921 0.3369 0.0
C1299 C 0.8257 0.74412 0.30329 0.0
C1300 C 0.75855 0.85862 0.34973 0.0
C1301 C 0.71706 0.98688 0.22354 0.0
C1302 C 0.70462 0.93964 0.18505 0.0
C1303 C 0.85824 0.81192 0.20695 0.0
C1304 C 0.02361 0.83225 0.24476 0.0
C1305 C 0.05741 0.86999 0.23423 0.0
C1306 C 0.09839 0.85852 0.23191 0.0
C1307 C 0.10637 0.81164 0.24593 0.0
C1308 C 0.03145 0.78295 0.25241 0.0
C1309 C 0.07299 0.77431 0.25668 0.0
C1310 C 0.91389 0.95869 0.29242 0.0
C1311 C 0.98042 0.84415 0.24533 0.0
H1312 H 0.68806 0.79888 0.37296 0.0
H1313 H 0.60302 0.90533 0.35501 0.0
H1314 H 0.73347 0.95089 0.33646 0.0
H1315 H 0.66064 0.96572 0.32688 0.0
H1316 H 0.05111 0.90673 0.22581 0.0
H1317 H 0.13737 0.80131 0.24325 0.0
H1318 H 1.00548 0.75044 0.25294 0.0
H1319 H 0.07875 0.73721 0.26513 0.0
Tb1320 Tb 0.90363 0.34661 0.76242 0.0
C1321 C 0.79001 0.45674 0.90543 0.0
C1322 C 0.83587 0.50923 0.98323 0.0
C1323 C 0.75955 0.49167 0.98227 0.0
C1324 C 0.83046 0.47524 0.93342 0.0
C1325 C 0.7538 0.46512 0.92965 0.0
C1326 C 0.80009 0.51876 1.00694 0.0
C1327 C 0.7098 0.41873 0.84874 0.0
N1328 N 0.78564 0.42243 0.85847 0.0
C1329 C 0.74573 0.40331 0.8299 0.0
C1330 C 0.71327 0.44551 0.90058 0.0
Tb1331 Tb 0.83839 0.37444 0.85408 0.0
N1332 N 0.86294 0.45285 0.91595 0.0
C1333 C 0.9023 0.46677 0.94596 0.0
C1334 C 0.87665 0.52676 1.01066 0.0
C1335 C 0.91059 0.50819 0.99042 0.0
H1336 H 0.74091 0.37236 0.79463 0.0
H1337 H 0.94217 0.52282 1.01175 0.0
H1338 H 0.80353 0.54286 0.04625 0.0
H1339 H 0.67881 0.40495 0.82512 0.0
H1340 H 0.92738 0.44537 0.93737 0.0
H1341 H 0.79018 0.19378 0.61368 0.0
H1342 H 0.88157 0.55026 0.04945 0.0
H1343 H 1.00062 0.33047 0.80746 0.0
H1344 H 0.80851 0.27197 0.68533 0.0
H1345 H 0.0588 0.29462 0.76856 0.0
H1346 H 0.73317 0.49499 1.00387 0.0
H1347 H 0.84556 0.16966 0.56061 0.0
H1348 H 0.92406 0.18357 0.54939 0.0
H1349 H 0.68446 0.45088 0.91726 0.0
H1350 H 0.99852 0.22562 0.58729 0.0
N1351 N 0.87663 0.27645 0.69031 0.0
C1352 C 0.83449 0.25657 0.66924 0.0
C1353 C 0.85463 0.19889 0.59681 0.0
C1354 C 0.89735 0.22167 0.61571 0.0
C1355 C 0.82321 0.21386 0.62577 0.0
C1356 C 0.90714 0.25735 0.6648 0.0
H1357 H 0.04996 0.25808 0.67354 0.0
N1358 N 0.95472 0.29859 0.73933 0.0
C1359 C 0.02794 0.28863 0.74542 0.0
C1360 C 0.94811 0.27106 0.68948 0.0
C1361 C 0.99407 0.30636 0.76821 0.0
C1362 C 0.02273 0.26756 0.69182 0.0
C1363 C 0.98192 0.25695 0.66338 0.0
O1364 O 0.96217 0.39014 0.74999 0.0
O1365 O 0.88624 0.41033 0.81594 0.0
O1366 O 0.81661 0.41029 0.78785 0.0
O1367 O 0.8421 0.35969 0.72008 0.0
O1368 O 0.94865 0.40161 0.82484 0.0
O1369 O 0.90167 0.40414 0.71814 0.0
O1370 O 0.78201 0.32838 0.87053 0.0
O1371 O 0.85896 0.30978 0.80585 0.0
O1372 O 0.92631 0.30808 0.82557 0.0
O1373 O 0.89768 0.3519 0.89511 0.0
O1374 O 0.79476 0.30816 0.8004 0.0
O1375 O 0.83639 0.36729 0.93025 0.0
C1376 C 0.92286 0.43195 0.83998 0.0
C1377 C 0.95949 0.42093 0.67383 0.0
C1378 C 0.95785 0.46515 0.6044 0.0
C1379 C 0.94636 0.4596 0.65165 0.0
C1380 C 0.98353 0.43316 0.5783 0.0
C1381 C 0.98598 0.3888 0.64981 0.0
C1382 C 0.99808 0.39504 0.60162 0.0
C1383 C 0.81367 0.38916 0.73678 0.0
C1384 C 0.94333 0.41615 0.72145 0.0
C1385 C 0.97315 0.23214 0.61023 0.0
C1386 C 0.9307 0.20955 0.58801 0.0
C1387 C 0.823 0.28247 0.78423 0.0
C1388 C 0.78004 0.31074 0.95304 0.0
C1389 C 0.79729 0.26626 0.95563 0.0
C1390 C 0.7897 0.24178 0.99636 0.0
C1391 C 0.76365 0.26035 0.03331 0.0
C1392 C 0.75376 0.32969 0.98887 0.0
C1393 C 0.74515 0.30376 0.02902 0.0
C1394 C 0.927 0.3239 0.87706 0.0
C1395 C 0.79579 0.34405 0.92 0.0
H1396 H 0.92531 0.48377 0.67017 0.0
H1397 H 0.99166 0.43711 0.54015 0.0
H1398 H 0.99813 0.3606 0.66863 0.0
H1399 H 1.01841 0.37057 0.58259 0.0
H1400 H 0.81898 0.25355 0.92864 0.0
H1401 H 0.7588 0.24307 0.06659 0.0
H1402 H 0.74147 0.36555 0.98693 0.0
H1403 H 0.72545 0.31815 0.05755 0.0
Tb1404 Tb 0.89991 0.91126 0.81272 0.0
C1405 C 0.74891 0.75037 0.78526 0.0
C1406 C 0.73078 0.74374 0.86879 0.0
C1407 C 0.6889 0.68147 0.79226 0.0
C1408 C 0.76002 0.76111 0.83607 0.0
C1409 C 0.71524 0.70885 0.76157 0.0
C1410 C 0.69559 0.70098 0.84682 0.0
C1411 C 0.73316 0.7334 0.68181 0.0
N1412 N 0.77289 0.78186 0.75882 0.0
C1413 C 0.76032 0.77959 0.70881 0.0
C1414 C 0.7113 0.69651 0.70824 0.0
Tb1415 Tb 0.84192 0.79008 0.78361 0.0
N1416 N 0.79525 0.79968 0.85133 0.0
C1417 C 0.79489 0.83564 0.89764 0.0
C1418 C 0.73551 0.77408 0.91948 0.0
C1419 C 0.76631 0.82239 0.93303 0.0
H1420 H 0.77652 0.8079 0.68846 0.0
H1421 H 0.76806 0.84954 0.9704 0.0
H1422 H 0.67307 0.68457 0.8708 0.0
H1423 H 0.72908 0.72917 0.64119 0.0
H1424 H 0.81672 0.8742 0.90875 0.0
H1425 H 0.97425 0.85936 0.62545 0.0
H1426 H 0.71294 0.76384 0.94586 0.0
H1427 H 0.96489 0.88891 0.90705 0.0
H1428 H 0.92541 0.83155 0.68596 0.0
H1429 H 1.01411 0.96609 0.95696 0.0
H1430 H 0.66226 0.64847 0.77437 0.0
H1431 H 0.02951 0.94476 0.65297 0.0
H1432 H 0.0695 1.0213 0.73087 0.0
H1433 H 0.68994 0.66091 0.68872 0.0
H1434 H 0.0798 0.0536 0.82777 0.0
N1435 N 0.94702 0.90406 0.74569 0.0
C1436 C 0.94728 0.87 0.6983 0.0
C1437 C 1.007 0.93307 0.67899 0.0
C1438 C 1.01177 0.9612 0.73057 0.0
C1439 C 0.97601 0.885 0.66363 0.0
C1440 C 0.98242 0.94206 0.76239 0.0
H1441 H 0.05205 1.03705 0.91222 0.0
N1442 N 0.96883 0.9183 0.83833 0.0
C1443 C 1.00933 0.96329 0.9164 0.0
C1444 C 0.99312 0.95097 0.81321 0.0
C1445 C 0.98127 0.91835 0.88797 0.0
C1446 C 0.03058 1.002 0.89144 0.0
C1447 C 0.02668 0.99198 0.83816 0.0
O1448 O 0.91226 0.96993 0.8828 0.0
O1449 O 0.8378 0.8679 0.82058 0.0
O1450 O 0.85199 0.82674 0.70783 0.0
O1451 O 0.87367 0.91872 0.73707 0.0
O1452 O 0.83814 0.93416 0.79246 0.0
O1453 O 0.91805 0.99268 0.80971 0.0
O1454 O 0.83016 0.73101 0.71368 0.0
O1455 O 0.90348 0.8336 0.77436 0.0
O1456 O 0.8892 0.87483 0.88857 0.0
O1457 O 0.86814 0.78288 0.85952 0.0
O1458 O 0.90414 0.76797 0.80321 0.0
O1459 O 0.82367 0.70864 0.78671 0.0
C1460 C 0.81282 0.89611 0.80575 0.0
C1461 C 0.88779 0.04626 0.87132 0.0
C1462 C 0.8201 0.07003 0.84898 0.0
C1463 C 0.85436 0.0476 0.83381 0.0
C1464 C 0.8211 0.09551 0.90118 0.0
C1465 C 0.88989 0.07459 0.92252 0.0
C1466 C 0.8566 0.09923 0.93741 0.0
C1467 C 0.86172 0.8775 0.69746 0.0
C1468 C 0.91658 1.00953 0.85894 0.0
C1469 C 0.05322 1.02097 0.80879 0.0
C1470 C 0.04686 1.00355 0.75399 0.0
C1471 C 0.92884 0.80558 0.78849 0.0
C1472 C 0.85303 0.65342 0.72516 0.0
C1473 C 0.88716 0.65289 0.762 0.0
C1474 C 0.91992 0.62729 0.7469 0.0
C1475 C 0.91708 0.59893 0.69513 0.0
C1476 C 0.8486 0.62141 0.67497 0.0
C1477 C 0.88065 0.59417 0.65997 0.0
C1478 C 0.87938 0.82416 0.89919 0.0
C1479 C 0.82505 0.69142 0.73749 0.0
H1480 H 0.85422 1.03018 0.79295 0.0
H1481 H 0.79557 0.11523 0.91272 0.0
H1482 H 0.91695 0.07687 0.95076 0.0
H1483 H 0.85856 0.12111 0.97693 0.0
H1484 H 0.88874 0.67286 0.80243 0.0
H1485 H 0.94189 0.57812 0.68278 0.0
H1486 H 0.82062 0.61801 0.64766 0.0
H1487 H 0.87729 0.56938 0.62125 0.0
Tb1488 Tb 0.57906 0.56109 0.5208 0.0
C1489 C 0.67343 0.77432 0.60841 0.0
C1490 C 0.70032 0.80777 0.53576 0.0
C1491 C 0.70599 0.86977 0.61873 0.0
C1492 C 0.68115 0.76503 0.55777 0.0
C1493 C 0.68505 0.82747 0.63932 0.0
C1494 C 0.71363 0.85992 0.56685 0.0
C1495 C 0.65199 0.79507 0.70765 0.0
N1496 N 0.65596 0.73114 0.62786 0.0
C1497 C 0.64117 0.74331 0.67593 0.0
C1498 C 0.67606 0.83666 0.69031 0.0
Tb1499 Tb 0.66449 0.64588 0.57679 0.0
N1500 N 0.66878 0.71389 0.52935 0.0
C1501 C 0.66671 0.70615 0.47615 0.0
C1502 C 0.70558 0.79664 0.48314 0.0
C1503 C 0.68744 0.74555 0.45294 0.0
H1504 H 0.62545 0.71491 0.69602 0.0
H1505 H 0.68902 0.73533 0.41167 0.0
H1506 H 0.72908 0.89298 0.55093 0.0
H1507 H 0.64348 0.80194 0.7468 0.0
H1508 H 0.64833 0.67068 0.45046 0.0
H1509 H 0.55023 0.4713 0.68506 0.0
H1510 H 0.72154 0.82773 0.46522 0.0
H1511 H 0.6215 0.49149 0.40434 0.0
H1512 H 0.59273 0.53621 0.64739 0.0
H1513 H 0.60545 0.4041 0.354 0.0
H1514 H 0.71577 0.91038 0.6424 0.0
H1515 H 0.51897 0.37912 0.63131 0.0
H1516 H 0.51336 0.31373 0.54615 0.0
H1517 H 0.68688 0.87592 0.7161 0.0
H1518 H 0.52923 0.29608 0.4557 0.0
N1519 N 0.57346 0.49304 0.56831 0.0
C1520 C 0.57457 0.50077 0.6214 0.0
C1521 C 0.53541 0.41022 0.61374 0.0
C1522 C 0.54181 0.39907 0.56154 0.0
C1523 C 0.55302 0.46134 0.64411 0.0
C1524 C 0.56147 0.44186 0.53992 0.0
H1525 H 0.56044 0.33044 0.38295 0.0
N1526 N 0.58828 0.47562 0.47069 0.0
C1527 C 0.59535 0.4113 0.39238 0.0
C1528 C 0.57059 0.43241 0.4899 0.0
C1529 C 0.60488 0.46329 0.42381 0.0
C1530 C 0.57061 0.36969 0.40891 0.0
C1531 C 0.55995 0.37907 0.45919 0.0
O1532 O 0.52023 0.5662 0.48095 0.0
O1533 O 0.5997 0.64875 0.54802 0.0
O1534 O 0.62321 0.63738 0.64629 0.0
O1535 O 0.55883 0.59718 0.59979 0.0
O1536 O 0.56948 0.62162 0.47373 0.0
O1537 O 0.52112 0.53108 0.54864 0.0
O1538 O 0.7257 0.6384 0.61243 0.0
O1539 O 0.64374 0.55799 0.55037 0.0
O1540 O 0.61877 0.56957 0.45032 0.0
O1541 O 0.68333 0.60966 0.49642 0.0
O1542 O 0.67404 0.58596 0.62435 0.0
O1543 O 0.72055 0.67812 0.54862 0.0
C1544 C 0.58339 0.66594 0.50868 0.0
C1545 C 0.45199 0.54042 0.51188 0.0
C1546 C 0.38537 0.5387 0.549 0.0
C1547 C 0.4304 0.54621 0.55591 0.0
C1548 C 0.36255 0.51844 0.49876 0.0
C1549 C 0.42889 0.5299 0.46288 0.0
C1550 C 0.38441 0.51758 0.45593 0.0
C1551 C 0.57998 0.62258 0.64662 0.0
C1552 C 0.49855 0.548 0.51522 0.0
C1553 C 0.53834 0.33678 0.47925 0.0
C1554 C 0.52924 0.34679 0.53053 0.0
C1555 C 0.65964 0.5413 0.59038 0.0
C1556 C 0.79141 0.67455 0.57934 0.0
C1557 C 0.8136 0.63814 0.55291 0.0
C1558 C 0.85757 0.65434 0.54995 0.0
C1559 C 0.87944 0.70632 0.5751 0.0
C1560 C 0.81306 0.72761 0.60073 0.0
C1561 C 0.85724 0.74206 0.6011 0.0
C1562 C 0.66187 0.58442 0.44953 0.0
C1563 C 0.74495 0.65809 0.57696 0.0
H1564 H 0.44845 0.56197 0.59441 0.0
H1565 H 0.32792 0.51293 0.49199 0.0
H1566 H 0.44649 0.53402 0.43113 0.0
H1567 H 0.36665 0.5122 0.41813 0.0
H1568 H 0.79663 0.59738 0.53466 0.0
H1569 H 0.91382 0.71888 0.57605 0.0
H1570 H 0.79628 0.7577 0.61743 0.0
H1571 H 0.87474 0.78049 0.62235 0.0
Tb1572 Tb 0.16567 0.60066 0.0148 0.0
C1573 C 0.04599 0.56885 0.17491 0.0
C1574 C 0.98565 0.49742 0.13498 0.0
C1575 C 0.99251 0.53869 0.22657 0.0
C1576 C 0.02357 0.53185 0.13142 0.0
C1577 C 0.03305 0.56911 0.22407 0.0
C1578 C 0.96815 0.50552 0.1813 0.0
C1579 C 0.09477 0.64065 0.26039 0.0
N1580 N 0.07893 0.60654 0.16819 0.0
C1581 C 0.1027 0.64386 0.20976 0.0
C1582 C 0.05953 0.60326 0.2676 0.0
Tb1583 Tb 0.08088 0.6104 0.08383 0.0
N1584 N 0.03645 0.53347 0.08465 0.0
C1585 C 1.01593 0.49722 0.04067 0.0
C1586 C 0.96551 0.45826 0.09112 0.0
C1587 C 0.98217 0.45601 0.04415 0.0
H1588 H 0.12829 0.67502 0.20388 0.0
H1589 H 0.96629 0.42628 1.00986 0.0
H1590 H 0.93581 0.48664 0.18195 0.0
H1591 H 0.11424 0.66875 0.29364 0.0
H1592 H 0.02399 0.50152 1.00268 0.0
H1593 H 0.28283 0.78324 0.08268 0.0
H1594 H 0.93729 0.43012 0.09323 0.0
H1595 H 0.11391 0.53636 0.8961 0.0
H1596 H 0.2224 0.7123 0.09208 0.0
H1597 H 0.12745 0.5392 0.80532 0.0
H1598 H 0.97832 0.54256 0.26182 0.0
H1599 H 0.31355 0.77125 1.00011 0.0
H1600 H 0.31055 0.71483 0.91084 0.0
H1601 H 0.0525 0.60249 0.30671 0.0
H1602 H 0.265 0.66146 0.83156 0.0
N1603 N 0.20975 0.67694 1.01095 0.0
C1604 C 0.23078 0.71436 0.05378 0.0
C1605 C 0.28352 0.7465 1.00243 0.0
C1606 C 0.26156 0.70772 0.95923 0.0
C1607 C 0.26632 0.7527 0.04915 0.0
C1608 C 0.22254 0.67614 0.96385 0.0
H1609 H 0.19017 0.60208 0.78951 0.0
N1610 N 0.16533 0.60307 0.92964 0.0
C1611 C 0.14759 0.56741 0.83782 0.0
C1612 C 0.1989 0.63895 0.92133 0.0
C1613 C 0.14002 0.56612 0.88902 0.0
C1614 C 0.18349 0.6028 0.82903 0.0
C1615 C 0.21113 0.63682 0.87163 0.0
O1616 O 0.20278 0.54666 0.98292 0.0
O1617 O 0.10965 0.55097 0.03625 0.0
O1618 O 0.12378 0.57499 0.12868 0.0
O1619 O 0.1824 0.61799 0.09872 0.0
O1620 O 0.1389 0.51348 0.98243 0.0
O1621 O 0.22446 0.60208 0.05736 0.0
O1622 O 0.04513 0.66661 0.11399 0.0
O1623 O 0.13759 0.65999 0.06377 0.0
O1624 O 0.12425 0.64025 0.97213 0.0
O1625 O 0.06632 0.59513 1.00017 0.0
O1626 O 0.10709 0.69702 0.11691 0.0
O1627 O 1.02187 0.60838 0.04142 0.0
C1628 C 0.1091 0.50222 1.01024 0.0
C1629 C 0.27692 0.56773 0.0136 0.0
C1630 C 0.34548 0.54795 0.03756 0.0
C1631 C 0.30252 0.54471 0.04403 0.0
C1632 C 0.36368 0.57659 1.00228 0.0
C1633 C 0.29414 0.5928 0.97556 0.0
C1634 C 0.33788 0.59902 0.97132 0.0
C1635 C 0.16554 0.59013 0.13116 0.0
C1636 C 0.23252 0.5633 0.02287 0.0
C1637 C 0.25203 0.66538 0.8677 0.0
C1638 C 0.27806 0.69744 0.91242 0.0
C1639 C 0.13762 0.70841 0.0902 0.0
C1640 C 0.97107 0.64643 0.08508 0.0
C1641 C 0.94568 0.66954 0.05441 0.0
C1642 C 0.90336 0.66861 0.06246 0.0
C1643 C 0.88622 0.6452 0.10161 0.0
C1644 C 0.95423 0.62286 0.12431 0.0
C1645 C 0.91147 0.62144 0.13171 0.0
C1646 C 0.08249 0.62759 0.97133 0.0
C1647 C 1.01489 0.64893 0.07465 0.0
H1648 H 0.28856 0.52208 0.07113 0.0
H1649 H 0.39696 0.57865 0.99632 0.0
H1650 H 0.2739 0.60635 0.94881 0.0
H1651 H 0.35172 0.62034 0.94361 0.0
H1652 H 0.95913 0.68953 0.02523 0.0
H1653 H 0.85347 0.64537 0.10893 0.0
H1654 H 0.97382 0.60613 0.14914 0.0
H1655 H 0.8971 0.6006 0.15929 0.0
loop_
_geom_bond_atom_site_label_1
_geom_bond_atom_site_label_2
_geom_bond_distance
_geom_bond_site_symmetry_2
_ccdc_geom_bond_type
In0 O1 2.294 . S
In0 O2 2.326 . S
In0 O6 2.266 . S
In0 O7 2.326 . S
In0 O8 2.266 . S
In0 O9 2.326 . S
In0 O11 2.294 . S
In0 O12 2.326 . S
O1 In0 2.294 . S
O1 C10 1.240 . S
O2 In0 2.326 . S
O2 C10 1.252 . S
C3 O6 1.252 . S
C3 O7 1.260 . S
C4 O11 1.240 . S
C4 O12 1.252 . S
C5 O8 1.252 . S
C5 O9 1.260 . S
O6 In0 2.266 . S
O6 C3 1.252 . S
O7 In0 2.326 . S
O7 C3 1.260 . S
O8 In0 2.266 . S
O8 C5 1.252 . S
O9 In0 2.326 . S
O9 C5 1.260 . S
C10 O1 1.240 . S
C10 O2 1.252 . S
O11 In0 2.294 . S
O11 C4 1.240 . S
O12 In0 2.326 . S
O12 C4 1.252 . S
In13 O14 2.294 . S
In13 O15 2.326 . S
In13 O19 2.266 1_455 S
In13 O20 2.326 1_455 S
In13 O21 2.266 1_455 S
In13 O22 2.326 1_455 S
In13 O24 2.294 . S
In13 O25 2.326 . S
O14 In13 2.294 . S
O14 C23 1.240 . S
O15 In13 2.326 . S
O15 C23 1.252 . S
C16 O19 1.252 . S
C16 O20 1.260 . S
C17 O24 1.240 . S
C17 O25 1.252 . S
C18 O21 1.252 . S
C18 O22 1.260 . S
O19 In13 2.266 1_655 S
O19 C16 1.252 . S
O20 In13 2.326 1_655 S
O20 C16 1.260 . S
O21 In13 2.266 1_655 S
O21 C18 1.252 . S
O22 In13 2.326 1_655 S
O22 C18 1.260 . S
C23 O14 1.240 . S
C23 O15 1.252 . S
O24 In13 2.294 . S
O24 C17 1.240 . S
O25 In13 2.326 . S
O25 C17 1.252 . S
In26 O27 2.294 . S
In26 O28 2.326 . S
In26 O32 2.266 . S
In26 O33 2.326 . S
In26 O34 2.266 . S
In26 O35 2.326 . S
In26 O37 2.294 . S
In26 O38 2.326 . S
O27 In26 2.294 . S
O27 C36 1.240 . S
O28 In26 2.326 . S
O28 C36 1.252 . S
C29 O32 1.252 . S
C29 O33 1.260 . S
C30 O37 1.240 . S
C30 O38 1.252 . S
C31 O34 1.252 1_545 S
C31 O35 1.260 1_545 S
O32 In26 2.266 . S
O32 C29 1.252 . S
O33 In26 2.326 . S
O33 C29 1.260 . S
O34 In26 2.266 . S
O34 C31 1.252 1_565 S
O35 In26 2.326 . S
O35 C31 1.260 1_565 S
C36 O27 1.240 . S
C36 O28 1.252 . S
O37 In26 2.294 . S
O37 C30 1.240 . S
O38 In26 2.326 . S
O38 C30 1.252 . S
In39 O40 2.294 . S
In39 O41 2.326 . S
In39 O45 2.266 . S
In39 O46 2.326 . S
In39 O47 2.266 . S
In39 O48 2.326 . S
In39 O50 2.294 . S
In39 O51 2.326 . S
O40 In39 2.294 . S
O40 C49 1.240 . S
O41 In39 2.326 . S
O41 C49 1.252 . S
C42 O45 1.252 . S
C42 O46 1.260 . S
C43 O50 1.240 . S
C43 O51 1.252 . S
C44 O47 1.252 . S
C44 O48 1.260 . S
O45 In39 2.266 . S
O45 C42 1.252 . S
O46 In39 2.326 . S
O46 C42 1.260 . S
O47 In39 2.266 . S
O47 C44 1.252 . S
O48 In39 2.326 . S
O48 C44 1.260 . S
C49 O40 1.240 . S
C49 O41 1.252 . S
O50 In39 2.294 . S
O50 C43 1.240 . S
O51 In39 2.326 . S
O51 C43 1.252 . S
In52 O53 2.294 . S
In52 O54 2.326 . S
In52 O58 2.266 . S
In52 O59 2.326 . S
In52 O60 2.266 . S
In52 O61 2.326 . S
In52 O63 2.294 . S
In52 O64 2.326 . S
O53 In52 2.294 . S
O53 C62 1.240 . S
O54 In52 2.326 . S
O54 C62 1.252 . S
C55 O58 1.252 . S
C55 O59 1.260 . S
C56 O63 1.240 . S
C56 O64 1.252 . S
C57 O60 1.252 . S
C57 O61 1.260 . S
O58 In52 2.266 . S
O58 C55 1.252 . S
O59 In52 2.326 . S
O59 C55 1.260 . S
O60 In52 2.266 . S
O60 C57 1.252 . S
O61 In52 2.326 . S
O61 C57 1.260 . S
C62 O53 1.240 . S
C62 O54 1.252 . S
O63 In52 2.294 . S
O63 C56 1.240 . S
O64 In52 2.326 . S
O64 C56 1.252 . S
In65 O66 2.294 . S
In65 O67 2.326 . S
In65 O71 2.266 . S
In65 O72 2.326 . S
In65 O73 2.266 . S
In65 O74 2.326 . S
In65 O76 2.294 . S
In65 O77 2.326 . S
O66 In65 2.294 . S
O66 C75 1.240 . S
O67 In65 2.326 . S
O67 C75 1.252 . S
C68 O71 1.252 . S
C68 O72 1.260 . S
C69 O76 1.240 . S
C69 O77 1.252 . S
C70 O73 1.252 . S
C70 O74 1.260 . S
O71 In65 2.266 . S
O71 C68 1.252 . S
O72 In65 2.326 . S
O72 C68 1.260 . S
O73 In65 2.266 . S
O73 C70 1.252 . S
O74 In65 2.326 . S
O74 C70 1.260 . S
C75 O66 1.240 . S
C75 O67 1.252 . S
O76 In65 2.294 . S
O76 C69 1.240 . S
O77 In65 2.326 . S
O77 C69 1.252 . S
In78 O79 2.294 . S
In78 O80 2.326 . S
In78 O84 2.266 . S
In78 O85 2.326 . S
In78 O86 2.266 . S
In78 O87 2.326 . S
In78 O89 2.294 . S
In78 O90 2.326 . S
O79 In78 2.294 . S
O79 C88 1.240 . S
O80 In78 2.326 . S
O80 C88 1.252 . S
C81 O84 1.252 . S
C81 O85 1.260 . S
C82 O89 1.240 . S
C82 O90 1.252 . S
C83 O86 1.252 . S
C83 O87 1.260 . S
O84 In78 2.266 . S
O84 C81 1.252 . S
O85 In78 2.326 . S
O85 C81 1.260 . S
O86 In78 2.266 . S
O86 C83 1.252 . S
O87 In78 2.326 . S
O87 C83 1.260 . S
C88 O79 1.240 . S
C88 O80 1.252 . S
O89 In78 2.294 . S
O89 C82 1.240 . S
O90 In78 2.326 . S
O90 C82 1.252 . S
In91 O92 2.294 1_556 S
In91 O93 2.326 . S
In91 O97 2.266 1_556 S
In91 O98 2.326 . S
In91 O99 2.266 1_455 S
In91 O100 2.326 1_455 S
In91 O102 2.294 . S
In91 O103 2.326 . S
O92 In91 2.294 1_554 S
O92 C101 1.240 1_554 S
O93 In91 2.326 . S
O93 C101 1.252 . S
C94 O97 1.252 . S
C94 O98 1.260 1_554 S
C95 O102 1.240 . S
C95 O103 1.252 . S
C96 O99 1.252 . S
C96 O100 1.260 . S
O97 In91 2.266 1_554 S
O97 C94 1.252 . S
O98 In91 2.326 . S
O98 C94 1.260 1_556 S
O99 In91 2.266 1_655 S
O99 C96 1.252 . S
O100 In91 2.326 1_655 S
O100 C96 1.260 . S
C101 O92 1.240 1_556 S
C101 O93 1.252 . S
O102 In91 2.294 . S
O102 C95 1.240 . S
O103 In91 2.326 . S
O103 C95 1.252 . S
In104 O105 2.294 . S
In104 O106 2.327 1_545 S
In104 O110 2.265 . S
In104 O111 2.325 . S
In104 O112 2.265 1_545 S
In104 O113 2.323 1_545 S
In104 O115 2.296 . S
In104 O116 2.329 . S
O105 In104 2.294 . S
O105 C114 1.240 . S
O106 In104 2.327 1_565 S
O106 C114 1.252 1_565 S
C107 O110 1.252 . S
C107 O111 1.260 . S
C108 O115 1.240 . S
C108 O116 1.252 . S
C109 O112 1.252 . S
C109 O113 1.260 . S
O110 In104 2.265 . S
O110 C107 1.252 . S
O111 In104 2.325 . S
O111 C107 1.260 . S
O112 In104 2.265 1_565 S
O112 C109 1.252 . S
O113 In104 2.323 1_565 S
O113 C109 1.260 . S
C114 O105 1.240 . S
C114 O106 1.252 1_545 S
O115 In104 2.296 . S
O115 C108 1.240 . S
O116 In104 2.329 . S
O116 C108 1.252 . S
In117 O118 2.294 . S
In117 O119 2.326 . S
In117 O123 2.266 . S
In117 O124 2.326 . S
In117 O125 2.266 . S
In117 O126 2.326 . S
In117 O128 2.294 . S
In117 O129 2.326 . S
O118 In117 2.294 . S
O118 C127 1.240 . S
O119 In117 2.326 . S
O119 C127 1.252 . S
C120 O123 1.252 . S
C120 O124 1.260 . S
C121 O128 1.240 . S
C121 O129 1.252 . S
C122 O125 1.252 . S
C122 O126 1.260 . S
O123 In117 2.266 . S
O123 C120 1.252 . S
O124 In117 2.326 . S
O124 C120 1.260 . S
O125 In117 2.266 . S
O125 C122 1.252 . S
O126 In117 2.326 . S
O126 C122 1.260 . S
C127 O118 1.240 . S
C127 O119 1.252 . S
O128 In117 2.294 . S
O128 C121 1.240 . S
O129 In117 2.326 . S
O129 C121 1.252 . S
In130 O131 2.294 . S
In130 O132 2.326 . S
In130 O136 2.266 . S
In130 O137 2.326 . S
In130 O138 2.266 . S
In130 O139 2.326 . S
In130 O141 2.294 1_545 S
In130 O142 2.326 1_545 S
O131 In130 2.294 . S
O131 C140 1.240 1_545 S
O132 In130 2.326 . S
O132 C140 1.253 1_545 S
C133 O136 1.252 . S
C133 O137 1.260 . S
C134 O141 1.240 . S
C134 O142 1.252 . S
C135 O138 1.252 . S
C135 O139 1.260 . S
O136 In130 2.266 . S
O136 C133 1.252 . S
O137 In130 2.326 . S
O137 C133 1.260 . S
O138 In130 2.266 . S
O138 C135 1.252 . S
O139 In130 2.326 . S
O139 C135 1.260 . S
C140 O131 1.240 1_565 S
C140 O132 1.253 1_565 S
O141 In130 2.294 1_565 S
O141 C134 1.240 . S
O142 In130 2.326 1_565 S
O142 C134 1.252 . S
In143 O144 2.302 . S
In143 O145 2.337 1_565 S
In143 O149 2.260 1_554 S
In143 O150 2.315 1_554 S
In143 O151 2.264 1_565 S
In143 O152 2.324 1_554 S
In143 O154 2.295 1_565 S
In143 O155 2.329 1_554 S
O144 In143 2.302 . S
O144 C153 1.240 . S
O145 In143 2.337 1_545 S
O145 C153 1.252 1_545 S
C146 O149 1.252 . S
C146 O150 1.260 . S
C147 O154 1.240 . S
C147 O155 1.253 1_544 S
C148 O151 1.252 . S
C148 O152 1.262 1_544 S
O149 In143 2.260 1_556 S
O149 C146 1.252 . S
O150 In143 2.315 1_556 S
O150 C146 1.260 . S
O151 In143 2.264 1_545 S
O151 C148 1.252 . S
O152 In143 2.324 1_556 S
O152 C148 1.262 1_566 S
C153 O144 1.240 . S
C153 O145 1.252 1_565 S
O154 In143 2.295 1_545 S
O154 C147 1.240 . S
O155 In143 2.329 1_556 S
O155 C147 1.253 1_566 S
In156 O157 2.294 . S
In156 O158 2.326 . S
In156 O162 2.266 1_554 S
In156 O163 2.326 1_554 S
In156 O164 2.266 . S
In156 O165 2.326 . S
In156 O167 2.294 . S
In156 O168 2.326 . S
O157 In156 2.294 . S
O157 C166 1.240 . S
O158 In156 2.326 . S
O158 C166 1.252 . S
C159 O162 1.252 . S
C159 O163 1.260 . S
C160 O167 1.240 . S
C160 O168 1.252 . S
C161 O164 1.252 . S
C161 O165 1.260 . S
O162 In156 2.266 1_556 S
O162 C159 1.252 . S
O163 In156 2.326 1_556 S
O163 C159 1.260 . S
O164 In156 2.266 . S
O164 C161 1.252 . S
O165 In156 2.326 . S
O165 C161 1.260 . S
C166 O157 1.240 . S
C166 O158 1.252 . S
O167 In156 2.294 . S
O167 C160 1.240 . S
O168 In156 2.326 . S
O168 C160 1.252 . S
In169 O170 2.294 . S
In169 O171 2.326 . S
In169 O175 2.266 . S
In169 O176 2.326 . S
In169 O177 2.266 . S
In169 O178 2.326 1_554 S
In169 O180 2.294 . S
In169 O181 2.326 . S
O170 In169 2.294 . S
O170 C179 1.240 . S
O171 In169 2.326 . S
O171 C179 1.252 . S
C172 O175 1.252 . S
C172 O176 1.260 . S
C173 O180 1.240 . S
C173 O181 1.252 . S
C174 O177 1.252 1_556 S
C174 O178 1.260 . S
O175 In169 2.266 . S
O175 C172 1.252 . S
O176 In169 2.326 . S
O176 C172 1.260 . S
O177 In169 2.266 . S
O177 C174 1.252 1_554 S
O178 In169 2.326 1_556 S
O178 C174 1.260 . S
C179 O170 1.240 . S
C179 O171 1.252 . S
O180 In169 2.294 . S
O180 C173 1.240 . S
O181 In169 2.326 . S
O181 C173 1.252 . S
In182 O183 2.294 . S
In182 O184 2.326 . S
In182 O188 2.266 . S
In182 O189 2.326 . S
In182 O190 2.266 . S
In182 O191 2.326 . S
In182 O193 2.294 . S
In182 O194 2.326 . S
O183 In182 2.294 . S
O183 C192 1.240 . S
O184 In182 2.326 . S
O184 C192 1.252 . S
C185 O188 1.252 . S
C185 O189 1.260 . S
C186 O193 1.240 . S
C186 O194 1.252 . S
C187 O190 1.252 . S
C187 O191 1.260 . S
O188 In182 2.266 . S
O188 C185 1.252 . S
O189 In182 2.326 . S
O189 C185 1.260 . S
O190 In182 2.266 . S
O190 C187 1.252 . S
O191 In182 2.326 . S
O191 C187 1.260 . S
C192 O183 1.240 . S
C192 O184 1.252 . S
O193 In182 2.294 . S
O193 C186 1.240 . S
O194 In182 2.326 . S
O194 C186 1.252 . S
In195 O196 2.294 . S
In195 O197 2.326 . S
In195 O201 2.266 . S
In195 O202 2.326 . S
In195 O203 2.266 . S
In195 O204 2.326 . S
In195 O206 2.294 . S
In195 O207 2.326 . S
O196 In195 2.294 . S
O196 C205 1.240 . S
O197 In195 2.326 . S
O197 C205 1.252 . S
C198 O201 1.252 . S
C198 O202 1.260 . S
C199 O206 1.240 . S
C199 O207 1.252 . S
C200 O203 1.252 . S
C200 O204 1.260 . S
O201 In195 2.266 . S
O201 C198 1.252 . S
O202 In195 2.326 . S
O202 C198 1.260 . S
O203 In195 2.266 . S
O203 C200 1.252 . S
O204 In195 2.326 . S
O204 C200 1.260 . S
C205 O196 1.240 . S
C205 O197 1.252 . S
O206 In195 2.294 . S
O206 C199 1.240 . S
O207 In195 2.326 . S
O207 C199 1.252 . S
In208 O209 2.294 1_655 S
In208 O210 2.326 . S
In208 O214 2.266 1_655 S
In208 O215 2.326 . S
In208 O216 2.266 . S
In208 O217 2.326 . S
In208 O219 2.294 . S
In208 O220 2.326 1_655 S
O209 In208 2.294 1_455 S
O209 C218 1.240 . S
O210 In208 2.326 . S
O210 C218 1.252 1_655 S
C211 O214 1.252 . S
C211 O215 1.260 1_455 S
C212 O219 1.240 . S
C212 O220 1.252 1_655 S
C213 O216 1.252 1_565 S
C213 O217 1.260 1_565 S
O214 In208 2.266 1_455 S
O214 C211 1.252 . S
O215 In208 2.326 . S
O215 C211 1.260 1_655 S
O216 In208 2.266 . S
O216 C213 1.252 1_545 S
O217 In208 2.326 . S
O217 C213 1.260 1_545 S
C218 O209 1.240 . S
C218 O210 1.252 1_455 S
O219 In208 2.294 . S
O219 C212 1.240 . S
O220 In208 2.326 1_455 S
O220 C212 1.252 1_455 S
In221 O222 2.294 . S
In221 O223 2.326 . S
In221 O227 2.266 . S
In221 O228 2.326 . S
In221 O229 2.266 . S
In221 O230 2.326 . S
In221 O232 2.294 . S
In221 O233 2.326 . S
O222 In221 2.294 . S
O222 C231 1.240 . S
O223 In221 2.326 . S
O223 C231 1.252 . S
C224 O227 1.252 . S
C224 O228 1.260 . S
C225 O232 1.240 . S
C225 O233 1.252 . S
C226 O229 1.252 . S
C226 O230 1.260 . S
O227 In221 2.266 . S
O227 C224 1.252 . S
O228 In221 2.326 . S
O228 C224 1.260 . S
O229 In221 2.266 . S
O229 C226 1.252 . S
O230 In221 2.326 . S
O230 C226 1.260 . S
C231 O222 1.240 . S
C231 O223 1.252 . S
O232 In221 2.294 . S
O232 C225 1.240 . S
O233 In221 2.326 . S
O233 C225 1.252 . S
In234 O235 2.294 . S
In234 O236 2.326 . S
In234 O240 2.266 . S
In234 O241 2.326 . S
In234 O242 2.266 . S
In234 O243 2.326 . S
In234 O245 2.294 . S
In234 O246 2.326 . S
O235 In234 2.294 . S
O235 C244 1.240 . S
O236 In234 2.326 . S
O236 C244 1.252 . S
C237 O240 1.252 . S
C237 O241 1.260 . S
C238 O245 1.240 . S
C238 O246 1.252 . S
C239 O242 1.252 . S
C239 O243 1.260 . S
O240 In234 2.266 . S
O240 C237 1.252 . S
O241 In234 2.326 . S
O241 C237 1.260 . S
O242 In234 2.266 . S
O242 C239 1.252 . S
O243 In234 2.326 . S
O243 C239 1.260 . S
C244 O235 1.240 . S
C244 O236 1.252 . S
O245 In234 2.294 . S
O245 C238 1.240 . S
O246 In234 2.326 . S
O246 C238 1.252 . S
In247 O248 2.294 . S
In247 O249 2.326 . S
In247 O253 2.266 . S
In247 O254 2.326 . S
In247 O255 2.266 . S
In247 O256 2.326 . S
In247 O258 2.294 . S
In247 O259 2.326 . S
O248 In247 2.294 . S
O248 C257 1.240 . S
O249 In247 2.326 . S
O249 C257 1.252 . S
C250 O253 1.252 . S
C250 O254 1.260 . S
C251 O258 1.240 . S
C251 O259 1.252 . S
C252 O255 1.252 . S
C252 O256 1.260 . S
O253 In247 2.266 . S
O253 C250 1.252 . S
O254 In247 2.326 . S
O254 C250 1.260 . S
O255 In247 2.266 . S
O255 C252 1.252 . S
O256 In247 2.326 . S
O256 C252 1.260 . S
C257 O248 1.240 . S
C257 O249 1.252 . S
O258 In247 2.294 . S
O258 C251 1.240 . S
O259 In247 2.326 . S
O259 C251 1.252 . S
In260 O261 2.294 . S
In260 O262 2.326 . S
In260 O266 2.266 1_554 S
In260 O267 2.326 1_554 S
In260 O268 2.266 1_554 S
In260 O269 2.326 1_554 S
In260 O271 2.294 . S
In260 O272 2.326 . S
O261 In260 2.294 . S
O261 C270 1.240 . S
O262 In260 2.326 . S
O262 C270 1.252 . S
C263 O266 1.252 . S
C263 O267 1.260 . S
C264 O271 1.240 . S
C264 O272 1.252 . S
C265 O268 1.252 . S
C265 O269 1.260 . S
O266 In260 2.266 1_556 S
O266 C263 1.252 . S
O267 In260 2.326 1_556 S
O267 C263 1.260 . S
O268 In260 2.266 1_556 S
O268 C265 1.252 . S
O269 In260 2.326 1_556 S
O269 C265 1.260 . S
C270 O261 1.240 . S
C270 O262 1.252 . S
O271 In260 2.294 . S
O271 C264 1.240 . S
O272 In260 2.326 . S
O272 C264 1.252 . S
In273 O274 2.294 . S
In273 O275 2.326 . S
In273 O279 2.266 . S
In273 O280 2.326 . S
In273 O281 2.266 1_655 S
In273 O282 2.326 . S
In273 O284 2.294 1_655 S
In273 O285 2.326 . S
O274 In273 2.294 . S
O274 C283 1.240 . S
O275 In273 2.326 . S
O275 C283 1.252 . S
C276 O279 1.252 . S
C276 O280 1.260 . S
C277 O284 1.240 1_655 S
C277 O285 1.252 . S
C278 O281 1.252 1_655 S
C278 O282 1.260 . S
O279 In273 2.266 . S
O279 C276 1.252 . S
O280 In273 2.326 . S
O280 C276 1.260 . S
O281 In273 2.266 1_455 S
O281 C278 1.252 1_455 S
O282 In273 2.326 . S
O282 C278 1.260 . S
C283 O274 1.240 . S
C283 O275 1.252 . S
O284 In273 2.294 1_455 S
O284 C277 1.240 1_455 S
O285 In273 2.326 . S
O285 C277 1.252 . S
In286 O287 2.294 . S
In286 O288 2.326 . S
In286 O292 2.266 . S
In286 O293 2.326 . S
In286 O294 2.266 . S
In286 O295 2.326 . S
In286 O297 2.294 . S
In286 O298 2.326 . S
O287 In286 2.294 . S
O287 C296 1.240 . S
O288 In286 2.326 . S
O288 C296 1.252 . S
C289 O292 1.252 . S
C289 O293 1.260 . S
C290 O297 1.240 . S
C290 O298 1.252 . S
C291 O294 1.252 1_455 S
C291 O295 1.260 1_455 S
O292 In286 2.266 . S
O292 C289 1.252 . S
O293 In286 2.326 . S
O293 C289 1.260 . S
O294 In286 2.266 . S
O294 C291 1.252 1_655 S
O295 In286 2.326 . S
O295 C291 1.260 1_655 S
C296 O287 1.240 . S
C296 O288 1.252 . S
O297 In286 2.294 . S
O297 C290 1.240 . S
O298 In286 2.326 . S
O298 C290 1.252 . S
In299 O300 2.294 . S
In299 O301 2.326 . S
In299 O305 2.266 . S
In299 O306 2.326 . S
In299 O307 2.266 . S
In299 O308 2.326 . S
In299 O310 2.294 . S
In299 O311 2.326 . S
O300 In299 2.294 . S
O300 C309 1.240 . S
O301 In299 2.326 . S
O301 C309 1.252 . S
C302 O305 1.252 . S
C302 O306 1.260 . S
C303 O310 1.240 . S
C303 O311 1.252 . S
C304 O307 1.252 . S
C304 O308 1.260 . S
O305 In299 2.266 . S
O305 C302 1.252 . S
O306 In299 2.326 . S
O306 C302 1.260 . S
O307 In299 2.266 . S
O307 C304 1.252 . S
O308 In299 2.326 . S
O308 C304 1.260 . S
C309 O300 1.240 . S
C309 O301 1.252 . S
O310 In299 2.294 . S
O310 C303 1.240 . S
O311 In299 2.326 . S
O311 C303 1.252 . S
Tb312 N343 2.660 1_545 S
Tb312 N350 2.600 1_544 S
Tb312 O356 2.546 1_454 S
Tb312 O357 2.610 . S
Tb312 O359 2.320 . S
Tb312 O360 2.552 . S
Tb312 O361 2.413 1_455 S
Tb312 O363 2.362 . S
Tb312 O364 2.421 1_554 S
Tb312 C376 2.833 1_454 S
C313 C316 1.432 . S
C313 C317 1.414 . S
C313 N320 1.359 . S
C314 C316 1.417 . S
C314 C318 1.432 . S
C314 C326 1.410 . S
C315 C317 1.444 . S
C315 C318 1.317 . S
C315 H338 0.929 . S
C316 C313 1.432 . S
C316 C314 1.417 . S
C316 N324 1.360 . S
C317 C313 1.414 . S
C317 C315 1.444 . S
C317 C322 1.385 . S
C318 C314 1.432 . S
C318 C315 1.317 . S
C318 H330 0.930 . S
C319 C321 1.392 . S
C319 C322 1.370 . S
C319 H331 0.931 . S
N320 C313 1.359 . S
N320 C321 1.327 . S
N320 Tb323 2.600 . S
C321 C319 1.392 . S
C321 N320 1.327 . S
C321 H328 0.930 . S
C322 C317 1.385 . S
C322 C319 1.370 . S
C322 H341 0.930 . S
Tb323 N320 2.600 . S
Tb323 N324 2.660 . S
Tb323 O357 2.362 . S
Tb323 O358 2.421 . S
Tb323 O362 2.546 . S
Tb323 O363 2.610 . S
Tb323 O365 2.320 1_554 S
Tb323 O366 2.552 . S
Tb323 O367 2.413 . S
Tb323 C387 2.833 . S
N324 C316 1.360 . S
N324 Tb323 2.660 . S
N324 C325 1.305 . S
C325 N324 1.305 . S
C325 C327 1.407 1_554 S
C325 H332 0.930 1_554 S
C326 C314 1.410 . S
C326 C327 1.345 1_554 S
C326 H334 0.930 . S
C327 C325 1.407 1_556 S
C327 C326 1.345 1_556 S
C327 H329 0.930 . S
H328 C321 0.930 . S
H329 C327 0.930 . S
H330 C318 0.930 . S
H331 C319 0.931 . S
H332 C325 0.930 1_556 S
H333 C347 0.930 . S
H334 C326 0.930 . S
H335 C353 0.930 . S
H336 C344 0.930 . S
H337 C351 0.931 . S
H338 C315 0.929 . S
H339 C345 0.930 . S
H340 C378 0.930 . S
H341 C322 0.930 . S
H342 C377 0.929 . S
N343 Tb312 2.660 1_565 S
N343 C344 1.305 . S
N343 C348 1.360 . S
C344 H336 0.930 . S
C344 N343 1.305 . S
C344 C347 1.407 . S
C345 H339 0.930 . S
C345 C346 1.410 . S
C345 C347 1.345 1_655 S
C346 C345 1.410 . S
C346 C348 1.417 1_655 S
C346 C378 1.432 1_554 S
C347 H333 0.930 . S
C347 C344 1.407 . S
C347 C345 1.345 1_455 S
C348 N343 1.360 . S
C348 C346 1.417 1_455 S
C348 C352 1.432 1_554 S
H349 C354 0.930 . S
N350 Tb312 2.600 1_566 S
N350 C352 1.359 . S
N350 C353 1.327 . S
C351 H337 0.931 . S
C351 C353 1.392 1_655 S
C351 C354 1.370 . S
C352 C348 1.432 1_556 S
C352 N350 1.359 . S
C352 C355 1.414 1_455 S
C353 H335 0.930 . S
C353 N350 1.327 . S
C353 C351 1.392 1_455 S
C354 H349 0.930 . S
C354 C351 1.370 . S
C354 C355 1.385 . S
C355 C352 1.414 1_655 S
C355 C354 1.385 . S
C355 C377 1.444 . S
O356 Tb312 2.546 1_656 S
O356 C376 1.251 . S
O357 Tb312 2.610 . S
O357 Tb323 2.362 . S
O357 C368 1.283 . S
O358 Tb323 2.421 . S
O358 C375 1.262 . S
O359 Tb312 2.320 . S
O359 C375 1.260 . S
O360 Tb312 2.552 . S
O360 C368 1.243 . S
O361 Tb312 2.413 1_655 S
O361 C376 1.256 1_554 S
O362 Tb323 2.546 . S
O362 C387 1.251 . S
O363 Tb312 2.362 . S
O363 Tb323 2.610 . S
O363 C379 1.283 1_545 S
O364 Tb312 2.421 1_556 S
O364 C386 1.262 . S
O365 Tb323 2.320 1_556 S
O365 C386 1.260 . S
O366 Tb323 2.552 . S
O366 C379 1.243 1_545 S
O367 Tb323 2.413 . S
O367 C387 1.256 . S
C368 O357 1.283 . S
C368 O360 1.243 . S
C369 C371 1.382 1_556 S
C369 C373 1.393 . S
C369 C376 1.500 . S
C370 C371 1.400 1_556 S
C370 C372 1.384 . S
C371 C369 1.382 1_554 S
C371 C370 1.400 1_554 S
C371 H388 0.930 . S
C372 C370 1.384 . S
C372 C374 1.392 . S
C372 H389 0.931 . S
C373 C369 1.393 . S
C373 C374 1.401 . S
C373 H390 0.930 1_545 S
C374 C372 1.392 . S
C374 C373 1.401 . S
C374 H391 0.930 1_545 S
C375 O358 1.262 . S
C375 O359 1.260 . S
C376 Tb312 2.833 1_656 S
C376 O356 1.251 . S
C376 O361 1.256 1_556 S
C376 C369 1.500 . S
C377 H342 0.929 . S
C377 C355 1.444 . S
C377 C378 1.317 . S
C378 H340 0.930 . S
C378 C346 1.432 1_556 S
C378 C377 1.317 . S
C379 O363 1.283 1_565 S
C379 O366 1.243 1_565 S
C380 C381 1.382 . S
C380 C384 1.393 . S
C380 C387 1.500 . S
C381 C380 1.382 . S
C381 C382 1.400 . S
C381 H392 0.930 . S
C382 C381 1.400 . S
C382 C383 1.384 . S
C383 C382 1.384 . S
C383 C385 1.392 . S
C383 H393 0.931 . S
C384 C380 1.393 . S
C384 C385 1.401 . S
C384 H394 0.930 . S
C385 C383 1.392 . S
C385 C384 1.401 . S
C385 H395 0.930 . S
C386 O364 1.262 . S
C386 O365 1.260 . S
C387 Tb323 2.833 . S
C387 O362 1.251 . S
C387 O367 1.256 . S
C387 C380 1.500 . S
H388 C371 0.930 . S
H389 C372 0.931 . S
H390 C373 0.930 1_565 S
H391 C374 0.930 1_565 S
H392 C381 0.930 . S
H393 C383 0.931 . S
H394 C384 0.930 . S
H395 C385 0.930 . S
Tb396 N427 2.660 . S
Tb396 N434 2.600 . S
Tb396 O440 2.546 . S
Tb396 O441 2.610 . S
Tb396 O443 2.320 . S
Tb396 O444 2.552 . S
Tb396 O445 2.413 . S
Tb396 O447 2.362 . S
Tb396 O448 2.421 . S
Tb396 C460 2.833 . S
C397 C400 1.432 . S
C397 C401 1.414 . S
C397 N404 1.359 . S
C398 C400 1.417 1_545 S
C398 C402 1.432 . S
C398 C410 1.410 . S
C399 C401 1.444 1_545 S
C399 C402 1.317 . S
C399 H422 0.929 . S
C400 C397 1.432 . S
C400 C398 1.417 1_565 S
C400 N408 1.360 . S
C401 C397 1.414 . S
C401 C399 1.444 1_565 S
C401 C406 1.385 . S
C402 C398 1.432 . S
C402 C399 1.317 . S
C402 H414 0.930 . S
C403 C405 1.392 . S
C403 C406 1.370 . S
C403 H415 0.931 . S
N404 C397 1.359 . S
N404 C405 1.327 . S
N404 Tb407 2.600 . S
C405 C403 1.392 . S
C405 N404 1.327 . S
C405 H412 0.930 . S
C406 C401 1.385 . S
C406 C403 1.370 . S
C406 H425 0.930 1_565 S
Tb407 N404 2.600 . S
Tb407 N408 2.660 . S
Tb407 O441 2.362 . S
Tb407 O442 2.421 . S
Tb407 O446 2.546 . S
Tb407 O447 2.610 . S
Tb407 O449 2.320 . S
Tb407 O450 2.552 . S
Tb407 O451 2.413 . S
Tb407 C471 2.833 . S
N408 C400 1.360 . S
N408 Tb407 2.660 . S
N408 C409 1.305 . S
C409 N408 1.305 . S
C409 C411 1.407 . S
C409 H416 0.930 . S
C410 C398 1.410 . S
C410 C411 1.345 1_545 S
C410 H418 0.930 . S
C411 C409 1.407 . S
C411 C410 1.345 1_565 S
C411 H413 0.930 . S
H412 C405 0.930 . S
H413 C411 0.930 . S
H414 C402 0.930 . S
H415 C403 0.931 . S
H416 C409 0.930 . S
H417 C431 0.930 . S
H418 C410 0.930 . S
H419 C437 0.930 . S
H420 C428 0.930 . S
H421 C435 0.931 . S
H422 C399 0.929 . S
H423 C429 0.930 . S
H424 C462 0.930 . S
H425 C406 0.930 1_545 S
H426 C461 0.929 . S
N427 Tb396 2.660 . S
N427 C428 1.305 . S
N427 C432 1.360 . S
C428 H420 0.930 . S
C428 N427 1.305 . S
C428 C431 1.407 . S
C429 H423 0.930 . S
C429 C430 1.410 . S
C429 C431 1.345 . S
C430 C429 1.410 . S
C430 C432 1.417 . S
C430 C462 1.432 . S
C431 H417 0.930 . S
C431 C428 1.407 . S
C431 C429 1.345 . S
C432 N427 1.360 . S
C432 C430 1.417 . S
C432 C436 1.432 . S
H433 C438 0.930 . S
N434 Tb396 2.600 . S
N434 C436 1.359 . S
N434 C437 1.327 . S
C435 H421 0.931 . S
C435 C437 1.392 . S
C435 C438 1.370 . S
C436 C432 1.432 . S
C436 N434 1.359 . S
C436 C439 1.414 . S
C437 H419 0.930 . S
C437 N434 1.327 . S
C437 C435 1.392 . S
C438 H433 0.930 . S
C438 C435 1.370 . S
C438 C439 1.385 . S
C439 C436 1.414 . S
C439 C438 1.385 . S
C439 C461 1.444 . S
O440 Tb396 2.546 . S
O440 C460 1.251 . S
O441 Tb396 2.610 . S
O441 Tb407 2.362 . S
O441 C452 1.283 . S
O442 Tb407 2.421 . S
O442 C459 1.262 . S
O443 Tb396 2.320 . S
O443 C459 1.260 . S
O444 Tb396 2.552 . S
O444 C452 1.243 . S
O445 Tb396 2.413 . S
O445 C460 1.256 . S
O446 Tb407 2.546 . S
O446 C471 1.251 . S
O447 Tb396 2.362 . S
O447 Tb407 2.610 . S
O447 C463 1.283 . S
O448 Tb396 2.421 . S
O448 C470 1.262 . S
O449 Tb407 2.320 . S
O449 C470 1.260 . S
O450 Tb407 2.552 . S
O450 C463 1.243 . S
O451 Tb407 2.413 . S
O451 C471 1.256 . S
C452 O441 1.283 . S
C452 O444 1.243 . S
C453 C455 1.382 . S
C453 C457 1.393 . S
C453 C460 1.500 . S
C454 C455 1.400 . S
C454 C456 1.384 . S
C455 C453 1.382 . S
C455 C454 1.400 . S
C455 H472 0.930 . S
C456 C454 1.384 . S
C456 C458 1.392 . S
C456 H473 0.931 . S
C457 C453 1.393 . S
C457 C458 1.401 . S
C457 H474 0.930 . S
C458 C456 1.392 . S
C458 C457 1.401 . S
C458 H475 0.930 . S
C459 O442 1.262 . S
C459 O443 1.260 . S
C460 Tb396 2.833 . S
C460 O440 1.251 . S
C460 O445 1.256 . S
C460 C453 1.500 . S
C461 H426 0.929 . S
C461 C439 1.444 . S
C461 C462 1.317 . S
C462 H424 0.930 . S
C462 C430 1.432 . S
C462 C461 1.317 . S
C463 O447 1.283 . S
C463 O450 1.243 . S
C464 C465 1.382 . S
C464 C468 1.393 . S
C464 C471 1.500 . S
C465 C464 1.382 . S
C465 C466 1.400 . S
C465 H476 0.930 . S
C466 C465 1.400 . S
C466 C467 1.384 . S
C467 C466 1.384 . S
C467 C469 1.392 . S
C467 H477 0.931 . S
C468 C464 1.393 . S
C468 C469 1.401 . S
C468 H478 0.930 . S
C469 C467 1.392 . S
C469 C468 1.401 . S
C469 H479 0.930 . S
C470 O448 1.262 . S
C470 O449 1.260 . S
C471 Tb407 2.833 . S
C471 O446 1.251 . S
C471 O451 1.256 . S
C471 C464 1.500 . S
H472 C455 0.930 . S
H473 C456 0.931 . S
H474 C457 0.930 . S
H475 C458 0.930 . S
H476 C465 0.930 . S
H477 C467 0.931 . S
H478 C468 0.930 . S
H479 C469 0.930 . S
Tb480 N511 2.660 . S
Tb480 N518 2.600 . S
Tb480 O524 2.546 1_545 S
Tb480 O525 2.610 . S
Tb480 O527 2.320 . S
Tb480 O528 2.552 1_545 S
Tb480 O529 2.413 . S
Tb480 O531 2.362 . S
Tb480 O532 2.421 . S
Tb480 C544 2.833 . S
C481 C484 1.432 . S
C481 C485 1.414 . S
C481 N488 1.359 1_565 S
C482 C484 1.417 . S
C482 C486 1.432 . S
C482 C494 1.410 . S
C483 C485 1.444 . S
C483 C486 1.317 . S
C483 H506 0.929 . S
C484 C481 1.432 . S
C484 C482 1.417 . S
C484 N492 1.360 . S
C485 C481 1.414 . S
C485 C483 1.444 . S
C485 C490 1.385 . S
C486 C482 1.432 . S
C486 C483 1.317 . S
C486 H498 0.930 . S
C487 C489 1.392 . S
C487 C490 1.370 1_545 S
C487 H499 0.931 . S
N488 C481 1.359 1_545 S
N488 C489 1.327 . S
N488 Tb491 2.600 . S
C489 C487 1.392 . S
C489 N488 1.327 . S
C489 H496 0.930 . S
C490 C485 1.385 . S
C490 C487 1.370 1_565 S
C490 H509 0.930 . S
Tb491 N488 2.600 . S
Tb491 N492 2.660 1_545 S
Tb491 O525 2.362 . S
Tb491 O526 2.421 . S
Tb491 O530 2.546 . S
Tb491 O531 2.610 . S
Tb491 O533 2.320 . S
Tb491 O534 2.552 . S
Tb491 O535 2.413 . S
Tb491 C555 2.833 . S
N492 C484 1.360 . S
N492 Tb491 2.660 1_565 S
N492 C493 1.305 . S
C493 N492 1.305 . S
C493 C495 1.407 . S
C493 H500 0.930 . S
C494 C482 1.410 . S
C494 C495 1.345 . S
C494 H502 0.930 . S
C495 C493 1.407 . S
C495 C494 1.345 . S
C495 H497 0.930 . S
H496 C489 0.930 . S
H497 C495 0.930 . S
H498 C486 0.930 . S
H499 C487 0.931 . S
H500 C493 0.930 . S
H501 C515 0.930 . S
H502 C494 0.930 . S
H503 C521 0.930 . S
H504 C512 0.930 . S
H505 C519 0.931 . S
H506 C483 0.929 . S
H507 C513 0.930 . S
H508 C546 0.930 . S
H509 C490 0.930 . S
H510 C545 0.929 . S
N511 Tb480 2.660 . S
N511 C512 1.305 . S
N511 C516 1.360 . S
C512 H504 0.930 . S
C512 N511 1.305 . S
C512 C515 1.407 . S
C513 H507 0.930 . S
C513 C514 1.410 . S
C513 C515 1.345 . S
C514 C513 1.410 . S
C514 C516 1.417 . S
C514 C546 1.432 . S
C515 H501 0.930 . S
C515 C512 1.407 . S
C515 C513 1.345 . S
C516 N511 1.360 . S
C516 C514 1.417 . S
C516 C520 1.432 . S
H517 C522 0.930 . S
N518 Tb480 2.600 . S
N518 C520 1.359 . S
N518 C521 1.327 . S
C519 H505 0.931 . S
C519 C521 1.392 . S
C519 C522 1.370 . S
C520 C516 1.432 . S
C520 N518 1.359 . S
C520 C523 1.414 . S
C521 H503 0.930 . S
C521 N518 1.327 . S
C521 C519 1.392 . S
C522 H517 0.930 . S
C522 C519 1.370 . S
C522 C523 1.385 . S
C523 C520 1.414 . S
C523 C522 1.385 . S
C523 C545 1.444 . S
O524 Tb480 2.546 1_565 S
O524 C544 1.251 1_565 S
O525 Tb480 2.610 . S
O525 Tb491 2.362 . S
O525 C536 1.283 1_545 S
O526 Tb491 2.421 . S
O526 C543 1.262 . S
O527 Tb480 2.320 . S
O527 C543 1.260 . S
O528 Tb480 2.552 1_565 S
O528 C536 1.243 . S
O529 Tb480 2.413 . S
O529 C544 1.256 . S
O530 Tb491 2.546 . S
O530 C555 1.251 . S
O531 Tb480 2.362 . S
O531 Tb491 2.610 . S
O531 C547 1.283 . S
O532 Tb480 2.421 . S
O532 C554 1.262 . S
O533 Tb491 2.320 . S
O533 C554 1.260 . S
O534 Tb491 2.552 . S
O534 C547 1.243 . S
O535 Tb491 2.413 . S
O535 C555 1.256 . S
C536 O525 1.283 1_565 S
C536 O528 1.243 . S
C537 C539 1.382 . S
C537 C541 1.393 . S
C537 C544 1.500 1_565 S
C538 C539 1.400 . S
C538 C540 1.384 . S
C539 C537 1.382 . S
C539 C538 1.400 . S
C539 H556 0.930 . S
C540 C538 1.384 . S
C540 C542 1.392 . S
C540 H557 0.931 . S
C541 C537 1.393 . S
C541 C542 1.401 . S
C541 H558 0.930 . S
C542 C540 1.392 . S
C542 C541 1.401 . S
C542 H559 0.930 . S
C543 O526 1.262 . S
C543 O527 1.260 . S
C544 Tb480 2.833 . S
C544 O524 1.251 1_545 S
C544 O529 1.256 . S
C544 C537 1.500 1_545 S
C545 H510 0.929 . S
C545 C523 1.444 . S
C545 C546 1.317 . S
C546 H508 0.930 . S
C546 C514 1.432 . S
C546 C545 1.317 . S
C547 O531 1.283 . S
C547 O534 1.243 . S
C548 C549 1.382 . S
C548 C552 1.393 . S
C548 C555 1.500 . S
C549 C548 1.382 . S
C549 C550 1.400 . S
C549 H560 0.930 . S
C550 C549 1.400 . S
C550 C551 1.384 . S
C551 C550 1.384 . S
C551 C553 1.392 . S
C551 H561 0.931 . S
C552 C548 1.393 . S
C552 C553 1.401 . S
C552 H562 0.930 . S
C553 C551 1.392 . S
C553 C552 1.401 . S
C553 H563 0.930 . S
C554 O532 1.262 . S
C554 O533 1.260 . S
C555 Tb491 2.833 . S
C555 O530 1.251 . S
C555 O535 1.256 . S
C555 C548 1.500 . S
H556 C539 0.930 . S
H557 C540 0.931 . S
H558 C541 0.930 . S
H559 C542 0.930 . S
H560 C549 0.930 . S
H561 C551 0.931 . S
H562 C552 0.930 . S
H563 C553 0.930 . S
Tb564 N595 2.660 . S
Tb564 N602 2.600 . S
Tb564 O608 2.546 . S
Tb564 O609 2.610 . S
Tb564 O611 2.320 . S
Tb564 O612 2.552 . S
Tb564 O613 2.413 . S
Tb564 O615 2.362 . S
Tb564 O616 2.421 . S
Tb564 C628 2.833 . S
C565 C568 1.432 . S
C565 C569 1.414 . S
C565 N572 1.359 . S
C566 C568 1.417 . S
C566 C570 1.432 . S
C566 C578 1.410 . S
C567 C569 1.444 . S
C567 C570 1.317 . S
C567 H590 0.929 . S
C568 C565 1.432 . S
C568 C566 1.417 . S
C568 N576 1.360 . S
C569 C565 1.414 . S
C569 C567 1.444 . S
C569 C574 1.385 . S
C570 C566 1.432 . S
C570 C567 1.317 . S
C570 H582 0.930 1_556 S
C571 C573 1.392 . S
C571 C574 1.370 . S
C571 H583 0.931 . S
N572 C565 1.359 . S
N572 C573 1.327 . S
N572 Tb575 2.600 . S
C573 C571 1.392 . S
C573 N572 1.327 . S
C573 H580 0.930 . S
C574 C569 1.385 . S
C574 C571 1.370 . S
C574 H593 0.930 . S
Tb575 N572 2.600 . S
Tb575 N576 2.660 . S
Tb575 O609 2.362 . S
Tb575 O610 2.421 . S
Tb575 O614 2.546 . S
Tb575 O615 2.610 . S
Tb575 O617 2.320 . S
Tb575 O618 2.552 . S
Tb575 O619 2.413 . S
Tb575 C639 2.833 . S
N576 C568 1.360 . S
N576 Tb575 2.660 . S
N576 C577 1.305 . S
C577 N576 1.305 . S
C577 C579 1.407 . S
C577 H584 0.930 . S
C578 C566 1.410 . S
C578 C579 1.345 . S
C578 H586 0.935 . S
C579 C577 1.407 . S
C579 C578 1.345 . S
C579 H581 0.930 . S
H580 C573 0.930 . S
H581 C579 0.930 . S
H582 C570 0.930 1_554 S
H583 C571 0.931 . S
H584 C577 0.930 . S
H585 C599 0.930 . S
H586 C578 0.935 . S
H587 C605 0.930 . S
H588 C596 0.930 . S
H589 C603 0.931 . S
H590 C567 0.929 . S
H591 C597 0.930 . S
H592 C630 0.930 . S
H593 C574 0.930 . S
H594 C629 0.929 . S
N595 Tb564 2.660 . S
N595 C596 1.305 . S
N595 C600 1.360 . S
C596 H588 0.930 . S
C596 N595 1.305 . S
C596 C599 1.407 . S
C597 H591 0.930 . S
C597 C598 1.410 . S
C597 C599 1.345 . S
C598 C597 1.410 . S
C598 C600 1.417 . S
C598 C630 1.432 . S
C599 H585 0.930 . S
C599 C596 1.407 . S
C599 C597 1.345 . S
C600 N595 1.360 . S
C600 C598 1.417 . S
C600 C604 1.432 . S
H601 C606 0.930 . S
N602 Tb564 2.600 . S
N602 C604 1.359 . S
N602 C605 1.327 . S
C603 H589 0.931 . S
C603 C605 1.392 . S
C603 C606 1.370 . S
C604 C600 1.432 . S
C604 N602 1.359 . S
C604 C607 1.414 . S
C605 H587 0.930 . S
C605 N602 1.327 . S
C605 C603 1.392 . S
C606 H601 0.930 . S
C606 C603 1.370 . S
C606 C607 1.385 . S
C607 C604 1.414 . S
C607 C606 1.385 . S
C607 C629 1.444 . S
O608 Tb564 2.546 . S
O608 C628 1.251 . S
O609 Tb564 2.610 . S
O609 Tb575 2.362 . S
O609 C620 1.283 . S
O610 Tb575 2.421 . S
O610 C627 1.262 . S
O611 Tb564 2.320 . S
O611 C627 1.260 . S
O612 Tb564 2.552 . S
O612 C620 1.243 . S
O613 Tb564 2.413 . S
O613 C628 1.256 . S
O614 Tb575 2.546 . S
O614 C639 1.251 . S
O615 Tb564 2.362 . S
O615 Tb575 2.610 . S
O615 C631 1.283 . S
O616 Tb564 2.421 . S
O616 C638 1.262 . S
O617 Tb575 2.320 . S
O617 C638 1.260 . S
O618 Tb575 2.552 . S
O618 C631 1.243 . S
O619 Tb575 2.413 . S
O619 C639 1.256 . S
C620 O609 1.283 . S
C620 O612 1.243 . S
C621 C623 1.382 . S
C621 C625 1.393 . S
C621 C628 1.500 . S
C622 C623 1.400 . S
C622 C624 1.384 . S
C623 C621 1.382 . S
C623 C622 1.400 . S
C623 H640 0.930 . S
C624 C622 1.384 . S
C624 C626 1.392 . S
C624 H641 0.931 . S
C625 C621 1.393 . S
C625 C626 1.401 . S
C625 H642 0.930 . S
C626 C624 1.392 . S
C626 C625 1.401 . S
C626 H643 0.930 . S
C627 O610 1.262 . S
C627 O611 1.260 . S
C628 Tb564 2.833 . S
C628 O608 1.251 . S
C628 O613 1.256 . S
C628 C621 1.500 . S
C629 H594 0.929 . S
C629 C607 1.444 . S
C629 C630 1.317 . S
C630 H592 0.930 . S
C630 C598 1.432 . S
C630 C629 1.317 . S
C631 O615 1.283 . S
C631 O618 1.243 . S
C632 C633 1.382 . S
C632 C636 1.393 . S
C632 C639 1.500 . S
C633 C632 1.382 . S
C633 C634 1.400 . S
C633 H644 0.930 . S
C634 C633 1.400 . S
C634 C635 1.384 . S
C635 C634 1.384 . S
C635 C637 1.392 . S
C635 H645 0.931 . S
C636 C632 1.393 . S
C636 C637 1.401 . S
C636 H646 0.930 . S
C637 C635 1.392 . S
C637 C636 1.401 . S
C637 H647 0.930 . S
C638 O616 1.262 . S
C638 O617 1.260 . S
C639 Tb575 2.833 . S
C639 O614 1.251 . S
C639 O619 1.256 . S
C639 C632 1.500 . S
H640 C623 0.930 . S
H641 C624 0.931 . S
H642 C625 0.930 . S
H643 C626 0.930 . S
H644 C633 0.930 . S
H645 C635 0.931 . S
H646 C636 0.930 . S
H647 C637 0.930 . S
Tb648 N679 2.660 . S
Tb648 N686 2.600 . S
Tb648 O692 2.546 . S
Tb648 O693 2.610 . S
Tb648 O695 2.320 . S
Tb648 O696 2.552 . S
Tb648 O697 2.413 . S
Tb648 O699 2.362 . S
Tb648 O700 2.421 . S
Tb648 C712 2.833 . S
C649 C652 1.432 . S
C649 C653 1.414 . S
C649 N656 1.359 . S
C650 C652 1.417 . S
C650 C654 1.432 . S
C650 C662 1.410 1_455 S
C651 C653 1.444 . S
C651 C654 1.317 . S
C651 H674 0.929 . S
C652 C649 1.432 . S
C652 C650 1.417 . S
C652 N660 1.360 . S
C653 C649 1.414 . S
C653 C651 1.444 . S
C653 C658 1.385 . S
C654 C650 1.432 . S
C654 C651 1.317 . S
C654 H666 0.930 . S
C655 C657 1.392 . S
C655 C658 1.370 . S
C655 H667 0.931 . S
N656 C649 1.359 . S
N656 C657 1.327 . S
N656 Tb659 2.600 . S
C657 C655 1.392 . S
C657 N656 1.327 . S
C657 H664 0.930 . S
C658 C653 1.385 . S
C658 C655 1.370 . S
C658 H677 0.930 . S
Tb659 N656 2.600 . S
Tb659 N660 2.660 . S
Tb659 O693 2.362 1_565 S
Tb659 O694 2.421 1_565 S
Tb659 O698 2.546 . S
Tb659 O699 2.610 1_565 S
Tb659 O701 2.320 . S
Tb659 O702 2.552 . S
Tb659 O703 2.413 . S
Tb659 C723 2.833 . S
N660 C652 1.360 . S
N660 Tb659 2.660 . S
N660 C661 1.305 . S
C661 N660 1.305 . S
C661 C663 1.407 1_455 S
C661 H668 0.930 . S
C662 C650 1.410 1_655 S
C662 C663 1.345 . S
C662 H670 0.930 . S
C663 C661 1.407 1_655 S
C663 C662 1.345 . S
C663 H665 0.930 . S
H664 C657 0.930 . S
H665 C663 0.930 . S
H666 C654 0.930 . S
H667 C655 0.931 . S
H668 C661 0.930 . S
H669 C683 0.930 . S
H670 C662 0.930 . S
H671 C689 0.930 . S
H672 C680 0.930 . S
H673 C687 0.931 1_655 S
H674 C651 0.929 . S
H675 C681 0.930 . S
H676 C714 0.930 . S
H677 C658 0.930 . S
H678 C713 0.929 . S
N679 Tb648 2.660 . S
N679 C680 1.305 . S
N679 C684 1.360 . S
C680 H672 0.930 . S
C680 N679 1.305 . S
C680 C683 1.407 . S
C681 H675 0.930 . S
C681 C682 1.410 . S
C681 C683 1.345 . S
C682 C681 1.410 . S
C682 C684 1.417 . S
C682 C714 1.432 . S
C683 H669 0.930 . S
C683 C680 1.407 . S
C683 C681 1.345 . S
C684 N679 1.360 . S
C684 C682 1.417 . S
C684 C688 1.432 . S
H685 C690 0.930 . S
N686 Tb648 2.600 . S
N686 C688 1.359 . S
N686 C689 1.327 . S
C687 H673 0.931 1_455 S
C687 C689 1.392 . S
C687 C690 1.370 . S
C688 C684 1.432 . S
C688 N686 1.359 . S
C688 C691 1.414 . S
C689 H671 0.930 . S
C689 N686 1.327 . S
C689 C687 1.392 . S
C690 H685 0.930 . S
C690 C687 1.370 . S
C690 C691 1.385 . S
C691 C688 1.414 . S
C691 C690 1.385 . S
C691 C713 1.444 . S
O692 Tb648 2.546 . S
O692 C712 1.251 . S
O693 Tb648 2.610 . S
O693 Tb659 2.362 1_545 S
O693 C704 1.283 . S
O694 Tb659 2.421 1_545 S
O694 C711 1.262 . S
O695 Tb648 2.320 . S
O695 C711 1.260 . S
O696 Tb648 2.552 . S
O696 C704 1.243 . S
O697 Tb648 2.413 . S
O697 C712 1.256 . S
O698 Tb659 2.546 . S
O698 C723 1.251 . S
O699 Tb648 2.362 . S
O699 Tb659 2.610 1_545 S
O699 C715 1.283 . S
O700 Tb648 2.421 . S
O700 C722 1.262 . S
O701 Tb659 2.320 . S
O701 C722 1.260 1_565 S
O702 Tb659 2.552 . S
O702 C715 1.243 1_565 S
O703 Tb659 2.413 . S
O703 C723 1.256 . S
C704 O693 1.283 . S
C704 O696 1.243 . S
C705 C707 1.382 . S
C705 C709 1.393 . S
C705 C712 1.500 . S
C706 C707 1.400 . S
C706 C708 1.384 . S
C707 C705 1.382 . S
C707 C706 1.400 . S
C707 H724 0.930 . S
C708 C706 1.384 . S
C708 C710 1.392 . S
C708 H725 0.931 . S
C709 C705 1.393 . S
C709 C710 1.401 . S
C709 H726 0.930 . S
C710 C708 1.392 . S
C710 C709 1.401 . S
C710 H727 0.930 . S
C711 O694 1.262 . S
C711 O695 1.260 . S
C712 Tb648 2.833 . S
C712 O692 1.251 . S
C712 O697 1.256 . S
C712 C705 1.500 . S
C713 H678 0.929 . S
C713 C691 1.444 . S
C713 C714 1.317 . S
C714 H676 0.930 . S
C714 C682 1.432 . S
C714 C713 1.317 . S
C715 O699 1.283 . S
C715 O702 1.243 1_545 S
C716 C717 1.382 . S
C716 C720 1.393 . S
C716 C723 1.500 . S
C717 C716 1.382 . S
C717 C718 1.400 . S
C717 H728 0.930 . S
C718 C717 1.400 . S
C718 C719 1.384 . S
C719 C718 1.384 . S
C719 C721 1.392 . S
C719 H729 0.931 . S
C720 C716 1.393 . S
C720 C721 1.401 . S
C720 H730 0.930 . S
C721 C719 1.392 . S
C721 C720 1.401 . S
C721 H731 0.930 . S
C722 O700 1.262 . S
C722 O701 1.260 1_545 S
C723 Tb659 2.833 . S
C723 O698 1.251 . S
C723 O703 1.256 . S
C723 C716 1.500 . S
H724 C707 0.930 . S
H725 C708 0.931 . S
H726 C709 0.930 . S
H727 C710 0.930 . S
H728 C717 0.930 . S
H729 C719 0.931 . S
H730 C720 0.930 . S
H731 C721 0.930 . S
Tb732 N763 2.660 . S
Tb732 N770 2.600 . S
Tb732 O776 2.546 . S
Tb732 O777 2.610 . S
Tb732 O779 2.320 . S
Tb732 O780 2.552 . S
Tb732 O781 2.413 . S
Tb732 O783 2.362 . S
Tb732 O784 2.421 . S
Tb732 C796 2.833 . S
C733 C736 1.432 . S
C733 C737 1.414 . S
C733 N740 1.359 . S
C734 C736 1.417 . S
C734 C738 1.432 . S
C734 C746 1.410 . S
C735 C737 1.444 . S
C735 C738 1.317 . S
C735 H758 0.929 . S
C736 C733 1.432 . S
C736 C734 1.417 . S
C736 N744 1.360 . S
C737 C733 1.414 . S
C737 C735 1.444 . S
C737 C742 1.385 . S
C738 C734 1.432 . S
C738 C735 1.317 . S
C738 H750 0.930 . S
C739 C741 1.392 . S
C739 C742 1.370 . S
C739 H751 0.931 . S
N740 C733 1.359 . S
N740 C741 1.327 . S
N740 Tb743 2.600 . S
C741 C739 1.392 . S
C741 N740 1.327 . S
C741 H748 0.930 . S
C742 C737 1.385 . S
C742 C739 1.370 . S
C742 H761 0.930 . S
Tb743 N740 2.600 . S
Tb743 N744 2.660 . S
Tb743 O777 2.362 . S
Tb743 O778 2.421 . S
Tb743 O782 2.546 . S
Tb743 O783 2.610 . S
Tb743 O785 2.320 . S
Tb743 O786 2.552 . S
Tb743 O787 2.413 . S
Tb743 C807 2.833 . S
N744 C736 1.360 . S
N744 Tb743 2.660 . S
N744 C745 1.305 . S
C745 N744 1.305 . S
C745 C747 1.407 . S
C745 H752 0.930 . S
C746 C734 1.410 . S
C746 C747 1.345 . S
C746 H754 0.930 . S
C747 C745 1.407 . S
C747 C746 1.345 . S
C747 H749 0.930 . S
H748 C741 0.930 . S
H749 C747 0.930 . S
H750 C738 0.930 . S
H751 C739 0.931 . S
H752 C745 0.930 . S
H753 C767 0.930 . S
H754 C746 0.930 . S
H755 C773 0.930 . S
H756 C764 0.930 . S
H757 C771 0.931 . S
H758 C735 0.929 . S
H759 C765 0.930 . S
H760 C798 0.930 . S
H761 C742 0.930 . S
H762 C797 0.929 . S
N763 Tb732 2.660 . S
N763 C764 1.305 . S
N763 C768 1.360 . S
C764 H756 0.930 . S
C764 N763 1.305 . S
C764 C767 1.407 1_565 S
C765 H759 0.930 . S
C765 C766 1.410 . S
C765 C767 1.345 . S
C766 C765 1.410 . S
C766 C768 1.417 1_545 S
C766 C798 1.432 . S
C767 H753 0.930 . S
C767 C764 1.407 1_545 S
C767 C765 1.345 . S
C768 N763 1.360 . S
C768 C766 1.417 1_565 S
C768 C772 1.432 . S
H769 C774 0.930 . S
N770 Tb732 2.600 . S
N770 C772 1.359 . S
N770 C773 1.327 . S
C771 H757 0.931 . S
C771 C773 1.392 . S
C771 C774 1.370 . S
C772 C768 1.432 . S
C772 N770 1.359 . S
C772 C775 1.414 . S
C773 H755 0.930 . S
C773 N770 1.327 . S
C773 C771 1.392 . S
C774 H769 0.930 . S
C774 C771 1.370 . S
C774 C775 1.385 . S
C775 C772 1.414 . S
C775 C774 1.385 . S
C775 C797 1.444 1_565 S
O776 Tb732 2.546 . S
O776 C796 1.251 . S
O777 Tb732 2.610 . S
O777 Tb743 2.362 . S
O777 C788 1.283 . S
O778 Tb743 2.421 . S
O778 C795 1.262 . S
O779 Tb732 2.320 . S
O779 C795 1.260 . S
O780 Tb732 2.552 . S
O780 C788 1.243 . S
O781 Tb732 2.413 . S
O781 C796 1.256 . S
O782 Tb743 2.546 . S
O782 C807 1.251 . S
O783 Tb732 2.362 . S
O783 Tb743 2.610 . S
O783 C799 1.283 . S
O784 Tb732 2.421 . S
O784 C806 1.262 . S
O785 Tb743 2.320 . S
O785 C806 1.260 . S
O786 Tb743 2.552 . S
O786 C799 1.243 . S
O787 Tb743 2.413 . S
O787 C807 1.256 . S
C788 O777 1.283 . S
C788 O780 1.243 . S
C789 C791 1.382 . S
C789 C793 1.393 . S
C789 C796 1.500 . S
C790 C791 1.400 . S
C790 C792 1.384 . S
C791 C789 1.382 . S
C791 C790 1.400 . S
C791 H808 0.930 . S
C792 C790 1.384 . S
C792 C794 1.392 . S
C792 H809 0.931 . S
C793 C789 1.393 . S
C793 C794 1.401 . S
C793 H810 0.930 . S
C794 C792 1.392 . S
C794 C793 1.401 . S
C794 H811 0.930 . S
C795 O778 1.262 . S
C795 O779 1.260 . S
C796 Tb732 2.833 . S
C796 O776 1.251 . S
C796 O781 1.256 . S
C796 C789 1.500 . S
C797 H762 0.929 . S
C797 C775 1.444 1_545 S
C797 C798 1.317 . S
C798 H760 0.930 . S
C798 C766 1.432 . S
C798 C797 1.317 . S
C799 O783 1.283 . S
C799 O786 1.243 . S
C800 C801 1.382 . S
C800 C804 1.393 . S
C800 C807 1.500 . S
C801 C800 1.382 . S
C801 C802 1.400 . S
C801 H812 0.930 . S
C802 C801 1.400 . S
C802 C803 1.384 . S
C803 C802 1.384 . S
C803 C805 1.392 . S
C803 H813 0.931 . S
C804 C800 1.393 . S
C804 C805 1.401 . S
C804 H814 0.930 . S
C805 C803 1.392 . S
C805 C804 1.401 . S
C805 H815 0.930 . S
C806 O784 1.262 . S
C806 O785 1.260 . S
C807 Tb743 2.833 . S
C807 O782 1.251 . S
C807 O787 1.256 . S
C807 C800 1.500 . S
H808 C791 0.930 . S
H809 C792 0.931 . S
H810 C793 0.930 . S
H811 C794 0.930 . S
H812 C801 0.930 . S
H813 C803 0.931 . S
H814 C804 0.930 . S
H815 C805 0.930 . S
Tb816 N847 2.660 . S
Tb816 N854 2.600 . S
Tb816 O860 2.546 1_545 S
Tb816 O861 2.610 . S
Tb816 O863 2.320 . S
Tb816 O864 2.552 . S
Tb816 O865 2.413 . S
Tb816 O867 2.362 . S
Tb816 O868 2.421 1_545 S
Tb816 C880 2.833 . S
C817 C820 1.432 . S
C817 C821 1.414 . S
C817 N824 1.359 . S
C818 C820 1.417 . S
C818 C822 1.432 . S
C818 C830 1.410 1_545 S
C819 C821 1.444 . S
C819 C822 1.317 . S
C819 H842 0.929 . S
C820 C817 1.432 . S
C820 C818 1.417 . S
C820 N828 1.360 . S
C821 C817 1.414 . S
C821 C819 1.444 . S
C821 C826 1.385 . S
C822 C818 1.432 . S
C822 C819 1.317 . S
C822 H834 0.930 . S
C823 C825 1.392 . S
C823 C826 1.370 . S
C823 H835 0.931 . S
N824 C817 1.359 . S
N824 C825 1.327 . S
N824 Tb827 2.600 . S
C825 C823 1.392 . S
C825 N824 1.327 . S
C825 H832 0.930 . S
C826 C821 1.385 . S
C826 C823 1.370 . S
C826 H845 0.930 . S
Tb827 N824 2.600 . S
Tb827 N828 2.660 . S
Tb827 O861 2.362 1_556 S
Tb827 O862 2.421 1_556 S
Tb827 O866 2.546 . S
Tb827 O867 2.610 1_556 S
Tb827 O869 2.320 . S
Tb827 O870 2.552 1_556 S
Tb827 O871 2.413 . S
Tb827 C891 2.833 . S
N828 C820 1.360 . S
N828 Tb827 2.660 . S
N828 C829 1.305 1_545 S
C829 N828 1.305 1_565 S
C829 C831 1.407 . S
C829 H836 0.930 . S
C830 C818 1.410 1_565 S
C830 C831 1.345 . S
C830 H838 0.930 . S
C831 C829 1.407 . S
C831 C830 1.345 . S
C831 H833 0.930 . S
H832 C825 0.930 . S
H833 C831 0.930 . S
H834 C822 0.930 . S
H835 C823 0.931 . S
H836 C829 0.930 . S
H837 C851 0.930 . S
H838 C830 0.930 . S
H839 C857 0.930 . S
H840 C848 0.930 . S
H841 C855 0.931 . S
H842 C819 0.929 . S
H843 C849 0.930 . S
H844 C882 0.930 . S
H845 C826 0.930 . S
H846 C881 0.929 . S
N847 Tb816 2.660 . S
N847 C848 1.305 . S
N847 C852 1.360 . S
C848 H840 0.930 . S
C848 N847 1.305 . S
C848 C851 1.407 . S
C849 H843 0.930 . S
C849 C850 1.410 . S
C849 C851 1.345 . S
C850 C849 1.410 . S
C850 C852 1.417 . S
C850 C882 1.432 . S
C851 H837 0.930 . S
C851 C848 1.407 . S
C851 C849 1.345 . S
C852 N847 1.360 . S
C852 C850 1.417 . S
C852 C856 1.432 . S
H853 C858 0.930 . S
N854 Tb816 2.600 . S
N854 C856 1.359 . S
N854 C857 1.327 1_545 S
C855 H841 0.931 . S
C855 C857 1.392 . S
C855 C858 1.370 . S
C856 C852 1.432 . S
C856 N854 1.359 . S
C856 C859 1.414 . S
C857 H839 0.930 . S
C857 N854 1.327 1_565 S
C857 C855 1.392 . S
C858 H853 0.930 . S
C858 C855 1.370 . S
C858 C859 1.385 1_565 S
C859 C856 1.414 . S
C859 C858 1.385 1_545 S
C859 C881 1.444 . S
O860 Tb816 2.546 1_565 S
O860 C880 1.251 1_565 S
O861 Tb816 2.610 . S
O861 Tb827 2.362 1_554 S
O861 C872 1.283 . S
O862 Tb827 2.421 1_554 S
O862 C879 1.262 . S
O863 Tb816 2.320 . S
O863 C879 1.260 . S
O864 Tb816 2.552 . S
O864 C872 1.243 . S
O865 Tb816 2.413 . S
O865 C880 1.256 . S
O866 Tb827 2.546 . S
O866 C891 1.251 . S
O867 Tb816 2.362 . S
O867 Tb827 2.610 1_554 S
O867 C883 1.283 . S
O868 Tb816 2.421 1_565 S
O868 C890 1.262 1_554 S
O869 Tb827 2.320 . S
O869 C890 1.260 1_545 S
O870 Tb827 2.552 1_554 S
O870 C883 1.243 . S
O871 Tb827 2.413 . S
O871 C891 1.256 . S
C872 O861 1.283 . S
C872 O864 1.243 . S
C873 C875 1.382 1_565 S
C873 C877 1.393 . S
C873 C880 1.500 1_565 S
C874 C875 1.400 1_565 S
C874 C876 1.384 . S
C875 C873 1.382 1_545 S
C875 C874 1.400 1_545 S
C875 H892 0.930 . S
C876 C874 1.384 . S
C876 C878 1.392 . S
C876 H893 0.931 . S
C877 C873 1.393 . S
C877 C878 1.401 . S
C877 H894 0.930 . S
C878 C876 1.392 . S
C878 C877 1.401 . S
C878 H895 0.930 . S
C879 O862 1.262 . S
C879 O863 1.260 . S
C880 Tb816 2.833 . S
C880 O860 1.251 1_545 S
C880 O865 1.256 . S
C880 C873 1.500 1_545 S
C881 H846 0.929 . S
C881 C859 1.444 . S
C881 C882 1.317 . S
C882 H844 0.930 . S
C882 C850 1.432 . S
C882 C881 1.317 . S
C883 O867 1.283 . S
C883 O870 1.243 . S
C884 C885 1.382 . S
C884 C888 1.393 . S
C884 C891 1.500 . S
C885 C884 1.382 . S
C885 C886 1.400 . S
C885 H896 0.930 . S
C886 C885 1.400 . S
C886 C887 1.384 . S
C887 C886 1.384 . S
C887 C889 1.392 . S
C887 H897 0.931 . S
C888 C884 1.393 . S
C888 C889 1.401 . S
C888 H898 0.930 . S
C889 C887 1.392 . S
C889 C888 1.401 . S
C889 H899 0.930 . S
C890 O868 1.262 1_556 S
C890 O869 1.260 1_565 S
C891 Tb827 2.833 . S
C891 O866 1.251 . S
C891 O871 1.256 . S
C891 C884 1.500 . S
H892 C875 0.930 . S
H893 C876 0.931 . S
H894 C877 0.930 . S
H895 C878 0.930 . S
H896 C885 0.930 . S
H897 C887 0.931 . S
H898 C888 0.930 . S
H899 C889 0.930 . S
Tb900 N931 2.660 . S
Tb900 N938 2.600 . S
Tb900 O944 2.546 . S
Tb900 O945 2.610 . S
Tb900 O947 2.320 . S
Tb900 O948 2.552 . S
Tb900 O949 2.413 . S
Tb900 O951 2.362 . S
Tb900 O952 2.421 . S
Tb900 C964 2.833 . S
C901 C904 1.432 . S
C901 C905 1.414 . S
C901 N908 1.359 . S
C902 C904 1.417 . S
C902 C906 1.432 . S
C902 C914 1.410 . S
C903 C905 1.444 . S
C903 C906 1.317 . S
C903 H926 0.929 . S
C904 C901 1.432 . S
C904 C902 1.417 . S
C904 N912 1.360 . S
C905 C901 1.414 . S
C905 C903 1.444 . S
C905 C910 1.385 . S
C906 C902 1.432 . S
C906 C903 1.317 . S
C906 H918 0.930 . S
C907 C909 1.392 . S
C907 C910 1.370 . S
C907 H919 0.931 . S
N908 C901 1.359 . S
N908 C909 1.327 . S
N908 Tb911 2.600 . S
C909 C907 1.392 . S
C909 N908 1.327 . S
C909 H916 0.930 . S
C910 C905 1.385 . S
C910 C907 1.370 . S
C910 H929 0.930 . S
Tb911 N908 2.600 . S
Tb911 N912 2.660 . S
Tb911 O945 2.362 . S
Tb911 O946 2.421 . S
Tb911 O950 2.546 . S
Tb911 O951 2.610 . S
Tb911 O953 2.320 . S
Tb911 O954 2.552 . S
Tb911 O955 2.413 . S
Tb911 C975 2.833 . S
N912 C904 1.360 . S
N912 Tb911 2.660 . S
N912 C913 1.305 . S
C913 N912 1.305 . S
C913 C915 1.407 . S
C913 H920 0.930 . S
C914 C902 1.410 . S
C914 C915 1.345 . S
C914 H922 0.930 . S
C915 C913 1.407 . S
C915 C914 1.345 . S
C915 H917 0.930 . S
H916 C909 0.930 . S
H917 C915 0.930 . S
H918 C906 0.930 . S
H919 C907 0.931 . S
H920 C913 0.930 . S
H921 C935 0.930 . S
H922 C914 0.930 . S
H923 C941 0.930 . S
H924 C932 0.930 . S
H925 C939 0.931 . S
H926 C903 0.929 . S
H927 C933 0.930 . S
H928 C966 0.930 . S
H929 C910 0.930 . S
H930 C965 0.929 . S
N931 Tb900 2.660 . S
N931 C932 1.305 . S
N931 C936 1.360 . S
C932 H924 0.930 . S
C932 N931 1.305 . S
C932 C935 1.407 . S
C933 H927 0.930 . S
C933 C934 1.410 . S
C933 C935 1.345 . S
C934 C933 1.410 . S
C934 C936 1.417 . S
C934 C966 1.432 . S
C935 H921 0.930 . S
C935 C932 1.407 . S
C935 C933 1.345 . S
C936 N931 1.360 . S
C936 C934 1.417 . S
C936 C940 1.432 . S
H937 C942 0.930 . S
N938 Tb900 2.600 . S
N938 C940 1.359 . S
N938 C941 1.327 . S
C939 H925 0.931 . S
C939 C941 1.392 . S
C939 C942 1.370 . S
C940 C936 1.432 . S
C940 N938 1.359 . S
C940 C943 1.414 . S
C941 H923 0.930 . S
C941 N938 1.327 . S
C941 C939 1.392 . S
C942 H937 0.930 . S
C942 C939 1.370 . S
C942 C943 1.385 . S
C943 C940 1.414 . S
C943 C942 1.385 . S
C943 C965 1.444 . S
O944 Tb900 2.546 . S
O944 C964 1.251 . S
O945 Tb900 2.610 . S
O945 Tb911 2.362 . S
O945 C956 1.283 . S
O946 Tb911 2.421 . S
O946 C963 1.262 . S
O947 Tb900 2.320 . S
O947 C963 1.260 . S
O948 Tb900 2.552 . S
O948 C956 1.243 . S
O949 Tb900 2.413 . S
O949 C964 1.256 . S
O950 Tb911 2.546 . S
O950 C975 1.251 . S
O951 Tb900 2.362 . S
O951 Tb911 2.610 . S
O951 C967 1.283 . S
O952 Tb900 2.421 . S
O952 C974 1.262 . S
O953 Tb911 2.320 . S
O953 C974 1.260 . S
O954 Tb911 2.552 . S
O954 C967 1.243 . S
O955 Tb911 2.413 . S
O955 C975 1.256 . S
C956 O945 1.283 . S
C956 O948 1.243 . S
C957 C959 1.382 . S
C957 C961 1.393 . S
C957 C964 1.500 . S
C958 C959 1.400 . S
C958 C960 1.384 . S
C959 C957 1.382 . S
C959 C958 1.400 . S
C959 H976 0.930 . S
C960 C958 1.384 . S
C960 C962 1.392 . S
C960 H977 0.931 . S
C961 C957 1.393 . S
C961 C962 1.401 . S
C961 H978 0.930 . S
C962 C960 1.392 . S
C962 C961 1.401 . S
C962 H979 0.930 . S
C963 O946 1.262 . S
C963 O947 1.260 . S
C964 Tb900 2.833 . S
C964 O944 1.251 . S
C964 O949 1.256 . S
C964 C957 1.500 . S
C965 H930 0.929 . S
C965 C943 1.444 . S
C965 C966 1.317 . S
C966 H928 0.930 . S
C966 C934 1.432 . S
C966 C965 1.317 . S
C967 O951 1.283 . S
C967 O954 1.243 . S
C968 C969 1.382 . S
C968 C972 1.393 . S
C968 C975 1.500 . S
C969 C968 1.382 . S
C969 C970 1.400 1_545 S
C969 H980 0.930 . S
C970 C969 1.400 1_565 S
C970 C971 1.384 . S
C971 C970 1.384 . S
C971 C973 1.392 . S
C971 H981 0.931 . S
C972 C968 1.393 . S
C972 C973 1.401 1_545 S
C972 H982 0.930 . S
C973 C971 1.392 . S
C973 C972 1.401 1_565 S
C973 H983 0.930 . S
C974 O952 1.262 . S
C974 O953 1.260 . S
C975 Tb911 2.833 . S
C975 O950 1.251 . S
C975 O955 1.256 . S
C975 C968 1.500 . S
H976 C959 0.930 . S
H977 C960 0.931 . S
H978 C961 0.930 . S
H979 C962 0.930 . S
H980 C969 0.930 . S
H981 C971 0.931 . S
H982 C972 0.930 . S
H983 C973 0.930 . S
Tb984 N1015 2.660 . S
Tb984 N1022 2.600 . S
Tb984 O1028 2.546 . S
Tb984 O1029 2.610 1_554 S
Tb984 O1031 2.320 . S
Tb984 O1032 2.552 1_554 S
Tb984 O1033 2.413 . S
Tb984 O1035 2.362 . S
Tb984 O1036 2.421 . S
Tb984 C1048 2.833 . S
C985 C988 1.432 . S
C985 C989 1.414 . S
C985 N992 1.359 . S
C986 C988 1.417 . S
C986 C990 1.432 . S
C986 C998 1.410 . S
C987 C989 1.444 . S
C987 C990 1.317 . S
C987 H1010 0.929 . S
C988 C985 1.432 . S
C988 C986 1.417 . S
C988 N996 1.360 . S
C989 C985 1.414 . S
C989 C987 1.444 . S
C989 C994 1.385 . S
C990 C986 1.432 . S
C990 C987 1.317 . S
C990 H1002 0.930 . S
C991 C993 1.392 . S
C991 C994 1.370 . S
C991 H1003 0.931 . S
N992 C985 1.359 . S
N992 C993 1.327 . S
N992 Tb995 2.600 . S
C993 C991 1.392 . S
C993 N992 1.327 . S
C993 H1000 0.930 . S
C994 C989 1.385 . S
C994 C991 1.370 . S
C994 H1013 0.930 . S
Tb995 N992 2.600 . S
Tb995 N996 2.660 . S
Tb995 O1029 2.362 . S
Tb995 O1030 2.418 . S
Tb995 O1034 2.546 . S
Tb995 O1035 2.610 1_556 S
Tb995 O1037 2.320 1_556 S
Tb995 O1038 2.552 1_556 S
Tb995 O1039 2.413 1_556 S
Tb995 C1059 2.833 1_556 S
N996 C988 1.360 . S
N996 Tb995 2.660 . S
N996 C997 1.305 . S
C997 N996 1.305 . S
C997 C999 1.407 . S
C997 H1004 0.930 . S
C998 C986 1.410 . S
C998 C999 1.345 . S
C998 H1006 0.930 . S
C999 C997 1.407 . S
C999 C998 1.345 . S
C999 H1001 0.930 . S
H1000 C993 0.930 . S
H1001 C999 0.930 . S
H1002 C990 0.930 . S
H1003 C991 0.931 . S
H1004 C997 0.930 . S
H1005 C1019 0.930 . S
H1006 C998 0.930 . S
H1007 C1025 0.930 . S
H1008 C1016 0.930 . S
H1009 C1023 0.931 . S
H1010 C987 0.929 . S
H1011 C1017 0.930 . S
H1012 C1050 0.930 . S
H1013 C994 0.930 . S
H1014 C1049 0.929 . S
N1015 Tb984 2.660 . S
N1015 C1016 1.305 . S
N1015 C1020 1.360 . S
C1016 H1008 0.930 . S
C1016 N1015 1.305 . S
C1016 C1019 1.407 . S
C1017 H1011 0.930 . S
C1017 C1018 1.410 . S
C1017 C1019 1.345 . S
C1018 C1017 1.410 . S
C1018 C1020 1.417 . S
C1018 C1050 1.432 . S
C1019 H1005 0.930 . S
C1019 C1016 1.407 . S
C1019 C1017 1.345 . S
C1020 N1015 1.360 . S
C1020 C1018 1.417 . S
C1020 C1024 1.432 . S
H1021 C1026 0.930 . S
N1022 Tb984 2.600 . S
N1022 C1024 1.359 . S
N1022 C1025 1.327 . S
C1023 H1009 0.931 . S
C1023 C1025 1.392 . S
C1023 C1026 1.370 . S
C1024 C1020 1.432 . S
C1024 N1022 1.359 . S
C1024 C1027 1.414 . S
C1025 H1007 0.930 . S
C1025 N1022 1.327 . S
C1025 C1023 1.392 . S
C1026 H1021 0.930 . S
C1026 C1023 1.370 . S
C1026 C1027 1.385 . S
C1027 C1024 1.414 . S
C1027 C1026 1.385 . S
C1027 C1049 1.444 . S
O1028 Tb984 2.546 . S
O1028 C1048 1.251 . S
O1029 Tb984 2.610 1_556 S
O1029 Tb995 2.362 . S
O1029 C1040 1.283 . S
O1030 Tb995 2.418 . S
O1030 C1047 1.265 1_556 S
O1031 Tb984 2.320 . S
O1031 C1047 1.260 . S
O1032 Tb984 2.552 1_556 S
O1032 C1040 1.243 . S
O1033 Tb984 2.413 . S
O1033 C1048 1.256 . S
O1034 Tb995 2.546 . S
O1034 C1059 1.251 1_556 S
O1035 Tb984 2.362 . S
O1035 Tb995 2.610 1_554 S
O1035 C1051 1.283 . S
O1036 Tb984 2.421 . S
O1036 C1058 1.262 . S
O1037 Tb995 2.320 1_554 S
O1037 C1058 1.260 . S
O1038 Tb995 2.552 1_554 S
O1038 C1051 1.243 . S
O1039 Tb995 2.413 1_554 S
O1039 C1059 1.256 . S
C1040 O1029 1.283 . S
C1040 O1032 1.243 . S
C1041 C1043 1.382 . S
C1041 C1045 1.393 . S
C1041 C1048 1.500 . S
C1042 C1043 1.400 . S
C1042 C1044 1.384 . S
C1043 C1041 1.382 . S
C1043 C1042 1.400 . S
C1043 H1060 0.930 . S
C1044 C1042 1.384 . S
C1044 C1046 1.392 . S
C1044 H1061 0.931 . S
C1045 C1041 1.393 . S
C1045 C1046 1.401 . S
C1045 H1062 0.930 . S
C1046 C1044 1.392 . S
C1046 C1045 1.401 . S
C1046 H1063 0.930 . S
C1047 O1030 1.265 1_554 S
C1047 O1031 1.260 . S
C1048 Tb984 2.833 . S
C1048 O1028 1.251 . S
C1048 O1033 1.256 . S
C1048 C1041 1.500 . S
C1049 H1014 0.929 . S
C1049 C1027 1.444 . S
C1049 C1050 1.317 . S
C1050 H1012 0.930 . S
C1050 C1018 1.432 . S
C1050 C1049 1.317 . S
C1051 O1035 1.283 . S
C1051 O1038 1.243 . S
C1052 C1053 1.382 . S
C1052 C1056 1.393 1_554 S
C1052 C1059 1.500 . S
C1053 C1052 1.382 . S
C1053 C1054 1.400 . S
C1053 H1064 0.930 . S
C1054 C1053 1.400 . S
C1054 C1055 1.384 . S
C1055 C1054 1.384 . S
C1055 C1057 1.392 1_554 S
C1055 H1065 0.931 . S
C1056 C1052 1.393 1_556 S
C1056 C1057 1.401 . S
C1056 H1066 0.930 . S
C1057 C1055 1.392 1_556 S
C1057 C1056 1.401 . S
C1057 H1067 0.930 . S
C1058 O1036 1.262 . S
C1058 O1037 1.260 . S
C1059 Tb995 2.833 1_554 S
C1059 O1034 1.251 1_554 S
C1059 O1039 1.256 . S
C1059 C1052 1.500 . S
H1060 C1043 0.930 . S
H1061 C1044 0.931 . S
H1062 C1045 0.930 . S
H1063 C1046 0.930 . S
H1064 C1053 0.930 . S
H1065 C1055 0.931 . S
H1066 C1056 0.930 . S
H1067 C1057 0.930 . S
Tb1068 N1099 2.660 . S
Tb1068 N1106 2.600 . S
Tb1068 O1112 2.546 . S
Tb1068 O1113 2.610 . S
Tb1068 O1115 2.320 . S
Tb1068 O1116 2.552 . S
Tb1068 O1117 2.413 . S
Tb1068 O1119 2.362 . S
Tb1068 O1120 2.421 . S
Tb1068 C1132 2.818 1_655 S
C1069 C1072 1.432 . S
C1069 C1073 1.414 . S
C1069 N1076 1.359 . S
C1070 C1072 1.417 . S
C1070 C1074 1.432 . S
C1070 C1082 1.410 . S
C1071 C1073 1.444 . S
C1071 C1074 1.317 . S
C1071 H1094 0.929 . S
C1072 C1069 1.432 . S
C1072 C1070 1.417 . S
C1072 N1080 1.360 . S
C1073 C1069 1.414 . S
C1073 C1071 1.444 . S
C1073 C1078 1.385 . S
C1074 C1070 1.432 . S
C1074 C1071 1.317 . S
C1074 H1086 0.930 . S
C1075 C1077 1.392 . S
C1075 C1078 1.370 . S
C1075 H1087 0.931 . S
N1076 C1069 1.359 . S
N1076 C1077 1.327 . S
N1076 Tb1079 2.600 . S
C1077 C1075 1.392 . S
C1077 N1076 1.327 . S
C1077 H1084 0.930 . S
C1078 C1073 1.385 . S
C1078 C1075 1.370 . S
C1078 H1097 0.930 . S
Tb1079 N1076 2.600 . S
Tb1079 N1080 2.660 . S
Tb1079 O1113 2.362 . S
Tb1079 O1114 2.421 . S
Tb1079 O1118 2.546 . S
Tb1079 O1119 2.610 . S
Tb1079 O1121 2.320 . S
Tb1079 O1122 2.552 . S
Tb1079 O1123 2.413 . S
Tb1079 C1143 2.833 . S
N1080 C1072 1.360 . S
N1080 Tb1079 2.660 . S
N1080 C1081 1.305 . S
C1081 N1080 1.305 . S
C1081 C1083 1.407 . S
C1081 H1088 0.930 . S
C1082 C1070 1.410 . S
C1082 C1083 1.345 . S
C1082 H1090 0.930 . S
C1083 C1081 1.407 . S
C1083 C1082 1.345 . S
C1083 H1085 0.930 . S
H1084 C1077 0.930 . S
H1085 C1083 0.930 . S
H1086 C1074 0.930 . S
H1087 C1075 0.931 . S
H1088 C1081 0.930 . S
H1089 C1103 0.930 . S
H1090 C1082 0.930 . S
H1091 C1109 0.930 . S
H1092 C1100 0.930 . S
H1093 C1107 0.931 . S
H1094 C1071 0.929 . S
H1095 C1101 0.930 . S
H1096 C1134 0.930 . S
H1097 C1078 0.930 . S
H1098 C1133 0.929 . S
N1099 Tb1068 2.660 . S
N1099 C1100 1.305 . S
N1099 C1104 1.360 . S
C1100 H1092 0.930 . S
C1100 N1099 1.305 . S
C1100 C1103 1.407 . S
C1101 H1095 0.930 . S
C1101 C1102 1.410 . S
C1101 C1103 1.345 . S
C1102 C1101 1.410 . S
C1102 C1104 1.417 . S
C1102 C1134 1.432 . S
C1103 H1089 0.930 . S
C1103 C1100 1.407 . S
C1103 C1101 1.345 . S
C1104 N1099 1.360 . S
C1104 C1102 1.417 . S
C1104 C1108 1.432 . S
H1105 C1110 0.930 . S
N1106 Tb1068 2.600 . S
N1106 C1108 1.359 . S
N1106 C1109 1.327 . S
C1107 H1093 0.931 . S
C1107 C1109 1.392 . S
C1107 C1110 1.370 . S
C1108 C1104 1.432 . S
C1108 N1106 1.359 . S
C1108 C1111 1.414 . S
C1109 H1091 0.930 . S
C1109 N1106 1.327 . S
C1109 C1107 1.392 . S
C1110 H1105 0.930 . S
C1110 C1107 1.370 . S
C1110 C1111 1.385 . S
C1111 C1108 1.414 . S
C1111 C1110 1.385 . S
C1111 C1133 1.444 . S
O1112 Tb1068 2.546 . S
O1112 C1132 1.245 1_655 S
O1113 Tb1068 2.610 . S
O1113 Tb1079 2.362 . S
O1113 C1124 1.283 . S
O1114 Tb1079 2.421 . S
O1114 C1131 1.262 . S
O1115 Tb1068 2.320 . S
O1115 C1131 1.260 . S
O1116 Tb1068 2.552 . S
O1116 C1124 1.243 . S
O1117 Tb1068 2.413 . S
O1117 C1132 1.247 1_655 S
O1118 Tb1079 2.546 . S
O1118 C1143 1.251 . S
O1119 Tb1068 2.362 . S
O1119 Tb1079 2.610 . S
O1119 C1135 1.283 . S
O1120 Tb1068 2.421 . S
O1120 C1142 1.262 . S
O1121 Tb1079 2.320 . S
O1121 C1142 1.260 . S
O1122 Tb1079 2.552 . S
O1122 C1135 1.243 . S
O1123 Tb1079 2.413 . S
O1123 C1143 1.256 . S
C1124 O1113 1.283 . S
C1124 O1116 1.243 . S
C1125 C1127 1.382 . S
C1125 C1129 1.393 . S
C1125 C1132 1.515 . S
C1126 C1127 1.400 . S
C1126 C1128 1.384 . S
C1127 C1125 1.382 . S
C1127 C1126 1.400 . S
C1127 H1144 0.930 . S
C1128 C1126 1.384 . S
C1128 C1130 1.392 . S
C1128 H1145 0.931 . S
C1129 C1125 1.393 . S
C1129 C1130 1.401 . S
C1129 H1146 0.930 . S
C1130 C1128 1.392 . S
C1130 C1129 1.401 . S
C1130 H1147 0.930 . S
C1131 O1114 1.262 . S
C1131 O1115 1.260 . S
C1132 Tb1068 2.818 1_455 S
C1132 O1112 1.245 1_455 S
C1132 O1117 1.247 1_455 S
C1132 C1125 1.515 . S
C1133 H1098 0.929 . S
C1133 C1111 1.444 . S
C1133 C1134 1.317 . S
C1134 H1096 0.930 . S
C1134 C1102 1.432 . S
C1134 C1133 1.317 . S
C1135 O1119 1.283 . S
C1135 O1122 1.243 . S
C1136 C1137 1.382 . S
C1136 C1140 1.393 . S
C1136 C1143 1.500 . S
C1137 C1136 1.382 . S
C1137 C1138 1.400 . S
C1137 H1148 0.930 . S
C1138 C1137 1.400 . S
C1138 C1139 1.384 . S
C1139 C1138 1.384 . S
C1139 C1141 1.392 . S
C1139 H1149 0.931 . S
C1140 C1136 1.393 . S
C1140 C1141 1.401 . S
C1140 H1150 0.930 . S
C1141 C1139 1.392 . S
C1141 C1140 1.401 . S
C1141 H1151 0.930 . S
C1142 O1120 1.262 . S
C1142 O1121 1.260 . S
C1143 Tb1079 2.833 . S
C1143 O1118 1.251 . S
C1143 O1123 1.256 . S
C1143 C1136 1.500 . S
H1144 C1127 0.930 . S
H1145 C1128 0.931 . S
H1146 C1129 0.930 . S
H1147 C1130 0.930 . S
H1148 C1137 0.930 . S
H1149 C1139 0.931 . S
H1150 C1140 0.930 . S
H1151 C1141 0.930 . S
Tb1152 N1183 2.660 . S
Tb1152 N1190 2.600 . S
Tb1152 O1196 2.546 . S
Tb1152 O1197 2.610 . S
Tb1152 O1199 2.320 . S
Tb1152 O1200 2.552 . S
Tb1152 O1201 2.413 . S
Tb1152 O1203 2.362 . S
Tb1152 O1204 2.421 . S
Tb1152 C1216 2.833 . S
C1153 C1156 1.432 . S
C1153 C1157 1.414 . S
C1153 N1160 1.359 1_655 S
C1154 C1156 1.417 . S
C1154 C1158 1.432 . S
C1154 C1166 1.410 . S
C1155 C1157 1.444 . S
C1155 C1158 1.317 . S
C1155 H1178 0.929 . S
C1156 C1153 1.432 . S
C1156 C1154 1.417 . S
C1156 N1164 1.360 1_655 S
C1157 C1153 1.414 . S
C1157 C1155 1.444 . S
C1157 C1162 1.385 . S
C1158 C1154 1.432 . S
C1158 C1155 1.317 . S
C1158 H1170 0.930 . S
C1159 C1161 1.392 . S
C1159 C1162 1.370 1_455 S
C1159 H1171 0.931 . S
N1160 C1153 1.359 1_455 S
N1160 C1161 1.327 . S
N1160 Tb1163 2.600 . S
C1161 C1159 1.392 . S
C1161 N1160 1.327 . S
C1161 H1168 0.930 . S
C1162 C1157 1.385 . S
C1162 C1159 1.370 1_655 S
C1162 H1181 0.930 . S
Tb1163 N1160 2.600 . S
Tb1163 N1164 2.660 . S
Tb1163 O1197 2.362 . S
Tb1163 O1198 2.421 . S
Tb1163 O1202 2.546 . S
Tb1163 O1203 2.610 . S
Tb1163 O1205 2.320 . S
Tb1163 O1206 2.552 . S
Tb1163 O1207 2.413 . S
Tb1163 C1227 2.833 . S
N1164 C1156 1.360 1_455 S
N1164 Tb1163 2.660 . S
N1164 C1165 1.305 . S
C1165 N1164 1.305 . S
C1165 C1167 1.407 1_455 S
C1165 H1172 0.930 . S
C1166 C1154 1.410 . S
C1166 C1167 1.345 . S
C1166 H1174 0.930 . S
C1167 C1165 1.407 1_655 S
C1167 C1166 1.345 . S
C1167 H1169 0.930 . S
H1168 C1161 0.930 . S
H1169 C1167 0.930 . S
H1170 C1158 0.930 . S
H1171 C1159 0.931 . S
H1172 C1165 0.930 . S
H1173 C1187 0.930 . S
H1174 C1166 0.930 . S
H1175 C1193 0.930 . S
H1176 C1184 0.930 . S
H1177 C1191 0.931 . S
H1178 C1155 0.929 . S
H1179 C1185 0.930 . S
H1180 C1218 0.930 . S
H1181 C1162 0.930 . S
H1182 C1217 0.929 . S
N1183 Tb1152 2.660 . S
N1183 C1184 1.305 . S
N1183 C1188 1.360 . S
C1184 H1176 0.930 . S
C1184 N1183 1.305 . S
C1184 C1187 1.407 . S
C1185 H1179 0.930 . S
C1185 C1186 1.410 . S
C1185 C1187 1.345 . S
C1186 C1185 1.410 . S
C1186 C1188 1.417 . S
C1186 C1218 1.432 . S
C1187 H1173 0.930 . S
C1187 C1184 1.407 . S
C1187 C1185 1.345 . S
C1188 N1183 1.360 . S
C1188 C1186 1.417 . S
C1188 C1192 1.432 . S
H1189 C1194 0.930 . S
N1190 Tb1152 2.600 . S
N1190 C1192 1.359 . S
N1190 C1193 1.327 . S
C1191 H1177 0.931 . S
C1191 C1193 1.392 . S
C1191 C1194 1.370 . S
C1192 C1188 1.432 . S
C1192 N1190 1.359 . S
C1192 C1195 1.414 . S
C1193 H1175 0.930 . S
C1193 N1190 1.327 . S
C1193 C1191 1.392 . S
C1194 H1189 0.930 . S
C1194 C1191 1.370 . S
C1194 C1195 1.385 . S
C1195 C1192 1.414 . S
C1195 C1194 1.385 . S
C1195 C1217 1.444 . S
O1196 Tb1152 2.546 . S
O1196 C1216 1.251 . S
O1197 Tb1152 2.610 . S
O1197 Tb1163 2.362 . S
O1197 C1208 1.283 . S
O1198 Tb1163 2.421 . S
O1198 C1215 1.262 . S
O1199 Tb1152 2.320 . S
O1199 C1215 1.260 . S
O1200 Tb1152 2.552 . S
O1200 C1208 1.243 . S
O1201 Tb1152 2.413 . S
O1201 C1216 1.256 . S
O1202 Tb1163 2.546 . S
O1202 C1227 1.251 . S
O1203 Tb1152 2.362 . S
O1203 Tb1163 2.610 . S
O1203 C1219 1.283 . S
O1204 Tb1152 2.421 . S
O1204 C1226 1.262 . S
O1205 Tb1163 2.320 . S
O1205 C1226 1.260 . S
O1206 Tb1163 2.552 . S
O1206 C1219 1.243 . S
O1207 Tb1163 2.413 . S
O1207 C1227 1.256 . S
C1208 O1197 1.283 . S
C1208 O1200 1.243 . S
C1209 C1211 1.382 . S
C1209 C1213 1.393 . S
C1209 C1216 1.500 . S
C1210 C1211 1.400 1_655 S
C1210 C1212 1.384 . S
C1211 C1209 1.382 . S
C1211 C1210 1.400 1_455 S
C1211 H1228 0.939 . S
C1212 C1210 1.384 . S
C1212 C1214 1.392 1_655 S
C1212 H1229 0.931 . S
C1213 C1209 1.393 . S
C1213 C1214 1.401 . S
C1213 H1230 0.930 . S
C1214 C1212 1.392 1_455 S
C1214 C1213 1.401 . S
C1214 H1231 0.930 . S
C1215 O1198 1.262 . S
C1215 O1199 1.260 . S
C1216 Tb1152 2.833 . S
C1216 O1196 1.251 . S
C1216 O1201 1.256 . S
C1216 C1209 1.500 . S
C1217 H1182 0.929 . S
C1217 C1195 1.444 . S
C1217 C1218 1.317 . S
C1218 H1180 0.930 . S
C1218 C1186 1.432 . S
C1218 C1217 1.317 . S
C1219 O1203 1.283 . S
C1219 O1206 1.243 . S
C1220 C1221 1.382 . S
C1220 C1224 1.393 . S
C1220 C1227 1.500 . S
C1221 C1220 1.382 . S
C1221 C1222 1.400 . S
C1221 H1232 0.930 . S
C1222 C1221 1.400 . S
C1222 C1223 1.384 . S
C1223 C1222 1.384 . S
C1223 C1225 1.392 . S
C1223 H1233 0.931 . S
C1224 C1220 1.393 . S
C1224 C1225 1.401 . S
C1224 H1234 0.930 . S
C1225 C1223 1.392 . S
C1225 C1224 1.401 . S
C1225 H1235 0.930 . S
C1226 O1204 1.262 . S
C1226 O1205 1.260 . S
C1227 Tb1163 2.833 . S
C1227 O1202 1.251 . S
C1227 O1207 1.256 . S
C1227 C1220 1.500 . S
H1228 C1211 0.939 . S
H1229 C1212 0.931 . S
H1230 C1213 0.930 . S
H1231 C1214 0.930 . S
H1232 C1221 0.930 . S
H1233 C1223 0.931 . S
H1234 C1224 0.930 . S
H1235 C1225 0.930 . S
Tb1236 N1267 2.660 . S
Tb1236 N1274 2.600 . S
Tb1236 O1280 2.546 . S
Tb1236 O1281 2.610 . S
Tb1236 O1283 2.320 . S
Tb1236 O1284 2.552 . S
Tb1236 O1285 2.413 . S
Tb1236 O1287 2.362 . S
Tb1236 O1288 2.421 . S
Tb1236 C1300 2.833 . S
C1237 C1240 1.432 . S
C1237 C1241 1.414 . S
C1237 N1244 1.359 . S
C1238 C1240 1.417 1_455 S
C1238 C1242 1.432 . S
C1238 C1250 1.410 . S
C1239 C1241 1.444 1_455 S
C1239 C1242 1.317 . S
C1239 H1262 0.929 . S
C1240 C1237 1.432 . S
C1240 C1238 1.417 1_655 S
C1240 N1248 1.360 . S
C1241 C1237 1.414 . S
C1241 C1239 1.444 1_655 S
C1241 C1246 1.385 . S
C1242 C1238 1.432 . S
C1242 C1239 1.317 . S
C1242 H1254 0.930 . S
C1243 C1245 1.392 . S
C1243 C1246 1.370 . S
C1243 H1255 0.931 . S
N1244 C1237 1.359 . S
N1244 C1245 1.327 . S
N1244 Tb1247 2.600 . S
C1245 C1243 1.392 . S
C1245 N1244 1.327 . S
C1245 H1252 0.930 . S
C1246 C1241 1.385 . S
C1246 C1243 1.370 . S
C1246 H1265 0.930 . S
Tb1247 N1244 2.600 . S
Tb1247 N1248 2.660 . S
Tb1247 O1281 2.362 . S
Tb1247 O1282 2.421 . S
Tb1247 O1286 2.546 . S
Tb1247 O1287 2.610 . S
Tb1247 O1289 2.320 . S
Tb1247 O1290 2.552 . S
Tb1247 O1291 2.413 . S
Tb1247 C1311 2.833 . S
N1248 C1240 1.360 . S
N1248 Tb1247 2.660 . S
N1248 C1249 1.305 . S
C1249 N1248 1.305 . S
C1249 C1251 1.407 . S
C1249 H1256 0.930 . S
C1250 C1238 1.410 . S
C1250 C1251 1.345 1_455 S
C1250 H1258 0.930 . S
C1251 C1249 1.407 . S
C1251 C1250 1.345 1_655 S
C1251 H1253 0.929 1_655 S
H1252 C1245 0.930 . S
H1253 C1251 0.929 1_455 S
H1254 C1242 0.930 . S
H1255 C1243 0.931 . S
H1256 C1249 0.930 . S
H1257 C1271 0.930 . S
H1258 C1250 0.930 . S
H1259 C1277 0.930 . S
H1260 C1268 0.930 . S
H1261 C1275 0.931 . S
H1262 C1239 0.929 . S
H1263 C1269 0.930 . S
H1264 C1302 0.930 . S
H1265 C1246 0.930 . S
H1266 C1301 0.929 . S
N1267 Tb1236 2.660 . S
N1267 C1268 1.305 . S
N1267 C1272 1.360 . S
C1268 H1260 0.930 . S
C1268 N1267 1.305 . S
C1268 C1271 1.407 . S
C1269 H1263 0.930 . S
C1269 C1270 1.410 . S
C1269 C1271 1.345 . S
C1270 C1269 1.410 . S
C1270 C1272 1.417 . S
C1270 C1302 1.432 . S
C1271 H1257 0.930 . S
C1271 C1268 1.407 . S
C1271 C1269 1.345 . S
C1272 N1267 1.360 . S
C1272 C1270 1.417 . S
C1272 C1276 1.432 . S
H1273 C1278 0.930 . S
N1274 Tb1236 2.600 . S
N1274 C1276 1.359 . S
N1274 C1277 1.327 . S
C1275 H1261 0.931 . S
C1275 C1277 1.392 . S
C1275 C1278 1.370 . S
C1276 C1272 1.432 . S
C1276 N1274 1.359 . S
C1276 C1279 1.414 . S
C1277 H1259 0.930 . S
C1277 N1274 1.327 . S
C1277 C1275 1.392 . S
C1278 H1273 0.930 . S
C1278 C1275 1.370 . S
C1278 C1279 1.385 . S
C1279 C1276 1.414 . S
C1279 C1278 1.385 . S
C1279 C1301 1.444 . S
O1280 Tb1236 2.546 . S
O1280 C1300 1.251 . S
O1281 Tb1236 2.610 . S
O1281 Tb1247 2.362 . S
O1281 C1292 1.283 . S
O1282 Tb1247 2.421 . S
O1282 C1299 1.262 . S
O1283 Tb1236 2.320 . S
O1283 C1299 1.260 . S
O1284 Tb1236 2.552 . S
O1284 C1292 1.243 . S
O1285 Tb1236 2.413 . S
O1285 C1300 1.256 . S
O1286 Tb1247 2.546 . S
O1286 C1311 1.251 . S
O1287 Tb1236 2.362 . S
O1287 Tb1247 2.610 . S
O1287 C1303 1.283 . S
O1288 Tb1236 2.421 . S
O1288 C1310 1.262 . S
O1289 Tb1247 2.320 . S
O1289 C1310 1.260 . S
O1290 Tb1247 2.552 . S
O1290 C1303 1.243 . S
O1291 Tb1247 2.413 . S
O1291 C1311 1.256 . S
C1292 O1281 1.283 . S
C1292 O1284 1.243 . S
C1293 C1295 1.382 . S
C1293 C1297 1.393 . S
C1293 C1300 1.500 . S
C1294 C1295 1.400 . S
C1294 C1296 1.384 . S
C1295 C1293 1.382 . S
C1295 C1294 1.400 . S
C1295 H1312 0.930 . S
C1296 C1294 1.384 . S
C1296 C1298 1.392 . S
C1296 H1313 0.931 . S
C1297 C1293 1.393 . S
C1297 C1298 1.401 . S
C1297 H1314 0.930 . S
C1298 C1296 1.392 . S
C1298 C1297 1.401 . S
C1298 H1315 0.930 . S
C1299 O1282 1.262 . S
C1299 O1283 1.260 . S
C1300 Tb1236 2.833 . S
C1300 O1280 1.251 . S
C1300 O1285 1.256 . S
C1300 C1293 1.500 . S
C1301 H1266 0.929 . S
C1301 C1279 1.444 . S
C1301 C1302 1.317 . S
C1302 H1264 0.930 . S
C1302 C1270 1.432 . S
C1302 C1301 1.317 . S
C1303 O1287 1.283 . S
C1303 O1290 1.243 . S
C1304 C1305 1.382 . S
C1304 C1308 1.393 . S
C1304 C1311 1.500 1_455 S
C1305 C1304 1.382 . S
C1305 C1306 1.400 . S
C1305 H1316 0.930 . S
C1306 C1305 1.400 . S
C1306 C1307 1.384 . S
C1307 C1306 1.384 . S
C1307 C1309 1.392 . S
C1307 H1317 0.931 . S
C1308 C1304 1.393 . S
C1308 C1309 1.401 . S
C1308 H1318 0.930 . S
C1309 C1307 1.392 . S
C1309 C1308 1.401 . S
C1309 H1319 0.930 . S
C1310 O1288 1.262 . S
C1310 O1289 1.260 . S
C1311 Tb1247 2.833 . S
C1311 O1286 1.251 . S
C1311 O1291 1.256 . S
C1311 C1304 1.500 1_655 S
H1312 C1295 0.930 . S
H1313 C1296 0.931 . S
H1314 C1297 0.930 . S
H1315 C1298 0.930 . S
H1316 C1305 0.930 . S
H1317 C1307 0.931 . S
H1318 C1308 0.930 . S
H1319 C1309 0.930 . S
Tb1320 N1351 2.660 . S
Tb1320 N1358 2.600 . S
Tb1320 O1364 2.546 . S
Tb1320 O1365 2.610 . S
Tb1320 O1367 2.320 . S
Tb1320 O1368 2.552 . S
Tb1320 O1369 2.413 . S
Tb1320 O1371 2.362 . S
Tb1320 O1372 2.421 . S
Tb1320 C1384 2.833 . S
C1321 C1324 1.432 . S
C1321 C1325 1.414 . S
C1321 N1328 1.359 . S
C1322 C1324 1.417 1_554 S
C1322 C1326 1.432 . S
C1322 C1334 1.410 . S
C1323 C1325 1.444 1_554 S
C1323 C1326 1.317 . S
C1323 H1346 0.929 . S
C1324 C1321 1.432 . S
C1324 C1322 1.417 1_556 S
C1324 N1332 1.360 . S
C1325 C1321 1.414 . S
C1325 C1323 1.444 1_556 S
C1325 C1330 1.385 . S
C1326 C1322 1.432 . S
C1326 C1323 1.317 . S
C1326 H1338 0.930 . S
C1327 C1329 1.392 . S
C1327 C1330 1.370 . S
C1327 H1339 0.931 . S
N1328 C1321 1.359 . S
N1328 C1329 1.327 . S
N1328 Tb1331 2.600 . S
C1329 C1327 1.392 . S
C1329 N1328 1.327 . S
C1329 H1336 0.930 . S
C1330 C1325 1.385 . S
C1330 C1327 1.370 . S
C1330 H1349 0.930 . S
Tb1331 N1328 2.600 . S
Tb1331 N1332 2.660 . S
Tb1331 O1365 2.362 . S
Tb1331 O1366 2.421 . S
Tb1331 O1370 2.546 . S
Tb1331 O1371 2.610 . S
Tb1331 O1373 2.320 . S
Tb1331 O1374 2.552 . S
Tb1331 O1375 2.413 . S
Tb1331 C1395 2.833 . S
N1332 C1324 1.360 . S
N1332 Tb1331 2.660 . S
N1332 C1333 1.305 . S
C1333 N1332 1.305 . S
C1333 C1335 1.407 . S
C1333 H1340 0.930 . S
C1334 C1322 1.410 . S
C1334 C1335 1.345 1_554 S
C1334 H1342 0.930 . S
C1335 C1333 1.407 . S
C1335 C1334 1.345 1_556 S
C1335 H1337 0.930 . S
H1336 C1329 0.930 . S
H1337 C1335 0.930 . S
H1338 C1326 0.930 . S
H1339 C1327 0.931 . S
H1340 C1333 0.930 . S
H1341 C1355 0.930 . S
H1342 C1334 0.930 . S
H1343 C1361 0.930 . S
H1344 C1352 0.930 . S
H1345 C1359 0.931 . S
H1346 C1323 0.929 . S
H1347 C1353 0.930 . S
H1348 C1386 0.930 . S
H1349 C1330 0.930 . S
H1350 C1385 0.929 . S
N1351 Tb1320 2.660 . S
N1351 C1352 1.305 . S
N1351 C1356 1.360 . S
C1352 H1344 0.930 . S
C1352 N1351 1.305 . S
C1352 C1355 1.407 . S
C1353 H1347 0.930 . S
C1353 C1354 1.410 . S
C1353 C1355 1.345 . S
C1354 C1353 1.410 . S
C1354 C1356 1.417 . S
C1354 C1386 1.432 . S
C1355 H1341 0.930 . S
C1355 C1352 1.407 . S
C1355 C1353 1.345 . S
C1356 N1351 1.360 . S
C1356 C1354 1.417 . S
C1356 C1360 1.432 . S
H1357 C1362 0.930 . S
N1358 Tb1320 2.600 . S
N1358 C1360 1.359 . S
N1358 C1361 1.327 . S
C1359 H1345 0.931 . S
C1359 C1361 1.392 . S
C1359 C1362 1.370 . S
C1360 C1356 1.432 . S
C1360 N1358 1.359 . S
C1360 C1363 1.414 . S
C1361 H1343 0.930 . S
C1361 N1358 1.327 . S
C1361 C1359 1.392 . S
C1362 H1357 0.930 . S
C1362 C1359 1.370 . S
C1362 C1363 1.385 . S
C1363 C1360 1.414 . S
C1363 C1362 1.385 . S
C1363 C1385 1.444 . S
O1364 Tb1320 2.546 . S
O1364 C1384 1.251 . S
O1365 Tb1320 2.610 . S
O1365 Tb1331 2.362 . S
O1365 C1376 1.283 . S
O1366 Tb1331 2.421 . S
O1366 C1383 1.262 . S
O1367 Tb1320 2.320 . S
O1367 C1383 1.260 . S
O1368 Tb1320 2.552 . S
O1368 C1376 1.243 . S
O1369 Tb1320 2.413 . S
O1369 C1384 1.256 . S
O1370 Tb1331 2.546 . S
O1370 C1395 1.251 . S
O1371 Tb1320 2.362 . S
O1371 Tb1331 2.610 . S
O1371 C1387 1.283 . S
O1372 Tb1320 2.421 . S
O1372 C1394 1.262 . S
O1373 Tb1331 2.320 . S
O1373 C1394 1.260 . S
O1374 Tb1331 2.552 . S
O1374 C1387 1.243 . S
O1375 Tb1331 2.413 . S
O1375 C1395 1.256 . S
C1376 O1365 1.283 . S
C1376 O1368 1.243 . S
C1377 C1379 1.382 . S
C1377 C1381 1.393 . S
C1377 C1384 1.500 . S
C1378 C1379 1.400 . S
C1378 C1380 1.384 . S
C1379 C1377 1.382 . S
C1379 C1378 1.400 . S
C1379 H1396 0.930 . S
C1380 C1378 1.384 . S
C1380 C1382 1.392 . S
C1380 H1397 0.931 . S
C1381 C1377 1.393 . S
C1381 C1382 1.401 . S
C1381 H1398 0.930 . S
C1382 C1380 1.392 . S
C1382 C1381 1.401 . S
C1382 H1399 0.930 1_655 S
C1383 O1366 1.262 . S
C1383 O1367 1.260 . S
C1384 Tb1320 2.833 . S
C1384 O1364 1.251 . S
C1384 O1369 1.256 . S
C1384 C1377 1.500 . S
C1385 H1350 0.929 . S
C1385 C1363 1.444 . S
C1385 C1386 1.317 . S
C1386 H1348 0.930 . S
C1386 C1354 1.432 . S
C1386 C1385 1.317 . S
C1387 O1371 1.283 . S
C1387 O1374 1.243 . S
C1388 C1389 1.382 . S
C1388 C1392 1.393 . S
C1388 C1395 1.500 . S
C1389 C1388 1.382 . S
C1389 C1390 1.400 1_556 S
C1389 H1400 0.930 . S
C1390 C1389 1.400 1_554 S
C1390 C1391 1.384 . S
C1391 C1390 1.384 . S
C1391 C1393 1.392 . S
C1391 H1401 0.931 . S
C1392 C1388 1.393 . S
C1392 C1393 1.401 1_556 S
C1392 H1402 0.930 . S
C1393 C1391 1.392 . S
C1393 C1392 1.401 1_554 S
C1393 H1403 0.930 . S
C1394 O1372 1.262 . S
C1394 O1373 1.260 . S
C1395 Tb1331 2.833 . S
C1395 O1370 1.251 . S
C1395 O1375 1.256 . S
C1395 C1388 1.500 . S
H1396 C1379 0.930 . S
H1397 C1380 0.931 . S
H1398 C1381 0.930 . S
H1399 C1382 0.930 1_455 S
H1400 C1389 0.930 . S
H1401 C1391 0.931 . S
H1402 C1392 0.930 . S
H1403 C1393 0.930 . S
Tb1404 N1435 2.660 . S
Tb1404 N1442 2.600 . S
Tb1404 O1448 2.546 . S
Tb1404 O1449 2.610 . S
Tb1404 O1451 2.320 . S
Tb1404 O1452 2.552 . S
Tb1404 O1453 2.413 . S
Tb1404 O1455 2.362 . S
Tb1404 O1456 2.421 . S
Tb1404 C1468 2.833 . S
C1405 C1408 1.432 . S
C1405 C1409 1.414 . S
C1405 N1412 1.359 . S
C1406 C1408 1.417 . S
C1406 C1410 1.432 . S
C1406 C1418 1.410 . S
C1407 C1409 1.444 . S
C1407 C1410 1.317 . S
C1407 H1430 0.929 . S
C1408 C1405 1.432 . S
C1408 C1406 1.417 . S
C1408 N1416 1.360 . S
C1409 C1405 1.414 . S
C1409 C1407 1.444 . S
C1409 C1414 1.385 . S
C1410 C1406 1.432 . S
C1410 C1407 1.317 . S
C1410 H1422 0.930 . S
C1411 C1413 1.392 . S
C1411 C1414 1.370 . S
C1411 H1423 0.931 . S
N1412 C1405 1.359 . S
N1412 C1413 1.327 . S
N1412 Tb1415 2.600 . S
C1413 C1411 1.392 . S
C1413 N1412 1.327 . S
C1413 H1420 0.930 . S
C1414 C1409 1.385 . S
C1414 C1411 1.370 . S
C1414 H1433 0.930 . S
Tb1415 N1412 2.600 . S
Tb1415 N1416 2.660 . S
Tb1415 O1449 2.362 . S
Tb1415 O1450 2.421 . S
Tb1415 O1454 2.546 . S
Tb1415 O1455 2.610 . S
Tb1415 O1457 2.320 . S
Tb1415 O1458 2.552 . S
Tb1415 O1459 2.413 . S
Tb1415 C1479 2.833 . S
N1416 C1408 1.360 . S
N1416 Tb1415 2.660 . S
N1416 C1417 1.305 . S
C1417 N1416 1.305 . S
C1417 C1419 1.407 . S
C1417 H1424 0.930 . S
C1418 C1406 1.410 . S
C1418 C1419 1.345 . S
C1418 H1426 0.930 . S
C1419 C1417 1.407 . S
C1419 C1418 1.345 . S
C1419 H1421 0.930 . S
H1420 C1413 0.930 . S
H1421 C1419 0.930 . S
H1422 C1410 0.930 . S
H1423 C1411 0.931 . S
H1424 C1417 0.930 . S
H1425 C1439 0.930 . S
H1426 C1418 0.930 . S
H1427 C1445 0.930 . S
H1428 C1436 0.930 . S
H1429 C1443 0.931 . S
H1430 C1407 0.929 . S
H1431 C1437 0.930 . S
H1432 C1470 0.930 . S
H1433 C1414 0.930 . S
H1434 C1469 0.929 . S
N1435 Tb1404 2.660 . S
N1435 C1436 1.305 . S
N1435 C1440 1.360 . S
C1436 H1428 0.930 . S
C1436 N1435 1.305 . S
C1436 C1439 1.407 . S
C1437 H1431 0.930 . S
C1437 C1438 1.410 . S
C1437 C1439 1.345 1_455 S
C1438 C1437 1.410 . S
C1438 C1440 1.417 1_455 S
C1438 C1470 1.432 . S
C1439 H1425 0.930 . S
C1439 C1436 1.407 . S
C1439 C1437 1.345 1_655 S
C1440 N1435 1.360 . S
C1440 C1438 1.417 1_655 S
C1440 C1444 1.432 . S
H1441 C1446 0.930 . S
N1442 Tb1404 2.600 . S
N1442 C1444 1.359 . S
N1442 C1445 1.327 . S
C1443 H1429 0.931 . S
C1443 C1445 1.392 . S
C1443 C1446 1.370 1_655 S
C1444 C1440 1.432 . S
C1444 N1442 1.359 . S
C1444 C1447 1.414 1_655 S
C1445 H1427 0.930 . S
C1445 N1442 1.327 . S
C1445 C1443 1.392 . S
C1446 H1441 0.930 . S
C1446 C1443 1.370 1_455 S
C1446 C1447 1.385 . S
C1447 C1444 1.414 1_455 S
C1447 C1446 1.385 . S
C1447 C1469 1.444 . S
O1448 Tb1404 2.546 . S
O1448 C1468 1.251 . S
O1449 Tb1404 2.610 . S
O1449 Tb1415 2.362 . S
O1449 C1460 1.283 . S
O1450 Tb1415 2.421 . S
O1450 C1467 1.262 . S
O1451 Tb1404 2.320 . S
O1451 C1467 1.260 . S
O1452 Tb1404 2.552 . S
O1452 C1460 1.243 . S
O1453 Tb1404 2.413 . S
O1453 C1468 1.256 . S
O1454 Tb1415 2.546 . S
O1454 C1479 1.251 . S
O1455 Tb1404 2.362 . S
O1455 Tb1415 2.610 . S
O1455 C1471 1.283 . S
O1456 Tb1404 2.421 . S
O1456 C1478 1.262 . S
O1457 Tb1415 2.320 . S
O1457 C1478 1.260 . S
O1458 Tb1415 2.552 . S
O1458 C1471 1.243 . S
O1459 Tb1415 2.413 . S
O1459 C1479 1.256 . S
C1460 O1449 1.283 . S
C1460 O1452 1.243 . S
C1461 C1463 1.382 . S
C1461 C1465 1.393 . S
C1461 C1468 1.500 1_545 S
C1462 C1463 1.400 . S
C1462 C1464 1.384 . S
C1463 C1461 1.382 . S
C1463 C1462 1.400 . S
C1463 H1480 0.930 . S
C1464 C1462 1.384 . S
C1464 C1466 1.392 . S
C1464 H1481 0.931 . S
C1465 C1461 1.393 . S
C1465 C1466 1.401 . S
C1465 H1482 0.930 . S
C1466 C1464 1.392 . S
C1466 C1465 1.401 . S
C1466 H1483 0.930 . S
C1467 O1450 1.262 . S
C1467 O1451 1.260 . S
C1468 Tb1404 2.833 . S
C1468 O1448 1.251 . S
C1468 O1453 1.256 . S
C1468 C1461 1.500 1_565 S
C1469 H1434 0.929 . S
C1469 C1447 1.444 . S
C1469 C1470 1.317 . S
C1470 H1432 0.930 . S
C1470 C1438 1.432 . S
C1470 C1469 1.317 . S
C1471 O1455 1.283 . S
C1471 O1458 1.243 . S
C1472 C1473 1.382 . S
C1472 C1476 1.393 . S
C1472 C1479 1.500 . S
C1473 C1472 1.382 . S
C1473 C1474 1.400 . S
C1473 H1484 0.930 . S
C1474 C1473 1.400 . S
C1474 C1475 1.384 . S
C1475 C1474 1.384 . S
C1475 C1477 1.392 . S
C1475 H1485 0.931 . S
C1476 C1472 1.393 . S
C1476 C1477 1.401 . S
C1476 H1486 0.930 . S
C1477 C1475 1.392 . S
C1477 C1476 1.401 . S
C1477 H1487 0.930 . S
C1478 O1456 1.262 . S
C1478 O1457 1.260 . S
C1479 Tb1415 2.833 . S
C1479 O1454 1.251 . S
C1479 O1459 1.256 . S
C1479 C1472 1.500 . S
H1480 C1463 0.930 . S
H1481 C1464 0.931 . S
H1482 C1465 0.930 . S
H1483 C1466 0.930 . S
H1484 C1473 0.930 . S
H1485 C1475 0.931 . S
H1486 C1476 0.930 . S
H1487 C1477 0.930 . S
Tb1488 N1519 2.660 . S
Tb1488 N1526 2.600 . S
Tb1488 O1532 2.546 . S
Tb1488 O1533 2.610 . S
Tb1488 O1535 2.320 . S
Tb1488 O1536 2.552 . S
Tb1488 O1537 2.413 . S
Tb1488 O1539 2.362 . S
Tb1488 O1540 2.421 . S
Tb1488 C1552 2.833 . S
C1489 C1492 1.432 . S
C1489 C1493 1.414 . S
C1489 N1496 1.359 . S
C1490 C1492 1.417 . S
C1490 C1494 1.432 . S
C1490 C1502 1.410 . S
C1491 C1493 1.444 . S
C1491 C1494 1.317 . S
C1491 H1514 0.929 . S
C1492 C1489 1.432 . S
C1492 C1490 1.417 . S
C1492 N1500 1.360 . S
C1493 C1489 1.414 . S
C1493 C1491 1.444 . S
C1493 C1498 1.385 . S
C1494 C1490 1.432 . S
C1494 C1491 1.317 . S
C1494 H1506 0.930 . S
C1495 C1497 1.392 . S
C1495 C1498 1.370 . S
C1495 H1507 0.931 . S
N1496 C1489 1.359 . S
N1496 C1497 1.327 . S
N1496 Tb1499 2.600 . S
C1497 C1495 1.392 . S
C1497 N1496 1.327 . S
C1497 H1504 0.930 . S
C1498 C1493 1.385 . S
C1498 C1495 1.370 . S
C1498 H1517 0.930 . S
Tb1499 N1496 2.600 . S
Tb1499 N1500 2.660 . S
Tb1499 O1533 2.362 . S
Tb1499 O1534 2.421 . S
Tb1499 O1538 2.546 . S
Tb1499 O1539 2.610 . S
Tb1499 O1541 2.320 . S
Tb1499 O1542 2.552 . S
Tb1499 O1543 2.413 . S
Tb1499 C1563 2.833 . S
N1500 C1492 1.360 . S
N1500 Tb1499 2.660 . S
N1500 C1501 1.305 . S
C1501 N1500 1.305 . S
C1501 C1503 1.407 . S
C1501 H1508 0.930 . S
C1502 C1490 1.410 . S
C1502 C1503 1.345 . S
C1502 H1510 0.930 . S
C1503 C1501 1.407 . S
C1503 C1502 1.345 . S
C1503 H1505 0.930 . S
H1504 C1497 0.930 . S
H1505 C1503 0.930 . S
H1506 C1494 0.930 . S
H1507 C1495 0.931 . S
H1508 C1501 0.930 . S
H1509 C1523 0.930 . S
H1510 C1502 0.930 . S
H1511 C1529 0.930 . S
H1512 C1520 0.930 . S
H1513 C1527 0.931 . S
H1514 C1491 0.929 . S
H1515 C1521 0.930 . S
H1516 C1554 0.930 . S
H1517 C1498 0.930 . S
H1518 C1553 0.929 . S
N1519 Tb1488 2.660 . S
N1519 C1520 1.305 . S
N1519 C1524 1.360 . S
C1520 H1512 0.930 . S
C1520 N1519 1.305 . S
C1520 C1523 1.407 . S
C1521 H1515 0.930 . S
C1521 C1522 1.410 . S
C1521 C1523 1.345 . S
C1522 C1521 1.410 . S
C1522 C1524 1.417 . S
C1522 C1554 1.432 . S
C1523 H1509 0.930 . S
C1523 C1520 1.407 . S
C1523 C1521 1.345 . S
C1524 N1519 1.360 . S
C1524 C1522 1.417 . S
C1524 C1528 1.432 . S
H1525 C1530 0.930 . S
N1526 Tb1488 2.600 . S
N1526 C1528 1.359 . S
N1526 C1529 1.327 . S
C1527 H1513 0.931 . S
C1527 C1529 1.392 . S
C1527 C1530 1.370 . S
C1528 C1524 1.432 . S
C1528 N1526 1.359 . S
C1528 C1531 1.414 . S
C1529 H1511 0.930 . S
C1529 N1526 1.327 . S
C1529 C1527 1.392 . S
C1530 H1525 0.930 . S
C1530 C1527 1.370 . S
C1530 C1531 1.385 . S
C1531 C1528 1.414 . S
C1531 C1530 1.385 . S
C1531 C1553 1.444 . S
O1532 Tb1488 2.546 . S
O1532 C1552 1.251 . S
O1533 Tb1488 2.610 . S
O1533 Tb1499 2.362 . S
O1533 C1544 1.283 . S
O1534 Tb1499 2.421 . S
O1534 C1551 1.262 . S
O1535 Tb1488 2.320 . S
O1535 C1551 1.260 . S
O1536 Tb1488 2.552 . S
O1536 C1544 1.243 . S
O1537 Tb1488 2.413 . S
O1537 C1552 1.256 . S
O1538 Tb1499 2.546 . S
O1538 C1563 1.251 . S
O1539 Tb1488 2.362 . S
O1539 Tb1499 2.610 . S
O1539 C1555 1.283 . S
O1540 Tb1488 2.421 . S
O1540 C1562 1.262 . S
O1541 Tb1499 2.320 . S
O1541 C1562 1.260 . S
O1542 Tb1499 2.552 . S
O1542 C1555 1.243 . S
O1543 Tb1499 2.413 . S
O1543 C1563 1.256 . S
C1544 O1533 1.283 . S
C1544 O1536 1.243 . S
C1545 C1547 1.382 . S
C1545 C1549 1.393 . S
C1545 C1552 1.500 . S
C1546 C1547 1.400 . S
C1546 C1548 1.384 . S
C1547 C1545 1.382 . S
C1547 C1546 1.400 . S
C1547 H1564 0.930 . S
C1548 C1546 1.384 . S
C1548 C1550 1.392 . S
C1548 H1565 0.931 . S
C1549 C1545 1.393 . S
C1549 C1550 1.401 . S
C1549 H1566 0.930 . S
C1550 C1548 1.392 . S
C1550 C1549 1.401 . S
C1550 H1567 0.930 . S
C1551 O1534 1.262 . S
C1551 O1535 1.260 . S
C1552 Tb1488 2.833 . S
C1552 O1532 1.251 . S
C1552 O1537 1.256 . S
C1552 C1545 1.500 . S
C1553 H1518 0.929 . S
C1553 C1531 1.444 . S
C1553 C1554 1.317 . S
C1554 H1516 0.930 . S
C1554 C1522 1.432 . S
C1554 C1553 1.317 . S
C1555 O1539 1.283 . S
C1555 O1542 1.243 . S
C1556 C1557 1.382 . S
C1556 C1560 1.393 . S
C1556 C1563 1.500 . S
C1557 C1556 1.382 . S
C1557 C1558 1.400 . S
C1557 H1568 0.930 . S
C1558 C1557 1.400 . S
C1558 C1559 1.384 . S
C1559 C1558 1.384 . S
C1559 C1561 1.392 . S
C1559 H1569 0.931 . S
C1560 C1556 1.393 . S
C1560 C1561 1.401 . S
C1560 H1570 0.930 . S
C1561 C1559 1.392 . S
C1561 C1560 1.401 . S
C1561 H1571 0.930 . S
C1562 O1540 1.262 . S
C1562 O1541 1.260 . S
C1563 Tb1499 2.833 . S
C1563 O1538 1.251 . S
C1563 O1543 1.256 . S
C1563 C1556 1.500 . S
H1564 C1547 0.930 . S
H1565 C1548 0.931 . S
H1566 C1549 0.930 . S
H1567 C1550 0.930 . S
H1568 C1557 0.930 . S
H1569 C1559 0.931 . S
H1570 C1560 0.930 . S
H1571 C1561 0.930 . S
Tb1572 N1603 2.660 . S
Tb1572 N1610 2.600 1_554 S
Tb1572 O1616 2.546 1_554 S
Tb1572 O1617 2.610 . S
Tb1572 O1619 2.320 . S
Tb1572 O1620 2.552 . S
Tb1572 O1621 2.413 . S
Tb1572 O1623 2.362 . S
Tb1572 O1624 2.421 1_554 S
Tb1572 C1636 2.833 1_554 S
C1573 C1576 1.432 . S
C1573 C1577 1.414 . S
C1573 N1580 1.359 1_655 S
C1574 C1576 1.417 . S
C1574 C1578 1.432 . S
C1574 C1586 1.410 . S
C1575 C1577 1.444 . S
C1575 C1578 1.317 . S
C1575 H1598 0.929 . S
C1576 C1573 1.432 . S
C1576 C1574 1.417 . S
C1576 N1584 1.360 . S
C1577 C1573 1.414 . S
C1577 C1575 1.444 . S
C1577 C1582 1.385 . S
C1578 C1574 1.432 . S
C1578 C1575 1.317 . S
C1578 H1590 0.930 . S
C1579 C1581 1.392 . S
C1579 C1582 1.370 1_455 S
C1579 H1591 0.931 . S
N1580 C1573 1.359 1_455 S
N1580 C1581 1.327 . S
N1580 Tb1583 2.600 . S
C1581 C1579 1.392 . S
C1581 N1580 1.327 . S
C1581 H1588 0.930 . S
C1582 C1577 1.385 . S
C1582 C1579 1.370 1_655 S
C1582 H1601 0.930 . S
Tb1583 N1580 2.600 . S
Tb1583 N1584 2.660 1_455 S
Tb1583 O1617 2.362 . S
Tb1583 O1618 2.421 . S
Tb1583 O1622 2.546 . S
Tb1583 O1623 2.610 . S
Tb1583 O1625 2.320 . S
Tb1583 O1626 2.552 . S
Tb1583 O1627 2.413 1_455 S
Tb1583 C1647 2.833 1_455 S
N1584 C1576 1.360 . S
N1584 Tb1583 2.660 1_655 S
N1584 C1585 1.305 . S
C1585 N1584 1.305 . S
C1585 C1587 1.407 1_554 S
C1585 H1592 0.930 1_554 S
C1586 C1574 1.410 . S
C1586 C1587 1.345 1_554 S
C1586 H1594 0.930 . S
C1587 C1585 1.407 1_556 S
C1587 C1586 1.345 1_556 S
C1587 H1589 0.930 . S
H1588 C1581 0.930 . S
H1589 C1587 0.930 . S
H1590 C1578 0.930 . S
H1591 C1579 0.931 . S
H1592 C1585 0.930 1_556 S
H1593 C1607 0.930 . S
H1594 C1586 0.930 . S
H1595 C1613 0.930 . S
H1596 C1604 0.930 . S
H1597 C1611 0.931 . S
H1598 C1575 0.929 . S
H1599 C1605 0.930 . S
H1600 C1638 0.930 . S
H1601 C1582 0.930 . S
H1602 C1637 0.929 . S
N1603 Tb1572 2.660 . S
N1603 C1604 1.305 . S
N1603 C1608 1.360 . S
C1604 H1596 0.930 . S
C1604 N1603 1.305 . S
C1604 C1607 1.407 . S
C1605 H1599 0.930 . S
C1605 C1606 1.410 . S
C1605 C1607 1.345 . S
C1606 C1605 1.410 . S
C1606 C1608 1.417 . S
C1606 C1638 1.432 1_554 S
C1607 H1593 0.930 . S
C1607 C1604 1.407 . S
C1607 C1605 1.345 . S
C1608 N1603 1.360 . S
C1608 C1606 1.417 . S
C1608 C1612 1.432 1_554 S
H1609 C1614 0.930 . S
N1610 Tb1572 2.600 1_556 S
N1610 C1612 1.359 . S
N1610 C1613 1.327 . S
C1611 H1597 0.931 . S
C1611 C1613 1.392 . S
C1611 C1614 1.370 . S
C1612 C1608 1.432 1_556 S
C1612 N1610 1.359 . S
C1612 C1615 1.414 . S
C1613 H1595 0.930 . S
C1613 N1610 1.327 . S
C1613 C1611 1.392 . S
C1614 H1609 0.930 . S
C1614 C1611 1.370 . S
C1614 C1615 1.385 . S
C1615 C1612 1.414 . S
C1615 C1614 1.385 . S
C1615 C1637 1.444 . S
O1616 Tb1572 2.546 1_556 S
O1616 C1636 1.251 . S
O1617 Tb1572 2.610 . S
O1617 Tb1583 2.362 . S
O1617 C1628 1.283 . S
O1618 Tb1583 2.421 . S
O1618 C1635 1.262 . S
O1619 Tb1572 2.320 . S
O1619 C1635 1.260 . S
O1620 Tb1572 2.552 . S
O1620 C1628 1.243 . S
O1621 Tb1572 2.413 . S
O1621 C1636 1.256 1_554 S
O1622 Tb1583 2.546 . S
O1622 C1647 1.251 1_455 S
O1623 Tb1572 2.362 . S
O1623 Tb1583 2.610 . S
O1623 C1639 1.283 . S
O1624 Tb1572 2.421 1_556 S
O1624 C1646 1.262 . S
O1625 Tb1583 2.320 . S
O1625 C1646 1.260 1_554 S
O1626 Tb1583 2.552 . S
O1626 C1639 1.243 . S
O1627 Tb1583 2.413 1_655 S
O1627 C1647 1.256 . S
C1628 O1617 1.283 . S
C1628 O1620 1.243 . S
C1629 C1631 1.382 1_556 S
C1629 C1633 1.393 . S
C1629 C1636 1.500 . S
C1630 C1631 1.400 1_556 S
C1630 C1632 1.384 . S
C1631 C1629 1.382 1_554 S
C1631 C1630 1.400 1_554 S
C1631 H1648 0.930 . S
C1632 C1630 1.384 . S
C1632 C1634 1.392 . S
C1632 H1649 0.931 . S
C1633 C1629 1.393 . S
C1633 C1634 1.401 . S
C1633 H1650 0.930 . S
C1634 C1632 1.392 . S
C1634 C1633 1.401 . S
C1634 H1651 0.930 . S
C1635 O1618 1.262 . S
C1635 O1619 1.260 . S
C1636 Tb1572 2.833 1_556 S
C1636 O1616 1.251 . S
C1636 O1621 1.256 1_556 S
C1636 C1629 1.500 . S
C1637 H1602 0.929 . S
C1637 C1615 1.444 . S
C1637 C1638 1.317 . S
C1638 H1600 0.930 . S
C1638 C1606 1.432 1_556 S
C1638 C1637 1.317 . S
C1639 O1623 1.283 . S
C1639 O1626 1.243 . S
C1640 C1641 1.382 . S
C1640 C1644 1.393 . S
C1640 C1647 1.500 . S
C1641 C1640 1.382 . S
C1641 C1642 1.400 . S
C1641 H1652 0.930 . S
C1642 C1641 1.400 . S
C1642 C1643 1.384 . S
C1643 C1642 1.384 . S
C1643 C1645 1.392 . S
C1643 H1653 0.931 . S
C1644 C1640 1.393 . S
C1644 C1645 1.401 . S
C1644 H1654 0.930 . S
C1645 C1643 1.392 . S
C1645 C1644 1.401 . S
C1645 H1655 0.930 . S
C1646 O1624 1.262 . S
C1646 O1625 1.260 1_556 S
C1647 Tb1583 2.833 1_655 S
C1647 O1622 1.251 1_655 S
C1647 O1627 1.256 . S
C1647 C1640 1.500 . S
H1648 C1631 0.930 . S
H1649 C1632 0.931 . S
H1650 C1633 0.930 . S
H1651 C1634 0.930 . S
H1652 C1641 0.930 . S
H1653 C1643 0.931 . S
H1654 C1644 0.930 . S
H1655 C1645 0.930 . S
C101 C368 2.742 1_556 S
C57 C459 3.231 . S
C70 C536 2.012 . S
C634 C82 1.296 . S
C23 C718 3.422 . S
C790 C29 1.825 . S
C879 C49 3.100 . S
C10 C956 2.989 . S
C375 C218 3.014 . S
C226 C466 2.019 . S
C543 C251 2.210 . S
C620 C159 2.063 . S
C211 C704 2.984 . S
C806 C225 2.161 . S
C886 C252 1.122 . S
C963 C166 2.796 . S
C382 C147 2.552 . S
C263 C1047 2.508 1_556 S
C1135 C309 3.409 . S
C1208 C291 0.569 . S
C108 C970 4.571 1_545 S
C121 C550 2.906 . S
C302 C1299 2.665 . S
C1376 C276 1.766 . S
C379 C55 2.931 . S
C1394 C96 3.265 . S
C88 C547 2.344 . S
C75 C1294 1.481 . S
C706 C4 3.096 . S
C44 C1138 1.359 . S
C890 C31 2.993 1_565 S
C1471 C18 2.606 . S
C386 C133 3.205 . S
C1378 C296 0.861 . S
C107 C554 1.727 . S
C264 C1303 2.231 . S
C140 C715 3.075 1_565 S
C1131 C289 1.792 . S
C114 C874 0.372 1_545 S
C265 C1478 2.831 . S
C179 C370 2.471 1_554 S
C161 C1058 2.490 . S
C244 C788 3.660 . S
C224 C1219 1.491 . S
C1462 C257 3.605 . S
C199 C538 2.429 . S
C638 C237 2.788 . S
C463 C185 1.211 . S
C69 C1544 2.744 . S
C1383 C83 3.230 . S
C94 C1628 2.015 . S
C56 C1306 1.294 . S
C42 C1054 3.454 . S
C1126 C3 1.838 . S
C1215 C16 3.091 1_455 S
C1460 C36 2.988 . S
C1551 C238 3.014 . S
C174 C1390 2.014 1_556 S
C1635 C186 2.207 . S
C1292 C198 2.063 . S
C1040 C239 2.988 . S
C173 C1142 2.170 . S
C1222 C187 1.128 . S
C205 C1467 2.799 . S
C1558 C290 2.550 . S
C122 C711 2.506 . S
C799 C134 3.419 . S
C872 C148 0.571 . S
C1474 C283 4.575 . S
C270 C1642 2.902 . S
C627 C135 2.663 . S
C452 C109 1.763 . S
C81 C1555 2.931 . S
C470 C68 3.264 . S
C62 C1639 2.343 . S
C95 C622 1.478 . S
C30 C1042 3.091 1_556 S
C802 C17 1.362 . S
C5 C1226 2.991 . S
C43 C967 2.600 . S
C1562 C304 3.205 . S
C153 C454 0.856 . S
C1646 C278 1.730 1_455 S
C127 C631 2.232 . S
C303 C1051 3.069 . S
C795 C146 1.796 . S
C277 C1210 0.364 . S
C974 C120 2.828 . S
C1546 C231 2.469 . S
C722 C200 2.489 1_445 S
C212 C1124 3.665 . S
C883 C172 1.481 . S
C192 C958 3.605 . S
C160 C1630 2.429 1_554 S
C1310 C213 2.791 . S
C1387 C250 1.209 . S
