# Generated by pormake.
# Topology pth, (4,4)-cn, num edge types: 1
# Building blocks:
#     Node 0, Type 0, BuildingBlock: QUQFOY_clean_sbu_3, # of connection points: 4
#     Node 1, Type 0, BuildingBlock: QUQFOY_clean_sbu_3, # of connection points: 4
#     Node 2, Type 0, BuildingBlock: QUQFOY_clean_sbu_3, # of connection points: 4
#     Node 3, Type 1, BuildingBlock: KOZSID_clean_sbu_0, # of connection points: 4
#     Node 4, Type 1, BuildingBlock: KOZSID_clean_sbu_0, # of connection points: 4
#     Node 5, Type 1, BuildingBlock: KOZSID_clean_sbu_0, # of connection points: 4
#     Edge 6, Type (0, 1), BuildingBlock: MIFKUJ_clean_linker_0, # of connection points: 2
#     Edge 7, Type (0, 1), BuildingBlock: MIFKUJ_clean_linker_0, # of connection points: 2
#     Edge 8, Type (0, 1), BuildingBlock: MIFKUJ_clean_linker_0, # of connection points: 2
#     Edge 9, Type (0, 1), BuildingBlock: MIFKUJ_clean_linker_0, # of connection points: 2
#     Edge 10, Type (0, 1), BuildingBlock: MIFKUJ_clean_linker_0, # of connection points: 2
#     Edge 11, Type (0, 1), BuildingBlock: MIFKUJ_clean_linker_0, # of connection points: 2
#     Edge 12, Type (0, 1), BuildingBlock: MIFKUJ_clean_linker_0, # of connection points: 2
#     Edge 13, Type (0, 1), BuildingBlock: MIFKUJ_clean_linker_0, # of connection points: 2
#     Edge 14, Type (0, 1), BuildingBlock: MIFKUJ_clean_linker_0, # of connection points: 2
#     Edge 15, Type (0, 1), BuildingBlock: MIFKUJ_clean_linker_0, # of connection points: 2
#     Edge 16, Type (0, 1), BuildingBlock: MIFKUJ_clean_linker_0, # of connection points: 2
#     Edge 17, Type (0, 1), BuildingBlock: MIFKUJ_clean_linker_0, # of connection points: 2
# Relax obj value: 0.007
# Max RMSD: 0.064
# Mean RMSD: 0.043
data_MOF--net-pth--node1-QUQFOY_clean_sbu_3--node2-KOZSID_clean_sbu_0--edge1-MIFKUJ_clean_linker_0
_symmetry_space_group_name_H-M    P1
_symmetry_Int_Tables_number       1
_symmetry_cell_setting            triclinic
loop_
_symmetry_equiv_pos_as_xyz
'x, y, z'
_cell_length_a     33.913155
_cell_length_b     33.698926
_cell_length_c     79.163651
_cell_angle_alpha  87.973389
_cell_angle_beta   88.740456
_cell_angle_gamma 120.73213
loop_
_atom_site_label
_atom_site_type_symbol
_atom_site_fract_x
_atom_site_fract_y
_atom_site_fract_z
_atom_type_partial_charge
C0 C 0.01998 0.11622 0.0598 0.0
O1 O 0.98971 0.10762 0.04907 0.0
Cd2 Cd 0.98609 0.06941 0.02381 0.0
O3 O 0.04621 0.09958 0.05864 0.0
Cd4 Cd 0.05493 0.04388 0.04148 0.0
C5 C 0.10149 0.12844 0.01073 0.0
O6 O 0.97635 0.99655 0.03269 0.0
O7 O 0.02801 0.98957 0.019 0.0
O8 O 0.05067 0.00364 0.06809 0.0
C9 C 0.98593 0.97635 0.02151 0.0
O10 O 0.06068 0.11992 0.00886 0.0
C11 C 0.08529 -0.00025 0.06479 0.0
O12 O 0.11005 0.10662 0.02213 0.0
O13 O 0.10696 0.01762 0.05067 0.0
C14 C 0.13249 0.10542 0.38567 0.0
O15 O 0.15038 0.12805 0.3717 0.0
Cd16 Cd 0.10551 0.13238 0.34946 0.0
O17 O 0.08917 0.08431 0.38851 0.0
Cd18 Cd 0.02104 0.07176 0.37339 0.0
C19 C 0.04174 0.01723 0.34294 0.0
O20 O 0.05062 0.15006 0.36104 0.0
O21 O 0.98938 0.09581 0.3505 0.0
O22 O 0.9906 0.07755 0.40072 0.0
C23 C 0.01726 0.13871 0.35154 0.0
O24 O 0.07041 0.0576 0.33667 0.0
C25 C 0.95037 0.04353 0.39915 0.0
O26 O 0.02124 0.01152 0.35726 0.0
O27 O 0.94335 0.02135 0.38582 0.0
C28 C 0.97339 0.07653 0.69162 0.0
O29 O 0.97676 0.09577 0.70546 0.0
Cd30 Cd 0.02625 0.09998 0.72748 0.0
O31 O 0.99796 0.05886 0.68837 0.0
Cd32 Cd 0.05788 0.04889 0.7016 0.0
C33 C 0.98444 0.98368 0.73433 0.0
O34 O 0.0991 0.12403 0.71402 0.0
O35 O 0.11978 0.07516 0.72125 0.0
O36 O 0.09675 0.06632 0.67383 0.0
C37 C 0.1262 0.11552 0.72199 0.0
O38 O 0.99093 0.02142 0.73995 0.0
C39 C 0.10249 0.0319 0.67431 0.0
O40 O 0.00212 0.98308 0.72004 0.0
O41 O 0.08567 0.00412 0.68727 0.0
C42 C 0.12308 0.65436 0.18226 0.0
C43 C 0.16909 0.68738 0.17891 0.0
C44 C 0.19343 0.67733 0.18996 0.0
C45 C 0.16108 0.63917 0.19945 0.0
N46 N 0.11749 0.62369 0.195 0.0
Co47 Co 0.05979 0.57161 0.20645 0.0
N48 N 0.09565 0.55861 0.22335 0.0
C49 C 0.14192 0.58033 0.22397 0.0
C50 C 0.15682 0.5619 0.23614 0.0
C51 C 0.1178 0.52592 0.24372 0.0
C52 C 0.08106 0.52482 0.2358 0.0
N53 N 0.00201 0.5205 0.21816 0.0
C54 C 0.9962 0.49182 0.23166 0.0
C55 C 0.95005 0.46225 0.2362 0.0
C56 C 0.92579 0.47191 0.22496 0.0
C57 C 0.95833 0.50695 0.21433 0.0
N58 N 0.02398 0.58364 0.18924 0.0
C59 C 0.97789 0.55975 0.18777 0.0
C60 C 0.96343 0.57572 0.17455 0.0
C61 C 0.00253 0.61237 0.16725 0.0
C62 C 0.03866 0.61685 0.17658 0.0
N63 N 0.06224 0.52674 0.19153 0.0
C64 C 0.06361 0.45865 0.17222 0.0
C65 C 0.02296 0.45878 0.17532 0.0
C66 C 0.023 0.49251 0.18498 0.0
C67 C 0.10394 0.49419 0.17857 0.0
C68 C 0.10254 0.52783 0.18799 0.0
N69 N 0.0571 0.61615 0.22147 0.0
C70 C 0.01559 0.65036 0.23313 0.0
C71 C 0.05194 0.67768 0.24321 0.0
C72 C 0.09111 0.67411 0.24223 0.0
C73 C 0.0932 0.64373 0.23118 0.0
C74 C 0.01869 0.6198 0.22255 0.0
H75 H 0.12435 0.64321 0.2307 0.0
H76 H 0.98942 0.59943 0.21544 0.0
H77 H 0.99067 0.48979 0.1871 0.0
H78 H 0.13438 0.55398 0.19244 0.0
C79 C 0.17052 0.61775 0.21282 0.0
C80 C 0.08586 0.65474 0.17352 0.0
C81 C 0.03309 0.4903 0.24023 0.0
C82 C 0.94893 0.52544 0.19997 0.0
H83 H 0.18363 0.71631 0.16969 0.0
H84 H 0.23027 0.69618 0.19117 0.0
H85 H 0.19191 0.57284 0.23899 0.0
H86 H 0.11686 0.5028 0.25375 0.0
H87 H 0.93541 0.43589 0.24643 0.0
H88 H 0.88882 0.45476 0.22439 0.0
H89 H 0.92851 0.5632 0.17101 0.0
H90 H 0.00419 0.63417 0.15655 0.0
H91 H 0.99094 0.43298 0.17028 0.0
H92 H 0.13641 0.49574 0.17659 0.0
H93 H 0.98448 0.65199 0.23361 0.0
H94 H 0.12024 0.69518 0.24975 0.0
C95 C 0.45254 0.00426 0.56419 0.0
C96 C 0.41762 0.9623 0.57139 0.0
C97 C 0.42072 0.92859 0.56353 0.0
C98 C 0.45728 0.9518 0.55209 0.0
N99 N 0.47809 0.99835 0.55229 0.0
Co100 Co 0.5324 0.04539 0.53777 0.0
N101 N 0.53373 0.99578 0.52489 0.0
C102 C 0.5043 0.9496 0.52703 0.0
C103 C 0.5144 0.92411 0.51661 0.0
C104 C 0.55279 0.95577 0.50733 0.0
C105 C 0.56384 0.99904 0.5126 0.0
N106 N 0.58746 0.09242 0.52352 0.0
C107 C 0.6129 0.08642 0.51156 0.0
C108 C 0.64917 0.12838 0.50494 0.0
C109 C 0.64718 0.1621 0.51327 0.0
C110 C 0.60991 0.13895 0.5244 0.0
N111 N 0.53022 0.09506 0.55035 0.0
C112 C 0.55862 0.14134 0.54787 0.0
C113 C 0.5471 0.16669 0.55782 0.0
C114 C 0.50858 0.13478 0.56702 0.0
C115 C 0.49897 0.09165 0.56217 0.0
N116 N 0.57414 0.04286 0.5544 0.0
C117 C 0.63478 0.04032 0.57753 0.0
C118 C 0.63851 0.08208 0.57231 0.0
C119 C 0.60832 0.08258 0.56078 0.0
C120 C 0.60024 -0.00027 0.57103 0.0
C121 C 0.57026 0.00173 0.55966 0.0
N122 N 0.49067 0.04808 0.52121 0.0
C123 C 0.46867 0.09314 0.50373 0.0
C124 C 0.42785 0.05346 0.50002 0.0
C125 C 0.41967 0.01076 0.50658 0.0
C126 C 0.45133 0.00887 0.5171 0.0
C127 C 0.49941 0.08967 0.51417 0.0
H128 H 0.44288 0.97544 0.52198 0.0
H129 H 0.52969 0.12126 0.51653 0.0
H130 H 0.61366 0.11566 0.55715 0.0
H131 H 0.54434 0.96958 0.55529 0.0
C132 C 0.47012 0.93099 0.53997 0.0
C133 C 0.45862 0.04861 0.56852 0.0
C134 C 0.60471 0.04188 0.5063 0.0
C135 C 0.59514 0.15992 0.5358 0.0
H136 H 0.39189 0.95667 0.58104 0.0
H137 H 0.39806 0.89158 0.5655 0.0
H138 H 0.49694 0.88684 0.51625 0.0
H139 H 0.5712 0.94763 0.49809 0.0
H140 H 0.67468 0.13399 0.4952 0.0
H141 H 0.67037 0.19907 0.51151 0.0
H142 H 0.5641 0.20394 0.55808 0.0
H143 H 0.48924 0.14243 0.57604 0.0
H144 H 0.66522 0.11447 0.57687 0.0
H145 H 0.59599 0.96652 0.57485 0.0
H146 H 0.47695 0.12691 0.4986 0.0
H147 H 0.38844 0.97905 0.504 0.0
C148 C 0.63488 0.57323 0.84708 0.0
C149 C 0.66612 0.55963 0.84301 0.0
C150 C 0.65651 0.52336 0.85398 0.0
C151 C 0.62014 0.5169 0.86407 0.0
N152 N 0.60573 0.54674 0.86017 0.0
Co153 Co 0.55369 0.54939 0.87153 0.0
N154 N 0.54181 0.49819 0.88837 0.0
C155 C 0.56648 0.47707 0.89004 0.0
C156 C 0.55049 0.44383 0.90302 0.0
C157 C 0.51298 0.44322 0.90993 0.0
C158 C 0.50806 0.47599 0.9006 0.0
N159 N 0.50057 0.55086 0.88255 0.0
C160 C 0.46937 0.522 0.89479 0.0
C161 C 0.43569 0.53296 0.89792 0.0
C162 C 0.44582 0.56993 0.88724 0.0
C163 C 0.48471 0.5792 0.87815 0.0
N164 N 0.56658 0.60167 0.85502 0.0
C165 C 0.54415 0.62526 0.8542 0.0
C166 C 0.56163 0.66015 0.8418 0.0
C167 C 0.59783 0.65928 0.83438 0.0
C168 C 0.60033 0.62377 0.84276 0.0
N169 N 0.51086 0.50374 0.85594 0.0
C170 C 0.44882 0.43832 0.83419 0.0
C171 C 0.45172 0.48091 0.83569 0.0
C172 C 0.48244 0.51265 0.84662 0.0
C173 C 0.47776 0.42919 0.84373 0.0
C174 C 0.50843 0.46219 0.85436 0.0
N175 N 0.59659 0.59514 0.88713 0.0
C176 C 0.62303 0.66512 0.9021 0.0
C177 C 0.65872 0.66109 0.90872 0.0
C178 C 0.6626 0.62336 0.90443 0.0
C179 C 0.63153 0.59117 0.8937 0.0
C180 C 0.59261 0.63203 0.89144 0.0
H181 H 0.63664 0.56346 0.8909 0.0
H182 H 0.56638 0.63728 0.88677 0.0
H183 H 0.48245 0.54411 0.84729 0.0
H184 H 0.5296 0.45316 0.86124 0.0
C185 C 0.60157 0.48601 0.87821 0.0
C186 C 0.63594 0.61306 0.83881 0.0
C187 C 0.46917 0.48262 0.90314 0.0
C188 C 0.50625 0.61323 0.86506 0.0
H189 H 0.69372 0.57503 0.83338 0.0
H190 H 0.67479 0.50485 0.85484 0.0
H191 H 0.56357 0.42158 0.90665 0.0
H192 H 0.49091 0.42029 0.92033 0.0
H193 H 0.40625 0.51552 0.90673 0.0
H194 H 0.42647 0.58725 0.88596 0.0
H195 H 0.54956 0.68351 0.83857 0.0
H196 H 0.6201 0.68234 0.82404 0.0
H197 H 0.43071 0.49013 0.82837 0.0
H198 H 0.47648 0.39648 0.84322 0.0
H199 H 0.61888 0.69405 0.90489 0.0
H200 H 0.68925 0.61827 0.90946 0.0
H201 H 0.95359 0.12309 0.07693 0.0
H202 H 0.96409 0.17882 0.09789 0.0
H203 H 0.11103 0.23807 0.09296 0.0
H204 H 0.10017 0.18003 0.0729 0.0
H205 H 0.09156 0.24159 0.12353 0.0
H206 H 0.05092 0.28651 0.07206 0.0
H207 H 0.00525 0.27746 0.04713 0.0
H208 H 0.88909 0.24755 0.07956 0.0
H209 H 0.93391 0.25584 0.1047 0.0
H210 H 0.13029 0.46602 0.14964 0.0
H211 H 0.12713 0.40551 0.13246 0.0
H212 H 0.99292 0.30804 0.15468 0.0
H213 H 0.99659 0.3671 0.17261 0.0
H214 H 0.01012 0.32772 0.11521 0.0
H215 H 0.05828 0.28436 0.16696 0.0
H216 H 0.11089 0.30105 0.19021 0.0
H217 H 0.22271 0.33906 0.15422 0.0
H218 H 0.17083 0.32325 0.13073 0.0
C219 C 0.98804 0.14775 0.08049 0.0
C220 C 0.02611 0.14763 0.07327 0.0
C221 C 0.9941 0.17983 0.09235 0.0
C222 C 0.03848 0.21369 0.09665 0.0
C223 C 0.07646 0.21253 0.08982 0.0
C224 C 0.07028 0.17945 0.07835 0.0
C225 C 0.04523 0.2509 0.10788 0.0
C226 C 0.0741 0.2607 0.12154 0.0
C227 C 0.02268 0.2762 0.10536 0.0
C228 C 0.99566 0.2714 0.09026 0.0
C229 C 0.01555 0.27773 0.07388 0.0
C230 C 0.98983 0.27276 0.05971 0.0
C231 C 0.94427 0.26183 0.06176 0.0
C232 C 0.92437 0.25597 0.07799 0.0
C233 C 0.94993 0.26084 0.0922 0.0
C234 C 0.10053 0.43149 0.15119 0.0
C235 C 0.06346 0.4217 0.16241 0.0
C236 C 0.09875 0.39709 0.1413 0.0
C237 C 0.05976 0.35261 0.14234 0.0
C238 C 0.02319 0.34237 0.1537 0.0
C239 C 0.02524 0.37637 0.1638 0.0
C240 C 0.05558 0.31743 0.1308 0.0
C241 C 0.02744 0.3084 0.11707 0.0
C242 C 0.07975 0.29391 0.13298 0.0
C243 C 0.11081 0.30319 0.1471 0.0
C244 C 0.09418 0.29678 0.164 0.0
C245 C 0.12384 0.30595 0.17722 0.0
C246 C 0.17015 0.32126 0.17369 0.0
C247 C 0.18685 0.32729 0.15693 0.0
C248 C 0.15733 0.31819 0.14367 0.0
H249 H 0.19306 0.32833 0.18395 0.0
H250 H 0.9244 0.25799 0.05078 0.0
H251 H 0.95753 0.07173 0.43139 0.0
H252 H 0.89553 0.06356 0.45038 0.0
H253 H 0.79662 0.98599 0.41355 0.0
H254 H 0.85831 0.99319 0.3946 0.0
H255 H 0.79674 0.06706 0.42519 0.0
H256 H 0.7918 0.9292 0.4468 0.0
H257 H 0.82457 0.88422 0.45863 0.0
H258 H 0.86765 0.9684 0.50163 0.0
H259 H 0.83571 0.01436 0.48993 0.0
H260 H 0.59739 0.01709 0.47365 0.0
H261 H 0.65444 0.01161 0.4559 0.0
H262 H 0.74806 0.05874 0.49663 0.0
H263 H 0.69007 0.06232 0.51455 0.0
H264 H 0.74971 0.99043 0.48275 0.0
H265 H 0.7604 0.13042 0.46202 0.0
H266 H 0.73248 0.1804 0.45084 0.0
H267 H 0.68556 0.09998 0.40697 0.0
H268 H 0.71258 0.04903 0.41803 0.0
C269 C 0.92248 0.05219 0.42748 0.0
C270 C 0.91271 0.0332 0.41151 0.0
C271 C 0.88716 0.04751 0.43834 0.0
C272 C 0.84167 0.02427 0.4333 0.0
C273 C 0.83161 0.00402 0.41761 0.0
C274 C 0.86681 0.008 0.40686 0.0
C275 C 0.80527 0.02438 0.44386 0.0
C276 C 0.78576 0.04965 0.43766 0.0
C277 C 0.79252 0.00311 0.46034 0.0
C278 C 0.81176 0.97553 0.4674 0.0
C279 C 0.80866 0.93843 0.4587 0.0
C280 C 0.82699 0.91268 0.4654 0.0
C281 C 0.84829 0.92352 0.48085 0.0
C282 C 0.85119 0.96008 0.48965 0.0
C283 C 0.83294 0.98596 0.483 0.0
C284 C 0.6302 0.02615 0.47872 0.0
C285 C 0.63967 0.04 0.49536 0.0
C286 C 0.6628 0.02327 0.46861 0.0
C287 C 0.70576 0.03524 0.47488 0.0
C288 C 0.71516 0.04925 0.49154 0.0
C289 C 0.68231 0.05158 0.50171 0.0
C290 C 0.74084 0.03308 0.46408 0.0
C291 C 0.76034 0.00764 0.47024 0.0
C292 C 0.7543 0.05499 0.44765 0.0
C293 C 0.73808 0.08561 0.44094 0.0
C294 C 0.74379 0.12315 0.45006 0.0
C295 C 0.72818 0.15169 0.44374 0.0
C296 C 0.70715 0.14329 0.42823 0.0
C297 C 0.70179 0.10639 0.419 0.0
C298 C 0.71726 0.07768 0.42528 0.0
H299 H 0.69511 0.16545 0.42335 0.0
H300 H 0.86245 0.90354 0.48602 0.0
H301 H 0.96092 0.9732 0.76798 0.0
H302 H 0.90669 0.90206 0.78424 0.0
H303 H 0.88469 0.82438 0.73972 0.0
H304 H 0.93954 0.89565 0.72331 0.0
H305 H 0.80308 0.8092 0.75698 0.0
H306 H 0.93985 0.80806 0.76907 0.0
H307 H 0.01958 0.84087 0.77768 0.0
H308 H 0.98184 0.86549 0.82663 0.0
H309 H 0.90198 0.83345 0.81823 0.0
H310 H 0.65335 0.60164 0.80617 0.0
H311 H 0.71749 0.65748 0.78697 0.0
H312 H 0.77034 0.753 0.82692 0.0
H313 H 0.70667 0.69686 0.84608 0.0
H314 H 0.83876 0.75134 0.80953 0.0
H315 H 0.70712 0.76357 0.79701 0.0
H316 H 0.62733 0.73442 0.78914 0.0
H317 H 0.65544 0.69349 0.74174 0.0
H318 H 0.73528 0.72168 0.74948 0.0
C319 C 0.94492 0.94095 0.76166 0.0
C320 C 0.95438 0.94001 0.74435 0.0
C321 C 0.91412 0.90033 0.77099 0.0
C322 C 0.89195 0.85806 0.76317 0.0
C323 C 0.90167 0.85675 0.74596 0.0
C324 C 0.93307 0.8974 0.73664 0.0
C325 C 0.85664 0.81599 0.77291 0.0
C326 C 0.81093 0.79574 0.76825 0.0
C327 C 0.86697 0.79947 0.78783 0.0
C328 C 0.91495 0.81862 0.79297 0.0
C329 C 0.94861 0.8208 0.78163 0.0
C330 C 0.99382 0.83921 0.78648 0.0
C331 C 0.00579 0.85533 0.80268 0.0
C332 C 0.97253 0.853 0.81408 0.0
C333 C 0.92726 0.83466 0.80929 0.0
C334 C 0.67908 0.63446 0.81077 0.0
C335 C 0.67558 0.64542 0.82744 0.0
C336 C 0.71547 0.66626 0.79987 0.0
C337 C 0.74845 0.70948 0.80551 0.0
C338 C 0.74536 0.7198 0.82234 0.0
C339 C 0.70907 0.68801 0.83322 0.0
C340 C 0.78509 0.74497 0.79375 0.0
C341 C 0.831 0.76412 0.79807 0.0
C342 C 0.7749 0.76091 0.77862 0.0
C343 C 0.727 0.74419 0.77391 0.0
C344 C 0.69619 0.74798 0.78497 0.0
C345 C 0.65097 0.73168 0.78053 0.0
C346 C 0.63628 0.71199 0.76497 0.0
C347 C 0.66684 0.70865 0.75381 0.0
C348 C 0.71208 0.72477 0.75821 0.0
H349 H 0.60127 0.69942 0.76155 0.0
H350 H 0.04081 0.86957 0.80641 0.0
H351 H 0.05474 0.97116 0.09756 0.0
H352 H 0.06805 0.9197 0.11587 0.0
H353 H 0.15565 0.91497 0.07665 0.0
H354 H 0.14272 0.96691 0.05821 0.0
H355 H 0.08605 0.82775 0.08965 0.0
H356 H 0.20365 0.96962 0.11071 0.0
H357 H 0.23602 0.04692 0.12202 0.0
H358 H 0.14204 0.98837 0.16537 0.0
H359 H 0.10864 0.91077 0.1542 0.0
H360 H 0.13128 0.68242 0.14259 0.0
H361 H 0.14353 0.74795 0.12393 0.0
H362 H 0.07118 0.78176 0.16088 0.0
H363 H 0.06052 0.71732 0.1797 0.0
H364 H 0.14308 0.85824 0.14771 0.0
H365 H 0.01921 0.72042 0.12611 0.0
H366 H 0.98186 0.6422 0.11531 0.0
H367 H 0.08115 0.69191 0.07352 0.0
H368 H 0.11957 0.77035 0.08423 0.0
C369 C 0.07739 0.95974 0.0929 0.0
C370 C 0.0976 0.97296 0.07644 0.0
C371 C 0.08509 0.93048 0.10341 0.0
C372 C 0.11297 0.91372 0.09762 0.0
C373 C 0.13412 0.92769 0.08134 0.0
C374 C 0.12683 0.95744 0.07087 0.0
C375 C 0.11704 0.87899 0.1082 0.0
C376 C 0.09948 0.83464 0.10221 0.0
C377 C 0.13327 0.88776 0.12475 0.0
C378 C 0.15342 0.93439 0.13155 0.0
C379 C 0.18964 0.97326 0.12259 0.0
C380 C 0.20822 0.01713 0.12899 0.0
C381 C 0.19104 0.02257 0.14439 0.0
C382 C 0.1553 0.98412 0.15344 0.0
C383 C 0.13658 0.94017 0.14709 0.0
C384 C 0.11861 0.70437 0.14671 0.0
C385 C 0.09516 0.69533 0.16248 0.0
C386 C 0.12533 0.74151 0.13607 0.0
C387 C 0.10783 0.76948 0.14094 0.0
C388 C 0.08509 0.76077 0.15688 0.0
C389 C 0.0788 0.72396 0.16756 0.0
C390 C 0.11155 0.80676 0.12924 0.0
C391 C 0.13038 0.85151 0.13505 0.0
C392 C 0.09578 0.7982 0.1126 0.0
C393 C 0.07259 0.75113 0.10608 0.0
C394 C 0.0333 0.7146 0.11469 0.0
C395 C 0.01191 0.67023 0.10857 0.0
C396 C 0.0292 0.66206 0.09376 0.0
C397 C 0.06785 0.69827 0.08501 0.0
C398 C 0.08945 0.74269 0.0911 0.0
H399 H 0.01258 0.62769 0.08904 0.0
H400 H 0.20547 0.05656 0.14932 0.0
H401 H 0.10866 0.0725 0.41863 0.0
H402 H 0.15673 0.06503 0.43955 0.0
H403 H 0.26992 0.12114 0.40246 0.0
H404 H 0.22257 0.13002 0.38165 0.0
H405 H 0.19568 0.01566 0.44091 0.0
H406 H 0.3706 0.17999 0.42096 0.0
H407 H 0.39997 0.25909 0.4088 0.0
H408 H 0.27918 0.25593 0.4283 0.0
H409 H 0.24938 0.17707 0.44076 0.0
H410 H 0.38098 0.00055 0.4739 0.0
H411 H 0.32765 0.0093 0.45597 0.0
H412 H 0.34489 0.12301 0.48482 0.0
H413 H 0.3985 0.11473 0.5026 0.0
H414 H 0.35079 0.14519 0.45261 0.0
H415 H 0.24623 0.01642 0.48913 0.0
H416 H 0.2135 0.93966 0.50386 0.0
H417 H 0.18711 0.87609 0.45611 0.0
H418 H 0.22029 0.95259 0.44108 0.0
C419 C 0.14389 0.08356 0.41496 0.0
C420 C 0.16188 0.1021 0.3985 0.0
C421 C 0.17127 0.0791 0.42692 0.0
C422 C 0.21706 0.09292 0.42264 0.0
C423 C 0.23497 0.1111 0.40617 0.0
C424 C 0.2078 0.11605 0.39426 0.0
C425 C 0.24589 0.08761 0.43529 0.0
C426 C 0.22956 0.04401 0.4435 0.0
C427 C 0.28972 0.1248 0.43893 0.0
C428 C 0.30759 0.17245 0.43165 0.0
C429 C 0.3504 0.19625 0.42271 0.0
C430 C 0.36711 0.24103 0.41576 0.0
C431 C 0.34139 0.26247 0.41773 0.0
C432 C 0.29898 0.23922 0.42672 0.0
C433 C 0.28214 0.19446 0.43371 0.0
C434 C 0.37297 0.02707 0.4765 0.0
C435 C 0.394 0.05709 0.48958 0.0
C436 C 0.34251 0.03203 0.46627 0.0
C437 C 0.33207 0.06666 0.46912 0.0
C438 C 0.35262 0.09624 0.48233 0.0
C439 C 0.38328 0.09152 0.49246 0.0
C440 C 0.30089 0.07308 0.45803 0.0
C441 C 0.31684 0.11687 0.45007 0.0
C442 C 0.25624 0.0364 0.45499 0.0
C443 C 0.23614 0.9903 0.46398 0.0
C444 C 0.23377 0.98611 0.48176 0.0
C445 C 0.21508 0.94264 0.49017 0.0
C446 C 0.19834 0.90303 0.48093 0.0
C447 C 0.20014 0.90681 0.46326 0.0
C448 C 0.21885 0.95022 0.45479 0.0
H449 H 0.18387 0.86941 0.48746 0.0
H450 H 0.35437 0.29712 0.41233 0.0
H451 H 0.203 0.11819 0.73292 0.0
H452 H 0.25958 0.1735 0.75146 0.0
H453 H 0.18276 0.24325 0.75471 0.0
H454 H 0.12747 0.18942 0.73545 0.0
H455 H 0.26789 0.30432 0.75222 0.0
H456 H 0.17925 0.16551 0.78712 0.0
H457 H 0.14349 0.08253 0.79532 0.0
H458 H 0.27651 0.09626 0.79562 0.0
H459 H 0.31305 0.17923 0.78721 0.0
H460 H 0.36162 0.41866 0.82788 0.0
H461 H 0.30882 0.36425 0.80822 0.0
H462 H 0.40719 0.32393 0.79544 0.0
H463 H 0.46124 0.37969 0.81454 0.0
H464 H 0.31309 0.24863 0.80287 0.0
H465 H 0.39978 0.39113 0.76855 0.0
H466 H 0.43152 0.47438 0.76206 0.0
H467 H 0.29527 0.45286 0.76292 0.0
H468 H 0.26275 0.36954 0.76967 0.0
C469 C 0.19835 0.14545 0.73756 0.0
C470 C 0.16084 0.14949 0.73284 0.0
C471 C 0.23051 0.17686 0.74824 0.0
C472 C 0.22495 0.212 0.7548 0.0
C473 C 0.18778 0.21642 0.74985 0.0
C474 C 0.15617 0.18562 0.73887 0.0
C475 C 0.25786 0.24424 0.76677 0.0
C476 C 0.27724 0.29198 0.7634 0.0
C477 C 0.27071 0.22835 0.78126 0.0
C478 C 0.24885 0.17848 0.78637 0.0
C479 C 0.20086 0.15076 0.78882 0.0
C480 C 0.18045 0.10374 0.79352 0.0
C481 C 0.2077 0.08411 0.79595 0.0
C482 C 0.25544 0.1115 0.79372 0.0
C483 C 0.27602 0.15853 0.789 0.0
C484 C 0.37241 0.39873 0.82075 0.0
C485 C 0.41592 0.40389 0.82273 0.0
C486 C 0.34202 0.36743 0.80962 0.0
C487 C 0.35435 0.34041 0.80037 0.0
C488 C 0.39715 0.34452 0.80255 0.0
C489 C 0.42785 0.37624 0.81353 0.0
C490 C 0.32262 0.3082 0.78828 0.0
C491 C 0.30358 0.26064 0.79165 0.0
C492 C 0.30936 0.32416 0.774 0.0
C493 C 0.32887 0.37418 0.76977 0.0
C494 C 0.37661 0.40421 0.76749 0.0
C495 C 0.39474 0.4514 0.76374 0.0
C496 C 0.36544 0.46892 0.76212 0.0
C497 C 0.31793 0.43925 0.7642 0.0
C498 C 0.29963 0.39204 0.76797 0.0
H499 H 0.37954 0.50547 0.75922 0.0
H500 H 0.19184 0.0477 0.79959 0.0
H501 H 0.95466 0.03504 0.66137 0.0
H502 H 0.89678 0.02701 0.64175 0.0
H503 H 0.85806 0.10267 0.67432 0.0
H504 H 0.91538 0.1103 0.69418 0.0
H505 H 0.78396 0.0266 0.66432 0.0
H506 H 0.9215 0.15297 0.63765 0.0
H507 H 0.00103 0.19333 0.62561 0.0
H508 H 0.96234 0.09104 0.58862 0.0
H509 H 0.88265 0.04967 0.6006 0.0
H510 H 0.66027 0.08393 0.60707 0.0
H511 H 0.71694 0.08632 0.62627 0.0
H512 H 0.73944 0.99804 0.59429 0.0
H513 H 0.68267 0.99558 0.57497 0.0
H514 H 0.82085 0.07707 0.60349 0.0
H515 H 0.68183 0.95265 0.62993 0.0
H516 H 0.60237 0.91439 0.64193 0.0
H517 H 0.64434 0.01575 0.67943 0.0
H518 H 0.72399 0.05506 0.66748 0.0
C519 C 0.93402 0.0502 0.66435 0.0
C520 C 0.93969 0.07335 0.67936 0.0
C521 C 0.90104 0.04569 0.65308 0.0
C522 C 0.87338 0.06456 0.65652 0.0
C523 C 0.87905 0.08783 0.67144 0.0
C524 C 0.91195 0.09228 0.68274 0.0
C525 C 0.83779 0.05914 0.64475 0.0
C526 C 0.79213 0.03816 0.65107 0.0
C527 C 0.84832 0.07316 0.62737 0.0
C528 C 0.89621 0.09794 0.62014 0.0
C529 C 0.93003 0.13885 0.62704 0.0
C530 C 0.97512 0.16195 0.62021 0.0
C531 C 0.98676 0.14468 0.60639 0.0
C532 C 0.95329 0.10433 0.59935 0.0
C533 C 0.90815 0.08106 0.60614 0.0
C534 C 0.67724 0.06495 0.60417 0.0
C535 C 0.66718 0.03957 0.58956 0.0
C536 C 0.70937 0.06615 0.61516 0.0
C537 C 0.73213 0.04218 0.6117 0.0
C538 C 0.72209 0.01667 0.59716 0.0
C539 C 0.68953 0.01504 0.58623 0.0
C540 C 0.76725 0.04489 0.62312 0.0
C541 C 0.81276 0.06534 0.61674 0.0
C542 C 0.75666 0.03067 0.64046 0.0
C543 C 0.70881 0.00705 0.64771 0.0
C544 C 0.67405 0.96703 0.64064 0.0
C545 C 0.62899 0.9451 0.64745 0.0
C546 C 0.61829 0.96269 0.66141 0.0
C547 C 0.65267 0.00219 0.6686 0.0
C548 C 0.69779 0.02428 0.66183 0.0
H549 H 0.58337 0.94566 0.66667 0.0
H550 H 0.02169 0.16264 0.60112 0.0
H551 H 0.99781 0.93058 0.99601 0.0
H552 H 0.9403 0.87859 0.97698 0.0
H553 H 0.83719 0.89573 0.00293 0.0
H554 H 0.89448 0.94743 0.02219 0.0
H555 H 0.80535 0.80609 0.99645 0.0
H556 H 0.88423 0.95257 0.96536 0.0
H557 H 0.95177 0.0239 0.95308 0.0
H558 H 0.98822 0.94348 0.92263 0.0
H559 H 0.92125 0.8716 0.93493 0.0
H560 H 0.64045 0.70373 0.93399 0.0
H561 H 0.6947 0.75975 0.95295 0.0
H562 H 0.8052 0.75181 0.92847 0.0
H563 H 0.75157 0.69732 0.909 0.0
H564 H 0.83128 0.83931 0.93432 0.0
H565 H 0.75476 0.693 0.96638 0.0
H566 H 0.68764 0.62149 0.97879 0.0
H567 H 0.64712 0.70169 0.00747 0.0
H568 H 0.7137 0.77372 0.99504 0.0
C569 C 0.96286 0.92318 -0.00229 0.0
C570 C 0.95069 0.94327 0.01053 0.0
C571 C 0.93011 0.89364 0.98678 0.0
C572 C 0.88468 0.88392 0.9884 0.0
C573 C 0.87213 0.90299 0.00144 0.0
C574 C 0.90489 0.93253 0.01241 0.0
C575 C 0.85037 0.85386 0.97642 0.0
C576 C 0.81064 0.81368 0.98288 0.0
C577 C 0.85779 0.86346 0.95871 0.0
C578 C 0.89791 0.90667 0.95118 0.0
C579 C 0.90682 0.95007 0.95614 0.0
C580 C 0.94498 0.99061 0.94916 0.0
C581 C 0.97433 0.98822 0.93711 0.0
C582 C 0.96549 0.94528 0.93198 0.0
C583 C 0.92741 0.90463 0.93894 0.0
C584 C 0.67639 0.71436 0.93249 0.0
C585 C 0.69164 0.69582 0.92005 0.0
C586 C 0.70727 0.74603 0.94345 0.0
C587 C 0.75385 0.7594 0.94227 0.0
C588 C 0.76935 0.74177 0.92964 0.0
C589 C 0.73857 0.71027 0.91864 0.0
C590 C 0.78646 0.79125 0.95434 0.0
C591 C 0.82588 0.83182 0.9479 0.0
C592 C 0.77877 0.782 0.97207 0.0
C593 C 0.73893 0.73873 0.97965 0.0
C594 C 0.73135 0.69538 0.97524 0.0
C595 C 0.69344 0.65476 0.98229 0.0
C596 C 0.66307 0.65705 0.99388 0.0
C597 C 0.67064 0.69997 -0.00153 0.0
C598 C 0.70847 0.7407 0.99144 0.0
H599 H 0.63373 0.62556 -0.00068 0.0
H600 H 0.00386 0.01965 0.93173 0.0
H601 H 0.01793 0.93163 0.35625 0.0
H602 H 0.01321 0.86723 0.341 0.0
H603 H 0.04306 0.94708 0.29377 0.0
H604 H 0.04925 0.01203 0.30892 0.0
H605 H 0.96383 0.84354 0.29648 0.0
H606 H 0.12702 0.95177 0.30596 0.0
H607 H 0.19035 0.99711 0.32466 0.0
H608 H 0.15733 0.87304 0.3537 0.0
H609 H 0.09331 0.82707 0.33529 0.0
H610 H 0.0312 0.74356 0.23494 0.0
H611 H 0.02363 0.79534 0.25382 0.0
H612 H 0.05563 0.73403 0.29619 0.0
H613 H 0.0653 0.6836 0.27707 0.0
H614 H 0.09715 0.82085 0.29927 0.0
H615 H 0.94308 0.70979 0.28914 0.0
H616 H 0.87595 0.65987 0.2727 0.0
H617 H 0.88399 0.7797 0.24822 0.0
H618 H 0.95162 0.83041 0.26433 0.0
C619 C 0.02291 0.93517 0.3426 0.0
C620 C 0.03416 0.9768 0.33374 0.0
C621 C 0.02026 0.89849 0.33395 0.0
C622 C 0.02784 0.90269 0.31632 0.0
C623 C 0.03703 0.94337 0.30738 0.0
C624 C 0.04074 0.9804 0.31604 0.0
C625 C 0.02916 0.86595 0.30722 0.0
C626 C 0.99296 0.83854 0.29695 0.0
C627 C 0.0664 0.85854 0.30847 0.0
C628 C 0.10508 0.88612 0.3194 0.0
C629 C 0.13299 0.93425 0.31644 0.0
C630 C 0.16906 0.96004 0.32695 0.0
C631 C 0.17776 0.938 0.34039 0.0
C632 C 0.15049 0.89009 0.34331 0.0
C633 C 0.11433 0.86415 0.33283 0.0
C634 C 0.03661 0.74127 0.24829 0.0
C635 C 0.04865 0.70966 0.25462 0.0
C636 C 0.03195 0.77055 0.2591 0.0
C637 C 0.03793 0.76786 0.27653 0.0
C638 C 0.05061 0.73663 0.28282 0.0
C639 C 0.05618 0.70791 0.27193 0.0
C640 C 0.03215 0.7986 0.28802 0.0
C641 C 0.06752 0.82502 0.29884 0.0
C642 C 0.99348 0.80423 0.28757 0.0
C643 C 0.95268 0.77392 0.27786 0.0
C644 C 0.93075 0.72552 0.28016 0.0
C645 C 0.89257 0.69707 0.27091 0.0
C646 C 0.87577 0.7166 0.2594 0.0
C647 C 0.89706 0.76463 0.25714 0.0
C648 C 0.93529 0.79324 0.26634 0.0
H649 H 0.84621 0.69452 0.25225 0.0
H650 H 0.20571 0.95802 0.34852 0.0
H651 H 0.12861 0.96743 0.67375 0.0
H652 H 0.18622 0.96769 0.65451 0.0
H653 H 0.19928 0.08582 0.62615 0.0
H654 H 0.14223 0.0862 0.64542 0.0
H655 H 0.19761 0.96219 0.62064 0.0
H656 H 0.31288 0.16156 0.61727 0.0
H657 H 0.32787 0.22737 0.63433 0.0
H658 H 0.28482 0.13891 0.67962 0.0
H659 H 0.27024 0.07279 0.66287 0.0
H660 H 0.37638 0.03204 0.55801 0.0
H661 H 0.3131 0.02777 0.57525 0.0
H662 H 0.39544 0.06115 0.61917 0.0
H663 H 0.45888 0.06599 0.6018 0.0
H664 H 0.34993 0.107 0.61792 0.0
H665 H 0.31491 0.95143 0.61311 0.0
H666 H 0.30311 0.884 0.59781 0.0
H667 H 0.1901 0.87988 0.57279 0.0
H668 H 0.20179 0.94789 0.58771 0.0
C669 C 0.14317 0.99297 0.66325 0.0
C670 C 0.13133 0.02716 0.66122 0.0
C671 C 0.176 0.993 0.65225 0.0
C672 C 0.19754 0.02726 0.63911 0.0
C673 C 0.18357 0.05955 0.6364 0.0
C674 C 0.15088 0.05962 0.64739 0.0
C675 C 0.23696 0.03145 0.62906 0.0
C676 C 0.23086 0.99387 0.61997 0.0
C677 C 0.28063 0.07244 0.62855 0.0
C678 C 0.29001 0.11216 0.63878 0.0
C679 C 0.30679 0.15623 0.63088 0.0
C680 C 0.3152 0.19357 0.64049 0.0
C681 C 0.30715 0.18729 0.65804 0.0
C682 C 0.29088 0.1437 0.66602 0.0
C683 C 0.2825 0.10627 0.65647 0.0
C684 C 0.38083 0.03888 0.57132 0.0
C685 C 0.42204 0.04945 0.57871 0.0
C686 C 0.34481 0.03624 0.58114 0.0
C687 C 0.34945 0.04364 0.59852 0.0
C688 C 0.39122 0.05535 0.60579 0.0
C689 C 0.42728 0.05808 0.59594 0.0
C690 C 0.31039 0.0381 0.6092 0.0
C691 C 0.31661 0.07541 0.61847 0.0
C692 C 0.26719 0.99649 0.61017 0.0
C693 C 0.25948 0.95502 0.60142 0.0
C694 C 0.28772 0.93633 0.60427 0.0
C695 C 0.28105 0.898 0.59567 0.0
C696 C 0.24593 0.87772 0.58431 0.0
C697 C 0.21732 0.89566 0.58158 0.0
C698 C 0.22395 0.9341 0.59011 0.0
H699 H 0.24082 0.84804 0.57766 0.0
H700 H 0.31363 0.21623 0.66546 0.0
H701 H 0.10127 0.19698 0.99142 0.0
H702 H 0.16344 0.25643 0.9729 0.0
H703 H 0.24883 0.20008 0.98571 0.0
H704 H 0.18723 0.14149 0.00482 0.0
H705 H 0.29818 0.28864 0.98503 0.0
H706 H 0.19454 0.1811 0.94723 0.0
H707 H 0.12006 0.13135 0.93466 0.0
H708 H 0.11153 0.25074 0.92034 0.0
H709 H 0.18568 0.30117 0.93305 0.0
H710 H 0.41087 0.39412 0.89545 0.0
H711 H 0.34774 0.33268 0.91337 0.0
H712 H 0.37258 0.43039 0.95152 0.0
H713 H 0.43693 0.49134 0.93381 0.0
H714 H 0.26951 0.31731 0.92591 0.0
H715 H 0.35322 0.3776 0.99054 0.0
H716 H 0.43081 0.42034 0.00165 0.0
H717 H 0.48466 0.38206 0.95976 0.0
H718 H 0.40733 0.33846 0.94857 0.0
C719 C 0.13326 0.19719 0.99029 0.0
C720 C 0.13927 0.16439 -0.00048 0.0
C721 C 0.16874 0.2311 0.97963 0.0
C722 C 0.21058 0.23228 0.97767 0.0
C723 C 0.21684 0.19984 0.987 0.0
C724 C 0.18158 0.16632 -0.00211 0.0
C725 C 0.24785 0.26757 0.96596 0.0
C726 C 0.29187 0.29486 0.97211 0.0
C727 C 0.24001 0.27505 0.94896 0.0
C728 C 0.19548 0.24487 0.94123 0.0
C729 C 0.17663 0.19672 0.94151 0.0
C730 C 0.13449 0.1684 0.93434 0.0
C731 C 0.11103 0.18787 0.92674 0.0
C732 C 0.12972 0.23571 0.92625 0.0
C733 C 0.17182 0.26418 0.93342 0.0
C734 C 0.40242 0.40228 0.90763 0.0
C735 C 0.42828 0.44711 0.91334 0.0
C736 C 0.36642 0.36736 0.91782 0.0
C737 C 0.35576 0.37679 0.93387 0.0
C738 C 0.38069 0.42214 0.9393 0.0
C739 C 0.41706 0.45696 0.92918 0.0
C740 C 0.3195 0.33885 0.94509 0.0
C741 C 0.27573 0.31108 0.93885 0.0
C742 C 0.328 0.32981 0.9618 0.0
C743 C 0.37452 0.35517 0.96863 0.0
C744 C 0.38158 0.37811 0.98375 0.0
C745 C 0.42552 0.4025 0.99006 0.0
C746 C 0.46266 0.40403 0.98139 0.0
C747 C 0.4559 0.38097 0.96644 0.0
C748 C 0.41202 0.35643 0.96011 0.0
H749 H 0.49665 0.423 0.98627 0.0
H750 H 0.07841 0.16589 0.9212 0.0
H751 H 0.96431 0.12379 0.32434 0.0
H752 H 0.96032 0.18176 0.30614 0.0
H753 H 0.05673 0.28964 0.33672 0.0
H754 H 0.06159 0.23193 0.35487 0.0
H755 H 0.97476 0.29395 0.32735 0.0
H756 H 0.09881 0.27865 0.30313 0.0
H757 H 0.13215 0.23436 0.29183 0.0
H758 H 0.03332 0.18474 0.25325 0.0
H759 H 0.99893 0.22821 0.2645 0.0
H760 H 0.04864 0.49484 0.27393 0.0
H761 H 0.03868 0.43228 0.29356 0.0
H762 H 0.98004 0.33573 0.25411 0.0
H763 H 0.99307 0.39917 0.23423 0.0
H764 H 0.03817 0.32188 0.26819 0.0
H765 H 0.91557 0.33817 0.29017 0.0
H766 H 0.87778 0.37863 0.30116 0.0
H767 H 0.9656 0.42101 0.34325 0.0
H768 H 0.00439 0.38136 0.33238 0.0
C769 C 0.98451 0.15983 0.32725 0.0
C770 C 0.01349 0.17344 0.34096 0.0
C771 C 0.98216 0.19281 0.31685 0.0
C772 C 0.00829 0.2398 0.32012 0.0
C773 C 0.03626 0.25343 0.33407 0.0
C774 C 0.03918 0.22052 0.34433 0.0
C775 C 0.00794 0.27492 0.30854 0.0
C776 C 0.98895 0.30055 0.31444 0.0
C777 C 0.02512 0.28212 0.29161 0.0
C778 C 0.04599 0.25626 0.28477 0.0
C779 C 0.08392 0.25796 0.29234 0.0
C780 C 0.10306 0.23307 0.28592 0.0
C781 C 0.08477 0.20664 0.27186 0.0
C782 C 0.04739 0.20516 0.26416 0.0
C783 C 0.02809 0.22993 0.27054 0.0
C784 C 0.03337 0.46011 0.26958 0.0
C785 C 0.02198 0.45157 0.25264 0.0
C786 C 0.02724 0.42429 0.2808 0.0
C787 C 0.00811 0.37902 0.2754 0.0
C788 C 0.99498 0.37031 0.25859 0.0
C789 C 0.00211 0.40635 0.24727 0.0
C790 C 0.00492 0.34155 0.28689 0.0
C791 C 0.02344 0.31533 0.28101 0.0
C792 C 0.98651 0.33332 0.30376 0.0
C793 C 0.96314 0.35709 0.31038 0.0
C794 C 0.92705 0.35639 0.3017 0.0
C795 C 0.90542 0.37914 0.30792 0.0
C796 C 0.91935 0.40246 0.32287 0.0
C797 C 0.95487 0.40297 0.33166 0.0
C798 C 0.97666 0.38031 0.32549 0.0
H799 H 0.90256 0.42006 0.32766 0.0
H800 H 0.09964 0.18741 0.26691 0.0
loop_
_geom_bond_atom_site_label_1
_geom_bond_atom_site_label_2
_geom_bond_distance
_geom_bond_site_symmetry_2
_ccdc_geom_bond_type
C0 O1 1.306 . S
C0 O3 1.160 . S
O1 C0 1.306 . S
O1 Cd2 2.228 . S
Cd2 O1 2.228 . S
Cd2 O6 2.278 1_455 S
Cd2 O10 2.277 . S
O3 C0 1.160 . S
O3 Cd4 2.203 . S
Cd4 O3 2.203 . S
Cd4 O6 2.397 1_455 S
Cd4 O7 2.333 1_545 S
Cd4 O8 2.352 1_545 S
Cd4 O12 2.277 . S
Cd4 O13 2.356 1_545 S
C5 O10 1.209 . S
C5 O12 1.226 . S
O6 Cd2 2.278 1_655 S
O6 Cd4 2.397 1_655 S
O6 C9 1.312 1_645 S
O7 Cd4 2.333 1_565 S
O7 C9 1.214 . S
O8 Cd4 2.352 1_565 S
O8 C11 1.258 . S
C9 O6 1.312 1_465 S
C9 O7 1.214 . S
O10 Cd2 2.277 . S
O10 C5 1.209 . S
C11 O8 1.258 . S
C11 O13 1.282 . S
O12 Cd4 2.277 . S
O12 C5 1.226 . S
O13 Cd4 2.356 1_565 S
O13 C11 1.282 . S
C14 O15 1.306 . S
C14 O17 1.160 . S
O15 C14 1.306 . S
O15 Cd16 2.228 . S
Cd16 O15 2.228 . S
Cd16 O20 2.273 . S
Cd16 O24 2.277 . S
O17 C14 1.160 . S
O17 Cd18 2.203 . S
Cd18 O17 2.203 . S
Cd18 O20 2.411 . S
Cd18 O21 2.333 1_455 S
Cd18 O22 2.352 1_455 S
Cd18 O26 2.277 1_445 S
Cd18 O27 2.356 1_455 S
C19 O24 1.199 1_565 S
C19 O26 1.223 1_455 S
O20 Cd16 2.273 . S
O20 Cd18 2.411 . S
O20 C23 1.320 . S
O21 Cd18 2.333 1_655 S
O21 C23 1.214 1_655 S
O22 Cd18 2.352 1_655 S
O22 C25 1.258 . S
C23 O20 1.320 . S
C23 O21 1.214 1_455 S
O24 Cd16 2.277 . S
O24 C19 1.199 1_545 S
C25 O22 1.258 . S
C25 O27 1.282 . S
O26 Cd18 2.277 1_665 S
O26 C19 1.223 1_655 S
O27 Cd18 2.356 1_655 S
O27 C25 1.282 . S
C28 O29 1.306 . S
C28 O31 1.160 1_655 S
O29 C28 1.306 . S
O29 Cd30 2.228 1_655 S
Cd30 O29 2.228 1_455 S
Cd30 O34 2.273 . S
Cd30 O38 2.277 1_455 S
O31 C28 1.160 1_455 S
O31 Cd32 2.203 . S
Cd32 O31 2.203 . S
Cd32 O34 2.411 . S
Cd32 O35 2.333 . S
Cd32 O36 2.352 . S
Cd32 O40 2.277 1_545 S
Cd32 O41 2.356 . S
C33 O38 1.209 1_565 S
C33 O40 1.226 1_655 S
O34 Cd30 2.273 . S
O34 Cd32 2.411 . S
O34 C37 1.320 . S
O35 Cd32 2.333 . S
O35 C37 1.214 . S
O36 Cd32 2.352 . S
O36 C39 1.258 . S
C37 O34 1.320 . S
C37 O35 1.214 . S
O38 Cd30 2.277 1_655 S
O38 C33 1.209 1_545 S
C39 O36 1.258 . S
C39 O41 1.282 . S
O40 Cd32 2.277 1_565 S
O40 C33 1.226 1_455 S
O41 Cd32 2.356 . S
O41 C39 1.282 . S
C42 C43 1.443 . S
C42 N46 1.376 . S
C42 C80 1.389 . S
C43 C42 1.443 . S
C43 C44 1.340 . S
C43 H83 0.951 . S
C44 C43 1.340 . S
C44 C45 1.439 . S
C44 H84 0.950 . S
C45 C44 1.439 . S
C45 N46 1.374 . S
C45 C79 1.395 . S
N46 C42 1.376 . S
N46 C45 1.374 . S
N46 Co47 2.008 . S
Co47 N46 2.008 . S
Co47 N48 1.995 . S
Co47 N53 2.008 1_455 S
Co47 N58 1.995 . S
Co47 N63 2.282 . S
Co47 N69 2.282 . S
N48 Co47 1.995 . S
N48 C49 1.376 . S
N48 C52 1.383 . S
C49 N48 1.376 . S
C49 C50 1.446 . S
C49 C79 1.391 . S
C50 C49 1.446 . S
C50 C51 1.339 . S
C50 H85 0.949 . S
C51 C50 1.339 . S
C51 C52 1.439 . S
C51 H86 0.950 . S
C52 N48 1.383 . S
C52 C51 1.439 . S
C52 C81 1.392 . S
N53 Co47 2.008 1_655 S
N53 C54 1.376 1_655 S
N53 C57 1.374 . S
C54 N53 1.376 1_455 S
C54 C55 1.443 1_455 S
C54 C81 1.389 . S
C55 C54 1.443 1_655 S
C55 C56 1.340 . S
C55 H87 0.951 . S
C56 C55 1.340 . S
C56 C57 1.439 . S
C56 H88 0.950 . S
C57 N53 1.374 . S
C57 C56 1.439 . S
C57 C82 1.395 . S
N58 Co47 1.995 . S
N58 C59 1.376 1_455 S
N58 C62 1.383 . S
C59 N58 1.376 1_655 S
C59 C60 1.446 . S
C59 C82 1.391 . S
C60 C59 1.446 . S
C60 C61 1.339 . S
C60 H89 0.949 . S
C61 C60 1.339 . S
C61 C62 1.439 1_655 S
C61 H90 0.950 . S
C62 N58 1.383 . S
C62 C61 1.439 1_455 S
C62 C80 1.392 . S
N63 Co47 2.282 . S
N63 C66 1.332 . S
N63 C68 1.332 . S
C64 C65 1.386 . S
C64 C67 1.388 . S
C65 C64 1.386 . S
C65 C66 1.382 . S
C65 H91 0.950 1_455 S
C66 N63 1.332 . S
C66 C65 1.382 . S
C66 H77 0.952 1_455 S
C67 C64 1.388 . S
C67 C68 1.382 . S
C67 H92 0.950 . S
C68 N63 1.332 . S
C68 C67 1.382 . S
C68 H78 0.948 . S
N69 Co47 2.282 . S
N69 C73 1.332 . S
N69 C74 1.332 . S
C70 C71 1.388 . S
C70 C74 1.382 . S
C70 H93 0.950 1_455 S
C71 C70 1.388 . S
C71 C72 1.386 . S
C72 C71 1.386 . S
C72 C73 1.382 . S
C72 H94 0.950 . S
C73 N69 1.332 . S
C73 C72 1.382 . S
C73 H75 0.952 . S
C74 N69 1.332 . S
C74 C70 1.382 . S
C74 H76 0.948 1_455 S
H75 C73 0.952 . S
H76 C74 0.948 1_655 S
H77 C66 0.952 1_655 S
H78 C68 0.948 . S
C79 C45 1.395 . S
C79 C49 1.391 . S
C80 C42 1.389 . S
C80 C62 1.392 . S
C81 C52 1.392 . S
C81 C54 1.389 . S
C82 C57 1.395 . S
C82 C59 1.391 . S
H83 C43 0.951 . S
H84 C44 0.950 . S
H85 C50 0.949 . S
H86 C51 0.950 . S
H87 C55 0.951 . S
H88 C56 0.950 . S
H89 C60 0.949 . S
H90 C61 0.950 . S
H91 C65 0.950 1_655 S
H92 C67 0.950 . S
H93 C70 0.950 1_655 S
H94 C72 0.950 . S
C95 C96 1.443 1_545 S
C95 N99 1.376 . S
C95 C133 1.389 . S
C96 C95 1.443 1_565 S
C96 C97 1.340 . S
C96 H136 0.951 . S
C97 C96 1.340 . S
C97 C98 1.439 . S
C97 H137 0.950 . S
C98 C97 1.439 . S
C98 N99 1.374 1_565 S
C98 C132 1.395 . S
N99 C95 1.376 . S
N99 C98 1.374 1_545 S
N99 Co100 2.008 . S
Co100 N99 2.008 . S
Co100 N101 1.995 . S
Co100 N106 2.008 . S
Co100 N111 1.995 . S
Co100 N116 2.282 . S
Co100 N122 2.282 . S
N101 Co100 1.995 . S
N101 C102 1.376 1_545 S
N101 C105 1.383 . S
C102 N101 1.376 1_565 S
C102 C103 1.446 . S
C102 C132 1.391 . S
C103 C102 1.446 . S
C103 C104 1.339 . S
C103 H138 0.949 . S
C104 C103 1.339 . S
C104 C105 1.439 1_565 S
C104 H139 0.950 . S
C105 N101 1.383 . S
C105 C104 1.439 1_545 S
C105 C134 1.392 . S
N106 Co100 2.008 . S
N106 C107 1.376 . S
N106 C110 1.374 . S
C107 N106 1.376 . S
C107 C108 1.443 . S
C107 C134 1.389 . S
C108 C107 1.443 . S
C108 C109 1.340 . S
C108 H140 0.951 . S
C109 C108 1.340 . S
C109 C110 1.439 . S
C109 H141 0.950 . S
C110 N106 1.374 . S
C110 C109 1.439 . S
C110 C135 1.395 . S
N111 Co100 1.995 . S
N111 C112 1.376 . S
N111 C115 1.383 . S
C112 N111 1.376 . S
C112 C113 1.446 . S
C112 C135 1.391 . S
C113 C112 1.446 . S
C113 C114 1.339 . S
C113 H142 0.949 . S
C114 C113 1.339 . S
C114 C115 1.439 . S
C114 H143 0.950 . S
C115 N111 1.383 . S
C115 C114 1.439 . S
C115 C133 1.392 . S
N116 Co100 2.282 . S
N116 C119 1.332 . S
N116 C121 1.332 . S
C117 C118 1.386 . S
C117 C120 1.388 . S
C118 C117 1.386 . S
C118 C119 1.382 . S
C118 H144 0.950 . S
C119 N116 1.332 . S
C119 C118 1.382 . S
C119 H130 0.952 . S
C120 C117 1.388 . S
C120 C121 1.382 . S
C120 H145 0.950 1_545 S
C121 N116 1.332 . S
C121 C120 1.382 . S
C121 H131 0.948 1_545 S
N122 Co100 2.282 . S
N122 C126 1.332 . S
N122 C127 1.332 . S
C123 C124 1.388 . S
C123 C127 1.382 . S
C123 H146 0.950 . S
C124 C123 1.388 . S
C124 C125 1.386 . S
C125 C124 1.386 . S
C125 C126 1.382 . S
C125 H147 0.945 1_545 S
C126 N122 1.332 . S
C126 C125 1.382 . S
C126 H128 0.952 . S
C127 N122 1.332 . S
C127 C123 1.382 . S
C127 H129 0.948 . S
H128 C126 0.952 . S
H129 C127 0.948 . S
H130 C119 0.952 . S
H131 C121 0.948 1_565 S
C132 C98 1.395 . S
C132 C102 1.391 . S
C133 C95 1.389 . S
C133 C115 1.392 . S
C134 C105 1.392 . S
C134 C107 1.389 . S
C135 C110 1.395 . S
C135 C112 1.391 . S
H136 C96 0.951 . S
H137 C97 0.950 . S
H138 C103 0.949 . S
H139 C104 0.950 . S
H140 C108 0.951 . S
H141 C109 0.950 . S
H142 C113 0.949 . S
H143 C114 0.950 . S
H144 C118 0.950 . S
H145 C120 0.950 1_565 S
H146 C123 0.950 . S
H147 C125 0.945 1_565 S
C148 C149 1.443 . S
C148 N152 1.376 . S
C148 C186 1.389 . S
C149 C148 1.443 . S
C149 C150 1.340 . S
C149 H189 0.951 . S
C150 C149 1.340 . S
C150 C151 1.439 . S
C150 H190 0.950 . S
C151 C150 1.439 . S
C151 N152 1.374 . S
C151 C185 1.395 . S
N152 C148 1.376 . S
N152 C151 1.374 . S
N152 Co153 2.008 . S
Co153 N152 2.008 . S
Co153 N154 1.995 . S
Co153 N159 2.008 . S
Co153 N164 1.995 . S
Co153 N169 2.282 . S
Co153 N175 2.282 . S
N154 Co153 1.995 . S
N154 C155 1.376 . S
N154 C158 1.383 . S
C155 N154 1.376 . S
C155 C156 1.446 . S
C155 C185 1.391 . S
C156 C155 1.446 . S
C156 C157 1.339 . S
C156 H191 0.949 . S
C157 C156 1.339 . S
C157 C158 1.439 . S
C157 H192 0.950 . S
C158 N154 1.383 . S
C158 C157 1.439 . S
C158 C187 1.392 . S
N159 Co153 2.008 . S
N159 C160 1.376 . S
N159 C163 1.374 . S
C160 N159 1.376 . S
C160 C161 1.443 . S
C160 C187 1.389 . S
C161 C160 1.443 . S
C161 C162 1.340 . S
C161 H193 0.951 . S
C162 C161 1.340 . S
C162 C163 1.439 . S
C162 H194 0.950 . S
C163 N159 1.374 . S
C163 C162 1.439 . S
C163 C188 1.395 . S
N164 Co153 1.995 . S
N164 C165 1.376 . S
N164 C168 1.383 . S
C165 N164 1.376 . S
C165 C166 1.446 . S
C165 C188 1.391 . S
C166 C165 1.446 . S
C166 C167 1.339 . S
C166 H195 0.949 . S
C167 C166 1.339 . S
C167 C168 1.439 . S
C167 H196 0.950 . S
C168 N164 1.383 . S
C168 C167 1.439 . S
C168 C186 1.392 . S
N169 Co153 2.282 . S
N169 C172 1.332 . S
N169 C174 1.332 . S
C170 C171 1.386 . S
C170 C173 1.388 . S
C171 C170 1.386 . S
C171 C172 1.382 . S
C171 H197 0.950 . S
C172 N169 1.332 . S
C172 C171 1.382 . S
C172 H183 0.952 . S
C173 C170 1.388 . S
C173 C174 1.382 . S
C173 H198 0.950 . S
C174 N169 1.332 . S
C174 C173 1.382 . S
C174 H184 0.948 . S
N175 Co153 2.282 . S
N175 C179 1.332 . S
N175 C180 1.332 . S
C176 C177 1.388 . S
C176 C180 1.382 . S
C176 H199 0.950 . S
C177 C176 1.388 . S
C177 C178 1.386 . S
C178 C177 1.386 . S
C178 C179 1.382 . S
C178 H200 0.950 . S
C179 N175 1.332 . S
C179 C178 1.382 . S
C179 H181 0.952 . S
C180 N175 1.332 . S
C180 C176 1.382 . S
C180 H182 0.948 . S
H181 C179 0.952 . S
H182 C180 0.948 . S
H183 C172 0.952 . S
H184 C174 0.948 . S
C185 C151 1.395 . S
C185 C155 1.391 . S
C186 C148 1.389 . S
C186 C168 1.392 . S
C187 C158 1.392 . S
C187 C160 1.389 . S
C188 C163 1.395 . S
C188 C165 1.391 . S
H189 C149 0.951 . S
H190 C150 0.950 . S
H191 C156 0.949 . S
H192 C157 0.950 . S
H193 C161 0.951 . S
H194 C162 0.950 . S
H195 C166 0.949 . S
H196 C167 0.950 . S
H197 C171 0.950 . S
H198 C173 0.950 . S
H199 C176 0.950 . S
H200 C178 0.950 . S
H201 C219 0.951 1_655 S
H202 C221 0.951 1_655 S
H203 C223 0.950 . S
H204 C224 0.950 . S
H205 C226 0.950 . S
H206 C229 0.950 1_455 S
H207 C230 0.950 . S
H208 C232 0.950 . S
H209 C233 0.950 . S
H210 C234 0.951 . S
H211 C236 0.951 . S
H212 C238 0.950 1_655 S
H213 C239 0.950 1_655 S
H214 C241 0.950 1_655 S
H215 C244 0.950 . S
H216 C245 0.950 . S
H217 C247 0.950 . S
H218 C248 0.950 . S
C219 H201 0.951 1_455 S
C219 C220 1.366 . S
C219 C221 1.388 . S
C220 C219 1.366 . S
C220 C224 1.385 . S
C221 H202 0.951 1_455 S
C221 C219 1.388 . S
C221 C222 1.366 . S
C222 C221 1.366 . S
C222 C223 1.414 . S
C222 C225 1.499 . S
C223 H203 0.950 . S
C223 C222 1.414 . S
C223 C224 1.374 . S
C224 H204 0.950 . S
C224 C220 1.385 . S
C224 C223 1.374 . S
C225 C222 1.499 . S
C225 C226 1.373 . S
C225 C227 1.389 . S
C226 H205 0.950 . S
C226 C225 1.373 . S
C226 C242 1.377 . S
C227 C225 1.389 . S
C227 C228 1.524 1_455 S
C227 C241 1.377 . S
C228 C227 1.524 1_655 S
C228 C229 1.397 . S
C228 C233 1.363 . S
C229 H206 0.950 1_655 S
C229 C228 1.397 . S
C229 C230 1.334 . S
C230 H207 0.950 . S
C230 C229 1.334 . S
C230 C231 1.287 . S
C231 C230 1.287 . S
C231 C232 1.524 . S
C231 H250 0.913 . S
C232 H208 0.950 . S
C232 C231 1.524 . S
C232 C233 1.415 . S
C233 H209 0.950 . S
C233 C228 1.363 . S
C233 C232 1.415 . S
C234 H210 0.951 . S
C234 C235 1.366 . S
C234 C236 1.388 . S
C235 C234 1.366 . S
C235 C239 1.385 . S
C236 H211 0.951 . S
C236 C234 1.388 . S
C236 C237 1.366 . S
C237 C236 1.366 . S
C237 C238 1.414 . S
C237 C240 1.499 . S
C238 H212 0.950 1_455 S
C238 C237 1.414 . S
C238 C239 1.374 . S
C239 H213 0.950 1_455 S
C239 C235 1.385 . S
C239 C238 1.374 . S
C240 C237 1.499 . S
C240 C241 1.373 . S
C240 C242 1.389 . S
C241 H214 0.950 1_455 S
C241 C227 1.377 . S
C241 C240 1.373 . S
C242 C226 1.377 . S
C242 C240 1.389 . S
C242 C243 1.524 . S
C243 C242 1.524 . S
C243 C244 1.397 . S
C243 C248 1.363 . S
C244 H215 0.950 . S
C244 C243 1.397 . S
C244 C245 1.334 . S
C245 H216 0.950 . S
C245 C244 1.334 . S
C245 C246 1.287 . S
C246 C245 1.287 . S
C246 C247 1.524 . S
C246 H249 0.999 . S
C247 H217 0.950 . S
C247 C246 1.524 . S
C247 C248 1.415 . S
C248 H218 0.950 . S
C248 C243 1.363 . S
C248 C247 1.415 . S
H249 C246 0.999 . S
H250 C231 0.913 . S
H251 C269 0.951 . S
H252 C271 0.951 . S
H253 C273 0.950 . S
H254 C274 0.950 . S
H255 C276 0.950 . S
H256 C279 0.950 . S
H257 C280 0.950 . S
H258 C282 0.950 . S
H259 C283 0.950 1_545 S
H260 C284 0.951 . S
H261 C286 0.951 . S
H262 C288 0.950 . S
H263 C289 0.950 . S
H264 C291 0.950 . S
H265 C294 0.950 . S
H266 C295 0.950 . S
H267 C297 0.950 . S
H268 C298 0.950 . S
C269 H251 0.951 . S
C269 C270 1.366 . S
C269 C271 1.388 . S
C270 C269 1.366 . S
C270 C274 1.385 . S
C271 H252 0.951 . S
C271 C269 1.388 . S
C271 C272 1.366 . S
C272 C271 1.366 . S
C272 C273 1.414 . S
C272 C275 1.499 . S
C273 H253 0.950 . S
C273 C272 1.414 . S
C273 C274 1.374 . S
C274 H254 0.950 . S
C274 C270 1.385 . S
C274 C273 1.374 . S
C275 C272 1.499 . S
C275 C276 1.373 . S
C275 C277 1.389 . S
C276 H255 0.950 . S
C276 C275 1.373 . S
C276 C292 1.377 . S
C277 C275 1.389 . S
C277 C278 1.524 1_545 S
C277 C291 1.377 . S
C278 C277 1.524 1_565 S
C278 C279 1.397 . S
C278 C283 1.363 . S
C279 H256 0.950 . S
C279 C278 1.397 . S
C279 C280 1.334 . S
C280 H257 0.950 . S
C280 C279 1.334 . S
C280 C281 1.287 . S
C281 C280 1.287 . S
C281 C282 1.524 . S
C281 H300 0.913 . S
C282 H258 0.950 . S
C282 C281 1.524 . S
C282 C283 1.415 . S
C283 H259 0.950 1_565 S
C283 C278 1.363 . S
C283 C282 1.415 . S
C284 H260 0.951 . S
C284 C285 1.366 . S
C284 C286 1.388 . S
C285 C284 1.366 . S
C285 C289 1.385 . S
C286 H261 0.951 . S
C286 C284 1.388 . S
C286 C287 1.366 . S
C287 C286 1.366 . S
C287 C288 1.414 . S
C287 C290 1.499 . S
C288 H262 0.950 . S
C288 C287 1.414 . S
C288 C289 1.374 . S
C289 H263 0.950 . S
C289 C285 1.385 . S
C289 C288 1.374 . S
C290 C287 1.499 . S
C290 C291 1.373 . S
C290 C292 1.389 . S
C291 H264 0.950 . S
C291 C277 1.377 . S
C291 C290 1.373 . S
C292 C276 1.377 . S
C292 C290 1.389 . S
C292 C293 1.524 . S
C293 C292 1.524 . S
C293 C294 1.397 . S
C293 C298 1.363 . S
C294 H265 0.950 . S
C294 C293 1.397 . S
C294 C295 1.334 . S
C295 H266 0.950 . S
C295 C294 1.334 . S
C295 C296 1.287 . S
C296 C295 1.287 . S
C296 C297 1.524 . S
C296 H299 0.999 . S
C297 H267 0.950 . S
C297 C296 1.524 . S
C297 C298 1.415 . S
C298 H268 0.950 . S
C298 C293 1.363 . S
C298 C297 1.415 . S
H299 C296 0.999 . S
H300 C281 0.913 . S
H301 C319 0.951 . S
H302 C321 0.951 . S
H303 C323 0.950 . S
H304 C324 0.950 . S
H305 C326 0.950 . S
H306 C329 0.950 . S
H307 C330 0.950 . S
H308 C332 0.950 . S
H309 C333 0.950 . S
H310 C334 0.951 . S
H311 C336 0.951 . S
H312 C338 0.950 . S
H313 C339 0.950 . S
H314 C341 0.950 . S
H315 C344 0.950 . S
H316 C345 0.950 . S
H317 C347 0.950 . S
H318 C348 0.950 . S
C319 H301 0.951 . S
C319 C320 1.366 . S
C319 C321 1.388 . S
C320 C319 1.366 . S
C320 C324 1.385 . S
C321 H302 0.951 . S
C321 C319 1.388 . S
C321 C322 1.366 . S
C322 C321 1.366 . S
C322 C323 1.414 . S
C322 C325 1.499 . S
C323 H303 0.950 . S
C323 C322 1.414 . S
C323 C324 1.374 . S
C324 H304 0.950 . S
C324 C320 1.385 . S
C324 C323 1.374 . S
C325 C322 1.499 . S
C325 C326 1.373 . S
C325 C327 1.389 . S
C326 H305 0.950 . S
C326 C325 1.373 . S
C326 C342 1.377 . S
C327 C325 1.389 . S
C327 C328 1.524 . S
C327 C341 1.377 . S
C328 C327 1.524 . S
C328 C329 1.397 . S
C328 C333 1.363 . S
C329 H306 0.950 . S
C329 C328 1.397 . S
C329 C330 1.334 . S
C330 H307 0.950 . S
C330 C329 1.334 . S
C330 C331 1.287 . S
C331 C330 1.287 . S
C331 C332 1.524 . S
C331 H350 0.913 1_655 S
C332 H308 0.950 . S
C332 C331 1.524 . S
C332 C333 1.415 . S
C333 H309 0.950 . S
C333 C328 1.363 . S
C333 C332 1.415 . S
C334 H310 0.951 . S
C334 C335 1.366 . S
C334 C336 1.388 . S
C335 C334 1.366 . S
C335 C339 1.385 . S
C336 H311 0.951 . S
C336 C334 1.388 . S
C336 C337 1.366 . S
C337 C336 1.366 . S
C337 C338 1.414 . S
C337 C340 1.499 . S
C338 H312 0.950 . S
C338 C337 1.414 . S
C338 C339 1.374 . S
C339 H313 0.950 . S
C339 C335 1.385 . S
C339 C338 1.374 . S
C340 C337 1.499 . S
C340 C341 1.373 . S
C340 C342 1.389 . S
C341 H314 0.950 . S
C341 C327 1.377 . S
C341 C340 1.373 . S
C342 C326 1.377 . S
C342 C340 1.389 . S
C342 C343 1.524 . S
C343 C342 1.524 . S
C343 C344 1.397 . S
C343 C348 1.363 . S
C344 H315 0.950 . S
C344 C343 1.397 . S
C344 C345 1.334 . S
C345 H316 0.950 . S
C345 C344 1.334 . S
C345 C346 1.287 . S
C346 C345 1.287 . S
C346 C347 1.524 . S
C346 H349 0.999 . S
C347 H317 0.950 . S
C347 C346 1.524 . S
C347 C348 1.415 . S
C348 H318 0.950 . S
C348 C343 1.363 . S
C348 C347 1.415 . S
H349 C346 0.999 . S
H350 C331 0.913 1_455 S
H351 C369 0.951 . S
H352 C371 0.951 . S
H353 C373 0.950 . S
H354 C374 0.950 . S
H355 C376 0.950 . S
H356 C379 0.950 . S
H357 C380 0.957 . S
H358 C382 0.950 . S
H359 C383 0.950 . S
H360 C384 0.951 . S
H361 C386 0.951 . S
H362 C388 0.964 . S
H363 C389 0.950 1_655 S
H364 C391 0.950 . S
H365 C394 0.950 1_655 S
H366 C395 0.950 1_655 S
H367 C397 0.950 . S
H368 C398 0.950 . S
C369 H351 0.951 . S
C369 C370 1.366 . S
C369 C371 1.388 . S
C370 C369 1.366 . S
C370 C374 1.385 . S
C371 H352 0.951 . S
C371 C369 1.388 . S
C371 C372 1.366 . S
C372 C371 1.366 . S
C372 C373 1.414 . S
C372 C375 1.499 . S
C373 H353 0.950 . S
C373 C372 1.414 . S
C373 C374 1.374 . S
C374 H354 0.950 . S
C374 C370 1.385 . S
C374 C373 1.374 . S
C375 C372 1.499 . S
C375 C376 1.373 . S
C375 C377 1.389 . S
C376 H355 0.950 . S
C376 C375 1.373 . S
C376 C392 1.377 . S
C377 C375 1.389 . S
C377 C378 1.524 . S
C377 C391 1.377 . S
C378 C377 1.524 . S
C378 C379 1.397 . S
C378 C383 1.363 . S
C379 H356 0.950 . S
C379 C378 1.397 . S
C379 C380 1.334 . S
C380 H357 0.957 . S
C380 C379 1.334 . S
C380 C381 1.287 . S
C381 C380 1.287 . S
C381 C382 1.524 . S
C381 H400 0.913 . S
C382 H358 0.950 . S
C382 C381 1.524 . S
C382 C383 1.415 . S
C383 H359 0.950 . S
C383 C378 1.363 . S
C383 C382 1.415 . S
C384 H360 0.951 . S
C384 C385 1.366 . S
C384 C386 1.388 . S
C385 C384 1.366 . S
C385 C389 1.385 . S
C386 H361 0.951 . S
C386 C384 1.388 . S
C386 C387 1.366 . S
C387 C386 1.366 . S
C387 C388 1.414 . S
C387 C390 1.499 . S
C388 H362 0.964 . S
C388 C387 1.414 . S
C388 C389 1.374 . S
C389 H363 0.950 1_455 S
C389 C385 1.385 . S
C389 C388 1.374 . S
C390 C387 1.499 . S
C390 C391 1.373 . S
C390 C392 1.389 . S
C391 H364 0.950 . S
C391 C377 1.377 . S
C391 C390 1.373 . S
C392 C376 1.377 . S
C392 C390 1.389 . S
C392 C393 1.524 . S
C393 C392 1.524 . S
C393 C394 1.397 . S
C393 C398 1.363 . S
C394 H365 0.950 1_455 S
C394 C393 1.397 . S
C394 C395 1.334 . S
C395 H366 0.950 1_455 S
C395 C394 1.334 . S
C395 C396 1.287 . S
C396 C395 1.287 . S
C396 C397 1.524 . S
C396 H399 0.999 . S
C397 H367 0.950 . S
C397 C396 1.524 . S
C397 C398 1.415 . S
C398 H368 0.950 . S
C398 C393 1.363 . S
C398 C397 1.415 . S
H399 C396 0.999 . S
H400 C381 0.913 . S
H401 C419 0.951 . S
H402 C421 0.951 . S
H403 C423 0.950 . S
H404 C424 0.950 . S
H405 C426 0.950 1_565 S
H406 C429 0.950 . S
H407 C430 0.950 . S
H408 C432 0.950 . S
H409 C433 0.950 . S
H410 C434 0.951 . S
H411 C436 0.951 . S
H412 C438 0.950 . S
H413 C439 0.950 . S
H414 C441 0.950 . S
H415 C444 0.950 1_545 S
H416 C445 0.950 . S
H417 C447 0.950 . S
H418 C448 0.950 . S
C419 H401 0.951 . S
C419 C420 1.366 . S
C419 C421 1.388 . S
C420 C419 1.366 . S
C420 C424 1.385 . S
C421 H402 0.951 . S
C421 C419 1.388 . S
C421 C422 1.366 . S
C422 C421 1.366 . S
C422 C423 1.414 . S
C422 C425 1.499 . S
C423 H403 0.950 . S
C423 C422 1.414 . S
C423 C424 1.374 . S
C424 H404 0.950 . S
C424 C420 1.385 . S
C424 C423 1.374 . S
C425 C422 1.499 . S
C425 C426 1.373 . S
C425 C427 1.389 . S
C426 H405 0.950 1_545 S
C426 C425 1.373 . S
C426 C442 1.377 . S
C427 C425 1.389 . S
C427 C428 1.524 . S
C427 C441 1.377 . S
C428 C427 1.524 . S
C428 C429 1.397 . S
C428 C433 1.363 . S
C429 H406 0.950 . S
C429 C428 1.397 . S
C429 C430 1.334 . S
C430 H407 0.950 . S
C430 C429 1.334 . S
C430 C431 1.287 . S
C431 C430 1.287 . S
C431 C432 1.524 . S
C431 H450 0.913 . S
C432 H408 0.950 . S
C432 C431 1.524 . S
C432 C433 1.415 . S
C433 H409 0.950 . S
C433 C428 1.363 . S
C433 C432 1.415 . S
C434 H410 0.951 . S
C434 C435 1.366 . S
C434 C436 1.388 . S
C435 C434 1.366 . S
C435 C439 1.385 . S
C436 H411 0.951 . S
C436 C434 1.388 . S
C436 C437 1.366 . S
C437 C436 1.366 . S
C437 C438 1.414 . S
C437 C440 1.499 . S
C438 H412 0.950 . S
C438 C437 1.414 . S
C438 C439 1.374 . S
C439 H413 0.950 . S
C439 C435 1.385 . S
C439 C438 1.374 . S
C440 C437 1.499 . S
C440 C441 1.373 . S
C440 C442 1.389 . S
C441 H414 0.950 . S
C441 C427 1.377 . S
C441 C440 1.373 . S
C442 C426 1.377 . S
C442 C440 1.389 . S
C442 C443 1.524 1_545 S
C443 C442 1.524 1_565 S
C443 C444 1.397 . S
C443 C448 1.363 . S
C444 H415 0.950 1_565 S
C444 C443 1.397 . S
C444 C445 1.334 . S
C445 H416 0.950 . S
C445 C444 1.334 . S
C445 C446 1.287 . S
C446 C445 1.287 . S
C446 C447 1.524 . S
C446 H449 0.999 . S
C447 H417 0.950 . S
C447 C446 1.524 . S
C447 C448 1.415 . S
C448 H418 0.950 . S
C448 C443 1.363 . S
C448 C447 1.415 . S
H449 C446 0.999 . S
H450 C431 0.913 . S
H451 C469 0.951 . S
H452 C471 0.951 . S
H453 C473 0.950 . S
H454 C474 0.950 . S
H455 C476 0.950 . S
H456 C479 0.950 . S
H457 C480 0.950 . S
H458 C482 0.950 . S
H459 C483 0.950 . S
H460 C484 0.951 . S
H461 C486 0.951 . S
H462 C488 0.950 . S
H463 C489 0.950 . S
H464 C491 0.950 . S
H465 C494 0.950 . S
H466 C495 0.950 . S
H467 C497 0.950 . S
H468 C498 0.950 . S
C469 H451 0.951 . S
C469 C470 1.366 . S
C469 C471 1.388 . S
C470 C469 1.366 . S
C470 C474 1.385 . S
C471 H452 0.951 . S
C471 C469 1.388 . S
C471 C472 1.366 . S
C472 C471 1.366 . S
C472 C473 1.414 . S
C472 C475 1.499 . S
C473 H453 0.950 . S
C473 C472 1.414 . S
C473 C474 1.374 . S
C474 H454 0.950 . S
C474 C470 1.385 . S
C474 C473 1.374 . S
C475 C472 1.499 . S
C475 C476 1.373 . S
C475 C477 1.389 . S
C476 H455 0.950 . S
C476 C475 1.373 . S
C476 C492 1.377 . S
C477 C475 1.389 . S
C477 C478 1.524 . S
C477 C491 1.377 . S
C478 C477 1.524 . S
C478 C479 1.397 . S
C478 C483 1.363 . S
C479 H456 0.950 . S
C479 C478 1.397 . S
C479 C480 1.334 . S
C480 H457 0.950 . S
C480 C479 1.334 . S
C480 C481 1.287 . S
C481 C480 1.287 . S
C481 C482 1.524 . S
C481 H500 0.913 . S
C482 H458 0.950 . S
C482 C481 1.524 . S
C482 C483 1.415 . S
C483 H459 0.950 . S
C483 C478 1.363 . S
C483 C482 1.415 . S
C484 H460 0.951 . S
C484 C485 1.366 . S
C484 C486 1.388 . S
C485 C484 1.366 . S
C485 C489 1.385 . S
C486 H461 0.951 . S
C486 C484 1.388 . S
C486 C487 1.366 . S
C487 C486 1.366 . S
C487 C488 1.414 . S
C487 C490 1.499 . S
C488 H462 0.950 . S
C488 C487 1.414 . S
C488 C489 1.374 . S
C489 H463 0.950 . S
C489 C485 1.385 . S
C489 C488 1.374 . S
C490 C487 1.499 . S
C490 C491 1.373 . S
C490 C492 1.389 . S
C491 H464 0.950 . S
C491 C477 1.377 . S
C491 C490 1.373 . S
C492 C476 1.377 . S
C492 C490 1.389 . S
C492 C493 1.524 . S
C493 C492 1.524 . S
C493 C494 1.397 . S
C493 C498 1.363 . S
C494 H465 0.950 . S
C494 C493 1.397 . S
C494 C495 1.334 . S
C495 H466 0.950 . S
C495 C494 1.334 . S
C495 C496 1.287 . S
C496 C495 1.287 . S
C496 C497 1.524 . S
C496 H499 0.999 . S
C497 H467 0.950 . S
C497 C496 1.524 . S
C497 C498 1.415 . S
C498 H468 0.950 . S
C498 C493 1.363 . S
C498 C497 1.415 . S
H499 C496 0.999 . S
H500 C481 0.913 . S
H501 C519 0.951 . S
H502 C521 0.951 . S
H503 C523 0.950 . S
H504 C524 0.950 . S
H505 C526 0.950 . S
H506 C529 0.950 . S
H507 C530 0.950 1_455 S
H508 C532 0.950 1_455 S
H509 C533 0.950 . S
H510 C534 0.951 . S
H511 C536 0.951 . S
H512 C538 0.950 . S
H513 C539 0.950 . S
H514 C541 0.950 . S
H515 C544 0.950 . S
H516 C545 0.950 . S
H517 C547 0.950 . S
H518 C548 0.950 1_545 S
C519 H501 0.951 . S
C519 C520 1.366 . S
C519 C521 1.388 . S
C520 C519 1.366 . S
C520 C524 1.385 . S
C521 H502 0.951 . S
C521 C519 1.388 . S
C521 C522 1.366 . S
C522 C521 1.366 . S
C522 C523 1.414 . S
C522 C525 1.499 . S
C523 H503 0.950 . S
C523 C522 1.414 . S
C523 C524 1.374 . S
C524 H504 0.950 . S
C524 C520 1.385 . S
C524 C523 1.374 . S
C525 C522 1.499 . S
C525 C526 1.373 . S
C525 C527 1.389 . S
C526 H505 0.950 . S
C526 C525 1.373 . S
C526 C542 1.377 . S
C527 C525 1.389 . S
C527 C528 1.524 . S
C527 C541 1.377 . S
C528 C527 1.524 . S
C528 C529 1.397 . S
C528 C533 1.363 . S
C529 H506 0.950 . S
C529 C528 1.397 . S
C529 C530 1.334 . S
C530 H507 0.950 1_655 S
C530 C529 1.334 . S
C530 C531 1.287 1_655 S
C531 C530 1.287 1_455 S
C531 C532 1.524 1_455 S
C531 H550 0.913 . S
C532 H508 0.950 1_655 S
C532 C531 1.524 1_655 S
C532 C533 1.415 . S
C533 H509 0.950 . S
C533 C528 1.363 . S
C533 C532 1.415 . S
C534 H510 0.951 . S
C534 C535 1.366 . S
C534 C536 1.388 . S
C535 C534 1.366 . S
C535 C539 1.385 . S
C536 H511 0.951 . S
C536 C534 1.388 . S
C536 C537 1.366 . S
C537 C536 1.366 . S
C537 C538 1.414 . S
C537 C540 1.499 . S
C538 H512 0.950 . S
C538 C537 1.414 . S
C538 C539 1.374 . S
C539 H513 0.950 . S
C539 C535 1.385 . S
C539 C538 1.374 . S
C540 C537 1.499 . S
C540 C541 1.373 . S
C540 C542 1.389 . S
C541 H514 0.950 . S
C541 C527 1.377 . S
C541 C540 1.373 . S
C542 C526 1.377 . S
C542 C540 1.389 . S
C542 C543 1.524 1_545 S
C543 C542 1.524 1_565 S
C543 C544 1.397 . S
C543 C548 1.363 . S
C544 H515 0.950 . S
C544 C543 1.397 . S
C544 C545 1.334 . S
C545 H516 0.950 . S
C545 C544 1.334 . S
C545 C546 1.287 . S
C546 C545 1.287 . S
C546 C547 1.524 . S
C546 H549 0.999 . S
C547 H517 0.950 . S
C547 C546 1.524 . S
C547 C548 1.415 . S
C548 H518 0.950 1_565 S
C548 C543 1.363 . S
C548 C547 1.415 . S
H549 C546 0.999 . S
H550 C531 0.913 . S
H551 C569 0.951 . S
H552 C571 0.951 . S
H553 C573 0.950 . S
H554 C574 0.950 . S
H555 C576 0.950 . S
H556 C579 0.950 . S
H557 C580 0.950 1_455 S
H558 C582 0.950 1_455 S
H559 C583 0.950 . S
H560 C584 0.951 . S
H561 C586 0.951 . S
H562 C588 0.950 . S
H563 C589 0.950 . S
H564 C591 0.950 . S
H565 C594 0.950 . S
H566 C595 0.950 . S
H567 C597 0.950 . S
H568 C598 0.950 . S
C569 H551 0.951 . S
C569 C570 1.366 . S
C569 C571 1.388 1_554 S
C570 C569 1.366 . S
C570 C574 1.385 . S
C571 H552 0.951 . S
C571 C569 1.388 1_556 S
C571 C572 1.366 . S
C572 C571 1.366 . S
C572 C573 1.414 . S
C572 C575 1.499 . S
C573 H553 0.950 . S
C573 C572 1.414 . S
C573 C574 1.374 1_556 S
C574 H554 0.950 . S
C574 C570 1.385 . S
C574 C573 1.374 1_554 S
C575 C572 1.499 . S
C575 C576 1.373 . S
C575 C577 1.389 . S
C576 H555 0.950 . S
C576 C575 1.373 . S
C576 C592 1.377 . S
C577 C575 1.389 . S
C577 C578 1.524 . S
C577 C591 1.377 . S
C578 C577 1.524 . S
C578 C579 1.397 . S
C578 C583 1.363 . S
C579 H556 0.950 . S
C579 C578 1.397 . S
C579 C580 1.334 . S
C580 H557 0.950 1_655 S
C580 C579 1.334 . S
C580 C581 1.287 1_655 S
C581 C580 1.287 1_455 S
C581 C582 1.524 1_455 S
C581 H600 0.913 . S
C582 H558 0.950 1_655 S
C582 C581 1.524 1_655 S
C582 C583 1.415 . S
C583 H559 0.950 . S
C583 C578 1.363 . S
C583 C582 1.415 . S
C584 H560 0.951 . S
C584 C585 1.366 . S
C584 C586 1.388 . S
C585 C584 1.366 . S
C585 C589 1.385 . S
C586 H561 0.951 . S
C586 C584 1.388 . S
C586 C587 1.366 . S
C587 C586 1.366 . S
C587 C588 1.414 . S
C587 C590 1.499 . S
C588 H562 0.950 . S
C588 C587 1.414 . S
C588 C589 1.374 . S
C589 H563 0.950 . S
C589 C585 1.385 . S
C589 C588 1.374 . S
C590 C587 1.499 . S
C590 C591 1.373 . S
C590 C592 1.389 . S
C591 H564 0.950 . S
C591 C577 1.377 . S
C591 C590 1.373 . S
C592 C576 1.377 . S
C592 C590 1.389 . S
C592 C593 1.524 . S
C593 C592 1.524 . S
C593 C594 1.397 . S
C593 C598 1.363 . S
C594 H565 0.950 . S
C594 C593 1.397 . S
C594 C595 1.334 . S
C595 H566 0.950 . S
C595 C594 1.334 . S
C595 C596 1.287 . S
C596 C595 1.287 . S
C596 C597 1.524 . S
C596 H599 0.986 1_556 S
C597 H567 0.950 . S
C597 C596 1.524 . S
C597 C598 1.415 . S
C598 H568 0.950 . S
C598 C593 1.363 . S
C598 C597 1.415 . S
H599 C596 0.986 1_554 S
H600 C581 0.913 . S
H601 C619 0.951 . S
H602 C621 0.951 . S
H603 C623 0.950 . S
H604 C624 0.950 . S
H605 C626 0.950 . S
H606 C629 0.950 . S
H607 C630 0.950 1_545 S
H608 C632 0.950 . S
H609 C633 0.950 . S
H610 C634 0.951 . S
H611 C636 0.951 . S
H612 C638 0.950 . S
H613 C639 0.950 . S
H614 C641 0.950 . S
H615 C644 0.950 . S
H616 C645 0.950 . S
H617 C647 0.950 . S
H618 C648 0.950 . S
C619 H601 0.951 . S
C619 C620 1.366 . S
C619 C621 1.388 . S
C620 C619 1.366 . S
C620 C624 1.385 . S
C621 H602 0.951 . S
C621 C619 1.388 . S
C621 C622 1.366 . S
C622 C621 1.366 . S
C622 C623 1.414 . S
C622 C625 1.499 . S
C623 H603 0.950 . S
C623 C622 1.414 . S
C623 C624 1.374 . S
C624 H604 0.950 . S
C624 C620 1.385 . S
C624 C623 1.374 . S
C625 C622 1.499 . S
C625 C626 1.373 1_455 S
C625 C627 1.389 . S
C626 H605 0.950 . S
C626 C625 1.373 1_655 S
C626 C642 1.377 . S
C627 C625 1.389 . S
C627 C628 1.524 . S
C627 C641 1.377 . S
C628 C627 1.524 . S
C628 C629 1.397 . S
C628 C633 1.363 . S
C629 H606 0.950 . S
C629 C628 1.397 . S
C629 C630 1.334 . S
C630 H607 0.950 1_565 S
C630 C629 1.334 . S
C630 C631 1.287 . S
C631 C630 1.287 . S
C631 C632 1.524 . S
C631 H650 0.913 . S
C632 H608 0.950 . S
C632 C631 1.524 . S
C632 C633 1.415 . S
C633 H609 0.950 . S
C633 C628 1.363 . S
C633 C632 1.415 . S
C634 H610 0.951 . S
C634 C635 1.366 . S
C634 C636 1.388 . S
C635 C634 1.366 . S
C635 C639 1.385 . S
C636 H611 0.951 . S
C636 C634 1.388 . S
C636 C637 1.366 . S
C637 C636 1.366 . S
C637 C638 1.414 . S
C637 C640 1.499 . S
C638 H612 0.950 . S
C638 C637 1.414 . S
C638 C639 1.374 . S
C639 H613 0.950 . S
C639 C635 1.385 . S
C639 C638 1.374 . S
C640 C637 1.499 . S
C640 C641 1.373 . S
C640 C642 1.389 1_455 S
C641 H614 0.950 . S
C641 C627 1.377 . S
C641 C640 1.373 . S
C642 C626 1.377 . S
C642 C640 1.389 1_655 S
C642 C643 1.524 . S
C643 C642 1.524 . S
C643 C644 1.397 . S
C643 C648 1.363 . S
C644 H615 0.950 . S
C644 C643 1.397 . S
C644 C645 1.334 . S
C645 H616 0.950 . S
C645 C644 1.334 . S
C645 C646 1.287 . S
C646 C645 1.287 . S
C646 C647 1.524 . S
C646 H649 0.999 . S
C647 H617 0.950 . S
C647 C646 1.524 . S
C647 C648 1.415 . S
C648 H618 0.950 . S
C648 C643 1.363 . S
C648 C647 1.415 . S
H649 C646 0.999 . S
H650 C631 0.913 . S
H651 C669 0.951 . S
H652 C671 0.951 . S
H653 C673 0.950 . S
H654 C674 0.950 . S
H655 C676 0.950 1_565 S
H656 C679 0.950 . S
H657 C680 0.950 . S
H658 C682 0.950 . S
H659 C683 0.950 . S
H660 C684 0.951 . S
H661 C686 0.951 . S
H662 C688 0.950 . S
H663 C689 0.950 . S
H664 C691 0.950 . S
H665 C694 0.950 . S
H666 C695 0.950 . S
H667 C697 0.950 . S
H668 C698 0.950 . S
C669 H651 0.951 . S
C669 C670 1.366 . S
C669 C671 1.388 . S
C670 C669 1.366 . S
C670 C674 1.385 . S
C671 H652 0.951 . S
C671 C669 1.388 . S
C671 C672 1.366 . S
C672 C671 1.366 . S
C672 C673 1.414 . S
C672 C675 1.499 . S
C673 H653 0.950 . S
C673 C672 1.414 . S
C673 C674 1.374 . S
C674 H654 0.950 . S
C674 C670 1.385 . S
C674 C673 1.374 . S
C675 C672 1.499 . S
C675 C676 1.373 . S
C675 C677 1.389 . S
C676 H655 0.950 1_545 S
C676 C675 1.373 . S
C676 C692 1.377 . S
C677 C675 1.389 . S
C677 C678 1.524 . S
C677 C691 1.377 . S
C678 C677 1.524 . S
C678 C679 1.397 . S
C678 C683 1.363 . S
C679 H656 0.950 . S
C679 C678 1.397 . S
C679 C680 1.334 . S
C680 H657 0.950 . S
C680 C679 1.334 . S
C680 C681 1.287 . S
C681 C680 1.287 . S
C681 C682 1.524 . S
C681 H700 0.913 . S
C682 H658 0.950 . S
C682 C681 1.524 . S
C682 C683 1.415 . S
C683 H659 0.950 . S
C683 C678 1.363 . S
C683 C682 1.415 . S
C684 H660 0.951 . S
C684 C685 1.366 . S
C684 C686 1.388 . S
C685 C684 1.366 . S
C685 C689 1.385 . S
C686 H661 0.951 . S
C686 C684 1.388 . S
C686 C687 1.366 . S
C687 C686 1.366 . S
C687 C688 1.414 . S
C687 C690 1.499 . S
C688 H662 0.950 . S
C688 C687 1.414 . S
C688 C689 1.374 . S
C689 H663 0.950 . S
C689 C685 1.385 . S
C689 C688 1.374 . S
C690 C687 1.499 . S
C690 C691 1.373 . S
C690 C692 1.389 . S
C691 H664 0.950 . S
C691 C677 1.377 . S
C691 C690 1.373 . S
C692 C676 1.377 . S
C692 C690 1.389 . S
C692 C693 1.524 1_545 S
C693 C692 1.524 1_565 S
C693 C694 1.397 . S
C693 C698 1.363 . S
C694 H665 0.950 . S
C694 C693 1.397 . S
C694 C695 1.334 . S
C695 H666 0.950 . S
C695 C694 1.334 . S
C695 C696 1.287 . S
C696 C695 1.287 . S
C696 C697 1.524 . S
C696 H699 0.999 . S
C697 H667 0.950 . S
C697 C696 1.524 . S
C697 C698 1.415 . S
C698 H668 0.950 . S
C698 C693 1.363 . S
C698 C697 1.415 . S
H699 C696 0.999 . S
H700 C681 0.913 . S
H701 C719 0.951 . S
H702 C721 0.951 . S
H703 C723 0.950 . S
H704 C724 0.963 . S
H705 C726 0.950 . S
H706 C729 0.950 . S
H707 C730 0.950 . S
H708 C732 0.950 . S
H709 C733 0.950 . S
H710 C734 0.951 . S
H711 C736 0.951 . S
H712 C738 0.950 . S
H713 C739 0.950 . S
H714 C741 0.950 . S
H715 C744 0.950 . S
H716 C745 0.950 . S
H717 C747 0.950 . S
H718 C748 0.950 . S
C719 H701 0.951 . S
C719 C720 1.366 . S
C719 C721 1.388 1_554 S
C720 C719 1.366 . S
C720 C724 1.400 . S
C721 H702 0.951 . S
C721 C719 1.388 1_556 S
C721 C722 1.366 . S
C722 C721 1.366 . S
C722 C723 1.414 . S
C722 C725 1.499 . S
C723 H703 0.950 . S
C723 C722 1.414 . S
C723 C724 1.347 1_556 S
C724 H704 0.963 . S
C724 C720 1.400 . S
C724 C723 1.347 1_554 S
C725 C722 1.499 . S
C725 C726 1.373 . S
C725 C727 1.389 . S
C726 H705 0.950 . S
C726 C725 1.373 . S
C726 C742 1.377 . S
C727 C725 1.389 . S
C727 C728 1.524 . S
C727 C741 1.377 . S
C728 C727 1.524 . S
C728 C729 1.397 . S
C728 C733 1.363 . S
C729 H706 0.950 . S
C729 C728 1.397 . S
C729 C730 1.334 . S
C730 H707 0.950 . S
C730 C729 1.334 . S
C730 C731 1.287 . S
C731 C730 1.287 . S
C731 C732 1.524 . S
C731 H750 0.913 . S
C732 H708 0.950 . S
C732 C731 1.524 . S
C732 C733 1.415 . S
C733 H709 0.950 . S
C733 C728 1.363 . S
C733 C732 1.415 . S
C734 H710 0.951 . S
C734 C735 1.366 . S
C734 C736 1.388 . S
C735 C734 1.366 . S
C735 C739 1.385 . S
C736 H711 0.951 . S
C736 C734 1.388 . S
C736 C737 1.366 . S
C737 C736 1.366 . S
C737 C738 1.414 . S
C737 C740 1.499 . S
C738 H712 0.950 . S
C738 C737 1.414 . S
C738 C739 1.374 . S
C739 H713 0.950 . S
C739 C735 1.385 . S
C739 C738 1.374 . S
C740 C737 1.499 . S
C740 C741 1.373 . S
C740 C742 1.389 . S
C741 H714 0.950 . S
C741 C727 1.377 . S
C741 C740 1.373 . S
C742 C726 1.377 . S
C742 C740 1.389 . S
C742 C743 1.524 . S
C743 C742 1.524 . S
C743 C744 1.397 . S
C743 C748 1.363 . S
C744 H715 0.950 . S
C744 C743 1.397 . S
C744 C745 1.334 . S
C745 H716 0.950 . S
C745 C744 1.334 . S
C745 C746 1.287 . S
C746 C745 1.287 . S
C746 C747 1.524 . S
C746 H749 0.999 . S
C747 H717 0.950 . S
C747 C746 1.524 . S
C747 C748 1.415 . S
C748 H718 0.950 . S
C748 C743 1.363 . S
C748 C747 1.415 . S
H749 C746 0.999 . S
H750 C731 0.913 . S
H751 C769 0.951 1_655 S
H752 C771 0.951 1_655 S
H753 C773 0.950 . S
H754 C774 0.950 . S
H755 C776 0.950 . S
H756 C779 0.950 . S
H757 C780 0.950 . S
H758 C782 0.950 . S
H759 C783 0.950 . S
H760 C784 0.951 . S
H761 C786 0.951 . S
H762 C788 0.950 1_655 S
H763 C789 0.950 1_655 S
H764 C791 0.950 . S
H765 C794 0.950 . S
H766 C795 0.950 . S
H767 C797 0.950 . S
H768 C798 0.950 . S
C769 H751 0.951 1_455 S
C769 C770 1.366 . S
C769 C771 1.388 . S
C770 C769 1.366 . S
C770 C774 1.385 . S
C771 H752 0.951 1_455 S
C771 C769 1.388 . S
C771 C772 1.366 . S
C772 C771 1.366 . S
C772 C773 1.414 . S
C772 C775 1.499 . S
C773 H753 0.950 . S
C773 C772 1.414 . S
C773 C774 1.374 . S
C774 H754 0.950 . S
C774 C770 1.385 . S
C774 C773 1.374 . S
C775 C772 1.499 . S
C775 C776 1.373 . S
C775 C777 1.389 . S
C776 H755 0.950 . S
C776 C775 1.373 . S
C776 C792 1.377 . S
C777 C775 1.389 . S
C777 C778 1.524 . S
C777 C791 1.377 . S
C778 C777 1.524 . S
C778 C779 1.397 . S
C778 C783 1.363 1_455 S
C779 H756 0.950 . S
C779 C778 1.397 . S
C779 C780 1.334 . S
C780 H757 0.950 . S
C780 C779 1.334 . S
C780 C781 1.287 . S
C781 C780 1.287 . S
C781 C782 1.524 1_455 S
C781 H800 0.913 . S
C782 H758 0.950 . S
C782 C781 1.524 1_655 S
C782 C783 1.415 . S
C783 H759 0.950 . S
C783 C778 1.363 1_655 S
C783 C782 1.415 . S
C784 H760 0.951 . S
C784 C785 1.366 . S
C784 C786 1.388 . S
C785 C784 1.366 . S
C785 C789 1.385 . S
C786 H761 0.951 . S
C786 C784 1.388 . S
C786 C787 1.366 . S
C787 C786 1.366 . S
C787 C788 1.414 . S
C787 C790 1.499 . S
C788 H762 0.950 1_455 S
C788 C787 1.414 . S
C788 C789 1.374 . S
C789 H763 0.950 1_455 S
C789 C785 1.385 . S
C789 C788 1.374 . S
C790 C787 1.499 . S
C790 C791 1.373 . S
C790 C792 1.389 . S
C791 H764 0.950 . S
C791 C777 1.377 . S
C791 C790 1.373 . S
C792 C776 1.377 . S
C792 C790 1.389 . S
C792 C793 1.524 . S
C793 C792 1.524 . S
C793 C794 1.397 . S
C793 C798 1.363 . S
C794 H765 0.950 . S
C794 C793 1.397 . S
C794 C795 1.334 . S
C795 H766 0.950 . S
C795 C794 1.334 . S
C795 C796 1.287 . S
C796 C795 1.287 . S
C796 C797 1.524 . S
C796 H799 0.999 . S
C797 H767 0.950 . S
C797 C796 1.524 . S
C797 C798 1.415 . S
C798 H768 0.950 . S
C798 C793 1.363 . S
C798 C797 1.415 . S
H799 C796 0.999 . S
H800 C781 0.913 . S
C235 C64 1.444 . S
C220 C0 1.440 . S
C270 C25 1.487 . S
C285 C134 1.488 . S
C320 C33 1.507 . S
C335 C186 1.507 . S
C370 C11 1.434 . S
C385 C80 1.435 . S
C435 C124 1.481 . S
C420 C14 1.476 . S
C470 C37 1.499 . S
C485 C170 1.505 . S
C535 C117 1.480 . S
C520 C28 1.475 . S
C570 C9 1.499 1_655 S
C585 C177 1.504 . S
C635 C71 1.537 . S
C620 C19 1.550 . S
C685 C133 1.487 . S
C670 C39 1.487 . S
C735 C187 1.506 . S
C720 C5 1.505 . S
C770 C23 1.548 . S
C785 C81 1.556 . S
