# Generated by pormake.
# Topology pth, (4,4)-cn, num edge types: 1
# Building blocks:
#     Node 0, Type 0, BuildingBlock: GALJAG_clean_sbu_0, # of connection points: 4
#     Node 1, Type 0, BuildingBlock: GALJAG_clean_sbu_0, # of connection points: 4
#     Node 2, Type 0, BuildingBlock: GALJAG_clean_sbu_0, # of connection points: 4
#     Node 3, Type 1, BuildingBlock: NAWXER_clean_sbu_0, # of connection points: 4
#     Node 4, Type 1, BuildingBlock: NAWXER_clean_sbu_0, # of connection points: 4
#     Node 5, Type 1, BuildingBlock: NAWXER_clean_sbu_0, # of connection points: 4
#     Edge 6, Type (0, 1), BuildingBlock: FUNLAD_clean_linker_0, # of connection points: 2
#     Edge 7, Type (0, 1), BuildingBlock: FUNLAD_clean_linker_0, # of connection points: 2
#     Edge 8, Type (0, 1), BuildingBlock: FUNLAD_clean_linker_0, # of connection points: 2
#     Edge 9, Type (0, 1), BuildingBlock: FUNLAD_clean_linker_0, # of connection points: 2
#     Edge 10, Type (0, 1), BuildingBlock: FUNLAD_clean_linker_0, # of connection points: 2
#     Edge 11, Type (0, 1), BuildingBlock: FUNLAD_clean_linker_0, # of connection points: 2
#     Edge 12, Type (0, 1), BuildingBlock: FUNLAD_clean_linker_0, # of connection points: 2
#     Edge 13, Type (0, 1), BuildingBlock: FUNLAD_clean_linker_0, # of connection points: 2
#     Edge 14, Type (0, 1), BuildingBlock: FUNLAD_clean_linker_0, # of connection points: 2
#     Edge 15, Type (0, 1), BuildingBlock: FUNLAD_clean_linker_0, # of connection points: 2
#     Edge 16, Type (0, 1), BuildingBlock: FUNLAD_clean_linker_0, # of connection points: 2
#     Edge 17, Type (0, 1), BuildingBlock: FUNLAD_clean_linker_0, # of connection points: 2
# Relax obj value: 0.017
# Max RMSD: 0.060
# Mean RMSD: 0.053
data_MOF--net-pth--node1-GALJAG_clean_sbu_0--node2-NAWXER_clean_sbu_0--edge1-FUNLAD_clean_linker_0
_symmetry_space_group_name_H-M    P1
_symmetry_Int_Tables_number       1
_symmetry_cell_setting            triclinic
loop_
_symmetry_equiv_pos_as_xyz
'x, y, z'
_cell_length_a     27.089269
_cell_length_b     27.062542
_cell_length_c     65.627841
_cell_angle_alpha  90.20161
_cell_angle_beta   90.060339
_cell_angle_gamma 120.02627
loop_
_atom_site_label
_atom_site_type_symbol
_atom_site_fract_x
_atom_site_fract_y
_atom_site_fract_z
_atom_type_partial_charge
In0 In 0.01233 0.0154 0.06841 0.0
O1 O 0.95672 0.04959 0.08192 0.0
O2 O 0.04263 0.08626 0.09191 0.0
C3 C 0.93796 0.93399 0.04273 0.0
C4 C 0.0891 0.09513 0.04302 0.0
C5 C 0.02394 0.94557 0.09483 0.0
O6 O 0.92512 0.96545 0.05308 0.0
O7 O 0.98857 0.94444 0.04506 0.0
O8 O 0.06293 0.97645 0.08245 0.0
O9 O 0.98043 0.95109 0.09407 0.0
C10 C 0.99626 0.08639 0.09303 0.0
O11 O 0.1037 0.07447 0.0575 0.0
O12 O 0.03602 0.0743 0.04102 0.0
In13 In 0.01867 0.01989 0.40301 0.0
O14 O 0.06193 0.11531 0.39589 0.0
O15 O 0.02378 0.05713 0.37133 0.0
C16 C 0.11024 0.05173 0.42742 0.0
C17 C 0.92435 1.00013 0.42407 0.0
C18 C 0.99506 0.92241 0.3831 0.0
O19 O 0.11222 0.0474 0.40832 0.0
O20 O 0.06211 0.04035 0.43422 0.0
O21 O 0.96913 0.94921 0.37934 0.0
O22 O 0.03228 0.94446 0.39691 0.0
C23 C 0.05055 0.10852 0.37711 0.0
O24 O 0.94568 0.96821 0.42548 0.0
O25 O 0.95036 0.04149 0.4121 0.0
In26 In 0.01177 0.01781 0.73427 0.0
O27 O 0.95762 0.92967 0.74862 0.0
O28 O 0.94739 0.99797 0.75962 0.0
C29 C 0.07713 1.00036 0.70743 0.0
C30 C 0.94535 0.03836 0.70899 0.0
C31 C 0.09454 0.09056 0.7599 0.0
O32 O 0.04124 0.96079 0.71864 0.0
O33 O 0.07897 0.04757 0.70963 0.0
O34 O 0.06496 0.10509 0.7493 0.0
O35 O 0.08181 0.03916 0.75776 0.0
C36 C 0.93217 0.94576 0.76075 0.0
O37 O 0.98284 0.07666 0.72029 0.0
O38 O 0.94196 0.99027 0.71034 0.0
C39 C 0.95294 0.54985 0.2632 0.0
C40 C 0.95418 0.42423 0.20951 0.0
O41 O 1.00315 0.56097 0.25809 0.0
Zn42 Zn 0.04276 0.53048 0.23722 0.0
O43 O 0.90978 0.50899 0.25446 0.0
Zn44 Zn 0.95137 0.48635 0.23618 0.0
O45 O 0.9878 0.45132 0.25646 0.0
O46 O 0.08159 0.50399 0.25525 0.0
O47 O 0.91055 0.42373 0.21693 0.0
O48 O 1.00398 0.4616 0.2158 0.0
O49 O 0.08637 0.59646 0.21982 0.0
O50 O 0.99326 0.55911 0.21679 0.0
C51 C 0.0371 0.46114 0.26233 0.0
C52 C 0.04398 0.5974 0.21189 0.0
C53 C 0.57926 0.03415 0.59551 0.0
C54 C 0.46791 0.04562 0.53895 0.0
O55 O 0.54113 0.98519 0.58876 0.0
Zn56 Zn 0.47625 0.95043 0.56575 0.0
O57 O 0.5842 0.07916 0.58754 0.0
Zn58 Zn 0.524 0.0417 0.56738 0.0
O59 O 0.44822 1.00218 0.58528 0.0
O60 O 0.40666 0.90871 0.58166 0.0
O61 O 0.50735 0.08708 0.54887 0.0
O62 O 0.45342 0.9942 0.54375 0.0
O63 O 0.50237 0.90963 0.54847 0.0
O64 O 0.55825 1.00319 0.54764 0.0
C65 C 0.40723 0.95209 0.58946 0.0
C66 C 0.54678 0.95329 0.54177 0.0
C67 C 0.43228 0.45438 0.92523 0.0
C68 C 0.57133 0.58481 0.8759 0.0
O69 O 0.43524 0.49968 0.91835 0.0
Zn70 Zn 0.50284 0.5235 0.90169 0.0
O71 O 0.47046 0.4417 0.92046 0.0
Zn72 Zn 0.546 0.47493 0.90248 0.0
O73 O 0.60797 0.49748 0.92217 0.0
O74 O 0.56836 0.55138 0.92383 0.0
O75 O 0.58009 0.5446 0.88162 0.0
O76 O 0.53118 0.58963 0.88393 0.0
O77 O 0.47412 0.45468 0.88007 0.0
O78 O 0.52389 0.41082 0.88404 0.0
C79 C 0.60546 0.53896 0.93023 0.0
C80 C 0.4848 0.41524 0.87487 0.0
C81 C 0.9373 0.1247 0.1088 0.0
C82 C 0.99043 0.12839 0.10575 0.0
C83 C 0.93325 0.16595 0.12057 0.0
C84 C 0.98251 0.21179 0.12929 0.0
C85 C 0.03536 0.21529 0.12607 0.0
C86 C 0.03926 0.17396 0.11462 0.0
C87 C 0.98189 0.25785 0.14146 0.0
C88 C 0.93711 0.25189 0.15241 0.0
C89 C 0.94174 0.29727 0.16659 0.0
C90 C 0.89264 0.29935 0.17209 0.0
C91 C 0.89614 0.34084 0.18587 0.0
C92 C 0.94891 0.38088 0.19444 0.0
H93 H 0.03276 0.33549 0.17259 0.0
C94 C 0.99775 0.37829 0.18904 0.0
C95 C 0.99421 0.3369 0.1755 0.0
H96 H 0.03901 0.40767 0.19559 0.0
H97 H 0.89899 0.09014 0.10204 0.0
H98 H 0.89193 0.16244 0.1224 0.0
H99 H 0.074 0.25015 0.13256 0.0
H100 H 0.08088 0.17824 0.11248 0.0
H101 H 0.02189 0.29799 0.14213 0.0
H102 H 0.89644 0.21248 0.15148 0.0
H103 H 0.85151 0.26885 0.16572 0.0
H104 H 0.85763 0.34139 0.18984 0.0
C105 C 0.84889 0.94759 0.45043 0.0
C106 C 0.8742 0.99134 0.43593 0.0
C107 C 0.80344 0.94175 0.46238 0.0
C108 C 0.78223 0.97949 0.45993 0.0
C109 C 0.80708 0.0224 0.44512 0.0
C110 C 0.8524 0.02826 0.43326 0.0
C111 C 0.73749 0.97885 0.47327 0.0
C112 C 0.70338 0.93598 0.48589 0.0
C113 C 0.66295 0.94053 0.50009 0.0
C114 C 0.61333 0.89102 0.5064 0.0
C115 C 0.5751 0.89464 0.51989 0.0
C116 C 0.58617 0.94793 0.52745 0.0
H117 H 0.7132 0.03254 0.50427 0.0
C118 C 0.63639 0.99721 0.52139 0.0
C119 C 0.67437 0.99359 0.50802 0.0
H120 H 0.64686 0.03895 0.52711 0.0
H121 H 0.86499 0.91862 0.45286 0.0
H122 H 0.78651 0.90879 0.47385 0.0
H123 H 0.79197 0.05229 0.44292 0.0
H124 H 0.87093 0.06239 0.4222 0.0
H125 H 0.73239 0.01614 0.47248 0.0
H126 H 0.70384 0.89614 0.48565 0.0
H127 H 0.60388 0.84951 0.50076 0.0
H128 H 0.537 0.85582 0.52437 0.0
C129 C 0.8717 0.84886 0.77591 0.0
C130 C 0.88726 0.90665 0.77492 0.0
C131 C 0.82874 0.81188 0.78917 0.0
C132 C 0.79996 0.83188 0.80163 0.0
C133 C 0.81622 0.88989 0.80078 0.0
C134 C 0.85921 0.92684 0.78754 0.0
C135 C 0.75474 0.79437 0.81628 0.0
C136 C 0.72451 0.73711 0.8145 0.0
C137 C 0.68324 0.69914 0.83004 0.0
C138 C 0.67552 0.64425 0.83227 0.0
C139 C 0.63888 0.60741 0.84707 0.0
C140 C 0.60805 0.62411 0.8598 0.0
H141 H 0.65534 0.75728 0.84078 0.0
C142 C 0.61403 0.67835 0.85716 0.0
C143 C 0.65161 0.71578 0.84247 0.0
H144 H 0.59056 0.69222 0.86668 0.0
H145 H 0.89294 0.8322 0.7665 0.0
H146 H 0.81932 0.7681 0.78982 0.0
H147 H 0.79537 0.90669 0.81033 0.0
H148 H 0.87038 0.97126 0.78717 0.0
H149 H 0.74675 0.81494 0.82907 0.0
H150 H 0.73213 0.71632 0.80171 0.0
H151 H 0.69889 0.63013 0.8228 0.0
H152 H 0.63476 0.56564 0.84853 0.0
C153 C 0.07731 0.90141 0.11076 0.0
C154 C 0.02682 0.90362 0.10843 0.0
C155 C 0.07826 0.85971 0.12315 0.0
C156 C 0.02845 0.81927 0.13321 0.0
C157 C 0.97828 0.82175 0.13078 0.0
C158 C 0.97755 0.86362 0.11871 0.0
C159 C 0.02555 0.77238 0.14579 0.0
C160 C 0.06986 0.77496 0.15613 0.0
C161 C 0.06299 0.72899 0.17034 0.0
C162 C 0.11039 0.72331 0.1754 0.0
C163 C 0.10484 0.6807 0.1889 0.0
C164 C 0.05165 0.64299 0.1976 0.0
H165 H 0.97313 0.69629 0.17704 0.0
C166 C 1.00465 0.64942 0.19278 0.0
C167 C 0.01027 0.69204 0.17956 0.0
H168 H 0.96325 0.62196 0.19951 0.0
H169 H 0.11585 0.93156 0.10291 0.0
H170 H 0.11742 0.8584 0.12435 0.0
H171 H 0.93928 0.79107 0.13829 0.0
H172 H 0.93788 0.86393 0.11715 0.0
H173 H 0.98366 0.73476 0.14712 0.0
H174 H 0.11214 0.81195 0.15451 0.0
H175 H 0.15173 0.75169 0.1688 0.0
H176 H 0.14198 0.6771 0.19242 0.0
C177 C 0.21039 0.07258 0.43266 0.0
C178 C 0.15969 0.06645 0.44081 0.0
C179 C 0.25583 0.08263 0.44545 0.0
C180 C 0.25143 0.08672 0.46669 0.0
C181 C 0.20172 0.08313 0.47471 0.0
C182 C 0.1561 0.07268 0.46193 0.0
C183 C 0.29703 0.09299 0.48089 0.0
C184 C 0.32989 0.06971 0.47701 0.0
C185 C 0.36884 0.06717 0.49235 0.0
C186 C 0.37615 0.01941 0.49232 0.0
C187 C 0.40927 0.01319 0.50726 0.0
C188 C 0.43703 0.05534 0.5223 0.0
H189 H 0.39418 0.14834 0.50716 0.0
C190 C 0.43208 0.1046 0.52181 0.0
C191 C 0.39789 0.11032 0.50703 0.0
H192 H 0.45313 0.13779 0.53321 0.0
H193 H 0.21465 0.0686 0.41642 0.0
H194 H 0.29419 0.08696 0.43866 0.0
H195 H 0.19741 0.08661 0.49099 0.0
H196 H 0.11772 0.06859 0.46864 0.0
H197 H 0.29927 0.11168 0.49579 0.0
H198 H 0.32343 0.04586 0.46295 0.0
H199 H 0.35467 0.98584 0.48107 0.0
H200 H 0.41271 0.97499 0.50713 0.0
C201 C 0.17617 0.11415 0.78355 0.0
C202 C 0.14119 0.13087 0.7734 0.0
C203 C 0.22095 0.15273 0.79606 0.0
C204 C 0.23155 0.20889 0.79864 0.0
C205 C 0.19602 0.22513 0.78865 0.0
C206 C 0.15156 0.18673 0.77608 0.0
C207 C 0.27757 0.25147 0.81206 0.0
C208 C 0.32419 0.24914 0.8179 0.0
C209 C 0.36918 0.29352 0.83122 0.0
C210 C 0.40193 0.2791 0.84389 0.0
C211 C 0.44165 0.31921 0.85761 0.0
C212 C 0.44921 0.37441 0.8588 0.0
H213 H 0.35776 0.36387 0.82136 0.0
C214 C 0.4188 0.38964 0.84531 0.0
C215 C 0.37972 0.34997 0.83158 0.0
H216 H 0.42461 0.43227 0.84555 0.0
H217 H 0.16899 0.07122 0.78183 0.0
H218 H 0.24622 0.13791 0.80389 0.0
H219 H 0.20288 0.26794 0.79046 0.0
H220 H 0.12527 0.20084 0.7685 0.0
H221 H 0.27255 0.28689 0.81717 0.0
H222 H 0.3293 0.21342 0.8133 0.0
H223 H 0.39541 0.23621 0.84367 0.0
H224 H 0.46468 0.30635 0.86777 0.0
C225 C 0.86373 1.00257 0.6846 0.0
C226 C 0.90719 0.04822 0.69561 0.0
C227 C 0.82633 0.01088 0.67238 0.0
C228 C 0.83135 0.0651 0.67095 0.0
C229 C 0.87578 0.11109 0.68152 0.0
C230 C 0.91312 0.10269 0.69388 0.0
C231 C 0.79192 0.07478 0.65798 0.0
C232 C 0.73711 0.03395 0.65505 0.0
C233 C 0.69649 0.03783 0.64073 0.0
C234 C 0.64522 0.98744 0.63642 0.0
C235 C 0.60681 0.98689 0.62215 0.0
C236 C 0.61835 0.03696 0.61186 0.0
H237 H 0.74568 0.12874 0.63402 0.0
C238 C 0.66853 0.08811 0.61666 0.0
C239 C 0.70737 0.08862 0.63094 0.0
H240 H 0.6785 0.12746 0.60904 0.0
H241 H 0.8584 0.9602 0.68546 0.0
H242 H 0.79407 0.9748 0.66385 0.0
H243 H 0.88109 0.15343 0.68045 0.0
H244 H 0.94648 0.13877 0.7021 0.0
H245 H 0.8089 0.11623 0.65089 0.0
H246 H 0.72116 0.99387 0.66315 0.0
H247 H 0.63527 0.94772 0.64377 0.0
H248 H 0.56835 0.94677 0.61898 0.0
C249 C 0.91112 0.84994 0.0198 0.0
C250 C 0.89657 0.88745 0.02938 0.0
C251 C 0.87146 0.80503 0.00758 0.0
C252 C 0.81633 0.79678 0.00468 0.0
C253 C 0.80228 0.83488 0.01405 0.0
C254 C 0.84176 0.87948 0.02636 0.0
C255 C 0.77277 0.75063 0.99151 0.0
C256 C 0.77244 0.70193 0.9866 0.0
C257 C 0.72752 0.65676 0.97343 0.0
C258 C 0.73992 0.61996 0.96217 0.0
C259 C 0.69957 0.57961 0.94867 0.0
C260 C 0.64608 0.57542 0.94623 0.0
H261 H 0.65999 0.675 0.98097 0.0
C262 C 0.6327 0.61007 0.95831 0.0
C263 C 0.6726 0.64981 0.97185 0.0
H264 H 0.59138 0.60706 0.95712 0.0
H265 H 0.95319 0.85519 0.02179 0.0
H266 H 0.88466 0.77774 0.0002 0.0
H267 H 0.76033 0.82989 0.01197 0.0
H268 H 0.8293 0.90772 0.03349 0.0
H269 H 0.73904 0.75746 0.98581 0.0
H270 H 0.80647 0.69507 0.99191 0.0
H271 H 0.78153 0.62364 0.96335 0.0
H272 H 0.71102 0.55334 0.93961 0.0
C273 C 0.94691 0.85057 0.35505 0.0
C274 C 0.98479 0.87087 0.37167 0.0
C275 C 0.94049 0.80416 0.34343 0.0
C276 C 0.97166 0.77687 0.34834 0.0
C277 C 0.00843 0.79659 0.36528 0.0
C278 C 0.0149 0.84292 0.37681 0.0
C279 C 0.97107 0.73112 0.33546 0.0
C280 C 0.93226 0.70161 0.3208 0.0
C281 C 0.93755 0.66092 0.30686 0.0
C282 C 0.88864 0.6167 0.29743 0.0
C283 C 0.89303 0.57958 0.28354 0.0
C284 C 0.94663 0.58644 0.27865 0.0
H285 H 0.03009 0.70227 0.30817 0.0
C286 C 0.99546 0.63071 0.2881 0.0
C287 C 0.99107 0.66758 0.30191 0.0
H288 H 0.03754 0.63773 0.28458 0.0
H289 H 0.9233 0.87146 0.35068 0.0
H290 H 0.91259 0.79138 0.3303 0.0
H291 H 0.03323 0.77675 0.3694 0.0
H292 H 0.04439 0.8575 0.38955 0.0
H293 H 1.00488 0.72151 0.33831 0.0
H294 H 0.89524 0.70664 0.31891 0.0
H295 H 0.84694 0.61099 0.30076 0.0
H296 H 0.85462 0.54615 0.27643 0.0
C297 C 0.11158 0.94013 0.69 0.0
C298 C 0.11608 0.99357 0.69342 0.0
C299 C 0.15033 0.93524 0.67714 0.0
C300 C 0.1944 0.98394 0.66764 0.0
C301 C 0.19854 0.03707 0.67114 0.0
C302 C 0.15973 0.04181 0.68373 0.0
C303 C 0.23837 0.98264 0.65449 0.0
C304 C 0.23181 0.9366 0.6441 0.0
C305 C 0.27602 0.94015 0.62969 0.0
C306 C 0.2801 0.89135 0.62541 0.0
C307 C 0.3222 0.89442 0.61214 0.0
C308 C 0.3609 0.94647 0.60295 0.0
H309 H 0.31012 0.02942 0.62167 0.0
C310 C 0.35553 0.99465 0.60677 0.0
C311 C 0.31342 0.99147 0.61975 0.0
H312 H 0.3837 0.03514 0.59957 0.0
H313 H 0.07848 0.90225 0.69737 0.0
H314 H 0.14639 0.89372 0.67513 0.0
H315 H 0.23207 0.07532 0.66408 0.0
H316 H 0.16456 0.08365 0.6861 0.0
H317 H 0.2778 0.02298 0.65287 0.0
H318 H 0.19339 0.89552 0.64598 0.0
H319 H 0.25123 0.85101 0.63256 0.0
H320 H 0.325 0.85643 0.60936 0.0
C321 C 0.11232 0.1575 0.01238 0.0
C322 C 0.13062 0.14229 0.03011 0.0
C323 C 0.15094 0.20356 0.00056 0.0
C324 C 0.20864 0.23568 0.00633 0.0
C325 C 0.22673 0.22096 0.02419 0.0
C326 C 0.18825 0.17432 0.03587 0.0
C327 C 0.25068 0.28474 0.99404 0.0
C328 C 0.24816 0.28501 0.97358 0.0
C329 C 0.29389 0.33017 0.96111 0.0
C330 C 0.31226 0.314 0.94369 0.0
C331 C 0.35704 0.35488 0.93205 0.0
C332 C 0.38298 0.41299 0.93719 0.0
H333 H 0.30518 0.40202 0.97942 0.0
C334 C 0.36317 0.42978 0.95411 0.0
C335 C 0.31932 0.38847 0.9662 0.0
H336 H 0.38272 0.47442 0.95832 0.0
H337 H 0.06804 0.1339 0.00767 0.0
H338 H 0.13532 0.21453 0.98712 0.0
H339 H 0.2709 0.24521 0.02901 0.0
H340 H 0.20342 0.16397 0.04958 0.0
H341 H 0.28731 0.31901 0.00186 0.0
H342 H 0.21504 0.24791 0.96559 0.0
H343 H 0.29304 0.26942 0.93941 0.0
H344 H 0.37148 0.34104 0.91897 0.0
C345 C 0.04357 0.14619 0.34315 0.0
C346 C 0.06412 0.15665 0.36327 0.0
C347 C 0.05195 0.19128 0.33057 0.0
C348 C 0.08104 0.24787 0.33788 0.0
C349 C 0.1041 0.25854 0.35763 0.0
C350 C 0.09535 0.21334 0.37029 0.0
C351 C 0.08642 0.29609 0.3254 0.0
C352 C 0.04468 0.28963 0.31261 0.0
C353 C 0.04525 0.33669 0.30082 0.0
C354 C 0.9928 0.32991 0.29445 0.0
C355 C 0.99053 0.37117 0.28249 0.0
C356 C 0.04083 0.42021 0.27632 0.0
H357 H 0.13714 0.39238 0.29931 0.0
C358 C 0.0936 0.42759 0.28285 0.0
C359 C 0.09585 0.38621 0.29502 0.0
H360 H 0.13312 0.46472 0.27826 0.0
H361 H 0.01986 0.10302 0.33724 0.0
H362 H 0.03524 0.18165 0.31518 0.0
H363 H 0.12722 0.30176 0.36354 0.0
H364 H 0.11211 0.22273 0.38568 0.0
H365 H 0.12283 0.33824 0.32816 0.0
H366 H 1.00603 0.24822 0.31162 0.0
H367 H 0.95319 0.29222 0.29864 0.0
H368 H 0.94907 0.36385 0.27777 0.0
loop_
_geom_bond_atom_site_label_1
_geom_bond_atom_site_label_2
_geom_bond_distance
_geom_bond_site_symmetry_2
_ccdc_geom_bond_type
In0 O1 2.294 1_455 S
In0 O2 2.326 . S
In0 O6 2.266 1_445 S
In0 O7 2.326 1_445 S
In0 O8 2.266 1_545 S
In0 O9 2.326 1_445 S
In0 O11 2.294 . S
In0 O12 2.326 . S
O1 In0 2.294 1_655 S
O1 C10 1.240 1_655 S
O2 In0 2.326 . S
O2 C10 1.252 . S
C3 O6 1.252 . S
C3 O7 1.260 . S
C4 O11 1.240 . S
C4 O12 1.252 . S
C5 O8 1.243 1_655 S
C5 O9 1.274 . S
O6 In0 2.266 1_665 S
O6 C3 1.252 . S
O7 In0 2.326 1_665 S
O7 C3 1.260 . S
O8 In0 2.266 1_565 S
O8 C5 1.243 1_455 S
O9 In0 2.326 1_665 S
O9 C5 1.274 . S
C10 O1 1.240 1_455 S
C10 O2 1.252 . S
O11 In0 2.294 . S
O11 C4 1.240 . S
O12 In0 2.326 . S
O12 C4 1.252 . S
In13 O14 2.294 . S
In13 O15 2.326 1_455 S
In13 O19 2.266 . S
In13 O20 2.326 1_545 S
In13 O21 2.266 1_445 S
In13 O22 2.326 1_545 S
In13 O24 2.294 1_445 S
In13 O25 2.326 1_455 S
O14 In13 2.294 . S
O14 C23 1.240 1_455 S
O15 In13 2.326 1_655 S
O15 C23 1.252 . S
C16 O19 1.252 1_565 S
C16 O20 1.260 . S
C17 O24 1.240 1_545 S
C17 O25 1.252 . S
C18 O21 1.252 1_455 S
C18 O22 1.260 . S
O19 In13 2.266 . S
O19 C16 1.252 1_545 S
O20 In13 2.326 1_565 S
O20 C16 1.260 . S
O21 In13 2.266 1_665 S
O21 C18 1.252 1_655 S
O22 In13 2.326 1_565 S
O22 C18 1.260 . S
C23 O14 1.240 1_655 S
C23 O15 1.252 . S
O24 In13 2.294 1_665 S
O24 C17 1.240 1_565 S
O25 In13 2.326 1_655 S
O25 C17 1.252 . S
In26 O27 2.276 1_445 S
In26 O28 2.329 1_445 S
In26 O32 2.249 1_545 S
In26 O33 2.329 . S
In26 O34 2.284 . S
In26 O35 2.323 . S
In26 O37 2.312 1_455 S
In26 O38 2.324 1_445 S
O27 In26 2.276 1_665 S
O27 C36 1.240 . S
O28 In26 2.329 1_665 S
O28 C36 1.252 . S
C29 O32 1.252 1_545 S
C29 O33 1.260 . S
C30 O37 1.240 1_565 S
C30 O38 1.252 . S
C31 O34 1.252 . S
C31 O35 1.260 . S
O32 In26 2.249 1_565 S
O32 C29 1.252 1_565 S
O33 In26 2.329 . S
O33 C29 1.260 . S
O34 In26 2.284 . S
O34 C31 1.252 . S
O35 In26 2.323 . S
O35 C31 1.260 . S
C36 O27 1.240 . S
C36 O28 1.252 . S
O37 In26 2.312 1_655 S
O37 C30 1.240 1_545 S
O38 In26 2.324 1_665 S
O38 C30 1.252 . S
C39 O41 1.247 . S
C39 O43 1.258 1_455 S
C40 O47 1.247 1_455 S
C40 O48 1.258 . S
O41 C39 1.247 . S
O41 Zn42 2.028 . S
Zn42 O41 2.028 . S
Zn42 O46 2.035 . S
Zn42 O48 2.035 . S
Zn42 O49 2.028 . S
O43 C39 1.258 1_655 S
O43 Zn44 2.035 . S
Zn44 O43 2.035 . S
Zn44 O45 2.028 . S
Zn44 O47 2.028 . S
Zn44 O50 2.035 . S
O45 Zn44 2.028 . S
O45 C51 1.247 1_655 S
O46 Zn42 2.035 . S
O46 C51 1.258 . S
O47 C40 1.247 1_655 S
O47 Zn44 2.028 . S
O48 C40 1.258 . S
O48 Zn42 2.035 . S
O49 Zn42 2.028 . S
O49 C52 1.247 . S
O50 Zn44 2.035 . S
O50 C52 1.258 1_655 S
C51 O45 1.247 1_455 S
C51 O46 1.258 . S
C52 O49 1.247 . S
C52 O50 1.258 1_455 S
C53 O55 1.247 1_545 S
C53 O57 1.258 . S
C54 O61 1.247 . S
C54 O62 1.258 1_545 S
O55 C53 1.247 1_565 S
O55 Zn56 2.028 . S
Zn56 O55 2.028 . S
Zn56 O60 2.035 . S
Zn56 O62 2.035 . S
Zn56 O63 2.028 . S
O57 C53 1.258 . S
O57 Zn58 2.035 . S
Zn58 O57 2.035 . S
Zn58 O59 2.028 . S
Zn58 O61 2.028 . S
Zn58 O64 2.035 . S
O59 Zn58 2.028 . S
O59 C65 1.247 . S
O60 Zn56 2.035 . S
O60 C65 1.258 1_565 S
O61 C54 1.247 . S
O61 Zn58 2.028 . S
O62 C54 1.258 1_565 S
O62 Zn56 2.035 . S
O63 Zn56 2.028 . S
O63 C66 1.247 1_565 S
O64 Zn58 2.035 . S
O64 C66 1.258 . S
C65 O59 1.247 . S
C65 O60 1.258 1_545 S
C66 O63 1.247 1_545 S
C66 O64 1.258 . S
C67 O69 1.247 . S
C67 O71 1.258 . S
C68 O75 1.247 . S
C68 O76 1.258 . S
O69 C67 1.247 . S
O69 Zn70 2.028 . S
Zn70 O69 2.028 . S
Zn70 O74 2.035 . S
Zn70 O76 2.035 . S
Zn70 O77 2.028 . S
O71 C67 1.258 . S
O71 Zn72 2.035 . S
Zn72 O71 2.035 . S
Zn72 O73 2.028 . S
Zn72 O75 2.028 . S
Zn72 O78 2.035 . S
O73 Zn72 2.028 . S
O73 C79 1.247 . S
O74 Zn70 2.035 . S
O74 C79 1.258 . S
O75 C68 1.247 . S
O75 Zn72 2.028 . S
O76 C68 1.258 . S
O76 Zn70 2.035 . S
O77 Zn70 2.028 . S
O77 C80 1.247 . S
O78 Zn72 2.035 . S
O78 C80 1.258 . S
C79 O73 1.247 . S
C79 O74 1.258 . S
C80 O77 1.247 . S
C80 O78 1.258 . S
C81 C82 1.386 1_655 S
C81 C83 1.383 . S
C81 H97 0.951 . S
C82 C81 1.386 1_455 S
C82 C86 1.383 . S
C83 C81 1.383 . S
C83 C84 1.402 1_655 S
C83 H98 0.951 . S
C84 C83 1.402 1_455 S
C84 C85 1.375 . S
C84 C87 1.481 . S
C85 C84 1.375 . S
C85 C86 1.367 . S
C85 H99 0.951 . S
C86 C82 1.383 . S
C86 C85 1.367 . S
C86 H100 0.950 . S
C87 C84 1.481 . S
C87 C88 1.297 1_455 S
C87 H101 0.950 . S
C88 C87 1.297 1_655 S
C88 C89 1.479 . S
C88 H102 0.950 . S
C89 C88 1.479 . S
C89 C90 1.375 . S
C89 C95 1.404 1_655 S
C90 C89 1.375 . S
C90 C91 1.369 . S
C90 H103 0.950 . S
C91 C90 1.369 . S
C91 C92 1.392 . S
C91 H104 0.951 . S
C92 C91 1.392 . S
C92 C94 1.384 1_655 S
H93 C95 0.949 . S
C94 C92 1.384 1_455 S
C94 C95 1.385 . S
C94 H96 0.950 . S
C95 C89 1.404 1_455 S
C95 H93 0.949 . S
C95 C94 1.385 . S
H96 C94 0.950 . S
H97 C81 0.951 . S
H98 C83 0.951 . S
H99 C85 0.951 . S
H100 C86 0.950 . S
H101 C87 0.950 . S
H102 C88 0.950 . S
H103 C90 0.950 . S
H104 C91 0.951 . S
C105 C106 1.386 1_565 S
C105 C107 1.383 . S
C105 H121 0.951 . S
C106 C105 1.386 1_545 S
C106 C110 1.383 . S
C107 C105 1.383 . S
C107 C108 1.402 1_565 S
C107 H122 0.951 . S
C108 C107 1.402 1_545 S
C108 C109 1.375 . S
C108 C111 1.481 . S
C109 C108 1.375 . S
C109 C110 1.367 . S
C109 H123 0.951 . S
C110 C106 1.383 . S
C110 C109 1.367 . S
C110 H124 0.950 . S
C111 C108 1.481 . S
C111 C112 1.297 . S
C111 H125 0.950 . S
C112 C111 1.297 . S
C112 C113 1.479 . S
C112 H126 0.950 1_545 S
C113 C112 1.479 . S
C113 C114 1.375 1_545 S
C113 C119 1.404 . S
C114 C113 1.375 1_565 S
C114 C115 1.369 . S
C114 H127 0.950 . S
C115 C114 1.369 . S
C115 C116 1.392 1_565 S
C115 H128 0.951 . S
C116 C115 1.392 1_545 S
C116 C118 1.384 . S
H117 C119 0.949 . S
C118 C116 1.384 . S
C118 C119 1.385 . S
C118 H120 0.950 . S
C119 C113 1.404 . S
C119 H117 0.949 . S
C119 C118 1.385 . S
H120 C118 0.950 . S
H121 C105 0.951 . S
H122 C107 0.951 . S
H123 C109 0.951 . S
H124 C110 0.950 . S
H125 C111 0.950 . S
H126 C112 0.950 1_565 S
H127 C114 0.950 . S
H128 C115 0.951 . S
C129 C130 1.386 . S
C129 C131 1.383 . S
C129 H145 0.951 . S
C130 C129 1.386 . S
C130 C134 1.383 . S
C131 C129 1.383 . S
C131 C132 1.402 . S
C131 H146 0.951 . S
C132 C131 1.402 . S
C132 C133 1.375 . S
C132 C135 1.481 . S
C133 C132 1.375 . S
C133 C134 1.367 . S
C133 H147 0.951 . S
C134 C130 1.383 . S
C134 C133 1.367 . S
C134 H148 0.950 . S
C135 C132 1.481 . S
C135 C136 1.297 . S
C135 H149 0.950 . S
C136 C135 1.297 . S
C136 C137 1.479 . S
C136 H150 0.950 . S
C137 C136 1.479 . S
C137 C138 1.375 . S
C137 C143 1.404 . S
C138 C137 1.375 . S
C138 C139 1.369 . S
C138 H151 0.950 . S
C139 C138 1.369 . S
C139 C140 1.392 . S
C139 H152 0.951 . S
C140 C139 1.392 . S
C140 C142 1.384 . S
H141 C143 0.949 . S
C142 C140 1.384 . S
C142 C143 1.385 . S
C142 H144 0.950 . S
C143 C137 1.404 . S
C143 H141 0.949 . S
C143 C142 1.385 . S
H144 C142 0.950 . S
H145 C129 0.951 . S
H146 C131 0.951 . S
H147 C133 0.951 . S
H148 C134 0.950 . S
H149 C135 0.950 . S
H150 C136 0.950 . S
H151 C138 0.950 . S
H152 C139 0.951 . S
C153 C154 1.386 1_455 S
C153 C155 1.383 . S
C153 H169 0.951 . S
C154 C153 1.386 1_655 S
C154 C158 1.383 . S
C155 C153 1.383 . S
C155 C156 1.402 1_455 S
C155 H170 0.951 . S
C156 C155 1.402 1_655 S
C156 C157 1.375 . S
C156 C159 1.481 . S
C157 C156 1.375 . S
C157 C158 1.367 . S
C157 H171 0.951 . S
C158 C154 1.383 . S
C158 C157 1.367 . S
C158 H172 0.950 . S
C159 C156 1.481 . S
C159 C160 1.297 . S
C159 H173 0.950 . S
C160 C159 1.297 . S
C160 C161 1.479 . S
C160 H174 0.950 1_655 S
C161 C160 1.479 . S
C161 C162 1.375 1_655 S
C161 C167 1.404 . S
C162 C161 1.375 1_455 S
C162 C163 1.369 . S
C162 H175 0.950 . S
C163 C162 1.369 . S
C163 C164 1.392 1_455 S
C163 H176 0.951 . S
C164 C163 1.392 1_655 S
C164 C166 1.384 . S
H165 C167 0.949 . S
C166 C164 1.384 . S
C166 C167 1.385 . S
C166 H168 0.950 . S
C167 C161 1.404 . S
C167 H165 0.949 . S
C167 C166 1.385 . S
H168 C166 0.950 . S
H169 C153 0.951 . S
H170 C155 0.951 . S
H171 C157 0.951 . S
H172 C158 0.950 . S
H173 C159 0.950 . S
H174 C160 0.950 1_455 S
H175 C162 0.950 . S
H176 C163 0.951 . S
C177 C178 1.386 1_565 S
C177 C179 1.383 1_565 S
C177 H193 0.951 . S
C178 C177 1.386 1_545 S
C178 C182 1.383 . S
C179 C177 1.383 1_545 S
C179 C180 1.402 . S
C179 H194 0.951 . S
C180 C179 1.402 . S
C180 C181 1.375 . S
C180 C183 1.481 . S
C181 C180 1.375 . S
C181 C182 1.367 . S
C181 H195 0.951 . S
C182 C178 1.383 . S
C182 C181 1.367 . S
C182 H196 0.950 . S
C183 C180 1.481 . S
C183 C184 1.297 . S
C183 H197 0.950 . S
C184 C183 1.297 . S
C184 C185 1.479 . S
C184 H198 0.950 . S
C185 C184 1.479 . S
C185 C186 1.375 . S
C185 C191 1.404 . S
C186 C185 1.375 . S
C186 C187 1.369 . S
C186 H199 0.950 . S
C187 C186 1.369 . S
C187 C188 1.392 . S
C187 H200 0.951 1_545 S
C188 C187 1.392 . S
C188 C190 1.384 . S
H189 C191 0.949 . S
C190 C188 1.384 . S
C190 C191 1.385 . S
C190 H192 0.950 . S
C191 C185 1.404 . S
C191 H189 0.949 . S
C191 C190 1.385 . S
H192 C190 0.950 . S
H193 C177 0.951 . S
H194 C179 0.951 . S
H195 C181 0.951 . S
H196 C182 0.950 . S
H197 C183 0.950 . S
H198 C184 0.950 . S
H199 C186 0.950 . S
H200 C187 0.951 1_565 S
C201 C202 1.386 . S
C201 C203 1.383 . S
C201 H217 0.951 . S
C202 C201 1.386 . S
C202 C206 1.383 . S
C203 C201 1.383 . S
C203 C204 1.402 . S
C203 H218 0.951 . S
C204 C203 1.402 . S
C204 C205 1.375 . S
C204 C207 1.481 . S
C205 C204 1.375 . S
C205 C206 1.367 . S
C205 H219 0.951 . S
C206 C202 1.383 . S
C206 C205 1.367 . S
C206 H220 0.950 . S
C207 C204 1.481 . S
C207 C208 1.297 . S
C207 H221 0.950 . S
C208 C207 1.297 . S
C208 C209 1.479 . S
C208 H222 0.950 . S
C209 C208 1.479 . S
C209 C210 1.375 . S
C209 C215 1.404 . S
C210 C209 1.375 . S
C210 C211 1.369 . S
C210 H223 0.950 . S
C211 C210 1.369 . S
C211 C212 1.392 . S
C211 H224 0.951 . S
C212 C211 1.392 . S
C212 C214 1.384 . S
H213 C215 0.949 . S
C214 C212 1.384 . S
C214 C215 1.385 . S
C214 H216 0.950 . S
C215 C209 1.404 . S
C215 H213 0.949 . S
C215 C214 1.385 . S
H216 C214 0.950 . S
H217 C201 0.951 . S
H218 C203 0.951 . S
H219 C205 0.951 . S
H220 C206 0.950 . S
H221 C207 0.950 . S
H222 C208 0.950 . S
H223 C210 0.950 . S
H224 C211 0.951 . S
C225 C226 1.386 . S
C225 C227 1.383 . S
C225 H241 0.951 . S
C226 C225 1.386 . S
C226 C230 1.383 1_565 S
C227 C225 1.383 . S
C227 C228 1.402 1_565 S
C227 H242 0.951 . S
C228 C227 1.402 1_545 S
C228 C229 1.375 . S
C228 C231 1.481 . S
C229 C228 1.375 . S
C229 C230 1.367 . S
C229 H243 0.951 . S
C230 C226 1.383 1_545 S
C230 C229 1.367 . S
C230 H244 0.950 . S
C231 C228 1.481 . S
C231 C232 1.297 1_545 S
C231 H245 0.950 . S
C232 C231 1.297 1_565 S
C232 C233 1.479 . S
C232 H246 0.950 . S
C233 C232 1.479 . S
C233 C234 1.375 . S
C233 C239 1.404 1_565 S
C234 C233 1.375 . S
C234 C235 1.369 . S
C234 H247 0.950 . S
C235 C234 1.369 . S
C235 C236 1.392 . S
C235 H248 0.951 . S
C236 C235 1.392 . S
C236 C238 1.384 1_565 S
H237 C239 0.949 . S
C238 C236 1.384 1_545 S
C238 C239 1.385 . S
C238 H240 0.950 . S
C239 C233 1.404 1_545 S
C239 H237 0.949 . S
C239 C238 1.385 . S
H240 C238 0.950 . S
H241 C225 0.951 . S
H242 C227 0.951 . S
H243 C229 0.951 . S
H244 C230 0.950 . S
H245 C231 0.950 . S
H246 C232 0.950 . S
H247 C234 0.950 . S
H248 C235 0.951 . S
C249 C250 1.386 . S
C249 C251 1.383 . S
C249 H265 0.951 . S
C250 C249 1.386 . S
C250 C254 1.383 . S
C251 C249 1.383 . S
C251 C252 1.402 . S
C251 H266 0.951 1_554 S
C252 C251 1.402 . S
C252 C253 1.375 . S
C252 C255 1.480 1_554 S
C253 C252 1.375 . S
C253 C254 1.367 . S
C253 H267 0.951 . S
C254 C250 1.383 . S
C254 C253 1.367 . S
C254 H268 0.950 . S
C255 C252 1.480 1_556 S
C255 C256 1.298 . S
C255 H269 0.949 1_556 S
C256 C255 1.298 . S
C256 C257 1.479 . S
C256 H270 0.950 . S
C257 C256 1.479 . S
C257 C258 1.375 . S
C257 C263 1.404 . S
C258 C257 1.375 . S
C258 C259 1.369 . S
C258 H271 0.950 . S
C259 C258 1.369 . S
C259 C260 1.392 . S
C259 H272 0.951 . S
C260 C259 1.392 . S
C260 C262 1.384 . S
H261 C263 0.949 . S
C262 C260 1.384 . S
C262 C263 1.385 . S
C262 H264 0.950 . S
C263 C257 1.404 . S
C263 H261 0.949 . S
C263 C262 1.385 . S
H264 C262 0.950 . S
H265 C249 0.951 . S
H266 C251 0.951 1_556 S
H267 C253 0.951 . S
H268 C254 0.950 . S
H269 C255 0.949 1_554 S
H270 C256 0.950 . S
H271 C258 0.950 . S
H272 C259 0.951 . S
C273 C274 1.386 1_655 S
C273 C275 1.383 . S
C273 H289 0.951 . S
C274 C273 1.386 1_455 S
C274 C278 1.383 . S
C275 C273 1.383 . S
C275 C276 1.402 1_655 S
C275 H290 0.951 . S
C276 C275 1.402 1_455 S
C276 C277 1.375 . S
C276 C279 1.481 . S
C277 C276 1.375 . S
C277 C278 1.367 . S
C277 H291 0.951 . S
C278 C274 1.383 . S
C278 C277 1.367 . S
C278 H292 0.950 . S
C279 C276 1.481 . S
C279 C280 1.297 1_455 S
C279 H293 0.950 . S
C280 C279 1.297 1_655 S
C280 C281 1.479 . S
C280 H294 0.950 . S
C281 C280 1.479 . S
C281 C282 1.375 . S
C281 C287 1.404 1_655 S
C282 C281 1.375 . S
C282 C283 1.369 . S
C282 H295 0.950 . S
C283 C282 1.369 . S
C283 C284 1.408 . S
C283 H296 0.951 . S
C284 C283 1.408 . S
C284 C286 1.380 1_655 S
H285 C287 0.949 . S
C286 C284 1.380 1_455 S
C286 C287 1.385 . S
C286 H288 0.950 . S
C287 C281 1.404 1_455 S
C287 H285 0.949 . S
C287 C286 1.385 . S
H288 C286 0.950 . S
H289 C273 0.951 . S
H290 C275 0.951 . S
H291 C277 0.951 . S
H292 C278 0.950 . S
H293 C279 0.950 . S
H294 C280 0.950 . S
H295 C282 0.950 . S
H296 C283 0.951 . S
C297 C298 1.386 1_565 S
C297 C299 1.383 . S
C297 H313 0.951 . S
C298 C297 1.386 1_545 S
C298 C302 1.383 . S
C299 C297 1.383 . S
C299 C300 1.402 1_565 S
C299 H314 0.951 . S
C300 C299 1.402 1_545 S
C300 C301 1.375 . S
C300 C303 1.481 . S
C301 C300 1.375 . S
C301 C302 1.367 . S
C301 H315 0.951 . S
C302 C298 1.383 . S
C302 C301 1.367 . S
C302 H316 0.950 . S
C303 C300 1.481 . S
C303 C304 1.297 1_545 S
C303 H317 0.950 . S
C304 C303 1.297 1_565 S
C304 C305 1.479 . S
C304 H318 0.950 . S
C305 C304 1.479 . S
C305 C306 1.375 . S
C305 C311 1.404 1_565 S
C306 C305 1.375 . S
C306 C307 1.369 . S
C306 H319 0.950 . S
C307 C306 1.369 . S
C307 C308 1.392 . S
C307 H320 0.951 . S
C308 C307 1.392 . S
C308 C310 1.384 1_565 S
H309 C311 0.949 . S
C310 C308 1.384 1_545 S
C310 C311 1.385 . S
C310 H312 0.950 . S
C311 C305 1.404 1_545 S
C311 H309 0.949 . S
C311 C310 1.385 . S
H312 C310 0.950 . S
H313 C297 0.951 . S
H314 C299 0.951 . S
H315 C301 0.951 . S
H316 C302 0.950 . S
H317 C303 0.950 . S
H318 C304 0.950 . S
H319 C306 0.950 . S
H320 C307 0.951 . S
C321 C322 1.386 . S
C321 C323 1.360 1_554 S
C321 H337 0.951 . S
C322 C321 1.386 . S
C322 C326 1.383 . S
C323 C321 1.360 1_556 S
C323 C324 1.386 1_556 S
C323 H338 0.991 . S
C324 C323 1.386 1_554 S
C324 C325 1.375 . S
C324 C327 1.481 1_554 S
C325 C324 1.375 . S
C325 C326 1.367 . S
C325 H339 0.951 . S
C326 C322 1.383 . S
C326 C325 1.367 . S
C326 H340 0.950 . S
C327 C324 1.481 1_556 S
C327 C328 1.297 . S
C327 H341 0.950 1_556 S
C328 C327 1.297 . S
C328 C329 1.479 . S
C328 H342 0.950 . S
C329 C328 1.479 . S
C329 C330 1.375 . S
C329 C335 1.404 . S
C330 C329 1.375 . S
C330 C331 1.369 . S
C330 H343 0.950 . S
C331 C330 1.369 . S
C331 C332 1.392 . S
C331 H344 0.951 . S
C332 C331 1.392 . S
C332 C334 1.384 . S
H333 C335 0.949 . S
C334 C332 1.384 . S
C334 C335 1.385 . S
C334 H336 0.950 . S
C335 C329 1.404 . S
C335 H333 0.949 . S
C335 C334 1.385 . S
H336 C334 0.950 . S
H337 C321 0.951 . S
H338 C323 0.991 . S
H339 C325 0.951 . S
H340 C326 0.950 . S
H341 C327 0.950 1_554 S
H342 C328 0.950 . S
H343 C330 0.950 . S
H344 C331 0.951 . S
C345 C346 1.386 1_655 S
C345 C347 1.383 . S
C345 H361 0.951 . S
C346 C345 1.386 1_455 S
C346 C350 1.383 . S
C347 C345 1.383 . S
C347 C348 1.402 1_655 S
C347 H362 0.951 . S
C348 C347 1.402 1_455 S
C348 C349 1.375 . S
C348 C351 1.481 . S
C349 C348 1.375 . S
C349 C350 1.367 . S
C349 H363 0.951 . S
C350 C346 1.383 . S
C350 C349 1.367 . S
C350 H364 0.950 . S
C351 C348 1.481 . S
C351 C352 1.297 . S
C351 H365 0.950 . S
C352 C351 1.297 . S
C352 C353 1.479 . S
C352 H366 0.950 1_455 S
C353 C352 1.479 . S
C353 C354 1.375 1_455 S
C353 C359 1.404 . S
C354 C353 1.375 1_655 S
C354 C355 1.369 . S
C354 H367 0.950 . S
C355 C354 1.369 . S
C355 C356 1.392 1_655 S
C355 H368 0.951 . S
C356 C355 1.392 1_455 S
C356 C358 1.384 . S
H357 C359 0.949 . S
C358 C356 1.384 . S
C358 C359 1.385 . S
C358 H360 0.950 . S
C359 C353 1.404 . S
C359 H357 0.949 . S
C359 C358 1.385 . S
H360 C358 0.950 . S
H361 C345 0.951 . S
H362 C347 0.951 . S
H363 C349 0.951 . S
H364 C350 0.950 . S
H365 C351 0.950 . S
H366 C352 0.950 1_655 S
H367 C354 0.950 . S
H368 C355 0.951 . S
C92 C40 1.486 1_655 S
C82 C10 1.491 . S
C106 C17 1.492 . S
C116 C66 1.488 . S
C130 C36 1.492 . S
C140 C68 1.487 . S
C154 C5 1.490 . S
C164 C52 1.489 1_655 S
C188 C54 1.485 . S
C178 C16 1.492 1_545 S
C202 C31 1.496 . S
C212 C80 1.483 . S
C236 C53 1.479 1_565 S
C226 C30 1.492 . S
C250 C3 1.496 . S
C260 C79 1.482 . S
C284 C39 1.481 1_655 S
C274 C18 1.492 . S
C308 C65 1.490 1_565 S
C298 C29 1.491 . S
C332 C67 1.484 . S
C322 C4 1.493 . S
C346 C23 1.491 1_455 S
C356 C51 1.481 . S
